# Generated by pormake.
# Topology uoe, (4)-cn, num edge types: 1
# Building blocks:
#     Node 0, Type 0, BuildingBlock: GALJAG_clean_sbu_0, # of connection points: 4
#     Node 1, Type 0, BuildingBlock: GALJAG_clean_sbu_0, # of connection points: 4
#     Node 2, Type 0, BuildingBlock: GALJAG_clean_sbu_0, # of connection points: 4
#     Node 3, Type 0, BuildingBlock: GALJAG_clean_sbu_0, # of connection points: 4
#     Node 4, Type 0, BuildingBlock: GALJAG_clean_sbu_0, # of connection points: 4
#     Node 5, Type 0, BuildingBlock: GALJAG_clean_sbu_0, # of connection points: 4
#     Node 6, Type 0, BuildingBlock: GALJAG_clean_sbu_0, # of connection points: 4
#     Node 7, Type 0, BuildingBlock: GALJAG_clean_sbu_0, # of connection points: 4
#     Node 8, Type 0, BuildingBlock: GALJAG_clean_sbu_0, # of connection points: 4
#     Node 9, Type 0, BuildingBlock: GALJAG_clean_sbu_0, # of connection points: 4
#     Node 10, Type 0, BuildingBlock: GALJAG_clean_sbu_0, # of connection points: 4
#     Node 11, Type 0, BuildingBlock: GALJAG_clean_sbu_0, # of connection points: 4
#     Node 12, Type 0, BuildingBlock: GALJAG_clean_sbu_0, # of connection points: 4
#     Node 13, Type 0, BuildingBlock: GALJAG_clean_sbu_0, # of connection points: 4
#     Node 14, Type 0, BuildingBlock: GALJAG_clean_sbu_0, # of connection points: 4
#     Node 15, Type 0, BuildingBlock: GALJAG_clean_sbu_0, # of connection points: 4
#     Node 16, Type 0, BuildingBlock: GALJAG_clean_sbu_0, # of connection points: 4
#     Node 17, Type 0, BuildingBlock: GALJAG_clean_sbu_0, # of connection points: 4
#     Node 18, Type 0, BuildingBlock: GALJAG_clean_sbu_0, # of connection points: 4
#     Node 19, Type 0, BuildingBlock: GALJAG_clean_sbu_0, # of connection points: 4
#     Node 20, Type 0, BuildingBlock: GALJAG_clean_sbu_0, # of connection points: 4
#     Node 21, Type 0, BuildingBlock: GALJAG_clean_sbu_0, # of connection points: 4
#     Node 22, Type 0, BuildingBlock: GALJAG_clean_sbu_0, # of connection points: 4
#     Node 23, Type 0, BuildingBlock: GALJAG_clean_sbu_0, # of connection points: 4
#     Node 24, Type 0, BuildingBlock: GALJAG_clean_sbu_0, # of connection points: 4
#     Node 25, Type 0, BuildingBlock: GALJAG_clean_sbu_0, # of connection points: 4
#     Node 26, Type 0, BuildingBlock: GALJAG_clean_sbu_0, # of connection points: 4
#     Node 27, Type 0, BuildingBlock: GALJAG_clean_sbu_0, # of connection points: 4
#     Node 28, Type 0, BuildingBlock: GALJAG_clean_sbu_0, # of connection points: 4
#     Node 29, Type 0, BuildingBlock: GALJAG_clean_sbu_0, # of connection points: 4
#     Node 30, Type 0, BuildingBlock: GALJAG_clean_sbu_0, # of connection points: 4
#     Node 31, Type 0, BuildingBlock: GALJAG_clean_sbu_0, # of connection points: 4
#     Edge 32, Type (0, 0), BuildingBlock: CIFDUS_clean_linker_0, # of connection points: 2
#     Edge 33, Type (0, 0), BuildingBlock: CIFDUS_clean_linker_0, # of connection points: 2
#     Edge 34, Type (0, 0), BuildingBlock: CIFDUS_clean_linker_0, # of connection points: 2
#     Edge 35, Type (0, 0), BuildingBlock: CIFDUS_clean_linker_0, # of connection points: 2
#     Edge 36, Type (0, 0), BuildingBlock: CIFDUS_clean_linker_0, # of connection points: 2
#     Edge 37, Type (0, 0), BuildingBlock: CIFDUS_clean_linker_0, # of connection points: 2
#     Edge 38, Type (0, 0), BuildingBlock: CIFDUS_clean_linker_0, # of connection points: 2
#     Edge 39, Type (0, 0), BuildingBlock: CIFDUS_clean_linker_0, # of connection points: 2
#     Edge 40, Type (0, 0), BuildingBlock: CIFDUS_clean_linker_0, # of connection points: 2
#     Edge 41, Type (0, 0), BuildingBlock: CIFDUS_clean_linker_0, # of connection points: 2
#     Edge 42, Type (0, 0), BuildingBlock: CIFDUS_clean_linker_0, # of connection points: 2
#     Edge 43, Type (0, 0), BuildingBlock: CIFDUS_clean_linker_0, # of connection points: 2
#     Edge 44, Type (0, 0), BuildingBlock: CIFDUS_clean_linker_0, # of connection points: 2
#     Edge 45, Type (0, 0), BuildingBlock: CIFDUS_clean_linker_0, # of connection points: 2
#     Edge 46, Type (0, 0), BuildingBlock: CIFDUS_clean_linker_0, # of connection points: 2
#     Edge 47, Type (0, 0), BuildingBlock: CIFDUS_clean_linker_0, # of connection points: 2
#     Edge 48, Type (0, 0), BuildingBlock: CIFDUS_clean_linker_0, # of connection points: 2
#     Edge 49, Type (0, 0), BuildingBlock: CIFDUS_clean_linker_0, # of connection points: 2
#     Edge 50, Type (0, 0), BuildingBlock: CIFDUS_clean_linker_0, # of connection points: 2
#     Edge 51, Type (0, 0), BuildingBlock: CIFDUS_clean_linker_0, # of connection points: 2
#     Edge 52, Type (0, 0), BuildingBlock: CIFDUS_clean_linker_0, # of connection points: 2
#     Edge 53, Type (0, 0), BuildingBlock: CIFDUS_clean_linker_0, # of connection points: 2
#     Edge 54, Type (0, 0), BuildingBlock: CIFDUS_clean_linker_0, # of connection points: 2
#     Edge 55, Type (0, 0), BuildingBlock: CIFDUS_clean_linker_0, # of connection points: 2
#     Edge 56, Type (0, 0), BuildingBlock: CIFDUS_clean_linker_0, # of connection points: 2
#     Edge 57, Type (0, 0), BuildingBlock: CIFDUS_clean_linker_0, # of connection points: 2
#     Edge 58, Type (0, 0), BuildingBlock: CIFDUS_clean_linker_0, # of connection points: 2
#     Edge 59, Type (0, 0), BuildingBlock: CIFDUS_clean_linker_0, # of connection points: 2
#     Edge 60, Type (0, 0), BuildingBlock: CIFDUS_clean_linker_0, # of connection points: 2
#     Edge 61, Type (0, 0), BuildingBlock: CIFDUS_clean_linker_0, # of connection points: 2
#     Edge 62, Type (0, 0), BuildingBlock: CIFDUS_clean_linker_0, # of connection points: 2
#     Edge 63, Type (0, 0), BuildingBlock: CIFDUS_clean_linker_0, # of connection points: 2
#     Edge 64, Type (0, 0), BuildingBlock: CIFDUS_clean_linker_0, # of connection points: 2
#     Edge 65, Type (0, 0), BuildingBlock: CIFDUS_clean_linker_0, # of connection points: 2
#     Edge 66, Type (0, 0), BuildingBlock: CIFDUS_clean_linker_0, # of connection points: 2
#     Edge 67, Type (0, 0), BuildingBlock: CIFDUS_clean_linker_0, # of connection points: 2
#     Edge 68, Type (0, 0), BuildingBlock: CIFDUS_clean_linker_0, # of connection points: 2
#     Edge 69, Type (0, 0), BuildingBlock: CIFDUS_clean_linker_0, # of connection points: 2
#     Edge 70, Type (0, 0), BuildingBlock: CIFDUS_clean_linker_0, # of connection points: 2
#     Edge 71, Type (0, 0), BuildingBlock: CIFDUS_clean_linker_0, # of connection points: 2
#     Edge 72, Type (0, 0), BuildingBlock: CIFDUS_clean_linker_0, # of connection points: 2
#     Edge 73, Type (0, 0), BuildingBlock: CIFDUS_clean_linker_0, # of connection points: 2
#     Edge 74, Type (0, 0), BuildingBlock: CIFDUS_clean_linker_0, # of connection points: 2
#     Edge 75, Type (0, 0), BuildingBlock: CIFDUS_clean_linker_0, # of connection points: 2
#     Edge 76, Type (0, 0), BuildingBlock: CIFDUS_clean_linker_0, # of connection points: 2
#     Edge 77, Type (0, 0), BuildingBlock: CIFDUS_clean_linker_0, # of connection points: 2
#     Edge 78, Type (0, 0), BuildingBlock: CIFDUS_clean_linker_0, # of connection points: 2
#     Edge 79, Type (0, 0), BuildingBlock: CIFDUS_clean_linker_0, # of connection points: 2
#     Edge 80, Type (0, 0), BuildingBlock: CIFDUS_clean_linker_0, # of connection points: 2
#     Edge 81, Type (0, 0), BuildingBlock: CIFDUS_clean_linker_0, # of connection points: 2
#     Edge 82, Type (0, 0), BuildingBlock: CIFDUS_clean_linker_0, # of connection points: 2
#     Edge 83, Type (0, 0), BuildingBlock: CIFDUS_clean_linker_0, # of connection points: 2
#     Edge 84, Type (0, 0), BuildingBlock: CIFDUS_clean_linker_0, # of connection points: 2
#     Edge 85, Type (0, 0), BuildingBlock: CIFDUS_clean_linker_0, # of connection points: 2
#     Edge 86, Type (0, 0), BuildingBlock: CIFDUS_clean_linker_0, # of connection points: 2
#     Edge 87, Type (0, 0), BuildingBlock: CIFDUS_clean_linker_0, # of connection points: 2
#     Edge 88, Type (0, 0), BuildingBlock: CIFDUS_clean_linker_0, # of connection points: 2
#     Edge 89, Type (0, 0), BuildingBlock: CIFDUS_clean_linker_0, # of connection points: 2
#     Edge 90, Type (0, 0), BuildingBlock: CIFDUS_clean_linker_0, # of connection points: 2
#     Edge 91, Type (0, 0), BuildingBlock: CIFDUS_clean_linker_0, # of connection points: 2
#     Edge 92, Type (0, 0), BuildingBlock: CIFDUS_clean_linker_0, # of connection points: 2
#     Edge 93, Type (0, 0), BuildingBlock: CIFDUS_clean_linker_0, # of connection points: 2
#     Edge 94, Type (0, 0), BuildingBlock: CIFDUS_clean_linker_0, # of connection points: 2
#     Edge 95, Type (0, 0), BuildingBlock: CIFDUS_clean_linker_0, # of connection points: 2
# Relax obj value: 0.106
# Max RMSD: 0.167
# Mean RMSD: 0.167
data_MOF--net-uoe--node1-GALJAG_clean_sbu_0--edge1-CIFDUS_clean_linker_0
_symmetry_space_group_name_H-M    P1
_symmetry_Int_Tables_number       1
_symmetry_cell_setting            triclinic
loop_
_symmetry_equiv_pos_as_xyz
'x, y, z'
_cell_length_a     64.67703
_cell_length_b     64.687267
_cell_length_c     24.44948
_cell_angle_alpha  89.936882
_cell_angle_beta   89.989388
_cell_angle_gamma 89.96323
loop_
_atom_site_label
_atom_site_type_symbol
_atom_site_fract_x
_atom_site_fract_y
_atom_site_fract_z
_atom_type_partial_charge
In0 In 0.10654 0.47511 0.07019 0.0
O1 O 0.1068 0.44 0.08596 0.0
O2 O 0.13505 0.45692 0.09193 0.0
C3 C 0.06607 0.4854 0.06577 0.0
C4 C 0.1163 0.4906 0.16859 0.0
C5 C 0.11887 0.48488 0.96763 0.0
O6 O 0.07206 0.46681 0.06232 0.0
O7 O 0.08041 0.49842 0.07092 0.0
O8 O 0.12033 0.49739 0.00708 0.0
O9 O 0.11192 0.46729 0.98032 0.0
C10 C 0.12584 0.43988 0.0983 0.0
O11 O 0.12423 0.49786 0.12521 0.0
O12 O 0.10311 0.4765 0.16146 0.0
In13 In 0.78438 0.85171 0.28707 0.0
O14 O 0.77871 0.87784 0.3484 0.0
O15 O 0.75501 0.85562 0.33693 0.0
C16 C 0.77815 0.86454 0.1824 0.0
C17 C 0.82035 0.85851 0.33995 0.0
C18 C 0.77688 0.81056 0.28717 0.0
O19 O 0.7651 0.86725 0.21992 0.0
O20 O 0.79465 0.85599 0.19788 0.0
O21 O 0.79413 0.81796 0.27302 0.0
O22 O 0.76356 0.82385 0.30012 0.0
C23 C 0.76139 0.87102 0.36361 0.0
O24 O 0.8082 0.84399 0.35234 0.0
O25 O 0.81489 0.86904 0.29877 0.0
In26 In 0.39937 0.53317 0.564 0.0
O27 O 0.38523 0.51093 0.62631 0.0
O28 O 0.39968 0.53858 0.65477 0.0
C29 C 0.38886 0.51659 0.46754 0.0
C30 C 0.37571 0.56707 0.57152 0.0
C31 C 0.44009 0.5245 0.56086 0.0
O32 O 0.38518 0.50761 0.51251 0.0
O33 O 0.39728 0.53417 0.4715 0.0
O34 O 0.43335 0.54235 0.54885 0.0
O35 O 0.42641 0.51169 0.57473 0.0
C36 C 0.39004 0.52225 0.66656 0.0
O37 O 0.39508 0.56788 0.57898 0.0
O38 O 0.36891 0.54969 0.5564 0.0
In39 In 0.7172 0.1565 0.81704 0.0
O40 O 0.74135 0.13753 0.86311 0.0
O41 O 0.71764 0.15256 0.90866 0.0
C42 C 0.73277 0.14517 0.71983 0.0
C43 C 0.6805 0.13758 0.83289 0.0
C44 C 0.72513 0.19762 0.81364 0.0
O45 O 0.74265 0.14325 0.76402 0.0
O46 O 0.71468 0.15236 0.72467 0.0
O47 O 0.70808 0.19016 0.79803 0.0
O48 O 0.73769 0.18449 0.83199 0.0
C49 C 0.73333 0.14101 0.90923 0.0
O50 O 0.68394 0.15574 0.84961 0.0
O51 O 0.69499 0.12974 0.80521 0.0
In52 In 0.10041 0.53674 0.56395 0.0
O53 O 0.09205 0.56176 0.50197 0.0
O54 O 0.11683 0.56792 0.55682 0.0
C55 C 0.06025 0.52496 0.56766 0.0
C56 C 0.11857 0.51463 0.48321 0.0
C57 C 0.11412 0.53177 0.66814 0.0
O58 O 0.0655 0.54375 0.57044 0.0
O59 O 0.07511 0.51252 0.56354 0.0
O60 O 0.1201 0.52047 0.62927 0.0
O61 O 0.10197 0.54606 0.65416 0.0
C62 C 0.10628 0.57399 0.51629 0.0
O63 O 0.12498 0.53224 0.49713 0.0
O64 O 0.10424 0.50764 0.51273 0.0
In65 In 0.72765 0.85438 0.77567 0.0
O66 O 0.69302 0.84973 0.75836 0.0
O67 O 0.70564 0.88025 0.75588 0.0
C68 C 0.74409 0.81604 0.7794 0.0
C69 C 0.74156 0.86696 0.67793 0.0
C70 C 0.73436 0.86682 0.8795 0.0
O71 O 0.72473 0.81899 0.77919 0.0
O72 O 0.75481 0.8323 0.778 0.0
O73 O 0.74681 0.87089 0.84109 0.0
O74 O 0.71826 0.85724 0.86507 0.0
C75 C 0.69016 0.86873 0.74804 0.0
O76 O 0.74779 0.87548 0.72161 0.0
O77 O 0.72951 0.85185 0.68447 0.0
In78 In 0.4063 0.46343 0.06416 0.0
O79 O 0.40643 0.42878 0.046 0.0
O80 O 0.37787 0.44324 0.06681 0.0
C81 C 0.44671 0.47331 0.07055 0.0
C82 C 0.39598 0.47464 0.96231 0.0
C83 C 0.39297 0.47924 0.15941 0.0
O84 O 0.44013 0.45556 0.08361 0.0
O85 O 0.43299 0.48569 0.05432 0.0
O86 O 0.39039 0.48839 0.11423 0.0
O87 O 0.40174 0.4618 0.1563 0.0
C88 C 0.38701 0.4271 0.05062 0.0
O89 O 0.39007 0.48496 0.00337 0.0
O90 O 0.40739 0.45938 0.9729 0.0
In91 In 0.78149 0.14604 0.30872 0.0
O92 O 0.75641 0.12917 0.26052 0.0
O93 O 0.78234 0.14145 0.21763 0.0
C94 C 0.7671 0.13771 0.40917 0.0
C95 C 0.81715 0.12507 0.29706 0.0
C96 C 0.77255 0.18678 0.30242 0.0
O97 O 0.75781 0.13209 0.36627 0.0
O98 O 0.78405 0.14699 0.40143 0.0
O99 O 0.79035 0.1805 0.31616 0.0
O100 O 0.75985 0.17265 0.2918 0.0
C101 C 0.76545 0.13181 0.21522 0.0
O102 O 0.81547 0.14379 0.28277 0.0
O103 O 0.8014 0.11765 0.32042 0.0
In104 In 0.91372 0.54869 0.06569 0.0
O105 O 0.88684 0.54316 0.00652 0.0
O106 O 0.90983 0.51992 0.01352 0.0
C107 C 0.89945 0.54451 0.16962 0.0
C108 C 0.90798 0.58447 0.01039 0.0
C109 C 0.95416 0.53782 0.07085 0.0
O110 O 0.89485 0.53213 0.13181 0.0
O111 O 0.91072 0.55939 0.15479 0.0
O112 O 0.94832 0.55641 0.07475 0.0
O113 O 0.9397 0.52501 0.06509 0.0
C114 C 0.89384 0.5262 0.98919 0.0
O115 O 0.92107 0.57101 0.9962 0.0
O116 O 0.89881 0.58058 0.05491 0.0
In117 In 0.227 0.14279 0.79308 0.0
O118 O 0.24374 0.12775 0.72074 0.0
O119 O 0.22288 0.15283 0.70648 0.0
C120 C 0.24382 0.12655 0.88375 0.0
C121 C 0.19145 0.12336 0.7728 0.0
C122 C 0.23762 0.18252 0.80747 0.0
O123 O 0.2535 0.12735 0.83887 0.0
O124 O 0.22544 0.13317 0.88212 0.0
O125 O 0.21947 0.17615 0.81748 0.0
O126 O 0.25006 0.16882 0.79115 0.0
C127 C 0.23448 0.13915 0.6863 0.0
O128 O 0.19153 0.14195 0.7893 0.0
O129 O 0.20882 0.11445 0.77288 0.0
In130 In 0.59269 0.46265 0.55706 0.0
O131 O 0.61018 0.48789 0.51022 0.0
O132 O 0.59508 0.46395 0.4655 0.0
C133 C 0.60325 0.47162 0.66063 0.0
C134 C 0.61262 0.42727 0.53396 0.0
C135 C 0.55218 0.47279 0.55851 0.0
O136 O 0.60731 0.48356 0.62109 0.0
O137 O 0.59421 0.45502 0.64772 0.0
O138 O 0.55828 0.45442 0.56615 0.0
O139 O 0.56642 0.48565 0.54996 0.0
C140 C 0.6061 0.47999 0.46413 0.0
O141 O 0.59341 0.42931 0.52552 0.0
O142 O 0.62112 0.44245 0.55734 0.0
In143 In 0.26571 0.85756 0.2865 0.0
O144 O 0.24601 0.88021 0.23538 0.0
O145 O 0.26839 0.86126 0.19575 0.0
C146 C 0.2514 0.86802 0.38597 0.0
C147 C 0.30457 0.87207 0.27651 0.0
C148 C 0.25282 0.81771 0.28248 0.0
O149 O 0.24103 0.87102 0.34291 0.0
O150 O 0.26913 0.8603 0.37862 0.0
O151 O 0.2705 0.82261 0.30029 0.0
O152 O 0.24208 0.83275 0.26635 0.0
C153 C 0.25494 0.87522 0.19127 0.0
O154 O 0.29955 0.85409 0.26124 0.0
O155 O 0.29038 0.8821 0.30015 0.0
In156 In 0.89869 0.49153 0.57409 0.0
O157 O 0.89834 0.45642 0.5884 0.0
O158 O 0.86996 0.47334 0.59262 0.0
C159 C 0.93863 0.50322 0.57009 0.0
C160 C 0.88938 0.50552 0.67417 0.0
C161 C 0.88728 0.50091 0.47091 0.0
O162 O 0.93341 0.48436 0.56789 0.0
O163 O 0.92378 0.51576 0.57387 0.0
O164 O 0.88482 0.51343 0.51009 0.0
O165 O 0.89464 0.48354 0.48431 0.0
C166 C 0.87915 0.45626 0.59917 0.0
O167 O 0.88103 0.51336 0.63198 0.0
O168 O 0.90267 0.49168 0.66495 0.0
In169 In 0.28257 0.14345 0.2923 0.0
O170 O 0.30666 0.14823 0.35896 0.0
O171 O 0.31594 0.13154 0.28835 0.0
C172 C 0.2695 0.18308 0.28125 0.0
C173 C 0.26243 0.12594 0.3765 0.0
C174 C 0.27461 0.12609 0.19437 0.0
O175 O 0.28841 0.17863 0.28746 0.0
O176 O 0.25768 0.16767 0.27921 0.0
O177 O 0.26488 0.12134 0.23726 0.0
O178 O 0.28899 0.13902 0.20121 0.0
C179 C 0.32055 0.13771 0.33584 0.0
O180 O 0.27672 0.11658 0.35161 0.0
O181 O 0.25757 0.14318 0.35626 0.0
In182 In 0.60054 0.53039 0.0618 0.0
O183 O 0.60494 0.56384 0.09003 0.0
O184 O 0.63104 0.547 0.06036 0.0
C185 C 0.55968 0.52253 0.06414 0.0
C186 C 0.61195 0.51266 0.1559 0.0
C187 C 0.60865 0.52087 0.95719 0.0
O188 O 0.56649 0.5407 0.05698 0.0
O189 O 0.5734 0.50889 0.0699 0.0
O190 O 0.61303 0.50879 0.99624 0.0
O191 O 0.60061 0.53788 0.97115 0.0
C192 C 0.62429 0.56342 0.08188 0.0
O193 O 0.61557 0.50407 0.11035 0.0
O194 O 0.60259 0.52973 0.15329 0.0
In195 In 0.21943 0.85161 0.80499 0.0
O196 O 0.18554 0.86183 0.80868 0.0
O197 O 0.19761 0.84439 0.87528 0.0
C198 C 0.23193 0.81164 0.80185 0.0
C199 C 0.23863 0.87487 0.88042 0.0
C200 C 0.22715 0.86643 0.7033 0.0
O201 O 0.21371 0.81698 0.78983 0.0
O202 O 0.24357 0.82634 0.81524 0.0
O203 O 0.23828 0.87042 0.74413 0.0
O204 O 0.21144 0.85561 0.71389 0.0
C205 C 0.18247 0.85423 0.8557 0.0
O206 O 0.22141 0.88 0.86032 0.0
O207 O 0.24655 0.85878 0.86016 0.0
In208 In 0.59539 0.97114 0.5543 0.0
O209 O 0.59751 0.93608 0.56982 0.0
O210 O 0.62484 0.95278 0.54913 0.0
C211 C 0.55559 0.98306 0.54703 0.0
C212 C 0.60249 0.9811 0.65834 0.0
C213 C 0.60784 0.98828 0.46043 0.0
O214 O 0.56097 0.96471 0.53523 0.0
O215 O 0.57017 0.99475 0.56151 0.0
O216 O 0.61056 0.99707 0.5061 0.0
O217 O 0.5993 0.97068 0.4625 0.0
C218 C 0.61696 0.93579 0.56357 0.0
O219 O 0.61264 0.98947 0.61995 0.0
O220 O 0.58904 0.96815 0.64359 0.0
In221 In 0.29709 0.33566 0.80272 0.0
O222 O 0.33119 0.33597 0.82883 0.0
O223 O 0.31482 0.36453 0.82297 0.0
C224 C 0.28784 0.29501 0.80064 0.0
C225 C 0.27856 0.34684 0.89562 0.0
C226 C 0.28825 0.34801 0.70009 0.0
O227 O 0.30608 0.30144 0.79284 0.0
O228 O 0.27467 0.309 0.80869 0.0
O229 O 0.27566 0.34977 0.73921 0.0
O230 O 0.30562 0.34053 0.71295 0.0
C231 C 0.33117 0.35529 0.83707 0.0
O232 O 0.27155 0.35248 0.84962 0.0
O233 O 0.29414 0.33514 0.89409 0.0
In234 In 0.90004 0.01522 0.08687 0.0
O235 O 0.90468 0.04972 0.10534 0.0
O236 O 0.87406 0.0373 0.10424 0.0
C237 C 0.93872 0.99956 0.08354 0.0
C238 C 0.88706 0.00204 0.18488 0.0
C239 C 0.88699 0.00829 0.98378 0.0
O240 O 0.93522 0.01871 0.07812 0.0
O241 O 0.92281 0.98861 0.09027 0.0
O242 O 0.88379 0.99552 0.02203 0.0
O243 O 0.89623 0.0246 0.99794 0.0
C244 C 0.88555 0.05268 0.11346 0.0
O245 O 0.87899 0.99518 0.14126 0.0
O246 O 0.90201 0.0143 0.17823 0.0
In247 In 0.21219 0.65744 0.29971 0.0
O248 O 0.21579 0.63011 0.35855 0.0
O249 O 0.24123 0.65041 0.34874 0.0
C250 C 0.21622 0.64483 0.19429 0.0
C251 C 0.176 0.65201 0.35339 0.0
C252 C 0.22503 0.69738 0.30035 0.0
O253 O 0.22868 0.63959 0.23139 0.0
O254 O 0.20142 0.6559 0.21053 0.0
O255 O 0.20671 0.69251 0.28786 0.0
O256 O 0.23643 0.68229 0.31238 0.0
C257 C 0.23359 0.63531 0.37432 0.0
O258 O 0.18937 0.66512 0.36808 0.0
O259 O 0.18021 0.64282 0.30916 0.0
In260 In 0.58772 0.03506 0.0575 0.0
O261 O 0.60542 0.01388 -0.00017 0.0
O262 O 0.57379 0.02058 0.98203 0.0
C263 C 0.60582 0.02318 0.152 0.0
C264 C 0.60567 0.06869 0.01161 0.0
C265 C 0.54694 0.02966 0.07674 0.0
O266 O 0.60518 0.01207 0.10986 0.0
O267 O 0.59803 0.04095 0.14612 0.0
O268 O 0.55422 0.04708 0.06287 0.0
O269 O 0.56028 0.01562 0.08258 0.0
C270 C 0.59015 0.01135 0.96836 0.0
O271 O 0.59103 0.07066 0.04559 0.0
O272 O 0.61138 0.05038 0.00372 0.0
In273 In 0.23026 0.34352 0.29891 0.0
O274 O 0.1963 0.34789 0.27308 0.0
O275 O 0.21377 0.37403 0.29967 0.0
C276 C 0.24208 0.30356 0.29753 0.0
C277 C 0.24719 0.35469 0.20398 0.0
C278 C 0.23863 0.35169 0.40386 0.0
O279 O 0.22307 0.30848 0.29776 0.0
O280 O 0.25441 0.31862 0.29823 0.0
O281 O 0.2503 0.35755 0.36528 0.0
O282 O 0.22246 0.34216 0.38926 0.0
C283 C 0.197 0.36732 0.28007 0.0
O284 O 0.25569 0.35924 0.24907 0.0
O285 O 0.23061 0.34454 0.20749 0.0
In286 In 0.90011 0.96283 0.57488 0.0
O287 O 0.9078 0.9411 0.50462 0.0
O288 O 0.88436 0.93171 0.56036 0.0
C289 C 0.94099 0.97126 0.58098 0.0
C290 C 0.88043 0.98608 0.49978 0.0
C291 C 0.88635 0.96741 0.67897 0.0
O292 O 0.93383 0.95351 0.59123 0.0
O293 O 0.92759 0.9845 0.56804 0.0
O294 O 0.88388 0.98103 0.64269 0.0
O295 O 0.89502 0.95114 0.66235 0.0
C296 C 0.89411 0.92796 0.51665 0.0
O297 O 0.87317 0.96915 0.51665 0.0
O298 O 0.89644 0.99206 0.52453 0.0
In299 In 0.26608 0.65038 0.78643 0.0
O300 O 0.30082 0.65309 0.76878 0.0
O301 O 0.28649 0.62334 0.76596 0.0
C302 C 0.25393 0.69025 0.78949 0.0
C303 C 0.25154 0.63838 0.68882 0.0
C304 C 0.25771 0.63803 0.88974 0.0
O305 O 0.27268 0.68507 0.79507 0.0
O306 O 0.24162 0.67539 0.78276 0.0
O307 O 0.24463 0.63656 0.85157 0.0
O308 O 0.27511 0.64496 0.87531 0.0
C309 C 0.30254 0.63403 0.75783 0.0
O310 O 0.24464 0.63048 0.73265 0.0
O311 O 0.26455 0.65268 0.69513 0.0
In312 In 0.39544 0.02381 0.5373 0.0
O313 O 0.40121 0.05708 0.51022 0.0
O314 O 0.37271 0.0503 0.54994 0.0
C315 C 0.43495 0.00992 0.53286 0.0
C316 C 0.37632 0.01396 0.44343 0.0
C317 C 0.38445 0.00966 0.63674 0.0
O318 O 0.43035 0.02756 0.55142 0.0
O319 O 0.41972 0.99953 0.5164 0.0
O320 O 0.38231 0.99901 0.59383 0.0
O321 O 0.3916 0.02761 0.62931 0.0
C322 C 0.38363 0.0635 0.52508 0.0
O323 O 0.37063 0.00606 0.48829 0.0
O324 O 0.39177 0.0257 0.44643 0.0
In325 In 0.72862 0.65427 0.29993 0.0
O326 O 0.69351 0.65079 0.29088 0.0
O327 O 0.71318 0.62509 0.27256 0.0
C328 C 0.73614 0.69468 0.31417 0.0
C329 C 0.73989 0.6528 0.19441 0.0
C330 C 0.7414 0.6395 0.3975 0.0
O331 O 0.71805 0.68729 0.31852 0.0
O332 O 0.75014 0.68157 0.30456 0.0
O333 O 0.7533 0.64018 0.35637 0.0
O334 O 0.72313 0.64551 0.38852 0.0
C335 C 0.69513 0.63259 0.27211 0.0
O336 O 0.7267 0.6652 0.21359 0.0
O337 O 0.74859 0.6412 0.22955 0.0
In338 In 0.09724 0.95305 0.07152 0.0
O339 O 0.11593 0.97358 0.01285 0.0
O340 O 0.09854 0.9484 0.9805 0.0
C341 C 0.10923 0.96733 0.16971 0.0
C342 C 0.11341 0.915 0.06145 0.0
C343 C 0.05797 0.96733 0.07049 0.0
O344 O 0.1147 0.97582 0.12537 0.0
O345 O 0.09835 0.95123 0.16434 0.0
O346 O 0.06214 0.94894 0.08435 0.0
O347 O 0.07342 0.97803 0.05713 0.0
C348 C 0.11061 0.96325 0.97121 0.0
O349 O 0.09457 0.91874 0.05153 0.0
O350 O 0.12348 0.93004 0.08081 0.0
In351 In 0.77746 0.35305 0.79298 0.0
O352 O 0.75069 0.3645 0.74018 0.0
O353 O 0.77743 0.35167 0.70141 0.0
C354 C 0.7671 0.36214 0.89627 0.0
C355 C 0.80773 0.38021 0.77151 0.0
C356 C 0.77134 0.31193 0.79841 0.0
O357 O 0.75497 0.36539 0.85656 0.0
O358 O 0.78459 0.35483 0.8835 0.0
O359 O 0.78936 0.31954 0.80243 0.0
O360 O 0.75712 0.32498 0.79152 0.0
C361 C 0.75979 0.35974 0.69603 0.0
O362 O 0.81079 0.36088 0.76745 0.0
O363 O 0.7901 0.38528 0.78924 0.0
In364 In 0.39116 0.9762 0.05851 0.0
O365 O 0.37672 0.94393 0.05275 0.0
O366 O 0.39172 0.95232 0.12692 0.0
C367 C 0.43224 0.98449 0.06498 0.0
C368 C 0.37027 0.99848 0.1333 0.0
C369 C 0.37976 0.9848 0.95436 0.0
O370 O 0.42539 0.96626 0.06207 0.0
O371 O 0.4185 0.99824 0.06401 0.0
O372 O 0.37349 0.99502 0.9949 0.0
O373 O 0.39115 0.96963 0.96631 0.0
C374 C 0.3812 0.93901 0.10143 0.0
O375 O 0.36323 0.98186 0.11398 0.0
O376 O 0.38708 0.00438 0.11239 0.0
In377 In 0.79448 0.65909 0.79674 0.0
O378 O 0.78737 0.63281 0.85833 0.0
O379 O 0.77011 0.66055 0.86267 0.0
C380 C 0.79006 0.64416 0.69397 0.0
C381 C 0.83228 0.65474 0.84239 0.0
C382 C 0.77941 0.6976 0.78165 0.0
O383 O 0.77854 0.63855 0.73299 0.0
O384 O 0.8043 0.65648 0.70743 0.0
O385 O 0.79853 0.69437 0.78916 0.0
O386 O 0.76842 0.68152 0.7807 0.0
C387 C 0.77406 0.6433 0.88391 0.0
O388 O 0.82022 0.66938 0.85466 0.0
O389 O 0.82593 0.6433 0.80412 0.0
In390 In 0.09732 0.02185 0.57493 0.0
O391 O 0.10028 0.05642 0.59236 0.0
O392 O 0.12691 0.03989 0.56521 0.0
C393 C 0.05617 0.01518 0.57368 0.0
C394 C 0.10883 0.01071 0.6762 0.0
C395 C 0.10767 0.00433 0.479 0.0
O396 O 0.06387 0.03215 0.55789 0.0
O397 O 0.06915 0.00207 0.59005 0.0
O398 O 0.10986 0.99511 0.52425 0.0
O399 O 0.10076 0.02257 0.48232 0.0
C400 C 0.11952 0.05668 0.58287 0.0
O401 O 0.11323 0.99969 0.63505 0.0
O402 O 0.09836 0.02667 0.66601 0.0
In403 In 0.70947 0.33864 0.29248 0.0
O404 O 0.67508 0.33814 0.31634 0.0
O405 O 0.69129 0.36686 0.31628 0.0
C406 C 0.72034 0.2984 0.28641 0.0
C407 C 0.72796 0.34855 0.38651 0.0
C408 C 0.71709 0.35265 0.19065 0.0
O409 O 0.7017 0.30416 0.28259 0.0
O410 O 0.73314 0.31286 0.2925 0.0
O411 O 0.72942 0.35537 0.22997 0.0
O412 O 0.7006 0.34331 0.20296 0.0
C413 C 0.67481 0.35728 0.32718 0.0
O414 O 0.71232 0.33696 0.38395 0.0
O415 O 0.73495 0.35477 0.34102 0.0
H416 H 0.96931 0.49885 0.0611 0.0
H417 H 0.98832 0.5623 0.0819 0.0
H418 H 0.0246 0.55158 0.08163 0.0
H419 H 0.05082 0.52424 0.07541 0.0
H420 H 0.03192 0.46077 0.05472 0.0
H421 H 0.9956 0.47146 0.05487 0.0
C422 C 0.98139 0.51034 0.06568 0.0
C423 C 0.97613 0.53136 0.07161 0.0
C424 C 0.00219 0.50406 0.06538 0.0
C425 C 0.99196 0.54604 0.07738 0.0
C426 C 0.01269 0.53992 0.07716 0.0
C427 C 0.03877 0.51273 0.07086 0.0
C428 C 0.04406 0.49172 0.06502 0.0
C429 C 0.01797 0.51898 0.07114 0.0
C430 C 0.02826 0.47702 0.05924 0.0
C431 C 0.0075 0.48313 0.05937 0.0
H432 H 0.74085 0.7921 0.31594 0.0
H433 H 0.80342 0.77878 0.26563 0.0
H434 H 0.79646 0.74171 0.27217 0.0
H435 H 0.77253 0.71323 0.29084 0.0
H436 H 0.70971 0.72636 0.33915 0.0
H437 H 0.7169 0.76349 0.33526 0.0
C438 C 0.75296 0.78108 0.30635 0.0
C439 C 0.77262 0.78815 0.29016 0.0
C440 C 0.74883 0.75982 0.31012 0.0
C441 C 0.78816 0.77371 0.27798 0.0
C442 C 0.7842 0.75253 0.28184 0.0
C443 C 0.76043 0.7242 0.30093 0.0
C444 C 0.74062 0.71707 0.31543 0.0
C445 C 0.7646 0.74544 0.29779 0.0
C446 C 0.72509 0.73147 0.328 0.0
C447 C 0.72918 0.75268 0.32562 0.0
H448 H 0.45597 0.48645 0.57837 0.0
H449 H 0.47362 0.54886 0.53696 0.0
H450 H 0.50995 0.5382 0.53227 0.0
H451 H 0.53654 0.5111 0.5402 0.0
H452 H 0.51856 0.44869 0.58083 0.0
H453 H 0.48234 0.45943 0.58541 0.0
C454 C 0.46775 0.49777 0.56838 0.0
C455 C 0.46213 0.51845 0.55816 0.0
C456 C 0.48848 0.49151 0.56552 0.0
C457 C 0.47757 0.53287 0.54506 0.0
C458 C 0.49831 0.52677 0.54235 0.0
C459 C 0.52469 0.49983 0.55 0.0
C460 C 0.53022 0.47911 0.56022 0.0
C461 C 0.50392 0.50612 0.55252 0.0
C462 C 0.5147 0.4647 0.57277 0.0
C463 C 0.49401 0.47085 0.57545 0.0
H464 H 0.76267 0.21532 0.83057 0.0
H465 H 0.69971 0.22958 0.7856 0.0
H466 H 0.70874 0.26611 0.77643 0.0
H467 H 0.73434 0.29383 0.7813 0.0
H468 H 0.79752 0.27993 0.82452 0.0
H469 H 0.78861 0.24324 0.83394 0.0
C470 C 0.7509 0.22644 0.81895 0.0
C471 C 0.7305 0.21978 0.80904 0.0
C472 C 0.75627 0.24738 0.81322 0.0
C473 C 0.71549 0.23432 0.79356 0.0
C474 C 0.72065 0.2552 0.78826 0.0
C475 C 0.74622 0.2828 0.79273 0.0
C476 C 0.76658 0.28959 0.80234 0.0
C477 C 0.74098 0.26187 0.79796 0.0
C478 C 0.78176 0.27508 0.81684 0.0
C479 C 0.77664 0.25413 0.82235 0.0
H480 H 0.02522 0.54833 0.57273 0.0
H481 H 0.04664 0.48525 0.56316 0.0
H482 H 0.01104 0.47285 0.56255 0.0
H483 H 0.97366 0.47983 0.56477 0.0
H484 H 0.95226 0.54293 0.57421 0.0
H485 H 0.98785 0.55532 0.57472 0.0
C486 C 0.02207 0.53189 0.57061 0.0
C487 C 0.03855 0.51777 0.5681 0.0
C488 C 0.00152 0.52481 0.57014 0.0
C489 C 0.03423 0.49648 0.56522 0.0
C490 C 0.01387 0.48934 0.56482 0.0
C491 C 0.97681 0.49628 0.56684 0.0
C492 C 0.96034 0.5104 0.56942 0.0
C493 C 0.99737 0.50335 0.56722 0.0
C494 C 0.96466 0.53169 0.57215 0.0
C495 C 0.98503 0.53883 0.5725 0.0
H496 H 0.79873 0.73504 0.78826 0.0
H497 H 0.73886 0.70685 0.76621 0.0
H498 H 0.72257 0.74082 0.76406 0.0
H499 H 0.7251 0.77865 0.76991 0.0
H500 H 0.78494 0.80698 0.79101 0.0
H501 H 0.80135 0.773 0.79224 0.0
C502 C 0.78215 0.73636 0.78267 0.0
C503 C 0.77007 0.71843 0.77742 0.0
C504 C 0.7728 0.75601 0.7816 0.0
C505 C 0.74856 0.7204 0.77032 0.0
C506 C 0.73918 0.73983 0.7692 0.0
C507 C 0.74172 0.77736 0.77485 0.0
C508 C 0.75374 0.7953 0.78053 0.0
C509 C 0.75111 0.75775 0.77514 0.0
C510 C 0.77529 0.7934 0.78659 0.0
C511 C 0.78472 0.77396 0.78726 0.0
H512 H 0.54317 0.48522 0.08731 0.0
H513 H 0.52645 0.54763 0.04305 0.0
H514 H 0.48987 0.53781 0.04176 0.0
H515 H 0.46288 0.51128 0.05146 0.0
H516 H 0.47982 0.44898 0.09639 0.0
H517 H 0.51626 0.45901 0.09921 0.0
C518 C 0.53154 0.49671 0.07746 0.0
C519 C 0.53749 0.51712 0.06507 0.0
C520 C 0.51065 0.49096 0.07683 0.0
C521 C 0.52224 0.53184 0.0527 0.0
C522 C 0.50135 0.52621 0.05188 0.0
C523 C 0.47455 0.49989 0.06193 0.0
C524 C 0.4687 0.47937 0.07349 0.0
C525 C 0.49542 0.50579 0.06358 0.0
C526 C 0.48395 0.46483 0.08726 0.0
C527 C 0.50477 0.47056 0.08885 0.0
H528 H 0.75893 0.28343 0.30388 0.0
H529 H 0.69652 0.2643 0.26741 0.0
H530 H 0.70746 0.22809 0.26805 0.0
H531 H 0.73454 0.20202 0.28044 0.0
H532 H 0.79684 0.22092 0.31891 0.0
H533 H 0.78613 0.25725 0.31596 0.0
C534 C 0.74772 0.27134 0.29588 0.0
C535 C 0.72692 0.27652 0.28554 0.0
C536 C 0.7541 0.2506 0.29678 0.0
C537 C 0.71259 0.2607 0.27547 0.0
C538 C 0.71884 0.24001 0.27586 0.0
C539 C 0.74583 0.21407 0.28805 0.0
C540 C 0.76648 0.2088 0.29986 0.0
C541 C 0.73952 0.23481 0.28668 0.0
C542 C 0.78087 0.22459 0.30976 0.0
C543 C 0.77474 0.24534 0.30808 0.0
H544 H 0.25034 0.2789 0.82465 0.0
H545 H 0.31231 0.26162 0.77774 0.0
H546 H 0.30223 0.22514 0.77737 0.0
H547 H 0.27566 0.19841 0.78863 0.0
H548 H 0.21369 0.21572 0.83558 0.0
H549 H 0.22399 0.25211 0.83803 0.0
C550 C 0.26166 0.26716 0.81435 0.0
C551 C 0.28203 0.27293 0.80098 0.0
C552 C 0.25576 0.2463 0.81435 0.0
C553 C 0.29654 0.25755 0.78805 0.0
C554 C 0.29078 0.23672 0.78785 0.0
C555 C 0.2644 0.21013 0.79963 0.0
C556 C 0.24391 0.2044 0.81181 0.0
C557 C 0.27042 0.23096 0.80071 0.0
C558 C 0.22954 0.21975 0.82607 0.0
C559 C 0.23542 0.24054 0.82735 0.0
H560 H 0.27249 0.78256 0.31559 0.0
H561 H 0.21506 0.80474 0.24754 0.0
H562 H 0.20118 0.76968 0.24753 0.0
H563 H 0.20523 0.73252 0.26713 0.0
H564 H 0.26283 0.71039 0.33435 0.0
H565 H 0.27664 0.74545 0.33452 0.0
C566 C 0.25696 0.7797 0.30066 0.0
C567 C 0.24486 0.79625 0.28161 0.0
C568 C 0.24903 0.75945 0.30074 0.0
C569 C 0.22474 0.79228 0.26242 0.0
C570 C 0.21675 0.77222 0.26244 0.0
C571 C 0.22078 0.73541 0.28189 0.0
C572 C 0.23294 0.71886 0.30074 0.0
C573 C 0.22873 0.75566 0.28161 0.0
C574 C 0.25311 0.72284 0.31957 0.0
C575 C 0.26105 0.7429 0.31969 0.0
H576 H 0.2909 0.21897 0.29449 0.0
H577 H 0.22957 0.19515 0.26612 0.0
H578 H 0.21538 0.23011 0.26936 0.0
H579 H 0.2203 0.2677 0.28162 0.0
H580 H 0.28184 0.29119 0.30965 0.0
H581 H 0.29588 0.25633 0.30547 0.0
C582 C 0.27446 0.22146 0.28865 0.0
C583 C 0.26136 0.20448 0.28 0.0
C584 C 0.26635 0.24162 0.29088 0.0
C585 C 0.24005 0.20796 0.27277 0.0
C586 C 0.23188 0.22796 0.27476 0.0
C587 C 0.23675 0.26514 0.28695 0.0
C588 C 0.24994 0.28204 0.29602 0.0
C589 C 0.24486 0.24494 0.28414 0.0
C590 C 0.27128 0.27847 0.30256 0.0
C591 C 0.27938 0.25851 0.30014 0.0
H592 H 0.27679 0.72493 0.80732 0.0
H593 H 0.21476 0.70417 0.77281 0.0
H594 H 0.20245 0.73982 0.77293 0.0
H595 H 0.20922 0.777 0.78296 0.0
H596 H 0.27113 0.79778 0.81876 0.0
H597 H 0.28352 0.76213 0.81793 0.0
C598 C 0.26059 0.72824 0.79984 0.0
C599 C 0.24674 0.71194 0.79006 0.0
C600 C 0.25357 0.7488 0.80014 0.0
C601 C 0.22577 0.71644 0.7805 0.0
C602 C 0.21869 0.73683 0.78051 0.0
C603 C 0.22542 0.7737 0.79048 0.0
C604 C 0.23922 0.78999 0.80082 0.0
C605 C 0.23244 0.75314 0.79027 0.0
C606 C 0.26017 0.7855 0.8107 0.0
C607 C 0.26729 0.76512 0.81024 0.0
H608 H 0.47021 0.02999 0.56093 0.0
H609 H 0.44768 0.97156 0.50071 0.0
H610 H 0.48292 0.95786 0.49916 0.0
H611 H 0.5204 0.96242 0.51601 0.0
H612 H 0.54236 0.02127 0.57549 0.0
H613 H 0.50728 0.03474 0.5761 0.0
C614 C 0.47301 0.01427 0.54741 0.0
C615 C 0.45636 0.00183 0.53109 0.0
C616 C 0.4933 0.00651 0.54648 0.0
C617 C 0.46026 0.98149 0.51352 0.0
C618 C 0.48041 0.97362 0.51264 0.0
C619 C 0.51746 0.97818 0.52897 0.0
C620 C 0.53401 0.99076 0.54573 0.0
C621 C 0.49709 0.98597 0.52919 0.0
C622 C 0.52995 0.01119 0.56236 0.0
C623 C 0.50985 0.01896 0.5628 0.0
H624 H 0.97516 0.01902 0.0623 0.0
H625 H 0.94931 0.9595 0.10314 0.0
H626 H 0.98379 0.94414 0.1029 0.0
H627 H 0.02149 0.94759 0.09146 0.0
H628 H 0.04711 0.00709 0.04919 0.0
H629 H 0.01267 0.02237 0.04959 0.0
C630 C 0.97709 0.0027 0.07114 0.0
C631 C 0.95971 0.99046 0.08279 0.0
C632 C 0.99697 0.99391 0.07068 0.0
C633 C 0.96245 0.96929 0.09399 0.0
C634 C 0.98217 0.96047 0.09391 0.0
C635 C 0.0195 0.96388 0.08233 0.0
C636 C 0.03685 0.97615 0.07041 0.0
C637 C 0.99957 0.97262 0.08237 0.0
C638 C 0.03402 0.99725 0.0585 0.0
C639 C 0.01432 0.00605 0.05874 0.0
H640 H 0.52917 0.99198 0.08543 0.0
H641 H 0.51449 0.05687 0.07203 0.0
H642 H 0.47757 0.04853 0.06842 0.0
H643 H 0.44966 0.02267 0.06561 0.0
H644 H 0.46469 0.95776 0.07555 0.0
H645 H 0.5014 0.96626 0.08368 0.0
C646 C 0.5179 0.00435 0.08227 0.0
C647 C 0.52455 0.02505 0.07923 0.0
C648 C 0.49681 0.9994 0.07907 0.0
C649 C 0.50976 0.04084 0.07462 0.0
C650 C 0.48867 0.03606 0.07235 0.0
C651 C 0.46097 0.01038 0.06963 0.0
C652 C 0.45447 0.98959 0.06983 0.0
C653 C 0.48205 0.01538 0.07391 0.0
C654 C 0.4693 0.97385 0.07507 0.0
C655 C 0.49028 0.97871 0.07983 0.0
H656 H 0.0378 0.97913 0.60117 0.0
H657 H 0.0244 0.04079 0.5436 0.0
H658 H 0.98744 0.0326 0.54134 0.0
H659 H 0.9591 0.00779 0.5552 0.0
H660 H 0.97278 0.94604 0.6117 0.0
H661 H 0.00961 0.95442 0.61491 0.0
C662 C 0.0268 0.99082 0.5882 0.0
C663 C 0.0338 0.01056 0.57262 0.0
C664 C 0.00569 0.98596 0.58678 0.0
C665 C 0.01938 0.02549 0.5558 0.0
C666 C 0.99827 0.02081 0.5545 0.0
C667 C 0.97015 0.99617 0.5683 0.0
C668 C 0.96324 0.97631 0.58325 0.0
C669 C 0.99128 0.00108 0.56982 0.0
C670 C 0.97771 0.96141 0.59999 0.0
C671 C 0.99876 0.9662 0.60184 0.0
H672 H 0.11831 0.52356 0.92461 0.0
H673 H 0.12735 0.45957 0.88158 0.0
H674 H 0.12938 0.46893 0.78475 0.0
H675 H 0.12516 0.49484 0.71184 0.0
H676 H 0.1126 0.55826 0.75455 0.0
H677 H 0.11558 0.54972 0.85176 0.0
C678 C 0.12111 0.51174 0.89406 0.0
C679 C 0.12274 0.49092 0.91015 0.0
C680 C 0.12147 0.51715 0.83832 0.0
C681 C 0.12604 0.4757 0.87013 0.0
C682 C 0.12715 0.48104 0.81477 0.0
C683 C 0.12347 0.50685 0.74246 0.0
C684 C 0.11874 0.52716 0.72614 0.0
C685 C 0.1244 0.50165 0.79828 0.0
C686 C 0.11625 0.54252 0.76619 0.0
C687 C 0.1179 0.53762 0.82175 0.0
H688 H 0.77229 0.87106 0.92558 0.0
H689 H 0.70721 0.87048 0.96388 0.0
H690 H 0.71514 0.8722 0.06158 0.0
H691 H 0.74054 0.87048 0.13612 0.0
H692 H 0.80559 0.86772 0.09805 0.0
H693 H 0.79779 0.87086 0.00044 0.0
C694 C 0.75987 0.87171 0.95535 0.0
C695 C 0.7392 0.87072 0.93766 0.0
C696 C 0.76457 0.8719 0.01152 0.0
C697 C 0.72324 0.87123 0.9766 0.0
C698 C 0.72777 0.87216 0.03243 0.0
C699 C 0.75302 0.87091 0.10649 0.0
C700 C 0.77361 0.86889 0.12421 0.0
C701 C 0.74837 0.87199 0.0504 0.0
C702 C 0.78961 0.86922 0.08535 0.0
C703 C 0.78515 0.87097 0.02956 0.0
H704 H 0.38827 0.46048 0.25794 0.0
H705 H 0.38717 0.52017 0.1792 0.0
H706 H 0.38432 0.53715 0.2681 0.0
H707 H 0.38548 0.53509 0.3685 0.0
H708 H 0.38517 0.47541 0.44731 0.0
H709 H 0.38499 0.45833 0.35815 0.0
C710 C 0.38713 0.47718 0.26032 0.0
C711 C 0.38818 0.48908 0.2123 0.0
C712 C 0.38535 0.48683 0.31153 0.0
C713 C 0.38642 0.51069 0.2157 0.0
C714 C 0.38489 0.52041 0.2665 0.0
C715 C 0.38509 0.51835 0.36604 0.0
C716 C 0.38558 0.5065 0.4142 0.0
C717 C 0.38485 0.50865 0.31472 0.0
C718 C 0.38481 0.48484 0.41068 0.0
C719 C 0.38482 0.47507 0.35975 0.0
H720 H 0.71335 0.13794 0.62339 0.0
H721 H 0.77376 0.14322 0.69678 0.0
H722 H 0.78997 0.14024 0.60692 0.0
H723 H 0.78681 0.13879 0.50683 0.0
H724 H 0.72655 0.13179 0.43364 0.0
H725 H 0.71044 0.13256 0.52402 0.0
C726 C 0.73006 0.13823 0.61961 0.0
C727 C 0.74235 0.14102 0.66632 0.0
C728 C 0.73929 0.13627 0.56792 0.0
C729 C 0.76399 0.14111 0.66123 0.0
C730 C 0.77327 0.13949 0.6099 0.0
C731 C 0.77018 0.1372 0.51085 0.0
C732 C 0.75785 0.13546 0.46387 0.0
C733 C 0.76105 0.13746 0.56289 0.0
C734 C 0.73635 0.13316 0.46939 0.0
C735 C 0.72712 0.13369 0.52098 0.0
H736 H 0.88593 0.50868 0.21467 0.0
H737 H 0.90117 0.57177 0.25465 0.0
H738 H 0.89595 0.56443 0.35189 0.0
H739 H 0.89039 0.53918 0.42609 0.0
H740 H 0.87848 0.47542 0.38586 0.0
H741 H 0.87876 0.48389 0.28836 0.0
C742 C 0.88778 0.5209 0.24461 0.0
C743 C 0.89394 0.54073 0.22754 0.0
C744 C 0.88543 0.51638 0.30051 0.0
C745 C 0.89649 0.55636 0.26683 0.0
C746 C 0.89353 0.55216 0.32243 0.0
C747 C 0.88743 0.52726 0.39592 0.0
C748 C 0.88432 0.50673 0.41299 0.0
C749 C 0.88846 0.53211 0.33986 0.0
C750 C 0.88088 0.49133 0.37358 0.0
C751 C 0.88112 0.49616 0.31787 0.0
H752 H 0.22566 0.11292 0.9767 0.0
H753 H 0.28477 0.12934 0.90774 0.0
H754 H 0.30047 0.12847 0.99869 0.0
H755 H 0.29606 0.12783 0.09887 0.0
H756 H 0.23712 0.11027 0.16719 0.0
H757 H 0.22275 0.10646 0.07549 0.0
C758 C 0.24207 0.11585 0.98157 0.0
C759 C 0.254 0.12146 0.93596 0.0
C760 C 0.25096 0.11531 0.03388 0.0
C761 C 0.27529 0.125 0.94242 0.0
C762 C 0.28423 0.12465 0.99443 0.0
C763 C 0.28021 0.12276 0.09354 0.0
C764 C 0.26757 0.11967 0.13957 0.0
C765 C 0.27204 0.12056 0.04065 0.0
C766 C 0.24713 0.11284 0.13231 0.0
C767 C 0.23886 0.11077 0.0799 0.0
H768 H 0.61094 0.48215 0.91578 0.0
H769 H 0.6112 0.54646 0.86912 0.0
H770 H 0.61171 0.53675 0.77247 0.0
H771 H 0.60931 0.51002 0.70147 0.0
H772 H 0.60586 0.44582 0.74835 0.0
H773 H 0.6095 0.45536 0.84465 0.0
C774 C 0.61142 0.494 0.88438 0.0
C775 C 0.61108 0.51496 0.89934 0.0
C776 C 0.61099 0.4883 0.82901 0.0
C777 C 0.61142 0.53021 0.85842 0.0
C778 C 0.61168 0.52467 0.80323 0.0
C779 C 0.60965 0.49812 0.73278 0.0
C780 C 0.60735 0.47727 0.71803 0.0
C781 C 0.61106 0.50378 0.78806 0.0
C782 C 0.60755 0.46199 0.75889 0.0
C783 C 0.60961 0.46744 0.81388 0.0
H784 H 0.20391 0.86571 0.61028 0.0
H785 H 0.26538 0.87823 0.67025 0.0
H786 H 0.27816 0.88123 0.57679 0.0
H787 H 0.27261 0.87683 0.47817 0.0
H788 H 0.21104 0.86614 0.41707 0.0
H789 H 0.19748 0.8661 0.51061 0.0
C790 C 0.22001 0.86941 0.60276 0.0
C791 C 0.23372 0.87149 0.64702 0.0
C792 C 0.22727 0.8713 0.54875 0.0
C793 C 0.25451 0.87651 0.63685 0.0
C794 C 0.26188 0.87813 0.5834 0.0
C795 C 0.25619 0.87479 0.48543 0.0
C796 C 0.24286 0.87126 0.44116 0.0
C797 C 0.24852 0.87502 0.5391 0.0
C798 C 0.22157 0.8689 0.45073 0.0
C799 C 0.21385 0.86876 0.50416 0.0
H800 H 0.60876 0.04346 0.24946 0.0
H801 H 0.61654 0.98355 0.17462 0.0
H802 H 0.61989 0.96757 0.26436 0.0
H803 H 0.61604 0.96994 0.36384 0.0
H804 H 0.6092 0.02964 0.43986 0.0
H805 H 0.6103 0.04642 0.3501 0.0
C806 C 0.61161 0.02699 0.25287 0.0
C807 C 0.61204 0.01467 0.20556 0.0
C808 C 0.61347 0.01782 0.30479 0.0
C809 C 0.61597 0.99337 0.21045 0.0
C810 C 0.61779 0.98417 0.26178 0.0
C811 C 0.61514 0.98665 0.36069 0.0
C812 C 0.61224 0.99855 0.40797 0.0
C813 C 0.61584 0.99614 0.30917 0.0
C814 C 0.6114 0.02019 0.40377 0.0
C815 C 0.61191 0.02977 0.35249 0.0
H816 H 0.27698 0.35734 0.4455 0.0
H817 H 0.21296 0.35106 0.492 0.0
H818 H 0.22267 0.35168 0.58867 0.0
H819 H 0.24954 0.35113 0.65941 0.0
H820 H 0.31378 0.35412 0.61276 0.0
H821 H 0.30386 0.35784 0.51663 0.0
C822 C 0.26515 0.35643 0.47688 0.0
C823 C 0.2443 0.3542 0.46187 0.0
C824 C 0.27092 0.35607 0.53223 0.0
C825 C 0.22912 0.35274 0.50274 0.0
C826 C 0.23466 0.35307 0.55793 0.0
C827 C 0.26135 0.3529 0.62824 0.0
C828 C 0.28235 0.35239 0.64298 0.0
C829 C 0.25554 0.35431 0.57309 0.0
C830 C 0.29752 0.35444 0.60225 0.0
C831 C 0.29185 0.35653 0.54736 0.0
H832 H 0.8824 0.97067 0.93609 0.0
H833 H 0.88163 0.03606 0.90165 0.0
H834 H 0.87856 0.029 0.80383 0.0
H835 H 0.87983 0.00437 0.72778 0.0
H836 H 0.88385 0.93903 0.76139 0.0
H837 H 0.88168 0.94585 0.85967 0.0
C838 C 0.88116 0.98333 0.90716 0.0
C839 C 0.88224 0.00384 0.9259 0.0
C840 C 0.88015 0.97915 0.85079 0.0
C841 C 0.88089 0.02014 0.88807 0.0
C842 C 0.87918 0.01612 0.83216 0.0
C843 C 0.87984 0.9916 0.75659 0.0
C844 C 0.88201 0.97124 0.73745 0.0
C845 C 0.87934 0.9957 0.81297 0.0
C846 C 0.88223 0.95486 0.77522 0.0
C847 C 0.88105 0.95875 0.83139 0.0
H848 H 0.21979 0.63954 0.93709 0.0
H849 H 0.28425 0.6291 0.97271 0.0
H850 H 0.2766 0.62783 0.07061 0.0
H851 H 0.25217 0.63314 0.14631 0.0
H852 H 0.18829 0.64682 0.11098 0.0
H853 H 0.19501 0.64323 0.01297 0.0
C854 C 0.23207 0.63658 0.9663 0.0
C855 C 0.25254 0.63436 0.94782 0.0
C856 C 0.22766 0.63667 0.02264 0.0
C857 C 0.26837 0.63087 0.98605 0.0
C858 C 0.26401 0.6302 0.04201 0.0
C859 C 0.23966 0.63499 0.11716 0.0
C860 C 0.21977 0.64024 0.13578 0.0
C861 C 0.2438 0.6336 0.06084 0.0
C862 C 0.20375 0.64283 0.09757 0.0
C863 C 0.20759 0.64081 0.04155 0.0
H864 H 0.38304 0.96199 0.86129 0.0
H865 H 0.36901 0.02325 0.92022 0.0
H866 H 0.3682 0.03631 0.82653 0.0
H867 H 0.37444 0.03091 0.72834 0.0
H868 H 0.38639 0.9694 0.66844 0.0
H869 H 0.38488 0.95578 0.76179 0.0
C870 C 0.37952 0.97813 0.85344 0.0
C871 C 0.3763 0.99168 0.8975 0.0
C872 C 0.37884 0.9855 0.79935 0.0
C873 C 0.37154 0.01251 0.88692 0.0
C874 C 0.37118 0.02002 0.83338 0.0
C875 C 0.37646 0.01449 0.7358 0.0
C876 C 0.38074 0.00119 0.6919 0.0
C877 C 0.37526 0.00676 0.78938 0.0
C878 C 0.38307 0.97992 0.70175 0.0
C879 C 0.3823 0.97215 0.75509 0.0
H880 H 0.78055 0.64196 0.43777 0.0
H881 H 0.718 0.62661 0.48324 0.0
H882 H 0.72829 0.62384 0.57911 0.0
H883 H 0.75409 0.62982 0.65112 0.0
H884 H 0.81595 0.64813 0.60659 0.0
H885 H 0.80707 0.64546 0.50964 0.0
C886 C 0.76931 0.63756 0.46858 0.0
C887 C 0.74855 0.6345 0.45349 0.0
C888 C 0.7752 0.63673 0.524 0.0
C889 C 0.73407 0.62909 0.49389 0.0
C890 C 0.73993 0.62756 0.54875 0.0
C891 C 0.76574 0.6328 0.62017 0.0
C892 C 0.78564 0.63919 0.63601 0.0
C893 C 0.76031 0.63194 0.5645 0.0
C894 C 0.8005 0.64322 0.59543 0.0
C895 C 0.79541 0.64177 0.53996 0.0
H896 H 0.11535 0.02242 0.3809 0.0
H897 H 0.10744 0.96304 0.45845 0.0
H898 H 0.10851 0.94599 0.36928 0.0
H899 H 0.1087 0.94836 0.26873 0.0
H900 H 0.11838 0.00753 0.19142 0.0
H901 H 0.11987 0.02426 0.28094 0.0
C902 C 0.11411 0.00573 0.3782 0.0
C903 C 0.11109 0.99401 0.42596 0.0
C904 C 0.11498 0.99602 0.32688 0.0
C905 C 0.10977 0.97238 0.42216 0.0
C906 C 0.11028 0.96264 0.3712 0.0
C907 C 0.11142 0.96487 0.27162 0.0
C908 C 0.11321 0.97674 0.22368 0.0
C909 C 0.11244 0.97435 0.32321 0.0
C910 C 0.11696 0.99807 0.22783 0.0
C911 C 0.11769 0.00766 0.27897 0.0
H912 H 0.75506 0.36175 0.15116 0.0
H913 H 0.6913 0.35507 0.10257 0.0
H914 H 0.70101 0.36 0.00669 0.0
H915 H 0.72805 0.36289 0.93629 0.0
H916 H 0.79204 0.36645 0.98498 0.0
H917 H 0.78185 0.36627 0.08126 0.0
C918 C 0.74325 0.3617 0.11964 0.0
C919 C 0.72251 0.35804 0.13377 0.0
C920 C 0.74903 0.36386 0.06463 0.0
C921 C 0.70739 0.35781 0.09256 0.0
C922 C 0.71293 0.36059 0.03779 0.0
C923 C 0.7397 0.36399 0.96805 0.0
C924 C 0.76074 0.36468 0.95377 0.0
C925 C 0.73377 0.36314 0.02326 0.0
C926 C 0.77574 0.36585 0.99515 0.0
C927 C 0.76993 0.3657 0.05013 0.0
H928 H 0.13487 0.53363 0.39395 0.0
H929 H 0.11221 0.47488 0.45238 0.0
H930 H 0.11138 0.46168 0.35895 0.0
H931 H 0.11236 0.46844 0.26078 0.0
H932 H 0.13377 0.52731 0.20051 0.0
H933 H 0.13987 0.53896 0.2947 0.0
C934 C 0.13036 0.51774 0.38631 0.0
C935 C 0.12351 0.50524 0.42987 0.0
C936 C 0.12923 0.5105 0.3322 0.0
C937 C 0.11751 0.48477 0.41945 0.0
C938 C 0.11686 0.47729 0.36603 0.0
C939 C 0.11849 0.48379 0.26825 0.0
C940 C 0.12219 0.49721 0.22411 0.0
C941 C 0.12185 0.4903 0.32209 0.0
C942 C 0.13061 0.51683 0.23407 0.0
C943 C 0.13408 0.52346 0.28782 0.0
H944 H 0.71797 0.86357 0.58853 0.0
H945 H 0.77675 0.8869 0.64386 0.0
H946 H 0.78675 0.89425 0.54885 0.0
H947 H 0.78047 0.88898 0.45017 0.0
H948 H 0.72194 0.86419 0.39669 0.0
H949 H 0.70977 0.86313 0.49115 0.0
C950 C 0.7329 0.87048 0.5798 0.0
C951 C 0.74686 0.87426 0.62262 0.0
C952 C 0.73846 0.8745 0.52554 0.0
C953 C 0.7659 0.88368 0.61123 0.0
C954 C 0.77159 0.88784 0.55702 0.0
C955 C 0.7648 0.88403 0.45908 0.0
C956 C 0.75213 0.87652 0.4167 0.0
C957 C 0.75823 0.88267 0.51376 0.0
C958 C 0.73195 0.86997 0.42874 0.0
C959 C 0.72507 0.86917 0.48274 0.0
H960 H 0.38702 0.48368 0.70821 0.0
H961 H 0.38506 0.54813 0.75252 0.0
H962 H 0.38386 0.53892 0.84946 0.0
H963 H 0.38748 0.51263 0.92152 0.0
H964 H 0.39304 0.44843 0.87665 0.0
H965 H 0.38854 0.4573 0.78027 0.0
C966 C 0.38591 0.49562 0.73918 0.0
C967 C 0.38619 0.51647 0.72371 0.0
C968 C 0.3861 0.49024 0.79473 0.0
C969 C 0.38499 0.53193 0.76389 0.0
C970 C 0.38434 0.52669 0.8192 0.0
C971 C 0.38734 0.50063 0.89058 0.0
C972 C 0.3907 0.48 0.90568 0.0
C973 C 0.38552 0.50592 0.83514 0.0
C974 C 0.39067 0.46448 0.86554 0.0
C975 C 0.38809 0.46952 0.81054 0.0
H976 H 0.78524 0.1254 0.11999 0.0
H977 H 0.72449 0.12753 0.19256 0.0
H978 H 0.70874 0.12806 0.10161 0.0
H979 H 0.71278 0.13363 0.0028 0.0
H980 H 0.7735 0.13137 0.93015 0.0
H981 H 0.78888 0.12494 0.02006 0.0
C982 C 0.76854 0.12551 0.11572 0.0
C983 C 0.75598 0.12682 0.16241 0.0
C984 C 0.75969 0.12607 0.06356 0.0
C985 C 0.73439 0.12659 0.15691 0.0
C986 C 0.72542 0.12708 0.10503 0.0
C987 C 0.72934 0.13139 0.00672 0.0
C988 C 0.74213 0.1334 0.96066 0.0
C989 C 0.73798 0.12774 0.05827 0.0
C990 C 0.76347 0.13003 0.96547 0.0
C991 C 0.77223 0.12645 0.01675 0.0
H992 H 0.89471 0.4822 0.76369 0.0
H993 H 0.87197 0.54166 0.71118 0.0
H994 H 0.86763 0.55217 0.80702 0.0
H995 H 0.87498 0.54583 0.90482 0.0
H996 H 0.8995 0.48674 0.95509 0.0
H997 H 0.89793 0.4744 0.86085 0.0
C998 C 0.88863 0.49742 0.7732 0.0
C999 C 0.88408 0.51135 0.73074 0.0
C1000 C 0.8864 0.5033 0.82791 0.0
C1001 C 0.87575 0.53079 0.7434 0.0
C1002 C 0.87331 0.53678 0.79809 0.0
C1003 C 0.87932 0.53004 0.89532 0.0
C1004 C 0.8874 0.51718 0.93664 0.0
C1005 C 0.87917 0.52335 0.84065 0.0
C1006 C 0.89325 0.49687 0.92385 0.0
C1007 C 0.89253 0.48989 0.86997 0.0
H1008 H 0.2593 0.11258 0.629 0.0
H1009 H 0.21127 0.15848 0.61014 0.0
H1010 H 0.21281 0.1549 0.51147 0.0
H1011 H 0.23024 0.14195 0.43078 0.0
H1012 H 0.27998 0.09795 0.44677 0.0
H1013 H 0.2748 0.09691 0.546 0.0
C1014 C 0.24917 0.1217 0.60314 0.0
C1015 C 0.23555 0.1361 0.62673 0.0
C1016 C 0.25026 0.11975 0.54595 0.0
C1017 C 0.22223 0.1476 0.59296 0.0
C1018 C 0.22296 0.14548 0.53648 0.0
C1019 C 0.23962 0.13174 0.45584 0.0
C1020 C 0.25555 0.12023 0.43181 0.0
C1021 C 0.23723 0.13201 0.51258 0.0
C1022 C 0.26752 0.10692 0.46449 0.0
C1023 C 0.26477 0.10656 0.52127 0.0
H1024 H 0.61789 0.53231 0.25145 0.0
H1025 H 0.61576 0.4716 0.17898 0.0
H1026 H 0.61605 0.45583 0.2701 0.0
H1027 H 0.61208 0.45975 0.36949 0.0
H1028 H 0.6145 0.52044 0.44203 0.0
H1029 H 0.6192 0.53594 0.35139 0.0
C1030 C 0.61785 0.51561 0.25573 0.0
C1031 C 0.61645 0.50306 0.20902 0.0
C1032 C 0.61788 0.50676 0.30798 0.0
C1033 C 0.61678 0.48149 0.2146 0.0
C1034 C 0.61679 0.47252 0.26658 0.0
C1035 C 0.61395 0.47635 0.36539 0.0
C1036 C 0.61257 0.48906 0.41181 0.0
C1037 C 0.61658 0.48505 0.31343 0.0
C1038 C 0.61541 0.51045 0.40657 0.0
C1039 C 0.61798 0.51928 0.35486 0.0
H1040 H 0.21601 0.89128 0.96254 0.0
H1041 H 0.27841 0.87622 0.91466 0.0
H1042 H 0.28983 0.87923 0.00948 0.0
H1043 H 0.28056 0.87868 0.10608 0.0
H1044 H 0.21775 0.8906 0.15584 0.0
H1045 H 0.20788 0.89656 0.06016 0.0
C1046 C 0.23224 0.88949 0.97271 0.0
C1047 C 0.2464 0.88341 0.93209 0.0
C1048 C 0.23844 0.89018 0.0277 0.0
C1049 C 0.26732 0.88085 0.94554 0.0
C1050 C 0.27378 0.88238 -0.00028 0.0
C1051 C 0.2648 0.88304 0.09599 0.0
C1052 C 0.24976 0.88379 0.1373 0.0
C1053 C 0.25925 0.88584 0.04125 0.0
C1054 C 0.22951 0.88983 0.12435 0.0
C1055 C 0.22388 0.8931 0.06972 0.0
H1056 H 0.57695 0.9708 0.74018 0.0
H1057 H 0.63369 0.00339 0.70601 0.0
H1058 H 0.63639 0.01331 0.80258 0.0
H1059 H 0.62091 0.01484 0.89488 0.0
H1060 H 0.5623 0.9852 0.92461 0.0
H1061 H 0.56212 0.97152 0.83139 0.0
C1062 C 0.59003 0.97992 0.75387 0.0
C1063 C 0.60508 0.98645 0.7163 0.0
C1064 C 0.59112 0.98594 0.80856 0.0
C1065 C 0.62187 0.99833 0.73441 0.0
C1066 C 0.62342 0.00394 0.78947 0.0
C1067 C 0.6084 0.00498 0.88099 0.0
C1068 C 0.59175 0.0007 0.91599 0.0
C1069 C 0.60795 0.99809 0.82669 0.0
C1070 C 0.57528 0.98845 0.89791 0.0
C1071 C 0.57514 0.98077 0.84478 0.0
H1072 H 0.22701 0.35973 0.10895 0.0
H1073 H 0.28808 0.35894 0.17971 0.0
H1074 H 0.30344 0.35846 0.08812 0.0
H1075 H 0.29907 0.35322 0.98936 0.0
H1076 H 0.23809 0.35478 0.91826 0.0
H1077 H 0.2229 0.36011 0.00906 0.0
C1078 C 0.24369 0.35984 0.10414 0.0
C1079 C 0.25648 0.359 0.15049 0.0
C1080 C 0.2523 0.35941 0.05169 0.0
C1081 C 0.27802 0.35952 0.14431 0.0
C1082 C 0.28676 0.35907 0.09211 0.0
C1083 C 0.28248 0.35504 0.99381 0.0
C1084 C 0.26957 0.35323 0.94791 0.0
C1085 C 0.274 0.35821 0.04573 0.0
C1086 C 0.24819 0.356 0.95345 0.0
C1087 C 0.23956 0.35896 0.0052 0.0
H1088 H 0.86301 0.96594 0.41441 0.0
H1089 H 0.88692 0.02527 0.46419 0.0
H1090 H 0.88874 0.03627 0.36875 0.0
H1091 H 0.8895 0.02673 0.27232 0.0
H1092 H 0.86711 0.96711 0.22079 0.0
H1093 H 0.85881 0.95831 0.3161 0.0
C1094 C 0.86787 0.98155 0.40441 0.0
C1095 C 0.87493 0.9948 0.44608 0.0
C1096 C 0.86976 0.9874 0.34929 0.0
C1097 C 0.88144 0.01486 0.43268 0.0
C1098 C 0.8827 0.02104 0.37816 0.0
C1099 C 0.88254 0.0119 0.28189 0.0
C1100 C 0.87932 0.99736 0.24014 0.0
C1101 C 0.87792 0.00706 0.33627 0.0
C1102 C 0.8699 0.97841 0.2526 0.0
C1103 C 0.86519 0.97342 0.30697 0.0
H1104 H 0.27608 0.63886 0.60081 0.0
H1105 H 0.2149 0.62159 0.65367 0.0
H1106 H 0.20495 0.6148 0.55836 0.0
H1107 H 0.2124 0.61917 0.45996 0.0
H1108 H 0.27337 0.63816 0.40879 0.0
H1109 H 0.28498 0.63816 0.50381 0.0
C1110 C 0.26062 0.63336 0.59146 0.0
C1111 C 0.24603 0.63118 0.63363 0.0
C1112 C 0.2551 0.62968 0.53703 0.0
C1113 C 0.22626 0.62357 0.62153 0.0
C1114 C 0.22061 0.61973 0.56716 0.0
C1115 C 0.22842 0.62257 0.4695 0.0
C1116 C 0.24203 0.62879 0.42759 0.0
C1117 C 0.23472 0.62342 0.52445 0.0
C1118 C 0.26266 0.63338 0.44046 0.0
C1119 C 0.26923 0.63359 0.49476 0.0
H1120 H 0.35227 0.97778 0.21659 0.0
H1121 H 0.37354 0.03818 0.16731 0.0
H1122 H 0.37328 0.04961 0.26245 0.0
H1123 H 0.37448 0.04 0.3588 0.0
H1124 H 0.35637 0.97881 0.4096 0.0
H1125 H 0.34768 0.97001 0.31466 0.0
C1126 C 0.35602 0.99368 0.22661 0.0
C1127 C 0.36308 0.00715 0.18541 0.0
C1128 C 0.35694 0.99975 0.28166 0.0
C1129 C 0.36814 0.02761 0.19862 0.0
C1130 C 0.36818 0.03406 0.25297 0.0
C1131 C 0.36822 0.02487 0.34914 0.0
C1132 C 0.36649 0.00986 0.39037 0.0
C1133 C 0.36384 0.01987 0.29479 0.0
C1134 C 0.35796 0.99049 0.37809 0.0
C1135 C 0.3531 0.98547 0.32389 0.0
H1136 H 0.76506 0.62616 0.13665 0.0
H1137 H 0.72209 0.67686 0.11767 0.0
H1138 H 0.72658 0.67599 0.01938 0.0
H1139 H 0.7441 0.6628 0.93929 0.0
H1140 H 0.78853 0.61345 0.95457 0.0
H1141 H 0.7816 0.61136 0.05319 0.0
C1142 C 0.75674 0.63699 0.11086 0.0
C1143 C 0.74347 0.65171 0.13471 0.0
C1144 C 0.75944 0.63651 0.05357 0.0
C1145 C 0.73258 0.66548 0.10069 0.0
C1146 C 0.73503 0.66497 0.04427 0.0
C1147 C 0.75203 0.65131 0.96395 0.0
C1148 C 0.76682 0.63835 0.93976 0.0
C1149 C 0.74856 0.65076 0.02038 0.0
C1150 C 0.77693 0.62351 0.97223 0.0
C1151 C 0.77316 0.6225 0.02872 0.0
H1152 H 0.11703 0.00156 0.93032 0.0
H1153 H 0.11602 0.93708 0.88627 0.0
H1154 H 0.11862 0.94612 0.78943 0.0
H1155 H 0.11617 0.97245 0.71717 0.0
H1156 H 0.11353 0.03689 0.76152 0.0
H1157 H 0.11757 0.02793 0.85798 0.0
C1158 C 0.11792 0.98956 0.89945 0.0
C1159 C 0.11628 0.96877 0.91492 0.0
C1160 C 0.11845 0.9949 0.84383 0.0
C1161 C 0.11716 0.95324 0.87487 0.0
C1162 C 0.11857 0.95838 0.8196 0.0
C1163 C 0.11691 0.98449 0.74798 0.0
C1164 C 0.11438 0.00522 0.73267 0.0
C1165 C 0.11845 0.97918 0.8035 0.0
C1166 C 0.11522 0.02076 0.77271 0.0
C1167 C 0.11753 0.01567 0.8278 0.0
H1168 H 0.7796 0.36326 0.59973 0.0
H1169 H 0.71871 0.36078 0.67142 0.0
H1170 H 0.70326 0.3584 0.58018 0.0
H1171 H 0.70757 0.35333 0.48128 0.0
H1172 H 0.76831 0.35701 0.40921 0.0
H1173 H 0.78351 0.36273 0.49979 0.0
C1174 C 0.76293 0.36247 0.59521 0.0
C1175 C 0.75025 0.36187 0.64184 0.0
C1176 C 0.75425 0.36111 0.54292 0.0
C1177 C 0.7287 0.36121 0.63587 0.0
C1178 C 0.71991 0.35971 0.58386 0.0
C1179 C 0.72412 0.35556 0.48552 0.0
C1180 C 0.73695 0.35439 0.4393 0.0
C1181 C 0.7326 0.35904 0.53732 0.0
C1182 C 0.75826 0.35774 0.44461 0.0
C1183 C 0.7669 0.36094 0.49624 0.0
H1184 H 0.15046 0.44403 0.18475 0.0
H1185 H 0.1226 0.39782 0.08181 0.0
H1186 H 0.14064 0.37042 0.13322 0.0
H1187 H 0.16657 0.36023 0.20392 0.0
H1188 H 0.1927 0.40747 0.30759 0.0
H1189 H 0.17269 0.43383 0.26034 0.0
C1190 C 0.14838 0.42793 0.17347 0.0
C1191 C 0.13574 0.42287 0.12883 0.0
C1192 C 0.15832 0.41249 0.2038 0.0
C1193 C 0.13256 0.402 0.11564 0.0
C1194 C 0.14282 0.38641 0.14511 0.0
C1195 C 0.16745 0.37622 0.21693 0.0
C1196 C 0.18124 0.38189 0.25899 0.0
C1197 C 0.15599 0.3915 0.18893 0.0
C1198 C 0.18232 0.4027 0.2752 0.0
C1199 C 0.17098 0.41783 0.24798 0.0
H1200 H 0.87137 0.89346 0.53663 0.0
H1201 H 0.89965 0.92857 0.40659 0.0
H1202 H 0.88077 0.90845 0.33864 0.0
H1203 H 0.85252 0.88422 0.31714 0.0
H1204 H 0.82504 0.84838 0.44703 0.0
H1205 H 0.84748 0.86512 0.51378 0.0
C1206 C 0.87378 0.8963 0.49336 0.0
C1207 C 0.88672 0.91255 0.47667 0.0
C1208 C 0.86285 0.88467 0.45442 0.0
C1209 C 0.88982 0.91606 0.4205 0.0
C1210 C 0.87889 0.90468 0.38156 0.0
C1211 C 0.85182 0.87976 0.35988 0.0
C1212 C 0.837 0.86529 0.3772 0.0
C1213 C 0.86481 0.88944 0.39815 0.0
C1214 C 0.83633 0.85949 0.43262 0.0
C1215 C 0.84906 0.86916 0.47094 0.0
H1216 H 0.38265 0.59699 0.64798 0.0
H1217 H 0.33612 0.57254 0.53936 0.0
H1218 H 0.30946 0.59214 0.58703 0.0
H1219 H 0.29879 0.61238 0.66622 0.0
H1220 H 0.34443 0.63779 0.77525 0.0
H1221 H 0.37216 0.6215 0.72121 0.0
C1222 C 0.36677 0.59649 0.63379 0.0
C1223 C 0.3613 0.58325 0.59042 0.0
C1224 C 0.35137 0.60744 0.66241 0.0
C1225 C 0.34066 0.58257 0.57273 0.0
C1226 C 0.32539 0.59361 0.60026 0.0
C1227 C 0.31486 0.61437 0.67801 0.0
C1228 C 0.31971 0.62567 0.72519 0.0
C1229 C 0.33047 0.60537 0.64639 0.0
C1230 C 0.34047 0.6288 0.7394 0.0
C1231 C 0.35624 0.61955 0.70846 0.0
H1232 H 0.65442 0.14552 0.9184 0.0
H1233 H 0.66768 0.10086 0.79205 0.0
H1234 H 0.6441 0.07628 0.83466 0.0
H1235 H 0.6232 0.06598 0.91286 0.0
H1236 H 0.60966 0.10965 0.04098 0.0
H1237 H 0.62979 0.13626 0.99253 0.0
C1238 C 0.65173 0.1306 0.89953 0.0
C1239 C 0.6629 0.12495 0.85229 0.0
C1240 C 0.63841 0.11629 0.92504 0.0
C1241 C 0.65935 0.10553 0.82847 0.0
C1242 C 0.64596 0.09143 0.85297 0.0
C1243 C 0.62449 0.0814 0.93003 0.0
C1244 C 0.61531 0.08582 0.98081 0.0
C1245 C 0.63601 0.09639 0.90215 0.0
C1246 C 0.61672 0.10591 0.00205 0.0
C1247 C 0.62827 0.12105 0.97442 0.0
H1248 H 0.14173 0.62953 0.32853 0.0
H1249 H 0.17526 0.65584 0.46405 0.0
H1250 H 0.15482 0.63544 0.52827 0.0
H1251 H 0.13102 0.6063 0.54468 0.0
H1252 H 0.09676 0.58071 0.40944 0.0
H1253 H 0.11355 0.6048 0.34669 0.0
C1254 C 0.14413 0.63121 0.37221 0.0
C1255 C 0.16008 0.64405 0.39142 0.0
C1256 C 0.13233 0.61936 0.40902 0.0
C1257 C 0.163 0.64615 0.44814 0.0
C1258 C 0.15144 0.63432 0.48495 0.0
C1259 C 0.12688 0.60636 0.50168 0.0
C1260 C 0.11286 0.59159 0.48167 0.0
C1261 C 0.1366 0.6203 0.46572 0.0
C1262 C 0.10751 0.59193 0.42594 0.0
C1263 C 0.11722 0.60561 0.38989 0.0
H1264 H 0.60979 0.90799 0.64556 0.0
H1265 H 0.65475 0.92624 0.52444 0.0
H1266 H 0.68109 0.90536 0.56963 0.0
H1267 H 0.69256 0.88636 0.65035 0.0
H1268 H 0.64863 0.86774 0.77312 0.0
H1269 H 0.62056 0.88439 0.72096 0.0
C1270 C 0.62517 0.90679 0.62816 0.0
C1271 C 0.63039 0.91867 0.58182 0.0
C1272 C 0.64049 0.89519 0.6555 0.0
C1273 C 0.65043 0.91724 0.56006 0.0
C1274 C 0.66553 0.90547 0.58615 0.0
C1275 C 0.67675 0.88576 0.66526 0.0
C1276 C 0.67254 0.87628 0.71564 0.0
C1277 C 0.66094 0.89515 0.63505 0.0
C1278 C 0.6521 0.87518 0.73448 0.0
C1279 C 0.63614 0.88468 0.70468 0.0
H1280 H 0.32051 0.37622 0.92582 0.0
H1281 H 0.37377 0.35563 0.83529 0.0
H1282 H 0.39663 0.37398 0.89966 0.0
H1283 H 0.40067 0.39861 0.97677 0.0
H1284 H 0.34666 0.41785 0.06723 0.0
H1285 H 0.32479 0.3965 0.00902 0.0
C1286 C 0.33716 0.37572 0.92036 0.0
C1287 C 0.34557 0.36519 0.87542 0.0
C1288 C 0.34996 0.38576 0.95792 0.0
C1289 C 0.36708 0.36402 0.86929 0.0
C1290 C 0.38006 0.37442 0.90613 0.0
C1291 C 0.38421 0.39763 0.9847 0.0
C1292 C 0.37525 0.40992 0.02598 0.0
C1293 C 0.37161 0.38566 0.9501 0.0
C1294 C 0.35388 0.4086 0.03561 0.0
C1295 C 0.34135 0.39657 0.00202 0.0
H1296 H 0.84469 0.13225 0.21455 0.0
H1297 H 0.82685 0.08705 0.33567 0.0
H1298 H 0.84815 0.06102 0.29075 0.0
H1299 H 0.86757 0.0499 0.21043 0.0
H1300 H 0.88602 0.09418 0.08833 0.0
H1301 H 0.86863 0.12193 0.13989 0.0
C1302 C 0.84597 0.11687 0.23191 0.0
C1303 C 0.83406 0.1115 0.27809 0.0
C1304 C 0.8579 0.10178 0.20497 0.0
C1305 C 0.83576 0.0915 0.30002 0.0
C1306 C 0.84781 0.07657 0.27415 0.0
C1307 C 0.86801 0.06572 0.19564 0.0
C1308 C 0.87766 0.07014 0.14564 0.0
C1309 C 0.85821 0.08134 0.2255 0.0
C1310 C 0.87848 0.09058 0.12674 0.0
C1311 C 0.86855 0.10634 0.15617 0.0
H1312 H 0.88553 0.61904 0.03375 0.0
H1313 H 0.91278 0.58511 0.90011 0.0
H1314 H 0.89344 0.60592 0.83448 0.0
H1315 H 0.86482 0.63008 0.81602 0.0
H1316 H 0.83836 0.6649 0.94906 0.0
H1317 H 0.86157 0.6478 0.01364 0.0
C1318 C 0.88764 0.61661 0.99021 0.0
C1319 C 0.90039 0.60043 0.97189 0.0
C1320 C 0.87645 0.62869 0.9525 0.0
C1321 C 0.90309 0.5975 0.91535 0.0
C1322 C 0.8919 0.6093 0.8777 0.0
C1323 C 0.86455 0.63431 0.85893 0.0
C1324 C 0.84976 0.64854 0.87781 0.0
C1325 C 0.87795 0.6244 0.89591 0.0
C1326 C 0.84964 0.65401 0.93345 0.0
C1327 C 0.8628 0.6441 0.97053 0.0
H1328 H 0.11204 0.08407 0.66506 0.0
H1329 H 0.15824 0.06519 0.54785 0.0
H1330 H 0.18438 0.08522 0.59626 0.0
H1331 H 0.19493 0.10424 0.67733 0.0
H1332 H 0.14968 0.12371 0.79591 0.0
H1333 H 0.12216 0.1071 0.7418 0.0
C1334 C 0.12769 0.08489 0.64927 0.0
C1335 C 0.13328 0.07314 0.60305 0.0
C1336 C 0.14283 0.09597 0.67839 0.0
C1337 C 0.15363 0.07411 0.58332 0.0
C1338 C 0.16861 0.08538 0.61126 0.0
C1339 C 0.17901 0.1048 0.69141 0.0
C1340 C 0.17426 0.11452 0.74116 0.0
C1341 C 0.16353 0.09563 0.6599 0.0
C1342 C 0.15361 0.11591 0.75812 0.0
C1343 C 0.13796 0.10651 0.72712 0.0
H1344 H 0.68269 0.37693 0.41993 0.0
H1345 H 0.63242 0.35796 0.3161 0.0
H1346 H 0.60772 0.37615 0.37592 0.0
H1347 H 0.60135 0.4002 0.45344 0.0
H1348 H 0.65242 0.41782 0.55711 0.0
H1349 H 0.67589 0.39681 0.5026 0.0
C1350 C 0.66628 0.37673 0.4106 0.0
C1351 C 0.65928 0.36667 0.36334 0.0
C1352 C 0.65239 0.38679 0.44542 0.0
C1353 C 0.63804 0.36592 0.35209 0.0
C1354 C 0.624 0.37627 0.38628 0.0
C1355 C 0.61751 0.39899 0.46485 0.0
C1356 C 0.62519 0.4107 0.50897 0.0
C1357 C 0.63108 0.38709 0.43258 0.0
C1358 C 0.64616 0.40906 0.52319 0.0
C1359 C 0.65964 0.39717 0.49182 0.0
H1360 H 0.37275 0.93585 0.20924 0.0
H1361 H 0.36666 0.90323 0.05639 0.0
H1362 H 0.34501 0.8771 0.10097 0.0
H1363 H 0.32413 0.86634 0.1802 0.0
H1364 H 0.32662 0.90183 0.32912 0.0
H1365 H 0.3536 0.92388 0.28987 0.0
C1366 C 0.36712 0.92272 0.18603 0.0
C1367 C 0.37137 0.92135 0.12969 0.0
C1368 C 0.3539 0.90838 0.21133 0.0
C1369 C 0.36362 0.90454 0.09982 0.0
C1370 C 0.35119 0.88966 0.12527 0.0
C1371 C 0.33106 0.87852 0.20454 0.0
C1372 C 0.32365 0.88236 0.25766 0.0
C1373 C 0.34572 0.89178 0.18059 0.0
C1374 C 0.33226 0.89853 0.28832 0.0
C1375 C 0.34757 0.91119 0.26575 0.0
H1376 H 0.84132 0.37497 0.70398 0.0
H1377 H 0.80586 0.42128 0.78993 0.0
H1378 H 0.82469 0.44857 0.74318 0.0
H1379 H 0.84936 0.45948 0.67411 0.0
H1380 H 0.88656 0.41442 0.58958 0.0
H1381 H 0.86884 0.38639 0.63911 0.0
C1382 C 0.83805 0.39104 0.71316 0.0
C1383 C 0.8221 0.39607 0.75015 0.0
C1384 C 0.84891 0.40684 0.68559 0.0
C1385 C 0.81796 0.41696 0.76148 0.0
C1386 C 0.82864 0.43262 0.73454 0.0
C1387 C 0.8535 0.4435 0.66616 0.0
C1388 C 0.86881 0.43891 0.62733 0.0
C1389 C 0.84373 0.42773 0.69563 0.0
C1390 C 0.87455 0.41823 0.61877 0.0
C1391 C 0.86449 0.40227 0.64722 0.0
H1392 H 0.39127 0.08127 0.42729 0.0
H1393 H 0.35454 0.08787 0.57334 0.0
H1394 H 0.33394 0.11492 0.52923 0.0
H1395 H 0.32313 0.13252 0.44514 0.0
H1396 H 0.35676 0.12217 0.29534 0.0
H1397 H 0.38204 0.10102 0.34477 0.0
C1398 C 0.37918 0.08914 0.44996 0.0
C1399 C 0.37452 0.0828 0.50365 0.0
C1400 C 0.3667 0.10381 0.42324 0.0
C1401 C 0.35847 0.09265 0.53214 0.0
C1402 C 0.34662 0.108 0.50679 0.0
C1403 C 0.33635 0.12615 0.42361 0.0
C1404 C 0.33818 0.12899 0.36672 0.0
C1405 C 0.35012 0.11314 0.45174 0.0
C1406 C 0.3551 0.12026 0.33915 0.0
C1407 C 0.36947 0.10808 0.36737 0.0
H1408 H 0.61663 0.59215 0.16134 0.0
H1409 H 0.6645 0.56854 0.05523 0.0
H1410 H 0.69047 0.58798 0.10557 0.0
H1411 H 0.70004 0.60905 0.18374 0.0
H1412 H 0.65307 0.63411 0.28967 0.0
H1413 H 0.62617 0.61654 0.23575 0.0
C1414 C 0.63268 0.59169 0.14853 0.0
C1415 C 0.63868 0.57884 0.1048 0.0
C1416 C 0.64768 0.6027 0.17838 0.0
C1417 C 0.65952 0.57826 0.08883 0.0
C1418 C 0.67441 0.58924 0.11783 0.0
C1419 C 0.6839 0.61056 0.19531 0.0
C1420 C 0.67848 0.6223 0.24136 0.0
C1421 C 0.66874 0.60095 0.16356 0.0
C1422 C 0.65754 0.6248 0.25481 0.0
C1423 C 0.64222 0.61485 0.22387 0.0
H1424 H 0.18139 0.85717 0.96565 0.0
H1425 H 0.14391 0.86562 0.8215 0.0
H1426 H 0.11669 0.88158 0.87692 0.0
H1427 H 0.10614 0.89779 0.96335 0.0
H1428 H 0.14616 0.89396 0.10385 0.0
H1429 H 0.16967 0.87116 0.05353 0.0
C1430 C 0.167 0.86198 0.94665 0.0
C1431 C 0.16454 0.86014 0.88967 0.0
C1432 C 0.15196 0.87207 0.97829 0.0
C1433 C 0.14607 0.86685 0.86532 0.0
C1434 C 0.13057 0.87603 0.89697 0.0
C1435 C 0.11962 0.89131 0.98348 0.0
C1436 C 0.12432 0.89719 0.03743 0.0
C1437 C 0.13366 0.87935 0.95314 0.0
C1438 C 0.14216 0.88934 0.0626 0.0
C1439 C 0.15566 0.87649 0.03366 0.0
loop_
_geom_bond_atom_site_label_1
_geom_bond_atom_site_label_2
_geom_bond_distance
_geom_bond_site_symmetry_2
_ccdc_geom_bond_type
In0 O1 2.294 . S
In0 O2 2.326 . S
In0 O6 2.266 . S
In0 O7 2.326 . S
In0 O8 2.266 . S
In0 O9 2.326 1_554 S
In0 O11 2.294 . S
In0 O12 2.326 . S
O1 In0 2.294 . S
O1 C10 1.240 . S
O2 In0 2.326 . S
O2 C10 1.252 . S
C3 O6 1.252 . S
C3 O7 1.260 . S
C4 O11 1.240 . S
C4 O12 1.252 . S
C5 O8 1.252 1_556 S
C5 O9 1.260 . S
O6 In0 2.266 . S
O6 C3 1.252 . S
O7 In0 2.326 . S
O7 C3 1.260 . S
O8 In0 2.266 . S
O8 C5 1.252 1_554 S
O9 In0 2.326 1_556 S
O9 C5 1.260 . S
C10 O1 1.240 . S
C10 O2 1.252 . S
O11 In0 2.294 . S
O11 C4 1.240 . S
O12 In0 2.326 . S
O12 C4 1.252 . S
In13 O14 2.294 . S
In13 O15 2.326 . S
In13 O19 2.266 . S
In13 O20 2.326 . S
In13 O21 2.266 . S
In13 O22 2.326 . S
In13 O24 2.294 . S
In13 O25 2.326 . S
O14 In13 2.294 . S
O14 C23 1.240 . S
O15 In13 2.326 . S
O15 C23 1.252 . S
C16 O19 1.252 . S
C16 O20 1.260 . S
C17 O24 1.240 . S
C17 O25 1.252 . S
C18 O21 1.252 . S
C18 O22 1.260 . S
O19 In13 2.266 . S
O19 C16 1.252 . S
O20 In13 2.326 . S
O20 C16 1.260 . S
O21 In13 2.266 . S
O21 C18 1.252 . S
O22 In13 2.326 . S
O22 C18 1.260 . S
C23 O14 1.240 . S
C23 O15 1.252 . S
O24 In13 2.294 . S
O24 C17 1.240 . S
O25 In13 2.326 . S
O25 C17 1.252 . S
In26 O27 2.294 . S
In26 O28 2.326 . S
In26 O32 2.266 . S
In26 O33 2.326 . S
In26 O34 2.266 . S
In26 O35 2.326 . S
In26 O37 2.294 . S
In26 O38 2.326 . S
O27 In26 2.294 . S
O27 C36 1.240 . S
O28 In26 2.326 . S
O28 C36 1.252 . S
C29 O32 1.252 . S
C29 O33 1.260 . S
C30 O37 1.240 . S
C30 O38 1.252 . S
C31 O34 1.252 . S
C31 O35 1.260 . S
O32 In26 2.266 . S
O32 C29 1.252 . S
O33 In26 2.326 . S
O33 C29 1.260 . S
O34 In26 2.266 . S
O34 C31 1.252 . S
O35 In26 2.326 . S
O35 C31 1.260 . S
C36 O27 1.240 . S
C36 O28 1.252 . S
O37 In26 2.294 . S
O37 C30 1.240 . S
O38 In26 2.326 . S
O38 C30 1.252 . S
In39 O40 2.294 . S
In39 O41 2.326 . S
In39 O45 2.266 . S
In39 O46 2.326 . S
In39 O47 2.266 . S
In39 O48 2.326 . S
In39 O50 2.294 . S
In39 O51 2.326 . S
O40 In39 2.294 . S
O40 C49 1.240 . S
O41 In39 2.326 . S
O41 C49 1.252 . S
C42 O45 1.252 . S
C42 O46 1.260 . S
C43 O50 1.240 . S
C43 O51 1.252 . S
C44 O47 1.252 . S
C44 O48 1.260 . S
O45 In39 2.266 . S
O45 C42 1.252 . S
O46 In39 2.326 . S
O46 C42 1.260 . S
O47 In39 2.266 . S
O47 C44 1.252 . S
O48 In39 2.326 . S
O48 C44 1.260 . S
C49 O40 1.240 . S
C49 O41 1.252 . S
O50 In39 2.294 . S
O50 C43 1.240 . S
O51 In39 2.326 . S
O51 C43 1.252 . S
In52 O53 2.294 . S
In52 O54 2.326 . S
In52 O58 2.266 . S
In52 O59 2.326 . S
In52 O60 2.266 . S
In52 O61 2.326 . S
In52 O63 2.294 . S
In52 O64 2.326 . S
O53 In52 2.294 . S
O53 C62 1.240 . S
O54 In52 2.326 . S
O54 C62 1.252 . S
C55 O58 1.252 . S
C55 O59 1.260 . S
C56 O63 1.240 . S
C56 O64 1.252 . S
C57 O60 1.252 . S
C57 O61 1.260 . S
O58 In52 2.266 . S
O58 C55 1.252 . S
O59 In52 2.326 . S
O59 C55 1.260 . S
O60 In52 2.266 . S
O60 C57 1.252 . S
O61 In52 2.326 . S
O61 C57 1.260 . S
C62 O53 1.240 . S
C62 O54 1.252 . S
O63 In52 2.294 . S
O63 C56 1.240 . S
O64 In52 2.326 . S
O64 C56 1.252 . S
In65 O66 2.294 . S
In65 O67 2.326 . S
In65 O71 2.266 . S
In65 O72 2.326 . S
In65 O73 2.266 . S
In65 O74 2.326 . S
In65 O76 2.294 . S
In65 O77 2.326 . S
O66 In65 2.294 . S
O66 C75 1.240 . S
O67 In65 2.326 . S
O67 C75 1.252 . S
C68 O71 1.252 . S
C68 O72 1.260 . S
C69 O76 1.240 . S
C69 O77 1.252 . S
C70 O73 1.252 . S
C70 O74 1.260 . S
O71 In65 2.266 . S
O71 C68 1.252 . S
O72 In65 2.326 . S
O72 C68 1.260 . S
O73 In65 2.266 . S
O73 C70 1.252 . S
O74 In65 2.326 . S
O74 C70 1.260 . S
C75 O66 1.240 . S
C75 O67 1.252 . S
O76 In65 2.294 . S
O76 C69 1.240 . S
O77 In65 2.326 . S
O77 C69 1.252 . S
In78 O79 2.294 . S
In78 O80 2.326 . S
In78 O84 2.266 . S
In78 O85 2.326 . S
In78 O86 2.266 . S
In78 O87 2.326 . S
In78 O89 2.294 1_554 S
In78 O90 2.326 1_554 S
O79 In78 2.294 . S
O79 C88 1.240 . S
O80 In78 2.326 . S
O80 C88 1.252 . S
C81 O84 1.252 . S
C81 O85 1.260 . S
C82 O89 1.240 . S
C82 O90 1.252 . S
C83 O86 1.252 . S
C83 O87 1.260 . S
O84 In78 2.266 . S
O84 C81 1.252 . S
O85 In78 2.326 . S
O85 C81 1.260 . S
O86 In78 2.266 . S
O86 C83 1.252 . S
O87 In78 2.326 . S
O87 C83 1.260 . S
C88 O79 1.240 . S
C88 O80 1.252 . S
O89 In78 2.294 1_556 S
O89 C82 1.240 . S
O90 In78 2.326 1_556 S
O90 C82 1.252 . S
In91 O92 2.294 . S
In91 O93 2.326 . S
In91 O97 2.266 . S
In91 O98 2.326 . S
In91 O99 2.266 . S
In91 O100 2.326 . S
In91 O102 2.294 . S
In91 O103 2.326 . S
O92 In91 2.294 . S
O92 C101 1.240 . S
O93 In91 2.326 . S
O93 C101 1.252 . S
C94 O97 1.252 . S
C94 O98 1.260 . S
C95 O102 1.240 . S
C95 O103 1.252 . S
C96 O99 1.252 . S
C96 O100 1.260 . S
O97 In91 2.266 . S
O97 C94 1.252 . S
O98 In91 2.326 . S
O98 C94 1.260 . S
O99 In91 2.266 . S
O99 C96 1.252 . S
O100 In91 2.326 . S
O100 C96 1.260 . S
C101 O92 1.240 . S
C101 O93 1.252 . S
O102 In91 2.294 . S
O102 C95 1.240 . S
O103 In91 2.326 . S
O103 C95 1.252 . S
In104 O105 2.294 1_554 S
In104 O106 2.326 1_554 S
In104 O110 2.266 . S
In104 O111 2.326 . S
In104 O112 2.266 . S
In104 O113 2.326 . S
In104 O115 2.294 . S
In104 O116 2.326 . S
O105 In104 2.294 1_556 S
O105 C114 1.240 . S
O106 In104 2.326 1_556 S
O106 C114 1.252 . S
C107 O110 1.252 . S
C107 O111 1.260 . S
C108 O115 1.240 . S
C108 O116 1.252 . S
C109 O112 1.252 . S
C109 O113 1.260 . S
O110 In104 2.266 . S
O110 C107 1.252 . S
O111 In104 2.326 . S
O111 C107 1.260 . S
O112 In104 2.266 . S
O112 C109 1.252 . S
O113 In104 2.326 . S
O113 C109 1.260 . S
C114 O105 1.240 . S
C114 O106 1.252 . S
O115 In104 2.294 . S
O115 C108 1.240 . S
O116 In104 2.326 . S
O116 C108 1.252 . S
In117 O118 2.294 . S
In117 O119 2.326 . S
In117 O123 2.266 . S
In117 O124 2.326 . S
In117 O125 2.266 . S
In117 O126 2.326 . S
In117 O128 2.294 . S
In117 O129 2.326 . S
O118 In117 2.294 . S
O118 C127 1.240 . S
O119 In117 2.326 . S
O119 C127 1.252 . S
C120 O123 1.252 . S
C120 O124 1.260 . S
C121 O128 1.240 . S
C121 O129 1.252 . S
C122 O125 1.252 . S
C122 O126 1.260 . S
O123 In117 2.266 . S
O123 C120 1.252 . S
O124 In117 2.326 . S
O124 C120 1.260 . S
O125 In117 2.266 . S
O125 C122 1.252 . S
O126 In117 2.326 . S
O126 C122 1.260 . S
C127 O118 1.240 . S
C127 O119 1.252 . S
O128 In117 2.294 . S
O128 C121 1.240 . S
O129 In117 2.326 . S
O129 C121 1.252 . S
In130 O131 2.294 . S
In130 O132 2.326 . S
In130 O136 2.266 . S
In130 O137 2.326 . S
In130 O138 2.266 . S
In130 O139 2.326 . S
In130 O141 2.294 . S
In130 O142 2.326 . S
O131 In130 2.294 . S
O131 C140 1.240 . S
O132 In130 2.326 . S
O132 C140 1.252 . S
C133 O136 1.252 . S
C133 O137 1.260 . S
C134 O141 1.240 . S
C134 O142 1.252 . S
C135 O138 1.252 . S
C135 O139 1.260 . S
O136 In130 2.266 . S
O136 C133 1.252 . S
O137 In130 2.326 . S
O137 C133 1.260 . S
O138 In130 2.266 . S
O138 C135 1.252 . S
O139 In130 2.326 . S
O139 C135 1.260 . S
C140 O131 1.240 . S
C140 O132 1.252 . S
O141 In130 2.294 . S
O141 C134 1.240 . S
O142 In130 2.326 . S
O142 C134 1.252 . S
In143 O144 2.294 . S
In143 O145 2.326 . S
In143 O149 2.266 . S
In143 O150 2.326 . S
In143 O151 2.266 . S
In143 O152 2.326 . S
In143 O154 2.294 . S
In143 O155 2.326 . S
O144 In143 2.294 . S
O144 C153 1.240 . S
O145 In143 2.326 . S
O145 C153 1.252 . S
C146 O149 1.252 . S
C146 O150 1.260 . S
C147 O154 1.240 . S
C147 O155 1.252 . S
C148 O151 1.252 . S
C148 O152 1.260 . S
O149 In143 2.266 . S
O149 C146 1.252 . S
O150 In143 2.326 . S
O150 C146 1.260 . S
O151 In143 2.266 . S
O151 C148 1.252 . S
O152 In143 2.326 . S
O152 C148 1.260 . S
C153 O144 1.240 . S
C153 O145 1.252 . S
O154 In143 2.294 . S
O154 C147 1.240 . S
O155 In143 2.326 . S
O155 C147 1.252 . S
In156 O157 2.294 . S
In156 O158 2.326 . S
In156 O162 2.266 . S
In156 O163 2.326 . S
In156 O164 2.266 . S
In156 O165 2.326 . S
In156 O167 2.294 . S
In156 O168 2.326 . S
O157 In156 2.294 . S
O157 C166 1.240 . S
O158 In156 2.326 . S
O158 C166 1.252 . S
C159 O162 1.252 . S
C159 O163 1.260 . S
C160 O167 1.240 . S
C160 O168 1.252 . S
C161 O164 1.252 . S
C161 O165 1.260 . S
O162 In156 2.266 . S
O162 C159 1.252 . S
O163 In156 2.326 . S
O163 C159 1.260 . S
O164 In156 2.266 . S
O164 C161 1.252 . S
O165 In156 2.326 . S
O165 C161 1.260 . S
C166 O157 1.240 . S
C166 O158 1.252 . S
O167 In156 2.294 . S
O167 C160 1.240 . S
O168 In156 2.326 . S
O168 C160 1.252 . S
In169 O170 2.294 . S
In169 O171 2.326 . S
In169 O175 2.266 . S
In169 O176 2.326 . S
In169 O177 2.266 . S
In169 O178 2.326 . S
In169 O180 2.294 . S
In169 O181 2.326 . S
O170 In169 2.294 . S
O170 C179 1.240 . S
O171 In169 2.326 . S
O171 C179 1.252 . S
C172 O175 1.252 . S
C172 O176 1.260 . S
C173 O180 1.240 . S
C173 O181 1.252 . S
C174 O177 1.252 . S
C174 O178 1.260 . S
O175 In169 2.266 . S
O175 C172 1.252 . S
O176 In169 2.326 . S
O176 C172 1.260 . S
O177 In169 2.266 . S
O177 C174 1.252 . S
O178 In169 2.326 . S
O178 C174 1.260 . S
C179 O170 1.240 . S
C179 O171 1.252 . S
O180 In169 2.294 . S
O180 C173 1.240 . S
O181 In169 2.326 . S
O181 C173 1.252 . S
In182 O183 2.294 . S
In182 O184 2.326 . S
In182 O188 2.266 . S
In182 O189 2.326 . S
In182 O190 2.266 . S
In182 O191 2.326 1_554 S
In182 O193 2.294 . S
In182 O194 2.326 . S
O183 In182 2.294 . S
O183 C192 1.240 . S
O184 In182 2.326 . S
O184 C192 1.252 . S
C185 O188 1.252 . S
C185 O189 1.260 . S
C186 O193 1.240 . S
C186 O194 1.252 . S
C187 O190 1.252 1_556 S
C187 O191 1.260 . S
O188 In182 2.266 . S
O188 C185 1.252 . S
O189 In182 2.326 . S
O189 C185 1.260 . S
O190 In182 2.266 . S
O190 C187 1.252 1_554 S
O191 In182 2.326 1_556 S
O191 C187 1.260 . S
C192 O183 1.240 . S
C192 O184 1.252 . S
O193 In182 2.294 . S
O193 C186 1.240 . S
O194 In182 2.326 . S
O194 C186 1.252 . S
In195 O196 2.294 . S
In195 O197 2.326 . S
In195 O201 2.266 . S
In195 O202 2.326 . S
In195 O203 2.266 . S
In195 O204 2.326 . S
In195 O206 2.294 . S
In195 O207 2.326 . S
O196 In195 2.294 . S
O196 C205 1.240 . S
O197 In195 2.326 . S
O197 C205 1.252 . S
C198 O201 1.252 . S
C198 O202 1.260 . S
C199 O206 1.240 . S
C199 O207 1.252 . S
C200 O203 1.252 . S
C200 O204 1.260 . S
O201 In195 2.266 . S
O201 C198 1.252 . S
O202 In195 2.326 . S
O202 C198 1.260 . S
O203 In195 2.266 . S
O203 C200 1.252 . S
O204 In195 2.326 . S
O204 C200 1.260 . S
C205 O196 1.240 . S
C205 O197 1.252 . S
O206 In195 2.294 . S
O206 C199 1.240 . S
O207 In195 2.326 . S
O207 C199 1.252 . S
In208 O209 2.294 . S
In208 O210 2.326 . S
In208 O214 2.266 . S
In208 O215 2.326 1_565 S
In208 O216 2.266 1_565 S
In208 O217 2.326 . S
In208 O219 2.294 1_565 S
In208 O220 2.326 . S
O209 In208 2.294 . S
O209 C218 1.240 . S
O210 In208 2.326 . S
O210 C218 1.252 . S
C211 O214 1.252 . S
C211 O215 1.260 1_565 S
C212 O219 1.239 1_565 S
C212 O220 1.253 . S
C213 O216 1.252 1_565 S
C213 O217 1.260 . S
O214 In208 2.266 . S
O214 C211 1.252 . S
O215 In208 2.326 1_545 S
O215 C211 1.260 1_545 S
O216 In208 2.266 1_545 S
O216 C213 1.252 1_545 S
O217 In208 2.326 . S
O217 C213 1.260 . S
C218 O209 1.240 . S
C218 O210 1.252 . S
O219 In208 2.294 1_545 S
O219 C212 1.239 1_545 S
O220 In208 2.326 . S
O220 C212 1.253 . S
In221 O222 2.294 . S
In221 O223 2.326 . S
In221 O227 2.266 . S
In221 O228 2.326 . S
In221 O229 2.266 . S
In221 O230 2.326 . S
In221 O232 2.294 . S
In221 O233 2.326 . S
O222 In221 2.294 . S
O222 C231 1.240 . S
O223 In221 2.326 . S
O223 C231 1.252 . S
C224 O227 1.252 . S
C224 O228 1.260 . S
C225 O232 1.240 . S
C225 O233 1.252 . S
C226 O229 1.252 . S
C226 O230 1.260 . S
O227 In221 2.266 . S
O227 C224 1.252 . S
O228 In221 2.326 . S
O228 C224 1.260 . S
O229 In221 2.266 . S
O229 C226 1.252 . S
O230 In221 2.326 . S
O230 C226 1.260 . S
C231 O222 1.240 . S
C231 O223 1.252 . S
O232 In221 2.294 . S
O232 C225 1.240 . S
O233 In221 2.326 . S
O233 C225 1.252 . S
In234 O235 2.294 . S
In234 O236 2.326 . S
In234 O240 2.266 . S
In234 O241 2.326 1_545 S
In234 O242 2.266 1_545 S
In234 O243 2.326 1_554 S
In234 O245 2.294 1_545 S
In234 O246 2.326 . S
O235 In234 2.294 . S
O235 C244 1.240 . S
O236 In234 2.326 . S
O236 C244 1.252 . S
C237 O240 1.252 . S
C237 O241 1.260 1_545 S
C238 O245 1.239 1_545 S
C238 O246 1.253 . S
C239 O242 1.252 1_546 S
C239 O243 1.260 . S
O240 In234 2.266 . S
O240 C237 1.252 . S
O241 In234 2.326 1_565 S
O241 C237 1.260 1_565 S
O242 In234 2.266 1_565 S
O242 C239 1.252 1_564 S
O243 In234 2.326 1_556 S
O243 C239 1.260 . S
C244 O235 1.240 . S
C244 O236 1.252 . S
O245 In234 2.294 1_565 S
O245 C238 1.239 1_565 S
O246 In234 2.326 . S
O246 C238 1.253 . S
In247 O248 2.294 . S
In247 O249 2.326 . S
In247 O253 2.266 . S
In247 O254 2.326 . S
In247 O255 2.266 . S
In247 O256 2.326 . S
In247 O258 2.294 . S
In247 O259 2.326 . S
O248 In247 2.294 . S
O248 C257 1.240 . S
O249 In247 2.326 . S
O249 C257 1.252 . S
C250 O253 1.252 . S
C250 O254 1.260 . S
C251 O258 1.240 . S
C251 O259 1.252 . S
C252 O255 1.252 . S
C252 O256 1.260 . S
O253 In247 2.266 . S
O253 C250 1.252 . S
O254 In247 2.326 . S
O254 C250 1.260 . S
O255 In247 2.266 . S
O255 C252 1.252 . S
O256 In247 2.326 . S
O256 C252 1.260 . S
C257 O248 1.240 . S
C257 O249 1.252 . S
O258 In247 2.294 . S
O258 C251 1.240 . S
O259 In247 2.326 . S
O259 C251 1.252 . S
In260 O261 2.294 1_544 S
In260 O262 2.326 1_554 S
In260 O266 2.266 1_545 S
In260 O267 2.326 . S
In260 O268 2.266 . S
In260 O269 2.326 1_545 S
In260 O271 2.294 . S
In260 O272 2.326 . S
O261 In260 2.294 1_566 S
O261 C270 1.239 1_565 S
O262 In260 2.326 1_556 S
O262 C270 1.253 . S
C263 O266 1.252 1_545 S
C263 O267 1.260 . S
C264 O271 1.240 . S
C264 O272 1.252 . S
C265 O268 1.252 . S
C265 O269 1.260 1_545 S
O266 In260 2.266 1_565 S
O266 C263 1.252 1_565 S
O267 In260 2.326 . S
O267 C263 1.260 . S
O268 In260 2.266 . S
O268 C265 1.252 . S
O269 In260 2.326 1_565 S
O269 C265 1.260 1_565 S
C270 O261 1.239 1_545 S
C270 O262 1.253 . S
O271 In260 2.294 . S
O271 C264 1.240 . S
O272 In260 2.326 . S
O272 C264 1.252 . S
In273 O274 2.294 . S
In273 O275 2.326 . S
In273 O279 2.266 . S
In273 O280 2.326 . S
In273 O281 2.266 . S
In273 O282 2.326 . S
In273 O284 2.294 . S
In273 O285 2.326 . S
O274 In273 2.294 . S
O274 C283 1.240 . S
O275 In273 2.326 . S
O275 C283 1.252 . S
C276 O279 1.252 . S
C276 O280 1.260 . S
C277 O284 1.240 . S
C277 O285 1.252 . S
C278 O281 1.252 . S
C278 O282 1.260 . S
O279 In273 2.266 . S
O279 C276 1.252 . S
O280 In273 2.326 . S
O280 C276 1.260 . S
O281 In273 2.266 . S
O281 C278 1.252 . S
O282 In273 2.326 . S
O282 C278 1.260 . S
C283 O274 1.240 . S
C283 O275 1.252 . S
O284 In273 2.294 . S
O284 C277 1.240 . S
O285 In273 2.326 . S
O285 C277 1.252 . S
In286 O287 2.294 . S
In286 O288 2.326 . S
In286 O292 2.266 . S
In286 O293 2.326 1_565 S
In286 O294 2.266 1_565 S
In286 O295 2.326 . S
In286 O297 2.294 1_565 S
In286 O298 2.326 . S
O287 In286 2.294 . S
O287 C296 1.240 . S
O288 In286 2.326 . S
O288 C296 1.252 . S
C289 O292 1.252 . S
C289 O293 1.260 1_565 S
C290 O297 1.239 1_565 S
C290 O298 1.254 . S
C291 O294 1.252 1_565 S
C291 O295 1.260 . S
O292 In286 2.266 . S
O292 C289 1.252 . S
O293 In286 2.326 1_545 S
O293 C289 1.260 1_545 S
O294 In286 2.266 1_545 S
O294 C291 1.252 1_545 S
O295 In286 2.326 . S
O295 C291 1.260 . S
C296 O287 1.240 . S
C296 O288 1.252 . S
O297 In286 2.294 1_545 S
O297 C290 1.239 1_545 S
O298 In286 2.326 . S
O298 C290 1.254 . S
In299 O300 2.294 . S
In299 O301 2.326 . S
In299 O305 2.266 . S
In299 O306 2.326 . S
In299 O307 2.266 . S
In299 O308 2.326 . S
In299 O310 2.294 . S
In299 O311 2.326 . S
O300 In299 2.294 . S
O300 C309 1.240 . S
O301 In299 2.326 . S
O301 C309 1.252 . S
C302 O305 1.252 . S
C302 O306 1.260 . S
C303 O310 1.240 . S
C303 O311 1.252 . S
C304 O307 1.252 . S
C304 O308 1.260 . S
O305 In299 2.266 . S
O305 C302 1.252 . S
O306 In299 2.326 . S
O306 C302 1.260 . S
O307 In299 2.266 . S
O307 C304 1.252 . S
O308 In299 2.326 . S
O308 C304 1.260 . S
C309 O300 1.240 . S
C309 O301 1.252 . S
O310 In299 2.294 . S
O310 C303 1.240 . S
O311 In299 2.326 . S
O311 C303 1.252 . S
In312 O313 2.294 . S
In312 O314 2.326 . S
In312 O318 2.266 . S
In312 O319 2.326 1_545 S
In312 O320 2.266 1_545 S
In312 O321 2.326 . S
In312 O323 2.294 1_545 S
In312 O324 2.326 . S
O313 In312 2.294 . S
O313 C322 1.240 . S
O314 In312 2.326 . S
O314 C322 1.252 . S
C315 O318 1.252 . S
C315 O319 1.260 1_545 S
C316 O323 1.239 1_545 S
C316 O324 1.254 . S
C317 O320 1.252 1_545 S
C317 O321 1.260 . S
O318 In312 2.266 . S
O318 C315 1.252 . S
O319 In312 2.326 1_565 S
O319 C315 1.260 1_565 S
O320 In312 2.266 1_565 S
O320 C317 1.252 1_565 S
O321 In312 2.326 . S
O321 C317 1.260 . S
C322 O313 1.240 . S
C322 O314 1.252 . S
O323 In312 2.294 1_565 S
O323 C316 1.239 1_565 S
O324 In312 2.326 . S
O324 C316 1.254 . S
In325 O326 2.294 . S
In325 O327 2.326 . S
In325 O331 2.266 . S
In325 O332 2.326 . S
In325 O333 2.266 . S
In325 O334 2.326 . S
In325 O336 2.294 . S
In325 O337 2.326 . S
O326 In325 2.294 . S
O326 C335 1.240 . S
O327 In325 2.326 . S
O327 C335 1.252 . S
C328 O331 1.252 . S
C328 O332 1.260 . S
C329 O336 1.240 . S
C329 O337 1.252 . S
C330 O333 1.252 . S
C330 O334 1.260 . S
O331 In325 2.266 . S
O331 C328 1.252 . S
O332 In325 2.326 . S
O332 C328 1.260 . S
O333 In325 2.266 . S
O333 C330 1.252 . S
O334 In325 2.326 . S
O334 C330 1.260 . S
C335 O326 1.240 . S
C335 O327 1.252 . S
O336 In325 2.294 . S
O336 C329 1.240 . S
O337 In325 2.326 . S
O337 C329 1.252 . S
In338 O339 2.294 1_564 S
In338 O340 2.326 1_554 S
In338 O344 2.266 1_565 S
In338 O345 2.326 . S
In338 O346 2.266 . S
In338 O347 2.326 1_565 S
In338 O349 2.294 . S
In338 O350 2.326 . S
O339 In338 2.294 1_546 S
O339 C348 1.239 1_545 S
O340 In338 2.326 1_556 S
O340 C348 1.254 . S
C341 O344 1.252 1_565 S
C341 O345 1.260 . S
C342 O349 1.240 . S
C342 O350 1.252 . S
C343 O346 1.252 . S
C343 O347 1.260 1_565 S
O344 In338 2.266 1_545 S
O344 C341 1.252 1_545 S
O345 In338 2.326 . S
O345 C341 1.260 . S
O346 In338 2.266 . S
O346 C343 1.252 . S
O347 In338 2.326 1_545 S
O347 C343 1.260 1_545 S
C348 O339 1.239 1_565 S
C348 O340 1.254 . S
O349 In338 2.294 . S
O349 C342 1.240 . S
O350 In338 2.326 . S
O350 C342 1.252 . S
In351 O352 2.294 . S
In351 O353 2.326 . S
In351 O357 2.266 . S
In351 O358 2.326 . S
In351 O359 2.266 . S
In351 O360 2.326 . S
In351 O362 2.294 . S
In351 O363 2.326 . S
O352 In351 2.294 . S
O352 C361 1.240 . S
O353 In351 2.326 . S
O353 C361 1.252 . S
C354 O357 1.252 . S
C354 O358 1.260 . S
C355 O362 1.240 . S
C355 O363 1.252 . S
C356 O359 1.252 . S
C356 O360 1.260 . S
O357 In351 2.266 . S
O357 C354 1.252 . S
O358 In351 2.326 . S
O358 C354 1.260 . S
O359 In351 2.266 . S
O359 C356 1.252 . S
O360 In351 2.326 . S
O360 C356 1.260 . S
C361 O352 1.240 . S
C361 O353 1.252 . S
O362 In351 2.294 . S
O362 C355 1.240 . S
O363 In351 2.326 . S
O363 C355 1.252 . S
In364 O365 2.294 . S
In364 O366 2.326 . S
In364 O370 2.266 . S
In364 O371 2.326 1_565 S
In364 O372 2.266 1_565 S
In364 O373 2.326 1_554 S
In364 O375 2.294 1_565 S
In364 O376 2.326 . S
O365 In364 2.294 . S
O365 C374 1.240 . S
O366 In364 2.326 . S
O366 C374 1.252 . S
C367 O370 1.252 . S
C367 O371 1.260 1_565 S
C368 O375 1.240 1_565 S
C368 O376 1.253 . S
C369 O372 1.252 1_566 S
C369 O373 1.260 . S
O370 In364 2.266 . S
O370 C367 1.252 . S
O371 In364 2.326 1_545 S
O371 C367 1.260 1_545 S
O372 In364 2.266 1_545 S
O372 C369 1.252 1_544 S
O373 In364 2.326 1_556 S
O373 C369 1.260 . S
C374 O365 1.240 . S
C374 O366 1.252 . S
O375 In364 2.294 1_545 S
O375 C368 1.240 1_545 S
O376 In364 2.326 . S
O376 C368 1.253 . S
In377 O378 2.294 . S
In377 O379 2.326 . S
In377 O383 2.266 . S
In377 O384 2.326 . S
In377 O385 2.266 . S
In377 O386 2.326 . S
In377 O388 2.294 . S
In377 O389 2.326 . S
O378 In377 2.294 . S
O378 C387 1.240 . S
O379 In377 2.326 . S
O379 C387 1.252 . S
C380 O383 1.252 . S
C380 O384 1.260 . S
C381 O388 1.240 . S
C381 O389 1.252 . S
C382 O385 1.252 . S
C382 O386 1.260 . S
O383 In377 2.266 . S
O383 C380 1.252 . S
O384 In377 2.326 . S
O384 C380 1.260 . S
O385 In377 2.266 . S
O385 C382 1.252 . S
O386 In377 2.326 . S
O386 C382 1.260 . S
C387 O378 1.240 . S
C387 O379 1.252 . S
O388 In377 2.294 . S
O388 C381 1.240 . S
O389 In377 2.326 . S
O389 C381 1.252 . S
In390 O391 2.294 . S
In390 O392 2.326 . S
In390 O396 2.266 . S
In390 O397 2.326 1_545 S
In390 O398 2.266 1_545 S
In390 O399 2.326 . S
In390 O401 2.294 1_545 S
In390 O402 2.326 . S
O391 In390 2.294 . S
O391 C400 1.240 . S
O392 In390 2.326 . S
O392 C400 1.252 . S
C393 O396 1.252 . S
C393 O397 1.260 1_545 S
C394 O401 1.239 1_545 S
C394 O402 1.253 . S
C395 O398 1.252 1_545 S
C395 O399 1.260 . S
O396 In390 2.266 . S
O396 C393 1.252 . S
O397 In390 2.326 1_565 S
O397 C393 1.260 1_565 S
O398 In390 2.266 1_565 S
O398 C395 1.252 1_565 S
O399 In390 2.326 . S
O399 C395 1.260 . S
C400 O391 1.240 . S
C400 O392 1.252 . S
O401 In390 2.294 1_565 S
O401 C394 1.239 1_565 S
O402 In390 2.326 . S
O402 C394 1.253 . S
In403 O404 2.294 . S
In403 O405 2.326 . S
In403 O409 2.266 . S
In403 O410 2.326 . S
In403 O411 2.266 . S
In403 O412 2.326 . S
In403 O414 2.294 . S
In403 O415 2.326 . S
O404 In403 2.294 . S
O404 C413 1.240 . S
O405 In403 2.326 . S
O405 C413 1.252 . S
C406 O409 1.252 . S
C406 O410 1.260 . S
C407 O414 1.240 . S
C407 O415 1.252 . S
C408 O411 1.252 . S
C408 O412 1.260 . S
O409 In403 2.266 . S
O409 C406 1.252 . S
O410 In403 2.326 . S
O410 C406 1.260 . S
O411 In403 2.266 . S
O411 C408 1.252 . S
O412 In403 2.326 . S
O412 C408 1.260 . S
C413 O404 1.240 . S
C413 O405 1.252 . S
O414 In403 2.294 . S
O414 C407 1.240 . S
O415 In403 2.326 . S
O415 C407 1.252 . S
H416 C422 0.930 . S
H417 C425 0.930 . S
H418 C426 0.930 1_455 S
H419 C427 0.930 . S
H420 C430 0.930 . S
H421 C431 0.930 1_655 S
C422 H416 0.930 . S
C422 C423 1.355 . S
C422 C424 1.415 . S
C423 C422 1.355 . S
C423 C425 1.419 . S
C424 C422 1.415 . S
C424 C429 1.425 1_655 S
C424 C431 1.409 1_655 S
C425 H417 0.930 . S
C425 C423 1.419 . S
C425 C426 1.362 . S
C426 H418 0.930 1_655 S
C426 C425 1.362 . S
C426 C429 1.409 1_655 S
C427 H419 0.930 . S
C427 C428 1.355 . S
C427 C429 1.415 . S
C428 C427 1.355 . S
C428 C430 1.419 . S
C429 C424 1.425 1_455 S
C429 C426 1.409 1_455 S
C429 C427 1.415 . S
C430 H420 0.930 . S
C430 C428 1.419 . S
C430 C431 1.362 . S
C431 H421 0.930 1_455 S
C431 C424 1.409 1_455 S
C431 C430 1.362 . S
H432 C438 0.930 . S
H433 C441 0.930 . S
H434 C442 0.930 . S
H435 C443 0.930 . S
H436 C446 0.930 . S
H437 C447 0.930 . S
C438 H432 0.930 . S
C438 C439 1.355 . S
C438 C440 1.415 . S
C439 C438 1.355 . S
C439 C441 1.419 . S
C440 C438 1.415 . S
C440 C445 1.425 . S
C440 C447 1.409 . S
C441 H433 0.930 . S
C441 C439 1.419 . S
C441 C442 1.362 . S
C442 H434 0.930 . S
C442 C441 1.362 . S
C442 C445 1.409 . S
C443 H435 0.930 . S
C443 C444 1.355 . S
C443 C445 1.415 . S
C444 C443 1.355 . S
C444 C446 1.419 . S
C445 C440 1.425 . S
C445 C442 1.409 . S
C445 C443 1.415 . S
C446 H436 0.930 . S
C446 C444 1.419 . S
C446 C447 1.362 . S
C447 H437 0.930 . S
C447 C440 1.409 . S
C447 C446 1.362 . S
H448 C454 0.930 . S
H449 C457 0.930 . S
H450 C458 0.930 . S
H451 C459 0.930 . S
H452 C462 0.930 . S
H453 C463 0.930 . S
C454 H448 0.930 . S
C454 C455 1.355 . S
C454 C456 1.415 . S
C455 C454 1.355 . S
C455 C457 1.419 . S
C456 C454 1.415 . S
C456 C461 1.425 . S
C456 C463 1.409 . S
C457 H449 0.930 . S
C457 C455 1.419 . S
C457 C458 1.362 . S
C458 H450 0.930 . S
C458 C457 1.362 . S
C458 C461 1.409 . S
C459 H451 0.930 . S
C459 C460 1.355 . S
C459 C461 1.415 . S
C460 C459 1.355 . S
C460 C462 1.419 . S
C461 C456 1.425 . S
C461 C458 1.409 . S
C461 C459 1.415 . S
C462 H452 0.930 . S
C462 C460 1.419 . S
C462 C463 1.362 . S
C463 H453 0.930 . S
C463 C456 1.409 . S
C463 C462 1.362 . S
H464 C470 0.930 . S
H465 C473 0.930 . S
H466 C474 0.930 . S
H467 C475 0.930 . S
H468 C478 0.930 . S
H469 C479 0.930 . S
C470 H464 0.930 . S
C470 C471 1.355 . S
C470 C472 1.415 . S
C471 C470 1.355 . S
C471 C473 1.419 . S
C472 C470 1.415 . S
C472 C477 1.425 . S
C472 C479 1.409 . S
C473 H465 0.930 . S
C473 C471 1.419 . S
C473 C474 1.362 . S
C474 H466 0.930 . S
C474 C473 1.362 . S
C474 C477 1.409 . S
C475 H467 0.930 . S
C475 C476 1.355 . S
C475 C477 1.415 . S
C476 C475 1.355 . S
C476 C478 1.419 . S
C477 C472 1.425 . S
C477 C474 1.409 . S
C477 C475 1.415 . S
C478 H468 0.930 . S
C478 C476 1.419 . S
C478 C479 1.362 . S
C479 H469 0.930 . S
C479 C472 1.409 . S
C479 C478 1.362 . S
H480 C486 0.930 . S
H481 C489 0.930 . S
H482 C490 0.930 . S
H483 C491 0.930 . S
H484 C494 0.930 . S
H485 C495 0.930 . S
C486 H480 0.930 . S
C486 C487 1.355 . S
C486 C488 1.415 . S
C487 C486 1.355 . S
C487 C489 1.419 . S
C488 C486 1.415 . S
C488 C493 1.425 1_455 S
C488 C495 1.409 1_455 S
C489 H481 0.930 . S
C489 C487 1.419 . S
C489 C490 1.362 . S
C490 H482 0.930 . S
C490 C489 1.362 . S
C490 C493 1.409 1_455 S
C491 H483 0.930 . S
C491 C492 1.355 . S
C491 C493 1.415 . S
C492 C491 1.355 . S
C492 C494 1.419 . S
C493 C488 1.425 1_655 S
C493 C490 1.409 1_655 S
C493 C491 1.415 . S
C494 H484 0.930 . S
C494 C492 1.419 . S
C494 C495 1.362 . S
C495 H485 0.930 . S
C495 C488 1.409 1_655 S
C495 C494 1.362 . S
H496 C502 0.930 . S
H497 C505 0.930 . S
H498 C506 0.930 . S
H499 C507 0.930 . S
H500 C510 0.930 . S
H501 C511 0.930 . S
C502 H496 0.930 . S
C502 C503 1.355 . S
C502 C504 1.415 . S
C503 C502 1.355 . S
C503 C505 1.419 . S
C504 C502 1.415 . S
C504 C509 1.425 . S
C504 C511 1.409 . S
C505 H497 0.930 . S
C505 C503 1.419 . S
C505 C506 1.362 . S
C506 H498 0.930 . S
C506 C505 1.362 . S
C506 C509 1.409 . S
C507 H499 0.930 . S
C507 C508 1.355 . S
C507 C509 1.415 . S
C508 C507 1.355 . S
C508 C510 1.419 . S
C509 C504 1.425 . S
C509 C506 1.409 . S
C509 C507 1.415 . S
C510 H500 0.930 . S
C510 C508 1.419 . S
C510 C511 1.362 . S
C511 H501 0.930 . S
C511 C504 1.409 . S
C511 C510 1.362 . S
H512 C518 0.930 . S
H513 C521 0.930 . S
H514 C522 0.930 . S
H515 C523 0.930 . S
H516 C526 0.930 . S
H517 C527 0.930 . S
C518 H512 0.930 . S
C518 C519 1.355 . S
C518 C520 1.415 . S
C519 C518 1.355 . S
C519 C521 1.419 . S
C520 C518 1.415 . S
C520 C525 1.425 . S
C520 C527 1.409 . S
C521 H513 0.930 . S
C521 C519 1.419 . S
C521 C522 1.362 . S
C522 H514 0.930 . S
C522 C521 1.362 . S
C522 C525 1.409 . S
C523 H515 0.930 . S
C523 C524 1.355 . S
C523 C525 1.415 . S
C524 C523 1.355 . S
C524 C526 1.419 . S
C525 C520 1.425 . S
C525 C522 1.409 . S
C525 C523 1.415 . S
C526 H516 0.930 . S
C526 C524 1.419 . S
C526 C527 1.362 . S
C527 H517 0.930 . S
C527 C520 1.409 . S
C527 C526 1.362 . S
H528 C534 0.930 . S
H529 C537 0.930 . S
H530 C538 0.930 . S
H531 C539 0.930 . S
H532 C542 0.930 . S
H533 C543 0.930 . S
C534 H528 0.930 . S
C534 C535 1.355 . S
C534 C536 1.415 . S
C535 C534 1.355 . S
C535 C537 1.419 . S
C536 C534 1.415 . S
C536 C541 1.425 . S
C536 C543 1.409 . S
C537 H529 0.930 . S
C537 C535 1.419 . S
C537 C538 1.362 . S
C538 H530 0.930 . S
C538 C537 1.362 . S
C538 C541 1.409 . S
C539 H531 0.930 . S
C539 C540 1.355 . S
C539 C541 1.415 . S
C540 C539 1.355 . S
C540 C542 1.419 . S
C541 C536 1.425 . S
C541 C538 1.409 . S
C541 C539 1.415 . S
C542 H532 0.930 . S
C542 C540 1.419 . S
C542 C543 1.362 . S
C543 H533 0.930 . S
C543 C536 1.409 . S
C543 C542 1.362 . S
H544 C550 0.930 . S
H545 C553 0.930 . S
H546 C554 0.930 . S
H547 C555 0.930 . S
H548 C558 0.930 . S
H549 C559 0.930 . S
C550 H544 0.930 . S
C550 C551 1.355 . S
C550 C552 1.415 . S
C551 C550 1.355 . S
C551 C553 1.419 . S
C552 C550 1.415 . S
C552 C557 1.425 . S
C552 C559 1.409 . S
C553 H545 0.930 . S
C553 C551 1.419 . S
C553 C554 1.362 . S
C554 H546 0.930 . S
C554 C553 1.362 . S
C554 C557 1.409 . S
C555 H547 0.930 . S
C555 C556 1.355 . S
C555 C557 1.415 . S
C556 C555 1.355 . S
C556 C558 1.419 . S
C557 C552 1.425 . S
C557 C554 1.409 . S
C557 C555 1.415 . S
C558 H548 0.930 . S
C558 C556 1.419 . S
C558 C559 1.362 . S
C559 H549 0.930 . S
C559 C552 1.409 . S
C559 C558 1.362 . S
H560 C566 0.930 . S
H561 C569 0.930 . S
H562 C570 0.930 . S
H563 C571 0.930 . S
H564 C574 0.930 . S
H565 C575 0.930 . S
C566 H560 0.930 . S
C566 C567 1.355 . S
C566 C568 1.415 . S
C567 C566 1.355 . S
C567 C569 1.419 . S
C568 C566 1.415 . S
C568 C573 1.425 . S
C568 C575 1.409 . S
C569 H561 0.930 . S
C569 C567 1.419 . S
C569 C570 1.362 . S
C570 H562 0.930 . S
C570 C569 1.362 . S
C570 C573 1.409 . S
C571 H563 0.930 . S
C571 C572 1.355 . S
C571 C573 1.415 . S
C572 C571 1.355 . S
C572 C574 1.419 . S
C573 C568 1.425 . S
C573 C570 1.409 . S
C573 C571 1.415 . S
C574 H564 0.930 . S
C574 C572 1.419 . S
C574 C575 1.362 . S
C575 H565 0.930 . S
C575 C568 1.409 . S
C575 C574 1.362 . S
H576 C582 0.930 . S
H577 C585 0.930 . S
H578 C586 0.930 . S
H579 C587 0.930 . S
H580 C590 0.930 . S
H581 C591 0.930 . S
C582 H576 0.930 . S
C582 C583 1.355 . S
C582 C584 1.415 . S
C583 C582 1.355 . S
C583 C585 1.419 . S
C584 C582 1.415 . S
C584 C589 1.425 . S
C584 C591 1.409 . S
C585 H577 0.930 . S
C585 C583 1.419 . S
C585 C586 1.362 . S
C586 H578 0.930 . S
C586 C585 1.362 . S
C586 C589 1.409 . S
C587 H579 0.930 . S
C587 C588 1.355 . S
C587 C589 1.415 . S
C588 C587 1.355 . S
C588 C590 1.419 . S
C589 C584 1.425 . S
C589 C586 1.409 . S
C589 C587 1.415 . S
C590 H580 0.930 . S
C590 C588 1.419 . S
C590 C591 1.362 . S
C591 H581 0.930 . S
C591 C584 1.409 . S
C591 C590 1.362 . S
H592 C598 0.930 . S
H593 C601 0.930 . S
H594 C602 0.930 . S
H595 C603 0.930 . S
H596 C606 0.930 . S
H597 C607 0.930 . S
C598 H592 0.930 . S
C598 C599 1.355 . S
C598 C600 1.415 . S
C599 C598 1.355 . S
C599 C601 1.419 . S
C600 C598 1.415 . S
C600 C605 1.425 . S
C600 C607 1.409 . S
C601 H593 0.930 . S
C601 C599 1.419 . S
C601 C602 1.362 . S
C602 H594 0.930 . S
C602 C601 1.362 . S
C602 C605 1.409 . S
C603 H595 0.930 . S
C603 C604 1.355 . S
C603 C605 1.415 . S
C604 C603 1.355 . S
C604 C606 1.419 . S
C605 C600 1.425 . S
C605 C602 1.409 . S
C605 C603 1.415 . S
C606 H596 0.930 . S
C606 C604 1.419 . S
C606 C607 1.362 . S
C607 H597 0.930 . S
C607 C600 1.409 . S
C607 C606 1.362 . S
H608 C614 0.930 . S
H609 C617 0.930 . S
H610 C618 0.930 . S
H611 C619 0.930 . S
H612 C622 0.930 . S
H613 C623 0.930 . S
C614 H608 0.930 . S
C614 C615 1.355 . S
C614 C616 1.415 . S
C615 C614 1.355 . S
C615 C617 1.419 1_545 S
C616 C614 1.415 . S
C616 C621 1.425 1_545 S
C616 C623 1.409 . S
C617 H609 0.930 . S
C617 C615 1.419 1_565 S
C617 C618 1.362 . S
C618 H610 0.930 . S
C618 C617 1.362 . S
C618 C621 1.409 . S
C619 H611 0.930 . S
C619 C620 1.355 . S
C619 C621 1.415 . S
C620 C619 1.355 . S
C620 C622 1.419 1_565 S
C621 C616 1.425 1_565 S
C621 C618 1.409 . S
C621 C619 1.415 . S
C622 H612 0.930 . S
C622 C620 1.419 1_545 S
C622 C623 1.362 . S
C623 H613 0.930 . S
C623 C616 1.409 . S
C623 C622 1.362 . S
H624 C630 0.930 . S
H625 C633 0.930 . S
H626 C634 0.930 . S
H627 C635 0.930 . S
H628 C638 0.930 . S
H629 C639 0.930 1_556 S
C630 H624 0.930 . S
C630 C631 1.355 . S
C630 C632 1.415 . S
C631 C630 1.355 . S
C631 C633 1.419 1_545 S
C632 C630 1.415 . S
C632 C637 1.425 1_645 S
C632 C639 1.409 1_655 S
C633 H625 0.930 . S
C633 C631 1.419 1_565 S
C633 C634 1.362 . S
C634 H626 0.930 . S
C634 C633 1.362 . S
C634 C637 1.409 1_655 S
C635 H627 0.930 . S
C635 C636 1.355 . S
C635 C637 1.415 . S
C636 C635 1.355 . S
C636 C638 1.419 1_565 S
C637 C632 1.425 1_465 S
C637 C634 1.409 1_455 S
C637 C635 1.415 . S
C638 H628 0.930 . S
C638 C636 1.419 1_545 S
C638 C639 1.362 . S
C639 H629 0.930 1_554 S
C639 C632 1.409 1_455 S
C639 C638 1.362 . S
H640 C646 0.930 . S
H641 C649 0.930 . S
H642 C650 0.930 . S
H643 C651 0.930 . S
H644 C654 0.930 . S
H645 C655 0.930 . S
C646 H640 0.930 . S
C646 C647 1.355 1_565 S
C646 C648 1.415 . S
C647 C646 1.355 1_545 S
C647 C649 1.419 . S
C648 C646 1.415 . S
C648 C653 1.425 1_565 S
C648 C655 1.409 . S
C649 H641 0.930 . S
C649 C647 1.419 . S
C649 C650 1.362 . S
C650 H642 0.930 . S
C650 C649 1.362 . S
C650 C653 1.409 . S
C651 H643 0.930 . S
C651 C652 1.355 1_545 S
C651 C653 1.415 . S
C652 C651 1.355 1_565 S
C652 C654 1.419 . S
C653 C648 1.425 1_545 S
C653 C650 1.409 . S
C653 C651 1.415 . S
C654 H644 0.930 . S
C654 C652 1.419 . S
C654 C655 1.362 . S
C655 H645 0.930 . S
C655 C648 1.409 . S
C655 C654 1.362 . S
H656 C662 0.930 1_565 S
H657 C665 0.930 . S
H658 C666 0.930 . S
H659 C667 0.930 1_545 S
H660 C670 0.930 . S
H661 C671 0.930 . S
C662 H656 0.930 1_545 S
C662 C663 1.355 . S
C662 C664 1.415 1_545 S
C663 C662 1.355 . S
C663 C665 1.419 . S
C664 C662 1.415 1_565 S
C664 C669 1.425 1_465 S
C664 C671 1.409 1_455 S
C665 H657 0.930 . S
C665 C663 1.419 . S
C665 C666 1.362 . S
C666 H658 0.930 . S
C666 C665 1.362 . S
C666 C669 1.409 1_455 S
C667 H659 0.930 1_565 S
C667 C668 1.355 . S
C667 C669 1.415 1_565 S
C668 C667 1.355 . S
C668 C670 1.419 . S
C669 C664 1.425 1_645 S
C669 C666 1.409 1_655 S
C669 C667 1.415 1_545 S
C670 H660 0.930 . S
C670 C668 1.419 . S
C670 C671 1.362 . S
C671 H661 0.930 . S
C671 C664 1.409 1_655 S
C671 C670 1.362 . S
H672 C678 0.930 . S
H673 C681 0.930 . S
H674 C682 0.930 . S
H675 C683 0.930 . S
H676 C686 0.930 . S
H677 C687 0.930 . S
C678 H672 0.930 . S
C678 C679 1.355 . S
C678 C680 1.415 . S
C679 C678 1.355 . S
C679 C681 1.419 . S
C680 C678 1.415 . S
C680 C685 1.425 . S
C680 C687 1.409 . S
C681 H673 0.930 . S
C681 C679 1.419 . S
C681 C682 1.362 . S
C682 H674 0.930 . S
C682 C681 1.362 . S
C682 C685 1.409 . S
C683 H675 0.930 . S
C683 C684 1.355 . S
C683 C685 1.415 . S
C684 C683 1.355 . S
C684 C686 1.419 . S
C685 C680 1.425 . S
C685 C682 1.409 . S
C685 C683 1.415 . S
C686 H676 0.930 . S
C686 C684 1.419 . S
C686 C687 1.362 . S
C687 H677 0.930 . S
C687 C680 1.409 . S
C687 C686 1.362 . S
H688 C694 0.930 . S
H689 C697 0.930 . S
H690 C698 0.930 . S
H691 C699 0.930 . S
H692 C702 0.930 . S
H693 C703 0.930 . S
C694 H688 0.930 . S
C694 C695 1.355 . S
C694 C696 1.415 1_556 S
C695 C694 1.355 . S
C695 C697 1.419 . S
C696 C694 1.415 1_554 S
C696 C701 1.425 . S
C696 C703 1.409 . S
C697 H689 0.930 . S
C697 C695 1.419 . S
C697 C698 1.362 1_556 S
C698 H690 0.930 . S
C698 C697 1.362 1_554 S
C698 C701 1.409 . S
C699 H691 0.930 . S
C699 C700 1.355 . S
C699 C701 1.415 . S
C700 C699 1.355 . S
C700 C702 1.419 . S
C701 C696 1.425 . S
C701 C698 1.409 . S
C701 C699 1.415 . S
C702 H692 0.930 . S
C702 C700 1.419 . S
C702 C703 1.362 . S
C703 H693 0.930 . S
C703 C696 1.409 . S
C703 C702 1.362 . S
H704 C710 0.930 . S
H705 C713 0.930 . S
H706 C714 0.930 . S
H707 C715 0.930 . S
H708 C718 0.930 . S
H709 C719 0.930 . S
C710 H704 0.930 . S
C710 C711 1.355 . S
C710 C712 1.415 . S
C711 C710 1.355 . S
C711 C713 1.419 . S
C712 C710 1.415 . S
C712 C717 1.425 . S
C712 C719 1.409 . S
C713 H705 0.930 . S
C713 C711 1.419 . S
C713 C714 1.362 . S
C714 H706 0.930 . S
C714 C713 1.362 . S
C714 C717 1.409 . S
C715 H707 0.930 . S
C715 C716 1.355 . S
C715 C717 1.415 . S
C716 C715 1.355 . S
C716 C718 1.419 . S
C717 C712 1.425 . S
C717 C714 1.409 . S
C717 C715 1.415 . S
C718 H708 0.930 . S
C718 C716 1.419 . S
C718 C719 1.362 . S
C719 H709 0.930 . S
C719 C712 1.409 . S
C719 C718 1.362 . S
H720 C726 0.930 . S
H721 C729 0.930 . S
H722 C730 0.930 . S
H723 C731 0.930 . S
H724 C734 0.930 . S
H725 C735 0.930 . S
C726 H720 0.930 . S
C726 C727 1.355 . S
C726 C728 1.415 . S
C727 C726 1.355 . S
C727 C729 1.419 . S
C728 C726 1.415 . S
C728 C733 1.425 . S
C728 C735 1.409 . S
C729 H721 0.930 . S
C729 C727 1.419 . S
C729 C730 1.362 . S
C730 H722 0.930 . S
C730 C729 1.362 . S
C730 C733 1.409 . S
C731 H723 0.930 . S
C731 C732 1.355 . S
C731 C733 1.415 . S
C732 C731 1.355 . S
C732 C734 1.419 . S
C733 C728 1.425 . S
C733 C730 1.409 . S
C733 C731 1.415 . S
C734 H724 0.930 . S
C734 C732 1.419 . S
C734 C735 1.362 . S
C735 H725 0.930 . S
C735 C728 1.409 . S
C735 C734 1.362 . S
H736 C742 0.930 . S
H737 C745 0.930 . S
H738 C746 0.930 . S
H739 C747 0.930 . S
H740 C750 0.930 . S
H741 C751 0.930 . S
C742 H736 0.930 . S
C742 C743 1.355 . S
C742 C744 1.415 . S
C743 C742 1.355 . S
C743 C745 1.419 . S
C744 C742 1.415 . S
C744 C749 1.425 . S
C744 C751 1.409 . S
C745 H737 0.930 . S
C745 C743 1.419 . S
C745 C746 1.362 . S
C746 H738 0.930 . S
C746 C745 1.362 . S
C746 C749 1.409 . S
C747 H739 0.930 . S
C747 C748 1.355 . S
C747 C749 1.415 . S
C748 C747 1.355 . S
C748 C750 1.419 . S
C749 C744 1.425 . S
C749 C746 1.409 . S
C749 C747 1.415 . S
C750 H740 0.930 . S
C750 C748 1.419 . S
C750 C751 1.362 . S
C751 H741 0.930 . S
C751 C744 1.409 . S
C751 C750 1.362 . S
H752 C758 0.930 . S
H753 C761 0.930 . S
H754 C762 0.930 . S
H755 C763 0.930 . S
H756 C766 0.930 . S
H757 C767 0.930 . S
C758 H752 0.930 . S
C758 C759 1.355 . S
C758 C760 1.415 1_556 S
C759 C758 1.355 . S
C759 C761 1.419 . S
C760 C758 1.415 1_554 S
C760 C765 1.425 . S
C760 C767 1.409 . S
C761 H753 0.930 . S
C761 C759 1.419 . S
C761 C762 1.362 1_556 S
C762 H754 0.930 . S
C762 C761 1.362 1_554 S
C762 C765 1.409 . S
C763 H755 0.930 . S
C763 C764 1.355 . S
C763 C765 1.415 . S
C764 C763 1.355 . S
C764 C766 1.419 . S
C765 C760 1.425 . S
C765 C762 1.409 . S
C765 C763 1.415 . S
C766 H756 0.930 . S
C766 C764 1.419 . S
C766 C767 1.362 . S
C767 H757 0.930 . S
C767 C760 1.409 . S
C767 C766 1.362 . S
H768 C774 0.930 . S
H769 C777 0.930 . S
H770 C778 0.930 . S
H771 C779 0.930 . S
H772 C782 0.930 . S
H773 C783 0.930 . S
C774 H768 0.930 . S
C774 C775 1.355 . S
C774 C776 1.415 . S
C775 C774 1.355 . S
C775 C777 1.419 . S
C776 C774 1.415 . S
C776 C781 1.425 . S
C776 C783 1.409 . S
C777 H769 0.930 . S
C777 C775 1.419 . S
C777 C778 1.362 . S
C778 H770 0.930 . S
C778 C777 1.362 . S
C778 C781 1.409 . S
C779 H771 0.930 . S
C779 C780 1.355 . S
C779 C781 1.415 . S
C780 C779 1.355 . S
C780 C782 1.419 . S
C781 C776 1.425 . S
C781 C778 1.409 . S
C781 C779 1.415 . S
C782 H772 0.930 . S
C782 C780 1.419 . S
C782 C783 1.362 . S
C783 H773 0.930 . S
C783 C776 1.409 . S
C783 C782 1.362 . S
H784 C790 0.930 . S
H785 C793 0.930 . S
H786 C794 0.930 . S
H787 C795 0.930 . S
H788 C798 0.930 . S
H789 C799 0.930 . S
C790 H784 0.930 . S
C790 C791 1.355 . S
C790 C792 1.415 . S
C791 C790 1.355 . S
C791 C793 1.419 . S
C792 C790 1.415 . S
C792 C797 1.425 . S
C792 C799 1.409 . S
C793 H785 0.930 . S
C793 C791 1.419 . S
C793 C794 1.362 . S
C794 H786 0.930 . S
C794 C793 1.362 . S
C794 C797 1.409 . S
C795 H787 0.930 . S
C795 C796 1.355 . S
C795 C797 1.415 . S
C796 C795 1.355 . S
C796 C798 1.419 . S
C797 C792 1.425 . S
C797 C794 1.409 . S
C797 C795 1.415 . S
C798 H788 0.930 . S
C798 C796 1.419 . S
C798 C799 1.362 . S
C799 H789 0.930 . S
C799 C792 1.409 . S
C799 C798 1.362 . S
H800 C806 0.930 . S
H801 C809 0.930 . S
H802 C810 0.930 . S
H803 C811 0.930 . S
H804 C814 0.930 . S
H805 C815 0.930 . S
C806 H800 0.930 . S
C806 C807 1.323 1_545 S
C806 C808 1.415 . S
C807 C806 1.323 1_565 S
C807 C809 1.460 . S
C808 C806 1.415 . S
C808 C813 1.425 1_545 S
C808 C815 1.409 . S
C809 H801 0.930 . S
C809 C807 1.460 . S
C809 C810 1.362 . S
C810 H802 0.930 . S
C810 C809 1.362 . S
C810 C813 1.409 . S
C811 H803 0.930 . S
C811 C812 1.323 1_565 S
C811 C813 1.415 . S
C812 C811 1.323 1_545 S
C812 C814 1.461 . S
C813 C808 1.425 1_565 S
C813 C810 1.409 . S
C813 C811 1.415 . S
C814 H804 0.930 . S
C814 C812 1.461 . S
C814 C815 1.362 . S
C815 H805 0.930 . S
C815 C808 1.409 . S
C815 C814 1.362 . S
H816 C822 0.930 . S
H817 C825 0.930 . S
H818 C826 0.930 . S
H819 C827 0.930 . S
H820 C830 0.930 . S
H821 C831 0.930 . S
C822 H816 0.930 . S
C822 C823 1.355 . S
C822 C824 1.415 . S
C823 C822 1.355 . S
C823 C825 1.419 . S
C824 C822 1.415 . S
C824 C829 1.425 . S
C824 C831 1.409 . S
C825 H817 0.930 . S
C825 C823 1.419 . S
C825 C826 1.362 . S
C826 H818 0.930 . S
C826 C825 1.362 . S
C826 C829 1.409 . S
C827 H819 0.930 . S
C827 C828 1.355 . S
C827 C829 1.415 . S
C828 C827 1.355 . S
C828 C830 1.419 . S
C829 C824 1.425 . S
C829 C826 1.409 . S
C829 C827 1.415 . S
C830 H820 0.930 . S
C830 C828 1.419 . S
C830 C831 1.362 . S
C831 H821 0.930 . S
C831 C824 1.409 . S
C831 C830 1.362 . S
H832 C838 0.930 . S
H833 C841 0.930 . S
H834 C842 0.930 . S
H835 C843 0.930 . S
H836 C846 0.930 . S
H837 C847 0.930 . S
C838 H832 0.930 . S
C838 C839 1.355 1_565 S
C838 C840 1.415 . S
C839 C838 1.355 1_545 S
C839 C841 1.419 . S
C840 C838 1.415 . S
C840 C845 1.425 1_565 S
C840 C847 1.409 . S
C841 H833 0.930 . S
C841 C839 1.419 . S
C841 C842 1.362 . S
C842 H834 0.930 . S
C842 C841 1.362 . S
C842 C845 1.409 . S
C843 H835 0.930 . S
C843 C844 1.355 1_545 S
C843 C845 1.415 . S
C844 C843 1.355 1_565 S
C844 C846 1.419 . S
C845 C840 1.425 1_545 S
C845 C842 1.409 . S
C845 C843 1.415 . S
C846 H836 0.930 . S
C846 C844 1.419 . S
C846 C847 1.362 . S
C847 H837 0.930 . S
C847 C840 1.409 . S
C847 C846 1.362 . S
H848 C854 0.930 . S
H849 C857 0.930 . S
H850 C858 0.930 . S
H851 C859 0.930 . S
H852 C862 0.930 . S
H853 C863 0.930 . S
C854 H848 0.930 . S
C854 C855 1.355 . S
C854 C856 1.415 1_556 S
C855 C854 1.355 . S
C855 C857 1.419 . S
C856 C854 1.415 1_554 S
C856 C861 1.425 . S
C856 C863 1.409 . S
C857 H849 0.930 . S
C857 C855 1.419 . S
C857 C858 1.362 1_556 S
C858 H850 0.930 . S
C858 C857 1.362 1_554 S
C858 C861 1.409 . S
C859 H851 0.930 . S
C859 C860 1.355 . S
C859 C861 1.415 . S
C860 C859 1.355 . S
C860 C862 1.419 . S
C861 C856 1.425 . S
C861 C858 1.409 . S
C861 C859 1.415 . S
C862 H852 0.930 . S
C862 C860 1.419 . S
C862 C863 1.362 . S
C863 H853 0.930 . S
C863 C856 1.409 . S
C863 C862 1.362 . S
H864 C870 0.930 . S
H865 C873 0.930 . S
H866 C874 0.930 . S
H867 C875 0.930 . S
H868 C878 0.930 . S
H869 C879 0.930 . S
C870 H864 0.930 . S
C870 C871 1.336 1_565 S
C870 C872 1.415 . S
C871 C870 1.336 1_545 S
C871 C873 1.444 . S
C872 C870 1.415 . S
C872 C877 1.425 1_565 S
C872 C879 1.409 . S
C873 H865 0.930 . S
C873 C871 1.444 . S
C873 C874 1.362 . S
C874 H866 0.930 . S
C874 C873 1.362 . S
C874 C877 1.409 . S
C875 H867 0.930 . S
C875 C876 1.337 1_545 S
C875 C877 1.415 . S
C876 C875 1.337 1_565 S
C876 C878 1.443 . S
C877 C872 1.425 1_545 S
C877 C874 1.409 . S
C877 C875 1.415 . S
C878 H868 0.930 . S
C878 C876 1.443 . S
C878 C879 1.362 . S
C879 H869 0.930 . S
C879 C872 1.409 . S
C879 C878 1.362 . S
H880 C886 0.930 . S
H881 C889 0.930 . S
H882 C890 0.930 . S
H883 C891 0.930 . S
H884 C894 0.930 . S
H885 C895 0.930 . S
C886 H880 0.930 . S
C886 C887 1.355 . S
C886 C888 1.415 . S
C887 C886 1.355 . S
C887 C889 1.419 . S
C888 C886 1.415 . S
C888 C893 1.425 . S
C888 C895 1.409 . S
C889 H881 0.930 . S
C889 C887 1.419 . S
C889 C890 1.362 . S
C890 H882 0.930 . S
C890 C889 1.362 . S
C890 C893 1.409 . S
C891 H883 0.930 . S
C891 C892 1.355 . S
C891 C893 1.415 . S
C892 C891 1.355 . S
C892 C894 1.419 . S
C893 C888 1.425 . S
C893 C890 1.409 . S
C893 C891 1.415 . S
C894 H884 0.930 . S
C894 C892 1.419 . S
C894 C895 1.362 . S
C895 H885 0.930 . S
C895 C888 1.409 . S
C895 C894 1.362 . S
H896 C902 0.930 . S
H897 C905 0.930 . S
H898 C906 0.930 . S
H899 C907 0.930 . S
H900 C910 0.930 . S
H901 C911 0.930 . S
C902 H896 0.930 . S
C902 C903 1.355 . S
C902 C904 1.415 . S
C903 C902 1.355 . S
C903 C905 1.419 1_545 S
C904 C902 1.415 . S
C904 C909 1.425 1_545 S
C904 C911 1.409 . S
C905 H897 0.930 . S
C905 C903 1.419 1_565 S
C905 C906 1.362 . S
C906 H898 0.930 . S
C906 C905 1.362 . S
C906 C909 1.409 . S
C907 H899 0.930 . S
C907 C908 1.355 . S
C907 C909 1.415 . S
C908 C907 1.355 . S
C908 C910 1.419 1_565 S
C909 C904 1.425 1_565 S
C909 C906 1.409 . S
C909 C907 1.415 . S
C910 H900 0.930 . S
C910 C908 1.419 1_545 S
C910 C911 1.362 . S
C911 H901 0.930 . S
C911 C904 1.409 . S
C911 C910 1.362 . S
H912 C918 0.930 . S
H913 C921 0.930 . S
H914 C922 0.930 . S
H915 C923 0.930 . S
H916 C926 0.930 . S
H917 C927 0.930 . S
C918 H912 0.930 . S
C918 C919 1.355 . S
C918 C920 1.415 . S
C919 C918 1.355 . S
C919 C921 1.419 . S
C920 C918 1.415 . S
C920 C925 1.425 . S
C920 C927 1.409 . S
C921 H913 0.930 . S
C921 C919 1.419 . S
C921 C922 1.362 . S
C922 H914 0.930 . S
C922 C921 1.362 . S
C922 C925 1.409 . S
C923 H915 0.930 . S
C923 C924 1.355 . S
C923 C925 1.415 1_556 S
C924 C923 1.355 . S
C924 C926 1.419 . S
C925 C920 1.425 . S
C925 C922 1.409 . S
C925 C923 1.415 1_554 S
C926 H916 0.930 . S
C926 C924 1.419 . S
C926 C927 1.362 1_556 S
C927 H917 0.930 . S
C927 C920 1.409 . S
C927 C926 1.362 1_554 S
H928 C934 0.930 . S
H929 C937 0.930 . S
H930 C938 0.930 . S
H931 C939 0.930 . S
H932 C942 0.930 . S
H933 C943 0.930 . S
C934 H928 0.930 . S
C934 C935 1.355 . S
C934 C936 1.415 . S
C935 C934 1.355 . S
C935 C937 1.419 . S
C936 C934 1.415 . S
C936 C941 1.425 . S
C936 C943 1.409 . S
C937 H929 0.930 . S
C937 C935 1.419 . S
C937 C938 1.362 . S
C938 H930 0.930 . S
C938 C937 1.362 . S
C938 C941 1.409 . S
C939 H931 0.930 . S
C939 C940 1.355 . S
C939 C941 1.415 . S
C940 C939 1.355 . S
C940 C942 1.419 . S
C941 C936 1.425 . S
C941 C938 1.409 . S
C941 C939 1.415 . S
C942 H932 0.930 . S
C942 C940 1.419 . S
C942 C943 1.362 . S
C943 H933 0.930 . S
C943 C936 1.409 . S
C943 C942 1.362 . S
H944 C950 0.930 . S
H945 C953 0.930 . S
H946 C954 0.930 . S
H947 C955 0.930 . S
H948 C958 0.930 . S
H949 C959 0.930 . S
C950 H944 0.930 . S
C950 C951 1.355 . S
C950 C952 1.415 . S
C951 C950 1.355 . S
C951 C953 1.419 . S
C952 C950 1.415 . S
C952 C957 1.425 . S
C952 C959 1.409 . S
C953 H945 0.930 . S
C953 C951 1.419 . S
C953 C954 1.362 . S
C954 H946 0.930 . S
C954 C953 1.362 . S
C954 C957 1.409 . S
C955 H947 0.930 . S
C955 C956 1.355 . S
C955 C957 1.415 . S
C956 C955 1.355 . S
C956 C958 1.419 . S
C957 C952 1.425 . S
C957 C954 1.409 . S
C957 C955 1.415 . S
C958 H948 0.930 . S
C958 C956 1.419 . S
C958 C959 1.362 . S
C959 H949 0.930 . S
C959 C952 1.409 . S
C959 C958 1.362 . S
H960 C966 0.930 . S
H961 C969 0.930 . S
H962 C970 0.930 . S
H963 C971 0.930 . S
H964 C974 0.930 . S
H965 C975 0.930 . S
C966 H960 0.930 . S
C966 C967 1.355 . S
C966 C968 1.415 . S
C967 C966 1.355 . S
C967 C969 1.419 . S
C968 C966 1.415 . S
C968 C973 1.425 . S
C968 C975 1.409 . S
C969 H961 0.930 . S
C969 C967 1.419 . S
C969 C970 1.362 . S
C970 H962 0.930 . S
C970 C969 1.362 . S
C970 C973 1.409 . S
C971 H963 0.930 . S
C971 C972 1.355 . S
C971 C973 1.415 . S
C972 C971 1.355 . S
C972 C974 1.419 . S
C973 C968 1.425 . S
C973 C970 1.409 . S
C973 C971 1.415 . S
C974 H964 0.930 . S
C974 C972 1.419 . S
C974 C975 1.362 . S
C975 H965 0.930 . S
C975 C968 1.409 . S
C975 C974 1.362 . S
H976 C982 0.930 . S
H977 C985 0.930 . S
H978 C986 0.930 . S
H979 C987 0.930 . S
H980 C990 0.930 . S
H981 C991 0.930 . S
C982 H976 0.930 . S
C982 C983 1.355 . S
C982 C984 1.415 . S
C983 C982 1.355 . S
C983 C985 1.419 . S
C984 C982 1.415 . S
C984 C989 1.425 . S
C984 C991 1.409 . S
C985 H977 0.930 . S
C985 C983 1.419 . S
C985 C986 1.362 . S
C986 H978 0.930 . S
C986 C985 1.362 . S
C986 C989 1.409 . S
C987 H979 0.930 . S
C987 C988 1.355 . S
C987 C989 1.415 1_556 S
C988 C987 1.355 . S
C988 C990 1.419 . S
C989 C984 1.425 . S
C989 C986 1.409 . S
C989 C987 1.415 1_554 S
C990 H980 0.930 . S
C990 C988 1.419 . S
C990 C991 1.362 1_556 S
C991 H981 0.930 . S
C991 C984 1.409 . S
C991 C990 1.362 1_554 S
H992 C998 0.930 . S
H993 C1001 0.930 . S
H994 C1002 0.930 . S
H995 C1003 0.930 . S
H996 C1006 0.930 . S
H997 C1007 0.930 . S
C998 H992 0.930 . S
C998 C999 1.355 . S
C998 C1000 1.415 . S
C999 C998 1.355 . S
C999 C1001 1.419 . S
C1000 C998 1.415 . S
C1000 C1005 1.425 . S
C1000 C1007 1.409 . S
C1001 H993 0.930 . S
C1001 C999 1.419 . S
C1001 C1002 1.362 . S
C1002 H994 0.930 . S
C1002 C1001 1.362 . S
C1002 C1005 1.409 . S
C1003 H995 0.930 . S
C1003 C1004 1.355 . S
C1003 C1005 1.415 . S
C1004 C1003 1.355 . S
C1004 C1006 1.419 . S
C1005 C1000 1.425 . S
C1005 C1002 1.409 . S
C1005 C1003 1.415 . S
C1006 H996 0.930 . S
C1006 C1004 1.419 . S
C1006 C1007 1.362 . S
C1007 H997 0.930 . S
C1007 C1000 1.409 . S
C1007 C1006 1.362 . S
H1008 C1014 0.930 . S
H1009 C1017 0.930 . S
H1010 C1018 0.930 . S
H1011 C1019 0.930 . S
H1012 C1022 0.930 . S
H1013 C1023 0.930 . S
C1014 H1008 0.930 . S
C1014 C1015 1.355 . S
C1014 C1016 1.415 . S
C1015 C1014 1.355 . S
C1015 C1017 1.419 . S
C1016 C1014 1.415 . S
C1016 C1021 1.425 . S
C1016 C1023 1.409 . S
C1017 H1009 0.930 . S
C1017 C1015 1.419 . S
C1017 C1018 1.362 . S
C1018 H1010 0.930 . S
C1018 C1017 1.362 . S
C1018 C1021 1.409 . S
C1019 H1011 0.930 . S
C1019 C1020 1.355 . S
C1019 C1021 1.415 . S
C1020 C1019 1.355 . S
C1020 C1022 1.419 . S
C1021 C1016 1.425 . S
C1021 C1018 1.409 . S
C1021 C1019 1.415 . S
C1022 H1012 0.930 . S
C1022 C1020 1.419 . S
C1022 C1023 1.362 . S
C1023 H1013 0.930 . S
C1023 C1016 1.409 . S
C1023 C1022 1.362 . S
H1024 C1030 0.930 . S
H1025 C1033 0.930 . S
H1026 C1034 0.930 . S
H1027 C1035 0.930 . S
H1028 C1038 0.930 . S
H1029 C1039 0.930 . S
C1030 H1024 0.930 . S
C1030 C1031 1.355 . S
C1030 C1032 1.415 . S
C1031 C1030 1.355 . S
C1031 C1033 1.419 . S
C1032 C1030 1.415 . S
C1032 C1037 1.425 . S
C1032 C1039 1.409 . S
C1033 H1025 0.930 . S
C1033 C1031 1.419 . S
C1033 C1034 1.362 . S
C1034 H1026 0.930 . S
C1034 C1033 1.362 . S
C1034 C1037 1.409 . S
C1035 H1027 0.930 . S
C1035 C1036 1.355 . S
C1035 C1037 1.415 . S
C1036 C1035 1.355 . S
C1036 C1038 1.419 . S
C1037 C1032 1.425 . S
C1037 C1034 1.409 . S
C1037 C1035 1.415 . S
C1038 H1028 0.930 . S
C1038 C1036 1.419 . S
C1038 C1039 1.362 . S
C1039 H1029 0.930 . S
C1039 C1032 1.409 . S
C1039 C1038 1.362 . S
H1040 C1046 0.930 . S
H1041 C1049 0.930 . S
H1042 C1050 0.930 . S
H1043 C1051 0.930 . S
H1044 C1054 0.930 . S
H1045 C1055 0.930 . S
C1046 H1040 0.930 . S
C1046 C1047 1.355 . S
C1046 C1048 1.415 1_556 S
C1047 C1046 1.355 . S
C1047 C1049 1.419 . S
C1048 C1046 1.415 1_554 S
C1048 C1053 1.425 . S
C1048 C1055 1.409 . S
C1049 H1041 0.930 . S
C1049 C1047 1.419 . S
C1049 C1050 1.362 1_556 S
C1050 H1042 0.930 . S
C1050 C1049 1.362 1_554 S
C1050 C1053 1.409 . S
C1051 H1043 0.930 . S
C1051 C1052 1.355 . S
C1051 C1053 1.415 . S
C1052 C1051 1.355 . S
C1052 C1054 1.419 . S
C1053 C1048 1.425 . S
C1053 C1050 1.409 . S
C1053 C1051 1.415 . S
C1054 H1044 0.930 . S
C1054 C1052 1.419 . S
C1054 C1055 1.362 . S
C1055 H1045 0.930 . S
C1055 C1048 1.409 . S
C1055 C1054 1.362 . S
H1056 C1062 0.930 . S
H1057 C1065 0.930 . S
H1058 C1066 0.930 . S
H1059 C1067 0.930 . S
H1060 C1070 0.930 . S
H1061 C1071 0.930 . S
C1062 H1056 0.930 . S
C1062 C1063 1.355 . S
C1062 C1064 1.415 . S
C1063 C1062 1.355 . S
C1063 C1065 1.419 1_545 S
C1064 C1062 1.415 . S
C1064 C1069 1.425 1_545 S
C1064 C1071 1.409 . S
C1065 H1057 0.930 . S
C1065 C1063 1.419 1_565 S
C1065 C1066 1.362 . S
C1066 H1058 0.930 . S
C1066 C1065 1.362 . S
C1066 C1069 1.409 . S
C1067 H1059 0.930 . S
C1067 C1068 1.355 . S
C1067 C1069 1.415 . S
C1068 C1067 1.355 . S
C1068 C1070 1.419 1_565 S
C1069 C1064 1.425 1_565 S
C1069 C1066 1.409 . S
C1069 C1067 1.415 . S
C1070 H1060 0.930 . S
C1070 C1068 1.419 1_545 S
C1070 C1071 1.362 . S
C1071 H1061 0.930 . S
C1071 C1064 1.409 . S
C1071 C1070 1.362 . S
H1072 C1078 0.930 . S
H1073 C1081 0.930 . S
H1074 C1082 0.930 . S
H1075 C1083 0.930 . S
H1076 C1086 0.930 . S
H1077 C1087 0.930 . S
C1078 H1072 0.930 . S
C1078 C1079 1.355 . S
C1078 C1080 1.415 . S
C1079 C1078 1.355 . S
C1079 C1081 1.419 . S
C1080 C1078 1.415 . S
C1080 C1085 1.425 . S
C1080 C1087 1.409 . S
C1081 H1073 0.930 . S
C1081 C1079 1.419 . S
C1081 C1082 1.362 . S
C1082 H1074 0.930 . S
C1082 C1081 1.362 . S
C1082 C1085 1.409 . S
C1083 H1075 0.930 . S
C1083 C1084 1.355 . S
C1083 C1085 1.415 1_556 S
C1084 C1083 1.355 . S
C1084 C1086 1.419 . S
C1085 C1080 1.425 . S
C1085 C1082 1.409 . S
C1085 C1083 1.415 1_554 S
C1086 H1076 0.930 . S
C1086 C1084 1.419 . S
C1086 C1087 1.362 1_556 S
C1087 H1077 0.930 . S
C1087 C1080 1.409 . S
C1087 C1086 1.362 1_554 S
H1088 C1094 0.930 . S
H1089 C1097 0.930 . S
H1090 C1098 0.930 . S
H1091 C1099 0.930 . S
H1092 C1102 0.930 . S
H1093 C1103 0.930 . S
C1094 H1088 0.930 . S
C1094 C1095 1.355 . S
C1094 C1096 1.415 . S
C1095 C1094 1.355 . S
C1095 C1097 1.419 . S
C1096 C1094 1.415 . S
C1096 C1101 1.425 1_545 S
C1096 C1103 1.409 . S
C1097 H1089 0.930 . S
C1097 C1095 1.419 . S
C1097 C1098 1.362 1_545 S
C1098 H1090 0.930 . S
C1098 C1097 1.362 1_565 S
C1098 C1101 1.409 . S
C1099 H1091 0.930 . S
C1099 C1100 1.355 . S
C1099 C1101 1.415 . S
C1100 C1099 1.355 . S
C1100 C1102 1.419 . S
C1101 C1096 1.425 1_565 S
C1101 C1098 1.409 . S
C1101 C1099 1.415 . S
C1102 H1092 0.930 . S
C1102 C1100 1.419 . S
C1102 C1103 1.362 1_565 S
C1103 H1093 0.930 . S
C1103 C1096 1.409 . S
C1103 C1102 1.362 1_545 S
H1104 C1110 0.930 . S
H1105 C1113 0.930 . S
H1106 C1114 0.930 . S
H1107 C1115 0.930 . S
H1108 C1118 0.930 . S
H1109 C1119 0.930 . S
C1110 H1104 0.930 . S
C1110 C1111 1.355 . S
C1110 C1112 1.415 . S
C1111 C1110 1.355 . S
C1111 C1113 1.419 . S
C1112 C1110 1.415 . S
C1112 C1117 1.425 . S
C1112 C1119 1.409 . S
C1113 H1105 0.930 . S
C1113 C1111 1.419 . S
C1113 C1114 1.362 . S
C1114 H1106 0.930 . S
C1114 C1113 1.362 . S
C1114 C1117 1.409 . S
C1115 H1107 0.930 . S
C1115 C1116 1.355 . S
C1115 C1117 1.415 . S
C1116 C1115 1.355 . S
C1116 C1118 1.419 . S
C1117 C1112 1.425 . S
C1117 C1114 1.409 . S
C1117 C1115 1.415 . S
C1118 H1108 0.930 . S
C1118 C1116 1.419 . S
C1118 C1119 1.362 . S
C1119 H1109 0.930 . S
C1119 C1112 1.409 . S
C1119 C1118 1.362 . S
H1120 C1126 0.930 . S
H1121 C1129 0.930 . S
H1122 C1130 0.930 . S
H1123 C1131 0.930 . S
H1124 C1134 0.930 . S
H1125 C1135 0.930 . S
C1126 H1120 0.930 . S
C1126 C1127 1.355 . S
C1126 C1128 1.416 . S
C1127 C1126 1.355 . S
C1127 C1129 1.419 . S
C1128 C1126 1.416 . S
C1128 C1133 1.425 1_545 S
C1128 C1135 1.408 1_545 S
C1129 H1121 0.930 . S
C1129 C1127 1.419 . S
C1129 C1130 1.362 . S
C1130 H1122 0.930 . S
C1130 C1129 1.362 . S
C1130 C1133 1.408 1_545 S
C1131 H1123 0.930 . S
C1131 C1132 1.355 . S
C1131 C1133 1.416 . S
C1132 C1131 1.355 . S
C1132 C1134 1.419 . S
C1133 C1128 1.425 1_565 S
C1133 C1130 1.408 1_565 S
C1133 C1131 1.416 . S
C1134 H1124 0.930 . S
C1134 C1132 1.419 . S
C1134 C1135 1.362 . S
C1135 H1125 0.930 . S
C1135 C1128 1.408 1_565 S
C1135 C1134 1.362 . S
H1136 C1142 0.930 . S
H1137 C1145 0.930 . S
H1138 C1146 0.930 . S
H1139 C1147 0.930 . S
H1140 C1150 0.930 . S
H1141 C1151 0.930 . S
C1142 H1136 0.930 . S
C1142 C1143 1.355 . S
C1142 C1144 1.415 . S
C1143 C1142 1.355 . S
C1143 C1145 1.419 . S
C1144 C1142 1.415 . S
C1144 C1149 1.425 . S
C1144 C1151 1.409 . S
C1145 H1137 0.930 . S
C1145 C1143 1.419 . S
C1145 C1146 1.362 . S
C1146 H1138 0.930 . S
C1146 C1145 1.362 . S
C1146 C1149 1.409 . S
C1147 H1139 0.930 . S
C1147 C1148 1.355 . S
C1147 C1149 1.415 1_556 S
C1148 C1147 1.355 . S
C1148 C1150 1.419 . S
C1149 C1144 1.425 . S
C1149 C1146 1.409 . S
C1149 C1147 1.415 1_554 S
C1150 H1140 0.930 . S
C1150 C1148 1.419 . S
C1150 C1151 1.362 1_556 S
C1151 H1141 0.930 . S
C1151 C1144 1.409 . S
C1151 C1150 1.362 1_554 S
H1152 C1158 0.930 . S
H1153 C1161 0.930 . S
H1154 C1162 0.930 . S
H1155 C1163 0.930 . S
H1156 C1166 0.930 . S
H1157 C1167 0.930 . S
C1158 H1152 0.930 . S
C1158 C1159 1.355 . S
C1158 C1160 1.415 . S
C1159 C1158 1.355 . S
C1159 C1161 1.419 1_545 S
C1160 C1158 1.415 . S
C1160 C1165 1.425 1_545 S
C1160 C1167 1.409 . S
C1161 H1153 0.930 . S
C1161 C1159 1.419 1_565 S
C1161 C1162 1.362 . S
C1162 H1154 0.930 . S
C1162 C1161 1.362 . S
C1162 C1165 1.409 . S
C1163 H1155 0.930 . S
C1163 C1164 1.355 . S
C1163 C1165 1.415 . S
C1164 C1163 1.355 . S
C1164 C1166 1.419 1_565 S
C1165 C1160 1.425 1_565 S
C1165 C1162 1.409 . S
C1165 C1163 1.415 . S
C1166 H1156 0.930 . S
C1166 C1164 1.419 1_545 S
C1166 C1167 1.362 . S
C1167 H1157 0.930 . S
C1167 C1160 1.409 . S
C1167 C1166 1.362 . S
H1168 C1174 0.930 . S
H1169 C1177 0.930 . S
H1170 C1178 0.930 . S
H1171 C1179 0.930 . S
H1172 C1182 0.930 . S
H1173 C1183 0.930 . S
C1174 H1168 0.930 . S
C1174 C1175 1.355 . S
C1174 C1176 1.415 . S
C1175 C1174 1.355 . S
C1175 C1177 1.419 . S
C1176 C1174 1.415 . S
C1176 C1181 1.425 . S
C1176 C1183 1.409 . S
C1177 H1169 0.930 . S
C1177 C1175 1.419 . S
C1177 C1178 1.362 . S
C1178 H1170 0.930 . S
C1178 C1177 1.362 . S
C1178 C1181 1.409 . S
C1179 H1171 0.930 . S
C1179 C1180 1.355 . S
C1179 C1181 1.415 . S
C1180 C1179 1.355 . S
C1180 C1182 1.419 . S
C1181 C1176 1.425 . S
C1181 C1178 1.409 . S
C1181 C1179 1.415 . S
C1182 H1172 0.930 . S
C1182 C1180 1.419 . S
C1182 C1183 1.362 . S
C1183 H1173 0.930 . S
C1183 C1176 1.409 . S
C1183 C1182 1.362 . S
H1184 C1190 0.930 . S
H1185 C1193 0.930 . S
H1186 C1194 0.930 . S
H1187 C1195 0.930 . S
H1188 C1198 0.930 . S
H1189 C1199 0.930 . S
C1190 H1184 0.930 . S
C1190 C1191 1.355 . S
C1190 C1192 1.415 . S
C1191 C1190 1.355 . S
C1191 C1193 1.419 . S
C1192 C1190 1.415 . S
C1192 C1197 1.425 . S
C1192 C1199 1.409 . S
C1193 H1185 0.930 . S
C1193 C1191 1.419 . S
C1193 C1194 1.362 . S
C1194 H1186 0.930 . S
C1194 C1193 1.362 . S
C1194 C1197 1.409 . S
C1195 H1187 0.930 . S
C1195 C1196 1.355 . S
C1195 C1197 1.415 . S
C1196 C1195 1.355 . S
C1196 C1198 1.419 . S
C1197 C1192 1.425 . S
C1197 C1194 1.409 . S
C1197 C1195 1.415 . S
C1198 H1188 0.930 . S
C1198 C1196 1.419 . S
C1198 C1199 1.362 . S
C1199 H1189 0.930 . S
C1199 C1192 1.409 . S
C1199 C1198 1.362 . S
H1200 C1206 0.930 . S
H1201 C1209 0.930 . S
H1202 C1210 0.930 . S
H1203 C1211 0.930 . S
H1204 C1214 0.930 . S
H1205 C1215 0.930 . S
C1206 H1200 0.930 . S
C1206 C1207 1.355 . S
C1206 C1208 1.415 . S
C1207 C1206 1.355 . S
C1207 C1209 1.419 . S
C1208 C1206 1.415 . S
C1208 C1213 1.425 . S
C1208 C1215 1.409 . S
C1209 H1201 0.930 . S
C1209 C1207 1.419 . S
C1209 C1210 1.362 . S
C1210 H1202 0.930 . S
C1210 C1209 1.362 . S
C1210 C1213 1.409 . S
C1211 H1203 0.930 . S
C1211 C1212 1.355 . S
C1211 C1213 1.415 . S
C1212 C1211 1.355 . S
C1212 C1214 1.419 . S
C1213 C1208 1.425 . S
C1213 C1210 1.409 . S
C1213 C1211 1.415 . S
C1214 H1204 0.930 . S
C1214 C1212 1.419 . S
C1214 C1215 1.362 . S
C1215 H1205 0.930 . S
C1215 C1208 1.409 . S
C1215 C1214 1.362 . S
H1216 C1222 0.930 . S
H1217 C1225 0.930 . S
H1218 C1226 0.930 . S
H1219 C1227 0.930 . S
H1220 C1230 0.930 . S
H1221 C1231 0.930 . S
C1222 H1216 0.930 . S
C1222 C1223 1.355 . S
C1222 C1224 1.415 . S
C1223 C1222 1.355 . S
C1223 C1225 1.419 . S
C1224 C1222 1.415 . S
C1224 C1229 1.425 . S
C1224 C1231 1.409 . S
C1225 H1217 0.930 . S
C1225 C1223 1.419 . S
C1225 C1226 1.362 . S
C1226 H1218 0.930 . S
C1226 C1225 1.362 . S
C1226 C1229 1.409 . S
C1227 H1219 0.930 . S
C1227 C1228 1.355 . S
C1227 C1229 1.415 . S
C1228 C1227 1.355 . S
C1228 C1230 1.419 . S
C1229 C1224 1.425 . S
C1229 C1226 1.409 . S
C1229 C1227 1.415 . S
C1230 H1220 0.930 . S
C1230 C1228 1.419 . S
C1230 C1231 1.362 . S
C1231 H1221 0.930 . S
C1231 C1224 1.409 . S
C1231 C1230 1.362 . S
H1232 C1238 0.930 . S
H1233 C1241 0.930 . S
H1234 C1242 0.930 . S
H1235 C1243 0.930 1_554 S
H1236 C1246 0.930 . S
H1237 C1247 0.930 . S
C1238 H1232 0.930 . S
C1238 C1239 1.355 . S
C1238 C1240 1.415 . S
C1239 C1238 1.355 . S
C1239 C1241 1.419 . S
C1240 C1238 1.415 . S
C1240 C1245 1.425 . S
C1240 C1247 1.409 . S
C1241 H1233 0.930 . S
C1241 C1239 1.419 . S
C1241 C1242 1.362 . S
C1242 H1234 0.930 . S
C1242 C1241 1.362 . S
C1242 C1245 1.409 . S
C1243 H1235 0.930 1_556 S
C1243 C1244 1.355 . S
C1243 C1245 1.415 . S
C1244 C1243 1.355 . S
C1244 C1246 1.419 . S
C1245 C1240 1.425 . S
C1245 C1242 1.409 . S
C1245 C1243 1.415 . S
C1246 H1236 0.930 . S
C1246 C1244 1.419 . S
C1246 C1247 1.362 . S
C1247 H1237 0.930 . S
C1247 C1240 1.409 . S
C1247 C1246 1.362 . S
H1248 C1254 0.930 . S
H1249 C1257 0.930 . S
H1250 C1258 0.930 . S
H1251 C1259 0.930 . S
H1252 C1262 0.930 . S
H1253 C1263 0.930 . S
C1254 H1248 0.930 . S
C1254 C1255 1.355 . S
C1254 C1256 1.415 . S
C1255 C1254 1.355 . S
C1255 C1257 1.419 . S
C1256 C1254 1.415 . S
C1256 C1261 1.425 . S
C1256 C1263 1.409 . S
C1257 H1249 0.930 . S
C1257 C1255 1.419 . S
C1257 C1258 1.362 . S
C1258 H1250 0.930 . S
C1258 C1257 1.362 . S
C1258 C1261 1.409 . S
C1259 H1251 0.930 . S
C1259 C1260 1.355 . S
C1259 C1261 1.415 . S
C1260 C1259 1.355 . S
C1260 C1262 1.419 . S
C1261 C1256 1.425 . S
C1261 C1258 1.409 . S
C1261 C1259 1.415 . S
C1262 H1252 0.930 . S
C1262 C1260 1.419 . S
C1262 C1263 1.362 . S
C1263 H1253 0.930 . S
C1263 C1256 1.409 . S
C1263 C1262 1.362 . S
H1264 C1270 0.930 . S
H1265 C1273 0.930 . S
H1266 C1274 0.930 . S
H1267 C1275 0.930 . S
H1268 C1278 0.930 . S
H1269 C1279 0.930 . S
C1270 H1264 0.930 . S
C1270 C1271 1.355 . S
C1270 C1272 1.415 . S
C1271 C1270 1.355 . S
C1271 C1273 1.419 . S
C1272 C1270 1.415 . S
C1272 C1277 1.425 . S
C1272 C1279 1.409 . S
C1273 H1265 0.930 . S
C1273 C1271 1.419 . S
C1273 C1274 1.362 . S
C1274 H1266 0.930 . S
C1274 C1273 1.362 . S
C1274 C1277 1.409 . S
C1275 H1267 0.930 . S
C1275 C1276 1.355 . S
C1275 C1277 1.415 . S
C1276 C1275 1.355 . S
C1276 C1278 1.419 . S
C1277 C1272 1.425 . S
C1277 C1274 1.409 . S
C1277 C1275 1.415 . S
C1278 H1268 0.930 . S
C1278 C1276 1.419 . S
C1278 C1279 1.362 . S
C1279 H1269 0.930 . S
C1279 C1272 1.409 . S
C1279 C1278 1.362 . S
H1280 C1286 0.930 . S
H1281 C1289 0.930 . S
H1282 C1290 0.930 . S
H1283 C1291 0.930 . S
H1284 C1294 0.930 . S
H1285 C1295 0.929 . S
C1286 H1280 0.930 . S
C1286 C1287 1.355 . S
C1286 C1288 1.415 . S
C1287 C1286 1.355 . S
C1287 C1289 1.419 . S
C1288 C1286 1.415 . S
C1288 C1293 1.425 . S
C1288 C1295 1.411 1_556 S
C1289 H1281 0.930 . S
C1289 C1287 1.419 . S
C1289 C1290 1.362 . S
C1290 H1282 0.930 . S
C1290 C1289 1.362 . S
C1290 C1293 1.409 . S
C1291 H1283 0.930 . S
C1291 C1292 1.355 . S
C1291 C1293 1.415 . S
C1292 C1291 1.355 . S
C1292 C1294 1.419 1_556 S
C1293 C1288 1.425 . S
C1293 C1290 1.409 . S
C1293 C1291 1.415 . S
C1294 H1284 0.930 . S
C1294 C1292 1.419 1_554 S
C1294 C1295 1.362 . S
C1295 H1285 0.929 . S
C1295 C1288 1.411 1_554 S
C1295 C1294 1.362 . S
H1296 C1302 0.930 . S
H1297 C1305 0.930 . S
H1298 C1306 0.930 . S
H1299 C1307 0.930 . S
H1300 C1310 0.930 . S
H1301 C1311 0.930 . S
C1302 H1296 0.930 . S
C1302 C1303 1.355 . S
C1302 C1304 1.415 . S
C1303 C1302 1.355 . S
C1303 C1305 1.419 . S
C1304 C1302 1.415 . S
C1304 C1309 1.425 . S
C1304 C1311 1.409 . S
C1305 H1297 0.930 . S
C1305 C1303 1.419 . S
C1305 C1306 1.362 . S
C1306 H1298 0.930 . S
C1306 C1305 1.362 . S
C1306 C1309 1.409 . S
C1307 H1299 0.930 . S
C1307 C1308 1.355 . S
C1307 C1309 1.415 . S
C1308 C1307 1.355 . S
C1308 C1310 1.419 . S
C1309 C1304 1.425 . S
C1309 C1306 1.409 . S
C1309 C1307 1.415 . S
C1310 H1300 0.930 . S
C1310 C1308 1.419 . S
C1310 C1311 1.362 . S
C1311 H1301 0.930 . S
C1311 C1304 1.409 . S
C1311 C1310 1.362 . S
H1312 C1318 0.930 1_554 S
H1313 C1321 0.930 . S
H1314 C1322 0.930 . S
H1315 C1323 0.930 . S
H1316 C1326 0.930 . S
H1317 C1327 0.930 1_554 S
C1318 H1312 0.930 1_556 S
C1318 C1319 1.355 . S
C1318 C1320 1.415 . S
C1319 C1318 1.355 . S
C1319 C1321 1.419 . S
C1320 C1318 1.415 . S
C1320 C1325 1.425 . S
C1320 C1327 1.409 . S
C1321 H1313 0.930 . S
C1321 C1319 1.419 . S
C1321 C1322 1.362 . S
C1322 H1314 0.930 . S
C1322 C1321 1.362 . S
C1322 C1325 1.409 . S
C1323 H1315 0.930 . S
C1323 C1324 1.355 . S
C1323 C1325 1.415 . S
C1324 C1323 1.355 . S
C1324 C1326 1.419 . S
C1325 C1320 1.425 . S
C1325 C1322 1.409 . S
C1325 C1323 1.415 . S
C1326 H1316 0.930 . S
C1326 C1324 1.419 . S
C1326 C1327 1.362 . S
C1327 H1317 0.930 1_556 S
C1327 C1320 1.409 . S
C1327 C1326 1.362 . S
H1328 C1334 0.930 . S
H1329 C1337 0.930 . S
H1330 C1338 0.930 . S
H1331 C1339 0.930 . S
H1332 C1342 0.930 . S
H1333 C1343 0.930 . S
C1334 H1328 0.930 . S
C1334 C1335 1.355 . S
C1334 C1336 1.415 . S
C1335 C1334 1.355 . S
C1335 C1337 1.419 . S
C1336 C1334 1.415 . S
C1336 C1341 1.425 . S
C1336 C1343 1.409 . S
C1337 H1329 0.930 . S
C1337 C1335 1.419 . S
C1337 C1338 1.362 . S
C1338 H1330 0.930 . S
C1338 C1337 1.362 . S
C1338 C1341 1.409 . S
C1339 H1331 0.930 . S
C1339 C1340 1.355 . S
C1339 C1341 1.415 . S
C1340 C1339 1.355 . S
C1340 C1342 1.419 . S
C1341 C1336 1.425 . S
C1341 C1338 1.409 . S
C1341 C1339 1.415 . S
C1342 H1332 0.930 . S
C1342 C1340 1.419 . S
C1342 C1343 1.362 . S
C1343 H1333 0.930 . S
C1343 C1336 1.409 . S
C1343 C1342 1.362 . S
H1344 C1350 0.930 . S
H1345 C1353 0.930 . S
H1346 C1354 0.930 . S
H1347 C1355 0.930 . S
H1348 C1358 0.930 . S
H1349 C1359 0.930 . S
C1350 H1344 0.930 . S
C1350 C1351 1.355 . S
C1350 C1352 1.415 . S
C1351 C1350 1.355 . S
C1351 C1353 1.419 . S
C1352 C1350 1.415 . S
C1352 C1357 1.425 . S
C1352 C1359 1.409 . S
C1353 H1345 0.930 . S
C1353 C1351 1.419 . S
C1353 C1354 1.362 . S
C1354 H1346 0.930 . S
C1354 C1353 1.362 . S
C1354 C1357 1.409 . S
C1355 H1347 0.930 . S
C1355 C1356 1.355 . S
C1355 C1357 1.415 . S
C1356 C1355 1.355 . S
C1356 C1358 1.419 . S
C1357 C1352 1.425 . S
C1357 C1354 1.409 . S
C1357 C1355 1.415 . S
C1358 H1348 0.930 . S
C1358 C1356 1.419 . S
C1358 C1359 1.362 . S
C1359 H1349 0.930 . S
C1359 C1352 1.409 . S
C1359 C1358 1.362 . S
H1360 C1366 0.930 . S
H1361 C1369 0.930 . S
H1362 C1370 0.930 . S
H1363 C1371 0.930 . S
H1364 C1374 0.930 . S
H1365 C1375 0.930 . S
C1366 H1360 0.930 . S
C1366 C1367 1.355 . S
C1366 C1368 1.415 . S
C1367 C1366 1.355 . S
C1367 C1369 1.419 . S
C1368 C1366 1.415 . S
C1368 C1373 1.425 . S
C1368 C1375 1.409 . S
C1369 H1361 0.930 . S
C1369 C1367 1.419 . S
C1369 C1370 1.362 . S
C1370 H1362 0.930 . S
C1370 C1369 1.362 . S
C1370 C1373 1.409 . S
C1371 H1363 0.930 . S
C1371 C1372 1.355 . S
C1371 C1373 1.415 . S
C1372 C1371 1.355 . S
C1372 C1374 1.419 . S
C1373 C1368 1.425 . S
C1373 C1370 1.409 . S
C1373 C1371 1.415 . S
C1374 H1364 0.930 . S
C1374 C1372 1.419 . S
C1374 C1375 1.362 . S
C1375 H1365 0.930 . S
C1375 C1368 1.409 . S
C1375 C1374 1.362 . S
H1376 C1382 0.930 . S
H1377 C1385 0.930 . S
H1378 C1386 0.930 . S
H1379 C1387 0.930 . S
H1380 C1390 0.930 . S
H1381 C1391 0.930 . S
C1382 H1376 0.930 . S
C1382 C1383 1.355 . S
C1382 C1384 1.415 . S
C1383 C1382 1.355 . S
C1383 C1385 1.419 . S
C1384 C1382 1.415 . S
C1384 C1389 1.425 . S
C1384 C1391 1.409 . S
C1385 H1377 0.930 . S
C1385 C1383 1.419 . S
C1385 C1386 1.362 . S
C1386 H1378 0.930 . S
C1386 C1385 1.362 . S
C1386 C1389 1.409 . S
C1387 H1379 0.930 . S
C1387 C1388 1.355 . S
C1387 C1389 1.415 . S
C1388 C1387 1.355 . S
C1388 C1390 1.419 . S
C1389 C1384 1.425 . S
C1389 C1386 1.409 . S
C1389 C1387 1.415 . S
C1390 H1380 0.930 . S
C1390 C1388 1.419 . S
C1390 C1391 1.362 . S
C1391 H1381 0.930 . S
C1391 C1384 1.409 . S
C1391 C1390 1.362 . S
H1392 C1398 0.930 . S
H1393 C1401 0.930 . S
H1394 C1402 0.930 . S
H1395 C1403 0.930 . S
H1396 C1406 0.930 . S
H1397 C1407 0.930 . S
C1398 H1392 0.930 . S
C1398 C1399 1.355 . S
C1398 C1400 1.415 . S
C1399 C1398 1.355 . S
C1399 C1401 1.419 . S
C1400 C1398 1.415 . S
C1400 C1405 1.425 . S
C1400 C1407 1.409 . S
C1401 H1393 0.930 . S
C1401 C1399 1.419 . S
C1401 C1402 1.362 . S
C1402 H1394 0.930 . S
C1402 C1401 1.362 . S
C1402 C1405 1.409 . S
C1403 H1395 0.930 . S
C1403 C1404 1.355 . S
C1403 C1405 1.415 . S
C1404 C1403 1.355 . S
C1404 C1406 1.419 . S
C1405 C1400 1.425 . S
C1405 C1402 1.409 . S
C1405 C1403 1.415 . S
C1406 H1396 0.930 . S
C1406 C1404 1.419 . S
C1406 C1407 1.362 . S
C1407 H1397 0.930 . S
C1407 C1400 1.409 . S
C1407 C1406 1.362 . S
H1408 C1414 0.930 . S
H1409 C1417 0.930 . S
H1410 C1418 0.930 . S
H1411 C1419 0.930 . S
H1412 C1422 0.930 . S
H1413 C1423 0.930 . S
C1414 H1408 0.930 . S
C1414 C1415 1.355 . S
C1414 C1416 1.415 . S
C1415 C1414 1.355 . S
C1415 C1417 1.419 . S
C1416 C1414 1.415 . S
C1416 C1421 1.425 . S
C1416 C1423 1.409 . S
C1417 H1409 0.930 . S
C1417 C1415 1.419 . S
C1417 C1418 1.362 . S
C1418 H1410 0.930 . S
C1418 C1417 1.362 . S
C1418 C1421 1.409 . S
C1419 H1411 0.930 . S
C1419 C1420 1.355 . S
C1419 C1421 1.415 . S
C1420 C1419 1.355 . S
C1420 C1422 1.419 . S
C1421 C1416 1.425 . S
C1421 C1418 1.409 . S
C1421 C1419 1.415 . S
C1422 H1412 0.930 . S
C1422 C1420 1.419 . S
C1422 C1423 1.362 . S
C1423 H1413 0.930 . S
C1423 C1416 1.409 . S
C1423 C1422 1.362 . S
H1424 C1430 0.930 . S
H1425 C1433 0.930 . S
H1426 C1434 0.930 . S
H1427 C1435 0.930 . S
H1428 C1438 0.930 . S
H1429 C1439 0.930 . S
C1430 H1424 0.930 . S
C1430 C1431 1.355 . S
C1430 C1432 1.415 . S
C1431 C1430 1.355 . S
C1431 C1433 1.419 . S
C1432 C1430 1.415 . S
C1432 C1437 1.425 . S
C1432 C1439 1.409 . S
C1433 H1425 0.930 . S
C1433 C1431 1.419 . S
C1433 C1434 1.362 . S
C1434 H1426 0.930 . S
C1434 C1433 1.362 . S
C1434 C1437 1.409 . S
C1435 H1427 0.930 . S
C1435 C1436 1.355 . S
C1435 C1437 1.415 . S
C1436 C1435 1.355 . S
C1436 C1438 1.419 . S
C1437 C1432 1.425 . S
C1437 C1434 1.409 . S
C1437 C1435 1.415 . S
C1438 H1428 0.930 . S
C1438 C1436 1.419 . S
C1438 C1439 1.362 . S
C1439 H1429 0.930 . S
C1439 C1432 1.409 . S
C1439 C1438 1.362 . S
C423 C109 1.522 . S
C428 C3 1.522 . S
C439 C18 1.509 . S
C444 C328 1.509 . S
C455 C31 1.524 . S
C460 C135 1.524 . S
C471 C44 1.519 . S
C476 C356 1.519 . S
C487 C55 1.484 . S
C492 C159 1.484 . S
C503 C382 1.488 . S
C508 C68 1.488 . S
C519 C185 1.523 . S
C524 C81 1.523 . S
C535 C406 1.504 . S
C540 C96 1.504 . S
C551 C224 1.520 . S
C556 C122 1.520 . S
C567 C148 1.491 . S
C572 C252 1.491 . S
C583 C172 1.496 . S
C588 C276 1.496 . S
C599 C302 1.492 . S
C604 C198 1.492 . S
C615 C315 1.483 . S
C620 C211 1.483 . S
C631 C237 1.485 . S
C636 C343 1.485 . S
C647 C265 1.520 . S
C652 C367 1.520 . S
C663 C393 1.516 . S
C668 C289 1.516 . S
C679 C5 1.575 . S
C684 C57 1.596 . S
C695 C70 1.575 . S
C700 C16 1.579 . S
C711 C83 1.614 . S
C716 C29 1.595 . S
C727 C42 1.611 . S
C732 C94 1.589 . S
C743 C107 1.577 . S
C748 C161 1.600 . S
C759 C120 1.594 . S
C764 C174 1.614 . S
C775 C187 1.575 . S
C780 C133 1.579 . S
C791 C200 1.615 . S
C796 C146 1.602 . S
C807 C263 1.604 1_565 S
C812 C213 1.598 1_545 S
C823 C278 1.575 . S
C828 C226 1.580 . S
C839 C239 1.574 . S
C844 C291 1.594 . S
C855 C304 1.584 . S
C860 C250 1.573 . S
C871 C369 1.607 1_545 S
C876 C317 1.597 1_565 S
C887 C330 1.604 . S
C892 C380 1.580 . S
C903 C395 1.582 . S
C908 C341 1.605 . S
C919 C408 1.585 . S
C924 C354 1.573 . S
C935 C56 0.794 . S
C940 C4 0.825 . S
C951 C69 0.853 . S
C956 C23 0.842 . S
C967 C36 0.725 . S
C972 C82 0.709 . S
C983 C101 0.853 . S
C988 C49 0.849 . S
C999 C160 0.805 . S
C1004 C114 0.834 . S
C1015 C127 0.709 . S
C1020 C173 0.725 . S
C1031 C186 0.727 . S
C1036 C140 0.758 . S
C1047 C199 0.823 . S
C1052 C153 0.845 . S
C1063 C212 0.781 1_545 S
C1068 C270 0.747 1_565 S
C1079 C277 0.731 . S
C1084 C225 0.762 . S
C1095 C290 0.737 1_545 S
C1100 C238 0.770 1_565 S
C1111 C303 0.853 . S
C1116 C257 0.850 . S
C1127 C368 0.792 1_545 S
C1132 C316 0.823 1_565 S
C1143 C329 0.731 . S
C1148 C387 0.763 . S
C1159 C348 0.707 1_545 S
C1164 C394 0.719 1_565 S
C1175 C361 0.723 . S
C1180 C407 0.708 . S
C1191 C10 1.493 . S
C1196 C283 1.486 . S
C1207 C296 1.490 . S
C1212 C17 1.484 . S
C1223 C30 1.497 . S
C1228 C309 1.508 . S
C1239 C43 1.484 . S
C1244 C264 1.490 1_556 S
C1255 C251 1.485 . S
C1260 C62 1.482 . S
C1271 C218 1.493 . S
C1276 C75 1.503 . S
C1287 C231 1.534 . S
C1292 C88 1.533 1_556 S
C1303 C95 1.494 . S
C1308 C244 1.504 . S
C1319 C108 1.482 1_556 S
C1324 C381 1.484 . S
C1335 C400 1.484 . S
C1340 C121 1.489 . S
C1351 C413 1.509 . S
C1356 C134 1.499 . S
C1367 C374 1.520 . S
C1372 C147 1.510 . S
C1383 C355 1.513 . S
C1388 C166 1.522 . S
C1399 C322 1.509 . S
C1404 C179 1.519 . S
C1415 C192 1.490 . S
C1420 C335 1.500 . S
C1431 C205 1.494 . S
C1436 C342 1.487 1_556 S
