# Generated by pormake.
# Topology eci, (8)-cn, num edge types: 1
# Building blocks:
#     Node 0, Type 0, BuildingBlock: AJUNOK_clean_sbu_0, # of connection points: 8
#     Node 1, Type 0, BuildingBlock: AJUNOK_clean_sbu_0, # of connection points: 8
#     Node 2, Type 0, BuildingBlock: AJUNOK_clean_sbu_0, # of connection points: 8
#     Node 3, Type 0, BuildingBlock: AJUNOK_clean_sbu_0, # of connection points: 8
#     Edge 4, Type (0, 0), BuildingBlock: XIVTED_clean_linker_0, # of connection points: 2
#     Edge 5, Type (0, 0), BuildingBlock: XIVTED_clean_linker_0, # of connection points: 2
#     Edge 6, Type (0, 0), BuildingBlock: XIVTED_clean_linker_0, # of connection points: 2
#     Edge 7, Type (0, 0), BuildingBlock: XIVTED_clean_linker_0, # of connection points: 2
#     Edge 8, Type (0, 0), BuildingBlock: XIVTED_clean_linker_0, # of connection points: 2
#     Edge 9, Type (0, 0), BuildingBlock: XIVTED_clean_linker_0, # of connection points: 2
#     Edge 10, Type (0, 0), BuildingBlock: XIVTED_clean_linker_0, # of connection points: 2
#     Edge 11, Type (0, 0), BuildingBlock: XIVTED_clean_linker_0, # of connection points: 2
#     Edge 12, Type (0, 0), BuildingBlock: XIVTED_clean_linker_0, # of connection points: 2
#     Edge 13, Type (0, 0), BuildingBlock: XIVTED_clean_linker_0, # of connection points: 2
#     Edge 14, Type (0, 0), BuildingBlock: XIVTED_clean_linker_0, # of connection points: 2
#     Edge 15, Type (0, 0), BuildingBlock: XIVTED_clean_linker_0, # of connection points: 2
#     Edge 16, Type (0, 0), BuildingBlock: XIVTED_clean_linker_0, # of connection points: 2
#     Edge 17, Type (0, 0), BuildingBlock: XIVTED_clean_linker_0, # of connection points: 2
#     Edge 18, Type (0, 0), BuildingBlock: XIVTED_clean_linker_0, # of connection points: 2
#     Edge 19, Type (0, 0), BuildingBlock: XIVTED_clean_linker_0, # of connection points: 2
# Relax obj value: 0.365
# Max RMSD: 0.287
# Mean RMSD: 0.287
data_MOF--net-eci--node1-AJUNOK_clean_sbu_0--edge1-XIVTED_clean_linker_0
_symmetry_space_group_name_H-M    P1
_symmetry_Int_Tables_number       1
_symmetry_cell_setting            triclinic
loop_
_symmetry_equiv_pos_as_xyz
'x, y, z'
_cell_length_a     34.028242
_cell_length_b     34.02393
_cell_length_c     18.732981
_cell_angle_alpha  90.079776
_cell_angle_beta   89.856571
_cell_angle_gamma 90.001874
loop_
_atom_site_label
_atom_site_type_symbol
_atom_site_fract_x
_atom_site_fract_y
_atom_site_fract_z
_atom_type_partial_charge
Cd0 Cd 0.80487 0.79943 0.0745 0.0
Cd1 Cd 0.77485 0.81611 0.86123 0.0
C2 C 0.82782 0.70941 0.05348 0.0
N3 N 0.79542 0.7327 0.0493 0.0
C4 C 0.75376 0.67606 0.04446 0.0
C5 C 0.78678 0.65146 0.05031 0.0
C6 C 0.8242 0.66867 0.05302 0.0
C7 C 0.75877 0.71692 0.04513 0.0
H8 H 0.85649 0.72233 0.06137 0.0
H9 H 0.73335 0.73595 0.04649 0.0
C10 C 0.75777 0.88239 0.98031 0.0
C11 C 0.82119 0.88873 0.79557 0.0
C12 C 0.84831 0.91906 0.78708 0.0
C13 C 0.87574 0.9266 0.84121 0.0
C14 C 0.87462 0.90388 0.90362 0.0
C15 C 0.84663 0.87413 0.91023 0.0
N16 N 0.82098 0.86683 0.85615 0.0
H17 H 0.80049 0.88235 0.75346 0.0
H18 H 0.84549 0.85686 0.95847 0.0
C19 C 0.6972 0.79904 0.95728 0.0
N20 N 0.72611 0.78008 0.92058 0.0
C21 C 0.68237 0.72708 0.89371 0.0
C22 C 0.65084 0.74822 0.92373 0.0
C23 C 0.65927 0.78346 0.95988 0.0
C24 C 0.71986 0.74388 0.89195 0.0
H25 H 0.70189 0.82824 0.97759 0.0
H26 H 0.7429 0.7299 0.86119 0.0
C27 C 0.86484 0.7768 0.92472 0.0
C28 C 0.76601 0.78704 0.20436 0.0
N29 N 0.85441 0.83417 0.12999 0.0
C30 C 0.8919 0.8208 0.13468 0.0
C31 C 0.92102 0.84447 0.16489 0.0
C32 C 0.91108 0.88181 0.192 0.0
C33 C 0.87156 0.89378 0.18922 0.0
C34 C 0.84372 0.86951 0.15739 0.0
C35 C 0.75123 0.802 0.71784 0.0
O36 O 0.7741 0.85516 0.01566 0.0
O37 O 0.74994 0.87646 0.91505 0.0
O38 O 0.83902 0.78265 0.8768 0.0
O39 O 0.85756 0.78362 -0.00982 0.0
O40 O 0.74829 0.80486 0.15405 0.0
O41 O 0.80109 0.77574 0.19315 0.0
O42 O 0.77431 0.77932 0.75094 0.0
O43 O 0.73959 0.8324 0.75082 0.0
H44 H 0.8992 0.792 0.11441 0.0
H45 H 0.81345 0.8788 0.15424 0.0
H46 H 0.72432 0.66395 0.04387 0.0
H47 H 0.85041 0.6508 0.05776 0.0
H48 H 0.84857 0.9357 0.73782 0.0
H49 H 0.89512 0.90909 0.94677 0.0
H50 H 0.67755 0.69939 0.86656 0.0
H51 H 0.63612 0.80112 -0.01672 0.0
H52 H 0.95102 0.83391 0.1654 0.0
H53 H 0.86208 0.92165 0.21123 0.0
Cd54 Cd 0.7094 0.31528 0.31468 0.0
Cd55 Cd 0.68519 0.28304 0.10178 0.0
C56 C 0.8023 0.33067 0.30381 0.0
N57 N 0.77672 0.30022 0.29625 0.0
C58 C 0.8305 0.25456 0.29255 0.0
C59 C 0.8575 0.2855 0.30188 0.0
C60 C 0.84279 0.32402 0.30605 0.0
C61 C 0.79001 0.26258 0.29082 0.0
H62 H 0.79121 0.36016 0.31141 0.0
H63 H 0.7692 0.23861 0.28861 0.0
C64 C 0.62145 0.27201 0.22575 0.0
C65 C 0.6107 0.32996 0.04339 0.0
C66 C 0.58099 0.35797 0.03698 0.0
C67 C 0.57843 0.38863 0.08692 0.0
C68 C 0.60541 0.38987 0.1434 0.0
C69 C 0.63424 0.36077 0.14854 0.0
N70 N 0.63672 0.33194 0.09822 0.0
H71 H 0.61312 0.30662 0.00444 0.0
H72 H 0.65455 0.36121 0.19273 0.0
C73 C 0.70059 0.2061 0.19968 0.0
N74 N 0.72017 0.23469 0.16336 0.0
C75 C 0.77225 0.19004 0.13571 0.0
C76 C 0.75017 0.15884 0.16439 0.0
C77 C 0.71532 0.1678 0.20132 0.0
C78 C 0.75639 0.22792 0.13513 0.0
H79 H 0.67137 0.21129 0.21971 0.0
H80 H 0.77083 0.25077 0.10474 0.0
C81 C 0.73558 0.36856 0.15956 0.0
C82 C 0.71507 0.2778 0.44687 0.0
N83 N 0.67666 0.37007 0.35939 0.0
C84 C 0.68926 0.4078 0.3519 0.0
C85 C 0.66565 0.43896 0.37544 0.0
C86 C 0.62905 0.43099 0.40734 0.0
C87 C 0.61731 0.39165 0.41515 0.0
C88 C 0.64166 0.3616 0.39069 0.0
C89 C 0.69673 0.25676 0.95909 0.0
O90 O 0.65039 0.28704 0.25882 0.0
O91 O 0.62581 0.26225 0.16091 0.0
O92 O 0.72271 0.34408 0.11398 0.0
O93 O 0.73194 0.36249 0.22608 0.0
O94 O 0.69889 0.26015 0.39464 0.0
O95 O 0.72782 0.31251 0.43671 0.0
O96 O 0.72099 0.27861 -0.00873 0.0
O97 O 0.66572 0.24749 -0.0073 0.0
H98 H 0.71731 0.4138 0.32699 0.0
H99 H 0.63245 0.33134 0.39557 0.0
H100 H 0.84037 0.22433 0.29043 0.0
H101 H 0.86235 0.34884 0.31299 0.0
H102 H 0.56083 0.35625 -0.00757 0.0
H103 H 0.60404 0.41292 0.1833 0.0
H104 H 0.79963 0.1846 0.10782 0.0
H105 H 0.69712 0.14481 0.22381 0.0
H106 H 0.67593 0.46886 0.36894 0.0
H107 H 0.58912 0.38413 0.43835 0.0
Cd108 Cd 0.22817 0.17361 0.35435 0.0
Cd109 Cd 0.19209 0.19807 0.57422 0.0
C110 C 0.30679 0.19492 0.44582 0.0
N111 N 0.27601 0.21242 0.41204 0.0
C112 C 0.31494 0.26976 0.39012 0.0
C113 C 0.34828 0.25055 0.41748 0.0
C114 C 0.34313 0.21375 0.44995 0.0
C115 C 0.27892 0.24993 0.38755 0.0
H116 H 0.30508 0.16471 0.46238 0.0
H117 H 0.25454 0.26284 0.359 0.0
C118 C 0.13961 0.2235 0.4173 0.0
C119 C 0.10266 0.16686 0.60249 0.0
C120 C 0.07326 0.14353 0.63266 0.0
C121 C 0.08308 0.11547 0.68474 0.0
C122 C 0.12262 0.1118 0.70515 0.0
C123 C 0.15105 0.13544 0.67311 0.0
N124 N 0.14068 0.16226 0.62294 0.0
H125 H 0.09502 0.18835 0.5625 0.0
H126 H 0.18157 0.13236 0.68809 0.0
C127 C 0.17535 0.29126 0.56768 0.0
N128 N 0.20525 0.2651 0.55953 0.0
C129 C 0.25221 0.31739 0.55604 0.0
C130 C 0.22197 0.34508 0.56586 0.0
C131 C 0.18303 0.33156 0.57017 0.0
C132 C 0.24314 0.27732 0.55321 0.0
H133 H 0.14566 0.28074 0.57543 0.0
H134 H 0.26646 0.25583 0.54901 0.0
C135 C 0.24155 0.1216 0.48167 0.0
C136 C 0.25385 0.183 0.21064 0.0
N137 N 0.18084 0.12398 0.35254 0.0
C138 C 0.18335 0.09742 0.29849 0.0
C139 C 0.15546 0.06763 0.29221 0.0
C140 C 0.12449 0.06558 0.34156 0.0
C141 C 0.12293 0.09286 0.39767 0.0
C142 C 0.15186 0.12179 0.40262 0.0
C143 C 0.23603 0.20159 0.70018 0.0
O144 O 0.16443 0.21016 0.37204 0.0
O145 O 0.14551 0.22073 0.48415 0.0
O146 O 0.22502 0.15421 0.49478 0.0
O147 O 0.25412 0.11648 0.41881 0.0
O148 O 0.23196 0.20779 0.2417 0.0
O149 O 0.26321 0.15263 0.24574 0.0
O150 O 0.24811 0.18035 0.64854 0.0
O151 O 0.20391 0.22015 0.69224 0.0
H152 H 0.20678 0.09968 0.25967 0.0
H153 H 0.15096 0.14261 0.44614 0.0
H154 H 0.31744 0.29836 0.36522 0.0
H155 H 0.36792 0.1975 0.47084 0.0
H156 H 0.04331 0.14699 0.61434 0.0
H157 H 0.13159 0.09106 0.74573 0.0
H158 H 0.28263 0.32655 0.55237 0.0
H159 H 0.15892 0.35175 0.57923 0.0
H160 H 0.15733 0.04723 0.24787 0.0
H161 H 0.09956 0.09189 0.437 0.0
Cd162 Cd 0.30512 0.71011 0.62299 0.0
Cd163 Cd 0.2901 0.6938 0.83257 0.0
C164 C 0.31968 0.79995 0.66749 0.0
N165 N 0.28996 0.77332 0.66456 0.0
C166 C 0.24227 0.82494 0.67206 0.0
C167 C 0.27229 0.85353 0.6715 0.0
C168 C 0.31153 0.84019 0.67101 0.0
C169 C 0.2518 0.785 0.66664 0.0
H170 H 0.34974 0.79016 0.66145 0.0
H171 H 0.22871 0.76345 0.66016 0.0
C172 C 0.27074 0.62768 0.69596 0.0
C173 C 0.31814 0.60793 0.8936 0.0
C174 C 0.34362 0.5803 0.92347 0.0
C175 C 0.38037 0.59235 0.9501 0.0
C176 C 0.38988 0.63256 0.94698 0.0
C177 C 0.36382 0.65898 0.91545 0.0
N178 N 0.32918 0.64622 0.88808 0.0
H179 H 0.28979 0.59861 0.87389 0.0
H180 H 0.37114 0.68981 0.91284 0.0
C181 C 0.19977 0.68199 0.77964 0.0
N182 N 0.22671 0.7104 0.79461 0.0
C183 C 0.17574 0.75847 0.80562 0.0
C184 C 0.1472 0.7295 0.79263 0.0
C185 C 0.15973 0.6911 0.77709 0.0
C186 C 0.21546 0.74813 0.80707 0.0
H187 H 0.20879 0.65168 0.77545 0.0
H188 H 0.23722 0.76975 0.8222 0.0
C189 C 0.37127 0.72569 0.75868 0.0
C190 C 0.28044 0.73137 0.48506 0.0
N191 N 0.35721 0.67374 0.57464 0.0
C192 C 0.39147 0.69104 0.55393 0.0
C193 C 0.42347 0.66794 0.53264 0.0
C194 C 0.41997 0.62678 0.53268 0.0
C195 C 0.38363 0.61001 0.55101 0.0
C196 C 0.35253 0.63413 0.57167 0.0
C197 C 0.26732 0.71895 0.96949 0.0
O198 O 0.26136 0.6552 0.6536 0.0
O199 O 0.28631 0.6353 0.75588 0.0
O200 O 0.34352 0.73817 0.79796 0.0
O201 O 0.36371 0.70989 0.69894 0.0
O202 O 0.26062 0.70773 0.52323 0.0
O203 O 0.31212 0.7448 0.51125 0.0
O204 O 0.28986 0.73969 0.93067 0.0
O205 O 0.25561 0.68632 0.94418 0.0
H206 H 0.39439 0.72268 0.55658 0.0
H207 H 0.32482 0.62114 0.58659 0.0
H208 H 0.21157 0.83317 0.67348 0.0
H209 H 0.33597 0.86047 0.66831 0.0
H210 H 0.33481 0.54974 0.92406 0.0
H211 H 0.41713 0.64372 0.96872 0.0
H212 H 0.16732 0.78841 0.81808 0.0
H213 H 0.13867 0.66768 0.76885 0.0
H214 H 0.45101 0.68204 0.51902 0.0
H215 H 0.37936 0.57846 0.55009 0.0
H216 H 0.7115 0.83359 0.27108 0.0
H217 H 0.76279 0.73432 0.64359 0.0
H218 H 0.78134 0.72892 0.29843 0.0
H219 H 0.71382 0.85082 0.6236 0.0
H220 H 0.75202 0.72366 0.51664 0.0
H221 H 0.69463 0.8316 0.39862 0.0
C222 C 0.72237 0.80965 0.3036 0.0
C223 C 0.74839 0.7818 0.27514 0.0
C224 C 0.74318 0.75142 0.54007 0.0
C225 C 0.72953 0.77939 0.41963 0.0
C226 C 0.74944 0.75757 0.61249 0.0
C227 C 0.74005 0.79386 0.64355 0.0
C228 C 0.72787 0.78196 0.49821 0.0
C229 C 0.72204 0.82263 0.60124 0.0
C230 C 0.71295 0.80864 0.37621 0.0
C231 C 0.76176 0.75136 0.31899 0.0
N232 N 0.71713 0.81632 0.53018 0.0
N233 N 0.75255 0.75122 0.38929 0.0
H234 H 0.66456 0.22537 0.50912 0.0
H235 H 0.76578 0.25976 0.88679 0.0
H236 H 0.77156 0.29031 0.54533 0.0
H237 H 0.64417 0.22625 0.86293 0.0
H238 H 0.77555 0.25024 0.75919 0.0
H239 H 0.66424 0.20601 0.6356 0.0
C240 C 0.68841 0.23472 0.54339 0.0
C241 C 0.71775 0.25997 0.51777 0.0
C242 C 0.74682 0.24446 0.78192 0.0
C243 C 0.71774 0.23797 0.66069 0.0
C244 C 0.74121 0.24997 0.85468 0.0
C245 C 0.70385 0.2448 0.88482 0.0
C246 C 0.71475 0.23419 0.73887 0.0
C247 C 0.67327 0.23118 0.84126 0.0
C248 C 0.68814 0.22383 0.61527 0.0
C249 C 0.74803 0.27138 0.5637 0.0
N250 N 0.67919 0.22704 0.76986 0.0
N251 N 0.74707 0.26055 0.63314 0.0
H252 H 0.27947 0.14371 0.7637 0.0
H253 H 0.25447 0.25157 0.13697 0.0
H254 H 0.23748 0.26223 0.79331 0.0
H255 H 0.28219 0.12832 0.11602 0.0
H256 H 0.26659 0.26015 0.0099 0.0
H257 H 0.29886 0.14208 0.8899 0.0
C258 C 0.2754 0.16971 0.79636 0.0
C259 C 0.2562 0.20286 0.76913 0.0
C260 C 0.2705 0.23126 0.03303 0.0
C261 C 0.27788 0.20122 0.91217 0.0
C262 C 0.26343 0.22634 0.10553 0.0
C263 C 0.26638 0.189 0.13636 0.0
C264 C 0.27986 0.19844 -0.00925 0.0
C265 C 0.27902 0.15749 0.09377 0.0
C266 C 0.28623 0.16872 0.86824 0.0
C267 C 0.2515 0.23582 0.81305 0.0
N268 N 0.28456 0.16275 0.02253 0.0
N269 N 0.2618 0.23399 0.88268 0.0
H270 H 0.21511 0.68432 0.0605 0.0
H271 H 0.31396 0.78433 0.39407 0.0
H272 H 0.29755 0.78041 0.0452 0.0
H273 H 0.2199 0.69956 0.40929 0.0
H274 H 0.30022 0.79168 0.26708 0.0
H275 H 0.20784 0.69756 0.18778 0.0
C276 C 0.23127 0.70856 0.08383 0.0
C277 C 0.25768 0.73072 0.04289 0.0
C278 C 0.28215 0.77193 0.29837 0.0
C279 C 0.24986 0.7458 0.18824 0.0
C280 C 0.29008 0.76764 0.3708 0.0
C281 C 0.26863 0.7406 0.41163 0.0
C282 C 0.25295 0.74859 0.26664 0.0
C283 C 0.23758 0.72023 0.37931 0.0
C284 C 0.22704 0.7162 0.15644 0.0
C285 C 0.27737 0.7622 0.07528 0.0
N286 N 0.23111 0.72412 0.3083 0.0
N287 N 0.27361 0.76836 0.14649 0.0
H288 H 0.4371 0.6969 0.69253 0.0
H289 H 0.58428 0.75696 0.00749 0.0
H290 H 0.39983 0.75902 0.88211 0.0
H291 H 0.622 0.71719 0.7992 0.0
H292 H 0.51588 0.75031 0.96901 0.0
H293 H 0.50443 0.69774 0.73658 0.0
C294 C 0.44303 0.71095 0.74326 0.0
C295 C 0.41261 0.72804 0.78349 0.0
C296 C 0.53922 0.74271 0.9321 0.0
C297 C 0.48995 0.7286 0.83488 0.0
C298 C 0.57832 0.74644 0.95402 0.0
C299 C 0.60928 0.73779 0.90663 0.0
C300 C 0.53088 0.73008 0.86234 0.0
C301 C 0.59947 0.7237 0.8383 0.0
C302 C 0.48156 0.71124 0.76857 0.0
C303 C 0.42228 0.74553 0.84917 0.0
N304 N 0.56127 0.72055 0.81822 0.0
N305 N 0.46006 0.74526 0.8729 0.0
H306 H 0.77496 0.13241 0.03422 0.0
H307 H 0.75055 0.90355 0.12126 0.0
H308 H 0.74218 0.09066 0.24365 0.0
H309 H 0.75817 0.95201 0.90907 0.0
H310 H 0.75324 0.97048 0.17056 0.0
H311 H 0.7775 0.06497 -0.00791 0.0
C312 C 0.76921 0.10906 0.07205 0.0
C313 C 0.75845 0.11747 0.14291 0.0
C314 C 0.75415 0.9664 0.11324 0.0
C315 C 0.76004 0.03961 0.09376 0.0
C316 C 0.75267 0.92828 0.08515 0.0
C317 C 0.75428 0.92227 0.01106 0.0
C318 C 0.75759 0.9986 0.06678 0.0
C319 C 0.75646 0.95529 0.9665 0.0
C320 C 0.77006 0.07043 0.04746 0.0
C321 C 0.75032 0.08565 0.1885 0.0
N322 N 0.75831 0.99194 -0.00494 0.0
N323 N 0.7511 0.04811 0.16307 0.0
H324 H 0.41584 0.24799 0.49932 0.0
H325 H 0.55174 0.27381 0.15616 0.0
H326 H 0.37343 0.28183 0.29128 0.0
H327 H 0.6006 0.26902 0.36825 0.0
H328 H 0.48606 0.27559 0.20737 0.0
H329 H 0.4835 0.25647 0.45618 0.0
C330 C 0.42066 0.2579 0.44509 0.0
C331 C 0.38871 0.26403 0.39888 0.0
C332 C 0.51102 0.27427 0.24302 0.0
C333 C 0.466 0.27318 0.34904 0.0
C334 C 0.54862 0.27281 0.21371 0.0
C335 C 0.58173 0.27105 0.25803 0.0
C336 C 0.50614 0.27346 0.31745 0.0
C337 C 0.57582 0.27056 0.33226 0.0
C338 C 0.45929 0.26268 0.42053 0.0
C339 C 0.39684 0.27712 0.32931 0.0
N340 N 0.53867 0.27146 0.35977 0.0
N341 N 0.43455 0.28071 0.3064 0.0
H342 H 0.20792 0.88829 0.60682 0.0
H343 H 0.30819 0.08786 0.53168 0.0
H344 H 0.31565 0.91814 0.71636 0.0
H345 H 0.18203 0.08123 0.54551 0.0
H346 H 0.31295 0.02533 0.59634 0.0
H347 H 0.19779 0.95758 0.58119 0.0
C348 C 0.22918 0.90912 0.62702 0.0
C349 C 0.2631 0.89652 0.66348 0.0
C350 C 0.28425 0.03801 0.58682 0.0
C351 C 0.25197 0.97648 0.63126 0.0
C352 C 0.28156 0.07365 0.55022 0.0
C353 C 0.24472 0.08971 0.53432 0.0
C354 C 0.24979 0.0176 0.60503 0.0
C355 C 0.21097 0.06993 0.5579 0.0
C356 C 0.22334 0.9489 0.61175 0.0
C357 C 0.28969 0.92573 0.68621 0.0
N358 N 0.21425 0.03438 0.59078 0.0
N359 N 0.28397 0.96411 0.66851 0.0
H360 H 0.92977 0.77342 0.00991 0.0
H361 H 0.08325 0.70715 0.71184 0.0
H362 H 0.8935 0.75641 0.79142 0.0
H363 H 0.11474 0.76958 0.90399 0.0
H364 H 0.01338 0.71695 0.74153 0.0
H365 H 0.99748 0.76244 0.97448 0.0
C366 C 0.93586 0.76707 0.95449 0.0
C367 C 0.90562 0.76611 0.90369 0.0
C368 C 0.0357 0.72874 0.77665 0.0
C369 C 0.98384 0.75341 0.86244 0.0
C370 C 0.07547 0.72314 0.75987 0.0
C371 C 0.10486 0.73784 0.80524 0.0
C372 C 0.02541 0.74841 0.83996 0.0
C373 C 0.09317 0.75829 0.86684 0.0
C374 C 0.97475 0.76101 0.93418 0.0
C375 C 0.91579 0.75758 0.83247 0.0
N376 N 0.05447 0.76266 0.8826 0.0
N377 N 0.9541 0.7515 0.81389 0.0
H378 H 0.72156 0.40456 0.03135 0.0
H379 H 0.82435 0.60582 0.1481 0.0
H380 H 0.77938 0.42205 0.23378 0.0
H381 H 0.73887 0.59942 0.97869 0.0
H382 H 0.81638 0.53559 0.16865 0.0
H383 H 0.73635 0.47285 -0.00024 0.0
C384 C 0.73802 0.4225 0.06859 0.0
C385 C 0.74929 0.40758 0.13538 0.0
C386 C 0.79947 0.54944 0.12674 0.0
C387 C 0.76593 0.48565 0.0997 0.0
C388 C 0.80419 0.58951 0.11459 0.0
C389 C 0.7824 0.60848 0.06123 0.0
C390 C 0.77285 0.5279 0.08514 0.0
C391 C 0.7561 0.58595 0.02055 0.0
C392 C 0.74609 0.46155 0.05075 0.0
C393 C 0.77005 0.43233 0.18186 0.0
N394 N 0.75209 0.54675 0.03324 0.0
N395 N 0.77764 0.47013 0.16318 0.0
H396 H 0.90608 0.23316 0.23092 0.0
H397 H 0.08891 0.27166 0.48909 0.0
H398 H 0.90662 0.31986 0.39919 0.0
H399 H 0.10043 0.20673 0.29222 0.0
H400 H 0.02152 0.28823 0.45715 0.0
H401 H 0.9762 0.2208 0.2533 0.0
C402 C 0.92088 0.24962 0.27244 0.0
C403 C 0.90032 0.27778 0.31291 0.0
C404 C 0.0388 0.27069 0.42042 0.0
C405 C 0.98054 0.26373 0.33887 0.0
C406 C 0.07743 0.26126 0.43862 0.0
C407 C 0.10056 0.23789 0.39319 0.0
C408 C 0.02261 0.25618 0.35668 0.0
C409 C 0.08385 0.22516 0.32856 0.0
C410 C 0.96096 0.24273 0.28487 0.0
C411 C 0.9212 0.29834 0.36578 0.0
N412 N 0.04577 0.23411 0.31256 0.0
N413 N 0.95989 0.29077 0.37737 0.0
H414 H 0.18376 0.40975 0.51196 0.0
H415 H 0.30165 0.56165 0.75693 0.0
H416 H 0.28018 0.37674 0.64846 0.0
H417 H 0.22438 0.5989 0.58765 0.0
H418 H 0.29132 0.49349 0.72145 0.0
H419 H 0.19589 0.47893 0.54132 0.0
C420 C 0.2076 0.41707 0.5478 0.0
C421 C 0.231 0.38737 0.57776 0.0
C422 C 0.27656 0.51652 0.69202 0.0
C423 C 0.24484 0.46642 0.61201 0.0
C424 C 0.28219 0.55552 0.71267 0.0
C425 C 0.26353 0.58613 0.67573 0.0
C426 C 0.25184 0.50781 0.63422 0.0
C427 C 0.23923 0.57626 0.61786 0.0
C428 C 0.21457 0.45655 0.56438 0.0
C429 C 0.26168 0.39861 0.62345 0.0
N430 N 0.23393 0.53794 0.59911 0.0
N431 N 0.26749 0.43713 0.63956 0.0
H432 H 0.13123 0.98635 0.32026 0.0
H433 H 0.91407 0.96231 0.1831 0.0
H434 H 0.04582 0.07952 0.33798 0.0
H435 H 0.97841 0.86294 0.2665 0.0
H436 H 0.96447 0.00592 0.22972 0.0
H437 H 0.07808 0.94028 0.29101 0.0
C438 C 0.10121 0.99692 0.31858 0.0
C439 C 0.0927 0.03664 0.33138 0.0
C440 C 0.96733 0.97457 0.23825 0.0
C441 C 0.03231 0.98465 0.29704 0.0
C442 C 0.93844 0.94953 0.21197 0.0
C443 C 0.94165 0.90865 0.22108 0.0
C444 C 1.00023 0.95876 0.27267 0.0
C445 C 0.97482 0.89409 0.25709 0.0
C446 C 0.07101 0.97071 0.3022 0.0
C447 C 0.05345 0.04903 0.32886 0.0
N448 N 0.00301 0.91912 0.28109 0.0
N449 N 0.0247 0.0232 0.311 0.0
H450 H 0.58537 0.43473 0.52985 0.0
H451 H 0.47516 0.63469 0.42587 0.0
H452 H 0.61216 0.50041 0.33891 0.0
H453 H 0.44282 0.56059 0.6033 0.0
H454 H 0.52976 0.58991 0.39875 0.0
H455 H 0.53733 0.48463 0.5632 0.0
C456 C 0.58117 0.45973 0.49494 0.0
C457 C 0.60254 0.46316 0.4311 0.0
C458 C 0.51074 0.58357 0.44369 0.0
C459 C 0.54753 0.52071 0.46918 0.0
C460 C 0.4797 0.60918 0.45934 0.0
C461 C 0.45414 0.60111 0.51643 0.0
C462 C 0.51636 0.54988 0.4858 0.0
C463 C 0.46129 0.56756 0.55791 0.0
C464 C 0.55379 0.48831 0.51412 0.0
C465 C 0.59646 0.49666 0.38876 0.0
N466 N 0.4916 0.5432 0.54168 0.0
N467 N 0.56928 0.52402 0.40828 0.0
H468 H 0.0067 0.13409 0.71941 0.0
H469 H 0.95452 0.9196 0.86497 0.0
H470 H 0.0895 0.03782 0.72274 0.0
H471 H 0.86675 0.00176 0.79244 0.0
H472 H 0.00572 0.96754 0.8356 0.0
H473 H 0.95621 0.09004 0.76651 0.0
C474 C 0.01433 0.10374 0.72984 0.0
C475 C 0.05247 0.08967 0.7165 0.0
C476 C 0.97523 0.97515 0.82661 0.0
C477 C 0.99497 0.03943 0.77191 0.0
C478 C 0.94605 0.94797 0.84383 0.0
C479 C 0.90647 0.95674 0.83057 0.0
C480 C 0.96467 0.01142 0.79659 0.0
C481 C 0.89703 0.99376 0.80255 0.0
C482 C 0.98553 0.07872 0.75717 0.0
C483 C 0.06075 0.05023 0.73288 0.0
N484 N 0.92596 0.01976 0.78629 0.0
N485 N 0.03222 0.02651 0.75959 0.0
H486 H 0.58997 0.46799 0.08668 0.0
H487 H 0.36509 0.52346 0.02313 0.0
H488 H 0.49941 0.38006 0.06606 0.0
H489 H 0.46126 0.5942 0.94376 0.0
H490 H 0.41258 0.47453 0.06362 0.0
H491 H 0.54112 0.51908 0.06087 0.0
C492 C 0.55967 0.45956 0.07768 0.0
C493 C 0.54861 0.41987 0.07804 0.0
C494 C 0.4231 0.50094 0.03762 0.0
C495 C 0.49286 0.47786 0.04889 0.0
C496 C 0.39603 0.52885 0.01394 0.0
C497 C 0.4089 0.56318 0.97922 0.0
C498 C 0.46341 0.5076 0.02777 0.0
C499 C 0.44967 0.5687 0.97105 0.0
C500 C 0.53196 0.48861 0.06253 0.0
C501 C 0.50909 0.41038 0.06555 0.0
N502 N 0.47539 0.54126 -0.00483 0.0
N503 N 0.48255 0.4392 0.05152 0.0
loop_
_geom_bond_atom_site_label_1
_geom_bond_atom_site_label_2
_geom_bond_distance
_geom_bond_site_symmetry_2
_ccdc_geom_bond_type
Cd0 N3 2.334 . S
Cd0 N29 2.304 . S
Cd0 O36 2.268 . S
Cd0 O39 2.273 . S
Cd0 O40 2.417 . S
Cd0 O41 2.330 . S
Cd1 N16 2.304 . S
Cd1 N20 2.334 . S
Cd1 O37 2.273 . S
Cd1 O38 2.268 . S
Cd1 O42 2.417 . S
Cd1 O43 2.330 . S
C2 N3 1.332 . S
C2 C6 1.381 . S
C2 H8 0.931 . S
N3 Cd0 2.334 . S
N3 C2 1.332 . S
N3 C7 1.328 . S
C4 C5 1.396 . S
C4 C7 1.378 . S
C4 H46 0.931 . S
C5 C4 1.396 . S
C5 C6 1.382 . S
C6 C2 1.381 . S
C6 C5 1.382 . S
C6 H47 0.930 . S
C7 N3 1.328 . S
C7 C4 1.378 . S
C7 H9 0.930 . S
H8 C2 0.931 . S
H9 C7 0.930 . S
C10 O36 1.238 . S
C10 O37 1.253 1_554 S
C11 C12 1.379 . S
C11 N16 1.337 . S
C11 H17 0.929 . S
C12 C11 1.379 . S
C12 C13 1.380 . S
C12 H48 0.929 . S
C13 C12 1.380 . S
C13 C14 1.399 . S
C14 C13 1.399 . S
C14 C15 1.376 . S
C14 H49 0.931 . S
C15 C14 1.376 . S
C15 N16 1.338 . S
C15 H18 0.930 . S
N16 Cd1 2.304 . S
N16 C11 1.337 . S
N16 C15 1.338 . S
H17 C11 0.929 . S
H18 C15 0.930 . S
C19 N20 1.332 . S
C19 C23 1.381 . S
C19 H25 0.931 . S
N20 Cd1 2.334 . S
N20 C19 1.332 . S
N20 C24 1.328 . S
C21 C22 1.396 . S
C21 C24 1.378 . S
C21 H50 0.931 . S
C22 C21 1.396 . S
C22 C23 1.382 . S
C23 C19 1.381 . S
C23 C22 1.382 . S
C23 H51 0.930 . S
C24 N20 1.328 . S
C24 C21 1.378 . S
C24 H26 0.930 . S
H25 C19 0.931 . S
H26 C24 0.930 . S
C27 O38 1.238 . S
C27 O39 1.253 1_556 S
C28 O40 1.239 . S
C28 O41 1.230 . S
N29 Cd0 2.304 . S
N29 C30 1.337 . S
N29 C34 1.338 . S
C30 N29 1.337 . S
C30 C31 1.379 . S
C30 H44 0.929 . S
C31 C30 1.379 . S
C31 C32 1.380 . S
C31 H52 0.929 . S
C32 C31 1.380 . S
C32 C33 1.399 . S
C33 C32 1.399 . S
C33 C34 1.376 . S
C33 H53 0.931 . S
C34 N29 1.338 . S
C34 C33 1.376 . S
C34 H45 0.930 . S
C35 O42 1.239 . S
C35 O43 1.230 . S
O36 Cd0 2.268 . S
O36 C10 1.238 . S
O37 Cd1 2.273 . S
O37 C10 1.253 1_556 S
O38 Cd1 2.268 . S
O38 C27 1.238 . S
O39 Cd0 2.273 . S
O39 C27 1.253 1_554 S
O40 Cd0 2.417 . S
O40 C28 1.239 . S
O41 Cd0 2.330 . S
O41 C28 1.230 . S
O42 Cd1 2.417 . S
O42 C35 1.239 . S
O43 Cd1 2.330 . S
O43 C35 1.230 . S
H44 C30 0.929 . S
H45 C34 0.930 . S
H46 C4 0.931 . S
H47 C6 0.930 . S
H48 C12 0.929 . S
H49 C14 0.931 . S
H50 C21 0.931 . S
H51 C23 0.930 . S
H52 C31 0.929 . S
H53 C33 0.931 . S
Cd54 N57 2.334 . S
Cd54 N83 2.304 . S
Cd54 O90 2.268 . S
Cd54 O93 2.273 . S
Cd54 O94 2.417 . S
Cd54 O95 2.330 . S
Cd55 N70 2.304 . S
Cd55 N74 2.334 . S
Cd55 O91 2.273 . S
Cd55 O92 2.268 . S
Cd55 O96 2.417 . S
Cd55 O97 2.330 . S
C56 N57 1.332 . S
C56 C60 1.381 . S
C56 H62 0.931 . S
N57 Cd54 2.334 . S
N57 C56 1.332 . S
N57 C61 1.328 . S
C58 C59 1.396 . S
C58 C61 1.378 . S
C58 H100 0.931 . S
C59 C58 1.396 . S
C59 C60 1.382 . S
C60 C56 1.381 . S
C60 C59 1.382 . S
C60 H101 0.930 . S
C61 N57 1.328 . S
C61 C58 1.378 . S
C61 H63 0.930 . S
H62 C56 0.931 . S
H63 C61 0.930 . S
C64 O90 1.238 . S
C64 O91 1.253 . S
C65 C66 1.379 . S
C65 N70 1.337 . S
C65 H71 0.929 . S
C66 C65 1.379 . S
C66 C67 1.380 . S
C66 H102 0.929 . S
C67 C66 1.380 . S
C67 C68 1.399 . S
C68 C67 1.399 . S
C68 C69 1.376 . S
C68 H103 0.931 . S
C69 C68 1.376 . S
C69 N70 1.338 . S
C69 H72 0.930 . S
N70 Cd55 2.304 . S
N70 C65 1.337 . S
N70 C69 1.338 . S
H71 C65 0.929 . S
H72 C69 0.930 . S
C73 N74 1.332 . S
C73 C77 1.381 . S
C73 H79 0.931 . S
N74 Cd55 2.334 . S
N74 C73 1.332 . S
N74 C78 1.328 . S
C75 C76 1.396 . S
C75 C78 1.378 . S
C75 H104 0.931 . S
C76 C75 1.396 . S
C76 C77 1.382 . S
C77 C73 1.381 . S
C77 C76 1.382 . S
C77 H105 0.930 . S
C78 N74 1.328 . S
C78 C75 1.378 . S
C78 H80 0.930 . S
H79 C73 0.931 . S
H80 C78 0.930 . S
C81 O92 1.238 . S
C81 O93 1.253 . S
C82 O94 1.239 . S
C82 O95 1.230 . S
N83 Cd54 2.304 . S
N83 C84 1.337 . S
N83 C88 1.338 . S
C84 N83 1.337 . S
C84 C85 1.379 . S
C84 H98 0.929 . S
C85 C84 1.379 . S
C85 C86 1.380 . S
C85 H106 0.929 . S
C86 C85 1.380 . S
C86 C87 1.399 . S
C87 C86 1.399 . S
C87 C88 1.376 . S
C87 H107 0.931 . S
C88 N83 1.338 . S
C88 C87 1.376 . S
C88 H99 0.930 . S
C89 O96 1.239 1_556 S
C89 O97 1.230 1_556 S
O90 Cd54 2.268 . S
O90 C64 1.238 . S
O91 Cd55 2.273 . S
O91 C64 1.253 . S
O92 Cd55 2.268 . S
O92 C81 1.238 . S
O93 Cd54 2.273 . S
O93 C81 1.253 . S
O94 Cd54 2.417 . S
O94 C82 1.239 . S
O95 Cd54 2.330 . S
O95 C82 1.230 . S
O96 Cd55 2.417 . S
O96 C89 1.239 1_554 S
O97 Cd55 2.330 . S
O97 C89 1.230 1_554 S
H98 C84 0.929 . S
H99 C88 0.930 . S
H100 C58 0.931 . S
H101 C60 0.930 . S
H102 C66 0.929 . S
H103 C68 0.931 . S
H104 C75 0.931 . S
H105 C77 0.930 . S
H106 C85 0.929 . S
H107 C87 0.931 . S
Cd108 N111 2.334 . S
Cd108 N137 2.304 . S
Cd108 O144 2.268 . S
Cd108 O147 2.273 . S
Cd108 O148 2.417 . S
Cd108 O149 2.330 . S
Cd109 N124 2.304 . S
Cd109 N128 2.334 . S
Cd109 O145 2.273 . S
Cd109 O146 2.268 . S
Cd109 O150 2.417 . S
Cd109 O151 2.330 . S
C110 N111 1.332 . S
C110 C114 1.381 . S
C110 H116 0.931 . S
N111 Cd108 2.334 . S
N111 C110 1.332 . S
N111 C115 1.328 . S
C112 C113 1.396 . S
C112 C115 1.378 . S
C112 H154 0.931 . S
C113 C112 1.396 . S
C113 C114 1.382 . S
C114 C110 1.381 . S
C114 C113 1.382 . S
C114 H155 0.930 . S
C115 N111 1.328 . S
C115 C112 1.378 . S
C115 H117 0.930 . S
H116 C110 0.931 . S
H117 C115 0.930 . S
C118 O144 1.238 . S
C118 O145 1.253 . S
C119 C120 1.379 . S
C119 N124 1.337 . S
C119 H125 0.929 . S
C120 C119 1.379 . S
C120 C121 1.380 . S
C120 H156 0.929 . S
C121 C120 1.380 . S
C121 C122 1.399 . S
C122 C121 1.399 . S
C122 C123 1.376 . S
C122 H157 0.931 . S
C123 C122 1.376 . S
C123 N124 1.338 . S
C123 H126 0.930 . S
N124 Cd109 2.304 . S
N124 C119 1.337 . S
N124 C123 1.338 . S
H125 C119 0.929 . S
H126 C123 0.930 . S
C127 N128 1.332 . S
C127 C131 1.381 . S
C127 H133 0.931 . S
N128 Cd109 2.334 . S
N128 C127 1.332 . S
N128 C132 1.328 . S
C129 C130 1.396 . S
C129 C132 1.378 . S
C129 H158 0.931 . S
C130 C129 1.396 . S
C130 C131 1.382 . S
C131 C127 1.381 . S
C131 C130 1.382 . S
C131 H159 0.930 . S
C132 N128 1.328 . S
C132 C129 1.378 . S
C132 H134 0.930 . S
H133 C127 0.931 . S
H134 C132 0.930 . S
C135 O146 1.238 . S
C135 O147 1.253 . S
C136 O148 1.239 . S
C136 O149 1.230 . S
N137 Cd108 2.304 . S
N137 C138 1.337 . S
N137 C142 1.338 . S
C138 N137 1.337 . S
C138 C139 1.379 . S
C138 H152 0.929 . S
C139 C138 1.379 . S
C139 C140 1.380 . S
C139 H160 0.929 . S
C140 C139 1.380 . S
C140 C141 1.399 . S
C141 C140 1.399 . S
C141 C142 1.376 . S
C141 H161 0.931 . S
C142 N137 1.338 . S
C142 C141 1.376 . S
C142 H153 0.930 . S
C143 O150 1.239 . S
C143 O151 1.230 . S
O144 Cd108 2.268 . S
O144 C118 1.238 . S
O145 Cd109 2.273 . S
O145 C118 1.253 . S
O146 Cd109 2.268 . S
O146 C135 1.238 . S
O147 Cd108 2.273 . S
O147 C135 1.253 . S
O148 Cd108 2.417 . S
O148 C136 1.239 . S
O149 Cd108 2.330 . S
O149 C136 1.230 . S
O150 Cd109 2.417 . S
O150 C143 1.239 . S
O151 Cd109 2.330 . S
O151 C143 1.230 . S
H152 C138 0.929 . S
H153 C142 0.930 . S
H154 C112 0.931 . S
H155 C114 0.930 . S
H156 C120 0.929 . S
H157 C122 0.931 . S
H158 C129 0.931 . S
H159 C131 0.930 . S
H160 C139 0.929 . S
H161 C141 0.931 . S
Cd162 N165 2.334 . S
Cd162 N191 2.304 . S
Cd162 O198 2.268 . S
Cd162 O201 2.273 . S
Cd162 O202 2.417 . S
Cd162 O203 2.330 . S
Cd163 N178 2.304 . S
Cd163 N182 2.334 . S
Cd163 O199 2.273 . S
Cd163 O200 2.268 . S
Cd163 O204 2.417 . S
Cd163 O205 2.330 . S
C164 N165 1.332 . S
C164 C168 1.381 . S
C164 H170 0.931 . S
N165 Cd162 2.334 . S
N165 C164 1.332 . S
N165 C169 1.328 . S
C166 C167 1.396 . S
C166 C169 1.378 . S
C166 H208 0.931 . S
C167 C166 1.396 . S
C167 C168 1.382 . S
C168 C164 1.381 . S
C168 C167 1.382 . S
C168 H209 0.930 . S
C169 N165 1.328 . S
C169 C166 1.378 . S
C169 H171 0.930 . S
H170 C164 0.931 . S
H171 C169 0.930 . S
C172 O198 1.238 . S
C172 O199 1.253 . S
C173 C174 1.379 . S
C173 N178 1.337 . S
C173 H179 0.929 . S
C174 C173 1.379 . S
C174 C175 1.380 . S
C174 H210 0.929 . S
C175 C174 1.380 . S
C175 C176 1.399 . S
C176 C175 1.399 . S
C176 C177 1.376 . S
C176 H211 0.931 . S
C177 C176 1.376 . S
C177 N178 1.338 . S
C177 H180 0.930 . S
N178 Cd163 2.304 . S
N178 C173 1.337 . S
N178 C177 1.338 . S
H179 C173 0.929 . S
H180 C177 0.930 . S
C181 N182 1.332 . S
C181 C185 1.381 . S
C181 H187 0.931 . S
N182 Cd163 2.334 . S
N182 C181 1.332 . S
N182 C186 1.328 . S
C183 C184 1.396 . S
C183 C186 1.378 . S
C183 H212 0.931 . S
C184 C183 1.396 . S
C184 C185 1.382 . S
C185 C181 1.381 . S
C185 C184 1.382 . S
C185 H213 0.930 . S
C186 N182 1.328 . S
C186 C183 1.378 . S
C186 H188 0.930 . S
H187 C181 0.931 . S
H188 C186 0.930 . S
C189 O200 1.238 . S
C189 O201 1.253 . S
C190 O202 1.239 . S
C190 O203 1.230 . S
N191 Cd162 2.304 . S
N191 C192 1.337 . S
N191 C196 1.338 . S
C192 N191 1.337 . S
C192 C193 1.379 . S
C192 H206 0.929 . S
C193 C192 1.379 . S
C193 C194 1.380 . S
C193 H214 0.929 . S
C194 C193 1.380 . S
C194 C195 1.399 . S
C195 C194 1.399 . S
C195 C196 1.376 . S
C195 H215 0.931 . S
C196 N191 1.338 . S
C196 C195 1.376 . S
C196 H207 0.930 . S
C197 O204 1.239 1_554 S
C197 O205 1.230 1_554 S
O198 Cd162 2.268 . S
O198 C172 1.238 . S
O199 Cd163 2.273 . S
O199 C172 1.253 . S
O200 Cd163 2.268 . S
O200 C189 1.238 . S
O201 Cd162 2.273 . S
O201 C189 1.253 . S
O202 Cd162 2.417 . S
O202 C190 1.239 . S
O203 Cd162 2.330 . S
O203 C190 1.230 . S
O204 Cd163 2.417 . S
O204 C197 1.239 1_556 S
O205 Cd163 2.330 . S
O205 C197 1.230 1_556 S
H206 C192 0.929 . S
H207 C196 0.930 . S
H208 C166 0.931 . S
H209 C168 0.930 . S
H210 C174 0.929 . S
H211 C176 0.931 . S
H212 C183 0.931 . S
H213 C185 0.930 . S
H214 C193 0.929 . S
H215 C195 0.931 . S
H216 C222 0.930 . S
H217 C226 0.930 . S
H218 C231 0.929 . S
H219 C229 0.929 . S
H220 C224 0.929 . S
H221 C230 0.929 . S
C222 H216 0.930 . S
C222 C223 1.367 . S
C222 C230 1.378 . S
C223 C222 1.367 . S
C223 C231 1.433 . S
C224 H220 0.929 . S
C224 C226 1.378 . S
C224 C228 1.350 . S
C225 C228 1.463 . S
C225 C230 1.350 . S
C225 N233 1.427 . S
C226 H217 0.930 . S
C226 C224 1.378 . S
C226 C227 1.367 . S
C227 C226 1.367 . S
C227 C229 1.433 . S
C228 C224 1.350 . S
C228 C225 1.463 . S
C228 N232 1.427 . S
C229 H219 0.929 . S
C229 C227 1.433 . S
C229 N232 1.384 . S
C230 H221 0.929 . S
C230 C222 1.378 . S
C230 C225 1.350 . S
C231 H218 0.929 . S
C231 C223 1.433 . S
C231 N233 1.384 . S
N232 C228 1.427 . S
N232 C229 1.384 . S
N233 C225 1.427 . S
N233 C231 1.384 . S
H234 C240 0.930 . S
H235 C244 0.930 . S
H236 C249 0.929 . S
H237 C247 0.929 . S
H238 C242 0.929 . S
H239 C248 0.929 . S
C240 H234 0.930 . S
C240 C241 1.367 . S
C240 C248 1.378 . S
C241 C240 1.367 . S
C241 C249 1.433 . S
C242 H238 0.929 . S
C242 C244 1.378 . S
C242 C246 1.350 . S
C243 C246 1.463 . S
C243 C248 1.350 . S
C243 N251 1.427 . S
C244 H235 0.930 . S
C244 C242 1.378 . S
C244 C245 1.367 . S
C245 C244 1.367 . S
C245 C247 1.433 . S
C246 C242 1.350 . S
C246 C243 1.463 . S
C246 N250 1.427 . S
C247 H237 0.929 . S
C247 C245 1.433 . S
C247 N250 1.384 . S
C248 H239 0.929 . S
C248 C240 1.378 . S
C248 C243 1.350 . S
C249 H236 0.929 . S
C249 C241 1.433 . S
C249 N251 1.384 . S
N250 C246 1.427 . S
N250 C247 1.384 . S
N251 C243 1.427 . S
N251 C249 1.384 . S
H252 C258 0.930 . S
H253 C262 0.930 . S
H254 C267 0.929 . S
H255 C265 0.929 . S
H256 C260 0.929 . S
H257 C266 0.929 . S
C258 H252 0.930 . S
C258 C259 1.367 . S
C258 C266 1.378 . S
C259 C258 1.367 . S
C259 C267 1.433 . S
C260 H256 0.929 . S
C260 C262 1.378 . S
C260 C264 1.350 . S
C261 C264 1.463 1_556 S
C261 C266 1.350 . S
C261 N269 1.427 . S
C262 H253 0.930 . S
C262 C260 1.378 . S
C262 C263 1.367 . S
C263 C262 1.367 . S
C263 C265 1.433 . S
C264 C260 1.350 . S
C264 C261 1.463 1_554 S
C264 N268 1.427 . S
C265 H255 0.929 . S
C265 C263 1.433 . S
C265 N268 1.384 . S
C266 H257 0.929 . S
C266 C258 1.378 . S
C266 C261 1.350 . S
C267 H254 0.929 . S
C267 C259 1.433 . S
C267 N269 1.384 . S
N268 C264 1.427 . S
N268 C265 1.384 . S
N269 C261 1.427 . S
N269 C267 1.384 . S
H270 C276 0.930 . S
H271 C280 0.930 . S
H272 C285 0.929 . S
H273 C283 0.929 . S
H274 C278 0.929 . S
H275 C284 0.929 . S
C276 H270 0.930 . S
C276 C277 1.367 . S
C276 C284 1.378 . S
C277 C276 1.367 . S
C277 C285 1.433 . S
C278 H274 0.929 . S
C278 C280 1.378 . S
C278 C282 1.350 . S
C279 C282 1.463 . S
C279 C284 1.350 . S
C279 N287 1.427 . S
C280 H271 0.930 . S
C280 C278 1.378 . S
C280 C281 1.367 . S
C281 C280 1.367 . S
C281 C283 1.433 . S
C282 C278 1.350 . S
C282 C279 1.463 . S
C282 N286 1.427 . S
C283 H273 0.929 . S
C283 C281 1.433 . S
C283 N286 1.384 . S
C284 H275 0.929 . S
C284 C276 1.378 . S
C284 C279 1.350 . S
C285 H272 0.929 . S
C285 C277 1.433 . S
C285 N287 1.384 . S
N286 C282 1.427 . S
N286 C283 1.384 . S
N287 C279 1.427 . S
N287 C285 1.384 . S
H288 C294 0.930 . S
H289 C298 0.930 . S
H290 C303 0.929 . S
H291 C301 0.929 . S
H292 C296 0.929 . S
H293 C302 0.929 . S
C294 H288 0.930 . S
C294 C295 1.367 . S
C294 C302 1.378 . S
C295 C294 1.367 . S
C295 C303 1.433 . S
C296 H292 0.929 . S
C296 C298 1.378 . S
C296 C300 1.350 . S
C297 C300 1.463 . S
C297 C302 1.350 . S
C297 N305 1.427 . S
C298 H289 0.930 . S
C298 C296 1.378 . S
C298 C299 1.367 . S
C299 C298 1.367 . S
C299 C301 1.433 . S
C300 C296 1.350 . S
C300 C297 1.463 . S
C300 N304 1.427 . S
C301 H291 0.929 . S
C301 C299 1.433 . S
C301 N304 1.384 . S
C302 H293 0.929 . S
C302 C294 1.378 . S
C302 C297 1.350 . S
C303 H290 0.929 . S
C303 C295 1.433 . S
C303 N305 1.384 . S
N304 C300 1.427 . S
N304 C301 1.384 . S
N305 C297 1.427 . S
N305 C303 1.384 . S
H306 C312 0.930 . S
H307 C316 0.930 . S
H308 C321 0.929 . S
H309 C319 0.929 1_556 S
H310 C314 0.929 . S
H311 C320 0.929 . S
C312 H306 0.930 . S
C312 C313 1.367 . S
C312 C320 1.378 . S
C313 C312 1.367 . S
C313 C321 1.433 . S
C314 H310 0.929 . S
C314 C316 1.378 1_545 S
C314 C318 1.350 . S
C315 C318 1.463 . S
C315 C320 1.350 . S
C315 N323 1.427 . S
C316 H307 0.930 . S
C316 C314 1.378 1_565 S
C316 C317 1.367 . S
C317 C316 1.367 . S
C317 C319 1.433 . S
C318 C314 1.350 . S
C318 C315 1.463 . S
C318 N322 1.427 . S
C319 H309 0.929 1_554 S
C319 C317 1.433 . S
C319 N322 1.384 1_565 S
C320 H311 0.929 . S
C320 C312 1.378 . S
C320 C315 1.350 . S
C321 H308 0.929 . S
C321 C313 1.433 . S
C321 N323 1.384 . S
N322 C318 1.427 . S
N322 C319 1.384 1_545 S
N323 C315 1.427 . S
N323 C321 1.384 . S
H324 C330 0.930 . S
H325 C334 0.930 . S
H326 C339 0.929 . S
H327 C337 0.929 . S
H328 C332 0.929 . S
H329 C338 0.929 . S
C330 H324 0.930 . S
C330 C331 1.367 . S
C330 C338 1.378 . S
C331 C330 1.367 . S
C331 C339 1.433 . S
C332 H328 0.929 . S
C332 C334 1.378 . S
C332 C336 1.350 . S
C333 C336 1.463 . S
C333 C338 1.350 . S
C333 N341 1.427 . S
C334 H325 0.930 . S
C334 C332 1.378 . S
C334 C335 1.367 . S
C335 C334 1.367 . S
C335 C337 1.433 . S
C336 C332 1.350 . S
C336 C333 1.463 . S
C336 N340 1.427 . S
C337 H327 0.929 . S
C337 C335 1.433 . S
C337 N340 1.384 . S
C338 H329 0.929 . S
C338 C330 1.378 . S
C338 C333 1.350 . S
C339 H326 0.929 . S
C339 C331 1.433 . S
C339 N341 1.384 . S
N340 C336 1.427 . S
N340 C337 1.384 . S
N341 C333 1.427 . S
N341 C339 1.384 . S
H342 C348 0.930 . S
H343 C352 0.930 . S
H344 C357 0.929 . S
H345 C355 0.929 . S
H346 C350 0.929 . S
H347 C356 0.929 . S
C348 H342 0.930 . S
C348 C349 1.367 . S
C348 C356 1.378 . S
C349 C348 1.367 . S
C349 C357 1.433 . S
C350 H346 0.929 . S
C350 C352 1.378 1_565 S
C350 C354 1.350 . S
C351 C354 1.463 . S
C351 C356 1.350 . S
C351 N359 1.427 . S
C352 H343 0.930 . S
C352 C350 1.378 1_545 S
C352 C353 1.367 . S
C353 C352 1.367 . S
C353 C355 1.433 . S
C354 C350 1.350 . S
C354 C351 1.463 . S
C354 N358 1.427 . S
C355 H345 0.929 . S
C355 C353 1.433 . S
C355 N358 1.384 1_545 S
C356 H347 0.929 . S
C356 C348 1.378 . S
C356 C351 1.350 . S
C357 H344 0.929 . S
C357 C349 1.433 . S
C357 N359 1.384 . S
N358 C354 1.427 . S
N358 C355 1.384 1_565 S
N359 C351 1.427 . S
N359 C357 1.384 . S
H360 C366 0.930 1_554 S
H361 C370 0.930 . S
H362 C375 0.929 . S
H363 C373 0.929 . S
H364 C368 0.929 . S
H365 C374 0.929 . S
C366 H360 0.930 1_556 S
C366 C367 1.367 . S
C366 C374 1.378 1_655 S
C367 C366 1.367 . S
C367 C375 1.433 . S
C368 H364 0.929 . S
C368 C370 1.378 . S
C368 C372 1.350 . S
C369 C372 1.463 . S
C369 C374 1.350 . S
C369 N377 1.427 . S
C370 H361 0.930 . S
C370 C368 1.378 . S
C370 C371 1.367 . S
C371 C370 1.367 . S
C371 C373 1.433 . S
C372 C368 1.350 . S
C372 C369 1.463 . S
C372 N376 1.427 . S
C373 H363 0.929 . S
C373 C371 1.433 . S
C373 N376 1.384 . S
C374 H365 0.929 . S
C374 C366 1.378 1_455 S
C374 C369 1.350 . S
C375 H362 0.929 . S
C375 C367 1.433 . S
C375 N377 1.384 1_655 S
N376 C372 1.427 . S
N376 C373 1.384 . S
N377 C369 1.427 . S
N377 C375 1.384 1_455 S
H378 C384 0.930 . S
H379 C388 0.930 . S
H380 C393 0.929 . S
H381 C391 0.929 . S
H382 C386 0.929 . S
H383 C392 0.929 . S
C384 H378 0.930 . S
C384 C385 1.367 . S
C384 C392 1.378 . S
C385 C384 1.367 . S
C385 C393 1.433 . S
C386 H382 0.929 . S
C386 C388 1.378 . S
C386 C390 1.350 . S
C387 C390 1.463 . S
C387 C392 1.350 . S
C387 N395 1.427 . S
C388 H379 0.930 . S
C388 C386 1.378 . S
C388 C389 1.367 . S
C389 C388 1.367 . S
C389 C391 1.433 . S
C390 C386 1.350 . S
C390 C387 1.463 . S
C390 N394 1.427 . S
C391 H381 0.929 . S
C391 C389 1.433 . S
C391 N394 1.384 . S
C392 H383 0.929 . S
C392 C384 1.378 . S
C392 C387 1.350 . S
C393 H380 0.929 . S
C393 C385 1.433 . S
C393 N395 1.384 . S
N394 C390 1.427 . S
N394 C391 1.384 . S
N395 C387 1.427 . S
N395 C393 1.384 . S
H396 C402 0.930 . S
H397 C406 0.930 . S
H398 C411 0.929 . S
H399 C409 0.929 . S
H400 C404 0.929 . S
H401 C410 0.929 . S
C402 H396 0.930 . S
C402 C403 1.367 . S
C402 C410 1.378 . S
C403 C402 1.367 . S
C403 C411 1.433 . S
C404 H400 0.929 . S
C404 C406 1.378 1_655 S
C404 C408 1.350 . S
C405 C408 1.463 . S
C405 C410 1.350 . S
C405 N413 1.427 . S
C406 H397 0.930 . S
C406 C404 1.378 1_455 S
C406 C407 1.367 . S
C407 C406 1.367 . S
C407 C409 1.433 . S
C408 C404 1.350 . S
C408 C405 1.463 . S
C408 N412 1.427 . S
C409 H399 0.929 . S
C409 C407 1.433 . S
C409 N412 1.384 1_455 S
C410 H401 0.929 . S
C410 C402 1.378 . S
C410 C405 1.350 . S
C411 H398 0.929 . S
C411 C403 1.433 . S
C411 N413 1.384 . S
N412 C408 1.427 . S
N412 C409 1.384 1_655 S
N413 C405 1.427 . S
N413 C411 1.384 . S
H414 C420 0.930 . S
H415 C424 0.930 . S
H416 C429 0.929 . S
H417 C427 0.929 . S
H418 C422 0.929 . S
H419 C428 0.929 . S
C420 H414 0.930 . S
C420 C421 1.367 . S
C420 C428 1.378 . S
C421 C420 1.367 . S
C421 C429 1.433 . S
C422 H418 0.929 . S
C422 C424 1.378 . S
C422 C426 1.350 . S
C423 C426 1.463 . S
C423 C428 1.350 . S
C423 N431 1.427 . S
C424 H415 0.930 . S
C424 C422 1.378 . S
C424 C425 1.367 . S
C425 C424 1.367 . S
C425 C427 1.433 . S
C426 C422 1.350 . S
C426 C423 1.463 . S
C426 N430 1.427 . S
C427 H417 0.929 . S
C427 C425 1.433 . S
C427 N430 1.384 . S
C428 H419 0.929 . S
C428 C420 1.378 . S
C428 C423 1.350 . S
C429 H416 0.929 . S
C429 C421 1.433 . S
C429 N431 1.384 . S
N430 C426 1.427 . S
N430 C427 1.384 . S
N431 C423 1.427 . S
N431 C429 1.384 . S
H432 C438 0.930 . S
H433 C442 0.930 . S
H434 C447 0.929 . S
H435 C445 0.929 . S
H436 C440 0.940 . S
H437 C446 0.929 . S
C438 H432 0.930 . S
C438 C439 1.367 1_565 S
C438 C446 1.378 . S
C439 C438 1.367 1_545 S
C439 C447 1.433 . S
C440 H436 0.940 . S
C440 C442 1.373 1_445 S
C440 C444 1.344 1_545 S
C441 C444 1.463 . S
C441 C446 1.350 . S
C441 N449 1.427 1_565 S
C442 H433 0.930 . S
C442 C440 1.373 1_665 S
C442 C443 1.367 . S
C443 C442 1.367 . S
C443 C445 1.433 . S
C444 C440 1.344 1_565 S
C444 C441 1.463 . S
C444 N448 1.427 1_455 S
C445 H435 0.929 . S
C445 C443 1.433 . S
C445 N448 1.384 . S
C446 H437 0.929 . S
C446 C438 1.378 . S
C446 C441 1.350 . S
C447 H434 0.929 . S
C447 C439 1.433 . S
C447 N449 1.384 . S
N448 C444 1.427 1_655 S
N448 C445 1.384 . S
N449 C441 1.427 1_545 S
N449 C447 1.384 . S
H450 C456 0.930 . S
H451 C460 0.930 . S
H452 C465 0.929 . S
H453 C463 0.929 . S
H454 C458 0.929 . S
H455 C464 0.929 . S
C456 H450 0.930 . S
C456 C457 1.367 . S
C456 C464 1.378 . S
C457 C456 1.367 . S
C457 C465 1.433 . S
C458 H454 0.929 . S
C458 C460 1.378 . S
C458 C462 1.350 . S
C459 C462 1.463 . S
C459 C464 1.350 . S
C459 N467 1.427 . S
C460 H451 0.930 . S
C460 C458 1.378 . S
C460 C461 1.367 . S
C461 C460 1.367 . S
C461 C463 1.433 . S
C462 C458 1.350 . S
C462 C459 1.463 . S
C462 N466 1.427 . S
C463 H453 0.929 . S
C463 C461 1.433 . S
C463 N466 1.384 . S
C464 H455 0.929 . S
C464 C456 1.378 . S
C464 C459 1.350 . S
C465 H452 0.929 . S
C465 C457 1.433 . S
C465 N467 1.384 . S
N466 C462 1.427 . S
N466 C463 1.384 . S
N467 C459 1.427 . S
N467 C465 1.384 . S
H468 C474 0.930 . S
H469 C478 0.930 . S
H470 C483 0.929 1_565 S
H471 C481 0.929 . S
H472 C476 0.929 . S
H473 C482 0.929 . S
C474 H468 0.930 . S
C474 C475 1.367 . S
C474 C482 1.378 1_455 S
C475 C474 1.367 . S
C475 C483 1.433 . S
C476 H472 0.929 . S
C476 C478 1.378 . S
C476 C480 1.335 1_565 S
C477 C480 1.470 . S
C477 C482 1.350 . S
C477 N485 1.427 1_645 S
C478 H469 0.930 . S
C478 C476 1.378 . S
C478 C479 1.367 . S
C479 C478 1.367 . S
C479 C481 1.433 1_565 S
C480 C476 1.335 1_545 S
C480 C477 1.470 . S
C480 N484 1.437 . S
C481 H471 0.929 . S
C481 C479 1.433 1_545 S
C481 N484 1.384 . S
C482 H473 0.929 . S
C482 C474 1.378 1_655 S
C482 C477 1.350 . S
C483 H470 0.929 1_545 S
C483 C475 1.433 . S
C483 N485 1.384 1_545 S
N484 C480 1.437 . S
N484 C481 1.384 . S
N485 C477 1.427 1_465 S
N485 C483 1.384 1_565 S
H486 C492 0.930 . S
H487 C496 0.930 . S
H488 C501 0.929 . S
H489 C499 0.929 . S
H490 C494 0.929 . S
H491 C500 0.929 . S
C492 H486 0.930 . S
C492 C493 1.367 . S
C492 C500 1.378 . S
C493 C492 1.367 . S
C493 C501 1.433 . S
C494 H490 0.929 . S
C494 C496 1.378 . S
C494 C498 1.350 . S
C495 C498 1.463 1_554 S
C495 C500 1.350 . S
C495 N503 1.427 . S
C496 H487 0.930 . S
C496 C494 1.378 . S
C496 C497 1.367 . S
C497 C496 1.367 . S
C497 C499 1.433 . S
C498 C494 1.350 . S
C498 C495 1.463 1_556 S
C498 N502 1.427 . S
C499 H489 0.929 . S
C499 C497 1.433 . S
C499 N502 1.384 . S
C500 H491 0.929 . S
C500 C492 1.378 . S
C500 C495 1.350 . S
C501 H488 0.929 . S
C501 C493 1.433 . S
C501 N503 1.384 . S
N502 C498 1.427 . S
N502 C499 1.384 . S
N503 C495 1.427 . S
N503 C501 1.384 . S
C223 C28 0.959 . S
C227 C35 0.959 . S
C241 C82 0.961 . S
C245 C89 0.962 . S
C259 C143 0.959 . S
C263 C136 0.959 . S
C277 C197 0.964 . S
C281 C190 0.963 . S
C295 C189 2.359 . S
C299 C22 2.349 . S
C313 C76 2.356 . S
C317 C10 2.370 . S
C331 C113 2.361 . S
C335 C64 2.369 . S
C349 C167 2.360 . S
C353 C135 2.372 . S
C367 C27 2.359 . S
C371 C184 2.351 . S
C385 C81 2.364 . S
C389 C5 2.349 . S
C403 C59 2.361 . S
C407 C118 2.371 . S
C421 C130 2.349 . S
C425 C172 2.359 . S
C439 C140 0.755 . S
C443 C32 0.755 . S
C457 C86 0.709 . S
C461 C194 0.710 . S
C475 C121 0.721 . S
C479 C13 0.720 . S
C493 C67 0.723 . S
C497 C175 0.724 . S
