# Generated by pormake.
# Topology snz, (6)-cn, num edge types: 1
# Building blocks:
#     Node 0, Type 0, BuildingBlock: JUFBIX_clean_sbu_0, # of connection points: 6
#     Node 1, Type 0, BuildingBlock: JUFBIX_clean_sbu_0, # of connection points: 6
#     Node 2, Type 0, BuildingBlock: JUFBIX_clean_sbu_0, # of connection points: 6
#     Node 3, Type 0, BuildingBlock: JUFBIX_clean_sbu_0, # of connection points: 6
#     Node 4, Type 0, BuildingBlock: JUFBIX_clean_sbu_0, # of connection points: 6
#     Node 5, Type 0, BuildingBlock: JUFBIX_clean_sbu_0, # of connection points: 6
#     Node 6, Type 0, BuildingBlock: JUFBIX_clean_sbu_0, # of connection points: 6
#     Node 7, Type 0, BuildingBlock: JUFBIX_clean_sbu_0, # of connection points: 6
#     Node 8, Type 0, BuildingBlock: JUFBIX_clean_sbu_0, # of connection points: 6
#     Edge 9, Type (0, 0), BuildingBlock: KIFKEQ_clean_linker_1, # of connection points: 2
#     Edge 10, Type (0, 0), BuildingBlock: KIFKEQ_clean_linker_1, # of connection points: 2
#     Edge 11, Type (0, 0), BuildingBlock: KIFKEQ_clean_linker_1, # of connection points: 2
#     Edge 12, Type (0, 0), BuildingBlock: KIFKEQ_clean_linker_1, # of connection points: 2
#     Edge 13, Type (0, 0), BuildingBlock: KIFKEQ_clean_linker_1, # of connection points: 2
#     Edge 14, Type (0, 0), BuildingBlock: KIFKEQ_clean_linker_1, # of connection points: 2
#     Edge 15, Type (0, 0), BuildingBlock: KIFKEQ_clean_linker_1, # of connection points: 2
#     Edge 16, Type (0, 0), BuildingBlock: KIFKEQ_clean_linker_1, # of connection points: 2
#     Edge 17, Type (0, 0), BuildingBlock: KIFKEQ_clean_linker_1, # of connection points: 2
#     Edge 18, Type (0, 0), BuildingBlock: KIFKEQ_clean_linker_1, # of connection points: 2
#     Edge 19, Type (0, 0), BuildingBlock: KIFKEQ_clean_linker_1, # of connection points: 2
#     Edge 20, Type (0, 0), BuildingBlock: KIFKEQ_clean_linker_1, # of connection points: 2
#     Edge 21, Type (0, 0), BuildingBlock: KIFKEQ_clean_linker_1, # of connection points: 2
#     Edge 22, Type (0, 0), BuildingBlock: KIFKEQ_clean_linker_1, # of connection points: 2
#     Edge 23, Type (0, 0), BuildingBlock: KIFKEQ_clean_linker_1, # of connection points: 2
#     Edge 24, Type (0, 0), BuildingBlock: KIFKEQ_clean_linker_1, # of connection points: 2
#     Edge 25, Type (0, 0), BuildingBlock: KIFKEQ_clean_linker_1, # of connection points: 2
#     Edge 26, Type (0, 0), BuildingBlock: KIFKEQ_clean_linker_1, # of connection points: 2
#     Edge 27, Type (0, 0), BuildingBlock: KIFKEQ_clean_linker_1, # of connection points: 2
#     Edge 28, Type (0, 0), BuildingBlock: KIFKEQ_clean_linker_1, # of connection points: 2
#     Edge 29, Type (0, 0), BuildingBlock: KIFKEQ_clean_linker_1, # of connection points: 2
#     Edge 30, Type (0, 0), BuildingBlock: KIFKEQ_clean_linker_1, # of connection points: 2
#     Edge 31, Type (0, 0), BuildingBlock: KIFKEQ_clean_linker_1, # of connection points: 2
#     Edge 32, Type (0, 0), BuildingBlock: KIFKEQ_clean_linker_1, # of connection points: 2
#     Edge 33, Type (0, 0), BuildingBlock: KIFKEQ_clean_linker_1, # of connection points: 2
#     Edge 34, Type (0, 0), BuildingBlock: KIFKEQ_clean_linker_1, # of connection points: 2
#     Edge 35, Type (0, 0), BuildingBlock: KIFKEQ_clean_linker_1, # of connection points: 2
# Relax obj value: 0.335
# Max RMSD: 0.272
# Mean RMSD: 0.226
data_MOF--net-snz--node1-JUFBIX_clean_sbu_0--edge1-KIFKEQ_clean_linker_1
_symmetry_space_group_name_H-M    P1
_symmetry_Int_Tables_number       1
_symmetry_cell_setting            triclinic
loop_
_symmetry_equiv_pos_as_xyz
'x, y, z'
_cell_length_a     54.138646
_cell_length_b     58.645559
_cell_length_c     15.03446
_cell_angle_alpha  90.474139
_cell_angle_beta   90.058446
_cell_angle_gamma 119.93962
loop_
_atom_site_label
_atom_site_type_symbol
_atom_site_fract_x
_atom_site_fract_y
_atom_site_fract_z
_atom_type_partial_charge
Co0 Co 0.15271 0.57309 0.85293 0.0
C1 C 0.12793 0.5546 0.01818 0.0
Co2 Co 0.1139 0.53349 0.85045 0.0
C3 C 0.19263 0.62515 0.92157 0.0
C4 C 0.20904 0.6144 0.80952 0.0
N5 N 0.18541 0.60611 0.8591 0.0
N6 N 0.21999 0.64479 0.91405 0.0
C7 C 0.23022 0.63806 0.84286 0.0
H8 H 0.17829 0.6241 -0.02656 0.0
H9 H 0.21129 0.60324 0.75565 0.0
C10 C 0.13807 0.55147 0.68509 0.0
N11 N 0.08201 0.49961 0.8442 0.0
C12 C 0.08162 0.47751 0.81504 0.0
C13 C 0.05492 0.4914 0.86872 0.0
N14 N 0.05552 0.45585 0.82078 0.0
C15 C 0.03859 0.46458 0.85411 0.0
C16 C 0.10315 0.5751 0.82513 0.0
O17 O 0.15663 0.57157 0.72784 0.0
O18 O 0.11814 0.53254 0.72696 0.0
O19 O 0.09065 0.55003 0.83165 0.0
O20 O 0.13008 0.58853 0.83419 0.0
O21 O 0.10978 0.53457 -0.02567 0.0
H22 H 0.04756 0.50401 0.89658 0.0
H23 H 0.10019 0.47731 0.7895 0.0
O24 O 0.14799 0.57382 -0.02244 0.0
O25 O 0.17546 0.55778 0.87183 0.0
O26 O 0.13801 0.51832 0.86988 0.0
C27 C 0.16482 0.53315 0.87914 0.0
H28 H 0.25194 0.64861 0.81923 0.0
H29 H 1.01618 0.45237 0.86914 0.0
Co30 Co 0.63439 0.53121 0.95745 0.0
C31 C 0.63068 0.55179 0.79287 0.0
Co32 Co 0.6365 0.56993 0.96109 0.0
C33 C 0.61447 0.47414 0.95375 0.0
C34 C 0.65526 0.49816 0.89468 0.0
N35 N 0.63449 0.49959 0.93974 0.0
N36 N 0.62235 0.45721 0.91997 0.0
C37 C 0.64805 0.47248 0.88321 0.0
H38 H 0.59416 0.46814 -0.01505 0.0
H39 H 0.67384 0.51459 0.86603 0.0
C40 C 0.63989 0.54934 0.12586 0.0
N41 N 0.63826 0.6021 -0.02288 0.0
C42 C 0.65868 0.62226 0.02511 0.0
C43 C 0.61984 0.6102 0.95366 0.0
N44 N 0.65387 0.6426 0.03315 0.0
C45 C 0.62933 0.63512 -0.01141 0.0
C46 C 0.58129 0.52641 -0.02331 0.0
O47 O 0.63741 0.52956 0.08253 0.0
O48 O 0.64065 0.56843 0.08438 0.0
O49 O 0.59584 0.55148 -0.02413 0.0
O50 O 0.594 0.51322 0.96695 0.0
O51 O 0.63227 0.57104 0.8371 0.0
H52 H 0.60043 0.5985 0.91591 0.0
H53 H 0.67616 0.62154 0.05733 0.0
O54 O 0.63124 0.53311 0.83314 0.0
O55 O 0.67485 0.54995 0.94893 0.0
O56 O 0.67695 0.58801 0.946 0.0
C57 C 0.68956 0.57473 0.94223 0.0
H58 H 0.66002 0.46561 0.84493 0.0
H59 H 0.61887 0.64667 -0.01745 0.0
Co60 Co 0.67278 0.02455 0.19475 0.0
C61 C 0.67921 0.04786 0.36214 0.0
Co62 Co 0.66891 0.06026 0.19651 0.0
C63 C 0.69907 0.9942 0.23853 0.0
C64 C 0.65847 0.97007 0.17614 0.0
N65 N 0.67697 0.99512 0.2006 0.0
N66 N 0.69506 0.96961 0.23952 0.0
C67 C 0.66949 0.95428 0.2005 0.0
H68 H 0.71729 1.01112 0.26828 0.0
H69 H 0.63803 0.96361 0.14464 0.0
C70 C 0.66254 0.03652 0.0292 0.0
N71 N 0.66588 0.09025 0.19223 0.0
C72 C 0.64947 0.09512 0.13692 0.0
C73 C 0.68241 0.11323 0.23544 0.0
N74 N 0.65543 0.12034 0.1427 0.0
C75 C 0.67608 0.13179 0.20494 0.0
C76 C 0.72375 0.07069 0.16069 0.0
O77 O 0.66597 0.01967 0.07165 0.0
O78 O 0.66234 0.05531 0.07138 0.0
O79 O 0.70838 0.08107 0.17399 0.0
O80 O 0.71271 0.04595 0.16958 0.0
O81 O 0.6755 0.06477 0.32112 0.0
H82 H 0.69888 0.11657 0.28316 0.0
H83 H 0.63457 0.08084 0.08966 0.0
O84 O 0.67961 0.02946 0.3184 0.0
O85 O 0.63247 1.00354 0.21798 0.0
O86 O 0.62934 0.03946 0.2185 0.0
C87 C 0.61747 0.01464 0.22686 0.0
H88 H 0.65943 0.93319 0.19085 0.0
H89 H 0.68635 0.15226 0.22541 0.0
Co90 Co 0.87456 0.90607 0.51088 0.0
C91 C 0.85036 0.88804 0.67626 0.0
Co92 Co 0.8358 0.86645 0.50844 0.0
C93 C 0.90679 0.96208 0.54617 0.0
C94 C 0.93357 0.94815 0.4934 0.0
N95 N 0.90643 0.93997 0.51729 0.0
N96 N 0.93292 0.98371 0.54089 0.0
C97 C 0.9499 0.97497 0.50813 0.0
H98 H 0.88819 0.96231 0.57125 0.0
H99 H 0.94096 0.93553 0.46596 0.0
C100 C 0.86061 0.885 0.34318 0.0
N101 N 0.80317 0.8334 0.50208 0.0
C102 C 0.79609 0.81443 0.43945 0.0
C103 C 0.77945 0.82504 0.55129 0.0
N104 N 0.76873 0.79477 0.44645 0.0
C105 C 0.75835 0.8014 0.51752 0.0
C106 C 0.82358 0.90632 0.48214 0.0
O107 O 0.87873 0.90505 0.38702 0.0
O108 O 0.84059 0.86576 0.38381 0.0
O109 O 0.81299 0.88169 0.48945 0.0
O110 O 0.85038 0.92119 0.49144 0.0
O111 O 0.83183 0.86792 0.63351 0.0
H112 H 0.77709 0.83613 0.60513 0.0
H113 H 0.81053 0.81556 0.3878 0.0
O114 O 0.87028 0.90698 0.63438 0.0
O115 O 0.89786 0.88958 0.52969 0.0
O116 O 0.85848 0.85105 0.52728 0.0
C117 C 0.8854 0.86451 0.53629 0.0
H118 H 0.97235 0.98716 0.49363 0.0
H119 H 0.73658 0.7908 0.54071 0.0
Co120 Co 0.35178 0.87098 0.39134 0.0
C121 C 0.34764 0.891 0.22597 0.0
Co122 Co 0.35292 0.90934 0.3938 0.0
C123 C 0.33031 0.81866 0.32848 0.0
C124 C 0.36923 0.83121 0.39998 0.0
N125 N 0.35063 0.83904 0.37599 0.0
N126 N 0.33533 0.79843 0.32136 0.0
C127 C 0.35994 0.80623 0.36591 0.0
H128 H 0.31269 0.81911 0.2961 0.0
H129 H 0.38861 0.84311 0.4377 0.0
C130 C 0.35731 0.88934 0.55899 0.0
N131 N 0.35225 0.94082 0.41056 0.0
C132 C 0.37278 0.96638 0.40161 0.0
C133 C 0.33047 0.94203 0.44973 0.0
N134 N 0.3643 0.98314 0.43294 0.0
C135 C 0.33765 0.96765 0.46278 0.0
C136 C 0.29823 0.86525 0.41029 0.0
O137 O 0.35581 0.87005 0.51519 0.0
O138 O 0.35664 0.90792 0.5183 0.0
O139 O 0.31256 0.89005 0.40403 0.0
O140 O 0.31124 0.85234 0.40576 0.0
O141 O 0.3493 0.91048 0.26903 0.0
H142 H 0.31108 0.92551 0.47377 0.0
H143 H 0.39383 0.97255 0.37597 0.0
O144 O 0.3478 0.87234 0.26768 0.0
O145 O 0.39254 0.88997 0.37776 0.0
O146 O 0.39324 0.92778 0.38211 0.0
C147 C 0.40651 0.91504 0.37442 0.0
H148 H 0.37054 0.79482 0.37269 0.0
H149 H 0.32484 0.97422 0.49778 0.0
Co150 Co 0.32104 0.3805 0.1703 0.0
C151 C 0.32657 0.40409 0.33695 0.0
Co152 Co 0.31615 0.41565 0.17066 0.0
C153 C 0.34099 0.34641 0.23289 0.0
C154 C 0.30914 0.32793 0.13148 0.0
N155 N 0.32481 0.35092 0.1754 0.0
N156 N 0.33567 0.32135 0.22822 0.0
C157 C 0.31577 0.30973 0.16371 0.0
H158 H 0.35573 0.36112 0.27931 0.0
H159 H 0.29287 0.32425 0.08253 0.0
C160 C 0.3106 0.3925 0.00391 0.0
N161 N 0.31136 0.44473 0.16434 0.0
C162 C 0.2892 0.44542 0.12579 0.0
C163 C 0.32961 0.46982 0.18895 0.0
N164 N 0.29298 0.46993 0.12446 0.0
C165 C 0.31842 0.48542 0.16399 0.0
C166 C 0.37197 0.42662 0.14089 0.0
O167 O 0.3152 0.37616 0.04517 0.0
O168 O 0.30917 0.41042 0.04742 0.0
O169 O 0.35629 0.4371 0.14641 0.0
O170 O 0.36072 0.40192 0.1512 0.0
O171 O 0.32311 0.42086 0.294 0.0
H172 H 0.35003 0.47645 0.22086 0.0
H173 H 0.27116 0.42841 0.09576 0.0
O174 O 0.32683 0.38529 0.29531 0.0
O175 O 0.28143 0.35908 0.19062 0.0
O176 O 0.27639 0.39382 0.19628 0.0
C177 C 0.2657 0.3691 0.20429 0.0
H178 H 0.30549 0.28918 0.14443 0.0
H179 H 0.32829 0.5065 0.17348 0.0
Co180 Co 0.51286 0.2191 0.68861 0.0
C181 C 0.46628 0.17034 0.65074 0.0
Co182 Co 0.47232 0.2194 0.68571 0.0
C183 C 0.54997 0.20119 0.74705 0.0
C184 C 0.57281 0.23582 0.66887 0.0
N185 N 0.54651 0.2185 0.69797 0.0
N186 N 0.57744 0.20715 0.75187 0.0
C187 C 0.59191 0.22888 0.70192 0.0
H188 H 0.53254 0.18486 0.78063 0.0
H189 H 0.57791 0.25297 0.62953 0.0
C190 C 0.51893 0.26818 0.72337 0.0
N191 N 0.4386 0.21988 0.67688 0.0
C192 C 0.43478 0.23745 0.63054 0.0
C193 C 0.41243 0.20216 0.70606 0.0
N194 N 0.40727 0.23134 0.62847 0.0
C195 C 0.39303 0.20909 0.67585 0.0
C196 C 0.4858 0.2112 0.85298 0.0
O197 O 0.53248 0.25576 0.7153 0.0
O198 O 0.49218 0.25611 0.71026 0.0
O199 O 0.46691 0.21322 0.80926 0.0
O200 O 0.50693 0.21239 0.81227 0.0
O201 O 0.45267 0.18267 0.66022 0.0
H202 H 0.40766 0.18488 0.74417 0.0
H203 H 0.45171 0.25372 0.59504 0.0
O204 O 0.49307 0.18248 0.66268 0.0
O205 O 0.51849 0.22582 0.56403 0.0
O206 O 0.47787 0.22557 0.5631 0.0
C207 C 0.49898 0.22717 0.5212 0.0
H208 H 0.61479 0.23975 0.69325 0.0
H209 H 0.37024 0.19838 0.6865 0.0
Co210 Co 1.01739 0.22685 0.67908 0.0
C211 C 1.00403 0.26721 0.69394 0.0
Co212 Co 0.97108 0.21269 0.68265 0.0
C213 C 0.07292 0.25715 0.60289 0.0
C214 C 0.07349 0.23313 0.70823 0.0
N215 N 0.05625 0.23982 0.66518 0.0
N216 N 0.09984 0.26137 0.60412 0.0
C217 C 0.10027 0.24631 0.67092 0.0
H218 H 0.06503 0.26572 0.55515 0.0
H219 H 0.06686 0.21911 0.76181 0.0
C220 C 0.98443 0.17234 0.66781 0.0
N221 N 0.93221 0.19966 0.6963 0.0
C222 C 0.91541 0.18185 0.75723 0.0
C223 C 0.9151 0.20684 0.65492 0.0
N224 N 0.88857 0.17783 0.75693 0.0
C225 C 0.8883 0.19348 0.692 0.0
C226 C 0.99083 0.2208 0.51401 0.0
O227 O 1.01009 0.19127 0.67087 0.0
O228 O 0.96424 0.17749 0.67226 0.0
O229 O 0.96802 0.21393 0.55711 0.0
O230 O 1.01367 0.22698 0.55576 0.0
O231 O 0.97839 0.24822 0.69363 0.0
H232 H 0.92187 0.22133 0.60287 0.0
H233 H 0.92317 0.17281 0.80349 0.0
O234 O 0.02421 0.26211 0.68672 0.0
O235 O 1.02068 0.2265 0.80417 0.0
O236 O 0.97459 0.21161 0.80645 0.0
C237 C 0.99773 0.21848 0.84758 0.0
H238 H 0.11849 0.24466 0.69115 0.0
H239 H 0.8702 0.19549 0.67308 0.0
Co240 Co 0.97237 0.70281 0.67947 0.0
C241 C 0.97495 0.75142 0.65969 0.0
Co242 Co 1.01622 0.73676 0.6808 0.0
C243 C 0.91257 0.67288 0.72283 0.0
C244 C 0.92576 0.65119 0.63955 0.0
N245 N 0.93542 0.67469 0.68018 0.0
N246 N 0.88891 0.6491 0.71072 0.0
C247 C 0.89731 0.63544 0.65824 0.0
H248 H 0.91345 0.68885 0.76183 0.0
H249 H 0.93868 0.64575 0.59969 0.0
C250 C 1.01365 0.68816 0.70067 0.0
N251 N 0.05318 0.76484 0.67999 0.0
C252 C 0.07596 0.7665 0.63731 0.0
C253 C 0.06292 0.78844 0.71996 0.0
N254 N 0.09966 0.7903 0.64868 0.0
C255 C 0.09136 0.8041 0.70079 0.0
C256 C 0.99265 0.7232 0.847 0.0
O257 O 0.98695 0.67912 0.69272 0.0
O258 O 0.03033 0.71293 0.69676 0.0
O259 O 1.01475 0.73977 0.80565 0.0
O260 O 0.97152 0.70551 0.80375 0.0
O261 O 1.0017 0.7604 0.66517 0.0
H262 H 0.05006 0.79401 0.75953 0.0
H263 H 0.07497 0.75043 0.59867 0.0
O264 O 0.95823 0.72671 0.66592 0.0
O265 O 0.97346 0.70031 0.55527 0.0
O266 O 1.01736 0.73349 0.55587 0.0
C267 C 0.99573 0.71619 0.51328 0.0
H268 H 0.88412 0.61528 0.63605 0.0
H269 H 0.10457 0.82432 0.72234 0.0
H270 H 0.09368 0.51921 0.57825 0.0
H271 H 0.18084 0.58313 0.57139 0.0
H272 H 0.09038 0.52075 0.41817 0.0
H273 H 0.17811 0.58377 0.40933 0.0
H274 H 0.15477 0.59664 0.13147 0.0
H275 H 0.15745 0.59572 0.29316 0.0
H276 H 0.10513 0.51085 0.28542 0.0
H277 H 0.10125 0.51202 0.12495 0.0
C278 C 0.11238 0.53327 0.54219 0.0
C279 C 0.13757 0.55102 0.58724 0.0
C280 C 0.11051 0.53409 0.45012 0.0
C281 C 0.13397 0.55236 0.40056 0.0
C282 C 0.15945 0.56977 0.44556 0.0
C283 C 0.16115 0.56924 0.53821 0.0
C284 C 0.14355 0.57787 0.16476 0.0
C285 C 0.12763 0.55442 0.11594 0.0
C286 C 0.14535 0.57728 0.25724 0.0
C287 C 0.13166 0.5532 0.30245 0.0
C288 C 0.11554 0.52981 0.25319 0.0
C289 C 0.11333 0.53044 0.16106 0.0
H290 H 0.65037 0.59385 0.6827 0.0
H291 H 0.61073 0.50911 0.68367 0.0
H292 H 0.65443 0.59354 0.52144 0.0
H293 H 0.61337 0.50855 0.52221 0.0
H294 H 0.64804 0.51778 0.24205 0.0
H295 H 0.64615 0.51886 0.40444 0.0
H296 H 0.62742 0.58236 0.39049 0.0
H297 H 0.63076 0.58215 0.23034 0.0
C298 C 0.64199 0.57514 0.64807 0.0
C299 C 0.63021 0.55153 0.69525 0.0
C300 C 0.64428 0.5749 0.55572 0.0
C301 C 0.63433 0.55099 0.50877 0.0
C302 C 0.62185 0.52733 0.55627 0.0
C303 C 0.62002 0.52763 0.64864 0.0
C304 C 0.64378 0.53206 0.27415 0.0
C305 C 0.63972 0.54993 0.22369 0.0
C306 C 0.64246 0.53258 0.36697 0.0
C307 C 0.63661 0.55072 0.41058 0.0
C308 C 0.63256 0.56851 0.35954 0.0
C309 C 0.63432 0.56827 0.2674 0.0
H310 H 0.64424 0.06155 0.91704 0.0
H311 H 0.68231 0.01204 0.92075 0.0
H312 H 0.64894 0.0646 0.75557 0.0
H313 H 0.68858 0.01625 0.76096 0.0
H314 H 0.67088 1.00707 0.46607 0.0
H315 H 0.66505 1.00346 0.62571 0.0
H316 H 0.68257 0.0839 0.64115 0.0
H317 H 0.68676 0.08692 0.47939 0.0
C318 C 0.65352 0.05126 0.88317 0.0
C319 C 0.66264 0.03635 0.93122 0.0
C320 C 0.65658 0.05327 0.79081 0.0
C321 C 0.66932 0.04081 0.74487 0.0
C322 C 0.67817 0.02572 0.79342 0.0
C323 C 0.67461 0.0233 0.88531 0.0
C324 C 0.67379 0.02412 0.50349 0.0
C325 C 0.67935 0.04732 0.46018 0.0
C326 C 0.67052 0.02207 0.59543 0.0
C327 C 0.67329 0.04336 0.64684 0.0
C328 C 0.6797 0.0669 0.60363 0.0
C329 C 0.68246 0.06878 0.51109 0.0
H330 H 0.80765 0.85631 0.79002 0.0
H331 H 0.89472 0.92038 0.78305 0.0
H332 H 0.8104 0.85569 0.95208 0.0
H333 H 0.89805 0.91887 0.94313 0.0
H334 H 0.88719 0.92758 0.23636 0.0
H335 H 0.88327 0.92872 0.07589 0.0
H336 H 0.83114 0.84383 0.06825 0.0
H337 H 0.83386 0.84294 0.22993 0.0
C338 C 0.82732 0.87024 0.82318 0.0
C339 C 0.85087 0.88849 0.77411 0.0
C340 C 0.82904 0.86973 0.91582 0.0
C341 C 0.8545 0.88718 0.96079 0.0
C342 C 0.87793 0.90549 0.9112 0.0
C343 C 0.87604 0.90629 0.81914 0.0
C344 C 0.87515 0.90915 0.20027 0.0
C345 C 0.86091 0.88517 0.24541 0.0
C346 C 0.87291 0.90977 0.10814 0.0
C347 C 0.85684 0.88636 0.0589 0.0
C348 C 0.84321 0.86228 0.10414 0.0
C349 C 0.84503 0.86171 0.19662 0.0
H350 H 0.33853 0.84733 0.66886 0.0
H351 H 0.37607 0.93188 0.66859 0.0
H352 H 0.33433 0.84739 0.83002 0.0
H353 H 0.37329 0.93222 0.83012 0.0
H354 H 0.33821 0.9218 0.11012 0.0
H355 H 0.34024 0.92096 0.94778 0.0
H356 H 0.36141 0.85902 0.96098 0.0
H357 H 0.35795 0.85896 0.12119 0.0
C358 C 0.34642 0.86596 0.70362 0.0
C359 C 0.35766 0.88958 0.65663 0.0
C360 C 0.34405 0.86605 0.79593 0.0
C361 C 0.35339 0.88983 0.84311 0.0
C362 C 0.36531 0.91351 0.79584 0.0
C363 C 0.36721 0.91336 0.70345 0.0
C364 C 0.34303 0.9079 0.07788 0.0
C365 C 0.34776 0.89039 0.12815 0.0
C366 C 0.34444 0.90753 -0.01491 0.0
C367 C 0.35103 0.88992 0.94129 0.0
C368 C 0.35571 0.87246 -0.00789 0.0
C369 C 0.35387 0.87254 0.08426 0.0
H370 H 0.30578 0.42771 0.44549 0.0
H371 H 0.34613 0.38011 0.44874 0.0
H372 H 0.2997 0.42339 0.60545 0.0
H373 H 0.34163 0.377 0.61014 0.0
H374 H 0.30439 0.35391 0.88654 0.0
H375 H 0.30834 0.35701 0.72473 0.0
H376 H 0.32322 0.43661 0.74056 0.0
H377 H 0.3176 0.43286 0.9002 0.0
C378 C 0.31402 0.41687 0.48089 0.0
C379 C 0.32656 0.40437 0.43487 0.0
C380 C 0.31056 0.41438 0.57282 0.0
C381 C 0.32011 0.39978 0.62119 0.0
C382 C 0.33344 0.38791 0.57508 0.0
C383 C 0.33639 0.38997 0.48274 0.0
C384 C 0.30807 0.37187 0.85491 0.0
C385 C 0.31049 0.39304 0.9059 0.0
C386 C 0.31068 0.3738 0.76234 0.0
C387 C 0.31627 0.39713 0.71923 0.0
C388 C 0.31838 0.41814 0.77076 0.0
C389 C 0.31524 0.41602 0.8627 0.0
H390 H 0.45421 0.21781 0.41576 0.0
H391 H 0.54176 0.2354 0.40468 0.0
H392 H 0.45016 0.21228 0.25625 0.0
H393 H 0.53825 0.23137 0.2425 0.0
H394 H 0.51422 0.19559 0.96456 0.0
H395 H 0.51797 0.20019 0.1261 0.0
H396 H 0.46282 0.23392 0.12221 0.0
H397 H 0.45787 0.22785 0.96202 0.0
C398 C 0.47289 0.22109 0.37894 0.0
C399 C 0.49838 0.22712 0.42299 0.0
C400 C 0.47057 0.21801 0.28692 0.0
C401 C 0.49385 0.22138 0.23588 0.0
C402 C 0.51968 0.22813 0.27972 0.0
C403 C 0.52186 0.23077 0.37252 0.0
C404 C 0.50253 0.20355 -0.00124 0.0
C405 C 0.48551 0.21111 0.95097 0.0
C406 C 0.50499 0.20655 0.0912 0.0
C407 C 0.49088 0.21762 0.13761 0.0
C408 C 0.4736 0.22487 0.08935 0.0
C409 C 0.47072 0.2214 -0.00272 0.0
H410 H 0.03287 0.22338 0.4102 0.0
H411 H 0.95029 0.21795 0.39764 0.0
H412 H 0.03454 0.22238 0.2497 0.0
H413 H 0.95251 0.21808 0.23512 0.0
H414 H 0.95223 0.18959 0.95289 0.0
H415 H 0.95036 0.19046 0.11419 0.0
H416 H 0.04025 0.24829 0.12328 0.0
H417 H 0.04229 0.24651 0.96143 0.0
C418 C 1.01515 0.22228 0.37296 0.0
C419 C 0.99139 0.22075 0.41635 0.0
C420 C 1.01625 0.22189 0.28076 0.0
C421 C 0.99378 0.22031 0.22961 0.0
C422 C 0.97002 0.21897 0.27289 0.0
C423 C 0.96876 0.21903 0.3657 0.0
C424 C 0.97164 0.20236 -0.01051 0.0
C425 C 0.99746 0.21796 0.94505 0.0
C426 C 0.97049 0.20305 0.08181 0.0
C427 C 0.99507 0.2196 0.13149 0.0
C428 C 1.02099 0.23506 0.08688 0.0
C429 C 0.02222 0.23409 -0.00564 0.0
H430 H 0.94942 0.69365 0.4046 0.0
H431 H 0.04147 0.73887 0.40234 0.0
H432 H 0.94839 0.69651 0.24392 0.0
H433 H 0.04059 0.74063 0.2404 0.0
H434 H 0.02816 0.76244 0.96134 0.0
H435 H 0.02883 0.7606 0.12335 0.0
H436 H 0.9582 0.68064 0.11307 0.0
H437 H 0.95666 0.68302 0.95247 0.0
C438 C 0.96947 0.70378 0.36942 0.0
C439 C 0.99553 0.716 0.41567 0.0
C440 C 0.9689 0.70537 0.27725 0.0
C441 C 0.99441 0.71881 0.22921 0.0
C442 C 1.02054 0.73057 0.27554 0.0
C443 C 1.02109 0.72934 0.36808 0.0
C444 C 1.01264 0.74462 -0.00589 0.0
C445 C 0.99228 0.72294 0.94463 0.0
C446 C 1.01318 0.74344 0.0867 0.0
C447 C 0.99363 0.72043 0.13116 0.0
C448 C 0.97322 0.69884 0.08122 0.0
C449 C 0.9724 0.70017 -0.01096 0.0
H450 H 0.2354 0.44371 0.12536 0.0
H451 H 0.30878 0.51406 0.03095 0.0
H452 H 0.20398 0.45792 0.06031 0.0
H453 H 0.27775 0.52781 0.9616 0.0
H454 H 0.15298 0.48162 0.87993 0.0
H455 H 0.1841 0.46527 0.93222 0.0
H456 H 0.24904 0.54497 -0.00135 0.0
H457 H 0.2189 0.5611 0.94247 0.0
C458 C 0.24473 0.46209 0.08961 0.0
C459 C 0.27447 0.47798 0.08405 0.0
C460 C 0.22676 0.47019 0.05167 0.0
C461 C 0.23818 0.49418 0.00592 0.0
C462 C 0.26804 0.50959 -0.00172 0.0
C463 C 0.28593 0.50174 0.03774 0.0
C464 C 0.17408 0.49556 0.90471 0.0
C465 C 0.18352 0.52265 0.9063 0.0
C466 C 0.19186 0.48622 0.93546 0.0
C467 C 0.21929 0.50375 0.96961 0.0
C468 C 0.2285 0.53081 0.97089 0.0
C469 C 0.21102 0.54011 0.93902 0.0
H470 H 0.71096 0.66848 0.05579 0.0
H471 H 0.6347 0.66983 0.12947 0.0
H472 H 0.73916 0.706 0.15457 0.0
H473 H 0.66296 0.70759 0.22814 0.0
H474 H 0.71845 0.74996 0.4769 0.0
H475 H 0.69045 0.71451 0.37161 0.0
H476 H 0.75463 0.75401 0.17125 0.0
H477 H 0.78243 0.78988 0.27525 0.0
C478 C 0.70028 0.67694 0.09283 0.0
C479 C 0.67062 0.66618 0.08526 0.0
C480 C 0.71644 0.69851 0.14888 0.0
C481 C 0.70325 0.70965 0.19947 0.0
C482 C 0.67365 0.69924 0.19059 0.0
C483 C 0.65752 0.67783 0.13353 0.0
C484 C 0.72659 0.75135 0.41031 0.0
C485 C 0.75283 0.77303 0.3852 0.0
C486 C 0.71045 0.73097 0.34989 0.0
C487 C 0.72025 0.73156 0.26303 0.0
C488 C 0.74662 0.75293 0.23799 0.0
C489 C 0.76265 0.77348 0.29811 0.0
H490 H 0.58064 0.96136 0.20884 0.0
H491 H 0.58492 0.03332 0.29892 0.0
H492 H 0.52989 0.93698 0.24477 0.0
H493 H 0.53503 1.00909 0.33939 0.0
H494 H 0.43932 0.9656 0.31897 0.0
H495 H 0.48955 0.98855 0.28195 0.0
H496 H 0.49503 0.92005 0.35545 0.0
H497 H 0.44408 0.89658 0.38787 0.0
C498 C 0.57079 0.97192 0.23701 0.0
C499 C 0.58677 0.99932 0.25008 0.0
C500 C 0.54169 0.95793 0.25835 0.0
C501 C 0.52797 0.97095 0.29465 0.0
C502 C 0.54435 0.99831 0.30939 0.0
C503 C 0.57317 0.01228 0.28665 0.0
C504 C 0.45124 0.95544 0.32763 0.0
C505 C 0.43765 0.92927 0.35676 0.0
C506 C 0.48026 0.9687 0.30683 0.0
C507 C 0.49677 0.95638 0.31608 0.0
C508 C 0.48313 0.93018 0.34602 0.0
C509 C 0.4539 0.91674 0.36546 0.0
H510 H 0.60249 0.0983 0.07182 0.0
H511 H 0.68322 0.17072 0.08595 0.0
H512 H 0.58387 0.11921 -0.02665 0.0
H513 H 0.6645 0.19174 -0.01154 0.0
H514 H 0.62838 0.20897 0.73339 0.0
H515 H 0.64778 0.18794 0.82817 0.0
H516 H 0.57186 0.15531 -0.01131 0.0
H517 H 0.55279 0.17664 0.89652 0.0
C518 C 0.61623 0.11867 0.0538 0.0
C519 C 0.64424 0.13291 0.08685 0.0
C520 C 0.60555 0.13067 -0.00206 0.0
C521 C 0.62278 0.15708 -0.0267 0.0
C522 C 0.65085 0.17129 0.00585 0.0
C523 C 0.66143 0.15936 0.06248 0.0
C524 C 0.6159 0.19748 0.78915 0.0
C525 C 0.58888 0.19442 0.80645 0.0
C526 C 0.627 0.18542 0.84333 0.0
C527 C 0.61122 0.16989 0.9154 0.0
C528 C 0.58427 0.1668 0.93266 0.0
C529 C 0.5733 0.179 0.87924 0.0
H530 H 0.05457 0.31217 0.66354 0.0
H531 H 0.96865 0.28512 0.75259 0.0
H532 H 0.06642 0.35752 0.68923 0.0
H533 H 0.98076 0.3305 0.78243 0.0
H534 H 1.00437 0.41668 0.76068 0.0
H535 H 0.9914 0.37136 0.72481 0.0
H536 H 0.07603 0.38847 0.80104 0.0
H537 H 0.08903 0.43381 0.8336 0.0
C538 C 0.03819 0.31591 0.689 0.0
C539 C 1.01065 0.29493 0.70609 0.0
C540 C 0.04506 0.34201 0.70458 0.0
C541 C 0.02472 0.34799 0.73899 0.0
C542 C 0.997 0.32693 0.75488 0.0
C543 C 0.99003 0.30079 0.73815 0.0
C544 C 1.02015 0.41069 0.76975 0.0
C545 C 0.04779 0.42896 0.79956 0.0
C546 C 1.01271 0.38461 0.74951 0.0
C547 C 0.03261 0.37595 0.75956 0.0
C548 C 0.06021 0.39431 0.79017 0.0
C549 C 0.06772 0.42042 0.80927 0.0
H550 H 0.83908 0.60671 0.65579 0.0
H551 H 0.87409 0.67045 0.84879 0.0
H552 H 0.79225 0.59006 0.72042 0.0
H553 H 0.82669 0.65394 0.91152 0.0
H554 H 0.72115 0.55065 0.92093 0.0
H555 H 0.76994 0.56992 0.86869 0.0
H556 H 0.77703 0.64654 0.86422 0.0
H557 H 0.72774 0.62719 0.91612 0.0
C558 C 0.83702 0.61718 0.71218 0.0
C559 C 0.86077 0.63988 0.74721 0.0
C560 C 0.81002 0.6076 0.7491 0.0
C561 C 0.80587 0.62057 0.82147 0.0
C562 C 0.82928 0.64361 0.85547 0.0
C563 C 0.85647 0.65308 0.81914 0.0
C564 C 0.73306 0.57164 0.90957 0.0
C565 C 0.72037 0.58732 0.92174 0.0
C566 C 0.76101 0.58265 0.87928 0.0
C567 C 0.77713 0.60965 0.86126 0.0
C568 C 0.76506 0.62566 0.87763 0.0
C569 C 0.73686 0.61456 0.9072 0.0
H570 H 0.06751 0.70184 0.7536 0.0
H571 H 0.98609 0.63405 0.68811 0.0
H572 H 0.08687 0.67334 0.78483 0.0
H573 H 1.00592 0.60525 0.71568 0.0
H574 H 0.04638 0.56022 0.85252 0.0
H575 H 0.02343 0.58655 0.82298 0.0
H576 H 0.10226 0.64772 0.71226 0.0
H577 H 0.12503 0.62229 0.74516 0.0
C578 C 0.05378 0.6808 0.74476 0.0
C579 C 0.02529 0.67032 0.71757 0.0
C580 C 0.06496 0.66434 0.76224 0.0
C581 C 0.04818 0.63681 0.7517 0.0
C582 C 1.01951 0.62626 0.72527 0.0
C583 C 1.00818 0.6428 0.70875 0.0
C584 C 0.05864 0.57929 0.82182 0.0
C585 C 0.08764 0.58931 0.80263 0.0
C586 C 0.04551 0.59439 0.8045 0.0
C587 C 0.06107 0.61965 0.76663 0.0
C588 C 0.08971 0.6289 0.74423 0.0
C589 C 0.1028 0.61413 0.76263 0.0
H590 H 0.64318 0.42416 0.90399 0.0
H591 H 0.56449 0.42595 0.91449 0.0
H592 H 0.61748 0.37854 0.85908 0.0
H593 H 0.538 0.37909 0.87663 0.0
H594 H 0.50425 0.3059 0.69562 0.0
H595 H 0.5279 0.35079 0.75489 0.0
H596 H 0.5882 0.33566 0.8942 0.0
H597 H 0.56579 0.29174 0.82955 0.0
C598 C 0.62022 0.41463 0.89811 0.0
C599 C 0.60601 0.42894 0.91094 0.0
C600 C 0.6053 0.38817 0.87351 0.0
C601 C 0.5755 0.37488 0.86321 0.0
C602 C 0.56099 0.38875 0.88172 0.0
C603 C 0.57611 0.41555 0.905 0.0
C604 C 0.52279 0.31242 0.73816 0.0
C605 C 0.53356 0.29559 0.7566 0.0
C606 C 0.53614 0.33803 0.77329 0.0
C607 C 0.56016 0.34713 0.82944 0.0
C608 C 0.57033 0.32982 0.84941 0.0
C609 C 0.55745 0.30454 0.81244 0.0
H610 H 0.883 0.13679 0.85584 0.0
H611 H 0.84255 0.18267 0.79929 0.0
H612 H 0.8464 0.11176 0.96516 0.0
H613 H 0.80531 0.15684 0.90507 0.0
H614 H 0.75561 0.05332 0.07241 0.0
H615 H 0.79677 0.07924 -0.02207 0.0
H616 H 0.79728 0.15017 0.06125 0.0
H617 H 0.75572 0.12419 0.15343 0.0
C618 C 0.86637 0.14161 0.86645 0.0
C619 C 0.86599 0.16198 0.81851 0.0
C620 C 0.84516 0.12702 0.92876 0.0
C621 C 0.82295 0.13236 0.94477 0.0
C622 C 0.82237 0.15247 0.89601 0.0
C623 C 0.84358 0.16709 0.83398 0.0
C624 C 0.76493 0.07451 0.07214 0.0
C625 C 0.75225 0.08665 0.12004 0.0
C626 C 0.78854 0.08941 0.01774 0.0
C627 C 0.80008 0.1168 0.01046 0.0
C628 C 0.78851 0.12906 0.06321 0.0
C629 C 0.76485 0.11418 0.11698 0.0
H630 H 0.67932 0.92521 0.33161 0.0
H631 H 0.75264 0.99572 0.23776 0.0
H632 H 0.71042 0.91136 0.39992 0.0
H633 H 0.7841 0.98143 0.30182 0.0
H634 H 0.76951 0.87829 0.4187 0.0
H635 H 0.73926 0.89434 0.36279 0.0
H636 H 0.80403 0.97405 0.42959 0.0
H637 H 0.83526 0.9578 0.4816 0.0
C638 C 0.70216 0.93755 0.32468 0.0
C639 C 0.71358 0.9614 0.27892 0.0
C640 C 0.72009 0.92963 0.36356 0.0
C641 C 0.74996 0.94509 0.35592 0.0
C642 C 0.76133 0.96914 0.31052 0.0
C643 C 0.74333 0.97728 0.27315 0.0
C644 C 0.77733 0.89927 0.42227 0.0
C645 C 0.80482 0.91676 0.45503 0.0
C646 C 0.75978 0.90851 0.39055 0.0
C647 C 0.76891 0.93555 0.392 0.0
C648 C 0.79633 0.95312 0.42618 0.0
C649 C 0.81418 0.94383 0.45678 0.0
H650 H 0.35453 0.771 0.2263 0.0
H651 H 0.27818 0.77214 0.30033 0.0
H652 H 0.32619 0.73279 0.12937 0.0
H653 H 0.24991 0.7342 0.20333 0.0
H654 H 0.20663 0.65007 0.0853 0.0
H655 H 0.2346 0.68622 0.1882 0.0
H656 H 0.29837 0.72525 -0.01365 0.0
H657 H 0.2702 0.68953 0.8822 0.0
C658 C 0.33167 0.76286 0.2227 0.0
C659 C 0.31857 0.7746 0.2705 0.0
C660 C 0.3155 0.74119 0.16665 0.0
C661 C 0.28585 0.73061 0.15836 0.0
C662 C 0.27267 0.74182 0.20858 0.0
C663 C 0.28887 0.76364 0.26361 0.0
C664 C 0.22636 0.66643 0.06191 0.0
C665 C 0.23601 0.66666 -0.02528 0.0
C666 C 0.24249 0.68713 0.12139 0.0
C667 C 0.26879 0.70847 0.09561 0.0
C668 C 0.27843 0.70884 0.00867 0.0
C669 C 0.26219 0.68829 0.94889 0.0
H670 H 0.54277 0.47402 0.95619 0.0
H671 H 0.54935 0.54763 0.03784 0.0
H672 H 0.49238 0.45094 -0.00666 0.0
H673 H 0.49911 0.52442 0.07878 0.0
H674 H 0.40115 0.47676 0.07445 0.0
H675 H 0.45112 0.50125 0.02973 0.0
H676 H 0.46243 0.43698 0.11712 0.0
H677 H 0.41249 0.4123 0.15802 0.0
C678 C 0.53345 0.4853 -0.01777 0.0
C679 C 0.55015 0.51268 -0.00583 0.0
C680 C 0.50453 0.47201 0.00441 0.0
C681 C 0.49152 0.48566 0.04037 0.0
C682 C 0.50816 0.51319 0.05053 0.0
C683 C 0.53707 0.52653 0.02734 0.0
C684 C 0.4144 0.46796 0.08432 0.0
C685 C 0.40276 0.44252 0.11938 0.0
C686 C 0.44312 0.48203 0.05893 0.0
C687 C 0.46097 0.47109 0.06879 0.0
C688 C 0.44934 0.44588 0.10611 0.0
C689 C 0.42065 0.43176 0.13046 0.0
H690 H 0.9208 0.73769 0.61002 0.0
H691 H 1.00274 0.80557 0.66958 0.0
H692 H 0.9014 0.76619 0.57916 0.0
H693 H 0.98291 0.83438 0.64248 0.0
H694 H 0.94201 0.87914 0.50678 0.0
H695 H 0.96493 0.85278 0.53608 0.0
H696 H 0.88655 0.79223 0.65123 0.0
H697 H 0.86379 0.81768 0.61846 0.0
C698 C 0.93464 0.75875 0.61765 0.0
C699 C 0.96329 0.76926 0.64303 0.0
C700 C 0.92344 0.77522 0.6004 0.0
C701 C 0.94037 0.80278 0.60941 0.0
C702 C 0.96919 0.81335 0.63407 0.0
C703 C 0.98054 0.7968 0.65032 0.0
C704 C 0.92984 0.8602 0.53842 0.0
C705 C 0.90095 0.85035 0.55886 0.0
C706 C 0.94296 0.84509 0.5556 0.0
C707 C 0.92752 0.81998 0.59462 0.0
C708 C 0.899 0.81092 0.61833 0.0
C709 C 0.88592 0.8257 0.60003 0.0
H710 H 0.48012 0.13211 0.6792 0.0
H711 H 0.42056 0.14783 0.54011 0.0
H712 H 0.45688 0.08768 0.616 0.0
H713 H 0.3987 0.1045 0.47132 0.0
H714 H 0.3437 0.01645 0.44759 0.0
H715 H 0.36887 0.06142 0.49904 0.0
H716 H 0.44819 0.06032 0.49322 0.0
H717 H 0.42207 0.01395 0.44928 0.0
C718 C 0.46208 0.126 0.63477 0.0
C719 C 0.45171 0.14312 0.61595 0.0
C720 C 0.44899 0.10067 0.59735 0.0
C721 C 0.4257 0.09219 0.53837 0.0
C722 C 0.41595 0.1098 0.51824 0.0
C723 C 0.4285 0.13476 0.55759 0.0
C724 C 0.3665 0.02567 0.45766 0.0
C725 C 0.38068 0.01128 0.44631 0.0
C726 C 0.38116 0.05182 0.48598 0.0
C727 C 0.41073 0.06478 0.50137 0.0
C728 C 0.42533 0.0509 0.48437 0.0
C729 C 0.41043 0.02439 0.45756 0.0
H730 H 0.10502 0.3016 0.50142 0.0
H731 H 0.14636 0.25695 0.56532 0.0
H732 H 0.14188 0.3265 0.39277 0.0
H733 H 0.18388 0.28272 0.46022 0.0
H734 H 0.23484 0.31552 0.21389 0.0
H735 H 0.19299 0.2892 0.3046 0.0
H736 H 0.19118 0.35949 0.38177 0.0
H737 H 0.23258 0.38572 0.28874 0.0
C738 C 0.12189 0.29701 0.49252 0.0
C739 C 0.12246 0.27704 0.54241 0.0
C740 C 0.14325 0.31154 0.43061 0.0
C741 C 0.16584 0.30657 0.41696 0.0
C742 C 0.16656 0.2868 0.46747 0.0
C743 C 0.14518 0.27223 0.5291 0.0
C744 C 0.22515 0.3253 0.24866 0.0
C745 C 0.23716 0.35276 0.24429 0.0
C746 C 0.20132 0.31023 0.30161 0.0
C747 C 0.18898 0.32223 0.35217 0.0
C748 C 0.19999 0.34951 0.34362 0.0
C749 C 0.22376 0.36459 0.29007 0.0
H750 H 0.35618 0.20905 0.54411 0.0
H751 H 0.4324 0.28336 0.59657 0.0
H752 H 0.33833 0.23116 0.44787 0.0
H753 H 0.41478 0.30542 0.49973 0.0
H754 H 0.35844 0.33769 0.39386 0.0
H755 H 0.37507 0.31586 0.4941 0.0
H756 H 0.35292 0.25408 0.29925 0.0
H757 H 0.33682 0.27618 0.19741 0.0
C758 C 0.36892 0.23013 0.53591 0.0
C759 C 0.39568 0.24451 0.57761 0.0
C760 C 0.35888 0.24272 0.48015 0.0
C761 C 0.37526 0.26996 0.466 0.0
C762 C 0.40165 0.28443 0.50974 0.0
C763 C 0.41181 0.2718 0.56464 0.0
C764 C 0.35747 0.31971 0.37131 0.0
C765 C 0.34632 0.30881 0.28691 0.0
C766 C 0.36689 0.30712 0.42925 0.0
C767 C 0.36516 0.28324 0.40459 0.0
C768 C 0.35409 0.27229 0.32046 0.0
C769 C 0.34489 0.28499 0.26212 0.0
H770 H 0.89962 1.00591 0.52616 0.0
H771 H 0.98387 0.02271 0.60288 0.0
H772 H 0.91264 0.05125 0.55868 0.0
H773 H 0.99685 0.06802 0.63885 0.0
H774 H 1.02003 0.1544 0.61169 0.0
H775 H 1.00792 0.10901 0.58176 0.0
H776 H 0.92181 0.08208 0.67027 0.0
H777 H 0.93368 0.12743 0.69592 0.0
C778 C 0.92085 0.01923 0.55132 0.0
C779 C 0.94066 1.01061 0.5621 0.0
C780 C 0.92837 0.04534 0.57042 0.0
C781 C 0.95585 0.06361 0.60215 0.0
C782 C 0.97564 0.05485 0.61327 0.0
C783 C 0.96819 0.02878 0.59298 0.0
C784 C 0.99855 0.13874 0.62508 0.0
C785 C 0.97781 0.14461 0.65576 0.0
C786 C 0.99158 0.1126 0.6083 0.0
C787 C 0.96374 0.09156 0.62282 0.0
C788 C 0.94327 0.09757 0.65594 0.0
C789 C 0.95015 0.12367 0.6715 0.0
H790 H 0.14954 0.83334 0.69987 0.0
H791 H 0.11428 0.76809 0.51258 0.0
H792 H 0.19611 0.84988 0.63347 0.0
H793 H 0.16145 0.78452 0.44828 0.0
H794 H 0.2655 0.88835 0.42685 0.0
H795 H 0.21696 0.86878 0.4813 0.0
H796 H 0.21199 0.79314 0.49592 0.0
H797 H 0.26114 0.81284 0.44216 0.0
C798 C 0.15147 0.82249 0.64444 0.0
C799 C 0.1277 0.79942 0.61145 0.0
C800 C 0.17833 0.83201 0.60652 0.0
C801 C 0.18233 0.8186 0.53524 0.0
C802 C 0.15895 0.79519 0.50344 0.0
C803 C 0.13189 0.78577 0.5407 0.0
C804 C 0.25415 0.86751 0.44107 0.0
C805 C 0.26742 0.85226 0.43135 0.0
C806 C 0.22631 0.85633 0.47251 0.0
C807 C 0.21088 0.82955 0.49405 0.0
C808 C 0.22346 0.81387 0.47985 0.0
C809 C 0.25157 0.82516 0.44917 0.0
loop_
_geom_bond_atom_site_label_1
_geom_bond_atom_site_label_2
_geom_bond_distance
_geom_bond_site_symmetry_2
_ccdc_geom_bond_type
Co0 N5 2.057 . S
Co0 O17 2.021 1_554 S
Co0 O20 2.062 . S
Co0 O24 2.117 . S
Co0 O25 2.020 . S
C1 O21 1.259 . S
C1 O24 1.258 . S
Co2 N11 2.057 1_554 S
Co2 O18 2.117 1_554 S
Co2 O19 2.020 1_554 S
Co2 O21 2.021 . S
Co2 O26 2.062 . S
C3 N5 1.316 . S
C3 N6 1.347 . S
C3 H8 0.931 1_554 S
C4 N5 1.375 . S
C4 C7 1.350 . S
C4 H9 0.930 . S
N5 Co0 2.057 . S
N5 C3 1.316 . S
N5 C4 1.375 . S
N6 C3 1.347 . S
N6 C7 1.373 . S
C7 C4 1.350 . S
C7 N6 1.373 . S
C7 H28 0.931 . S
H8 C3 0.931 1_556 S
H9 C4 0.930 . S
C10 O17 1.259 . S
C10 O18 1.258 . S
N11 Co2 2.057 1_556 S
N11 C12 1.316 1_556 S
N11 C13 1.375 . S
C12 N11 1.316 1_554 S
C12 N14 1.347 1_554 S
C12 H23 0.931 . S
C13 N11 1.375 . S
C13 C15 1.350 . S
C13 H22 0.930 . S
N14 C12 1.347 1_556 S
N14 C15 1.373 . S
C15 C13 1.350 . S
C15 N14 1.373 . S
C15 H29 0.931 . S
C16 O19 1.256 . S
C16 O20 1.255 1_556 S
O17 Co0 2.021 1_556 S
O17 C10 1.259 . S
O18 Co2 2.117 1_556 S
O18 C10 1.258 . S
O19 Co2 2.020 1_556 S
O19 C16 1.256 . S
O20 Co0 2.062 . S
O20 C16 1.255 1_554 S
O21 C1 1.259 . S
O21 Co2 2.021 . S
H22 C13 0.930 . S
H23 C12 0.931 . S
O24 Co0 2.117 . S
O24 C1 1.258 . S
O25 Co0 2.020 . S
O25 C27 1.256 . S
O26 Co2 2.062 . S
O26 C27 1.255 . S
C27 O25 1.256 . S
C27 O26 1.255 . S
H28 C7 0.931 . S
H29 C15 0.931 . S
Co30 N35 2.057 . S
Co30 O47 2.021 . S
Co30 O50 2.062 . S
Co30 O54 2.117 1_554 S
Co30 O55 2.020 . S
C31 O51 1.259 . S
C31 O54 1.258 . S
Co32 N41 2.057 . S
Co32 O48 2.117 . S
Co32 O49 2.020 . S
Co32 O51 2.021 1_554 S
Co32 O56 2.062 . S
C33 N35 1.316 . S
C33 N36 1.347 . S
C33 H38 0.931 . S
C34 N35 1.375 1_556 S
C34 C37 1.350 . S
C34 H39 0.930 . S
N35 Co30 2.057 . S
N35 C33 1.316 . S
N35 C34 1.375 1_554 S
N36 C33 1.347 . S
N36 C37 1.373 1_554 S
C37 C34 1.350 . S
C37 N36 1.373 1_556 S
C37 H58 0.931 . S
H38 C33 0.931 . S
H39 C34 0.930 . S
C40 O47 1.259 . S
C40 O48 1.258 . S
N41 Co32 2.057 . S
N41 C42 1.316 . S
N41 C43 1.375 . S
C42 N41 1.316 . S
C42 N44 1.347 . S
C42 H53 0.931 . S
C43 N41 1.375 . S
C43 C45 1.350 . S
C43 H52 0.930 . S
N44 C42 1.347 . S
N44 C45 1.373 . S
C45 C43 1.350 . S
C45 N44 1.373 . S
C45 H59 0.931 . S
C46 O49 1.256 . S
C46 O50 1.255 . S
O47 Co30 2.021 . S
O47 C40 1.259 . S
O48 Co32 2.117 . S
O48 C40 1.258 . S
O49 Co32 2.020 . S
O49 C46 1.256 . S
O50 Co30 2.062 . S
O50 C46 1.255 . S
O51 C31 1.259 . S
O51 Co32 2.021 1_556 S
H52 C43 0.930 . S
H53 C42 0.931 . S
O54 Co30 2.117 1_556 S
O54 C31 1.258 . S
O55 Co30 2.020 . S
O55 C57 1.256 . S
O56 Co32 2.062 . S
O56 C57 1.255 . S
C57 O55 1.256 . S
C57 O56 1.255 . S
H58 C37 0.931 . S
H59 C45 0.931 . S
Co60 N65 2.057 1_545 S
Co60 O77 2.021 1_545 S
Co60 O80 2.062 . S
Co60 O84 2.117 . S
Co60 O85 2.020 1_545 S
C61 O81 1.259 . S
C61 O84 1.258 . S
Co62 N71 2.057 . S
Co62 O78 2.117 . S
Co62 O79 2.020 . S
Co62 O81 2.021 . S
Co62 O86 2.062 . S
C63 N65 1.316 . S
C63 N66 1.347 . S
C63 H68 0.931 . S
C64 N65 1.375 . S
C64 C67 1.350 . S
C64 H69 0.930 . S
N65 Co60 2.057 1_565 S
N65 C63 1.316 . S
N65 C64 1.375 . S
N66 C63 1.347 . S
N66 C67 1.373 . S
C67 C64 1.350 . S
C67 N66 1.373 . S
C67 H88 0.931 . S
H68 C63 0.931 . S
H69 C64 0.930 . S
C70 O77 1.259 1_546 S
C70 O78 1.258 1_556 S
N71 Co62 2.057 . S
N71 C72 1.316 . S
N71 C73 1.375 . S
C72 N71 1.316 . S
C72 N74 1.347 . S
C72 H83 0.931 . S
C73 N71 1.375 . S
C73 C75 1.350 1_554 S
C73 H82 0.930 1_554 S
N74 C72 1.347 . S
N74 C75 1.373 1_554 S
C75 C73 1.350 1_556 S
C75 N74 1.373 1_556 S
C75 H89 0.931 . S
C76 O79 1.256 . S
C76 O80 1.255 . S
O77 Co60 2.021 1_565 S
O77 C70 1.259 1_564 S
O78 Co62 2.117 . S
O78 C70 1.258 1_554 S
O79 Co62 2.020 . S
O79 C76 1.256 . S
O80 Co60 2.062 . S
O80 C76 1.255 . S
O81 C61 1.259 . S
O81 Co62 2.021 . S
H82 C73 0.930 1_556 S
H83 C72 0.931 . S
O84 Co60 2.117 . S
O84 C61 1.258 . S
O85 Co60 2.020 1_565 S
O85 C87 1.256 . S
O86 Co62 2.062 . S
O86 C87 1.255 1_545 S
C87 O85 1.256 . S
C87 O86 1.255 1_565 S
H88 C67 0.931 . S
H89 C75 0.931 . S
Co90 N95 2.057 . S
Co90 O107 2.021 . S
Co90 O110 2.062 . S
Co90 O114 2.117 . S
Co90 O115 2.020 . S
C91 O111 1.259 . S
C91 O114 1.258 . S
Co92 N101 2.057 . S
Co92 O108 2.117 . S
Co92 O109 2.020 . S
Co92 O111 2.021 . S
Co92 O116 2.062 . S
C93 N95 1.316 . S
C93 N96 1.347 . S
C93 H98 0.931 . S
C94 N95 1.375 . S
C94 C97 1.350 . S
C94 H99 0.930 . S
N95 Co90 2.057 . S
N95 C93 1.316 . S
N95 C94 1.375 . S
N96 C93 1.347 . S
N96 C97 1.373 . S
C97 C94 1.350 . S
C97 N96 1.373 . S
C97 H118 0.931 . S
H98 C93 0.931 . S
H99 C94 0.930 . S
C100 O107 1.259 . S
C100 O108 1.258 . S
N101 Co92 2.057 . S
N101 C102 1.316 . S
N101 C103 1.375 . S
C102 N101 1.316 . S
C102 N104 1.347 . S
C102 H113 0.931 . S
C103 N101 1.375 . S
C103 C105 1.350 . S
C103 H112 0.930 . S
N104 C102 1.347 . S
N104 C105 1.373 . S
C105 C103 1.350 . S
C105 N104 1.373 . S
C105 H119 0.931 . S
C106 O109 1.256 . S
C106 O110 1.255 . S
O107 Co90 2.021 . S
O107 C100 1.259 . S
O108 Co92 2.117 . S
O108 C100 1.258 . S
O109 Co92 2.020 . S
O109 C106 1.256 . S
O110 Co90 2.062 . S
O110 C106 1.255 . S
O111 C91 1.259 . S
O111 Co92 2.021 . S
H112 C103 0.930 . S
H113 C102 0.931 . S
O114 Co90 2.117 . S
O114 C91 1.258 . S
O115 Co90 2.020 . S
O115 C117 1.256 . S
O116 Co92 2.062 . S
O116 C117 1.255 . S
C117 O115 1.256 . S
C117 O116 1.255 . S
H118 C97 0.931 . S
H119 C105 0.931 . S
Co120 N125 2.057 . S
Co120 O137 2.021 . S
Co120 O140 2.062 . S
Co120 O144 2.117 . S
Co120 O145 2.020 . S
C121 O141 1.259 . S
C121 O144 1.258 . S
Co122 N131 2.057 . S
Co122 O138 2.117 . S
Co122 O139 2.020 . S
Co122 O141 2.021 . S
Co122 O146 2.062 . S
C123 N125 1.316 . S
C123 N126 1.347 . S
C123 H128 0.931 . S
C124 N125 1.375 . S
C124 C127 1.350 . S
C124 H129 0.930 . S
N125 Co120 2.057 . S
N125 C123 1.316 . S
N125 C124 1.375 . S
N126 C123 1.347 . S
N126 C127 1.373 . S
C127 C124 1.350 . S
C127 N126 1.373 . S
C127 H148 0.931 . S
H128 C123 0.931 . S
H129 C124 0.930 . S
C130 O137 1.259 . S
C130 O138 1.258 . S
N131 Co122 2.057 . S
N131 C132 1.316 . S
N131 C133 1.375 . S
C132 N131 1.316 . S
C132 N134 1.347 1_565 S
C132 H143 0.931 . S
C133 N131 1.375 . S
C133 C135 1.396 . S
C133 H142 0.930 . S
N134 C132 1.347 1_545 S
N134 C135 1.358 1_545 S
C135 C133 1.396 . S
C135 N134 1.358 1_565 S
C135 H149 0.907 1_565 S
C136 O139 1.256 . S
C136 O140 1.255 . S
O137 Co120 2.021 . S
O137 C130 1.259 . S
O138 Co122 2.117 . S
O138 C130 1.258 . S
O139 Co122 2.020 . S
O139 C136 1.256 . S
O140 Co120 2.062 . S
O140 C136 1.255 . S
O141 C121 1.259 . S
O141 Co122 2.021 . S
H142 C133 0.930 . S
H143 C132 0.931 . S
O144 Co120 2.117 . S
O144 C121 1.258 . S
O145 Co120 2.020 . S
O145 C147 1.256 . S
O146 Co122 2.062 . S
O146 C147 1.255 . S
C147 O145 1.256 . S
C147 O146 1.255 . S
H148 C127 0.931 . S
H149 C135 0.907 1_545 S
Co150 N155 2.057 . S
Co150 O167 2.021 . S
Co150 O170 2.062 . S
Co150 O174 2.117 . S
Co150 O175 2.020 . S
C151 O171 1.259 . S
C151 O174 1.258 . S
Co152 N161 2.057 . S
Co152 O168 2.117 . S
Co152 O169 2.020 . S
Co152 O171 2.021 . S
Co152 O176 2.062 . S
C153 N155 1.316 . S
C153 N156 1.347 . S
C153 H158 0.931 . S
C154 N155 1.375 . S
C154 C157 1.350 . S
C154 H159 0.930 . S
N155 Co150 2.057 . S
N155 C153 1.316 . S
N155 C154 1.375 . S
N156 C153 1.347 . S
N156 C157 1.373 . S
C157 C154 1.350 . S
C157 N156 1.373 . S
C157 H178 0.931 . S
H158 C153 0.931 . S
H159 C154 0.930 . S
C160 O167 1.259 . S
C160 O168 1.258 . S
N161 Co152 2.057 . S
N161 C162 1.316 . S
N161 C163 1.375 . S
C162 N161 1.316 . S
C162 N164 1.347 . S
C162 H173 0.931 . S
C163 N161 1.375 . S
C163 C165 1.350 . S
C163 H172 0.930 . S
N164 C162 1.347 . S
N164 C165 1.373 . S
C165 C163 1.350 . S
C165 N164 1.373 . S
C165 H179 0.931 . S
C166 O169 1.256 . S
C166 O170 1.255 . S
O167 Co150 2.021 . S
O167 C160 1.259 . S
O168 Co152 2.117 . S
O168 C160 1.258 . S
O169 Co152 2.020 . S
O169 C166 1.256 . S
O170 Co150 2.062 . S
O170 C166 1.255 . S
O171 C151 1.259 . S
O171 Co152 2.021 . S
H172 C163 0.930 . S
H173 C162 0.931 . S
O174 Co150 2.117 . S
O174 C151 1.258 . S
O175 Co150 2.020 . S
O175 C177 1.256 . S
O176 Co152 2.062 . S
O176 C177 1.255 . S
C177 O175 1.256 . S
C177 O176 1.255 . S
H178 C157 0.931 . S
H179 C165 0.931 . S
Co180 N185 2.057 . S
Co180 O197 2.021 . S
Co180 O200 2.062 . S
Co180 O204 2.117 . S
Co180 O205 2.020 . S
C181 O201 1.259 . S
C181 O204 1.258 . S
Co182 N191 2.057 . S
Co182 O198 2.117 . S
Co182 O199 2.020 . S
Co182 O201 2.021 . S
Co182 O206 2.062 . S
C183 N185 1.316 . S
C183 N186 1.347 . S
C183 H188 0.931 . S
C184 N185 1.375 . S
C184 C187 1.350 . S
C184 H189 0.930 . S
N185 Co180 2.057 . S
N185 C183 1.316 . S
N185 C184 1.375 . S
N186 C183 1.347 . S
N186 C187 1.373 . S
C187 C184 1.350 . S
C187 N186 1.373 . S
C187 H208 0.931 . S
H188 C183 0.931 . S
H189 C184 0.930 . S
C190 O197 1.259 . S
C190 O198 1.258 . S
N191 Co182 2.057 . S
N191 C192 1.316 . S
N191 C193 1.375 . S
C192 N191 1.316 . S
C192 N194 1.347 . S
C192 H203 0.931 . S
C193 N191 1.375 . S
C193 C195 1.350 . S
C193 H202 0.930 . S
N194 C192 1.347 . S
N194 C195 1.373 . S
C195 C193 1.350 . S
C195 N194 1.373 . S
C195 H209 0.931 . S
C196 O199 1.256 . S
C196 O200 1.255 . S
O197 Co180 2.021 . S
O197 C190 1.259 . S
O198 Co182 2.117 . S
O198 C190 1.258 . S
O199 Co182 2.020 . S
O199 C196 1.256 . S
O200 Co180 2.062 . S
O200 C196 1.255 . S
O201 C181 1.259 . S
O201 Co182 2.021 . S
H202 C193 0.930 . S
H203 C192 0.931 . S
O204 Co180 2.117 . S
O204 C181 1.258 . S
O205 Co180 2.020 . S
O205 C207 1.256 . S
O206 Co182 2.062 . S
O206 C207 1.255 . S
C207 O205 1.256 . S
C207 O206 1.255 . S
H208 C187 0.931 . S
H209 C195 0.931 . S
Co210 N215 2.057 . S
Co210 O227 2.021 1_455 S
Co210 O230 2.062 1_455 S
Co210 O234 2.117 1_455 S
Co210 O235 2.019 . S
C211 O231 1.259 . S
C211 O234 1.258 . S
Co212 N221 2.057 . S
Co212 O228 2.117 . S
Co212 O229 2.020 . S
Co212 O231 2.021 . S
Co212 O236 2.062 . S
C213 N215 1.316 . S
C213 N216 1.347 . S
C213 H218 0.931 . S
C214 N215 1.375 . S
C214 C217 1.350 . S
C214 H219 0.930 . S
N215 Co210 2.057 . S
N215 C213 1.316 . S
N215 C214 1.375 . S
N216 C213 1.347 . S
N216 C217 1.373 . S
C217 C214 1.350 . S
C217 N216 1.373 . S
C217 H238 0.931 . S
H218 C213 0.931 . S
H219 C214 0.930 . S
C220 O227 1.259 . S
C220 O228 1.258 . S
N221 Co212 2.057 . S
N221 C222 1.316 . S
N221 C223 1.375 . S
C222 N221 1.316 . S
C222 N224 1.347 . S
C222 H233 0.931 . S
C223 N221 1.375 . S
C223 C225 1.350 . S
C223 H232 0.930 . S
N224 C222 1.347 . S
N224 C225 1.373 . S
C225 C223 1.350 . S
C225 N224 1.373 . S
C225 H239 0.931 . S
C226 O229 1.256 . S
C226 O230 1.255 . S
O227 Co210 2.021 1_655 S
O227 C220 1.259 . S
O228 Co212 2.117 . S
O228 C220 1.258 . S
O229 Co212 2.020 . S
O229 C226 1.256 . S
O230 Co210 2.062 1_655 S
O230 C226 1.255 . S
O231 C211 1.259 . S
O231 Co212 2.021 . S
H232 C223 0.930 . S
H233 C222 0.931 . S
O234 Co210 2.117 1_655 S
O234 C211 1.258 . S
O235 Co210 2.019 . S
O235 C237 1.221 1_455 S
O236 Co212 2.062 . S
O236 C237 1.255 . S
C237 O235 1.221 1_655 S
C237 O236 1.255 . S
H238 C217 0.931 . S
H239 C225 0.931 . S
Co240 N245 2.057 . S
Co240 O257 2.021 . S
Co240 O260 2.062 . S
Co240 O264 2.117 . S
Co240 O265 2.020 . S
C241 O261 1.259 . S
C241 O264 1.258 . S
Co242 N251 2.057 . S
Co242 O258 2.101 . S
Co242 O259 2.020 1_455 S
Co242 O261 2.021 1_455 S
Co242 O266 2.062 1_455 S
C243 N245 1.316 . S
C243 N246 1.347 . S
C243 H248 0.931 . S
C244 N245 1.375 . S
C244 C247 1.350 . S
C244 H249 0.930 . S
N245 Co240 2.057 . S
N245 C243 1.316 . S
N245 C244 1.375 . S
N246 C243 1.347 . S
N246 C247 1.373 . S
C247 C244 1.350 . S
C247 N246 1.373 . S
C247 H268 0.931 . S
H248 C243 0.931 . S
H249 C244 0.930 . S
C250 O257 1.259 . S
C250 O258 1.252 1_655 S
N251 Co242 2.057 . S
N251 C252 1.316 . S
N251 C253 1.375 . S
C252 N251 1.316 . S
C252 N254 1.347 . S
C252 H263 0.931 . S
C253 N251 1.375 . S
C253 C255 1.350 . S
C253 H262 0.930 . S
N254 C252 1.347 . S
N254 C255 1.373 . S
C255 C253 1.350 . S
C255 N254 1.373 . S
C255 H269 0.931 . S
C256 O259 1.256 . S
C256 O260 1.255 . S
O257 Co240 2.021 . S
O257 C250 1.259 . S
O258 Co242 2.101 . S
O258 C250 1.252 1_455 S
O259 Co242 2.020 1_655 S
O259 C256 1.256 . S
O260 Co240 2.062 . S
O260 C256 1.255 . S
O261 C241 1.259 . S
O261 Co242 2.021 1_655 S
H262 C253 0.930 . S
H263 C252 0.931 . S
O264 Co240 2.117 . S
O264 C241 1.258 . S
O265 Co240 2.020 . S
O265 C267 1.256 . S
O266 Co242 2.062 1_655 S
O266 C267 1.255 . S
C267 O265 1.256 . S
C267 O266 1.255 . S
H268 C247 0.931 . S
H269 C255 0.931 . S
H270 C278 0.950 . S
H271 C283 0.950 . S
H272 C280 0.950 . S
H273 C282 0.950 . S
H274 C284 0.950 . S
H275 C286 0.950 . S
H276 C288 0.950 . S
H277 C289 0.950 . S
C278 H270 0.950 . S
C278 C279 1.386 . S
C278 C280 1.391 . S
C279 C278 1.386 . S
C279 C283 1.393 . S
C280 H272 0.950 . S
C280 C278 1.391 . S
C280 C281 1.400 . S
C281 C280 1.400 . S
C281 C282 1.398 . S
C281 C287 1.491 . S
C282 H273 0.950 . S
C282 C281 1.398 . S
C282 C283 1.391 . S
C283 H271 0.950 . S
C283 C279 1.393 . S
C283 C282 1.391 . S
C284 H274 0.950 . S
C284 C285 1.386 . S
C284 C286 1.391 . S
C285 C284 1.386 . S
C285 C289 1.393 . S
C286 H275 0.950 . S
C286 C284 1.391 . S
C286 C287 1.400 . S
C287 C281 1.491 . S
C287 C286 1.400 . S
C287 C288 1.398 . S
C288 H276 0.950 . S
C288 C287 1.398 . S
C288 C289 1.391 . S
C289 H277 0.950 . S
C289 C285 1.393 . S
C289 C288 1.391 . S
H290 C298 0.950 . S
H291 C303 0.950 . S
H292 C300 0.950 . S
H293 C302 0.950 . S
H294 C304 0.950 . S
H295 C306 0.950 . S
H296 C308 0.950 . S
H297 C309 0.950 . S
C298 H290 0.950 . S
C298 C299 1.386 . S
C298 C300 1.391 . S
C299 C298 1.386 . S
C299 C303 1.393 . S
C300 H292 0.950 . S
C300 C298 1.391 . S
C300 C301 1.400 . S
C301 C300 1.400 . S
C301 C302 1.398 . S
C301 C307 1.491 . S
C302 H293 0.950 . S
C302 C301 1.398 . S
C302 C303 1.391 . S
C303 H291 0.950 . S
C303 C299 1.393 . S
C303 C302 1.391 . S
C304 H294 0.950 . S
C304 C305 1.386 . S
C304 C306 1.391 . S
C305 C304 1.386 . S
C305 C309 1.393 . S
C306 H295 0.950 . S
C306 C304 1.391 . S
C306 C307 1.400 . S
C307 C301 1.491 . S
C307 C306 1.400 . S
C307 C308 1.398 . S
C308 H296 0.950 . S
C308 C307 1.398 . S
C308 C309 1.391 . S
C309 H297 0.950 . S
C309 C305 1.393 . S
C309 C308 1.391 . S
H310 C318 0.950 . S
H311 C323 0.950 . S
H312 C320 0.950 . S
H313 C322 0.950 . S
H314 C324 0.950 . S
H315 C326 0.950 . S
H316 C328 0.950 . S
H317 C329 0.950 . S
C318 H310 0.950 . S
C318 C319 1.386 . S
C318 C320 1.391 . S
C319 C318 1.386 . S
C319 C323 1.393 . S
C320 H312 0.950 . S
C320 C318 1.391 . S
C320 C321 1.400 . S
C321 C320 1.400 . S
C321 C322 1.398 . S
C321 C327 1.491 . S
C322 H313 0.950 . S
C322 C321 1.398 . S
C322 C323 1.391 . S
C323 H311 0.950 . S
C323 C319 1.393 . S
C323 C322 1.391 . S
C324 H314 0.950 . S
C324 C325 1.386 . S
C324 C326 1.391 . S
C325 C324 1.386 . S
C325 C329 1.393 . S
C326 H315 0.950 . S
C326 C324 1.391 . S
C326 C327 1.400 . S
C327 C321 1.491 . S
C327 C326 1.400 . S
C327 C328 1.398 . S
C328 H316 0.950 . S
C328 C327 1.398 . S
C328 C329 1.391 . S
C329 H317 0.950 . S
C329 C325 1.393 . S
C329 C328 1.391 . S
H330 C338 0.950 . S
H331 C343 0.950 . S
H332 C340 0.950 . S
H333 C342 0.950 . S
H334 C344 0.950 . S
H335 C346 0.950 . S
H336 C348 0.950 1_556 S
H337 C349 0.950 . S
C338 H330 0.950 . S
C338 C339 1.386 . S
C338 C340 1.391 . S
C339 C338 1.386 . S
C339 C343 1.393 . S
C340 H332 0.950 . S
C340 C338 1.391 . S
C340 C341 1.400 . S
C341 C340 1.400 . S
C341 C342 1.398 . S
C341 C347 1.491 . S
C342 H333 0.950 . S
C342 C341 1.398 . S
C342 C343 1.391 . S
C343 H331 0.950 . S
C343 C339 1.393 . S
C343 C342 1.391 . S
C344 H334 0.950 . S
C344 C345 1.386 . S
C344 C346 1.391 1_554 S
C345 C344 1.386 . S
C345 C349 1.393 . S
C346 H335 0.950 . S
C346 C344 1.391 1_556 S
C346 C347 1.400 . S
C347 C341 1.491 . S
C347 C346 1.400 . S
C347 C348 1.398 1_556 S
C348 H336 0.950 1_554 S
C348 C347 1.398 1_554 S
C348 C349 1.391 . S
C349 H337 0.950 . S
C349 C345 1.393 . S
C349 C348 1.391 . S
H350 C358 0.950 . S
H351 C363 0.950 . S
H352 C360 0.950 . S
H353 C362 0.950 . S
H354 C364 0.950 . S
H355 C366 0.950 . S
H356 C368 0.950 . S
H357 C369 0.950 . S
C358 H350 0.950 . S
C358 C359 1.386 . S
C358 C360 1.391 . S
C359 C358 1.386 . S
C359 C363 1.393 . S
C360 H352 0.950 . S
C360 C358 1.391 . S
C360 C361 1.400 . S
C361 C360 1.400 . S
C361 C362 1.398 . S
C361 C367 1.491 . S
C362 H353 0.950 . S
C362 C361 1.398 . S
C362 C363 1.391 . S
C363 H351 0.950 . S
C363 C359 1.393 . S
C363 C362 1.391 . S
C364 H354 0.950 . S
C364 C365 1.386 . S
C364 C366 1.391 1_554 S
C365 C364 1.386 . S
C365 C369 1.393 . S
C366 H355 0.950 . S
C366 C364 1.391 1_556 S
C366 C367 1.400 . S
C367 C361 1.491 . S
C367 C366 1.400 . S
C367 C368 1.398 . S
C368 H356 0.950 . S
C368 C367 1.398 . S
C368 C369 1.391 1_556 S
C369 H357 0.950 . S
C369 C365 1.393 . S
C369 C368 1.391 1_554 S
H370 C378 0.950 . S
H371 C383 0.950 . S
H372 C380 0.950 . S
H373 C382 0.950 . S
H374 C384 0.950 . S
H375 C386 0.950 . S
H376 C388 0.950 . S
H377 C389 0.950 1_554 S
C378 H370 0.950 . S
C378 C379 1.386 . S
C378 C380 1.391 . S
C379 C378 1.386 . S
C379 C383 1.393 . S
C380 H372 0.950 . S
C380 C378 1.391 . S
C380 C381 1.400 . S
C381 C380 1.400 . S
C381 C382 1.398 . S
C381 C387 1.491 . S
C382 H373 0.950 . S
C382 C381 1.398 . S
C382 C383 1.391 . S
C383 H371 0.950 . S
C383 C379 1.393 . S
C383 C382 1.391 . S
C384 H374 0.950 . S
C384 C385 1.386 1_556 S
C384 C386 1.391 . S
C385 C384 1.386 1_554 S
C385 C389 1.393 1_554 S
C386 H375 0.950 . S
C386 C384 1.391 . S
C386 C387 1.400 . S
C387 C381 1.491 . S
C387 C386 1.400 . S
C387 C388 1.398 . S
C388 H376 0.950 . S
C388 C387 1.398 . S
C388 C389 1.391 . S
C389 H377 0.950 1_556 S
C389 C385 1.393 1_556 S
C389 C388 1.391 . S
H390 C398 0.950 . S
H391 C403 0.950 . S
H392 C400 0.950 . S
H393 C402 0.950 . S
H394 C404 0.950 1_556 S
H395 C406 0.950 . S
H396 C408 0.950 . S
H397 C409 0.950 1_556 S
C398 H390 0.950 . S
C398 C399 1.386 . S
C398 C400 1.391 . S
C399 C398 1.386 . S
C399 C403 1.393 . S
C400 H392 0.950 . S
C400 C398 1.391 . S
C400 C401 1.400 . S
C401 C400 1.400 . S
C401 C402 1.398 . S
C401 C407 1.491 . S
C402 H393 0.950 . S
C402 C401 1.398 . S
C402 C403 1.391 . S
C403 H391 0.950 . S
C403 C399 1.393 . S
C403 C402 1.391 . S
C404 H394 0.950 1_554 S
C404 C405 1.386 1_554 S
C404 C406 1.391 . S
C405 C404 1.386 1_556 S
C405 C409 1.393 1_556 S
C406 H395 0.950 . S
C406 C404 1.391 . S
C406 C407 1.400 . S
C407 C401 1.491 . S
C407 C406 1.400 . S
C407 C408 1.398 . S
C408 H396 0.950 . S
C408 C407 1.398 . S
C408 C409 1.391 . S
C409 H397 0.950 1_554 S
C409 C405 1.393 1_554 S
C409 C408 1.391 . S
H410 C418 0.950 . S
H411 C423 0.950 . S
H412 C420 0.950 . S
H413 C422 0.950 . S
H414 C424 0.950 1_556 S
H415 C426 0.950 . S
H416 C428 0.950 . S
H417 C429 0.948 1_556 S
C418 H410 0.950 . S
C418 C419 1.386 . S
C418 C420 1.391 . S
C419 C418 1.386 . S
C419 C423 1.393 . S
C420 H412 0.950 . S
C420 C418 1.391 . S
C420 C421 1.400 . S
C421 C420 1.400 . S
C421 C422 1.398 . S
C421 C427 1.491 . S
C422 H413 0.950 . S
C422 C421 1.398 . S
C422 C423 1.391 . S
C423 H411 0.950 . S
C423 C419 1.393 . S
C423 C422 1.391 . S
C424 H414 0.950 1_554 S
C424 C425 1.386 1_554 S
C424 C426 1.391 . S
C425 C424 1.386 1_556 S
C425 C429 1.392 1_556 S
C426 H415 0.950 . S
C426 C424 1.391 . S
C426 C427 1.400 . S
C427 C421 1.491 . S
C427 C426 1.400 . S
C427 C428 1.398 . S
C428 H416 0.950 . S
C428 C427 1.398 . S
C428 C429 1.393 . S
C429 H417 0.948 1_554 S
C429 C425 1.392 1_554 S
C429 C428 1.393 . S
H430 C438 0.950 . S
H431 C443 0.950 . S
H432 C440 0.950 . S
H433 C442 0.950 . S
H434 C444 0.957 . S
H435 C446 0.950 . S
H436 C448 0.950 . S
H437 C449 0.950 1_556 S
C438 H430 0.950 . S
C438 C439 1.386 . S
C438 C440 1.391 . S
C439 C438 1.386 . S
C439 C443 1.393 . S
C440 H432 0.950 . S
C440 C438 1.391 . S
C440 C441 1.400 . S
C441 C440 1.400 . S
C441 C442 1.398 . S
C441 C447 1.491 . S
C442 H433 0.950 . S
C442 C441 1.398 . S
C442 C443 1.391 . S
C443 H431 0.950 . S
C443 C439 1.393 . S
C443 C442 1.391 . S
C444 H434 0.957 . S
C444 C445 1.391 . S
C444 C446 1.379 1_556 S
C445 C444 1.391 . S
C445 C449 1.393 1_556 S
C446 H435 0.950 . S
C446 C444 1.379 1_554 S
C446 C447 1.400 . S
C447 C441 1.491 . S
C447 C446 1.400 . S
C447 C448 1.398 . S
C448 H436 0.950 . S
C448 C447 1.398 . S
C448 C449 1.391 . S
C449 H437 0.950 1_554 S
C449 C445 1.393 1_554 S
C449 C448 1.391 . S
H450 C458 0.950 . S
H451 C463 0.950 . S
H452 C460 0.950 . S
H453 C462 0.950 . S
H454 C464 0.950 1_556 S
H455 C466 0.950 1_556 S
H456 C468 0.950 . S
H457 C469 0.950 . S
C458 H450 0.950 . S
C458 C459 1.386 . S
C458 C460 1.391 . S
C459 C458 1.386 . S
C459 C463 1.393 . S
C460 H452 0.950 . S
C460 C458 1.391 . S
C460 C461 1.400 . S
C461 C460 1.400 . S
C461 C462 1.398 . S
C461 C467 1.491 . S
C462 H453 0.950 . S
C462 C461 1.398 . S
C462 C463 1.391 . S
C463 H451 0.950 . S
C463 C459 1.393 . S
C463 C462 1.391 . S
C464 H454 0.950 1_554 S
C464 C465 1.386 . S
C464 C466 1.391 . S
C465 C464 1.386 . S
C465 C469 1.393 . S
C466 H455 0.950 1_554 S
C466 C464 1.391 . S
C466 C467 1.400 . S
C467 C461 1.491 . S
C467 C466 1.400 . S
C467 C468 1.398 . S
C468 H456 0.950 . S
C468 C467 1.398 . S
C468 C469 1.391 . S
C469 H457 0.950 . S
C469 C465 1.393 . S
C469 C468 1.391 . S
H470 C478 0.950 . S
H471 C483 0.950 . S
H472 C480 0.950 . S
H473 C482 0.950 . S
H474 C484 0.950 . S
H475 C486 0.950 . S
H476 C488 0.950 . S
H477 C489 0.950 . S
C478 H470 0.950 . S
C478 C479 1.386 . S
C478 C480 1.391 . S
C479 C478 1.386 . S
C479 C483 1.393 . S
C480 H472 0.950 . S
C480 C478 1.391 . S
C480 C481 1.400 . S
C481 C480 1.400 . S
C481 C482 1.398 . S
C481 C487 1.491 . S
C482 H473 0.950 . S
C482 C481 1.398 . S
C482 C483 1.391 . S
C483 H471 0.950 . S
C483 C479 1.393 . S
C483 C482 1.391 . S
C484 H474 0.950 . S
C484 C485 1.386 . S
C484 C486 1.391 . S
C485 C484 1.386 . S
C485 C489 1.393 . S
C486 H475 0.950 . S
C486 C484 1.391 . S
C486 C487 1.400 . S
C487 C481 1.491 . S
C487 C486 1.400 . S
C487 C488 1.398 . S
C488 H476 0.950 . S
C488 C487 1.398 . S
C488 C489 1.391 . S
C489 H477 0.950 . S
C489 C485 1.393 . S
C489 C488 1.391 . S
H490 C498 0.950 . S
H491 C503 0.950 . S
H492 C500 0.950 . S
H493 C502 0.950 . S
H494 C504 0.950 . S
H495 C506 0.950 . S
H496 C508 0.950 . S
H497 C509 0.950 . S
C498 H490 0.950 . S
C498 C499 1.386 . S
C498 C500 1.391 . S
C499 C498 1.386 . S
C499 C503 1.393 . S
C500 H492 0.950 . S
C500 C498 1.391 . S
C500 C501 1.400 . S
C501 C500 1.400 . S
C501 C502 1.398 . S
C501 C507 1.491 . S
C502 H493 0.950 . S
C502 C501 1.398 . S
C502 C503 1.391 . S
C503 H491 0.950 . S
C503 C499 1.393 . S
C503 C502 1.391 . S
C504 H494 0.950 . S
C504 C505 1.386 . S
C504 C506 1.391 . S
C505 C504 1.386 . S
C505 C509 1.393 . S
C506 H495 0.950 . S
C506 C504 1.391 . S
C506 C507 1.400 . S
C507 C501 1.491 . S
C507 C506 1.400 . S
C507 C508 1.398 . S
C508 H496 0.950 . S
C508 C507 1.398 . S
C508 C509 1.391 . S
C509 H497 0.950 . S
C509 C505 1.393 . S
C509 C508 1.391 . S
H510 C518 0.950 . S
H511 C523 0.950 . S
H512 C520 0.950 . S
H513 C522 0.953 . S
H514 C524 0.950 . S
H515 C526 0.950 . S
H516 C528 0.950 . S
H517 C529 0.950 . S
C518 H510 0.950 . S
C518 C519 1.386 . S
C518 C520 1.391 . S
C519 C518 1.386 . S
C519 C523 1.393 . S
C520 H512 0.950 . S
C520 C518 1.391 . S
C520 C521 1.400 1_554 S
C521 C520 1.400 1_556 S
C521 C522 1.398 . S
C521 C527 1.491 . S
C522 H513 0.953 . S
C522 C521 1.398 . S
C522 C523 1.387 1_556 S
C523 H511 0.950 . S
C523 C519 1.393 . S
C523 C522 1.387 1_554 S
C524 H514 0.950 . S
C524 C525 1.386 . S
C524 C526 1.391 . S
C525 C524 1.386 . S
C525 C529 1.393 . S
C526 H515 0.950 . S
C526 C524 1.391 . S
C526 C527 1.400 . S
C527 C521 1.491 . S
C527 C526 1.400 . S
C527 C528 1.398 . S
C528 H516 0.950 . S
C528 C527 1.398 . S
C528 C529 1.391 . S
C529 H517 0.950 . S
C529 C525 1.393 . S
C529 C528 1.391 . S
H530 C538 0.950 . S
H531 C543 0.950 . S
H532 C540 0.950 . S
H533 C542 0.950 . S
H534 C544 0.950 1_554 S
H535 C546 0.950 . S
H536 C548 0.950 . S
H537 C549 0.950 . S
C538 H530 0.950 . S
C538 C539 1.386 1_455 S
C538 C540 1.391 . S
C539 C538 1.386 1_655 S
C539 C543 1.393 . S
C540 H532 0.950 . S
C540 C538 1.391 . S
C540 C541 1.400 1_455 S
C541 C540 1.400 1_655 S
C541 C542 1.398 . S
C541 C547 1.491 . S
C542 H533 0.950 . S
C542 C541 1.398 . S
C542 C543 1.391 . S
C543 H531 0.950 . S
C543 C539 1.393 . S
C543 C542 1.391 . S
C544 H534 0.950 1_556 S
C544 C545 1.386 1_655 S
C544 C546 1.391 . S
C545 C544 1.386 1_455 S
C545 C549 1.393 . S
C546 H535 0.950 . S
C546 C544 1.391 . S
C546 C547 1.400 . S
C547 C541 1.491 . S
C547 C546 1.400 . S
C547 C548 1.398 1_655 S
C548 H536 0.950 . S
C548 C547 1.398 1_455 S
C548 C549 1.391 . S
C549 H537 0.950 . S
C549 C545 1.393 . S
C549 C548 1.391 . S
H550 C558 0.950 . S
H551 C563 0.950 . S
H552 C560 0.950 . S
H553 C562 0.950 . S
H554 C564 0.950 . S
H555 C566 0.950 . S
H556 C568 0.950 . S
H557 C569 0.950 . S
C558 H550 0.950 . S
C558 C559 1.386 . S
C558 C560 1.391 . S
C559 C558 1.386 . S
C559 C563 1.393 . S
C560 H552 0.950 . S
C560 C558 1.391 . S
C560 C561 1.400 . S
C561 C560 1.400 . S
C561 C562 1.398 . S
C561 C567 1.491 . S
C562 H553 0.950 . S
C562 C561 1.398 . S
C562 C563 1.391 . S
C563 H551 0.950 . S
C563 C559 1.393 . S
C563 C562 1.391 . S
C564 H554 0.950 . S
C564 C565 1.386 . S
C564 C566 1.391 . S
C565 C564 1.386 . S
C565 C569 1.393 1_554 S
C566 H555 0.950 . S
C566 C564 1.391 . S
C566 C567 1.400 1_554 S
C567 C561 1.491 . S
C567 C566 1.400 1_556 S
C567 C568 1.398 . S
C568 H556 0.950 . S
C568 C567 1.398 . S
C568 C569 1.391 . S
C569 H557 0.950 . S
C569 C565 1.393 1_556 S
C569 C568 1.391 . S
H570 C578 0.950 . S
H571 C583 0.950 . S
H572 C580 0.950 . S
H573 C582 0.950 . S
H574 C584 0.949 1_654 S
H575 C586 0.950 1_655 S
H576 C588 0.950 . S
H577 C589 0.950 . S
C578 H570 0.950 . S
C578 C579 1.386 1_455 S
C578 C580 1.391 . S
C579 C578 1.386 1_655 S
C579 C583 1.393 . S
C580 H572 0.950 . S
C580 C578 1.391 . S
C580 C581 1.400 . S
C581 C580 1.400 . S
C581 C582 1.398 1_455 S
C581 C587 1.491 . S
C582 H573 0.950 . S
C582 C581 1.398 1_655 S
C582 C583 1.391 . S
C583 H571 0.950 . S
C583 C579 1.393 . S
C583 C582 1.391 . S
C584 H574 0.949 1_456 S
C584 C585 1.386 . S
C584 C586 1.391 . S
C585 C584 1.386 . S
C585 C589 1.393 . S
C586 H575 0.950 1_455 S
C586 C584 1.391 . S
C586 C587 1.400 . S
C587 C581 1.491 . S
C587 C586 1.400 . S
C587 C588 1.398 . S
C588 H576 0.950 . S
C588 C587 1.398 . S
C588 C589 1.391 . S
C589 H577 0.950 . S
C589 C585 1.393 . S
C589 C588 1.391 . S
H590 C598 0.950 . S
H591 C603 0.950 . S
H592 C600 0.950 . S
H593 C602 0.950 . S
H594 C604 0.950 . S
H595 C606 0.950 . S
H596 C608 0.950 . S
H597 C609 0.950 . S
C598 H590 0.950 . S
C598 C599 1.386 . S
C598 C600 1.391 . S
C599 C598 1.386 . S
C599 C603 1.393 1_554 S
C600 H592 0.950 . S
C600 C598 1.391 . S
C600 C601 1.400 1_554 S
C601 C600 1.400 1_556 S
C601 C602 1.398 . S
C601 C607 1.491 . S
C602 H593 0.950 . S
C602 C601 1.398 . S
C602 C603 1.391 . S
C603 H591 0.950 . S
C603 C599 1.393 1_556 S
C603 C602 1.391 . S
C604 H594 0.950 . S
C604 C605 1.386 . S
C604 C606 1.391 . S
C605 C604 1.386 . S
C605 C609 1.393 . S
C606 H595 0.950 . S
C606 C604 1.391 . S
C606 C607 1.400 . S
C607 C601 1.491 . S
C607 C606 1.400 . S
C607 C608 1.398 . S
C608 H596 0.950 . S
C608 C607 1.398 . S
C608 C609 1.391 . S
C609 H597 0.950 . S
C609 C605 1.393 . S
C609 C608 1.391 . S
H610 C618 0.950 . S
H611 C623 0.950 . S
H612 C620 0.950 1_554 S
H613 C622 0.950 . S
H614 C624 0.950 1_556 S
H615 C626 0.950 . S
H616 C628 0.950 . S
H617 C629 0.950 . S
C618 H610 0.950 . S
C618 C619 1.386 . S
C618 C620 1.391 . S
C619 C618 1.386 . S
C619 C623 1.393 . S
C620 H612 0.950 1_556 S
C620 C618 1.391 . S
C620 C621 1.400 . S
C621 C620 1.400 . S
C621 C622 1.398 . S
C621 C627 1.491 1_556 S
C622 H613 0.950 . S
C622 C621 1.398 . S
C622 C623 1.391 . S
C623 H611 0.950 . S
C623 C619 1.393 . S
C623 C622 1.391 . S
C624 H614 0.950 1_554 S
C624 C625 1.386 . S
C624 C626 1.391 1_554 S
C625 C624 1.386 . S
C625 C629 1.393 . S
C626 H615 0.950 . S
C626 C624 1.391 1_556 S
C626 C627 1.400 1_556 S
C627 C621 1.491 1_554 S
C627 C626 1.400 1_554 S
C627 C628 1.398 . S
C628 H616 0.950 . S
C628 C627 1.398 . S
C628 C629 1.391 . S
C629 H617 0.950 . S
C629 C625 1.393 . S
C629 C628 1.391 . S
H630 C638 0.950 . S
H631 C643 0.950 . S
H632 C640 0.950 . S
H633 C642 0.950 . S
H634 C644 0.950 . S
H635 C646 0.950 . S
H636 C648 0.950 . S
H637 C649 0.950 . S
C638 H630 0.950 . S
C638 C639 1.386 . S
C638 C640 1.391 . S
C639 C638 1.386 . S
C639 C643 1.393 . S
C640 H632 0.950 . S
C640 C638 1.391 . S
C640 C641 1.400 . S
C641 C640 1.400 . S
C641 C642 1.398 . S
C641 C647 1.491 . S
C642 H633 0.950 . S
C642 C641 1.398 . S
C642 C643 1.391 . S
C643 H631 0.950 . S
C643 C639 1.393 . S
C643 C642 1.391 . S
C644 H634 0.950 . S
C644 C645 1.386 . S
C644 C646 1.391 . S
C645 C644 1.386 . S
C645 C649 1.393 . S
C646 H635 0.950 . S
C646 C644 1.391 . S
C646 C647 1.400 . S
C647 C641 1.491 . S
C647 C646 1.400 . S
C647 C648 1.398 . S
C648 H636 0.950 . S
C648 C647 1.398 . S
C648 C649 1.391 . S
C649 H637 0.950 . S
C649 C645 1.393 . S
C649 C648 1.391 . S
H650 C658 0.950 . S
H651 C663 0.950 . S
H652 C660 0.950 . S
H653 C662 0.950 . S
H654 C664 0.950 . S
H655 C666 0.950 . S
H656 C668 0.950 . S
H657 C669 0.950 . S
C658 H650 0.950 . S
C658 C659 1.386 . S
C658 C660 1.391 . S
C659 C658 1.386 . S
C659 C663 1.393 . S
C660 H652 0.950 . S
C660 C658 1.391 . S
C660 C661 1.400 . S
C661 C660 1.400 . S
C661 C662 1.398 . S
C661 C667 1.491 . S
C662 H653 0.950 . S
C662 C661 1.398 . S
C662 C663 1.391 . S
C663 H651 0.950 . S
C663 C659 1.393 . S
C663 C662 1.391 . S
C664 H654 0.950 . S
C664 C665 1.386 . S
C664 C666 1.391 . S
C665 C664 1.386 . S
C665 C669 1.393 . S
C666 H655 0.950 . S
C666 C664 1.391 . S
C666 C667 1.400 . S
C667 C661 1.491 . S
C667 C666 1.400 . S
C667 C668 1.398 . S
C668 H656 0.950 . S
C668 C667 1.398 . S
C668 C669 1.391 . S
C669 H657 0.950 . S
C669 C665 1.393 . S
C669 C668 1.391 . S
H670 C678 0.950 . S
H671 C683 0.950 . S
H672 C680 0.950 . S
H673 C682 0.950 . S
H674 C684 0.950 . S
H675 C686 0.950 . S
H676 C688 0.950 . S
H677 C689 0.950 . S
C678 H670 0.950 . S
C678 C679 1.386 . S
C678 C680 1.391 . S
C679 C678 1.386 . S
C679 C683 1.393 . S
C680 H672 0.950 . S
C680 C678 1.391 . S
C680 C681 1.400 . S
C681 C680 1.400 . S
C681 C682 1.398 . S
C681 C687 1.491 . S
C682 H673 0.950 . S
C682 C681 1.398 . S
C682 C683 1.391 . S
C683 H671 0.950 . S
C683 C679 1.393 . S
C683 C682 1.391 . S
C684 H674 0.950 . S
C684 C685 1.386 . S
C684 C686 1.391 . S
C685 C684 1.386 . S
C685 C689 1.393 . S
C686 H675 0.950 . S
C686 C684 1.391 . S
C686 C687 1.400 . S
C687 C681 1.491 . S
C687 C686 1.400 . S
C687 C688 1.398 . S
C688 H676 0.950 . S
C688 C687 1.398 . S
C688 C689 1.391 . S
C689 H677 0.950 . S
C689 C685 1.393 . S
C689 C688 1.391 . S
H690 C698 0.950 . S
H691 C703 0.950 . S
H692 C700 0.950 . S
H693 C702 0.950 . S
H694 C704 0.950 . S
H695 C706 0.950 . S
H696 C708 0.950 . S
H697 C709 0.950 . S
C698 H690 0.950 . S
C698 C699 1.386 . S
C698 C700 1.391 . S
C699 C698 1.386 . S
C699 C703 1.393 . S
C700 H692 0.950 . S
C700 C698 1.391 . S
C700 C701 1.400 . S
C701 C700 1.400 . S
C701 C702 1.398 . S
C701 C707 1.491 . S
C702 H693 0.950 . S
C702 C701 1.398 . S
C702 C703 1.391 . S
C703 H691 0.950 . S
C703 C699 1.393 . S
C703 C702 1.391 . S
C704 H694 0.950 . S
C704 C705 1.386 . S
C704 C706 1.391 . S
C705 C704 1.386 . S
C705 C709 1.393 . S
C706 H695 0.950 . S
C706 C704 1.391 . S
C706 C707 1.400 . S
C707 C701 1.491 . S
C707 C706 1.400 . S
C707 C708 1.398 . S
C708 H696 0.950 . S
C708 C707 1.398 . S
C708 C709 1.391 . S
C709 H697 0.950 . S
C709 C705 1.393 . S
C709 C708 1.391 . S
H710 C718 0.950 . S
H711 C723 0.950 . S
H712 C720 0.950 . S
H713 C722 0.950 . S
H714 C724 0.950 . S
H715 C726 0.950 . S
H716 C728 0.950 . S
H717 C729 0.950 . S
C718 H710 0.950 . S
C718 C719 1.386 . S
C718 C720 1.391 . S
C719 C718 1.386 . S
C719 C723 1.393 . S
C720 H712 0.950 . S
C720 C718 1.391 . S
C720 C721 1.400 . S
C721 C720 1.400 . S
C721 C722 1.398 . S
C721 C727 1.491 . S
C722 H713 0.950 . S
C722 C721 1.398 . S
C722 C723 1.391 . S
C723 H711 0.950 . S
C723 C719 1.393 . S
C723 C722 1.391 . S
C724 H714 0.950 . S
C724 C725 1.386 . S
C724 C726 1.391 . S
C725 C724 1.386 . S
C725 C729 1.393 . S
C726 H715 0.950 . S
C726 C724 1.391 . S
C726 C727 1.400 . S
C727 C721 1.491 . S
C727 C726 1.400 . S
C727 C728 1.398 . S
C728 H716 0.950 . S
C728 C727 1.398 . S
C728 C729 1.391 . S
C729 H717 0.950 . S
C729 C725 1.393 . S
C729 C728 1.391 . S
H730 C738 0.950 . S
H731 C743 0.950 . S
H732 C740 0.950 . S
H733 C742 0.950 . S
H734 C744 0.950 . S
H735 C746 0.950 . S
H736 C748 0.950 . S
H737 C749 0.950 . S
C738 H730 0.950 . S
C738 C739 1.386 . S
C738 C740 1.391 . S
C739 C738 1.386 . S
C739 C743 1.393 . S
C740 H732 0.950 . S
C740 C738 1.391 . S
C740 C741 1.400 . S
C741 C740 1.400 . S
C741 C742 1.398 . S
C741 C747 1.491 . S
C742 H733 0.950 . S
C742 C741 1.398 . S
C742 C743 1.391 . S
C743 H731 0.950 . S
C743 C739 1.393 . S
C743 C742 1.391 . S
C744 H734 0.950 . S
C744 C745 1.386 . S
C744 C746 1.391 . S
C745 C744 1.386 . S
C745 C749 1.393 . S
C746 H735 0.950 . S
C746 C744 1.391 . S
C746 C747 1.400 . S
C747 C741 1.491 . S
C747 C746 1.400 . S
C747 C748 1.398 . S
C748 H736 0.950 . S
C748 C747 1.398 . S
C748 C749 1.391 . S
C749 H737 0.950 . S
C749 C745 1.393 . S
C749 C748 1.391 . S
H750 C758 0.950 . S
H751 C763 0.950 . S
H752 C760 0.950 . S
H753 C762 0.950 . S
H754 C764 0.950 . S
H755 C766 0.950 . S
H756 C768 0.950 . S
H757 C769 0.950 . S
C758 H750 0.950 . S
C758 C759 1.386 . S
C758 C760 1.391 . S
C759 C758 1.386 . S
C759 C763 1.393 . S
C760 H752 0.950 . S
C760 C758 1.391 . S
C760 C761 1.400 . S
C761 C760 1.400 . S
C761 C762 1.398 . S
C761 C767 1.491 . S
C762 H753 0.950 . S
C762 C761 1.398 . S
C762 C763 1.391 . S
C763 H751 0.950 . S
C763 C759 1.393 . S
C763 C762 1.391 . S
C764 H754 0.950 . S
C764 C765 1.386 . S
C764 C766 1.391 . S
C765 C764 1.386 . S
C765 C769 1.393 . S
C766 H755 0.950 . S
C766 C764 1.391 . S
C766 C767 1.400 . S
C767 C761 1.491 . S
C767 C766 1.400 . S
C767 C768 1.398 . S
C768 H756 0.950 . S
C768 C767 1.398 . S
C768 C769 1.391 . S
C769 H757 0.950 . S
C769 C765 1.393 . S
C769 C768 1.391 . S
H770 C778 0.950 . S
H771 C783 0.950 . S
H772 C780 0.950 . S
H773 C782 0.950 . S
H774 C784 0.950 1_455 S
H775 C786 0.950 . S
H776 C788 0.950 . S
H777 C789 0.950 . S
C778 H770 0.950 . S
C778 C779 1.386 . S
C778 C780 1.391 . S
C779 C778 1.386 . S
C779 C783 1.393 . S
C780 H772 0.950 . S
C780 C778 1.391 . S
C780 C781 1.400 . S
C781 C780 1.400 . S
C781 C782 1.398 . S
C781 C787 1.491 . S
C782 H773 0.950 . S
C782 C781 1.398 . S
C782 C783 1.391 . S
C783 H771 0.950 . S
C783 C779 1.393 . S
C783 C782 1.391 . S
C784 H774 0.950 1_655 S
C784 C785 1.386 . S
C784 C786 1.391 . S
C785 C784 1.386 . S
C785 C789 1.393 . S
C786 H775 0.950 . S
C786 C784 1.391 . S
C786 C787 1.400 . S
C787 C781 1.491 . S
C787 C786 1.400 . S
C787 C788 1.398 . S
C788 H776 0.950 . S
C788 C787 1.398 . S
C788 C789 1.391 . S
C789 H777 0.950 . S
C789 C785 1.393 . S
C789 C788 1.391 . S
H790 C798 0.950 . S
H791 C803 0.950 . S
H792 C800 0.950 . S
H793 C802 0.950 . S
H794 C804 0.950 . S
H795 C806 0.950 . S
H796 C808 0.950 . S
H797 C809 0.950 . S
C798 H790 0.950 . S
C798 C799 1.386 . S
C798 C800 1.391 . S
C799 C798 1.386 . S
C799 C803 1.393 . S
C800 H792 0.950 . S
C800 C798 1.391 . S
C800 C801 1.400 . S
C801 C800 1.400 . S
C801 C802 1.398 . S
C801 C807 1.491 . S
C802 H793 0.950 . S
C802 C801 1.398 . S
C802 C803 1.391 . S
C803 H791 0.950 . S
C803 C799 1.393 . S
C803 C802 1.391 . S
C804 H794 0.950 . S
C804 C805 1.386 . S
C804 C806 1.391 . S
C805 C804 1.386 . S
C805 C809 1.393 . S
C806 H795 0.950 . S
C806 C804 1.391 . S
C806 C807 1.400 . S
C807 C801 1.491 . S
C807 C806 1.400 . S
C807 C808 1.398 . S
C808 H796 0.950 . S
C808 C807 1.398 . S
C808 C809 1.391 . S
C809 H797 0.950 . S
C809 C805 1.393 . S
C809 C808 1.391 . S
C279 C10 1.052 . S
C285 C1 1.052 . S
C299 C31 1.068 . S
C305 C40 1.068 . S
C319 C70 1.084 . S
C325 C61 1.084 . S
C339 C91 1.051 . S
C345 C100 1.051 . S
C359 C130 1.072 . S
C365 C121 1.072 . S
C379 C151 1.087 . S
C385 C160 1.087 . S
C399 C207 1.103 . S
C405 C196 1.103 . S
C419 C226 1.051 . S
C425 C237 1.051 . S
C439 C267 1.030 . S
C445 C256 1.030 . S
C459 N164 1.401 . S
C465 C27 1.459 . S
C479 N44 1.064 . S
C485 N104 1.062 . S
C499 C87 1.876 . S
C505 C147 1.900 . S
C519 N74 0.807 . S
C525 N186 0.767 . S
C539 C211 1.484 . S
C545 N14 1.391 . S
C559 N246 1.376 . S
C565 C57 1.375 . S
C579 C250 1.893 . S
C585 C16 1.852 . S
C599 N36 0.938 . S
C605 C190 0.992 . S
C619 N224 1.115 . S
C625 C76 1.149 . S
C639 N66 1.403 . S
C645 C106 1.459 . S
C659 N126 1.059 . S
C665 N6 1.056 . S
C679 C46 1.898 . S
C685 C166 1.864 . S
C699 C241 1.895 . S
C705 C117 1.848 . S
C719 C181 0.996 . S
C725 N134 0.953 . S
C739 N216 1.099 . S
C745 C177 1.151 . S
C759 N194 0.766 . S
C765 N156 0.807 . S
C779 N96 1.368 1_545 S
C785 C220 1.479 . S
C799 N254 1.369 . S
C805 C136 1.371 . S
