# Generated by pormake.
# Topology fng, (5)-cn, num edge types: 1
# Building blocks:
#     Node 0, Type 0, BuildingBlock: XOMCOT_clean_sbu_0, # of connection points: 5
#     Node 1, Type 0, BuildingBlock: XOMCOT_clean_sbu_0, # of connection points: 5
#     Node 2, Type 0, BuildingBlock: XOMCOT_clean_sbu_0, # of connection points: 5
#     Node 3, Type 0, BuildingBlock: XOMCOT_clean_sbu_0, # of connection points: 5
#     Node 4, Type 0, BuildingBlock: XOMCOT_clean_sbu_0, # of connection points: 5
#     Node 5, Type 0, BuildingBlock: XOMCOT_clean_sbu_0, # of connection points: 5
#     Node 6, Type 0, BuildingBlock: XOMCOT_clean_sbu_0, # of connection points: 5
#     Node 7, Type 0, BuildingBlock: XOMCOT_clean_sbu_0, # of connection points: 5
#     Node 8, Type 0, BuildingBlock: XOMCOT_clean_sbu_0, # of connection points: 5
#     Node 9, Type 0, BuildingBlock: XOMCOT_clean_sbu_0, # of connection points: 5
#     Node 10, Type 0, BuildingBlock: XOMCOT_clean_sbu_0, # of connection points: 5
#     Node 11, Type 0, BuildingBlock: XOMCOT_clean_sbu_0, # of connection points: 5
#     Node 12, Type 0, BuildingBlock: XOMCOT_clean_sbu_0, # of connection points: 5
#     Node 13, Type 0, BuildingBlock: XOMCOT_clean_sbu_0, # of connection points: 5
#     Node 14, Type 0, BuildingBlock: XOMCOT_clean_sbu_0, # of connection points: 5
#     Node 15, Type 0, BuildingBlock: XOMCOT_clean_sbu_0, # of connection points: 5
#     Node 16, Type 0, BuildingBlock: XOMCOT_clean_sbu_0, # of connection points: 5
#     Node 17, Type 0, BuildingBlock: XOMCOT_clean_sbu_0, # of connection points: 5
#     Edge 18, Type (0, 0), BuildingBlock: AJUNOK_clean_linker_0, # of connection points: 2
#     Edge 19, Type (0, 0), BuildingBlock: AJUNOK_clean_linker_0, # of connection points: 2
#     Edge 20, Type (0, 0), BuildingBlock: AJUNOK_clean_linker_0, # of connection points: 2
#     Edge 21, Type (0, 0), BuildingBlock: AJUNOK_clean_linker_0, # of connection points: 2
#     Edge 22, Type (0, 0), BuildingBlock: AJUNOK_clean_linker_0, # of connection points: 2
#     Edge 23, Type (0, 0), BuildingBlock: AJUNOK_clean_linker_0, # of connection points: 2
#     Edge 24, Type (0, 0), BuildingBlock: AJUNOK_clean_linker_0, # of connection points: 2
#     Edge 25, Type (0, 0), BuildingBlock: AJUNOK_clean_linker_0, # of connection points: 2
#     Edge 26, Type (0, 0), BuildingBlock: AJUNOK_clean_linker_0, # of connection points: 2
#     Edge 27, Type (0, 0), BuildingBlock: AJUNOK_clean_linker_0, # of connection points: 2
#     Edge 28, Type (0, 0), BuildingBlock: AJUNOK_clean_linker_0, # of connection points: 2
#     Edge 29, Type (0, 0), BuildingBlock: AJUNOK_clean_linker_0, # of connection points: 2
#     Edge 30, Type (0, 0), BuildingBlock: AJUNOK_clean_linker_0, # of connection points: 2
#     Edge 31, Type (0, 0), BuildingBlock: AJUNOK_clean_linker_0, # of connection points: 2
#     Edge 32, Type (0, 0), BuildingBlock: AJUNOK_clean_linker_0, # of connection points: 2
#     Edge 33, Type (0, 0), BuildingBlock: AJUNOK_clean_linker_0, # of connection points: 2
#     Edge 34, Type (0, 0), BuildingBlock: AJUNOK_clean_linker_0, # of connection points: 2
#     Edge 35, Type (0, 0), BuildingBlock: AJUNOK_clean_linker_0, # of connection points: 2
#     Edge 36, Type (0, 0), BuildingBlock: AJUNOK_clean_linker_0, # of connection points: 2
#     Edge 37, Type (0, 0), BuildingBlock: AJUNOK_clean_linker_0, # of connection points: 2
#     Edge 38, Type (0, 0), BuildingBlock: AJUNOK_clean_linker_0, # of connection points: 2
#     Edge 39, Type (0, 0), BuildingBlock: AJUNOK_clean_linker_0, # of connection points: 2
#     Edge 40, Type (0, 0), BuildingBlock: AJUNOK_clean_linker_0, # of connection points: 2
#     Edge 41, Type (0, 0), BuildingBlock: AJUNOK_clean_linker_0, # of connection points: 2
#     Edge 42, Type (0, 0), BuildingBlock: AJUNOK_clean_linker_0, # of connection points: 2
#     Edge 43, Type (0, 0), BuildingBlock: AJUNOK_clean_linker_0, # of connection points: 2
#     Edge 44, Type (0, 0), BuildingBlock: AJUNOK_clean_linker_0, # of connection points: 2
#     Edge 45, Type (0, 0), BuildingBlock: AJUNOK_clean_linker_0, # of connection points: 2
#     Edge 46, Type (0, 0), BuildingBlock: AJUNOK_clean_linker_0, # of connection points: 2
#     Edge 47, Type (0, 0), BuildingBlock: AJUNOK_clean_linker_0, # of connection points: 2
#     Edge 48, Type (0, 0), BuildingBlock: AJUNOK_clean_linker_0, # of connection points: 2
#     Edge 49, Type (0, 0), BuildingBlock: AJUNOK_clean_linker_0, # of connection points: 2
#     Edge 50, Type (0, 0), BuildingBlock: AJUNOK_clean_linker_0, # of connection points: 2
#     Edge 51, Type (0, 0), BuildingBlock: AJUNOK_clean_linker_0, # of connection points: 2
#     Edge 52, Type (0, 0), BuildingBlock: AJUNOK_clean_linker_0, # of connection points: 2
#     Edge 53, Type (0, 0), BuildingBlock: AJUNOK_clean_linker_0, # of connection points: 2
#     Edge 54, Type (0, 0), BuildingBlock: AJUNOK_clean_linker_0, # of connection points: 2
#     Edge 55, Type (0, 0), BuildingBlock: AJUNOK_clean_linker_0, # of connection points: 2
#     Edge 56, Type (0, 0), BuildingBlock: AJUNOK_clean_linker_0, # of connection points: 2
#     Edge 57, Type (0, 0), BuildingBlock: AJUNOK_clean_linker_0, # of connection points: 2
#     Edge 58, Type (0, 0), BuildingBlock: AJUNOK_clean_linker_0, # of connection points: 2
#     Edge 59, Type (0, 0), BuildingBlock: AJUNOK_clean_linker_0, # of connection points: 2
#     Edge 60, Type (0, 0), BuildingBlock: AJUNOK_clean_linker_0, # of connection points: 2
#     Edge 61, Type (0, 0), BuildingBlock: AJUNOK_clean_linker_0, # of connection points: 2
#     Edge 62, Type (0, 0), BuildingBlock: AJUNOK_clean_linker_0, # of connection points: 2
# Relax obj value: 0.110
# Max RMSD: 0.132
# Mean RMSD: 0.132
data_MOF--net-fng--node1-XOMCOT_clean_sbu_0--edge1-AJUNOK_clean_linker_0
_symmetry_space_group_name_H-M    P1
_symmetry_Int_Tables_number       1
_symmetry_cell_setting            triclinic
loop_
_symmetry_equiv_pos_as_xyz
'x, y, z'
_cell_length_a     59.3331
_cell_length_b     59.317125
_cell_length_c     13.366608
_cell_angle_alpha  90.027672
_cell_angle_beta   89.747666
_cell_angle_gamma 119.9213
loop_
_atom_site_label
_atom_site_type_symbol
_atom_site_fract_x
_atom_site_fract_y
_atom_site_fract_z
_atom_type_partial_charge
Co0 Co 0.18323 0.26887 0.10498 0.0
C1 C 0.19285 0.2731 0.88656 0.0
C2 C 0.19918 0.30936 0.94521 0.0
C3 C 0.20291 0.31173 0.84289 0.0
N4 N 0.19233 0.28486 0.97245 0.0
N5 N 0.19879 0.28878 0.80625 0.0
H6 H 0.18689 0.25273 0.88158 0.0
H7 H 0.20093 0.32449 0.99479 0.0
C8 C 0.18375 0.31783 0.18622 0.0
O9 O 0.16251 0.31315 0.13899 0.0
N10 N 0.17562 0.25385 0.23722 0.0
C11 C 0.15868 0.22933 0.26662 0.0
C12 C 0.15982 0.22808 0.36982 0.0
C13 C 0.18697 0.26695 0.32154 0.0
N14 N 0.17756 0.25186 0.40306 0.0
C15 C 0.13571 0.24779 0.9974 0.0
C16 C 0.10408 0.25005 0.14397 0.0
C17 C 0.09313 0.23879 0.05115 0.0
C18 C 0.10952 0.23809 0.97765 0.0
C19 C 0.13088 0.25988 0.16065 0.0
N20 N 0.14663 0.25935 0.08636 0.0
H21 H 0.14673 0.24447 0.94169 0.0
H22 H 0.13882 0.26753 0.23361 0.0
H23 H 0.14606 0.21371 0.21703 0.0
H24 H 0.20182 0.28725 0.3242 0.0
O25 O 0.18015 0.23713 0.05271 0.0
O26 O 0.21676 0.2702 0.10854 0.0
O27 O 0.19424 0.30382 0.17037 0.0
C28 C 0.20488 0.24702 0.06893 0.0
H29 H 0.20761 0.32882 0.79874 0.0
H30 H 0.14798 0.2114 0.41686 0.0
H31 H 0.09192 0.25029 0.20415 0.0
H32 H 0.10192 0.22909 0.90576 0.0
Co33 Co 0.79494 0.92955 0.12658 0.0
C34 C 0.79004 0.9218 0.90868 0.0
C35 C 0.75629 0.9209 0.97062 0.0
C36 C 0.75461 0.92066 0.86743 0.0
N37 N 0.77841 0.92124 0.9964 0.0
N38 N 0.77588 0.92112 0.82899 0.0
H39 H 0.8096 0.92527 0.90217 0.0
H40 H 0.74312 0.92238 0.0229 0.0
C41 C 0.74018 0.88381 0.18022 0.0
O42 O 0.73619 0.87298 0.09152 0.0
N43 N 0.81131 0.9382 0.25619 0.0
C44 C 0.83415 0.94035 0.28302 0.0
C45 C 0.83548 0.9408 0.38616 0.0
C46 C 0.79945 0.9381 0.3426 0.0
N47 N 0.8134 0.93894 0.42326 0.0
C48 C 0.82844 0.91178 0.05118 0.0
C49 C 0.80375 0.86207 0.12878 0.0
C50 C 0.82615 0.87023 0.06965 0.0
C51 C 0.83817 0.89533 0.02997 0.0
C52 C 0.79426 0.87929 0.14749 0.0
N53 N 0.80633 0.9038 0.10695 0.0
H54 H 0.83913 0.93119 0.0215 0.0
H55 H 0.77775 0.8729 0.19653 0.0
H56 H 0.84823 0.94019 0.23182 0.0
H57 H 0.78019 0.93577 0.34653 0.0
O58 O 0.82467 0.95928 0.06814 0.0
O59 O 0.79087 0.96037 0.13138 0.0
O60 O 0.76161 0.90444 0.19939 0.0
C61 C 0.81336 0.9727 0.08633 0.0
H62 H 0.73954 0.92127 0.82418 0.0
H63 H 0.85107 0.94151 0.43024 0.0
H64 H 0.79414 0.8429 0.16257 0.0
H65 H 0.85543 0.90249 0.98359 0.0
Co66 Co 0.13214 0.88404 0.12261 0.0
C67 C 0.14034 0.88683 0.90585 0.0
C68 C 0.13417 0.85056 0.96423 0.0
C69 C 0.13379 0.84929 0.86121 0.0
N70 N 0.13878 0.87433 0.9922 0.0
N71 N 0.13758 0.87213 0.82466 0.0
H72 H 0.14066 0.90517 0.90263 0.0
H73 H 0.12963 0.83467 0.01513 0.0
C74 C 0.17417 0.869 0.17089 0.0
O75 O 0.17977 0.86764 0.07681 0.0
N76 N 0.12484 0.89323 0.25292 0.0
C77 C 0.12186 0.91352 0.27987 0.0
C78 C 0.12085 0.91424 0.38293 0.0
C79 C 0.12468 0.88146 0.33946 0.0
N80 N 0.12282 0.89416 0.41979 0.0
C81 C 0.1497 0.93652 0.06208 0.0
C82 C 0.2026 0.95542 0.06892 0.0
C83 C 0.19354 0.9715 0.03086 0.0
C84 C 0.1667 0.96181 0.02982 0.0
C85 C 0.18477 0.92993 0.10049 0.0
N86 N 0.15852 0.92055 0.09597 0.0
H87 H 0.12919 0.92973 0.05726 0.0
H88 H 0.19239 0.91793 0.12635 0.0
H89 H 0.12113 0.92731 0.22941 0.0
H90 H 0.12725 0.86466 0.34399 0.0
O91 O 0.10239 0.88437 0.06643 0.0
O92 O 0.10081 0.84978 0.13446 0.0
O93 O 0.15764 0.87603 0.19419 0.0
C94 C 0.08854 0.85998 0.08962 0.0
H95 H 0.12961 0.83238 0.81691 0.0
H96 H 0.11939 0.92873 0.42736 0.0
H97 H 0.22326 0.96226 0.07209 0.0
H98 H 0.15878 0.97373 1.004 0.0
Co99 Co 0.28076 0.17146 0.88958 0.0
C100 C 0.28393 0.17665 0.10903 0.0
C101 C 0.3217 0.18885 0.04809 0.0
C102 C 0.32358 0.19074 0.15121 0.0
N103 N 0.29657 0.17931 0.02181 0.0
N104 N 0.29965 0.18269 0.18827 0.0
H105 H 0.26334 0.16976 0.11592 0.0
H106 H 0.33771 0.19408 0.99716 0.0
C107 C 0.33045 0.17269 0.81536 0.0
O108 O 0.32644 0.15289 0.87167 0.0
N109 N 0.26542 0.16457 0.75859 0.0
C110 C 0.24079 0.14738 0.73273 0.0
C111 C 0.23908 0.14715 0.62976 0.0
C112 C 0.27817 0.1748 0.67219 0.0
N113 N 0.26276 0.16421 0.59222 0.0
C114 C 0.25812 0.122 0.98742 0.0
C115 C 0.26488 0.09392 0.83764 0.0
C116 C 0.25264 0.08118 0.92724 0.0
C117 C 0.24936 0.09569 1.00222 0.0
C118 C 0.27385 0.12071 0.82649 0.0
N119 N 0.27123 0.13472 0.90265 0.0
H120 H 0.25303 0.13167 0.04315 0.0
H121 H 0.2827 0.13008 0.75636 0.0
H122 H 0.22542 0.13534 0.78474 0.0
H123 H 0.29866 0.18897 0.66718 0.0
O124 O 0.24914 0.16828 0.94451 0.0
O125 O 0.28238 0.20514 0.89019 0.0
O126 O 0.31564 0.18257 0.82256 0.0
C127 C 0.25919 0.19313 0.93019 0.0
H128 H 0.34089 0.19669 0.19543 0.0
H129 H 0.22183 0.13513 0.5863 0.0
H130 H 0.2673 0.08327 0.77667 0.0
H131 H 0.23893 0.08646 0.07058 0.0
Co132 Co 0.89159 0.12331 0.90486 0.0
C133 C 0.89266 0.12812 0.12402 0.0
C134 C 0.86551 0.1378 0.06046 0.0
C135 C 0.86347 0.13787 0.16351 0.0
N136 N 0.88414 0.13202 0.03593 0.0
N137 N 0.88059 0.13168 0.20272 0.0
H138 H 0.90589 0.12075 0.13153 0.0
H139 H 0.85334 0.1405 1.00748 0.0
C140 C 0.88701 0.17148 0.84765 0.0
O141 O 0.9003 0.18535 0.92497 0.0
N142 N 0.89842 0.11443 0.77406 0.0
C143 C 0.91795 0.11053 0.74481 0.0
C144 C 0.91777 0.10916 0.64162 0.0
C145 C 0.88647 0.11495 0.68944 0.0
N146 N 0.89794 0.112 0.60723 0.0
C147 C 0.9423 0.14138 0.98367 0.0
C148 C 0.96882 0.18904 0.88977 0.0
C149 C 0.98217 0.18193 0.95806 0.0
C150 C 0.96848 0.15767 1.00418 0.0
C151 C 0.94219 0.17184 0.87078 0.0
N152 N 0.92887 0.14867 0.92111 0.0
H153 H 0.93317 0.1225 0.0181 0.0
H154 H 0.93279 0.17698 0.81375 0.0
H155 H 0.93207 0.11006 0.79435 0.0
H156 H 0.87077 0.11923 0.68772 0.0
O157 O 0.89176 0.09344 0.96098 0.0
O158 O 0.85664 0.09271 0.90351 0.0
O159 O 0.88288 0.14838 0.83566 0.0
C160 C 0.86694 0.08021 0.94586 0.0
H161 H 0.85005 0.14153 0.20591 0.0
H162 H 0.93174 0.10724 0.59536 0.0
H163 H 0.97903 0.20725 0.84918 0.0
H164 H 0.97808 0.15104 0.05542 0.0
Co165 Co 0.93625 0.77825 0.93292 0.0
C166 C 0.94211 0.77313 0.15081 0.0
C167 C 0.9087 0.73908 0.09487 0.0
C168 C 0.90919 0.73712 0.19773 0.0
N169 N 0.92915 0.76199 0.06534 0.0
N170 N 0.93013 0.75867 0.23203 0.0
H171 H 0.95853 0.79264 0.15579 0.0
H172 H 0.89351 0.72532 0.04688 0.0
C173 C 0.88875 0.72967 0.84794 0.0
O174 O 0.87207 0.7349 0.89184 0.0
N175 N 0.9439 0.79368 0.80112 0.0
C176 C 0.95168 0.81841 0.77461 0.0
C177 C 0.9537 0.82022 0.67158 0.0
C178 C 0.94185 0.78103 0.71493 0.0
N179 N 0.94721 0.79655 0.63449 0.0
C180 C 0.90783 0.79705 0.04245 0.0
C181 C 0.87785 0.79945 0.89053 0.0
C182 C 0.87722 0.80963 0.98487 0.0
C183 C 0.89176 0.80733 0.06175 0.0
C184 C 0.89389 0.78843 0.87494 0.0
N185 N 0.90862 0.78713 0.95119 0.0
H186 H 0.92103 0.79892 0.10021 0.0
H187 H 0.89495 0.78164 0.80094 0.0
H188 H 0.95515 0.83385 0.82623 0.0
H189 H 0.93585 0.76062 0.7104 0.0
O190 O 0.96413 0.81015 0.98615 0.0
O191 O 0.9689 0.77775 0.92915 0.0
O192 O 0.91306 0.74326 0.86691 0.0
C193 C 0.97957 0.80096 0.96833 0.0
H194 H 0.89431 0.72205 0.24415 0.0
H195 H 0.95948 0.83762 0.62784 0.0
H196 H 0.86708 0.8011 0.82849 0.0
H197 H 0.89196 0.81491 0.13572 0.0
Co198 Co 0.85081 0.60228 0.45321 0.0
C199 C 0.85448 0.60543 0.23338 0.0
C200 C 0.86951 0.64355 0.29458 0.0
C201 C 0.87113 0.64551 0.19132 0.0
N202 N 0.85835 0.61819 0.3208 0.0
N203 N 0.86127 0.62136 0.15411 0.0
H204 H 0.84693 0.58473 0.22644 0.0
H205 H 0.87632 0.65969 0.34578 0.0
C206 C 0.85279 0.65268 0.52437 0.0
O207 O 0.83381 0.64968 0.46552 0.0
N208 N 0.84411 0.58683 0.58438 0.0
C209 C 0.82658 0.56233 0.61114 0.0
C210 C 0.82619 0.5607 0.71422 0.0
C211 C 0.85438 0.59958 0.67039 0.0
N212 N 0.84347 0.58433 0.75098 0.0
C213 C 0.801 0.57785 0.3598 0.0
C214 C 0.77369 0.58801 0.50312 0.0
C215 C 0.76089 0.57497 0.41524 0.0
C216 C 0.77488 0.56964 0.34416 0.0
C217 C 0.80034 0.59644 0.51498 0.0
N218 N 0.81401 0.59231 0.44133 0.0
H219 H 0.81035 0.57154 0.30722 0.0
H220 H 0.80988 0.60608 0.58355 0.0
H221 H 0.81433 0.54704 0.55968 0.0
H222 H 0.86871 0.62001 0.67466 0.0
O223 O 0.84835 0.57102 0.39794 0.0
O224 O 0.88479 0.60477 0.45166 0.0
O225 O 0.86139 0.6368 0.52032 0.0
C226 C 0.87331 0.58177 0.41079 0.0
H227 H 0.87845 0.66311 0.1472 0.0
H228 H 0.81383 0.54358 0.75828 0.0
H229 H 0.76324 0.59162 0.56175 0.0
H230 H 0.76542 0.55833 0.27801 0.0
Co231 Co 0.46439 0.26188 0.45072 0.0
C232 C 0.46087 0.25667 0.23184 0.0
C233 C 0.42449 0.24903 0.29464 0.0
C234 C 0.42249 0.24826 0.19151 0.0
N235 N 0.44851 0.25386 0.31965 0.0
N236 N 0.44541 0.2528 0.15294 0.0
H237 H 0.48135 0.26355 0.22435 0.0
H238 H 0.40984 0.24738 0.34722 0.0
C239 C 0.41096 0.21484 0.50383 0.0
O240 O 0.41125 0.20115 0.42702 0.0
N241 N 0.47989 0.27005 0.58127 0.0
C242 C 0.50366 0.27456 0.6075 0.0
C243 C 0.50509 0.2751 0.7106 0.0
C244 C 0.46737 0.26832 0.66768 0.0
N245 N 0.48209 0.27085 0.74784 0.0
C246 C 0.49438 0.24039 0.37055 0.0
C247 C 0.47158 0.19378 0.47269 0.0
C248 C 0.4904 0.19832 0.39902 0.0
C249 C 0.50208 0.22224 0.3494 0.0
C250 C 0.46418 0.21262 0.491 0.0
N251 N 0.47449 0.23505 0.43567 0.0
H252 H 0.50505 0.25906 0.33483 0.0
H253 H 0.45058 0.20921 0.55074 0.0
H254 H 0.51843 0.27615 0.55564 0.0
H255 H 0.44734 0.26381 0.67231 0.0
O256 O 0.49536 0.29106 0.39453 0.0
O257 O 0.4617 0.29337 0.45231 0.0
O258 O 0.42987 0.23781 0.51837 0.0
C259 C 0.48457 0.30514 0.41005 0.0
H260 H 0.40583 0.24529 0.14837 0.0
H261 H 0.5215 0.27771 0.75451 0.0
H262 H 0.46265 0.1759 0.51561 0.0
H263 H 0.51768 0.22725 0.29598 0.0
Co264 Co 0.80351 0.21171 0.43817 0.0
C265 C 0.79808 0.20127 0.21982 0.0
C266 C 0.8307 0.1993 0.27684 0.0
C267 C 0.83035 0.19688 0.17398 0.0
N268 N 0.81069 0.20262 0.3057 0.0
N269 N 0.80987 0.19827 0.13902 0.0
H270 H 0.78189 0.20476 0.21443 0.0
H271 H 0.84544 0.1999 0.32536 0.0
C272 C 0.85256 0.21277 0.52032 0.0
O273 O 0.86875 0.23381 0.47056 0.0
N274 N 0.79604 0.21968 0.56986 0.0
C275 C 0.78944 0.23751 0.59685 0.0
C276 C 0.78791 0.23762 0.70003 0.0
C277 C 0.79791 0.20891 0.65585 0.0
N278 N 0.79353 0.21976 0.73665 0.0
C279 C 0.82782 0.25876 0.32762 0.0
C280 C 0.86279 0.29148 0.4678 0.0
C281 C 0.86131 0.3018 0.37489 0.0
C282 C 0.84361 0.28491 0.30476 0.0
C283 C 0.84641 0.26471 0.48778 0.0
N284 N 0.82975 0.24842 0.41624 0.0
H285 H 0.81291 0.24718 0.27505 0.0
H286 H 0.84688 0.25724 0.56106 0.0
H287 H 0.7866 0.24995 0.54546 0.0
H288 H 0.80324 0.19396 0.65981 0.0
O289 O 0.77435 0.21388 0.3862 0.0
O290 O 0.77187 0.17785 0.44476 0.0
O291 O 0.82806 0.20157 0.50454 0.0
C292 C 0.76006 0.18917 0.40456 0.0
H293 H 0.84499 0.19604 0.12805 0.0
H294 H 0.78319 0.24999 0.74429 0.0
H295 H 0.87562 0.30407 0.52562 0.0
H296 H 0.84122 0.29208 0.23332 0.0
Co297 Co 0.94412 0.50253 0.21994 0.0
C298 C 0.94681 0.50437 0.43915 0.0
C299 C 0.98499 0.52573 0.37579 0.0
C300 C 0.98682 0.529 0.47843 0.0
N301 N 0.95982 0.50985 0.35152 0.0
N302 N 0.96264 0.51578 0.51729 0.0
H303 H 0.926 0.49311 0.44617 0.0
H304 H 1.00081 0.53541 0.32291 0.0
C305 C 0.99557 0.5049 0.15727 0.0
O306 O 0.99422 0.48855 0.22645 0.0
N307 N 0.92905 0.49608 0.08898 0.0
C308 C 0.90516 0.47776 0.05939 0.0
C309 C 0.90409 0.47889 0.95629 0.0
C310 C 0.942 0.50816 1.00502 0.0
N311 N 0.92738 0.49794 0.92311 0.0
C312 C 0.91363 0.45226 0.30602 0.0
C313 C 0.93144 0.42506 0.1953 0.0
C314 C 0.91317 0.41213 0.27203 0.0
C315 C 0.90412 0.42609 0.32634 0.0
C316 C 0.94042 0.45165 0.17657 0.0
N317 N 0.93252 0.46534 0.2356 0.0
H318 H 0.90487 0.46161 0.346 0.0
H319 H 0.95317 0.46087 0.11353 0.0
H320 H 0.89005 0.46397 0.10863 0.0
H321 H 0.96203 0.52374 1.00318 0.0
O322 O 0.91356 0.50183 0.27461 0.0
O323 O 0.94812 0.53728 0.21899 0.0
O324 O 0.97832 0.51171 0.15227 0.0
C325 C 0.92517 0.52676 0.26056 0.0
H326 H 1.00435 0.54101 0.52058 0.0
H327 H 0.888 0.4659 0.90918 0.0
H328 H 0.93803 0.41457 0.14841 0.0
H329 H 0.88933 0.41669 0.3837 0.0
Co330 Co 0.56396 0.45687 0.23503 0.0
C331 C 0.56727 0.46189 0.45088 0.0
C332 C 0.54043 0.47325 0.39649 0.0
C333 C 0.54082 0.4745 0.49958 0.0
N334 N 0.55698 0.4652 0.36656 0.0
N335 N 0.55781 0.46742 0.53307 0.0
H336 H 0.58049 0.4543 0.45211 0.0
H337 H 0.5284 0.47735 0.34824 0.0
C338 C 0.53304 0.47833 0.14603 0.0
O339 O 0.51288 0.45621 0.17404 0.0
N340 N 0.57143 0.44856 0.1034 0.0
C341 C 0.58655 0.43832 0.07876 0.0
C342 C 0.58799 0.4375 0.97581 0.0
C343 C 0.5635 0.45322 0.0155 0.0
N344 N 0.57349 0.44699 0.93696 0.0
C345 C 0.61729 0.47446 0.27824 0.0
C346 C 0.63463 0.52717 0.28419 0.0
C347 C 0.65167 0.51833 0.3121 0.0
C348 C 0.64272 0.49164 0.30802 0.0
C349 C 0.60899 0.50918 0.25611 0.0
N350 N 0.60057 0.48309 0.25317 0.0
H351 H 0.6109 0.45399 0.27931 0.0
H352 H 0.59585 0.51634 0.2406 0.0
H353 H 0.596 0.43194 0.13126 0.0
H354 H 0.55112 0.46154 1.00747 0.0
O355 O 0.56472 0.42699 0.29085 0.0
O356 O 0.52947 0.42565 0.23294 0.0
O357 O 0.55587 0.48314 0.1706 0.0
C358 C 0.53994 0.41337 0.27512 0.0
H359 H 0.52917 0.47969 0.54634 0.0
H360 H 0.59872 0.43042 0.93307 0.0
H361 H 0.64079 0.54769 0.28719 0.0
H362 H 0.6553 0.48402 0.32846 0.0
Co363 Co 0.60901 0.11833 0.2305 0.0
C364 C 0.60319 0.114 0.44945 0.0
C365 C 0.59976 0.07927 0.38613 0.0
C366 C 0.60023 0.07758 0.48916 0.0
N367 N 0.60132 0.10205 0.3614 0.0
N368 N 0.60251 0.09958 0.52831 0.0
H369 H 0.6073 0.13379 0.45659 0.0
H370 H 0.59986 0.06554 0.33311 0.0
C371 C 0.56396 0.06307 0.17859 0.0
O372 O 0.55053 0.06043 0.2605 0.0
N373 N 0.61696 0.13445 0.10002 0.0
C374 C 0.61772 0.1566 0.07151 0.0
C375 C 0.61886 0.15796 0.96829 0.0
C376 C 0.61819 0.12301 0.01468 0.0
N377 N 0.61911 0.13676 0.93297 0.0
C378 C 0.58866 0.14941 0.30902 0.0
C379 C 0.53942 0.12321 0.22865 0.0
C380 C 0.54545 0.14355 0.29647 0.0
C381 C 0.57067 0.15703 0.33439 0.0
C382 C 0.55814 0.1159 0.20588 0.0
N383 N 0.58214 0.12822 0.24986 0.0
H384 H 0.608 0.16083 0.33827 0.0
H385 H 0.55326 0.10066 0.15199 0.0
H386 H 0.6161 0.17005 0.12151 0.0
H387 H 0.61661 0.10412 0.01209 0.0
O388 O 0.63847 0.14893 0.28693 0.0
O389 O 0.64026 0.11537 0.22521 0.0
O390 O 0.58513 0.0842 0.16104 0.0
C391 C 0.65225 0.13789 0.26933 0.0
H392 H 0.59982 0.06184 0.53157 0.0
H393 H 0.61843 0.17281 0.92266 0.0
H394 H 0.52042 0.11297 0.19423 0.0
H395 H 0.57667 0.17373 0.38267 0.0
Co396 Co 0.51055 0.92787 0.80981 0.0
C397 C 0.50476 0.93221 0.59565 0.0
C398 C 0.54069 0.96399 0.64825 0.0
C399 C 0.54096 0.96454 0.54524 0.0
N400 N 0.51774 0.94403 0.67975 0.0
N401 N 0.51847 0.94438 0.51292 0.0
H402 H 0.48682 0.91372 0.5949 0.0
H403 H 0.55695 0.97591 0.69649 0.0
C404 C 0.52517 0.98483 0.86146 0.0
O405 O 0.52496 0.99213 0.76905 0.0
N406 N 0.50392 0.91157 0.94086 0.0
C407 C 0.48956 0.88626 0.9667 0.0
C408 C 0.48862 0.88431 0.06979 0.0
C409 C 0.51228 0.92438 0.02837 0.0
N410 N 0.50288 0.90842 0.10811 0.0
C411 C 0.45668 0.89167 0.7814 0.0
C412 C 0.43866 0.92641 0.76805 0.0
C413 C 0.42109 0.89981 0.75523 0.0
C414 C 0.43048 0.88245 0.76212 0.0
C415 C 0.46493 0.93488 0.7889 0.0
N416 N 0.47371 0.91752 0.79616 0.0
H417 H 0.46331 0.87778 0.78077 0.0
H418 H 0.47804 0.95539 0.79608 0.0
H419 H 0.48016 0.87019 0.91529 0.0
H420 H 0.52514 0.94512 0.03462 0.0
O421 O 0.50916 0.89774 0.74798 0.0
O422 O 0.54498 0.93089 0.80773 0.0
O423 O 0.51943 0.96154 0.88236 0.0
C424 C 0.53401 0.90852 0.76179 0.0
H425 H 0.5573 0.97718 0.49789 0.0
H426 H 0.47753 0.86662 0.11263 0.0
H427 H 0.43216 0.94048 0.76195 0.0
H428 H 0.41771 0.86182 0.74998 0.0
Co429 Co 0.12484 0.59248 0.77142 0.0
C430 C 0.12186 0.59267 0.55161 0.0
C431 C 0.08364 0.57261 0.61537 0.0
C432 C 0.08147 0.57281 0.51262 0.0
N433 N 0.10909 0.5845 0.63962 0.0
N434 N 0.10564 0.58541 0.4733 0.0
H435 H 0.14271 0.60427 0.54397 0.0
H436 H 0.06764 0.5651 0.66787 0.0
C437 C 0.07366 0.54383 0.83671 0.0
O438 O 0.07579 0.52863 0.77043 0.0
N439 N 0.14002 0.60072 0.90236 0.0
C440 C 0.16386 0.60584 0.93121 0.0
C441 C 0.16488 0.60718 0.03455 0.0
C442 C 0.1271 0.59935 0.98704 0.0
N443 N 0.1416 0.60279 0.06846 0.0
C444 C 0.15176 0.56946 0.67923 0.0
C445 C 0.13577 0.52681 0.80211 0.0
C446 C 0.15094 0.52924 0.71708 0.0
C447 C 0.15962 0.55149 0.65796 0.0
C448 C 0.12841 0.54566 0.82132 0.0
N449 N 0.13506 0.56584 0.7561 0.0
H450 H 0.15989 0.58674 0.63434 0.0
H451 H 0.11743 0.54397 0.88835 0.0
H452 H 0.17889 0.60725 0.8812 0.0
H453 H 0.10709 0.59498 0.98984 0.0
O454 O 0.15602 0.62148 0.71668 0.0
O455 O 0.12225 0.62405 0.77187 0.0
O456 O 0.09024 0.56814 0.83888 0.0
C457 C 0.14523 0.63564 0.73022 0.0
H458 H 0.06358 0.56503 0.47059 0.0
H459 H 0.18084 0.6097 0.08119 0.0
H460 H 0.12964 0.51056 0.85299 0.0
H461 H 0.17304 0.55544 0.59642 0.0
Co462 Co 0.46539 0.54445 0.77285 0.0
C463 C 0.46421 0.53988 0.55283 0.0
C464 C 0.48591 0.52347 0.61565 0.0
C465 C 0.48548 0.52075 0.51296 0.0
N466 N 0.47303 0.53608 0.64055 0.0
N467 N 0.47196 0.53134 0.4739 0.0
H468 H 0.45231 0.54885 0.54596 0.0
H469 H 0.49446 0.51599 0.66752 0.0
C470 C 0.51121 0.53761 0.84762 0.0
O471 O 0.52906 0.55648 0.79274 0.0
N472 N 0.45733 0.55183 0.90413 0.0
C473 C 0.45412 0.57175 0.93425 0.0
C474 C 0.45269 0.5713 0.03765 0.0
C475 C 0.45727 0.53936 0.98812 0.0
N476 N 0.45499 0.55105 0.07034 0.0
C477 C 0.49313 0.59401 0.67864 0.0
C478 C 0.53052 0.62006 0.82216 0.0
C479 C 0.5306 0.63349 0.73536 0.0
C480 C 0.51141 0.62006 0.66396 0.0
C481 C 0.51188 0.59345 0.83318 0.0
N482 N 0.49387 0.58051 0.76005 0.0
H483 H 0.47761 0.58515 0.62573 0.0
H484 H 0.51157 0.58349 0.90135 0.0
H485 H 0.45431 0.58633 0.88514 0.0
H486 H 0.45995 0.52264 0.98995 0.0
O487 O 0.43794 0.54919 0.71799 0.0
O488 O 0.43269 0.51164 0.77205 0.0
O489 O 0.48731 0.53138 0.84006 0.0
C490 C 0.42243 0.52441 0.73169 0.0
H491 H 0.49391 0.51114 0.47103 0.0
H492 H 0.4517 0.58558 0.08513 0.0
H493 H 0.54454 0.63002 0.88092 0.0
H494 H 0.50983 0.62996 0.59853 0.0
Co495 Co 0.60577 0.83113 0.55881 0.0
C496 C 0.61096 0.82778 0.77482 0.0
C497 C 0.64185 0.86363 0.71702 0.0
C498 C 0.64257 0.86473 0.82009 0.0
N499 N 0.62231 0.84019 0.68861 0.0
N500 N 0.62298 0.84216 0.85639 0.0
H501 H 0.59254 0.80989 0.77758 0.0
H502 H 0.65353 0.87953 0.66648 0.0
C503 C 0.6627 0.8463 0.50442 0.0
O504 O 0.6699 0.84691 0.59752 0.0
N505 N 0.589 0.82245 0.42945 0.0
C506 C 0.56565 0.80226 0.40397 0.0
C507 C 0.5637 0.80131 0.30097 0.0
C508 C 0.60049 0.83392 0.34213 0.0
N509 N 0.58577 0.82111 0.26256 0.0
C510 C 0.57188 0.77829 0.6193 0.0
C511 C 0.60613 0.75989 0.59774 0.0
C512 C 0.58146 0.74336 0.63906 0.0
C513 C 0.56426 0.75291 0.64882 0.0
C514 C 0.61313 0.78541 0.56953 0.0
N515 N 0.59618 0.79457 0.58128 0.0
H516 H 0.55811 0.7849 0.62966 0.0
H517 H 0.63233 0.79753 0.53996 0.0
H518 H 0.5513 0.78861 0.45561 0.0
H519 H 0.61991 0.85053 0.33641 0.0
O520 O 0.57562 0.83026 0.61901 0.0
O521 O 0.60841 0.86535 0.55228 0.0
O522 O 0.63919 0.83978 0.48381 0.0
C523 C 0.58621 0.85488 0.59962 0.0
H524 H 0.65556 0.88144 0.86455 0.0
H525 H 0.54758 0.78683 0.25771 0.0
H526 H 0.62012 0.75335 0.58906 0.0
H527 H 0.54487 0.74076 0.67886 0.0
Co528 Co 0.22559 0.7854 0.538 0.0
C529 C 0.22883 0.79433 0.75469 0.0
C530 C 0.19315 0.78947 0.6958 0.0
C531 C 0.19173 0.78924 0.79878 0.0
N532 N 0.21659 0.79302 0.66813 0.0
N533 N 0.21419 0.79224 0.8356 0.0
H534 H 0.24688 0.79407 0.75848 0.0
H535 H 0.17749 0.78546 0.64476 0.0
C536 C 0.21278 0.8289 0.48895 0.0
O537 O 0.21442 0.83626 0.58252 0.0
N538 N 0.23397 0.77721 0.40755 0.0
C539 C 0.25445 0.7747 0.37874 0.0
C540 C 0.25512 0.77418 0.27562 0.0
C541 C 0.22202 0.77716 0.32181 0.0
N542 N 0.23485 0.776 0.24037 0.0
C543 C 0.2779 0.8018 0.59429 0.0
C544 C 0.29808 0.85494 0.58816 0.0
C545 C 0.31351 0.84513 0.62635 0.0
C546 C 0.30327 0.81821 0.62576 0.0
C547 C 0.27253 0.83765 0.55606 0.0
N548 N 0.26242 0.81126 0.56123 0.0
H549 H 0.27066 0.7812 0.59912 0.0
H550 H 0.26109 0.84582 0.52968 0.0
H551 H 0.26856 0.77421 0.4278 0.0
H552 H 0.20502 0.77937 0.31879 0.0
O553 O 0.22546 0.75557 0.59666 0.0
O554 O 0.19093 0.75446 0.53077 0.0
O555 O 0.21782 0.81097 0.46527 0.0
C556 C 0.20086 0.74213 0.57714 0.0
H557 H 0.17495 0.78571 0.84302 0.0
H558 H 0.26982 0.77336 0.23004 0.0
H559 H 0.30538 0.8757 0.58598 0.0
H560 H 0.31471 0.80971 0.65121 0.0
Co561 Co 0.27157 0.45114 0.55468 0.0
C562 C 0.26908 0.44823 0.77382 0.0
C563 C 0.25822 0.41099 0.71092 0.0
C564 C 0.25839 0.40909 0.81383 0.0
N565 N 0.26439 0.43547 0.6862 0.0
N566 N 0.26531 0.43264 0.85247 0.0
H567 H 0.27629 0.4688 0.78084 0.0
H568 H 0.25508 0.39587 0.65828 0.0
C569 C 0.2251 0.39694 0.50141 0.0
O570 O 0.21041 0.39658 0.57592 0.0
N571 N 0.27896 0.46639 0.4236 0.0
C572 C 0.28223 0.48958 0.39437 0.0
C573 C 0.28316 0.49053 0.29099 0.0
C574 C 0.27831 0.4538 0.33913 0.0
N575 N 0.28031 0.46781 0.25735 0.0
C576 C 0.24954 0.48021 0.63755 0.0
C577 C 0.20224 0.45623 0.54167 0.0
C578 C 0.20692 0.47528 0.6143 0.0
C579 C 0.23126 0.4876 0.66031 0.0
C580 C 0.22146 0.44955 0.52007 0.0
N581 N 0.24426 0.46043 0.57241 0.0
H582 H 0.26827 0.49104 0.67216 0.0
H583 H 0.21797 0.43595 0.46052 0.0
H584 H 0.28265 0.50415 0.44421 0.0
H585 H 0.27552 0.43434 0.33703 0.0
O586 O 0.30043 0.48257 0.60799 0.0
O587 O 0.30356 0.44936 0.55077 0.0
O588 O 0.24792 0.41636 0.48868 0.0
C589 C 0.31498 0.47237 0.5915 0.0
H590 H 0.25495 0.39214 0.85647 0.0
H591 H 0.28438 0.506 0.24422 0.0
H592 H 0.18395 0.44649 0.50201 0.0
H593 H 0.23649 0.50339 0.71265 0.0
C594 C 0.18075 0.28221 0.53441 0.0
C595 C 0.18328 0.26089 0.50424 0.0
C596 C 0.18666 0.29179 0.63222 0.0
C597 C 0.19578 0.28067 0.70295 0.0
H598 H 0.17365 0.29117 0.4822 0.0
H599 H 0.18332 0.30751 0.65314 0.0
S600 S 0.2095 0.22692 0.65439 0.0
N601 N 0.19734 0.23026 0.5481 0.0
N602 N 0.20986 0.24895 0.73106 0.0
C603 C 0.19961 0.26008 0.67151 0.0
C604 C 0.19298 0.25 0.5724 0.0
C605 C 0.78948 0.94521 0.56251 0.0
C606 C 0.80428 0.93441 0.5256 0.0
C607 C 0.7797 0.94037 0.66089 0.0
C608 C 0.78427 0.92442 0.72582 0.0
H609 H 0.78574 0.95779 0.51522 0.0
H610 H 0.76903 0.94965 0.68702 0.0
S611 S 0.81887 0.88869 0.66172 0.0
N612 N 0.821 0.90519 0.55925 0.0
N613 N 0.80264 0.89608 0.74348 0.0
C614 C 0.79833 0.91286 0.68878 0.0
C615 C 0.80834 0.91785 0.58895 0.0
C616 C 0.11683 0.85811 0.65849 0.0
C617 C 0.13443 0.87794 0.72244 0.0
C618 C 0.11287 0.8636 0.5601 0.0
C619 C 0.12606 0.88912 0.52249 0.0
H620 H 0.10573 0.83826 0.68495 0.0
H621 H 0.09926 0.84782 0.51309 0.0
S622 S 0.17647 0.94739 0.65405 0.0
N623 N 0.16685 0.92375 0.73722 0.0
N624 N 0.15882 0.93402 0.55324 0.0
C625 C 0.14391 0.90905 0.58479 0.0
C626 C 0.14825 0.90346 0.68444 0.0
C627 C 0.29148 0.19334 0.45897 0.0
C628 C 0.27133 0.16862 0.48949 0.0
C629 C 0.30133 0.19777 0.36097 0.0
C630 C 0.29116 0.17769 0.29036 0.0
H631 H 0.29957 0.20942 0.51111 0.0
H632 H 0.31651 0.21705 0.33947 0.0
S633 S 0.24028 0.10913 0.33284 0.0
N634 N 0.24306 0.12346 0.44168 0.0
N635 N 0.26116 0.13212 0.2571 0.0
C636 C 0.27138 0.1529 0.31973 0.0
C637 C 0.26151 0.14829 0.41937 0.0
C638 C 0.91379 0.12952 0.43795 0.0
C639 C 0.89298 0.11607 0.50517 0.0
C640 C 0.90955 0.13497 0.34014 0.0
C641 C 0.88436 0.12729 0.30572 0.0
H642 H 0.93358 0.13634 0.46162 0.0
H643 H 0.92615 0.14543 0.29091 0.0
S644 S 0.82305 0.08984 0.44935 0.0
N645 N 0.84607 0.09398 0.52865 0.0
N646 N 0.8382 0.10444 0.34472 0.0
C647 C 0.86334 0.11366 0.37166 0.0
C648 C 0.86763 0.10798 0.47131 0.0
C649 C 0.94351 0.75782 0.40539 0.0
C650 C 0.93433 0.7682 0.33271 0.0
C651 C 0.94837 0.76769 0.50324 0.0
C652 C 0.94402 0.78816 0.5316 0.0
H653 H 0.94714 0.74218 0.386 0.0
H654 H 0.9556 0.75924 0.5571 0.0
S655 S 0.91804 0.82037 0.36811 0.0
N656 N 0.92007 0.79904 0.29485 0.0
N657 N 0.92858 0.81733 0.47859 0.0
C658 C 0.93454 0.79842 0.45898 0.0
C659 C 0.92978 0.78845 0.3596 0.0
C660 C 0.87664 0.62307 0.98135 0.0
C661 C 0.85641 0.61307 0.05191 0.0
C662 C 0.87237 0.61317 0.88366 0.0
C663 C 0.84767 0.5931 0.85334 0.0
H664 H 0.89594 0.63812 1.00273 0.0
H665 H 0.88857 0.62112 0.83168 0.0
S666 S 0.78776 0.56271 0.00936 0.0
N667 N 0.81067 0.58348 0.08488 0.0
N668 N 0.80231 0.56527 0.90096 0.0
C669 C 0.82716 0.58353 0.92321 0.0
C670 C 0.83161 0.59347 0.02253 0.0
C671 C 0.44661 0.26981 0.98322 0.0
C672 C 0.45345 0.25593 0.04985 0.0
C673 C 0.45634 0.2749 0.88497 0.0
C674 C 0.47324 0.26632 0.85019 0.0
H675 H 0.43424 0.27733 1.00803 0.0
H676 H 0.45089 0.28592 0.83607 0.0
S677 S 0.4943 0.2264 0.99246 0.0
N678 N 0.4763 0.23188 0.07244 0.0
N679 N 0.49448 0.24132 0.88795 0.0
C680 C 0.47958 0.25178 0.91548 0.0
C681 C 0.46967 0.24659 0.01521 0.0
C682 C 0.79071 0.18922 0.86872 0.0
C683 C 0.7968 0.21452 0.83937 0.0
C684 C 0.79531 0.18396 0.96661 0.0
C685 C 0.80606 0.20379 0.03815 0.0
H686 H 0.78225 0.17337 0.81564 0.0
H687 H 0.79026 0.16432 0.98693 0.0
S688 S 0.82718 0.27336 0.99967 0.0
N689 N 0.8155 0.25974 0.89009 0.0
N690 N 0.82363 0.24956 0.07395 0.0
C691 C 0.8124 0.22907 0.0102 0.0
C692 C 0.80785 0.23451 0.91084 0.0
C693 C 0.96064 0.5063 0.79515 0.0
C694 C 0.93648 0.50375 0.82165 0.0
C695 C 0.96958 0.51118 0.69598 0.0
C696 C 0.95472 0.51385 0.62031 0.0
H697 H 0.97234 0.50375 0.85113 0.0
H698 H 0.98776 0.51197 0.67774 0.0
S699 S 0.8922 0.51314 0.65509 0.0
N700 N 0.89914 0.50671 0.76735 0.0
N701 N 0.91622 0.51686 0.58128 0.0
C702 C 0.93117 0.51273 0.64717 0.0
C703 C 0.92195 0.50737 0.74779 0.0
C704 C 0.54536 0.44642 0.80151 0.0
C705 C 0.56988 0.45122 0.83395 0.0
C706 C 0.54165 0.45219 0.70364 0.0
C707 C 0.56235 0.46301 0.63479 0.0
H708 H 0.52891 0.43805 0.85234 0.0
H709 H 0.52235 0.44772 0.68116 0.0
S710 S 0.63087 0.48148 0.68519 0.0
N711 N 0.61546 0.46873 0.79156 0.0
N712 N 0.60856 0.47976 0.60718 0.0
C713 C 0.58707 0.46826 0.66661 0.0
C714 C 0.59082 0.46227 0.76628 0.0
C715 C 0.59483 0.12202 0.66822 0.0
C716 C 0.60643 0.10799 0.63112 0.0
C717 C 0.59939 0.13174 0.76616 0.0
C718 C 0.61584 0.12789 0.83073 0.0
H719 H 0.58197 0.12535 0.62107 0.0
H720 H 0.58959 0.14193 0.79213 0.0
S721 S 0.65313 0.09492 0.76651 0.0
N722 N 0.63643 0.09227 0.66434 0.0
N723 N 0.64509 0.11059 0.84848 0.0
C724 C 0.62791 0.11428 0.79406 0.0
C725 C 0.62319 0.10431 0.69432 0.0
C726 C 0.51264 0.94985 0.3349 0.0
C727 C 0.51331 0.93447 0.41287 0.0
C728 C 0.50873 0.94095 0.23603 0.0
C729 C 0.50588 0.91651 0.21137 0.0
H730 H 0.51507 0.96884 0.35087 0.0
H731 H 0.50788 0.95334 0.17854 0.0
S732 S 0.50846 0.86997 0.39004 0.0
N733 N 0.51187 0.89433 0.46068 0.0
N734 N 0.50531 0.87772 0.27424 0.0
C735 C 0.50678 0.90106 0.28936 0.0
C736 C 0.51039 0.91005 0.39027 0.0
C737 C 0.13583 0.6134 0.34128 0.0
C738 C 0.11343 0.59007 0.3699 0.0
C739 C 0.14521 0.61741 0.24272 0.0
C740 C 0.13233 0.59833 0.16964 0.0
H741 H 0.14621 0.62864 0.39564 0.0
H742 H 0.16243 0.63556 0.22304 0.0
S743 S 0.07444 0.53324 0.20707 0.0
N744 N 0.07968 0.54716 0.31802 0.0
N745 N 0.09702 0.55496 0.13209 0.0
C746 C 0.11002 0.57497 0.1969 0.0
C747 C 0.10059 0.57079 0.29723 0.0
C748 C 0.44454 0.53494 0.34339 0.0
C749 C 0.46731 0.53451 0.37042 0.0
C750 C 0.44071 0.54067 0.2454 0.0
C751 C 0.45927 0.54571 0.17081 0.0
H752 H 0.42958 0.53092 0.39852 0.0
H753 H 0.42306 0.54092 0.22736 0.0
S754 S 0.52243 0.54804 0.20122 0.0
N755 N 0.50902 0.54058 0.31367 0.0
N756 N 0.50128 0.55052 0.1289 0.0
C757 C 0.48191 0.54508 0.19581 0.0
C758 C 0.48602 0.53959 0.29572 0.0
C759 C 0.60768 0.85144 0.12238 0.0
C760 C 0.59393 0.82585 0.15928 0.0
C761 C 0.61724 0.85666 0.02386 0.0
C762 C 0.61372 0.83648 0.95866 0.0
H763 H 0.61093 0.86753 0.17014 0.0
H764 H 0.62714 0.87665 0.9984 0.0
S765 S 0.58158 0.76628 0.02321 0.0
N766 N 0.57864 0.78025 0.12546 0.0
N767 N 0.59711 0.79 0.94135 0.0
C768 C 0.60043 0.81081 0.9956 0.0
C769 C 0.59039 0.8055 0.0955 0.0
C770 C 0.20469 0.76662 0.09957 0.0
C771 C 0.23001 0.78009 0.1384 0.0
C772 C 0.19956 0.77085 1.00099 0.0
C773 C 0.21954 0.78894 0.93813 0.0
H774 H 0.18886 0.75248 0.14553 0.0
H775 H 0.17989 0.75953 0.97328 0.0
S776 S 0.28837 0.8319 0.00981 0.0
N777 N 0.27476 0.81385 0.11012 0.0
N778 N 0.26512 0.82207 0.92538 0.0
C779 C 0.24478 0.8031 0.97743 0.0
C780 C 0.25001 0.79864 0.07742 0.0
C781 C 0.29042 0.46512 0.98183 0.0
C782 C 0.26947 0.44059 0.95539 0.0
C783 C 0.2938 0.47405 0.08068 0.0
C784 C 0.27646 0.45866 0.15615 0.0
H785 H 0.30429 0.47746 0.9256 0.0
H786 H 0.31016 0.49295 0.09864 0.0
S787 S 0.2172 0.39432 0.124 0.0
N788 N 0.23035 0.40192 0.01121 0.0
N789 N 0.23678 0.41858 0.19752 0.0
C790 C 0.25535 0.43423 0.13069 0.0
C791 C 0.25187 0.42519 0.03012 0.0
C792 C 0.18813 0.36314 0.39834 0.0
C793 C 0.21464 0.37597 0.42427 0.0
C794 C 0.17843 0.34484 0.31994 0.0
C795 C 0.19474 0.33825 0.26547 0.0
H796 H 0.17486 0.3677 0.43731 0.0
H797 H 0.1579 0.33556 0.30275 0.0
S798 S 0.26555 0.36579 0.30547 0.0
N799 N 0.25695 0.3805 0.38961 0.0
N800 N 0.23873 0.34592 0.24453 0.0
C801 C 0.22118 0.35061 0.29201 0.0
C802 C 0.23111 0.36952 0.37053 0.0
C803 C 0.72716 0.87994 0.36198 0.0
C804 C 0.72012 0.87213 0.26176 0.0
C805 C 0.70867 0.87092 0.43985 0.0
C806 C 0.68217 0.85368 0.42144 0.0
H807 H 0.74718 0.89327 0.38107 0.0
H808 H 0.7152 0.87812 0.5148 0.0
S809 S 0.65375 0.82442 0.17524 0.0
N810 N 0.68482 0.84424 0.15043 0.0
N811 N 0.65019 0.82704 0.29653 0.0
C812 C 0.67494 0.84474 0.32246 0.0
C813 C 0.69384 0.85393 0.24297 0.0
C814 C 0.2045 0.83416 0.30741 0.0
C815 C 0.20497 0.84131 0.40851 0.0
C816 C 0.19537 0.84383 0.23105 0.0
C817 C 0.18627 0.86118 0.25188 0.0
H818 H 0.21093 0.82067 0.28651 0.0
H819 H 0.19477 0.83701 0.15537 0.0
S820 S 0.18693 0.88929 0.501 0.0
N821 N 0.19773 0.86898 0.52306 0.0
N822 N 0.18106 0.88741 0.3798 0.0
C823 C 0.18785 0.86958 0.35165 0.0
C824 C 0.1971 0.85966 0.42961 0.0
C825 C 0.38363 0.21958 0.63718 0.0
C826 C 0.38979 0.20328 0.58059 0.0
C827 C 0.36453 0.20957 0.71288 0.0
C828 C 0.35131 0.18295 0.73753 0.0
H829 H 0.39352 0.2403 0.6223 0.0
H830 H 0.36028 0.22288 0.7532 0.0
S831 S 0.36002 0.13188 0.61264 0.0
N832 N 0.38074 0.159 0.55422 0.0
N833 N 0.34546 0.14036 0.6981 0.0
C834 C 0.35736 0.16643 0.68212 0.0
C835 C 0.37638 0.17653 0.6033 0.0
C836 C 0.85739 0.16628 0.70471 0.0
C837 C 0.87832 0.18286 0.76698 0.0
C838 C 0.84935 0.17604 0.62494 0.0
C839 C 0.8623 0.20276 0.60205 0.0
H840 H 0.8469 0.14549 0.71808 0.0
H841 H 0.83295 0.16247 0.58031 0.0
S842 S 0.91801 0.25463 0.74192 0.0
N843 N 0.91153 0.22754 0.80062 0.0
N844 N 0.89682 0.24578 0.64978 0.0
C845 C 0.88329 0.21959 0.66338 0.0
C846 C 0.89115 0.2097 0.74601 0.0
C847 C 0.85563 0.70095 0.72041 0.0
C848 C 0.87972 0.7094 0.76786 0.0
C849 C 0.84744 0.6833 0.63999 0.0
C850 C 0.86284 0.67307 0.60398 0.0
H851 H 0.84305 0.7083 0.74454 0.0
H852 H 0.82863 0.67728 0.60702 0.0
S853 S 0.92769 0.6889 0.70109 0.0
N854 N 0.91895 0.70608 0.77182 0.0
N855 N 0.90364 0.67309 0.62156 0.0
C856 C 0.887 0.68137 0.6506 0.0
C857 C 0.8954 0.69944 0.73207 0.0
C858 C 1.02527 0.53924 0.03568 0.0
C859 C 1.0159 0.51431 0.07738 0.0
C860 C 0.04369 0.54844 0.95761 0.0
C861 C 0.05303 0.53285 0.91562 0.0
H862 H 1.01851 0.55192 0.06441 0.0
H863 H 0.05058 0.56794 0.92951 0.0
S864 S 1.03442 0.46589 0.99643 0.0
N865 N 1.01731 0.47411 0.07034 0.0
N866 N 0.05147 0.49114 0.92231 0.0
C867 C 0.04355 0.50772 0.95561 0.0
C868 C 1.02515 0.49854 0.03669 0.0
C869 C 0.49807 0.50168 0.97302 0.0
C870 C 0.51815 0.52327 0.92253 0.0
C871 C 0.50327 0.48811 0.04661 0.0
C872 C 0.52887 0.49512 0.07341 0.0
H873 H 0.4779 0.49492 0.95554 0.0
H874 H 0.48683 0.47166 0.08186 0.0
S875 S 0.58887 0.55006 0.96442 0.0
N876 N 0.565 0.55116 0.90562 0.0
N877 N 0.57479 0.52527 0.04285 0.0
C878 C 0.54931 0.51667 0.02385 0.0
C879 C 0.54396 0.53072 0.94871 0.0
C880 C 0.52729 0.02427 0.09082 0.0
C881 C 0.5541 0.04212 0.10098 0.0
C882 C 0.51786 1.00567 0.01316 0.0
C883 C 0.53489 1.00447 0.94247 0.0
H884 H 0.51345 0.02497 0.142 0.0
H885 H 0.49713 0.99237 1.00763 0.0
S886 S 0.60671 0.04383 0.94317 0.0
N887 N 0.59753 0.0549 0.03923 0.0
N888 N 0.57964 1.02093 0.89203 0.0
C889 C 0.56161 1.02151 0.95342 0.0
C890 C 0.57125 0.04008 0.0329 0.0
C891 C 0.2458 0.2466 0.01979 0.0
C892 C 0.21872 0.23307 0.03645 0.0
C893 C 0.25876 0.23378 0.98315 0.0
C894 C 0.24519 0.20687 0.96316 0.0
H895 H 0.25704 0.26732 0.03371 0.0
H896 H 0.27961 0.24496 0.97184 0.0
S897 S 0.17412 0.16251 0.99416 0.0
N898 N 0.17884 0.19119 0.02953 0.0
N899 N 0.20306 0.16726 0.96217 0.0
C900 C 0.21814 0.19317 0.97982 0.0
C901 C 0.20496 0.20621 0.01601 0.0
C902 C 0.85265 1.01358 0.03251 0.0
C903 C 0.82582 1.00029 0.05352 0.0
C904 C 0.86539 0.03915 0.99676 0.0
C905 C 0.85189 0.05263 0.97889 0.0
H906 H 0.86409 1.00418 0.04411 0.0
H907 H 0.88611 0.0484 0.98267 0.0
S908 S 0.78131 0.02672 0.02056 0.0
N909 N 0.786 1.00252 0.05358 0.0
N910 N 0.81002 0.05077 0.98502 0.0
C911 C 0.82498 0.03963 0.99881 0.0
C912 C 0.81195 1.01348 0.03671 0.0
C913 C 1.02194 0.80353 0.01604 0.0
C914 C 1.00749 0.81603 0.99682 0.0
C915 C 0.04796 0.81765 0.04866 0.0
C916 C 0.06059 0.84482 0.06166 0.0
H917 H 1.01298 0.78266 1.00729 0.0
H918 H 0.05837 0.80727 0.06216 0.0
S919 S 1.03147 0.88682 0.02025 0.0
N920 N 1.00794 0.85723 0.99297 0.0
N921 N 0.05649 0.88358 0.0528 0.0
C922 C 0.04634 0.85748 0.04212 0.0
C923 C 1.01992 0.84315 0.01012 0.0
C924 C 0.83738 0.81497 0.98393 0.0
C925 C 0.86406 0.82513 1.00322 0.0
C926 C 0.82477 0.82911 0.00877 0.0
C927 C 0.8385 0.85393 0.05299 0.0
H928 H 0.82615 0.79586 0.95079 0.0
H929 H 0.80433 0.82083 0.99152 0.0
S930 S 0.9086 0.88927 0.11775 0.0
N931 N 0.90375 0.86185 0.06702 0.0
N932 N 0.88006 0.88772 0.11638 0.0
C933 C 0.8651 0.86413 0.0728 0.0
C934 C 0.87786 0.84997 0.04705 0.0
C935 C 0.24599 0.043 0.0311 0.0
C936 C 0.24106 0.05259 0.94222 0.0
C937 C 0.23166 1.01646 0.05651 0.0
C938 C 0.21154 0.99853 0.99476 0.0
H939 H 0.26039 0.05634 0.08336 0.0
H940 H 0.23539 1.01022 0.1276 0.0
S941 S 0.19219 1.01328 0.75039 0.0
N942 N 0.21573 0.04171 0.7897 0.0
N943 N 0.18882 0.99197 0.83706 0.0
C944 C 0.20732 1.00767 0.90334 0.0
C945 C 0.22208 0.03462 0.8771 0.0
C946 C 1.02623 0.18646 0.96625 0.0
C947 C 1.01064 0.19802 0.97708 0.0
C948 C 0.05253 0.19967 0.99268 0.0
C949 C 0.06458 0.22512 0.03134 0.0
H950 H 1.01794 0.16682 0.93764 0.0
H951 H 0.06356 0.18975 0.98296 0.0
S952 S 1.03247 0.26425 0.07475 0.0
N953 N 1.00908 0.23642 0.02972 0.0
N954 N 0.05885 0.26151 0.0787 0.0
C955 C 0.04929 0.23702 0.04276 0.0
C956 C 1.02232 0.22349 0.01524 0.0
C957 C 0.88604 0.52871 0.31695 0.0
C958 C 0.91289 0.5419 0.29597 0.0
C959 C 0.87366 0.5418 0.35479 0.0
C960 C 0.88762 0.56864 0.37497 0.0
H961 H 0.87433 0.50799 0.30371 0.0
H962 H 0.85291 0.53067 0.36873 0.0
S963 S 0.95846 0.6123 0.33501 0.0
N964 N 0.95317 0.58343 0.29888 0.0
N965 N 0.92994 0.60805 0.37134 0.0
C966 C 0.91455 0.58213 0.35525 0.0
C967 C 0.92715 0.56879 0.31525 0.0
C968 C 0.53803 0.37194 0.32639 0.0
C969 C 0.52482 0.38567 0.30732 0.0
C970 C 0.52479 0.34607 0.3599 0.0
C971 C 0.49779 0.33286 0.37769 0.0
H972 H 0.55885 0.38119 0.31477 0.0
H973 H 0.53593 0.33641 0.37257 0.0
S974 S 0.45399 0.35999 0.3405 0.0
N975 N 0.48306 0.38405 0.30873 0.0
N976 N 0.45822 0.33551 0.37345 0.0
C977 C 0.48429 0.34636 0.3597 0.0
C978 C 0.49777 0.37269 0.32393 0.0
C979 C 0.71937 0.18912 0.35703 0.0
C980 C 0.73225 0.17498 0.37433 0.0
C981 C 0.69363 0.17692 0.32299 0.0
C982 C 0.67973 0.15008 0.30283 0.0
H983 H 0.72925 0.20991 0.37002 0.0
H984 H 0.68464 0.18874 0.31146 0.0
S985 S 0.70433 0.10402 0.33634 0.0
N986 N 0.72897 0.13247 0.36983 0.0
N987 N 0.68067 0.10956 0.30421 0.0
C988 C 0.69231 0.13562 0.31975 0.0
C989 C 0.7185 0.14803 0.35607 0.0
C990 C 0.51556 0.1605 0.25033 0.0
C991 C 0.52666 0.15233 0.32449 0.0
C992 C 0.5024 0.17395 0.27566 0.0
C993 C 0.49959 0.17955 0.37614 0.0
H994 H 0.51844 0.15791 0.17199 0.0
H995 H 0.49531 0.18104 0.21575 0.0
S996 S 0.52262 0.15969 0.59873 0.0
N997 N 0.53192 0.14865 0.5029 0.0
N998 N 0.50738 0.17399 0.55023 0.0
C999 C 0.50909 0.16992 0.45114 0.0
C1000 C 0.5226 0.15636 0.42535 0.0
C1001 C 0.86155 0.34192 0.31684 0.0
C1002 C 0.87563 0.3302 0.35194 0.0
C1003 C 0.87406 0.36807 0.28784 0.0
C1004 C 0.90126 0.38377 0.29209 0.0
H1005 H 0.84053 0.33073 0.31214 0.0
H1006 H 0.86227 0.37622 0.26273 0.0
S1007 S 0.94728 0.36279 0.37795 0.0
N1008 N 0.9184 0.33635 0.38875 0.0
N1009 N 0.94201 0.38584 0.3345 0.0
C1010 C 0.91571 0.37241 0.32641 0.0
C1011 C 0.90287 0.34562 0.35676 0.0
C1012 C 0.71411 0.54602 0.4633 0.0
C1013 C 0.73265 0.5648 0.39828 0.0
C1014 C 0.68767 0.53192 0.43701 0.0
C1015 C 0.67878 0.53636 0.34548 0.0
H1016 H 0.72028 0.54107 0.53199 0.0
H1017 H 0.67419 0.51675 0.48704 0.0
S1018 S 0.71926 0.58499 0.1533 0.0
N1019 N 0.74008 0.58827 0.24155 0.0
N1020 N 0.69044 0.56201 0.19295 0.0
C1021 C 0.6969 0.55615 0.28276 0.0
C1022 C 0.72381 0.57028 0.30892 0.0
C1023 C 0.54696 0.85654 0.65643 0.0
C1024 C 0.57383 0.86987 0.63615 0.0
C1025 C 0.53457 0.86929 0.69745 0.0
C1026 C 0.5485 0.89591 0.72198 0.0
H1027 H 0.53528 0.83596 0.6404 0.0
H1028 H 0.5138 0.85802 0.71077 0.0
S1029 S 0.61934 0.93988 0.68402 0.0
N1030 N 0.61409 0.91136 0.64318 0.0
N1031 N 0.5908 0.93532 0.7218 0.0
C1032 C 0.57543 0.90957 0.70227 0.0
C1033 C 0.58806 0.89659 0.65882 0.0
C1034 C 0.19843 0.70093 0.63347 0.0
C1035 C 0.18541 0.71472 0.61214 0.0
C1036 C 0.18522 0.67563 0.67249 0.0
C1037 C 0.1584 0.66302 0.69369 0.0
H1038 H 0.21914 0.70973 0.61972 0.0
H1039 H 0.19626 0.66593 0.68661 0.0
S1040 S 0.11513 0.69062 0.65289 0.0
N1041 N 0.14405 0.7139 0.61547 0.0
N1042 N 0.11917 0.66631 0.69016 0.0
C1043 C 0.14505 0.67657 0.67335 0.0
C1044 C 0.15854 0.70237 0.63206 0.0
C1045 C 0.35549 0.47186 0.64308 0.0
C1046 C 0.34265 0.48593 0.62336 0.0
C1047 C 0.38111 0.48431 0.67997 0.0
C1048 C 0.39498 0.51135 0.69707 0.0
H1049 H 0.34554 0.45101 0.63175 0.0
H1050 H 0.39018 0.47268 0.69412 0.0
S1051 S 0.37033 0.55712 0.65524 0.0
N1052 N 0.34592 0.52846 0.62286 0.0
N1053 N 0.39388 0.55175 0.69046 0.0
C1054 C 0.38241 0.52563 0.67653 0.0
C1055 C 0.35632 0.51295 0.6402 0.0
C1056 C 0.17139 0.50253 0.76634 0.0
C1057 C 0.15993 0.51037 0.69247 0.0
C1058 C 0.18497 0.48955 0.74075 0.0
C1059 C 0.18783 0.48397 0.6402 0.0
H1060 H 0.17125 0.50784 0.84379 0.0
H1061 H 0.19436 0.48488 0.80008 0.0
S1062 S 0.15797 0.49687 0.42021 0.0
N1063 N 0.14917 0.50836 0.51605 0.0
N1064 N 0.17567 0.48515 0.46765 0.0
C1065 C 0.17478 0.48997 0.56655 0.0
C1066 C 0.16068 0.50291 0.59275 0.0
C1067 C 0.54864 0.67999 0.78796 0.0
C1068 C 0.54866 0.66188 0.7201 0.0
C1069 C 0.56047 0.70656 0.76323 0.0
C1070 C 0.57295 0.71606 0.67008 0.0
H1071 H 0.53801 0.67337 0.85789 0.0
H1072 H 0.559 0.71965 0.81598 0.0
S1073 S 0.58057 0.67685 0.47059 0.0
N1074 N 0.564 0.65555 0.55951 0.0
N1075 N 0.58608 0.70531 0.51298 0.0
C1076 C 0.57451 0.69836 0.60444 0.0
C1077 C 0.56239 0.67134 0.62942 0.0
C1078 C 0.35927 0.88333 0.61249 0.0
C1079 C 0.34005 0.86225 0.66804 0.0
C1080 C 0.38541 0.89674 0.64417 0.0
C1081 C 0.3931 0.88951 0.73241 0.0
H1082 H 0.35439 0.88856 0.5415 0.0
H1083 H 0.39988 0.91186 0.59659 0.0
S1084 S 0.34977 0.83852 0.91217 0.0
N1085 N 0.33022 0.83704 0.82171 0.0
N1086 N 0.37906 0.86196 0.87991 0.0
C1087 C 0.37379 0.8697 0.79163 0.0
C1088 C 0.34735 0.85617 0.75985 0.0
loop_
_geom_bond_atom_site_label_1
_geom_bond_atom_site_label_2
_geom_bond_distance
_geom_bond_site_symmetry_2
_ccdc_geom_bond_type
Co0 N4 2.148 1_554 S
Co0 N10 2.128 . S
Co0 N20 2.194 . S
Co0 O25 2.351 . S
Co0 O26 2.155 . S
Co0 O27 2.096 . S
C1 N4 1.301 . S
C1 N5 1.328 . S
C1 H6 0.930 . S
C2 C3 1.333 . S
C2 N4 1.317 . S
C2 H7 0.930 . S
C3 C2 1.333 . S
C3 N5 1.350 . S
C3 H29 0.931 . S
N4 Co0 2.148 1_556 S
N4 C1 1.301 . S
N4 C2 1.317 . S
N5 C1 1.328 . S
N5 C3 1.350 . S
H6 C1 0.930 . S
H7 C2 0.930 . S
C8 O9 1.224 . S
C8 O27 1.247 . S
O9 C8 1.224 . S
N10 Co0 2.128 . S
N10 C11 1.355 . S
N10 C13 1.311 . S
C11 N10 1.355 . S
C11 C12 1.363 . S
C11 H23 0.929 . S
C12 C11 1.363 . S
C12 N14 1.375 . S
C12 H30 0.931 . S
C13 N10 1.311 . S
C13 N14 1.347 . S
C13 H24 0.929 . S
N14 C12 1.375 . S
N14 C13 1.347 . S
C15 C18 1.365 . S
C15 N20 1.328 . S
C15 H21 0.929 . S
C16 C17 1.362 . S
C16 C19 1.378 . S
C16 H31 0.929 . S
C17 C16 1.362 . S
C17 C18 1.366 . S
C18 C15 1.365 . S
C18 C17 1.366 . S
C18 H32 0.930 . S
C19 C16 1.378 . S
C19 N20 1.315 . S
C19 H22 0.930 . S
N20 Co0 2.194 . S
N20 C15 1.328 . S
N20 C19 1.315 . S
H21 C15 0.929 . S
H22 C19 0.930 . S
H23 C11 0.929 . S
H24 C13 0.929 . S
O25 Co0 2.351 . S
O25 C28 1.244 . S
O26 Co0 2.155 . S
O26 C28 1.240 . S
O27 Co0 2.096 . S
O27 C8 1.247 . S
C28 O25 1.244 . S
C28 O26 1.240 . S
H29 C3 0.931 . S
H30 C12 0.931 . S
H31 C16 0.929 . S
H32 C18 0.930 . S
Co33 N37 2.148 1_554 S
Co33 N43 2.128 . S
Co33 N53 2.194 . S
Co33 O58 2.351 . S
Co33 O59 2.155 . S
Co33 O60 2.096 . S
C34 N37 1.301 . S
C34 N38 1.328 . S
C34 H39 0.930 . S
C35 C36 1.333 . S
C35 N37 1.317 . S
C35 H40 0.930 . S
C36 C35 1.333 . S
C36 N38 1.350 . S
C36 H62 0.931 . S
N37 Co33 2.148 1_556 S
N37 C34 1.301 . S
N37 C35 1.317 . S
N38 C34 1.328 . S
N38 C36 1.350 . S
H39 C34 0.930 . S
H40 C35 0.930 . S
C41 O42 1.224 . S
C41 O60 1.247 . S
O42 C41 1.224 . S
N43 Co33 2.128 . S
N43 C44 1.355 . S
N43 C46 1.311 . S
C44 N43 1.355 . S
C44 C45 1.363 . S
C44 H56 0.929 . S
C45 C44 1.363 . S
C45 N47 1.375 . S
C45 H63 0.931 . S
C46 N43 1.311 . S
C46 N47 1.347 . S
C46 H57 0.929 . S
N47 C45 1.375 . S
N47 C46 1.347 . S
C48 C51 1.365 . S
C48 N53 1.328 . S
C48 H54 0.929 . S
C49 C50 1.362 . S
C49 C52 1.378 . S
C49 H64 0.929 . S
C50 C49 1.362 . S
C50 C51 1.366 . S
C51 C48 1.365 . S
C51 C50 1.366 . S
C51 H65 0.930 . S
C52 C49 1.378 . S
C52 N53 1.315 . S
C52 H55 0.930 . S
N53 Co33 2.194 . S
N53 C48 1.328 . S
N53 C52 1.315 . S
H54 C48 0.929 . S
H55 C52 0.930 . S
H56 C44 0.929 . S
H57 C46 0.929 . S
O58 Co33 2.351 . S
O58 C61 1.244 . S
O59 Co33 2.155 . S
O59 C61 1.240 . S
O60 Co33 2.096 . S
O60 C41 1.247 . S
C61 O58 1.244 . S
C61 O59 1.240 . S
H62 C36 0.931 . S
H63 C45 0.931 . S
H64 C49 0.929 . S
H65 C51 0.930 . S
Co66 N70 2.148 1_554 S
Co66 N76 2.128 . S
Co66 N86 2.194 . S
Co66 O91 2.351 . S
Co66 O92 2.155 . S
Co66 O93 2.096 . S
C67 N70 1.301 . S
C67 N71 1.328 . S
C67 H72 0.930 . S
C68 C69 1.333 . S
C68 N70 1.317 . S
C68 H73 0.930 . S
C69 C68 1.333 . S
C69 N71 1.350 . S
C69 H95 0.931 . S
N70 Co66 2.148 1_556 S
N70 C67 1.301 . S
N70 C68 1.317 . S
N71 C67 1.328 . S
N71 C69 1.350 . S
H72 C67 0.930 . S
H73 C68 0.930 . S
C74 O75 1.224 . S
C74 O93 1.247 . S
O75 C74 1.224 . S
N76 Co66 2.128 . S
N76 C77 1.355 . S
N76 C79 1.311 . S
C77 N76 1.355 . S
C77 C78 1.363 . S
C77 H89 0.929 . S
C78 C77 1.363 . S
C78 N80 1.375 . S
C78 H96 0.931 . S
C79 N76 1.311 . S
C79 N80 1.347 . S
C79 H90 0.929 . S
N80 C78 1.375 . S
N80 C79 1.347 . S
C81 C84 1.365 . S
C81 N86 1.328 . S
C81 H87 0.929 . S
C82 C83 1.362 . S
C82 C85 1.378 . S
C82 H97 0.929 . S
C83 C82 1.362 . S
C83 C84 1.366 . S
C84 C81 1.365 . S
C84 C83 1.366 . S
C84 H98 0.930 . S
C85 C82 1.378 . S
C85 N86 1.315 . S
C85 H88 0.930 . S
N86 Co66 2.194 . S
N86 C81 1.328 . S
N86 C85 1.315 . S
H87 C81 0.929 . S
H88 C85 0.930 . S
H89 C77 0.929 . S
H90 C79 0.929 . S
O91 Co66 2.351 . S
O91 C94 1.244 . S
O92 Co66 2.155 . S
O92 C94 1.240 . S
O93 Co66 2.096 . S
O93 C74 1.247 . S
C94 O91 1.244 . S
C94 O92 1.240 . S
H95 C69 0.931 . S
H96 C78 0.931 . S
H97 C82 0.929 . S
H98 C84 0.930 . S
Co99 N103 2.148 1_556 S
Co99 N109 2.128 . S
Co99 N119 2.194 . S
Co99 O124 2.351 . S
Co99 O125 2.155 . S
Co99 O126 2.096 . S
C100 N103 1.301 . S
C100 N104 1.328 . S
C100 H105 0.930 . S
C101 C102 1.333 . S
C101 N103 1.317 . S
C101 H106 0.930 . S
C102 C101 1.333 . S
C102 N104 1.350 . S
C102 H128 0.931 . S
N103 Co99 2.148 1_554 S
N103 C100 1.301 . S
N103 C101 1.317 . S
N104 C100 1.328 . S
N104 C102 1.350 . S
H105 C100 0.930 . S
H106 C101 0.930 . S
C107 O108 1.224 . S
C107 O126 1.247 . S
O108 C107 1.224 . S
N109 Co99 2.128 . S
N109 C110 1.355 . S
N109 C112 1.311 . S
C110 N109 1.355 . S
C110 C111 1.363 . S
C110 H122 0.929 . S
C111 C110 1.363 . S
C111 N113 1.375 . S
C111 H129 0.931 . S
C112 N109 1.311 . S
C112 N113 1.347 . S
C112 H123 0.929 . S
N113 C111 1.375 . S
N113 C112 1.347 . S
C114 C117 1.365 . S
C114 N119 1.328 . S
C114 H120 0.929 . S
C115 C116 1.362 . S
C115 C118 1.378 . S
C115 H130 0.929 . S
C116 C115 1.362 . S
C116 C117 1.366 . S
C117 C114 1.365 . S
C117 C116 1.366 . S
C117 H131 0.930 . S
C118 C115 1.378 . S
C118 N119 1.315 . S
C118 H121 0.930 . S
N119 Co99 2.194 . S
N119 C114 1.328 . S
N119 C118 1.315 . S
H120 C114 0.929 . S
H121 C118 0.930 . S
H122 C110 0.929 . S
H123 C112 0.929 . S
O124 Co99 2.351 . S
O124 C127 1.244 . S
O125 Co99 2.155 . S
O125 C127 1.240 . S
O126 Co99 2.096 . S
O126 C107 1.247 . S
C127 O124 1.244 . S
C127 O125 1.240 . S
H128 C102 0.931 . S
H129 C111 0.931 . S
H130 C115 0.929 . S
H131 C117 0.930 . S
Co132 N136 2.148 1_556 S
Co132 N142 2.128 . S
Co132 N152 2.194 . S
Co132 O157 2.351 . S
Co132 O158 2.155 . S
Co132 O159 2.096 . S
C133 N136 1.301 . S
C133 N137 1.328 . S
C133 H138 0.930 . S
C134 C135 1.333 . S
C134 N136 1.317 . S
C134 H139 0.930 . S
C135 C134 1.333 . S
C135 N137 1.350 . S
C135 H161 0.931 . S
N136 Co132 2.148 1_554 S
N136 C133 1.301 . S
N136 C134 1.317 . S
N137 C133 1.328 . S
N137 C135 1.350 . S
H138 C133 0.930 . S
H139 C134 0.930 . S
C140 O141 1.224 . S
C140 O159 1.247 . S
O141 C140 1.224 . S
N142 Co132 2.128 . S
N142 C143 1.355 . S
N142 C145 1.311 . S
C143 N142 1.355 . S
C143 C144 1.363 . S
C143 H155 0.929 . S
C144 C143 1.363 . S
C144 N146 1.375 . S
C144 H162 0.931 . S
C145 N142 1.311 . S
C145 N146 1.347 . S
C145 H156 0.929 . S
N146 C144 1.375 . S
N146 C145 1.347 . S
C147 C150 1.365 . S
C147 N152 1.328 . S
C147 H153 0.929 . S
C148 C149 1.362 . S
C148 C151 1.378 . S
C148 H163 0.929 . S
C149 C148 1.362 . S
C149 C150 1.366 . S
C150 C147 1.365 . S
C150 C149 1.366 . S
C150 H164 0.930 . S
C151 C148 1.378 . S
C151 N152 1.315 . S
C151 H154 0.930 . S
N152 Co132 2.194 . S
N152 C147 1.328 . S
N152 C151 1.315 . S
H153 C147 0.929 . S
H154 C151 0.930 . S
H155 C143 0.929 . S
H156 C145 0.929 . S
O157 Co132 2.351 . S
O157 C160 1.244 . S
O158 Co132 2.155 . S
O158 C160 1.240 . S
O159 Co132 2.096 . S
O159 C140 1.247 . S
C160 O157 1.244 . S
C160 O158 1.240 . S
H161 C135 0.931 . S
H162 C144 0.931 . S
H163 C148 0.929 . S
H164 C150 0.930 . S
Co165 N169 2.148 1_556 S
Co165 N175 2.128 . S
Co165 N185 2.194 . S
Co165 O190 2.351 . S
Co165 O191 2.155 . S
Co165 O192 2.096 . S
C166 N169 1.301 . S
C166 N170 1.328 . S
C166 H171 0.930 . S
C167 C168 1.333 . S
C167 N169 1.317 . S
C167 H172 0.930 . S
C168 C167 1.333 . S
C168 N170 1.350 . S
C168 H194 0.931 . S
N169 Co165 2.148 1_554 S
N169 C166 1.301 . S
N169 C167 1.317 . S
N170 C166 1.328 . S
N170 C168 1.350 . S
H171 C166 0.930 . S
H172 C167 0.930 . S
C173 O174 1.224 . S
C173 O192 1.247 . S
O174 C173 1.224 . S
N175 Co165 2.128 . S
N175 C176 1.355 . S
N175 C178 1.311 . S
C176 N175 1.355 . S
C176 C177 1.363 . S
C176 H188 0.929 . S
C177 C176 1.363 . S
C177 N179 1.375 . S
C177 H195 0.931 . S
C178 N175 1.311 . S
C178 N179 1.347 . S
C178 H189 0.929 . S
N179 C177 1.375 . S
N179 C178 1.347 . S
C180 C183 1.365 . S
C180 N185 1.328 . S
C180 H186 0.929 . S
C181 C182 1.362 . S
C181 C184 1.378 . S
C181 H196 0.929 . S
C182 C181 1.362 . S
C182 C183 1.366 . S
C183 C180 1.365 . S
C183 C182 1.366 . S
C183 H197 0.930 . S
C184 C181 1.378 . S
C184 N185 1.315 . S
C184 H187 0.930 . S
N185 Co165 2.194 . S
N185 C180 1.328 . S
N185 C184 1.315 . S
H186 C180 0.929 . S
H187 C184 0.930 . S
H188 C176 0.929 . S
H189 C178 0.929 . S
O190 Co165 2.351 . S
O190 C193 1.244 . S
O191 Co165 2.155 . S
O191 C193 1.240 . S
O192 Co165 2.096 . S
O192 C173 1.247 . S
C193 O190 1.244 . S
C193 O191 1.240 . S
H194 C168 0.931 . S
H195 C177 0.931 . S
H196 C181 0.929 . S
H197 C183 0.930 . S
Co198 N202 2.148 . S
Co198 N208 2.128 . S
Co198 N218 2.194 . S
Co198 O223 2.351 . S
Co198 O224 2.155 . S
Co198 O225 2.096 . S
C199 N202 1.301 . S
C199 N203 1.328 . S
C199 H204 0.930 . S
C200 C201 1.333 . S
C200 N202 1.317 . S
C200 H205 0.930 . S
C201 C200 1.333 . S
C201 N203 1.350 . S
C201 H227 0.931 . S
N202 Co198 2.148 . S
N202 C199 1.301 . S
N202 C200 1.317 . S
N203 C199 1.328 . S
N203 C201 1.350 . S
H204 C199 0.930 . S
H205 C200 0.930 . S
C206 O207 1.224 . S
C206 O225 1.247 . S
O207 C206 1.224 . S
N208 Co198 2.128 . S
N208 C209 1.355 . S
N208 C211 1.311 . S
C209 N208 1.355 . S
C209 C210 1.363 . S
C209 H221 0.929 . S
C210 C209 1.363 . S
C210 N212 1.375 . S
C210 H228 0.931 . S
C211 N208 1.311 . S
C211 N212 1.347 . S
C211 H222 0.929 . S
N212 C210 1.375 . S
N212 C211 1.347 . S
C213 C216 1.365 . S
C213 N218 1.328 . S
C213 H219 0.929 . S
C214 C215 1.362 . S
C214 C217 1.378 . S
C214 H229 0.929 . S
C215 C214 1.362 . S
C215 C216 1.366 . S
C216 C213 1.365 . S
C216 C215 1.366 . S
C216 H230 0.930 . S
C217 C214 1.378 . S
C217 N218 1.315 . S
C217 H220 0.930 . S
N218 Co198 2.194 . S
N218 C213 1.328 . S
N218 C217 1.315 . S
H219 C213 0.929 . S
H220 C217 0.930 . S
H221 C209 0.929 . S
H222 C211 0.929 . S
O223 Co198 2.351 . S
O223 C226 1.244 . S
O224 Co198 2.155 . S
O224 C226 1.240 . S
O225 Co198 2.096 . S
O225 C206 1.247 . S
C226 O223 1.244 . S
C226 O224 1.240 . S
H227 C201 0.931 . S
H228 C210 0.931 . S
H229 C214 0.929 . S
H230 C216 0.930 . S
Co231 N235 2.148 . S
Co231 N241 2.128 . S
Co231 N251 2.194 . S
Co231 O256 2.351 . S
Co231 O257 2.155 . S
Co231 O258 2.096 . S
C232 N235 1.301 . S
C232 N236 1.328 . S
C232 H237 0.930 . S
C233 C234 1.333 . S
C233 N235 1.317 . S
C233 H238 0.930 . S
C234 C233 1.333 . S
C234 N236 1.350 . S
C234 H260 0.931 . S
N235 Co231 2.148 . S
N235 C232 1.301 . S
N235 C233 1.317 . S
N236 C232 1.328 . S
N236 C234 1.350 . S
H237 C232 0.930 . S
H238 C233 0.930 . S
C239 O240 1.224 . S
C239 O258 1.247 . S
O240 C239 1.224 . S
N241 Co231 2.128 . S
N241 C242 1.355 . S
N241 C244 1.311 . S
C242 N241 1.355 . S
C242 C243 1.363 . S
C242 H254 0.929 . S
C243 C242 1.363 . S
C243 N245 1.375 . S
C243 H261 0.931 . S
C244 N241 1.311 . S
C244 N245 1.347 . S
C244 H255 0.929 . S
N245 C243 1.375 . S
N245 C244 1.347 . S
C246 C249 1.365 . S
C246 N251 1.328 . S
C246 H252 0.929 . S
C247 C248 1.362 . S
C247 C250 1.378 . S
C247 H262 0.929 . S
C248 C247 1.362 . S
C248 C249 1.366 . S
C249 C246 1.365 . S
C249 C248 1.366 . S
C249 H263 0.930 . S
C250 C247 1.378 . S
C250 N251 1.315 . S
C250 H253 0.930 . S
N251 Co231 2.194 . S
N251 C246 1.328 . S
N251 C250 1.315 . S
H252 C246 0.929 . S
H253 C250 0.930 . S
H254 C242 0.929 . S
H255 C244 0.929 . S
O256 Co231 2.351 . S
O256 C259 1.244 . S
O257 Co231 2.155 . S
O257 C259 1.240 . S
O258 Co231 2.096 . S
O258 C239 1.247 . S
C259 O256 1.244 . S
C259 O257 1.240 . S
H260 C234 0.931 . S
H261 C243 0.931 . S
H262 C247 0.929 . S
H263 C249 0.930 . S
Co264 N268 2.148 . S
Co264 N274 2.128 . S
Co264 N284 2.194 . S
Co264 O289 2.351 . S
Co264 O290 2.155 . S
Co264 O291 2.096 . S
C265 N268 1.301 . S
C265 N269 1.328 . S
C265 H270 0.930 . S
C266 C267 1.333 . S
C266 N268 1.317 . S
C266 H271 0.930 . S
C267 C266 1.333 . S
C267 N269 1.350 . S
C267 H293 0.931 . S
N268 Co264 2.148 . S
N268 C265 1.301 . S
N268 C266 1.317 . S
N269 C265 1.328 . S
N269 C267 1.350 . S
H270 C265 0.930 . S
H271 C266 0.930 . S
C272 O273 1.224 . S
C272 O291 1.247 . S
O273 C272 1.224 . S
N274 Co264 2.128 . S
N274 C275 1.355 . S
N274 C277 1.311 . S
C275 N274 1.355 . S
C275 C276 1.363 . S
C275 H287 0.929 . S
C276 C275 1.363 . S
C276 N278 1.375 . S
C276 H294 0.931 . S
C277 N274 1.311 . S
C277 N278 1.347 . S
C277 H288 0.929 . S
N278 C276 1.375 . S
N278 C277 1.347 . S
C279 C282 1.365 . S
C279 N284 1.328 . S
C279 H285 0.929 . S
C280 C281 1.362 . S
C280 C283 1.378 . S
C280 H295 0.929 . S
C281 C280 1.362 . S
C281 C282 1.366 . S
C282 C279 1.365 . S
C282 C281 1.366 . S
C282 H296 0.930 . S
C283 C280 1.378 . S
C283 N284 1.315 . S
C283 H286 0.930 . S
N284 Co264 2.194 . S
N284 C279 1.328 . S
N284 C283 1.315 . S
H285 C279 0.929 . S
H286 C283 0.930 . S
H287 C275 0.929 . S
H288 C277 0.929 . S
O289 Co264 2.351 . S
O289 C292 1.244 . S
O290 Co264 2.155 . S
O290 C292 1.240 . S
O291 Co264 2.096 . S
O291 C272 1.247 . S
C292 O289 1.244 . S
C292 O290 1.240 . S
H293 C267 0.931 . S
H294 C276 0.931 . S
H295 C280 0.929 . S
H296 C282 0.930 . S
Co297 N301 2.148 . S
Co297 N307 2.128 . S
Co297 N317 2.194 . S
Co297 O322 2.351 . S
Co297 O323 2.155 . S
Co297 O324 2.096 . S
C298 N301 1.301 . S
C298 N302 1.328 . S
C298 H303 0.930 . S
C299 C300 1.333 . S
C299 N301 1.317 . S
C299 H304 0.930 . S
C300 C299 1.333 . S
C300 N302 1.350 . S
C300 H326 0.931 . S
N301 Co297 2.148 . S
N301 C298 1.301 . S
N301 C299 1.317 . S
N302 C298 1.328 . S
N302 C300 1.350 . S
H303 C298 0.930 . S
H304 C299 0.930 . S
C305 O306 1.224 . S
C305 O324 1.247 . S
O306 C305 1.224 . S
N307 Co297 2.128 . S
N307 C308 1.355 . S
N307 C310 1.310 1_554 S
C308 N307 1.355 . S
C308 C309 1.363 1_554 S
C308 H320 0.929 . S
C309 C308 1.363 1_556 S
C309 N311 1.375 . S
C309 H327 0.931 . S
C310 N307 1.310 1_556 S
C310 N311 1.348 . S
C310 H321 0.929 . S
N311 C309 1.375 . S
N311 C310 1.348 . S
C312 C315 1.365 . S
C312 N317 1.328 . S
C312 H318 0.929 . S
C313 C314 1.362 . S
C313 C316 1.378 . S
C313 H328 0.929 . S
C314 C313 1.362 . S
C314 C315 1.366 . S
C315 C312 1.365 . S
C315 C314 1.366 . S
C315 H329 0.930 . S
C316 C313 1.378 . S
C316 N317 1.315 . S
C316 H319 0.930 . S
N317 Co297 2.194 . S
N317 C312 1.328 . S
N317 C316 1.315 . S
H318 C312 0.929 . S
H319 C316 0.930 . S
H320 C308 0.929 . S
H321 C310 0.929 . S
O322 Co297 2.351 . S
O322 C325 1.244 . S
O323 Co297 2.155 . S
O323 C325 1.240 . S
O324 Co297 2.096 . S
O324 C305 1.247 . S
C325 O322 1.244 . S
C325 O323 1.240 . S
H326 C300 0.931 . S
H327 C309 0.931 . S
H328 C313 0.929 . S
H329 C315 0.930 . S
Co330 N334 2.148 . S
Co330 N340 2.128 . S
Co330 N350 2.194 . S
Co330 O355 2.351 . S
Co330 O356 2.155 . S
Co330 O357 2.096 . S
C331 N334 1.301 . S
C331 N335 1.328 . S
C331 H336 0.930 . S
C332 C333 1.333 . S
C332 N334 1.317 . S
C332 H337 0.930 . S
C333 C332 1.333 . S
C333 N335 1.350 . S
C333 H359 0.931 . S
N334 Co330 2.148 . S
N334 C331 1.301 . S
N334 C332 1.317 . S
N335 C331 1.328 . S
N335 C333 1.350 . S
H336 C331 0.930 . S
H337 C332 0.930 . S
C338 O339 1.224 . S
C338 O357 1.247 . S
O339 C338 1.224 . S
N340 Co330 2.128 . S
N340 C341 1.355 . S
N340 C343 1.310 1_554 S
C341 N340 1.355 . S
C341 C342 1.363 1_554 S
C341 H353 0.929 . S
C342 C341 1.363 1_556 S
C342 N344 1.375 . S
C342 H360 0.931 . S
C343 N340 1.310 1_556 S
C343 N344 1.348 . S
C343 H354 0.929 . S
N344 C342 1.375 . S
N344 C343 1.348 . S
C345 C348 1.365 . S
C345 N350 1.328 . S
C345 H351 0.929 . S
C346 C347 1.362 . S
C346 C349 1.378 . S
C346 H361 0.929 . S
C347 C346 1.362 . S
C347 C348 1.366 . S
C348 C345 1.365 . S
C348 C347 1.366 . S
C348 H362 0.930 . S
C349 C346 1.378 . S
C349 N350 1.315 . S
C349 H352 0.930 . S
N350 Co330 2.194 . S
N350 C345 1.328 . S
N350 C349 1.315 . S
H351 C345 0.929 . S
H352 C349 0.930 . S
H353 C341 0.929 . S
H354 C343 0.929 . S
O355 Co330 2.351 . S
O355 C358 1.244 . S
O356 Co330 2.155 . S
O356 C358 1.240 . S
O357 Co330 2.096 . S
O357 C338 1.247 . S
C358 O355 1.244 . S
C358 O356 1.240 . S
H359 C333 0.931 . S
H360 C342 0.931 . S
H361 C346 0.929 . S
H362 C348 0.930 . S
Co363 N367 2.148 . S
Co363 N373 2.128 . S
Co363 N383 2.194 . S
Co363 O388 2.351 . S
Co363 O389 2.155 . S
Co363 O390 2.096 . S
C364 N367 1.301 . S
C364 N368 1.328 . S
C364 H369 0.930 . S
C365 C366 1.333 . S
C365 N367 1.317 . S
C365 H370 0.930 . S
C366 C365 1.333 . S
C366 N368 1.350 . S
C366 H392 0.931 . S
N367 Co363 2.148 . S
N367 C364 1.301 . S
N367 C365 1.317 . S
N368 C364 1.328 . S
N368 C366 1.350 . S
H369 C364 0.930 . S
H370 C365 0.930 . S
C371 O372 1.224 . S
C371 O390 1.247 . S
O372 C371 1.224 . S
N373 Co363 2.128 . S
N373 C374 1.355 . S
N373 C376 1.310 1_554 S
C374 N373 1.355 . S
C374 C375 1.363 1_554 S
C374 H386 0.929 . S
C375 C374 1.363 1_556 S
C375 N377 1.375 . S
C375 H393 0.931 . S
C376 N373 1.310 1_556 S
C376 N377 1.348 . S
C376 H387 0.929 . S
N377 C375 1.375 . S
N377 C376 1.348 . S
C378 C381 1.365 . S
C378 N383 1.328 . S
C378 H384 0.929 . S
C379 C380 1.362 . S
C379 C382 1.378 . S
C379 H394 0.929 . S
C380 C379 1.362 . S
C380 C381 1.366 . S
C381 C378 1.365 . S
C381 C380 1.366 . S
C381 H395 0.930 . S
C382 C379 1.378 . S
C382 N383 1.315 . S
C382 H385 0.930 . S
N383 Co363 2.194 . S
N383 C378 1.328 . S
N383 C382 1.315 . S
H384 C378 0.929 . S
H385 C382 0.930 . S
H386 C374 0.929 . S
H387 C376 0.929 . S
O388 Co363 2.351 . S
O388 C391 1.244 . S
O389 Co363 2.155 . S
O389 C391 1.240 . S
O390 Co363 2.096 . S
O390 C371 1.247 . S
C391 O388 1.244 . S
C391 O389 1.240 . S
H392 C366 0.931 . S
H393 C375 0.931 . S
H394 C379 0.929 . S
H395 C381 0.930 . S
Co396 N400 2.148 . S
Co396 N406 2.128 . S
Co396 N416 2.194 . S
Co396 O421 2.351 . S
Co396 O422 2.155 . S
Co396 O423 2.096 . S
C397 N400 1.301 . S
C397 N401 1.328 . S
C397 H402 0.930 . S
C398 C399 1.333 . S
C398 N400 1.317 . S
C398 H403 0.930 . S
C399 C398 1.333 . S
C399 N401 1.350 . S
C399 H425 0.931 . S
N400 Co396 2.148 . S
N400 C397 1.301 . S
N400 C398 1.317 . S
N401 C397 1.328 . S
N401 C399 1.350 . S
H402 C397 0.930 . S
H403 C398 0.930 . S
C404 O405 1.224 . S
C404 O423 1.247 . S
O405 C404 1.224 . S
N406 Co396 2.128 . S
N406 C407 1.355 . S
N406 C409 1.310 1_556 S
C407 N406 1.355 . S
C407 C408 1.363 1_556 S
C407 H419 0.929 . S
C408 C407 1.363 1_554 S
C408 N410 1.375 . S
C408 H426 0.931 . S
C409 N406 1.310 1_554 S
C409 N410 1.348 . S
C409 H420 0.929 . S
N410 C408 1.375 . S
N410 C409 1.348 . S
C411 C414 1.365 . S
C411 N416 1.328 . S
C411 H417 0.929 . S
C412 C413 1.362 . S
C412 C415 1.378 . S
C412 H427 0.929 . S
C413 C412 1.362 . S
C413 C414 1.366 . S
C414 C411 1.365 . S
C414 C413 1.366 . S
C414 H428 0.930 . S
C415 C412 1.378 . S
C415 N416 1.315 . S
C415 H418 0.930 . S
N416 Co396 2.194 . S
N416 C411 1.328 . S
N416 C415 1.315 . S
H417 C411 0.929 . S
H418 C415 0.930 . S
H419 C407 0.929 . S
H420 C409 0.929 . S
O421 Co396 2.351 . S
O421 C424 1.244 . S
O422 Co396 2.155 . S
O422 C424 1.240 . S
O423 Co396 2.096 . S
O423 C404 1.247 . S
C424 O421 1.244 . S
C424 O422 1.240 . S
H425 C399 0.931 . S
H426 C408 0.931 . S
H427 C412 0.929 . S
H428 C414 0.930 . S
Co429 N433 2.148 . S
Co429 N439 2.128 . S
Co429 N449 2.194 . S
Co429 O454 2.351 . S
Co429 O455 2.155 . S
Co429 O456 2.096 . S
C430 N433 1.301 . S
C430 N434 1.328 . S
C430 H435 0.930 . S
C431 C432 1.333 . S
C431 N433 1.317 . S
C431 H436 0.930 . S
C432 C431 1.333 . S
C432 N434 1.350 . S
C432 H458 0.931 . S
N433 Co429 2.148 . S
N433 C430 1.301 . S
N433 C431 1.317 . S
N434 C430 1.328 . S
N434 C432 1.350 . S
H435 C430 0.930 . S
H436 C431 0.930 . S
C437 O438 1.224 . S
C437 O456 1.247 . S
O438 C437 1.224 . S
N439 Co429 2.128 . S
N439 C440 1.355 . S
N439 C442 1.310 1_556 S
C440 N439 1.355 . S
C440 C441 1.363 1_556 S
C440 H452 0.929 . S
C441 C440 1.363 1_554 S
C441 N443 1.375 . S
C441 H459 0.931 . S
C442 N439 1.310 1_554 S
C442 N443 1.348 . S
C442 H453 0.929 . S
N443 C441 1.375 . S
N443 C442 1.348 . S
C444 C447 1.365 . S
C444 N449 1.328 . S
C444 H450 0.929 . S
C445 C446 1.362 . S
C445 C448 1.378 . S
C445 H460 0.929 . S
C446 C445 1.362 . S
C446 C447 1.366 . S
C447 C444 1.365 . S
C447 C446 1.366 . S
C447 H461 0.930 . S
C448 C445 1.378 . S
C448 N449 1.315 . S
C448 H451 0.930 . S
N449 Co429 2.194 . S
N449 C444 1.328 . S
N449 C448 1.315 . S
H450 C444 0.929 . S
H451 C448 0.930 . S
H452 C440 0.929 . S
H453 C442 0.929 . S
O454 Co429 2.351 . S
O454 C457 1.244 . S
O455 Co429 2.155 . S
O455 C457 1.240 . S
O456 Co429 2.096 . S
O456 C437 1.247 . S
C457 O454 1.244 . S
C457 O455 1.240 . S
H458 C432 0.931 . S
H459 C441 0.931 . S
H460 C445 0.929 . S
H461 C447 0.930 . S
Co462 N466 2.148 . S
Co462 N472 2.128 . S
Co462 N482 2.194 . S
Co462 O487 2.351 . S
Co462 O488 2.155 . S
Co462 O489 2.096 . S
C463 N466 1.301 . S
C463 N467 1.328 . S
C463 H468 0.930 . S
C464 C465 1.333 . S
C464 N466 1.317 . S
C464 H469 0.930 . S
C465 C464 1.333 . S
C465 N467 1.350 . S
C465 H491 0.931 . S
N466 Co462 2.148 . S
N466 C463 1.301 . S
N466 C464 1.317 . S
N467 C463 1.328 . S
N467 C465 1.350 . S
H468 C463 0.930 . S
H469 C464 0.930 . S
C470 O471 1.224 . S
C470 O489 1.247 . S
O471 C470 1.224 . S
N472 Co462 2.128 . S
N472 C473 1.355 . S
N472 C475 1.310 1_556 S
C473 N472 1.355 . S
C473 C474 1.363 1_556 S
C473 H485 0.929 . S
C474 C473 1.363 1_554 S
C474 N476 1.375 . S
C474 H492 0.931 . S
C475 N472 1.310 1_554 S
C475 N476 1.348 . S
C475 H486 0.929 . S
N476 C474 1.375 . S
N476 C475 1.348 . S
C477 C480 1.365 . S
C477 N482 1.328 . S
C477 H483 0.929 . S
C478 C479 1.362 . S
C478 C481 1.378 . S
C478 H493 0.929 . S
C479 C478 1.362 . S
C479 C480 1.366 . S
C480 C477 1.365 . S
C480 C479 1.366 . S
C480 H494 0.930 . S
C481 C478 1.378 . S
C481 N482 1.315 . S
C481 H484 0.930 . S
N482 Co462 2.194 . S
N482 C477 1.328 . S
N482 C481 1.315 . S
H483 C477 0.929 . S
H484 C481 0.930 . S
H485 C473 0.929 . S
H486 C475 0.929 . S
O487 Co462 2.351 . S
O487 C490 1.244 . S
O488 Co462 2.155 . S
O488 C490 1.240 . S
O489 Co462 2.096 . S
O489 C470 1.247 . S
C490 O487 1.244 . S
C490 O488 1.240 . S
H491 C465 0.931 . S
H492 C474 0.931 . S
H493 C478 0.929 . S
H494 C480 0.930 . S
Co495 N499 2.148 . S
Co495 N505 2.128 . S
Co495 N515 2.194 . S
Co495 O520 2.351 . S
Co495 O521 2.155 . S
Co495 O522 2.096 . S
C496 N499 1.301 . S
C496 N500 1.328 . S
C496 H501 0.930 . S
C497 C498 1.333 . S
C497 N499 1.317 . S
C497 H502 0.930 . S
C498 C497 1.333 . S
C498 N500 1.350 . S
C498 H524 0.931 . S
N499 Co495 2.148 . S
N499 C496 1.301 . S
N499 C497 1.317 . S
N500 C496 1.328 . S
N500 C498 1.350 . S
H501 C496 0.930 . S
H502 C497 0.930 . S
C503 O504 1.224 . S
C503 O522 1.247 . S
O504 C503 1.224 . S
N505 Co495 2.128 . S
N505 C506 1.355 . S
N505 C508 1.311 . S
C506 N505 1.355 . S
C506 C507 1.363 . S
C506 H518 0.929 . S
C507 C506 1.363 . S
C507 N509 1.375 . S
C507 H525 0.931 . S
C508 N505 1.311 . S
C508 N509 1.347 . S
C508 H519 0.929 . S
N509 C507 1.375 . S
N509 C508 1.347 . S
C510 C513 1.365 . S
C510 N515 1.328 . S
C510 H516 0.929 . S
C511 C512 1.362 . S
C511 C514 1.378 . S
C511 H526 0.929 . S
C512 C511 1.362 . S
C512 C513 1.366 . S
C513 C510 1.365 . S
C513 C512 1.366 . S
C513 H527 0.930 . S
C514 C511 1.378 . S
C514 N515 1.315 . S
C514 H517 0.930 . S
N515 Co495 2.194 . S
N515 C510 1.328 . S
N515 C514 1.315 . S
H516 C510 0.929 . S
H517 C514 0.930 . S
H518 C506 0.929 . S
H519 C508 0.929 . S
O520 Co495 2.351 . S
O520 C523 1.244 . S
O521 Co495 2.155 . S
O521 C523 1.240 . S
O522 Co495 2.096 . S
O522 C503 1.247 . S
C523 O520 1.244 . S
C523 O521 1.240 . S
H524 C498 0.931 . S
H525 C507 0.931 . S
H526 C511 0.929 . S
H527 C513 0.930 . S
Co528 N532 2.148 . S
Co528 N538 2.128 . S
Co528 N548 2.194 . S
Co528 O553 2.351 . S
Co528 O554 2.155 . S
Co528 O555 2.096 . S
C529 N532 1.301 . S
C529 N533 1.328 . S
C529 H534 0.930 . S
C530 C531 1.333 . S
C530 N532 1.317 . S
C530 H535 0.930 . S
C531 C530 1.333 . S
C531 N533 1.350 . S
C531 H557 0.931 . S
N532 Co528 2.148 . S
N532 C529 1.301 . S
N532 C530 1.317 . S
N533 C529 1.328 . S
N533 C531 1.350 . S
H534 C529 0.930 . S
H535 C530 0.930 . S
C536 O537 1.224 . S
C536 O555 1.247 . S
O537 C536 1.224 . S
N538 Co528 2.128 . S
N538 C539 1.355 . S
N538 C541 1.311 . S
C539 N538 1.355 . S
C539 C540 1.363 . S
C539 H551 0.929 . S
C540 C539 1.363 . S
C540 N542 1.375 . S
C540 H558 0.931 . S
C541 N538 1.311 . S
C541 N542 1.347 . S
C541 H552 0.929 . S
N542 C540 1.375 . S
N542 C541 1.347 . S
C543 C546 1.365 . S
C543 N548 1.328 . S
C543 H549 0.929 . S
C544 C545 1.362 . S
C544 C547 1.378 . S
C544 H559 0.929 . S
C545 C544 1.362 . S
C545 C546 1.366 . S
C546 C543 1.365 . S
C546 C545 1.366 . S
C546 H560 0.930 . S
C547 C544 1.378 . S
C547 N548 1.315 . S
C547 H550 0.930 . S
N548 Co528 2.194 . S
N548 C543 1.328 . S
N548 C547 1.315 . S
H549 C543 0.929 . S
H550 C547 0.930 . S
H551 C539 0.929 . S
H552 C541 0.929 . S
O553 Co528 2.351 . S
O553 C556 1.244 . S
O554 Co528 2.155 . S
O554 C556 1.240 . S
O555 Co528 2.096 . S
O555 C536 1.247 . S
C556 O553 1.244 . S
C556 O554 1.240 . S
H557 C531 0.931 . S
H558 C540 0.931 . S
H559 C544 0.929 . S
H560 C546 0.930 . S
Co561 N565 2.148 . S
Co561 N571 2.128 . S
Co561 N581 2.194 . S
Co561 O586 2.351 . S
Co561 O587 2.155 . S
Co561 O588 2.096 . S
C562 N565 1.301 . S
C562 N566 1.328 . S
C562 H567 0.930 . S
C563 C564 1.333 . S
C563 N565 1.317 . S
C563 H568 0.930 . S
C564 C563 1.333 . S
C564 N566 1.350 . S
C564 H590 0.931 . S
N565 Co561 2.148 . S
N565 C562 1.301 . S
N565 C563 1.317 . S
N566 C562 1.328 . S
N566 C564 1.350 . S
H567 C562 0.930 . S
H568 C563 0.930 . S
C569 O570 1.224 . S
C569 O588 1.247 . S
O570 C569 1.224 . S
N571 Co561 2.128 . S
N571 C572 1.355 . S
N571 C574 1.311 . S
C572 N571 1.355 . S
C572 C573 1.363 . S
C572 H584 0.929 . S
C573 C572 1.363 . S
C573 N575 1.375 . S
C573 H591 0.931 . S
C574 N571 1.311 . S
C574 N575 1.347 . S
C574 H585 0.929 . S
N575 C573 1.375 . S
N575 C574 1.347 . S
C576 C579 1.365 . S
C576 N581 1.328 . S
C576 H582 0.929 . S
C577 C578 1.362 . S
C577 C580 1.378 . S
C577 H592 0.929 . S
C578 C577 1.362 . S
C578 C579 1.366 . S
C579 C576 1.365 . S
C579 C578 1.366 . S
C579 H593 0.930 . S
C580 C577 1.378 . S
C580 N581 1.315 . S
C580 H583 0.930 . S
N581 Co561 2.194 . S
N581 C576 1.328 . S
N581 C580 1.315 . S
H582 C576 0.929 . S
H583 C580 0.930 . S
H584 C572 0.929 . S
H585 C574 0.929 . S
O586 Co561 2.351 . S
O586 C589 1.244 . S
O587 Co561 2.155 . S
O587 C589 1.240 . S
O588 Co561 2.096 . S
O588 C569 1.247 . S
C589 O586 1.244 . S
C589 O587 1.240 . S
H590 C564 0.931 . S
H591 C573 0.931 . S
H592 C577 0.929 . S
H593 C579 0.930 . S
C594 C595 1.369 . S
C594 C596 1.419 . S
C594 H598 0.930 . S
C595 C594 1.369 . S
C595 C604 1.429 . S
C596 C594 1.419 . S
C596 C597 1.363 . S
C596 H599 0.929 . S
C597 C596 1.363 . S
C597 C603 1.428 . S
H598 C594 0.930 . S
H599 C596 0.929 . S
S600 N601 1.613 . S
S600 N602 1.610 . S
N601 S600 1.613 . S
N601 C604 1.350 . S
N602 S600 1.610 . S
N602 C603 1.351 . S
C603 C597 1.428 . S
C603 N602 1.351 . S
C603 C604 1.434 . S
C604 C595 1.429 . S
C604 N601 1.350 . S
C604 C603 1.434 . S
C605 C606 1.369 . S
C605 C607 1.419 . S
C605 H609 0.930 . S
C606 C605 1.369 . S
C606 C615 1.429 . S
C607 C605 1.419 . S
C607 C608 1.363 . S
C607 H610 0.929 . S
C608 C607 1.363 . S
C608 C614 1.428 . S
H609 C605 0.930 . S
H610 C607 0.929 . S
S611 N612 1.613 . S
S611 N613 1.610 . S
N612 S611 1.613 . S
N612 C615 1.350 . S
N613 S611 1.610 . S
N613 C614 1.351 . S
C614 C608 1.428 . S
C614 N613 1.351 . S
C614 C615 1.434 . S
C615 C606 1.429 . S
C615 N612 1.350 . S
C615 C614 1.434 . S
C616 C617 1.369 . S
C616 C618 1.419 . S
C616 H620 0.930 . S
C617 C616 1.369 . S
C617 C626 1.429 . S
C618 C616 1.419 . S
C618 C619 1.363 . S
C618 H621 0.929 . S
C619 C618 1.363 . S
C619 C625 1.428 . S
H620 C616 0.930 . S
H621 C618 0.929 . S
S622 N623 1.613 . S
S622 N624 1.610 . S
N623 S622 1.613 . S
N623 C626 1.350 . S
N624 S622 1.610 . S
N624 C625 1.351 . S
C625 C619 1.428 . S
C625 N624 1.351 . S
C625 C626 1.434 . S
C626 C617 1.429 . S
C626 N623 1.350 . S
C626 C625 1.434 . S
C627 C628 1.369 . S
C627 C629 1.419 . S
C627 H631 0.930 . S
C628 C627 1.369 . S
C628 C637 1.429 . S
C629 C627 1.419 . S
C629 C630 1.363 . S
C629 H632 0.929 . S
C630 C629 1.363 . S
C630 C636 1.428 . S
H631 C627 0.930 . S
H632 C629 0.929 . S
S633 N634 1.613 . S
S633 N635 1.610 . S
N634 S633 1.613 . S
N634 C637 1.350 . S
N635 S633 1.610 . S
N635 C636 1.351 . S
C636 C630 1.428 . S
C636 N635 1.351 . S
C636 C637 1.434 . S
C637 C628 1.429 . S
C637 N634 1.350 . S
C637 C636 1.434 . S
C638 C639 1.369 . S
C638 C640 1.419 . S
C638 H642 0.930 . S
C639 C638 1.369 . S
C639 C648 1.429 . S
C640 C638 1.419 . S
C640 C641 1.363 . S
C640 H643 0.929 . S
C641 C640 1.363 . S
C641 C647 1.428 . S
H642 C638 0.930 . S
H643 C640 0.929 . S
S644 N645 1.613 . S
S644 N646 1.610 . S
N645 S644 1.613 . S
N645 C648 1.350 . S
N646 S644 1.610 . S
N646 C647 1.351 . S
C647 C641 1.428 . S
C647 N646 1.351 . S
C647 C648 1.434 . S
C648 C639 1.429 . S
C648 N645 1.350 . S
C648 C647 1.434 . S
C649 C650 1.369 . S
C649 C651 1.419 . S
C649 H653 0.930 . S
C650 C649 1.369 . S
C650 C659 1.429 . S
C651 C649 1.419 . S
C651 C652 1.363 . S
C651 H654 0.929 . S
C652 C651 1.363 . S
C652 C658 1.428 . S
H653 C649 0.930 . S
H654 C651 0.929 . S
S655 N656 1.613 . S
S655 N657 1.610 . S
N656 S655 1.613 . S
N656 C659 1.350 . S
N657 S655 1.610 . S
N657 C658 1.351 . S
C658 C652 1.428 . S
C658 N657 1.351 . S
C658 C659 1.434 . S
C659 C650 1.429 . S
C659 N656 1.350 . S
C659 C658 1.434 . S
C660 C661 1.369 1_556 S
C660 C662 1.419 . S
C660 H664 0.930 . S
C661 C660 1.369 1_554 S
C661 C670 1.429 . S
C662 C660 1.419 . S
C662 C663 1.363 . S
C662 H665 0.929 . S
C663 C662 1.363 . S
C663 C669 1.428 . S
H664 C660 0.930 . S
H665 C662 0.929 . S
S666 N667 1.613 . S
S666 N668 1.610 1_554 S
N667 S666 1.613 . S
N667 C670 1.350 . S
N668 S666 1.610 1_556 S
N668 C669 1.351 . S
C669 C663 1.428 . S
C669 N668 1.351 . S
C669 C670 1.434 1_556 S
C670 C661 1.429 . S
C670 N667 1.350 . S
C670 C669 1.434 1_554 S
C671 C672 1.369 1_556 S
C671 C673 1.419 . S
C671 H675 0.930 . S
C672 C671 1.369 1_554 S
C672 C681 1.429 . S
C673 C671 1.419 . S
C673 C674 1.363 . S
C673 H676 0.929 . S
C674 C673 1.363 . S
C674 C680 1.428 . S
H675 C671 0.930 . S
H676 C673 0.929 . S
S677 N678 1.613 . S
S677 N679 1.610 1_554 S
N678 S677 1.613 . S
N678 C681 1.350 . S
N679 S677 1.610 1_556 S
N679 C680 1.351 . S
C680 C674 1.428 . S
C680 N679 1.351 . S
C680 C681 1.434 1_556 S
C681 C672 1.429 . S
C681 N678 1.350 . S
C681 C680 1.434 1_554 S
C682 C683 1.369 . S
C682 C684 1.419 . S
C682 H686 0.930 . S
C683 C682 1.369 . S
C683 C692 1.429 . S
C684 C682 1.419 . S
C684 C685 1.363 1_556 S
C684 H687 0.929 . S
C685 C684 1.363 1_554 S
C685 C691 1.428 . S
H686 C682 0.930 . S
H687 C684 0.929 . S
S688 N689 1.613 1_554 S
S688 N690 1.610 . S
N689 S688 1.613 1_556 S
N689 C692 1.350 . S
N690 S688 1.610 . S
N690 C691 1.351 . S
C691 C685 1.428 . S
C691 N690 1.351 . S
C691 C692 1.434 1_554 S
C692 C683 1.429 . S
C692 N689 1.350 . S
C692 C691 1.434 1_556 S
C693 C694 1.369 . S
C693 C695 1.419 . S
C693 H697 0.930 . S
C694 C693 1.369 . S
C694 C703 1.429 . S
C695 C693 1.419 . S
C695 C696 1.363 . S
C695 H698 0.929 . S
C696 C695 1.363 . S
C696 C702 1.428 . S
H697 C693 0.930 . S
H698 C695 0.929 . S
S699 N700 1.613 . S
S699 N701 1.610 . S
N700 S699 1.613 . S
N700 C703 1.350 . S
N701 S699 1.610 . S
N701 C702 1.351 . S
C702 C696 1.428 . S
C702 N701 1.351 . S
C702 C703 1.434 . S
C703 C694 1.429 . S
C703 N700 1.350 . S
C703 C702 1.434 . S
C704 C705 1.369 . S
C704 C706 1.419 . S
C704 H708 0.930 . S
C705 C704 1.369 . S
C705 C714 1.429 . S
C706 C704 1.419 . S
C706 C707 1.363 . S
C706 H709 0.929 . S
C707 C706 1.363 . S
C707 C713 1.428 . S
H708 C704 0.930 . S
H709 C706 0.929 . S
S710 N711 1.613 . S
S710 N712 1.610 . S
N711 S710 1.613 . S
N711 C714 1.350 . S
N712 S710 1.610 . S
N712 C713 1.351 . S
C713 C707 1.428 . S
C713 N712 1.351 . S
C713 C714 1.434 . S
C714 C705 1.429 . S
C714 N711 1.350 . S
C714 C713 1.434 . S
C715 C716 1.369 . S
C715 C717 1.419 . S
C715 H719 0.930 . S
C716 C715 1.369 . S
C716 C725 1.429 . S
C717 C715 1.419 . S
C717 C718 1.363 . S
C717 H720 0.929 . S
C718 C717 1.363 . S
C718 C724 1.428 . S
H719 C715 0.930 . S
H720 C717 0.929 . S
S721 N722 1.613 . S
S721 N723 1.610 . S
N722 S721 1.613 . S
N722 C725 1.350 . S
N723 S721 1.610 . S
N723 C724 1.351 . S
C724 C718 1.428 . S
C724 N723 1.351 . S
C724 C725 1.434 . S
C725 C716 1.429 . S
C725 N722 1.350 . S
C725 C724 1.434 . S
C726 C727 1.369 . S
C726 C728 1.419 . S
C726 H730 0.930 . S
C727 C726 1.369 . S
C727 C736 1.429 . S
C728 C726 1.419 . S
C728 C729 1.363 . S
C728 H731 0.929 . S
C729 C728 1.363 . S
C729 C735 1.428 . S
H730 C726 0.930 . S
H731 C728 0.929 . S
S732 N733 1.613 . S
S732 N734 1.610 . S
N733 S732 1.613 . S
N733 C736 1.350 . S
N734 S732 1.610 . S
N734 C735 1.351 . S
C735 C729 1.428 . S
C735 N734 1.351 . S
C735 C736 1.434 . S
C736 C727 1.429 . S
C736 N733 1.350 . S
C736 C735 1.434 . S
C737 C738 1.369 . S
C737 C739 1.419 . S
C737 H741 0.930 . S
C738 C737 1.369 . S
C738 C747 1.429 . S
C739 C737 1.419 . S
C739 C740 1.363 . S
C739 H742 0.929 . S
C740 C739 1.363 . S
C740 C746 1.428 . S
H741 C737 0.930 . S
H742 C739 0.929 . S
S743 N744 1.613 . S
S743 N745 1.610 . S
N744 S743 1.613 . S
N744 C747 1.350 . S
N745 S743 1.610 . S
N745 C746 1.351 . S
C746 C740 1.428 . S
C746 N745 1.351 . S
C746 C747 1.434 . S
C747 C738 1.429 . S
C747 N744 1.350 . S
C747 C746 1.434 . S
C748 C749 1.369 . S
C748 C750 1.419 . S
C748 H752 0.930 . S
C749 C748 1.369 . S
C749 C758 1.429 . S
C750 C748 1.419 . S
C750 C751 1.363 . S
C750 H753 0.929 . S
C751 C750 1.363 . S
C751 C757 1.428 . S
H752 C748 0.930 . S
H753 C750 0.929 . S
S754 N755 1.613 . S
S754 N756 1.610 . S
N755 S754 1.613 . S
N755 C758 1.350 . S
N756 S754 1.610 . S
N756 C757 1.351 . S
C757 C751 1.428 . S
C757 N756 1.351 . S
C757 C758 1.434 . S
C758 C749 1.429 . S
C758 N755 1.350 . S
C758 C757 1.434 . S
C759 C760 1.369 . S
C759 C761 1.419 . S
C759 H763 0.930 . S
C760 C759 1.369 . S
C760 C769 1.429 . S
C761 C759 1.419 . S
C761 C762 1.363 1_554 S
C761 H764 0.929 . S
C762 C761 1.363 1_556 S
C762 C768 1.428 . S
H763 C759 0.930 . S
H764 C761 0.929 . S
S765 N766 1.613 1_556 S
S765 N767 1.610 . S
N766 S765 1.613 1_554 S
N766 C769 1.350 . S
N767 S765 1.610 . S
N767 C768 1.351 . S
C768 C762 1.428 . S
C768 N767 1.351 . S
C768 C769 1.434 1_556 S
C769 C760 1.429 . S
C769 N766 1.350 . S
C769 C768 1.434 1_554 S
C770 C771 1.369 . S
C770 C772 1.419 . S
C770 H774 0.930 . S
C771 C770 1.369 . S
C771 C780 1.429 . S
C772 C770 1.419 . S
C772 C773 1.363 1_554 S
C772 H775 0.929 . S
C773 C772 1.363 1_556 S
C773 C779 1.428 1_556 S
H774 C770 0.930 . S
H775 C772 0.929 . S
S776 N777 1.613 . S
S776 N778 1.610 1_554 S
N777 S776 1.613 . S
N777 C780 1.350 . S
N778 S776 1.610 1_556 S
N778 C779 1.351 1_556 S
C779 C773 1.428 1_554 S
C779 N778 1.351 1_554 S
C779 C780 1.434 . S
C780 C771 1.429 . S
C780 N777 1.350 . S
C780 C779 1.434 . S
C781 C782 1.369 1_554 S
C781 C783 1.419 . S
C781 H785 0.930 1_554 S
C782 C781 1.369 1_556 S
C782 C791 1.429 1_556 S
C783 C781 1.419 . S
C783 C784 1.363 . S
C783 H786 0.929 . S
C784 C783 1.363 . S
C784 C790 1.428 . S
H785 C781 0.930 1_556 S
H786 C783 0.929 . S
S787 N788 1.617 . S
S787 N789 1.610 . S
N788 S787 1.617 . S
N788 C791 1.351 . S
N789 S787 1.610 . S
N789 C790 1.351 . S
C790 C784 1.428 . S
C790 N789 1.351 . S
C790 C791 1.434 . S
C791 C782 1.429 1_554 S
C791 N788 1.351 . S
C791 C790 1.434 . S
C792 C793 1.369 . S
C792 C794 1.419 . S
C792 H796 0.930 . S
C793 C792 1.369 . S
C793 C802 1.429 . S
C794 C792 1.419 . S
C794 C795 1.363 . S
C794 H797 0.929 . S
C795 C794 1.363 . S
C795 C801 1.428 . S
H796 C792 0.930 . S
H797 C794 0.929 . S
S798 N799 1.613 . S
S798 N800 1.610 . S
N799 S798 1.613 . S
N799 C802 1.350 . S
N800 S798 1.610 . S
N800 C801 1.351 . S
C801 C795 1.428 . S
C801 N800 1.351 . S
C801 C802 1.434 . S
C802 C793 1.429 . S
C802 N799 1.350 . S
C802 C801 1.434 . S
C803 C804 1.369 . S
C803 C805 1.419 . S
C803 H807 0.930 . S
C804 C803 1.369 . S
C804 C813 1.429 . S
C805 C803 1.419 . S
C805 C806 1.363 . S
C805 H808 0.929 . S
C806 C805 1.363 . S
C806 C812 1.428 . S
H807 C803 0.930 . S
H808 C805 0.929 . S
S809 N810 1.613 . S
S809 N811 1.610 . S
N810 S809 1.613 . S
N810 C813 1.350 . S
N811 S809 1.610 . S
N811 C812 1.351 . S
C812 C806 1.428 . S
C812 N811 1.351 . S
C812 C813 1.434 . S
C813 C804 1.429 . S
C813 N810 1.350 . S
C813 C812 1.434 . S
C814 C815 1.369 . S
C814 C816 1.419 . S
C814 H818 0.930 . S
C815 C814 1.369 . S
C815 C824 1.429 . S
C816 C814 1.419 . S
C816 C817 1.363 . S
C816 H819 0.929 . S
C817 C816 1.363 . S
C817 C823 1.428 . S
H818 C814 0.930 . S
H819 C816 0.929 . S
S820 N821 1.613 . S
S820 N822 1.610 . S
N821 S820 1.613 . S
N821 C824 1.350 . S
N822 S820 1.610 . S
N822 C823 1.351 . S
C823 C817 1.428 . S
C823 N822 1.351 . S
C823 C824 1.434 . S
C824 C815 1.429 . S
C824 N821 1.350 . S
C824 C823 1.434 . S
C825 C826 1.369 . S
C825 C827 1.419 . S
C825 H829 0.930 . S
C826 C825 1.369 . S
C826 C835 1.429 . S
C827 C825 1.419 . S
C827 C828 1.363 . S
C827 H830 0.929 . S
C828 C827 1.363 . S
C828 C834 1.428 . S
H829 C825 0.930 . S
H830 C827 0.929 . S
S831 N832 1.613 . S
S831 N833 1.610 . S
N832 S831 1.613 . S
N832 C835 1.350 . S
N833 S831 1.610 . S
N833 C834 1.351 . S
C834 C828 1.428 . S
C834 N833 1.351 . S
C834 C835 1.434 . S
C835 C826 1.429 . S
C835 N832 1.350 . S
C835 C834 1.434 . S
C836 C837 1.369 . S
C836 C838 1.419 . S
C836 H840 0.930 . S
C837 C836 1.369 . S
C837 C846 1.429 . S
C838 C836 1.419 . S
C838 C839 1.363 . S
C838 H841 0.929 . S
C839 C838 1.363 . S
C839 C845 1.428 . S
H840 C836 0.930 . S
H841 C838 0.929 . S
S842 N843 1.613 . S
S842 N844 1.610 . S
N843 S842 1.613 . S
N843 C846 1.350 . S
N844 S842 1.610 . S
N844 C845 1.351 . S
C845 C839 1.428 . S
C845 N844 1.351 . S
C845 C846 1.434 . S
C846 C837 1.429 . S
C846 N843 1.350 . S
C846 C845 1.434 . S
C847 C848 1.369 . S
C847 C849 1.419 . S
C847 H851 0.930 . S
C848 C847 1.369 . S
C848 C857 1.429 . S
C849 C847 1.419 . S
C849 C850 1.363 . S
C849 H852 0.929 . S
C850 C849 1.363 . S
C850 C856 1.428 . S
H851 C847 0.930 . S
H852 C849 0.929 . S
S853 N854 1.613 . S
S853 N855 1.610 . S
N854 S853 1.613 . S
N854 C857 1.350 . S
N855 S853 1.610 . S
N855 C856 1.351 . S
C856 C850 1.428 . S
C856 N855 1.351 . S
C856 C857 1.434 . S
C857 C848 1.429 . S
C857 N854 1.350 . S
C857 C856 1.434 . S
C858 C859 1.369 1_455 S
C858 C860 1.419 1_554 S
C858 H862 0.930 . S
C859 C858 1.369 1_655 S
C859 C868 1.429 . S
C860 C858 1.419 1_556 S
C860 C861 1.363 . S
C860 H863 0.929 . S
C861 C860 1.363 . S
C861 C867 1.428 1_455 S
H862 C858 0.930 . S
H863 C860 0.929 . S
S864 N865 1.613 . S
S864 N866 1.610 . S
N865 S864 1.613 . S
N865 C868 1.350 1_556 S
N866 S864 1.610 . S
N866 C867 1.351 . S
C867 C861 1.428 1_655 S
C867 N866 1.351 . S
C867 C868 1.434 1_556 S
C868 C859 1.429 . S
C868 N865 1.350 1_554 S
C868 C867 1.434 1_554 S
C869 C870 1.369 1_554 S
C869 C871 1.419 . S
C869 H873 0.930 . S
C870 C869 1.369 1_556 S
C870 C879 1.429 . S
C871 C869 1.419 . S
C871 C872 1.363 . S
C871 H874 0.929 . S
C872 C871 1.363 . S
C872 C878 1.428 1_554 S
H873 C869 0.930 . S
H874 C871 0.929 . S
S875 N876 1.613 . S
S875 N877 1.610 . S
N876 S875 1.613 . S
N876 C879 1.350 . S
N877 S875 1.610 . S
N877 C878 1.351 . S
C878 C872 1.428 1_556 S
C878 N877 1.351 . S
C878 C879 1.434 . S
C879 C870 1.429 . S
C879 N876 1.350 . S
C879 C878 1.434 . S
C880 C881 1.369 . S
C880 C882 1.419 1_544 S
C880 H884 0.930 . S
C881 C880 1.369 . S
C881 C890 1.429 . S
C882 C880 1.419 1_566 S
C882 C883 1.363 . S
C882 H885 0.929 . S
C883 C882 1.363 . S
C883 C889 1.428 . S
H884 C880 0.930 . S
H885 C882 0.929 . S
S886 N887 1.613 1_556 S
S886 N888 1.610 . S
N887 S886 1.613 1_554 S
N887 C890 1.350 . S
N888 S886 1.610 . S
N888 C889 1.351 1_545 S
C889 C883 1.428 . S
C889 N888 1.351 1_565 S
C889 C890 1.434 1_566 S
C890 C881 1.429 . S
C890 N887 1.350 . S
C890 C889 1.434 1_544 S
C891 C892 1.369 . S
C891 C893 1.419 1_554 S
C891 H895 0.930 . S
C892 C891 1.369 . S
C892 C901 1.429 . S
C893 C891 1.419 1_556 S
C893 C894 1.363 . S
C893 H896 0.929 . S
C894 C893 1.363 . S
C894 C900 1.428 . S
H895 C891 0.930 . S
H896 C893 0.929 . S
S897 N898 1.613 . S
S897 N899 1.610 1_554 S
N898 S897 1.613 . S
N898 C901 1.350 . S
N899 S897 1.610 1_556 S
N899 C900 1.351 . S
C900 C894 1.428 . S
C900 N899 1.351 . S
C900 C901 1.434 1_556 S
C901 C892 1.429 . S
C901 N898 1.350 . S
C901 C900 1.434 1_554 S
C902 C903 1.369 . S
C902 C904 1.419 1_565 S
C902 H906 0.930 . S
C903 C902 1.369 . S
C903 C912 1.429 1_554 S
C904 C902 1.419 1_545 S
C904 C905 1.363 1_554 S
C904 H907 0.929 . S
C905 C904 1.363 1_556 S
C905 C911 1.428 . S
H906 C902 0.930 . S
H907 C904 0.929 . S
S908 N909 1.613 . S
S908 N910 1.610 1_565 S
N909 S908 1.613 . S
N909 C912 1.350 . S
N910 S908 1.610 1_545 S
N910 C911 1.351 . S
C911 C905 1.428 . S
C911 N910 1.351 . S
C911 C912 1.434 1_545 S
C912 C903 1.429 1_556 S
C912 N909 1.350 . S
C912 C911 1.434 1_565 S
C913 C914 1.369 . S
C913 C915 1.419 1_655 S
C913 H917 0.930 . S
C914 C913 1.369 . S
C914 C923 1.429 1_556 S
C915 C913 1.419 1_455 S
C915 C916 1.363 1_556 S
C915 H918 0.929 . S
C916 C915 1.363 1_554 S
C916 C922 1.428 . S
H917 C913 0.930 . S
H918 C915 0.929 . S
S919 N920 1.613 . S
S919 N921 1.610 1_655 S
N920 S919 1.613 . S
N920 C923 1.350 . S
N921 S919 1.610 1_455 S
N921 C922 1.351 . S
C922 C916 1.428 . S
C922 N921 1.351 . S
C922 C923 1.434 1_455 S
C923 C914 1.429 1_554 S
C923 N920 1.350 . S
C923 C922 1.434 1_655 S
C924 C925 1.369 1_554 S
C924 C926 1.419 . S
C924 H928 0.930 . S
C925 C924 1.369 1_556 S
C925 C934 1.429 . S
C926 C924 1.419 . S
C926 C927 1.363 . S
C926 H929 0.929 . S
C927 C926 1.363 . S
C927 C933 1.428 1_554 S
H928 C924 0.930 . S
H929 C926 0.929 . S
S930 N931 1.613 . S
S930 N932 1.610 . S
N931 S930 1.613 . S
N931 C934 1.350 . S
N932 S930 1.610 . S
N932 C933 1.351 . S
C933 C927 1.428 1_556 S
C933 N932 1.351 . S
C933 C934 1.434 . S
C934 C925 1.429 . S
C934 N931 1.350 . S
C934 C933 1.434 . S
C935 C936 1.369 1_554 S
C935 C937 1.419 1_545 S
C935 H939 0.930 . S
C936 C935 1.369 1_556 S
C936 C945 1.429 . S
C937 C935 1.419 1_565 S
C937 C938 1.363 . S
C937 H940 0.929 . S
C938 C937 1.363 . S
C938 C944 1.428 1_554 S
H939 C935 0.930 . S
H940 C937 0.929 . S
S941 N942 1.613 1_565 S
S941 N943 1.610 . S
N942 S941 1.613 1_545 S
N942 C945 1.350 . S
N943 S941 1.610 . S
N943 C944 1.351 . S
C944 C938 1.428 1_556 S
C944 N943 1.351 . S
C944 C945 1.434 1_565 S
C945 C936 1.429 . S
C945 N942 1.350 . S
C945 C944 1.434 1_545 S
C946 C947 1.369 . S
C946 C948 1.419 1_655 S
C946 H950 0.930 . S
C947 C946 1.369 . S
C947 C956 1.429 1_556 S
C948 C946 1.419 1_455 S
C948 C949 1.363 1_556 S
C948 H951 0.929 . S
C949 C948 1.363 1_554 S
C949 C955 1.428 . S
H950 C946 0.930 . S
H951 C948 0.929 . S
S952 N953 1.613 . S
S952 N954 1.610 1_655 S
N953 S952 1.613 . S
N953 C956 1.350 . S
N954 S952 1.610 1_455 S
N954 C955 1.351 . S
C955 C949 1.428 . S
C955 N954 1.351 . S
C955 C956 1.434 1_455 S
C956 C947 1.429 1_554 S
C956 N953 1.350 . S
C956 C955 1.434 1_655 S
C957 C958 1.369 . S
C957 C959 1.419 . S
C957 H961 0.930 . S
C958 C957 1.369 . S
C958 C967 1.429 . S
C959 C957 1.419 . S
C959 C960 1.363 . S
C959 H962 0.929 . S
C960 C959 1.363 . S
C960 C966 1.428 . S
H961 C957 0.930 . S
H962 C959 0.929 . S
S963 N964 1.613 . S
S963 N965 1.610 . S
N964 S963 1.613 . S
N964 C967 1.350 . S
N965 S963 1.610 . S
N965 C966 1.351 . S
C966 C960 1.428 . S
C966 N965 1.351 . S
C966 C967 1.434 . S
C967 C958 1.429 . S
C967 N964 1.350 . S
C967 C966 1.434 . S
C968 C969 1.369 . S
C968 C970 1.419 . S
C968 H972 0.930 . S
C969 C968 1.369 . S
C969 C978 1.429 . S
C970 C968 1.419 . S
C970 C971 1.363 . S
C970 H973 0.929 . S
C971 C970 1.363 . S
C971 C977 1.428 . S
H972 C968 0.930 . S
H973 C970 0.929 . S
S974 N975 1.613 . S
S974 N976 1.610 . S
N975 S974 1.613 . S
N975 C978 1.350 . S
N976 S974 1.610 . S
N976 C977 1.351 . S
C977 C971 1.428 . S
C977 N976 1.351 . S
C977 C978 1.434 . S
C978 C969 1.429 . S
C978 N975 1.350 . S
C978 C977 1.434 . S
C979 C980 1.369 . S
C979 C981 1.419 . S
C979 H983 0.930 . S
C980 C979 1.369 . S
C980 C989 1.429 . S
C981 C979 1.419 . S
C981 C982 1.363 . S
C981 H984 0.929 . S
C982 C981 1.363 . S
C982 C988 1.428 . S
H983 C979 0.930 . S
H984 C981 0.929 . S
S985 N986 1.613 . S
S985 N987 1.610 . S
N986 S985 1.613 . S
N986 C989 1.350 . S
N987 S985 1.610 . S
N987 C988 1.351 . S
C988 C982 1.428 . S
C988 N987 1.351 . S
C988 C989 1.434 . S
C989 C980 1.429 . S
C989 N986 1.350 . S
C989 C988 1.434 . S
C990 C991 1.369 . S
C990 C992 1.419 . S
C990 H994 0.930 . S
C991 C990 1.369 . S
C991 C1000 1.429 . S
C992 C990 1.419 . S
C992 C993 1.363 . S
C992 H995 0.929 . S
C993 C992 1.363 . S
C993 C999 1.428 . S
H994 C990 0.930 . S
H995 C992 0.929 . S
S996 N997 1.613 . S
S996 N998 1.610 . S
N997 S996 1.613 . S
N997 C1000 1.350 . S
N998 S996 1.610 . S
N998 C999 1.351 . S
C999 C993 1.428 . S
C999 N998 1.351 . S
C999 C1000 1.434 . S
C1000 C991 1.429 . S
C1000 N997 1.350 . S
C1000 C999 1.434 . S
C1001 C1002 1.369 . S
C1001 C1003 1.419 . S
C1001 H1005 0.930 . S
C1002 C1001 1.369 . S
C1002 C1011 1.429 . S
C1003 C1001 1.419 . S
C1003 C1004 1.363 . S
C1003 H1006 0.929 . S
C1004 C1003 1.363 . S
C1004 C1010 1.428 . S
H1005 C1001 0.930 . S
H1006 C1003 0.929 . S
S1007 N1008 1.613 . S
S1007 N1009 1.610 . S
N1008 S1007 1.613 . S
N1008 C1011 1.350 . S
N1009 S1007 1.610 . S
N1009 C1010 1.351 . S
C1010 C1004 1.428 . S
C1010 N1009 1.351 . S
C1010 C1011 1.434 . S
C1011 C1002 1.429 . S
C1011 N1008 1.350 . S
C1011 C1010 1.434 . S
C1012 C1013 1.369 . S
C1012 C1014 1.419 . S
C1012 H1016 0.930 . S
C1013 C1012 1.369 . S
C1013 C1022 1.429 . S
C1014 C1012 1.419 . S
C1014 C1015 1.363 . S
C1014 H1017 0.929 . S
C1015 C1014 1.363 . S
C1015 C1021 1.428 . S
H1016 C1012 0.930 . S
H1017 C1014 0.929 . S
S1018 N1019 1.613 . S
S1018 N1020 1.610 . S
N1019 S1018 1.613 . S
N1019 C1022 1.350 . S
N1020 S1018 1.610 . S
N1020 C1021 1.351 . S
C1021 C1015 1.428 . S
C1021 N1020 1.351 . S
C1021 C1022 1.434 . S
C1022 C1013 1.429 . S
C1022 N1019 1.350 . S
C1022 C1021 1.434 . S
C1023 C1024 1.369 . S
C1023 C1025 1.419 . S
C1023 H1027 0.930 . S
C1024 C1023 1.369 . S
C1024 C1033 1.429 . S
C1025 C1023 1.419 . S
C1025 C1026 1.363 . S
C1025 H1028 0.929 . S
C1026 C1025 1.363 . S
C1026 C1032 1.428 . S
H1027 C1023 0.930 . S
H1028 C1025 0.929 . S
S1029 N1030 1.613 . S
S1029 N1031 1.610 . S
N1030 S1029 1.613 . S
N1030 C1033 1.350 . S
N1031 S1029 1.610 . S
N1031 C1032 1.351 . S
C1032 C1026 1.428 . S
C1032 N1031 1.351 . S
C1032 C1033 1.434 . S
C1033 C1024 1.429 . S
C1033 N1030 1.350 . S
C1033 C1032 1.434 . S
C1034 C1035 1.369 . S
C1034 C1036 1.419 . S
C1034 H1038 0.930 . S
C1035 C1034 1.369 . S
C1035 C1044 1.429 . S
C1036 C1034 1.419 . S
C1036 C1037 1.363 . S
C1036 H1039 0.929 . S
C1037 C1036 1.363 . S
C1037 C1043 1.428 . S
H1038 C1034 0.930 . S
H1039 C1036 0.929 . S
S1040 N1041 1.613 . S
S1040 N1042 1.610 . S
N1041 S1040 1.613 . S
N1041 C1044 1.350 . S
N1042 S1040 1.610 . S
N1042 C1043 1.351 . S
C1043 C1037 1.428 . S
C1043 N1042 1.351 . S
C1043 C1044 1.434 . S
C1044 C1035 1.429 . S
C1044 N1041 1.350 . S
C1044 C1043 1.434 . S
C1045 C1046 1.369 . S
C1045 C1047 1.419 . S
C1045 H1049 0.930 . S
C1046 C1045 1.369 . S
C1046 C1055 1.429 . S
C1047 C1045 1.419 . S
C1047 C1048 1.363 . S
C1047 H1050 0.929 . S
C1048 C1047 1.363 . S
C1048 C1054 1.428 . S
H1049 C1045 0.930 . S
H1050 C1047 0.929 . S
S1051 N1052 1.613 . S
S1051 N1053 1.610 . S
N1052 S1051 1.613 . S
N1052 C1055 1.350 . S
N1053 S1051 1.610 . S
N1053 C1054 1.351 . S
C1054 C1048 1.428 . S
C1054 N1053 1.351 . S
C1054 C1055 1.434 . S
C1055 C1046 1.429 . S
C1055 N1052 1.350 . S
C1055 C1054 1.434 . S
C1056 C1057 1.369 . S
C1056 C1058 1.419 . S
C1056 H1060 0.930 . S
C1057 C1056 1.369 . S
C1057 C1066 1.429 . S
C1058 C1056 1.419 . S
C1058 C1059 1.363 . S
C1058 H1061 0.929 . S
C1059 C1058 1.363 . S
C1059 C1065 1.428 . S
H1060 C1056 0.930 . S
H1061 C1058 0.929 . S
S1062 N1063 1.613 . S
S1062 N1064 1.610 . S
N1063 S1062 1.613 . S
N1063 C1066 1.350 . S
N1064 S1062 1.610 . S
N1064 C1065 1.351 . S
C1065 C1059 1.428 . S
C1065 N1064 1.351 . S
C1065 C1066 1.434 . S
C1066 C1057 1.429 . S
C1066 N1063 1.350 . S
C1066 C1065 1.434 . S
C1067 C1068 1.369 . S
C1067 C1069 1.419 . S
C1067 H1071 0.930 . S
C1068 C1067 1.369 . S
C1068 C1077 1.429 . S
C1069 C1067 1.419 . S
C1069 C1070 1.363 . S
C1069 H1072 0.929 . S
C1070 C1069 1.363 . S
C1070 C1076 1.428 . S
H1071 C1067 0.930 . S
H1072 C1069 0.929 . S
S1073 N1074 1.613 . S
S1073 N1075 1.610 . S
N1074 S1073 1.613 . S
N1074 C1077 1.350 . S
N1075 S1073 1.610 . S
N1075 C1076 1.351 . S
C1076 C1070 1.428 . S
C1076 N1075 1.351 . S
C1076 C1077 1.434 . S
C1077 C1068 1.429 . S
C1077 N1074 1.350 . S
C1077 C1076 1.434 . S
C1078 C1079 1.369 . S
C1078 C1080 1.419 . S
C1078 H1082 0.930 . S
C1079 C1078 1.369 . S
C1079 C1088 1.429 . S
C1080 C1078 1.419 . S
C1080 C1081 1.363 . S
C1080 H1083 0.929 . S
C1081 C1080 1.363 . S
C1081 C1087 1.428 . S
H1082 C1078 0.930 . S
H1083 C1080 0.929 . S
S1084 N1085 1.613 . S
S1084 N1086 1.610 . S
N1085 S1084 1.613 . S
N1085 C1088 1.350 . S
N1086 S1084 1.610 . S
N1086 C1087 1.351 . S
C1087 C1081 1.428 . S
C1087 N1086 1.351 . S
C1087 C1088 1.434 . S
C1088 C1079 1.429 . S
C1088 N1085 1.350 . S
C1088 C1087 1.434 . S
C595 N14 1.270 . S
C597 N5 1.268 . S
C606 N47 1.270 . S
C608 N38 1.267 . S
C617 N71 1.267 . S
C619 N80 1.270 . S
C628 N113 1.270 . S
C630 N104 1.267 . S
C639 N146 1.269 . S
C641 N137 1.269 . S
C650 N170 1.266 . S
C652 N179 1.270 . S
C661 N203 1.267 . S
C663 N212 1.270 . S
C672 N236 1.267 . S
C674 N245 1.270 . S
C683 N278 1.270 . S
C685 N269 1.267 . S
C694 N311 1.269 . S
C696 N302 1.268 . S
C705 N344 1.270 . S
C707 N335 1.267 . S
C716 N368 1.269 . S
C718 N377 1.269 . S
C727 N401 1.268 . S
C729 N410 1.270 . S
C738 N434 1.267 . S
C740 N443 1.270 . S
C749 N467 1.267 . S
C751 N476 1.270 . S
C760 N509 1.270 . S
C762 N500 1.267 . S
C771 N542 1.270 . S
C773 N533 1.267 . S
C782 N566 1.267 . S
C784 N575 1.270 . S
C793 C569 1.584 . S
C795 C8 1.593 . S
C804 C41 1.594 . S
C806 C503 1.585 . S
C815 C536 1.593 . S
C817 C74 1.586 . S
C826 C239 1.592 . S
C828 C107 1.587 . S
C837 C140 1.592 . S
C839 C272 1.587 . S
C848 C173 1.585 . S
C850 C206 1.592 . S
C859 C305 1.587 . S
C861 C437 1.591 . S
C870 C470 1.594 . S
C872 C338 1.585 . S
C881 C371 1.586 . S
C883 C404 1.592 . S
C892 C28 1.566 . S
C894 C127 1.566 . S
C903 C61 1.565 . S
C905 C160 1.566 . S
C914 C193 1.566 . S
C916 C94 1.566 . S
C925 C182 1.584 . S
C927 C50 1.584 . S
C936 C116 1.587 . S
C938 C83 1.582 . S
C947 C149 1.585 . S
C949 C17 1.585 . S
C958 C325 1.565 . S
C960 C226 1.566 . S
C969 C358 1.565 . S
C971 C259 1.566 . S
C980 C292 1.566 . S
C982 C391 1.566 . S
C991 C380 1.582 . S
C993 C248 1.586 . S
C1002 C281 1.586 . S
C1004 C314 1.584 . S
C1013 C215 1.582 . S
C1015 C347 1.587 . S
C1024 C523 1.565 . S
C1026 C424 1.566 . S
C1035 C556 1.566 . S
C1037 C457 1.566 . S
C1046 C589 1.566 . S
C1048 C490 1.566 . S
C1057 C446 1.583 . S
C1059 C578 1.586 . S
C1068 C479 1.582 . S
C1070 C512 1.587 . S
C1079 C545 1.582 . S
C1081 C413 1.587 . S
