# Generated by pormake.
# Topology ukl, (4)-cn, num edge types: 1
# Building blocks:
#     Node 0, Type 0, BuildingBlock: KOZSID_clean_sbu_0, # of connection points: 4
#     Node 1, Type 0, BuildingBlock: KOZSID_clean_sbu_0, # of connection points: 4
#     Node 2, Type 0, BuildingBlock: KOZSID_clean_sbu_0, # of connection points: 4
#     Node 3, Type 0, BuildingBlock: KOZSID_clean_sbu_0, # of connection points: 4
#     Node 4, Type 0, BuildingBlock: KOZSID_clean_sbu_0, # of connection points: 4
#     Node 5, Type 0, BuildingBlock: KOZSID_clean_sbu_0, # of connection points: 4
#     Node 6, Type 0, BuildingBlock: KOZSID_clean_sbu_0, # of connection points: 4
#     Node 7, Type 0, BuildingBlock: KOZSID_clean_sbu_0, # of connection points: 4
#     Node 8, Type 0, BuildingBlock: KOZSID_clean_sbu_0, # of connection points: 4
#     Node 9, Type 0, BuildingBlock: KOZSID_clean_sbu_0, # of connection points: 4
#     Node 10, Type 0, BuildingBlock: KOZSID_clean_sbu_0, # of connection points: 4
#     Node 11, Type 0, BuildingBlock: KOZSID_clean_sbu_0, # of connection points: 4
#     Node 12, Type 0, BuildingBlock: KOZSID_clean_sbu_0, # of connection points: 4
#     Node 13, Type 0, BuildingBlock: KOZSID_clean_sbu_0, # of connection points: 4
#     Node 14, Type 0, BuildingBlock: KOZSID_clean_sbu_0, # of connection points: 4
#     Node 15, Type 0, BuildingBlock: KOZSID_clean_sbu_0, # of connection points: 4
#     Edge 16, Type (0, 0), BuildingBlock: CIFDUS_clean_linker_0, # of connection points: 2
#     Edge 17, Type (0, 0), BuildingBlock: CIFDUS_clean_linker_0, # of connection points: 2
#     Edge 18, Type (0, 0), BuildingBlock: CIFDUS_clean_linker_0, # of connection points: 2
#     Edge 19, Type (0, 0), BuildingBlock: CIFDUS_clean_linker_0, # of connection points: 2
#     Edge 20, Type (0, 0), BuildingBlock: CIFDUS_clean_linker_0, # of connection points: 2
#     Edge 21, Type (0, 0), BuildingBlock: CIFDUS_clean_linker_0, # of connection points: 2
#     Edge 22, Type (0, 0), BuildingBlock: CIFDUS_clean_linker_0, # of connection points: 2
#     Edge 23, Type (0, 0), BuildingBlock: CIFDUS_clean_linker_0, # of connection points: 2
#     Edge 24, Type (0, 0), BuildingBlock: CIFDUS_clean_linker_0, # of connection points: 2
#     Edge 25, Type (0, 0), BuildingBlock: CIFDUS_clean_linker_0, # of connection points: 2
#     Edge 26, Type (0, 0), BuildingBlock: CIFDUS_clean_linker_0, # of connection points: 2
#     Edge 27, Type (0, 0), BuildingBlock: CIFDUS_clean_linker_0, # of connection points: 2
#     Edge 28, Type (0, 0), BuildingBlock: CIFDUS_clean_linker_0, # of connection points: 2
#     Edge 29, Type (0, 0), BuildingBlock: CIFDUS_clean_linker_0, # of connection points: 2
#     Edge 30, Type (0, 0), BuildingBlock: CIFDUS_clean_linker_0, # of connection points: 2
#     Edge 31, Type (0, 0), BuildingBlock: CIFDUS_clean_linker_0, # of connection points: 2
#     Edge 32, Type (0, 0), BuildingBlock: CIFDUS_clean_linker_0, # of connection points: 2
#     Edge 33, Type (0, 0), BuildingBlock: CIFDUS_clean_linker_0, # of connection points: 2
#     Edge 34, Type (0, 0), BuildingBlock: CIFDUS_clean_linker_0, # of connection points: 2
#     Edge 35, Type (0, 0), BuildingBlock: CIFDUS_clean_linker_0, # of connection points: 2
#     Edge 36, Type (0, 0), BuildingBlock: CIFDUS_clean_linker_0, # of connection points: 2
#     Edge 37, Type (0, 0), BuildingBlock: CIFDUS_clean_linker_0, # of connection points: 2
#     Edge 38, Type (0, 0), BuildingBlock: CIFDUS_clean_linker_0, # of connection points: 2
#     Edge 39, Type (0, 0), BuildingBlock: CIFDUS_clean_linker_0, # of connection points: 2
#     Edge 40, Type (0, 0), BuildingBlock: CIFDUS_clean_linker_0, # of connection points: 2
#     Edge 41, Type (0, 0), BuildingBlock: CIFDUS_clean_linker_0, # of connection points: 2
#     Edge 42, Type (0, 0), BuildingBlock: CIFDUS_clean_linker_0, # of connection points: 2
#     Edge 43, Type (0, 0), BuildingBlock: CIFDUS_clean_linker_0, # of connection points: 2
#     Edge 44, Type (0, 0), BuildingBlock: CIFDUS_clean_linker_0, # of connection points: 2
#     Edge 45, Type (0, 0), BuildingBlock: CIFDUS_clean_linker_0, # of connection points: 2
#     Edge 46, Type (0, 0), BuildingBlock: CIFDUS_clean_linker_0, # of connection points: 2
#     Edge 47, Type (0, 0), BuildingBlock: CIFDUS_clean_linker_0, # of connection points: 2
# Relax obj value: 0.093
# Max RMSD: 0.117
# Mean RMSD: 0.086
data_MOF--net-ukl--node1-KOZSID_clean_sbu_0--edge1-CIFDUS_clean_linker_0
_symmetry_space_group_name_H-M    P1
_symmetry_Int_Tables_number       1
_symmetry_cell_setting            triclinic
loop_
_symmetry_equiv_pos_as_xyz
'x, y, z'
_cell_length_a     33.08507
_cell_length_b     34.350945
_cell_length_c     25.497546
_cell_angle_alpha  89.923181
_cell_angle_beta   89.906916
_cell_angle_gamma 95.230239
loop_
_atom_site_label
_atom_site_type_symbol
_atom_site_fract_x
_atom_site_fract_y
_atom_site_fract_z
_atom_type_partial_charge
C0 C 0.38005 0.17806 0.98979 0.0
C1 C 0.38246 0.189 0.93729 0.0
C2 C 0.35952 0.16071 0.90978 0.0
C3 C 0.34449 0.13416 0.94681 0.0
N4 N 0.35604 0.14441 0.99592 0.0
Co5 Co 0.34073 0.11485 0.06077 0.0
N6 N 0.29503 0.08448 0.02496 0.0
C7 C 0.29032 0.07977 0.97292 0.0
C8 C 0.254 0.05933 0.96029 0.0
C9 C 0.23469 0.05088 0.00709 0.0
C10 C 0.26037 0.06675 0.04592 0.0
N11 N 0.32397 0.08487 0.12482 0.0
C12 C 0.28677 0.06734 0.13772 0.0
C13 C 0.28675 0.05246 0.1882 0.0
C14 C 0.32526 0.06153 0.20742 0.0
C15 C 0.34665 0.08113 0.16782 0.0
N16 N 0.38568 0.14493 0.09759 0.0
C17 C 0.40198 0.13512 0.14358 0.0
C18 C 0.43293 0.16175 0.15956 0.0
C19 C 0.43651 0.18964 0.12085 0.0
C20 C 0.4074 0.17843 0.08315 0.0
N21 N 0.30509 0.15576 0.08086 0.0
C22 C 0.2737 0.22812 0.10308 0.0
C23 C 0.2916 0.2067 0.1424 0.0
C24 C 0.30691 0.17087 0.13061 0.0
C25 C 0.26909 0.21057 0.05336 0.0
C26 C 0.28454 0.1744 0.04335 0.0
N27 N 0.37985 0.0759 0.04063 0.0
C28 C 0.4487 0.067 0.01207 0.0
C29 C 0.44341 0.02648 0.01932 0.0
C30 C 0.40407 1.01098 0.03544 0.0
C31 C 0.37286 0.0361 0.04603 0.0
C32 C 0.41735 0.09056 0.02271 0.0
H33 H 0.34364 0.0235 0.05992 0.0
H34 H 0.42447 0.12128 0.01708 0.0
H35 H 0.32235 0.15661 0.16132 0.0
H36 H 0.28225 0.16261 0.00432 0.0
C37 C 0.3149 0.10296 0.93813 0.0
C38 C 0.40518 0.19714 0.03135 0.0
C39 C 0.25153 0.06406 0.10233 0.0
C40 C 0.38342 0.10438 0.17391 0.0
H41 H 0.39973 0.21431 0.92057 0.0
H42 H 0.35368 0.16017 0.86801 0.0
H43 H 0.24143 0.054 0.92175 0.0
H44 H 0.20476 0.03576 0.01195 0.0
H45 H 0.26147 0.03733 0.20904 0.0
H46 H 0.33597 0.05643 0.24647 0.0
H47 H 0.45014 0.1615 0.19561 0.0
H48 H 0.45863 0.21487 0.1199 0.0
H49 H 0.29483 0.21794 0.18197 0.0
H50 H 0.25555 0.22558 0.02149 0.0
H51 H 0.47721 0.08106 -0.00223 0.0
H52 H 0.39767 0.97985 0.04159 0.0
C53 C 0.7389 0.66519 0.32899 0.0
C54 C 0.75532 0.6857 0.37174 0.0
C55 C 0.73745 0.66792 0.41537 0.0
C56 C 0.71177 0.63724 0.39745 0.0
N57 N 0.71241 0.63467 0.34494 0.0
Co58 Co 0.67395 0.60084 0.30178 0.0
N59 N 0.63257 0.59482 0.35875 0.0
C60 C 0.64037 0.60201 0.4098 0.0
C61 C 0.60687 0.59413 0.4412 0.0
C62 C 0.57622 0.5805 0.40794 0.0
C63 C 0.59273 0.58063 0.35779 0.0
N64 N 0.6358 0.56749 0.25768 0.0
C65 C 0.59585 0.55511 0.26476 0.0
C66 C 0.58149 0.53222 0.22284 0.0
C67 C 0.61361 0.53005 0.18926 0.0
C68 C 0.64596 0.55097 0.21233 0.0
N69 N 0.71535 0.60928 0.24537 0.0
C70 C 0.71741 0.58734 0.2021 0.0
C71 C 0.74573 0.60356 0.1669 0.0
C72 C 0.76159 0.6382 0.18906 0.0
C73 C 0.74226 0.64132 0.23695 0.0
N74 N 0.69706 0.55205 0.32629 0.0
C75 C 0.72163 0.47611 0.34654 0.0
C76 C 0.74967 0.50675 0.32871 0.0
C77 C 0.73679 0.54458 0.31905 0.0
C78 C 0.68218 0.48527 0.35669 0.0
C79 C 0.67057 0.52239 0.34572 0.0
N80 N 0.65014 0.64707 0.27671 0.0
C81 C 0.62517 0.68336 0.20503 0.0
C82 C 0.6152 0.71234 0.2397 0.0
C83 C 0.624 0.70869 0.29308 0.0
C84 C 0.64124 0.67565 0.31087 0.0
C85 C 0.64267 0.65102 0.22432 0.0
H86 H 0.64683 0.67294 0.35226 0.0
H87 H 0.64969 0.62906 0.19667 0.0
H88 H 0.75859 0.56723 0.30407 0.0
H89 H 0.63893 0.52554 0.35016 0.0
C90 C 0.67806 0.62035 0.42549 0.0
C91 C 0.74872 0.6751 0.27361 0.0
C92 C 0.57164 0.56129 0.31236 0.0
C93 C 0.68439 0.56039 0.18941 0.0
H94 H 0.77615 0.71189 0.37123 0.0
H95 H 0.73876 0.67899 0.45479 0.0
H96 H 0.60481 0.59817 0.48319 0.0
H97 H 0.54559 0.57027 0.41955 0.0
H98 H 0.55105 0.51849 0.21716 0.0
H99 H 0.61311 0.51653 0.15142 0.0
H100 H 0.75124 0.59354 0.12752 0.0
H101 H 0.78329 0.65943 0.17072 0.0
H102 H 0.78057 0.50109 0.31969 0.0
H103 H 0.65927 0.46282 0.36995 0.0
H104 H 0.61856 0.68522 0.16354 0.0
H105 H 0.61586 0.73027 0.32122 0.0
C106 C 0.13361 0.86129 0.47977 0.0
C107 C 0.12755 0.85479 0.42649 0.0
C108 C 0.15488 0.88032 0.40087 0.0
C109 C 0.1757 0.90097 0.43983 0.0
N110 N 0.1635 0.88993 0.48866 0.0
Co111 Co 0.18438 0.91322 0.55623 0.0
N112 N 0.22888 0.94629 0.51949 0.0
C113 C 0.23556 0.94851 0.46728 0.0
C114 C 0.2718 0.96868 0.45409 0.0
C115 C 0.28982 0.97942 0.50053 0.0
C116 C 0.26339 0.96512 0.5397 0.0
N117 N 0.20466 0.9386 0.62309 0.0
C118 C 0.24017 0.96035 0.6333 0.0
C119 C 0.24281 0.97159 0.68545 0.0
C120 C 0.20831 0.95514 0.70927 0.0
C121 C 0.18668 0.93498 0.6706 0.0
N122 N 0.14268 0.87846 0.59432 0.0
C123 C 0.13644 0.87695 0.64672 0.0
C124 C 0.10776 0.84784 0.66195 0.0
C125 C 0.09523 0.82957 0.61649 0.0
C126 C 0.11678 0.84905 0.57592 0.0
N127 N 0.22157 0.87063 0.56486 0.0
C128 C 0.255 0.79774 0.57766 0.0
C129 C 0.24846 0.82159 0.62083 0.0
C130 C 0.23144 0.8574 0.61374 0.0
C131 C 0.24703 0.81238 0.52791 0.0
C132 C 0.23177 0.84907 0.52234 0.0
N133 N 0.14376 0.95378 0.54682 0.0
C134 C 0.07569 0.97136 0.56793 0.0
C135 C 0.07215 0.99141 0.52064 0.0
C136 C 0.10698 0.9952 0.48858 0.0
C137 C 0.14212 0.97635 0.50226 0.0
C138 C 0.11124 0.95382 0.58043 0.0
H139 H 0.16701 0.97929 0.47525 0.0
H140 H 0.11097 0.9396 0.61749 0.0
H141 H 0.22481 0.87306 0.64857 0.0
H142 H 0.22693 0.85882 0.48314 0.0
C143 C 0.20964 0.92754 0.43225 0.0
C144 C 0.11053 0.83966 0.52055 0.0
C145 C 0.27316 0.96836 0.59558 0.0
C146 C 0.15625 0.90485 0.67991 0.0
H147 H 0.10596 0.8335 0.40811 0.0
H148 H 0.15974 0.88279 0.35896 0.0
H149 H 0.28492 0.97279 0.41559 0.0
H150 H 0.31974 0.99457 0.50497 0.0
H151 H 0.26795 0.98816 0.70466 0.0
H152 H 0.20138 0.95495 0.75061 0.0
H153 H 0.09696 0.84097 0.70128 0.0
H154 H 0.07245 0.80498 0.61353 0.0
H155 H 0.25442 0.8117 0.6602 0.0
H156 H 0.25227 0.79534 0.49325 0.0
H157 H 0.05062 0.96869 0.5955 0.0
H158 H 0.10654 1.01099 0.45184 0.0
C159 C 0.78354 0.36154 0.82769 0.0
C160 C 0.7695 0.33984 0.87095 0.0
C161 C 0.79023 0.35581 0.91356 0.0
C162 C 0.81571 0.38634 0.89426 0.0
N163 N 0.81176 0.3909 0.8422 0.0
Co164 Co 0.84672 0.42724 0.79704 0.0
N165 N 0.8911 0.43239 0.84998 0.0
C166 C 0.88695 0.42252 0.90099 0.0
C167 C 0.92229 0.42981 0.92883 0.0
C168 C 0.95029 0.44581 0.89334 0.0
C169 C 0.93045 0.44753 0.84551 0.0
N170 N 0.88095 0.46365 0.75168 0.0
C171 C 0.92049 0.478 0.7563 0.0
C172 C 0.93129 0.50402 0.71587 0.0
C173 C 0.89723 0.50617 0.68569 0.0
C174 C 0.86747 0.48182 0.70919 0.0
N175 N 0.80293 0.4192 0.74405 0.0
C176 C 0.79774 0.44209 0.70233 0.0
C177 C 0.76774 0.42612 0.66937 0.0
C178 C 0.75395 0.3907 0.69144 0.0
C179 C 0.77635 0.38696 0.73668 0.0
N180 N 0.82308 0.47438 0.82684 0.0
C181 C 0.7992 0.55003 0.85136 0.0
C182 C 0.77154 0.52094 0.8292 0.0
C183 C 0.78397 0.48324 0.81766 0.0
C184 C 0.83737 0.53894 0.8648 0.0
C185 C 0.84887 0.50231 0.85117 0.0
N186 N 0.87138 0.38306 0.76649 0.0
C187 C 0.90236 0.35496 0.69175 0.0
C188 C 0.91897 0.32819 0.72451 0.0
C189 C 0.9091 0.32733 0.77785 0.0
C190 C 0.88501 0.35494 0.79808 0.0
C191 C 0.87839 0.38212 0.71356 0.0
H192 H 0.87925 0.35479 0.83966 0.0
H193 H 0.86728 0.40354 0.68781 0.0
H194 H 0.76224 0.46198 0.79975 0.0
H195 H 0.88011 0.49865 0.8579 0.0
C196 C 0.85083 0.40262 0.91963 0.0
C197 C 0.7712 0.35316 0.77293 0.0
C198 C 0.94782 0.46978 0.79994 0.0
C199 C 0.82841 0.47139 0.68888 0.0
H200 H 0.74811 0.31412 0.87163 0.0
H201 H 0.78982 0.34401 0.9529 0.0
H202 H 0.92726 0.42391 0.96992 0.0
H203 H 0.98134 0.45642 0.90214 0.0
H204 H 0.96061 0.51991 0.70908 0.0
H205 H 0.89454 0.5226 0.65008 0.0
H206 H 0.75918 0.43728 0.63165 0.0
H207 H 0.73092 0.36959 0.67553 0.0
H208 H 0.74139 0.52778 0.81823 0.0
H209 H 0.85981 0.55967 0.88282 0.0
H210 H 0.90973 0.35635 0.65033 0.0
H211 H 0.92179 0.30685 0.80415 0.0
C212 C 0.69397 0.92892 0.98745 0.0
C213 C 0.7021 0.94483 0.03674 0.0
C214 C 0.73806 0.93153 0.05323 0.0
C215 C 0.74993 0.90796 0.01355 0.0
N216 N 0.72396 0.90625 0.97318 0.0
Co217 Co 0.72508 0.86973 0.9133 0.0
N218 N 0.76007 0.83451 0.94949 0.0
C219 C 0.78305 0.84429 0.99147 0.0
C220 C 0.80299 0.81352 0.00968 0.0
C221 C 0.7916 0.78266 0.97676 0.0
C222 C 0.76513 0.79631 0.9404 0.0
N223 N 0.72416 0.83315 0.85329 0.0
C224 C 0.73139 0.79489 0.8521 0.0
C225 C 0.7253 0.77967 0.8021 0.0
C226 C 0.71379 0.80957 0.77126 0.0
C227 C 0.71393 0.84148 0.8038 0.0
N228 N 0.68981 0.90455 0.87702 0.0
C229 C 0.68324 0.90575 0.82497 0.0
C230 C 0.65197 0.92789 0.81266 0.0
C231 C 0.63811 0.9407 0.85988 0.0
C232 C 0.66184 0.92642 0.89845 0.0
N233 N 0.77462 0.89969 0.8849 0.0
C234 C 0.85191 0.93988 0.86401 0.0
C235 C 0.84476 0.89923 0.85762 0.0
C236 C 0.80623 0.87994 0.8676 0.0
C237 C 0.81845 0.96025 0.87792 0.0
C238 C 0.78022 0.93967 0.88836 0.0
N239 N 0.67767 0.84058 0.94363 0.0
C240 C 0.60579 0.82559 0.94259 0.0
C241 C 0.60618 0.82011 -0.00299 0.0
C242 C 0.64281 0.82118 0.02344 0.0
C243 C 0.6783 0.83147 0.99596 0.0
C244 C 0.64225 0.83511 0.91625 0.0
H245 H 0.70579 0.83454 0.01831 0.0
H246 H 0.6416 0.84049 0.87458 0.0
H247 H 0.80268 0.84855 0.86377 0.0
H248 H 0.75564 0.95594 0.90147 0.0
C249 C 0.77664 0.87869 0.01877 0.0
C250 C 0.65742 0.93436 0.95501 0.0
C251 C 0.74596 0.77309 0.89695 0.0
C252 C 0.69637 0.87627 0.79268 0.0
H253 H 0.68327 0.96247 0.05973 0.0
H254 H 0.75167 0.93555 0.09165 0.0
H255 H 0.82152 0.81273 0.04452 0.0
H256 H 0.80103 0.75339 0.97971 0.0
H257 H 0.72832 0.75001 0.78944 0.0
H258 H 0.70393 0.80747 0.73088 0.0
H259 H 0.63793 0.93078 0.77471 0.0
H260 H 0.61205 0.9567 0.86615 0.0
H261 H 0.86922 0.88211 0.84614 0.0
H262 H 0.82221 0.99163 0.8833 0.0
H263 H 0.57753 0.82309 0.92091 0.0
H264 H 0.64385 0.81553 0.06523 0.0
C265 C 0.35709 0.43079 0.74062 0.0
C266 C 0.33898 0.43138 0.7896 0.0
C267 C 0.35357 0.46608 0.81304 0.0
C268 C 0.37966 0.48499 0.77714 0.0
N269 N 0.38169 0.46436 0.73269 0.0
Co270 Co 0.41935 0.47788 0.6739 0.0
N271 N 0.45725 0.5116 0.71761 0.0
C272 C 0.44795 0.52717 0.76383 0.0
C273 C 0.48124 0.5475 0.78654 0.0
C274 C 0.51301 0.54437 0.75211 0.0
C275 C 0.49741 0.52225 0.71016 0.0
N276 N 0.45688 0.49009 0.61448 0.0
C277 C 0.49679 0.50282 0.61497 0.0
C278 C 0.51171 0.50747 0.56424 0.0
C279 C 0.47975 0.49689 0.53118 0.0
C280 C 0.44716 0.48662 0.56351 0.0
N281 N 0.38174 0.44315 0.63095 0.0
C282 C 0.38116 0.44248 0.57823 0.0
C283 C 0.35926 0.40976 0.55955 0.0
C284 C 0.34394 0.38935 0.60279 0.0
C285 C 0.35815 0.41037 0.64627 0.0
N286 N 0.39075 0.52449 0.65579 0.0
C287 C 0.35603 0.59595 0.63774 0.0
C288 C 0.39776 0.59306 0.63258 0.0
C289 C 0.41427 0.55788 0.64219 0.0
C290 C 0.33155 0.5613 0.65017 0.0
C291 C 0.34952 0.52582 0.65898 0.0
N292 N 0.44906 0.43389 0.69221 0.0
C293 C 0.48762 0.38176 0.66575 0.0
C294 C 0.49838 0.37596 0.71794 0.0
C295 C 0.48372 0.39906 0.75722 0.0
C296 C 0.45931 0.42818 0.74342 0.0
C297 C 0.4625 0.4107 0.65373 0.0
H298 H 0.44908 0.4463 0.77421 0.0
H299 H 0.45427 0.41459 0.61333 0.0
H300 H 0.44676 0.55833 0.63977 0.0
H301 H 0.33033 0.49981 0.66953 0.0
C302 C 0.41089 0.51448 0.78872 0.0
C303 C 0.34995 0.39862 0.70175 0.0
C304 C 0.52029 0.51265 0.66276 0.0
C305 C 0.41101 0.46486 0.54901 0.0
H306 H 0.3184 0.40866 0.80701 0.0
H307 H 0.34836 0.47478 0.85309 0.0
H308 H 0.48296 0.56103 0.82486 0.0
H309 H 0.54404 0.55653 0.75757 0.0
H310 H 0.54244 0.51719 0.55247 0.0
H311 H 0.48085 0.49472 0.48885 0.0
H312 H 0.35899 0.3998 0.51941 0.0
H313 H 0.32641 0.36128 0.6022 0.0
H314 H 0.41818 0.61827 0.62186 0.0
H315 H 0.29906 0.56181 0.65465 0.0
H316 H 0.49763 0.36334 0.63472 0.0
H317 H 0.49101 0.39454 0.79807 0.0
C318 C 0.83219 0.09513 0.46187 0.0
C319 C 0.82329 0.07418 0.50759 0.0
C320 C 0.78527 0.08308 0.52359 0.0
C321 C 0.7729 0.10903 0.487 0.0
N322 N 0.80074 0.11649 0.44918 0.0
Co323 Co 0.7981 0.1565 0.39357 0.0
N324 N 0.75856 0.18552 0.43184 0.0
C325 C 0.73462 0.17078 0.47089 0.0
C326 C 0.71146 0.19846 0.49155 0.0
C327 C 0.72175 0.23229 0.46349 0.0
C328 C 0.75086 0.22359 0.42734 0.0
N329 N 0.79723 0.19665 0.33781 0.0
C330 C 0.78684 0.23388 0.34075 0.0
C331 C 0.79425 0.25323 0.29339 0.0
C332 C 0.80958 0.227 0.25994 0.0
C333 C 0.81039 0.19305 0.28828 0.0
N334 N 0.83806 0.12789 0.35517 0.0
C335 C 0.84678 0.13124 0.30369 0.0
C336 C 0.88068 0.1131 0.29048 0.0
C337 C 0.8938 0.0977 0.33632 0.0
C338 C 0.86709 0.10669 0.37513 0.0
N339 N 0.7524 0.12456 0.35973 0.0
C340 C 0.68012 0.07843 0.33084 0.0
C341 C 0.68286 0.11951 0.32869 0.0
C342 C 0.71897 0.14183 0.34296 0.0
C343 C 0.71561 0.06123 0.34519 0.0
C344 C 0.7512 0.08462 0.35914 0.0
N345 N 0.84164 0.18746 0.42946 0.0
C346 C 0.91079 0.21423 0.43258 0.0
C347 C 0.90851 0.2156 0.48741 0.0
C348 C 0.87184 0.20589 0.5125 0.0
C349 C 0.83861 0.19213 0.48269 0.0
C350 C 0.87664 0.20025 0.40404 0.0
H351 H 0.81122 0.18295 0.50358 0.0
H352 H 0.87906 0.19766 0.36202 0.0
H353 H 0.71921 0.17327 0.34245 0.0
H354 H 0.7773 0.07031 0.37169 0.0
C355 C 0.74242 0.13477 0.494 0.0
C356 C 0.87021 0.09488 0.43053 0.0
C357 C 0.76927 0.25109 0.38746 0.0
C358 C 0.83196 0.16136 0.27434 0.0
H359 H 0.84257 0.05554 0.52821 0.0
H360 H 0.77008 0.07415 0.55987 0.0
H361 H 0.69117 0.1954 0.52484 0.0
H362 H 0.70963 0.26019 0.46929 0.0
H363 H 0.79006 0.28333 0.28416 0.0
H364 H 0.82135 0.23295 0.22085 0.0
H365 H 0.89699 0.11508 0.25374 0.0
H366 H 0.9214 0.08394 0.34161 0.0
H367 H 0.6571 0.1346 0.31657 0.0
H368 H 0.71565 0.02978 0.34774 0.0
H369 H 0.93914 0.22228 0.41232 0.0
H370 H 0.86935 0.20728 0.55484 0.0
C371 C 0.17197 0.59294 0.25427 0.0
C372 C 0.19029 0.59244 0.30313 0.0
C373 C 0.17505 0.55838 0.32758 0.0
C374 C 0.14808 0.53978 0.29274 0.0
N375 N 0.14612 0.5599 0.24775 0.0
Co376 Co 0.10668 0.54683 0.19052 0.0
N377 N 0.06902 0.51314 0.2354 0.0
C378 C 0.07822 0.49954 0.28289 0.0
C379 C 0.04471 0.48132 0.30785 0.0
C380 C 0.01297 0.48296 0.27335 0.0
C381 C 0.02861 0.50236 0.22901 0.0
N382 N 0.06783 0.53497 0.13232 0.0
C383 C 0.02825 0.52073 0.13318 0.0
C384 C 0.01352 0.5151 0.08247 0.0
C385 C 0.04496 0.52664 0.04912 0.0
C386 C 0.07714 0.53831 0.08109 0.0
N387 N 0.14339 0.58163 0.14622 0.0
C388 C 0.1432 0.58228 0.09356 0.0
C389 C 0.16526 0.61462 0.07396 0.0
C390 C 0.18185 0.63476 0.11652 0.0
C391 C 0.16763 0.61412 0.16048 0.0
N392 N 0.13499 0.50059 0.17058 0.0
C393 C 0.17158 0.43205 0.14201 0.0
C394 C 0.1953 0.4671 0.15418 0.0
C395 C 0.17642 0.50106 0.16815 0.0
C396 C 0.12932 0.43247 0.14564 0.0
C397 C 0.11191 0.46647 0.1597 0.0
N398 N 0.0782 0.59095 0.21101 0.0
C399 C 0.04656 0.64829 0.18867 0.0
C400 C 0.03875 0.65461 0.2419 0.0
C401 C 0.05071 0.62858 0.27929 0.0
C402 C 0.0703 0.59681 0.26296 0.0
C403 C 0.06623 0.61609 0.17401 0.0
H404 H 0.0793 0.57731 0.29272 0.0
H405 H 0.07228 0.61173 0.13299 0.0
H406 H 0.19521 0.52767 0.17684 0.0
H407 H 0.0793 0.46483 0.16185 0.0
C408 C 0.11581 0.512 0.30636 0.0
C409 C 0.17827 0.62536 0.21514 0.0
C410 C 1.00496 0.50936 0.18091 0.0
C411 C 0.113 0.55993 0.06542 0.0
H412 H 0.21085 0.61504 0.32054 0.0
H413 H 0.18004 0.55024 0.36793 0.0
H414 H 0.04285 0.47027 0.34763 0.0
H415 H 0.98179 0.47198 0.28069 0.0
H416 H 0.98335 0.50369 0.07069 0.0
H417 H 0.04387 0.52799 0.00673 0.0
H418 H 0.16477 0.62446 0.03384 0.0
H419 H 0.20057 0.66227 0.11551 0.0
H420 H 0.22808 0.46858 0.15202 0.0
H421 H 0.1093 0.4063 0.13851 0.0
H422 H 0.03829 0.6685 0.15872 0.0
H423 H 0.04503 0.63275 0.32068 0.0
C424 C 0.89465 0.67397 0.4933 0.0
C425 C 0.90051 0.68233 0.44035 0.0
C426 C 0.87631 0.65489 0.41335 0.0
C427 C 0.85716 0.63148 0.45117 0.0
N428 N 0.86778 0.6425 0.50047 0.0
Co429 Co 0.84767 0.61694 0.56671 0.0
N430 N 0.80343 0.58481 0.5288 0.0
C431 C 0.79781 0.58234 0.47649 0.0
C432 C 0.76153 0.56243 0.46271 0.0
C433 C 0.74232 0.55265 0.50902 0.0
C434 C 0.76823 0.56706 0.54846 0.0
N435 N 0.82763 0.58971 0.63196 0.0
C436 C 0.79107 0.56976 0.64175 0.0
C437 C 0.78847 0.55617 0.6928 0.0
C438 C 0.8245 0.56899 0.71616 0.0
C439 C 0.84668 0.59008 0.67859 0.0
N440 N 0.88893 0.65087 0.60613 0.0
C441 C 0.89705 0.64907 0.65799 0.0
C442 C 0.92519 0.67822 0.67452 0.0
C443 C 0.93485 0.7002 0.63066 0.0
C444 C 0.91209 0.68293 0.58968 0.0
N445 N 0.81014 0.65851 0.57838 0.0
C446 C 0.77123 0.72827 0.593 0.0
C447 C 0.78498 0.70753 0.63581 0.0
C448 C 0.80401 0.67292 0.62776 0.0
C449 C 0.77639 0.71252 0.54299 0.0
C450 C 0.7952 0.67771 0.53662 0.0
N451 N 0.88884 0.57679 0.55453 0.0
C452 C 0.95783 0.55917 0.57036 0.0
C453 C 0.95854 0.53715 0.52444 0.0
C454 C 0.92197 0.53246 0.49604 0.0
C455 C 0.88781 0.55218 0.51171 0.0
C456 C 0.92349 0.57793 0.58457 0.0
H457 H 0.86136 0.54773 0.48767 0.0
H458 H 0.92652 0.59331 0.62051 0.0
H459 H 0.8148 0.6588 0.6619 0.0
H460 H 0.79888 0.66725 0.49743 0.0
C461 C 0.82433 0.60372 0.44219 0.0
C462 C 0.91421 0.69704 0.53555 0.0
C463 C 0.75779 0.56494 0.60413 0.0
C464 C 0.87829 0.61895 0.68927 0.0
H465 H 0.91953 0.70631 0.42309 0.0
H466 H 0.87167 0.65345 0.37135 0.0
H467 H 0.74923 0.55795 0.42382 0.0
H468 H 0.71215 0.53793 0.51332 0.0
H469 H 0.76287 0.53971 0.71134 0.0
H470 H 0.83277 0.56533 0.75648 0.0
H471 H 0.93712 0.68303 0.71371 0.0
H472 H 0.95635 0.72588 0.629 0.0
H473 H 0.78123 0.71799 0.67542 0.0
H474 H 0.76693 0.72776 0.50859 0.0
H475 H 0.98429 0.56254 0.59551 0.0
H476 H 0.92013 0.515 0.46066 0.0
C477 C 0.23683 0.16751 0.82336 0.0
C478 C 0.25232 0.18943 0.86551 0.0
C479 C 0.23518 0.17211 0.90975 0.0
C480 C 0.21046 0.14035 0.89289 0.0
N481 N 0.21079 0.1369 0.84038 0.0
Co482 Co 0.17253 0.10129 0.79874 0.0
N483 N 0.13246 0.09408 0.85709 0.0
C484 C 0.14078 0.10203 0.90778 0.0
C485 C 0.10777 0.09375 0.93995 0.0
C486 C 0.0769 0.07924 0.9075 0.0
C487 C 0.09282 0.07928 0.85706 0.0
N488 N 0.13504 0.06588 0.7565 0.0
C489 C 0.09554 0.05241 0.76483 0.0
C490 C 0.08228 0.02616 0.72587 0.0
C491 C 0.11469 0.02308 0.6928 0.0
C492 C 0.14602 0.0473 0.71304 0.0
N493 N 0.21215 0.11069 0.74078 0.0
C494 C 0.21487 0.08776 0.69858 0.0
C495 C 0.24246 0.10413 0.66248 0.0
C496 C 0.2573 0.13969 0.68324 0.0
C497 C 0.23792 0.14324 0.73094 0.0
N498 N 0.19848 0.05406 0.8229 0.0
C499 C 0.2284 0.9806 0.84666 0.0
C500 C 0.25394 1.01213 0.82558 0.0
C501 C 0.23855 0.04858 0.8145 0.0
C502 C 0.18826 0.98792 0.85717 0.0
C503 C 0.17396 0.02362 0.84399 0.0
N504 N 0.14581 0.14603 0.77396 0.0
C505 C 0.11559 0.17973 0.70344 0.0
C506 C 0.10573 0.20882 0.73815 0.0
C507 C 0.11692 0.20626 0.79093 0.0
C508 C 0.13666 0.17451 0.8081 0.0
C509 C 0.13587 0.14871 0.72208 0.0
H510 H 0.14398 0.17272 0.84912 0.0
H511 H 0.14311 0.12665 0.69453 0.0
H512 H 0.25884 0.07192 0.79817 0.0
H513 H 0.14209 0.02538 0.84948 0.0
C514 C 0.17784 0.12239 0.92203 0.0
C515 C 0.24572 0.17686 0.76743 0.0
C516 C 0.07113 0.06083 0.8115 0.0
C517 C 0.18381 0.05782 0.68865 0.0
H518 H 0.27175 0.21644 0.86475 0.0
H519 H 0.23631 0.18438 0.94863 0.0
H520 H 0.106 0.09857 0.98181 0.0
H521 H 0.04644 0.06907 0.91981 0.0
H522 H 0.05255 1.01044 0.72219 0.0
H523 H 0.1151 1.00612 0.65744 0.0
H524 H 0.24879 0.09303 0.6239 0.0
H525 H 0.27918 0.16089 0.66506 0.0
H526 H 0.28531 1.00857 0.81633 0.0
H527 H 0.16703 0.96584 0.87475 0.0
H528 H 0.10731 0.18074 0.6624 0.0
H529 H 0.10905 0.22785 0.81921 0.0
C530 C 0.62261 0.36252 0.9913 0.0
C531 C 0.61749 0.3511 0.9393 0.0
C532 C 0.65008 0.36824 0.91226 0.0
C533 C 0.6729 0.38932 0.94902 0.0
N534 N 0.65737 0.3859 -0.00193 0.0
Co535 Co 0.67814 0.41507 0.06179 0.0
N536 N 0.72556 0.44147 0.02229 0.0
C537 C 0.7332 0.43848 0.97052 0.0
C538 C 0.76993 0.45681 0.95568 0.0
C539 C 0.78767 0.47111 0.00076 0.0
C540 C 0.76044 0.46086 0.04082 0.0
N541 N 0.69916 0.44535 0.12472 0.0
C542 C 0.73588 0.46561 0.13312 0.0
C543 C 0.73823 0.48212 0.18263 0.0
C544 C 0.70224 0.47077 0.20682 0.0
C545 C 0.68026 0.44772 0.17133 0.0
N546 N 0.63265 0.38795 0.10304 0.0
C547 C 0.62535 0.39197 0.15486 0.0
C548 C 0.59213 0.36885 0.17237 0.0
C549 C 0.57701 0.3495 0.12887 0.0
C550 C 0.60172 0.36246 0.08703 0.0
N551 N 0.7117 0.3713 0.08054 0.0
C552 C 0.74333 0.29887 0.10472 0.0
C553 C 0.72921 0.32277 0.14414 0.0
C554 C 0.71407 0.3586 0.13142 0.0
C555 C 0.74391 0.31369 0.05335 0.0
C556 C 0.72841 0.34968 0.04231 0.0
N557 N 0.64124 0.45706 0.04211 0.0
C558 C 0.5765 0.48446 0.05819 0.0
C559 C 0.57289 0.49588 0.00589 0.0
C560 C 0.60597 0.49002 0.97296 0.0
C561 C 0.63975 0.47156 0.99188 0.0
C562 C 0.61022 0.46537 0.07506 0.0
H563 H 0.6635 0.46784 0.96441 0.0
H564 H 0.60949 0.45617 0.11486 0.0
H565 H 0.70325 0.3751 0.16326 0.0
H566 H 0.72889 0.35897 0.00226 0.0
C567 C 0.70794 0.41394 0.93852 0.0
C568 C 0.5927 0.35265 0.03237 0.0
C569 C 0.76981 0.46825 0.09621 0.0
C570 C 0.64705 0.42129 0.18412 0.0
H571 H 0.59227 0.33323 0.92226 0.0
H572 H 0.65575 0.36658 0.87053 0.0
H573 H 0.78344 0.45739 0.91729 0.0
H574 H 0.81788 0.4859 0.00402 0.0
H575 H 0.76367 0.49962 0.19984 0.0
H576 H 0.69366 0.47721 0.24636 0.0
H577 H 0.57933 0.36757 0.2115 0.0
H578 H 0.54988 0.32937 0.12775 0.0
H579 H 0.72937 0.31373 0.18485 0.0
H580 H 0.75476 0.29691 0.02118 0.0
H581 H 0.55228 0.48835 0.08581 0.0
H582 H 0.60554 0.49899 0.93225 0.0
C583 C 0.28956 0.85972 0.31609 0.0
C584 C 0.27391 0.83895 0.3593 0.0
C585 C 0.29248 0.85638 0.40253 0.0
C586 C 0.31785 0.8871 0.38381 0.0
N587 N 0.31642 0.89 0.33131 0.0
Co588 Co 0.35187 0.92682 0.28783 0.0
N589 N 0.39389 0.93428 0.34375 0.0
C590 C 0.38741 0.92588 0.39485 0.0
C591 C 0.42118 0.93485 0.42524 0.0
C592 C 0.45058 0.95042 0.39129 0.0
C593 C 0.4331 0.95023 0.34177 0.0
N594 N 0.38717 0.96362 0.24405 0.0
C595 C 0.42645 0.97844 0.25077 0.0
C596 C 0.43823 1.00453 0.21088 0.0
C597 C 0.40523 1.00621 0.17873 0.0
C598 C 0.37494 0.98125 0.20047 0.0
N599 N 0.31006 0.91709 0.23236 0.0
C600 C 0.30616 0.93976 0.19 0.0
C601 C 0.27781 0.92314 0.15535 0.0
C602 C 0.26352 0.88776 0.17711 0.0
C603 C 0.2837 0.88455 0.22435 0.0
N604 N 0.32536 0.97265 0.31495 0.0
C605 C 0.29401 0.04464 0.34108 0.0
C606 C 0.26875 1.0129 0.32055 0.0
C607 C 0.28489 0.97711 0.30833 0.0
C608 C 0.33442 0.03813 0.35095 0.0
C609 C 0.3495 1.00316 0.33628 0.0
N610 N 0.37897 0.88352 0.25996 0.0
C611 C 0.41151 0.85504 0.18695 0.0
C612 C 0.42819 0.82927 0.22102 0.0
C613 C 0.41784 0.8291 0.27421 0.0
C614 C 0.39286 0.85644 0.29295 0.0
C615 C 0.38679 0.88197 0.20728 0.0
H616 H 0.38639 0.85694 0.33437 0.0
H617 H 0.37569 0.90272 0.18056 0.0
H618 H 0.26481 0.95353 0.29237 0.0
H619 H 0.38156 1.00221 0.3405 0.0
C620 C 0.351 0.90534 0.41134 0.0
C621 C 0.27774 0.85065 0.26126 0.0
C622 C 0.45246 0.97101 0.29619 0.0
C623 C 0.33679 0.96968 0.17805 0.0
H624 H 0.25255 0.81314 0.35942 0.0
H625 H 0.29097 0.84556 0.44224 0.0
H626 H 0.42426 0.9302 0.46699 0.0
H627 H 0.48098 0.96189 0.40208 0.0
H628 H 0.46745 0.02103 0.20591 0.0
H629 H 0.40392 0.02335 0.14347 0.0
H630 H 0.27088 0.93377 0.11671 0.0
H631 H 0.24196 0.86636 0.15906 0.0
H632 H 0.2371 0.01592 0.31237 0.0
H633 H 0.35531 0.06061 0.36819 0.0
H634 H 0.4194 0.85586 0.14567 0.0
H635 H 0.43071 0.80936 0.30141 0.0
C636 C 0.19319 0.42697 0.46167 0.0
C637 C 0.20153 0.44732 0.50789 0.0
C638 C 0.23934 0.43825 0.52422 0.0
C639 C 0.25211 0.41281 0.4873 0.0
N640 N 0.22476 0.40578 0.44896 0.0
Co641 Co 0.22833 0.36674 0.39237 0.0
N642 N 0.26828 0.33771 0.43 0.0
C643 C 0.29153 0.35208 0.46977 0.0
C644 C 0.31576 0.32487 0.4892 0.0
C645 C 0.30701 0.29169 0.45958 0.0
C646 C 0.2778 0.30031 0.42355 0.0
N647 N 0.23008 0.32754 0.33564 0.0
C648 C 0.24133 0.29056 0.33744 0.0
C649 C 0.23483 0.27205 0.28943 0.0
C650 C 0.21874 0.29838 0.25688 0.0
C651 C 0.21703 0.33171 0.28619 0.0
N652 N 0.18811 0.39535 0.35446 0.0
C653 C 0.17984 0.39277 0.30281 0.0
C654 C 0.14579 0.4107 0.28976 0.0
C655 C 0.13199 0.42496 0.33598 0.0
C656 C 0.15864 0.41589 0.37471 0.0
N657 N 0.27379 0.39993 0.35971 0.0
C658 C 0.34576 0.44805 0.33525 0.0
C659 C 0.34434 0.40708 0.33251 0.0
C660 C 0.30824 0.38374 0.34421 0.0
C661 C 0.30929 0.46419 0.3476 0.0
C662 C 0.27389 0.43981 0.35963 0.0
N663 N 0.18496 0.33464 0.42731 0.0
C664 C 0.11563 0.30828 0.43 0.0
C665 C 0.11779 0.30599 0.48477 0.0
C666 C 0.15451 0.31489 0.50993 0.0
C667 C 0.18788 0.32895 0.48036 0.0
C668 C 0.14996 0.32241 0.40169 0.0
H669 H 0.21522 0.33768 0.50143 0.0
H670 H 0.14763 0.32569 0.35975 0.0
H671 H 0.30881 0.35239 0.34299 0.0
H672 H 0.24701 0.45328 0.37126 0.0
C673 C 0.28275 0.38733 0.49391 0.0
C674 C 0.15544 0.42754 0.43013 0.0
C675 C 0.26049 0.27312 0.38269 0.0
C676 C 0.19524 0.36336 0.2728 0.0
H677 H 0.18198 0.46566 0.52862 0.0
H678 H 0.25416 0.44675 0.56081 0.0
H679 H 0.33592 0.3277 0.52251 0.0
H680 H 0.32019 0.26423 0.46445 0.0
H681 H 0.24056 0.24249 0.27918 0.0
H682 H 0.20725 0.29288 0.21764 0.0
H683 H 0.13006 0.40948 0.2526 0.0
H684 H 0.10412 0.43817 0.3415 0.0
H685 H 0.37114 0.39296 0.32189 0.0
H686 H 0.30839 0.49556 0.35017 0.0
H687 H 0.08725 0.30081 0.40967 0.0
H688 H 0.15693 0.31278 0.5522 0.0
C689 C 0.85011 0.93155 0.25242 0.0
C690 C 0.83328 0.93016 0.30231 0.0
C691 C 0.8499 0.96284 0.32844 0.0
C692 C 0.87608 0.98249 0.29341 0.0
N693 N 0.87621 0.96446 0.2467 0.0
Co694 Co 0.9133 0.98014 0.18745 0.0
N695 N 0.95291 1.01095 0.23266 0.0
C696 C 0.94577 0.02227 0.28195 0.0
C697 C 0.98002 0.0401 0.30546 0.0
C698 C 1.01018 0.04044 0.26825 0.0
C699 C 0.99283 0.02246 0.224 0.0
N700 N 0.94978 0.99514 0.12755 0.0
C701 C 0.98954 1.00891 0.12686 0.0
C702 C 1.00276 0.01607 0.07574 0.0
C703 C 0.97007 1.00621 0.04369 0.0
C704 C 0.93868 0.99384 0.07686 0.0
N705 N 0.87446 0.94757 0.14335 0.0
C706 C 0.87326 0.94857 0.09068 0.0
C707 C 0.85184 0.91605 0.07054 0.0
C708 C 0.83732 0.89406 0.11295 0.0
C709 C 0.85158 0.91394 0.15716 0.0
N710 N 0.88453 0.02741 0.17417 0.0
C711 C 0.84694 0.09587 0.14748 0.0
C712 C 0.82368 0.06073 0.1606 0.0
C713 C 0.84303 0.02679 0.17341 0.0
C714 C 0.88928 0.09573 0.14976 0.0
C715 C 0.9072 0.06184 0.16341 0.0
N716 N 0.942 0.93454 0.19979 0.0
C717 C 0.96147 0.87436 0.1659 0.0
C718 C 0.96222 0.85952 0.21687 0.0
C719 C 0.95774 0.88438 0.25938 0.0
C720 C 0.94827 0.92228 0.24985 0.0
C721 C 0.95121 0.91203 0.15819 0.0
H722 H 0.94301 0.94052 0.28298 0.0
H723 H 0.94777 0.92171 0.11846 0.0
H724 H 0.82454 0.99993 0.18193 0.0
H725 H 0.93985 0.06361 0.16447 0.0
C726 C 0.90909 1.00919 0.30718 0.0
C727 C 0.84246 0.9007 0.2118 0.0
C728 C 0.01447 0.0179 0.17384 0.0
C729 C 0.9024 0.97236 0.06222 0.0
H730 H 0.81283 0.9071 0.31909 0.0
H731 H 0.84632 0.9693 0.36965 0.0
H732 H 0.98328 0.04998 0.34565 0.0
H733 H 0.04143 0.05205 0.27337 0.0
H734 H 0.03288 0.02706 0.06296 0.0
H735 H 0.96991 1.00602 0.00123 0.0
H736 H 0.85104 0.90749 0.02974 0.0
H737 H 0.81991 0.86587 0.11175 0.0
H738 H 0.79086 0.05909 0.15951 0.0
H739 H 0.90892 0.12202 0.14167 0.0
H740 H 0.96663 0.85636 0.13211 0.0
H741 H 0.959 0.87403 0.29944 0.0
C742 C 0.32604 0.59444 0.96304 0.0
C743 C 0.31688 0.57225 0.00766 0.0
C744 C 0.27925 0.58142 0.02466 0.0
C745 C 0.26728 0.60848 0.98937 0.0
N746 N 0.29492 0.6164 0.95148 0.0
Co747 Co 0.29164 0.65649 0.89637 0.0
N748 N 0.252 0.68523 0.9353 0.0
C749 C 0.22881 0.67025 0.97492 0.0
C750 C 0.20547 0.69749 0.99624 0.0
C751 C 0.21455 0.73128 0.96781 0.0
C752 C 0.2431 0.72303 0.93058 0.0
N753 N 0.2899 0.69675 0.84115 0.0
C754 C 0.27798 0.73351 0.84363 0.0
C755 C 0.28083 0.75127 0.79476 0.0
C756 C 0.29508 0.72468 0.76103 0.0
C757 C 0.30021 0.69213 0.79074 0.0
N758 N 0.3316 0.62814 0.85712 0.0
C759 C 0.33896 0.63151 0.80528 0.0
C760 C 0.37263 0.61358 0.79055 0.0
C761 C 0.38716 0.59833 0.83586 0.0
C762 C 0.3609 0.60648 0.87594 0.0
N763 N 0.24605 0.62445 0.86289 0.0
C764 C 0.17436 0.57803 0.8335 0.0
C765 C 0.20997 0.56099 0.84758 0.0
C766 C 0.24532 0.58455 0.86174 0.0
C767 C 0.17662 0.61908 0.8319 0.0
C768 C 0.21243 0.64156 0.84653 0.0
N769 N 0.33516 0.6875 0.93173 0.0
C770 C 0.40382 0.71563 0.93385 0.0
C771 C 0.40162 0.71768 0.98861 0.0
C772 C 0.36538 0.70705 0.01421 0.0
C773 C 0.33238 0.69216 0.98495 0.0
C774 C 0.36982 0.70065 0.90581 0.0
H775 H 0.30533 0.68246 0.0062 0.0
H776 H 0.37194 0.69794 0.86375 0.0
H777 H 0.27161 0.57041 0.87394 0.0
H778 H 0.21231 0.67295 0.84648 0.0
C779 C 0.23704 0.63418 -0.0027 0.0
C780 C 0.36368 0.59329 0.93126 0.0
C781 C 0.26012 0.75085 0.88998 0.0
C782 C 0.32199 0.66065 0.77602 0.0
H783 H 0.33575 0.55223 0.02647 0.0
H784 H 0.26391 0.57159 0.06047 0.0
H785 H 0.18586 0.69422 0.03019 0.0
H786 H 0.20202 0.75889 0.97427 0.0
H787 H 0.27307 0.78023 0.78437 0.0
H788 H 0.30225 0.72951 0.72033 0.0
H789 H 0.38738 0.61484 0.7526 0.0
H790 H 0.41517 0.5849 0.83901 0.0
H791 H 0.21031 0.52956 0.84971 0.0
H792 H 0.1507 0.63403 0.81997 0.0
H793 H 0.43184 0.72452 0.91327 0.0
H794 H 0.36299 0.70897 0.05651 0.0
C795 C 0.66754 0.09925 0.75254 0.0
C796 C 0.68455 0.10122 0.80219 0.0
C797 C 0.67042 0.06727 0.82777 0.0
C798 C 0.64576 0.04633 0.79234 0.0
N799 N 0.6442 0.06484 0.74616 0.0
Co800 Co 0.60831 0.0479 0.68688 0.0
N801 N 0.57102 1.01356 0.73117 0.0
C802 C 0.57962 1.00097 0.77939 0.0
C803 C 0.54665 0.98042 0.80262 0.0
C804 C 0.5158 0.97996 0.76639 0.0
C805 C 0.53156 1.00033 0.72282 0.0
N806 N 0.57258 0.03224 0.62699 0.0
C807 C 0.53339 0.01689 0.62653 0.0
C808 C 0.52017 1.00994 0.57545 0.0
C809 C 0.5523 0.02176 0.54318 0.0
C810 C 0.58334 0.03499 0.57622 0.0
N811 N 0.64529 0.08304 0.64301 0.0
C812 C 0.64707 0.08227 0.59036 0.0
C813 C 0.66824 0.11506 0.57044 0.0
C814 C 0.68185 0.13714 0.61291 0.0
C815 C 0.66747 0.11684 0.6571 0.0
N816 N 0.6405 1.00316 0.6725 0.0
C817 C 0.6843 0.93679 0.65619 0.0
C818 C 0.70436 0.97402 0.66656 0.0
C819 C 0.68202 1.00667 0.67449 0.0
C820 C 0.64173 0.93413 0.6541 0.0
C821 C 0.62069 0.96724 0.6621 0.0
N822 N 0.57625 0.09093 0.70197 0.0
C823 C 0.55212 0.1513 0.67542 0.0
C824 C 0.54474 0.1601 0.72795 0.0
C825 C 0.54972 0.13236 0.76661 0.0
C826 C 0.56559 0.09785 0.75275 0.0
C827 C 0.56751 0.11615 0.66314 0.0
H828 H 0.57145 0.07799 0.78377 0.0
H829 H 0.57452 0.11035 0.62276 0.0
H830 H 0.69827 0.03475 0.68256 0.0
H831 H 0.58801 0.96345 0.66056 0.0
C832 C 0.61514 0.01675 0.80491 0.0
C833 C 0.67403 0.13018 0.712 0.0
C834 C 0.50913 1.00623 0.67367 0.0
C835 C 0.61877 0.05794 0.56163 0.0
H836 H 0.70391 0.12522 0.81864 0.0
H837 H 0.67482 0.06038 0.86869 0.0
H838 H 0.54426 0.96935 0.84237 0.0
H839 H 0.48509 0.96697 0.77207 0.0
H840 H 0.49046 0.99775 0.56284 0.0
H841 H 0.55224 0.02254 0.50074 0.0
H842 H 0.66891 0.12397 0.52984 0.0
H843 H 0.69823 0.16576 0.61114 0.0
H844 H 0.73716 0.97813 0.66817 0.0
H845 H 0.62434 0.90634 0.64751 0.0
H846 H 0.5476 0.1721 0.64446 0.0
H847 H 0.54398 0.13834 0.80755 0.0
H848 H 0.57553 0.90981 0.94902 0.0
H849 H 0.65706 1.00724 -7e-05 0.0
H850 H 0.5994 0.04209 0.02716 0.0
H851 H 0.52573 0.04623 0.03504 0.0
H852 H 0.44276 0.95071 0.98041 0.0
H853 H 0.50042 0.91382 0.95795 0.0
C854 C 0.58065 0.93835 0.96712 0.0
C855 C 0.62121 0.95488 0.97447 0.0
C856 C 0.54679 0.95882 0.98201 0.0
C857 C 0.6268 0.99269 0.99596 0.0
C858 C 0.59356 1.01298 0.01096 0.0
C859 C 0.5198 0.01749 0.01777 0.0
C860 C 0.47899 1.00195 0.00916 0.0
C861 C 0.55337 0.99649 0.00406 0.0
C862 C 0.47314 0.96388 0.9881 0.0
C863 C 0.5064 0.94273 0.97474 0.0
H864 H 0.86844 0.8262 0.20703 0.0
H865 H 0.76283 0.88519 0.24348 0.0
H866 H 0.72503 0.82243 0.26542 0.0
H867 H 0.72164 0.74949 0.27575 0.0
H868 H 0.82766 0.69064 0.2394 0.0
H869 H 0.86469 0.75316 0.21611 0.0
C870 C 0.83715 0.82526 0.21957 0.0
C871 C 0.819 0.86102 0.22392 0.0
C872 C 0.81531 0.78851 0.23225 0.0
C873 C 0.77811 0.85872 0.24026 0.0
C874 C 0.75633 0.82255 0.25279 0.0
C875 C 0.75286 0.75031 0.26251 0.0
C876 C 0.77126 0.71457 0.25847 0.0
C877 C 0.77453 0.78707 0.24928 0.0
C878 C 0.81202 0.71694 0.24179 0.0
C879 C 0.83351 0.75306 0.22874 0.0
H880 H 0.05461 0.06385 0.48071 0.0
H881 H 0.99726 0.951 0.52559 0.0
H882 H 0.93071 0.97223 0.5046 0.0
H883 H 0.8875 0.02273 0.47194 0.0
H884 H 0.94427 0.13609 0.42927 0.0
H885 H 1.011 0.11514 0.45062 0.0
C886 C 0.0276 0.04383 0.48573 0.0
C887 C 0.0316 1.00565 0.50504 0.0
C888 C 0.98866 0.05656 0.4743 0.0
C889 C 0.99568 0.98056 0.51139 0.0
C890 C 0.9573 0.99272 0.49928 0.0
C891 C 0.91427 0.04324 0.46875 0.0
C892 C 0.91018 0.08161 0.45039 0.0
C893 C 0.95315 0.03075 0.48097 0.0
C894 C 0.94599 0.1068 0.44434 0.0
C895 C 0.98444 0.09465 0.45619 0.0
H896 H 0.74292 0.17865 0.68247 0.0
H897 H 0.63461 0.17745 0.77661 0.0
H898 H 0.65323 0.24538 0.80254 0.0
H899 H 0.7009 0.30604 0.79934 0.0
H900 H 0.80871 0.3075 0.70426 0.0
H901 H 0.78935 0.23993 0.6769 0.0
C902 C 0.72295 0.19339 0.7079 0.0
C903 C 0.6868 0.17257 0.72674 0.0
C904 C 0.73393 0.233 0.72263 0.0
C905 C 0.66239 0.19233 0.76121 0.0
C906 C 0.67308 0.23142 0.77605 0.0
C907 C 0.72028 0.29152 0.77283 0.0
C908 C 0.75669 0.31212 0.75447 0.0
C909 C 0.70887 0.25219 0.75724 0.0
C910 C 0.78069 0.29272 0.71915 0.0
C911 C 0.76964 0.25383 0.70364 0.0
H912 H 0.31701 0.22363 0.79387 0.0
H913 H 0.21048 0.22338 0.69699 0.0
H914 H 0.23181 0.29032 0.66826 0.0
H915 H 0.27986 0.35091 0.67253 0.0
H916 H 0.38611 0.35121 0.76999 0.0
H917 H 0.36526 0.28395 0.79764 0.0
C918 C 0.29806 0.2383 0.76702 0.0
C919 C 0.26143 0.21796 0.74855 0.0
C920 C 0.31049 0.2775 0.75086 0.0
C921 C 0.23855 0.23771 0.71221 0.0
C922 C 0.25075 0.27635 0.69588 0.0
C923 C 0.29887 0.33618 0.69923 0.0
C924 C 0.3352 0.35669 0.71834 0.0
C925 C 0.28658 0.29685 0.71507 0.0
C926 C 0.35824 0.33677 0.75432 0.0
C927 C 0.3463 0.29797 0.7701 0.0
H928 H 0.30203 0.77584 0.26966 0.0
H929 H 0.19858 0.83618 0.22627 0.0
H930 H 0.15958 0.77355 0.20806 0.0
H931 H 0.15387 0.70032 0.20507 0.0
H932 H 0.25722 0.64012 0.24938 0.0
H933 H 0.29635 0.7028 0.26673 0.0
C934 C 0.27104 0.77535 0.25575 0.0
C935 C 0.25407 0.81145 0.24782 0.0
C936 C 0.24827 0.73867 0.24601 0.0
C937 C 0.21339 0.80955 0.23088 0.0
C938 C 0.19075 0.77342 0.221 0.0
C939 C 0.18491 0.70088 0.2188 0.0
C940 C 0.20193 0.66483 0.22706 0.0
C941 C 0.20771 0.73761 0.22838 0.0
C942 C 0.24257 0.66678 0.24407 0.0
C943 C 0.26523 0.70291 0.2536 0.0
H944 H 0.97315 0.46342 0.48571 0.0
H945 H 0.03408 0.57631 0.52288 0.0
H946 H 0.09932 0.55316 0.49991 0.0
H947 H 0.14049 0.50087 0.46851 0.0
H948 H 0.08045 0.38793 0.43133 0.0
H949 H 0.01474 0.41067 0.45471 0.0
C950 C 1.00062 0.48305 0.48853 0.0
C951 C 0.99804 0.52176 0.5066 0.0
C952 C 0.03887 0.46927 0.47565 0.0
C953 C 0.03456 0.54633 0.50993 0.0
C954 C 0.07221 0.53309 0.49664 0.0
C955 C 0.11321 0.48091 0.46683 0.0
C956 C 0.11603 0.44206 0.44984 0.0
C957 C 0.07501 0.49451 0.47985 0.0
C958 C 0.07965 0.41753 0.44561 0.0
C959 C 0.04182 0.43071 0.45858 0.0
H960 H 0.40684 0.5325 0.89485 0.0
H961 H 0.40549 0.61603 0.02022 0.0
H962 H 0.46865 0.59388 0.05507 0.0
H963 H 0.52635 0.55179 0.04846 0.0
H964 H 0.53041 0.4731 0.91735 0.0
H965 H 0.46583 0.49318 0.88536 0.0
C966 C 0.42097 0.54688 0.92872 0.0
C967 C 0.40172 0.57724 0.95342 0.0
C968 C 0.45839 0.53486 0.9475 0.0
C969 C 0.41954 0.59317 -0.00033 0.0
C970 C 0.45593 0.58053 0.01956 0.0
C971 C 0.51327 0.53917 0.0127 0.0
C972 C 0.53397 0.51087 0.98541 0.0
C973 C 0.47604 0.55164 0.99356 0.0
C974 C 0.51602 0.49517 0.93904 0.0
C975 C 0.4787 0.50654 0.92079 0.0
H976 H 0.242 0.40102 0.1758 0.0
H977 H 0.14168 0.37897 0.06855 0.0
H978 H 0.16363 0.31523 0.04782 0.0
H979 H 0.2088 0.2635 0.06288 0.0
H980 H 0.31152 0.28565 0.16609 0.0
H981 H 0.29143 0.3509 0.18466 0.0
C982 C 0.22525 0.38262 0.14727 0.0
C983 C 0.18935 0.39499 0.12512 0.0
C984 C 0.2384 0.3455 0.13467 0.0
C985 C 0.16848 0.37023 0.088 0.0
C986 C 0.18119 0.33358 0.07566 0.0
C987 C 0.22718 0.28257 0.08906 0.0
C988 C 0.26145 0.26879 0.11345 0.0
C989 C 0.21561 0.32048 0.09946 0.0
C990 C 0.28446 0.29455 0.14744 0.0
C991 C 0.27323 0.33231 0.15772 0.0
H992 H 0.42325 0.43614 0.36755 0.0
H993 H 0.35694 0.51819 0.28236 0.0
H994 H 0.41973 0.56016 0.26794 0.0
H995 H 0.49457 0.57399 0.27894 0.0
H996 H 0.5603 0.4921 0.36465 0.0
H997 H 0.49739 0.45 0.37907 0.0
C998 C 0.42245 0.46302 0.3454 0.0
C999 C 0.38488 0.4736 0.32603 0.0
C1000 C 0.45895 0.48733 0.33734 0.0
C1001 C 0.38493 0.50913 0.29827 0.0
C1002 C 0.42105 0.53321 0.28975 0.0
C1003 C 0.49497 0.54693 0.3008 0.0
C1004 C 0.53217 0.53631 0.3209 0.0
C1005 C 0.45835 0.52273 0.30908 0.0
C1006 C 0.53216 0.50106 0.34901 0.0
C1007 C 0.49612 0.47692 0.35718 0.0
H1008 H 0.32234 0.7757 0.62821 0.0
H1009 H 0.21758 0.72873 0.54145 0.0
H1010 H 0.23765 0.66228 0.5535 0.0
H1011 H 0.28577 0.61681 0.58893 0.0
H1012 H 0.39079 0.66558 0.6747 0.0
H1013 H 0.3707 0.73103 0.66141 0.0
C1014 C 0.30397 0.7509 0.61185 0.0
C1015 C 0.26833 0.75733 0.58425 0.0
C1016 C 0.31614 0.71268 0.6181 0.0
C1017 C 0.24514 0.72475 0.56291 0.0
C1018 C 0.25659 0.68663 0.56992 0.0
C1019 C 0.30397 0.64169 0.60529 0.0
C1020 C 0.34013 0.63565 0.63247 0.0
C1021 C 0.29201 0.68006 0.59777 0.0
C1022 C 0.36334 0.66877 0.65267 0.0
C1023 C 0.35183 0.70654 0.64519 0.0
H1024 H 0.02543 0.45341 0.77467 0.0
H1025 H 0.95795 0.54256 0.84168 0.0
H1026 H 0.02112 0.58381 0.85776 0.0
H1027 H 0.09575 0.59401 0.85496 0.0
H1028 H 0.16376 0.50577 0.78542 0.0
H1029 H 0.1008 0.4649 0.76896 0.0
C1030 C 0.02473 0.482 0.79245 0.0
C1031 C 0.98706 0.49502 0.80682 0.0
C1032 C 0.06143 0.5057 0.80155 0.0
C1033 C 0.98654 0.53203 0.83009 0.0
C1034 C 0.0227 0.55556 0.83938 0.0
C1035 C 0.09704 0.56614 0.83547 0.0
C1036 C 0.13515 0.55337 0.82175 0.0
C1037 C 0.06041 0.54272 0.82547 0.0
C1038 C 0.13543 0.51652 0.79744 0.0
C1039 C 0.09919 0.49306 0.78759 0.0
H1040 H 0.73191 0.58618 0.88749 0.0
H1041 H 0.85185 0.61165 0.82181 0.0
H1042 H 0.84617 0.68103 0.83009 0.0
H1043 H 0.80878 0.73601 0.85812 0.0
H1044 H 0.68948 0.71338 0.92467 0.0
H1045 H 0.69333 0.64255 0.91464 0.0
C1046 C 0.7566 0.60692 0.87464 0.0
C1047 C 0.79234 0.59293 0.8542 0.0
C1048 C 0.75356 0.64782 0.88036 0.0
C1049 C 0.82399 0.6208 0.83807 0.0
C1050 C 0.82092 0.66089 0.84283 0.0
C1051 C 0.78377 0.71547 0.87067 0.0
C1052 C 0.74913 0.72984 0.89269 0.0
C1053 C 0.78619 0.67486 0.86449 0.0
C1054 C 0.71668 0.70296 0.90813 0.0
C1055 C 0.71885 0.66243 0.90216 0.0
H1056 H 0.57321 0.57908 0.6641 0.0
H1057 H 0.56866 0.45382 0.65135 0.0
H1058 H 0.64189 0.45815 0.63427 0.0
H1059 H 0.70708 0.49809 0.61777 0.0
H1060 H 0.71145 0.62341 0.62881 0.0
H1061 H 0.63912 0.61885 0.65193 0.0
C1062 C 0.58855 0.55278 0.65877 0.0
C1063 C 0.56572 0.51609 0.65997 0.0
C1064 C 0.63072 0.55562 0.64808 0.0
C1065 C 0.58573 0.48229 0.65141 0.0
C1066 C 0.62756 0.4848 0.64132 0.0
C1067 C 0.6921 0.52426 0.62577 0.0
C1068 C 0.71441 0.56106 0.62168 0.0
C1069 C 0.65035 0.52133 0.63878 0.0
C1070 C 0.69481 0.59482 0.63189 0.0
C1071 C 0.65345 0.59218 0.645 0.0
H1072 H 0.71681 0.29105 0.33057 0.0
H1073 H 0.81118 0.3079 0.44626 0.0
H1074 H 0.80773 0.37913 0.44217 0.0
H1075 H 0.77749 0.43756 0.40442 0.0
H1076 H 0.68092 0.41787 0.29153 0.0
H1077 H 0.68656 0.34802 0.29425 0.0
C1078 C 0.73637 0.31037 0.35517 0.0
C1079 C 0.76409 0.29418 0.38884 0.0
C1080 C 0.73446 0.35126 0.35211 0.0
C1081 C 0.78935 0.3196 0.42033 0.0
C1082 C 0.78758 0.3604 0.41763 0.0
C1083 C 0.75818 0.41796 0.37993 0.0
C1084 C 0.72953 0.43358 0.34661 0.0
C1085 C 0.76041 0.37679 0.38329 0.0
C1086 C 0.70405 0.4073 0.3163 0.0
C1087 C 0.70681 0.36699 0.31838 0.0
H1088 H 0.94429 0.55312 0.14957 0.0
H1089 H 0.96572 0.43612 0.19562 0.0
H1090 H 0.89503 0.41349 0.1759 0.0
H1091 H 0.82737 0.42611 0.14046 0.0
H1092 H 0.80678 0.54251 0.09112 0.0
H1093 H 0.87622 0.56616 0.11666 0.0
C1094 C 0.9332 0.52282 0.15619 0.0
C1095 C 0.96022 0.49663 0.17553 0.0
C1096 C 0.89257 0.50977 0.1433 0.0
C1097 C 0.9455 0.45723 0.18255 0.0
C1098 C 0.90509 0.44416 0.17056 0.0
C1099 C 0.83818 0.45666 0.13562 0.0
C1100 C 0.81205 0.48253 0.11364 0.0
C1101 C 0.8784 0.46999 0.15024 0.0
C1102 C 0.82636 0.52206 0.10765 0.0
C1103 C 0.86608 0.53555 0.12233 0.0
H1104 H 0.79359 0.79211 0.65628 0.0
H1105 H 0.70273 0.74866 0.54449 0.0
H1106 H 0.66926 0.80878 0.55261 0.0
H1107 H 0.66509 0.87372 0.59118 0.0
H1108 H 0.75513 0.91796 0.70369 0.0
H1109 H 0.78982 0.85853 0.69431 0.0
C1110 C 0.76638 0.79573 0.63384 0.0
C1111 C 0.75086 0.76549 0.59974 0.0
C1112 C 0.74729 0.831 0.63818 0.0
C1113 C 0.71573 0.77123 0.57068 0.0
C1114 C 0.69643 0.80572 0.57538 0.0
C1115 C 0.69207 0.87046 0.61421 0.0
C1116 C 0.70695 0.90083 0.64848 0.0
C1117 C 0.71181 0.83581 0.60905 0.0
C1118 C 0.74286 0.89581 0.67647 0.0
C1119 C 0.76271 0.86148 0.6714 0.0
H1120 H 0.8805 1.00712 0.80951 0.0
H1121 H 0.92009 0.91709 0.91011 0.0
H1122 H 0.9901 0.94603 0.90365 0.0
H1123 H 0.04137 0.99636 0.86817 0.0
H1124 H 1.00326 0.08552 0.76557 0.0
H1125 H 0.93236 0.05773 0.77349 0.0
C1126 C 0.90443 0.99395 0.83017 0.0
C1127 C 0.89461 0.95959 0.86008 0.0
C1128 C 0.94532 1.01061 0.82562 0.0
C1129 C 0.92642 0.94306 0.88627 0.0
C1130 C 0.96667 0.95972 0.88271 0.0
C1131 C 0.01746 1.00974 0.84773 0.0
C1132 C 0.02766 0.04328 0.81665 0.0
C1133 C 0.97666 0.99332 0.85224 0.0
C1134 C 0.99631 0.05991 0.78992 0.0
C1135 C 0.95568 0.04397 0.79453 0.0
H1136 H 0.77844 0.12842 0.18519 0.0
H1137 H 0.87379 0.14658 0.06964 0.0
H1138 H 0.85068 0.20952 0.04646 0.0
H1139 H 0.80581 0.26169 0.06119 0.0
H1140 H 0.70977 0.24454 0.17578 0.0
H1141 H 0.73051 0.17976 0.19645 0.0
C1142 C 0.79387 0.14586 0.15447 0.0
C1143 C 0.82859 0.13257 0.13023 0.0
C1144 C 0.78036 0.18274 0.14105 0.0
C1145 C 0.84783 0.15605 0.09036 0.0
C1146 C 0.83447 0.19223 0.07672 0.0
C1147 C 0.78906 0.24378 0.0904 0.0
C1148 C 0.7563 0.25871 0.11697 0.0
C1149 C 0.80125 0.20631 0.10237 0.0
C1150 C 0.7355 0.23461 0.15505 0.0
C1151 C 0.74712 0.19715 0.16662 0.0
H1152 H 0.53037 0.95416 0.27198 0.0
H1153 H 0.46318 0.04375 0.33838 0.0
H1154 H 0.52651 0.08476 0.3546 0.0
H1155 H 0.60132 0.09486 0.35177 0.0
H1156 H 0.66899 1.0059 0.28344 0.0
H1157 H 0.60587 0.96528 0.26693 0.0
C1158 C 0.52973 0.98275 0.28977 0.0
C1159 C 0.49201 0.99592 0.30391 0.0
C1160 C 0.56658 1.00635 0.29902 0.0
C1161 C 0.49172 0.033 0.32707 0.0
C1162 C 0.52801 0.05644 0.3364 0.0
C1163 C 0.6025 0.06685 0.33261 0.0
C1164 C 0.64065 0.05388 0.31919 0.0
C1165 C 0.56573 0.04346 0.3227 0.0
C1166 C 0.64071 0.01687 0.29522 0.0
C1167 C 0.60435 0.99352 0.28535 0.0
H1168 H 0.33792 0.11603 0.32927 0.0
H1169 H 0.21835 0.06509 0.37241 0.0
H1170 H 0.19755 0.13053 0.3898 0.0
H1171 H 0.21383 0.20311 0.39411 0.0
H1172 H 0.3348 0.25193 0.35573 0.0
H1173 H 0.35487 0.18651 0.33702 0.0
C1174 C 0.30747 0.11874 0.34361 0.0
C1175 C 0.28009 0.08486 0.35017 0.0
C1176 C 0.29606 0.15641 0.35508 0.0
C1177 C 0.24026 0.0901 0.36658 0.0
C1178 C 0.2284 0.1277 0.37704 0.0
C1179 C 0.24474 0.19918 0.38254 0.0
C1180 C 0.27313 0.23233 0.3775 0.0
C1181 C 0.25612 0.16113 0.37184 0.0
C1182 C 0.31276 0.22692 0.36115 0.0
C1183 C 0.3241 0.1895 0.35 0.0
H1184 H 0.07908 0.97512 0.15608 0.0
H1185 H 0.04817 0.09336 0.1746 0.0
H1186 H 0.11866 0.11822 0.15624 0.0
H1187 H 0.1891 0.10644 0.1309 0.0
H1188 H 0.22037 0.98826 0.11375 0.0
H1189 H 0.15054 0.9632 0.13582 0.0
C1190 C 0.08804 1.00628 0.15677 0.0
C1191 C 0.05851 0.03238 0.16732 0.0
C1192 C 0.12886 0.02035 0.14622 0.0
C1193 C 0.07041 0.07271 0.16734 0.0
C1194 C 0.11071 0.08691 0.15658 0.0
C1195 C 0.1806 0.07522 0.13273 0.0
C1196 C 0.20987 0.04917 0.12098 0.0
C1197 C 0.14021 0.06108 0.14552 0.0
C1198 C 0.19844 1.00879 0.12301 0.0
C1199 C 0.15844 0.99452 0.13542 0.0
H1200 H 0.30827 0.82066 0.89593 0.0
H1201 H 0.18481 0.77336 0.87044 0.0
H1202 H 0.16491 0.839 0.85274 0.0
H1203 H 0.1826 0.90915 0.84139 0.0
H1204 H 0.30495 0.95872 0.87215 0.0
H1205 H 0.32536 0.89312 0.889 0.0
C1206 C 0.27688 0.82495 0.88747 0.0
C1207 C 0.24782 0.79204 0.88584 0.0
C1208 C 0.26557 0.86319 0.87729 0.0
C1209 C 0.20751 0.79806 0.8734 0.0
C1210 C 0.19623 0.83565 0.86274 0.0
C1211 C 0.21364 0.90627 0.85305 0.0
C1212 C 0.24184 0.93994 0.85601 0.0
C1213 C 0.22497 0.86844 0.86437 0.0
C1214 C 0.28228 0.93407 0.86894 0.0
C1215 C 0.29399 0.89632 0.87914 0.0
H1216 H 0.33104 0.92477 0.63498 0.0
H1217 H 0.30942 0.04294 0.59547 0.0
H1218 H 0.37965 0.06552 0.61864 0.0
H1219 H 0.4486 0.05103 0.64627 0.0
H1220 H 0.47055 0.93261 0.6841 0.0
H1221 H 0.39934 0.91073 0.66605 0.0
C1222 C 0.34177 0.95548 0.63196 0.0
C1223 C 0.31525 0.9822 0.61332 0.0
C1224 C 0.38237 0.96817 0.64516 0.0
C1225 C 0.32938 0.02191 0.60953 0.0
C1226 C 0.36954 0.03476 0.62272 0.0
C1227 C 0.43751 0.02056 0.6513 0.0
C1228 C 0.46466 0.99363 0.66775 0.0
C1229 C 0.39651 1.00812 0.64006 0.0
C1230 C 0.4501 0.95408 0.67297 0.0
C1231 C 0.40942 0.94151 0.66215 0.0
H1232 H 0.41412 0.27604 0.03672 0.0
H1233 H 0.47516 0.17576 0.99144 0.0
H1234 H 0.53895 0.21674 0.98043 0.0
H1235 H 0.57884 0.2791 0.99686 0.0
H1236 H 0.51862 0.37995 0.0416 0.0
H1237 H 0.45265 0.34113 0.03928 0.0
C1238 C 0.44131 0.26367 0.02322 0.0
C1239 C 0.44066 0.22337 0.01524 0.0
C1240 C 0.47782 0.28736 0.01747 0.0
C1241 C 0.47558 0.20697 -0.00219 0.0
C1242 C 0.51191 0.23027 0.99175 0.0
C1243 C 0.55103 0.29265 0.00443 0.0
C1244 C 0.553 0.33185 0.01963 0.0
C1245 C 0.51366 0.2702 0.00332 0.0
C1246 C 0.51723 0.34954 0.02991 0.0
C1247 C 0.47976 0.32739 0.02884 0.0
H1248 H 0.50647 0.84968 0.23609 0.0
H1249 H 0.42319 0.76012 0.16821 0.0
H1250 H 0.47847 0.71774 0.15721 0.0
H1251 H 0.54664 0.70257 0.18297 0.0
H1252 H 0.62789 0.7905 0.25852 0.0
H1253 H 0.57761 0.83804 0.24926 0.0
C1254 C 0.50095 0.8212 0.21768 0.0
C1255 C 0.46141 0.80728 0.20364 0.0
C1256 C 0.53237 0.79698 0.21317 0.0
C1257 C 0.45374 0.77078 0.17957 0.0
C1258 C 0.4852 0.74672 0.1735 0.0
C1259 C 0.55378 0.73253 0.19576 0.0
C1260 C 0.59038 0.74318 0.22205 0.0
C1261 C 0.52416 0.75891 0.19242 0.0
C1262 C 0.59948 0.78183 0.23884 0.0
C1263 C 0.57079 0.80883 0.2337 0.0
H1264 H 0.03149 0.84961 0.52554 0.0
H1265 H 0.11573 0.76604 0.485 0.0
H1266 H 0.05978 0.71425 0.47837 0.0
H1267 H 0.98879 0.69169 0.49788 0.0
H1268 H 0.90556 0.77432 0.54545 0.0
H1269 H 0.95909 0.82823 0.53575 0.0
C1270 C 0.0371 0.82015 0.51409 0.0
C1271 C 0.07694 0.81091 0.50609 0.0
C1272 C 1.00523 0.79068 0.51252 0.0
C1273 C 0.08485 0.77313 0.4913 0.0
C1274 C 0.05307 0.74373 0.48791 0.0
C1275 C 0.98251 0.72171 0.50491 0.0
C1276 C 0.94405 0.72973 0.52236 0.0
C1277 C 0.01346 0.75193 0.50052 0.0
C1278 C 0.9354 0.76819 0.53197 0.0
C1279 C 0.96584 0.79872 0.52654 0.0
H1280 H 0.03552 0.19947 0.68333 0.0
H1281 H 0.1188 0.28686 0.75652 0.0
H1282 H 0.06888 0.33477 0.74911 0.0
H1283 H 0.99781 0.34731 0.73792 0.0
H1284 H 0.91261 0.25911 0.6708 0.0
H1285 H 0.96719 0.21597 0.6582 0.0
C1286 C 0.0431 0.22935 0.69608 0.0
C1287 C 0.08029 0.23964 0.72138 0.0
C1288 C 0.01373 0.25623 0.69337 0.0
C1289 C 0.08996 0.27833 0.73783 0.0
C1290 C 0.06146 0.3056 0.7337 0.0
C1291 C 0.99164 0.31895 0.7194 0.0
C1292 C 0.95174 0.30575 0.70593 0.0
C1293 C 0.02264 0.29422 0.71415 0.0
C1294 C 0.94339 0.26933 0.68171 0.0
C1295 C 0.97445 0.24477 0.67485 0.0
H1296 H 0.42434 0.79042 0.01962 0.0
H1297 H 0.45872 0.67262 0.02272 0.0
H1298 H 0.52827 0.69627 0.04585 0.0
H1299 H 0.58087 0.7504 0.03624 0.0
H1300 H 0.54747 0.86784 0.01885 0.0
H1301 H 0.47599 0.84535 0.0324 0.0
C1302 C 0.44695 0.77018 0.02752 0.0
C1303 C 0.43765 0.7303 0.01866 0.0
C1304 C 0.48704 0.7842 0.03746 0.0
C1305 C 0.46617 0.7036 0.02895 0.0
C1306 C 0.50577 0.71713 0.04179 0.0
C1307 C 0.55789 0.77102 0.03773 0.0
C1308 C 0.56825 0.81015 0.02488 0.0
C1309 C 0.51706 0.75741 0.04187 0.0
C1310 C 0.53919 0.83729 0.02724 0.0
C1311 C 0.49854 0.8244 0.0348 0.0
H1312 H 0.5877 0.22665 0.70115 0.0
H1313 H 0.48257 0.18068 0.78913 0.0
H1314 H 0.46381 0.24711 0.80455 0.0
H1315 H 0.47127 0.3162 0.77912 0.0
H1316 H 0.57305 0.36082 0.68413 0.0
H1317 H 0.60028 0.2969 0.68626 0.0
C1318 C 0.56083 0.23141 0.72392 0.0
C1319 C 0.53564 0.19944 0.74261 0.0
C1320 C 0.55 0.2692 0.73143 0.0
C1321 C 0.50175 0.20531 0.77369 0.0
C1322 C 0.49114 0.24308 0.78246 0.0
C1323 C 0.50011 0.31204 0.76052 0.0
C1324 C 0.52027 0.34238 0.73124 0.0
C1325 C 0.51417 0.27501 0.75966 0.0
C1326 C 0.5573 0.33729 0.70661 0.0
C1327 C 0.57255 0.30089 0.7075 0.0
H1328 H 0.08932 0.23512 0.51957 0.0
H1329 H 0.06474 0.3559 0.51746 0.0
H1330 H 0.99289 0.33754 0.53516 0.0
H1331 H 0.93698 0.28641 0.52182 0.0
H1332 H 0.96151 0.16562 0.51997 0.0
H1333 H 0.03363 0.18404 0.53532 0.0
C1334 C 0.06832 0.25724 0.52537 0.0
C1335 C 0.08093 0.2964 0.51515 0.0
C1336 C 0.02719 0.24627 0.53404 0.0
C1337 C 0.05452 0.32542 0.52342 0.0
C1338 C 0.01366 0.31492 0.53358 0.0
C1339 C 0.95806 0.2643 0.52727 0.0
C1340 C 0.94529 0.22512 0.51776 0.0
C1341 C 0.99932 0.27531 0.53437 0.0
C1342 C 0.97181 0.19612 0.52554 0.0
C1343 C 0.01284 0.20666 0.53422 0.0
H1344 H 1.00782 0.82574 0.28897 0.0
H1345 H 0.92298 0.80002 0.16236 0.0
H1346 H 0.93253 0.73099 0.16868 0.0
H1347 H 0.97223 0.68027 0.20048 0.0
H1348 H 0.06368 0.70652 0.31864 0.0
H1349 H 0.04253 0.77257 0.32802 0.0
C1350 C 0.99083 0.80482 0.26368 0.0
C1351 C 0.96525 0.81773 0.22489 0.0
C1352 C 0.99736 0.76533 0.26643 0.0
C1353 C 0.94347 0.79064 0.19194 0.0
C1354 C 0.94869 0.75121 0.19564 0.0
C1355 C 0.98699 0.70041 0.22881 0.0
C1356 C 0.01988 0.68951 0.25775 0.0
C1357 C 0.97663 0.73858 0.23133 0.0
C1358 C 0.03833 0.71485 0.29565 0.0
C1359 C 0.02662 0.75261 0.30053 0.0
loop_
_geom_bond_atom_site_label_1
_geom_bond_atom_site_label_2
_geom_bond_distance
_geom_bond_site_symmetry_2
_ccdc_geom_bond_type
C0 C1 1.443 . S
C0 N4 1.376 . S
C0 C38 1.389 . S
C1 C0 1.443 . S
C1 C2 1.340 . S
C1 H41 0.951 . S
C2 C1 1.340 . S
C2 C3 1.439 . S
C2 H42 0.950 . S
C3 C2 1.439 . S
C3 N4 1.374 . S
C3 C37 1.395 . S
N4 C0 1.376 . S
N4 C3 1.374 . S
N4 Co5 2.008 1_556 S
Co5 N4 2.008 1_554 S
Co5 N6 1.995 1_554 S
Co5 N11 2.008 . S
Co5 N16 1.995 . S
Co5 N21 2.282 . S
Co5 N27 2.282 1_554 S
N6 Co5 1.995 1_556 S
N6 C7 1.376 . S
N6 C10 1.383 . S
C7 N6 1.376 . S
C7 C8 1.446 . S
C7 C37 1.391 . S
C8 C7 1.446 . S
C8 C9 1.339 . S
C8 H43 0.949 . S
C9 C8 1.339 . S
C9 C10 1.439 . S
C9 H44 0.950 . S
C10 N6 1.383 . S
C10 C9 1.439 . S
C10 C39 1.392 1_556 S
N11 Co5 2.008 . S
N11 C12 1.376 . S
N11 C15 1.374 . S
C12 N11 1.376 . S
C12 C13 1.443 . S
C12 C39 1.389 . S
C13 C12 1.443 . S
C13 C14 1.340 . S
C13 H45 0.951 . S
C14 C13 1.340 . S
C14 C15 1.439 . S
C14 H46 0.950 . S
C15 N11 1.374 . S
C15 C14 1.439 . S
C15 C40 1.395 . S
N16 Co5 1.995 . S
N16 C17 1.376 . S
N16 C20 1.383 . S
C17 N16 1.376 . S
C17 C18 1.446 . S
C17 C40 1.391 . S
C18 C17 1.446 . S
C18 C19 1.339 . S
C18 H47 0.949 . S
C19 C18 1.339 . S
C19 C20 1.439 . S
C19 H48 0.950 . S
C20 N16 1.383 . S
C20 C19 1.439 . S
C20 C38 1.392 1_554 S
N21 Co5 2.282 . S
N21 C24 1.332 . S
N21 C26 1.332 1_554 S
C22 C23 1.386 . S
C22 C25 1.388 1_554 S
C23 C22 1.386 . S
C23 C24 1.382 . S
C23 H49 0.950 . S
C24 N21 1.332 . S
C24 C23 1.382 . S
C24 H35 0.952 . S
C25 C22 1.388 1_556 S
C25 C26 1.382 . S
C25 H50 0.950 . S
C26 N21 1.332 1_556 S
C26 C25 1.382 . S
C26 H36 0.948 . S
N27 Co5 2.282 1_556 S
N27 C31 1.332 . S
N27 C32 1.332 1_556 S
C28 C29 1.388 1_554 S
C28 C32 1.382 . S
C28 H51 0.950 . S
C29 C28 1.388 1_556 S
C29 C30 1.386 . S
C30 C29 1.386 . S
C30 C31 1.382 . S
C30 H52 0.950 . S
C31 N27 1.332 . S
C31 C30 1.382 . S
C31 H33 0.952 . S
C32 N27 1.332 1_554 S
C32 C28 1.382 . S
C32 H34 0.948 . S
H33 C31 0.952 . S
H34 C32 0.948 . S
H35 C24 0.952 . S
H36 C26 0.948 . S
C37 C3 1.395 . S
C37 C7 1.391 . S
C38 C0 1.389 . S
C38 C20 1.392 1_556 S
C39 C10 1.392 1_554 S
C39 C12 1.389 . S
C40 C15 1.395 . S
C40 C17 1.391 . S
H41 C1 0.951 . S
H42 C2 0.950 . S
H43 C8 0.949 . S
H44 C9 0.950 . S
H45 C13 0.951 . S
H46 C14 0.950 . S
H47 C18 0.949 . S
H48 C19 0.950 . S
H49 C23 0.950 . S
H50 C25 0.950 . S
H51 C28 0.950 . S
H52 C30 0.950 . S
C53 C54 1.443 . S
C53 N57 1.376 . S
C53 C91 1.389 . S
C54 C53 1.443 . S
C54 C55 1.340 . S
C54 H94 0.951 . S
C55 C54 1.340 . S
C55 C56 1.439 . S
C55 H95 0.950 . S
C56 C55 1.439 . S
C56 N57 1.374 . S
C56 C90 1.395 . S
N57 C53 1.376 . S
N57 C56 1.374 . S
N57 Co58 2.008 . S
Co58 N57 2.008 . S
Co58 N59 1.995 . S
Co58 N64 2.008 . S
Co58 N69 1.995 . S
Co58 N74 2.282 . S
Co58 N80 2.282 . S
N59 Co58 1.995 . S
N59 C60 1.376 . S
N59 C63 1.383 . S
C60 N59 1.376 . S
C60 C61 1.446 . S
C60 C90 1.391 . S
C61 C60 1.446 . S
C61 C62 1.339 . S
C61 H96 0.949 . S
C62 C61 1.339 . S
C62 C63 1.439 . S
C62 H97 0.950 . S
C63 N59 1.383 . S
C63 C62 1.439 . S
C63 C92 1.392 . S
N64 Co58 2.008 . S
N64 C65 1.376 . S
N64 C68 1.374 . S
C65 N64 1.376 . S
C65 C66 1.443 . S
C65 C92 1.389 . S
C66 C65 1.443 . S
C66 C67 1.340 . S
C66 H98 0.951 . S
C67 C66 1.340 . S
C67 C68 1.439 . S
C67 H99 0.950 . S
C68 N64 1.374 . S
C68 C67 1.439 . S
C68 C93 1.395 . S
N69 Co58 1.995 . S
N69 C70 1.376 . S
N69 C73 1.383 . S
C70 N69 1.376 . S
C70 C71 1.446 . S
C70 C93 1.391 . S
C71 C70 1.446 . S
C71 C72 1.339 . S
C71 H100 0.949 . S
C72 C71 1.339 . S
C72 C73 1.439 . S
C72 H101 0.950 . S
C73 N69 1.383 . S
C73 C72 1.439 . S
C73 C91 1.392 . S
N74 Co58 2.282 . S
N74 C77 1.332 . S
N74 C79 1.332 . S
C75 C76 1.386 . S
C75 C78 1.388 . S
C76 C75 1.386 . S
C76 C77 1.382 . S
C76 H102 0.950 . S
C77 N74 1.332 . S
C77 C76 1.382 . S
C77 H88 0.952 . S
C78 C75 1.388 . S
C78 C79 1.382 . S
C78 H103 0.950 . S
C79 N74 1.332 . S
C79 C78 1.382 . S
C79 H89 0.948 . S
N80 Co58 2.282 . S
N80 C84 1.332 . S
N80 C85 1.332 . S
C81 C82 1.388 . S
C81 C85 1.382 . S
C81 H104 0.950 . S
C82 C81 1.388 . S
C82 C83 1.386 . S
C83 C82 1.386 . S
C83 C84 1.382 . S
C83 H105 0.950 . S
C84 N80 1.332 . S
C84 C83 1.382 . S
C84 H86 0.952 . S
C85 N80 1.332 . S
C85 C81 1.382 . S
C85 H87 0.948 . S
H86 C84 0.952 . S
H87 C85 0.948 . S
H88 C77 0.952 . S
H89 C79 0.948 . S
C90 C56 1.395 . S
C90 C60 1.391 . S
C91 C53 1.389 . S
C91 C73 1.392 . S
C92 C63 1.392 . S
C92 C65 1.389 . S
C93 C68 1.395 . S
C93 C70 1.391 . S
H94 C54 0.951 . S
H95 C55 0.950 . S
H96 C61 0.949 . S
H97 C62 0.950 . S
H98 C66 0.951 . S
H99 C67 0.950 . S
H100 C71 0.949 . S
H101 C72 0.950 . S
H102 C76 0.950 . S
H103 C78 0.950 . S
H104 C81 0.950 . S
H105 C83 0.950 . S
C106 C107 1.443 . S
C106 N110 1.376 . S
C106 C144 1.389 . S
C107 C106 1.443 . S
C107 C108 1.340 . S
C107 H147 0.951 . S
C108 C107 1.340 . S
C108 C109 1.439 . S
C108 H148 0.950 . S
C109 C108 1.439 . S
C109 N110 1.374 . S
C109 C143 1.395 . S
N110 C106 1.376 . S
N110 C109 1.374 . S
N110 Co111 2.008 . S
Co111 N110 2.008 . S
Co111 N112 1.995 . S
Co111 N117 2.008 . S
Co111 N122 1.995 . S
Co111 N127 2.282 . S
Co111 N133 2.282 . S
N112 Co111 1.995 . S
N112 C113 1.376 . S
N112 C116 1.383 . S
C113 N112 1.376 . S
C113 C114 1.446 . S
C113 C143 1.391 . S
C114 C113 1.446 . S
C114 C115 1.339 . S
C114 H149 0.949 . S
C115 C114 1.339 . S
C115 C116 1.439 . S
C115 H150 0.950 . S
C116 N112 1.383 . S
C116 C115 1.439 . S
C116 C145 1.392 . S
N117 Co111 2.008 . S
N117 C118 1.376 . S
N117 C121 1.374 . S
C118 N117 1.376 . S
C118 C119 1.443 . S
C118 C145 1.389 . S
C119 C118 1.443 . S
C119 C120 1.340 . S
C119 H151 0.951 . S
C120 C119 1.340 . S
C120 C121 1.439 . S
C120 H152 0.950 . S
C121 N117 1.374 . S
C121 C120 1.439 . S
C121 C146 1.395 . S
N122 Co111 1.995 . S
N122 C123 1.376 . S
N122 C126 1.383 . S
C123 N122 1.376 . S
C123 C124 1.446 . S
C123 C146 1.391 . S
C124 C123 1.446 . S
C124 C125 1.339 . S
C124 H153 0.949 . S
C125 C124 1.339 . S
C125 C126 1.439 . S
C125 H154 0.950 . S
C126 N122 1.383 . S
C126 C125 1.439 . S
C126 C144 1.392 . S
N127 Co111 2.282 . S
N127 C130 1.332 . S
N127 C132 1.332 . S
C128 C129 1.386 . S
C128 C131 1.388 . S
C129 C128 1.386 . S
C129 C130 1.382 . S
C129 H155 0.950 . S
C130 N127 1.332 . S
C130 C129 1.382 . S
C130 H141 0.952 . S
C131 C128 1.388 . S
C131 C132 1.382 . S
C131 H156 0.950 . S
C132 N127 1.332 . S
C132 C131 1.382 . S
C132 H142 0.948 . S
N133 Co111 2.282 . S
N133 C137 1.332 . S
N133 C138 1.332 . S
C134 C135 1.388 . S
C134 C138 1.382 . S
C134 H157 0.950 . S
C135 C134 1.388 . S
C135 C136 1.386 . S
C136 C135 1.386 . S
C136 C137 1.382 . S
C136 H158 0.950 . S
C137 N133 1.332 . S
C137 C136 1.382 . S
C137 H139 0.952 . S
C138 N133 1.332 . S
C138 C134 1.382 . S
C138 H140 0.948 . S
H139 C137 0.952 . S
H140 C138 0.948 . S
H141 C130 0.952 . S
H142 C132 0.948 . S
C143 C109 1.395 . S
C143 C113 1.391 . S
C144 C106 1.389 . S
C144 C126 1.392 . S
C145 C116 1.392 . S
C145 C118 1.389 . S
C146 C121 1.395 . S
C146 C123 1.391 . S
H147 C107 0.951 . S
H148 C108 0.950 . S
H149 C114 0.949 . S
H150 C115 0.950 . S
H151 C119 0.951 . S
H152 C120 0.950 . S
H153 C124 0.949 . S
H154 C125 0.950 . S
H155 C129 0.950 . S
H156 C131 0.950 . S
H157 C134 0.950 . S
H158 C136 0.950 . S
C159 C160 1.443 . S
C159 N163 1.376 . S
C159 C197 1.389 . S
C160 C159 1.443 . S
C160 C161 1.340 . S
C160 H200 0.951 . S
C161 C160 1.340 . S
C161 C162 1.439 . S
C161 H201 0.950 . S
C162 C161 1.439 . S
C162 N163 1.374 . S
C162 C196 1.395 . S
N163 C159 1.376 . S
N163 C162 1.374 . S
N163 Co164 2.008 . S
Co164 N163 2.008 . S
Co164 N165 1.995 . S
Co164 N170 2.008 . S
Co164 N175 1.995 . S
Co164 N180 2.282 . S
Co164 N186 2.282 . S
N165 Co164 1.995 . S
N165 C166 1.376 . S
N165 C169 1.383 . S
C166 N165 1.376 . S
C166 C167 1.446 . S
C166 C196 1.391 . S
C167 C166 1.446 . S
C167 C168 1.339 . S
C167 H202 0.949 . S
C168 C167 1.339 . S
C168 C169 1.439 . S
C168 H203 0.950 . S
C169 N165 1.383 . S
C169 C168 1.439 . S
C169 C198 1.392 . S
N170 Co164 2.008 . S
N170 C171 1.376 . S
N170 C174 1.374 . S
C171 N170 1.376 . S
C171 C172 1.443 . S
C171 C198 1.389 . S
C172 C171 1.443 . S
C172 C173 1.340 . S
C172 H204 0.951 . S
C173 C172 1.340 . S
C173 C174 1.439 . S
C173 H205 0.950 . S
C174 N170 1.374 . S
C174 C173 1.439 . S
C174 C199 1.395 . S
N175 Co164 1.995 . S
N175 C176 1.376 . S
N175 C179 1.383 . S
C176 N175 1.376 . S
C176 C177 1.446 . S
C176 C199 1.391 . S
C177 C176 1.446 . S
C177 C178 1.339 . S
C177 H206 0.949 . S
C178 C177 1.339 . S
C178 C179 1.439 . S
C178 H207 0.950 . S
C179 N175 1.383 . S
C179 C178 1.439 . S
C179 C197 1.392 . S
N180 Co164 2.282 . S
N180 C183 1.332 . S
N180 C185 1.332 . S
C181 C182 1.386 . S
C181 C184 1.388 . S
C182 C181 1.386 . S
C182 C183 1.382 . S
C182 H208 0.950 . S
C183 N180 1.332 . S
C183 C182 1.382 . S
C183 H194 0.952 . S
C184 C181 1.388 . S
C184 C185 1.382 . S
C184 H209 0.950 . S
C185 N180 1.332 . S
C185 C184 1.382 . S
C185 H195 0.948 . S
N186 Co164 2.282 . S
N186 C190 1.332 . S
N186 C191 1.332 . S
C187 C188 1.388 . S
C187 C191 1.382 . S
C187 H210 0.950 . S
C188 C187 1.388 . S
C188 C189 1.386 . S
C189 C188 1.386 . S
C189 C190 1.382 . S
C189 H211 0.950 . S
C190 N186 1.332 . S
C190 C189 1.382 . S
C190 H192 0.952 . S
C191 N186 1.332 . S
C191 C187 1.382 . S
C191 H193 0.948 . S
H192 C190 0.952 . S
H193 C191 0.948 . S
H194 C183 0.952 . S
H195 C185 0.948 . S
C196 C162 1.395 . S
C196 C166 1.391 . S
C197 C159 1.389 . S
C197 C179 1.392 . S
C198 C169 1.392 . S
C198 C171 1.389 . S
C199 C174 1.395 . S
C199 C176 1.391 . S
H200 C160 0.951 . S
H201 C161 0.950 . S
H202 C167 0.949 . S
H203 C168 0.950 . S
H204 C172 0.951 . S
H205 C173 0.950 . S
H206 C177 0.949 . S
H207 C178 0.950 . S
H208 C182 0.950 . S
H209 C184 0.950 . S
H210 C187 0.950 . S
H211 C189 0.950 . S
C212 C213 1.443 . S
C212 N216 1.376 . S
C212 C250 1.389 . S
C213 C212 1.443 . S
C213 C214 1.340 . S
C213 H253 0.951 . S
C214 C213 1.340 . S
C214 C215 1.439 . S
C214 H254 0.950 . S
C215 C214 1.439 . S
C215 N216 1.374 . S
C215 C249 1.395 . S
N216 C212 1.376 . S
N216 C215 1.374 . S
N216 Co217 2.008 1_554 S
Co217 N216 2.008 1_556 S
Co217 N218 1.995 1_556 S
Co217 N223 2.008 . S
Co217 N228 1.995 . S
Co217 N233 2.282 . S
Co217 N239 2.282 1_556 S
N218 Co217 1.995 1_554 S
N218 C219 1.376 . S
N218 C222 1.383 . S
C219 N218 1.376 . S
C219 C220 1.446 . S
C219 C249 1.391 . S
C220 C219 1.446 . S
C220 C221 1.339 . S
C220 H255 0.949 . S
C221 C220 1.339 . S
C221 C222 1.439 . S
C221 H256 0.950 . S
C222 N218 1.383 . S
C222 C221 1.439 . S
C222 C251 1.392 1_554 S
N223 Co217 2.008 . S
N223 C224 1.376 . S
N223 C227 1.374 . S
C224 N223 1.376 . S
C224 C225 1.443 . S
C224 C251 1.389 . S
C225 C224 1.443 . S
C225 C226 1.340 . S
C225 H257 0.951 . S
C226 C225 1.340 . S
C226 C227 1.439 . S
C226 H258 0.950 . S
C227 N223 1.374 . S
C227 C226 1.439 . S
C227 C252 1.395 . S
N228 Co217 1.995 . S
N228 C229 1.376 . S
N228 C232 1.383 . S
C229 N228 1.376 . S
C229 C230 1.446 . S
C229 C252 1.391 . S
C230 C229 1.446 . S
C230 C231 1.339 . S
C230 H259 0.949 . S
C231 C230 1.339 . S
C231 C232 1.439 . S
C231 H260 0.950 . S
C232 N228 1.383 . S
C232 C231 1.439 . S
C232 C250 1.392 1_556 S
N233 Co217 2.282 . S
N233 C236 1.332 . S
N233 C238 1.332 1_556 S
C234 C235 1.386 . S
C234 C237 1.388 1_556 S
C235 C234 1.386 . S
C235 C236 1.382 . S
C235 H261 0.950 . S
C236 N233 1.332 . S
C236 C235 1.382 . S
C236 H247 0.952 . S
C237 C234 1.388 1_554 S
C237 C238 1.382 . S
C237 H262 0.950 . S
C238 N233 1.332 1_554 S
C238 C237 1.382 . S
C238 H248 0.948 . S
N239 Co217 2.282 1_554 S
N239 C243 1.332 . S
N239 C244 1.332 1_554 S
C240 C241 1.388 1_556 S
C240 C244 1.382 . S
C240 H263 0.950 . S
C241 C240 1.388 1_554 S
C241 C242 1.386 . S
C242 C241 1.386 . S
C242 C243 1.382 . S
C242 H264 0.950 . S
C243 N239 1.332 . S
C243 C242 1.382 . S
C243 H245 0.952 . S
C244 N239 1.332 1_556 S
C244 C240 1.382 . S
C244 H246 0.948 . S
H245 C243 0.952 . S
H246 C244 0.948 . S
H247 C236 0.952 . S
H248 C238 0.948 . S
C249 C215 1.395 . S
C249 C219 1.391 . S
C250 C212 1.389 . S
C250 C232 1.392 1_554 S
C251 C222 1.392 1_556 S
C251 C224 1.389 . S
C252 C227 1.395 . S
C252 C229 1.391 . S
H253 C213 0.951 . S
H254 C214 0.950 . S
H255 C220 0.949 . S
H256 C221 0.950 . S
H257 C225 0.951 . S
H258 C226 0.950 . S
H259 C230 0.949 . S
H260 C231 0.950 . S
H261 C235 0.950 . S
H262 C237 0.950 . S
H263 C240 0.950 . S
H264 C242 0.950 . S
C265 C266 1.443 . S
C265 N269 1.376 . S
C265 C303 1.389 . S
C266 C265 1.443 . S
C266 C267 1.340 . S
C266 H306 0.951 . S
C267 C266 1.340 . S
C267 C268 1.439 . S
C267 H307 0.950 . S
C268 C267 1.439 . S
C268 N269 1.374 . S
C268 C302 1.395 . S
N269 C265 1.376 . S
N269 C268 1.374 . S
N269 Co270 2.008 . S
Co270 N269 2.008 . S
Co270 N271 1.995 . S
Co270 N276 2.008 . S
Co270 N281 1.995 . S
Co270 N286 2.282 . S
Co270 N292 2.282 . S
N271 Co270 1.995 . S
N271 C272 1.376 . S
N271 C275 1.383 . S
C272 N271 1.376 . S
C272 C273 1.446 . S
C272 C302 1.391 . S
C273 C272 1.446 . S
C273 C274 1.339 . S
C273 H308 0.949 . S
C274 C273 1.339 . S
C274 C275 1.439 . S
C274 H309 0.950 . S
C275 N271 1.383 . S
C275 C274 1.439 . S
C275 C304 1.392 . S
N276 Co270 2.008 . S
N276 C277 1.376 . S
N276 C280 1.374 . S
C277 N276 1.376 . S
C277 C278 1.443 . S
C277 C304 1.389 . S
C278 C277 1.443 . S
C278 C279 1.340 . S
C278 H310 0.951 . S
C279 C278 1.340 . S
C279 C280 1.439 . S
C279 H311 0.950 . S
C280 N276 1.374 . S
C280 C279 1.439 . S
C280 C305 1.395 . S
N281 Co270 1.995 . S
N281 C282 1.376 . S
N281 C285 1.383 . S
C282 N281 1.376 . S
C282 C283 1.446 . S
C282 C305 1.391 . S
C283 C282 1.446 . S
C283 C284 1.339 . S
C283 H312 0.949 . S
C284 C283 1.339 . S
C284 C285 1.439 . S
C284 H313 0.950 . S
C285 N281 1.383 . S
C285 C284 1.439 . S
C285 C303 1.392 . S
N286 Co270 2.282 . S
N286 C289 1.332 . S
N286 C291 1.332 . S
C287 C288 1.386 . S
C287 C290 1.388 . S
C288 C287 1.386 . S
C288 C289 1.382 . S
C288 H314 0.950 . S
C289 N286 1.332 . S
C289 C288 1.382 . S
C289 H300 0.952 . S
C290 C287 1.388 . S
C290 C291 1.382 . S
C290 H315 0.950 . S
C291 N286 1.332 . S
C291 C290 1.382 . S
C291 H301 0.948 . S
N292 Co270 2.282 . S
N292 C296 1.332 . S
N292 C297 1.332 . S
C293 C294 1.388 . S
C293 C297 1.382 . S
C293 H316 0.950 . S
C294 C293 1.388 . S
C294 C295 1.386 . S
C295 C294 1.386 . S
C295 C296 1.382 . S
C295 H317 0.950 . S
C296 N292 1.332 . S
C296 C295 1.382 . S
C296 H298 0.952 . S
C297 N292 1.332 . S
C297 C293 1.382 . S
C297 H299 0.948 . S
H298 C296 0.952 . S
H299 C297 0.948 . S
H300 C289 0.952 . S
H301 C291 0.948 . S
C302 C268 1.395 . S
C302 C272 1.391 . S
C303 C265 1.389 . S
C303 C285 1.392 . S
C304 C275 1.392 . S
C304 C277 1.389 . S
C305 C280 1.395 . S
C305 C282 1.391 . S
H306 C266 0.951 . S
H307 C267 0.950 . S
H308 C273 0.949 . S
H309 C274 0.950 . S
H310 C278 0.951 . S
H311 C279 0.950 . S
H312 C283 0.949 . S
H313 C284 0.950 . S
H314 C288 0.950 . S
H315 C290 0.950 . S
H316 C293 0.950 . S
H317 C295 0.950 . S
C318 C319 1.443 . S
C318 N322 1.376 . S
C318 C356 1.389 . S
C319 C318 1.443 . S
C319 C320 1.340 . S
C319 H359 0.951 . S
C320 C319 1.340 . S
C320 C321 1.439 . S
C320 H360 0.950 . S
C321 C320 1.439 . S
C321 N322 1.374 . S
C321 C355 1.395 . S
N322 C318 1.376 . S
N322 C321 1.374 . S
N322 Co323 2.008 . S
Co323 N322 2.008 . S
Co323 N324 1.995 . S
Co323 N329 2.008 . S
Co323 N334 1.995 . S
Co323 N339 2.282 . S
Co323 N345 2.282 . S
N324 Co323 1.995 . S
N324 C325 1.376 . S
N324 C328 1.383 . S
C325 N324 1.376 . S
C325 C326 1.446 . S
C325 C355 1.391 . S
C326 C325 1.446 . S
C326 C327 1.339 . S
C326 H361 0.949 . S
C327 C326 1.339 . S
C327 C328 1.439 . S
C327 H362 0.950 . S
C328 N324 1.383 . S
C328 C327 1.439 . S
C328 C357 1.392 . S
N329 Co323 2.008 . S
N329 C330 1.376 . S
N329 C333 1.374 . S
C330 N329 1.376 . S
C330 C331 1.443 . S
C330 C357 1.389 . S
C331 C330 1.443 . S
C331 C332 1.340 . S
C331 H363 0.951 . S
C332 C331 1.340 . S
C332 C333 1.439 . S
C332 H364 0.950 . S
C333 N329 1.374 . S
C333 C332 1.439 . S
C333 C358 1.395 . S
N334 Co323 1.995 . S
N334 C335 1.376 . S
N334 C338 1.383 . S
C335 N334 1.376 . S
C335 C336 1.446 . S
C335 C358 1.391 . S
C336 C335 1.446 . S
C336 C337 1.339 . S
C336 H365 0.949 . S
C337 C336 1.339 . S
C337 C338 1.439 . S
C337 H366 0.950 . S
C338 N334 1.383 . S
C338 C337 1.439 . S
C338 C356 1.392 . S
N339 Co323 2.282 . S
N339 C342 1.332 . S
N339 C344 1.332 . S
C340 C341 1.386 . S
C340 C343 1.388 . S
C341 C340 1.386 . S
C341 C342 1.382 . S
C341 H367 0.950 . S
C342 N339 1.332 . S
C342 C341 1.382 . S
C342 H353 0.952 . S
C343 C340 1.388 . S
C343 C344 1.382 . S
C343 H368 0.950 . S
C344 N339 1.332 . S
C344 C343 1.382 . S
C344 H354 0.948 . S
N345 Co323 2.282 . S
N345 C349 1.332 . S
N345 C350 1.332 . S
C346 C347 1.388 . S
C346 C350 1.382 . S
C346 H369 0.950 . S
C347 C346 1.388 . S
C347 C348 1.386 . S
C348 C347 1.386 . S
C348 C349 1.382 . S
C348 H370 0.950 . S
C349 N345 1.332 . S
C349 C348 1.382 . S
C349 H351 0.952 . S
C350 N345 1.332 . S
C350 C346 1.382 . S
C350 H352 0.948 . S
H351 C349 0.952 . S
H352 C350 0.948 . S
H353 C342 0.952 . S
H354 C344 0.948 . S
C355 C321 1.395 . S
C355 C325 1.391 . S
C356 C318 1.389 . S
C356 C338 1.392 . S
C357 C328 1.392 . S
C357 C330 1.389 . S
C358 C333 1.395 . S
C358 C335 1.391 . S
H359 C319 0.951 . S
H360 C320 0.950 . S
H361 C326 0.949 . S
H362 C327 0.950 . S
H363 C331 0.951 . S
H364 C332 0.950 . S
H365 C336 0.949 . S
H366 C337 0.950 . S
H367 C341 0.950 . S
H368 C343 0.950 . S
H369 C346 0.950 . S
H370 C348 0.950 . S
C371 C372 1.443 . S
C371 N375 1.376 . S
C371 C409 1.389 . S
C372 C371 1.443 . S
C372 C373 1.340 . S
C372 H412 0.951 . S
C373 C372 1.340 . S
C373 C374 1.439 . S
C373 H413 0.950 . S
C374 C373 1.439 . S
C374 N375 1.374 . S
C374 C408 1.395 . S
N375 C371 1.376 . S
N375 C374 1.374 . S
N375 Co376 2.008 . S
Co376 N375 2.008 . S
Co376 N377 1.995 . S
Co376 N382 2.008 . S
Co376 N387 1.995 . S
Co376 N392 2.282 . S
Co376 N398 2.282 . S
N377 Co376 1.995 . S
N377 C378 1.376 . S
N377 C381 1.383 . S
C378 N377 1.376 . S
C378 C379 1.446 . S
C378 C408 1.391 . S
C379 C378 1.446 . S
C379 C380 1.339 1_455 S
C379 H414 0.949 . S
C380 C379 1.339 1_655 S
C380 C381 1.439 1_655 S
C380 H415 0.950 . S
C381 N377 1.383 . S
C381 C380 1.439 1_455 S
C381 C410 1.386 1_455 S
N382 Co376 2.008 . S
N382 C383 1.376 . S
N382 C386 1.374 . S
C383 N382 1.376 . S
C383 C384 1.443 . S
C383 C410 1.378 1_455 S
C384 C383 1.443 . S
C384 C385 1.340 . S
C384 H416 0.951 1_455 S
C385 C384 1.340 . S
C385 C386 1.439 . S
C385 H417 0.950 . S
C386 N382 1.374 . S
C386 C385 1.439 . S
C386 C411 1.395 . S
N387 Co376 1.995 . S
N387 C388 1.376 . S
N387 C391 1.383 . S
C388 N387 1.376 . S
C388 C389 1.446 . S
C388 C411 1.391 . S
C389 C388 1.446 . S
C389 C390 1.339 . S
C389 H418 0.949 . S
C390 C389 1.339 . S
C390 C391 1.439 . S
C390 H419 0.950 . S
C391 N387 1.383 . S
C391 C390 1.439 . S
C391 C409 1.392 . S
N392 Co376 2.282 . S
N392 C395 1.332 . S
N392 C397 1.332 . S
C393 C394 1.386 . S
C393 C396 1.388 . S
C394 C393 1.386 . S
C394 C395 1.382 . S
C394 H420 0.950 . S
C395 N392 1.332 . S
C395 C394 1.382 . S
C395 H406 0.952 . S
C396 C393 1.388 . S
C396 C397 1.382 . S
C396 H421 0.950 . S
C397 N392 1.332 . S
C397 C396 1.382 . S
C397 H407 0.948 . S
N398 Co376 2.282 . S
N398 C402 1.332 . S
N398 C403 1.332 . S
C399 C400 1.388 . S
C399 C403 1.382 . S
C399 H422 0.950 . S
C400 C399 1.388 . S
C400 C401 1.386 . S
C401 C400 1.386 . S
C401 C402 1.382 . S
C401 H423 0.950 . S
C402 N398 1.332 . S
C402 C401 1.382 . S
C402 H404 0.952 . S
C403 N398 1.332 . S
C403 C399 1.382 . S
C403 H405 0.948 . S
H404 C402 0.952 . S
H405 C403 0.948 . S
H406 C395 0.952 . S
H407 C397 0.948 . S
C408 C374 1.395 . S
C408 C378 1.391 . S
C409 C371 1.389 . S
C409 C391 1.392 . S
C410 C381 1.386 1_655 S
C410 C383 1.378 1_655 S
C411 C386 1.395 . S
C411 C388 1.391 . S
H412 C372 0.951 . S
H413 C373 0.950 . S
H414 C379 0.949 . S
H415 C380 0.950 . S
H416 C384 0.951 1_655 S
H417 C385 0.950 . S
H418 C389 0.949 . S
H419 C390 0.950 . S
H420 C394 0.950 . S
H421 C396 0.950 . S
H422 C399 0.950 . S
H423 C401 0.950 . S
C424 C425 1.443 . S
C424 N428 1.376 . S
C424 C462 1.389 . S
C425 C424 1.443 . S
C425 C426 1.340 . S
C425 H465 0.951 . S
C426 C425 1.340 . S
C426 C427 1.439 . S
C426 H466 0.950 . S
C427 C426 1.439 . S
C427 N428 1.374 . S
C427 C461 1.395 . S
N428 C424 1.376 . S
N428 C427 1.374 . S
N428 Co429 2.008 . S
Co429 N428 2.008 . S
Co429 N430 1.995 . S
Co429 N435 2.008 . S
Co429 N440 1.995 . S
Co429 N445 2.282 . S
Co429 N451 2.282 . S
N430 Co429 1.995 . S
N430 C431 1.376 . S
N430 C434 1.383 . S
C431 N430 1.376 . S
C431 C432 1.446 . S
C431 C461 1.391 . S
C432 C431 1.446 . S
C432 C433 1.339 . S
C432 H467 0.949 . S
C433 C432 1.339 . S
C433 C434 1.439 . S
C433 H468 0.950 . S
C434 N430 1.383 . S
C434 C433 1.439 . S
C434 C463 1.392 . S
N435 Co429 2.008 . S
N435 C436 1.376 . S
N435 C439 1.374 . S
C436 N435 1.376 . S
C436 C437 1.443 . S
C436 C463 1.389 . S
C437 C436 1.443 . S
C437 C438 1.340 . S
C437 H469 0.951 . S
C438 C437 1.340 . S
C438 C439 1.439 . S
C438 H470 0.950 . S
C439 N435 1.374 . S
C439 C438 1.439 . S
C439 C464 1.395 . S
N440 Co429 1.995 . S
N440 C441 1.376 . S
N440 C444 1.383 . S
C441 N440 1.376 . S
C441 C442 1.446 . S
C441 C464 1.391 . S
C442 C441 1.446 . S
C442 C443 1.339 . S
C442 H471 0.949 . S
C443 C442 1.339 . S
C443 C444 1.439 . S
C443 H472 0.950 . S
C444 N440 1.383 . S
C444 C443 1.439 . S
C444 C462 1.392 . S
N445 Co429 2.282 . S
N445 C448 1.332 . S
N445 C450 1.332 . S
C446 C447 1.386 . S
C446 C449 1.388 . S
C447 C446 1.386 . S
C447 C448 1.382 . S
C447 H473 0.950 . S
C448 N445 1.332 . S
C448 C447 1.382 . S
C448 H459 0.952 . S
C449 C446 1.388 . S
C449 C450 1.382 . S
C449 H474 0.950 . S
C450 N445 1.332 . S
C450 C449 1.382 . S
C450 H460 0.948 . S
N451 Co429 2.282 . S
N451 C455 1.332 . S
N451 C456 1.332 . S
C452 C453 1.388 . S
C452 C456 1.382 . S
C452 H475 0.950 . S
C453 C452 1.388 . S
C453 C454 1.386 . S
C454 C453 1.386 . S
C454 C455 1.382 . S
C454 H476 0.950 . S
C455 N451 1.332 . S
C455 C454 1.382 . S
C455 H457 0.952 . S
C456 N451 1.332 . S
C456 C452 1.382 . S
C456 H458 0.948 . S
H457 C455 0.952 . S
H458 C456 0.948 . S
H459 C448 0.952 . S
H460 C450 0.948 . S
C461 C427 1.395 . S
C461 C431 1.391 . S
C462 C424 1.389 . S
C462 C444 1.392 . S
C463 C434 1.392 . S
C463 C436 1.389 . S
C464 C439 1.395 . S
C464 C441 1.391 . S
H465 C425 0.951 . S
H466 C426 0.950 . S
H467 C432 0.949 . S
H468 C433 0.950 . S
H469 C437 0.951 . S
H470 C438 0.950 . S
H471 C442 0.949 . S
H472 C443 0.950 . S
H473 C447 0.950 . S
H474 C449 0.950 . S
H475 C452 0.950 . S
H476 C454 0.950 . S
C477 C478 1.443 . S
C477 N481 1.376 . S
C477 C515 1.389 . S
C478 C477 1.443 . S
C478 C479 1.340 . S
C478 H518 0.951 . S
C479 C478 1.340 . S
C479 C480 1.439 . S
C479 H519 0.950 . S
C480 C479 1.439 . S
C480 N481 1.374 . S
C480 C514 1.395 . S
N481 C477 1.376 . S
N481 C480 1.374 . S
N481 Co482 2.008 . S
Co482 N481 2.008 . S
Co482 N483 1.995 . S
Co482 N488 2.008 . S
Co482 N493 1.995 . S
Co482 N498 2.282 . S
Co482 N504 2.282 . S
N483 Co482 1.995 . S
N483 C484 1.376 . S
N483 C487 1.383 . S
C484 N483 1.376 . S
C484 C485 1.446 . S
C484 C514 1.391 . S
C485 C484 1.446 . S
C485 C486 1.339 . S
C485 H520 0.949 . S
C486 C485 1.339 . S
C486 C487 1.439 . S
C486 H521 0.950 1_545 S
C487 N483 1.383 . S
C487 C486 1.439 . S
C487 C516 1.392 1_545 S
N488 Co482 2.008 . S
N488 C489 1.376 1_545 S
N488 C492 1.374 . S
C489 N488 1.376 1_565 S
C489 C490 1.443 . S
C489 C516 1.389 . S
C490 C489 1.443 . S
C490 C491 1.340 . S
C490 H522 0.951 . S
C491 C490 1.340 . S
C491 C492 1.439 1_565 S
C491 H523 0.950 . S
C492 N488 1.374 . S
C492 C491 1.439 1_545 S
C492 C517 1.395 . S
N493 Co482 1.995 . S
N493 C494 1.376 . S
N493 C497 1.383 . S
C494 N493 1.376 . S
C494 C495 1.446 . S
C494 C517 1.391 . S
C495 C494 1.446 . S
C495 C496 1.339 . S
C495 H524 0.949 . S
C496 C495 1.339 . S
C496 C497 1.439 . S
C496 H525 0.950 . S
C497 N493 1.383 . S
C497 C496 1.439 . S
C497 C515 1.392 . S
N498 Co482 2.282 . S
N498 C501 1.332 1_545 S
N498 C503 1.332 1_545 S
C499 C500 1.386 . S
C499 C502 1.388 . S
C500 C499 1.386 . S
C500 C501 1.382 . S
C500 H526 0.950 . S
C501 N498 1.332 1_565 S
C501 C500 1.382 . S
C501 H512 0.952 . S
C502 C499 1.388 . S
C502 C503 1.382 . S
C502 H527 0.950 . S
C503 N498 1.332 1_565 S
C503 C502 1.382 . S
C503 H513 0.948 1_565 S
N504 Co482 2.282 . S
N504 C508 1.332 . S
N504 C509 1.332 . S
C505 C506 1.388 . S
C505 C509 1.382 . S
C505 H528 0.950 . S
C506 C505 1.388 . S
C506 C507 1.386 . S
C507 C506 1.386 . S
C507 C508 1.382 . S
C507 H529 0.950 . S
C508 N504 1.332 . S
C508 C507 1.382 . S
C508 H510 0.952 . S
C509 N504 1.332 . S
C509 C505 1.382 . S
C509 H511 0.948 . S
H510 C508 0.952 . S
H511 C509 0.948 . S
H512 C501 0.952 . S
H513 C503 0.948 1_545 S
C514 C480 1.395 . S
C514 C484 1.391 . S
C515 C477 1.389 . S
C515 C497 1.392 . S
C516 C487 1.392 1_565 S
C516 C489 1.389 . S
C517 C492 1.395 . S
C517 C494 1.391 . S
H518 C478 0.951 . S
H519 C479 0.950 . S
H520 C485 0.949 . S
H521 C486 0.950 1_565 S
H522 C490 0.951 . S
H523 C491 0.950 . S
H524 C495 0.949 . S
H525 C496 0.950 . S
H526 C500 0.950 . S
H527 C502 0.950 . S
H528 C505 0.950 . S
H529 C507 0.950 . S
C530 C531 1.443 . S
C530 N534 1.376 . S
C530 C568 1.389 . S
C531 C530 1.443 . S
C531 C532 1.340 . S
C531 H571 0.951 . S
C532 C531 1.340 . S
C532 C533 1.439 . S
C532 H572 0.950 . S
C533 C532 1.439 . S
C533 N534 1.374 . S
C533 C567 1.395 . S
N534 C530 1.376 . S
N534 C533 1.374 . S
N534 Co535 2.008 1_556 S
Co535 N534 2.008 1_554 S
Co535 N536 1.995 1_554 S
Co535 N541 2.008 . S
Co535 N546 1.995 . S
Co535 N551 2.282 . S
Co535 N557 2.282 1_554 S
N536 Co535 1.995 1_556 S
N536 C537 1.376 . S
N536 C540 1.383 . S
C537 N536 1.376 . S
C537 C538 1.446 . S
C537 C567 1.391 . S
C538 C537 1.446 . S
C538 C539 1.339 . S
C538 H573 0.949 . S
C539 C538 1.339 . S
C539 C540 1.439 . S
C539 H574 0.950 . S
C540 N536 1.383 . S
C540 C539 1.439 . S
C540 C569 1.392 1_556 S
N541 Co535 2.008 . S
N541 C542 1.376 . S
N541 C545 1.374 . S
C542 N541 1.376 . S
C542 C543 1.443 . S
C542 C569 1.389 . S
C543 C542 1.443 . S
C543 C544 1.340 . S
C543 H575 0.951 . S
C544 C543 1.340 . S
C544 C545 1.439 . S
C544 H576 0.950 . S
C545 N541 1.374 . S
C545 C544 1.439 . S
C545 C570 1.395 . S
N546 Co535 1.995 . S
N546 C547 1.376 . S
N546 C550 1.383 . S
C547 N546 1.376 . S
C547 C548 1.446 . S
C547 C570 1.391 . S
C548 C547 1.446 . S
C548 C549 1.339 . S
C548 H577 0.949 . S
C549 C548 1.339 . S
C549 C550 1.439 . S
C549 H578 0.950 . S
C550 N546 1.383 . S
C550 C549 1.439 . S
C550 C568 1.392 1_554 S
N551 Co535 2.282 . S
N551 C554 1.332 . S
N551 C556 1.332 1_554 S
C552 C553 1.386 . S
C552 C555 1.388 1_554 S
C553 C552 1.386 . S
C553 C554 1.382 . S
C553 H579 0.950 . S
C554 N551 1.332 . S
C554 C553 1.382 . S
C554 H565 0.952 . S
C555 C552 1.388 1_556 S
C555 C556 1.382 . S
C555 H580 0.950 . S
C556 N551 1.332 1_556 S
C556 C555 1.382 . S
C556 H566 0.948 . S
N557 Co535 2.282 1_556 S
N557 C561 1.332 . S
N557 C562 1.332 1_556 S
C558 C559 1.388 1_554 S
C558 C562 1.382 . S
C558 H581 0.950 . S
C559 C558 1.388 1_556 S
C559 C560 1.386 . S
C560 C559 1.386 . S
C560 C561 1.382 . S
C560 H582 0.950 . S
C561 N557 1.332 . S
C561 C560 1.382 . S
C561 H563 0.952 . S
C562 N557 1.332 1_554 S
C562 C558 1.382 . S
C562 H564 0.948 . S
H563 C561 0.952 . S
H564 C562 0.948 . S
H565 C554 0.952 . S
H566 C556 0.948 . S
C567 C533 1.395 . S
C567 C537 1.391 . S
C568 C530 1.389 . S
C568 C550 1.392 1_556 S
C569 C540 1.392 1_554 S
C569 C542 1.389 . S
C570 C545 1.395 . S
C570 C547 1.391 . S
H571 C531 0.951 . S
H572 C532 0.950 . S
H573 C538 0.949 . S
H574 C539 0.950 . S
H575 C543 0.951 . S
H576 C544 0.950 . S
H577 C548 0.949 . S
H578 C549 0.950 . S
H579 C553 0.950 . S
H580 C555 0.950 . S
H581 C558 0.950 . S
H582 C560 0.950 . S
C583 C584 1.443 . S
C583 N587 1.376 . S
C583 C621 1.389 . S
C584 C583 1.443 . S
C584 C585 1.340 . S
C584 H624 0.951 . S
C585 C584 1.340 . S
C585 C586 1.439 . S
C585 H625 0.950 . S
C586 C585 1.439 . S
C586 N587 1.374 . S
C586 C620 1.395 . S
N587 C583 1.376 . S
N587 C586 1.374 . S
N587 Co588 2.008 . S
Co588 N587 2.008 . S
Co588 N589 1.995 . S
Co588 N594 2.008 . S
Co588 N599 1.995 . S
Co588 N604 2.282 . S
Co588 N610 2.282 . S
N589 Co588 1.995 . S
N589 C590 1.376 . S
N589 C593 1.383 . S
C590 N589 1.376 . S
C590 C591 1.446 . S
C590 C620 1.391 . S
C591 C590 1.446 . S
C591 C592 1.339 . S
C591 H626 0.949 . S
C592 C591 1.339 . S
C592 C593 1.439 . S
C592 H627 0.950 1_565 S
C593 N589 1.383 . S
C593 C592 1.439 . S
C593 C622 1.392 1_565 S
N594 Co588 2.008 . S
N594 C595 1.376 1_565 S
N594 C598 1.374 . S
C595 N594 1.376 1_545 S
C595 C596 1.443 . S
C595 C622 1.389 . S
C596 C595 1.443 . S
C596 C597 1.340 . S
C596 H628 0.951 . S
C597 C596 1.340 . S
C597 C598 1.439 1_545 S
C597 H629 0.950 . S
C598 N594 1.374 . S
C598 C597 1.439 1_565 S
C598 C623 1.395 . S
N599 Co588 1.995 . S
N599 C600 1.376 . S
N599 C603 1.383 . S
C600 N599 1.376 . S
C600 C601 1.446 . S
C600 C623 1.391 . S
C601 C600 1.446 . S
C601 C602 1.339 . S
C601 H630 0.949 . S
C602 C601 1.339 . S
C602 C603 1.439 . S
C602 H631 0.950 . S
C603 N599 1.383 . S
C603 C602 1.439 . S
C603 C621 1.392 . S
N604 Co588 2.282 . S
N604 C607 1.332 1_565 S
N604 C609 1.332 1_565 S
C605 C606 1.386 . S
C605 C608 1.388 . S
C606 C605 1.386 . S
C606 C607 1.382 . S
C606 H632 0.950 . S
C607 N604 1.332 1_545 S
C607 C606 1.382 . S
C607 H618 0.952 . S
C608 C605 1.388 . S
C608 C609 1.382 . S
C608 H633 0.950 . S
C609 N604 1.332 1_545 S
C609 C608 1.382 . S
C609 H619 0.948 1_545 S
N610 Co588 2.282 . S
N610 C614 1.332 . S
N610 C615 1.332 . S
C611 C612 1.388 . S
C611 C615 1.382 . S
C611 H634 0.950 . S
C612 C611 1.388 . S
C612 C613 1.386 . S
C613 C612 1.386 . S
C613 C614 1.382 . S
C613 H635 0.950 . S
C614 N610 1.332 . S
C614 C613 1.382 . S
C614 H616 0.952 . S
C615 N610 1.332 . S
C615 C611 1.382 . S
C615 H617 0.948 . S
H616 C614 0.952 . S
H617 C615 0.948 . S
H618 C607 0.952 . S
H619 C609 0.948 1_565 S
C620 C586 1.395 . S
C620 C590 1.391 . S
C621 C583 1.389 . S
C621 C603 1.392 . S
C622 C593 1.392 1_545 S
C622 C595 1.389 . S
C623 C598 1.395 . S
C623 C600 1.391 . S
H624 C584 0.951 . S
H625 C585 0.950 . S
H626 C591 0.949 . S
H627 C592 0.950 1_545 S
H628 C596 0.951 . S
H629 C597 0.950 . S
H630 C601 0.949 . S
H631 C602 0.950 . S
H632 C606 0.950 . S
H633 C608 0.950 . S
H634 C611 0.950 . S
H635 C613 0.950 . S
C636 C637 1.443 . S
C636 N640 1.376 . S
C636 C674 1.389 . S
C637 C636 1.443 . S
C637 C638 1.340 . S
C637 H677 0.951 . S
C638 C637 1.340 . S
C638 C639 1.439 . S
C638 H678 0.950 . S
C639 C638 1.439 . S
C639 N640 1.374 . S
C639 C673 1.395 . S
N640 C636 1.376 . S
N640 C639 1.374 . S
N640 Co641 2.008 . S
Co641 N640 2.008 . S
Co641 N642 1.995 . S
Co641 N647 2.008 . S
Co641 N652 1.995 . S
Co641 N657 2.282 . S
Co641 N663 2.282 . S
N642 Co641 1.995 . S
N642 C643 1.376 . S
N642 C646 1.383 . S
C643 N642 1.376 . S
C643 C644 1.446 . S
C643 C673 1.391 . S
C644 C643 1.446 . S
C644 C645 1.339 . S
C644 H679 0.949 . S
C645 C644 1.339 . S
C645 C646 1.439 . S
C645 H680 0.950 . S
C646 N642 1.383 . S
C646 C645 1.439 . S
C646 C675 1.392 . S
N647 Co641 2.008 . S
N647 C648 1.376 . S
N647 C651 1.374 . S
C648 N647 1.376 . S
C648 C649 1.443 . S
C648 C675 1.389 . S
C649 C648 1.443 . S
C649 C650 1.340 . S
C649 H681 0.951 . S
C650 C649 1.340 . S
C650 C651 1.439 . S
C650 H682 0.950 . S
C651 N647 1.374 . S
C651 C650 1.439 . S
C651 C676 1.395 . S
N652 Co641 1.995 . S
N652 C653 1.376 . S
N652 C656 1.383 . S
C653 N652 1.376 . S
C653 C654 1.446 . S
C653 C676 1.391 . S
C654 C653 1.446 . S
C654 C655 1.339 . S
C654 H683 0.949 . S
C655 C654 1.339 . S
C655 C656 1.439 . S
C655 H684 0.950 . S
C656 N652 1.383 . S
C656 C655 1.439 . S
C656 C674 1.392 . S
N657 Co641 2.282 . S
N657 C660 1.332 . S
N657 C662 1.332 . S
C658 C659 1.386 . S
C658 C661 1.388 . S
C659 C658 1.386 . S
C659 C660 1.382 . S
C659 H685 0.950 . S
C660 N657 1.332 . S
C660 C659 1.382 . S
C660 H671 0.952 . S
C661 C658 1.388 . S
C661 C662 1.382 . S
C661 H686 0.950 . S
C662 N657 1.332 . S
C662 C661 1.382 . S
C662 H672 0.948 . S
N663 Co641 2.282 . S
N663 C667 1.332 . S
N663 C668 1.332 . S
C664 C665 1.388 . S
C664 C668 1.382 . S
C664 H687 0.950 . S
C665 C664 1.388 . S
C665 C666 1.386 . S
C666 C665 1.386 . S
C666 C667 1.382 . S
C666 H688 0.950 . S
C667 N663 1.332 . S
C667 C666 1.382 . S
C667 H669 0.952 . S
C668 N663 1.332 . S
C668 C664 1.382 . S
C668 H670 0.948 . S
H669 C667 0.952 . S
H670 C668 0.948 . S
H671 C660 0.952 . S
H672 C662 0.948 . S
C673 C639 1.395 . S
C673 C643 1.391 . S
C674 C636 1.389 . S
C674 C656 1.392 . S
C675 C646 1.392 . S
C675 C648 1.389 . S
C676 C651 1.395 . S
C676 C653 1.391 . S
H677 C637 0.951 . S
H678 C638 0.950 . S
H679 C644 0.949 . S
H680 C645 0.950 . S
H681 C649 0.951 . S
H682 C650 0.950 . S
H683 C654 0.949 . S
H684 C655 0.950 . S
H685 C659 0.950 . S
H686 C661 0.950 . S
H687 C664 0.950 . S
H688 C666 0.950 . S
C689 C690 1.443 . S
C689 N693 1.376 . S
C689 C727 1.389 . S
C690 C689 1.443 . S
C690 C691 1.340 . S
C690 H730 0.951 . S
C691 C690 1.340 . S
C691 C692 1.439 . S
C691 H731 0.950 . S
C692 C691 1.439 . S
C692 N693 1.374 . S
C692 C726 1.395 . S
N693 C689 1.376 . S
N693 C692 1.374 . S
N693 Co694 2.008 . S
Co694 N693 2.008 . S
Co694 N695 1.995 . S
Co694 N700 2.008 . S
Co694 N705 1.995 . S
Co694 N710 2.260 1_565 S
Co694 N716 2.282 . S
N695 Co694 1.995 . S
N695 C696 1.376 . S
N695 C699 1.383 1_565 S
C696 N695 1.376 . S
C696 C697 1.446 1_565 S
C696 C726 1.391 . S
C697 C696 1.446 1_545 S
C697 C698 1.339 1_655 S
C697 H732 0.949 . S
C698 C697 1.339 1_455 S
C698 C699 1.439 1_455 S
C698 H733 0.950 . S
C699 N695 1.383 1_545 S
C699 C698 1.439 1_655 S
C699 C728 1.386 1_655 S
N700 Co694 2.008 . S
N700 C701 1.376 . S
N700 C704 1.374 . S
C701 N700 1.376 . S
C701 C702 1.443 1_565 S
C701 C728 1.378 1_665 S
C702 C701 1.443 1_545 S
C702 C703 1.340 1_545 S
C702 H734 0.951 1_655 S
C703 C702 1.340 1_565 S
C703 C704 1.439 . S
C703 H735 0.950 . S
C704 N700 1.374 . S
C704 C703 1.439 . S
C704 C729 1.395 . S
N705 Co694 1.995 . S
N705 C706 1.376 . S
N705 C709 1.383 . S
C706 N705 1.376 . S
C706 C707 1.446 . S
C706 C729 1.391 . S
C707 C706 1.446 . S
C707 C708 1.339 . S
C707 H736 0.949 . S
C708 C707 1.339 . S
C708 C709 1.439 . S
C708 H737 0.950 . S
C709 N705 1.383 . S
C709 C708 1.439 . S
C709 C727 1.392 . S
N710 Co694 2.260 1_545 S
N710 C713 1.338 . S
N710 C715 1.352 . S
C711 C712 1.386 . S
C711 C714 1.388 . S
C712 C711 1.386 . S
C712 C713 1.382 . S
C712 H738 0.950 . S
C713 N710 1.338 . S
C713 C712 1.382 . S
C713 H724 0.952 1_545 S
C714 C711 1.388 . S
C714 C715 1.382 . S
C714 H739 0.950 . S
C715 N710 1.352 . S
C715 C714 1.382 . S
C715 H725 0.948 . S
N716 Co694 2.282 . S
N716 C720 1.332 . S
N716 C721 1.332 . S
C717 C718 1.388 . S
C717 C721 1.382 . S
C717 H740 0.950 . S
C718 C717 1.388 . S
C718 C719 1.386 . S
C719 C718 1.386 . S
C719 C720 1.382 . S
C719 H741 0.950 . S
C720 N716 1.332 . S
C720 C719 1.382 . S
C720 H722 0.952 . S
C721 N716 1.332 . S
C721 C717 1.382 . S
C721 H723 0.948 . S
H722 C720 0.952 . S
H723 C721 0.948 . S
H724 C713 0.952 1_565 S
H725 C715 0.948 . S
C726 C692 1.395 . S
C726 C696 1.391 . S
C727 C689 1.389 . S
C727 C709 1.392 . S
C728 C699 1.386 1_455 S
C728 C701 1.378 1_445 S
C729 C704 1.395 . S
C729 C706 1.391 . S
H730 C690 0.951 . S
H731 C691 0.950 . S
H732 C697 0.949 . S
H733 C698 0.950 . S
H734 C702 0.951 1_455 S
H735 C703 0.950 . S
H736 C707 0.949 . S
H737 C708 0.950 . S
H738 C712 0.950 . S
H739 C714 0.950 . S
H740 C717 0.950 . S
H741 C719 0.950 . S
C742 C743 1.443 . S
C742 N746 1.376 . S
C742 C780 1.389 . S
C743 C742 1.443 . S
C743 C744 1.340 . S
C743 H783 0.951 . S
C744 C743 1.340 . S
C744 C745 1.439 . S
C744 H784 0.950 . S
C745 C744 1.439 . S
C745 N746 1.374 . S
C745 C779 1.395 . S
N746 C742 1.376 . S
N746 C745 1.374 . S
N746 Co747 2.008 1_554 S
Co747 N746 2.008 1_556 S
Co747 N748 1.995 1_556 S
Co747 N753 2.008 . S
Co747 N758 1.995 . S
Co747 N763 2.282 . S
Co747 N769 2.282 1_556 S
N748 Co747 1.995 1_554 S
N748 C749 1.376 . S
N748 C752 1.383 . S
C749 N748 1.376 . S
C749 C750 1.446 . S
C749 C779 1.391 . S
C750 C749 1.446 . S
C750 C751 1.339 . S
C750 H785 0.949 . S
C751 C750 1.339 . S
C751 C752 1.439 . S
C751 H786 0.950 . S
C752 N748 1.383 . S
C752 C751 1.439 . S
C752 C781 1.392 1_554 S
N753 Co747 2.008 . S
N753 C754 1.376 . S
N753 C757 1.374 . S
C754 N753 1.376 . S
C754 C755 1.443 . S
C754 C781 1.389 . S
C755 C754 1.443 . S
C755 C756 1.340 . S
C755 H787 0.951 . S
C756 C755 1.340 . S
C756 C757 1.439 . S
C756 H788 0.950 . S
C757 N753 1.374 . S
C757 C756 1.439 . S
C757 C782 1.395 . S
N758 Co747 1.995 . S
N758 C759 1.376 . S
N758 C762 1.383 . S
C759 N758 1.376 . S
C759 C760 1.446 . S
C759 C782 1.391 . S
C760 C759 1.446 . S
C760 C761 1.339 . S
C760 H789 0.949 . S
C761 C760 1.339 . S
C761 C762 1.439 . S
C761 H790 0.950 . S
C762 N758 1.383 . S
C762 C761 1.439 . S
C762 C780 1.392 1_556 S
N763 Co747 2.282 . S
N763 C766 1.332 . S
N763 C768 1.332 1_556 S
C764 C765 1.386 . S
C764 C767 1.388 1_556 S
C765 C764 1.386 . S
C765 C766 1.382 . S
C765 H791 0.950 . S
C766 N763 1.332 . S
C766 C765 1.382 . S
C766 H777 0.952 . S
C767 C764 1.388 1_554 S
C767 C768 1.382 . S
C767 H792 0.950 . S
C768 N763 1.332 1_554 S
C768 C767 1.382 . S
C768 H778 0.948 . S
N769 Co747 2.282 1_554 S
N769 C773 1.332 . S
N769 C774 1.332 1_554 S
C770 C771 1.388 1_556 S
C770 C774 1.382 . S
C770 H793 0.950 . S
C771 C770 1.388 1_554 S
C771 C772 1.386 . S
C772 C771 1.386 . S
C772 C773 1.382 . S
C772 H794 0.950 . S
C773 N769 1.332 . S
C773 C772 1.382 . S
C773 H775 0.952 . S
C774 N769 1.332 1_556 S
C774 C770 1.382 . S
C774 H776 0.948 . S
H775 C773 0.952 . S
H776 C774 0.948 . S
H777 C766 0.952 . S
H778 C768 0.948 . S
C779 C745 1.395 . S
C779 C749 1.391 . S
C780 C742 1.389 . S
C780 C762 1.392 1_554 S
C781 C752 1.392 1_556 S
C781 C754 1.389 . S
C782 C757 1.395 . S
C782 C759 1.391 . S
H783 C743 0.951 . S
H784 C744 0.950 . S
H785 C750 0.949 . S
H786 C751 0.950 . S
H787 C755 0.951 . S
H788 C756 0.950 . S
H789 C760 0.949 . S
H790 C761 0.950 . S
H791 C765 0.950 . S
H792 C767 0.950 . S
H793 C770 0.950 . S
H794 C772 0.950 . S
C795 C796 1.443 . S
C795 N799 1.376 . S
C795 C833 1.389 . S
C796 C795 1.443 . S
C796 C797 1.340 . S
C796 H836 0.951 . S
C797 C796 1.340 . S
C797 C798 1.439 . S
C797 H837 0.950 . S
C798 C797 1.439 . S
C798 N799 1.374 . S
C798 C832 1.395 . S
N799 C795 1.376 . S
N799 C798 1.374 . S
N799 Co800 2.008 . S
Co800 N799 2.008 . S
Co800 N801 1.995 . S
Co800 N806 2.008 . S
Co800 N811 1.995 . S
Co800 N816 2.260 1_545 S
Co800 N822 2.282 . S
N801 Co800 1.995 . S
N801 C802 1.376 . S
N801 C805 1.383 1_545 S
C802 N801 1.376 . S
C802 C803 1.446 1_545 S
C802 C832 1.391 . S
C803 C802 1.446 1_565 S
C803 C804 1.339 . S
C803 H838 0.949 . S
C804 C803 1.339 . S
C804 C805 1.439 . S
C804 H839 0.950 . S
C805 N801 1.383 1_565 S
C805 C804 1.439 . S
C805 C834 1.392 . S
N806 Co800 2.008 . S
N806 C807 1.376 . S
N806 C810 1.374 . S
C807 N806 1.376 . S
C807 C808 1.443 1_545 S
C807 C834 1.389 1_545 S
C808 C807 1.443 1_565 S
C808 C809 1.340 1_565 S
C808 H840 0.951 . S
C809 C808 1.340 1_545 S
C809 C810 1.439 . S
C809 H841 0.950 . S
C810 N806 1.374 . S
C810 C809 1.439 . S
C810 C835 1.395 . S
N811 Co800 1.995 . S
N811 C812 1.376 . S
N811 C815 1.383 . S
C812 N811 1.376 . S
C812 C813 1.446 . S
C812 C835 1.391 . S
C813 C812 1.446 . S
C813 C814 1.339 . S
C813 H842 0.949 . S
C814 C813 1.339 . S
C814 C815 1.439 . S
C814 H843 0.950 . S
C815 N811 1.383 . S
C815 C814 1.439 . S
C815 C833 1.392 . S
N816 Co800 2.260 1_565 S
N816 C819 1.338 . S
N816 C821 1.352 . S
C817 C818 1.386 . S
C817 C820 1.388 . S
C818 C817 1.386 . S
C818 C819 1.382 . S
C818 H844 0.950 . S
C819 N816 1.338 . S
C819 C818 1.382 . S
C819 H830 0.952 1_565 S
C820 C817 1.388 . S
C820 C821 1.382 . S
C820 H845 0.950 . S
C821 N816 1.352 . S
C821 C820 1.382 . S
C821 H831 0.948 . S
N822 Co800 2.282 . S
N822 C826 1.332 . S
N822 C827 1.332 . S
C823 C824 1.388 . S
C823 C827 1.382 . S
C823 H846 0.950 . S
C824 C823 1.388 . S
C824 C825 1.386 . S
C825 C824 1.386 . S
C825 C826 1.382 . S
C825 H847 0.950 . S
C826 N822 1.332 . S
C826 C825 1.382 . S
C826 H828 0.952 . S
C827 N822 1.332 . S
C827 C823 1.382 . S
C827 H829 0.948 . S
H828 C826 0.952 . S
H829 C827 0.948 . S
H830 C819 0.952 1_545 S
H831 C821 0.948 . S
C832 C798 1.395 . S
C832 C802 1.391 . S
C833 C795 1.389 . S
C833 C815 1.392 . S
C834 C805 1.392 . S
C834 C807 1.389 1_565 S
C835 C810 1.395 . S
C835 C812 1.391 . S
H836 C796 0.951 . S
H837 C797 0.950 . S
H838 C803 0.949 . S
H839 C804 0.950 . S
H840 C808 0.951 . S
H841 C809 0.950 . S
H842 C813 0.949 . S
H843 C814 0.950 . S
H844 C818 0.950 . S
H845 C820 0.950 . S
H846 C823 0.950 . S
H847 C825 0.950 . S
H848 C854 0.930 . S
H849 C857 0.930 1_545 S
H850 C858 0.930 . S
H851 C859 0.930 . S
H852 C862 0.930 . S
H853 C863 0.930 . S
C854 H848 0.930 . S
C854 C855 1.355 . S
C854 C856 1.415 1_554 S
C855 C854 1.355 . S
C855 C857 1.419 . S
C856 C854 1.415 1_556 S
C856 C861 1.425 . S
C856 C863 1.409 . S
C857 H849 0.930 1_565 S
C857 C855 1.419 . S
C857 C858 1.362 1_565 S
C858 H850 0.930 . S
C858 C857 1.362 1_545 S
C858 C861 1.409 1_544 S
C859 H851 0.930 . S
C859 C860 1.355 . S
C859 C861 1.415 1_545 S
C860 C859 1.355 . S
C860 C862 1.419 1_545 S
C861 C856 1.425 . S
C861 C858 1.409 1_566 S
C861 C859 1.415 1_565 S
C862 H852 0.930 . S
C862 C860 1.419 1_565 S
C862 C863 1.362 . S
C863 H853 0.930 . S
C863 C856 1.409 . S
C863 C862 1.362 . S
H864 C870 0.930 . S
H865 C873 0.930 . S
H866 C874 0.930 . S
H867 C875 0.930 . S
H868 C878 0.930 . S
H869 C879 0.930 . S
C870 H864 0.930 . S
C870 C871 1.355 . S
C870 C872 1.415 . S
C871 C870 1.355 . S
C871 C873 1.419 . S
C872 C870 1.415 . S
C872 C877 1.425 . S
C872 C879 1.409 . S
C873 H865 0.930 . S
C873 C871 1.419 . S
C873 C874 1.362 . S
C874 H866 0.930 . S
C874 C873 1.362 . S
C874 C877 1.409 . S
C875 H867 0.930 . S
C875 C876 1.355 . S
C875 C877 1.415 . S
C876 C875 1.355 . S
C876 C878 1.419 . S
C877 C872 1.425 . S
C877 C874 1.409 . S
C877 C875 1.415 . S
C878 H868 0.930 . S
C878 C876 1.419 . S
C878 C879 1.362 . S
C879 H869 0.930 . S
C879 C872 1.409 . S
C879 C878 1.362 . S
H880 C886 0.930 . S
H881 C889 0.930 1_455 S
H882 C890 0.930 . S
H883 C891 0.944 . S
H884 C894 0.930 . S
H885 C895 0.930 . S
C886 H880 0.930 . S
C886 C887 1.355 1_545 S
C886 C888 1.415 1_455 S
C887 C886 1.355 1_565 S
C887 C889 1.419 1_455 S
C888 C886 1.415 1_655 S
C888 C893 1.425 . S
C888 C895 1.409 . S
C889 H881 0.930 1_655 S
C889 C887 1.419 1_655 S
C889 C890 1.362 . S
C890 H882 0.930 . S
C890 C889 1.362 . S
C890 C893 1.409 1_565 S
C891 H883 0.944 . S
C891 C892 1.355 . S
C891 C893 1.415 . S
C892 C891 1.355 . S
C892 C894 1.419 . S
C893 C888 1.425 . S
C893 C890 1.409 1_545 S
C893 C891 1.415 . S
C894 H884 0.930 . S
C894 C892 1.419 . S
C894 C895 1.362 . S
C895 H885 0.930 . S
C895 C888 1.409 . S
C895 C894 1.362 . S
H896 C902 0.930 . S
H897 C905 0.930 . S
H898 C906 0.930 . S
H899 C907 0.930 . S
H900 C910 0.930 . S
H901 C911 0.930 . S
C902 H896 0.930 . S
C902 C903 1.355 . S
C902 C904 1.415 . S
C903 C902 1.355 . S
C903 C905 1.419 . S
C904 C902 1.415 . S
C904 C909 1.425 . S
C904 C911 1.409 . S
C905 H897 0.930 . S
C905 C903 1.419 . S
C905 C906 1.362 . S
C906 H898 0.930 . S
C906 C905 1.362 . S
C906 C909 1.409 . S
C907 H899 0.930 . S
C907 C908 1.355 . S
C907 C909 1.415 . S
C908 C907 1.355 . S
C908 C910 1.419 . S
C909 C904 1.425 . S
C909 C906 1.409 . S
C909 C907 1.415 . S
C910 H900 0.930 . S
C910 C908 1.419 . S
C910 C911 1.362 . S
C911 H901 0.930 . S
C911 C904 1.409 . S
C911 C910 1.362 . S
H912 C918 0.930 . S
H913 C921 0.930 . S
H914 C922 0.930 . S
H915 C923 0.930 . S
H916 C926 0.930 . S
H917 C927 0.930 . S
C918 H912 0.930 . S
C918 C919 1.355 . S
C918 C920 1.415 . S
C919 C918 1.355 . S
C919 C921 1.419 . S
C920 C918 1.415 . S
C920 C925 1.425 . S
C920 C927 1.409 . S
C921 H913 0.930 . S
C921 C919 1.419 . S
C921 C922 1.362 . S
C922 H914 0.930 . S
C922 C921 1.362 . S
C922 C925 1.409 . S
C923 H915 0.930 . S
C923 C924 1.355 . S
C923 C925 1.415 . S
C924 C923 1.355 . S
C924 C926 1.419 . S
C925 C920 1.425 . S
C925 C922 1.409 . S
C925 C923 1.415 . S
C926 H916 0.930 . S
C926 C924 1.419 . S
C926 C927 1.362 . S
C927 H917 0.930 . S
C927 C920 1.409 . S
C927 C926 1.362 . S
H928 C934 0.930 . S
H929 C937 0.930 . S
H930 C938 0.930 . S
H931 C939 0.930 . S
H932 C942 0.930 . S
H933 C943 0.930 . S
C934 H928 0.930 . S
C934 C935 1.355 . S
C934 C936 1.415 . S
C935 C934 1.355 . S
C935 C937 1.419 . S
C936 C934 1.415 . S
C936 C941 1.425 . S
C936 C943 1.409 . S
C937 H929 0.930 . S
C937 C935 1.419 . S
C937 C938 1.362 . S
C938 H930 0.930 . S
C938 C937 1.362 . S
C938 C941 1.409 . S
C939 H931 0.930 . S
C939 C940 1.355 . S
C939 C941 1.415 . S
C940 C939 1.355 . S
C940 C942 1.419 . S
C941 C936 1.425 . S
C941 C938 1.409 . S
C941 C939 1.415 . S
C942 H932 0.930 . S
C942 C940 1.419 . S
C942 C943 1.362 . S
C943 H933 0.930 . S
C943 C936 1.409 . S
C943 C942 1.362 . S
H944 C950 0.930 . S
H945 C953 0.930 . S
H946 C954 0.930 . S
H947 C955 0.930 . S
H948 C958 0.930 . S
H949 C959 0.930 . S
C950 H944 0.930 . S
C950 C951 1.355 . S
C950 C952 1.415 1_655 S
C951 C950 1.355 . S
C951 C953 1.419 1_655 S
C952 C950 1.415 1_455 S
C952 C957 1.425 . S
C952 C959 1.409 . S
C953 H945 0.930 . S
C953 C951 1.419 1_455 S
C953 C954 1.362 . S
C954 H946 0.930 . S
C954 C953 1.362 . S
C954 C957 1.409 . S
C955 H947 0.930 . S
C955 C956 1.355 . S
C955 C957 1.415 . S
C956 C955 1.355 . S
C956 C958 1.419 . S
C957 C952 1.425 . S
C957 C954 1.409 . S
C957 C955 1.415 . S
C958 H948 0.930 . S
C958 C956 1.419 . S
C958 C959 1.362 . S
C959 H949 0.930 . S
C959 C952 1.409 . S
C959 C958 1.362 . S
H960 C966 0.930 . S
H961 C969 0.930 . S
H962 C970 0.930 . S
H963 C971 0.930 . S
H964 C974 0.930 . S
H965 C975 0.930 . S
C966 H960 0.930 . S
C966 C967 1.355 1_556 S
C966 C968 1.415 . S
C967 C966 1.355 1_554 S
C967 C969 1.419 . S
C968 C966 1.415 . S
C968 C973 1.425 1_556 S
C968 C975 1.409 . S
C969 H961 0.930 . S
C969 C967 1.419 . S
C969 C970 1.362 . S
C970 H962 0.930 . S
C970 C969 1.362 . S
C970 C973 1.409 . S
C971 H963 0.930 . S
C971 C972 1.355 1_554 S
C971 C973 1.415 . S
C972 C971 1.355 1_556 S
C972 C974 1.419 . S
C973 C968 1.425 1_554 S
C973 C970 1.409 . S
C973 C971 1.415 . S
C974 H964 0.930 . S
C974 C972 1.419 . S
C974 C975 1.362 . S
C975 H965 0.930 . S
C975 C968 1.409 . S
C975 C974 1.362 . S
H976 C982 0.930 . S
H977 C985 0.930 . S
H978 C986 0.930 . S
H979 C987 0.930 . S
H980 C990 0.930 . S
H981 C991 0.930 . S
C982 H976 0.930 . S
C982 C983 1.355 . S
C982 C984 1.415 . S
C983 C982 1.355 . S
C983 C985 1.419 . S
C984 C982 1.415 . S
C984 C989 1.425 . S
C984 C991 1.409 . S
C985 H977 0.930 . S
C985 C983 1.419 . S
C985 C986 1.362 . S
C986 H978 0.930 . S
C986 C985 1.362 . S
C986 C989 1.409 . S
C987 H979 0.930 . S
C987 C988 1.355 . S
C987 C989 1.415 . S
C988 C987 1.355 . S
C988 C990 1.419 . S
C989 C984 1.425 . S
C989 C986 1.409 . S
C989 C987 1.415 . S
C990 H980 0.930 . S
C990 C988 1.419 . S
C990 C991 1.362 . S
C991 H981 0.930 . S
C991 C984 1.409 . S
C991 C990 1.362 . S
H992 C998 0.930 . S
H993 C1001 0.930 . S
H994 C1002 0.930 . S
H995 C1003 0.930 . S
H996 C1006 0.930 . S
H997 C1007 0.930 . S
C998 H992 0.930 . S
C998 C999 1.355 . S
C998 C1000 1.415 . S
C999 C998 1.355 . S
C999 C1001 1.419 . S
C1000 C998 1.415 . S
C1000 C1005 1.425 . S
C1000 C1007 1.409 . S
C1001 H993 0.930 . S
C1001 C999 1.419 . S
C1001 C1002 1.362 . S
C1002 H994 0.930 . S
C1002 C1001 1.362 . S
C1002 C1005 1.409 . S
C1003 H995 0.930 . S
C1003 C1004 1.355 . S
C1003 C1005 1.415 . S
C1004 C1003 1.355 . S
C1004 C1006 1.419 . S
C1005 C1000 1.425 . S
C1005 C1002 1.409 . S
C1005 C1003 1.415 . S
C1006 H996 0.930 . S
C1006 C1004 1.419 . S
C1006 C1007 1.362 . S
C1007 H997 0.930 . S
C1007 C1000 1.409 . S
C1007 C1006 1.362 . S
H1008 C1014 0.930 . S
H1009 C1017 0.930 . S
H1010 C1018 0.930 . S
H1011 C1019 0.930 . S
H1012 C1022 0.930 . S
H1013 C1023 0.930 . S
C1014 H1008 0.930 . S
C1014 C1015 1.355 . S
C1014 C1016 1.415 . S
C1015 C1014 1.355 . S
C1015 C1017 1.419 . S
C1016 C1014 1.415 . S
C1016 C1021 1.425 . S
C1016 C1023 1.409 . S
C1017 H1009 0.930 . S
C1017 C1015 1.419 . S
C1017 C1018 1.362 . S
C1018 H1010 0.930 . S
C1018 C1017 1.362 . S
C1018 C1021 1.409 . S
C1019 H1011 0.930 . S
C1019 C1020 1.355 . S
C1019 C1021 1.415 . S
C1020 C1019 1.355 . S
C1020 C1022 1.419 . S
C1021 C1016 1.425 . S
C1021 C1018 1.409 . S
C1021 C1019 1.415 . S
C1022 H1012 0.930 . S
C1022 C1020 1.419 . S
C1022 C1023 1.362 . S
C1023 H1013 0.930 . S
C1023 C1016 1.409 . S
C1023 C1022 1.362 . S
H1024 C1030 0.930 . S
H1025 C1033 0.911 1_655 S
H1026 C1034 0.930 . S
H1027 C1035 0.930 . S
H1028 C1038 0.930 . S
H1029 C1039 0.930 . S
C1030 H1024 0.930 . S
C1030 C1031 1.355 . S
C1030 C1032 1.415 . S
C1031 C1030 1.355 . S
C1031 C1033 1.423 . S
C1032 C1030 1.415 . S
C1032 C1037 1.425 . S
C1032 C1039 1.409 . S
C1033 H1025 0.911 1_455 S
C1033 C1031 1.423 . S
C1033 C1034 1.377 . S
C1034 H1026 0.930 . S
C1034 C1033 1.377 . S
C1034 C1037 1.409 . S
C1035 H1027 0.930 . S
C1035 C1036 1.355 . S
C1035 C1037 1.415 . S
C1036 C1035 1.355 . S
C1036 C1038 1.419 . S
C1037 C1032 1.425 . S
C1037 C1034 1.409 . S
C1037 C1035 1.415 . S
C1038 H1028 0.930 . S
C1038 C1036 1.419 . S
C1038 C1039 1.362 . S
C1039 H1029 0.930 . S
C1039 C1032 1.409 . S
C1039 C1038 1.362 . S
H1040 C1046 0.930 . S
H1041 C1049 0.930 . S
H1042 C1050 0.930 . S
H1043 C1051 0.930 . S
H1044 C1054 0.930 . S
H1045 C1055 0.930 . S
C1046 H1040 0.930 . S
C1046 C1047 1.355 . S
C1046 C1048 1.415 . S
C1047 C1046 1.355 . S
C1047 C1049 1.419 . S
C1048 C1046 1.415 . S
C1048 C1053 1.425 . S
C1048 C1055 1.409 . S
C1049 H1041 0.930 . S
C1049 C1047 1.419 . S
C1049 C1050 1.362 . S
C1050 H1042 0.930 . S
C1050 C1049 1.362 . S
C1050 C1053 1.409 . S
C1051 H1043 0.930 . S
C1051 C1052 1.355 . S
C1051 C1053 1.415 . S
C1052 C1051 1.355 . S
C1052 C1054 1.419 . S
C1053 C1048 1.425 . S
C1053 C1050 1.409 . S
C1053 C1051 1.415 . S
C1054 H1044 0.930 . S
C1054 C1052 1.419 . S
C1054 C1055 1.362 . S
C1055 H1045 0.930 . S
C1055 C1048 1.409 . S
C1055 C1054 1.362 . S
H1056 C1062 0.930 . S
H1057 C1065 0.930 . S
H1058 C1066 0.930 . S
H1059 C1067 0.930 . S
H1060 C1070 0.930 . S
H1061 C1071 0.930 . S
C1062 H1056 0.930 . S
C1062 C1063 1.355 . S
C1062 C1064 1.415 . S
C1063 C1062 1.355 . S
C1063 C1065 1.419 . S
C1064 C1062 1.415 . S
C1064 C1069 1.425 . S
C1064 C1071 1.409 . S
C1065 H1057 0.930 . S
C1065 C1063 1.419 . S
C1065 C1066 1.362 . S
C1066 H1058 0.930 . S
C1066 C1065 1.362 . S
C1066 C1069 1.409 . S
C1067 H1059 0.930 . S
C1067 C1068 1.355 . S
C1067 C1069 1.415 . S
C1068 C1067 1.355 . S
C1068 C1070 1.419 . S
C1069 C1064 1.425 . S
C1069 C1066 1.409 . S
C1069 C1067 1.415 . S
C1070 H1060 0.930 . S
C1070 C1068 1.419 . S
C1070 C1071 1.362 . S
C1071 H1061 0.930 . S
C1071 C1064 1.409 . S
C1071 C1070 1.362 . S
H1072 C1078 0.930 . S
H1073 C1081 0.930 . S
H1074 C1082 0.930 . S
H1075 C1083 0.930 . S
H1076 C1086 0.930 . S
H1077 C1087 0.930 . S
C1078 H1072 0.930 . S
C1078 C1079 1.355 . S
C1078 C1080 1.415 . S
C1079 C1078 1.355 . S
C1079 C1081 1.419 . S
C1080 C1078 1.415 . S
C1080 C1085 1.425 . S
C1080 C1087 1.409 . S
C1081 H1073 0.930 . S
C1081 C1079 1.419 . S
C1081 C1082 1.362 . S
C1082 H1074 0.930 . S
C1082 C1081 1.362 . S
C1082 C1085 1.409 . S
C1083 H1075 0.930 . S
C1083 C1084 1.355 . S
C1083 C1085 1.415 . S
C1084 C1083 1.355 . S
C1084 C1086 1.419 . S
C1085 C1080 1.425 . S
C1085 C1082 1.409 . S
C1085 C1083 1.415 . S
C1086 H1076 0.930 . S
C1086 C1084 1.419 . S
C1086 C1087 1.362 . S
C1087 H1077 0.930 . S
C1087 C1080 1.409 . S
C1087 C1086 1.362 . S
H1088 C1094 0.930 . S
H1089 C1097 0.930 . S
H1090 C1098 0.930 . S
H1091 C1099 0.930 . S
H1092 C1102 0.930 . S
H1093 C1103 0.930 . S
C1094 H1088 0.930 . S
C1094 C1095 1.355 . S
C1094 C1096 1.415 . S
C1095 C1094 1.355 . S
C1095 C1097 1.419 . S
C1096 C1094 1.415 . S
C1096 C1101 1.425 . S
C1096 C1103 1.409 . S
C1097 H1089 0.930 . S
C1097 C1095 1.419 . S
C1097 C1098 1.362 . S
C1098 H1090 0.930 . S
C1098 C1097 1.362 . S
C1098 C1101 1.409 . S
C1099 H1091 0.930 . S
C1099 C1100 1.355 . S
C1099 C1101 1.415 . S
C1100 C1099 1.355 . S
C1100 C1102 1.419 . S
C1101 C1096 1.425 . S
C1101 C1098 1.409 . S
C1101 C1099 1.415 . S
C1102 H1092 0.930 . S
C1102 C1100 1.419 . S
C1102 C1103 1.362 . S
C1103 H1093 0.930 . S
C1103 C1096 1.409 . S
C1103 C1102 1.362 . S
H1104 C1110 0.930 . S
H1105 C1113 0.930 . S
H1106 C1114 0.930 . S
H1107 C1115 0.930 . S
H1108 C1118 0.930 . S
H1109 C1119 0.930 . S
C1110 H1104 0.930 . S
C1110 C1111 1.355 . S
C1110 C1112 1.415 . S
C1111 C1110 1.355 . S
C1111 C1113 1.419 . S
C1112 C1110 1.415 . S
C1112 C1117 1.425 . S
C1112 C1119 1.409 . S
C1113 H1105 0.930 . S
C1113 C1111 1.419 . S
C1113 C1114 1.362 . S
C1114 H1106 0.930 . S
C1114 C1113 1.362 . S
C1114 C1117 1.409 . S
C1115 H1107 0.930 . S
C1115 C1116 1.355 . S
C1115 C1117 1.415 . S
C1116 C1115 1.355 . S
C1116 C1118 1.419 . S
C1117 C1112 1.425 . S
C1117 C1114 1.409 . S
C1117 C1115 1.415 . S
C1118 H1108 0.930 . S
C1118 C1116 1.419 . S
C1118 C1119 1.362 . S
C1119 H1109 0.930 . S
C1119 C1112 1.409 . S
C1119 C1118 1.362 . S
H1120 C1126 0.930 . S
H1121 C1129 0.930 . S
H1122 C1130 0.930 . S
H1123 C1131 0.930 1_455 S
H1124 C1134 0.930 . S
H1125 C1135 0.930 . S
C1126 H1120 0.930 . S
C1126 C1127 1.355 . S
C1126 C1128 1.415 . S
C1127 C1126 1.355 . S
C1127 C1129 1.419 . S
C1128 C1126 1.415 . S
C1128 C1133 1.425 . S
C1128 C1135 1.409 . S
C1129 H1121 0.930 . S
C1129 C1127 1.419 . S
C1129 C1130 1.362 . S
C1130 H1122 0.930 . S
C1130 C1129 1.362 . S
C1130 C1133 1.409 . S
C1131 H1123 0.930 1_655 S
C1131 C1132 1.355 . S
C1131 C1133 1.415 . S
C1132 C1131 1.355 . S
C1132 C1134 1.419 . S
C1133 C1128 1.425 . S
C1133 C1130 1.409 . S
C1133 C1131 1.415 . S
C1134 H1124 0.930 . S
C1134 C1132 1.419 . S
C1134 C1135 1.362 . S
C1135 H1125 0.930 . S
C1135 C1128 1.409 . S
C1135 C1134 1.362 . S
H1136 C1142 0.930 . S
H1137 C1145 0.930 . S
H1138 C1146 0.930 . S
H1139 C1147 0.930 . S
H1140 C1150 0.930 . S
H1141 C1151 0.930 . S
C1142 H1136 0.930 . S
C1142 C1143 1.355 . S
C1142 C1144 1.415 . S
C1143 C1142 1.355 . S
C1143 C1145 1.419 . S
C1144 C1142 1.415 . S
C1144 C1149 1.425 . S
C1144 C1151 1.409 . S
C1145 H1137 0.930 . S
C1145 C1143 1.419 . S
C1145 C1146 1.362 . S
C1146 H1138 0.930 . S
C1146 C1145 1.362 . S
C1146 C1149 1.409 . S
C1147 H1139 0.930 . S
C1147 C1148 1.355 . S
C1147 C1149 1.415 . S
C1148 C1147 1.355 . S
C1148 C1150 1.419 . S
C1149 C1144 1.425 . S
C1149 C1146 1.409 . S
C1149 C1147 1.415 . S
C1150 H1140 0.930 . S
C1150 C1148 1.419 . S
C1150 C1151 1.362 . S
C1151 H1141 0.930 . S
C1151 C1144 1.409 . S
C1151 C1150 1.362 . S
H1152 C1158 0.930 1_565 S
H1153 C1161 0.930 . S
H1154 C1162 0.930 . S
H1155 C1163 0.930 . S
H1156 C1166 0.930 . S
H1157 C1167 0.930 1_565 S
C1158 H1152 0.930 1_545 S
C1158 C1159 1.355 . S
C1158 C1160 1.415 . S
C1159 C1158 1.355 . S
C1159 C1161 1.419 . S
C1160 C1158 1.415 . S
C1160 C1165 1.425 . S
C1160 C1167 1.409 . S
C1161 H1153 0.930 . S
C1161 C1159 1.419 . S
C1161 C1162 1.362 . S
C1162 H1154 0.930 . S
C1162 C1161 1.362 . S
C1162 C1165 1.409 . S
C1163 H1155 0.930 . S
C1163 C1164 1.355 . S
C1163 C1165 1.415 . S
C1164 C1163 1.355 . S
C1164 C1166 1.419 . S
C1165 C1160 1.425 . S
C1165 C1162 1.409 . S
C1165 C1163 1.415 . S
C1166 H1156 0.930 . S
C1166 C1164 1.419 . S
C1166 C1167 1.362 . S
C1167 H1157 0.930 1_545 S
C1167 C1160 1.409 . S
C1167 C1166 1.362 . S
H1168 C1174 0.930 . S
H1169 C1177 0.930 . S
H1170 C1178 0.930 . S
H1171 C1179 0.930 . S
H1172 C1182 0.930 . S
H1173 C1183 0.930 . S
C1174 H1168 0.930 . S
C1174 C1175 1.355 . S
C1174 C1176 1.415 . S
C1175 C1174 1.355 . S
C1175 C1177 1.419 . S
C1176 C1174 1.415 . S
C1176 C1181 1.425 . S
C1176 C1183 1.409 . S
C1177 H1169 0.930 . S
C1177 C1175 1.419 . S
C1177 C1178 1.362 . S
C1178 H1170 0.930 . S
C1178 C1177 1.362 . S
C1178 C1181 1.409 . S
C1179 H1171 0.930 . S
C1179 C1180 1.355 . S
C1179 C1181 1.415 . S
C1180 C1179 1.355 . S
C1180 C1182 1.419 . S
C1181 C1176 1.425 . S
C1181 C1178 1.409 . S
C1181 C1179 1.415 . S
C1182 H1172 0.930 . S
C1182 C1180 1.419 . S
C1182 C1183 1.362 . S
C1183 H1173 0.930 . S
C1183 C1176 1.409 . S
C1183 C1182 1.362 . S
H1184 C1190 0.902 1_565 S
H1185 C1193 0.930 . S
H1186 C1194 0.930 . S
H1187 C1195 0.930 . S
H1188 C1198 0.930 . S
H1189 C1199 0.930 1_565 S
C1190 H1184 0.902 1_545 S
C1190 C1191 1.355 . S
C1190 C1192 1.415 . S
C1191 C1190 1.355 . S
C1191 C1193 1.419 . S
C1192 C1190 1.415 . S
C1192 C1197 1.425 . S
C1192 C1199 1.409 . S
C1193 H1185 0.930 . S
C1193 C1191 1.419 . S
C1193 C1194 1.362 . S
C1194 H1186 0.930 . S
C1194 C1193 1.362 . S
C1194 C1197 1.409 . S
C1195 H1187 0.930 . S
C1195 C1196 1.355 . S
C1195 C1197 1.415 . S
C1196 C1195 1.355 . S
C1196 C1198 1.419 . S
C1197 C1192 1.425 . S
C1197 C1194 1.409 . S
C1197 C1195 1.415 . S
C1198 H1188 0.930 . S
C1198 C1196 1.419 . S
C1198 C1199 1.362 . S
C1199 H1189 0.930 1_545 S
C1199 C1192 1.409 . S
C1199 C1198 1.362 . S
H1200 C1206 0.930 . S
H1201 C1209 0.930 . S
H1202 C1210 0.930 . S
H1203 C1211 0.930 . S
H1204 C1214 0.930 . S
H1205 C1215 0.930 . S
C1206 H1200 0.930 . S
C1206 C1207 1.355 . S
C1206 C1208 1.415 . S
C1207 C1206 1.355 . S
C1207 C1209 1.419 . S
C1208 C1206 1.415 . S
C1208 C1213 1.425 . S
C1208 C1215 1.409 . S
C1209 H1201 0.930 . S
C1209 C1207 1.419 . S
C1209 C1210 1.362 . S
C1210 H1202 0.930 . S
C1210 C1209 1.362 . S
C1210 C1213 1.409 . S
C1211 H1203 0.930 . S
C1211 C1212 1.355 . S
C1211 C1213 1.415 . S
C1212 C1211 1.355 . S
C1212 C1214 1.419 . S
C1213 C1208 1.425 . S
C1213 C1210 1.409 . S
C1213 C1211 1.415 . S
C1214 H1204 0.930 . S
C1214 C1212 1.419 . S
C1214 C1215 1.362 . S
C1215 H1205 0.930 . S
C1215 C1208 1.409 . S
C1215 C1214 1.362 . S
H1216 C1222 0.930 . S
H1217 C1225 0.930 . S
H1218 C1226 0.930 . S
H1219 C1227 0.930 . S
H1220 C1230 0.930 . S
H1221 C1231 0.930 . S
C1222 H1216 0.930 . S
C1222 C1223 1.355 . S
C1222 C1224 1.415 . S
C1223 C1222 1.355 . S
C1223 C1225 1.419 . S
C1224 C1222 1.415 . S
C1224 C1229 1.425 . S
C1224 C1231 1.409 . S
C1225 H1217 0.930 . S
C1225 C1223 1.419 . S
C1225 C1226 1.362 . S
C1226 H1218 0.930 . S
C1226 C1225 1.362 . S
C1226 C1229 1.409 . S
C1227 H1219 0.930 . S
C1227 C1228 1.355 . S
C1227 C1229 1.415 . S
C1228 C1227 1.355 . S
C1228 C1230 1.419 . S
C1229 C1224 1.425 . S
C1229 C1226 1.409 . S
C1229 C1227 1.415 . S
C1230 H1220 0.930 . S
C1230 C1228 1.419 . S
C1230 C1231 1.362 . S
C1231 H1221 0.930 . S
C1231 C1224 1.409 . S
C1231 C1230 1.362 . S
H1232 C1238 0.930 . S
H1233 C1241 0.930 . S
H1234 C1242 0.930 . S
H1235 C1243 0.930 . S
H1236 C1246 0.930 . S
H1237 C1247 0.930 . S
C1238 H1232 0.930 . S
C1238 C1239 1.355 . S
C1238 C1240 1.415 . S
C1239 C1238 1.355 . S
C1239 C1241 1.419 . S
C1240 C1238 1.415 . S
C1240 C1245 1.425 . S
C1240 C1247 1.409 . S
C1241 H1233 0.930 . S
C1241 C1239 1.419 . S
C1241 C1242 1.362 . S
C1242 H1234 0.930 . S
C1242 C1241 1.362 . S
C1242 C1245 1.409 . S
C1243 H1235 0.930 . S
C1243 C1244 1.355 . S
C1243 C1245 1.415 . S
C1244 C1243 1.355 . S
C1244 C1246 1.419 . S
C1245 C1240 1.425 . S
C1245 C1242 1.409 . S
C1245 C1243 1.415 . S
C1246 H1236 0.930 . S
C1246 C1244 1.419 . S
C1246 C1247 1.362 . S
C1247 H1237 0.930 . S
C1247 C1240 1.409 . S
C1247 C1246 1.362 . S
H1248 C1254 0.930 . S
H1249 C1257 0.930 . S
H1250 C1258 0.930 . S
H1251 C1259 0.930 . S
H1252 C1262 0.930 . S
H1253 C1263 0.930 . S
C1254 H1248 0.930 . S
C1254 C1255 1.355 . S
C1254 C1256 1.415 . S
C1255 C1254 1.355 . S
C1255 C1257 1.419 . S
C1256 C1254 1.415 . S
C1256 C1261 1.425 . S
C1256 C1263 1.409 . S
C1257 H1249 0.930 . S
C1257 C1255 1.419 . S
C1257 C1258 1.362 . S
C1258 H1250 0.930 . S
C1258 C1257 1.362 . S
C1258 C1261 1.409 . S
C1259 H1251 0.930 . S
C1259 C1260 1.355 . S
C1259 C1261 1.415 . S
C1260 C1259 1.355 . S
C1260 C1262 1.419 . S
C1261 C1256 1.425 . S
C1261 C1258 1.409 . S
C1261 C1259 1.415 . S
C1262 H1252 0.930 . S
C1262 C1260 1.419 . S
C1262 C1263 1.362 . S
C1263 H1253 0.930 . S
C1263 C1256 1.409 . S
C1263 C1262 1.362 . S
H1264 C1270 0.930 . S
H1265 C1273 0.930 . S
H1266 C1274 0.930 . S
H1267 C1275 0.930 . S
H1268 C1278 0.930 . S
H1269 C1279 0.930 . S
C1270 H1264 0.930 . S
C1270 C1271 1.355 . S
C1270 C1272 1.415 1_455 S
C1271 C1270 1.355 . S
C1271 C1273 1.419 . S
C1272 C1270 1.415 1_655 S
C1272 C1277 1.425 1_655 S
C1272 C1279 1.409 . S
C1273 H1265 0.930 . S
C1273 C1271 1.419 . S
C1273 C1274 1.362 . S
C1274 H1266 0.930 . S
C1274 C1273 1.362 . S
C1274 C1277 1.409 . S
C1275 H1267 0.930 . S
C1275 C1276 1.355 . S
C1275 C1277 1.415 1_655 S
C1276 C1275 1.355 . S
C1276 C1278 1.419 . S
C1277 C1272 1.425 1_455 S
C1277 C1274 1.409 . S
C1277 C1275 1.415 1_455 S
C1278 H1268 0.930 . S
C1278 C1276 1.419 . S
C1278 C1279 1.362 . S
C1279 H1269 0.930 . S
C1279 C1272 1.409 . S
C1279 C1278 1.362 . S
H1280 C1286 0.930 1_655 S
H1281 C1289 0.930 . S
H1282 C1290 0.930 . S
H1283 C1291 0.930 1_455 S
H1284 C1294 0.930 . S
H1285 C1295 0.930 . S
C1286 H1280 0.930 1_455 S
C1286 C1287 1.355 . S
C1286 C1288 1.415 1_455 S
C1287 C1286 1.355 . S
C1287 C1289 1.419 . S
C1288 C1286 1.415 1_655 S
C1288 C1293 1.425 1_655 S
C1288 C1295 1.409 . S
C1289 H1281 0.930 . S
C1289 C1287 1.419 . S
C1289 C1290 1.362 . S
C1290 H1282 0.930 . S
C1290 C1289 1.362 . S
C1290 C1293 1.409 . S
C1291 H1283 0.930 1_655 S
C1291 C1292 1.355 . S
C1291 C1293 1.415 1_655 S
C1292 C1291 1.355 . S
C1292 C1294 1.419 . S
C1293 C1288 1.425 1_455 S
C1293 C1290 1.409 . S
C1293 C1291 1.415 1_455 S
C1294 H1284 0.930 . S
C1294 C1292 1.419 . S
C1294 C1295 1.362 . S
C1295 H1285 0.930 . S
C1295 C1288 1.409 . S
C1295 C1294 1.362 . S
H1296 C1302 0.930 . S
H1297 C1305 0.930 1_556 S
H1298 C1306 0.930 1_556 S
H1299 C1307 0.930 . S
H1300 C1310 0.930 . S
H1301 C1311 0.930 . S
C1302 H1296 0.930 . S
C1302 C1303 1.355 . S
C1302 C1304 1.415 . S
C1303 C1302 1.355 . S
C1303 C1305 1.419 . S
C1304 C1302 1.415 . S
C1304 C1309 1.425 . S
C1304 C1311 1.409 . S
C1305 H1297 0.930 1_554 S
C1305 C1303 1.419 . S
C1305 C1306 1.362 . S
C1306 H1298 0.930 1_554 S
C1306 C1305 1.362 . S
C1306 C1309 1.409 . S
C1307 H1299 0.930 . S
C1307 C1308 1.355 . S
C1307 C1309 1.415 . S
C1308 C1307 1.355 . S
C1308 C1310 1.419 . S
C1309 C1304 1.425 . S
C1309 C1306 1.409 . S
C1309 C1307 1.415 . S
C1310 H1300 0.930 . S
C1310 C1308 1.419 . S
C1310 C1311 1.362 . S
C1311 H1301 0.930 . S
C1311 C1304 1.409 . S
C1311 C1310 1.362 . S
H1312 C1318 0.930 . S
H1313 C1321 0.930 . S
H1314 C1322 0.930 . S
H1315 C1323 0.930 . S
H1316 C1326 0.930 . S
H1317 C1327 0.930 . S
C1318 H1312 0.930 . S
C1318 C1319 1.355 . S
C1318 C1320 1.415 . S
C1319 C1318 1.355 . S
C1319 C1321 1.419 . S
C1320 C1318 1.415 . S
C1320 C1325 1.425 . S
C1320 C1327 1.409 . S
C1321 H1313 0.930 . S
C1321 C1319 1.419 . S
C1321 C1322 1.362 . S
C1322 H1314 0.930 . S
C1322 C1321 1.362 . S
C1322 C1325 1.409 . S
C1323 H1315 0.930 . S
C1323 C1324 1.355 . S
C1323 C1325 1.415 . S
C1324 C1323 1.355 . S
C1324 C1326 1.419 . S
C1325 C1320 1.425 . S
C1325 C1322 1.409 . S
C1325 C1323 1.415 . S
C1326 H1316 0.930 . S
C1326 C1324 1.419 . S
C1326 C1327 1.362 . S
C1327 H1317 0.930 . S
C1327 C1320 1.409 . S
C1327 C1326 1.362 . S
H1328 C1334 0.930 . S
H1329 C1337 0.930 . S
H1330 C1338 0.930 . S
H1331 C1339 0.930 . S
H1332 C1342 0.930 . S
H1333 C1343 0.930 . S
C1334 H1328 0.930 . S
C1334 C1335 1.355 . S
C1334 C1336 1.415 . S
C1335 C1334 1.355 . S
C1335 C1337 1.419 . S
C1336 C1334 1.415 . S
C1336 C1341 1.425 1_455 S
C1336 C1343 1.409 1_455 S
C1337 H1329 0.930 . S
C1337 C1335 1.419 . S
C1337 C1338 1.362 . S
C1338 H1330 0.930 . S
C1338 C1337 1.362 . S
C1338 C1341 1.409 1_455 S
C1339 H1331 0.930 . S
C1339 C1340 1.355 . S
C1339 C1341 1.415 . S
C1340 C1339 1.355 . S
C1340 C1342 1.419 . S
C1341 C1336 1.425 1_655 S
C1341 C1338 1.409 1_655 S
C1341 C1339 1.415 . S
C1342 H1332 0.930 . S
C1342 C1340 1.419 . S
C1342 C1343 1.362 . S
C1343 H1333 0.930 . S
C1343 C1336 1.409 1_655 S
C1343 C1342 1.362 . S
H1344 C1350 0.930 . S
H1345 C1353 0.930 . S
H1346 C1354 0.930 . S
H1347 C1355 0.930 . S
H1348 C1358 0.930 . S
H1349 C1359 0.930 . S
C1350 H1344 0.930 . S
C1350 C1351 1.355 1_455 S
C1350 C1352 1.415 . S
C1351 C1350 1.355 1_655 S
C1351 C1353 1.419 . S
C1352 C1350 1.415 . S
C1352 C1357 1.425 1_455 S
C1352 C1359 1.409 . S
C1353 H1345 0.930 . S
C1353 C1351 1.419 . S
C1353 C1354 1.362 . S
C1354 H1346 0.930 . S
C1354 C1353 1.362 . S
C1354 C1357 1.409 . S
C1355 H1347 0.930 . S
C1355 C1356 1.355 1_655 S
C1355 C1357 1.415 . S
C1356 C1355 1.355 1_455 S
C1356 C1358 1.419 . S
C1357 C1352 1.425 1_655 S
C1357 C1354 1.409 . S
C1357 C1355 1.415 . S
C1358 H1348 0.930 . S
C1358 C1356 1.419 . S
C1358 C1359 1.362 . S
C1359 H1349 0.930 . S
C1359 C1352 1.409 . S
C1359 C1358 1.362 . S
C855 C250 2.628 . S
C860 C29 2.631 . S
C871 C727 2.755 . S
C876 C91 2.737 . S
C887 C135 2.632 . S
C892 C356 2.626 . S
C903 C833 2.737 . S
C908 C197 2.720 . S
C919 C515 2.699 . S
C924 C303 2.719 . S
C935 C621 2.724 . S
C940 C409 2.744 . S
C951 C453 2.635 . S
C956 C674 2.629 . S
C967 C780 2.638 . S
C972 C559 2.643 . S
C983 C393 1.796 . S
C988 C22 1.758 . S
C999 C658 1.844 . S
C1004 C92 1.812 . S
C1015 C128 1.802 . S
C1020 C287 1.842 . S
C1031 C198 1.803 1_455 S
C1036 C764 1.812 . S
C1047 C181 2.169 . S
C1052 C251 2.110 . S
C1063 C304 2.184 . S
C1068 C463 2.246 . S
C1079 C357 2.107 . S
C1084 C75 2.167 . S
C1095 C410 2.255 . S
C1100 C569 2.278 . S
C1111 C446 1.830 . S
C1116 C817 1.838 . S
C1127 C234 1.847 . S
C1132 C516 1.808 1_655 S
C1143 C711 1.793 . S
C1148 C552 1.757 . S
C1159 C622 1.814 . S
C1164 C340 1.826 . S
C1175 C605 2.184 . S
C1180 C675 2.150 . S
C1191 C728 2.254 . S
C1196 C39 2.280 . S
C1207 C781 2.151 . S
C1212 C499 2.189 . S
C1223 C145 2.282 . S
C1228 C834 2.233 . S
C1239 C38 1.024 . S
C1244 C568 1.015 . S
C1255 C612 0.849 . S
C1260 C82 0.827 . S
C1271 C144 0.995 . S
C1276 C462 1.000 . S
C1287 C506 0.851 . S
C1292 C188 0.818 . S
C1303 C771 0.259 . S
C1308 C241 0.412 . S
C1319 C824 0.421 . S
C1324 C294 0.294 . S
C1335 C665 0.362 . S
C1340 C347 0.277 . S
C1351 C718 0.280 . S
C1356 C400 0.407 . S
