# Generated by pormake.
# Topology wjh, (4)-cn, num edge types: 1
# Building blocks:
#     Node 0, Type 0, BuildingBlock: UXUYUI_clean_sbu_0, # of connection points: 4
#     Node 1, Type 0, BuildingBlock: UXUYUI_clean_sbu_0, # of connection points: 4
#     Node 2, Type 0, BuildingBlock: UXUYUI_clean_sbu_0, # of connection points: 4
#     Node 3, Type 0, BuildingBlock: UXUYUI_clean_sbu_0, # of connection points: 4
#     Node 4, Type 0, BuildingBlock: UXUYUI_clean_sbu_0, # of connection points: 4
#     Node 5, Type 0, BuildingBlock: UXUYUI_clean_sbu_0, # of connection points: 4
#     Node 6, Type 0, BuildingBlock: UXUYUI_clean_sbu_0, # of connection points: 4
#     Node 7, Type 0, BuildingBlock: UXUYUI_clean_sbu_0, # of connection points: 4
#     Node 8, Type 0, BuildingBlock: UXUYUI_clean_sbu_0, # of connection points: 4
#     Node 9, Type 0, BuildingBlock: UXUYUI_clean_sbu_0, # of connection points: 4
#     Node 10, Type 0, BuildingBlock: UXUYUI_clean_sbu_0, # of connection points: 4
#     Node 11, Type 0, BuildingBlock: UXUYUI_clean_sbu_0, # of connection points: 4
#     Edge 12, Type (0, 0), BuildingBlock: AJUNOK_clean_linker_0, # of connection points: 2
#     Edge 13, Type (0, 0), BuildingBlock: AJUNOK_clean_linker_0, # of connection points: 2
#     Edge 14, Type (0, 0), BuildingBlock: AJUNOK_clean_linker_0, # of connection points: 2
#     Edge 15, Type (0, 0), BuildingBlock: AJUNOK_clean_linker_0, # of connection points: 2
#     Edge 16, Type (0, 0), BuildingBlock: AJUNOK_clean_linker_0, # of connection points: 2
#     Edge 17, Type (0, 0), BuildingBlock: AJUNOK_clean_linker_0, # of connection points: 2
#     Edge 18, Type (0, 0), BuildingBlock: AJUNOK_clean_linker_0, # of connection points: 2
#     Edge 19, Type (0, 0), BuildingBlock: AJUNOK_clean_linker_0, # of connection points: 2
#     Edge 20, Type (0, 0), BuildingBlock: AJUNOK_clean_linker_0, # of connection points: 2
#     Edge 21, Type (0, 0), BuildingBlock: AJUNOK_clean_linker_0, # of connection points: 2
#     Edge 22, Type (0, 0), BuildingBlock: AJUNOK_clean_linker_0, # of connection points: 2
#     Edge 23, Type (0, 0), BuildingBlock: AJUNOK_clean_linker_0, # of connection points: 2
#     Edge 24, Type (0, 0), BuildingBlock: AJUNOK_clean_linker_0, # of connection points: 2
#     Edge 25, Type (0, 0), BuildingBlock: AJUNOK_clean_linker_0, # of connection points: 2
#     Edge 26, Type (0, 0), BuildingBlock: AJUNOK_clean_linker_0, # of connection points: 2
#     Edge 27, Type (0, 0), BuildingBlock: AJUNOK_clean_linker_0, # of connection points: 2
#     Edge 28, Type (0, 0), BuildingBlock: AJUNOK_clean_linker_0, # of connection points: 2
#     Edge 29, Type (0, 0), BuildingBlock: AJUNOK_clean_linker_0, # of connection points: 2
#     Edge 30, Type (0, 0), BuildingBlock: AJUNOK_clean_linker_0, # of connection points: 2
#     Edge 31, Type (0, 0), BuildingBlock: AJUNOK_clean_linker_0, # of connection points: 2
#     Edge 32, Type (0, 0), BuildingBlock: AJUNOK_clean_linker_0, # of connection points: 2
#     Edge 33, Type (0, 0), BuildingBlock: AJUNOK_clean_linker_0, # of connection points: 2
#     Edge 34, Type (0, 0), BuildingBlock: AJUNOK_clean_linker_0, # of connection points: 2
#     Edge 35, Type (0, 0), BuildingBlock: AJUNOK_clean_linker_0, # of connection points: 2
# Relax obj value: 0.245
# Max RMSD: 0.173
# Mean RMSD: 0.173
data_MOF--net-wjh--node1-UXUYUI_clean_sbu_0--edge1-AJUNOK_clean_linker_0
_symmetry_space_group_name_H-M    P1
_symmetry_Int_Tables_number       1
_symmetry_cell_setting            triclinic
loop_
_symmetry_equiv_pos_as_xyz
'x, y, z'
_cell_length_a     74.589937
_cell_length_b     74.61547
_cell_length_c     29.687699
_cell_angle_alpha  89.986496
_cell_angle_beta   90.006809
_cell_angle_gamma 119.98514
loop_
_atom_site_label
_atom_site_type_symbol
_atom_site_fract_x
_atom_site_fract_y
_atom_site_fract_z
_atom_type_partial_charge
Li0 Li 0.47885 0.1152 0.07357 0.0
Li1 Li 0.51171 0.13692 0.11607 0.0
Li2 Li 0.49176 0.15152 0.07757 0.0
Li3 Li 0.5101 0.13955 0.03422 0.0
C4 C 0.46797 0.11865 0.15729 0.0
N5 N 0.4368 0.09082 0.21318 0.0
C6 C 0.47279 0.11089 0.19545 0.0
C7 C 0.4473 0.11242 0.1479 0.0
C8 C 0.45681 0.09681 0.22322 0.0
C9 C 0.43176 0.09828 0.17644 0.0
C10 C 0.51003 0.10366 0.04369 0.0
C11 C 0.53301 0.09154 0.0197 0.0
N12 N 0.51996 0.08118 0.98508 0.0
C13 C 0.49684 0.09291 0.00786 0.0
C14 C 0.52827 0.103 0.0497 0.0
C15 C 0.50213 0.08162 0.97861 0.0
C16 C 0.44108 0.08004 0.04241 0.0
N17 N 0.45628 0.08757 0.07411 0.0
C18 C 0.44234 0.05422 0.10803 0.0
C19 C 0.45724 0.07512 0.10631 0.0
C20 C 0.42665 0.04594 0.07548 0.0
C21 C 0.42604 0.05903 0.04229 0.0
H22 H 0.44104 0.09018 0.01643 0.0
H23 H 0.46993 0.08138 0.13003 0.0
C24 C 0.53359 0.15393 0.19601 0.0
N25 N 0.52699 0.13773 0.16712 0.0
C26 C 0.54396 0.15438 0.23546 0.0
C27 C 0.54053 0.12147 0.21441 0.0
C28 C 0.53018 0.12164 0.17545 0.0
C29 C 0.54737 0.1379 0.24511 0.0
H30 H 0.53063 0.16641 0.18846 0.0
H31 H 0.5243 0.10876 0.15228 0.0
C32 C 0.47131 0.143 0.00535 0.0
N33 N 0.4514 0.16314 0.97271 0.0
C34 C 0.48162 0.15985 0.97621 0.0
C35 C 0.45083 0.13629 0.01758 0.0
C36 C 0.4713 0.16985 0.96014 0.0
C37 C 0.44104 0.14671 0.00081 0.0
C38 C 0.54154 0.17547 0.06239 0.0
C39 C 0.54394 0.18668 0.02289 0.0
C40 C 0.55906 0.1777 0.08467 0.0
C41 C 0.56382 0.1998 0.00618 0.0
C42 C 0.57868 0.19101 0.06692 0.0
N43 N 0.58063 0.20168 0.02836 0.0
C44 C 0.47088 0.17043 0.11838 0.0
C45 C 0.49756 0.19171 0.06737 0.0
C46 C 0.46909 0.18732 0.13267 0.0
N47 N 0.4853 0.17302 0.08704 0.0
C48 C 0.49631 0.20897 0.08066 0.0
C49 C 0.48246 0.207 0.11486 0.0
H50 H 0.46157 0.15553 0.13412 0.0
H51 H 0.50899 0.19344 0.04289 0.0
C52 C 0.51745 0.13958 0.94011 0.0
N53 N 0.52622 0.14236 0.98153 0.0
C54 C 0.52855 0.1403 0.90157 0.0
C55 C 0.55744 0.14659 0.94903 0.0
C56 C 0.54574 0.1456 0.98659 0.0
C57 C 0.54887 0.14394 0.90579 0.0
H58 H 0.50165 0.1363 0.93706 0.0
H59 H 0.55215 0.14707 0.01992 0.0
O60 O 0.48339 0.13221 0.12928 0.0
O61 O 0.50543 0.11532 0.07182 0.0
O62 O 0.48132 0.13333 0.02232 0.0
O63 O 0.52221 0.16249 0.07937 0.0
H64 H 0.48866 0.11557 0.20348 0.0
H65 H 0.44325 0.11823 0.11857 0.0
H66 H 0.46033 0.09061 0.25271 0.0
H67 H 0.4157 0.0932 0.16933 0.0
H68 H 0.54713 0.09097 0.0238 0.0
H69 H 0.48285 0.09355 0.00223 0.0
H70 H 0.53882 0.11151 0.0768 0.0
H71 H 0.49211 0.07331 0.95062 0.0
H72 H 0.44357 0.04444 0.13337 0.0
H73 H 0.41429 0.05299 0.01627 0.0
H74 H 0.54927 0.16743 0.25813 0.0
H75 H 0.54276 0.10843 0.22101 0.0
H76 H 0.49749 0.16529 0.96646 0.0
H77 H 0.4426 0.12323 0.03992 0.0
H78 H 0.47913 0.18299 0.93778 0.0
H79 H 0.42522 0.14173 0.01017 0.0
H80 H 0.53062 0.18493 0.00471 0.0
H81 H 0.55757 0.16914 0.11514 0.0
H82 H 0.56587 0.20841 0.97545 0.0
H83 H 0.59235 0.19282 0.08375 0.0
H84 H 0.45824 0.18524 0.1592 0.0
H85 H 0.50667 0.2239 0.06571 0.0
H86 H 0.52111 0.13751 0.86897 0.0
H87 H 0.57299 0.1493 0.95381 0.0
Li88 Li 0.37566 0.51268 0.28599 0.0
Li89 Li 0.36435 0.48014 0.24439 0.0
Li90 Li 0.37107 0.51251 0.20306 0.0
Li91 Li 0.34078 0.49322 0.25058 0.0
C92 C 0.41163 0.51705 0.23559 0.0
N93 N 0.45437 0.53731 0.22976 0.0
C94 C 0.42242 0.50689 0.24755 0.0
C95 C 0.42266 0.53746 0.22003 0.0
C96 C 0.44399 0.51741 0.24459 0.0
C97 C 0.44423 0.54744 0.21747 0.0
C98 C 0.3489 0.46887 0.3286 0.0
C99 C 0.33112 0.43246 0.34648 0.0
N100 N 0.34216 0.43673 0.38536 0.0
C101 C 0.36 0.47291 0.36885 0.0
C102 C 0.33426 0.4485 0.3174 0.0
C103 C 0.35639 0.45645 0.39706 0.0
C104 C 0.38054 0.5347 0.36541 0.0
N105 N 0.39021 0.52762 0.33794 0.0
C106 C 0.41887 0.53994 0.38843 0.0
C107 C 0.40902 0.53004 0.34858 0.0
C108 C 0.40907 0.54704 0.41796 0.0
C109 C 0.38976 0.54456 0.40582 0.0
H110 H 0.36548 0.53234 0.3562 0.0
H111 H 0.41625 0.52401 0.32663 0.0
C112 C 0.3628 0.44407 0.20698 0.0
N113 N 0.36864 0.45701 0.24306 0.0
C114 C 0.36813 0.42856 0.20478 0.0
C115 C 0.38459 0.43957 0.27758 0.0
C116 C 0.37918 0.45493 0.27813 0.0
C117 C 0.37944 0.42645 0.24018 0.0
H118 H 0.35458 0.44619 0.17937 0.0
H119 H 0.38414 0.46575 0.30581 0.0
C120 C 0.36851 0.54473 0.24842 0.0
N121 N 0.38476 0.58711 0.24428 0.0
C122 C 0.35581 0.55292 0.23746 0.0
C123 C 0.38939 0.55815 0.25809 0.0
C124 C 0.36433 0.57437 0.2353 0.0
C125 C 0.39734 0.5795 0.2556 0.0
C126 C 0.32939 0.47479 0.17375 0.0
C127 C 0.32519 0.48655 0.14344 0.0
C128 C 0.31413 0.45448 0.18348 0.0
C129 C 0.30562 0.47781 0.1236 0.0
C130 C 0.29474 0.44631 0.16297 0.0
N131 N 0.29092 0.45804 0.13374 0.0
C132 C 0.3955 0.52313 0.12588 0.0
C133 C 0.37926 0.54326 0.13483 0.0
C134 C 0.4062 0.53461 0.08808 0.0
N135 N 0.38272 0.52791 0.14899 0.0
C136 C 0.38958 0.5551 0.09695 0.0
C137 C 0.40356 0.55106 0.07355 0.0
H138 H 0.39781 0.51071 0.13763 0.0
H139 H 0.36862 0.54643 0.15297 0.0
C140 C 0.30133 0.47269 0.29282 0.0
N141 N 0.31278 0.48654 0.26023 0.0
C142 C 0.28237 0.4705 0.30614 0.0
C143 C 0.28706 0.49643 0.25125 0.0
C144 C 0.30578 0.4979 0.23853 0.0
C145 C 0.27544 0.48294 0.28612 0.0
H146 H 0.30734 0.46411 0.31012 0.0
H147 H 0.31517 0.50876 0.21273 0.0
O148 O 0.39043 0.50685 0.23807 0.0
O149 O 0.35239 0.48479 0.30036 0.0
O150 O 0.36035 0.52372 0.25071 0.0
O151 O 0.34829 0.48324 0.19427 0.0
H152 H 0.41428 0.49109 0.25921 0.0
H153 H 0.41473 0.54549 0.20931 0.0
H154 H 0.45249 0.50974 0.25401 0.0
H155 H 0.4529 0.56323 0.20548 0.0
H156 H 0.31993 0.41662 0.33809 0.0
H157 H 0.37134 0.48857 0.37815 0.0
H158 H 0.32559 0.44509 0.28632 0.0
H159 H 0.36492 0.45934 0.42823 0.0
H160 H 0.43397 0.54197 0.39607 0.0
H161 H 0.38171 0.5498 0.42776 0.0
H162 H 0.36386 0.41864 0.17544 0.0
H163 H 0.39358 0.43861 0.30517 0.0
H164 H 0.33955 0.54288 0.23045 0.0
H165 H 0.39935 0.55222 0.26791 0.0
H166 H 0.35469 0.58088 0.22654 0.0
H167 H 0.4135 0.59003 0.26288 0.0
H168 H 0.33685 0.50232 0.1357 0.0
H169 H 0.3172 0.44518 0.20675 0.0
H170 H 0.30209 0.48675 0.10026 0.0
H171 H 0.28273 0.43064 0.17032 0.0
H172 H 0.41681 0.53096 0.07102 0.0
H173 H 0.38664 0.56725 0.0861 0.0
H174 H 0.27382 0.46011 0.33351 0.0
H175 H 0.2821 0.50629 0.23532 0.0
Li176 Li 0.8842 0.36391 0.39174 0.0
Li177 Li 0.86457 0.37649 0.43123 0.0
Li178 Li 0.84753 0.34174 0.40142 0.0
Li179 Li 0.86042 0.37105 0.35078 0.0
C180 C 0.87205 0.33819 0.46602 0.0
N181 N 0.87802 0.30719 0.5007 0.0
C182 C 0.8745 0.33696 0.51238 0.0
C183 C 0.87263 0.32364 0.43728 0.0
C184 C 0.87752 0.32118 0.52926 0.0
C185 C 0.87566 0.30809 0.45548 0.0
C186 C 0.90372 0.40651 0.40168 0.0
C187 C 0.93507 0.43949 0.39429 0.0
N188 N 0.94048 0.43759 0.43702 0.0
C189 C 0.90959 0.40492 0.44557 0.0
C190 C 0.91654 0.42396 0.37585 0.0
C191 C 0.92823 0.42077 0.46281 0.0
C192 C 0.92009 0.36836 0.349 0.0
N193 N 0.91092 0.36641 0.38965 0.0
C194 C 0.94209 0.37402 0.42806 0.0
C195 C 0.92132 0.36871 0.42879 0.0
C196 C 0.95225 0.37687 0.38663 0.0
C197 C 0.94087 0.37356 0.34669 0.0
H198 H 0.91151 0.36672 0.31841 0.0
H199 H 0.91388 0.36754 0.46071 0.0
C200 C 0.85736 0.38198 0.52051 0.0
N201 N 0.86415 0.39224 0.48081 0.0
C202 C 0.8572 0.39248 0.55919 0.0
C203 C 0.8705 0.42383 0.51509 0.0
C204 C 0.87059 0.41275 0.47729 0.0
C205 C 0.864 0.41372 0.55685 0.0
H206 H 0.85227 0.36565 0.52214 0.0
H207 H 0.87594 0.42054 0.44527 0.0
C208 C 0.85126 0.33388 0.31094 0.0
N209 N 0.82596 0.30941 0.24202 0.0
C210 C 0.83108 0.33037 0.3069 0.0
C211 C 0.85857 0.32496 0.27991 0.0
C212 C 0.81853 0.31796 0.27183 0.0
C213 C 0.84554 0.31262 0.24533 0.0
C214 C 0.82917 0.37433 0.39641 0.0
C215 C 0.8083 0.36569 0.40787 0.0
C216 C 0.8406 0.39522 0.38443 0.0
C217 C 0.79918 0.3781 0.40708 0.0
C218 C 0.83092 0.40712 0.38401 0.0
N219 N 0.81058 0.39839 0.39526 0.0
C220 C 0.81887 0.31547 0.46088 0.0
C221 C 0.81759 0.29723 0.39452 0.0
C222 C 0.80291 0.29757 0.48013 0.0
N223 N 0.82579 0.31506 0.41881 0.0
C224 C 0.80115 0.27897 0.41213 0.0
C225 C 0.79359 0.279 0.45558 0.0
H226 H 0.82584 0.32984 0.47954 0.0
H227 H 0.82357 0.29711 0.36147 0.0
C228 C 0.87434 0.39576 0.27379 0.0
N229 N 0.85674 0.38219 0.29575 0.0
C230 C 0.87338 0.40614 0.23554 0.0
C231 C 0.8361 0.38784 0.24215 0.0
C232 C 0.83779 0.37788 0.28048 0.0
C233 C 0.8541 0.40247 0.21962 0.0
H234 H 0.88918 0.39883 0.28659 0.0
H235 H 0.82398 0.36702 0.2985 0.0
O236 O 0.86897 0.35353 0.44922 0.0
O237 O 0.8856 0.39114 0.3838 0.0
O238 O 0.86404 0.34621 0.34451 0.0
O239 O 0.83823 0.36229 0.39711 0.0
H240 H 0.87412 0.34811 0.53508 0.0
H241 H 0.87074 0.32427 0.40134 0.0
H242 H 0.87945 0.32006 0.56507 0.0
H243 H 0.87612 0.29672 0.43364 0.0
H244 H 0.94514 0.45307 0.37464 0.0
H245 H 0.89991 0.39157 0.46616 0.0
H246 H 0.91222 0.4255 0.34188 0.0
H247 H 0.93295 0.4197 0.49668 0.0
H248 H 0.95037 0.37703 0.45964 0.0
H249 H 0.94816 0.37566 0.31407 0.0
H250 H 0.85214 0.38414 0.59077 0.0
H251 H 0.87541 0.44009 0.51164 0.0
H252 H 0.82504 0.33694 0.33076 0.0
H253 H 0.87418 0.32758 0.28252 0.0
H254 H 0.80287 0.31509 0.26837 0.0
H255 H 0.851 0.30562 0.22108 0.0
H256 H 0.79926 0.34954 0.41727 0.0
H257 H 0.85677 0.40219 0.37542 0.0
H258 H 0.78303 0.37162 0.41586 0.0
H259 H 0.83958 0.42329 0.37475 0.0
H260 H 0.79784 0.29833 0.5139 0.0
H261 H 0.79419 0.26517 0.3915 0.0
H262 H 0.88763 0.41731 0.21925 0.0
H263 H 0.82091 0.3842 0.23043 0.0
Li264 Li 0.52245 0.88603 0.55973 0.0
Li265 Li 0.48904 0.86392 0.60541 0.0
Li266 Li 0.5085 0.84934 0.57204 0.0
Li267 Li 0.4901 0.85965 0.52406 0.0
C268 C 0.5291 0.86659 0.64781 0.0
N269 N 0.55068 0.85508 0.70548 0.0
C270 C 0.51926 0.85425 0.68537 0.0
C271 C 0.55002 0.87343 0.64013 0.0
C272 C 0.5304 0.84849 0.71397 0.0
C273 C 0.56064 0.86737 0.66954 0.0
C274 C 0.48393 0.89129 0.53319 0.0
C275 C 0.45144 0.88908 0.51429 0.0
N276 N 0.46088 0.9026 0.47982 0.0
C277 C 0.49335 0.90527 0.49781 0.0
C278 C 0.46285 0.88321 0.54176 0.0
C279 C 0.48142 0.91077 0.47114 0.0
C280 C 0.55312 0.92235 0.51576 0.0
N281 N 0.54515 0.91329 0.55616 0.0
C282 C 0.56633 0.94509 0.59485 0.0
C283 C 0.55168 0.92404 0.59536 0.0
C284 C 0.57422 0.95513 0.55353 0.0
C285 C 0.5679 0.94339 0.51369 0.0
H286 H 0.54749 0.91339 0.48512 0.0
H287 H 0.54485 0.91641 0.62691 0.0
C288 C 0.46408 0.84617 0.68089 0.0
N289 N 0.4736 0.86369 0.65567 0.0
C290 C 0.45386 0.84578 0.72051 0.0
C291 C 0.46266 0.8812 0.70627 0.0
C292 C 0.47297 0.88099 0.66719 0.0
C293 C 0.4533 0.86354 0.73373 0.0
H294 H 0.46485 0.83265 0.67064 0.0
H295 H 0.48076 0.8947 0.64639 0.0
C296 C 0.53381 0.86294 0.49378 0.0
N297 N 0.5647 0.85892 0.45182 0.0
C298 C 0.52901 0.84912 0.45795 0.0
C299 C 0.55438 0.87505 0.50757 0.0
C300 C 0.54482 0.8472 0.4374 0.0
C301 C 0.56976 0.87271 0.48611 0.0
C302 C 0.46685 0.81881 0.55312 0.0
C303 C 0.47511 0.81259 0.51831 0.0
C304 C 0.44705 0.80513 0.56949 0.0
C305 C 0.46338 0.79275 0.50022 0.0
C306 C 0.43578 0.78541 0.5505 0.0
N307 N 0.44411 0.77969 0.51654 0.0
C308 C 0.50142 0.8148 0.61906 0.0
C309 C 0.53122 0.82648 0.57321 0.0
C310 C 0.50433 0.79924 0.63718 0.0
N311 N 0.51481 0.82813 0.58791 0.0
C312 C 0.53462 0.81093 0.59027 0.0
C313 C 0.5212 0.79729 0.62314 0.0
H314 H 0.48866 0.81657 0.63068 0.0
H315 H 0.54185 0.83731 0.54893 0.0
C316 C 0.48319 0.86422 0.43221 0.0
N317 N 0.47369 0.85466 0.47123 0.0
C318 C 0.47143 0.86324 0.39466 0.0
C319 C 0.44038 0.84183 0.4376 0.0
C320 C 0.45272 0.84338 0.4744 0.0
C321 C 0.44971 0.85229 0.39742 0.0
H322 H 0.49991 0.8733 0.43088 0.0
H323 H 0.44554 0.83619 0.50602 0.0
O324 O 0.51826 0.87182 0.61856 0.0
O325 O 0.49514 0.88508 0.55854 0.0
O326 O 0.51855 0.86522 0.51383 0.0
O327 O 0.47803 0.83815 0.57141 0.0
H328 H 0.50312 0.8489 0.692 0.0
H329 H 0.55799 0.8833 0.61179 0.0
H330 H 0.5229 0.83872 0.74282 0.0
H331 H 0.5768 0.87243 0.66379 0.0
H332 H 0.43507 0.88281 0.52022 0.0
H333 H 0.50964 0.91157 0.49065 0.0
H334 H 0.45531 0.87225 0.56885 0.0
H335 H 0.48846 0.92145 0.44341 0.0
H336 H 0.57068 0.95361 0.62625 0.0
H337 H 0.57388 0.95051 0.48123 0.0
H338 H 0.44656 0.83183 0.74072 0.0
H339 H 0.46247 0.89513 0.71561 0.0
H340 H 0.51328 0.84007 0.44583 0.0
H341 H 0.55848 0.88614 0.53447 0.0
H342 H 0.54131 0.83648 0.40981 0.0
H343 H 0.58573 0.8819 0.49667 0.0
H344 H 0.49045 0.82293 0.50565 0.0
H345 H 0.44047 0.80973 0.59652 0.0
H346 H 0.4696 0.78774 0.47325 0.0
H347 H 0.42042 0.77467 0.56278 0.0
H348 H 0.49341 0.78877 0.66184 0.0
H349 H 0.54776 0.80977 0.57854 0.0
H350 H 0.47923 0.87157 0.36435 0.0
H351 H 0.4237 0.83284 0.44083 0.0
Li352 Li 0.63354 0.52168 0.73455 0.0
Li353 Li 0.62172 0.48867 0.77613 0.0
Li354 Li 0.65616 0.50567 0.74212 0.0
Li355 Li 0.62567 0.48928 0.69698 0.0
C356 C 0.66158 0.52915 0.81505 0.0
N357 N 0.69678 0.55436 0.86419 0.0
C358 C 0.66503 0.52238 0.85634 0.0
C359 C 0.67594 0.54875 0.79883 0.0
C360 C 0.68295 0.53536 0.88065 0.0
C361 C 0.69366 0.56127 0.82418 0.0
C362 C 0.58773 0.48662 0.74993 0.0
C363 C 0.55542 0.45615 0.76881 0.0
N364 N 0.54987 0.46805 0.79314 0.0
C365 C 0.58167 0.49858 0.77488 0.0
C366 C 0.57448 0.46525 0.74662 0.0
C367 C 0.56248 0.48889 0.79656 0.0
C368 C 0.6266 0.55292 0.69775 0.0
N369 N 0.63096 0.54572 0.73584 0.0
C370 C 0.6246 0.56836 0.78138 0.0
C371 C 0.63048 0.55339 0.77708 0.0
C372 C 0.61918 0.57548 0.74284 0.0
C373 C 0.62072 0.56797 0.70047 0.0
H374 H 0.6266 0.5462 0.66554 0.0
H375 H 0.63353 0.54702 0.80692 0.0
C376 C 0.60004 0.45394 0.8334 0.0
N377 N 0.60698 0.47448 0.82838 0.0
C378 C 0.58982 0.44378 0.87279 0.0
C379 C 0.59407 0.4761 0.90093 0.0
C380 C 0.6042 0.48564 0.86099 0.0
C381 C 0.58694 0.45495 0.90731 0.0
H382 H 0.60258 0.44551 0.807 0.0
H383 H 0.61004 0.502 0.85603 0.0
C384 C 0.65451 0.5159 0.64351 0.0
N385 N 0.66081 0.51061 0.55391 0.0
C386 C 0.66856 0.50948 0.63159 0.0
C387 C 0.64369 0.51966 0.60985 0.0
C388 C 0.67155 0.50693 0.58611 0.0
C389 C 0.64706 0.51685 0.56475 0.0
C390 C 0.63435 0.45955 0.72074 0.0
C391 C 0.6525 0.46059 0.70496 0.0
C392 C 0.61537 0.44138 0.71477 0.0
C393 C 0.65134 0.44345 0.6831 0.0
C394 C 0.61485 0.4246 0.69265 0.0
N395 N 0.63269 0.42598 0.67741 0.0
C396 C 0.68413 0.49968 0.79074 0.0
C397 C 0.7009 0.52667 0.73717 0.0
C398 C 0.70311 0.50324 0.80726 0.0
N399 N 0.68336 0.51138 0.75652 0.0
C400 C 0.7203 0.53054 0.75223 0.0
C401 C 0.72147 0.51887 0.78807 0.0
H402 H 0.6699 0.48778 0.80568 0.0
H403 H 0.69981 0.53597 0.71053 0.0
C404 C 0.59464 0.47274 0.63091 0.0
N405 N 0.61282 0.4739 0.64264 0.0
C406 C 0.58387 0.46176 0.59268 0.0
C407 C 0.61081 0.45352 0.57847 0.0
C408 C 0.62116 0.46483 0.61683 0.0
C409 C 0.59187 0.45187 0.56597 0.0
H410 H 0.58848 0.48043 0.65118 0.0
H411 H 0.63583 0.46628 0.62594 0.0
O412 O 0.64455 0.51639 0.78993 0.0
O413 O 0.60671 0.4957 0.72957 0.0
O414 O 0.6511 0.5181 0.68792 0.0
O415 O 0.63521 0.47608 0.74268 0.0
H416 H 0.65408 0.50718 0.86915 0.0
H417 H 0.67354 0.55411 0.76672 0.0
H418 H 0.68591 0.53029 0.91253 0.0
H419 H 0.70498 0.57643 0.81195 0.0
H420 H 0.54506 0.43961 0.76676 0.0
H421 H 0.59174 0.51512 0.77783 0.0
H422 H 0.57896 0.4558 0.72742 0.0
H423 H 0.55762 0.49793 0.81619 0.0
H424 H 0.62349 0.57371 0.81462 0.0
H425 H 0.61623 0.57275 0.67008 0.0
H426 H 0.58419 0.42736 0.87618 0.0
H427 H 0.59216 0.48522 0.92686 0.0
H428 H 0.67686 0.50624 0.65716 0.0
H429 H 0.63254 0.52432 0.61845 0.0
H430 H 0.68231 0.50188 0.57643 0.0
H431 H 0.63868 0.51955 0.53838 0.0
H432 H 0.66733 0.47448 0.70924 0.0
H433 H 0.60116 0.44032 0.72659 0.0
H434 H 0.66525 0.44407 0.67056 0.0
H435 H 0.60026 0.4105 0.68753 0.0
H436 H 0.70345 0.49379 0.83457 0.0
H437 H 0.73423 0.54271 0.7367 0.0
H438 H 0.56947 0.46114 0.58394 0.0
H439 H 0.61743 0.44591 0.55923 0.0
Li440 Li 0.13753 0.62792 0.86236 0.0
Li441 Li 0.15004 0.65729 0.90901 0.0
Li442 Li 0.13358 0.62348 0.94411 0.0
Li443 Li 0.11302 0.63648 0.89845 0.0
C444 C 0.1779 0.64202 0.89005 0.0
N445 N 0.21572 0.65305 0.85147 0.0
C446 C 0.18583 0.65687 0.85591 0.0
C447 C 0.1892 0.63281 0.90471 0.0
C448 C 0.20498 0.66225 0.8368 0.0
C449 C 0.20829 0.63858 0.88473 0.0
C450 C 0.1374 0.66982 0.83106 0.0
C451 C 0.12959 0.6973 0.82132 0.0
N452 N 0.1441 0.70554 0.78822 0.0
C453 C 0.15198 0.67837 0.7964 0.0
C454 C 0.12589 0.67918 0.84319 0.0
C455 C 0.15525 0.69652 0.77539 0.0
C456 C 0.13352 0.61802 0.76993 0.0
N457 N 0.1414 0.61577 0.80941 0.0
C458 C 0.15183 0.5936 0.77427 0.0
C459 C 0.15056 0.60397 0.81221 0.0
C460 C 0.14362 0.59544 0.73309 0.0
C461 C 0.13443 0.6079 0.73115 0.0
H462 H 0.12602 0.62722 0.76891 0.0
H463 H 0.15638 0.60215 0.84421 0.0
C464 C 0.18666 0.68386 0.9517 0.0
N465 N 0.1728 0.68436 0.9227 0.0
C466 C 0.20353 0.70213 0.96713 0.0
C467 C 0.19169 0.7214 0.92294 0.0
C468 C 0.17495 0.70265 0.90829 0.0
C469 C 0.2062 0.72122 0.95285 0.0
H470 H 0.18435 0.66917 0.96368 0.0
H471 H 0.16362 0.70284 0.88607 0.0
C472 C 0.10593 0.59064 0.8761 0.0
N473 N 0.09506 0.55431 0.83058 0.0
C474 C 0.09221 0.5846 0.83976 0.0
C475 C 0.11406 0.57816 0.88941 0.0
C476 C 0.08694 0.5662 0.81712 0.0
C477 C 0.10836 0.55985 0.86597 0.0
C478 C 0.13535 0.66321 0.98464 0.0
C479 C 0.14727 0.66455 0.02219 0.0
C480 C 0.13142 0.67929 0.97539 0.0
C481 C 0.15537 0.68216 0.04943 0.0
C482 C 0.1398 0.69665 0.00342 0.0
N483 N 0.15153 0.69773 0.03951 0.0
C484 C 0.15071 0.61429 0.01823 0.0
C485 C 0.11479 0.59121 0.00733 0.0
C486 C 0.15063 0.60362 0.05689 0.0
N487 N 0.13293 0.60799 0.99467 0.0
C488 C 0.11407 0.5799 0.04541 0.0
C489 C 0.13215 0.5862 0.07067 0.0
H490 H 0.16486 0.62775 0.00722 0.0
H491 H 0.1009 0.58669 0.98791 0.0
C492 C 0.07525 0.6267 0.85698 0.0
N493 N 0.08648 0.63392 0.89543 0.0
C494 C 0.05435 0.62103 0.85653 0.0
C495 C 0.05745 0.63179 0.93431 0.0
C496 C 0.0782 0.63694 0.93346 0.0
C497 C 0.04507 0.62317 0.89587 0.0
H498 H 0.08228 0.6244 0.82733 0.0
H499 H 0.08745 0.64249 0.96371 0.0
O500 O 0.15912 0.63639 0.90909 0.0
O501 O 0.13381 0.65191 0.85156 0.0
O502 O 0.11185 0.60895 0.89774 0.0
O503 O 0.1279 0.64642 0.95667 0.0
H504 H 0.17732 0.66421 0.84451 0.0
H505 H 0.18322 0.62125 0.93112 0.0
H506 H 0.21131 0.67374 0.81034 0.0
H507 H 0.21719 0.63154 0.89565 0.0
H508 H 0.12089 0.70478 0.83061 0.0
H509 H 0.16059 0.67101 0.78556 0.0
H510 H 0.11424 0.67258 0.86919 0.0
H511 H 0.16657 0.70337 0.74872 0.0
H512 H 0.15898 0.5841 0.77717 0.0
H513 H 0.12747 0.60933 0.70033 0.0
H514 H 0.21425 0.70133 0.99055 0.0
H515 H 0.19336 0.73583 0.91075 0.0
H516 H 0.08589 0.59413 0.82879 0.0
H517 H 0.12495 0.58275 0.917 0.0
H518 H 0.07644 0.5614 0.78876 0.0
H519 H 0.11464 0.55011 0.87572 0.0
H520 H 0.15046 0.65226 0.0299 0.0
H521 H 0.12215 0.67848 0.94665 0.0
H522 H 0.16478 0.68348 0.07836 0.0
H523 H 0.13703 0.70928 0.99641 0.0
H524 H 0.16484 0.60883 0.07569 0.0
H525 H 0.09952 0.56663 0.05549 0.0
H526 H 0.04536 0.61395 0.82647 0.0
H527 H 0.05094 0.63376 0.96527 0.0
Li528 Li 0.85034 0.51022 0.88952 0.0
Li529 Li 0.86096 0.49044 0.93706 0.0
Li530 Li 0.88685 0.52261 0.89604 0.0
Li531 Li 0.86549 0.49023 0.85414 0.0
C532 C 0.85775 0.52841 0.9677 0.0
N533 N 0.83702 0.54555 0.01058 0.0
C534 C 0.84282 0.51709 0.00035 0.0
C535 C 0.8623 0.5485 0.95713 0.0
C536 C 0.83248 0.52603 0.02161 0.0
C537 C 0.85159 0.55687 0.97909 0.0
C538 C 0.82462 0.45921 0.89289 0.0
C539 C 0.81405 0.42309 0.88438 0.0
N540 N 0.79485 0.41784 0.89967 0.0
C541 C 0.80468 0.45343 0.90788 0.0
C542 C 0.82925 0.44391 0.88049 0.0
C543 C 0.78989 0.43245 0.91134 0.0
C544 C 0.83168 0.52969 0.84307 0.0
N545 N 0.82956 0.51765 0.87931 0.0
C546 C 0.79546 0.51181 0.8929 0.0
C547 C 0.81207 0.50907 0.90473 0.0
C548 C 0.79696 0.52366 0.85476 0.0
C549 C 0.81557 0.53303 0.83032 0.0
H550 H 0.84555 0.53608 0.8229 0.0
H551 H 0.81068 0.49942 0.93315 0.0
C552 C 0.87464 0.47846 0.01258 0.0
N553 N 0.85704 0.47477 0.99096 0.0
C554 C 0.87366 0.46675 0.0501 0.0
C555 C 0.83636 0.44829 0.04417 0.0
C556 C 0.83807 0.46028 0.00641 0.0
C557 C 0.85435 0.45132 0.06611 0.0
H558 H 0.88951 0.49028 4e-05 0.0
H559 H 0.82427 0.45786 0.98934 0.0
C560 C 0.8835 0.53428 0.81233 0.0
N561 N 0.9102 0.56657 0.75738 0.0
C562 C 0.89136 0.53033 0.77317 0.0
C563 C 0.88904 0.55463 0.82326 0.0
C564 C 0.90488 0.54688 0.74589 0.0
C565 C 0.90262 0.57075 0.79514 0.0
C566 C 0.89557 0.48427 0.90464 0.0
C567 C 0.91684 0.49355 0.89672 0.0
C568 C 0.88434 0.4633 0.91602 0.0
C569 C 0.92644 0.48159 0.89946 0.0
C570 C 0.89449 0.45188 0.91853 0.0
N571 N 0.91515 0.46117 0.91019 0.0
C572 C 0.92144 0.55945 0.93134 0.0
C573 C 0.927 0.54637 0.86319 0.0
C574 C 0.94225 0.57508 0.93244 0.0
N575 N 0.91435 0.54544 0.89717 0.0
C576 C 0.9477 0.56189 0.86248 0.0
C577 C 0.95557 0.57633 0.89763 0.0
H578 H 0.91108 0.55817 0.95824 0.0
H579 H 0.92113 0.53467 0.83721 0.0
C580 C 0.84829 0.46784 0.77497 0.0
N581 N 0.8651 0.4752 0.80238 0.0
C582 C 0.84777 0.45796 0.73467 0.0
C583 C 0.88173 0.46317 0.75199 0.0
C584 C 0.88167 0.47311 0.7917 0.0
C585 C 0.86477 0.45575 0.72255 0.0
H586 H 0.83545 0.46999 0.78415 0.0
H587 H 0.89503 0.47946 0.81346 0.0
O588 O 0.86778 0.5198 0.94601 0.0
O589 O 0.83923 0.47973 0.88901 0.0
O590 O 0.87048 0.5183 0.8398 0.0
O591 O 0.88597 0.49582 0.90213 0.0
H592 H 0.83913 0.50152 0.00887 0.0
H593 H 0.8739 0.55748 0.93212 0.0
H594 H 0.8208 0.51742 0.04677 0.0
H595 H 0.85486 0.57236 0.97109 0.0
H596 H 0.81749 0.41112 0.87503 0.0
H597 H 0.80066 0.46498 0.91711 0.0
H598 H 0.84433 0.44798 0.86752 0.0
H599 H 0.77446 0.42778 0.92325 0.0
H600 H 0.78126 0.50387 0.91215 0.0
H601 H 0.81741 0.54232 0.80078 0.0
H602 H 0.88786 0.46968 0.06643 0.0
H603 H 0.82119 0.43647 0.05545 0.0
H604 H 0.88718 0.51469 0.76406 0.0
H605 H 0.88308 0.55795 0.8534 0.0
H606 H 0.91116 0.54406 0.71562 0.0
H607 H 0.90716 0.58658 0.80338 0.0
H608 H 0.92588 0.50978 0.88843 0.0
H609 H 0.86804 0.45596 0.92369 0.0
H610 H 0.94287 0.48857 0.89317 0.0
H611 H 0.88596 0.43564 0.92734 0.0
H612 H 0.94795 0.58586 0.96035 0.0
H613 H 0.95766 0.56206 0.83573 0.0
H614 H 0.83443 0.45249 0.71279 0.0
H615 H 0.89495 0.46138 0.74438 0.0
Li616 Li 0.34353 0.85074 0.06198 0.0
Li617 Li 0.37163 0.86149 0.11203 0.0
Li618 Li 0.36589 0.88765 0.0722 0.0
Li619 Li 0.37709 0.86494 0.02802 0.0
C620 C 0.33257 0.8611 0.14706 0.0
N621 N 0.29984 0.84877 0.2061 0.0
C622 C 0.32897 0.84646 0.18044 0.0
C623 C 0.31988 0.8699 0.14452 0.0
C624 C 0.31224 0.84031 0.20975 0.0
C625 C 0.3033 0.86333 0.17444 0.0
C626 C 0.35061 0.81893 0.06425 0.0
C627 C 0.33653 0.7864 0.02477 0.0
N628 N 0.32391 0.77669 0.06042 0.0
C629 C 0.33774 0.80856 0.10075 0.0
C630 C 0.35022 0.80773 0.02616 0.0
C631 C 0.32426 0.78723 0.09807 0.0
C632 C 0.31496 0.82156 0.00455 0.0
N633 N 0.31596 0.82927 0.04656 0.0
C634 C 0.28029 0.80436 0.05925 0.0
C635 C 0.29905 0.82113 0.0739 0.0
C636 C 0.27905 0.796 0.01619 0.0
C637 C 0.29664 0.80497 0.9886 0.0
H638 H 0.32868 0.82803 0.98374 0.0
H639 H 0.30012 0.82716 0.10738 0.0
C640 C 0.38844 0.87215 0.19922 0.0
N641 N 0.38252 0.85745 0.16668 0.0
C642 C 0.3984 0.87097 0.23798 0.0
C643 C 0.39536 0.83919 0.20972 0.0
C644 C 0.38563 0.84109 0.17125 0.0
C645 C 0.402 0.85432 0.24363 0.0
H646 H 0.38599 0.88514 0.1943 0.0
H647 H 0.38099 0.82977 0.14456 0.0
C648 C 0.33988 0.87092 0.98832 0.0
N649 N 0.30756 0.8671 0.93579 0.0
C650 C 0.33973 0.86757 0.94196 0.0
C651 C 0.32374 0.8726 0.00782 0.0
C652 C 0.32321 0.86561 0.91601 0.0
C653 C 0.3075 0.87054 0.98076 0.0
C654 C 0.41029 0.89171 0.09738 0.0
C655 C 0.42021 0.90983 0.12295 0.0
C656 C 0.41855 0.87854 0.09558 0.0
C657 C 0.4382 0.91441 0.14661 0.0
C658 C 0.43654 0.88364 0.11976 0.0
N659 N 0.44591 0.90132 0.14459 0.0
C660 C 0.37798 0.92582 0.11338 0.0
C661 C 0.36636 0.92333 0.03811 0.0
C662 C 0.38408 0.94681 0.11474 0.0
N663 N 0.36977 0.91472 0.07512 0.0
C664 C 0.37186 0.94418 0.03826 0.0
C665 C 0.3813 0.95635 0.07657 0.0
H666 H 0.38066 0.91856 0.14214 0.0
H667 H 0.3601 0.91426 0.00787 0.0
C668 C 0.38112 0.85195 0.94261 0.0
N669 N 0.39219 0.86456 0.97722 0.0
C670 C 0.39106 0.85152 0.9032 0.0
C671 C 0.42369 0.87692 0.93596 0.0
C672 C 0.41307 0.87704 0.9746 0.0
C673 C 0.41259 0.86407 0.89972 0.0
H674 H 0.3645 0.84239 0.9455 0.0
H675 H 0.42145 0.88728 0.00215 0.0
O676 O 0.34899 0.86749 0.11836 0.0
O677 O 0.36349 0.83992 0.06575 0.0
O678 O 0.35573 0.87251 0.01449 0.0
O679 O 0.39223 0.88653 0.0753 0.0
H680 H 0.33906 0.84004 0.184 0.0
H681 H 0.32286 0.88178 0.11996 0.0
H682 H 0.30919 0.82889 0.23555 0.0
H683 H 0.29326 0.86989 0.17264 0.0
H684 H 0.33594 0.77758 0.99534 0.0
H685 H 0.33798 0.81694 0.13059 0.0
H686 H 0.36029 0.81541 0.99788 0.0
H687 H 0.31405 0.77907 0.12591 0.0
H688 H 0.26715 0.79759 0.0819 0.0
H689 H 0.29633 0.79899 0.95518 0.0
H690 H 0.40377 0.8833 0.26259 0.0
H691 H 0.39783 0.82612 0.21275 0.0
H692 H 0.35221 0.8665 0.92615 0.0
H693 H 0.32369 0.87526 0.04354 0.0
H694 H 0.32285 0.86293 0.88013 0.0
H695 H 0.29483 0.87165 0.99552 0.0
H696 H 0.41405 0.92021 0.1247 0.0
H697 H 0.41093 0.86434 0.07628 0.0
H698 H 0.446 0.92834 0.16668 0.0
H699 H 0.44301 0.8735 0.11897 0.0
H700 H 0.39183 0.95564 0.14455 0.0
H701 H 0.3694 0.95087 0.00816 0.0
H702 H 0.38205 0.84146 0.87578 0.0
H703 H 0.4403 0.88704 0.93402 0.0
Li704 Li 0.49091 0.34355 0.23083 0.0
Li705 Li 0.50612 0.37267 0.27958 0.0
Li706 Li 0.47357 0.36279 0.24132 0.0
Li707 Li 0.50609 0.37713 0.19809 0.0
C708 C 0.48082 0.33535 0.32163 0.0
N709 N 0.48503 0.31247 0.38976 0.0
C710 C 0.49802 0.33258 0.32266 0.0
C711 C 0.46576 0.32648 0.35525 0.0
C712 C 0.49987 0.32097 0.35737 0.0
C713 C 0.46817 0.31496 0.38941 0.0
C714 C 0.54112 0.37906 0.23266 0.0
C715 C 0.56983 0.41388 0.23976 0.0
N716 N 0.58319 0.40675 0.23271 0.0
C717 C 0.55513 0.37209 0.22541 0.0
C718 C 0.54851 0.40014 0.23982 0.0
C719 C 0.57634 0.38633 0.22559 0.0
C720 C 0.50151 0.31821 0.1853 0.0
N721 N 0.48797 0.3173 0.21704 0.0
C722 C 0.4718 0.28042 0.22007 0.0
C723 C 0.47322 0.29894 0.23458 0.0
C724 C 0.48575 0.28098 0.18751 0.0
C725 C 0.50063 0.30017 0.16987 0.0
H726 H 0.5128 0.33301 0.1714 0.0
H727 H 0.46244 0.29867 0.25931 0.0
C728 C 0.5156 0.39629 0.35863 0.0
N729 N 0.52133 0.38473 0.33363 0.0
C730 C 0.52681 0.40661 0.39707 0.0
C731 C 0.54943 0.39265 0.38381 0.0
C732 C 0.53766 0.38244 0.34586 0.0
C733 C 0.54416 0.40511 0.40959 0.0
H734 H 0.50244 0.39768 0.34832 0.0
H735 H 0.54174 0.3729 0.32589 0.0
C736 C 0.46561 0.33489 0.16299 0.0
N737 N 0.4398 0.29704 0.12332 0.0
C738 C 0.47018 0.33043 0.12022 0.0
C739 C 0.44784 0.32015 0.18547 0.0
C740 C 0.45696 0.31119 0.10077 0.0
C741 C 0.435 0.3011 0.16486 0.0
C742 C 0.49375 0.40526 0.23144 0.0
C743 C 0.4842 0.40287 0.18958 0.0
C744 C 0.49741 0.42192 0.259 0.0
C745 C 0.47844 0.41722 0.17604 0.0
C746 C 0.49146 0.43597 0.24419 0.0
N747 N 0.48215 0.43333 0.2034 0.0
C748 C 0.44654 0.3737 0.28184 0.0
C749 C 0.43701 0.36058 0.2076 0.0
C750 C 0.43214 0.38046 0.28146 0.0
N751 N 0.44906 0.3645 0.24479 0.0
C752 C 0.42232 0.36693 0.20592 0.0
C753 C 0.42036 0.37776 0.24249 0.0
H754 H 0.45676 0.37712 0.3104 0.0
H755 H 0.43976 0.35384 0.17807 0.0
C756 C 0.52481 0.38226 0.11511 0.0
N757 N 0.52161 0.39305 0.14788 0.0
C758 C 0.536 0.39231 0.07657 0.0
C759 C 0.5409 0.42456 0.10673 0.0
C760 C 0.52966 0.41388 0.14485 0.0
C761 C 0.54415 0.41371 0.07207 0.0
H762 H 0.51872 0.36583 0.11913 0.0
H763 H 0.52753 0.42226 0.17202 0.0
O764 O 0.47856 0.34668 0.28814 0.0
O765 O 0.52032 0.36518 0.23237 0.0
O766 O 0.47867 0.35337 0.18334 0.0
O767 O 0.49862 0.39085 0.24637 0.0
H768 H 0.50982 0.33922 0.29696 0.0
H769 H 0.45236 0.32848 0.35493 0.0
H770 H 0.51309 0.3187 0.35855 0.0
H771 H 0.45663 0.30801 0.41565 0.0
H772 H 0.57576 0.43022 0.24533 0.0
H773 H 0.54965 0.35583 0.21975 0.0
H774 H 0.53797 0.40588 0.24552 0.0
H775 H 0.58736 0.38114 0.22007 0.0
H776 H 0.46006 0.26587 0.23427 0.0
H777 H 0.51131 0.30121 0.1439 0.0
H778 H 0.52227 0.41605 0.41624 0.0
H779 H 0.56249 0.39084 0.39294 0.0
H780 H 0.48379 0.34166 0.10222 0.0
H781 H 0.44419 0.32328 0.2188 0.0
H782 H 0.46035 0.3075 0.06777 0.0
H783 H 0.42127 0.2895 0.182 0.0
H784 H 0.48109 0.38998 0.16791 0.0
H785 H 0.50466 0.42393 0.2916 0.0
H786 H 0.47095 0.4155 0.14385 0.0
H787 H 0.49417 0.44893 0.26522 0.0
H788 H 0.43122 0.38892 0.31018 0.0
H789 H 0.41334 0.36435 0.17549 0.0
H790 H 0.53806 0.3834 0.05036 0.0
H791 H 0.54719 0.44113 0.10456 0.0
Li792 Li 0.13273 0.50768 0.44666 0.0
Li793 Li 0.1472 0.49206 0.40112 0.0
Li794 Li 0.13012 0.50861 0.3662 0.0
Li795 Li 0.10944 0.47436 0.40531 0.0
C796 C 0.16846 0.53821 0.42802 0.0
N797 N 0.19352 0.57119 0.48318 0.0
C798 C 0.18299 0.5372 0.45604 0.0
C799 C 0.16678 0.55606 0.42778 0.0
C800 C 0.19551 0.55403 0.4837 0.0
C801 C 0.17955 0.57254 0.45603 0.0
C802 C 0.13578 0.46659 0.47225 0.0
C803 C 0.13049 0.43227 0.48369 0.0
N804 N 0.14869 0.44049 0.50664 0.0
C805 C 0.15439 0.4747 0.49611 0.0
C806 C 0.1237 0.44521 0.46604 0.0
C807 C 0.16066 0.46124 0.51315 0.0
C808 C 0.12634 0.53505 0.50086 0.0
N809 N 0.13501 0.52279 0.50073 0.0
C810 C 0.14781 0.5336 0.57557 0.0
C811 C 0.14545 0.5217 0.53725 0.0
C812 C 0.13943 0.54677 0.57604 0.0
C813 C 0.12841 0.54726 0.53823 0.0
H814 H 0.11793 0.5355 0.47179 0.0
H815 H 0.15217 0.51182 0.53643 0.0
C816 C 0.18669 0.50525 0.36919 0.0
N817 N 0.17059 0.48845 0.38883 0.0
C818 C 0.20395 0.50446 0.35399 0.0
C819 C 0.18796 0.46902 0.37933 0.0
C820 C 0.17081 0.47041 0.39359 0.0
C821 C 0.20487 0.48626 0.35933 0.0
H822 H 0.18585 0.51913 0.36385 0.0
H823 H 0.1575 0.45689 0.40711 0.0
C824 C 0.09495 0.50654 0.39118 0.0
N825 N 0.07022 0.51945 0.34932 0.0
C826 C 0.07484 0.49207 0.37778 0.0
C827 C 0.10239 0.5276 0.38363 0.0
C828 C 0.0626 0.4989 0.35661 0.0
C829 C 0.08969 0.53381 0.36229 0.0
C830 C 0.13446 0.47281 0.32272 0.0
C831 C 0.14868 0.48503 0.28968 0.0
C832 C 0.129 0.45206 0.32734 0.0
C833 C 0.15744 0.47629 0.26202 0.0
C834 C 0.13808 0.44389 0.29896 0.0
N835 N 0.15201 0.45609 0.26721 0.0
C836 C 0.14693 0.54165 0.30401 0.0
C837 C 0.11352 0.51394 0.28582 0.0
C838 C 0.14744 0.55195 0.26438 0.0
N839 N 0.1301 0.52307 0.31391 0.0
C840 C 0.11325 0.52382 0.24618 0.0
C841 C 0.13049 0.54297 0.23477 0.0
H842 H 0.16008 0.54829 0.32652 0.0
H843 H 0.1005 0.49898 0.29432 0.0
C844 C 0.0715 0.44291 0.44092 0.0
N845 N 0.08332 0.44989 0.40316 0.0
C846 C 0.05063 0.42774 0.4377 0.0
C847 C 0.05482 0.42677 0.35711 0.0
C848 C 0.0756 0.44186 0.36189 0.0
C849 C 0.04195 0.41994 0.39519 0.0
H850 H 0.07799 0.44999 0.47311 0.0
H851 H 0.08526 0.44809 0.33235 0.0
O852 O 0.15557 0.52161 0.40187 0.0
O853 O 0.1292 0.47945 0.45585 0.0
O854 O 0.10723 0.5001 0.41165 0.0
O855 O 0.12623 0.48125 0.35103 0.0
H856 H 0.18443 0.52349 0.45676 0.0
H857 H 0.15555 0.55706 0.40649 0.0
H858 H 0.20674 0.55342 0.50573 0.0
H859 H 0.1783 0.58636 0.45649 0.0
H860 H 0.12132 0.4157 0.47905 0.0
H861 H 0.164 0.49119 0.50101 0.0
H862 H 0.10927 0.43867 0.44767 0.0
H863 H 0.17508 0.4673 0.53146 0.0
H864 H 0.15636 0.53277 0.60423 0.0
H865 H 0.12133 0.55689 0.53769 0.0
H866 H 0.21621 0.51785 0.33709 0.0
H867 H 0.18792 0.45458 0.38354 0.0
H868 H 0.06867 0.47575 0.38371 0.0
H869 H 0.11798 0.53903 0.39319 0.0
H870 H 0.04704 0.48785 0.34599 0.0
H871 H 0.09534 0.55004 0.35585 0.0
H872 H 0.1531 0.50115 0.28587 0.0
H873 H 0.1181 0.44246 0.35299 0.0
H874 H 0.1686 0.4856 0.23652 0.0
H875 H 0.13413 0.42789 0.30232 0.0
H876 H 0.16109 0.56661 0.2566 0.0
H877 H 0.09968 0.51657 0.22481 0.0
H878 H 0.04109 0.42319 0.46771 0.0
H879 H 0.04863 0.42118 0.32378 0.0
Li880 Li 0.62648 0.13574 0.61806 0.0
Li881 Li 0.65705 0.15041 0.57368 0.0
Li882 Li 0.62384 0.13428 0.5375 0.0
Li883 Li 0.63651 0.11271 0.57593 0.0
C884 C 0.63387 0.17262 0.60242 0.0
N885 N 0.62877 0.19869 0.6604 0.0
C886 C 0.65 0.18585 0.63097 0.0
C887 C 0.6152 0.17275 0.60311 0.0
C888 C 0.64711 0.19891 0.66007 0.0
C889 C 0.6129 0.18601 0.63275 0.0
C890 C 0.66997 0.13749 0.64505 0.0
C891 C 0.69838 0.13116 0.65606 0.0
N892 N 0.70813 0.14849 0.68192 0.0
C893 C 0.68022 0.15518 0.67191 0.0
C894 C 0.67907 0.12533 0.63715 0.0
C895 C 0.69953 0.16051 0.69016 0.0
C896 C 0.5932 0.13263 0.66929 0.0
N897 N 0.61334 0.13752 0.67196 0.0
C898 C 0.61431 0.14554 0.75026 0.0
C899 C 0.62395 0.14375 0.71147 0.0
C900 C 0.59367 0.14104 0.74801 0.0
C901 C 0.58305 0.1344 0.70698 0.0
H902 H 0.58506 0.12759 0.63773 0.0
H903 H 0.63989 0.1474 0.71285 0.0
C904 C 0.68347 0.18918 0.53992 0.0
N905 N 0.68417 0.17365 0.56231 0.0
C906 C 0.70151 0.20609 0.52371 0.0
C907 C 0.72106 0.19119 0.55472 0.0
C908 C 0.7025 0.1743 0.56975 0.0
C909 C 0.72066 0.20723 0.53068 0.0
H910 H 0.66871 0.18805 0.53301 0.0
H911 H 0.70278 0.16151 0.58587 0.0
C912 C 0.59036 0.0991 0.55888 0.0
N913 N 0.55367 0.07553 0.51269 0.0
C914 C 0.58499 0.07933 0.54343 0.0
C915 C 0.57693 0.10677 0.55112 0.0
C916 C 0.5664 0.06767 0.52013 0.0
C917 C 0.55852 0.09466 0.52758 0.0
C918 C 0.66415 0.13826 0.49523 0.0
C919 C 0.66646 0.15229 0.46141 0.0
C920 C 0.67957 0.13309 0.50185 0.0
C921 C 0.68438 0.16117 0.43507 0.0
C922 C 0.69724 0.1423 0.47475 0.0
N923 N 0.69928 0.15605 0.44227 0.0
C924 C 0.60652 0.15139 0.47895 0.0
C925 C 0.60376 0.11984 0.45451 0.0
C926 C 0.59622 0.15221 0.4405 0.0
N927 N 0.60982 0.13524 0.48537 0.0
C928 C 0.59335 0.12 0.41563 0.0
C929 C 0.58935 0.13627 0.4085 0.0
H930 H 0.61204 0.16371 0.50349 0.0
H931 H 0.60692 0.10736 0.46035 0.0
C932 C 0.62793 0.07409 0.61038 0.0
N933 N 0.63442 0.08644 0.57335 0.0
C934 C 0.62147 0.05306 0.60647 0.0
C935 C 0.62957 0.05824 0.52696 0.0
C936 C 0.63592 0.07915 0.5324 0.0
C937 C 0.62151 0.04482 0.56398 0.0
H938 H 0.62654 0.0803 0.64228 0.0
H939 H 0.64073 0.08928 0.50341 0.0
O940 O 0.63617 0.15921 0.57486 0.0
O941 O 0.65092 0.1318 0.62749 0.0
O942 O 0.60864 0.11084 0.58139 0.0
O943 O 0.64709 0.12999 0.52242 0.0
H944 H 0.66453 0.18594 0.63091 0.0
H945 H 0.60245 0.16242 0.5817 0.0
H946 H 0.65942 0.20916 0.68249 0.0
H947 H 0.59847 0.18613 0.63398 0.0
H948 H 0.70563 0.12193 0.65013 0.0
H949 H 0.67344 0.16478 0.67839 0.0
H950 H 0.67136 0.11157 0.61654 0.0
H951 H 0.70768 0.17421 0.71083 0.0
H952 H 0.62293 0.15062 0.78149 0.0
H953 H 0.56701 0.13044 0.7042 0.0
H954 H 0.70039 0.2179 0.50478 0.0
H955 H 0.73549 0.19155 0.56157 0.0
H956 H 0.59497 0.07296 0.54938 0.0
H957 H 0.58096 0.12217 0.56188 0.0
H958 H 0.56211 0.05238 0.50793 0.0
H959 H 0.54814 0.10054 0.52087 0.0
H960 H 0.65467 0.15648 0.45604 0.0
H961 H 0.67802 0.12233 0.52808 0.0
H962 H 0.68648 0.1722 0.40904 0.0
H963 H 0.70939 0.13859 0.47972 0.0
H964 H 0.59388 0.16528 0.43554 0.0
H965 H 0.58833 0.10747 0.3916 0.0
H966 H 0.6152 0.04312 0.63567 0.0
H967 H 0.62995 0.05241 0.49377 0.0
Li968 Li 0.50798 0.65962 0.7398 0.0
Li969 Li 0.49104 0.63037 0.78976 0.0
Li970 Li 0.52109 0.63626 0.74729 0.0
Li971 Li 0.48878 0.62517 0.70934 0.0
C972 C 0.52027 0.66681 0.82956 0.0
N973 N 0.52112 0.69191 0.89895 0.0
C974 C 0.50506 0.6725 0.83238 0.0
C975 C 0.53591 0.6739 0.86202 0.0
C976 C 0.50577 0.6852 0.86771 0.0
C977 C 0.53607 0.68657 0.89685 0.0
C978 C 0.45675 0.62863 0.74684 0.0
C979 C 0.42522 0.59635 0.7597 0.0
N980 N 0.41405 0.60576 0.75031 0.0
C981 C 0.44497 0.63799 0.73732 0.0
C982 C 0.44682 0.60764 0.75811 0.0
C983 C 0.4234 0.62616 0.73926 0.0
C984 C 0.50183 0.68737 0.6921 0.0
N985 N 0.51412 0.68687 0.72523 0.0
C986 C 0.53338 0.72384 0.72804 0.0
C987 C 0.52979 0.70455 0.74326 0.0
C988 C 0.52082 0.72475 0.69384 0.0
C989 C 0.50492 0.70621 0.67581 0.0
H990 H 0.48968 0.67303 0.67809 0.0
H991 H 0.5396 0.70369 0.76898 0.0
C992 C 0.47923 0.60471 0.86514 0.0
N993 N 0.47653 0.61956 0.84508 0.0
C994 C 0.46769 0.59433 0.90314 0.0
C995 C 0.4513 0.61524 0.90026 0.0
C996 C 0.4631 0.62517 0.86207 0.0
C997 C 0.45336 0.59942 0.92088 0.0
H998 H 0.49008 0.60065 0.851 0.0
H999 H 0.46111 0.63691 0.84526 0.0
C1000 C 0.53496 0.66244 0.67342 0.0
N1001 N 0.57213 0.69276 0.63807 0.0
C1002 C 0.53782 0.66457 0.6268 0.0
C1003 C 0.55103 0.67573 0.70209 0.0
C1004 C 0.55673 0.67998 0.60958 0.0
C1005 C 0.56969 0.69096 0.68355 0.0
C1006 C 0.49646 0.59392 0.73621 0.0
C1007 C 0.50382 0.59573 0.69218 0.0
C1008 C 0.4908 0.57585 0.76065 0.0
C1009 C 0.50551 0.57947 0.67341 0.0
C1010 C 0.49272 0.55993 0.7407 0.0
N1011 N 0.49998 0.56206 0.69787 0.0
C1012 C 0.55135 0.62975 0.78872 0.0
C1013 C 0.5525 0.63016 0.70891 0.0
C1014 C 0.56627 0.62367 0.79064 0.0
N1015 N 0.54455 0.6325 0.74825 0.0
C1016 C 0.56732 0.62397 0.70926 0.0
C1017 C 0.57414 0.62029 0.75049 0.0
H1018 H 0.54454 0.63146 0.81943 0.0
H1019 H 0.54658 0.63202 0.67712 0.0
C1020 C 0.47527 0.62031 0.62064 0.0
N1021 N 0.47187 0.60991 0.66013 0.0
C1022 C 0.46439 0.60998 0.58201 0.0
C1023 C 0.44617 0.57857 0.62586 0.0
C1024 C 0.45755 0.58947 0.66359 0.0
C1025 C 0.44982 0.58877 0.58422 0.0
H1026 H 0.48671 0.63659 0.61908 0.0
H1027 H 0.45516 0.58158 0.69545 0.0
O1028 O 0.52 0.65435 0.79545 0.0
O1029 O 0.47788 0.64011 0.74498 0.0
O1030 O 0.51644 0.64745 0.69058 0.0
O1031 O 0.4947 0.60964 0.75554 0.0
H1032 H 0.49288 0.66729 0.80758 0.0
H1033 H 0.54779 0.66962 0.8603 0.0
H1034 H 0.4941 0.68972 0.87028 0.0
H1035 H 0.54809 0.69216 0.92221 0.0
H1036 H 0.41734 0.5801 0.76841 0.0
H1037 H 0.45244 0.65423 0.72854 0.0
H1038 H 0.45565 0.60013 0.76569 0.0
H1039 H 0.41408 0.6332 0.73197 0.0
H1040 H 0.54597 0.73784 0.74232 0.0
H1041 H 0.49484 0.70629 0.64962 0.0
H1042 H 0.46981 0.58232 0.91832 0.0
H1043 H 0.44022 0.61942 0.91265 0.0
H1044 H 0.52556 0.65438 0.60415 0.0
H1045 H 0.54918 0.67436 0.73823 0.0
H1046 H 0.55915 0.6818 0.57356 0.0
H1047 H 0.58224 0.70135 0.70534 0.0
H1048 H 0.50822 0.60952 0.67259 0.0
H1049 H 0.48497 0.57412 0.79469 0.0
H1050 H 0.51122 0.5807 0.6394 0.0
H1051 H 0.48842 0.54588 0.75927 0.0
H1052 H 0.57111 0.62097 0.82312 0.0
H1053 H 0.57249 0.62099 0.67751 0.0
H1054 H 0.46766 0.61838 0.55053 0.0
H1055 H 0.43472 0.56233 0.6292 0.0
C1056 C 0.57465 0.13408 0.28551 0.0
C1057 C 0.55788 0.13769 0.28719 0.0
C1058 C 0.58474 0.13365 0.32492 0.0
C1059 C 0.57838 0.13677 0.36737 0.0
H1060 H 0.58014 0.13178 0.25343 0.0
H1061 H 0.59777 0.13108 0.3221 0.0
S1062 S 0.5342 0.14511 0.39016 0.0
N1063 N 0.53467 0.14337 0.33477 0.0
N1064 N 0.5536 0.14247 0.40897 0.0
C1065 C 0.56146 0.14012 0.36955 0.0
C1066 C 0.55122 0.1406 0.32942 0.0
C1067 C 0.42024 0.5758 0.4738 0.0
C1068 C 0.41893 0.55701 0.46124 0.0
C1069 C 0.43005 0.58584 0.51384 0.0
C1070 C 0.43882 0.57741 0.54292 0.0
H1071 H 0.41395 0.583 0.45212 0.0
H1072 H 0.43077 0.60033 0.5221 0.0
S1073 S 0.43903 0.52824 0.52605 0.0
N1074 N 0.42654 0.52996 0.48183 0.0
N1075 N 0.44556 0.54916 0.55639 0.0
C1076 C 0.43741 0.55851 0.53101 0.0
C1077 C 0.42737 0.54826 0.49032 0.0
C1078 C 0.84735 0.42682 0.66705 0.0
C1079 C 0.86475 0.4457 0.67943 0.0
C1080 C 0.84717 0.41671 0.62716 0.0
C1081 C 0.86436 0.42514 0.59806 0.0
H1082 H 0.83387 0.4196 0.68874 0.0
H1083 H 0.83344 0.40217 0.61904 0.0
S1084 S 0.91356 0.47455 0.61446 0.0
N1085 N 0.89933 0.47286 0.65859 0.0
N1086 N 0.89928 0.45351 0.58438 0.0
C1087 C 0.88179 0.44413 0.60979 0.0
C1088 C 0.88194 0.45447 0.65032 0.0
C1089 C 0.42711 0.86831 0.77627 0.0
C1090 C 0.44324 0.86374 0.77642 0.0
C1091 C 0.41717 0.86826 0.81636 0.0
C1092 C 0.42332 0.86402 0.85793 0.0
H1093 H 0.42198 0.87168 0.74487 0.0
H1094 H 0.40472 0.87175 0.81493 0.0
S1095 S 0.46503 0.85155 0.87634 0.0
N1096 N 0.46508 0.85507 0.82139 0.0
N1097 N 0.44652 0.85521 0.89691 0.0
C1098 C 0.43957 0.85965 0.85856 0.0
C1099 C 0.44949 0.85942 0.81772 0.0
C1100 C 0.55018 0.43735 0.00702 0.0
C1101 C 0.55574 0.4246 0.03101 0.0
C1102 C 0.56041 0.44719 0.96714 0.0
C1103 C 0.57657 0.44464 0.94991 0.0
H1104 H 0.53757 0.4394 0.01871 0.0
H1105 H 0.55541 0.45659 0.94925 0.0
S1106 S 0.59834 0.41456 0.00258 0.0
N1107 N 0.57927 0.41104 0.03642 0.0
N1108 N 0.59858 0.42962 0.96152 0.0
C1109 C 0.58258 0.43233 0.97416 0.0
C1110 C 0.57215 0.42229 0.01471 0.0
C1111 C 0.13763 0.57495 0.1927 0.0
C1112 C 0.13083 0.55363 0.1923 0.0
C1113 C 0.13813 0.58541 0.15312 0.0
C1114 C 0.13168 0.57487 0.11185 0.0
H1115 H 0.14239 0.5836 0.22394 0.0
H1116 H 0.14333 0.60179 0.15488 0.0
S1117 S 0.11402 0.5195 0.09172 0.0
N1118 N 0.11871 0.52267 0.14637 0.0
N1119 N 0.11917 0.54232 0.0722 0.0
C1120 C 0.12501 0.55365 0.11076 0.0
C1121 C 0.12469 0.54303 0.15094 0.0
C1122 C 0.46603 0.24488 0.15644 0.0
C1123 C 0.48484 0.26172 0.17138 0.0
C1124 C 0.46525 0.2271 0.13839 0.0
C1125 C 0.48328 0.22565 0.13452 0.0
H1126 H 0.45192 0.24566 0.15774 0.0
H1127 H 0.45054 0.21458 0.12662 0.0
S1128 S 0.53583 0.26435 0.17391 0.0
N1129 N 0.5215 0.275 0.18476 0.0
N1130 N 0.52006 0.24174 0.15062 0.0
C1131 C 0.50202 0.24209 0.15067 0.0
C1132 C 0.5028 0.26009 0.16915 0.0
C1133 C 0.23731 0.46726 0.29875 0.0
C1134 C 0.25756 0.48367 0.30523 0.0
C1135 C 0.22031 0.46803 0.31691 0.0
C1136 C 0.22309 0.48516 0.3425 0.0
H1137 H 0.2346 0.45391 0.27904 0.0
H1138 H 0.20488 0.45533 0.31008 0.0
S1139 S 0.2735 0.53101 0.3727 0.0
N1140 N 0.27972 0.51685 0.34068 0.0
N1141 N 0.24799 0.51812 0.3761 0.0
C1142 C 0.24344 0.50134 0.35025 0.0
C1143 C 0.26062 0.50063 0.33131 0.0
C1144 C 0.74276 0.2452 0.51645 0.0
C1145 C 0.73988 0.22514 0.51252 0.0
C1146 C 0.76007 0.26233 0.49786 0.0
C1147 C 0.77545 0.26026 0.47488 0.0
H1148 H 0.7315 0.24774 0.53403 0.0
H1149 H 0.76122 0.27733 0.50108 0.0
S1150 S 0.77553 0.21112 0.45577 0.0
N1151 N 0.75376 0.20409 0.48326 0.0
N1152 N 0.78694 0.23651 0.45041 0.0
C1153 C 0.77295 0.24032 0.47117 0.0
C1154 C 0.7551 0.22276 0.48965 0.0
C1155 C 0.52498 0.76609 0.61305 0.0
C1156 C 0.52412 0.78054 0.64198 0.0
C1157 C 0.5247 0.74845 0.63023 0.0
C1158 C 0.5238 0.74477 0.67694 0.0
H1159 H 0.52491 0.76795 0.57687 0.0
H1160 H 0.52468 0.73733 0.60675 0.0
S1161 S 0.52317 0.77894 0.76685 0.0
N1162 N 0.52383 0.79087 0.71949 0.0
N1163 N 0.5232 0.75765 0.75181 0.0
C1164 C 0.52397 0.75964 0.70624 0.0
C1165 C 0.52412 0.77753 0.68874 0.0
C1166 C 0.75527 0.5203 0.77571 0.0
C1167 C 0.74165 0.52241 0.80495 0.0
C1168 C 0.77339 0.52131 0.79198 0.0
C1169 C 0.77866 0.52465 0.83805 0.0
H1170 H 0.75147 0.51704 0.74033 0.0
H1171 H 0.78296 0.51869 0.76849 0.0
S1172 S 0.7493 0.53387 0.92717 0.0
N1173 N 0.73528 0.52964 0.88118 0.0
N1174 N 0.76962 0.53206 0.91175 0.0
C1175 C 0.76558 0.52775 0.8672 0.0
C1176 C 0.74703 0.52652 0.85065 0.0
C1177 C 0.24419 0.74279 0.96659 0.0
C1178 C 0.22439 0.74068 0.96868 0.0
C1179 C 0.26166 0.7607 0.98216 0.0
C1180 C 0.26005 0.7772 0.00061 0.0
H1181 H 0.24622 0.73052 0.95257 0.0
H1182 H 0.27657 0.76154 0.98009 0.0
S1183 S 0.21172 0.77934 0.01414 0.0
N1184 N 0.20408 0.75646 0.99122 0.0
N1185 N 0.23709 0.79037 0.01989 0.0
C1186 C 0.24035 0.77531 0.00303 0.0
C1187 C 0.2225 0.75704 0.98704 0.0
C1188 C 0.58235 0.1323 0.8282 0.0
C1189 C 0.58301 0.14282 0.78842 0.0
C1190 C 0.5714 0.13287 0.86604 0.0
C1191 C 0.56082 0.1441 0.86556 0.0
H1192 H 0.58994 0.12316 0.82972 0.0
H1193 H 0.57086 0.12409 0.89559 0.0
S1194 S 0.55968 0.17602 0.77094 0.0
N1195 N 0.57334 0.16581 0.75152 0.0
N1196 N 0.55302 0.1672 0.82285 0.0
C1197 C 0.56187 0.15515 0.82631 0.0
C1198 C 0.57291 0.15445 0.78772 0.0
C1199 C 0.42921 0.56585 0.95843 0.0
C1200 C 0.44014 0.58761 0.95962 0.0
C1201 C 0.41712 0.55422 0.995 0.0
C1202 C 0.41553 0.56387 0.03431 0.0
H1203 H 0.42999 0.55775 0.92889 0.0
H1204 H 0.40896 0.5375 0.99246 0.0
S1205 S 0.44186 0.62046 0.05509 0.0
N1206 N 0.44895 0.6184 0.00353 0.0
N1207 N 0.42641 0.59654 0.07262 0.0
C1208 C 0.42631 0.58564 0.03586 0.0
C1209 C 0.43857 0.5975 0.99846 0.0
C1210 C 0.86515 0.42842 0.10474 0.0
C1211 C 0.85321 0.43823 0.1049 0.0
C1212 C 0.86501 0.41658 0.14154 0.0
C1213 C 0.853 0.41415 0.18007 0.0
H1214 H 0.87467 0.42991 0.07584 0.0
H1215 H 0.87442 0.40929 0.13981 0.0
S1216 S 0.81982 0.43756 0.19811 0.0
N1217 N 0.82942 0.44515 0.14704 0.0
N1218 N 0.82935 0.42314 0.21659 0.0
C1219 C 0.84094 0.42385 0.1806 0.0
C1220 C 0.84101 0.43583 0.14295 0.0
C1221 C 0.44124 0.84857 0.31493 0.0
C1222 C 0.43695 0.85234 0.35895 0.0
C1223 C 0.42968 0.84896 0.27803 0.0
C1224 C 0.41343 0.85321 0.28366 0.0
H1225 H 0.45361 0.84525 0.30893 0.0
H1226 H 0.43378 0.84627 0.24471 0.0
S1227 S 0.39594 0.86412 0.39202 0.0
N1228 N 0.41549 0.86077 0.406 0.0
N1229 N 0.39335 0.86081 0.33693 0.0
C1230 C 0.40888 0.85685 0.32756 0.0
C1231 C 0.42069 0.85654 0.3651 0.0
C1232 C 0.55871 0.42611 0.52861 0.0
C1233 C 0.58023 0.43972 0.52573 0.0
C1234 C 0.5472 0.41489 0.49102 0.0
C1235 C 0.55678 0.4167 0.44918 0.0
H1236 H 0.55069 0.42404 0.56027 0.0
H1237 H 0.53068 0.40462 0.49477 0.0
S1238 S 0.61237 0.45097 0.42281 0.0
N1239 N 0.61046 0.45497 0.47686 0.0
N1240 N 0.58883 0.43355 0.40646 0.0
C1241 C 0.57824 0.43018 0.44572 0.0
C1242 C 0.58996 0.44174 0.48392 0.0
C1243 C 0.13615 0.55065 0.65896 0.0
C1244 C 0.14178 0.55972 0.61598 0.0
C1245 C 0.13709 0.56238 0.69673 0.0
C1246 C 0.14377 0.58363 0.69293 0.0
H1247 H 0.13046 0.53425 0.6632 0.0
H1248 H 0.13206 0.55464 0.72897 0.0
S1249 S 0.16247 0.61513 0.58872 0.0
N1250 N 0.15573 0.59144 0.5723 0.0
N1251 N 0.15765 0.61353 0.64332 0.0
C1252 C 0.15007 0.59299 0.65036 0.0
C1253 C 0.14905 0.58103 0.61192 0.0
C1254 C 0.41249 0.01201 0.03639 0.0
C1255 C 0.41239 0.02334 0.07404 0.0
C1256 C 0.4017 0.99034 0.03692 0.0
C1257 C 0.39025 0.97919 0.07498 0.0
H1258 H 0.42184 0.01996 0.00722 0.0
H1259 H 0.40318 0.98231 0.00802 0.0
S1260 S 0.38277 0.00194 0.17956 0.0
N1261 N 0.39861 0.02215 0.1487 0.0
N1262 N 0.37766 0.98135 0.14931 0.0
C1263 C 0.38907 0.99045 0.11182 0.0
C1264 C 0.40029 0.01253 0.11143 0.0
C1265 C 0.39465 0.3868 0.27382 0.0
C1266 C 0.40789 0.38817 0.23858 0.0
C1267 C 0.38468 0.39851 0.27314 0.0
C1268 C 0.38753 0.41195 0.23712 0.0
H1269 H 0.39238 0.37697 0.30263 0.0
H1270 H 0.37507 0.39746 0.30153 0.0
S1271 S 0.42108 0.42167 0.13738 0.0
N1272 N 0.42357 0.40433 0.16705 0.0
N1273 N 0.40463 0.42611 0.16564 0.0
C1274 C 0.4003 0.41308 0.20117 0.0
C1275 C 0.41053 0.40125 0.20194 0.0
C1276 C 0.00884 0.41318 0.35963 0.0
C1277 C 0.0192 0.40696 0.38993 0.0
C1278 C 0.9872 0.40276 0.35744 0.0
C1279 C 0.97505 0.38565 0.38535 0.0
H1280 H 0.01751 0.42679 0.33884 0.0
H1281 H 0.97995 0.40877 0.33515 0.0
S1282 S 0.99476 0.3616 0.46619 0.0
N1283 N 0.01584 0.38161 0.4456 0.0
N1284 N 0.97506 0.36175 0.44109 0.0
C1285 C 0.98525 0.37865 0.41422 0.0
C1286 C 0.00733 0.38937 0.41663 0.0
C1287 C 0.60423 0.98809 0.58266 0.0
C1288 C 0.58762 0.978 0.55226 0.0
C1289 C 0.61563 0.00976 0.58537 0.0
C1290 C 0.61089 0.02209 0.55758 0.0
H1291 H 0.60819 0.97915 0.60511 0.0
H1292 H 0.62802 0.01692 0.60984 0.0
S1293 S 0.56834 0.00337 0.47393 0.0
N1294 N 0.5667 0.98209 0.49475 0.0
N1295 N 0.58823 0.02273 0.49958 0.0
C1296 C 0.59456 0.01223 0.52659 0.0
C1297 C 0.58291 0.99021 0.52395 0.0
C1298 C 0.59269 0.58248 0.77675 0.0
C1299 C 0.60954 0.58862 0.74732 0.0
C1300 C 0.58186 0.5933 0.77869 0.0
C1301 C 0.5875 0.61075 0.75138 0.0
H1302 H 0.58728 0.5687 0.79719 0.0
H1303 H 0.56843 0.58742 0.80044 0.0
S1304 S 0.63206 0.63457 0.67259 0.0
N1305 N 0.63241 0.61413 0.69287 0.0
N1306 N 0.61221 0.63472 0.69689 0.0
C1307 C 0.60488 0.61757 0.72318 0.0
C1308 C 0.61585 0.60645 0.72104 0.0
C1309 C 0.0113 0.6017 0.93564 0.0
C1310 C 0.02222 0.61411 0.89842 0.0
C1311 C 0.98962 0.5905 0.93633 0.0
C1312 C 0.97807 0.59116 0.89969 0.0
H1313 H 0.01952 0.59972 0.96351 0.0
H1314 H 0.98189 0.58036 0.96462 0.0
S1315 S 0.99881 0.62348 0.79724 0.0
N1316 N 0.01959 0.62826 0.82644 0.0
N1317 N 0.97879 0.60665 0.82732 0.0
C1318 C 0.98864 0.60431 0.86341 0.0
C1319 C 0.01072 0.61592 0.86287 0.0
loop_
_geom_bond_atom_site_label_1
_geom_bond_atom_site_label_2
_geom_bond_distance
_geom_bond_site_symmetry_2
_ccdc_geom_bond_type
Li0 N17 1.990 . S
Li0 O60 1.956 . S
Li0 O61 1.970 . S
Li0 O62 1.961 . S
Li1 N25 1.990 . S
Li1 O60 1.970 . S
Li1 O61 1.956 . S
Li1 O63 1.961 . S
Li2 N47 1.990 . S
Li2 O60 1.961 . S
Li2 O62 1.956 . S
Li2 O63 1.970 . S
Li3 N53 1.990 1_554 S
Li3 O61 1.961 . S
Li3 O62 1.970 . S
Li3 O63 1.956 . S
C4 C6 1.348 . S
C4 C7 1.356 . S
C4 O60 1.325 . S
N5 C8 1.314 . S
N5 C9 1.279 . S
C6 C4 1.348 . S
C6 C8 1.353 . S
C6 H64 0.929 . S
C7 C4 1.356 . S
C7 C9 1.358 . S
C7 H65 0.930 . S
C8 N5 1.314 . S
C8 C6 1.353 . S
C8 H66 0.930 . S
C9 N5 1.279 . S
C9 C7 1.358 . S
C9 H67 0.930 . S
C10 C13 1.348 . S
C10 C14 1.356 . S
C10 O61 1.325 . S
C11 N12 1.279 . S
C11 C14 1.358 . S
C11 H68 0.930 . S
N12 C11 1.279 . S
N12 C15 1.314 . S
C13 C10 1.348 . S
C13 C15 1.353 . S
C13 H69 0.929 . S
C14 C10 1.356 . S
C14 C11 1.358 . S
C14 H70 0.930 . S
C15 N12 1.314 . S
C15 C13 1.353 . S
C15 H71 0.930 . S
C16 N17 1.314 . S
C16 C21 1.353 . S
C16 H22 0.930 . S
N17 Li0 1.990 . S
N17 C16 1.314 . S
N17 C19 1.279 . S
C18 C19 1.358 . S
C18 C20 1.356 . S
C18 H72 0.930 . S
C19 N17 1.279 . S
C19 C18 1.358 . S
C19 H23 0.930 . S
C20 C18 1.356 . S
C20 C21 1.348 . S
C21 C16 1.353 . S
C21 C20 1.348 . S
C21 H73 0.929 . S
H22 C16 0.930 . S
H23 C19 0.930 . S
C24 N25 1.314 . S
C24 C26 1.353 . S
C24 H30 0.930 . S
N25 Li1 1.990 . S
N25 C24 1.314 . S
N25 C28 1.279 . S
C26 C24 1.353 . S
C26 C29 1.348 . S
C26 H74 0.929 . S
C27 C28 1.358 . S
C27 C29 1.356 . S
C27 H75 0.930 . S
C28 N25 1.279 . S
C28 C27 1.358 . S
C28 H31 0.930 . S
C29 C26 1.348 . S
C29 C27 1.356 . S
H30 C24 0.930 . S
H31 C28 0.930 . S
C32 C34 1.348 . S
C32 C35 1.357 . S
C32 O62 1.325 1_556 S
N33 C36 1.314 . S
N33 C37 1.279 . S
C34 C32 1.348 . S
C34 C36 1.353 . S
C34 H76 0.929 . S
C35 C32 1.357 . S
C35 C37 1.367 . S
C35 H77 0.919 1_556 S
C36 N33 1.314 . S
C36 C34 1.353 . S
C36 H78 0.930 . S
C37 N33 1.279 . S
C37 C35 1.367 . S
C37 H79 0.930 . S
C38 C39 1.348 . S
C38 C40 1.356 . S
C38 O63 1.325 . S
C39 C38 1.348 . S
C39 C41 1.353 . S
C39 H80 0.929 . S
C40 C38 1.356 . S
C40 C42 1.358 . S
C40 H81 0.930 . S
C41 C39 1.353 . S
C41 N43 1.314 . S
C41 H82 0.930 . S
C42 C40 1.358 . S
C42 N43 1.279 . S
C42 H83 0.930 . S
N43 C41 1.314 . S
N43 C42 1.279 . S
C44 C46 1.353 . S
C44 N47 1.314 . S
C44 H50 0.930 . S
C45 N47 1.279 . S
C45 C48 1.358 . S
C45 H51 0.930 . S
C46 C44 1.353 . S
C46 C49 1.348 . S
C46 H84 0.929 . S
N47 Li2 1.990 . S
N47 C44 1.314 . S
N47 C45 1.279 . S
C48 C45 1.358 . S
C48 C49 1.356 . S
C48 H85 0.930 . S
C49 C46 1.348 . S
C49 C48 1.356 . S
H50 C44 0.930 . S
H51 C45 0.930 . S
C52 N53 1.314 . S
C52 C54 1.353 . S
C52 H58 0.930 . S
N53 Li3 1.990 1_556 S
N53 C52 1.314 . S
N53 C56 1.279 . S
C54 C52 1.353 . S
C54 C57 1.348 . S
C54 H86 0.929 . S
C55 C56 1.358 . S
C55 C57 1.356 . S
C55 H87 0.930 . S
C56 N53 1.279 . S
C56 C55 1.358 . S
C56 H59 0.930 . S
C57 C54 1.348 . S
C57 C55 1.356 . S
H58 C52 0.930 . S
H59 C56 0.930 . S
O60 Li0 1.956 . S
O60 Li1 1.970 . S
O60 Li2 1.961 . S
O60 C4 1.325 . S
O61 Li0 1.970 . S
O61 Li1 1.956 . S
O61 Li3 1.961 . S
O61 C10 1.325 . S
O62 Li0 1.961 . S
O62 Li2 1.956 . S
O62 Li3 1.970 . S
O62 C32 1.325 1_554 S
O63 Li1 1.961 . S
O63 Li2 1.970 . S
O63 Li3 1.956 . S
O63 C38 1.325 . S
H64 C6 0.929 . S
H65 C7 0.930 . S
H66 C8 0.930 . S
H67 C9 0.930 . S
H68 C11 0.930 . S
H69 C13 0.929 . S
H70 C14 0.930 . S
H71 C15 0.930 . S
H72 C18 0.930 . S
H73 C21 0.929 . S
H74 C26 0.929 . S
H75 C27 0.930 . S
H76 C34 0.929 . S
H77 C35 0.919 1_554 S
H78 C36 0.930 . S
H79 C37 0.930 . S
H80 C39 0.929 . S
H81 C40 0.930 . S
H82 C41 0.930 . S
H83 C42 0.930 . S
H84 C46 0.929 . S
H85 C48 0.930 . S
H86 C54 0.929 . S
H87 C55 0.930 . S
Li88 N105 1.990 . S
Li88 O148 1.956 . S
Li88 O149 1.970 . S
Li88 O150 1.961 . S
Li89 N113 1.990 . S
Li89 O148 1.970 . S
Li89 O149 1.956 . S
Li89 O151 1.961 . S
Li90 N135 1.990 . S
Li90 O148 1.961 . S
Li90 O150 1.956 . S
Li90 O151 1.970 . S
Li91 N141 1.990 . S
Li91 O149 1.961 . S
Li91 O150 1.970 . S
Li91 O151 1.956 . S
C92 C94 1.348 . S
C92 C95 1.356 . S
C92 O148 1.325 . S
N93 C96 1.314 . S
N93 C97 1.279 . S
C94 C92 1.348 . S
C94 C96 1.353 . S
C94 H152 0.929 . S
C95 C92 1.356 . S
C95 C97 1.358 . S
C95 H153 0.930 . S
C96 N93 1.314 . S
C96 C94 1.353 . S
C96 H154 0.930 . S
C97 N93 1.279 . S
C97 C95 1.358 . S
C97 H155 0.930 . S
C98 C101 1.348 . S
C98 C102 1.356 . S
C98 O149 1.325 . S
C99 N100 1.279 . S
C99 C102 1.358 . S
C99 H156 0.930 . S
N100 C99 1.279 . S
N100 C103 1.314 . S
C101 C98 1.348 . S
C101 C103 1.353 . S
C101 H157 0.929 . S
C102 C98 1.356 . S
C102 C99 1.358 . S
C102 H158 0.930 . S
C103 N100 1.314 . S
C103 C101 1.353 . S
C103 H159 0.930 . S
C104 N105 1.314 . S
C104 C109 1.353 . S
C104 H110 0.930 . S
N105 Li88 1.990 . S
N105 C104 1.314 . S
N105 C107 1.279 . S
C106 C107 1.358 . S
C106 C108 1.356 . S
C106 H160 0.930 . S
C107 N105 1.279 . S
C107 C106 1.358 . S
C107 H111 0.930 . S
C108 C106 1.356 . S
C108 C109 1.348 . S
C109 C104 1.353 . S
C109 C108 1.348 . S
C109 H161 0.929 . S
H110 C104 0.930 . S
H111 C107 0.930 . S
C112 N113 1.314 . S
C112 C114 1.353 . S
C112 H118 0.930 . S
N113 Li89 1.990 . S
N113 C112 1.314 . S
N113 C116 1.279 . S
C114 C112 1.353 . S
C114 C117 1.348 . S
C114 H162 0.929 . S
C115 C116 1.358 . S
C115 C117 1.356 . S
C115 H163 0.930 . S
C116 N113 1.279 . S
C116 C115 1.358 . S
C116 H119 0.930 . S
C117 C114 1.348 . S
C117 C115 1.356 . S
H118 C112 0.930 . S
H119 C116 0.930 . S
C120 C122 1.348 . S
C120 C123 1.356 . S
C120 O150 1.325 . S
N121 C124 1.314 . S
N121 C125 1.279 . S
C122 C120 1.348 . S
C122 C124 1.353 . S
C122 H164 0.929 . S
C123 C120 1.356 . S
C123 C125 1.358 . S
C123 H165 0.930 . S
C124 N121 1.314 . S
C124 C122 1.353 . S
C124 H166 0.930 . S
C125 N121 1.279 . S
C125 C123 1.358 . S
C125 H167 0.930 . S
C126 C127 1.348 . S
C126 C128 1.356 . S
C126 O151 1.325 . S
C127 C126 1.348 . S
C127 C129 1.353 . S
C127 H168 0.929 . S
C128 C126 1.356 . S
C128 C130 1.358 . S
C128 H169 0.930 . S
C129 C127 1.353 . S
C129 N131 1.314 . S
C129 H170 0.930 . S
C130 C128 1.358 . S
C130 N131 1.279 . S
C130 H171 0.930 . S
N131 C129 1.314 . S
N131 C130 1.279 . S
C132 C134 1.353 . S
C132 N135 1.314 . S
C132 H138 0.930 . S
C133 N135 1.279 . S
C133 C136 1.358 . S
C133 H139 0.930 . S
C134 C132 1.353 . S
C134 C137 1.348 . S
C134 H172 0.929 . S
N135 Li90 1.990 . S
N135 C132 1.314 . S
N135 C133 1.279 . S
C136 C133 1.358 . S
C136 C137 1.356 . S
C136 H173 0.930 . S
C137 C134 1.348 . S
C137 C136 1.356 . S
H138 C132 0.930 . S
H139 C133 0.930 . S
C140 N141 1.314 . S
C140 C142 1.353 . S
C140 H146 0.930 . S
N141 Li91 1.990 . S
N141 C140 1.314 . S
N141 C144 1.279 . S
C142 C140 1.353 . S
C142 C145 1.348 . S
C142 H174 0.929 . S
C143 C144 1.358 . S
C143 C145 1.356 . S
C143 H175 0.930 . S
C144 N141 1.279 . S
C144 C143 1.358 . S
C144 H147 0.930 . S
C145 C142 1.348 . S
C145 C143 1.356 . S
H146 C140 0.930 . S
H147 C144 0.930 . S
O148 Li88 1.956 . S
O148 Li89 1.970 . S
O148 Li90 1.961 . S
O148 C92 1.325 . S
O149 Li88 1.970 . S
O149 Li89 1.956 . S
O149 Li91 1.961 . S
O149 C98 1.325 . S
O150 Li88 1.961 . S
O150 Li90 1.956 . S
O150 Li91 1.970 . S
O150 C120 1.325 . S
O151 Li89 1.961 . S
O151 Li90 1.970 . S
O151 Li91 1.956 . S
O151 C126 1.325 . S
H152 C94 0.929 . S
H153 C95 0.930 . S
H154 C96 0.930 . S
H155 C97 0.930 . S
H156 C99 0.930 . S
H157 C101 0.929 . S
H158 C102 0.930 . S
H159 C103 0.930 . S
H160 C106 0.930 . S
H161 C109 0.929 . S
H162 C114 0.929 . S
H163 C115 0.930 . S
H164 C122 0.929 . S
H165 C123 0.930 . S
H166 C124 0.930 . S
H167 C125 0.930 . S
H168 C127 0.929 . S
H169 C128 0.930 . S
H170 C129 0.930 . S
H171 C130 0.930 . S
H172 C134 0.929 . S
H173 C136 0.930 . S
H174 C142 0.929 . S
H175 C143 0.930 . S
Li176 N193 1.990 . S
Li176 O236 1.956 . S
Li176 O237 1.970 . S
Li176 O238 1.961 . S
Li177 N201 1.990 . S
Li177 O236 1.970 . S
Li177 O237 1.956 . S
Li177 O239 1.961 . S
Li178 N223 1.990 . S
Li178 O236 1.961 . S
Li178 O238 1.956 . S
Li178 O239 1.970 . S
Li179 N229 1.990 . S
Li179 O237 1.961 . S
Li179 O238 1.970 . S
Li179 O239 1.956 . S
C180 C182 1.348 . S
C180 C183 1.356 . S
C180 O236 1.325 . S
N181 C184 1.314 . S
N181 C185 1.279 . S
C182 C180 1.348 . S
C182 C184 1.353 . S
C182 H240 0.929 . S
C183 C180 1.356 . S
C183 C185 1.358 . S
C183 H241 0.930 . S
C184 N181 1.314 . S
C184 C182 1.353 . S
C184 H242 0.930 . S
C185 N181 1.279 . S
C185 C183 1.358 . S
C185 H243 0.930 . S
C186 C189 1.348 . S
C186 C190 1.356 . S
C186 O237 1.325 . S
C187 N188 1.279 . S
C187 C190 1.358 . S
C187 H244 0.930 . S
N188 C187 1.279 . S
N188 C191 1.314 . S
C189 C186 1.348 . S
C189 C191 1.353 . S
C189 H245 0.929 . S
C190 C186 1.356 . S
C190 C187 1.358 . S
C190 H246 0.930 . S
C191 N188 1.314 . S
C191 C189 1.353 . S
C191 H247 0.930 . S
C192 N193 1.314 . S
C192 C197 1.353 . S
C192 H198 0.930 . S
N193 Li176 1.990 . S
N193 C192 1.314 . S
N193 C195 1.279 . S
C194 C195 1.358 . S
C194 C196 1.356 . S
C194 H248 0.930 . S
C195 N193 1.279 . S
C195 C194 1.358 . S
C195 H199 0.930 . S
C196 C194 1.356 . S
C196 C197 1.348 . S
C197 C192 1.353 . S
C197 C196 1.348 . S
C197 H249 0.929 . S
H198 C192 0.930 . S
H199 C195 0.930 . S
C200 N201 1.314 . S
C200 C202 1.353 . S
C200 H206 0.930 . S
N201 Li177 1.990 . S
N201 C200 1.314 . S
N201 C204 1.279 . S
C202 C200 1.353 . S
C202 C205 1.348 . S
C202 H250 0.929 . S
C203 C204 1.358 . S
C203 C205 1.356 . S
C203 H251 0.930 . S
C204 N201 1.279 . S
C204 C203 1.358 . S
C204 H207 0.930 . S
C205 C202 1.348 . S
C205 C203 1.356 . S
H206 C200 0.930 . S
H207 C204 0.930 . S
C208 C210 1.348 . S
C208 C211 1.356 . S
C208 O238 1.325 . S
N209 C212 1.314 . S
N209 C213 1.279 . S
C210 C208 1.348 . S
C210 C212 1.353 . S
C210 H252 0.929 . S
C211 C208 1.356 . S
C211 C213 1.358 . S
C211 H253 0.930 . S
C212 N209 1.314 . S
C212 C210 1.353 . S
C212 H254 0.930 . S
C213 N209 1.279 . S
C213 C211 1.358 . S
C213 H255 0.930 . S
C214 C215 1.348 . S
C214 C216 1.356 . S
C214 O239 1.325 . S
C215 C214 1.348 . S
C215 C217 1.353 . S
C215 H256 0.929 . S
C216 C214 1.356 . S
C216 C218 1.358 . S
C216 H257 0.930 . S
C217 C215 1.353 . S
C217 N219 1.314 . S
C217 H258 0.930 . S
C218 C216 1.358 . S
C218 N219 1.279 . S
C218 H259 0.930 . S
N219 C217 1.314 . S
N219 C218 1.279 . S
C220 C222 1.353 . S
C220 N223 1.314 . S
C220 H226 0.930 . S
C221 N223 1.279 . S
C221 C224 1.358 . S
C221 H227 0.930 . S
C222 C220 1.353 . S
C222 C225 1.348 . S
C222 H260 0.929 . S
N223 Li178 1.990 . S
N223 C220 1.314 . S
N223 C221 1.279 . S
C224 C221 1.358 . S
C224 C225 1.356 . S
C224 H261 0.930 . S
C225 C222 1.348 . S
C225 C224 1.356 . S
H226 C220 0.930 . S
H227 C221 0.930 . S
C228 N229 1.314 . S
C228 C230 1.353 . S
C228 H234 0.930 . S
N229 Li179 1.990 . S
N229 C228 1.314 . S
N229 C232 1.279 . S
C230 C228 1.353 . S
C230 C233 1.348 . S
C230 H262 0.929 . S
C231 C232 1.358 . S
C231 C233 1.356 . S
C231 H263 0.930 . S
C232 N229 1.279 . S
C232 C231 1.358 . S
C232 H235 0.930 . S
C233 C230 1.348 . S
C233 C231 1.356 . S
H234 C228 0.930 . S
H235 C232 0.930 . S
O236 Li176 1.956 . S
O236 Li177 1.970 . S
O236 Li178 1.961 . S
O236 C180 1.325 . S
O237 Li176 1.970 . S
O237 Li177 1.956 . S
O237 Li179 1.961 . S
O237 C186 1.325 . S
O238 Li176 1.961 . S
O238 Li178 1.956 . S
O238 Li179 1.970 . S
O238 C208 1.325 . S
O239 Li177 1.961 . S
O239 Li178 1.970 . S
O239 Li179 1.956 . S
O239 C214 1.325 . S
H240 C182 0.929 . S
H241 C183 0.930 . S
H242 C184 0.930 . S
H243 C185 0.930 . S
H244 C187 0.930 . S
H245 C189 0.929 . S
H246 C190 0.930 . S
H247 C191 0.930 . S
H248 C194 0.930 . S
H249 C197 0.929 . S
H250 C202 0.929 . S
H251 C203 0.930 . S
H252 C210 0.929 . S
H253 C211 0.930 . S
H254 C212 0.930 . S
H255 C213 0.930 . S
H256 C215 0.929 . S
H257 C216 0.930 . S
H258 C217 0.930 . S
H259 C218 0.930 . S
H260 C222 0.929 . S
H261 C224 0.930 . S
H262 C230 0.929 . S
H263 C231 0.930 . S
Li264 N281 1.990 . S
Li264 O324 1.956 . S
Li264 O325 1.970 . S
Li264 O326 1.961 . S
Li265 N289 1.990 . S
Li265 O324 1.970 . S
Li265 O325 1.956 . S
Li265 O327 1.961 . S
Li266 N311 1.990 . S
Li266 O324 1.961 . S
Li266 O326 1.956 . S
Li266 O327 1.970 . S
Li267 N317 1.990 . S
Li267 O325 1.961 . S
Li267 O326 1.970 . S
Li267 O327 1.956 . S
C268 C270 1.348 . S
C268 C271 1.356 . S
C268 O324 1.325 . S
N269 C272 1.314 . S
N269 C273 1.279 . S
C270 C268 1.348 . S
C270 C272 1.353 . S
C270 H328 0.929 . S
C271 C268 1.356 . S
C271 C273 1.358 . S
C271 H329 0.930 . S
C272 N269 1.314 . S
C272 C270 1.353 . S
C272 H330 0.930 . S
C273 N269 1.279 . S
C273 C271 1.358 . S
C273 H331 0.930 . S
C274 C277 1.348 . S
C274 C278 1.356 . S
C274 O325 1.325 . S
C275 N276 1.279 . S
C275 C278 1.358 . S
C275 H332 0.930 . S
N276 C275 1.279 . S
N276 C279 1.314 . S
C277 C274 1.348 . S
C277 C279 1.353 . S
C277 H333 0.929 . S
C278 C274 1.356 . S
C278 C275 1.358 . S
C278 H334 0.930 . S
C279 N276 1.314 . S
C279 C277 1.353 . S
C279 H335 0.930 . S
C280 N281 1.314 . S
C280 C285 1.353 . S
C280 H286 0.930 . S
N281 Li264 1.990 . S
N281 C280 1.314 . S
N281 C283 1.279 . S
C282 C283 1.358 . S
C282 C284 1.356 . S
C282 H336 0.930 . S
C283 N281 1.279 . S
C283 C282 1.358 . S
C283 H287 0.930 . S
C284 C282 1.356 . S
C284 C285 1.348 . S
C285 C280 1.353 . S
C285 C284 1.348 . S
C285 H337 0.929 . S
H286 C280 0.930 . S
H287 C283 0.930 . S
C288 N289 1.314 . S
C288 C290 1.353 . S
C288 H294 0.930 . S
N289 Li265 1.990 . S
N289 C288 1.314 . S
N289 C292 1.279 . S
C290 C288 1.353 . S
C290 C293 1.348 . S
C290 H338 0.929 . S
C291 C292 1.358 . S
C291 C293 1.356 . S
C291 H339 0.930 . S
C292 N289 1.279 . S
C292 C291 1.358 . S
C292 H295 0.930 . S
C293 C290 1.348 . S
C293 C291 1.356 . S
H294 C288 0.930 . S
H295 C292 0.930 . S
C296 C298 1.348 . S
C296 C299 1.356 . S
C296 O326 1.325 . S
N297 C300 1.314 . S
N297 C301 1.279 . S
C298 C296 1.348 . S
C298 C300 1.353 . S
C298 H340 0.929 . S
C299 C296 1.356 . S
C299 C301 1.358 . S
C299 H341 0.930 . S
C300 N297 1.314 . S
C300 C298 1.353 . S
C300 H342 0.930 . S
C301 N297 1.279 . S
C301 C299 1.358 . S
C301 H343 0.930 . S
C302 C303 1.348 . S
C302 C304 1.356 . S
C302 O327 1.325 . S
C303 C302 1.348 . S
C303 C305 1.353 . S
C303 H344 0.929 . S
C304 C302 1.356 . S
C304 C306 1.358 . S
C304 H345 0.930 . S
C305 C303 1.353 . S
C305 N307 1.314 . S
C305 H346 0.930 . S
C306 C304 1.358 . S
C306 N307 1.279 . S
C306 H347 0.930 . S
N307 C305 1.314 . S
N307 C306 1.279 . S
C308 C310 1.353 . S
C308 N311 1.314 . S
C308 H314 0.930 . S
C309 N311 1.279 . S
C309 C312 1.358 . S
C309 H315 0.930 . S
C310 C308 1.353 . S
C310 C313 1.348 . S
C310 H348 0.929 . S
N311 Li266 1.990 . S
N311 C308 1.314 . S
N311 C309 1.279 . S
C312 C309 1.358 . S
C312 C313 1.356 . S
C312 H349 0.930 . S
C313 C310 1.348 . S
C313 C312 1.356 . S
H314 C308 0.930 . S
H315 C309 0.930 . S
C316 N317 1.314 . S
C316 C318 1.353 . S
C316 H322 0.930 . S
N317 Li267 1.990 . S
N317 C316 1.314 . S
N317 C320 1.279 . S
C318 C316 1.353 . S
C318 C321 1.348 . S
C318 H350 0.929 . S
C319 C320 1.358 . S
C319 C321 1.356 . S
C319 H351 0.930 . S
C320 N317 1.279 . S
C320 C319 1.358 . S
C320 H323 0.930 . S
C321 C318 1.348 . S
C321 C319 1.356 . S
H322 C316 0.930 . S
H323 C320 0.930 . S
O324 Li264 1.956 . S
O324 Li265 1.970 . S
O324 Li266 1.961 . S
O324 C268 1.325 . S
O325 Li264 1.970 . S
O325 Li265 1.956 . S
O325 Li267 1.961 . S
O325 C274 1.325 . S
O326 Li264 1.961 . S
O326 Li266 1.956 . S
O326 Li267 1.970 . S
O326 C296 1.325 . S
O327 Li265 1.961 . S
O327 Li266 1.970 . S
O327 Li267 1.956 . S
O327 C302 1.325 . S
H328 C270 0.929 . S
H329 C271 0.930 . S
H330 C272 0.930 . S
H331 C273 0.930 . S
H332 C275 0.930 . S
H333 C277 0.929 . S
H334 C278 0.930 . S
H335 C279 0.930 . S
H336 C282 0.930 . S
H337 C285 0.929 . S
H338 C290 0.929 . S
H339 C291 0.930 . S
H340 C298 0.929 . S
H341 C299 0.930 . S
H342 C300 0.930 . S
H343 C301 0.930 . S
H344 C303 0.929 . S
H345 C304 0.930 . S
H346 C305 0.930 . S
H347 C306 0.930 . S
H348 C310 0.929 . S
H349 C312 0.930 . S
H350 C318 0.929 . S
H351 C319 0.930 . S
Li352 N369 1.990 . S
Li352 O412 1.956 . S
Li352 O413 1.970 . S
Li352 O414 1.961 . S
Li353 N377 1.990 . S
Li353 O412 1.970 . S
Li353 O413 1.956 . S
Li353 O415 1.961 . S
Li354 N399 1.990 . S
Li354 O412 1.961 . S
Li354 O414 1.956 . S
Li354 O415 1.970 . S
Li355 N405 1.990 . S
Li355 O413 1.961 . S
Li355 O414 1.970 . S
Li355 O415 1.956 . S
C356 C358 1.348 . S
C356 C359 1.356 . S
C356 O412 1.325 . S
N357 C360 1.314 . S
N357 C361 1.279 . S
C358 C356 1.348 . S
C358 C360 1.353 . S
C358 H416 0.929 . S
C359 C356 1.356 . S
C359 C361 1.358 . S
C359 H417 0.930 . S
C360 N357 1.314 . S
C360 C358 1.353 . S
C360 H418 0.930 . S
C361 N357 1.279 . S
C361 C359 1.358 . S
C361 H419 0.930 . S
C362 C365 1.348 . S
C362 C366 1.356 . S
C362 O413 1.325 . S
C363 N364 1.279 . S
C363 C366 1.358 . S
C363 H420 0.930 . S
N364 C363 1.279 . S
N364 C367 1.314 . S
C365 C362 1.348 . S
C365 C367 1.353 . S
C365 H421 0.929 . S
C366 C362 1.356 . S
C366 C363 1.358 . S
C366 H422 0.930 . S
C367 N364 1.314 . S
C367 C365 1.353 . S
C367 H423 0.930 . S
C368 N369 1.314 . S
C368 C373 1.353 . S
C368 H374 0.930 . S
N369 Li352 1.990 . S
N369 C368 1.314 . S
N369 C371 1.279 . S
C370 C371 1.358 . S
C370 C372 1.356 . S
C370 H424 0.930 . S
C371 N369 1.279 . S
C371 C370 1.358 . S
C371 H375 0.930 . S
C372 C370 1.356 . S
C372 C373 1.348 . S
C373 C368 1.353 . S
C373 C372 1.348 . S
C373 H425 0.929 . S
H374 C368 0.930 . S
H375 C371 0.930 . S
C376 N377 1.314 . S
C376 C378 1.353 . S
C376 H382 0.930 . S
N377 Li353 1.990 . S
N377 C376 1.314 . S
N377 C380 1.279 . S
C378 C376 1.353 . S
C378 C381 1.348 . S
C378 H426 0.929 . S
C379 C380 1.358 . S
C379 C381 1.356 . S
C379 H427 0.930 . S
C380 N377 1.279 . S
C380 C379 1.358 . S
C380 H383 0.930 . S
C381 C378 1.348 . S
C381 C379 1.356 . S
H382 C376 0.930 . S
H383 C380 0.930 . S
C384 C386 1.348 . S
C384 C387 1.356 . S
C384 O414 1.325 . S
N385 C388 1.314 . S
N385 C389 1.279 . S
C386 C384 1.348 . S
C386 C388 1.353 . S
C386 H428 0.929 . S
C387 C384 1.356 . S
C387 C389 1.358 . S
C387 H429 0.930 . S
C388 N385 1.314 . S
C388 C386 1.353 . S
C388 H430 0.930 . S
C389 N385 1.279 . S
C389 C387 1.358 . S
C389 H431 0.930 . S
C390 C391 1.348 . S
C390 C392 1.356 . S
C390 O415 1.325 . S
C391 C390 1.348 . S
C391 C393 1.353 . S
C391 H432 0.929 . S
C392 C390 1.356 . S
C392 C394 1.358 . S
C392 H433 0.930 . S
C393 C391 1.353 . S
C393 N395 1.314 . S
C393 H434 0.930 . S
C394 C392 1.358 . S
C394 N395 1.279 . S
C394 H435 0.930 . S
N395 C393 1.314 . S
N395 C394 1.279 . S
C396 C398 1.353 . S
C396 N399 1.314 . S
C396 H402 0.930 . S
C397 N399 1.279 . S
C397 C400 1.358 . S
C397 H403 0.930 . S
C398 C396 1.353 . S
C398 C401 1.348 . S
C398 H436 0.929 . S
N399 Li354 1.990 . S
N399 C396 1.314 . S
N399 C397 1.279 . S
C400 C397 1.358 . S
C400 C401 1.356 . S
C400 H437 0.930 . S
C401 C398 1.348 . S
C401 C400 1.356 . S
H402 C396 0.930 . S
H403 C397 0.930 . S
C404 N405 1.314 . S
C404 C406 1.353 . S
C404 H410 0.930 . S
N405 Li355 1.990 . S
N405 C404 1.314 . S
N405 C408 1.279 . S
C406 C404 1.353 . S
C406 C409 1.348 . S
C406 H438 0.929 . S
C407 C408 1.358 . S
C407 C409 1.356 . S
C407 H439 0.930 . S
C408 N405 1.279 . S
C408 C407 1.358 . S
C408 H411 0.930 . S
C409 C406 1.348 . S
C409 C407 1.356 . S
H410 C404 0.930 . S
H411 C408 0.930 . S
O412 Li352 1.956 . S
O412 Li353 1.970 . S
O412 Li354 1.961 . S
O412 C356 1.325 . S
O413 Li352 1.970 . S
O413 Li353 1.956 . S
O413 Li355 1.961 . S
O413 C362 1.325 . S
O414 Li352 1.961 . S
O414 Li354 1.956 . S
O414 Li355 1.970 . S
O414 C384 1.325 . S
O415 Li353 1.961 . S
O415 Li354 1.970 . S
O415 Li355 1.956 . S
O415 C390 1.325 . S
H416 C358 0.929 . S
H417 C359 0.930 . S
H418 C360 0.930 . S
H419 C361 0.930 . S
H420 C363 0.930 . S
H421 C365 0.929 . S
H422 C366 0.930 . S
H423 C367 0.930 . S
H424 C370 0.930 . S
H425 C373 0.929 . S
H426 C378 0.929 . S
H427 C379 0.930 . S
H428 C386 0.929 . S
H429 C387 0.930 . S
H430 C388 0.930 . S
H431 C389 0.930 . S
H432 C391 0.929 . S
H433 C392 0.930 . S
H434 C393 0.930 . S
H435 C394 0.930 . S
H436 C398 0.929 . S
H437 C400 0.930 . S
H438 C406 0.929 . S
H439 C407 0.930 . S
Li440 N457 1.990 . S
Li440 O500 1.956 . S
Li440 O501 1.970 . S
Li440 O502 1.961 . S
Li441 N465 1.990 . S
Li441 O500 1.970 . S
Li441 O501 1.956 . S
Li441 O503 1.961 . S
Li442 N487 1.990 1_556 S
Li442 O500 1.961 . S
Li442 O502 1.956 . S
Li442 O503 1.970 . S
Li443 N493 1.990 . S
Li443 O501 1.961 . S
Li443 O502 1.970 . S
Li443 O503 1.956 . S
C444 C446 1.348 . S
C444 C447 1.356 . S
C444 O500 1.325 . S
N445 C448 1.314 . S
N445 C449 1.279 . S
C446 C444 1.348 . S
C446 C448 1.353 . S
C446 H504 0.929 . S
C447 C444 1.356 . S
C447 C449 1.358 . S
C447 H505 0.930 . S
C448 N445 1.314 . S
C448 C446 1.353 . S
C448 H506 0.930 . S
C449 N445 1.279 . S
C449 C447 1.358 . S
C449 H507 0.930 . S
C450 C453 1.348 . S
C450 C454 1.356 . S
C450 O501 1.325 . S
C451 N452 1.279 . S
C451 C454 1.358 . S
C451 H508 0.930 . S
N452 C451 1.279 . S
N452 C455 1.314 . S
C453 C450 1.348 . S
C453 C455 1.353 . S
C453 H509 0.929 . S
C454 C450 1.356 . S
C454 C451 1.358 . S
C454 H510 0.930 . S
C455 N452 1.314 . S
C455 C453 1.353 . S
C455 H511 0.930 . S
C456 N457 1.314 . S
C456 C461 1.353 . S
C456 H462 0.930 . S
N457 Li440 1.990 . S
N457 C456 1.314 . S
N457 C459 1.279 . S
C458 C459 1.358 . S
C458 C460 1.356 . S
C458 H512 0.930 . S
C459 N457 1.279 . S
C459 C458 1.358 . S
C459 H463 0.930 . S
C460 C458 1.356 . S
C460 C461 1.348 . S
C461 C456 1.353 . S
C461 C460 1.348 . S
C461 H513 0.929 . S
H462 C456 0.930 . S
H463 C459 0.930 . S
C464 N465 1.314 . S
C464 C466 1.353 . S
C464 H470 0.930 . S
N465 Li441 1.990 . S
N465 C464 1.314 . S
N465 C468 1.279 . S
C466 C464 1.353 . S
C466 C469 1.348 . S
C466 H514 0.929 . S
C467 C468 1.358 . S
C467 C469 1.356 . S
C467 H515 0.930 . S
C468 N465 1.279 . S
C468 C467 1.358 . S
C468 H471 0.930 . S
C469 C466 1.348 . S
C469 C467 1.356 . S
H470 C464 0.930 . S
H471 C468 0.930 . S
C472 C474 1.348 . S
C472 C475 1.356 . S
C472 O502 1.325 . S
N473 C476 1.314 . S
N473 C477 1.279 . S
C474 C472 1.348 . S
C474 C476 1.353 . S
C474 H516 0.929 . S
C475 C472 1.356 . S
C475 C477 1.358 . S
C475 H517 0.930 . S
C476 N473 1.314 . S
C476 C474 1.353 . S
C476 H518 0.930 . S
C477 N473 1.279 . S
C477 C475 1.358 . S
C477 H519 0.930 . S
C478 C479 1.348 1_556 S
C478 C480 1.356 . S
C478 O503 1.325 . S
C479 C478 1.348 1_554 S
C479 C481 1.353 . S
C479 H520 0.929 . S
C480 C478 1.356 . S
C480 C482 1.358 1_556 S
C480 H521 0.930 . S
C481 C479 1.353 . S
C481 N483 1.314 . S
C481 H522 0.930 . S
C482 C480 1.358 1_554 S
C482 N483 1.279 . S
C482 H523 0.930 . S
N483 C481 1.314 . S
N483 C482 1.279 . S
C484 C486 1.353 . S
C484 N487 1.314 . S
C484 H490 0.930 . S
C485 N487 1.279 . S
C485 C488 1.358 . S
C485 H491 0.930 1_554 S
C486 C484 1.353 . S
C486 C489 1.348 . S
C486 H524 0.929 . S
N487 Li442 1.990 1_554 S
N487 C484 1.314 . S
N487 C485 1.279 . S
C488 C485 1.358 . S
C488 C489 1.356 . S
C488 H525 0.930 . S
C489 C486 1.348 . S
C489 C488 1.356 . S
H490 C484 0.930 . S
H491 C485 0.930 1_556 S
C492 N493 1.314 . S
C492 C494 1.353 . S
C492 H498 0.930 . S
N493 Li443 1.990 . S
N493 C492 1.314 . S
N493 C496 1.279 . S
C494 C492 1.353 . S
C494 C497 1.348 . S
C494 H526 0.929 . S
C495 C496 1.358 . S
C495 C497 1.356 . S
C495 H527 0.930 . S
C496 N493 1.279 . S
C496 C495 1.358 . S
C496 H499 0.930 . S
C497 C494 1.348 . S
C497 C495 1.356 . S
H498 C492 0.930 . S
H499 C496 0.930 . S
O500 Li440 1.956 . S
O500 Li441 1.970 . S
O500 Li442 1.961 . S
O500 C444 1.325 . S
O501 Li440 1.970 . S
O501 Li441 1.956 . S
O501 Li443 1.961 . S
O501 C450 1.325 . S
O502 Li440 1.961 . S
O502 Li442 1.956 . S
O502 Li443 1.970 . S
O502 C472 1.325 . S
O503 Li441 1.961 . S
O503 Li442 1.970 . S
O503 Li443 1.956 . S
O503 C478 1.325 . S
H504 C446 0.929 . S
H505 C447 0.930 . S
H506 C448 0.930 . S
H507 C449 0.930 . S
H508 C451 0.930 . S
H509 C453 0.929 . S
H510 C454 0.930 . S
H511 C455 0.930 . S
H512 C458 0.930 . S
H513 C461 0.929 . S
H514 C466 0.929 . S
H515 C467 0.930 . S
H516 C474 0.929 . S
H517 C475 0.930 . S
H518 C476 0.930 . S
H519 C477 0.930 . S
H520 C479 0.929 . S
H521 C480 0.930 . S
H522 C481 0.930 . S
H523 C482 0.930 . S
H524 C486 0.929 . S
H525 C488 0.930 . S
H526 C494 0.929 . S
H527 C495 0.930 . S
Li528 N545 1.990 . S
Li528 O588 1.956 . S
Li528 O589 1.970 . S
Li528 O590 1.961 . S
Li529 N553 1.990 . S
Li529 O588 1.970 . S
Li529 O589 1.956 . S
Li529 O591 1.961 . S
Li530 N575 1.990 . S
Li530 O588 1.961 . S
Li530 O590 1.956 . S
Li530 O591 1.970 . S
Li531 N581 1.990 . S
Li531 O589 1.961 . S
Li531 O590 1.970 . S
Li531 O591 1.956 . S
C532 C534 1.348 1_556 S
C532 C535 1.356 . S
C532 O588 1.325 . S
N533 C536 1.314 . S
N533 C537 1.279 . S
C534 C532 1.348 1_554 S
C534 C536 1.353 . S
C534 H592 0.929 . S
C535 C532 1.356 . S
C535 C537 1.358 1_556 S
C535 H593 0.930 . S
C536 N533 1.314 . S
C536 C534 1.353 . S
C536 H594 0.930 . S
C537 N533 1.279 . S
C537 C535 1.358 1_554 S
C537 H595 0.930 . S
C538 C541 1.348 . S
C538 C542 1.356 . S
C538 O589 1.325 . S
C539 N540 1.279 . S
C539 C542 1.358 . S
C539 H596 0.930 . S
N540 C539 1.279 . S
N540 C543 1.314 . S
C541 C538 1.348 . S
C541 C543 1.353 . S
C541 H597 0.929 . S
C542 C538 1.356 . S
C542 C539 1.358 . S
C542 H598 0.930 . S
C543 N540 1.314 . S
C543 C541 1.353 . S
C543 H599 0.930 . S
C544 N545 1.314 . S
C544 C549 1.353 . S
C544 H550 0.930 . S
N545 Li528 1.990 . S
N545 C544 1.314 . S
N545 C547 1.279 . S
C546 C547 1.358 . S
C546 C548 1.356 . S
C546 H600 0.930 . S
C547 N545 1.279 . S
C547 C546 1.358 . S
C547 H551 0.930 . S
C548 C546 1.356 . S
C548 C549 1.348 . S
C549 C544 1.353 . S
C549 C548 1.348 . S
C549 H601 0.929 . S
H550 C544 0.930 . S
H551 C547 0.930 . S
C552 N553 1.314 1_554 S
C552 C554 1.353 . S
C552 H558 0.930 . S
N553 Li529 1.990 . S
N553 C552 1.314 1_556 S
N553 C556 1.279 1_556 S
C554 C552 1.353 . S
C554 C557 1.348 . S
C554 H602 0.929 . S
C555 C556 1.358 . S
C555 C557 1.356 . S
C555 H603 0.930 . S
C556 N553 1.279 1_554 S
C556 C555 1.358 . S
C556 H559 0.930 1_554 S
C557 C554 1.348 . S
C557 C555 1.356 . S
H558 C552 0.930 . S
H559 C556 0.930 1_556 S
C560 C562 1.348 . S
C560 C563 1.356 . S
C560 O590 1.325 . S
N561 C564 1.314 . S
N561 C565 1.279 . S
C562 C560 1.348 . S
C562 C564 1.353 . S
C562 H604 0.929 . S
C563 C560 1.356 . S
C563 C565 1.358 . S
C563 H605 0.930 . S
C564 N561 1.314 . S
C564 C562 1.353 . S
C564 H606 0.930 . S
C565 N561 1.279 . S
C565 C563 1.358 . S
C565 H607 0.930 . S
C566 C567 1.348 . S
C566 C568 1.356 . S
C566 O591 1.325 . S
C567 C566 1.348 . S
C567 C569 1.353 . S
C567 H608 0.929 . S
C568 C566 1.356 . S
C568 C570 1.358 . S
C568 H609 0.930 . S
C569 C567 1.353 . S
C569 N571 1.314 . S
C569 H610 0.930 . S
C570 C568 1.358 . S
C570 N571 1.279 . S
C570 H611 0.930 . S
N571 C569 1.314 . S
N571 C570 1.279 . S
C572 C574 1.353 . S
C572 N575 1.314 . S
C572 H578 0.930 . S
C573 N575 1.279 . S
C573 C576 1.358 . S
C573 H579 0.930 . S
C574 C572 1.353 . S
C574 C577 1.348 . S
C574 H612 0.929 . S
N575 Li530 1.990 . S
N575 C572 1.314 . S
N575 C573 1.279 . S
C576 C573 1.358 . S
C576 C577 1.356 . S
C576 H613 0.930 . S
C577 C574 1.348 . S
C577 C576 1.356 . S
H578 C572 0.930 . S
H579 C573 0.930 . S
C580 N581 1.314 . S
C580 C582 1.353 . S
C580 H586 0.930 . S
N581 Li531 1.990 . S
N581 C580 1.314 . S
N581 C584 1.279 . S
C582 C580 1.353 . S
C582 C585 1.348 . S
C582 H614 0.929 . S
C583 C584 1.358 . S
C583 C585 1.356 . S
C583 H615 0.930 . S
C584 N581 1.279 . S
C584 C583 1.358 . S
C584 H587 0.930 . S
C585 C582 1.348 . S
C585 C583 1.356 . S
H586 C580 0.930 . S
H587 C584 0.930 . S
O588 Li528 1.956 . S
O588 Li529 1.970 . S
O588 Li530 1.961 . S
O588 C532 1.325 . S
O589 Li528 1.970 . S
O589 Li529 1.956 . S
O589 Li531 1.961 . S
O589 C538 1.325 . S
O590 Li528 1.961 . S
O590 Li530 1.956 . S
O590 Li531 1.970 . S
O590 C560 1.325 . S
O591 Li529 1.961 . S
O591 Li530 1.970 . S
O591 Li531 1.956 . S
O591 C566 1.325 . S
H592 C534 0.929 . S
H593 C535 0.930 . S
H594 C536 0.930 . S
H595 C537 0.930 . S
H596 C539 0.930 . S
H597 C541 0.929 . S
H598 C542 0.930 . S
H599 C543 0.930 . S
H600 C546 0.930 . S
H601 C549 0.929 . S
H602 C554 0.929 . S
H603 C555 0.930 . S
H604 C562 0.929 . S
H605 C563 0.930 . S
H606 C564 0.930 . S
H607 C565 0.930 . S
H608 C567 0.929 . S
H609 C568 0.930 . S
H610 C569 0.930 . S
H611 C570 0.930 . S
H612 C574 0.929 . S
H613 C576 0.930 . S
H614 C582 0.929 . S
H615 C583 0.930 . S
Li616 N633 1.990 . S
Li616 O676 1.956 . S
Li616 O677 1.970 . S
Li616 O678 1.961 . S
Li617 N641 1.990 . S
Li617 O676 1.970 . S
Li617 O677 1.956 . S
Li617 O679 1.961 . S
Li618 N663 1.990 . S
Li618 O676 1.961 . S
Li618 O678 1.956 . S
Li618 O679 1.970 . S
Li619 N669 1.990 1_554 S
Li619 O677 1.961 . S
Li619 O678 1.970 . S
Li619 O679 1.956 . S
C620 C622 1.348 . S
C620 C623 1.356 . S
C620 O676 1.325 . S
N621 C624 1.314 . S
N621 C625 1.279 . S
C622 C620 1.348 . S
C622 C624 1.353 . S
C622 H680 0.929 . S
C623 C620 1.356 . S
C623 C625 1.358 . S
C623 H681 0.930 . S
C624 N621 1.314 . S
C624 C622 1.353 . S
C624 H682 0.930 . S
C625 N621 1.279 . S
C625 C623 1.358 . S
C625 H683 0.930 . S
C626 C629 1.348 . S
C626 C630 1.356 . S
C626 O677 1.325 . S
C627 N628 1.279 . S
C627 C630 1.358 . S
C627 H684 0.930 . S
N628 C627 1.279 . S
N628 C631 1.314 . S
C629 C626 1.348 . S
C629 C631 1.353 . S
C629 H685 0.929 . S
C630 C626 1.356 . S
C630 C627 1.358 . S
C630 H686 0.930 . S
C631 N628 1.314 . S
C631 C629 1.353 . S
C631 H687 0.930 . S
C632 N633 1.314 . S
C632 C637 1.353 . S
C632 H638 0.930 1_554 S
N633 Li616 1.990 . S
N633 C632 1.314 . S
N633 C635 1.279 . S
C634 C635 1.358 . S
C634 C636 1.356 . S
C634 H688 0.930 . S
C635 N633 1.279 . S
C635 C634 1.358 . S
C635 H639 0.930 . S
C636 C634 1.356 . S
C636 C637 1.348 . S
C637 C632 1.353 . S
C637 C636 1.348 . S
C637 H689 0.929 1_554 S
H638 C632 0.930 1_556 S
H639 C635 0.930 . S
C640 N641 1.314 . S
C640 C642 1.353 . S
C640 H646 0.930 . S
N641 Li617 1.990 . S
N641 C640 1.314 . S
N641 C644 1.279 . S
C642 C640 1.353 . S
C642 C645 1.348 . S
C642 H690 0.929 . S
C643 C644 1.358 . S
C643 C645 1.356 . S
C643 H691 0.930 . S
C644 N641 1.279 . S
C644 C643 1.358 . S
C644 H647 0.930 . S
C645 C642 1.348 . S
C645 C643 1.356 . S
H646 C640 0.930 . S
H647 C644 0.930 . S
C648 C650 1.348 . S
C648 C651 1.356 . S
C648 O678 1.325 1_556 S
N649 C652 1.314 . S
N649 C653 1.279 . S
C650 C648 1.348 . S
C650 C652 1.353 . S
C650 H692 0.929 . S
C651 C648 1.356 . S
C651 C653 1.358 . S
C651 H693 0.931 . S
C652 N649 1.314 . S
C652 C650 1.353 . S
C652 H694 0.930 . S
C653 N649 1.279 . S
C653 C651 1.358 . S
C653 H695 0.930 . S
C654 C655 1.348 . S
C654 C656 1.356 . S
C654 O679 1.325 . S
C655 C654 1.348 . S
C655 C657 1.353 . S
C655 H696 0.929 . S
C656 C654 1.356 . S
C656 C658 1.358 . S
C656 H697 0.930 . S
C657 C655 1.353 . S
C657 N659 1.314 . S
C657 H698 0.930 . S
C658 C656 1.358 . S
C658 N659 1.279 . S
C658 H699 0.930 . S
N659 C657 1.314 . S
N659 C658 1.279 . S
C660 C662 1.353 . S
C660 N663 1.314 . S
C660 H666 0.930 . S
C661 N663 1.279 . S
C661 C664 1.358 . S
C661 H667 0.930 . S
C662 C660 1.353 . S
C662 C665 1.348 . S
C662 H700 0.929 . S
N663 Li618 1.990 . S
N663 C660 1.314 . S
N663 C661 1.279 . S
C664 C661 1.358 . S
C664 C665 1.356 . S
C664 H701 0.930 . S
C665 C662 1.348 . S
C665 C664 1.356 . S
H666 C660 0.930 . S
H667 C661 0.930 . S
C668 N669 1.314 . S
C668 C670 1.353 . S
C668 H674 0.930 . S
N669 Li619 1.990 1_556 S
N669 C668 1.314 . S
N669 C672 1.279 . S
C670 C668 1.353 . S
C670 C673 1.348 . S
C670 H702 0.929 . S
C671 C672 1.358 . S
C671 C673 1.356 . S
C671 H703 0.930 . S
C672 N669 1.279 . S
C672 C671 1.358 . S
C672 H675 0.930 . S
C673 C670 1.348 . S
C673 C671 1.356 . S
H674 C668 0.930 . S
H675 C672 0.930 . S
O676 Li616 1.956 . S
O676 Li617 1.970 . S
O676 Li618 1.961 . S
O676 C620 1.325 . S
O677 Li616 1.970 . S
O677 Li617 1.956 . S
O677 Li619 1.961 . S
O677 C626 1.325 . S
O678 Li616 1.961 . S
O678 Li618 1.956 . S
O678 Li619 1.970 . S
O678 C648 1.325 1_554 S
O679 Li617 1.961 . S
O679 Li618 1.970 . S
O679 Li619 1.956 . S
O679 C654 1.325 . S
H680 C622 0.929 . S
H681 C623 0.930 . S
H682 C624 0.930 . S
H683 C625 0.930 . S
H684 C627 0.930 . S
H685 C629 0.929 . S
H686 C630 0.930 . S
H687 C631 0.930 . S
H688 C634 0.930 . S
H689 C637 0.929 1_556 S
H690 C642 0.929 . S
H691 C643 0.930 . S
H692 C650 0.929 . S
H693 C651 0.931 . S
H694 C652 0.930 . S
H695 C653 0.930 . S
H696 C655 0.929 . S
H697 C656 0.930 . S
H698 C657 0.930 . S
H699 C658 0.930 . S
H700 C662 0.929 . S
H701 C664 0.930 . S
H702 C670 0.929 . S
H703 C671 0.930 . S
Li704 N721 1.990 . S
Li704 O764 1.956 . S
Li704 O765 1.970 . S
Li704 O766 1.961 . S
Li705 N729 1.990 . S
Li705 O764 1.970 . S
Li705 O765 1.956 . S
Li705 O767 1.961 . S
Li706 N751 1.990 . S
Li706 O764 1.961 . S
Li706 O766 1.956 . S
Li706 O767 1.970 . S
Li707 N757 1.990 . S
Li707 O765 1.961 . S
Li707 O766 1.970 . S
Li707 O767 1.956 . S
C708 C710 1.348 . S
C708 C711 1.356 . S
C708 O764 1.325 . S
N709 C712 1.314 . S
N709 C713 1.279 . S
C710 C708 1.348 . S
C710 C712 1.353 . S
C710 H768 0.929 . S
C711 C708 1.356 . S
C711 C713 1.358 . S
C711 H769 0.930 . S
C712 N709 1.314 . S
C712 C710 1.353 . S
C712 H770 0.930 . S
C713 N709 1.279 . S
C713 C711 1.358 . S
C713 H771 0.930 . S
C714 C717 1.348 . S
C714 C718 1.356 . S
C714 O765 1.325 . S
C715 N716 1.279 . S
C715 C718 1.358 . S
C715 H772 0.930 . S
N716 C715 1.279 . S
N716 C719 1.314 . S
C717 C714 1.348 . S
C717 C719 1.353 . S
C717 H773 0.929 . S
C718 C714 1.356 . S
C718 C715 1.358 . S
C718 H774 0.930 . S
C719 N716 1.314 . S
C719 C717 1.353 . S
C719 H775 0.930 . S
C720 N721 1.314 . S
C720 C725 1.353 . S
C720 H726 0.930 . S
N721 Li704 1.990 . S
N721 C720 1.314 . S
N721 C723 1.279 . S
C722 C723 1.358 . S
C722 C724 1.356 . S
C722 H776 0.930 . S
C723 N721 1.279 . S
C723 C722 1.358 . S
C723 H727 0.930 . S
C724 C722 1.356 . S
C724 C725 1.348 . S
C725 C720 1.353 . S
C725 C724 1.348 . S
C725 H777 0.929 . S
H726 C720 0.930 . S
H727 C723 0.930 . S
C728 N729 1.314 . S
C728 C730 1.353 . S
C728 H734 0.930 . S
N729 Li705 1.990 . S
N729 C728 1.314 . S
N729 C732 1.279 . S
C730 C728 1.353 . S
C730 C733 1.348 . S
C730 H778 0.929 . S
C731 C732 1.358 . S
C731 C733 1.356 . S
C731 H779 0.930 . S
C732 N729 1.279 . S
C732 C731 1.358 . S
C732 H735 0.930 . S
C733 C730 1.348 . S
C733 C731 1.356 . S
H734 C728 0.930 . S
H735 C732 0.930 . S
C736 C738 1.348 . S
C736 C739 1.356 . S
C736 O766 1.325 . S
N737 C740 1.314 . S
N737 C741 1.279 . S
C738 C736 1.348 . S
C738 C740 1.353 . S
C738 H780 0.929 . S
C739 C736 1.356 . S
C739 C741 1.358 . S
C739 H781 0.930 . S
C740 N737 1.314 . S
C740 C738 1.353 . S
C740 H782 0.930 . S
C741 N737 1.279 . S
C741 C739 1.358 . S
C741 H783 0.930 . S
C742 C743 1.348 . S
C742 C744 1.356 . S
C742 O767 1.325 . S
C743 C742 1.348 . S
C743 C745 1.353 . S
C743 H784 0.929 . S
C744 C742 1.356 . S
C744 C746 1.358 . S
C744 H785 0.930 . S
C745 C743 1.353 . S
C745 N747 1.314 . S
C745 H786 0.930 . S
C746 C744 1.358 . S
C746 N747 1.279 . S
C746 H787 0.930 . S
N747 C745 1.314 . S
N747 C746 1.279 . S
C748 C750 1.353 . S
C748 N751 1.314 . S
C748 H754 0.930 . S
C749 N751 1.279 . S
C749 C752 1.358 . S
C749 H755 0.930 . S
C750 C748 1.353 . S
C750 C753 1.348 . S
C750 H788 0.929 . S
N751 Li706 1.990 . S
N751 C748 1.314 . S
N751 C749 1.279 . S
C752 C749 1.358 . S
C752 C753 1.356 . S
C752 H789 0.930 . S
C753 C750 1.348 . S
C753 C752 1.356 . S
H754 C748 0.930 . S
H755 C749 0.930 . S
C756 N757 1.314 . S
C756 C758 1.353 . S
C756 H762 0.930 . S
N757 Li707 1.990 . S
N757 C756 1.314 . S
N757 C760 1.279 . S
C758 C756 1.353 . S
C758 C761 1.348 . S
C758 H790 0.929 . S
C759 C760 1.358 . S
C759 C761 1.356 . S
C759 H791 0.930 . S
C760 N757 1.279 . S
C760 C759 1.358 . S
C760 H763 0.930 . S
C761 C758 1.348 . S
C761 C759 1.356 . S
H762 C756 0.930 . S
H763 C760 0.930 . S
O764 Li704 1.956 . S
O764 Li705 1.970 . S
O764 Li706 1.961 . S
O764 C708 1.325 . S
O765 Li704 1.970 . S
O765 Li705 1.956 . S
O765 Li707 1.961 . S
O765 C714 1.325 . S
O766 Li704 1.961 . S
O766 Li706 1.956 . S
O766 Li707 1.970 . S
O766 C736 1.325 . S
O767 Li705 1.961 . S
O767 Li706 1.970 . S
O767 Li707 1.956 . S
O767 C742 1.325 . S
H768 C710 0.929 . S
H769 C711 0.930 . S
H770 C712 0.930 . S
H771 C713 0.930 . S
H772 C715 0.930 . S
H773 C717 0.929 . S
H774 C718 0.930 . S
H775 C719 0.930 . S
H776 C722 0.930 . S
H777 C725 0.929 . S
H778 C730 0.929 . S
H779 C731 0.930 . S
H780 C738 0.929 . S
H781 C739 0.930 . S
H782 C740 0.930 . S
H783 C741 0.930 . S
H784 C743 0.929 . S
H785 C744 0.930 . S
H786 C745 0.930 . S
H787 C746 0.930 . S
H788 C750 0.929 . S
H789 C752 0.930 . S
H790 C758 0.929 . S
H791 C759 0.930 . S
Li792 N809 1.990 . S
Li792 O852 1.956 . S
Li792 O853 1.970 . S
Li792 O854 1.961 . S
Li793 N817 1.990 . S
Li793 O852 1.970 . S
Li793 O853 1.956 . S
Li793 O855 1.961 . S
Li794 N839 1.990 . S
Li794 O852 1.961 . S
Li794 O854 1.956 . S
Li794 O855 1.970 . S
Li795 N845 1.990 . S
Li795 O853 1.961 . S
Li795 O854 1.970 . S
Li795 O855 1.956 . S
C796 C798 1.348 . S
C796 C799 1.356 . S
C796 O852 1.325 . S
N797 C800 1.314 . S
N797 C801 1.279 . S
C798 C796 1.348 . S
C798 C800 1.353 . S
C798 H856 0.929 . S
C799 C796 1.356 . S
C799 C801 1.358 . S
C799 H857 0.930 . S
C800 N797 1.314 . S
C800 C798 1.353 . S
C800 H858 0.930 . S
C801 N797 1.279 . S
C801 C799 1.358 . S
C801 H859 0.930 . S
C802 C805 1.348 . S
C802 C806 1.356 . S
C802 O853 1.325 . S
C803 N804 1.279 . S
C803 C806 1.358 . S
C803 H860 0.930 . S
N804 C803 1.279 . S
N804 C807 1.314 . S
C805 C802 1.348 . S
C805 C807 1.353 . S
C805 H861 0.929 . S
C806 C802 1.356 . S
C806 C803 1.358 . S
C806 H862 0.930 . S
C807 N804 1.314 . S
C807 C805 1.353 . S
C807 H863 0.930 . S
C808 N809 1.314 . S
C808 C813 1.353 . S
C808 H814 0.930 . S
N809 Li792 1.990 . S
N809 C808 1.314 . S
N809 C811 1.279 . S
C810 C811 1.358 . S
C810 C812 1.356 . S
C810 H864 0.930 . S
C811 N809 1.279 . S
C811 C810 1.358 . S
C811 H815 0.930 . S
C812 C810 1.356 . S
C812 C813 1.348 . S
C813 C808 1.353 . S
C813 C812 1.348 . S
C813 H865 0.929 . S
H814 C808 0.930 . S
H815 C811 0.930 . S
C816 N817 1.314 . S
C816 C818 1.353 . S
C816 H822 0.930 . S
N817 Li793 1.990 . S
N817 C816 1.314 . S
N817 C820 1.279 . S
C818 C816 1.353 . S
C818 C821 1.348 . S
C818 H866 0.929 . S
C819 C820 1.358 . S
C819 C821 1.356 . S
C819 H867 0.930 . S
C820 N817 1.279 . S
C820 C819 1.358 . S
C820 H823 0.930 . S
C821 C818 1.348 . S
C821 C819 1.356 . S
H822 C816 0.930 . S
H823 C820 0.930 . S
C824 C826 1.348 . S
C824 C827 1.356 . S
C824 O854 1.325 . S
N825 C828 1.314 . S
N825 C829 1.279 . S
C826 C824 1.348 . S
C826 C828 1.353 . S
C826 H868 0.929 . S
C827 C824 1.356 . S
C827 C829 1.358 . S
C827 H869 0.930 . S
C828 N825 1.314 . S
C828 C826 1.353 . S
C828 H870 0.930 . S
C829 N825 1.279 . S
C829 C827 1.358 . S
C829 H871 0.930 . S
C830 C831 1.348 . S
C830 C832 1.356 . S
C830 O855 1.325 . S
C831 C830 1.348 . S
C831 C833 1.353 . S
C831 H872 0.929 . S
C832 C830 1.356 . S
C832 C834 1.358 . S
C832 H873 0.930 . S
C833 C831 1.353 . S
C833 N835 1.314 . S
C833 H874 0.930 . S
C834 C832 1.358 . S
C834 N835 1.279 . S
C834 H875 0.930 . S
N835 C833 1.314 . S
N835 C834 1.279 . S
C836 C838 1.353 . S
C836 N839 1.314 . S
C836 H842 0.930 . S
C837 N839 1.279 . S
C837 C840 1.358 . S
C837 H843 0.930 . S
C838 C836 1.353 . S
C838 C841 1.348 . S
C838 H876 0.929 . S
N839 Li794 1.990 . S
N839 C836 1.314 . S
N839 C837 1.279 . S
C840 C837 1.358 . S
C840 C841 1.356 . S
C840 H877 0.930 . S
C841 C838 1.348 . S
C841 C840 1.356 . S
H842 C836 0.930 . S
H843 C837 0.930 . S
C844 N845 1.314 . S
C844 C846 1.353 . S
C844 H850 0.930 . S
N845 Li795 1.990 . S
N845 C844 1.314 . S
N845 C848 1.279 . S
C846 C844 1.353 . S
C846 C849 1.348 . S
C846 H878 0.929 . S
C847 C848 1.358 . S
C847 C849 1.356 . S
C847 H879 0.930 . S
C848 N845 1.279 . S
C848 C847 1.358 . S
C848 H851 0.930 . S
C849 C846 1.348 . S
C849 C847 1.356 . S
H850 C844 0.930 . S
H851 C848 0.930 . S
O852 Li792 1.956 . S
O852 Li793 1.970 . S
O852 Li794 1.961 . S
O852 C796 1.325 . S
O853 Li792 1.970 . S
O853 Li793 1.956 . S
O853 Li795 1.961 . S
O853 C802 1.325 . S
O854 Li792 1.961 . S
O854 Li794 1.956 . S
O854 Li795 1.970 . S
O854 C824 1.325 . S
O855 Li793 1.961 . S
O855 Li794 1.970 . S
O855 Li795 1.956 . S
O855 C830 1.325 . S
H856 C798 0.929 . S
H857 C799 0.930 . S
H858 C800 0.930 . S
H859 C801 0.930 . S
H860 C803 0.930 . S
H861 C805 0.929 . S
H862 C806 0.930 . S
H863 C807 0.930 . S
H864 C810 0.930 . S
H865 C813 0.929 . S
H866 C818 0.929 . S
H867 C819 0.930 . S
H868 C826 0.929 . S
H869 C827 0.930 . S
H870 C828 0.930 . S
H871 C829 0.930 . S
H872 C831 0.929 . S
H873 C832 0.930 . S
H874 C833 0.930 . S
H875 C834 0.930 . S
H876 C838 0.929 . S
H877 C840 0.930 . S
H878 C846 0.929 . S
H879 C847 0.930 . S
Li880 N897 1.990 . S
Li880 O940 1.956 . S
Li880 O941 1.970 . S
Li880 O942 1.961 . S
Li881 N905 1.990 . S
Li881 O940 1.970 . S
Li881 O941 1.956 . S
Li881 O943 1.961 . S
Li882 N927 1.990 . S
Li882 O940 1.961 . S
Li882 O942 1.956 . S
Li882 O943 1.970 . S
Li883 N933 1.990 . S
Li883 O941 1.961 . S
Li883 O942 1.970 . S
Li883 O943 1.956 . S
C884 C886 1.348 . S
C884 C887 1.356 . S
C884 O940 1.325 . S
N885 C888 1.314 . S
N885 C889 1.279 . S
C886 C884 1.348 . S
C886 C888 1.353 . S
C886 H944 0.929 . S
C887 C884 1.356 . S
C887 C889 1.358 . S
C887 H945 0.930 . S
C888 N885 1.314 . S
C888 C886 1.353 . S
C888 H946 0.930 . S
C889 N885 1.279 . S
C889 C887 1.358 . S
C889 H947 0.930 . S
C890 C893 1.348 . S
C890 C894 1.356 . S
C890 O941 1.325 . S
C891 N892 1.279 . S
C891 C894 1.358 . S
C891 H948 0.930 . S
N892 C891 1.279 . S
N892 C895 1.314 . S
C893 C890 1.348 . S
C893 C895 1.353 . S
C893 H949 0.929 . S
C894 C890 1.356 . S
C894 C891 1.358 . S
C894 H950 0.930 . S
C895 N892 1.314 . S
C895 C893 1.353 . S
C895 H951 0.930 . S
C896 N897 1.314 . S
C896 C901 1.353 . S
C896 H902 0.930 . S
N897 Li880 1.990 . S
N897 C896 1.314 . S
N897 C899 1.279 . S
C898 C899 1.358 . S
C898 C900 1.356 . S
C898 H952 0.930 . S
C899 N897 1.279 . S
C899 C898 1.358 . S
C899 H903 0.930 . S
C900 C898 1.356 . S
C900 C901 1.348 . S
C901 C896 1.353 . S
C901 C900 1.348 . S
C901 H953 0.929 . S
H902 C896 0.930 . S
H903 C899 0.930 . S
C904 N905 1.314 . S
C904 C906 1.353 . S
C904 H910 0.930 . S
N905 Li881 1.990 . S
N905 C904 1.314 . S
N905 C908 1.279 . S
C906 C904 1.353 . S
C906 C909 1.348 . S
C906 H954 0.929 . S
C907 C908 1.358 . S
C907 C909 1.356 . S
C907 H955 0.930 . S
C908 N905 1.279 . S
C908 C907 1.358 . S
C908 H911 0.930 . S
C909 C906 1.348 . S
C909 C907 1.356 . S
H910 C904 0.930 . S
H911 C908 0.930 . S
C912 C914 1.348 . S
C912 C915 1.356 . S
C912 O942 1.325 . S
N913 C916 1.314 . S
N913 C917 1.279 . S
C914 C912 1.348 . S
C914 C916 1.353 . S
C914 H956 0.929 . S
C915 C912 1.356 . S
C915 C917 1.358 . S
C915 H957 0.930 . S
C916 N913 1.314 . S
C916 C914 1.353 . S
C916 H958 0.930 . S
C917 N913 1.279 . S
C917 C915 1.358 . S
C917 H959 0.930 . S
C918 C919 1.348 . S
C918 C920 1.356 . S
C918 O943 1.325 . S
C919 C918 1.348 . S
C919 C921 1.353 . S
C919 H960 0.929 . S
C920 C918 1.356 . S
C920 C922 1.358 . S
C920 H961 0.930 . S
C921 C919 1.353 . S
C921 N923 1.314 . S
C921 H962 0.930 . S
C922 C920 1.358 . S
C922 N923 1.279 . S
C922 H963 0.930 . S
N923 C921 1.314 . S
N923 C922 1.279 . S
C924 C926 1.353 . S
C924 N927 1.314 . S
C924 H930 0.930 . S
C925 N927 1.279 . S
C925 C928 1.358 . S
C925 H931 0.930 . S
C926 C924 1.353 . S
C926 C929 1.348 . S
C926 H964 0.929 . S
N927 Li882 1.990 . S
N927 C924 1.314 . S
N927 C925 1.279 . S
C928 C925 1.358 . S
C928 C929 1.356 . S
C928 H965 0.930 . S
C929 C926 1.348 . S
C929 C928 1.356 . S
H930 C924 0.930 . S
H931 C925 0.930 . S
C932 N933 1.314 . S
C932 C934 1.353 . S
C932 H938 0.930 . S
N933 Li883 1.990 . S
N933 C932 1.314 . S
N933 C936 1.279 . S
C934 C932 1.353 . S
C934 C937 1.348 . S
C934 H966 0.929 . S
C935 C936 1.358 . S
C935 C937 1.356 . S
C935 H967 0.930 . S
C936 N933 1.279 . S
C936 C935 1.358 . S
C936 H939 0.930 . S
C937 C934 1.348 . S
C937 C935 1.356 . S
H938 C932 0.930 . S
H939 C936 0.930 . S
O940 Li880 1.956 . S
O940 Li881 1.970 . S
O940 Li882 1.961 . S
O940 C884 1.325 . S
O941 Li880 1.970 . S
O941 Li881 1.956 . S
O941 Li883 1.961 . S
O941 C890 1.325 . S
O942 Li880 1.961 . S
O942 Li882 1.956 . S
O942 Li883 1.970 . S
O942 C912 1.325 . S
O943 Li881 1.961 . S
O943 Li882 1.970 . S
O943 Li883 1.956 . S
O943 C918 1.325 . S
H944 C886 0.929 . S
H945 C887 0.930 . S
H946 C888 0.930 . S
H947 C889 0.930 . S
H948 C891 0.930 . S
H949 C893 0.929 . S
H950 C894 0.930 . S
H951 C895 0.930 . S
H952 C898 0.930 . S
H953 C901 0.929 . S
H954 C906 0.929 . S
H955 C907 0.930 . S
H956 C914 0.929 . S
H957 C915 0.930 . S
H958 C916 0.930 . S
H959 C917 0.930 . S
H960 C919 0.929 . S
H961 C920 0.930 . S
H962 C921 0.930 . S
H963 C922 0.930 . S
H964 C926 0.929 . S
H965 C928 0.930 . S
H966 C934 0.929 . S
H967 C935 0.930 . S
Li968 N985 1.990 . S
Li968 O1028 1.956 . S
Li968 O1029 1.970 . S
Li968 O1030 1.961 . S
Li969 N993 1.990 . S
Li969 O1028 1.970 . S
Li969 O1029 1.956 . S
Li969 O1031 1.961 . S
Li970 N1015 1.990 . S
Li970 O1028 1.961 . S
Li970 O1030 1.956 . S
Li970 O1031 1.970 . S
Li971 N1021 1.990 . S
Li971 O1029 1.961 . S
Li971 O1030 1.970 . S
Li971 O1031 1.956 . S
C972 C974 1.348 . S
C972 C975 1.356 . S
C972 O1028 1.325 . S
N973 C976 1.314 . S
N973 C977 1.279 . S
C974 C972 1.348 . S
C974 C976 1.353 . S
C974 H1032 0.929 . S
C975 C972 1.356 . S
C975 C977 1.358 . S
C975 H1033 0.930 . S
C976 N973 1.314 . S
C976 C974 1.353 . S
C976 H1034 0.930 . S
C977 N973 1.279 . S
C977 C975 1.358 . S
C977 H1035 0.930 . S
C978 C981 1.348 . S
C978 C982 1.356 . S
C978 O1029 1.325 . S
C979 N980 1.279 . S
C979 C982 1.358 . S
C979 H1036 0.930 . S
N980 C979 1.279 . S
N980 C983 1.314 . S
C981 C978 1.348 . S
C981 C983 1.353 . S
C981 H1037 0.929 . S
C982 C978 1.356 . S
C982 C979 1.358 . S
C982 H1038 0.930 . S
C983 N980 1.314 . S
C983 C981 1.353 . S
C983 H1039 0.930 . S
C984 N985 1.314 . S
C984 C989 1.353 . S
C984 H990 0.930 . S
N985 Li968 1.990 . S
N985 C984 1.314 . S
N985 C987 1.279 . S
C986 C987 1.358 . S
C986 C988 1.356 . S
C986 H1040 0.930 . S
C987 N985 1.279 . S
C987 C986 1.358 . S
C987 H991 0.930 . S
C988 C986 1.356 . S
C988 C989 1.348 . S
C989 C984 1.353 . S
C989 C988 1.348 . S
C989 H1041 0.929 . S
H990 C984 0.930 . S
H991 C987 0.930 . S
C992 N993 1.314 . S
C992 C994 1.353 . S
C992 H998 0.930 . S
N993 Li969 1.990 . S
N993 C992 1.314 . S
N993 C996 1.279 . S
C994 C992 1.353 . S
C994 C997 1.348 . S
C994 H1042 0.929 . S
C995 C996 1.358 . S
C995 C997 1.356 . S
C995 H1043 0.930 . S
C996 N993 1.279 . S
C996 C995 1.358 . S
C996 H999 0.930 . S
C997 C994 1.348 . S
C997 C995 1.356 . S
H998 C992 0.930 . S
H999 C996 0.930 . S
C1000 C1002 1.348 . S
C1000 C1003 1.356 . S
C1000 O1030 1.325 . S
N1001 C1004 1.314 . S
N1001 C1005 1.279 . S
C1002 C1000 1.348 . S
C1002 C1004 1.353 . S
C1002 H1044 0.929 . S
C1003 C1000 1.356 . S
C1003 C1005 1.358 . S
C1003 H1045 0.930 . S
C1004 N1001 1.314 . S
C1004 C1002 1.353 . S
C1004 H1046 0.930 . S
C1005 N1001 1.279 . S
C1005 C1003 1.358 . S
C1005 H1047 0.930 . S
C1006 C1007 1.348 . S
C1006 C1008 1.356 . S
C1006 O1031 1.325 . S
C1007 C1006 1.348 . S
C1007 C1009 1.353 . S
C1007 H1048 0.929 . S
C1008 C1006 1.356 . S
C1008 C1010 1.358 . S
C1008 H1049 0.930 . S
C1009 C1007 1.353 . S
C1009 N1011 1.314 . S
C1009 H1050 0.930 . S
C1010 C1008 1.358 . S
C1010 N1011 1.279 . S
C1010 H1051 0.930 . S
N1011 C1009 1.314 . S
N1011 C1010 1.279 . S
C1012 C1014 1.353 . S
C1012 N1015 1.314 . S
C1012 H1018 0.930 . S
C1013 N1015 1.279 . S
C1013 C1016 1.358 . S
C1013 H1019 0.930 . S
C1014 C1012 1.353 . S
C1014 C1017 1.348 . S
C1014 H1052 0.929 . S
N1015 Li970 1.990 . S
N1015 C1012 1.314 . S
N1015 C1013 1.279 . S
C1016 C1013 1.358 . S
C1016 C1017 1.356 . S
C1016 H1053 0.930 . S
C1017 C1014 1.348 . S
C1017 C1016 1.356 . S
H1018 C1012 0.930 . S
H1019 C1013 0.930 . S
C1020 N1021 1.314 . S
C1020 C1022 1.353 . S
C1020 H1026 0.930 . S
N1021 Li971 1.990 . S
N1021 C1020 1.314 . S
N1021 C1024 1.279 . S
C1022 C1020 1.353 . S
C1022 C1025 1.348 . S
C1022 H1054 0.929 . S
C1023 C1024 1.358 . S
C1023 C1025 1.356 . S
C1023 H1055 0.930 . S
C1024 N1021 1.279 . S
C1024 C1023 1.358 . S
C1024 H1027 0.930 . S
C1025 C1022 1.348 . S
C1025 C1023 1.356 . S
H1026 C1020 0.930 . S
H1027 C1024 0.930 . S
O1028 Li968 1.956 . S
O1028 Li969 1.970 . S
O1028 Li970 1.961 . S
O1028 C972 1.325 . S
O1029 Li968 1.970 . S
O1029 Li969 1.956 . S
O1029 Li971 1.961 . S
O1029 C978 1.325 . S
O1030 Li968 1.961 . S
O1030 Li970 1.956 . S
O1030 Li971 1.970 . S
O1030 C1000 1.325 . S
O1031 Li969 1.961 . S
O1031 Li970 1.970 . S
O1031 Li971 1.956 . S
O1031 C1006 1.325 . S
H1032 C974 0.929 . S
H1033 C975 0.930 . S
H1034 C976 0.930 . S
H1035 C977 0.930 . S
H1036 C979 0.930 . S
H1037 C981 0.929 . S
H1038 C982 0.930 . S
H1039 C983 0.930 . S
H1040 C986 0.930 . S
H1041 C989 0.929 . S
H1042 C994 0.929 . S
H1043 C995 0.930 . S
H1044 C1002 0.929 . S
H1045 C1003 0.930 . S
H1046 C1004 0.930 . S
H1047 C1005 0.930 . S
H1048 C1007 0.929 . S
H1049 C1008 0.930 . S
H1050 C1009 0.930 . S
H1051 C1010 0.930 . S
H1052 C1014 0.929 . S
H1053 C1016 0.930 . S
H1054 C1022 0.929 . S
H1055 C1023 0.930 . S
C1056 C1057 1.369 . S
C1056 C1058 1.419 . S
C1056 H1060 0.930 . S
C1057 C1056 1.369 . S
C1057 C1066 1.429 . S
C1058 C1056 1.419 . S
C1058 C1059 1.363 . S
C1058 H1061 0.929 . S
C1059 C1058 1.363 . S
C1059 C1065 1.428 . S
H1060 C1056 0.930 . S
H1061 C1058 0.929 . S
S1062 N1063 1.613 . S
S1062 N1064 1.610 . S
N1063 S1062 1.613 . S
N1063 C1066 1.350 . S
N1064 S1062 1.610 . S
N1064 C1065 1.351 . S
C1065 C1059 1.428 . S
C1065 N1064 1.351 . S
C1065 C1066 1.434 . S
C1066 C1057 1.429 . S
C1066 N1063 1.350 . S
C1066 C1065 1.434 . S
C1067 C1068 1.369 . S
C1067 C1069 1.419 . S
C1067 H1071 0.930 . S
C1068 C1067 1.369 . S
C1068 C1077 1.429 . S
C1069 C1067 1.419 . S
C1069 C1070 1.363 . S
C1069 H1072 0.929 . S
C1070 C1069 1.363 . S
C1070 C1076 1.428 . S
H1071 C1067 0.930 . S
H1072 C1069 0.929 . S
S1073 N1074 1.613 . S
S1073 N1075 1.610 . S
N1074 S1073 1.613 . S
N1074 C1077 1.350 . S
N1075 S1073 1.610 . S
N1075 C1076 1.351 . S
C1076 C1070 1.428 . S
C1076 N1075 1.351 . S
C1076 C1077 1.434 . S
C1077 C1068 1.429 . S
C1077 N1074 1.350 . S
C1077 C1076 1.434 . S
C1078 C1079 1.369 . S
C1078 C1080 1.419 . S
C1078 H1082 0.930 . S
C1079 C1078 1.369 . S
C1079 C1088 1.429 . S
C1080 C1078 1.419 . S
C1080 C1081 1.363 . S
C1080 H1083 0.929 . S
C1081 C1080 1.363 . S
C1081 C1087 1.428 . S
H1082 C1078 0.930 . S
H1083 C1080 0.929 . S
S1084 N1085 1.613 . S
S1084 N1086 1.610 . S
N1085 S1084 1.613 . S
N1085 C1088 1.350 . S
N1086 S1084 1.610 . S
N1086 C1087 1.351 . S
C1087 C1081 1.428 . S
C1087 N1086 1.351 . S
C1087 C1088 1.434 . S
C1088 C1079 1.429 . S
C1088 N1085 1.350 . S
C1088 C1087 1.434 . S
C1089 C1090 1.369 . S
C1089 C1091 1.419 . S
C1089 H1093 0.930 . S
C1090 C1089 1.369 . S
C1090 C1099 1.429 . S
C1091 C1089 1.419 . S
C1091 C1092 1.363 . S
C1091 H1094 0.929 . S
C1092 C1091 1.363 . S
C1092 C1098 1.428 . S
H1093 C1089 0.930 . S
H1094 C1091 0.929 . S
S1095 N1096 1.613 . S
S1095 N1097 1.610 . S
N1096 S1095 1.613 . S
N1096 C1099 1.350 . S
N1097 S1095 1.610 . S
N1097 C1098 1.351 . S
C1098 C1092 1.428 . S
C1098 N1097 1.351 . S
C1098 C1099 1.434 . S
C1099 C1090 1.429 . S
C1099 N1096 1.350 . S
C1099 C1098 1.434 . S
C1100 C1101 1.369 1_556 S
C1100 C1102 1.419 . S
C1100 H1104 0.930 . S
C1101 C1100 1.369 1_554 S
C1101 C1110 1.429 . S
C1102 C1100 1.419 . S
C1102 C1103 1.363 . S
C1102 H1105 0.929 . S
C1103 C1102 1.363 . S
C1103 C1109 1.428 . S
H1104 C1100 0.930 . S
H1105 C1102 0.929 . S
S1106 N1107 1.613 . S
S1106 N1108 1.610 1_554 S
N1107 S1106 1.613 . S
N1107 C1110 1.350 . S
N1108 S1106 1.610 1_556 S
N1108 C1109 1.351 . S
C1109 C1103 1.428 . S
C1109 N1108 1.351 . S
C1109 C1110 1.434 1_556 S
C1110 C1101 1.429 . S
C1110 N1107 1.350 . S
C1110 C1109 1.434 1_554 S
C1111 C1112 1.369 . S
C1111 C1113 1.419 . S
C1111 H1115 0.930 . S
C1112 C1111 1.369 . S
C1112 C1121 1.429 . S
C1113 C1111 1.419 . S
C1113 C1114 1.363 . S
C1113 H1116 0.929 . S
C1114 C1113 1.363 . S
C1114 C1120 1.428 . S
H1115 C1111 0.930 . S
H1116 C1113 0.929 . S
S1117 N1118 1.613 . S
S1117 N1119 1.610 . S
N1118 S1117 1.613 . S
N1118 C1121 1.350 . S
N1119 S1117 1.610 . S
N1119 C1120 1.351 . S
C1120 C1114 1.428 . S
C1120 N1119 1.351 . S
C1120 C1121 1.434 . S
C1121 C1112 1.429 . S
C1121 N1118 1.350 . S
C1121 C1120 1.434 . S
C1122 C1123 1.369 . S
C1122 C1124 1.419 . S
C1122 H1126 0.930 . S
C1123 C1122 1.369 . S
C1123 C1132 1.429 . S
C1124 C1122 1.419 . S
C1124 C1125 1.363 . S
C1124 H1127 0.929 . S
C1125 C1124 1.363 . S
C1125 C1131 1.428 . S
H1126 C1122 0.930 . S
H1127 C1124 0.929 . S
S1128 N1129 1.613 . S
S1128 N1130 1.610 . S
N1129 S1128 1.613 . S
N1129 C1132 1.350 . S
N1130 S1128 1.610 . S
N1130 C1131 1.351 . S
C1131 C1125 1.428 . S
C1131 N1130 1.351 . S
C1131 C1132 1.434 . S
C1132 C1123 1.429 . S
C1132 N1129 1.350 . S
C1132 C1131 1.434 . S
C1133 C1134 1.369 . S
C1133 C1135 1.419 . S
C1133 H1137 0.930 . S
C1134 C1133 1.369 . S
C1134 C1143 1.429 . S
C1135 C1133 1.419 . S
C1135 C1136 1.363 . S
C1135 H1138 0.929 . S
C1136 C1135 1.363 . S
C1136 C1142 1.428 . S
H1137 C1133 0.930 . S
H1138 C1135 0.929 . S
S1139 N1140 1.613 . S
S1139 N1141 1.610 . S
N1140 S1139 1.613 . S
N1140 C1143 1.350 . S
N1141 S1139 1.610 . S
N1141 C1142 1.351 . S
C1142 C1136 1.428 . S
C1142 N1141 1.351 . S
C1142 C1143 1.434 . S
C1143 C1134 1.429 . S
C1143 N1140 1.350 . S
C1143 C1142 1.434 . S
C1144 C1145 1.369 . S
C1144 C1146 1.419 . S
C1144 H1148 0.930 . S
C1145 C1144 1.369 . S
C1145 C1154 1.429 . S
C1146 C1144 1.419 . S
C1146 C1147 1.363 . S
C1146 H1149 0.929 . S
C1147 C1146 1.363 . S
C1147 C1153 1.428 . S
H1148 C1144 0.930 . S
H1149 C1146 0.929 . S
S1150 N1151 1.613 . S
S1150 N1152 1.610 . S
N1151 S1150 1.613 . S
N1151 C1154 1.350 . S
N1152 S1150 1.610 . S
N1152 C1153 1.351 . S
C1153 C1147 1.428 . S
C1153 N1152 1.351 . S
C1153 C1154 1.434 . S
C1154 C1145 1.429 . S
C1154 N1151 1.350 . S
C1154 C1153 1.434 . S
C1155 C1156 1.369 . S
C1155 C1157 1.419 . S
C1155 H1159 0.930 . S
C1156 C1155 1.369 . S
C1156 C1165 1.429 . S
C1157 C1155 1.419 . S
C1157 C1158 1.363 . S
C1157 H1160 0.929 . S
C1158 C1157 1.363 . S
C1158 C1164 1.428 . S
H1159 C1155 0.930 . S
H1160 C1157 0.929 . S
S1161 N1162 1.613 . S
S1161 N1163 1.610 . S
N1162 S1161 1.613 . S
N1162 C1165 1.350 . S
N1163 S1161 1.610 . S
N1163 C1164 1.351 . S
C1164 C1158 1.428 . S
C1164 N1163 1.351 . S
C1164 C1165 1.434 . S
C1165 C1156 1.429 . S
C1165 N1162 1.350 . S
C1165 C1164 1.434 . S
C1166 C1167 1.369 . S
C1166 C1168 1.419 . S
C1166 H1170 0.930 . S
C1167 C1166 1.369 . S
C1167 C1176 1.429 . S
C1168 C1166 1.419 . S
C1168 C1169 1.363 . S
C1168 H1171 0.929 . S
C1169 C1168 1.363 . S
C1169 C1175 1.428 . S
H1170 C1166 0.930 . S
H1171 C1168 0.929 . S
S1172 N1173 1.613 . S
S1172 N1174 1.610 . S
N1173 S1172 1.613 . S
N1173 C1176 1.350 . S
N1174 S1172 1.610 . S
N1174 C1175 1.351 . S
C1175 C1169 1.428 . S
C1175 N1174 1.351 . S
C1175 C1176 1.434 . S
C1176 C1167 1.429 . S
C1176 N1173 1.350 . S
C1176 C1175 1.434 . S
C1177 C1178 1.369 . S
C1177 C1179 1.419 1_556 S
C1177 H1181 0.930 . S
C1178 C1177 1.369 . S
C1178 C1187 1.429 . S
C1179 C1177 1.419 1_554 S
C1179 C1180 1.363 . S
C1179 H1182 0.929 . S
C1180 C1179 1.363 . S
C1180 C1186 1.428 1_554 S
H1181 C1177 0.930 . S
H1182 C1179 0.929 . S
S1183 N1184 1.613 . S
S1183 N1185 1.610 . S
N1184 S1183 1.613 . S
N1184 C1187 1.350 . S
N1185 S1183 1.610 . S
N1185 C1186 1.351 . S
C1186 C1180 1.428 1_556 S
C1186 N1185 1.351 . S
C1186 C1187 1.434 . S
C1187 C1178 1.429 . S
C1187 N1184 1.350 . S
C1187 C1186 1.434 . S
C1188 C1189 1.369 . S
C1188 C1190 1.419 . S
C1188 H1192 0.930 . S
C1189 C1188 1.369 . S
C1189 C1198 1.429 . S
C1190 C1188 1.419 . S
C1190 C1191 1.363 . S
C1190 H1193 0.929 . S
C1191 C1190 1.363 . S
C1191 C1197 1.428 . S
H1192 C1188 0.930 . S
H1193 C1190 0.929 . S
S1194 N1195 1.613 . S
S1194 N1196 1.610 . S
N1195 S1194 1.613 . S
N1195 C1198 1.350 . S
N1196 S1194 1.610 . S
N1196 C1197 1.351 . S
C1197 C1191 1.428 . S
C1197 N1196 1.351 . S
C1197 C1198 1.434 . S
C1198 C1189 1.429 . S
C1198 N1195 1.350 . S
C1198 C1197 1.434 . S
C1199 C1200 1.369 . S
C1199 C1201 1.419 . S
C1199 H1203 0.930 . S
C1200 C1199 1.369 . S
C1200 C1209 1.429 . S
C1201 C1199 1.419 . S
C1201 C1202 1.363 1_556 S
C1201 H1204 0.929 . S
C1202 C1201 1.363 1_554 S
C1202 C1208 1.428 . S
H1203 C1199 0.930 . S
H1204 C1201 0.929 . S
S1205 N1206 1.613 . S
S1205 N1207 1.610 . S
N1206 S1205 1.613 . S
N1206 C1209 1.350 1_554 S
N1207 S1205 1.610 . S
N1207 C1208 1.351 . S
C1208 C1202 1.428 . S
C1208 N1207 1.351 . S
C1208 C1209 1.434 1_554 S
C1209 C1200 1.429 . S
C1209 N1206 1.350 1_556 S
C1209 C1208 1.434 1_556 S
C1210 C1211 1.369 . S
C1210 C1212 1.419 . S
C1210 H1214 0.930 . S
C1211 C1210 1.369 . S
C1211 C1220 1.429 . S
C1212 C1210 1.419 . S
C1212 C1213 1.363 . S
C1212 H1215 0.929 . S
C1213 C1212 1.363 . S
C1213 C1219 1.428 . S
H1214 C1210 0.930 . S
H1215 C1212 0.929 . S
S1216 N1217 1.613 . S
S1216 N1218 1.610 . S
N1217 S1216 1.613 . S
N1217 C1220 1.350 . S
N1218 S1216 1.610 . S
N1218 C1219 1.351 . S
C1219 C1213 1.428 . S
C1219 N1218 1.351 . S
C1219 C1220 1.434 . S
C1220 C1211 1.429 . S
C1220 N1217 1.350 . S
C1220 C1219 1.434 . S
C1221 C1222 1.369 . S
C1221 C1223 1.419 . S
C1221 H1225 0.930 . S
C1222 C1221 1.369 . S
C1222 C1231 1.429 . S
C1223 C1221 1.419 . S
C1223 C1224 1.363 . S
C1223 H1226 0.929 . S
C1224 C1223 1.363 . S
C1224 C1230 1.428 . S
H1225 C1221 0.930 . S
H1226 C1223 0.929 . S
S1227 N1228 1.613 . S
S1227 N1229 1.610 . S
N1228 S1227 1.613 . S
N1228 C1231 1.350 . S
N1229 S1227 1.610 . S
N1229 C1230 1.351 . S
C1230 C1224 1.428 . S
C1230 N1229 1.351 . S
C1230 C1231 1.434 . S
C1231 C1222 1.429 . S
C1231 N1228 1.350 . S
C1231 C1230 1.434 . S
C1232 C1233 1.369 . S
C1232 C1234 1.419 . S
C1232 H1236 0.930 . S
C1233 C1232 1.369 . S
C1233 C1242 1.429 . S
C1234 C1232 1.419 . S
C1234 C1235 1.363 . S
C1234 H1237 0.929 . S
C1235 C1234 1.363 . S
C1235 C1241 1.428 . S
H1236 C1232 0.930 . S
H1237 C1234 0.929 . S
S1238 N1239 1.613 . S
S1238 N1240 1.610 . S
N1239 S1238 1.613 . S
N1239 C1242 1.350 . S
N1240 S1238 1.610 . S
N1240 C1241 1.351 . S
C1241 C1235 1.428 . S
C1241 N1240 1.351 . S
C1241 C1242 1.434 . S
C1242 C1233 1.429 . S
C1242 N1239 1.350 . S
C1242 C1241 1.434 . S
C1243 C1244 1.369 . S
C1243 C1245 1.419 . S
C1243 H1247 0.930 . S
C1244 C1243 1.369 . S
C1244 C1253 1.429 . S
C1245 C1243 1.419 . S
C1245 C1246 1.363 . S
C1245 H1248 0.929 . S
C1246 C1245 1.363 . S
C1246 C1252 1.428 . S
H1247 C1243 0.930 . S
H1248 C1245 0.929 . S
S1249 N1250 1.613 . S
S1249 N1251 1.610 . S
N1250 S1249 1.613 . S
N1250 C1253 1.350 . S
N1251 S1249 1.610 . S
N1251 C1252 1.351 . S
C1252 C1246 1.428 . S
C1252 N1251 1.351 . S
C1252 C1253 1.434 . S
C1253 C1244 1.429 . S
C1253 N1250 1.350 . S
C1253 C1252 1.434 . S
C1254 C1255 1.369 . S
C1254 C1256 1.419 1_545 S
C1254 H1258 0.930 . S
C1255 C1254 1.369 . S
C1255 C1264 1.429 . S
C1256 C1254 1.419 1_565 S
C1256 C1257 1.363 . S
C1256 H1259 0.929 . S
C1257 C1256 1.363 . S
C1257 C1263 1.428 . S
H1258 C1254 0.930 . S
H1259 C1256 0.929 . S
S1260 N1261 1.612 . S
S1260 N1262 1.612 1_545 S
N1261 S1260 1.612 . S
N1261 C1264 1.350 . S
N1262 S1260 1.612 1_565 S
N1262 C1263 1.351 . S
C1263 C1257 1.428 . S
C1263 N1262 1.351 . S
C1263 C1264 1.434 1_565 S
C1264 C1255 1.429 . S
C1264 N1261 1.350 . S
C1264 C1263 1.434 1_545 S
C1265 C1266 1.369 . S
C1265 C1267 1.419 . S
C1265 H1269 0.930 . S
C1266 C1265 1.369 . S
C1266 C1275 1.429 . S
C1267 C1265 1.419 . S
C1267 C1268 1.363 . S
C1267 H1270 0.929 . S
C1268 C1267 1.363 . S
C1268 C1274 1.428 . S
H1269 C1265 0.930 . S
H1270 C1267 0.929 . S
S1271 N1272 1.613 . S
S1271 N1273 1.610 . S
N1272 S1271 1.613 . S
N1272 C1275 1.350 . S
N1273 S1271 1.610 . S
N1273 C1274 1.351 . S
C1274 C1268 1.428 . S
C1274 N1273 1.351 . S
C1274 C1275 1.434 . S
C1275 C1266 1.429 . S
C1275 N1272 1.350 . S
C1275 C1274 1.434 . S
C1276 C1277 1.369 . S
C1276 C1278 1.419 1_455 S
C1276 H1280 0.930 . S
C1277 C1276 1.369 . S
C1277 C1286 1.429 . S
C1278 C1276 1.419 1_655 S
C1278 C1279 1.363 . S
C1278 H1281 0.929 . S
C1279 C1278 1.363 . S
C1279 C1285 1.428 . S
H1280 C1276 0.930 . S
H1281 C1278 0.929 . S
S1282 N1283 1.614 1_655 S
S1282 N1284 1.610 . S
N1283 S1282 1.614 1_455 S
N1283 C1286 1.350 . S
N1284 S1282 1.610 . S
N1284 C1285 1.351 . S
C1285 C1279 1.428 . S
C1285 N1284 1.351 . S
C1285 C1286 1.434 1_655 S
C1286 C1277 1.429 . S
C1286 N1283 1.350 . S
C1286 C1285 1.434 1_455 S
C1287 C1288 1.369 . S
C1287 C1289 1.419 1_565 S
C1287 H1291 0.930 . S
C1288 C1287 1.369 . S
C1288 C1297 1.429 . S
C1289 C1287 1.419 1_545 S
C1289 C1290 1.363 . S
C1289 H1292 0.929 . S
C1290 C1289 1.363 . S
C1290 C1296 1.428 . S
H1291 C1287 0.930 . S
H1292 C1289 0.929 . S
S1293 N1294 1.613 1_545 S
S1293 N1295 1.611 . S
N1294 S1293 1.613 1_565 S
N1294 C1297 1.350 . S
N1295 S1293 1.611 . S
N1295 C1296 1.351 . S
C1296 C1290 1.428 . S
C1296 N1295 1.351 . S
C1296 C1297 1.434 1_545 S
C1297 C1288 1.429 . S
C1297 N1294 1.350 . S
C1297 C1296 1.434 1_565 S
C1298 C1299 1.369 . S
C1298 C1300 1.419 . S
C1298 H1302 0.930 . S
C1299 C1298 1.369 . S
C1299 C1308 1.429 . S
C1300 C1298 1.419 . S
C1300 C1301 1.363 . S
C1300 H1303 0.929 . S
C1301 C1300 1.363 . S
C1301 C1307 1.428 . S
H1302 C1298 0.930 . S
H1303 C1300 0.929 . S
S1304 N1305 1.613 . S
S1304 N1306 1.610 . S
N1305 S1304 1.613 . S
N1305 C1308 1.350 . S
N1306 S1304 1.610 . S
N1306 C1307 1.351 . S
C1307 C1301 1.428 . S
C1307 N1306 1.351 . S
C1307 C1308 1.434 . S
C1308 C1299 1.429 . S
C1308 N1305 1.350 . S
C1308 C1307 1.434 . S
C1309 C1310 1.369 . S
C1309 C1311 1.419 1_455 S
C1309 H1313 0.930 . S
C1310 C1309 1.369 . S
C1310 C1319 1.429 . S
C1311 C1309 1.419 1_655 S
C1311 C1312 1.363 . S
C1311 H1314 0.929 . S
C1312 C1311 1.363 . S
C1312 C1318 1.428 . S
H1313 C1309 0.930 . S
H1314 C1311 0.929 . S
S1315 N1316 1.612 1_655 S
S1315 N1317 1.611 . S
N1316 S1315 1.612 1_455 S
N1316 C1319 1.350 . S
N1317 S1315 1.611 . S
N1317 C1318 1.351 . S
C1318 C1312 1.428 . S
C1318 N1317 1.351 . S
C1318 C1319 1.434 1_655 S
C1319 C1310 1.429 . S
C1319 N1316 1.350 . S
C1319 C1318 1.434 1_455 S
C1057 C29 1.259 . S
C1059 C929 1.258 . S
C1068 C108 1.257 . S
C1070 C1025 1.257 . S
C1079 C585 1.257 . S
C1081 C205 1.257 . S
C1090 C293 1.259 . S
C1092 C673 1.258 . S
C1101 C761 1.258 . S
C1103 C381 1.258 . S
C1112 C841 1.258 . S
C1114 C489 1.257 . S
C1123 C724 1.384 . S
C1125 C49 1.394 . S
C1134 C145 1.389 . S
C1136 C821 1.385 . S
C1145 C909 1.393 . S
C1147 C225 1.391 . S
C1156 C313 1.384 . S
C1158 C988 1.394 . S
C1167 C401 1.386 . S
C1169 C548 1.392 . S
C1178 C469 1.395 . S
C1180 C636 1.388 . S
C1189 C900 1.775 . S
C1191 C57 1.780 . S
C1200 C997 1.781 . S
C1202 C137 1.776 . S
C1211 C557 1.781 . S
C1213 C233 1.776 . S
C1222 C321 1.776 . S
C1224 C645 1.781 . S
C1233 C409 1.781 . S
C1235 C733 1.777 . S
C1244 C812 1.775 . S
C1246 C460 1.780 . S
C1255 C20 1.311 . S
C1257 C665 1.312 . S
C1266 C753 1.306 . S
C1268 C117 1.306 . S
C1277 C849 1.312 . S
C1279 C196 1.310 . S
C1288 C284 1.310 . S
C1290 C937 1.309 . S
C1299 C372 1.313 . S
C1301 C1017 1.313 . S
C1310 C497 1.313 . S
C1312 C577 1.313 . S
