# Generated by pormake.
# Topology xfc, (7)-cn, num edge types: 1
# Building blocks:
#     Node 0, Type 0, BuildingBlock: NUHQUE_clean_sbu_2, # of connection points: 7
#     Node 1, Type 0, BuildingBlock: NUHQUE_clean_sbu_2, # of connection points: 7
#     Node 2, Type 0, BuildingBlock: NUHQUE_clean_sbu_2, # of connection points: 7
#     Node 3, Type 0, BuildingBlock: NUHQUE_clean_sbu_2, # of connection points: 7
#     Node 4, Type 0, BuildingBlock: NUHQUE_clean_sbu_2, # of connection points: 7
#     Node 5, Type 0, BuildingBlock: NUHQUE_clean_sbu_2, # of connection points: 7
#     Node 6, Type 0, BuildingBlock: NUHQUE_clean_sbu_2, # of connection points: 7
#     Node 7, Type 0, BuildingBlock: NUHQUE_clean_sbu_2, # of connection points: 7
#     Node 8, Type 0, BuildingBlock: NUHQUE_clean_sbu_2, # of connection points: 7
#     Node 9, Type 0, BuildingBlock: NUHQUE_clean_sbu_2, # of connection points: 7
#     Node 10, Type 0, BuildingBlock: NUHQUE_clean_sbu_2, # of connection points: 7
#     Node 11, Type 0, BuildingBlock: NUHQUE_clean_sbu_2, # of connection points: 7
#     Node 12, Type 0, BuildingBlock: NUHQUE_clean_sbu_2, # of connection points: 7
#     Node 13, Type 0, BuildingBlock: NUHQUE_clean_sbu_2, # of connection points: 7
#     Node 14, Type 0, BuildingBlock: NUHQUE_clean_sbu_2, # of connection points: 7
#     Node 15, Type 0, BuildingBlock: NUHQUE_clean_sbu_2, # of connection points: 7
#     Edge 16, Type (0, 0), BuildingBlock: KIFKEQ_clean_linker_1, # of connection points: 2
#     Edge 17, Type (0, 0), BuildingBlock: KIFKEQ_clean_linker_1, # of connection points: 2
#     Edge 18, Type (0, 0), BuildingBlock: KIFKEQ_clean_linker_1, # of connection points: 2
#     Edge 19, Type (0, 0), BuildingBlock: KIFKEQ_clean_linker_1, # of connection points: 2
#     Edge 20, Type (0, 0), BuildingBlock: KIFKEQ_clean_linker_1, # of connection points: 2
#     Edge 21, Type (0, 0), BuildingBlock: KIFKEQ_clean_linker_1, # of connection points: 2
#     Edge 22, Type (0, 0), BuildingBlock: KIFKEQ_clean_linker_1, # of connection points: 2
#     Edge 23, Type (0, 0), BuildingBlock: KIFKEQ_clean_linker_1, # of connection points: 2
#     Edge 24, Type (0, 0), BuildingBlock: KIFKEQ_clean_linker_1, # of connection points: 2
#     Edge 25, Type (0, 0), BuildingBlock: KIFKEQ_clean_linker_1, # of connection points: 2
#     Edge 26, Type (0, 0), BuildingBlock: KIFKEQ_clean_linker_1, # of connection points: 2
#     Edge 27, Type (0, 0), BuildingBlock: KIFKEQ_clean_linker_1, # of connection points: 2
#     Edge 28, Type (0, 0), BuildingBlock: KIFKEQ_clean_linker_1, # of connection points: 2
#     Edge 29, Type (0, 0), BuildingBlock: KIFKEQ_clean_linker_1, # of connection points: 2
#     Edge 30, Type (0, 0), BuildingBlock: KIFKEQ_clean_linker_1, # of connection points: 2
#     Edge 31, Type (0, 0), BuildingBlock: KIFKEQ_clean_linker_1, # of connection points: 2
#     Edge 32, Type (0, 0), BuildingBlock: KIFKEQ_clean_linker_1, # of connection points: 2
#     Edge 33, Type (0, 0), BuildingBlock: KIFKEQ_clean_linker_1, # of connection points: 2
#     Edge 34, Type (0, 0), BuildingBlock: KIFKEQ_clean_linker_1, # of connection points: 2
#     Edge 35, Type (0, 0), BuildingBlock: KIFKEQ_clean_linker_1, # of connection points: 2
#     Edge 36, Type (0, 0), BuildingBlock: KIFKEQ_clean_linker_1, # of connection points: 2
#     Edge 37, Type (0, 0), BuildingBlock: KIFKEQ_clean_linker_1, # of connection points: 2
#     Edge 38, Type (0, 0), BuildingBlock: KIFKEQ_clean_linker_1, # of connection points: 2
#     Edge 39, Type (0, 0), BuildingBlock: KIFKEQ_clean_linker_1, # of connection points: 2
#     Edge 40, Type (0, 0), BuildingBlock: KIFKEQ_clean_linker_1, # of connection points: 2
#     Edge 41, Type (0, 0), BuildingBlock: KIFKEQ_clean_linker_1, # of connection points: 2
#     Edge 42, Type (0, 0), BuildingBlock: KIFKEQ_clean_linker_1, # of connection points: 2
#     Edge 43, Type (0, 0), BuildingBlock: KIFKEQ_clean_linker_1, # of connection points: 2
#     Edge 44, Type (0, 0), BuildingBlock: KIFKEQ_clean_linker_1, # of connection points: 2
#     Edge 45, Type (0, 0), BuildingBlock: KIFKEQ_clean_linker_1, # of connection points: 2
#     Edge 46, Type (0, 0), BuildingBlock: KIFKEQ_clean_linker_1, # of connection points: 2
#     Edge 47, Type (0, 0), BuildingBlock: KIFKEQ_clean_linker_1, # of connection points: 2
#     Edge 48, Type (0, 0), BuildingBlock: KIFKEQ_clean_linker_1, # of connection points: 2
#     Edge 49, Type (0, 0), BuildingBlock: KIFKEQ_clean_linker_1, # of connection points: 2
#     Edge 50, Type (0, 0), BuildingBlock: KIFKEQ_clean_linker_1, # of connection points: 2
#     Edge 51, Type (0, 0), BuildingBlock: KIFKEQ_clean_linker_1, # of connection points: 2
#     Edge 52, Type (0, 0), BuildingBlock: KIFKEQ_clean_linker_1, # of connection points: 2
#     Edge 53, Type (0, 0), BuildingBlock: KIFKEQ_clean_linker_1, # of connection points: 2
#     Edge 54, Type (0, 0), BuildingBlock: KIFKEQ_clean_linker_1, # of connection points: 2
#     Edge 55, Type (0, 0), BuildingBlock: KIFKEQ_clean_linker_1, # of connection points: 2
#     Edge 56, Type (0, 0), BuildingBlock: KIFKEQ_clean_linker_1, # of connection points: 2
#     Edge 57, Type (0, 0), BuildingBlock: KIFKEQ_clean_linker_1, # of connection points: 2
#     Edge 58, Type (0, 0), BuildingBlock: KIFKEQ_clean_linker_1, # of connection points: 2
#     Edge 59, Type (0, 0), BuildingBlock: KIFKEQ_clean_linker_1, # of connection points: 2
#     Edge 60, Type (0, 0), BuildingBlock: KIFKEQ_clean_linker_1, # of connection points: 2
#     Edge 61, Type (0, 0), BuildingBlock: KIFKEQ_clean_linker_1, # of connection points: 2
#     Edge 62, Type (0, 0), BuildingBlock: KIFKEQ_clean_linker_1, # of connection points: 2
#     Edge 63, Type (0, 0), BuildingBlock: KIFKEQ_clean_linker_1, # of connection points: 2
#     Edge 64, Type (0, 0), BuildingBlock: KIFKEQ_clean_linker_1, # of connection points: 2
#     Edge 65, Type (0, 0), BuildingBlock: KIFKEQ_clean_linker_1, # of connection points: 2
#     Edge 66, Type (0, 0), BuildingBlock: KIFKEQ_clean_linker_1, # of connection points: 2
#     Edge 67, Type (0, 0), BuildingBlock: KIFKEQ_clean_linker_1, # of connection points: 2
#     Edge 68, Type (0, 0), BuildingBlock: KIFKEQ_clean_linker_1, # of connection points: 2
#     Edge 69, Type (0, 0), BuildingBlock: KIFKEQ_clean_linker_1, # of connection points: 2
#     Edge 70, Type (0, 0), BuildingBlock: KIFKEQ_clean_linker_1, # of connection points: 2
#     Edge 71, Type (0, 0), BuildingBlock: KIFKEQ_clean_linker_1, # of connection points: 2
# Relax obj value: 0.418
# Max RMSD: 0.229
# Mean RMSD: 0.229
data_MOF--net-xfc--node1-NUHQUE_clean_sbu_2--edge1-KIFKEQ_clean_linker_1
_symmetry_space_group_name_H-M    P1
_symmetry_Int_Tables_number       1
_symmetry_cell_setting            triclinic
loop_
_symmetry_equiv_pos_as_xyz
'x, y, z'
_cell_length_a     38.306923
_cell_length_b     38.283768
_cell_length_c     47.631743
_cell_angle_alpha  89.897751
_cell_angle_beta   89.990413
_cell_angle_gamma 90.087234
loop_
_atom_site_label
_atom_site_type_symbol
_atom_site_fract_x
_atom_site_fract_y
_atom_site_fract_z
_atom_type_partial_charge
O0 O 0.09686 0.92092 0.1945 0.0
Tb1 Tb 0.04893 0.93856 0.17475 0.0
Eu2 Eu 0.97618 0.98301 0.20151 0.0
C3 C 0.10982 0.93791 0.21621 0.0
O4 O 0.0888 0.95667 0.23181 0.0
C5 C 0.04416 0.01845 0.17719 0.0
O6 O 0.9284 0.01631 0.19451 0.0
C7 C 0.99423 0.96948 0.2533 0.0
C8 C 0.93025 0.05055 0.19616 0.0
O9 O 0.95862 0.06493 0.20651 0.0
C10 C 0.9761 0.9058 0.17578 0.0
C11 C 0.99557 0.942 0.27561 0.0
C12 C 0.0284 0.93006 0.28548 0.0
C13 C 0.03042 0.90544 0.3074 0.0
C14 C -0.00028 0.89279 0.31942 0.0
C15 C 0.967 0.90467 0.31059 0.0
C16 C 0.96485 0.92946 0.28878 0.0
O17 O 0.0591 0.99145 0.18903 0.0
O18 O 0.01007 0.02104 0.1776 0.0
O19 O 0.07283 0.92435 0.13457 0.0
O20 O 0.02844 0.95782 0.13493 0.0
C21 C 0.05127 0.9423 0.11905 0.0
O22 O 0.96066 0.93637 0.17607 0.0
O23 O 0.00775 0.9018 0.18607 0.0
O24 O 0.96371 0.98277 0.24628 0.0
O25 O 0.01539 0.96596 0.23174 0.0
H26 H 0.05229 0.94033 0.27656 0.0
H27 H 0.00139 0.87418 0.33661 0.0
H28 H 0.93946 0.9389 0.28227 0.0
O29 O 0.3121 0.82378 0.45585 0.0
Tb30 Tb 0.28723 0.78308 0.43139 0.0
Eu31 Eu 0.24352 0.71573 0.45477 0.0
C32 C 0.29608 0.84179 0.47561 0.0
O33 O 0.26326 0.83536 0.48162 0.0
C34 C 0.20739 0.78101 0.42761 0.0
O35 O 0.21491 0.66448 0.45215 0.0
C36 C 0.25643 0.74075 0.50459 0.0
C37 C 0.18066 0.66352 0.45181 0.0
O38 O 0.16319 0.69209 0.45772 0.0
C39 C 0.32194 0.70945 0.43394 0.0
C40 C 0.28289 0.74082 0.52747 0.0
C41 C 0.29686 0.77309 0.53657 0.0
C42 C 0.32227 0.77421 0.55782 0.0
C43 C 0.33317 0.74304 0.57032 0.0
C44 C 0.3191 0.71075 0.56229 0.0
C45 C 0.29384 0.70968 0.54079 0.0
O46 O 0.23321 0.79705 0.44031 0.0
O47 O 0.20687 0.74679 0.42742 0.0
O48 O 0.30131 0.81199 0.39331 0.0
O49 O 0.2765 0.76222 0.38984 0.0
C50 C 0.28916 0.78863 0.37591 0.0
O51 O 0.29103 0.69476 0.43357 0.0
O52 O 0.32569 0.7425 0.44103 0.0
O53 O 0.23788 0.71221 0.50033 0.0
O54 O 0.26533 0.75666 0.48119 0.0
H55 H 0.28815 0.79726 0.52706 0.0
H56 H 0.35202 0.74416 0.5873 0.0
H57 H 0.28302 0.68476 0.53442 0.0
O58 O 0.38683 0.05728 0.67303 0.0
Tb59 Tb 0.43881 0.03665 0.66558 0.0
Eu60 Eu 0.50645 0.99509 0.70114 0.0
C61 C 0.36471 0.04317 0.69101 0.0
O62 O 0.37584 0.02064 0.70976 0.0
C63 C 0.44065 0.95825 0.67471 0.0
O64 O 0.553 0.95982 0.69577 0.0
C65 C 0.48782 0.00599 0.75293 0.0
C66 C 0.57993 0.96929 0.68033 0.0
O67 O 0.58236 0.00181 0.67176 0.0
C68 C 0.50932 0.07394 0.67772 0.0
C69 C 0.48989 0.03195 0.77623 0.0
C70 C 0.45977 0.0508 0.78432 0.0
C71 C 0.46049 0.07247 0.80812 0.0
C72 C 0.49115 0.07537 0.82378 0.0
C73 C 0.52134 0.05718 0.81627 0.0
C74 C 0.5208 0.03572 0.7923 0.0
O75 O 0.42518 0.98652 0.68376 0.0
O76 O 0.47466 0.95616 0.67654 0.0
O77 O 0.42566 0.04648 0.62156 0.0
O78 O 0.46623 0.01056 0.63114 0.0
C79 C 0.44836 0.02493 0.61097 0.0
O80 O 0.52552 0.04381 0.67995 0.0
O81 O 0.47515 0.07655 0.68033 0.0
O82 O 0.51672 0.98965 0.74577 0.0
O83 O 0.46754 0.01327 0.73132 0.0
H84 H 0.43567 0.04798 0.77262 0.0
H85 H 0.49156 0.09242 0.84197 0.0
H86 H 0.54412 0.0213 0.78676 0.0
O87 O 0.23406 0.17348 0.93548 0.0
Tb88 Tb 0.23587 0.21648 0.90553 0.0
Eu89 Eu 0.26473 0.26021 0.96673 0.0
C90 C 0.26173 0.15377 0.93966 0.0
O91 O 0.29211 0.1688 0.94305 0.0
C92 C 0.30891 0.23812 0.91559 0.0
O93 O 0.29001 0.3129 0.97126 0.0
C94 C 0.24636 0.22836 1.01265 0.0
C95 C 0.32413 0.31555 0.9728 0.0
O96 O 0.3425 0.28735 0.9781 0.0
C97 C 0.1935 0.27928 0.92965 0.0
C98 C 0.22026 0.2289 0.0357 0.0
C99 C 0.20458 0.1973 0.04456 0.0
C100 C 0.18089 0.19706 0.06714 0.0
C101 C 0.17354 0.22823 0.08113 0.0
C102 C 0.18921 0.25974 0.073 0.0
C103 C 0.21211 0.26014 0.04992 0.0
O104 O 0.28043 0.2507 0.90469 0.0
O105 O 0.30891 0.23467 0.94293 0.0
O106 O 0.25242 0.18184 0.87151 0.0
O107 O 0.21077 0.21699 0.86432 0.0
C108 C 0.23037 0.19322 0.85295 0.0
O109 O 0.21951 0.28878 0.94626 0.0
O110 O 0.19189 0.24876 0.91695 0.0
O111 O 0.26955 0.25386 1.01188 0.0
O112 O 0.23534 0.21873 0.9876 0.0
H113 H 0.21079 0.17305 0.03397 0.0
H114 H 0.15533 0.2279 0.09859 0.0
H115 H 0.22416 0.28454 0.04357 0.0
O116 O 0.1109 0.02984 0.84443 0.0
Tb117 Tb 0.06156 0.00693 0.85702 0.0
Eu118 Eu 0.98828 0.97272 0.8158 0.0
C119 C 0.13459 0.01223 0.83029 0.0
O120 O 0.12741 0.98097 0.82066 0.0
C121 C 0.04891 0.9324 0.84135 0.0
O122 O 0.93132 0.95792 0.81556 0.0
C123 C 0.01535 0.99333 0.76838 0.0
C124 C 0.92212 0.92484 0.81569 0.0
O125 O 0.94605 0.90107 0.81078 0.0
C126 C 0.99009 0.04589 0.85175 0.0
C127 C 0.01167 0.01985 0.74584 0.0
C128 C 0.0417 0.03162 0.73123 0.0
C129 C 0.03864 0.0559 0.70906 0.0
C130 C 0.00554 0.06908 0.70256 0.0
C131 C 0.97556 0.05786 0.71676 0.0
C132 C 0.97858 0.0329 0.73827 0.0
O133 O 0.06193 0.96119 0.83098 0.0
O134 O 0.01539 0.92825 0.8379 0.0
O135 O 0.08663 0.00382 0.89827 0.0
O136 O 0.03543 0.98337 0.89329 0.0
C137 C 0.06085 0.98825 0.91096 0.0
O138 O 0.97326 0.01731 0.84413 0.0
O139 O 0.02439 0.04914 0.85039 0.0
O140 O 0.99093 0.96909 0.77025 0.0
O141 O 0.02622 0.00457 0.79297 0.0
H142 H 0.06715 0.02127 0.73664 0.0
H143 H 0.00292 0.08817 0.68583 0.0
H144 H 0.95537 0.02395 0.74916 0.0
O145 O 0.2066 0.86588 0.10422 0.0
Tb146 Tb 0.22486 0.81376 0.11509 0.0
Eu147 Eu 0.26063 0.73794 0.08094 0.0
C148 C 0.22603 0.88891 0.09064 0.0
O149 O 0.25421 0.8787 0.07737 0.0
C150 C 0.30057 0.80229 0.10242 0.0
O151 O 0.28761 0.68644 0.08817 0.0
C152 C 0.24861 0.75474 0.02891 0.0
C153 C 0.28075 0.66931 0.11154 0.0
O154 O 0.25681 0.68165 0.12856 0.0
C155 C 0.18251 0.74345 0.10954 0.0
C156 C 0.2205 0.75207 1.0075 0.0
C157 C 0.20304 0.7826 0.99839 0.0
C158 C 0.17629 0.7805 0.97826 0.0
C159 C 0.16731 0.74802 0.96712 0.0
C160 C 0.18525 0.71772 0.97489 0.0
C161 C 0.2119 0.7197 0.99505 0.0
O162 O 0.27248 0.81553 0.09107 0.0
O163 O 0.30291 0.76831 0.10278 0.0
O164 O 0.2256 0.83592 0.15742 0.0
O165 O 0.24961 0.78672 0.15031 0.0
C166 C 0.24287 0.81046 0.16901 0.0
O167 O 0.21072 0.72516 0.10363 0.0
O168 O 0.18114 0.77798 0.10831 0.0
O169 O 0.2647 0.7258 0.03644 0.0
O170 O 0.24283 0.77603 0.05006 0.0
H171 H 0.21034 0.80788 1.00677 0.0
H172 H 0.14742 0.74664 0.95092 0.0
H173 H 0.22583 0.69615 1.00082 0.0
O174 O 0.40856 0.94174 0.32698 0.0
Tb175 Tb 0.45297 0.96354 0.34947 0.0
Eu176 Eu 0.51427 0.01542 0.32693 0.0
C177 C 0.3783 0.93444 0.33846 0.0
O178 O 0.35341 0.92115 0.32282 0.0
C179 C 0.44309 0.04278 0.3511 0.0
O180 O 0.55919 0.05092 0.33769 0.0
C181 C 0.49552 0.00805 0.2748 0.0
C182 C 0.57363 0.04483 0.36232 0.0
O183 O 0.56113 0.01919 0.3777 0.0
C184 C 0.52678 0.93516 0.33929 0.0
C185 C 0.49702 0.98305 0.25094 0.0
C186 C 0.46601 0.96619 0.2421 0.0
C187 C 0.4664 0.94327 0.21913 0.0
C188 C 0.4975 0.93786 0.20453 0.0
C189 C 0.52837 0.95465 0.21255 0.0
C190 C 0.52831 0.97688 0.23604 0.0
O191 O 0.43065 0.01433 0.33939 0.0
O192 O 0.47698 0.04716 0.35292 0.0
O193 O 0.44198 0.94475 0.39207 0.0
O194 O 0.47674 0.98772 0.38617 0.0
C195 C 0.46144 0.96795 0.4047 0.0
O196 O 0.53867 0.9667 0.34372 0.0
O197 O 0.49393 0.93031 0.33248 0.0
O198 O 0.5243 0.02452 0.28236 0.0
O199 O 0.47585 0.99878 0.2962 0.0
H200 H 0.44166 0.97081 0.25307 0.0
H201 H 0.49766 0.92025 0.18669 0.0
H202 H 0.55233 0.98971 0.24223 0.0
O203 O 0.307 0.14837 0.57324 0.0
Tb204 Tb 0.28619 0.19626 0.59083 0.0
Eu205 Eu 0.23604 0.26502 0.56689 0.0
C206 C 0.28966 0.13074 0.55399 0.0
O207 O 0.26768 0.14738 0.53762 0.0
C208 C 0.20651 0.19449 0.59059 0.0
O209 O 0.20259 0.31093 0.57928 0.0
C210 C 0.2404 0.24999 0.51374 0.0
C211 C 0.21003 0.3257 0.60354 0.0
O212 O 0.23644 0.31348 0.61811 0.0
C213 C 0.31774 0.27101 0.58361 0.0
C214 C 0.26347 0.25091 0.48854 0.0
C215 C 0.27742 0.21919 0.4783 0.0
C216 C 0.296 0.21831 0.45289 0.0
C217 C 0.30101 0.24929 0.43791 0.0
C218 C 0.28786 0.28112 0.44761 0.0
C219 C 0.26923 0.28206 0.4731 0.0
O220 O 0.23386 0.18199 0.57747 0.0
O221 O 0.20246 0.22838 0.5923 0.0
O222 O 0.30141 0.17487 0.63178 0.0
O223 O 0.26296 0.21497 0.62969 0.0
C224 C 0.27975 0.19388 0.64629 0.0
O225 O 0.28648 0.28497 0.58442 0.0
O226 O 0.32261 0.23752 0.57853 0.0
O227 O 0.22686 0.2794 0.52309 0.0
O228 O 0.24896 0.22808 0.53391 0.0
H229 H 0.27294 0.19499 0.4896 0.0
H230 H 0.31592 0.24871 0.41853 0.0
H231 H 0.25864 0.30665 0.48038 0.0
O232 O 0.70974 0.36148 0.60887 0.0
Tb233 Tb 0.72159 0.30678 0.61354 0.0
Eu234 Eu 0.76305 0.24277 0.57929 0.0
C235 C 0.71232 0.37599 0.58392 0.0
O236 O 0.71641 0.35633 0.56159 0.0
C237 C 0.79876 0.30919 0.6034 0.0
O238 O 0.79581 0.19514 0.58827 0.0
C239 C 0.75693 0.26228 0.52711 0.0
C240 C 0.78561 0.17267 0.60761 0.0
O241 O 0.75415 0.17562 0.61826 0.0
C242 C 0.68153 0.24105 0.5961 0.0
C243 C 0.73293 0.26042 0.50251 0.0
C244 C 0.71883 0.29146 0.49085 0.0
C245 C 0.69857 0.29012 0.46618 0.0
C246 C 0.6926 0.25798 0.45328 0.0
C247 C 0.70607 0.22705 0.46446 0.0
C248 C 0.72586 0.22818 0.48926 0.0
O249 O 0.76988 0.32236 0.5936 0.0
O250 O 0.8012 0.27516 0.60448 0.0
O251 O 0.71029 0.31182 0.6583 0.0
O252 O 0.74776 0.2742 0.64481 0.0
C253 C 0.73191 0.28755 0.66647 0.0
O254 O 0.71135 0.22403 0.59597 0.0
O255 O 0.68055 0.27538 0.59479 0.0
O256 O 0.77291 0.23339 0.53498 0.0
O257 O 0.74729 0.28195 0.54838 0.0
H258 H 0.72415 0.3165 0.50055 0.0
H259 H 0.67678 0.25701 0.43438 0.0
H260 H 0.73632 0.20408 0.49772 0.0
O261 O 0.7998 0.65538 0.06114 0.0
Tb262 Tb 0.7686 0.70007 0.07276 0.0
Eu263 Eu 0.72346 0.76849 0.05625 0.0
C264 C 0.78692 0.62703 0.04944 0.0
O265 O 0.7535 0.62518 0.04353 0.0
C266 C 0.69055 0.69615 0.07576 0.0
O267 O 0.69166 0.81397 0.07203 0.0
C268 C 0.72646 0.7591 1.00225 0.0
C269 C 0.70211 0.82921 0.09536 0.0
O270 O 0.73117 0.81846 0.10714 0.0
C271 C 0.80574 0.76993 0.06498 0.0
C272 C 0.75182 0.76418 0.97878 0.0
C273 C 0.77688 0.73807 0.97247 0.0
C274 C 0.80063 0.74275 0.95025 0.0
C275 C 0.79838 0.77286 0.93377 0.0
C276 C 0.77378 0.79877 0.9393 0.0
C277 C 0.75061 0.7947 0.96195 0.0
O278 O 0.71653 0.68339 0.06105 0.0
O279 O 0.6899 0.72996 0.08054 0.0
O280 O 0.77705 0.68416 0.1164 0.0
O281 O 0.75555 0.73428 0.10773 0.0
C282 C 0.76526 0.71296 0.12744 0.0
O283 O 0.77634 0.78559 0.07134 0.0
O284 O 0.80559 0.7376 0.05571 0.0
O285 O 0.71271 0.78718 0.01378 0.0
O286 O 0.73382 0.73454 0.0207 0.0
H287 H 0.77838 0.71447 0.985 0.0
H288 H 0.81633 0.77638 0.91633 0.0
H289 H 0.73166 0.81499 0.96621 0.0
O290 O 0.81999 0.32821 0.92397 0.0
Tb291 Tb 0.79349 0.2788 0.92371 0.0
Eu292 Eu 0.74482 0.22488 0.96119 0.0
C293 C 0.81452 0.35152 0.94365 0.0
O294 O 0.79534 0.34357 0.96563 0.0
C295 C 0.71615 0.29236 0.93099 0.0
O296 O 0.70676 0.18089 0.95289 0.0
C297 C 0.75275 0.25006 1.01166 0.0
C298 C 0.7127 0.16252 0.92996 0.0
O299 O 0.74105 0.16938 0.91543 0.0
C300 C 0.82469 0.21096 0.94582 0.0
C301 C 0.77626 0.25151 0.03673 0.0
C302 C 0.78896 0.28426 0.04633 0.0
C303 C 0.80809 0.28671 0.07158 0.0
C304 C 0.81485 0.25623 0.08685 0.0
C305 C 0.80293 0.22349 0.07779 0.0
C306 C 0.78388 0.22117 0.05256 0.0
O307 O 0.74665 0.30499 0.93798 0.0
O308 O 0.71071 0.25867 0.93344 0.0
O309 O 0.81003 0.28026 0.87999 0.0
O310 O 0.76587 0.24935 0.89106 0.0
C311 C 0.78568 0.25981 0.87041 0.0
O312 O 0.79328 0.1973 0.94646 0.0
O313 O 0.82877 0.24494 0.94659 0.0
O314 O 0.7358 0.22075 1.0063 0.0
O315 O 0.76303 0.26659 0.98882 0.0
H316 H 0.78309 0.30785 0.03465 0.0
H317 H 0.83017 0.25802 0.10595 0.0
H318 H 0.77429 0.19593 0.04574 0.0
O319 O 0.75827 0.67034 0.38396 0.0
Tb320 Tb 0.74005 0.72351 0.38668 0.0
Eu321 Eu 0.75393 0.74645 0.46654 0.0
C322 C 0.77885 0.66157 0.363 0.0
O323 O 0.78818 0.68552 0.34468 0.0
C324 C 0.80481 0.71844 0.42067 0.0
O325 O 0.78793 0.79388 0.45984 0.0
C326 C 0.73706 0.72756 0.51721 0.0
C327 C 0.82204 0.79067 0.45849 0.0
O328 O 0.83644 0.7622 0.46866 0.0
C329 C 0.68836 0.75964 0.4256 0.0
C330 C 0.70947 0.73357 0.53866 0.0
C331 C 0.68941 0.70503 0.5487 0.0
C332 C 0.66251 0.71033 0.56842 0.0
C333 C 0.65654 0.7441 0.57844 0.0
C334 C 0.67616 0.77265 0.56899 0.0
C335 C 0.70282 0.76736 0.54922 0.0
O336 O 0.78798 0.74169 0.40563 0.0
O337 O 0.79138 0.70936 0.44505 0.0
O338 O 0.71496 0.71331 0.34676 0.0
O339 O 0.74621 0.75904 0.35085 0.0
C340 C 0.72726 0.74043 0.33365 0.0
O341 O 0.70814 0.77277 0.44554 0.0
O342 O 0.69579 0.72924 0.41454 0.0
O343 O 0.75902 0.75331 0.51174 0.0
O344 O 0.72755 0.71008 0.49464 0.0
H345 H 0.69427 0.67894 0.54082 0.0
H346 H 0.6365 0.74819 0.59421 0.0
H347 H 0.71781 0.78957 0.54183 0.0
O348 O 0.55854 0.49727 0.64157 0.0
Tb349 Tb 0.50741 0.47501 0.6477 0.0
Eu350 Eu 0.4763 0.50103 0.72715 0.0
C351 C 0.56485 0.51592 0.61892 0.0
O352 O 0.53994 0.52009 0.60026 0.0
C353 C 0.50512 0.54461 0.67524 0.0
O354 O 0.4338 0.53876 0.71461 0.0
C355 C 0.49519 0.4986 0.7795 0.0
C356 C 0.41061 0.52901 0.69574 0.0
O357 O 0.40932 0.49601 0.68837 0.0
C358 C 0.4732 0.43116 0.69261 0.0
C359 C 0.49785 0.47516 0.80446 0.0
C360 C 0.53006 0.45902 0.81119 0.0
C361 C 0.53378 0.43987 0.83622 0.0
C362 C 0.50543 0.43678 0.85444 0.0
C363 C 0.47327 0.45228 0.84827 0.0
C364 C 0.46941 0.47127 0.82315 0.0
O365 O 0.48466 0.52417 0.66041 0.0
O366 O 0.51252 0.53562 0.70135 0.0
O367 O 0.51709 0.43797 0.61423 0.0
O368 O 0.47166 0.46991 0.61215 0.0
C369 C 0.48985 0.44597 0.59926 0.0
O370 O 0.45645 0.44874 0.71198 0.0
O371 O 0.50369 0.44296 0.6847 0.0
O372 O 0.46393 0.50898 0.77136 0.0
O373 O 0.51669 0.49264 0.75844 0.0
H374 H 0.55241 0.46202 0.79745 0.0
H375 H 0.50837 0.42153 0.87353 0.0
H376 H 0.44461 0.48362 0.81862 0.0
O377 O 0.92094 0.57672 0.21604 0.0
Tb378 Tb 0.95938 0.54695 0.19255 0.0
Eu379 Eu 0.01524 0.48826 0.21076 0.0
C380 C 0.89088 0.58624 0.20542 0.0
O381 O 0.86973 0.60581 0.2203 0.0
C382 C 0.94506 0.46924 0.17811 0.0
O383 O 0.05619 0.44826 0.20029 0.0
C384 C 0.99232 0.49084 0.2621 0.0
C385 C 0.07577 0.45495 0.17819 0.0
O386 O 0.07153 0.48488 0.1651 0.0
C387 C 0.0334 0.56774 0.20799 0.0
C388 C 0.99479 0.51372 0.28735 0.0
C389 C 0.96637 0.5355 0.29482 0.0
C390 C 0.96835 0.55698 0.31871 0.0
C391 C 0.99808 0.55566 0.3356 0.0
C392 C 0.0262 0.53399 0.329 0.0
C393 C 0.02485 0.51337 0.30464 0.0
O394 O 0.93167 0.49685 0.19058 0.0
O395 O 0.97887 0.46361 0.17911 0.0
O396 O 0.95544 0.57602 0.15295 0.0
O397 O 0.99496 0.53717 0.15809 0.0
C398 C 0.98216 0.56062 0.14124 0.0
O399 O 0.04452 0.53703 0.20001 0.0
O400 O 0.00112 0.57069 0.217 0.0
O401 O 0.02029 0.47306 0.25467 0.0
O402 O 0.97475 0.50322 0.24051 0.0
H403 H 0.94307 0.53617 0.28192 0.0
H404 H -0.00049 0.57216 0.35409 0.0
H405 H 0.04692 0.49692 0.2995 0.0
O406 O 0.61376 0.51727 0.34723 0.0
Tb407 Tb 0.55881 0.50578 0.35026 0.0
Eu408 Eu 0.492 0.47222 0.31048 0.0
C409 C 0.62937 0.51643 0.32268 0.0
O410 O 0.6108 0.51447 0.29955 0.0
C411 C 0.55606 0.43278 0.33204 0.0
O412 O 0.43719 0.45204 0.31658 0.0
C413 C 0.51345 0.48653 0.25977 0.0
C414 C 0.43133 0.41825 0.31817 0.0
O415 O 0.45625 0.3966 0.31075 0.0
C416 C 0.49299 0.55007 0.33947 0.0
C417 C 0.50889 0.51007 0.23511 0.0
C418 C 0.53852 0.52477 0.22162 0.0
C419 C 0.53479 0.54414 0.19654 0.0
C420 C 0.50137 0.54889 0.18536 0.0
C421 C 0.47174 0.5353 0.1987 0.0
C422 C 0.4755 0.51616 0.2237 0.0
O423 O 0.5671 0.46261 0.32235 0.0
O424 O 0.52218 0.42926 0.33237 0.0
O425 O 0.56827 0.49919 0.39511 0.0
O426 O 0.52213 0.47751 0.37708 0.0
C427 C 0.53997 0.4813 0.40009 0.0
O428 O 0.47562 0.52117 0.33346 0.0
O429 O 0.52745 0.55127 0.34002 0.0
O430 O 0.4883 0.46396 0.26541 0.0
O431 O 0.52804 0.49973 0.28242 0.0
H432 H 0.56436 0.5204 0.23019 0.0
H433 H 0.49829 0.56431 0.16638 0.0
H434 H 0.4525 0.50549 0.23385 0.0
O435 O 0.98246 0.53441 0.89358 0.0
Tb436 Tb 0.03489 0.55394 0.88956 0.0
Eu437 Eu 0.01524 0.53532 0.81858 0.0
C438 C 0.96229 0.54855 0.91279 0.0
O439 O 0.97489 0.57257 0.92963 0.0
C440 C 0.98456 0.59653 0.85567 0.0
O441 O 0.05828 0.5749 0.82331 0.0
C442 C 0.99884 0.5211 0.7668 0.0
C443 C 0.09145 0.5665 0.8253 0.0
O444 O 0.10156 0.5351 0.81777 0.0
C445 C 0.06035 0.48828 0.85937 0.0
C446 C 0.00029 0.494 0.74445 0.0
C447 C 0.96892 0.47892 0.73448 0.0
C448 C 0.9693 0.45647 0.71117 0.0
C449 C 0.00088 0.44906 0.69788 0.0
C450 C 0.03227 0.46336 0.70747 0.0
C451 C 0.03207 0.48556 0.73096 0.0
O452 O 0.01682 0.59787 0.86505 0.0
O453 O 0.97508 0.57007 0.8396 0.0
O454 O 0.043 0.53638 0.93232 0.0
O455 O 0.05384 0.5895 0.92239 0.0
C456 C 0.05326 0.56615 0.94238 0.0
O457 O 0.0336 0.48721 0.84196 0.0
O458 O 0.07107 0.51818 0.86988 0.0
O459 O 0.02815 0.5366 0.77413 0.0
O460 O 0.97746 0.51585 0.78804 0.0
H461 H 0.94422 0.4854 0.74427 0.0
H462 H 0.00104 0.43158 0.67996 0.0
H463 H 0.05643 0.49694 0.73806 0.0
H464 H 0.11424 0.99212 0.9487 0.0
H465 H 0.00643 0.96088 0.94043 0.0
H466 H 0.11238 0.97791 0.99881 0.0
H467 H 0.00453 0.94653 0.99043 0.0
H468 H 0.0034 0.97294 0.08511 0.0
H469 H 0.00636 0.98113 0.03437 0.0
H470 H 0.10573 0.92798 0.03255 0.0
H471 H 0.10271 0.91986 0.08359 0.0
C472 C 0.09023 0.98202 0.9576 0.0
C473 C 0.06036 0.97794 0.94083 0.0
C474 C 0.08922 0.97367 0.98622 0.0
C475 C 0.05824 0.96132 0.99862 0.0
C476 C 0.02865 0.95645 0.98158 0.0
C477 C 0.02975 0.96454 0.95296 0.0
C478 C 0.02579 0.96285 0.07384 0.0
C479 C 0.05283 0.94579 0.08821 0.0
C480 C 0.02739 0.96735 0.04477 0.0
C481 C 0.05623 0.95513 0.02942 0.0
C482 C 0.08328 0.93789 0.04382 0.0
C483 C 0.08149 0.93309 0.07297 0.0
H484 H 0.30509 0.84595 0.34386 0.0
H485 H 0.26793 0.73962 0.33875 0.0
H486 H 0.29719 0.85246 0.29299 0.0
H487 H 0.25991 0.74606 0.2883 0.0
H488 H 0.27818 0.75813 0.19503 0.0
H489 H 0.29366 0.75385 0.24466 0.0
H490 H 0.24656 0.85457 0.25968 0.0
H491 H 0.23134 0.85889 0.2099 0.0
C492 C 0.29555 0.82394 0.33181 0.0
C493 C 0.28711 0.79229 0.34515 0.0
C494 C 0.29083 0.82771 0.30279 0.0
C495 C 0.27794 0.79976 0.28665 0.0
C496 C 0.2703 0.76793 0.30005 0.0
C497 C 0.27474 0.76428 0.32898 0.0
C498 C 0.27129 0.77939 0.20894 0.0
C499 C 0.25332 0.80869 0.19876 0.0
C500 C 0.28007 0.77693 0.23733 0.0
C501 C 0.27118 0.8038 0.2561 0.0
C502 C 0.25405 0.83359 0.2457 0.0
C503 C 0.24512 0.83597 0.21727 0.0
H504 H 0.44508 0.92296 0.44732 0.0
H505 H 0.4787 0.02851 0.43053 0.0
H506 H 0.44271 0.93618 0.49785 0.0
H507 H 0.4759 0.04186 0.48063 0.0
H508 H 0.42073 0.06023 0.56656 0.0
H509 H 0.42513 0.04539 0.5167 0.0
H510 H 0.48647 0.95455 0.53772 0.0
H511 H 0.48261 0.96976 0.58762 0.0
C512 C 0.45198 0.94888 0.45451 0.0
C513 C 0.46201 0.97469 0.43518 0.0
C514 C 0.45078 0.95642 0.4833 0.0
C515 C 0.45892 0.99011 0.49308 0.0
C516 C 0.46921 0.01578 0.47366 0.0
C517 C 0.47106 0.00805 0.44504 0.0
C518 C 0.43533 0.03724 0.56049 0.0
C519 C 0.4516 0.01631 0.58087 0.0
C520 C 0.43788 0.02877 0.532 0.0
C521 C 0.45619 0.99885 0.52337 0.0
C522 C 0.47209 0.97766 0.54381 0.0
C523 C 0.47007 0.9865 0.57229 0.0
H524 H 0.32233 0.17079 0.68854 0.0
H525 H 0.21727 0.20444 0.67076 0.0
H526 H 0.3078 0.16592 0.7384 0.0
H527 H 0.20165 0.197 0.7198 0.0
H528 H 0.19744 0.22838 0.81142 0.0
H529 H 0.20851 0.22501 0.7615 0.0
H530 H 0.27937 0.13872 0.77554 0.0
H531 H 0.26969 0.14397 0.82609 0.0
C532 C 0.29603 0.17673 0.69537 0.0
C533 C 0.27117 0.18889 0.67613 0.0
C534 C 0.28747 0.17356 0.72388 0.0
C535 C 0.25356 0.18159 0.7335 0.0
C536 C 0.22833 0.19182 0.71362 0.0
C537 C 0.23719 0.19596 0.68541 0.0
C538 C 0.21496 0.20834 0.80379 0.0
C539 C 0.23272 0.18649 0.82256 0.0
C540 C 0.22126 0.20619 0.775 0.0
C541 C 0.24499 0.18157 0.76413 0.0
C542 C 0.26149 0.15849 0.78301 0.0
C543 C 0.25563 0.16114 0.81197 0.0
H544 H 0.72475 0.23859 0.846 0.0
H545 H 0.83016 0.27088 0.82702 0.0
H546 H 0.71052 0.23993 0.79578 0.0
H547 H 0.81616 0.27178 0.77701 0.0
H548 H 0.78444 0.24681 0.68678 0.0
H549 H 0.79719 0.23317 0.73599 0.0
H550 H 0.70651 0.2919 0.76162 0.0
H551 H 0.694 0.30581 0.71249 0.0
C552 C 0.74504 0.24516 0.83103 0.0
C553 C 0.7785 0.25473 0.84029 0.0
C554 C 0.73686 0.24616 0.80238 0.0
C555 C 0.7622 0.25613 0.78254 0.0
C556 C 0.79618 0.26376 0.79178 0.0
C557 C 0.80417 0.26334 0.8204 0.0
C558 C 0.76711 0.25653 0.70295 0.0
C559 C 0.73837 0.27753 0.69593 0.0
C560 C 0.77443 0.24877 0.73106 0.0
C561 C 0.7528 0.26141 0.7526 0.0
C562 C 0.7234 0.28147 0.74544 0.0
C563 C 0.71639 0.28965 0.71737 0.0
H564 H 0.74917 0.7748 0.15212 0.0
H565 H 0.77126 0.66657 0.17049 0.0
H566 H 0.73783 0.78557 0.20196 0.0
H567 H 0.7596 0.67726 0.22025 0.0
H568 H 0.76271 0.78749 0.3008 0.0
H569 H 0.77207 0.78323 0.2499 0.0
H570 H 0.70307 0.69406 0.24676 0.0
H571 H 0.69343 0.69848 0.29715 0.0
C572 C 0.75178 0.7534 0.16688 0.0
C573 C 0.76094 0.71982 0.15759 0.0
C574 C 0.7454 0.75962 0.19531 0.0
C575 C 0.74754 0.73218 0.21479 0.0
C576 C 0.75736 0.69875 0.20552 0.0
C577 C 0.76422 0.69266 0.17716 0.0
C578 C 0.74889 0.76762 0.28904 0.0
C579 C 0.72751 0.74322 0.30284 0.0
C580 C 0.75435 0.76508 0.26003 0.0
C581 C 0.73878 0.73789 0.24465 0.0
C582 C 0.71586 0.71484 0.25828 0.0
C583 C 0.71014 0.71759 0.28705 0.0
H584 H 0.47579 0.45753 0.41583 0.0
H585 H 0.58047 0.47491 0.44642 0.0
H586 H 0.4575 0.43909 0.46299 0.0
H587 H 0.56246 0.4561 0.4932 0.0
H588 H 0.53053 0.40135 0.5698 0.0
H589 H 0.5393 0.40195 0.51909 0.0
H590 H 0.45342 0.47395 0.50988 0.0
H591 H 0.44472 0.47354 0.56078 0.0
C592 C 0.49491 0.45697 0.43258 0.0
C593 C 0.52942 0.46789 0.42773 0.0
C594 C 0.48446 0.44646 0.45944 0.0
C595 C 0.50861 0.446 0.48161 0.0
C596 C 0.54342 0.45574 0.47638 0.0
C597 C 0.55367 0.4668 0.44972 0.0
C598 C 0.51276 0.41638 0.55687 0.0
C599 C 0.48733 0.43787 0.56915 0.0
C600 C 0.51791 0.41683 0.5279 0.0
C601 C 0.49748 0.4385 0.51074 0.0
C602 C 0.46953 0.45701 0.5227 0.0
C603 C 0.46453 0.45676 0.55179 0.0
H604 H 0.0462 0.5426 0.12297 0.0
H605 H 0.95313 0.59786 0.09783 0.0
H606 H 0.07124 0.55162 0.0766 0.0
H607 H 0.97786 0.60606 0.05069 0.0
H608 H 0.03806 0.62692 0.97007 0.0
H609 H 0.02503 0.63213 0.02044 0.0
H610 H 0.05581 0.52456 0.03245 0.0
H611 H 0.0687 0.51966 0.98275 0.0
C612 C 0.03112 0.55679 0.10745 0.0
C613 C 0.99749 0.56898 0.1137 0.0
C614 C 0.04551 0.56201 0.08091 0.0
C615 C 0.02641 0.57918 0.05986 0.0
C616 C 0.99336 0.59298 0.06654 0.0
C617 C 0.97904 0.58803 0.09337 0.0
C618 C 0.04314 0.60492 0.9838 0.0
C619 C 0.05443 0.5729 0.97272 0.0
C620 C 0.03526 0.60772 1.01248 0.0
C621 C 0.03915 0.5787 0.0304 0.0
C622 C 0.05285 0.54756 0.01938 0.0
C623 C 0.06026 0.54469 0.99088 0.0
H624 H 0.20843 0.14559 0.0998 0.0
H625 H 0.11347 0.1782 0.05916 0.0
H626 H 0.176 0.10107 0.12603 0.0
H627 H 0.08094 0.13309 0.08443 0.0
H628 H 0.02654 0.08444 0.16004 0.0
H629 H 0.06068 0.12425 0.13086 0.0
H630 H 0.14352 0.04789 0.12634 0.0
H631 H 0.10954 0.00856 0.15595 0.0
C632 C 0.1808 0.14225 0.09576 0.0
C633 C 0.16346 0.16486 0.07723 0.0
C634 C 0.16209 0.11689 0.11086 0.0
C635 C 0.12561 0.11368 0.10774 0.0
C636 C 0.10878 0.13522 0.08794 0.0
C637 C 0.12745 0.16068 0.07305 0.0
C638 C 0.05215 0.07632 0.15298 0.0
C639 C 0.06557 0.0436 0.16077 0.0
C640 C 0.07166 0.09898 0.13596 0.0
C641 C 0.10495 0.08935 0.12597 0.0
C642 C 0.11832 0.05655 0.13388 0.0
C643 C 0.09887 0.03401 0.15103 0.0
H644 H 0.06615 0.93391 0.35088 0.0
H645 H 0.06708 0.84725 0.29341 0.0
H646 H 0.1102 0.905 0.37987 0.0
H647 H 0.11185 0.81838 0.32182 0.0
H648 H 0.15149 0.75642 0.39755 0.0
H649 H 0.11315 0.78892 0.36616 0.0
H650 H 0.16864 0.88409 0.38583 0.0
H651 H 0.20647 0.85167 0.41774 0.0
C652 C 0.07697 0.90929 0.34387 0.0
C653 C 0.06384 0.89314 0.31962 0.0
C654 C 0.10206 0.89252 0.36056 0.0
C655 C 0.11442 0.85901 0.3535 0.0
C656 C 0.10254 0.84381 0.32829 0.0
C657 C 0.07739 0.86059 0.31166 0.0
C658 C 0.15534 0.78433 0.39541 0.0
C659 C 0.18201 0.80136 0.41039 0.0
C660 C 0.13358 0.80298 0.37707 0.0
C661 C 0.13789 0.83922 0.37307 0.0
C662 C 0.16426 0.85632 0.38842 0.0
C663 C 0.186 0.83767 0.4068 0.0
H664 H 0.39011 0.79422 0.55588 0.0
H665 H 0.28902 0.82747 0.58503 0.0
H666 H 0.41781 0.84105 0.5825 0.0
H667 H 0.31663 0.8739 0.61263 0.0
H668 H 0.37913 0.96805 0.64664 0.0
H669 H 0.34949 0.92759 0.61496 0.0
H670 H 0.42954 0.8506 0.63082 0.0
H671 H 0.45917 0.89129 0.66209 0.0
C672 C 0.3738 0.81214 0.56759 0.0
C673 C 0.33747 0.80737 0.56836 0.0
C674 C 0.38966 0.83867 0.58321 0.0
C675 C 0.36962 0.86084 0.60037 0.0
C676 C 0.33296 0.85742 0.59968 0.0
C677 C 0.31705 0.83095 0.58378 0.0
C678 C 0.38991 0.94219 0.64381 0.0
C679 C 0.42116 0.93265 0.65731 0.0
C680 C 0.37307 0.91905 0.62545 0.0
C681 C 0.38714 0.88579 0.62005 0.0
C682 C 0.41822 0.87621 0.6339 0.0
C683 C 0.43509 0.89939 0.65213 0.0
H684 H 0.30718 0.23082 0.85851 0.0
H685 H 0.36231 0.19494 0.9322 0.0
H686 H 0.33838 0.18839 0.8299 0.0
H687 H 0.39424 0.15311 0.90341 0.0
H688 H 0.42073 0.05827 0.85361 0.0
H689 H 0.38244 0.09897 0.87828 0.0
H690 H 0.39624 0.17417 0.81142 0.0
H691 H 0.43402 0.13283 0.78659 0.0
C692 C 0.32629 0.21417 0.8686 0.0
C693 C 0.3318 0.21593 0.89781 0.0
C694 C 0.34421 0.18984 0.85212 0.0
C695 C 0.3684 0.16688 0.86438 0.0
C696 C 0.37511 0.16977 0.89337 0.0
C697 C 0.35711 0.19405 0.90987 0.0
C698 C 0.41443 0.08301 0.84377 0.0
C699 C 0.42981 0.09231 0.81807 0.0
C700 C 0.39307 0.10659 0.85809 0.0
C701 C 0.38692 0.14017 0.84716 0.0
C702 C 0.40039 0.14853 0.82044 0.0
C703 C 0.42177 0.12481 0.80607 0.0
H704 H 0.10828 0.79965 0.98307 0.0
H705 H 0.2054 0.82911 0.94401 0.0
H706 H 0.07685 0.84042 0.95274 0.0
H707 H 0.17424 0.86861 0.91262 0.0
H708 H 0.02859 0.87253 0.86848 0.0
H709 H 0.05941 0.84121 0.90553 0.0
H710 H 0.14155 0.91875 0.90344 0.0
H711 H 0.1116 0.94876 0.86567 0.0
C712 C 0.12294 0.8157 0.96847 0.0
C713 C 0.15924 0.8117 0.96607 0.0
C714 C 0.10494 0.83858 0.95069 0.0
C715 C 0.12276 0.85741 0.92968 0.0
C716 C 0.15948 0.85492 0.9286 0.0
C717 C 0.1775 0.83239 0.94668 0.0
C718 C 0.0533 0.88276 0.87588 0.0
C719 C 0.0677 0.91303 0.86382 0.0
C720 C 0.07087 0.86505 0.89742 0.0
C721 C 0.10313 0.87738 0.90773 0.0
C722 C 0.11719 0.90796 0.89584 0.0
C723 C 0.09991 0.92528 0.87405 0.0
H724 H 0.41358 0.96885 0.18704 0.0
H725 H 0.45053 0.87507 0.22723 0.0
H726 H 0.37077 0.9346 0.16064 0.0
H727 H 0.40716 0.84065 0.20169 0.0
H728 H 0.36569 0.78718 0.12221 0.0
H729 H 0.40141 0.82165 0.15431 0.0
H730 H 0.31936 0.89873 0.15975 0.0
H731 H 0.28414 0.86436 0.12731 0.0
C732 C 0.4115 0.94104 0.19098 0.0
C733 C 0.43491 0.92455 0.20933 0.0
C734 C 0.38712 0.92132 0.17581 0.0
C735 C 0.38579 0.88468 0.17867 0.0
C736 C 0.40791 0.86864 0.19845 0.0
C737 C 0.43237 0.88835 0.21344 0.0
C738 C 0.35539 0.81154 0.13022 0.0
C739 C 0.32242 0.82345 0.1217 0.0
C740 C 0.3757 0.8312 0.14887 0.0
C741 C 0.36336 0.86312 0.15973 0.0
C742 C 0.33006 0.87469 0.15148 0.0
C743 C 0.30991 0.8551 0.1327 0.0
H744 H 0.28417 0.19092 0.40129 0.0
H745 H 0.34236 0.17336 0.4775 0.0
H746 H 0.31777 0.14563 0.37766 0.0
H747 H 0.37608 0.12749 0.45392 0.0
H748 H 0.46029 0.0927 0.38959 0.0
H749 H 0.42109 0.12976 0.41661 0.0
H750 H 0.33245 0.08339 0.37476 0.0
H751 H 0.37179 0.04661 0.34731 0.0
C752 C 0.3036 0.17661 0.41317 0.0
C753 C 0.31078 0.18564 0.44117 0.0
C754 C 0.32284 0.15063 0.39966 0.0
C755 C 0.34992 0.13321 0.41377 0.0
C756 C 0.35572 0.14082 0.44234 0.0
C757 C 0.33619 0.16671 0.45597 0.0
C758 C 0.43246 0.09057 0.38595 0.0
C759 C 0.4192 0.06685 0.36611 0.0
C760 C 0.40994 0.11147 0.40177 0.0
C761 C 0.37358 0.10935 0.39805 0.0
C762 C 0.36032 0.08575 0.37809 0.0
C763 C 0.38286 0.06468 0.36236 0.0
H764 H 0.0421 0.06026 0.65215 0.0
H765 H 0.10316 0.07997 0.72665 0.0
H766 H 0.08462 0.09208 0.62392 0.0
H767 H 0.14676 0.11106 0.69782 0.0
H768 H 0.22639 0.13781 0.62144 0.0
H769 H 0.18958 0.10029 0.65116 0.0
H770 H 0.09935 0.1611 0.62788 0.0
H771 H 0.13626 0.19912 0.59886 0.0
C772 C 0.06498 0.07089 0.66246 0.0
C773 C 0.06888 0.06812 0.69179 0.0
C774 C 0.08928 0.08915 0.64624 0.0
C775 C 0.11862 0.10454 0.65874 0.0
C776 C 0.12423 0.09951 0.68769 0.0
C777 C 0.09943 0.08155 0.70415 0.0
C778 C 0.19861 0.14285 0.62247 0.0
C779 C 0.18397 0.1709 0.60739 0.0
C780 C 0.17769 0.12165 0.63971 0.0
C781 C 0.14161 0.12765 0.64165 0.0
C782 C 0.12706 0.15572 0.62656 0.0
C783 C 0.1481 0.17743 0.60994 0.0
H784 H 0.89046 0.86126 0.81176 0.0
H785 H 0.87735 0.96386 0.84775 0.0
H786 H 0.84149 0.83984 0.83945 0.0
H787 H 0.82823 0.94226 0.87572 0.0
H788 H 0.75183 0.80393 0.88549 0.0
H789 H 0.77809 0.84252 0.85044 0.0
H790 H 0.82897 0.90037 0.91659 0.0
H791 H 0.80239 0.86178 0.95149 0.0
C792 C 0.87652 0.87948 0.82504 0.0
C793 C 0.88799 0.91415 0.82768 0.0
C794 C 0.84825 0.86727 0.84083 0.0
C795 C 0.83098 0.88934 0.8599 0.0
C796 C 0.84109 0.9246 0.86131 0.0
C797 C 0.86912 0.93698 0.84515 0.0
C798 C 0.76695 0.82619 0.89254 0.0
C799 C 0.77496 0.83008 0.92114 0.0
C800 C 0.78244 0.84796 0.87248 0.0
C801 C 0.80623 0.87401 0.88069 0.0
C802 C 0.81069 0.88063 0.90954 0.0
C803 C 0.79524 0.85873 0.92962 0.0
H804 H 0.77264 0.12019 0.64531 0.0
H805 H 0.85659 0.17366 0.60234 0.0
H806 H 0.8153 0.08973 0.67475 0.0
H807 H 0.8989 0.14341 0.63185 0.0
H808 H 0.95754 0.12596 0.7125 0.0
H809 H 0.90932 0.15012 0.68532 0.0
H810 H 0.86908 0.04619 0.67151 0.0
H811 H 0.91799 0.02182 0.69866 0.0
C812 C 0.80017 0.12499 0.6418 0.0
C813 C 0.81124 0.14957 0.62162 0.0
C814 C 0.8245 0.10755 0.65867 0.0
C815 C 0.86025 0.11476 0.65589 0.0
C816 C 0.87138 0.13788 0.63473 0.0
C817 C 0.84716 0.15495 0.61766 0.0
C818 C 0.93792 0.10834 0.70423 0.0
C819 C 0.94155 0.07206 0.70745 0.0
C820 C 0.91058 0.12211 0.68846 0.0
C821 C 0.88606 0.09992 0.67576 0.0
C822 C 0.88784 0.06379 0.68096 0.0
C823 C 0.91555 0.0499 0.69666 0.0
H824 H 0.59392 0.11009 0.34482 0.0
H825 H 0.61519 0.03076 0.40709 0.0
H826 H 0.63341 0.15 0.36914 0.0
H827 H 0.65522 0.07014 0.43092 0.0
H828 H 0.67451 0.16913 0.48606 0.0
H829 H 0.64828 0.12141 0.45938 0.0
H830 H 0.69249 0.16348 0.38292 0.0
H831 H 0.71794 0.21151 0.40969 0.0
C832 C 0.6076 0.10095 0.36332 0.0
C833 C 0.60112 0.06751 0.37422 0.0
C834 C 0.63037 0.12373 0.37724 0.0
C835 C 0.64727 0.11336 0.40219 0.0
C836 C 0.64214 0.0792 0.41212 0.0
C837 C 0.61928 0.0566 0.39835 0.0
C838 C 0.67945 0.16746 0.46371 0.0
C839 C 0.69798 0.19396 0.44986 0.0
C840 C 0.6644 0.14021 0.44835 0.0
C841 C 0.66783 0.13893 0.41889 0.0
C842 C 0.68868 0.16411 0.40545 0.0
C843 C 0.70353 0.19138 0.42078 0.0
H844 H 0.63477 0.84841 0.08359 0.0
H845 H 0.71982 0.86843 0.14092 0.0
H846 H 0.5969 0.88567 0.11167 0.0
H847 H 0.68231 0.90642 0.16856 0.0
H848 H 0.58881 0.92422 0.23017 0.0
H849 H 0.63414 0.89917 0.20021 0.0
H850 H 0.58389 0.94357 0.12715 0.0
H851 H 0.53821 0.96753 0.15719 0.0
C852 C 0.64558 0.86131 0.10186 0.0
C853 C 0.6802 0.85522 0.11011 0.0
C854 C 0.62393 0.88286 0.11793 0.0
C855 C 0.63649 0.89899 0.14253 0.0
C856 C 0.67159 0.894 0.15005 0.0
C857 C 0.69315 0.87234 0.13407 0.0
C858 C 0.58822 0.92945 0.20781 0.0
C859 C 0.56017 0.94769 0.19591 0.0
C860 C 0.61408 0.91507 0.19057 0.0
C861 C 0.61238 0.91886 0.16114 0.0
C862 C 0.5856 0.93944 0.14961 0.0
C863 C 0.55969 0.95353 0.16679 0.0
H864 H 0.7946 0.21636 0.13426 0.0
H865 H 0.8308 0.16076 0.06111 0.0
H866 H 0.81955 0.1715 0.16457 0.0
H867 H 0.85566 0.11544 0.0916 0.0
H868 H 0.92008 0.12066 0.20208 0.0
H869 H 0.88253 0.15839 0.17402 0.0
H870 H 0.84404 0.0686 0.12883 0.0
H871 H 0.88155 0.03062 0.15714 0.0
C872 C 0.8074 0.19417 0.12465 0.0
C873 C 0.81124 0.19235 0.09531 0.0
C874 C 0.82175 0.16854 0.14203 0.0
C875 C 0.84009 0.14026 0.13052 0.0
C876 C 0.84161 0.13692 0.10109 0.0
C877 C 0.82732 0.16279 0.08362 0.0
C878 C 0.90317 0.10885 0.18652 0.0
C879 C 0.90382 0.07264 0.1819 0.0
C880 C 0.88156 0.13046 0.17047 0.0
C881 C 0.86034 0.11647 0.14914 0.0
C882 C 0.86024 0.08014 0.14499 0.0
C883 C 0.88152 0.0584 0.16137 0.0
H884 H 0.58706 0.07595 0.79954 0.0
H885 H 0.52636 0.05011 0.87298 0.0
H886 H 0.63489 0.09563 0.8296 0.0
H887 H 0.57421 0.06911 0.90314 0.0
H888 H 0.64282 0.15711 0.94243 0.0
H889 H 0.59868 0.12482 0.916 0.0
H890 H 0.67938 0.08137 0.86321 0.0
H891 H 0.72317 0.11415 0.88916 0.0
C892 C 0.58442 0.07348 0.8221 0.0
C893 C 0.55298 0.06175 0.83392 0.0
C894 C 0.61177 0.08481 0.83941 0.0
C895 C 0.60826 0.08445 0.8689 0.0
C896 C 0.57756 0.07052 0.88059 0.0
C897 C 0.55027 0.05936 0.86332 0.0
C898 C 0.65114 0.14011 0.92557 0.0
C899 C 0.68643 0.13847 0.91776 0.0
C900 C 0.62586 0.12151 0.91038 0.0
C901 C 0.6354 0.10075 0.88717 0.0
C902 C 0.67097 0.09764 0.88051 0.0
C903 C 0.69612 0.11629 0.89556 0.0
H904 H 0.72014 0.81964 0.5945 0.0
H905 H 0.61278 0.80353 0.57018 0.0
H906 H 0.70233 0.8702 0.62307 0.0
H907 H 0.59514 0.85312 0.59886 0.0
H908 H 0.57307 0.89858 0.68472 0.0
H909 H 0.60131 0.85455 0.65576 0.0
H910 H 0.66537 0.93394 0.61715 0.0
H911 H 0.6368 0.97859 0.64598 0.0
C912 C 0.693 0.82753 0.59464 0.0
C913 C 0.66773 0.80757 0.58045 0.0
C914 C 0.68283 0.85617 0.61107 0.0
C915 C 0.64732 0.86484 0.61356 0.0
C916 C 0.62258 0.84646 0.59767 0.0
C917 C 0.63269 0.81827 0.58118 0.0
C918 C 0.59365 0.90674 0.67055 0.0
C919 C 0.60231 0.9422 0.6674 0.0
C920 C 0.60969 0.88151 0.65388 0.0
C921 C 0.63503 0.89108 0.634 0.0
C922 C 0.64579 0.92605 0.63231 0.0
C923 C 0.62941 0.95149 0.64881 0.0
H924 H 0.94483 0.83775 0.31401 0.0
H925 H 0.92187 0.94155 0.34361 0.0
H926 H 0.90707 0.81303 0.35023 0.0
H927 H 0.88391 0.9168 0.38024 0.0
H928 H 0.79979 0.84938 0.43038 0.0
H929 H 0.82949 0.87929 0.39159 0.0
H930 H 0.91844 0.8115 0.40224 0.0
H931 H 0.88915 0.78179 0.44077 0.0
C932 C 0.93066 0.85529 0.32772 0.0
C933 C 0.9361 0.8915 0.32602 0.0
C934 C 0.90947 0.84117 0.3487 0.0
C935 C 0.89325 0.86295 0.3685 0.0
C936 C 0.89619 0.89939 0.36531 0.0
C937 C 0.91761 0.91358 0.34424 0.0
C938 C 0.82595 0.8413 0.42477 0.0
C939 C 0.84201 0.81306 0.43868 0.0
C940 C 0.84286 0.85837 0.40249 0.0
C941 C 0.87595 0.84724 0.3935 0.0
C942 C 0.89259 0.82016 0.40827 0.0
C943 C 0.87593 0.80338 0.43062 0.0
H944 H 0.5918 0.70927 0.56951 0.0
H945 H 0.68153 0.6477 0.5926 0.0
H946 H 0.55395 0.66981 0.59543 0.0
H947 H 0.64324 0.6069 0.61804 0.0
H948 H 0.57036 0.56925 0.68948 0.0
H949 H 0.6087 0.60647 0.66118 0.0
H950 H 0.52874 0.61354 0.59747 0.0
H951 H 0.49029 0.57743 0.62608 0.0
C952 C 0.60332 0.68671 0.57966 0.0
C953 C 0.63967 0.6817 0.57912 0.0
C954 C 0.58157 0.66395 0.59451 0.0
C955 C 0.59545 0.63527 0.60921 0.0
C956 C 0.63171 0.62912 0.60746 0.0
C957 C 0.65361 0.6521 0.59251 0.0
C958 C 0.56081 0.57927 0.66965 0.0
C959 C 0.52731 0.57024 0.65997 0.0
C960 C 0.58299 0.60018 0.6532 0.0
C961 C 0.57208 0.61279 0.62681 0.0
C962 C 0.53809 0.6046 0.61769 0.0
C963 C 0.51599 0.5838 0.6341 0.0
H964 H 0.56296 0.38076 0.81467 0.0
H965 H 0.57686 0.45931 0.87837 0.0
H966 H 0.60908 0.34537 0.83638 0.0
H967 H 0.62255 0.42422 0.90028 0.0
H968 H 0.72059 0.36284 0.92226 0.0
H969 H 0.68085 0.40004 0.89581 0.0
H970 H 0.61399 0.31127 0.8801 0.0
H971 H 0.6541 0.27382 0.90626 0.0
C972 C 0.57673 0.39089 0.83278 0.0
C973 C 0.56691 0.42294 0.84462 0.0
C974 C 0.60269 0.37045 0.84551 0.0
C975 C 0.61933 0.38177 0.87027 0.0
C976 C 0.6106 0.41477 0.88114 0.0
C977 C 0.58455 0.43499 0.86855 0.0
C978 C 0.69732 0.35121 0.91332 0.0
C979 C 0.69046 0.31531 0.91659 0.0
C980 C 0.67452 0.3726 0.89811 0.0
C981 C 0.64426 0.35869 0.88566 0.0
C982 C 0.63733 0.32278 0.889 0.0
C983 C 0.66011 0.30137 0.90431 0.0
H984 H 0.87327 0.46263 0.17891 0.0
H985 H 0.96543 0.42102 0.13909 0.0
H986 H 0.8368 0.42416 0.1503 0.0
H987 H 0.92916 0.38215 0.11099 0.0
H988 H 0.85541 0.33244 0.04838 0.0
H989 H 0.88659 0.37971 0.07264 0.0
H990 H 0.82345 0.36218 0.14646 0.0
H991 H 0.79247 0.31545 0.12214 0.0
C992 C 0.8858 0.44545 0.164 0.0
C993 C 0.92239 0.44513 0.16139 0.0
C994 C 0.86485 0.42317 0.14765 0.0
C995 C 0.87989 0.40002 0.12809 0.0
C996 C 0.91648 0.39992 0.12541 0.0
C997 C 0.93738 0.422 0.14185 0.0
C998 C 0.84758 0.33951 0.06947 0.0
C999 C 0.82134 0.3204 0.08328 0.0
C1000 C 0.86574 0.36624 0.08357 0.0
C1001 C 0.85789 0.37466 0.11173 0.0
C1002 C 0.83017 0.3568 0.12482 0.0
C1003 C 0.81233 0.32997 0.11085 0.0
H1004 H 0.84454 0.73546 0.37543 0.0
H1005 H 0.82424 0.65113 0.4335 0.0
H1006 H 0.88085 0.69694 0.34724 0.0
H1007 H 0.8615 0.61261 0.40564 0.0
H1008 H 0.90159 0.54231 0.33586 0.0
H1009 H 0.86193 0.58227 0.36049 0.0
H1010 H 0.93506 0.66679 0.34713 0.0
H1011 H 0.97373 0.62715 0.32218 0.0
C1012 C 0.84832 0.70879 0.38242 0.0
C1013 C 0.83118 0.69625 0.40652 0.0
C1014 C 0.86919 0.68665 0.36625 0.0
C1015 C 0.87374 0.65142 0.37386 0.0
C1016 C 0.85793 0.63934 0.39878 0.0
C1017 C 0.83702 0.66157 0.41502 0.0
C1018 C 0.90841 0.5697 0.33743 0.0
C1019 C 0.94048 0.58179 0.32693 0.0
C1020 C 0.88611 0.59247 0.35197 0.0
C1021 C 0.89551 0.62771 0.35621 0.0
C1022 C 0.92674 0.64 0.34418 0.0
C1023 C 0.9489 0.61733 0.32977 0.0
H1024 H 0.62598 0.44017 0.34062 0.0
H1025 H 0.53627 0.38303 0.37086 0.0
H1026 H 0.66207 0.41328 0.37664 0.0
H1027 H 0.57273 0.35497 0.40642 0.0
H1028 H 0.63926 0.32525 0.48042 0.0
H1029 H 0.60502 0.36314 0.44931 0.0
H1030 H 0.68764 0.35872 0.38761 0.0
H1031 H 0.7217 0.32185 0.41902 0.0
C1032 C 0.61397 0.42163 0.35485 0.0
C1033 C 0.57819 0.41371 0.3527 0.0
C1034 C 0.63476 0.40608 0.37553 0.0
C1035 C 0.62048 0.38189 0.39464 0.0
C1036 C 0.58463 0.37387 0.39244 0.0
C1037 C 0.56376 0.38957 0.37174 0.0
C1038 C 0.65057 0.33378 0.46071 0.0
C1039 C 0.6834 0.32132 0.45234 0.0
C1040 C 0.63071 0.35486 0.4426 0.0
C1041 C 0.64323 0.36369 0.41565 0.0
C1042 C 0.67713 0.35291 0.40819 0.0
C1043 C 0.69687 0.33193 0.42627 0.0
H1044 H 0.93142 0.4022 0.73236 0.0
H1045 H 0.93777 0.47319 0.66225 0.0
H1046 H 0.8882 0.367 0.70689 0.0
H1047 H 0.89505 0.43823 0.63662 0.0
H1048 H 0.79845 0.38035 0.60578 0.0
H1049 H 0.83488 0.41822 0.63454 0.0
H1050 H 0.89057 0.3281 0.66567 0.0
H1051 H 0.8536 0.29 0.63717 0.0
C1052 C 0.92264 0.41081 0.71187 0.0
C1053 C 0.9373 0.44063 0.69938 0.0
C1054 C 0.89841 0.39043 0.69708 0.0
C1055 C 0.88841 0.39959 0.66958 0.0
C1056 C 0.90186 0.43054 0.65781 0.0
C1057 C 0.92618 0.4507 0.67249 0.0
C1058 C 0.8186 0.36855 0.61861 0.0
C1059 C 0.82323 0.3321 0.61903 0.0
C1060 C 0.83949 0.39032 0.63513 0.0
C1061 C 0.86553 0.37624 0.65257 0.0
C1062 C 0.87036 0.33978 0.65283 0.0
C1063 C 0.84949 0.31796 0.63621 0.0
H1064 H 0.79468 0.67251 0.93891 0.0
H1065 H 0.86951 0.75642 0.94484 0.0
H1066 H 0.83953 0.63506 0.91778 0.0
H1067 H 0.9134 0.72041 0.92267 0.0
H1068 H 0.99474 0.64374 0.89768 0.0
H1069 H 0.95124 0.67388 0.92529 0.0
H1070 H 0.86953 0.62881 0.87422 0.0
H1071 H 0.91342 0.59681 0.84741 0.0
C1072 C 0.8209 0.68263 0.93625 0.0
C1073 C 0.82864 0.71734 0.94344 0.0
C1074 C 0.84645 0.66148 0.92368 0.0
C1075 C 0.88015 0.67472 0.91806 0.0
C1076 C 0.88809 0.7089 0.92682 0.0
C1077 C 0.86282 0.72974 0.93949 0.0
C1078 C 0.96754 0.64036 0.8921 0.0
C1079 C 0.95769 0.61799 0.87009 0.0
C1080 C 0.94243 0.65776 0.90803 0.0
C1081 C 0.90664 0.65407 0.90207 0.0
C1082 C 0.89674 0.63195 0.87981 0.0
C1083 C 0.92196 0.61402 0.86408 0.0
H1084 H 0.58002 0.5948 0.21493 0.0
H1085 H 0.55499 0.53177 0.1428 0.0
H1086 H 0.61939 0.63044 0.1859 0.0
H1087 H 0.59388 0.56717 0.11376 0.0
H1088 H 0.68637 0.62451 0.07299 0.0
H1089 H 0.65371 0.5851 0.10372 0.0
H1090 H 0.61155 0.67373 0.14811 0.0
H1091 H 0.64433 0.7131 0.11757 0.0
C1092 C 0.58376 0.58795 0.19308 0.0
C1093 C 0.56469 0.56031 0.1812 0.0
C1094 C 0.60586 0.60867 0.1763 0.0
C1095 C 0.60959 0.60202 0.14731 0.0
C1096 C 0.59196 0.57305 0.13594 0.0
C1097 C 0.5697 0.55264 0.15261 0.0
C1098 C 0.66989 0.63565 0.08912 0.0
C1099 C 0.66789 0.67212 0.09256 0.0
C1100 C 0.65117 0.61299 0.10683 0.0
C1101 C 0.63013 0.6261 0.12865 0.0
C1102 C 0.62791 0.66258 0.1319 0.0
C1103 C 0.6464 0.68523 0.11407 0.0
H1104 H 0.26732 0.29233 0.39401 0.0
H1105 H 0.32654 0.33871 0.4613 0.0
H1106 H 0.29498 0.33189 0.3604 0.0
H1107 H 0.35431 0.37862 0.42763 0.0
H1108 H 0.40259 0.35327 0.31517 0.0
H1109 H 0.35887 0.32784 0.34636 0.0
H1110 H 0.34841 0.42657 0.38915 0.0
H1111 H 0.39192 0.45232 0.3575 0.0
C1112 C 0.28521 0.31204 0.40173 0.0
C1113 C 0.29486 0.3125 0.4302 0.0
C1114 C 0.30129 0.33443 0.38248 0.0
C1115 C 0.32724 0.35791 0.3913 0.0
C1116 C 0.33431 0.36085 0.42023 0.0
C1117 C 0.31829 0.3382 0.43955 0.0
C1118 C 0.39036 0.36979 0.33077 0.0
C1119 C 0.40064 0.40479 0.33379 0.0
C1120 C 0.36523 0.35527 0.34861 0.0
C1121 C 0.35019 0.37523 0.37023 0.0
C1122 C 0.35959 0.41058 0.37271 0.0
C1123 C 0.38429 0.42534 0.35444 0.0
H1124 H 0.41588 0.56544 0.22438 0.0
H1125 H 0.45035 0.52346 0.14513 0.0
H1126 H 0.36479 0.59055 0.20138 0.0
H1127 H 0.39885 0.54765 0.12208 0.0
H1128 H 0.34249 0.64715 0.08889 0.0
H1129 H 0.38379 0.60635 0.10964 0.0
H1130 H 0.31063 0.5843 0.17649 0.0
H1131 H 0.26971 0.62585 0.15609 0.0
C1132 C 0.4118 0.56056 0.20222 0.0
C1133 C 0.43709 0.54288 0.18644 0.0
C1134 C 0.38254 0.57492 0.18897 0.0
C1135 C 0.37798 0.5716 0.15974 0.0
C1136 C 0.40196 0.55139 0.14447 0.0
C1137 C 0.43128 0.53731 0.15767 0.0
C1138 C 0.33494 0.63309 0.1077 0.0
C1139 C 0.30305 0.64009 0.12104 0.0
C1140 C 0.35856 0.60951 0.11958 0.0
C1141 C 0.35069 0.59225 0.14495 0.0
C1142 C 0.31781 0.59763 0.15726 0.0
C1143 C 0.29428 0.62133 0.14546 0.0
H1144 H 0.15188 0.54765 0.85261 0.0
H1145 H 0.07954 0.63322 0.84194 0.0
H1146 H 0.17872 0.5783 0.89238 0.0
H1147 H 0.10588 0.66312 0.88161 0.0
H1148 H 0.12284 0.68474 0.9715 0.0
H1149 H 0.10477 0.64463 0.93447 0.0
H1150 H 0.21101 0.63928 0.90458 0.0
H1151 H 0.22915 0.67963 0.94192 0.0
C1152 C 0.1423 0.57331 0.85822 0.0
C1153 C 0.11335 0.58788 0.84426 0.0
C1154 C 0.15747 0.59062 0.88112 0.0
C1155 C 0.14367 0.62252 0.89044 0.0
C1156 C 0.1164 0.63809 0.87526 0.0
C1157 C 0.10155 0.62109 0.85237 0.0
C1158 C 0.14251 0.67394 0.95767 0.0
C1159 C 0.17729 0.68529 0.95938 0.0
C1160 C 0.13216 0.65132 0.93635 0.0
C1161 C 0.15641 0.63965 0.91633 0.0
C1162 C 0.19186 0.64808 0.91973 0.0
C1163 C 0.20225 0.67089 0.94116 0.0
H1164 H 0.14443 0.34616 0.58737 0.0
H1165 H 0.22537 0.36721 0.64817 0.0
H1166 H 0.10556 0.38613 0.61207 0.0
H1167 H 0.18702 0.40783 0.67238 0.0
H1168 H 0.09026 0.43172 0.72872 0.0
H1169 H 0.1366 0.40351 0.7018 0.0
H1170 H 0.09291 0.44513 0.62504 0.0
H1171 H 0.04618 0.47235 0.65207 0.0
C1172 C 0.15415 0.35986 0.60565 0.0
C1173 C 0.1878 0.35324 0.61596 0.0
C1174 C 0.13195 0.38293 0.61979 0.0
C1175 C 0.14306 0.40008 0.64441 0.0
C1176 C 0.17735 0.39462 0.65385 0.0
C1177 C 0.19939 0.37143 0.63985 0.0
C1178 C 0.09129 0.43561 0.7062 0.0
C1179 C 0.06472 0.45401 0.69242 0.0
C1180 C 0.11776 0.41942 0.69069 0.0
C1181 C 0.1182 0.42156 0.66113 0.0
C1182 C 0.09293 0.44222 0.64766 0.0
C1183 C 0.06641 0.45814 0.66314 0.0
H1184 H 0.27843 0.65967 0.58632 0.0
H1185 H 0.38566 0.69094 0.57402 0.0
H1186 H 0.29756 0.61469 0.61975 0.0
H1187 H 0.40464 0.64653 0.60734 0.0
H1188 H 0.42232 0.59944 0.69321 0.0
H1189 H 0.39825 0.64078 0.65937 0.0
H1190 H 0.33344 0.55932 0.62455 0.0
H1191 H 0.35743 0.51784 0.65851 0.0
C1192 C 0.30608 0.65636 0.59024 0.0
C1193 C 0.33052 0.67901 0.57779 0.0
C1194 C 0.31702 0.63083 0.60951 0.0
C1195 C 0.35253 0.62769 0.61669 0.0
C1196 C 0.37702 0.64895 0.60286 0.0
C1197 C 0.36617 0.67418 0.5836 0.0
C1198 C 0.40246 0.59045 0.67874 0.0
C1199 C 0.39188 0.55531 0.67854 0.0
C1200 C 0.38894 0.61405 0.65912 0.0
C1201 C 0.36433 0.60315 0.639 0.0
C1202 C 0.35235 0.56848 0.63977 0.0
C1203 C 0.36613 0.54476 0.65923 0.0
H1204 H 0.20862 0.61183 0.41919 0.0
H1205 H 0.11132 0.64771 0.4547 0.0
H1206 H 0.17684 0.56883 0.39109 0.0
H1207 H 0.07976 0.60462 0.42692 0.0
H1208 H 0.0921 0.55571 0.31613 0.0
H1209 H 0.13477 0.5781 0.34993 0.0
H1210 H 0.07076 0.54031 0.41818 0.0
H1211 H 0.0283 0.51806 0.38438 0.0
C1212 C 0.18057 0.60995 0.42157 0.0
C1213 C 0.16241 0.63332 0.43907 0.0
C1214 C 0.16241 0.58544 0.40535 0.0
C1215 C 0.12585 0.58337 0.40676 0.0
C1216 C 0.10798 0.60527 0.42559 0.0
C1217 C 0.12603 0.63011 0.44143 0.0
C1218 C 0.08811 0.55072 0.3383 0.0
C1219 C 0.05697 0.53535 0.34772 0.0
C1220 C 0.1124 0.56368 0.35769 0.0
C1221 C 0.1057 0.56153 0.38671 0.0
C1222 C 0.07632 0.5428 0.39597 0.0
C1223 C 0.05222 0.52978 0.37665 0.0
H1224 H 0.12297 0.46383 0.13598 0.0
H1225 H 0.08072 0.38564 0.19203 0.0
H1226 H 0.15644 0.4191 0.11174 0.0
H1227 H 0.11353 0.34066 0.16731 0.0
H1228 H 0.19215 0.2684 0.12956 0.0
H1229 H 0.17021 0.31746 0.15692 0.0
H1230 H 0.1443 0.37178 0.08006 0.0
H1231 H 0.16709 0.32282 0.05279 0.0
C1232 C 0.12101 0.43709 0.14328 0.0
C1233 C 0.09901 0.42823 0.16585 0.0
C1234 C 0.14006 0.41141 0.12923 0.0
C1235 C 0.13749 0.37621 0.13736 0.0
C1236 C 0.11648 0.36756 0.16065 0.0
C1237 C 0.09753 0.39331 0.1748 0.0
C1238 C 0.1822 0.2911 0.11857 0.0
C1239 C 0.18101 0.29178 0.08909 0.0
C1240 C 0.16943 0.3191 0.13422 0.0
C1241 C 0.15499 0.34837 0.12074 0.0
C1242 C 0.15549 0.34978 0.09117 0.0
C1243 C 0.16852 0.32178 0.07549 0.0
H1244 H 0.47379 0.46402 0.90453 0.0
H1245 H 0.40786 0.42708 0.83739 0.0
H1246 H 0.43319 0.44 0.93906 0.0
H1247 H 0.36707 0.40297 0.87196 0.0
H1248 H 0.39299 0.33306 0.97662 0.0
H1249 H 0.42393 0.3766 0.94877 0.0
H1250 H 0.32629 0.41141 0.91321 0.0
H1251 H 0.29515 0.36787 0.94125 0.0
C1252 C 0.45003 0.45162 0.89721 0.0
C1253 C 0.44413 0.44694 0.86832 0.0
C1254 C 0.42691 0.43776 0.91696 0.0
C1255 C 0.3973 0.41906 0.90823 0.0
C1256 C 0.38962 0.41736 0.87934 0.0
C1257 C 0.4129 0.4312 0.85952 0.0
C1258 C 0.378 0.35061 0.96347 0.0
C1259 C 0.34168 0.34681 0.96104 0.0
C1260 C 0.39571 0.37568 0.94754 0.0
C1261 C 0.37753 0.39728 0.92862 0.0
C1262 C 0.34098 0.39494 0.92744 0.0
C1263 C 0.32317 0.37014 0.94368 0.0
H1264 H 0.27839 0.92535 0.11501 0.0
H1265 H 0.16975 0.93195 0.09198 0.0
H1266 H 0.26717 0.96127 0.15616 0.0
H1267 H 0.15933 0.97086 0.13128 0.0
H1268 H 0.16857 0.89848 0.21323 0.0
H1269 H 0.21712 0.91397 0.18281 0.0
H1270 H 0.17794 0.01921 0.17623 0.0
H1271 H 0.13101 0.00449 0.20873 0.0
C1272 C 0.25272 0.93674 0.11747 0.0
C1273 C 0.22446 0.92477 0.10127 0.0
C1274 C 0.24649 0.95769 0.14091 0.0
C1275 C 0.21226 0.96788 0.14724 0.0
C1276 C 0.18598 0.96302 0.12696 0.0
C1277 C 0.1918 0.9406 0.10442 0.0
C1278 C 0.17202 0.92559 0.20722 0.0
C1279 C 0.14583 0.95007 0.21265 0.0
C1280 C 0.19991 0.93463 0.18986 0.0
C1281 C 0.20055 0.96757 0.17667 0.0
C1282 C 0.17795 0.99373 0.18617 0.0
C1283 C 0.15095 0.9851 0.20465 0.0
H1284 H 0.38436 0.87912 0.37205 0.0
H1285 H 0.36254 0.98954 0.37257 0.0
H1286 H 0.37495 0.87644 0.42235 0.0
H1287 H 0.3521 0.98704 0.42369 0.0
H1288 H 0.26625 0.9055 0.47022 0.0
H1289 H 0.29978 0.95047 0.44661 0.0
H1290 H 0.39506 0.89985 0.4722 0.0
H1291 H 0.36149 0.85445 0.49517 0.0
C1292 C 0.37806 0.90293 0.38324 0.0
C1293 C 0.37421 0.93447 0.36887 0.0
C1294 C 0.37329 0.90167 0.41211 0.0
C1295 C 0.36373 0.93184 0.42716 0.0
C1296 C 0.36029 0.9637 0.4127 0.0
C1297 C 0.3658 0.96505 0.38362 0.0
C1298 C 0.29436 0.90549 0.47277 0.0
C1299 C 0.31155 0.87562 0.48276 0.0
C1300 C 0.31372 0.93147 0.45921 0.0
C1301 C 0.34987 0.92697 0.45587 0.0
C1302 C 0.36708 0.90315 0.47359 0.0
C1303 C 0.34778 0.87688 0.48672 0.0
H1304 H 0.22707 0.10564 0.57023 0.0
H1305 H 0.3347 0.07637 0.55846 0.0
H1306 H 0.22269 0.06525 0.6097 0.0
H1307 H 0.32951 0.03412 0.59636 0.0
H1308 H 0.33029 0.98534 0.67453 0.0
H1309 H 0.29079 0.98653 0.6343 0.0
H1310 H 0.27707 0.09747 0.64558 0.0
H1311 H 0.31932 0.09678 0.68367 0.0
C1312 C 0.24888 0.08846 0.57452 0.0
C1313 C 0.28159 0.09468 0.56204 0.0
C1314 C 0.24624 0.06528 0.59711 0.0
C1315 C 0.27597 0.0474 0.60639 0.0
C1316 C 0.30619 0.04778 0.5896 0.0
C1317 C 0.30929 0.072 0.56784 0.0
C1318 C 0.3173 0.00961 0.66933 0.0
C1319 C 0.32848 0.04119 0.68138 0.0
C1320 C 0.29447 0.01014 0.64646 0.0
C1321 C 0.28144 0.0421 0.63668 0.0
C1322 C 0.2868 0.07243 0.65279 0.0
C1323 C 0.31102 0.07216 0.67464 0.0
H1324 H 0.218 0.09963 0.94946 0.0
H1325 H 0.30299 0.13359 0.89647 0.0
H1326 H 0.20468 0.05299 0.91621 0.0
H1327 H 0.28824 0.08826 0.86235 0.0
H1328 H 0.1643 0.07475 0.81842 0.0
H1329 H 0.21494 0.09846 0.84302 0.0
H1330 H 0.23446 0.99747 0.88009 0.0
H1331 H 0.1849 0.97325 0.85422 0.0
C1332 C 0.23473 0.09605 0.93135 0.0
C1333 C 0.26133 0.11998 0.92538 0.0
C1334 C 0.2273 0.06939 0.91241 0.0
C1335 C 0.24561 0.06724 0.8869 0.0
C1336 C 0.27427 0.08919 0.88211 0.0
C1337 C 0.28255 0.11508 0.9016 0.0
C1338 C 0.18085 0.0572 0.83031 0.0
C1339 C 0.17094 0.02239 0.83462 0.0
C1340 C 0.20984 0.07064 0.84429 0.0
C1341 C 0.22824 0.04964 0.86342 0.0
C1342 C 0.22081 0.01386 0.86513 0.0
C1343 C 0.1925 0.00012 0.85037 0.0
H1344 H 0.01263 0.10215 0.88308 0.0
H1345 H 0.91951 0.05313 0.85016 0.0
H1346 H 0.97618 0.1433 0.90944 0.0
H1347 H 0.88366 0.09393 0.87612 0.0
H1348 H 0.82728 0.14 0.94802 0.0
H1349 H 0.87045 0.10215 0.92635 0.0
H1350 H 0.93218 0.19222 0.90336 0.0
H1351 H 0.88903 0.23037 0.9255 0.0
C1352 C 0.98452 0.10044 0.88111 0.0
C1353 C 0.96903 0.07407 0.86472 0.0
C1354 C 0.96368 0.12393 0.89627 0.0
C1355 C 0.92706 0.1213 0.89537 0.0
C1356 C 0.91178 0.096 0.87793 0.0
C1357 C 0.93243 0.07274 0.86284 0.0
C1358 C 0.85036 0.15178 0.93886 0.0
C1359 C 0.85445 0.18823 0.93817 0.0
C1360 C 0.87499 0.13009 0.92624 0.0
C1361 C 0.90428 0.14428 0.91254 0.0
C1362 C 0.90982 0.18055 0.91368 0.0
C1363 C 0.8851 0.20237 0.92641 0.0
H1364 H 0.67094 0.17192 0.58763 0.0
H1365 H 0.62052 0.26404 0.62055 0.0
H1366 H 0.62546 0.13554 0.60801 0.0
H1367 H 0.5746 0.22712 0.64118 0.0
H1368 H 0.48753 0.13505 0.65233 0.0
H1369 H 0.52507 0.17936 0.63006 0.0
H1370 H 0.61624 0.12525 0.66063 0.0
H1371 H 0.57938 0.08157 0.68271 0.0
C1372 C 0.64975 0.18449 0.59878 0.0
C1373 C 0.64961 0.22082 0.60281 0.0
C1374 C 0.62378 0.16361 0.61057 0.0
C1375 C 0.59701 0.17847 0.62674 0.0
C1376 C 0.59508 0.21503 0.62891 0.0
C1377 C 0.62128 0.23612 0.61702 0.0
C1378 C 0.51556 0.13315 0.65479 0.0
C1379 C 0.53049 0.10451 0.66895 0.0
C1380 C 0.53699 0.1584 0.64196 0.0
C1381 C 0.57352 0.15517 0.64305 0.0
C1382 C 0.58817 0.12789 0.65884 0.0
C1383 C 0.56698 0.10294 0.67161 0.0
H1384 H 0.6448 0.74396 0.38142 0.0
H1385 H 0.66958 0.82552 0.44091 0.0
H1386 H 0.60414 0.78353 0.35756 0.0
H1387 H 0.62938 0.86461 0.41704 0.0
H1388 H 0.59676 0.93705 0.34778 0.0
H1389 H 0.63335 0.89166 0.36776 0.0
H1390 H 0.54621 0.8201 0.36724 0.0
H1391 H 0.50894 0.86599 0.34718 0.0
C1392 C 0.64129 0.77008 0.38963 0.0
C1393 C 0.6607 0.78166 0.41296 0.0
C1394 C 0.61801 0.79265 0.37597 0.0
C1395 C 0.61408 0.82721 0.38523 0.0
C1396 C 0.63239 0.83825 0.40918 0.0
C1397 C 0.65531 0.81574 0.42293 0.0
C1398 C 0.58533 0.91156 0.35152 0.0
C1399 C 0.54976 0.9053 0.34624 0.0
C1400 C 0.60632 0.88562 0.3631 0.0
C1401 C 0.5924 0.85266 0.36956 0.0
C1402 C 0.55749 0.8454 0.36253 0.0
C1403 C 0.53624 0.87161 0.35101 0.0
H1404 H 0.96472 0.91554 0.12086 0.0
H1405 H 0.95407 0.83852 0.18648 0.0
H1406 H 0.93054 0.87913 0.08922 0.0
H1407 H 0.91886 0.80189 0.15478 0.0
H1408 H 0.86531 0.73859 0.08467 0.0
H1409 H 0.91398 0.76741 0.10902 0.0
H1410 H 0.86747 0.86782 0.09152 0.0
H1411 H 0.81931 0.83923 0.06753 0.0
C1412 C 0.95552 0.89038 0.12829 0.0
C1413 C 0.96168 0.87985 0.1561 0.0
C1414 C 0.93584 0.8696 0.11022 0.0
C1415 C 0.92146 0.83791 0.11961 0.0
C1416 C 0.92971 0.82612 0.14689 0.0
C1417 C 0.94977 0.84701 0.16505 0.0
C1418 C 0.86616 0.76686 0.08535 0.0
C1419 C 0.83864 0.78673 0.07406 0.0
C1420 C 0.89376 0.7833 0.09958 0.0
C1421 C 0.89459 0.81988 0.10226 0.0
C1422 C 0.86794 0.83964 0.08959 0.0
C1423 C 0.84026 0.82327 0.07583 0.0
H1424 H 0.59126 0.54098 0.56912 0.0
H1425 H 0.62061 0.51586 0.65421 0.0
H1426 H 0.65115 0.53133 0.55394 0.0
H1427 H 0.67931 0.50481 0.63931 0.0
H1428 H 0.74286 0.42429 0.61755 0.0
H1429 H 0.72896 0.48631 0.6195 0.0
H1430 H 0.66282 0.47383 0.54635 0.0
H1431 H 0.67943 0.4132 0.54339 0.0
C1432 C 0.61073 0.53438 0.58473 0.0
C1433 C 0.60101 0.52596 0.61233 0.0
C1434 C 0.64513 0.52883 0.57606 0.0
C1435 C 0.66911 0.51327 0.59469 0.0
C1436 C 0.66126 0.51432 0.62362 0.0
C1437 C 0.62714 0.52025 0.63235 0.0
C1438 C 0.72613 0.4354 0.60152 0.0
C1439 C 0.71051 0.41403 0.58122 0.0
C1440 C 0.71819 0.47094 0.60252 0.0
C1441 C 0.6926 0.48488 0.58448 0.0
C1442 C 0.68178 0.4644 0.56137 0.0
C1443 C 0.69081 0.4292 0.55976 0.0
H1444 H 0.85503 0.37404 0.90086 0.0
H1445 H 0.8033 0.40952 0.97633 0.0
H1446 H 0.87785 0.43172 0.89305 0.0
H1447 H 0.82598 0.46856 0.96804 0.0
H1448 H 0.9321 0.53487 0.96297 0.0
H1449 H 0.88408 0.49418 0.97058 0.0
H1450 H 0.86536 0.49098 0.88106 0.0
H1451 H 0.91505 0.5298 0.87353 0.0
C1452 C 0.84815 0.39434 0.91567 0.0
C1453 C 0.82771 0.38715 0.9394 0.0
C1454 C 0.86078 0.42773 0.9109 0.0
C1455 C 0.85321 0.45495 0.92967 0.0
C1456 C 0.8321 0.44807 0.95319 0.0
C1457 C 0.81937 0.41433 0.95802 0.0
C1458 C 0.9169 0.52626 0.94508 0.0
C1459 C 0.92763 0.5341 0.91766 0.0
C1460 C 0.88921 0.50321 0.94941 0.0
C1461 C 0.87184 0.48847 0.92629 0.0
C1462 C 0.87918 0.50105 0.89917 0.0
C1463 C 0.90749 0.52318 0.89481 0.0
H1464 H 0.87031 0.52451 0.18305 0.0
H1465 H 0.89204 0.63198 0.16278 0.0
H1466 H 0.85584 0.51277 0.13355 0.0
H1467 H 0.87758 0.62099 0.11389 0.0
H1468 H 0.85503 0.61696 0.03605 0.0
H1469 H 0.89307 0.58717 0.06918 0.0
H1470 H 0.80328 0.53764 0.10689 0.0
H1471 H 0.76558 0.56631 0.07314 0.0
C1472 C 0.87292 0.54518 0.1677 0.0
C1473 C 0.88275 0.57883 0.17614 0.0
C1474 C 0.86478 0.53855 0.13957 0.0
C1475 C 0.86661 0.56563 0.11969 0.0
C1476 C 0.8771 0.5992 0.12843 0.0
C1477 C 0.88469 0.6058 0.15646 0.0
C1478 C 0.84378 0.59754 0.04996 0.0
C1479 C 0.80745 0.59512 0.05318 0.0
C1480 C 0.86556 0.58055 0.06903 0.0
C1481 C 0.85072 0.56206 0.09158 0.0
C1482 C 0.81531 0.55259 0.09014 0.0
C1483 C 0.79358 0.56909 0.0707 0.0
H1484 H 0.66914 0.55075 0.28439 0.0
H1485 H 0.67536 0.48448 0.35748 0.0
H1486 H 0.72975 0.56679 0.29014 0.0
H1487 H 0.73724 0.49808 0.36225 0.0
H1488 H 0.76916 0.6067 0.39837 0.0
H1489 H 0.75298 0.54919 0.38315 0.0
H1490 H 0.78883 0.57338 0.29915 0.0
H1491 H 0.80402 0.63205 0.31462 0.0
C1492 C 0.68406 0.53856 0.30105 0.0
C1493 C 0.66752 0.51806 0.3214 0.0
C1494 C 0.7192 0.54725 0.30423 0.0
C1495 C 0.73823 0.53522 0.32774 0.0
C1496 C 0.72298 0.50932 0.34482 0.0
C1497 C 0.68753 0.50163 0.34221 0.0
C1498 C 0.77466 0.59937 0.37685 0.0
C1499 C 0.78503 0.62443 0.35711 0.0
C1500 C 0.76577 0.56594 0.36799 0.0
C1501 C 0.7667 0.55761 0.33917 0.0
C1502 C 0.78555 0.57988 0.32111 0.0
C1503 C 0.79423 0.61356 0.32996 0.0
H1504 H 0.38677 0.73254 0.41627 0.0
H1505 H 0.32501 0.63905 0.42771 0.0
H1506 H 0.43162 0.69796 0.39199 0.0
H1507 H 0.36931 0.60508 0.40381 0.0
H1508 H 0.42457 0.56322 0.32925 0.0
H1509 H 0.38688 0.6045 0.35319 0.0
H1510 H 0.47557 0.6461 0.39797 0.0
H1511 H 0.51385 0.60444 0.37368 0.0
C1512 C 0.38305 0.70462 0.41413 0.0
C1513 C 0.35207 0.68866 0.42366 0.0
C1514 C 0.40867 0.68488 0.40016 0.0
C1515 C 0.40359 0.64896 0.39541 0.0
C1516 C 0.3736 0.63286 0.40646 0.0
C1517 C 0.34825 0.65238 0.42035 0.0
C1518 C 0.43629 0.58147 0.34385 0.0
C1519 C 0.4722 0.58016 0.3498 0.0
C1520 C 0.4146 0.60503 0.35771 0.0
C1521 C 0.42811 0.62797 0.37799 0.0
C1522 C 0.46441 0.6286 0.38254 0.0
C1523 C 0.48631 0.60483 0.36856 0.0
H1524 H 0.10252 0.57056 0.19617 0.0
H1525 H 0.00998 0.63481 0.19833 0.0
H1526 H 0.13379 0.61671 0.17166 0.0
H1527 H 0.04165 0.68141 0.17347 0.0
H1528 H 0.13421 0.76327 0.14933 0.0
H1529 H 0.09541 0.72397 0.17586 0.0
H1530 H 0.12582 0.63845 0.12228 0.0
H1531 H 0.16432 0.67718 0.09619 0.0
C1532 C 0.08901 0.59483 0.19188 0.0
C1533 C 0.0537 0.59887 0.19908 0.0
C1534 C 0.10686 0.62119 0.17758 0.0
C1535 C 0.08993 0.65237 0.17002 0.0
C1536 C 0.05531 0.65759 0.17891 0.0
C1537 C 0.03728 0.63098 0.19328 0.0
C1538 C 0.13171 0.73632 0.14275 0.0
C1539 C 0.15259 0.72323 0.12086 0.0
C1540 C 0.10969 0.7138 0.15804 0.0
C1541 C 0.10835 0.67794 0.15163 0.0
C1542 C 0.12704 0.66573 0.12825 0.0
C1543 C 0.14889 0.68802 0.11313 0.0
H1544 H 0.1496 0.28019 0.88422 0.0
H1545 H 0.17879 0.33988 0.95748 0.0
H1546 H 0.11544 0.32942 0.86703 0.0
H1547 H 0.14375 0.38862 0.94078 0.0
H1548 H 0.1227 0.4829 0.8863 0.0
H1549 H 0.15059 0.43071 0.9044 0.0
H1550 H 0.06599 0.36772 0.87206 0.0
H1551 H 0.03837 0.42033 0.85311 0.0
C1552 C 0.148 0.30346 0.89705 0.0
C1553 C 0.16729 0.3062 0.9221 0.0
C1554 C 0.12836 0.33174 0.88716 0.0
C1555 C 0.12738 0.36331 0.9022 0.0
C1556 C 0.14474 0.3651 0.92821 0.0
C1557 C 0.1646 0.337 0.93795 0.0
C1558 C 0.11003 0.45794 0.88291 0.0
C1559 C 0.07822 0.45582 0.86832 0.0
C1560 C 0.12589 0.42796 0.89357 0.0
C1561 C 0.11028 0.39496 0.89019 0.0
C1562 C 0.07881 0.39268 0.875 0.0
C1563 C 0.06298 0.42281 0.86413 0.0
H1564 H 0.31971 0.34186 0.583 0.0
H1565 H 0.38197 0.25178 0.60484 0.0
H1566 H 0.3608 0.37961 0.60727 0.0
H1567 H 0.4236 0.29017 0.62915 0.0
H1568 H 0.49939 0.38542 0.65362 0.0
H1569 H 0.46633 0.34579 0.62293 0.0
H1570 H 0.37034 0.38051 0.66114 0.0
H1571 H 0.40292 0.4196 0.69165 0.0
C1572 C 0.34258 0.33012 0.59248 0.0
C1573 C 0.34725 0.29368 0.59233 0.0
C1574 C 0.36606 0.35182 0.60646 0.0
C1575 C 0.39496 0.33773 0.62054 0.0
C1576 C 0.40143 0.30166 0.61848 0.0
C1577 C 0.37768 0.27973 0.6045 0.0
C1578 C 0.47122 0.3845 0.65542 0.0
C1579 C 0.45377 0.40592 0.67488 0.0
C1580 C 0.4524 0.36174 0.63797 0.0
C1581 C 0.4158 0.36041 0.63947 0.0
C1582 C 0.39852 0.3814 0.65924 0.0
C1583 C 0.41725 0.40368 0.67684 0.0
loop_
_geom_bond_atom_site_label_1
_geom_bond_atom_site_label_2
_geom_bond_distance
_geom_bond_site_symmetry_2
_ccdc_geom_bond_type
O0 Tb1 2.292 1_565 S
O0 C3 1.256 . S
Tb1 O0 2.292 1_545 S
Tb1 O17 2.326 . S
Tb1 O19 2.500 . S
Tb1 O20 2.473 . S
Tb1 O23 2.324 1_455 S
Eu2 O6 2.292 . S
Eu2 C7 2.852 . S
Eu2 O18 2.324 1_655 S
Eu2 O22 2.326 . S
Eu2 O24 2.500 . S
Eu2 O25 2.473 1_655 S
C3 O0 1.256 . S
C3 O4 1.242 1_565 S
O4 C3 1.242 1_545 S
C5 O17 1.242 . S
C5 O18 1.258 . S
O6 Eu2 2.292 . S
O6 C8 1.255 . S
C7 Eu2 2.852 . S
C7 C11 1.503 . S
C7 O24 1.273 . S
C7 O25 1.257 1_655 S
C8 O6 1.255 . S
C8 O9 1.247 . S
O9 C8 1.247 . S
C10 O22 1.242 . S
C10 O23 1.258 . S
C11 C7 1.503 . S
C11 C12 1.379 1_655 S
C11 C16 1.392 . S
C12 C11 1.379 1_455 S
C12 C13 1.404 . S
C12 H26 0.929 . S
C13 C12 1.404 . S
C13 C14 1.389 1_455 S
C14 C13 1.389 1_655 S
C14 C15 1.399 . S
C14 H27 0.931 1_545 S
C15 C14 1.399 . S
C15 C16 1.390 . S
C16 C11 1.392 . S
C16 C15 1.390 . S
C16 H28 0.929 . S
O17 Tb1 2.326 . S
O17 C5 1.242 . S
O18 Eu2 2.324 1_455 S
O18 C5 1.258 . S
O19 Tb1 2.500 . S
O19 C21 1.273 . S
O20 Tb1 2.473 . S
O20 C21 1.257 . S
C21 O19 1.273 . S
C21 O20 1.257 . S
O22 Eu2 2.326 . S
O22 C10 1.242 . S
O23 Tb1 2.324 1_655 S
O23 C10 1.258 . S
O24 Eu2 2.500 . S
O24 C7 1.273 . S
O25 Eu2 2.473 1_455 S
O25 C7 1.257 1_455 S
H26 C12 0.929 . S
H27 C14 0.931 1_565 S
H28 C16 0.929 . S
O29 Tb30 2.292 . S
O29 C32 1.255 . S
Tb30 O29 2.292 . S
Tb30 O46 2.326 . S
Tb30 O48 2.500 . S
Tb30 O49 2.473 . S
Tb30 O52 2.324 . S
Eu31 O35 2.292 . S
Eu31 C36 2.852 . S
Eu31 O47 2.324 . S
Eu31 O51 2.326 . S
Eu31 O53 2.500 . S
Eu31 O54 2.473 . S
C32 O29 1.255 . S
C32 O33 1.247 . S
O33 C32 1.247 . S
C34 O46 1.242 . S
C34 O47 1.258 . S
O35 Eu31 2.292 . S
O35 C37 1.255 . S
C36 Eu31 2.852 . S
C36 C40 1.503 . S
C36 O53 1.273 . S
C36 O54 1.257 . S
C37 O35 1.255 . S
C37 O38 1.247 . S
O38 C37 1.247 . S
C39 O51 1.242 . S
C39 O52 1.258 . S
C40 C36 1.503 . S
C40 C41 1.379 . S
C40 C45 1.392 . S
C41 C40 1.379 . S
C41 C42 1.404 . S
C41 H55 0.929 . S
C42 C41 1.404 . S
C42 C43 1.389 . S
C43 C42 1.389 . S
C43 C44 1.399 . S
C43 H56 0.931 . S
C44 C43 1.399 . S
C44 C45 1.390 . S
C45 C40 1.392 . S
C45 C44 1.390 . S
C45 H57 0.929 . S
O46 Tb30 2.326 . S
O46 C34 1.242 . S
O47 Eu31 2.324 . S
O47 C34 1.258 . S
O48 Tb30 2.500 . S
O48 C50 1.273 . S
O49 Tb30 2.473 . S
O49 C50 1.257 . S
C50 O48 1.273 . S
C50 O49 1.257 . S
O51 Eu31 2.326 . S
O51 C39 1.242 . S
O52 Tb30 2.324 . S
O52 C39 1.258 . S
O53 Eu31 2.500 . S
O53 C36 1.273 . S
O54 Eu31 2.473 . S
O54 C36 1.257 . S
H55 C41 0.929 . S
H56 C43 0.931 . S
H57 C45 0.929 . S
O58 Tb59 2.292 1_545 S
O58 C61 1.256 . S
Tb59 O58 2.292 1_565 S
Tb59 O75 2.326 . S
Tb59 O77 2.500 . S
Tb59 O78 2.473 . S
Tb59 O81 2.324 . S
Eu60 O64 2.292 . S
Eu60 C65 2.852 . S
Eu60 O76 2.324 . S
Eu60 O80 2.326 . S
Eu60 O82 2.500 . S
Eu60 O83 2.473 . S
C61 O58 1.256 . S
C61 O62 1.242 1_545 S
O62 C61 1.242 1_565 S
C63 O75 1.242 . S
C63 O76 1.258 . S
O64 Eu60 2.292 . S
O64 C66 1.255 . S
C65 Eu60 2.852 . S
C65 C69 1.503 . S
C65 O82 1.273 . S
C65 O83 1.257 . S
C66 O64 1.255 . S
C66 O67 1.247 . S
O67 C66 1.247 . S
C68 O80 1.242 . S
C68 O81 1.258 . S
C69 C65 1.503 . S
C69 C70 1.379 . S
C69 C74 1.392 . S
C70 C69 1.379 . S
C70 C71 1.404 . S
C70 H84 0.929 . S
C71 C70 1.404 . S
C71 C72 1.389 . S
C72 C71 1.389 . S
C72 C73 1.399 . S
C72 H85 0.931 1_565 S
C73 C72 1.399 . S
C73 C74 1.390 . S
C74 C69 1.392 . S
C74 C73 1.390 . S
C74 H86 0.929 . S
O75 Tb59 2.326 . S
O75 C63 1.242 . S
O76 Eu60 2.324 . S
O76 C63 1.258 . S
O77 Tb59 2.500 . S
O77 C79 1.273 . S
O78 Tb59 2.473 . S
O78 C79 1.257 . S
C79 O77 1.273 . S
C79 O78 1.257 . S
O80 Eu60 2.326 . S
O80 C68 1.242 . S
O81 Tb59 2.324 . S
O81 C68 1.258 . S
O82 Eu60 2.500 . S
O82 C65 1.273 . S
O83 Eu60 2.473 . S
O83 C65 1.257 . S
H84 C70 0.929 . S
H85 C72 0.931 1_545 S
H86 C74 0.929 . S
O87 Tb88 2.292 . S
O87 C90 1.255 . S
Tb88 O87 2.292 . S
Tb88 O104 2.326 . S
Tb88 O106 2.500 . S
Tb88 O107 2.473 . S
Tb88 O110 2.324 . S
Eu89 O93 2.292 . S
Eu89 C94 2.852 . S
Eu89 O105 2.324 . S
Eu89 O109 2.326 . S
Eu89 O111 2.500 . S
Eu89 O112 2.473 . S
C90 O87 1.255 . S
C90 O91 1.247 . S
O91 C90 1.247 . S
C92 O104 1.242 . S
C92 O105 1.258 . S
O93 Eu89 2.292 . S
O93 C95 1.255 . S
C94 Eu89 2.852 . S
C94 C98 1.503 1_556 S
C94 O111 1.273 . S
C94 O112 1.257 . S
C95 O93 1.255 . S
C95 O96 1.247 . S
O96 C95 1.247 . S
C97 O109 1.242 . S
C97 O110 1.258 . S
C98 C94 1.503 1_554 S
C98 C99 1.379 . S
C98 C103 1.392 . S
C99 C98 1.379 . S
C99 C100 1.404 . S
C99 H113 0.929 . S
C100 C99 1.404 . S
C100 C101 1.389 . S
C101 C100 1.389 . S
C101 C102 1.399 . S
C101 H114 0.931 . S
C102 C101 1.399 . S
C102 C103 1.390 . S
C103 C98 1.392 . S
C103 C102 1.390 . S
C103 H115 0.929 . S
O104 Tb88 2.326 . S
O104 C92 1.242 . S
O105 Eu89 2.324 . S
O105 C92 1.258 . S
O106 Tb88 2.500 . S
O106 C108 1.273 . S
O107 Tb88 2.473 . S
O107 C108 1.257 . S
C108 O106 1.273 . S
C108 O107 1.257 . S
O109 Eu89 2.326 . S
O109 C97 1.242 . S
O110 Tb88 2.324 . S
O110 C97 1.258 . S
O111 Eu89 2.500 . S
O111 C94 1.273 . S
O112 Eu89 2.473 . S
O112 C94 1.257 . S
H113 C99 0.929 . S
H114 C101 0.931 . S
H115 C103 0.929 . S
O116 Tb117 2.292 1_545 S
O116 C119 1.256 . S
Tb117 O116 2.292 1_565 S
Tb117 O133 2.326 . S
Tb117 O135 2.500 . S
Tb117 O136 2.473 . S
Tb117 O139 2.324 1_455 S
Eu118 O122 2.292 . S
Eu118 C123 2.852 . S
Eu118 O134 2.324 1_655 S
Eu118 O138 2.326 . S
Eu118 O140 2.500 . S
Eu118 O141 2.473 1_655 S
C119 O116 1.256 . S
C119 O120 1.242 1_545 S
O120 C119 1.242 1_565 S
C121 O133 1.242 . S
C121 O134 1.258 . S
O122 Eu118 2.292 . S
O122 C124 1.255 . S
C123 Eu118 2.852 . S
C123 C127 1.503 . S
C123 O140 1.273 . S
C123 O141 1.257 1_655 S
C124 O122 1.255 . S
C124 O125 1.247 . S
O125 C124 1.247 . S
C126 O138 1.242 . S
C126 O139 1.258 . S
C127 C123 1.503 . S
C127 C128 1.379 1_655 S
C127 C132 1.392 . S
C128 C127 1.379 1_455 S
C128 C129 1.404 . S
C128 H142 0.929 . S
C129 C128 1.404 . S
C129 C130 1.389 1_455 S
C130 C129 1.389 1_655 S
C130 C131 1.399 . S
C130 H143 0.931 1_565 S
C131 C130 1.399 . S
C131 C132 1.390 . S
C132 C127 1.392 . S
C132 C131 1.390 . S
C132 H144 0.929 . S
O133 Tb117 2.326 . S
O133 C121 1.242 . S
O134 Eu118 2.324 1_455 S
O134 C121 1.258 . S
O135 Tb117 2.500 . S
O135 C137 1.273 . S
O136 Tb117 2.473 . S
O136 C137 1.257 . S
C137 O135 1.273 . S
C137 O136 1.257 . S
O138 Eu118 2.326 . S
O138 C126 1.242 . S
O139 Tb117 2.324 1_655 S
O139 C126 1.258 . S
O140 Eu118 2.500 . S
O140 C123 1.273 . S
O141 Eu118 2.473 1_455 S
O141 C123 1.257 1_455 S
H142 C128 0.929 . S
H143 C130 0.931 1_545 S
H144 C132 0.929 . S
O145 Tb146 2.292 . S
O145 C148 1.255 . S
Tb146 O145 2.292 . S
Tb146 O162 2.326 . S
Tb146 O164 2.500 . S
Tb146 O165 2.473 . S
Tb146 O168 2.324 . S
Eu147 O151 2.292 . S
Eu147 C152 2.852 . S
Eu147 O163 2.324 . S
Eu147 O167 2.326 . S
Eu147 O169 2.500 . S
Eu147 O170 2.473 . S
C148 O145 1.255 . S
C148 O149 1.247 . S
O149 C148 1.247 . S
C150 O162 1.242 . S
C150 O163 1.258 . S
O151 Eu147 2.292 . S
O151 C153 1.255 . S
C152 Eu147 2.852 . S
C152 C156 1.503 1_554 S
C152 O169 1.273 . S
C152 O170 1.257 . S
C153 O151 1.255 . S
C153 O154 1.247 . S
O154 C153 1.247 . S
C155 O167 1.242 . S
C155 O168 1.258 . S
C156 C152 1.503 1_556 S
C156 C157 1.379 . S
C156 C161 1.392 . S
C157 C156 1.379 . S
C157 C158 1.404 . S
C157 H171 0.929 . S
C158 C157 1.404 . S
C158 C159 1.389 . S
C159 C158 1.389 . S
C159 C160 1.399 . S
C159 H172 0.931 . S
C160 C159 1.399 . S
C160 C161 1.390 . S
C161 C156 1.392 . S
C161 C160 1.390 . S
C161 H173 0.929 . S
O162 Tb146 2.326 . S
O162 C150 1.242 . S
O163 Eu147 2.324 . S
O163 C150 1.258 . S
O164 Tb146 2.500 . S
O164 C166 1.273 . S
O165 Tb146 2.473 . S
O165 C166 1.257 . S
C166 O164 1.273 . S
C166 O165 1.257 . S
O167 Eu147 2.326 . S
O167 C155 1.242 . S
O168 Tb146 2.324 . S
O168 C155 1.258 . S
O169 Eu147 2.500 . S
O169 C152 1.273 . S
O170 Eu147 2.473 . S
O170 C152 1.257 . S
H171 C157 0.929 . S
H172 C159 0.931 . S
H173 C161 0.929 . S
O174 Tb175 2.292 1_565 S
O174 C177 1.256 . S
Tb175 O174 2.292 1_545 S
Tb175 O191 2.326 . S
Tb175 O193 2.500 . S
Tb175 O194 2.473 . S
Tb175 O197 2.324 . S
Eu176 O180 2.292 . S
Eu176 C181 2.852 . S
Eu176 O192 2.324 . S
Eu176 O196 2.326 . S
Eu176 O198 2.500 . S
Eu176 O199 2.473 . S
C177 O174 1.256 . S
C177 O178 1.242 1_565 S
O178 C177 1.242 1_545 S
C179 O191 1.242 . S
C179 O192 1.258 . S
O180 Eu176 2.292 . S
O180 C182 1.255 . S
C181 Eu176 2.852 . S
C181 C185 1.503 . S
C181 O198 1.273 . S
C181 O199 1.257 . S
C182 O180 1.255 . S
C182 O183 1.247 . S
O183 C182 1.247 . S
C184 O196 1.242 . S
C184 O197 1.258 . S
C185 C181 1.503 . S
C185 C186 1.379 . S
C185 C190 1.392 . S
C186 C185 1.379 . S
C186 C187 1.404 . S
C186 H200 0.929 . S
C187 C186 1.404 . S
C187 C188 1.389 . S
C188 C187 1.389 . S
C188 C189 1.399 . S
C188 H201 0.931 1_545 S
C189 C188 1.399 . S
C189 C190 1.390 . S
C190 C185 1.392 . S
C190 C189 1.390 . S
C190 H202 0.929 . S
O191 Tb175 2.326 . S
O191 C179 1.242 . S
O192 Eu176 2.324 . S
O192 C179 1.258 . S
O193 Tb175 2.500 . S
O193 C195 1.273 . S
O194 Tb175 2.473 . S
O194 C195 1.257 . S
C195 O193 1.273 . S
C195 O194 1.257 . S
O196 Eu176 2.326 . S
O196 C184 1.242 . S
O197 Tb175 2.324 . S
O197 C184 1.258 . S
O198 Eu176 2.500 . S
O198 C181 1.273 . S
O199 Eu176 2.473 . S
O199 C181 1.257 . S
H200 C186 0.929 . S
H201 C188 0.931 1_565 S
H202 C190 0.929 . S
O203 Tb204 2.292 . S
O203 C206 1.255 . S
Tb204 O203 2.292 . S
Tb204 O220 2.326 . S
Tb204 O222 2.500 . S
Tb204 O223 2.473 . S
Tb204 O226 2.324 . S
Eu205 O209 2.292 . S
Eu205 C210 2.852 . S
Eu205 O221 2.324 . S
Eu205 O225 2.326 . S
Eu205 O227 2.500 . S
Eu205 O228 2.473 . S
C206 O203 1.255 . S
C206 O207 1.247 . S
O207 C206 1.247 . S
C208 O220 1.242 . S
C208 O221 1.258 . S
O209 Eu205 2.292 . S
O209 C211 1.255 . S
C210 Eu205 2.852 . S
C210 C214 1.503 . S
C210 O227 1.273 . S
C210 O228 1.257 . S
C211 O209 1.255 . S
C211 O212 1.247 . S
O212 C211 1.247 . S
C213 O225 1.242 . S
C213 O226 1.258 . S
C214 C210 1.503 . S
C214 C215 1.379 . S
C214 C219 1.392 . S
C215 C214 1.379 . S
C215 C216 1.404 . S
C215 H229 0.929 . S
C216 C215 1.404 . S
C216 C217 1.389 . S
C217 C216 1.389 . S
C217 C218 1.399 . S
C217 H230 0.931 . S
C218 C217 1.399 . S
C218 C219 1.390 . S
C219 C214 1.392 . S
C219 C218 1.390 . S
C219 H231 0.929 . S
O220 Tb204 2.326 . S
O220 C208 1.242 . S
O221 Eu205 2.324 . S
O221 C208 1.258 . S
O222 Tb204 2.500 . S
O222 C224 1.273 . S
O223 Tb204 2.473 . S
O223 C224 1.257 . S
C224 O222 1.273 . S
C224 O223 1.257 . S
O225 Eu205 2.326 . S
O225 C213 1.242 . S
O226 Tb204 2.324 . S
O226 C213 1.258 . S
O227 Eu205 2.500 . S
O227 C210 1.273 . S
O228 Eu205 2.473 . S
O228 C210 1.257 . S
H229 C215 0.929 . S
H230 C217 0.931 . S
H231 C219 0.929 . S
O232 Tb233 2.292 . S
O232 C235 1.255 . S
Tb233 O232 2.292 . S
Tb233 O249 2.326 . S
Tb233 O251 2.500 . S
Tb233 O252 2.473 . S
Tb233 O255 2.324 . S
Eu234 O238 2.292 . S
Eu234 C239 2.852 . S
Eu234 O250 2.324 . S
Eu234 O254 2.326 . S
Eu234 O256 2.500 . S
Eu234 O257 2.473 . S
C235 O232 1.255 . S
C235 O236 1.247 . S
O236 C235 1.247 . S
C237 O249 1.242 . S
C237 O250 1.258 . S
O238 Eu234 2.292 . S
O238 C240 1.255 . S
C239 Eu234 2.852 . S
C239 C243 1.503 . S
C239 O256 1.273 . S
C239 O257 1.257 . S
C240 O238 1.255 . S
C240 O241 1.247 . S
O241 C240 1.247 . S
C242 O254 1.242 . S
C242 O255 1.258 . S
C243 C239 1.503 . S
C243 C244 1.379 . S
C243 C248 1.392 . S
C244 C243 1.379 . S
C244 C245 1.404 . S
C244 H258 0.929 . S
C245 C244 1.404 . S
C245 C246 1.389 . S
C246 C245 1.389 . S
C246 C247 1.399 . S
C246 H259 0.931 . S
C247 C246 1.399 . S
C247 C248 1.390 . S
C248 C243 1.392 . S
C248 C247 1.390 . S
C248 H260 0.929 . S
O249 Tb233 2.326 . S
O249 C237 1.242 . S
O250 Eu234 2.324 . S
O250 C237 1.258 . S
O251 Tb233 2.500 . S
O251 C253 1.273 . S
O252 Tb233 2.473 . S
O252 C253 1.257 . S
C253 O251 1.273 . S
C253 O252 1.257 . S
O254 Eu234 2.326 . S
O254 C242 1.242 . S
O255 Tb233 2.324 . S
O255 C242 1.258 . S
O256 Eu234 2.500 . S
O256 C239 1.273 . S
O257 Eu234 2.473 . S
O257 C239 1.257 . S
H258 C244 0.929 . S
H259 C246 0.931 . S
H260 C248 0.929 . S
O261 Tb262 2.292 . S
O261 C264 1.255 . S
Tb262 O261 2.292 . S
Tb262 O278 2.326 . S
Tb262 O280 2.500 . S
Tb262 O281 2.473 . S
Tb262 O284 2.324 . S
Eu263 O267 2.292 . S
Eu263 C268 2.852 . S
Eu263 O279 2.324 . S
Eu263 O283 2.326 . S
Eu263 O285 2.500 . S
Eu263 O286 2.473 . S
C264 O261 1.255 . S
C264 O265 1.247 . S
O265 C264 1.247 . S
C266 O278 1.242 . S
C266 O279 1.258 . S
O267 Eu263 2.292 . S
O267 C269 1.255 . S
C268 Eu263 2.852 . S
C268 C272 1.503 1_554 S
C268 O285 1.273 . S
C268 O286 1.257 . S
C269 O267 1.255 . S
C269 O270 1.247 . S
O270 C269 1.247 . S
C271 O283 1.242 . S
C271 O284 1.258 . S
C272 C268 1.503 1_556 S
C272 C273 1.379 . S
C272 C277 1.392 . S
C273 C272 1.379 . S
C273 C274 1.404 . S
C273 H287 0.929 . S
C274 C273 1.404 . S
C274 C275 1.389 . S
C275 C274 1.389 . S
C275 C276 1.399 . S
C275 H288 0.931 . S
C276 C275 1.399 . S
C276 C277 1.390 . S
C277 C272 1.392 . S
C277 C276 1.390 . S
C277 H289 0.929 . S
O278 Tb262 2.326 . S
O278 C266 1.242 . S
O279 Eu263 2.324 . S
O279 C266 1.258 . S
O280 Tb262 2.500 . S
O280 C282 1.273 . S
O281 Tb262 2.473 . S
O281 C282 1.257 . S
C282 O280 1.273 . S
C282 O281 1.257 . S
O283 Eu263 2.326 . S
O283 C271 1.242 . S
O284 Tb262 2.324 . S
O284 C271 1.258 . S
O285 Eu263 2.500 . S
O285 C268 1.273 . S
O286 Eu263 2.473 . S
O286 C268 1.257 . S
H287 C273 0.929 . S
H288 C275 0.931 . S
H289 C277 0.929 . S
O290 Tb291 2.292 . S
O290 C293 1.255 . S
Tb291 O290 2.292 . S
Tb291 O307 2.326 . S
Tb291 O309 2.500 . S
Tb291 O310 2.473 . S
Tb291 O313 2.324 . S
Eu292 O296 2.292 . S
Eu292 C297 2.852 . S
Eu292 O308 2.324 . S
Eu292 O312 2.326 . S
Eu292 O314 2.500 . S
Eu292 O315 2.473 . S
C293 O290 1.255 . S
C293 O294 1.247 . S
O294 C293 1.247 . S
C295 O307 1.242 . S
C295 O308 1.258 . S
O296 Eu292 2.292 . S
O296 C298 1.255 . S
C297 Eu292 2.852 . S
C297 C301 1.503 1_556 S
C297 O314 1.273 . S
C297 O315 1.257 . S
C298 O296 1.255 . S
C298 O299 1.247 . S
O299 C298 1.247 . S
C300 O312 1.242 . S
C300 O313 1.258 . S
C301 C297 1.503 1_554 S
C301 C302 1.379 . S
C301 C306 1.392 . S
C302 C301 1.379 . S
C302 C303 1.404 . S
C302 H316 0.929 . S
C303 C302 1.404 . S
C303 C304 1.389 . S
C304 C303 1.389 . S
C304 C305 1.399 . S
C304 H317 0.931 . S
C305 C304 1.399 . S
C305 C306 1.390 . S
C306 C301 1.392 . S
C306 C305 1.390 . S
C306 H318 0.929 . S
O307 Tb291 2.326 . S
O307 C295 1.242 . S
O308 Eu292 2.324 . S
O308 C295 1.258 . S
O309 Tb291 2.500 . S
O309 C311 1.273 . S
O310 Tb291 2.473 . S
O310 C311 1.257 . S
C311 O309 1.273 . S
C311 O310 1.257 . S
O312 Eu292 2.326 . S
O312 C300 1.242 . S
O313 Tb291 2.324 . S
O313 C300 1.258 . S
O314 Eu292 2.500 . S
O314 C297 1.273 . S
O315 Eu292 2.473 . S
O315 C297 1.257 . S
H316 C302 0.929 . S
H317 C304 0.931 . S
H318 C306 0.929 . S
O319 Tb320 2.292 . S
O319 C322 1.255 . S
Tb320 O319 2.292 . S
Tb320 O336 2.326 . S
Tb320 O338 2.500 . S
Tb320 O339 2.473 . S
Tb320 O342 2.324 . S
Eu321 O325 2.292 . S
Eu321 C326 2.852 . S
Eu321 O337 2.324 . S
Eu321 O341 2.326 . S
Eu321 O343 2.500 . S
Eu321 O344 2.473 . S
C322 O319 1.255 . S
C322 O323 1.247 . S
O323 C322 1.247 . S
C324 O336 1.242 . S
C324 O337 1.258 . S
O325 Eu321 2.292 . S
O325 C327 1.255 . S
C326 Eu321 2.852 . S
C326 C330 1.503 . S
C326 O343 1.273 . S
C326 O344 1.257 . S
C327 O325 1.255 . S
C327 O328 1.247 . S
O328 C327 1.247 . S
C329 O341 1.242 . S
C329 O342 1.258 . S
C330 C326 1.503 . S
C330 C331 1.379 . S
C330 C335 1.392 . S
C331 C330 1.379 . S
C331 C332 1.404 . S
C331 H345 0.929 . S
C332 C331 1.404 . S
C332 C333 1.389 . S
C333 C332 1.389 . S
C333 C334 1.399 . S
C333 H346 0.931 . S
C334 C333 1.399 . S
C334 C335 1.390 . S
C335 C330 1.392 . S
C335 C334 1.390 . S
C335 H347 0.929 . S
O336 Tb320 2.326 . S
O336 C324 1.242 . S
O337 Eu321 2.324 . S
O337 C324 1.258 . S
O338 Tb320 2.500 . S
O338 C340 1.273 . S
O339 Tb320 2.473 . S
O339 C340 1.257 . S
C340 O338 1.273 . S
C340 O339 1.257 . S
O341 Eu321 2.326 . S
O341 C329 1.242 . S
O342 Tb320 2.324 . S
O342 C329 1.258 . S
O343 Eu321 2.500 . S
O343 C326 1.273 . S
O344 Eu321 2.473 . S
O344 C326 1.257 . S
H345 C331 0.929 . S
H346 C333 0.931 . S
H347 C335 0.929 . S
O348 Tb349 2.292 . S
O348 C351 1.255 . S
Tb349 O348 2.292 . S
Tb349 O365 2.326 . S
Tb349 O367 2.500 . S
Tb349 O368 2.473 . S
Tb349 O371 2.324 . S
Eu350 O354 2.292 . S
Eu350 C355 2.852 . S
Eu350 O366 2.324 . S
Eu350 O370 2.326 . S
Eu350 O372 2.500 . S
Eu350 O373 2.473 . S
C351 O348 1.255 . S
C351 O352 1.247 . S
O352 C351 1.247 . S
C353 O365 1.242 . S
C353 O366 1.258 . S
O354 Eu350 2.292 . S
O354 C356 1.255 . S
C355 Eu350 2.852 . S
C355 C359 1.503 . S
C355 O372 1.273 . S
C355 O373 1.257 . S
C356 O354 1.255 . S
C356 O357 1.247 . S
O357 C356 1.247 . S
C358 O370 1.242 . S
C358 O371 1.258 . S
C359 C355 1.503 . S
C359 C360 1.379 . S
C359 C364 1.392 . S
C360 C359 1.379 . S
C360 C361 1.404 . S
C360 H374 0.929 . S
C361 C360 1.404 . S
C361 C362 1.389 . S
C362 C361 1.389 . S
C362 C363 1.399 . S
C362 H375 0.931 . S
C363 C362 1.399 . S
C363 C364 1.390 . S
C364 C359 1.392 . S
C364 C363 1.390 . S
C364 H376 0.929 . S
O365 Tb349 2.326 . S
O365 C353 1.242 . S
O366 Eu350 2.324 . S
O366 C353 1.258 . S
O367 Tb349 2.500 . S
O367 C369 1.273 . S
O368 Tb349 2.473 . S
O368 C369 1.257 . S
C369 O367 1.273 . S
C369 O368 1.257 . S
O370 Eu350 2.326 . S
O370 C358 1.242 . S
O371 Tb349 2.324 . S
O371 C358 1.258 . S
O372 Eu350 2.500 . S
O372 C355 1.273 . S
O373 Eu350 2.473 . S
O373 C355 1.257 . S
H374 C360 0.929 . S
H375 C362 0.931 . S
H376 C364 0.929 . S
O377 Tb378 2.292 . S
O377 C380 1.255 . S
Tb378 O377 2.292 . S
Tb378 O394 2.326 . S
Tb378 O396 2.500 . S
Tb378 O397 2.473 1_655 S
Tb378 O400 2.324 1_655 S
Eu379 O383 2.292 . S
Eu379 C384 2.852 . S
Eu379 O395 2.324 1_455 S
Eu379 O399 2.326 . S
Eu379 O401 2.500 . S
Eu379 O402 2.473 1_455 S
C380 O377 1.255 . S
C380 O381 1.247 . S
O381 C380 1.247 . S
C382 O394 1.242 . S
C382 O395 1.258 . S
O383 Eu379 2.292 . S
O383 C385 1.255 . S
C384 Eu379 2.852 . S
C384 C388 1.503 . S
C384 O401 1.273 . S
C384 O402 1.257 1_455 S
C385 O383 1.255 . S
C385 O386 1.247 . S
O386 C385 1.247 . S
C387 O399 1.242 . S
C387 O400 1.258 . S
C388 C384 1.503 . S
C388 C389 1.379 1_455 S
C388 C393 1.392 . S
C389 C388 1.379 1_655 S
C389 C390 1.404 . S
C389 H403 0.929 . S
C390 C389 1.404 . S
C390 C391 1.389 1_655 S
C391 C390 1.389 1_455 S
C391 C392 1.399 . S
C391 H404 0.931 . S
C392 C391 1.399 . S
C392 C393 1.390 . S
C393 C388 1.392 . S
C393 C392 1.390 . S
C393 H405 0.929 . S
O394 Tb378 2.326 . S
O394 C382 1.242 . S
O395 Eu379 2.324 1_655 S
O395 C382 1.258 . S
O396 Tb378 2.500 . S
O396 C398 1.273 . S
O397 Tb378 2.473 1_455 S
O397 C398 1.257 1_455 S
C398 O396 1.273 . S
C398 O397 1.257 1_655 S
O399 Eu379 2.326 . S
O399 C387 1.242 . S
O400 Tb378 2.324 1_455 S
O400 C387 1.258 . S
O401 Eu379 2.500 . S
O401 C384 1.273 . S
O402 Eu379 2.473 1_655 S
O402 C384 1.257 1_655 S
H403 C389 0.929 . S
H404 C391 0.931 . S
H405 C393 0.929 . S
O406 Tb407 2.292 . S
O406 C409 1.255 . S
Tb407 O406 2.292 . S
Tb407 O423 2.326 . S
Tb407 O425 2.500 . S
Tb407 O426 2.473 . S
Tb407 O429 2.324 . S
Eu408 O412 2.292 . S
Eu408 C413 2.852 . S
Eu408 O424 2.324 . S
Eu408 O428 2.326 . S
Eu408 O430 2.500 . S
Eu408 O431 2.473 . S
C409 O406 1.255 . S
C409 O410 1.247 . S
O410 C409 1.247 . S
C411 O423 1.242 . S
C411 O424 1.258 . S
O412 Eu408 2.292 . S
O412 C414 1.255 . S
C413 Eu408 2.852 . S
C413 C417 1.503 . S
C413 O430 1.273 . S
C413 O431 1.257 . S
C414 O412 1.255 . S
C414 O415 1.247 . S
O415 C414 1.247 . S
C416 O428 1.242 . S
C416 O429 1.258 . S
C417 C413 1.503 . S
C417 C418 1.379 . S
C417 C422 1.392 . S
C418 C417 1.379 . S
C418 C419 1.404 . S
C418 H432 0.929 . S
C419 C418 1.404 . S
C419 C420 1.389 . S
C420 C419 1.389 . S
C420 C421 1.399 . S
C420 H433 0.931 . S
C421 C420 1.399 . S
C421 C422 1.390 . S
C422 C417 1.392 . S
C422 C421 1.390 . S
C422 H434 0.929 . S
O423 Tb407 2.326 . S
O423 C411 1.242 . S
O424 Eu408 2.324 . S
O424 C411 1.258 . S
O425 Tb407 2.500 . S
O425 C427 1.273 . S
O426 Tb407 2.473 . S
O426 C427 1.257 . S
C427 O425 1.273 . S
C427 O426 1.257 . S
O428 Eu408 2.326 . S
O428 C416 1.242 . S
O429 Tb407 2.324 . S
O429 C416 1.258 . S
O430 Eu408 2.500 . S
O430 C413 1.273 . S
O431 Eu408 2.473 . S
O431 C413 1.257 . S
H432 C418 0.929 . S
H433 C420 0.931 . S
H434 C422 0.929 . S
O435 Tb436 2.292 . S
O435 C438 1.255 . S
Tb436 O435 2.292 . S
Tb436 O452 2.326 . S
Tb436 O454 2.500 . S
Tb436 O455 2.473 1_655 S
Tb436 O458 2.324 1_655 S
Eu437 O441 2.292 . S
Eu437 C442 2.852 . S
Eu437 O453 2.324 1_455 S
Eu437 O457 2.326 . S
Eu437 O459 2.500 . S
Eu437 O460 2.473 1_455 S
C438 O435 1.255 . S
C438 O439 1.247 . S
O439 C438 1.247 . S
C440 O452 1.242 . S
C440 O453 1.258 . S
O441 Eu437 2.292 . S
O441 C443 1.255 . S
C442 Eu437 2.852 . S
C442 C446 1.503 . S
C442 O459 1.273 . S
C442 O460 1.257 1_455 S
C443 O441 1.255 . S
C443 O444 1.247 . S
O444 C443 1.247 . S
C445 O457 1.242 . S
C445 O458 1.258 . S
C446 C442 1.503 . S
C446 C447 1.379 1_455 S
C446 C451 1.392 . S
C447 C446 1.379 1_655 S
C447 C448 1.404 . S
C447 H461 0.929 . S
C448 C447 1.404 . S
C448 C449 1.389 1_655 S
C449 C448 1.389 1_455 S
C449 C450 1.399 . S
C449 H462 0.931 . S
C450 C449 1.399 . S
C450 C451 1.390 . S
C451 C446 1.392 . S
C451 C450 1.390 . S
C451 H463 0.929 . S
O452 Tb436 2.326 . S
O452 C440 1.242 . S
O453 Eu437 2.324 1_655 S
O453 C440 1.258 . S
O454 Tb436 2.500 . S
O454 C456 1.273 . S
O455 Tb436 2.473 1_455 S
O455 C456 1.257 1_455 S
C456 O454 1.273 . S
C456 O455 1.257 1_655 S
O457 Eu437 2.326 . S
O457 C445 1.242 . S
O458 Tb436 2.324 1_455 S
O458 C445 1.258 . S
O459 Eu437 2.500 . S
O459 C442 1.273 . S
O460 Eu437 2.473 1_655 S
O460 C442 1.257 1_655 S
H461 C447 0.929 . S
H462 C449 0.931 . S
H463 C451 0.929 . S
H464 C472 0.950 . S
H465 C477 0.950 . S
H466 C474 0.950 1_545 S
H467 C476 0.950 . S
H468 C478 0.946 1_655 S
H469 C480 0.947 1_565 S
H470 C482 0.950 . S
H471 C483 0.950 . S
C472 H464 0.950 . S
C472 C473 1.386 . S
C472 C474 1.391 . S
C473 C472 1.386 . S
C473 C477 1.393 1_455 S
C474 H466 0.950 1_565 S
C474 C472 1.391 . S
C474 C475 1.400 . S
C475 C474 1.400 . S
C475 C476 1.398 1_455 S
C475 C481 1.491 1_566 S
C476 H467 0.950 . S
C476 C475 1.398 1_655 S
C476 C477 1.391 . S
C477 H465 0.950 . S
C477 C473 1.393 1_655 S
C477 C476 1.391 . S
C478 H468 0.946 1_455 S
C478 C479 1.389 . S
C478 C480 1.391 1_455 S
C479 C478 1.389 . S
C479 C483 1.393 . S
C480 H469 0.947 1_545 S
C480 C478 1.391 1_655 S
C480 C481 1.402 1_655 S
C481 C475 1.491 1_544 S
C481 C480 1.402 1_455 S
C481 C482 1.398 . S
C482 H470 0.950 . S
C482 C481 1.398 . S
C482 C483 1.391 . S
C483 H471 0.950 . S
C483 C479 1.393 . S
C483 C482 1.391 . S
H484 C492 0.950 . S
H485 C497 0.950 . S
H486 C494 0.950 . S
H487 C496 0.950 . S
H488 C498 0.950 . S
H489 C500 0.950 . S
H490 C502 0.950 . S
H491 C503 0.950 . S
C492 H484 0.950 . S
C492 C493 1.386 . S
C492 C494 1.391 . S
C493 C492 1.386 . S
C493 C497 1.393 . S
C494 H486 0.950 . S
C494 C492 1.391 . S
C494 C495 1.400 . S
C495 C494 1.400 . S
C495 C496 1.398 . S
C495 C501 1.491 . S
C496 H487 0.950 . S
C496 C495 1.398 . S
C496 C497 1.391 . S
C497 H485 0.950 . S
C497 C493 1.393 . S
C497 C496 1.391 . S
C498 H488 0.950 . S
C498 C499 1.386 . S
C498 C500 1.391 . S
C499 C498 1.386 . S
C499 C503 1.393 . S
C500 H489 0.950 . S
C500 C498 1.391 . S
C500 C501 1.400 . S
C501 C495 1.491 . S
C501 C500 1.400 . S
C501 C502 1.398 . S
C502 H490 0.950 . S
C502 C501 1.398 . S
C502 C503 1.391 . S
C503 H491 0.950 . S
C503 C499 1.393 . S
C503 C502 1.391 . S
H504 C512 0.950 . S
H505 C517 0.950 . S
H506 C514 0.950 . S
H507 C516 0.950 . S
H508 C518 0.950 . S
H509 C520 0.950 . S
H510 C522 0.950 . S
H511 C523 0.950 . S
C512 H504 0.950 . S
C512 C513 1.386 . S
C512 C514 1.391 1_545 S
C513 C512 1.386 . S
C513 C517 1.393 . S
C514 H506 0.950 . S
C514 C512 1.391 1_565 S
C514 C515 1.400 1_565 S
C515 C514 1.400 1_545 S
C515 C516 1.398 . S
C515 C521 1.491 1_545 S
C516 H507 0.950 . S
C516 C515 1.398 . S
C516 C517 1.391 . S
C517 H505 0.950 . S
C517 C513 1.393 . S
C517 C516 1.391 . S
C518 H508 0.950 . S
C518 C519 1.386 . S
C518 C520 1.391 1_565 S
C519 C518 1.386 . S
C519 C523 1.393 . S
C520 H509 0.950 . S
C520 C518 1.391 1_545 S
C520 C521 1.400 1_545 S
C521 C515 1.491 1_565 S
C521 C520 1.400 1_565 S
C521 C522 1.398 . S
C522 H510 0.950 . S
C522 C521 1.398 . S
C522 C523 1.391 . S
C523 H511 0.950 . S
C523 C519 1.393 . S
C523 C522 1.391 . S
H524 C532 0.950 . S
H525 C537 0.950 . S
H526 C534 0.950 . S
H527 C536 0.950 . S
H528 C538 0.950 . S
H529 C540 0.950 . S
H530 C542 0.950 . S
H531 C543 0.950 . S
C532 H524 0.950 . S
C532 C533 1.386 . S
C532 C534 1.391 . S
C533 C532 1.386 . S
C533 C537 1.393 . S
C534 H526 0.950 . S
C534 C532 1.391 . S
C534 C535 1.400 . S
C535 C534 1.400 . S
C535 C536 1.398 . S
C535 C541 1.491 . S
C536 H527 0.950 . S
C536 C535 1.398 . S
C536 C537 1.391 . S
C537 H525 0.950 . S
C537 C533 1.393 . S
C537 C536 1.391 . S
C538 H528 0.950 . S
C538 C539 1.386 . S
C538 C540 1.391 . S
C539 C538 1.386 . S
C539 C543 1.393 . S
C540 H529 0.950 . S
C540 C538 1.391 . S
C540 C541 1.400 . S
C541 C535 1.491 . S
C541 C540 1.400 . S
C541 C542 1.398 . S
C542 H530 0.950 . S
C542 C541 1.398 . S
C542 C543 1.391 . S
C543 H531 0.950 . S
C543 C539 1.393 . S
C543 C542 1.391 . S
H544 C552 0.950 . S
H545 C557 0.950 . S
H546 C554 0.950 . S
H547 C556 0.950 . S
H548 C558 0.950 . S
H549 C560 0.950 . S
H550 C562 0.950 . S
H551 C563 0.950 . S
C552 H544 0.950 . S
C552 C553 1.386 . S
C552 C554 1.391 . S
C553 C552 1.386 . S
C553 C557 1.393 . S
C554 H546 0.950 . S
C554 C552 1.391 . S
C554 C555 1.400 . S
C555 C554 1.400 . S
C555 C556 1.398 . S
C555 C561 1.491 . S
C556 H547 0.950 . S
C556 C555 1.398 . S
C556 C557 1.391 . S
C557 H545 0.950 . S
C557 C553 1.393 . S
C557 C556 1.391 . S
C558 H548 0.950 . S
C558 C559 1.386 . S
C558 C560 1.391 . S
C559 C558 1.386 . S
C559 C563 1.393 . S
C560 H549 0.950 . S
C560 C558 1.391 . S
C560 C561 1.400 . S
C561 C555 1.491 . S
C561 C560 1.400 . S
C561 C562 1.398 . S
C562 H550 0.950 . S
C562 C561 1.398 . S
C562 C563 1.391 . S
C563 H551 0.950 . S
C563 C559 1.393 . S
C563 C562 1.391 . S
H564 C572 0.950 . S
H565 C577 0.950 . S
H566 C574 0.950 . S
H567 C576 0.950 . S
H568 C578 0.950 . S
H569 C580 0.950 . S
H570 C582 0.950 . S
H571 C583 0.950 . S
C572 H564 0.950 . S
C572 C573 1.386 . S
C572 C574 1.391 . S
C573 C572 1.386 . S
C573 C577 1.393 . S
C574 H566 0.950 . S
C574 C572 1.391 . S
C574 C575 1.400 . S
C575 C574 1.400 . S
C575 C576 1.398 . S
C575 C581 1.491 . S
C576 H567 0.950 . S
C576 C575 1.398 . S
C576 C577 1.391 . S
C577 H565 0.950 . S
C577 C573 1.393 . S
C577 C576 1.391 . S
C578 H568 0.950 . S
C578 C579 1.386 . S
C578 C580 1.391 . S
C579 C578 1.386 . S
C579 C583 1.393 . S
C580 H569 0.950 . S
C580 C578 1.391 . S
C580 C581 1.400 . S
C581 C575 1.491 . S
C581 C580 1.400 . S
C581 C582 1.398 . S
C582 H570 0.950 . S
C582 C581 1.398 . S
C582 C583 1.391 . S
C583 H571 0.950 . S
C583 C579 1.393 . S
C583 C582 1.391 . S
H584 C592 0.950 . S
H585 C597 0.950 . S
H586 C594 0.950 . S
H587 C596 0.950 . S
H588 C598 0.950 . S
H589 C600 0.950 . S
H590 C602 0.950 . S
H591 C603 0.950 . S
C592 H584 0.950 . S
C592 C593 1.386 . S
C592 C594 1.391 . S
C593 C592 1.386 . S
C593 C597 1.393 . S
C594 H586 0.950 . S
C594 C592 1.391 . S
C594 C595 1.400 . S
C595 C594 1.400 . S
C595 C596 1.398 . S
C595 C601 1.491 . S
C596 H587 0.950 . S
C596 C595 1.398 . S
C596 C597 1.391 . S
C597 H585 0.950 . S
C597 C593 1.393 . S
C597 C596 1.391 . S
C598 H588 0.950 . S
C598 C599 1.386 . S
C598 C600 1.391 . S
C599 C598 1.386 . S
C599 C603 1.393 . S
C600 H589 0.950 . S
C600 C598 1.391 . S
C600 C601 1.400 . S
C601 C595 1.491 . S
C601 C600 1.400 . S
C601 C602 1.398 . S
C602 H590 0.950 . S
C602 C601 1.398 . S
C602 C603 1.391 . S
C603 H591 0.950 . S
C603 C599 1.393 . S
C603 C602 1.391 . S
H604 C612 0.960 . S
H605 C617 0.950 . S
H606 C614 0.943 1_556 S
H607 C616 0.950 . S
H608 C618 0.950 . S
H609 C620 0.944 1_554 S
H610 C622 0.950 1_455 S
H611 C623 0.950 1_455 S
C612 H604 0.960 . S
C612 C613 1.386 . S
C612 C614 1.391 . S
C613 C612 1.386 . S
C613 C617 1.393 . S
C614 H606 0.943 1_554 S
C614 C612 1.391 . S
C614 C615 1.400 . S
C615 C614 1.400 . S
C615 C616 1.398 . S
C615 C621 1.491 1_554 S
C616 H607 0.950 . S
C616 C615 1.398 . S
C616 C617 1.391 . S
C617 H605 0.950 . S
C617 C613 1.393 . S
C617 C616 1.391 . S
C618 H608 0.950 . S
C618 C619 1.386 . S
C618 C620 1.391 . S
C619 C618 1.386 . S
C619 C623 1.393 . S
C620 H609 0.944 1_556 S
C620 C618 1.391 . S
C620 C621 1.400 . S
C621 C615 1.491 1_556 S
C621 C620 1.400 . S
C621 C622 1.398 . S
C622 H610 0.950 1_655 S
C622 C621 1.398 . S
C622 C623 1.391 . S
C623 H611 0.950 1_655 S
C623 C619 1.393 . S
C623 C622 1.391 . S
H624 C632 0.950 . S
H625 C637 0.950 . S
H626 C634 0.950 . S
H627 C636 0.950 . S
H628 C638 0.950 . S
H629 C640 0.950 . S
H630 C642 0.950 . S
H631 C643 0.950 . S
C632 H624 0.950 . S
C632 C633 1.386 . S
C632 C634 1.391 . S
C633 C632 1.386 . S
C633 C637 1.393 . S
C634 H626 0.950 . S
C634 C632 1.391 . S
C634 C635 1.400 . S
C635 C634 1.400 . S
C635 C636 1.398 . S
C635 C641 1.491 . S
C636 H627 0.950 . S
C636 C635 1.398 . S
C636 C637 1.391 . S
C637 H625 0.950 . S
C637 C633 1.393 . S
C637 C636 1.391 . S
C638 H628 0.950 . S
C638 C639 1.386 . S
C638 C640 1.391 . S
C639 C638 1.386 . S
C639 C643 1.393 . S
C640 H629 0.950 . S
C640 C638 1.391 . S
C640 C641 1.400 . S
C641 C635 1.491 . S
C641 C640 1.400 . S
C641 C642 1.398 . S
C642 H630 0.950 . S
C642 C641 1.398 . S
C642 C643 1.391 . S
C643 H631 0.950 . S
C643 C639 1.393 . S
C643 C642 1.391 . S
H644 C652 0.950 1_545 S
H645 C657 0.950 . S
H646 C654 0.950 . S
H647 C656 0.950 . S
H648 C658 0.950 . S
H649 C660 0.950 . S
H650 C662 0.950 . S
H651 C663 0.950 . S
C652 H644 0.950 1_565 S
C652 C653 1.386 . S
C652 C654 1.391 . S
C653 C652 1.386 . S
C653 C657 1.393 . S
C654 H646 0.950 . S
C654 C652 1.391 . S
C654 C655 1.400 . S
C655 C654 1.400 . S
C655 C656 1.398 . S
C655 C661 1.491 . S
C656 H647 0.950 . S
C656 C655 1.398 . S
C656 C657 1.391 . S
C657 H645 0.950 . S
C657 C653 1.393 . S
C657 C656 1.391 . S
C658 H648 0.950 . S
C658 C659 1.386 . S
C658 C660 1.391 . S
C659 C658 1.386 . S
C659 C663 1.393 . S
C660 H649 0.950 . S
C660 C658 1.391 . S
C660 C661 1.400 . S
C661 C655 1.491 . S
C661 C660 1.400 . S
C661 C662 1.398 . S
C662 H650 0.950 . S
C662 C661 1.398 . S
C662 C663 1.391 . S
C663 H651 0.950 . S
C663 C659 1.393 . S
C663 C662 1.391 . S
H664 C672 0.950 . S
H665 C677 0.950 . S
H666 C674 0.950 . S
H667 C676 0.950 . S
H668 C678 0.950 . S
H669 C680 0.950 . S
H670 C682 0.950 . S
H671 C683 0.950 . S
C672 H664 0.950 . S
C672 C673 1.386 . S
C672 C674 1.391 . S
C673 C672 1.386 . S
C673 C677 1.393 . S
C674 H666 0.950 . S
C674 C672 1.391 . S
C674 C675 1.400 . S
C675 C674 1.400 . S
C675 C676 1.398 . S
C675 C681 1.491 . S
C676 H667 0.950 . S
C676 C675 1.398 . S
C676 C677 1.391 . S
C677 H665 0.950 . S
C677 C673 1.393 . S
C677 C676 1.391 . S
C678 H668 0.950 . S
C678 C679 1.386 . S
C678 C680 1.391 . S
C679 C678 1.386 . S
C679 C683 1.393 . S
C680 H669 0.950 . S
C680 C678 1.391 . S
C680 C681 1.400 . S
C681 C675 1.491 . S
C681 C680 1.400 . S
C681 C682 1.398 . S
C682 H670 0.950 . S
C682 C681 1.398 . S
C682 C683 1.391 . S
C683 H671 0.950 . S
C683 C679 1.393 . S
C683 C682 1.391 . S
H684 C692 0.950 . S
H685 C697 0.950 . S
H686 C694 0.950 . S
H687 C696 0.950 . S
H688 C698 0.950 . S
H689 C700 0.950 . S
H690 C702 0.950 . S
H691 C703 0.950 . S
C692 H684 0.950 . S
C692 C693 1.386 . S
C692 C694 1.391 . S
C693 C692 1.386 . S
C693 C697 1.393 . S
C694 H686 0.950 . S
C694 C692 1.391 . S
C694 C695 1.400 . S
C695 C694 1.400 . S
C695 C696 1.398 . S
C695 C701 1.491 . S
C696 H687 0.950 . S
C696 C695 1.398 . S
C696 C697 1.391 . S
C697 H685 0.950 . S
C697 C693 1.393 . S
C697 C696 1.391 . S
C698 H688 0.950 . S
C698 C699 1.386 . S
C698 C700 1.391 . S
C699 C698 1.386 . S
C699 C703 1.393 . S
C700 H689 0.950 . S
C700 C698 1.391 . S
C700 C701 1.400 . S
C701 C695 1.491 . S
C701 C700 1.400 . S
C701 C702 1.398 . S
C702 H690 0.950 . S
C702 C701 1.398 . S
C702 C703 1.391 . S
C703 H691 0.950 . S
C703 C699 1.393 . S
C703 C702 1.391 . S
H704 C712 0.950 . S
H705 C717 0.950 . S
H706 C714 0.950 . S
H707 C716 0.950 . S
H708 C718 0.950 . S
H709 C720 0.950 . S
H710 C722 0.950 . S
H711 C723 0.950 . S
C712 H704 0.950 . S
C712 C713 1.386 . S
C712 C714 1.391 . S
C713 C712 1.386 . S
C713 C717 1.393 . S
C714 H706 0.950 . S
C714 C712 1.391 . S
C714 C715 1.400 . S
C715 C714 1.400 . S
C715 C716 1.398 . S
C715 C721 1.491 . S
C716 H707 0.950 . S
C716 C715 1.398 . S
C716 C717 1.391 . S
C717 H705 0.950 . S
C717 C713 1.393 . S
C717 C716 1.391 . S
C718 H708 0.950 . S
C718 C719 1.386 . S
C718 C720 1.391 . S
C719 C718 1.386 . S
C719 C723 1.393 . S
C720 H709 0.950 . S
C720 C718 1.391 . S
C720 C721 1.400 . S
C721 C715 1.491 . S
C721 C720 1.400 . S
C721 C722 1.398 . S
C722 H710 0.950 . S
C722 C721 1.398 . S
C722 C723 1.391 . S
C723 H711 0.950 . S
C723 C719 1.393 . S
C723 C722 1.391 . S
H724 C732 0.950 1_545 S
H725 C737 0.950 . S
H726 C734 0.950 . S
H727 C736 0.950 . S
H728 C738 0.950 . S
H729 C740 0.950 . S
H730 C742 0.950 . S
H731 C743 0.950 . S
C732 H724 0.950 1_565 S
C732 C733 1.386 . S
C732 C734 1.391 . S
C733 C732 1.386 . S
C733 C737 1.393 . S
C734 H726 0.950 . S
C734 C732 1.391 . S
C734 C735 1.400 . S
C735 C734 1.400 . S
C735 C736 1.398 . S
C735 C741 1.491 . S
C736 H727 0.950 . S
C736 C735 1.398 . S
C736 C737 1.391 . S
C737 H725 0.950 . S
C737 C733 1.393 . S
C737 C736 1.391 . S
C738 H728 0.950 . S
C738 C739 1.386 . S
C738 C740 1.391 . S
C739 C738 1.386 . S
C739 C743 1.393 . S
C740 H729 0.950 . S
C740 C738 1.391 . S
C740 C741 1.400 . S
C741 C735 1.491 . S
C741 C740 1.400 . S
C741 C742 1.398 . S
C742 H730 0.950 . S
C742 C741 1.398 . S
C742 C743 1.391 . S
C743 H731 0.950 . S
C743 C739 1.393 . S
C743 C742 1.391 . S
H744 C752 0.950 . S
H745 C757 0.950 . S
H746 C754 0.950 . S
H747 C756 0.950 . S
H748 C758 0.950 . S
H749 C760 0.950 . S
H750 C762 0.950 . S
H751 C763 0.950 . S
C752 H744 0.950 . S
C752 C753 1.386 . S
C752 C754 1.391 . S
C753 C752 1.386 . S
C753 C757 1.393 . S
C754 H746 0.950 . S
C754 C752 1.391 . S
C754 C755 1.400 . S
C755 C754 1.400 . S
C755 C756 1.398 . S
C755 C761 1.491 . S
C756 H747 0.950 . S
C756 C755 1.398 . S
C756 C757 1.391 . S
C757 H745 0.950 . S
C757 C753 1.393 . S
C757 C756 1.391 . S
C758 H748 0.950 . S
C758 C759 1.386 . S
C758 C760 1.391 . S
C759 C758 1.386 . S
C759 C763 1.393 . S
C760 H749 0.950 . S
C760 C758 1.391 . S
C760 C761 1.400 . S
C761 C755 1.491 . S
C761 C760 1.400 . S
C761 C762 1.398 . S
C762 H750 0.950 . S
C762 C761 1.398 . S
C762 C763 1.391 . S
C763 H751 0.950 . S
C763 C759 1.393 . S
C763 C762 1.391 . S
H764 C772 0.950 . S
H765 C777 0.950 . S
H766 C774 0.950 . S
H767 C776 0.950 . S
H768 C778 0.950 . S
H769 C780 0.950 . S
H770 C782 0.950 . S
H771 C783 0.950 . S
C772 H764 0.950 . S
C772 C773 1.386 . S
C772 C774 1.391 . S
C773 C772 1.386 . S
C773 C777 1.393 . S
C774 H766 0.950 . S
C774 C772 1.391 . S
C774 C775 1.400 . S
C775 C774 1.400 . S
C775 C776 1.398 . S
C775 C781 1.491 . S
C776 H767 0.950 . S
C776 C775 1.398 . S
C776 C777 1.391 . S
C777 H765 0.950 . S
C777 C773 1.393 . S
C777 C776 1.391 . S
C778 H768 0.950 . S
C778 C779 1.386 . S
C778 C780 1.391 . S
C779 C778 1.386 . S
C779 C783 1.393 . S
C780 H769 0.950 . S
C780 C778 1.391 . S
C780 C781 1.400 . S
C781 C775 1.491 . S
C781 C780 1.400 . S
C781 C782 1.398 . S
C782 H770 0.950 . S
C782 C781 1.398 . S
C782 C783 1.391 . S
C783 H771 0.950 . S
C783 C779 1.393 . S
C783 C782 1.391 . S
H784 C792 0.950 . S
H785 C797 0.950 . S
H786 C794 0.950 . S
H787 C796 0.950 . S
H788 C798 0.950 . S
H789 C800 0.950 . S
H790 C802 0.950 . S
H791 C803 0.950 . S
C792 H784 0.950 . S
C792 C793 1.386 . S
C792 C794 1.391 . S
C793 C792 1.386 . S
C793 C797 1.393 . S
C794 H786 0.950 . S
C794 C792 1.391 . S
C794 C795 1.400 . S
C795 C794 1.400 . S
C795 C796 1.398 . S
C795 C801 1.491 . S
C796 H787 0.950 . S
C796 C795 1.398 . S
C796 C797 1.391 . S
C797 H785 0.950 . S
C797 C793 1.393 . S
C797 C796 1.391 . S
C798 H788 0.950 . S
C798 C799 1.386 . S
C798 C800 1.391 . S
C799 C798 1.386 . S
C799 C803 1.393 . S
C800 H789 0.950 . S
C800 C798 1.391 . S
C800 C801 1.400 . S
C801 C795 1.491 . S
C801 C800 1.400 . S
C801 C802 1.398 . S
C802 H790 0.950 . S
C802 C801 1.398 . S
C802 C803 1.391 . S
C803 H791 0.950 . S
C803 C799 1.393 . S
C803 C802 1.391 . S
H804 C812 0.950 . S
H805 C817 0.950 . S
H806 C814 0.950 . S
H807 C816 0.950 . S
H808 C818 0.950 . S
H809 C820 0.950 . S
H810 C822 0.950 1_565 S
H811 C823 0.950 . S
C812 H804 0.950 . S
C812 C813 1.386 . S
C812 C814 1.391 . S
C813 C812 1.386 . S
C813 C817 1.393 . S
C814 H806 0.950 . S
C814 C812 1.391 . S
C814 C815 1.400 . S
C815 C814 1.400 . S
C815 C816 1.398 . S
C815 C821 1.491 . S
C816 H807 0.950 . S
C816 C815 1.398 . S
C816 C817 1.391 . S
C817 H805 0.950 . S
C817 C813 1.393 . S
C817 C816 1.391 . S
C818 H808 0.950 . S
C818 C819 1.386 1_545 S
C818 C820 1.391 . S
C819 C818 1.386 1_565 S
C819 C823 1.393 . S
C820 H809 0.950 . S
C820 C818 1.391 . S
C820 C821 1.400 . S
C821 C815 1.491 . S
C821 C820 1.400 . S
C821 C822 1.398 . S
C822 H810 0.950 1_545 S
C822 C821 1.398 . S
C822 C823 1.391 1_545 S
C823 H811 0.950 . S
C823 C819 1.393 . S
C823 C822 1.391 1_565 S
H824 C832 0.950 . S
H825 C837 0.950 . S
H826 C834 0.950 . S
H827 C836 0.950 . S
H828 C838 0.950 . S
H829 C840 0.950 . S
H830 C842 0.950 . S
H831 C843 0.950 . S
C832 H824 0.950 . S
C832 C833 1.386 . S
C832 C834 1.391 . S
C833 C832 1.386 . S
C833 C837 1.393 . S
C834 H826 0.950 . S
C834 C832 1.391 . S
C834 C835 1.400 . S
C835 C834 1.400 . S
C835 C836 1.398 . S
C835 C841 1.491 . S
C836 H827 0.950 . S
C836 C835 1.398 . S
C836 C837 1.391 . S
C837 H825 0.950 . S
C837 C833 1.393 . S
C837 C836 1.391 . S
C838 H828 0.950 . S
C838 C839 1.386 . S
C838 C840 1.391 . S
C839 C838 1.386 . S
C839 C843 1.393 . S
C840 H829 0.950 . S
C840 C838 1.391 . S
C840 C841 1.400 . S
C841 C835 1.491 . S
C841 C840 1.400 . S
C841 C842 1.398 . S
C842 H830 0.950 . S
C842 C841 1.398 . S
C842 C843 1.391 . S
C843 H831 0.950 . S
C843 C839 1.393 . S
C843 C842 1.391 . S
H844 C852 0.950 . S
H845 C857 0.950 . S
H846 C854 0.950 . S
H847 C856 0.950 . S
H848 C858 0.950 . S
H849 C860 0.950 . S
H850 C862 0.950 . S
H851 C863 0.950 1_545 S
C852 H844 0.950 . S
C852 C853 1.386 . S
C852 C854 1.391 . S
C853 C852 1.386 . S
C853 C857 1.393 . S
C854 H846 0.950 . S
C854 C852 1.391 . S
C854 C855 1.400 . S
C855 C854 1.400 . S
C855 C856 1.398 . S
C855 C861 1.491 . S
C856 H847 0.950 . S
C856 C855 1.398 . S
C856 C857 1.391 . S
C857 H845 0.950 . S
C857 C853 1.393 . S
C857 C856 1.391 . S
C858 H848 0.950 . S
C858 C859 1.386 . S
C858 C860 1.391 1_545 S
C859 C858 1.386 . S
C859 C863 1.393 1_545 S
C860 H849 0.950 . S
C860 C858 1.391 1_565 S
C860 C861 1.400 . S
C861 C855 1.491 . S
C861 C860 1.400 . S
C861 C862 1.398 . S
C862 H850 0.950 . S
C862 C861 1.398 . S
C862 C863 1.391 . S
C863 H851 0.950 1_565 S
C863 C859 1.393 1_565 S
C863 C862 1.391 . S
H864 C872 0.950 . S
H865 C877 0.950 . S
H866 C874 0.950 . S
H867 C876 0.950 . S
H868 C878 0.950 . S
H869 C880 0.950 . S
H870 C882 0.950 . S
H871 C883 0.950 . S
C872 H864 0.950 . S
C872 C873 1.386 . S
C872 C874 1.391 . S
C873 C872 1.386 . S
C873 C877 1.393 . S
C874 H866 0.950 . S
C874 C872 1.391 . S
C874 C875 1.400 . S
C875 C874 1.400 . S
C875 C876 1.398 . S
C875 C881 1.491 . S
C876 H867 0.950 . S
C876 C875 1.398 . S
C876 C877 1.391 . S
C877 H865 0.950 . S
C877 C873 1.393 . S
C877 C876 1.391 . S
C878 H868 0.950 . S
C878 C879 1.386 . S
C878 C880 1.391 . S
C879 C878 1.386 . S
C879 C883 1.393 . S
C880 H869 0.950 . S
C880 C878 1.391 . S
C880 C881 1.400 . S
C881 C875 1.491 . S
C881 C880 1.400 . S
C881 C882 1.398 . S
C882 H870 0.950 . S
C882 C881 1.398 . S
C882 C883 1.391 . S
C883 H871 0.950 . S
C883 C879 1.393 . S
C883 C882 1.391 . S
H884 C892 0.950 . S
H885 C897 0.950 . S
H886 C894 0.950 . S
H887 C896 0.950 . S
H888 C898 0.950 . S
H889 C900 0.950 . S
H890 C902 0.950 . S
H891 C903 0.950 . S
C892 H884 0.950 . S
C892 C893 1.386 1_545 S
C892 C894 1.391 . S
C893 C892 1.386 1_565 S
C893 C897 1.393 . S
C894 H886 0.950 . S
C894 C892 1.391 . S
C894 C895 1.400 . S
C895 C894 1.400 . S
C895 C896 1.398 . S
C895 C901 1.491 . S
C896 H887 0.950 . S
C896 C895 1.398 . S
C896 C897 1.391 1_545 S
C897 H885 0.950 . S
C897 C893 1.393 . S
C897 C896 1.391 1_565 S
C898 H888 0.950 . S
C898 C899 1.386 . S
C898 C900 1.391 . S
C899 C898 1.386 . S
C899 C903 1.393 . S
C900 H889 0.950 . S
C900 C898 1.391 . S
C900 C901 1.400 . S
C901 C895 1.491 . S
C901 C900 1.400 . S
C901 C902 1.398 . S
C902 H890 0.950 . S
C902 C901 1.398 . S
C902 C903 1.391 . S
C903 H891 0.950 . S
C903 C899 1.393 . S
C903 C902 1.391 . S
H904 C912 0.950 . S
H905 C917 0.950 . S
H906 C914 0.950 . S
H907 C916 0.950 . S
H908 C918 0.950 . S
H909 C920 0.950 . S
H910 C922 0.950 . S
H911 C923 0.950 . S
C912 H904 0.950 . S
C912 C913 1.386 . S
C912 C914 1.391 . S
C913 C912 1.386 . S
C913 C917 1.393 . S
C914 H906 0.950 . S
C914 C912 1.391 . S
C914 C915 1.400 . S
C915 C914 1.400 . S
C915 C916 1.398 . S
C915 C921 1.491 . S
C916 H907 0.950 . S
C916 C915 1.398 . S
C916 C917 1.391 . S
C917 H905 0.950 . S
C917 C913 1.393 . S
C917 C916 1.391 . S
C918 H908 0.950 . S
C918 C919 1.386 . S
C918 C920 1.391 . S
C919 C918 1.386 . S
C919 C923 1.393 . S
C920 H909 0.950 . S
C920 C918 1.391 . S
C920 C921 1.400 . S
C921 C915 1.491 . S
C921 C920 1.400 . S
C921 C922 1.398 . S
C922 H910 0.950 . S
C922 C921 1.398 . S
C922 C923 1.391 . S
C923 H911 0.950 . S
C923 C919 1.393 . S
C923 C922 1.391 . S
H924 C932 0.950 . S
H925 C937 0.950 . S
H926 C934 0.950 . S
H927 C936 0.950 1_545 S
H928 C938 0.950 . S
H929 C940 0.950 . S
H930 C942 0.950 . S
H931 C943 0.950 . S
C932 H924 0.950 . S
C932 C933 1.386 1_565 S
C932 C934 1.391 . S
C933 C932 1.386 1_545 S
C933 C937 1.393 . S
C934 H926 0.950 . S
C934 C932 1.391 . S
C934 C935 1.400 . S
C935 C934 1.400 . S
C935 C936 1.398 . S
C935 C941 1.491 . S
C936 H927 0.950 1_565 S
C936 C935 1.398 . S
C936 C937 1.391 1_565 S
C937 H925 0.950 . S
C937 C933 1.393 . S
C937 C936 1.391 1_545 S
C938 H928 0.950 . S
C938 C939 1.386 . S
C938 C940 1.391 . S
C939 C938 1.386 . S
C939 C943 1.393 . S
C940 H929 0.950 . S
C940 C938 1.391 . S
C940 C941 1.400 . S
C941 C935 1.491 . S
C941 C940 1.400 . S
C941 C942 1.398 . S
C942 H930 0.950 . S
C942 C941 1.398 . S
C942 C943 1.391 . S
C943 H931 0.950 . S
C943 C939 1.393 . S
C943 C942 1.391 . S
H944 C952 0.950 . S
H945 C957 0.950 . S
H946 C954 0.950 . S
H947 C956 0.950 . S
H948 C958 0.950 . S
H949 C960 0.950 . S
H950 C962 0.950 . S
H951 C963 0.950 . S
C952 H944 0.950 . S
C952 C953 1.386 . S
C952 C954 1.391 . S
C953 C952 1.386 . S
C953 C957 1.393 . S
C954 H946 0.950 . S
C954 C952 1.391 . S
C954 C955 1.400 . S
C955 C954 1.400 . S
C955 C956 1.398 . S
C955 C961 1.491 . S
C956 H947 0.950 . S
C956 C955 1.398 . S
C956 C957 1.391 . S
C957 H945 0.950 . S
C957 C953 1.393 . S
C957 C956 1.391 . S
C958 H948 0.950 . S
C958 C959 1.386 . S
C958 C960 1.391 . S
C959 C958 1.386 . S
C959 C963 1.393 . S
C960 H949 0.950 . S
C960 C958 1.391 . S
C960 C961 1.400 . S
C961 C955 1.491 . S
C961 C960 1.400 . S
C961 C962 1.398 . S
C962 H950 0.950 . S
C962 C961 1.398 . S
C962 C963 1.391 . S
C963 H951 0.950 . S
C963 C959 1.393 . S
C963 C962 1.391 . S
H964 C972 0.950 . S
H965 C977 0.950 . S
H966 C974 0.950 . S
H967 C976 0.950 . S
H968 C978 0.950 . S
H969 C980 0.950 . S
H970 C982 0.950 . S
H971 C983 0.950 . S
C972 H964 0.950 . S
C972 C973 1.386 . S
C972 C974 1.391 . S
C973 C972 1.386 . S
C973 C977 1.393 . S
C974 H966 0.950 . S
C974 C972 1.391 . S
C974 C975 1.400 . S
C975 C974 1.400 . S
C975 C976 1.398 . S
C975 C981 1.491 . S
C976 H967 0.950 . S
C976 C975 1.398 . S
C976 C977 1.391 . S
C977 H965 0.950 . S
C977 C973 1.393 . S
C977 C976 1.391 . S
C978 H968 0.950 . S
C978 C979 1.386 . S
C978 C980 1.391 . S
C979 C978 1.386 . S
C979 C983 1.393 . S
C980 H969 0.950 . S
C980 C978 1.391 . S
C980 C981 1.400 . S
C981 C975 1.491 . S
C981 C980 1.400 . S
C981 C982 1.398 . S
C982 H970 0.950 . S
C982 C981 1.398 . S
C982 C983 1.391 . S
C983 H971 0.950 . S
C983 C979 1.393 . S
C983 C982 1.391 . S
H984 C992 0.950 . S
H985 C997 0.950 . S
H986 C994 0.950 . S
H987 C996 0.950 . S
H988 C998 0.950 . S
H989 C1000 0.950 . S
H990 C1002 0.950 . S
H991 C1003 0.950 . S
C992 H984 0.950 . S
C992 C993 1.386 . S
C992 C994 1.391 . S
C993 C992 1.386 . S
C993 C997 1.393 . S
C994 H986 0.950 . S
C994 C992 1.391 . S
C994 C995 1.400 . S
C995 C994 1.400 . S
C995 C996 1.398 . S
C995 C1001 1.491 . S
C996 H987 0.950 . S
C996 C995 1.398 . S
C996 C997 1.391 . S
C997 H985 0.950 . S
C997 C993 1.393 . S
C997 C996 1.391 . S
C998 H988 0.950 . S
C998 C999 1.386 . S
C998 C1000 1.391 . S
C999 C998 1.386 . S
C999 C1003 1.393 . S
C1000 H989 0.950 . S
C1000 C998 1.391 . S
C1000 C1001 1.400 . S
C1001 C995 1.491 . S
C1001 C1000 1.400 . S
C1001 C1002 1.398 . S
C1002 H990 0.950 . S
C1002 C1001 1.398 . S
C1002 C1003 1.391 . S
C1003 H991 0.950 . S
C1003 C999 1.393 . S
C1003 C1002 1.391 . S
H1004 C1012 0.950 . S
H1005 C1017 0.950 . S
H1006 C1014 0.950 . S
H1007 C1016 0.950 . S
H1008 C1018 0.950 . S
H1009 C1020 0.950 . S
H1010 C1022 0.950 . S
H1011 C1023 0.950 . S
C1012 H1004 0.950 . S
C1012 C1013 1.386 . S
C1012 C1014 1.391 . S
C1013 C1012 1.386 . S
C1013 C1017 1.393 . S
C1014 H1006 0.950 . S
C1014 C1012 1.391 . S
C1014 C1015 1.400 . S
C1015 C1014 1.400 . S
C1015 C1016 1.398 . S
C1015 C1021 1.491 . S
C1016 H1007 0.950 . S
C1016 C1015 1.398 . S
C1016 C1017 1.391 . S
C1017 H1005 0.950 . S
C1017 C1013 1.393 . S
C1017 C1016 1.391 . S
C1018 H1008 0.950 . S
C1018 C1019 1.386 . S
C1018 C1020 1.391 . S
C1019 C1018 1.386 . S
C1019 C1023 1.393 . S
C1020 H1009 0.950 . S
C1020 C1018 1.391 . S
C1020 C1021 1.400 . S
C1021 C1015 1.491 . S
C1021 C1020 1.400 . S
C1021 C1022 1.398 . S
C1022 H1010 0.950 . S
C1022 C1021 1.398 . S
C1022 C1023 1.391 . S
C1023 H1011 0.950 . S
C1023 C1019 1.393 . S
C1023 C1022 1.391 . S
H1024 C1032 0.950 . S
H1025 C1037 0.950 . S
H1026 C1034 0.950 . S
H1027 C1036 0.950 . S
H1028 C1038 0.950 . S
H1029 C1040 0.950 . S
H1030 C1042 0.950 . S
H1031 C1043 0.950 . S
C1032 H1024 0.950 . S
C1032 C1033 1.386 . S
C1032 C1034 1.391 . S
C1033 C1032 1.386 . S
C1033 C1037 1.393 . S
C1034 H1026 0.950 . S
C1034 C1032 1.391 . S
C1034 C1035 1.400 . S
C1035 C1034 1.400 . S
C1035 C1036 1.398 . S
C1035 C1041 1.491 . S
C1036 H1027 0.950 . S
C1036 C1035 1.398 . S
C1036 C1037 1.391 . S
C1037 H1025 0.950 . S
C1037 C1033 1.393 . S
C1037 C1036 1.391 . S
C1038 H1028 0.950 . S
C1038 C1039 1.386 . S
C1038 C1040 1.391 . S
C1039 C1038 1.386 . S
C1039 C1043 1.393 . S
C1040 H1029 0.950 . S
C1040 C1038 1.391 . S
C1040 C1041 1.400 . S
C1041 C1035 1.491 . S
C1041 C1040 1.400 . S
C1041 C1042 1.398 . S
C1042 H1030 0.950 . S
C1042 C1041 1.398 . S
C1042 C1043 1.391 . S
C1043 H1031 0.950 . S
C1043 C1039 1.393 . S
C1043 C1042 1.391 . S
H1044 C1052 0.950 . S
H1045 C1057 0.950 . S
H1046 C1054 0.950 . S
H1047 C1056 0.950 . S
H1048 C1058 0.950 . S
H1049 C1060 0.950 . S
H1050 C1062 0.950 . S
H1051 C1063 0.950 . S
C1052 H1044 0.950 . S
C1052 C1053 1.386 . S
C1052 C1054 1.391 . S
C1053 C1052 1.386 . S
C1053 C1057 1.393 . S
C1054 H1046 0.950 . S
C1054 C1052 1.391 . S
C1054 C1055 1.400 . S
C1055 C1054 1.400 . S
C1055 C1056 1.398 . S
C1055 C1061 1.491 . S
C1056 H1047 0.950 . S
C1056 C1055 1.398 . S
C1056 C1057 1.391 . S
C1057 H1045 0.950 . S
C1057 C1053 1.393 . S
C1057 C1056 1.391 . S
C1058 H1048 0.950 . S
C1058 C1059 1.386 . S
C1058 C1060 1.391 . S
C1059 C1058 1.386 . S
C1059 C1063 1.393 . S
C1060 H1049 0.950 . S
C1060 C1058 1.391 . S
C1060 C1061 1.400 . S
C1061 C1055 1.491 . S
C1061 C1060 1.400 . S
C1061 C1062 1.398 . S
C1062 H1050 0.950 . S
C1062 C1061 1.398 . S
C1062 C1063 1.391 . S
C1063 H1051 0.950 . S
C1063 C1059 1.393 . S
C1063 C1062 1.391 . S
H1064 C1072 0.950 . S
H1065 C1077 0.950 . S
H1066 C1074 0.950 . S
H1067 C1076 0.950 . S
H1068 C1078 0.950 . S
H1069 C1080 0.950 . S
H1070 C1082 0.950 . S
H1071 C1083 0.950 . S
C1072 H1064 0.950 . S
C1072 C1073 1.386 . S
C1072 C1074 1.391 . S
C1073 C1072 1.386 . S
C1073 C1077 1.393 . S
C1074 H1066 0.950 . S
C1074 C1072 1.391 . S
C1074 C1075 1.400 . S
C1075 C1074 1.400 . S
C1075 C1076 1.398 . S
C1075 C1081 1.491 . S
C1076 H1067 0.950 . S
C1076 C1075 1.398 . S
C1076 C1077 1.391 . S
C1077 H1065 0.950 . S
C1077 C1073 1.393 . S
C1077 C1076 1.391 . S
C1078 H1068 0.950 . S
C1078 C1079 1.386 . S
C1078 C1080 1.391 . S
C1079 C1078 1.386 . S
C1079 C1083 1.393 . S
C1080 H1069 0.950 . S
C1080 C1078 1.391 . S
C1080 C1081 1.400 . S
C1081 C1075 1.491 . S
C1081 C1080 1.400 . S
C1081 C1082 1.398 . S
C1082 H1070 0.950 . S
C1082 C1081 1.398 . S
C1082 C1083 1.391 . S
C1083 H1071 0.950 . S
C1083 C1079 1.393 . S
C1083 C1082 1.391 . S
H1084 C1092 0.950 . S
H1085 C1097 0.950 . S
H1086 C1094 0.950 . S
H1087 C1096 0.950 . S
H1088 C1098 0.950 . S
H1089 C1100 0.950 . S
H1090 C1102 0.950 . S
H1091 C1103 0.950 . S
C1092 H1084 0.950 . S
C1092 C1093 1.386 . S
C1092 C1094 1.391 . S
C1093 C1092 1.386 . S
C1093 C1097 1.393 . S
C1094 H1086 0.950 . S
C1094 C1092 1.391 . S
C1094 C1095 1.400 . S
C1095 C1094 1.400 . S
C1095 C1096 1.398 . S
C1095 C1101 1.491 . S
C1096 H1087 0.950 . S
C1096 C1095 1.398 . S
C1096 C1097 1.391 . S
C1097 H1085 0.950 . S
C1097 C1093 1.393 . S
C1097 C1096 1.391 . S
C1098 H1088 0.950 . S
C1098 C1099 1.386 . S
C1098 C1100 1.391 . S
C1099 C1098 1.386 . S
C1099 C1103 1.393 . S
C1100 H1089 0.950 . S
C1100 C1098 1.391 . S
C1100 C1101 1.400 . S
C1101 C1095 1.491 . S
C1101 C1100 1.400 . S
C1101 C1102 1.398 . S
C1102 H1090 0.950 . S
C1102 C1101 1.398 . S
C1102 C1103 1.391 . S
C1103 H1091 0.950 . S
C1103 C1099 1.393 . S
C1103 C1102 1.391 . S
H1104 C1112 0.950 . S
H1105 C1117 0.950 . S
H1106 C1114 0.950 . S
H1107 C1116 0.950 . S
H1108 C1118 0.950 . S
H1109 C1120 0.950 . S
H1110 C1122 0.950 . S
H1111 C1123 0.950 . S
C1112 H1104 0.950 . S
C1112 C1113 1.386 . S
C1112 C1114 1.391 . S
C1113 C1112 1.386 . S
C1113 C1117 1.393 . S
C1114 H1106 0.950 . S
C1114 C1112 1.391 . S
C1114 C1115 1.400 . S
C1115 C1114 1.400 . S
C1115 C1116 1.398 . S
C1115 C1121 1.491 . S
C1116 H1107 0.950 . S
C1116 C1115 1.398 . S
C1116 C1117 1.391 . S
C1117 H1105 0.950 . S
C1117 C1113 1.393 . S
C1117 C1116 1.391 . S
C1118 H1108 0.950 . S
C1118 C1119 1.386 . S
C1118 C1120 1.391 . S
C1119 C1118 1.386 . S
C1119 C1123 1.393 . S
C1120 H1109 0.950 . S
C1120 C1118 1.391 . S
C1120 C1121 1.400 . S
C1121 C1115 1.491 . S
C1121 C1120 1.400 . S
C1121 C1122 1.398 . S
C1122 H1110 0.950 . S
C1122 C1121 1.398 . S
C1122 C1123 1.391 . S
C1123 H1111 0.950 . S
C1123 C1119 1.393 . S
C1123 C1122 1.391 . S
H1124 C1132 0.950 . S
H1125 C1137 0.950 . S
H1126 C1134 0.950 . S
H1127 C1136 0.950 . S
H1128 C1138 0.950 . S
H1129 C1140 0.950 . S
H1130 C1142 0.950 . S
H1131 C1143 0.950 . S
C1132 H1124 0.950 . S
C1132 C1133 1.386 . S
C1132 C1134 1.391 . S
C1133 C1132 1.386 . S
C1133 C1137 1.393 . S
C1134 H1126 0.950 . S
C1134 C1132 1.391 . S
C1134 C1135 1.400 . S
C1135 C1134 1.400 . S
C1135 C1136 1.398 . S
C1135 C1141 1.491 . S
C1136 H1127 0.950 . S
C1136 C1135 1.398 . S
C1136 C1137 1.391 . S
C1137 H1125 0.950 . S
C1137 C1133 1.393 . S
C1137 C1136 1.391 . S
C1138 H1128 0.950 . S
C1138 C1139 1.386 . S
C1138 C1140 1.391 . S
C1139 C1138 1.386 . S
C1139 C1143 1.393 . S
C1140 H1129 0.950 . S
C1140 C1138 1.391 . S
C1140 C1141 1.400 . S
C1141 C1135 1.491 . S
C1141 C1140 1.400 . S
C1141 C1142 1.398 . S
C1142 H1130 0.950 . S
C1142 C1141 1.398 . S
C1142 C1143 1.391 . S
C1143 H1131 0.950 . S
C1143 C1139 1.393 . S
C1143 C1142 1.391 . S
H1144 C1152 0.950 . S
H1145 C1157 0.950 . S
H1146 C1154 0.950 . S
H1147 C1156 0.950 . S
H1148 C1158 0.950 . S
H1149 C1160 0.950 . S
H1150 C1162 0.950 . S
H1151 C1163 0.950 . S
C1152 H1144 0.950 . S
C1152 C1153 1.386 . S
C1152 C1154 1.391 . S
C1153 C1152 1.386 . S
C1153 C1157 1.393 . S
C1154 H1146 0.950 . S
C1154 C1152 1.391 . S
C1154 C1155 1.400 . S
C1155 C1154 1.400 . S
C1155 C1156 1.398 . S
C1155 C1161 1.491 . S
C1156 H1147 0.950 . S
C1156 C1155 1.398 . S
C1156 C1157 1.391 . S
C1157 H1145 0.950 . S
C1157 C1153 1.393 . S
C1157 C1156 1.391 . S
C1158 H1148 0.950 . S
C1158 C1159 1.386 . S
C1158 C1160 1.391 . S
C1159 C1158 1.386 . S
C1159 C1163 1.393 . S
C1160 H1149 0.950 . S
C1160 C1158 1.391 . S
C1160 C1161 1.400 . S
C1161 C1155 1.491 . S
C1161 C1160 1.400 . S
C1161 C1162 1.398 . S
C1162 H1150 0.950 . S
C1162 C1161 1.398 . S
C1162 C1163 1.391 . S
C1163 H1151 0.950 . S
C1163 C1159 1.393 . S
C1163 C1162 1.391 . S
H1164 C1172 0.950 . S
H1165 C1177 0.950 . S
H1166 C1174 0.950 . S
H1167 C1176 0.950 . S
H1168 C1178 0.950 . S
H1169 C1180 0.950 . S
H1170 C1182 0.950 . S
H1171 C1183 0.950 . S
C1172 H1164 0.950 . S
C1172 C1173 1.386 . S
C1172 C1174 1.391 . S
C1173 C1172 1.386 . S
C1173 C1177 1.393 . S
C1174 H1166 0.950 . S
C1174 C1172 1.391 . S
C1174 C1175 1.400 . S
C1175 C1174 1.400 . S
C1175 C1176 1.398 . S
C1175 C1181 1.491 . S
C1176 H1167 0.950 . S
C1176 C1175 1.398 . S
C1176 C1177 1.391 . S
C1177 H1165 0.950 . S
C1177 C1173 1.393 . S
C1177 C1176 1.391 . S
C1178 H1168 0.950 . S
C1178 C1179 1.386 . S
C1178 C1180 1.391 . S
C1179 C1178 1.386 . S
C1179 C1183 1.393 . S
C1180 H1169 0.950 . S
C1180 C1178 1.391 . S
C1180 C1181 1.400 . S
C1181 C1175 1.491 . S
C1181 C1180 1.400 . S
C1181 C1182 1.398 . S
C1182 H1170 0.950 . S
C1182 C1181 1.398 . S
C1182 C1183 1.391 . S
C1183 H1171 0.950 . S
C1183 C1179 1.393 . S
C1183 C1182 1.391 . S
H1184 C1192 0.950 . S
H1185 C1197 0.950 . S
H1186 C1194 0.950 . S
H1187 C1196 0.950 . S
H1188 C1198 0.950 . S
H1189 C1200 0.950 . S
H1190 C1202 0.950 . S
H1191 C1203 0.950 . S
C1192 H1184 0.950 . S
C1192 C1193 1.386 . S
C1192 C1194 1.391 . S
C1193 C1192 1.386 . S
C1193 C1197 1.393 . S
C1194 H1186 0.950 . S
C1194 C1192 1.391 . S
C1194 C1195 1.400 . S
C1195 C1194 1.400 . S
C1195 C1196 1.398 . S
C1195 C1201 1.491 . S
C1196 H1187 0.950 . S
C1196 C1195 1.398 . S
C1196 C1197 1.391 . S
C1197 H1185 0.950 . S
C1197 C1193 1.393 . S
C1197 C1196 1.391 . S
C1198 H1188 0.950 . S
C1198 C1199 1.386 . S
C1198 C1200 1.391 . S
C1199 C1198 1.386 . S
C1199 C1203 1.393 . S
C1200 H1189 0.950 . S
C1200 C1198 1.391 . S
C1200 C1201 1.400 . S
C1201 C1195 1.491 . S
C1201 C1200 1.400 . S
C1201 C1202 1.398 . S
C1202 H1190 0.950 . S
C1202 C1201 1.398 . S
C1202 C1203 1.391 . S
C1203 H1191 0.950 . S
C1203 C1199 1.393 . S
C1203 C1202 1.391 . S
H1204 C1212 0.950 . S
H1205 C1217 0.950 . S
H1206 C1214 0.950 . S
H1207 C1216 0.950 . S
H1208 C1218 0.950 . S
H1209 C1220 0.950 . S
H1210 C1222 0.950 . S
H1211 C1223 0.950 . S
C1212 H1204 0.950 . S
C1212 C1213 1.386 . S
C1212 C1214 1.391 . S
C1213 C1212 1.386 . S
C1213 C1217 1.393 . S
C1214 H1206 0.950 . S
C1214 C1212 1.391 . S
C1214 C1215 1.400 . S
C1215 C1214 1.400 . S
C1215 C1216 1.398 . S
C1215 C1221 1.491 . S
C1216 H1207 0.950 . S
C1216 C1215 1.398 . S
C1216 C1217 1.391 . S
C1217 H1205 0.950 . S
C1217 C1213 1.393 . S
C1217 C1216 1.391 . S
C1218 H1208 0.950 . S
C1218 C1219 1.386 . S
C1218 C1220 1.391 . S
C1219 C1218 1.386 . S
C1219 C1223 1.393 . S
C1220 H1209 0.950 . S
C1220 C1218 1.391 . S
C1220 C1221 1.400 . S
C1221 C1215 1.491 . S
C1221 C1220 1.400 . S
C1221 C1222 1.398 . S
C1222 H1210 0.950 . S
C1222 C1221 1.398 . S
C1222 C1223 1.391 . S
C1223 H1211 0.950 . S
C1223 C1219 1.393 . S
C1223 C1222 1.391 . S
H1224 C1232 0.950 . S
H1225 C1237 0.950 . S
H1226 C1234 0.950 . S
H1227 C1236 0.950 . S
H1228 C1238 0.950 . S
H1229 C1240 0.950 . S
H1230 C1242 0.950 . S
H1231 C1243 0.950 . S
C1232 H1224 0.950 . S
C1232 C1233 1.386 . S
C1232 C1234 1.391 . S
C1233 C1232 1.386 . S
C1233 C1237 1.393 . S
C1234 H1226 0.950 . S
C1234 C1232 1.391 . S
C1234 C1235 1.400 . S
C1235 C1234 1.400 . S
C1235 C1236 1.398 . S
C1235 C1241 1.491 . S
C1236 H1227 0.950 . S
C1236 C1235 1.398 . S
C1236 C1237 1.391 . S
C1237 H1225 0.950 . S
C1237 C1233 1.393 . S
C1237 C1236 1.391 . S
C1238 H1228 0.950 . S
C1238 C1239 1.386 . S
C1238 C1240 1.391 . S
C1239 C1238 1.386 . S
C1239 C1243 1.393 . S
C1240 H1229 0.950 . S
C1240 C1238 1.391 . S
C1240 C1241 1.400 . S
C1241 C1235 1.491 . S
C1241 C1240 1.400 . S
C1241 C1242 1.398 . S
C1242 H1230 0.950 . S
C1242 C1241 1.398 . S
C1242 C1243 1.391 . S
C1243 H1231 0.950 . S
C1243 C1239 1.393 . S
C1243 C1242 1.391 . S
H1244 C1252 0.950 . S
H1245 C1257 0.950 . S
H1246 C1254 0.950 . S
H1247 C1256 0.950 . S
H1248 C1258 0.950 . S
H1249 C1260 0.950 . S
H1250 C1262 0.950 . S
H1251 C1263 0.950 . S
C1252 H1244 0.950 . S
C1252 C1253 1.386 . S
C1252 C1254 1.391 . S
C1253 C1252 1.386 . S
C1253 C1257 1.393 . S
C1254 H1246 0.950 . S
C1254 C1252 1.391 . S
C1254 C1255 1.400 . S
C1255 C1254 1.400 . S
C1255 C1256 1.398 . S
C1255 C1261 1.491 . S
C1256 H1247 0.950 . S
C1256 C1255 1.398 . S
C1256 C1257 1.391 . S
C1257 H1245 0.950 . S
C1257 C1253 1.393 . S
C1257 C1256 1.391 . S
C1258 H1248 0.950 . S
C1258 C1259 1.386 . S
C1258 C1260 1.391 . S
C1259 C1258 1.386 . S
C1259 C1263 1.393 . S
C1260 H1249 0.950 . S
C1260 C1258 1.391 . S
C1260 C1261 1.400 . S
C1261 C1255 1.491 . S
C1261 C1260 1.400 . S
C1261 C1262 1.398 . S
C1262 H1250 0.950 . S
C1262 C1261 1.398 . S
C1262 C1263 1.391 . S
C1263 H1251 0.950 . S
C1263 C1259 1.393 . S
C1263 C1262 1.391 . S
H1264 C1272 0.950 . S
H1265 C1277 0.950 . S
H1266 C1274 0.950 . S
H1267 C1276 0.950 . S
H1268 C1278 0.950 . S
H1269 C1280 0.950 . S
H1270 C1282 0.950 . S
H1271 C1283 0.950 . S
C1272 H1264 0.950 . S
C1272 C1273 1.386 . S
C1272 C1274 1.391 . S
C1273 C1272 1.386 . S
C1273 C1277 1.393 . S
C1274 H1266 0.950 . S
C1274 C1272 1.391 . S
C1274 C1275 1.400 . S
C1275 C1274 1.400 . S
C1275 C1276 1.398 . S
C1275 C1281 1.491 . S
C1276 H1267 0.950 . S
C1276 C1275 1.398 . S
C1276 C1277 1.391 . S
C1277 H1265 0.950 . S
C1277 C1273 1.393 . S
C1277 C1276 1.391 . S
C1278 H1268 0.950 . S
C1278 C1279 1.386 . S
C1278 C1280 1.391 . S
C1279 C1278 1.386 . S
C1279 C1283 1.393 1_565 S
C1280 H1269 0.950 . S
C1280 C1278 1.391 . S
C1280 C1281 1.400 . S
C1281 C1275 1.491 . S
C1281 C1280 1.400 . S
C1281 C1282 1.398 . S
C1282 H1270 0.950 . S
C1282 C1281 1.398 . S
C1282 C1283 1.391 1_565 S
C1283 H1271 0.950 . S
C1283 C1279 1.393 1_545 S
C1283 C1282 1.391 1_545 S
H1284 C1292 0.950 . S
H1285 C1297 0.950 1_545 S
H1286 C1294 0.950 . S
H1287 C1296 0.950 . S
H1288 C1298 0.950 . S
H1289 C1300 0.950 . S
H1290 C1302 0.950 . S
H1291 C1303 0.950 . S
C1292 H1284 0.950 . S
C1292 C1293 1.386 . S
C1292 C1294 1.391 . S
C1293 C1292 1.386 . S
C1293 C1297 1.393 . S
C1294 H1286 0.950 . S
C1294 C1292 1.391 . S
C1294 C1295 1.400 . S
C1295 C1294 1.400 . S
C1295 C1296 1.398 . S
C1295 C1301 1.491 . S
C1296 H1287 0.950 . S
C1296 C1295 1.398 . S
C1296 C1297 1.391 . S
C1297 H1285 0.950 1_565 S
C1297 C1293 1.393 . S
C1297 C1296 1.391 . S
C1298 H1288 0.950 . S
C1298 C1299 1.386 . S
C1298 C1300 1.391 . S
C1299 C1298 1.386 . S
C1299 C1303 1.393 . S
C1300 H1289 0.950 . S
C1300 C1298 1.391 . S
C1300 C1301 1.400 . S
C1301 C1295 1.491 . S
C1301 C1300 1.400 . S
C1301 C1302 1.398 . S
C1302 H1290 0.950 . S
C1302 C1301 1.398 . S
C1302 C1303 1.391 . S
C1303 H1291 0.950 . S
C1303 C1299 1.393 . S
C1303 C1302 1.391 . S
H1304 C1312 0.950 . S
H1305 C1317 0.950 . S
H1306 C1314 0.950 . S
H1307 C1316 0.950 . S
H1308 C1318 0.950 . S
H1309 C1320 0.950 . S
H1310 C1322 0.950 . S
H1311 C1323 0.950 . S
C1312 H1304 0.950 . S
C1312 C1313 1.386 . S
C1312 C1314 1.391 . S
C1313 C1312 1.386 . S
C1313 C1317 1.393 . S
C1314 H1306 0.950 . S
C1314 C1312 1.391 . S
C1314 C1315 1.400 . S
C1315 C1314 1.400 . S
C1315 C1316 1.398 . S
C1315 C1321 1.491 . S
C1316 H1307 0.950 . S
C1316 C1315 1.398 . S
C1316 C1317 1.391 . S
C1317 H1305 0.950 . S
C1317 C1313 1.393 . S
C1317 C1316 1.391 . S
C1318 H1308 0.950 . S
C1318 C1319 1.386 1_565 S
C1318 C1320 1.391 1_565 S
C1319 C1318 1.386 1_545 S
C1319 C1323 1.393 . S
C1320 H1309 0.950 . S
C1320 C1318 1.391 1_545 S
C1320 C1321 1.400 . S
C1321 C1315 1.491 . S
C1321 C1320 1.400 . S
C1321 C1322 1.398 . S
C1322 H1310 0.950 . S
C1322 C1321 1.398 . S
C1322 C1323 1.391 . S
C1323 H1311 0.950 . S
C1323 C1319 1.393 . S
C1323 C1322 1.391 . S
H1324 C1332 0.950 . S
H1325 C1337 0.950 . S
H1326 C1334 0.950 . S
H1327 C1336 0.950 . S
H1328 C1338 0.950 . S
H1329 C1340 0.950 . S
H1330 C1342 0.950 . S
H1331 C1343 0.950 . S
C1332 H1324 0.950 . S
C1332 C1333 1.386 . S
C1332 C1334 1.391 . S
C1333 C1332 1.386 . S
C1333 C1337 1.393 . S
C1334 H1326 0.950 . S
C1334 C1332 1.391 . S
C1334 C1335 1.400 . S
C1335 C1334 1.400 . S
C1335 C1336 1.398 . S
C1335 C1341 1.491 . S
C1336 H1327 0.950 . S
C1336 C1335 1.398 . S
C1336 C1337 1.391 . S
C1337 H1325 0.950 . S
C1337 C1333 1.393 . S
C1337 C1336 1.391 . S
C1338 H1328 0.950 . S
C1338 C1339 1.386 . S
C1338 C1340 1.391 . S
C1339 C1338 1.386 . S
C1339 C1343 1.393 . S
C1340 H1329 0.950 . S
C1340 C1338 1.391 . S
C1340 C1341 1.400 . S
C1341 C1335 1.491 . S
C1341 C1340 1.400 . S
C1341 C1342 1.398 . S
C1342 H1330 0.950 . S
C1342 C1341 1.398 . S
C1342 C1343 1.391 . S
C1343 H1331 0.950 . S
C1343 C1339 1.393 . S
C1343 C1342 1.391 . S
H1344 C1352 0.950 . S
H1345 C1357 0.950 1_565 S
H1346 C1354 0.950 . S
H1347 C1356 0.950 . S
H1348 C1358 0.950 . S
H1349 C1360 0.950 . S
H1350 C1362 0.950 . S
H1351 C1363 0.950 . S
C1352 H1344 0.950 . S
C1352 C1353 1.386 . S
C1352 C1354 1.391 . S
C1353 C1352 1.386 . S
C1353 C1357 1.393 . S
C1354 H1346 0.950 . S
C1354 C1352 1.391 . S
C1354 C1355 1.400 . S
C1355 C1354 1.400 . S
C1355 C1356 1.398 . S
C1355 C1361 1.491 . S
C1356 H1347 0.950 . S
C1356 C1355 1.398 . S
C1356 C1357 1.391 . S
C1357 H1345 0.950 1_545 S
C1357 C1353 1.393 . S
C1357 C1356 1.391 . S
C1358 H1348 0.950 . S
C1358 C1359 1.386 . S
C1358 C1360 1.391 . S
C1359 C1358 1.386 . S
C1359 C1363 1.393 . S
C1360 H1349 0.950 . S
C1360 C1358 1.391 . S
C1360 C1361 1.400 . S
C1361 C1355 1.491 . S
C1361 C1360 1.400 . S
C1361 C1362 1.398 . S
C1362 H1350 0.950 . S
C1362 C1361 1.398 . S
C1362 C1363 1.391 . S
C1363 H1351 0.950 . S
C1363 C1359 1.393 . S
C1363 C1362 1.391 . S
H1364 C1372 0.950 . S
H1365 C1377 0.950 . S
H1366 C1374 0.950 . S
H1367 C1376 0.950 . S
H1368 C1378 0.950 . S
H1369 C1380 0.950 . S
H1370 C1382 0.950 . S
H1371 C1383 0.950 1_565 S
C1372 H1364 0.950 . S
C1372 C1373 1.386 . S
C1372 C1374 1.391 . S
C1373 C1372 1.386 . S
C1373 C1377 1.393 . S
C1374 H1366 0.950 . S
C1374 C1372 1.391 . S
C1374 C1375 1.400 . S
C1375 C1374 1.400 . S
C1375 C1376 1.398 . S
C1375 C1381 1.491 . S
C1376 H1367 0.950 . S
C1376 C1375 1.398 . S
C1376 C1377 1.391 . S
C1377 H1365 0.950 . S
C1377 C1373 1.393 . S
C1377 C1376 1.391 . S
C1378 H1368 0.950 . S
C1378 C1379 1.386 . S
C1378 C1380 1.391 . S
C1379 C1378 1.386 . S
C1379 C1383 1.393 . S
C1380 H1369 0.950 . S
C1380 C1378 1.391 . S
C1380 C1381 1.400 . S
C1381 C1375 1.491 . S
C1381 C1380 1.400 . S
C1381 C1382 1.398 . S
C1382 H1370 0.950 . S
C1382 C1381 1.398 . S
C1382 C1383 1.391 . S
C1383 H1371 0.950 1_545 S
C1383 C1379 1.393 . S
C1383 C1382 1.391 . S
H1384 C1392 0.950 . S
H1385 C1397 0.950 . S
H1386 C1394 0.950 . S
H1387 C1396 0.950 . S
H1388 C1398 0.950 . S
H1389 C1400 0.950 . S
H1390 C1402 0.950 . S
H1391 C1403 0.950 . S
C1392 H1384 0.950 . S
C1392 C1393 1.386 . S
C1392 C1394 1.391 . S
C1393 C1392 1.386 . S
C1393 C1397 1.393 . S
C1394 H1386 0.950 . S
C1394 C1392 1.391 . S
C1394 C1395 1.400 . S
C1395 C1394 1.400 . S
C1395 C1396 1.398 . S
C1395 C1401 1.491 . S
C1396 H1387 0.950 . S
C1396 C1395 1.398 . S
C1396 C1397 1.391 . S
C1397 H1385 0.950 . S
C1397 C1393 1.393 . S
C1397 C1396 1.391 . S
C1398 H1388 0.950 . S
C1398 C1399 1.386 . S
C1398 C1400 1.391 . S
C1399 C1398 1.386 . S
C1399 C1403 1.393 . S
C1400 H1389 0.950 . S
C1400 C1398 1.391 . S
C1400 C1401 1.400 . S
C1401 C1395 1.491 . S
C1401 C1400 1.400 . S
C1401 C1402 1.398 . S
C1402 H1390 0.950 . S
C1402 C1401 1.398 . S
C1402 C1403 1.391 . S
C1403 H1391 0.950 . S
C1403 C1399 1.393 . S
C1403 C1402 1.391 . S
H1404 C1412 0.950 1_545 S
H1405 C1417 0.950 . S
H1406 C1414 0.950 . S
H1407 C1416 0.950 . S
H1408 C1418 0.950 . S
H1409 C1420 0.950 . S
H1410 C1422 0.950 . S
H1411 C1423 0.950 . S
C1412 H1404 0.950 1_565 S
C1412 C1413 1.386 . S
C1412 C1414 1.391 . S
C1413 C1412 1.386 . S
C1413 C1417 1.393 . S
C1414 H1406 0.950 . S
C1414 C1412 1.391 . S
C1414 C1415 1.400 . S
C1415 C1414 1.400 . S
C1415 C1416 1.398 . S
C1415 C1421 1.491 . S
C1416 H1407 0.950 . S
C1416 C1415 1.398 . S
C1416 C1417 1.391 . S
C1417 H1405 0.950 . S
C1417 C1413 1.393 . S
C1417 C1416 1.391 . S
C1418 H1408 0.950 . S
C1418 C1419 1.386 . S
C1418 C1420 1.391 . S
C1419 C1418 1.386 . S
C1419 C1423 1.393 . S
C1420 H1409 0.950 . S
C1420 C1418 1.391 . S
C1420 C1421 1.400 . S
C1421 C1415 1.491 . S
C1421 C1420 1.400 . S
C1421 C1422 1.398 . S
C1422 H1410 0.950 . S
C1422 C1421 1.398 . S
C1422 C1423 1.391 . S
C1423 H1411 0.950 . S
C1423 C1419 1.393 . S
C1423 C1422 1.391 . S
H1424 C1432 0.950 . S
H1425 C1437 0.950 . S
H1426 C1434 0.950 . S
H1427 C1436 0.950 . S
H1428 C1438 0.950 . S
H1429 C1440 0.950 . S
H1430 C1442 0.950 . S
H1431 C1443 0.950 . S
C1432 H1424 0.950 . S
C1432 C1433 1.386 . S
C1432 C1434 1.391 . S
C1433 C1432 1.386 . S
C1433 C1437 1.393 . S
C1434 H1426 0.950 . S
C1434 C1432 1.391 . S
C1434 C1435 1.400 . S
C1435 C1434 1.400 . S
C1435 C1436 1.398 . S
C1435 C1441 1.491 . S
C1436 H1427 0.950 . S
C1436 C1435 1.398 . S
C1436 C1437 1.391 . S
C1437 H1425 0.950 . S
C1437 C1433 1.393 . S
C1437 C1436 1.391 . S
C1438 H1428 0.950 . S
C1438 C1439 1.386 . S
C1438 C1440 1.391 . S
C1439 C1438 1.386 . S
C1439 C1443 1.393 . S
C1440 H1429 0.950 . S
C1440 C1438 1.391 . S
C1440 C1441 1.400 . S
C1441 C1435 1.491 . S
C1441 C1440 1.400 . S
C1441 C1442 1.398 . S
C1442 H1430 0.950 . S
C1442 C1441 1.398 . S
C1442 C1443 1.391 . S
C1443 H1431 0.950 . S
C1443 C1439 1.393 . S
C1443 C1442 1.391 . S
H1444 C1452 0.950 . S
H1445 C1457 0.950 . S
H1446 C1454 0.950 . S
H1447 C1456 0.950 . S
H1448 C1458 0.950 . S
H1449 C1460 0.950 . S
H1450 C1462 0.950 . S
H1451 C1463 0.950 . S
C1452 H1444 0.950 . S
C1452 C1453 1.386 . S
C1452 C1454 1.391 . S
C1453 C1452 1.386 . S
C1453 C1457 1.393 . S
C1454 H1446 0.950 . S
C1454 C1452 1.391 . S
C1454 C1455 1.400 . S
C1455 C1454 1.400 . S
C1455 C1456 1.398 . S
C1455 C1461 1.491 . S
C1456 H1447 0.950 . S
C1456 C1455 1.398 . S
C1456 C1457 1.391 . S
C1457 H1445 0.950 . S
C1457 C1453 1.393 . S
C1457 C1456 1.391 . S
C1458 H1448 0.950 . S
C1458 C1459 1.386 . S
C1458 C1460 1.391 . S
C1459 C1458 1.386 . S
C1459 C1463 1.393 . S
C1460 H1449 0.950 . S
C1460 C1458 1.391 . S
C1460 C1461 1.400 . S
C1461 C1455 1.491 . S
C1461 C1460 1.400 . S
C1461 C1462 1.398 . S
C1462 H1450 0.950 . S
C1462 C1461 1.398 . S
C1462 C1463 1.391 . S
C1463 H1451 0.950 . S
C1463 C1459 1.393 . S
C1463 C1462 1.391 . S
H1464 C1472 0.950 . S
H1465 C1477 0.950 . S
H1466 C1474 0.950 . S
H1467 C1476 0.950 . S
H1468 C1478 0.950 . S
H1469 C1480 0.950 . S
H1470 C1482 0.950 . S
H1471 C1483 0.950 . S
C1472 H1464 0.950 . S
C1472 C1473 1.386 . S
C1472 C1474 1.391 . S
C1473 C1472 1.386 . S
C1473 C1477 1.393 . S
C1474 H1466 0.950 . S
C1474 C1472 1.391 . S
C1474 C1475 1.400 . S
C1475 C1474 1.400 . S
C1475 C1476 1.398 . S
C1475 C1481 1.491 . S
C1476 H1467 0.950 . S
C1476 C1475 1.398 . S
C1476 C1477 1.391 . S
C1477 H1465 0.950 . S
C1477 C1473 1.393 . S
C1477 C1476 1.391 . S
C1478 H1468 0.950 . S
C1478 C1479 1.386 . S
C1478 C1480 1.391 . S
C1479 C1478 1.386 . S
C1479 C1483 1.393 . S
C1480 H1469 0.950 . S
C1480 C1478 1.391 . S
C1480 C1481 1.400 . S
C1481 C1475 1.491 . S
C1481 C1480 1.400 . S
C1481 C1482 1.398 . S
C1482 H1470 0.950 . S
C1482 C1481 1.398 . S
C1482 C1483 1.391 . S
C1483 H1471 0.950 . S
C1483 C1479 1.393 . S
C1483 C1482 1.391 . S
H1484 C1492 0.950 . S
H1485 C1497 0.950 . S
H1486 C1494 0.950 . S
H1487 C1496 0.950 . S
H1488 C1498 0.950 . S
H1489 C1500 0.950 . S
H1490 C1502 0.950 . S
H1491 C1503 0.950 . S
C1492 H1484 0.950 . S
C1492 C1493 1.386 . S
C1492 C1494 1.391 . S
C1493 C1492 1.386 . S
C1493 C1497 1.393 . S
C1494 H1486 0.950 . S
C1494 C1492 1.391 . S
C1494 C1495 1.400 . S
C1495 C1494 1.400 . S
C1495 C1496 1.398 . S
C1495 C1501 1.491 . S
C1496 H1487 0.950 . S
C1496 C1495 1.398 . S
C1496 C1497 1.391 . S
C1497 H1485 0.950 . S
C1497 C1493 1.393 . S
C1497 C1496 1.391 . S
C1498 H1488 0.950 . S
C1498 C1499 1.386 . S
C1498 C1500 1.391 . S
C1499 C1498 1.386 . S
C1499 C1503 1.393 . S
C1500 H1489 0.950 . S
C1500 C1498 1.391 . S
C1500 C1501 1.400 . S
C1501 C1495 1.491 . S
C1501 C1500 1.400 . S
C1501 C1502 1.398 . S
C1502 H1490 0.950 . S
C1502 C1501 1.398 . S
C1502 C1503 1.391 . S
C1503 H1491 0.950 . S
C1503 C1499 1.393 . S
C1503 C1502 1.391 . S
H1504 C1512 0.950 . S
H1505 C1517 0.950 . S
H1506 C1514 0.950 . S
H1507 C1516 0.950 . S
H1508 C1518 0.950 . S
H1509 C1520 0.950 . S
H1510 C1522 0.950 . S
H1511 C1523 0.950 . S
C1512 H1504 0.950 . S
C1512 C1513 1.386 . S
C1512 C1514 1.391 . S
C1513 C1512 1.386 . S
C1513 C1517 1.393 . S
C1514 H1506 0.950 . S
C1514 C1512 1.391 . S
C1514 C1515 1.400 . S
C1515 C1514 1.400 . S
C1515 C1516 1.398 . S
C1515 C1521 1.491 . S
C1516 H1507 0.950 . S
C1516 C1515 1.398 . S
C1516 C1517 1.391 . S
C1517 H1505 0.950 . S
C1517 C1513 1.393 . S
C1517 C1516 1.391 . S
C1518 H1508 0.950 . S
C1518 C1519 1.386 . S
C1518 C1520 1.391 . S
C1519 C1518 1.386 . S
C1519 C1523 1.393 . S
C1520 H1509 0.950 . S
C1520 C1518 1.391 . S
C1520 C1521 1.400 . S
C1521 C1515 1.491 . S
C1521 C1520 1.400 . S
C1521 C1522 1.398 . S
C1522 H1510 0.950 . S
C1522 C1521 1.398 . S
C1522 C1523 1.391 . S
C1523 H1511 0.950 . S
C1523 C1519 1.393 . S
C1523 C1522 1.391 . S
H1524 C1532 0.950 . S
H1525 C1537 0.950 . S
H1526 C1534 0.950 . S
H1527 C1536 0.950 . S
H1528 C1538 0.950 . S
H1529 C1540 0.950 . S
H1530 C1542 0.950 . S
H1531 C1543 0.950 . S
C1532 H1524 0.950 . S
C1532 C1533 1.386 . S
C1532 C1534 1.391 . S
C1533 C1532 1.386 . S
C1533 C1537 1.393 . S
C1534 H1526 0.950 . S
C1534 C1532 1.391 . S
C1534 C1535 1.400 . S
C1535 C1534 1.400 . S
C1535 C1536 1.398 . S
C1535 C1541 1.491 . S
C1536 H1527 0.950 . S
C1536 C1535 1.398 . S
C1536 C1537 1.391 . S
C1537 H1525 0.950 . S
C1537 C1533 1.393 . S
C1537 C1536 1.391 . S
C1538 H1528 0.950 . S
C1538 C1539 1.386 . S
C1538 C1540 1.391 . S
C1539 C1538 1.386 . S
C1539 C1543 1.393 . S
C1540 H1529 0.950 . S
C1540 C1538 1.391 . S
C1540 C1541 1.400 . S
C1541 C1535 1.491 . S
C1541 C1540 1.400 . S
C1541 C1542 1.398 . S
C1542 H1530 0.950 . S
C1542 C1541 1.398 . S
C1542 C1543 1.391 . S
C1543 H1531 0.950 . S
C1543 C1539 1.393 . S
C1543 C1542 1.391 . S
H1544 C1552 0.950 . S
H1545 C1557 0.950 . S
H1546 C1554 0.950 . S
H1547 C1556 0.950 . S
H1548 C1558 0.950 . S
H1549 C1560 0.950 . S
H1550 C1562 0.950 . S
H1551 C1563 0.950 . S
C1552 H1544 0.950 . S
C1552 C1553 1.386 . S
C1552 C1554 1.391 . S
C1553 C1552 1.386 . S
C1553 C1557 1.393 . S
C1554 H1546 0.950 . S
C1554 C1552 1.391 . S
C1554 C1555 1.400 . S
C1555 C1554 1.400 . S
C1555 C1556 1.398 . S
C1555 C1561 1.491 . S
C1556 H1547 0.950 . S
C1556 C1555 1.398 . S
C1556 C1557 1.391 . S
C1557 H1545 0.950 . S
C1557 C1553 1.393 . S
C1557 C1556 1.391 . S
C1558 H1548 0.950 . S
C1558 C1559 1.386 . S
C1558 C1560 1.391 . S
C1559 C1558 1.386 . S
C1559 C1563 1.393 . S
C1560 H1549 0.950 . S
C1560 C1558 1.391 . S
C1560 C1561 1.400 . S
C1561 C1555 1.491 . S
C1561 C1560 1.400 . S
C1561 C1562 1.398 . S
C1562 H1550 0.950 . S
C1562 C1561 1.398 . S
C1562 C1563 1.391 . S
C1563 H1551 0.950 . S
C1563 C1559 1.393 . S
C1563 C1562 1.391 . S
H1564 C1572 0.950 . S
H1565 C1577 0.950 . S
H1566 C1574 0.950 . S
H1567 C1576 0.950 . S
H1568 C1578 0.950 . S
H1569 C1580 0.950 . S
H1570 C1582 0.950 . S
H1571 C1583 0.950 . S
C1572 H1564 0.950 . S
C1572 C1573 1.386 . S
C1572 C1574 1.391 . S
C1573 C1572 1.386 . S
C1573 C1577 1.393 . S
C1574 H1566 0.950 . S
C1574 C1572 1.391 . S
C1574 C1575 1.400 . S
C1575 C1574 1.400 . S
C1575 C1576 1.398 . S
C1575 C1581 1.491 . S
C1576 H1567 0.950 . S
C1576 C1575 1.398 . S
C1576 C1577 1.391 . S
C1577 H1565 0.950 . S
C1577 C1573 1.393 . S
C1577 C1576 1.391 . S
C1578 H1568 0.950 . S
C1578 C1579 1.386 . S
C1578 C1580 1.391 . S
C1579 C1578 1.386 . S
C1579 C1583 1.393 . S
C1580 H1569 0.950 . S
C1580 C1578 1.391 . S
C1580 C1581 1.400 . S
C1581 C1575 1.491 . S
C1581 C1580 1.400 . S
C1581 C1582 1.398 . S
C1582 H1570 0.950 . S
C1582 C1581 1.398 . S
C1582 C1583 1.391 . S
C1583 H1571 0.950 . S
C1583 C1579 1.393 . S
C1583 C1582 1.391 . S
C473 C137 1.494 . S
C479 C21 1.492 . S
C493 C50 1.492 . S
C499 C166 1.494 . S
C513 C195 1.502 . S
C519 C79 1.499 . S
C533 C224 1.498 . S
C539 C108 1.496 . S
C553 C311 1.522 . S
C559 C253 1.524 . S
C573 C282 1.495 . S
C579 C340 1.497 . S
C593 C427 1.504 . S
C599 C369 1.506 . S
C613 C398 1.516 . S
C619 C456 1.519 . S
C633 C100 1.917 . S
C639 C5 1.938 . S
C653 C13 1.919 1_565 S
C659 C34 1.945 . S
C673 C42 1.934 . S
C679 C63 1.940 . S
C693 C92 1.938 . S
C699 C71 1.932 1_545 S
C713 C158 1.926 . S
C719 C121 1.935 . S
C733 C187 1.919 1_565 S
C739 C150 1.945 . S
C753 C216 1.917 . S
C759 C179 1.942 . S
C773 C129 1.925 1_545 S
C779 C208 1.950 . S
C793 C124 1.173 . S
C799 C276 1.257 . S
C813 C240 1.185 . S
C819 C131 1.285 . S
C833 C182 1.161 . S
C839 C247 1.279 . S
C853 C269 1.161 . S
C859 C189 1.279 . S
C873 C305 1.267 . S
C879 C8 1.210 . S
C893 C73 1.246 . S
C899 C298 1.204 . S
C913 C334 1.276 . S
C919 C66 1.202 . S
C933 C15 1.258 . S
C939 C327 1.172 . S
C953 C332 1.928 . S
C959 C353 1.935 . S
C973 C361 1.936 . S
C979 C295 1.950 . S
C993 C382 1.938 . S
C999 C303 1.917 . S
C1013 C324 1.937 . S
C1019 C390 1.931 . S
C1033 C411 1.941 . S
C1039 C245 1.917 . S
C1053 C448 1.936 . S
C1059 C237 1.949 . S
C1073 C274 1.922 . S
C1079 C440 1.948 . S
C1093 C419 1.936 . S
C1099 C266 1.950 . S
C1113 C218 1.262 . S
C1119 C414 1.213 . S
C1133 C421 1.253 . S
C1139 C153 1.214 . S
C1153 C443 1.183 . S
C1159 C160 1.286 . S
C1173 C211 1.170 . S
C1179 C450 1.287 . S
C1193 C44 1.261 . S
C1199 C356 1.213 . S
C1213 C37 1.206 . S
C1219 C392 1.272 . S
C1233 C385 1.205 . S
C1239 C102 1.245 . S
C1253 C363 1.268 . S
C1259 C95 1.210 . S
C1273 C148 0.700 . S
C1279 C3 0.721 . S
C1293 C177 0.722 . S
C1299 C32 0.683 . S
C1313 C206 0.726 . S
C1319 C61 0.683 . S
C1333 C90 0.680 . S
C1339 C119 0.726 . S
C1353 C126 3.080 1_545 S
C1359 C300 3.076 . S
C1373 C242 3.070 . S
C1379 C68 3.063 1_545 S
C1393 C329 3.080 . S
C1399 C184 3.074 1_565 S
C1413 C10 3.064 1_565 S
C1419 C271 3.074 . S
C1433 C351 0.729 . S
C1439 C235 0.678 . S
C1453 C293 0.711 . S
C1459 C438 0.689 . S
C1473 C380 0.688 . S
C1479 C264 0.726 . S
C1493 C409 0.678 . S
C1499 C322 0.729 . S
C1513 C39 3.080 . S
C1519 C416 3.072 . S
C1533 C387 3.064 . S
C1539 C155 3.074 . S
C1553 C97 3.080 . S
C1559 C445 3.072 . S
C1573 C213 3.063 . S
C1579 C358 3.070 . S
