# Generated by pormake.
# Topology qtz-e, (6)-cn, num edge types: 1
# Building blocks:
#     Node 0, Type 0, BuildingBlock: BETGAK_clean_sbu_0, # of connection points: 6
#     Node 1, Type 0, BuildingBlock: BETGAK_clean_sbu_0, # of connection points: 6
#     Node 2, Type 0, BuildingBlock: BETGAK_clean_sbu_0, # of connection points: 6
#     Node 3, Type 0, BuildingBlock: BETGAK_clean_sbu_0, # of connection points: 6
#     Node 4, Type 0, BuildingBlock: BETGAK_clean_sbu_0, # of connection points: 6
#     Node 5, Type 0, BuildingBlock: BETGAK_clean_sbu_0, # of connection points: 6
#     Edge 6, Type (0, 0), BuildingBlock: EZIPEK_clean_linker_0, # of connection points: 2
#     Edge 7, Type (0, 0), BuildingBlock: EZIPEK_clean_linker_0, # of connection points: 2
#     Edge 8, Type (0, 0), BuildingBlock: EZIPEK_clean_linker_0, # of connection points: 2
#     Edge 9, Type (0, 0), BuildingBlock: EZIPEK_clean_linker_0, # of connection points: 2
#     Edge 10, Type (0, 0), BuildingBlock: EZIPEK_clean_linker_0, # of connection points: 2
#     Edge 11, Type (0, 0), BuildingBlock: EZIPEK_clean_linker_0, # of connection points: 2
#     Edge 12, Type (0, 0), BuildingBlock: EZIPEK_clean_linker_0, # of connection points: 2
#     Edge 13, Type (0, 0), BuildingBlock: EZIPEK_clean_linker_0, # of connection points: 2
#     Edge 14, Type (0, 0), BuildingBlock: EZIPEK_clean_linker_0, # of connection points: 2
#     Edge 15, Type (0, 0), BuildingBlock: EZIPEK_clean_linker_0, # of connection points: 2
#     Edge 16, Type (0, 0), BuildingBlock: EZIPEK_clean_linker_0, # of connection points: 2
#     Edge 17, Type (0, 0), BuildingBlock: EZIPEK_clean_linker_0, # of connection points: 2
#     Edge 18, Type (0, 0), BuildingBlock: EZIPEK_clean_linker_0, # of connection points: 2
#     Edge 19, Type (0, 0), BuildingBlock: EZIPEK_clean_linker_0, # of connection points: 2
#     Edge 20, Type (0, 0), BuildingBlock: EZIPEK_clean_linker_0, # of connection points: 2
#     Edge 21, Type (0, 0), BuildingBlock: EZIPEK_clean_linker_0, # of connection points: 2
#     Edge 22, Type (0, 0), BuildingBlock: EZIPEK_clean_linker_0, # of connection points: 2
#     Edge 23, Type (0, 0), BuildingBlock: EZIPEK_clean_linker_0, # of connection points: 2
# Relax obj value: 0.229
# Max RMSD: 0.229
# Mean RMSD: 0.229
data_MOF--net-qtz-e--node1-BETGAK_clean_sbu_0--edge1-EZIPEK_clean_linker_0
_symmetry_space_group_name_H-M    P1
_symmetry_Int_Tables_number       1
_symmetry_cell_setting            triclinic
loop_
_symmetry_equiv_pos_as_xyz
'x, y, z'
_cell_length_a     19.116462
_cell_length_b     19.183049
_cell_length_c     40.20399
_cell_angle_alpha  90.272479
_cell_angle_beta   90.395986
_cell_angle_gamma 120.58333
loop_
_atom_site_label
_atom_site_type_symbol
_atom_site_fract_x
_atom_site_fract_y
_atom_site_fract_z
_atom_type_partial_charge
La0 La 0.19266 0.58401 0.23916 0.0
La1 La 0.11675 0.40601 0.21386 0.0
C2 C 0.23684 0.72311 0.26092 0.0
C3 C 0.27222 0.7582 0.29421 0.0
C4 C 0.3566 0.796 0.29997 0.0
C5 C 0.38885 0.81785 0.33224 0.0
C6 C 0.33757 0.80354 0.35933 0.0
C7 C 0.2538 0.76894 0.35366 0.0
C8 C 0.22139 0.74659 0.32143 0.0
C9 C 0.28757 0.52109 0.2445 0.0
C10 C 0.09346 0.43781 0.29004 0.0
C11 C 0.10987 0.28135 0.18945 0.0
C12 C 0.12931 0.26431 0.15578 0.0
C13 C 0.11227 0.29551 0.12719 0.0
C14 C 0.12868 0.2774 0.09541 0.0
C15 C 0.16267 0.22803 0.09159 0.0
C16 C 0.18202 0.19877 0.1201 0.0
C17 C 0.16542 0.21677 0.15193 0.0
C18 C 0.01421 0.46103 0.2049 0.0
C19 C 0.19787 0.5474 0.16133 0.0
O20 O 0.28192 0.70742 0.24132 0.0
O21 O 0.16069 0.66402 0.26064 0.0
O22 O 0.27793 0.56298 0.26727 0.0
O23 O 0.23716 0.50928 0.22175 0.0
O24 O 0.12784 0.51591 0.28307 0.0
O25 O 0.08813 0.38416 0.26742 0.0
O26 O 0.04719 0.29137 0.19139 0.0
O27 O 0.17122 0.33515 0.20743 0.0
O28 O 0.99909 0.3891 0.19673 0.0
O29 O 0.08322 0.49507 0.21837 0.0
O30 O 0.16749 0.47004 0.16797 0.0
O31 O 0.20973 0.60267 0.1845 0.0
H32 H 0.39768 0.80686 0.27964 0.0
H33 H 0.4538 0.84561 0.33612 0.0
H34 H 0.21344 0.75852 0.37426 0.0
H35 H 0.15623 0.71828 0.318 0.0
H36 H 0.08517 0.33301 0.12932 0.0
H37 H 0.11352 0.30071 0.07376 0.0
H38 H 0.20837 0.16065 0.11763 0.0
H39 H 0.17986 0.19274 0.17355 0.0
La40 La 0.86463 0.40269 0.4795 0.0
La41 La 0.9417 0.30295 0.50321 0.0
C42 C 0.81286 0.49244 0.45997 0.0
C43 C 0.77797 0.48943 0.42697 0.0
C44 C 0.77499 0.43378 0.40338 0.0
C45 C 0.74885 0.43301 0.37102 0.0
C46 C 0.72656 0.489 0.36139 0.0
C47 C 0.72696 0.5435 0.38503 0.0
C48 C 0.75271 0.54373 0.41783 0.0
C49 C 0.7704 0.24256 0.4737 0.0
C50 C 0.96885 0.36554 0.42804 0.0
C51 C 0.94997 0.18574 0.52655 0.0
C52 C 0.91578 0.13766 0.55722 0.0
C53 C 0.96537 0.12044 0.57734 0.0
C54 C 0.9392 0.0855 0.60869 0.0
C55 C 0.86251 0.06634 0.62051 0.0
C56 C 0.81135 0.08061 0.59993 0.0
C57 C 0.8382 0.11701 0.56876 0.0
C58 C 0.04633 0.46149 0.51081 0.0
C59 C 0.86178 0.36324 0.55635 0.0
O60 O 0.77012 0.42831 0.4783 0.0
O61 O 0.88984 0.51402 0.45945 0.0
O62 O 0.78193 0.29423 0.45098 0.0
O63 O 0.82053 0.28236 0.49654 0.0
O64 O 0.93408 0.40797 0.43597 0.0
O65 O 0.97238 0.31441 0.44953 0.0
O66 O 0.0053 0.2616 0.53185 0.0
O67 O 0.89916 0.17777 0.50264 0.0
O68 O 0.06202 0.40493 0.51793 0.0
O69 O 0.97557 0.42597 0.49903 0.0
O70 O 0.88603 0.31189 0.54868 0.0
O71 O 0.85461 0.41008 0.53394 0.0
H72 H 0.79607 0.39286 0.40949 0.0
H73 H 0.74992 0.39138 0.35299 0.0
H74 H 0.71027 0.58746 0.3778 0.0
H75 H 0.75525 0.58755 0.43562 0.0
H76 H 0.02572 0.13667 0.56926 0.0
H77 H 0.97956 0.07493 0.6241 0.0
H78 H 0.75195 0.06628 0.60853 0.0
H79 H 0.79936 0.1313 0.55422 0.0
La80 La 0.47857 0.61934 0.9005 0.0
La81 La 0.65071 0.73181 0.87785 0.0
C82 C 0.34358 0.51833 0.92483 0.0
C83 C 0.3102 0.52499 0.95726 0.0
C84 C 0.31209 0.59692 0.96654 0.0
C85 C 0.2932 0.6081 0.99903 0.0
C86 C 0.27237 0.54786 1.02297 0.0
C87 C 0.26794 0.47506 1.0136 0.0
C88 C 0.28674 0.46375 0.98106 0.0
C89 C 0.52368 0.77613 0.89592 0.0
C90 C 0.62018 0.69132 0.95539 0.0
C91 C 0.77358 0.85601 0.85615 0.0
C92 C 0.78509 0.89474 0.82313 0.0
C93 C 0.85839 0.92264 0.80608 0.0
C94 C 0.86671 0.95086 0.77336 0.0
C95 C 0.80183 0.9516 0.75706 0.0
C96 C 0.72886 0.92489 0.77419 0.0
C97 C 0.72047 0.89658 0.80688 0.0
C98 C 0.60727 0.57818 0.87081 0.0
C99 C 0.51152 0.64105 0.82365 0.0
O100 O 0.35144 0.56934 0.90158 0.0
O101 O 0.4083 0.51209 0.92722 0.0
O102 O 0.47683 0.72708 0.91836 0.0
O103 O 0.54166 0.73511 0.87746 0.0
O104 O 0.54171 0.65049 0.94827 0.0
O105 O 0.6749 0.73031 0.93186 0.0
O106 O 0.76549 0.78402 0.8555 0.0
O107 O 0.72097 0.85892 0.87609 0.0
O108 O 0.66294 0.63825 0.85422 0.0
O109 O 0.5836 0.60736 0.89385 0.0
O110 O 0.58102 0.70723 0.83164 0.0
O111 O 0.46394 0.58973 0.84678 0.0
H112 H 0.33052 0.64573 0.94901 0.0
H113 H 0.29658 0.66451 1.00572 0.0
H114 H 0.25115 0.42757 1.03165 0.0
H115 H 0.28536 0.40815 0.97474 0.0
H116 H 0.90864 0.92088 0.81782 0.0
H117 H 0.92347 0.97114 0.76057 0.0
H118 H 0.67803 0.9248 0.76206 0.0
H119 H 0.6628 0.87454 0.81918 0.0
La120 La 0.63949 0.4978 0.14448 0.0
La121 La 0.74557 0.66554 0.16925 0.0
C122 C 0.53108 0.36095 0.12279 0.0
C123 C 0.52929 0.31967 0.09153 0.0
C124 C 0.60231 0.33409 0.07722 0.0
C125 C 0.60319 0.30802 1.04492 0.0
C126 C 0.53124 0.26811 1.02617 0.0
C127 C 0.4575 0.25084 1.04062 0.0
C128 C 0.45656 0.27649 0.07321 0.0
C129 C 0.79792 0.54822 0.14225 0.0
C130 C 0.69133 0.63968 0.09288 0.0
C131 C 0.86842 0.79481 0.18816 0.0
C132 C 0.9161 0.81019 0.21944 0.0
C133 C 0.9274 0.87295 0.24105 0.0
C134 C 0.96138 0.8807 0.27282 0.0
C135 C 0.98507 0.82607 0.2835 0.0
C136 C 0.97665 0.76504 0.26159 0.0
C137 C 0.94206 0.75682 0.22992 0.0
C138 C 0.59224 0.60411 0.18526 0.0
C139 C 0.68725 0.52779 0.22152 0.0
O140 O 0.58579 0.37095 0.14502 0.0
O141 O 0.52896 0.42727 0.11847 0.0
O142 O 0.74542 0.50647 0.11922 0.0
O143 O 0.76001 0.56306 0.16366 0.0
O144 O 0.65662 0.56125 0.09805 0.0
O145 O 0.72992 0.69292 0.11722 0.0
O146 O 0.7941 0.78015 0.19199 0.0
O147 O 0.87165 0.74515 0.16646 0.0
O148 O 0.65374 0.65862 0.20234 0.0
O149 O 0.61693 0.59285 0.15759 0.0
O150 O 0.74483 0.60116 0.21322 0.0
O151 O 0.63312 0.4774 0.19916 0.0
H152 H 0.65945 0.36853 0.09028 0.0
H153 H 0.6605 0.32174 1.03407 0.0
H154 H 0.40134 0.21946 1.0264 0.0
H155 H 0.39975 0.26555 0.08361 0.0
H156 H 0.90721 0.91426 0.23378 0.0
H157 H 0.96736 0.92811 0.28943 0.0
H158 H 0.99475 0.72246 0.26935 0.0
H159 H 0.93329 0.70703 0.21413 0.0
La160 La 0.42787 0.88613 0.57502 0.0
La161 La 0.31364 0.93575 0.5459 0.0
C162 C 0.53226 0.85941 0.60131 0.0
C163 C 0.52551 0.80763 0.6296 0.0
C164 C 0.458 0.72895 0.63288 0.0
C165 C 0.44523 0.68656 0.66263 0.0
C166 C 0.49894 0.72283 0.68964 0.0
C167 C 0.5672 0.80049 0.68612 0.0
C168 C 0.5806 0.84236 0.65632 0.0
C169 C 0.27146 0.76918 0.57053 0.0
C170 C 0.34968 0.95742 0.62398 0.0
C171 C 0.19015 0.93094 0.52117 0.0
C172 C 0.15393 0.9066 0.48731 0.0
C173 C 0.131 0.95537 0.46998 0.0
C174 C 0.10288 0.93678 0.437 0.0
C175 C 0.09706 0.869 0.42076 0.0
C176 C 0.11878 0.81936 0.43813 0.0
C177 C 0.1473 0.83815 0.47106 0.0
C178 C 0.4677 0.04586 0.538 0.0
C179 C 0.40377 0.88201 0.49659 0.0
O180 O 0.49275 0.82412 0.57381 0.0
O181 O 0.52294 0.91989 0.6097 0.0
O182 O 0.32021 0.77719 0.59457 0.0
O183 O 0.31241 0.82547 0.55105 0.0
O184 O 0.40402 0.9354 0.61959 0.0
O185 O 0.30417 0.9585 0.59913 0.0
O186 O 0.26154 0.99722 0.52289 0.0
O187 O 0.18672 0.87355 0.53994 0.0
O188 O 0.40815 0.03684 0.51933 0.0
O189 O 0.43909 1.00043 0.56327 0.0
O190 O 0.33631 0.88281 0.50247 0.0
O191 O 0.45581 0.89209 0.52103 0.0
H192 H 0.41376 0.70112 0.61293 0.0
H193 H 0.39269 0.62632 0.66485 0.0
H194 H 0.60925 0.82926 0.70674 0.0
H195 H 0.6322 0.90339 0.65461 0.0
H196 H 0.13617 0.00869 0.4818 0.0
H197 H 0.0863 0.97571 0.424 0.0
H198 H 0.11478 0.76687 0.426 0.0
H199 H 0.16532 0.79978 0.4836 0.0
La200 La 0.53236 0.17338 0.81191 0.0
La201 La 0.36824 0.09004 0.83819 0.0
C202 C 0.67674 0.23723 0.7919 0.0
C203 C 0.71018 0.27156 0.75922 0.0
C204 C 0.78968 0.29283 0.75087 0.0
C205 C 0.81791 0.31831 0.71857 0.0
C206 C 0.76656 0.32199 0.69435 0.0
C207 C 0.68827 0.30382 0.70317 0.0
C208 C 0.66024 0.27858 0.73531 0.0
C209 C 0.46014 0.26213 0.81013 0.0
C210 C 0.39252 0.07243 0.76042 0.0
C211 C 0.23249 0.05063 0.8623 0.0
C212 C 0.21797 0.07299 0.89592 0.0
C213 C 0.25957 0.06744 0.92395 0.0
C214 C 0.25107 0.09423 0.95527 0.0
C215 C 0.20141 0.12782 0.95927 0.0
C216 C 0.16041 0.13436 0.93136 0.0
C217 C 0.16856 0.10706 0.89995 0.0
C218 C 0.44874 0.01355 0.84913 0.0
C219 C 0.50872 0.18379 0.88865 0.0
O220 O 0.64928 0.27611 0.80905 0.0
O221 O 0.62564 0.15916 0.79177 0.0
O222 O 0.49778 0.251 0.78605 0.0
O223 O 0.45679 0.21528 0.83265 0.0
O224 O 0.47145 0.11104 0.7661 0.0
O225 O 0.34029 0.06097 0.78444 0.0
O226 O 0.26137 1.00175 0.86129 0.0
O227 O 0.2702 0.11056 0.84157 0.0
O228 O 0.39576 0.01386 0.86875 0.0
O229 O 0.44972 0.04888 0.82252 0.0
O230 O 0.434 0.16445 0.88091 0.0
O231 O 0.55775 0.18275 0.86591 0.0
H232 H 0.82893 0.28757 0.76898 0.0
H233 H 0.87858 0.33228 0.71213 0.0
H234 H 0.6477 0.30585 0.68475 0.0
H235 H 0.59855 0.26195 0.74113 0.0
H236 H 0.29971 0.04331 0.92168 0.0
H237 H 0.2836 0.08914 0.97642 0.0
H238 H 0.12199 0.16039 0.93395 0.0
H239 H 0.13715 0.11351 0.87872 0.0
C240 C 0.39176 0.7892 0.44992 0.0
C241 C 0.4169 0.86851 0.46119 0.0
C242 C 0.40554 0.90864 0.40437 0.0
C243 C 0.37181 0.82708 0.39369 0.0
N244 N 0.33457 0.68924 0.40506 0.0
N245 N 0.47389 0.00855 0.44815 0.0
C246 C 0.36667 0.76733 0.41603 0.0
C247 C 0.43183 0.92971 0.43795 0.0
N248 N 0.39394 0.73596 0.47167 0.0
N249 N 0.40832 0.96502 0.38285 0.0
H250 H 0.49744 0.02387 0.4721 0.0
H251 H 0.49348 0.05797 0.4325 0.0
H252 H 0.39182 0.95262 0.35781 0.0
H253 H 0.42232 0.02292 0.39004 0.0
H254 H 0.38249 0.67859 0.46509 0.0
H255 H 0.41549 0.75303 0.49599 0.0
H256 H 0.32077 0.64061 0.42048 0.0
H257 H 0.31866 0.67218 0.38021 0.0
C258 C 0.75247 0.26936 0.63619 0.0
C259 C 0.79055 0.33549 0.65885 0.0
C260 C 0.87592 0.42307 0.61398 0.0
C261 C 0.83248 0.3587 0.59085 0.0
N262 N 0.71715 0.22663 0.57895 0.0
N263 N 0.87876 0.47866 0.66868 0.0
C264 C 0.76697 0.2837 0.60172 0.0
C265 C 0.84931 0.41357 0.64754 0.0
N266 N 0.70493 0.19222 0.64767 0.0
N267 N 0.94499 0.49136 0.6044 0.0
H268 H 0.86109 0.47357 0.69346 0.0
H269 H 0.91545 0.53823 0.66095 0.0
H270 H 0.96679 0.49872 0.5803 0.0
H271 H 0.98405 0.53704 0.62085 0.0
H272 H 0.68282 0.14097 0.6325 0.0
H273 H 0.69407 0.17862 0.67287 0.0
H274 H 0.66362 0.17422 0.58539 0.0
H275 H 0.72483 0.23617 0.55342 0.0
C276 C 0.15981 0.54641 0.10162 0.0
C277 C 0.22198 0.56993 0.12606 0.0
C278 C 0.32041 0.59459 0.0819 0.0
C279 C 0.256 0.56113 0.05807 0.0
N280 N 0.11415 0.50385 1.0446 0.0
N281 N 0.36077 0.61353 0.14024 0.0
C282 C 0.17571 0.53759 0.06771 0.0
C283 C 0.30248 0.59452 0.11633 0.0
N284 N 0.08533 0.53237 0.11113 0.0
N285 N 0.39878 0.62676 0.07153 0.0
H286 H 0.35049 0.61803 0.16538 0.0
H287 H 0.4177 0.62117 0.13548 0.0
H288 H 0.41384 0.62615 1.04668 0.0
H289 H 0.44932 0.65916 0.08699 0.0
H290 H 0.03879 0.52236 0.09469 0.0
H291 H 0.07246 0.53726 0.13583 0.0
H292 H 0.05288 0.47689 1.05038 0.0
H293 H 0.12398 0.49886 1.01943 0.0
C294 C 0.63393 0.46495 0.31242 0.0
C295 C 0.71342 0.49626 0.32556 0.0
C296 C 0.76847 0.52377 0.26942 0.0
C297 C 0.69095 0.50339 0.25634 0.0
N298 N 0.55105 0.46323 0.26643 0.0
N299 N 0.85843 0.56744 0.31733 0.0
C300 C 0.6236 0.47541 0.27806 0.0
C301 C 0.78131 0.52897 0.30425 0.0
N302 N 0.56832 0.42412 0.33263 0.0
N303 N 0.8297 0.53666 0.24841 0.0
H304 H 0.87071 0.57402 0.34284 0.0
H305 H 0.91034 0.59971 0.30305 0.0
H306 H 0.82206 0.53201 0.22272 0.0
H307 H 0.88486 0.54358 0.25641 0.0
H308 H 0.50863 0.39216 0.32377 0.0
H309 H 0.57388 0.41693 0.35804 0.0
H310 H 0.50294 0.45274 0.28172 0.0
H311 H 0.54109 0.46929 0.24155 0.0
C312 C 0.54563 0.63371 0.76403 0.0
C313 C 0.48861 0.63009 0.78756 0.0
C314 C 0.42686 0.67238 0.74449 0.0
C315 C 0.48642 0.67952 0.72162 0.0
N316 N 0.58535 0.6434 0.70627 0.0
N317 N 0.35742 0.61547 0.79634 0.0
C318 C 0.54 0.65203 0.73033 0.0
C319 C 0.42309 0.639 0.77648 0.0
N320 N 0.60716 0.62246 0.7743 0.0
N321 N 0.37709 0.70169 0.73647 0.0
H322 H 0.35168 0.58775 0.81917 0.0
H323 H 0.30497 0.61473 0.78854 0.0
H324 H 0.37774 0.72616 0.71329 0.0
H325 H 0.33937 0.70703 0.75359 0.0
H326 H 0.65742 0.63541 0.75994 0.0
H327 H 0.60838 0.60227 0.798 0.0
H328 H 0.62026 0.61664 0.71039 0.0
H329 H 0.58218 0.6563 0.68131 0.0
C330 C 0.55961 0.3095 0.96655 0.0
C331 C 0.53451 0.24802 0.99081 0.0
C332 C 0.51894 0.15034 0.94756 0.0
C333 C 0.53619 0.20995 0.92321 0.0
N334 N 0.58658 0.35033 0.90989 0.0
N335 N 0.48988 0.10998 1.00542 0.0
C336 C 0.56113 0.29034 0.93276 0.0
C337 C 0.51467 0.1684 0.98164 0.0
N338 N 0.58025 0.38655 0.97549 0.0
N339 N 0.50888 0.07742 0.93791 0.0
H340 H 0.48902 0.12204 1.0307 0.0
H341 H 0.46657 0.04885 1.00028 0.0
H342 H 0.51608 0.06541 0.9133 0.0
H343 H 0.50114 0.03205 0.95414 0.0
H344 H 0.59869 0.43293 0.95818 0.0
H345 H 0.57824 0.40384 0.99993 0.0
H346 H 0.59169 0.34187 0.88454 0.0
H347 H 0.59169 0.34187 0.88454 0.0
C348 C 0.38199 0.4793 0.22239 0.0
C349 C 0.37089 0.54233 0.23433 0.0
C350 C 0.49415 0.64201 0.20552 0.0
C351 C 0.50748 0.57968 0.19469 0.0
N352 N 0.4558 0.43738 0.18694 0.0
N353 N 0.43402 0.68636 0.24653 0.0
C354 C 0.44844 0.49767 0.20118 0.0
C355 C 0.43157 0.62459 0.22849 0.0
N356 N 0.33264 0.40268 0.23392 0.0
N357 N 0.54009 0.71795 0.19274 0.0
H358 H 0.3985 0.67766 0.26723 0.0
H359 H 0.48063 0.74643 0.24463 0.0
H360 H 0.58431 0.73142 0.17479 0.0
H361 H 0.52762 0.76425 0.19672 0.0
H362 H 0.34061 0.35395 0.22885 0.0
H363 H 0.28792 0.38982 0.25157 0.0
H364 H 0.41101 0.37638 0.18718 0.0
H365 H 0.5061 0.45017 0.17311 0.0
C366 C 0.12924 0.66599 0.55403 0.0
C367 C 0.21208 0.68882 0.55624 0.0
C368 C 0.1863 0.57593 0.51917 0.0
C369 C 0.10241 0.54868 0.5194 0.0
N370 N 0.99934 0.58419 0.52648 0.0
N371 N 0.31842 0.65948 0.54422 0.0
C372 C 0.07517 0.59853 0.53369 0.0
C373 C 0.24042 0.64231 0.53962 0.0
N374 N 0.10155 0.70642 0.57281 0.0
N375 N 0.21466 0.54093 0.49753 0.0
H376 H 0.36155 0.70917 0.5577 0.0
H377 H 0.33911 0.62116 0.5367 0.0
H378 H 0.17679 0.49654 0.48028 0.0
H379 H 0.27596 0.56164 0.49385 0.0
H380 H 0.04032 0.68767 0.57536 0.0
H381 H 0.13962 0.75498 0.58843 0.0
H382 H 0.97813 0.62254 0.53327 0.0
H383 H 0.96068 0.53807 0.51052 0.0
C384 C 0.41359 0.86936 0.85171 0.0
C385 C 0.47397 0.95249 0.853 0.0
C386 C 0.56585 0.92023 0.88321 0.0
C387 C 0.50651 0.83691 0.88123 0.0
N388 N 0.38068 0.73054 0.85707 0.0
N389 N 0.61447 0.05415 0.86109 0.0
C390 C 0.4324 0.81094 0.86344 0.0
C391 C 0.55249 0.97692 0.86584 0.0
N392 N 0.33754 0.84645 0.83989 0.0
N393 N 0.6334 0.94563 0.90279 0.0
H394 H 0.6064 0.09499 0.84715 0.0
H395 H 0.67477 0.07429 0.86742 0.0
H396 H 0.6439 0.90568 0.91647 0.0
H397 H 0.675 0.00638 0.90787 0.0
H398 H 0.28738 0.78855 0.84258 0.0
H399 H 0.32357 0.88686 0.82865 0.0
H400 H 0.32935 0.70833 0.84185 0.0
H401 H 0.39263 0.68593 0.86461 0.0
C402 C 0.49624 0.42789 0.87002 0.0
C403 C 0.57016 0.49244 0.85791 0.0
C404 C 0.55504 0.41271 0.80783 0.0
C405 C 0.48228 0.34663 0.82001 0.0
N406 N 0.37124 0.30208 0.85763 0.0
N407 N 0.6847 0.52626 0.82208 0.0
C408 C 0.44919 0.35769 0.8497 0.0
C409 C 0.60412 0.47845 0.82906 0.0
N410 N 0.47684 0.4287 0.90241 0.0
N411 N 0.57872 0.41629 0.77574 0.0
H412 H 0.72673 0.56672 0.83945 0.0
H413 H 0.71032 0.51766 0.80072 0.0
H414 H 0.542 0.37562 0.75717 0.0
H415 H 0.542 0.37562 0.75717 0.0
H416 H 0.42805 0.37986 0.91399 0.0
H417 H 0.51725 0.47389 0.91864 0.0
H418 H 0.34073 0.30842 0.87773 0.0
H419 H 0.33459 0.25554 0.84106 0.0
C420 C 0.87744 0.43589 0.19168 0.0
C421 C 0.96096 0.49352 0.19442 0.0
C422 C 0.93924 0.58757 0.16016 0.0
C423 C 0.85748 0.52551 0.15451 0.0
N424 N 0.75528 0.38303 0.15915 0.0
N425 N 0.06772 0.63239 0.18884 0.0
C426 C 0.82847 0.44753 0.16855 0.0
C427 C 0.99106 0.57219 0.18093 0.0
N428 N 0.84375 0.37146 0.21281 0.0
N429 N 0.96752 0.66007 0.1445 0.0
H430 H 0.10312 0.62372 0.2059 0.0
H431 H 0.094 0.69212 0.18123 0.0
H432 H 0.93145 0.67057 0.12805 0.0
H433 H 0.02712 0.70801 0.14573 0.0
H434 H 0.78132 0.3319 0.21466 0.0
H435 H 0.8775 0.36413 0.23155 0.0
H436 H 0.73539 0.32386 0.16649 0.0
H437 H 0.71947 0.38576 0.14048 0.0
C438 C 0.56822 0.17423 0.51197 0.0
C439 C 0.55389 0.10316 0.5283 0.0
C440 C 0.67302 0.11298 0.50062 0.0
C441 C 0.6858 0.18291 0.4839 0.0
N442 N 0.62356 0.25776 0.46367 0.0
N443 N 0.6075 0.02056 0.5458 0.0
C444 C 0.62755 0.20786 0.48676 0.0
C445 C 0.61029 0.07639 0.52456 0.0
N446 N 0.52548 0.2104 0.52119 0.0
N447 N 0.71878 0.07964 0.49217 0.0
H448 H 0.56847 1.00334 0.56561 0.0
H449 H 0.64946 1.00127 0.54661 0.0
H450 H 0.76079 0.10319 0.47293 0.0
H451 H 0.70919 0.02485 0.50138 0.0
H452 H 0.53846 0.26684 0.51254 0.0
H453 H 0.48357 0.18803 0.54051 0.0
H454 H 0.57872 0.27334 0.46362 0.0
H455 H 0.65548 0.27242 0.44149 0.0
C456 C 0.12043 0.10333 1.01154 0.0
C457 C 0.19131 0.15449 0.99302 0.0
C458 C 0.24425 0.25396 1.03916 0.0
C459 C 0.17313 0.20289 0.05759 0.0
N460 N 0.04604 0.07755 0.06328 0.0
N461 N 0.31803 0.28005 0.9871 0.0
C462 C 0.11174 0.12725 1.04421 0.0
C463 C 0.25271 0.23028 1.00633 0.0
N464 N 0.06089 0.03235 0.99748 0.0
N465 N 0.30422 0.32413 1.05355 0.0
H466 H 0.32568 0.26463 0.96304 0.0
H467 H 0.3637 0.33795 0.99397 0.0
H468 H 0.29937 0.34321 0.07732 0.0
H469 H 0.36027 0.36264 1.04294 0.0
H470 H 1.00398 0.99525 1.00769 0.0
H471 H 0.06686 0.01091 0.97443 0.0
H472 H 1.00247 0.01836 0.05696 0.0
H473 H 0.03597 0.09425 0.08669 0.0
C474 C 0.03123 0.45666 0.37824 0.0
C475 C 0.00652 0.38087 0.39351 0.0
C476 C 0.05122 0.34357 0.34199 0.0
C477 C 0.05874 0.41249 0.32498 0.0
N478 N 0.01964 0.51483 0.32733 0.0
N479 N 0.97759 0.24346 0.38439 0.0
C480 C 0.03776 0.46307 0.34317 0.0
C481 C 0.012 0.32148 0.37387 0.0
N482 N 0.0518 0.52417 0.39691 0.0
N483 N 0.08415 0.30089 0.3291 0.0
H484 H 0.94408 0.22271 0.40609 0.0
H485 H 0.97459 0.19743 0.36943 0.0
H486 H 0.11913 0.31784 0.30771 0.0
H487 H 0.08525 0.25454 0.3421 0.0
H488 H 0.07375 0.58096 0.38619 0.0
H489 H 0.05827 0.52558 0.42274 0.0
H490 H 1.00099 0.54977 0.34028 0.0
H491 H 0.01115 0.51358 0.30163 0.0
C492 C 0.83528 0.06125 0.71493 0.0
C493 C 0.81026 0.97927 0.72178 0.0
C494 C 0.81302 0.95241 0.66193 0.0
C495 C 0.83811 0.03446 0.65506 0.0
N496 N 0.86158 0.16422 0.67387 0.0
N497 N 0.7626 0.84338 0.70222 0.0
C498 C 0.84529 0.08789 0.68126 0.0
C499 C 0.79536 0.92381 0.69533 0.0
N500 N 0.85246 0.11435 0.74081 0.0
N501 N 0.80732 0.90224 0.63644 0.0
H502 H 0.74978 0.82065 0.72633 0.0
H503 H 0.74221 0.79798 0.68418 0.0
H504 H 0.81469 0.91961 0.61157 0.0
H505 H 0.79868 0.84465 0.63976 0.0
H506 H 0.87965 0.17671 0.73812 0.0
H507 H 0.84367 0.0966 0.76564 0.0
H508 H 0.85817 0.20298 0.69105 0.0
H509 H 0.87359 0.18767 0.6499 0.0
C510 C 0.59126 0.61278 1.00906 0.0
C511 C 0.64413 0.6839 0.99084 0.0
C512 C 0.73562 0.73024 1.04034 0.0
C513 C 0.6757 0.66418 0.0592 0.0
N514 N 0.53264 0.56381 0.0627 0.0
N515 N 0.76024 0.82031 0.99385 0.0
C516 C 0.59903 0.61275 1.04397 0.0
C517 C 0.71475 0.74585 1.00779 0.0
N518 N 0.53697 0.5424 0.99325 0.0
N519 N 0.8128 0.77638 1.05259 0.0
H520 H 0.74477 0.83596 0.97137 0.0
H521 H 0.80802 0.86908 1.00647 0.0
H522 H 0.83086 0.76608 0.07565 0.0
H523 H 0.86034 0.8201 1.03849 0.0
H524 H 0.50087 0.48856 1.00598 0.0
H525 H 0.53757 0.53459 0.9677 0.0
H526 H 0.47471 0.52841 1.05225 0.0
H527 H 0.53363 0.56697 0.08863 0.0
C528 C 0.12643 0.88212 0.35937 0.0
C529 C 0.06871 0.85084 0.38538 0.0
C530 C 0.95727 0.79169 0.34409 0.0
C531 C 0.01459 0.83048 0.31836 0.0
N532 N 0.15291 0.9145 0.30069 0.0
N533 N 0.92967 0.77711 0.40341 0.0
C534 C 0.0991 0.87566 0.32576 0.0
C535 C 0.98416 0.80544 0.37795 0.0
N536 N 0.20738 0.91724 0.36688 0.0
N537 N 0.87724 0.74068 0.33597 0.0
H538 H 0.94725 0.78289 0.42837 0.0
H539 H 0.86724 0.7513 0.40021 0.0
H540 H 0.85535 0.7299 0.31152 0.0
H541 H 0.83309 0.70431 0.35297 0.0
H542 H 0.25234 0.93386 0.34913 0.0
H543 H 0.22963 0.92468 0.39119 0.0
H544 H 0.21443 0.95576 0.30448 0.0
H545 H 0.13519 0.9089 0.27575 0.0
C546 C 0.32907 0.95641 0.71851 0.0
C547 C 0.3639 0.04034 0.72574 0.0
C548 C 0.37951 0.06927 0.66555 0.0
C549 C 0.34398 0.98529 0.65831 0.0
N550 N 0.26987 0.84767 0.67719 0.0
N551 N 0.40541 0.17413 0.7063 0.0
C552 C 0.31383 0.92853 0.68466 0.0
C553 C 0.38364 0.09586 0.69921 0.0
N554 N 0.31464 0.9038 0.74391 0.0
N555 N 0.41341 0.12412 0.64047 0.0
H556 H 0.40755 0.19476 0.73055 0.0
H557 H 0.41364 0.21634 0.68826 0.0
H558 H 0.41007 0.10715 0.61556 0.0
H559 H 0.44937 0.18631 0.64447 0.0
H560 H 0.29909 0.8438 0.74032 0.0
H561 H 0.32311 0.92158 0.76886 0.0
H562 H 0.23956 0.80289 0.69486 0.0
H563 H 0.25764 0.82572 0.65275 0.0
loop_
_geom_bond_atom_site_label_1
_geom_bond_atom_site_label_2
_geom_bond_distance
_geom_bond_site_symmetry_2
_ccdc_geom_bond_type
La0 C2 2.928 . S
La0 O20 2.521 . S
La0 O21 2.628 . S
La0 O22 2.554 . S
La0 O23 2.757 . S
La0 O24 2.470 . S
La0 O29 2.482 . S
La0 O31 2.503 . S
La1 C11 2.928 . S
La1 O23 2.482 . S
La1 O25 2.503 . S
La1 O26 2.521 1_455 S
La1 O27 2.628 . S
La1 O28 2.554 1_455 S
La1 O29 2.757 . S
La1 O30 2.470 . S
C2 La0 2.928 . S
C2 C3 1.503 . S
C2 O20 1.261 . S
C2 O21 1.243 . S
C3 C2 1.503 . S
C3 C4 1.394 . S
C3 C8 1.373 . S
C4 C3 1.394 . S
C4 C5 1.380 . S
C4 H32 0.930 . S
C5 C4 1.380 . S
C5 C6 1.376 . S
C5 H33 0.930 . S
C6 C5 1.376 . S
C6 C7 1.370 . S
C7 C6 1.370 . S
C7 C8 1.396 . S
C7 H34 0.929 . S
C8 C3 1.373 . S
C8 C7 1.396 . S
C8 H35 0.929 . S
C9 O22 1.240 . S
C9 O23 1.289 . S
C10 O24 1.258 . S
C10 O25 1.256 . S
C11 La1 2.928 . S
C11 C12 1.503 . S
C11 O26 1.261 1_455 S
C11 O27 1.243 . S
C12 C11 1.503 . S
C12 C13 1.394 1_455 S
C12 C17 1.373 . S
C13 C12 1.394 1_655 S
C13 C14 1.380 . S
C13 H36 0.930 . S
C14 C13 1.380 . S
C14 C15 1.376 1_655 S
C14 H37 0.930 . S
C15 C14 1.376 1_455 S
C15 C16 1.370 . S
C16 C15 1.370 . S
C16 C17 1.396 . S
C16 H38 0.929 . S
C17 C12 1.373 . S
C17 C16 1.396 . S
C17 H39 0.929 . S
C18 O28 1.240 . S
C18 O29 1.289 1_655 S
C19 O30 1.258 . S
C19 O31 1.256 . S
O20 La0 2.521 . S
O20 C2 1.261 . S
O21 La0 2.628 . S
O21 C2 1.243 . S
O22 La0 2.554 . S
O22 C9 1.240 . S
O23 La0 2.757 . S
O23 La1 2.482 . S
O23 C9 1.289 . S
O24 La0 2.470 . S
O24 C10 1.258 . S
O25 La1 2.503 . S
O25 C10 1.256 . S
O26 La1 2.521 1_655 S
O26 C11 1.261 1_655 S
O27 La1 2.628 . S
O27 C11 1.243 . S
O28 La1 2.554 1_655 S
O28 C18 1.240 . S
O29 La0 2.482 . S
O29 La1 2.757 . S
O29 C18 1.289 1_455 S
O30 La1 2.470 . S
O30 C19 1.258 . S
O31 La0 2.503 . S
O31 C19 1.256 . S
H32 C4 0.930 . S
H33 C5 0.930 . S
H34 C7 0.929 . S
H35 C8 0.929 . S
H36 C13 0.930 . S
H37 C14 0.930 . S
H38 C16 0.929 . S
H39 C17 0.929 . S
La40 C42 2.928 . S
La40 O60 2.521 . S
La40 O61 2.628 . S
La40 O62 2.554 . S
La40 O63 2.757 . S
La40 O64 2.470 . S
La40 O69 2.482 1_655 S
La40 O71 2.503 . S
La41 C51 2.928 . S
La41 O63 2.482 . S
La41 O65 2.503 1_655 S
La41 O66 2.521 1_655 S
La41 O67 2.628 . S
La41 O68 2.554 1_655 S
La41 O69 2.757 1_655 S
La41 O70 2.470 . S
C42 La40 2.928 . S
C42 C43 1.503 . S
C42 O60 1.261 . S
C42 O61 1.243 . S
C43 C42 1.503 . S
C43 C44 1.394 . S
C43 C48 1.373 . S
C44 C43 1.394 . S
C44 C45 1.380 . S
C44 H72 0.930 . S
C45 C44 1.380 . S
C45 C46 1.376 . S
C45 H73 0.930 . S
C46 C45 1.376 . S
C46 C47 1.370 . S
C47 C46 1.370 . S
C47 C48 1.396 . S
C47 H74 0.929 1_655 S
C48 C43 1.373 . S
C48 C47 1.396 . S
C48 H75 0.929 1_655 S
C49 O62 1.240 . S
C49 O63 1.289 . S
C50 O64 1.258 . S
C50 O65 1.256 1_655 S
C51 La41 2.928 . S
C51 C52 1.503 . S
C51 O66 1.261 1_655 S
C51 O67 1.243 . S
C52 C51 1.503 . S
C52 C53 1.394 1_655 S
C52 C57 1.373 . S
C53 C52 1.394 1_455 S
C53 C54 1.380 . S
C53 H76 0.930 . S
C54 C53 1.380 . S
C54 C55 1.376 1_455 S
C54 H77 0.930 . S
C55 C54 1.376 1_655 S
C55 C56 1.370 . S
C56 C55 1.370 . S
C56 C57 1.396 . S
C56 H78 0.929 . S
C57 C52 1.373 . S
C57 C56 1.396 . S
C57 H79 0.929 . S
C58 O68 1.240 . S
C58 O69 1.289 . S
C59 O70 1.258 . S
C59 O71 1.256 . S
O60 La40 2.521 . S
O60 C42 1.261 . S
O61 La40 2.628 . S
O61 C42 1.243 . S
O62 La40 2.554 . S
O62 C49 1.240 . S
O63 La40 2.757 . S
O63 La41 2.482 . S
O63 C49 1.289 . S
O64 La40 2.470 . S
O64 C50 1.258 . S
O65 La41 2.503 1_455 S
O65 C50 1.256 1_455 S
O66 La41 2.521 1_455 S
O66 C51 1.261 1_455 S
O67 La41 2.628 . S
O67 C51 1.243 . S
O68 La41 2.554 1_455 S
O68 C58 1.240 . S
O69 La40 2.482 1_455 S
O69 La41 2.757 1_455 S
O69 C58 1.289 . S
O70 La41 2.470 . S
O70 C59 1.258 . S
O71 La40 2.503 . S
O71 C59 1.256 . S
H72 C44 0.930 . S
H73 C45 0.930 . S
H74 C47 0.929 1_455 S
H75 C48 0.929 1_455 S
H76 C53 0.930 . S
H77 C54 0.930 . S
H78 C56 0.929 . S
H79 C57 0.929 . S
La80 C82 2.928 . S
La80 O100 2.521 . S
La80 O101 2.628 . S
La80 O102 2.554 . S
La80 O103 2.757 . S
La80 O104 2.470 . S
La80 O109 2.482 . S
La80 O111 2.503 . S
La81 C91 2.928 . S
La81 O103 2.482 . S
La81 O105 2.503 . S
La81 O106 2.521 . S
La81 O107 2.628 . S
La81 O108 2.554 . S
La81 O109 2.757 . S
La81 O110 2.470 . S
C82 La80 2.928 . S
C82 C83 1.503 . S
C82 O100 1.261 . S
C82 O101 1.243 . S
C83 C82 1.503 . S
C83 C84 1.394 . S
C83 C88 1.373 . S
C84 C83 1.394 . S
C84 C85 1.380 . S
C84 H112 0.930 . S
C85 C84 1.380 . S
C85 C86 1.376 1_556 S
C85 H113 0.918 1_556 S
C86 C85 1.376 1_554 S
C86 C87 1.370 1_554 S
C87 C86 1.370 1_556 S
C87 C88 1.396 . S
C87 H114 0.929 . S
C88 C83 1.373 . S
C88 C87 1.396 . S
C88 H115 0.929 . S
C89 O102 1.240 . S
C89 O103 1.289 . S
C90 O104 1.258 . S
C90 O105 1.256 . S
C91 La81 2.928 . S
C91 C92 1.503 . S
C91 O106 1.261 . S
C91 O107 1.243 . S
C92 C91 1.503 . S
C92 C93 1.394 . S
C92 C97 1.373 . S
C93 C92 1.394 . S
C93 C94 1.380 . S
C93 H116 0.930 . S
C94 C93 1.380 . S
C94 C95 1.376 . S
C94 H117 0.930 . S
C95 C94 1.376 . S
C95 C96 1.370 . S
C96 C95 1.370 . S
C96 C97 1.396 . S
C96 H118 0.929 . S
C97 C92 1.373 . S
C97 C96 1.396 . S
C97 H119 0.929 . S
C98 O108 1.240 . S
C98 O109 1.289 . S
C99 O110 1.258 . S
C99 O111 1.256 . S
O100 La80 2.521 . S
O100 C82 1.261 . S
O101 La80 2.628 . S
O101 C82 1.243 . S
O102 La80 2.554 . S
O102 C89 1.240 . S
O103 La80 2.757 . S
O103 La81 2.482 . S
O103 C89 1.289 . S
O104 La80 2.470 . S
O104 C90 1.258 . S
O105 La81 2.503 . S
O105 C90 1.256 . S
O106 La81 2.521 . S
O106 C91 1.261 . S
O107 La81 2.628 . S
O107 C91 1.243 . S
O108 La81 2.554 . S
O108 C98 1.240 . S
O109 La80 2.482 . S
O109 La81 2.757 . S
O109 C98 1.289 . S
O110 La81 2.470 . S
O110 C99 1.258 . S
O111 La80 2.503 . S
O111 C99 1.256 . S
H112 C84 0.930 . S
H113 C85 0.918 1_554 S
H114 C87 0.929 . S
H115 C88 0.929 . S
H116 C93 0.930 . S
H117 C94 0.930 . S
H118 C96 0.929 . S
H119 C97 0.929 . S
La120 C122 2.928 . S
La120 O140 2.521 . S
La120 O141 2.628 . S
La120 O142 2.554 . S
La120 O143 2.757 . S
La120 O144 2.470 . S
La120 O149 2.482 . S
La120 O151 2.503 . S
La121 C131 2.928 . S
La121 O143 2.482 . S
La121 O145 2.503 . S
La121 O146 2.521 . S
La121 O147 2.628 . S
La121 O148 2.554 . S
La121 O149 2.757 . S
La121 O150 2.470 . S
C122 La120 2.928 . S
C122 C123 1.503 1_554 S
C122 O140 1.261 . S
C122 O141 1.243 . S
C123 C122 1.503 1_556 S
C123 C124 1.394 . S
C123 C128 1.373 . S
C124 C123 1.394 . S
C124 C125 1.380 . S
C124 H152 0.930 . S
C125 C124 1.380 . S
C125 C126 1.376 . S
C125 H153 0.930 . S
C126 C125 1.376 . S
C126 C127 1.370 . S
C127 C126 1.370 . S
C127 C128 1.396 . S
C127 H154 0.929 . S
C128 C123 1.373 . S
C128 C127 1.396 . S
C128 H155 0.929 . S
C129 O142 1.240 . S
C129 O143 1.289 . S
C130 O144 1.258 . S
C130 O145 1.256 . S
C131 La121 2.928 . S
C131 C132 1.503 . S
C131 O146 1.261 . S
C131 O147 1.243 . S
C132 C131 1.503 . S
C132 C133 1.394 . S
C132 C137 1.373 . S
C133 C132 1.394 . S
C133 C134 1.380 . S
C133 H156 0.930 . S
C134 C133 1.380 . S
C134 C135 1.376 . S
C134 H157 0.930 . S
C135 C134 1.376 . S
C135 C136 1.370 . S
C136 C135 1.370 . S
C136 C137 1.396 . S
C136 H158 0.929 . S
C137 C132 1.373 . S
C137 C136 1.396 . S
C137 H159 0.929 . S
C138 O148 1.240 . S
C138 O149 1.289 . S
C139 O150 1.258 . S
C139 O151 1.256 . S
O140 La120 2.521 . S
O140 C122 1.261 . S
O141 La120 2.628 . S
O141 C122 1.243 . S
O142 La120 2.554 . S
O142 C129 1.240 . S
O143 La120 2.757 . S
O143 La121 2.482 . S
O143 C129 1.289 . S
O144 La120 2.470 . S
O144 C130 1.258 . S
O145 La121 2.503 . S
O145 C130 1.256 . S
O146 La121 2.521 . S
O146 C131 1.261 . S
O147 La121 2.628 . S
O147 C131 1.243 . S
O148 La121 2.554 . S
O148 C138 1.240 . S
O149 La120 2.482 . S
O149 La121 2.757 . S
O149 C138 1.289 . S
O150 La121 2.470 . S
O150 C139 1.258 . S
O151 La120 2.503 . S
O151 C139 1.256 . S
H152 C124 0.930 . S
H153 C125 0.930 . S
H154 C127 0.929 . S
H155 C128 0.929 . S
H156 C133 0.930 . S
H157 C134 0.930 . S
H158 C136 0.929 . S
H159 C137 0.929 . S
La160 C162 2.928 . S
La160 O180 2.521 . S
La160 O181 2.628 . S
La160 O182 2.554 . S
La160 O183 2.757 . S
La160 O184 2.470 . S
La160 O189 2.482 1_565 S
La160 O191 2.503 . S
La161 C171 2.928 . S
La161 O183 2.482 . S
La161 O185 2.503 1_565 S
La161 O186 2.521 1_565 S
La161 O187 2.628 . S
La161 O188 2.554 1_565 S
La161 O189 2.757 1_565 S
La161 O190 2.470 . S
C162 La160 2.928 . S
C162 C163 1.503 . S
C162 O180 1.261 . S
C162 O181 1.243 . S
C163 C162 1.503 . S
C163 C164 1.394 . S
C163 C168 1.373 . S
C164 C163 1.394 . S
C164 C165 1.380 . S
C164 H192 0.930 . S
C165 C164 1.380 . S
C165 C166 1.376 . S
C165 H193 0.930 . S
C166 C165 1.376 . S
C166 C167 1.370 . S
C167 C166 1.370 . S
C167 C168 1.396 . S
C167 H194 0.929 1_565 S
C168 C163 1.373 . S
C168 C167 1.396 . S
C168 H195 0.929 1_565 S
C169 O182 1.240 . S
C169 O183 1.289 . S
C170 O184 1.258 . S
C170 O185 1.256 1_565 S
C171 La161 2.928 . S
C171 C172 1.503 . S
C171 O186 1.261 1_565 S
C171 O187 1.243 . S
C172 C171 1.503 . S
C172 C173 1.394 1_565 S
C172 C177 1.373 . S
C173 C172 1.394 1_545 S
C173 C174 1.380 . S
C173 H196 0.930 . S
C174 C173 1.380 . S
C174 C175 1.376 1_545 S
C174 H197 0.930 . S
C175 C174 1.376 1_565 S
C175 C176 1.370 . S
C176 C175 1.370 . S
C176 C177 1.396 . S
C176 H198 0.929 . S
C177 C172 1.373 . S
C177 C176 1.396 . S
C177 H199 0.929 . S
C178 O188 1.240 . S
C178 O189 1.289 . S
C179 O190 1.258 . S
C179 O191 1.256 . S
O180 La160 2.521 . S
O180 C162 1.261 . S
O181 La160 2.628 . S
O181 C162 1.243 . S
O182 La160 2.554 . S
O182 C169 1.240 . S
O183 La160 2.757 . S
O183 La161 2.482 . S
O183 C169 1.289 . S
O184 La160 2.470 . S
O184 C170 1.258 . S
O185 La161 2.503 1_545 S
O185 C170 1.256 1_545 S
O186 La161 2.521 1_545 S
O186 C171 1.261 1_545 S
O187 La161 2.628 . S
O187 C171 1.243 . S
O188 La161 2.554 1_545 S
O188 C178 1.240 . S
O189 La160 2.482 1_545 S
O189 La161 2.757 1_545 S
O189 C178 1.289 . S
O190 La161 2.470 . S
O190 C179 1.258 . S
O191 La160 2.503 . S
O191 C179 1.256 . S
H192 C164 0.930 . S
H193 C165 0.930 . S
H194 C167 0.929 1_545 S
H195 C168 0.929 1_545 S
H196 C173 0.930 . S
H197 C174 0.930 . S
H198 C176 0.929 . S
H199 C177 0.929 . S
La200 C202 2.928 . S
La200 O220 2.521 . S
La200 O221 2.628 . S
La200 O222 2.554 . S
La200 O223 2.757 . S
La200 O224 2.470 . S
La200 O229 2.482 . S
La200 O231 2.503 . S
La201 C211 2.928 . S
La201 O223 2.482 . S
La201 O225 2.503 . S
La201 O226 2.521 1_545 S
La201 O227 2.628 . S
La201 O228 2.554 1_545 S
La201 O229 2.757 . S
La201 O230 2.470 . S
C202 La200 2.928 . S
C202 C203 1.503 . S
C202 O220 1.261 . S
C202 O221 1.243 . S
C203 C202 1.503 . S
C203 C204 1.394 . S
C203 C208 1.373 . S
C204 C203 1.394 . S
C204 C205 1.380 . S
C204 H232 0.930 . S
C205 C204 1.380 . S
C205 C206 1.376 . S
C205 H233 0.930 . S
C206 C205 1.376 . S
C206 C207 1.370 . S
C207 C206 1.370 . S
C207 C208 1.396 . S
C207 H234 0.929 . S
C208 C203 1.373 . S
C208 C207 1.396 . S
C208 H235 0.929 . S
C209 O222 1.240 . S
C209 O223 1.289 . S
C210 O224 1.258 . S
C210 O225 1.256 . S
C211 La201 2.928 . S
C211 C212 1.503 . S
C211 O226 1.261 1_545 S
C211 O227 1.243 . S
C212 C211 1.503 . S
C212 C213 1.394 1_545 S
C212 C217 1.373 . S
C213 C212 1.394 1_565 S
C213 C214 1.380 . S
C213 H236 0.930 . S
C214 C213 1.380 . S
C214 C215 1.376 1_565 S
C214 H237 0.930 . S
C215 C214 1.376 1_545 S
C215 C216 1.370 . S
C216 C215 1.370 . S
C216 C217 1.396 . S
C216 H238 0.929 . S
C217 C212 1.373 . S
C217 C216 1.396 . S
C217 H239 0.929 . S
C218 O228 1.240 . S
C218 O229 1.289 1_565 S
C219 O230 1.258 . S
C219 O231 1.256 . S
O220 La200 2.521 . S
O220 C202 1.261 . S
O221 La200 2.628 . S
O221 C202 1.243 . S
O222 La200 2.554 . S
O222 C209 1.240 . S
O223 La200 2.757 . S
O223 La201 2.482 . S
O223 C209 1.289 . S
O224 La200 2.470 . S
O224 C210 1.258 . S
O225 La201 2.503 . S
O225 C210 1.256 . S
O226 La201 2.521 1_565 S
O226 C211 1.261 1_565 S
O227 La201 2.628 . S
O227 C211 1.243 . S
O228 La201 2.554 1_565 S
O228 C218 1.240 . S
O229 La200 2.482 . S
O229 La201 2.757 . S
O229 C218 1.289 1_545 S
O230 La201 2.470 . S
O230 C219 1.258 . S
O231 La200 2.503 . S
O231 C219 1.256 . S
H232 C204 0.930 . S
H233 C205 0.930 . S
H234 C207 0.929 . S
H235 C208 0.929 . S
H236 C213 0.930 . S
H237 C214 0.930 . S
H238 C216 0.929 . S
H239 C217 0.929 . S
C240 C241 1.363 . S
C240 C246 1.379 . S
C240 N248 1.356 . S
C241 C240 1.363 . S
C241 C247 1.363 . S
C242 C243 1.363 . S
C242 C247 1.379 . S
C242 N249 1.356 . S
C243 C242 1.363 . S
C243 C246 1.363 . S
N244 C246 1.356 . S
N244 H256 0.984 . S
N244 H257 0.985 . S
N245 C247 1.356 . S
N245 H250 0.984 . S
N245 H251 0.985 . S
C246 C240 1.379 . S
C246 C243 1.363 . S
C246 N244 1.356 . S
C247 C241 1.363 . S
C247 C242 1.379 . S
C247 N245 1.356 . S
N248 C240 1.356 . S
N248 H254 0.984 . S
N248 H255 0.984 . S
N249 C242 1.356 . S
N249 H252 0.984 . S
N249 H253 0.985 . S
H250 N245 0.984 . S
H251 N245 0.985 . S
H252 N249 0.984 . S
H253 N249 0.985 . S
H254 N248 0.984 . S
H255 N248 0.984 . S
H256 N244 0.984 . S
H257 N244 0.985 . S
C258 C259 1.363 . S
C258 C264 1.379 . S
C258 N266 1.356 . S
C259 C258 1.363 . S
C259 C265 1.363 . S
C260 C261 1.363 . S
C260 C265 1.379 . S
C260 N267 1.356 . S
C261 C260 1.363 . S
C261 C264 1.363 . S
N262 C264 1.356 . S
N262 H274 0.984 . S
N262 H275 0.985 . S
N263 C265 1.356 . S
N263 H268 0.984 . S
N263 H269 0.985 . S
C264 C258 1.379 . S
C264 C261 1.363 . S
C264 N262 1.356 . S
C265 C259 1.363 . S
C265 C260 1.379 . S
C265 N263 1.356 . S
N266 C258 1.356 . S
N266 H272 0.984 . S
N266 H273 0.984 . S
N267 C260 1.356 . S
N267 H270 0.984 . S
N267 H271 0.985 . S
H268 N263 0.984 . S
H269 N263 0.985 . S
H270 N267 0.984 . S
H271 N267 0.985 . S
H272 N266 0.984 . S
H273 N266 0.984 . S
H274 N262 0.984 . S
H275 N262 0.985 . S
C276 C277 1.363 . S
C276 C282 1.379 . S
C276 N284 1.356 . S
C277 C276 1.363 . S
C277 C283 1.363 . S
C278 C279 1.363 . S
C278 C283 1.379 . S
C278 N285 1.356 . S
C279 C278 1.363 . S
C279 C282 1.363 . S
N280 C282 1.356 . S
N280 H292 0.984 1_554 S
N280 H293 0.985 1_554 S
N281 C283 1.356 . S
N281 H286 0.984 . S
N281 H287 0.985 . S
C282 C276 1.379 . S
C282 C279 1.363 . S
C282 N280 1.356 . S
C283 C277 1.363 . S
C283 C278 1.379 . S
C283 N281 1.356 . S
N284 C276 1.356 . S
N284 H290 0.984 . S
N284 H291 0.984 . S
N285 C278 1.356 . S
N285 H288 0.984 . S
N285 H289 0.985 . S
H286 N281 0.984 . S
H287 N281 0.985 . S
H288 N285 0.984 . S
H289 N285 0.985 . S
H290 N284 0.984 . S
H291 N284 0.984 . S
H292 N280 0.984 1_556 S
H293 N280 0.985 1_556 S
C294 C295 1.363 . S
C294 C300 1.379 . S
C294 N302 1.356 . S
C295 C294 1.363 . S
C295 C301 1.363 . S
C296 C297 1.363 . S
C296 C301 1.379 . S
C296 N303 1.356 . S
C297 C296 1.363 . S
C297 C300 1.363 . S
N298 C300 1.356 . S
N298 H310 0.984 . S
N298 H311 0.985 . S
N299 C301 1.356 . S
N299 H304 0.984 . S
N299 H305 0.985 . S
C300 C294 1.379 . S
C300 C297 1.363 . S
C300 N298 1.356 . S
C301 C295 1.363 . S
C301 C296 1.379 . S
C301 N299 1.356 . S
N302 C294 1.356 . S
N302 H308 0.984 . S
N302 H309 0.984 . S
N303 C296 1.356 . S
N303 H306 0.984 . S
N303 H307 0.985 . S
H304 N299 0.984 . S
H305 N299 0.985 . S
H306 N303 0.984 . S
H307 N303 0.985 . S
H308 N302 0.984 . S
H309 N302 0.984 . S
H310 N298 0.984 . S
H311 N298 0.985 . S
C312 C313 1.363 . S
C312 C318 1.379 . S
C312 N320 1.356 . S
C313 C312 1.363 . S
C313 C319 1.363 . S
C314 C315 1.363 . S
C314 C319 1.379 . S
C314 N321 1.356 . S
C315 C314 1.363 . S
C315 C318 1.363 . S
N316 C318 1.356 . S
N316 H328 0.984 . S
N316 H329 0.985 . S
N317 C319 1.356 . S
N317 H322 0.984 . S
N317 H323 0.985 . S
C318 C312 1.379 . S
C318 C315 1.363 . S
C318 N316 1.356 . S
C319 C313 1.363 . S
C319 C314 1.379 . S
C319 N317 1.356 . S
N320 C312 1.356 . S
N320 H326 0.984 . S
N320 H327 0.984 . S
N321 C314 1.356 . S
N321 H324 0.984 . S
N321 H325 0.985 . S
H322 N317 0.984 . S
H323 N317 0.985 . S
H324 N321 0.984 . S
H325 N321 0.985 . S
H326 N320 0.984 . S
H327 N320 0.984 . S
H328 N316 0.984 . S
H329 N316 0.985 . S
C330 C331 1.363 . S
C330 C336 1.379 . S
C330 N338 1.356 . S
C331 C330 1.363 . S
C331 C337 1.363 . S
C332 C333 1.363 . S
C332 C337 1.379 . S
C332 N339 1.356 . S
C333 C332 1.363 . S
C333 C336 1.363 . S
N334 C336 1.356 . S
N334 H346 0.984 . S
N334 H347 0.985 . S
N335 C337 1.356 . S
N335 H340 0.984 . S
N335 H341 0.985 . S
C336 C330 1.379 . S
C336 C333 1.363 . S
C336 N334 1.356 . S
C337 C331 1.363 . S
C337 C332 1.379 . S
C337 N335 1.356 . S
N338 C330 1.356 . S
N338 H344 0.984 . S
N338 H345 0.984 . S
N339 C332 1.356 . S
N339 H342 0.984 . S
N339 H343 0.985 . S
H340 N335 0.984 . S
H341 N335 0.985 . S
H342 N339 0.984 . S
H343 N339 0.985 . S
H344 N338 0.984 . S
H345 N338 0.984 . S
H346 N334 0.984 . S
H347 N334 0.985 . S
C348 C349 1.363 . S
C348 C354 1.379 . S
C348 N356 1.356 . S
C349 C348 1.363 . S
C349 C355 1.363 . S
C350 C351 1.363 . S
C350 C355 1.379 . S
C350 N357 1.356 . S
C351 C350 1.363 . S
C351 C354 1.363 . S
N352 C354 1.356 . S
N352 H364 0.984 . S
N352 H365 0.985 . S
N353 C355 1.356 . S
N353 H358 0.984 . S
N353 H359 0.985 . S
C354 C348 1.379 . S
C354 C351 1.363 . S
C354 N352 1.356 . S
C355 C349 1.363 . S
C355 C350 1.379 . S
C355 N353 1.356 . S
N356 C348 1.356 . S
N356 H362 0.984 . S
N356 H363 0.984 . S
N357 C350 1.356 . S
N357 H360 0.984 . S
N357 H361 0.985 . S
H358 N353 0.984 . S
H359 N353 0.985 . S
H360 N357 0.984 . S
H361 N357 0.985 . S
H362 N356 0.984 . S
H363 N356 0.984 . S
H364 N352 0.984 . S
H365 N352 0.985 . S
C366 C367 1.363 . S
C366 C372 1.379 . S
C366 N374 1.356 . S
C367 C366 1.363 . S
C367 C373 1.363 . S
C368 C369 1.363 . S
C368 C373 1.379 . S
C368 N375 1.356 . S
C369 C368 1.363 . S
C369 C372 1.363 . S
N370 C372 1.356 . S
N370 H382 0.984 . S
N370 H383 0.985 . S
N371 C373 1.356 . S
N371 H376 0.984 . S
N371 H377 0.985 . S
C372 C366 1.379 . S
C372 C369 1.363 . S
C372 N370 1.356 . S
C373 C367 1.363 . S
C373 C368 1.379 . S
C373 N371 1.356 . S
N374 C366 1.356 . S
N374 H380 0.984 . S
N374 H381 0.984 . S
N375 C368 1.356 . S
N375 H378 0.984 . S
N375 H379 0.985 . S
H376 N371 0.984 . S
H377 N371 0.985 . S
H378 N375 0.984 . S
H379 N375 0.985 . S
H380 N374 0.984 . S
H381 N374 0.984 . S
H382 N370 0.984 . S
H383 N370 0.985 . S
C384 C385 1.363 . S
C384 C390 1.379 . S
C384 N392 1.356 . S
C385 C384 1.363 . S
C385 C391 1.363 . S
C386 C387 1.363 . S
C386 C391 1.379 . S
C386 N393 1.356 . S
C387 C386 1.363 . S
C387 C390 1.363 . S
N388 C390 1.356 . S
N388 H400 0.984 . S
N388 H401 0.985 . S
N389 C391 1.356 1_545 S
N389 H394 0.984 . S
N389 H395 0.985 . S
C390 C384 1.379 . S
C390 C387 1.363 . S
C390 N388 1.356 . S
C391 C385 1.363 . S
C391 C386 1.379 . S
C391 N389 1.356 1_565 S
N392 C384 1.356 . S
N392 H398 0.984 . S
N392 H399 0.984 . S
N393 C386 1.356 . S
N393 H396 0.984 . S
N393 H397 0.985 1_565 S
H394 N389 0.984 . S
H395 N389 0.985 . S
H396 N393 0.984 . S
H397 N393 0.985 1_545 S
H398 N392 0.984 . S
H399 N392 0.984 . S
H400 N388 0.984 . S
H401 N388 0.985 . S
C402 C403 1.363 . S
C402 C408 1.379 . S
C402 N410 1.356 . S
C403 C402 1.363 . S
C403 C409 1.363 . S
C404 C405 1.363 . S
C404 C409 1.379 . S
C404 N411 1.356 . S
C405 C404 1.363 . S
C405 C408 1.363 . S
N406 C408 1.356 . S
N406 H418 0.984 . S
N406 H419 0.985 . S
N407 C409 1.356 . S
N407 H412 0.984 . S
N407 H413 0.985 . S
C408 C402 1.379 . S
C408 C405 1.363 . S
C408 N406 1.356 . S
C409 C403 1.363 . S
C409 C404 1.379 . S
C409 N407 1.356 . S
N410 C402 1.356 . S
N410 H416 0.984 . S
N410 H417 0.984 . S
N411 C404 1.356 . S
N411 H414 0.984 . S
N411 H415 0.985 . S
H412 N407 0.984 . S
H413 N407 0.985 . S
H414 N411 0.984 . S
H415 N411 0.985 . S
H416 N410 0.984 . S
H417 N410 0.984 . S
H418 N406 0.984 . S
H419 N406 0.985 . S
C420 C421 1.363 . S
C420 C426 1.379 . S
C420 N428 1.356 . S
C421 C420 1.363 . S
C421 C427 1.363 . S
C422 C423 1.363 . S
C422 C427 1.379 . S
C422 N429 1.356 . S
C423 C422 1.363 . S
C423 C426 1.363 . S
N424 C426 1.356 . S
N424 H436 0.984 . S
N424 H437 0.985 . S
N425 C427 1.356 1_455 S
N425 H430 0.984 . S
N425 H431 0.985 . S
C426 C420 1.379 . S
C426 C423 1.363 . S
C426 N424 1.356 . S
C427 C421 1.363 . S
C427 C422 1.379 . S
C427 N425 1.356 1_655 S
N428 C420 1.356 . S
N428 H434 0.984 . S
N428 H435 0.984 . S
N429 C422 1.356 . S
N429 H432 0.984 . S
N429 H433 0.985 1_655 S
H430 N425 0.984 . S
H431 N425 0.985 . S
H432 N429 0.984 . S
H433 N429 0.985 1_455 S
H434 N428 0.984 . S
H435 N428 0.984 . S
H436 N424 0.984 . S
H437 N424 0.985 . S
C438 C439 1.363 . S
C438 C444 1.379 . S
C438 N446 1.356 . S
C439 C438 1.363 . S
C439 C445 1.363 . S
C440 C441 1.363 . S
C440 C445 1.379 . S
C440 N447 1.356 . S
C441 C440 1.363 . S
C441 C444 1.363 . S
N442 C444 1.356 . S
N442 H454 0.984 . S
N442 H455 0.985 . S
N443 C445 1.356 . S
N443 H448 0.984 . S
N443 H449 0.985 1_545 S
C444 C438 1.379 . S
C444 C441 1.363 . S
C444 N442 1.356 . S
C445 C439 1.363 . S
C445 C440 1.379 . S
C445 N443 1.356 . S
N446 C438 1.356 . S
N446 H452 0.984 . S
N446 H453 0.984 . S
N447 C440 1.356 . S
N447 H450 0.984 . S
N447 H451 0.985 . S
H448 N443 0.984 . S
H449 N443 0.985 1_565 S
H450 N447 0.984 . S
H451 N447 0.985 . S
H452 N446 0.984 . S
H453 N446 0.984 . S
H454 N442 0.984 . S
H455 N442 0.985 . S
C456 C457 1.363 . S
C456 C462 1.379 . S
C456 N464 1.356 1_445 S
C457 C456 1.363 . S
C457 C463 1.363 . S
C458 C459 1.363 . S
C458 C463 1.379 . S
C458 N465 1.356 1_556 S
C459 C458 1.363 . S
C459 C462 1.363 . S
N460 C462 1.356 1_655 S
N460 H472 0.984 1_545 S
N460 H473 0.985 1_556 S
N461 C463 1.356 . S
N461 H466 0.984 . S
N461 H467 0.985 . S
C462 C456 1.379 . S
C462 C459 1.363 . S
C462 N460 1.356 1_455 S
C463 C457 1.363 . S
C463 C458 1.379 . S
C463 N461 1.356 . S
N464 C456 1.356 1_665 S
N464 H470 0.984 . S
N464 H471 0.984 1_655 S
N465 C458 1.356 1_554 S
N465 H468 0.984 . S
N465 H469 0.985 . S
H466 N461 0.984 . S
H467 N461 0.985 . S
H468 N465 0.984 . S
H469 N465 0.985 . S
H470 N464 0.984 . S
H471 N464 0.984 1_455 S
H472 N460 0.984 1_565 S
H473 N460 0.985 1_554 S
C474 C475 1.363 . S
C474 C480 1.379 . S
C474 N482 1.356 . S
C475 C474 1.363 . S
C475 C481 1.363 . S
C476 C477 1.363 . S
C476 C481 1.379 . S
C476 N483 1.356 . S
C477 C476 1.363 . S
C477 C480 1.363 . S
N478 C480 1.356 . S
N478 H490 0.984 . S
N478 H491 0.985 . S
N479 C481 1.356 . S
N479 H484 0.984 . S
N479 H485 0.985 . S
C480 C474 1.379 . S
C480 C477 1.363 . S
C480 N478 1.356 . S
C481 C475 1.363 . S
C481 C476 1.379 . S
C481 N479 1.356 . S
N482 C474 1.356 . S
N482 H488 0.984 1_455 S
N482 H489 0.984 . S
N483 C476 1.356 . S
N483 H486 0.984 . S
N483 H487 0.985 . S
H484 N479 0.984 . S
H485 N479 0.985 . S
H486 N483 0.984 . S
H487 N483 0.985 . S
H488 N482 0.984 1_655 S
H489 N482 0.984 . S
H490 N478 0.984 . S
H491 N478 0.985 . S
C492 C493 1.363 1_545 S
C492 C498 1.379 . S
C492 N500 1.356 . S
C493 C492 1.363 1_565 S
C493 C499 1.363 . S
C494 C495 1.363 . S
C494 C499 1.379 1_545 S
C494 N501 1.356 1_655 S
C495 C494 1.363 . S
C495 C498 1.363 . S
N496 C498 1.356 . S
N496 H508 0.984 . S
N496 H509 0.985 . S
N497 C499 1.356 . S
N497 H502 0.984 . S
N497 H503 0.985 . S
C498 C492 1.379 . S
C498 C495 1.363 . S
C498 N496 1.356 . S
C499 C493 1.363 . S
C499 C494 1.379 1_565 S
C499 N497 1.356 . S
N500 C492 1.356 . S
N500 H506 0.984 . S
N500 H507 0.984 1_545 S
N501 C494 1.356 1_455 S
N501 H504 0.984 . S
N501 H505 0.985 1_545 S
H502 N497 0.984 . S
H503 N497 0.985 . S
H504 N501 0.984 . S
H505 N501 0.985 1_565 S
H506 N500 0.984 . S
H507 N500 0.984 1_565 S
H508 N496 0.984 . S
H509 N496 0.985 . S
C510 C511 1.363 . S
C510 C516 1.379 . S
C510 N518 1.356 . S
C511 C510 1.363 . S
C511 C517 1.363 . S
C512 C513 1.363 1_556 S
C512 C517 1.379 . S
C512 N519 1.356 1_556 S
C513 C512 1.363 1_554 S
C513 C516 1.363 1_554 S
N514 C516 1.356 1_554 S
N514 H526 0.984 . S
N514 H527 0.985 . S
N515 C517 1.356 . S
N515 H520 0.984 . S
N515 H521 0.985 . S
C516 C510 1.379 . S
C516 C513 1.363 1_556 S
C516 N514 1.356 1_556 S
C517 C511 1.363 . S
C517 C512 1.379 . S
C517 N515 1.356 . S
N518 C510 1.356 . S
N518 H524 0.984 . S
N518 H525 0.984 . S
N519 C512 1.356 1_554 S
N519 H522 0.984 . S
N519 H523 0.985 . S
H520 N515 0.984 . S
H521 N515 0.985 . S
H522 N519 0.984 . S
H523 N519 0.985 . S
H524 N518 0.984 . S
H525 N518 0.984 . S
H526 N514 0.984 . S
H527 N514 0.985 . S
C528 C529 1.363 . S
C528 C534 1.379 . S
C528 N536 1.356 . S
C529 C528 1.363 . S
C529 C535 1.363 1_455 S
C530 C531 1.363 . S
C530 C535 1.379 . S
C530 N537 1.356 . S
C531 C530 1.363 . S
C531 C534 1.363 1_655 S
N532 C534 1.356 . S
N532 H544 0.984 . S
N532 H545 0.985 1_455 S
N533 C535 1.357 1_455 S
N533 H538 0.986 1_565 S
N533 H539 0.982 1_455 S
C534 C528 1.379 . S
C534 C531 1.363 1_455 S
C534 N532 1.356 . S
C535 C529 1.363 1_655 S
C535 C530 1.379 . S
C535 N533 1.357 1_655 S
N536 C528 1.356 . S
N536 H542 0.984 . S
N536 H543 0.984 1_565 S
N537 C530 1.356 . S
N537 H540 0.984 . S
N537 H541 0.985 . S
H538 N533 0.986 1_545 S
H539 N533 0.982 1_655 S
H540 N537 0.984 . S
H541 N537 0.985 . S
H542 N536 0.984 . S
H543 N536 0.984 1_545 S
H544 N532 0.984 . S
H545 N532 0.985 1_655 S
C546 C547 1.363 1_565 S
C546 C552 1.379 . S
C546 N554 1.356 . S
C547 C546 1.363 1_545 S
C547 C553 1.363 . S
C548 C549 1.363 . S
C548 C553 1.379 . S
C548 N555 1.356 . S
C549 C548 1.363 . S
C549 C552 1.363 1_545 S
N550 C552 1.356 . S
N550 H562 0.984 . S
N550 H563 0.985 . S
N551 C553 1.356 . S
N551 H556 0.984 . S
N551 H557 0.985 . S
C552 C546 1.379 . S
C552 C549 1.363 1_565 S
C552 N550 1.356 . S
C553 C547 1.363 . S
C553 C548 1.379 . S
C553 N551 1.356 . S
N554 C546 1.356 . S
N554 H560 0.984 . S
N554 H561 0.984 . S
N555 C548 1.356 . S
N555 H558 0.984 . S
N555 H559 0.985 . S
H556 N551 0.984 . S
H557 N551 0.985 . S
H558 N555 0.984 . S
H559 N555 0.985 . S
H560 N554 0.984 . S
H561 N554 0.984 . S
H562 N550 0.984 . S
H563 N550 0.985 . S
C241 C179 1.807 . S
C243 C6 1.744 . S
C259 C206 1.744 . S
C261 C59 1.807 . S
C277 C19 1.807 . S
C279 C86 1.744 . S
C295 C46 1.743 . S
C297 C139 1.806 . S
C313 C99 1.807 . S
C315 C166 1.744 . S
C331 C126 1.744 . S
C333 C219 1.807 . S
C349 C9 1.710 . S
C351 C138 1.959 . S
C367 C169 1.710 . S
C369 C58 1.959 . S
C385 C218 1.958 . S
C387 C89 1.709 . S
C403 C98 1.958 . S
C405 C209 1.709 . S
C421 C18 1.959 . S
C423 C129 1.710 . S
C439 C178 1.958 . S
C441 C49 1.710 . S
C457 C215 0.984 . S
C459 C15 0.984 1_556 S
C475 C50 1.852 1_455 S
C477 C10 1.852 . S
C493 C95 0.983 . S
C495 C55 0.983 . S
C511 C90 1.852 . S
C513 C130 1.852 . S
C529 C175 0.984 . S
C531 C135 0.984 . S
C547 C210 1.852 . S
C549 C170 1.852 1_545 S
