# Generated by pormake.
# Topology zfh, (5)-cn, num edge types: 1
# Building blocks:
#     Node 0, Type 0, BuildingBlock: BEQFEK_clean_sbu_0, # of connection points: 5
#     Node 1, Type 0, BuildingBlock: BEQFEK_clean_sbu_0, # of connection points: 5
#     Node 2, Type 0, BuildingBlock: BEQFEK_clean_sbu_0, # of connection points: 5
#     Node 3, Type 0, BuildingBlock: BEQFEK_clean_sbu_0, # of connection points: 5
#     Node 4, Type 0, BuildingBlock: BEQFEK_clean_sbu_0, # of connection points: 5
#     Node 5, Type 0, BuildingBlock: BEQFEK_clean_sbu_0, # of connection points: 5
#     Node 6, Type 0, BuildingBlock: BEQFEK_clean_sbu_0, # of connection points: 5
#     Node 7, Type 0, BuildingBlock: BEQFEK_clean_sbu_0, # of connection points: 5
#     Node 8, Type 0, BuildingBlock: BEQFEK_clean_sbu_0, # of connection points: 5
#     Node 9, Type 0, BuildingBlock: BEQFEK_clean_sbu_0, # of connection points: 5
#     Node 10, Type 0, BuildingBlock: BEQFEK_clean_sbu_0, # of connection points: 5
#     Node 11, Type 0, BuildingBlock: BEQFEK_clean_sbu_0, # of connection points: 5
#     Node 12, Type 0, BuildingBlock: BEQFEK_clean_sbu_0, # of connection points: 5
#     Node 13, Type 0, BuildingBlock: BEQFEK_clean_sbu_0, # of connection points: 5
#     Node 14, Type 0, BuildingBlock: BEQFEK_clean_sbu_0, # of connection points: 5
#     Node 15, Type 0, BuildingBlock: BEQFEK_clean_sbu_0, # of connection points: 5
#     Edge 16, Type (0, 0), BuildingBlock: MIFKUJ_clean_linker_0, # of connection points: 2
#     Edge 17, Type (0, 0), BuildingBlock: MIFKUJ_clean_linker_0, # of connection points: 2
#     Edge 18, Type (0, 0), BuildingBlock: MIFKUJ_clean_linker_0, # of connection points: 2
#     Edge 19, Type (0, 0), BuildingBlock: MIFKUJ_clean_linker_0, # of connection points: 2
#     Edge 20, Type (0, 0), BuildingBlock: MIFKUJ_clean_linker_0, # of connection points: 2
#     Edge 21, Type (0, 0), BuildingBlock: MIFKUJ_clean_linker_0, # of connection points: 2
#     Edge 22, Type (0, 0), BuildingBlock: MIFKUJ_clean_linker_0, # of connection points: 2
#     Edge 23, Type (0, 0), BuildingBlock: MIFKUJ_clean_linker_0, # of connection points: 2
#     Edge 24, Type (0, 0), BuildingBlock: MIFKUJ_clean_linker_0, # of connection points: 2
#     Edge 25, Type (0, 0), BuildingBlock: MIFKUJ_clean_linker_0, # of connection points: 2
#     Edge 26, Type (0, 0), BuildingBlock: MIFKUJ_clean_linker_0, # of connection points: 2
#     Edge 27, Type (0, 0), BuildingBlock: MIFKUJ_clean_linker_0, # of connection points: 2
#     Edge 28, Type (0, 0), BuildingBlock: MIFKUJ_clean_linker_0, # of connection points: 2
#     Edge 29, Type (0, 0), BuildingBlock: MIFKUJ_clean_linker_0, # of connection points: 2
#     Edge 30, Type (0, 0), BuildingBlock: MIFKUJ_clean_linker_0, # of connection points: 2
#     Edge 31, Type (0, 0), BuildingBlock: MIFKUJ_clean_linker_0, # of connection points: 2
#     Edge 32, Type (0, 0), BuildingBlock: MIFKUJ_clean_linker_0, # of connection points: 2
#     Edge 33, Type (0, 0), BuildingBlock: MIFKUJ_clean_linker_0, # of connection points: 2
#     Edge 34, Type (0, 0), BuildingBlock: MIFKUJ_clean_linker_0, # of connection points: 2
#     Edge 35, Type (0, 0), BuildingBlock: MIFKUJ_clean_linker_0, # of connection points: 2
#     Edge 36, Type (0, 0), BuildingBlock: MIFKUJ_clean_linker_0, # of connection points: 2
#     Edge 37, Type (0, 0), BuildingBlock: MIFKUJ_clean_linker_0, # of connection points: 2
#     Edge 38, Type (0, 0), BuildingBlock: MIFKUJ_clean_linker_0, # of connection points: 2
#     Edge 39, Type (0, 0), BuildingBlock: MIFKUJ_clean_linker_0, # of connection points: 2
#     Edge 40, Type (0, 0), BuildingBlock: MIFKUJ_clean_linker_0, # of connection points: 2
#     Edge 41, Type (0, 0), BuildingBlock: MIFKUJ_clean_linker_0, # of connection points: 2
#     Edge 42, Type (0, 0), BuildingBlock: MIFKUJ_clean_linker_0, # of connection points: 2
#     Edge 43, Type (0, 0), BuildingBlock: MIFKUJ_clean_linker_0, # of connection points: 2
#     Edge 44, Type (0, 0), BuildingBlock: MIFKUJ_clean_linker_0, # of connection points: 2
#     Edge 45, Type (0, 0), BuildingBlock: MIFKUJ_clean_linker_0, # of connection points: 2
#     Edge 46, Type (0, 0), BuildingBlock: MIFKUJ_clean_linker_0, # of connection points: 2
#     Edge 47, Type (0, 0), BuildingBlock: MIFKUJ_clean_linker_0, # of connection points: 2
#     Edge 48, Type (0, 0), BuildingBlock: MIFKUJ_clean_linker_0, # of connection points: 2
#     Edge 49, Type (0, 0), BuildingBlock: MIFKUJ_clean_linker_0, # of connection points: 2
#     Edge 50, Type (0, 0), BuildingBlock: MIFKUJ_clean_linker_0, # of connection points: 2
#     Edge 51, Type (0, 0), BuildingBlock: MIFKUJ_clean_linker_0, # of connection points: 2
#     Edge 52, Type (0, 0), BuildingBlock: MIFKUJ_clean_linker_0, # of connection points: 2
#     Edge 53, Type (0, 0), BuildingBlock: MIFKUJ_clean_linker_0, # of connection points: 2
#     Edge 54, Type (0, 0), BuildingBlock: MIFKUJ_clean_linker_0, # of connection points: 2
#     Edge 55, Type (0, 0), BuildingBlock: MIFKUJ_clean_linker_0, # of connection points: 2
# Relax obj value: 0.205
# Max RMSD: 0.163
# Mean RMSD: 0.163
data_MOF--net-zfh--node1-BEQFEK_clean_sbu_0--edge1-MIFKUJ_clean_linker_0
_symmetry_space_group_name_H-M    P1
_symmetry_Int_Tables_number       1
_symmetry_cell_setting            triclinic
loop_
_symmetry_equiv_pos_as_xyz
'x, y, z'
_cell_length_a     54.534677
_cell_length_b     54.520286
_cell_length_c     54.880889
_cell_angle_alpha  90.004515
_cell_angle_beta   90.002032
_cell_angle_gamma 90.014717
loop_
_atom_site_label
_atom_site_type_symbol
_atom_site_fract_x
_atom_site_fract_y
_atom_site_fract_z
_atom_type_partial_charge
Co0 Co 0.53916 0.18312 0.39813 0.0
Co1 Co 0.51751 0.22332 0.36334 0.0
C2 C 0.48779 0.17954 0.38086 0.0
O3 O 0.50521 0.17093 0.39378 0.0
O4 O 0.49042 0.19925 0.36862 0.0
C5 C 0.55071 0.15214 0.44059 0.0
O6 O 0.52812 0.15555 0.44819 0.0
C7 C 0.48338 0.26342 0.35442 0.0
C8 C 0.50164 0.2844 0.32517 0.0
C9 C 0.48157 0.28468 0.34068 0.0
N10 N 0.50363 0.25123 0.34748 0.0
N11 N 0.51424 0.26362 0.32966 0.0
C12 C 0.46796 0.25626 0.37582 0.0
H13 H 0.47815 0.24355 0.38795 0.0
H14 H 0.46221 0.27273 0.38624 0.0
H15 H 0.45123 0.2468 0.36918 0.0
C16 C 0.54969 0.22718 0.42834 0.0
N17 N 0.54003 0.21633 0.40845 0.0
N18 N 0.53168 0.23334 0.39358 0.0
C19 C 0.53599 0.25559 0.40352 0.0
C20 C 0.54734 0.25239 0.42591 0.0
C21 C 0.56071 0.21356 0.44932 0.0
H22 H 0.54686 0.20079 0.45688 0.0
H23 H 0.56678 0.22606 0.46406 0.0
H24 H 0.57655 0.20259 0.44283 0.0
O25 O 0.55684 0.17966 0.36701 0.0
O26 O 0.54296 0.20826 0.3418 0.0
H27 H 0.54264 0.29453 0.39914 0.0
H28 H 0.51199 0.28445 0.39234 0.0
C29 C 0.53166 0.27954 0.39088 0.0
H30 H 0.53662 0.27797 0.37139 0.0
H31 H 0.5307 0.25851 0.3214 0.0
O32 O 0.55782 0.16206 0.42088 0.0
C33 C 0.55719 0.19028 0.34638 0.0
Co34 Co 0.31628 0.54375 0.39335 0.0
Co35 Co 0.27809 0.51765 0.35936 0.0
C36 C 0.32265 0.49141 0.37902 0.0
O37 O 0.33009 0.51019 0.3907 0.0
O38 O 0.30296 0.49196 0.36655 0.0
C39 C 0.34418 0.55673 0.43684 0.0
O40 O 0.3394 0.53449 0.44474 0.0
C41 C 0.23975 0.48136 0.3511 0.0
C42 C 0.21837 0.49769 0.32102 0.0
C43 C 0.21877 0.47817 0.33721 0.0
N44 N 0.25115 0.50187 0.3436 0.0
N45 N 0.23856 0.51129 0.32527 0.0
C46 C 0.24719 0.46703 0.37315 0.0
H47 H 0.25909 0.47825 0.38518 0.0
H48 H 0.23081 0.46077 0.38342 0.0
H49 H 0.25761 0.45058 0.36725 0.0
C50 C 0.27102 0.55555 0.42096 0.0
N51 N 0.28288 0.54385 0.40281 0.0
N52 N 0.2667 0.53318 0.38848 0.0
C53 C 0.244 0.53765 0.39726 0.0
C54 C 0.24605 0.55181 0.41813 0.0
C55 C 0.28329 0.57081 0.44007 0.0
H56 H 0.29511 0.58479 0.43124 0.0
H57 H 0.29506 0.55884 0.45144 0.0
H58 H 0.26984 0.58006 0.45211 0.0
O59 O 0.31943 0.56041 0.36174 0.0
O60 O 0.29282 0.54249 0.33678 0.0
H61 H 0.22204 0.53558 0.36497 0.0
H62 H 0.20464 0.54079 0.3924 0.0
C63 C 0.22063 0.53097 0.38457 0.0
H64 H 0.21744 0.51099 0.38641 0.0
H65 H 0.24305 0.52769 0.31652 0.0
O66 O 0.33614 0.56349 0.41619 0.0
C67 C 0.30939 0.55849 0.3409 0.0
Co68 Co 0.96062 0.31612 0.39475 0.0
Co69 Co 0.98342 0.27839 0.35793 0.0
C70 C 0.0129 0.31992 0.37992 0.0
O71 O 0.99501 0.32754 0.39277 0.0
O72 O 0.01068 0.30137 0.36597 0.0
C73 C 0.94912 0.34119 0.4404 0.0
O74 O 0.96977 0.33218 0.44887 0.0
C75 C 0.01799 0.23926 0.34645 0.0
C76 C 0.99922 0.21915 0.31692 0.0
C77 C 0.01965 0.21848 0.33195 0.0
N78 N 0.99746 0.25149 0.34043 0.0
N79 N 0.98659 0.23968 0.32238 0.0
C80 C 0.03358 0.2455 0.36806 0.0
H81 H 0.02323 0.2571 0.3811 0.0
H82 H 0.03994 0.22861 0.37743 0.0
H83 H 0.04993 0.25583 0.36179 0.0
C84 C 0.94595 0.26993 0.41974 0.0
N85 N 0.95798 0.28219 0.40204 0.0
N86 N 0.96747 0.26629 0.38662 0.0
C87 C 0.96185 0.24338 0.39418 0.0
C88 C 0.94807 0.24497 0.41538 0.0
C89 C 0.9306 0.28186 0.43899 0.0
H90 H 0.91972 0.29697 0.4309 0.0
H91 H 0.94278 0.28961 0.45322 0.0
H92 H 0.91789 0.26858 0.44767 0.0
O93 O 0.94459 0.32275 0.36338 0.0
O94 O 0.95915 0.2959 0.33663 0.0
H95 H 0.96336 0.22081 0.36229 0.0
H96 H 0.96248 0.20364 0.39043 0.0
C97 C 0.96967 0.22036 0.38148 0.0
H98 H 0.9899 0.21917 0.38172 0.0
H99 H 0.96987 0.24489 0.31472 0.0
O100 O 0.94261 0.33638 0.41869 0.0
C101 C 0.94511 0.31385 0.34196 0.0
Co102 Co 0.18417 0.9593 0.38973 0.0
Co103 Co 0.22185 0.98598 0.35539 0.0
C104 C 0.17739 0.01185 0.3753 0.0
O105 O 0.17025 0.993 0.38707 0.0
O106 O 0.19696 0.01147 0.36264 0.0
C107 C 0.15931 0.94588 0.43487 0.0
O108 O 0.16762 0.96673 0.44359 0.0
C109 C 0.25913 0.02305 0.34429 0.0
C110 C 0.28162 0.00435 0.31646 0.0
C111 C 0.28041 0.02539 0.33059 0.0
N112 N 0.24849 0.0015 0.33871 0.0
N113 N 0.2617 0.99069 0.32162 0.0
C114 C 0.25097 0.03915 0.36485 0.0
H115 H 0.23921 0.02876 0.37772 0.0
H116 H 0.26699 0.04675 0.37479 0.0
H117 H 0.24022 0.05469 0.35735 0.0
C118 C 0.23023 0.94745 0.4165 0.0
N119 N 0.21789 0.95916 0.39864 0.0
N120 N 0.23367 0.97074 0.38457 0.0
C121 C 0.25652 0.96718 0.39343 0.0
C122 C 0.25508 0.95227 0.4139 0.0
C123 C 0.21885 0.92962 0.4339 0.0
H124 H 0.20438 0.91888 0.42456 0.0
H125 H 0.21045 0.93986 0.44923 0.0
H126 H 0.23266 0.91673 0.44141 0.0
O127 O 0.18044 0.94269 0.3582 0.0
O128 O 0.20681 0.96087 0.33318 0.0
H129 H 0.28172 0.97163 0.36385 0.0
H130 H 0.29588 0.97382 0.39355 0.0
C131 C 0.27928 0.97821 0.38279 0.0
H132 H 0.27743 0.99839 0.38257 0.0
H133 H 0.25788 0.97336 0.3145 0.0
O134 O 0.16423 0.93992 0.41303 0.0
C135 C 0.19027 0.9448 0.33728 0.0
Co136 Co 0.03825 0.81964 0.10101 0.0
Co137 Co 0.01685 0.78104 0.13778 0.0
C138 C 0.98695 0.82388 0.1179 0.0
O139 O 0.00418 0.83195 0.10439 0.0
O140 O 0.98992 0.80491 0.13118 0.0
C141 C 0.05114 0.84933 0.05759 0.0
O142 O 0.02864 0.84638 0.04954 0.0
C143 C 0.98279 0.7411 0.14671 0.0
C144 C 0.99938 0.7216 0.17788 0.0
C145 C 0.98033 0.72038 0.16118 0.0
N146 N 0.00242 0.75384 0.15438 0.0
N147 N 0.01201 0.74237 0.17333 0.0
C148 C 0.96881 0.74709 0.124 0.0
H149 H 0.97944 0.7598 0.11226 0.0
H150 H 0.96442 0.73013 0.11369 0.0
H151 H 0.95132 0.75614 0.12907 0.0
C152 C 0.0487 0.77419 0.07287 0.0
N153 N 0.03922 0.78596 0.09232 0.0
N154 N 0.03137 0.76967 0.10821 0.0
C155 C 0.03602 0.74697 0.09949 0.0
C156 C 0.04694 0.74908 0.07676 0.0
C157 C 0.0588 0.78685 0.05087 0.0
H158 H 0.04503 0.80003 0.04391 0.0
H159 H 0.06335 0.77376 0.03608 0.0
H160 H 0.07548 0.79729 0.05604 0.0
O161 O 0.0556 0.82451 0.13226 0.0
O162 O 0.04196 0.79709 0.1589 0.0
H163 H 0.04465 0.70893 0.10673 0.0
H164 H 0.01323 0.71752 0.11168 0.0
C165 C 0.0325 0.72372 0.11359 0.0
H166 H 0.03657 0.72684 0.1331 0.0
H167 H 0.02789 0.74803 0.18234 0.0
O168 O 0.05754 0.83964 0.07765 0.0
C169 C 0.05603 0.81496 0.15343 0.0
Co170 Co 0.68332 0.0462 0.11041 0.0
Co171 Co 0.72263 0.02065 0.14377 0.0
C172 C 0.67789 0.99385 0.12594 0.0
O173 O 0.66994 0.01253 0.11447 0.0
O174 O 0.69805 0.99449 0.13762 0.0
C175 C 0.65694 0.0572 0.0659 0.0
O176 O 0.66565 0.03619 0.05799 0.0
C177 C 0.7606 0.98402 0.15347 0.0
C178 C 0.7843 0.00287 0.18019 0.0
C179 C 0.7824 0.98172 0.16629 0.0
N180 N 0.75019 0.00558 0.15938 0.0
N181 N 0.76418 0.01652 0.17578 0.0
C182 C 0.75162 0.96776 0.13337 0.0
H183 H 0.74011 0.97831 0.12041 0.0
H184 H 0.76722 0.95932 0.12344 0.0
H185 H 0.74036 0.95284 0.14134 0.0
C186 C 0.72807 0.05847 0.08182 0.0
N187 N 0.71659 0.04663 0.10017 0.0
N188 N 0.7331 0.03585 0.11404 0.0
C189 C 0.75558 0.04019 0.10465 0.0
C190 C 0.75311 0.05468 0.084 0.0
C191 C 0.7157 0.07554 0.06433 0.0
H192 H 0.70144 0.08635 0.0739 0.0
H193 H 0.70684 0.06467 0.0497 0.0
H194 H 0.72897 0.08837 0.05581 0.0
O195 O 0.68087 0.06363 0.14156 0.0
O196 O 0.70788 0.04583 0.16625 0.0
H197 H 0.78136 0.03777 0.13395 0.0
H198 H 0.79522 0.03587 0.1041 0.0
C199 C 0.77905 0.03066 0.11517 0.0
H200 H 0.77833 0.0104 0.11584 0.0
H201 H 0.76067 0.03389 0.18297 0.0
O202 O 0.66221 0.06436 0.0873 0.0
C203 C 0.6913 0.06189 0.16223 0.0
Co204 Co 0.4614 0.68636 0.10674 0.0
Co205 Co 0.4841 0.72358 0.14426 0.0
C206 C 0.51222 0.67999 0.12312 0.0
O207 O 0.49527 0.67335 0.10856 0.0
O208 O 0.50934 0.69814 0.13744 0.0
C209 C 0.44812 0.65691 0.06369 0.0
O210 O 0.47139 0.657 0.05748 0.0
C211 C 0.52098 0.76117 0.1536 0.0
C212 C 0.50388 0.78373 0.18233 0.0
C213 C 0.52368 0.78298 0.16648 0.0
N214 N 0.50009 0.7502 0.16076 0.0
N215 N 0.49026 0.76347 0.17839 0.0
C216 C 0.53763 0.75088 0.13443 0.0
H217 H 0.54049 0.73106 0.13765 0.0
H218 H 0.52897 0.75306 0.11626 0.0
H219 H 0.55585 0.75992 0.1346 0.0
C220 C 0.45019 0.73244 0.08055 0.0
N221 N 0.46079 0.72012 0.09905 0.0
N222 N 0.4697 0.73588 0.11492 0.0
C223 C 0.46488 0.75883 0.107 0.0
C224 C 0.45243 0.75739 0.08498 0.0
C225 C 0.436 0.72047 0.06045 0.0
H226 H 0.42143 0.70874 0.06841 0.0
H227 H 0.44846 0.70854 0.04975 0.0
H228 H 0.42734 0.73406 0.04814 0.0
O229 O 0.44484 0.68108 0.13832 0.0
O230 O 0.45836 0.70834 0.16525 0.0
H231 H 0.46522 0.78075 0.13937 0.0
H232 H 0.46441 0.79847 0.11156 0.0
C233 C 0.47186 0.78176 0.12032 0.0
H234 H 0.49207 0.78347 0.12046 0.0
H235 H 0.47356 0.75943 0.18675 0.0
O236 O 0.44137 0.66783 0.083 0.0
C237 C 0.44436 0.69045 0.15957 0.0
Co238 Co 0.82032 0.45796 0.10423 0.0
Co239 Co 0.78245 0.48555 0.13736 0.0
C240 C 0.82692 0.51088 0.11636 0.0
O241 O 0.83442 0.49159 0.1056 0.0
O242 O 0.80718 0.51087 0.12874 0.0
C243 C 0.8459 0.44309 0.0602 0.0
O244 O 0.83777 0.46365 0.05068 0.0
C245 C 0.74431 0.5222 0.14363 0.0
C246 C 0.72471 0.50984 0.17663 0.0
C247 C 0.72419 0.52726 0.15824 0.0
N248 N 0.75585 0.50241 0.15262 0.0
N249 N 0.7443 0.49531 0.17259 0.0
C250 C 0.75302 0.53602 0.12169 0.0
H251 H 0.7693 0.54698 0.12694 0.0
H252 H 0.75889 0.52301 0.10727 0.0
H253 H 0.73896 0.54877 0.11452 0.0
C254 C 0.77452 0.44481 0.07755 0.0
N255 N 0.78669 0.45728 0.09504 0.0
N256 N 0.77069 0.46853 0.10913 0.0
C257 C 0.74784 0.46363 0.10092 0.0
C258 C 0.74955 0.44854 0.08061 0.0
C259 C 0.7863 0.42737 0.06004 0.0
H260 H 0.80057 0.41648 0.06951 0.0
H261 H 0.79507 0.43794 0.04514 0.0
H262 H 0.7727 0.41461 0.05194 0.0
O263 O 0.82356 0.44249 0.1364 0.0
O264 O 0.7974 0.46171 0.16091 0.0
H265 H 0.72503 0.4698 0.13216 0.0
H266 H 0.70806 0.46506 0.10429 0.0
C267 C 0.72479 0.47327 0.11226 0.0
H268 H 0.72374 0.49328 0.10911 0.0
H269 H 0.74929 0.48006 0.18297 0.0
O270 O 0.84052 0.43775 0.08208 0.0
C271 C 0.81377 0.44537 0.15725 0.0
Co272 Co 0.45976 0.82061 0.60401 0.0
Co273 Co 0.48456 0.78135 0.6379 0.0
C274 C 0.51198 0.82569 0.61917 0.0
O275 O 0.49363 0.83381 0.60726 0.0
O276 O 0.51066 0.80586 0.63138 0.0
C277 C 0.44738 0.84931 0.5607 0.0
O278 O 0.46956 0.84426 0.55282 0.0
C279 C 0.52039 0.7427 0.64648 0.0
C280 C 0.50347 0.72112 0.6761 0.0
C281 C 0.52334 0.72167 0.66036 0.0
N282 N 0.49971 0.75402 0.6536 0.0
N283 N 0.4899 0.74129 0.67164 0.0
C284 C 0.53515 0.75027 0.62475 0.0
H285 H 0.52419 0.76228 0.6126 0.0
H286 H 0.54153 0.73394 0.61446 0.0
H287 H 0.55151 0.76059 0.63102 0.0
C288 C 0.4478 0.77577 0.57558 0.0
N289 N 0.45927 0.78725 0.59413 0.0
N290 N 0.46947 0.77071 0.60839 0.0
C291 C 0.46498 0.74819 0.59915 0.0
C292 C 0.45127 0.75072 0.57805 0.0
C293 C 0.43288 0.78845 0.55649 0.0
H294 H 0.41907 0.80045 0.56533 0.0
H295 H 0.44512 0.8001 0.54527 0.0
H296 H 0.42346 0.77521 0.54432 0.0
O297 O 0.44285 0.82368 0.63553 0.0
O298 O 0.45965 0.79614 0.66025 0.0
H299 H 0.46616 0.72561 0.63107 0.0
H300 H 0.46157 0.70875 0.60318 0.0
C301 C 0.47123 0.72455 0.61156 0.0
H302 H 0.49124 0.72131 0.61015 0.0
H303 H 0.47336 0.74574 0.6801 0.0
O304 O 0.44043 0.84113 0.58125 0.0
C305 C 0.44418 0.81322 0.65622 0.0
Co306 Co 0.68796 0.46493 0.60154 0.0
Co307 Co 0.7246 0.48845 0.63907 0.0
C308 C 0.6823 0.51683 0.61708 0.0
O309 O 0.67501 0.49888 0.60406 0.0
O310 O 0.70092 0.51492 0.63096 0.0
C311 C 0.64698 0.44466 0.57499 0.0
O312 O 0.63352 0.45745 0.59025 0.0
C313 C 0.76253 0.52393 0.6517 0.0
C314 C 0.78268 0.50521 0.68122 0.0
C315 C 0.78302 0.5259 0.66653 0.0
N316 N 0.75076 0.50298 0.65721 0.0
N317 N 0.76258 0.49213 0.67526 0.0
C318 C 0.75623 0.5397 0.63026 0.0
H319 H 0.74493 0.52934 0.61696 0.0
H320 H 0.7731 0.54648 0.62116 0.0
H321 H 0.7456 0.5558 0.63667 0.0
C322 C 0.73451 0.45305 0.57659 0.0
N323 N 0.72195 0.4642 0.5946 0.0
N324 N 0.73751 0.47359 0.61037 0.0
C325 C 0.76056 0.46866 0.60285 0.0
C326 C 0.75941 0.45549 0.58121 0.0
C327 C 0.7227 0.43798 0.55703 0.0
H328 H 0.71179 0.42313 0.56562 0.0
H329 H 0.70993 0.44967 0.54641 0.0
H330 H 0.73633 0.42959 0.54459 0.0
O331 O 0.68163 0.44772 0.63247 0.0
O332 O 0.70765 0.46326 0.65954 0.0
H333 H 0.78256 0.46939 0.63516 0.0
H334 H 0.80021 0.46954 0.60727 0.0
C335 C 0.78328 0.47629 0.61618 0.0
H336 H 0.78427 0.49654 0.61662 0.0
H337 H 0.75771 0.47514 0.68255 0.0
O338 O 0.67019 0.44614 0.57621 0.0
C339 C 0.69043 0.44842 0.65395 0.0
Co340 Co 0.04307 0.68556 0.60692 0.0
Co341 Co 0.02004 0.72436 0.64243 0.0
C342 C 0.99119 0.68117 0.62282 0.0
O343 O 0.00898 0.67335 0.60993 0.0
O344 O 0.9933 0.70034 0.63591 0.0
C345 C 0.0543 0.65884 0.56212 0.0
O346 O 0.03277 0.66607 0.55415 0.0
C347 C 0.98446 0.76275 0.65317 0.0
C348 C 0.00302 0.78445 0.6817 0.0
C349 C 0.98227 0.78386 0.66711 0.0
N350 N 0.00557 0.75151 0.65911 0.0
N351 N 0.01635 0.76429 0.67655 0.0
C352 C 0.96868 0.75522 0.63211 0.0
H353 H 0.97914 0.74344 0.61931 0.0
H354 H 0.96167 0.77155 0.62225 0.0
H355 H 0.95275 0.74468 0.63907 0.0
C356 C 0.0561 0.73098 0.57968 0.0
N357 N 0.04469 0.71923 0.59812 0.0
N358 N 0.03498 0.73557 0.61293 0.0
C359 C 0.03973 0.75824 0.60419 0.0
C360 C 0.05323 0.75606 0.58285 0.0
C361 C 0.07171 0.71858 0.56091 0.0
H362 H 0.08324 0.70436 0.56968 0.0
H363 H 0.0597 0.70959 0.54728 0.0
H364 H 0.08385 0.7318 0.55138 0.0
O365 O 0.05974 0.6806 0.63832 0.0
O366 O 0.04518 0.70854 0.66397 0.0
H367 H 0.03821 0.78232 0.63499 0.0
H368 H 0.03773 0.79807 0.60601 0.0
C369 C 0.03141 0.78158 0.61597 0.0
H370 H 0.01114 0.78204 0.61625 0.0
H371 H 0.03339 0.75993 0.68404 0.0
O372 O 0.06129 0.66507 0.58332 0.0
C373 C 0.05944 0.69058 0.65928 0.0
Co374 Co 0.81791 0.04083 0.60541 0.0
Co375 Co 0.77992 0.01616 0.64072 0.0
C376 C 0.82337 0.98854 0.621 0.0
O377 O 0.83091 0.00688 0.6087 0.0
O378 O 0.80401 0.98979 0.63389 0.0
C379 C 0.84277 0.05264 0.55982 0.0
O380 O 0.83361 0.03205 0.55132 0.0
C381 C 0.74174 0.98052 0.65297 0.0
C382 C 0.72019 1.00038 0.68076 0.0
C383 C 0.72056 0.97908 0.66695 0.0
N384 N 0.7531 0.00182 0.65806 0.0
N385 N 0.74045 0.01332 0.67513 0.0
C386 C 0.74915 0.96387 0.63255 0.0
H387 H 0.76116 0.97366 0.61946 0.0
H388 H 0.73279 0.95673 0.62283 0.0
H389 H 0.7594 0.94805 0.64016 0.0
C390 C 0.77191 0.05358 0.57891 0.0
N391 N 0.78414 0.04175 0.59678 0.0
N392 N 0.76821 0.03095 0.61128 0.0
C393 C 0.74537 0.0351 0.60272 0.0
C394 C 0.74696 0.04965 0.58201 0.0
C395 C 0.78359 0.07078 0.56107 0.0
H396 H 0.79851 0.08121 0.57004 0.0
H397 H 0.79148 0.06004 0.54581 0.0
H398 H 0.77008 0.08395 0.55351 0.0
O399 O 0.82236 0.05819 0.63641 0.0
O400 O 0.79562 0.04157 0.66207 0.0
H401 H 0.72048 0.03213 0.63276 0.0
H402 H 0.7058 0.02975 0.60331 0.0
C403 C 0.72242 0.02506 0.61392 0.0
H404 H 0.7236 0.00485 0.61454 0.0
H405 H 0.7449 0.03064 0.68191 0.0
O406 O 0.83821 0.05902 0.58161 0.0
C407 C 0.81256 0.05704 0.65741 0.0
Co408 Co 0.95959 0.17994 0.89208 0.0
Co409 Co 0.98531 0.21899 0.85841 0.0
C410 C 0.0106 0.17235 0.87524 0.0
O411 O 0.99243 0.16509 0.88788 0.0
O412 O 0.00981 0.1924 0.86336 0.0
C413 C 0.94654 0.15236 0.93551 0.0
O414 O 0.96825 0.15858 0.94387 0.0
C415 C 0.02268 0.25715 0.85209 0.0
C416 C 0.00695 0.28011 0.8229 0.0
C417 C 0.02609 0.27908 0.83954 0.0
N418 N 0.00205 0.24637 0.84391 0.0
N419 N 0.99303 0.25994 0.82609 0.0
C420 C 0.03846 0.24657 0.87181 0.0
H421 H 0.03816 0.22635 0.8711 0.0
H422 H 0.03124 0.2522 0.88986 0.0
H423 H 0.05773 0.25287 0.86998 0.0
C424 C 0.94977 0.2245 0.92174 0.0
N425 N 0.96074 0.21296 0.9029 0.0
N426 N 0.97091 0.22943 0.88852 0.0
C427 C 0.96661 0.25197 0.89779 0.0
C428 C 0.9533 0.24953 0.91917 0.0
C429 C 0.93343 0.21223 0.93997 0.0
H430 H 0.92087 0.19935 0.93058 0.0
H431 H 0.94485 0.20174 0.95303 0.0
H432 H 0.92233 0.22572 0.95035 0.0
O433 O 0.9422 0.17883 0.86076 0.0
O434 O 0.95915 0.2063 0.836 0.0
H435 H 0.96833 0.2754 0.86649 0.0
H436 H 0.96598 0.29178 0.89499 0.0
C437 C 0.97403 0.27555 0.88586 0.0
H438 H 0.99419 0.27748 0.88682 0.0
H439 H 0.97674 0.25603 0.81688 0.0
O440 O 0.93997 0.15943 0.91446 0.0
C441 C 0.94319 0.1897 0.84026 0.0
Co442 Co 0.31975 0.96059 0.89468 0.0
Co443 Co 0.28245 0.98536 0.85856 0.0
C444 C 0.32549 0.013 0.87927 0.0
O445 O 0.33272 0.99456 0.8916 0.0
O446 O 0.30636 0.01191 0.86597 0.0
C447 C 0.34344 0.94817 0.94088 0.0
O448 O 0.33359 0.96825 0.94979 0.0
C449 C 0.24484 0.02073 0.84352 0.0
C450 C 0.22053 0.99776 0.82087 0.0
C451 C 0.22219 0.02061 0.83187 0.0
N452 N 0.25539 0.99865 0.84054 0.0
N453 N 0.24112 0.98527 0.82633 0.0
C454 C 0.25645 0.04127 0.85743 0.0
H455 H 0.27553 0.04367 0.85097 0.0
H456 H 0.25709 0.03655 0.8771 0.0
H457 H 0.24662 0.05886 0.85472 0.0
C458 C 0.27321 0.94812 0.92041 0.0
N459 N 0.28583 0.95963 0.9026 0.0
N460 N 0.27027 0.97091 0.88806 0.0
C461 C 0.24733 0.96767 0.8968 0.0
C462 C 0.24841 0.95295 0.9174 0.0
C463 C 0.2843 0.93052 0.93822 0.0
H464 H 0.29957 0.92034 0.92957 0.0
H465 H 0.2915 0.94088 0.95407 0.0
H466 H 0.27051 0.91714 0.94491 0.0
O467 O 0.32504 0.94342 0.86383 0.0
O468 O 0.29883 0.95991 0.83762 0.0
H469 H 0.22039 0.97051 0.86864 0.0
H470 H 0.20878 0.9774 0.89865 0.0
C471 C 0.22479 0.97924 0.88634 0.0
H472 H 0.2281 0.99903 0.88348 0.0
H473 H 0.24465 0.96705 0.82172 0.0
O474 O 0.33965 0.94241 0.91878 0.0
C475 C 0.31578 0.94457 0.84261 0.0
Co476 Co 0.54648 0.31637 0.88934 0.0
Co477 Co 0.52291 0.27745 0.85427 0.0
C478 C 0.49439 0.32076 0.87418 0.0
O479 O 0.51213 0.32849 0.8872 0.0
O480 O 0.49663 0.30174 0.8609 0.0
C481 C 0.5585 0.3437 0.9335 0.0
O482 O 0.53697 0.33675 0.94172 0.0
C483 C 0.48703 0.23895 0.8456 0.0
C484 C 0.50414 0.21692 0.81644 0.0
C485 C 0.48421 0.2176 0.83212 0.0
N486 N 0.50774 0.25018 0.8384 0.0
N487 N 0.51763 0.23722 0.82058 0.0
C488 C 0.47237 0.24679 0.86732 0.0
H489 H 0.48357 0.25855 0.87951 0.0
H490 H 0.46563 0.23063 0.87763 0.0
H491 H 0.45628 0.25753 0.86104 0.0
C492 C 0.55956 0.27115 0.91686 0.0
N493 N 0.54814 0.28282 0.89838 0.0
N494 N 0.53858 0.26642 0.88353 0.0
C495 C 0.54367 0.24378 0.89215 0.0
C496 C 0.55705 0.24606 0.91355 0.0
C497 C 0.57461 0.28366 0.936 0.0
H498 H 0.58662 0.29762 0.92742 0.0
H499 H 0.56222 0.29304 0.94902 0.0
H500 H 0.58621 0.27047 0.94619 0.0
O501 O 0.56287 0.3207 0.85748 0.0
O502 O 0.5473 0.29302 0.83206 0.0
H503 H 0.54175 0.22036 0.86088 0.0
H504 H 0.5434 0.20396 0.88942 0.0
C505 C 0.53585 0.22036 0.88019 0.0
H506 H 0.51562 0.21896 0.88087 0.0
H507 H 0.53424 0.24154 0.81217 0.0
O508 O 0.56531 0.33707 0.91237 0.0
C509 C 0.56202 0.31065 0.83653 0.0
Co510 Co 0.18699 0.54104 0.89416 0.0
Co511 Co 0.22501 0.51678 0.85838 0.0
C512 C 0.18069 0.48965 0.87963 0.0
O513 O 0.17329 0.50761 0.8925 0.0
O514 O 0.19974 0.49133 0.86627 0.0
C515 C 0.14655 0.55949 0.92388 0.0
O516 O 0.13327 0.542 0.91401 0.0
C517 C 0.26516 0.48199 0.8537 0.0
C518 C 0.28086 0.49033 0.81757 0.0
C519 C 0.28409 0.47575 0.83802 0.0
N520 N 0.25169 0.49979 0.84328 0.0
N521 N 0.26102 0.50455 0.82156 0.0
C522 C 0.25941 0.47072 0.87795 0.0
H523 H 0.23972 0.47292 0.88239 0.0
H524 H 0.27013 0.48 0.89241 0.0
H525 H 0.26435 0.45097 0.87802 0.0
C526 C 0.23272 0.55157 0.92132 0.0
N527 N 0.22071 0.54105 0.90257 0.0
N528 N 0.23679 0.5328 0.8867 0.0
C529 C 0.25954 0.53885 0.89431 0.0
C530 C 0.25768 0.55051 0.91667 0.0
C531 C 0.22041 0.56449 0.94202 0.0
H532 H 0.2121 0.58173 0.93518 0.0
H533 H 0.20548 0.55282 0.94939 0.0
H534 H 0.23357 0.56904 0.95677 0.0
O535 O 0.18207 0.55652 0.8618 0.0
O536 O 0.21014 0.54162 0.8362 0.0
H537 H 0.27836 0.5362 0.85995 0.0
H538 H 0.29643 0.54936 0.88416 0.0
C539 C 0.28248 0.53529 0.87969 0.0
H540 H 0.29055 0.51716 0.88397 0.0
H541 H 0.25416 0.51785 0.80968 0.0
O542 O 0.16901 0.56154 0.91808 0.0
C543 C 0.19214 0.55582 0.84085 0.0
H544 H 0.32889 0.01536 0.335 0.0
H545 H 0.36215 0.04404 0.34439 0.0
H546 H 0.31082 0.10418 0.34354 0.0
H547 H 0.27729 0.0754 0.33445 0.0
H548 H 0.359 0.11101 0.31716 0.0
H549 H 0.32452 0.08755 0.3948 0.0
H550 H 0.31005 0.05729 0.42493 0.0
H551 H 0.38198 0.02543 0.42804 0.0
H552 H 0.39677 0.05522 0.39755 0.0
H553 H 0.44296 0.19652 0.36618 0.0
H554 H 0.40567 0.17266 0.35917 0.0
H555 H 0.44329 0.10693 0.38205 0.0
H556 H 0.48023 0.13089 0.39017 0.0
H557 H 0.39938 0.10466 0.39797 0.0
H558 H 0.43413 0.12336 0.31987 0.0
H559 H 0.45033 0.1499 0.28723 0.0
H560 H 0.38095 0.18679 0.28229 0.0
H561 H 0.36442 0.16065 0.31514 0.0
C562 C 0.32475 0.03473 0.33655 0.0
C563 C 0.30054 0.0432 0.3342 0.0
C564 C 0.34371 0.05104 0.342 0.0
C565 C 0.33885 0.07615 0.34481 0.0
C566 C 0.31486 0.08483 0.3415 0.0
C567 C 0.29577 0.06842 0.33645 0.0
C568 C 0.35883 0.09305 0.35202 0.0
C569 C 0.36761 0.11001 0.33495 0.0
C570 C 0.37042 0.09108 0.37498 0.0
C571 C 0.36169 0.07349 0.39372 0.0
C572 C 0.33721 0.07397 0.40176 0.0
C573 C 0.32895 0.05692 0.41892 0.0
C574 C 0.34507 0.03941 0.42836 0.0
C575 C 0.3695 0.03899 0.4207 0.0
C576 C 0.37784 0.05596 0.40349 0.0
C577 C 0.4432 0.17701 0.36994 0.0
C578 C 0.4646 0.16556 0.37858 0.0
C579 C 0.4219 0.16334 0.36577 0.0
C580 C 0.42175 0.13783 0.3695 0.0
C581 C 0.44288 0.12655 0.37894 0.0
C582 C 0.46404 0.14028 0.38356 0.0
C583 C 0.39991 0.12275 0.36301 0.0
C584 C 0.39074 0.10599 0.38021 0.0
C585 C 0.38828 0.12456 0.33994 0.0
C586 C 0.39813 0.14024 0.32014 0.0
C587 C 0.42238 0.13725 0.31194 0.0
C588 C 0.43162 0.1522 0.29339 0.0
C589 C 0.4167 0.17007 0.28275 0.0
C590 C 0.39249 0.17297 0.29059 0.0
C591 C 0.38318 0.15808 0.30916 0.0
H592 H 0.42388 0.18162 0.26839 0.0
H593 H 0.33864 0.02621 0.44163 0.0
H594 H 0.30875 0.44477 0.36681 0.0
H595 H 0.33519 0.40875 0.36201 0.0
H596 H 0.39788 0.45165 0.38378 0.0
H597 H 0.37157 0.48764 0.3891 0.0
H598 H 0.40235 0.42459 0.33784 0.0
H599 H 0.3794 0.41303 0.42217 0.0
H600 H 0.34989 0.40869 0.45593 0.0
H601 H 0.31839 0.34548 0.42128 0.0
H602 H 0.34751 0.34966 0.38711 0.0
H603 H 0.4931 0.33291 0.34431 0.0
H604 H 0.4654 0.36727 0.35201 0.0
H605 H 0.40373 0.31755 0.35191 0.0
H606 H 0.43172 0.28299 0.34534 0.0
H607 H 0.3974 0.34804 0.38646 0.0
H608 H 0.41792 0.3579 0.30261 0.0
H609 H 0.44471 0.36163 0.26661 0.0
H610 H 0.4771 0.42679 0.29653 0.0
H611 H 0.45073 0.42328 0.33288 0.0
C612 C 0.32811 0.44646 0.37086 0.0
C613 C 0.33807 0.46906 0.37832 0.0
C614 C 0.34316 0.42587 0.36813 0.0
C615 C 0.36845 0.42761 0.3725 0.0
C616 C 0.37839 0.45 0.38032 0.0
C617 C 0.3633 0.47048 0.38346 0.0
C618 C 0.38471 0.40638 0.36786 0.0
C619 C 0.40156 0.40793 0.34864 0.0
C620 C 0.3829 0.3844 0.38138 0.0
C621 C 0.36547 0.38182 0.40196 0.0
C622 C 0.36603 0.39834 0.42163 0.0
C623 C 0.34941 0.39588 0.44087 0.0
C624 C 0.33223 0.37686 0.44072 0.0
C625 C 0.33169 0.36022 0.42136 0.0
C626 C 0.34826 0.36262 0.40206 0.0
C627 C 0.4736 0.32939 0.3458 0.0
C628 C 0.46449 0.30538 0.34424 0.0
C629 C 0.45775 0.34904 0.3501 0.0
C630 C 0.43233 0.34516 0.35212 0.0
C631 C 0.42322 0.32108 0.35045 0.0
C632 C 0.43918 0.30135 0.34666 0.0
C633 C 0.41538 0.36616 0.35641 0.0
C634 C 0.39829 0.3646 0.37554 0.0
C635 C 0.4166 0.388 0.34243 0.0
C636 C 0.4325 0.39019 0.32058 0.0
C637 C 0.43088 0.37293 0.3016 0.0
C638 C 0.44597 0.37502 0.28111 0.0
C639 C 0.46264 0.3944 0.27931 0.0
C640 C 0.46421 0.41177 0.29797 0.0
C641 C 0.44917 0.40976 0.3185 0.0
H642 H 0.47431 0.39598 0.26343 0.0
H643 H 0.31938 0.37499 0.45563 0.0
H644 H 0.05827 0.3048 0.36462 0.0
H645 H 0.09507 0.33016 0.35928 0.0
H646 H 0.05614 0.3929 0.3873 0.0
H647 H 0.01952 0.36769 0.39325 0.0
H648 H 0.08024 0.39714 0.33811 0.0
H649 H 0.09532 0.37318 0.42204 0.0
H650 H 0.10093 0.34288 0.45492 0.0
H651 H 0.16196 0.31146 0.41659 0.0
H652 H 0.15647 0.34138 0.38329 0.0
H653 H 0.17052 0.48862 0.34232 0.0
H654 H 0.13704 0.46018 0.35099 0.0
H655 H 0.18803 0.39959 0.34944 0.0
H656 H 0.22181 0.42841 0.34214 0.0
H657 H 0.15841 0.39177 0.38404 0.0
H658 H 0.14596 0.41324 0.30099 0.0
H659 H 0.1411 0.44028 0.26531 0.0
H660 H 0.07651 0.47192 0.29715 0.0
H661 H 0.08117 0.44528 0.33319 0.0
C662 C 0.05768 0.32391 0.37 0.0
C663 C 0.03597 0.33425 0.37933 0.0
C664 C 0.07869 0.33833 0.36696 0.0
C665 C 0.07821 0.36336 0.37284 0.0
C666 C 0.0568 0.37359 0.38267 0.0
C667 C 0.03595 0.35912 0.38616 0.0
C668 C 0.09948 0.37927 0.36734 0.0
C669 C 0.09728 0.39624 0.3483 0.0
C670 C 0.12194 0.37722 0.37998 0.0
C671 C 0.1253 0.35934 0.40005 0.0
C672 C 0.10978 0.35966 0.4205 0.0
C673 C 0.11297 0.34259 0.43925 0.0
C674 C 0.13174 0.3252 0.43781 0.0
C675 C 0.1474 0.32491 0.41766 0.0
C676 C 0.14427 0.34193 0.39886 0.0
C677 C 0.17449 0.4692 0.3437 0.0
C678 C 0.19862 0.46061 0.34144 0.0
C679 C 0.15535 0.45291 0.34855 0.0
C680 C 0.1598 0.42756 0.35034 0.0
C681 C 0.18403 0.419 0.3481 0.0
C682 C 0.2033 0.43542 0.34385 0.0
C683 C 0.13921 0.41017 0.3549 0.0
C684 C 0.1415 0.39277 0.37369 0.0
C685 C 0.11696 0.41137 0.34156 0.0
C686 C 0.11404 0.4274 0.31989 0.0
C687 C 0.13082 0.42608 0.30046 0.0
C688 C 0.12808 0.44132 0.28016 0.0
C689 C 0.10854 0.45784 0.27899 0.0
C690 C 0.09165 0.45912 0.29809 0.0
C691 C 0.09432 0.44394 0.31845 0.0
H692 H 0.10646 0.46963 0.26325 0.0
H693 H 0.13419 0.31201 0.45234 0.0
H694 H 0.12827 0.01522 0.3848 0.0
H695 H 0.10168 0.0509 0.37857 0.0
H696 H 0.16441 0.09426 0.35782 0.0
H697 H 0.19109 0.05859 0.36355 0.0
H698 H 0.12871 0.11795 0.39114 0.0
H699 H 0.13357 0.0733 0.3145 0.0
H700 H 0.12968 0.03639 0.28877 0.0
H701 H 0.05362 0.0303 0.30802 0.0
H702 H 0.05715 0.06694 0.33419 0.0
H703 H 0.06949 0.21932 0.33685 0.0
H704 H 0.09668 0.18447 0.34482 0.0
H705 H 0.0344 0.13556 0.34322 0.0
H706 H 0.00745 0.17027 0.33424 0.0
H707 H 0.06992 0.11406 0.32222 0.0
H708 H 0.06225 0.1563 0.39784 0.0
H709 H 0.06333 0.19179 0.42567 0.0
H710 H 0.14045 0.2005 0.41243 0.0
H711 H 0.13975 0.16527 0.3842 0.0
C712 C 0.13647 0.03244 0.37926 0.0
C713 C 0.16177 0.03406 0.37456 0.0
C714 C 0.12124 0.05276 0.37563 0.0
C715 C 0.13111 0.07511 0.36759 0.0
C716 C 0.15649 0.07714 0.36402 0.0
C717 C 0.17167 0.05673 0.36724 0.0
C718 C 0.11482 0.09601 0.36163 0.0
C719 C 0.11602 0.11729 0.37592 0.0
C720 C 0.09777 0.09473 0.34225 0.0
C721 C 0.0957 0.07271 0.3265 0.0
C722 C 0.11608 0.06395 0.31344 0.0
C723 C 0.11393 0.0431 0.29874 0.0
C724 C 0.09143 0.03099 0.29681 0.0
C725 C 0.07104 0.03969 0.30956 0.0
C726 C 0.0731 0.06049 0.32432 0.0
C727 C 0.06171 0.20109 0.33812 0.0
C728 C 0.03641 0.19744 0.33516 0.0
C729 C 0.0772 0.18119 0.34281 0.0
C730 C 0.06757 0.15737 0.34522 0.0
C731 C 0.04233 0.15371 0.34154 0.0
C732 C 0.02693 0.17353 0.33639 0.0
C733 C 0.08369 0.1363 0.3517 0.0
C734 C 0.08251 0.11489 0.3375 0.0
C735 C 0.10033 0.13726 0.37155 0.0
C736 C 0.1009 0.15829 0.38872 0.0
C737 C 0.07941 0.16588 0.40074 0.0
C738 C 0.07995 0.18594 0.41659 0.0
C739 C 0.10193 0.19843 0.42077 0.0
C740 C 0.12343 0.19082 0.40915 0.0
C741 C 0.12298 0.1708 0.39323 0.0
H742 H 0.10232 0.21396 0.43304 0.0
H743 H 0.08975 0.01492 0.28537 0.0
H744 H 0.83031 0.99082 0.15676 0.0
H745 H 0.86257 0.96094 0.14727 0.0
H746 H 0.81116 0.90179 0.15775 0.0
H747 H 0.77854 0.93174 0.16651 0.0
H748 H 0.86434 0.90091 0.18246 0.0
H749 H 0.81872 0.90562 0.10749 0.0
H750 H 0.79804 0.92742 0.07397 0.0
H751 H 0.86601 0.96179 0.0541 0.0
H752 H 0.88699 0.94064 0.08797 0.0
H753 H 0.94385 0.80869 0.1385 0.0
H754 H 0.90676 0.83284 0.14524 0.0
H755 H 0.94014 0.89463 0.10902 0.0
H756 H 0.97709 0.87037 0.10161 0.0
H757 H 0.89333 0.89208 0.09716 0.0
H758 H 0.93885 0.8893 0.17222 0.0
H759 H 0.96011 0.8693 0.20655 0.0
H760 H 0.8934 0.83279 0.22687 0.0
H761 H 0.87181 0.85233 0.19244 0.0
C762 C 0.82597 0.97143 0.15721 0.0
C763 C 0.80202 0.96349 0.16229 0.0
C764 C 0.84433 0.95444 0.15172 0.0
C765 C 0.83915 0.92925 0.15175 0.0
C766 C 0.81543 0.9212 0.15761 0.0
C767 C 0.79687 0.93824 0.16253 0.0
C768 C 0.85858 0.91151 0.14516 0.0
C769 C 0.87044 0.89857 0.16378 0.0
C770 C 0.86682 0.90906 0.12087 0.0
C771 C 0.85434 0.92181 0.10048 0.0
C772 C 0.82919 0.91809 0.0962 0.0
C773 C 0.81742 0.93029 0.07711 0.0
C774 C 0.83068 0.94605 0.06198 0.0
C775 C 0.85575 0.94963 0.06589 0.0
C776 C 0.86759 0.93756 0.08505 0.0
C777 C 0.94324 0.82735 0.13175 0.0
C778 C 0.96356 0.83767 0.11972 0.0
C779 C 0.92203 0.84118 0.13572 0.0
C780 C 0.92082 0.86575 0.12813 0.0
C781 C 0.94066 0.87576 0.11516 0.0
C782 C 0.9618 0.86185 0.11095 0.0
C783 C 0.89933 0.88132 0.13449 0.0
C784 C 0.88715 0.89408 0.11584 0.0
C785 C 0.89089 0.88372 0.15883 0.0
C786 C 0.90379 0.87207 0.17961 0.0
C787 C 0.92876 0.87687 0.18391 0.0
C788 C 0.94086 0.86564 0.2034 0.0
C789 C 0.92813 0.84973 0.21884 0.0
C790 C 0.90324 0.84508 0.21487 0.0
C791 C 0.89107 0.85624 0.19539 0.0
H792 H 0.93753 0.84105 0.23392 0.0
H793 H 0.8215 0.9554 0.04719 0.0
H794 H 0.54151 0.79894 0.12246 0.0
H795 H 0.56967 0.83257 0.11483 0.0
H796 H 0.56918 0.85061 0.19142 0.0
H797 H 0.54263 0.8153 0.19943 0.0
H798 H 0.56613 0.87772 0.11758 0.0
H799 H 0.62079 0.87941 0.20859 0.0
H800 H 0.63567 0.85036 0.23973 0.0
H801 H 0.63473 0.79208 0.18711 0.0
H802 H 0.62016 0.82083 0.15559 0.0
H803 H 0.62807 0.99089 0.12557 0.0
H804 H 0.60283 0.95443 0.13164 0.0
H805 H 0.66811 0.90966 0.13445 0.0
H806 H 0.69342 0.94646 0.13005 0.0
H807 H 0.64051 0.8942 0.16688 0.0
H808 H 0.62596 0.91197 0.0832 0.0
H809 H 0.61505 0.93697 0.04736 0.0
H810 H 0.54302 0.94884 0.07668 0.0
H811 H 0.55361 0.92417 0.11286 0.0
C812 C 0.54825 0.80928 0.13788 0.0
C813 C 0.54085 0.80357 0.16177 0.0
C814 C 0.56395 0.82899 0.1334 0.0
C815 C 0.57208 0.84398 0.15257 0.0
C816 C 0.56388 0.83893 0.17636 0.0
C817 C 0.54855 0.81884 0.18092 0.0
C818 C 0.58856 0.86519 0.14743 0.0
C819 C 0.58243 0.88124 0.12835 0.0
C820 C 0.61019 0.86963 0.16101 0.0
C821 C 0.61913 0.85224 0.17982 0.0
C822 C 0.62384 0.86041 0.20366 0.0
C823 C 0.6322 0.844 0.22137 0.0
C824 C 0.63606 0.81937 0.21542 0.0
C825 C 0.63164 0.81113 0.19172 0.0
C826 C 0.6233 0.82748 0.17393 0.0
C827 C 0.637 0.97322 0.12724 0.0
C828 C 0.66269 0.97146 0.12721 0.0
C829 C 0.62254 0.95231 0.13061 0.0
C830 C 0.63343 0.92906 0.13311 0.0
C831 C 0.65916 0.92731 0.13264 0.0
C832 C 0.67364 0.94832 0.12998 0.0
C833 C 0.61808 0.90675 0.13701 0.0
C834 C 0.62431 0.89058 0.15599 0.0
C835 C 0.59714 0.90157 0.1226 0.0
C836 C 0.59067 0.9164 0.10084 0.0
C837 C 0.60785 0.92005 0.08208 0.0
C838 C 0.60171 0.93414 0.06169 0.0
C839 C 0.57838 0.94454 0.05977 0.0
C840 C 0.5611 0.9408 0.0782 0.0
C841 C 0.56715 0.92674 0.09864 0.0
H842 H 0.57366 0.95544 0.04397 0.0
H843 H 0.64252 0.80669 0.22917 0.0
H844 H 0.53014 0.64638 0.09037 0.0
H845 H 0.56749 0.62178 0.09409 0.0
H846 H 0.58311 0.65601 0.16329 0.0
H847 H 0.54658 0.68133 0.15917 0.0
H848 H 0.62353 0.65126 0.14017 0.0
H849 H 0.55631 0.5967 0.15724 0.0
H850 H 0.51726 0.57545 0.14893 0.0
H851 H 0.54867 0.54202 0.08533 0.0
H852 H 0.58783 0.56333 0.09311 0.0
H853 H 0.70359 0.55995 0.18964 0.0
H854 H 0.66851 0.58717 0.18188 0.0
H855 H 0.66314 0.55908 0.10858 0.0
H856 H 0.69791 0.5318 0.11637 0.0
H857 H 0.61851 0.56077 0.13206 0.0
H858 H 0.68702 0.61449 0.11762 0.0
H859 H 0.72588 0.63508 0.12806 0.0
H860 H 0.69147 0.66938 0.18963 0.0
H861 H 0.65247 0.64869 0.17977 0.0
C862 C 0.54163 0.64875 0.10629 0.0
C863 C 0.5353 0.66572 0.12452 0.0
C864 C 0.56292 0.63457 0.10848 0.0
C865 C 0.57794 0.63665 0.12923 0.0
C866 C 0.57188 0.654 0.14713 0.0
C867 C 0.55089 0.66845 0.14476 0.0
C868 C 0.59974 0.62058 0.13263 0.0
C869 C 0.62232 0.63145 0.13865 0.0
C870 C 0.59839 0.59473 0.13025 0.0
C871 C 0.5749 0.58181 0.12562 0.0
C872 C 0.55483 0.58495 0.1414 0.0
C873 C 0.53269 0.57287 0.1368 0.0
C874 C 0.53046 0.55745 0.11658 0.0
C875 C 0.55041 0.55401 0.10096 0.0
C876 C 0.57258 0.56606 0.10546 0.0
C877 C 0.69499 0.55983 0.17184 0.0
C878 C 0.7038 0.54437 0.15338 0.0
C879 C 0.67506 0.57536 0.1674 0.0
C880 C 0.66345 0.57537 0.14453 0.0
C881 C 0.67197 0.55952 0.12626 0.0
C882 C 0.69198 0.54417 0.13064 0.0
C883 C 0.64208 0.59148 0.13978 0.0
C884 C 0.61964 0.58059 0.1335 0.0
C885 C 0.64349 0.61726 0.14224 0.0
C886 C 0.66688 0.62986 0.14808 0.0
C887 C 0.68778 0.62627 0.1335 0.0
C888 C 0.70983 0.63799 0.13929 0.0
C889 C 0.71116 0.65348 0.15953 0.0
C890 C 0.69042 0.65735 0.17398 0.0
C891 C 0.66833 0.64565 0.16828 0.0
H892 H 0.72825 0.66254 0.16398 0.0
H893 H 0.51331 0.54812 0.11304 0.0
H894 H 0.99249 0.67207 0.16188 0.0
H895 H 0.96602 0.63693 0.15253 0.0
H896 H 0.90468 0.68577 0.14238 0.0
H897 H 0.93114 0.721 0.15158 0.0
H898 H 0.89504 0.64239 0.17159 0.0
H899 H 0.93062 0.66601 0.09445 0.0
H900 H 0.96537 0.67582 0.06742 0.0
H901 H 0.99448 0.6034 0.07776 0.0
H902 H 0.96013 0.5933 0.10527 0.0
H903 H 0.8121 0.55838 0.1217 0.0
H904 H 0.83787 0.59464 0.12671 0.0
H905 H 0.90258 0.54995 0.11785 0.0
H906 H 0.87672 0.5138 0.11155 0.0
H907 H 0.91097 0.59183 0.09805 0.0
H908 H 0.87933 0.56757 0.17564 0.0
H909 H 0.84756 0.55635 0.20562 0.0
H910 H 0.8145 0.6274 0.19786 0.0
H911 H 0.84591 0.63893 0.16758 0.0
C912 C 0.97331 0.67526 0.15784 0.0
C913 C 0.96387 0.69922 0.15718 0.0
C914 C 0.95828 0.65522 0.15239 0.0
C915 C 0.93349 0.65882 0.14653 0.0
C916 C 0.92381 0.68267 0.14672 0.0
C917 C 0.93893 0.70274 0.15182 0.0
C918 C 0.91775 0.6377 0.1399 0.0
C919 C 0.89825 0.63151 0.15534 0.0
C920 C 0.92255 0.62311 0.11912 0.0
C921 C 0.9429 0.62898 0.10212 0.0
C922 C 0.94452 0.65223 0.09111 0.0
C923 C 0.96414 0.65784 0.07569 0.0
C924 C 0.98216 0.64027 0.07092 0.0
C925 C 0.98053 0.61701 0.0815 0.0
C926 C 0.96098 0.61133 0.097 0.0
C927 C 0.8318 0.55634 0.12049 0.0
C928 C 0.84238 0.53321 0.11644 0.0
C929 C 0.84656 0.57707 0.12352 0.0
C930 C 0.87225 0.57499 0.1234 0.0
C931 C 0.88283 0.55207 0.11819 0.0
C932 C 0.86803 0.5314 0.11458 0.0
C933 C 0.88799 0.59643 0.12971 0.0
C934 C 0.90759 0.60268 0.11428 0.0
C935 C 0.88363 0.61082 0.15082 0.0
C936 C 0.86482 0.60402 0.16917 0.0
C937 C 0.86519 0.58074 0.18022 0.0
C938 C 0.84726 0.57434 0.19728 0.0
C939 C 0.82899 0.59113 0.2036 0.0
C940 C 0.82865 0.6144 0.19292 0.0
C941 C 0.84652 0.62089 0.17583 0.0
H942 H 0.81512 0.58613 0.2168 0.0
H943 H 0.99735 0.64466 0.059 0.0
H944 H 0.55801 0.80957 0.63032 0.0
H945 H 0.5948 0.8343 0.63672 0.0
H946 H 0.55408 0.89975 0.61885 0.0
H947 H 0.51749 0.87492 0.61134 0.0
H948 H 0.5977 0.90415 0.60147 0.0
H949 H 0.56584 0.88109 0.67946 0.0
H950 H 0.55103 0.85273 0.71123 0.0
H951 H 0.62113 0.81689 0.71247 0.0
H952 H 0.63626 0.84486 0.68047 0.0
H953 H 0.67231 0.9906 0.66361 0.0
H954 H 0.63806 0.963 0.65463 0.0
H955 H 0.68759 0.90136 0.65419 0.0
H956 H 0.72206 0.92901 0.66306 0.0
H957 H 0.64107 0.89433 0.68039 0.0
H958 H 0.67255 0.92154 0.60275 0.0
H959 H 0.68582 0.95313 0.57344 0.0
H960 H 0.6137 0.98472 0.57421 0.0
H961 H 0.60012 0.95357 0.60392 0.0
C962 C 0.55697 0.8292 0.62748 0.0
C963 C 0.5348 0.84033 0.62051 0.0
C964 C 0.57799 0.84336 0.6313 0.0
C965 C 0.57711 0.869 0.62891 0.0
C966 C 0.55524 0.88002 0.62094 0.0
C967 C 0.53431 0.86581 0.61665 0.0
C968 C 0.59868 0.88439 0.63549 0.0
C969 C 0.60699 0.90211 0.61883 0.0
C970 C 0.61109 0.88166 0.65806 0.0
C971 C 0.6021 0.8649 0.67739 0.0
C972 C 0.57804 0.86705 0.68639 0.0
C973 C 0.5696 0.85107 0.70445 0.0
C974 C 0.58511 0.83297 0.71381 0.0
C975 C 0.60912 0.83089 0.70517 0.0
C976 C 0.61765 0.84681 0.68709 0.0
C977 C 0.67585 0.97112 0.66189 0.0
C978 C 0.69983 0.96191 0.66378 0.0
C979 C 0.65631 0.95543 0.65664 0.0
C980 C 0.66039 0.93022 0.65351 0.0
C981 C 0.68415 0.92079 0.65644 0.0
C982 C 0.70379 0.93657 0.66136 0.0
C983 C 0.63987 0.91392 0.64641 0.0
C984 C 0.63179 0.89614 0.66299 0.0
C985 C 0.62739 0.91693 0.62402 0.0
C986 C 0.63538 0.93534 0.60574 0.0
C987 C 0.65957 0.93532 0.59682 0.0
C988 C 0.66714 0.95314 0.58011 0.0
C989 C 0.65063 0.97095 0.57201 0.0
C990 C 0.62648 0.97092 0.58053 0.0
C991 C 0.61883 0.95318 0.59729 0.0
H992 H 0.65653 0.98475 0.55909 0.0
H993 H 0.57853 0.82061 0.72779 0.0
H994 H 0.69796 0.56249 0.63036 0.0
H995 H 0.67314 0.59943 0.63552 0.0
H996 H 0.60896 0.55965 0.61186 0.0
H997 H 0.63396 0.523 0.60556 0.0
H998 H 0.60628 0.60329 0.59496 0.0
H999 H 0.62368 0.57031 0.6742 0.0
H1000 H 0.64989 0.55542 0.70771 0.0
H1001 H 0.6848 0.62588 0.7122 0.0
H1002 H 0.659 0.6411 0.67849 0.0
H1003 H 0.51388 0.67301 0.65609 0.0
H1004 H 0.54316 0.64008 0.64698 0.0
H1005 H 0.60239 0.6925 0.64741 0.0
H1006 H 0.57303 0.72563 0.65595 0.0
H1007 H 0.60929 0.64509 0.67523 0.0
H1008 H 0.58532 0.6781 0.59737 0.0
H1009 H 0.55565 0.69061 0.56588 0.0
H1010 H 0.52989 0.61642 0.56032 0.0
H1011 H 0.55846 0.6037 0.59258 0.0
C1012 C 0.67861 0.56172 0.62598 0.0
C1013 C 0.66787 0.53979 0.61771 0.0
C1014 C 0.66439 0.58281 0.62909 0.0
C1015 C 0.63901 0.58222 0.6247 0.0
C1016 C 0.62847 0.56059 0.61549 0.0
C1017 C 0.64278 0.53963 0.61189 0.0
C1018 C 0.62328 0.60379 0.6304 0.0
C1019 C 0.60682 0.61225 0.6126 0.0
C1020 C 0.62416 0.61581 0.65331 0.0
C1021 C 0.6396 0.60675 0.67366 0.0
C1022 C 0.63707 0.58257 0.68223 0.0
C1023 C 0.65183 0.57408 0.70127 0.0
C1024 C 0.66905 0.58967 0.71203 0.0
C1025 C 0.67148 0.61382 0.70382 0.0
C1026 C 0.65679 0.62239 0.68476 0.0
C1027 C 0.53318 0.67743 0.65441 0.0
C1028 C 0.54128 0.70178 0.65655 0.0
C1029 C 0.54982 0.65868 0.64914 0.0
C1030 C 0.57484 0.66396 0.6464 0.0
C1031 C 0.58311 0.68815 0.6494 0.0
C1032 C 0.56638 0.707 0.65416 0.0
C1033 C 0.59225 0.64421 0.63991 0.0
C1034 C 0.60896 0.63615 0.65757 0.0
C1035 C 0.5912 0.63222 0.61709 0.0
C1036 C 0.57384 0.64 0.59772 0.0
C1037 C 0.573 0.66453 0.58978 0.0
C1038 C 0.55632 0.67168 0.57178 0.0
C1039 C 0.54067 0.65438 0.56125 0.0
C1040 C 0.54173 0.6299 0.56867 0.0
C1041 C 0.55813 0.62271 0.58687 0.0
H1042 H 0.52783 0.6599 0.54725 0.0
H1043 H 0.68046 0.58307 0.72677 0.0
H1044 H 0.83128 0.51455 0.66346 0.0
H1045 H 0.86556 0.54231 0.65579 0.0
H1046 H 0.81585 0.60396 0.65635 0.0
H1047 H 0.78131 0.57587 0.66288 0.0
H1048 H 0.84562 0.61018 0.62133 0.0
H1049 H 0.85746 0.59034 0.70491 0.0
H1050 H 0.86183 0.56399 0.74116 0.0
H1051 H 0.92603 0.53074 0.71018 0.0
H1052 H 0.92186 0.55667 0.67358 0.0
H1053 H 0.94578 0.69666 0.63742 0.0
H1054 H 0.90911 0.67146 0.64387 0.0
H1055 H 0.94846 0.60752 0.61928 0.0
H1056 H 0.98502 0.63261 0.61224 0.0
H1057 H 0.92358 0.60462 0.66758 0.0
H1058 H 0.90934 0.6264 0.58314 0.0
H1059 H 0.90438 0.65562 0.5492 0.0
H1060 H 0.8435 0.68916 0.58596 0.0
H1061 H 0.84833 0.66034 0.6203 0.0
C1062 C 0.82775 0.53406 0.6622 0.0
C1063 C 0.80374 0.54314 0.6638 0.0
C1064 C 0.84736 0.54996 0.6579 0.0
C1065 C 0.84346 0.57538 0.65589 0.0
C1066 C 0.8194 0.58447 0.65781 0.0
C1067 C 0.79969 0.56846 0.6616 0.0
C1068 C 0.86439 0.59227 0.65103 0.0
C1069 C 0.86248 0.60917 0.63176 0.0
C1070 C 0.88661 0.59094 0.6644 0.0
C1071 C 0.88922 0.57532 0.6864 0.0
C1072 C 0.87241 0.57729 0.70574 0.0
C1073 C 0.87487 0.56245 0.72637 0.0
C1074 C 0.89416 0.54566 0.72794 0.0
C1075 C 0.91108 0.54373 0.70892 0.0
C1076 C 0.90869 0.55852 0.68824 0.0
C1077 C 0.94652 0.6773 0.63307 0.0
C1078 C 0.9683 0.66662 0.62432 0.0
C1079 C 0.92557 0.66296 0.63675 0.0
C1080 C 0.92617 0.63767 0.63211 0.0
C1081 C 0.9477 0.62703 0.62297 0.0
C1082 C 0.96851 0.64142 0.61884 0.0
C1083 C 0.90472 0.62208 0.63787 0.0
C1084 C 0.90659 0.60555 0.65733 0.0
C1085 C 0.88234 0.62415 0.62509 0.0
C1086 C 0.87938 0.6414 0.60441 0.0
C1087 C 0.89505 0.64016 0.5841 0.0
C1088 C 0.89222 0.65661 0.56476 0.0
C1089 C 0.87368 0.67428 0.56546 0.0
C1090 C 0.85788 0.67549 0.58546 0.0
C1091 C 0.86064 0.65909 0.60486 0.0
H1092 H 0.87152 0.687 0.55047 0.0
H1093 H 0.89603 0.53419 0.74393 0.0
H1094 H 0.80809 0.94216 0.63207 0.0
H1095 H 0.8335 0.90571 0.63788 0.0
H1096 H 0.89802 0.94771 0.61953 0.0
H1097 H 0.8725 0.98387 0.6125 0.0
H1098 H 0.90333 0.90461 0.60202 0.0
H1099 H 0.87945 0.93496 0.68057 0.0
H1100 H 0.85061 0.94844 0.71249 0.0
H1101 H 0.81695 0.87723 0.71271 0.0
H1102 H 0.8454 0.86342 0.68055 0.0
H1103 H 0.99226 0.83253 0.6641 0.0
H1104 H 0.96356 0.86591 0.65507 0.0
H1105 H 0.90369 0.81425 0.65376 0.0
H1106 H 0.93242 0.78069 0.66258 0.0
H1107 H 0.89511 0.8603 0.6806 0.0
H1108 H 0.92302 0.83034 0.60269 0.0
H1109 H 0.95478 0.81832 0.57305 0.0
H1110 H 0.98411 0.89141 0.57421 0.0
H1111 H 0.95278 0.90375 0.60424 0.0
C1112 C 0.82766 0.94352 0.62899 0.0
C1113 C 0.83833 0.96592 0.62201 0.0
C1114 C 0.84221 0.92271 0.63248 0.0
C1115 C 0.86781 0.92405 0.62981 0.0
C1116 C 0.87835 0.94617 0.62184 0.0
C1117 C 0.86374 0.96686 0.61783 0.0
C1118 C 0.88371 0.90275 0.63609 0.0
C1119 C 0.90162 0.89512 0.61931 0.0
C1120 C 0.88141 0.89004 0.65854 0.0
C1121 C 0.86438 0.89824 0.67798 0.0
C1122 C 0.86579 0.92223 0.68732 0.0
C1123 C 0.84953 0.92992 0.70546 0.0
C1124 C 0.83191 0.91372 0.71457 0.0
C1125 C 0.83057 0.88977 0.70561 0.0
C1126 C 0.84678 0.88199 0.68744 0.0
C1127 C 0.97294 0.82835 0.66214 0.0
C1128 C 0.96453 0.80406 0.66379 0.0
C1129 C 0.95662 0.84738 0.65688 0.0
C1130 C 0.93159 0.84246 0.65353 0.0
C1131 C 0.92297 0.81835 0.65618 0.0
C1132 C 0.93937 0.79924 0.66107 0.0
C1133 C 0.9146 0.86246 0.64662 0.0
C1134 C 0.89659 0.86979 0.66328 0.0
C1135 C 0.91711 0.87518 0.6243 0.0
C1136 C 0.93568 0.86791 0.60589 0.0
C1137 C 0.93635 0.8438 0.59678 0.0
C1138 C 0.95427 0.83693 0.57989 0.0
C1139 C 0.97149 0.85407 0.57179 0.0
C1140 C 0.97078 0.87814 0.58052 0.0
C1141 C 0.95293 0.88509 0.59747 0.0
H1142 H 0.98535 0.84872 0.55872 0.0
H1143 H 0.81933 0.91972 0.72861 0.0
H1144 H 0.20954 0.0465 0.87287 0.0
H1145 H 0.17392 0.07242 0.87894 0.0
H1146 H 0.14915 0.0559 0.80607 0.0
H1147 H 0.18621 0.03145 0.79914 0.0
H1148 H 0.1393 0.10092 0.8148 0.0
H1149 H 0.12523 0.02695 0.85792 0.0
H1150 H 0.13419 0.99302 0.88626 0.0
H1151 H 0.13634 0.04371 0.9461 0.0
H1152 H 0.12778 0.07801 0.91806 0.0
H1153 H 0.01323 0.12262 0.88062 0.0
H1154 H 0.04839 0.09611 0.87224 0.0
H1155 H 0.0928 0.1599 0.85713 0.0
H1156 H 0.05738 0.18629 0.86413 0.0
H1157 H 0.09022 0.08819 0.88988 0.0
H1158 H 0.13528 0.14925 0.81516 0.0
H1159 H 0.12259 0.17872 0.78346 0.0
H1160 H 0.05121 0.14557 0.78069 0.0
H1161 H 0.06357 0.11571 0.81212 0.0
C1162 C 0.19721 0.04922 0.85769 0.0
C1163 C 0.20129 0.03768 0.83513 0.0
C1164 C 0.17638 0.06357 0.86144 0.0
C1165 C 0.15857 0.06586 0.84312 0.0
C1166 C 0.16262 0.05447 0.8205 0.0
C1167 C 0.18376 0.04046 0.81657 0.0
C1168 C 0.13562 0.07984 0.84779 0.0
C1169 C 0.12855 0.09809 0.8312 0.0
C1170 C 0.12109 0.0757 0.86882 0.0
C1171 C 0.12605 0.05509 0.88583 0.0
C1172 C 0.12777 0.03089 0.8771 0.0
C1173 C 0.13276 0.01159 0.89311 0.0
C1174 C 0.13588 0.01621 0.91796 0.0
C1175 C 0.13395 0.04015 0.92685 0.0
C1176 C 0.129 0.05954 0.9109 0.0
C1177 C 0.03054 0.13098 0.87564 0.0
C1178 C 0.03249 0.15653 0.87284 0.0
C1179 C 0.05065 0.1158 0.87084 0.0
C1180 C 0.07318 0.12591 0.8635 0.0
C1181 C 0.07545 0.15154 0.86199 0.0
C1182 C 0.05523 0.16666 0.86621 0.0
C1183 C 0.0942 0.10969 0.85717 0.0
C1184 C 0.10091 0.09098 0.87345 0.0
C1185 C 0.10779 0.11272 0.83534 0.0
C1186 C 0.1003 0.13039 0.81616 0.0
C1187 C 0.11692 0.14818 0.8077 0.0
C1188 C 0.10977 0.16497 0.7898 0.0
C1189 C 0.08609 0.16406 0.78012 0.0
C1190 C 0.06952 0.14631 0.78826 0.0
C1191 C 0.07658 0.12946 0.80613 0.0
H1192 H 0.08059 0.17709 0.76629 0.0
H1193 H 0.13975 0.00124 0.93033 0.0
H1194 H 0.3749 0.01668 0.8859 0.0
H1195 H 0.40061 0.05285 0.88 0.0
H1196 H 0.3361 0.0965 0.86597 0.0
H1197 H 0.31045 0.06009 0.87091 0.0
H1198 H 0.36764 0.10679 0.8336 0.0
H1199 H 0.37216 0.10132 0.92005 0.0
H1200 H 0.37876 0.08202 0.96014 0.0
H1201 H 0.45384 0.06751 0.94153 0.0
H1202 H 0.44761 0.0864 0.90116 0.0
H1203 H 0.43467 0.2206 0.83947 0.0
H1204 H 0.40645 0.18688 0.84922 0.0
H1205 H 0.46634 0.13542 0.84491 0.0
H1206 H 0.49453 0.16899 0.83498 0.0
H1207 H 0.43604 0.13125 0.888 0.0
H1208 H 0.42901 0.13623 0.80017 0.0
H1209 H 0.42118 0.15758 0.76134 0.0
H1210 H 0.34847 0.17585 0.78526 0.0
H1211 H 0.35601 0.15488 0.8244 0.0
C1212 C 0.36618 0.03407 0.88192 0.0
C1213 C 0.34065 0.03551 0.87873 0.0
C1214 C 0.3809 0.05481 0.87863 0.0
C1215 C 0.37035 0.07759 0.87274 0.0
C1216 C 0.34474 0.07917 0.87036 0.0
C1217 C 0.33007 0.05834 0.8732 0.0
C1218 C 0.38608 0.09935 0.8676 0.0
C1219 C 0.38228 0.11234 0.84579 0.0
C1220 C 0.40552 0.10652 0.88322 0.0
C1221 C 0.40934 0.09508 0.90747 0.0
C1222 C 0.39003 0.09383 0.92442 0.0
C1223 C 0.39371 0.083 0.94721 0.0
C1224 C 0.41668 0.07349 0.95335 0.0
C1225 C 0.43604 0.07485 0.93673 0.0
C1226 C 0.43245 0.08564 0.9139 0.0
C1227 C 0.44175 0.20208 0.8406 0.0
C1228 C 0.46675 0.19735 0.8366 0.0
C1229 C 0.42565 0.18287 0.84608 0.0
C1230 C 0.43437 0.15871 0.84785 0.0
C1231 C 0.4593 0.15396 0.84371 0.0
C1232 C 0.47531 0.17309 0.83787 0.0
C1233 C 0.41754 0.13831 0.8541 0.0
C1234 C 0.4212 0.12566 0.87605 0.0
C1235 C 0.39773 0.13171 0.83887 0.0
C1236 C 0.39317 0.14423 0.81531 0.0
C1237 C 0.41143 0.145 0.79724 0.0
C1238 C 0.40703 0.15699 0.77515 0.0
C1239 C 0.38437 0.16813 0.77086 0.0
C1240 C 0.36604 0.16724 0.78862 0.0
C1241 C 0.37035 0.1553 0.81075 0.0
H1242 H 0.381 0.1774 0.75375 0.0
H1243 H 0.4195 0.06512 0.97101 0.0
H1244 H 0.4577 0.31638 0.84064 0.0
H1245 H 0.4214 0.34217 0.8361 0.0
H1246 H 0.44197 0.38311 0.9001 0.0
H1247 H 0.47879 0.35762 0.90462 0.0
H1248 H 0.38927 0.36866 0.89571 0.0
H1249 H 0.45443 0.40916 0.85184 0.0
H1250 H 0.48847 0.41099 0.82232 0.0
H1251 H 0.43946 0.39021 0.76466 0.0
H1252 H 0.40519 0.38786 0.79394 0.0
H1253 H 0.3114 0.47119 0.87949 0.0
H1254 H 0.34605 0.44386 0.88667 0.0
H1255 H 0.33907 0.41543 0.8136 0.0
H1256 H 0.30448 0.44324 0.80624 0.0
H1257 H 0.3851 0.4229 0.82319 0.0
H1258 H 0.31991 0.38249 0.86522 0.0
H1259 H 0.28523 0.37874 0.8938 0.0
H1260 H 0.3327 0.39669 0.95363 0.0
H1261 H 0.36761 0.40091 0.92534 0.0
C1262 C 0.45447 0.3307 0.85394 0.0
C1263 C 0.47126 0.33502 0.87295 0.0
C1264 C 0.43371 0.34544 0.85125 0.0
C1265 C 0.42914 0.3646 0.86767 0.0
C1266 C 0.44525 0.3684 0.88725 0.0
C1267 C 0.46628 0.35387 0.88975 0.0
C1268 C 0.40807 0.38125 0.86362 0.0
C1269 C 0.38843 0.3808 0.88008 0.0
C1270 C 0.40678 0.39648 0.84281 0.0
C1271 C 0.42731 0.39808 0.82513 0.0
C1272 C 0.45096 0.40476 0.83291 0.0
C1273 C 0.47029 0.40593 0.81621 0.0
C1274 C 0.46614 0.40065 0.79164 0.0
C1275 C 0.44265 0.39426 0.78371 0.0
C1276 C 0.42326 0.39302 0.80034 0.0
C1277 C 0.31689 0.45875 0.86513 0.0
C1278 C 0.30481 0.45882 0.84252 0.0
C1279 C 0.3368 0.44318 0.86922 0.0
C1280 C 0.3449 0.42713 0.85088 0.0
C1281 C 0.33309 0.42751 0.8281 0.0
C1282 C 0.31332 0.44333 0.82392 0.0
C1283 C 0.36603 0.41043 0.85531 0.0
C1284 C 0.38578 0.41082 0.83888 0.0
C1285 C 0.36725 0.39492 0.87602 0.0
C1286 C 0.34633 0.39225 0.89312 0.0
C1287 C 0.32292 0.38582 0.88445 0.0
C1288 C 0.30323 0.38358 0.9006 0.0
C1289 C 0.30675 0.38754 0.92551 0.0
C1290 C 0.33 0.39367 0.93432 0.0
C1291 C 0.34975 0.39596 0.91824 0.0
H1292 H 0.29148 0.3858 0.93798 0.0
H1293 H 0.48113 0.40157 0.77874 0.0
H1294 H 0.13114 0.48543 0.88347 0.0
H1295 H 0.10634 0.44864 0.87765 0.0
H1296 H 0.17221 0.40562 0.86858 0.0
H1297 H 0.19697 0.44285 0.87266 0.0
H1298 H 0.14287 0.39071 0.83758 0.0
H1299 H 0.13346 0.40469 0.9226 0.0
H1300 H 0.12453 0.42792 0.96012 0.0
H1301 H 0.05054 0.43965 0.93605 0.0
H1302 H 0.05912 0.41676 0.89822 0.0
H1303 H 0.04648 0.29311 0.88342 0.0
H1304 H 0.07535 0.32601 0.89093 0.0
H1305 H 0.07109 0.34729 0.81529 0.0
H1306 H 0.04399 0.31251 0.80715 0.0
H1307 H 0.07192 0.37095 0.89054 0.0
H1308 H 0.12108 0.3775 0.7966 0.0
H1309 H 0.13435 0.35009 0.76335 0.0
H1310 H 0.13691 0.28942 0.81318 0.0
H1311 H 0.12397 0.31653 0.84677 0.0
C1312 C 0.14031 0.46806 0.8805 0.0
C1313 C 0.16596 0.46693 0.87866 0.0
C1314 C 0.12611 0.44696 0.87728 0.0
C1315 C 0.1373 0.4241 0.87309 0.0
C1316 C 0.16304 0.42295 0.87172 0.0
C1317 C 0.17721 0.4442 0.8742 0.0
C1318 C 0.12217 0.40161 0.86927 0.0
C1319 C 0.12745 0.38636 0.84928 0.0
C1320 C 0.10228 0.39544 0.88472 0.0
C1321 C 0.09701 0.40918 0.90748 0.0
C1322 C 0.11533 0.41236 0.92523 0.0
C1323 C 0.11033 0.42545 0.94657 0.0
C1324 C 0.087 0.4353 0.95044 0.0
C1325 C 0.06861 0.43203 0.93301 0.0
C1326 C 0.07352 0.41898 0.91163 0.0
C1327 C 0.05256 0.30387 0.86805 0.0
C1328 C 0.04384 0.29922 0.84437 0.0
C1329 C 0.06869 0.32324 0.87253 0.0
C1330 C 0.07594 0.33901 0.85363 0.0
C1331 C 0.06652 0.33499 0.8301 0.0
C1332 C 0.05082 0.3152 0.82549 0.0
C1333 C 0.09261 0.36007 0.85885 0.0
C1334 C 0.0875 0.37516 0.87898 0.0
C1335 C 0.11332 0.36542 0.8442 0.0
C1336 C 0.12131 0.34901 0.82414 0.0
C1337 C 0.12456 0.35833 0.80047 0.0
C1338 C 0.13201 0.34284 0.78156 0.0
C1339 C 0.13639 0.31801 0.78613 0.0
C1340 C 0.13342 0.30864 0.80964 0.0
C1341 C 0.126 0.32405 0.82861 0.0
H1342 H 0.14214 0.30605 0.77147 0.0
H1343 H 0.08317 0.44544 0.96696 0.0
H1344 H 0.56401 0.20693 0.29944 0.0
H1345 H 0.59065 0.18913 0.2681 0.0
H1346 H 0.61479 0.13397 0.31909 0.0
H1347 H 0.58885 0.15178 0.35045 0.0
H1348 H 0.65248 0.14959 0.29277 0.0
H1349 H 0.56975 0.12221 0.27656 0.0
H1350 H 0.52567 0.12782 0.26813 0.0
H1351 H 0.54299 0.16834 0.20328 0.0
H1352 H 0.5872 0.16323 0.21151 0.0
H1353 H 0.69394 0.05515 0.21181 0.0
H1354 H 0.67483 0.08066 0.24334 0.0
H1355 H 0.65099 0.13186 0.18825 0.0
H1356 H 0.66929 0.1062 0.15681 0.0
H1357 H 0.61428 0.12082 0.21592 0.0
H1358 H 0.6975 0.14535 0.23061 0.0
H1359 H 0.74145 0.13915 0.23918 0.0
H1360 H 0.72354 0.10362 0.30669 0.0
H1361 H 0.67945 0.10932 0.29838 0.0
C1362 C 0.57513 0.19113 0.30401 0.0
C1363 C 0.5741 0.1807 0.32743 0.0
C1364 C 0.5903 0.18093 0.28607 0.0
C1365 C 0.60451 0.16001 0.29116 0.0
C1366 C 0.60404 0.1501 0.31471 0.0
C1367 C 0.58903 0.16029 0.33262 0.0
C1368 C 0.6191 0.14765 0.27187 0.0
C1369 C 0.64413 0.14317 0.27601 0.0
C1370 C 0.60831 0.13962 0.24983 0.0
C1371 C 0.58175 0.14257 0.2448 0.0
C1372 C 0.56415 0.13246 0.2606 0.0
C1373 C 0.53915 0.13553 0.25584 0.0
C1374 C 0.53154 0.14849 0.23522 0.0
C1375 C 0.54892 0.15835 0.21927 0.0
C1376 C 0.57394 0.15536 0.22396 0.0
C1377 C 0.68497 0.07205 0.20652 0.0
C1378 C 0.68295 0.07856 0.18183 0.0
C1379 C 0.67409 0.08667 0.22455 0.0
C1380 C 0.66147 0.10826 0.2182 0.0
C1381 C 0.66044 0.11524 0.19362 0.0
C1382 C 0.67097 0.10054 0.17566 0.0
C1383 C 0.64777 0.12271 0.23673 0.0
C1384 C 0.62281 0.12748 0.23251 0.0
C1385 C 0.65865 0.13094 0.25868 0.0
C1386 C 0.68516 0.12758 0.26376 0.0
C1387 C 0.70292 0.13606 0.2472 0.0
C1388 C 0.72786 0.13266 0.25203 0.0
C1389 C 0.73528 0.12095 0.27344 0.0
C1390 C 0.71777 0.11267 0.2901 0.0
C1391 C 0.6928 0.116 0.28536 0.0
H1392 H 0.7546 0.11833 0.27714 0.0
H1393 H 0.51218 0.15085 0.23158 0.0
H1394 H 0.30486 0.55225 0.29142 0.0
H1395 H 0.32404 0.57711 0.25937 0.0
H1396 H 0.3531 0.62615 0.31387 0.0
H1397 H 0.33415 0.60155 0.34584 0.0
H1398 H 0.33621 0.65096 0.27294 0.0
H1399 H 0.38867 0.58278 0.29301 0.0
H1400 H 0.39864 0.53908 0.29896 0.0
H1401 H 0.38135 0.52437 0.22404 0.0
H1402 H 0.37092 0.56796 0.21773 0.0
H1403 H 0.43776 0.70348 0.2077 0.0
H1404 H 0.41111 0.68335 0.23768 0.0
H1405 H 0.38624 0.63276 0.18254 0.0
H1406 H 0.41266 0.65243 0.15272 0.0
H1407 H 0.39958 0.60906 0.22318 0.0
H1408 H 0.34917 0.67794 0.20244 0.0
H1409 H 0.33935 0.72169 0.19665 0.0
H1410 H 0.35292 0.73535 0.27251 0.0
H1411 H 0.36317 0.69172 0.2787 0.0
C1412 C 0.31501 0.56854 0.29652 0.0
C1413 C 0.31822 0.57477 0.32117 0.0
C1414 C 0.32601 0.58267 0.27823 0.0
C1415 C 0.34019 0.60333 0.28431 0.0
C1416 C 0.34226 0.61029 0.30879 0.0
C1417 C 0.33153 0.59609 0.32704 0.0
C1418 C 0.35438 0.6167 0.26549 0.0
C1419 C 0.35019 0.64188 0.26214 0.0
C1420 C 0.3724 0.60475 0.25126 0.0
C1421 C 0.37873 0.57856 0.25498 0.0
C1422 C 0.38678 0.57018 0.27786 0.0
C1423 C 0.39255 0.54544 0.28129 0.0
C1424 C 0.39055 0.52894 0.26191 0.0
C1425 C 0.38284 0.53716 0.23904 0.0
C1426 C 0.377 0.56188 0.23553 0.0
C1427 C 0.42649 0.68818 0.20194 0.0
C1428 C 0.42748 0.67955 0.17781 0.0
C1429 C 0.4112 0.67676 0.21906 0.0
C1430 C 0.39664 0.65659 0.2123 0.0
C1431 C 0.39736 0.64823 0.18818 0.0
C1432 C 0.41251 0.65959 0.17113 0.0
C1433 C 0.38137 0.64338 0.23044 0.0
C1434 C 0.38547 0.61818 0.23378 0.0
C1435 C 0.36331 0.65535 0.24463 0.0
C1436 C 0.35719 0.6816 0.24097 0.0
C1437 C 0.35028 0.69031 0.21785 0.0
C1438 C 0.34459 0.71508 0.2145 0.0
C1439 C 0.34558 0.73131 0.23418 0.0
C1440 C 0.3522 0.72277 0.25727 0.0
C1441 C 0.35794 0.69802 0.26071 0.0
H1442 H 0.34115 0.75048 0.23156 0.0
H1443 H 0.39504 0.50979 0.2646 0.0
H1444 H 0.81152 0.45426 0.20648 0.0
H1445 H 0.83066 0.42997 0.23901 0.0
H1446 H 0.8549 0.37687 0.18598 0.0
H1447 H 0.83606 0.40094 0.15354 0.0
H1448 H 0.83788 0.35515 0.22891 0.0
H1449 H 0.89366 0.41851 0.20309 0.0
H1450 H 0.90603 0.4611 0.19426 0.0
H1451 H 0.89295 0.48099 0.26884 0.0
H1452 H 0.88012 0.43856 0.27803 0.0
H1453 H 0.93768 0.29946 0.29432 0.0
H1454 H 0.91223 0.32002 0.26357 0.0
H1455 H 0.89163 0.37482 0.31641 0.0
H1456 H 0.91679 0.35469 0.34699 0.0
H1457 H 0.90576 0.39541 0.27393 0.0
H1458 H 0.85154 0.33147 0.30028 0.0
H1459 H 0.83907 0.28889 0.30897 0.0
H1460 H 0.84921 0.26991 0.23371 0.0
H1461 H 0.8621 0.31232 0.22462 0.0
C1462 C 0.8206 0.43722 0.20184 0.0
C1463 C 0.82251 0.42965 0.17744 0.0
C1464 C 0.83158 0.42342 0.2204 0.0
C1465 C 0.84437 0.40175 0.21482 0.0
C1466 C 0.84513 0.39352 0.19066 0.0
C1467 C 0.83447 0.40741 0.17214 0.0
C1468 C 0.8585 0.38848 0.23376 0.0
C1469 C 0.85284 0.36385 0.23866 0.0
C1470 C 0.87783 0.39997 0.2466 0.0
C1471 C 0.88565 0.42545 0.24117 0.0
C1472 C 0.89321 0.43202 0.21755 0.0
C1473 C 0.90034 0.45612 0.21249 0.0
C1474 C 0.9002 0.47376 0.23096 0.0
C1475 C 0.893 0.46732 0.25454 0.0
C1476 C 0.8858 0.44325 0.25969 0.0
C1477 C 0.92765 0.31582 0.29939 0.0
C1478 C 0.92934 0.32539 0.32313 0.0
C1479 C 0.91305 0.3275 0.28184 0.0
C1480 C 0.89997 0.34891 0.28776 0.0
C1481 C 0.90159 0.35837 0.31143 0.0
C1482 C 0.91598 0.34672 0.32892 0.0
C1483 C 0.8851 0.36204 0.26926 0.0
C1484 C 0.89071 0.38668 0.26434 0.0
C1485 C 0.86575 0.35053 0.25643 0.0
C1486 C 0.85806 0.32501 0.26183 0.0
C1487 C 0.85134 0.31816 0.28562 0.0
C1488 C 0.84415 0.29407 0.29061 0.0
C1489 C 0.84342 0.27669 0.27192 0.0
C1490 C 0.84983 0.28338 0.24818 0.0
C1491 C 0.85707 0.30745 0.24309 0.0
H1492 H 0.83783 0.25804 0.27581 0.0
H1493 H 0.90573 0.49241 0.22701 0.0
H1494 H 0.19826 0.94912 0.28795 0.0
H1495 H 0.17945 0.92464 0.25542 0.0
H1496 H 0.14283 0.88008 0.3092 0.0
H1497 H 0.16156 0.90412 0.34163 0.0
H1498 H 0.15971 0.85233 0.27149 0.0
H1499 H 0.11314 0.9266 0.2829 0.0
H1500 H 0.10786 0.97143 0.28548 0.0
H1501 H 0.13239 0.97903 0.21151 0.0
H1502 H 0.13824 0.93423 0.20865 0.0
H1503 H 0.0593 0.80433 0.20239 0.0
H1504 H 0.08572 0.82422 0.23265 0.0
H1505 H 0.11736 0.86938 0.17629 0.0
H1506 H 0.09097 0.85001 0.14616 0.0
H1507 H 0.10505 0.8966 0.21416 0.0
H1508 H 0.14938 0.82164 0.20201 0.0
H1509 H 0.15494 0.77681 0.19991 0.0
H1510 H 0.13446 0.77029 0.27518 0.0
H1511 H 0.12846 0.81507 0.27764 0.0
C1512 C 0.18648 0.9339 0.29283 0.0
C1513 C 0.18122 0.92877 0.31739 0.0
C1514 C 0.17568 0.91998 0.27424 0.0
C1515 C 0.15951 0.90072 0.27991 0.0
C1516 C 0.15521 0.89486 0.30439 0.0
C1517 C 0.16586 0.90876 0.32292 0.0
C1518 C 0.14575 0.8876 0.26055 0.0
C1519 C 0.14764 0.86196 0.25903 0.0
C1520 C 0.13026 0.90021 0.2441 0.0
C1521 C 0.1264 0.9271 0.24565 0.0
C1522 C 0.11758 0.93785 0.26724 0.0
C1523 C 0.11446 0.96326 0.26875 0.0
C1524 C 0.11985 0.97809 0.24869 0.0
C1525 C 0.12828 0.96752 0.22705 0.0
C1526 C 0.1315 0.94213 0.22547 0.0
C1527 C 0.07202 0.81835 0.19643 0.0
C1528 C 0.0729 0.8256 0.17185 0.0
C1529 C 0.08718 0.82966 0.21373 0.0
C1530 C 0.10363 0.84824 0.20672 0.0
C1531 C 0.10478 0.85517 0.18215 0.0
C1532 C 0.08965 0.84399 0.16493 0.0
C1533 C 0.11899 0.86124 0.225 0.0
C1534 C 0.1173 0.88691 0.22641 0.0
C1535 C 0.13461 0.84862 0.24134 0.0
C1536 C 0.13824 0.82169 0.23994 0.0
C1537 C 0.14587 0.81063 0.21806 0.0
C1538 C 0.14914 0.78523 0.21682 0.0
C1539 C 0.14499 0.7707 0.23738 0.0
C1540 C 0.13763 0.78156 0.25926 0.0
C1541 C 0.13432 0.80695 0.26059 0.0
H1542 H 0.14753 0.75104 0.23638 0.0
H1543 H 0.11745 0.99776 0.24988 0.0
H1544 H 0.30406 0.94263 0.79377 0.0
H1545 H 0.3232 0.91681 0.76247 0.0
H1546 H 0.36918 0.88352 0.81718 0.0
H1547 H 0.3505 0.90911 0.84831 0.0
H1548 H 0.39565 0.89813 0.77886 0.0
H1549 H 0.322 0.85204 0.79232 0.0
H1550 H 0.27737 0.8455 0.7954 0.0
H1551 H 0.26865 0.86649 0.72049 0.0
H1552 H 0.31322 0.87349 0.71706 0.0
H1553 H 0.44816 0.80508 0.70547 0.0
H1554 H 0.42348 0.82379 0.73788 0.0
H1555 H 0.37905 0.86025 0.68391 0.0
H1556 H 0.4034 0.84169 0.65156 0.0
H1557 H 0.35132 0.84277 0.72221 0.0
H1558 H 0.42442 0.89073 0.70948 0.0
H1559 H 0.46904 0.89729 0.70618 0.0
H1560 H 0.47854 0.87293 0.77998 0.0
H1561 H 0.43398 0.86587 0.78359 0.0
C1562 C 0.3181 0.92967 0.79914 0.0
C1563 C 0.3258 0.92808 0.82355 0.0
C1564 C 0.32896 0.91487 0.78125 0.0
C1565 C 0.3476 0.8982 0.78753 0.0
C1566 C 0.35493 0.8963 0.81191 0.0
C1567 C 0.34414 0.91099 0.82971 0.0
C1568 C 0.3604 0.88347 0.76868 0.0
C1569 C 0.38597 0.88575 0.76673 0.0
C1570 C 0.34773 0.86772 0.75251 0.0
C1571 C 0.32092 0.86354 0.75451 0.0
C1572 C 0.31055 0.85547 0.77657 0.0
C1573 C 0.28526 0.85164 0.77837 0.0
C1574 C 0.27018 0.85565 0.75818 0.0
C1575 C 0.28036 0.86343 0.73613 0.0
C1576 C 0.30563 0.86732 0.73424 0.0
C1577 C 0.43292 0.8168 0.70052 0.0
C1578 C 0.42793 0.82211 0.67595 0.0
C1579 C 0.41889 0.82752 0.71904 0.0
C1580 C 0.39962 0.84362 0.71326 0.0
C1581 C 0.39384 0.84792 0.68876 0.0
C1582 C 0.40791 0.83739 0.6703 0.0
C1583 C 0.38651 0.85736 0.73258 0.0
C1584 C 0.36094 0.85501 0.73451 0.0
C1585 C 0.39915 0.8731 0.74877 0.0
C1586 C 0.42591 0.8775 0.74671 0.0
C1587 C 0.43605 0.88658 0.72493 0.0
C1588 C 0.46132 0.89042 0.72302 0.0
C1589 C 0.47663 0.88546 0.74283 0.0
C1590 C 0.46667 0.87672 0.76463 0.0
C1591 C 0.44141 0.8728 0.76663 0.0
H1592 H 0.49619 0.88844 0.74131 0.0
H1593 H 0.25061 0.85266 0.7596 0.0
H1594 H 0.60375 0.33738 0.84216 0.0
H1595 H 0.62793 0.35753 0.81065 0.0
H1596 H 0.58033 0.32753 0.75536 0.0
H1597 H 0.55637 0.30655 0.78696 0.0
H1598 H 0.62662 0.32779 0.73968 0.0
H1599 H 0.57283 0.38649 0.77598 0.0
H1600 H 0.5533 0.40934 0.80955 0.0
H1601 H 0.62332 0.4383 0.83087 0.0
H1602 H 0.64333 0.41534 0.79761 0.0
H1603 H 0.65314 0.41553 0.64802 0.0
H1604 H 0.63406 0.38968 0.67875 0.0
H1605 H 0.68407 0.41757 0.73298 0.0
H1606 H 0.70317 0.44404 0.70227 0.0
H1607 H 0.63723 0.41773 0.74898 0.0
H1608 H 0.69021 0.35878 0.70983 0.0
H1609 H 0.70737 0.33706 0.67428 0.0
H1610 H 0.63576 0.31002 0.65591 0.0
H1611 H 0.61814 0.33173 0.69127 0.0
C1612 C 0.59852 0.33486 0.82329 0.0
C1613 C 0.57794 0.32062 0.81706 0.0
C1614 C 0.61234 0.34646 0.80528 0.0
C1615 C 0.6056 0.34455 0.78068 0.0
C1616 C 0.58578 0.32938 0.77426 0.0
C1617 C 0.57209 0.31744 0.79231 0.0
C1618 C 0.6186 0.35933 0.76194 0.0
C1619 C 0.62873 0.34748 0.74159 0.0
C1620 C 0.62159 0.38503 0.76452 0.0
C1621 C 0.6096 0.39901 0.78444 0.0
C1622 C 0.58409 0.3976 0.78793 0.0
C1623 C 0.57293 0.41059 0.80689 0.0
C1624 C 0.58707 0.42521 0.82237 0.0
C1625 C 0.6124 0.42693 0.81888 0.0
C1626 C 0.62365 0.41396 0.79996 0.0
C1627 C 0.66028 0.41614 0.66643 0.0
C1628 C 0.67975 0.43193 0.67265 0.0
C1629 C 0.64938 0.40118 0.68397 0.0
C1630 C 0.65783 0.40142 0.7081 0.0
C1631 C 0.67733 0.41703 0.71442 0.0
C1632 C 0.68825 0.43211 0.69685 0.0
C1633 C 0.64551 0.38618 0.72688 0.0
C1634 C 0.63533 0.398 0.74719 0.0
C1635 C 0.64218 0.36057 0.72403 0.0
C1636 C 0.65284 0.347 0.70312 0.0
C1637 C 0.67812 0.34826 0.69817 0.0
C1638 C 0.68792 0.33594 0.67807 0.0
C1639 C 0.67266 0.32219 0.66284 0.0
C1640 C 0.64757 0.32065 0.66774 0.0
C1641 C 0.63767 0.33291 0.68785 0.0
H1642 H 0.68028 0.31271 0.64725 0.0
H1643 H 0.5784 0.43525 0.83704 0.0
H1644 H 0.0843 0.64738 0.65768 0.0
H1645 H 0.10942 0.62881 0.68914 0.0
H1646 H 0.09731 0.69151 0.73563 0.0
H1647 H 0.07112 0.71 0.70424 0.0
H1648 H 0.14988 0.6389 0.70992 0.0
H1649 H 0.09802 0.67301 0.79509 0.0
H1650 H 0.0565 0.68643 0.80707 0.0
H1651 H 0.02527 0.64322 0.74946 0.0
H1652 H 0.06656 0.62934 0.73735 0.0
H1653 H 0.21485 0.59017 0.8124 0.0
H1654 H 0.19526 0.61774 0.78283 0.0
H1655 H 0.12579 0.58182 0.79565 0.0
H1656 H 0.14502 0.55585 0.8264 0.0
H1657 H 0.11675 0.62602 0.79304 0.0
H1658 H 0.16585 0.5727 0.74222 0.0
H1659 H 0.20403 0.55314 0.72793 0.0
H1660 H 0.23497 0.62394 0.71268 0.0
H1661 H 0.19705 0.64391 0.72714 0.0
C1662 C 0.08696 0.65737 0.67454 0.0
C1663 C 0.07554 0.68017 0.67846 0.0
C1664 C 0.10149 0.64672 0.69253 0.0
C1665 C 0.10521 0.65861 0.71488 0.0
C1666 C 0.09442 0.68175 0.71869 0.0
C1667 C 0.0795 0.69234 0.70072 0.0
C1668 C 0.11968 0.64608 0.73422 0.0
C1669 C 0.14268 0.63619 0.72815 0.0
C1670 C 0.11028 0.64226 0.75795 0.0
C1671 C 0.08539 0.65044 0.76513 0.0
C1672 C 0.08228 0.66637 0.78501 0.0
C1673 C 0.05879 0.67404 0.79183 0.0
C1674 C 0.03827 0.66577 0.77897 0.0
C1675 C 0.04119 0.64971 0.75934 0.0
C1676 C 0.06462 0.64196 0.75247 0.0
C1677 C 0.19544 0.58821 0.80867 0.0
C1678 C 0.18137 0.57093 0.82142 0.0
C1679 C 0.18424 0.60387 0.79174 0.0
C1680 C 0.15899 0.60179 0.78666 0.0
C1681 C 0.14519 0.58407 0.79926 0.0
C1682 C 0.15619 0.56907 0.81668 0.0
C1683 C 0.1466 0.61795 0.7685 0.0
C1684 C 0.12411 0.62883 0.77489 0.0
C1685 C 0.15598 0.62176 0.74472 0.0
C1686 C 0.17875 0.60979 0.73601 0.0
C1687 C 0.18087 0.58408 0.73596 0.0
C1688 C 0.20244 0.57293 0.72781 0.0
C1689 C 0.22194 0.58729 0.71948 0.0
C1690 C 0.21987 0.61284 0.7192 0.0
C1691 C 0.19834 0.62408 0.72735 0.0
H1692 H 0.23863 0.57863 0.71318 0.0
H1693 H 0.02011 0.67174 0.78427 0.0
H1694 H 0.90125 0.16354 0.8465 0.0
H1695 H 0.87556 0.14499 0.8153 0.0
H1696 H 0.92 0.17816 0.75928 0.0
H1697 H 0.94596 0.19719 0.79066 0.0
H1698 H 0.86949 0.17787 0.74813 0.0
H1699 H 0.93139 0.12103 0.77446 0.0
H1700 H 0.95535 0.09772 0.80472 0.0
H1701 H 0.88968 0.06231 0.82975 0.0
H1702 H 0.86526 0.08571 0.79987 0.0
H1703 H 0.84428 0.09529 0.65183 0.0
H1704 H 0.86197 0.12122 0.68329 0.0
H1705 H 0.81978 0.08325 0.73802 0.0
H1706 H 0.802 0.05678 0.70646 0.0
H1707 H 0.8675 0.08686 0.75052 0.0
H1708 H 0.80575 0.14198 0.72231 0.0
H1709 H 0.78192 0.16534 0.69201 0.0
H1710 H 0.847 0.20384 0.67015 0.0
H1711 H 0.87131 0.18044 0.70008 0.0
C1712 C 0.9055 0.16718 0.82756 0.0
C1713 C 0.92592 0.18155 0.82105 0.0
C1714 C 0.89074 0.15654 0.80975 0.0
C1715 C 0.89617 0.1598 0.78501 0.0
C1716 C 0.91561 0.17534 0.77832 0.0
C1717 C 0.93042 0.18616 0.79624 0.0
C1718 C 0.88255 0.14551 0.76644 0.0
C1719 C 0.86925 0.15798 0.74842 0.0
C1720 C 0.8818 0.11956 0.76726 0.0
C1721 C 0.89647 0.1053 0.78509 0.0
C1722 C 0.92203 0.10841 0.78654 0.0
C1723 C 0.9357 0.09516 0.80361 0.0
C1724 C 0.92403 0.07859 0.81919 0.0
C1725 C 0.89868 0.07518 0.81769 0.0
C1726 C 0.88492 0.08842 0.80068 0.0
C1727 C 0.83853 0.09248 0.67051 0.0
C1728 C 0.82176 0.07382 0.67662 0.0
C1729 C 0.84858 0.10751 0.68848 0.0
C1730 C 0.84203 0.10436 0.71298 0.0
C1731 C 0.82501 0.08603 0.71918 0.0
C1732 C 0.81483 0.07097 0.70114 0.0
C1733 C 0.85431 0.11916 0.73212 0.0
C1734 C 0.86751 0.10677 0.75026 0.0
C1735 C 0.85496 0.14514 0.73132 0.0
C1736 C 0.8404 0.15929 0.71332 0.0
C1737 C 0.81503 0.15528 0.71091 0.0
C1738 C 0.80142 0.16856 0.69382 0.0
C1739 C 0.81295 0.18602 0.67913 0.0
C1740 C 0.8381 0.19029 0.68153 0.0
C1741 C 0.8518 0.17704 0.69858 0.0
H1742 H 0.80238 0.19629 0.66591 0.0
H1743 H 0.93465 0.06835 0.83239 0.0
H1744 H 0.59392 0.13224 0.42575 0.0
H1745 H 0.62549 0.11308 0.45093 0.0
H1746 H 0.58052 0.12337 0.51474 0.0
H1747 H 0.54854 0.1424 0.48954 0.0
H1748 H 0.63038 0.14058 0.51884 0.0
H1749 H 0.58594 0.06818 0.49491 0.0
H1750 H 0.56648 0.04003 0.46554 0.0
H1751 H 0.63571 0.0292 0.42987 0.0
H1752 H 0.65553 0.05758 0.45883 0.0
H1753 H 0.70724 0.07457 0.59914 0.0
H1754 H 0.67254 0.0904 0.5758 0.0
H1755 H 0.70702 0.06638 0.50911 0.0
H1756 H 0.74107 0.0491 0.53273 0.0
H1757 H 0.66089 0.05565 0.50727 0.0
H1758 H 0.70564 0.12808 0.52778 0.0
H1759 H 0.72671 0.15759 0.55463 0.0
H1760 H 0.65955 0.17039 0.59345 0.0
H1761 H 0.63814 0.14068 0.56702 0.0
C1762 C 0.59061 0.13022 0.44511 0.0
C1763 C 0.56875 0.13881 0.45569 0.0
C1764 C 0.60864 0.11922 0.45944 0.0
C1765 C 0.60527 0.11677 0.48464 0.0
C1766 C 0.58339 0.12508 0.49529 0.0
C1767 C 0.56513 0.13581 0.48087 0.0
C1768 C 0.62515 0.10645 0.49985 0.0
C1769 C 0.63682 0.12187 0.51669 0.0
C1770 C 0.63403 0.08236 0.49627 0.0
C1771 C 0.62217 0.06518 0.47892 0.0
C1772 C 0.59698 0.05996 0.48068 0.0
C1773 C 0.58589 0.04392 0.46413 0.0
C1774 C 0.59984 0.03288 0.44581 0.0
C1775 C 0.62492 0.03779 0.44405 0.0
C1776 C 0.6361 0.05382 0.46055 0.0
C1777 C 0.70723 0.07244 0.57952 0.0
C1778 C 0.72659 0.06033 0.56771 0.0
C1779 C 0.68756 0.08177 0.56615 0.0
C1780 C 0.68724 0.07985 0.54063 0.0
C1781 C 0.70681 0.06805 0.52878 0.0
C1782 C 0.72632 0.05835 0.54222 0.0
C1783 C 0.66632 0.08979 0.52636 0.0
C1784 C 0.65446 0.07432 0.50961 0.0
C1785 C 0.65754 0.11403 0.52969 0.0
C1786 C 0.67034 0.13197 0.54557 0.0
C1787 C 0.6954 0.13705 0.54216 0.0
C1788 C 0.7074 0.15383 0.55728 0.0
C1789 C 0.69449 0.16581 0.57578 0.0
C1790 C 0.66954 0.16107 0.57914 0.0
C1791 C 0.65745 0.14428 0.56408 0.0
H1792 H 0.70381 0.1788 0.58747 0.0
H1793 H 0.59122 0.02047 0.43301 0.0
H1794 H 0.35204 0.55426 0.48612 0.0
H1795 H 0.36912 0.58638 0.51238 0.0
H1796 H 0.38176 0.63191 0.4493 0.0
H1797 H 0.36414 0.60035 0.42318 0.0
H1798 H 0.41151 0.60847 0.51658 0.0
H1799 H 0.37147 0.691 0.46195 0.0
H1800 H 0.33521 0.70018 0.43668 0.0
H1801 H 0.29472 0.64328 0.47285 0.0
H1802 H 0.33057 0.63404 0.49862 0.0
H1803 H 0.47412 0.71676 0.54998 0.0
H1804 H 0.45516 0.68278 0.52751 0.0
H1805 H 0.38386 0.7055 0.55335 0.0
H1806 H 0.40285 0.74006 0.57482 0.0
H1807 H 0.37964 0.69334 0.50892 0.0
H1808 H 0.41761 0.65669 0.57777 0.0
H1809 H 0.45083 0.64609 0.60634 0.0
H1810 H 0.48901 0.60828 0.54915 0.0
H1811 H 0.45672 0.61963 0.52003 0.0
C1812 C 0.35862 0.57106 0.47787 0.0
C1813 C 0.35654 0.57488 0.45263 0.0
C1814 C 0.36836 0.58939 0.49288 0.0
C1815 C 0.37625 0.61175 0.48286 0.0
C1816 C 0.37521 0.61508 0.45753 0.0
C1817 C 0.36524 0.59695 0.4426 0.0
C1818 C 0.3853 0.63185 0.49875 0.0
C1819 C 0.40456 0.62704 0.51498 0.0
C1820 C 0.37566 0.65591 0.49718 0.0
C1821 C 0.35382 0.66169 0.48207 0.0
C1822 C 0.35479 0.68054 0.46461 0.0
C1823 C 0.33431 0.68575 0.45019 0.0
C1824 C 0.3127 0.67228 0.45311 0.0
C1825 C 0.31149 0.65365 0.47055 0.0
C1826 C 0.33189 0.64842 0.48506 0.0
C1827 C 0.45439 0.71449 0.55058 0.0
C1828 C 0.43981 0.7309 0.56384 0.0
C1829 C 0.44358 0.69502 0.53797 0.0
C1830 C 0.41808 0.6913 0.53904 0.0
C1831 C 0.40354 0.70795 0.55221 0.0
C1832 C 0.41433 0.72765 0.56446 0.0
C1833 C 0.4065 0.67021 0.52629 0.0
C1834 C 0.38664 0.67481 0.51066 0.0
C1835 C 0.41512 0.64582 0.52903 0.0
C1836 C 0.43481 0.63927 0.5466 0.0
C1837 C 0.43328 0.64644 0.57119 0.0
C1838 C 0.45201 0.64035 0.5875 0.0
C1839 C 0.47217 0.6267 0.57956 0.0
C1840 C 0.4736 0.61911 0.55529 0.0
C1841 C 0.45511 0.62543 0.53884 0.0
H1842 H 0.4866 0.62191 0.59223 0.0
H1843 H 0.29688 0.67631 0.44189 0.0
H1844 H 0.91133 0.37057 0.42641 0.0
H1845 H 0.88169 0.39155 0.45243 0.0
H1846 H 0.91861 0.36403 0.5163 0.0
H1847 H 0.94864 0.34306 0.49029 0.0
H1848 H 0.86688 0.35637 0.51575 0.0
H1849 H 0.92459 0.42183 0.50443 0.0
H1850 H 0.95101 0.44962 0.48062 0.0
H1851 H 0.88793 0.47767 0.44302 0.0
H1852 H 0.86114 0.44978 0.46636 0.0
H1853 H 0.79452 0.42474 0.59868 0.0
H1854 H 0.82897 0.40678 0.57634 0.0
H1855 H 0.80412 0.44218 0.51045 0.0
H1856 H 0.77029 0.46111 0.53316 0.0
H1857 H 0.85188 0.44611 0.51382 0.0
H1858 H 0.79439 0.38021 0.52179 0.0
H1859 H 0.76674 0.35182 0.54344 0.0
H1860 H 0.82754 0.32373 0.58458 0.0
H1861 H 0.85552 0.35223 0.56341 0.0
C1862 C 0.9133 0.36913 0.446 0.0
C1863 C 0.93232 0.35517 0.45632 0.0
C1864 C 0.89639 0.3812 0.46082 0.0
C1865 C 0.89805 0.37941 0.48625 0.0
C1866 C 0.9171 0.36565 0.49668 0.0
C1867 C 0.93428 0.3538 0.48183 0.0
C1868 C 0.87918 0.39113 0.50175 0.0
C1869 C 0.86385 0.37604 0.51574 0.0
C1870 C 0.87482 0.41668 0.50101 0.0
C1871 C 0.89088 0.43355 0.48701 0.0
C1872 C 0.91637 0.43377 0.49094 0.0
C1873 C 0.93141 0.44958 0.47756 0.0
C1874 C 0.92116 0.46536 0.46028 0.0
C1875 C 0.89584 0.46542 0.4564 0.0
C1876 C 0.88072 0.44964 0.46972 0.0
C1877 C 0.79662 0.42883 0.57947 0.0
C1878 C 0.77994 0.44435 0.56758 0.0
C1879 C 0.81613 0.4184 0.56668 0.0
C1880 C 0.81899 0.42288 0.54163 0.0
C1881 C 0.8023 0.43846 0.52976 0.0
C1882 C 0.78293 0.44911 0.54264 0.0
C1883 C 0.83937 0.41135 0.52781 0.0
C1884 C 0.85497 0.42646 0.51405 0.0
C1885 C 0.84377 0.38575 0.52849 0.0
C1886 C 0.827 0.36854 0.5412 0.0
C1887 C 0.80184 0.36812 0.53559 0.0
C1888 C 0.78611 0.35198 0.54776 0.0
C1889 C 0.79537 0.33603 0.56542 0.0
C1890 C 0.82039 0.33613 0.57092 0.0
C1891 C 0.83619 0.35226 0.55884 0.0
H1892 H 0.78317 0.32355 0.57482 0.0
H1893 H 0.93284 0.47758 0.44994 0.0
H1894 H 0.13259 0.906 0.42095 0.0
H1895 H 0.11338 0.87522 0.44709 0.0
H1896 H 0.138 0.91439 0.51082 0.0
H1897 H 0.15718 0.94549 0.48474 0.0
H1898 H 0.14854 0.86332 0.51131 0.0
H1899 H 0.07998 0.91705 0.49746 0.0
H1900 H 0.05109 0.941 0.47241 0.0
H1901 H 0.02742 0.87515 0.43649 0.0
H1902 H 0.05644 0.85084 0.46109 0.0
H1903 H 0.08235 0.79365 0.598 0.0
H1904 H 0.09926 0.82704 0.57335 0.0
H1905 H 0.06603 0.79576 0.50907 0.0
H1906 H 0.04826 0.76286 0.534 0.0
H1907 H 0.05968 0.84379 0.50934 0.0
H1908 H 0.12768 0.78989 0.52074 0.0
H1909 H 0.15698 0.76456 0.54391 0.0
H1910 H 0.18257 0.82856 0.58179 0.0
H1911 H 0.15314 0.85424 0.5591 0.0
C1912 C 0.13377 0.9082 0.44053 0.0
C1913 C 0.14637 0.9282 0.45079 0.0
C1914 C 0.12272 0.89062 0.45542 0.0
C1915 C 0.1242 0.8926 0.48086 0.0
C1916 C 0.13665 0.91259 0.49121 0.0
C1917 C 0.14747 0.93038 0.4763 0.0
C1918 C 0.11337 0.87331 0.49654 0.0
C1919 C 0.12905 0.85929 0.51124 0.0
C1920 C 0.08809 0.86758 0.49573 0.0
C1921 C 0.07056 0.88215 0.48097 0.0
C1922 C 0.06877 0.9077 0.48408 0.0
C1923 C 0.05234 0.92134 0.46999 0.0
C1924 C 0.03747 0.90961 0.45283 0.0
C1925 C 0.03896 0.88421 0.44977 0.0
C1926 C 0.05538 0.87049 0.4638 0.0
C1927 C 0.07849 0.79411 0.57864 0.0
C1928 C 0.06385 0.77594 0.56786 0.0
C1929 C 0.08834 0.81301 0.56454 0.0
C1930 C 0.08412 0.8138 0.53929 0.0
C1931 C 0.06951 0.79555 0.5285 0.0
C1932 C 0.0595 0.77673 0.54267 0.0
C1933 C 0.09484 0.83372 0.52421 0.0
C1934 C 0.07916 0.84784 0.50955 0.0
C1935 C 0.1202 0.83932 0.52479 0.0
C1936 C 0.13803 0.82396 0.53839 0.0
C1937 C 0.13942 0.79854 0.53415 0.0
C1938 C 0.15607 0.78412 0.54717 0.0
C1939 C 0.17159 0.79494 0.56436 0.0
C1940 C 0.17052 0.8202 0.5685 0.0
C1941 C 0.15387 0.8347 0.55555 0.0
H1942 H 0.18447 0.78374 0.57442 0.0
H1943 H 0.02476 0.9202 0.44194 0.0
H1944 H 0.24293 0.95254 0.96678 0.0
H1945 H 0.20846 0.93582 0.99026 0.0
H1946 H 0.17265 0.91441 0.92347 0.0
H1947 H 0.20728 0.93063 0.90001 0.0
H1948 H 0.14109 0.9376 0.95638 0.0
H1949 H 0.20055 0.87227 0.95586 0.0
H1950 H 0.24155 0.85437 0.96236 0.0
H1951 H 0.23747 0.87199 0.03851 0.0
H1952 H 0.19658 0.89037 0.03238 0.0
H1953 H 0.05046 0.85881 0.00852 0.0
H1954 H 0.08312 0.87749 0.98413 0.0
H1955 H 0.12618 0.88837 0.04925 0.0
H1956 H 0.09413 0.86891 0.07343 0.0
H1957 H 0.15405 0.87066 0.01621 0.0
H1958 H 0.09557 0.93638 0.01783 0.0
H1959 H 0.05536 0.95625 0.01211 0.0
H1960 H 0.05795 0.94011 0.93557 0.0
H1961 H 0.09804 0.91984 0.94089 0.0
C1962 C 0.22773 0.94413 0.95718 0.0
C1963 C 0.22763 0.94296 0.93164 0.0
C1964 C 0.20807 0.93467 0.97056 0.0
C1965 C 0.18804 0.92385 0.95857 0.0
C1966 C 0.18786 0.92282 0.93304 0.0
C1967 C 0.20759 0.93211 0.91969 0.0
C1968 C 0.16744 0.91322 0.97266 0.0
C1969 C 0.1438 0.92276 0.96928 0.0
C1970 C 0.17117 0.89427 0.98984 0.0
C1971 C 0.1956 0.8829 0.99361 0.0
C1972 C 0.20847 0.87249 0.97396 0.0
C1973 C 0.23168 0.86224 0.97758 0.0
C1974 C 0.24213 0.86209 0.00082 0.0
C1975 C 0.22936 0.87214 0.02051 0.0
C1976 C 0.20616 0.88246 0.01698 0.0
C1977 C 0.06681 0.86541 0.01762 0.0
C1978 C 0.06975 0.86237 0.04287 0.0
C1979 C 0.08544 0.87617 0.00368 0.0
C1980 C 0.1071 0.88457 0.01485 0.0
C1981 C 0.10975 0.88196 0.04016 0.0
C1982 C 0.09136 0.87089 0.05399 0.0
C1983 C 0.1275 0.89518 0.00022 0.0
C1984 C 0.15119 0.88554 0.0034 0.0
C1985 C 0.12382 0.91423 0.98305 0.0
C1986 C 0.09968 0.92635 0.97981 0.0
C1987 C 0.08747 0.93689 -0.00019 0.0
C1988 C 0.06472 0.94826 0.99663 0.0
C1989 C 0.05407 0.94938 0.9735 0.0
C1990 C 0.06619 0.93919 0.95348 0.0
C1991 C 0.08894 0.92777 0.95657 0.0
H1992 H 0.03646 0.9582 0.97108 0.0
H1993 H 0.26011 0.85415 0.00359 0.0
H1994 H 0.6565 0.05672 0.01607 0.0
H1995 H 0.63803 0.0873 0.98894 0.0
H1996 H 0.60916 0.12601 0.05116 0.0
H1997 H 0.62779 0.09576 0.07838 0.0
H1998 H 0.57556 0.12122 0.01085 0.0
H1999 H 0.65873 0.14625 0.02868 0.0
H2000 H 0.70341 0.13968 0.03081 0.0
H2001 H 0.7058 0.12803 0.95346 0.0
H2002 H 0.66101 0.13403 0.95096 0.0
H2003 H 0.54976 0.23835 0.96191 0.0
H2004 H 0.56593 0.20472 0.9869 0.0
H2005 H 0.60368 0.17562 0.92411 0.0
H2006 H 0.58803 0.20964 0.89933 0.0
H2007 H 0.63242 0.17373 0.96321 0.0
H2008 H 0.55057 0.14975 0.94404 0.0
H2009 H 0.5057 0.15414 0.94079 0.0
H2010 H 0.50034 0.16178 0.01848 0.0
H2011 H 0.54525 0.15779 0.02217 0.0
C2012 C 0.64592 0.07154 0.02394 0.0
C2013 C 0.64367 0.07393 0.04934 0.0
C2014 C 0.63546 0.08901 0.00844 0.0
C2015 C 0.62239 0.10894 0.01811 0.0
C2016 C 0.61918 0.11074 0.04338 0.0
C2017 C 0.62991 0.09351 0.05889 0.0
C2018 C 0.61327 0.12874 0.00205 0.0
C2019 C 0.58794 0.13288 0.00058 0.0
C2020 C 0.62949 0.14347 0.98826 0.0
C2021 C 0.65648 0.14031 0.98968 0.0
C2022 C 0.66875 0.14208 0.01216 0.0
C2023 C 0.69409 0.13848 0.01343 0.0
C2024 C 0.70743 0.13338 0.99229 0.0
C2025 C 0.69544 0.13194 0.96983 0.0
C2026 C 0.67007 0.13544 0.96847 0.0
C2027 C 0.5616 0.22478 0.95357 0.0
C2028 C 0.56741 0.22623 0.92872 0.0
C2029 C 0.5707 0.20554 0.96776 0.0
C2030 C 0.58566 0.1874 0.95726 0.0
C2031 C 0.59204 0.1893 0.93255 0.0
C2032 C 0.58299 0.20858 0.9184 0.0
C2033 C 0.59459 0.16643 0.97205 0.0
C2034 C 0.61994 0.16205 0.97333 0.0
C2035 C 0.57835 0.1513 0.98548 0.0
C2036 C 0.55132 0.15371 0.98336 0.0
C2037 C 0.53985 0.15257 0.96042 0.0
C2038 C 0.51441 0.15495 0.95849 0.0
C2039 C 0.50018 0.15829 0.97941 0.0
C2040 C 0.51138 0.15922 0.00229 0.0
C2041 C 0.53684 0.15688 0.00431 0.0
H2042 H 0.48048 0.16012 0.97788 0.0
H2043 H 0.72705 0.13059 0.99331 0.0
H2044 H 0.27359 0.53519 0.96087 0.0
H2045 H 0.30695 0.55275 0.98544 0.0
H2046 H 0.3198 0.60712 0.92972 0.0
H2047 H 0.28631 0.58966 0.90533 0.0
H2048 H 0.35601 0.55864 0.97592 0.0
H2049 H 0.33476 0.66112 0.95872 0.0
H2050 H 0.29928 0.68748 0.9491 0.0
H2051 H 0.2509 0.63558 0.98307 0.0
H2052 H 0.28611 0.60914 0.99323 0.0
H2053 H 0.45474 0.63332 0.01991 0.0
H2054 H 0.4231 0.61473 0.99408 0.0
H2055 H 0.36773 0.63517 0.04642 0.0
H2056 H 0.39896 0.654 0.07201 0.0
H2057 H 0.35286 0.64579 0.00182 0.0
H2058 H 0.38869 0.57617 0.04232 0.0
H2059 H 0.42236 0.54875 0.05485 0.0
H2060 H 0.43834 0.533 0.97984 0.0
H2061 H 0.40494 0.5606 0.96686 0.0
C2062 C 0.28363 0.55088 0.95399 0.0
C2063 C 0.27765 0.56113 0.93134 0.0
C2064 C 0.30269 0.56079 0.96789 0.0
C2065 C 0.3158 0.58125 0.9594 0.0
C2066 C 0.30982 0.59142 0.93665 0.0
C2067 C 0.29082 0.58145 0.92274 0.0
C2068 C 0.33536 0.59229 0.97461 0.0
C2069 C 0.35539 0.57772 0.98153 0.0
C2070 C 0.33435 0.61708 0.98215 0.0
C2071 C 0.31307 0.63303 0.97647 0.0
C2072 C 0.31656 0.65539 0.96421 0.0
C2073 C 0.2965 0.67034 0.95866 0.0
C2074 C 0.27284 0.66317 0.96539 0.0
C2075 C 0.26922 0.64108 0.97778 0.0
C2076 C 0.28922 0.62609 0.98341 0.0
C2077 C 0.43583 0.6338 0.02591 0.0
C2078 C 0.4294 0.6451 0.04804 0.0
C2079 C 0.41779 0.62312 0.01117 0.0
C2080 C 0.39306 0.62345 0.0184 0.0
C2081 C 0.38666 0.63476 0.04044 0.0
C2082 C 0.4046 0.64544 0.0551 0.0
C2083 C 0.37365 0.6122 0.00308 0.0
C2084 C 0.35363 0.62676 0.99607 0.0
C2085 C 0.37446 0.58729 0.99585 0.0
C2086 C 0.39449 0.57065 0.00362 0.0
C2087 C 0.39951 0.56701 0.0285 0.0
C2088 C 0.41852 0.55141 0.03568 0.0
C2089 C 0.43253 0.53919 0.01815 0.0
C2090 C 0.4275 0.5425 0.9934 0.0
C2091 C 0.40852 0.55811 0.98612 0.0
H2092 H 0.44724 0.52712 0.02375 0.0
H2093 H 0.25733 0.67475 0.96105 0.0
H2094 H 0.87485 0.40569 0.076 0.0
H2095 H 0.89428 0.3737 0.05145 0.0
H2096 H 0.8655 0.40675 0.98606 0.0
H2097 H 0.84623 0.43915 0.01051 0.0
H2098 H 0.85657 0.35439 0.99174 0.0
H2099 H 0.92265 0.41312 0.99491 0.0
H2100 H 0.95173 0.44091 0.01546 0.0
H2101 H 0.98176 0.3802 0.05538 0.0
H2102 H 0.9526 0.3521 0.03531 0.0
H2103 H 0.92112 0.28448 0.90436 0.0
H2104 H 0.90357 0.31776 0.92874 0.0
H2105 H 0.94254 0.2914 0.992 0.0
H2106 H 0.96054 0.25833 0.96734 0.0
H2107 H 0.94643 0.34048 0.9879 0.0
H2108 H 0.88207 0.28171 0.98699 0.0
H2109 H 0.85287 0.25235 0.96898 0.0
H2110 H 0.81911 0.31058 0.92836 0.0
H2111 H 0.84836 0.34027 0.94588 0.0
C2112 C 0.87284 0.40629 0.05637 0.0
C2113 C 0.85906 0.42493 0.04514 0.0
C2114 C 0.88398 0.38804 0.0424 0.0
C2115 C 0.88131 0.38794 0.017 0.0
C2116 C 0.86774 0.4066 0.00567 0.0
C2117 C 0.85689 0.42512 0.01963 0.0
C2118 C 0.89209 0.36784 0.00244 0.0
C2119 C 0.87622 0.35154 0.99052 0.0
C2120 C 0.91767 0.36368 0.00175 0.0
C2121 C 0.93527 0.38055 0.01378 0.0
C2122 C 0.9353 0.40573 0.00823 0.0
C2123 C 0.95183 0.42153 0.01976 0.0
C2124 C 0.96853 0.41234 0.03676 0.0
C2125 C 0.96878 0.38731 0.04222 0.0
C2126 C 0.95227 0.37143 0.03076 0.0
C2127 C 0.92599 0.28596 0.92344 0.0
C2128 C 0.94234 0.26921 0.93403 0.0
C2129 C 0.91586 0.3048 0.93738 0.0
C2130 C 0.92166 0.30697 0.96222 0.0
C2131 C 0.93789 0.29008 0.97286 0.0
C2132 C 0.94806 0.27122 0.95887 0.0
C2133 C 0.91092 0.32707 0.97694 0.0
C2134 C 0.92677 0.34333 0.989 0.0
C2135 C 0.88528 0.33095 0.97811 0.0
C2136 C 0.86758 0.31319 0.96757 0.0
C2137 C 0.86856 0.28823 0.97406 0.0
C2138 C 0.85197 0.27153 0.96397 0.0
C2139 C 0.83419 0.27958 0.94748 0.0
C2140 C 0.83292 0.30437 0.94111 0.0
C2141 C 0.84948 0.32115 0.95114 0.0
H2142 H 0.82136 0.26662 0.93969 0.0
H2143 H 0.98132 0.4246 0.04566 0.0
H2144 H 0.29617 0.92902 0.3975 0.0
H2145 H 0.33043 0.91339 0.42166 0.0
H2146 H 0.29334 0.93541 0.48764 0.0
H2147 H 0.25973 0.95245 0.46328 0.0
H2148 H 0.33938 0.94645 0.49138 0.0
H2149 H 0.2957 0.87426 0.46731 0.0
H2150 H 0.27601 0.8454 0.43878 0.0
H2151 H 0.34489 0.83399 0.40261 0.0
H2152 H 0.36493 0.86306 0.43073 0.0
H2153 H 0.40383 0.86957 0.57438 0.0
H2154 H 0.37306 0.88887 0.54836 0.0
H2155 H 0.41939 0.87765 0.48566 0.0
H2156 H 0.45048 0.85837 0.51168 0.0
H2157 H 0.37036 0.86174 0.47938 0.0
H2158 H 0.41377 0.93346 0.50656 0.0
H2159 H 0.43206 0.9611 0.53713 0.0
H2160 H 0.36142 0.97162 0.57006 0.0
H2161 H 0.34275 0.94376 0.53988 0.0
C2162 C 0.29554 0.93081 0.41715 0.0
C2163 C 0.27551 0.94218 0.42857 0.0
C2164 C 0.31496 0.92159 0.43097 0.0
C2165 C 0.31438 0.92292 0.45653 0.0
C2166 C 0.29425 0.93417 0.46796 0.0
C2167 C 0.27499 0.94374 0.45409 0.0
C2168 C 0.33482 0.91274 0.47135 0.0
C2169 C 0.34592 0.92782 0.48892 0.0
C2170 C 0.34375 0.88858 0.46788 0.0
C2171 C 0.33176 0.87103 0.45098 0.0
C2172 C 0.30661 0.86574 0.45316 0.0
C2173 C 0.29539 0.84932 0.43708 0.0
C2174 C 0.30917 0.83792 0.41885 0.0
C2175 C 0.33423 0.84286 0.41671 0.0
C2176 C 0.34553 0.85929 0.43273 0.0
C2177 C 0.4076 0.87137 0.55509 0.0
C2178 C 0.4296 0.86245 0.54507 0.0
C2179 C 0.39002 0.88248 0.54026 0.0
C2180 C 0.39402 0.88477 0.51513 0.0
C2181 C 0.41602 0.87607 0.50505 0.0
C2182 C 0.43378 0.86518 0.51994 0.0
C2183 C 0.37472 0.89543 0.49935 0.0
C2184 C 0.36383 0.8804 0.48166 0.0
C2185 C 0.36574 0.91948 0.50299 0.0
C2186 C 0.3769 0.93635 0.52108 0.0
C2187 C 0.40217 0.94151 0.52044 0.0
C2188 C 0.4126 0.95725 0.53767 0.0
C2189 C 0.39792 0.96807 0.55556 0.0
C2190 C 0.37277 0.96321 0.55621 0.0
C2191 C 0.36225 0.94747 0.53902 0.0
H2192 H 0.40603 0.98025 0.56889 0.0
H2193 H 0.30045 0.82521 0.40642 0.0
H2194 H 0.52115 0.28977 0.44573 0.0
H2195 H 0.53635 0.32299 0.47182 0.0
H2196 H 0.60917 0.2921 0.46862 0.0
H2197 H 0.59382 0.25869 0.44287 0.0
H2198 H 0.59911 0.30685 0.51363 0.0
H2199 H 0.59218 0.34146 0.43346 0.0
H2200 H 0.57078 0.35193 0.39527 0.0
H2201 H 0.51933 0.39595 0.43519 0.0
H2202 H 0.54018 0.38541 0.47369 0.0
H2203 H 0.66983 0.40953 0.54778 0.0
H2204 H 0.65084 0.37762 0.52296 0.0
H2205 H 0.57928 0.40692 0.53928 0.0
H2206 H 0.59815 0.43895 0.56448 0.0
H2207 H 0.58673 0.39358 0.48901 0.0
H2208 H 0.59513 0.35954 0.56922 0.0
H2209 H 0.61725 0.34892 0.60697 0.0
H2210 H 0.66711 0.30397 0.56611 0.0
H2211 H 0.64552 0.31462 0.52804 0.0
C2212 C 0.54036 0.29011 0.45076 0.0
C2213 C 0.55635 0.27176 0.44247 0.0
C2214 C 0.54905 0.30908 0.46555 0.0
C2215 C 0.57398 0.31021 0.47195 0.0
C2216 C 0.58987 0.29159 0.46397 0.0
C2217 C 0.58113 0.27254 0.44931 0.0
C2218 C 0.58363 0.33098 0.48661 0.0
C2219 C 0.59661 0.32579 0.50809 0.0
C2220 C 0.57993 0.35575 0.47967 0.0
C2221 C 0.5676 0.36244 0.45649 0.0
C2222 C 0.5762 0.35324 0.43412 0.0
C2223 C 0.56418 0.3592 0.41241 0.0
C2224 C 0.54367 0.37454 0.41281 0.0
C2225 C 0.53519 0.38404 0.43491 0.0
C2226 C 0.54711 0.37808 0.45668 0.0
C2227 C 0.65006 0.40939 0.54598 0.0
C2228 C 0.63548 0.42672 0.55825 0.0
C2229 C 0.63925 0.39107 0.53183 0.0
C2230 C 0.61368 0.3898 0.52952 0.0
C2231 C 0.59906 0.4076 0.54093 0.0
C2232 C 0.60987 0.42582 0.55534 0.0
C2233 C 0.60232 0.36935 0.5158 0.0
C2234 C 0.58907 0.37462 0.49454 0.0
C2235 C 0.60589 0.34464 0.52284 0.0
C2236 C 0.61884 0.33807 0.54574 0.0
C2237 C 0.61094 0.34756 0.56825 0.0
C2238 C 0.62336 0.3415 0.58972 0.0
C2239 C 0.64361 0.32583 0.58894 0.0
C2240 C 0.65144 0.31613 0.56669 0.0
C2241 C 0.6391 0.32215 0.54516 0.0
H2242 H 0.65319 0.32116 0.60557 0.0
H2243 H 0.53437 0.37912 0.39599 0.0
H2244 H 0.21126 0.52851 0.44479 0.0
H2245 H 0.17726 0.54715 0.46745 0.0
H2246 H 0.20105 0.61899 0.44413 0.0
H2247 H 0.23558 0.60028 0.42235 0.0
H2248 H 0.18893 0.62168 0.48887 0.0
H2249 H 0.15052 0.5887 0.41844 0.0
H2250 H 0.14017 0.55708 0.38801 0.0
H2251 H 0.10554 0.51369 0.4435 0.0
H2252 H 0.11605 0.54486 0.47437 0.0
H2253 H 0.05148 0.65285 0.51256 0.0
H2254 H 0.08269 0.63501 0.48572 0.0
H2255 H 0.12714 0.61736 0.54834 0.0
H2256 H 0.09647 0.63555 0.57509 0.0
H2257 H 0.10364 0.59118 0.47995 0.0
H2258 H 0.18643 0.62786 0.53635 0.0
H2259 H 0.1961 0.66297 0.56305 0.0
H2260 H 0.14027 0.70588 0.52805 0.0
H2261 H 0.13055 0.67119 0.50087 0.0
C2262 C 0.20917 0.54827 0.4447 0.0
C2263 C 0.22591 0.56308 0.43209 0.0
C2264 C 0.1897 0.55891 0.45744 0.0
C2265 C 0.18633 0.58449 0.45721 0.0
C2266 C 0.20324 0.59924 0.44462 0.0
C2267 C 0.22291 0.58861 0.4322 0.0
C2268 C 0.16542 0.59588 0.47042 0.0
C2269 C 0.1703 0.615 0.48684 0.0
C2270 C 0.14094 0.5877 0.46733 0.0
C2271 C 0.13425 0.56905 0.44876 0.0
C2272 C 0.14082 0.57235 0.42419 0.0
C2273 C 0.13492 0.55451 0.40686 0.0
C2274 C 0.12225 0.53337 0.41382 0.0
C2275 C 0.11538 0.53007 0.43813 0.0
C2276 C 0.12129 0.54783 0.45556 0.0
C2277 C 0.06781 0.64495 0.52059 0.0
C2278 C 0.07164 0.64585 0.54591 0.0
C2279 C 0.0856 0.63475 0.50524 0.0
C2280 C 0.10745 0.62527 0.515 0.0
C2281 C 0.11068 0.62506 0.54036 0.0
C2282 C 0.09307 0.6354 0.55564 0.0
C2283 C 0.12737 0.61641 0.49881 0.0
C2284 C 0.12229 0.59785 0.48184 0.0
C2285 C 0.15156 0.62567 0.50075 0.0
C2286 C 0.15763 0.64682 0.51672 0.0
C2287 C 0.17632 0.64483 0.53426 0.0
C2288 C 0.18179 0.66465 0.54949 0.0
C2289 C 0.16877 0.68661 0.54729 0.0
C2290 C 0.1503 0.68884 0.52978 0.0
C2291 C 0.14479 0.66909 0.51447 0.0
H2292 H 0.17301 0.70192 0.55912 0.0
H2293 H 0.11771 0.51957 0.40038 0.0
H2294 H 0.9531 0.2358 0.46378 0.0
H2295 H 0.93571 0.20155 0.48702 0.0
H2296 H 0.901 0.17425 0.42173 0.0
H2297 H 0.91771 0.20901 0.39872 0.0
H2298 H 0.87054 0.17091 0.4592 0.0
H2299 H 0.95361 0.14808 0.44375 0.0
H2300 H 0.99851 0.15337 0.44306 0.0
H2301 H 0.99946 0.15911 0.52109 0.0
H2302 H 0.95449 0.15424 0.52222 0.0
H2303 H 0.84365 0.05333 0.50991 0.0
H2304 H 0.86281 0.0843 0.48366 0.0
H2305 H 0.89106 0.12149 0.54709 0.0
H2306 H 0.87188 0.09084 0.57339 0.0
H2307 H 0.92526 0.11769 0.50847 0.0
H2308 H 0.84132 0.1423 0.52282 0.0
H2309 H 0.79655 0.13594 0.52277 0.0
H2310 H 0.79773 0.12547 0.44523 0.0
H2311 H 0.84261 0.13132 0.44489 0.0
C2312 C 0.94164 0.22251 0.45451 0.0
C2313 C 0.93701 0.22469 0.42947 0.0
C2314 C 0.93186 0.2029 0.46771 0.0
C2315 C 0.91745 0.18505 0.45601 0.0
C2316 C 0.91222 0.18767 0.4311 0.0
C2317 C 0.92189 0.20737 0.41795 0.0
C2318 C 0.90792 0.16362 0.46975 0.0
C2319 C 0.88257 0.15906 0.46966 0.0
C2320 C 0.92356 0.14828 0.48363 0.0
C2321 C 0.95064 0.15101 0.48305 0.0
C2322 C 0.96337 0.15065 0.46075 0.0
C2323 C 0.98884 0.15355 0.46028 0.0
C2324 C 0.00182 0.15663 0.48201 0.0
C2325 C 0.98937 0.15675 0.50427 0.0
C2326 C 0.96389 0.1539 0.50484 0.0
C2327 C 0.85421 0.06793 0.51823 0.0
C2328 C 0.85616 0.06974 0.5437 0.0
C2329 C 0.86506 0.08563 0.50323 0.0
C2330 C 0.87819 0.10524 0.51349 0.0
C2331 C 0.88101 0.10649 0.53884 0.0
C2332 C 0.86994 0.08902 0.55383 0.0
C2333 C 0.88797 0.1252 0.49801 0.0
C2334 C 0.91333 0.12947 0.49783 0.0
C2335 C 0.87238 0.14014 0.48373 0.0
C2336 C 0.84536 0.13697 0.48387 0.0
C2337 C 0.83206 0.13844 0.50578 0.0
C2338 C 0.80667 0.13495 0.50583 0.0
C2339 C 0.79431 0.13024 0.48402 0.0
C2340 C 0.80733 0.12908 0.46211 0.0
C2341 C 0.83275 0.13248 0.46198 0.0
H2342 H 0.77465 0.12755 0.48408 0.0
H2343 H 0.02154 0.15887 0.48161 0.0
H2344 H 0.75826 0.05197 0.0348 0.0
H2345 H 0.7917 0.06871 0.00992 0.0
H2346 H 0.82563 0.09833 0.0746 0.0
H2347 H 0.79186 0.08214 0.09935 0.0
H2348 H 0.82784 0.13061 0.03754 0.0
H2349 H 0.84617 0.04563 0.04958 0.0
H2350 H 0.83835 1.00117 0.04898 0.0
H2351 H 0.82944 0.00333 0.97126 0.0
H2352 H 0.83669 0.048 0.97147 0.0
H2353 H 0.94628 0.14975 0.9853 0.0
H2354 H 0.91388 0.13267 0.01127 0.0
H2355 H 0.8737 0.11015 0.94739 0.0
H2356 H 0.90575 0.1274 0.92136 0.0
H2357 H 0.87572 0.0742 0.98486 0.0
H2358 H 0.85644 0.15947 0.97321 0.0
H2359 H 0.8653 0.20381 0.97385 0.0
H2360 H 0.87705 0.20074 0.05115 0.0
H2361 H 0.86871 0.15624 0.0509 0.0
C2362 C 0.77283 0.06218 0.04359 0.0
C2363 C 0.77283 0.06546 0.06894 0.0
C2364 C 0.79194 0.07162 0.02945 0.0
C2365 C 0.81138 0.08441 0.04047 0.0
C2366 C 0.81092 0.0884 0.06574 0.0
C2367 C 0.79178 0.079 0.07985 0.0
C2368 C 0.83245 0.09318 0.02574 0.0
C2369 C 0.8385 0.11821 0.02628 0.0
C2370 C 0.84616 0.07707 0.01076 0.0
C2371 C 0.84174 0.05021 0.01058 0.0
C2372 C 0.84232 0.03668 0.03239 0.0
C2373 C 0.83803 0.01141 0.03211 0.0
C2374 C 0.8334 0.9994 0.01008 0.0
C2375 C 0.83302 0.01266 0.9883 0.0
C2376 C 0.83721 0.03796 0.98849 0.0
C2377 C 0.93069 0.14088 0.97682 0.0
C2378 C 0.92849 0.13995 0.95132 0.0
C2379 C 0.91218 0.13126 0.99165 0.0
C2380 C 0.89137 0.12035 0.98118 0.0
C2381 C 0.88962 0.11853 0.95577 0.0
C2382 C 0.9079 0.12844 0.94096 0.0
C2383 C 0.87096 0.11154 0.99663 0.0
C2384 C 0.86506 0.08653 0.99621 0.0
C2385 C 0.85747 0.12765 0.01174 0.0
C2386 C 0.86223 0.15446 0.01199 0.0
C2387 C 0.86114 0.1682 0.99032 0.0
C2388 C 0.86603 0.19337 0.99061 0.0
C2389 C 0.87179 0.20508 0.01252 0.0
C2390 C 0.87262 0.19164 0.03419 0.0
C2391 C 0.86781 0.16644 0.03398 0.0
H2392 H 0.87556 0.22458 0.0127 0.0
H2393 H 0.83016 0.97983 0.00986 0.0
H2394 H 0.3422 0.94497 0.99068 0.0
H2395 H 0.36153 0.91361 0.01619 0.0
H2396 H 0.39447 0.88123 0.95232 0.0
H2397 H 0.37457 0.91192 0.92676 0.0
H2398 H 0.37517 0.84698 0.97849 0.0
H2399 H 0.42787 0.9155 0.99558 0.0
H2400 H 0.43797 0.95768 0.00835 0.0
H2401 H 0.40671 0.94398 0.07886 0.0
H2402 H 0.39614 0.90179 0.0664 0.0
H2403 H 0.46055 0.76823 0.03733 0.0
H2404 H 0.44254 0.80189 0.01359 0.0
H2405 H 0.40233 0.82574 0.07702 0.0
H2406 H 0.42009 0.79191 0.10065 0.0
H2407 H 0.42488 0.86428 0.05222 0.0
H2408 H 0.37323 0.79506 0.03454 0.0
H2409 H 0.36471 0.75263 0.02151 0.0
H2410 H 0.39571 0.76785 0.9512 0.0
H2411 H 0.4048 0.81028 0.96396 0.0
C2412 C 0.35381 0.93133 0.98215 0.0
C2413 C 0.35686 0.93088 0.95674 0.0
C2414 C 0.3649 0.91344 0.99675 0.0
C2415 C 0.37963 0.89512 0.98621 0.0
C2416 C 0.38312 0.89508 0.96088 0.0
C2417 C 0.37179 0.91269 0.94629 0.0
C2418 C 0.39058 0.87531 0.00128 0.0
C2419 C 0.38633 0.85084 0.99441 0.0
C2420 C 0.40463 0.88023 0.02243 0.0
C2421 C 0.41099 0.90557 0.02997 0.0
C2422 C 0.42298 0.92154 0.01374 0.0
C2423 C 0.42882 0.94544 0.02094 0.0
C2424 C 0.42292 0.95353 0.04438 0.0
C2425 C 0.41123 0.9377 0.06069 0.0
C2426 C 0.40533 0.91379 0.05359 0.0
C2427 C 0.44782 0.78069 0.04609 0.0
C2428 C 0.44174 0.77771 0.07074 0.0
C2429 C 0.43759 0.79985 0.03259 0.0
C2430 C 0.42107 0.81624 0.04357 0.0
C2431 C 0.41514 0.81336 0.06828 0.0
C2432 C 0.42526 0.79411 0.08172 0.0
C2433 C 0.40969 0.83618 0.02917 0.0
C2434 C 0.41375 0.86057 0.03625 0.0
C2435 C 0.39563 0.83123 0.0081 0.0
C2436 C 0.38991 0.80579 0.00029 0.0
C2437 C 0.3784 0.78931 0.01636 0.0
C2438 C 0.37345 0.76526 0.00902 0.0
C2439 C 0.37971 0.75753 0.98556 0.0
C2440 C 0.39089 0.77385 0.96937 0.0
C2441 C 0.39594 0.79791 0.97665 0.0
H2442 H 0.37586 0.7389 0.9799 0.0
H2443 H 0.42746 0.97203 0.04991 0.0
H2444 H 0.74333 0.45076 0.03154 0.0
H2445 H 0.70961 0.43359 0.00745 0.0
H2446 H 0.67652 0.40525 0.07313 0.0
H2447 H 0.71093 0.42132 0.097 0.0
H2448 H 0.67265 0.37271 0.03886 0.0
H2449 H 0.65517 0.45837 0.04423 0.0
H2450 H 0.66353 0.50268 0.04082 0.0
H2451 H 0.67471 0.49497 0.96375 0.0
H2452 H 0.66676 0.45053 0.96675 0.0
H2453 H 0.55659 0.34947 0.98307 0.0
H2454 H 0.58753 0.3687 0.00929 0.0
H2455 H 0.63058 0.38721 0.94599 0.0
H2456 H 0.59994 0.36795 0.91972 0.0
H2457 H 0.62728 0.42549 0.9806 0.0
H2458 H 0.64568 0.33876 0.97682 0.0
H2459 H 0.63559 0.29489 0.98121 0.0
H2460 H 0.62057 0.30565 0.05727 0.0
H2461 H 0.63015 0.34971 0.05323 0.0
C2462 C 0.72887 0.44076 0.04073 0.0
C2463 C 0.72936 0.43777 0.06611 0.0
C2464 C 0.70952 0.43113 0.02703 0.0
C2465 C 0.69016 0.41863 0.03853 0.0
C2466 C 0.69107 0.41503 0.06386 0.0
C2467 C 0.71058 0.42441 0.07751 0.0
C2468 C 0.66906 0.40921 0.02415 0.0
C2469 C 0.66251 0.38439 0.02643 0.0
C2470 C 0.65592 0.42431 0.00767 0.0
C2471 C 0.66057 0.45107 0.00576 0.0
C2472 C 0.65957 0.46609 0.02658 0.0
C2473 C 0.66422 0.49124 0.02472 0.0
C2474 C 0.6697 0.50163 0.00209 0.0
C2475 C 0.67049 0.4869 0.98127 0.0
C2476 C 0.66589 0.46173 0.98304 0.0
C2477 C 0.57251 0.35788 0.97473 0.0
C2478 C 0.5759 0.35709 0.94934 0.0
C2479 C 0.59018 0.36877 0.98972 0.0
C2480 C 0.61139 0.3792 0.97955 0.0
C2481 C 0.61434 0.37926 0.95418 0.0
C2482 C 0.59685 0.36815 0.93922 0.0
C2483 C 0.63111 0.38911 0.99529 0.0
C2484 C 0.63737 0.41396 0.99322 0.0
C2485 C 0.64378 0.37413 0.01215 0.0
C2486 C 0.63837 0.34758 0.01466 0.0
C2487 C 0.64004 0.33181 0.99444 0.0
C2488 C 0.63443 0.30691 0.99687 0.0
C2489 C 0.62739 0.2975 0.01949 0.0
C2490 C 0.626 0.31297 0.03975 0.0
C2491 C 0.63151 0.33791 0.0374 0.0
H2492 H 0.62305 0.27822 0.02133 0.0
H2493 H 0.67329 0.5211 0.00068 0.0
H2494 H 0.09266 0.74382 0.05766 0.0
H2495 H 0.10779 0.71048 0.03183 0.0
H2496 H 0.03687 0.67547 0.03524 0.0
H2497 H 0.02178 0.70884 0.06128 0.0
H2498 H 0.07295 0.64247 0.04062 0.0
H2499 H 0.05451 0.70691 0.98458 0.0
H2500 H 0.05571 0.74906 0.96838 0.0
H2501 H 0.13381 0.74401 0.95993 0.0
H2502 H 0.13314 0.70194 0.97646 0.0
H2503 H 0.09936 0.56061 0.94127 0.0
H2504 H 0.08083 0.59171 0.96773 0.0
H2505 H 0.14982 0.63029 0.97087 0.0
H2506 H 0.1684 0.59951 0.94446 0.0
H2507 H 0.11191 0.66097 0.96102 0.0
H2508 H 0.13014 0.59688 0.01863 0.0
H2509 H 0.12865 0.55492 0.03531 0.0
H2510 H 0.05021 0.55933 0.04047 0.0
H2511 H 0.0512 0.60121 0.02347 0.0
C2512 C 0.08029 0.72911 0.05267 0.0
C2513 C 0.056 0.72899 0.06107 0.0
C2514 C 0.08892 0.71007 0.03797 0.0
C2515 C 0.07334 0.69067 0.03126 0.0
C2516 C 0.04918 0.69029 0.0401 0.0
C2517 C 0.04057 0.70933 0.05489 0.0
C2518 C 0.08237 0.67088 0.01499 0.0
C2519 C 0.08112 0.64646 0.02304 0.0
C2520 C 0.09334 0.67613 0.9922 0.0
C2521 C 0.09379 0.70133 0.98196 0.0
C2522 C 0.07196 0.71484 0.97942 0.0
C2523 C 0.07254 0.73872 0.97016 0.0
C2524 C 0.09483 0.74923 0.96318 0.0
C2525 C 0.11657 0.73585 0.96537 0.0
C2526 C 0.1161 0.71198 0.97467 0.0
C2527 C 0.11061 0.57565 0.9477 0.0
C2528 C 0.13536 0.57757 0.94071 0.0
C2529 C 0.10001 0.59336 0.96287 0.0
C2530 C 0.11398 0.61327 0.97133 0.0
C2531 C 0.13869 0.61512 0.9645 0.0
C2532 C 0.14931 0.59742 0.94946 0.0
C2533 C 0.10283 0.63261 0.9868 0.0
C2534 C 0.10362 0.65696 0.97854 0.0
C2535 C 0.09136 0.62727 0.00932 0.0
C2536 C 0.09073 0.60207 0.01949 0.0
C2537 C 0.11255 0.58882 0.02309 0.0
C2538 C 0.1118 0.56506 0.03265 0.0
C2539 C 0.08934 0.55443 0.03887 0.0
C2540 C 0.06759 0.56756 0.0356 0.0
C2541 C 0.06824 0.59131 0.02601 0.0
H2542 H 0.0888 0.53604 0.04628 0.0
H2543 H 0.09524 0.76772 0.95602 0.0
loop_
_geom_bond_atom_site_label_1
_geom_bond_atom_site_label_2
_geom_bond_distance
_geom_bond_site_symmetry_2
_ccdc_geom_bond_type
Co0 O3 1.970 . S
Co0 N17 1.989 . S
Co0 O25 1.967 . S
Co0 O32 1.920 . S
Co1 O4 1.966 . S
Co1 N10 2.022 . S
Co1 N18 1.993 . S
Co1 O26 1.941 . S
C2 O3 1.258 . S
C2 O4 1.263 . S
O3 Co0 1.970 . S
O3 C2 1.258 . S
O4 Co1 1.966 . S
O4 C2 1.263 . S
C5 O6 1.235 . S
C5 O32 1.289 . S
O6 C5 1.235 . S
C7 C9 1.400 . S
C7 N10 1.351 . S
C7 C12 1.501 . S
C8 C9 1.387 . S
C8 N11 1.341 . S
C9 C7 1.400 . S
C9 C8 1.387 . S
N10 Co1 2.022 . S
N10 C7 1.351 . S
N10 N11 1.365 . S
N11 C8 1.341 . S
N11 N10 1.365 . S
N11 H31 0.862 . S
C12 C7 1.501 . S
C12 H13 0.961 . S
C12 H14 0.961 . S
C12 H15 0.960 . S
H13 C12 0.961 . S
H14 C12 0.961 . S
H15 C12 0.960 . S
C16 N17 1.342 . S
C16 C20 1.401 . S
C16 C21 1.499 . S
N17 Co0 1.989 . S
N17 C16 1.342 . S
N17 N18 1.388 . S
N18 Co1 1.993 . S
N18 N17 1.388 . S
N18 C19 1.346 . S
C19 N18 1.346 . S
C19 C20 1.396 . S
C19 C29 1.510 . S
C20 C16 1.401 . S
C20 C19 1.396 . S
C21 C16 1.499 . S
C21 H22 0.959 . S
C21 H23 0.960 . S
C21 H24 0.961 . S
H22 C21 0.959 . S
H23 C21 0.960 . S
H24 C21 0.961 . S
O25 Co0 1.967 . S
O25 C33 1.258 . S
O26 Co1 1.941 . S
O26 C33 1.266 . S
H27 C29 0.959 . S
H28 C29 0.961 . S
C29 C19 1.510 . S
C29 H27 0.959 . S
C29 H28 0.961 . S
C29 H30 0.960 . S
H30 C29 0.960 . S
H31 N11 0.862 . S
O32 Co0 1.920 . S
O32 C5 1.289 . S
C33 O25 1.258 . S
C33 O26 1.266 . S
Co34 O37 1.970 . S
Co34 N51 1.989 . S
Co34 O59 1.967 . S
Co34 O66 1.920 . S
Co35 O38 1.966 . S
Co35 N44 2.022 . S
Co35 N52 1.993 . S
Co35 O60 1.941 . S
C36 O37 1.258 . S
C36 O38 1.263 . S
O37 Co34 1.970 . S
O37 C36 1.258 . S
O38 Co35 1.966 . S
O38 C36 1.263 . S
C39 O40 1.235 . S
C39 O66 1.289 . S
O40 C39 1.235 . S
C41 C43 1.400 . S
C41 N44 1.351 . S
C41 C46 1.501 . S
C42 C43 1.387 . S
C42 N45 1.341 . S
C43 C41 1.400 . S
C43 C42 1.387 . S
N44 Co35 2.022 . S
N44 C41 1.351 . S
N44 N45 1.365 . S
N45 C42 1.341 . S
N45 N44 1.365 . S
N45 H65 0.862 . S
C46 C41 1.501 . S
C46 H47 0.961 . S
C46 H48 0.961 . S
C46 H49 0.960 . S
H47 C46 0.961 . S
H48 C46 0.961 . S
H49 C46 0.960 . S
C50 N51 1.342 . S
C50 C54 1.401 . S
C50 C55 1.499 . S
N51 Co34 1.989 . S
N51 C50 1.342 . S
N51 N52 1.388 . S
N52 Co35 1.993 . S
N52 N51 1.388 . S
N52 C53 1.346 . S
C53 N52 1.346 . S
C53 C54 1.396 . S
C53 C63 1.510 . S
C54 C50 1.401 . S
C54 C53 1.396 . S
C55 C50 1.499 . S
C55 H56 0.959 . S
C55 H57 0.960 . S
C55 H58 0.961 . S
H56 C55 0.959 . S
H57 C55 0.960 . S
H58 C55 0.961 . S
O59 Co34 1.967 . S
O59 C67 1.258 . S
O60 Co35 1.941 . S
O60 C67 1.266 . S
H61 C63 0.959 . S
H62 C63 0.961 . S
C63 C53 1.510 . S
C63 H61 0.959 . S
C63 H62 0.961 . S
C63 H64 0.960 . S
H64 C63 0.960 . S
H65 N45 0.862 . S
O66 Co34 1.920 . S
O66 C39 1.289 . S
C67 O59 1.258 . S
C67 O60 1.266 . S
Co68 O71 1.970 . S
Co68 N85 1.989 . S
Co68 O93 1.967 . S
Co68 O100 1.920 . S
Co69 O72 1.979 . S
Co69 N78 2.022 . S
Co69 N86 1.993 . S
Co69 O94 1.941 . S
C70 O71 1.258 . S
C70 O72 1.265 . S
O71 Co68 1.970 . S
O71 C70 1.258 . S
O72 Co69 1.979 . S
O72 C70 1.265 . S
C73 O74 1.235 . S
C73 O100 1.289 . S
O74 C73 1.235 . S
C75 C77 1.400 . S
C75 N78 1.351 1_455 S
C75 C80 1.501 . S
C76 C77 1.387 . S
C76 N79 1.341 1_455 S
C77 C75 1.400 . S
C77 C76 1.387 . S
N78 Co69 2.022 . S
N78 C75 1.351 1_655 S
N78 N79 1.365 . S
N79 C76 1.341 1_655 S
N79 N78 1.365 . S
N79 H99 0.862 . S
C80 C75 1.501 . S
C80 H81 0.961 . S
C80 H82 0.961 . S
C80 H83 0.960 . S
H81 C80 0.961 . S
H82 C80 0.961 . S
H83 C80 0.960 . S
C84 N85 1.342 . S
C84 C88 1.401 . S
C84 C89 1.499 . S
N85 Co68 1.989 . S
N85 C84 1.342 . S
N85 N86 1.388 . S
N86 Co69 1.993 . S
N86 N85 1.388 . S
N86 C87 1.346 . S
C87 N86 1.346 . S
C87 C88 1.396 . S
C87 C97 1.510 . S
C88 C84 1.401 . S
C88 C87 1.396 . S
C89 C84 1.499 . S
C89 H90 0.959 . S
C89 H91 0.960 . S
C89 H92 0.961 . S
H90 C89 0.959 . S
H91 C89 0.960 . S
H92 C89 0.961 . S
O93 Co68 1.967 . S
O93 C101 1.258 . S
O94 Co69 1.941 . S
O94 C101 1.266 . S
H95 C97 0.959 . S
H96 C97 0.961 . S
C97 C87 1.510 . S
C97 H95 0.959 . S
C97 H96 0.961 . S
C97 H98 0.960 . S
H98 C97 0.960 . S
H99 N79 0.862 . S
O100 Co68 1.920 . S
O100 C73 1.289 . S
C101 O93 1.258 . S
C101 O94 1.266 . S
Co102 O105 1.970 . S
Co102 N119 1.989 . S
Co102 O127 1.967 . S
Co102 O134 1.920 . S
Co103 O106 1.979 . S
Co103 N112 2.022 . S
Co103 N120 1.993 . S
Co103 O128 1.941 . S
C104 O105 1.258 . S
C104 O106 1.265 . S
O105 Co102 1.970 . S
O105 C104 1.258 . S
O106 Co103 1.979 . S
O106 C104 1.265 . S
C107 O108 1.235 . S
C107 O134 1.289 . S
O108 C107 1.235 . S
C109 C111 1.400 . S
C109 N112 1.351 1_545 S
C109 C114 1.501 . S
C110 C111 1.387 . S
C110 N113 1.341 1_545 S
C111 C109 1.400 . S
C111 C110 1.387 . S
N112 Co103 2.022 . S
N112 C109 1.351 1_565 S
N112 N113 1.365 . S
N113 C110 1.341 1_565 S
N113 N112 1.365 . S
N113 H133 0.862 . S
C114 C109 1.501 . S
C114 H115 0.961 . S
C114 H116 0.961 . S
C114 H117 0.960 . S
H115 C114 0.961 . S
H116 C114 0.961 . S
H117 C114 0.960 . S
C118 N119 1.342 . S
C118 C122 1.401 . S
C118 C123 1.499 . S
N119 Co102 1.989 . S
N119 C118 1.342 . S
N119 N120 1.388 . S
N120 Co103 1.993 . S
N120 N119 1.388 . S
N120 C121 1.346 . S
C121 N120 1.346 . S
C121 C122 1.396 . S
C121 C131 1.510 . S
C122 C118 1.401 . S
C122 C121 1.396 . S
C123 C118 1.499 . S
C123 H124 0.959 . S
C123 H125 0.960 . S
C123 H126 0.961 . S
H124 C123 0.959 . S
H125 C123 0.960 . S
H126 C123 0.961 . S
O127 Co102 1.967 . S
O127 C135 1.258 . S
O128 Co103 1.941 . S
O128 C135 1.266 . S
H129 C131 0.959 . S
H130 C131 0.961 . S
C131 C121 1.510 . S
C131 H129 0.959 . S
C131 H130 0.961 . S
C131 H132 0.960 . S
H132 C131 0.960 . S
H133 N113 0.862 . S
O134 Co102 1.920 . S
O134 C107 1.289 . S
C135 O127 1.258 . S
C135 O128 1.266 . S
Co136 O139 1.970 . S
Co136 N153 1.989 . S
Co136 O161 1.967 . S
Co136 O168 1.920 . S
Co137 O140 1.979 . S
Co137 N146 2.022 . S
Co137 N154 1.993 . S
Co137 O162 1.941 . S
C138 O139 1.258 . S
C138 O140 1.265 . S
O139 Co136 1.970 . S
O139 C138 1.258 . S
O140 Co137 1.979 . S
O140 C138 1.265 . S
C141 O142 1.235 . S
C141 O168 1.289 . S
O142 C141 1.235 . S
C143 C145 1.400 . S
C143 N146 1.351 1_655 S
C143 C148 1.501 . S
C144 C145 1.387 . S
C144 N147 1.341 1_655 S
C145 C143 1.400 . S
C145 C144 1.387 . S
N146 Co137 2.022 . S
N146 C143 1.351 1_455 S
N146 N147 1.365 . S
N147 C144 1.341 1_455 S
N147 N146 1.365 . S
N147 H167 0.862 . S
C148 C143 1.501 . S
C148 H149 0.961 . S
C148 H150 0.961 . S
C148 H151 0.960 . S
H149 C148 0.961 . S
H150 C148 0.961 . S
H151 C148 0.960 . S
C152 N153 1.342 . S
C152 C156 1.401 . S
C152 C157 1.499 . S
N153 Co136 1.989 . S
N153 C152 1.342 . S
N153 N154 1.388 . S
N154 Co137 1.993 . S
N154 N153 1.388 . S
N154 C155 1.346 . S
C155 N154 1.346 . S
C155 C156 1.396 . S
C155 C165 1.510 . S
C156 C152 1.401 . S
C156 C155 1.396 . S
C157 C152 1.499 . S
C157 H158 0.959 . S
C157 H159 0.960 . S
C157 H160 0.961 . S
H158 C157 0.959 . S
H159 C157 0.960 . S
H160 C157 0.961 . S
O161 Co136 1.967 . S
O161 C169 1.258 . S
O162 Co137 1.941 . S
O162 C169 1.266 . S
H163 C165 0.959 . S
H164 C165 0.961 . S
C165 C155 1.510 . S
C165 H163 0.959 . S
C165 H164 0.961 . S
C165 H166 0.960 . S
H166 C165 0.960 . S
H167 N147 0.862 . S
O168 Co136 1.920 . S
O168 C141 1.289 . S
C169 O161 1.258 . S
C169 O162 1.266 . S
Co170 O173 1.970 . S
Co170 N187 1.989 . S
Co170 O195 1.967 . S
Co170 O202 1.920 . S
Co171 O174 1.979 . S
Co171 N180 2.022 . S
Co171 N188 1.993 . S
Co171 O196 1.941 . S
C172 O173 1.258 . S
C172 O174 1.265 . S
O173 Co170 1.970 . S
O173 C172 1.258 . S
O174 Co171 1.979 . S
O174 C172 1.265 . S
C175 O176 1.235 . S
C175 O202 1.289 . S
O176 C175 1.235 . S
C177 C179 1.400 . S
C177 N180 1.351 1_565 S
C177 C182 1.501 . S
C178 C179 1.387 . S
C178 N181 1.341 1_565 S
C179 C177 1.400 . S
C179 C178 1.387 . S
N180 Co171 2.022 . S
N180 C177 1.351 1_545 S
N180 N181 1.365 . S
N181 C178 1.341 1_545 S
N181 N180 1.365 . S
N181 H201 0.862 . S
C182 C177 1.501 . S
C182 H183 0.961 . S
C182 H184 0.961 . S
C182 H185 0.960 . S
H183 C182 0.961 . S
H184 C182 0.961 . S
H185 C182 0.960 . S
C186 N187 1.342 . S
C186 C190 1.401 . S
C186 C191 1.499 . S
N187 Co170 1.989 . S
N187 C186 1.342 . S
N187 N188 1.388 . S
N188 Co171 1.993 . S
N188 N187 1.388 . S
N188 C189 1.346 . S
C189 N188 1.346 . S
C189 C190 1.396 . S
C189 C199 1.510 . S
C190 C186 1.401 . S
C190 C189 1.396 . S
C191 C186 1.499 . S
C191 H192 0.959 . S
C191 H193 0.960 . S
C191 H194 0.961 . S
H192 C191 0.959 . S
H193 C191 0.960 . S
H194 C191 0.961 . S
O195 Co170 1.967 . S
O195 C203 1.258 . S
O196 Co171 1.941 . S
O196 C203 1.266 . S
H197 C199 0.959 . S
H198 C199 0.961 . S
C199 C189 1.510 . S
C199 H197 0.959 . S
C199 H198 0.961 . S
C199 H200 0.960 . S
H200 C199 0.960 . S
H201 N181 0.862 . S
O202 Co170 1.920 . S
O202 C175 1.289 . S
C203 O195 1.258 . S
C203 O196 1.266 . S
Co204 O207 1.970 . S
Co204 N221 1.989 . S
Co204 O229 1.967 . S
Co204 O236 1.920 . S
Co205 O208 1.966 . S
Co205 N214 2.022 . S
Co205 N222 1.993 . S
Co205 O230 1.941 . S
C206 O207 1.258 . S
C206 O208 1.263 . S
O207 Co204 1.970 . S
O207 C206 1.258 . S
O208 Co205 1.966 . S
O208 C206 1.263 . S
C209 O210 1.235 . S
C209 O236 1.289 . S
O210 C209 1.235 . S
C211 C213 1.400 . S
C211 N214 1.351 . S
C211 C216 1.501 . S
C212 C213 1.387 . S
C212 N215 1.341 . S
C213 C211 1.400 . S
C213 C212 1.387 . S
N214 Co205 2.022 . S
N214 C211 1.351 . S
N214 N215 1.365 . S
N215 C212 1.341 . S
N215 N214 1.365 . S
N215 H235 0.862 . S
C216 C211 1.501 . S
C216 H217 0.961 . S
C216 H218 0.961 . S
C216 H219 0.960 . S
H217 C216 0.961 . S
H218 C216 0.961 . S
H219 C216 0.960 . S
C220 N221 1.342 . S
C220 C224 1.401 . S
C220 C225 1.499 . S
N221 Co204 1.989 . S
N221 C220 1.342 . S
N221 N222 1.388 . S
N222 Co205 1.993 . S
N222 N221 1.388 . S
N222 C223 1.346 . S
C223 N222 1.346 . S
C223 C224 1.396 . S
C223 C233 1.510 . S
C224 C220 1.401 . S
C224 C223 1.396 . S
C225 C220 1.499 . S
C225 H226 0.959 . S
C225 H227 0.960 . S
C225 H228 0.961 . S
H226 C225 0.959 . S
H227 C225 0.960 . S
H228 C225 0.961 . S
O229 Co204 1.967 . S
O229 C237 1.258 . S
O230 Co205 1.941 . S
O230 C237 1.266 . S
H231 C233 0.959 . S
H232 C233 0.961 . S
C233 C223 1.510 . S
C233 H231 0.959 . S
C233 H232 0.961 . S
C233 H234 0.960 . S
H234 C233 0.960 . S
H235 N215 0.862 . S
O236 Co204 1.920 . S
O236 C209 1.289 . S
C237 O229 1.258 . S
C237 O230 1.266 . S
Co238 O241 1.970 . S
Co238 N255 1.989 . S
Co238 O263 1.967 . S
Co238 O270 1.920 . S
Co239 O242 1.966 . S
Co239 N248 2.022 . S
Co239 N256 1.993 . S
Co239 O264 1.941 . S
C240 O241 1.258 . S
C240 O242 1.263 . S
O241 Co238 1.970 . S
O241 C240 1.258 . S
O242 Co239 1.966 . S
O242 C240 1.263 . S
C243 O244 1.235 . S
C243 O270 1.289 . S
O244 C243 1.235 . S
C245 C247 1.400 . S
C245 N248 1.351 . S
C245 C250 1.501 . S
C246 C247 1.387 . S
C246 N249 1.341 . S
C247 C245 1.400 . S
C247 C246 1.387 . S
N248 Co239 2.022 . S
N248 C245 1.351 . S
N248 N249 1.365 . S
N249 C246 1.341 . S
N249 N248 1.365 . S
N249 H269 0.862 . S
C250 C245 1.501 . S
C250 H251 0.961 . S
C250 H252 0.961 . S
C250 H253 0.960 . S
H251 C250 0.961 . S
H252 C250 0.961 . S
H253 C250 0.960 . S
C254 N255 1.342 . S
C254 C258 1.401 . S
C254 C259 1.499 . S
N255 Co238 1.989 . S
N255 C254 1.342 . S
N255 N256 1.388 . S
N256 Co239 1.993 . S
N256 N255 1.388 . S
N256 C257 1.346 . S
C257 N256 1.346 . S
C257 C258 1.396 . S
C257 C267 1.510 . S
C258 C254 1.401 . S
C258 C257 1.396 . S
C259 C254 1.499 . S
C259 H260 0.959 . S
C259 H261 0.960 . S
C259 H262 0.961 . S
H260 C259 0.959 . S
H261 C259 0.960 . S
H262 C259 0.961 . S
O263 Co238 1.967 . S
O263 C271 1.258 . S
O264 Co239 1.941 . S
O264 C271 1.266 . S
H265 C267 0.959 . S
H266 C267 0.961 . S
C267 C257 1.510 . S
C267 H265 0.959 . S
C267 H266 0.961 . S
C267 H268 0.960 . S
H268 C267 0.960 . S
H269 N249 0.862 . S
O270 Co238 1.920 . S
O270 C243 1.289 . S
C271 O263 1.258 . S
C271 O264 1.266 . S
Co272 O275 1.970 . S
Co272 N289 1.989 . S
Co272 O297 1.967 . S
Co272 O304 1.920 . S
Co273 O276 1.966 . S
Co273 N282 2.022 . S
Co273 N290 1.993 . S
Co273 O298 1.941 . S
C274 O275 1.258 . S
C274 O276 1.263 . S
O275 Co272 1.970 . S
O275 C274 1.258 . S
O276 Co273 1.966 . S
O276 C274 1.263 . S
C277 O278 1.235 . S
C277 O304 1.289 . S
O278 C277 1.235 . S
C279 C281 1.400 . S
C279 N282 1.351 . S
C279 C284 1.501 . S
C280 C281 1.387 . S
C280 N283 1.341 . S
C281 C279 1.400 . S
C281 C280 1.387 . S
N282 Co273 2.022 . S
N282 C279 1.351 . S
N282 N283 1.365 . S
N283 C280 1.341 . S
N283 N282 1.365 . S
N283 H303 0.862 . S
C284 C279 1.501 . S
C284 H285 0.961 . S
C284 H286 0.961 . S
C284 H287 0.960 . S
H285 C284 0.961 . S
H286 C284 0.961 . S
H287 C284 0.960 . S
C288 N289 1.342 . S
C288 C292 1.401 . S
C288 C293 1.499 . S
N289 Co272 1.989 . S
N289 C288 1.342 . S
N289 N290 1.388 . S
N290 Co273 1.993 . S
N290 N289 1.388 . S
N290 C291 1.346 . S
C291 N290 1.346 . S
C291 C292 1.396 . S
C291 C301 1.510 . S
C292 C288 1.401 . S
C292 C291 1.396 . S
C293 C288 1.499 . S
C293 H294 0.959 . S
C293 H295 0.960 . S
C293 H296 0.961 . S
H294 C293 0.959 . S
H295 C293 0.960 . S
H296 C293 0.961 . S
O297 Co272 1.967 . S
O297 C305 1.258 . S
O298 Co273 1.941 . S
O298 C305 1.266 . S
H299 C301 0.959 . S
H300 C301 0.961 . S
C301 C291 1.510 . S
C301 H299 0.959 . S
C301 H300 0.961 . S
C301 H302 0.960 . S
H302 C301 0.960 . S
H303 N283 0.862 . S
O304 Co272 1.920 . S
O304 C277 1.289 . S
C305 O297 1.258 . S
C305 O298 1.266 . S
Co306 O309 1.970 . S
Co306 N323 1.989 . S
Co306 O331 1.967 . S
Co306 O338 1.920 . S
Co307 O310 1.966 . S
Co307 N316 2.022 . S
Co307 N324 1.993 . S
Co307 O332 1.941 . S
C308 O309 1.258 . S
C308 O310 1.263 . S
O309 Co306 1.970 . S
O309 C308 1.258 . S
O310 Co307 1.966 . S
O310 C308 1.263 . S
C311 O312 1.235 . S
C311 O338 1.289 . S
O312 C311 1.235 . S
C313 C315 1.400 . S
C313 N316 1.351 . S
C313 C318 1.501 . S
C314 C315 1.387 . S
C314 N317 1.341 . S
C315 C313 1.400 . S
C315 C314 1.387 . S
N316 Co307 2.022 . S
N316 C313 1.351 . S
N316 N317 1.365 . S
N317 C314 1.341 . S
N317 N316 1.365 . S
N317 H337 0.862 . S
C318 C313 1.501 . S
C318 H319 0.961 . S
C318 H320 0.961 . S
C318 H321 0.960 . S
H319 C318 0.961 . S
H320 C318 0.961 . S
H321 C318 0.960 . S
C322 N323 1.342 . S
C322 C326 1.401 . S
C322 C327 1.499 . S
N323 Co306 1.989 . S
N323 C322 1.342 . S
N323 N324 1.388 . S
N324 Co307 1.993 . S
N324 N323 1.388 . S
N324 C325 1.346 . S
C325 N324 1.346 . S
C325 C326 1.396 . S
C325 C335 1.510 . S
C326 C322 1.401 . S
C326 C325 1.396 . S
C327 C322 1.499 . S
C327 H328 0.959 . S
C327 H329 0.960 . S
C327 H330 0.961 . S
H328 C327 0.959 . S
H329 C327 0.960 . S
H330 C327 0.961 . S
O331 Co306 1.967 . S
O331 C339 1.258 . S
O332 Co307 1.941 . S
O332 C339 1.266 . S
H333 C335 0.959 . S
H334 C335 0.961 . S
C335 C325 1.510 . S
C335 H333 0.959 . S
C335 H334 0.961 . S
C335 H336 0.960 . S
H336 C335 0.960 . S
H337 N317 0.862 . S
O338 Co306 1.920 . S
O338 C311 1.289 . S
C339 O331 1.258 . S
C339 O332 1.266 . S
Co340 O343 1.970 . S
Co340 N357 1.989 . S
Co340 O365 1.967 . S
Co340 O372 1.920 . S
Co341 O344 1.979 . S
Co341 N350 2.022 . S
Co341 N358 1.993 . S
Co341 O366 1.941 . S
C342 O343 1.258 . S
C342 O344 1.265 . S
O343 Co340 1.970 . S
O343 C342 1.258 . S
O344 Co341 1.979 . S
O344 C342 1.265 . S
C345 O346 1.235 . S
C345 O372 1.289 . S
O346 C345 1.235 . S
C347 C349 1.400 . S
C347 N350 1.351 1_655 S
C347 C352 1.501 . S
C348 C349 1.387 . S
C348 N351 1.341 1_655 S
C349 C347 1.400 . S
C349 C348 1.387 . S
N350 Co341 2.022 . S
N350 C347 1.351 1_455 S
N350 N351 1.365 . S
N351 C348 1.341 1_455 S
N351 N350 1.365 . S
N351 H371 0.862 . S
C352 C347 1.501 . S
C352 H353 0.961 . S
C352 H354 0.961 . S
C352 H355 0.960 . S
H353 C352 0.961 . S
H354 C352 0.961 . S
H355 C352 0.960 . S
C356 N357 1.342 . S
C356 C360 1.401 . S
C356 C361 1.499 . S
N357 Co340 1.989 . S
N357 C356 1.342 . S
N357 N358 1.388 . S
N358 Co341 1.993 . S
N358 N357 1.388 . S
N358 C359 1.346 . S
C359 N358 1.346 . S
C359 C360 1.396 . S
C359 C369 1.510 . S
C360 C356 1.401 . S
C360 C359 1.396 . S
C361 C356 1.499 . S
C361 H362 0.959 . S
C361 H363 0.960 . S
C361 H364 0.961 . S
H362 C361 0.959 . S
H363 C361 0.960 . S
H364 C361 0.961 . S
O365 Co340 1.967 . S
O365 C373 1.258 . S
O366 Co341 1.941 . S
O366 C373 1.266 . S
H367 C369 0.959 . S
H368 C369 0.961 . S
C369 C359 1.510 . S
C369 H367 0.959 . S
C369 H368 0.961 . S
C369 H370 0.960 . S
H370 C369 0.960 . S
H371 N351 0.862 . S
O372 Co340 1.920 . S
O372 C345 1.289 . S
C373 O365 1.258 . S
C373 O366 1.266 . S
Co374 O377 1.970 . S
Co374 N391 1.989 . S
Co374 O399 1.967 . S
Co374 O406 1.920 . S
Co375 O378 1.979 . S
Co375 N384 2.022 . S
Co375 N392 1.993 . S
Co375 O400 1.941 . S
C376 O377 1.258 . S
C376 O378 1.265 . S
O377 Co374 1.970 . S
O377 C376 1.258 . S
O378 Co375 1.979 . S
O378 C376 1.265 . S
C379 O380 1.235 . S
C379 O406 1.289 . S
O380 C379 1.235 . S
C381 C383 1.400 . S
C381 N384 1.351 1_565 S
C381 C386 1.501 . S
C382 C383 1.387 . S
C382 N385 1.341 1_565 S
C383 C381 1.400 . S
C383 C382 1.387 . S
N384 Co375 2.022 . S
N384 C381 1.351 1_545 S
N384 N385 1.365 . S
N385 C382 1.341 1_545 S
N385 N384 1.365 . S
N385 H405 0.862 . S
C386 C381 1.501 . S
C386 H387 0.961 . S
C386 H388 0.961 . S
C386 H389 0.960 . S
H387 C386 0.961 . S
H388 C386 0.961 . S
H389 C386 0.960 . S
C390 N391 1.342 . S
C390 C394 1.401 . S
C390 C395 1.499 . S
N391 Co374 1.989 . S
N391 C390 1.342 . S
N391 N392 1.388 . S
N392 Co375 1.993 . S
N392 N391 1.388 . S
N392 C393 1.346 . S
C393 N392 1.346 . S
C393 C394 1.396 . S
C393 C403 1.510 . S
C394 C390 1.401 . S
C394 C393 1.396 . S
C395 C390 1.499 . S
C395 H396 0.959 . S
C395 H397 0.960 . S
C395 H398 0.961 . S
H396 C395 0.959 . S
H397 C395 0.960 . S
H398 C395 0.961 . S
O399 Co374 1.967 . S
O399 C407 1.258 . S
O400 Co375 1.941 . S
O400 C407 1.266 . S
H401 C403 0.959 . S
H402 C403 0.961 . S
C403 C393 1.510 . S
C403 H401 0.959 . S
C403 H402 0.961 . S
C403 H404 0.960 . S
H404 C403 0.960 . S
H405 N385 0.862 . S
O406 Co374 1.920 . S
O406 C379 1.289 . S
C407 O399 1.258 . S
C407 O400 1.266 . S
Co408 O411 1.970 . S
Co408 N425 1.989 . S
Co408 O433 1.967 . S
Co408 O440 1.920 . S
Co409 O412 1.979 . S
Co409 N418 2.022 . S
Co409 N426 1.993 . S
Co409 O434 1.941 . S
C410 O411 1.258 . S
C410 O412 1.265 . S
O411 Co408 1.970 . S
O411 C410 1.258 . S
O412 Co409 1.979 . S
O412 C410 1.265 . S
C413 O414 1.235 . S
C413 O440 1.289 . S
O414 C413 1.235 . S
C415 C417 1.400 . S
C415 N418 1.351 1_455 S
C415 C420 1.501 . S
C416 C417 1.387 . S
C416 N419 1.341 1_455 S
C417 C415 1.400 . S
C417 C416 1.387 . S
N418 Co409 2.022 . S
N418 C415 1.351 1_655 S
N418 N419 1.365 . S
N419 C416 1.341 1_655 S
N419 N418 1.365 . S
N419 H439 0.862 . S
C420 C415 1.501 . S
C420 H421 0.961 . S
C420 H422 0.961 . S
C420 H423 0.960 . S
H421 C420 0.961 . S
H422 C420 0.961 . S
H423 C420 0.960 . S
C424 N425 1.342 . S
C424 C428 1.401 . S
C424 C429 1.499 . S
N425 Co408 1.989 . S
N425 C424 1.342 . S
N425 N426 1.388 . S
N426 Co409 1.993 . S
N426 N425 1.388 . S
N426 C427 1.346 . S
C427 N426 1.346 . S
C427 C428 1.396 . S
C427 C437 1.510 . S
C428 C424 1.401 . S
C428 C427 1.396 . S
C429 C424 1.499 . S
C429 H430 0.959 . S
C429 H431 0.960 . S
C429 H432 0.961 . S
H430 C429 0.959 . S
H431 C429 0.960 . S
H432 C429 0.961 . S
O433 Co408 1.967 . S
O433 C441 1.258 . S
O434 Co409 1.941 . S
O434 C441 1.266 . S
H435 C437 0.959 . S
H436 C437 0.961 . S
C437 C427 1.510 . S
C437 H435 0.959 . S
C437 H436 0.961 . S
C437 H438 0.960 . S
H438 C437 0.960 . S
H439 N419 0.862 . S
O440 Co408 1.920 . S
O440 C413 1.289 . S
C441 O433 1.258 . S
C441 O434 1.266 . S
Co442 O445 1.970 . S
Co442 N459 1.989 . S
Co442 O467 1.967 . S
Co442 O474 1.920 . S
Co443 O446 1.979 . S
Co443 N452 2.022 . S
Co443 N460 1.993 . S
Co443 O468 1.941 . S
C444 O445 1.258 . S
C444 O446 1.265 . S
O445 Co442 1.970 . S
O445 C444 1.258 . S
O446 Co443 1.979 . S
O446 C444 1.265 . S
C447 O448 1.235 . S
C447 O474 1.289 . S
O448 C447 1.235 . S
C449 C451 1.400 . S
C449 N452 1.351 1_545 S
C449 C454 1.501 . S
C450 C451 1.387 . S
C450 N453 1.341 1_545 S
C451 C449 1.400 . S
C451 C450 1.387 . S
N452 Co443 2.022 . S
N452 C449 1.351 1_565 S
N452 N453 1.365 . S
N453 C450 1.341 1_565 S
N453 N452 1.365 . S
N453 H473 0.862 . S
C454 C449 1.501 . S
C454 H455 0.961 . S
C454 H456 0.961 . S
C454 H457 0.960 . S
H455 C454 0.961 . S
H456 C454 0.961 . S
H457 C454 0.960 . S
C458 N459 1.342 . S
C458 C462 1.401 . S
C458 C463 1.499 . S
N459 Co442 1.989 . S
N459 C458 1.342 . S
N459 N460 1.388 . S
N460 Co443 1.993 . S
N460 N459 1.388 . S
N460 C461 1.346 . S
C461 N460 1.346 . S
C461 C462 1.396 . S
C461 C471 1.510 . S
C462 C458 1.401 . S
C462 C461 1.396 . S
C463 C458 1.499 . S
C463 H464 0.959 . S
C463 H465 0.960 . S
C463 H466 0.961 . S
H464 C463 0.959 . S
H465 C463 0.960 . S
H466 C463 0.961 . S
O467 Co442 1.967 . S
O467 C475 1.258 . S
O468 Co443 1.941 . S
O468 C475 1.266 . S
H469 C471 0.959 . S
H470 C471 0.961 . S
C471 C461 1.510 . S
C471 H469 0.959 . S
C471 H470 0.961 . S
C471 H472 0.960 . S
H472 C471 0.960 . S
H473 N453 0.862 . S
O474 Co442 1.920 . S
O474 C447 1.289 . S
C475 O467 1.258 . S
C475 O468 1.266 . S
Co476 O479 1.970 . S
Co476 N493 1.989 . S
Co476 O501 1.967 . S
Co476 O508 1.920 . S
Co477 O480 1.966 . S
Co477 N486 2.022 . S
Co477 N494 1.993 . S
Co477 O502 1.941 . S
C478 O479 1.258 . S
C478 O480 1.263 . S
O479 Co476 1.970 . S
O479 C478 1.258 . S
O480 Co477 1.966 . S
O480 C478 1.263 . S
C481 O482 1.235 . S
C481 O508 1.289 . S
O482 C481 1.235 . S
C483 C485 1.400 . S
C483 N486 1.351 . S
C483 C488 1.501 . S
C484 C485 1.387 . S
C484 N487 1.341 . S
C485 C483 1.400 . S
C485 C484 1.387 . S
N486 Co477 2.022 . S
N486 C483 1.351 . S
N486 N487 1.365 . S
N487 C484 1.341 . S
N487 N486 1.365 . S
N487 H507 0.862 . S
C488 C483 1.501 . S
C488 H489 0.961 . S
C488 H490 0.961 . S
C488 H491 0.960 . S
H489 C488 0.961 . S
H490 C488 0.961 . S
H491 C488 0.960 . S
C492 N493 1.342 . S
C492 C496 1.401 . S
C492 C497 1.499 . S
N493 Co476 1.989 . S
N493 C492 1.342 . S
N493 N494 1.388 . S
N494 Co477 1.993 . S
N494 N493 1.388 . S
N494 C495 1.346 . S
C495 N494 1.346 . S
C495 C496 1.396 . S
C495 C505 1.510 . S
C496 C492 1.401 . S
C496 C495 1.396 . S
C497 C492 1.499 . S
C497 H498 0.959 . S
C497 H499 0.960 . S
C497 H500 0.961 . S
H498 C497 0.959 . S
H499 C497 0.960 . S
H500 C497 0.961 . S
O501 Co476 1.967 . S
O501 C509 1.258 . S
O502 Co477 1.941 . S
O502 C509 1.266 . S
H503 C505 0.959 . S
H504 C505 0.961 . S
C505 C495 1.510 . S
C505 H503 0.959 . S
C505 H504 0.961 . S
C505 H506 0.960 . S
H506 C505 0.960 . S
H507 N487 0.862 . S
O508 Co476 1.920 . S
O508 C481 1.289 . S
C509 O501 1.258 . S
C509 O502 1.266 . S
Co510 O513 1.970 . S
Co510 N527 1.989 . S
Co510 O535 1.967 . S
Co510 O542 1.920 . S
Co511 O514 1.966 . S
Co511 N520 2.022 . S
Co511 N528 1.993 . S
Co511 O536 1.941 . S
C512 O513 1.258 . S
C512 O514 1.263 . S
O513 Co510 1.970 . S
O513 C512 1.258 . S
O514 Co511 1.966 . S
O514 C512 1.263 . S
C515 O516 1.235 . S
C515 O542 1.289 . S
O516 C515 1.235 . S
C517 C519 1.400 . S
C517 N520 1.351 . S
C517 C522 1.501 . S
C518 C519 1.387 . S
C518 N521 1.341 . S
C519 C517 1.400 . S
C519 C518 1.387 . S
N520 Co511 2.022 . S
N520 C517 1.351 . S
N520 N521 1.365 . S
N521 C518 1.341 . S
N521 N520 1.365 . S
N521 H541 0.862 . S
C522 C517 1.501 . S
C522 H523 0.961 . S
C522 H524 0.961 . S
C522 H525 0.960 . S
H523 C522 0.961 . S
H524 C522 0.961 . S
H525 C522 0.960 . S
C526 N527 1.342 . S
C526 C530 1.401 . S
C526 C531 1.499 . S
N527 Co510 1.989 . S
N527 C526 1.342 . S
N527 N528 1.388 . S
N528 Co511 1.993 . S
N528 N527 1.388 . S
N528 C529 1.346 . S
C529 N528 1.346 . S
C529 C530 1.396 . S
C529 C539 1.510 . S
C530 C526 1.401 . S
C530 C529 1.396 . S
C531 C526 1.499 . S
C531 H532 0.959 . S
C531 H533 0.960 . S
C531 H534 0.961 . S
H532 C531 0.959 . S
H533 C531 0.960 . S
H534 C531 0.961 . S
O535 Co510 1.967 . S
O535 C543 1.258 . S
O536 Co511 1.941 . S
O536 C543 1.266 . S
H537 C539 0.959 . S
H538 C539 0.961 . S
C539 C529 1.510 . S
C539 H537 0.959 . S
C539 H538 0.961 . S
C539 H540 0.960 . S
H540 C539 0.960 . S
H541 N521 0.862 . S
O542 Co510 1.920 . S
O542 C515 1.289 . S
C543 O535 1.258 . S
C543 O536 1.266 . S
H544 C562 0.951 . S
H545 C564 0.951 . S
H546 C566 0.950 . S
H547 C567 0.950 . S
H548 C569 0.950 . S
H549 C572 0.950 . S
H550 C573 0.950 . S
H551 C575 0.950 . S
H552 C576 0.950 . S
H553 C577 0.951 . S
H554 C579 0.951 . S
H555 C581 0.950 . S
H556 C582 0.950 . S
H557 C584 0.950 . S
H558 C587 0.950 . S
H559 C588 0.950 . S
H560 C590 0.950 . S
H561 C591 0.950 . S
C562 H544 0.951 . S
C562 C563 1.366 . S
C562 C564 1.388 . S
C563 C562 1.366 . S
C563 C567 1.385 . S
C564 H545 0.951 . S
C564 C562 1.388 . S
C564 C565 1.366 . S
C565 C564 1.366 . S
C565 C566 1.414 . S
C565 C568 1.499 . S
C566 H546 0.950 . S
C566 C565 1.414 . S
C566 C567 1.374 . S
C567 H547 0.950 . S
C567 C563 1.385 . S
C567 C566 1.374 . S
C568 C565 1.499 . S
C568 C569 1.373 . S
C568 C570 1.389 . S
C569 H548 0.950 . S
C569 C568 1.373 . S
C569 C585 1.377 . S
C570 C568 1.389 . S
C570 C571 1.524 . S
C570 C584 1.377 . S
C571 C570 1.524 . S
C571 C572 1.397 . S
C571 C576 1.363 . S
C572 H549 0.950 . S
C572 C571 1.397 . S
C572 C573 1.334 . S
C573 H550 0.950 . S
C573 C572 1.334 . S
C573 C574 1.287 . S
C574 C573 1.287 . S
C574 C575 1.524 . S
C574 H593 0.913 . S
C575 H551 0.950 . S
C575 C574 1.524 . S
C575 C576 1.415 . S
C576 H552 0.950 . S
C576 C571 1.363 . S
C576 C575 1.415 . S
C577 H553 0.951 . S
C577 C578 1.366 . S
C577 C579 1.388 . S
C578 C577 1.366 . S
C578 C582 1.385 . S
C579 H554 0.951 . S
C579 C577 1.388 . S
C579 C580 1.366 . S
C580 C579 1.366 . S
C580 C581 1.414 . S
C580 C583 1.499 . S
C581 H555 0.950 . S
C581 C580 1.414 . S
C581 C582 1.374 . S
C582 H556 0.950 . S
C582 C578 1.385 . S
C582 C581 1.374 . S
C583 C580 1.499 . S
C583 C584 1.373 . S
C583 C585 1.389 . S
C584 H557 0.950 . S
C584 C570 1.377 . S
C584 C583 1.373 . S
C585 C569 1.377 . S
C585 C583 1.389 . S
C585 C586 1.524 . S
C586 C585 1.524 . S
C586 C587 1.397 . S
C586 C591 1.363 . S
C587 H558 0.950 . S
C587 C586 1.397 . S
C587 C588 1.334 . S
C588 H559 0.950 . S
C588 C587 1.334 . S
C588 C589 1.287 . S
C589 C588 1.287 . S
C589 C590 1.524 . S
C589 H592 0.999 . S
C590 H560 0.950 . S
C590 C589 1.524 . S
C590 C591 1.415 . S
C591 H561 0.950 . S
C591 C586 1.363 . S
C591 C590 1.415 . S
H592 C589 0.999 . S
H593 C574 0.913 . S
H594 C612 0.951 . S
H595 C614 0.951 . S
H596 C616 0.950 . S
H597 C617 0.950 . S
H598 C619 0.950 . S
H599 C622 0.950 . S
H600 C623 0.950 . S
H601 C625 0.950 . S
H602 C626 0.950 . S
H603 C627 0.951 . S
H604 C629 0.951 . S
H605 C631 0.950 . S
H606 C632 0.950 . S
H607 C634 0.950 . S
H608 C637 0.950 . S
H609 C638 0.950 . S
H610 C640 0.950 . S
H611 C641 0.950 . S
C612 H594 0.951 . S
C612 C613 1.366 . S
C612 C614 1.388 . S
C613 C612 1.366 . S
C613 C617 1.385 . S
C614 H595 0.951 . S
C614 C612 1.388 . S
C614 C615 1.366 . S
C615 C614 1.366 . S
C615 C616 1.414 . S
C615 C618 1.499 . S
C616 H596 0.950 . S
C616 C615 1.414 . S
C616 C617 1.374 . S
C617 H597 0.950 . S
C617 C613 1.385 . S
C617 C616 1.374 . S
C618 C615 1.499 . S
C618 C619 1.373 . S
C618 C620 1.389 . S
C619 H598 0.950 . S
C619 C618 1.373 . S
C619 C635 1.377 . S
C620 C618 1.389 . S
C620 C621 1.524 . S
C620 C634 1.377 . S
C621 C620 1.524 . S
C621 C622 1.397 . S
C621 C626 1.363 . S
C622 H599 0.950 . S
C622 C621 1.397 . S
C622 C623 1.334 . S
C623 H600 0.950 . S
C623 C622 1.334 . S
C623 C624 1.287 . S
C624 C623 1.287 . S
C624 C625 1.524 . S
C624 H643 0.913 . S
C625 H601 0.950 . S
C625 C624 1.524 . S
C625 C626 1.415 . S
C626 H602 0.950 . S
C626 C621 1.363 . S
C626 C625 1.415 . S
C627 H603 0.951 . S
C627 C628 1.366 . S
C627 C629 1.388 . S
C628 C627 1.366 . S
C628 C632 1.385 . S
C629 H604 0.951 . S
C629 C627 1.388 . S
C629 C630 1.366 . S
C630 C629 1.366 . S
C630 C631 1.414 . S
C630 C633 1.499 . S
C631 H605 0.950 . S
C631 C630 1.414 . S
C631 C632 1.374 . S
C632 H606 0.950 . S
C632 C628 1.385 . S
C632 C631 1.374 . S
C633 C630 1.499 . S
C633 C634 1.373 . S
C633 C635 1.389 . S
C634 H607 0.950 . S
C634 C620 1.377 . S
C634 C633 1.373 . S
C635 C619 1.377 . S
C635 C633 1.389 . S
C635 C636 1.524 . S
C636 C635 1.524 . S
C636 C637 1.397 . S
C636 C641 1.363 . S
C637 H608 0.950 . S
C637 C636 1.397 . S
C637 C638 1.334 . S
C638 H609 0.950 . S
C638 C637 1.334 . S
C638 C639 1.287 . S
C639 C638 1.287 . S
C639 C640 1.524 . S
C639 H642 0.999 . S
C640 H610 0.950 . S
C640 C639 1.524 . S
C640 C641 1.415 . S
C641 H611 0.950 . S
C641 C636 1.363 . S
C641 C640 1.415 . S
H642 C639 0.999 . S
H643 C624 0.913 . S
H644 C662 0.951 . S
H645 C664 0.951 . S
H646 C666 0.950 . S
H647 C667 0.950 . S
H648 C669 0.950 . S
H649 C672 0.950 . S
H650 C673 0.950 . S
H651 C675 0.950 . S
H652 C676 0.950 . S
H653 C677 0.951 . S
H654 C679 0.951 . S
H655 C681 0.950 . S
H656 C682 0.950 . S
H657 C684 0.950 . S
H658 C687 0.950 . S
H659 C688 0.950 . S
H660 C690 0.950 . S
H661 C691 0.950 . S
C662 H644 0.951 . S
C662 C663 1.366 . S
C662 C664 1.388 . S
C663 C662 1.366 . S
C663 C667 1.385 . S
C664 H645 0.951 . S
C664 C662 1.388 . S
C664 C665 1.366 . S
C665 C664 1.366 . S
C665 C666 1.414 . S
C665 C668 1.499 . S
C666 H646 0.950 . S
C666 C665 1.414 . S
C666 C667 1.374 . S
C667 H647 0.950 . S
C667 C663 1.385 . S
C667 C666 1.374 . S
C668 C665 1.499 . S
C668 C669 1.373 . S
C668 C670 1.389 . S
C669 H648 0.950 . S
C669 C668 1.373 . S
C669 C685 1.377 . S
C670 C668 1.389 . S
C670 C671 1.524 . S
C670 C684 1.377 . S
C671 C670 1.524 . S
C671 C672 1.397 . S
C671 C676 1.363 . S
C672 H649 0.950 . S
C672 C671 1.397 . S
C672 C673 1.334 . S
C673 H650 0.950 . S
C673 C672 1.334 . S
C673 C674 1.287 . S
C674 C673 1.287 . S
C674 C675 1.524 . S
C674 H693 0.913 . S
C675 H651 0.950 . S
C675 C674 1.524 . S
C675 C676 1.415 . S
C676 H652 0.950 . S
C676 C671 1.363 . S
C676 C675 1.415 . S
C677 H653 0.951 . S
C677 C678 1.366 . S
C677 C679 1.388 . S
C678 C677 1.366 . S
C678 C682 1.385 . S
C679 H654 0.951 . S
C679 C677 1.388 . S
C679 C680 1.366 . S
C680 C679 1.366 . S
C680 C681 1.414 . S
C680 C683 1.499 . S
C681 H655 0.950 . S
C681 C680 1.414 . S
C681 C682 1.374 . S
C682 H656 0.950 . S
C682 C678 1.385 . S
C682 C681 1.374 . S
C683 C680 1.499 . S
C683 C684 1.373 . S
C683 C685 1.389 . S
C684 H657 0.950 . S
C684 C670 1.377 . S
C684 C683 1.373 . S
C685 C669 1.377 . S
C685 C683 1.389 . S
C685 C686 1.524 . S
C686 C685 1.524 . S
C686 C687 1.397 . S
C686 C691 1.363 . S
C687 H658 0.950 . S
C687 C686 1.397 . S
C687 C688 1.334 . S
C688 H659 0.950 . S
C688 C687 1.334 . S
C688 C689 1.287 . S
C689 C688 1.287 . S
C689 C690 1.524 . S
C689 H692 0.999 . S
C690 H660 0.950 . S
C690 C689 1.524 . S
C690 C691 1.415 . S
C691 H661 0.950 . S
C691 C686 1.363 . S
C691 C690 1.415 . S
H692 C689 0.999 . S
H693 C674 0.913 . S
H694 C712 0.951 . S
H695 C714 0.951 . S
H696 C716 0.950 . S
H697 C717 0.950 . S
H698 C719 0.950 . S
H699 C722 0.950 . S
H700 C723 0.950 . S
H701 C725 0.950 . S
H702 C726 0.950 . S
H703 C727 0.951 . S
H704 C729 0.951 . S
H705 C731 0.950 . S
H706 C732 0.950 . S
H707 C734 0.950 . S
H708 C737 0.950 . S
H709 C738 0.950 . S
H710 C740 0.950 . S
H711 C741 0.950 . S
C712 H694 0.951 . S
C712 C713 1.366 . S
C712 C714 1.388 . S
C713 C712 1.366 . S
C713 C717 1.385 . S
C714 H695 0.951 . S
C714 C712 1.388 . S
C714 C715 1.366 . S
C715 C714 1.366 . S
C715 C716 1.414 . S
C715 C718 1.499 . S
C716 H696 0.950 . S
C716 C715 1.414 . S
C716 C717 1.374 . S
C717 H697 0.950 . S
C717 C713 1.385 . S
C717 C716 1.374 . S
C718 C715 1.499 . S
C718 C719 1.373 . S
C718 C720 1.389 . S
C719 H698 0.950 . S
C719 C718 1.373 . S
C719 C735 1.377 . S
C720 C718 1.389 . S
C720 C721 1.524 . S
C720 C734 1.377 . S
C721 C720 1.524 . S
C721 C722 1.397 . S
C721 C726 1.363 . S
C722 H699 0.950 . S
C722 C721 1.397 . S
C722 C723 1.334 . S
C723 H700 0.950 . S
C723 C722 1.334 . S
C723 C724 1.287 . S
C724 C723 1.287 . S
C724 C725 1.524 . S
C724 H743 0.913 1_545 S
C725 H701 0.950 . S
C725 C724 1.524 . S
C725 C726 1.415 . S
C726 H702 0.950 . S
C726 C721 1.363 . S
C726 C725 1.415 . S
C727 H703 0.951 . S
C727 C728 1.366 . S
C727 C729 1.388 . S
C728 C727 1.366 . S
C728 C732 1.385 . S
C729 H704 0.951 . S
C729 C727 1.388 . S
C729 C730 1.366 . S
C730 C729 1.366 . S
C730 C731 1.414 . S
C730 C733 1.499 . S
C731 H705 0.950 . S
C731 C730 1.414 . S
C731 C732 1.374 . S
C732 H706 0.950 . S
C732 C728 1.385 . S
C732 C731 1.374 . S
C733 C730 1.499 . S
C733 C734 1.373 . S
C733 C735 1.389 . S
C734 H707 0.950 . S
C734 C720 1.377 . S
C734 C733 1.373 . S
C735 C719 1.377 . S
C735 C733 1.389 . S
C735 C736 1.524 . S
C736 C735 1.524 . S
C736 C737 1.397 . S
C736 C741 1.363 . S
C737 H708 0.950 . S
C737 C736 1.397 . S
C737 C738 1.334 . S
C738 H709 0.950 . S
C738 C737 1.334 . S
C738 C739 1.287 . S
C739 C738 1.287 . S
C739 C740 1.524 . S
C739 H742 0.999 . S
C740 H710 0.950 . S
C740 C739 1.524 . S
C740 C741 1.415 . S
C741 H711 0.950 . S
C741 C736 1.363 . S
C741 C740 1.415 . S
H742 C739 0.999 . S
H743 C724 0.913 1_565 S
H744 C762 0.951 . S
H745 C764 0.951 . S
H746 C766 0.950 . S
H747 C767 0.950 . S
H748 C769 0.950 . S
H749 C772 0.950 . S
H750 C773 0.950 . S
H751 C775 0.950 . S
H752 C776 0.950 . S
H753 C777 0.951 . S
H754 C779 0.951 . S
H755 C781 0.950 . S
H756 C782 0.950 . S
H757 C784 0.950 . S
H758 C787 0.950 . S
H759 C788 0.950 . S
H760 C790 0.950 . S
H761 C791 0.950 . S
C762 H744 0.951 . S
C762 C763 1.366 . S
C762 C764 1.388 . S
C763 C762 1.366 . S
C763 C767 1.385 . S
C764 H745 0.951 . S
C764 C762 1.388 . S
C764 C765 1.366 . S
C765 C764 1.366 . S
C765 C766 1.414 . S
C765 C768 1.499 . S
C766 H746 0.950 . S
C766 C765 1.414 . S
C766 C767 1.374 . S
C767 H747 0.950 . S
C767 C763 1.385 . S
C767 C766 1.374 . S
C768 C765 1.499 . S
C768 C769 1.373 . S
C768 C770 1.389 . S
C769 H748 0.950 . S
C769 C768 1.373 . S
C769 C785 1.377 . S
C770 C768 1.389 . S
C770 C771 1.524 . S
C770 C784 1.377 . S
C771 C770 1.524 . S
C771 C772 1.397 . S
C771 C776 1.363 . S
C772 H749 0.950 . S
C772 C771 1.397 . S
C772 C773 1.334 . S
C773 H750 0.950 . S
C773 C772 1.334 . S
C773 C774 1.287 . S
C774 C773 1.287 . S
C774 C775 1.524 . S
C774 H793 0.913 . S
C775 H751 0.950 . S
C775 C774 1.524 . S
C775 C776 1.415 . S
C776 H752 0.950 . S
C776 C771 1.363 . S
C776 C775 1.415 . S
C777 H753 0.951 . S
C777 C778 1.366 . S
C777 C779 1.388 . S
C778 C777 1.366 . S
C778 C782 1.385 . S
C779 H754 0.951 . S
C779 C777 1.388 . S
C779 C780 1.366 . S
C780 C779 1.366 . S
C780 C781 1.414 . S
C780 C783 1.499 . S
C781 H755 0.950 . S
C781 C780 1.414 . S
C781 C782 1.374 . S
C782 H756 0.950 . S
C782 C778 1.385 . S
C782 C781 1.374 . S
C783 C780 1.499 . S
C783 C784 1.373 . S
C783 C785 1.389 . S
C784 H757 0.950 . S
C784 C770 1.377 . S
C784 C783 1.373 . S
C785 C769 1.377 . S
C785 C783 1.389 . S
C785 C786 1.524 . S
C786 C785 1.524 . S
C786 C787 1.397 . S
C786 C791 1.363 . S
C787 H758 0.950 . S
C787 C786 1.397 . S
C787 C788 1.334 . S
C788 H759 0.950 . S
C788 C787 1.334 . S
C788 C789 1.287 . S
C789 C788 1.287 . S
C789 C790 1.524 . S
C789 H792 0.999 . S
C790 H760 0.950 . S
C790 C789 1.524 . S
C790 C791 1.415 . S
C791 H761 0.950 . S
C791 C786 1.363 . S
C791 C790 1.415 . S
H792 C789 0.999 . S
H793 C774 0.913 . S
H794 C812 0.951 . S
H795 C814 0.951 . S
H796 C816 0.950 . S
H797 C817 0.950 . S
H798 C819 0.950 . S
H799 C822 0.950 . S
H800 C823 0.950 . S
H801 C825 0.950 . S
H802 C826 0.950 . S
H803 C827 0.951 . S
H804 C829 0.951 . S
H805 C831 0.950 . S
H806 C832 0.950 . S
H807 C834 0.950 . S
H808 C837 0.950 . S
H809 C838 0.950 . S
H810 C840 0.950 . S
H811 C841 0.950 . S
C812 H794 0.951 . S
C812 C813 1.366 . S
C812 C814 1.388 . S
C813 C812 1.366 . S
C813 C817 1.385 . S
C814 H795 0.951 . S
C814 C812 1.388 . S
C814 C815 1.366 . S
C815 C814 1.366 . S
C815 C816 1.414 . S
C815 C818 1.499 . S
C816 H796 0.950 . S
C816 C815 1.414 . S
C816 C817 1.374 . S
C817 H797 0.950 . S
C817 C813 1.385 . S
C817 C816 1.374 . S
C818 C815 1.499 . S
C818 C819 1.373 . S
C818 C820 1.389 . S
C819 H798 0.950 . S
C819 C818 1.373 . S
C819 C835 1.377 . S
C820 C818 1.389 . S
C820 C821 1.524 . S
C820 C834 1.377 . S
C821 C820 1.524 . S
C821 C822 1.397 . S
C821 C826 1.363 . S
C822 H799 0.950 . S
C822 C821 1.397 . S
C822 C823 1.334 . S
C823 H800 0.950 . S
C823 C822 1.334 . S
C823 C824 1.287 . S
C824 C823 1.287 . S
C824 C825 1.524 . S
C824 H843 0.913 . S
C825 H801 0.950 . S
C825 C824 1.524 . S
C825 C826 1.415 . S
C826 H802 0.950 . S
C826 C821 1.363 . S
C826 C825 1.415 . S
C827 H803 0.951 . S
C827 C828 1.366 . S
C827 C829 1.388 . S
C828 C827 1.366 . S
C828 C832 1.385 . S
C829 H804 0.951 . S
C829 C827 1.388 . S
C829 C830 1.366 . S
C830 C829 1.366 . S
C830 C831 1.414 . S
C830 C833 1.499 . S
C831 H805 0.950 . S
C831 C830 1.414 . S
C831 C832 1.374 . S
C832 H806 0.950 . S
C832 C828 1.385 . S
C832 C831 1.374 . S
C833 C830 1.499 . S
C833 C834 1.373 . S
C833 C835 1.389 . S
C834 H807 0.950 . S
C834 C820 1.377 . S
C834 C833 1.373 . S
C835 C819 1.377 . S
C835 C833 1.389 . S
C835 C836 1.524 . S
C836 C835 1.524 . S
C836 C837 1.397 . S
C836 C841 1.363 . S
C837 H808 0.950 . S
C837 C836 1.397 . S
C837 C838 1.334 . S
C838 H809 0.950 . S
C838 C837 1.334 . S
C838 C839 1.287 . S
C839 C838 1.287 . S
C839 C840 1.524 . S
C839 H842 0.999 1_565 S
C840 H810 0.950 . S
C840 C839 1.524 . S
C840 C841 1.415 . S
C841 H811 0.950 . S
C841 C836 1.363 . S
C841 C840 1.415 . S
H842 C839 0.999 1_545 S
H843 C824 0.913 . S
H844 C862 0.951 . S
H845 C864 0.951 . S
H846 C866 0.950 . S
H847 C867 0.950 . S
H848 C869 0.950 . S
H849 C872 0.950 . S
H850 C873 0.950 . S
H851 C875 0.950 . S
H852 C876 0.950 . S
H853 C877 0.951 . S
H854 C879 0.951 . S
H855 C881 0.950 . S
H856 C882 0.950 . S
H857 C884 0.950 . S
H858 C887 0.950 . S
H859 C888 0.950 . S
H860 C890 0.950 . S
H861 C891 0.950 . S
C862 H844 0.951 . S
C862 C863 1.366 . S
C862 C864 1.388 . S
C863 C862 1.366 . S
C863 C867 1.385 . S
C864 H845 0.951 . S
C864 C862 1.388 . S
C864 C865 1.366 . S
C865 C864 1.366 . S
C865 C866 1.414 . S
C865 C868 1.499 . S
C866 H846 0.950 . S
C866 C865 1.414 . S
C866 C867 1.374 . S
C867 H847 0.950 . S
C867 C863 1.385 . S
C867 C866 1.374 . S
C868 C865 1.499 . S
C868 C869 1.373 . S
C868 C870 1.389 . S
C869 H848 0.950 . S
C869 C868 1.373 . S
C869 C885 1.377 . S
C870 C868 1.389 . S
C870 C871 1.524 . S
C870 C884 1.377 . S
C871 C870 1.524 . S
C871 C872 1.397 . S
C871 C876 1.363 . S
C872 H849 0.950 . S
C872 C871 1.397 . S
C872 C873 1.334 . S
C873 H850 0.950 . S
C873 C872 1.334 . S
C873 C874 1.287 . S
C874 C873 1.287 . S
C874 C875 1.524 . S
C874 H893 0.913 . S
C875 H851 0.950 . S
C875 C874 1.524 . S
C875 C876 1.415 . S
C876 H852 0.950 . S
C876 C871 1.363 . S
C876 C875 1.415 . S
C877 H853 0.951 . S
C877 C878 1.366 . S
C877 C879 1.388 . S
C878 C877 1.366 . S
C878 C882 1.385 . S
C879 H854 0.951 . S
C879 C877 1.388 . S
C879 C880 1.366 . S
C880 C879 1.366 . S
C880 C881 1.414 . S
C880 C883 1.499 . S
C881 H855 0.950 . S
C881 C880 1.414 . S
C881 C882 1.374 . S
C882 H856 0.950 . S
C882 C878 1.385 . S
C882 C881 1.374 . S
C883 C880 1.499 . S
C883 C884 1.373 . S
C883 C885 1.389 . S
C884 H857 0.950 . S
C884 C870 1.377 . S
C884 C883 1.373 . S
C885 C869 1.377 . S
C885 C883 1.389 . S
C885 C886 1.524 . S
C886 C885 1.524 . S
C886 C887 1.397 . S
C886 C891 1.363 . S
C887 H858 0.950 . S
C887 C886 1.397 . S
C887 C888 1.334 . S
C888 H859 0.950 . S
C888 C887 1.334 . S
C888 C889 1.287 . S
C889 C888 1.287 . S
C889 C890 1.524 . S
C889 H892 0.999 . S
C890 H860 0.950 . S
C890 C889 1.524 . S
C890 C891 1.415 . S
C891 H861 0.950 . S
C891 C886 1.363 . S
C891 C890 1.415 . S
H892 C889 0.999 . S
H893 C874 0.913 . S
H894 C912 0.951 . S
H895 C914 0.951 . S
H896 C916 0.950 . S
H897 C917 0.950 . S
H898 C919 0.950 . S
H899 C922 0.950 . S
H900 C923 0.950 . S
H901 C925 0.950 . S
H902 C926 0.950 . S
H903 C927 0.951 . S
H904 C929 0.951 . S
H905 C931 0.950 . S
H906 C932 0.950 . S
H907 C934 0.950 . S
H908 C937 0.950 . S
H909 C938 0.950 . S
H910 C940 0.950 . S
H911 C941 0.950 . S
C912 H894 0.951 . S
C912 C913 1.366 . S
C912 C914 1.388 . S
C913 C912 1.366 . S
C913 C917 1.385 . S
C914 H895 0.951 . S
C914 C912 1.388 . S
C914 C915 1.366 . S
C915 C914 1.366 . S
C915 C916 1.414 . S
C915 C918 1.499 . S
C916 H896 0.950 . S
C916 C915 1.414 . S
C916 C917 1.374 . S
C917 H897 0.950 . S
C917 C913 1.385 . S
C917 C916 1.374 . S
C918 C915 1.499 . S
C918 C919 1.373 . S
C918 C920 1.389 . S
C919 H898 0.950 . S
C919 C918 1.373 . S
C919 C935 1.377 . S
C920 C918 1.389 . S
C920 C921 1.524 . S
C920 C934 1.377 . S
C921 C920 1.524 . S
C921 C922 1.397 . S
C921 C926 1.363 . S
C922 H899 0.950 . S
C922 C921 1.397 . S
C922 C923 1.334 . S
C923 H900 0.950 . S
C923 C922 1.334 . S
C923 C924 1.287 . S
C924 C923 1.287 . S
C924 C925 1.524 . S
C924 H943 0.913 . S
C925 H901 0.950 . S
C925 C924 1.524 . S
C925 C926 1.415 . S
C926 H902 0.950 . S
C926 C921 1.363 . S
C926 C925 1.415 . S
C927 H903 0.951 . S
C927 C928 1.366 . S
C927 C929 1.388 . S
C928 C927 1.366 . S
C928 C932 1.385 . S
C929 H904 0.951 . S
C929 C927 1.388 . S
C929 C930 1.366 . S
C930 C929 1.366 . S
C930 C931 1.414 . S
C930 C933 1.499 . S
C931 H905 0.950 . S
C931 C930 1.414 . S
C931 C932 1.374 . S
C932 H906 0.950 . S
C932 C928 1.385 . S
C932 C931 1.374 . S
C933 C930 1.499 . S
C933 C934 1.373 . S
C933 C935 1.389 . S
C934 H907 0.950 . S
C934 C920 1.377 . S
C934 C933 1.373 . S
C935 C919 1.377 . S
C935 C933 1.389 . S
C935 C936 1.524 . S
C936 C935 1.524 . S
C936 C937 1.397 . S
C936 C941 1.363 . S
C937 H908 0.950 . S
C937 C936 1.397 . S
C937 C938 1.334 . S
C938 H909 0.950 . S
C938 C937 1.334 . S
C938 C939 1.287 . S
C939 C938 1.287 . S
C939 C940 1.524 . S
C939 H942 0.999 . S
C940 H910 0.950 . S
C940 C939 1.524 . S
C940 C941 1.415 . S
C941 H911 0.950 . S
C941 C936 1.363 . S
C941 C940 1.415 . S
H942 C939 0.999 . S
H943 C924 0.913 . S
H944 C962 0.951 . S
H945 C964 0.951 . S
H946 C966 0.950 . S
H947 C967 0.950 . S
H948 C969 0.950 . S
H949 C972 0.950 . S
H950 C973 0.950 . S
H951 C975 0.950 . S
H952 C976 0.950 . S
H953 C977 0.951 . S
H954 C979 0.951 . S
H955 C981 0.950 . S
H956 C982 0.950 . S
H957 C984 0.950 . S
H958 C987 0.950 . S
H959 C988 0.950 . S
H960 C990 0.950 . S
H961 C991 0.950 . S
C962 H944 0.951 . S
C962 C963 1.366 . S
C962 C964 1.388 . S
C963 C962 1.366 . S
C963 C967 1.385 . S
C964 H945 0.951 . S
C964 C962 1.388 . S
C964 C965 1.366 . S
C965 C964 1.366 . S
C965 C966 1.414 . S
C965 C968 1.499 . S
C966 H946 0.950 . S
C966 C965 1.414 . S
C966 C967 1.374 . S
C967 H947 0.950 . S
C967 C963 1.385 . S
C967 C966 1.374 . S
C968 C965 1.499 . S
C968 C969 1.373 . S
C968 C970 1.389 . S
C969 H948 0.950 . S
C969 C968 1.373 . S
C969 C985 1.377 . S
C970 C968 1.389 . S
C970 C971 1.524 . S
C970 C984 1.377 . S
C971 C970 1.524 . S
C971 C972 1.397 . S
C971 C976 1.363 . S
C972 H949 0.950 . S
C972 C971 1.397 . S
C972 C973 1.334 . S
C973 H950 0.950 . S
C973 C972 1.334 . S
C973 C974 1.287 . S
C974 C973 1.287 . S
C974 C975 1.524 . S
C974 H993 0.913 . S
C975 H951 0.950 . S
C975 C974 1.524 . S
C975 C976 1.415 . S
C976 H952 0.950 . S
C976 C971 1.363 . S
C976 C975 1.415 . S
C977 H953 0.951 . S
C977 C978 1.366 . S
C977 C979 1.388 . S
C978 C977 1.366 . S
C978 C982 1.385 . S
C979 H954 0.951 . S
C979 C977 1.388 . S
C979 C980 1.366 . S
C980 C979 1.366 . S
C980 C981 1.414 . S
C980 C983 1.499 . S
C981 H955 0.950 . S
C981 C980 1.414 . S
C981 C982 1.374 . S
C982 H956 0.950 . S
C982 C978 1.385 . S
C982 C981 1.374 . S
C983 C980 1.499 . S
C983 C984 1.373 . S
C983 C985 1.389 . S
C984 H957 0.950 . S
C984 C970 1.377 . S
C984 C983 1.373 . S
C985 C969 1.377 . S
C985 C983 1.389 . S
C985 C986 1.524 . S
C986 C985 1.524 . S
C986 C987 1.397 . S
C986 C991 1.363 . S
C987 H958 0.950 . S
C987 C986 1.397 . S
C987 C988 1.334 . S
C988 H959 0.950 . S
C988 C987 1.334 . S
C988 C989 1.287 . S
C989 C988 1.287 . S
C989 C990 1.524 . S
C989 H992 0.999 . S
C990 H960 0.950 . S
C990 C989 1.524 . S
C990 C991 1.415 . S
C991 H961 0.950 . S
C991 C986 1.363 . S
C991 C990 1.415 . S
H992 C989 0.999 . S
H993 C974 0.913 . S
H994 C1012 0.951 . S
H995 C1014 0.951 . S
H996 C1016 0.950 . S
H997 C1017 0.950 . S
H998 C1019 0.950 . S
H999 C1022 0.950 . S
H1000 C1023 0.950 . S
H1001 C1025 0.950 . S
H1002 C1026 0.950 . S
H1003 C1027 0.951 . S
H1004 C1029 0.951 . S
H1005 C1031 0.950 . S
H1006 C1032 0.950 . S
H1007 C1034 0.950 . S
H1008 C1037 0.950 . S
H1009 C1038 0.950 . S
H1010 C1040 0.950 . S
H1011 C1041 0.950 . S
C1012 H994 0.951 . S
C1012 C1013 1.366 . S
C1012 C1014 1.388 . S
C1013 C1012 1.366 . S
C1013 C1017 1.385 . S
C1014 H995 0.951 . S
C1014 C1012 1.388 . S
C1014 C1015 1.366 . S
C1015 C1014 1.366 . S
C1015 C1016 1.414 . S
C1015 C1018 1.499 . S
C1016 H996 0.950 . S
C1016 C1015 1.414 . S
C1016 C1017 1.374 . S
C1017 H997 0.950 . S
C1017 C1013 1.385 . S
C1017 C1016 1.374 . S
C1018 C1015 1.499 . S
C1018 C1019 1.373 . S
C1018 C1020 1.389 . S
C1019 H998 0.950 . S
C1019 C1018 1.373 . S
C1019 C1035 1.377 . S
C1020 C1018 1.389 . S
C1020 C1021 1.524 . S
C1020 C1034 1.377 . S
C1021 C1020 1.524 . S
C1021 C1022 1.397 . S
C1021 C1026 1.363 . S
C1022 H999 0.950 . S
C1022 C1021 1.397 . S
C1022 C1023 1.334 . S
C1023 H1000 0.950 . S
C1023 C1022 1.334 . S
C1023 C1024 1.287 . S
C1024 C1023 1.287 . S
C1024 C1025 1.524 . S
C1024 H1043 0.913 . S
C1025 H1001 0.950 . S
C1025 C1024 1.524 . S
C1025 C1026 1.415 . S
C1026 H1002 0.950 . S
C1026 C1021 1.363 . S
C1026 C1025 1.415 . S
C1027 H1003 0.951 . S
C1027 C1028 1.366 . S
C1027 C1029 1.388 . S
C1028 C1027 1.366 . S
C1028 C1032 1.385 . S
C1029 H1004 0.951 . S
C1029 C1027 1.388 . S
C1029 C1030 1.366 . S
C1030 C1029 1.366 . S
C1030 C1031 1.414 . S
C1030 C1033 1.499 . S
C1031 H1005 0.950 . S
C1031 C1030 1.414 . S
C1031 C1032 1.374 . S
C1032 H1006 0.950 . S
C1032 C1028 1.385 . S
C1032 C1031 1.374 . S
C1033 C1030 1.499 . S
C1033 C1034 1.373 . S
C1033 C1035 1.389 . S
C1034 H1007 0.950 . S
C1034 C1020 1.377 . S
C1034 C1033 1.373 . S
C1035 C1019 1.377 . S
C1035 C1033 1.389 . S
C1035 C1036 1.524 . S
C1036 C1035 1.524 . S
C1036 C1037 1.397 . S
C1036 C1041 1.363 . S
C1037 H1008 0.950 . S
C1037 C1036 1.397 . S
C1037 C1038 1.334 . S
C1038 H1009 0.950 . S
C1038 C1037 1.334 . S
C1038 C1039 1.287 . S
C1039 C1038 1.287 . S
C1039 C1040 1.524 . S
C1039 H1042 0.999 . S
C1040 H1010 0.950 . S
C1040 C1039 1.524 . S
C1040 C1041 1.415 . S
C1041 H1011 0.950 . S
C1041 C1036 1.363 . S
C1041 C1040 1.415 . S
H1042 C1039 0.999 . S
H1043 C1024 0.913 . S
H1044 C1062 0.951 . S
H1045 C1064 0.951 . S
H1046 C1066 0.950 . S
H1047 C1067 0.950 . S
H1048 C1069 0.950 . S
H1049 C1072 0.950 . S
H1050 C1073 0.950 . S
H1051 C1075 0.950 . S
H1052 C1076 0.950 . S
H1053 C1077 0.951 . S
H1054 C1079 0.951 . S
H1055 C1081 0.950 . S
H1056 C1082 0.950 . S
H1057 C1084 0.950 . S
H1058 C1087 0.950 . S
H1059 C1088 0.950 . S
H1060 C1090 0.950 . S
H1061 C1091 0.950 . S
C1062 H1044 0.951 . S
C1062 C1063 1.366 . S
C1062 C1064 1.388 . S
C1063 C1062 1.366 . S
C1063 C1067 1.385 . S
C1064 H1045 0.951 . S
C1064 C1062 1.388 . S
C1064 C1065 1.366 . S
C1065 C1064 1.366 . S
C1065 C1066 1.414 . S
C1065 C1068 1.499 . S
C1066 H1046 0.950 . S
C1066 C1065 1.414 . S
C1066 C1067 1.374 . S
C1067 H1047 0.950 . S
C1067 C1063 1.385 . S
C1067 C1066 1.374 . S
C1068 C1065 1.499 . S
C1068 C1069 1.373 . S
C1068 C1070 1.389 . S
C1069 H1048 0.950 . S
C1069 C1068 1.373 . S
C1069 C1085 1.377 . S
C1070 C1068 1.389 . S
C1070 C1071 1.524 . S
C1070 C1084 1.377 . S
C1071 C1070 1.524 . S
C1071 C1072 1.397 . S
C1071 C1076 1.363 . S
C1072 H1049 0.950 . S
C1072 C1071 1.397 . S
C1072 C1073 1.334 . S
C1073 H1050 0.950 . S
C1073 C1072 1.334 . S
C1073 C1074 1.287 . S
C1074 C1073 1.287 . S
C1074 C1075 1.524 . S
C1074 H1093 0.913 . S
C1075 H1051 0.950 . S
C1075 C1074 1.524 . S
C1075 C1076 1.415 . S
C1076 H1052 0.950 . S
C1076 C1071 1.363 . S
C1076 C1075 1.415 . S
C1077 H1053 0.951 . S
C1077 C1078 1.366 . S
C1077 C1079 1.388 . S
C1078 C1077 1.366 . S
C1078 C1082 1.385 . S
C1079 H1054 0.951 . S
C1079 C1077 1.388 . S
C1079 C1080 1.366 . S
C1080 C1079 1.366 . S
C1080 C1081 1.414 . S
C1080 C1083 1.499 . S
C1081 H1055 0.950 . S
C1081 C1080 1.414 . S
C1081 C1082 1.374 . S
C1082 H1056 0.950 . S
C1082 C1078 1.385 . S
C1082 C1081 1.374 . S
C1083 C1080 1.499 . S
C1083 C1084 1.373 . S
C1083 C1085 1.389 . S
C1084 H1057 0.950 . S
C1084 C1070 1.377 . S
C1084 C1083 1.373 . S
C1085 C1069 1.377 . S
C1085 C1083 1.389 . S
C1085 C1086 1.524 . S
C1086 C1085 1.524 . S
C1086 C1087 1.397 . S
C1086 C1091 1.363 . S
C1087 H1058 0.950 . S
C1087 C1086 1.397 . S
C1087 C1088 1.334 . S
C1088 H1059 0.950 . S
C1088 C1087 1.334 . S
C1088 C1089 1.287 . S
C1089 C1088 1.287 . S
C1089 C1090 1.524 . S
C1089 H1092 0.999 . S
C1090 H1060 0.950 . S
C1090 C1089 1.524 . S
C1090 C1091 1.415 . S
C1091 H1061 0.950 . S
C1091 C1086 1.363 . S
C1091 C1090 1.415 . S
H1092 C1089 0.999 . S
H1093 C1074 0.913 . S
H1094 C1112 0.951 . S
H1095 C1114 0.951 . S
H1096 C1116 0.950 . S
H1097 C1117 0.968 . S
H1098 C1119 0.950 . S
H1099 C1122 0.950 . S
H1100 C1123 0.950 . S
H1101 C1125 0.950 . S
H1102 C1126 0.950 . S
H1103 C1127 0.951 . S
H1104 C1129 0.951 . S
H1105 C1131 0.950 . S
H1106 C1132 0.950 . S
H1107 C1134 0.950 . S
H1108 C1137 0.950 . S
H1109 C1138 0.950 . S
H1110 C1140 0.950 . S
H1111 C1141 0.950 . S
C1112 H1094 0.951 . S
C1112 C1113 1.366 . S
C1112 C1114 1.388 . S
C1113 C1112 1.366 . S
C1113 C1117 1.385 . S
C1114 H1095 0.951 . S
C1114 C1112 1.388 . S
C1114 C1115 1.366 . S
C1115 C1114 1.366 . S
C1115 C1116 1.414 . S
C1115 C1118 1.499 . S
C1116 H1096 0.950 . S
C1116 C1115 1.414 . S
C1116 C1117 1.374 . S
C1117 H1097 0.968 . S
C1117 C1113 1.385 . S
C1117 C1116 1.374 . S
C1118 C1115 1.499 . S
C1118 C1119 1.373 . S
C1118 C1120 1.389 . S
C1119 H1098 0.950 . S
C1119 C1118 1.373 . S
C1119 C1135 1.377 . S
C1120 C1118 1.389 . S
C1120 C1121 1.524 . S
C1120 C1134 1.377 . S
C1121 C1120 1.524 . S
C1121 C1122 1.397 . S
C1121 C1126 1.363 . S
C1122 H1099 0.950 . S
C1122 C1121 1.397 . S
C1122 C1123 1.334 . S
C1123 H1100 0.950 . S
C1123 C1122 1.334 . S
C1123 C1124 1.287 . S
C1124 C1123 1.287 . S
C1124 C1125 1.524 . S
C1124 H1143 0.913 . S
C1125 H1101 0.950 . S
C1125 C1124 1.524 . S
C1125 C1126 1.415 . S
C1126 H1102 0.950 . S
C1126 C1121 1.363 . S
C1126 C1125 1.415 . S
C1127 H1103 0.951 . S
C1127 C1128 1.366 . S
C1127 C1129 1.388 . S
C1128 C1127 1.366 . S
C1128 C1132 1.385 . S
C1129 H1104 0.951 . S
C1129 C1127 1.388 . S
C1129 C1130 1.366 . S
C1130 C1129 1.366 . S
C1130 C1131 1.414 . S
C1130 C1133 1.499 . S
C1131 H1105 0.950 . S
C1131 C1130 1.414 . S
C1131 C1132 1.374 . S
C1132 H1106 0.950 . S
C1132 C1128 1.385 . S
C1132 C1131 1.374 . S
C1133 C1130 1.499 . S
C1133 C1134 1.373 . S
C1133 C1135 1.389 . S
C1134 H1107 0.950 . S
C1134 C1120 1.377 . S
C1134 C1133 1.373 . S
C1135 C1119 1.377 . S
C1135 C1133 1.389 . S
C1135 C1136 1.524 . S
C1136 C1135 1.524 . S
C1136 C1137 1.397 . S
C1136 C1141 1.363 . S
C1137 H1108 0.950 . S
C1137 C1136 1.397 . S
C1137 C1138 1.334 . S
C1138 H1109 0.950 . S
C1138 C1137 1.334 . S
C1138 C1139 1.287 . S
C1139 C1138 1.287 . S
C1139 C1140 1.524 . S
C1139 H1142 0.999 . S
C1140 H1110 0.950 . S
C1140 C1139 1.524 . S
C1140 C1141 1.415 . S
C1141 H1111 0.950 . S
C1141 C1136 1.363 . S
C1141 C1140 1.415 . S
H1142 C1139 0.999 . S
H1143 C1124 0.913 . S
H1144 C1162 0.951 . S
H1145 C1164 0.951 . S
H1146 C1166 0.950 . S
H1147 C1167 0.950 . S
H1148 C1169 0.950 . S
H1149 C1172 0.950 . S
H1150 C1173 0.950 . S
H1151 C1175 0.950 . S
H1152 C1176 0.950 . S
H1153 C1177 0.951 . S
H1154 C1179 0.951 . S
H1155 C1181 0.950 . S
H1156 C1182 0.950 . S
H1157 C1184 0.950 . S
H1158 C1187 0.950 . S
H1159 C1188 0.950 . S
H1160 C1190 0.950 . S
H1161 C1191 0.950 . S
C1162 H1144 0.951 . S
C1162 C1163 1.366 . S
C1162 C1164 1.388 . S
C1163 C1162 1.366 . S
C1163 C1167 1.385 . S
C1164 H1145 0.951 . S
C1164 C1162 1.388 . S
C1164 C1165 1.366 . S
C1165 C1164 1.366 . S
C1165 C1166 1.414 . S
C1165 C1168 1.499 . S
C1166 H1146 0.950 . S
C1166 C1165 1.414 . S
C1166 C1167 1.374 . S
C1167 H1147 0.950 . S
C1167 C1163 1.385 . S
C1167 C1166 1.374 . S
C1168 C1165 1.499 . S
C1168 C1169 1.373 . S
C1168 C1170 1.389 . S
C1169 H1148 0.950 . S
C1169 C1168 1.373 . S
C1169 C1185 1.377 . S
C1170 C1168 1.389 . S
C1170 C1171 1.524 . S
C1170 C1184 1.377 . S
C1171 C1170 1.524 . S
C1171 C1172 1.397 . S
C1171 C1176 1.363 . S
C1172 H1149 0.950 . S
C1172 C1171 1.397 . S
C1172 C1173 1.334 . S
C1173 H1150 0.950 . S
C1173 C1172 1.334 . S
C1173 C1174 1.287 . S
C1174 C1173 1.287 . S
C1174 C1175 1.524 . S
C1174 H1193 0.913 . S
C1175 H1151 0.950 . S
C1175 C1174 1.524 . S
C1175 C1176 1.415 . S
C1176 H1152 0.950 . S
C1176 C1171 1.363 . S
C1176 C1175 1.415 . S
C1177 H1153 0.951 . S
C1177 C1178 1.366 . S
C1177 C1179 1.388 . S
C1178 C1177 1.366 . S
C1178 C1182 1.385 . S
C1179 H1154 0.951 . S
C1179 C1177 1.388 . S
C1179 C1180 1.366 . S
C1180 C1179 1.366 . S
C1180 C1181 1.414 . S
C1180 C1183 1.499 . S
C1181 H1155 0.950 . S
C1181 C1180 1.414 . S
C1181 C1182 1.374 . S
C1182 H1156 0.950 . S
C1182 C1178 1.385 . S
C1182 C1181 1.374 . S
C1183 C1180 1.499 . S
C1183 C1184 1.373 . S
C1183 C1185 1.389 . S
C1184 H1157 0.950 . S
C1184 C1170 1.377 . S
C1184 C1183 1.373 . S
C1185 C1169 1.377 . S
C1185 C1183 1.389 . S
C1185 C1186 1.524 . S
C1186 C1185 1.524 . S
C1186 C1187 1.397 . S
C1186 C1191 1.363 . S
C1187 H1158 0.950 . S
C1187 C1186 1.397 . S
C1187 C1188 1.334 . S
C1188 H1159 0.950 . S
C1188 C1187 1.334 . S
C1188 C1189 1.287 . S
C1189 C1188 1.287 . S
C1189 C1190 1.524 . S
C1189 H1192 0.999 . S
C1190 H1160 0.950 . S
C1190 C1189 1.524 . S
C1190 C1191 1.415 . S
C1191 H1161 0.950 . S
C1191 C1186 1.363 . S
C1191 C1190 1.415 . S
H1192 C1189 0.999 . S
H1193 C1174 0.913 . S
H1194 C1212 0.951 . S
H1195 C1214 0.951 . S
H1196 C1216 0.950 . S
H1197 C1217 0.950 . S
H1198 C1219 0.950 . S
H1199 C1222 0.950 . S
H1200 C1223 0.950 . S
H1201 C1225 0.950 . S
H1202 C1226 0.950 . S
H1203 C1227 0.951 . S
H1204 C1229 0.951 . S
H1205 C1231 0.950 . S
H1206 C1232 0.950 . S
H1207 C1234 0.950 . S
H1208 C1237 0.950 . S
H1209 C1238 0.950 . S
H1210 C1240 0.950 . S
H1211 C1241 0.950 . S
C1212 H1194 0.951 . S
C1212 C1213 1.366 . S
C1212 C1214 1.388 . S
C1213 C1212 1.366 . S
C1213 C1217 1.385 . S
C1214 H1195 0.951 . S
C1214 C1212 1.388 . S
C1214 C1215 1.366 . S
C1215 C1214 1.366 . S
C1215 C1216 1.414 . S
C1215 C1218 1.499 . S
C1216 H1196 0.950 . S
C1216 C1215 1.414 . S
C1216 C1217 1.374 . S
C1217 H1197 0.950 . S
C1217 C1213 1.385 . S
C1217 C1216 1.374 . S
C1218 C1215 1.499 . S
C1218 C1219 1.373 . S
C1218 C1220 1.389 . S
C1219 H1198 0.950 . S
C1219 C1218 1.373 . S
C1219 C1235 1.377 . S
C1220 C1218 1.389 . S
C1220 C1221 1.524 . S
C1220 C1234 1.377 . S
C1221 C1220 1.524 . S
C1221 C1222 1.397 . S
C1221 C1226 1.363 . S
C1222 H1199 0.950 . S
C1222 C1221 1.397 . S
C1222 C1223 1.334 . S
C1223 H1200 0.950 . S
C1223 C1222 1.334 . S
C1223 C1224 1.287 . S
C1224 C1223 1.287 . S
C1224 C1225 1.524 . S
C1224 H1243 0.913 . S
C1225 H1201 0.950 . S
C1225 C1224 1.524 . S
C1225 C1226 1.415 . S
C1226 H1202 0.950 . S
C1226 C1221 1.363 . S
C1226 C1225 1.415 . S
C1227 H1203 0.951 . S
C1227 C1228 1.366 . S
C1227 C1229 1.388 . S
C1228 C1227 1.366 . S
C1228 C1232 1.385 . S
C1229 H1204 0.951 . S
C1229 C1227 1.388 . S
C1229 C1230 1.366 . S
C1230 C1229 1.366 . S
C1230 C1231 1.414 . S
C1230 C1233 1.499 . S
C1231 H1205 0.950 . S
C1231 C1230 1.414 . S
C1231 C1232 1.374 . S
C1232 H1206 0.950 . S
C1232 C1228 1.385 . S
C1232 C1231 1.374 . S
C1233 C1230 1.499 . S
C1233 C1234 1.373 . S
C1233 C1235 1.389 . S
C1234 H1207 0.950 . S
C1234 C1220 1.377 . S
C1234 C1233 1.373 . S
C1235 C1219 1.377 . S
C1235 C1233 1.389 . S
C1235 C1236 1.524 . S
C1236 C1235 1.524 . S
C1236 C1237 1.397 . S
C1236 C1241 1.363 . S
C1237 H1208 0.950 . S
C1237 C1236 1.397 . S
C1237 C1238 1.334 . S
C1238 H1209 0.950 . S
C1238 C1237 1.334 . S
C1238 C1239 1.287 . S
C1239 C1238 1.287 . S
C1239 C1240 1.524 . S
C1239 H1242 0.999 . S
C1240 H1210 0.950 . S
C1240 C1239 1.524 . S
C1240 C1241 1.415 . S
C1241 H1211 0.950 . S
C1241 C1236 1.363 . S
C1241 C1240 1.415 . S
H1242 C1239 0.999 . S
H1243 C1224 0.913 . S
H1244 C1262 0.951 . S
H1245 C1264 0.951 . S
H1246 C1266 0.950 . S
H1247 C1267 0.950 . S
H1248 C1269 0.950 . S
H1249 C1272 0.950 . S
H1250 C1273 0.950 . S
H1251 C1275 0.950 . S
H1252 C1276 0.950 . S
H1253 C1277 0.951 . S
H1254 C1279 0.951 . S
H1255 C1281 0.950 . S
H1256 C1282 0.950 . S
H1257 C1284 0.950 . S
H1258 C1287 0.950 . S
H1259 C1288 0.950 . S
H1260 C1290 0.950 . S
H1261 C1291 0.950 . S
C1262 H1244 0.951 . S
C1262 C1263 1.366 . S
C1262 C1264 1.388 . S
C1263 C1262 1.366 . S
C1263 C1267 1.385 . S
C1264 H1245 0.951 . S
C1264 C1262 1.388 . S
C1264 C1265 1.366 . S
C1265 C1264 1.366 . S
C1265 C1266 1.414 . S
C1265 C1268 1.499 . S
C1266 H1246 0.950 . S
C1266 C1265 1.414 . S
C1266 C1267 1.374 . S
C1267 H1247 0.950 . S
C1267 C1263 1.385 . S
C1267 C1266 1.374 . S
C1268 C1265 1.499 . S
C1268 C1269 1.373 . S
C1268 C1270 1.389 . S
C1269 H1248 0.950 . S
C1269 C1268 1.373 . S
C1269 C1285 1.377 . S
C1270 C1268 1.389 . S
C1270 C1271 1.524 . S
C1270 C1284 1.377 . S
C1271 C1270 1.524 . S
C1271 C1272 1.397 . S
C1271 C1276 1.363 . S
C1272 H1249 0.950 . S
C1272 C1271 1.397 . S
C1272 C1273 1.334 . S
C1273 H1250 0.950 . S
C1273 C1272 1.334 . S
C1273 C1274 1.287 . S
C1274 C1273 1.287 . S
C1274 C1275 1.524 . S
C1274 H1293 0.913 . S
C1275 H1251 0.950 . S
C1275 C1274 1.524 . S
C1275 C1276 1.415 . S
C1276 H1252 0.950 . S
C1276 C1271 1.363 . S
C1276 C1275 1.415 . S
C1277 H1253 0.951 . S
C1277 C1278 1.366 . S
C1277 C1279 1.388 . S
C1278 C1277 1.366 . S
C1278 C1282 1.385 . S
C1279 H1254 0.951 . S
C1279 C1277 1.388 . S
C1279 C1280 1.366 . S
C1280 C1279 1.366 . S
C1280 C1281 1.414 . S
C1280 C1283 1.499 . S
C1281 H1255 0.950 . S
C1281 C1280 1.414 . S
C1281 C1282 1.374 . S
C1282 H1256 0.950 . S
C1282 C1278 1.385 . S
C1282 C1281 1.374 . S
C1283 C1280 1.499 . S
C1283 C1284 1.373 . S
C1283 C1285 1.389 . S
C1284 H1257 0.950 . S
C1284 C1270 1.377 . S
C1284 C1283 1.373 . S
C1285 C1269 1.377 . S
C1285 C1283 1.389 . S
C1285 C1286 1.524 . S
C1286 C1285 1.524 . S
C1286 C1287 1.397 . S
C1286 C1291 1.363 . S
C1287 H1258 0.950 . S
C1287 C1286 1.397 . S
C1287 C1288 1.334 . S
C1288 H1259 0.950 . S
C1288 C1287 1.334 . S
C1288 C1289 1.287 . S
C1289 C1288 1.287 . S
C1289 C1290 1.524 . S
C1289 H1292 0.999 . S
C1290 H1260 0.950 . S
C1290 C1289 1.524 . S
C1290 C1291 1.415 . S
C1291 H1261 0.950 . S
C1291 C1286 1.363 . S
C1291 C1290 1.415 . S
H1292 C1289 0.999 . S
H1293 C1274 0.913 . S
H1294 C1312 0.951 . S
H1295 C1314 0.951 . S
H1296 C1316 0.950 . S
H1297 C1317 0.950 . S
H1298 C1319 0.950 . S
H1299 C1322 0.950 . S
H1300 C1323 0.950 . S
H1301 C1325 0.950 . S
H1302 C1326 0.950 . S
H1303 C1327 0.951 . S
H1304 C1329 0.951 . S
H1305 C1331 0.950 . S
H1306 C1332 0.950 . S
H1307 C1334 0.950 . S
H1308 C1337 0.950 . S
H1309 C1338 0.950 . S
H1310 C1340 0.950 . S
H1311 C1341 0.950 . S
C1312 H1294 0.951 . S
C1312 C1313 1.366 . S
C1312 C1314 1.388 . S
C1313 C1312 1.366 . S
C1313 C1317 1.385 . S
C1314 H1295 0.951 . S
C1314 C1312 1.388 . S
C1314 C1315 1.366 . S
C1315 C1314 1.366 . S
C1315 C1316 1.414 . S
C1315 C1318 1.499 . S
C1316 H1296 0.950 . S
C1316 C1315 1.414 . S
C1316 C1317 1.374 . S
C1317 H1297 0.950 . S
C1317 C1313 1.385 . S
C1317 C1316 1.374 . S
C1318 C1315 1.499 . S
C1318 C1319 1.373 . S
C1318 C1320 1.389 . S
C1319 H1298 0.950 . S
C1319 C1318 1.373 . S
C1319 C1335 1.377 . S
C1320 C1318 1.389 . S
C1320 C1321 1.524 . S
C1320 C1334 1.377 . S
C1321 C1320 1.524 . S
C1321 C1322 1.397 . S
C1321 C1326 1.363 . S
C1322 H1299 0.950 . S
C1322 C1321 1.397 . S
C1322 C1323 1.334 . S
C1323 H1300 0.950 . S
C1323 C1322 1.334 . S
C1323 C1324 1.287 . S
C1324 C1323 1.287 . S
C1324 C1325 1.524 . S
C1324 H1343 0.913 . S
C1325 H1301 0.950 . S
C1325 C1324 1.524 . S
C1325 C1326 1.415 . S
C1326 H1302 0.950 . S
C1326 C1321 1.363 . S
C1326 C1325 1.415 . S
C1327 H1303 0.951 . S
C1327 C1328 1.366 . S
C1327 C1329 1.388 . S
C1328 C1327 1.366 . S
C1328 C1332 1.385 . S
C1329 H1304 0.951 . S
C1329 C1327 1.388 . S
C1329 C1330 1.366 . S
C1330 C1329 1.366 . S
C1330 C1331 1.414 . S
C1330 C1333 1.499 . S
C1331 H1305 0.950 . S
C1331 C1330 1.414 . S
C1331 C1332 1.374 . S
C1332 H1306 0.950 . S
C1332 C1328 1.385 . S
C1332 C1331 1.374 . S
C1333 C1330 1.499 . S
C1333 C1334 1.373 . S
C1333 C1335 1.389 . S
C1334 H1307 0.950 . S
C1334 C1320 1.377 . S
C1334 C1333 1.373 . S
C1335 C1319 1.377 . S
C1335 C1333 1.389 . S
C1335 C1336 1.524 . S
C1336 C1335 1.524 . S
C1336 C1337 1.397 . S
C1336 C1341 1.363 . S
C1337 H1308 0.950 . S
C1337 C1336 1.397 . S
C1337 C1338 1.334 . S
C1338 H1309 0.950 . S
C1338 C1337 1.334 . S
C1338 C1339 1.287 . S
C1339 C1338 1.287 . S
C1339 C1340 1.524 . S
C1339 H1342 0.999 . S
C1340 H1310 0.950 . S
C1340 C1339 1.524 . S
C1340 C1341 1.415 . S
C1341 H1311 0.950 . S
C1341 C1336 1.363 . S
C1341 C1340 1.415 . S
H1342 C1339 0.999 . S
H1343 C1324 0.913 . S
H1344 C1362 0.951 . S
H1345 C1364 0.951 . S
H1346 C1366 0.950 . S
H1347 C1367 0.950 . S
H1348 C1369 0.950 . S
H1349 C1372 0.950 . S
H1350 C1373 0.950 . S
H1351 C1375 0.950 . S
H1352 C1376 0.950 . S
H1353 C1377 0.951 . S
H1354 C1379 0.951 . S
H1355 C1381 0.950 . S
H1356 C1382 0.950 . S
H1357 C1384 0.950 . S
H1358 C1387 0.950 . S
H1359 C1388 0.950 . S
H1360 C1390 0.950 . S
H1361 C1391 0.950 . S
C1362 H1344 0.951 . S
C1362 C1363 1.366 . S
C1362 C1364 1.388 . S
C1363 C1362 1.366 . S
C1363 C1367 1.385 . S
C1364 H1345 0.951 . S
C1364 C1362 1.388 . S
C1364 C1365 1.366 . S
C1365 C1364 1.366 . S
C1365 C1366 1.414 . S
C1365 C1368 1.499 . S
C1366 H1346 0.950 . S
C1366 C1365 1.414 . S
C1366 C1367 1.374 . S
C1367 H1347 0.950 . S
C1367 C1363 1.385 . S
C1367 C1366 1.374 . S
C1368 C1365 1.499 . S
C1368 C1369 1.373 . S
C1368 C1370 1.389 . S
C1369 H1348 0.950 . S
C1369 C1368 1.373 . S
C1369 C1385 1.377 . S
C1370 C1368 1.389 . S
C1370 C1371 1.524 . S
C1370 C1384 1.377 . S
C1371 C1370 1.524 . S
C1371 C1372 1.397 . S
C1371 C1376 1.363 . S
C1372 H1349 0.950 . S
C1372 C1371 1.397 . S
C1372 C1373 1.334 . S
C1373 H1350 0.950 . S
C1373 C1372 1.334 . S
C1373 C1374 1.287 . S
C1374 C1373 1.287 . S
C1374 C1375 1.524 . S
C1374 H1393 0.913 . S
C1375 H1351 0.950 . S
C1375 C1374 1.524 . S
C1375 C1376 1.415 . S
C1376 H1352 0.950 . S
C1376 C1371 1.363 . S
C1376 C1375 1.415 . S
C1377 H1353 0.951 . S
C1377 C1378 1.366 . S
C1377 C1379 1.388 . S
C1378 C1377 1.366 . S
C1378 C1382 1.385 . S
C1379 H1354 0.951 . S
C1379 C1377 1.388 . S
C1379 C1380 1.366 . S
C1380 C1379 1.366 . S
C1380 C1381 1.414 . S
C1380 C1383 1.499 . S
C1381 H1355 0.950 . S
C1381 C1380 1.414 . S
C1381 C1382 1.374 . S
C1382 H1356 0.950 . S
C1382 C1378 1.385 . S
C1382 C1381 1.374 . S
C1383 C1380 1.499 . S
C1383 C1384 1.373 . S
C1383 C1385 1.389 . S
C1384 H1357 0.950 . S
C1384 C1370 1.377 . S
C1384 C1383 1.373 . S
C1385 C1369 1.377 . S
C1385 C1383 1.389 . S
C1385 C1386 1.524 . S
C1386 C1385 1.524 . S
C1386 C1387 1.397 . S
C1386 C1391 1.363 . S
C1387 H1358 0.950 . S
C1387 C1386 1.397 . S
C1387 C1388 1.334 . S
C1388 H1359 0.950 . S
C1388 C1387 1.334 . S
C1388 C1389 1.287 . S
C1389 C1388 1.287 . S
C1389 C1390 1.524 . S
C1389 H1392 0.999 . S
C1390 H1360 0.950 . S
C1390 C1389 1.524 . S
C1390 C1391 1.415 . S
C1391 H1361 0.950 . S
C1391 C1386 1.363 . S
C1391 C1390 1.415 . S
H1392 C1389 0.999 . S
H1393 C1374 0.913 . S
H1394 C1412 0.951 . S
H1395 C1414 0.951 . S
H1396 C1416 0.950 . S
H1397 C1417 0.950 . S
H1398 C1419 0.950 . S
H1399 C1422 0.950 . S
H1400 C1423 0.950 . S
H1401 C1425 0.950 . S
H1402 C1426 0.950 . S
H1403 C1427 0.951 . S
H1404 C1429 0.951 . S
H1405 C1431 0.950 . S
H1406 C1432 0.950 . S
H1407 C1434 0.950 . S
H1408 C1437 0.950 . S
H1409 C1438 0.950 . S
H1410 C1440 0.950 . S
H1411 C1441 0.950 . S
C1412 H1394 0.951 . S
C1412 C1413 1.366 . S
C1412 C1414 1.388 . S
C1413 C1412 1.366 . S
C1413 C1417 1.385 . S
C1414 H1395 0.951 . S
C1414 C1412 1.388 . S
C1414 C1415 1.366 . S
C1415 C1414 1.366 . S
C1415 C1416 1.414 . S
C1415 C1418 1.499 . S
C1416 H1396 0.950 . S
C1416 C1415 1.414 . S
C1416 C1417 1.374 . S
C1417 H1397 0.950 . S
C1417 C1413 1.385 . S
C1417 C1416 1.374 . S
C1418 C1415 1.499 . S
C1418 C1419 1.373 . S
C1418 C1420 1.389 . S
C1419 H1398 0.950 . S
C1419 C1418 1.373 . S
C1419 C1435 1.377 . S
C1420 C1418 1.389 . S
C1420 C1421 1.524 . S
C1420 C1434 1.377 . S
C1421 C1420 1.524 . S
C1421 C1422 1.397 . S
C1421 C1426 1.363 . S
C1422 H1399 0.950 . S
C1422 C1421 1.397 . S
C1422 C1423 1.334 . S
C1423 H1400 0.950 . S
C1423 C1422 1.334 . S
C1423 C1424 1.287 . S
C1424 C1423 1.287 . S
C1424 C1425 1.524 . S
C1424 H1443 0.913 . S
C1425 H1401 0.950 . S
C1425 C1424 1.524 . S
C1425 C1426 1.415 . S
C1426 H1402 0.950 . S
C1426 C1421 1.363 . S
C1426 C1425 1.415 . S
C1427 H1403 0.951 . S
C1427 C1428 1.366 . S
C1427 C1429 1.388 . S
C1428 C1427 1.366 . S
C1428 C1432 1.385 . S
C1429 H1404 0.951 . S
C1429 C1427 1.388 . S
C1429 C1430 1.366 . S
C1430 C1429 1.366 . S
C1430 C1431 1.414 . S
C1430 C1433 1.499 . S
C1431 H1405 0.950 . S
C1431 C1430 1.414 . S
C1431 C1432 1.374 . S
C1432 H1406 0.950 . S
C1432 C1428 1.385 . S
C1432 C1431 1.374 . S
C1433 C1430 1.499 . S
C1433 C1434 1.373 . S
C1433 C1435 1.389 . S
C1434 H1407 0.950 . S
C1434 C1420 1.377 . S
C1434 C1433 1.373 . S
C1435 C1419 1.377 . S
C1435 C1433 1.389 . S
C1435 C1436 1.524 . S
C1436 C1435 1.524 . S
C1436 C1437 1.397 . S
C1436 C1441 1.363 . S
C1437 H1408 0.950 . S
C1437 C1436 1.397 . S
C1437 C1438 1.334 . S
C1438 H1409 0.950 . S
C1438 C1437 1.334 . S
C1438 C1439 1.287 . S
C1439 C1438 1.287 . S
C1439 C1440 1.524 . S
C1439 H1442 0.999 . S
C1440 H1410 0.950 . S
C1440 C1439 1.524 . S
C1440 C1441 1.415 . S
C1441 H1411 0.950 . S
C1441 C1436 1.363 . S
C1441 C1440 1.415 . S
H1442 C1439 0.999 . S
H1443 C1424 0.913 . S
H1444 C1462 0.951 . S
H1445 C1464 0.951 . S
H1446 C1466 0.950 . S
H1447 C1467 0.950 . S
H1448 C1469 0.950 . S
H1449 C1472 0.950 . S
H1450 C1473 0.950 . S
H1451 C1475 0.950 . S
H1452 C1476 0.950 . S
H1453 C1477 0.951 . S
H1454 C1479 0.951 . S
H1455 C1481 0.950 . S
H1456 C1482 0.950 . S
H1457 C1484 0.950 . S
H1458 C1487 0.950 . S
H1459 C1488 0.950 . S
H1460 C1490 0.950 . S
H1461 C1491 0.950 . S
C1462 H1444 0.951 . S
C1462 C1463 1.366 . S
C1462 C1464 1.388 . S
C1463 C1462 1.366 . S
C1463 C1467 1.385 . S
C1464 H1445 0.951 . S
C1464 C1462 1.388 . S
C1464 C1465 1.366 . S
C1465 C1464 1.366 . S
C1465 C1466 1.414 . S
C1465 C1468 1.499 . S
C1466 H1446 0.950 . S
C1466 C1465 1.414 . S
C1466 C1467 1.374 . S
C1467 H1447 0.950 . S
C1467 C1463 1.385 . S
C1467 C1466 1.374 . S
C1468 C1465 1.499 . S
C1468 C1469 1.373 . S
C1468 C1470 1.389 . S
C1469 H1448 0.950 . S
C1469 C1468 1.373 . S
C1469 C1485 1.377 . S
C1470 C1468 1.389 . S
C1470 C1471 1.524 . S
C1470 C1484 1.377 . S
C1471 C1470 1.524 . S
C1471 C1472 1.397 . S
C1471 C1476 1.363 . S
C1472 H1449 0.950 . S
C1472 C1471 1.397 . S
C1472 C1473 1.334 . S
C1473 H1450 0.950 . S
C1473 C1472 1.334 . S
C1473 C1474 1.287 . S
C1474 C1473 1.287 . S
C1474 C1475 1.524 . S
C1474 H1493 0.913 . S
C1475 H1451 0.950 . S
C1475 C1474 1.524 . S
C1475 C1476 1.415 . S
C1476 H1452 0.950 . S
C1476 C1471 1.363 . S
C1476 C1475 1.415 . S
C1477 H1453 0.951 . S
C1477 C1478 1.366 . S
C1477 C1479 1.388 . S
C1478 C1477 1.366 . S
C1478 C1482 1.385 . S
C1479 H1454 0.951 . S
C1479 C1477 1.388 . S
C1479 C1480 1.366 . S
C1480 C1479 1.366 . S
C1480 C1481 1.414 . S
C1480 C1483 1.499 . S
C1481 H1455 0.950 . S
C1481 C1480 1.414 . S
C1481 C1482 1.374 . S
C1482 H1456 0.950 . S
C1482 C1478 1.385 . S
C1482 C1481 1.374 . S
C1483 C1480 1.499 . S
C1483 C1484 1.373 . S
C1483 C1485 1.389 . S
C1484 H1457 0.950 . S
C1484 C1470 1.377 . S
C1484 C1483 1.373 . S
C1485 C1469 1.377 . S
C1485 C1483 1.389 . S
C1485 C1486 1.524 . S
C1486 C1485 1.524 . S
C1486 C1487 1.397 . S
C1486 C1491 1.363 . S
C1487 H1458 0.950 . S
C1487 C1486 1.397 . S
C1487 C1488 1.334 . S
C1488 H1459 0.950 . S
C1488 C1487 1.334 . S
C1488 C1489 1.287 . S
C1489 C1488 1.287 . S
C1489 C1490 1.524 . S
C1489 H1492 0.999 . S
C1490 H1460 0.950 . S
C1490 C1489 1.524 . S
C1490 C1491 1.415 . S
C1491 H1461 0.950 . S
C1491 C1486 1.363 . S
C1491 C1490 1.415 . S
H1492 C1489 0.999 . S
H1493 C1474 0.913 . S
H1494 C1512 0.951 . S
H1495 C1514 0.951 . S
H1496 C1516 0.950 . S
H1497 C1517 0.950 . S
H1498 C1519 0.950 . S
H1499 C1522 0.950 . S
H1500 C1523 0.950 . S
H1501 C1525 0.950 . S
H1502 C1526 0.950 . S
H1503 C1527 0.951 . S
H1504 C1529 0.951 . S
H1505 C1531 0.950 . S
H1506 C1532 0.950 . S
H1507 C1534 0.950 . S
H1508 C1537 0.950 . S
H1509 C1538 0.950 . S
H1510 C1540 0.950 . S
H1511 C1541 0.950 . S
C1512 H1494 0.951 . S
C1512 C1513 1.366 . S
C1512 C1514 1.388 . S
C1513 C1512 1.366 . S
C1513 C1517 1.385 . S
C1514 H1495 0.951 . S
C1514 C1512 1.388 . S
C1514 C1515 1.366 . S
C1515 C1514 1.366 . S
C1515 C1516 1.414 . S
C1515 C1518 1.499 . S
C1516 H1496 0.950 . S
C1516 C1515 1.414 . S
C1516 C1517 1.374 . S
C1517 H1497 0.950 . S
C1517 C1513 1.385 . S
C1517 C1516 1.374 . S
C1518 C1515 1.499 . S
C1518 C1519 1.373 . S
C1518 C1520 1.389 . S
C1519 H1498 0.950 . S
C1519 C1518 1.373 . S
C1519 C1535 1.377 . S
C1520 C1518 1.389 . S
C1520 C1521 1.524 . S
C1520 C1534 1.377 . S
C1521 C1520 1.524 . S
C1521 C1522 1.397 . S
C1521 C1526 1.363 . S
C1522 H1499 0.950 . S
C1522 C1521 1.397 . S
C1522 C1523 1.334 . S
C1523 H1500 0.950 . S
C1523 C1522 1.334 . S
C1523 C1524 1.287 . S
C1524 C1523 1.287 . S
C1524 C1525 1.524 . S
C1524 H1543 0.913 . S
C1525 H1501 0.950 . S
C1525 C1524 1.524 . S
C1525 C1526 1.415 . S
C1526 H1502 0.950 . S
C1526 C1521 1.363 . S
C1526 C1525 1.415 . S
C1527 H1503 0.951 . S
C1527 C1528 1.366 . S
C1527 C1529 1.388 . S
C1528 C1527 1.366 . S
C1528 C1532 1.385 . S
C1529 H1504 0.951 . S
C1529 C1527 1.388 . S
C1529 C1530 1.366 . S
C1530 C1529 1.366 . S
C1530 C1531 1.414 . S
C1530 C1533 1.499 . S
C1531 H1505 0.950 . S
C1531 C1530 1.414 . S
C1531 C1532 1.374 . S
C1532 H1506 0.950 . S
C1532 C1528 1.385 . S
C1532 C1531 1.374 . S
C1533 C1530 1.499 . S
C1533 C1534 1.373 . S
C1533 C1535 1.389 . S
C1534 H1507 0.950 . S
C1534 C1520 1.377 . S
C1534 C1533 1.373 . S
C1535 C1519 1.377 . S
C1535 C1533 1.389 . S
C1535 C1536 1.524 . S
C1536 C1535 1.524 . S
C1536 C1537 1.397 . S
C1536 C1541 1.363 . S
C1537 H1508 0.950 . S
C1537 C1536 1.397 . S
C1537 C1538 1.334 . S
C1538 H1509 0.950 . S
C1538 C1537 1.334 . S
C1538 C1539 1.287 . S
C1539 C1538 1.287 . S
C1539 C1540 1.524 . S
C1539 H1542 0.999 . S
C1540 H1510 0.950 . S
C1540 C1539 1.524 . S
C1540 C1541 1.415 . S
C1541 H1511 0.950 . S
C1541 C1536 1.363 . S
C1541 C1540 1.415 . S
H1542 C1539 0.999 . S
H1543 C1524 0.913 . S
H1544 C1562 0.951 . S
H1545 C1564 0.951 . S
H1546 C1566 0.950 . S
H1547 C1567 0.950 . S
H1548 C1569 0.950 . S
H1549 C1572 0.950 . S
H1550 C1573 0.950 . S
H1551 C1575 0.950 . S
H1552 C1576 0.950 . S
H1553 C1577 0.951 . S
H1554 C1579 0.951 . S
H1555 C1581 0.950 . S
H1556 C1582 0.950 . S
H1557 C1584 0.950 . S
H1558 C1587 0.950 . S
H1559 C1588 0.950 . S
H1560 C1590 0.950 . S
H1561 C1591 0.950 . S
C1562 H1544 0.951 . S
C1562 C1563 1.366 . S
C1562 C1564 1.388 . S
C1563 C1562 1.366 . S
C1563 C1567 1.385 . S
C1564 H1545 0.951 . S
C1564 C1562 1.388 . S
C1564 C1565 1.366 . S
C1565 C1564 1.366 . S
C1565 C1566 1.414 . S
C1565 C1568 1.499 . S
C1566 H1546 0.950 . S
C1566 C1565 1.414 . S
C1566 C1567 1.374 . S
C1567 H1547 0.950 . S
C1567 C1563 1.385 . S
C1567 C1566 1.374 . S
C1568 C1565 1.499 . S
C1568 C1569 1.373 . S
C1568 C1570 1.389 . S
C1569 H1548 0.950 . S
C1569 C1568 1.373 . S
C1569 C1585 1.377 . S
C1570 C1568 1.389 . S
C1570 C1571 1.524 . S
C1570 C1584 1.377 . S
C1571 C1570 1.524 . S
C1571 C1572 1.397 . S
C1571 C1576 1.363 . S
C1572 H1549 0.950 . S
C1572 C1571 1.397 . S
C1572 C1573 1.334 . S
C1573 H1550 0.950 . S
C1573 C1572 1.334 . S
C1573 C1574 1.287 . S
C1574 C1573 1.287 . S
C1574 C1575 1.524 . S
C1574 H1593 0.913 . S
C1575 H1551 0.950 . S
C1575 C1574 1.524 . S
C1575 C1576 1.415 . S
C1576 H1552 0.950 . S
C1576 C1571 1.363 . S
C1576 C1575 1.415 . S
C1577 H1553 0.951 . S
C1577 C1578 1.366 . S
C1577 C1579 1.388 . S
C1578 C1577 1.366 . S
C1578 C1582 1.385 . S
C1579 H1554 0.951 . S
C1579 C1577 1.388 . S
C1579 C1580 1.366 . S
C1580 C1579 1.366 . S
C1580 C1581 1.414 . S
C1580 C1583 1.499 . S
C1581 H1555 0.950 . S
C1581 C1580 1.414 . S
C1581 C1582 1.374 . S
C1582 H1556 0.950 . S
C1582 C1578 1.385 . S
C1582 C1581 1.374 . S
C1583 C1580 1.499 . S
C1583 C1584 1.373 . S
C1583 C1585 1.389 . S
C1584 H1557 0.950 . S
C1584 C1570 1.377 . S
C1584 C1583 1.373 . S
C1585 C1569 1.377 . S
C1585 C1583 1.389 . S
C1585 C1586 1.524 . S
C1586 C1585 1.524 . S
C1586 C1587 1.397 . S
C1586 C1591 1.363 . S
C1587 H1558 0.950 . S
C1587 C1586 1.397 . S
C1587 C1588 1.334 . S
C1588 H1559 0.950 . S
C1588 C1587 1.334 . S
C1588 C1589 1.287 . S
C1589 C1588 1.287 . S
C1589 C1590 1.524 . S
C1589 H1592 0.999 . S
C1590 H1560 0.950 . S
C1590 C1589 1.524 . S
C1590 C1591 1.415 . S
C1591 H1561 0.950 . S
C1591 C1586 1.363 . S
C1591 C1590 1.415 . S
H1592 C1589 0.999 . S
H1593 C1574 0.913 . S
H1594 C1612 0.951 . S
H1595 C1614 0.951 . S
H1596 C1616 0.950 . S
H1597 C1617 0.950 . S
H1598 C1619 0.950 . S
H1599 C1622 0.950 . S
H1600 C1623 0.950 . S
H1601 C1625 0.950 . S
H1602 C1626 0.950 . S
H1603 C1627 0.951 . S
H1604 C1629 0.951 . S
H1605 C1631 0.950 . S
H1606 C1632 0.950 . S
H1607 C1634 0.950 . S
H1608 C1637 0.950 . S
H1609 C1638 0.950 . S
H1610 C1640 0.950 . S
H1611 C1641 0.950 . S
C1612 H1594 0.951 . S
C1612 C1613 1.366 . S
C1612 C1614 1.388 . S
C1613 C1612 1.366 . S
C1613 C1617 1.385 . S
C1614 H1595 0.951 . S
C1614 C1612 1.388 . S
C1614 C1615 1.366 . S
C1615 C1614 1.366 . S
C1615 C1616 1.414 . S
C1615 C1618 1.499 . S
C1616 H1596 0.950 . S
C1616 C1615 1.414 . S
C1616 C1617 1.374 . S
C1617 H1597 0.950 . S
C1617 C1613 1.385 . S
C1617 C1616 1.374 . S
C1618 C1615 1.499 . S
C1618 C1619 1.373 . S
C1618 C1620 1.389 . S
C1619 H1598 0.950 . S
C1619 C1618 1.373 . S
C1619 C1635 1.377 . S
C1620 C1618 1.389 . S
C1620 C1621 1.524 . S
C1620 C1634 1.377 . S
C1621 C1620 1.524 . S
C1621 C1622 1.397 . S
C1621 C1626 1.363 . S
C1622 H1599 0.950 . S
C1622 C1621 1.397 . S
C1622 C1623 1.334 . S
C1623 H1600 0.950 . S
C1623 C1622 1.334 . S
C1623 C1624 1.287 . S
C1624 C1623 1.287 . S
C1624 C1625 1.524 . S
C1624 H1643 0.913 . S
C1625 H1601 0.950 . S
C1625 C1624 1.524 . S
C1625 C1626 1.415 . S
C1626 H1602 0.950 . S
C1626 C1621 1.363 . S
C1626 C1625 1.415 . S
C1627 H1603 0.951 . S
C1627 C1628 1.366 . S
C1627 C1629 1.388 . S
C1628 C1627 1.366 . S
C1628 C1632 1.385 . S
C1629 H1604 0.951 . S
C1629 C1627 1.388 . S
C1629 C1630 1.366 . S
C1630 C1629 1.366 . S
C1630 C1631 1.414 . S
C1630 C1633 1.499 . S
C1631 H1605 0.950 . S
C1631 C1630 1.414 . S
C1631 C1632 1.374 . S
C1632 H1606 0.950 . S
C1632 C1628 1.385 . S
C1632 C1631 1.374 . S
C1633 C1630 1.499 . S
C1633 C1634 1.373 . S
C1633 C1635 1.389 . S
C1634 H1607 0.950 . S
C1634 C1620 1.377 . S
C1634 C1633 1.373 . S
C1635 C1619 1.377 . S
C1635 C1633 1.389 . S
C1635 C1636 1.524 . S
C1636 C1635 1.524 . S
C1636 C1637 1.397 . S
C1636 C1641 1.363 . S
C1637 H1608 0.950 . S
C1637 C1636 1.397 . S
C1637 C1638 1.334 . S
C1638 H1609 0.950 . S
C1638 C1637 1.334 . S
C1638 C1639 1.287 . S
C1639 C1638 1.287 . S
C1639 C1640 1.524 . S
C1639 H1642 0.999 . S
C1640 H1610 0.950 . S
C1640 C1639 1.524 . S
C1640 C1641 1.415 . S
C1641 H1611 0.950 . S
C1641 C1636 1.363 . S
C1641 C1640 1.415 . S
H1642 C1639 0.999 . S
H1643 C1624 0.913 . S
H1644 C1662 0.951 . S
H1645 C1664 0.951 . S
H1646 C1666 0.950 . S
H1647 C1667 0.950 . S
H1648 C1669 0.950 . S
H1649 C1672 0.950 . S
H1650 C1673 0.950 . S
H1651 C1675 0.950 . S
H1652 C1676 0.950 . S
H1653 C1677 0.951 . S
H1654 C1679 0.951 . S
H1655 C1681 0.950 . S
H1656 C1682 0.950 . S
H1657 C1684 0.950 . S
H1658 C1687 0.950 . S
H1659 C1688 0.950 . S
H1660 C1690 0.950 . S
H1661 C1691 0.950 . S
C1662 H1644 0.951 . S
C1662 C1663 1.366 . S
C1662 C1664 1.388 . S
C1663 C1662 1.366 . S
C1663 C1667 1.385 . S
C1664 H1645 0.951 . S
C1664 C1662 1.388 . S
C1664 C1665 1.366 . S
C1665 C1664 1.366 . S
C1665 C1666 1.414 . S
C1665 C1668 1.499 . S
C1666 H1646 0.950 . S
C1666 C1665 1.414 . S
C1666 C1667 1.374 . S
C1667 H1647 0.950 . S
C1667 C1663 1.385 . S
C1667 C1666 1.374 . S
C1668 C1665 1.499 . S
C1668 C1669 1.373 . S
C1668 C1670 1.389 . S
C1669 H1648 0.950 . S
C1669 C1668 1.373 . S
C1669 C1685 1.377 . S
C1670 C1668 1.389 . S
C1670 C1671 1.524 . S
C1670 C1684 1.377 . S
C1671 C1670 1.524 . S
C1671 C1672 1.397 . S
C1671 C1676 1.363 . S
C1672 H1649 0.950 . S
C1672 C1671 1.397 . S
C1672 C1673 1.334 . S
C1673 H1650 0.950 . S
C1673 C1672 1.334 . S
C1673 C1674 1.287 . S
C1674 C1673 1.287 . S
C1674 C1675 1.524 . S
C1674 H1693 0.913 . S
C1675 H1651 0.950 . S
C1675 C1674 1.524 . S
C1675 C1676 1.415 . S
C1676 H1652 0.950 . S
C1676 C1671 1.363 . S
C1676 C1675 1.415 . S
C1677 H1653 0.951 . S
C1677 C1678 1.366 . S
C1677 C1679 1.388 . S
C1678 C1677 1.366 . S
C1678 C1682 1.385 . S
C1679 H1654 0.951 . S
C1679 C1677 1.388 . S
C1679 C1680 1.366 . S
C1680 C1679 1.366 . S
C1680 C1681 1.414 . S
C1680 C1683 1.499 . S
C1681 H1655 0.950 . S
C1681 C1680 1.414 . S
C1681 C1682 1.374 . S
C1682 H1656 0.950 . S
C1682 C1678 1.385 . S
C1682 C1681 1.374 . S
C1683 C1680 1.499 . S
C1683 C1684 1.373 . S
C1683 C1685 1.389 . S
C1684 H1657 0.950 . S
C1684 C1670 1.377 . S
C1684 C1683 1.373 . S
C1685 C1669 1.377 . S
C1685 C1683 1.389 . S
C1685 C1686 1.524 . S
C1686 C1685 1.524 . S
C1686 C1687 1.397 . S
C1686 C1691 1.363 . S
C1687 H1658 0.950 . S
C1687 C1686 1.397 . S
C1687 C1688 1.334 . S
C1688 H1659 0.950 . S
C1688 C1687 1.334 . S
C1688 C1689 1.287 . S
C1689 C1688 1.287 . S
C1689 C1690 1.524 . S
C1689 H1692 0.999 . S
C1690 H1660 0.950 . S
C1690 C1689 1.524 . S
C1690 C1691 1.415 . S
C1691 H1661 0.950 . S
C1691 C1686 1.363 . S
C1691 C1690 1.415 . S
H1692 C1689 0.999 . S
H1693 C1674 0.913 . S
H1694 C1712 0.951 . S
H1695 C1714 0.951 . S
H1696 C1716 0.950 . S
H1697 C1717 0.950 . S
H1698 C1719 0.950 . S
H1699 C1722 0.950 . S
H1700 C1723 0.950 . S
H1701 C1725 0.950 . S
H1702 C1726 0.950 . S
H1703 C1727 0.951 . S
H1704 C1729 0.951 . S
H1705 C1731 0.950 . S
H1706 C1732 0.950 . S
H1707 C1734 0.950 . S
H1708 C1737 0.950 . S
H1709 C1738 0.950 . S
H1710 C1740 0.950 . S
H1711 C1741 0.950 . S
C1712 H1694 0.951 . S
C1712 C1713 1.366 . S
C1712 C1714 1.388 . S
C1713 C1712 1.366 . S
C1713 C1717 1.385 . S
C1714 H1695 0.951 . S
C1714 C1712 1.388 . S
C1714 C1715 1.366 . S
C1715 C1714 1.366 . S
C1715 C1716 1.414 . S
C1715 C1718 1.499 . S
C1716 H1696 0.950 . S
C1716 C1715 1.414 . S
C1716 C1717 1.374 . S
C1717 H1697 0.950 . S
C1717 C1713 1.385 . S
C1717 C1716 1.374 . S
C1718 C1715 1.499 . S
C1718 C1719 1.373 . S
C1718 C1720 1.389 . S
C1719 H1698 0.950 . S
C1719 C1718 1.373 . S
C1719 C1735 1.377 . S
C1720 C1718 1.389 . S
C1720 C1721 1.524 . S
C1720 C1734 1.377 . S
C1721 C1720 1.524 . S
C1721 C1722 1.397 . S
C1721 C1726 1.363 . S
C1722 H1699 0.950 . S
C1722 C1721 1.397 . S
C1722 C1723 1.334 . S
C1723 H1700 0.950 . S
C1723 C1722 1.334 . S
C1723 C1724 1.287 . S
C1724 C1723 1.287 . S
C1724 C1725 1.524 . S
C1724 H1743 0.913 . S
C1725 H1701 0.950 . S
C1725 C1724 1.524 . S
C1725 C1726 1.415 . S
C1726 H1702 0.950 . S
C1726 C1721 1.363 . S
C1726 C1725 1.415 . S
C1727 H1703 0.951 . S
C1727 C1728 1.366 . S
C1727 C1729 1.388 . S
C1728 C1727 1.366 . S
C1728 C1732 1.385 . S
C1729 H1704 0.951 . S
C1729 C1727 1.388 . S
C1729 C1730 1.366 . S
C1730 C1729 1.366 . S
C1730 C1731 1.414 . S
C1730 C1733 1.499 . S
C1731 H1705 0.950 . S
C1731 C1730 1.414 . S
C1731 C1732 1.374 . S
C1732 H1706 0.950 . S
C1732 C1728 1.385 . S
C1732 C1731 1.374 . S
C1733 C1730 1.499 . S
C1733 C1734 1.373 . S
C1733 C1735 1.389 . S
C1734 H1707 0.950 . S
C1734 C1720 1.377 . S
C1734 C1733 1.373 . S
C1735 C1719 1.377 . S
C1735 C1733 1.389 . S
C1735 C1736 1.524 . S
C1736 C1735 1.524 . S
C1736 C1737 1.397 . S
C1736 C1741 1.363 . S
C1737 H1708 0.950 . S
C1737 C1736 1.397 . S
C1737 C1738 1.334 . S
C1738 H1709 0.950 . S
C1738 C1737 1.334 . S
C1738 C1739 1.287 . S
C1739 C1738 1.287 . S
C1739 C1740 1.524 . S
C1739 H1742 0.999 . S
C1740 H1710 0.950 . S
C1740 C1739 1.524 . S
C1740 C1741 1.415 . S
C1741 H1711 0.950 . S
C1741 C1736 1.363 . S
C1741 C1740 1.415 . S
H1742 C1739 0.999 . S
H1743 C1724 0.913 . S
H1744 C1762 0.951 . S
H1745 C1764 0.951 . S
H1746 C1766 0.950 . S
H1747 C1767 0.950 . S
H1748 C1769 0.950 . S
H1749 C1772 0.950 . S
H1750 C1773 0.950 . S
H1751 C1775 0.950 . S
H1752 C1776 0.950 . S
H1753 C1777 0.951 . S
H1754 C1779 0.951 . S
H1755 C1781 0.950 . S
H1756 C1782 0.950 . S
H1757 C1784 0.950 . S
H1758 C1787 0.950 . S
H1759 C1788 0.950 . S
H1760 C1790 0.950 . S
H1761 C1791 0.950 . S
C1762 H1744 0.951 . S
C1762 C1763 1.366 . S
C1762 C1764 1.388 . S
C1763 C1762 1.366 . S
C1763 C1767 1.385 . S
C1764 H1745 0.951 . S
C1764 C1762 1.388 . S
C1764 C1765 1.366 . S
C1765 C1764 1.366 . S
C1765 C1766 1.414 . S
C1765 C1768 1.499 . S
C1766 H1746 0.950 . S
C1766 C1765 1.414 . S
C1766 C1767 1.374 . S
C1767 H1747 0.950 . S
C1767 C1763 1.385 . S
C1767 C1766 1.374 . S
C1768 C1765 1.499 . S
C1768 C1769 1.373 . S
C1768 C1770 1.389 . S
C1769 H1748 0.950 . S
C1769 C1768 1.373 . S
C1769 C1785 1.377 . S
C1770 C1768 1.389 . S
C1770 C1771 1.524 . S
C1770 C1784 1.377 . S
C1771 C1770 1.524 . S
C1771 C1772 1.397 . S
C1771 C1776 1.363 . S
C1772 H1749 0.950 . S
C1772 C1771 1.397 . S
C1772 C1773 1.334 . S
C1773 H1750 0.950 . S
C1773 C1772 1.334 . S
C1773 C1774 1.287 . S
C1774 C1773 1.287 . S
C1774 C1775 1.524 . S
C1774 H1793 0.913 . S
C1775 H1751 0.950 . S
C1775 C1774 1.524 . S
C1775 C1776 1.415 . S
C1776 H1752 0.950 . S
C1776 C1771 1.363 . S
C1776 C1775 1.415 . S
C1777 H1753 0.951 . S
C1777 C1778 1.366 . S
C1777 C1779 1.388 . S
C1778 C1777 1.366 . S
C1778 C1782 1.385 . S
C1779 H1754 0.951 . S
C1779 C1777 1.388 . S
C1779 C1780 1.366 . S
C1780 C1779 1.366 . S
C1780 C1781 1.414 . S
C1780 C1783 1.499 . S
C1781 H1755 0.950 . S
C1781 C1780 1.414 . S
C1781 C1782 1.374 . S
C1782 H1756 0.950 . S
C1782 C1778 1.385 . S
C1782 C1781 1.374 . S
C1783 C1780 1.499 . S
C1783 C1784 1.373 . S
C1783 C1785 1.389 . S
C1784 H1757 0.950 . S
C1784 C1770 1.377 . S
C1784 C1783 1.373 . S
C1785 C1769 1.377 . S
C1785 C1783 1.389 . S
C1785 C1786 1.524 . S
C1786 C1785 1.524 . S
C1786 C1787 1.397 . S
C1786 C1791 1.363 . S
C1787 H1758 0.950 . S
C1787 C1786 1.397 . S
C1787 C1788 1.334 . S
C1788 H1759 0.950 . S
C1788 C1787 1.334 . S
C1788 C1789 1.287 . S
C1789 C1788 1.287 . S
C1789 C1790 1.524 . S
C1789 H1792 0.999 . S
C1790 H1760 0.950 . S
C1790 C1789 1.524 . S
C1790 C1791 1.415 . S
C1791 H1761 0.950 . S
C1791 C1786 1.363 . S
C1791 C1790 1.415 . S
H1792 C1789 0.999 . S
H1793 C1774 0.913 . S
H1794 C1812 0.951 . S
H1795 C1814 0.951 . S
H1796 C1816 0.950 . S
H1797 C1817 0.950 . S
H1798 C1819 0.950 . S
H1799 C1822 0.950 . S
H1800 C1823 0.950 . S
H1801 C1825 0.950 . S
H1802 C1826 0.950 . S
H1803 C1827 0.951 . S
H1804 C1829 0.951 . S
H1805 C1831 0.950 . S
H1806 C1832 0.950 . S
H1807 C1834 0.950 . S
H1808 C1837 0.950 . S
H1809 C1838 0.950 . S
H1810 C1840 0.950 . S
H1811 C1841 0.950 . S
C1812 H1794 0.951 . S
C1812 C1813 1.366 . S
C1812 C1814 1.388 . S
C1813 C1812 1.366 . S
C1813 C1817 1.385 . S
C1814 H1795 0.951 . S
C1814 C1812 1.388 . S
C1814 C1815 1.366 . S
C1815 C1814 1.366 . S
C1815 C1816 1.414 . S
C1815 C1818 1.499 . S
C1816 H1796 0.950 . S
C1816 C1815 1.414 . S
C1816 C1817 1.374 . S
C1817 H1797 0.950 . S
C1817 C1813 1.385 . S
C1817 C1816 1.374 . S
C1818 C1815 1.499 . S
C1818 C1819 1.373 . S
C1818 C1820 1.389 . S
C1819 H1798 0.950 . S
C1819 C1818 1.373 . S
C1819 C1835 1.377 . S
C1820 C1818 1.389 . S
C1820 C1821 1.524 . S
C1820 C1834 1.377 . S
C1821 C1820 1.524 . S
C1821 C1822 1.397 . S
C1821 C1826 1.363 . S
C1822 H1799 0.950 . S
C1822 C1821 1.397 . S
C1822 C1823 1.334 . S
C1823 H1800 0.950 . S
C1823 C1822 1.334 . S
C1823 C1824 1.287 . S
C1824 C1823 1.287 . S
C1824 C1825 1.524 . S
C1824 H1843 0.913 . S
C1825 H1801 0.950 . S
C1825 C1824 1.524 . S
C1825 C1826 1.415 . S
C1826 H1802 0.950 . S
C1826 C1821 1.363 . S
C1826 C1825 1.415 . S
C1827 H1803 0.951 . S
C1827 C1828 1.366 . S
C1827 C1829 1.388 . S
C1828 C1827 1.366 . S
C1828 C1832 1.385 . S
C1829 H1804 0.951 . S
C1829 C1827 1.388 . S
C1829 C1830 1.366 . S
C1830 C1829 1.366 . S
C1830 C1831 1.414 . S
C1830 C1833 1.499 . S
C1831 H1805 0.950 . S
C1831 C1830 1.414 . S
C1831 C1832 1.374 . S
C1832 H1806 0.950 . S
C1832 C1828 1.385 . S
C1832 C1831 1.374 . S
C1833 C1830 1.499 . S
C1833 C1834 1.373 . S
C1833 C1835 1.389 . S
C1834 H1807 0.950 . S
C1834 C1820 1.377 . S
C1834 C1833 1.373 . S
C1835 C1819 1.377 . S
C1835 C1833 1.389 . S
C1835 C1836 1.524 . S
C1836 C1835 1.524 . S
C1836 C1837 1.397 . S
C1836 C1841 1.363 . S
C1837 H1808 0.950 . S
C1837 C1836 1.397 . S
C1837 C1838 1.334 . S
C1838 H1809 0.950 . S
C1838 C1837 1.334 . S
C1838 C1839 1.287 . S
C1839 C1838 1.287 . S
C1839 C1840 1.524 . S
C1839 H1842 0.999 . S
C1840 H1810 0.950 . S
C1840 C1839 1.524 . S
C1840 C1841 1.415 . S
C1841 H1811 0.950 . S
C1841 C1836 1.363 . S
C1841 C1840 1.415 . S
H1842 C1839 0.999 . S
H1843 C1824 0.913 . S
H1844 C1862 0.951 . S
H1845 C1864 0.951 . S
H1846 C1866 0.950 . S
H1847 C1867 0.950 . S
H1848 C1869 0.950 . S
H1849 C1872 0.950 . S
H1850 C1873 0.950 . S
H1851 C1875 0.950 . S
H1852 C1876 0.950 . S
H1853 C1877 0.951 . S
H1854 C1879 0.951 . S
H1855 C1881 0.950 . S
H1856 C1882 0.950 . S
H1857 C1884 0.950 . S
H1858 C1887 0.950 . S
H1859 C1888 0.950 . S
H1860 C1890 0.950 . S
H1861 C1891 0.950 . S
C1862 H1844 0.951 . S
C1862 C1863 1.366 . S
C1862 C1864 1.388 . S
C1863 C1862 1.366 . S
C1863 C1867 1.385 . S
C1864 H1845 0.951 . S
C1864 C1862 1.388 . S
C1864 C1865 1.366 . S
C1865 C1864 1.366 . S
C1865 C1866 1.414 . S
C1865 C1868 1.499 . S
C1866 H1846 0.950 . S
C1866 C1865 1.414 . S
C1866 C1867 1.374 . S
C1867 H1847 0.950 . S
C1867 C1863 1.385 . S
C1867 C1866 1.374 . S
C1868 C1865 1.499 . S
C1868 C1869 1.373 . S
C1868 C1870 1.389 . S
C1869 H1848 0.950 . S
C1869 C1868 1.373 . S
C1869 C1885 1.377 . S
C1870 C1868 1.389 . S
C1870 C1871 1.524 . S
C1870 C1884 1.377 . S
C1871 C1870 1.524 . S
C1871 C1872 1.397 . S
C1871 C1876 1.363 . S
C1872 H1849 0.950 . S
C1872 C1871 1.397 . S
C1872 C1873 1.334 . S
C1873 H1850 0.950 . S
C1873 C1872 1.334 . S
C1873 C1874 1.287 . S
C1874 C1873 1.287 . S
C1874 C1875 1.524 . S
C1874 H1893 0.913 . S
C1875 H1851 0.950 . S
C1875 C1874 1.524 . S
C1875 C1876 1.415 . S
C1876 H1852 0.950 . S
C1876 C1871 1.363 . S
C1876 C1875 1.415 . S
C1877 H1853 0.951 . S
C1877 C1878 1.366 . S
C1877 C1879 1.388 . S
C1878 C1877 1.366 . S
C1878 C1882 1.385 . S
C1879 H1854 0.951 . S
C1879 C1877 1.388 . S
C1879 C1880 1.366 . S
C1880 C1879 1.366 . S
C1880 C1881 1.414 . S
C1880 C1883 1.499 . S
C1881 H1855 0.950 . S
C1881 C1880 1.414 . S
C1881 C1882 1.374 . S
C1882 H1856 0.950 . S
C1882 C1878 1.385 . S
C1882 C1881 1.374 . S
C1883 C1880 1.499 . S
C1883 C1884 1.373 . S
C1883 C1885 1.389 . S
C1884 H1857 0.950 . S
C1884 C1870 1.377 . S
C1884 C1883 1.373 . S
C1885 C1869 1.377 . S
C1885 C1883 1.389 . S
C1885 C1886 1.524 . S
C1886 C1885 1.524 . S
C1886 C1887 1.397 . S
C1886 C1891 1.363 . S
C1887 H1858 0.950 . S
C1887 C1886 1.397 . S
C1887 C1888 1.334 . S
C1888 H1859 0.950 . S
C1888 C1887 1.334 . S
C1888 C1889 1.287 . S
C1889 C1888 1.287 . S
C1889 C1890 1.524 . S
C1889 H1892 0.999 . S
C1890 H1860 0.950 . S
C1890 C1889 1.524 . S
C1890 C1891 1.415 . S
C1891 H1861 0.950 . S
C1891 C1886 1.363 . S
C1891 C1890 1.415 . S
H1892 C1889 0.999 . S
H1893 C1874 0.913 . S
H1894 C1912 0.951 . S
H1895 C1914 0.951 . S
H1896 C1916 0.950 . S
H1897 C1917 0.950 . S
H1898 C1919 0.950 . S
H1899 C1922 0.950 . S
H1900 C1923 0.950 . S
H1901 C1925 0.950 . S
H1902 C1926 0.950 . S
H1903 C1927 0.951 . S
H1904 C1929 0.951 . S
H1905 C1931 0.950 . S
H1906 C1932 0.950 . S
H1907 C1934 0.950 . S
H1908 C1937 0.950 . S
H1909 C1938 0.950 . S
H1910 C1940 0.950 . S
H1911 C1941 0.950 . S
C1912 H1894 0.951 . S
C1912 C1913 1.366 . S
C1912 C1914 1.388 . S
C1913 C1912 1.366 . S
C1913 C1917 1.385 . S
C1914 H1895 0.951 . S
C1914 C1912 1.388 . S
C1914 C1915 1.366 . S
C1915 C1914 1.366 . S
C1915 C1916 1.414 . S
C1915 C1918 1.499 . S
C1916 H1896 0.950 . S
C1916 C1915 1.414 . S
C1916 C1917 1.374 . S
C1917 H1897 0.950 . S
C1917 C1913 1.385 . S
C1917 C1916 1.374 . S
C1918 C1915 1.499 . S
C1918 C1919 1.373 . S
C1918 C1920 1.389 . S
C1919 H1898 0.950 . S
C1919 C1918 1.373 . S
C1919 C1935 1.377 . S
C1920 C1918 1.389 . S
C1920 C1921 1.524 . S
C1920 C1934 1.377 . S
C1921 C1920 1.524 . S
C1921 C1922 1.397 . S
C1921 C1926 1.363 . S
C1922 H1899 0.950 . S
C1922 C1921 1.397 . S
C1922 C1923 1.334 . S
C1923 H1900 0.950 . S
C1923 C1922 1.334 . S
C1923 C1924 1.287 . S
C1924 C1923 1.287 . S
C1924 C1925 1.524 . S
C1924 H1943 0.913 . S
C1925 H1901 0.950 . S
C1925 C1924 1.524 . S
C1925 C1926 1.415 . S
C1926 H1902 0.950 . S
C1926 C1921 1.363 . S
C1926 C1925 1.415 . S
C1927 H1903 0.951 . S
C1927 C1928 1.366 . S
C1927 C1929 1.388 . S
C1928 C1927 1.366 . S
C1928 C1932 1.385 . S
C1929 H1904 0.951 . S
C1929 C1927 1.388 . S
C1929 C1930 1.366 . S
C1930 C1929 1.366 . S
C1930 C1931 1.414 . S
C1930 C1933 1.499 . S
C1931 H1905 0.950 . S
C1931 C1930 1.414 . S
C1931 C1932 1.374 . S
C1932 H1906 0.950 . S
C1932 C1928 1.385 . S
C1932 C1931 1.374 . S
C1933 C1930 1.499 . S
C1933 C1934 1.373 . S
C1933 C1935 1.389 . S
C1934 H1907 0.950 . S
C1934 C1920 1.377 . S
C1934 C1933 1.373 . S
C1935 C1919 1.377 . S
C1935 C1933 1.389 . S
C1935 C1936 1.524 . S
C1936 C1935 1.524 . S
C1936 C1937 1.397 . S
C1936 C1941 1.363 . S
C1937 H1908 0.950 . S
C1937 C1936 1.397 . S
C1937 C1938 1.334 . S
C1938 H1909 0.950 . S
C1938 C1937 1.334 . S
C1938 C1939 1.287 . S
C1939 C1938 1.287 . S
C1939 C1940 1.524 . S
C1939 H1942 0.999 . S
C1940 H1910 0.950 . S
C1940 C1939 1.524 . S
C1940 C1941 1.415 . S
C1941 H1911 0.950 . S
C1941 C1936 1.363 . S
C1941 C1940 1.415 . S
H1942 C1939 0.999 . S
H1943 C1924 0.913 . S
H1944 C1962 0.951 . S
H1945 C1964 0.951 . S
H1946 C1966 0.950 . S
H1947 C1967 0.950 . S
H1948 C1969 0.950 . S
H1949 C1972 0.950 1_556 S
H1950 C1973 0.950 . S
H1951 C1975 0.950 . S
H1952 C1976 0.950 . S
H1953 C1977 0.951 . S
H1954 C1979 0.951 . S
H1955 C1981 0.950 . S
H1956 C1982 0.950 . S
H1957 C1984 0.950 . S
H1958 C1987 0.950 . S
H1959 C1988 0.950 . S
H1960 C1990 0.950 . S
H1961 C1991 0.950 . S
C1962 H1944 0.951 . S
C1962 C1963 1.366 . S
C1962 C1964 1.388 . S
C1963 C1962 1.366 . S
C1963 C1967 1.385 . S
C1964 H1945 0.951 . S
C1964 C1962 1.388 . S
C1964 C1965 1.366 . S
C1965 C1964 1.366 . S
C1965 C1966 1.414 . S
C1965 C1968 1.499 . S
C1966 H1946 0.950 . S
C1966 C1965 1.414 . S
C1966 C1967 1.374 . S
C1967 H1947 0.950 . S
C1967 C1963 1.385 . S
C1967 C1966 1.374 . S
C1968 C1965 1.499 . S
C1968 C1969 1.373 . S
C1968 C1970 1.389 1_556 S
C1969 H1948 0.950 . S
C1969 C1968 1.373 . S
C1969 C1985 1.377 . S
C1970 C1968 1.389 1_554 S
C1970 C1971 1.524 . S
C1970 C1984 1.377 . S
C1971 C1970 1.524 . S
C1971 C1972 1.397 . S
C1971 C1976 1.363 . S
C1972 H1949 0.950 1_554 S
C1972 C1971 1.397 . S
C1972 C1973 1.334 . S
C1973 H1950 0.950 . S
C1973 C1972 1.334 . S
C1973 C1974 1.287 . S
C1974 C1973 1.287 . S
C1974 C1975 1.524 . S
C1974 H1993 0.913 . S
C1975 H1951 0.950 . S
C1975 C1974 1.524 . S
C1975 C1976 1.415 . S
C1976 H1952 0.950 . S
C1976 C1971 1.363 . S
C1976 C1975 1.415 . S
C1977 H1953 0.951 . S
C1977 C1978 1.366 . S
C1977 C1979 1.388 . S
C1978 C1977 1.366 . S
C1978 C1982 1.385 . S
C1979 H1954 0.951 . S
C1979 C1977 1.388 . S
C1979 C1980 1.366 . S
C1980 C1979 1.366 . S
C1980 C1981 1.414 . S
C1980 C1983 1.499 . S
C1981 H1955 0.950 . S
C1981 C1980 1.414 . S
C1981 C1982 1.374 . S
C1982 H1956 0.950 . S
C1982 C1978 1.385 . S
C1982 C1981 1.374 . S
C1983 C1980 1.499 . S
C1983 C1984 1.373 . S
C1983 C1985 1.389 1_554 S
C1984 H1957 0.950 . S
C1984 C1970 1.377 . S
C1984 C1983 1.373 . S
C1985 C1969 1.377 . S
C1985 C1983 1.389 1_556 S
C1985 C1986 1.524 . S
C1986 C1985 1.524 . S
C1986 C1987 1.397 . S
C1986 C1991 1.363 . S
C1987 H1958 0.950 . S
C1987 C1986 1.397 . S
C1987 C1988 1.334 . S
C1988 H1959 0.950 . S
C1988 C1987 1.334 . S
C1988 C1989 1.287 . S
C1989 C1988 1.287 . S
C1989 C1990 1.524 . S
C1989 H1992 0.999 . S
C1990 H1960 0.950 . S
C1990 C1989 1.524 . S
C1990 C1991 1.415 . S
C1991 H1961 0.950 . S
C1991 C1986 1.363 . S
C1991 C1990 1.415 . S
H1992 C1989 0.999 . S
H1993 C1974 0.913 . S
H1994 C2012 0.951 . S
H1995 C2014 0.951 . S
H1996 C2016 0.950 . S
H1997 C2017 0.950 . S
H1998 C2019 0.950 . S
H1999 C2022 0.950 . S
H2000 C2023 0.950 . S
H2001 C2025 0.950 . S
H2002 C2026 0.950 1_556 S
H2003 C2027 0.951 . S
H2004 C2029 0.951 . S
H2005 C2031 0.950 . S
H2006 C2032 0.950 . S
H2007 C2034 0.950 . S
H2008 C2037 0.950 . S
H2009 C2038 0.950 . S
H2010 C2040 0.950 . S
H2011 C2041 0.950 1_554 S
C2012 H1994 0.951 . S
C2012 C2013 1.366 . S
C2012 C2014 1.388 . S
C2013 C2012 1.366 . S
C2013 C2017 1.385 . S
C2014 H1995 0.951 . S
C2014 C2012 1.388 . S
C2014 C2015 1.366 . S
C2015 C2014 1.366 . S
C2015 C2016 1.414 . S
C2015 C2018 1.499 . S
C2016 H1996 0.950 . S
C2016 C2015 1.414 . S
C2016 C2017 1.374 . S
C2017 H1997 0.950 . S
C2017 C2013 1.385 . S
C2017 C2016 1.374 . S
C2018 C2015 1.499 . S
C2018 C2019 1.373 . S
C2018 C2020 1.389 . S
C2019 H1998 0.950 . S
C2019 C2018 1.373 . S
C2019 C2035 1.377 1_554 S
C2020 C2018 1.389 . S
C2020 C2021 1.524 . S
C2020 C2034 1.377 1_554 S
C2021 C2020 1.524 . S
C2021 C2022 1.397 . S
C2021 C2026 1.363 . S
C2022 H1999 0.950 . S
C2022 C2021 1.397 . S
C2022 C2023 1.334 . S
C2023 H2000 0.950 . S
C2023 C2022 1.334 . S
C2023 C2024 1.287 . S
C2024 C2023 1.287 . S
C2024 C2025 1.524 . S
C2024 H2043 0.913 . S
C2025 H2001 0.950 . S
C2025 C2024 1.524 . S
C2025 C2026 1.415 . S
C2026 H2002 0.950 1_554 S
C2026 C2021 1.363 . S
C2026 C2025 1.415 . S
C2027 H2003 0.951 . S
C2027 C2028 1.366 . S
C2027 C2029 1.388 . S
C2028 C2027 1.366 . S
C2028 C2032 1.385 . S
C2029 H2004 0.951 . S
C2029 C2027 1.388 . S
C2029 C2030 1.366 . S
C2030 C2029 1.366 . S
C2030 C2031 1.414 . S
C2030 C2033 1.499 . S
C2031 H2005 0.950 . S
C2031 C2030 1.414 . S
C2031 C2032 1.374 . S
C2032 H2006 0.950 . S
C2032 C2028 1.385 . S
C2032 C2031 1.374 . S
C2033 C2030 1.499 . S
C2033 C2034 1.373 . S
C2033 C2035 1.389 . S
C2034 H2007 0.950 . S
C2034 C2020 1.377 1_556 S
C2034 C2033 1.373 . S
C2035 C2019 1.377 1_556 S
C2035 C2033 1.389 . S
C2035 C2036 1.524 . S
C2036 C2035 1.524 . S
C2036 C2037 1.397 . S
C2036 C2041 1.363 . S
C2037 H2008 0.950 . S
C2037 C2036 1.397 . S
C2037 C2038 1.334 . S
C2038 H2009 0.950 . S
C2038 C2037 1.334 . S
C2038 C2039 1.287 . S
C2039 C2038 1.287 . S
C2039 C2040 1.524 . S
C2039 H2042 0.999 . S
C2040 H2010 0.950 . S
C2040 C2039 1.524 . S
C2040 C2041 1.415 . S
C2041 H2011 0.950 1_556 S
C2041 C2036 1.363 . S
C2041 C2040 1.415 . S
H2042 C2039 0.999 . S
H2043 C2024 0.913 . S
H2044 C2062 0.951 . S
H2045 C2064 0.951 . S
H2046 C2066 0.950 . S
H2047 C2067 0.950 . S
H2048 C2069 0.950 . S
H2049 C2072 0.950 . S
H2050 C2073 0.950 . S
H2051 C2075 0.950 . S
H2052 C2076 0.950 1_554 S
H2053 C2077 0.951 . S
H2054 C2079 0.951 . S
H2055 C2081 0.950 . S
H2056 C2082 0.950 . S
H2057 C2084 0.950 . S
H2058 C2087 0.950 . S
H2059 C2088 0.950 . S
H2060 C2090 0.950 . S
H2061 C2091 0.950 1_556 S
C2062 H2044 0.951 . S
C2062 C2063 1.366 . S
C2062 C2064 1.388 . S
C2063 C2062 1.366 . S
C2063 C2067 1.385 . S
C2064 H2045 0.951 . S
C2064 C2062 1.388 . S
C2064 C2065 1.366 . S
C2065 C2064 1.366 . S
C2065 C2066 1.414 . S
C2065 C2068 1.499 . S
C2066 H2046 0.950 . S
C2066 C2065 1.414 . S
C2066 C2067 1.374 . S
C2067 H2047 0.950 . S
C2067 C2063 1.385 . S
C2067 C2066 1.374 . S
C2068 C2065 1.499 . S
C2068 C2069 1.373 . S
C2068 C2070 1.389 . S
C2069 H2048 0.950 . S
C2069 C2068 1.373 . S
C2069 C2085 1.377 1_556 S
C2070 C2068 1.389 . S
C2070 C2071 1.524 . S
C2070 C2084 1.377 1_556 S
C2071 C2070 1.524 . S
C2071 C2072 1.397 . S
C2071 C2076 1.363 . S
C2072 H2049 0.950 . S
C2072 C2071 1.397 . S
C2072 C2073 1.334 . S
C2073 H2050 0.950 . S
C2073 C2072 1.334 . S
C2073 C2074 1.287 . S
C2074 C2073 1.287 . S
C2074 C2075 1.524 . S
C2074 H2093 0.913 . S
C2075 H2051 0.950 . S
C2075 C2074 1.524 . S
C2075 C2076 1.415 . S
C2076 H2052 0.950 1_556 S
C2076 C2071 1.363 . S
C2076 C2075 1.415 . S
C2077 H2053 0.951 . S
C2077 C2078 1.366 . S
C2077 C2079 1.388 . S
C2078 C2077 1.366 . S
C2078 C2082 1.385 . S
C2079 H2054 0.951 . S
C2079 C2077 1.388 . S
C2079 C2080 1.366 . S
C2080 C2079 1.366 . S
C2080 C2081 1.414 . S
C2080 C2083 1.499 . S
C2081 H2055 0.950 . S
C2081 C2080 1.414 . S
C2081 C2082 1.374 . S
C2082 H2056 0.950 . S
C2082 C2078 1.385 . S
C2082 C2081 1.374 . S
C2083 C2080 1.499 . S
C2083 C2084 1.373 . S
C2083 C2085 1.389 . S
C2084 H2057 0.950 . S
C2084 C2070 1.377 1_554 S
C2084 C2083 1.373 . S
C2085 C2069 1.377 1_554 S
C2085 C2083 1.389 . S
C2085 C2086 1.524 . S
C2086 C2085 1.524 . S
C2086 C2087 1.397 . S
C2086 C2091 1.363 . S
C2087 H2058 0.950 . S
C2087 C2086 1.397 . S
C2087 C2088 1.334 . S
C2088 H2059 0.950 . S
C2088 C2087 1.334 . S
C2088 C2089 1.287 . S
C2089 C2088 1.287 . S
C2089 C2090 1.524 . S
C2089 H2092 0.999 . S
C2090 H2060 0.950 . S
C2090 C2089 1.524 . S
C2090 C2091 1.415 . S
C2091 H2061 0.950 1_554 S
C2091 C2086 1.363 . S
C2091 C2090 1.415 . S
H2092 C2089 0.999 . S
H2093 C2074 0.913 . S
H2094 C2112 0.951 . S
H2095 C2114 0.951 . S
H2096 C2116 0.950 . S
H2097 C2117 0.950 . S
H2098 C2119 0.950 . S
H2099 C2122 0.950 . S
H2100 C2123 0.950 . S
H2101 C2125 0.950 . S
H2102 C2126 0.950 . S
H2103 C2127 0.951 . S
H2104 C2129 0.951 . S
H2105 C2131 0.950 . S
H2106 C2132 0.950 . S
H2107 C2134 0.950 . S
H2108 C2137 0.950 . S
H2109 C2138 0.950 . S
H2110 C2140 0.950 . S
H2111 C2141 0.950 . S
C2112 H2094 0.951 . S
C2112 C2113 1.366 . S
C2112 C2114 1.388 . S
C2113 C2112 1.366 . S
C2113 C2117 1.385 . S
C2114 H2095 0.951 . S
C2114 C2112 1.388 . S
C2114 C2115 1.366 . S
C2115 C2114 1.366 . S
C2115 C2116 1.414 . S
C2115 C2118 1.499 . S
C2116 H2096 0.950 . S
C2116 C2115 1.414 . S
C2116 C2117 1.374 . S
C2117 H2097 0.950 . S
C2117 C2113 1.385 . S
C2117 C2116 1.374 . S
C2118 C2115 1.499 . S
C2118 C2119 1.373 1_554 S
C2118 C2120 1.389 . S
C2119 H2098 0.950 . S
C2119 C2118 1.373 1_556 S
C2119 C2135 1.377 . S
C2120 C2118 1.389 . S
C2120 C2121 1.524 . S
C2120 C2134 1.377 1_554 S
C2121 C2120 1.524 . S
C2121 C2122 1.397 . S
C2121 C2126 1.363 . S
C2122 H2099 0.950 . S
C2122 C2121 1.397 . S
C2122 C2123 1.334 . S
C2123 H2100 0.950 . S
C2123 C2122 1.334 . S
C2123 C2124 1.287 . S
C2124 C2123 1.287 . S
C2124 C2125 1.524 . S
C2124 H2143 0.913 . S
C2125 H2101 0.950 . S
C2125 C2124 1.524 . S
C2125 C2126 1.415 . S
C2126 H2102 0.950 . S
C2126 C2121 1.363 . S
C2126 C2125 1.415 . S
C2127 H2103 0.951 . S
C2127 C2128 1.366 . S
C2127 C2129 1.388 . S
C2128 C2127 1.366 . S
C2128 C2132 1.385 . S
C2129 H2104 0.951 . S
C2129 C2127 1.388 . S
C2129 C2130 1.366 . S
C2130 C2129 1.366 . S
C2130 C2131 1.414 . S
C2130 C2133 1.499 . S
C2131 H2105 0.950 . S
C2131 C2130 1.414 . S
C2131 C2132 1.374 . S
C2132 H2106 0.950 . S
C2132 C2128 1.385 . S
C2132 C2131 1.374 . S
C2133 C2130 1.499 . S
C2133 C2134 1.373 . S
C2133 C2135 1.389 . S
C2134 H2107 0.950 . S
C2134 C2120 1.377 1_556 S
C2134 C2133 1.373 . S
C2135 C2119 1.377 . S
C2135 C2133 1.389 . S
C2135 C2136 1.524 . S
C2136 C2135 1.524 . S
C2136 C2137 1.397 . S
C2136 C2141 1.363 . S
C2137 H2108 0.950 . S
C2137 C2136 1.397 . S
C2137 C2138 1.334 . S
C2138 H2109 0.950 . S
C2138 C2137 1.334 . S
C2138 C2139 1.287 . S
C2139 C2138 1.287 . S
C2139 C2140 1.524 . S
C2139 H2142 0.999 . S
C2140 H2110 0.950 . S
C2140 C2139 1.524 . S
C2140 C2141 1.415 . S
C2141 H2111 0.950 . S
C2141 C2136 1.363 . S
C2141 C2140 1.415 . S
H2142 C2139 0.999 . S
H2143 C2124 0.913 . S
H2144 C2162 0.951 . S
H2145 C2164 0.951 . S
H2146 C2166 0.950 . S
H2147 C2167 0.950 . S
H2148 C2169 0.950 . S
H2149 C2172 0.950 . S
H2150 C2173 0.950 . S
H2151 C2175 0.950 . S
H2152 C2176 0.950 . S
H2153 C2177 0.951 . S
H2154 C2179 0.951 . S
H2155 C2181 0.950 . S
H2156 C2182 0.950 . S
H2157 C2184 0.950 . S
H2158 C2187 0.950 . S
H2159 C2188 0.950 . S
H2160 C2190 0.950 . S
H2161 C2191 0.950 . S
C2162 H2144 0.951 . S
C2162 C2163 1.366 . S
C2162 C2164 1.388 . S
C2163 C2162 1.366 . S
C2163 C2167 1.385 . S
C2164 H2145 0.951 . S
C2164 C2162 1.388 . S
C2164 C2165 1.366 . S
C2165 C2164 1.366 . S
C2165 C2166 1.414 . S
C2165 C2168 1.499 . S
C2166 H2146 0.950 . S
C2166 C2165 1.414 . S
C2166 C2167 1.374 . S
C2167 H2147 0.950 . S
C2167 C2163 1.385 . S
C2167 C2166 1.374 . S
C2168 C2165 1.499 . S
C2168 C2169 1.373 . S
C2168 C2170 1.389 . S
C2169 H2148 0.950 . S
C2169 C2168 1.373 . S
C2169 C2185 1.377 . S
C2170 C2168 1.389 . S
C2170 C2171 1.524 . S
C2170 C2184 1.377 . S
C2171 C2170 1.524 . S
C2171 C2172 1.397 . S
C2171 C2176 1.363 . S
C2172 H2149 0.950 . S
C2172 C2171 1.397 . S
C2172 C2173 1.334 . S
C2173 H2150 0.950 . S
C2173 C2172 1.334 . S
C2173 C2174 1.287 . S
C2174 C2173 1.287 . S
C2174 C2175 1.524 . S
C2174 H2193 0.913 . S
C2175 H2151 0.950 . S
C2175 C2174 1.524 . S
C2175 C2176 1.415 . S
C2176 H2152 0.950 . S
C2176 C2171 1.363 . S
C2176 C2175 1.415 . S
C2177 H2153 0.951 . S
C2177 C2178 1.366 . S
C2177 C2179 1.388 . S
C2178 C2177 1.366 . S
C2178 C2182 1.385 . S
C2179 H2154 0.951 . S
C2179 C2177 1.388 . S
C2179 C2180 1.366 . S
C2180 C2179 1.366 . S
C2180 C2181 1.414 . S
C2180 C2183 1.499 . S
C2181 H2155 0.950 . S
C2181 C2180 1.414 . S
C2181 C2182 1.374 . S
C2182 H2156 0.950 . S
C2182 C2178 1.385 . S
C2182 C2181 1.374 . S
C2183 C2180 1.499 . S
C2183 C2184 1.373 . S
C2183 C2185 1.389 . S
C2184 H2157 0.950 . S
C2184 C2170 1.377 . S
C2184 C2183 1.373 . S
C2185 C2169 1.377 . S
C2185 C2183 1.389 . S
C2185 C2186 1.524 . S
C2186 C2185 1.524 . S
C2186 C2187 1.397 . S
C2186 C2191 1.363 . S
C2187 H2158 0.950 . S
C2187 C2186 1.397 . S
C2187 C2188 1.334 . S
C2188 H2159 0.950 . S
C2188 C2187 1.334 . S
C2188 C2189 1.287 . S
C2189 C2188 1.287 . S
C2189 C2190 1.524 . S
C2189 H2192 0.999 . S
C2190 H2160 0.950 . S
C2190 C2189 1.524 . S
C2190 C2191 1.415 . S
C2191 H2161 0.950 . S
C2191 C2186 1.363 . S
C2191 C2190 1.415 . S
H2192 C2189 0.999 . S
H2193 C2174 0.913 . S
H2194 C2212 0.951 . S
H2195 C2214 0.951 . S
H2196 C2216 0.950 . S
H2197 C2217 0.950 . S
H2198 C2219 0.950 . S
H2199 C2222 0.950 . S
H2200 C2223 0.950 . S
H2201 C2225 0.950 . S
H2202 C2226 0.950 . S
H2203 C2227 0.951 . S
H2204 C2229 0.951 . S
H2205 C2231 0.950 . S
H2206 C2232 0.950 . S
H2207 C2234 0.950 . S
H2208 C2237 0.950 . S
H2209 C2238 0.950 . S
H2210 C2240 0.950 . S
H2211 C2241 0.950 . S
C2212 H2194 0.951 . S
C2212 C2213 1.366 . S
C2212 C2214 1.388 . S
C2213 C2212 1.366 . S
C2213 C2217 1.385 . S
C2214 H2195 0.951 . S
C2214 C2212 1.388 . S
C2214 C2215 1.366 . S
C2215 C2214 1.366 . S
C2215 C2216 1.414 . S
C2215 C2218 1.499 . S
C2216 H2196 0.950 . S
C2216 C2215 1.414 . S
C2216 C2217 1.374 . S
C2217 H2197 0.950 . S
C2217 C2213 1.385 . S
C2217 C2216 1.374 . S
C2218 C2215 1.499 . S
C2218 C2219 1.373 . S
C2218 C2220 1.389 . S
C2219 H2198 0.950 . S
C2219 C2218 1.373 . S
C2219 C2235 1.377 . S
C2220 C2218 1.389 . S
C2220 C2221 1.524 . S
C2220 C2234 1.377 . S
C2221 C2220 1.524 . S
C2221 C2222 1.397 . S
C2221 C2226 1.363 . S
C2222 H2199 0.950 . S
C2222 C2221 1.397 . S
C2222 C2223 1.334 . S
C2223 H2200 0.950 . S
C2223 C2222 1.334 . S
C2223 C2224 1.287 . S
C2224 C2223 1.287 . S
C2224 C2225 1.524 . S
C2224 H2243 0.913 . S
C2225 H2201 0.950 . S
C2225 C2224 1.524 . S
C2225 C2226 1.415 . S
C2226 H2202 0.950 . S
C2226 C2221 1.363 . S
C2226 C2225 1.415 . S
C2227 H2203 0.951 . S
C2227 C2228 1.366 . S
C2227 C2229 1.388 . S
C2228 C2227 1.366 . S
C2228 C2232 1.385 . S
C2229 H2204 0.951 . S
C2229 C2227 1.388 . S
C2229 C2230 1.366 . S
C2230 C2229 1.366 . S
C2230 C2231 1.414 . S
C2230 C2233 1.499 . S
C2231 H2205 0.950 . S
C2231 C2230 1.414 . S
C2231 C2232 1.374 . S
C2232 H2206 0.950 . S
C2232 C2228 1.385 . S
C2232 C2231 1.374 . S
C2233 C2230 1.499 . S
C2233 C2234 1.373 . S
C2233 C2235 1.389 . S
C2234 H2207 0.950 . S
C2234 C2220 1.377 . S
C2234 C2233 1.373 . S
C2235 C2219 1.377 . S
C2235 C2233 1.389 . S
C2235 C2236 1.524 . S
C2236 C2235 1.524 . S
C2236 C2237 1.397 . S
C2236 C2241 1.363 . S
C2237 H2208 0.950 . S
C2237 C2236 1.397 . S
C2237 C2238 1.334 . S
C2238 H2209 0.950 . S
C2238 C2237 1.334 . S
C2238 C2239 1.287 . S
C2239 C2238 1.287 . S
C2239 C2240 1.524 . S
C2239 H2242 0.999 . S
C2240 H2210 0.950 . S
C2240 C2239 1.524 . S
C2240 C2241 1.415 . S
C2241 H2211 0.950 . S
C2241 C2236 1.363 . S
C2241 C2240 1.415 . S
H2242 C2239 0.999 . S
H2243 C2224 0.913 . S
H2244 C2262 0.951 . S
H2245 C2264 0.951 . S
H2246 C2266 0.950 . S
H2247 C2267 0.950 . S
H2248 C2269 0.950 . S
H2249 C2272 0.950 . S
H2250 C2273 0.950 . S
H2251 C2275 0.950 . S
H2252 C2276 0.950 . S
H2253 C2277 0.951 . S
H2254 C2279 0.951 . S
H2255 C2281 0.950 . S
H2256 C2282 0.950 . S
H2257 C2284 0.950 . S
H2258 C2287 0.950 . S
H2259 C2288 0.950 . S
H2260 C2290 0.950 . S
H2261 C2291 0.950 . S
C2262 H2244 0.951 . S
C2262 C2263 1.366 . S
C2262 C2264 1.388 . S
C2263 C2262 1.366 . S
C2263 C2267 1.385 . S
C2264 H2245 0.951 . S
C2264 C2262 1.388 . S
C2264 C2265 1.366 . S
C2265 C2264 1.366 . S
C2265 C2266 1.414 . S
C2265 C2268 1.499 . S
C2266 H2246 0.950 . S
C2266 C2265 1.414 . S
C2266 C2267 1.374 . S
C2267 H2247 0.950 . S
C2267 C2263 1.385 . S
C2267 C2266 1.374 . S
C2268 C2265 1.499 . S
C2268 C2269 1.373 . S
C2268 C2270 1.389 . S
C2269 H2248 0.950 . S
C2269 C2268 1.373 . S
C2269 C2285 1.377 . S
C2270 C2268 1.389 . S
C2270 C2271 1.524 . S
C2270 C2284 1.377 . S
C2271 C2270 1.524 . S
C2271 C2272 1.397 . S
C2271 C2276 1.363 . S
C2272 H2249 0.950 . S
C2272 C2271 1.397 . S
C2272 C2273 1.334 . S
C2273 H2250 0.950 . S
C2273 C2272 1.334 . S
C2273 C2274 1.287 . S
C2274 C2273 1.287 . S
C2274 C2275 1.524 . S
C2274 H2293 0.913 . S
C2275 H2251 0.950 . S
C2275 C2274 1.524 . S
C2275 C2276 1.415 . S
C2276 H2252 0.950 . S
C2276 C2271 1.363 . S
C2276 C2275 1.415 . S
C2277 H2253 0.951 . S
C2277 C2278 1.366 . S
C2277 C2279 1.388 . S
C2278 C2277 1.366 . S
C2278 C2282 1.385 . S
C2279 H2254 0.951 . S
C2279 C2277 1.388 . S
C2279 C2280 1.366 . S
C2280 C2279 1.366 . S
C2280 C2281 1.414 . S
C2280 C2283 1.499 . S
C2281 H2255 0.950 . S
C2281 C2280 1.414 . S
C2281 C2282 1.374 . S
C2282 H2256 0.950 . S
C2282 C2278 1.385 . S
C2282 C2281 1.374 . S
C2283 C2280 1.499 . S
C2283 C2284 1.373 . S
C2283 C2285 1.389 . S
C2284 H2257 0.950 . S
C2284 C2270 1.377 . S
C2284 C2283 1.373 . S
C2285 C2269 1.377 . S
C2285 C2283 1.389 . S
C2285 C2286 1.524 . S
C2286 C2285 1.524 . S
C2286 C2287 1.397 . S
C2286 C2291 1.363 . S
C2287 H2258 0.950 . S
C2287 C2286 1.397 . S
C2287 C2288 1.334 . S
C2288 H2259 0.950 . S
C2288 C2287 1.334 . S
C2288 C2289 1.287 . S
C2289 C2288 1.287 . S
C2289 C2290 1.524 . S
C2289 H2292 0.999 . S
C2290 H2260 0.950 . S
C2290 C2289 1.524 . S
C2290 C2291 1.415 . S
C2291 H2261 0.950 . S
C2291 C2286 1.363 . S
C2291 C2290 1.415 . S
H2292 C2289 0.999 . S
H2293 C2274 0.913 . S
H2294 C2312 0.951 . S
H2295 C2314 0.951 . S
H2296 C2316 0.950 . S
H2297 C2317 0.950 . S
H2298 C2319 0.950 . S
H2299 C2322 0.950 . S
H2300 C2323 0.950 . S
H2301 C2325 0.950 . S
H2302 C2326 0.950 . S
H2303 C2327 0.951 . S
H2304 C2329 0.951 . S
H2305 C2331 0.950 . S
H2306 C2332 0.950 . S
H2307 C2334 0.950 . S
H2308 C2337 0.950 . S
H2309 C2338 0.950 . S
H2310 C2340 0.950 . S
H2311 C2341 0.950 . S
C2312 H2294 0.951 . S
C2312 C2313 1.366 . S
C2312 C2314 1.388 . S
C2313 C2312 1.366 . S
C2313 C2317 1.385 . S
C2314 H2295 0.951 . S
C2314 C2312 1.388 . S
C2314 C2315 1.366 . S
C2315 C2314 1.366 . S
C2315 C2316 1.414 . S
C2315 C2318 1.499 . S
C2316 H2296 0.950 . S
C2316 C2315 1.414 . S
C2316 C2317 1.374 . S
C2317 H2297 0.950 . S
C2317 C2313 1.385 . S
C2317 C2316 1.374 . S
C2318 C2315 1.499 . S
C2318 C2319 1.373 . S
C2318 C2320 1.389 . S
C2319 H2298 0.950 . S
C2319 C2318 1.373 . S
C2319 C2335 1.377 . S
C2320 C2318 1.389 . S
C2320 C2321 1.524 . S
C2320 C2334 1.377 . S
C2321 C2320 1.524 . S
C2321 C2322 1.397 . S
C2321 C2326 1.363 . S
C2322 H2299 0.950 . S
C2322 C2321 1.397 . S
C2322 C2323 1.334 . S
C2323 H2300 0.950 . S
C2323 C2322 1.334 . S
C2323 C2324 1.287 . S
C2324 C2323 1.287 . S
C2324 C2325 1.524 . S
C2324 H2343 0.942 . S
C2325 H2301 0.950 . S
C2325 C2324 1.524 . S
C2325 C2326 1.415 . S
C2326 H2302 0.950 . S
C2326 C2321 1.363 . S
C2326 C2325 1.415 . S
C2327 H2303 0.951 . S
C2327 C2328 1.366 . S
C2327 C2329 1.388 . S
C2328 C2327 1.366 . S
C2328 C2332 1.385 . S
C2329 H2304 0.951 . S
C2329 C2327 1.388 . S
C2329 C2330 1.366 . S
C2330 C2329 1.366 . S
C2330 C2331 1.414 . S
C2330 C2333 1.499 . S
C2331 H2305 0.950 . S
C2331 C2330 1.414 . S
C2331 C2332 1.374 . S
C2332 H2306 0.950 . S
C2332 C2328 1.385 . S
C2332 C2331 1.374 . S
C2333 C2330 1.499 . S
C2333 C2334 1.373 . S
C2333 C2335 1.389 . S
C2334 H2307 0.950 . S
C2334 C2320 1.377 . S
C2334 C2333 1.373 . S
C2335 C2319 1.377 . S
C2335 C2333 1.389 . S
C2335 C2336 1.524 . S
C2336 C2335 1.524 . S
C2336 C2337 1.397 . S
C2336 C2341 1.363 . S
C2337 H2308 0.950 . S
C2337 C2336 1.397 . S
C2337 C2338 1.334 . S
C2338 H2309 0.950 . S
C2338 C2337 1.334 . S
C2338 C2339 1.287 . S
C2339 C2338 1.287 . S
C2339 C2340 1.524 . S
C2339 H2342 0.999 . S
C2340 H2310 0.950 . S
C2340 C2339 1.524 . S
C2340 C2341 1.415 . S
C2341 H2311 0.950 . S
C2341 C2336 1.363 . S
C2341 C2340 1.415 . S
H2342 C2339 0.999 . S
H2343 C2324 0.942 . S
H2344 C2362 0.951 . S
H2345 C2364 0.951 . S
H2346 C2366 0.950 . S
H2347 C2367 0.950 . S
H2348 C2369 0.950 . S
H2349 C2372 0.950 1_554 S
H2350 C2373 0.950 . S
H2351 C2375 0.950 . S
H2352 C2376 0.950 . S
H2353 C2377 0.951 . S
H2354 C2379 0.951 . S
H2355 C2381 0.950 . S
H2356 C2382 0.950 . S
H2357 C2384 0.950 . S
H2358 C2387 0.950 1_556 S
H2359 C2388 0.950 . S
H2360 C2390 0.950 . S
H2361 C2391 0.950 . S
C2362 H2344 0.951 . S
C2362 C2363 1.366 . S
C2362 C2364 1.388 . S
C2363 C2362 1.366 . S
C2363 C2367 1.385 . S
C2364 H2345 0.951 . S
C2364 C2362 1.388 . S
C2364 C2365 1.366 . S
C2365 C2364 1.366 . S
C2365 C2366 1.414 . S
C2365 C2368 1.499 . S
C2366 H2346 0.950 . S
C2366 C2365 1.414 . S
C2366 C2367 1.374 . S
C2367 H2347 0.950 . S
C2367 C2363 1.385 . S
C2367 C2366 1.374 . S
C2368 C2365 1.499 . S
C2368 C2369 1.373 . S
C2368 C2370 1.389 1_554 S
C2369 H2348 0.950 . S
C2369 C2368 1.373 . S
C2369 C2385 1.377 . S
C2370 C2368 1.389 1_556 S
C2370 C2371 1.524 . S
C2370 C2384 1.377 . S
C2371 C2370 1.524 . S
C2371 C2372 1.397 . S
C2371 C2376 1.363 . S
C2372 H2349 0.950 1_556 S
C2372 C2371 1.397 . S
C2372 C2373 1.334 . S
C2373 H2350 0.950 . S
C2373 C2372 1.334 . S
C2373 C2374 1.287 . S
C2374 C2373 1.287 . S
C2374 C2375 1.524 . S
C2374 H2393 0.913 . S
C2375 H2351 0.950 . S
C2375 C2374 1.524 . S
C2375 C2376 1.415 . S
C2376 H2352 0.950 . S
C2376 C2371 1.363 . S
C2376 C2375 1.415 . S
C2377 H2353 0.951 . S
C2377 C2378 1.366 . S
C2377 C2379 1.388 . S
C2378 C2377 1.366 . S
C2378 C2382 1.385 . S
C2379 H2354 0.951 . S
C2379 C2377 1.388 . S
C2379 C2380 1.366 . S
C2380 C2379 1.366 . S
C2380 C2381 1.414 . S
C2380 C2383 1.499 . S
C2381 H2355 0.950 . S
C2381 C2380 1.414 . S
C2381 C2382 1.374 . S
C2382 H2356 0.950 . S
C2382 C2378 1.385 . S
C2382 C2381 1.374 . S
C2383 C2380 1.499 . S
C2383 C2384 1.373 . S
C2383 C2385 1.389 1_556 S
C2384 H2357 0.950 . S
C2384 C2370 1.377 . S
C2384 C2383 1.373 . S
C2385 C2369 1.377 . S
C2385 C2383 1.389 1_554 S
C2385 C2386 1.524 . S
C2386 C2385 1.524 . S
C2386 C2387 1.397 . S
C2386 C2391 1.363 . S
C2387 H2358 0.950 1_554 S
C2387 C2386 1.397 . S
C2387 C2388 1.334 . S
C2388 H2359 0.950 . S
C2388 C2387 1.334 . S
C2388 C2389 1.287 . S
C2389 C2388 1.287 . S
C2389 C2390 1.524 . S
C2389 H2392 0.999 . S
C2390 H2360 0.950 . S
C2390 C2389 1.524 . S
C2390 C2391 1.415 . S
C2391 H2361 0.950 . S
C2391 C2386 1.363 . S
C2391 C2390 1.415 . S
H2392 C2389 0.999 . S
H2393 C2374 0.913 . S
H2394 C2412 0.951 . S
H2395 C2414 0.951 . S
H2396 C2416 0.950 . S
H2397 C2417 0.950 . S
H2398 C2419 0.950 . S
H2399 C2422 0.950 . S
H2400 C2423 0.950 . S
H2401 C2425 0.950 . S
H2402 C2426 0.950 . S
H2403 C2427 0.951 . S
H2404 C2429 0.951 . S
H2405 C2431 0.950 . S
H2406 C2432 0.950 . S
H2407 C2434 0.950 . S
H2408 C2437 0.950 1_554 S
H2409 C2438 0.950 . S
H2410 C2440 0.950 . S
H2411 C2441 0.950 . S
C2412 H2394 0.951 . S
C2412 C2413 1.366 . S
C2412 C2414 1.388 . S
C2413 C2412 1.366 . S
C2413 C2417 1.385 . S
C2414 H2395 0.951 . S
C2414 C2412 1.388 . S
C2414 C2415 1.366 . S
C2415 C2414 1.366 . S
C2415 C2416 1.414 . S
C2415 C2418 1.499 . S
C2416 H2396 0.950 . S
C2416 C2415 1.414 . S
C2416 C2417 1.374 . S
C2417 H2397 0.950 . S
C2417 C2413 1.385 . S
C2417 C2416 1.374 . S
C2418 C2415 1.499 . S
C2418 C2419 1.373 . S
C2418 C2420 1.389 1_556 S
C2419 H2398 0.950 . S
C2419 C2418 1.373 . S
C2419 C2435 1.377 . S
C2420 C2418 1.389 1_554 S
C2420 C2421 1.524 . S
C2420 C2434 1.377 . S
C2421 C2420 1.524 . S
C2421 C2422 1.397 . S
C2421 C2426 1.363 . S
C2422 H2399 0.950 . S
C2422 C2421 1.397 . S
C2422 C2423 1.334 . S
C2423 H2400 0.950 . S
C2423 C2422 1.334 . S
C2423 C2424 1.287 . S
C2424 C2423 1.287 . S
C2424 C2425 1.524 . S
C2424 H2443 0.913 . S
C2425 H2401 0.950 . S
C2425 C2424 1.524 . S
C2425 C2426 1.415 . S
C2426 H2402 0.950 . S
C2426 C2421 1.363 . S
C2426 C2425 1.415 . S
C2427 H2403 0.951 . S
C2427 C2428 1.366 . S
C2427 C2429 1.388 . S
C2428 C2427 1.366 . S
C2428 C2432 1.385 . S
C2429 H2404 0.951 . S
C2429 C2427 1.388 . S
C2429 C2430 1.366 . S
C2430 C2429 1.366 . S
C2430 C2431 1.414 . S
C2430 C2433 1.499 . S
C2431 H2405 0.950 . S
C2431 C2430 1.414 . S
C2431 C2432 1.374 . S
C2432 H2406 0.950 . S
C2432 C2428 1.385 . S
C2432 C2431 1.374 . S
C2433 C2430 1.499 . S
C2433 C2434 1.373 . S
C2433 C2435 1.389 1_554 S
C2434 H2407 0.950 . S
C2434 C2420 1.377 . S
C2434 C2433 1.373 . S
C2435 C2419 1.377 . S
C2435 C2433 1.389 1_556 S
C2435 C2436 1.524 . S
C2436 C2435 1.524 . S
C2436 C2437 1.397 . S
C2436 C2441 1.363 . S
C2437 H2408 0.950 1_556 S
C2437 C2436 1.397 . S
C2437 C2438 1.334 . S
C2438 H2409 0.950 . S
C2438 C2437 1.334 . S
C2438 C2439 1.287 . S
C2439 C2438 1.287 . S
C2439 C2440 1.524 . S
C2439 H2442 0.999 . S
C2440 H2410 0.950 . S
C2440 C2439 1.524 . S
C2440 C2441 1.415 . S
C2441 H2411 0.950 . S
C2441 C2436 1.363 . S
C2441 C2440 1.415 . S
H2442 C2439 0.999 . S
H2443 C2424 0.913 . S
H2444 C2462 0.951 . S
H2445 C2464 0.951 . S
H2446 C2466 0.950 . S
H2447 C2467 0.950 . S
H2448 C2469 0.950 . S
H2449 C2472 0.950 1_554 S
H2450 C2473 0.950 . S
H2451 C2475 0.950 . S
H2452 C2476 0.950 . S
H2453 C2477 0.951 . S
H2454 C2479 0.951 . S
H2455 C2481 0.950 . S
H2456 C2482 0.950 . S
H2457 C2484 0.950 . S
H2458 C2487 0.945 1_556 S
H2459 C2488 0.950 . S
H2460 C2490 0.950 . S
H2461 C2491 0.950 . S
C2462 H2444 0.951 . S
C2462 C2463 1.366 . S
C2462 C2464 1.388 . S
C2463 C2462 1.366 . S
C2463 C2467 1.385 . S
C2464 H2445 0.951 . S
C2464 C2462 1.388 . S
C2464 C2465 1.366 . S
C2465 C2464 1.366 . S
C2465 C2466 1.414 . S
C2465 C2468 1.499 . S
C2466 H2446 0.950 . S
C2466 C2465 1.414 . S
C2466 C2467 1.374 . S
C2467 H2447 0.950 . S
C2467 C2463 1.385 . S
C2467 C2466 1.374 . S
C2468 C2465 1.499 . S
C2468 C2469 1.373 . S
C2468 C2470 1.389 1_554 S
C2469 H2448 0.950 . S
C2469 C2468 1.373 . S
C2469 C2485 1.377 . S
C2470 C2468 1.389 1_556 S
C2470 C2471 1.524 . S
C2470 C2484 1.377 . S
C2471 C2470 1.524 . S
C2471 C2472 1.397 . S
C2471 C2476 1.363 . S
C2472 H2449 0.950 1_556 S
C2472 C2471 1.397 . S
C2472 C2473 1.334 . S
C2473 H2450 0.950 . S
C2473 C2472 1.334 . S
C2473 C2474 1.287 . S
C2474 C2473 1.287 . S
C2474 C2475 1.524 . S
C2474 H2493 0.913 . S
C2475 H2451 0.950 . S
C2475 C2474 1.524 . S
C2475 C2476 1.415 . S
C2476 H2452 0.950 . S
C2476 C2471 1.363 . S
C2476 C2475 1.415 . S
C2477 H2453 0.951 . S
C2477 C2478 1.366 . S
C2477 C2479 1.388 . S
C2478 C2477 1.366 . S
C2478 C2482 1.385 . S
C2479 H2454 0.951 . S
C2479 C2477 1.388 . S
C2479 C2480 1.366 . S
C2480 C2479 1.366 . S
C2480 C2481 1.414 . S
C2480 C2483 1.499 . S
C2481 H2455 0.950 . S
C2481 C2480 1.414 . S
C2481 C2482 1.374 . S
C2482 H2456 0.950 . S
C2482 C2478 1.385 . S
C2482 C2481 1.374 . S
C2483 C2480 1.499 . S
C2483 C2484 1.373 . S
C2483 C2485 1.389 1_556 S
C2484 H2457 0.950 . S
C2484 C2470 1.377 . S
C2484 C2483 1.373 . S
C2485 C2469 1.377 . S
C2485 C2483 1.389 1_554 S
C2485 C2486 1.524 . S
C2486 C2485 1.524 . S
C2486 C2487 1.397 . S
C2486 C2491 1.363 . S
C2487 H2458 0.945 1_554 S
C2487 C2486 1.397 . S
C2487 C2488 1.334 . S
C2488 H2459 0.950 . S
C2488 C2487 1.334 . S
C2488 C2489 1.287 . S
C2489 C2488 1.287 . S
C2489 C2490 1.524 . S
C2489 H2492 0.999 . S
C2490 H2460 0.950 . S
C2490 C2489 1.524 . S
C2490 C2491 1.415 . S
C2491 H2461 0.950 . S
C2491 C2486 1.363 . S
C2491 C2490 1.415 . S
H2492 C2489 0.999 . S
H2493 C2474 0.913 . S
H2494 C2512 0.951 . S
H2495 C2514 0.951 . S
H2496 C2516 0.950 . S
H2497 C2517 0.950 . S
H2498 C2519 0.950 . S
H2499 C2522 0.950 . S
H2500 C2523 0.950 . S
H2501 C2525 0.950 . S
H2502 C2526 0.950 . S
H2503 C2527 0.951 . S
H2504 C2529 0.951 . S
H2505 C2531 0.950 . S
H2506 C2532 0.950 . S
H2507 C2534 0.950 . S
H2508 C2537 0.950 . S
H2509 C2538 0.950 . S
H2510 C2540 0.950 . S
H2511 C2541 0.950 . S
C2512 H2494 0.951 . S
C2512 C2513 1.366 . S
C2512 C2514 1.388 . S
C2513 C2512 1.366 . S
C2513 C2517 1.385 . S
C2514 H2495 0.951 . S
C2514 C2512 1.388 . S
C2514 C2515 1.366 . S
C2515 C2514 1.366 . S
C2515 C2516 1.414 . S
C2515 C2518 1.499 . S
C2516 H2496 0.950 . S
C2516 C2515 1.414 . S
C2516 C2517 1.374 . S
C2517 H2497 0.950 . S
C2517 C2513 1.385 . S
C2517 C2516 1.374 . S
C2518 C2515 1.499 . S
C2518 C2519 1.373 . S
C2518 C2520 1.389 1_554 S
C2519 H2498 0.950 . S
C2519 C2518 1.373 . S
C2519 C2535 1.377 . S
C2520 C2518 1.389 1_556 S
C2520 C2521 1.524 . S
C2520 C2534 1.377 . S
C2521 C2520 1.524 . S
C2521 C2522 1.397 . S
C2521 C2526 1.363 . S
C2522 H2499 0.950 . S
C2522 C2521 1.397 . S
C2522 C2523 1.334 . S
C2523 H2500 0.950 . S
C2523 C2522 1.334 . S
C2523 C2524 1.287 . S
C2524 C2523 1.287 . S
C2524 C2525 1.524 . S
C2524 H2543 0.913 . S
C2525 H2501 0.950 . S
C2525 C2524 1.524 . S
C2525 C2526 1.415 . S
C2526 H2502 0.950 . S
C2526 C2521 1.363 . S
C2526 C2525 1.415 . S
C2527 H2503 0.951 . S
C2527 C2528 1.366 . S
C2527 C2529 1.388 . S
C2528 C2527 1.366 . S
C2528 C2532 1.385 . S
C2529 H2504 0.951 . S
C2529 C2527 1.388 . S
C2529 C2530 1.366 . S
C2530 C2529 1.366 . S
C2530 C2531 1.414 . S
C2530 C2533 1.499 . S
C2531 H2505 0.950 . S
C2531 C2530 1.414 . S
C2531 C2532 1.374 . S
C2532 H2506 0.950 . S
C2532 C2528 1.385 . S
C2532 C2531 1.374 . S
C2533 C2530 1.499 . S
C2533 C2534 1.373 . S
C2533 C2535 1.389 1_556 S
C2534 H2507 0.950 . S
C2534 C2520 1.377 . S
C2534 C2533 1.373 . S
C2535 C2519 1.377 . S
C2535 C2533 1.389 1_554 S
C2535 C2536 1.524 . S
C2536 C2535 1.524 . S
C2536 C2537 1.397 . S
C2536 C2541 1.363 . S
C2537 H2508 0.950 . S
C2537 C2536 1.397 . S
C2537 C2538 1.334 . S
C2538 H2509 0.950 . S
C2538 C2537 1.334 . S
C2538 C2539 1.287 . S
C2539 C2538 1.287 . S
C2539 C2540 1.524 . S
C2539 H2542 0.999 . S
C2540 H2510 0.950 . S
C2540 C2539 1.524 . S
C2540 C2541 1.415 . S
C2541 H2511 0.950 . S
C2541 C2536 1.363 . S
C2541 C2540 1.415 . S
H2542 C2539 0.999 . S
H2543 C2524 0.913 . S
C563 C111 1.590 . S
C578 C2 1.613 . S
C613 C36 1.613 . S
C628 C9 1.590 . S
C663 C70 1.613 1_455 S
C678 C43 1.590 . S
C713 C104 1.613 1_545 S
C728 C77 1.590 . S
C763 C179 1.590 . S
C778 C138 1.613 1_655 S
C813 C213 1.590 . S
C828 C172 1.613 1_565 S
C863 C206 1.613 . S
C878 C247 1.590 . S
C913 C145 1.590 . S
C928 C240 1.613 . S
C963 C274 1.613 . S
C978 C383 1.590 . S
C1013 C308 1.613 . S
C1028 C281 1.590 . S
C1063 C315 1.590 . S
C1078 C342 1.613 1_655 S
C1113 C376 1.613 1_565 S
C1128 C349 1.590 . S
C1163 C451 1.590 . S
C1178 C410 1.613 1_455 S
C1213 C444 1.613 1_545 S
C1228 C485 1.590 . S
C1263 C478 1.613 . S
C1278 C519 1.590 . S
C1313 C512 1.613 . S
C1328 C417 1.590 . S
C1363 C33 1.969 . S
C1378 C203 1.969 . S
C1413 C67 1.970 . S
C1428 C237 1.970 . S
C1463 C271 1.970 . S
C1478 C101 1.970 . S
C1513 C135 1.970 . S
C1528 C169 1.970 . S
C1563 C475 1.970 . S
C1578 C305 1.970 . S
C1613 C509 1.970 . S
C1628 C339 1.969 . S
C1663 C373 1.969 . S
C1678 C543 1.969 . S
C1713 C441 1.970 . S
C1728 C407 1.970 . S
C1763 C5 0.967 . S
C1778 C394 0.980 . S
C1813 C39 0.968 . S
C1828 C292 0.980 . S
C1863 C73 0.968 . S
C1878 C326 0.980 . S
C1913 C107 0.967 . S
C1928 C360 0.980 . S
C1963 C462 0.981 . S
C1978 C141 0.968 . S
C2013 C175 0.968 . S
C2028 C496 0.980 . S
C2063 C530 0.980 . S
C2078 C209 0.967 . S
C2113 C243 0.968 . S
C2128 C428 0.980 . S
C2163 C122 0.980 . S
C2178 C277 0.967 . S
C2213 C20 0.980 . S
C2228 C311 0.967 . S
C2263 C54 0.980 . S
C2278 C345 0.967 . S
C2313 C88 0.980 . S
C2328 C379 0.968 . S
C2363 C190 0.980 . S
C2378 C413 0.969 . S
C2413 C447 0.968 . S
C2428 C224 0.981 . S
C2463 C258 0.981 . S
C2478 C481 0.969 . S
C2513 C156 0.981 . S
C2528 C515 0.969 . S
