# Generated by pormake.
# Topology zni, (4)-cn, num edge types: 1
# Building blocks:
#     Node 0, Type 0, BuildingBlock: GALJAG_clean_sbu_0, # of connection points: 4
#     Node 1, Type 0, BuildingBlock: GALJAG_clean_sbu_0, # of connection points: 4
#     Node 2, Type 0, BuildingBlock: GALJAG_clean_sbu_0, # of connection points: 4
#     Node 3, Type 0, BuildingBlock: GALJAG_clean_sbu_0, # of connection points: 4
#     Node 4, Type 0, BuildingBlock: GALJAG_clean_sbu_0, # of connection points: 4
#     Node 5, Type 0, BuildingBlock: GALJAG_clean_sbu_0, # of connection points: 4
#     Node 6, Type 0, BuildingBlock: GALJAG_clean_sbu_0, # of connection points: 4
#     Node 7, Type 0, BuildingBlock: GALJAG_clean_sbu_0, # of connection points: 4
#     Node 8, Type 0, BuildingBlock: GALJAG_clean_sbu_0, # of connection points: 4
#     Node 9, Type 0, BuildingBlock: GALJAG_clean_sbu_0, # of connection points: 4
#     Node 10, Type 0, BuildingBlock: GALJAG_clean_sbu_0, # of connection points: 4
#     Node 11, Type 0, BuildingBlock: GALJAG_clean_sbu_0, # of connection points: 4
#     Node 12, Type 0, BuildingBlock: GALJAG_clean_sbu_0, # of connection points: 4
#     Node 13, Type 0, BuildingBlock: GALJAG_clean_sbu_0, # of connection points: 4
#     Node 14, Type 0, BuildingBlock: GALJAG_clean_sbu_0, # of connection points: 4
#     Node 15, Type 0, BuildingBlock: GALJAG_clean_sbu_0, # of connection points: 4
#     Node 16, Type 0, BuildingBlock: GALJAG_clean_sbu_0, # of connection points: 4
#     Node 17, Type 0, BuildingBlock: GALJAG_clean_sbu_0, # of connection points: 4
#     Node 18, Type 0, BuildingBlock: GALJAG_clean_sbu_0, # of connection points: 4
#     Node 19, Type 0, BuildingBlock: GALJAG_clean_sbu_0, # of connection points: 4
#     Node 20, Type 0, BuildingBlock: GALJAG_clean_sbu_0, # of connection points: 4
#     Node 21, Type 0, BuildingBlock: GALJAG_clean_sbu_0, # of connection points: 4
#     Node 22, Type 0, BuildingBlock: GALJAG_clean_sbu_0, # of connection points: 4
#     Node 23, Type 0, BuildingBlock: GALJAG_clean_sbu_0, # of connection points: 4
#     Node 24, Type 0, BuildingBlock: GALJAG_clean_sbu_0, # of connection points: 4
#     Node 25, Type 0, BuildingBlock: GALJAG_clean_sbu_0, # of connection points: 4
#     Node 26, Type 0, BuildingBlock: GALJAG_clean_sbu_0, # of connection points: 4
#     Node 27, Type 0, BuildingBlock: GALJAG_clean_sbu_0, # of connection points: 4
#     Node 28, Type 0, BuildingBlock: GALJAG_clean_sbu_0, # of connection points: 4
#     Node 29, Type 0, BuildingBlock: GALJAG_clean_sbu_0, # of connection points: 4
#     Node 30, Type 0, BuildingBlock: GALJAG_clean_sbu_0, # of connection points: 4
#     Node 31, Type 0, BuildingBlock: GALJAG_clean_sbu_0, # of connection points: 4
#     Edge 32, Type (0, 0), BuildingBlock: UVAHIK_clean_linker_0, # of connection points: 2
#     Edge 33, Type (0, 0), BuildingBlock: UVAHIK_clean_linker_0, # of connection points: 2
#     Edge 34, Type (0, 0), BuildingBlock: UVAHIK_clean_linker_0, # of connection points: 2
#     Edge 35, Type (0, 0), BuildingBlock: UVAHIK_clean_linker_0, # of connection points: 2
#     Edge 36, Type (0, 0), BuildingBlock: UVAHIK_clean_linker_0, # of connection points: 2
#     Edge 37, Type (0, 0), BuildingBlock: UVAHIK_clean_linker_0, # of connection points: 2
#     Edge 38, Type (0, 0), BuildingBlock: UVAHIK_clean_linker_0, # of connection points: 2
#     Edge 39, Type (0, 0), BuildingBlock: UVAHIK_clean_linker_0, # of connection points: 2
#     Edge 40, Type (0, 0), BuildingBlock: UVAHIK_clean_linker_0, # of connection points: 2
#     Edge 41, Type (0, 0), BuildingBlock: UVAHIK_clean_linker_0, # of connection points: 2
#     Edge 42, Type (0, 0), BuildingBlock: UVAHIK_clean_linker_0, # of connection points: 2
#     Edge 43, Type (0, 0), BuildingBlock: UVAHIK_clean_linker_0, # of connection points: 2
#     Edge 44, Type (0, 0), BuildingBlock: UVAHIK_clean_linker_0, # of connection points: 2
#     Edge 45, Type (0, 0), BuildingBlock: UVAHIK_clean_linker_0, # of connection points: 2
#     Edge 46, Type (0, 0), BuildingBlock: UVAHIK_clean_linker_0, # of connection points: 2
#     Edge 47, Type (0, 0), BuildingBlock: UVAHIK_clean_linker_0, # of connection points: 2
#     Edge 48, Type (0, 0), BuildingBlock: UVAHIK_clean_linker_0, # of connection points: 2
#     Edge 49, Type (0, 0), BuildingBlock: UVAHIK_clean_linker_0, # of connection points: 2
#     Edge 50, Type (0, 0), BuildingBlock: UVAHIK_clean_linker_0, # of connection points: 2
#     Edge 51, Type (0, 0), BuildingBlock: UVAHIK_clean_linker_0, # of connection points: 2
#     Edge 52, Type (0, 0), BuildingBlock: UVAHIK_clean_linker_0, # of connection points: 2
#     Edge 53, Type (0, 0), BuildingBlock: UVAHIK_clean_linker_0, # of connection points: 2
#     Edge 54, Type (0, 0), BuildingBlock: UVAHIK_clean_linker_0, # of connection points: 2
#     Edge 55, Type (0, 0), BuildingBlock: UVAHIK_clean_linker_0, # of connection points: 2
#     Edge 56, Type (0, 0), BuildingBlock: UVAHIK_clean_linker_0, # of connection points: 2
#     Edge 57, Type (0, 0), BuildingBlock: UVAHIK_clean_linker_0, # of connection points: 2
#     Edge 58, Type (0, 0), BuildingBlock: UVAHIK_clean_linker_0, # of connection points: 2
#     Edge 59, Type (0, 0), BuildingBlock: UVAHIK_clean_linker_0, # of connection points: 2
#     Edge 60, Type (0, 0), BuildingBlock: UVAHIK_clean_linker_0, # of connection points: 2
#     Edge 61, Type (0, 0), BuildingBlock: UVAHIK_clean_linker_0, # of connection points: 2
#     Edge 62, Type (0, 0), BuildingBlock: UVAHIK_clean_linker_0, # of connection points: 2
#     Edge 63, Type (0, 0), BuildingBlock: UVAHIK_clean_linker_0, # of connection points: 2
#     Edge 64, Type (0, 0), BuildingBlock: UVAHIK_clean_linker_0, # of connection points: 2
#     Edge 65, Type (0, 0), BuildingBlock: UVAHIK_clean_linker_0, # of connection points: 2
#     Edge 66, Type (0, 0), BuildingBlock: UVAHIK_clean_linker_0, # of connection points: 2
#     Edge 67, Type (0, 0), BuildingBlock: UVAHIK_clean_linker_0, # of connection points: 2
#     Edge 68, Type (0, 0), BuildingBlock: UVAHIK_clean_linker_0, # of connection points: 2
#     Edge 69, Type (0, 0), BuildingBlock: UVAHIK_clean_linker_0, # of connection points: 2
#     Edge 70, Type (0, 0), BuildingBlock: UVAHIK_clean_linker_0, # of connection points: 2
#     Edge 71, Type (0, 0), BuildingBlock: UVAHIK_clean_linker_0, # of connection points: 2
#     Edge 72, Type (0, 0), BuildingBlock: UVAHIK_clean_linker_0, # of connection points: 2
#     Edge 73, Type (0, 0), BuildingBlock: UVAHIK_clean_linker_0, # of connection points: 2
#     Edge 74, Type (0, 0), BuildingBlock: UVAHIK_clean_linker_0, # of connection points: 2
#     Edge 75, Type (0, 0), BuildingBlock: UVAHIK_clean_linker_0, # of connection points: 2
#     Edge 76, Type (0, 0), BuildingBlock: UVAHIK_clean_linker_0, # of connection points: 2
#     Edge 77, Type (0, 0), BuildingBlock: UVAHIK_clean_linker_0, # of connection points: 2
#     Edge 78, Type (0, 0), BuildingBlock: UVAHIK_clean_linker_0, # of connection points: 2
#     Edge 79, Type (0, 0), BuildingBlock: UVAHIK_clean_linker_0, # of connection points: 2
#     Edge 80, Type (0, 0), BuildingBlock: UVAHIK_clean_linker_0, # of connection points: 2
#     Edge 81, Type (0, 0), BuildingBlock: UVAHIK_clean_linker_0, # of connection points: 2
#     Edge 82, Type (0, 0), BuildingBlock: UVAHIK_clean_linker_0, # of connection points: 2
#     Edge 83, Type (0, 0), BuildingBlock: UVAHIK_clean_linker_0, # of connection points: 2
#     Edge 84, Type (0, 0), BuildingBlock: UVAHIK_clean_linker_0, # of connection points: 2
#     Edge 85, Type (0, 0), BuildingBlock: UVAHIK_clean_linker_0, # of connection points: 2
#     Edge 86, Type (0, 0), BuildingBlock: UVAHIK_clean_linker_0, # of connection points: 2
#     Edge 87, Type (0, 0), BuildingBlock: UVAHIK_clean_linker_0, # of connection points: 2
#     Edge 88, Type (0, 0), BuildingBlock: UVAHIK_clean_linker_0, # of connection points: 2
#     Edge 89, Type (0, 0), BuildingBlock: UVAHIK_clean_linker_0, # of connection points: 2
#     Edge 90, Type (0, 0), BuildingBlock: UVAHIK_clean_linker_0, # of connection points: 2
#     Edge 91, Type (0, 0), BuildingBlock: UVAHIK_clean_linker_0, # of connection points: 2
#     Edge 92, Type (0, 0), BuildingBlock: UVAHIK_clean_linker_0, # of connection points: 2
#     Edge 93, Type (0, 0), BuildingBlock: UVAHIK_clean_linker_0, # of connection points: 2
#     Edge 94, Type (0, 0), BuildingBlock: UVAHIK_clean_linker_0, # of connection points: 2
#     Edge 95, Type (0, 0), BuildingBlock: UVAHIK_clean_linker_0, # of connection points: 2
# Relax obj value: 0.235
# Max RMSD: 0.125
# Mean RMSD: 0.125
data_MOF--net-zni--node1-GALJAG_clean_sbu_0--edge1-UVAHIK_clean_linker_0
_symmetry_space_group_name_H-M    P1
_symmetry_Int_Tables_number       1
_symmetry_cell_setting            triclinic
loop_
_symmetry_equiv_pos_as_xyz
'x, y, z'
_cell_length_a     75.568862
_cell_length_b     75.57355
_cell_length_c     39.227126
_cell_angle_alpha  90.00092
_cell_angle_beta   90.020948
_cell_angle_gamma 89.991118
loop_
_atom_site_label
_atom_site_type_symbol
_atom_site_fract_x
_atom_site_fract_y
_atom_site_fract_z
_atom_type_partial_charge
In0 In 0.10891 0.10126 0.39399 0.0
O1 O 0.12288 0.08943 0.34752 0.0
O2 O 0.10972 0.07195 0.38146 0.0
C3 C 0.11784 0.13565 0.38671 0.0
C4 C 0.07336 0.10252 0.38637 0.0
C5 C 0.12549 0.09309 0.4526 0.0
O6 O 0.12126 0.1242 0.36423 0.0
O7 O 0.11002 0.12972 0.41269 0.0
O8 O 0.10889 0.09278 0.4493 0.0
O9 O 0.13389 0.09755 0.42612 0.0
C10 C 0.1188 0.07368 0.35475 0.0
O11 O 0.08074 0.09834 0.41401 0.0
O12 O 0.08389 0.106 0.36237 0.0
In13 In 0.14746 0.85909 0.63931 0.0
O14 O 0.15836 0.86714 0.58687 0.0
O15 O 0.17502 0.87005 0.62994 0.0
C16 C 0.11301 0.86797 0.63343 0.0
C17 C 0.14793 0.82345 0.63235 0.0
C18 C 0.1553 0.87344 0.70004 0.0
O19 O 0.12496 0.87556 0.61633 0.0
O20 O 0.11847 0.85602 0.65324 0.0
O21 O 0.16122 0.85858 0.69069 0.0
O22 O 0.14544 0.88112 0.67862 0.0
C23 C 0.17327 0.87174 0.59824 0.0
O24 O 0.15095 0.83108 0.6603 0.0
O25 O 0.14495 0.83378 0.60779 0.0
In26 In 0.38669 0.8958 0.89196 0.0
O27 O 0.41496 0.90122 0.90946 0.0
O28 O 0.41144 0.88999 0.86039 0.0
C29 C 0.37261 0.90348 0.95299 0.0
C30 C 0.3762 0.92278 0.85158 0.0
C31 C 0.37638 0.86164 0.88776 0.0
O32 O 0.38904 0.90391 0.94724 0.0
O33 O 0.36314 0.89918 0.92775 0.0
O34 O 0.36947 0.87361 0.86964 0.0
O35 O 0.38838 0.86694 0.90757 0.0
C36 C 0.42214 0.8954 0.88274 0.0
O37 O 0.37798 0.90723 0.84042 0.0
O38 O 0.37965 0.9246 0.88276 0.0
In39 In 0.34861 0.13897 0.14483 0.0
O40 O 0.33705 0.12196 0.10176 0.0
O41 O 0.32029 0.14053 0.12632 0.0
C42 C 0.38298 0.13041 0.13718 0.0
C43 C 0.35197 0.17441 0.139 0.0
C44 C 0.33868 0.12285 0.20295 0.0
O45 O 0.3718 0.1283 0.11355 0.0
O46 O 0.37675 0.13667 0.16448 0.0
O47 O 0.33446 0.13858 0.19592 0.0
O48 O 0.34787 0.11517 0.18056 0.0
C49 C 0.32181 0.12867 0.10399 0.0
O50 O 0.34895 0.16685 0.16705 0.0
O51 O 0.35318 0.16412 0.11381 0.0
In52 In 0.10749 0.89688 0.10043 0.0
O53 O 0.0801 0.90277 0.07831 0.0
O54 O 0.08162 0.89522 0.13027 0.0
C55 C 0.1254 0.90255 0.04237 0.0
C56 C 0.11962 0.92304 0.14104 0.0
C57 C 0.11362 0.8619 0.10716 0.0
O58 O 0.1094 0.90697 0.04614 0.0
O59 O 0.13244 0.89534 0.06807 0.0
O60 O 0.12045 0.8732 0.1269 0.0
O61 O 0.10371 0.86826 0.08439 0.0
C62 C 0.07189 0.8996 0.10559 0.0
O63 O 0.11692 0.90759 0.15201 0.0
O64 O 0.11628 0.92519 0.10989 0.0
In65 In 0.35414 0.85604 0.35534 0.0
O66 O 0.34218 0.86979 0.402 0.0
O67 O 0.32473 0.85887 0.36513 0.0
C68 C 0.38865 0.86468 0.36221 0.0
C69 C 0.3537 0.82088 0.36771 0.0
C70 C 0.34739 0.87044 0.29398 0.0
O71 O 0.37674 0.87161 0.38042 0.0
O72 O 0.38309 0.85357 0.34077 0.0
O73 O 0.34841 0.85398 0.29885 0.0
O74 O 0.34993 0.8798 0.32018 0.0
C75 C 0.32639 0.86713 0.39283 0.0
O76 O 0.34862 0.82754 0.33993 0.0
O77 O 0.35886 0.83197 0.38959 0.0
In78 In 0.39014 0.10139 0.59832 0.0
O79 O 0.41791 0.09856 0.57601 0.0
O80 O 0.4157 0.10471 0.62861 0.0
C81 C 0.37147 0.09433 0.54154 0.0
C82 C 0.38007 0.07414 0.63819 0.0
C83 C 0.38286 0.13605 0.60647 0.0
O84 O 0.38782 0.09122 0.54404 0.0
O85 O 0.36447 0.10097 0.56779 0.0
O86 O 0.37852 0.12457 0.62833 0.0
O87 O 0.39081 0.13002 0.5807 0.0
C88 C 0.42579 0.10181 0.60364 0.0
O89 O 0.37729 0.09004 0.6464 0.0
O90 O 0.38793 0.07209 0.61017 0.0
In91 In 0.14575 0.14061 0.84902 0.0
O92 O 0.15919 0.12254 0.88813 0.0
O93 O 0.17402 0.14384 0.86742 0.0
C94 C 0.11178 0.1304 0.85808 0.0
C95 C 0.14316 0.176 0.85729 0.0
C96 C 0.15493 0.1266 0.7885 0.0
O97 O 0.12288 0.13052 0.88212 0.0
O98 O 0.11786 0.13525 0.82968 0.0
O99 O 0.15209 0.14289 0.79279 0.0
O100 O 0.15302 0.1172 0.81486 0.0
C101 C 0.17376 0.13069 0.88713 0.0
O102 O 0.14863 0.16894 0.83016 0.0
O103 O 0.13903 0.1652 0.88049 0.0
In104 In 0.8904 0.89887 0.59591 0.0
O105 O 0.91868 0.90331 0.57794 0.0
O106 O 0.91507 0.89217 0.62715 0.0
C107 C 0.87461 0.90741 0.53664 0.0
C108 C 0.88054 0.92609 0.63612 0.0
C109 C 0.88184 0.86435 0.60184 0.0
O110 O 0.89117 0.90702 0.5404 0.0
O111 O 0.86585 0.90354 0.56299 0.0
O112 O 0.87864 0.87544 0.62512 0.0
O113 O 0.88925 0.87071 0.57579 0.0
C114 C 0.92581 0.89733 0.60461 0.0
O115 O 0.8742 0.91075 0.63973 0.0
O116 O 0.89177 0.92753 0.61258 0.0
In117 In 0.85164 0.13957 0.34871 0.0
O118 O 0.85143 0.16765 0.32719 0.0
O119 O 0.85422 0.16472 0.38066 0.0
C120 C 0.84238 0.12295 0.29073 0.0
C121 C 0.82535 0.12864 0.39012 0.0
C122 C 0.88604 0.13074 0.35495 0.0
O123 O 0.83741 0.13847 0.29773 0.0
O124 O 0.85202 0.11574 0.31304 0.0
O125 O 0.87443 0.12554 0.37586 0.0
O126 O 0.88025 0.14029 0.33104 0.0
C127 C 0.85333 0.17514 0.35565 0.0
O128 O 0.84144 0.12674 0.39785 0.0
O129 O 0.82263 0.13604 0.36184 0.0
In130 In 0.60623 0.10141 0.09963 0.0
O131 O 0.62325 0.08858 0.14144 0.0
O132 O 0.60402 0.07286 0.11616 0.0
C133 C 0.61538 0.13552 0.10902 0.0
C134 C 0.57079 0.10489 0.1051 0.0
C135 C 0.62216 0.09176 0.04118 0.0
O136 O 0.6168 0.12414 0.13248 0.0
O137 O 0.60945 0.12964 0.08119 0.0
O138 O 0.6063 0.08795 0.04788 0.0
O139 O 0.63008 0.10045 0.06403 0.0
C140 C 0.61612 0.07357 0.13817 0.0
O141 O 0.57855 0.10305 0.07688 0.0
O142 O 0.58092 0.10502 0.13069 0.0
In143 In 0.64428 0.85857 0.84775 0.0
O144 O 0.6479 0.83077 0.82593 0.0
O145 O 0.64044 0.83308 0.87792 0.0
C146 C 0.6504 0.87748 0.79093 0.0
C147 C 0.67176 0.8684 0.8873 0.0
C148 C 0.60957 0.86562 0.85517 0.0
O149 O 0.65393 0.8612 0.79318 0.0
O150 O 0.64392 0.8843 0.8175 0.0
O151 O 0.621 0.87106 0.87624 0.0
O152 O 0.6157 0.85664 0.83076 0.0
C153 C 0.644 0.82295 0.85332 0.0
O154 O 0.6559 0.87056 0.89652 0.0
O155 O 0.67362 0.86134 0.85846 0.0
In156 In 0.88857 0.10225 0.89427 0.0
O157 O 0.87259 0.08935 0.85134 0.0
O158 O 0.89086 0.07344 0.8788 0.0
C159 C 0.87962 0.13635 0.88336 0.0
C160 C 0.92416 0.10496 0.8905 0.0
C161 C 0.87098 0.09346 0.95147 0.0
O162 O 0.87886 0.12483 0.86008 0.0
O163 O 0.88493 0.13065 0.91178 0.0
O164 O 0.88741 0.09109 0.94804 0.0
O165 O 0.86338 0.10017 0.92592 0.0
C166 C 0.87943 0.07427 0.85548 0.0
O167 O 0.91603 0.10334 0.91839 0.0
O168 O 0.91434 0.10528 0.86449 0.0
In169 In 0.64741 0.13851 0.64241 0.0
O170 O 0.64952 0.16649 0.66424 0.0
O171 O 0.64561 0.16384 0.61096 0.0
C172 C 0.65354 0.12088 0.7007 0.0
C173 C 0.67505 0.12769 0.60428 0.0
C174 C 0.61297 0.1304 0.63337 0.0
O175 O 0.65737 0.13703 0.69694 0.0
O176 O 0.64669 0.11358 0.67492 0.0
O177 O 0.62494 0.12454 0.61394 0.0
O178 O 0.61841 0.14034 0.65698 0.0
C179 C 0.64748 0.17414 0.63597 0.0
O180 O 0.65945 0.128 0.59282 0.0
O181 O 0.67662 0.13285 0.63465 0.0
In182 In 0.61199 0.8961 0.38744 0.0
O183 O 0.58419 0.90432 0.40481 0.0
O184 O 0.58635 0.88586 0.36427 0.0
C185 C 0.62385 0.90583 0.44923 0.0
C186 C 0.62375 0.92018 0.34146 0.0
C187 C 0.62318 0.86226 0.38302 0.0
O188 O 0.60952 0.91169 0.437 0.0
O189 O 0.63211 0.89519 0.43022 0.0
O190 O 0.62886 0.87418 0.36327 0.0
O191 O 0.61199 0.86747 0.40462 0.0
C192 C 0.57628 0.89457 0.3836 0.0
O193 O 0.61205 0.90889 0.33449 0.0
O194 O 0.62975 0.91911 0.37127 0.0
In195 In 0.8521 0.85893 0.13708 0.0
O196 O 0.84017 0.86668 0.08536 0.0
O197 O 0.8233 0.8662 0.12853 0.0
C198 C 0.88553 0.87114 0.13102 0.0
C199 C 0.85293 0.82339 0.1284 0.0
C200 C 0.84509 0.87269 0.19868 0.0
O201 O 0.87324 0.87618 0.11145 0.0
O202 O 0.8809 0.86005 0.15328 0.0
O203 O 0.84707 0.85629 0.19373 0.0
O204 O 0.84675 0.88224 0.17244 0.0
C205 C 0.82479 0.86897 0.09705 0.0
O206 O 0.84421 0.83073 0.15182 0.0
O207 O 0.86104 0.83396 0.10909 0.0
In208 In 0.60953 0.60044 0.89045 0.0
O209 O 0.582 0.59966 0.91421 0.0
O210 O 0.58365 0.59796 0.86038 0.0
C211 C 0.62593 0.59314 0.94957 0.0
C212 C 0.62118 0.57411 0.8499 0.0
C213 C 0.61687 0.63517 0.88146 0.0
O214 O 0.60996 0.5892 0.94391 0.0
O215 O 0.6338 0.60063 0.92509 0.0
O216 O 0.62413 0.62327 0.86375 0.0
O217 O 0.60601 0.62953 0.9032 0.0
C218 C 0.57383 0.59837 0.88633 0.0
O219 O 0.6178 0.58938 0.83857 0.0
O220 O 0.61873 0.57223 0.88146 0.0
In221 In 0.64706 0.35837 0.14636 0.0
O222 O 0.66019 0.37372 0.10294 0.0
O223 O 0.67612 0.35631 0.13236 0.0
C224 C 0.61328 0.36895 0.13621 0.0
C225 C 0.64375 0.32284 0.1411 0.0
C226 C 0.65667 0.37428 0.20486 0.0
O227 O 0.62466 0.36901 0.11268 0.0
O228 O 0.61897 0.36363 0.16461 0.0
O229 O 0.65638 0.3577 0.20116 0.0
O230 O 0.6521 0.383 0.17884 0.0
C231 C 0.67535 0.36728 0.10823 0.0
O232 O 0.6458 0.33067 0.16916 0.0
O233 O 0.64332 0.33292 0.11549 0.0
In234 In 0.8906 0.39697 0.39794 0.0
O235 O 0.91833 0.39827 0.42097 0.0
O236 O 0.91624 0.39432 0.36758 0.0
C237 C 0.87211 0.40488 0.45448 0.0
C238 C 0.88069 0.4242 0.35791 0.0
C239 C 0.88294 0.36236 0.39 0.0
O240 O 0.88846 0.40795 0.45162 0.0
O241 O 0.86501 0.39789 0.42865 0.0
O242 O 0.87936 0.37373 0.36742 0.0
O243 O 0.89033 0.36848 0.4163 0.0
C244 C 0.92627 0.39599 0.39306 0.0
O245 O 0.87731 0.40833 0.35031 0.0
O246 O 0.88908 0.42623 0.38539 0.0
In247 In 0.85298 0.64123 0.64289 0.0
O248 O 0.85079 0.6696 0.66178 0.0
O249 O 0.8588 0.66583 0.6105 0.0
C250 C 0.84417 0.62642 0.70287 0.0
C251 C 0.82477 0.63165 0.60502 0.0
C252 C 0.88686 0.63048 0.63512 0.0
O253 O 0.84596 0.64287 0.69879 0.0
O254 O 0.84691 0.61722 0.6765 0.0
O255 O 0.87544 0.62871 0.6119 0.0
O256 O 0.88118 0.63762 0.662 0.0
C257 C 0.8554 0.67664 0.63409 0.0
O258 O 0.84012 0.62582 0.59916 0.0
O259 O 0.82377 0.64234 0.62956 0.0
In260 In 0.60766 0.3956 0.59836 0.0
O261 O 0.57937 0.39845 0.57905 0.0
O262 O 0.58284 0.39062 0.63051 0.0
C263 C 0.62335 0.40457 0.53931 0.0
C264 C 0.61774 0.42312 0.63754 0.0
C265 C 0.61721 0.36129 0.60481 0.0
O266 O 0.6068 0.40354 0.54281 0.0
O267 O 0.63218 0.401 0.56579 0.0
O268 O 0.61974 0.37248 0.62819 0.0
O269 O 0.60995 0.36743 0.57842 0.0
C270 C 0.57216 0.39416 0.60677 0.0
O271 O 0.62256 0.40746 0.64375 0.0
O272 O 0.60781 0.42478 0.61194 0.0
In273 In 0.85126 0.35878 0.85146 0.0
O274 O 0.84111 0.36471 0.90531 0.0
O275 O 0.82438 0.37079 0.86351 0.0
C276 C 0.88574 0.36724 0.85928 0.0
C277 C 0.84993 0.32297 0.85351 0.0
C278 C 0.84242 0.37496 0.79294 0.0
O279 O 0.8737 0.37428 0.87698 0.0
O280 O 0.88037 0.356 0.83792 0.0
O281 O 0.83569 0.36041 0.80203 0.0
O282 O 0.85353 0.38142 0.81355 0.0
C283 C 0.82642 0.3707 0.89534 0.0
O284 O 0.84971 0.33156 0.826 0.0
O285 O 0.85062 0.33241 0.87993 0.0
In286 In 0.88888 0.6007 0.10053 0.0
O287 O 0.91666 0.59431 0.08133 0.0
O288 O 0.91419 0.60429 0.13165 0.0
C289 C 0.87341 0.59359 0.04042 0.0
C290 C 0.87774 0.57432 0.14163 0.0
C291 C 0.88085 0.63545 0.10562 0.0
O292 O 0.88991 0.59255 0.04509 0.0
O293 O 0.86459 0.59828 0.06625 0.0
O294 O 0.873 0.62382 0.12308 0.0
O295 O 0.89259 0.62952 0.08591 0.0
C296 C 0.92438 0.59897 0.10836 0.0
O297 O 0.88003 0.58988 0.1524 0.0
O298 O 0.88099 0.57219 0.11044 0.0
In299 In 0.64734 0.64026 0.35366 0.0
O300 O 0.65793 0.63345 0.4068 0.0
O301 O 0.67437 0.62824 0.36417 0.0
C302 C 0.61289 0.63096 0.3582 0.0
C303 C 0.65051 0.67558 0.36282 0.0
C304 C 0.65393 0.62749 0.29112 0.0
O305 O 0.6247 0.62365 0.37608 0.0
O306 O 0.61848 0.64282 0.3384 0.0
O307 O 0.6528 0.64384 0.29737 0.0
O308 O 0.65167 0.61747 0.31655 0.0
C309 C 0.67259 0.62777 0.39605 0.0
O310 O 0.6588 0.66732 0.33992 0.0
O311 O 0.64083 0.666 0.38134 0.0
In312 In 0.39092 0.39609 0.09924 0.0
O313 O 0.38059 0.40763 0.14942 0.0
O314 O 0.38512 0.42515 0.10797 0.0
C315 C 0.38433 0.36135 0.10841 0.0
C316 C 0.42664 0.39736 0.10272 0.0
C317 C 0.37156 0.40234 0.04307 0.0
O318 O 0.37882 0.37299 0.12896 0.0
O319 O 0.39315 0.36727 0.08364 0.0
O320 O 0.38768 0.40658 0.0454 0.0
O321 O 0.36518 0.39493 0.06917 0.0
C322 C 0.3801 0.42331 0.13837 0.0
O323 O 0.41832 0.39836 0.07493 0.0
O324 O 0.41696 0.39588 0.12872 0.0
In325 In 0.3526 0.63918 0.85958 0.0
O326 O 0.34097 0.63079 0.91111 0.0
O327 O 0.32442 0.62979 0.86742 0.0
C328 C 0.38694 0.62999 0.8672 0.0
C329 C 0.3495 0.67445 0.86882 0.0
C330 C 0.34742 0.62589 0.79687 0.0
O331 O 0.37452 0.6209 0.87967 0.0
O332 O 0.38201 0.64363 0.85139 0.0
O333 O 0.34875 0.64228 0.80256 0.0
O334 O 0.34889 0.61615 0.82285 0.0
C335 C 0.32589 0.62729 0.899 0.0
O336 O 0.34319 0.66656 0.84322 0.0
O337 O 0.35714 0.66451 0.89006 0.0
In338 In 0.1092 0.60151 0.60067 0.0
O339 O 0.11919 0.59011 0.65132 0.0
O340 O 0.11603 0.57266 0.60934 0.0
C341 C 0.11658 0.63623 0.60811 0.0
C342 C 0.07352 0.6004 0.60576 0.0
C343 C 0.12708 0.59495 0.5429 0.0
O344 O 0.12273 0.62464 0.62807 0.0
O345 O 0.10671 0.63028 0.58486 0.0
O346 O 0.111 0.59089 0.54673 0.0
O347 O 0.13421 0.60229 0.56836 0.0
C348 C 0.12046 0.57451 0.64006 0.0
O349 O 0.08156 0.59834 0.57791 0.0
O350 O 0.08346 0.60287 0.63112 0.0
In351 In 0.14767 0.35868 0.35011 0.0
O352 O 0.14828 0.33089 0.32749 0.0
O353 O 0.14393 0.33328 0.38078 0.0
C354 C 0.15599 0.37618 0.29256 0.0
C355 C 0.17545 0.36846 0.38889 0.0
C356 C 0.11332 0.36695 0.35977 0.0
O357 O 0.15833 0.35974 0.29598 0.0
O358 O 0.1495 0.38382 0.31826 0.0
O359 O 0.12478 0.36881 0.38294 0.0
O360 O 0.11921 0.36093 0.33202 0.0
C361 C 0.14555 0.32312 0.35545 0.0
O362 O 0.16019 0.37486 0.39316 0.0
O363 O 0.17654 0.35708 0.36552 0.0
In364 In 0.39055 0.59894 0.39653 0.0
O365 O 0.37815 0.5888 0.34696 0.0
O366 O 0.38641 0.56995 0.3838 0.0
C367 C 0.38156 0.63347 0.39439 0.0
C368 C 0.42587 0.59946 0.38575 0.0
C369 C 0.37545 0.59075 0.45646 0.0
O370 O 0.37542 0.62233 0.37349 0.0
O371 O 0.39215 0.62717 0.41605 0.0
O372 O 0.39196 0.59034 0.45169 0.0
O373 O 0.36642 0.59521 0.43076 0.0
C374 C 0.37952 0.5727 0.35507 0.0
O375 O 0.419 0.59296 0.41219 0.0
O376 O 0.41493 0.6055 0.36446 0.0
In377 In 0.14512 0.63878 0.14333 0.0
O378 O 0.14467 0.66694 0.16403 0.0
O379 O 0.14092 0.6636 0.11084 0.0
C380 C 0.15475 0.62316 0.2021 0.0
C381 C 0.1725 0.62861 0.10382 0.0
C382 C 0.11112 0.62858 0.13684 0.0
O383 O 0.15873 0.63892 0.19487 0.0
O384 O 0.14584 0.61517 0.17965 0.0
O385 O 0.12284 0.62433 0.11537 0.0
O386 O 0.1166 0.6379 0.16135 0.0
C387 C 0.142 0.67419 0.13559 0.0
O388 O 0.15669 0.62495 0.09623 0.0
O389 O 0.17432 0.63744 0.13077 0.0
In390 In 0.10833 0.39826 0.89601 0.0
O391 O 0.12123 0.40848 0.84689 0.0
O392 O 0.11207 0.42725 0.88304 0.0
C393 C 0.11617 0.36363 0.89003 0.0
C394 C 0.07273 0.39744 0.88933 0.0
C395 C 0.1254 0.40677 0.95393 0.0
O396 O 0.12186 0.37508 0.86926 0.0
O397 O 0.10663 0.36971 0.9137 0.0
O398 O 0.10984 0.41183 0.94757 0.0
O399 O 0.13243 0.39738 0.93103 0.0
C400 C 0.11945 0.42457 0.85475 0.0
O401 O 0.08032 0.40024 0.91742 0.0
O402 O 0.08308 0.39518 0.86451 0.0
In403 In 0.35042 0.35871 0.64813 0.0
O404 O 0.35137 0.33078 0.66991 0.0
O405 O 0.35532 0.33378 0.61661 0.0
C406 C 0.33952 0.37437 0.7061 0.0
C407 C 0.32356 0.36832 0.60684 0.0
C408 C 0.38466 0.36797 0.64135 0.0
O409 O 0.33583 0.35856 0.69878 0.0
O410 O 0.34872 0.38236 0.68413 0.0
O411 O 0.37344 0.37055 0.61797 0.0
O412 O 0.37854 0.36085 0.66795 0.0
C413 C 0.35433 0.32337 0.64168 0.0
O414 O 0.33852 0.3757 0.60534 0.0
O415 O 0.32238 0.35614 0.62863 0.0
C416 C 0.12047 0.04115 0.34482 0.0
C417 C 0.1238 0.05844 0.33339 0.0
C418 C 0.12423 0.02666 0.32402 0.0
C419 C 0.12697 0.01485 0.23453 0.0
H420 H 0.14646 0.97078 0.26864 0.0
C421 C 0.13078 0.95382 0.14835 0.0
C422 C 0.12523 0.93782 0.16303 0.0
C423 C 0.1344 0.96848 0.16881 0.0
C424 C 0.14091 0.98296 0.25878 0.0
H425 H 0.13417 0.07417 0.29172 0.0
H426 H 0.14059 0.04875 0.25506 0.0
H427 H 0.14588 0.99686 0.30544 0.0
H428 H 0.11979 0.9243 0.21058 0.0
H429 H 0.12555 0.95005 0.24638 0.0
H430 H 0.12123 0.00094 0.18853 0.0
C431 C 0.13504 0.04646 0.28014 0.0
C432 C 0.14064 0.99789 0.2798 0.0
C433 C 0.13141 0.06097 0.3011 0.0
C434 C 0.12406 0.9365 0.19863 0.0
C435 C 0.12748 0.95124 0.21912 0.0
C436 C 0.1271 -8e-05 0.21363 0.0
C437 C 0.13128 0.02918 0.29126 0.0
C438 C 0.13342 0.0139 0.26803 0.0
C439 C 0.13231 0.96752 0.20437 0.0
C440 C 0.13382 0.98372 0.22566 0.0
H441 H 0.11466 0.03881 0.36966 0.0
H442 H 0.121 0.01352 0.33311 0.0
H443 H 0.12108 0.02693 0.22494 0.0
H444 H 0.132 0.95513 0.12095 0.0
H445 H 0.13849 0.98068 0.15665 0.0
C446 C 0.18734 0.87502 0.54087 0.0
C447 C 0.18804 0.87742 0.57632 0.0
C448 C 0.20227 0.87835 0.52082 0.0
C449 C 0.25065 0.87909 0.52916 0.0
H450 H 0.24903 0.89569 0.4357 0.0
C451 C 0.31312 0.88049 0.44534 0.0
C452 C 0.31095 0.87276 0.41307 0.0
C453 C 0.29834 0.88475 0.46516 0.0
C454 C 0.24967 0.89104 0.46179 0.0
H455 H 0.2044 0.88632 0.61838 0.0
H456 H 0.23028 0.89249 0.58339 0.0
H457 H 0.22232 0.89687 0.47073 0.0
H458 H 0.29169 0.864 0.37566 0.0
H459 H 0.26599 0.87125 0.41029 0.0
H460 H 0.27781 0.87284 0.52006 0.0
C461 C 0.21841 0.8876 0.57111 0.0
C462 C 0.23438 0.89169 0.48181 0.0
C463 C 0.20356 0.88415 0.59113 0.0
C464 C 0.29378 0.8699 0.40051 0.0
C465 C 0.27904 0.8742 0.42022 0.0
C466 C 0.2659 0.8785 0.50921 0.0
C467 C 0.21811 0.88425 0.53588 0.0
C468 C 0.23463 0.88541 0.51553 0.0
C469 C 0.28116 0.88142 0.45297 0.0
C470 C 0.2655 0.88413 0.47512 0.0
H471 H 0.17552 0.86984 0.52882 0.0
H472 H 0.20162 0.87547 0.4938 0.0
H473 H 0.25126 0.87386 0.55483 0.0
H474 H 0.32621 0.88293 0.45556 0.0
H475 H 0.30036 0.89045 0.4902 0.0
C476 C 0.3687 0.06174 0.69313 0.0
C477 C 0.37504 0.05903 0.6599 0.0
C478 C 0.36508 0.0473 0.71428 0.0
C479 C 0.35715 -0.00097 0.71443 0.0
H480 H 0.37899 0.00077 0.80378 0.0
C481 C 0.37203 0.93661 0.7942 0.0
C482 C 0.37141 0.93795 0.82986 0.0
C483 C 0.36924 0.95156 0.77392 0.0
C484 C 0.37247 0.00014 0.77923 0.0
H485 H 0.38194 0.03919 0.62223 0.0
H486 H 0.37565 0.01403 0.65912 0.0
H487 H 0.37955 0.02685 0.76758 0.0
H488 H 0.36636 0.95562 0.87229 0.0
H489 H 0.36101 0.98156 0.83698 0.0
H490 H 0.35027 0.9722 0.72593 0.0
C491 C 0.37339 0.02726 0.66881 0.0
C492 C 0.37282 0.01511 0.75846 0.0
C493 C 0.37712 0.04167 0.6478 0.0
C494 C 0.36712 0.95426 0.84484 0.0
C495 C 0.36416 0.96914 0.8246 0.0
C496 C 0.35668 0.98405 0.73532 0.0
C497 C 0.3676 0.02993 0.70244 0.0
C498 C 0.36545 0.01462 0.72564 0.0
C499 C 0.36562 0.96809 0.78894 0.0
C500 C 0.36461 0.98435 0.76776 0.0
H501 H 0.36691 0.075 0.70305 0.0
H502 H 0.36049 0.04972 0.74003 0.0
H503 H 0.35119 0.99836 0.68935 0.0
H504 H 0.37534 0.92417 0.78202 0.0
H505 H 0.37066 0.9503 0.74656 0.0
C506 C 0.20528 0.13477 0.90384 0.0
C507 C 0.18936 0.12538 0.90727 0.0
C508 C 0.22 0.13026 0.92341 0.0
C509 C 0.2518 0.11374 0.95735 0.0
H510 H 0.24344 0.10833 0.05429 0.0
C511 C 0.30919 0.11166 0.05472 0.0
C512 C 0.30683 0.12337 0.08217 0.0
C513 C 0.29497 0.1075 0.03331 0.0
C514 C 0.24598 0.1097 0.02724 0.0
H515 H 0.17644 0.1036 0.93319 0.0
H516 H 0.20227 0.09569 0.96765 0.0
H517 H 0.21839 0.10931 0.0152 0.0
H518 H 0.28772 0.13944 0.10943 0.0
H519 H 0.26308 0.13232 0.07213 0.0
H520 H 0.27934 0.11518 0.96964 0.0
C521 C 0.20329 0.10662 0.9499 0.0
C522 C 0.23164 0.11008 0.00481 0.0
C523 C 0.18853 0.11112 0.93018 0.0
C524 C 0.28995 0.13041 0.08841 0.0
C525 C 0.27578 0.12619 0.06722 0.0
C526 C 0.26614 0.11336 0.97979 0.0
C527 C 0.21914 0.11625 0.9469 0.0
C528 C 0.23437 0.11273 0.96976 0.0
C529 C 0.27815 0.11485 0.03921 0.0
C530 C 0.26333 0.11196 0.01508 0.0
H531 H 0.20633 0.14582 0.88634 0.0
H532 H 0.23189 0.13816 0.92091 0.0
H533 H 0.25432 0.1155 0.93038 0.0
H534 H 0.32207 0.106 0.04943 0.0
H535 H 0.29716 0.09866 0.01198 0.0
C536 C 0.86347 0.93921 0.68477 0.0
C537 C 0.87554 0.94121 0.65783 0.0
C538 C 0.85944 0.95355 0.70595 0.0
C539 C 0.86447 0.98227 0.75968 0.0
H540 H 0.86311 0.0301 0.72396 0.0
C541 C 0.88333 0.04255 0.84002 0.0
C542 C 0.87472 0.05876 0.83455 0.0
C543 C 0.87954 0.02795 0.81956 0.0
C544 C 0.86313 0.01684 0.73441 0.0
H545 H 0.89257 0.95981 0.63142 0.0
H546 H 0.88581 0.98463 0.66848 0.0
H547 H 0.86281 0.00513 0.68478 0.0
H548 H 0.85499 0.07232 0.80411 0.0
H549 H 0.84822 0.04668 0.76834 0.0
H550 H 0.86492 0.99399 0.80931 0.0
C551 C 0.87919 0.97214 0.67306 0.0
C552 C 0.86317 0.00252 0.71193 0.0
C553 C 0.88321 0.95786 0.65199 0.0
C554 C 0.86191 0.06 0.80873 0.0
C555 C 0.85807 0.04534 0.78823 0.0
C556 C 0.86436 0.99659 0.78217 0.0
C557 C 0.86739 0.97014 0.70046 0.0
C558 C 0.86443 0.98511 0.72428 0.0
C559 C 0.86699 0.02921 0.79322 0.0
C560 C 0.86426 0.01404 0.76975 0.0
H561 H 0.85732 0.92652 0.68974 0.0
H562 H 0.8502 0.95164 0.72671 0.0
H563 H 0.8655 0.96902 0.77004 0.0
H564 H 0.89328 0.04119 0.85974 0.0
H565 H 0.88689 0.01584 0.82373 0.0
C566 C 0.79318 0.12413 0.40089 0.0
C567 C 0.81071 0.12328 0.41268 0.0
C568 C 0.77913 0.12031 0.42271 0.0
C569 C 0.76765 0.12246 0.51234 0.0
H570 H 0.72539 0.09732 0.48401 0.0
C571 C 0.70686 0.11942 0.59943 0.0
C572 C 0.69046 0.12244 0.58364 0.0
C573 C 0.72186 0.11583 0.5799 0.0
C574 C 0.73706 0.10446 0.49223 0.0
H575 H 0.82737 0.11717 0.45611 0.0
H576 H 0.80269 0.11065 0.49452 0.0
H577 H 0.7514 0.09751 0.44704 0.0
H578 H 0.67669 0.12352 0.53525 0.0
H579 H 0.70299 0.11784 0.50094 0.0
H580 H 0.75323 0.13014 0.55667 0.0
C581 C 0.79987 0.11431 0.46838 0.0
C582 C 0.75196 0.1045 0.47114 0.0
C583 C 0.81397 0.11799 0.44642 0.0
C584 C 0.68918 0.12122 0.54804 0.0
C585 C 0.70425 0.11784 0.52843 0.0
C586 C 0.75274 0.12255 0.53328 0.0
C587 C 0.78231 0.11569 0.45683 0.0
C588 C 0.76729 0.11376 0.48075 0.0
C589 C 0.72084 0.11543 0.54412 0.0
C590 C 0.73716 0.1138 0.52324 0.0
H591 H 0.79028 0.12811 0.37495 0.0
H592 H 0.76573 0.12168 0.41321 0.0
H593 H 0.77919 0.12993 0.52018 0.0
H594 H 0.70816 0.12006 0.6269 0.0
H595 H 0.73433 0.11366 0.59287 0.0
C596 C 0.64079 0.94765 0.32814 0.0
C597 C 0.62888 0.93442 0.31776 0.0
C598 C 0.64408 0.96225 0.30724 0.0
C599 C 0.63821 0.97949 0.21937 0.0
H600 H 0.63341 0.02492 0.26446 0.0
C601 C 0.61394 0.04134 0.15017 0.0
C602 C 0.6215 0.05783 0.15785 0.0
C603 C 0.61869 0.02631 0.16855 0.0
C604 C 0.63515 0.01238 0.25153 0.0
H605 H 0.61171 0.92564 0.27686 0.0
H606 H 0.61732 0.95115 0.2405 0.0
H607 H 0.63523 0.998 0.29848 0.0
H608 H 0.64013 0.07155 0.19054 0.0
H609 H 0.64838 0.0451 0.22314 0.0
H610 H 0.63745 0.99385 0.17239 0.0
C611 C 0.62426 0.95021 0.26459 0.0
C612 C 0.6362 0.99694 0.27101 0.0
C613 C 0.62095 0.93564 0.2855 0.0
C614 C 0.63406 0.05899 0.18417 0.0
C615 C 0.63875 0.04389 0.20281 0.0
C616 C 0.63714 0.99491 0.19992 0.0
C617 C 0.63557 0.96387 0.27554 0.0
C618 C 0.63722 0.98029 0.2551 0.0
C619 C 0.63108 0.02741 0.19516 0.0
C620 C 0.63506 0.01146 0.21578 0.0
H621 H 0.64716 0.94701 0.35285 0.0
H622 H 0.65301 0.97246 0.31617 0.0
H623 H 0.63933 0.96688 0.20642 0.0
H624 H 0.60423 0.04002 0.13 0.0
H625 H 0.61229 0.01388 0.16245 0.0
C626 C 0.68466 0.87895 0.94248 0.0
C627 C 0.68705 0.87313 0.90881 0.0
C628 C 0.69931 0.88219 0.96336 0.0
C629 C 0.74777 0.88957 0.96226 0.0
H630 H 0.74635 0.86708 0.05103 0.0
C631 C 0.81051 0.87301 0.04001 0.0
C632 C 0.80948 0.87376 0.0757 0.0
C633 C 0.79545 0.87605 0.02014 0.0
C634 C 0.7469 0.87376 0.02662 0.0
H635 H 0.70655 0.86677 0.87012 0.0
H636 H 0.73204 0.87232 0.90654 0.0
H637 H 0.71998 0.86723 0.01556 0.0
H638 H 0.79223 0.87922 0.1186 0.0
H639 H 0.76609 0.8849 0.084 0.0
H640 H 0.77482 0.89582 0.97314 0.0
C641 C 0.71891 0.87452 0.9168 0.0
C642 C 0.73176 0.87383 0.00628 0.0
C643 C 0.7043 0.8712 0.89603 0.0
C644 C 0.79335 0.87835 0.09112 0.0
C645 C 0.77836 0.88152 0.0713 0.0
C646 C 0.76292 0.88957 0.98269 0.0
C647 C 0.71658 0.87977 0.95084 0.0
C648 C 0.73211 0.88146 0.97367 0.0
C649 C 0.77912 0.88001 0.03562 0.0
C650 C 0.76273 0.88141 0.0149 0.0
H651 H 0.6715 0.88062 0.95293 0.0
H652 H 0.69713 0.88639 0.98943 0.0
H653 H 0.74835 0.89574 0.93736 0.0
H654 H 0.82279 0.8695 0.02749 0.0
H655 H 0.79646 0.8746 0.99275 0.0
C656 C 0.63145 0.43585 0.6902 0.0
C657 C 0.62297 0.43836 0.65871 0.0
C658 C 0.63541 0.45036 0.71096 0.0
C659 C 0.6405 0.49896 0.711 0.0
H660 H 0.62319 0.49584 0.8038 0.0
C661 C 0.62461 0.56033 0.79238 0.0
C662 C 0.62652 0.55925 0.8279 0.0
C663 C 0.62786 0.54553 0.77197 0.0
C664 C 0.62849 0.49688 0.77824 0.0
H665 H 0.61258 0.45795 0.6236 0.0
H666 H 0.61952 0.48323 0.65976 0.0
H667 H 0.62258 0.46976 0.76757 0.0
H668 H 0.63439 0.54229 0.86982 0.0
H669 H 0.64057 0.51663 0.83418 0.0
H670 H 0.6462 0.52615 0.72149 0.0
C671 C 0.62316 0.47011 0.66839 0.0
C672 C 0.62809 0.48191 0.75746 0.0
C673 C 0.61906 0.45562 0.64783 0.0
C674 C 0.6326 0.54341 0.8425 0.0
C675 C 0.63605 0.52869 0.82209 0.0
C676 C 0.64105 0.51392 0.73189 0.0
C677 C 0.63113 0.46761 0.70037 0.0
C678 C 0.63373 0.4829 0.72343 0.0
C679 C 0.63328 0.52942 0.78667 0.0
C680 C 0.63468 0.51316 0.76554 0.0
H681 H 0.63466 0.42267 0.69913 0.0
H682 H 0.64165 0.44809 0.73544 0.0
H683 H 0.64513 0.50001 0.68494 0.0
H684 H 0.61991 0.57239 0.78049 0.0
H685 H 0.62538 0.54654 0.74485 0.0
C686 C 0.81299 0.37151 0.95353 0.0
C687 C 0.81214 0.37596 0.91884 0.0
C688 C 0.79851 0.37462 0.97483 0.0
C689 C 0.75013 0.37968 0.96944 0.0
H690 H 0.75439 0.38977 0.06601 0.0
C691 C 0.68932 0.38232 0.05817 0.0
C692 C 0.69101 0.37202 0.08778 0.0
C693 C 0.70416 0.38608 0.03815 0.0
C694 C 0.75302 0.38697 0.03905 0.0
H695 H 0.79603 0.38815 0.8796 0.0
H696 H 0.77094 0.39402 0.91692 0.0
H697 H 0.78063 0.39106 0.02975 0.0
H698 H 0.70953 0.35802 0.12031 0.0
H699 H 0.73539 0.36457 0.08543 0.0
H700 H 0.7226 0.37535 0.97886 0.0
C701 C 0.78255 0.38768 0.92754 0.0
C702 C 0.76804 0.38765 0.01831 0.0
C703 C 0.79695 0.38441 0.9062 0.0
C704 C 0.70783 0.36595 0.09753 0.0
C705 C 0.72266 0.36982 0.07773 0.0
C706 C 0.73513 0.37913 0.99012 0.0
C707 C 0.78296 0.38239 0.96189 0.0
C708 C 0.76683 0.38365 0.98338 0.0
C709 C 0.72095 0.37974 0.04763 0.0
C710 C 0.73649 0.38241 0.02524 0.0
H711 H 0.82455 0.36495 0.9639 0.0
H712 H 0.79923 0.37019 0.00105 0.0
H713 H 0.74873 0.37623 0.94279 0.0
H714 H 0.67651 0.38722 0.05014 0.0
H715 H 0.7025 0.39384 0.01516 0.0
C716 C 0.87847 0.45668 0.34763 0.0
C717 C 0.87572 0.4393 0.33611 0.0
C718 C 0.87474 0.47104 0.3265 0.0
C719 C 0.87292 0.48266 0.23667 0.0
H720 H 0.85201 0.52632 0.26954 0.0
C721 C 0.86771 0.54319 0.14938 0.0
C722 C 0.87267 0.55944 0.16384 0.0
C723 C 0.86454 0.52851 0.17004 0.0
C724 C 0.85796 0.51425 0.26003 0.0
H725 H 0.86642 0.42328 0.29391 0.0
H726 H 0.86002 0.44848 0.25671 0.0
H727 H 0.85287 0.50036 0.30664 0.0
H728 H 0.87757 0.57333 0.21121 0.0
H729 H 0.87257 0.54756 0.24739 0.0
H730 H 0.87872 0.49657 0.19069 0.0
C731 C 0.86512 0.45094 0.28209 0.0
C732 C 0.8584 0.4994 0.28123 0.0
C733 C 0.86873 0.43655 0.30337 0.0
C734 C 0.87374 0.56095 0.19943 0.0
C735 C 0.87077 0.54619 0.22014 0.0
C736 C 0.87261 0.49751 0.21559 0.0
C737 C 0.86829 0.46832 0.29333 0.0
C738 C 0.86611 0.48353 0.2699 0.0
C739 C 0.86649 0.5297 0.20561 0.0
C740 C 0.86535 0.51357 0.22716 0.0
H741 H 0.88379 0.45919 0.37281 0.0
H742 H 0.87751 0.48427 0.33571 0.0
H743 H 0.8792 0.4707 0.22743 0.0
H744 H 0.86658 0.54172 0.12199 0.0
H745 H 0.86089 0.51613 0.15806 0.0
C746 C 0.68643 0.62601 0.45381 0.0
C747 C 0.68709 0.62225 0.41881 0.0
C748 C 0.70112 0.62274 0.47451 0.0
C749 C 0.74951 0.61879 0.46748 0.0
H750 H 0.74622 0.60697 0.56345 0.0
C751 C 0.81099 0.61672 0.5546 0.0
C752 C 0.80915 0.62657 0.58476 0.0
C753 C 0.79615 0.61272 0.53476 0.0
C754 C 0.74732 0.61025 0.53665 0.0
H755 H 0.70311 0.61108 0.37833 0.0
H756 H 0.72857 0.60492 0.41457 0.0
H757 H 0.71976 0.60562 0.52776 0.0
H758 H 0.79038 0.63944 0.61844 0.0
H759 H 0.76453 0.63245 0.58386 0.0
H760 H 0.77699 0.6237 0.4765 0.0
C761 C 0.71693 0.61086 0.42593 0.0
C762 C 0.73218 0.60953 0.51624 0.0
C763 C 0.70232 0.61429 0.4052 0.0
C764 C 0.7922 0.63188 0.59523 0.0
C765 C 0.77738 0.62775 0.5756 0.0
C766 C 0.76465 0.61938 0.48781 0.0
C767 C 0.71669 0.6155 0.46063 0.0
C768 C 0.73303 0.61417 0.48157 0.0
C769 C 0.77922 0.61833 0.54495 0.0
C770 C 0.76363 0.6155 0.52274 0.0
H771 H 0.67485 0.63219 0.46493 0.0
H772 H 0.70052 0.62667 0.50103 0.0
H773 H 0.75063 0.62274 0.44103 0.0
H774 H 0.82391 0.61241 0.54601 0.0
H775 H 0.79791 0.60535 0.51132 0.0
C776 C 0.37164 0.45501 0.14403 0.0
C777 C 0.37475 0.43854 0.15942 0.0
C778 C 0.36795 0.46986 0.16389 0.0
C779 C 0.35623 0.48453 0.25162 0.0
H780 H 0.38176 0.52684 0.22495 0.0
C781 C 0.37481 0.54056 0.34417 0.0
C782 C 0.37421 0.55809 0.33236 0.0
C783 C 0.37117 0.52653 0.32217 0.0
C784 C 0.37427 0.51526 0.23244 0.0
H785 H 0.37584 0.42445 0.20748 0.0
H786 H 0.36994 0.45052 0.24241 0.0
H787 H 0.38229 0.50104 0.18809 0.0
H788 H 0.36866 0.57479 0.28872 0.0
H789 H 0.36241 0.55017 0.25003 0.0
H790 H 0.34889 0.49869 0.2968 0.0
C791 C 0.36999 0.45194 0.21494 0.0
C792 C 0.37454 0.50044 0.21128 0.0
C793 C 0.37349 0.43702 0.19499 0.0
C794 C 0.3693 0.56139 0.29843 0.0
C795 C 0.36577 0.54733 0.27631 0.0
C796 C 0.35605 0.49935 0.27292 0.0
C797 C 0.36751 0.46861 0.19963 0.0
C798 C 0.36576 0.48479 0.22084 0.0
C799 C 0.36696 0.52975 0.28786 0.0
C800 C 0.36531 0.51476 0.26376 0.0
H801 H 0.37231 0.4565 0.11659 0.0
H802 H 0.36573 0.4824 0.15122 0.0
H803 H 0.34908 0.4728 0.25946 0.0
H804 H 0.3785 0.53764 0.37026 0.0
H805 H 0.37239 0.51313 0.33169 0.0
C806 C 0.20502 0.62629 0.09501 0.0
C807 C 0.18779 0.62332 0.08287 0.0
C808 C 0.21965 0.62223 0.07485 0.0
C809 C 0.2325 0.61907 0.98591 0.0
H810 H 0.27608 0.59996 0.02308 0.0
C811 C 0.29522 0.61557 0.90428 0.0
C812 C 0.31077 0.62162 0.92003 0.0
C813 C 0.28023 0.61179 0.92366 0.0
C814 C 0.26402 0.60537 0.01236 0.0
H815 H 0.1723 0.61328 0.04058 0.0
H816 H 0.19801 0.60629 0.00498 0.0
H817 H 0.24936 0.60041 0.0581 0.0
H818 H 0.32314 0.62778 0.96842 0.0
H819 H 0.29678 0.62165 0.00234 0.0
H820 H 0.24719 0.62476 0.94078 0.0
C821 C 0.20013 0.61181 0.03013 0.0
C822 C 0.24873 0.60557 0.03236 0.0
C823 C 0.18545 0.61577 0.05048 0.0
C824 C 0.31131 0.62313 0.95566 0.0
C825 C 0.29623 0.6195 0.97507 0.0
C826 C 0.24778 0.61896 0.966 0.0
C827 C 0.21736 0.6152 0.04202 0.0
C828 C 0.23291 0.61276 0.01955 0.0
C829 C 0.2804 0.61415 0.95919 0.0
C830 C 0.26382 0.61243 0.97921 0.0
H831 H 0.20723 0.63205 0.11995 0.0
H832 H 0.23274 0.62522 0.08452 0.0
H833 H 0.22057 0.62491 0.97551 0.0
H834 H 0.29452 0.61408 0.87684 0.0
H835 H 0.26838 0.60734 0.9107 0.0
C836 C 0.12383 0.45676 0.84418 0.0
C837 C 0.12492 0.43925 0.83238 0.0
C838 C 0.12774 0.47086 0.82254 0.0
C839 C 0.12658 0.4823 0.73267 0.0
H840 H 0.15031 0.52509 0.76255 0.0
C841 C 0.12986 0.54308 0.64574 0.0
C842 C 0.12593 0.55936 0.66121 0.0
C843 C 0.13353 0.52821 0.66557 0.0
C844 C 0.14359 0.51326 0.75389 0.0
H845 H 0.13159 0.42267 0.78916 0.0
H846 H 0.13833 0.44744 0.75108 0.0
H847 H 0.15012 0.49904 0.79945 0.0
H848 H 0.12339 0.5731 0.70942 0.0
H849 H 0.12928 0.54699 0.74425 0.0
H850 H 0.11935 0.49658 0.68787 0.0
C851 C 0.13437 0.4502 0.77707 0.0
C852 C 0.14354 0.49835 0.77495 0.0
C853 C 0.13056 0.43606 0.79884 0.0
C854 C 0.12639 0.56069 0.69687 0.0
C855 C 0.12988 0.54575 0.71678 0.0
C856 C 0.12653 0.49721 0.71174 0.0
C857 C 0.13273 0.46775 0.7886 0.0
C858 C 0.13476 0.48282 0.76478 0.0
C859 C 0.13314 0.52925 0.70133 0.0
C860 C 0.13477 0.51297 0.72232 0.0
H861 H 0.11957 0.45961 0.86997 0.0
H862 H 0.12614 0.48423 0.83203 0.0
H863 H 0.11947 0.47062 0.72437 0.0
H864 H 0.12982 0.54174 0.61824 0.0
H865 H 0.13636 0.51581 0.65284 0.0
C866 C 0.18929 0.38621 0.43579 0.0
C867 C 0.19088 0.37362 0.40963 0.0
C868 C 0.20389 0.39046 0.45613 0.0
C869 C 0.25286 0.38585 0.46159 0.0
H870 H 0.24446 0.3854 0.55906 0.0
C871 C 0.29206 0.36496 0.58971 0.0
C872 C 0.30847 0.37333 0.58507 0.0
C873 C 0.27774 0.36915 0.56889 0.0
C874 C 0.24701 0.38564 0.53189 0.0
H875 H 0.20902 0.35597 0.38359 0.0
H876 H 0.2343 0.36308 0.41932 0.0
H877 H 0.21942 0.38511 0.52001 0.0
H878 H 0.3227 0.39291 0.55545 0.0
H879 H 0.2975 0.40027 0.51873 0.0
H880 H 0.28048 0.38528 0.47356 0.0
C881 C 0.22193 0.36993 0.42389 0.0
C882 C 0.23266 0.38568 0.5095 0.0
C883 C 0.20739 0.36571 0.40361 0.0
C884 C 0.31021 0.38621 0.55948 0.0
C885 C 0.29582 0.39039 0.53847 0.0
C886 C 0.26722 0.38576 0.484 0.0
C887 C 0.22032 0.3822 0.45063 0.0
C888 C 0.23543 0.38519 0.4741 0.0
C889 C 0.27945 0.38182 0.5429 0.0
C890 C 0.26443 0.38505 0.51938 0.0
H891 H 0.17673 0.3926 0.44082 0.0
H892 H 0.20227 0.40008 0.47635 0.0
H893 H 0.25541 0.3858 0.43442 0.0
H894 H 0.29031 0.35497 0.60923 0.0
H895 H 0.26544 0.36205 0.57257 0.0
C896 C 0.1196 0.1663 0.41017 0.0
C897 C 0.12236 0.15455 0.38294 0.0
C898 C 0.12348 0.18427 0.40661 0.0
C899 C 0.12809 0.21915 0.34235 0.0
H900 H 0.15138 0.24476 0.41535 0.0
C901 C 0.14702 0.29291 0.32955 0.0
C902 C 0.14417 0.30368 0.35821 0.0
C903 C 0.14546 0.27453 0.33204 0.0
C904 C 0.1447 0.23785 0.39487 0.0
H905 H 0.13145 0.15234 0.3307 0.0
H906 H 0.13817 0.18384 0.32441 0.0
H907 H 0.14674 0.21295 0.42061 0.0
H908 H 0.13748 0.3037 0.41193 0.0
H909 H 0.13443 0.27167 0.41619 0.0
H910 H 0.12572 0.24407 0.31687 0.0
C911 C 0.13294 0.17912 0.34846 0.0
C912 C 0.14209 0.21962 0.39786 0.0
C913 C 0.12918 0.1611 0.35211 0.0
C914 C 0.13982 0.29573 0.38944 0.0
C915 C 0.13818 0.27736 0.39191 0.0
C916 C 0.13062 0.23741 0.33942 0.0
C917 C 0.1301 0.1909 0.37567 0.0
C918 C 0.13364 0.2101 0.37175 0.0
C919 C 0.14095 0.26653 0.36322 0.0
C920 C 0.13884 0.247 0.36576 0.0
H921 H 0.11435 0.16164 0.43424 0.0
H922 H 0.12095 0.19304 0.4279 0.0
H923 H 0.12134 0.21221 0.32199 0.0
H924 H 0.15047 0.29867 0.30516 0.0
H925 H 0.14792 0.26658 0.30956 0.0
C926 C 0.9526 0.88729 0.63669 0.0
C927 C 0.94519 0.89613 0.60864 0.0
C928 C 0.97095 0.88561 0.63974 0.0
C929 C 0.01199 0.88711 0.58832 0.0
H930 H 0.03468 0.88924 0.67691 0.0
C931 C 0.08806 0.88437 0.60561 0.0
C932 C 0.09409 0.87264 0.63084 0.0
C933 C 0.07004 0.88842 0.60302 0.0
C934 C 0.0285 0.88854 0.65202 0.0
H935 H 0.95111 0.9105 0.56219 0.0
H936 H 0.98312 0.90793 0.56787 0.0
H937 H 0.0029 0.89435 0.67237 0.0
H938 H 0.08611 0.85613 0.67337 0.0
H939 H 0.05474 0.86327 0.66893 0.0
H940 H 0.03767 0.88135 0.56806 0.0
C941 C 0.9748 0.90194 0.58716 0.0
C942 C 0.01029 0.8914 0.64941 0.0
C943 C 0.95646 0.90351 0.584 0.0
C944 C 0.08184 0.86521 0.65365 0.0
C945 C 0.0639 0.86938 0.65126 0.0
C946 C 0.03023 0.88437 0.59092 0.0
C947 C 0.98228 0.89284 0.61491 0.0
C948 C 0.00178 0.89055 0.61757 0.0
C949 C 0.05779 0.88096 0.62584 0.0
C950 C 0.03863 0.88488 0.62284 0.0
H951 H 0.94422 0.8814 0.65601 0.0
H952 H 0.97622 0.87829 0.66119 0.0
H953 H 0.00585 0.88607 0.56346 0.0
H954 H 0.09722 0.89029 0.58771 0.0
H955 H 0.0657 0.89749 0.58332 0.0
C956 C 0.37804 0.83072 0.90964 0.0
C957 C 0.37097 0.84288 0.88624 0.0
C958 C 0.37324 0.81291 0.9083 0.0
C959 C 0.35691 0.77887 0.84999 0.0
H960 H 0.34818 0.75269 0.93335 0.0
C961 C 0.34015 0.70436 0.84822 0.0
C962 C 0.34887 0.69388 0.87259 0.0
C963 C 0.34058 0.72281 0.85053 0.0
C964 C 0.3507 0.75977 0.90986 0.0
H965 H 0.35327 0.84599 0.84317 0.0
H966 H 0.34494 0.81469 0.84066 0.0
H967 H 0.35313 0.78455 0.93592 0.0
H968 H 0.36457 0.69446 0.91882 0.0
H969 H 0.36558 0.72662 0.9226 0.0
H970 H 0.35497 0.75407 0.82399 0.0
C971 C 0.35422 0.81899 0.86 0.0
C972 C 0.3535 0.77803 0.91133 0.0
C973 C 0.35893 0.83689 0.8615 0.0
C974 C 0.35768 0.70219 0.89972 0.0
C975 C 0.35816 0.72063 0.90198 0.0
C976 C 0.35418 0.76059 0.84852 0.0
C977 C 0.36135 0.80682 0.88341 0.0
C978 C 0.3569 0.78773 0.88148 0.0
C979 C 0.34978 0.73118 0.8772 0.0
C980 C 0.3513 0.75078 0.8785 0.0
H981 H 0.38735 0.83494 0.929 0.0
H982 H 0.37916 0.80382 0.92638 0.0
H983 H 0.35968 0.78596 0.8266 0.0
H984 H 0.33318 0.69831 0.82709 0.0
H985 H 0.33377 0.73052 0.83131 0.0
C986 C 0.41343 0.12774 0.16126 0.0
C987 C 0.40195 0.12625 0.13323 0.0
C988 C 0.43148 0.12435 0.15758 0.0
C989 C 0.46691 0.12361 0.09379 0.0
H990 H 0.49243 0.09715 0.1628 0.0
C991 C 0.54068 0.10533 0.07874 0.0
C992 C 0.5514 0.10669 0.10789 0.0
C993 C 0.52232 0.10699 0.0813 0.0
C994 C 0.48554 0.10473 0.14349 0.0
H995 H 0.40031 0.11991 0.07943 0.0
H996 H 0.43196 0.11399 0.07296 0.0
H997 H 0.46052 0.1011 0.16811 0.0
H998 H 0.55135 0.11094 0.16254 0.0
H999 H 0.51932 0.11416 0.16698 0.0
H1000 H 0.49193 0.1275 0.06943 0.0
C1001 C 0.42697 0.11788 0.09773 0.0
C1002 C 0.46726 0.10695 0.1465 0.0
C1003 C 0.40886 0.12117 0.10147 0.0
C1004 C 0.54341 0.10976 0.13965 0.0
C1005 C 0.52505 0.11149 0.14221 0.0
C1006 C 0.48521 0.12146 0.09085 0.0
C1007 C 0.43847 0.11949 0.12574 0.0
C1008 C 0.45777 0.1165 0.12178 0.0
C1009 C 0.51428 0.11012 0.11306 0.0
C1010 C 0.49476 0.11207 0.11577 0.0
H1011 H 0.40849 0.13166 0.18606 0.0
H1012 H 0.44004 0.12591 0.17954 0.0
H1013 H 0.45999 0.13124 0.07458 0.0
H1014 H 0.54647 0.10289 0.05393 0.0
H1015 H 0.51441 0.10563 0.05843 0.0
C1016 C 0.13416 0.70085 0.1009 0.0
C1017 C 0.13999 0.69352 0.13182 0.0
C1018 C 0.13174 0.71912 0.09782 0.0
C1019 C 0.14514 0.76174 0.13445 0.0
H1020 H 0.1013 0.77905 0.09541 0.0
C1021 C 0.12592 0.83575 0.13843 0.0
C1022 C 0.11706 0.84273 0.11 0.0
C1023 C 0.12899 0.81754 0.141 0.0
C1024 C 0.11374 0.77448 0.10591 0.0
H1025 H 0.14815 0.6995 0.18356 0.0
H1026 H 0.1441 0.73144 0.17803 0.0
H1027 H 0.10652 0.7473 0.09918 0.0
H1028 H 0.10472 0.83625 0.06168 0.0
H1029 H 0.11048 0.80465 0.06562 0.0
H1030 H 0.15254 0.78886 0.14072 0.0
C1031 C 0.1414 0.72307 0.15622 0.0
C1032 C 0.11669 0.75627 0.10813 0.0
C1033 C 0.14362 0.7048 0.15942 0.0
C1034 C 0.11147 0.83122 0.08405 0.0
C1035 C 0.11467 0.81307 0.08643 0.0
C1036 C 0.14228 0.77997 0.13192 0.0
C1037 C 0.13531 0.7304 0.12547 0.0
C1038 C 0.13239 0.74973 0.12251 0.0
C1039 C 0.12339 0.80597 0.11501 0.0
C1040 C 0.12651 0.78657 0.11768 0.0
H1041 H 0.13126 0.69247 0.07922 0.0
H1042 H 0.12717 0.72445 0.07373 0.0
H1043 H 0.15745 0.75704 0.14534 0.0
H1044 H 0.13033 0.84432 0.15888 0.0
H1045 H 0.1355 0.81253 0.16361 0.0
C1046 C 0.54593 0.90239 0.40473 0.0
C1047 C 0.55681 0.8929 0.38216 0.0
C1048 C 0.52754 0.9001 0.40408 0.0
C1049 C 0.49363 0.8679 0.37723 0.0
H1050 H 0.4612 0.90758 0.38279 0.0
C1051 C 0.42008 0.86039 0.3448 0.0
C1052 C 0.40765 0.86887 0.3658 0.0
C1053 C 0.43811 0.86385 0.34839 0.0
C1054 C 0.47009 0.89635 0.38165 0.0
H1055 H 0.557 0.87386 0.34081 0.0
H1056 H 0.52504 0.86997 0.33949 0.0
H1057 H 0.49311 0.91278 0.38606 0.0
H1058 H 0.40433 0.88782 0.40678 0.0
H1059 H 0.436 0.89385 0.41322 0.0
H1060 H 0.47074 0.85146 0.37266 0.0
C1061 C 0.53066 0.87899 0.35803 0.0
C1062 C 0.48835 0.89933 0.3835 0.0
C1063 C 0.54897 0.8813 0.35863 0.0
C1064 C 0.41362 0.88108 0.39025 0.0
C1065 C 0.43173 0.88459 0.39382 0.0
C1066 C 0.47544 0.86493 0.3754 0.0
C1067 C 0.51974 0.88821 0.38095 0.0
C1068 C 0.50032 0.88515 0.38082 0.0
C1069 C 0.44417 0.87589 0.37309 0.0
C1070 C 0.46345 0.87913 0.3771 0.0
H1071 H 0.55162 0.91141 0.42317 0.0
H1072 H 0.51949 0.90732 0.42219 0.0
H1073 H 0.50248 0.85665 0.37586 0.0
H1074 H 0.41589 0.85097 0.3256 0.0
H1075 H 0.44731 0.85717 0.3316 0.0
C1076 C 0.38257 0.16691 0.58382 0.0
C1077 C 0.37901 0.15508 0.61057 0.0
C1078 C 0.3791 0.18495 0.58756 0.0
C1079 C 0.37395 0.21964 0.65206 0.0
H1080 H 0.35147 0.24569 0.57869 0.0
C1081 C 0.35376 0.29292 0.66652 0.0
C1082 C 0.35651 0.30404 0.63833 0.0
C1083 C 0.35588 0.27463 0.66343 0.0
C1084 C 0.35795 0.23867 0.59927 0.0
H1085 H 0.36902 0.1528 0.66217 0.0
H1086 H 0.36301 0.18443 0.66878 0.0
H1087 H 0.35629 0.21394 0.57282 0.0
H1088 H 0.36368 0.3048 0.58486 0.0
H1089 H 0.36775 0.27291 0.57958 0.0
H1090 H 0.37592 0.24436 0.67831 0.0
C1091 C 0.36855 0.17972 0.64498 0.0
C1092 C 0.36066 0.22047 0.59592 0.0
C1093 C 0.3719 0.16163 0.64114 0.0
C1094 C 0.36141 0.29653 0.60699 0.0
C1095 C 0.36362 0.27825 0.60394 0.0
C1096 C 0.37134 0.23786 0.65534 0.0
C1097 C 0.3721 0.19156 0.6182 0.0
C1098 C 0.36875 0.21078 0.62222 0.0
C1099 C 0.36088 0.26706 0.63212 0.0
C1100 C 0.36337 0.24762 0.62892 0.0
H1101 H 0.38807 0.16225 0.55996 0.0
H1102 H 0.38217 0.19378 0.56663 0.0
H1103 H 0.38042 0.21255 0.67257 0.0
H1104 H 0.3499 0.29834 0.69097 0.0
H1105 H 0.35341 0.2664 0.68553 0.0
C1106 C 0.08154 0.12507 0.83461 0.0
C1107 C 0.093 0.12559 0.8628 0.0
C1108 C 0.06361 0.12129 0.83896 0.0
C1109 C 0.02813 0.12303 0.90279 0.0
H1110 H 0.00306 0.0935 0.83793 0.0
C1111 C 0.954 0.1057 0.91816 0.0
C1112 C 0.94363 0.10629 0.88844 0.0
C1113 C 0.97243 0.10697 0.91618 0.0
C1114 C 0.00984 0.1019 0.85609 0.0
H1115 H 0.09474 0.12231 0.91759 0.0
H1116 H 0.06331 0.11565 0.92522 0.0
H1117 H 0.03498 0.09731 0.8326 0.0
H1118 H 0.94438 0.10868 0.83339 0.0
H1119 H 0.9765 0.11111 0.82994 0.0
H1120 H 0.00295 0.12785 0.92599 0.0
C1121 C 0.06821 0.1183 0.89979 0.0
C1122 C 0.02813 0.10406 0.85306 0.0
C1123 C 0.08621 0.12202 0.89541 0.0
C1124 C 0.95203 0.10814 0.85673 0.0
C1125 C 0.97045 0.10941 0.85475 0.0
C1126 C 0.00982 0.1209 0.90579 0.0
C1127 C 0.0567 0.118 0.87161 0.0
C1128 C 0.03745 0.1148 0.87615 0.0
C1129 C 0.98087 0.10885 0.88445 0.0
C1130 C 0.00044 0.11046 0.88225 0.0
H1131 H 0.08639 0.12779 0.80916 0.0
H1132 H 0.05506 0.12138 0.81679 0.0
H1133 H 0.03489 0.13158 0.92072 0.0
H1134 H 0.94789 0.10423 0.94297 0.0
H1135 H 0.98008 0.1063 0.9395 0.0
C1136 C 0.86298 0.70341 0.59939 0.0
C1137 C 0.85687 0.69601 0.63003 0.0
C1138 C 0.86472 0.72176 0.59608 0.0
C1139 C 0.86954 0.76238 0.64761 0.0
H1140 H 0.8567 0.78608 0.56349 0.0
C1141 C 0.87013 0.83851 0.63486 0.0
C1142 C 0.87762 0.84534 0.60486 0.0
C1143 C 0.86667 0.8204 0.63786 0.0
C1144 C 0.86047 0.77963 0.58706 0.0
H1145 H 0.8475 0.70195 0.68101 0.0
H1146 H 0.85032 0.73391 0.67511 0.0
H1147 H 0.85248 0.75418 0.56866 0.0
H1148 H 0.88717 0.83864 0.55434 0.0
H1149 H 0.88125 0.80708 0.55965 0.0
H1150 H 0.8776 0.78779 0.66595 0.0
C1151 C 0.85405 0.72559 0.65382 0.0
C1152 C 0.85808 0.76135 0.59 0.0
C1153 C 0.85234 0.70728 0.65713 0.0
C1154 C 0.88137 0.83377 0.57778 0.0
C1155 C 0.87787 0.8157 0.58073 0.0
C1156 C 0.87191 0.78064 0.64468 0.0
C1157 C 0.86036 0.73305 0.62334 0.0
C1158 C 0.86264 0.75251 0.62027 0.0
C1159 C 0.87058 0.80878 0.61087 0.0
C1160 C 0.86748 0.78947 0.61433 0.0
H1161 H 0.8666 0.69504 0.5781 0.0
H1162 H 0.86981 0.72707 0.57239 0.0
H1163 H 0.87346 0.75594 0.67109 0.0
H1164 H 0.86706 0.84713 0.65611 0.0
H1165 H 0.86085 0.8155 0.66126 0.0
C1166 C 0.91687 0.13078 0.33217 0.0
C1167 C 0.90495 0.12616 0.35815 0.0
C1168 C 0.93484 0.12678 0.33525 0.0
C1169 C 0.96926 0.11818 0.39886 0.0
H1170 H 0.99559 0.09979 0.32176 0.0
C1171 C 0.04287 0.09885 0.40996 0.0
C1172 C 0.05395 0.10364 0.38274 0.0
C1173 C 0.02451 0.10038 0.40699 0.0
C1174 C 0.98847 0.1051 0.34343 0.0
H1175 H 0.90242 0.11365 0.40764 0.0
H1176 H 0.93392 0.10673 0.41313 0.0
H1177 H 0.96379 0.10467 0.3166 0.0
H1178 H 0.05455 0.11366 0.33099 0.0
H1179 H 0.02252 0.11665 0.32594 0.0
H1180 H 0.99393 0.11898 0.42552 0.0
C1181 C 0.92934 0.11349 0.39044 0.0
C1182 C 0.97025 0.10784 0.34048 0.0
C1183 C 0.91132 0.11738 0.38723 0.0
C1184 C 0.04632 0.10982 0.35236 0.0
C1185 C 0.02796 0.11142 0.34942 0.0
C1186 C 0.98749 0.11553 0.40176 0.0
C1187 C 0.94129 0.11819 0.36449 0.0
C1188 C 0.96048 0.11452 0.3681 0.0
C1189 C 0.01684 0.10681 0.37677 0.0
C1190 C 0.99734 0.10905 0.37401 0.0
H1191 H 0.91234 0.13756 0.30946 0.0
H1192 H 0.94375 0.13074 0.31502 0.0
H1193 H 0.96211 0.12357 0.42043 0.0
H1194 H 0.04838 0.09396 0.43366 0.0
H1195 H 0.01634 0.09646 0.42835 0.0
C1196 C 0.64316 0.29286 0.16797 0.0
C1197 C 0.64201 0.30342 0.13858 0.0
C1198 C 0.64146 0.27449 0.16574 0.0
C1199 C 0.64399 0.23731 0.1045 0.0
H1200 H 0.61616 0.21249 0.17243 0.0
C1201 C 0.61939 0.16593 0.08554 0.0
C1202 C 0.62003 0.15436 0.11354 0.0
C1203 C 0.62331 0.18384 0.08957 0.0
C1204 C 0.62418 0.2192 0.15354 0.0
H1205 H 0.63818 0.30308 0.08383 0.0
H1206 H 0.63495 0.27102 0.07993 0.0
H1207 H 0.62045 0.24437 0.17742 0.0
H1208 H 0.62543 0.15242 0.16768 0.0
H1209 H 0.63229 0.18386 0.17478 0.0
H1210 H 0.64746 0.21215 0.08034 0.0
C1211 C 0.63744 0.27689 0.10466 0.0
C1212 C 0.62664 0.23747 0.15637 0.0
C1213 C 0.63917 0.29526 0.1069 0.0
C1214 C 0.62482 0.16104 0.14566 0.0
C1215 C 0.62865 0.17904 0.14974 0.0
C1216 C 0.64149 0.21906 0.10162 0.0
C1217 C 0.63854 0.26628 0.13407 0.0
C1218 C 0.63645 0.24676 0.13172 0.0
C1219 C 0.62789 0.19063 0.12172 0.0
C1220 C 0.63142 0.20983 0.12593 0.0
H1221 H 0.64542 0.29878 0.19274 0.0
H1222 H 0.64261 0.2667 0.18881 0.0
H1223 H 0.65191 0.244 0.08544 0.0
H1224 H 0.61573 0.16117 0.06046 0.0
H1225 H 0.62238 0.19247 0.06758 0.0
C1226 C 0.57875 0.86403 0.83265 0.0
C1227 C 0.59049 0.86948 0.85834 0.0
C1228 C 0.56069 0.86754 0.83533 0.0
C1229 C 0.52822 0.89617 0.87918 0.0
H1230 H 0.49513 0.85975 0.85108 0.0
C1231 C 0.45284 0.89993 0.90492 0.0
C1232 C 0.44153 0.89414 0.87876 0.0
C1233 C 0.47114 0.89774 0.90209 0.0
C1234 C 0.50419 0.87014 0.85865 0.0
H1235 H 0.59256 0.88293 0.90698 0.0
H1236 H 0.56085 0.88885 0.91198 0.0
H1237 H 0.52679 0.85413 0.8476 0.0
H1238 H 0.44049 0.88194 0.82878 0.0
H1239 H 0.47246 0.87822 0.82372 0.0
H1240 H 0.50552 0.9121 0.8905 0.0
C1241 C 0.56567 0.88207 0.88951 0.0
C1242 C 0.52235 0.86692 0.85667 0.0
C1243 C 0.58381 0.87859 0.88676 0.0
C1244 C 0.44888 0.88648 0.84941 0.0
C1245 C 0.46717 0.88425 0.84661 0.0
C1246 C 0.51003 0.89937 0.88126 0.0
C1247 C 0.5539 0.87652 0.86385 0.0
C1248 C 0.53459 0.87992 0.86674 0.0
C1249 C 0.47849 0.88967 0.87308 0.0
C1250 C 0.49782 0.88641 0.87087 0.0
H1251 H 0.58352 0.85708 0.81031 0.0
H1252 H 0.55205 0.86336 0.81482 0.0
H1253 H 0.5373 0.90654 0.88675 0.0
H1254 H 0.44753 0.90587 0.92788 0.0
H1255 H 0.4795 0.90192 0.92304 0.0
C1256 C 0.84956 0.29345 0.82453 0.0
C1257 C 0.85015 0.30344 0.85471 0.0
C1258 C 0.8507 0.27499 0.8257 0.0
C1259 C 0.84657 0.23669 0.88445 0.0
H1260 H 0.87737 0.21337 0.81937 0.0
C1261 C 0.87411 0.16669 0.906 0.0
C1262 C 0.87461 0.15504 0.87813 0.0
C1263 C 0.86947 0.1844 0.9014 0.0
C1264 C 0.86852 0.21965 0.83741 0.0
H1265 H 0.8521 0.30198 0.90978 0.0
H1266 H 0.85433 0.26986 0.91183 0.0
H1267 H 0.87205 0.24511 0.81454 0.0
H1268 H 0.87061 0.15274 0.82358 0.0
H1269 H 0.86258 0.18386 0.81548 0.0
H1270 H 0.84342 0.21129 0.90781 0.0
C1271 C 0.85273 0.2762 0.88727 0.0
C1272 C 0.86545 0.23783 0.83464 0.0
C1273 C 0.85156 0.29462 0.88609 0.0
C1274 C 0.87035 0.16144 0.84552 0.0
C1275 C 0.86583 0.17924 0.84087 0.0
C1276 C 0.84971 0.21854 0.8873 0.0
C1277 C 0.85245 0.26616 0.85708 0.0
C1278 C 0.85464 0.24662 0.85843 0.0
C1279 C 0.86533 0.19089 0.8688 0.0
C1280 C 0.86092 0.20987 0.86412 0.0
H1281 H 0.84842 0.2999 0.79997 0.0
H1282 H 0.85022 0.26764 0.80201 0.0
H1283 H 0.83789 0.24297 0.90279 0.0
H1284 H 0.87733 0.16215 0.93144 0.0
H1285 H 0.86945 0.19311 0.92334 0.0
C1286 C 0.58188 0.13082 0.65461 0.0
C1287 C 0.59408 0.1259 0.62934 0.0
C1288 C 0.564 0.12659 0.6512 0.0
C1289 C 0.52995 0.11678 0.58787 0.0
H1290 H 0.50403 0.09831 0.66542 0.0
C1291 C 0.45599 0.09799 0.57855 0.0
C1292 C 0.44525 0.10266 0.60635 0.0
C1293 C 0.4744 0.09932 0.58086 0.0
C1294 C 0.51102 0.10363 0.64361 0.0
H1295 H 0.59718 0.11271 0.58063 0.0
H1296 H 0.56575 0.10545 0.57445 0.0
H1297 H 0.53577 0.10356 0.67021 0.0
H1298 H 0.44531 0.11231 0.65838 0.0
H1299 H 0.47735 0.11503 0.66222 0.0
H1300 H 0.50518 0.11735 0.56151 0.0
C1301 C 0.57009 0.11259 0.5969 0.0
C1302 C 0.52921 0.10658 0.64635 0.0
C1303 C 0.58805 0.11668 0.60049 0.0
C1304 C 0.45326 0.10854 0.63659 0.0
C1305 C 0.47164 0.10998 0.63884 0.0
C1306 C 0.51172 0.11397 0.58519 0.0
C1307 C 0.5579 0.11746 0.62229 0.0
C1308 C 0.53882 0.11335 0.61863 0.0
C1309 C 0.48245 0.10545 0.61097 0.0
C1310 C 0.502 0.10753 0.61316 0.0
H1311 H 0.58614 0.13794 0.67715 0.0
H1312 H 0.55487 0.1307 0.67096 0.0
H1313 H 0.537 0.12218 0.56621 0.0
H1314 H 0.45016 0.09334 0.55496 0.0
H1315 H 0.48232 0.09547 0.55909 0.0
C1316 C 0.64196 0.70344 0.39281 0.0
C1317 C 0.65136 0.69499 0.36659 0.0
C1318 C 0.64182 0.72187 0.3952 0.0
C1319 C 0.64705 0.76171 0.34279 0.0
H1320 H 0.64798 0.78545 0.43041 0.0
C1321 C 0.64078 0.83787 0.35591 0.0
C1322 C 0.62902 0.84364 0.38131 0.0
C1323 C 0.64589 0.82008 0.35427 0.0
C1324 C 0.64763 0.779 0.40576 0.0
H1325 H 0.66833 0.69915 0.32275 0.0
H1326 H 0.66813 0.73142 0.327 0.0
H1327 H 0.65284 0.75358 0.42759 0.0
H1328 H 0.61354 0.83542 0.42509 0.0
H1329 H 0.62231 0.80451 0.42209 0.0
H1330 H 0.64144 0.78709 0.32104 0.0
C1331 C 0.66075 0.72378 0.34552 0.0
C1332 C 0.65041 0.76076 0.40415 0.0
C1333 C 0.66094 0.70532 0.34321 0.0
C1334 C 0.62264 0.83138 0.40523 0.0
C1335 C 0.62778 0.81368 0.40368 0.0
C1336 C 0.64426 0.77998 0.3444 0.0
C1337 C 0.65104 0.73226 0.37137 0.0
C1338 C 0.64982 0.75185 0.37272 0.0
C1339 C 0.63941 0.80779 0.37814 0.0
C1340 C 0.64417 0.78876 0.37598 0.0
H1341 H 0.63444 0.69583 0.41117 0.0
H1342 H 0.63403 0.728 0.41515 0.0
H1343 H 0.64633 0.75521 0.31822 0.0
H1344 H 0.64593 0.84705 0.33718 0.0
H1345 H 0.65497 0.81596 0.33444 0.0
C1346 C 0.91627 0.87323 0.15368 0.0
C1347 C 0.90396 0.87742 0.1281 0.0
C1348 C 0.93388 0.87857 0.15077 0.0
C1349 C 0.96752 0.88946 0.08766 0.0
H1350 H 0.9933 0.90742 0.16585 0.0
C1351 C 0.04211 0.90581 0.08028 0.0
C1352 C 0.05241 0.90025 0.10811 0.0
C1353 C 0.02363 0.90557 0.08222 0.0
C1354 C 0.98633 0.9023 0.14383 0.0
H1355 H 0.90033 0.89065 0.07957 0.0
H1356 H 0.93132 0.89983 0.07425 0.0
H1357 H 0.9615 0.90238 0.17012 0.0
H1358 H 0.0515 0.89034 0.15993 0.0
H1359 H 0.01936 0.88956 0.16313 0.0
H1360 H 0.99238 0.88876 0.06169 0.0
C1361 C 0.92727 0.89243 0.09656 0.0
C1362 C 0.96811 0.89947 0.14627 0.0
C1363 C 0.90956 0.88724 0.09966 0.0
C1364 C 0.04391 0.89476 0.1381 0.0
C1365 C 0.02546 0.89443 0.14 0.0
C1366 C 0.98577 0.89217 0.08528 0.0
C1367 C 0.93961 0.88808 0.12207 0.0
C1368 C 0.95857 0.89275 0.11839 0.0
C1369 C 0.01508 0.8997 0.112 0.0
C1370 C 0.99546 0.89833 0.11354 0.0
H1371 H 0.91234 0.8657 0.17593 0.0
H1372 H 0.94312 0.87484 0.17062 0.0
H1373 H 0.96053 0.8841 0.06587 0.0
H1374 H 0.04832 0.9102 0.05688 0.0
H1375 H 0.01605 0.90995 0.06036 0.0
C1376 C 0.64834 0.79263 0.8289 0.0
C1377 C 0.64288 0.80349 0.85601 0.0
C1378 C 0.64644 0.77425 0.83095 0.0
C1379 C 0.61954 0.74045 0.87279 0.0
H1380 H 0.65716 0.70798 0.84819 0.0
C1381 C 0.61408 0.66631 0.90152 0.0
C1382 C 0.6207 0.65422 0.87754 0.0
C1383 C 0.61736 0.68437 0.89804 0.0
C1384 C 0.64643 0.71686 0.85468 0.0
H1385 H 0.63145 0.80367 0.90671 0.0
H1386 H 0.62802 0.77161 0.91016 0.0
H1387 H 0.66202 0.73988 0.84364 0.0
H1388 H 0.63602 0.65149 0.83116 0.0
H1389 H 0.64141 0.68323 0.8245 0.0
H1390 H 0.60379 0.71765 0.88327 0.0
C1391 C 0.6337 0.7773 0.8873 0.0
C1392 C 0.64925 0.73511 0.85218 0.0
C1393 C 0.63575 0.79563 0.88539 0.0
C1394 C 0.63078 0.66054 0.85005 0.0
C1395 C 0.63394 0.6787 0.84638 0.0
C1396 C 0.61666 0.72226 0.87498 0.0
C1397 C 0.63888 0.76644 0.86 0.0
C1398 C 0.63588 0.74708 0.86159 0.0
C1399 C 0.62717 0.69085 0.87026 0.0
C1400 C 0.63013 0.71021 0.86637 0.0
H1401 H 0.65389 0.79834 0.80595 0.0
H1402 H 0.65046 0.76619 0.80948 0.0
H1403 H 0.60888 0.74937 0.87959 0.0
H1404 H 0.60641 0.66181 0.92317 0.0
H1405 H 0.61228 0.69325 0.91736 0.0
C1406 C 0.45642 0.39849 0.07485 0.0
C1407 C 0.44616 0.39727 0.10461 0.0
C1408 C 0.47488 0.39757 0.0766 0.0
C1409 C 0.51259 0.40145 0.13669 0.0
H1410 H 0.53688 0.37173 0.07105 0.0
C1411 C 0.583 0.3749 0.15884 0.0
C1412 C 0.5947 0.37437 0.13104 0.0
C1413 C 0.56529 0.37953 0.15411 0.0
C1414 C 0.53034 0.38029 0.08926 0.0
H1415 H 0.44714 0.39439 0.15956 0.0
H1416 H 0.47928 0.39257 0.16263 0.0
H1417 H 0.50511 0.37661 0.06553 0.0
H1418 H 0.5971 0.37844 0.07654 0.0
H1419 H 0.56604 0.38654 0.06823 0.0
H1420 H 0.53778 0.40481 0.16082 0.0
C1421 C 0.47314 0.39449 0.13795 0.0
C1422 C 0.51213 0.3831 0.0861 0.0
C1423 C 0.4547 0.39542 0.13619 0.0
C1424 C 0.58837 0.37872 0.09842 0.0
C1425 C 0.57059 0.38327 0.09365 0.0
C1426 C 0.53078 0.39861 0.13989 0.0
C1427 C 0.48345 0.39541 0.10816 0.0
C1428 C 0.503 0.39351 0.11006 0.0
C1429 C 0.55885 0.38366 0.12146 0.0
C1430 C 0.53981 0.38779 0.1165 0.0
H1431 H 0.45019 0.39998 0.05014 0.0
H1432 H 0.48244 0.39854 0.05323 0.0
H1433 H 0.50602 0.4098 0.15521 0.0
H1434 H 0.58749 0.3716 0.18428 0.0
H1435 H 0.55654 0.37946 0.17597 0.0
C1436 C 0.85308 0.20562 0.33076 0.0
C1437 C 0.85499 0.19452 0.35925 0.0
C1438 C 0.85532 0.22391 0.33396 0.0
C1439 C 0.8773 0.25704 0.38758 0.0
H1440 H 0.84516 0.29022 0.34447 0.0
C1441 C 0.88157 0.33175 0.41365 0.0
C1442 C 0.87895 0.34334 0.38614 0.0
C1443 C 0.87812 0.3137 0.41015 0.0
C1444 C 0.85439 0.28113 0.35631 0.0
H1445 H 0.86048 0.19382 0.41349 0.0
H1446 H 0.86442 0.22575 0.41907 0.0
H1447 H 0.83998 0.25846 0.33877 0.0
H1448 H 0.87059 0.34519 0.33341 0.0
H1449 H 0.86489 0.31354 0.32699 0.0
H1450 H 0.89187 0.27957 0.40473 0.0
C1451 C 0.86132 0.22031 0.39423 0.0
C1452 C 0.85139 0.26295 0.3531 0.0
C1453 C 0.85897 0.20205 0.39107 0.0
C1454 C 0.87268 0.33655 0.35507 0.0
C1455 C 0.86933 0.31844 0.35149 0.0
C1456 C 0.88036 0.27518 0.39061 0.0
C1457 C 0.85964 0.23142 0.36567 0.0
C1458 C 0.86277 0.25072 0.36885 0.0
C1459 C 0.87209 0.30679 0.37896 0.0
C1460 C 0.8689 0.28747 0.37517 0.0
H1461 H 0.85003 0.20018 0.3059 0.0
H1462 H 0.85409 0.23212 0.31146 0.0
H1463 H 0.88648 0.24793 0.3995 0.0
H1464 H 0.88626 0.33662 0.438 0.0
H1465 H 0.88006 0.30519 0.43204 0.0
C1466 C 0.91179 0.61846 0.59991 0.0
C1467 C 0.90548 0.62492 0.63122 0.0
C1468 C 0.92958 0.61374 0.59619 0.0
C1469 C 0.96957 0.60178 0.64542 0.0
H1470 H 0.9949 0.61888 0.56606 0.0
C1471 C 0.04572 0.60428 0.63946 0.0
C1472 C 0.05402 0.60061 0.60823 0.0
C1473 C 0.02729 0.60539 0.64147 0.0
C1474 C 0.98798 0.61374 0.58811 0.0
H1475 H 0.91276 0.63125 0.68329 0.0
H1476 H 0.94376 0.62308 0.67679 0.0
H1477 H 0.96316 0.62402 0.5708 0.0
H1478 H 0.04957 0.59478 0.5548 0.0
H1479 H 0.01737 0.59646 0.55838 0.0
H1480 H 0.9944 0.59164 0.66291 0.0
C1481 C 0.93496 0.62151 0.65519 0.0
C1482 C 0.96978 0.6167 0.59082 0.0
C1483 C 0.91723 0.62631 0.65884 0.0
C1484 C 0.04353 0.59771 0.57919 0.0
C1485 C 0.0251 0.59877 0.58121 0.0
C1486 C 0.98775 0.59876 0.64266 0.0
C1487 C 0.94138 0.61528 0.62378 0.0
C1488 C 0.96043 0.61097 0.61973 0.0
C1489 C 0.01676 0.6028 0.61231 0.0
C1490 C 0.99723 0.60492 0.61419 0.0
H1491 H 0.90301 0.61721 0.5782 0.0
H1492 H 0.93411 0.60884 0.57176 0.0
H1493 H 0.96266 0.59695 0.66775 0.0
H1494 H 0.05346 0.60663 0.66225 0.0
H1495 H 0.02134 0.60875 0.66573 0.0
C1496 C 0.64862 0.20457 0.66118 0.0
C1497 C 0.64649 0.19358 0.63257 0.0
C1498 C 0.64668 0.22291 0.65819 0.0
C1499 C 0.6249 0.25627 0.60466 0.0
H1500 H 0.6565 0.2894 0.64933 0.0
C1501 C 0.62004 0.33102 0.58005 0.0
C1502 C 0.62196 0.34241 0.60807 0.0
C1503 C 0.62392 0.31303 0.58313 0.0
C1504 C 0.64744 0.28032 0.63702 0.0
H1505 H 0.64109 0.19317 0.57828 0.0
H1506 H 0.63773 0.22516 0.57306 0.0
H1507 H 0.66183 0.25761 0.65454 0.0
H1508 H 0.62967 0.344 0.6612 0.0
H1509 H 0.63617 0.31245 0.66683 0.0
H1510 H 0.61035 0.27881 0.58749 0.0
C1511 C 0.64072 0.2196 0.59786 0.0
C1512 C 0.65052 0.26212 0.63996 0.0
C1513 C 0.64274 0.2013 0.60081 0.0
C1514 C 0.62809 0.33552 0.63916 0.0
C1515 C 0.6319 0.31747 0.64231 0.0
C1516 C 0.62178 0.27441 0.60185 0.0
C1517 C 0.64247 0.23059 0.62658 0.0
C1518 C 0.63932 0.24992 0.62366 0.0
C1519 C 0.62971 0.30598 0.61438 0.0
C1520 C 0.63305 0.28667 0.61784 0.0
H1521 H 0.65152 0.19898 0.68599 0.0
H1522 H 0.64797 0.23102 0.68082 0.0
H1523 H 0.61583 0.24719 0.59235 0.0
H1524 H 0.61546 0.33597 0.55568 0.0
H1525 H 0.62241 0.30465 0.56093 0.0
C1526 C 0.04233 0.40109 0.91339 0.0
C1527 C 0.05331 0.39633 0.88603 0.0
C1528 C 0.02396 0.39949 0.91067 0.0
C1529 C 0.98776 0.39368 0.84725 0.0
H1530 H 0.96153 0.37668 0.92567 0.0
C1531 C 0.91688 0.36598 0.83834 0.0
C1532 C 0.90463 0.37185 0.86278 0.0
C1533 C 0.93477 0.37026 0.84138 0.0
C1534 C 0.96867 0.38163 0.9037 0.0
H1535 H 0.05376 0.38621 0.83435 0.0
H1536 H 0.02179 0.38292 0.82985 0.0
H1537 H 0.99331 0.38167 0.93043 0.0
H1538 H 0.90145 0.38673 0.90962 0.0
H1539 H 0.93292 0.39399 0.91525 0.0
H1540 H 0.96311 0.39305 0.82031 0.0
C1541 C 0.02725 0.3883 0.85317 0.0
C1542 C 0.98687 0.38455 0.9064 0.0
C1543 C 0.0456 0.39008 0.85579 0.0
C1544 C 0.91062 0.38204 0.89041 0.0
C1545 C 0.92859 0.38614 0.8937 0.0
C1546 C 0.9696 0.39058 0.84447 0.0
C1547 C 0.01619 0.39292 0.88062 0.0
C1548 C 0.99668 0.3905 0.87814 0.0
C1549 C 0.94082 0.38032 0.86914 0.0
C1550 C 0.9599 0.38441 0.8726 0.0
H1551 H 0.04792 0.40605 0.93696 0.0
H1552 H 0.01586 0.40347 0.93211 0.0
H1553 H 0.99479 0.39861 0.82516 0.0
H1554 H 0.91263 0.35812 0.81675 0.0
H1555 H 0.94394 0.36545 0.82229 0.0
C1556 C 0.86525 0.79653 0.09987 0.0
C1557 C 0.85424 0.80398 0.12485 0.0
C1558 C 0.86731 0.7782 0.0977 0.0
C1559 C 0.84701 0.73565 0.12214 0.0
H1560 H 0.89467 0.71771 0.11005 0.0
C1561 C 0.86451 0.66101 0.13163 0.0
C1562 C 0.87686 0.65454 0.10797 0.0
C1563 C 0.86116 0.67919 0.13402 0.0
C1564 C 0.88125 0.72248 0.11303 0.0
H1565 H 0.83642 0.79812 0.16668 0.0
H1566 H 0.84004 0.76605 0.1629 0.0
H1567 H 0.8897 0.74948 0.11289 0.0
H1568 H 0.89515 0.66195 0.06783 0.0
H1569 H 0.88916 0.6935 0.07162 0.0
H1570 H 0.83857 0.70859 0.1221 0.0
C1571 C 0.84701 0.77438 0.14489 0.0
C1572 C 0.87841 0.74071 0.11466 0.0
C1573 C 0.845 0.79274 0.14714 0.0
C1574 C 0.88564 0.66654 0.0865 0.0
C1575 C 0.88228 0.68465 0.08881 0.0
C1576 C 0.84985 0.71738 0.1204 0.0
C1577 C 0.85836 0.76693 0.1204 0.0
C1578 C 0.86125 0.74751 0.11903 0.0
C1579 C 0.87011 0.69122 0.11277 0.0
C1580 C 0.867 0.71059 0.1156 0.0
H1581 H 0.8725 0.80486 0.08226 0.0
H1582 H 0.87594 0.77284 0.07823 0.0
H1583 H 0.83362 0.74051 0.12525 0.0
H1584 H 0.85756 0.65205 0.14853 0.0
H1585 H 0.85182 0.68384 0.15294 0.0
C1586 C 0.58192 0.63373 0.337 0.0
C1587 C 0.59395 0.62629 0.36022 0.0
C1588 C 0.56392 0.62981 0.33908 0.0
C1589 C 0.53184 0.59793 0.37552 0.0
H1590 H 0.49865 0.63622 0.35971 0.0
C1591 C 0.45681 0.59328 0.40503 0.0
C1592 C 0.44521 0.60071 0.38097 0.0
C1593 C 0.4751 0.59541 0.40163 0.0
C1594 C 0.50775 0.62534 0.36381 0.0
H1595 H 0.59664 0.60878 0.40366 0.0
H1596 H 0.56503 0.60218 0.40782 0.0
H1597 H 0.53028 0.64193 0.35621 0.0
H1598 H 0.44361 0.61581 0.33408 0.0
H1599 H 0.47555 0.61954 0.32815 0.0
H1600 H 0.50915 0.58145 0.38367 0.0
C1601 C 0.56957 0.61083 0.38763 0.0
C1602 C 0.52589 0.6286 0.36178 0.0
C1603 C 0.58765 0.61468 0.38539 0.0
C1604 C 0.45223 0.60998 0.35307 0.0
C1605 C 0.4705 0.6122 0.34978 0.0
C1606 C 0.51365 0.5947 0.37776 0.0
C1607 C 0.55747 0.61847 0.36462 0.0
C1608 C 0.53817 0.61492 0.36741 0.0
C1609 C 0.48212 0.6051 0.37422 0.0
C1610 C 0.50143 0.60836 0.37175 0.0
H1611 H 0.5864 0.64261 0.31713 0.0
H1612 H 0.55505 0.63564 0.32052 0.0
H1613 H 0.54093 0.58705 0.3796 0.0
H1614 H 0.45176 0.58606 0.42681 0.0
H1615 H 0.48371 0.5899 0.42099 0.0
C1616 C 0.37255 0.33579 0.14219 0.0
C1617 C 0.38065 0.34229 0.11252 0.0
C1618 C 0.36921 0.31767 0.14583 0.0
C1619 C 0.38265 0.27402 0.11095 0.0
H1620 H 0.33923 0.25776 0.15328 0.0
C1621 C 0.36015 0.20125 0.10529 0.0
C1622 C 0.35437 0.19373 0.13607 0.0
C1623 C 0.36306 0.21946 0.10287 0.0
C1624 C 0.35147 0.26212 0.14164 0.0
H1625 H 0.39136 0.33505 0.06318 0.0
H1626 H 0.38518 0.30363 0.06909 0.0
H1627 H 0.34493 0.28946 0.14835 0.0
H1628 H 0.3468 0.19936 0.18828 0.0
H1629 H 0.35176 0.23124 0.18394 0.0
H1630 H 0.38903 0.24668 0.10377 0.0
C1631 C 0.38178 0.31236 0.08997 0.0
C1632 C 0.35478 0.28027 0.13891 0.0
C1633 C 0.38522 0.3304 0.08648 0.0
C1634 C 0.35127 0.2048 0.16423 0.0
C1635 C 0.35402 0.22304 0.16171 0.0
C1636 C 0.37928 0.25591 0.11344 0.0
C1637 C 0.37382 0.30573 0.11975 0.0
C1638 C 0.37039 0.28644 0.12341 0.0
C1639 C 0.3601 0.23052 0.1311 0.0
C1640 C 0.36364 0.24977 0.12871 0.0
H1641 H 0.36892 0.34466 0.16272 0.0
H1642 H 0.36326 0.31301 0.16927 0.0
H1643 H 0.39498 0.27827 0.09951 0.0
H1644 H 0.36264 0.19304 0.08317 0.0
H1645 H 0.36756 0.2249 0.07885 0.0
C1646 C 0.41086 0.60853 0.88333 0.0
C1647 C 0.40578 0.62501 0.86996 0.0
C1648 C 0.42874 0.60375 0.88461 0.0
C1649 C 0.47228 0.61538 0.84688 0.0
H1650 H 0.49124 0.59059 0.92532 0.0
C1651 C 0.54575 0.59548 0.85299 0.0
C1652 C 0.55433 0.59826 0.88428 0.0
C1653 C 0.52731 0.59647 0.85079 0.0
C1654 C 0.48617 0.59759 0.90329 0.0
H1655 H 0.41541 0.64955 0.84815 0.0
H1656 H 0.44649 0.64146 0.85116 0.0
H1657 H 0.45973 0.59737 0.92282 0.0
H1658 H 0.55038 0.60387 0.93794 0.0
H1659 H 0.51832 0.60608 0.934 0.0
H1660 H 0.49876 0.61637 0.82802 0.0
C1661 C 0.43673 0.63199 0.85985 0.0
C1662 C 0.46806 0.60128 0.90167 0.0
C1663 C 0.4189 0.6367 0.85838 0.0
C1664 C 0.54412 0.60163 0.91347 0.0
C1665 C 0.52571 0.60277 0.91124 0.0
C1666 C 0.49038 0.61179 0.8486 0.0
C1667 C 0.44189 0.6154 0.87269 0.0
C1668 C 0.46094 0.61045 0.87365 0.0
C1669 C 0.51707 0.60042 0.87979 0.0
C1670 C 0.49761 0.60304 0.87699 0.0
H1671 H 0.401 0.59923 0.89232 0.0
H1672 H 0.43223 0.59081 0.89438 0.0
H1673 H 0.46722 0.62217 0.82461 0.0
H1674 H 0.55328 0.59273 0.83011 0.0
H1675 H 0.52109 0.59428 0.82628 0.0
C1676 C 0.11547 0.66698 0.58525 0.0
C1677 C 0.12071 0.65525 0.61111 0.0
C1678 C 0.11927 0.685 0.5877 0.0
C1679 C 0.14793 0.71732 0.6326 0.0
H1680 H 0.11273 0.75074 0.60047 0.0
C1681 C 0.15119 0.79305 0.6568 0.0
C1682 C 0.14686 0.80402 0.62911 0.0
C1683 C 0.14901 0.77471 0.65444 0.0
C1684 C 0.12276 0.74156 0.60923 0.0
H1685 H 0.13405 0.65315 0.65984 0.0
H1686 H 0.14032 0.68478 0.66464 0.0
H1687 H 0.10662 0.71917 0.59762 0.0
H1688 H 0.13729 0.80444 0.577 0.0
H1689 H 0.13341 0.77244 0.57295 0.0
H1690 H 0.16389 0.73992 0.6448 0.0
C1691 C 0.13356 0.68 0.64211 0.0
C1692 C 0.11929 0.72345 0.60756 0.0
C1693 C 0.12988 0.6619 0.63949 0.0
C1694 C 0.1407 0.79631 0.59878 0.0
C1695 C 0.13838 0.77802 0.59652 0.0
C1696 C 0.15134 0.73549 0.63454 0.0
C1697 C 0.12825 0.69178 0.61626 0.0
C1698 C 0.13188 0.71108 0.61897 0.0
C1699 C 0.14232 0.76705 0.62445 0.0
C1700 C 0.13883 0.74777 0.62265 0.0
H1701 H 0.10851 0.66222 0.5629 0.0
H1702 H 0.11529 0.69358 0.56697 0.0
H1703 H 0.15802 0.70817 0.64121 0.0
H1704 H 0.15597 0.79864 0.6805 0.0
H1705 H 0.15205 0.76659 0.67642 0.0
C1706 C 0.08266 0.37011 0.33691 0.0
C1707 C 0.09446 0.37143 0.36447 0.0
C1708 C 0.06479 0.3742 0.3411 0.0
C1709 C 0.02991 0.37728 0.40588 0.0
H1710 H 0.00507 0.40364 0.33579 0.0
C1711 C 0.95636 0.397 0.41964 0.0
C1712 C 0.94573 0.3949 0.39053 0.0
C1713 C 0.97475 0.39543 0.41737 0.0
C1714 C 0.01178 0.39613 0.35546 0.0
H1715 H 0.09684 0.37813 0.41801 0.0
H1716 H 0.06549 0.38528 0.42537 0.0
H1717 H 0.03679 0.3985 0.33032 0.0
H1718 H 0.94599 0.38965 0.3362 0.0
H1719 H 0.97803 0.38667 0.33229 0.0
H1720 H 0.00485 0.37462 0.43073 0.0
C1721 C 0.07009 0.38098 0.40057 0.0
C1722 C 0.02995 0.39321 0.35234 0.0
C1723 C 0.08803 0.37697 0.39633 0.0
C1724 C 0.95385 0.39139 0.35906 0.0
C1725 C 0.97222 0.38979 0.35679 0.0
C1726 C 0.01171 0.38015 0.40895 0.0
C1727 C 0.05829 0.37965 0.37297 0.0
C1728 C 0.03918 0.3836 0.37733 0.0
C1729 C 0.98289 0.39172 0.38595 0.0
C1730 C 0.00239 0.38945 0.38359 0.0
H1731 H 0.08722 0.36585 0.31205 0.0
H1732 H 0.05599 0.3728 0.31946 0.0
H1733 H 0.03662 0.36965 0.42536 0.0
H1734 H 0.95046 0.39978 0.44423 0.0
H1735 H 0.9826 0.39721 0.44022 0.0
C1736 C 0.36683 0.65951 0.36682 0.0
C1737 C 0.37699 0.65246 0.39355 0.0
C1738 C 0.3631 0.67764 0.3657 0.0
C1739 C 0.37945 0.72044 0.39884 0.0
H1740 H 0.33403 0.73802 0.36766 0.0
C1741 C 0.36192 0.7946 0.40314 0.0
C1742 C 0.35431 0.80158 0.37338 0.0
C1743 C 0.36354 0.77631 0.40736 0.0
C1744 C 0.34681 0.73329 0.37625 0.0
H1745 H 0.39078 0.65868 0.44052 0.0
H1746 H 0.38401 0.69015 0.43894 0.0
H1747 H 0.33903 0.70616 0.37158 0.0
H1748 H 0.34198 0.79493 0.32511 0.0
H1749 H 0.34482 0.763 0.33247 0.0
H1750 H 0.38724 0.74754 0.40346 0.0
C1751 C 0.37924 0.68183 0.41843 0.0
C1752 C 0.3497 0.71505 0.37841 0.0
C1753 C 0.38305 0.66377 0.41944 0.0
C1754 C 0.34791 0.78992 0.34834 0.0
C1755 C 0.34945 0.77164 0.35262 0.0
C1756 C 0.37654 0.73865 0.39683 0.0
C1757 C 0.36938 0.68903 0.39137 0.0
C1758 C 0.36608 0.70841 0.38962 0.0
C1759 C 0.35749 0.76464 0.38197 0.0
C1760 C 0.36022 0.74528 0.38538 0.0
H1761 H 0.36202 0.65109 0.34649 0.0
H1762 H 0.35564 0.68277 0.34429 0.0
H1763 H 0.39234 0.7158 0.40696 0.0
H1764 H 0.36693 0.80327 0.42291 0.0
H1765 H 0.3696 0.77128 0.43044 0.0
C1766 C 0.95184 0.60531 0.14175 0.0
C1767 C 0.94384 0.599 0.11182 0.0
C1768 C 0.97025 0.60634 0.14427 0.0
C1769 C 0.01022 0.60948 0.09082 0.0
H1770 H 0.03446 0.59957 0.17585 0.0
C1771 C 0.08636 0.61423 0.10455 0.0
C1772 C 0.09241 0.62319 0.13368 0.0
C1773 C 0.06852 0.60955 0.10148 0.0
C1774 C 0.02785 0.60247 0.15198 0.0
H1775 H 0.9488 0.58837 0.06138 0.0
H1776 H 0.98097 0.58996 0.06591 0.0
H1777 H 0.00271 0.59421 0.17137 0.0
H1778 H 0.08465 0.63409 0.18258 0.0
H1779 H 0.05358 0.62597 0.1772 0.0
H1780 H 0.03535 0.61789 0.07158 0.0
C1781 C 0.97302 0.59437 0.08725 0.0
C1782 C 0.00967 0.59942 0.14942 0.0
C1783 C 0.9546 0.59336 0.08473 0.0
C1784 C 0.08037 0.62718 0.15982 0.0
C1785 C 0.06259 0.62242 0.15685 0.0
C1786 C 0.02842 0.61247 0.09336 0.0
C1787 C 0.98106 0.60104 0.11692 0.0
C1788 C 0.00059 0.60312 0.11896 0.0
C1789 C 0.05644 0.61363 0.12759 0.0
C1790 C 0.03738 0.60923 0.12412 0.0
H1791 H 0.94387 0.60979 0.16302 0.0
H1792 H 0.97599 0.61176 0.16731 0.0
H1793 H 0.0036 0.6127 0.06713 0.0
H1794 H 0.09536 0.61096 0.08401 0.0
H1795 H 0.06418 0.60265 0.07875 0.0
C1796 C 0.13427 0.20267 0.89099 0.0
C1797 C 0.14156 0.19536 0.86124 0.0
C1798 C 0.13241 0.221 0.89427 0.0
C1799 C 0.12998 0.26196 0.84289 0.0
H1800 H 0.13872 0.28497 0.92964 0.0
C1801 C 0.1294 0.33803 0.85851 0.0
C1802 C 0.1202 0.34458 0.88693 0.0
C1803 C 0.13282 0.31992 0.85539 0.0
C1804 C 0.13611 0.2787 0.90532 0.0
H1805 H 0.15287 0.20144 0.81182 0.0
H1806 H 0.1499 0.2334 0.81774 0.0
H1807 H 0.14324 0.25312 0.92427 0.0
H1808 H 0.10751 0.33739 0.93454 0.0
H1809 H 0.11347 0.30581 0.9291 0.0
H1810 H 0.12288 0.28757 0.82397 0.0
C1811 C 0.14532 0.22501 0.83831 0.0
C1812 C 0.13867 0.26046 0.90225 0.0
C1813 C 0.14712 0.2067 0.835 0.0
C1814 C 0.11464 0.33272 0.91234 0.0
C1815 C 0.11815 0.31465 0.90933 0.0
C1816 C 0.12751 0.28021 0.84594 0.0
C1817 C 0.13786 0.23239 0.86791 0.0
C1818 C 0.13554 0.25185 0.87104 0.0
C1819 C 0.12719 0.30804 0.88075 0.0
C1820 C 0.13044 0.28876 0.87723 0.0
H1821 H 0.12982 0.19424 0.9116 0.0
H1822 H 0.1264 0.22622 0.91722 0.0
H1823 H 0.12718 0.25573 0.81863 0.0
H1824 H 0.13386 0.34688 0.83855 0.0
H1825 H 0.13996 0.31522 0.83323 0.0
C1826 C 0.41015 0.37966 0.60732 0.0
C1827 C 0.40357 0.37254 0.63785 0.0
C1828 C 0.42819 0.38339 0.60387 0.0
C1829 C 0.4691 0.3909 0.65374 0.0
H1830 H 0.49268 0.37668 0.57035 0.0
C1831 C 0.54522 0.38754 0.64165 0.0
C1832 C 0.55276 0.39312 0.61075 0.0
C1833 C 0.52685 0.38613 0.64496 0.0
C1834 C 0.48626 0.38096 0.59362 0.0
H1835 H 0.41061 0.36394 0.68884 0.0
H1836 H 0.44204 0.37032 0.68274 0.0
H1837 H 0.46084 0.37253 0.57593 0.0
H1838 H 0.54702 0.40188 0.55928 0.0
H1839 H 0.51499 0.39961 0.56515 0.0
H1840 H 0.49457 0.3992 0.67153 0.0
C1841 C 0.43329 0.37321 0.66158 0.0
C1842 C 0.46801 0.37858 0.59681 0.0
C1843 C 0.41529 0.36945 0.665 0.0
C1844 C 0.54159 0.39746 0.58337 0.0
C1845 C 0.52324 0.39607 0.58667 0.0
C1846 C 0.48736 0.39329 0.65055 0.0
C1847 C 0.43997 0.38012 0.63092 0.0
C1848 C 0.45924 0.38341 0.62699 0.0
C1849 C 0.51566 0.39028 0.61743 0.0
C1850 C 0.49617 0.38824 0.62053 0.0
H1851 H 0.40141 0.38222 0.586 0.0
H1852 H 0.43291 0.3889 0.58006 0.0
H1853 H 0.46269 0.395 0.67714 0.0
H1854 H 0.55351 0.38407 0.66317 0.0
H1855 H 0.52145 0.38143 0.66886 0.0
C1856 C 0.12384 0.08549 0.5142 0.0
C1857 C 0.13417 0.08961 0.48558 0.0
C1858 C 0.13156 0.08419 0.54634 0.0
C1859 C 0.16903 0.10243 0.59328 0.0
H1860 H 0.14757 0.07529 0.66621 0.0
C1861 C 0.16013 0.13033 0.7263 0.0
C1862 C 0.15931 0.11916 0.7548 0.0
C1863 C 0.16267 0.12334 0.69382 0.0
C1864 C 0.15409 0.08271 0.64624 0.0
H1865 H 0.16086 0.09447 0.46765 0.0
H1866 H 0.17448 0.09202 0.52404 0.0
H1867 H 0.14181 0.06719 0.6073 0.0
H1868 H 0.16149 0.09199 0.77205 0.0
H1869 H 0.16613 0.0797 0.71505 0.0
H1870 H 0.18113 0.11809 0.63221 0.0
C1871 C 0.16034 0.09007 0.52166 0.0
C1872 C 0.15059 0.0782 0.6124 0.0
C1873 C 0.15256 0.09143 0.48939 0.0
C1874 C 0.16192 0.1009 0.75042 0.0
C1875 C 0.16454 0.09387 0.71781 0.0
C1876 C 0.17269 0.10681 0.62711 0.0
C1877 C 0.14984 0.08691 0.55064 0.0
C1878 C 0.15723 0.08861 0.58558 0.0
C1879 C 0.16456 0.10499 0.68905 0.0
C1880 C 0.16448 0.09762 0.65395 0.0
H1881 H 0.10963 0.08394 0.51203 0.0
H1882 H 0.12298 0.08204 0.56805 0.0
H1883 H 0.17442 0.11074 0.57334 0.0
H1884 H 0.15821 0.14448 0.7289 0.0
H1885 H 0.16227 0.13231 0.6723 0.0
C1886 C 0.14873 0.89493 0.7466 0.0
C1887 C 0.15883 0.88076 0.73416 0.0
C1888 C 0.15063 0.90051 0.78032 0.0
C1889 C 0.16406 0.8823 0.86306 0.0
H1890 H 0.15332 0.92983 0.89408 0.0
C1891 C 0.15119 0.89644 0.00428 0.0
C1892 C 0.13473 0.90461 0.00963 0.0
C1893 C 0.15891 0.89652 0.97192 0.0
C1894 C 0.15648 0.91653 0.88576 0.0
H1895 H 0.17974 0.86214 0.74621 0.0
H1896 H 0.18342 0.87219 0.80487 0.0
H1897 H 0.15879 0.92445 0.83357 0.0
H1898 H 0.114 0.92026 0.98613 0.0
H1899 H 0.12744 0.92038 0.92971 0.0
H1900 H 0.16123 0.87429 0.91499 0.0
C1901 C 0.17366 0.87867 0.78896 0.0
C1902 C 0.15953 0.91342 0.85114 0.0
C1903 C 0.17161 0.87296 0.75535 0.0
C1904 C 0.12665 0.91377 0.98266 0.0
C1905 C 0.13443 0.91397 0.95042 0.0
C1906 C 0.16116 0.88544 0.89763 0.0
C1907 C 0.16281 0.89215 0.80217 0.0
C1908 C 0.16275 0.89615 0.83925 0.0
C1909 C 0.15037 0.90492 0.94451 0.0
C1910 C 0.15676 0.90246 0.90916 0.0
H1911 H 0.13879 0.90119 0.73077 0.0
H1912 H 0.14187 0.91076 0.78967 0.0
H1913 H 0.16624 0.86879 0.85488 0.0
H1914 H 0.15775 0.88936 0.0247 0.0
H1915 H 0.17128 0.88956 0.96808 0.0
C1916 C 0.3767 0.91017 0.01459 0.0
C1917 C 0.36526 0.90681 0.98718 0.0
C1918 C 0.37013 0.91144 0.04766 0.0
C1919 C 0.33328 0.89474 0.09856 0.0
H1920 H 0.35793 0.92058 0.16952 0.0
C1921 C 0.34239 0.86675 0.23172 0.0
C1922 C 0.34394 0.878 0.26 0.0
C1923 C 0.34025 0.87371 0.19911 0.0
C1924 C 0.35056 0.91353 0.15012 0.0
H1925 H 0.33783 0.90327 0.97244 0.0
H1926 H 0.32624 0.90575 0.03042 0.0
H1927 H 0.36273 0.9284 0.11011 0.0
H1928 H 0.3437 0.90534 0.27667 0.0
H1929 H 0.33976 0.9176 0.21944 0.0
H1930 H 0.32124 0.87977 0.13853 0.0
C1931 C 0.34035 0.90707 0.02638 0.0
C1932 C 0.3535 0.91787 0.116 0.0
C1933 C 0.34697 0.9057 0.9932 0.0
C1934 C 0.34267 0.89637 0.25523 0.0
C1935 C 0.34045 0.90338 0.22249 0.0
C1936 C 0.3302 0.89054 0.13267 0.0
C1937 C 0.35192 0.9095 0.05411 0.0
C1938 C 0.34558 0.90793 0.08981 0.0
C1939 C 0.3395 0.89211 0.19399 0.0
C1940 C 0.33949 0.89928 0.15875 0.0
H1941 H 0.39086 0.91113 0.01071 0.0
H1942 H 0.37949 0.91301 0.06834 0.0
H1943 H 0.32692 0.88679 0.07913 0.0
H1944 H 0.34331 0.85252 0.23461 0.0
H1945 H 0.33994 0.86463 0.17777 0.0
C1946 C 0.34472 0.09893 0.50515 0.0
C1947 C 0.36165 0.09162 0.5095 0.0
C1948 C 0.33645 0.09838 0.4733 0.0
C1949 C 0.3382 0.07845 0.38711 0.0
H1950 H 0.32702 0.12593 0.35661 0.0
C1951 C 0.32184 0.12242 0.25759 0.0
C1952 C 0.33458 0.11476 0.23616 0.0
C1953 C 0.31969 0.11632 0.29093 0.0
C1954 C 0.32955 0.11246 0.36466 0.0
H1955 H 0.38271 0.07693 0.48483 0.0
H1956 H 0.36828 0.07595 0.42928 0.0
H1957 H 0.33282 0.12059 0.41643 0.0
H1958 H 0.35432 0.0941 0.23183 0.0
H1959 H 0.35119 0.08393 0.29031 0.0
H1960 H 0.33538 0.07041 0.33508 0.0
C1961 C 0.36136 0.08207 0.45039 0.0
C1962 C 0.33293 0.10943 0.3991 0.0
C1963 C 0.36969 0.08277 0.48211 0.0
C1964 C 0.34441 0.10024 0.24789 0.0
C1965 C 0.34248 0.09433 0.2814 0.0
C1966 C 0.33461 0.08144 0.35262 0.0
C1967 C 0.34491 0.09034 0.44543 0.0
C1968 C 0.3379 0.09254 0.41046 0.0
C1969 C 0.33049 0.10267 0.30368 0.0
C1970 C 0.33089 0.09863 0.34079 0.0
H1971 H 0.33819 0.10576 0.52591 0.0
H1972 H 0.32372 0.10477 0.47016 0.0
H1973 H 0.34182 0.06525 0.39533 0.0
H1974 H 0.31391 0.13349 0.24895 0.0
H1975 H 0.31002 0.12275 0.30707 0.0
C1976 C 0.8412 0.86884 0.26126 0.0
C1977 C 0.8416 0.88007 0.2328 0.0
C1978 C 0.83916 0.87578 0.29393 0.0
C1979 C 0.84798 0.91638 0.34163 0.0
H1980 H 0.82727 0.88875 0.4147 0.0
C1981 C 0.87703 0.91457 0.47494 0.0
C1982 C 0.86634 0.91082 0.50325 0.0
C1983 C 0.86968 0.91558 0.44243 0.0
C1984 C 0.83277 0.89693 0.39468 0.0
H1985 H 0.83935 0.90729 0.21591 0.0
H1986 H 0.83558 0.91948 0.27318 0.0
H1987 H 0.82092 0.88103 0.35581 0.0
H1988 H 0.83941 0.90635 0.52023 0.0
H1989 H 0.82646 0.90827 0.46318 0.0
H1990 H 0.86003 0.93213 0.38052 0.0
C1991 C 0.83711 0.90531 0.27024 0.0
C1992 C 0.82933 0.89234 0.36087 0.0
C1993 C 0.83923 0.89834 0.23748 0.0
C1994 C 0.84797 0.90912 0.49875 0.0
C1995 C 0.84058 0.91017 0.46611 0.0
C1996 C 0.85129 0.92108 0.37545 0.0
C1997 C 0.83737 0.89413 0.2989 0.0
C1998 C 0.8376 0.90146 0.33401 0.0
C1999 C 0.85145 0.91292 0.43748 0.0
C2000 C 0.84445 0.91086 0.40233 0.0
H2001 H 0.84298 0.85469 0.25844 0.0
H2002 H 0.83977 0.86679 0.31538 0.0
H2003 H 0.85457 0.92373 0.32163 0.0
H2004 H 0.89122 0.91601 0.47765 0.0
H2005 H 0.87852 0.91744 0.421 0.0
C2006 C 0.87061 0.08175 0.01091 0.0
C2007 C 0.86173 0.0901 0.98389 0.0
C2008 C 0.86282 0.08077 0.0431 0.0
C2009 C 0.83402 0.10724 0.09525 0.0
H2010 H 0.83966 0.06918 0.16064 0.0
C2011 C 0.8249 0.12133 0.23691 0.0
C2012 C 0.83832 0.1145 0.25784 0.0
C2013 C 0.82251 0.11479 0.20394 0.0
C2014 C 0.838 0.07995 0.14271 0.0
H2015 H 0.8373 0.10289 0.96862 0.0
H2016 H 0.82376 0.10139 0.02513 0.0
H2017 H 0.84519 0.06362 0.10019 0.0
H2018 H 0.85911 0.09487 0.26169 0.0
H2019 H 0.85555 0.08398 0.20377 0.0
H2020 H 0.82811 0.12394 0.13743 0.0
C2021 C 0.83675 0.09564 0.02136 0.0
C2022 C 0.84107 0.07672 0.10813 0.0
C2023 C 0.84449 0.09648 0.98907 0.0
C2024 C 0.84867 0.10038 0.246 0.0
C2025 C 0.8465 0.09404 0.21283 0.0
C2026 C 0.83116 0.11052 0.12976 0.0
C2027 C 0.84607 0.08824 0.04889 0.0
C2028 C 0.8396 0.09048 0.08424 0.0
C2029 C 0.83374 0.10153 0.19102 0.0
C2030 C 0.83365 0.09707 0.15409 0.0
H2031 H 0.88389 0.07662 0.00755 0.0
H2032 H 0.87039 0.07515 0.06391 0.0
H2033 H 0.83302 0.11817 0.07749 0.0
H2034 H 0.81655 0.13206 0.24567 0.0
H2035 H 0.81225 0.12057 0.1882 0.0
C2036 C 0.66458 0.11996 0.76061 0.0
C2037 C 0.65576 0.11163 0.73349 0.0
C2038 C 0.66483 0.11219 0.79288 0.0
C2039 C 0.63648 0.08517 0.84505 0.0
H2040 H 0.6751 0.0875 0.91001 0.0
C2041 C 0.62246 0.07503 0.98645 0.0
C2042 C 0.63025 0.08762 0.008 0.0
C2043 C 0.62867 0.07274 0.95324 0.0
C2044 C 0.66417 0.08678 0.8922 0.0
H2045 H 0.64123 0.0882 0.7182 0.0
H2046 H 0.64147 0.07472 0.77485 0.0
H2047 H 0.6808 0.09322 0.84966 0.0
H2048 H 0.65122 0.10701 0.01266 0.0
H2049 H 0.66159 0.10367 0.95433 0.0
H2050 H 0.61958 0.08 0.88728 0.0
C2051 C 0.64815 0.08725 0.77109 0.0
C2052 C 0.66747 0.08997 0.85768 0.0
C2053 C 0.64803 0.09495 0.73873 0.0
C2054 C 0.64497 0.09721 0.99649 0.0
C2055 C 0.651 0.09517 0.96308 0.0
C2056 C 0.63314 0.0822 0.8795 0.0
C2057 C 0.65616 0.09603 0.79865 0.0
C2058 C 0.65355 0.08965 0.83395 0.0
C2059 C 0.64257 0.08328 0.94069 0.0
C2060 C 0.64684 0.08347 0.90369 0.0
H2061 H 0.67074 0.13278 0.75722 0.0
H2062 H 0.67095 0.11934 0.81373 0.0
H2063 H 0.62545 0.08508 0.82741 0.0
H2064 H 0.61124 0.06727 0.99494 0.0
H2065 H 0.62216 0.06314 0.93703 0.0
C2066 C 0.6447 0.90133 0.49762 0.0
C2067 C 0.63005 0.91023 0.48384 0.0
C2068 C 0.64959 0.90401 0.53148 0.0
C2069 C 0.62957 0.91684 0.61285 0.0
H2070 H 0.67744 0.90925 0.64542 0.0
C2071 C 0.64377 0.90369 0.75426 0.0
C2072 C 0.65238 0.88738 0.75881 0.0
C2073 C 0.64364 0.91185 0.7223 0.0
C2074 C 0.66404 0.91158 0.63667 0.0
H2075 H 0.6097 0.92975 0.49389 0.0
H2076 H 0.61848 0.93475 0.55306 0.0
H2077 H 0.67225 0.91463 0.58483 0.0
H2078 H 0.66859 0.86741 0.73439 0.0
H2079 H 0.6685 0.88171 0.67869 0.0
H2080 H 0.62134 0.91328 0.66454 0.0
C2081 C 0.62594 0.92539 0.53791 0.0
C2082 C 0.66104 0.91457 0.60201 0.0
C2083 C 0.62094 0.92257 0.50401 0.0
C2084 C 0.66178 0.87993 0.73151 0.0
C2085 C 0.66184 0.88819 0.69972 0.0
C2086 C 0.6326 0.91406 0.64752 0.0
C2087 C 0.64005 0.91579 0.55229 0.0
C2088 C 0.64368 0.91647 0.5895 0.0
C2089 C 0.65234 0.90395 0.69456 0.0
C2090 C 0.64978 0.9107 0.65953 0.0
H2091 H 0.65199 0.89174 0.48265 0.0
H2092 H 0.66033 0.89616 0.54173 0.0
H2093 H 0.61602 0.91806 0.60419 0.0
H2094 H 0.63645 0.90973 0.77495 0.0
H2095 H 0.63627 0.92403 0.71896 0.0
C2096 C 0.62382 0.58492 0.01085 0.0
C2097 C 0.63421 0.59042 0.98318 0.0
C2098 C 0.63089 0.58451 0.04365 0.0
C2099 C 0.66558 0.60653 0.09342 0.0
H2100 H 0.64567 0.57742 0.16515 0.0
C2101 C 0.65691 0.63235 0.22864 0.0
C2102 C 0.65711 0.62069 0.25646 0.0
C2103 C 0.65877 0.62595 0.19553 0.0
C2104 C 0.65173 0.58547 0.14552 0.0
H2105 H 0.66048 0.59855 0.96757 0.0
H2106 H 0.67305 0.5974 0.02491 0.0
H2107 H 0.64105 0.56922 0.10594 0.0
H2108 H 0.6602 0.5933 0.27173 0.0
H2109 H 0.66384 0.58209 0.21371 0.0
H2110 H 0.67634 0.62271 0.13297 0.0
C2111 C 0.65929 0.59386 0.02142 0.0
C2112 C 0.64886 0.58089 0.11148 0.0
C2113 C 0.65213 0.59444 0.98856 0.0
C2114 C 0.65984 0.60256 0.25066 0.0
C2115 C 0.66188 0.59615 0.21745 0.0
C2116 C 0.66867 0.61095 0.12744 0.0
C2117 C 0.64859 0.58941 0.04952 0.0
C2118 C 0.65502 0.59184 0.08504 0.0
C2119 C 0.66108 0.60775 0.18943 0.0
C2120 C 0.66106 0.60096 0.15387 0.0
H2121 H 0.60996 0.58171 0.00746 0.0
H2122 H 0.62213 0.5813 0.06458 0.0
H2123 H 0.67055 0.61532 0.07386 0.0
H2124 H 0.65479 0.64639 0.23234 0.0
H2125 H 0.6577 0.63526 0.17465 0.0
C2126 C 0.65007 0.40953 0.50264 0.0
C2127 C 0.63159 0.40873 0.50621 0.0
C2128 C 0.65768 0.41188 0.47044 0.0
C2129 C 0.64645 0.42212 0.37951 0.0
H2130 H 0.68334 0.38797 0.36009 0.0
C2131 C 0.66035 0.40107 0.24184 0.0
C2132 C 0.66085 0.38261 0.23787 0.0
C2133 C 0.6623 0.40865 0.27417 0.0
C2134 C 0.67309 0.39765 0.36507 0.0
H2135 H 0.60659 0.41058 0.47932 0.0
H2136 H 0.6197 0.4141 0.42346 0.0
H2137 H 0.6753 0.39405 0.41886 0.0
H2138 H 0.6648 0.35766 0.26409 0.0
H2139 H 0.66764 0.37068 0.32019 0.0
H2140 H 0.64305 0.42446 0.32571 0.0
C2141 C 0.62844 0.41333 0.44529 0.0
C2142 C 0.66864 0.40134 0.39887 0.0
C2143 C 0.62088 0.4111 0.47737 0.0
C2144 C 0.66428 0.37194 0.26638 0.0
C2145 C 0.66612 0.37947 0.29859 0.0
C2146 C 0.65072 0.41825 0.34571 0.0
C2147 C 0.64694 0.4134 0.44127 0.0
C2148 C 0.65464 0.41295 0.40642 0.0
C2149 C 0.6647 0.39788 0.30308 0.0
C2150 C 0.66348 0.40529 0.33811 0.0
H2151 H 0.65864 0.4079 0.52455 0.0
H2152 H 0.67197 0.41208 0.4683 0.0
H2153 H 0.63595 0.43153 0.38447 0.0
H2154 H 0.65788 0.40962 0.22019 0.0
H2155 H 0.66139 0.4229 0.27664 0.0
C2156 C 0.84905 0.397 0.74739 0.0
C2157 C 0.83843 0.3832 0.75977 0.0
C2158 C 0.84676 0.40329 0.71423 0.0
C2159 C 0.83096 0.38702 0.6317 0.0
H2160 H 0.84464 0.43405 0.60222 0.0
C2161 C 0.84538 0.40097 0.49123 0.0
C2162 C 0.86245 0.40791 0.48658 0.0
C2163 C 0.83731 0.40164 0.52325 0.0
C2164 C 0.84063 0.42091 0.6101 0.0
H2165 H 0.8162 0.36608 0.74836 0.0
H2166 H 0.81187 0.37736 0.69068 0.0
H2167 H 0.83916 0.42841 0.66264 0.0
H2168 H 0.88394 0.42213 0.51091 0.0
H2169 H 0.86992 0.42324 0.56674 0.0
H2170 H 0.83303 0.37937 0.57946 0.0
C2171 C 0.8223 0.383 0.70619 0.0
C2172 C 0.83756 0.41765 0.64466 0.0
C2173 C 0.82473 0.37657 0.73924 0.0
C2174 C 0.87081 0.41657 0.51384 0.0
C2175 C 0.86271 0.41735 0.54574 0.0
C2176 C 0.83388 0.39032 0.59719 0.0
C2177 C 0.83367 0.39602 0.69289 0.0
C2178 C 0.83337 0.40049 0.656 0.0
C2179 C 0.84613 0.40939 0.55104 0.0
C2180 C 0.83939 0.40712 0.58621 0.0
H2181 H 0.8597 0.40237 0.76272 0.0
H2182 H 0.85592 0.41315 0.7048 0.0
H2183 H 0.82799 0.3736 0.63942 0.0
H2184 H 0.83859 0.39431 0.47056 0.0
H2185 H 0.82447 0.39552 0.5266 0.0
C2186 C 0.8761 0.58682 0.97857 0.0
C2187 C 0.86529 0.59033 0.00684 0.0
C2188 C 0.86878 0.5854 0.94609 0.0
C2189 C 0.83065 0.60159 0.89784 0.0
H2190 H 0.85425 0.57576 0.82558 0.0
C2191 C 0.83825 0.62979 0.76486 0.0
C2192 C 0.84007 0.61867 0.73644 0.0
C2193 C 0.83602 0.62267 0.79731 0.0
C2194 C 0.84714 0.58279 0.84536 0.0
H2195 H 0.83824 0.59401 0.02376 0.0
H2196 H 0.82533 0.59123 0.96685 0.0
H2197 H 0.86017 0.56815 0.88467 0.0
H2198 H 0.83998 0.59141 0.71927 0.0
H2199 H 0.83586 0.57887 0.77624 0.0
H2200 H 0.81772 0.6163 0.85854 0.0
C2201 C 0.83952 0.58993 0.96972 0.0
C2202 C 0.85074 0.57858 0.87931 0.0
C2203 C 0.84689 0.59148 0.0023 0.0
C2204 C 0.83876 0.60028 0.74084 0.0
C2205 C 0.83645 0.59311 0.77344 0.0
C2206 C 0.82688 0.60563 0.8639 0.0
C2207 C 0.85044 0.5873 0.94111 0.0
C2208 C 0.84328 0.58858 0.90591 0.0
C2209 C 0.83544 0.60424 0.80214 0.0
C2210 C 0.83582 0.59695 0.8373 0.0
H2211 H 0.89033 0.58583 0.98129 0.0
H2212 H 0.87767 0.5837 0.9247 0.0
H2213 H 0.8246 0.60956 0.91758 0.0
H2214 H 0.83916 0.64403 0.76226 0.0
H2215 H 0.83565 0.63167 0.81877 0.0
C2216 C 0.3221 0.37416 0.76005 0.0
C2217 C 0.33476 0.38229 0.73913 0.0
C2218 C 0.31939 0.38013 0.79331 0.0
C2219 C 0.32881 0.38399 0.86724 0.0
H2220 H 0.33934 0.43145 0.89888 0.0
C2221 C 0.34468 0.39687 0.00751 0.0
C2222 C 0.36132 0.40487 0.01148 0.0
C2223 C 0.33602 0.39742 0.97605 0.0
C2224 C 0.3362 0.41817 0.89039 0.0
H2225 H 0.35374 0.4037 0.73556 0.0
H2226 H 0.34965 0.41367 0.79394 0.0
H2227 H 0.33298 0.42641 0.83856 0.0
H2228 H 0.38141 0.42077 0.98661 0.0
H2229 H 0.36635 0.42169 0.93172 0.0
H2230 H 0.33256 0.37567 0.91874 0.0
C2231 C 0.34143 0.40297 0.78468 0.0
C2232 C 0.33264 0.41526 0.85587 0.0
C2233 C 0.3439 0.39717 0.75124 0.0
C2234 C 0.36864 0.41438 0.98417 0.0
C2235 C 0.35993 0.41505 0.95284 0.0
C2236 C 0.33216 0.38694 0.9017 0.0
C2237 C 0.32956 0.39414 0.80651 0.0
C2238 C 0.32961 0.39801 0.84367 0.0
C2239 C 0.34381 0.40612 0.94818 0.0
C2240 C 0.33656 0.40393 0.91339 0.0
H2241 H 0.31467 0.36281 0.75109 0.0
H2242 H 0.30983 0.37331 0.80911 0.0
H2243 H 0.3268 0.37049 0.85888 0.0
H2244 H 0.33868 0.38955 0.02824 0.0
H2245 H 0.32355 0.39052 0.97316 0.0
C2246 C 0.34215 0.60049 0.75724 0.0
C2247 C 0.34457 0.61873 0.76238 0.0
C2248 C 0.34025 0.59372 0.72429 0.0
C2249 C 0.33266 0.60725 0.63404 0.0
H2250 H 0.3624 0.56684 0.61353 0.0
C2251 C 0.34933 0.58977 0.49564 0.0
C2252 C 0.36757 0.5876 0.49027 0.0
C2253 C 0.34236 0.589 0.52862 0.0
C2254 C 0.35394 0.57807 0.61885 0.0
H2255 H 0.3464 0.64423 0.73735 0.0
H2256 H 0.3436 0.63246 0.68002 0.0
H2257 H 0.35754 0.57533 0.67259 0.0
H2258 H 0.39266 0.58183 0.51469 0.0
H2259 H 0.38069 0.58088 0.57198 0.0
H2260 H 0.33023 0.61088 0.58028 0.0
C2261 C 0.34276 0.62336 0.70128 0.0
C2262 C 0.35098 0.58283 0.65275 0.0
C2263 C 0.34457 0.63011 0.73415 0.0
C2264 C 0.37855 0.58364 0.51808 0.0
C2265 C 0.37162 0.58291 0.55095 0.0
C2266 C 0.33575 0.60259 0.60014 0.0
C2267 C 0.3408 0.60506 0.69589 0.0
C2268 C 0.34091 0.59792 0.66066 0.0
C2269 C 0.35353 0.58606 0.55675 0.0
C2270 C 0.34704 0.5884 0.59216 0.0
H2271 H 0.34195 0.59143 0.77863 0.0
H2272 H 0.33858 0.57959 0.72102 0.0
H2273 H 0.32449 0.6187 0.63933 0.0
H2274 H 0.34054 0.59271 0.47456 0.0
H2275 H 0.32833 0.59125 0.53221 0.0
C2276 C 0.15307 0.6001 0.50483 0.0
C2277 C 0.13643 0.59234 0.51034 0.0
C2278 C 0.16083 0.59957 0.47253 0.0
C2279 C 0.15803 0.57921 0.3867 0.0
H2280 H 0.16794 0.62679 0.3552 0.0
C2281 C 0.14952 0.60071 0.24759 0.0
C2282 C 0.15913 0.61525 0.23532 0.0
C2283 C 0.15189 0.59489 0.28107 0.0
C2284 C 0.16575 0.6133 0.36351 0.0
H2285 H 0.11544 0.57687 0.48728 0.0
H2286 H 0.12895 0.57598 0.43092 0.0
H2287 H 0.16318 0.6215 0.41535 0.0
H2288 H 0.17985 0.63411 0.24703 0.0
H2289 H 0.1845 0.62356 0.30504 0.0
H2290 H 0.1601 0.5711 0.33456 0.0
C2291 C 0.13604 0.58242 0.45147 0.0
C2292 C 0.16298 0.61029 0.39813 0.0
C2293 C 0.12823 0.58307 0.48366 0.0
C2294 C 0.17206 0.62304 0.25613 0.0
C2295 C 0.17466 0.61704 0.28939 0.0
C2296 C 0.16099 0.58218 0.35199 0.0
C2297 C 0.15215 0.59113 0.44534 0.0
C2298 C 0.1585 0.59335 0.40992 0.0
C2299 C 0.16411 0.60335 0.30272 0.0
C2300 C 0.16426 0.59939 0.33984 0.0
H2301 H 0.15974 0.60724 0.52504 0.0
H2302 H 0.17333 0.60628 0.46851 0.0
H2303 H 0.15478 0.56597 0.39523 0.0
H2304 H 0.13947 0.59447 0.23199 0.0
H2305 H 0.14338 0.58445 0.29047 0.0
C2306 C 0.16731 0.37646 0.23285 0.0
C2307 C 0.15923 0.38541 0.26007 0.0
C2308 C 0.16825 0.38431 0.2007 0.0
C2309 C 0.14204 0.4137 0.14923 0.0
H2310 H 0.17977 0.40774 0.08326 0.0
C2311 C 0.14809 0.39981 -0.00191 0.0
C2312 C 0.1341 0.41048 0.98672 0.0
C2313 C 0.1546 0.40166 0.03121 0.0
C2314 C 0.1691 0.40949 0.10136 0.0
H2315 H 0.14686 0.40999 0.27576 0.0
H2316 H 0.1483 0.42363 0.21933 0.0
H2317 H 0.18545 0.40183 0.14355 0.0
H2318 H 0.11697 0.43247 -0.00036 0.0
H2319 H 0.12879 0.43623 0.057 0.0
H2320 H 0.12529 0.42009 0.10738 0.0
C2321 C 0.15387 0.41055 0.22289 0.0
C2322 C 0.1724 0.4062 0.13585 0.0
C2323 C 0.15306 0.40275 0.25513 0.0
C2324 C 0.12759 0.42389 0.00805 0.0
C2325 C 0.13432 0.42597 0.04094 0.0
C2326 C 0.13868 0.41678 0.11482 0.0
C2327 C 0.16101 0.40119 0.19518 0.0
C2328 C 0.15875 0.4078 0.15994 0.0
C2329 C 0.14742 0.41442 0.05341 0.0
C2330 C 0.15201 0.4142 0.09028 0.0
H2331 H 0.17228 0.36312 0.23602 0.0
H2332 H 0.17367 0.37672 0.17974 0.0
H2333 H 0.13119 0.41481 0.16715 0.0
H2334 H 0.15334 0.38937 0.98209 0.0
H2335 H 0.16454 0.39238 0.03993 0.0
loop_
_geom_bond_atom_site_label_1
_geom_bond_atom_site_label_2
_geom_bond_distance
_geom_bond_site_symmetry_2
_ccdc_geom_bond_type
In0 O1 2.294 . S
In0 O2 2.326 . S
In0 O6 2.266 . S
In0 O7 2.326 . S
In0 O8 2.266 . S
In0 O9 2.326 . S
In0 O11 2.294 . S
In0 O12 2.326 . S
O1 In0 2.294 . S
O1 C10 1.240 . S
O2 In0 2.326 . S
O2 C10 1.252 . S
C3 O6 1.252 . S
C3 O7 1.260 . S
C4 O11 1.240 . S
C4 O12 1.252 . S
C5 O8 1.252 . S
C5 O9 1.260 . S
O6 In0 2.266 . S
O6 C3 1.252 . S
O7 In0 2.326 . S
O7 C3 1.260 . S
O8 In0 2.266 . S
O8 C5 1.252 . S
O9 In0 2.326 . S
O9 C5 1.260 . S
C10 O1 1.240 . S
C10 O2 1.252 . S
O11 In0 2.294 . S
O11 C4 1.240 . S
O12 In0 2.326 . S
O12 C4 1.252 . S
In13 O14 2.294 . S
In13 O15 2.326 . S
In13 O19 2.266 . S
In13 O20 2.326 . S
In13 O21 2.266 . S
In13 O22 2.326 . S
In13 O24 2.294 . S
In13 O25 2.326 . S
O14 In13 2.294 . S
O14 C23 1.240 . S
O15 In13 2.326 . S
O15 C23 1.252 . S
C16 O19 1.252 . S
C16 O20 1.260 . S
C17 O24 1.240 . S
C17 O25 1.252 . S
C18 O21 1.252 . S
C18 O22 1.260 . S
O19 In13 2.266 . S
O19 C16 1.252 . S
O20 In13 2.326 . S
O20 C16 1.260 . S
O21 In13 2.266 . S
O21 C18 1.252 . S
O22 In13 2.326 . S
O22 C18 1.260 . S
C23 O14 1.240 . S
C23 O15 1.252 . S
O24 In13 2.294 . S
O24 C17 1.240 . S
O25 In13 2.326 . S
O25 C17 1.252 . S
In26 O27 2.294 . S
In26 O28 2.326 . S
In26 O32 2.266 . S
In26 O33 2.326 . S
In26 O34 2.266 . S
In26 O35 2.326 . S
In26 O37 2.294 . S
In26 O38 2.326 . S
O27 In26 2.294 . S
O27 C36 1.240 . S
O28 In26 2.326 . S
O28 C36 1.252 . S
C29 O32 1.252 . S
C29 O33 1.260 . S
C30 O37 1.240 . S
C30 O38 1.252 . S
C31 O34 1.252 . S
C31 O35 1.260 . S
O32 In26 2.266 . S
O32 C29 1.252 . S
O33 In26 2.326 . S
O33 C29 1.260 . S
O34 In26 2.266 . S
O34 C31 1.252 . S
O35 In26 2.326 . S
O35 C31 1.260 . S
C36 O27 1.240 . S
C36 O28 1.252 . S
O37 In26 2.294 . S
O37 C30 1.240 . S
O38 In26 2.326 . S
O38 C30 1.252 . S
In39 O40 2.294 . S
In39 O41 2.326 . S
In39 O45 2.266 . S
In39 O46 2.326 . S
In39 O47 2.266 . S
In39 O48 2.326 . S
In39 O50 2.294 . S
In39 O51 2.326 . S
O40 In39 2.294 . S
O40 C49 1.240 . S
O41 In39 2.326 . S
O41 C49 1.252 . S
C42 O45 1.252 . S
C42 O46 1.260 . S
C43 O50 1.240 . S
C43 O51 1.252 . S
C44 O47 1.252 . S
C44 O48 1.260 . S
O45 In39 2.266 . S
O45 C42 1.252 . S
O46 In39 2.326 . S
O46 C42 1.260 . S
O47 In39 2.266 . S
O47 C44 1.252 . S
O48 In39 2.326 . S
O48 C44 1.260 . S
C49 O40 1.240 . S
C49 O41 1.252 . S
O50 In39 2.294 . S
O50 C43 1.240 . S
O51 In39 2.326 . S
O51 C43 1.252 . S
In52 O53 2.294 . S
In52 O54 2.326 . S
In52 O58 2.266 . S
In52 O59 2.326 . S
In52 O60 2.266 . S
In52 O61 2.326 . S
In52 O63 2.294 . S
In52 O64 2.326 . S
O53 In52 2.294 . S
O53 C62 1.240 . S
O54 In52 2.326 . S
O54 C62 1.252 . S
C55 O58 1.252 . S
C55 O59 1.260 . S
C56 O63 1.240 . S
C56 O64 1.252 . S
C57 O60 1.252 . S
C57 O61 1.260 . S
O58 In52 2.266 . S
O58 C55 1.252 . S
O59 In52 2.326 . S
O59 C55 1.260 . S
O60 In52 2.266 . S
O60 C57 1.252 . S
O61 In52 2.326 . S
O61 C57 1.260 . S
C62 O53 1.240 . S
C62 O54 1.252 . S
O63 In52 2.294 . S
O63 C56 1.240 . S
O64 In52 2.326 . S
O64 C56 1.252 . S
In65 O66 2.294 . S
In65 O67 2.326 . S
In65 O71 2.266 . S
In65 O72 2.326 . S
In65 O73 2.266 . S
In65 O74 2.326 . S
In65 O76 2.294 . S
In65 O77 2.326 . S
O66 In65 2.294 . S
O66 C75 1.240 . S
O67 In65 2.326 . S
O67 C75 1.252 . S
C68 O71 1.252 . S
C68 O72 1.260 . S
C69 O76 1.240 . S
C69 O77 1.252 . S
C70 O73 1.252 . S
C70 O74 1.260 . S
O71 In65 2.266 . S
O71 C68 1.252 . S
O72 In65 2.326 . S
O72 C68 1.260 . S
O73 In65 2.266 . S
O73 C70 1.252 . S
O74 In65 2.326 . S
O74 C70 1.260 . S
C75 O66 1.240 . S
C75 O67 1.252 . S
O76 In65 2.294 . S
O76 C69 1.240 . S
O77 In65 2.326 . S
O77 C69 1.252 . S
In78 O79 2.294 . S
In78 O80 2.326 . S
In78 O84 2.266 . S
In78 O85 2.326 . S
In78 O86 2.266 . S
In78 O87 2.326 . S
In78 O89 2.294 . S
In78 O90 2.326 . S
O79 In78 2.294 . S
O79 C88 1.240 . S
O80 In78 2.326 . S
O80 C88 1.252 . S
C81 O84 1.252 . S
C81 O85 1.260 . S
C82 O89 1.240 . S
C82 O90 1.252 . S
C83 O86 1.252 . S
C83 O87 1.260 . S
O84 In78 2.266 . S
O84 C81 1.252 . S
O85 In78 2.326 . S
O85 C81 1.260 . S
O86 In78 2.266 . S
O86 C83 1.252 . S
O87 In78 2.326 . S
O87 C83 1.260 . S
C88 O79 1.240 . S
C88 O80 1.252 . S
O89 In78 2.294 . S
O89 C82 1.240 . S
O90 In78 2.326 . S
O90 C82 1.252 . S
In91 O92 2.294 . S
In91 O93 2.326 . S
In91 O97 2.266 . S
In91 O98 2.326 . S
In91 O99 2.266 . S
In91 O100 2.326 . S
In91 O102 2.294 . S
In91 O103 2.326 . S
O92 In91 2.294 . S
O92 C101 1.240 . S
O93 In91 2.326 . S
O93 C101 1.252 . S
C94 O97 1.252 . S
C94 O98 1.260 . S
C95 O102 1.240 . S
C95 O103 1.252 . S
C96 O99 1.252 . S
C96 O100 1.260 . S
O97 In91 2.266 . S
O97 C94 1.252 . S
O98 In91 2.326 . S
O98 C94 1.260 . S
O99 In91 2.266 . S
O99 C96 1.252 . S
O100 In91 2.326 . S
O100 C96 1.260 . S
C101 O92 1.240 . S
C101 O93 1.252 . S
O102 In91 2.294 . S
O102 C95 1.240 . S
O103 In91 2.326 . S
O103 C95 1.252 . S
In104 O105 2.294 . S
In104 O106 2.326 . S
In104 O110 2.266 . S
In104 O111 2.326 . S
In104 O112 2.266 . S
In104 O113 2.326 . S
In104 O115 2.294 . S
In104 O116 2.326 . S
O105 In104 2.294 . S
O105 C114 1.240 . S
O106 In104 2.326 . S
O106 C114 1.252 . S
C107 O110 1.252 . S
C107 O111 1.260 . S
C108 O115 1.240 . S
C108 O116 1.252 . S
C109 O112 1.252 . S
C109 O113 1.260 . S
O110 In104 2.266 . S
O110 C107 1.252 . S
O111 In104 2.326 . S
O111 C107 1.260 . S
O112 In104 2.266 . S
O112 C109 1.252 . S
O113 In104 2.326 . S
O113 C109 1.260 . S
C114 O105 1.240 . S
C114 O106 1.252 . S
O115 In104 2.294 . S
O115 C108 1.240 . S
O116 In104 2.326 . S
O116 C108 1.252 . S
In117 O118 2.294 . S
In117 O119 2.326 . S
In117 O123 2.266 . S
In117 O124 2.326 . S
In117 O125 2.266 . S
In117 O126 2.326 . S
In117 O128 2.294 . S
In117 O129 2.326 . S
O118 In117 2.294 . S
O118 C127 1.240 . S
O119 In117 2.326 . S
O119 C127 1.252 . S
C120 O123 1.252 . S
C120 O124 1.260 . S
C121 O128 1.240 . S
C121 O129 1.252 . S
C122 O125 1.252 . S
C122 O126 1.260 . S
O123 In117 2.266 . S
O123 C120 1.252 . S
O124 In117 2.326 . S
O124 C120 1.260 . S
O125 In117 2.266 . S
O125 C122 1.252 . S
O126 In117 2.326 . S
O126 C122 1.260 . S
C127 O118 1.240 . S
C127 O119 1.252 . S
O128 In117 2.294 . S
O128 C121 1.240 . S
O129 In117 2.326 . S
O129 C121 1.252 . S
In130 O131 2.294 . S
In130 O132 2.326 . S
In130 O136 2.266 . S
In130 O137 2.326 . S
In130 O138 2.266 . S
In130 O139 2.326 . S
In130 O141 2.294 . S
In130 O142 2.326 . S
O131 In130 2.294 . S
O131 C140 1.240 . S
O132 In130 2.326 . S
O132 C140 1.252 . S
C133 O136 1.252 . S
C133 O137 1.260 . S
C134 O141 1.240 . S
C134 O142 1.252 . S
C135 O138 1.252 . S
C135 O139 1.260 . S
O136 In130 2.266 . S
O136 C133 1.252 . S
O137 In130 2.326 . S
O137 C133 1.260 . S
O138 In130 2.266 . S
O138 C135 1.252 . S
O139 In130 2.326 . S
O139 C135 1.260 . S
C140 O131 1.240 . S
C140 O132 1.252 . S
O141 In130 2.294 . S
O141 C134 1.240 . S
O142 In130 2.326 . S
O142 C134 1.252 . S
In143 O144 2.294 . S
In143 O145 2.326 . S
In143 O149 2.266 . S
In143 O150 2.326 . S
In143 O151 2.266 . S
In143 O152 2.326 . S
In143 O154 2.294 . S
In143 O155 2.326 . S
O144 In143 2.294 . S
O144 C153 1.240 . S
O145 In143 2.326 . S
O145 C153 1.252 . S
C146 O149 1.252 . S
C146 O150 1.260 . S
C147 O154 1.240 . S
C147 O155 1.252 . S
C148 O151 1.252 . S
C148 O152 1.260 . S
O149 In143 2.266 . S
O149 C146 1.252 . S
O150 In143 2.326 . S
O150 C146 1.260 . S
O151 In143 2.266 . S
O151 C148 1.252 . S
O152 In143 2.326 . S
O152 C148 1.260 . S
C153 O144 1.240 . S
C153 O145 1.252 . S
O154 In143 2.294 . S
O154 C147 1.240 . S
O155 In143 2.326 . S
O155 C147 1.252 . S
In156 O157 2.294 . S
In156 O158 2.326 . S
In156 O162 2.266 . S
In156 O163 2.326 . S
In156 O164 2.266 . S
In156 O165 2.326 . S
In156 O167 2.294 . S
In156 O168 2.326 . S
O157 In156 2.294 . S
O157 C166 1.240 . S
O158 In156 2.326 . S
O158 C166 1.252 . S
C159 O162 1.252 . S
C159 O163 1.260 . S
C160 O167 1.240 . S
C160 O168 1.252 . S
C161 O164 1.252 . S
C161 O165 1.260 . S
O162 In156 2.266 . S
O162 C159 1.252 . S
O163 In156 2.326 . S
O163 C159 1.260 . S
O164 In156 2.266 . S
O164 C161 1.252 . S
O165 In156 2.326 . S
O165 C161 1.260 . S
C166 O157 1.240 . S
C166 O158 1.252 . S
O167 In156 2.294 . S
O167 C160 1.240 . S
O168 In156 2.326 . S
O168 C160 1.252 . S
In169 O170 2.294 . S
In169 O171 2.326 . S
In169 O175 2.266 . S
In169 O176 2.326 . S
In169 O177 2.266 . S
In169 O178 2.326 . S
In169 O180 2.294 . S
In169 O181 2.326 . S
O170 In169 2.294 . S
O170 C179 1.240 . S
O171 In169 2.326 . S
O171 C179 1.252 . S
C172 O175 1.252 . S
C172 O176 1.260 . S
C173 O180 1.240 . S
C173 O181 1.252 . S
C174 O177 1.252 . S
C174 O178 1.260 . S
O175 In169 2.266 . S
O175 C172 1.252 . S
O176 In169 2.326 . S
O176 C172 1.260 . S
O177 In169 2.266 . S
O177 C174 1.252 . S
O178 In169 2.326 . S
O178 C174 1.260 . S
C179 O170 1.240 . S
C179 O171 1.252 . S
O180 In169 2.294 . S
O180 C173 1.240 . S
O181 In169 2.326 . S
O181 C173 1.252 . S
In182 O183 2.294 . S
In182 O184 2.326 . S
In182 O188 2.266 . S
In182 O189 2.326 . S
In182 O190 2.266 . S
In182 O191 2.326 . S
In182 O193 2.294 . S
In182 O194 2.326 . S
O183 In182 2.294 . S
O183 C192 1.240 . S
O184 In182 2.326 . S
O184 C192 1.252 . S
C185 O188 1.252 . S
C185 O189 1.260 . S
C186 O193 1.240 . S
C186 O194 1.252 . S
C187 O190 1.252 . S
C187 O191 1.260 . S
O188 In182 2.266 . S
O188 C185 1.252 . S
O189 In182 2.326 . S
O189 C185 1.260 . S
O190 In182 2.266 . S
O190 C187 1.252 . S
O191 In182 2.326 . S
O191 C187 1.260 . S
C192 O183 1.240 . S
C192 O184 1.252 . S
O193 In182 2.294 . S
O193 C186 1.240 . S
O194 In182 2.326 . S
O194 C186 1.252 . S
In195 O196 2.294 . S
In195 O197 2.326 . S
In195 O201 2.266 . S
In195 O202 2.326 . S
In195 O203 2.266 . S
In195 O204 2.326 . S
In195 O206 2.294 . S
In195 O207 2.326 . S
O196 In195 2.294 . S
O196 C205 1.240 . S
O197 In195 2.326 . S
O197 C205 1.252 . S
C198 O201 1.252 . S
C198 O202 1.260 . S
C199 O206 1.240 . S
C199 O207 1.252 . S
C200 O203 1.252 . S
C200 O204 1.260 . S
O201 In195 2.266 . S
O201 C198 1.252 . S
O202 In195 2.326 . S
O202 C198 1.260 . S
O203 In195 2.266 . S
O203 C200 1.252 . S
O204 In195 2.326 . S
O204 C200 1.260 . S
C205 O196 1.240 . S
C205 O197 1.252 . S
O206 In195 2.294 . S
O206 C199 1.240 . S
O207 In195 2.326 . S
O207 C199 1.252 . S
In208 O209 2.294 . S
In208 O210 2.326 . S
In208 O214 2.266 . S
In208 O215 2.326 . S
In208 O216 2.266 . S
In208 O217 2.326 . S
In208 O219 2.294 . S
In208 O220 2.326 . S
O209 In208 2.294 . S
O209 C218 1.240 . S
O210 In208 2.326 . S
O210 C218 1.252 . S
C211 O214 1.252 . S
C211 O215 1.260 . S
C212 O219 1.240 . S
C212 O220 1.252 . S
C213 O216 1.252 . S
C213 O217 1.260 . S
O214 In208 2.266 . S
O214 C211 1.252 . S
O215 In208 2.326 . S
O215 C211 1.260 . S
O216 In208 2.266 . S
O216 C213 1.252 . S
O217 In208 2.326 . S
O217 C213 1.260 . S
C218 O209 1.240 . S
C218 O210 1.252 . S
O219 In208 2.294 . S
O219 C212 1.240 . S
O220 In208 2.326 . S
O220 C212 1.252 . S
In221 O222 2.294 . S
In221 O223 2.326 . S
In221 O227 2.266 . S
In221 O228 2.326 . S
In221 O229 2.266 . S
In221 O230 2.326 . S
In221 O232 2.294 . S
In221 O233 2.326 . S
O222 In221 2.294 . S
O222 C231 1.240 . S
O223 In221 2.326 . S
O223 C231 1.252 . S
C224 O227 1.252 . S
C224 O228 1.260 . S
C225 O232 1.240 . S
C225 O233 1.252 . S
C226 O229 1.252 . S
C226 O230 1.260 . S
O227 In221 2.266 . S
O227 C224 1.252 . S
O228 In221 2.326 . S
O228 C224 1.260 . S
O229 In221 2.266 . S
O229 C226 1.252 . S
O230 In221 2.326 . S
O230 C226 1.260 . S
C231 O222 1.240 . S
C231 O223 1.252 . S
O232 In221 2.294 . S
O232 C225 1.240 . S
O233 In221 2.326 . S
O233 C225 1.252 . S
In234 O235 2.294 . S
In234 O236 2.326 . S
In234 O240 2.266 . S
In234 O241 2.326 . S
In234 O242 2.266 . S
In234 O243 2.326 . S
In234 O245 2.294 . S
In234 O246 2.326 . S
O235 In234 2.294 . S
O235 C244 1.240 . S
O236 In234 2.326 . S
O236 C244 1.252 . S
C237 O240 1.252 . S
C237 O241 1.260 . S
C238 O245 1.240 . S
C238 O246 1.252 . S
C239 O242 1.252 . S
C239 O243 1.260 . S
O240 In234 2.266 . S
O240 C237 1.252 . S
O241 In234 2.326 . S
O241 C237 1.260 . S
O242 In234 2.266 . S
O242 C239 1.252 . S
O243 In234 2.326 . S
O243 C239 1.260 . S
C244 O235 1.240 . S
C244 O236 1.252 . S
O245 In234 2.294 . S
O245 C238 1.240 . S
O246 In234 2.326 . S
O246 C238 1.252 . S
In247 O248 2.294 . S
In247 O249 2.326 . S
In247 O253 2.266 . S
In247 O254 2.326 . S
In247 O255 2.266 . S
In247 O256 2.326 . S
In247 O258 2.294 . S
In247 O259 2.326 . S
O248 In247 2.294 . S
O248 C257 1.240 . S
O249 In247 2.326 . S
O249 C257 1.252 . S
C250 O253 1.252 . S
C250 O254 1.260 . S
C251 O258 1.240 . S
C251 O259 1.252 . S
C252 O255 1.252 . S
C252 O256 1.260 . S
O253 In247 2.266 . S
O253 C250 1.252 . S
O254 In247 2.326 . S
O254 C250 1.260 . S
O255 In247 2.266 . S
O255 C252 1.252 . S
O256 In247 2.326 . S
O256 C252 1.260 . S
C257 O248 1.240 . S
C257 O249 1.252 . S
O258 In247 2.294 . S
O258 C251 1.240 . S
O259 In247 2.326 . S
O259 C251 1.252 . S
In260 O261 2.294 . S
In260 O262 2.326 . S
In260 O266 2.266 . S
In260 O267 2.326 . S
In260 O268 2.266 . S
In260 O269 2.326 . S
In260 O271 2.294 . S
In260 O272 2.326 . S
O261 In260 2.294 . S
O261 C270 1.240 . S
O262 In260 2.326 . S
O262 C270 1.252 . S
C263 O266 1.252 . S
C263 O267 1.260 . S
C264 O271 1.240 . S
C264 O272 1.252 . S
C265 O268 1.252 . S
C265 O269 1.260 . S
O266 In260 2.266 . S
O266 C263 1.252 . S
O267 In260 2.326 . S
O267 C263 1.260 . S
O268 In260 2.266 . S
O268 C265 1.252 . S
O269 In260 2.326 . S
O269 C265 1.260 . S
C270 O261 1.240 . S
C270 O262 1.252 . S
O271 In260 2.294 . S
O271 C264 1.240 . S
O272 In260 2.326 . S
O272 C264 1.252 . S
In273 O274 2.294 . S
In273 O275 2.326 . S
In273 O279 2.266 . S
In273 O280 2.326 . S
In273 O281 2.266 . S
In273 O282 2.326 . S
In273 O284 2.294 . S
In273 O285 2.326 . S
O274 In273 2.294 . S
O274 C283 1.240 . S
O275 In273 2.326 . S
O275 C283 1.252 . S
C276 O279 1.252 . S
C276 O280 1.260 . S
C277 O284 1.240 . S
C277 O285 1.252 . S
C278 O281 1.252 . S
C278 O282 1.260 . S
O279 In273 2.266 . S
O279 C276 1.252 . S
O280 In273 2.326 . S
O280 C276 1.260 . S
O281 In273 2.266 . S
O281 C278 1.252 . S
O282 In273 2.326 . S
O282 C278 1.260 . S
C283 O274 1.240 . S
C283 O275 1.252 . S
O284 In273 2.294 . S
O284 C277 1.240 . S
O285 In273 2.326 . S
O285 C277 1.252 . S
In286 O287 2.294 . S
In286 O288 2.326 . S
In286 O292 2.266 . S
In286 O293 2.326 . S
In286 O294 2.266 . S
In286 O295 2.326 . S
In286 O297 2.294 . S
In286 O298 2.326 . S
O287 In286 2.294 . S
O287 C296 1.240 . S
O288 In286 2.326 . S
O288 C296 1.252 . S
C289 O292 1.252 . S
C289 O293 1.260 . S
C290 O297 1.240 . S
C290 O298 1.252 . S
C291 O294 1.252 . S
C291 O295 1.260 . S
O292 In286 2.266 . S
O292 C289 1.252 . S
O293 In286 2.326 . S
O293 C289 1.260 . S
O294 In286 2.266 . S
O294 C291 1.252 . S
O295 In286 2.326 . S
O295 C291 1.260 . S
C296 O287 1.240 . S
C296 O288 1.252 . S
O297 In286 2.294 . S
O297 C290 1.240 . S
O298 In286 2.326 . S
O298 C290 1.252 . S
In299 O300 2.294 . S
In299 O301 2.326 . S
In299 O305 2.266 . S
In299 O306 2.326 . S
In299 O307 2.266 . S
In299 O308 2.326 . S
In299 O310 2.294 . S
In299 O311 2.326 . S
O300 In299 2.294 . S
O300 C309 1.240 . S
O301 In299 2.326 . S
O301 C309 1.252 . S
C302 O305 1.252 . S
C302 O306 1.260 . S
C303 O310 1.240 . S
C303 O311 1.252 . S
C304 O307 1.252 . S
C304 O308 1.260 . S
O305 In299 2.266 . S
O305 C302 1.252 . S
O306 In299 2.326 . S
O306 C302 1.260 . S
O307 In299 2.266 . S
O307 C304 1.252 . S
O308 In299 2.326 . S
O308 C304 1.260 . S
C309 O300 1.240 . S
C309 O301 1.252 . S
O310 In299 2.294 . S
O310 C303 1.240 . S
O311 In299 2.326 . S
O311 C303 1.252 . S
In312 O313 2.294 . S
In312 O314 2.326 . S
In312 O318 2.266 . S
In312 O319 2.326 . S
In312 O320 2.266 . S
In312 O321 2.326 . S
In312 O323 2.294 . S
In312 O324 2.326 . S
O313 In312 2.294 . S
O313 C322 1.240 . S
O314 In312 2.326 . S
O314 C322 1.252 . S
C315 O318 1.252 . S
C315 O319 1.260 . S
C316 O323 1.240 . S
C316 O324 1.252 . S
C317 O320 1.252 . S
C317 O321 1.260 . S
O318 In312 2.266 . S
O318 C315 1.252 . S
O319 In312 2.326 . S
O319 C315 1.260 . S
O320 In312 2.266 . S
O320 C317 1.252 . S
O321 In312 2.326 . S
O321 C317 1.260 . S
C322 O313 1.240 . S
C322 O314 1.252 . S
O323 In312 2.294 . S
O323 C316 1.240 . S
O324 In312 2.326 . S
O324 C316 1.252 . S
In325 O326 2.294 . S
In325 O327 2.326 . S
In325 O331 2.266 . S
In325 O332 2.326 . S
In325 O333 2.266 . S
In325 O334 2.326 . S
In325 O336 2.294 . S
In325 O337 2.326 . S
O326 In325 2.294 . S
O326 C335 1.240 . S
O327 In325 2.326 . S
O327 C335 1.252 . S
C328 O331 1.252 . S
C328 O332 1.260 . S
C329 O336 1.240 . S
C329 O337 1.252 . S
C330 O333 1.252 . S
C330 O334 1.260 . S
O331 In325 2.266 . S
O331 C328 1.252 . S
O332 In325 2.326 . S
O332 C328 1.260 . S
O333 In325 2.266 . S
O333 C330 1.252 . S
O334 In325 2.326 . S
O334 C330 1.260 . S
C335 O326 1.240 . S
C335 O327 1.252 . S
O336 In325 2.294 . S
O336 C329 1.240 . S
O337 In325 2.326 . S
O337 C329 1.252 . S
In338 O339 2.294 . S
In338 O340 2.326 . S
In338 O344 2.266 . S
In338 O345 2.326 . S
In338 O346 2.266 . S
In338 O347 2.326 . S
In338 O349 2.294 . S
In338 O350 2.326 . S
O339 In338 2.294 . S
O339 C348 1.240 . S
O340 In338 2.326 . S
O340 C348 1.252 . S
C341 O344 1.252 . S
C341 O345 1.260 . S
C342 O349 1.240 . S
C342 O350 1.252 . S
C343 O346 1.252 . S
C343 O347 1.260 . S
O344 In338 2.266 . S
O344 C341 1.252 . S
O345 In338 2.326 . S
O345 C341 1.260 . S
O346 In338 2.266 . S
O346 C343 1.252 . S
O347 In338 2.326 . S
O347 C343 1.260 . S
C348 O339 1.240 . S
C348 O340 1.252 . S
O349 In338 2.294 . S
O349 C342 1.240 . S
O350 In338 2.326 . S
O350 C342 1.252 . S
In351 O352 2.294 . S
In351 O353 2.326 . S
In351 O357 2.266 . S
In351 O358 2.326 . S
In351 O359 2.266 . S
In351 O360 2.326 . S
In351 O362 2.294 . S
In351 O363 2.326 . S
O352 In351 2.294 . S
O352 C361 1.240 . S
O353 In351 2.326 . S
O353 C361 1.252 . S
C354 O357 1.252 . S
C354 O358 1.260 . S
C355 O362 1.240 . S
C355 O363 1.252 . S
C356 O359 1.252 . S
C356 O360 1.260 . S
O357 In351 2.266 . S
O357 C354 1.252 . S
O358 In351 2.326 . S
O358 C354 1.260 . S
O359 In351 2.266 . S
O359 C356 1.252 . S
O360 In351 2.326 . S
O360 C356 1.260 . S
C361 O352 1.240 . S
C361 O353 1.252 . S
O362 In351 2.294 . S
O362 C355 1.240 . S
O363 In351 2.326 . S
O363 C355 1.252 . S
In364 O365 2.294 . S
In364 O366 2.326 . S
In364 O370 2.266 . S
In364 O371 2.326 . S
In364 O372 2.266 . S
In364 O373 2.326 . S
In364 O375 2.294 . S
In364 O376 2.326 . S
O365 In364 2.294 . S
O365 C374 1.240 . S
O366 In364 2.326 . S
O366 C374 1.252 . S
C367 O370 1.252 . S
C367 O371 1.260 . S
C368 O375 1.240 . S
C368 O376 1.252 . S
C369 O372 1.252 . S
C369 O373 1.260 . S
O370 In364 2.266 . S
O370 C367 1.252 . S
O371 In364 2.326 . S
O371 C367 1.260 . S
O372 In364 2.266 . S
O372 C369 1.252 . S
O373 In364 2.326 . S
O373 C369 1.260 . S
C374 O365 1.240 . S
C374 O366 1.252 . S
O375 In364 2.294 . S
O375 C368 1.240 . S
O376 In364 2.326 . S
O376 C368 1.252 . S
In377 O378 2.294 . S
In377 O379 2.326 . S
In377 O383 2.266 . S
In377 O384 2.326 . S
In377 O385 2.266 . S
In377 O386 2.326 . S
In377 O388 2.294 . S
In377 O389 2.326 . S
O378 In377 2.294 . S
O378 C387 1.240 . S
O379 In377 2.326 . S
O379 C387 1.252 . S
C380 O383 1.252 . S
C380 O384 1.260 . S
C381 O388 1.240 . S
C381 O389 1.252 . S
C382 O385 1.252 . S
C382 O386 1.260 . S
O383 In377 2.266 . S
O383 C380 1.252 . S
O384 In377 2.326 . S
O384 C380 1.260 . S
O385 In377 2.266 . S
O385 C382 1.252 . S
O386 In377 2.326 . S
O386 C382 1.260 . S
C387 O378 1.240 . S
C387 O379 1.252 . S
O388 In377 2.294 . S
O388 C381 1.240 . S
O389 In377 2.326 . S
O389 C381 1.252 . S
In390 O391 2.294 . S
In390 O392 2.326 . S
In390 O396 2.266 . S
In390 O397 2.326 . S
In390 O398 2.266 . S
In390 O399 2.326 . S
In390 O401 2.294 . S
In390 O402 2.326 . S
O391 In390 2.294 . S
O391 C400 1.240 . S
O392 In390 2.326 . S
O392 C400 1.252 . S
C393 O396 1.252 . S
C393 O397 1.260 . S
C394 O401 1.240 . S
C394 O402 1.252 . S
C395 O398 1.252 . S
C395 O399 1.260 . S
O396 In390 2.266 . S
O396 C393 1.252 . S
O397 In390 2.326 . S
O397 C393 1.260 . S
O398 In390 2.266 . S
O398 C395 1.252 . S
O399 In390 2.326 . S
O399 C395 1.260 . S
C400 O391 1.240 . S
C400 O392 1.252 . S
O401 In390 2.294 . S
O401 C394 1.240 . S
O402 In390 2.326 . S
O402 C394 1.252 . S
In403 O404 2.294 . S
In403 O405 2.326 . S
In403 O409 2.266 . S
In403 O410 2.326 . S
In403 O411 2.266 . S
In403 O412 2.326 . S
In403 O414 2.294 . S
In403 O415 2.326 . S
O404 In403 2.294 . S
O404 C413 1.240 . S
O405 In403 2.326 . S
O405 C413 1.252 . S
C406 O409 1.252 . S
C406 O410 1.260 . S
C407 O414 1.240 . S
C407 O415 1.252 . S
C408 O411 1.252 . S
C408 O412 1.260 . S
O409 In403 2.266 . S
O409 C406 1.252 . S
O410 In403 2.326 . S
O410 C406 1.260 . S
O411 In403 2.266 . S
O411 C408 1.252 . S
O412 In403 2.326 . S
O412 C408 1.260 . S
C413 O404 1.240 . S
C413 O405 1.252 . S
O414 In403 2.294 . S
O414 C407 1.240 . S
O415 In403 2.326 . S
O415 C407 1.252 . S
C416 C417 1.349 . S
C416 C418 1.327 . S
C416 H441 0.950 . S
C417 C416 1.349 . S
C417 C433 1.349 . S
C418 C416 1.327 . S
C418 C437 1.429 . S
C418 H442 0.950 . S
C419 C436 1.574 . S
C419 C438 1.368 . S
C419 H443 0.949 . S
H420 C424 0.949 . S
C421 C422 1.349 . S
C421 C423 1.327 . S
C421 H444 0.950 . S
C422 C421 1.349 . S
C422 C434 1.349 . S
C423 C421 1.327 . S
C423 C439 1.429 . S
C423 H445 0.950 . S
C424 H420 0.949 . S
C424 C432 1.574 . S
C424 C440 1.368 . S
H425 C433 0.950 . S
H426 C431 0.950 . S
H427 C432 0.949 . S
H428 C434 0.950 . S
H429 C435 0.950 . S
H430 C436 0.949 . S
C431 H426 0.950 . S
C431 C433 1.327 . S
C431 C437 1.429 . S
C432 C424 1.574 . S
C432 H427 0.949 . S
C432 C438 1.368 1_565 S
C433 C417 1.349 . S
C433 H425 0.950 . S
C433 C431 1.327 . S
C434 C422 1.349 . S
C434 H428 0.950 . S
C434 C435 1.327 . S
C435 H429 0.950 . S
C435 C434 1.327 . S
C435 C439 1.429 . S
C436 C419 1.574 . S
C436 H430 0.949 . S
C436 C440 1.368 1_545 S
C437 C418 1.429 . S
C437 C431 1.429 . S
C437 C438 1.523 . S
C438 C419 1.368 . S
C438 C432 1.368 1_545 S
C438 C437 1.523 . S
C439 C423 1.429 . S
C439 C435 1.429 . S
C439 C440 1.523 . S
C440 C424 1.368 . S
C440 C436 1.368 1_565 S
C440 C439 1.523 . S
H441 C416 0.950 . S
H442 C418 0.950 . S
H443 C419 0.949 . S
H444 C421 0.950 . S
H445 C423 0.950 . S
C446 C447 1.349 . S
C446 C448 1.327 . S
C446 H471 0.950 . S
C447 C446 1.349 . S
C447 C463 1.349 . S
C448 C446 1.327 . S
C448 C467 1.429 . S
C448 H472 0.950 . S
C449 C466 1.574 . S
C449 C468 1.368 . S
C449 H473 0.949 . S
H450 C454 0.949 . S
C451 C452 1.349 . S
C451 C453 1.327 . S
C451 H474 0.950 . S
C452 C451 1.349 . S
C452 C464 1.349 . S
C453 C451 1.327 . S
C453 C469 1.429 . S
C453 H475 0.950 . S
C454 H450 0.949 . S
C454 C462 1.574 . S
C454 C470 1.368 . S
H455 C463 0.950 . S
H456 C461 0.950 . S
H457 C462 0.949 . S
H458 C464 0.950 . S
H459 C465 0.950 . S
H460 C466 0.949 . S
C461 H456 0.950 . S
C461 C463 1.327 . S
C461 C467 1.429 . S
C462 C454 1.574 . S
C462 H457 0.949 . S
C462 C468 1.368 . S
C463 C447 1.349 . S
C463 H455 0.950 . S
C463 C461 1.327 . S
C464 C452 1.349 . S
C464 H458 0.950 . S
C464 C465 1.327 . S
C465 H459 0.950 . S
C465 C464 1.327 . S
C465 C469 1.429 . S
C466 C449 1.574 . S
C466 H460 0.949 . S
C466 C470 1.368 . S
C467 C448 1.429 . S
C467 C461 1.429 . S
C467 C468 1.523 . S
C468 C449 1.368 . S
C468 C462 1.368 . S
C468 C467 1.523 . S
C469 C453 1.429 . S
C469 C465 1.429 . S
C469 C470 1.523 . S
C470 C454 1.368 . S
C470 C466 1.368 . S
C470 C469 1.523 . S
H471 C446 0.950 . S
H472 C448 0.950 . S
H473 C449 0.949 . S
H474 C451 0.950 . S
H475 C453 0.950 . S
C476 C477 1.349 . S
C476 C478 1.327 . S
C476 H501 0.950 . S
C477 C476 1.349 . S
C477 C493 1.349 . S
C478 C476 1.327 . S
C478 C497 1.429 . S
C478 H502 0.950 . S
C479 C496 1.574 . S
C479 C498 1.368 1_565 S
C479 H503 0.949 . S
H480 C484 0.949 . S
C481 C482 1.349 . S
C481 C483 1.327 . S
C481 H504 0.950 . S
C482 C481 1.349 . S
C482 C494 1.349 . S
C483 C481 1.327 . S
C483 C499 1.429 . S
C483 H505 0.950 . S
C484 H480 0.949 . S
C484 C492 1.574 . S
C484 C500 1.368 1_545 S
H485 C493 0.950 . S
H486 C491 0.950 . S
H487 C492 0.949 . S
H488 C494 0.950 . S
H489 C495 0.950 . S
H490 C496 0.949 . S
C491 H486 0.950 . S
C491 C493 1.327 . S
C491 C497 1.429 . S
C492 C484 1.574 . S
C492 H487 0.949 . S
C492 C498 1.368 . S
C493 C477 1.349 . S
C493 H485 0.950 . S
C493 C491 1.327 . S
C494 C482 1.349 . S
C494 H488 0.950 . S
C494 C495 1.327 . S
C495 H489 0.950 . S
C495 C494 1.327 . S
C495 C499 1.429 . S
C496 C479 1.574 . S
C496 H490 0.949 . S
C496 C500 1.368 . S
C497 C478 1.429 . S
C497 C491 1.429 . S
C497 C498 1.523 . S
C498 C479 1.368 1_545 S
C498 C492 1.368 . S
C498 C497 1.523 . S
C499 C483 1.429 . S
C499 C495 1.429 . S
C499 C500 1.523 . S
C500 C484 1.368 1_565 S
C500 C496 1.368 . S
C500 C499 1.523 . S
H501 C476 0.950 . S
H502 C478 0.950 . S
H503 C479 0.949 . S
H504 C481 0.950 . S
H505 C483 0.950 . S
C506 C507 1.349 . S
C506 C508 1.327 . S
C506 H531 0.950 . S
C507 C506 1.349 . S
C507 C523 1.349 . S
C508 C506 1.327 . S
C508 C527 1.429 . S
C508 H532 0.950 . S
C509 C526 1.561 1_556 S
C509 C528 1.368 . S
C509 H533 0.949 . S
H510 C514 0.949 . S
C511 C512 1.349 . S
C511 C513 1.327 . S
C511 H534 0.950 . S
C512 C511 1.349 . S
C512 C524 1.349 . S
C513 C511 1.327 . S
C513 C529 1.429 . S
C513 H535 0.950 . S
C514 H510 0.949 . S
C514 C522 1.561 1_554 S
C514 C530 1.368 . S
H515 C523 0.950 . S
H516 C521 0.950 . S
H517 C522 0.950 . S
H518 C524 0.950 . S
H519 C525 0.950 . S
H520 C526 0.950 . S
C521 H516 0.950 . S
C521 C523 1.327 . S
C521 C527 1.429 . S
C522 C514 1.561 1_556 S
C522 H517 0.950 . S
C522 C528 1.380 . S
C523 C507 1.349 . S
C523 H515 0.950 . S
C523 C521 1.327 . S
C524 C512 1.349 . S
C524 H518 0.950 . S
C524 C525 1.327 . S
C525 H519 0.950 . S
C525 C524 1.327 . S
C525 C529 1.429 . S
C526 C509 1.561 1_554 S
C526 H520 0.950 . S
C526 C530 1.380 . S
C527 C508 1.429 . S
C527 C521 1.429 . S
C527 C528 1.523 . S
C528 C509 1.368 . S
C528 C522 1.380 . S
C528 C527 1.523 . S
C529 C513 1.429 . S
C529 C525 1.429 . S
C529 C530 1.523 . S
C530 C514 1.368 . S
C530 C526 1.380 . S
C530 C529 1.523 . S
H531 C506 0.950 . S
H532 C508 0.950 . S
H533 C509 0.949 . S
H534 C511 0.950 . S
H535 C513 0.950 . S
C536 C537 1.349 . S
C536 C538 1.327 . S
C536 H561 0.950 . S
C537 C536 1.349 . S
C537 C553 1.349 . S
C538 C536 1.327 . S
C538 C557 1.429 . S
C538 H562 0.950 . S
C539 C556 1.574 1_565 S
C539 C558 1.368 . S
C539 H563 0.949 . S
H540 C544 0.949 . S
C541 C542 1.349 . S
C541 C543 1.327 . S
C541 H564 0.950 . S
C542 C541 1.349 . S
C542 C554 1.349 . S
C543 C541 1.327 . S
C543 C559 1.429 . S
C543 H565 0.950 . S
C544 H540 0.949 . S
C544 C552 1.574 1_545 S
C544 C560 1.368 . S
H545 C553 0.950 . S
H546 C551 0.950 . S
H547 C552 0.949 . S
H548 C554 0.950 . S
H549 C555 0.950 . S
H550 C556 0.949 . S
C551 H546 0.950 . S
C551 C553 1.327 . S
C551 C557 1.429 . S
C552 C544 1.574 1_565 S
C552 H547 0.949 . S
C552 C558 1.368 . S
C553 C537 1.349 . S
C553 H545 0.950 . S
C553 C551 1.327 . S
C554 C542 1.349 . S
C554 H548 0.950 . S
C554 C555 1.327 . S
C555 H549 0.950 . S
C555 C554 1.327 . S
C555 C559 1.429 . S
C556 C539 1.574 1_545 S
C556 H550 0.949 . S
C556 C560 1.368 . S
C557 C538 1.429 . S
C557 C551 1.429 . S
C557 C558 1.523 . S
C558 C539 1.368 . S
C558 C552 1.368 . S
C558 C557 1.523 . S
C559 C543 1.429 . S
C559 C555 1.429 . S
C559 C560 1.523 . S
C560 C544 1.368 . S
C560 C556 1.368 . S
C560 C559 1.523 . S
H561 C536 0.950 . S
H562 C538 0.950 . S
H563 C539 0.949 . S
H564 C541 0.950 . S
H565 C543 0.950 . S
C566 C567 1.349 . S
C566 C568 1.327 . S
C566 H591 0.950 . S
C567 C566 1.349 . S
C567 C583 1.349 . S
C568 C566 1.327 . S
C568 C587 1.429 . S
C568 H592 0.950 . S
C569 C586 1.574 . S
C569 C588 1.368 . S
C569 H593 0.949 . S
H570 C574 0.949 . S
C571 C572 1.349 . S
C571 C573 1.327 . S
C571 H594 0.950 . S
C572 C571 1.349 . S
C572 C584 1.349 . S
C573 C571 1.327 . S
C573 C589 1.429 . S
C573 H595 0.950 . S
C574 H570 0.949 . S
C574 C582 1.574 . S
C574 C590 1.368 . S
H575 C583 0.950 . S
H576 C581 0.950 . S
H577 C582 0.949 . S
H578 C584 0.950 . S
H579 C585 0.950 . S
H580 C586 0.949 . S
C581 H576 0.950 . S
C581 C583 1.327 . S
C581 C587 1.429 . S
C582 C574 1.574 . S
C582 H577 0.949 . S
C582 C588 1.368 . S
C583 C567 1.349 . S
C583 H575 0.950 . S
C583 C581 1.327 . S
C584 C572 1.349 . S
C584 H578 0.950 . S
C584 C585 1.327 . S
C585 H579 0.950 . S
C585 C584 1.327 . S
C585 C589 1.429 . S
C586 C569 1.574 . S
C586 H580 0.949 . S
C586 C590 1.368 . S
C587 C568 1.429 . S
C587 C581 1.429 . S
C587 C588 1.523 . S
C588 C569 1.368 . S
C588 C582 1.368 . S
C588 C587 1.523 . S
C589 C573 1.429 . S
C589 C585 1.429 . S
C589 C590 1.523 . S
C590 C574 1.368 . S
C590 C586 1.368 . S
C590 C589 1.523 . S
H591 C566 0.950 . S
H592 C568 0.950 . S
H593 C569 0.949 . S
H594 C571 0.950 . S
H595 C573 0.950 . S
C596 C597 1.349 . S
C596 C598 1.327 . S
C596 H621 0.950 . S
C597 C596 1.349 . S
C597 C613 1.349 . S
C598 C596 1.327 . S
C598 C617 1.429 . S
C598 H622 0.950 . S
C599 C616 1.598 . S
C599 C618 1.368 . S
C599 H623 0.949 . S
H600 C604 0.949 . S
C601 C602 1.349 . S
C601 C603 1.327 . S
C601 H624 0.950 . S
C602 C601 1.349 . S
C602 C614 1.349 . S
C603 C601 1.327 . S
C603 C619 1.429 . S
C603 H625 0.950 . S
C604 H600 0.949 . S
C604 C612 1.598 . S
C604 C620 1.368 . S
H605 C613 0.950 . S
H606 C611 0.950 . S
H607 C612 0.949 . S
H608 C614 0.950 . S
H609 C615 0.950 . S
H610 C616 0.949 . S
C611 H606 0.950 . S
C611 C613 1.327 . S
C611 C617 1.429 . S
C612 C604 1.598 . S
C612 H607 0.949 . S
C612 C618 1.344 1_545 S
C613 C597 1.349 . S
C613 H605 0.950 . S
C613 C611 1.327 . S
C614 C602 1.349 . S
C614 H608 0.950 . S
C614 C615 1.327 . S
C615 H609 0.950 . S
C615 C614 1.327 . S
C615 C619 1.429 . S
C616 C599 1.598 . S
C616 H610 0.949 . S
C616 C620 1.344 1_565 S
C617 C598 1.429 . S
C617 C611 1.429 . S
C617 C618 1.523 . S
C618 C599 1.368 . S
C618 C612 1.344 1_565 S
C618 C617 1.523 . S
C619 C603 1.429 . S
C619 C615 1.429 . S
C619 C620 1.523 . S
C620 C604 1.368 . S
C620 C616 1.344 1_545 S
C620 C619 1.523 . S
H621 C596 0.950 . S
H622 C598 0.950 . S
H623 C599 0.949 . S
H624 C601 0.950 . S
H625 C603 0.950 . S
C626 C627 1.349 . S
C626 C628 1.327 . S
C626 H651 0.950 . S
C627 C626 1.349 . S
C627 C643 1.349 . S
C628 C626 1.327 . S
C628 C647 1.429 . S
C628 H652 0.950 . S
C629 C646 1.561 1_556 S
C629 C648 1.368 . S
C629 H653 0.949 . S
H630 C634 0.949 . S
C631 C632 1.349 . S
C631 C633 1.327 . S
C631 H654 0.950 . S
C632 C631 1.349 . S
C632 C644 1.349 . S
C633 C631 1.327 . S
C633 C649 1.429 . S
C633 H655 0.950 . S
C634 H630 0.949 . S
C634 C642 1.561 1_554 S
C634 C650 1.368 . S
H635 C643 0.950 . S
H636 C641 0.950 . S
H637 C642 0.950 . S
H638 C644 0.950 . S
H639 C645 0.950 . S
H640 C646 0.950 . S
C641 H636 0.950 . S
C641 C643 1.327 . S
C641 C647 1.429 . S
C642 C634 1.561 1_556 S
C642 H637 0.950 . S
C642 C648 1.380 . S
C643 C627 1.349 . S
C643 H635 0.950 . S
C643 C641 1.327 . S
C644 C632 1.349 . S
C644 H638 0.950 . S
C644 C645 1.327 . S
C645 H639 0.950 . S
C645 C644 1.327 . S
C645 C649 1.429 . S
C646 C629 1.561 1_554 S
C646 H640 0.950 . S
C646 C650 1.380 . S
C647 C628 1.429 . S
C647 C641 1.429 . S
C647 C648 1.523 . S
C648 C629 1.368 . S
C648 C642 1.380 . S
C648 C647 1.523 . S
C649 C633 1.429 . S
C649 C645 1.429 . S
C649 C650 1.523 . S
C650 C634 1.368 . S
C650 C646 1.380 . S
C650 C649 1.523 . S
H651 C626 0.950 . S
H652 C628 0.950 . S
H653 C629 0.949 . S
H654 C631 0.950 . S
H655 C633 0.950 . S
C656 C657 1.349 . S
C656 C658 1.327 . S
C656 H681 0.950 . S
C657 C656 1.349 . S
C657 C673 1.349 . S
C658 C656 1.327 . S
C658 C677 1.429 . S
C658 H682 0.950 . S
C659 C676 1.574 . S
C659 C678 1.368 . S
C659 H683 0.949 . S
H660 C664 0.949 . S
C661 C662 1.349 . S
C661 C663 1.327 . S
C661 H684 0.950 . S
C662 C661 1.349 . S
C662 C674 1.349 . S
C663 C661 1.327 . S
C663 C679 1.429 . S
C663 H685 0.950 . S
C664 H660 0.949 . S
C664 C672 1.574 . S
C664 C680 1.368 . S
H665 C673 0.950 . S
H666 C671 0.950 . S
H667 C672 0.949 . S
H668 C674 0.950 . S
H669 C675 0.950 . S
H670 C676 0.949 . S
C671 H666 0.950 . S
C671 C673 1.327 . S
C671 C677 1.429 . S
C672 C664 1.574 . S
C672 H667 0.949 . S
C672 C678 1.368 . S
C673 C657 1.349 . S
C673 H665 0.950 . S
C673 C671 1.327 . S
C674 C662 1.349 . S
C674 H668 0.950 . S
C674 C675 1.327 . S
C675 H669 0.950 . S
C675 C674 1.327 . S
C675 C679 1.429 . S
C676 C659 1.574 . S
C676 H670 0.949 . S
C676 C680 1.368 . S
C677 C658 1.429 . S
C677 C671 1.429 . S
C677 C678 1.523 . S
C678 C659 1.368 . S
C678 C672 1.368 . S
C678 C677 1.523 . S
C679 C663 1.429 . S
C679 C675 1.429 . S
C679 C680 1.523 . S
C680 C664 1.368 . S
C680 C676 1.368 . S
C680 C679 1.523 . S
H681 C656 0.950 . S
H682 C658 0.950 . S
H683 C659 0.949 . S
H684 C661 0.950 . S
H685 C663 0.950 . S
C686 C687 1.349 . S
C686 C688 1.327 . S
C686 H711 0.950 . S
C687 C686 1.349 . S
C687 C703 1.349 . S
C688 C686 1.327 . S
C688 C707 1.429 . S
C688 H712 0.950 . S
C689 C706 1.561 1_556 S
C689 C708 1.368 . S
C689 H713 0.949 . S
H690 C694 0.949 . S
C691 C692 1.349 . S
C691 C693 1.327 . S
C691 H714 0.950 . S
C692 C691 1.349 . S
C692 C704 1.349 . S
C693 C691 1.327 . S
C693 C709 1.429 . S
C693 H715 0.950 . S
C694 H690 0.949 . S
C694 C702 1.561 1_554 S
C694 C710 1.368 . S
H695 C703 0.950 . S
H696 C701 0.950 . S
H697 C702 0.950 . S
H698 C704 0.950 . S
H699 C705 0.950 . S
H700 C706 0.950 . S
C701 H696 0.950 . S
C701 C703 1.327 . S
C701 C707 1.429 . S
C702 C694 1.561 1_556 S
C702 H697 0.950 . S
C702 C708 1.380 . S
C703 C687 1.349 . S
C703 H695 0.950 . S
C703 C701 1.327 . S
C704 C692 1.349 . S
C704 H698 0.950 . S
C704 C705 1.327 . S
C705 H699 0.950 . S
C705 C704 1.327 . S
C705 C709 1.429 . S
C706 C689 1.561 1_554 S
C706 H700 0.950 . S
C706 C710 1.380 . S
C707 C688 1.429 . S
C707 C701 1.429 . S
C707 C708 1.523 . S
C708 C689 1.368 . S
C708 C702 1.380 . S
C708 C707 1.523 . S
C709 C693 1.429 . S
C709 C705 1.429 . S
C709 C710 1.523 . S
C710 C694 1.368 . S
C710 C706 1.380 . S
C710 C709 1.523 . S
H711 C686 0.950 . S
H712 C688 0.950 . S
H713 C689 0.949 . S
H714 C691 0.950 . S
H715 C693 0.950 . S
C716 C717 1.349 . S
C716 C718 1.327 . S
C716 H741 0.950 . S
C717 C716 1.349 . S
C717 C733 1.349 . S
C718 C716 1.327 . S
C718 C737 1.429 . S
C718 H742 0.950 . S
C719 C736 1.574 . S
C719 C738 1.368 . S
C719 H743 0.949 . S
H720 C724 0.949 . S
C721 C722 1.349 . S
C721 C723 1.327 . S
C721 H744 0.950 . S
C722 C721 1.349 . S
C722 C734 1.349 . S
C723 C721 1.327 . S
C723 C739 1.429 . S
C723 H745 0.950 . S
C724 H720 0.949 . S
C724 C732 1.574 . S
C724 C740 1.368 . S
H725 C733 0.950 . S
H726 C731 0.950 . S
H727 C732 0.949 . S
H728 C734 0.950 . S
H729 C735 0.950 . S
H730 C736 0.949 . S
C731 H726 0.950 . S
C731 C733 1.327 . S
C731 C737 1.429 . S
C732 C724 1.574 . S
C732 H727 0.949 . S
C732 C738 1.368 . S
C733 C717 1.349 . S
C733 H725 0.950 . S
C733 C731 1.327 . S
C734 C722 1.349 . S
C734 H728 0.950 . S
C734 C735 1.327 . S
C735 H729 0.950 . S
C735 C734 1.327 . S
C735 C739 1.429 . S
C736 C719 1.574 . S
C736 H730 0.949 . S
C736 C740 1.368 . S
C737 C718 1.429 . S
C737 C731 1.429 . S
C737 C738 1.523 . S
C738 C719 1.368 . S
C738 C732 1.368 . S
C738 C737 1.523 . S
C739 C723 1.429 . S
C739 C735 1.429 . S
C739 C740 1.523 . S
C740 C724 1.368 . S
C740 C736 1.368 . S
C740 C739 1.523 . S
H741 C716 0.950 . S
H742 C718 0.950 . S
H743 C719 0.949 . S
H744 C721 0.950 . S
H745 C723 0.950 . S
C746 C747 1.349 . S
C746 C748 1.327 . S
C746 H771 0.950 . S
C747 C746 1.349 . S
C747 C763 1.349 . S
C748 C746 1.327 . S
C748 C767 1.429 . S
C748 H772 0.950 . S
C749 C766 1.574 . S
C749 C768 1.368 . S
C749 H773 0.949 . S
H750 C754 0.949 . S
C751 C752 1.349 . S
C751 C753 1.327 . S
C751 H774 0.950 . S
C752 C751 1.349 . S
C752 C764 1.349 . S
C753 C751 1.327 . S
C753 C769 1.429 . S
C753 H775 0.950 . S
C754 H750 0.949 . S
C754 C762 1.574 . S
C754 C770 1.368 . S
H755 C763 0.950 . S
H756 C761 0.950 . S
H757 C762 0.949 . S
H758 C764 0.950 . S
H759 C765 0.950 . S
H760 C766 0.949 . S
C761 H756 0.950 . S
C761 C763 1.327 . S
C761 C767 1.429 . S
C762 C754 1.574 . S
C762 H757 0.949 . S
C762 C768 1.368 . S
C763 C747 1.349 . S
C763 H755 0.950 . S
C763 C761 1.327 . S
C764 C752 1.349 . S
C764 H758 0.950 . S
C764 C765 1.327 . S
C765 H759 0.950 . S
C765 C764 1.327 . S
C765 C769 1.429 . S
C766 C749 1.574 . S
C766 H760 0.949 . S
C766 C770 1.368 . S
C767 C748 1.429 . S
C767 C761 1.429 . S
C767 C768 1.523 . S
C768 C749 1.368 . S
C768 C762 1.368 . S
C768 C767 1.523 . S
C769 C753 1.429 . S
C769 C765 1.429 . S
C769 C770 1.523 . S
C770 C754 1.368 . S
C770 C766 1.368 . S
C770 C769 1.523 . S
H771 C746 0.950 . S
H772 C748 0.950 . S
H773 C749 0.949 . S
H774 C751 0.950 . S
H775 C753 0.950 . S
C776 C777 1.349 . S
C776 C778 1.327 . S
C776 H801 0.950 . S
C777 C776 1.349 . S
C777 C793 1.349 . S
C778 C776 1.327 . S
C778 C797 1.429 . S
C778 H802 0.950 . S
C779 C796 1.574 . S
C779 C798 1.368 . S
C779 H803 0.949 . S
H780 C784 0.949 . S
C781 C782 1.349 . S
C781 C783 1.327 . S
C781 H804 0.950 . S
C782 C781 1.349 . S
C782 C794 1.349 . S
C783 C781 1.327 . S
C783 C799 1.429 . S
C783 H805 0.950 . S
C784 H780 0.949 . S
C784 C792 1.574 . S
C784 C800 1.368 . S
H785 C793 0.950 . S
H786 C791 0.950 . S
H787 C792 0.949 . S
H788 C794 0.950 . S
H789 C795 0.950 . S
H790 C796 0.949 . S
C791 H786 0.950 . S
C791 C793 1.327 . S
C791 C797 1.429 . S
C792 C784 1.574 . S
C792 H787 0.949 . S
C792 C798 1.368 . S
C793 C777 1.349 . S
C793 H785 0.950 . S
C793 C791 1.327 . S
C794 C782 1.349 . S
C794 H788 0.950 . S
C794 C795 1.327 . S
C795 H789 0.950 . S
C795 C794 1.327 . S
C795 C799 1.429 . S
C796 C779 1.574 . S
C796 H790 0.949 . S
C796 C800 1.368 . S
C797 C778 1.429 . S
C797 C791 1.429 . S
C797 C798 1.523 . S
C798 C779 1.368 . S
C798 C792 1.368 . S
C798 C797 1.523 . S
C799 C783 1.429 . S
C799 C795 1.429 . S
C799 C800 1.523 . S
C800 C784 1.368 . S
C800 C796 1.368 . S
C800 C799 1.523 . S
H801 C776 0.950 . S
H802 C778 0.950 . S
H803 C779 0.949 . S
H804 C781 0.950 . S
H805 C783 0.950 . S
C806 C807 1.349 . S
C806 C808 1.327 . S
C806 H831 0.950 . S
C807 C806 1.349 . S
C807 C823 1.349 . S
C808 C806 1.327 . S
C808 C827 1.429 . S
C808 H832 0.950 . S
C809 C826 1.563 1_554 S
C809 C828 1.379 . S
C809 H833 0.950 . S
H810 C814 0.950 . S
C811 C812 1.349 . S
C811 C813 1.327 . S
C811 H834 0.950 . S
C812 C811 1.349 . S
C812 C824 1.349 . S
C813 C811 1.327 . S
C813 C829 1.429 . S
C813 H835 0.950 . S
C814 H810 0.950 . S
C814 C822 1.563 1_556 S
C814 C830 1.379 . S
H815 C823 0.950 . S
H816 C821 0.950 . S
H817 C822 0.949 . S
H818 C824 0.950 . S
H819 C825 0.950 . S
H820 C826 0.949 . S
C821 H816 0.950 . S
C821 C823 1.327 . S
C821 C827 1.429 . S
C822 C814 1.563 1_554 S
C822 H817 0.949 . S
C822 C828 1.368 . S
C823 C807 1.349 . S
C823 H815 0.950 . S
C823 C821 1.327 . S
C824 C812 1.349 . S
C824 H818 0.950 . S
C824 C825 1.327 . S
C825 H819 0.950 . S
C825 C824 1.327 . S
C825 C829 1.429 . S
C826 C809 1.563 1_556 S
C826 H820 0.949 . S
C826 C830 1.368 . S
C827 C808 1.429 . S
C827 C821 1.429 . S
C827 C828 1.523 . S
C828 C809 1.379 . S
C828 C822 1.368 . S
C828 C827 1.523 . S
C829 C813 1.429 . S
C829 C825 1.429 . S
C829 C830 1.523 . S
C830 C814 1.379 . S
C830 C826 1.368 . S
C830 C829 1.523 . S
H831 C806 0.950 . S
H832 C808 0.950 . S
H833 C809 0.950 . S
H834 C811 0.950 . S
H835 C813 0.950 . S
C836 C837 1.349 . S
C836 C838 1.327 . S
C836 H861 0.950 . S
C837 C836 1.349 . S
C837 C853 1.349 . S
C838 C836 1.327 . S
C838 C857 1.429 . S
C838 H862 0.950 . S
C839 C856 1.574 . S
C839 C858 1.368 . S
C839 H863 0.949 . S
H840 C844 0.949 . S
C841 C842 1.349 . S
C841 C843 1.327 . S
C841 H864 0.950 . S
C842 C841 1.349 . S
C842 C854 1.349 . S
C843 C841 1.327 . S
C843 C859 1.429 . S
C843 H865 0.950 . S
C844 H840 0.949 . S
C844 C852 1.574 . S
C844 C860 1.368 . S
H845 C853 0.950 . S
H846 C851 0.950 . S
H847 C852 0.949 . S
H848 C854 0.950 . S
H849 C855 0.950 . S
H850 C856 0.949 . S
C851 H846 0.950 . S
C851 C853 1.327 . S
C851 C857 1.429 . S
C852 C844 1.574 . S
C852 H847 0.949 . S
C852 C858 1.368 . S
C853 C837 1.349 . S
C853 H845 0.950 . S
C853 C851 1.327 . S
C854 C842 1.349 . S
C854 H848 0.950 . S
C854 C855 1.327 . S
C855 H849 0.950 . S
C855 C854 1.327 . S
C855 C859 1.429 . S
C856 C839 1.574 . S
C856 H850 0.949 . S
C856 C860 1.368 . S
C857 C838 1.429 . S
C857 C851 1.429 . S
C857 C858 1.523 . S
C858 C839 1.368 . S
C858 C852 1.368 . S
C858 C857 1.523 . S
C859 C843 1.429 . S
C859 C855 1.429 . S
C859 C860 1.523 . S
C860 C844 1.368 . S
C860 C856 1.368 . S
C860 C859 1.523 . S
H861 C836 0.950 . S
H862 C838 0.950 . S
H863 C839 0.949 . S
H864 C841 0.950 . S
H865 C843 0.950 . S
C866 C867 1.349 . S
C866 C868 1.327 . S
C866 H891 0.950 . S
C867 C866 1.349 . S
C867 C883 1.349 . S
C868 C866 1.327 . S
C868 C887 1.429 . S
C868 H892 0.950 . S
C869 C886 1.574 . S
C869 C888 1.368 . S
C869 H893 0.949 . S
H870 C874 0.949 . S
C871 C872 1.349 . S
C871 C873 1.327 . S
C871 H894 0.950 . S
C872 C871 1.349 . S
C872 C884 1.349 . S
C873 C871 1.327 . S
C873 C889 1.429 . S
C873 H895 0.950 . S
C874 H870 0.949 . S
C874 C882 1.574 . S
C874 C890 1.368 . S
H875 C883 0.950 . S
H876 C881 0.950 . S
H877 C882 0.949 . S
H878 C884 0.950 . S
H879 C885 0.950 . S
H880 C886 0.949 . S
C881 H876 0.950 . S
C881 C883 1.327 . S
C881 C887 1.429 . S
C882 C874 1.574 . S
C882 H877 0.949 . S
C882 C888 1.368 . S
C883 C867 1.349 . S
C883 H875 0.950 . S
C883 C881 1.327 . S
C884 C872 1.349 . S
C884 H878 0.950 . S
C884 C885 1.327 . S
C885 H879 0.950 . S
C885 C884 1.327 . S
C885 C889 1.429 . S
C886 C869 1.574 . S
C886 H880 0.949 . S
C886 C890 1.368 . S
C887 C868 1.429 . S
C887 C881 1.429 . S
C887 C888 1.523 . S
C888 C869 1.368 . S
C888 C882 1.368 . S
C888 C887 1.523 . S
C889 C873 1.429 . S
C889 C885 1.429 . S
C889 C890 1.523 . S
C890 C874 1.368 . S
C890 C886 1.368 . S
C890 C889 1.523 . S
H891 C866 0.950 . S
H892 C868 0.950 . S
H893 C869 0.949 . S
H894 C871 0.950 . S
H895 C873 0.950 . S
C896 C897 1.349 . S
C896 C898 1.327 . S
C896 H921 0.950 . S
C897 C896 1.349 . S
C897 C913 1.349 . S
C898 C896 1.327 . S
C898 C917 1.429 . S
C898 H922 0.950 . S
C899 C916 1.574 . S
C899 C918 1.368 . S
C899 H923 0.949 . S
H900 C904 0.949 . S
C901 C902 1.349 . S
C901 C903 1.327 . S
C901 H924 0.950 . S
C902 C901 1.349 . S
C902 C914 1.349 . S
C903 C901 1.327 . S
C903 C919 1.429 . S
C903 H925 0.950 . S
C904 H900 0.949 . S
C904 C912 1.574 . S
C904 C920 1.368 . S
H905 C913 0.950 . S
H906 C911 0.950 . S
H907 C912 0.949 . S
H908 C914 0.950 . S
H909 C915 0.950 . S
H910 C916 0.949 . S
C911 H906 0.950 . S
C911 C913 1.327 . S
C911 C917 1.429 . S
C912 C904 1.574 . S
C912 H907 0.949 . S
C912 C918 1.368 . S
C913 C897 1.349 . S
C913 H905 0.950 . S
C913 C911 1.327 . S
C914 C902 1.349 . S
C914 H908 0.950 . S
C914 C915 1.327 . S
C915 H909 0.950 . S
C915 C914 1.327 . S
C915 C919 1.429 . S
C916 C899 1.574 . S
C916 H910 0.949 . S
C916 C920 1.368 . S
C917 C898 1.429 . S
C917 C911 1.429 . S
C917 C918 1.523 . S
C918 C899 1.368 . S
C918 C912 1.368 . S
C918 C917 1.523 . S
C919 C903 1.429 . S
C919 C915 1.429 . S
C919 C920 1.523 . S
C920 C904 1.368 . S
C920 C916 1.368 . S
C920 C919 1.523 . S
H921 C896 0.950 . S
H922 C898 0.950 . S
H923 C899 0.949 . S
H924 C901 0.950 . S
H925 C903 0.950 . S
C926 C927 1.349 . S
C926 C928 1.327 . S
C926 H951 0.950 . S
C927 C926 1.349 . S
C927 C943 1.349 . S
C928 C926 1.327 . S
C928 C947 1.429 . S
C928 H952 0.950 . S
C929 C946 1.574 . S
C929 C948 1.368 . S
C929 H953 0.949 . S
H930 C934 0.949 . S
C931 C932 1.349 . S
C931 C933 1.327 . S
C931 H954 0.950 . S
C932 C931 1.349 . S
C932 C944 1.349 . S
C933 C931 1.327 . S
C933 C949 1.429 . S
C933 H955 0.950 . S
C934 H930 0.949 . S
C934 C942 1.574 . S
C934 C950 1.368 . S
H935 C943 0.950 . S
H936 C941 0.950 . S
H937 C942 0.949 . S
H938 C944 0.950 . S
H939 C945 0.950 . S
H940 C946 0.949 . S
C941 H936 0.950 . S
C941 C943 1.327 . S
C941 C947 1.429 . S
C942 C934 1.574 . S
C942 H937 0.949 . S
C942 C948 1.368 . S
C943 C927 1.349 . S
C943 H935 0.950 . S
C943 C941 1.327 . S
C944 C932 1.349 . S
C944 H938 0.950 . S
C944 C945 1.327 . S
C945 H939 0.950 . S
C945 C944 1.327 . S
C945 C949 1.429 . S
C946 C929 1.574 . S
C946 H940 0.949 . S
C946 C950 1.368 . S
C947 C928 1.429 . S
C947 C941 1.429 . S
C947 C948 1.523 1_655 S
C948 C929 1.368 . S
C948 C942 1.368 . S
C948 C947 1.523 1_455 S
C949 C933 1.429 . S
C949 C945 1.429 . S
C949 C950 1.523 . S
C950 C934 1.368 . S
C950 C946 1.368 . S
C950 C949 1.523 . S
H951 C926 0.950 . S
H952 C928 0.950 . S
H953 C929 0.949 . S
H954 C931 0.950 . S
H955 C933 0.950 . S
C956 C957 1.349 . S
C956 C958 1.327 . S
C956 H981 0.950 . S
C957 C956 1.349 . S
C957 C973 1.349 . S
C958 C956 1.327 . S
C958 C977 1.429 . S
C958 H982 0.950 . S
C959 C976 1.574 . S
C959 C978 1.368 . S
C959 H983 0.949 . S
H960 C964 0.949 . S
C961 C962 1.349 . S
C961 C963 1.327 . S
C961 H984 0.950 . S
C962 C961 1.349 . S
C962 C974 1.349 . S
C963 C961 1.327 . S
C963 C979 1.429 . S
C963 H985 0.950 . S
C964 H960 0.949 . S
C964 C972 1.574 . S
C964 C980 1.368 . S
H965 C973 0.950 . S
H966 C971 0.950 . S
H967 C972 0.949 . S
H968 C974 0.950 . S
H969 C975 0.950 . S
H970 C976 0.949 . S
C971 H966 0.950 . S
C971 C973 1.327 . S
C971 C977 1.429 . S
C972 C964 1.574 . S
C972 H967 0.949 . S
C972 C978 1.368 . S
C973 C957 1.349 . S
C973 H965 0.950 . S
C973 C971 1.327 . S
C974 C962 1.349 . S
C974 H968 0.950 . S
C974 C975 1.327 . S
C975 H969 0.950 . S
C975 C974 1.327 . S
C975 C979 1.429 . S
C976 C959 1.574 . S
C976 H970 0.949 . S
C976 C980 1.368 . S
C977 C958 1.429 . S
C977 C971 1.429 . S
C977 C978 1.523 . S
C978 C959 1.368 . S
C978 C972 1.368 . S
C978 C977 1.523 . S
C979 C963 1.429 . S
C979 C975 1.429 . S
C979 C980 1.523 . S
C980 C964 1.368 . S
C980 C976 1.368 . S
C980 C979 1.523 . S
H981 C956 0.950 . S
H982 C958 0.950 . S
H983 C959 0.949 . S
H984 C961 0.950 . S
H985 C963 0.950 . S
C986 C987 1.349 . S
C986 C988 1.327 . S
C986 H1011 0.950 . S
C987 C986 1.349 . S
C987 C1003 1.349 . S
C988 C986 1.327 . S
C988 C1007 1.429 . S
C988 H1012 0.950 . S
C989 C1006 1.574 . S
C989 C1008 1.368 . S
C989 H1013 0.949 . S
H990 C994 0.949 . S
C991 C992 1.349 . S
C991 C993 1.327 . S
C991 H1014 0.950 . S
C992 C991 1.349 . S
C992 C1004 1.349 . S
C993 C991 1.327 . S
C993 C1009 1.429 . S
C993 H1015 0.950 . S
C994 H990 0.949 . S
C994 C1002 1.574 . S
C994 C1010 1.368 . S
H995 C1003 0.950 . S
H996 C1001 0.950 . S
H997 C1002 0.949 . S
H998 C1004 0.950 . S
H999 C1005 0.950 . S
H1000 C1006 0.949 . S
C1001 H996 0.950 . S
C1001 C1003 1.327 . S
C1001 C1007 1.429 . S
C1002 C994 1.574 . S
C1002 H997 0.949 . S
C1002 C1008 1.368 . S
C1003 C987 1.349 . S
C1003 H995 0.950 . S
C1003 C1001 1.327 . S
C1004 C992 1.349 . S
C1004 H998 0.950 . S
C1004 C1005 1.327 . S
C1005 H999 0.950 . S
C1005 C1004 1.327 . S
C1005 C1009 1.429 . S
C1006 C989 1.574 . S
C1006 H1000 0.949 . S
C1006 C1010 1.368 . S
C1007 C988 1.429 . S
C1007 C1001 1.429 . S
C1007 C1008 1.523 . S
C1008 C989 1.368 . S
C1008 C1002 1.368 . S
C1008 C1007 1.523 . S
C1009 C993 1.429 . S
C1009 C1005 1.429 . S
C1009 C1010 1.523 . S
C1010 C994 1.368 . S
C1010 C1006 1.368 . S
C1010 C1009 1.523 . S
H1011 C986 0.950 . S
H1012 C988 0.950 . S
H1013 C989 0.949 . S
H1014 C991 0.950 . S
H1015 C993 0.950 . S
C1016 C1017 1.349 . S
C1016 C1018 1.327 . S
C1016 H1041 0.950 . S
C1017 C1016 1.349 . S
C1017 C1033 1.349 . S
C1018 C1016 1.327 . S
C1018 C1037 1.429 . S
C1018 H1042 0.950 . S
C1019 C1036 1.574 . S
C1019 C1038 1.368 . S
C1019 H1043 0.949 . S
H1020 C1024 0.949 . S
C1021 C1022 1.349 . S
C1021 C1023 1.327 . S
C1021 H1044 0.950 . S
C1022 C1021 1.349 . S
C1022 C1034 1.349 . S
C1023 C1021 1.327 . S
C1023 C1039 1.429 . S
C1023 H1045 0.950 . S
C1024 H1020 0.949 . S
C1024 C1032 1.574 . S
C1024 C1040 1.368 . S
H1025 C1033 0.950 . S
H1026 C1031 0.950 . S
H1027 C1032 0.949 . S
H1028 C1034 0.950 . S
H1029 C1035 0.950 . S
H1030 C1036 0.949 . S
C1031 H1026 0.950 . S
C1031 C1033 1.327 . S
C1031 C1037 1.429 . S
C1032 C1024 1.574 . S
C1032 H1027 0.949 . S
C1032 C1038 1.368 . S
C1033 C1017 1.349 . S
C1033 H1025 0.950 . S
C1033 C1031 1.327 . S
C1034 C1022 1.349 . S
C1034 H1028 0.950 . S
C1034 C1035 1.327 . S
C1035 H1029 0.950 . S
C1035 C1034 1.327 . S
C1035 C1039 1.429 . S
C1036 C1019 1.574 . S
C1036 H1030 0.949 . S
C1036 C1040 1.368 . S
C1037 C1018 1.429 . S
C1037 C1031 1.429 . S
C1037 C1038 1.523 . S
C1038 C1019 1.368 . S
C1038 C1032 1.368 . S
C1038 C1037 1.523 . S
C1039 C1023 1.429 . S
C1039 C1035 1.429 . S
C1039 C1040 1.523 . S
C1040 C1024 1.368 . S
C1040 C1036 1.368 . S
C1040 C1039 1.523 . S
H1041 C1016 0.950 . S
H1042 C1018 0.950 . S
H1043 C1019 0.949 . S
H1044 C1021 0.950 . S
H1045 C1023 0.950 . S
C1046 C1047 1.349 . S
C1046 C1048 1.327 . S
C1046 H1071 0.950 . S
C1047 C1046 1.349 . S
C1047 C1063 1.349 . S
C1048 C1046 1.327 . S
C1048 C1067 1.429 . S
C1048 H1072 0.950 . S
C1049 C1066 1.574 . S
C1049 C1068 1.368 . S
C1049 H1073 0.949 . S
H1050 C1054 0.949 . S
C1051 C1052 1.349 . S
C1051 C1053 1.327 . S
C1051 H1074 0.950 . S
C1052 C1051 1.349 . S
C1052 C1064 1.349 . S
C1053 C1051 1.327 . S
C1053 C1069 1.429 . S
C1053 H1075 0.950 . S
C1054 H1050 0.949 . S
C1054 C1062 1.574 . S
C1054 C1070 1.368 . S
H1055 C1063 0.950 . S
H1056 C1061 0.950 . S
H1057 C1062 0.949 . S
H1058 C1064 0.950 . S
H1059 C1065 0.950 . S
H1060 C1066 0.949 . S
C1061 H1056 0.950 . S
C1061 C1063 1.327 . S
C1061 C1067 1.429 . S
C1062 C1054 1.574 . S
C1062 H1057 0.949 . S
C1062 C1068 1.368 . S
C1063 C1047 1.349 . S
C1063 H1055 0.950 . S
C1063 C1061 1.327 . S
C1064 C1052 1.349 . S
C1064 H1058 0.950 . S
C1064 C1065 1.327 . S
C1065 H1059 0.950 . S
C1065 C1064 1.327 . S
C1065 C1069 1.429 . S
C1066 C1049 1.574 . S
C1066 H1060 0.949 . S
C1066 C1070 1.368 . S
C1067 C1048 1.429 . S
C1067 C1061 1.429 . S
C1067 C1068 1.523 . S
C1068 C1049 1.368 . S
C1068 C1062 1.368 . S
C1068 C1067 1.523 . S
C1069 C1053 1.429 . S
C1069 C1065 1.429 . S
C1069 C1070 1.523 . S
C1070 C1054 1.368 . S
C1070 C1066 1.368 . S
C1070 C1069 1.523 . S
H1071 C1046 0.950 . S
H1072 C1048 0.950 . S
H1073 C1049 0.949 . S
H1074 C1051 0.950 . S
H1075 C1053 0.950 . S
C1076 C1077 1.349 . S
C1076 C1078 1.327 . S
C1076 H1101 0.950 . S
C1077 C1076 1.349 . S
C1077 C1093 1.349 . S
C1078 C1076 1.327 . S
C1078 C1097 1.429 . S
C1078 H1102 0.950 . S
C1079 C1096 1.574 . S
C1079 C1098 1.368 . S
C1079 H1103 0.949 . S
H1080 C1084 0.949 . S
C1081 C1082 1.349 . S
C1081 C1083 1.327 . S
C1081 H1104 0.950 . S
C1082 C1081 1.349 . S
C1082 C1094 1.349 . S
C1083 C1081 1.327 . S
C1083 C1099 1.429 . S
C1083 H1105 0.950 . S
C1084 H1080 0.949 . S
C1084 C1092 1.574 . S
C1084 C1100 1.368 . S
H1085 C1093 0.950 . S
H1086 C1091 0.950 . S
H1087 C1092 0.949 . S
H1088 C1094 0.950 . S
H1089 C1095 0.950 . S
H1090 C1096 0.949 . S
C1091 H1086 0.950 . S
C1091 C1093 1.327 . S
C1091 C1097 1.429 . S
C1092 C1084 1.574 . S
C1092 H1087 0.949 . S
C1092 C1098 1.368 . S
C1093 C1077 1.349 . S
C1093 H1085 0.950 . S
C1093 C1091 1.327 . S
C1094 C1082 1.349 . S
C1094 H1088 0.950 . S
C1094 C1095 1.327 . S
C1095 H1089 0.950 . S
C1095 C1094 1.327 . S
C1095 C1099 1.429 . S
C1096 C1079 1.574 . S
C1096 H1090 0.949 . S
C1096 C1100 1.368 . S
C1097 C1078 1.429 . S
C1097 C1091 1.429 . S
C1097 C1098 1.523 . S
C1098 C1079 1.368 . S
C1098 C1092 1.368 . S
C1098 C1097 1.523 . S
C1099 C1083 1.429 . S
C1099 C1095 1.429 . S
C1099 C1100 1.523 . S
C1100 C1084 1.368 . S
C1100 C1096 1.368 . S
C1100 C1099 1.523 . S
H1101 C1076 0.950 . S
H1102 C1078 0.950 . S
H1103 C1079 0.949 . S
H1104 C1081 0.950 . S
H1105 C1083 0.950 . S
C1106 C1107 1.349 . S
C1106 C1108 1.327 . S
C1106 H1131 0.950 . S
C1107 C1106 1.349 . S
C1107 C1123 1.349 . S
C1108 C1106 1.327 . S
C1108 C1127 1.429 . S
C1108 H1132 0.950 . S
C1109 C1126 1.574 . S
C1109 C1128 1.368 . S
C1109 H1133 0.949 . S
H1110 C1114 0.949 . S
C1111 C1112 1.349 . S
C1111 C1113 1.327 . S
C1111 H1134 0.950 . S
C1112 C1111 1.349 . S
C1112 C1124 1.349 . S
C1113 C1111 1.327 . S
C1113 C1129 1.429 . S
C1113 H1135 0.950 . S
C1114 H1110 0.949 . S
C1114 C1122 1.574 . S
C1114 C1130 1.368 . S
H1115 C1123 0.950 . S
H1116 C1121 0.950 . S
H1117 C1122 0.949 . S
H1118 C1124 0.950 . S
H1119 C1125 0.950 . S
H1120 C1126 0.949 . S
C1121 H1116 0.950 . S
C1121 C1123 1.327 . S
C1121 C1127 1.429 . S
C1122 C1114 1.574 . S
C1122 H1117 0.949 . S
C1122 C1128 1.368 . S
C1123 C1107 1.349 . S
C1123 H1115 0.950 . S
C1123 C1121 1.327 . S
C1124 C1112 1.349 . S
C1124 H1118 0.950 . S
C1124 C1125 1.327 . S
C1125 H1119 0.950 . S
C1125 C1124 1.327 . S
C1125 C1129 1.429 . S
C1126 C1109 1.574 . S
C1126 H1120 0.949 . S
C1126 C1130 1.368 . S
C1127 C1108 1.429 . S
C1127 C1121 1.429 . S
C1127 C1128 1.523 . S
C1128 C1109 1.368 . S
C1128 C1122 1.368 . S
C1128 C1127 1.523 . S
C1129 C1113 1.429 . S
C1129 C1125 1.429 . S
C1129 C1130 1.523 1_655 S
C1130 C1114 1.368 . S
C1130 C1126 1.368 . S
C1130 C1129 1.523 1_455 S
H1131 C1106 0.950 . S
H1132 C1108 0.950 . S
H1133 C1109 0.949 . S
H1134 C1111 0.950 . S
H1135 C1113 0.950 . S
C1136 C1137 1.349 . S
C1136 C1138 1.327 . S
C1136 H1161 0.950 . S
C1137 C1136 1.349 . S
C1137 C1153 1.349 . S
C1138 C1136 1.327 . S
C1138 C1157 1.429 . S
C1138 H1162 0.950 . S
C1139 C1156 1.574 . S
C1139 C1158 1.368 . S
C1139 H1163 0.949 . S
H1140 C1144 0.949 . S
C1141 C1142 1.349 . S
C1141 C1143 1.327 . S
C1141 H1164 0.950 . S
C1142 C1141 1.349 . S
C1142 C1154 1.349 . S
C1143 C1141 1.327 . S
C1143 C1159 1.429 . S
C1143 H1165 0.950 . S
C1144 H1140 0.949 . S
C1144 C1152 1.574 . S
C1144 C1160 1.368 . S
H1145 C1153 0.950 . S
H1146 C1151 0.950 . S
H1147 C1152 0.949 . S
H1148 C1154 0.950 . S
H1149 C1155 0.950 . S
H1150 C1156 0.949 . S
C1151 H1146 0.950 . S
C1151 C1153 1.327 . S
C1151 C1157 1.429 . S
C1152 C1144 1.574 . S
C1152 H1147 0.949 . S
C1152 C1158 1.368 . S
C1153 C1137 1.349 . S
C1153 H1145 0.950 . S
C1153 C1151 1.327 . S
C1154 C1142 1.349 . S
C1154 H1148 0.950 . S
C1154 C1155 1.327 . S
C1155 H1149 0.950 . S
C1155 C1154 1.327 . S
C1155 C1159 1.429 . S
C1156 C1139 1.574 . S
C1156 H1150 0.949 . S
C1156 C1160 1.368 . S
C1157 C1138 1.429 . S
C1157 C1151 1.429 . S
C1157 C1158 1.523 . S
C1158 C1139 1.368 . S
C1158 C1152 1.368 . S
C1158 C1157 1.523 . S
C1159 C1143 1.429 . S
C1159 C1155 1.429 . S
C1159 C1160 1.523 . S
C1160 C1144 1.368 . S
C1160 C1156 1.368 . S
C1160 C1159 1.523 . S
H1161 C1136 0.950 . S
H1162 C1138 0.950 . S
H1163 C1139 0.949 . S
H1164 C1141 0.950 . S
H1165 C1143 0.950 . S
C1166 C1167 1.349 . S
C1166 C1168 1.327 . S
C1166 H1191 0.950 . S
C1167 C1166 1.349 . S
C1167 C1183 1.349 . S
C1168 C1166 1.327 . S
C1168 C1187 1.429 . S
C1168 H1192 0.950 . S
C1169 C1186 1.574 . S
C1169 C1188 1.368 . S
C1169 H1193 0.949 . S
H1170 C1174 0.949 . S
C1171 C1172 1.349 . S
C1171 C1173 1.327 . S
C1171 H1194 0.950 . S
C1172 C1171 1.349 . S
C1172 C1184 1.349 . S
C1173 C1171 1.327 . S
C1173 C1189 1.429 . S
C1173 H1195 0.950 . S
C1174 H1170 0.949 . S
C1174 C1182 1.574 . S
C1174 C1190 1.368 . S
H1175 C1183 0.950 . S
H1176 C1181 0.950 . S
H1177 C1182 0.949 . S
H1178 C1184 0.950 . S
H1179 C1185 0.950 . S
H1180 C1186 0.949 . S
C1181 H1176 0.950 . S
C1181 C1183 1.327 . S
C1181 C1187 1.429 . S
C1182 C1174 1.574 . S
C1182 H1177 0.949 . S
C1182 C1188 1.368 . S
C1183 C1167 1.349 . S
C1183 H1175 0.950 . S
C1183 C1181 1.327 . S
C1184 C1172 1.349 . S
C1184 H1178 0.950 . S
C1184 C1185 1.327 . S
C1185 H1179 0.950 . S
C1185 C1184 1.327 . S
C1185 C1189 1.429 . S
C1186 C1169 1.574 . S
C1186 H1180 0.949 . S
C1186 C1190 1.368 . S
C1187 C1168 1.429 . S
C1187 C1181 1.429 . S
C1187 C1188 1.523 . S
C1188 C1169 1.368 . S
C1188 C1182 1.368 . S
C1188 C1187 1.523 . S
C1189 C1173 1.429 . S
C1189 C1185 1.429 . S
C1189 C1190 1.523 1_455 S
C1190 C1174 1.368 . S
C1190 C1186 1.368 . S
C1190 C1189 1.523 1_655 S
H1191 C1166 0.950 . S
H1192 C1168 0.950 . S
H1193 C1169 0.949 . S
H1194 C1171 0.950 . S
H1195 C1173 0.950 . S
C1196 C1197 1.349 . S
C1196 C1198 1.327 . S
C1196 H1221 0.950 . S
C1197 C1196 1.349 . S
C1197 C1213 1.349 . S
C1198 C1196 1.327 . S
C1198 C1217 1.429 . S
C1198 H1222 0.950 . S
C1199 C1216 1.574 . S
C1199 C1218 1.368 . S
C1199 H1223 0.949 . S
H1200 C1204 0.949 . S
C1201 C1202 1.349 . S
C1201 C1203 1.327 . S
C1201 H1224 0.950 . S
C1202 C1201 1.349 . S
C1202 C1214 1.349 . S
C1203 C1201 1.327 . S
C1203 C1219 1.429 . S
C1203 H1225 0.950 . S
C1204 H1200 0.949 . S
C1204 C1212 1.574 . S
C1204 C1220 1.368 . S
H1205 C1213 0.950 . S
H1206 C1211 0.950 . S
H1207 C1212 0.949 . S
H1208 C1214 0.950 . S
H1209 C1215 0.950 . S
H1210 C1216 0.949 . S
C1211 H1206 0.950 . S
C1211 C1213 1.327 . S
C1211 C1217 1.429 . S
C1212 C1204 1.574 . S
C1212 H1207 0.949 . S
C1212 C1218 1.368 . S
C1213 C1197 1.349 . S
C1213 H1205 0.950 . S
C1213 C1211 1.327 . S
C1214 C1202 1.349 . S
C1214 H1208 0.950 . S
C1214 C1215 1.327 . S
C1215 H1209 0.950 . S
C1215 C1214 1.327 . S
C1215 C1219 1.429 . S
C1216 C1199 1.574 . S
C1216 H1210 0.949 . S
C1216 C1220 1.368 . S
C1217 C1198 1.429 . S
C1217 C1211 1.429 . S
C1217 C1218 1.523 . S
C1218 C1199 1.368 . S
C1218 C1212 1.368 . S
C1218 C1217 1.523 . S
C1219 C1203 1.429 . S
C1219 C1215 1.429 . S
C1219 C1220 1.523 . S
C1220 C1204 1.368 . S
C1220 C1216 1.368 . S
C1220 C1219 1.523 . S
H1221 C1196 0.950 . S
H1222 C1198 0.950 . S
H1223 C1199 0.949 . S
H1224 C1201 0.950 . S
H1225 C1203 0.950 . S
C1226 C1227 1.349 . S
C1226 C1228 1.327 . S
C1226 H1251 0.950 . S
C1227 C1226 1.349 . S
C1227 C1243 1.349 . S
C1228 C1226 1.327 . S
C1228 C1247 1.429 . S
C1228 H1252 0.950 . S
C1229 C1246 1.574 . S
C1229 C1248 1.368 . S
C1229 H1253 0.949 . S
H1230 C1234 0.949 . S
C1231 C1232 1.349 . S
C1231 C1233 1.327 . S
C1231 H1254 0.950 . S
C1232 C1231 1.349 . S
C1232 C1244 1.349 . S
C1233 C1231 1.327 . S
C1233 C1249 1.429 . S
C1233 H1255 0.950 . S
C1234 H1230 0.949 . S
C1234 C1242 1.574 . S
C1234 C1250 1.368 . S
H1235 C1243 0.950 . S
H1236 C1241 0.950 . S
H1237 C1242 0.949 . S
H1238 C1244 0.950 . S
H1239 C1245 0.950 . S
H1240 C1246 0.949 . S
C1241 H1236 0.950 . S
C1241 C1243 1.327 . S
C1241 C1247 1.429 . S
C1242 C1234 1.574 . S
C1242 H1237 0.949 . S
C1242 C1248 1.368 . S
C1243 C1227 1.349 . S
C1243 H1235 0.950 . S
C1243 C1241 1.327 . S
C1244 C1232 1.349 . S
C1244 H1238 0.950 . S
C1244 C1245 1.327 . S
C1245 H1239 0.950 . S
C1245 C1244 1.327 . S
C1245 C1249 1.429 . S
C1246 C1229 1.574 . S
C1246 H1240 0.949 . S
C1246 C1250 1.368 . S
C1247 C1228 1.429 . S
C1247 C1241 1.429 . S
C1247 C1248 1.523 . S
C1248 C1229 1.368 . S
C1248 C1242 1.368 . S
C1248 C1247 1.523 . S
C1249 C1233 1.429 . S
C1249 C1245 1.429 . S
C1249 C1250 1.523 . S
C1250 C1234 1.368 . S
C1250 C1246 1.368 . S
C1250 C1249 1.523 . S
H1251 C1226 0.950 . S
H1252 C1228 0.950 . S
H1253 C1229 0.949 . S
H1254 C1231 0.950 . S
H1255 C1233 0.950 . S
C1256 C1257 1.349 . S
C1256 C1258 1.327 . S
C1256 H1281 0.950 . S
C1257 C1256 1.349 . S
C1257 C1273 1.349 . S
C1258 C1256 1.327 . S
C1258 C1277 1.429 . S
C1258 H1282 0.950 . S
C1259 C1276 1.574 . S
C1259 C1278 1.368 . S
C1259 H1283 0.949 . S
H1260 C1264 0.949 . S
C1261 C1262 1.349 . S
C1261 C1263 1.327 . S
C1261 H1284 0.950 . S
C1262 C1261 1.349 . S
C1262 C1274 1.349 . S
C1263 C1261 1.327 . S
C1263 C1279 1.429 . S
C1263 H1285 0.950 . S
C1264 H1260 0.949 . S
C1264 C1272 1.574 . S
C1264 C1280 1.368 . S
H1265 C1273 0.950 . S
H1266 C1271 0.950 . S
H1267 C1272 0.949 . S
H1268 C1274 0.950 . S
H1269 C1275 0.950 . S
H1270 C1276 0.949 . S
C1271 H1266 0.950 . S
C1271 C1273 1.327 . S
C1271 C1277 1.429 . S
C1272 C1264 1.574 . S
C1272 H1267 0.949 . S
C1272 C1278 1.368 . S
C1273 C1257 1.349 . S
C1273 H1265 0.950 . S
C1273 C1271 1.327 . S
C1274 C1262 1.349 . S
C1274 H1268 0.950 . S
C1274 C1275 1.327 . S
C1275 H1269 0.950 . S
C1275 C1274 1.327 . S
C1275 C1279 1.429 . S
C1276 C1259 1.574 . S
C1276 H1270 0.949 . S
C1276 C1280 1.368 . S
C1277 C1258 1.429 . S
C1277 C1271 1.429 . S
C1277 C1278 1.523 . S
C1278 C1259 1.368 . S
C1278 C1272 1.368 . S
C1278 C1277 1.523 . S
C1279 C1263 1.429 . S
C1279 C1275 1.429 . S
C1279 C1280 1.523 . S
C1280 C1264 1.368 . S
C1280 C1276 1.368 . S
C1280 C1279 1.523 . S
H1281 C1256 0.950 . S
H1282 C1258 0.950 . S
H1283 C1259 0.949 . S
H1284 C1261 0.950 . S
H1285 C1263 0.950 . S
C1286 C1287 1.349 . S
C1286 C1288 1.327 . S
C1286 H1311 0.950 . S
C1287 C1286 1.349 . S
C1287 C1303 1.349 . S
C1288 C1286 1.327 . S
C1288 C1307 1.429 . S
C1288 H1312 0.950 . S
C1289 C1306 1.574 . S
C1289 C1308 1.368 . S
C1289 H1313 0.949 . S
H1290 C1294 0.949 . S
C1291 C1292 1.349 . S
C1291 C1293 1.327 . S
C1291 H1314 0.950 . S
C1292 C1291 1.349 . S
C1292 C1304 1.349 . S
C1293 C1291 1.327 . S
C1293 C1309 1.429 . S
C1293 H1315 0.950 . S
C1294 H1290 0.949 . S
C1294 C1302 1.574 . S
C1294 C1310 1.368 . S
H1295 C1303 0.950 . S
H1296 C1301 0.950 . S
H1297 C1302 0.949 . S
H1298 C1304 0.950 . S
H1299 C1305 0.950 . S
H1300 C1306 0.949 . S
C1301 H1296 0.950 . S
C1301 C1303 1.327 . S
C1301 C1307 1.429 . S
C1302 C1294 1.574 . S
C1302 H1297 0.949 . S
C1302 C1308 1.368 . S
C1303 C1287 1.349 . S
C1303 H1295 0.950 . S
C1303 C1301 1.327 . S
C1304 C1292 1.349 . S
C1304 H1298 0.950 . S
C1304 C1305 1.327 . S
C1305 H1299 0.950 . S
C1305 C1304 1.327 . S
C1305 C1309 1.429 . S
C1306 C1289 1.574 . S
C1306 H1300 0.949 . S
C1306 C1310 1.368 . S
C1307 C1288 1.429 . S
C1307 C1301 1.429 . S
C1307 C1308 1.523 . S
C1308 C1289 1.368 . S
C1308 C1302 1.368 . S
C1308 C1307 1.523 . S
C1309 C1293 1.429 . S
C1309 C1305 1.429 . S
C1309 C1310 1.523 . S
C1310 C1294 1.368 . S
C1310 C1306 1.368 . S
C1310 C1309 1.523 . S
H1311 C1286 0.950 . S
H1312 C1288 0.950 . S
H1313 C1289 0.949 . S
H1314 C1291 0.950 . S
H1315 C1293 0.950 . S
C1316 C1317 1.349 . S
C1316 C1318 1.327 . S
C1316 H1341 0.950 . S
C1317 C1316 1.349 . S
C1317 C1333 1.349 . S
C1318 C1316 1.327 . S
C1318 C1337 1.429 . S
C1318 H1342 0.950 . S
C1319 C1336 1.574 . S
C1319 C1338 1.368 . S
C1319 H1343 0.949 . S
H1320 C1324 0.949 . S
C1321 C1322 1.349 . S
C1321 C1323 1.327 . S
C1321 H1344 0.950 . S
C1322 C1321 1.349 . S
C1322 C1334 1.349 . S
C1323 C1321 1.327 . S
C1323 C1339 1.429 . S
C1323 H1345 0.950 . S
C1324 H1320 0.949 . S
C1324 C1332 1.574 . S
C1324 C1340 1.368 . S
H1325 C1333 0.950 . S
H1326 C1331 0.950 . S
H1327 C1332 0.949 . S
H1328 C1334 0.950 . S
H1329 C1335 0.950 . S
H1330 C1336 0.949 . S
C1331 H1326 0.950 . S
C1331 C1333 1.327 . S
C1331 C1337 1.429 . S
C1332 C1324 1.574 . S
C1332 H1327 0.949 . S
C1332 C1338 1.368 . S
C1333 C1317 1.349 . S
C1333 H1325 0.950 . S
C1333 C1331 1.327 . S
C1334 C1322 1.349 . S
C1334 H1328 0.950 . S
C1334 C1335 1.327 . S
C1335 H1329 0.950 . S
C1335 C1334 1.327 . S
C1335 C1339 1.429 . S
C1336 C1319 1.574 . S
C1336 H1330 0.949 . S
C1336 C1340 1.368 . S
C1337 C1318 1.429 . S
C1337 C1331 1.429 . S
C1337 C1338 1.523 . S
C1338 C1319 1.368 . S
C1338 C1332 1.368 . S
C1338 C1337 1.523 . S
C1339 C1323 1.429 . S
C1339 C1335 1.429 . S
C1339 C1340 1.523 . S
C1340 C1324 1.368 . S
C1340 C1336 1.368 . S
C1340 C1339 1.523 . S
H1341 C1316 0.950 . S
H1342 C1318 0.950 . S
H1343 C1319 0.949 . S
H1344 C1321 0.950 . S
H1345 C1323 0.950 . S
C1346 C1347 1.349 . S
C1346 C1348 1.327 . S
C1346 H1371 0.950 . S
C1347 C1346 1.349 . S
C1347 C1363 1.349 . S
C1348 C1346 1.327 . S
C1348 C1367 1.429 . S
C1348 H1372 0.950 . S
C1349 C1366 1.574 . S
C1349 C1368 1.368 . S
C1349 H1373 0.949 . S
H1350 C1354 0.949 . S
C1351 C1352 1.349 . S
C1351 C1353 1.327 . S
C1351 H1374 0.950 . S
C1352 C1351 1.349 . S
C1352 C1364 1.349 . S
C1353 C1351 1.327 . S
C1353 C1369 1.429 . S
C1353 H1375 0.950 . S
C1354 H1350 0.949 . S
C1354 C1362 1.574 . S
C1354 C1370 1.368 . S
H1355 C1363 0.950 . S
H1356 C1361 0.950 . S
H1357 C1362 0.949 . S
H1358 C1364 0.950 . S
H1359 C1365 0.950 . S
H1360 C1366 0.949 . S
C1361 H1356 0.950 . S
C1361 C1363 1.327 . S
C1361 C1367 1.429 . S
C1362 C1354 1.574 . S
C1362 H1357 0.949 . S
C1362 C1368 1.368 . S
C1363 C1347 1.349 . S
C1363 H1355 0.950 . S
C1363 C1361 1.327 . S
C1364 C1352 1.349 . S
C1364 H1358 0.950 . S
C1364 C1365 1.327 . S
C1365 H1359 0.950 . S
C1365 C1364 1.327 . S
C1365 C1369 1.429 . S
C1366 C1349 1.574 . S
C1366 H1360 0.949 . S
C1366 C1370 1.368 . S
C1367 C1348 1.429 . S
C1367 C1361 1.429 . S
C1367 C1368 1.523 . S
C1368 C1349 1.368 . S
C1368 C1362 1.368 . S
C1368 C1367 1.523 . S
C1369 C1353 1.429 . S
C1369 C1365 1.429 . S
C1369 C1370 1.523 1_455 S
C1370 C1354 1.368 . S
C1370 C1366 1.368 . S
C1370 C1369 1.523 1_655 S
H1371 C1346 0.950 . S
H1372 C1348 0.950 . S
H1373 C1349 0.949 . S
H1374 C1351 0.950 . S
H1375 C1353 0.950 . S
C1376 C1377 1.349 . S
C1376 C1378 1.327 . S
C1376 H1401 0.950 . S
C1377 C1376 1.349 . S
C1377 C1393 1.349 . S
C1378 C1376 1.327 . S
C1378 C1397 1.429 . S
C1378 H1402 0.950 . S
C1379 C1396 1.574 . S
C1379 C1398 1.368 . S
C1379 H1403 0.949 . S
H1380 C1384 0.949 . S
C1381 C1382 1.349 . S
C1381 C1383 1.327 . S
C1381 H1404 0.950 . S
C1382 C1381 1.349 . S
C1382 C1394 1.349 . S
C1383 C1381 1.327 . S
C1383 C1399 1.429 . S
C1383 H1405 0.950 . S
C1384 H1380 0.949 . S
C1384 C1392 1.574 . S
C1384 C1400 1.368 . S
H1385 C1393 0.950 . S
H1386 C1391 0.950 . S
H1387 C1392 0.949 . S
H1388 C1394 0.950 . S
H1389 C1395 0.950 . S
H1390 C1396 0.949 . S
C1391 H1386 0.950 . S
C1391 C1393 1.327 . S
C1391 C1397 1.429 . S
C1392 C1384 1.574 . S
C1392 H1387 0.949 . S
C1392 C1398 1.368 . S
C1393 C1377 1.349 . S
C1393 H1385 0.950 . S
C1393 C1391 1.327 . S
C1394 C1382 1.349 . S
C1394 H1388 0.950 . S
C1394 C1395 1.327 . S
C1395 H1389 0.950 . S
C1395 C1394 1.327 . S
C1395 C1399 1.429 . S
C1396 C1379 1.574 . S
C1396 H1390 0.949 . S
C1396 C1400 1.368 . S
C1397 C1378 1.429 . S
C1397 C1391 1.429 . S
C1397 C1398 1.523 . S
C1398 C1379 1.368 . S
C1398 C1392 1.368 . S
C1398 C1397 1.523 . S
C1399 C1383 1.429 . S
C1399 C1395 1.429 . S
C1399 C1400 1.523 . S
C1400 C1384 1.368 . S
C1400 C1396 1.368 . S
C1400 C1399 1.523 . S
H1401 C1376 0.950 . S
H1402 C1378 0.950 . S
H1403 C1379 0.949 . S
H1404 C1381 0.950 . S
H1405 C1383 0.950 . S
C1406 C1407 1.349 . S
C1406 C1408 1.327 . S
C1406 H1431 0.950 . S
C1407 C1406 1.349 . S
C1407 C1423 1.349 . S
C1408 C1406 1.327 . S
C1408 C1427 1.429 . S
C1408 H1432 0.950 . S
C1409 C1426 1.574 . S
C1409 C1428 1.368 . S
C1409 H1433 0.949 . S
H1410 C1414 0.949 . S
C1411 C1412 1.349 . S
C1411 C1413 1.327 . S
C1411 H1434 0.950 . S
C1412 C1411 1.349 . S
C1412 C1424 1.349 . S
C1413 C1411 1.327 . S
C1413 C1429 1.429 . S
C1413 H1435 0.950 . S
C1414 H1410 0.949 . S
C1414 C1422 1.574 . S
C1414 C1430 1.368 . S
H1415 C1423 0.950 . S
H1416 C1421 0.950 . S
H1417 C1422 0.949 . S
H1418 C1424 0.950 . S
H1419 C1425 0.950 . S
H1420 C1426 0.949 . S
C1421 H1416 0.950 . S
C1421 C1423 1.327 . S
C1421 C1427 1.429 . S
C1422 C1414 1.574 . S
C1422 H1417 0.949 . S
C1422 C1428 1.368 . S
C1423 C1407 1.349 . S
C1423 H1415 0.950 . S
C1423 C1421 1.327 . S
C1424 C1412 1.349 . S
C1424 H1418 0.950 . S
C1424 C1425 1.327 . S
C1425 H1419 0.950 . S
C1425 C1424 1.327 . S
C1425 C1429 1.429 . S
C1426 C1409 1.574 . S
C1426 H1420 0.949 . S
C1426 C1430 1.368 . S
C1427 C1408 1.429 . S
C1427 C1421 1.429 . S
C1427 C1428 1.523 . S
C1428 C1409 1.368 . S
C1428 C1422 1.368 . S
C1428 C1427 1.523 . S
C1429 C1413 1.429 . S
C1429 C1425 1.429 . S
C1429 C1430 1.523 . S
C1430 C1414 1.368 . S
C1430 C1426 1.368 . S
C1430 C1429 1.523 . S
H1431 C1406 0.950 . S
H1432 C1408 0.950 . S
H1433 C1409 0.949 . S
H1434 C1411 0.950 . S
H1435 C1413 0.950 . S
C1436 C1437 1.349 . S
C1436 C1438 1.327 . S
C1436 H1461 0.950 . S
C1437 C1436 1.349 . S
C1437 C1453 1.349 . S
C1438 C1436 1.327 . S
C1438 C1457 1.429 . S
C1438 H1462 0.950 . S
C1439 C1456 1.574 . S
C1439 C1458 1.368 . S
C1439 H1463 0.949 . S
H1440 C1444 0.949 . S
C1441 C1442 1.349 . S
C1441 C1443 1.327 . S
C1441 H1464 0.950 . S
C1442 C1441 1.349 . S
C1442 C1454 1.349 . S
C1443 C1441 1.327 . S
C1443 C1459 1.429 . S
C1443 H1465 0.950 . S
C1444 H1440 0.949 . S
C1444 C1452 1.574 . S
C1444 C1460 1.368 . S
H1445 C1453 0.950 . S
H1446 C1451 0.950 . S
H1447 C1452 0.949 . S
H1448 C1454 0.950 . S
H1449 C1455 0.950 . S
H1450 C1456 0.949 . S
C1451 H1446 0.950 . S
C1451 C1453 1.327 . S
C1451 C1457 1.429 . S
C1452 C1444 1.574 . S
C1452 H1447 0.949 . S
C1452 C1458 1.368 . S
C1453 C1437 1.349 . S
C1453 H1445 0.950 . S
C1453 C1451 1.327 . S
C1454 C1442 1.349 . S
C1454 H1448 0.950 . S
C1454 C1455 1.327 . S
C1455 H1449 0.950 . S
C1455 C1454 1.327 . S
C1455 C1459 1.429 . S
C1456 C1439 1.574 . S
C1456 H1450 0.949 . S
C1456 C1460 1.368 . S
C1457 C1438 1.429 . S
C1457 C1451 1.429 . S
C1457 C1458 1.523 . S
C1458 C1439 1.368 . S
C1458 C1452 1.368 . S
C1458 C1457 1.523 . S
C1459 C1443 1.429 . S
C1459 C1455 1.429 . S
C1459 C1460 1.523 . S
C1460 C1444 1.368 . S
C1460 C1456 1.368 . S
C1460 C1459 1.523 . S
H1461 C1436 0.950 . S
H1462 C1438 0.950 . S
H1463 C1439 0.949 . S
H1464 C1441 0.950 . S
H1465 C1443 0.950 . S
C1466 C1467 1.349 . S
C1466 C1468 1.327 . S
C1466 H1491 0.950 . S
C1467 C1466 1.349 . S
C1467 C1483 1.349 . S
C1468 C1466 1.327 . S
C1468 C1487 1.429 . S
C1468 H1492 0.950 . S
C1469 C1486 1.574 . S
C1469 C1488 1.368 . S
C1469 H1493 0.949 . S
H1470 C1474 0.949 . S
C1471 C1472 1.349 . S
C1471 C1473 1.327 . S
C1471 H1494 0.950 . S
C1472 C1471 1.349 . S
C1472 C1484 1.349 . S
C1473 C1471 1.327 . S
C1473 C1489 1.429 . S
C1473 H1495 0.950 . S
C1474 H1470 0.949 . S
C1474 C1482 1.574 . S
C1474 C1490 1.368 . S
H1475 C1483 0.950 . S
H1476 C1481 0.950 . S
H1477 C1482 0.949 . S
H1478 C1484 0.950 . S
H1479 C1485 0.950 . S
H1480 C1486 0.949 . S
C1481 H1476 0.950 . S
C1481 C1483 1.327 . S
C1481 C1487 1.429 . S
C1482 C1474 1.574 . S
C1482 H1477 0.949 . S
C1482 C1488 1.368 . S
C1483 C1467 1.349 . S
C1483 H1475 0.950 . S
C1483 C1481 1.327 . S
C1484 C1472 1.349 . S
C1484 H1478 0.950 . S
C1484 C1485 1.327 . S
C1485 H1479 0.950 . S
C1485 C1484 1.327 . S
C1485 C1489 1.429 . S
C1486 C1469 1.574 . S
C1486 H1480 0.949 . S
C1486 C1490 1.368 . S
C1487 C1468 1.429 . S
C1487 C1481 1.429 . S
C1487 C1488 1.523 . S
C1488 C1469 1.368 . S
C1488 C1482 1.368 . S
C1488 C1487 1.523 . S
C1489 C1473 1.429 . S
C1489 C1485 1.429 . S
C1489 C1490 1.523 1_455 S
C1490 C1474 1.368 . S
C1490 C1486 1.368 . S
C1490 C1489 1.523 1_655 S
H1491 C1466 0.950 . S
H1492 C1468 0.950 . S
H1493 C1469 0.949 . S
H1494 C1471 0.950 . S
H1495 C1473 0.950 . S
C1496 C1497 1.349 . S
C1496 C1498 1.327 . S
C1496 H1521 0.950 . S
C1497 C1496 1.349 . S
C1497 C1513 1.349 . S
C1498 C1496 1.327 . S
C1498 C1517 1.429 . S
C1498 H1522 0.950 . S
C1499 C1516 1.574 . S
C1499 C1518 1.368 . S
C1499 H1523 0.949 . S
H1500 C1504 0.949 . S
C1501 C1502 1.349 . S
C1501 C1503 1.327 . S
C1501 H1524 0.950 . S
C1502 C1501 1.349 . S
C1502 C1514 1.349 . S
C1503 C1501 1.327 . S
C1503 C1519 1.429 . S
C1503 H1525 0.950 . S
C1504 H1500 0.949 . S
C1504 C1512 1.574 . S
C1504 C1520 1.368 . S
H1505 C1513 0.950 . S
H1506 C1511 0.950 . S
H1507 C1512 0.949 . S
H1508 C1514 0.950 . S
H1509 C1515 0.950 . S
H1510 C1516 0.949 . S
C1511 H1506 0.950 . S
C1511 C1513 1.327 . S
C1511 C1517 1.429 . S
C1512 C1504 1.574 . S
C1512 H1507 0.949 . S
C1512 C1518 1.368 . S
C1513 C1497 1.349 . S
C1513 H1505 0.950 . S
C1513 C1511 1.327 . S
C1514 C1502 1.349 . S
C1514 H1508 0.950 . S
C1514 C1515 1.327 . S
C1515 H1509 0.950 . S
C1515 C1514 1.327 . S
C1515 C1519 1.429 . S
C1516 C1499 1.574 . S
C1516 H1510 0.949 . S
C1516 C1520 1.368 . S
C1517 C1498 1.429 . S
C1517 C1511 1.429 . S
C1517 C1518 1.523 . S
C1518 C1499 1.368 . S
C1518 C1512 1.368 . S
C1518 C1517 1.523 . S
C1519 C1503 1.429 . S
C1519 C1515 1.429 . S
C1519 C1520 1.523 . S
C1520 C1504 1.368 . S
C1520 C1516 1.368 . S
C1520 C1519 1.523 . S
H1521 C1496 0.950 . S
H1522 C1498 0.950 . S
H1523 C1499 0.949 . S
H1524 C1501 0.950 . S
H1525 C1503 0.950 . S
C1526 C1527 1.349 . S
C1526 C1528 1.327 . S
C1526 H1551 0.950 . S
C1527 C1526 1.349 . S
C1527 C1543 1.349 . S
C1528 C1526 1.327 . S
C1528 C1547 1.429 . S
C1528 H1552 0.950 . S
C1529 C1546 1.574 . S
C1529 C1548 1.368 . S
C1529 H1553 0.949 . S
H1530 C1534 0.949 . S
C1531 C1532 1.349 . S
C1531 C1533 1.327 . S
C1531 H1554 0.950 . S
C1532 C1531 1.349 . S
C1532 C1544 1.349 . S
C1533 C1531 1.327 . S
C1533 C1549 1.429 . S
C1533 H1555 0.950 . S
C1534 H1530 0.949 . S
C1534 C1542 1.574 . S
C1534 C1550 1.368 . S
H1535 C1543 0.950 . S
H1536 C1541 0.950 . S
H1537 C1542 0.949 . S
H1538 C1544 0.950 . S
H1539 C1545 0.950 . S
H1540 C1546 0.949 . S
C1541 H1536 0.950 . S
C1541 C1543 1.327 . S
C1541 C1547 1.429 . S
C1542 C1534 1.574 . S
C1542 H1537 0.949 . S
C1542 C1548 1.368 . S
C1543 C1527 1.349 . S
C1543 H1535 0.950 . S
C1543 C1541 1.327 . S
C1544 C1532 1.349 . S
C1544 H1538 0.950 . S
C1544 C1545 1.327 . S
C1545 H1539 0.950 . S
C1545 C1544 1.327 . S
C1545 C1549 1.429 . S
C1546 C1529 1.574 . S
C1546 H1540 0.949 . S
C1546 C1550 1.368 . S
C1547 C1528 1.429 . S
C1547 C1541 1.429 . S
C1547 C1548 1.523 1_455 S
C1548 C1529 1.368 . S
C1548 C1542 1.368 . S
C1548 C1547 1.523 1_655 S
C1549 C1533 1.429 . S
C1549 C1545 1.429 . S
C1549 C1550 1.523 . S
C1550 C1534 1.368 . S
C1550 C1546 1.368 . S
C1550 C1549 1.523 . S
H1551 C1526 0.950 . S
H1552 C1528 0.950 . S
H1553 C1529 0.949 . S
H1554 C1531 0.950 . S
H1555 C1533 0.950 . S
C1556 C1557 1.349 . S
C1556 C1558 1.327 . S
C1556 H1581 0.950 . S
C1557 C1556 1.349 . S
C1557 C1573 1.349 . S
C1558 C1556 1.327 . S
C1558 C1577 1.429 . S
C1558 H1582 0.950 . S
C1559 C1576 1.574 . S
C1559 C1578 1.368 . S
C1559 H1583 0.949 . S
H1560 C1564 0.949 . S
C1561 C1562 1.349 . S
C1561 C1563 1.327 . S
C1561 H1584 0.950 . S
C1562 C1561 1.349 . S
C1562 C1574 1.349 . S
C1563 C1561 1.327 . S
C1563 C1579 1.429 . S
C1563 H1585 0.950 . S
C1564 H1560 0.949 . S
C1564 C1572 1.574 . S
C1564 C1580 1.368 . S
H1565 C1573 0.950 . S
H1566 C1571 0.950 . S
H1567 C1572 0.949 . S
H1568 C1574 0.950 . S
H1569 C1575 0.950 . S
H1570 C1576 0.949 . S
C1571 H1566 0.950 . S
C1571 C1573 1.327 . S
C1571 C1577 1.429 . S
C1572 C1564 1.574 . S
C1572 H1567 0.949 . S
C1572 C1578 1.368 . S
C1573 C1557 1.349 . S
C1573 H1565 0.950 . S
C1573 C1571 1.327 . S
C1574 C1562 1.349 . S
C1574 H1568 0.950 . S
C1574 C1575 1.327 . S
C1575 H1569 0.950 . S
C1575 C1574 1.327 . S
C1575 C1579 1.429 . S
C1576 C1559 1.574 . S
C1576 H1570 0.949 . S
C1576 C1580 1.368 . S
C1577 C1558 1.429 . S
C1577 C1571 1.429 . S
C1577 C1578 1.523 . S
C1578 C1559 1.368 . S
C1578 C1572 1.368 . S
C1578 C1577 1.523 . S
C1579 C1563 1.429 . S
C1579 C1575 1.429 . S
C1579 C1580 1.523 . S
C1580 C1564 1.368 . S
C1580 C1576 1.368 . S
C1580 C1579 1.523 . S
H1581 C1556 0.950 . S
H1582 C1558 0.950 . S
H1583 C1559 0.949 . S
H1584 C1561 0.950 . S
H1585 C1563 0.950 . S
C1586 C1587 1.349 . S
C1586 C1588 1.327 . S
C1586 H1611 0.950 . S
C1587 C1586 1.349 . S
C1587 C1603 1.349 . S
C1588 C1586 1.327 . S
C1588 C1607 1.429 . S
C1588 H1612 0.950 . S
C1589 C1606 1.574 . S
C1589 C1608 1.368 . S
C1589 H1613 0.949 . S
H1590 C1594 0.949 . S
C1591 C1592 1.349 . S
C1591 C1593 1.327 . S
C1591 H1614 0.950 . S
C1592 C1591 1.349 . S
C1592 C1604 1.349 . S
C1593 C1591 1.327 . S
C1593 C1609 1.429 . S
C1593 H1615 0.950 . S
C1594 H1590 0.949 . S
C1594 C1602 1.574 . S
C1594 C1610 1.368 . S
H1595 C1603 0.950 . S
H1596 C1601 0.950 . S
H1597 C1602 0.949 . S
H1598 C1604 0.950 . S
H1599 C1605 0.950 . S
H1600 C1606 0.949 . S
C1601 H1596 0.950 . S
C1601 C1603 1.327 . S
C1601 C1607 1.429 . S
C1602 C1594 1.574 . S
C1602 H1597 0.949 . S
C1602 C1608 1.368 . S
C1603 C1587 1.349 . S
C1603 H1595 0.950 . S
C1603 C1601 1.327 . S
C1604 C1592 1.349 . S
C1604 H1598 0.950 . S
C1604 C1605 1.327 . S
C1605 H1599 0.950 . S
C1605 C1604 1.327 . S
C1605 C1609 1.429 . S
C1606 C1589 1.574 . S
C1606 H1600 0.949 . S
C1606 C1610 1.368 . S
C1607 C1588 1.429 . S
C1607 C1601 1.429 . S
C1607 C1608 1.523 . S
C1608 C1589 1.368 . S
C1608 C1602 1.368 . S
C1608 C1607 1.523 . S
C1609 C1593 1.429 . S
C1609 C1605 1.429 . S
C1609 C1610 1.523 . S
C1610 C1594 1.368 . S
C1610 C1606 1.368 . S
C1610 C1609 1.523 . S
H1611 C1586 0.950 . S
H1612 C1588 0.950 . S
H1613 C1589 0.949 . S
H1614 C1591 0.950 . S
H1615 C1593 0.950 . S
C1616 C1617 1.349 . S
C1616 C1618 1.327 . S
C1616 H1641 0.950 . S
C1617 C1616 1.349 . S
C1617 C1633 1.349 . S
C1618 C1616 1.327 . S
C1618 C1637 1.429 . S
C1618 H1642 0.950 . S
C1619 C1636 1.574 . S
C1619 C1638 1.368 . S
C1619 H1643 0.949 . S
H1620 C1624 0.949 . S
C1621 C1622 1.349 . S
C1621 C1623 1.327 . S
C1621 H1644 0.950 . S
C1622 C1621 1.349 . S
C1622 C1634 1.349 . S
C1623 C1621 1.327 . S
C1623 C1639 1.429 . S
C1623 H1645 0.950 . S
C1624 H1620 0.949 . S
C1624 C1632 1.574 . S
C1624 C1640 1.368 . S
H1625 C1633 0.950 . S
H1626 C1631 0.950 . S
H1627 C1632 0.949 . S
H1628 C1634 0.950 . S
H1629 C1635 0.950 . S
H1630 C1636 0.949 . S
C1631 H1626 0.950 . S
C1631 C1633 1.327 . S
C1631 C1637 1.429 . S
C1632 C1624 1.574 . S
C1632 H1627 0.949 . S
C1632 C1638 1.368 . S
C1633 C1617 1.349 . S
C1633 H1625 0.950 . S
C1633 C1631 1.327 . S
C1634 C1622 1.349 . S
C1634 H1628 0.950 . S
C1634 C1635 1.327 . S
C1635 H1629 0.950 . S
C1635 C1634 1.327 . S
C1635 C1639 1.429 . S
C1636 C1619 1.574 . S
C1636 H1630 0.949 . S
C1636 C1640 1.368 . S
C1637 C1618 1.429 . S
C1637 C1631 1.429 . S
C1637 C1638 1.523 . S
C1638 C1619 1.368 . S
C1638 C1632 1.368 . S
C1638 C1637 1.523 . S
C1639 C1623 1.429 . S
C1639 C1635 1.429 . S
C1639 C1640 1.523 . S
C1640 C1624 1.368 . S
C1640 C1636 1.368 . S
C1640 C1639 1.523 . S
H1641 C1616 0.950 . S
H1642 C1618 0.950 . S
H1643 C1619 0.949 . S
H1644 C1621 0.950 . S
H1645 C1623 0.950 . S
C1646 C1647 1.349 . S
C1646 C1648 1.327 . S
C1646 H1671 0.950 . S
C1647 C1646 1.349 . S
C1647 C1663 1.349 . S
C1648 C1646 1.327 . S
C1648 C1667 1.429 . S
C1648 H1672 0.950 . S
C1649 C1666 1.574 . S
C1649 C1668 1.368 . S
C1649 H1673 0.949 . S
H1650 C1654 0.949 . S
C1651 C1652 1.349 . S
C1651 C1653 1.327 . S
C1651 H1674 0.950 . S
C1652 C1651 1.349 . S
C1652 C1664 1.349 . S
C1653 C1651 1.327 . S
C1653 C1669 1.429 . S
C1653 H1675 0.950 . S
C1654 H1650 0.949 . S
C1654 C1662 1.574 . S
C1654 C1670 1.368 . S
H1655 C1663 0.950 . S
H1656 C1661 0.950 . S
H1657 C1662 0.949 . S
H1658 C1664 0.950 . S
H1659 C1665 0.950 . S
H1660 C1666 0.949 . S
C1661 H1656 0.950 . S
C1661 C1663 1.327 . S
C1661 C1667 1.429 . S
C1662 C1654 1.574 . S
C1662 H1657 0.949 . S
C1662 C1668 1.368 . S
C1663 C1647 1.349 . S
C1663 H1655 0.950 . S
C1663 C1661 1.327 . S
C1664 C1652 1.349 . S
C1664 H1658 0.950 . S
C1664 C1665 1.327 . S
C1665 H1659 0.950 . S
C1665 C1664 1.327 . S
C1665 C1669 1.429 . S
C1666 C1649 1.574 . S
C1666 H1660 0.949 . S
C1666 C1670 1.368 . S
C1667 C1648 1.429 . S
C1667 C1661 1.429 . S
C1667 C1668 1.523 . S
C1668 C1649 1.368 . S
C1668 C1662 1.368 . S
C1668 C1667 1.523 . S
C1669 C1653 1.429 . S
C1669 C1665 1.429 . S
C1669 C1670 1.523 . S
C1670 C1654 1.368 . S
C1670 C1666 1.368 . S
C1670 C1669 1.523 . S
H1671 C1646 0.950 . S
H1672 C1648 0.950 . S
H1673 C1649 0.949 . S
H1674 C1651 0.950 . S
H1675 C1653 0.950 . S
C1676 C1677 1.349 . S
C1676 C1678 1.327 . S
C1676 H1701 0.950 . S
C1677 C1676 1.349 . S
C1677 C1693 1.349 . S
C1678 C1676 1.327 . S
C1678 C1697 1.429 . S
C1678 H1702 0.950 . S
C1679 C1696 1.574 . S
C1679 C1698 1.368 . S
C1679 H1703 0.949 . S
H1680 C1684 0.949 . S
C1681 C1682 1.349 . S
C1681 C1683 1.327 . S
C1681 H1704 0.950 . S
C1682 C1681 1.349 . S
C1682 C1694 1.349 . S
C1683 C1681 1.327 . S
C1683 C1699 1.429 . S
C1683 H1705 0.950 . S
C1684 H1680 0.949 . S
C1684 C1692 1.574 . S
C1684 C1700 1.368 . S
H1685 C1693 0.950 . S
H1686 C1691 0.950 . S
H1687 C1692 0.949 . S
H1688 C1694 0.950 . S
H1689 C1695 0.950 . S
H1690 C1696 0.949 . S
C1691 H1686 0.950 . S
C1691 C1693 1.327 . S
C1691 C1697 1.429 . S
C1692 C1684 1.574 . S
C1692 H1687 0.949 . S
C1692 C1698 1.368 . S
C1693 C1677 1.349 . S
C1693 H1685 0.950 . S
C1693 C1691 1.327 . S
C1694 C1682 1.349 . S
C1694 H1688 0.950 . S
C1694 C1695 1.327 . S
C1695 H1689 0.950 . S
C1695 C1694 1.327 . S
C1695 C1699 1.429 . S
C1696 C1679 1.574 . S
C1696 H1690 0.949 . S
C1696 C1700 1.368 . S
C1697 C1678 1.429 . S
C1697 C1691 1.429 . S
C1697 C1698 1.523 . S
C1698 C1679 1.368 . S
C1698 C1692 1.368 . S
C1698 C1697 1.523 . S
C1699 C1683 1.429 . S
C1699 C1695 1.429 . S
C1699 C1700 1.523 . S
C1700 C1684 1.368 . S
C1700 C1696 1.368 . S
C1700 C1699 1.523 . S
H1701 C1676 0.950 . S
H1702 C1678 0.950 . S
H1703 C1679 0.949 . S
H1704 C1681 0.950 . S
H1705 C1683 0.950 . S
C1706 C1707 1.349 . S
C1706 C1708 1.327 . S
C1706 H1731 0.950 . S
C1707 C1706 1.349 . S
C1707 C1723 1.349 . S
C1708 C1706 1.327 . S
C1708 C1727 1.429 . S
C1708 H1732 0.950 . S
C1709 C1726 1.574 . S
C1709 C1728 1.368 . S
C1709 H1733 0.949 . S
H1710 C1714 0.949 . S
C1711 C1712 1.349 . S
C1711 C1713 1.327 . S
C1711 H1734 0.950 . S
C1712 C1711 1.349 . S
C1712 C1724 1.349 . S
C1713 C1711 1.327 . S
C1713 C1729 1.429 . S
C1713 H1735 0.950 . S
C1714 H1710 0.949 . S
C1714 C1722 1.574 . S
C1714 C1730 1.368 . S
H1715 C1723 0.950 . S
H1716 C1721 0.950 . S
H1717 C1722 0.949 . S
H1718 C1724 0.950 . S
H1719 C1725 0.950 . S
H1720 C1726 0.949 . S
C1721 H1716 0.950 . S
C1721 C1723 1.327 . S
C1721 C1727 1.429 . S
C1722 C1714 1.574 . S
C1722 H1717 0.949 . S
C1722 C1728 1.368 . S
C1723 C1707 1.349 . S
C1723 H1715 0.950 . S
C1723 C1721 1.327 . S
C1724 C1712 1.349 . S
C1724 H1718 0.950 . S
C1724 C1725 1.327 . S
C1725 H1719 0.950 . S
C1725 C1724 1.327 . S
C1725 C1729 1.429 . S
C1726 C1709 1.574 . S
C1726 H1720 0.949 . S
C1726 C1730 1.368 . S
C1727 C1708 1.429 . S
C1727 C1721 1.429 . S
C1727 C1728 1.523 . S
C1728 C1709 1.368 . S
C1728 C1722 1.368 . S
C1728 C1727 1.523 . S
C1729 C1713 1.429 . S
C1729 C1725 1.429 . S
C1729 C1730 1.523 1_655 S
C1730 C1714 1.368 . S
C1730 C1726 1.368 . S
C1730 C1729 1.523 1_455 S
H1731 C1706 0.950 . S
H1732 C1708 0.950 . S
H1733 C1709 0.949 . S
H1734 C1711 0.950 . S
H1735 C1713 0.950 . S
C1736 C1737 1.349 . S
C1736 C1738 1.327 . S
C1736 H1761 0.950 . S
C1737 C1736 1.349 . S
C1737 C1753 1.349 . S
C1738 C1736 1.327 . S
C1738 C1757 1.429 . S
C1738 H1762 0.950 . S
C1739 C1756 1.574 . S
C1739 C1758 1.368 . S
C1739 H1763 0.949 . S
H1740 C1744 0.949 . S
C1741 C1742 1.349 . S
C1741 C1743 1.327 . S
C1741 H1764 0.950 . S
C1742 C1741 1.349 . S
C1742 C1754 1.349 . S
C1743 C1741 1.327 . S
C1743 C1759 1.429 . S
C1743 H1765 0.950 . S
C1744 H1740 0.949 . S
C1744 C1752 1.574 . S
C1744 C1760 1.368 . S
H1745 C1753 0.950 . S
H1746 C1751 0.950 . S
H1747 C1752 0.949 . S
H1748 C1754 0.950 . S
H1749 C1755 0.950 . S
H1750 C1756 0.949 . S
C1751 H1746 0.950 . S
C1751 C1753 1.327 . S
C1751 C1757 1.429 . S
C1752 C1744 1.574 . S
C1752 H1747 0.949 . S
C1752 C1758 1.368 . S
C1753 C1737 1.349 . S
C1753 H1745 0.950 . S
C1753 C1751 1.327 . S
C1754 C1742 1.349 . S
C1754 H1748 0.950 . S
C1754 C1755 1.327 . S
C1755 H1749 0.950 . S
C1755 C1754 1.327 . S
C1755 C1759 1.429 . S
C1756 C1739 1.574 . S
C1756 H1750 0.949 . S
C1756 C1760 1.368 . S
C1757 C1738 1.429 . S
C1757 C1751 1.429 . S
C1757 C1758 1.523 . S
C1758 C1739 1.368 . S
C1758 C1752 1.368 . S
C1758 C1757 1.523 . S
C1759 C1743 1.429 . S
C1759 C1755 1.429 . S
C1759 C1760 1.523 . S
C1760 C1744 1.368 . S
C1760 C1756 1.368 . S
C1760 C1759 1.523 . S
H1761 C1736 0.950 . S
H1762 C1738 0.950 . S
H1763 C1739 0.949 . S
H1764 C1741 0.950 . S
H1765 C1743 0.950 . S
C1766 C1767 1.349 . S
C1766 C1768 1.327 . S
C1766 H1791 0.950 . S
C1767 C1766 1.349 . S
C1767 C1783 1.349 . S
C1768 C1766 1.327 . S
C1768 C1787 1.429 . S
C1768 H1792 0.950 . S
C1769 C1786 1.574 . S
C1769 C1788 1.368 . S
C1769 H1793 0.949 . S
H1770 C1774 0.949 . S
C1771 C1772 1.349 . S
C1771 C1773 1.327 . S
C1771 H1794 0.950 . S
C1772 C1771 1.349 . S
C1772 C1784 1.349 . S
C1773 C1771 1.327 . S
C1773 C1789 1.429 . S
C1773 H1795 0.950 . S
C1774 H1770 0.949 . S
C1774 C1782 1.574 . S
C1774 C1790 1.368 . S
H1775 C1783 0.950 . S
H1776 C1781 0.950 . S
H1777 C1782 0.949 . S
H1778 C1784 0.950 . S
H1779 C1785 0.950 . S
H1780 C1786 0.949 . S
C1781 H1776 0.950 . S
C1781 C1783 1.327 . S
C1781 C1787 1.429 . S
C1782 C1774 1.574 . S
C1782 H1777 0.949 . S
C1782 C1788 1.368 . S
C1783 C1767 1.349 . S
C1783 H1775 0.950 . S
C1783 C1781 1.327 . S
C1784 C1772 1.349 . S
C1784 H1778 0.950 . S
C1784 C1785 1.327 . S
C1785 H1779 0.950 . S
C1785 C1784 1.327 . S
C1785 C1789 1.429 . S
C1786 C1769 1.574 . S
C1786 H1780 0.949 . S
C1786 C1790 1.368 . S
C1787 C1768 1.429 . S
C1787 C1781 1.429 . S
C1787 C1788 1.523 1_655 S
C1788 C1769 1.368 . S
C1788 C1782 1.368 . S
C1788 C1787 1.523 1_455 S
C1789 C1773 1.429 . S
C1789 C1785 1.429 . S
C1789 C1790 1.523 . S
C1790 C1774 1.368 . S
C1790 C1786 1.368 . S
C1790 C1789 1.523 . S
H1791 C1766 0.950 . S
H1792 C1768 0.950 . S
H1793 C1769 0.949 . S
H1794 C1771 0.950 . S
H1795 C1773 0.950 . S
C1796 C1797 1.349 . S
C1796 C1798 1.327 . S
C1796 H1821 0.950 . S
C1797 C1796 1.349 . S
C1797 C1813 1.349 . S
C1798 C1796 1.327 . S
C1798 C1817 1.429 . S
C1798 H1822 0.950 . S
C1799 C1816 1.574 . S
C1799 C1818 1.368 . S
C1799 H1823 0.949 . S
H1800 C1804 0.949 . S
C1801 C1802 1.349 . S
C1801 C1803 1.327 . S
C1801 H1824 0.950 . S
C1802 C1801 1.349 . S
C1802 C1814 1.349 . S
C1803 C1801 1.327 . S
C1803 C1819 1.429 . S
C1803 H1825 0.950 . S
C1804 H1800 0.949 . S
C1804 C1812 1.574 . S
C1804 C1820 1.368 . S
H1805 C1813 0.950 . S
H1806 C1811 0.950 . S
H1807 C1812 0.949 . S
H1808 C1814 0.950 . S
H1809 C1815 0.950 . S
H1810 C1816 0.949 . S
C1811 H1806 0.950 . S
C1811 C1813 1.327 . S
C1811 C1817 1.429 . S
C1812 C1804 1.574 . S
C1812 H1807 0.949 . S
C1812 C1818 1.368 . S
C1813 C1797 1.349 . S
C1813 H1805 0.950 . S
C1813 C1811 1.327 . S
C1814 C1802 1.349 . S
C1814 H1808 0.950 . S
C1814 C1815 1.327 . S
C1815 H1809 0.950 . S
C1815 C1814 1.327 . S
C1815 C1819 1.429 . S
C1816 C1799 1.574 . S
C1816 H1810 0.949 . S
C1816 C1820 1.368 . S
C1817 C1798 1.429 . S
C1817 C1811 1.429 . S
C1817 C1818 1.523 . S
C1818 C1799 1.368 . S
C1818 C1812 1.368 . S
C1818 C1817 1.523 . S
C1819 C1803 1.429 . S
C1819 C1815 1.429 . S
C1819 C1820 1.523 . S
C1820 C1804 1.368 . S
C1820 C1816 1.368 . S
C1820 C1819 1.523 . S
H1821 C1796 0.950 . S
H1822 C1798 0.950 . S
H1823 C1799 0.949 . S
H1824 C1801 0.950 . S
H1825 C1803 0.950 . S
C1826 C1827 1.349 . S
C1826 C1828 1.327 . S
C1826 H1851 0.950 . S
C1827 C1826 1.349 . S
C1827 C1843 1.349 . S
C1828 C1826 1.327 . S
C1828 C1847 1.429 . S
C1828 H1852 0.950 . S
C1829 C1846 1.574 . S
C1829 C1848 1.368 . S
C1829 H1853 0.949 . S
H1830 C1834 0.949 . S
C1831 C1832 1.349 . S
C1831 C1833 1.327 . S
C1831 H1854 0.950 . S
C1832 C1831 1.349 . S
C1832 C1844 1.349 . S
C1833 C1831 1.327 . S
C1833 C1849 1.429 . S
C1833 H1855 0.950 . S
C1834 H1830 0.949 . S
C1834 C1842 1.574 . S
C1834 C1850 1.368 . S
H1835 C1843 0.950 . S
H1836 C1841 0.950 . S
H1837 C1842 0.949 . S
H1838 C1844 0.950 . S
H1839 C1845 0.950 . S
H1840 C1846 0.949 . S
C1841 H1836 0.950 . S
C1841 C1843 1.327 . S
C1841 C1847 1.429 . S
C1842 C1834 1.574 . S
C1842 H1837 0.949 . S
C1842 C1848 1.368 . S
C1843 C1827 1.349 . S
C1843 H1835 0.950 . S
C1843 C1841 1.327 . S
C1844 C1832 1.349 . S
C1844 H1838 0.950 . S
C1844 C1845 1.327 . S
C1845 H1839 0.950 . S
C1845 C1844 1.327 . S
C1845 C1849 1.429 . S
C1846 C1829 1.574 . S
C1846 H1840 0.949 . S
C1846 C1850 1.368 . S
C1847 C1828 1.429 . S
C1847 C1841 1.429 . S
C1847 C1848 1.523 . S
C1848 C1829 1.368 . S
C1848 C1842 1.368 . S
C1848 C1847 1.523 . S
C1849 C1833 1.429 . S
C1849 C1845 1.429 . S
C1849 C1850 1.523 . S
C1850 C1834 1.368 . S
C1850 C1846 1.368 . S
C1850 C1849 1.523 . S
H1851 C1826 0.950 . S
H1852 C1828 0.950 . S
H1853 C1829 0.949 . S
H1854 C1831 0.950 . S
H1855 C1833 0.950 . S
C1856 C1857 1.349 . S
C1856 C1858 1.327 . S
C1856 H1881 0.950 . S
C1857 C1856 1.349 . S
C1857 C1873 1.349 . S
C1858 C1856 1.327 . S
C1858 C1877 1.429 . S
C1858 H1882 0.950 . S
C1859 C1876 1.574 . S
C1859 C1878 1.368 . S
C1859 H1883 0.949 . S
H1860 C1864 0.949 . S
C1861 C1862 1.349 . S
C1861 C1863 1.327 . S
C1861 H1884 0.950 . S
C1862 C1861 1.349 . S
C1862 C1874 1.349 . S
C1863 C1861 1.327 . S
C1863 C1879 1.429 . S
C1863 H1885 0.950 . S
C1864 H1860 0.949 . S
C1864 C1872 1.574 . S
C1864 C1880 1.368 . S
H1865 C1873 0.950 . S
H1866 C1871 0.950 . S
H1867 C1872 0.949 . S
H1868 C1874 0.950 . S
H1869 C1875 0.950 . S
H1870 C1876 0.949 . S
C1871 H1866 0.950 . S
C1871 C1873 1.327 . S
C1871 C1877 1.429 . S
C1872 C1864 1.574 . S
C1872 H1867 0.949 . S
C1872 C1878 1.368 . S
C1873 C1857 1.349 . S
C1873 H1865 0.950 . S
C1873 C1871 1.327 . S
C1874 C1862 1.349 . S
C1874 H1868 0.950 . S
C1874 C1875 1.327 . S
C1875 H1869 0.950 . S
C1875 C1874 1.327 . S
C1875 C1879 1.429 . S
C1876 C1859 1.574 . S
C1876 H1870 0.949 . S
C1876 C1880 1.368 . S
C1877 C1858 1.429 . S
C1877 C1871 1.429 . S
C1877 C1878 1.523 . S
C1878 C1859 1.368 . S
C1878 C1872 1.368 . S
C1878 C1877 1.523 . S
C1879 C1863 1.429 . S
C1879 C1875 1.429 . S
C1879 C1880 1.523 . S
C1880 C1864 1.368 . S
C1880 C1876 1.368 . S
C1880 C1879 1.523 . S
H1881 C1856 0.950 . S
H1882 C1858 0.950 . S
H1883 C1859 0.949 . S
H1884 C1861 0.950 . S
H1885 C1863 0.950 . S
C1886 C1887 1.349 . S
C1886 C1888 1.327 . S
C1886 H1911 0.950 . S
C1887 C1886 1.349 . S
C1887 C1903 1.349 . S
C1888 C1886 1.327 . S
C1888 C1907 1.429 . S
C1888 H1912 0.950 . S
C1889 C1906 1.574 . S
C1889 C1908 1.368 . S
C1889 H1913 0.949 . S
H1890 C1894 0.949 . S
C1891 C1892 1.349 . S
C1891 C1893 1.327 1_554 S
C1891 H1914 0.950 . S
C1892 C1891 1.349 . S
C1892 C1904 1.349 1_554 S
C1893 C1891 1.327 1_556 S
C1893 C1909 1.429 . S
C1893 H1915 0.950 . S
C1894 H1890 0.949 . S
C1894 C1902 1.574 . S
C1894 C1910 1.368 . S
H1895 C1903 0.950 . S
H1896 C1901 0.950 . S
H1897 C1902 0.949 . S
H1898 C1904 0.951 . S
H1899 C1905 0.950 . S
H1900 C1906 0.949 . S
C1901 H1896 0.950 . S
C1901 C1903 1.327 . S
C1901 C1907 1.429 . S
C1902 C1894 1.574 . S
C1902 H1897 0.949 . S
C1902 C1908 1.368 . S
C1903 C1887 1.349 . S
C1903 H1895 0.950 . S
C1903 C1901 1.327 . S
C1904 C1892 1.349 1_556 S
C1904 H1898 0.951 . S
C1904 C1905 1.327 . S
C1905 H1899 0.950 . S
C1905 C1904 1.327 . S
C1905 C1909 1.429 . S
C1906 C1889 1.574 . S
C1906 H1900 0.949 . S
C1906 C1910 1.368 . S
C1907 C1888 1.429 . S
C1907 C1901 1.429 . S
C1907 C1908 1.523 . S
C1908 C1889 1.368 . S
C1908 C1902 1.368 . S
C1908 C1907 1.523 . S
C1909 C1893 1.429 . S
C1909 C1905 1.429 . S
C1909 C1910 1.523 . S
C1910 C1894 1.368 . S
C1910 C1906 1.368 . S
C1910 C1909 1.523 . S
H1911 C1886 0.950 . S
H1912 C1888 0.950 . S
H1913 C1889 0.949 . S
H1914 C1891 0.950 . S
H1915 C1893 0.950 . S
C1916 C1917 1.349 1_554 S
C1916 C1918 1.327 . S
C1916 H1941 0.950 1_554 S
C1917 C1916 1.349 1_556 S
C1917 C1933 1.343 1_556 S
C1918 C1916 1.327 . S
C1918 C1937 1.429 . S
C1918 H1942 0.950 . S
C1919 C1936 1.574 . S
C1919 C1938 1.368 . S
C1919 H1943 0.949 . S
H1920 C1924 0.949 . S
C1921 C1922 1.349 . S
C1921 C1923 1.327 . S
C1921 H1944 0.950 . S
C1922 C1921 1.349 . S
C1922 C1934 1.349 . S
C1923 C1921 1.327 . S
C1923 C1939 1.429 . S
C1923 H1945 0.950 . S
C1924 H1920 0.949 . S
C1924 C1932 1.574 . S
C1924 C1940 1.368 . S
H1925 C1933 0.943 1_556 S
H1926 C1931 0.950 . S
H1927 C1932 0.949 . S
H1928 C1934 0.950 . S
H1929 C1935 0.950 . S
H1930 C1936 0.949 . S
C1931 H1926 0.950 . S
C1931 C1933 1.339 . S
C1931 C1937 1.429 . S
C1932 C1924 1.574 . S
C1932 H1927 0.949 . S
C1932 C1938 1.368 . S
C1933 C1917 1.343 1_554 S
C1933 H1925 0.943 1_554 S
C1933 C1931 1.339 . S
C1934 C1922 1.349 . S
C1934 H1928 0.950 . S
C1934 C1935 1.327 . S
C1935 H1929 0.950 . S
C1935 C1934 1.327 . S
C1935 C1939 1.429 . S
C1936 C1919 1.574 . S
C1936 H1930 0.949 . S
C1936 C1940 1.368 . S
C1937 C1918 1.429 . S
C1937 C1931 1.429 . S
C1937 C1938 1.523 . S
C1938 C1919 1.368 . S
C1938 C1932 1.368 . S
C1938 C1937 1.523 . S
C1939 C1923 1.429 . S
C1939 C1935 1.429 . S
C1939 C1940 1.523 . S
C1940 C1924 1.368 . S
C1940 C1936 1.368 . S
C1940 C1939 1.523 . S
H1941 C1916 0.950 1_556 S
H1942 C1918 0.950 . S
H1943 C1919 0.949 . S
H1944 C1921 0.950 . S
H1945 C1923 0.950 . S
C1946 C1947 1.349 . S
C1946 C1948 1.327 . S
C1946 H1971 0.950 . S
C1947 C1946 1.349 . S
C1947 C1963 1.349 . S
C1948 C1946 1.327 . S
C1948 C1967 1.429 . S
C1948 H1972 0.950 . S
C1949 C1966 1.574 . S
C1949 C1968 1.368 . S
C1949 H1973 0.949 . S
H1950 C1954 0.949 . S
C1951 C1952 1.349 . S
C1951 C1953 1.327 . S
C1951 H1974 0.950 . S
C1952 C1951 1.349 . S
C1952 C1964 1.349 . S
C1953 C1951 1.327 . S
C1953 C1969 1.429 . S
C1953 H1975 0.950 . S
C1954 H1950 0.949 . S
C1954 C1962 1.574 . S
C1954 C1970 1.368 . S
H1955 C1963 0.950 . S
H1956 C1961 0.950 . S
H1957 C1962 0.949 . S
H1958 C1964 0.950 . S
H1959 C1965 0.950 . S
H1960 C1966 0.949 . S
C1961 H1956 0.950 . S
C1961 C1963 1.327 . S
C1961 C1967 1.429 . S
C1962 C1954 1.574 . S
C1962 H1957 0.949 . S
C1962 C1968 1.368 . S
C1963 C1947 1.349 . S
C1963 H1955 0.950 . S
C1963 C1961 1.327 . S
C1964 C1952 1.349 . S
C1964 H1958 0.950 . S
C1964 C1965 1.327 . S
C1965 H1959 0.950 . S
C1965 C1964 1.327 . S
C1965 C1969 1.429 . S
C1966 C1949 1.574 . S
C1966 H1960 0.949 . S
C1966 C1970 1.368 . S
C1967 C1948 1.429 . S
C1967 C1961 1.429 . S
C1967 C1968 1.523 . S
C1968 C1949 1.368 . S
C1968 C1962 1.368 . S
C1968 C1967 1.523 . S
C1969 C1953 1.429 . S
C1969 C1965 1.429 . S
C1969 C1970 1.523 . S
C1970 C1954 1.368 . S
C1970 C1966 1.368 . S
C1970 C1969 1.523 . S
H1971 C1946 0.950 . S
H1972 C1948 0.950 . S
H1973 C1949 0.949 . S
H1974 C1951 0.950 . S
H1975 C1953 0.950 . S
C1976 C1977 1.349 . S
C1976 C1978 1.327 . S
C1976 H2001 0.950 . S
C1977 C1976 1.349 . S
C1977 C1993 1.349 . S
C1978 C1976 1.327 . S
C1978 C1997 1.429 . S
C1978 H2002 0.950 . S
C1979 C1996 1.574 . S
C1979 C1998 1.368 . S
C1979 H2003 0.949 . S
H1980 C1984 0.949 . S
C1981 C1982 1.349 . S
C1981 C1983 1.327 . S
C1981 H2004 0.950 . S
C1982 C1981 1.349 . S
C1982 C1994 1.349 . S
C1983 C1981 1.327 . S
C1983 C1999 1.429 . S
C1983 H2005 0.950 . S
C1984 H1980 0.949 . S
C1984 C1992 1.574 . S
C1984 C2000 1.368 . S
H1985 C1993 0.950 . S
H1986 C1991 0.950 . S
H1987 C1992 0.949 . S
H1988 C1994 0.950 . S
H1989 C1995 0.950 . S
H1990 C1996 0.949 . S
C1991 H1986 0.950 . S
C1991 C1993 1.327 . S
C1991 C1997 1.429 . S
C1992 C1984 1.574 . S
C1992 H1987 0.949 . S
C1992 C1998 1.368 . S
C1993 C1977 1.349 . S
C1993 H1985 0.950 . S
C1993 C1991 1.327 . S
C1994 C1982 1.349 . S
C1994 H1988 0.950 . S
C1994 C1995 1.327 . S
C1995 H1989 0.950 . S
C1995 C1994 1.327 . S
C1995 C1999 1.429 . S
C1996 C1979 1.574 . S
C1996 H1990 0.949 . S
C1996 C2000 1.368 . S
C1997 C1978 1.429 . S
C1997 C1991 1.429 . S
C1997 C1998 1.523 . S
C1998 C1979 1.368 . S
C1998 C1992 1.368 . S
C1998 C1997 1.523 . S
C1999 C1983 1.429 . S
C1999 C1995 1.429 . S
C1999 C2000 1.523 . S
C2000 C1984 1.368 . S
C2000 C1996 1.368 . S
C2000 C1999 1.523 . S
H2001 C1976 0.950 . S
H2002 C1978 0.950 . S
H2003 C1979 0.949 . S
H2004 C1981 0.950 . S
H2005 C1983 0.950 . S
C2006 C2007 1.349 1_554 S
C2006 C2008 1.327 . S
C2006 H2031 0.949 . S
C2007 C2006 1.349 1_556 S
C2007 C2023 1.349 . S
C2008 C2006 1.327 . S
C2008 C2027 1.429 . S
C2008 H2032 0.950 . S
C2009 C2026 1.574 . S
C2009 C2028 1.368 . S
C2009 H2033 0.949 . S
H2010 C2014 0.949 . S
C2011 C2012 1.349 . S
C2011 C2013 1.327 . S
C2011 H2034 0.950 . S
C2012 C2011 1.349 . S
C2012 C2024 1.349 . S
C2013 C2011 1.327 . S
C2013 C2029 1.429 . S
C2013 H2035 0.950 . S
C2014 H2010 0.949 . S
C2014 C2022 1.574 . S
C2014 C2030 1.368 . S
H2015 C2023 0.950 . S
H2016 C2021 0.950 . S
H2017 C2022 0.949 . S
H2018 C2024 0.950 . S
H2019 C2025 0.950 . S
H2020 C2026 0.949 . S
C2021 H2016 0.950 . S
C2021 C2023 1.327 1_554 S
C2021 C2027 1.429 . S
C2022 C2014 1.574 . S
C2022 H2017 0.949 . S
C2022 C2028 1.368 . S
C2023 C2007 1.349 . S
C2023 H2015 0.950 . S
C2023 C2021 1.327 1_556 S
C2024 C2012 1.349 . S
C2024 H2018 0.950 . S
C2024 C2025 1.327 . S
C2025 H2019 0.950 . S
C2025 C2024 1.327 . S
C2025 C2029 1.429 . S
C2026 C2009 1.574 . S
C2026 H2020 0.949 . S
C2026 C2030 1.368 . S
C2027 C2008 1.429 . S
C2027 C2021 1.429 . S
C2027 C2028 1.523 . S
C2028 C2009 1.368 . S
C2028 C2022 1.368 . S
C2028 C2027 1.523 . S
C2029 C2013 1.429 . S
C2029 C2025 1.429 . S
C2029 C2030 1.523 . S
C2030 C2014 1.368 . S
C2030 C2026 1.368 . S
C2030 C2029 1.523 . S
H2031 C2006 0.949 . S
H2032 C2008 0.950 . S
H2033 C2009 0.949 . S
H2034 C2011 0.950 . S
H2035 C2013 0.950 . S
C2036 C2037 1.349 . S
C2036 C2038 1.327 . S
C2036 H2061 0.950 . S
C2037 C2036 1.349 . S
C2037 C2053 1.349 . S
C2038 C2036 1.327 . S
C2038 C2057 1.429 . S
C2038 H2062 0.950 . S
C2039 C2056 1.574 . S
C2039 C2058 1.368 . S
C2039 H2063 0.949 . S
H2040 C2044 0.949 . S
C2041 C2042 1.349 1_556 S
C2041 C2043 1.327 . S
C2041 H2064 0.950 1_556 S
C2042 C2041 1.349 1_554 S
C2042 C2054 1.349 . S
C2043 C2041 1.327 . S
C2043 C2059 1.429 . S
C2043 H2065 0.950 . S
C2044 H2040 0.949 . S
C2044 C2052 1.574 . S
C2044 C2060 1.368 . S
H2045 C2053 0.950 . S
H2046 C2051 0.950 . S
H2047 C2052 0.949 . S
H2048 C2054 0.950 . S
H2049 C2055 0.950 . S
H2050 C2056 0.949 . S
C2051 H2046 0.950 . S
C2051 C2053 1.327 . S
C2051 C2057 1.429 . S
C2052 C2044 1.574 . S
C2052 H2047 0.949 . S
C2052 C2058 1.368 . S
C2053 C2037 1.349 . S
C2053 H2045 0.950 . S
C2053 C2051 1.327 . S
C2054 C2042 1.349 . S
C2054 H2048 0.950 . S
C2054 C2055 1.327 1_554 S
C2055 H2049 0.950 . S
C2055 C2054 1.327 1_556 S
C2055 C2059 1.429 . S
C2056 C2039 1.574 . S
C2056 H2050 0.949 . S
C2056 C2060 1.368 . S
C2057 C2038 1.429 . S
C2057 C2051 1.429 . S
C2057 C2058 1.523 . S
C2058 C2039 1.368 . S
C2058 C2052 1.368 . S
C2058 C2057 1.523 . S
C2059 C2043 1.429 . S
C2059 C2055 1.429 . S
C2059 C2060 1.523 . S
C2060 C2044 1.368 . S
C2060 C2056 1.368 . S
C2060 C2059 1.523 . S
H2061 C2036 0.950 . S
H2062 C2038 0.950 . S
H2063 C2039 0.949 . S
H2064 C2041 0.950 1_554 S
H2065 C2043 0.950 . S
C2066 C2067 1.349 . S
C2066 C2068 1.327 . S
C2066 H2091 0.950 . S
C2067 C2066 1.349 . S
C2067 C2083 1.349 . S
C2068 C2066 1.327 . S
C2068 C2087 1.429 . S
C2068 H2092 0.950 . S
C2069 C2086 1.574 . S
C2069 C2088 1.368 . S
C2069 H2093 0.949 . S
H2070 C2074 0.949 . S
C2071 C2072 1.349 . S
C2071 C2073 1.327 . S
C2071 H2094 0.950 . S
C2072 C2071 1.349 . S
C2072 C2084 1.349 . S
C2073 C2071 1.327 . S
C2073 C2089 1.429 . S
C2073 H2095 0.950 . S
C2074 H2070 0.949 . S
C2074 C2082 1.574 . S
C2074 C2090 1.368 . S
H2075 C2083 0.950 . S
H2076 C2081 0.950 . S
H2077 C2082 0.949 . S
H2078 C2084 0.950 . S
H2079 C2085 0.950 . S
H2080 C2086 0.949 . S
C2081 H2076 0.950 . S
C2081 C2083 1.327 . S
C2081 C2087 1.429 . S
C2082 C2074 1.574 . S
C2082 H2077 0.949 . S
C2082 C2088 1.368 . S
C2083 C2067 1.349 . S
C2083 H2075 0.950 . S
C2083 C2081 1.327 . S
C2084 C2072 1.349 . S
C2084 H2078 0.950 . S
C2084 C2085 1.327 . S
C2085 H2079 0.950 . S
C2085 C2084 1.327 . S
C2085 C2089 1.429 . S
C2086 C2069 1.574 . S
C2086 H2080 0.949 . S
C2086 C2090 1.368 . S
C2087 C2068 1.429 . S
C2087 C2081 1.429 . S
C2087 C2088 1.523 . S
C2088 C2069 1.368 . S
C2088 C2082 1.368 . S
C2088 C2087 1.523 . S
C2089 C2073 1.429 . S
C2089 C2085 1.429 . S
C2089 C2090 1.523 . S
C2090 C2074 1.368 . S
C2090 C2086 1.368 . S
C2090 C2089 1.523 . S
H2091 C2066 0.950 . S
H2092 C2068 0.950 . S
H2093 C2069 0.949 . S
H2094 C2071 0.950 . S
H2095 C2073 0.950 . S
C2096 C2097 1.349 1_554 S
C2096 C2098 1.327 . S
C2096 H2121 0.950 1_554 S
C2097 C2096 1.349 1_556 S
C2097 C2113 1.349 . S
C2098 C2096 1.327 . S
C2098 C2117 1.429 . S
C2098 H2122 0.950 . S
C2099 C2116 1.574 . S
C2099 C2118 1.368 . S
C2099 H2123 0.949 . S
H2100 C2104 0.949 . S
C2101 C2102 1.349 . S
C2101 C2103 1.327 . S
C2101 H2124 0.950 . S
C2102 C2101 1.349 . S
C2102 C2114 1.349 . S
C2103 C2101 1.327 . S
C2103 C2119 1.429 . S
C2103 H2125 0.950 . S
C2104 H2100 0.949 . S
C2104 C2112 1.574 . S
C2104 C2120 1.368 . S
H2105 C2113 0.950 . S
H2106 C2111 0.950 . S
H2107 C2112 0.949 . S
H2108 C2114 0.950 . S
H2109 C2115 0.950 . S
H2110 C2116 0.949 . S
C2111 H2106 0.950 . S
C2111 C2113 1.327 1_554 S
C2111 C2117 1.429 . S
C2112 C2104 1.574 . S
C2112 H2107 0.949 . S
C2112 C2118 1.368 . S
C2113 C2097 1.349 . S
C2113 H2105 0.950 . S
C2113 C2111 1.327 1_556 S
C2114 C2102 1.349 . S
C2114 H2108 0.950 . S
C2114 C2115 1.327 . S
C2115 H2109 0.950 . S
C2115 C2114 1.327 . S
C2115 C2119 1.429 . S
C2116 C2099 1.574 . S
C2116 H2110 0.949 . S
C2116 C2120 1.368 . S
C2117 C2098 1.429 . S
C2117 C2111 1.429 . S
C2117 C2118 1.523 . S
C2118 C2099 1.368 . S
C2118 C2112 1.368 . S
C2118 C2117 1.523 . S
C2119 C2103 1.429 . S
C2119 C2115 1.429 . S
C2119 C2120 1.523 . S
C2120 C2104 1.368 . S
C2120 C2116 1.368 . S
C2120 C2119 1.523 . S
H2121 C2096 0.950 1_556 S
H2122 C2098 0.950 . S
H2123 C2099 0.949 . S
H2124 C2101 0.950 . S
H2125 C2103 0.950 . S
C2126 C2127 1.349 . S
C2126 C2128 1.327 . S
C2126 H2151 0.950 . S
C2127 C2126 1.349 . S
C2127 C2143 1.349 . S
C2128 C2126 1.327 . S
C2128 C2147 1.429 . S
C2128 H2152 0.950 . S
C2129 C2146 1.574 . S
C2129 C2148 1.368 . S
C2129 H2153 0.949 . S
H2130 C2134 0.949 . S
C2131 C2132 1.349 . S
C2131 C2133 1.327 . S
C2131 H2154 0.950 . S
C2132 C2131 1.349 . S
C2132 C2144 1.349 . S
C2133 C2131 1.327 . S
C2133 C2149 1.429 . S
C2133 H2155 0.950 . S
C2134 H2130 0.949 . S
C2134 C2142 1.574 . S
C2134 C2150 1.368 . S
H2135 C2143 0.950 . S
H2136 C2141 0.950 . S
H2137 C2142 0.949 . S
H2138 C2144 0.950 . S
H2139 C2145 0.950 . S
H2140 C2146 0.949 . S
C2141 H2136 0.950 . S
C2141 C2143 1.327 . S
C2141 C2147 1.429 . S
C2142 C2134 1.574 . S
C2142 H2137 0.949 . S
C2142 C2148 1.368 . S
C2143 C2127 1.349 . S
C2143 H2135 0.950 . S
C2143 C2141 1.327 . S
C2144 C2132 1.349 . S
C2144 H2138 0.950 . S
C2144 C2145 1.327 . S
C2145 H2139 0.950 . S
C2145 C2144 1.327 . S
C2145 C2149 1.429 . S
C2146 C2129 1.574 . S
C2146 H2140 0.949 . S
C2146 C2150 1.368 . S
C2147 C2128 1.429 . S
C2147 C2141 1.429 . S
C2147 C2148 1.523 . S
C2148 C2129 1.368 . S
C2148 C2142 1.368 . S
C2148 C2147 1.523 . S
C2149 C2133 1.429 . S
C2149 C2145 1.429 . S
C2149 C2150 1.523 . S
C2150 C2134 1.368 . S
C2150 C2146 1.368 . S
C2150 C2149 1.523 . S
H2151 C2126 0.950 . S
H2152 C2128 0.950 . S
H2153 C2129 0.949 . S
H2154 C2131 0.950 . S
H2155 C2133 0.950 . S
C2156 C2157 1.349 . S
C2156 C2158 1.327 . S
C2156 H2181 0.950 . S
C2157 C2156 1.349 . S
C2157 C2173 1.349 . S
C2158 C2156 1.327 . S
C2158 C2177 1.429 . S
C2158 H2182 0.950 . S
C2159 C2176 1.574 . S
C2159 C2178 1.368 . S
C2159 H2183 0.949 . S
H2160 C2164 0.949 . S
C2161 C2162 1.349 . S
C2161 C2163 1.327 . S
C2161 H2184 0.950 . S
C2162 C2161 1.349 . S
C2162 C2174 1.349 . S
C2163 C2161 1.327 . S
C2163 C2179 1.429 . S
C2163 H2185 0.950 . S
C2164 H2160 0.949 . S
C2164 C2172 1.574 . S
C2164 C2180 1.368 . S
H2165 C2173 0.950 . S
H2166 C2171 0.950 . S
H2167 C2172 0.949 . S
H2168 C2174 0.950 . S
H2169 C2175 0.950 . S
H2170 C2176 0.949 . S
C2171 H2166 0.950 . S
C2171 C2173 1.327 . S
C2171 C2177 1.429 . S
C2172 C2164 1.574 . S
C2172 H2167 0.949 . S
C2172 C2178 1.368 . S
C2173 C2157 1.349 . S
C2173 H2165 0.950 . S
C2173 C2171 1.327 . S
C2174 C2162 1.349 . S
C2174 H2168 0.950 . S
C2174 C2175 1.327 . S
C2175 H2169 0.950 . S
C2175 C2174 1.327 . S
C2175 C2179 1.429 . S
C2176 C2159 1.574 . S
C2176 H2170 0.949 . S
C2176 C2180 1.368 . S
C2177 C2158 1.429 . S
C2177 C2171 1.429 . S
C2177 C2178 1.523 . S
C2178 C2159 1.368 . S
C2178 C2172 1.368 . S
C2178 C2177 1.523 . S
C2179 C2163 1.429 . S
C2179 C2175 1.429 . S
C2179 C2180 1.523 . S
C2180 C2164 1.368 . S
C2180 C2176 1.368 . S
C2180 C2179 1.523 . S
H2181 C2156 0.950 . S
H2182 C2158 0.950 . S
H2183 C2159 0.949 . S
H2184 C2161 0.950 . S
H2185 C2163 0.950 . S
C2186 C2187 1.349 1_556 S
C2186 C2188 1.327 . S
C2186 H2211 0.950 1_556 S
C2187 C2186 1.349 1_554 S
C2187 C2203 1.349 1_554 S
C2188 C2186 1.327 . S
C2188 C2207 1.429 . S
C2188 H2212 0.950 . S
C2189 C2206 1.574 . S
C2189 C2208 1.368 . S
C2189 H2213 0.949 . S
H2190 C2194 0.949 . S
C2191 C2192 1.349 . S
C2191 C2193 1.327 . S
C2191 H2214 0.950 . S
C2192 C2191 1.349 . S
C2192 C2204 1.349 . S
C2193 C2191 1.327 . S
C2193 C2209 1.429 . S
C2193 H2215 0.950 . S
C2194 H2190 0.949 . S
C2194 C2202 1.574 . S
C2194 C2210 1.368 . S
H2195 C2203 0.950 1_554 S
H2196 C2201 0.950 . S
H2197 C2202 0.949 . S
H2198 C2204 0.950 . S
H2199 C2205 0.950 . S
H2200 C2206 0.949 . S
C2201 H2196 0.950 . S
C2201 C2203 1.327 . S
C2201 C2207 1.429 . S
C2202 C2194 1.574 . S
C2202 H2197 0.949 . S
C2202 C2208 1.368 . S
C2203 C2187 1.349 1_556 S
C2203 H2195 0.950 1_556 S
C2203 C2201 1.327 . S
C2204 C2192 1.349 . S
C2204 H2198 0.950 . S
C2204 C2205 1.327 . S
C2205 H2199 0.950 . S
C2205 C2204 1.327 . S
C2205 C2209 1.429 . S
C2206 C2189 1.574 . S
C2206 H2200 0.949 . S
C2206 C2210 1.368 . S
C2207 C2188 1.429 . S
C2207 C2201 1.429 . S
C2207 C2208 1.523 . S
C2208 C2189 1.368 . S
C2208 C2202 1.368 . S
C2208 C2207 1.523 . S
C2209 C2193 1.429 . S
C2209 C2205 1.429 . S
C2209 C2210 1.523 . S
C2210 C2194 1.368 . S
C2210 C2206 1.368 . S
C2210 C2209 1.523 . S
H2211 C2186 0.950 1_554 S
H2212 C2188 0.950 . S
H2213 C2189 0.949 . S
H2214 C2191 0.950 . S
H2215 C2193 0.950 . S
C2216 C2217 1.349 . S
C2216 C2218 1.327 . S
C2216 H2241 0.950 . S
C2217 C2216 1.349 . S
C2217 C2233 1.349 . S
C2218 C2216 1.327 . S
C2218 C2237 1.429 . S
C2218 H2242 0.950 . S
C2219 C2236 1.574 . S
C2219 C2238 1.368 . S
C2219 H2243 0.949 . S
H2220 C2224 0.949 . S
C2221 C2222 1.341 1_556 S
C2221 C2223 1.344 . S
C2221 H2244 0.941 1_556 S
C2222 C2221 1.341 1_554 S
C2222 C2234 1.349 1_554 S
C2223 C2221 1.344 . S
C2223 C2239 1.429 . S
C2223 H2245 0.950 . S
C2224 H2220 0.949 . S
C2224 C2232 1.574 . S
C2224 C2240 1.368 . S
H2225 C2233 0.950 . S
H2226 C2231 0.950 . S
H2227 C2232 0.949 . S
H2228 C2234 0.950 1_554 S
H2229 C2235 0.950 . S
H2230 C2236 0.949 . S
C2231 H2226 0.950 . S
C2231 C2233 1.327 . S
C2231 C2237 1.429 . S
C2232 C2224 1.574 . S
C2232 H2227 0.949 . S
C2232 C2238 1.368 . S
C2233 C2217 1.349 . S
C2233 H2225 0.950 . S
C2233 C2231 1.327 . S
C2234 C2222 1.349 1_556 S
C2234 H2228 0.950 1_556 S
C2234 C2235 1.327 . S
C2235 H2229 0.950 . S
C2235 C2234 1.327 . S
C2235 C2239 1.429 . S
C2236 C2219 1.574 . S
C2236 H2230 0.949 . S
C2236 C2240 1.368 . S
C2237 C2218 1.429 . S
C2237 C2231 1.429 . S
C2237 C2238 1.523 . S
C2238 C2219 1.368 . S
C2238 C2232 1.368 . S
C2238 C2237 1.523 . S
C2239 C2223 1.429 . S
C2239 C2235 1.429 . S
C2239 C2240 1.523 . S
C2240 C2224 1.368 . S
C2240 C2236 1.368 . S
C2240 C2239 1.523 . S
H2241 C2216 0.950 . S
H2242 C2218 0.950 . S
H2243 C2219 0.949 . S
H2244 C2221 0.941 1_554 S
H2245 C2223 0.950 . S
C2246 C2247 1.349 . S
C2246 C2248 1.327 . S
C2246 H2271 0.950 . S
C2247 C2246 1.349 . S
C2247 C2263 1.349 . S
C2248 C2246 1.327 . S
C2248 C2267 1.429 . S
C2248 H2272 0.950 . S
C2249 C2266 1.574 . S
C2249 C2268 1.368 . S
C2249 H2273 0.949 . S
H2250 C2254 0.949 . S
C2251 C2252 1.349 . S
C2251 C2253 1.327 . S
C2251 H2274 0.950 . S
C2252 C2251 1.349 . S
C2252 C2264 1.349 . S
C2253 C2251 1.327 . S
C2253 C2269 1.429 . S
C2253 H2275 0.950 . S
C2254 H2250 0.949 . S
C2254 C2262 1.574 . S
C2254 C2270 1.368 . S
H2255 C2263 0.950 . S
H2256 C2261 0.950 . S
H2257 C2262 0.949 . S
H2258 C2264 0.950 . S
H2259 C2265 0.950 . S
H2260 C2266 0.949 . S
C2261 H2256 0.950 . S
C2261 C2263 1.327 . S
C2261 C2267 1.429 . S
C2262 C2254 1.574 . S
C2262 H2257 0.949 . S
C2262 C2268 1.368 . S
C2263 C2247 1.349 . S
C2263 H2255 0.950 . S
C2263 C2261 1.327 . S
C2264 C2252 1.349 . S
C2264 H2258 0.950 . S
C2264 C2265 1.327 . S
C2265 H2259 0.950 . S
C2265 C2264 1.327 . S
C2265 C2269 1.429 . S
C2266 C2249 1.574 . S
C2266 H2260 0.949 . S
C2266 C2270 1.368 . S
C2267 C2248 1.429 . S
C2267 C2261 1.429 . S
C2267 C2268 1.523 . S
C2268 C2249 1.368 . S
C2268 C2262 1.368 . S
C2268 C2267 1.523 . S
C2269 C2253 1.429 . S
C2269 C2265 1.429 . S
C2269 C2270 1.523 . S
C2270 C2254 1.368 . S
C2270 C2266 1.368 . S
C2270 C2269 1.523 . S
H2271 C2246 0.950 . S
H2272 C2248 0.950 . S
H2273 C2249 0.949 . S
H2274 C2251 0.950 . S
H2275 C2253 0.950 . S
C2276 C2277 1.349 . S
C2276 C2278 1.327 . S
C2276 H2301 0.950 . S
C2277 C2276 1.349 . S
C2277 C2293 1.349 . S
C2278 C2276 1.327 . S
C2278 C2297 1.429 . S
C2278 H2302 0.950 . S
C2279 C2296 1.574 . S
C2279 C2298 1.368 . S
C2279 H2303 0.949 . S
H2280 C2284 0.949 . S
C2281 C2282 1.349 . S
C2281 C2283 1.327 . S
C2281 H2304 0.950 . S
C2282 C2281 1.349 . S
C2282 C2294 1.349 . S
C2283 C2281 1.327 . S
C2283 C2299 1.429 . S
C2283 H2305 0.950 . S
C2284 H2280 0.949 . S
C2284 C2292 1.574 . S
C2284 C2300 1.368 . S
H2285 C2293 0.950 . S
H2286 C2291 0.950 . S
H2287 C2292 0.949 . S
H2288 C2294 0.950 . S
H2289 C2295 0.950 . S
H2290 C2296 0.949 . S
C2291 H2286 0.950 . S
C2291 C2293 1.327 . S
C2291 C2297 1.429 . S
C2292 C2284 1.574 . S
C2292 H2287 0.949 . S
C2292 C2298 1.368 . S
C2293 C2277 1.349 . S
C2293 H2285 0.950 . S
C2293 C2291 1.327 . S
C2294 C2282 1.349 . S
C2294 H2288 0.950 . S
C2294 C2295 1.327 . S
C2295 H2289 0.950 . S
C2295 C2294 1.327 . S
C2295 C2299 1.429 . S
C2296 C2279 1.574 . S
C2296 H2290 0.949 . S
C2296 C2300 1.368 . S
C2297 C2278 1.429 . S
C2297 C2291 1.429 . S
C2297 C2298 1.523 . S
C2298 C2279 1.368 . S
C2298 C2292 1.368 . S
C2298 C2297 1.523 . S
C2299 C2283 1.429 . S
C2299 C2295 1.429 . S
C2299 C2300 1.523 . S
C2300 C2284 1.368 . S
C2300 C2296 1.368 . S
C2300 C2299 1.523 . S
H2301 C2276 0.950 . S
H2302 C2278 0.950 . S
H2303 C2279 0.949 . S
H2304 C2281 0.950 . S
H2305 C2283 0.950 . S
C2306 C2307 1.349 . S
C2306 C2308 1.327 . S
C2306 H2331 0.950 . S
C2307 C2306 1.349 . S
C2307 C2323 1.349 . S
C2308 C2306 1.327 . S
C2308 C2327 1.429 . S
C2308 H2332 0.950 . S
C2309 C2326 1.574 . S
C2309 C2328 1.368 . S
C2309 H2333 0.949 . S
H2310 C2314 0.949 . S
C2311 C2312 1.349 1_554 S
C2311 C2313 1.327 . S
C2311 H2334 0.950 1_554 S
C2312 C2311 1.349 1_556 S
C2312 C2324 1.349 1_556 S
C2313 C2311 1.327 . S
C2313 C2329 1.429 . S
C2313 H2335 0.950 . S
C2314 H2310 0.949 . S
C2314 C2322 1.574 . S
C2314 C2330 1.368 . S
H2315 C2323 0.950 . S
H2316 C2321 0.950 . S
H2317 C2322 0.949 . S
H2318 C2324 0.950 1_556 S
H2319 C2325 0.950 . S
H2320 C2326 0.949 . S
C2321 H2316 0.950 . S
C2321 C2323 1.327 . S
C2321 C2327 1.429 . S
C2322 C2314 1.574 . S
C2322 H2317 0.949 . S
C2322 C2328 1.368 . S
C2323 C2307 1.349 . S
C2323 H2315 0.950 . S
C2323 C2321 1.327 . S
C2324 C2312 1.349 1_554 S
C2324 H2318 0.950 1_554 S
C2324 C2325 1.327 . S
C2325 H2319 0.950 . S
C2325 C2324 1.327 . S
C2325 C2329 1.429 . S
C2326 C2309 1.574 . S
C2326 H2320 0.949 . S
C2326 C2330 1.368 . S
C2327 C2308 1.429 . S
C2327 C2321 1.429 . S
C2327 C2328 1.523 . S
C2328 C2309 1.368 . S
C2328 C2322 1.368 . S
C2328 C2327 1.523 . S
C2329 C2313 1.429 . S
C2329 C2325 1.429 . S
C2329 C2330 1.523 . S
C2330 C2314 1.368 . S
C2330 C2326 1.368 . S
C2330 C2329 1.523 . S
H2331 C2306 0.950 . S
H2332 C2308 0.950 . S
H2333 C2309 0.949 . S
H2334 C2311 0.950 1_556 S
H2335 C2313 0.950 . S
C417 C10 1.442 . S
C422 C56 1.442 . S
C447 C23 1.442 . S
C452 C75 1.442 . S
C477 C82 1.442 . S
C482 C30 1.442 . S
C507 C101 1.442 . S
C512 C49 1.442 . S
C537 C108 1.442 . S
C542 C166 1.442 . S
C567 C121 1.442 . S
C572 C173 1.442 . S
C597 C186 1.442 . S
C602 C140 1.442 . S
C627 C147 1.442 . S
C632 C205 1.442 . S
C657 C264 1.442 . S
C662 C212 1.442 . S
C687 C283 1.442 . S
C692 C231 1.442 . S
C717 C238 1.442 . S
C722 C290 1.442 . S
C747 C309 1.442 . S
C752 C251 1.442 . S
C777 C322 1.442 . S
C782 C374 1.442 . S
C807 C381 1.442 . S
C812 C335 1.442 . S
C837 C400 1.442 . S
C842 C348 1.442 . S
C867 C355 1.442 . S
C872 C407 1.442 . S
C897 C3 1.697 . S
C902 C361 1.695 . S
C927 C114 1.695 . S
C932 C16 1.697 . S
C957 C31 1.697 . S
C962 C329 1.696 . S
C987 C42 1.697 . S
C992 C134 1.695 . S
C1017 C387 1.695 . S
C1022 C57 1.697 . S
C1047 C192 1.696 . S
C1052 C68 1.697 . S
C1077 C83 1.697 . S
C1082 C413 1.695 . S
C1107 C94 1.697 . S
C1112 C160 1.695 . S
C1137 C257 1.695 . S
C1142 C109 1.697 . S
C1167 C122 1.697 . S
C1172 C4 1.695 . S
C1197 C225 1.696 . S
C1202 C133 1.697 . S
C1227 C148 1.697 . S
C1232 C36 1.695 . S
C1257 C277 1.695 . S
C1262 C159 1.697 . S
C1287 C174 1.697 . S
C1292 C88 1.696 . S
C1317 C303 1.695 . S
C1322 C187 1.697 . S
C1347 C198 1.697 . S
C1352 C62 1.695 . S
C1377 C153 1.695 . S
C1382 C213 1.697 . S
C1407 C316 1.695 . S
C1412 C224 1.697 . S
C1437 C127 1.696 . S
C1442 C239 1.697 . S
C1467 C252 1.697 . S
C1472 C342 1.695 . S
C1497 C179 1.695 . S
C1502 C265 1.697 . S
C1527 C394 1.696 . S
C1532 C276 1.697 . S
C1557 C199 1.695 . S
C1562 C291 1.697 . S
C1587 C302 1.697 . S
C1592 C368 1.695 . S
C1617 C315 1.697 . S
C1622 C43 1.695 . S
C1647 C328 1.697 . S
C1652 C218 1.695 . S
C1677 C341 1.697 . S
C1682 C17 1.696 . S
C1707 C356 1.697 . S
C1712 C244 1.695 . S
C1737 C367 1.697 . S
C1742 C69 1.695 . S
C1767 C296 1.696 . S
C1772 C382 1.697 . S
C1797 C95 1.695 . S
C1802 C393 1.697 . S
C1827 C408 1.697 . S
C1832 C270 1.695 . S
C1857 C5 0.908 . S
C1862 C96 0.908 . S
C1887 C18 0.908 . S
C1892 C55 0.908 . S
C1917 C29 0.908 . S
C1922 C70 0.908 . S
C1947 C81 0.908 . S
C1952 C44 0.908 . S
C1977 C200 0.908 . S
C1982 C107 0.908 . S
C2007 C161 0.908 . S
C2012 C120 0.908 . S
C2037 C172 0.908 . S
C2042 C135 0.908 . S
C2067 C185 0.908 . S
C2072 C146 0.908 . S
C2097 C211 0.908 . S
C2102 C304 0.908 . S
C2127 C263 0.908 . S
C2132 C226 0.908 . S
C2157 C278 0.908 . S
C2162 C237 0.908 . S
C2187 C289 0.908 . S
C2192 C250 0.908 . S
C2217 C406 0.908 . S
C2222 C317 0.908 . S
C2247 C330 0.908 . S
C2252 C369 0.908 . S
C2277 C343 0.908 . S
C2282 C380 0.908 . S
C2307 C354 0.908 . S
C2312 C395 0.908 . S
