# Generated by pormake.
# Topology wkj, (6)-cn, num edge types: 1
# Building blocks:
#     Node 0, Type 0, BuildingBlock: UKALOJ_clean_sbu_0, # of connection points: 6
#     Node 1, Type 0, BuildingBlock: UKALOJ_clean_sbu_0, # of connection points: 6
#     Node 2, Type 0, BuildingBlock: UKALOJ_clean_sbu_0, # of connection points: 6
#     Node 3, Type 0, BuildingBlock: UKALOJ_clean_sbu_0, # of connection points: 6
#     Node 4, Type 0, BuildingBlock: UKALOJ_clean_sbu_0, # of connection points: 6
#     Node 5, Type 0, BuildingBlock: UKALOJ_clean_sbu_0, # of connection points: 6
#     Node 6, Type 0, BuildingBlock: UKALOJ_clean_sbu_0, # of connection points: 6
#     Node 7, Type 0, BuildingBlock: UKALOJ_clean_sbu_0, # of connection points: 6
#     Node 8, Type 0, BuildingBlock: UKALOJ_clean_sbu_0, # of connection points: 6
#     Node 9, Type 0, BuildingBlock: UKALOJ_clean_sbu_0, # of connection points: 6
#     Node 10, Type 0, BuildingBlock: UKALOJ_clean_sbu_0, # of connection points: 6
#     Node 11, Type 0, BuildingBlock: UKALOJ_clean_sbu_0, # of connection points: 6
#     Edge 12, Type (0, 0), BuildingBlock: UVAHIK_clean_linker_0, # of connection points: 2
#     Edge 13, Type (0, 0), BuildingBlock: UVAHIK_clean_linker_0, # of connection points: 2
#     Edge 14, Type (0, 0), BuildingBlock: UVAHIK_clean_linker_0, # of connection points: 2
#     Edge 15, Type (0, 0), BuildingBlock: UVAHIK_clean_linker_0, # of connection points: 2
#     Edge 16, Type (0, 0), BuildingBlock: UVAHIK_clean_linker_0, # of connection points: 2
#     Edge 17, Type (0, 0), BuildingBlock: UVAHIK_clean_linker_0, # of connection points: 2
#     Edge 18, Type (0, 0), BuildingBlock: UVAHIK_clean_linker_0, # of connection points: 2
#     Edge 19, Type (0, 0), BuildingBlock: UVAHIK_clean_linker_0, # of connection points: 2
#     Edge 20, Type (0, 0), BuildingBlock: UVAHIK_clean_linker_0, # of connection points: 2
#     Edge 21, Type (0, 0), BuildingBlock: UVAHIK_clean_linker_0, # of connection points: 2
#     Edge 22, Type (0, 0), BuildingBlock: UVAHIK_clean_linker_0, # of connection points: 2
#     Edge 23, Type (0, 0), BuildingBlock: UVAHIK_clean_linker_0, # of connection points: 2
#     Edge 24, Type (0, 0), BuildingBlock: UVAHIK_clean_linker_0, # of connection points: 2
#     Edge 25, Type (0, 0), BuildingBlock: UVAHIK_clean_linker_0, # of connection points: 2
#     Edge 26, Type (0, 0), BuildingBlock: UVAHIK_clean_linker_0, # of connection points: 2
#     Edge 27, Type (0, 0), BuildingBlock: UVAHIK_clean_linker_0, # of connection points: 2
#     Edge 28, Type (0, 0), BuildingBlock: UVAHIK_clean_linker_0, # of connection points: 2
#     Edge 29, Type (0, 0), BuildingBlock: UVAHIK_clean_linker_0, # of connection points: 2
#     Edge 30, Type (0, 0), BuildingBlock: UVAHIK_clean_linker_0, # of connection points: 2
#     Edge 31, Type (0, 0), BuildingBlock: UVAHIK_clean_linker_0, # of connection points: 2
#     Edge 32, Type (0, 0), BuildingBlock: UVAHIK_clean_linker_0, # of connection points: 2
#     Edge 33, Type (0, 0), BuildingBlock: UVAHIK_clean_linker_0, # of connection points: 2
#     Edge 34, Type (0, 0), BuildingBlock: UVAHIK_clean_linker_0, # of connection points: 2
#     Edge 35, Type (0, 0), BuildingBlock: UVAHIK_clean_linker_0, # of connection points: 2
#     Edge 36, Type (0, 0), BuildingBlock: UVAHIK_clean_linker_0, # of connection points: 2
#     Edge 37, Type (0, 0), BuildingBlock: UVAHIK_clean_linker_0, # of connection points: 2
#     Edge 38, Type (0, 0), BuildingBlock: UVAHIK_clean_linker_0, # of connection points: 2
#     Edge 39, Type (0, 0), BuildingBlock: UVAHIK_clean_linker_0, # of connection points: 2
#     Edge 40, Type (0, 0), BuildingBlock: UVAHIK_clean_linker_0, # of connection points: 2
#     Edge 41, Type (0, 0), BuildingBlock: UVAHIK_clean_linker_0, # of connection points: 2
#     Edge 42, Type (0, 0), BuildingBlock: UVAHIK_clean_linker_0, # of connection points: 2
#     Edge 43, Type (0, 0), BuildingBlock: UVAHIK_clean_linker_0, # of connection points: 2
#     Edge 44, Type (0, 0), BuildingBlock: UVAHIK_clean_linker_0, # of connection points: 2
#     Edge 45, Type (0, 0), BuildingBlock: UVAHIK_clean_linker_0, # of connection points: 2
#     Edge 46, Type (0, 0), BuildingBlock: UVAHIK_clean_linker_0, # of connection points: 2
#     Edge 47, Type (0, 0), BuildingBlock: UVAHIK_clean_linker_0, # of connection points: 2
# Relax obj value: 0.802
# Max RMSD: 0.238
# Mean RMSD: 0.238
data_MOF--net-wkj--node1-UKALOJ_clean_sbu_0--edge1-UVAHIK_clean_linker_0
_symmetry_space_group_name_H-M    P1
_symmetry_Int_Tables_number       1
_symmetry_cell_setting            triclinic
loop_
_symmetry_equiv_pos_as_xyz
'x, y, z'
_cell_length_a     79.199981
_cell_length_b     79.278389
_cell_length_c     29.108803
_cell_angle_alpha  89.964179
_cell_angle_beta   89.970511
_cell_angle_gamma 119.95886
loop_
_atom_site_label
_atom_site_type_symbol
_atom_site_fract_x
_atom_site_fract_y
_atom_site_fract_z
_atom_type_partial_charge
Zn0 Zn 0.47444 0.07206 0.28718 0.0
O1 O 0.44897 0.05831 0.32395 0.0
C2 C 0.49437 0.10553 0.35307 0.0
Zn3 Zn 0.46923 0.09654 0.27183 0.0
C4 C 0.43903 0.06617 0.33439 0.0
O5 O 0.44437 0.08324 0.31966 0.0
C6 C 0.50427 0.10053 0.22257 0.0
O7 O 0.45087 0.07836 0.21601 0.0
O8 O 0.45907 0.05606 0.23025 0.0
N9 N 0.46261 0.11823 0.2587 0.0
C10 C 0.46698 0.13186 0.22578 0.0
C11 C 0.45042 0.13634 0.27706 0.0
N12 N 0.4523 0.12112 0.29031 0.0
N13 N 0.45955 0.1435 0.23671 0.0
C14 C 0.48059 0.04594 0.35359 0.0
C15 C 0.50091 0.0406 0.31816 0.0
N16 N 0.48118 0.05166 0.30956 0.0
N17 N 0.49365 0.04807 0.28743 0.0
N18 N 0.49304 0.03927 0.36003 0.0
H19 H 0.47 0.06132 0.3956 0.0
H20 H 0.45219 0.03673 0.38101 0.0
H21 H 0.46999 0.04115 0.42403 0.0
C22 C 0.46763 0.04647 0.39074 0.0
C23 C 0.47744 0.13288 0.18212 0.0
H24 H 0.47369 0.14011 0.15454 0.0
H25 H 0.49339 0.14129 0.18827 0.0
H26 H 0.47355 0.11801 0.17083 0.0
O27 O 0.49375 0.10855 0.22489 0.0
O28 O 0.49997 0.08573 0.24743 0.0
C29 C 0.44993 0.0622 0.20582 0.0
O30 O 0.48999 0.08826 0.34397 0.0
O31 O 0.4882 0.1142 0.32715 0.0
Zn32 Zn 0.37875 0.45819 0.58696 0.0
O33 O 0.36894 0.43523 0.53603 0.0
C34 C 0.4087 0.48612 0.51703 0.0
Zn35 Zn 0.40709 0.45848 0.58646 0.0
C36 C 0.38015 0.42896 0.52253 0.0
O37 O 0.39733 0.43632 0.53831 0.0
C38 C 0.40689 0.48825 0.6506 0.0
O39 O 0.39511 0.43719 0.6362 0.0
O40 O 0.36722 0.43629 0.64195 0.0
N41 N 0.43241 0.45778 0.59666 0.0
C42 C 0.44037 0.45706 0.63719 0.0
C43 C 0.45911 0.45749 0.58424 0.0
N44 N 0.44397 0.45782 0.56375 0.0
N45 N 0.45702 0.4566 0.63038 0.0
C46 C 0.34073 0.45885 0.55434 0.0
C47 C 0.32648 0.45436 0.61901 0.0
N48 N 0.35246 0.4577 0.58641 0.0
N49 N 0.34353 0.45498 0.62644 0.0
N50 N 0.32426 0.45676 0.57405 0.0
H51 H 0.33141 0.45294 0.4838 0.0
H52 H 0.35208 0.47666 0.49463 0.0
H53 H 0.35524 0.45574 0.49503 0.0
C54 C 0.34506 0.46102 0.50394 0.0
C55 C 0.4327 0.45805 0.68401 0.0
H56 H 0.42046 0.46082 0.68348 0.0
H57 H 0.42742 0.44395 0.7019 0.0
H58 H 0.44448 0.46968 0.70487 0.0
O59 O 0.41694 0.4814 0.6337 0.0
O60 O 0.38926 0.48113 0.6379 0.0
C61 C 0.3785 0.43004 0.65436 0.0
O62 O 0.39135 0.48003 0.53183 0.0
O63 O 0.41885 0.47936 0.53448 0.0
Zn64 Zn 0.92143 0.37138 0.93054 0.0
O65 O 0.94164 0.37264 0.87836 0.0
C66 C 0.91878 0.40327 0.8794 0.0
Zn67 Zn 0.9451 0.40128 0.94851 0.0
C68 C 0.95823 0.38773 0.87109 0.0
O69 O 0.96363 0.40278 0.89584 0.0
C70 C 0.90944 0.38632 0.00881 0.0
O71 O 0.95707 0.38872 0.98994 0.0
O72 O 0.93327 0.35889 0.97806 0.0
N73 N 0.96475 0.42808 0.97361 0.0
C74 C 0.96847 0.43335 0.0182 0.0
C75 C 0.97722 0.4591 0.97936 0.0
N76 N 0.97051 0.44417 0.94941 0.0
N77 N 0.97595 0.45269 0.02288 0.0
C78 C 0.88136 0.33402 0.9073 0.0
C79 C 0.89087 0.31472 0.88362 0.0
N80 N 0.90104 0.34374 0.90935 0.0
N81 N 0.90686 0.33167 0.89466 0.0
N82 N 0.8746 0.31568 0.89144 0.0
H83 H 0.85585 0.33665 0.89635 0.0
H84 H 0.8643 0.33974 0.95485 0.0
H85 H 0.87737 0.3589 0.9139 0.0
C86 C 0.86902 0.34289 0.91845 0.0
C87 C 0.96565 0.41984 0.0575 0.0
H88 H 0.95035 0.40799 0.06021 0.0
H89 H 0.9749 0.41318 0.05186 0.0
H90 H 0.97008 0.42776 0.09066 0.0
O91 O 0.92647 0.39999 1.00041 0.0
O92 O 0.9021 0.37104 0.98414 0.0
C93 C 0.94939 0.37063 0.99715 0.0
O94 O 0.91066 0.38475 0.88201 0.0
O95 O 0.93323 0.41373 0.90513 0.0
Zn96 Zn 0.54627 0.91485 0.26041 0.0
O97 O 0.56974 0.92642 0.21017 0.0
C98 C 0.52163 0.92129 0.18959 0.0
Zn99 Zn 0.54746 0.94344 0.26565 0.0
C100 C 0.57775 0.94461 0.20167 0.0
O101 O 0.57153 0.95461 0.22186 0.0
C102 C 0.51539 0.91477 0.323 0.0
O103 O 0.56463 0.94813 0.32292 0.0
O104 O 0.56714 0.92204 0.31601 0.0
N105 N 0.55197 0.97098 0.27635 0.0
C106 C 0.56752 0.98611 0.29666 0.0
C107 C 0.54399 0.99174 0.3005 0.0
N108 N 0.53742 0.97466 0.27829 0.0
N109 N 0.5628 0.99912 0.31275 0.0
C110 C 0.54612 0.87661 0.22708 0.0
C111 C 0.53834 0.86066 0.28996 0.0
N112 N 0.54302 0.88734 0.25847 0.0
N113 N 0.5381 0.87729 0.29731 0.0
N114 N 0.54332 0.8598 0.24618 0.0
H115 H 0.56965 0.89297 0.18088 0.0
H116 H 0.55012 0.87125 0.15604 0.0
H117 H 0.54731 0.89231 0.16587 0.0
C118 C 0.55357 0.88354 0.17952 0.0
C119 C 0.58756 0.98859 0.30098 0.0
H120 H 0.59035 0.98029 0.27467 0.0
H121 H 0.59872 1.00423 0.29785 0.0
H122 H 0.58941 0.98368 0.33525 0.0
O123 O 0.5229 0.93208 0.30816 0.0
O124 O 0.52257 0.90426 0.31044 0.0
C125 C 0.5715 0.93775 0.33693 0.0
O126 O 0.52556 0.9085 0.20494 0.0
O127 O 0.52945 0.93804 0.20837 0.0
Zn128 Zn 0.64275 0.55624 0.59345 0.0
O129 O 0.65416 0.57806 0.5386 0.0
C130 C 0.61118 0.5295 0.52889 0.0
Zn131 Zn 0.61714 0.56095 0.59522 0.0
C132 C 0.64449 0.58617 0.52556 0.0
O133 O 0.62821 0.58139 0.54412 0.0
C134 C 0.61388 0.53134 0.66446 0.0
O135 O 0.63118 0.58263 0.64278 0.0
O136 O 0.65679 0.57905 0.64527 0.0
N137 N 0.59256 0.56342 0.60083 0.0
C138 C 0.58902 0.57544 0.62681 0.0
C139 C 0.5617 0.55062 0.61179 0.0
N140 N 0.57546 0.54817 0.59076 0.0
N141 N 0.56978 0.56753 0.63536 0.0
C142 C 0.67818 0.55083 0.56151 0.0
C143 C 0.69238 0.55456 0.62595 0.0
N144 N 0.66733 0.55346 0.59356 0.0
N145 N 0.67621 0.55566 0.63346 0.0
N146 N 0.69405 0.55151 0.58108 0.0
H147 H 0.68739 0.55618 0.49085 0.0
H148 H 0.6662 0.53293 0.50228 0.0
H149 H 0.664 0.55442 0.50209 0.0
C150 C 0.67373 0.54863 0.51119 0.0
C151 C 0.60397 0.59574 0.6403 0.0
H152 H 0.61551 0.60231 0.61365 0.0
H153 H 0.59703 0.60483 0.64458 0.0
H154 H 0.61066 0.59559 0.67355 0.0
O155 O 0.60588 0.54042 0.64789 0.0
O156 O 0.63014 0.53457 0.64795 0.0
C157 C 0.64788 0.58778 0.65868 0.0
O158 O 0.62814 0.53356 0.54234 0.0
O159 O 0.60339 0.53876 0.54596 0.0
Zn160 Zn 0.0601 0.60663 0.91102 0.0
O161 O 0.05371 0.61972 0.96406 0.0
C162 C 0.08596 0.60099 0.97572 0.0
Zn163 Zn 0.09011 0.63253 0.91086 0.0
C164 C 0.06514 0.63606 0.98165 0.0
O165 O 0.08246 0.64594 0.96643 0.0
C166 C 0.08419 0.6017 0.84084 0.0
O167 O 0.08089 0.64615 0.8595 0.0
O168 O 0.05166 0.62028 0.86288 0.0
N169 N 0.11824 0.65581 0.91209 0.0
C170 C 0.12993 0.66955 0.88147 0.0
C171 C 0.14511 0.67638 0.9453 0.0
N172 N 0.12781 0.66009 0.95154 0.0
N173 N 0.1469 0.68266 0.90162 0.0
C174 C 0.01603 0.58431 0.93099 0.0
C175 C 0.0097 0.55492 0.93256 0.0
N176 N 0.03203 0.58409 0.9156 0.0
N177 N 0.02793 0.56574 0.91597 0.0
N178 N 1.00194 0.56625 0.94267 0.0
H179 H 0.02248 0.61274 0.90661 0.0
H180 H 0.99813 0.59767 0.92866 0.0
H181 H 0.01831 0.60902 0.96726 0.0
C182 C 0.01368 0.60197 0.93325 0.0
C183 C 0.12386 0.67092 0.83354 0.0
H184 H 0.11494 0.67814 0.83455 0.0
H185 H 0.13656 0.67959 0.81094 0.0
H186 H 0.11481 0.65613 0.81894 0.0
O187 O 0.09706 0.61826 0.85651 0.0
O188 O 0.06705 0.59344 0.8576 0.0
C189 C 0.06319 0.63691 0.84625 0.0
O190 O 0.06877 0.59265 0.95961 0.0
O191 O 0.09824 0.618 0.96158 0.0
Zn192 Zn 0.9147 0.54073 0.42108 0.0
O193 O 0.92425 0.56453 0.46956 0.0
C194 C 0.92331 0.51882 0.49492 0.0
Zn195 Zn 0.94483 0.54523 0.41857 0.0
C196 C 0.9424 0.57426 0.47877 0.0
O197 O 0.95395 0.56949 0.46062 0.0
C198 C 0.9182 0.51138 0.36139 0.0
O199 O 0.94883 0.5617 0.36046 0.0
O200 O 0.92065 0.56049 0.36344 0.0
N201 N 0.97315 0.5516 0.41124 0.0
C202 C 0.98815 0.56722 0.39074 0.0
C203 C 0.99595 0.54525 0.39564 0.0
N204 N 0.97819 0.53807 0.41491 0.0
N205 N 1.0025 0.5635 0.37984 0.0
C206 C 0.87506 0.53763 0.45348 0.0
C207 C 0.85827 0.52696 0.3923 0.0
N208 N 0.8863 0.53525 0.42211 0.0
N209 N 0.87575 0.52859 0.38425 0.0
N210 N 0.85736 0.53262 0.43545 0.0
H211 H 0.89167 0.53924 0.51346 0.0
H212 H 0.88844 0.55987 0.50434 0.0
H213 H 0.86834 0.53735 0.52539 0.0
C214 C 0.88116 0.54377 0.50212 0.0
C215 C 0.9893 0.58648 0.38236 0.0
H216 H 0.98069 0.58929 0.40794 0.0
H217 H 1.00471 0.59839 0.38384 0.0
H218 H 0.98373 0.5868 0.3477 0.0
O219 O 0.93549 0.52046 0.37686 0.0
O220 O 0.90621 0.51694 0.37286 0.0
C221 C 0.93713 0.56658 0.34428 0.0
O222 O 0.90958 0.52098 0.47816 0.0
O223 O 0.94021 0.52796 0.47691 0.0
Zn224 Zn 0.40292 0.93191 0.72427 0.0
O225 O 0.39011 0.94238 0.6788 0.0
C226 C 0.38629 0.89427 0.67121 0.0
Zn227 Zn 0.37307 0.90935 0.74637 0.0
C228 C 0.37195 0.93533 0.6742 0.0
O229 O 0.36024 0.92068 0.69822 0.0
C230 C 0.40535 0.9076 0.79816 0.0
O231 O 0.37629 0.93098 0.79635 0.0
O232 O 0.40555 0.95274 0.77213 0.0
N233 N 0.34565 0.8902 0.7715 0.0
C234 C 0.33541 0.8706 0.77543 0.0
C235 C 0.31724 0.88139 0.7998 0.0
N236 N 0.33429 0.89682 0.78669 0.0
N237 N 0.31743 0.86467 0.79288 0.0
C238 C 0.43347 0.95164 0.64899 0.0
C239 C 0.46016 0.96159 0.68475 0.0
N240 N 0.42932 0.9498 0.69441 0.0
N241 N 0.446 0.95623 0.71662 0.0
N242 N 0.45264 0.95885 0.64206 0.0
H243 H 0.40626 0.93203 0.61423 0.0
H244 H 0.41363 0.95732 0.61138 0.0
H245 H 0.42572 0.94797 0.57655 0.0
C246 C 0.41898 0.94679 0.61069 0.0
C247 C 0.34349 0.85753 0.7646 0.0
H248 H 0.33705 0.84461 0.78751 0.0
H249 H 0.33989 0.85249 0.72852 0.0
H250 H 0.35955 0.86544 0.76831 0.0
O251 O 0.3868 0.89915 0.79539 0.0
O252 O 0.41568 0.92167 0.77122 0.0
C253 C 0.3914 0.94785 0.79979 0.0
O254 O 0.40062 0.91103 0.67822 0.0
O255 O 0.37086 0.88839 0.69493 0.0
Zn256 Zn 0.46915 0.37456 0.0935 0.0
O257 O 0.44665 0.35916 0.14483 0.0
C258 C 0.49211 0.4053 0.16478 0.0
Zn259 Zn 0.46142 0.39809 0.09628 0.0
C260 C 0.43688 0.36677 0.16009 0.0
O261 O 0.44031 0.38321 0.14533 0.0
C262 C 0.49353 0.407 0.02873 0.0
O263 O 0.44123 0.38384 0.04493 0.0
O264 O 0.44808 0.36039 0.03813 0.0
N265 N 0.45455 0.41976 0.09466 0.0
C266 C 0.43818 0.41932 0.07993 0.0
C267 C 0.46055 0.44895 0.08171 0.0
N268 N 0.46837 0.43826 0.09655 0.0
N269 N 0.44161 0.43742 0.07056 0.0
C270 C 0.47385 0.33852 0.12038 0.0
C271 C 0.48557 0.33426 0.05845 0.0
N272 N 0.47599 0.35258 0.0907 0.0
N273 N 0.48333 0.34988 0.05236 0.0
N274 N 0.47964 0.32674 0.10081 0.0
H275 H 0.47204 0.3519 0.18302 0.0
H276 H 0.45113 0.32854 0.17049 0.0
H277 H 0.47325 0.32989 0.19096 0.0
C278 C 0.46728 0.33717 0.16917 0.0
C279 C 0.41852 0.40135 0.07673 0.0
H280 H 0.41712 0.39017 0.10164 0.0
H281 H 0.40691 0.40502 0.08317 0.0
H282 H 0.41633 0.39519 0.04181 0.0
O283 O 0.48296 0.41327 0.04591 0.0
O284 O 0.49131 0.39078 0.04269 0.0
C285 C 0.4382 0.36828 0.02573 0.0
O286 O 0.49017 0.38953 0.14808 0.0
O287 O 0.48188 0.4122 0.14867 0.0
Zn288 Zn 0.09998 0.46101 0.40866 0.0
O289 O 0.0874 0.43928 0.46358 0.0
C290 C 0.09479 0.48788 0.47324 0.0
Zn291 Zn 0.07072 0.45848 0.40344 0.0
C292 C 0.06935 0.43175 0.47401 0.0
O293 O 0.05877 0.43698 0.45242 0.0
C294 C 0.10007 0.48858 0.33941 0.0
O295 O 0.06336 0.43722 0.35489 0.0
O296 O 0.09138 0.43808 0.35731 0.0
N297 N 0.04491 0.45782 0.39129 0.0
C298 C 0.03828 0.45915 0.34945 0.0
C299 C 0.02722 0.47123 0.39746 0.0
N300 N 0.03753 0.46486 0.42136 0.0
N301 N 0.02772 0.46818 0.3519 0.0
C302 C 0.13838 0.46205 0.44548 0.0
C303 C 0.15386 0.46772 0.38222 0.0
N304 N 0.12692 0.463 0.41234 0.0
N305 N 0.13663 0.46646 0.37321 0.0
N306 N 0.15544 0.465 0.42733 0.0
H307 H 0.12611 0.44349 0.50371 0.0
H308 H 0.14641 0.46717 0.51693 0.0
H309 H 0.12271 0.46427 0.50345 0.0
C310 C 0.13316 0.45923 0.4954 0.0
C311 C 0.04323 0.45288 0.30497 0.0
H312 H 0.05913 0.46021 0.29925 0.0
H313 H 0.03749 0.43695 0.30605 0.0
H314 H 0.03651 0.45584 0.27497 0.0
O315 O 0.08295 0.48086 0.35518 0.0
O316 O 0.11144 0.48281 0.35415 0.0
C317 C 0.07419 0.43077 0.34132 0.0
O318 O 0.10775 0.48382 0.46008 0.0
O319 O 0.0781 0.47932 0.45446 0.0
Zn320 Zn 0.61071 0.06601 0.75629 0.0
O321 O 0.62303 0.06023 0.70016 0.0
C322 C 0.6098 0.09694 0.70133 0.0
Zn323 Zn 0.63877 0.09377 0.7629 0.0
C324 C 0.64027 0.0703 0.68595 0.0
O325 O 0.6518 0.08606 0.70645 0.0
C326 C 0.60802 0.08826 0.83363 0.0
O327 O 0.64888 0.07995 0.81209 0.0
O328 O 0.62182 0.05255 0.79806 0.0
N329 N 0.66418 0.12024 0.7668 0.0
C330 C 0.67651 0.13191 0.79978 0.0
C331 C 0.68871 0.14494 0.73513 0.0
N332 N 0.67182 0.12853 0.72686 0.0
N333 N 0.69212 0.14753 0.78062 0.0
C334 C 0.57919 0.03201 0.70121 0.0
C335 C 0.57047 0.00802 0.74694 0.0
N336 N 0.58688 0.03942 0.74286 0.0
N337 N 0.58136 0.02448 0.7712 0.0
N338 N 0.56898 0.01241 0.70299 0.0
H339 H 0.59646 0.0578 0.65794 0.0
H340 H 0.58424 0.0354 0.62766 0.0
H341 H 0.5707 0.04606 0.65084 0.0
C342 C 0.58307 0.04354 0.65732 0.0
C343 C 0.6736 0.12754 0.85011 0.0
H344 H 0.66266 0.11205 0.85629 0.0
H345 H 0.68764 0.13115 0.86661 0.0
H346 H 0.6682 0.13665 0.86611 0.0
O347 O 0.62504 0.10062 0.81897 0.0
O348 O 0.59851 0.07177 0.81384 0.0
C349 C 0.63801 0.06168 0.8188 0.0
O350 O 0.5994 0.0797 0.71596 0.0
O351 O 0.62758 0.10666 0.71376 0.0
Zn352 Zn 0.54896 0.63635 0.07938 0.0
O353 O 0.57027 0.64219 0.13332 0.0
C354 C 0.51763 0.60405 0.13577 0.0
Zn355 Zn 0.54801 0.60808 0.06841 0.0
C356 C 0.57475 0.6292 0.14351 0.0
O357 O 0.56661 0.61294 0.12265 0.0
C358 C 0.52272 0.61407 1.00205 0.0
O359 O 0.57225 0.62183 0.02745 0.0
O360 O 0.57268 0.64964 0.02921 0.0
N361 N 0.54542 0.58173 0.05205 0.0
C362 C 0.54592 0.5755 0.00911 0.0
C363 C 0.52833 0.55045 0.04953 0.0
N364 N 0.53475 0.56606 0.07735 0.0
N365 N 0.53489 0.55599 0.00623 0.0
C366 C 0.54955 0.67433 0.11937 0.0
C367 C 0.55089 0.68808 0.05545 0.0
N368 N 0.55047 0.663 0.08579 0.0
N369 N 0.55143 0.67176 0.04633 0.0
N370 N 0.54969 0.69014 0.10102 0.0
H371 H 0.54392 0.65408 0.17481 0.0
H372 H 0.56159 0.67902 0.18683 0.0
H373 H 0.53623 0.67188 0.18513 0.0
C374 C 0.54755 0.66937 0.1694 0.0
C375 C 0.55741 0.58836 0.96961 0.0
H376 H 0.55258 0.59891 0.96137 0.0
H377 H 0.57307 0.59656 0.97899 0.0
H378 H 0.55606 0.57973 0.93844 0.0
O379 O 0.52964 0.60334 0.01298 0.0
O380 O 0.52754 0.62942 0.02512 0.0
C381 C 0.5799 0.63939 0.0151 0.0
O382 O 0.52563 0.62241 0.12937 0.0
O383 O 0.52366 0.59442 0.11292 0.0
C384 C 0.44579 0.16439 0.21726 0.0
C385 C 0.46137 0.16069 0.21485 0.0
C386 C 0.44808 0.18226 0.20307 0.0
C387 C 0.47882 0.22663 0.13506 0.0
H388 H 0.45796 0.25004 0.21786 0.0
C389 C 0.49384 0.30537 0.10809 0.0
C390 C 0.47865 0.30914 0.11761 0.0
C391 C 0.49232 0.28759 0.12049 0.0
C392 C 0.46367 0.24366 0.19395 0.0
H393 H 0.49168 0.17302 0.19551 0.0
H394 H 0.49562 0.20419 0.1695 0.0
H395 H 0.45391 0.21823 0.23576 0.0
H396 H 0.44965 0.29696 0.14612 0.0
H397 H 0.44682 0.2659 0.16764 0.0
H398 H 0.48833 0.25192 0.09285 0.0
C399 C 0.48151 0.19308 0.18199 0.0
C400 C 0.46136 0.22539 0.2043 0.0
C401 C 0.47922 0.17515 0.19649 0.0
C402 C 0.46186 0.29473 0.13977 0.0
C403 C 0.46025 0.27687 0.1519 0.0
C404 C 0.48101 0.24488 0.12449 0.0
C405 C 0.46607 0.197 0.18613 0.0
C406 C 0.46882 0.21659 0.17492 0.0
C407 C 0.47541 0.27297 0.14216 0.0
C408 C 0.47341 0.25365 0.15375 0.0
H409 H 0.43189 0.15355 0.23137 0.0
H410 H 0.43579 0.18464 0.20603 0.0
H411 H 0.4846 0.2202 0.11151 0.0
H412 H 0.50689 0.31621 0.09077 0.0
H413 H 0.50444 0.28533 0.11302 0.0
C414 C 0.30902 0.47024 0.52207 0.0
C415 C 0.30731 0.45637 0.55459 0.0
C416 C 0.2925 0.47111 0.50805 0.0
C417 C 0.24229 0.45677 0.54709 0.0
H418 H 0.2354 0.46835 0.42151 0.0
C419 C 0.17042 0.45153 0.48018 0.0
C420 C 0.17228 0.4656 0.44809 0.0
C421 C 0.18692 0.45075 0.49486 0.0
C422 C 0.23719 0.46532 0.4569 0.0
H423 H 0.28701 0.43233 0.59703 0.0
H424 H 0.25825 0.43351 0.57209 0.0
H425 H 0.26402 0.46604 0.44183 0.0
H426 H 0.19284 0.49016 0.4073 0.0
H427 H 0.22152 0.48907 0.43324 0.0
H428 H 0.2154 0.45599 0.56207 0.0
C429 C 0.27229 0.44398 0.55791 0.0
C430 C 0.25364 0.464 0.46854 0.0
C431 C 0.28874 0.44317 0.57194 0.0
C432 C 0.19098 0.47915 0.43203 0.0
C433 C 0.20739 0.4784 0.44662 0.0
C434 C 0.22581 0.45807 0.53542 0.0
C435 C 0.27394 0.45817 0.52639 0.0
C436 C 0.25643 0.45968 0.5138 0.0
C437 C 0.20558 0.46396 0.47751 0.0
C438 C 0.22305 0.46241 0.49018 0.0
H439 H 0.32318 0.48094 0.50905 0.0
H440 H 0.2944 0.48239 0.48411 0.0
H441 H 0.24408 0.45376 0.58249 0.0
H442 H 0.15618 0.44058 0.49223 0.0
H443 H 0.18494 0.4393 0.51835 0.0
C444 C 0.85116 0.28815 0.84422 0.0
C445 C 0.85496 0.30015 0.88276 0.0
C446 C 0.83257 0.2723 0.83645 0.0
C447 C 0.78616 0.23824 0.89457 0.0
H448 H 0.76769 0.22579 0.76908 0.0
C449 C 0.70934 0.17367 0.83888 0.0
C450 C 0.70972 0.16313 0.80042 0.0
C451 C 0.72637 0.19057 0.85308 0.0
C452 C 0.77266 0.22898 0.80433 0.0
H453 H 0.84226 0.30437 0.94454 0.0
H454 H 0.80949 0.27691 0.9304 0.0
H455 H 0.7982 0.25542 0.78503 0.0
H456 H 0.72829 0.16153 0.7481 0.0
H457 H 0.75776 0.1907 0.77268 0.0
H458 H 0.76037 0.21157 0.91352 0.0
C459 C 0.82097 0.27985 0.90601 0.0
C460 C 0.79021 0.24599 0.8135 0.0
C461 C 0.83967 0.2958 0.91375 0.0
C462 C 0.72753 0.16942 0.77766 0.0
C463 C 0.74439 0.1862 0.7916 0.0
C464 C 0.76844 0.22118 0.88535 0.0
C465 C 0.81718 0.26789 0.86717 0.0
C466 C 0.79747 0.25066 0.85857 0.0
C467 C 0.74396 0.19728 0.82873 0.0
C468 C 0.76175 0.21614 0.83995 0.0
H469 H 0.8627 0.29101 0.82007 0.0
H470 H 0.83039 0.26324 0.8067 0.0
H471 H 0.79132 0.2413 0.92968 0.0
H472 H 0.69577 0.16946 0.85649 0.0
H473 H 0.72557 0.19885 0.88176 0.0
C474 C 0.55868 0.71607 0.15965 0.0
C475 C 0.54749 0.70548 0.12164 0.0
C476 C 0.55841 0.7328 0.17462 0.0
C477 C 0.54782 0.7705 0.13044 0.0
H478 H 0.54801 0.78358 0.25869 0.0
C479 C 0.53579 0.83369 0.18953 0.0
C480 C 0.54622 0.84453 0.228 0.0
C481 C 0.5367 0.81717 0.17605 0.0
C482 C 0.54823 0.78031 0.22266 0.0
H483 H 0.52676 0.70364 0.0707 0.0
H484 H 0.52598 0.7324 0.09698 0.0
H485 H 0.54778 0.75362 0.23815 0.0
H486 H 0.56578 0.84677 0.28239 0.0
H487 H 0.56784 0.8183 0.25852 0.0
H488 H 0.54831 0.79714 0.11483 0.0
C489 C 0.53527 0.72816 0.11484 0.0
C490 C 0.54807 0.76308 0.21092 0.0
C491 C 0.53557 0.71157 0.1 0.0
C492 C 0.55775 0.83871 0.25235 0.0
C493 C 0.55874 0.82229 0.23891 0.0
C494 C 0.54802 0.78773 0.14216 0.0
C495 C 0.547 0.73928 0.15167 0.0
C496 C 0.54771 0.75787 0.16464 0.0
C497 C 0.54799 0.81108 0.20099 0.0
C498 C 0.54814 0.79286 0.18843 0.0
H499 H 0.56836 0.71204 0.17629 0.0
H500 H 0.56773 0.74109 0.20291 0.0
H501 H 0.54795 0.76719 0.0944 0.0
H502 H 0.52629 0.83751 0.17114 0.0
H503 H 0.52798 0.80877 0.14711 0.0
C504 C 0.70742 0.53585 0.53015 0.0
C505 C 0.71027 0.5506 0.56119 0.0
C506 C 0.72325 0.53382 0.51568 0.0
C507 C 0.77379 0.54741 0.55121 0.0
H508 H 0.77753 0.53116 0.42794 0.0
C509 C 0.84353 0.54923 0.48177 0.0
C510 C 0.84094 0.53353 0.45428 0.0
C511 C 0.82746 0.5509 0.49569 0.0
C512 C 0.77662 0.53552 0.46268 0.0
H513 H 0.73185 0.57507 0.6003 0.0
H514 H 0.75944 0.57201 0.57427 0.0
H515 H 0.74988 0.53517 0.44863 0.0
H516 H 0.81943 0.50736 0.41987 0.0
H517 H 0.79144 0.5102 0.44414 0.0
H518 H 0.80065 0.54797 0.56504 0.0
C519 C 0.74504 0.56165 0.5618 0.0
C520 C 0.76071 0.5378 0.47458 0.0
C521 C 0.72926 0.56354 0.57644 0.0
C522 C 0.82189 0.51955 0.44124 0.0
C523 C 0.80587 0.52126 0.45489 0.0
C524 C 0.78973 0.54524 0.53922 0.0
C525 C 0.74226 0.54653 0.53192 0.0
C526 C 0.75909 0.54385 0.519 0.0
C527 C 0.80843 0.53706 0.48194 0.0
C528 C 0.79138 0.53928 0.4948 0.0
H529 H 0.69289 0.5254 0.51869 0.0
H530 H 0.72045 0.52187 0.49306 0.0
H531 H 0.7729 0.55167 0.58607 0.0
H532 H 0.858 0.56065 0.49098 0.0
H533 H 0.83001 0.56342 0.51592 0.0
C534 C 0.29632 0.82978 0.77235 0.0
C535 C 0.30146 0.84539 0.80274 0.0
C536 C 0.27998 0.81147 0.78108 0.0
C537 C 0.24586 0.78198 0.87483 0.0
H538 H 0.21131 0.75223 0.77514 0.0
C539 C 0.16926 0.71778 0.91039 0.0
C540 C 0.16288 0.70068 0.88472 0.0
C541 C 0.18613 0.73495 0.89797 0.0
C542 C 0.22091 0.76027 0.80328 0.0
H543 H 0.29328 0.85412 0.86542 0.0
H544 H 0.26476 0.82243 0.88051 0.0
H545 H 0.24116 0.78288 0.75861 0.0
H546 H 0.16937 0.68799 0.8264 0.0
H547 H 0.19887 0.71824 0.80383 0.0
H548 H 0.22557 0.75959 0.91955 0.0
C549 C 0.27354 0.82407 0.85047 0.0
C550 C 0.23807 0.77783 0.79382 0.0
C551 C 0.28982 0.84231 0.84173 0.0
C552 C 0.17363 0.70114 0.84585 0.0
C553 C 0.19057 0.71842 0.83322 0.0
C554 C 0.22873 0.76453 0.88425 0.0
C555 C 0.26834 0.80837 0.82028 0.0
C556 C 0.25065 0.78906 0.82958 0.0
C557 C 0.1972 0.73545 0.85967 0.0
C558 C 0.21589 0.75356 0.84874 0.0
H559 H 0.30458 0.83183 0.74121 0.0
H560 H 0.27647 0.79974 0.75709 0.0
H561 H 0.25537 0.78994 0.90316 0.0
H562 H 0.16127 0.71772 0.94066 0.0
H563 H 0.1906 0.74784 0.9187 0.0
C564 C 0.60881 0.11084 0.89608 0.0
C565 C 0.5992 0.09268 0.87372 0.0
C566 C 0.60036 0.11448 0.93451 0.0
C567 C 0.57302 0.12048 1.00087 0.0
H568 H 0.54897 0.07862 0.0899 0.0
C569 C 0.5195 0.11538 0.14622 0.0
C570 C 0.51988 0.10639 0.18759 0.0
C571 C 0.53168 0.11685 0.10945 0.0
C572 C 0.55579 0.09059 0.06577 0.0
H573 H 0.57296 0.06428 0.87401 0.0
H574 H 0.55842 0.07061 0.94043 0.0
H575 H 0.5651 0.07486 0.023 0.0
H576 H 0.53451 0.09352 0.22418 0.0
H577 H 0.55591 0.0965 0.16096 0.0
H578 H 0.56352 0.13616 0.04406 0.0
C579 C 0.57255 0.08199 0.92871 0.0
C580 C 0.56486 0.08833 0.02701 0.0
C581 C 0.58089 0.0784 0.89037 0.0
C582 C 0.53368 0.10031 0.1926 0.0
C583 C 0.54587 0.10189 0.15617 0.0
C584 C 0.56378 0.12272 0.03974 0.0
C585 C 0.58222 0.09998 0.9516 0.0
C586 C 0.57345 0.10313 0.99382 0.0
C587 C 0.54449 0.10942 0.11349 0.0
C588 C 0.55502 0.10776 0.07267 0.0
H589 H 0.62292 0.12218 0.88415 0.0
H590 H 0.60823 0.12847 0.9515 0.0
H591 H 0.57941 0.13213 0.97582 0.0
H592 H 0.50895 0.12011 0.14119 0.0
H593 H 0.53021 0.12272 0.07706 0.0
C594 C 0.49979 0.60425 0.2076 0.0
C595 C 0.50244 0.5939 0.17174 0.0
C596 C 0.48719 0.5943 0.24439 0.0
C597 C 0.47193 0.56924 0.33155 0.0
H598 H 0.42323 0.52087 0.31485 0.0
C599 C 0.43774 0.51097 0.47328 0.0
C600 C 0.4174 0.50083 0.47955 0.0
C601 C 0.44631 0.52401 0.43682 0.0
C602 C 0.43666 0.53447 0.32018 0.0
H603 H 0.49319 0.56496 0.14556 0.0
H604 H 0.47126 0.54776 0.20905 0.0
H605 H 0.44079 0.54049 0.24789 0.0
H606 H 0.39013 0.49671 0.45236 0.0
H607 H 0.40519 0.51944 0.3878 0.0
H608 H 0.46805 0.56301 0.4037 0.0
C609 C 0.47885 0.56352 0.20896 0.0
C610 C 0.44683 0.54564 0.28175 0.0
C611 C 0.49155 0.57343 0.17258 0.0
C612 C 0.40584 0.50432 0.44861 0.0
C613 C 0.41446 0.51725 0.41151 0.0
C614 C 0.46185 0.55799 0.3699 0.0
C615 C 0.47677 0.57378 0.24587 0.0
C616 C 0.46479 0.563 0.28685 0.0
C617 C 0.43483 0.52721 0.4051 0.0
C618 C 0.44427 0.54027 0.3647 0.0
H619 H 0.50798 0.62001 0.20815 0.0
H620 H 0.48582 0.60268 0.27203 0.0
H621 H 0.48575 0.58243 0.33688 0.0
H622 H 0.44713 0.50871 0.49643 0.0
H623 H 0.46199 0.53119 0.43272 0.0
C624 C 0.90412 0.40376 0.8028 0.0
C625 C 0.91299 0.41302 0.84428 0.0
C626 C 0.90213 0.4144 0.76663 0.0
C627 C 0.92587 0.46527 0.72503 0.0
H628 H 0.88414 0.44543 0.6354 0.0
C629 C 0.90165 0.49551 0.55665 0.0
C630 C 0.91997 0.50584 0.53502 0.0
C631 C 0.89898 0.48354 0.59481 0.0
C632 C 0.89582 0.45124 0.66039 0.0
H633 H 0.9252 0.44026 0.88167 0.0
H634 H 0.92121 0.45851 0.81967 0.0
H635 H 0.88164 0.42554 0.70243 0.0
H636 H 0.94969 0.5113 0.53632 0.0
H637 H 0.94502 0.49057 0.60197 0.0
H638 H 0.94003 0.49092 0.68362 0.0
C639 C 0.91639 0.44325 0.81418 0.0
C640 C 0.89448 0.43976 0.69857 0.0
C641 C 0.91855 0.43273 0.84994 0.0
C642 C 0.93541 0.50373 0.55216 0.0
C643 C 0.93276 0.49187 0.59011 0.0
C644 C 0.92721 0.47665 0.68706 0.0
C645 C 0.90884 0.43446 0.77141 0.0
C646 C 0.90955 0.44663 0.73135 0.0
C647 C 0.91459 0.48175 0.61228 0.0
C648 C 0.91234 0.46975 0.65391 0.0
H649 H 0.89976 0.38861 0.79732 0.0
H650 H 0.89628 0.40713 0.73419 0.0
H651 H 0.93793 0.471 0.74898 0.0
H652 H 0.88943 0.49678 0.54433 0.0
H653 H 0.88482 0.47603 0.6112 0.0
C654 C 0.4353 0.90926 0.83071 0.0
C655 C 0.41529 0.9028 0.83487 0.0
C656 C 0.44586 0.90814 0.86782 0.0
C657 C 0.46674 0.9196 0.95857 0.0
H658 H 0.4487 0.87802 0.04843 0.0
C659 C 0.50456 0.93155 0.13322 0.0
C660 C 0.50826 0.91704 0.14986 0.0
C661 C 0.49253 0.9281 0.09517 0.0
C662 C 0.45399 0.88969 0.02343 0.0
H663 H 0.39044 0.88896 0.88066 0.0
H664 H 0.409 0.88717 0.94606 0.0
H665 H 0.42888 0.87403 0.98013 0.0
H666 H 0.50176 0.88729 0.13975 0.0
H667 H 0.48067 0.88127 0.07285 0.0
H668 H 0.49177 0.93527 1.0013 0.0
C669 C 0.41648 0.893 0.91378 0.0
C670 C 0.44255 0.88748 0.98452 0.0
C671 C 0.40582 0.89402 0.87631 0.0
C672 C 0.49926 0.8988 0.12782 0.0
C673 C 0.4871 0.89532 0.08964 0.0
C674 C 0.47804 0.92184 0.99734 0.0
C675 C 0.43677 0.90067 0.91039 0.0
C676 C 0.44881 0.90243 0.95157 0.0
C677 C 0.48379 0.91003 0.07252 0.0
C678 C 0.4718 0.90701 0.03049 0.0
H679 H 0.44302 0.91588 0.7991 0.0
H680 H 0.46134 0.9137 0.86352 0.0
H681 H 0.47193 0.93157 0.93442 0.0
H682 H 0.51109 0.94573 0.14938 0.0
H683 H 0.49005 0.93965 0.08348 0.0
C684 C 0.52073 0.41202 0.21579 0.0
C685 C 0.50554 0.41551 0.20371 0.0
C686 C 0.53328 0.42215 0.25253 0.0
C687 C 0.5349 0.44741 0.3596 0.0
H688 H 0.59097 0.47775 0.3441 0.0
C689 C 0.5816 0.51051 0.48017 0.0
C690 C 0.60027 0.51435 0.49345 0.0
C691 C 0.57099 0.49655 0.44685 0.0
C692 C 0.57538 0.46908 0.34935 0.0
H693 H 0.49154 0.43224 0.22125 0.0
H694 H 0.51298 0.44939 0.28518 0.0
H695 H 0.57061 0.4563 0.28201 0.0
H696 H 0.62243 0.50641 0.48151 0.0
H697 H 0.60366 0.48168 0.4231 0.0
H698 H 0.53937 0.46006 0.42641 0.0
C699 C 0.51533 0.43896 0.26629 0.0
C700 C 0.56373 0.45682 0.31374 0.0
C701 C 0.50309 0.42917 0.22938 0.0
C702 C 0.60807 0.50379 0.47221 0.0
C703 C 0.59736 0.48969 0.43858 0.0
C704 C 0.54647 0.45945 0.39515 0.0
C705 C 0.53056 0.4356 0.27839 0.0
C706 C 0.54332 0.44632 0.31803 0.0
C707 C 0.57859 0.48582 0.4257 0.0
C708 C 0.56682 0.47097 0.39003 0.0
H709 H 0.52303 0.40162 0.19664 0.0
H710 H 0.5449 0.41927 0.26116 0.0
H711 H 0.51924 0.43923 0.36424 0.0
H712 H 0.57509 0.51839 0.49537 0.0
H713 H 0.55684 0.49439 0.43719 0.0
C714 C 0.07406 0.57398 0.78618 0.0
C715 C 0.08889 0.5917 0.80402 0.0
C716 C 0.07814 0.56393 0.75271 0.0
C717 C 0.11349 0.56906 0.66305 0.0
H718 H 0.08446 0.51267 0.66999 0.0
C719 C 0.11675 0.51422 0.52958 0.0
C720 C 0.09807 0.50137 0.51203 0.0
C721 C 0.11901 0.52642 0.56702 0.0
C722 C 0.0928 0.52841 0.66778 0.0
H723 H 0.11973 0.61288 0.79981 0.0
H724 H 0.12692 0.59512 0.74117 0.0
H725 H 0.08223 0.53181 0.73262 0.0
H726 H 0.0672 0.49132 0.52038 0.0
H727 H 0.07117 0.51203 0.58541 0.0
H728 H 0.1238 0.56535 0.59746 0.0
C729 C 0.11207 0.58911 0.75317 0.0
C730 C 0.09142 0.53941 0.70347 0.0
C731 C 0.10796 0.59926 0.78686 0.0
C732 C 0.08183 0.50102 0.53269 0.0
C733 C 0.08405 0.51284 0.57022 0.0
C734 C 0.11501 0.55798 0.62731 0.0
C735 C 0.09721 0.57118 0.73607 0.0
C736 C 0.10116 0.55986 0.70091 0.0
C737 C 0.10259 0.52559 0.58799 0.0
C738 C 0.10416 0.53754 0.62877 0.0
H739 H 0.05917 0.56775 0.79812 0.0
H740 H 0.0662 0.55045 0.73959 0.0
H741 H 0.12119 0.58477 0.65989 0.0
H742 H 0.12954 0.51484 0.51441 0.0
H743 H 0.13347 0.53616 0.58018 0.0
C744 C 0.37807 0.95582 0.86982 0.0
C745 C 0.39315 0.9612 0.83759 0.0
C746 C 0.3806 0.96766 0.90789 0.0
C747 C 0.41314 0.0172 0.957 0.0
H748 H 0.39598 0.99013 0.07347 0.0
C749 C 0.43211 0.05848 0.13125 0.0
C750 C 0.43898 0.05071 0.16505 0.0
C751 C 0.42324 0.04787 0.09119 0.0
C752 C 0.40086 0.99794 0.04124 0.0
H753 H 0.42246 0.98365 0.81936 0.0
H754 H 0.42697 1.004 0.88579 0.0
H755 H 0.38698 0.97157 1.00239 0.0
H756 H 0.44136 0.02546 0.18378 0.0
H757 H 0.42621 0.00726 0.11453 0.0
H758 H 0.42793 0.04351 0.99623 0.0
C759 C 0.41306 0.99081 0.8815 0.0
C760 C 0.39549 0.98729 1.00033 0.0
C761 C 0.41051 0.97903 0.84345 0.0
C762 C 0.43627 0.03195 0.15852 0.0
C763 C 0.4274 0.02139 0.11883 0.0
C764 C 0.41857 0.02786 0.998 0.0
C765 C 0.39828 0.98514 0.91471 0.0
C766 C 0.40195 0.99672 0.95769 0.0
C767 C 0.42096 0.02925 0.08435 0.0
C768 C 0.41293 0.01831 0.04069 0.0
H769 H 0.36446 0.94224 0.86625 0.0
H770 H 0.36879 0.96296 0.93236 0.0
H771 H 0.41812 0.02499 0.92477 0.0
H772 H 0.43399 0.0729 0.13521 0.0
H773 H 0.41831 0.0543 0.06545 0.0
C774 C 0.43063 0.36106 0.24319 0.0
C775 C 0.42319 0.35833 0.19851 0.0
C776 C 0.41931 0.36063 0.28055 0.0
C777 C 0.37864 0.37026 0.30089 0.0
H778 H 0.39165 0.36698 0.42749 0.0
C779 C 0.37518 0.41917 0.44075 0.0
C780 C 0.37414 0.41394 0.48702 0.0
C781 C 0.375 0.40678 0.40634 0.0
C782 C 0.38736 0.36761 0.39253 0.0
H783 H 0.39776 0.35135 0.15764 0.0
H784 H 0.37736 0.34896 0.22295 0.0
H785 H 0.40184 0.35278 0.36768 0.0
H786 H 0.37099 0.39148 0.53416 0.0
H787 H 0.36935 0.36916 0.47419 0.0
H788 H 0.36373 0.38463 0.32582 0.0
C789 C 0.39216 0.35229 0.22946 0.0
C790 C 0.39356 0.35971 0.35791 0.0
C791 C 0.40367 0.35322 0.19203 0.0
C792 C 0.37157 0.39563 0.49846 0.0
C793 C 0.37097 0.38303 0.46406 0.0
C794 C 0.37208 0.37777 0.33558 0.0
C795 C 0.4002 0.35722 0.27392 0.0
C796 C 0.39006 0.36168 0.31137 0.0
C797 C 0.37357 0.38878 0.41758 0.0
C798 C 0.37708 0.37735 0.38175 0.0
H799 H 0.44583 0.36552 0.24876 0.0
H800 H 0.42626 0.3647 0.31386 0.0
H801 H 0.37565 0.37228 0.26568 0.0
H802 H 0.37763 0.43346 0.43137 0.0
H803 H 0.37736 0.41201 0.37128 0.0
C804 C 0.04019 0.40719 0.51651 0.0
C805 C 0.06058 0.41871 0.51406 0.0
C806 C 0.03097 0.39873 0.55786 0.0
C807 C 0.03979 0.40829 0.68173 0.0
H808 H 0.98664 0.36536 0.68751 0.0
C809 C 0.98668 0.40591 0.81855 0.0
C810 C 0.97124 0.38805 0.83403 0.0
C811 C 0.99899 0.40655 0.78341 0.0
C812 C 1.00158 0.37718 0.68713 0.0
H813 H 0.08743 0.42888 0.55208 0.0
H814 H 0.0713 0.41356 0.62462 0.0
H815 H 1.00614 0.36971 0.61951 0.0
H816 H 0.95688 0.35676 0.8254 0.0
H817 H 0.97878 0.35777 0.76488 0.0
H818 H 0.03542 0.41552 0.74972 0.0
C819 C 0.06239 0.41151 0.59464 0.0
C820 C 0.01274 0.37985 0.64765 0.0
C821 C 0.07168 0.42009 0.55295 0.0
C822 C 0.96856 0.37077 0.81395 0.0
C823 C 0.9811 0.37138 0.77911 0.0
C824 C 0.02876 0.40542 0.72152 0.0
C825 C 0.04187 0.40143 0.59806 0.0
C826 C 0.03171 0.39596 0.64354 0.0
C827 C 0.99645 0.38932 0.76314 0.0
C828 C 0.0092 0.39034 0.72403 0.0
H829 H 0.03121 0.40573 0.48701 0.0
H830 H 0.01521 0.39131 0.55871 0.0
H831 H 0.05428 0.42089 0.68016 0.0
H832 H 0.98908 0.41953 0.83301 0.0
H833 H 0.01022 0.42069 0.77146 0.0
C834 C 0.59205 0.94444 0.12456 0.0
C835 C 0.59257 0.95428 0.1651 0.0
C836 C 0.60262 0.95494 0.0857 0.0
C837 C 0.64014 1.00472 0.04413 0.0
H838 H 0.60744 0.98992 0.93586 0.0
C839 C 0.64889 0.05843 0.89764 0.0
C840 C 0.64244 0.0508 0.8535 0.0
C841 C 0.64751 0.0461 0.93395 0.0
C842 C 0.61705 0.99415 0.96529 0.0
H843 H 0.60588 0.98256 0.19801 0.0
H844 H 0.6242 1.00069 0.13108 0.0
H845 H 0.59689 0.96865 1.00232 0.0
H846 H 0.63125 0.02484 0.81166 0.0
H847 H 0.62968 1.00363 0.87402 0.0
H848 H 0.65999 0.03063 0.00732 0.0
C849 C 0.61574 0.98497 0.12874 0.0
C850 C 0.61096 0.98184 1.0036 0.0
C851 C 0.60512 0.97454 0.16722 0.0
C852 C 0.63626 0.03109 0.84545 0.0
C853 C 0.63513 0.01888 0.88137 0.0
C854 C 0.64626 0.01707 0.00568 0.0
C855 C 0.61404 0.97544 0.08686 0.0
C856 C 0.62219 0.98713 0.04394 0.0
C857 C 0.6398 0.02597 0.92657 0.0
C858 C 0.63462 0.01211 0.966 0.0
H859 H 0.58243 0.92885 0.1218 0.0
H860 H 0.6012 0.94709 0.05418 0.0
H861 H 0.64929 0.00918 0.07441 0.0
H862 H 0.65346 0.07351 0.90491 0.0
H863 H 0.6512 0.05211 0.96826 0.0
C864 C 0.65783 0.59628 0.44602 0.0
C865 C 0.65057 0.59986 0.48657 0.0
C866 C 0.65752 0.60538 0.40494 0.0
C867 C 0.64568 0.64193 0.35433 0.0
H868 H 0.61866 0.6014 0.26379 0.0
C869 C 0.59188 0.64233 0.219 0.0
C870 C 0.5901 0.63278 0.1772 0.0
C871 C 0.60461 0.64266 0.25304 0.0
C872 C 0.62655 0.61311 0.28804 0.0
H873 H 0.63949 0.61725 0.51749 0.0
H874 H 0.63896 0.63303 0.44657 0.0
H875 H 0.63354 0.59519 0.32925 0.0
H876 H 0.6014 0.61779 0.13624 0.0
H877 H 0.62393 0.61897 0.1944 0.0
H878 H 0.63782 0.65953 0.31359 0.0
C879 C 0.64487 0.62332 0.44577 0.0
C880 C 0.6352 0.60954 0.32569 0.0
C881 C 0.64508 0.61418 0.48652 0.0
C882 C 0.60221 0.62491 0.16862 0.0
C883 C 0.61507 0.62551 0.20205 0.0
C884 C 0.63698 0.64552 0.31648 0.0
C885 C 0.65004 0.61823 0.40402 0.0
C886 C 0.64447 0.6237 0.35995 0.0
C887 C 0.6159 0.63367 0.24538 0.0
C888 C 0.62695 0.63098 0.28335 0.0
H889 H 0.66207 0.58524 0.44518 0.0
H890 H 0.66194 0.60142 0.37343 0.0
H891 H 0.65286 0.65323 0.3799 0.0
H892 H 0.58268 0.64852 0.22632 0.0
H893 H 0.60483 0.64902 0.28609 0.0
C894 C 0.04024 0.64677 0.81538 0.0
C895 C 0.05594 0.64362 0.80797 0.0
C896 C 0.02876 0.64654 0.77855 0.0
C897 C 0.02323 0.64041 0.64954 0.0
H898 H 0.96835 0.61466 0.68057 0.0
C899 C 0.96663 0.60734 0.50573 0.0
C900 C 0.95029 0.58913 0.51509 0.0
C901 C 0.97831 0.6192 0.54151 0.0
C902 C 0.98358 0.62168 0.671 0.0
H903 H 0.07241 0.63831 0.75661 0.0
H904 H 0.05217 0.63707 0.69259 0.0
H905 H 0.99233 0.62593 0.74121 0.0
H906 H 0.93283 0.56924 0.56885 0.0
H907 H 0.95348 0.58924 0.63122 0.0
H908 H 0.01446 0.63441 0.57953 0.0
C909 C 0.04893 0.64058 0.72618 0.0
C910 C 0.99751 0.6286 0.70611 0.0
C911 C 0.0607 0.64134 0.76294 0.0
C912 C 0.9451 0.58346 0.56089 0.0
C913 C 0.9571 0.59503 0.59671 0.0
C914 C 0.00929 0.63304 0.61448 0.0
C915 C 0.03227 0.64237 0.73362 0.0
C916 C 0.01759 0.63766 0.69604 0.0
C917 C 0.97438 0.61274 0.58748 0.0
C918 C 0.98918 0.6231 0.62461 0.0
H919 H 0.03612 0.64823 0.85004 0.0
H920 H 0.01653 0.64864 0.78585 0.0
H921 H 0.03846 0.64773 0.63994 0.0
H922 H 0.97102 0.61189 0.47053 0.0
H923 H 0.99099 0.63297 0.53272 0.0
C924 C 0.51036 0.05578 0.43094 0.0
C925 C 0.5023 0.03925 0.40238 0.0
C926 C 0.52296 0.05769 0.4667 0.0
C927 C 0.54838 0.03244 0.51548 0.0
H928 H 0.59096 0.07475 0.45032 0.0
C929 C 0.57833 0.00815 0.38916 0.0
C930 C 0.57238 0.01327 0.34844 0.0
C931 C 0.58333 0.02004 0.42802 0.0
C932 C 0.57957 0.06302 0.47019 0.0
H933 H 0.49971 0.01123 0.39059 0.0
H934 H 0.52168 0.0143 0.45227 0.0
H935 H 0.56305 0.07752 0.47231 0.0
H936 H 0.56854 0.03537 0.31507 0.0
H937 H 0.57644 0.05585 0.38236 0.0
H938 H 0.5635 0.0168 0.50698 0.0
C939 C 0.51818 0.02579 0.44826 0.0
C940 C 0.56342 0.06463 0.4831 0.0
C941 C 0.50573 0.024 0.41236 0.0
C942 C 0.5731 0.0312 0.34607 0.0
C943 C 0.57793 0.04303 0.38488 0.0
C944 C 0.56435 0.03071 0.50168 0.0
C945 C 0.52785 0.04314 0.47424 0.0
C946 C 0.54636 0.04784 0.49783 0.0
C947 C 0.58179 0.03696 0.42739 0.0
C948 C 0.57797 0.04454 0.47082 0.0
H949 H 0.50806 0.06787 0.42339 0.0
H950 H 0.53014 0.07121 0.48581 0.0
H951 H 0.53595 0.01987 0.53048 0.0
H952 H 0.57739 0.99412 0.39253 0.0
H953 H 0.58643 0.01496 0.45973 0.0
C954 C 0.46724 0.45307 0.70851 0.0
C955 C 0.47204 0.46114 0.66399 0.0
C956 C 0.47888 0.46342 0.746 0.0
C957 C 0.5247 0.50406 0.78382 0.0
H958 H 0.50046 0.53608 0.78716 0.0
C959 C 0.54087 0.56333 0.67602 0.0
C960 C 0.56087 0.56975 0.67637 0.0
C961 C 0.52983 0.5557 0.71594 0.0
C962 C 0.50745 0.52731 0.78844 0.0
H963 H 0.49494 0.48339 0.62227 0.0
H964 H 0.5161 0.50042 0.68677 0.0
H965 H 0.48046 0.50111 0.77658 0.0
H966 H 0.58553 0.57717 0.7213 0.0
H967 H 0.56651 0.56471 0.79041 0.0
H968 H 0.55185 0.5302 0.78881 0.0
C969 C 0.50273 0.48685 0.69329 0.0
C970 C 0.49593 0.50718 0.78267 0.0
C971 C 0.49067 0.47708 0.65623 0.0
C972 C 0.57016 0.57229 0.71918 0.0
C973 C 0.55914 0.56491 0.75923 0.0
C974 C 0.53621 0.52415 0.78963 0.0
C975 C 0.49616 0.481 0.73853 0.0
C976 C 0.50482 0.49594 0.77457 0.0
C977 C 0.53872 0.55416 0.75655 0.0
C978 C 0.52782 0.53613 0.78472 0.0
H979 H 0.45345 0.44002 0.71493 0.0
H980 H 0.47366 0.45856 0.7806 0.0
H981 H 0.53176 0.49554 0.77854 0.0
H982 H 0.5334 0.56157 0.6437 0.0
H983 H 0.51413 0.54817 0.71241 0.0
C984 C 0.95607 0.45446 0.0857 0.0
C985 C 0.97394 0.46261 0.06196 0.0
C986 C 0.95169 0.46607 0.11363 0.0
C987 C 0.97145 0.51877 0.14424 0.0
H988 H 0.92688 0.50981 0.07166 0.0
C989 C 0.989 0.57145 0.01523 0.0
C990 C 0.98614 0.56074 0.97455 0.0
C991 C 0.97665 0.56301 0.05293 0.0
C992 C 0.93921 0.51267 0.0931 0.0
H993 H 1.00189 0.48845 0.05257 0.0
H994 H 0.99452 0.50885 0.10086 0.0
H995 H 0.92896 0.48239 0.10056 0.0
H996 H 0.96684 0.53402 0.93938 0.0
H997 H 0.94582 0.51889 1.00473 0.0
H998 H 0.98313 0.54888 0.13085 0.0
C999 C 0.98378 0.49352 0.09881 0.0
C1000 C 0.94039 0.49682 0.11014 0.0
C1001 C 0.98809 0.48192 0.07065 0.0
C1002 C 0.96939 0.54247 0.97044 0.0
C1003 C 0.95721 0.53391 0.00824 0.0
C1004 C 0.9705 0.53459 0.12618 0.0
C1005 C 0.96498 0.48607 0.118 0.0
C1006 C 0.95798 0.49986 0.12968 0.0
C1007 C 0.96176 0.54342 0.0513 0.0
C1008 C 0.95586 0.53131 0.09399 0.0
H1009 H 0.94474 0.43962 0.07911 0.0
H1010 H 0.93718 0.45985 0.12785 0.0
H1011 H 0.9845 0.52149 0.16223 0.0
H1012 H 1.00195 0.58543 0.02016 0.0
H1013 H 0.98028 0.57104 0.08492 0.0
C1014 C 0.01864 0.47721 0.27821 0.0
C1015 C 0.02988 0.48242 0.31843 0.0
C1016 C 0.02253 0.49121 0.24404 0.0
C1017 C 0.05727 0.54442 0.21835 0.0
H1018 H 0.0085 0.54416 0.21267 0.0
C1019 C 0.03429 0.57213 0.3469 0.0
C1020 C 0.01666 0.57212 0.3436 0.0
C1021 C 0.04456 0.5729 0.3072 0.0
C1022 C 0.02247 0.5448 0.21209 0.0
H1023 H 0.05439 0.50569 0.35386 0.0
H1024 H 0.06046 0.53019 0.29695 0.0
H1025 H 0.00834 0.51391 0.20855 0.0
H1026 H 0.99743 0.57571 0.29647 0.0
H1027 H 0.01547 0.57744 0.22791 0.0
H1028 H 0.07087 0.5751 0.23027 0.0
C1029 C 0.0491 0.51541 0.28996 0.0
C1030 C 0.02234 0.52717 0.20982 0.0
C1031 C 0.04527 0.50153 0.32354 0.0
C1032 C 0.01112 0.576 0.30065 0.0
C1033 C 0.02148 0.57693 0.26097 0.0
C1034 C 0.05731 0.56203 0.22202 0.0
C1035 C 0.03772 0.5106 0.24978 0.0
C1036 C 0.03942 0.52673 0.22029 0.0
C1037 C 0.03698 0.57315 0.26349 0.0
C1038 C 0.03948 0.56172 0.22632 0.0
H1039 H 1.00702 0.46236 0.27327 0.0
H1040 H 0.01341 0.48698 0.21372 0.0
H1041 H 0.07092 0.54456 0.22292 0.0
H1042 H 0.0389 0.56929 0.37962 0.0
H1043 H 0.05662 0.5702 0.31083 0.0
C1044 C 0.45557 0.93656 0.58846 0.0
C1045 C 0.46141 0.95567 0.60242 0.0
C1046 C 0.46675 0.93307 0.55686 0.0
C1047 C 0.51464 0.95976 0.49432 0.0
H1048 H 0.52753 0.93645 0.59501 0.0
C1049 C 0.54943 1.00139 0.63281 0.0
C1050 C 0.56138 0.99925 0.66481 0.0
C1051 C 0.54341 0.99001 0.59345 0.0
C1052 C 0.52448 0.94257 0.565 0.0
H1053 H 0.4818 0.98608 0.59119 0.0
H1054 H 0.5012 0.98034 0.53531 0.0
H1055 H 0.49416 0.92256 0.57135 0.0
H1056 H 0.57638 0.98351 0.68139 0.0
H1057 H 0.56458 0.96232 0.61299 0.0
H1058 H 0.54486 0.98129 0.49265 0.0
C1059 C 0.48816 0.96785 0.54847 0.0
C1060 C 0.50508 0.9346 0.55135 0.0
C1061 C 0.47724 0.97129 0.58089 0.0
C1062 C 0.56701 0.98524 0.6571 0.0
C1063 C 0.56066 0.97349 0.61769 0.0
C1064 C 0.53409 0.9676 0.50778 0.0
C1065 C 0.48385 0.94865 0.53843 0.0
C1066 C 0.49991 0.94551 0.52225 0.0
C1067 C 0.54884 0.97585 0.58532 0.0
C1068 C 0.5382 0.96117 0.54916 0.0
H1069 H 0.44325 0.92432 0.60482 0.0
H1070 H 0.46306 0.91818 0.55027 0.0
H1071 H 0.51114 0.9676 0.46911 0.0
H1072 H 0.54466 0.01186 0.63848 0.0
H1073 H 0.53357 0.99164 0.57052 0.0
C1074 C 0.51943 0.52541 0.96266 0.0
C1075 C 0.52449 0.54496 0.96638 0.0
C1076 C 0.50472 0.51308 0.9325 0.0
C1077 C 0.45917 0.50943 0.90402 0.0
H1078 H 0.44973 0.45696 0.89027 0.0
C1079 C 0.43355 0.46157 0.04178 0.0
C1080 C 0.43175 0.44314 0.03789 0.0
C1081 C 0.43204 0.47102 1.00285 0.0
C1082 C 0.45154 0.47139 0.89265 0.0
H1083 H 0.51933 0.56739 0.93843 0.0
H1084 H 0.49405 0.54604 0.88522 0.0
H1085 H 0.4805 0.48386 0.86647 0.0
H1086 H 0.42376 0.41894 0.99116 0.0
H1087 H 0.42007 0.43486 0.92455 0.0
H1088 H 0.43087 0.49693 0.93441 0.0
C1089 C 0.50136 0.54014 0.90555 0.0
C1090 C 0.46946 0.48696 0.879 0.0
C1091 C 0.51602 0.55243 0.93586 0.0
C1092 C 0.42504 0.43302 0.99605 0.0
C1093 C 0.42318 0.44234 0.95726 0.0
C1094 C 0.44117 0.49381 0.91738 0.0
C1095 C 0.49455 0.52005 0.90597 0.0
C1096 C 0.47434 0.50602 0.89084 0.0
C1097 C 0.42893 0.4622 0.95917 0.0
C1098 C 0.43855 0.47493 0.91854 0.0
H1099 H 0.52572 0.51936 0.98589 0.0
H1100 H 0.49994 0.49769 0.93417 0.0
H1101 H 0.462 0.52398 0.91161 0.0
H1102 H 0.43851 0.46958 0.07371 0.0
H1103 H 0.4362 0.48619 0.00644 0.0
C1104 C 0.36417 0.94112 0.59535 0.0
C1105 C 0.36538 0.94527 0.64243 0.0
C1106 C 0.36471 0.9545 0.56307 0.0
C1107 C 0.38754 0.00714 0.55182 0.0
H1108 H 0.36253 0.99489 0.43255 0.0
C1109 C 0.41931 0.0631 0.40483 0.0
C1110 C 0.42199 0.05502 0.36452 0.0
C1111 C 0.40665 0.0509 0.43933 0.0
C1112 C 0.36965 0.99861 0.46572 0.0
H1113 H 0.36752 0.96618 0.69307 0.0
H1114 H 0.36818 0.98949 0.63684 0.0
H1115 H 0.35037 0.97013 0.49284 0.0
H1116 H 0.4126 0.02823 0.32696 0.0
H1117 H 0.39073 0.00717 0.3861 0.0
H1118 H 0.4076 0.03513 0.52415 0.0
C1119 C 0.36669 0.9759 0.62471 0.0
C1120 C 0.36264 0.9844 0.50028 0.0
C1121 C 0.36602 0.96246 0.65691 0.0
C1122 C 0.41069 0.03484 0.35766 0.0
C1123 C 0.39806 0.02274 0.39169 0.0
C1124 C 0.39467 0.02129 0.51717 0.0
C1125 C 0.36683 0.97243 0.57736 0.0
C1126 C 0.37187 0.98831 0.54331 0.0
C1127 C 0.39643 0.03047 0.43382 0.0
C1128 C 0.38625 0.01701 0.47311 0.0
H1129 H 0.36434 0.92826 0.58342 0.0
H1130 H 0.36505 0.95146 0.52691 0.0
H1131 H 0.39516 0.01061 0.58437 0.0
H1132 H 0.42805 0.0786 0.41117 0.0
H1133 H 0.40558 0.05739 0.47112 0.0
C1134 C 0.40674 0.36112 0.99166 0.0
C1135 C 0.4244 0.36118 0.98692 0.0
C1136 C 0.39689 0.36232 0.95313 0.0
C1137 C 0.40909 0.38071 0.83337 0.0
H1138 H 0.3552 0.36869 0.83156 0.0
C1139 C 0.37866 0.40041 0.67891 0.0
C1140 C 0.37335 0.4145 0.68866 0.0
C1141 C 0.38038 0.3894 0.71399 0.0
C1142 C 0.37027 0.37211 0.83176 0.0
H1143 H 0.44435 0.35994 0.93824 0.0
H1144 H 0.42641 0.36047 0.87041 0.0
H1145 H 0.36644 0.35542 0.89267 0.0
H1146 H 0.36428 0.42717 0.74227 0.0
H1147 H 0.36689 0.40738 0.8043 0.0
H1148 H 0.41272 0.39705 0.77197 0.0
C1149 C 0.42064 0.36065 0.90401 0.0
C1150 C 0.3768 0.36458 0.86681 0.0
C1151 C 0.43073 0.35985 0.94283 0.0
C1152 C 0.36804 0.41614 0.73377 0.0
C1153 C 0.36968 0.40494 0.76919 0.0
C1154 C 0.40247 0.38785 0.79804 0.0
C1155 C 0.40426 0.36316 0.90867 0.0
C1156 C 0.39642 0.369 0.86854 0.0
C1157 C 0.37675 0.39215 0.7597 0.0
C1158 C 0.38308 0.38381 0.79709 0.0
H1159 H 0.40139 0.3618 0.02547 0.0
H1160 H 0.38439 0.36415 0.95877 0.0
H1161 H 0.42439 0.38505 0.83375 0.0
H1162 H 0.38293 0.39894 0.64441 0.0
H1163 H 0.3857 0.37955 0.70572 0.0
C1164 C 0.97881 0.36809 0.00902 0.0
C1165 C 0.96045 0.36405 0.02501 0.0
C1166 C 0.99252 0.36813 0.03922 0.0
C1167 C 1.00119 0.35748 0.15863 0.0
H1168 H 0.04846 0.40757 0.14758 0.0
C1169 C 0.04639 0.40038 0.31241 0.0
C1170 C 0.06596 0.41494 0.30723 0.0
C1171 C 0.03595 0.38861 0.27553 0.0
C1172 C 0.03571 0.39325 0.15077 0.0
H1173 H 0.94152 0.35598 0.08424 0.0
H1174 H 0.96548 0.35596 0.13752 0.0
H1175 H 0.02451 0.39637 0.08658 0.0
H1176 H 0.09053 0.42759 0.26068 0.0
H1177 H 0.07233 0.40663 0.19567 0.0
H1178 H 0.01219 0.35469 0.22367 0.0
C1179 C 0.96921 0.35874 0.10145 0.0
C1180 C 0.02185 0.38683 0.11567 0.0
C1181 C 0.95543 0.35866 0.07102 0.0
C1182 C 0.07548 0.41634 0.26558 0.0
C1183 C 0.06495 0.40451 0.22829 0.0
C1184 C 0.01518 0.36381 0.19362 0.0
C1185 C 0.98821 0.36437 0.08621 0.0
C1186 C 1.00413 0.36919 0.11987 0.0
C1187 C 0.0448 0.39113 0.23228 0.0
C1188 C 0.03228 0.38217 0.19099 0.0
H1189 H 0.98305 0.37259 0.97372 0.0
H1190 H 1.00691 0.37228 0.0263 0.0
H1191 H 0.98781 0.3437 0.16257 0.0
H1192 H 0.03871 0.39907 0.34424 0.0
H1193 H 0.0205 0.37871 0.28019 0.0
C1194 C 0.65162 0.04908 0.65235 0.0
C1195 C 0.64573 0.0629 0.6457 0.0
C1196 C 0.64904 0.03581 0.6175 0.0
C1197 C 0.63556 0.02315 0.49446 0.0
H1198 H 0.60866 0.97003 0.53989 0.0
C1199 C 0.60441 0.95841 0.36929 0.0
C1200 C 0.58462 0.94502 0.37671 0.0
C1201 C 0.61554 0.97174 0.40361 0.0
C1202 C 0.61627 0.98477 0.52665 0.0
H1203 H 0.63312 0.07419 0.59731 0.0
H1204 H 0.62904 0.05145 0.53604 0.0
H1205 H 0.62254 0.99708 0.59418 0.0
H1206 H 0.56108 0.93451 0.426 0.0
H1207 H 0.58055 0.95725 0.48651 0.0
H1208 H 0.62847 0.01082 0.42695 0.0
C1209 C 0.63596 0.05096 0.56769 0.0
C1210 C 0.62441 1.0003 0.55775 0.0
C1211 C 0.63848 0.06414 0.60261 0.0
C1212 C 0.5765 0.94422 0.42008 0.0
C1213 C 0.58764 0.95741 0.45454 0.0
C1214 C 0.62753 0.00761 0.46335 0.0
C1215 C 0.6404 0.03607 0.57544 0.0
C1216 C 0.6339 0.0197 0.54208 0.0
C1217 C 0.60706 0.97188 0.446 0.0
C1218 C 0.61753 0.98823 0.47907 0.0
H1219 H 0.65662 0.04742 0.6858 0.0
H1220 H 0.6528 0.02466 0.62441 0.0
H1221 H 0.64276 0.03789 0.48122 0.0
H1222 H 0.61079 0.95977 0.33558 0.0
H1223 H 0.63049 0.98261 0.39608 0.0
C1224 C 0.59698 0.65291 0.9404 0.0
C1225 C 0.5973 0.64705 0.98571 0.0
C1226 C 0.61054 0.6536 0.90823 0.0
C1227 C 0.63505 0.62615 0.88752 0.0
H1228 H 0.65957 0.66102 0.78467 0.0
C1229 C 0.66168 0.59979 0.73697 0.0
C1230 C 0.65551 0.60298 0.69437 0.0
C1231 C 0.66223 0.61075 0.77538 0.0
C1232 C 0.65277 0.65106 0.81309 0.0
H1233 H 0.61272 0.63891 0.03415 0.0
H1234 H 0.63651 0.6405 0.97858 0.0
H1235 H 0.64511 0.67048 0.84662 0.0
H1236 H 0.64753 0.62152 0.65687 0.0
H1237 H 0.64779 0.64003 0.72309 0.0
H1238 H 0.64118 0.60609 0.85327 0.0
C1239 C 0.62581 0.64435 0.96752 0.0
C1240 C 0.64455 0.65657 0.84862 0.0
C1241 C 0.61232 0.64362 0.99939 0.0
C1242 C 0.6521 0.61864 0.68961 0.0
C1243 C 0.6524 0.62939 0.7278 0.0
C1244 C 0.64293 0.62052 0.85182 0.0
C1245 C 0.62446 0.64835 0.92113 0.0
C1246 C 0.6353 0.644 0.88581 0.0
C1247 C 0.6564 0.62489 0.77177 0.0
C1248 C 0.6515 0.63265 0.81344 0.0
H1249 H 0.58528 0.65522 0.92893 0.0
H1250 H 0.60908 0.65662 0.87261 0.0
H1251 H 0.62776 0.61599 0.91537 0.0
H1252 H 0.66439 0.58778 0.74149 0.0
H1253 H 0.66599 0.60725 0.80839 0.0
C1254 C 0.06187 0.63594 0.06583 0.0
C1255 C 0.05811 0.64138 0.02284 0.0
C1256 C 0.049 0.63206 0.10254 0.0
C1257 C 1.00697 0.63537 0.14678 0.0
H1258 H 0.98915 0.58287 0.19034 0.0
C1259 C 0.95653 0.59837 0.30542 0.0
C1260 C 0.94319 0.57834 0.3021 0.0
C1261 C 0.96903 0.60838 0.26869 0.0
C1262 C 0.99387 0.59751 0.17838 0.0
H1263 H 0.03881 0.64828 0.98519 0.0
H1264 H 0.01676 0.64235 0.04985 0.0
H1265 H 0.0162 0.59788 0.13624 0.0
H1266 H 0.9318 0.55324 0.25749 0.0
H1267 H 0.95327 0.5707 0.19298 0.0
H1268 H 0.9846 0.63492 0.18955 0.0
C1269 C 0.0296 0.64108 0.0553 0.0
C1270 C 0.00956 0.60621 0.14787 0.0
C1271 C 0.04235 0.6447 0.01843 0.0
C1272 C 0.94154 0.56881 0.26036 0.0
C1273 C 0.95409 0.57874 0.2238 0.0
C1274 C 0.99143 0.62675 0.1781 0.0
C1275 C 0.03223 0.63371 0.09695 0.0
C1276 C 0.0163 0.62523 0.13164 0.0
C1277 C 0.96859 0.59841 0.22835 0.0
C1278 C 0.98462 0.60765 0.19396 0.0
H1279 H 0.07357 0.63271 0.0697 0.0
H1280 H 0.05145 0.62653 0.13438 0.0
H1281 H 0.0118 0.65 0.13463 0.0
H1282 H 0.95856 0.60585 0.33785 0.0
H1283 H 0.98012 0.62347 0.27341 0.0
C1284 C 0.52651 0.12909 0.38734 0.0
C1285 C 0.5069 0.11473 0.39323 0.0
C1286 C 0.53996 0.13325 0.42301 0.0
C1287 C 0.54412 0.12534 0.54766 0.0
H1288 H 0.58913 0.12124 0.51183 0.0
C1289 C 0.58042 0.09616 0.6684 0.0
C1290 C 0.60084 0.10488 0.66958 0.0
C1291 C 0.5713 0.10211 0.6366 0.0
C1292 C 0.57688 0.12285 0.52238 0.0
H1293 H 0.48578 0.09399 0.44088 0.0
H1294 H 0.50891 0.10155 0.50331 0.0
H1295 H 0.56862 0.12394 0.45276 0.0
H1296 H 0.62773 0.12689 0.63832 0.0
H1297 H 0.6116 0.13722 0.58165 0.0
H1298 H 0.55184 0.12336 0.61712 0.0
C1299 C 0.51404 0.10978 0.47166 0.0
C1300 C 0.56514 0.12441 0.48855 0.0
C1301 C 0.50073 0.10548 0.43599 0.0
C1302 C 0.61198 0.12 0.63845 0.0
C1303 C 0.60276 0.12581 0.6059 0.0
C1304 C 0.55582 0.12376 0.58137 0.0
C1305 C 0.53394 0.12323 0.46517 0.0
C1306 C 0.54829 0.1251 0.5008 0.0
C1307 C 0.58228 0.11685 0.60463 0.0
C1308 C 0.572 0.1219 0.56912 0.0
H1309 H 0.53169 0.13599 0.35419 0.0
H1310 H 0.55518 0.14373 0.41702 0.0
H1311 H 0.53142 0.12612 0.55827 0.0
H1312 H 0.57137 0.08446 0.69182 0.0
H1313 H 0.55552 0.0947 0.63615 0.0
C1314 C 0.43654 0.51404 0.68985 0.0
C1315 C 0.41616 0.50429 0.6846 0.0
C1316 C 0.44578 0.52877 0.72231 0.0
C1317 C 0.43943 0.54649 0.83215 0.0
H1318 H 0.48737 0.59296 0.79704 0.0
C1319 C 0.49039 0.60427 0.96567 0.0
C1320 C 0.50974 0.60835 0.96184 0.0
C1321 C 0.47704 0.59442 0.93011 0.0
C1322 C 0.47397 0.58012 0.80742 0.0
H1323 H 0.3895 0.50236 0.70984 0.0
H1324 H 0.40584 0.52821 0.76768 0.0
H1325 H 0.46713 0.56972 0.7383 0.0
H1326 H 0.53058 0.60621 0.91773 0.0
H1327 H 0.50766 0.58948 0.85586 0.0
H1328 H 0.44683 0.55652 0.90168 0.0
C1329 C 0.41454 0.52438 0.74604 0.0
C1330 C 0.46238 0.56682 0.77378 0.0
C1331 C 0.40522 0.50968 0.71286 0.0
C1332 C 0.51578 0.60341 0.92125 0.0
C1333 C 0.50262 0.59384 0.88575 0.0
C1334 C 0.45111 0.55983 0.86599 0.0
C1335 C 0.43495 0.53412 0.75084 0.0
C1336 C 0.4453 0.54958 0.78586 0.0
C1337 C 0.48298 0.5888 0.89009 0.0
C1338 C 0.46882 0.5765 0.85408 0.0
H1339 H 0.44547 0.51027 0.66886 0.0
H1340 H 0.46148 0.53575 0.72566 0.0
H1341 H 0.42641 0.53326 0.8425 0.0
H1342 H 0.48534 0.60762 0.99709 0.0
H1343 H 0.462 0.59077 0.93436 0.0
C1344 C 0.90453 0.38578 0.09261 0.0
C1345 C 0.89945 0.38887 0.04853 0.0
C1346 C 0.90215 0.39512 0.13078 0.0
C1347 C 0.88126 0.42519 0.1732 0.0
H1348 H 0.93017 0.45255 0.23905 0.0
C1349 C 0.89924 0.49058 0.29411 0.0
C1350 C 0.91246 0.49459 0.33023 0.0
C1351 C 0.89537 0.4757 0.26248 0.0
C1352 C 0.91615 0.44475 0.22221 0.0
H1353 H 0.8873 0.40355 0.00979 0.0
H1354 H 0.88261 0.41954 0.07656 0.0
H1355 H 0.92567 0.42844 0.18224 0.0
H1356 H 0.93116 0.48555 0.36313 0.0
H1357 H 0.92357 0.459 0.31046 0.0
H1358 H 0.87158 0.44126 0.21381 0.0
C1359 C 0.88817 0.40968 0.0819 0.0
C1360 C 0.9136 0.43085 0.18929 0.0
C1361 C 0.89067 0.40038 0.04367 0.0
C1362 C 0.92109 0.48296 0.33524 0.0
C1363 C 0.91685 0.4678 0.30454 0.0
C1364 C 0.88362 0.43879 0.2071 0.0
C1365 C 0.89473 0.40787 0.12557 0.0
C1366 C 0.89627 0.42109 0.16384 0.0
C1367 C 0.9043 0.46418 0.2669 0.0
C1368 C 0.90121 0.44898 0.23187 0.0
H1369 H 0.91192 0.37749 0.09701 0.0
H1370 H 0.90719 0.39328 0.16398 0.0
H1371 H 0.86768 0.41783 0.15435 0.0
H1372 H 0.89248 0.49942 0.28925 0.0
H1373 H 0.88584 0.47368 0.23385 0.0
C1374 C 0.49565 0.89462 0.39045 0.0
C1375 C 0.49823 0.9072 0.35378 0.0
C1376 C 0.48017 0.88907 0.42153 0.0
C1377 C 0.44391 0.90385 0.45866 0.0
H1378 H 0.42189 0.85572 0.52808 0.0
C1379 C 0.38341 0.88634 0.58874 0.0
C1380 C 0.38826 0.88324 0.63308 0.0
C1381 C 0.39304 0.88452 0.55033 0.0
C1382 C 0.42783 0.86916 0.50871 0.0
H1383 H 0.48614 0.92297 0.3193 0.0
H1384 H 0.45863 0.9124 0.37092 0.0
H1385 H 0.44655 0.8624 0.46945 0.0
H1386 H 0.40601 0.87468 0.67196 0.0
H1387 H 0.42235 0.87081 0.60498 0.0
H1388 H 0.4251 0.91051 0.49764 0.0
C1389 C 0.46893 0.90751 0.37775 0.0
C1390 C 0.44216 0.87313 0.47534 0.0
C1391 C 0.48465 0.91346 0.34765 0.0
C1392 C 0.40153 0.8765 0.63802 0.0
C1393 C 0.41104 0.8745 0.59961 0.0
C1394 C 0.42935 0.89968 0.49117 0.0
C1395 C 0.46664 0.8956 0.4159 0.0
C1396 C 0.45064 0.89069 0.45015 0.0
C1397 C 0.40768 0.87953 0.55559 0.0
C1398 C 0.42132 0.88244 0.51713 0.0
H1399 H 0.50602 0.8897 0.39614 0.0
H1400 H 0.47921 0.88014 0.45063 0.0
H1401 H 0.45034 0.91781 0.44148 0.0
H1402 H 0.37373 0.89219 0.58414 0.0
H1403 H 0.39001 0.88834 0.51682 0.0
C1404 C 0.60876 0.50339 0.7163 0.0
C1405 C 0.60385 0.51744 0.70275 0.0
C1406 C 0.59795 0.48973 0.75077 0.0
C1407 C 0.54924 0.46728 0.80577 0.0
H1408 H 0.57229 0.45395 0.9068 0.0
C1409 C 0.5073 0.43446 0.97225 0.0
C1410 C 0.50756 0.41832 0.99156 0.0
C1411 C 0.51971 0.44486 0.93602 0.0
C1412 C 0.56565 0.45735 0.87844 0.0
H1413 H 0.58439 0.52876 0.71669 0.0
H1414 H 0.56618 0.50556 0.77644 0.0
H1415 H 0.59319 0.47532 0.84497 0.0
H1416 H 0.52151 0.40076 0.98829 0.0
H1417 H 0.54355 0.41928 0.92486 0.0
H1418 H 0.52187 0.44992 0.83947 0.0
C1419 C 0.57782 0.50451 0.75967 0.0
C1420 C 0.5776 0.46955 0.84304 0.0
C1421 C 0.58843 0.51795 0.72546 0.0
C1422 C 0.52091 0.4131 0.97416 0.0
C1423 C 0.53356 0.42372 0.93799 0.0
C1424 C 0.5374 0.45528 0.84107 0.0
C1425 C 0.58208 0.48994 0.77216 0.0
C1426 C 0.56955 0.47508 0.80695 0.0
C1427 C 0.53289 0.43956 0.91814 0.0
C1428 C 0.54548 0.45055 0.87842 0.0
H1429 H 0.6206 0.50266 0.69959 0.0
H1430 H 0.60165 0.47871 0.75979 0.0
H1431 H 0.54247 0.47074 0.77779 0.0
H1432 H 0.49727 0.43897 0.98469 0.0
H1433 H 0.51902 0.45716 0.92199 0.0
C1434 C 0.11597 0.50438 0.26437 0.0
C1435 C 0.10589 0.50402 0.30437 0.0
C1436 C 0.11792 0.51685 0.22787 0.0
C1437 C 0.11391 0.56032 0.19725 0.0
H1438 H 0.09655 0.53533 0.07864 0.0
C1439 C 0.10886 0.60093 0.03581 0.0
C1440 C 0.09131 0.59094 0.01108 0.0
C1441 C 0.11335 0.59143 0.0703 0.0
C1442 C 0.10148 0.54253 0.11152 0.0
H1443 H 0.09097 0.51706 0.33881 0.0
H1444 H 0.09487 0.53909 0.27624 0.0
H1445 H 0.10076 0.51759 0.14216 0.0
H1446 H 0.06488 0.56303 1.00291 0.0
H1447 H 0.07278 0.54654 0.06256 0.0
H1448 H 0.11401 0.58504 0.16701 0.0
C1449 C 0.10109 0.52972 0.27249 0.0
C1450 C 0.10412 0.53245 0.14776 0.0
C1451 C 0.09882 0.51706 0.30832 0.0
C1452 C 0.07853 0.57119 0.02119 0.0
C1453 C 0.08311 0.56167 0.05523 0.0
C1454 C 0.11144 0.57047 0.1609 0.0
C1455 C 0.11016 0.52941 0.2313 0.0
C1456 C 0.11 0.54108 0.19131 0.0
C1457 C 0.10051 0.57168 0.0804 0.0
C1458 C 0.10484 0.56156 0.11783 0.0
H1459 H 0.12136 0.49431 0.26031 0.0
H1460 H 0.12509 0.51638 0.19661 0.0
H1461 H 0.11851 0.5674 0.23035 0.0
H1462 H 0.119 0.61616 0.02898 0.0
H1463 H 0.12692 0.59951 0.08894 0.0
loop_
_geom_bond_atom_site_label_1
_geom_bond_atom_site_label_2
_geom_bond_distance
_geom_bond_site_symmetry_2
_ccdc_geom_bond_type
Zn0 O1 2.055 . S
Zn0 O8 2.046 . S
Zn0 N16 2.036 . S
Zn0 O28 2.053 . S
Zn0 O30 2.066 . S
O1 Zn0 2.055 . S
O1 C4 1.259 . S
C2 O30 1.256 . S
C2 O31 1.244 . S
Zn3 O5 2.046 . S
Zn3 O7 2.055 . S
Zn3 N9 2.036 . S
Zn3 O27 2.066 . S
Zn3 O31 2.053 . S
C4 O1 1.259 . S
C4 O5 1.254 . S
O5 Zn3 2.046 . S
O5 C4 1.254 . S
C6 O27 1.256 . S
C6 O28 1.244 . S
O7 Zn3 2.055 . S
O7 C29 1.259 . S
O8 Zn0 2.046 . S
O8 C29 1.254 . S
N9 Zn3 2.036 . S
N9 C10 1.298 . S
N9 N12 1.398 . S
C10 N9 1.298 . S
C10 N13 1.367 . S
C10 C23 1.481 . S
C11 N12 1.299 . S
C11 N13 1.379 . S
N12 N9 1.398 . S
N12 C11 1.299 . S
N13 C10 1.367 . S
N13 C11 1.379 . S
C14 N16 1.298 . S
C14 N18 1.367 . S
C14 C22 1.481 . S
C15 N17 1.299 . S
C15 N18 1.379 . S
N16 Zn0 2.036 . S
N16 C14 1.298 . S
N16 N17 1.398 . S
N17 C15 1.299 . S
N17 N16 1.398 . S
N18 C14 1.367 . S
N18 C15 1.379 . S
H19 C22 0.980 . S
H20 C22 0.981 . S
H21 C22 0.981 . S
C22 C14 1.481 . S
C22 H19 0.980 . S
C22 H20 0.981 . S
C22 H21 0.981 . S
C23 C10 1.481 . S
C23 H24 0.980 . S
C23 H25 0.981 . S
C23 H26 0.981 . S
H24 C23 0.980 . S
H25 C23 0.981 . S
H26 C23 0.981 . S
O27 Zn3 2.066 . S
O27 C6 1.256 . S
O28 Zn0 2.053 . S
O28 C6 1.244 . S
C29 O7 1.259 . S
C29 O8 1.254 . S
O30 Zn0 2.066 . S
O30 C2 1.256 . S
O31 C2 1.244 . S
O31 Zn3 2.053 . S
Zn32 O33 2.055 . S
Zn32 O40 2.046 . S
Zn32 N48 2.036 . S
Zn32 O60 2.053 . S
Zn32 O62 2.066 . S
O33 Zn32 2.055 . S
O33 C36 1.259 . S
C34 O62 1.256 . S
C34 O63 1.244 . S
Zn35 O37 2.046 . S
Zn35 O39 2.055 . S
Zn35 N41 2.036 . S
Zn35 O59 2.066 . S
Zn35 O63 2.053 . S
C36 O33 1.259 . S
C36 O37 1.254 . S
O37 Zn35 2.046 . S
O37 C36 1.254 . S
C38 O59 1.256 . S
C38 O60 1.244 . S
O39 Zn35 2.055 . S
O39 C61 1.259 . S
O40 Zn32 2.046 . S
O40 C61 1.254 . S
N41 Zn35 2.036 . S
N41 C42 1.298 . S
N41 N44 1.398 . S
C42 N41 1.298 . S
C42 N45 1.367 . S
C42 C55 1.481 . S
C43 N44 1.299 . S
C43 N45 1.379 . S
N44 N41 1.398 . S
N44 C43 1.299 . S
N45 C42 1.367 . S
N45 C43 1.379 . S
C46 N48 1.298 . S
C46 N50 1.367 . S
C46 C54 1.481 . S
C47 N49 1.299 . S
C47 N50 1.379 . S
N48 Zn32 2.036 . S
N48 C46 1.298 . S
N48 N49 1.398 . S
N49 C47 1.299 . S
N49 N48 1.398 . S
N50 C46 1.367 . S
N50 C47 1.379 . S
H51 C54 0.980 . S
H52 C54 0.981 . S
H53 C54 0.981 . S
C54 C46 1.481 . S
C54 H51 0.980 . S
C54 H52 0.981 . S
C54 H53 0.981 . S
C55 C42 1.481 . S
C55 H56 0.980 . S
C55 H57 0.981 . S
C55 H58 0.981 . S
H56 C55 0.980 . S
H57 C55 0.981 . S
H58 C55 0.981 . S
O59 Zn35 2.066 . S
O59 C38 1.256 . S
O60 Zn32 2.053 . S
O60 C38 1.244 . S
C61 O39 1.259 . S
C61 O40 1.254 . S
O62 Zn32 2.066 . S
O62 C34 1.256 . S
O63 C34 1.244 . S
O63 Zn35 2.053 . S
Zn64 O65 2.055 . S
Zn64 O72 2.046 . S
Zn64 N80 2.036 . S
Zn64 O92 2.053 . S
Zn64 O94 2.066 . S
O65 Zn64 2.055 . S
O65 C68 1.259 . S
C66 O94 1.256 . S
C66 O95 1.244 . S
Zn67 O69 2.046 . S
Zn67 O71 2.055 . S
Zn67 N73 2.036 . S
Zn67 O91 2.066 . S
Zn67 O95 2.053 . S
C68 O65 1.259 . S
C68 O69 1.254 . S
O69 Zn67 2.046 . S
O69 C68 1.254 . S
C70 O91 1.256 . S
C70 O92 1.244 . S
O71 Zn67 2.055 . S
O71 C93 1.259 . S
O72 Zn64 2.046 . S
O72 C93 1.254 . S
N73 Zn67 2.036 . S
N73 C74 1.298 . S
N73 N76 1.398 . S
C74 N73 1.298 . S
C74 N77 1.367 . S
C74 C87 1.481 1_556 S
C75 N76 1.299 . S
C75 N77 1.379 . S
N76 N73 1.398 . S
N76 C75 1.299 . S
N77 C74 1.367 . S
N77 C75 1.379 . S
C78 N80 1.298 . S
C78 N82 1.367 . S
C78 C86 1.481 . S
C79 N81 1.299 . S
C79 N82 1.379 . S
N80 Zn64 2.036 . S
N80 C78 1.298 . S
N80 N81 1.398 . S
N81 C79 1.299 . S
N81 N80 1.398 . S
N82 C78 1.367 . S
N82 C79 1.379 . S
H83 C86 0.980 . S
H84 C86 0.981 . S
H85 C86 0.981 . S
C86 C78 1.481 . S
C86 H83 0.980 . S
C86 H84 0.981 . S
C86 H85 0.981 . S
C87 C74 1.481 1_554 S
C87 H88 0.980 . S
C87 H89 0.981 . S
C87 H90 0.981 . S
H88 C87 0.980 . S
H89 C87 0.981 . S
H90 C87 0.981 . S
O91 Zn67 2.066 . S
O91 C70 1.256 . S
O92 Zn64 2.053 . S
O92 C70 1.244 . S
C93 O71 1.259 . S
C93 O72 1.254 . S
O94 Zn64 2.066 . S
O94 C66 1.256 . S
O95 C66 1.244 . S
O95 Zn67 2.053 . S
Zn96 O97 2.055 . S
Zn96 O104 2.046 . S
Zn96 N112 2.036 . S
Zn96 O124 2.053 . S
Zn96 O126 2.066 . S
O97 Zn96 2.055 . S
O97 C100 1.259 . S
C98 O126 1.256 . S
C98 O127 1.244 . S
Zn99 O101 2.046 . S
Zn99 O103 2.055 . S
Zn99 N105 2.036 . S
Zn99 O123 2.066 . S
Zn99 O127 2.053 . S
C100 O97 1.259 . S
C100 O101 1.254 . S
O101 Zn99 2.046 . S
O101 C100 1.254 . S
C102 O123 1.256 . S
C102 O124 1.244 . S
O103 Zn99 2.055 . S
O103 C125 1.259 . S
O104 Zn96 2.046 . S
O104 C125 1.254 . S
N105 Zn99 2.036 . S
N105 C106 1.298 . S
N105 N108 1.398 . S
C106 N105 1.298 . S
C106 N109 1.367 . S
C106 C119 1.481 . S
C107 N108 1.299 . S
C107 N109 1.379 . S
N108 N105 1.398 . S
N108 C107 1.299 . S
N109 C106 1.367 . S
N109 C107 1.379 . S
C110 N112 1.298 . S
C110 N114 1.367 . S
C110 C118 1.481 . S
C111 N113 1.299 . S
C111 N114 1.379 . S
N112 Zn96 2.036 . S
N112 C110 1.298 . S
N112 N113 1.398 . S
N113 C111 1.299 . S
N113 N112 1.398 . S
N114 C110 1.367 . S
N114 C111 1.379 . S
H115 C118 0.980 . S
H116 C118 0.981 . S
H117 C118 0.981 . S
C118 C110 1.481 . S
C118 H115 0.980 . S
C118 H116 0.981 . S
C118 H117 0.981 . S
C119 C106 1.481 . S
C119 H120 0.980 . S
C119 H121 0.981 . S
C119 H122 0.981 . S
H120 C119 0.980 . S
H121 C119 0.981 . S
H122 C119 0.981 . S
O123 Zn99 2.066 . S
O123 C102 1.256 . S
O124 Zn96 2.053 . S
O124 C102 1.244 . S
C125 O103 1.259 . S
C125 O104 1.254 . S
O126 Zn96 2.066 . S
O126 C98 1.256 . S
O127 C98 1.244 . S
O127 Zn99 2.053 . S
Zn128 O129 2.055 . S
Zn128 O136 2.046 . S
Zn128 N144 2.036 . S
Zn128 O156 2.053 . S
Zn128 O158 2.066 . S
O129 Zn128 2.055 . S
O129 C132 1.259 . S
C130 O158 1.256 . S
C130 O159 1.244 . S
Zn131 O133 2.046 . S
Zn131 O135 2.055 . S
Zn131 N137 2.036 . S
Zn131 O155 2.066 . S
Zn131 O159 2.053 . S
C132 O129 1.259 . S
C132 O133 1.254 . S
O133 Zn131 2.046 . S
O133 C132 1.254 . S
C134 O155 1.256 . S
C134 O156 1.244 . S
O135 Zn131 2.055 . S
O135 C157 1.259 . S
O136 Zn128 2.046 . S
O136 C157 1.254 . S
N137 Zn131 2.036 . S
N137 C138 1.298 . S
N137 N140 1.398 . S
C138 N137 1.298 . S
C138 N141 1.367 . S
C138 C151 1.481 . S
C139 N140 1.299 . S
C139 N141 1.379 . S
N140 N137 1.398 . S
N140 C139 1.299 . S
N141 C138 1.367 . S
N141 C139 1.379 . S
C142 N144 1.298 . S
C142 N146 1.367 . S
C142 C150 1.481 . S
C143 N145 1.299 . S
C143 N146 1.379 . S
N144 Zn128 2.036 . S
N144 C142 1.298 . S
N144 N145 1.398 . S
N145 C143 1.299 . S
N145 N144 1.398 . S
N146 C142 1.367 . S
N146 C143 1.379 . S
H147 C150 0.980 . S
H148 C150 0.981 . S
H149 C150 0.981 . S
C150 C142 1.481 . S
C150 H147 0.980 . S
C150 H148 0.981 . S
C150 H149 0.981 . S
C151 C138 1.481 . S
C151 H152 0.980 . S
C151 H153 0.981 . S
C151 H154 0.981 . S
H152 C151 0.980 . S
H153 C151 0.981 . S
H154 C151 0.981 . S
O155 Zn131 2.066 . S
O155 C134 1.256 . S
O156 Zn128 2.053 . S
O156 C134 1.244 . S
C157 O135 1.259 . S
C157 O136 1.254 . S
O158 Zn128 2.066 . S
O158 C130 1.256 . S
O159 C130 1.244 . S
O159 Zn131 2.053 . S
Zn160 O161 2.055 . S
Zn160 O168 2.046 . S
Zn160 N176 2.036 . S
Zn160 O188 2.053 . S
Zn160 O190 2.066 . S
O161 Zn160 2.055 . S
O161 C164 1.259 . S
C162 O190 1.256 . S
C162 O191 1.244 . S
Zn163 O165 2.046 . S
Zn163 O167 2.055 . S
Zn163 N169 2.036 . S
Zn163 O187 2.066 . S
Zn163 O191 2.053 . S
C164 O161 1.259 . S
C164 O165 1.254 . S
O165 Zn163 2.046 . S
O165 C164 1.254 . S
C166 O187 1.256 . S
C166 O188 1.244 . S
O167 Zn163 2.055 . S
O167 C189 1.259 . S
O168 Zn160 2.046 . S
O168 C189 1.254 . S
N169 Zn163 2.036 . S
N169 C170 1.298 . S
N169 N172 1.398 . S
C170 N169 1.298 . S
C170 N173 1.367 . S
C170 C183 1.481 . S
C171 N172 1.299 . S
C171 N173 1.379 . S
N172 N169 1.398 . S
N172 C171 1.299 . S
N173 C170 1.367 . S
N173 C171 1.379 . S
C174 N176 1.298 . S
C174 N178 1.367 . S
C174 C182 1.481 1_556 S
C175 N177 1.299 . S
C175 N178 1.379 . S
N176 Zn160 2.036 . S
N176 C174 1.298 . S
N176 N177 1.398 . S
N177 C175 1.299 . S
N177 N176 1.398 . S
N178 C174 1.367 . S
N178 C175 1.379 . S
H179 C182 0.980 . S
H180 C182 0.981 . S
H181 C182 0.981 . S
C182 C174 1.481 1_554 S
C182 H179 0.980 . S
C182 H180 0.981 . S
C182 H181 0.981 . S
C183 C170 1.481 . S
C183 H184 0.980 . S
C183 H185 0.981 . S
C183 H186 0.981 . S
H184 C183 0.980 . S
H185 C183 0.981 . S
H186 C183 0.981 . S
O187 Zn163 2.066 . S
O187 C166 1.256 . S
O188 Zn160 2.053 . S
O188 C166 1.244 . S
C189 O167 1.259 . S
C189 O168 1.254 . S
O190 Zn160 2.066 . S
O190 C162 1.256 . S
O191 C162 1.244 . S
O191 Zn163 2.053 . S
Zn192 O193 2.055 . S
Zn192 O200 2.046 . S
Zn192 N208 2.036 . S
Zn192 O220 2.053 . S
Zn192 O222 2.066 . S
O193 Zn192 2.055 . S
O193 C196 1.259 . S
C194 O222 1.256 . S
C194 O223 1.244 . S
Zn195 O197 2.046 . S
Zn195 O199 2.055 . S
Zn195 N201 2.036 . S
Zn195 O219 2.066 . S
Zn195 O223 2.053 . S
C196 O193 1.259 . S
C196 O197 1.254 . S
O197 Zn195 2.046 . S
O197 C196 1.254 . S
C198 O219 1.256 . S
C198 O220 1.244 . S
O199 Zn195 2.055 . S
O199 C221 1.259 . S
O200 Zn192 2.046 . S
O200 C221 1.254 . S
N201 Zn195 2.036 . S
N201 C202 1.298 . S
N201 N204 1.398 . S
C202 N201 1.298 . S
C202 N205 1.367 . S
C202 C215 1.481 . S
C203 N204 1.299 . S
C203 N205 1.379 . S
N204 N201 1.398 . S
N204 C203 1.299 . S
N205 C202 1.367 . S
N205 C203 1.379 . S
C206 N208 1.298 . S
C206 N210 1.367 . S
C206 C214 1.481 . S
C207 N209 1.299 . S
C207 N210 1.379 . S
N208 Zn192 2.036 . S
N208 C206 1.298 . S
N208 N209 1.398 . S
N209 C207 1.299 . S
N209 N208 1.398 . S
N210 C206 1.367 . S
N210 C207 1.379 . S
H211 C214 0.980 . S
H212 C214 0.981 . S
H213 C214 0.981 . S
C214 C206 1.481 . S
C214 H211 0.980 . S
C214 H212 0.981 . S
C214 H213 0.981 . S
C215 C202 1.481 . S
C215 H216 0.980 . S
C215 H217 0.981 . S
C215 H218 0.981 . S
H216 C215 0.980 . S
H217 C215 0.981 . S
H218 C215 0.981 . S
O219 Zn195 2.066 . S
O219 C198 1.256 . S
O220 Zn192 2.053 . S
O220 C198 1.244 . S
C221 O199 1.259 . S
C221 O200 1.254 . S
O222 Zn192 2.066 . S
O222 C194 1.256 . S
O223 C194 1.244 . S
O223 Zn195 2.053 . S
Zn224 O225 2.055 . S
Zn224 O232 2.046 . S
Zn224 N240 2.036 . S
Zn224 O252 2.053 . S
Zn224 O254 2.066 . S
O225 Zn224 2.055 . S
O225 C228 1.259 . S
C226 O254 1.256 . S
C226 O255 1.244 . S
Zn227 O229 2.046 . S
Zn227 O231 2.055 . S
Zn227 N233 2.036 . S
Zn227 O251 2.066 . S
Zn227 O255 2.053 . S
C228 O225 1.259 . S
C228 O229 1.254 . S
O229 Zn227 2.046 . S
O229 C228 1.254 . S
C230 O251 1.256 . S
C230 O252 1.244 . S
O231 Zn227 2.055 . S
O231 C253 1.259 . S
O232 Zn224 2.046 . S
O232 C253 1.254 . S
N233 Zn227 2.036 . S
N233 C234 1.298 . S
N233 N236 1.398 . S
C234 N233 1.298 . S
C234 N237 1.367 . S
C234 C247 1.481 . S
C235 N236 1.299 . S
C235 N237 1.379 . S
N236 N233 1.398 . S
N236 C235 1.299 . S
N237 C234 1.367 . S
N237 C235 1.379 . S
C238 N240 1.298 . S
C238 N242 1.367 . S
C238 C246 1.481 . S
C239 N241 1.299 . S
C239 N242 1.379 . S
N240 Zn224 2.036 . S
N240 C238 1.298 . S
N240 N241 1.398 . S
N241 C239 1.299 . S
N241 N240 1.398 . S
N242 C238 1.367 . S
N242 C239 1.379 . S
H243 C246 0.980 . S
H244 C246 0.981 . S
H245 C246 0.981 . S
C246 C238 1.481 . S
C246 H243 0.980 . S
C246 H244 0.981 . S
C246 H245 0.981 . S
C247 C234 1.481 . S
C247 H248 0.980 . S
C247 H249 0.981 . S
C247 H250 0.981 . S
H248 C247 0.980 . S
H249 C247 0.981 . S
H250 C247 0.981 . S
O251 Zn227 2.066 . S
O251 C230 1.256 . S
O252 Zn224 2.053 . S
O252 C230 1.244 . S
C253 O231 1.259 . S
C253 O232 1.254 . S
O254 Zn224 2.066 . S
O254 C226 1.256 . S
O255 C226 1.244 . S
O255 Zn227 2.053 . S
Zn256 O257 2.055 . S
Zn256 O264 2.046 . S
Zn256 N272 2.036 . S
Zn256 O284 2.053 . S
Zn256 O286 2.066 . S
O257 Zn256 2.055 . S
O257 C260 1.259 . S
C258 O286 1.256 . S
C258 O287 1.244 . S
Zn259 O261 2.046 . S
Zn259 O263 2.055 . S
Zn259 N265 2.036 . S
Zn259 O283 2.066 . S
Zn259 O287 2.053 . S
C260 O257 1.259 . S
C260 O261 1.254 . S
O261 Zn259 2.046 . S
O261 C260 1.254 . S
C262 O283 1.256 . S
C262 O284 1.244 . S
O263 Zn259 2.055 . S
O263 C285 1.259 . S
O264 Zn256 2.046 . S
O264 C285 1.254 . S
N265 Zn259 2.036 . S
N265 C266 1.298 . S
N265 N268 1.398 . S
C266 N265 1.298 . S
C266 N269 1.367 . S
C266 C279 1.481 1_554 S
C267 N268 1.299 . S
C267 N269 1.379 . S
N268 N265 1.398 . S
N268 C267 1.299 . S
N269 C266 1.367 . S
N269 C267 1.379 . S
C270 N272 1.298 . S
C270 N274 1.367 . S
C270 C278 1.481 . S
C271 N273 1.299 . S
C271 N274 1.379 . S
N272 Zn256 2.036 . S
N272 C270 1.298 . S
N272 N273 1.398 . S
N273 C271 1.299 . S
N273 N272 1.398 . S
N274 C270 1.367 . S
N274 C271 1.379 . S
H275 C278 0.980 . S
H276 C278 0.981 . S
H277 C278 0.981 . S
C278 C270 1.481 . S
C278 H275 0.980 . S
C278 H276 0.981 . S
C278 H277 0.981 . S
C279 C266 1.481 1_556 S
C279 H280 0.980 . S
C279 H281 0.981 . S
C279 H282 0.981 . S
H280 C279 0.980 . S
H281 C279 0.981 . S
H282 C279 0.981 . S
O283 Zn259 2.066 . S
O283 C262 1.256 . S
O284 Zn256 2.053 . S
O284 C262 1.244 . S
C285 O263 1.259 . S
C285 O264 1.254 . S
O286 Zn256 2.066 . S
O286 C258 1.256 . S
O287 C258 1.244 . S
O287 Zn259 2.053 . S
Zn288 O289 2.055 . S
Zn288 O296 2.046 . S
Zn288 N304 2.036 . S
Zn288 O316 2.053 . S
Zn288 O318 2.066 . S
O289 Zn288 2.055 . S
O289 C292 1.259 . S
C290 O318 1.256 . S
C290 O319 1.244 . S
Zn291 O293 2.046 . S
Zn291 O295 2.055 . S
Zn291 N297 2.036 . S
Zn291 O315 2.066 . S
Zn291 O319 2.053 . S
C292 O289 1.259 . S
C292 O293 1.254 . S
O293 Zn291 2.046 . S
O293 C292 1.254 . S
C294 O315 1.256 . S
C294 O316 1.244 . S
O295 Zn291 2.055 . S
O295 C317 1.259 . S
O296 Zn288 2.046 . S
O296 C317 1.254 . S
N297 Zn291 2.036 . S
N297 C298 1.298 . S
N297 N300 1.398 . S
C298 N297 1.298 . S
C298 N301 1.367 . S
C298 C311 1.481 . S
C299 N300 1.299 . S
C299 N301 1.379 . S
N300 N297 1.398 . S
N300 C299 1.299 . S
N301 C298 1.367 . S
N301 C299 1.379 . S
C302 N304 1.298 . S
C302 N306 1.367 . S
C302 C310 1.481 . S
C303 N305 1.299 . S
C303 N306 1.379 . S
N304 Zn288 2.036 . S
N304 C302 1.298 . S
N304 N305 1.398 . S
N305 C303 1.299 . S
N305 N304 1.398 . S
N306 C302 1.367 . S
N306 C303 1.379 . S
H307 C310 0.980 . S
H308 C310 0.981 . S
H309 C310 0.981 . S
C310 C302 1.481 . S
C310 H307 0.980 . S
C310 H308 0.981 . S
C310 H309 0.981 . S
C311 C298 1.481 . S
C311 H312 0.980 . S
C311 H313 0.981 . S
C311 H314 0.981 . S
H312 C311 0.980 . S
H313 C311 0.981 . S
H314 C311 0.981 . S
O315 Zn291 2.066 . S
O315 C294 1.256 . S
O316 Zn288 2.053 . S
O316 C294 1.244 . S
C317 O295 1.259 . S
C317 O296 1.254 . S
O318 Zn288 2.066 . S
O318 C290 1.256 . S
O319 C290 1.244 . S
O319 Zn291 2.053 . S
Zn320 O321 2.055 . S
Zn320 O328 2.046 . S
Zn320 N336 2.036 . S
Zn320 O348 2.053 . S
Zn320 O350 2.066 . S
O321 Zn320 2.055 . S
O321 C324 1.259 . S
C322 O350 1.256 . S
C322 O351 1.244 . S
Zn323 O325 2.046 . S
Zn323 O327 2.055 . S
Zn323 N329 2.036 . S
Zn323 O347 2.066 . S
Zn323 O351 2.053 . S
C324 O321 1.259 . S
C324 O325 1.254 . S
O325 Zn323 2.046 . S
O325 C324 1.254 . S
C326 O347 1.256 . S
C326 O348 1.244 . S
O327 Zn323 2.055 . S
O327 C349 1.259 . S
O328 Zn320 2.046 . S
O328 C349 1.254 . S
N329 Zn323 2.036 . S
N329 C330 1.298 . S
N329 N332 1.398 . S
C330 N329 1.298 . S
C330 N333 1.367 . S
C330 C343 1.481 . S
C331 N332 1.299 . S
C331 N333 1.379 . S
N332 N329 1.398 . S
N332 C331 1.299 . S
N333 C330 1.367 . S
N333 C331 1.379 . S
C334 N336 1.298 . S
C334 N338 1.367 . S
C334 C342 1.481 . S
C335 N337 1.299 . S
C335 N338 1.379 . S
N336 Zn320 2.036 . S
N336 C334 1.298 . S
N336 N337 1.398 . S
N337 C335 1.299 . S
N337 N336 1.398 . S
N338 C334 1.367 . S
N338 C335 1.379 . S
H339 C342 0.980 . S
H340 C342 0.981 . S
H341 C342 0.981 . S
C342 C334 1.481 . S
C342 H339 0.980 . S
C342 H340 0.981 . S
C342 H341 0.981 . S
C343 C330 1.481 . S
C343 H344 0.980 . S
C343 H345 0.981 . S
C343 H346 0.981 . S
H344 C343 0.980 . S
H345 C343 0.981 . S
H346 C343 0.981 . S
O347 Zn323 2.066 . S
O347 C326 1.256 . S
O348 Zn320 2.053 . S
O348 C326 1.244 . S
C349 O327 1.259 . S
C349 O328 1.254 . S
O350 Zn320 2.066 . S
O350 C322 1.256 . S
O351 C322 1.244 . S
O351 Zn323 2.053 . S
Zn352 O353 2.055 . S
Zn352 O360 2.046 . S
Zn352 N368 2.036 . S
Zn352 O380 2.053 . S
Zn352 O382 2.066 . S
O353 Zn352 2.055 . S
O353 C356 1.259 . S
C354 O382 1.256 . S
C354 O383 1.244 . S
Zn355 O357 2.046 . S
Zn355 O359 2.055 . S
Zn355 N361 2.036 . S
Zn355 O379 2.066 . S
Zn355 O383 2.053 . S
C356 O353 1.259 . S
C356 O357 1.254 . S
O357 Zn355 2.046 . S
O357 C356 1.254 . S
C358 O379 1.256 . S
C358 O380 1.244 . S
O359 Zn355 2.055 . S
O359 C381 1.259 . S
O360 Zn352 2.046 . S
O360 C381 1.254 . S
N361 Zn355 2.036 . S
N361 C362 1.298 . S
N361 N364 1.398 . S
C362 N361 1.298 . S
C362 N365 1.367 . S
C362 C375 1.481 1_554 S
C363 N364 1.299 . S
C363 N365 1.379 . S
N364 N361 1.398 . S
N364 C363 1.299 . S
N365 C362 1.367 . S
N365 C363 1.379 . S
C366 N368 1.298 . S
C366 N370 1.367 . S
C366 C374 1.481 . S
C367 N369 1.299 . S
C367 N370 1.379 . S
N368 Zn352 2.036 . S
N368 C366 1.298 . S
N368 N369 1.398 . S
N369 C367 1.299 . S
N369 N368 1.398 . S
N370 C366 1.367 . S
N370 C367 1.379 . S
H371 C374 0.980 . S
H372 C374 0.981 . S
H373 C374 0.981 . S
C374 C366 1.481 . S
C374 H371 0.980 . S
C374 H372 0.981 . S
C374 H373 0.981 . S
C375 C362 1.481 1_556 S
C375 H376 0.980 . S
C375 H377 0.981 . S
C375 H378 0.981 . S
H376 C375 0.980 . S
H377 C375 0.981 . S
H378 C375 0.981 . S
O379 Zn355 2.066 . S
O379 C358 1.256 . S
O380 Zn352 2.053 . S
O380 C358 1.244 . S
C381 O359 1.259 . S
C381 O360 1.254 . S
O382 Zn352 2.066 . S
O382 C354 1.256 . S
O383 C354 1.244 . S
O383 Zn355 2.053 . S
C384 C385 1.349 . S
C384 C386 1.327 . S
C384 H409 0.950 . S
C385 C384 1.349 . S
C385 C401 1.349 . S
C386 C384 1.327 . S
C386 C405 1.429 . S
C386 H410 0.950 . S
C387 C404 1.574 . S
C387 C406 1.368 . S
C387 H411 0.949 . S
H388 C392 0.949 . S
C389 C390 1.349 . S
C389 C391 1.327 . S
C389 H412 0.950 . S
C390 C389 1.349 . S
C390 C402 1.349 . S
C391 C389 1.327 . S
C391 C407 1.429 . S
C391 H413 0.950 . S
C392 H388 0.949 . S
C392 C400 1.574 . S
C392 C408 1.368 . S
H393 C401 0.950 . S
H394 C399 0.950 . S
H395 C400 0.949 . S
H396 C402 0.950 . S
H397 C403 0.950 . S
H398 C404 0.949 . S
C399 H394 0.950 . S
C399 C401 1.327 . S
C399 C405 1.429 . S
C400 C392 1.574 . S
C400 H395 0.949 . S
C400 C406 1.368 . S
C401 C385 1.349 . S
C401 H393 0.950 . S
C401 C399 1.327 . S
C402 C390 1.349 . S
C402 H396 0.950 . S
C402 C403 1.327 . S
C403 H397 0.950 . S
C403 C402 1.327 . S
C403 C407 1.429 . S
C404 C387 1.574 . S
C404 H398 0.949 . S
C404 C408 1.368 . S
C405 C386 1.429 . S
C405 C399 1.429 . S
C405 C406 1.523 . S
C406 C387 1.368 . S
C406 C400 1.368 . S
C406 C405 1.523 . S
C407 C391 1.429 . S
C407 C403 1.429 . S
C407 C408 1.523 . S
C408 C392 1.368 . S
C408 C404 1.368 . S
C408 C407 1.523 . S
H409 C384 0.950 . S
H410 C386 0.950 . S
H411 C387 0.949 . S
H412 C389 0.950 . S
H413 C391 0.950 . S
C414 C415 1.349 . S
C414 C416 1.327 . S
C414 H439 0.950 . S
C415 C414 1.349 . S
C415 C431 1.349 . S
C416 C414 1.327 . S
C416 C435 1.429 . S
C416 H440 0.950 . S
C417 C434 1.574 . S
C417 C436 1.368 . S
C417 H441 0.949 . S
H418 C422 0.949 . S
C419 C420 1.349 . S
C419 C421 1.327 . S
C419 H442 0.950 . S
C420 C419 1.349 . S
C420 C432 1.349 . S
C421 C419 1.327 . S
C421 C437 1.429 . S
C421 H443 0.950 . S
C422 H418 0.949 . S
C422 C430 1.574 . S
C422 C438 1.368 . S
H423 C431 0.950 . S
H424 C429 0.950 . S
H425 C430 0.949 . S
H426 C432 0.950 . S
H427 C433 0.950 . S
H428 C434 0.949 . S
C429 H424 0.950 . S
C429 C431 1.327 . S
C429 C435 1.429 . S
C430 C422 1.574 . S
C430 H425 0.949 . S
C430 C436 1.368 . S
C431 C415 1.349 . S
C431 H423 0.950 . S
C431 C429 1.327 . S
C432 C420 1.349 . S
C432 H426 0.950 . S
C432 C433 1.327 . S
C433 H427 0.950 . S
C433 C432 1.327 . S
C433 C437 1.429 . S
C434 C417 1.574 . S
C434 H428 0.949 . S
C434 C438 1.368 . S
C435 C416 1.429 . S
C435 C429 1.429 . S
C435 C436 1.523 . S
C436 C417 1.368 . S
C436 C430 1.368 . S
C436 C435 1.523 . S
C437 C421 1.429 . S
C437 C433 1.429 . S
C437 C438 1.523 . S
C438 C422 1.368 . S
C438 C434 1.368 . S
C438 C437 1.523 . S
H439 C414 0.950 . S
H440 C416 0.950 . S
H441 C417 0.949 . S
H442 C419 0.950 . S
H443 C421 0.950 . S
C444 C445 1.349 . S
C444 C446 1.327 . S
C444 H469 0.950 . S
C445 C444 1.349 . S
C445 C461 1.349 . S
C446 C444 1.327 . S
C446 C465 1.429 . S
C446 H470 0.950 . S
C447 C464 1.574 . S
C447 C466 1.368 . S
C447 H471 0.949 . S
H448 C452 0.949 . S
C449 C450 1.349 . S
C449 C451 1.327 . S
C449 H472 0.950 . S
C450 C449 1.349 . S
C450 C462 1.349 . S
C451 C449 1.327 . S
C451 C467 1.429 . S
C451 H473 0.950 . S
C452 H448 0.949 . S
C452 C460 1.574 . S
C452 C468 1.368 . S
H453 C461 0.950 . S
H454 C459 0.950 . S
H455 C460 0.949 . S
H456 C462 0.950 . S
H457 C463 0.950 . S
H458 C464 0.949 . S
C459 H454 0.950 . S
C459 C461 1.327 . S
C459 C465 1.429 . S
C460 C452 1.574 . S
C460 H455 0.949 . S
C460 C466 1.368 . S
C461 C445 1.349 . S
C461 H453 0.950 . S
C461 C459 1.327 . S
C462 C450 1.349 . S
C462 H456 0.950 . S
C462 C463 1.327 . S
C463 H457 0.950 . S
C463 C462 1.327 . S
C463 C467 1.429 . S
C464 C447 1.574 . S
C464 H458 0.949 . S
C464 C468 1.368 . S
C465 C446 1.429 . S
C465 C459 1.429 . S
C465 C466 1.523 . S
C466 C447 1.368 . S
C466 C460 1.368 . S
C466 C465 1.523 . S
C467 C451 1.429 . S
C467 C463 1.429 . S
C467 C468 1.523 . S
C468 C452 1.368 . S
C468 C464 1.368 . S
C468 C467 1.523 . S
H469 C444 0.950 . S
H470 C446 0.950 . S
H471 C447 0.949 . S
H472 C449 0.950 . S
H473 C451 0.950 . S
C474 C475 1.349 . S
C474 C476 1.327 . S
C474 H499 0.950 . S
C475 C474 1.349 . S
C475 C491 1.349 . S
C476 C474 1.327 . S
C476 C495 1.429 . S
C476 H500 0.950 . S
C477 C494 1.574 . S
C477 C496 1.368 . S
C477 H501 0.949 . S
H478 C482 0.949 . S
C479 C480 1.349 . S
C479 C481 1.327 . S
C479 H502 0.950 . S
C480 C479 1.349 . S
C480 C492 1.349 . S
C481 C479 1.327 . S
C481 C497 1.429 . S
C481 H503 0.950 . S
C482 H478 0.949 . S
C482 C490 1.574 . S
C482 C498 1.368 . S
H483 C491 0.950 . S
H484 C489 0.950 . S
H485 C490 0.949 . S
H486 C492 0.950 . S
H487 C493 0.950 . S
H488 C494 0.949 . S
C489 H484 0.950 . S
C489 C491 1.327 . S
C489 C495 1.429 . S
C490 C482 1.574 . S
C490 H485 0.949 . S
C490 C496 1.368 . S
C491 C475 1.349 . S
C491 H483 0.950 . S
C491 C489 1.327 . S
C492 C480 1.349 . S
C492 H486 0.950 . S
C492 C493 1.327 . S
C493 H487 0.950 . S
C493 C492 1.327 . S
C493 C497 1.429 . S
C494 C477 1.574 . S
C494 H488 0.949 . S
C494 C498 1.368 . S
C495 C476 1.429 . S
C495 C489 1.429 . S
C495 C496 1.523 . S
C496 C477 1.368 . S
C496 C490 1.368 . S
C496 C495 1.523 . S
C497 C481 1.429 . S
C497 C493 1.429 . S
C497 C498 1.523 . S
C498 C482 1.368 . S
C498 C494 1.368 . S
C498 C497 1.523 . S
H499 C474 0.950 . S
H500 C476 0.950 . S
H501 C477 0.949 . S
H502 C479 0.950 . S
H503 C481 0.950 . S
C504 C505 1.349 . S
C504 C506 1.327 . S
C504 H529 0.950 . S
C505 C504 1.349 . S
C505 C521 1.349 . S
C506 C504 1.327 . S
C506 C525 1.429 . S
C506 H530 0.950 . S
C507 C524 1.574 . S
C507 C526 1.368 . S
C507 H531 0.949 . S
H508 C512 0.949 . S
C509 C510 1.349 . S
C509 C511 1.327 . S
C509 H532 0.950 . S
C510 C509 1.349 . S
C510 C522 1.349 . S
C511 C509 1.327 . S
C511 C527 1.429 . S
C511 H533 0.950 . S
C512 H508 0.949 . S
C512 C520 1.574 . S
C512 C528 1.368 . S
H513 C521 0.950 . S
H514 C519 0.950 . S
H515 C520 0.949 . S
H516 C522 0.950 . S
H517 C523 0.950 . S
H518 C524 0.949 . S
C519 H514 0.950 . S
C519 C521 1.327 . S
C519 C525 1.429 . S
C520 C512 1.574 . S
C520 H515 0.949 . S
C520 C526 1.368 . S
C521 C505 1.349 . S
C521 H513 0.950 . S
C521 C519 1.327 . S
C522 C510 1.349 . S
C522 H516 0.950 . S
C522 C523 1.327 . S
C523 H517 0.950 . S
C523 C522 1.327 . S
C523 C527 1.429 . S
C524 C507 1.574 . S
C524 H518 0.949 . S
C524 C528 1.368 . S
C525 C506 1.429 . S
C525 C519 1.429 . S
C525 C526 1.523 . S
C526 C507 1.368 . S
C526 C520 1.368 . S
C526 C525 1.523 . S
C527 C511 1.429 . S
C527 C523 1.429 . S
C527 C528 1.523 . S
C528 C512 1.368 . S
C528 C524 1.368 . S
C528 C527 1.523 . S
H529 C504 0.950 . S
H530 C506 0.950 . S
H531 C507 0.949 . S
H532 C509 0.950 . S
H533 C511 0.950 . S
C534 C535 1.349 . S
C534 C536 1.327 . S
C534 H559 0.950 . S
C535 C534 1.349 . S
C535 C551 1.349 . S
C536 C534 1.327 . S
C536 C555 1.429 . S
C536 H560 0.950 . S
C537 C554 1.574 . S
C537 C556 1.368 . S
C537 H561 0.949 . S
H538 C542 0.949 . S
C539 C540 1.349 . S
C539 C541 1.327 . S
C539 H562 0.950 . S
C540 C539 1.349 . S
C540 C552 1.349 . S
C541 C539 1.327 . S
C541 C557 1.429 . S
C541 H563 0.950 . S
C542 H538 0.949 . S
C542 C550 1.574 . S
C542 C558 1.368 . S
H543 C551 0.950 . S
H544 C549 0.950 . S
H545 C550 0.949 . S
H546 C552 0.950 . S
H547 C553 0.950 . S
H548 C554 0.949 . S
C549 H544 0.950 . S
C549 C551 1.327 . S
C549 C555 1.429 . S
C550 C542 1.574 . S
C550 H545 0.949 . S
C550 C556 1.368 . S
C551 C535 1.349 . S
C551 H543 0.950 . S
C551 C549 1.327 . S
C552 C540 1.349 . S
C552 H546 0.950 . S
C552 C553 1.327 . S
C553 H547 0.950 . S
C553 C552 1.327 . S
C553 C557 1.429 . S
C554 C537 1.574 . S
C554 H548 0.949 . S
C554 C558 1.368 . S
C555 C536 1.429 . S
C555 C549 1.429 . S
C555 C556 1.523 . S
C556 C537 1.368 . S
C556 C550 1.368 . S
C556 C555 1.523 . S
C557 C541 1.429 . S
C557 C553 1.429 . S
C557 C558 1.523 . S
C558 C542 1.368 . S
C558 C554 1.368 . S
C558 C557 1.523 . S
H559 C534 0.950 . S
H560 C536 0.950 . S
H561 C537 0.949 . S
H562 C539 0.950 . S
H563 C541 0.950 . S
C564 C565 1.349 . S
C564 C566 1.327 . S
C564 H589 0.950 . S
C565 C564 1.349 . S
C565 C581 1.349 . S
C566 C564 1.327 . S
C566 C585 1.429 . S
C566 H590 0.950 . S
C567 C584 1.574 1_556 S
C567 C586 1.368 . S
C567 H591 0.949 . S
H568 C572 0.949 . S
C569 C570 1.349 . S
C569 C571 1.327 . S
C569 H592 0.950 . S
C570 C569 1.349 . S
C570 C582 1.349 . S
C571 C569 1.327 . S
C571 C587 1.429 . S
C571 H593 0.950 . S
C572 H568 0.949 . S
C572 C580 1.574 1_554 S
C572 C588 1.368 . S
H573 C581 0.950 . S
H574 C579 0.950 . S
H575 C580 0.949 . S
H576 C582 0.950 . S
H577 C583 0.950 . S
H578 C584 0.949 . S
C579 H574 0.950 . S
C579 C581 1.327 . S
C579 C585 1.429 . S
C580 C572 1.574 1_556 S
C580 H575 0.949 . S
C580 C586 1.368 . S
C581 C565 1.349 . S
C581 H573 0.950 . S
C581 C579 1.327 . S
C582 C570 1.349 . S
C582 H576 0.950 . S
C582 C583 1.327 . S
C583 H577 0.950 . S
C583 C582 1.327 . S
C583 C587 1.429 . S
C584 C567 1.574 1_554 S
C584 H578 0.949 . S
C584 C588 1.368 . S
C585 C566 1.429 . S
C585 C579 1.429 . S
C585 C586 1.523 . S
C586 C567 1.368 . S
C586 C580 1.368 . S
C586 C585 1.523 . S
C587 C571 1.429 . S
C587 C583 1.429 . S
C587 C588 1.523 . S
C588 C572 1.368 . S
C588 C584 1.368 . S
C588 C587 1.523 . S
H589 C564 0.950 . S
H590 C566 0.950 . S
H591 C567 0.949 . S
H592 C569 0.950 . S
H593 C571 0.950 . S
C594 C595 1.349 . S
C594 C596 1.327 . S
C594 H619 0.950 . S
C595 C594 1.349 . S
C595 C611 1.349 . S
C596 C594 1.327 . S
C596 C615 1.429 . S
C596 H620 0.950 . S
C597 C614 1.574 . S
C597 C616 1.368 . S
C597 H621 0.949 . S
H598 C602 0.949 . S
C599 C600 1.349 . S
C599 C601 1.327 . S
C599 H622 0.950 . S
C600 C599 1.349 . S
C600 C612 1.349 . S
C601 C599 1.327 . S
C601 C617 1.429 . S
C601 H623 0.950 . S
C602 H598 0.949 . S
C602 C610 1.574 . S
C602 C618 1.368 . S
H603 C611 0.950 . S
H604 C609 0.950 . S
H605 C610 0.949 . S
H606 C612 0.950 . S
H607 C613 0.950 . S
H608 C614 0.949 . S
C609 H604 0.950 . S
C609 C611 1.327 . S
C609 C615 1.429 . S
C610 C602 1.574 . S
C610 H605 0.949 . S
C610 C616 1.368 . S
C611 C595 1.349 . S
C611 H603 0.950 . S
C611 C609 1.327 . S
C612 C600 1.349 . S
C612 H606 0.950 . S
C612 C613 1.327 . S
C613 H607 0.950 . S
C613 C612 1.327 . S
C613 C617 1.429 . S
C614 C597 1.574 . S
C614 H608 0.949 . S
C614 C618 1.368 . S
C615 C596 1.429 . S
C615 C609 1.429 . S
C615 C616 1.523 . S
C616 C597 1.368 . S
C616 C610 1.368 . S
C616 C615 1.523 . S
C617 C601 1.429 . S
C617 C613 1.429 . S
C617 C618 1.523 . S
C618 C602 1.368 . S
C618 C614 1.368 . S
C618 C617 1.523 . S
H619 C594 0.950 . S
H620 C596 0.950 . S
H621 C597 0.949 . S
H622 C599 0.950 . S
H623 C601 0.950 . S
C624 C625 1.349 . S
C624 C626 1.327 . S
C624 H649 0.950 . S
C625 C624 1.349 . S
C625 C641 1.349 . S
C626 C624 1.327 . S
C626 C645 1.429 . S
C626 H650 0.950 . S
C627 C644 1.574 . S
C627 C646 1.368 . S
C627 H651 0.949 . S
H628 C632 0.949 . S
C629 C630 1.349 . S
C629 C631 1.327 . S
C629 H652 0.950 . S
C630 C629 1.349 . S
C630 C642 1.349 . S
C631 C629 1.327 . S
C631 C647 1.429 . S
C631 H653 0.950 . S
C632 H628 0.949 . S
C632 C640 1.574 . S
C632 C648 1.368 . S
H633 C641 0.950 . S
H634 C639 0.950 . S
H635 C640 0.949 . S
H636 C642 0.950 . S
H637 C643 0.950 . S
H638 C644 0.949 . S
C639 H634 0.950 . S
C639 C641 1.327 . S
C639 C645 1.429 . S
C640 C632 1.574 . S
C640 H635 0.949 . S
C640 C646 1.368 . S
C641 C625 1.349 . S
C641 H633 0.950 . S
C641 C639 1.327 . S
C642 C630 1.349 . S
C642 H636 0.950 . S
C642 C643 1.327 . S
C643 H637 0.950 . S
C643 C642 1.327 . S
C643 C647 1.429 . S
C644 C627 1.574 . S
C644 H638 0.949 . S
C644 C648 1.368 . S
C645 C626 1.429 . S
C645 C639 1.429 . S
C645 C646 1.523 . S
C646 C627 1.368 . S
C646 C640 1.368 . S
C646 C645 1.523 . S
C647 C631 1.429 . S
C647 C643 1.429 . S
C647 C648 1.523 . S
C648 C632 1.368 . S
C648 C644 1.368 . S
C648 C647 1.523 . S
H649 C624 0.950 . S
H650 C626 0.950 . S
H651 C627 0.949 . S
H652 C629 0.950 . S
H653 C631 0.950 . S
C654 C655 1.349 . S
C654 C656 1.327 . S
C654 H679 0.950 . S
C655 C654 1.349 . S
C655 C671 1.349 . S
C656 C654 1.327 . S
C656 C675 1.429 . S
C656 H680 0.950 . S
C657 C674 1.574 1_556 S
C657 C676 1.368 . S
C657 H681 0.949 . S
H658 C662 0.949 . S
C659 C660 1.349 . S
C659 C661 1.327 . S
C659 H682 0.950 . S
C660 C659 1.349 . S
C660 C672 1.349 . S
C661 C659 1.327 . S
C661 C677 1.429 . S
C661 H683 0.950 . S
C662 H658 0.949 . S
C662 C670 1.574 1_554 S
C662 C678 1.368 . S
H663 C671 0.950 . S
H664 C669 0.950 . S
H665 C670 0.949 . S
H666 C672 0.950 . S
H667 C673 0.950 . S
H668 C674 0.949 . S
C669 H664 0.950 . S
C669 C671 1.327 . S
C669 C675 1.429 . S
C670 C662 1.574 1_556 S
C670 H665 0.949 . S
C670 C676 1.368 . S
C671 C655 1.349 . S
C671 H663 0.950 . S
C671 C669 1.327 . S
C672 C660 1.349 . S
C672 H666 0.950 . S
C672 C673 1.327 . S
C673 H667 0.950 . S
C673 C672 1.327 . S
C673 C677 1.429 . S
C674 C657 1.574 1_554 S
C674 H668 0.949 . S
C674 C678 1.368 . S
C675 C656 1.429 . S
C675 C669 1.429 . S
C675 C676 1.523 . S
C676 C657 1.368 . S
C676 C670 1.368 . S
C676 C675 1.523 . S
C677 C661 1.429 . S
C677 C673 1.429 . S
C677 C678 1.523 . S
C678 C662 1.368 . S
C678 C674 1.368 . S
C678 C677 1.523 . S
H679 C654 0.950 . S
H680 C656 0.950 . S
H681 C657 0.949 . S
H682 C659 0.950 . S
H683 C661 0.950 . S
C684 C685 1.349 . S
C684 C686 1.327 . S
C684 H709 0.950 . S
C685 C684 1.349 . S
C685 C701 1.349 . S
C686 C684 1.327 . S
C686 C705 1.429 . S
C686 H710 0.950 . S
C687 C704 1.574 . S
C687 C706 1.368 . S
C687 H711 0.949 . S
H688 C692 0.949 . S
C689 C690 1.349 . S
C689 C691 1.327 . S
C689 H712 0.950 . S
C690 C689 1.349 . S
C690 C702 1.349 . S
C691 C689 1.327 . S
C691 C707 1.429 . S
C691 H713 0.950 . S
C692 H688 0.949 . S
C692 C700 1.574 . S
C692 C708 1.368 . S
H693 C701 0.950 . S
H694 C699 0.950 . S
H695 C700 0.949 . S
H696 C702 0.950 . S
H697 C703 0.950 . S
H698 C704 0.949 . S
C699 H694 0.950 . S
C699 C701 1.327 . S
C699 C705 1.429 . S
C700 C692 1.574 . S
C700 H695 0.949 . S
C700 C706 1.368 . S
C701 C685 1.349 . S
C701 H693 0.950 . S
C701 C699 1.327 . S
C702 C690 1.349 . S
C702 H696 0.950 . S
C702 C703 1.327 . S
C703 H697 0.950 . S
C703 C702 1.327 . S
C703 C707 1.429 . S
C704 C687 1.574 . S
C704 H698 0.949 . S
C704 C708 1.368 . S
C705 C686 1.429 . S
C705 C699 1.429 . S
C705 C706 1.523 . S
C706 C687 1.368 . S
C706 C700 1.368 . S
C706 C705 1.523 . S
C707 C691 1.429 . S
C707 C703 1.429 . S
C707 C708 1.523 . S
C708 C692 1.368 . S
C708 C704 1.368 . S
C708 C707 1.523 . S
H709 C684 0.950 . S
H710 C686 0.950 . S
H711 C687 0.949 . S
H712 C689 0.950 . S
H713 C691 0.950 . S
C714 C715 1.349 . S
C714 C716 1.327 . S
C714 H739 0.950 . S
C715 C714 1.349 . S
C715 C731 1.349 . S
C716 C714 1.327 . S
C716 C735 1.429 . S
C716 H740 0.950 . S
C717 C734 1.574 . S
C717 C736 1.368 . S
C717 H741 0.949 . S
H718 C722 0.949 . S
C719 C720 1.349 . S
C719 C721 1.327 . S
C719 H742 0.950 . S
C720 C719 1.349 . S
C720 C732 1.349 . S
C721 C719 1.327 . S
C721 C737 1.429 . S
C721 H743 0.950 . S
C722 H718 0.949 . S
C722 C730 1.574 . S
C722 C738 1.368 . S
H723 C731 0.950 . S
H724 C729 0.950 . S
H725 C730 0.949 . S
H726 C732 0.950 . S
H727 C733 0.950 . S
H728 C734 0.949 . S
C729 H724 0.950 . S
C729 C731 1.327 . S
C729 C735 1.429 . S
C730 C722 1.574 . S
C730 H725 0.949 . S
C730 C736 1.368 . S
C731 C715 1.349 . S
C731 H723 0.950 . S
C731 C729 1.327 . S
C732 C720 1.349 . S
C732 H726 0.950 . S
C732 C733 1.327 . S
C733 H727 0.950 . S
C733 C732 1.327 . S
C733 C737 1.429 . S
C734 C717 1.574 . S
C734 H728 0.949 . S
C734 C738 1.368 . S
C735 C716 1.429 . S
C735 C729 1.429 . S
C735 C736 1.523 . S
C736 C717 1.368 . S
C736 C730 1.368 . S
C736 C735 1.523 . S
C737 C721 1.429 . S
C737 C733 1.429 . S
C737 C738 1.523 . S
C738 C722 1.368 . S
C738 C734 1.368 . S
C738 C737 1.523 . S
H739 C714 0.950 . S
H740 C716 0.950 . S
H741 C717 0.949 . S
H742 C719 0.950 . S
H743 C721 0.950 . S
C744 C745 1.349 . S
C744 C746 1.327 . S
C744 H769 0.950 . S
C745 C744 1.349 . S
C745 C761 1.349 . S
C746 C744 1.327 . S
C746 C765 1.429 . S
C746 H770 0.950 . S
C747 C764 1.574 1_566 S
C747 C766 1.368 . S
C747 H771 0.949 . S
H748 C752 0.949 . S
C749 C750 1.349 . S
C749 C751 1.327 . S
C749 H772 0.950 . S
C750 C749 1.349 . S
C750 C762 1.349 . S
C751 C749 1.327 . S
C751 C767 1.429 . S
C751 H773 0.950 . S
C752 H748 0.949 . S
C752 C760 1.574 1_544 S
C752 C768 1.368 . S
H753 C761 0.950 . S
H754 C759 0.950 . S
H755 C760 0.949 . S
H756 C762 0.950 . S
H757 C763 0.950 . S
H758 C764 0.949 . S
C759 H754 0.950 . S
C759 C761 1.327 . S
C759 C765 1.429 . S
C760 C752 1.574 1_566 S
C760 H755 0.949 . S
C760 C766 1.368 . S
C761 C745 1.349 . S
C761 H753 0.950 . S
C761 C759 1.327 . S
C762 C750 1.349 . S
C762 H756 0.950 . S
C762 C763 1.327 . S
C763 H757 0.950 . S
C763 C762 1.327 . S
C763 C767 1.429 . S
C764 C747 1.574 1_544 S
C764 H758 0.949 . S
C764 C768 1.368 . S
C765 C746 1.429 . S
C765 C759 1.429 . S
C765 C766 1.523 . S
C766 C747 1.368 . S
C766 C760 1.368 . S
C766 C765 1.523 . S
C767 C751 1.429 . S
C767 C763 1.429 . S
C767 C768 1.523 . S
C768 C752 1.368 . S
C768 C764 1.368 . S
C768 C767 1.523 . S
H769 C744 0.950 . S
H770 C746 0.950 . S
H771 C747 0.949 . S
H772 C749 0.950 . S
H773 C751 0.950 . S
C774 C775 1.349 . S
C774 C776 1.327 . S
C774 H799 0.950 . S
C775 C774 1.349 . S
C775 C791 1.349 . S
C776 C774 1.327 . S
C776 C795 1.429 . S
C776 H800 0.950 . S
C777 C794 1.574 . S
C777 C796 1.368 . S
C777 H801 0.949 . S
H778 C782 0.949 . S
C779 C780 1.349 . S
C779 C781 1.327 . S
C779 H802 0.950 . S
C780 C779 1.349 . S
C780 C792 1.349 . S
C781 C779 1.327 . S
C781 C797 1.429 . S
C781 H803 0.950 . S
C782 H778 0.949 . S
C782 C790 1.574 . S
C782 C798 1.368 . S
H783 C791 0.950 . S
H784 C789 0.950 . S
H785 C790 0.949 . S
H786 C792 0.950 . S
H787 C793 0.950 . S
H788 C794 0.949 . S
C789 H784 0.950 . S
C789 C791 1.327 . S
C789 C795 1.429 . S
C790 C782 1.574 . S
C790 H785 0.949 . S
C790 C796 1.368 . S
C791 C775 1.349 . S
C791 H783 0.950 . S
C791 C789 1.327 . S
C792 C780 1.349 . S
C792 H786 0.950 . S
C792 C793 1.327 . S
C793 H787 0.950 . S
C793 C792 1.327 . S
C793 C797 1.429 . S
C794 C777 1.574 . S
C794 H788 0.949 . S
C794 C798 1.368 . S
C795 C776 1.429 . S
C795 C789 1.429 . S
C795 C796 1.523 . S
C796 C777 1.368 . S
C796 C790 1.368 . S
C796 C795 1.523 . S
C797 C781 1.429 . S
C797 C793 1.429 . S
C797 C798 1.523 . S
C798 C782 1.368 . S
C798 C794 1.368 . S
C798 C797 1.523 . S
H799 C774 0.950 . S
H800 C776 0.950 . S
H801 C777 0.949 . S
H802 C779 0.950 . S
H803 C781 0.950 . S
C804 C805 1.349 . S
C804 C806 1.327 . S
C804 H829 0.950 . S
C805 C804 1.349 . S
C805 C821 1.349 . S
C806 C804 1.327 . S
C806 C825 1.429 . S
C806 H830 0.950 . S
C807 C824 1.574 1_455 S
C807 C826 1.368 . S
C807 H831 0.949 . S
H808 C812 0.949 . S
C809 C810 1.349 . S
C809 C811 1.327 . S
C809 H832 0.950 . S
C810 C809 1.349 . S
C810 C822 1.349 . S
C811 C809 1.327 . S
C811 C827 1.429 . S
C811 H833 0.950 . S
C812 H808 0.949 . S
C812 C820 1.574 1_655 S
C812 C828 1.368 . S
H813 C821 0.950 . S
H814 C819 0.950 . S
H815 C820 0.949 . S
H816 C822 0.950 . S
H817 C823 0.950 . S
H818 C824 0.949 . S
C819 H814 0.950 . S
C819 C821 1.327 . S
C819 C825 1.429 . S
C820 C812 1.574 1_455 S
C820 H815 0.949 . S
C820 C826 1.368 . S
C821 C805 1.349 . S
C821 H813 0.950 . S
C821 C819 1.327 . S
C822 C810 1.349 . S
C822 H816 0.950 . S
C822 C823 1.327 . S
C823 H817 0.950 . S
C823 C822 1.327 . S
C823 C827 1.429 . S
C824 C807 1.574 1_655 S
C824 H818 0.949 . S
C824 C828 1.368 . S
C825 C806 1.429 . S
C825 C819 1.429 . S
C825 C826 1.523 . S
C826 C807 1.368 . S
C826 C820 1.368 . S
C826 C825 1.523 . S
C827 C811 1.429 . S
C827 C823 1.429 . S
C827 C828 1.523 . S
C828 C812 1.368 . S
C828 C824 1.368 . S
C828 C827 1.523 . S
H829 C804 0.950 . S
H830 C806 0.950 . S
H831 C807 0.949 . S
H832 C809 0.950 . S
H833 C811 0.950 . S
C834 C835 1.349 . S
C834 C836 1.327 . S
C834 H859 0.950 . S
C835 C834 1.349 . S
C835 C851 1.349 . S
C836 C834 1.327 . S
C836 C855 1.429 . S
C836 H860 0.950 . S
C837 C854 1.591 1_554 S
C837 C856 1.364 1_545 S
C837 H861 0.950 . S
H838 C842 0.950 . S
C839 C840 1.349 . S
C839 C841 1.327 . S
C839 H862 0.950 . S
C840 C839 1.349 . S
C840 C852 1.349 . S
C841 C839 1.327 . S
C841 C857 1.429 . S
C841 H863 0.950 . S
C842 H838 0.950 . S
C842 C850 1.590 1_556 S
C842 C858 1.364 1_565 S
H843 C851 0.950 . S
H844 C849 0.950 . S
H845 C850 0.949 . S
H846 C852 0.950 . S
H847 C853 0.950 . S
H848 C854 0.949 . S
C849 H844 0.950 . S
C849 C851 1.327 . S
C849 C855 1.429 . S
C850 C842 1.590 1_554 S
C850 H845 0.949 . S
C850 C856 1.368 . S
C851 C835 1.349 . S
C851 H843 0.950 . S
C851 C849 1.327 . S
C852 C840 1.349 . S
C852 H846 0.950 . S
C852 C853 1.327 . S
C853 H847 0.950 . S
C853 C852 1.327 . S
C853 C857 1.429 . S
C854 C837 1.591 1_556 S
C854 H848 0.949 . S
C854 C858 1.368 . S
C855 C836 1.429 . S
C855 C849 1.429 . S
C855 C856 1.523 . S
C856 C837 1.364 1_565 S
C856 C850 1.368 . S
C856 C855 1.523 . S
C857 C841 1.429 . S
C857 C853 1.429 . S
C857 C858 1.523 . S
C858 C842 1.364 1_545 S
C858 C854 1.368 . S
C858 C857 1.523 . S
H859 C834 0.950 . S
H860 C836 0.950 . S
H861 C837 0.950 . S
H862 C839 0.950 . S
H863 C841 0.950 . S
C864 C865 1.349 . S
C864 C866 1.327 . S
C864 H889 0.950 . S
C865 C864 1.349 . S
C865 C881 1.349 . S
C866 C864 1.327 . S
C866 C885 1.429 . S
C866 H890 0.950 . S
C867 C884 1.574 . S
C867 C886 1.368 . S
C867 H891 0.949 . S
H868 C872 0.949 . S
C869 C870 1.349 . S
C869 C871 1.327 . S
C869 H892 0.950 . S
C870 C869 1.349 . S
C870 C882 1.349 . S
C871 C869 1.327 . S
C871 C887 1.429 . S
C871 H893 0.950 . S
C872 H868 0.949 . S
C872 C880 1.574 . S
C872 C888 1.368 . S
H873 C881 0.950 . S
H874 C879 0.950 . S
H875 C880 0.949 . S
H876 C882 0.950 . S
H877 C883 0.950 . S
H878 C884 0.949 . S
C879 H874 0.950 . S
C879 C881 1.327 . S
C879 C885 1.429 . S
C880 C872 1.574 . S
C880 H875 0.949 . S
C880 C886 1.368 . S
C881 C865 1.349 . S
C881 H873 0.950 . S
C881 C879 1.327 . S
C882 C870 1.349 . S
C882 H876 0.950 . S
C882 C883 1.327 . S
C883 H877 0.950 . S
C883 C882 1.327 . S
C883 C887 1.429 . S
C884 C867 1.574 . S
C884 H878 0.949 . S
C884 C888 1.368 . S
C885 C866 1.429 . S
C885 C879 1.429 . S
C885 C886 1.523 . S
C886 C867 1.368 . S
C886 C880 1.368 . S
C886 C885 1.523 . S
C887 C871 1.429 . S
C887 C883 1.429 . S
C887 C888 1.523 . S
C888 C872 1.368 . S
C888 C884 1.368 . S
C888 C887 1.523 . S
H889 C864 0.950 . S
H890 C866 0.950 . S
H891 C867 0.949 . S
H892 C869 0.950 . S
H893 C871 0.950 . S
C894 C895 1.349 . S
C894 C896 1.327 . S
C894 H919 0.950 . S
C895 C894 1.349 . S
C895 C911 1.349 . S
C896 C894 1.327 . S
C896 C915 1.429 . S
C896 H920 0.950 . S
C897 C914 1.574 . S
C897 C916 1.368 . S
C897 H921 0.949 . S
H898 C902 0.949 . S
C899 C900 1.349 . S
C899 C901 1.327 . S
C899 H922 0.950 . S
C900 C899 1.349 . S
C900 C912 1.349 . S
C901 C899 1.327 . S
C901 C917 1.429 . S
C901 H923 0.950 . S
C902 H898 0.949 . S
C902 C910 1.574 . S
C902 C918 1.368 . S
H903 C911 0.950 . S
H904 C909 0.950 . S
H905 C910 0.949 . S
H906 C912 0.950 . S
H907 C913 0.950 . S
H908 C914 0.949 . S
C909 H904 0.950 . S
C909 C911 1.327 . S
C909 C915 1.429 . S
C910 C902 1.574 . S
C910 H905 0.949 . S
C910 C916 1.368 1_655 S
C911 C895 1.349 . S
C911 H903 0.950 . S
C911 C909 1.327 . S
C912 C900 1.349 . S
C912 H906 0.950 . S
C912 C913 1.327 . S
C913 H907 0.950 . S
C913 C912 1.327 . S
C913 C917 1.429 . S
C914 C897 1.574 . S
C914 H908 0.949 . S
C914 C918 1.368 1_455 S
C915 C896 1.429 . S
C915 C909 1.429 . S
C915 C916 1.523 . S
C916 C897 1.368 . S
C916 C910 1.368 1_455 S
C916 C915 1.523 . S
C917 C901 1.429 . S
C917 C913 1.429 . S
C917 C918 1.523 . S
C918 C902 1.368 . S
C918 C914 1.368 1_655 S
C918 C917 1.523 . S
H919 C894 0.950 . S
H920 C896 0.950 . S
H921 C897 0.949 . S
H922 C899 0.950 . S
H923 C901 0.950 . S
C924 C925 1.349 . S
C924 C926 1.327 . S
C924 H949 0.950 . S
C925 C924 1.349 . S
C925 C941 1.349 . S
C926 C924 1.327 . S
C926 C945 1.429 . S
C926 H950 0.950 . S
C927 C944 1.574 . S
C927 C946 1.368 1_565 S
C927 H951 0.949 . S
H928 C932 0.949 . S
C929 C930 1.349 . S
C929 C931 1.327 . S
C929 H952 0.950 . S
C930 C929 1.349 . S
C930 C942 1.349 . S
C931 C929 1.327 . S
C931 C947 1.429 . S
C931 H953 0.950 . S
C932 H928 0.949 . S
C932 C940 1.574 . S
C932 C948 1.368 1_545 S
H933 C941 0.950 . S
H934 C939 0.950 . S
H935 C940 0.949 . S
H936 C942 0.950 . S
H937 C943 0.950 . S
H938 C944 0.949 . S
C939 H934 0.950 . S
C939 C941 1.327 . S
C939 C945 1.429 . S
C940 C932 1.574 . S
C940 H935 0.949 . S
C940 C946 1.368 . S
C941 C925 1.349 . S
C941 H933 0.950 . S
C941 C939 1.327 . S
C942 C930 1.349 . S
C942 H936 0.950 . S
C942 C943 1.327 . S
C943 H937 0.950 . S
C943 C942 1.327 . S
C943 C947 1.429 . S
C944 C927 1.574 . S
C944 H938 0.949 . S
C944 C948 1.368 . S
C945 C926 1.429 . S
C945 C939 1.429 . S
C945 C946 1.523 . S
C946 C927 1.368 1_545 S
C946 C940 1.368 . S
C946 C945 1.523 . S
C947 C931 1.429 . S
C947 C943 1.429 . S
C947 C948 1.523 . S
C948 C932 1.368 1_565 S
C948 C944 1.368 . S
C948 C947 1.523 . S
H949 C924 0.950 . S
H950 C926 0.950 . S
H951 C927 0.949 . S
H952 C929 0.950 . S
H953 C931 0.950 . S
C954 C955 1.349 . S
C954 C956 1.327 . S
C954 H979 0.950 . S
C955 C954 1.349 . S
C955 C971 1.349 . S
C956 C954 1.327 . S
C956 C975 1.429 . S
C956 H980 0.950 . S
C957 C974 1.574 . S
C957 C976 1.368 . S
C957 H981 0.949 . S
H958 C962 0.949 . S
C959 C960 1.349 . S
C959 C961 1.327 . S
C959 H982 0.950 . S
C960 C959 1.349 . S
C960 C972 1.349 . S
C961 C959 1.327 . S
C961 C977 1.429 . S
C961 H983 0.950 . S
C962 H958 0.949 . S
C962 C970 1.574 . S
C962 C978 1.368 . S
H963 C971 0.950 . S
H964 C969 0.950 . S
H965 C970 0.949 . S
H966 C972 0.950 . S
H967 C973 0.950 . S
H968 C974 0.949 . S
C969 H964 0.950 . S
C969 C971 1.327 . S
C969 C975 1.429 . S
C970 C962 1.574 . S
C970 H965 0.949 . S
C970 C976 1.368 . S
C971 C955 1.349 . S
C971 H963 0.950 . S
C971 C969 1.327 . S
C972 C960 1.349 . S
C972 H966 0.950 . S
C972 C973 1.327 . S
C973 H967 0.950 . S
C973 C972 1.327 . S
C973 C977 1.429 . S
C974 C957 1.574 . S
C974 H968 0.949 . S
C974 C978 1.368 . S
C975 C956 1.429 . S
C975 C969 1.429 . S
C975 C976 1.523 . S
C976 C957 1.368 . S
C976 C970 1.368 . S
C976 C975 1.523 . S
C977 C961 1.429 . S
C977 C973 1.429 . S
C977 C978 1.523 . S
C978 C962 1.368 . S
C978 C974 1.368 . S
C978 C977 1.523 . S
H979 C954 0.950 . S
H980 C956 0.950 . S
H981 C957 0.949 . S
H982 C959 0.950 . S
H983 C961 0.950 . S
C984 C985 1.349 . S
C984 C986 1.327 . S
C984 H1009 0.950 . S
C985 C984 1.349 . S
C985 C1001 1.349 . S
C986 C984 1.327 . S
C986 C1005 1.429 . S
C986 H1010 0.950 . S
C987 C1004 1.574 . S
C987 C1006 1.368 1_455 S
C987 H1011 0.949 1_556 S
H988 C992 0.949 . S
C989 C990 1.349 . S
C989 C991 1.327 . S
C989 H1012 0.950 1_556 S
C990 C989 1.349 . S
C990 C1002 1.349 . S
C991 C989 1.327 . S
C991 C1007 1.429 . S
C991 H1013 0.950 1_556 S
C992 H988 0.949 . S
C992 C1000 1.574 . S
C992 C1008 1.368 1_655 S
H993 C1001 0.950 1_554 S
H994 C999 0.950 1_554 S
H995 C1000 0.949 . S
H996 C1002 0.950 . S
H997 C1003 0.950 . S
H998 C1004 0.949 1_554 S
C999 H994 0.950 1_556 S
C999 C1001 1.327 . S
C999 C1005 1.429 . S
C1000 C992 1.574 . S
C1000 H995 0.949 . S
C1000 C1006 1.368 . S
C1001 C985 1.349 . S
C1001 H993 0.950 1_556 S
C1001 C999 1.327 . S
C1002 C990 1.349 . S
C1002 H996 0.950 . S
C1002 C1003 1.327 . S
C1003 H997 0.950 . S
C1003 C1002 1.327 . S
C1003 C1007 1.429 . S
C1004 C987 1.574 . S
C1004 H998 0.949 1_556 S
C1004 C1008 1.368 . S
C1005 C986 1.429 . S
C1005 C999 1.429 . S
C1005 C1006 1.523 . S
C1006 C987 1.368 1_655 S
C1006 C1000 1.368 . S
C1006 C1005 1.523 . S
C1007 C991 1.429 . S
C1007 C1003 1.429 . S
C1007 C1008 1.523 . S
C1008 C992 1.368 1_455 S
C1008 C1004 1.368 . S
C1008 C1007 1.523 . S
H1009 C984 0.950 . S
H1010 C986 0.950 . S
H1011 C987 0.949 1_554 S
H1012 C989 0.950 1_554 S
H1013 C991 0.950 1_554 S
C1014 C1015 1.349 . S
C1014 C1016 1.327 . S
C1014 H1039 0.950 . S
C1015 C1014 1.349 . S
C1015 C1031 1.349 . S
C1016 C1014 1.327 . S
C1016 C1035 1.429 . S
C1016 H1040 0.950 . S
C1017 C1034 1.574 . S
C1017 C1036 1.368 . S
C1017 H1041 0.949 . S
H1018 C1022 0.949 . S
C1019 C1020 1.349 . S
C1019 C1021 1.327 . S
C1019 H1042 0.950 . S
C1020 C1019 1.349 . S
C1020 C1032 1.349 . S
C1021 C1019 1.327 . S
C1021 C1037 1.429 . S
C1021 H1043 0.950 . S
C1022 H1018 0.949 . S
C1022 C1030 1.574 . S
C1022 C1038 1.368 . S
H1023 C1031 0.950 . S
H1024 C1029 0.950 . S
H1025 C1030 0.949 . S
H1026 C1032 0.950 . S
H1027 C1033 0.950 . S
H1028 C1034 0.949 . S
C1029 H1024 0.950 . S
C1029 C1031 1.327 . S
C1029 C1035 1.429 . S
C1030 C1022 1.574 . S
C1030 H1025 0.949 . S
C1030 C1036 1.368 1_655 S
C1031 C1015 1.349 . S
C1031 H1023 0.950 . S
C1031 C1029 1.327 . S
C1032 C1020 1.349 . S
C1032 H1026 0.950 . S
C1032 C1033 1.327 . S
C1033 H1027 0.950 . S
C1033 C1032 1.327 . S
C1033 C1037 1.429 . S
C1034 C1017 1.574 . S
C1034 H1028 0.949 . S
C1034 C1038 1.368 1_455 S
C1035 C1016 1.429 . S
C1035 C1029 1.429 . S
C1035 C1036 1.523 . S
C1036 C1017 1.368 . S
C1036 C1030 1.368 1_455 S
C1036 C1035 1.523 . S
C1037 C1021 1.429 . S
C1037 C1033 1.429 . S
C1037 C1038 1.523 . S
C1038 C1022 1.368 . S
C1038 C1034 1.368 1_655 S
C1038 C1037 1.523 . S
H1039 C1014 0.950 . S
H1040 C1016 0.950 . S
H1041 C1017 0.949 . S
H1042 C1019 0.950 . S
H1043 C1021 0.950 . S
C1044 C1045 1.349 . S
C1044 C1046 1.327 . S
C1044 H1069 0.950 . S
C1045 C1044 1.349 . S
C1045 C1061 1.349 . S
C1046 C1044 1.327 . S
C1046 C1065 1.429 . S
C1046 H1070 0.950 . S
C1047 C1064 1.574 . S
C1047 C1066 1.368 1_545 S
C1047 H1071 0.949 . S
H1048 C1052 0.949 . S
C1049 C1050 1.349 . S
C1049 C1051 1.327 . S
C1049 H1072 0.950 . S
C1050 C1049 1.349 . S
C1050 C1062 1.349 . S
C1051 C1049 1.327 . S
C1051 C1067 1.429 . S
C1051 H1073 0.950 . S
C1052 H1048 0.949 . S
C1052 C1060 1.574 . S
C1052 C1068 1.368 1_565 S
H1053 C1061 0.950 . S
H1054 C1059 0.950 . S
H1055 C1060 0.949 . S
H1056 C1062 0.950 . S
H1057 C1063 0.950 . S
H1058 C1064 0.949 . S
C1059 H1054 0.950 . S
C1059 C1061 1.327 . S
C1059 C1065 1.429 . S
C1060 C1052 1.574 . S
C1060 H1055 0.949 . S
C1060 C1066 1.368 . S
C1061 C1045 1.349 . S
C1061 H1053 0.950 . S
C1061 C1059 1.327 . S
C1062 C1050 1.349 . S
C1062 H1056 0.950 . S
C1062 C1063 1.327 . S
C1063 H1057 0.950 . S
C1063 C1062 1.327 . S
C1063 C1067 1.429 . S
C1064 C1047 1.574 . S
C1064 H1058 0.949 . S
C1064 C1068 1.368 . S
C1065 C1046 1.429 . S
C1065 C1059 1.429 . S
C1065 C1066 1.523 . S
C1066 C1047 1.368 1_565 S
C1066 C1060 1.368 . S
C1066 C1065 1.523 . S
C1067 C1051 1.429 . S
C1067 C1063 1.429 . S
C1067 C1068 1.523 . S
C1068 C1052 1.368 1_545 S
C1068 C1064 1.368 . S
C1068 C1067 1.523 . S
H1069 C1044 0.950 . S
H1070 C1046 0.950 . S
H1071 C1047 0.949 . S
H1072 C1049 0.950 . S
H1073 C1051 0.950 . S
C1074 C1075 1.349 . S
C1074 C1076 1.327 . S
C1074 H1099 0.950 1_554 S
C1075 C1074 1.349 . S
C1075 C1091 1.349 . S
C1076 C1074 1.327 . S
C1076 C1095 1.429 . S
C1076 H1100 0.950 1_554 S
C1077 C1094 1.574 . S
C1077 C1096 1.368 . S
C1077 H1101 0.949 . S
H1078 C1082 0.949 1_556 S
C1079 C1080 1.349 . S
C1079 C1081 1.327 . S
C1079 H1102 0.950 . S
C1080 C1079 1.349 . S
C1080 C1092 1.349 . S
C1081 C1079 1.327 . S
C1081 C1097 1.429 . S
C1081 H1103 0.950 . S
C1082 H1078 0.949 1_554 S
C1082 C1090 1.574 . S
C1082 C1098 1.368 . S
H1083 C1091 0.950 . S
H1084 C1089 0.950 . S
H1085 C1090 0.949 1_556 S
H1086 C1092 0.950 1_556 S
H1087 C1093 0.950 1_556 S
H1088 C1094 0.949 . S
C1089 H1084 0.950 . S
C1089 C1091 1.327 . S
C1089 C1095 1.429 . S
C1090 C1082 1.574 . S
C1090 H1085 0.949 1_554 S
C1090 C1096 1.368 . S
C1091 C1075 1.349 . S
C1091 H1083 0.950 . S
C1091 C1089 1.327 . S
C1092 C1080 1.349 . S
C1092 H1086 0.950 1_554 S
C1092 C1093 1.327 . S
C1093 H1087 0.950 1_554 S
C1093 C1092 1.327 . S
C1093 C1097 1.429 . S
C1094 C1077 1.574 . S
C1094 H1088 0.949 . S
C1094 C1098 1.368 . S
C1095 C1076 1.429 . S
C1095 C1089 1.429 . S
C1095 C1096 1.523 . S
C1096 C1077 1.368 . S
C1096 C1090 1.368 . S
C1096 C1095 1.523 . S
C1097 C1081 1.429 . S
C1097 C1093 1.429 . S
C1097 C1098 1.523 . S
C1098 C1082 1.368 . S
C1098 C1094 1.368 . S
C1098 C1097 1.523 . S
H1099 C1074 0.950 1_556 S
H1100 C1076 0.950 1_556 S
H1101 C1077 0.949 . S
H1102 C1079 0.950 . S
H1103 C1081 0.950 . S
C1104 C1105 1.349 . S
C1104 C1106 1.327 . S
C1104 H1129 0.950 . S
C1105 C1104 1.349 . S
C1105 C1121 1.349 . S
C1106 C1104 1.327 . S
C1106 C1125 1.429 . S
C1106 H1130 0.950 . S
C1107 C1124 1.567 1_565 S
C1107 C1126 1.371 . S
C1107 H1131 0.936 . S
H1108 C1112 0.936 . S
C1109 C1110 1.349 . S
C1109 C1111 1.327 . S
C1109 H1132 0.950 . S
C1110 C1109 1.349 . S
C1110 C1122 1.349 . S
C1111 C1109 1.327 . S
C1111 C1127 1.429 . S
C1111 H1133 0.950 . S
C1112 H1108 0.936 . S
C1112 C1120 1.567 1_545 S
C1112 C1128 1.371 . S
H1113 C1121 0.950 . S
H1114 C1119 0.950 . S
H1115 C1120 0.949 . S
H1116 C1122 0.950 . S
H1117 C1123 0.950 . S
H1118 C1124 0.949 . S
C1119 H1114 0.950 . S
C1119 C1121 1.327 . S
C1119 C1125 1.429 . S
C1120 C1112 1.567 1_565 S
C1120 H1115 0.949 . S
C1120 C1126 1.368 . S
C1121 C1105 1.349 . S
C1121 H1113 0.950 . S
C1121 C1119 1.327 . S
C1122 C1110 1.349 . S
C1122 H1116 0.950 . S
C1122 C1123 1.327 . S
C1123 H1117 0.950 . S
C1123 C1122 1.327 . S
C1123 C1127 1.429 . S
C1124 C1107 1.567 1_545 S
C1124 H1118 0.949 . S
C1124 C1128 1.368 . S
C1125 C1106 1.429 . S
C1125 C1119 1.429 . S
C1125 C1126 1.523 . S
C1126 C1107 1.371 . S
C1126 C1120 1.368 . S
C1126 C1125 1.523 . S
C1127 C1111 1.429 . S
C1127 C1123 1.429 . S
C1127 C1128 1.523 . S
C1128 C1112 1.371 . S
C1128 C1124 1.368 . S
C1128 C1127 1.523 . S
H1129 C1104 0.950 . S
H1130 C1106 0.950 . S
H1131 C1107 0.936 . S
H1132 C1109 0.950 . S
H1133 C1111 0.950 . S
C1134 C1135 1.349 . S
C1134 C1136 1.327 . S
C1134 H1159 0.950 . S
C1135 C1134 1.349 . S
C1135 C1151 1.349 . S
C1136 C1134 1.327 . S
C1136 C1155 1.429 . S
C1136 H1160 0.950 . S
C1137 C1154 1.574 . S
C1137 C1156 1.368 . S
C1137 H1161 0.949 . S
H1138 C1142 0.949 . S
C1139 C1140 1.349 . S
C1139 C1141 1.327 . S
C1139 H1162 0.950 . S
C1140 C1139 1.349 . S
C1140 C1152 1.349 . S
C1141 C1139 1.327 . S
C1141 C1157 1.429 . S
C1141 H1163 0.950 . S
C1142 H1138 0.949 . S
C1142 C1150 1.574 . S
C1142 C1158 1.368 . S
H1143 C1151 0.950 . S
H1144 C1149 0.950 . S
H1145 C1150 0.949 . S
H1146 C1152 0.950 . S
H1147 C1153 0.950 . S
H1148 C1154 0.949 . S
C1149 H1144 0.950 . S
C1149 C1151 1.327 . S
C1149 C1155 1.429 . S
C1150 C1142 1.574 . S
C1150 H1145 0.949 . S
C1150 C1156 1.368 . S
C1151 C1135 1.349 . S
C1151 H1143 0.950 . S
C1151 C1149 1.327 . S
C1152 C1140 1.349 . S
C1152 H1146 0.950 . S
C1152 C1153 1.327 . S
C1153 H1147 0.950 . S
C1153 C1152 1.327 . S
C1153 C1157 1.429 . S
C1154 C1137 1.574 . S
C1154 H1148 0.949 . S
C1154 C1158 1.368 . S
C1155 C1136 1.429 . S
C1155 C1149 1.429 . S
C1155 C1156 1.523 . S
C1156 C1137 1.368 . S
C1156 C1150 1.368 . S
C1156 C1155 1.523 . S
C1157 C1141 1.429 . S
C1157 C1153 1.429 . S
C1157 C1158 1.523 . S
C1158 C1142 1.368 . S
C1158 C1154 1.368 . S
C1158 C1157 1.523 . S
H1159 C1134 0.950 . S
H1160 C1136 0.950 . S
H1161 C1137 0.949 . S
H1162 C1139 0.950 . S
H1163 C1141 0.950 . S
C1164 C1165 1.349 . S
C1164 C1166 1.327 . S
C1164 H1189 0.950 . S
C1165 C1164 1.349 . S
C1165 C1181 1.349 . S
C1166 C1164 1.327 . S
C1166 C1185 1.429 . S
C1166 H1190 0.950 . S
C1167 C1184 1.574 1_655 S
C1167 C1186 1.368 . S
C1167 H1191 0.949 . S
H1168 C1172 0.949 . S
C1169 C1170 1.349 . S
C1169 C1171 1.327 . S
C1169 H1192 0.950 . S
C1170 C1169 1.349 . S
C1170 C1182 1.349 . S
C1171 C1169 1.327 . S
C1171 C1187 1.429 . S
C1171 H1193 0.950 . S
C1172 H1168 0.949 . S
C1172 C1180 1.574 1_455 S
C1172 C1188 1.368 . S
H1173 C1181 0.950 . S
H1174 C1179 0.950 . S
H1175 C1180 0.949 . S
H1176 C1182 0.950 . S
H1177 C1183 0.950 . S
H1178 C1184 0.949 . S
C1179 H1174 0.950 . S
C1179 C1181 1.327 . S
C1179 C1185 1.429 . S
C1180 C1172 1.574 1_655 S
C1180 H1175 0.949 . S
C1180 C1186 1.368 . S
C1181 C1165 1.349 . S
C1181 H1173 0.950 . S
C1181 C1179 1.327 . S
C1182 C1170 1.349 . S
C1182 H1176 0.950 . S
C1182 C1183 1.327 . S
C1183 H1177 0.950 . S
C1183 C1182 1.327 . S
C1183 C1187 1.429 . S
C1184 C1167 1.574 1_455 S
C1184 H1178 0.949 . S
C1184 C1188 1.368 . S
C1185 C1166 1.429 . S
C1185 C1179 1.429 . S
C1185 C1186 1.523 . S
C1186 C1167 1.368 . S
C1186 C1180 1.368 . S
C1186 C1185 1.523 . S
C1187 C1171 1.429 . S
C1187 C1183 1.429 . S
C1187 C1188 1.523 . S
C1188 C1172 1.368 . S
C1188 C1184 1.368 . S
C1188 C1187 1.523 . S
H1189 C1164 0.950 . S
H1190 C1166 0.950 . S
H1191 C1167 0.949 . S
H1192 C1169 0.950 . S
H1193 C1171 0.950 . S
C1194 C1195 1.349 . S
C1194 C1196 1.327 . S
C1194 H1219 0.950 . S
C1195 C1194 1.349 . S
C1195 C1211 1.349 . S
C1196 C1194 1.327 . S
C1196 C1215 1.429 . S
C1196 H1220 0.950 . S
C1197 C1214 1.574 . S
C1197 C1216 1.368 . S
C1197 H1221 0.949 . S
H1198 C1202 0.949 . S
C1199 C1200 1.349 . S
C1199 C1201 1.327 . S
C1199 H1222 0.950 . S
C1200 C1199 1.349 . S
C1200 C1212 1.349 . S
C1201 C1199 1.327 . S
C1201 C1217 1.429 . S
C1201 H1223 0.950 . S
C1202 H1198 0.949 . S
C1202 C1210 1.574 . S
C1202 C1218 1.368 . S
H1203 C1211 0.950 . S
H1204 C1209 0.950 . S
H1205 C1210 0.949 . S
H1206 C1212 0.950 . S
H1207 C1213 0.950 . S
H1208 C1214 0.949 . S
C1209 H1204 0.950 . S
C1209 C1211 1.327 . S
C1209 C1215 1.429 . S
C1210 C1202 1.574 . S
C1210 H1205 0.949 . S
C1210 C1216 1.368 1_565 S
C1211 C1195 1.349 . S
C1211 H1203 0.950 . S
C1211 C1209 1.327 . S
C1212 C1200 1.349 . S
C1212 H1206 0.950 . S
C1212 C1213 1.327 . S
C1213 H1207 0.950 . S
C1213 C1212 1.327 . S
C1213 C1217 1.429 . S
C1214 C1197 1.574 . S
C1214 H1208 0.949 . S
C1214 C1218 1.368 1_545 S
C1215 C1196 1.429 . S
C1215 C1209 1.429 . S
C1215 C1216 1.523 . S
C1216 C1197 1.368 . S
C1216 C1210 1.368 1_545 S
C1216 C1215 1.523 . S
C1217 C1201 1.429 . S
C1217 C1213 1.429 . S
C1217 C1218 1.523 . S
C1218 C1202 1.368 . S
C1218 C1214 1.368 1_565 S
C1218 C1217 1.523 . S
H1219 C1194 0.950 . S
H1220 C1196 0.950 . S
H1221 C1197 0.949 . S
H1222 C1199 0.950 . S
H1223 C1201 0.950 . S
C1224 C1225 1.349 . S
C1224 C1226 1.327 . S
C1224 H1249 0.950 . S
C1225 C1224 1.349 . S
C1225 C1241 1.349 . S
C1226 C1224 1.327 . S
C1226 C1245 1.429 . S
C1226 H1250 0.950 . S
C1227 C1244 1.574 . S
C1227 C1246 1.368 . S
C1227 H1251 0.949 . S
H1228 C1232 0.949 . S
C1229 C1230 1.349 . S
C1229 C1231 1.327 . S
C1229 H1252 0.950 . S
C1230 C1229 1.349 . S
C1230 C1242 1.349 . S
C1231 C1229 1.327 . S
C1231 C1247 1.429 . S
C1231 H1253 0.950 . S
C1232 H1228 0.949 . S
C1232 C1240 1.574 . S
C1232 C1248 1.368 . S
H1233 C1241 0.950 . S
H1234 C1239 0.950 . S
H1235 C1240 0.949 . S
H1236 C1242 0.950 . S
H1237 C1243 0.950 . S
H1238 C1244 0.949 . S
C1239 H1234 0.950 . S
C1239 C1241 1.327 . S
C1239 C1245 1.429 . S
C1240 C1232 1.574 . S
C1240 H1235 0.949 . S
C1240 C1246 1.368 . S
C1241 C1225 1.349 . S
C1241 H1233 0.950 . S
C1241 C1239 1.327 . S
C1242 C1230 1.349 . S
C1242 H1236 0.950 . S
C1242 C1243 1.327 . S
C1243 H1237 0.950 . S
C1243 C1242 1.327 . S
C1243 C1247 1.429 . S
C1244 C1227 1.574 . S
C1244 H1238 0.949 . S
C1244 C1248 1.368 . S
C1245 C1226 1.429 . S
C1245 C1239 1.429 . S
C1245 C1246 1.523 . S
C1246 C1227 1.368 . S
C1246 C1240 1.368 . S
C1246 C1245 1.523 . S
C1247 C1231 1.429 . S
C1247 C1243 1.429 . S
C1247 C1248 1.523 . S
C1248 C1232 1.368 . S
C1248 C1244 1.368 . S
C1248 C1247 1.523 . S
H1249 C1224 0.950 . S
H1250 C1226 0.950 . S
H1251 C1227 0.949 . S
H1252 C1229 0.950 . S
H1253 C1231 0.950 . S
C1254 C1255 1.349 . S
C1254 C1256 1.327 . S
C1254 H1279 0.950 . S
C1255 C1254 1.349 . S
C1255 C1271 1.349 . S
C1256 C1254 1.327 . S
C1256 C1275 1.429 . S
C1256 H1280 0.950 . S
C1257 C1274 1.574 1_455 S
C1257 C1276 1.368 . S
C1257 H1281 0.949 . S
H1258 C1262 0.949 . S
C1259 C1260 1.349 . S
C1259 C1261 1.327 . S
C1259 H1282 0.950 . S
C1260 C1259 1.349 . S
C1260 C1272 1.349 . S
C1261 C1259 1.327 . S
C1261 C1277 1.429 . S
C1261 H1283 0.950 . S
C1262 H1258 0.949 . S
C1262 C1270 1.574 1_655 S
C1262 C1278 1.368 . S
H1263 C1271 0.950 . S
H1264 C1269 0.950 . S
H1265 C1270 0.949 . S
H1266 C1272 0.950 . S
H1267 C1273 0.950 . S
H1268 C1274 0.949 . S
C1269 H1264 0.950 . S
C1269 C1271 1.327 . S
C1269 C1275 1.429 . S
C1270 C1262 1.574 1_455 S
C1270 H1265 0.949 . S
C1270 C1276 1.368 . S
C1271 C1255 1.349 . S
C1271 H1263 0.950 . S
C1271 C1269 1.327 . S
C1272 C1260 1.349 . S
C1272 H1266 0.950 . S
C1272 C1273 1.327 . S
C1273 H1267 0.950 . S
C1273 C1272 1.327 . S
C1273 C1277 1.429 . S
C1274 C1257 1.574 1_655 S
C1274 H1268 0.949 . S
C1274 C1278 1.368 . S
C1275 C1256 1.429 . S
C1275 C1269 1.429 . S
C1275 C1276 1.523 . S
C1276 C1257 1.368 . S
C1276 C1270 1.368 . S
C1276 C1275 1.523 . S
C1277 C1261 1.429 . S
C1277 C1273 1.429 . S
C1277 C1278 1.523 . S
C1278 C1262 1.368 . S
C1278 C1274 1.368 . S
C1278 C1277 1.523 . S
H1279 C1254 0.950 . S
H1280 C1256 0.950 . S
H1281 C1257 0.949 . S
H1282 C1259 0.950 . S
H1283 C1261 0.950 . S
C1284 C1285 1.349 . S
C1284 C1286 1.327 . S
C1284 H1309 0.950 . S
C1285 C1284 1.349 . S
C1285 C1301 1.349 . S
C1286 C1284 1.327 . S
C1286 C1305 1.429 . S
C1286 H1310 0.950 . S
C1287 C1304 1.574 . S
C1287 C1306 1.368 . S
C1287 H1311 0.949 . S
H1288 C1292 0.949 . S
C1289 C1290 1.349 . S
C1289 C1291 1.327 . S
C1289 H1312 0.950 . S
C1290 C1289 1.349 . S
C1290 C1302 1.349 . S
C1291 C1289 1.327 . S
C1291 C1307 1.429 . S
C1291 H1313 0.950 . S
C1292 H1288 0.949 . S
C1292 C1300 1.574 . S
C1292 C1308 1.368 . S
H1293 C1301 0.950 . S
H1294 C1299 0.950 . S
H1295 C1300 0.949 . S
H1296 C1302 0.950 . S
H1297 C1303 0.950 . S
H1298 C1304 0.949 . S
C1299 H1294 0.950 . S
C1299 C1301 1.327 . S
C1299 C1305 1.429 . S
C1300 C1292 1.574 . S
C1300 H1295 0.949 . S
C1300 C1306 1.368 . S
C1301 C1285 1.349 . S
C1301 H1293 0.950 . S
C1301 C1299 1.327 . S
C1302 C1290 1.349 . S
C1302 H1296 0.950 . S
C1302 C1303 1.327 . S
C1303 H1297 0.950 . S
C1303 C1302 1.327 . S
C1303 C1307 1.429 . S
C1304 C1287 1.574 . S
C1304 H1298 0.949 . S
C1304 C1308 1.368 . S
C1305 C1286 1.429 . S
C1305 C1299 1.429 . S
C1305 C1306 1.523 . S
C1306 C1287 1.368 . S
C1306 C1300 1.368 . S
C1306 C1305 1.523 . S
C1307 C1291 1.429 . S
C1307 C1303 1.429 . S
C1307 C1308 1.523 . S
C1308 C1292 1.368 . S
C1308 C1304 1.368 . S
C1308 C1307 1.523 . S
H1309 C1284 0.950 . S
H1310 C1286 0.950 . S
H1311 C1287 0.949 . S
H1312 C1289 0.950 . S
H1313 C1291 0.950 . S
C1314 C1315 1.349 . S
C1314 C1316 1.327 . S
C1314 H1339 0.950 . S
C1315 C1314 1.349 . S
C1315 C1331 1.349 . S
C1316 C1314 1.327 . S
C1316 C1335 1.429 . S
C1316 H1340 0.950 . S
C1317 C1334 1.574 . S
C1317 C1336 1.368 . S
C1317 H1341 0.949 . S
H1318 C1322 0.949 . S
C1319 C1320 1.349 . S
C1319 C1321 1.327 . S
C1319 H1342 0.950 1_556 S
C1320 C1319 1.349 . S
C1320 C1332 1.349 . S
C1321 C1319 1.327 . S
C1321 C1337 1.429 . S
C1321 H1343 0.950 . S
C1322 H1318 0.949 . S
C1322 C1330 1.574 . S
C1322 C1338 1.368 . S
H1323 C1331 0.950 . S
H1324 C1329 0.950 . S
H1325 C1330 0.949 . S
H1326 C1332 0.950 . S
H1327 C1333 0.950 . S
H1328 C1334 0.949 . S
C1329 H1324 0.950 . S
C1329 C1331 1.327 . S
C1329 C1335 1.429 . S
C1330 C1322 1.574 . S
C1330 H1325 0.949 . S
C1330 C1336 1.368 . S
C1331 C1315 1.349 . S
C1331 H1323 0.950 . S
C1331 C1329 1.327 . S
C1332 C1320 1.349 . S
C1332 H1326 0.950 . S
C1332 C1333 1.327 . S
C1333 H1327 0.950 . S
C1333 C1332 1.327 . S
C1333 C1337 1.429 . S
C1334 C1317 1.574 . S
C1334 H1328 0.949 . S
C1334 C1338 1.368 . S
C1335 C1316 1.429 . S
C1335 C1329 1.429 . S
C1335 C1336 1.523 . S
C1336 C1317 1.368 . S
C1336 C1330 1.368 . S
C1336 C1335 1.523 . S
C1337 C1321 1.429 . S
C1337 C1333 1.429 . S
C1337 C1338 1.523 . S
C1338 C1322 1.368 . S
C1338 C1334 1.368 . S
C1338 C1337 1.523 . S
H1339 C1314 0.950 . S
H1340 C1316 0.950 . S
H1341 C1317 0.949 . S
H1342 C1319 0.950 1_554 S
H1343 C1321 0.950 . S
C1344 C1345 1.349 . S
C1344 C1346 1.327 . S
C1344 H1369 0.950 . S
C1345 C1344 1.349 . S
C1345 C1361 1.349 . S
C1346 C1344 1.327 . S
C1346 C1365 1.429 . S
C1346 H1370 0.950 . S
C1347 C1364 1.574 . S
C1347 C1366 1.368 . S
C1347 H1371 0.949 . S
H1348 C1352 0.949 . S
C1349 C1350 1.349 . S
C1349 C1351 1.327 . S
C1349 H1372 0.950 . S
C1350 C1349 1.349 . S
C1350 C1362 1.349 . S
C1351 C1349 1.327 . S
C1351 C1367 1.429 . S
C1351 H1373 0.950 . S
C1352 H1348 0.949 . S
C1352 C1360 1.574 . S
C1352 C1368 1.368 . S
H1353 C1361 0.950 . S
H1354 C1359 0.950 . S
H1355 C1360 0.949 . S
H1356 C1362 0.950 . S
H1357 C1363 0.950 . S
H1358 C1364 0.949 . S
C1359 H1354 0.950 . S
C1359 C1361 1.327 . S
C1359 C1365 1.429 . S
C1360 C1352 1.574 . S
C1360 H1355 0.949 . S
C1360 C1366 1.368 . S
C1361 C1345 1.349 . S
C1361 H1353 0.950 . S
C1361 C1359 1.327 . S
C1362 C1350 1.349 . S
C1362 H1356 0.950 . S
C1362 C1363 1.327 . S
C1363 H1357 0.950 . S
C1363 C1362 1.327 . S
C1363 C1367 1.429 . S
C1364 C1347 1.574 . S
C1364 H1358 0.949 . S
C1364 C1368 1.368 . S
C1365 C1346 1.429 . S
C1365 C1359 1.429 . S
C1365 C1366 1.523 . S
C1366 C1347 1.368 . S
C1366 C1360 1.368 . S
C1366 C1365 1.523 . S
C1367 C1351 1.429 . S
C1367 C1363 1.429 . S
C1367 C1368 1.523 . S
C1368 C1352 1.368 . S
C1368 C1364 1.368 . S
C1368 C1367 1.523 . S
H1369 C1344 0.950 . S
H1370 C1346 0.950 . S
H1371 C1347 0.949 . S
H1372 C1349 0.950 . S
H1373 C1351 0.950 . S
C1374 C1375 1.349 . S
C1374 C1376 1.327 . S
C1374 H1399 0.950 . S
C1375 C1374 1.349 . S
C1375 C1391 1.349 . S
C1376 C1374 1.327 . S
C1376 C1395 1.429 . S
C1376 H1400 0.950 . S
C1377 C1394 1.574 . S
C1377 C1396 1.368 . S
C1377 H1401 0.949 . S
H1378 C1382 0.949 . S
C1379 C1380 1.349 . S
C1379 C1381 1.327 . S
C1379 H1402 0.950 . S
C1380 C1379 1.349 . S
C1380 C1392 1.349 . S
C1381 C1379 1.327 . S
C1381 C1397 1.429 . S
C1381 H1403 0.950 . S
C1382 H1378 0.949 . S
C1382 C1390 1.574 . S
C1382 C1398 1.368 . S
H1383 C1391 0.950 . S
H1384 C1389 0.950 . S
H1385 C1390 0.949 . S
H1386 C1392 0.950 . S
H1387 C1393 0.950 . S
H1388 C1394 0.949 . S
C1389 H1384 0.950 . S
C1389 C1391 1.327 . S
C1389 C1395 1.429 . S
C1390 C1382 1.574 . S
C1390 H1385 0.949 . S
C1390 C1396 1.368 . S
C1391 C1375 1.349 . S
C1391 H1383 0.950 . S
C1391 C1389 1.327 . S
C1392 C1380 1.349 . S
C1392 H1386 0.950 . S
C1392 C1393 1.327 . S
C1393 H1387 0.950 . S
C1393 C1392 1.327 . S
C1393 C1397 1.429 . S
C1394 C1377 1.574 . S
C1394 H1388 0.949 . S
C1394 C1398 1.368 . S
C1395 C1376 1.429 . S
C1395 C1389 1.429 . S
C1395 C1396 1.523 . S
C1396 C1377 1.368 . S
C1396 C1390 1.368 . S
C1396 C1395 1.523 . S
C1397 C1381 1.429 . S
C1397 C1393 1.429 . S
C1397 C1398 1.523 . S
C1398 C1382 1.368 . S
C1398 C1394 1.368 . S
C1398 C1397 1.523 . S
H1399 C1374 0.950 . S
H1400 C1376 0.950 . S
H1401 C1377 0.949 . S
H1402 C1379 0.950 . S
H1403 C1381 0.950 . S
C1404 C1405 1.349 . S
C1404 C1406 1.327 . S
C1404 H1429 0.950 . S
C1405 C1404 1.349 . S
C1405 C1421 1.349 . S
C1406 C1404 1.327 . S
C1406 C1425 1.429 . S
C1406 H1430 0.950 . S
C1407 C1424 1.574 . S
C1407 C1426 1.368 . S
C1407 H1431 0.949 . S
H1408 C1412 0.949 . S
C1409 C1410 1.349 . S
C1409 C1411 1.327 . S
C1409 H1432 0.950 . S
C1410 C1409 1.349 . S
C1410 C1422 1.349 . S
C1411 C1409 1.327 . S
C1411 C1427 1.429 . S
C1411 H1433 0.950 . S
C1412 H1408 0.949 . S
C1412 C1420 1.574 . S
C1412 C1428 1.368 . S
H1413 C1421 0.950 . S
H1414 C1419 0.950 . S
H1415 C1420 0.949 . S
H1416 C1422 0.950 . S
H1417 C1423 0.950 . S
H1418 C1424 0.949 . S
C1419 H1414 0.950 . S
C1419 C1421 1.327 . S
C1419 C1425 1.429 . S
C1420 C1412 1.574 . S
C1420 H1415 0.949 . S
C1420 C1426 1.368 . S
C1421 C1405 1.349 . S
C1421 H1413 0.950 . S
C1421 C1419 1.327 . S
C1422 C1410 1.349 . S
C1422 H1416 0.950 . S
C1422 C1423 1.327 . S
C1423 H1417 0.950 . S
C1423 C1422 1.327 . S
C1423 C1427 1.429 . S
C1424 C1407 1.574 . S
C1424 H1418 0.949 . S
C1424 C1428 1.368 . S
C1425 C1406 1.429 . S
C1425 C1419 1.429 . S
C1425 C1426 1.523 . S
C1426 C1407 1.368 . S
C1426 C1420 1.368 . S
C1426 C1425 1.523 . S
C1427 C1411 1.429 . S
C1427 C1423 1.429 . S
C1427 C1428 1.523 . S
C1428 C1412 1.368 . S
C1428 C1424 1.368 . S
C1428 C1427 1.523 . S
H1429 C1404 0.950 . S
H1430 C1406 0.950 . S
H1431 C1407 0.949 . S
H1432 C1409 0.950 . S
H1433 C1411 0.950 . S
C1434 C1435 1.349 . S
C1434 C1436 1.327 . S
C1434 H1459 0.950 . S
C1435 C1434 1.349 . S
C1435 C1451 1.349 . S
C1436 C1434 1.327 . S
C1436 C1455 1.429 . S
C1436 H1460 0.950 . S
C1437 C1454 1.574 . S
C1437 C1456 1.368 . S
C1437 H1461 0.949 . S
H1438 C1442 0.949 . S
C1439 C1440 1.349 . S
C1439 C1441 1.327 . S
C1439 H1462 0.950 . S
C1440 C1439 1.349 . S
C1440 C1452 1.349 . S
C1441 C1439 1.327 . S
C1441 C1457 1.429 . S
C1441 H1463 0.950 . S
C1442 H1438 0.949 . S
C1442 C1450 1.574 . S
C1442 C1458 1.368 . S
H1443 C1451 0.950 . S
H1444 C1449 0.950 . S
H1445 C1450 0.949 . S
H1446 C1452 0.950 . S
H1447 C1453 0.950 . S
H1448 C1454 0.949 . S
C1449 H1444 0.950 . S
C1449 C1451 1.327 . S
C1449 C1455 1.429 . S
C1450 C1442 1.574 . S
C1450 H1445 0.949 . S
C1450 C1456 1.368 . S
C1451 C1435 1.349 . S
C1451 H1443 0.950 . S
C1451 C1449 1.327 . S
C1452 C1440 1.349 . S
C1452 H1446 0.950 . S
C1452 C1453 1.327 . S
C1453 H1447 0.950 . S
C1453 C1452 1.327 . S
C1453 C1457 1.429 . S
C1454 C1437 1.574 . S
C1454 H1448 0.949 . S
C1454 C1458 1.368 . S
C1455 C1436 1.429 . S
C1455 C1449 1.429 . S
C1455 C1456 1.523 . S
C1456 C1437 1.368 . S
C1456 C1450 1.368 . S
C1456 C1455 1.523 . S
C1457 C1441 1.429 . S
C1457 C1453 1.429 . S
C1457 C1458 1.523 . S
C1458 C1442 1.368 . S
C1458 C1454 1.368 . S
C1458 C1457 1.523 . S
H1459 C1434 0.950 . S
H1460 C1436 0.950 . S
H1461 C1437 0.949 . S
H1462 C1439 0.950 . S
H1463 C1441 0.950 . S
C385 N13 1.087 . S
C390 N274 1.087 . S
C415 N50 1.087 . S
C420 N306 1.087 . S
C445 N82 1.087 . S
C450 N333 1.087 . S
C475 N370 1.087 . S
C480 N114 1.087 . S
C505 N146 1.087 . S
C510 N210 1.087 . S
C535 N237 1.087 . S
C540 N173 1.087 . S
C565 C326 2.192 . S
C570 C6 2.192 . S
C595 C354 2.192 . S
C600 C34 2.192 . S
C625 C66 2.192 . S
C630 C194 2.192 . S
C655 C230 2.192 . S
C660 C98 2.192 . S
C685 C258 2.192 . S
C690 C130 2.192 . S
C715 C166 2.192 . S
C720 C290 2.192 . S
C745 C253 1.708 . S
C750 C29 1.708 . S
C775 C260 1.707 . S
C780 C36 1.707 . S
C805 C292 1.708 . S
C810 C68 1.708 . S
C835 C100 1.708 . S
C840 C349 1.708 . S
C865 C132 1.707 . S
C870 C356 1.707 . S
C895 C189 1.708 . S
C900 C196 1.708 . S
C925 N18 2.728 . S
C930 N109 2.728 . S
C955 N45 2.728 . S
C960 N141 2.728 . S
C985 N77 2.728 . S
C990 N178 2.728 . S
C1015 N301 2.728 . S
C1020 N205 2.728 . S
C1045 N242 2.728 . S
C1050 N338 2.728 . S
C1075 N365 2.728 . S
C1080 N269 2.728 . S
C1105 C228 1.330 . S
C1110 C4 1.330 . S
C1135 C285 1.330 1_556 S
C1140 C61 1.330 . S
C1165 C93 1.330 1_554 S
C1170 C317 1.330 . S
C1195 C324 1.330 . S
C1200 C125 1.330 . S
C1225 C381 1.330 1_556 S
C1230 C157 1.330 . S
C1255 C164 1.330 1_554 S
C1260 C221 1.330 . S
C1285 C2 1.623 . S
C1290 C322 1.623 . S
C1315 C38 1.624 . S
C1320 C358 1.624 1_556 S
C1345 C70 1.623 1_554 S
C1350 C198 1.623 . S
C1375 C102 1.623 . S
C1380 C226 1.623 . S
C1405 C134 1.624 . S
C1410 C262 1.624 1_556 S
C1435 C294 1.623 . S
C1440 C162 1.623 1_554 S
