# Generated by pormake.
# Topology uns, (4)-cn, num edge types: 1
# Building blocks:
#     Node 0, Type 0, BuildingBlock: ESEHIV_clean_sbu_0, # of connection points: 4
#     Node 1, Type 0, BuildingBlock: ESEHIV_clean_sbu_0, # of connection points: 4
#     Node 2, Type 0, BuildingBlock: ESEHIV_clean_sbu_0, # of connection points: 4
#     Node 3, Type 0, BuildingBlock: ESEHIV_clean_sbu_0, # of connection points: 4
#     Node 4, Type 0, BuildingBlock: ESEHIV_clean_sbu_0, # of connection points: 4
#     Node 5, Type 0, BuildingBlock: ESEHIV_clean_sbu_0, # of connection points: 4
#     Node 6, Type 0, BuildingBlock: ESEHIV_clean_sbu_0, # of connection points: 4
#     Node 7, Type 0, BuildingBlock: ESEHIV_clean_sbu_0, # of connection points: 4
#     Node 8, Type 0, BuildingBlock: ESEHIV_clean_sbu_0, # of connection points: 4
#     Node 9, Type 0, BuildingBlock: ESEHIV_clean_sbu_0, # of connection points: 4
#     Node 10, Type 0, BuildingBlock: ESEHIV_clean_sbu_0, # of connection points: 4
#     Node 11, Type 0, BuildingBlock: ESEHIV_clean_sbu_0, # of connection points: 4
#     Node 12, Type 0, BuildingBlock: ESEHIV_clean_sbu_0, # of connection points: 4
#     Node 13, Type 0, BuildingBlock: ESEHIV_clean_sbu_0, # of connection points: 4
#     Node 14, Type 0, BuildingBlock: ESEHIV_clean_sbu_0, # of connection points: 4
#     Node 15, Type 0, BuildingBlock: ESEHIV_clean_sbu_0, # of connection points: 4
#     Node 16, Type 0, BuildingBlock: ESEHIV_clean_sbu_0, # of connection points: 4
#     Node 17, Type 0, BuildingBlock: ESEHIV_clean_sbu_0, # of connection points: 4
#     Node 18, Type 0, BuildingBlock: ESEHIV_clean_sbu_0, # of connection points: 4
#     Node 19, Type 0, BuildingBlock: ESEHIV_clean_sbu_0, # of connection points: 4
#     Node 20, Type 0, BuildingBlock: ESEHIV_clean_sbu_0, # of connection points: 4
#     Node 21, Type 0, BuildingBlock: ESEHIV_clean_sbu_0, # of connection points: 4
#     Node 22, Type 0, BuildingBlock: ESEHIV_clean_sbu_0, # of connection points: 4
#     Node 23, Type 0, BuildingBlock: ESEHIV_clean_sbu_0, # of connection points: 4
#     Node 24, Type 0, BuildingBlock: ESEHIV_clean_sbu_0, # of connection points: 4
#     Node 25, Type 0, BuildingBlock: ESEHIV_clean_sbu_0, # of connection points: 4
#     Node 26, Type 0, BuildingBlock: ESEHIV_clean_sbu_0, # of connection points: 4
#     Node 27, Type 0, BuildingBlock: ESEHIV_clean_sbu_0, # of connection points: 4
#     Node 28, Type 0, BuildingBlock: ESEHIV_clean_sbu_0, # of connection points: 4
#     Node 29, Type 0, BuildingBlock: ESEHIV_clean_sbu_0, # of connection points: 4
#     Node 30, Type 0, BuildingBlock: ESEHIV_clean_sbu_0, # of connection points: 4
#     Node 31, Type 0, BuildingBlock: ESEHIV_clean_sbu_0, # of connection points: 4
#     Node 32, Type 0, BuildingBlock: ESEHIV_clean_sbu_0, # of connection points: 4
#     Node 33, Type 0, BuildingBlock: ESEHIV_clean_sbu_0, # of connection points: 4
#     Node 34, Type 0, BuildingBlock: ESEHIV_clean_sbu_0, # of connection points: 4
#     Node 35, Type 0, BuildingBlock: ESEHIV_clean_sbu_0, # of connection points: 4
#     Edge 36, Type (0, 0), BuildingBlock: OJICUG_clean_linker_0, # of connection points: 2
#     Edge 37, Type (0, 0), BuildingBlock: OJICUG_clean_linker_0, # of connection points: 2
#     Edge 38, Type (0, 0), BuildingBlock: OJICUG_clean_linker_0, # of connection points: 2
#     Edge 39, Type (0, 0), BuildingBlock: OJICUG_clean_linker_0, # of connection points: 2
#     Edge 40, Type (0, 0), BuildingBlock: OJICUG_clean_linker_0, # of connection points: 2
#     Edge 41, Type (0, 0), BuildingBlock: OJICUG_clean_linker_0, # of connection points: 2
#     Edge 42, Type (0, 0), BuildingBlock: OJICUG_clean_linker_0, # of connection points: 2
#     Edge 43, Type (0, 0), BuildingBlock: OJICUG_clean_linker_0, # of connection points: 2
#     Edge 44, Type (0, 0), BuildingBlock: OJICUG_clean_linker_0, # of connection points: 2
#     Edge 45, Type (0, 0), BuildingBlock: OJICUG_clean_linker_0, # of connection points: 2
#     Edge 46, Type (0, 0), BuildingBlock: OJICUG_clean_linker_0, # of connection points: 2
#     Edge 47, Type (0, 0), BuildingBlock: OJICUG_clean_linker_0, # of connection points: 2
#     Edge 48, Type (0, 0), BuildingBlock: OJICUG_clean_linker_0, # of connection points: 2
#     Edge 49, Type (0, 0), BuildingBlock: OJICUG_clean_linker_0, # of connection points: 2
#     Edge 50, Type (0, 0), BuildingBlock: OJICUG_clean_linker_0, # of connection points: 2
#     Edge 51, Type (0, 0), BuildingBlock: OJICUG_clean_linker_0, # of connection points: 2
#     Edge 52, Type (0, 0), BuildingBlock: OJICUG_clean_linker_0, # of connection points: 2
#     Edge 53, Type (0, 0), BuildingBlock: OJICUG_clean_linker_0, # of connection points: 2
#     Edge 54, Type (0, 0), BuildingBlock: OJICUG_clean_linker_0, # of connection points: 2
#     Edge 55, Type (0, 0), BuildingBlock: OJICUG_clean_linker_0, # of connection points: 2
#     Edge 56, Type (0, 0), BuildingBlock: OJICUG_clean_linker_0, # of connection points: 2
#     Edge 57, Type (0, 0), BuildingBlock: OJICUG_clean_linker_0, # of connection points: 2
#     Edge 58, Type (0, 0), BuildingBlock: OJICUG_clean_linker_0, # of connection points: 2
#     Edge 59, Type (0, 0), BuildingBlock: OJICUG_clean_linker_0, # of connection points: 2
#     Edge 60, Type (0, 0), BuildingBlock: OJICUG_clean_linker_0, # of connection points: 2
#     Edge 61, Type (0, 0), BuildingBlock: OJICUG_clean_linker_0, # of connection points: 2
#     Edge 62, Type (0, 0), BuildingBlock: OJICUG_clean_linker_0, # of connection points: 2
#     Edge 63, Type (0, 0), BuildingBlock: OJICUG_clean_linker_0, # of connection points: 2
#     Edge 64, Type (0, 0), BuildingBlock: OJICUG_clean_linker_0, # of connection points: 2
#     Edge 65, Type (0, 0), BuildingBlock: OJICUG_clean_linker_0, # of connection points: 2
#     Edge 66, Type (0, 0), BuildingBlock: OJICUG_clean_linker_0, # of connection points: 2
#     Edge 67, Type (0, 0), BuildingBlock: OJICUG_clean_linker_0, # of connection points: 2
#     Edge 68, Type (0, 0), BuildingBlock: OJICUG_clean_linker_0, # of connection points: 2
#     Edge 69, Type (0, 0), BuildingBlock: OJICUG_clean_linker_0, # of connection points: 2
#     Edge 70, Type (0, 0), BuildingBlock: OJICUG_clean_linker_0, # of connection points: 2
#     Edge 71, Type (0, 0), BuildingBlock: OJICUG_clean_linker_0, # of connection points: 2
#     Edge 72, Type (0, 0), BuildingBlock: OJICUG_clean_linker_0, # of connection points: 2
#     Edge 73, Type (0, 0), BuildingBlock: OJICUG_clean_linker_0, # of connection points: 2
#     Edge 74, Type (0, 0), BuildingBlock: OJICUG_clean_linker_0, # of connection points: 2
#     Edge 75, Type (0, 0), BuildingBlock: OJICUG_clean_linker_0, # of connection points: 2
#     Edge 76, Type (0, 0), BuildingBlock: OJICUG_clean_linker_0, # of connection points: 2
#     Edge 77, Type (0, 0), BuildingBlock: OJICUG_clean_linker_0, # of connection points: 2
#     Edge 78, Type (0, 0), BuildingBlock: OJICUG_clean_linker_0, # of connection points: 2
#     Edge 79, Type (0, 0), BuildingBlock: OJICUG_clean_linker_0, # of connection points: 2
#     Edge 80, Type (0, 0), BuildingBlock: OJICUG_clean_linker_0, # of connection points: 2
#     Edge 81, Type (0, 0), BuildingBlock: OJICUG_clean_linker_0, # of connection points: 2
#     Edge 82, Type (0, 0), BuildingBlock: OJICUG_clean_linker_0, # of connection points: 2
#     Edge 83, Type (0, 0), BuildingBlock: OJICUG_clean_linker_0, # of connection points: 2
#     Edge 84, Type (0, 0), BuildingBlock: OJICUG_clean_linker_0, # of connection points: 2
#     Edge 85, Type (0, 0), BuildingBlock: OJICUG_clean_linker_0, # of connection points: 2
#     Edge 86, Type (0, 0), BuildingBlock: OJICUG_clean_linker_0, # of connection points: 2
#     Edge 87, Type (0, 0), BuildingBlock: OJICUG_clean_linker_0, # of connection points: 2
#     Edge 88, Type (0, 0), BuildingBlock: OJICUG_clean_linker_0, # of connection points: 2
#     Edge 89, Type (0, 0), BuildingBlock: OJICUG_clean_linker_0, # of connection points: 2
#     Edge 90, Type (0, 0), BuildingBlock: OJICUG_clean_linker_0, # of connection points: 2
#     Edge 91, Type (0, 0), BuildingBlock: OJICUG_clean_linker_0, # of connection points: 2
#     Edge 92, Type (0, 0), BuildingBlock: OJICUG_clean_linker_0, # of connection points: 2
#     Edge 93, Type (0, 0), BuildingBlock: OJICUG_clean_linker_0, # of connection points: 2
#     Edge 94, Type (0, 0), BuildingBlock: OJICUG_clean_linker_0, # of connection points: 2
#     Edge 95, Type (0, 0), BuildingBlock: OJICUG_clean_linker_0, # of connection points: 2
#     Edge 96, Type (0, 0), BuildingBlock: OJICUG_clean_linker_0, # of connection points: 2
#     Edge 97, Type (0, 0), BuildingBlock: OJICUG_clean_linker_0, # of connection points: 2
#     Edge 98, Type (0, 0), BuildingBlock: OJICUG_clean_linker_0, # of connection points: 2
#     Edge 99, Type (0, 0), BuildingBlock: OJICUG_clean_linker_0, # of connection points: 2
#     Edge 100, Type (0, 0), BuildingBlock: OJICUG_clean_linker_0, # of connection points: 2
#     Edge 101, Type (0, 0), BuildingBlock: OJICUG_clean_linker_0, # of connection points: 2
#     Edge 102, Type (0, 0), BuildingBlock: OJICUG_clean_linker_0, # of connection points: 2
#     Edge 103, Type (0, 0), BuildingBlock: OJICUG_clean_linker_0, # of connection points: 2
#     Edge 104, Type (0, 0), BuildingBlock: OJICUG_clean_linker_0, # of connection points: 2
#     Edge 105, Type (0, 0), BuildingBlock: OJICUG_clean_linker_0, # of connection points: 2
#     Edge 106, Type (0, 0), BuildingBlock: OJICUG_clean_linker_0, # of connection points: 2
#     Edge 107, Type (0, 0), BuildingBlock: OJICUG_clean_linker_0, # of connection points: 2
# Relax obj value: 0.011
# Max RMSD: 0.109
# Mean RMSD: 0.071
data_MOF--net-uns--node1-ESEHIV_clean_sbu_0--edge1-OJICUG_clean_linker_0
_symmetry_space_group_name_H-M    P1
_symmetry_Int_Tables_number       1
_symmetry_cell_setting            triclinic
loop_
_symmetry_equiv_pos_as_xyz
'x, y, z'
_cell_length_a     49.432854
_cell_length_b     48.139328
_cell_length_c     36.189564
_cell_angle_alpha  95.71837
_cell_angle_beta   89.960622
_cell_angle_gamma 120.96814
loop_
_atom_site_label
_atom_site_type_symbol
_atom_site_fract_x
_atom_site_fract_y
_atom_site_fract_z
_atom_type_partial_charge
Cu0 Cu 0.28115 0.22539 0.06429 0.0
N1 N 0.28526 0.20401 0.10209 0.0
N2 N 0.31198 0.18851 0.13591 0.0
C3 C 0.31365 0.21188 0.11666 0.0
C4 C 0.28098 0.16531 0.13428 0.0
C5 C 0.26452 0.17487 0.11311 0.0
O6 O 0.28167 0.20188 0.01749 0.0
C7 C 0.32378 0.29269 0.05396 0.0
O8 O 0.31183 0.28528 0.01951 0.0
H9 H 0.33544 0.2333 0.11072 0.0
H10 H 0.23977 0.16045 0.10393 0.0
N11 N 0.24345 0.22548 0.06403 0.0
N12 N 0.20562 0.23324 0.04267 0.0
C13 C 0.23059 0.23007 0.0342 0.0
C14 C 0.22612 0.22578 0.09258 0.0
C15 C 0.2027 0.23053 0.07946 0.0
C16 C 0.30155 0.19278 0.01215 0.0
O17 O 0.32599 0.20445 0.03597 0.0
H18 H 0.24039 0.23252 0.00713 0.0
H19 H 0.23081 0.22373 0.12106 0.0
O20 O 0.31504 0.27034 0.07502 0.0
H21 H 0.27124 0.14197 0.14491 0.0
H22 H 0.18512 0.23217 0.09581 0.0
Cu23 Cu 0.82894 0.06386 0.02963 0.0
N24 N 0.78579 0.04707 0.02346 0.0
N25 N 0.73618 1.02382 0.04115 0.0
C26 C 0.76538 1.02911 0.04796 0.0
C27 C 0.73838 0.03911 0.01093 0.0
C28 C 0.76913 0.0536 0.00016 0.0
O29 O 0.8319 1.02687 0.0419 0.0
C30 C 0.86822 0.12034 0.08536 0.0
O31 O 0.892 0.11548 0.08264 0.0
H32 H 0.77241 1.02163 0.07156 0.0
H33 H 0.77889 0.06885 0.97795 0.0
N34 N 0.84933 0.07942 0.98621 0.0
N35 N 0.88765 0.10814 0.94868 0.0
C36 C 0.87945 0.10377 0.98423 0.0
C37 C 0.83794 0.06798 0.95076 0.0
C38 C 0.86147 0.08563 0.92755 0.0
C39 C 0.84977 1.01813 0.026 0.0
O40 O 0.87246 0.0384 0.00638 0.0
H41 H 0.89533 0.11721 0.00844 0.0
H42 H 0.81432 0.04789 0.9424 0.0
O43 O 0.84202 0.10049 0.06747 0.0
H44 H 0.71933 0.04023 0.99786 0.0
H45 H 0.85937 0.08202 0.89746 0.0
Cu46 Cu 1.00642 0.8026 0.0506 0.0
N47 N 0.98122 0.7978 0.09071 0.0
N48 N 0.94012 0.77048 0.12543 0.0
C49 C 0.95951 0.76848 0.10046 0.0
C50 C 0.95059 0.80266 0.13226 0.0
C51 C 0.97589 0.81947 0.11061 0.0
O52 O 0.98439 0.80436 0.00715 0.0
C53 C 1.03762 0.76648 0.04069 0.0
O54 O 0.06012 0.79209 0.02674 0.0
H55 H 0.95713 0.74592 0.08789 0.0
H56 H 0.98826 0.84529 0.10794 0.0
N57 N 0.04615 0.84089 0.05749 0.0
N58 N 0.09349 0.8801 0.04195 0.0
C59 C 0.06357 0.85699 0.02979 0.0
C60 C 0.06552 0.8544 0.08844 0.0
C61 C 0.09476 0.87863 0.07894 0.0
C62 C 0.95508 0.78432 -0.00094 0.0
O63 O 0.93998 0.75886 0.01749 0.0
H64 H 0.05505 0.85017 0.00086 0.0
H65 H 0.0593 0.8461 0.11557 0.0
O66 O 1.01197 0.76533 0.04837 0.0
H67 H 0.93956 0.81313 0.14977 0.0
H68 H 0.11552 0.89333 0.09766 0.0
Cu69 Cu 0.2359 0.25834 0.46006 0.0
N70 N 0.21537 0.26259 0.41963 0.0
N71 N 0.20299 0.29088 0.38483 0.0
C72 C 0.22495 0.29171 0.40777 0.0
C73 C 0.17875 0.25958 0.3814 0.0
C74 C 0.18637 0.24221 0.40317 0.0
O75 O 0.21103 0.25605 0.50266 0.0
C76 C 0.3039 0.30186 0.47534 0.0
O77 O 0.30352 0.28252 0.4987 0.0
H78 H 0.24685 0.31365 0.41795 0.0
H79 H 0.17098 0.21726 0.40877 0.0
N80 N 0.23839 0.22053 0.45292 0.0
N81 N 0.25136 0.18358 0.46304 0.0
C82 C 0.25254 0.21134 0.47667 0.0
C83 C 0.22746 0.19743 0.42341 0.0
C84 C 0.23531 0.17448 0.42967 0.0
C85 C 0.20089 0.27554 0.50867 0.0
O86 O 0.21189 0.30079 0.48977 0.0
H87 H 0.26318 0.22443 0.50372 0.0
H88 H 0.21502 0.19748 0.39888 0.0
O89 O 0.27802 0.29676 0.46113 0.0
H90 H 0.15621 0.25046 0.36662 0.0
H91 H 0.23037 0.15328 0.41082 0.0
Cu92 Cu 0.7959 0.99048 0.46628 0.0
N93 N 0.76987 1.00815 0.46866 0.0
N94 N 0.74127 1.02783 0.44765 0.0
C95 C 0.76123 1.01726 0.43901 0.0
C96 C 0.73652 1.02454 0.48408 0.0
C97 C 0.75406 1.01221 0.49694 0.0
O98 O 0.84013 1.02509 0.46259 0.0
C99 C 0.78037 0.93401 0.41012 0.0
O100 O 0.80691 0.93533 0.4183 0.0
H101 H 0.7695 1.01608 0.41152 0.0
H102 H 0.75482 1.00638 0.52481 0.0
N103 N 0.79542 0.97238 0.50996 0.0
N104 N 0.80293 0.94309 0.54876 0.0
C105 C 0.79871 0.94655 0.51292 0.0
C106 C 0.79779 0.98584 0.5451 0.0
C107 C 0.8021 0.96773 0.56904 0.0
C108 C 0.84915 0.05406 0.45575 0.0
O109 O 0.82829 0.06041 0.44312 0.0
H110 H 0.80008 0.93191 0.48921 0.0
H111 H 0.79833 1.0084 0.55279 0.0
O112 O 0.77508 0.95554 0.42556 0.0
H113 H 0.72195 0.03121 0.50047 0.0
H114 H 0.80549 0.97314 0.59899 0.0
Cu115 Cu 0.08141 0.82373 0.44107 0.0
N116 N 0.10229 0.83457 0.39709 0.0
N117 N 0.14225 0.84786 0.35974 0.0
C118 C 0.13354 0.84692 0.39517 0.0
C119 C 0.11521 0.83573 0.3385 0.0
C120 C 0.09057 0.82741 0.36164 0.0
O121 O 0.11079 0.85442 0.48149 0.0
C122 C 0.08233 0.76438 0.43477 0.0
O123 O 0.11221 0.78206 0.42754 0.0
H124 H 0.14913 0.85294 0.41945 0.0
H125 H 0.06575 0.81546 0.35316 0.0
N126 N 0.04502 0.82639 0.44169 0.0
N127 N 0.99988 0.82012 0.46281 0.0
C128 C 1.02562 0.81817 0.46992 0.0
C129 C 1.0312 0.83393 0.41563 0.0
C130 C 1.00323 0.82999 0.42859 0.0
C131 C 0.12131 0.8843 0.47782 0.0
O132 O 0.11089 0.89122 0.44878 0.0
H133 H 1.03002 0.81008 0.49487 0.0
H134 H 1.04056 0.84148 0.38905 0.0
O135 O 0.06696 0.77827 0.44428 0.0
H136 H 0.11309 0.83209 0.30841 0.0
H137 H 0.98683 0.83432 0.41411 0.0
Cu138 Cu 0.80864 0.83795 0.92448 0.0
N139 N 0.7915 0.84608 0.88373 0.0
N140 N 0.75783 0.8528 0.84983 0.0
C141 C 0.76484 0.84725 0.88338 0.0
C142 C 0.78106 0.85511 0.82825 0.0
C143 C 0.80171 0.8509 0.84918 0.0
O144 O 0.82214 0.87483 0.9627 0.0
C145 C 0.76629 0.77212 0.91034 0.0
O146 O 0.77574 0.77965 0.87691 0.0
H147 H 0.75051 0.84334 0.90711 0.0
H148 H 0.82245 0.85096 0.83965 0.0
N149 N 0.84481 0.83636 0.91327 0.0
N150 N 0.88311 0.8251 0.92004 0.0
C151 C 0.85383 0.81797 0.92902 0.0
C152 C 0.86919 0.85593 0.89364 0.0
C153 C 0.89278 0.84895 0.8976 0.0
C154 C 0.80432 0.88239 0.98079 0.0
O155 O 0.77361 0.86195 0.97796 0.0
H156 H 0.83992 0.8012 0.94865 0.0
H157 H 0.87046 0.87507 0.87906 0.0
O158 O 0.77739 0.79487 0.93745 0.0
H159 H 0.78323 0.85978 0.79944 0.0
H160 H 0.91566 0.8613 0.88587 0.0
Cu161 Cu 0.25224 0.98286 0.91604 0.0
N162 N 0.23959 0.95356 0.87259 0.0
N163 N 0.22764 0.90845 0.83507 0.0
C164 C 0.23204 0.92223 0.87062 0.0
C165 C 0.23239 0.93196 0.81391 0.0
C166 C 0.23971 0.95972 0.8371 0.0
O167 O 0.22267 0.9612 0.95388 0.0
C168 C 0.31535 1.00793 0.90403 0.0
O169 O 0.30494 1.00988 0.87158 0.0
H170 H 0.23106 0.91022 0.89476 0.0
H171 H 0.24585 0.98308 0.82862 0.0
N172 N 0.25203 1.02081 0.90915 0.0
N173 N 0.26234 0.07203 0.9211 0.0
C174 C 0.26878 0.04952 0.93075 0.0
C175 C 0.23434 1.0252 0.88486 0.0
C176 C 0.24063 0.05675 0.89216 0.0
C177 C 0.19377 0.95135 0.94588 0.0
O178 O 0.18621 0.95627 0.91337 0.0
H179 H 0.2844 0.05329 0.95414 0.0
H180 H 0.21739 1.00655 0.86401 0.0
O181 O 0.29581 0.9963 0.92931 0.0
H182 H 0.23089 0.92936 0.7838 0.0
H183 H 0.22969 0.06739 0.87761 0.0
Cu184 Cu 0.09605 0.2795 0.91162 0.0
N185 N 0.12083 0.29467 0.87083 0.0
N186 N 0.16053 0.32709 0.83702 0.0
C187 C 0.14964 0.32188 0.87146 0.0
C188 C 0.13754 0.30218 0.81396 0.0
C189 C 0.11312 0.28235 0.83483 0.0
O190 O 0.12097 0.27556 0.95033 0.0
C191 C 0.0688 0.3162 0.90153 0.0
O192 O 0.06536 0.30213 0.86743 0.0
H193 H 0.16222 0.33755 0.8967 0.0
H194 H 0.09091 0.26101 0.82431 0.0
N195 N 0.05998 0.23825 0.899 0.0
N196 N 1.01119 0.19503 0.90128 0.0
C197 C 1.03183 0.22654 0.91438 0.0
C198 C 0.05717 0.21332 0.87548 0.0
C199 C 1.02715 0.18674 0.8767 0.0
C200 C 0.13396 0.25918 0.94049 0.0
O201 O 0.13044 0.24711 0.90544 0.0
H202 H 1.02683 0.24087 0.93509 0.0
H203 H 0.07591 0.21408 0.85936 0.0
O204 O 0.08209 0.3098 0.92679 0.0
H205 H 0.13783 0.299 0.78397 0.0
H206 H 1.01825 0.16282 0.86163 0.0
Cu207 Cu 0.84116 0.77362 0.58854 0.0
N208 N 0.84986 0.75816 0.62968 0.0
N209 N 0.85747 0.72619 0.66378 0.0
C210 C 0.85181 0.73121 0.62925 0.0
C211 C 0.85902 0.75097 0.68669 0.0
C212 C 0.85427 0.77056 0.66562 0.0
O213 O 0.87078 0.77782 0.55075 0.0
C214 C 0.77678 0.73634 0.59662 0.0
O215 O 0.7867 0.74776 0.63155 0.0
H216 H 0.84924 0.71573 0.60404 0.0
H217 H 0.85342 0.79194 0.67592 0.0
N218 N 0.84635 0.81477 0.60097 0.0
N219 N 0.84036 0.85759 0.59813 0.0
C220 C 0.82949 0.82598 0.58567 0.0
C221 C 0.86873 0.84008 0.62386 0.0
C222 C 0.86505 0.86645 0.62229 0.0
C223 C 0.8999 0.79275 0.5617 0.0
O224 O 0.90776 0.8034 0.59717 0.0
H225 H 0.80988 0.81122 0.5654 0.0
H226 H 0.88702 0.83969 0.63976 0.0
O227 O 0.79707 0.74408 0.57191 0.0
H228 H 0.86252 0.75434 0.71668 0.0
H229 H 0.8802 0.89059 0.63679 0.0
Cu230 Cu 0.29924 0.07791 0.59052 0.0
N231 N 0.31667 0.10743 0.63429 0.0
N232 N 0.35092 0.15311 0.67073 0.0
C233 C 0.33923 0.13931 0.63565 0.0
C234 C 0.33498 0.1291 0.69242 0.0
C235 C 0.31402 0.10107 0.66999 0.0
O236 O 0.28816 0.09786 0.55339 0.0
C237 C 0.33727 0.05242 0.5993 0.0
O238 O 0.32507 0.04956 0.63193 0.0
H239 H 0.34821 0.15181 0.61134 0.0
H240 H 0.29937 0.07743 0.67924 0.0
N241 N 0.26135 0.03897 0.59621 0.0
N242 N 0.21776 0.99092 0.57716 0.0
C243 C 0.24317 1.01793 0.56684 0.0
C244 C 0.24682 1.02473 0.62636 0.0
C245 C 0.21998 0.99504 0.61467 0.0
C246 C 0.30663 0.12275 0.53732 0.0
O247 O 0.33734 0.13663 0.54305 0.0
H248 H 0.2489 1.0222 0.53829 0.0
H249 H 0.25483 0.03483 0.65486 0.0
O250 O 0.32946 0.06507 0.57518 0.0
H251 H 0.33864 0.1314 0.72232 0.0
H252 H 0.20319 0.97809 0.63237 0.0
Cu253 Cu 0.99708 0.22499 0.57229 0.0
N254 N 0.97229 0.21756 0.61338 0.0
N255 N 0.93255 0.21292 0.64722 0.0
C256 C 0.94427 0.21595 0.61316 0.0
C257 C 0.95413 0.21252 0.66971 0.0
C258 C 0.97862 0.21543 0.64877 0.0
O259 O 0.9698 0.19199 0.5317 0.0
C260 C 1.0251 0.29185 0.58983 0.0
O261 O 1.02667 0.28345 0.62284 0.0
H262 H 0.9333 0.21811 0.58861 0.0
H263 H 0.99989 0.21682 0.65892 0.0
N264 N 1.03311 0.22254 0.58137 0.0
N265 N 0.08242 0.23247 0.57619 0.0
C266 C 0.06069 0.2395 0.56521 0.0
C267 C 1.0375 0.20414 0.6035 0.0
C268 C 0.06784 0.21013 0.60028 0.0
C269 C 0.96178 0.16238 0.53342 0.0
O270 O 0.97394 0.15566 0.56096 0.0
H271 H 0.06436 0.25605 0.54498 0.0
H272 H 1.01978 0.18718 0.62036 0.0
O273 O 1.01228 0.2696 0.56232 0.0
H274 H 0.95249 0.21041 0.69922 0.0
H275 H 0.07826 0.19886 0.61455 0.0
Cu276 Cu 0.95249 0.56508 0.38904 0.0
N277 N 0.96213 0.5529 0.43237 0.0
N278 N 0.98874 0.53953 0.46978 0.0
C279 C 0.98022 0.53959 0.43433 0.0
C280 C 0.97489 0.55292 0.49098 0.0
C281 C 0.95871 0.56131 0.46785 0.0
O282 O 0.94674 0.53358 0.34708 0.0
C283 C 1.01329 0.62419 0.3981 0.0
O284 O 1.02428 0.60694 0.41044 0.0
H285 H 0.98903 0.53253 0.41015 0.0
H286 H 0.94703 0.57451 0.47632 0.0
N287 N 0.91475 0.56521 0.3907 0.0
N288 N 0.87654 0.57304 0.37084 0.0
C289 C 0.90375 0.57411 0.363 0.0
C290 C 0.89377 0.55819 0.41722 0.0
C291 C 0.87018 0.56312 0.40506 0.0
C292 C 0.96761 0.52877 0.33244 0.0
O293 O 0.99748 0.54823 0.34372 0.0
H294 H 0.91584 0.58162 0.33767 0.0
H295 H 0.89533 0.54992 0.44339 0.0
O296 O 0.98485 0.60998 0.38478 0.0
H297 H 0.9773 0.55768 0.52101 0.0
H298 H 0.84967 0.55906 0.41991 0.0
Cu299 Cu 0.50182 0.39311 0.36908 0.0
N300 N 0.45959 0.38215 0.36852 0.0
N301 N 0.41255 0.36799 0.39088 0.0
C302 C 0.44309 0.3782 0.39918 0.0
C303 C 0.40995 0.3663 0.35346 0.0
C304 C 0.43902 0.3751 0.33975 0.0
O305 O 0.50355 0.35342 0.37259 0.0
C306 C 0.52213 0.45453 0.40051 0.0
O307 O 0.50726 0.45217 0.3692 0.0
H308 H 0.45317 0.38166 0.427 0.0
H309 H 0.44438 0.37534 0.31082 0.0
N310 N 0.52041 0.40851 0.32459 0.0
N311 N 0.55756 0.43776 0.28604 0.0
C312 C 0.54987 0.43394 0.32181 0.0
C313 C 0.50914 0.39548 0.28939 0.0
C314 C 0.53187 0.41353 0.26558 0.0
C315 C 0.48156 0.32765 0.3847 0.0
O316 O 0.45911 0.32899 0.40262 0.0
H317 H 0.5657 0.44858 0.34573 0.0
H318 H 0.4864 0.37379 0.28156 0.0
O319 O 0.52355 0.42995 0.40819 0.0
H320 H 0.38824 0.35766 0.33699 0.0
H321 H 0.52965 0.40885 0.23554 0.0
Cu322 Cu 0.67487 0.13802 0.37916 0.0
N323 N 0.65117 0.1332 0.42089 0.0
N324 N 0.61102 0.10509 0.45667 0.0
C325 C 0.63051 0.10375 0.43133 0.0
C326 C 0.62038 0.13703 0.46303 0.0
C327 C 0.64505 0.1543 0.44072 0.0
O328 O 0.65139 0.14045 0.33772 0.0
C329 C 0.70387 0.09991 0.36665 0.0
O330 O 0.72647 0.12484 0.35184 0.0
H331 H 0.62872 0.08148 0.41878 0.0
H332 H 0.6562 0.17992 0.43736 0.0
N333 N 0.71548 0.17545 0.38466 0.0
N334 N 0.76289 0.21333 0.36735 0.0
C335 C 0.73235 0.1912 0.35642 0.0
C336 C 0.73594 0.18817 0.4147 0.0
C337 C 0.76518 0.21157 0.40413 0.0
C338 C 0.62206 0.11984 0.33064 0.0
O339 O 0.6083 0.09396 0.3486 0.0
H340 H 0.72283 0.18481 0.32788 0.0
H341 H 0.73038 0.17986 0.4419 0.0
O342 O 0.67881 0.09978 0.37493 0.0
H343 H 0.60887 0.14695 0.48052 0.0
H344 H 0.78658 0.22555 0.42198 0.0
Cu345 Cu 0.89782 0.58844 0.78748 0.0
N346 N 0.87918 0.59335 0.74578 0.0
N347 N 0.86648 0.62059 0.70967 0.0
C348 C 0.88739 0.62261 0.73537 0.0
C349 C 0.84454 0.58845 0.70302 0.0
C350 C 0.85237 0.5717 0.72552 0.0
O351 O 0.87187 0.5868 0.82891 0.0
C352 C 0.96529 0.623 0.79725 0.0
O353 O 0.96123 0.59616 0.80874 0.0
H354 H 0.90746 0.64517 0.74819 0.0
H355 H 0.83844 0.54599 0.72867 0.0
N356 N 0.89837 0.54965 0.78156 0.0
N357 N 0.90624 0.51045 0.79753 0.0
C358 C 0.89989 0.5339 0.80952 0.0
C359 C 0.90348 0.53543 0.75064 0.0
C360 C 0.90835 0.51123 0.76039 0.0
C361 C 0.86236 0.60685 0.8348 0.0
O362 O 0.8742 0.63232 0.8162 0.0
H363 H 0.89882 0.5413 0.83847 0.0
H364 H 0.90527 0.5433 0.7233 0.0
O365 O 0.94126 0.62548 0.79127 0.0
H366 H 0.82321 0.578 0.68521 0.0
H367 H 0.91398 0.49614 0.74174 0.0
Cu368 Cu 0.46877 0.32674 0.79469 0.0
N369 N 0.4351 0.33389 0.7916 0.0
N370 N 0.404 0.35054 0.76984 0.0
C371 C 0.43323 0.35466 0.77092 0.0
C372 C 0.38701 0.32624 0.79105 0.0
C373 C 0.4062 0.31598 0.80425 0.0
O374 O 0.50911 0.36747 0.79221 0.0
C375 C 0.44342 0.28526 0.72626 0.0
O376 O 0.4397 0.30833 0.71529 0.0
H377 H 0.45286 0.37182 0.75622 0.0
H378 H 0.39925 0.29597 0.82062 0.0
N379 N 0.47008 0.31139 0.83964 0.0
N380 N 0.47754 0.28279 0.87931 0.0
C381 C 0.47572 0.28722 0.84333 0.0
C382 C 0.46818 0.32271 0.87445 0.0
C383 C 0.47282 0.30513 0.89903 0.0
C384 C 0.51274 0.39333 0.81063 0.0
O385 O 0.48898 0.39162 0.82872 0.0
H386 H 0.47945 0.27388 0.82002 0.0
H387 H 0.46425 0.34268 0.88146 0.0
O388 O 0.45921 0.29082 0.75671 0.0
H389 H 0.36216 0.31566 0.79571 0.0
H390 H 0.47276 0.30858 0.92903 0.0
Cu391 Cu 0.7501 0.16967 0.76421 0.0
N392 N 0.77482 0.18825 0.72466 0.0
N393 N 0.81647 0.20254 0.6899 0.0
C394 C 0.80492 0.19541 0.72369 0.0
C395 C 0.79255 0.19988 0.66873 0.0
C396 C 0.7668 0.19094 0.69026 0.0
O397 O 0.77671 0.19502 0.80921 0.0
C398 C 0.72979 0.10243 0.77628 0.0
O399 O 0.73292 0.11056 0.81244 0.0
H400 H 0.81722 0.19295 0.74669 0.0
H401 H 0.74345 0.18495 0.68089 0.0
N402 N 0.7128 0.1708 0.76499 0.0
N403 N 0.6644 0.15837 0.78121 0.0
C404 C 0.68802 0.15228 0.78484 0.0
C405 C 0.70468 0.18933 0.74803 0.0
C406 C 0.67486 0.18178 0.75807 0.0
C407 C 0.78495 0.22505 0.812 0.0
O408 O 0.77357 0.23457 0.78652 0.0
H409 H 0.68777 0.13522 0.80238 0.0
H410 H 0.71951 0.2073 0.73002 0.0
O411 O 0.73715 0.12404 0.75446 0.0
H412 H 0.79315 0.20292 0.63946 0.0
H413 H 0.66194 0.19267 0.74895 0.0
Cu414 Cu 0.46579 0.16274 0.25928 0.0
N415 N 0.44904 0.17039 0.21788 0.0
N416 N 0.41593 0.17703 0.18296 0.0
C417 C 0.4228 0.17228 0.21702 0.0
C418 C 0.43877 0.17806 0.16158 0.0
C419 C 0.45908 0.17384 0.18315 0.0
O420 O 0.47536 0.19826 0.2983 0.0
C421 C 0.42633 0.09606 0.24208 0.0
O422 O 0.43692 0.10467 0.20932 0.0
H423 H 0.40912 0.17034 0.24101 0.0
H424 H 0.47931 0.1727 0.1739 0.0
N425 N 0.50392 0.16475 0.24979 0.0
N426 N 0.54445 0.15687 0.25665 0.0
C427 C 0.51459 0.14765 0.26542 0.0
C428 C 0.52781 0.1856 0.23048 0.0
C429 C 0.55277 0.18072 0.23452 0.0
C430 C 0.45542 0.201 0.31818 0.0
O431 O 0.42594 0.17668 0.31598 0.0
H432 H 0.50124 0.13004 0.28449 0.0
H433 H 0.52757 0.20393 0.21571 0.0
O434 O 0.43566 0.11823 0.26974 0.0
H435 H 0.44034 0.18091 0.13223 0.0
H436 H 0.57551 0.19428 0.22276 0.0
Cu437 Cu 0.9157 0.31742 0.23295 0.0
N438 N 0.89954 0.28775 0.18985 0.0
N439 N 0.8863 0.24287 0.15128 0.0
C440 C 0.89805 0.25885 0.18555 0.0
C441 C 0.88031 0.2625 0.13323 0.0
C442 C 0.88881 0.29034 0.15696 0.0
O443 O 0.8896 0.29536 0.27363 0.0
C444 C 0.98045 0.34462 0.26323 0.0
O445 O 0.9716 0.34919 0.29639 0.0
H446 H 0.90538 0.24971 0.2072 0.0
H447 H 0.88786 0.31118 0.15023 0.0
N448 N 0.91375 0.35499 0.22921 0.0
N449 N 0.9231 0.40567 0.24357 0.0
C450 C 0.93236 0.38434 0.24907 0.0
C451 C 0.89198 0.35789 0.21047 0.0
C452 C 0.89773 0.38906 0.21915 0.0
C453 C 0.86017 0.28447 0.26749 0.0
O454 O 0.85089 0.28862 0.23558 0.0
H455 H 0.95124 0.38935 0.26873 0.0
H456 H 0.87233 0.33839 0.19306 0.0
O457 O 0.9601 0.33081 0.23593 0.0
H458 H 0.87119 0.25744 0.10462 0.0
H459 H 0.88373 0.39842 0.209 0.0
Cu460 Cu 0.76133 0.61574 0.24515 0.0
N461 N 0.78562 0.63155 0.20409 0.0
N462 N 0.82516 0.66414 0.1702 0.0
C463 C 0.81447 0.6587 0.2047 0.0
C464 C 0.80201 0.63942 0.14712 0.0
C465 C 0.77769 0.61948 0.16804 0.0
O466 O 0.78741 0.61289 0.28336 0.0
C467 C 0.73199 0.65039 0.23522 0.0
O468 O 0.72889 0.63633 0.20119 0.0
H469 H 0.82729 0.67406 0.23001 0.0
H470 H 0.75547 0.59811 0.15757 0.0
N471 N 0.72619 0.57379 0.23279 0.0
N472 N 0.67853 0.52908 0.2359 0.0
C473 C 0.69821 0.56089 0.24874 0.0
C474 C 0.72428 0.54937 0.20915 0.0
C475 C 0.69496 0.52187 0.21088 0.0
C476 C 0.80205 0.59843 0.27253 0.0
O477 O 0.79912 0.58746 0.23715 0.0
H478 H 0.6927 0.57457 0.26973 0.0
H479 H 0.74322 0.55111 0.19265 0.0
O480 O 0.7459 0.64478 0.26055 0.0
H481 H 0.80217 0.63637 0.1171 0.0
H482 H 0.68694 0.49811 0.19588 0.0
Cu483 Cu 0.51342 0.11222 0.91765 0.0
N484 N 0.52853 0.0982 0.95462 0.0
N485 N 0.53584 0.0654 0.98764 0.0
C486 C 0.51832 0.06711 0.96026 0.0
C487 C 0.55789 0.09673 -0.00047 0.0
C488 C 0.55338 0.11682 0.97906 0.0
O489 O 0.54091 0.12162 0.87613 0.0
C490 C 0.45061 0.07155 0.93111 0.0
O491 O 0.46249 0.0836 0.96538 0.0
H492 H 0.49862 0.04623 0.94429 0.0
H493 H 0.56768 0.14314 0.98118 0.0
N494 N 0.51422 0.1506 0.9347 0.0
N495 N 0.50681 0.1927 0.93348 0.0
C496 C 0.50798 0.16818 0.91324 0.0
C497 C 0.51712 0.16432 0.96982 0.0
C498 C 0.5127 0.19035 0.96916 0.0
C499 C 0.55313 0.10463 0.86572 0.0
O500 O 0.5444 0.07771 0.88072 0.0
H501 H 0.50387 0.16256 0.88336 0.0
H502 H 0.521 0.15532 0.99427 0.0
O503 O 0.46927 0.0798 0.90458 0.0
H504 H 0.57663 0.10465 0.02071 0.0
H505 H 0.51264 0.2055 0.9933 0.0
Cu506 Cu 0.96679 0.41211 0.92394 0.0
N507 N 0.98363 0.4422 0.96692 0.0
N508 N 1.01723 0.48765 0.00385 0.0
C509 C 1.0088 0.47285 0.96857 0.0
C510 C 0.99641 0.46555 0.02516 0.0
C511 C 0.97563 0.43762 0.00232 0.0
O512 O 0.95775 0.43286 0.88608 0.0
C513 C 1.00907 0.39146 0.93511 0.0
O514 O 1.00258 0.39526 0.96977 0.0
H515 H 1.02127 0.48371 0.94448 0.0
H516 H 0.95646 0.41535 0.01102 0.0
N517 N 0.92918 0.37336 0.9309 0.0
N518 N 0.88445 0.32574 0.91385 0.0
C519 C 0.90541 0.35578 0.90466 0.0
C520 C 0.92308 0.35372 0.95769 0.0
C521 C 0.89548 0.32437 0.9473 0.0
C522 C 0.93764 0.44131 0.89386 0.0
O523 O 0.9247 0.43544 0.92609 0.0
H524 H 0.90476 0.36406 0.87812 0.0
H525 H 0.93853 0.3595 0.98201 0.0
O526 O 0.99692 0.39894 0.90965 0.0
H527 H 0.99616 0.46937 0.05512 0.0
H528 H 0.88493 0.30334 0.9626 0.0
Cu529 Cu 0.66348 0.56755 0.90944 0.0
N530 N 0.63995 0.56001 0.95167 0.0
N531 N 0.59949 0.55199 0.9863 0.0
C532 C 0.61121 0.55673 0.95224 0.0
C533 C 0.62195 0.55233 0.00798 0.0
C534 C 0.64686 0.55729 0.98656 0.0
O535 O 0.63324 0.53598 0.8698 0.0
C536 C 0.69454 0.63473 0.9287 0.0
O537 O 0.6971 0.62575 0.961 0.0
H538 H 0.59946 0.55838 0.92807 0.0
H539 H 0.66853 0.55905 0.99587 0.0
N540 N 0.69839 0.56254 0.91531 0.0
N541 N 0.74619 0.56911 0.9066 0.0
C542 C 0.72556 0.57837 0.898 0.0
C543 C 0.70187 0.54257 0.93572 0.0
C544 C 0.73127 0.54652 0.93036 0.0
C545 C 0.6323 0.50983 0.85683 0.0
O546 O 0.65556 0.50562 0.86587 0.0
H547 H 0.72964 0.59567 0.8786 0.0
H548 H 0.68408 0.52588 0.95274 0.0
O549 O 0.67998 0.6128 0.90124 0.0
H550 H 0.62049 0.54893 0.03717 0.0
H551 H 0.74081 0.53366 0.94296 0.0
Cu552 Cu 0.62098 0.89977 0.73084 0.0
N553 N 0.62907 0.88405 0.77198 0.0
N554 N 0.65612 0.86935 0.80649 0.0
C555 C 0.65369 0.87957 0.77398 0.0
C556 C 0.63195 0.86737 0.82591 0.0
C557 C 0.61517 0.87636 0.80443 0.0
O558 O 0.61775 0.87002 0.68774 0.0
C559 C 0.65705 0.96642 0.71638 0.0
O560 O 0.63491 0.95838 0.69039 0.0
H561 H 0.67004 0.88462 0.75215 0.0
H562 H 0.59454 0.87739 0.81208 0.0
N563 N 0.58393 0.90147 0.73248 0.0
N564 N 0.5453 0.90845 0.71173 0.0
C565 C 0.56694 0.90011 0.70249 0.0
C566 C 0.57266 0.91094 0.76183 0.0
C567 C 0.54876 0.91509 0.74917 0.0
C568 C 0.59918 0.8399 0.69127 0.0
O569 O 0.58295 0.83215 0.72119 0.0
H570 H 0.572 0.89536 0.67426 0.0
H571 H 0.58234 0.91633 0.79017 0.0
O572 O 0.65642 0.94432 0.73351 0.0
H573 H 0.6267 0.85988 0.85352 0.0
H574 H 0.53569 0.92336 0.76621 0.0
Cu575 Cu 0.1717 0.73627 0.70566 0.0
N576 N 0.12985 0.72639 0.70866 0.0
N577 N 0.08092 0.70553 0.72875 0.0
C578 C 0.10871 0.70652 0.73146 0.0
C579 C 0.08491 0.72562 0.70295 0.0
C580 C 0.11507 0.73848 0.69074 0.0
O581 O 0.17334 0.69657 0.70737 0.0
C582 C 0.18755 0.7773 0.77504 0.0
O583 O 0.16123 0.75383 0.78655 0.0
H584 H 0.11407 0.69361 0.75018 0.0
H585 H 0.12559 0.75562 0.67043 0.0
N586 N 0.18846 0.75275 0.66108 0.0
N587 N 0.22509 0.78168 0.62191 0.0
C588 C 0.21883 0.77586 0.65762 0.0
C589 C 0.17485 0.7435 0.6264 0.0
C590 C 0.19739 0.7613 0.60215 0.0
C591 C 0.15129 0.67022 0.68946 0.0
O592 O 0.12821 0.67076 0.67226 0.0
H593 H 0.23625 0.78735 0.68084 0.0
H594 H 0.15045 0.72477 0.6192 0.0
O595 O 0.19727 0.7723 0.74392 0.0
H596 H 0.06729 0.73057 0.69321 0.0
H597 H 0.19364 0.75926 0.5723 0.0
Cu598 Cu 0.33691 0.46603 0.71255 0.0
N599 N 0.3138 0.46177 0.75457 0.0
N600 N 0.27407 0.43428 0.79097 0.0
C601 C 0.29344 0.43258 0.76573 0.0
C602 C 0.28325 0.46619 0.79657 0.0
C603 C 0.30768 0.48309 0.77387 0.0
O604 O 0.31315 0.46826 0.67125 0.0
C605 C 0.3669 0.42881 0.69956 0.0
O606 O 0.38906 0.45396 0.68459 0.0
H607 H 0.29163 0.41018 0.75361 0.0
H608 H 0.31858 0.50854 0.76977 0.0
N609 N 0.37696 0.50384 0.71752 0.0
N610 N 0.42363 0.54221 0.69951 0.0
C611 C 0.39326 0.51942 0.68894 0.0
C612 C 0.39754 0.51738 0.74741 0.0
C613 C 0.42639 0.5411 0.73639 0.0
C614 C 0.28339 0.44915 0.66583 0.0
O615 O 0.26895 0.42422 0.6852 0.0
H616 H 0.38356 0.51242 0.66045 0.0
H617 H 0.39237 0.50941 0.77481 0.0
O618 O 0.34178 0.42828 0.70861 0.0
H619 H 0.27165 0.47625 0.81367 0.0
H620 H 0.44788 0.55569 0.75397 0.0
Cu621 Cu 0.55792 0.91648 0.11313 0.0
N622 N 0.53866 0.92315 0.07339 0.0
N623 N 0.52786 0.95258 0.03858 0.0
C624 C 0.54758 0.95313 0.06479 0.0
C625 C 0.50583 0.92069 0.02977 0.0
C626 C 0.51247 0.90255 0.0515 0.0
O627 O 0.53466 0.91553 0.15683 0.0
C628 C 0.62516 0.94953 0.12052 0.0
O629 O 0.62107 0.92314 0.13336 0.0
H630 H 0.56776 0.97509 0.07852 0.0
H631 H 0.49851 0.87647 0.0524 0.0
N632 N 0.55765 0.87728 0.10567 0.0
N633 N 0.56547 0.83794 0.12126 0.0
C634 C 0.55818 0.86068 0.13325 0.0
C635 C 0.56444 0.86438 0.07496 0.0
C636 C 0.56927 0.84008 0.08448 0.0
C637 C 0.52711 0.93681 0.16573 0.0
O638 O 0.53894 0.96277 0.14797 0.0
H639 H 0.55602 0.86718 0.16214 0.0
H640 H 0.56773 0.87346 0.04815 0.0
O641 O 0.6014 0.95253 0.11528 0.0
H642 H 0.48556 0.91126 0.0104 0.0
H643 H 0.57627 0.82603 0.06608 0.0
Cu644 Cu 0.1345 0.65848 0.13225 0.0
N645 N 0.10091 0.66579 0.12898 0.0
N646 N 0.07104 0.68427 0.10834 0.0
C647 C 0.10067 0.69018 0.11401 0.0
C648 C 0.05196 0.65527 0.12108 0.0
C649 C 0.07043 0.64392 0.13362 0.0
O650 O 0.17532 0.69968 0.13588 0.0
C651 C 0.11013 0.61876 0.06254 0.0
O652 O 0.10515 0.64145 0.053 0.0
H653 H 0.12166 0.71132 0.10624 0.0
H654 H 0.06211 0.62042 0.14326 0.0
N655 N 0.1329 0.64021 0.17589 0.0
N656 N 0.13969 0.61103 0.21531 0.0
C657 C 0.14134 0.61811 0.17988 0.0
C658 C 0.12553 0.64738 0.20988 0.0
C659 C 0.12975 0.62944 0.2343 0.0
C660 C 0.18611 0.72182 0.11407 0.0
O661 O 0.17079 0.7166 0.08208 0.0
H662 H 0.14957 0.60829 0.1574 0.0
H663 H 0.11817 0.66483 0.21651 0.0
O664 O 0.12659 0.62429 0.09244 0.0
H665 H 1.0264 0.64224 0.1195 0.0
H666 H 0.12589 0.63 0.26374 0.0
Cu667 Cu 0.41242 0.49407 0.10373 0.0
N668 N 0.4369 0.51313 0.06409 0.0
N669 N 0.47934 0.53048 0.03011 0.0
C670 C 0.46688 0.51995 0.06263 0.0
C671 C 0.45613 0.53035 0.01021 0.0
C672 C 0.42993 0.51967 0.03133 0.0
O673 O 0.43771 0.52196 0.14817 0.0
C674 C 0.38631 0.42758 0.11656 0.0
O675 O 0.37409 0.43445 0.14574 0.0
H676 H 0.47877 0.51573 0.08455 0.0
H677 H 0.40728 0.51612 0.02295 0.0
N678 N 0.37272 0.49039 0.10286 0.0
N679 N 0.32682 0.48189 0.12456 0.0
C680 C 0.35717 0.49111 0.13321 0.0
C681 C 0.3515 0.48026 0.07389 0.0
C682 C 0.32324 0.47515 0.08714 0.0
C683 C 0.44409 0.55131 0.14947 0.0
O684 O 0.43121 0.55869 0.12332 0.0
H685 H 0.36745 0.49636 0.16127 0.0
H686 H 0.35575 0.47533 0.04536 0.0
O687 O 0.40501 0.45025 0.09787 0.0
H688 H 0.45779 0.53706 0.98227 0.0
H689 H 0.30159 0.46641 0.07054 0.0
Cu690 Cu 0.13025 0.49665 0.5915 0.0
N691 N 0.11528 0.50449 0.54882 0.0
N692 N 0.08407 0.51353 0.51364 0.0
C693 C 0.09199 0.51115 0.54835 0.0
C694 C 0.10328 0.50823 0.49134 0.0
C695 C 0.12261 0.50275 0.51317 0.0
O696 O 0.1321 0.52862 0.63091 0.0
C697 C 0.09387 0.42952 0.5728 0.0
O698 O 0.1066 0.43825 0.54095 0.0
H699 H 0.0804 0.51318 0.57299 0.0
H700 H 0.1402 0.49716 0.50364 0.0
N701 N 0.16961 0.50045 0.58588 0.0
N702 N 0.20923 0.49141 0.59402 0.0
C703 C 0.18005 0.48413 0.60361 0.0
C704 C 0.19288 0.51869 0.56416 0.0
C705 C 0.21742 0.51327 0.56923 0.0
C706 C 0.15725 0.55586 0.64118 0.0
O707 O 0.18434 0.56116 0.62898 0.0
H708 H 0.16659 0.46766 0.6237 0.0
H709 H 0.19213 0.5349 0.54608 0.0
O710 O 0.10063 0.4516 0.59988 0.0
H711 H 0.10335 0.50828 0.46144 0.0
H712 H 0.23945 0.52442 0.55552 0.0
Cu713 Cu 0.57877 0.64582 0.56927 0.0
N714 N 0.56783 0.61962 0.52327 0.0
N715 N 0.55889 0.57824 0.48051 0.0
C716 C 0.56219 0.58885 0.51724 0.0
C717 C 0.56235 0.60329 0.46299 0.0
C718 C 0.56806 0.62867 0.48925 0.0
O719 O 0.54913 0.62106 0.60545 0.0
C720 C 0.64273 0.67249 0.55966 0.0
O721 O 0.63368 0.67572 0.52707 0.0
H722 H 0.56186 0.57512 0.53935 0.0
H723 H 0.57357 0.65258 0.48365 0.0
N724 N 0.57772 0.68423 0.56786 0.0
N725 N 0.58382 0.73265 0.58888 0.0
C726 C 0.58894 0.70864 0.596 0.0
C727 C 0.56471 0.69299 0.54213 0.0
C728 C 0.56871 0.72298 0.55489 0.0
C729 C 0.52037 0.61261 0.59927 0.0
O730 O 0.51251 0.62019 0.5688 0.0
H731 H 0.60005 0.70841 0.62164 0.0
H732 H 0.55189 0.67812 0.51667 0.0
O733 O 0.6221 0.65936 0.58346 0.0
H734 H 0.56125 0.60358 0.43319 0.0
H735 H 0.55969 0.7358 0.54115 0.0
Cu736 Cu 0.43299 0.94935 0.57708 0.0
N737 N 0.45808 0.96422 0.53632 0.0
N738 N 0.4979 0.99683 0.50262 0.0
C739 C 0.48672 0.9917 0.53697 0.0
C740 C 0.47525 0.97155 0.4796 0.0
C741 C 0.45077 0.95162 0.50038 0.0
O742 O 0.45799 0.94588 0.61626 0.0
C743 C 0.40667 0.98708 0.5662 0.0
O744 O 0.40533 0.97496 0.53163 0.0
H745 H 0.49894 1.00768 0.56217 0.0
H746 H 0.42876 0.93008 0.48976 0.0
N747 N 0.39642 0.90816 0.56525 0.0
N748 N 0.34732 0.8658 0.56915 0.0
C749 C 0.3689 0.89709 0.58203 0.0
C750 C 0.3922 0.88299 0.54101 0.0
C751 C 0.36197 0.85693 0.54321 0.0
C752 C 0.46901 0.92737 0.60795 0.0
O753 O 0.46331 0.91242 0.57396 0.0
H754 H 0.36499 0.91174 0.60353 0.0
H755 H 0.4101 0.88317 0.52368 0.0
O756 O 0.41877 0.9796 0.59171 0.0
H757 H 0.47576 0.96818 0.44965 0.0
H758 H 0.35201 0.83297 0.52783 0.0
Cu759 Cu 0.17898 0.4449 0.26706 0.0
N760 N 0.19292 0.4329 0.30713 0.0
N761 N 0.20116 0.40077 0.34023 0.0
C762 C 0.19434 0.40562 0.30617 0.0
C763 C 0.20414 0.42609 0.36345 0.0
C764 C 0.19879 0.44568 0.34304 0.0
O765 O 0.20393 0.44538 0.22474 0.0
C766 C 0.11379 0.4073 0.23588 0.0
O767 O 0.12372 0.41964 0.2044 0.0
H768 H 0.18959 0.38922 0.28105 0.0
H769 H 0.19765 0.46674 0.354 0.0
N770 N 0.18458 0.48659 0.27698 0.0
N771 N 0.17851 0.52901 0.27123 0.0
C772 C 0.1685 0.49753 0.25929 0.0
C773 C 0.20567 0.51212 0.30081 0.0
C774 C 0.20187 0.53823 0.29748 0.0
C775 C 0.23369 0.46474 0.231 0.0
O776 O 0.24407 0.4814 0.26408 0.0
H777 H 0.1499 0.48266 0.23792 0.0
H778 H 0.22318 0.51211 0.31866 0.0
O779 O 0.1337 0.41401 0.2625 0.0
H780 H 0.20829 0.42938 0.39336 0.0
H781 H 0.21593 0.56242 0.31234 0.0
Cu782 Cu 0.62688 0.74312 0.25285 0.0
N783 N 0.64197 0.77317 0.29573 0.0
N784 N 0.67402 0.81718 0.33538 0.0
C785 C 0.67171 0.79869 0.30354 0.0
C786 C 0.64468 0.80264 0.34808 0.0
C787 C 0.62501 0.77548 0.32365 0.0
O788 O 0.61787 0.76305 0.2138 0.0
C789 C 0.66882 0.72254 0.26643 0.0
O790 O 0.66073 0.72533 0.30057 0.0
H791 H 0.69096 0.8042 0.28559 0.0
H792 H 0.59994 0.75898 0.3256 0.0
N793 N 0.58945 0.70455 0.2603 0.0
N794 N 0.54449 0.65678 0.24566 0.0
C795 C 0.56638 0.68529 0.23385 0.0
C796 C 0.58193 0.68769 0.28997 0.0
C797 C 0.55418 0.65814 0.28099 0.0
C798 C 0.59585 0.76915 0.21931 0.0
O799 O 0.58083 0.76141 0.25007 0.0
H800 H 0.56654 0.69141 0.20583 0.0
H801 H 0.5962 0.69579 0.31581 0.0
O802 O 0.65768 0.73052 0.24041 0.0
H803 H 0.63789 0.81119 0.37314 0.0
H804 H 0.54235 0.63899 0.29882 0.0
Cu805 Cu 0.32915 0.89126 0.2413 0.0
N806 N 0.30475 0.88335 0.28268 0.0
N807 N 0.26392 0.87448 0.31674 0.0
C808 C 0.27487 0.87706 0.28232 0.0
C809 C 0.28785 0.87923 0.33963 0.0
C810 C 0.313 0.88463 0.31852 0.0
O811 O 0.30369 0.85484 0.20299 0.0
C812 C 0.35664 0.95784 0.25749 0.0
O813 O 0.35967 0.94944 0.28997 0.0
H814 H 0.26181 0.87541 0.25739 0.0
H815 H 0.3359 0.88986 0.32869 0.0
N816 N 0.36592 0.8907 0.2513 0.0
N817 N 0.41482 0.90006 0.24447 0.0
C818 C 0.39323 0.90767 0.23472 0.0
C819 C 0.37023 0.87163 0.27235 0.0
C820 C 0.40041 0.87737 0.26823 0.0
C821 C 0.28191 0.85111 0.18058 0.0
O822 O 0.27683 0.8752 0.17894 0.0
H823 H 0.39654 0.92403 0.21438 0.0
H824 H 0.35235 0.85401 0.28852 0.0
O825 O 0.34284 0.93545 0.23018 0.0
H826 H 0.28725 0.87884 0.36948 0.0
H827 H 0.41062 0.86524 0.28109 0.0
C828 C 0.33573 0.16831 0.17829 0.0
C829 C 0.33831 0.18609 0.1486 0.0
H830 H 0.35839 0.15141 0.21255 0.0
C831 C 0.36689 0.20085 0.13064 0.0
H832 H 0.31406 0.15669 0.19266 0.0
C833 C 0.3922 0.19792 0.14199 0.0
C834 C 0.38973 0.1802 0.17166 0.0
H835 H 0.36963 0.21421 0.10721 0.0
H836 H 0.41383 0.20978 0.1276 0.0
C837 C 0.36122 0.16552 0.18983 0.0
C838 C 0.85026 0.1602 0.09724 0.0
C839 C 0.87242 0.1511 0.10477 0.0
H840 H 0.83757 0.19659 0.10595 0.0
C841 C 0.89885 0.17237 0.12913 0.0
H842 H 0.82964 0.14455 0.07855 0.0
C843 C 0.90307 0.20221 0.14525 0.0
C844 C 0.88131 0.21154 0.13665 0.0
H845 H 0.91633 0.16611 0.13546 0.0
H846 H 0.92379 0.21842 0.16355 0.0
C847 C 0.85482 0.19013 0.1127 0.0
C848 C 0.87064 0.72112 0.18212 0.0
C849 C 0.85469 0.69085 0.15976 0.0
H850 H 0.9104 0.77018 0.18883 0.0
C851 C 0.86777 0.68722 0.12647 0.0
H852 H 0.86114 0.72492 0.20778 0.0
C853 C 0.89576 0.71313 0.11554 0.0
C854 C 0.91163 0.74353 0.13759 0.0
H855 H 0.85642 0.66423 0.10875 0.0
H856 H 0.90451 0.70936 0.08928 0.0
C857 C 0.89874 0.74719 0.17109 0.0
C858 C 0.22081 0.34964 0.39329 0.0
C859 C 0.2033 0.31871 0.37253 0.0
H860 H 0.23414 0.3998 0.39911 0.0
C861 C 0.18553 0.31541 0.34032 0.0
H862 H 0.23435 0.35317 0.4186 0.0
C863 C 0.18522 0.34237 0.32928 0.0
C864 C 0.20247 0.37318 0.35039 0.0
H865 H 0.17189 0.292 0.32366 0.0
H866 H 0.17088 0.33884 0.30469 0.0
C867 C 0.22039 0.37644 0.38238 0.0
C868 C 0.73177 0.85161 0.35121 0.0
C869 C 0.70135 0.84723 0.35156 0.0
H870 H 0.78081 0.8824 0.36968 0.0
C871 C 0.69774 0.87241 0.36892 0.0
H872 H 0.73517 0.83251 0.33802 0.0
C873 C 0.72368 0.90097 0.38638 0.0
C874 C 0.754 0.90501 0.38753 0.0
H875 H 0.67471 0.86994 0.36911 0.0
H876 H 0.71965 0.91952 0.39994 0.0
C877 C 0.75784 0.88013 0.36933 0.0
C878 C 0.2002 0.87552 0.37217 0.0
C879 C 0.17321 0.85615 0.34784 0.0
H880 H 0.25008 0.89655 0.38135 0.0
C881 C 0.17692 0.84384 0.3125 0.0
H882 H 0.19851 0.88606 0.39926 0.0
C883 C 0.20668 0.85016 0.30215 0.0
C884 C 0.23341 0.86875 0.32695 0.0
H885 H 0.15677 0.82856 0.29312 0.0
H886 H 0.20863 0.83973 0.27509 0.0
C887 C 0.22985 0.88157 0.36194 0.0
C888 C 0.69561 0.85371 0.79118 0.0
C889 C 0.68047 0.86334 0.81792 0.0
H890 H 0.73148 0.84229 0.78026 0.0
C891 C 0.69045 0.86826 0.8556 0.0
H892 H 0.6881 0.84904 0.762 0.0
C893 C 0.71556 0.86452 0.86614 0.0
C894 C 0.7312 0.85561 0.83925 0.0
H895 H 0.6795 0.87598 0.87683 0.0
H896 H 0.72321 0.86945 0.89529 0.0
C897 C 0.72059 0.84989 0.80169 0.0
C898 C 0.23171 0.86961 0.78878 0.0
C899 C 0.22025 0.87583 0.82218 0.0
H900 H 0.23122 0.83383 0.74825 0.0
C901 C 0.2006 0.84955 0.84204 0.0
H902 H 0.24735 0.88942 0.77322 0.0
C903 C 0.19119 0.81754 0.8277 0.0
C904 C 0.20161 0.81119 0.79345 0.0
H905 H 0.1914 0.85362 0.86784 0.0
H906 H 0.17491 0.79769 0.84284 0.0
C907 C 0.2227 0.83773 0.7747 0.0
C908 C 0.20322 0.35024 0.79349 0.0
C909 C 0.18989 0.35396 0.8265 0.0
H910 H 0.23975 0.37248 0.75611 0.0
C911 C 0.20531 0.38449 0.84837 0.0
H912 H 0.19228 0.32706 0.77617 0.0
C913 C 0.23308 0.41077 0.83702 0.0
C914 C 0.24616 0.40705 0.8037 0.0
H915 H 0.19559 0.38833 0.87382 0.0
H916 H 0.24429 0.43398 0.85431 0.0
C917 C 0.23088 0.37635 0.78223 0.0
C918 C 0.87747 0.70373 0.70766 0.0
C919 C 0.8606 0.69976 0.67439 0.0
H920 H 0.89225 0.68203 0.74514 0.0
C921 C 0.84639 0.6694 0.65223 0.0
H922 H 0.88905 0.7268 0.72522 0.0
C923 C 0.84859 0.64355 0.66348 0.0
C924 C 0.86517 0.64748 0.69705 0.0
H925 H 0.833 0.66535 0.62657 0.0
H926 H 0.83728 0.62047 0.64592 0.0
C927 C 0.87969 0.67801 0.71885 0.0
C928 C 0.40408 0.24417 0.67614 0.0
C929 C 0.4231 0.25113 0.70866 0.0
H930 H 0.36607 0.20748 0.63866 0.0
C931 C 0.41944 0.22499 0.72684 0.0
H932 H 0.4062 0.26369 0.66148 0.0
C933 C 0.3962 0.19287 0.71398 0.0
C934 C 0.37628 0.18603 0.68241 0.0
H935 H 0.43361 0.22937 0.75197 0.0
H936 H 0.39359 0.17339 0.72906 0.0
C937 C 0.38104 0.21196 0.66306 0.0
C938 C 0.90031 0.22143 0.69427 0.0
C939 C 0.90365 0.21152 0.65754 0.0
H940 H 0.8704 0.2272 0.73304 0.0
C941 C 0.87822 0.20012 0.63113 0.0
H942 H 0.91955 0.231 0.71517 0.0
C943 C 0.84996 0.19802 0.64139 0.0
C944 C 0.8464 0.20722 0.67835 0.0
H945 H 0.87981 0.19199 0.60268 0.0
H946 H 0.83058 0.18818 0.62061 0.0
C947 C 0.8721 0.21935 0.7045 0.0
C948 C 1.01938 0.51214 0.45755 0.0
C949 C 1.01169 0.5316 0.48166 0.0
H950 H 0.04836 0.49121 0.44876 0.0
C951 C 1.02798 0.5444 0.51682 0.0
H952 H 1.00706 0.50129 0.43056 0.0
C953 C 0.05152 0.53833 0.5273 0.0
C954 C 0.05957 0.51947 0.50286 0.0
H955 H 1.02323 0.55984 0.53606 0.0
H956 H 0.06397 0.54906 0.55428 0.0
C957 C 0.04313 0.50634 0.46793 0.0
C958 C 0.53057 0.48843 0.46187 0.0
C959 C 0.53724 0.48608 0.42434 0.0
H960 H 0.53183 0.51985 0.50931 0.0
C961 C 0.55392 0.5147 0.40715 0.0
H962 H 0.51726 0.4666 0.47554 0.0
C963 C 0.56233 0.54492 0.42623 0.0
C964 C 0.55378 0.54739 0.46295 0.0
H965 H 0.5594 0.51354 0.37823 0.0
H966 H 0.57478 0.56626 0.41165 0.0
C967 C 0.53874 0.5189 0.48105 0.0
C968 C 0.56819 0.0469 0.44789 0.0
C969 C 0.58316 0.07763 0.46931 0.0
H970 H 0.53003 0.99737 0.44183 0.0
C971 C 0.56986 0.08109 0.50258 0.0
H972 H 0.57721 0.04317 0.42183 0.0
C973 C 0.54223 0.05457 0.5139 0.0
C974 C 0.52713 1.02399 0.49211 0.0
H975 H 0.58079 0.10428 0.51988 0.0
H976 H 0.53238 0.05826 0.53932 0.0
C977 C 0.54068 1.02054 0.45913 0.0
C978 C 0.51815 1.00642 0.97778 0.0
C979 C 0.5327 0.03646 0.00066 0.0
H980 H 0.50544 0.95623 0.97176 0.0
C981 C 0.54472 0.03795 0.03645 0.0
H982 H 0.50888 1.00435 0.94993 0.0
C983 C 0.54284 1.01047 0.04882 0.0
C984 C 0.52887 0.98059 0.02579 0.0
H985 H 0.55542 0.06035 0.05519 0.0
H986 H 0.5521 1.01265 0.07672 0.0
C987 C 0.51621 0.97879 0.99024 0.0
C988 C 0.05999 0.52645 0.05044 0.0
C989 C 0.04305 0.52011 0.01642 0.0
H990 H 0.09519 0.56234 0.0911 0.0
C991 C 0.05087 0.5462 0.9957 0.0
H992 H 0.05475 0.50676 0.06674 0.0
C993 C 0.07388 0.57821 0.00978 0.0
C994 C 0.09003 0.58471 0.04451 0.0
H995 H 1.03816 0.54202 0.96943 0.0
H996 H 0.07831 0.59798 0.994 0.0
C997 C 0.08341 0.5583 0.06416 0.0
C998 C 0.54435 0.53713 0.9704 0.0
C999 C 0.56942 0.5476 0.99711 0.0
H1000 H 0.49612 0.52344 0.95987 0.0
C1001 C 0.5645 0.55354 0.03463 0.0
H1002 H 0.54697 0.5319 0.94131 0.0
C1003 C 0.53525 0.54856 0.04522 0.0
C1004 C 0.51006 0.53758 0.01863 0.0
H1005 H 0.58329 0.56223 0.05595 0.0
H1006 H 0.53238 0.55342 0.07436 0.0
C1007 C 0.51509 0.53228 0.98102 0.0
C1008 C 0.25557 0.11896 0.94025 0.0
C1009 C 0.27394 0.10431 0.94023 0.0
H1010 H 0.24993 0.15848 0.9626 0.0
C1011 C 0.30313 0.12101 0.96095 0.0
H1012 H 0.23292 0.10681 0.92479 0.0
C1013 C 0.31294 0.15071 0.98263 0.0
C1014 C 0.29376 0.16446 0.98426 0.0
H1015 H 0.31819 0.11081 0.961 0.0
H1016 H 0.33505 0.16224 -0.00078 0.0
C1017 C 0.26533 0.14864 0.96204 0.0
C1018 C 0.97031 0.18039 0.94769 0.0
C1019 C 0.97956 0.17392 0.91267 0.0
H1020 H 0.93393 0.16496 0.98639 0.0
C1021 C 0.95759 0.14592 0.8893 0.0
H1022 H 0.98655 0.20152 0.96661 0.0
C1023 C 0.92744 0.12467 0.90086 0.0
C1024 C 0.91837 0.13081 0.93614 0.0
H1025 H 0.96364 0.14031 0.86197 0.0
H1026 H 0.91153 0.10307 0.88233 0.0
C1027 C 0.94014 0.15913 0.95926 0.0
C1028 C 0.90407 0.77258 0.96861 0.0
C1029 C 0.93711 0.79264 0.97404 0.0
H1030 H 0.86108 0.7669 0.9467 0.0
C1031 C 0.9523 0.82226 0.95835 0.0
H1032 H 0.89157 0.74951 0.98009 0.0
C1033 C 0.93473 0.83234 0.9394 0.0
C1034 C 0.90153 0.81307 0.93568 0.0
H1035 H 0.97771 0.83835 0.96196 0.0
H1036 H 0.94717 0.85595 0.92919 0.0
C1037 C 0.88652 0.78267 0.94969 0.0
C1038 C 0.12993 0.27519 0.54905 0.0
C1039 C 0.11379 0.24479 0.56299 0.0
H1040 H 0.17024 0.30902 0.52175 0.0
C1041 C 0.12825 0.22608 0.56226 0.0
H1042 H 0.11986 0.29056 0.54985 0.0
C1043 C 0.15736 0.23678 0.54631 0.0
C1044 C 0.17275 0.26649 0.53081 0.0
H1045 H 0.1165 0.20251 0.57258 0.0
H1046 H 0.16718 0.22114 0.54489 0.0
C1047 C 0.15903 0.28592 0.53322 0.0
C1048 C 0.83623 0.90691 0.60886 0.0
C1049 C 0.82943 0.87823 0.58643 0.0
H1050 H 0.83357 0.94996 0.61463 0.0
C1051 C 0.81252 0.87061 0.55199 0.0
H1052 H 0.84876 0.91342 0.63576 0.0
C1053 C 0.8033 0.89146 0.54 0.0
C1054 C 0.81078 0.92055 0.56207 0.0
H1055 H 0.80697 0.84892 0.53375 0.0
H1056 H 0.79044 0.8848 0.5133 0.0
C1057 C 0.82709 0.92777 0.59686 0.0
C1058 C 0.17729 0.93203 0.56312 0.0
C1059 C 0.19326 0.96391 0.55286 0.0
H1060 H 0.14219 0.88157 0.5473 0.0
C1061 C 0.18514 0.96912 0.51814 0.0
H1062 H 0.18319 0.92724 0.58961 0.0
C1063 C 0.16172 0.94323 0.49421 0.0
C1064 C 0.1459 0.91128 0.50413 0.0
H1065 H 0.19667 0.99338 0.50958 0.0
H1066 H 0.15619 0.94834 0.46768 0.0
C1067 C 0.15397 0.90588 0.53884 0.0
C1068 C 0.84922 0.94042 0.99431 0.0
C1069 C 0.81769 0.91634 -0.00092 0.0
H1070 H 0.88417 0.99141 -0.00062 0.0
C1071 C 0.79833 0.92587 0.01788 0.0
H1072 H 0.86493 0.93404 0.98015 0.0
C1073 C 0.80956 0.95889 0.02932 0.0
C1074 C 0.84031 0.98316 0.02186 0.0
H1075 H 0.77401 0.908 0.02226 0.0
H1076 H 0.79345 0.96546 0.04195 0.0
C1077 C 0.86032 0.97342 0.00537 0.0
C1078 C 0.13706 0.92395 0.96153 0.0
C1079 C 0.16855 0.93416 0.97182 0.0
H1080 H 0.08885 0.89945 0.97587 0.0
C1081 C 0.17517 0.92738 0.00646 0.0
H1082 H 0.13101 0.9289 0.93521 0.0
C1083 C 0.15072 0.91027 0.02991 0.0
C1084 C 0.11913 0.89949 0.01915 0.0
H1085 H 0.19915 0.93492 0.01527 0.0
H1086 H 0.15649 0.90476 0.05599 0.0
C1087 C 0.11275 0.90688 0.98483 0.0
C1088 C 0.16725 0.23587 0.95467 0.0
C1089 C 0.15231 0.2529 0.96745 0.0
H1090 H 0.19528 0.21589 0.96839 0.0
C1091 C 0.15484 0.26308 0.00575 0.0
H1092 H 0.16574 0.22748 0.92542 0.0
C1093 C 0.172 0.25637 0.03059 0.0
C1094 C 0.18712 0.23951 0.01761 0.0
H1095 H 0.14358 0.27619 0.01652 0.0
H1096 H 0.17385 0.26485 0.05984 0.0
C1097 C 0.18439 0.22932 0.97935 0.0
C1098 C 0.95608 0.81108 0.54972 0.0
C1099 C 0.92505 0.79897 0.53555 0.0
H1100 H 1.00402 0.82754 0.53787 0.0
C1101 C 0.91894 0.79392 0.49676 0.0
H1102 H 0.96172 0.81533 0.57943 0.0
C1103 C 0.94349 0.80113 0.47276 0.0
C1104 C 0.97449 0.81314 0.48711 0.0
H1105 H 0.89531 0.78472 0.48497 0.0
H1106 H 0.93814 0.7969 0.44302 0.0
C1107 C 0.9804 0.81795 0.52586 0.0
C1108 C 0.29619 0.18682 0.49746 0.0
C1109 C 0.26569 0.16802 0.48001 0.0
H1110 H 0.3334 0.18714 0.52831 0.0
C1111 C 0.24932 0.134 0.47989 0.0
H1112 H 0.30937 0.21307 0.49763 0.0
C1113 C 0.26276 0.11917 0.49808 0.0
C1114 C 0.29324 0.13801 0.51575 0.0
H1115 H 0.22576 0.11904 0.46668 0.0
H1116 H 0.24926 0.09297 0.49847 0.0
C1117 C 0.31 0.17194 0.51471 0.0
C1118 C 0.90132 0.07645 0.49119 0.0
C1119 C 0.88107 0.08168 0.46961 0.0
H1120 H 0.9427 0.09777 0.52793 0.0
C1121 C 0.88986 0.11405 0.46554 0.0
H1122 H 0.89543 0.05195 0.49493 0.0
C1123 C 0.91706 0.14047 0.48459 0.0
C1124 C 0.93607 0.13512 0.50823 0.0
H1125 H 0.87494 0.11906 0.44901 0.0
H1126 H 0.92229 0.16498 0.4822 0.0
C1127 C 0.92843 0.10283 0.51029 0.0
C1128 C 0.97787 0.48713 0.2985 0.0
C1129 C 0.95738 0.49884 0.30633 0.0
H1130 H 0.983 0.44824 0.27228 0.0
C1131 C 0.92602 0.48022 0.2913 0.0
H1132 H 1.00215 0.50081 0.30971 0.0
C1133 C 0.91511 0.45021 0.26992 0.0
C1134 C 0.93519 0.43784 0.2632 0.0
H1135 H 0.90958 0.48848 0.29674 0.0
H1136 H 0.89055 0.43616 0.25985 0.0
C1137 C 0.96684 0.45688 0.27732 0.0
C1138 C 0.60844 0.49071 0.29516 0.0
C1139 C 0.58755 0.46146 0.27279 0.0
H1140 H 0.65357 0.53486 0.30134 0.0
C1141 C 0.59681 0.45552 0.23755 0.0
H1142 H 0.60204 0.49645 0.32221 0.0
C1143 C 0.62629 0.47786 0.22531 0.0
C1144 C 0.64746 0.50679 0.24796 0.0
H1145 H 0.58159 0.43327 0.21956 0.0
H1146 H 0.63246 0.47233 0.19802 0.0
C1147 C 0.63797 0.51304 0.28294 0.0
C1148 C 0.61632 0.15752 0.29236 0.0
C1149 C 0.60264 0.12757 0.30726 0.0
H1150 H 0.60869 0.19047 0.26498 0.0
C1151 C 0.5697 0.10637 0.30253 0.0
H1152 H 0.64161 0.17448 0.29551 0.0
C1153 C 0.55077 0.11553 0.28488 0.0
C1154 C 0.56427 0.14612 0.2715 0.0
H1155 H 0.55833 0.08303 0.31345 0.0
H1156 H 0.52546 0.09879 0.28226 0.0
C1157 C 0.59738 0.16668 0.2747 0.0
C1158 C 0.79381 0.61015 0.87775 0.0
C1159 C 0.77681 0.5798 0.89172 0.0
H1160 H 0.83421 0.64269 0.84954 0.0
C1161 C 0.78977 0.55964 0.88962 0.0
H1162 H 0.78497 0.62662 0.87951 0.0
C1163 C 0.81827 0.56899 0.87263 0.0
C1164 C 0.83457 0.59877 0.85734 0.0
H1165 H 0.77736 0.53604 0.89985 0.0
H1166 H 0.82694 0.55234 0.87038 0.0
C1167 C 0.82228 0.61951 0.86082 0.0
C1168 C 0.49974 0.26666 0.9287 0.0
C1169 C 0.48438 0.25985 0.8934 0.0
H1170 H 0.51954 0.25124 0.96875 0.0
C1171 C 0.47628 0.23044 0.87173 0.0
H1172 H 0.50668 0.28926 0.94593 0.0
C1173 C 0.48348 0.20849 0.88486 0.0
C1174 C 0.49919 0.21538 0.92001 0.0
H1175 H 0.46397 0.22415 0.84469 0.0
H1176 H 0.47632 0.18594 0.86747 0.0
C1177 C 0.50713 0.24478 0.94178 0.0
C1178 C 0.84184 0.30737 0.86532 0.0
C1179 C 0.85791 0.29983 0.89066 0.0
H1180 H 0.80624 0.28993 0.82145 0.0
C1181 C 0.84849 0.26686 0.89163 0.0
H1182 H 0.84816 0.33238 0.86424 0.0
C1183 C 0.82426 0.24217 0.86681 0.0
C1184 C 0.80886 0.25 0.84076 0.0
H1185 H 0.86054 0.26024 0.91068 0.0
H1186 H 0.81812 0.21715 0.86747 0.0
C1187 C 0.81764 0.28286 0.84086 0.0
C1188 C 0.49308 0.26153 0.33402 0.0
C1189 C 0.46443 0.23297 0.33957 0.0
H1190 H 0.52114 0.31378 0.34391 0.0
C1191 C 0.44329 0.23579 0.3634 0.0
H1192 H 0.50997 0.26034 0.31587 0.0
C1193 C 0.44987 0.26641 0.37979 0.0
C1194 C 0.47763 0.29516 0.3725 0.0
H1195 H 0.42112 0.21438 0.36853 0.0
H1196 H 0.43242 0.26756 0.39691 0.0
C1197 C 0.49953 0.29225 0.35014 0.0
C1198 C 0.81977 0.24287 0.35278 0.0
C1199 C 0.78795 0.2325 0.34366 0.0
H1200 H 0.86771 0.26728 0.33598 0.0
C1201 C 0.78073 0.24034 0.31016 0.0
H1202 H 0.82622 0.23708 0.37822 0.0
C1203 C 0.80431 0.25737 0.28608 0.0
C1204 C 0.83602 0.26723 0.29464 0.0
H1205 H 0.75671 0.23335 0.30245 0.0
H1206 H 0.79747 0.26265 0.26049 0.0
C1207 C 0.84357 0.26004 0.32849 0.0
C1208 C 0.8388 0.59169 0.36129 0.0
C1209 C 0.85791 0.57989 0.34675 0.0
H1210 H 0.80641 0.60735 0.34937 0.0
C1211 C 0.85866 0.57486 0.30795 0.0
H1212 H 0.83791 0.59607 0.39106 0.0
C1213 C 0.84076 0.58124 0.28427 0.0
C1214 C 0.82164 0.59302 0.29861 0.0
H1215 H 0.8727 0.56537 0.29574 0.0
H1216 H 0.84189 0.57677 0.25454 0.0
C1217 C 0.82096 0.59838 0.33744 0.0
C1218 C 0.59187 0.1477 0.82758 0.0
C1219 C 0.57982 0.11714 0.84069 0.0
H1220 H 0.62826 0.18488 0.79868 0.0
C1221 C 0.59504 0.09963 0.83187 0.0
H1222 H 0.58079 0.1619 0.83387 0.0
C1223 C 0.62225 0.11281 0.81168 0.0
C1224 C 0.63499 0.14386 0.79968 0.0
H1225 H 0.58639 0.07596 0.8413 0.0
H1226 H 0.63343 0.0987 0.80573 0.0
C1227 C 0.61909 0.16087 0.80728 0.0
C1228 C 0.94194 0.46453 0.83305 0.0
C1229 C 0.92895 0.45797 0.86795 0.0
H1230 H 0.94497 0.48641 0.78322 0.0
C1231 C 0.90751 0.46789 0.87846 0.0
H1232 H 0.95849 0.4572 0.82406 0.0
C1233 C 0.89972 0.48449 0.8551 0.0
C1234 C 0.91304 0.49158 0.82048 0.0
H1235 H 0.89685 0.46313 0.90501 0.0
H1236 H 0.8832 0.49179 0.86422 0.0
C1237 C 0.93401 0.48109 0.80953 0.0
C1238 C 0.60131 0.45291 0.82326 0.0
C1239 C 0.60256 0.48176 0.83825 0.0
H1240 H 0.57193 0.40231 0.80209 0.0
C1241 C 0.57428 0.48203 0.83943 0.0
H1242 H 0.62266 0.45187 0.8218 0.0
C1243 C 0.5453 0.4536 0.82852 0.0
C1244 C 0.54385 0.42427 0.81569 0.0
H1245 H 0.57427 0.50372 0.85074 0.0
H1246 H 0.52386 0.45432 0.8315 0.0
C1247 C 0.57225 0.4245 0.81186 0.0
C1248 C 0.59792 0.7904 0.60156 0.0
C1249 C 0.58932 0.76036 0.61431 0.0
H1250 H 0.6086 0.83967 0.61602 0.0
C1251 C 0.58512 0.75737 0.65236 0.0
H1252 H 0.60142 0.79337 0.57235 0.0
C1253 C 0.58863 0.78339 0.67697 0.0
C1254 C 0.59704 0.81339 0.66439 0.0
H1255 H 0.57819 0.7345 0.66297 0.0
H1256 H 0.5847 0.77995 0.70605 0.0
C1257 C 0.60216 0.81687 0.62649 0.0
C1258 C 0.27876 0.83109 0.63101 0.0
C1259 C 0.25542 0.80372 0.60798 0.0
H1260 H 0.32608 0.87209 0.63698 0.0
C1261 C 0.26259 0.79782 0.57147 0.0
H1262 H 0.27401 0.83668 0.6591 0.0
C1263 C 0.2925 0.81833 0.55866 0.0
C1264 C 0.31602 0.84541 0.58191 0.0
H1265 H 0.24535 0.77691 0.553 0.0
H1266 H 0.29717 0.81293 0.53046 0.0
C1267 C 0.30861 0.85168 0.61815 0.0
C1268 C 0.23141 0.43875 0.64032 0.0
C1269 C 0.26459 0.45806 0.64306 0.0
H1270 H 0.18787 0.43392 0.6222 0.0
C1271 C 0.27929 0.48745 0.62688 0.0
H1272 H 0.21925 0.41589 0.65226 0.0
C1273 C 0.2612 0.49795 0.60984 0.0
C1274 C 0.22797 0.47934 0.60863 0.0
H1275 H 0.3048 0.50299 0.62851 0.0
H1276 H 0.2733 0.52127 0.59896 0.0
C1277 C 0.21335 0.44925 0.62334 0.0
C1278 C 0.46149 0.94134 0.21478 0.0
C1279 C 0.44519 0.91106 0.22898 0.0
H1280 H 0.50035 0.97349 0.18433 0.0
C1281 C 0.45811 0.89089 0.2256 0.0
H1282 H 0.45256 0.95774 0.21754 0.0
C1283 C 0.48566 0.89998 0.20668 0.0
C1284 C 0.50101 0.92951 0.19079 0.0
H1285 H 0.44617 0.86736 0.23603 0.0
H1286 H 0.4942 0.88324 0.20327 0.0
C1287 C 0.48907 0.95048 0.19598 0.0
C1288 C 0.15532 0.54285 0.22064 0.0
C1289 C 0.16773 0.54907 0.25751 0.0
H1290 H 0.13655 0.55753 0.17843 0.0
C1291 C 0.16996 0.57558 0.28053 0.0
H1292 H 0.15351 0.52285 0.20204 0.0
C1293 C 0.16027 0.59553 0.26694 0.0
C1294 C 0.1484 0.58965 0.22988 0.0
H1295 H 0.1791 0.58085 0.30914 0.0
H1296 H 0.16275 0.616 0.28526 0.0
C1297 C 0.1459 0.56296 0.20697 0.0
C1298 C 0.50222 0.63608 0.19619 0.0
C1299 C 0.51774 0.62995 0.2238 0.0
H1300 H 0.46669 0.6163 0.15183 0.0
C1301 C 0.50757 0.59737 0.22849 0.0
H1302 H 0.50922 0.66087 0.19226 0.0
C1303 C 0.48313 0.57152 0.20501 0.0
C1304 C 0.46817 0.57783 0.17675 0.0
H1305 H 0.51923 0.59191 0.24942 0.0
H1306 H 0.47639 0.54673 0.20853 0.0
C1307 C 0.47768 0.61042 0.17315 0.0
C1308 C 0.18156 0.64107 0.68548 0.0
C1309 C 0.15263 0.63998 0.68397 0.0
H1310 H 0.20575 0.61519 0.67312 0.0
C1311 C 0.12487 0.60992 0.67287 0.0
H1312 H 0.20335 0.66386 0.69382 0.0
C1313 C 0.12614 0.582 0.66145 0.0
C1314 C 0.15529 0.58355 0.66031 0.0
H1315 H 0.10215 0.6082 0.67167 0.0
H1316 H 0.1044 0.55968 0.65152 0.0
C1317 C 0.1829 0.61317 0.6735 0.0
C1318 C 0.44082 0.56849 0.64175 0.0
C1319 C 0.44832 0.56096 0.67535 0.0
H1320 H 0.45742 0.5905 0.59171 0.0
C1321 C 0.48006 0.57104 0.68413 0.0
H1322 H 0.41676 0.56151 0.63431 0.0
C1323 C 0.50358 0.58779 0.65956 0.0
C1324 C 0.49589 0.59496 0.62577 0.0
H1325 H 0.48665 0.56537 0.70956 0.0
H1326 H 0.52772 0.59497 0.66696 0.0
C1327 C 0.46425 0.58526 0.61734 0.0
C1328 C 0.51426 0.93393 0.69694 0.0
C1329 C 0.52522 0.91257 0.68646 0.0
H1330 H 0.48809 0.95555 0.68054 0.0
C1331 C 0.51691 0.89588 0.65034 0.0
H1332 H 0.52041 0.9475 0.72434 0.0
C1333 C 0.49861 0.90069 0.62525 0.0
C1334 C 0.48799 0.9223 0.63547 0.0
H1335 H 0.52442 0.8789 0.64138 0.0
H1336 H 0.49287 0.88738 0.59766 0.0
C1337 C 0.49586 0.93874 0.67173 0.0
C1338 C 0.28933 0.49139 0.21149 0.0
C1339 C 0.25695 0.46906 0.20255 0.0
H1340 H 0.33652 0.51333 0.19386 0.0
C1341 C 0.24775 0.45143 0.16691 0.0
H1342 H 0.29743 0.50565 0.23853 0.0
C1343 C 0.27052 0.45584 0.14106 0.0
C1344 C 0.30298 0.47793 0.15036 0.0
H1345 H 0.22305 0.43405 0.15909 0.0
H1346 H 0.26272 0.44146 0.11412 0.0
C1347 C 0.31193 0.49575 0.18584 0.0
C1348 C 0.59462 0.81033 0.13505 0.0
C1349 C 0.57194 0.81889 0.14429 0.0
H1350 H 0.62027 0.78815 0.1515 0.0
C1351 C 0.55665 0.80988 0.17752 0.0
H1352 H 0.60709 0.81717 0.10984 0.0
C1353 C 0.56418 0.79337 0.20129 0.0
C1354 C 0.58738 0.78548 0.19265 0.0
H1355 H 0.53883 0.81571 0.18526 0.0
H1356 H 0.55198 0.78716 0.22678 0.0
C1357 C 0.60234 0.79389 0.15905 0.0
C1358 C 0.23912 0.8142 0.13083 0.0
C1359 C 0.25981 0.81827 0.16035 0.0
H1360 H 0.20013 0.78059 0.09242 0.0
C1361 C 0.25765 0.79026 0.17227 0.0
H1362 H 0.24014 0.83521 0.12093 0.0
C1363 C 0.23443 0.75901 0.15637 0.0
C1364 C 0.21316 0.75489 0.12759 0.0
H1365 H 0.27309 0.79239 0.19499 0.0
H1366 H 0.2327 0.738 0.1672 0.0
C1367 C 0.21627 0.78288 0.11437 0.0
C1368 C 0.3588 0.35228 0.04756 0.0
C1369 C 0.34327 0.32719 0.07031 0.0
H1370 H 0.38534 0.40376 0.04455 0.0
C1371 C 0.34446 0.33548 0.10897 0.0
H1372 H 0.35836 0.34667 0.01775 0.0
C1373 C 0.35936 0.36814 0.12427 0.0
C1374 C 0.37405 0.39321 0.10139 0.0
H1375 H 0.33264 0.31671 0.12731 0.0
H1376 H 0.35877 0.37374 0.1539 0.0
C1377 C 0.37436 0.38496 0.063 0.0
C1378 C 0.6803 0.96561 0.10488 0.0
C1379 C 0.65532 0.97156 0.1041 0.0
H1380 H 0.72504 0.97685 0.08485 0.0
C1381 C 0.65806 0.99616 0.08359 0.0
H1382 H 0.67894 0.94673 0.12016 0.0
C1383 C 0.68463 1.01351 0.06322 0.0
C1384 C 0.70912 1.00674 0.06298 0.0
H1385 H 0.63923 1.00137 0.0823 0.0
H1386 H 0.68587 0.03208 0.04753 0.0
C1387 C 0.70681 0.98293 0.08454 0.0
C1388 C 0.0733 0.74447 0.0477 0.0
C1389 C 0.04444 0.74257 0.05443 0.0
H1390 H 0.10421 0.72728 0.05896 0.0
C1391 C 1.02374 0.71994 0.07774 0.0
H1392 H 0.08975 0.76152 0.0298 0.0
C1393 C 1.03229 0.70062 0.09506 0.0
C1394 C 0.06167 0.70334 0.08941 0.0
H1395 H 1.00137 0.71795 0.08373 0.0
H1396 H 1.01622 0.68426 0.11376 0.0
C1397 C 0.08178 0.72506 0.06489 0.0
C1398 C 0.36204 0.32595 0.46828 0.0
C1399 C 0.3337 0.32427 0.45845 0.0
H1400 H 0.40931 0.34098 0.45434 0.0
C1401 C 0.3331 0.34066 0.4286 0.0
H1402 H 0.36337 0.31364 0.49107 0.0
C1403 C 0.35944 0.35623 0.40742 0.0
C1404 C 0.38709 0.35607 0.41575 0.0
H1405 H 0.31175 0.3401 0.42034 0.0
H1406 H 0.35786 0.36757 0.3838 0.0
C1407 C 0.38846 0.34172 0.4472 0.0
C1408 C 0.73894 0.07742 0.37541 0.0
C1409 C 0.71068 0.07676 0.3825 0.0
H1410 H 0.77089 0.06246 0.39076 0.0
C1411 C 0.69117 0.05709 0.40895 0.0
H1412 H 0.75451 0.09232 0.35527 0.0
C1413 C 0.70074 0.04023 0.42955 0.0
C1414 C 0.72978 0.04229 0.42382 0.0
H1415 H 0.66921 0.05597 0.41515 0.0
H1416 H 0.68574 1.02614 0.45055 0.0
C1417 C 0.74832 0.06026 0.39574 0.0
C1418 C 1.03225 0.71113 0.41827 0.0
C1419 C 0.06511 0.72844 0.42617 0.0
H1420 H 0.99045 0.66503 0.40223 0.0
C1421 C 0.08117 0.71131 0.42353 0.0
H1422 H 1.01919 0.72362 0.41955 0.0
C1423 C 0.06451 0.6774 0.41388 0.0
C1424 C 1.03165 0.66021 0.40579 0.0
H1425 H 0.10652 0.72405 0.42923 0.0
H1426 H 0.07732 0.66467 0.41272 0.0
C1427 C 1.0158 0.67753 0.40785 0.0
C1428 C 0.71319 0.68043 0.88891 0.0
C1429 C 0.71036 0.66997 0.9243 0.0
H1430 H 0.73288 0.72081 0.8569 0.0
C1431 C 0.72421 0.69363 0.95555 0.0
H1432 H 0.70278 0.66292 0.8643 0.0
C1433 C 0.74139 0.72695 0.95137 0.0
C1434 C 0.74528 0.73731 0.91582 0.0
H1435 H 0.72233 0.68642 0.98329 0.0
H1436 H 0.75245 0.74449 0.97585 0.0
C1437 C 0.73053 0.71368 0.88472 0.0
C1438 C 0.36962 1.02983 0.88112 0.0
C1439 C 0.3496 1.02105 0.91094 0.0
H1440 H 0.41711 0.05221 0.86392 0.0
C1441 C 0.36293 1.02662 0.94712 0.0
H1442 H 0.36009 1.02563 0.85281 0.0
C1443 C 0.39573 0.042 0.95346 0.0
C1444 C 0.41584 0.05191 0.92375 0.0
H1445 H 0.34817 1.02009 0.97065 0.0
H1446 H 0.40536 0.04684 0.98183 0.0
C1447 C 0.40235 0.04497 0.88742 0.0
C1448 C 0.04305 0.34587 0.88124 0.0
C1449 C 0.05597 0.33783 0.91009 0.0
H1450 H 1.01845 0.3694 0.86634 0.0
C1451 C 0.05536 0.34967 0.94694 0.0
H1452 H 0.04331 0.33734 0.85247 0.0
C1453 C 1.04108 0.36806 0.95484 0.0
C1454 C 1.0272 0.37516 0.92607 0.0
H1455 H 0.0652 0.34405 0.96978 0.0
H1456 H 1.04032 0.3761 0.98365 0.0
C1457 C 1.02889 0.36439 0.88913 0.0
C1458 C 0.72064 0.70563 0.61443 0.0
C1459 C 0.7424 0.71717 0.58651 0.0
H1460 H 0.67208 0.68217 0.6279 0.0
C1461 C 0.73093 0.71189 0.54946 0.0
H1462 H 0.72871 0.70915 0.64328 0.0
C1463 C 0.69846 0.69662 0.54073 0.0
C1464 C 0.67676 0.68602 0.56881 0.0
H1465 H 0.74705 0.72047 0.52733 0.0
H1466 H 0.69043 0.69365 0.51197 0.0
C1467 C 0.68815 0.69009 0.60566 0.0
C1468 C 0.36459 0.03327 0.55407 0.0
C1469 C 0.35783 0.03883 0.59078 0.0
H1470 H 0.38534 1.01256 0.51754 0.0
C1471 C 0.36933 1.02935 0.61964 0.0
H1472 H 0.3561 0.04028 0.53125 0.0
C1473 C 0.38622 1.01365 0.61189 0.0
C1474 C 0.39179 1.00679 0.57504 0.0
H1475 H 0.36474 0.03348 0.64832 0.0
H1476 H 0.39401 1.00597 0.63468 0.0
C1477 C 0.38127 1.01728 0.54627 0.0
C1478 C 0.06642 0.38375 0.6125 0.0
C1479 C 0.0738 0.39435 0.57713 0.0
H1480 H 0.04527 0.34308 0.64416 0.0
C1481 C 0.06319 0.37084 0.54568 0.0
H1482 H 0.07422 0.40118 0.63725 0.0
C1483 C 0.04638 0.33749 0.54957 0.0
C1484 C 1.04009 0.32691 0.58503 0.0
H1485 H 0.06832 0.37818 0.51797 0.0
H1486 H 1.03918 0.32006 0.52487 0.0
C1487 C 0.0499 0.35041 0.61641 0.0
C1488 C 1.02131 0.64072 0.78402 0.0
C1489 C 0.99643 0.64687 0.78399 0.0
H1490 H 0.06697 0.65366 0.76603 0.0
C1491 C 1.00059 0.67392 0.76744 0.0
H1492 H 1.01896 0.62003 0.79633 0.0
C1493 C 1.02849 0.69358 0.75012 0.0
C1494 C 0.0529 0.68659 0.74871 0.0
H1495 H 0.98193 0.67942 0.76692 0.0
H1496 H 1.03064 0.714 0.73748 0.0
C1497 C 0.04906 0.66018 0.76653 0.0
C1498 C 0.35527 0.38497 0.73996 0.0
C1499 C 0.37403 0.40517 0.71351 0.0
H1500 H 0.35029 0.35257 0.77913 0.0
C1501 C 0.40165 0.40533 0.70402 0.0
H1502 H 0.33391 0.38436 0.74814 0.0
C1503 C 0.41099 0.38677 0.72166 0.0
C1504 C 0.39313 0.36781 0.74958 0.0
H1505 H 0.41656 0.42049 0.68364 0.0
H1506 H 0.43251 0.3878 0.7136 0.0
C1507 C 0.36476 0.36667 0.75787 0.0
C1508 C 0.69251 1.01033 0.76698 0.0
C1509 C 0.67904 1.00123 0.73026 0.0
H1510 H 0.7188 0.0494 0.81059 0.0
C1511 C 0.68435 1.02578 0.70827 0.0
H1512 H 0.68869 0.99196 0.78478 0.0
C1513 C 0.70193 0.05862 0.72291 0.0
C1514 C 0.71414 0.06772 0.76017 0.0
H1515 H 0.67432 1.01959 0.67993 0.0
H1516 H 0.70492 0.07681 0.7053 0.0
C1517 C 0.70963 0.04322 0.78189 0.0
C1518 C 0.38292 1.01637 0.28492 0.0
C1519 C 0.37149 0.99306 0.25318 0.0
H1520 H 0.40884 0.06704 0.30649 0.0
C1521 C 0.37635 1.00403 0.21793 0.0
H1522 H 0.37944 1.0088 0.31259 0.0
C1523 C 0.39339 0.03751 0.21452 0.0
C1524 C 0.40577 0.06081 0.24626 0.0
H1525 H 0.3679 0.98681 0.19297 0.0
H1526 H 0.39741 0.0451 0.18686 0.0
C1527 C 0.39974 0.04983 0.28152 0.0
C1528 C 1.02446 0.36182 0.21964 0.0
C1529 C 1.01441 0.35838 0.25624 0.0
H1530 H 0.06357 0.38006 0.18445 0.0
C1531 C 1.03725 0.3696 0.2858 0.0
H1532 H 1.00752 0.35352 0.19614 0.0
C1533 C 0.06939 0.38442 0.27898 0.0
C1534 C 0.07952 0.38885 0.24247 0.0
H1535 H 1.03035 0.36729 0.31427 0.0
H1536 H 0.08638 0.39327 0.30253 0.0
C1537 C 0.05663 0.3771 0.21286 0.0
C1538 C 0.70603 0.67958 0.2142 0.0
C1539 C 0.71823 0.67122 0.24347 0.0
H1540 H 0.68125 0.70264 0.19837 0.0
C1541 C 0.716 0.68192 0.28024 0.0
H1542 H 0.70756 0.67194 0.18549 0.0
C1543 C 0.70081 0.6995 0.28759 0.0
C1544 C 0.68772 0.70695 0.25833 0.0
H1545 H 0.72523 0.67598 0.30338 0.0
H1546 H 0.69878 0.70667 0.31631 0.0
C1547 C 0.69104 0.69732 0.22154 0.0
loop_
_geom_bond_atom_site_label_1
_geom_bond_atom_site_label_2
_geom_bond_distance
_geom_bond_site_symmetry_2
_ccdc_geom_bond_type
Cu0 N1 1.999 . S
Cu0 O6 1.974 . S
Cu0 N11 1.985 . S
Cu0 O20 1.959 . S
N1 Cu0 1.999 . S
N1 C3 1.263 . S
N1 C5 1.389 . S
N2 C3 1.358 . S
N2 C4 1.400 . S
C3 N1 1.263 . S
C3 N2 1.358 . S
C3 H9 0.930 . S
C4 N2 1.400 . S
C4 C5 1.351 . S
C4 H21 0.930 . S
C5 N1 1.389 . S
C5 C4 1.351 . S
C5 H10 0.930 . S
O6 Cu0 1.974 . S
O6 C16 1.282 . S
C7 O8 1.261 . S
C7 O20 1.251 . S
O8 C7 1.261 . S
H9 C3 0.930 . S
H10 C5 0.930 . S
N11 Cu0 1.985 . S
N11 C13 1.335 . S
N11 C14 1.390 1_554 S
N12 C13 1.345 1_556 S
N12 C15 1.336 . S
C13 N11 1.335 . S
C13 N12 1.345 1_554 S
C13 H18 0.930 . S
C14 N11 1.390 1_556 S
C14 C15 1.346 . S
C14 H19 0.930 . S
C15 N12 1.336 . S
C15 C14 1.346 . S
C15 H22 0.929 . S
C16 O6 1.282 . S
C16 O17 1.216 1_554 S
O17 C16 1.216 1_556 S
H18 C13 0.930 . S
H19 C14 0.930 . S
O20 Cu0 1.959 . S
O20 C7 1.251 . S
H21 C4 0.930 . S
H22 C15 0.929 . S
Cu23 N24 1.999 . S
Cu23 O29 1.974 1_545 S
Cu23 N34 1.985 . S
Cu23 O43 1.959 . S
N24 Cu23 1.999 . S
N24 C26 1.263 1_545 S
N24 C28 1.389 . S
N25 C26 1.358 . S
N25 C27 1.400 1_565 S
C26 N24 1.263 1_565 S
C26 N25 1.358 . S
C26 H32 0.930 . S
C27 N25 1.400 1_545 S
C27 C28 1.351 . S
C27 H44 0.930 . S
C28 N24 1.389 . S
C28 C27 1.351 . S
C28 H33 0.930 . S
O29 Cu23 1.974 1_565 S
O29 C39 1.282 . S
C30 O31 1.261 . S
C30 O43 1.251 . S
O31 C30 1.261 . S
H32 C26 0.930 . S
H33 C28 0.930 . S
N34 Cu23 1.985 . S
N34 C36 1.335 . S
N34 C37 1.390 . S
N35 C36 1.345 . S
N35 C38 1.336 . S
C36 N34 1.335 . S
C36 N35 1.345 . S
C36 H41 0.930 . S
C37 N34 1.390 . S
C37 C38 1.346 . S
C37 H42 0.930 . S
C38 N35 1.336 . S
C38 C37 1.346 . S
C38 H45 0.929 . S
C39 O29 1.282 . S
C39 O40 1.216 . S
O40 C39 1.216 . S
H41 C36 0.930 . S
H42 C37 0.930 . S
O43 Cu23 1.959 . S
O43 C30 1.251 . S
H44 C27 0.930 . S
H45 C38 0.929 . S
Cu46 N47 1.999 . S
Cu46 O52 1.974 . S
Cu46 N57 1.985 . S
Cu46 O66 1.959 . S
N47 Cu46 1.999 . S
N47 C49 1.263 . S
N47 C51 1.389 . S
N48 C49 1.358 . S
N48 C50 1.400 . S
C49 N47 1.263 . S
C49 N48 1.358 . S
C49 H55 0.930 . S
C50 N48 1.400 . S
C50 C51 1.351 . S
C50 H67 0.930 . S
C51 N47 1.389 . S
C51 C50 1.351 . S
C51 H56 0.930 . S
O52 Cu46 1.974 . S
O52 C62 1.282 . S
C53 O54 1.261 . S
C53 O66 1.251 . S
O54 C53 1.261 . S
H55 C49 0.930 . S
H56 C51 0.930 . S
N57 Cu46 1.985 . S
N57 C59 1.335 1_655 S
N57 C60 1.390 . S
N58 C59 1.345 . S
N58 C61 1.336 1_554 S
C59 N57 1.335 1_455 S
C59 N58 1.345 . S
C59 H64 0.930 . S
C60 N57 1.390 . S
C60 C61 1.346 1_654 S
C60 H65 0.930 1_554 S
C61 N58 1.336 1_556 S
C61 C60 1.346 1_456 S
C61 H68 0.929 . S
C62 O52 1.282 . S
C62 O63 1.216 . S
O63 C62 1.216 . S
H64 C59 0.930 . S
H65 C60 0.930 1_556 S
O66 Cu46 1.959 . S
O66 C53 1.251 . S
H67 C50 0.930 . S
H68 C61 0.929 . S
Cu69 N70 1.999 . S
Cu69 O75 1.974 . S
Cu69 N80 1.985 . S
Cu69 O89 1.959 . S
N70 Cu69 1.999 . S
N70 C72 1.263 . S
N70 C74 1.389 . S
N71 C72 1.358 . S
N71 C73 1.400 . S
C72 N70 1.263 . S
C72 N71 1.358 . S
C72 H78 0.930 . S
C73 N71 1.400 . S
C73 C74 1.351 . S
C73 H90 0.930 . S
C74 N70 1.389 . S
C74 C73 1.351 . S
C74 H79 0.930 . S
O75 Cu69 1.974 . S
O75 C85 1.282 . S
C76 O77 1.261 . S
C76 O89 1.251 . S
O77 C76 1.261 . S
H78 C72 0.930 . S
H79 C74 0.930 . S
N80 Cu69 1.985 . S
N80 C82 1.335 . S
N80 C83 1.390 . S
N81 C82 1.345 . S
N81 C84 1.336 . S
C82 N80 1.335 . S
C82 N81 1.345 . S
C82 H87 0.930 . S
C83 N80 1.390 . S
C83 C84 1.346 . S
C83 H88 0.930 . S
C84 N81 1.336 . S
C84 C83 1.346 . S
C84 H91 0.929 . S
C85 O75 1.282 . S
C85 O86 1.216 . S
O86 C85 1.216 . S
H87 C82 0.930 . S
H88 C83 0.930 . S
O89 Cu69 1.959 . S
O89 C76 1.251 . S
H90 C73 0.930 . S
H91 C84 0.929 . S
Cu92 N93 1.999 . S
Cu92 O98 1.974 1_565 S
Cu92 N103 1.985 . S
Cu92 O112 1.959 . S
N93 Cu92 1.999 . S
N93 C95 1.263 1_565 S
N93 C97 1.389 . S
N94 C95 1.358 . S
N94 C96 1.400 1_545 S
C95 N93 1.263 1_545 S
C95 N94 1.358 . S
C95 H101 0.930 . S
C96 N94 1.400 1_565 S
C96 C97 1.351 . S
C96 H113 0.930 . S
C97 N93 1.389 . S
C97 C96 1.351 . S
C97 H102 0.930 . S
O98 Cu92 1.974 1_545 S
O98 C108 1.282 . S
C99 O100 1.261 . S
C99 O112 1.251 . S
O100 C99 1.261 . S
H101 C95 0.930 . S
H102 C97 0.930 . S
N103 Cu92 1.985 . S
N103 C105 1.335 . S
N103 C106 1.390 . S
N104 C105 1.345 . S
N104 C107 1.336 . S
C105 N103 1.335 . S
C105 N104 1.345 . S
C105 H110 0.930 . S
C106 N103 1.390 . S
C106 C107 1.346 . S
C106 H111 0.930 . S
C107 N104 1.336 . S
C107 C106 1.346 . S
C107 H114 0.929 . S
C108 O98 1.282 . S
C108 O109 1.216 . S
O109 C108 1.216 . S
H110 C105 0.930 . S
H111 C106 0.930 . S
O112 Cu92 1.959 . S
O112 C99 1.251 . S
H113 C96 0.930 . S
H114 C107 0.929 . S
Cu115 N116 1.999 . S
Cu115 O121 1.974 . S
Cu115 N126 1.985 . S
Cu115 O135 1.959 . S
N116 Cu115 1.999 . S
N116 C118 1.263 . S
N116 C120 1.389 . S
N117 C118 1.358 . S
N117 C119 1.400 . S
C118 N116 1.263 . S
C118 N117 1.358 . S
C118 H124 0.930 . S
C119 N117 1.400 . S
C119 C120 1.351 . S
C119 H136 0.930 . S
C120 N116 1.389 . S
C120 C119 1.351 . S
C120 H125 0.930 . S
O121 Cu115 1.974 . S
O121 C131 1.282 . S
C122 O123 1.261 . S
C122 O135 1.251 . S
O123 C122 1.261 . S
H124 C118 0.930 . S
H125 C120 0.930 . S
N126 Cu115 1.985 . S
N126 C128 1.335 1_455 S
N126 C129 1.390 . S
N127 C128 1.345 . S
N127 C130 1.336 . S
C128 N126 1.335 1_655 S
C128 N127 1.345 . S
C128 H133 0.930 . S
C129 N126 1.390 . S
C129 C130 1.346 1_455 S
C129 H134 0.930 . S
C130 N127 1.336 . S
C130 C129 1.346 1_655 S
C130 H137 0.929 . S
C131 O121 1.282 . S
C131 O132 1.216 . S
O132 C131 1.216 . S
H133 C128 0.930 . S
H134 C129 0.930 . S
O135 Cu115 1.959 . S
O135 C122 1.251 . S
H136 C119 0.930 . S
H137 C130 0.929 . S
Cu138 N139 1.999 . S
Cu138 O144 1.974 . S
Cu138 N149 1.985 . S
Cu138 O158 1.959 . S
N139 Cu138 1.999 . S
N139 C141 1.263 . S
N139 C143 1.389 . S
N140 C141 1.358 . S
N140 C142 1.400 . S
C141 N139 1.263 . S
C141 N140 1.358 . S
C141 H147 0.930 . S
C142 N140 1.400 . S
C142 C143 1.351 . S
C142 H159 0.930 . S
C143 N139 1.389 . S
C143 C142 1.351 . S
C143 H148 0.930 . S
O144 Cu138 1.974 . S
O144 C154 1.282 . S
C145 O146 1.261 . S
C145 O158 1.251 . S
O146 C145 1.261 . S
H147 C141 0.930 . S
H148 C143 0.930 . S
N149 Cu138 1.985 . S
N149 C151 1.335 . S
N149 C152 1.390 . S
N150 C151 1.345 . S
N150 C153 1.336 1_556 S
C151 N149 1.335 . S
C151 N150 1.345 . S
C151 H156 0.930 . S
C152 N149 1.390 . S
C152 C153 1.346 1_556 S
C152 H157 0.928 1_556 S
C153 N150 1.336 1_554 S
C153 C152 1.346 1_554 S
C153 H160 0.929 . S
C154 O144 1.282 . S
C154 O155 1.216 . S
O155 C154 1.216 . S
H156 C151 0.930 . S
H157 C152 0.928 1_554 S
O158 Cu138 1.959 . S
O158 C145 1.251 . S
H159 C142 0.930 . S
H160 C153 0.929 . S
Cu161 N162 1.999 . S
Cu161 O167 1.974 . S
Cu161 N172 1.985 . S
Cu161 O181 1.959 . S
N162 Cu161 1.999 . S
N162 C164 1.263 . S
N162 C166 1.389 . S
N163 C164 1.358 . S
N163 C165 1.400 . S
C164 N162 1.263 . S
C164 N163 1.358 . S
C164 H170 0.930 . S
C165 N163 1.400 . S
C165 C166 1.351 . S
C165 H182 0.930 . S
C166 N162 1.389 . S
C166 C165 1.351 . S
C166 H171 0.930 . S
O167 Cu161 1.974 . S
O167 C177 1.282 . S
C168 O169 1.261 . S
C168 O181 1.251 . S
O169 C168 1.261 . S
H170 C164 0.930 . S
H171 C166 0.930 . S
N172 Cu161 1.985 . S
N172 C174 1.335 1_565 S
N172 C175 1.390 . S
N173 C174 1.345 . S
N173 C176 1.336 . S
C174 N172 1.335 1_545 S
C174 N173 1.345 . S
C174 H179 0.930 . S
C175 N172 1.390 . S
C175 C176 1.346 1_565 S
C175 H180 0.930 . S
C176 N173 1.336 . S
C176 C175 1.346 1_545 S
C176 H183 0.929 . S
C177 O167 1.282 . S
C177 O178 1.216 . S
O178 C177 1.216 . S
H179 C174 0.930 . S
H180 C175 0.930 . S
O181 Cu161 1.959 . S
O181 C168 1.251 . S
H182 C165 0.930 . S
H183 C176 0.929 . S
Cu184 N185 1.999 . S
Cu184 O190 1.974 . S
Cu184 N195 1.985 . S
Cu184 O204 1.959 . S
N185 Cu184 1.999 . S
N185 C187 1.263 . S
N185 C189 1.389 . S
N186 C187 1.358 . S
N186 C188 1.400 . S
C187 N185 1.263 . S
C187 N186 1.358 . S
C187 H193 0.930 . S
C188 N186 1.400 . S
C188 C189 1.351 . S
C188 H205 0.930 . S
C189 N185 1.389 . S
C189 C188 1.351 . S
C189 H194 0.930 . S
O190 Cu184 1.974 . S
O190 C200 1.282 . S
C191 O192 1.261 . S
C191 O204 1.251 . S
O192 C191 1.261 . S
H193 C187 0.930 . S
H194 C189 0.930 . S
N195 Cu184 1.985 . S
N195 C197 1.335 1_455 S
N195 C198 1.390 . S
N196 C197 1.345 . S
N196 C199 1.336 . S
C197 N195 1.335 1_655 S
C197 N196 1.345 . S
C197 H202 0.930 . S
C198 N195 1.390 . S
C198 C199 1.346 1_455 S
C198 H203 0.930 . S
C199 N196 1.336 . S
C199 C198 1.346 1_655 S
C199 H206 0.929 1_556 S
C200 O190 1.282 . S
C200 O201 1.216 . S
O201 C200 1.216 . S
H202 C197 0.930 . S
H203 C198 0.930 . S
O204 Cu184 1.959 . S
O204 C191 1.251 . S
H205 C188 0.930 . S
H206 C199 0.929 1_554 S
Cu207 N208 1.999 . S
Cu207 O213 1.974 . S
Cu207 N218 1.985 . S
Cu207 O227 1.959 . S
N208 Cu207 1.999 . S
N208 C210 1.263 . S
N208 C212 1.389 . S
N209 C210 1.358 . S
N209 C211 1.400 . S
C210 N208 1.263 . S
C210 N209 1.358 . S
C210 H216 0.930 . S
C211 N209 1.400 . S
C211 C212 1.351 . S
C211 H228 0.930 . S
C212 N208 1.389 . S
C212 C211 1.351 . S
C212 H217 0.930 . S
O213 Cu207 1.974 . S
O213 C223 1.282 . S
C214 O215 1.261 . S
C214 O227 1.251 . S
O215 C214 1.261 . S
H216 C210 0.930 . S
H217 C212 0.930 . S
N218 Cu207 1.985 . S
N218 C220 1.335 . S
N218 C221 1.390 . S
N219 C220 1.345 . S
N219 C222 1.336 . S
C220 N218 1.335 . S
C220 N219 1.345 . S
C220 H225 0.930 . S
C221 N218 1.390 . S
C221 C222 1.346 . S
C221 H226 0.930 . S
C222 N219 1.336 . S
C222 C221 1.346 . S
C222 H229 0.929 . S
C223 O213 1.282 . S
C223 O224 1.216 . S
O224 C223 1.216 . S
H225 C220 0.930 . S
H226 C221 0.930 . S
O227 Cu207 1.959 . S
O227 C214 1.251 . S
H228 C211 0.930 . S
H229 C222 0.929 . S
Cu230 N231 1.999 . S
Cu230 O236 1.974 . S
Cu230 N241 1.985 . S
Cu230 O250 1.959 . S
N231 Cu230 1.999 . S
N231 C233 1.263 . S
N231 C235 1.389 . S
N232 C233 1.358 . S
N232 C234 1.400 . S
C233 N231 1.263 . S
C233 N232 1.358 . S
C233 H239 0.930 . S
C234 N232 1.400 . S
C234 C235 1.351 . S
C234 H251 0.930 . S
C235 N231 1.389 . S
C235 C234 1.351 . S
C235 H240 0.930 . S
O236 Cu230 1.974 . S
O236 C246 1.282 . S
C237 O238 1.261 . S
C237 O250 1.251 . S
O238 C237 1.261 . S
H239 C233 0.930 . S
H240 C235 0.930 . S
N241 Cu230 1.985 . S
N241 C243 1.335 1_545 S
N241 C244 1.390 . S
N242 C243 1.345 . S
N242 C245 1.336 . S
C243 N241 1.335 1_565 S
C243 N242 1.345 . S
C243 H248 0.930 . S
C244 N241 1.390 . S
C244 C245 1.346 1_545 S
C244 H249 0.930 . S
C245 N242 1.336 . S
C245 C244 1.346 1_565 S
C245 H252 0.929 . S
C246 O236 1.282 . S
C246 O247 1.216 . S
O247 C246 1.216 . S
H248 C243 0.930 . S
H249 C244 0.930 . S
O250 Cu230 1.959 . S
O250 C237 1.251 . S
H251 C234 0.930 . S
H252 C245 0.929 . S
Cu253 N254 1.999 . S
Cu253 O259 1.974 . S
Cu253 N264 1.985 . S
Cu253 O273 1.959 . S
N254 Cu253 1.999 . S
N254 C256 1.263 . S
N254 C258 1.389 . S
N255 C256 1.358 . S
N255 C257 1.400 . S
C256 N254 1.263 . S
C256 N255 1.358 . S
C256 H262 0.930 . S
C257 N255 1.400 . S
C257 C258 1.351 . S
C257 H274 0.930 . S
C258 N254 1.389 . S
C258 C257 1.351 . S
C258 H263 0.930 . S
O259 Cu253 1.974 . S
O259 C269 1.282 . S
C260 O261 1.261 . S
C260 O273 1.251 . S
O261 C260 1.261 . S
H262 C256 0.930 . S
H263 C258 0.930 . S
N264 Cu253 1.985 . S
N264 C266 1.335 1_655 S
N264 C267 1.390 . S
N265 C266 1.345 . S
N265 C268 1.336 . S
C266 N264 1.335 1_455 S
C266 N265 1.345 . S
C266 H271 0.930 . S
C267 N264 1.390 . S
C267 C268 1.346 1_655 S
C267 H272 0.930 . S
C268 N265 1.336 . S
C268 C267 1.346 1_455 S
C268 H275 0.929 . S
C269 O259 1.282 . S
C269 O270 1.216 . S
O270 C269 1.216 . S
H271 C266 0.930 . S
H272 C267 0.930 . S
O273 Cu253 1.959 . S
O273 C260 1.251 . S
H274 C257 0.930 . S
H275 C268 0.929 . S
Cu276 N277 1.999 . S
Cu276 O282 1.974 . S
Cu276 N287 1.985 . S
Cu276 O296 1.959 . S
N277 Cu276 1.999 . S
N277 C279 1.263 . S
N277 C281 1.389 . S
N278 C279 1.358 . S
N278 C280 1.400 . S
C279 N277 1.263 . S
C279 N278 1.358 . S
C279 H285 0.930 . S
C280 N278 1.400 . S
C280 C281 1.351 . S
C280 H297 0.930 . S
C281 N277 1.389 . S
C281 C280 1.351 . S
C281 H286 0.930 . S
O282 Cu276 1.974 . S
O282 C292 1.282 . S
C283 O284 1.261 . S
C283 O296 1.251 . S
O284 C283 1.261 . S
H285 C279 0.930 . S
H286 C281 0.930 . S
N287 Cu276 1.985 . S
N287 C289 1.335 . S
N287 C290 1.390 . S
N288 C289 1.345 . S
N288 C291 1.336 . S
C289 N287 1.335 . S
C289 N288 1.345 . S
C289 H294 0.930 . S
C290 N287 1.390 . S
C290 C291 1.346 . S
C290 H295 0.930 . S
C291 N288 1.336 . S
C291 C290 1.346 . S
C291 H298 0.929 . S
C292 O282 1.282 . S
C292 O293 1.216 . S
O293 C292 1.216 . S
H294 C289 0.930 . S
H295 C290 0.930 . S
O296 Cu276 1.959 . S
O296 C283 1.251 . S
H297 C280 0.930 . S
H298 C291 0.929 . S
Cu299 N300 1.999 . S
Cu299 O305 1.974 . S
Cu299 N310 1.985 . S
Cu299 O319 1.959 . S
N300 Cu299 1.999 . S
N300 C302 1.263 . S
N300 C304 1.389 . S
N301 C302 1.358 . S
N301 C303 1.400 . S
C302 N300 1.263 . S
C302 N301 1.358 . S
C302 H308 0.930 . S
C303 N301 1.400 . S
C303 C304 1.351 . S
C303 H320 0.930 . S
C304 N300 1.389 . S
C304 C303 1.351 . S
C304 H309 0.930 . S
O305 Cu299 1.974 . S
O305 C315 1.282 . S
C306 O307 1.261 . S
C306 O319 1.251 . S
O307 C306 1.261 . S
H308 C302 0.930 . S
H309 C304 0.930 . S
N310 Cu299 1.985 . S
N310 C312 1.335 . S
N310 C313 1.390 . S
N311 C312 1.345 . S
N311 C314 1.336 . S
C312 N310 1.335 . S
C312 N311 1.345 . S
C312 H317 0.930 . S
C313 N310 1.390 . S
C313 C314 1.346 . S
C313 H318 0.930 . S
C314 N311 1.336 . S
C314 C313 1.346 . S
C314 H321 0.929 . S
C315 O305 1.282 . S
C315 O316 1.216 . S
O316 C315 1.216 . S
H317 C312 0.930 . S
H318 C313 0.930 . S
O319 Cu299 1.959 . S
O319 C306 1.251 . S
H320 C303 0.930 . S
H321 C314 0.929 . S
Cu322 N323 1.999 . S
Cu322 O328 1.974 . S
Cu322 N333 1.985 . S
Cu322 O342 1.959 . S
N323 Cu322 1.999 . S
N323 C325 1.263 . S
N323 C327 1.389 . S
N324 C325 1.358 . S
N324 C326 1.400 . S
C325 N323 1.263 . S
C325 N324 1.358 . S
C325 H331 0.930 . S
C326 N324 1.400 . S
C326 C327 1.351 . S
C326 H343 0.930 . S
C327 N323 1.389 . S
C327 C326 1.351 . S
C327 H332 0.930 . S
O328 Cu322 1.974 . S
O328 C338 1.282 . S
C329 O330 1.261 . S
C329 O342 1.251 . S
O330 C329 1.261 . S
H331 C325 0.930 . S
H332 C327 0.930 . S
N333 Cu322 1.985 . S
N333 C335 1.335 . S
N333 C336 1.390 . S
N334 C335 1.345 . S
N334 C337 1.336 . S
C335 N333 1.335 . S
C335 N334 1.345 . S
C335 H340 0.930 . S
C336 N333 1.390 . S
C336 C337 1.346 . S
C336 H341 0.930 . S
C337 N334 1.336 . S
C337 C336 1.346 . S
C337 H344 0.929 . S
C338 O328 1.282 . S
C338 O339 1.216 . S
O339 C338 1.216 . S
H340 C335 0.930 . S
H341 C336 0.930 . S
O342 Cu322 1.959 . S
O342 C329 1.251 . S
H343 C326 0.930 . S
H344 C337 0.929 . S
Cu345 N346 1.999 . S
Cu345 O351 1.974 . S
Cu345 N356 1.985 . S
Cu345 O365 1.959 . S
N346 Cu345 1.999 . S
N346 C348 1.263 . S
N346 C350 1.389 . S
N347 C348 1.358 . S
N347 C349 1.400 . S
C348 N346 1.263 . S
C348 N347 1.358 . S
C348 H354 0.930 . S
C349 N347 1.400 . S
C349 C350 1.351 . S
C349 H366 0.930 . S
C350 N346 1.389 . S
C350 C349 1.351 . S
C350 H355 0.930 . S
O351 Cu345 1.974 . S
O351 C361 1.282 . S
C352 O353 1.261 . S
C352 O365 1.251 . S
O353 C352 1.261 . S
H354 C348 0.930 . S
H355 C350 0.930 . S
N356 Cu345 1.985 . S
N356 C358 1.335 . S
N356 C359 1.390 . S
N357 C358 1.345 . S
N357 C360 1.336 . S
C358 N356 1.335 . S
C358 N357 1.345 . S
C358 H363 0.930 . S
C359 N356 1.390 . S
C359 C360 1.346 . S
C359 H364 0.930 . S
C360 N357 1.336 . S
C360 C359 1.346 . S
C360 H367 0.929 . S
C361 O351 1.282 . S
C361 O362 1.216 . S
O362 C361 1.216 . S
H363 C358 0.930 . S
H364 C359 0.930 . S
O365 Cu345 1.959 . S
O365 C352 1.251 . S
H366 C349 0.930 . S
H367 C360 0.929 . S
Cu368 N369 1.999 . S
Cu368 O374 1.974 . S
Cu368 N379 1.985 . S
Cu368 O388 1.959 . S
N369 Cu368 1.999 . S
N369 C371 1.263 . S
N369 C373 1.389 . S
N370 C371 1.358 . S
N370 C372 1.400 . S
C371 N369 1.263 . S
C371 N370 1.358 . S
C371 H377 0.930 . S
C372 N370 1.400 . S
C372 C373 1.351 . S
C372 H389 0.930 . S
C373 N369 1.389 . S
C373 C372 1.351 . S
C373 H378 0.930 . S
O374 Cu368 1.974 . S
O374 C384 1.282 . S
C375 O376 1.261 . S
C375 O388 1.251 . S
O376 C375 1.261 . S
H377 C371 0.930 . S
H378 C373 0.930 . S
N379 Cu368 1.985 . S
N379 C381 1.335 . S
N379 C382 1.390 . S
N380 C381 1.345 . S
N380 C383 1.336 . S
C381 N379 1.335 . S
C381 N380 1.345 . S
C381 H386 0.930 . S
C382 N379 1.390 . S
C382 C383 1.346 . S
C382 H387 0.930 . S
C383 N380 1.336 . S
C383 C382 1.346 . S
C383 H390 0.929 . S
C384 O374 1.282 . S
C384 O385 1.216 . S
O385 C384 1.216 . S
H386 C381 0.930 . S
H387 C382 0.930 . S
O388 Cu368 1.959 . S
O388 C375 1.251 . S
H389 C372 0.930 . S
H390 C383 0.929 . S
Cu391 N392 1.999 . S
Cu391 O397 1.974 . S
Cu391 N402 1.985 . S
Cu391 O411 1.959 . S
N392 Cu391 1.999 . S
N392 C394 1.263 . S
N392 C396 1.389 . S
N393 C394 1.358 . S
N393 C395 1.400 . S
C394 N392 1.263 . S
C394 N393 1.358 . S
C394 H400 0.930 . S
C395 N393 1.400 . S
C395 C396 1.351 . S
C395 H412 0.930 . S
C396 N392 1.389 . S
C396 C395 1.351 . S
C396 H401 0.930 . S
O397 Cu391 1.974 . S
O397 C407 1.282 . S
C398 O399 1.261 . S
C398 O411 1.251 . S
O399 C398 1.261 . S
H400 C394 0.930 . S
H401 C396 0.930 . S
N402 Cu391 1.985 . S
N402 C404 1.335 . S
N402 C405 1.390 . S
N403 C404 1.345 . S
N403 C406 1.336 . S
C404 N402 1.335 . S
C404 N403 1.345 . S
C404 H409 0.930 . S
C405 N402 1.390 . S
C405 C406 1.346 . S
C405 H410 0.930 . S
C406 N403 1.336 . S
C406 C405 1.346 . S
C406 H413 0.929 . S
C407 O397 1.282 . S
C407 O408 1.216 . S
O408 C407 1.216 . S
H409 C404 0.930 . S
H410 C405 0.930 . S
O411 Cu391 1.959 . S
O411 C398 1.251 . S
H412 C395 0.930 . S
H413 C406 0.929 . S
Cu414 N415 1.999 . S
Cu414 O420 1.974 . S
Cu414 N425 1.985 . S
Cu414 O434 1.959 . S
N415 Cu414 1.999 . S
N415 C417 1.263 . S
N415 C419 1.389 . S
N416 C417 1.358 . S
N416 C418 1.400 . S
C417 N415 1.263 . S
C417 N416 1.358 . S
C417 H423 0.930 . S
C418 N416 1.400 . S
C418 C419 1.351 . S
C418 H435 0.930 . S
C419 N415 1.389 . S
C419 C418 1.351 . S
C419 H424 0.930 . S
O420 Cu414 1.974 . S
O420 C430 1.282 . S
C421 O422 1.261 . S
C421 O434 1.251 . S
O422 C421 1.261 . S
H423 C417 0.930 . S
H424 C419 0.930 . S
N425 Cu414 1.985 . S
N425 C427 1.335 . S
N425 C428 1.390 . S
N426 C427 1.345 . S
N426 C429 1.336 . S
C427 N425 1.335 . S
C427 N426 1.345 . S
C427 H432 0.930 . S
C428 N425 1.390 . S
C428 C429 1.346 . S
C428 H433 0.930 . S
C429 N426 1.336 . S
C429 C428 1.346 . S
C429 H436 0.929 . S
C430 O420 1.282 . S
C430 O431 1.216 . S
O431 C430 1.216 . S
H432 C427 0.930 . S
H433 C428 0.930 . S
O434 Cu414 1.959 . S
O434 C421 1.251 . S
H435 C418 0.930 . S
H436 C429 0.929 . S
Cu437 N438 1.999 . S
Cu437 O443 1.974 . S
Cu437 N448 1.985 . S
Cu437 O457 1.959 . S
N438 Cu437 1.999 . S
N438 C440 1.263 . S
N438 C442 1.389 . S
N439 C440 1.358 . S
N439 C441 1.400 . S
C440 N438 1.263 . S
C440 N439 1.358 . S
C440 H446 0.930 . S
C441 N439 1.400 . S
C441 C442 1.351 . S
C441 H458 0.930 . S
C442 N438 1.389 . S
C442 C441 1.351 . S
C442 H447 0.930 . S
O443 Cu437 1.974 . S
O443 C453 1.282 . S
C444 O445 1.261 . S
C444 O457 1.251 . S
O445 C444 1.261 . S
H446 C440 0.930 . S
H447 C442 0.930 . S
N448 Cu437 1.985 . S
N448 C450 1.335 . S
N448 C451 1.390 . S
N449 C450 1.345 . S
N449 C452 1.336 . S
C450 N448 1.335 . S
C450 N449 1.345 . S
C450 H455 0.930 . S
C451 N448 1.390 . S
C451 C452 1.346 . S
C451 H456 0.930 . S
C452 N449 1.336 . S
C452 C451 1.346 . S
C452 H459 0.929 . S
C453 O443 1.282 . S
C453 O454 1.216 . S
O454 C453 1.216 . S
H455 C450 0.930 . S
H456 C451 0.930 . S
O457 Cu437 1.959 . S
O457 C444 1.251 . S
H458 C441 0.930 . S
H459 C452 0.929 . S
Cu460 N461 1.999 . S
Cu460 O466 1.974 . S
Cu460 N471 1.985 . S
Cu460 O480 1.959 . S
N461 Cu460 1.999 . S
N461 C463 1.263 . S
N461 C465 1.389 . S
N462 C463 1.358 . S
N462 C464 1.400 . S
C463 N461 1.263 . S
C463 N462 1.358 . S
C463 H469 0.930 . S
C464 N462 1.400 . S
C464 C465 1.351 . S
C464 H481 0.930 . S
C465 N461 1.389 . S
C465 C464 1.351 . S
C465 H470 0.930 . S
O466 Cu460 1.974 . S
O466 C476 1.282 . S
C467 O468 1.261 . S
C467 O480 1.251 . S
O468 C467 1.261 . S
H469 C463 0.930 . S
H470 C465 0.930 . S
N471 Cu460 1.985 . S
N471 C473 1.335 . S
N471 C474 1.390 . S
N472 C473 1.345 . S
N472 C475 1.336 . S
C473 N471 1.335 . S
C473 N472 1.345 . S
C473 H478 0.930 . S
C474 N471 1.390 . S
C474 C475 1.346 . S
C474 H479 0.930 . S
C475 N472 1.336 . S
C475 C474 1.346 . S
C475 H482 0.929 . S
C476 O466 1.282 . S
C476 O477 1.216 . S
O477 C476 1.216 . S
H478 C473 0.930 . S
H479 C474 0.930 . S
O480 Cu460 1.959 . S
O480 C467 1.251 . S
H481 C464 0.930 . S
H482 C475 0.929 . S
Cu483 N484 1.999 . S
Cu483 O489 1.974 . S
Cu483 N494 1.985 . S
Cu483 O503 1.959 . S
N484 Cu483 1.999 . S
N484 C486 1.263 . S
N484 C488 1.389 . S
N485 C486 1.358 . S
N485 C487 1.400 1_556 S
C486 N484 1.263 . S
C486 N485 1.358 . S
C486 H492 0.930 . S
C487 N485 1.400 1_554 S
C487 C488 1.351 1_554 S
C487 H504 0.930 . S
C488 N484 1.389 . S
C488 C487 1.351 1_556 S
C488 H493 0.930 . S
O489 Cu483 1.974 . S
O489 C499 1.282 . S
C490 O491 1.261 . S
C490 O503 1.251 . S
O491 C490 1.261 . S
H492 C486 0.930 . S
H493 C488 0.930 . S
N494 Cu483 1.985 . S
N494 C496 1.335 . S
N494 C497 1.390 . S
N495 C496 1.345 . S
N495 C498 1.336 . S
C496 N494 1.335 . S
C496 N495 1.345 . S
C496 H501 0.930 . S
C497 N494 1.390 . S
C497 C498 1.346 . S
C497 H502 0.930 . S
C498 N495 1.336 . S
C498 C497 1.346 . S
C498 H505 0.929 . S
C499 O489 1.282 . S
C499 O500 1.216 . S
O500 C499 1.216 . S
H501 C496 0.930 . S
H502 C497 0.930 . S
O503 Cu483 1.959 . S
O503 C490 1.251 . S
H504 C487 0.930 . S
H505 C498 0.929 . S
Cu506 N507 1.999 . S
Cu506 O512 1.974 . S
Cu506 N517 1.985 . S
Cu506 O526 1.959 . S
N507 Cu506 1.999 . S
N507 C509 1.263 . S
N507 C511 1.389 1_556 S
N508 C509 1.358 . S
N508 C510 1.400 1_556 S
C509 N507 1.263 . S
C509 N508 1.358 . S
C509 H515 0.930 . S
C510 N508 1.400 1_554 S
C510 C511 1.351 . S
C510 H527 0.930 . S
C511 N507 1.389 1_554 S
C511 C510 1.351 . S
C511 H516 0.930 . S
O512 Cu506 1.974 . S
O512 C522 1.282 . S
C513 O514 1.261 . S
C513 O526 1.251 . S
O514 C513 1.261 . S
H515 C509 0.930 . S
H516 C511 0.930 . S
N517 Cu506 1.985 . S
N517 C519 1.335 . S
N517 C520 1.390 . S
N518 C519 1.345 . S
N518 C521 1.336 . S
C519 N517 1.335 . S
C519 N518 1.345 . S
C519 H524 0.930 . S
C520 N517 1.390 . S
C520 C521 1.346 . S
C520 H525 0.930 . S
C521 N518 1.336 . S
C521 C520 1.346 . S
C521 H528 0.929 . S
C522 O512 1.282 . S
C522 O523 1.216 . S
O523 C522 1.216 . S
H524 C519 0.930 . S
H525 C520 0.930 . S
O526 Cu506 1.959 . S
O526 C513 1.251 . S
H527 C510 0.930 . S
H528 C521 0.929 . S
Cu529 N530 1.999 . S
Cu529 O535 1.974 . S
Cu529 N540 1.985 . S
Cu529 O549 1.959 . S
N530 Cu529 1.999 . S
N530 C532 1.263 . S
N530 C534 1.389 . S
N531 C532 1.358 . S
N531 C533 1.400 . S
C532 N530 1.263 . S
C532 N531 1.358 . S
C532 H538 0.930 . S
C533 N531 1.400 . S
C533 C534 1.351 . S
C533 H550 0.930 1_556 S
C534 N530 1.389 . S
C534 C533 1.351 . S
C534 H539 0.930 . S
O535 Cu529 1.974 . S
O535 C545 1.282 . S
C536 O537 1.261 . S
C536 O549 1.251 . S
O537 C536 1.261 . S
H538 C532 0.930 . S
H539 C534 0.930 . S
N540 Cu529 1.985 . S
N540 C542 1.335 . S
N540 C543 1.390 . S
N541 C542 1.345 . S
N541 C544 1.336 . S
C542 N540 1.335 . S
C542 N541 1.345 . S
C542 H547 0.930 . S
C543 N540 1.390 . S
C543 C544 1.346 . S
C543 H548 0.930 . S
C544 N541 1.336 . S
C544 C543 1.346 . S
C544 H551 0.929 . S
C545 O535 1.282 . S
C545 O546 1.216 . S
O546 C545 1.216 . S
H547 C542 0.930 . S
H548 C543 0.930 . S
O549 Cu529 1.959 . S
O549 C536 1.251 . S
H550 C533 0.930 1_554 S
H551 C544 0.929 . S
Cu552 N553 1.999 . S
Cu552 O558 1.974 . S
Cu552 N563 1.985 . S
Cu552 O572 1.959 . S
N553 Cu552 1.999 . S
N553 C555 1.263 . S
N553 C557 1.389 . S
N554 C555 1.358 . S
N554 C556 1.400 . S
C555 N553 1.263 . S
C555 N554 1.358 . S
C555 H561 0.930 . S
C556 N554 1.400 . S
C556 C557 1.351 . S
C556 H573 0.930 . S
C557 N553 1.389 . S
C557 C556 1.351 . S
C557 H562 0.930 . S
O558 Cu552 1.974 . S
O558 C568 1.282 . S
C559 O560 1.261 . S
C559 O572 1.251 . S
O560 C559 1.261 . S
H561 C555 0.930 . S
H562 C557 0.930 . S
N563 Cu552 1.985 . S
N563 C565 1.335 . S
N563 C566 1.390 . S
N564 C565 1.345 . S
N564 C567 1.336 . S
C565 N563 1.335 . S
C565 N564 1.345 . S
C565 H570 0.930 . S
C566 N563 1.390 . S
C566 C567 1.346 . S
C566 H571 0.930 . S
C567 N564 1.336 . S
C567 C566 1.346 . S
C567 H574 0.929 . S
C568 O558 1.282 . S
C568 O569 1.216 . S
O569 C568 1.216 . S
H570 C565 0.930 . S
H571 C566 0.930 . S
O572 Cu552 1.959 . S
O572 C559 1.251 . S
H573 C556 0.930 . S
H574 C567 0.929 . S
Cu575 N576 1.999 . S
Cu575 O581 1.974 . S
Cu575 N586 1.985 . S
Cu575 O595 1.959 . S
N576 Cu575 1.999 . S
N576 C578 1.263 . S
N576 C580 1.389 . S
N577 C578 1.358 . S
N577 C579 1.400 . S
C578 N576 1.263 . S
C578 N577 1.358 . S
C578 H584 0.930 . S
C579 N577 1.400 . S
C579 C580 1.351 . S
C579 H596 0.930 . S
C580 N576 1.389 . S
C580 C579 1.351 . S
C580 H585 0.930 . S
O581 Cu575 1.974 . S
O581 C591 1.282 . S
C582 O583 1.261 . S
C582 O595 1.251 . S
O583 C582 1.261 . S
H584 C578 0.930 . S
H585 C580 0.930 . S
N586 Cu575 1.985 . S
N586 C588 1.335 . S
N586 C589 1.390 . S
N587 C588 1.345 . S
N587 C590 1.336 . S
C588 N586 1.335 . S
C588 N587 1.345 . S
C588 H593 0.930 . S
C589 N586 1.390 . S
C589 C590 1.346 . S
C589 H594 0.930 . S
C590 N587 1.336 . S
C590 C589 1.346 . S
C590 H597 0.929 . S
C591 O581 1.282 . S
C591 O592 1.216 . S
O592 C591 1.216 . S
H593 C588 0.930 . S
H594 C589 0.930 . S
O595 Cu575 1.959 . S
O595 C582 1.251 . S
H596 C579 0.930 . S
H597 C590 0.929 . S
Cu598 N599 1.999 . S
Cu598 O604 1.974 . S
Cu598 N609 1.985 . S
Cu598 O618 1.959 . S
N599 Cu598 1.999 . S
N599 C601 1.263 . S
N599 C603 1.389 . S
N600 C601 1.358 . S
N600 C602 1.400 . S
C601 N599 1.263 . S
C601 N600 1.358 . S
C601 H607 0.930 . S
C602 N600 1.400 . S
C602 C603 1.351 . S
C602 H619 0.930 . S
C603 N599 1.389 . S
C603 C602 1.351 . S
C603 H608 0.930 . S
O604 Cu598 1.974 . S
O604 C614 1.282 . S
C605 O606 1.261 . S
C605 O618 1.251 . S
O606 C605 1.261 . S
H607 C601 0.930 . S
H608 C603 0.930 . S
N609 Cu598 1.985 . S
N609 C611 1.335 . S
N609 C612 1.390 . S
N610 C611 1.345 . S
N610 C613 1.336 . S
C611 N609 1.335 . S
C611 N610 1.345 . S
C611 H616 0.930 . S
C612 N609 1.390 . S
C612 C613 1.346 . S
C612 H617 0.930 . S
C613 N610 1.336 . S
C613 C612 1.346 . S
C613 H620 0.929 . S
C614 O604 1.282 . S
C614 O615 1.216 . S
O615 C614 1.216 . S
H616 C611 0.930 . S
H617 C612 0.930 . S
O618 Cu598 1.959 . S
O618 C605 1.251 . S
H619 C602 0.930 . S
H620 C613 0.929 . S
Cu621 N622 1.999 . S
Cu621 O627 1.974 . S
Cu621 N632 1.985 . S
Cu621 O641 1.959 . S
N622 Cu621 1.999 . S
N622 C624 1.263 . S
N622 C626 1.389 . S
N623 C624 1.358 . S
N623 C625 1.400 . S
C624 N622 1.263 . S
C624 N623 1.358 . S
C624 H630 0.930 . S
C625 N623 1.400 . S
C625 C626 1.351 . S
C625 H642 0.930 1_554 S
C626 N622 1.389 . S
C626 C625 1.351 . S
C626 H631 0.930 . S
O627 Cu621 1.974 . S
O627 C637 1.282 . S
C628 O629 1.261 . S
C628 O641 1.251 . S
O629 C628 1.261 . S
H630 C624 0.930 . S
H631 C626 0.930 . S
N632 Cu621 1.985 . S
N632 C634 1.335 . S
N632 C635 1.390 . S
N633 C634 1.345 . S
N633 C636 1.336 . S
C634 N632 1.335 . S
C634 N633 1.345 . S
C634 H639 0.930 . S
C635 N632 1.390 . S
C635 C636 1.346 . S
C635 H640 0.930 . S
C636 N633 1.336 . S
C636 C635 1.346 . S
C636 H643 0.929 . S
C637 O627 1.282 . S
C637 O638 1.216 . S
O638 C637 1.216 . S
H639 C634 0.930 . S
H640 C635 0.930 . S
O641 Cu621 1.959 . S
O641 C628 1.251 . S
H642 C625 0.930 1_556 S
H643 C636 0.929 . S
Cu644 N645 1.999 . S
Cu644 O650 1.974 . S
Cu644 N655 1.985 . S
Cu644 O664 1.959 . S
N645 Cu644 1.999 . S
N645 C647 1.263 . S
N645 C649 1.389 . S
N646 C647 1.358 . S
N646 C648 1.400 . S
C647 N645 1.263 . S
C647 N646 1.358 . S
C647 H653 0.930 . S
C648 N646 1.400 . S
C648 C649 1.351 . S
C648 H665 0.930 . S
C649 N645 1.389 . S
C649 C648 1.351 . S
C649 H654 0.930 . S
O650 Cu644 1.974 . S
O650 C660 1.282 . S
C651 O652 1.261 . S
C651 O664 1.251 . S
O652 C651 1.261 . S
H653 C647 0.930 . S
H654 C649 0.930 . S
N655 Cu644 1.985 . S
N655 C657 1.335 . S
N655 C658 1.390 . S
N656 C657 1.345 . S
N656 C659 1.336 . S
C657 N655 1.335 . S
C657 N656 1.345 . S
C657 H662 0.930 . S
C658 N655 1.390 . S
C658 C659 1.346 . S
C658 H663 0.930 . S
C659 N656 1.336 . S
C659 C658 1.346 . S
C659 H666 0.929 . S
C660 O650 1.282 . S
C660 O661 1.216 . S
O661 C660 1.216 . S
H662 C657 0.930 . S
H663 C658 0.930 . S
O664 Cu644 1.959 . S
O664 C651 1.251 . S
H665 C648 0.930 . S
H666 C659 0.929 . S
Cu667 N668 1.999 . S
Cu667 O673 1.974 . S
Cu667 N678 1.985 . S
Cu667 O687 1.959 . S
N668 Cu667 1.999 . S
N668 C670 1.263 . S
N668 C672 1.389 . S
N669 C670 1.358 . S
N669 C671 1.400 . S
C670 N668 1.263 . S
C670 N669 1.358 . S
C670 H676 0.930 . S
C671 N669 1.400 . S
C671 C672 1.351 . S
C671 H688 0.930 1_554 S
C672 N668 1.389 . S
C672 C671 1.351 . S
C672 H677 0.930 . S
O673 Cu667 1.974 . S
O673 C683 1.282 . S
C674 O675 1.261 . S
C674 O687 1.251 . S
O675 C674 1.261 . S
H676 C670 0.930 . S
H677 C672 0.930 . S
N678 Cu667 1.985 . S
N678 C680 1.335 . S
N678 C681 1.390 . S
N679 C680 1.345 . S
N679 C682 1.336 . S
C680 N678 1.335 . S
C680 N679 1.345 . S
C680 H685 0.930 . S
C681 N678 1.390 . S
C681 C682 1.346 . S
C681 H686 0.930 . S
C682 N679 1.336 . S
C682 C681 1.346 . S
C682 H689 0.929 . S
C683 O673 1.282 . S
C683 O684 1.216 . S
O684 C683 1.216 . S
H685 C680 0.930 . S
H686 C681 0.930 . S
O687 Cu667 1.959 . S
O687 C674 1.251 . S
H688 C671 0.930 1_556 S
H689 C682 0.929 . S
Cu690 N691 1.999 . S
Cu690 O696 1.974 . S
Cu690 N701 1.985 . S
Cu690 O710 1.959 . S
N691 Cu690 1.999 . S
N691 C693 1.263 . S
N691 C695 1.389 . S
N692 C693 1.358 . S
N692 C694 1.400 . S
C693 N691 1.263 . S
C693 N692 1.358 . S
C693 H699 0.930 . S
C694 N692 1.400 . S
C694 C695 1.351 . S
C694 H711 0.930 . S
C695 N691 1.389 . S
C695 C694 1.351 . S
C695 H700 0.930 . S
O696 Cu690 1.974 . S
O696 C706 1.282 . S
C697 O698 1.261 . S
C697 O710 1.251 . S
O698 C697 1.261 . S
H699 C693 0.930 . S
H700 C695 0.930 . S
N701 Cu690 1.985 . S
N701 C703 1.335 . S
N701 C704 1.390 . S
N702 C703 1.345 . S
N702 C705 1.336 . S
C703 N701 1.335 . S
C703 N702 1.345 . S
C703 H708 0.930 . S
C704 N701 1.390 . S
C704 C705 1.346 . S
C704 H709 0.930 . S
C705 N702 1.336 . S
C705 C704 1.346 . S
C705 H712 0.929 . S
C706 O696 1.282 . S
C706 O707 1.216 . S
O707 C706 1.216 . S
H708 C703 0.930 . S
H709 C704 0.930 . S
O710 Cu690 1.959 . S
O710 C697 1.251 . S
H711 C694 0.930 . S
H712 C705 0.929 . S
Cu713 N714 1.999 . S
Cu713 O719 1.974 . S
Cu713 N724 1.985 . S
Cu713 O733 1.959 . S
N714 Cu713 1.999 . S
N714 C716 1.263 . S
N714 C718 1.389 . S
N715 C716 1.358 . S
N715 C717 1.400 . S
C716 N714 1.263 . S
C716 N715 1.358 . S
C716 H722 0.930 . S
C717 N715 1.400 . S
C717 C718 1.351 . S
C717 H734 0.930 . S
C718 N714 1.389 . S
C718 C717 1.351 . S
C718 H723 0.930 . S
O719 Cu713 1.974 . S
O719 C729 1.282 . S
C720 O721 1.261 . S
C720 O733 1.251 . S
O721 C720 1.261 . S
H722 C716 0.930 . S
H723 C718 0.930 . S
N724 Cu713 1.985 . S
N724 C726 1.335 . S
N724 C727 1.390 . S
N725 C726 1.345 . S
N725 C728 1.336 . S
C726 N724 1.335 . S
C726 N725 1.345 . S
C726 H731 0.930 . S
C727 N724 1.390 . S
C727 C728 1.346 . S
C727 H732 0.930 . S
C728 N725 1.336 . S
C728 C727 1.346 . S
C728 H735 0.929 . S
C729 O719 1.282 . S
C729 O730 1.216 . S
O730 C729 1.216 . S
H731 C726 0.930 . S
H732 C727 0.930 . S
O733 Cu713 1.959 . S
O733 C720 1.251 . S
H734 C717 0.930 . S
H735 C728 0.929 . S
Cu736 N737 1.999 . S
Cu736 O742 1.974 . S
Cu736 N747 1.985 . S
Cu736 O756 1.959 . S
N737 Cu736 1.999 . S
N737 C739 1.263 . S
N737 C741 1.389 . S
N738 C739 1.358 . S
N738 C740 1.400 . S
C739 N737 1.263 . S
C739 N738 1.358 . S
C739 H745 0.930 . S
C740 N738 1.400 . S
C740 C741 1.351 . S
C740 H757 0.930 . S
C741 N737 1.389 . S
C741 C740 1.351 . S
C741 H746 0.930 . S
O742 Cu736 1.974 . S
O742 C752 1.282 . S
C743 O744 1.261 . S
C743 O756 1.251 . S
O744 C743 1.261 . S
H745 C739 0.930 . S
H746 C741 0.930 . S
N747 Cu736 1.985 . S
N747 C749 1.335 . S
N747 C750 1.390 . S
N748 C749 1.345 . S
N748 C751 1.336 . S
C749 N747 1.335 . S
C749 N748 1.345 . S
C749 H754 0.930 . S
C750 N747 1.390 . S
C750 C751 1.346 . S
C750 H755 0.930 . S
C751 N748 1.336 . S
C751 C750 1.346 . S
C751 H758 0.929 . S
C752 O742 1.282 . S
C752 O753 1.216 . S
O753 C752 1.216 . S
H754 C749 0.930 . S
H755 C750 0.930 . S
O756 Cu736 1.959 . S
O756 C743 1.251 . S
H757 C740 0.930 . S
H758 C751 0.929 . S
Cu759 N760 1.999 . S
Cu759 O765 1.974 . S
Cu759 N770 1.985 . S
Cu759 O779 1.959 . S
N760 Cu759 1.999 . S
N760 C762 1.263 . S
N760 C764 1.389 . S
N761 C762 1.358 . S
N761 C763 1.400 . S
C762 N760 1.263 . S
C762 N761 1.358 . S
C762 H768 0.930 . S
C763 N761 1.400 . S
C763 C764 1.351 . S
C763 H780 0.930 . S
C764 N760 1.389 . S
C764 C763 1.351 . S
C764 H769 0.930 . S
O765 Cu759 1.974 . S
O765 C775 1.282 . S
C766 O767 1.261 . S
C766 O779 1.251 . S
O767 C766 1.261 . S
H768 C762 0.930 . S
H769 C764 0.930 . S
N770 Cu759 1.985 . S
N770 C772 1.335 . S
N770 C773 1.390 . S
N771 C772 1.345 . S
N771 C774 1.336 . S
C772 N770 1.335 . S
C772 N771 1.345 . S
C772 H777 0.930 . S
C773 N770 1.390 . S
C773 C774 1.346 . S
C773 H778 0.930 . S
C774 N771 1.336 . S
C774 C773 1.346 . S
C774 H781 0.929 . S
C775 O765 1.282 . S
C775 O776 1.216 . S
O776 C775 1.216 . S
H777 C772 0.930 . S
H778 C773 0.930 . S
O779 Cu759 1.959 . S
O779 C766 1.251 . S
H780 C763 0.930 . S
H781 C774 0.929 . S
Cu782 N783 1.999 . S
Cu782 O788 1.974 . S
Cu782 N793 1.985 . S
Cu782 O802 1.959 . S
N783 Cu782 1.999 . S
N783 C785 1.263 . S
N783 C787 1.389 . S
N784 C785 1.358 . S
N784 C786 1.400 . S
C785 N783 1.263 . S
C785 N784 1.358 . S
C785 H791 0.930 . S
C786 N784 1.400 . S
C786 C787 1.351 . S
C786 H803 0.930 . S
C787 N783 1.389 . S
C787 C786 1.351 . S
C787 H792 0.930 . S
O788 Cu782 1.974 . S
O788 C798 1.282 . S
C789 O790 1.261 . S
C789 O802 1.251 . S
O790 C789 1.261 . S
H791 C785 0.930 . S
H792 C787 0.930 . S
N793 Cu782 1.985 . S
N793 C795 1.335 . S
N793 C796 1.390 . S
N794 C795 1.345 . S
N794 C797 1.336 . S
C795 N793 1.335 . S
C795 N794 1.345 . S
C795 H800 0.930 . S
C796 N793 1.390 . S
C796 C797 1.346 . S
C796 H801 0.930 . S
C797 N794 1.336 . S
C797 C796 1.346 . S
C797 H804 0.929 . S
C798 O788 1.282 . S
C798 O799 1.216 . S
O799 C798 1.216 . S
H800 C795 0.930 . S
H801 C796 0.930 . S
O802 Cu782 1.959 . S
O802 C789 1.251 . S
H803 C786 0.930 . S
H804 C797 0.929 . S
Cu805 N806 1.999 . S
Cu805 O811 1.974 . S
Cu805 N816 1.985 . S
Cu805 O825 1.959 . S
N806 Cu805 1.999 . S
N806 C808 1.263 . S
N806 C810 1.389 . S
N807 C808 1.358 . S
N807 C809 1.400 . S
C808 N806 1.263 . S
C808 N807 1.358 . S
C808 H814 0.930 . S
C809 N807 1.400 . S
C809 C810 1.351 . S
C809 H826 0.930 . S
C810 N806 1.389 . S
C810 C809 1.351 . S
C810 H815 0.930 . S
O811 Cu805 1.974 . S
O811 C821 1.282 . S
C812 O813 1.261 . S
C812 O825 1.251 . S
O813 C812 1.261 . S
H814 C808 0.930 . S
H815 C810 0.930 . S
N816 Cu805 1.985 . S
N816 C818 1.335 . S
N816 C819 1.390 . S
N817 C818 1.345 . S
N817 C820 1.336 . S
C818 N816 1.335 . S
C818 N817 1.345 . S
C818 H823 0.930 . S
C819 N816 1.390 . S
C819 C820 1.346 . S
C819 H824 0.930 . S
C820 N817 1.336 . S
C820 C819 1.346 . S
C820 H827 0.929 . S
C821 O811 1.282 . S
C821 O822 1.216 . S
O822 C821 1.216 . S
H823 C818 0.930 . S
H824 C819 0.930 . S
O825 Cu805 1.959 . S
O825 C812 1.251 . S
H826 C809 0.930 . S
H827 C820 0.929 . S
C828 C829 1.387 . S
C828 H832 0.950 . S
C828 C837 1.390 . S
C829 C828 1.387 . S
C829 C831 1.387 . S
H830 C837 0.950 . S
C831 C829 1.387 . S
C831 C833 1.390 . S
C831 H835 0.950 . S
H832 C828 0.950 . S
C833 C831 1.390 . S
C833 C834 1.387 . S
C833 H836 0.950 . S
C834 C833 1.387 . S
C834 C837 1.387 . S
H835 C831 0.950 . S
H836 C833 0.950 . S
C837 C828 1.390 . S
C837 H830 0.950 . S
C837 C834 1.387 . S
C838 C839 1.387 . S
C838 H842 0.950 . S
C838 C847 1.390 . S
C839 C838 1.387 . S
C839 C841 1.387 . S
H840 C847 0.950 . S
C841 C839 1.387 . S
C841 C843 1.390 . S
C841 H845 0.950 . S
H842 C838 0.950 . S
C843 C841 1.390 . S
C843 C844 1.387 . S
C843 H846 0.950 . S
C844 C843 1.387 . S
C844 C847 1.387 . S
H845 C841 0.950 . S
H846 C843 0.950 . S
C847 C838 1.390 . S
C847 H840 0.950 . S
C847 C844 1.387 . S
C848 C849 1.387 . S
C848 H852 0.950 . S
C848 C857 1.390 . S
C849 C848 1.387 . S
C849 C851 1.387 . S
H850 C857 0.950 . S
C851 C849 1.387 . S
C851 C853 1.390 . S
C851 H855 0.950 . S
H852 C848 0.950 . S
C853 C851 1.390 . S
C853 C854 1.387 . S
C853 H856 0.950 . S
C854 C853 1.387 . S
C854 C857 1.387 . S
H855 C851 0.950 . S
H856 C853 0.950 . S
C857 C848 1.390 . S
C857 H850 0.950 . S
C857 C854 1.387 . S
C858 C859 1.387 . S
C858 H862 0.950 . S
C858 C867 1.390 . S
C859 C858 1.387 . S
C859 C861 1.387 . S
H860 C867 0.950 . S
C861 C859 1.387 . S
C861 C863 1.390 . S
C861 H865 0.950 . S
H862 C858 0.950 . S
C863 C861 1.390 . S
C863 C864 1.387 . S
C863 H866 0.950 . S
C864 C863 1.387 . S
C864 C867 1.387 . S
H865 C861 0.950 . S
H866 C863 0.950 . S
C867 C858 1.390 . S
C867 H860 0.950 . S
C867 C864 1.387 . S
C868 C869 1.387 . S
C868 H872 0.950 . S
C868 C877 1.390 . S
C869 C868 1.387 . S
C869 C871 1.387 . S
H870 C877 0.950 . S
C871 C869 1.387 . S
C871 C873 1.390 . S
C871 H875 0.950 . S
H872 C868 0.950 . S
C873 C871 1.390 . S
C873 C874 1.387 . S
C873 H876 0.950 . S
C874 C873 1.387 . S
C874 C877 1.387 . S
H875 C871 0.950 . S
H876 C873 0.950 . S
C877 C868 1.390 . S
C877 H870 0.950 . S
C877 C874 1.387 . S
C878 C879 1.387 . S
C878 H882 0.950 . S
C878 C887 1.390 . S
C879 C878 1.387 . S
C879 C881 1.387 . S
H880 C887 0.950 . S
C881 C879 1.387 . S
C881 C883 1.390 . S
C881 H885 0.950 . S
H882 C878 0.950 . S
C883 C881 1.390 . S
C883 C884 1.387 . S
C883 H886 0.950 . S
C884 C883 1.387 . S
C884 C887 1.387 . S
H885 C881 0.950 . S
H886 C883 0.950 . S
C887 C878 1.390 . S
C887 H880 0.950 . S
C887 C884 1.387 . S
C888 C889 1.387 . S
C888 H892 0.950 . S
C888 C897 1.390 . S
C889 C888 1.387 . S
C889 C891 1.387 . S
H890 C897 0.950 . S
C891 C889 1.387 . S
C891 C893 1.390 . S
C891 H895 0.950 . S
H892 C888 0.950 . S
C893 C891 1.390 . S
C893 C894 1.387 . S
C893 H896 0.950 . S
C894 C893 1.387 . S
C894 C897 1.387 . S
H895 C891 0.950 . S
H896 C893 0.950 . S
C897 C888 1.390 . S
C897 H890 0.950 . S
C897 C894 1.387 . S
C898 C899 1.387 . S
C898 H902 0.950 . S
C898 C907 1.390 . S
C899 C898 1.387 . S
C899 C901 1.387 . S
H900 C907 0.950 . S
C901 C899 1.387 . S
C901 C903 1.390 . S
C901 H905 0.950 . S
H902 C898 0.950 . S
C903 C901 1.390 . S
C903 C904 1.387 . S
C903 H906 0.950 . S
C904 C903 1.387 . S
C904 C907 1.387 . S
H905 C901 0.950 . S
H906 C903 0.950 . S
C907 C898 1.390 . S
C907 H900 0.950 . S
C907 C904 1.387 . S
C908 C909 1.387 . S
C908 H912 0.950 . S
C908 C917 1.390 . S
C909 C908 1.387 . S
C909 C911 1.387 . S
H910 C917 0.950 . S
C911 C909 1.387 . S
C911 C913 1.390 . S
C911 H915 0.950 . S
H912 C908 0.950 . S
C913 C911 1.390 . S
C913 C914 1.387 . S
C913 H916 0.950 . S
C914 C913 1.387 . S
C914 C917 1.387 . S
H915 C911 0.950 . S
H916 C913 0.950 . S
C917 C908 1.390 . S
C917 H910 0.950 . S
C917 C914 1.387 . S
C918 C919 1.387 . S
C918 H922 0.950 . S
C918 C927 1.390 . S
C919 C918 1.387 . S
C919 C921 1.387 . S
H920 C927 0.950 . S
C921 C919 1.387 . S
C921 C923 1.390 . S
C921 H925 0.950 . S
H922 C918 0.950 . S
C923 C921 1.390 . S
C923 C924 1.387 . S
C923 H926 0.950 . S
C924 C923 1.387 . S
C924 C927 1.387 . S
H925 C921 0.950 . S
H926 C923 0.950 . S
C927 C918 1.390 . S
C927 H920 0.950 . S
C927 C924 1.387 . S
C928 C929 1.387 . S
C928 H932 0.950 . S
C928 C937 1.390 . S
C929 C928 1.387 . S
C929 C931 1.387 . S
H930 C937 0.950 . S
C931 C929 1.387 . S
C931 C933 1.390 . S
C931 H935 0.950 . S
H932 C928 0.950 . S
C933 C931 1.390 . S
C933 C934 1.387 . S
C933 H936 0.950 . S
C934 C933 1.387 . S
C934 C937 1.387 . S
H935 C931 0.950 . S
H936 C933 0.950 . S
C937 C928 1.390 . S
C937 H930 0.950 . S
C937 C934 1.387 . S
C938 C939 1.387 . S
C938 H942 0.950 . S
C938 C947 1.390 . S
C939 C938 1.387 . S
C939 C941 1.387 . S
H940 C947 0.950 . S
C941 C939 1.387 . S
C941 C943 1.390 . S
C941 H945 0.950 . S
H942 C938 0.950 . S
C943 C941 1.390 . S
C943 C944 1.387 . S
C943 H946 0.950 . S
C944 C943 1.387 . S
C944 C947 1.387 . S
H945 C941 0.950 . S
H946 C943 0.950 . S
C947 C938 1.390 . S
C947 H940 0.950 . S
C947 C944 1.387 . S
C948 C949 1.387 . S
C948 H952 0.950 . S
C948 C957 1.390 . S
C949 C948 1.387 . S
C949 C951 1.387 1_655 S
H950 C957 0.950 . S
C951 C949 1.387 1_455 S
C951 C953 1.390 . S
C951 H955 0.950 . S
H952 C948 0.950 . S
C953 C951 1.390 . S
C953 C954 1.387 . S
C953 H956 0.950 . S
C954 C953 1.387 . S
C954 C957 1.387 1_455 S
H955 C951 0.950 . S
H956 C953 0.950 . S
C957 C948 1.390 . S
C957 H950 0.950 . S
C957 C954 1.387 1_655 S
C958 C959 1.387 . S
C958 H962 0.950 . S
C958 C967 1.390 . S
C959 C958 1.387 . S
C959 C961 1.387 . S
H960 C967 0.950 . S
C961 C959 1.387 . S
C961 C963 1.390 . S
C961 H965 0.950 . S
H962 C958 0.950 . S
C963 C961 1.390 . S
C963 C964 1.387 . S
C963 H966 0.950 . S
C964 C963 1.387 . S
C964 C967 1.387 . S
H965 C961 0.950 . S
H966 C963 0.950 . S
C967 C958 1.390 . S
C967 H960 0.950 . S
C967 C964 1.387 . S
C968 C969 1.387 . S
C968 H972 0.950 . S
C968 C977 1.390 . S
C969 C968 1.387 . S
C969 C971 1.387 . S
H970 C977 0.950 1_565 S
C971 C969 1.387 . S
C971 C973 1.390 . S
C971 H975 0.950 . S
H972 C968 0.950 . S
C973 C971 1.390 . S
C973 C974 1.387 1_545 S
C973 H976 0.950 . S
C974 C973 1.387 1_565 S
C974 C977 1.387 1_565 S
H975 C971 0.950 . S
H976 C973 0.950 . S
C977 C968 1.390 . S
C977 H970 0.950 1_545 S
C977 C974 1.387 1_545 S
C978 C979 1.387 1_565 S
C978 H982 0.950 . S
C978 C987 1.390 1_556 S
C979 C978 1.387 1_545 S
C979 C981 1.387 1_556 S
H980 C987 0.950 1_556 S
C981 C979 1.387 1_554 S
C981 C983 1.390 1_545 S
C981 H985 0.950 . S
H982 C978 0.950 . S
C983 C981 1.390 1_565 S
C983 C984 1.387 . S
C983 H986 0.950 1_565 S
C984 C983 1.387 . S
C984 C987 1.387 . S
H985 C981 0.950 . S
H986 C983 0.950 1_545 S
C987 C978 1.390 1_554 S
C987 H980 0.950 1_554 S
C987 C984 1.387 . S
C988 C989 1.387 1_454 S
C988 H992 0.950 . S
C988 C997 1.390 . S
C989 C988 1.387 1_656 S
C989 C991 1.387 . S
H990 C997 0.950 . S
C991 C989 1.387 . S
C991 C993 1.390 1_656 S
C991 H995 0.950 . S
H992 C988 0.950 . S
C993 C991 1.390 1_454 S
C993 C994 1.387 . S
C993 H996 0.950 . S
C994 C993 1.387 . S
C994 C997 1.387 . S
H995 C991 0.950 . S
H996 C993 0.950 . S
C997 C988 1.390 . S
C997 H990 0.950 . S
C997 C994 1.387 . S
C998 C999 1.387 . S
C998 H1002 0.950 . S
C998 C1007 1.390 . S
C999 C998 1.387 . S
C999 C1001 1.387 1_556 S
H1000 C1007 0.950 . S
C1001 C999 1.387 1_554 S
C1001 C1003 1.390 . S
C1001 H1005 0.950 . S
H1002 C998 0.950 . S
C1003 C1001 1.390 . S
C1003 C1004 1.387 . S
C1003 H1006 0.950 . S
C1004 C1003 1.387 . S
C1004 C1007 1.387 1_554 S
H1005 C1001 0.950 . S
H1006 C1003 0.950 . S
C1007 C998 1.390 . S
C1007 H1000 0.950 . S
C1007 C1004 1.387 1_556 S
C1008 C1009 1.387 1_554 S
C1008 H1012 0.950 . S
C1008 C1017 1.390 . S
C1009 C1008 1.387 1_556 S
C1009 C1011 1.387 . S
H1010 C1017 0.950 . S
C1011 C1009 1.387 . S
C1011 C1013 1.390 . S
C1011 H1015 0.950 . S
H1012 C1008 0.950 . S
C1013 C1011 1.390 . S
C1013 C1014 1.387 1_556 S
C1013 H1016 0.950 . S
C1014 C1013 1.387 1_554 S
C1014 C1017 1.387 . S
H1015 C1011 0.950 . S
H1016 C1013 0.950 . S
C1017 C1008 1.390 . S
C1017 H1010 0.950 . S
C1017 C1014 1.387 . S
C1018 C1019 1.387 1_554 S
C1018 H1022 0.950 . S
C1018 C1027 1.390 . S
C1019 C1018 1.387 1_556 S
C1019 C1021 1.387 . S
H1020 C1027 0.950 . S
C1021 C1019 1.387 . S
C1021 C1023 1.390 . S
C1021 H1025 0.950 . S
H1022 C1018 0.950 . S
C1023 C1021 1.390 . S
C1023 C1024 1.387 1_556 S
C1023 H1026 0.950 . S
C1024 C1023 1.387 1_554 S
C1024 C1027 1.387 . S
H1025 C1021 0.950 . S
H1026 C1023 0.950 . S
C1027 C1018 1.390 . S
C1027 H1020 0.950 . S
C1027 C1024 1.387 . S
C1028 C1029 1.387 . S
C1028 H1032 0.950 . S
C1028 C1037 1.390 . S
C1029 C1028 1.387 . S
C1029 C1031 1.387 . S
H1030 C1037 0.950 1_556 S
C1031 C1029 1.387 . S
C1031 C1033 1.390 . S
C1031 H1035 0.950 . S
H1032 C1028 0.950 . S
C1033 C1031 1.390 . S
C1033 C1034 1.387 1_554 S
C1033 H1036 0.950 . S
C1034 C1033 1.387 1_556 S
C1034 C1037 1.387 1_556 S
H1035 C1031 0.950 . S
H1036 C1033 0.950 . S
C1037 C1028 1.390 . S
C1037 H1030 0.950 1_554 S
C1037 C1034 1.387 1_554 S
C1038 C1039 1.387 . S
C1038 H1042 0.950 . S
C1038 C1047 1.390 . S
C1039 C1038 1.387 . S
C1039 C1041 1.387 . S
H1040 C1047 0.950 . S
C1041 C1039 1.387 . S
C1041 C1043 1.390 . S
C1041 H1045 0.950 . S
H1042 C1038 0.950 . S
C1043 C1041 1.390 . S
C1043 C1044 1.387 . S
C1043 H1046 0.950 . S
C1044 C1043 1.387 . S
C1044 C1047 1.387 . S
H1045 C1041 0.950 . S
H1046 C1043 0.950 . S
C1047 C1038 1.390 . S
C1047 H1040 0.950 . S
C1047 C1044 1.387 . S
C1048 C1049 1.387 . S
C1048 H1052 0.950 . S
C1048 C1057 1.390 . S
C1049 C1048 1.387 . S
C1049 C1051 1.387 . S
H1050 C1057 0.950 . S
C1051 C1049 1.387 . S
C1051 C1053 1.390 . S
C1051 H1055 0.950 . S
H1052 C1048 0.950 . S
C1053 C1051 1.390 . S
C1053 C1054 1.387 . S
C1053 H1056 0.950 . S
C1054 C1053 1.387 . S
C1054 C1057 1.387 . S
H1055 C1051 0.950 . S
H1056 C1053 0.950 . S
C1057 C1048 1.390 . S
C1057 H1050 0.950 . S
C1057 C1054 1.387 . S
C1058 C1059 1.387 . S
C1058 H1062 0.950 . S
C1058 C1067 1.390 . S
C1059 C1058 1.387 . S
C1059 C1061 1.387 . S
H1060 C1067 0.950 . S
C1061 C1059 1.387 . S
C1061 C1063 1.390 . S
C1061 H1065 0.950 . S
H1062 C1058 0.950 . S
C1063 C1061 1.390 . S
C1063 C1064 1.387 . S
C1063 H1066 0.950 . S
C1064 C1063 1.387 . S
C1064 C1067 1.387 . S
H1065 C1061 0.950 . S
H1066 C1063 0.950 . S
C1067 C1058 1.390 . S
C1067 H1060 0.950 . S
C1067 C1064 1.387 . S
C1068 C1069 1.387 1_554 S
C1068 H1072 0.950 1_554 S
C1068 C1077 1.390 . S
C1069 C1068 1.387 1_556 S
C1069 C1071 1.387 . S
H1070 C1077 0.950 . S
C1071 C1069 1.387 . S
C1071 C1073 1.390 1_556 S
C1071 H1075 0.950 . S
H1072 C1068 0.950 1_556 S
C1073 C1071 1.390 1_554 S
C1073 C1074 1.387 . S
C1073 H1076 0.950 . S
C1074 C1073 1.387 . S
C1074 C1077 1.387 . S
H1075 C1071 0.950 . S
H1076 C1073 0.950 . S
C1077 C1068 1.390 . S
C1077 H1070 0.950 . S
C1077 C1074 1.387 . S
C1078 C1079 1.387 . S
C1078 H1082 0.963 . S
C1078 C1087 1.390 1_556 S
C1079 C1078 1.387 . S
C1079 C1081 1.387 . S
H1080 C1087 0.950 . S
C1081 C1079 1.387 . S
C1081 C1083 1.390 . S
C1081 H1085 0.950 . S
H1082 C1078 0.963 . S
C1083 C1081 1.390 . S
C1083 C1084 1.387 . S
C1083 H1086 0.950 . S
C1084 C1083 1.387 . S
C1084 C1087 1.387 1_556 S
H1085 C1081 0.950 . S
H1086 C1083 0.950 . S
C1087 C1078 1.390 1_554 S
C1087 H1080 0.950 . S
C1087 C1084 1.387 1_554 S
C1088 C1089 1.387 . S
C1088 H1092 0.950 . S
C1088 C1097 1.390 . S
C1089 C1088 1.387 . S
C1089 C1091 1.387 . S
H1090 C1097 0.950 . S
C1091 C1089 1.387 . S
C1091 C1093 1.390 . S
C1091 H1095 0.950 . S
H1092 C1088 0.950 . S
C1093 C1091 1.390 . S
C1093 C1094 1.387 . S
C1093 H1096 0.950 . S
C1094 C1093 1.387 . S
C1094 C1097 1.387 . S
H1095 C1091 0.950 . S
H1096 C1093 0.950 . S
C1097 C1088 1.390 . S
C1097 H1090 0.950 . S
C1097 C1094 1.387 . S
C1098 C1099 1.387 . S
C1098 H1102 0.950 . S
C1098 C1107 1.390 . S
C1099 C1098 1.387 . S
C1099 C1101 1.387 . S
H1100 C1107 0.950 . S
C1101 C1099 1.387 . S
C1101 C1103 1.390 . S
C1101 H1105 0.950 . S
H1102 C1098 0.950 . S
C1103 C1101 1.390 . S
C1103 C1104 1.387 . S
C1103 H1106 0.950 . S
C1104 C1103 1.387 . S
C1104 C1107 1.387 . S
H1105 C1101 0.950 . S
H1106 C1103 0.950 . S
C1107 C1098 1.390 . S
C1107 H1100 0.950 . S
C1107 C1104 1.387 . S
C1108 C1109 1.387 . S
C1108 H1112 0.950 . S
C1108 C1117 1.390 . S
C1109 C1108 1.387 . S
C1109 C1111 1.387 . S
H1110 C1117 0.950 . S
C1111 C1109 1.387 . S
C1111 C1113 1.390 . S
C1111 H1115 0.950 . S
H1112 C1108 0.950 . S
C1113 C1111 1.390 . S
C1113 C1114 1.387 . S
C1113 H1116 0.950 . S
C1114 C1113 1.387 . S
C1114 C1117 1.387 . S
H1115 C1111 0.950 . S
H1116 C1113 0.950 . S
C1117 C1108 1.390 . S
C1117 H1110 0.950 . S
C1117 C1114 1.387 . S
C1118 C1119 1.387 . S
C1118 H1122 0.950 . S
C1118 C1127 1.390 . S
C1119 C1118 1.387 . S
C1119 C1121 1.387 . S
H1120 C1127 0.950 . S
C1121 C1119 1.387 . S
C1121 C1123 1.390 . S
C1121 H1125 0.950 . S
H1122 C1118 0.950 . S
C1123 C1121 1.390 . S
C1123 C1124 1.387 . S
C1123 H1126 0.950 . S
C1124 C1123 1.387 . S
C1124 C1127 1.387 . S
H1125 C1121 0.950 . S
H1126 C1123 0.950 . S
C1127 C1118 1.390 . S
C1127 H1120 0.950 . S
C1127 C1124 1.387 . S
C1128 C1129 1.387 . S
C1128 H1132 0.950 . S
C1128 C1137 1.390 . S
C1129 C1128 1.387 . S
C1129 C1131 1.387 . S
H1130 C1137 0.950 . S
C1131 C1129 1.387 . S
C1131 C1133 1.390 . S
C1131 H1135 0.950 . S
H1132 C1128 0.950 . S
C1133 C1131 1.390 . S
C1133 C1134 1.387 . S
C1133 H1136 0.950 . S
C1134 C1133 1.387 . S
C1134 C1137 1.387 . S
H1135 C1131 0.950 . S
H1136 C1133 0.950 . S
C1137 C1128 1.390 . S
C1137 H1130 0.950 . S
C1137 C1134 1.387 . S
C1138 C1139 1.387 . S
C1138 H1142 0.950 . S
C1138 C1147 1.390 . S
C1139 C1138 1.387 . S
C1139 C1141 1.387 . S
H1140 C1147 0.950 . S
C1141 C1139 1.387 . S
C1141 C1143 1.390 . S
C1141 H1145 0.950 . S
H1142 C1138 0.950 . S
C1143 C1141 1.390 . S
C1143 C1144 1.387 . S
C1143 H1146 0.950 . S
C1144 C1143 1.387 . S
C1144 C1147 1.387 . S
H1145 C1141 0.950 . S
H1146 C1143 0.950 . S
C1147 C1138 1.390 . S
C1147 H1140 0.950 . S
C1147 C1144 1.387 . S
C1148 C1149 1.387 . S
C1148 H1152 0.950 . S
C1148 C1157 1.390 . S
C1149 C1148 1.387 . S
C1149 C1151 1.387 . S
H1150 C1157 0.950 . S
C1151 C1149 1.387 . S
C1151 C1153 1.390 . S
C1151 H1155 0.950 . S
H1152 C1148 0.950 . S
C1153 C1151 1.390 . S
C1153 C1154 1.387 . S
C1153 H1156 0.950 . S
C1154 C1153 1.387 . S
C1154 C1157 1.387 . S
H1155 C1151 0.950 . S
H1156 C1153 0.950 . S
C1157 C1148 1.390 . S
C1157 H1150 0.950 . S
C1157 C1154 1.387 . S
C1158 C1159 1.387 . S
C1158 H1162 0.950 . S
C1158 C1167 1.390 . S
C1159 C1158 1.387 . S
C1159 C1161 1.387 . S
H1160 C1167 0.950 . S
C1161 C1159 1.387 . S
C1161 C1163 1.390 . S
C1161 H1165 0.950 . S
H1162 C1158 0.950 . S
C1163 C1161 1.390 . S
C1163 C1164 1.387 . S
C1163 H1166 0.950 . S
C1164 C1163 1.387 . S
C1164 C1167 1.387 . S
H1165 C1161 0.950 . S
H1166 C1163 0.950 . S
C1167 C1158 1.390 . S
C1167 H1160 0.950 . S
C1167 C1164 1.387 . S
C1168 C1169 1.387 . S
C1168 H1172 0.950 . S
C1168 C1177 1.390 . S
C1169 C1168 1.387 . S
C1169 C1171 1.387 . S
H1170 C1177 0.950 . S
C1171 C1169 1.387 . S
C1171 C1173 1.390 . S
C1171 H1175 0.950 . S
H1172 C1168 0.950 . S
C1173 C1171 1.390 . S
C1173 C1174 1.387 . S
C1173 H1176 0.950 . S
C1174 C1173 1.387 . S
C1174 C1177 1.387 . S
H1175 C1171 0.950 . S
H1176 C1173 0.950 . S
C1177 C1168 1.390 . S
C1177 H1170 0.950 . S
C1177 C1174 1.387 . S
C1178 C1179 1.387 . S
C1178 H1182 0.950 . S
C1178 C1187 1.390 . S
C1179 C1178 1.387 . S
C1179 C1181 1.387 . S
H1180 C1187 0.950 . S
C1181 C1179 1.387 . S
C1181 C1183 1.390 . S
C1181 H1185 0.950 . S
H1182 C1178 0.950 . S
C1183 C1181 1.390 . S
C1183 C1184 1.387 . S
C1183 H1186 0.950 . S
C1184 C1183 1.387 . S
C1184 C1187 1.387 . S
H1185 C1181 0.950 . S
H1186 C1183 0.950 . S
C1187 C1178 1.390 . S
C1187 H1180 0.950 . S
C1187 C1184 1.387 . S
C1188 C1189 1.387 . S
C1188 H1192 0.950 . S
C1188 C1197 1.390 . S
C1189 C1188 1.387 . S
C1189 C1191 1.387 . S
H1190 C1197 0.950 . S
C1191 C1189 1.387 . S
C1191 C1193 1.390 . S
C1191 H1195 0.950 . S
H1192 C1188 0.950 . S
C1193 C1191 1.390 . S
C1193 C1194 1.387 . S
C1193 H1196 0.950 . S
C1194 C1193 1.387 . S
C1194 C1197 1.387 . S
H1195 C1191 0.950 . S
H1196 C1193 0.950 . S
C1197 C1188 1.390 . S
C1197 H1190 0.950 . S
C1197 C1194 1.387 . S
C1198 C1199 1.387 . S
C1198 H1202 0.950 . S
C1198 C1207 1.390 . S
C1199 C1198 1.387 . S
C1199 C1201 1.387 . S
H1200 C1207 0.950 . S
C1201 C1199 1.387 . S
C1201 C1203 1.390 . S
C1201 H1205 0.950 . S
H1202 C1198 0.950 . S
C1203 C1201 1.390 . S
C1203 C1204 1.387 . S
C1203 H1206 0.950 . S
C1204 C1203 1.387 . S
C1204 C1207 1.387 . S
H1205 C1201 0.950 . S
H1206 C1203 0.950 . S
C1207 C1198 1.390 . S
C1207 H1200 0.950 . S
C1207 C1204 1.387 . S
C1208 C1209 1.387 . S
C1208 H1212 0.950 . S
C1208 C1217 1.390 . S
C1209 C1208 1.387 . S
C1209 C1211 1.387 . S
H1210 C1217 0.950 . S
C1211 C1209 1.387 . S
C1211 C1213 1.390 . S
C1211 H1215 0.950 . S
H1212 C1208 0.950 . S
C1213 C1211 1.390 . S
C1213 C1214 1.387 . S
C1213 H1216 0.950 . S
C1214 C1213 1.387 . S
C1214 C1217 1.387 . S
H1215 C1211 0.950 . S
H1216 C1213 0.950 . S
C1217 C1208 1.390 . S
C1217 H1210 0.950 . S
C1217 C1214 1.387 . S
C1218 C1219 1.387 . S
C1218 H1222 0.950 . S
C1218 C1227 1.390 . S
C1219 C1218 1.387 . S
C1219 C1221 1.387 . S
H1220 C1227 0.950 . S
C1221 C1219 1.387 . S
C1221 C1223 1.390 . S
C1221 H1225 0.950 . S
H1222 C1218 0.950 . S
C1223 C1221 1.390 . S
C1223 C1224 1.387 . S
C1223 H1226 0.950 . S
C1224 C1223 1.387 . S
C1224 C1227 1.387 . S
H1225 C1221 0.950 . S
H1226 C1223 0.950 . S
C1227 C1218 1.390 . S
C1227 H1220 0.950 . S
C1227 C1224 1.387 . S
C1228 C1229 1.387 . S
C1228 H1232 0.950 . S
C1228 C1237 1.390 . S
C1229 C1228 1.387 . S
C1229 C1231 1.387 . S
H1230 C1237 0.950 . S
C1231 C1229 1.387 . S
C1231 C1233 1.390 . S
C1231 H1235 0.950 . S
H1232 C1228 0.950 . S
C1233 C1231 1.390 . S
C1233 C1234 1.387 . S
C1233 H1236 0.950 . S
C1234 C1233 1.387 . S
C1234 C1237 1.387 . S
H1235 C1231 0.950 . S
H1236 C1233 0.950 . S
C1237 C1228 1.390 . S
C1237 H1230 0.950 . S
C1237 C1234 1.387 . S
C1238 C1239 1.387 . S
C1238 H1242 0.950 . S
C1238 C1247 1.390 . S
C1239 C1238 1.387 . S
C1239 C1241 1.387 . S
H1240 C1247 0.950 . S
C1241 C1239 1.387 . S
C1241 C1243 1.390 . S
C1241 H1245 0.950 . S
H1242 C1238 0.950 . S
C1243 C1241 1.390 . S
C1243 C1244 1.387 . S
C1243 H1246 0.950 . S
C1244 C1243 1.387 . S
C1244 C1247 1.387 . S
H1245 C1241 0.950 . S
H1246 C1243 0.950 . S
C1247 C1238 1.390 . S
C1247 H1240 0.950 . S
C1247 C1244 1.387 . S
C1248 C1249 1.387 . S
C1248 H1252 0.950 . S
C1248 C1257 1.390 . S
C1249 C1248 1.387 . S
C1249 C1251 1.387 . S
H1250 C1257 0.950 . S
C1251 C1249 1.387 . S
C1251 C1253 1.390 . S
C1251 H1255 0.950 . S
H1252 C1248 0.950 . S
C1253 C1251 1.390 . S
C1253 C1254 1.387 . S
C1253 H1256 0.950 . S
C1254 C1253 1.387 . S
C1254 C1257 1.387 . S
H1255 C1251 0.950 . S
H1256 C1253 0.950 . S
C1257 C1248 1.390 . S
C1257 H1250 0.950 . S
C1257 C1254 1.387 . S
C1258 C1259 1.387 . S
C1258 H1262 0.950 . S
C1258 C1267 1.390 . S
C1259 C1258 1.387 . S
C1259 C1261 1.387 . S
H1260 C1267 0.950 . S
C1261 C1259 1.387 . S
C1261 C1263 1.390 . S
C1261 H1265 0.950 . S
H1262 C1258 0.950 . S
C1263 C1261 1.390 . S
C1263 C1264 1.387 . S
C1263 H1266 0.950 . S
C1264 C1263 1.387 . S
C1264 C1267 1.387 . S
H1265 C1261 0.950 . S
H1266 C1263 0.950 . S
C1267 C1258 1.390 . S
C1267 H1260 0.950 . S
C1267 C1264 1.387 . S
C1268 C1269 1.387 . S
C1268 H1272 0.950 . S
C1268 C1277 1.390 . S
C1269 C1268 1.387 . S
C1269 C1271 1.387 . S
H1270 C1277 0.950 . S
C1271 C1269 1.387 . S
C1271 C1273 1.390 . S
C1271 H1275 0.950 . S
H1272 C1268 0.950 . S
C1273 C1271 1.390 . S
C1273 C1274 1.387 . S
C1273 H1276 0.950 . S
C1274 C1273 1.387 . S
C1274 C1277 1.387 . S
H1275 C1271 0.950 . S
H1276 C1273 0.950 . S
C1277 C1268 1.390 . S
C1277 H1270 0.950 . S
C1277 C1274 1.387 . S
C1278 C1279 1.387 . S
C1278 H1282 0.950 . S
C1278 C1287 1.390 . S
C1279 C1278 1.387 . S
C1279 C1281 1.387 . S
H1280 C1287 0.950 . S
C1281 C1279 1.387 . S
C1281 C1283 1.390 . S
C1281 H1285 0.950 . S
H1282 C1278 0.950 . S
C1283 C1281 1.390 . S
C1283 C1284 1.387 . S
C1283 H1286 0.950 . S
C1284 C1283 1.387 . S
C1284 C1287 1.387 . S
H1285 C1281 0.950 . S
H1286 C1283 0.950 . S
C1287 C1278 1.390 . S
C1287 H1280 0.950 . S
C1287 C1284 1.387 . S
C1288 C1289 1.387 . S
C1288 H1292 0.950 . S
C1288 C1297 1.390 . S
C1289 C1288 1.387 . S
C1289 C1291 1.387 . S
H1290 C1297 0.950 . S
C1291 C1289 1.387 . S
C1291 C1293 1.390 . S
C1291 H1295 0.950 . S
H1292 C1288 0.950 . S
C1293 C1291 1.390 . S
C1293 C1294 1.387 . S
C1293 H1296 0.950 . S
C1294 C1293 1.387 . S
C1294 C1297 1.387 . S
H1295 C1291 0.950 . S
H1296 C1293 0.950 . S
C1297 C1288 1.390 . S
C1297 H1290 0.950 . S
C1297 C1294 1.387 . S
C1298 C1299 1.387 . S
C1298 H1302 0.950 . S
C1298 C1307 1.390 . S
C1299 C1298 1.387 . S
C1299 C1301 1.387 . S
H1300 C1307 0.950 . S
C1301 C1299 1.387 . S
C1301 C1303 1.390 . S
C1301 H1305 0.950 . S
H1302 C1298 0.950 . S
C1303 C1301 1.390 . S
C1303 C1304 1.387 . S
C1303 H1306 0.950 . S
C1304 C1303 1.387 . S
C1304 C1307 1.387 . S
H1305 C1301 0.950 . S
H1306 C1303 0.950 . S
C1307 C1298 1.390 . S
C1307 H1300 0.950 . S
C1307 C1304 1.387 . S
C1308 C1309 1.387 . S
C1308 H1312 0.950 . S
C1308 C1317 1.390 . S
C1309 C1308 1.387 . S
C1309 C1311 1.387 . S
H1310 C1317 0.950 . S
C1311 C1309 1.387 . S
C1311 C1313 1.390 . S
C1311 H1315 0.950 . S
H1312 C1308 0.950 . S
C1313 C1311 1.390 . S
C1313 C1314 1.387 . S
C1313 H1316 0.950 . S
C1314 C1313 1.387 . S
C1314 C1317 1.387 . S
H1315 C1311 0.950 . S
H1316 C1313 0.950 . S
C1317 C1308 1.390 . S
C1317 H1310 0.950 . S
C1317 C1314 1.387 . S
C1318 C1319 1.387 . S
C1318 H1322 0.950 . S
C1318 C1327 1.390 . S
C1319 C1318 1.387 . S
C1319 C1321 1.387 . S
H1320 C1327 0.950 . S
C1321 C1319 1.387 . S
C1321 C1323 1.390 . S
C1321 H1325 0.950 . S
H1322 C1318 0.950 . S
C1323 C1321 1.390 . S
C1323 C1324 1.387 . S
C1323 H1326 0.950 . S
C1324 C1323 1.387 . S
C1324 C1327 1.387 . S
H1325 C1321 0.950 . S
H1326 C1323 0.950 . S
C1327 C1318 1.390 . S
C1327 H1320 0.950 . S
C1327 C1324 1.387 . S
C1328 C1329 1.387 . S
C1328 H1332 0.950 . S
C1328 C1337 1.390 . S
C1329 C1328 1.387 . S
C1329 C1331 1.387 . S
H1330 C1337 0.950 . S
C1331 C1329 1.387 . S
C1331 C1333 1.390 . S
C1331 H1335 0.950 . S
H1332 C1328 0.950 . S
C1333 C1331 1.390 . S
C1333 C1334 1.387 . S
C1333 H1336 0.950 . S
C1334 C1333 1.387 . S
C1334 C1337 1.387 . S
H1335 C1331 0.950 . S
H1336 C1333 0.950 . S
C1337 C1328 1.390 . S
C1337 H1330 0.950 . S
C1337 C1334 1.387 . S
C1338 C1339 1.387 . S
C1338 H1342 0.950 . S
C1338 C1347 1.390 . S
C1339 C1338 1.387 . S
C1339 C1341 1.387 . S
H1340 C1347 0.950 . S
C1341 C1339 1.387 . S
C1341 C1343 1.390 . S
C1341 H1345 0.950 . S
H1342 C1338 0.950 . S
C1343 C1341 1.390 . S
C1343 C1344 1.387 . S
C1343 H1346 0.950 . S
C1344 C1343 1.387 . S
C1344 C1347 1.387 . S
H1345 C1341 0.950 . S
H1346 C1343 0.950 . S
C1347 C1338 1.390 . S
C1347 H1340 0.950 . S
C1347 C1344 1.387 . S
C1348 C1349 1.387 . S
C1348 H1352 0.950 . S
C1348 C1357 1.390 . S
C1349 C1348 1.387 . S
C1349 C1351 1.387 . S
H1350 C1357 0.950 . S
C1351 C1349 1.387 . S
C1351 C1353 1.390 . S
C1351 H1355 0.950 . S
H1352 C1348 0.950 . S
C1353 C1351 1.390 . S
C1353 C1354 1.387 . S
C1353 H1356 0.950 . S
C1354 C1353 1.387 . S
C1354 C1357 1.387 . S
H1355 C1351 0.950 . S
H1356 C1353 0.950 . S
C1357 C1348 1.390 . S
C1357 H1350 0.950 . S
C1357 C1354 1.387 . S
C1358 C1359 1.387 . S
C1358 H1362 0.950 . S
C1358 C1367 1.390 . S
C1359 C1358 1.387 . S
C1359 C1361 1.387 . S
H1360 C1367 0.950 . S
C1361 C1359 1.387 . S
C1361 C1363 1.390 . S
C1361 H1365 0.950 . S
H1362 C1358 0.950 . S
C1363 C1361 1.390 . S
C1363 C1364 1.387 . S
C1363 H1366 0.950 . S
C1364 C1363 1.387 . S
C1364 C1367 1.387 . S
H1365 C1361 0.950 . S
H1366 C1363 0.950 . S
C1367 C1358 1.390 . S
C1367 H1360 0.950 . S
C1367 C1364 1.387 . S
C1368 C1369 1.387 . S
C1368 H1372 0.950 . S
C1368 C1377 1.390 . S
C1369 C1368 1.387 . S
C1369 C1371 1.387 . S
H1370 C1377 0.950 . S
C1371 C1369 1.387 . S
C1371 C1373 1.390 . S
C1371 H1375 0.950 . S
H1372 C1368 0.950 . S
C1373 C1371 1.390 . S
C1373 C1374 1.387 . S
C1373 H1376 0.950 . S
C1374 C1373 1.387 . S
C1374 C1377 1.387 . S
H1375 C1371 0.950 . S
H1376 C1373 0.950 . S
C1377 C1368 1.390 . S
C1377 H1370 0.950 . S
C1377 C1374 1.387 . S
C1378 C1379 1.387 . S
C1378 H1382 0.950 . S
C1378 C1387 1.390 . S
C1379 C1378 1.387 . S
C1379 C1381 1.387 . S
H1380 C1387 0.950 . S
C1381 C1379 1.387 . S
C1381 C1383 1.390 . S
C1381 H1385 0.950 . S
H1382 C1378 0.950 . S
C1383 C1381 1.390 . S
C1383 C1384 1.387 . S
C1383 H1386 0.950 . S
C1384 C1383 1.387 . S
C1384 C1387 1.387 . S
H1385 C1381 0.950 . S
H1386 C1383 0.950 . S
C1387 C1378 1.390 . S
C1387 H1380 0.950 . S
C1387 C1384 1.387 . S
C1388 C1389 1.387 . S
C1388 H1392 0.950 . S
C1388 C1397 1.390 . S
C1389 C1388 1.387 . S
C1389 C1391 1.387 . S
H1390 C1397 0.950 . S
C1391 C1389 1.387 . S
C1391 C1393 1.390 . S
C1391 H1395 0.950 . S
H1392 C1388 0.950 . S
C1393 C1391 1.390 . S
C1393 C1394 1.387 . S
C1393 H1396 0.950 . S
C1394 C1393 1.387 . S
C1394 C1397 1.387 . S
H1395 C1391 0.950 . S
H1396 C1393 0.950 . S
C1397 C1388 1.390 . S
C1397 H1390 0.950 . S
C1397 C1394 1.387 . S
C1398 C1399 1.387 . S
C1398 H1402 0.950 . S
C1398 C1407 1.390 . S
C1399 C1398 1.387 . S
C1399 C1401 1.387 . S
H1400 C1407 0.950 . S
C1401 C1399 1.387 . S
C1401 C1403 1.390 . S
C1401 H1405 0.950 . S
H1402 C1398 0.950 . S
C1403 C1401 1.390 . S
C1403 C1404 1.387 . S
C1403 H1406 0.950 . S
C1404 C1403 1.387 . S
C1404 C1407 1.387 . S
H1405 C1401 0.950 . S
H1406 C1403 0.950 . S
C1407 C1398 1.390 . S
C1407 H1400 0.950 . S
C1407 C1404 1.387 . S
C1408 C1409 1.387 . S
C1408 H1412 0.950 . S
C1408 C1417 1.390 . S
C1409 C1408 1.387 . S
C1409 C1411 1.387 . S
H1410 C1417 0.950 . S
C1411 C1409 1.387 . S
C1411 C1413 1.390 . S
C1411 H1415 0.950 . S
H1412 C1408 0.950 . S
C1413 C1411 1.390 . S
C1413 C1414 1.387 . S
C1413 H1416 0.950 . S
C1414 C1413 1.387 . S
C1414 C1417 1.387 . S
H1415 C1411 0.950 . S
H1416 C1413 0.950 . S
C1417 C1408 1.390 . S
C1417 H1410 0.950 . S
C1417 C1414 1.387 . S
C1418 C1419 1.387 . S
C1418 H1422 0.950 . S
C1418 C1427 1.390 . S
C1419 C1418 1.387 . S
C1419 C1421 1.387 1_655 S
H1420 C1427 0.950 . S
C1421 C1419 1.387 1_455 S
C1421 C1423 1.390 1_455 S
C1421 H1425 0.950 . S
H1422 C1418 0.950 . S
C1423 C1421 1.390 1_655 S
C1423 C1424 1.387 . S
C1423 H1426 0.941 1_655 S
C1424 C1423 1.387 . S
C1424 C1427 1.387 . S
H1425 C1421 0.950 . S
H1426 C1423 0.941 1_455 S
C1427 C1418 1.390 . S
C1427 H1420 0.950 . S
C1427 C1424 1.387 . S
C1428 C1429 1.387 . S
C1428 H1432 0.950 . S
C1428 C1437 1.390 . S
C1429 C1428 1.387 . S
C1429 C1431 1.387 . S
H1430 C1437 0.950 . S
C1431 C1429 1.387 . S
C1431 C1433 1.390 . S
C1431 H1435 0.950 . S
H1432 C1428 0.950 . S
C1433 C1431 1.390 . S
C1433 C1434 1.387 . S
C1433 H1436 0.950 . S
C1434 C1433 1.387 . S
C1434 C1437 1.387 . S
H1435 C1431 0.950 . S
H1436 C1433 0.950 . S
C1437 C1428 1.390 . S
C1437 H1430 0.950 . S
C1437 C1434 1.387 . S
C1438 C1439 1.387 . S
C1438 H1442 0.943 1_545 S
C1438 C1447 1.390 . S
C1439 C1438 1.387 . S
C1439 C1441 1.387 . S
H1440 C1447 0.950 . S
C1441 C1439 1.387 . S
C1441 C1443 1.390 . S
C1441 H1445 0.950 . S
H1442 C1438 0.943 1_565 S
C1443 C1441 1.390 . S
C1443 C1444 1.387 . S
C1443 H1446 0.950 . S
C1444 C1443 1.387 . S
C1444 C1447 1.387 . S
H1445 C1441 0.950 . S
H1446 C1443 0.950 . S
C1447 C1438 1.390 . S
C1447 H1440 0.950 . S
C1447 C1444 1.387 . S
C1448 C1449 1.387 . S
C1448 H1452 0.950 . S
C1448 C1457 1.390 . S
C1449 C1448 1.387 . S
C1449 C1451 1.387 . S
H1450 C1457 0.950 . S
C1451 C1449 1.387 . S
C1451 C1453 1.390 . S
C1451 H1455 0.950 1_655 S
H1452 C1448 0.950 . S
C1453 C1451 1.390 . S
C1453 C1454 1.387 . S
C1453 H1456 0.950 . S
C1454 C1453 1.387 . S
C1454 C1457 1.387 . S
H1455 C1451 0.950 1_455 S
H1456 C1453 0.950 . S
C1457 C1448 1.390 . S
C1457 H1450 0.950 . S
C1457 C1454 1.387 . S
C1458 C1459 1.387 . S
C1458 H1462 0.950 . S
C1458 C1467 1.390 . S
C1459 C1458 1.387 . S
C1459 C1461 1.387 . S
H1460 C1467 0.950 . S
C1461 C1459 1.387 . S
C1461 C1463 1.390 . S
C1461 H1465 0.950 . S
H1462 C1458 0.950 . S
C1463 C1461 1.390 . S
C1463 C1464 1.387 . S
C1463 H1466 0.950 . S
C1464 C1463 1.387 . S
C1464 C1467 1.387 . S
H1465 C1461 0.950 . S
H1466 C1463 0.950 . S
C1467 C1458 1.390 . S
C1467 H1460 0.950 . S
C1467 C1464 1.387 . S
C1468 C1469 1.387 . S
C1468 H1472 0.950 . S
C1468 C1477 1.390 . S
C1469 C1468 1.387 . S
C1469 C1471 1.387 . S
H1470 C1477 0.950 . S
C1471 C1469 1.387 . S
C1471 C1473 1.390 . S
C1471 H1475 0.950 . S
H1472 C1468 0.950 . S
C1473 C1471 1.390 . S
C1473 C1474 1.387 . S
C1473 H1476 0.950 . S
C1474 C1473 1.387 . S
C1474 C1477 1.387 . S
H1475 C1471 0.950 . S
H1476 C1473 0.950 . S
C1477 C1468 1.390 . S
C1477 H1470 0.950 . S
C1477 C1474 1.387 . S
C1478 C1479 1.387 . S
C1478 H1482 0.963 . S
C1478 C1487 1.390 1_455 S
C1479 C1478 1.387 . S
C1479 C1481 1.387 . S
H1480 C1487 0.950 . S
C1481 C1479 1.387 . S
C1481 C1483 1.390 . S
C1481 H1485 0.950 . S
H1482 C1478 0.963 . S
C1483 C1481 1.390 . S
C1483 C1484 1.387 . S
C1483 H1486 0.950 . S
C1484 C1483 1.387 . S
C1484 C1487 1.387 1_455 S
H1485 C1481 0.950 . S
H1486 C1483 0.950 . S
C1487 C1478 1.390 1_655 S
C1487 H1480 0.950 . S
C1487 C1484 1.387 1_655 S
C1488 C1489 1.387 . S
C1488 H1492 0.950 . S
C1488 C1497 1.390 . S
C1489 C1488 1.387 . S
C1489 C1491 1.387 . S
H1490 C1497 0.950 1_455 S
C1491 C1489 1.387 . S
C1491 C1493 1.390 . S
C1491 H1495 0.950 . S
H1492 C1488 0.950 . S
C1493 C1491 1.390 . S
C1493 C1494 1.387 1_655 S
C1493 H1496 0.950 1_655 S
C1494 C1493 1.387 1_455 S
C1494 C1497 1.387 1_455 S
H1495 C1491 0.950 . S
H1496 C1493 0.950 1_455 S
C1497 C1488 1.390 . S
C1497 H1490 0.950 1_655 S
C1497 C1494 1.387 1_655 S
C1498 C1499 1.387 . S
C1498 H1502 0.950 . S
C1498 C1507 1.390 . S
C1499 C1498 1.387 . S
C1499 C1501 1.387 . S
H1500 C1507 0.950 . S
C1501 C1499 1.387 . S
C1501 C1503 1.390 . S
C1501 H1505 0.950 . S
H1502 C1498 0.950 . S
C1503 C1501 1.390 . S
C1503 C1504 1.387 . S
C1503 H1506 0.950 . S
C1504 C1503 1.387 . S
C1504 C1507 1.387 . S
H1505 C1501 0.950 . S
H1506 C1503 0.950 . S
C1507 C1498 1.390 . S
C1507 H1500 0.950 . S
C1507 C1504 1.387 . S
C1508 C1509 1.387 . S
C1508 H1512 0.950 . S
C1508 C1517 1.390 1_565 S
C1509 C1508 1.387 . S
C1509 C1511 1.387 . S
H1510 C1517 0.950 . S
C1511 C1509 1.387 . S
C1511 C1513 1.390 1_565 S
C1511 H1515 0.950 . S
H1512 C1508 0.950 . S
C1513 C1511 1.390 1_545 S
C1513 C1514 1.387 . S
C1513 H1516 0.950 . S
C1514 C1513 1.387 . S
C1514 C1517 1.387 . S
H1515 C1511 0.950 . S
H1516 C1513 0.950 . S
C1517 C1508 1.390 1_545 S
C1517 H1510 0.950 . S
C1517 C1514 1.387 . S
C1518 C1519 1.387 . S
C1518 H1522 0.950 . S
C1518 C1527 1.390 1_565 S
C1519 C1518 1.387 . S
C1519 C1521 1.387 . S
H1520 C1527 0.950 . S
C1521 C1519 1.387 . S
C1521 C1523 1.390 1_565 S
C1521 H1525 0.950 . S
H1522 C1518 0.950 . S
C1523 C1521 1.390 1_545 S
C1523 C1524 1.387 . S
C1523 H1526 0.950 . S
C1524 C1523 1.387 . S
C1524 C1527 1.387 . S
H1525 C1521 0.950 . S
H1526 C1523 0.950 . S
C1527 C1518 1.390 1_545 S
C1527 H1520 0.950 . S
C1527 C1524 1.387 . S
C1528 C1529 1.387 . S
C1528 H1532 0.950 . S
C1528 C1537 1.390 1_655 S
C1529 C1528 1.387 . S
C1529 C1531 1.387 . S
H1530 C1537 0.950 . S
C1531 C1529 1.387 . S
C1531 C1533 1.390 1_655 S
C1531 H1535 0.950 . S
H1532 C1528 0.950 . S
C1533 C1531 1.390 1_455 S
C1533 C1534 1.387 . S
C1533 H1536 0.950 . S
C1534 C1533 1.387 . S
C1534 C1537 1.387 . S
H1535 C1531 0.950 . S
H1536 C1533 0.950 . S
C1537 C1528 1.390 1_455 S
C1537 H1530 0.950 . S
C1537 C1534 1.387 . S
C1538 C1539 1.387 . S
C1538 H1542 0.950 . S
C1538 C1547 1.390 . S
C1539 C1538 1.387 . S
C1539 C1541 1.387 . S
H1540 C1547 0.950 . S
C1541 C1539 1.387 . S
C1541 C1543 1.390 . S
C1541 H1545 0.950 . S
H1542 C1538 0.950 . S
C1543 C1541 1.390 . S
C1543 C1544 1.387 . S
C1543 H1546 0.950 . S
C1544 C1543 1.387 . S
C1544 C1547 1.387 . S
H1545 C1541 0.950 . S
H1546 C1543 0.950 . S
C1547 C1538 1.390 . S
C1547 H1540 0.950 . S
C1547 C1544 1.387 . S
C829 N2 1.417 . S
C834 N416 1.415 . S
C839 C30 1.435 . S
C844 N439 1.404 . S
C849 N462 1.391 . S
C854 N48 1.391 . S
C859 N71 1.390 . S
C864 N761 1.390 . S
C869 N784 1.402 . S
C874 C99 1.435 . S
C879 N117 1.415 . S
C884 N807 1.413 . S
C889 N554 1.415 . S
C894 N140 1.413 . S
C899 N163 1.403 . S
C904 C582 1.435 . S
C909 N186 1.388 . S
C914 N600 1.389 . S
C919 N209 1.389 . S
C924 N347 1.389 . S
C929 C375 1.435 . S
C934 N232 1.403 . S
C939 N255 1.413 . S
C944 N393 1.415 . S
C949 N278 1.415 . S
C954 N692 1.413 . S
C959 C306 1.435 . S
C964 N715 1.403 . S
C969 N324 1.390 . S
C974 N738 1.390 . S
C979 N485 1.389 . S
C984 N623 1.389 . S
C989 N508 1.402 . S
C994 C651 1.435 . S
C999 N531 1.416 . S
C1004 N669 1.418 . S
C1009 N173 1.446 . S
C1014 C16 1.474 . S
C1019 N196 1.496 . S
C1024 N35 1.570 . S
C1029 C62 1.586 . S
C1034 N150 1.555 . S
C1039 N265 1.554 . S
C1044 C85 1.585 . S
C1049 N219 1.500 . S
C1054 N104 1.572 . S
C1059 N242 1.448 . S
C1064 C131 1.475 . S
C1069 C154 1.635 . S
C1074 C39 1.679 . S
C1079 C177 1.592 . S
C1084 N58 1.604 1_556 S
C1089 C200 1.627 . S
C1094 N12 1.616 . S
C1099 C223 1.626 . S
C1104 N127 1.615 . S
C1109 N81 1.605 . S
C1114 C246 1.593 . S
C1119 C108 1.679 . S
C1124 C269 1.637 . S
C1129 C292 1.474 . S
C1134 N449 1.448 . S
C1139 N311 1.571 . S
C1144 N472 1.496 . S
C1149 C338 1.587 . S
C1154 N426 1.555 . S
C1159 N541 1.554 . S
C1164 C361 1.585 . S
C1169 N380 1.572 . S
C1174 N495 1.500 . S
C1179 N518 1.445 . S
C1184 C407 1.473 . S
C1189 C430 1.636 . S
C1194 C315 1.679 . S
C1199 N334 1.604 . S
C1204 C453 1.590 . S
C1209 N288 1.615 . S
C1214 C476 1.625 . S
C1219 C499 1.625 . S
C1224 N403 1.615 . S
C1229 C522 1.591 . S
C1234 N357 1.604 . S
C1239 C545 1.636 . S
C1244 C384 1.679 . S
C1249 N725 1.448 . S
C1254 C568 1.475 . S
C1259 N587 1.570 . S
C1264 N748 1.496 . S
C1269 C614 1.586 . S
C1274 N702 1.555 . S
C1279 N817 1.554 . S
C1284 C637 1.585 . S
C1289 N771 1.496 . S
C1294 N656 1.570 . S
C1299 N794 1.445 . S
C1304 C683 1.473 . S
C1309 C591 1.679 . S
C1314 C706 1.637 . S
C1319 N610 1.604 . S
C1324 C729 1.592 . S
C1329 N564 1.615 . S
C1334 C752 1.625 . S
C1339 C775 1.626 . S
C1344 N679 1.615 . S
C1349 N633 1.604 . S
C1354 C798 1.591 . S
C1359 C821 1.637 . S
C1364 C660 1.678 . S
C1369 C7 1.443 . S
C1374 C674 1.445 . S
C1379 C628 1.571 . S
C1384 N25 1.445 . S
C1389 C53 1.571 1_455 S
C1394 N646 1.445 . S
C1399 C76 1.571 . S
C1404 N301 1.445 . S
C1409 C329 1.571 . S
C1414 N94 1.445 . S
C1419 C122 1.444 1_655 S
C1424 C283 1.444 . S
C1429 C536 1.835 . S
C1434 C145 1.835 . S
C1439 C168 1.865 1_545 S
C1444 C490 1.876 . S
C1449 C191 1.878 1_655 S
C1454 C513 1.864 . S
C1459 C214 1.878 . S
C1464 C720 1.864 . S
C1469 C237 1.864 1_565 S
C1474 C743 1.878 . S
C1479 C697 1.835 . S
C1484 C260 1.835 1_455 S
C1489 C352 1.571 . S
C1494 N577 1.445 . S
C1499 C605 1.572 . S
C1504 N370 1.442 . S
C1509 C559 1.445 . S
C1514 C398 1.443 . S
C1519 C812 1.835 . S
C1524 C421 1.835 . S
C1529 C444 1.864 . S
C1534 C766 1.877 . S
C1539 C467 1.878 . S
C1544 C789 1.864 . S
