# Generated by pormake.
# Topology yff, (5)-cn, num edge types: 1
# Building blocks:
#     Node 0, Type 0, BuildingBlock: XOMCOT_clean_sbu_1, # of connection points: 5
#     Node 1, Type 0, BuildingBlock: XOMCOT_clean_sbu_1, # of connection points: 5
#     Node 2, Type 0, BuildingBlock: XOMCOT_clean_sbu_1, # of connection points: 5
#     Node 3, Type 0, BuildingBlock: XOMCOT_clean_sbu_1, # of connection points: 5
#     Node 4, Type 0, BuildingBlock: XOMCOT_clean_sbu_1, # of connection points: 5
#     Node 5, Type 0, BuildingBlock: XOMCOT_clean_sbu_1, # of connection points: 5
#     Node 6, Type 0, BuildingBlock: XOMCOT_clean_sbu_1, # of connection points: 5
#     Node 7, Type 0, BuildingBlock: XOMCOT_clean_sbu_1, # of connection points: 5
#     Node 8, Type 0, BuildingBlock: XOMCOT_clean_sbu_1, # of connection points: 5
#     Node 9, Type 0, BuildingBlock: XOMCOT_clean_sbu_1, # of connection points: 5
#     Node 10, Type 0, BuildingBlock: XOMCOT_clean_sbu_1, # of connection points: 5
#     Node 11, Type 0, BuildingBlock: XOMCOT_clean_sbu_1, # of connection points: 5
#     Node 12, Type 0, BuildingBlock: XOMCOT_clean_sbu_1, # of connection points: 5
#     Node 13, Type 0, BuildingBlock: XOMCOT_clean_sbu_1, # of connection points: 5
#     Node 14, Type 0, BuildingBlock: XOMCOT_clean_sbu_1, # of connection points: 5
#     Node 15, Type 0, BuildingBlock: XOMCOT_clean_sbu_1, # of connection points: 5
#     Edge 16, Type (0, 0), BuildingBlock: CIFDUS_clean_linker_0, # of connection points: 2
#     Edge 17, Type (0, 0), BuildingBlock: CIFDUS_clean_linker_0, # of connection points: 2
#     Edge 18, Type (0, 0), BuildingBlock: CIFDUS_clean_linker_0, # of connection points: 2
#     Edge 19, Type (0, 0), BuildingBlock: CIFDUS_clean_linker_0, # of connection points: 2
#     Edge 20, Type (0, 0), BuildingBlock: CIFDUS_clean_linker_0, # of connection points: 2
#     Edge 21, Type (0, 0), BuildingBlock: CIFDUS_clean_linker_0, # of connection points: 2
#     Edge 22, Type (0, 0), BuildingBlock: CIFDUS_clean_linker_0, # of connection points: 2
#     Edge 23, Type (0, 0), BuildingBlock: CIFDUS_clean_linker_0, # of connection points: 2
#     Edge 24, Type (0, 0), BuildingBlock: CIFDUS_clean_linker_0, # of connection points: 2
#     Edge 25, Type (0, 0), BuildingBlock: CIFDUS_clean_linker_0, # of connection points: 2
#     Edge 26, Type (0, 0), BuildingBlock: CIFDUS_clean_linker_0, # of connection points: 2
#     Edge 27, Type (0, 0), BuildingBlock: CIFDUS_clean_linker_0, # of connection points: 2
#     Edge 28, Type (0, 0), BuildingBlock: CIFDUS_clean_linker_0, # of connection points: 2
#     Edge 29, Type (0, 0), BuildingBlock: CIFDUS_clean_linker_0, # of connection points: 2
#     Edge 30, Type (0, 0), BuildingBlock: CIFDUS_clean_linker_0, # of connection points: 2
#     Edge 31, Type (0, 0), BuildingBlock: CIFDUS_clean_linker_0, # of connection points: 2
#     Edge 32, Type (0, 0), BuildingBlock: CIFDUS_clean_linker_0, # of connection points: 2
#     Edge 33, Type (0, 0), BuildingBlock: CIFDUS_clean_linker_0, # of connection points: 2
#     Edge 34, Type (0, 0), BuildingBlock: CIFDUS_clean_linker_0, # of connection points: 2
#     Edge 35, Type (0, 0), BuildingBlock: CIFDUS_clean_linker_0, # of connection points: 2
#     Edge 36, Type (0, 0), BuildingBlock: CIFDUS_clean_linker_0, # of connection points: 2
#     Edge 37, Type (0, 0), BuildingBlock: CIFDUS_clean_linker_0, # of connection points: 2
#     Edge 38, Type (0, 0), BuildingBlock: CIFDUS_clean_linker_0, # of connection points: 2
#     Edge 39, Type (0, 0), BuildingBlock: CIFDUS_clean_linker_0, # of connection points: 2
#     Edge 40, Type (0, 0), BuildingBlock: CIFDUS_clean_linker_0, # of connection points: 2
#     Edge 41, Type (0, 0), BuildingBlock: CIFDUS_clean_linker_0, # of connection points: 2
#     Edge 42, Type (0, 0), BuildingBlock: CIFDUS_clean_linker_0, # of connection points: 2
#     Edge 43, Type (0, 0), BuildingBlock: CIFDUS_clean_linker_0, # of connection points: 2
#     Edge 44, Type (0, 0), BuildingBlock: CIFDUS_clean_linker_0, # of connection points: 2
#     Edge 45, Type (0, 0), BuildingBlock: CIFDUS_clean_linker_0, # of connection points: 2
#     Edge 46, Type (0, 0), BuildingBlock: CIFDUS_clean_linker_0, # of connection points: 2
#     Edge 47, Type (0, 0), BuildingBlock: CIFDUS_clean_linker_0, # of connection points: 2
#     Edge 48, Type (0, 0), BuildingBlock: CIFDUS_clean_linker_0, # of connection points: 2
#     Edge 49, Type (0, 0), BuildingBlock: CIFDUS_clean_linker_0, # of connection points: 2
#     Edge 50, Type (0, 0), BuildingBlock: CIFDUS_clean_linker_0, # of connection points: 2
#     Edge 51, Type (0, 0), BuildingBlock: CIFDUS_clean_linker_0, # of connection points: 2
#     Edge 52, Type (0, 0), BuildingBlock: CIFDUS_clean_linker_0, # of connection points: 2
#     Edge 53, Type (0, 0), BuildingBlock: CIFDUS_clean_linker_0, # of connection points: 2
#     Edge 54, Type (0, 0), BuildingBlock: CIFDUS_clean_linker_0, # of connection points: 2
#     Edge 55, Type (0, 0), BuildingBlock: CIFDUS_clean_linker_0, # of connection points: 2
# Relax obj value: 0.478
# Max RMSD: 0.312
# Mean RMSD: 0.312
data_MOF--net-yff--node1-XOMCOT_clean_sbu_1--edge1-CIFDUS_clean_linker_0
_symmetry_space_group_name_H-M    P1
_symmetry_Int_Tables_number       1
_symmetry_cell_setting            triclinic
loop_
_symmetry_equiv_pos_as_xyz
'x, y, z'
_cell_length_a     54.016186
_cell_length_b     53.835731
_cell_length_c     26.236818
_cell_angle_alpha  89.816129
_cell_angle_beta   89.700203
_cell_angle_gamma 90.217362
loop_
_atom_site_label
_atom_site_type_symbol
_atom_site_fract_x
_atom_site_fract_y
_atom_site_fract_z
_atom_type_partial_charge
C0 C 0.13417 0.00983 0.3772 0.0
C1 C 0.13346 0.99296 0.33788 0.0
N2 N 0.11178 -0.00428 0.31352 0.0
N3 N 0.11261 0.02248 0.37866 0.0
C4 C 0.0999 0.01412 0.33802 0.0
H5 H 0.1491 0.01189 0.40416 0.0
Co6 Co 0.10134 0.04593 0.42612 0.0
C7 C 0.09895 0.07472 0.34446 0.0
O8 O 0.12194 0.07735 0.35985 0.0
N9 N 0.09063 0.06956 0.47252 0.0
C10 C 0.08856 0.10463 0.5165 0.0
C11 C 0.09424 0.09432 0.46993 0.0
C12 C 0.08237 0.06526 0.52041 0.0
N13 N 0.08122 0.08624 0.54815 0.0
O14 O 0.07159 0.0263 0.44255 0.0
H15 H 0.10215 0.10405 0.43761 0.0
H16 H 0.07951 0.04683 0.53608 0.0
O17 O 0.08406 0.06232 0.37257 0.0
C18 C 0.06294 0.00438 0.43583 0.0
O19 O 0.07625 0.98744 0.41264 0.0
N20 N 0.1201 0.03103 0.47731 0.0
C21 C 0.15967 0.01053 0.52907 0.0
C22 C 0.16003 0.03562 0.51505 0.0
C23 C 0.14011 0.04542 0.48853 0.0
C24 C 0.11819 0.00736 0.49591 0.0
C25 C 0.13812 -0.00344 0.52134 0.0
H26 H 0.14149 0.06401 0.473 0.0
H27 H 0.10245 -0.0041 0.4878 0.0
H28 H 0.0811 0.01967 0.32959 0.0
H29 H 0.14722 0.97899 0.32937 0.0
H30 H 0.09091 0.12391 0.52709 0.0
H31 H 0.17655 0.04685 0.51975 0.0
H32 H 0.13739 0.97706 0.53157 0.0
C33 C 0.46857 0.10119 0.93892 0.0
C34 C 0.48713 0.10169 0.90292 0.0
N35 N 0.48542 0.08091 0.87471 0.0
N36 N 0.45483 0.08045 0.93281 0.0
C37 C 0.46577 0.06824 0.89377 0.0
H38 H 0.46539 0.11496 0.96814 0.0
Co39 Co 0.42841 0.07105 0.97501 0.0
C40 C 0.39095 0.05982 0.89325 0.0
O41 O 0.37445 0.07485 0.91327 0.0
N42 N 0.40306 0.06125 0.02113 0.0
C43 C 0.37231 0.04315 0.06491 0.0
C44 C 0.38152 0.04857 0.01686 0.0
C45 C 0.40668 0.06266 0.07214 0.0
N46 N 0.38837 0.05187 0.0996 0.0
O47 O 0.44434 0.04035 0.98662 0.0
H48 H 0.37365 0.04192 0.98177 0.0
H49 H 0.42293 0.07092 0.08908 0.0
O50 O 0.41168 0.05652 0.91559 0.0
C51 C 0.46068 0.04166 0.02112 0.0
O52 O 0.46374 0.06278 0.04529 0.0
N53 N 0.4139 0.10256 0.96446 0.0
C54 C 0.40824 0.1538 0.95195 0.0
C55 C 0.40905 0.13804 0.9096 0.0
C56 C 0.41238 0.11262 0.9166 0.0
C57 C 0.41148 0.11744 1.00616 0.0
C58 C 0.40848 0.14309 1.00078 0.0
H59 H 0.41609 0.10148 0.8833 0.0
H60 H 0.41418 0.10994 0.04385 0.0
H61 H 0.4596 0.05035 0.87993 0.0
H62 H 0.50129 0.11585 0.8988 0.0
H63 H 0.35597 0.03219 0.07359 0.0
H64 H 0.40885 0.14545 0.87117 0.0
H65 H 0.40844 0.15454 0.03463 0.0
C66 C 0.36205 0.45908 0.38275 0.0
C67 C 0.36435 0.47997 0.35237 0.0
N68 N 0.38709 0.47995 0.33091 0.0
N69 N 0.38312 0.44581 0.37974 0.0
C70 C 0.39791 0.45895 0.34784 0.0
H71 H 0.34651 0.45446 0.4072 0.0
Co72 Co 0.39329 0.4187 0.419 0.0
C73 C 0.40866 0.38359 0.33748 0.0
O74 O 0.39779 0.3648 0.36073 0.0
N75 N 0.40464 0.39276 0.46086 0.0
C76 C 0.43214 0.36889 0.50067 0.0
C77 C 0.42453 0.37788 0.45425 0.0
C78 C 0.40109 0.3929 0.51199 0.0
N79 N 0.41746 0.37856 0.537 0.0
O80 O 0.42213 0.43628 0.43492 0.0
H81 H 0.43514 0.37617 0.41952 0.0
H82 H 0.389 0.4059 0.53112 0.0
O83 O 0.40897 0.40501 0.35827 0.0
C84 C 0.41935 0.45151 0.47137 0.0
O85 O 0.39795 0.45244 0.49533 0.0
N86 N 0.36341 0.40216 0.40475 0.0
C87 C 0.31303 0.3952 0.38952 0.0
C88 C 0.32911 0.39749 0.34778 0.0
C89 C 0.35428 0.40124 0.35623 0.0
C90 C 0.34826 0.39739 0.44533 0.0
C91 C 0.32302 0.39349 0.43851 0.0
H92 H 0.36567 0.40646 0.32398 0.0
H93 H 0.3549 0.39942 0.48362 0.0
H94 H 0.41674 0.45367 0.33894 0.0
H95 H 0.35088 0.4947 0.34874 0.0
H96 H 0.44864 0.35806 0.50755 0.0
H97 H 0.32199 0.39913 0.3094 0.0
H98 H 0.31115 0.39228 0.47185 0.0
C99 C 0.02092 0.37995 0.90736 0.0
C100 C 0.00013 0.3797 0.87738 0.0
N101 N -0.00113 0.40165 0.85286 0.0
N102 N 0.03291 0.40177 0.90081 0.0
C103 C 0.01891 0.41471 0.86776 0.0
H104 H 0.02674 0.36535 0.933 0.0
Co105 Co 0.06083 0.41197 0.93579 0.0
C106 C 0.09393 0.42754 0.85089 0.0
O107 O 0.11198 0.41448 0.87094 0.0
N108 N 0.08789 0.42244 0.9746 0.0
C109 C 0.11818 0.4434 0.01292 0.0
C110 C 0.10587 0.43972 0.96768 0.0
C111 C 0.0889 0.41702 0.02481 0.0
N112 N 0.10726 0.42916 0.04873 0.0
O113 O 0.04384 0.44095 0.95567 0.0
H114 H 0.1087 0.4507 0.93367 0.0
H115 H 0.07546 0.40537 0.04424 0.0
O116 O 0.07312 0.42903 0.8742 0.0
C117 C 0.0293 0.43848 0.99364 0.0
O118 O 0.02831 0.41701 0.01758 0.0
N119 N 0.07657 0.3821 0.91692 0.0
C120 C 0.08469 0.33235 0.8935 0.0
C121 C 0.08098 0.34977 0.85468 0.0
C122 C 0.07621 0.37433 0.86725 0.0
C123 C 0.08214 0.36571 0.9548 0.0
C124 C 0.08639 0.34076 0.94393 0.0
H125 H 0.06977 0.38638 0.83722 0.0
H126 H 0.08079 0.37113 0.99413 0.0
H127 H 0.02312 0.43349 0.85555 0.0
H128 H 0.9865 0.36494 0.87521 0.0
H129 H 0.13265 0.45692 0.01991 0.0
H130 H 0.07954 0.34411 0.81522 0.0
H131 H 0.08856 0.32789 0.97538 0.0
C132 C 0.61004 0.02299 0.61893 0.0
C133 C 0.59725 0.03725 0.65387 0.0
N134 N 0.58135 0.02239 0.67972 0.0
N135 N 0.60233 -0.00076 0.623 0.0
C136 C 0.58489 -0.00047 0.66008 0.0
H137 H 0.62369 0.02961 0.59177 0.0
Co138 Co 0.61028 0.97138 0.5843 0.0
C139 C 0.62445 0.93623 0.67084 0.0
O140 O 0.64458 0.92798 0.64828 0.0
N141 N 0.61712 0.94295 0.54429 0.0
C142 C 0.61459 0.90454 0.51319 0.0
C143 C 0.61233 0.91895 0.5561 0.0
C144 C 0.62141 0.94256 0.49331 0.0
N145 N 0.62013 0.91943 0.47342 0.0
O146 O 0.57629 0.96493 0.57633 0.0
H147 H 0.60527 0.91238 0.59226 0.0
H148 H 0.62368 0.9591 0.47042 0.0
O149 O 0.61073 0.95209 0.64819 0.0
C150 C 0.56866 0.97572 0.53617 0.0
O151 O 0.58476 0.9876 0.50724 0.0
N152 N 0.64384 0.97965 0.58778 0.0
C153 C 0.69335 0.99303 0.57625 0.0
C154 C 0.68385 0.9864 0.6244 0.0
C155 C 0.65875 0.98034 0.62961 0.0
C156 C 0.65221 0.9887 0.54233 0.0
C157 C 0.67692 -0.00485 0.53544 0.0
H158 H 0.65147 0.97633 0.6671 0.0
H159 H 0.6395 0.9912 0.51121 0.0
H160 H 0.57423 0.98329 0.6709 0.0
H161 H 0.59947 0.05704 0.65941 0.0
H162 H 0.61031 0.88492 0.51083 0.0
H163 H 0.69576 0.98527 0.65741 0.0
H164 H 0.68315 0.00152 0.4983 0.0
C165 C 0.43821 0.61883 0.09033 0.0
C166 C 0.42069 0.60841 0.12239 0.0
N167 N 0.43112 0.58922 0.14751 0.0
N168 N 0.45966 0.60643 0.09551 0.0
C169 C 0.45479 0.58863 0.13059 0.0
H170 H 0.43524 0.63384 0.06357 0.0
Co171 Co 0.48843 0.60894 0.05633 0.0
C172 C 0.52443 0.61818 0.14248 0.0
O173 O 0.53429 0.63776 0.12007 0.0
N174 N 0.51713 0.61025 0.01486 0.0
C175 C 0.55489 0.60797 0.98055 0.0
C176 C 0.54145 0.60736 0.02525 0.0
C177 C 0.51633 0.61106 0.96326 0.0
N178 N 0.539 0.61028 0.94159 0.0
O179 O 0.48842 0.57397 0.04792 0.0
H180 H 0.54918 0.6036 0.06222 0.0
H181 H 0.4993 0.61195 0.94181 0.0
O182 O 0.50767 0.60554 0.11978 0.0
C183 C 0.47448 0.56663 0.012 0.0
O184 O 0.46137 0.58318 0.98714 0.0
N185 N 0.48755 0.64402 0.0613 0.0
C186 C 0.49418 0.6953 0.05878 0.0
C187 C 0.49068 0.68291 0.10547 0.0
C188 C 0.48672 0.65716 0.10579 0.0
C189 C 0.48691 0.65639 0.01594 0.0
C190 C 0.49072 0.68194 0.01369 0.0
H191 H 0.48445 0.64765 0.14187 0.0
H192 H 0.48412 0.64641 0.98096 0.0
H193 H 0.46805 0.5745 0.14102 0.0
H194 H 0.40158 0.61416 0.12574 0.0
H195 H 0.57474 0.60582 0.97683 0.0
H196 H 0.49232 0.69269 0.14131 0.0
H197 H 0.49172 0.69103 0.97683 0.0
C198 C 0.86879 0.47083 0.62746 0.0
C199 C 0.87966 0.45511 0.66226 0.0
N200 N 0.89624 0.4683 0.68947 0.0
N201 N 0.87839 0.49378 0.63314 0.0
C202 C 0.89499 0.49165 0.67101 0.0
H203 H 0.85536 0.46576 0.59885 0.0
Co204 Co 0.87371 0.52152 0.59276 0.0
C205 C 0.86245 0.55821 0.67508 0.0
O206 O 0.84189 0.56573 0.65343 0.0
N207 N 0.87024 0.54912 0.54988 0.0
C208 C 0.86967 0.58573 0.51016 0.0
C209 C 0.87096 0.574 0.55679 0.0
C210 C 0.86996 0.54634 0.49879 0.0
N211 N 0.86908 0.56819 0.47385 0.0
O212 O 0.90819 0.52421 0.58383 0.0
H213 H 0.87366 0.58336 0.59256 0.0
H214 H 0.87035 0.52843 0.48019 0.0
O215 O 0.87619 0.54216 0.65323 0.0
C216 C 0.91823 0.51057 0.55032 0.0
O217 O 0.90426 0.49543 0.52366 0.0
N218 N 0.83914 0.51826 0.60101 0.0
C219 C 0.78816 0.52242 0.61135 0.0
C220 C 0.80286 0.5177 0.65411 0.0
C221 C 0.82838 0.51517 0.64795 0.0
C222 C 0.82472 0.51893 0.55863 0.0
C223 C 0.79924 0.52168 0.5629 0.0
H224 H 0.83966 0.5125 0.68143 0.0
H225 H 0.83286 0.51837 0.52117 0.0
H226 H 0.90704 0.50669 0.68257 0.0
H227 H 0.87604 0.43542 0.66624 0.0
H228 H 0.87017 0.60557 0.50337 0.0
H229 H 0.79491 0.517 0.69207 0.0
H230 H 0.78866 0.52463 0.52849 0.0
C231 C 0.01846 0.85909 0.14242 0.0
C232 C 0.03882 0.86535 0.17123 0.0
N233 N 0.03469 0.88782 0.19191 0.0
N234 N 0.00162 0.87747 0.14556 0.0
C235 C 0.01186 0.8944 0.17675 0.0
H236 H 0.01704 0.84324 0.1174 0.0
Co237 Co 0.97484 0.88338 0.10348 0.0
C238 C 0.93683 0.90436 0.17993 0.0
O239 O 0.91775 0.90771 0.15001 0.0
N240 N 0.94881 0.88915 0.05824 0.0
C241 C 0.91583 0.88421 1.00871 0.0
C242 C 0.92542 0.88021 0.05667 0.0
C243 C 0.95296 0.89826 0.01086 0.0
N244 N 0.93329 0.89554 0.97997 0.0
O245 O 0.98595 0.91617 0.09323 0.0
H246 H 0.91652 0.86977 0.08694 0.0
H247 H 0.97084 0.90475 0.99771 0.0
O248 O 0.95698 0.89537 0.16277 0.0
C249 C 0.00463 0.92224 0.06645 0.0
O250 O 0.01725 0.90506 0.04227 0.0
N251 N 0.96382 0.85103 0.11288 0.0
C252 C 0.94276 0.80389 0.10794 0.0
C253 C 0.93811 0.81944 0.14979 0.0
C254 C 0.94928 0.84276 0.15212 0.0
C255 C 0.96957 0.83592 0.07322 0.0
C256 C 0.9596 0.81211 0.07039 0.0
H257 H 0.94523 0.85428 0.18456 0.0
H258 H 0.98142 0.84277 0.04287 0.0
H259 H 0.0036 0.91228 0.18463 0.0
H260 H 0.05612 0.85531 0.17295 0.0
H261 H 0.89784 0.87823 0.99538 0.0
H262 H 0.92528 0.81423 0.17979 0.0
H263 H 0.96478 0.80056 0.03843 0.0
C264 C 0.86982 0.97376 0.66807 0.0
C265 C 0.87295 0.99144 0.70545 0.0
N266 N 0.8969 0.9914 0.71944 0.0
N267 N 0.89183 0.96295 0.6581 0.0
C268 C 0.9076 0.97335 0.69163 0.0
H269 H 0.85283 0.96995 0.64789 0.0
Co270 Co 0.90052 0.93988 0.60781 0.0
C271 C 0.90801 0.90966 0.68441 0.0
O272 O 0.88485 0.90616 0.67101 0.0
N273 N 0.90906 0.91666 0.55767 0.0
C274 C 0.9091 0.8822 0.51123 0.0
C275 C 0.90607 0.89178 0.55948 0.0
C276 C 0.91436 0.9217 0.50819 0.0
N277 N 0.91425 0.90109 0.47909 0.0
O278 O 0.92822 0.9607 0.58379 0.0
H279 H 0.90032 0.88137 0.59277 0.0
H280 H 0.91604 0.94035 0.49295 0.0
O281 O 0.92147 0.92395 0.65686 0.0
C282 C 0.93535 0.9834 0.58549 0.0
O283 O 0.92155 0.0003 0.60762 0.0
N284 N 0.87773 0.95379 0.56278 0.0
C285 C 0.83365 0.97023 0.5213 0.0
C286 C 0.83594 0.9457 0.53801 0.0
C287 C 0.85808 0.93798 0.55931 0.0
C288 C 0.87665 0.97705 0.54195 0.0
C289 C 0.8544 0.98588 0.52182 0.0
H290 H 0.85907 0.91975 0.5766 0.0
H291 H 0.89214 0.9895 0.54325 0.0
H292 H 0.92714 0.96902 0.69283 0.0
H293 H 0.85909 0.00442 0.71869 0.0
H294 H 0.90649 0.86302 0.50014 0.0
H295 H 0.8201 0.93329 0.53884 0.0
H296 H 0.85304 0.00501 0.50928 0.0
C297 C 0.52372 0.93055 0.08596 0.0
C298 C 0.50439 0.93616 0.11777 0.0
N299 N 0.51314 0.93763 0.16557 0.0
N300 N 0.54469 0.92869 0.11324 0.0
C301 C 0.53773 0.93324 0.16196 0.0
H302 H 0.52249 0.92694 0.04552 0.0
Co303 Co 0.57247 0.91613 0.08072 0.0
C304 C 0.59956 0.89697 0.17664 0.0
O305 O 0.60228 0.8735 0.1644 0.0
N306 N 0.59902 0.90416 0.04303 0.0
C307 C 0.62811 0.88453 0.99861 0.0
C308 C 0.6164 0.88628 0.04557 0.0
C309 C 0.6006 0.91288 0.99489 0.0
N310 N 0.61786 0.90119 0.96656 0.0
O311 O 0.58838 0.94811 0.07893 0.0
H312 H 0.61954 0.8743 0.07781 0.0
H313 H 0.58843 0.92721 0.98066 0.0
O314 O 0.58881 0.91186 0.14605 0.0
C315 C 0.58385 0.97123 0.07945 0.0
O316 O 0.60248 0.98694 0.08121 0.0
N317 N 0.55766 0.88438 0.08287 0.0
C318 C 0.53423 0.83802 0.08239 0.0
C319 C 0.5381 0.85074 0.12819 0.0
C320 C 0.54958 0.87397 0.12755 0.0
C321 C 0.55324 0.87275 0.03773 0.0
C322 C 0.54175 0.84945 0.03663 0.0
H323 H 0.55176 0.88362 0.16322 0.0
H324 H 0.5585 0.88162 1.00225 0.0
H325 H 0.54986 0.93146 0.19441 0.0
H326 H 0.48518 0.93806 0.10694 0.0
H327 H 0.64214 0.87113 0.98832 0.0
H328 H 0.53263 0.84272 0.16445 0.0
H329 H 0.53854 0.84062 1.00021 0.0
C330 C 0.59044 0.51939 0.57464 0.0
C331 C 0.58759 0.49892 0.60569 0.0
N332 N 0.56772 0.50255 0.63609 0.0
N333 N 0.57267 0.53604 0.58579 0.0
C334 C 0.55902 0.52522 0.62301 0.0
H335 H 0.60443 0.52193 0.54541 0.0
Co336 Co 0.56698 0.56587 0.5514 0.0
C337 C 0.56034 0.59877 0.64239 0.0
O338 O 0.57772 0.61409 0.62623 0.0
N339 N 0.56055 0.59488 0.51339 0.0
C340 C 0.54612 0.62979 0.47869 0.0
C341 C 0.55043 0.61725 0.52378 0.0
C342 C 0.5615 0.59417 0.46188 0.0
N343 N 0.55291 0.61502 0.43984 0.0
O344 O 0.53526 0.55428 0.5349 0.0
H345 H 0.54474 0.62362 0.56092 0.0
H346 H 0.56791 0.57827 0.4406 0.0
O347 O 0.55406 0.58021 0.61497 0.0
C348 C 0.53604 0.53974 0.49686 0.0
O349 O 0.55744 0.5356 0.47447 0.0
N350 N 0.59958 0.57592 0.56545 0.0
C351 C 0.65038 0.56984 0.57379 0.0
C352 C 0.63533 0.5688 0.6173 0.0
C353 C 0.60986 0.57175 0.61228 0.0
C354 C 0.61438 0.57959 0.52385 0.0
C355 C 0.63991 0.57695 0.52733 0.0
H356 H 0.59832 0.56743 0.64489 0.0
H357 H 0.6065 0.58172 0.48652 0.0
H358 H 0.54245 0.53349 0.63875 0.0
H359 H 0.59929 0.48266 0.60564 0.0
H360 H 0.53723 0.64768 0.47471 0.0
H361 H 0.64271 0.56303 0.65376 0.0
H362 H 0.65106 0.57813 0.49295 0.0
C363 C 0.95708 0.61029 0.1089 0.0
C364 C 0.97762 0.60786 0.1394 0.0
N365 N 0.97499 0.587 0.1676 0.0
N366 N 0.94149 0.59122 0.11837 0.0
C367 C 0.95296 0.57727 0.15377 0.0
H368 H 0.95377 0.62485 0.08131 0.0
Co369 Co 0.91208 0.58388 0.0852 0.0
C370 C 0.87935 0.57396 0.17296 0.0
O371 O 0.86275 0.58902 0.15349 0.0
N372 N 0.88366 0.57562 0.04869 0.0
C373 C 0.85101 0.55769 0.01225 0.0
C374 C 0.86365 0.56097 0.05732 0.0
C375 C 0.88329 0.57992 0.99811 0.0
N376 N 0.86363 0.56957 0.97514 0.0
O377 O 0.92598 0.55316 0.06544 0.0
H378 H 0.85938 0.55154 0.09265 0.0
H379 H 0.89772 0.59007 0.97818 0.0
O380 O 0.89907 0.56905 0.14787 0.0
C381 C 0.94014 0.55466 0.02664 0.0
O382 O 0.94254 0.57616 1.00324 0.0
N383 N 0.89927 0.61549 0.10384 0.0
C384 C 0.89154 0.66574 0.12472 0.0
C385 C 0.90078 0.64972 0.16229 0.0
C386 C 0.90417 0.6247 0.15133 0.0
C387 C 0.88853 0.63044 0.06824 0.0
C388 C 0.88369 0.65531 0.07857 0.0
H389 H 0.91259 0.61314 0.18012 0.0
H390 H 0.88489 0.62395 0.03039 0.0
H391 H 0.94563 0.55977 0.16761 0.0
H392 H -0.00677 0.62049 0.14048 0.0
H393 H 0.83488 0.54604 1.00656 0.0
H394 H 0.90731 0.65654 0.19857 0.0
H395 H 0.87547 0.66655 0.04893 0.0
C396 C 0.38059 0.94159 0.43752 0.0
C397 C 0.39342 0.92834 0.40103 0.0
N398 N 0.40952 0.94392 0.37779 0.0
N399 N 0.38835 0.96543 0.43634 0.0
C400 C 0.40594 0.96619 0.39969 0.0
H401 H 0.36687 0.93425 0.46374 0.0
Co402 Co 0.38034 0.99208 0.47795 0.0
C403 C 0.3625 0.02766 0.39591 0.0
O404 O 0.34257 0.03344 0.42224 0.0
N405 N 0.37341 0.01916 0.52182 0.0
C406 C 0.37102 0.05649 0.55822 0.0
C407 C 0.37355 0.04392 0.51287 0.0
C408 C 0.37206 0.01741 0.57336 0.0
N409 N 0.37024 0.03973 0.59626 0.0
O410 O 0.41432 -0.00085 0.48475 0.0
H411 H 0.37712 0.05266 0.47653 0.0
H412 H 0.37351 0.00015 0.59421 0.0
O413 O 0.37844 0.01286 0.41527 0.0
C414 C 0.42243 0.98645 0.52205 0.0
O415 O 0.40684 0.97254 0.54819 0.0
N416 N 0.34679 0.9831 0.4754 0.0
C417 C 0.2969 0.97131 0.48627 0.0
C418 C 0.30702 0.97619 0.4378 0.0
C419 C 0.33233 0.98137 0.43301 0.0
C420 C 0.33787 0.97507 0.52123 0.0
C421 C 0.31293 0.96947 0.52779 0.0
H422 H 0.34008 0.98445 0.3955 0.0
H423 H 0.35015 0.97302 0.55313 0.0
H424 H 0.41614 0.98284 0.38946 0.0
H425 H 0.39155 0.9087 0.39313 0.0
H426 H 0.37137 0.07645 0.56312 0.0
H427 H 0.29544 0.97698 0.40428 0.0
H428 H 0.30617 0.96431 0.56532 0.0
C429 C 0.51192 0.36396 0.8713 0.0
C430 C 0.52855 0.37276 0.83521 0.0
N431 N 0.51896 0.39338 0.81388 0.0
N432 N 0.49191 0.37885 0.87191 0.0
C433 C 0.49676 0.39644 0.83649 0.0
H434 H 0.51461 0.3483 0.89657 0.0
Co435 Co 0.46465 0.37976 0.91531 0.0
C436 C 0.42348 0.37737 0.83905 0.0
O437 O 0.41014 0.36224 0.86755 0.0
N438 N 0.43772 0.38228 0.96039 0.0
C439 C 0.40581 0.39942 1.00128 0.0
C440 C 0.41661 0.39543 0.95448 0.0
C441 C 0.4397 0.37947 0.01146 0.0
N442 N 0.42043 0.38934 0.03699 0.0
O443 O 0.46949 0.41437 0.924 0.0
H444 H 0.41073 0.40418 0.91954 0.0
H445 H 0.45634 0.37316 0.03013 0.0
O446 O 0.44405 0.38588 0.85555 0.0
C447 C 0.48439 0.42122 0.95863 0.0
O448 O 0.49658 0.40423 0.98422 0.0
N449 N 0.46035 0.34495 0.90862 0.0
C450 C 0.45041 0.2941 0.90463 0.0
C451 C 0.45265 0.30807 0.85965 0.0
C452 C 0.45802 0.33345 0.86245 0.0
C453 C 0.46081 0.33103 0.95209 0.0
C454 C 0.45532 0.30573 0.95115 0.0
H455 H 0.46001 0.34388 0.82743 0.0
H456 H 0.46557 0.33935 0.9879 0.0
H457 H 0.48438 0.41169 0.82838 0.0
H458 H 0.54672 0.36528 0.82706 0.0
H459 H 0.38949 0.41047 1.00876 0.0
H460 H 0.44978 0.2996 0.82274 0.0
H461 H 0.45514 0.2953 0.98654 0.0
C462 C 0.11439 0.53189 0.39438 0.0
C463 C 0.10467 0.54895 0.36074 0.0
N464 N 0.08555 0.53813 0.33652 0.0
N465 N 0.10167 0.51038 0.39045 0.0
C466 C 0.08422 0.51479 0.35508 0.0
H467 H 0.12926 0.53514 0.42103 0.0
Co468 Co 0.10423 0.48209 0.43048 0.0
C469 C 0.11015 0.4442 0.34828 0.0
O470 O 0.13001 0.43486 0.36969 0.0
N471 N 0.10547 0.45435 0.47369 0.0
C472 C 0.1027 0.41806 0.51439 0.0
C473 C 0.10206 0.42963 0.46752 0.0
C474 C 0.10665 0.45734 0.52474 0.0
N475 N 0.10551 0.43562 0.5502 0.0
O476 O 0.06992 0.48308 0.44218 0.0
H477 H 0.09791 0.42042 0.43218 0.0
H478 H 0.10841 0.47528 0.5429 0.0
O479 O 0.09819 0.4617 0.37007 0.0
C480 C 0.06043 0.49745 0.47503 0.0
O481 O 0.0749 0.51202 0.50187 0.0
N482 N 0.13886 0.48127 0.41852 0.0
C483 C 0.1876 0.46885 0.39768 0.0
C484 C 0.17244 0.47775 0.35875 0.0
C485 C 0.1481 0.48421 0.37014 0.0
C486 C 0.15459 0.47643 0.45777 0.0
C487 C 0.17898 0.46955 0.44806 0.0
H488 H 0.13608 0.48931 0.33903 0.0
H489 H 0.14816 0.47663 0.49665 0.0
H490 H 0.07028 0.50133 0.34428 0.0
H491 H 0.11039 0.56813 0.35626 0.0
H492 H 0.10022 0.39841 0.52179 0.0
H493 H 0.17868 0.47794 0.31944 0.0
H494 H 0.19069 0.4639 0.4794 0.0
C495 C -0.00447 0.11715 0.90741 0.0
C496 C 0.97626 0.10857 0.87795 0.0
N497 N 0.98494 0.0903 0.84781 0.0
N498 N 0.01615 0.10432 0.89564 0.0
C499 C 0.00915 0.08825 0.85916 0.0
H500 H -0.00572 0.13073 0.9376 0.0
Co501 Co 0.04542 0.10329 0.9318 0.0
C502 C 0.08231 0.10824 0.84707 0.0
O503 O 0.09507 0.12503 0.87218 0.0
N504 N 0.07412 0.10098 0.97122 0.0
C505 C 0.10971 0.09038 1.00771 0.0
C506 C 0.09732 0.09269 0.96215 0.0
C507 C 0.07258 0.10217 0.02252 0.0
N508 N 0.09395 0.09626 0.04563 0.0
O509 O 0.04187 0.06879 0.93883 0.0
H510 H 0.1044 0.08667 0.92573 0.0
H511 H 0.0556 0.10634 0.04274 0.0
O512 O 0.06341 0.09802 0.86797 0.0
C513 C 0.02933 0.06076 0.97639 0.0
O514 O 0.01861 0.07674 1.0071 0.0
N515 N 0.04871 0.13802 0.92553 0.0
C516 C 0.06179 0.18775 0.91712 0.0
C517 C 0.05478 0.17432 0.87383 0.0
C518 C 0.04768 0.14954 0.8791 0.0
C519 C 0.05216 0.15176 0.96845 0.0
C520 C 0.05924 0.17657 0.96509 0.0
H521 H 0.04271 0.13924 0.84534 0.0
H522 H 0.04991 0.14359 1.00561 0.0
H523 H 0.02107 0.07378 0.84453 0.0
H524 H 0.95717 0.11452 0.8802 0.0
H525 H 0.12827 0.08331 0.01274 0.0
H526 H 0.0557 0.18251 0.83611 0.0
H527 H 0.0629 0.18683 0.99972 0.0
H528 H 0.96368 0.95677 0.51933 0.0
H529 H 0.96003 0.02726 0.59702 0.0
H530 H -0.00118 0.04023 0.55679 0.0
H531 H 0.03395 0.03151 0.50006 0.0
H532 H 0.0376 0.96099 0.42242 0.0
H533 H -0.00143 0.94825 0.46182 0.0
C534 C 0.97138 0.97495 0.52754 0.0
C535 C 0.95895 0.991 0.5611 0.0
C536 C -0.00634 0.98237 0.50412 0.0
C537 C 0.96914 0.01456 0.5711 0.0
C538 C 0.99135 0.02201 0.54816 0.0
C539 C 0.02618 0.01339 0.49157 0.0
C540 C 0.03876 -0.00277 0.45841 0.0
C541 C 0.00377 0.00608 0.51458 0.0
C542 C 0.0284 0.97379 0.44797 0.0
C543 C 0.00606 0.96645 0.47051 0.0
H544 H 0.4871 0.03269 0.10548 0.0
H545 H 0.47535 0.00666 0.95219 0.0
H546 H 0.51186 0.98002 0.95864 0.0
H547 H 0.55026 0.96877 1.00411 0.0
H548 H 0.56214 -0.00401 0.15627 0.0
H549 H 0.52236 0.01759 0.15438 0.0
C550 C 0.49231 0.02082 0.07386 0.0
C551 C 0.4789 0.02178 0.02829 0.0
C552 C 0.51346 0.00606 0.07752 0.0
C553 C 0.48548 0.00614 0.98771 0.0
C554 C 0.50645 0.99112 0.99121 0.0
C555 C 0.54377 0.97912 0.03696 0.0
C556 C 0.55869 0.98092 0.08033 0.0
C557 C 0.52107 0.99165 0.03525 0.0
C558 C 0.55063 -0.00553 0.12271 0.0
C559 C 0.528 0.00675 0.12159 0.0
H560 H 0.49488 0.53073 0.55328 0.0
H561 H 0.5291 0.51548 0.40769 0.0
H562 H 0.49565 0.48676 0.38676 0.0
H563 H 0.45809 0.46445 0.41171 0.0
H564 H 0.42385 0.47919 0.55747 0.0
H565 H 0.45612 0.50964 0.57673 0.0
C566 C 0.49478 0.52138 0.51671 0.0
C567 C 0.51436 0.52504 0.48214 0.0
C568 C 0.47579 0.50459 0.50534 0.0
C569 C 0.51422 0.51275 0.43501 0.0
C570 C 0.49519 0.49631 0.42308 0.0
C571 C 0.45778 0.47423 0.4478 0.0
C572 C 0.4389 0.46946 0.48341 0.0
C573 C 0.47618 0.49173 0.45839 0.0
C574 C 0.43836 0.48255 0.52961 0.0
C575 C 0.45673 0.49996 0.54059 0.0
H576 H 0.95069 0.5133 0.08184 0.0
H577 H 0.96555 0.54942 0.9377 0.0
H578 H -0.00516 0.51683 0.91509 0.0
H579 H 0.01702 0.47875 0.93713 0.0
H580 H 0.00237 0.44255 0.08123 0.0
H581 H 0.97234 0.47465 0.10318 0.0
C582 C 0.96014 0.51387 0.04527 0.0
C583 C 0.95599 0.5337 0.01151 0.0
C584 C 0.97721 0.49526 0.03277 0.0
C585 C 0.96851 0.53435 0.96443 0.0
C586 C 0.9853 0.51578 0.9515 0.0
C587 C 0.00739 0.47799 0.97349 0.0
C588 C 0.01201 0.45844 1.00766 0.0
C589 C 0.99002 0.49633 0.98564 0.0
C590 C -0.00086 0.45747 0.05432 0.0
C591 C 0.98194 0.47577 0.06686 0.0
H592 H 0.53027 0.96741 0.60075 0.0
H593 H 0.54783 0.98874 0.44599 0.0
H594 H 0.504 -0.0048 0.4283 0.0
H595 H 0.46069 -0.00485 0.45718 0.0
H596 H 0.44327 0.97357 0.61183 0.0
H597 H 0.48711 0.96723 0.62948 0.0
C598 C 0.52446 0.97323 0.56305 0.0
C599 C 0.54214 0.97753 0.52472 0.0
C600 C 0.49933 0.97724 0.55335 0.0
C601 C 0.53446 0.98534 0.47616 0.0
C602 C 0.50945 0.98913 0.46604 0.0
C603 C 0.46659 0.98938 0.49486 0.0
C604 C 0.44895 0.98496 0.53325 0.0
C605 C 0.49174 0.98536 0.5045 0.0
C606 C 0.45665 0.97707 0.58171 0.0
C607 C 0.48165 0.97337 0.5918 0.0
H608 H 0.50178 0.52826 0.04944 0.0
H609 H 0.44509 0.54584 0.93976 0.0
H610 H 0.44377 0.50266 0.91251 0.0
H611 H 0.45835 0.45988 0.92 0.0
H612 H 0.51488 0.4419 0.02968 0.0
H613 H 0.51671 0.48528 0.05637 0.0
C614 C 0.4891 0.52262 0.01967 0.0
C615 C 0.47353 0.54025 0.9968 0.0
C616 C 0.48846 0.49771 1.00395 0.0
C617 C 0.45727 0.53266 0.95811 0.0
C618 C 0.45651 0.50796 0.94238 0.0
C619 C 0.47118 0.46545 0.94955 0.0
C620 C 0.48645 0.44768 0.97277 0.0
C621 C 0.47202 0.49034 0.965 0.0
C622 C 0.50291 0.45521 0.01113 0.0
C623 C 0.50394 0.48001 0.02653 0.0
H624 H 0.94462 0.48531 0.47972 0.0
H625 H 0.95237 0.53767 0.60299 0.0
H626 H -0.00283 0.53845 0.59023 0.0
H627 H 0.03413 0.52387 0.54465 0.0
H628 H 0.02602 0.47143 0.42152 0.0
H629 H 0.98131 0.47113 0.43376 0.0
C630 C 0.95609 0.49691 0.5038 0.0
C631 C 0.94522 0.51136 0.54222 0.0
C632 C 0.98176 0.49725 0.49635 0.0
C633 C 0.96032 0.52636 0.57305 0.0
C634 C 0.98593 0.52681 0.56584 0.0
C635 C 0.02257 0.51241 0.52046 0.0
C636 C 0.03338 0.49766 0.48239 0.0
C637 C -0.00316 0.51228 0.52769 0.0
C638 C 0.01817 0.48291 0.45129 0.0
C639 C -0.00741 0.48272 0.45819 0.0
H640 H 0.02846 0.94392 0.98678 0.0
H641 H -0.00685 0.95965 0.13097 0.0
H642 H -0.00178 0.00413 0.11622 0.0
H643 H 0.01052 0.03841 0.06044 0.0
H644 H 0.04506 0.02303 0.91521 0.0
H645 H 0.04235 0.97848 0.93218 0.0
C646 C 0.02222 0.95713 0.01518 0.0
C647 C 0.01035 0.94868 0.05964 0.0
C648 C 0.02474 0.98266 1.00601 0.0
C649 C 0.00215 0.96586 0.09616 0.0
C650 C 0.005 0.99124 0.08777 0.0
C651 C 0.01743 0.02532 0.03247 0.0
C652 C 0.02777 0.03394 0.98655 0.0
C653 C 0.01582 -0.00016 0.0424 0.0
C654 C 0.03691 0.0168 0.95085 0.0
C655 C 0.03541 0.99134 0.96051 0.0
H656 H 0.12995 0.09266 0.27181 0.0
H657 H 0.05415 0.06973 0.29659 0.0
H658 H 0.04572 0.07506 0.20561 0.0
H659 H 0.06069 0.08383 0.11856 0.0
H660 H 0.13691 0.10507 0.0942 0.0
H661 H 0.14455 0.10232 0.1858 0.0
C662 C 0.11146 0.0891 0.25759 0.0
C663 C 0.09267 0.08088 0.29106 0.0
C664 C 0.10696 0.09154 0.20526 0.0
C665 C 0.0689 0.07621 0.27173 0.0
C666 C 0.06412 0.0791 0.21968 0.0
C667 C 0.07888 0.08817 0.13337 0.0
C668 C 0.09824 0.09471 0.09966 0.0
C669 C 0.08313 0.0864 0.18601 0.0
C670 C 0.12183 0.09976 0.11934 0.0
C671 C 0.12614 0.09834 0.17168 0.0
H672 H 0.36054 0.07861 0.82071 0.0
H673 H 0.41478 0.02136 0.84616 0.0
H674 H 0.41211 0.00902 0.75659 0.0
H675 H 0.39591 0.01604 0.66973 0.0
H676 H 0.34404 0.07527 0.6438 0.0
H677 H 0.34424 0.0854 0.73468 0.0
C678 C 0.37151 0.06318 0.80691 0.0
C679 C 0.38766 0.05077 0.84029 0.0
C680 C 0.37046 0.05672 0.75505 0.0
C681 C 0.40211 0.03114 0.82138 0.0
C682 C 0.40064 0.02413 0.77011 0.0
C683 C 0.38445 0.03094 0.68422 0.0
C684 C 0.36988 0.04486 0.6502 0.0
C685 C 0.38511 0.03699 0.73641 0.0
C686 C 0.35547 0.06444 0.66925 0.0
C687 C 0.35554 0.07016 0.72118 0.0
H688 H 0.40574 0.41929 0.26536 0.0
H689 H 0.4255 0.34251 0.28769 0.0
H690 H 0.4322 0.33779 0.19573 0.0
H691 H 0.4301 0.35511 0.10842 0.0
H692 H 0.40681 0.43083 0.0868 0.0
H693 H 0.40362 0.43645 0.17908 0.0
C694 C 0.41193 0.40164 0.25021 0.0
C695 C 0.41541 0.38133 0.28316 0.0
C696 C 0.41472 0.39884 0.1974 0.0
C697 C 0.42284 0.35841 0.26293 0.0
C698 C 0.42656 0.3557 0.21044 0.0
C699 C 0.42443 0.3728 0.12422 0.0
C700 C 0.41854 0.39249 0.09121 0.0
C701 C 0.42216 0.37569 0.17724 0.0
C702 C 0.41106 0.41535 0.11165 0.0
C703 C 0.4094 0.41859 0.1643 0.0
H704 H 0.08306 0.46301 0.6223 0.0
H705 H 0.13063 0.39997 0.59922 0.0
H706 H 0.13303 0.39336 0.6914 0.0
H707 H 0.12048 0.40462 0.77787 0.0
H708 H 0.06976 0.46518 0.80177 0.0
H709 H 0.06982 0.47397 0.70991 0.0
C710 C 0.09405 0.44798 0.63774 0.0
C711 C 0.10674 0.432 0.60439 0.0
C712 C 0.09481 0.44397 0.6907 0.0
C713 C 0.12063 0.41232 0.6244 0.0
C714 C 0.12207 0.40864 0.67697 0.0
C715 C 0.10976 0.42002 0.76311 0.0
C716 C 0.09547 0.43454 0.79651 0.0
C717 C 0.10914 0.42426 0.7104 0.0
C718 C 0.08109 0.45395 0.77672 0.0
C719 C 0.08106 0.45888 0.72428 0.0
H720 H 0.65477 0.91297 0.73923 0.0
H721 H 0.58167 0.94421 0.72388 0.0
H722 H 0.57309 0.93554 0.81349 0.0
H723 H 0.58639 0.91991 0.89632 0.0
H724 H 0.6599 0.89009 0.91396 0.0
H725 H 0.66804 0.89692 0.82315 0.0
C726 C 0.63688 0.91769 0.75535 0.0
C727 C 0.61891 0.92927 0.72463 0.0
C728 C 0.63212 0.9129 0.80738 0.0
C729 C 0.5959 0.93539 0.74645 0.0
C730 C 0.59096 0.93043 0.79781 0.0
C731 C 0.60435 0.91515 0.88079 0.0
C732 C 0.62259 0.9047 0.91256 0.0
C733 C 0.609 0.91943 0.82873 0.0
C734 C 0.64544 0.89803 0.8907 0.0
C735 C 0.65015 0.90205 0.8387 0.0
H736 H 0.54221 0.65048 0.21273 0.0
H737 H 0.5186 0.5744 0.1944 0.0
H738 H 0.5261 0.56648 0.28497 0.0
H739 H 0.53841 0.58155 0.36991 0.0
H740 H 0.55924 0.65825 0.38916 0.0
H741 H 0.55364 0.6657 0.29773 0.0
C742 C 0.53897 0.63208 0.2284 0.0
C743 C 0.53017 0.61295 0.19668 0.0
C744 C 0.54266 0.62787 0.28075 0.0
C745 C 0.52553 0.58938 0.2179 0.0
C746 C 0.52977 0.58487 0.2697 0.0
C747 C 0.54192 0.59982 0.3539 0.0
C748 C 0.54944 0.61932 0.38607 0.0
C749 C 0.53821 0.60401 0.30154 0.0
C750 C 0.55339 0.64304 0.36512 0.0
C751 C 0.55027 0.64724 0.31289 0.0
H752 H 0.898 0.5667 0.90154 0.0
H753 H 0.81933 0.57067 0.92804 0.0
H754 H 0.81198 0.57003 0.83583 0.0
H755 H 0.82814 0.56694 0.74818 0.0
H756 H 0.90683 0.56034 0.72294 0.0
H757 H 0.91415 0.56405 0.8145 0.0
C758 C 0.87928 0.56777 0.88707 0.0
C759 C 0.8592 0.56894 0.92124 0.0
C760 C 0.8753 0.56711 0.83443 0.0
C761 C 0.83499 0.56963 0.90221 0.0
C762 C 0.83084 0.56941 0.84966 0.0
C763 C 0.8469 0.56685 0.76272 0.0
C764 C 0.86698 0.56376 0.72906 0.0
C765 C 0.85087 0.56808 0.81545 0.0
C766 C 0.89116 0.56295 0.7483 0.0
C767 C 0.89532 0.56492 0.80054 0.0
H768 H 0.90139 0.88617 0.24321 0.0
H769 H 0.96801 0.93034 0.24054 0.0
H770 H 0.9664 0.93437 0.33356 0.0
H771 H 0.94665 0.92393 0.41637 0.0
H772 H 0.88254 0.87619 0.41907 0.0
H773 H 0.88245 0.87475 0.32582 0.0
C774 C 0.91529 0.89695 0.26313 0.0
C775 C 0.93453 0.90833 0.23536 0.0
C776 C 0.9148 0.89827 0.3167 0.0
C777 C 0.95291 0.92165 0.26139 0.0
C778 C 0.95203 0.92388 0.31448 0.0
C779 C 0.93271 0.9133 0.39626 0.0
C780 C 0.91467 0.90013 0.42426 0.0
C781 C 0.9332 0.91205 0.34264 0.0
C782 C 0.89675 0.88622 0.39813 0.0
C783 C 0.89662 0.88551 0.34489 0.0
H784 H 0.9106 0.86833 0.908 0.0
H785 H 0.95538 0.93373 0.93024 0.0
H786 H 0.95451 0.94247 0.83854 0.0
H787 H 0.93857 0.93282 0.75245 0.0
H788 H 0.8931 0.86764 0.73181 0.0
H789 H 0.89713 0.8572 0.82191 0.0
C790 C 0.92004 0.88456 0.89277 0.0
C791 C 0.93273 0.90056 0.92592 0.0
C792 C 0.9196 0.88932 0.84007 0.0
C793 C 0.94543 0.92118 0.90545 0.0
C794 C 0.94495 0.92616 0.85304 0.0
C795 C 0.93012 0.91601 0.76749 0.0
C796 C 0.91563 0.90096 0.73548 0.0
C797 C 0.93191 0.91046 0.81993 0.0
C798 C 0.90441 0.87946 0.7557 0.0
C799 C 0.90653 0.87358 0.80731 0.0
H800 H 0.60903 0.9483 0.39174 0.0
H801 H 0.63155 0.87434 0.43455 0.0
H802 H 0.62832 0.86098 0.34603 0.0
H803 H 0.617 0.8697 0.25696 0.0
H804 H 0.59513 0.94398 0.21449 0.0
H805 H 0.60062 0.95778 0.30204 0.0
C806 C 0.6137 0.92938 0.38181 0.0
C807 C 0.62037 0.91235 0.42022 0.0
C808 C 0.61182 0.92179 0.33068 0.0
C809 C 0.62598 0.88779 0.40614 0.0
C810 C 0.62423 0.88013 0.35538 0.0
C811 C 0.61367 0.88897 0.26668 0.0
C812 C 0.60541 0.90565 0.22902 0.0
C813 C 0.6168 0.89686 0.3174 0.0
C814 C 0.60129 0.93059 0.24255 0.0
C815 C 0.60442 0.93856 0.29275 0.0
H816 H 0.51384 0.58948 0.86385 0.0
H817 H 0.57808 0.63373 0.89926 0.0
H818 H 0.58935 0.6356 0.80896 0.0
H819 H 0.58175 0.6236 0.72049 0.0
H820 H 0.51914 0.57697 0.68467 0.0
H821 H 0.50624 0.57726 0.77431 0.0
C822 C 0.53016 0.59968 0.85156 0.0
C823 C 0.54512 0.61148 0.88809 0.0
C824 C 0.53677 0.60027 0.79955 0.0
C825 C 0.56644 0.62434 0.87186 0.0
C826 C 0.57281 0.62549 0.82026 0.0
C827 C 0.56509 0.61376 0.73208 0.0
C828 C 0.55129 0.60049 0.69576 0.0
C829 C 0.55822 0.61341 0.78381 0.0
C830 C 0.53002 0.58744 0.71177 0.0
C831 C 0.52268 0.58754 0.76306 0.0
H832 H 0.85316 0.59772 0.24569 0.0
H833 H 0.90333 0.53652 0.22289 0.0
H834 H 0.90406 0.52884 0.31494 0.0
H835 H 0.89175 0.54084 0.40205 0.0
H836 H 0.8438 0.60372 0.42425 0.0
H837 H 0.84108 0.60972 0.332 0.0
C838 C 0.86394 0.58242 0.26072 0.0
C839 C 0.87791 0.56748 0.22755 0.0
C840 C 0.86492 0.5787 0.31353 0.0
C841 C 0.89226 0.54813 0.24772 0.0
C842 C 0.89277 0.54382 0.30028 0.0
C843 C 0.88057 0.5557 0.38652 0.0
C844 C 0.86793 0.57181 0.41965 0.0
C845 C 0.87939 0.55918 0.33356 0.0
C846 C 0.85385 0.59129 0.39933 0.0
C847 C 0.85218 0.5946 0.3467 0.0
H848 H 0.34913 0.05583 0.1627 0.0
H849 H 0.42674 0.03807 0.15871 0.0
H850 H 0.42601 0.02919 0.25038 0.0
H851 H 0.40287 0.02555 0.33185 0.0
H852 H 0.32566 0.04585 0.33603 0.0
H853 H 0.32669 0.05477 0.24495 0.0
C854 C 0.36583 0.05005 0.18209 0.0
C855 C 0.38792 0.04754 0.154 0.0
C856 C 0.36536 0.04548 0.23507 0.0
C857 C 0.40956 0.04031 0.1796 0.0
C858 C 0.40911 0.03514 0.23199 0.0
C859 C 0.38633 0.0321 0.3129 0.0
C860 C 0.36422 0.03495 0.34109 0.0
C861 C 0.38708 0.03758 0.2602 0.0
C862 C 0.343 0.04357 0.31569 0.0
C863 C 0.34351 0.0486 0.26335 0.0
H864 H 0.45596 0.38388 0.76146 0.0
H865 H 0.37803 0.37553 0.79389 0.0
H866 H 0.36904 0.37588 0.70235 0.0
H867 H 0.38379 0.37691 0.61272 0.0
H868 H 0.46208 0.38219 0.58201 0.0
H869 H 0.47059 0.38448 0.67318 0.0
C870 C 0.43696 0.38253 0.74857 0.0
C871 C 0.41763 0.38 0.78433 0.0
C872 C 0.43208 0.38181 0.69614 0.0
C873 C 0.39318 0.37765 0.76699 0.0
C874 C 0.38807 0.37774 0.71473 0.0
C875 C 0.40265 0.37855 0.62628 0.0
C876 C 0.42229 0.37914 0.59089 0.0
C877 C 0.40742 0.3795 0.67892 0.0
C878 C 0.44671 0.38122 0.6086 0.0
C879 C 0.45156 0.38274 0.66067 0.0
H880 H 0.07293 0.43257 0.12242 0.0
H881 H 0.15142 0.42761 0.09526 0.0
H882 H 0.15916 0.42934 0.18725 0.0
H883 H 0.14353 0.43404 0.2747 0.0
H884 H 0.06527 0.4432 0.30135 0.0
H885 H 0.05726 0.43774 0.21016 0.0
C886 C 0.09166 0.4316 0.13692 0.0
C887 C 0.11163 0.42976 0.10262 0.0
C888 C 0.09589 0.4333 0.18952 0.0
C889 C 0.13589 0.42907 0.12133 0.0
C890 C 0.14025 0.42998 0.17372 0.0
C891 C 0.12469 0.43439 0.26059 0.0
C892 C 0.10493 0.43857 0.29452 0.0
C893 C 0.1204 0.43227 0.20811 0.0
C894 C 0.08068 0.43975 0.27577 0.0
C895 C 0.07614 0.43673 0.22375 0.0
H896 H 0.10797 0.1138 0.61264 0.0
H897 H 0.04803 0.06099 0.60543 0.0
H898 H 0.0437 0.06204 0.69855 0.0
H899 H 0.0568 0.07854 0.78148 0.0
H900 H 0.11754 0.13085 0.78801 0.0
H901 H 0.12198 0.12917 0.6956 0.0
C902 C 0.0938 0.10278 0.63153 0.0
C903 C 0.07807 0.08763 0.60248 0.0
C904 C 0.09179 0.10316 0.68483 0.0
C905 C 0.06021 0.07285 0.62729 0.0
C906 C 0.0578 0.07343 0.68036 0.0
C907 C 0.07115 0.08942 0.76281 0.0
C908 C 0.08675 0.10487 0.79179 0.0
C909 C 0.07353 0.08851 0.70952 0.0
C910 C 0.10528 0.11878 0.7668 0.0
C911 C 0.10776 0.11795 0.71386 0.0
H912 H 0.03981 0.93665 0.17469 0.0
H913 H 0.07054 0.87514 0.25834 0.0
H914 H 0.10012 0.9033 0.29949 0.0
H915 H 0.11441 0.94599 0.31683 0.0
H916 H 0.08222 0.00734 0.23514 0.0
H917 H 0.05591 0.97862 0.18741 0.0
C918 C 0.05285 0.92944 0.20225 0.0
C919 C 0.05271 0.90401 0.21455 0.0
C920 C 0.06953 0.94567 0.22563 0.0
C921 C 0.07028 0.89472 0.2488 0.0
C922 C 0.08711 0.91079 0.27222 0.0
C923 C 0.10212 0.95292 0.28755 0.0
C924 C 0.10021 0.97864 0.27915 0.0
C925 C 0.08662 0.93636 0.2615 0.0
C926 C 0.08389 0.98756 0.24196 0.0
C927 C 0.06881 0.9712 0.21503 0.0
H928 H 0.56202 0.06803 0.69638 0.0
H929 H 0.55995 0.99228 0.75089 0.0
H930 H 0.52874 0.00337 0.81401 0.0
H931 H 0.50246 0.03488 0.85561 0.0
H932 H 0.5062 0.11084 0.80403 0.0
H933 H 0.53639 0.09947 0.73843 0.0
C934 C 0.55499 0.05395 0.72227 0.0
C935 C 0.5634 0.02929 0.71828 0.0
C936 C 0.53722 0.06051 0.75919 0.0
C937 C 0.55365 0.01132 0.75212 0.0
C938 C 0.53582 0.01766 0.7886 0.0
C939 C 0.50971 0.04881 0.82955 0.0
C940 C 0.50209 0.07364 0.83445 0.0
C941 C 0.52743 0.04219 0.79248 0.0
C942 C 0.51193 0.09165 0.80109 0.0
C943 C 0.52916 0.08514 0.76359 0.0
H944 H 0.36458 0.51204 0.26698 0.0
H945 H 0.43574 0.49235 0.32875 0.0
H946 H 0.45555 0.525 0.27844 0.0
H947 H 0.45285 0.55905 0.21664 0.0
H948 H 0.3819 0.57841 0.1531 0.0
H949 H 0.36187 0.54665 0.20542 0.0
C950 C 0.38439 0.51501 0.26961 0.0
C951 C 0.39861 0.49952 0.30125 0.0
C952 C 0.39574 0.53395 0.24053 0.0
C953 C 0.42434 0.50355 0.30396 0.0
C954 C 0.4357 0.5224 0.27547 0.0
C955 C 0.43304 0.55628 0.2138 0.0
C956 C 0.41905 0.57122 0.18054 0.0
C957 C 0.42162 0.53763 0.2434 0.0
C958 C 0.39325 0.56753 0.17855 0.0
C959 C 0.38173 0.54916 0.20826 0.0
H960 H 0.91401 0.42163 0.69677 0.0
H961 H 0.91862 0.49451 0.76425 0.0
H962 H 0.95149 0.48034 0.82048 0.0
H963 H 0.97959 0.44742 0.84929 0.0
H964 H 0.97398 0.37425 0.78429 0.0
H965 H 0.94053 0.38822 0.72862 0.0
C966 C 0.92188 0.43433 0.72427 0.0
C967 C 0.91396 0.45918 0.72581 0.0
C968 C 0.94068 0.42602 0.75676 0.0
C969 C 0.92465 0.47542 0.76149 0.0
C970 C 0.9434 0.46731 0.79383 0.0
C971 C 0.97111 0.43465 0.82263 0.0
C972 C 0.97928 0.40996 0.82033 0.0
C973 C 0.95177 0.44275 0.79132 0.0
C974 C 0.96786 0.39335 0.78659 0.0
C975 C 0.94882 0.40133 0.7548 0.0
H976 H 0.93791 0.07478 0.86344 0.0
H977 H 0.00082 0.06735 0.76278 0.0
H978 H 0.97901 0.03547 0.71432 0.0
H979 H 0.94269 0.00925 0.70191 0.0
H980 H 0.87933 0.01633 0.80134 0.0
H981 H 0.90065 0.0491 0.84905 0.0
C982 C 0.94666 0.06647 0.83042 0.0
C983 C 0.97097 0.07337 0.81673 0.0
C984 C 0.93406 0.04799 0.80299 0.0
C985 C 0.98222 0.06215 0.77429 0.0
C986 C 0.96978 0.04395 0.74663 0.0
C987 C 0.9336 0.01769 0.73438 0.0
C988 C 0.90957 0.01013 0.74856 0.0
C989 C 0.94585 0.03651 0.76109 0.0
C990 C 0.89784 0.02182 0.78987 0.0
C991 C 0.91002 0.04052 0.81705 0.0
H992 H 0.47002 0.91465 0.18314 0.0
H993 H 0.52301 0.96478 0.24951 0.0
H994 H 0.49554 0.97072 0.32353 0.0
H995 H 0.45534 0.96308 0.3665 0.0
H996 H 0.40301 0.91217 0.29986 0.0
H997 H 0.43137 0.90488 0.22849 0.0
C998 C 0.47549 0.92687 0.21389 0.0
C999 C 0.49823 0.93958 0.21088 0.0
C1000 C 0.45972 0.93002 0.25592 0.0
C1001 C 0.50553 0.95489 0.2513 0.0
C1002 C 0.4898 0.95834 0.29329 0.0
C1003 C 0.45021 0.95041 0.33627 0.0
C1004 C 0.42702 0.93835 0.33797 0.0
C1005 C 0.46668 0.94627 0.29557 0.0
C1006 C 0.42077 0.92155 0.29931 0.0
C1007 C 0.43691 0.91751 0.25847 0.0
H1008 H 0.57415 0.45265 0.64075 0.0
H1009 H 0.53791 0.51386 0.71623 0.0
H1010 H 0.51952 0.48524 0.77775 0.0
H1011 H 0.51375 0.44299 0.81051 0.0
H1012 H 0.55057 0.38171 0.73732 0.0
H1013 H 0.56934 0.41036 0.67525 0.0
C1014 C 0.56249 0.45986 0.6709 0.0
C1015 C 0.55739 0.48552 0.67332 0.0
C1016 C 0.55215 0.44328 0.70674 0.0
C1017 C 0.54188 0.49427 0.71256 0.0
C1018 C 0.53145 0.4779 0.74811 0.0
C1019 C 0.52569 0.43585 0.78069 0.0
C1020 C 0.53057 0.41021 0.77814 0.0
C1021 C 0.53637 0.45239 0.7454 0.0
C1022 C 0.54662 0.40136 0.74011 0.0
C1023 C 0.55724 0.41772 0.70456 0.0
H1024 H 0.02431 0.59588 0.17251 0.0
H1025 H 0.96489 0.55445 0.24414 0.0
H1026 H -0.00581 0.53521 0.30203 0.0
H1027 H 0.03661 0.53006 0.33263 0.0
H1028 H 0.09592 0.57252 0.26433 0.0
H1029 H 0.06662 0.59194 0.20545 0.0
C1030 C 0.01765 0.58289 0.20108 0.0
C1031 C -0.00766 0.57652 0.20333 0.0
C1032 C 0.03459 0.5721 0.23495 0.0
C1033 C 0.98425 0.55939 0.24054 0.0
C1034 C 0.00099 0.54845 0.27402 0.0
C1035 C 0.04312 0.54339 0.30452 0.0
C1036 C 0.06837 0.5497 0.3023 0.0
C1037 C 0.02619 0.55455 0.27134 0.0
C1038 C 0.07652 0.56747 0.26665 0.0
C1039 C 0.05981 0.57847 0.23299 0.0
H1040 H 0.18099 0.97462 0.47408 0.0
H1041 H 0.19181 0.02096 0.60575 0.0
H1042 H 0.23566 0.00964 0.60784 0.0
H1043 H 0.27149 0.9926 0.56334 0.0
H1044 H 0.26142 0.94884 0.4274 0.0
H1045 H 0.21649 0.95326 0.43541 0.0
C1046 C 0.19282 0.98142 0.50435 0.0
C1047 C 0.18338 -0.00163 0.54005 0.0
C1048 C 0.21813 0.97585 0.50355 0.0
C1049 C 0.19882 0.00769 0.57834 0.0
C1050 C 0.22385 0.00143 0.57911 0.0
C1051 C 0.25949 0.98339 0.53624 0.0
C1052 C 0.26976 0.97054 0.49463 0.0
C1053 C 0.23385 0.98643 0.54057 0.0
C1054 C 0.25394 0.95914 0.45932 0.0
C1055 C 0.22829 0.96158 0.46402 0.0
H1056 H 0.43743 0.17834 0.88374 0.0
H1057 H 0.38534 0.19074 1.00635 0.0
H1058 H 0.39337 0.23542 1.00141 0.0
H1059 H 0.41667 0.27064 0.96482 0.0
H1060 H 0.46837 0.25797 0.84183 0.0
H1061 H 0.45846 0.21362 0.84343 0.0
C1062 C 0.42731 0.1908 0.90861 0.0
C1063 C 0.41074 0.18114 0.94535 0.0
C1064 C 0.43203 0.21638 0.90558 0.0
C1065 C 0.39834 0.19763 0.97805 0.0
C1066 C 0.4029 0.22317 0.97518 0.0
C1067 C 0.42575 0.25812 0.9384 0.0
C1068 C 0.44337 0.26748 0.90354 0.0
C1069 C 0.42001 0.23269 0.93966 0.0
C1070 C 0.45468 0.25121 0.86886 0.0
C1071 C 0.4491 0.22586 0.86993 0.0
H1072 H 0.29432 0.43372 0.33723 0.0
H1073 H 0.273 0.37177 0.43276 0.0
H1074 H 0.23131 0.389 0.44166 0.0
H1075 H 0.20283 0.42397 0.42993 0.0
H1076 H 0.22485 0.48648 0.33676 0.0
H1077 H 0.26464 0.46659 0.31881 0.0
C1078 C 0.28031 0.4235 0.35851 0.0
C1079 C 0.28659 0.40146 0.38417 0.0
C1080 C 0.25682 0.43391 0.36476 0.0
C1081 C 0.26846 0.38875 0.41265 0.0
C1082 C 0.24477 0.39869 0.41807 0.0
C1083 C 0.21643 0.43322 0.40583 0.0
C1084 C 0.21134 0.45682 0.38553 0.0
C1085 C 0.2391 0.4217 0.39583 0.0
C1086 C 0.22863 0.46839 0.35313 0.0
C1087 C 0.25126 0.45702 0.34285 0.0
H1088 H 0.10974 0.29387 0.9367 0.0
H1089 H 0.05231 0.31049 0.82789 0.0
H1090 H 0.04185 0.26674 0.82198 0.0
H1091 H 0.04506 0.22468 0.85605 0.0
H1092 H 0.10084 0.20787 0.968 0.0
H1093 H 0.1153 0.25089 0.96555 0.0
C1094 C 0.0951 0.28787 0.91135 0.0
C1095 C 0.08186 0.30549 0.88301 0.0
C1096 C 0.08841 0.26273 0.90961 0.0
C1097 C 0.06318 0.29738 0.84964 0.0
C1098 C 0.05687 0.27234 0.84671 0.0
C1099 C 0.06067 0.23032 0.87921 0.0
C1100 C 0.07163 0.21329 0.91265 0.0
C1101 C 0.06881 0.25501 0.87776 0.0
C1102 C 0.09173 0.22088 0.94277 0.0
C1103 C 0.10012 0.24538 0.94114 0.0
H1104 H 0.71994 0.9762 0.49605 0.0
H1105 H 0.72729 0.01657 0.63706 0.0
H1106 H 0.77232 0.01722 0.62641 0.0
H1107 H 0.80946 0.00152 0.58258 0.0
H1108 H 0.8017 0.95855 0.4454 0.0
H1109 H 0.75679 0.96461 0.44754 0.0
C1110 C 0.73131 0.98573 0.52384 0.0
C1111 C 0.72031 -0.00382 0.56748 0.0
C1112 C 0.75707 0.9857 0.5178 0.0
C1113 C 0.73536 0.00804 0.60358 0.0
C1114 C 0.76107 0.00854 0.59734 0.0
C1115 C 0.79791 -0.00563 0.5522 0.0
C1116 C 0.8086 0.97997 0.51345 0.0
C1117 C 0.77212 -0.00318 0.55534 0.0
C1118 C 0.79367 0.97002 0.47498 0.0
C1119 C 0.76806 0.97323 0.47665 0.0
H1120 H 0.47878 0.73521 0.11505 0.0
H1121 H 0.53049 0.71362 0.99747 0.0
H1122 H 0.54678 0.7558 0.99326 0.0
H1123 H 0.54745 0.79843 0.02461 0.0
H1124 H 0.4956 0.82083 0.14124 0.0
H1125 H 0.4786 0.77873 0.14474 0.0
C1126 C 0.49362 0.73979 0.08861 0.0
C1127 C 0.50326 0.72134 0.0564 0.0
C1128 C 0.50301 0.76419 0.08637 0.0
C1129 C 0.52242 0.72757 0.02208 0.0
C1130 C 0.53188 0.75166 0.01984 0.0
C1131 C 0.53217 0.79425 0.05025 0.0
C1132 C 0.5229 0.81279 0.08265 0.0
C1133 C 0.52237 0.7701 0.05185 0.0
C1134 C 0.50336 0.80684 0.11633 0.0
C1135 C 0.49353 0.78279 0.11821 0.0
H1136 H 0.74949 0.51038 0.5505 0.0
H1137 H 0.7684 0.55294 0.68404 0.0
H1138 H 0.72714 0.57123 0.68507 0.0
H1139 H 0.6867 0.57756 0.64382 0.0
H1140 H 0.66946 0.53665 0.50719 0.0
H1141 H 0.70952 0.51625 0.51021 0.0
C1142 C 0.74466 0.52372 0.57977 0.0
C1143 C 0.76208 0.53039 0.6168 0.0
C1144 C 0.72142 0.535 0.5788 0.0
C1145 C 0.75525 0.54719 0.65535 0.0
C1146 C 0.73177 0.55796 0.65557 0.0
C1147 C 0.69183 0.56422 0.61475 0.0
C1148 C 0.67542 0.559 0.57483 0.0
C1149 C 0.71491 0.55242 0.61676 0.0
C1150 C 0.68211 0.54155 0.53749 0.0
C1151 C 0.70486 0.52961 0.53952 0.0
H1152 H 0.90018 0.69958 0.04908 0.0
H1153 H 0.88999 0.69417 0.21245 0.0
H1154 H 0.90526 0.73654 0.22176 0.0
H1155 H 0.92582 0.77288 0.1841 0.0
H1156 H 0.92959 0.77998 0.01982 0.0
H1157 H 0.91235 0.73865 0.01083 0.0
C1158 C 0.90023 0.70765 0.08683 0.0
C1159 C 0.89443 0.69314 0.13006 0.0
C1160 C 0.90844 0.73214 0.09195 0.0
C1161 C 0.89515 0.70441 0.17843 0.0
C1162 C 0.90379 0.72873 0.18387 0.0
C1163 C 0.92236 0.76586 0.14616 0.0
C1164 C 0.92993 0.77952 0.10281 0.0
C1165 C 0.91129 0.74243 0.14093 0.0
C1166 C 0.92521 0.76965 0.05415 0.0
C1167 C 0.91493 0.74608 0.04879 0.0
loop_
_geom_bond_atom_site_label_1
_geom_bond_atom_site_label_2
_geom_bond_distance
_geom_bond_site_symmetry_2
_ccdc_geom_bond_type
C0 C1 1.351 . S
C0 N3 1.368 . S
C0 H5 0.931 . S
C1 C0 1.351 . S
C1 N2 1.373 . S
C1 H29 0.930 . S
N2 C1 1.373 . S
N2 C4 1.340 . S
N3 C0 1.368 . S
N3 C4 1.321 . S
N3 Co6 2.135 1_565 S
C4 N2 1.340 . S
C4 N3 1.321 . S
C4 H28 0.928 . S
H5 C0 0.931 . S
Co6 N3 2.135 1_545 S
Co6 N9 2.121 . S
Co6 O14 2.055 . S
Co6 O17 2.039 . S
Co6 N20 2.140 . S
C7 O8 1.227 . S
C7 O17 1.265 . S
O8 C7 1.227 . S
N9 Co6 2.121 . S
N9 C11 1.375 . S
N9 C12 1.313 . S
C10 C11 1.338 . S
C10 N13 1.377 . S
C10 H30 0.930 . S
C11 N9 1.375 . S
C11 C10 1.338 . S
C11 H15 0.931 . S
C12 N9 1.313 . S
C12 N13 1.344 . S
C12 H16 0.930 . S
N13 C10 1.377 . S
N13 C12 1.344 . S
O14 Co6 2.055 . S
O14 C18 1.253 1_545 S
H15 C11 0.931 . S
H16 C12 0.930 . S
O17 Co6 2.039 . S
O17 C7 1.265 . S
C18 O14 1.253 1_565 S
C18 O19 1.227 . S
O19 C18 1.227 . S
N20 Co6 2.140 . S
N20 C23 1.346 . S
N20 C24 1.345 . S
C21 C22 1.387 . S
C21 C25 1.391 1_565 S
C22 C21 1.387 . S
C22 C23 1.369 1_565 S
C22 H31 0.929 . S
C23 N20 1.346 . S
C23 C22 1.369 1_545 S
C23 H26 0.928 . S
C24 N20 1.345 . S
C24 C25 1.371 . S
C24 H27 0.931 . S
C25 C21 1.391 1_545 S
C25 C24 1.371 . S
C25 H32 0.930 . S
H26 C23 0.928 . S
H27 C24 0.931 . S
H28 C4 0.928 . S
H29 C1 0.930 . S
H30 C10 0.930 . S
H31 C22 0.929 . S
H32 C25 0.930 . S
C33 C34 1.351 . S
C33 N36 1.368 . S
C33 H38 0.931 . S
C34 C33 1.351 . S
C34 N35 1.373 . S
C34 H62 0.930 . S
N35 C34 1.373 . S
N35 C37 1.340 . S
N36 C33 1.368 . S
N36 C37 1.321 . S
N36 Co39 2.135 . S
C37 N35 1.340 . S
C37 N36 1.321 . S
C37 H61 0.930 . S
H38 C33 0.931 . S
Co39 N36 2.135 . S
Co39 N42 2.121 . S
Co39 O47 2.055 . S
Co39 O50 2.039 . S
Co39 N53 2.140 . S
C40 O41 1.227 . S
C40 O50 1.265 . S
O41 C40 1.227 . S
N42 Co39 2.121 . S
N42 C44 1.375 . S
N42 C45 1.313 1_556 S
C43 C44 1.338 1_554 S
C43 N46 1.377 . S
C43 H63 0.930 . S
C44 N42 1.375 . S
C44 C43 1.338 1_556 S
C44 H48 0.931 . S
C45 N42 1.313 1_554 S
C45 N46 1.344 . S
C45 H49 0.930 . S
N46 C43 1.377 . S
N46 C45 1.344 . S
O47 Co39 2.055 . S
O47 C51 1.253 1_556 S
H48 C44 0.931 . S
H49 C45 0.930 . S
O50 Co39 2.039 . S
O50 C40 1.265 . S
C51 O47 1.253 1_554 S
C51 O52 1.227 . S
O52 C51 1.227 . S
N53 Co39 2.140 . S
N53 C56 1.346 . S
N53 C57 1.345 . S
C54 C55 1.387 . S
C54 C58 1.391 . S
C55 C54 1.387 . S
C55 C56 1.369 . S
C55 H64 0.929 . S
C56 N53 1.346 . S
C56 C55 1.369 . S
C56 H59 0.928 . S
C57 N53 1.345 . S
C57 C58 1.371 . S
C57 H60 0.931 1_556 S
C58 C54 1.391 . S
C58 C57 1.371 . S
C58 H65 0.930 1_556 S
H59 C56 0.928 . S
H60 C57 0.931 1_554 S
H61 C37 0.930 . S
H62 C34 0.930 . S
H63 C43 0.930 . S
H64 C55 0.929 . S
H65 C58 0.930 1_554 S
C66 C67 1.351 . S
C66 N69 1.368 . S
C66 H71 0.931 . S
C67 C66 1.351 . S
C67 N68 1.373 . S
C67 H95 0.930 . S
N68 C67 1.373 . S
N68 C70 1.340 . S
N69 C66 1.368 . S
N69 C70 1.321 . S
N69 Co72 2.135 . S
C70 N68 1.340 . S
C70 N69 1.321 . S
C70 H94 0.930 . S
H71 C66 0.931 . S
Co72 N69 2.135 . S
Co72 N75 2.121 . S
Co72 O80 2.055 . S
Co72 O83 2.039 . S
Co72 N86 2.140 . S
C73 O74 1.227 . S
C73 O83 1.265 . S
O74 C73 1.227 . S
N75 Co72 2.121 . S
N75 C77 1.375 . S
N75 C78 1.313 . S
C76 C77 1.338 . S
C76 N79 1.377 . S
C76 H96 0.930 . S
C77 N75 1.375 . S
C77 C76 1.338 . S
C77 H81 0.931 . S
C78 N75 1.313 . S
C78 N79 1.344 . S
C78 H82 0.930 . S
N79 C76 1.377 . S
N79 C78 1.344 . S
O80 Co72 2.055 . S
O80 C84 1.253 . S
H81 C77 0.931 . S
H82 C78 0.930 . S
O83 Co72 2.039 . S
O83 C73 1.265 . S
C84 O80 1.253 . S
C84 O85 1.227 . S
O85 C84 1.227 . S
N86 Co72 2.140 . S
N86 C89 1.346 . S
N86 C90 1.345 . S
C87 C88 1.387 . S
C87 C91 1.391 . S
C88 C87 1.387 . S
C88 C89 1.369 . S
C88 H97 0.929 . S
C89 N86 1.346 . S
C89 C88 1.369 . S
C89 H92 0.928 . S
C90 N86 1.345 . S
C90 C91 1.371 . S
C90 H93 0.931 . S
C91 C87 1.391 . S
C91 C90 1.371 . S
C91 H98 0.930 . S
H92 C89 0.928 . S
H93 C90 0.931 . S
H94 C70 0.930 . S
H95 C67 0.930 . S
H96 C76 0.930 . S
H97 C88 0.929 . S
H98 C91 0.930 . S
C99 C100 1.351 . S
C99 N102 1.368 . S
C99 H104 0.931 . S
C100 C99 1.351 . S
C100 N101 1.373 . S
C100 H128 0.930 . S
N101 C100 1.373 . S
N101 C103 1.340 . S
N102 C99 1.368 . S
N102 C103 1.321 . S
N102 Co105 2.135 1_655 S
C103 N101 1.340 . S
C103 N102 1.321 . S
C103 H127 0.928 . S
H104 C99 0.931 . S
Co105 N102 2.135 1_455 S
Co105 N108 2.121 . S
Co105 O113 2.055 . S
Co105 O116 2.039 . S
Co105 N119 2.140 . S
C106 O107 1.227 . S
C106 O116 1.265 . S
O107 C106 1.227 . S
N108 Co105 2.121 . S
N108 C110 1.375 . S
N108 C111 1.313 1_556 S
C109 C110 1.338 1_554 S
C109 N112 1.377 . S
C109 H129 0.930 . S
C110 N108 1.375 . S
C110 C109 1.338 1_556 S
C110 H114 0.931 . S
C111 N108 1.313 1_554 S
C111 N112 1.344 . S
C111 H115 0.930 . S
N112 C109 1.377 . S
N112 C111 1.344 . S
O113 Co105 2.055 . S
O113 C117 1.253 1_456 S
H114 C110 0.931 . S
H115 C111 0.930 . S
O116 Co105 2.039 . S
O116 C106 1.265 . S
C117 O113 1.253 1_654 S
C117 O118 1.227 . S
O118 C117 1.227 . S
N119 Co105 2.140 . S
N119 C122 1.346 . S
N119 C123 1.345 . S
C120 C121 1.387 . S
C120 C124 1.391 1_655 S
C121 C120 1.387 . S
C121 C122 1.369 1_655 S
C121 H130 0.929 . S
C122 N119 1.346 . S
C122 C121 1.369 1_455 S
C122 H125 0.928 . S
C123 N119 1.345 . S
C123 C124 1.371 . S
C123 H126 0.931 1_556 S
C124 C120 1.391 1_455 S
C124 C123 1.371 . S
C124 H131 0.930 1_556 S
H125 C122 0.928 . S
H126 C123 0.931 1_554 S
H127 C103 0.928 . S
H128 C100 0.930 . S
H129 C109 0.930 . S
H130 C121 0.929 . S
H131 C124 0.930 1_554 S
C132 C133 1.351 . S
C132 N135 1.368 . S
C132 H137 0.931 . S
C133 C132 1.351 . S
C133 N134 1.373 . S
C133 H161 0.930 . S
N134 C133 1.373 . S
N134 C136 1.340 . S
N135 C132 1.368 . S
N135 C136 1.321 . S
N135 Co138 2.135 1_545 S
C136 N134 1.340 . S
C136 N135 1.321 . S
C136 H160 0.928 . S
H137 C132 0.931 . S
Co138 N135 2.135 1_565 S
Co138 N141 2.121 . S
Co138 O146 2.055 . S
Co138 O149 2.039 . S
Co138 N152 2.140 . S
C139 O140 1.227 . S
C139 O149 1.265 . S
O140 C139 1.227 . S
N141 Co138 2.121 . S
N141 C143 1.375 . S
N141 C144 1.313 . S
C142 C143 1.338 . S
C142 N145 1.377 . S
C142 H162 0.930 . S
C143 N141 1.375 . S
C143 C142 1.338 . S
C143 H147 0.931 . S
C144 N141 1.313 . S
C144 N145 1.344 . S
C144 H148 0.930 . S
N145 C142 1.377 . S
N145 C144 1.344 . S
O146 Co138 2.055 . S
O146 C150 1.253 1_565 S
H147 C143 0.931 . S
H148 C144 0.930 . S
O149 Co138 2.039 . S
O149 C139 1.265 . S
C150 O146 1.253 1_545 S
C150 O151 1.227 . S
O151 C150 1.227 . S
N152 Co138 2.140 . S
N152 C155 1.346 . S
N152 C156 1.345 . S
C153 C154 1.387 . S
C153 C157 1.391 1_545 S
C154 C153 1.387 . S
C154 C155 1.369 1_545 S
C154 H163 0.929 . S
C155 N152 1.346 . S
C155 C154 1.369 1_565 S
C155 H158 0.928 . S
C156 N152 1.345 . S
C156 C157 1.371 . S
C156 H159 0.931 . S
C157 C153 1.391 1_565 S
C157 C156 1.371 . S
C157 H164 0.930 . S
H158 C155 0.928 . S
H159 C156 0.931 . S
H160 C136 0.928 . S
H161 C133 0.930 . S
H162 C142 0.930 . S
H163 C154 0.929 . S
H164 C157 0.930 . S
C165 C166 1.351 . S
C165 N168 1.368 . S
C165 H170 0.931 . S
C166 C165 1.351 . S
C166 N167 1.373 . S
C166 H194 0.930 . S
N167 C166 1.373 . S
N167 C169 1.340 . S
N168 C165 1.368 . S
N168 C169 1.321 . S
N168 Co171 2.135 . S
C169 N167 1.340 . S
C169 N168 1.321 . S
C169 H193 0.930 . S
H170 C165 0.931 . S
Co171 N168 2.135 . S
Co171 N174 2.121 . S
Co171 O179 2.055 . S
Co171 O182 2.039 . S
Co171 N185 2.140 . S
C172 O173 1.227 . S
C172 O182 1.265 . S
O173 C172 1.227 . S
N174 Co171 2.121 . S
N174 C176 1.375 . S
N174 C177 1.313 1_554 S
C175 C176 1.338 1_556 S
C175 N178 1.377 . S
C175 H195 0.930 . S
C176 N174 1.375 . S
C176 C175 1.338 1_554 S
C176 H180 0.931 . S
C177 N174 1.313 1_556 S
C177 N178 1.344 . S
C177 H181 0.930 . S
N178 C175 1.377 . S
N178 C177 1.344 . S
O179 Co171 2.055 . S
O179 C183 1.253 1_554 S
H180 C176 0.931 . S
H181 C177 0.930 . S
O182 Co171 2.039 . S
O182 C172 1.265 . S
C183 O179 1.253 1_556 S
C183 O184 1.227 . S
O184 C183 1.227 . S
N185 Co171 2.140 . S
N185 C188 1.346 . S
N185 C189 1.345 . S
C186 C187 1.387 . S
C186 C190 1.391 . S
C187 C186 1.387 . S
C187 C188 1.369 . S
C187 H196 0.929 . S
C188 N185 1.346 . S
C188 C187 1.369 . S
C188 H191 0.928 . S
C189 N185 1.345 . S
C189 C190 1.371 . S
C189 H192 0.931 1_554 S
C190 C186 1.391 . S
C190 C189 1.371 . S
C190 H197 0.930 1_554 S
H191 C188 0.928 . S
H192 C189 0.931 1_556 S
H193 C169 0.930 . S
H194 C166 0.930 . S
H195 C175 0.930 . S
H196 C187 0.929 . S
H197 C190 0.930 1_556 S
C198 C199 1.351 . S
C198 N201 1.368 . S
C198 H203 0.931 . S
C199 C198 1.351 . S
C199 N200 1.373 . S
C199 H227 0.930 . S
N200 C199 1.373 . S
N200 C202 1.340 . S
N201 C198 1.368 . S
N201 C202 1.321 . S
N201 Co204 2.135 . S
C202 N200 1.340 . S
C202 N201 1.321 . S
C202 H226 0.930 . S
H203 C198 0.931 . S
Co204 N201 2.135 . S
Co204 N207 2.121 . S
Co204 O212 2.055 . S
Co204 O215 2.039 . S
Co204 N218 2.140 . S
C205 O206 1.227 . S
C205 O215 1.265 . S
O206 C205 1.227 . S
N207 Co204 2.121 . S
N207 C209 1.375 . S
N207 C210 1.313 . S
C208 C209 1.338 . S
C208 N211 1.377 . S
C208 H228 0.930 . S
C209 N207 1.375 . S
C209 C208 1.338 . S
C209 H213 0.931 . S
C210 N207 1.313 . S
C210 N211 1.344 . S
C210 H214 0.930 . S
N211 C208 1.377 . S
N211 C210 1.344 . S
O212 Co204 2.055 . S
O212 C216 1.253 . S
H213 C209 0.931 . S
H214 C210 0.930 . S
O215 Co204 2.039 . S
O215 C205 1.265 . S
C216 O212 1.253 . S
C216 O217 1.227 . S
O217 C216 1.227 . S
N218 Co204 2.140 . S
N218 C221 1.346 . S
N218 C222 1.345 . S
C219 C220 1.387 . S
C219 C223 1.391 . S
C220 C219 1.387 . S
C220 C221 1.369 . S
C220 H229 0.929 . S
C221 N218 1.346 . S
C221 C220 1.369 . S
C221 H224 0.928 . S
C222 N218 1.345 . S
C222 C223 1.371 . S
C222 H225 0.931 . S
C223 C219 1.391 . S
C223 C222 1.371 . S
C223 H230 0.930 . S
H224 C221 0.928 . S
H225 C222 0.931 . S
H226 C202 0.930 . S
H227 C199 0.930 . S
H228 C208 0.930 . S
H229 C220 0.929 . S
H230 C223 0.930 . S
C231 C232 1.351 . S
C231 N234 1.368 . S
C231 H236 0.931 . S
C232 C231 1.351 . S
C232 N233 1.373 . S
C232 H260 0.930 . S
N233 C232 1.373 . S
N233 C235 1.340 . S
N234 C231 1.368 . S
N234 C235 1.321 . S
N234 Co237 2.135 1_455 S
C235 N233 1.340 . S
C235 N234 1.321 . S
C235 H259 0.928 . S
H236 C231 0.931 . S
Co237 N234 2.135 1_655 S
Co237 N240 2.121 . S
Co237 O245 2.055 . S
Co237 O248 2.039 . S
Co237 N251 2.140 . S
C238 O239 1.227 . S
C238 O248 1.265 . S
O239 C238 1.227 . S
N240 Co237 2.121 . S
N240 C242 1.375 . S
N240 C243 1.313 1_554 S
C241 C242 1.338 1_556 S
C241 N244 1.377 . S
C241 H261 0.930 . S
C242 N240 1.375 . S
C242 C241 1.338 1_554 S
C242 H246 0.931 . S
C243 N240 1.313 1_556 S
C243 N244 1.344 . S
C243 H247 0.930 . S
N244 C241 1.377 . S
N244 C243 1.344 . S
O245 Co237 2.055 . S
O245 C249 1.253 1_654 S
H246 C242 0.931 . S
H247 C243 0.930 . S
O248 Co237 2.039 . S
O248 C238 1.265 . S
C249 O245 1.253 1_456 S
C249 O250 1.227 . S
O250 C249 1.227 . S
N251 Co237 2.140 . S
N251 C254 1.346 . S
N251 C255 1.345 . S
C252 C253 1.387 . S
C252 C256 1.391 1_455 S
C253 C252 1.387 . S
C253 C254 1.369 1_455 S
C253 H262 0.929 . S
C254 N251 1.346 . S
C254 C253 1.369 1_655 S
C254 H257 0.928 . S
C255 N251 1.345 . S
C255 C256 1.371 . S
C255 H258 0.931 1_554 S
C256 C252 1.391 1_655 S
C256 C255 1.371 . S
C256 H263 0.930 1_554 S
H257 C254 0.928 . S
H258 C255 0.931 1_556 S
H259 C235 0.928 . S
H260 C232 0.930 . S
H261 C241 0.930 . S
H262 C253 0.929 . S
H263 C256 0.930 1_556 S
C264 C265 1.351 . S
C264 N267 1.368 . S
C264 H269 0.931 . S
C265 C264 1.351 . S
C265 N266 1.373 . S
C265 H293 0.930 . S
N266 C265 1.373 . S
N266 C268 1.340 . S
N267 C264 1.368 . S
N267 C268 1.321 . S
N267 Co270 2.135 1_545 S
C268 N266 1.340 . S
C268 N267 1.321 . S
C268 H292 0.928 . S
H269 C264 0.931 . S
Co270 N267 2.135 1_565 S
Co270 N273 2.121 . S
Co270 O278 2.055 . S
Co270 O281 2.039 . S
Co270 N284 2.140 . S
C271 O272 1.227 . S
C271 O281 1.265 . S
O272 C271 1.227 . S
N273 Co270 2.121 . S
N273 C275 1.375 . S
N273 C276 1.313 . S
C274 C275 1.338 . S
C274 N277 1.377 . S
C274 H294 0.930 . S
C275 N273 1.375 . S
C275 C274 1.338 . S
C275 H279 0.931 . S
C276 N273 1.313 . S
C276 N277 1.344 . S
C276 H280 0.930 . S
N277 C274 1.377 . S
N277 C276 1.344 . S
O278 Co270 2.055 . S
O278 C282 1.253 1_565 S
H279 C275 0.931 . S
H280 C276 0.930 . S
O281 Co270 2.039 . S
O281 C271 1.265 . S
C282 O278 1.253 1_545 S
C282 O283 1.227 . S
O283 C282 1.227 . S
N284 Co270 2.140 . S
N284 C287 1.346 . S
N284 C288 1.345 . S
C285 C286 1.387 . S
C285 C289 1.391 1_545 S
C286 C285 1.387 . S
C286 C287 1.369 1_545 S
C286 H295 0.929 . S
C287 N284 1.346 . S
C287 C286 1.369 1_565 S
C287 H290 0.928 . S
C288 N284 1.345 . S
C288 C289 1.371 . S
C288 H291 0.931 . S
C289 C285 1.391 1_565 S
C289 C288 1.371 . S
C289 H296 0.930 . S
H290 C287 0.928 . S
H291 C288 0.931 . S
H292 C268 0.928 . S
H293 C265 0.930 . S
H294 C274 0.930 . S
H295 C286 0.929 . S
H296 C289 0.930 . S
C297 C298 1.351 . S
C297 N300 1.368 . S
C297 H302 0.931 . S
C298 C297 1.351 . S
C298 N299 1.373 . S
C298 H326 0.930 . S
N299 C298 1.373 . S
N299 C301 1.340 . S
N300 C297 1.368 . S
N300 C301 1.321 . S
N300 Co303 2.135 . S
C301 N299 1.340 . S
C301 N300 1.321 . S
C301 H325 0.930 . S
H302 C297 0.931 . S
Co303 N300 2.135 . S
Co303 N306 2.121 . S
Co303 O311 2.055 . S
Co303 O314 2.039 . S
Co303 N317 2.140 . S
C304 O305 1.227 . S
C304 O314 1.265 . S
O305 C304 1.227 . S
N306 Co303 2.121 . S
N306 C308 1.375 . S
N306 C309 1.313 1_554 S
C307 C308 1.338 1_556 S
C307 N310 1.377 . S
C307 H327 0.930 . S
C308 N306 1.375 . S
C308 C307 1.338 1_554 S
C308 H312 0.931 . S
C309 N306 1.313 1_556 S
C309 N310 1.344 . S
C309 H313 0.930 . S
N310 C307 1.377 . S
N310 C309 1.344 . S
O311 Co303 2.055 . S
O311 C315 1.253 1_554 S
H312 C308 0.931 . S
H313 C309 0.930 . S
O314 Co303 2.039 . S
O314 C304 1.265 . S
C315 O311 1.253 1_556 S
C315 O316 1.227 . S
O316 C315 1.227 . S
N317 Co303 2.140 . S
N317 C320 1.346 . S
N317 C321 1.345 . S
C318 C319 1.387 . S
C318 C322 1.391 . S
C319 C318 1.387 . S
C319 C320 1.369 . S
C319 H328 0.929 . S
C320 N317 1.346 . S
C320 C319 1.369 . S
C320 H323 0.928 . S
C321 N317 1.345 . S
C321 C322 1.371 . S
C321 H324 0.931 1_554 S
C322 C318 1.391 . S
C322 C321 1.371 . S
C322 H329 0.930 1_554 S
H323 C320 0.928 . S
H324 C321 0.931 1_556 S
H325 C301 0.930 . S
H326 C298 0.930 . S
H327 C307 0.930 . S
H328 C319 0.929 . S
H329 C322 0.930 1_556 S
C330 C331 1.351 . S
C330 N333 1.368 . S
C330 H335 0.931 . S
C331 C330 1.351 . S
C331 N332 1.373 . S
C331 H359 0.930 . S
N332 C331 1.373 . S
N332 C334 1.340 . S
N333 C330 1.368 . S
N333 C334 1.321 . S
N333 Co336 2.135 . S
C334 N332 1.340 . S
C334 N333 1.321 . S
C334 H358 0.930 . S
H335 C330 0.931 . S
Co336 N333 2.135 . S
Co336 N339 2.121 . S
Co336 O344 2.055 . S
Co336 O347 2.039 . S
Co336 N350 2.140 . S
C337 O338 1.227 . S
C337 O347 1.265 . S
O338 C337 1.227 . S
N339 Co336 2.121 . S
N339 C341 1.375 . S
N339 C342 1.313 . S
C340 C341 1.338 . S
C340 N343 1.377 . S
C340 H360 0.930 . S
C341 N339 1.375 . S
C341 C340 1.338 . S
C341 H345 0.931 . S
C342 N339 1.313 . S
C342 N343 1.344 . S
C342 H346 0.930 . S
N343 C340 1.377 . S
N343 C342 1.344 . S
O344 Co336 2.055 . S
O344 C348 1.253 . S
H345 C341 0.931 . S
H346 C342 0.930 . S
O347 Co336 2.039 . S
O347 C337 1.265 . S
C348 O344 1.253 . S
C348 O349 1.227 . S
O349 C348 1.227 . S
N350 Co336 2.140 . S
N350 C353 1.346 . S
N350 C354 1.345 . S
C351 C352 1.387 . S
C351 C355 1.391 . S
C352 C351 1.387 . S
C352 C353 1.369 . S
C352 H361 0.929 . S
C353 N350 1.346 . S
C353 C352 1.369 . S
C353 H356 0.928 . S
C354 N350 1.345 . S
C354 C355 1.371 . S
C354 H357 0.931 . S
C355 C351 1.391 . S
C355 C354 1.371 . S
C355 H362 0.930 . S
H356 C353 0.928 . S
H357 C354 0.931 . S
H358 C334 0.930 . S
H359 C331 0.930 . S
H360 C340 0.930 . S
H361 C352 0.929 . S
H362 C355 0.930 . S
C363 C364 1.351 . S
C363 N366 1.368 . S
C363 H368 0.931 . S
C364 C363 1.351 . S
C364 N365 1.373 . S
C364 H392 0.930 . S
N365 C364 1.373 . S
N365 C367 1.340 . S
N366 C363 1.368 . S
N366 C367 1.321 . S
N366 Co369 2.135 1_455 S
C367 N365 1.340 . S
C367 N366 1.321 . S
C367 H391 0.928 . S
H368 C363 0.931 . S
Co369 N366 2.135 1_655 S
Co369 N372 2.121 . S
Co369 O377 2.055 . S
Co369 O380 2.039 . S
Co369 N383 2.140 . S
C370 O371 1.227 . S
C370 O380 1.265 . S
O371 C370 1.227 . S
N372 Co369 2.121 . S
N372 C374 1.375 . S
N372 C375 1.313 1_554 S
C373 C374 1.338 1_556 S
C373 N376 1.377 . S
C373 H393 0.930 . S
C374 N372 1.375 . S
C374 C373 1.338 1_554 S
C374 H378 0.931 . S
C375 N372 1.313 1_556 S
C375 N376 1.344 . S
C375 H379 0.930 . S
N376 C373 1.377 . S
N376 C375 1.344 . S
O377 Co369 2.055 . S
O377 C381 1.253 1_654 S
H378 C374 0.931 . S
H379 C375 0.930 . S
O380 Co369 2.039 . S
O380 C370 1.265 . S
C381 O377 1.253 1_456 S
C381 O382 1.227 . S
O382 C381 1.227 . S
N383 Co369 2.140 . S
N383 C386 1.346 . S
N383 C387 1.345 . S
C384 C385 1.387 . S
C384 C388 1.391 1_455 S
C385 C384 1.387 . S
C385 C386 1.369 1_455 S
C385 H394 0.929 . S
C386 N383 1.346 . S
C386 C385 1.369 1_655 S
C386 H389 0.928 . S
C387 N383 1.345 . S
C387 C388 1.371 . S
C387 H390 0.931 1_554 S
C388 C384 1.391 1_655 S
C388 C387 1.371 . S
C388 H395 0.930 1_554 S
H389 C386 0.928 . S
H390 C387 0.931 1_556 S
H391 C367 0.928 . S
H392 C364 0.930 . S
H393 C373 0.930 . S
H394 C385 0.929 . S
H395 C388 0.930 1_556 S
C396 C397 1.351 . S
C396 N399 1.368 . S
C396 H401 0.931 . S
C397 C396 1.351 . S
C397 N398 1.373 . S
C397 H425 0.930 . S
N398 C397 1.373 . S
N398 C400 1.340 . S
N399 C396 1.368 . S
N399 C400 1.321 . S
N399 Co402 2.135 1_565 S
C400 N398 1.340 . S
C400 N399 1.321 . S
C400 H424 0.928 . S
H401 C396 0.931 . S
Co402 N399 2.135 1_545 S
Co402 N405 2.121 . S
Co402 O410 2.055 . S
Co402 O413 2.039 . S
Co402 N416 2.140 . S
C403 O404 1.227 . S
C403 O413 1.265 . S
O404 C403 1.227 . S
N405 Co402 2.121 . S
N405 C407 1.375 . S
N405 C408 1.313 . S
C406 C407 1.338 . S
C406 N409 1.377 . S
C406 H426 0.930 . S
C407 N405 1.375 . S
C407 C406 1.338 . S
C407 H411 0.931 . S
C408 N405 1.313 . S
C408 N409 1.344 . S
C408 H412 0.930 . S
N409 C406 1.377 . S
N409 C408 1.344 . S
O410 Co402 2.055 . S
O410 C414 1.253 1_545 S
H411 C407 0.931 . S
H412 C408 0.930 . S
O413 Co402 2.039 . S
O413 C403 1.265 . S
C414 O410 1.253 1_565 S
C414 O415 1.227 . S
O415 C414 1.227 . S
N416 Co402 2.140 . S
N416 C419 1.346 . S
N416 C420 1.345 . S
C417 C418 1.387 . S
C417 C421 1.391 1_565 S
C418 C417 1.387 . S
C418 C419 1.369 1_565 S
C418 H427 0.929 . S
C419 N416 1.346 . S
C419 C418 1.369 1_545 S
C419 H422 0.928 . S
C420 N416 1.345 . S
C420 C421 1.371 . S
C420 H423 0.931 . S
C421 C417 1.391 1_545 S
C421 C420 1.371 . S
C421 H428 0.930 . S
H422 C419 0.928 . S
H423 C420 0.931 . S
H424 C400 0.928 . S
H425 C397 0.930 . S
H426 C406 0.930 . S
H427 C418 0.929 . S
H428 C421 0.930 . S
C429 C430 1.351 . S
C429 N432 1.368 . S
C429 H434 0.931 . S
C430 C429 1.351 . S
C430 N431 1.373 . S
C430 H458 0.930 . S
N431 C430 1.373 . S
N431 C433 1.340 . S
N432 C429 1.368 . S
N432 C433 1.321 . S
N432 Co435 2.135 . S
C433 N431 1.340 . S
C433 N432 1.321 . S
C433 H457 0.930 . S
H434 C429 0.931 . S
Co435 N432 2.135 . S
Co435 N438 2.121 . S
Co435 O443 2.055 . S
Co435 O446 2.039 . S
Co435 N449 2.140 . S
C436 O437 1.227 . S
C436 O446 1.265 . S
O437 C436 1.227 . S
N438 Co435 2.121 . S
N438 C440 1.375 . S
N438 C441 1.313 1_556 S
C439 C440 1.338 1_554 S
C439 N442 1.377 . S
C439 H459 0.930 . S
C440 N438 1.375 . S
C440 C439 1.338 1_556 S
C440 H444 0.931 . S
C441 N438 1.313 1_554 S
C441 N442 1.344 . S
C441 H445 0.930 . S
N442 C439 1.377 . S
N442 C441 1.344 . S
O443 Co435 2.055 . S
O443 C447 1.253 1_556 S
H444 C440 0.931 . S
H445 C441 0.930 . S
O446 Co435 2.039 . S
O446 C436 1.265 . S
C447 O443 1.253 1_554 S
C447 O448 1.227 . S
O448 C447 1.227 . S
N449 Co435 2.140 . S
N449 C452 1.346 . S
N449 C453 1.345 . S
C450 C451 1.387 . S
C450 C454 1.391 . S
C451 C450 1.387 . S
C451 C452 1.369 . S
C451 H460 0.929 . S
C452 N449 1.346 . S
C452 C451 1.369 . S
C452 H455 0.928 . S
C453 N449 1.345 . S
C453 C454 1.371 . S
C453 H456 0.931 1_556 S
C454 C450 1.391 . S
C454 C453 1.371 . S
C454 H461 0.930 1_556 S
H455 C452 0.928 . S
H456 C453 0.931 1_554 S
H457 C433 0.930 . S
H458 C430 0.930 . S
H459 C439 0.930 . S
H460 C451 0.929 . S
H461 C454 0.930 1_554 S
C462 C463 1.351 . S
C462 N465 1.368 . S
C462 H467 0.931 . S
C463 C462 1.351 . S
C463 N464 1.373 . S
C463 H491 0.930 . S
N464 C463 1.373 . S
N464 C466 1.340 . S
N465 C462 1.368 . S
N465 C466 1.321 . S
N465 Co468 2.135 . S
C466 N464 1.340 . S
C466 N465 1.321 . S
C466 H490 0.930 . S
H467 C462 0.931 . S
Co468 N465 2.135 . S
Co468 N471 2.121 . S
Co468 O476 2.055 . S
Co468 O479 2.039 . S
Co468 N482 2.140 . S
C469 O470 1.227 . S
C469 O479 1.265 . S
O470 C469 1.227 . S
N471 Co468 2.121 . S
N471 C473 1.375 . S
N471 C474 1.313 . S
C472 C473 1.338 . S
C472 N475 1.377 . S
C472 H492 0.930 . S
C473 N471 1.375 . S
C473 C472 1.338 . S
C473 H477 0.931 . S
C474 N471 1.313 . S
C474 N475 1.344 . S
C474 H478 0.930 . S
N475 C472 1.377 . S
N475 C474 1.344 . S
O476 Co468 2.055 . S
O476 C480 1.253 . S
H477 C473 0.931 . S
H478 C474 0.930 . S
O479 Co468 2.039 . S
O479 C469 1.265 . S
C480 O476 1.253 . S
C480 O481 1.227 . S
O481 C480 1.227 . S
N482 Co468 2.140 . S
N482 C485 1.346 . S
N482 C486 1.345 . S
C483 C484 1.387 . S
C483 C487 1.391 . S
C484 C483 1.387 . S
C484 C485 1.369 . S
C484 H493 0.929 . S
C485 N482 1.346 . S
C485 C484 1.369 . S
C485 H488 0.928 . S
C486 N482 1.345 . S
C486 C487 1.371 . S
C486 H489 0.931 . S
C487 C483 1.391 . S
C487 C486 1.371 . S
C487 H494 0.930 . S
H488 C485 0.928 . S
H489 C486 0.931 . S
H490 C466 0.930 . S
H491 C463 0.930 . S
H492 C472 0.930 . S
H493 C484 0.929 . S
H494 C487 0.930 . S
C495 C496 1.351 . S
C495 N498 1.368 . S
C495 H500 0.931 . S
C496 C495 1.351 . S
C496 N497 1.373 . S
C496 H524 0.930 . S
N497 C496 1.373 . S
N497 C499 1.340 . S
N498 C495 1.368 . S
N498 C499 1.321 . S
N498 Co501 2.135 1_655 S
C499 N497 1.340 . S
C499 N498 1.321 . S
C499 H523 0.928 . S
H500 C495 0.931 . S
Co501 N498 2.135 1_455 S
Co501 N504 2.121 . S
Co501 O509 2.055 . S
Co501 O512 2.039 . S
Co501 N515 2.140 . S
C502 O503 1.227 . S
C502 O512 1.265 . S
O503 C502 1.227 . S
N504 Co501 2.121 . S
N504 C506 1.375 . S
N504 C507 1.313 1_556 S
C505 C506 1.338 1_554 S
C505 N508 1.377 . S
C505 H525 0.930 . S
C506 N504 1.375 . S
C506 C505 1.338 1_556 S
C506 H510 0.931 . S
C507 N504 1.313 1_554 S
C507 N508 1.344 . S
C507 H511 0.930 . S
N508 C505 1.377 . S
N508 C507 1.344 . S
O509 Co501 2.055 . S
O509 C513 1.253 1_456 S
H510 C506 0.931 . S
H511 C507 0.930 . S
O512 Co501 2.039 . S
O512 C502 1.265 . S
C513 O509 1.253 1_654 S
C513 O514 1.227 . S
O514 C513 1.227 . S
N515 Co501 2.140 . S
N515 C518 1.346 . S
N515 C519 1.345 . S
C516 C517 1.387 . S
C516 C520 1.391 1_655 S
C517 C516 1.387 . S
C517 C518 1.369 1_655 S
C517 H526 0.929 . S
C518 N515 1.346 . S
C518 C517 1.369 1_455 S
C518 H521 0.928 . S
C519 N515 1.345 . S
C519 C520 1.371 . S
C519 H522 0.931 1_556 S
C520 C516 1.391 1_455 S
C520 C519 1.371 . S
C520 H527 0.930 1_556 S
H521 C518 0.928 . S
H522 C519 0.931 1_554 S
H523 C499 0.928 . S
H524 C496 0.930 . S
H525 C505 0.930 . S
H526 C517 0.929 . S
H527 C520 0.930 1_554 S
H528 C534 0.930 . S
H529 C537 0.930 . S
H530 C538 0.930 1_455 S
H531 C539 0.930 . S
H532 C542 0.930 . S
H533 C543 0.930 1_655 S
C534 H528 0.930 . S
C534 C535 1.355 1_565 S
C534 C536 1.415 . S
C535 C534 1.355 1_545 S
C535 C537 1.419 . S
C536 C534 1.415 . S
C536 C541 1.425 1_665 S
C536 C543 1.409 1_655 S
C537 H529 0.930 . S
C537 C535 1.419 . S
C537 C538 1.362 . S
C538 H530 0.930 1_655 S
C538 C537 1.362 . S
C538 C541 1.409 1_655 S
C539 H531 0.930 . S
C539 C540 1.355 1_545 S
C539 C541 1.415 . S
C540 C539 1.355 1_565 S
C540 C542 1.419 . S
C541 C536 1.425 1_445 S
C541 C538 1.409 1_455 S
C541 C539 1.415 . S
C542 H532 0.930 . S
C542 C540 1.419 . S
C542 C543 1.362 . S
C543 H533 0.930 1_455 S
C543 C536 1.409 1_455 S
C543 C542 1.362 . S
H544 C550 0.930 . S
H545 C553 0.930 . S
H546 C554 0.930 . S
H547 C555 0.930 . S
H548 C558 0.930 . S
H549 C559 0.930 . S
C550 H544 0.930 . S
C550 C551 1.355 . S
C550 C552 1.415 . S
C551 C550 1.355 . S
C551 C553 1.419 1_554 S
C552 C550 1.415 . S
C552 C557 1.425 1_544 S
C552 C559 1.409 1_545 S
C553 H545 0.930 . S
C553 C551 1.419 1_556 S
C553 C554 1.362 . S
C554 H546 0.930 . S
C554 C553 1.362 . S
C554 C557 1.409 1_545 S
C555 H547 0.930 . S
C555 C556 1.355 . S
C555 C557 1.415 . S
C556 C555 1.355 . S
C556 C558 1.419 1_556 S
C557 C552 1.425 1_566 S
C557 C554 1.409 1_565 S
C557 C555 1.415 . S
C558 H548 0.930 . S
C558 C556 1.419 1_554 S
C558 C559 1.362 . S
C559 H549 0.930 . S
C559 C552 1.409 1_565 S
C559 C558 1.362 . S
H560 C566 0.930 . S
H561 C569 0.930 . S
H562 C570 0.930 . S
H563 C571 0.930 . S
H564 C574 0.930 . S
H565 C575 0.930 . S
C566 H560 0.930 . S
C566 C567 1.355 . S
C566 C568 1.415 . S
C567 C566 1.355 . S
C567 C569 1.419 . S
C568 C566 1.415 . S
C568 C573 1.425 . S
C568 C575 1.409 . S
C569 H561 0.930 . S
C569 C567 1.419 . S
C569 C570 1.362 . S
C570 H562 0.930 . S
C570 C569 1.362 . S
C570 C573 1.409 . S
C571 H563 0.930 . S
C571 C572 1.355 . S
C571 C573 1.415 . S
C572 C571 1.355 . S
C572 C574 1.419 . S
C573 C568 1.425 . S
C573 C570 1.409 . S
C573 C571 1.415 . S
C574 H564 0.930 . S
C574 C572 1.419 . S
C574 C575 1.362 . S
C575 H565 0.930 . S
C575 C568 1.409 . S
C575 C574 1.362 . S
H576 C582 0.930 . S
H577 C585 0.927 1_655 S
H578 C586 0.930 . S
H579 C587 0.930 . S
H580 C590 0.927 1_455 S
H581 C591 0.930 . S
C582 H576 0.930 . S
C582 C583 1.355 1_554 S
C582 C584 1.415 . S
C583 C582 1.355 1_556 S
C583 C585 1.434 . S
C584 C582 1.415 . S
C584 C589 1.425 1_454 S
C584 C591 1.409 . S
C585 H577 0.927 1_455 S
C585 C583 1.434 . S
C585 C586 1.352 1_455 S
C586 H578 0.930 . S
C586 C585 1.352 1_655 S
C586 C589 1.409 . S
C587 H579 0.930 . S
C587 C588 1.355 1_556 S
C587 C589 1.415 . S
C588 C587 1.355 1_554 S
C588 C590 1.434 . S
C589 C584 1.425 1_656 S
C589 C586 1.409 . S
C589 C587 1.415 . S
C590 H580 0.927 1_655 S
C590 C588 1.434 . S
C590 C591 1.352 1_655 S
C591 H581 0.930 . S
C591 C584 1.409 . S
C591 C590 1.352 1_455 S
H592 C598 0.930 . S
H593 C601 0.930 . S
H594 C602 0.930 . S
H595 C603 0.930 . S
H596 C606 0.930 . S
H597 C607 0.930 . S
C598 H592 0.930 . S
C598 C599 1.355 . S
C598 C600 1.415 . S
C599 C598 1.355 . S
C599 C601 1.419 1_545 S
C600 C598 1.415 . S
C600 C605 1.425 1_545 S
C600 C607 1.409 . S
C601 H593 0.930 . S
C601 C599 1.419 1_565 S
C601 C602 1.362 . S
C602 H594 0.930 . S
C602 C601 1.362 . S
C602 C605 1.409 . S
C603 H595 0.930 . S
C603 C604 1.355 . S
C603 C605 1.415 . S
C604 C603 1.355 . S
C604 C606 1.419 1_565 S
C605 C600 1.425 1_565 S
C605 C602 1.409 . S
C605 C603 1.415 . S
C606 H596 0.930 . S
C606 C604 1.419 1_545 S
C606 C607 1.362 . S
C607 H597 0.930 . S
C607 C600 1.409 . S
C607 C606 1.362 . S
H608 C614 0.930 . S
H609 C617 0.930 . S
H610 C618 0.930 . S
H611 C619 0.930 . S
H612 C622 0.930 . S
H613 C623 0.930 . S
C614 H608 0.930 . S
C614 C615 1.355 . S
C614 C616 1.415 . S
C615 C614 1.355 . S
C615 C617 1.419 1_556 S
C616 C614 1.415 . S
C616 C621 1.425 1_556 S
C616 C623 1.409 . S
C617 H609 0.930 . S
C617 C615 1.419 1_554 S
C617 C618 1.362 . S
C618 H610 0.930 . S
C618 C617 1.362 . S
C618 C621 1.409 . S
C619 H611 0.930 . S
C619 C620 1.355 . S
C619 C621 1.415 . S
C620 C619 1.355 . S
C620 C622 1.419 1_554 S
C621 C616 1.425 1_554 S
C621 C618 1.409 . S
C621 C619 1.415 . S
C622 H612 0.930 . S
C622 C620 1.419 1_556 S
C622 C623 1.362 . S
C623 H613 0.930 . S
C623 C616 1.409 . S
C623 C622 1.362 . S
H624 C630 0.930 . S
H625 C633 0.930 . S
H626 C634 0.930 . S
H627 C635 0.930 . S
H628 C638 0.930 . S
H629 C639 0.930 . S
C630 H624 0.930 . S
C630 C631 1.355 . S
C630 C632 1.415 . S
C631 C630 1.355 . S
C631 C633 1.419 . S
C632 C630 1.415 . S
C632 C637 1.425 1_655 S
C632 C639 1.409 1_655 S
C633 H625 0.930 . S
C633 C631 1.419 . S
C633 C634 1.362 . S
C634 H626 0.930 . S
C634 C633 1.362 . S
C634 C637 1.409 1_655 S
C635 H627 0.930 . S
C635 C636 1.355 . S
C635 C637 1.415 . S
C636 C635 1.355 . S
C636 C638 1.419 . S
C637 C632 1.425 1_455 S
C637 C634 1.409 1_455 S
C637 C635 1.415 . S
C638 H628 0.930 . S
C638 C636 1.419 . S
C638 C639 1.362 . S
C639 H629 0.930 . S
C639 C632 1.409 1_455 S
C639 C638 1.362 . S
H640 C646 0.930 1_655 S
H641 C649 0.930 . S
H642 C650 0.930 . S
H643 C651 0.930 1_455 S
H644 C654 0.930 . S
H645 C655 0.930 . S
C646 H640 0.930 1_455 S
C646 C647 1.355 . S
C646 C648 1.415 1_455 S
C647 C646 1.355 . S
C647 C649 1.419 1_556 S
C648 C646 1.415 1_655 S
C648 C653 1.425 1_666 S
C648 C655 1.409 1_565 S
C649 H641 0.930 . S
C649 C647 1.419 1_554 S
C649 C650 1.362 . S
C650 H642 0.930 . S
C650 C649 1.362 . S
C650 C653 1.409 1_565 S
C651 H643 0.930 1_655 S
C651 C652 1.355 . S
C651 C653 1.415 1_655 S
C652 C651 1.355 . S
C652 C654 1.419 1_554 S
C653 C648 1.425 1_444 S
C653 C650 1.409 1_545 S
C653 C651 1.415 1_455 S
C654 H644 0.930 . S
C654 C652 1.419 1_556 S
C654 C655 1.362 . S
C655 H645 0.930 . S
C655 C648 1.409 1_545 S
C655 C654 1.362 . S
H656 C662 0.930 . S
H657 C665 0.930 . S
H658 C666 0.930 . S
H659 C667 0.930 . S
H660 C670 0.930 . S
H661 C671 0.930 . S
C662 H656 0.930 . S
C662 C663 1.355 . S
C662 C664 1.415 . S
C663 C662 1.355 . S
C663 C665 1.419 . S
C664 C662 1.415 . S
C664 C669 1.425 . S
C664 C671 1.409 . S
C665 H657 0.930 . S
C665 C663 1.419 . S
C665 C666 1.362 . S
C666 H658 0.930 . S
C666 C665 1.362 . S
C666 C669 1.409 . S
C667 H659 0.930 . S
C667 C668 1.355 . S
C667 C669 1.415 . S
C668 C667 1.355 . S
C668 C670 1.419 . S
C669 C664 1.425 . S
C669 C666 1.409 . S
C669 C667 1.415 . S
C670 H660 0.930 . S
C670 C668 1.419 . S
C670 C671 1.362 . S
C671 H661 0.930 . S
C671 C664 1.409 . S
C671 C670 1.362 . S
H672 C678 0.930 . S
H673 C681 0.930 . S
H674 C682 0.930 . S
H675 C683 0.930 . S
H676 C686 0.930 . S
H677 C687 0.930 . S
C678 H672 0.930 . S
C678 C679 1.355 . S
C678 C680 1.415 . S
C679 C678 1.355 . S
C679 C681 1.419 . S
C680 C678 1.415 . S
C680 C685 1.425 . S
C680 C687 1.409 . S
C681 H673 0.930 . S
C681 C679 1.419 . S
C681 C682 1.362 . S
C682 H674 0.930 . S
C682 C681 1.362 . S
C682 C685 1.409 . S
C683 H675 0.930 . S
C683 C684 1.355 . S
C683 C685 1.415 . S
C684 C683 1.355 . S
C684 C686 1.419 . S
C685 C680 1.425 . S
C685 C682 1.409 . S
C685 C683 1.415 . S
C686 H676 0.930 . S
C686 C684 1.419 . S
C686 C687 1.362 . S
C687 H677 0.930 . S
C687 C680 1.409 . S
C687 C686 1.362 . S
H688 C694 0.930 . S
H689 C697 0.930 . S
H690 C698 0.930 . S
H691 C699 0.930 . S
H692 C702 0.930 . S
H693 C703 0.930 . S
C694 H688 0.930 . S
C694 C695 1.355 . S
C694 C696 1.415 . S
C695 C694 1.355 . S
C695 C697 1.419 . S
C696 C694 1.415 . S
C696 C701 1.425 . S
C696 C703 1.409 . S
C697 H689 0.930 . S
C697 C695 1.419 . S
C697 C698 1.362 . S
C698 H690 0.930 . S
C698 C697 1.362 . S
C698 C701 1.409 . S
C699 H691 0.930 . S
C699 C700 1.355 . S
C699 C701 1.415 . S
C700 C699 1.355 . S
C700 C702 1.419 . S
C701 C696 1.425 . S
C701 C698 1.409 . S
C701 C699 1.415 . S
C702 H692 0.930 . S
C702 C700 1.419 . S
C702 C703 1.362 . S
C703 H693 0.930 . S
C703 C696 1.409 . S
C703 C702 1.362 . S
H704 C710 0.930 . S
H705 C713 0.930 . S
H706 C714 0.930 . S
H707 C715 0.930 . S
H708 C718 0.930 . S
H709 C719 0.930 . S
C710 H704 0.930 . S
C710 C711 1.355 . S
C710 C712 1.415 . S
C711 C710 1.355 . S
C711 C713 1.419 . S
C712 C710 1.415 . S
C712 C717 1.425 . S
C712 C719 1.409 . S
C713 H705 0.930 . S
C713 C711 1.419 . S
C713 C714 1.362 . S
C714 H706 0.930 . S
C714 C713 1.362 . S
C714 C717 1.409 . S
C715 H707 0.930 . S
C715 C716 1.355 . S
C715 C717 1.415 . S
C716 C715 1.355 . S
C716 C718 1.419 . S
C717 C712 1.425 . S
C717 C714 1.409 . S
C717 C715 1.415 . S
C718 H708 0.930 . S
C718 C716 1.419 . S
C718 C719 1.362 . S
C719 H709 0.930 . S
C719 C712 1.409 . S
C719 C718 1.362 . S
H720 C726 0.930 . S
H721 C729 0.930 . S
H722 C730 0.930 . S
H723 C731 0.930 . S
H724 C734 0.930 . S
H725 C735 0.930 . S
C726 H720 0.930 . S
C726 C727 1.355 . S
C726 C728 1.415 . S
C727 C726 1.355 . S
C727 C729 1.419 . S
C728 C726 1.415 . S
C728 C733 1.425 . S
C728 C735 1.409 . S
C729 H721 0.930 . S
C729 C727 1.419 . S
C729 C730 1.362 . S
C730 H722 0.930 . S
C730 C729 1.362 . S
C730 C733 1.409 . S
C731 H723 0.930 . S
C731 C732 1.355 . S
C731 C733 1.415 . S
C732 C731 1.355 . S
C732 C734 1.419 . S
C733 C728 1.425 . S
C733 C730 1.409 . S
C733 C731 1.415 . S
C734 H724 0.930 . S
C734 C732 1.419 . S
C734 C735 1.362 . S
C735 H725 0.930 . S
C735 C728 1.409 . S
C735 C734 1.362 . S
H736 C742 0.930 . S
H737 C745 0.930 . S
H738 C746 0.930 . S
H739 C747 0.930 . S
H740 C750 0.930 . S
H741 C751 0.930 . S
C742 H736 0.930 . S
C742 C743 1.355 . S
C742 C744 1.415 . S
C743 C742 1.355 . S
C743 C745 1.419 . S
C744 C742 1.415 . S
C744 C749 1.425 . S
C744 C751 1.409 . S
C745 H737 0.930 . S
C745 C743 1.419 . S
C745 C746 1.362 . S
C746 H738 0.930 . S
C746 C745 1.362 . S
C746 C749 1.409 . S
C747 H739 0.930 . S
C747 C748 1.355 . S
C747 C749 1.415 . S
C748 C747 1.355 . S
C748 C750 1.419 . S
C749 C744 1.425 . S
C749 C746 1.409 . S
C749 C747 1.415 . S
C750 H740 0.930 . S
C750 C748 1.419 . S
C750 C751 1.362 . S
C751 H741 0.930 . S
C751 C744 1.409 . S
C751 C750 1.362 . S
H752 C758 0.930 . S
H753 C761 0.930 . S
H754 C762 0.930 . S
H755 C763 0.930 . S
H756 C766 0.930 . S
H757 C767 0.930 . S
C758 H752 0.930 . S
C758 C759 1.355 . S
C758 C760 1.415 . S
C759 C758 1.355 . S
C759 C761 1.419 . S
C760 C758 1.415 . S
C760 C765 1.425 . S
C760 C767 1.409 . S
C761 H753 0.930 . S
C761 C759 1.419 . S
C761 C762 1.362 . S
C762 H754 0.930 . S
C762 C761 1.362 . S
C762 C765 1.409 . S
C763 H755 0.930 . S
C763 C764 1.355 . S
C763 C765 1.415 . S
C764 C763 1.355 . S
C764 C766 1.419 . S
C765 C760 1.425 . S
C765 C762 1.409 . S
C765 C763 1.415 . S
C766 H756 0.930 . S
C766 C764 1.419 . S
C766 C767 1.362 . S
C767 H757 0.930 . S
C767 C760 1.409 . S
C767 C766 1.362 . S
H768 C774 0.930 . S
H769 C777 0.930 . S
H770 C778 0.930 . S
H771 C779 0.930 . S
H772 C782 0.930 . S
H773 C783 0.930 . S
C774 H768 0.930 . S
C774 C775 1.355 . S
C774 C776 1.415 . S
C775 C774 1.355 . S
C775 C777 1.419 . S
C776 C774 1.415 . S
C776 C781 1.425 . S
C776 C783 1.409 . S
C777 H769 0.930 . S
C777 C775 1.419 . S
C777 C778 1.362 . S
C778 H770 0.930 . S
C778 C777 1.362 . S
C778 C781 1.409 . S
C779 H771 0.930 . S
C779 C780 1.355 . S
C779 C781 1.415 . S
C780 C779 1.355 . S
C780 C782 1.419 . S
C781 C776 1.425 . S
C781 C778 1.409 . S
C781 C779 1.415 . S
C782 H772 0.930 . S
C782 C780 1.419 . S
C782 C783 1.362 . S
C783 H773 0.930 . S
C783 C776 1.409 . S
C783 C782 1.362 . S
H784 C790 0.930 . S
H785 C793 0.930 . S
H786 C794 0.930 . S
H787 C795 0.930 . S
H788 C798 0.930 . S
H789 C799 0.930 . S
C790 H784 0.930 . S
C790 C791 1.355 . S
C790 C792 1.415 . S
C791 C790 1.355 . S
C791 C793 1.419 . S
C792 C790 1.415 . S
C792 C797 1.425 . S
C792 C799 1.409 . S
C793 H785 0.930 . S
C793 C791 1.419 . S
C793 C794 1.362 . S
C794 H786 0.930 . S
C794 C793 1.362 . S
C794 C797 1.409 . S
C795 H787 0.930 . S
C795 C796 1.355 . S
C795 C797 1.415 . S
C796 C795 1.355 . S
C796 C798 1.419 . S
C797 C792 1.425 . S
C797 C794 1.409 . S
C797 C795 1.415 . S
C798 H788 0.930 . S
C798 C796 1.419 . S
C798 C799 1.362 . S
C799 H789 0.930 . S
C799 C792 1.409 . S
C799 C798 1.362 . S
H800 C806 0.930 . S
H801 C809 0.930 . S
H802 C810 0.930 . S
H803 C811 0.930 . S
H804 C814 0.930 . S
H805 C815 0.930 . S
C806 H800 0.930 . S
C806 C807 1.355 . S
C806 C808 1.415 . S
C807 C806 1.355 . S
C807 C809 1.419 . S
C808 C806 1.415 . S
C808 C813 1.425 . S
C808 C815 1.409 . S
C809 H801 0.930 . S
C809 C807 1.419 . S
C809 C810 1.362 . S
C810 H802 0.930 . S
C810 C809 1.362 . S
C810 C813 1.409 . S
C811 H803 0.930 . S
C811 C812 1.355 . S
C811 C813 1.415 . S
C812 C811 1.355 . S
C812 C814 1.419 . S
C813 C808 1.425 . S
C813 C810 1.409 . S
C813 C811 1.415 . S
C814 H804 0.930 . S
C814 C812 1.419 . S
C814 C815 1.362 . S
C815 H805 0.930 . S
C815 C808 1.409 . S
C815 C814 1.362 . S
H816 C822 0.930 . S
H817 C825 0.930 . S
H818 C826 0.930 . S
H819 C827 0.930 . S
H820 C830 0.930 . S
H821 C831 0.930 . S
C822 H816 0.930 . S
C822 C823 1.355 . S
C822 C824 1.415 . S
C823 C822 1.355 . S
C823 C825 1.419 . S
C824 C822 1.415 . S
C824 C829 1.425 . S
C824 C831 1.409 . S
C825 H817 0.930 . S
C825 C823 1.419 . S
C825 C826 1.362 . S
C826 H818 0.930 . S
C826 C825 1.362 . S
C826 C829 1.409 . S
C827 H819 0.930 . S
C827 C828 1.355 . S
C827 C829 1.415 . S
C828 C827 1.355 . S
C828 C830 1.419 . S
C829 C824 1.425 . S
C829 C826 1.409 . S
C829 C827 1.415 . S
C830 H820 0.930 . S
C830 C828 1.419 . S
C830 C831 1.362 . S
C831 H821 0.930 . S
C831 C824 1.409 . S
C831 C830 1.362 . S
H832 C838 0.930 . S
H833 C841 0.930 . S
H834 C842 0.930 . S
H835 C843 0.930 . S
H836 C846 0.930 . S
H837 C847 0.930 . S
C838 H832 0.930 . S
C838 C839 1.355 . S
C838 C840 1.415 . S
C839 C838 1.355 . S
C839 C841 1.419 . S
C840 C838 1.415 . S
C840 C845 1.425 . S
C840 C847 1.409 . S
C841 H833 0.930 . S
C841 C839 1.419 . S
C841 C842 1.362 . S
C842 H834 0.930 . S
C842 C841 1.362 . S
C842 C845 1.409 . S
C843 H835 0.930 . S
C843 C844 1.355 . S
C843 C845 1.415 . S
C844 C843 1.355 . S
C844 C846 1.419 . S
C845 C840 1.425 . S
C845 C842 1.409 . S
C845 C843 1.415 . S
C846 H836 0.930 . S
C846 C844 1.419 . S
C846 C847 1.362 . S
C847 H837 0.930 . S
C847 C840 1.409 . S
C847 C846 1.362 . S
H848 C854 0.930 . S
H849 C857 0.930 . S
H850 C858 0.930 . S
H851 C859 0.930 . S
H852 C862 0.930 . S
H853 C863 0.930 . S
C854 H848 0.930 . S
C854 C855 1.355 . S
C854 C856 1.415 . S
C855 C854 1.355 . S
C855 C857 1.419 . S
C856 C854 1.415 . S
C856 C861 1.425 . S
C856 C863 1.409 . S
C857 H849 0.930 . S
C857 C855 1.419 . S
C857 C858 1.362 . S
C858 H850 0.930 . S
C858 C857 1.362 . S
C858 C861 1.409 . S
C859 H851 0.930 . S
C859 C860 1.355 . S
C859 C861 1.415 . S
C860 C859 1.355 . S
C860 C862 1.419 . S
C861 C856 1.425 . S
C861 C858 1.409 . S
C861 C859 1.415 . S
C862 H852 0.930 . S
C862 C860 1.419 . S
C862 C863 1.362 . S
C863 H853 0.930 . S
C863 C856 1.409 . S
C863 C862 1.362 . S
H864 C870 0.930 . S
H865 C873 0.930 . S
H866 C874 0.930 . S
H867 C875 0.930 . S
H868 C878 0.930 . S
H869 C879 0.930 . S
C870 H864 0.930 . S
C870 C871 1.355 . S
C870 C872 1.415 . S
C871 C870 1.355 . S
C871 C873 1.419 . S
C872 C870 1.415 . S
C872 C877 1.425 . S
C872 C879 1.409 . S
C873 H865 0.930 . S
C873 C871 1.419 . S
C873 C874 1.362 . S
C874 H866 0.930 . S
C874 C873 1.362 . S
C874 C877 1.409 . S
C875 H867 0.930 . S
C875 C876 1.355 . S
C875 C877 1.415 . S
C876 C875 1.355 . S
C876 C878 1.419 . S
C877 C872 1.425 . S
C877 C874 1.409 . S
C877 C875 1.415 . S
C878 H868 0.930 . S
C878 C876 1.419 . S
C878 C879 1.362 . S
C879 H869 0.930 . S
C879 C872 1.409 . S
C879 C878 1.362 . S
H880 C886 0.930 . S
H881 C889 0.930 . S
H882 C890 0.930 . S
H883 C891 0.930 . S
H884 C894 0.930 . S
H885 C895 0.930 . S
C886 H880 0.930 . S
C886 C887 1.355 . S
C886 C888 1.415 . S
C887 C886 1.355 . S
C887 C889 1.419 . S
C888 C886 1.415 . S
C888 C893 1.425 . S
C888 C895 1.409 . S
C889 H881 0.930 . S
C889 C887 1.419 . S
C889 C890 1.362 . S
C890 H882 0.930 . S
C890 C889 1.362 . S
C890 C893 1.409 . S
C891 H883 0.930 . S
C891 C892 1.355 . S
C891 C893 1.415 . S
C892 C891 1.355 . S
C892 C894 1.419 . S
C893 C888 1.425 . S
C893 C890 1.409 . S
C893 C891 1.415 . S
C894 H884 0.930 . S
C894 C892 1.419 . S
C894 C895 1.362 . S
C895 H885 0.930 . S
C895 C888 1.409 . S
C895 C894 1.362 . S
H896 C902 0.930 . S
H897 C905 0.930 . S
H898 C906 0.930 . S
H899 C907 0.930 . S
H900 C910 0.930 . S
H901 C911 0.930 . S
C902 H896 0.930 . S
C902 C903 1.355 . S
C902 C904 1.415 . S
C903 C902 1.355 . S
C903 C905 1.419 . S
C904 C902 1.415 . S
C904 C909 1.425 . S
C904 C911 1.409 . S
C905 H897 0.930 . S
C905 C903 1.419 . S
C905 C906 1.362 . S
C906 H898 0.930 . S
C906 C905 1.362 . S
C906 C909 1.409 . S
C907 H899 0.930 . S
C907 C908 1.355 . S
C907 C909 1.415 . S
C908 C907 1.355 . S
C908 C910 1.419 . S
C909 C904 1.425 . S
C909 C906 1.409 . S
C909 C907 1.415 . S
C910 H900 0.930 . S
C910 C908 1.419 . S
C910 C911 1.362 . S
C911 H901 0.930 . S
C911 C904 1.409 . S
C911 C910 1.362 . S
H912 C918 0.930 . S
H913 C921 0.930 . S
H914 C922 0.930 . S
H915 C923 0.930 . S
H916 C926 0.930 . S
H917 C927 0.930 . S
C918 H912 0.930 . S
C918 C919 1.355 . S
C918 C920 1.415 . S
C919 C918 1.355 . S
C919 C921 1.419 . S
C920 C918 1.415 . S
C920 C925 1.425 . S
C920 C927 1.409 . S
C921 H913 0.930 . S
C921 C919 1.419 . S
C921 C922 1.362 . S
C922 H914 0.930 . S
C922 C921 1.362 . S
C922 C925 1.409 . S
C923 H915 0.930 . S
C923 C924 1.355 . S
C923 C925 1.415 . S
C924 C923 1.355 . S
C924 C926 1.419 . S
C925 C920 1.425 . S
C925 C922 1.409 . S
C925 C923 1.415 . S
C926 H916 0.930 . S
C926 C924 1.419 . S
C926 C927 1.362 . S
C927 H917 0.930 . S
C927 C920 1.409 . S
C927 C926 1.362 . S
H928 C934 0.930 . S
H929 C937 0.930 . S
H930 C938 0.930 . S
H931 C939 0.930 . S
H932 C942 0.930 . S
H933 C943 0.930 . S
C934 H928 0.930 . S
C934 C935 1.355 . S
C934 C936 1.415 . S
C935 C934 1.355 . S
C935 C937 1.419 . S
C936 C934 1.415 . S
C936 C941 1.425 . S
C936 C943 1.409 . S
C937 H929 0.930 . S
C937 C935 1.419 . S
C937 C938 1.362 . S
C938 H930 0.930 . S
C938 C937 1.362 . S
C938 C941 1.409 . S
C939 H931 0.930 . S
C939 C940 1.355 . S
C939 C941 1.415 . S
C940 C939 1.355 . S
C940 C942 1.419 . S
C941 C936 1.425 . S
C941 C938 1.409 . S
C941 C939 1.415 . S
C942 H932 0.930 . S
C942 C940 1.419 . S
C942 C943 1.362 . S
C943 H933 0.930 . S
C943 C936 1.409 . S
C943 C942 1.362 . S
H944 C950 0.930 . S
H945 C953 0.930 . S
H946 C954 0.930 . S
H947 C955 0.930 . S
H948 C958 0.930 . S
H949 C959 0.930 . S
C950 H944 0.930 . S
C950 C951 1.355 . S
C950 C952 1.415 . S
C951 C950 1.355 . S
C951 C953 1.419 . S
C952 C950 1.415 . S
C952 C957 1.425 . S
C952 C959 1.409 . S
C953 H945 0.930 . S
C953 C951 1.419 . S
C953 C954 1.362 . S
C954 H946 0.930 . S
C954 C953 1.362 . S
C954 C957 1.409 . S
C955 H947 0.930 . S
C955 C956 1.355 . S
C955 C957 1.415 . S
C956 C955 1.355 . S
C956 C958 1.419 . S
C957 C952 1.425 . S
C957 C954 1.409 . S
C957 C955 1.415 . S
C958 H948 0.930 . S
C958 C956 1.419 . S
C958 C959 1.362 . S
C959 H949 0.930 . S
C959 C952 1.409 . S
C959 C958 1.362 . S
H960 C966 0.930 . S
H961 C969 0.930 . S
H962 C970 0.930 . S
H963 C971 0.930 . S
H964 C974 0.930 . S
H965 C975 0.930 . S
C966 H960 0.930 . S
C966 C967 1.355 . S
C966 C968 1.415 . S
C967 C966 1.355 . S
C967 C969 1.419 . S
C968 C966 1.415 . S
C968 C973 1.425 . S
C968 C975 1.409 . S
C969 H961 0.930 . S
C969 C967 1.419 . S
C969 C970 1.362 . S
C970 H962 0.930 . S
C970 C969 1.362 . S
C970 C973 1.409 . S
C971 H963 0.930 . S
C971 C972 1.355 . S
C971 C973 1.415 . S
C972 C971 1.355 . S
C972 C974 1.419 . S
C973 C968 1.425 . S
C973 C970 1.409 . S
C973 C971 1.415 . S
C974 H964 0.930 . S
C974 C972 1.419 . S
C974 C975 1.362 . S
C975 H965 0.930 . S
C975 C968 1.409 . S
C975 C974 1.362 . S
H976 C982 0.930 . S
H977 C985 0.930 . S
H978 C986 0.930 . S
H979 C987 0.930 . S
H980 C990 0.930 . S
H981 C991 0.930 . S
C982 H976 0.930 . S
C982 C983 1.355 . S
C982 C984 1.415 . S
C983 C982 1.355 . S
C983 C985 1.419 . S
C984 C982 1.415 . S
C984 C989 1.425 . S
C984 C991 1.409 . S
C985 H977 0.930 . S
C985 C983 1.419 . S
C985 C986 1.362 . S
C986 H978 0.930 . S
C986 C985 1.362 . S
C986 C989 1.409 . S
C987 H979 0.930 . S
C987 C988 1.355 . S
C987 C989 1.415 . S
C988 C987 1.355 . S
C988 C990 1.419 . S
C989 C984 1.425 . S
C989 C986 1.409 . S
C989 C987 1.415 . S
C990 H980 0.930 . S
C990 C988 1.419 . S
C990 C991 1.362 . S
C991 H981 0.930 . S
C991 C984 1.409 . S
C991 C990 1.362 . S
H992 C998 0.930 . S
H993 C1001 0.930 . S
H994 C1002 0.930 . S
H995 C1003 0.930 . S
H996 C1006 0.930 . S
H997 C1007 0.930 . S
C998 H992 0.930 . S
C998 C999 1.355 . S
C998 C1000 1.415 . S
C999 C998 1.355 . S
C999 C1001 1.419 . S
C1000 C998 1.415 . S
C1000 C1005 1.425 . S
C1000 C1007 1.409 . S
C1001 H993 0.930 . S
C1001 C999 1.419 . S
C1001 C1002 1.362 . S
C1002 H994 0.930 . S
C1002 C1001 1.362 . S
C1002 C1005 1.409 . S
C1003 H995 0.930 . S
C1003 C1004 1.355 . S
C1003 C1005 1.415 . S
C1004 C1003 1.355 . S
C1004 C1006 1.419 . S
C1005 C1000 1.425 . S
C1005 C1002 1.409 . S
C1005 C1003 1.415 . S
C1006 H996 0.930 . S
C1006 C1004 1.419 . S
C1006 C1007 1.362 . S
C1007 H997 0.930 . S
C1007 C1000 1.409 . S
C1007 C1006 1.362 . S
H1008 C1014 0.930 . S
H1009 C1017 0.930 . S
H1010 C1018 0.930 . S
H1011 C1019 0.930 . S
H1012 C1022 0.930 . S
H1013 C1023 0.930 . S
C1014 H1008 0.930 . S
C1014 C1015 1.355 . S
C1014 C1016 1.415 . S
C1015 C1014 1.355 . S
C1015 C1017 1.419 . S
C1016 C1014 1.415 . S
C1016 C1021 1.425 . S
C1016 C1023 1.409 . S
C1017 H1009 0.930 . S
C1017 C1015 1.419 . S
C1017 C1018 1.362 . S
C1018 H1010 0.930 . S
C1018 C1017 1.362 . S
C1018 C1021 1.409 . S
C1019 H1011 0.930 . S
C1019 C1020 1.355 . S
C1019 C1021 1.415 . S
C1020 C1019 1.355 . S
C1020 C1022 1.419 . S
C1021 C1016 1.425 . S
C1021 C1018 1.409 . S
C1021 C1019 1.415 . S
C1022 H1012 0.930 . S
C1022 C1020 1.419 . S
C1022 C1023 1.362 . S
C1023 H1013 0.930 . S
C1023 C1016 1.409 . S
C1023 C1022 1.362 . S
H1024 C1030 0.930 . S
H1025 C1033 0.930 . S
H1026 C1034 0.930 . S
H1027 C1035 0.930 . S
H1028 C1038 0.930 . S
H1029 C1039 0.930 . S
C1030 H1024 0.930 . S
C1030 C1031 1.355 . S
C1030 C1032 1.415 . S
C1031 C1030 1.355 . S
C1031 C1033 1.419 . S
C1032 C1030 1.415 . S
C1032 C1037 1.425 . S
C1032 C1039 1.409 . S
C1033 H1025 0.930 . S
C1033 C1031 1.419 . S
C1033 C1034 1.362 . S
C1034 H1026 0.930 . S
C1034 C1033 1.362 . S
C1034 C1037 1.409 . S
C1035 H1027 0.930 . S
C1035 C1036 1.355 . S
C1035 C1037 1.415 . S
C1036 C1035 1.355 . S
C1036 C1038 1.419 . S
C1037 C1032 1.425 . S
C1037 C1034 1.409 . S
C1037 C1035 1.415 . S
C1038 H1028 0.930 . S
C1038 C1036 1.419 . S
C1038 C1039 1.362 . S
C1039 H1029 0.930 . S
C1039 C1032 1.409 . S
C1039 C1038 1.362 . S
H1040 C1046 0.930 . S
H1041 C1049 0.930 . S
H1042 C1050 0.930 . S
H1043 C1051 0.930 . S
H1044 C1054 0.930 . S
H1045 C1055 0.930 . S
C1046 H1040 0.930 . S
C1046 C1047 1.355 . S
C1046 C1048 1.415 . S
C1047 C1046 1.355 . S
C1047 C1049 1.419 1_565 S
C1048 C1046 1.415 . S
C1048 C1053 1.425 1_565 S
C1048 C1055 1.409 . S
C1049 H1041 0.930 . S
C1049 C1047 1.419 1_545 S
C1049 C1050 1.362 . S
C1050 H1042 0.930 . S
C1050 C1049 1.362 . S
C1050 C1053 1.409 . S
C1051 H1043 0.930 . S
C1051 C1052 1.355 1_545 S
C1051 C1053 1.415 . S
C1052 C1051 1.355 1_565 S
C1052 C1054 1.419 . S
C1053 C1048 1.425 1_545 S
C1053 C1050 1.409 . S
C1053 C1051 1.415 . S
C1054 H1044 0.930 . S
C1054 C1052 1.419 . S
C1054 C1055 1.362 . S
C1055 H1045 0.930 . S
C1055 C1048 1.409 . S
C1055 C1054 1.362 . S
H1056 C1062 0.930 . S
H1057 C1065 0.930 . S
H1058 C1066 0.930 . S
H1059 C1067 0.930 . S
H1060 C1070 0.930 . S
H1061 C1071 0.930 . S
C1062 H1056 0.930 . S
C1062 C1063 1.355 . S
C1062 C1064 1.415 . S
C1063 C1062 1.355 . S
C1063 C1065 1.419 . S
C1064 C1062 1.415 . S
C1064 C1069 1.425 . S
C1064 C1071 1.409 . S
C1065 H1057 0.930 . S
C1065 C1063 1.419 . S
C1065 C1066 1.362 . S
C1066 H1058 0.930 . S
C1066 C1065 1.362 . S
C1066 C1069 1.409 . S
C1067 H1059 0.930 . S
C1067 C1068 1.355 . S
C1067 C1069 1.415 . S
C1068 C1067 1.355 . S
C1068 C1070 1.419 . S
C1069 C1064 1.425 . S
C1069 C1066 1.409 . S
C1069 C1067 1.415 . S
C1070 H1060 0.930 . S
C1070 C1068 1.419 . S
C1070 C1071 1.362 . S
C1071 H1061 0.930 . S
C1071 C1064 1.409 . S
C1071 C1070 1.362 . S
H1072 C1078 0.930 . S
H1073 C1081 0.930 . S
H1074 C1082 0.930 . S
H1075 C1083 0.930 . S
H1076 C1086 0.930 . S
H1077 C1087 0.930 . S
C1078 H1072 0.930 . S
C1078 C1079 1.355 . S
C1078 C1080 1.415 . S
C1079 C1078 1.355 . S
C1079 C1081 1.419 . S
C1080 C1078 1.415 . S
C1080 C1085 1.425 . S
C1080 C1087 1.409 . S
C1081 H1073 0.930 . S
C1081 C1079 1.419 . S
C1081 C1082 1.362 . S
C1082 H1074 0.930 . S
C1082 C1081 1.362 . S
C1082 C1085 1.409 . S
C1083 H1075 0.930 . S
C1083 C1084 1.355 . S
C1083 C1085 1.415 . S
C1084 C1083 1.355 . S
C1084 C1086 1.419 . S
C1085 C1080 1.425 . S
C1085 C1082 1.409 . S
C1085 C1083 1.415 . S
C1086 H1076 0.930 . S
C1086 C1084 1.419 . S
C1086 C1087 1.362 . S
C1087 H1077 0.930 . S
C1087 C1080 1.409 . S
C1087 C1086 1.362 . S
H1088 C1094 0.930 . S
H1089 C1097 0.930 . S
H1090 C1098 0.930 . S
H1091 C1099 0.930 . S
H1092 C1102 0.930 . S
H1093 C1103 0.930 . S
C1094 H1088 0.930 . S
C1094 C1095 1.355 1_455 S
C1094 C1096 1.415 . S
C1095 C1094 1.355 1_655 S
C1095 C1097 1.419 . S
C1096 C1094 1.415 . S
C1096 C1101 1.425 1_455 S
C1096 C1103 1.409 . S
C1097 H1089 0.930 . S
C1097 C1095 1.419 . S
C1097 C1098 1.362 . S
C1098 H1090 0.930 . S
C1098 C1097 1.362 . S
C1098 C1101 1.409 . S
C1099 H1091 0.930 . S
C1099 C1100 1.355 . S
C1099 C1101 1.415 . S
C1100 C1099 1.355 . S
C1100 C1102 1.419 1_655 S
C1101 C1096 1.425 1_655 S
C1101 C1098 1.409 . S
C1101 C1099 1.415 . S
C1102 H1092 0.930 . S
C1102 C1100 1.419 1_455 S
C1102 C1103 1.362 . S
C1103 H1093 0.930 . S
C1103 C1096 1.409 . S
C1103 C1102 1.362 . S
H1104 C1110 0.930 . S
H1105 C1113 0.930 . S
H1106 C1114 0.930 . S
H1107 C1115 0.930 . S
H1108 C1118 0.930 . S
H1109 C1119 0.930 . S
C1110 H1104 0.930 . S
C1110 C1111 1.355 1_565 S
C1110 C1112 1.415 . S
C1111 C1110 1.355 1_545 S
C1111 C1113 1.419 . S
C1112 C1110 1.415 . S
C1112 C1117 1.425 1_565 S
C1112 C1119 1.409 . S
C1113 H1105 0.930 . S
C1113 C1111 1.419 . S
C1113 C1114 1.362 . S
C1114 H1106 0.930 . S
C1114 C1113 1.362 . S
C1114 C1117 1.409 . S
C1115 H1107 0.930 . S
C1115 C1116 1.355 . S
C1115 C1117 1.415 . S
C1116 C1115 1.355 . S
C1116 C1118 1.419 1_545 S
C1117 C1112 1.425 1_545 S
C1117 C1114 1.409 . S
C1117 C1115 1.415 . S
C1118 H1108 0.930 . S
C1118 C1116 1.419 1_565 S
C1118 C1119 1.362 . S
C1119 H1109 0.930 . S
C1119 C1112 1.409 . S
C1119 C1118 1.362 . S
H1120 C1126 0.930 . S
H1121 C1129 0.930 . S
H1122 C1130 0.930 . S
H1123 C1131 0.930 1_556 S
H1124 C1134 0.930 . S
H1125 C1135 0.930 . S
C1126 H1120 0.930 . S
C1126 C1127 1.355 . S
C1126 C1128 1.415 . S
C1127 C1126 1.355 . S
C1127 C1129 1.419 1_554 S
C1128 C1126 1.415 . S
C1128 C1133 1.425 . S
C1128 C1135 1.409 . S
C1129 H1121 0.930 . S
C1129 C1127 1.419 1_556 S
C1129 C1130 1.362 . S
C1130 H1122 0.930 . S
C1130 C1129 1.362 . S
C1130 C1133 1.409 1_556 S
C1131 H1123 0.930 1_554 S
C1131 C1132 1.355 . S
C1131 C1133 1.415 . S
C1132 C1131 1.355 . S
C1132 C1134 1.419 . S
C1133 C1128 1.425 . S
C1133 C1130 1.409 1_554 S
C1133 C1131 1.415 . S
C1134 H1124 0.930 . S
C1134 C1132 1.419 . S
C1134 C1135 1.362 . S
C1135 H1125 0.930 . S
C1135 C1128 1.409 . S
C1135 C1134 1.362 . S
H1136 C1142 0.930 . S
H1137 C1145 0.930 . S
H1138 C1146 0.930 . S
H1139 C1147 0.930 . S
H1140 C1150 0.930 . S
H1141 C1151 0.930 . S
C1142 H1136 0.930 . S
C1142 C1143 1.355 . S
C1142 C1144 1.415 . S
C1143 C1142 1.355 . S
C1143 C1145 1.419 . S
C1144 C1142 1.415 . S
C1144 C1149 1.425 . S
C1144 C1151 1.409 . S
C1145 H1137 0.930 . S
C1145 C1143 1.419 . S
C1145 C1146 1.362 . S
C1146 H1138 0.930 . S
C1146 C1145 1.362 . S
C1146 C1149 1.409 . S
C1147 H1139 0.930 . S
C1147 C1148 1.355 . S
C1147 C1149 1.415 . S
C1148 C1147 1.355 . S
C1148 C1150 1.419 . S
C1149 C1144 1.425 . S
C1149 C1146 1.409 . S
C1149 C1147 1.415 . S
C1150 H1140 0.930 . S
C1150 C1148 1.419 . S
C1150 C1151 1.362 . S
C1151 H1141 0.930 . S
C1151 C1144 1.409 . S
C1151 C1150 1.362 . S
H1152 C1158 0.926 1_656 S
H1153 C1161 0.930 . S
H1154 C1162 0.930 . S
H1155 C1163 0.930 . S
H1156 C1166 0.930 . S
H1157 C1167 0.930 . S
C1158 H1152 0.926 1_454 S
C1158 C1159 1.358 . S
C1158 C1160 1.414 . S
C1159 C1158 1.358 . S
C1159 C1161 1.419 . S
C1160 C1158 1.414 . S
C1160 C1165 1.439 . S
C1160 C1167 1.398 1_454 S
C1161 H1153 0.930 . S
C1161 C1159 1.419 . S
C1161 C1162 1.362 . S
C1162 H1154 0.930 . S
C1162 C1161 1.362 . S
C1162 C1165 1.409 . S
C1163 H1155 0.930 . S
C1163 C1164 1.355 . S
C1163 C1165 1.415 . S
C1164 C1163 1.355 . S
C1164 C1166 1.419 1_454 S
C1165 C1160 1.439 . S
C1165 C1162 1.409 . S
C1165 C1163 1.415 . S
C1166 H1156 0.930 . S
C1166 C1164 1.419 1_656 S
C1166 C1167 1.362 . S
C1167 H1157 0.930 . S
C1167 C1160 1.398 1_656 S
C1167 C1166 1.362 . S
C535 C282 1.162 . S
C540 C18 1.162 . S
C551 C51 1.005 . S
C556 C315 1.005 . S
C567 C348 1.042 . S
C572 C84 1.042 . S
C583 C381 1.149 . S
C588 C117 1.149 . S
C599 C150 1.049 . S
C604 C414 1.049 . S
C615 C183 1.099 . S
C620 C447 1.099 . S
C631 C216 1.037 . S
C636 C480 1.037 . S
C647 C249 1.072 . S
C652 C513 1.072 . S
C663 C7 1.782 . S
C668 N508 1.830 . S
C679 C40 1.772 . S
C684 N409 1.840 . S
C695 C73 1.778 . S
C700 N442 1.824 . S
C711 N475 1.844 . S
C716 C106 1.748 . S
C727 C139 1.759 . S
C732 N310 1.843 . S
C743 C172 1.748 . S
C748 N343 1.844 . S
C759 N376 1.841 . S
C764 C205 1.724 . S
C775 C238 1.762 . S
C780 N277 1.842 . S
C791 N244 1.818 . S
C796 C271 1.737 . S
C807 N145 1.831 . S
C812 C304 1.782 . S
C823 N178 1.836 . S
C828 C337 1.779 . S
C839 C370 1.711 . S
C844 N211 1.831 . S
C855 N46 1.822 . S
C860 C403 1.773 . S
C871 C436 1.767 . S
C876 N79 1.820 . S
C887 N112 1.834 . S
C892 C469 1.781 . S
C903 N13 1.822 . S
C908 C502 1.774 . S
C919 N233 0.635 . S
C924 N2 0.532 . S
C935 N134 0.663 . S
C940 N35 0.743 . S
C951 N68 0.519 . S
C956 N167 0.617 . S
C967 N200 0.757 . S
C972 N101 0.737 . S
C983 N497 0.619 . S
C988 N266 0.718 . S
C999 N299 0.622 . S
C1004 N398 0.720 . S
C1015 N332 0.516 . S
C1020 N431 0.611 . S
C1031 N365 0.512 . S
C1036 N464 0.512 . S
C1047 C21 1.117 . S
C1052 C417 1.162 . S
C1063 C54 1.128 . S
C1068 C450 1.152 . S
C1079 C87 1.131 . S
C1084 C483 1.149 . S
C1095 C120 1.159 . S
C1100 C516 1.120 . S
C1111 C153 1.150 . S
C1116 C285 1.130 . S
C1127 C186 1.148 . S
C1132 C318 1.132 . S
C1143 C219 1.121 . S
C1148 C351 1.158 . S
C1159 C384 1.143 . S
C1164 C252 1.137 . S
