# Generated by pormake.
# Topology gan, (5)-cn, num edge types: 1
# Building blocks:
#     Node 0, Type 0, BuildingBlock: XOMCOT_clean_sbu_1, # of connection points: 5
#     Node 1, Type 0, BuildingBlock: XOMCOT_clean_sbu_1, # of connection points: 5
#     Node 2, Type 0, BuildingBlock: XOMCOT_clean_sbu_1, # of connection points: 5
#     Node 3, Type 0, BuildingBlock: XOMCOT_clean_sbu_1, # of connection points: 5
#     Node 4, Type 0, BuildingBlock: XOMCOT_clean_sbu_1, # of connection points: 5
#     Node 5, Type 0, BuildingBlock: XOMCOT_clean_sbu_1, # of connection points: 5
#     Node 6, Type 0, BuildingBlock: XOMCOT_clean_sbu_1, # of connection points: 5
#     Node 7, Type 0, BuildingBlock: XOMCOT_clean_sbu_1, # of connection points: 5
#     Node 8, Type 0, BuildingBlock: XOMCOT_clean_sbu_1, # of connection points: 5
#     Node 9, Type 0, BuildingBlock: XOMCOT_clean_sbu_1, # of connection points: 5
#     Node 10, Type 0, BuildingBlock: XOMCOT_clean_sbu_1, # of connection points: 5
#     Node 11, Type 0, BuildingBlock: XOMCOT_clean_sbu_1, # of connection points: 5
#     Node 12, Type 0, BuildingBlock: XOMCOT_clean_sbu_1, # of connection points: 5
#     Node 13, Type 0, BuildingBlock: XOMCOT_clean_sbu_1, # of connection points: 5
#     Node 14, Type 0, BuildingBlock: XOMCOT_clean_sbu_1, # of connection points: 5
#     Node 15, Type 0, BuildingBlock: XOMCOT_clean_sbu_1, # of connection points: 5
#     Edge 16, Type (0, 0), BuildingBlock: KIFKEQ_clean_linker_1, # of connection points: 2
#     Edge 17, Type (0, 0), BuildingBlock: KIFKEQ_clean_linker_1, # of connection points: 2
#     Edge 18, Type (0, 0), BuildingBlock: KIFKEQ_clean_linker_1, # of connection points: 2
#     Edge 19, Type (0, 0), BuildingBlock: KIFKEQ_clean_linker_1, # of connection points: 2
#     Edge 20, Type (0, 0), BuildingBlock: KIFKEQ_clean_linker_1, # of connection points: 2
#     Edge 21, Type (0, 0), BuildingBlock: KIFKEQ_clean_linker_1, # of connection points: 2
#     Edge 22, Type (0, 0), BuildingBlock: KIFKEQ_clean_linker_1, # of connection points: 2
#     Edge 23, Type (0, 0), BuildingBlock: KIFKEQ_clean_linker_1, # of connection points: 2
#     Edge 24, Type (0, 0), BuildingBlock: KIFKEQ_clean_linker_1, # of connection points: 2
#     Edge 25, Type (0, 0), BuildingBlock: KIFKEQ_clean_linker_1, # of connection points: 2
#     Edge 26, Type (0, 0), BuildingBlock: KIFKEQ_clean_linker_1, # of connection points: 2
#     Edge 27, Type (0, 0), BuildingBlock: KIFKEQ_clean_linker_1, # of connection points: 2
#     Edge 28, Type (0, 0), BuildingBlock: KIFKEQ_clean_linker_1, # of connection points: 2
#     Edge 29, Type (0, 0), BuildingBlock: KIFKEQ_clean_linker_1, # of connection points: 2
#     Edge 30, Type (0, 0), BuildingBlock: KIFKEQ_clean_linker_1, # of connection points: 2
#     Edge 31, Type (0, 0), BuildingBlock: KIFKEQ_clean_linker_1, # of connection points: 2
#     Edge 32, Type (0, 0), BuildingBlock: KIFKEQ_clean_linker_1, # of connection points: 2
#     Edge 33, Type (0, 0), BuildingBlock: KIFKEQ_clean_linker_1, # of connection points: 2
#     Edge 34, Type (0, 0), BuildingBlock: KIFKEQ_clean_linker_1, # of connection points: 2
#     Edge 35, Type (0, 0), BuildingBlock: KIFKEQ_clean_linker_1, # of connection points: 2
#     Edge 36, Type (0, 0), BuildingBlock: KIFKEQ_clean_linker_1, # of connection points: 2
#     Edge 37, Type (0, 0), BuildingBlock: KIFKEQ_clean_linker_1, # of connection points: 2
#     Edge 38, Type (0, 0), BuildingBlock: KIFKEQ_clean_linker_1, # of connection points: 2
#     Edge 39, Type (0, 0), BuildingBlock: KIFKEQ_clean_linker_1, # of connection points: 2
#     Edge 40, Type (0, 0), BuildingBlock: KIFKEQ_clean_linker_1, # of connection points: 2
#     Edge 41, Type (0, 0), BuildingBlock: KIFKEQ_clean_linker_1, # of connection points: 2
#     Edge 42, Type (0, 0), BuildingBlock: KIFKEQ_clean_linker_1, # of connection points: 2
#     Edge 43, Type (0, 0), BuildingBlock: KIFKEQ_clean_linker_1, # of connection points: 2
#     Edge 44, Type (0, 0), BuildingBlock: KIFKEQ_clean_linker_1, # of connection points: 2
#     Edge 45, Type (0, 0), BuildingBlock: KIFKEQ_clean_linker_1, # of connection points: 2
#     Edge 46, Type (0, 0), BuildingBlock: KIFKEQ_clean_linker_1, # of connection points: 2
#     Edge 47, Type (0, 0), BuildingBlock: KIFKEQ_clean_linker_1, # of connection points: 2
#     Edge 48, Type (0, 0), BuildingBlock: KIFKEQ_clean_linker_1, # of connection points: 2
#     Edge 49, Type (0, 0), BuildingBlock: KIFKEQ_clean_linker_1, # of connection points: 2
#     Edge 50, Type (0, 0), BuildingBlock: KIFKEQ_clean_linker_1, # of connection points: 2
#     Edge 51, Type (0, 0), BuildingBlock: KIFKEQ_clean_linker_1, # of connection points: 2
#     Edge 52, Type (0, 0), BuildingBlock: KIFKEQ_clean_linker_1, # of connection points: 2
#     Edge 53, Type (0, 0), BuildingBlock: KIFKEQ_clean_linker_1, # of connection points: 2
#     Edge 54, Type (0, 0), BuildingBlock: KIFKEQ_clean_linker_1, # of connection points: 2
#     Edge 55, Type (0, 0), BuildingBlock: KIFKEQ_clean_linker_1, # of connection points: 2
# Relax obj value: 0.083
# Max RMSD: 0.106
# Mean RMSD: 0.096
data_MOF--net-gan--node1-XOMCOT_clean_sbu_1--edge1-KIFKEQ_clean_linker_1
_symmetry_space_group_name_H-M    P1
_symmetry_Int_Tables_number       1
_symmetry_cell_setting            triclinic
loop_
_symmetry_equiv_pos_as_xyz
'x, y, z'
_cell_length_a     42.982642
_cell_length_b     42.008847
_cell_length_c     40.983751
_cell_angle_alpha  90.060729
_cell_angle_beta   90.226252
_cell_angle_gamma 90.691392
loop_
_atom_site_label
_atom_site_type_symbol
_atom_site_fract_x
_atom_site_fract_y
_atom_site_fract_z
_atom_type_partial_charge
C0 C 0.14785 0.15824 0.24018 0.0
C1 C 0.12663 0.13884 0.22438 0.0
N2 N 0.12143 0.15049 0.19419 0.0
N3 N 0.15659 0.18215 0.22026 0.0
C4 C 0.14003 0.17687 0.19234 0.0
H5 H 0.15621 0.15524 0.26489 0.0
Co6 Co 0.18431 0.21518 0.23346 0.0
C7 C 0.22074 0.23109 0.17408 0.0
O8 O 0.24555 0.23657 0.19216 0.0
N9 N 0.21132 0.24948 0.24773 0.0
C10 C 0.22984 0.29933 0.25039 0.0
C11 C 0.21071 0.27855 0.23367 0.0
C12 C 0.2307 0.25378 0.27389 0.0
N13 N 0.24257 0.28393 0.27585 0.0
O14 O 0.15145 0.24464 0.22973 0.0
H15 H 0.19661 0.28457 0.2127 0.0
H16 H 0.23569 0.23554 0.29159 0.0
O17 O 0.19515 0.22265 0.18757 0.0
C18 C 0.13644 0.2515 0.25544 0.0
O19 O 0.14411 0.23778 0.28307 0.0
N20 N 0.2158 0.18476 0.23867 0.0
C21 C 0.24986 0.12982 0.25161 0.0
C22 C 0.24561 0.14058 0.21954 0.0
C23 C 0.2276 0.16728 0.21354 0.0
C24 C 0.22084 0.17552 0.2701 0.0
C25 C 0.23796 0.14825 0.27718 0.0
H26 H 0.22128 0.17189 0.18858 0.0
H27 H 0.20926 0.18777 0.28973 0.0
H28 H 0.14093 0.19255 0.17144 0.0
H29 H 0.11599 0.1176 0.23451 0.0
H30 H 0.23312 0.32432 0.24483 0.0
H31 H 0.25424 0.1272 0.19894 0.0
H32 H 0.23967 0.14045 0.30228 0.0
C33 C 0.19896 0.82918 0.2776 0.0
C34 C 0.21619 0.80859 0.25928 0.0
N35 N 0.24394 0.80419 0.27398 0.0
N36 N 0.21501 0.83798 0.30452 0.0
C37 C 0.24253 0.82227 0.30167 0.0
H38 H 0.17612 0.83776 0.27122 0.0
Co39 Co 0.19836 0.86906 0.33406 0.0
C40 C 0.2049 0.84378 0.39953 0.0
O41 O 0.17497 0.84886 0.40299 0.0
N42 N 0.18207 0.90144 0.36394 0.0
C43 C 0.18659 0.93811 0.40348 0.0
C44 C 0.20216 0.91747 0.38366 0.0
C45 C 0.15375 0.91326 0.37304 0.0
N46 N 0.15596 0.93576 0.39704 0.0
O47 O 0.23476 0.89525 0.32835 0.0
H48 H 0.22694 0.91353 0.38474 0.0
H49 H 0.13178 0.9055 0.36281 0.0
O50 O 0.21775 0.84858 0.37177 0.0
C51 C 0.2404 0.90696 0.30034 0.0
O52 O 0.22332 0.89775 0.27534 0.0
N53 N 0.16204 0.84419 0.33691 0.0
C54 C 0.10715 0.8088 0.33094 0.0
C55 C 0.134 0.79498 0.344 0.0
C56 C 0.1615 0.81289 0.34603 0.0
C57 C 0.13673 0.85728 0.32235 0.0
C58 C 0.10885 0.84024 0.31964 0.0
H59 H 0.18248 0.80147 0.35434 0.0
H60 H 0.13842 0.88099 0.3122 0.0
H61 H 0.26147 0.82488 0.31898 0.0
H62 H 0.20856 0.79772 0.23665 0.0
H63 H 0.19717 0.95285 0.42224 0.0
H64 H 0.13391 0.77038 0.35189 0.0
H65 H 0.0888 0.85168 0.30896 0.0
C66 C 0.38782 0.82477 0.70044 0.0
C67 C 0.3706 0.80113 0.71528 0.0
N68 N 0.34814 0.81453 0.73346 0.0
N69 N 0.3767 0.8534 0.70889 0.0
C70 C 0.35234 0.84645 0.72901 0.0
H71 H 0.40714 0.82131 0.68404 0.0
Co72 Co 0.39472 0.89134 0.69175 0.0
C73 C 0.35408 0.94227 0.71587 0.0
O74 O 0.35205 0.95317 0.68591 0.0
N75 N 0.41429 0.9298 0.6743 0.0
C76 C 0.44056 0.97605 0.67593 0.0
C77 C 0.42313 0.95449 0.6935 0.0
C78 C 0.42761 0.93703 0.64495 0.0
N79 N 0.44364 0.96519 0.64519 0.0
O80 O 0.42743 0.8888 0.72315 0.0
H81 H 0.4187 0.95601 0.7194 0.0
H82 H 0.4269 0.92145 0.62405 0.0
O83 O 0.36992 0.91734 0.72184 0.0
C84 C 0.4516 0.87962 0.7081 0.0
O85 O 0.4497 0.87412 0.67658 0.0
N86 N 0.36466 0.89063 0.6589 0.0
C87 C 0.32747 0.87806 0.60463 0.0
C88 C 0.31389 0.8859 0.63464 0.0
C89 C 0.33302 0.89168 0.66183 0.0
C90 C 0.37772 0.88067 0.63056 0.0
C91 C 0.35976 0.87521 0.60288 0.0
H92 H 0.32236 0.89589 0.68523 0.0
H93 H 0.40224 0.87548 0.62986 0.0
H94 H 0.33799 0.86442 0.74013 0.0
H95 H 0.37406 0.77585 0.71214 0.0
H96 H 0.45161 0.99724 0.68583 0.0
H97 H 0.28885 0.88714 0.6371 0.0
H98 H 0.37094 0.86751 0.58062 0.0
C99 C 0.36279 0.18825 0.92809 0.0
C100 C 0.38343 0.17284 0.94807 0.0
N101 N 0.37576 0.14162 0.94915 0.0
N102 N 0.34187 0.16727 0.91589 0.0
C103 C 0.35037 0.13884 0.92915 0.0
H104 H 0.36286 0.21349 0.9229 0.0
Co105 Co 0.30895 0.18226 0.88874 0.0
C106 C 0.29203 0.13015 0.84397 0.0
O107 O 0.28793 0.15229 0.82181 0.0
N108 N 0.27491 0.19907 0.86237 0.0
C109 C 0.22571 0.20435 0.84549 0.0
C110 C 0.24565 0.18727 0.86485 0.0
C111 C 0.27166 0.22399 0.84113 0.0
N112 N 0.24185 0.22766 0.83026 0.0
O113 O 0.2811 0.17741 0.92478 0.0
H114 H 0.23903 0.16735 0.88012 0.0
H115 H 0.29062 0.23935 0.83372 0.0
O116 O 0.30014 0.13833 0.873 0.0
C117 C 0.27867 0.20429 0.93896 0.0
O118 O 0.2929 0.22901 0.92589 0.0
N119 N 0.33812 0.18938 0.85565 0.0
C120 C 0.39359 0.20568 0.82435 0.0
C121 C 0.38353 0.17386 0.82593 0.0
C122 C 0.35619 0.16611 0.84248 0.0
C123 C 0.34693 0.22051 0.85315 0.0
C124 C 0.37432 0.22926 0.83727 0.0
H125 H 0.35152 0.14128 0.84717 0.0
H126 H 0.3342 0.23844 0.86632 0.0
H127 H 0.3378 0.11676 0.92484 0.0
H128 H 0.40285 0.184 0.96066 0.0
H129 H 0.20091 0.20012 0.84362 0.0
H130 H 0.39779 0.15483 0.81664 0.0
H131 H 0.38161 0.25402 0.83782 0.0
C132 C 0.69737 0.3271 0.77757 0.0
C133 C 0.71481 0.3073 0.75851 0.0
N134 N 0.74146 0.30043 0.77436 0.0
N135 N 0.71236 0.33315 0.80587 0.0
C136 C 0.73945 0.3167 0.80315 0.0
H137 H 0.67524 0.33719 0.77079 0.0
Co138 Co 0.69527 0.36192 0.83734 0.0
C139 C 0.70368 0.33347 0.90114 0.0
O140 O 0.67358 0.33664 0.90531 0.0
N141 N 0.67846 0.39204 0.8694 0.0
C142 C 0.68253 0.42688 0.91064 0.0
C143 C 0.69841 0.40862 0.88877 0.0
C144 C 0.64989 0.40112 0.88081 0.0
N145 N 0.65179 0.42223 0.90617 0.0
O146 O 0.73083 0.38907 0.83246 0.0
H147 H 0.72344 0.40674 0.88819 0.0
H148 H 0.62805 0.3917 0.87176 0.0
O149 O 0.71575 0.34005 0.8734 0.0
C150 C 0.73238 0.40427 0.80569 0.0
O151 O 0.7117 0.39788 0.78283 0.0
N152 N 0.65968 0.33615 0.83896 0.0
C153 C 0.60631 0.29975 0.8271 0.0
C154 C 0.63284 0.28581 0.84076 0.0
C155 C 0.65964 0.30432 0.84578 0.0
C156 C 0.6345 0.34972 0.82463 0.0
C157 C 0.60738 0.33212 0.81897 0.0
H158 H 0.68063 0.29289 0.85405 0.0
H159 H 0.63586 0.37423 0.81665 0.0
H160 H 0.75737 0.31689 0.82176 0.0
H161 H 0.70854 0.29949 0.73418 0.0
H162 H 0.69324 0.44235 0.92867 0.0
H163 H 0.63321 0.26063 0.84638 0.0
H164 H 0.58751 0.34374 0.8081 0.0
C165 C 0.88419 0.32446 0.20082 0.0
C166 C 0.86579 0.30195 0.21591 0.0
N167 N 0.84411 0.31678 0.23395 0.0
N168 N 0.87465 0.35378 0.209 0.0
C169 C 0.85018 0.34841 0.22944 0.0
H170 H 0.90345 0.31977 0.18467 0.0
Co171 Co 0.895 0.39022 0.1913 0.0
C172 C 0.85676 0.44482 0.20885 0.0
O173 O 0.85867 0.45336 0.17806 0.0
N174 N 0.9171 0.42709 0.17344 0.0
C175 C 0.94509 0.47229 0.17521 0.0
C176 C 0.92753 0.45097 0.19289 0.0
C177 C 0.92958 0.43456 0.14374 0.0
N178 N 0.94658 0.46213 0.1441 0.0
O179 O 0.92562 0.38776 0.22496 0.0
H180 H 0.92346 0.45233 0.21888 0.0
H181 H 0.92712 0.41986 0.1223 0.0
O182 O 0.86942 0.41888 0.21811 0.0
C183 C 0.95005 0.37663 0.21195 0.0
O184 O 0.94978 0.37004 0.1806 0.0
N185 N 0.86677 0.38913 0.15668 0.0
C186 C 0.83064 0.3744 0.10213 0.0
C187 C 0.81656 0.38425 0.13122 0.0
C188 C 0.83512 0.39116 0.15853 0.0
C189 C 0.88037 0.37764 0.12922 0.0
C190 C 0.86293 0.37107 0.10135 0.0
H191 H 0.82396 0.39686 0.18133 0.0
H192 H 0.90485 0.37213 0.12944 0.0
H193 H 0.83674 0.36728 0.24026 0.0
H194 H 0.86856 0.27647 0.21392 0.0
H195 H 0.95703 0.49299 0.1851 0.0
H196 H 0.7915 0.38607 0.13294 0.0
H197 H 0.87445 0.36204 0.07983 0.0
C198 C 0.85107 0.68712 0.44025 0.0
C199 C 0.87266 0.6716 0.45902 0.0
N200 N 0.8715 0.64019 0.45203 0.0
N201 N 0.83587 0.66607 0.42104 0.0
C202 C 0.84866 0.63747 0.42889 0.0
H203 H 0.84641 0.71236 0.44078 0.0
Co204 Co 0.80367 0.68047 0.39278 0.0
C205 C 0.79339 0.63009 0.34352 0.0
O206 O 0.78804 0.65244 0.32189 0.0
N207 N 0.77019 0.69643 0.36511 0.0
C208 C 0.72197 0.69994 0.34478 0.0
C209 C 0.74184 0.68223 0.36368 0.0
C210 C 0.7665 0.72326 0.3466 0.0
N211 N 0.73727 0.72603 0.33397 0.0
O212 O 0.77422 0.66936 0.42574 0.0
H213 H 0.7358 0.66023 0.37594 0.0
H214 H 0.78442 0.74111 0.34312 0.0
O215 O 0.80018 0.6377 0.37298 0.0
C216 C 0.76464 0.69367 0.4412 0.0
O217 O 0.7725 0.72211 0.43045 0.0
N218 N 0.83407 0.69355 0.36327 0.0
C219 C 0.89039 0.71863 0.34131 0.0
C220 C 0.88325 0.68627 0.3369 0.0
C221 C 0.85507 0.67401 0.34862 0.0
C222 C 0.84018 0.72528 0.3663 0.0
C223 C 0.86792 0.73844 0.35495 0.0
H224 H 0.85195 0.64852 0.34883 0.0
H225 H 0.82471 0.73997 0.38041 0.0
H226 H 0.84143 0.61517 0.41786 0.0
H227 H 0.88758 0.6828 0.4771 0.0
H228 H 0.69795 0.69387 0.33945 0.0
H229 H 0.90042 0.67008 0.32739 0.0
H230 H 0.87272 0.76351 0.35907 0.0
C231 C 0.90954 0.89995 0.99133 0.0
C232 C 0.89219 0.87758 0.97447 0.0
N233 N 0.87964 0.89136 0.94781 0.0
N234 N 0.90856 0.92801 0.97552 0.0
C235 C 0.89006 0.92206 0.94913 0.0
H236 H 0.92177 0.896 1.01403 0.0
Co237 Co 0.92729 0.96679 0.99022 0.0
C238 C 0.95409 0.99366 0.92916 0.0
O239 O 0.98002 1.0027 0.94374 0.0
N240 N 0.94573 1.00646 1.00529 0.0
C241 C 0.95476 0.05883 1.01018 0.0
C242 C 0.9376 0.03551 0.99428 0.0
C243 C 0.96779 1.0132 1.02841 0.0
N244 N 0.97388 0.04482 1.03181 0.0
O245 O 0.8874 0.98534 0.98941 0.0
H246 H 0.92014 0.03958 0.97571 0.0
H247 H 0.97959 0.99555 0.04264 0.0
O248 O 0.93292 0.97922 0.94524 0.0
C249 C 0.87279 0.97673 1.01483 0.0
O250 O 0.8887 0.96355 0.03859 0.0
N251 N 0.96536 0.94626 0.99323 0.0
C252 C 1.01407 0.90529 1.00784 0.0
C253 C 1.00678 0.91289 0.97526 0.0
C254 C 0.98204 0.93322 0.96843 0.0
C255 C 0.97165 0.93843 1.02476 0.0
C256 C 0.99653 0.91914 1.03271 0.0
H257 H 0.97512 0.93648 0.94334 0.0
H258 H 0.9564 0.94648 0.04393 0.0
H259 H 0.88375 0.94021 0.93172 0.0
H260 H 0.88926 0.85295 0.98156 0.0
H261 H 0.95277 0.08421 1.00641 0.0
H262 H 1.01867 0.90169 0.95513 0.0
H263 H 1.00103 0.91411 0.05818 0.0
C264 C 0.96224 0.15873 0.654 0.0
C265 C 0.94569 0.1794 0.67321 0.0
N266 N 0.91521 0.17663 0.66567 0.0
N267 N 0.94268 0.14281 0.63386 0.0
C268 C 0.91404 0.15413 0.64172 0.0
H269 H 0.98708 0.15516 0.6551 0.0
Co270 Co 0.95641 0.1109 0.60401 0.0
C271 C 0.91069 0.11247 0.55193 0.0
O272 O 0.93417 0.11388 0.53152 0.0
N273 N 0.97033 0.07809 0.57434 0.0
C274 C 0.96852 1.03183 0.54748 0.0
C275 C 0.95288 0.05183 0.56803 0.0
C276 C 0.99691 0.07317 0.55691 0.0
N277 N 0.99643 0.04494 0.54038 0.0
O278 O 0.97092 0.14393 0.57591 0.0
H279 H 0.92994 0.04736 0.57787 0.0
H280 H 1.01649 0.08955 0.5568 0.0
O281 O 0.91587 0.11097 0.58262 0.0
C282 C 0.99877 0.15288 0.5819 0.0
O283 O 1.0158 0.13513 0.60121 0.0
N284 N 0.94452 0.07996 0.63381 0.0
C285 C 0.93686 0.04468 0.69077 0.0
C286 C 0.91086 0.0561 0.67358 0.0
C287 C 0.9152 0.0739 0.64501 0.0
C288 C 0.96979 0.06764 0.64906 0.0
C289 C 0.96652 0.04986 0.67746 0.0
H290 H 0.89528 0.08432 0.63316 0.0
H291 H 0.99284 0.07352 0.64023 0.0
H292 H 0.8927 0.146 0.63022 0.0
H293 H 0.95541 0.19471 0.692 0.0
H294 H 0.95971 1.00931 0.53825 0.0
H295 H 0.88752 0.0525 0.68283 0.0
H296 H 0.98735 0.04225 0.69001 0.0
C297 C 0.64243 0.07131 0.46036 0.0
C298 C 0.62577 0.05093 0.48015 0.0
N299 N 0.59747 0.06337 0.48582 0.0
N300 N 0.62512 0.09696 0.45338 0.0
C301 C 0.59777 0.09139 0.46913 0.0
H302 H 0.66582 0.06759 0.45164 0.0
Co303 Co 0.6379 0.13177 0.42683 0.0
C304 C 0.70086 0.14885 0.45119 0.0
O305 O 0.69312 0.17902 0.44996 0.0
N306 N 0.65054 0.1671 0.39874 0.0
C307 C 0.64821 0.21185 0.3694 0.0
C308 C 0.6319 0.19089 0.38875 0.0
C309 C 0.67799 0.1737 0.38318 0.0
N310 N 0.67753 0.20149 0.36608 0.0
O311 O 0.64467 0.10307 0.39156 0.0
H312 H 0.60754 0.19295 0.39424 0.0
H313 H 0.69822 0.15872 0.38493 0.0
O314 O 0.68116 0.12732 0.44241 0.0
C315 C 0.6205 0.10349 0.37347 0.0
O316 O 0.59795 0.12306 0.38076 0.0
N317 N 0.62757 0.15931 0.46108 0.0
C318 C 0.60471 0.20298 0.50554 0.0
C319 C 0.63159 0.18586 0.51285 0.0
C320 C 0.64189 0.16289 0.49078 0.0
C321 C 0.59949 0.17294 0.45571 0.0
C322 C 0.58786 0.19531 0.47725 0.0
H323 H 0.66132 0.14832 0.49766 0.0
H324 H 0.58597 0.16631 0.43445 0.0
H325 H 0.57837 0.10752 0.46813 0.0
H326 H 0.63431 1.0288 0.48999 0.0
H327 H 0.63877 0.23294 0.35813 0.0
H328 H 0.64436 0.19017 0.53529 0.0
H329 H 0.56643 0.2073 0.47119 0.0
C330 C 0.63073 0.94682 0.17062 0.0
C331 C 0.65057 0.9303 0.19081 0.0
N332 N 0.63993 0.90007 0.19417 0.0
N333 N 0.60721 0.92756 0.16097 0.0
C334 C 0.61342 0.89922 0.17578 0.0
H335 H 0.63326 0.97148 0.16345 0.0
Co336 Co 0.57434 0.94059 0.1324 0.0
C337 C 0.53169 0.88596 0.13993 0.0
O338 O 0.50953 0.90473 0.15018 0.0
N339 N 0.54118 0.95323 0.10286 0.0
C340 C 0.51027 0.94886 0.05907 0.0
C341 C 0.53101 0.93353 0.0789 0.0
C342 C 0.52597 0.98101 0.09648 0.0
N343 N 0.50705 0.97896 0.06969 0.0
O344 O 0.551 0.95168 0.16992 0.0
H345 H 0.53913 0.90956 0.07506 0.0
H346 H 0.52969 1.00275 0.11014 0.0
O347 O 0.5582 0.89764 0.13247 0.0
C348 C 0.55642 0.98084 0.1766 0.0
O349 O 0.57086 0.99841 0.15478 0.0
N350 N 0.59947 0.93255 0.09685 0.0
C351 C 0.64958 0.93105 0.05434 0.0
C352 C 0.63797 0.90282 0.06842 0.0
C353 C 0.61294 0.90412 0.08998 0.0
C354 C 0.60878 0.9597 0.08148 0.0
C355 C 0.6337 0.95949 0.05993 0.0
H356 H 0.60617 0.88286 0.10297 0.0
H357 H 0.59833 0.98212 0.08798 0.0
H358 H 0.59892 0.87822 0.17279 0.0
H359 H 0.67116 0.94027 0.2023 0.0
H360 H 0.49878 0.93853 0.03797 0.0
H361 H 0.64948 0.88034 0.06461 0.0
H362 H 0.64209 0.98191 0.05013 0.0
C363 C 0.44496 0.62016 0.17834 0.0
C364 C 0.42744 0.63854 0.19899 0.0
N365 N 0.40528 0.65333 0.18146 0.0
N366 N 0.43396 0.62263 0.14761 0.0
C367 C 0.40993 0.64338 0.15022 0.0
H368 H 0.46472 0.60598 0.18531 0.0
Co369 Co 0.45183 0.60157 0.11084 0.0
C370 C 0.3982 0.58093 0.07129 0.0
O371 O 0.40982 0.55219 0.06947 0.0
N372 N 0.47038 0.58141 0.07279 0.0
C373 C 0.4818 0.57781 1.01974 0.0
C374 C 0.4663 0.59469 0.04309 0.0
C375 C 0.48909 0.55599 0.0663 0.0
N376 N 0.49628 0.55316 1.03397 0.0
O377 O 0.46196 0.64223 0.09376 0.0
H378 H 0.45278 0.61577 0.03849 0.0
H379 H 0.49731 0.53973 0.08469 0.0
O380 O 0.41214 0.60249 0.08804 0.0
C381 C 0.48813 0.65241 0.10418 0.0
O382 O 0.50589 0.6327 0.1205 0.0
N383 N 0.44332 0.56238 0.13102 0.0
C384 C 0.43828 0.52602 0.18759 0.0
C385 C 0.41156 0.53701 0.17169 0.0
C386 C 0.41454 0.55525 0.14337 0.0
C387 C 0.46925 0.54943 0.1446 0.0
C388 C 0.4672 0.53064 0.17262 0.0
H389 H 0.39414 0.5673 0.13455 0.0
H390 H 0.49199 0.55747 0.13678 0.0
H391 H 0.39605 0.65095 0.12962 0.0
H392 H 0.43129 0.64134 0.22496 0.0
H393 H 0.4828 0.58399 0.99415 0.0
H394 H 0.38888 0.53428 0.18285 0.0
H395 H 0.48843 0.5233 0.18465 0.0
C396 C 0.1463 0.56741 0.96266 0.0
C397 C 0.12928 0.54886 0.98378 0.0
N398 N 0.10036 0.56069 0.98616 0.0
N399 N 0.12866 0.59146 0.95155 0.0
C400 C 0.10067 0.58676 0.96642 0.0
H401 H 0.16995 0.56295 0.95523 0.0
Co402 Co 0.14204 0.62104 0.91874 0.0
C403 C 0.20445 0.63795 0.94526 0.0
O404 O 0.19727 0.66827 0.94405 0.0
N405 N 0.15545 0.65009 0.88428 0.0
C406 C 0.15083 0.68106 0.84017 0.0
C407 C 0.13555 0.66094 0.86142 0.0
C408 C 0.18339 0.66285 0.8747 0.0
N409 N 0.18116 0.68275 0.8486 0.0
O410 O 0.14577 0.58624 0.88877 0.0
H411 H 0.1111 0.65464 0.86022 0.0
H412 H 0.20528 0.65713 0.88587 0.0
O413 O 0.18534 0.61683 0.9343 0.0
C414 C 0.11784 0.57989 0.87997 0.0
O415 O 0.09554 0.59807 0.89107 0.0
N416 N 0.13448 0.6548 0.94775 0.0
C417 C 0.11922 0.70593 0.98723 0.0
C418 C 0.13729 0.68134 0.99975 0.0
C419 C 0.14395 0.65531 0.97973 0.0
C420 C 0.11479 0.67747 0.93647 0.0
C421 C 0.10732 0.70354 0.95558 0.0
H422 H 0.15727 0.63591 0.98968 0.0
H423 H 0.10413 0.67519 0.9128 0.0
H424 H 0.08065 0.60154 0.96194 0.0
H425 H 0.13776 0.52802 0.99633 0.0
H426 H 0.14013 0.6931 0.8198 0.0
H427 H 0.14586 0.68214 1.02463 0.0
H428 H 0.09219 0.72167 0.94577 0.0
C429 C 0.13537 0.44362 0.66091 0.0
C430 C 0.15589 0.42674 0.68 0.0
N431 N 0.14376 0.39752 0.68587 0.0
N432 N 0.11015 0.42539 0.65427 0.0
C433 C 0.11594 0.39736 0.66982 0.0
H434 H 0.13833 0.46802 0.65302 0.0
Co435 Co 0.07366 0.44017 0.63258 0.0
C436 C 0.052 0.3859 0.59319 0.0
O437 O 0.04725 0.40563 0.56886 0.0
N438 N 0.03543 0.45504 0.61146 0.0
C439 C 0.98411 0.45701 0.60252 0.0
C440 C 1.00752 0.44224 0.61944 0.0
C441 C 0.02778 0.47797 0.58916 0.0
N442 N 0.99657 0.47976 0.58322 0.0
O443 O 0.05278 0.43604 0.67321 0.0
H444 H 1.00426 0.42311 0.63678 0.0
H445 H 0.04455 0.49324 0.57735 0.0
O446 O 0.06291 0.39647 0.62026 0.0
C447 C 0.04933 0.46332 0.6862 0.0
O448 O 0.05251 0.48868 0.66774 0.0
N449 N 0.09705 0.44725 0.59497 0.0
C450 C 0.14612 0.46761 0.55528 0.0
C451 C 0.14014 0.43494 0.56025 0.0
C452 C 0.11552 0.42523 0.58035 0.0
C453 C 0.10227 0.47886 0.58995 0.0
C454 C 0.12558 0.48949 0.5691 0.0
H455 H 0.11342 0.40034 0.58667 0.0
H456 H 0.08989 0.49613 0.60434 0.0
H457 H 0.09945 0.37772 0.67056 0.0
H458 H 0.17806 0.43556 0.68904 0.0
H459 H 0.95965 0.45132 0.60491 0.0
H460 H 0.1558 0.41706 0.55112 0.0
H461 H 0.1288 0.51489 0.56593 0.0
C462 C 0.63379 0.66722 0.74911 0.0
C463 C 0.61227 0.648 0.73342 0.0
N464 N 0.6148 0.65227 0.70085 0.0
N465 N 0.6502 0.68384 0.7269 0.0
C466 C 0.63801 0.67437 0.69767 0.0
H467 H 0.63716 0.66919 0.77521 0.0
Co468 Co 0.68182 0.71381 0.73823 0.0
C469 C 0.72206 0.7139 0.67952 0.0
O470 O 0.74702 0.71349 0.69816 0.0
N471 N 0.71305 0.74537 0.75003 0.0
C472 C 0.74101 0.79047 0.7463 0.0
C473 C 0.72062 0.77018 0.73051 0.0
C474 C 0.7285 0.75226 0.77841 0.0
N475 N 0.74609 0.77932 0.77658 0.0
O476 O 0.65369 0.74715 0.72994 0.0
H477 H 0.711 0.77406 0.70644 0.0
H478 H 0.72638 0.73851 0.80048 0.0
O479 O 0.69512 0.71471 0.69258 0.0
C480 C 0.64007 0.75788 0.75511 0.0
O481 O 0.64703 0.74586 0.78378 0.0
N482 N 0.70831 0.67989 0.74842 0.0
C483 C 0.74076 0.62645 0.7697 0.0
C484 C 0.73291 0.63018 0.73667 0.0
C485 C 0.71609 0.65664 0.72668 0.0
C486 C 0.7144 0.67585 0.78079 0.0
C487 C 0.73132 0.64984 0.79188 0.0
H488 H 0.70795 0.65738 0.70176 0.0
H489 H 0.70447 0.69182 0.7984 0.0
H490 H 0.64612 0.68344 0.6745 0.0
H491 H 0.59565 0.6325 0.74543 0.0
H492 H 0.75029 0.81256 0.7366 0.0
H493 H 0.73799 0.61185 0.71893 0.0
H494 H 0.73585 0.64748 0.81776 0.0
C495 C 0.39644 0.40704 0.49638 0.0
C496 C 0.37949 0.38442 0.47936 0.0
N497 N 0.37353 0.39555 0.44913 0.0
N498 N 0.40169 0.43252 0.47716 0.0
C499 C 0.3871 0.42496 0.4486 0.0
H500 H 0.40401 0.40517 0.52148 0.0
Co501 Co 0.42289 0.47027 0.49052 0.0
C502 C 0.45445 0.49366 0.42987 0.0
O503 O 0.47744 0.50747 0.4459 0.0
N504 N 0.44381 0.50908 0.50476 0.0
C505 C 0.45442 0.561 0.51053 0.0
C506 C 0.43667 0.53853 0.49417 0.0
C507 C 0.4661 0.51473 0.52796 0.0
N508 N 0.47314 0.54617 0.53206 0.0
O509 O 0.3851 0.49237 0.48504 0.0
H510 H 0.41939 0.5435 0.47567 0.0
H511 H 0.47692 0.49629 0.54198 0.0
O512 O 0.43309 0.47862 0.44517 0.0
C513 C 0.37067 0.4956 0.51179 0.0
O514 O 0.38497 0.48792 0.53903 0.0
N515 N 0.45849 0.44675 0.49813 0.0
C516 C 0.50329 0.40379 0.5189 0.0
C517 C 0.50022 0.41157 0.48565 0.0
C518 C 0.47744 0.43301 0.47568 0.0
C519 C 0.46089 0.43913 0.5303 0.0
C520 C 0.48363 0.41851 0.54136 0.0
H521 H 0.47403 0.43692 0.44992 0.0
H522 H 0.44454 0.44896 0.5475 0.0
H523 H 0.38628 0.44084 0.42788 0.0
H524 H 0.37149 0.36181 0.489 0.0
H525 H 0.45298 0.58642 0.50692 0.0
H526 H 0.51405 0.39991 0.46724 0.0
H527 H 0.48507 0.41346 0.56721 0.0
H528 H 0.24994 0.26631 0.33966 0.0
H529 H 0.2821 0.33428 0.26816 0.0
H530 H 0.28171 0.29309 0.38134 0.0
H531 H 0.31387 0.36078 0.30939 0.0
H532 H 0.34275 0.42185 0.39743 0.0
H533 H 0.31172 0.39425 0.35592 0.0
H534 H 0.33301 0.30411 0.40079 0.0
H535 H 0.36372 0.33166 0.44224 0.0
C536 C 0.26401 0.28669 0.33267 0.0
C537 C 0.26305 0.29815 0.30041 0.0
C538 C 0.28233 0.30218 0.35664 0.0
C539 C 0.30036 0.32953 0.3491 0.0
C540 C 0.29987 0.34041 0.31662 0.0
C541 C 0.28158 0.32503 0.29278 0.0
C542 C 0.34106 0.39615 0.39836 0.0
C543 C 0.35581 0.37922 0.42358 0.0
C544 C 0.32318 0.38018 0.37441 0.0
C545 C 0.31953 0.3467 0.37476 0.0
C546 C 0.33456 0.32984 0.39983 0.0
C547 C 0.35236 0.34578 0.42375 0.0
H548 H 0.04114 0.07464 0.50344 0.0
H549 H 1.00573 0.98182 0.53002 0.0
H550 H 0.07813 0.04965 0.46625 0.0
H551 H 0.04256 0.95692 0.49362 0.0
H552 H 0.09496 0.91818 0.40633 0.0
H553 H 0.05618 0.94562 0.43934 0.0
H554 H 0.12358 1.01969 0.46142 0.0
H555 H 0.16141 0.9932 0.42747 0.0
C556 C 0.04139 0.04894 0.50165 0.0
C557 C 1.02003 1.03048 0.51974 0.0
C558 C 0.06267 0.03444 0.48021 0.0
C559 C 0.06347 1.00096 0.47628 0.0
C560 C 0.04242 0.98266 0.49493 0.0
C561 C 1.02119 0.99709 0.51614 0.0
C562 C 0.10134 0.94055 0.41779 0.0
C563 C 0.13169 0.95304 0.41428 0.0
C564 C 0.07915 0.95624 0.43721 0.0
C565 C 0.08649 0.98501 0.45373 0.0
C566 C 0.11656 0.99789 0.44921 0.0
C567 C 0.13862 0.98229 0.42987 0.0
H568 H 0.17412 0.73014 0.80313 0.0
H569 H 0.24445 0.68136 0.85898 0.0
H570 H 0.21408 0.76234 0.77734 0.0
H571 H 0.28432 0.71467 0.83403 0.0
H572 H 0.35187 0.75442 0.75795 0.0
H573 H 0.31202 0.72372 0.78576 0.0
H574 H 0.25091 0.80449 0.78239 0.0
H575 H 0.29074 0.83499 0.75293 0.0
C576 C 0.19798 0.72599 0.8101 0.0
C577 C 0.20547 0.70235 0.83328 0.0
C578 C 0.22114 0.74507 0.79541 0.0
C579 C 0.25283 0.74146 0.80329 0.0
C580 C 0.26038 0.7181 0.82669 0.0
C581 C 0.23721 0.69893 0.84137 0.0
C582 C 0.32992 0.76578 0.76279 0.0
C583 C 0.32472 0.79735 0.75255 0.0
C584 C 0.30698 0.74811 0.77934 0.0
C585 C 0.27781 0.76124 0.78658 0.0
C586 C 0.27276 0.79312 0.77699 0.0
C587 C 0.29584 0.81089 0.76032 0.0
H588 H 0.41088 0.15079 1.00401 0.0
H589 H 0.37792 0.07721 0.93853 0.0
H590 H 0.44204 0.11237 1.03318 0.0
H591 H 0.40827 0.03805 0.96888 0.0
H592 H 0.4927 0.98281 1.00512 0.0
H593 H 0.4595 1.02073 0.97784 0.0
H594 H 0.44504 0.06912 0.06944 0.0
H595 H 0.47896 1.03085 0.09686 0.0
C596 C 0.41013 0.12634 0.99572 0.0
C597 C 0.39199 0.11752 0.96826 0.0
C598 C 0.42788 0.104 1.01296 0.0
C599 C 0.42822 0.07175 1.00362 0.0
C600 C 0.40932 0.06265 0.97671 0.0
C601 C 0.39148 0.08512 0.95938 0.0
C602 C 0.48232 1.0013 1.01971 0.0
C603 C 0.4885 1.00329 0.05353 0.0
C604 C 0.46297 1.0232 1.00389 0.0
C605 C 0.44887 0.04814 1.02114 0.0
C606 C 0.45546 0.05055 0.05496 0.0
C607 C 0.47503 1.02855 0.07086 0.0
H608 H 0.37791 0.70313 0.15009 0.0
H609 H 0.38032 0.65412 0.24238 0.0
H610 H 0.34149 0.74141 0.17274 0.0
H611 H 0.34337 0.69157 0.26488 0.0
H612 H 0.29285 0.77747 0.30706 0.0
H613 H 0.33284 0.74252 0.28486 0.0
H614 H 0.29124 0.75055 0.18917 0.0
H615 H 0.25308 0.78643 0.21072 0.0
C616 C 0.3704 0.70023 0.1751 0.0
C617 C 0.38232 0.67538 0.19425 0.0
C618 C 0.34933 0.72228 0.18828 0.0
C619 C 0.33907 0.72005 0.221 0.0
C620 C 0.3509 0.69491 0.23994 0.0
C621 C 0.37214 0.67312 0.22687 0.0
C622 C 0.29251 0.7721 0.28123 0.0
C623 C 0.26911 0.78476 0.26106 0.0
C624 C 0.31534 0.75162 0.26841 0.0
C625 C 0.31558 0.74309 0.23494 0.0
C626 C 0.29253 0.75643 0.21485 0.0
C627 C 0.26999 0.77689 0.22755 0.0
H628 H 0.46764 0.9368 0.5906 0.0
H629 H 0.46358 1.02699 0.64092 0.0
H630 H 0.5018 0.96071 0.54989 0.0
H631 H 0.49894 0.05032 0.60145 0.0
H632 H 0.54738 0.09303 0.51312 0.0
H633 H 0.50784 0.06961 0.54863 0.0
H634 H 0.55284 0.97852 0.5415 0.0
H635 H 0.59105 1.00137 0.5049 0.0
C636 C 0.47383 0.96171 0.5931 0.0
C637 C 0.46275 0.97962 0.61963 0.0
C638 C 0.49392 0.97547 0.5698 0.0
C639 C 0.50373 1.00762 0.57217 0.0
C640 C 0.49197 1.02567 0.59825 0.0
C641 C 0.47183 1.01199 0.62141 0.0
C642 C 0.54867 0.06792 0.51871 0.0
C643 C 0.57294 0.04942 0.50602 0.0
C644 C 0.52604 0.05443 0.53954 0.0
C645 C 0.52688 1.02195 0.54845 0.0
C646 C 0.55083 1.00342 0.5352 0.0
C647 C 0.57329 1.01682 0.51436 0.0
H648 H 0.18563 0.22577 0.79857 0.0
H649 H 0.26809 0.28444 0.81031 0.0
H650 H 0.16233 0.26613 0.76475 0.0
H651 H 0.24526 0.32443 0.77463 0.0
H652 H 0.18447 0.40538 0.73655 0.0
H653 H 0.20861 0.36468 0.76988 0.0
H654 H 0.15945 0.29193 0.71498 0.0
H655 H 0.13469 0.33305 0.68209 0.0
C656 C 0.19904 0.24722 0.79406 0.0
C657 C 0.22893 0.2515 0.80804 0.0
C658 C 0.18563 0.2705 0.77394 0.0
C659 C 0.20153 0.2991 0.76652 0.0
C660 C 0.23172 0.30319 0.77994 0.0
C661 C 0.24514 0.27988 0.8003 0.0
C662 C 0.17886 0.38072 0.73133 0.0
C663 C 0.15752 0.3728 0.70625 0.0
C664 C 0.19295 0.35712 0.75055 0.0
C665 C 0.18647 0.32449 0.74546 0.0
C666 C 0.16498 0.31658 0.72037 0.0
C667 C 0.15067 0.34028 0.70126 0.0
H668 H 0.07031 0.11335 0.20541 0.0
H669 H 0.12286 0.15737 0.12773 0.0
H670 H 0.03575 0.08853 0.16578 0.0
H671 H 0.08789 0.13224 0.08759 0.0
H672 H 1.00025 0.10416 1.02651 0.0
H673 H 0.03563 0.13068 0.06483 0.0
H674 H 0.03395 0.04718 0.1261 0.0
H675 H 0.99783 1.02118 0.08855 0.0
C676 C 0.0748 0.11758 0.17982 0.0
C677 C 0.0999 0.13722 0.17003 0.0
C678 C 0.05481 0.10318 0.1569 0.0
C679 C 0.05902 0.10782 0.12319 0.0
C680 C 0.08366 0.12811 0.11327 0.0
C681 C 0.1038 0.1426 0.13635 0.0
C682 C 1.00717 0.09145 0.04825 0.0
C683 C 0.99576 0.06035 0.0542 0.0
C684 C 0.02787 0.10664 0.07016 0.0
C685 C 0.03778 0.09133 0.0989 0.0
C686 C 0.02664 0.06011 0.10462 0.0
C687 C 1.00605 0.04492 0.08271 0.0
H688 H 0.85484 0.1571 0.67376 0.0
H689 H 0.91778 0.2355 0.69341 0.0
H690 H 0.8135 0.18499 0.70236 0.0
H691 H 0.87655 0.26383 0.72114 0.0
H692 H 0.80327 0.30031 0.79181 0.0
H693 H 0.84493 0.2694 0.76699 0.0
H694 H 0.7782 0.22585 0.70117 0.0
H695 H 0.73691 0.25496 0.72701 0.0
C696 C 0.85981 0.18046 0.6838 0.0
C697 C 0.88989 0.1938 0.68118 0.0
C698 C 0.83598 0.19667 0.70032 0.0
C699 C 0.84124 0.22702 0.71451 0.0
C700 C 0.87134 0.24038 0.71146 0.0
C701 C 0.89516 0.22408 0.69525 0.0
C702 C 0.79742 0.28382 0.77238 0.0
C703 C 0.76642 0.28075 0.76141 0.0
C704 C 0.8215 0.26623 0.7577 0.0
C705 C 0.81544 0.24495 0.73154 0.0
C706 C 0.78428 0.24147 0.72127 0.0
C707 C 0.76035 0.2588 0.73597 0.0
H708 H 0.0495 0.59058 1.01134 0.0
H709 H 0.09305 0.49883 1.00445 0.0
H710 H 1.00909 0.56725 0.0463 0.0
H711 H 0.05403 0.47604 0.04015 0.0
H712 H 0.96899 0.43431 0.08857 0.0
H713 H 1.0025 0.45858 0.04738 0.0
H714 H 1.00056 0.54777 0.09976 0.0
H715 H 0.96598 0.52403 0.13983 0.0
C716 C 0.05046 0.56547 1.01709 0.0
C717 C 0.07499 0.54687 1.0052 0.0
C718 C 0.02741 0.55204 0.0375 0.0
C719 C 0.02808 0.51956 0.04652 0.0
C720 C 0.05218 0.50094 1.03376 0.0
C721 C 0.07507 0.51429 1.01348 0.0
C722 C 0.97525 0.45921 0.09111 0.0
C723 C 0.96481 0.47688 0.11808 0.0
C724 C 0.9949 0.47317 0.06755 0.0
C725 C 1.00483 0.50528 0.0701 0.0
C726 C 0.99349 0.52315 0.0965 0.0
C727 C 0.97383 0.50925 0.11995 0.0
H728 H 0.67643 0.74329 0.32957 0.0
H729 H 0.76763 0.76743 0.293 0.0
H730 H 0.65364 0.78425 0.29567 0.0
H731 H 0.7447 0.80845 0.25836 0.0
H732 H 0.69826 0.89944 0.22181 0.0
H733 H 0.72144 0.85853 0.2552 0.0
H734 H 0.63899 0.79996 0.24316 0.0
H735 H 0.61504 0.84169 0.21082 0.0
C736 C 0.69174 0.75707 0.31402 0.0
C737 C 0.72408 0.75153 0.31415 0.0
C738 C 0.67851 0.78075 0.29427 0.0
C739 C 0.69697 0.79997 0.27364 0.0
C740 C 0.72944 0.79467 0.27399 0.0
C741 C 0.74275 0.77096 0.29395 0.0
C742 C 0.68466 0.87812 0.22631 0.0
C743 C 0.65425 0.87462 0.21337 0.0
C744 C 0.69837 0.85415 0.2454 0.0
C745 C 0.6824 0.82546 0.25236 0.0
C746 C 0.65215 0.82172 0.23909 0.0
C747 C 0.63835 0.84577 0.22003 0.0
H748 H 0.92726 0.64831 0.48321 0.0
H749 H 0.86004 0.57582 0.45598 0.0
H750 H 0.95706 0.6094 0.51296 0.0
H751 H 0.89106 0.53604 0.48461 0.0
H752 H 0.93388 0.47976 0.56918 0.0
H753 H 0.90524 0.51685 0.53613 0.0
H754 H 0.99072 0.56656 0.51273 0.0
H755 H 1.01955 0.53011 0.54716 0.0
C756 C 0.91868 0.62401 0.4834 0.0
C757 C 0.89059 0.61571 0.46734 0.0
C758 C 0.93629 0.60132 0.50026 0.0
C759 C 0.92682 0.56913 0.50167 0.0
C760 C 0.89914 0.56054 0.48482 0.0
C761 C 0.88136 0.5834 0.46794 0.0
C762 C 0.94698 0.49851 0.55734 0.0
C763 C 0.97956 0.50152 0.56174 0.0
C764 C 0.93024 0.51988 0.53775 0.0
C765 C 0.94524 0.5452 0.52141 0.0
C766 C 0.97788 0.54792 0.52519 0.0
C767 C 0.99468 0.52658 0.54497 0.0
H768 H 0.58996 0.42951 0.89077 0.0
H769 H 0.65711 0.44803 0.96722 0.0
H770 H 0.55041 0.45678 0.9228 0.0
H771 H 0.61877 0.47671 0.99786 0.0
H772 H 0.54069 0.51393 0.05999 0.0
H773 H 0.57549 0.47851 1.03059 0.0
H774 H 0.5325 0.50569 0.9395 0.0
H775 H 0.49681 0.53903 0.96884 0.0
C776 C 0.59644 0.4393 0.91429 0.0
C777 C 0.62725 0.43671 0.92574 0.0
C778 C 0.57373 0.45543 0.93271 0.0
C779 C 0.581 0.46963 0.96323 0.0
C780 C 0.61162 0.46613 0.9749 0.0
C781 C 0.6341 0.44991 0.95673 0.0
C782 C 0.53832 0.51202 1.03377 0.0
C783 C 0.51592 0.53014 1.01713 0.0
C784 C 0.55869 0.49185 1.01663 0.0
C785 C 0.55753 0.48912 0.98217 0.0
C786 C 0.53442 0.50652 0.96582 0.0
C787 C 0.514 0.52636 0.9829 0.0
H788 H 0.73859 0.77694 0.84272 0.0
H789 H 0.79718 0.81688 0.76766 0.0
H790 H 0.76938 0.80497 0.88421 0.0
H791 H 0.82837 0.84426 0.80885 0.0
H792 H 0.86416 0.91275 0.88674 0.0
H793 H 0.83106 0.88634 0.84634 0.0
H794 H 0.81655 0.80772 0.91257 0.0
H795 H 0.84797 0.83472 0.95336 0.0
C796 C 0.75826 0.79137 0.83504 0.0
C797 C 0.76517 0.79462 0.80166 0.0
C798 C 0.77607 0.80755 0.85892 0.0
C799 C 0.80158 0.82729 0.85023 0.0
C800 C 0.80864 0.83007 0.8168 0.0
C801 C 0.79072 0.81413 0.793 0.0
C802 C 0.85369 0.89002 0.89295 0.0
C803 C 0.8593 0.87608 0.92365 0.0
C804 C 0.83485 0.87454 0.86945 0.0
C805 C 0.82099 0.8445 0.87574 0.0
C806 C 0.8263 0.83085 0.90659 0.0
C807 C 0.84494 0.84635 0.93008 0.0
H808 H 0.73056 0.17632 0.3401 0.0
H809 H 0.68219 0.26489 0.35263 0.0
H810 H 0.77132 0.20447 0.30964 0.0
H811 H 0.72194 0.29259 0.32145 0.0
H812 H 0.81266 0.34035 0.28659 0.0
H813 H 0.77387 0.31256 0.32005 0.0
H814 H 0.78138 0.22955 0.25854 0.0
H815 H 0.81983 0.25708 0.22549 0.0
C816 C 0.72852 0.20172 0.33647 0.0
C817 C 0.70258 0.21798 0.34872 0.0
C818 C 0.75184 0.21796 0.31864 0.0
C819 C 0.75014 0.25106 0.31265 0.0
C820 C 0.72452 0.2673 0.32555 0.0
C821 C 0.70127 0.25113 0.34321 0.0
C822 C 0.80591 0.31627 0.28007 0.0
C823 C 0.8199 0.30112 0.25329 0.0
C824 C 0.78356 0.30018 0.29934 0.0
C825 C 0.77438 0.26842 0.29243 0.0
C826 C 0.78814 0.25356 0.26539 0.0
C827 C 0.81037 0.26957 0.24621 0.0
H828 H 0.48965 0.60942 0.53744 0.0
H829 H 0.50772 0.51734 0.58014 0.0
H830 H 0.52426 0.63422 0.57692 0.0
H831 H 0.54328 0.54221 0.61873 0.0
H832 H 0.5787 0.59853 0.70664 0.0
H833 H 0.54569 0.57365 0.66582 0.0
H834 H 0.57589 0.64335 0.595 0.0
H835 H 0.60801 0.66943 0.63659 0.0
C836 C 0.5009 0.59417 0.55497 0.0
C837 C 0.49507 0.56097 0.55514 0.0
C838 C 0.52128 0.60861 0.57768 0.0
C839 C 0.53683 0.59051 0.60147 0.0
C840 C 0.53148 0.5573 0.60136 0.0
C841 C 0.51101 0.54283 0.57873 0.0
C842 C 0.57829 0.60899 0.68257 0.0
C843 C 0.59616 0.63653 0.67549 0.0
C844 C 0.55945 0.59424 0.65875 0.0
C845 C 0.55779 0.60619 0.6267 0.0
C846 C 0.57599 0.63348 0.61938 0.0
C847 C 0.59483 0.64837 0.64332 0.0
H848 H 0.23955 0.07665 0.21481 0.0
H849 H 0.28588 0.10852 0.30304 0.0
H850 H 0.25162 1.02246 0.22774 0.0
H851 H 0.29773 0.05312 0.31644 0.0
H852 H 0.25056 0.95354 0.34581 0.0
H853 H 0.26529 1.00836 0.33387 0.0
H854 H 0.28866 0.98123 0.2353 0.0
H855 H 0.27233 0.92665 0.24692 0.0
C856 C 0.25335 0.07231 0.23647 0.0
C857 C 0.26179 0.09722 0.2578 0.0
C858 C 0.26034 0.04092 0.24394 0.0
C859 C 0.27583 1.03329 0.2731 0.0
C860 C 0.28562 0.0582 0.29386 0.0
C861 C 0.27873 0.08989 0.28623 0.0
C862 C 0.25993 0.95904 0.32197 0.0
C863 C 0.25956 0.9361 0.29701 0.0
C864 C 0.2685 0.99054 0.31511 0.0
C865 C 0.27723 0.99938 0.28331 0.0
C866 C 0.28109 0.97536 0.25977 0.0
C867 C 0.27194 0.94407 0.26644 0.0
H868 H 0.18418 0.83603 0.46161 0.0
H869 H 0.26858 0.84331 0.40495 0.0
H870 H 0.21406 0.84175 0.51147 0.0
H871 H 0.29888 0.84756 0.4553 0.0
H872 H 0.33497 0.90275 0.54407 0.0
H873 H 0.30663 0.88866 0.49448 0.0
H874 H 0.25032 0.82165 0.54927 0.0
H875 H 0.27816 0.83686 0.59915 0.0
C876 C 0.20927 0.83802 0.4598 0.0
C877 C 0.22397 0.83976 0.42926 0.0
C878 C 0.22647 0.84113 0.48854 0.0
C879 C 0.25885 0.84569 0.48745 0.0
C880 C 0.27385 0.84493 0.45696 0.0
C881 C 0.25655 0.8421 0.4281 0.0
C882 C 0.31639 0.88515 0.54542 0.0
C883 C 0.30853 0.87102 0.57533 0.0
C884 C 0.30041 0.87673 0.51698 0.0
C885 C 0.27643 0.85369 0.51773 0.0
C886 C 0.26847 0.83969 0.54783 0.0
C887 C 0.28427 0.84843 0.5764 0.0
H888 H 0.29504 0.96348 0.71891 0.0
H889 H 0.38186 0.96387 0.77178 0.0
H890 H 0.27411 1.00228 0.75687 0.0
H891 H 0.36212 1.00478 0.8085 0.0
H892 H 0.31984 0.07865 0.87384 0.0
H893 H 0.33022 1.02675 0.84899 0.0
H894 H 0.28057 0.05595 0.76221 0.0
H895 H 0.26907 0.10616 0.78747 0.0
C896 C 0.3095 0.97174 0.739 0.0
C897 C 0.34002 0.9609 0.74242 0.0
C898 C 0.2977 0.99431 0.7606 0.0
C899 C 0.31662 1.00765 0.78539 0.0
C900 C 0.34665 0.99515 0.78997 0.0
C901 C 0.35811 0.97175 0.76885 0.0
C902 C 0.31041 0.07342 0.84986 0.0
C903 C 0.29378 0.09665 0.83258 0.0
C904 C 0.31668 0.04381 0.83538 0.0
C905 C 0.3065 0.03688 0.80332 0.0
C906 C 0.28846 0.05971 0.78704 0.0
C907 C 0.28206 0.08892 0.8015 0.0
H908 H 0.26684 0.25962 0.97044 0.0
H909 H 0.25593 0.15767 0.98021 0.0
H910 H 0.24859 0.26681 1.02591 0.0
H911 H 0.23744 0.16508 1.03632 0.0
H912 H 0.18477 0.19742 0.1302 0.0
H913 H 0.19425 0.19055 0.07165 0.0
H914 H 0.27458 0.25289 0.07895 0.0
H915 H 0.26526 0.25965 0.13711 0.0
C916 C 0.26021 0.23868 0.98429 0.0
C917 C 0.26324 0.208 0.971 0.0
C918 C 0.2498 0.24287 1.01615 0.0
C919 C 0.242 0.21652 1.03559 0.0
C920 C 0.24325 0.18584 1.02182 0.0
C921 C 0.25387 0.18159 0.98976 0.0
C922 C 0.20416 0.21002 0.11915 0.0
C923 C 0.22422 0.22922 0.13822 0.0
C924 C 0.20973 0.20582 0.08574 0.0
C925 C 0.23511 0.22121 0.07074 0.0
C926 C 0.25464 0.24098 0.08974 0.0
C927 C 0.24936 0.24478 0.12308 0.0
H928 H 0.09904 0.27062 0.30559 0.0
H929 H 0.11591 0.28471 0.20268 0.0
H930 H 0.05586 0.30791 0.303 0.0
H931 H 0.07269 0.32125 0.2 0.0
H932 H 1.00779 0.39871 0.20046 0.0
H933 H 0.05594 0.3732 0.21717 0.0
H934 H 1.00337 0.30906 0.27893 0.0
H935 H 0.95528 0.33568 0.26294 0.0
C936 C 0.09362 0.28175 0.28246 0.0
C937 C 0.11084 0.27465 0.25429 0.0
C938 C 0.06887 0.30306 0.28101 0.0
C939 C 0.06099 0.31779 0.2514 0.0
C940 C 0.07854 0.31092 0.2234 0.0
C941 C 0.10316 0.28967 0.22483 0.0
C942 C 1.00682 0.3801 0.21875 0.0
C943 C 0.97811 0.36911 0.2306 0.0
C944 C 0.03426 0.3652 0.22797 0.0
C945 C 0.03337 0.33854 0.24865 0.0
C946 C 1.00486 0.32956 0.26299 0.0
C947 C 0.97734 0.34485 0.25403 0.0
H948 H 0.56956 0.29952 0.77254 0.0
H949 H 0.57839 0.25735 0.86813 0.0
H950 H 0.5198 0.27188 0.7647 0.0
H951 H 0.52858 0.23015 0.86064 0.0
H952 H 0.44628 0.17205 0.83732 0.0
H953 H 0.4998 0.18998 0.83144 0.0
H954 H 0.46823 0.27704 0.78683 0.0
H955 H 0.41458 0.25823 0.79088 0.0
C956 C 0.56086 0.28425 0.79182 0.0
C957 C 0.57765 0.28078 0.82108 0.0
C958 C 0.53241 0.26843 0.78733 0.0
C959 C 0.52015 0.2489 0.81206 0.0
C960 C 0.53757 0.24456 0.84083 0.0
C961 C 0.56607 0.26024 0.84523 0.0
C962 C 0.45067 0.19448 0.82509 0.0
C963 C 0.42602 0.21386 0.81482 0.0
C964 C 0.48143 0.20498 0.82222 0.0
C965 C 0.48826 0.2352 0.80931 0.0
C966 C 0.46381 0.25359 0.79685 0.0
C967 C 0.43301 0.24296 0.79948 0.0
H968 H 0.92971 0.70951 0.28949 0.0
H969 H 0.92413 0.75365 0.38451 0.0
H970 H 0.98411 0.72764 0.285 0.0
H971 H 0.97776 0.77188 0.37988 0.0
H972 H 0.08172 0.77161 0.37846 0.0
H973 H 0.03022 0.74658 0.37875 0.0
H974 H 1.01334 0.78112 0.28115 0.0
H975 H 0.06523 0.80567 0.28054 0.0
C976 C 0.94006 0.72318 0.30924 0.0
C977 C 0.92265 0.73055 0.33712 0.0
C978 C 0.97104 0.73356 0.30667 0.0
C979 C 0.98511 0.75093 0.33222 0.0
C980 C 0.96762 0.75818 0.36002 0.0
C981 C 0.93677 0.74815 0.36243 0.0
C982 C 0.06728 0.77332 0.35683 0.0
C983 C 0.07732 0.79086 0.32962 0.0
C984 C 0.03775 0.75922 0.35709 0.0
C985 C 1.01774 0.76226 0.3301 0.0
C986 C 0.02835 0.77838 0.30223 0.0
C987 C 0.05786 0.79267 0.30204 0.0
H988 H 0.60669 0.78512 0.80422 0.0
H989 H 0.61782 0.78511 0.69946 0.0
H990 H 0.5637 0.82226 0.79905 0.0
H991 H 0.57463 0.82152 0.69426 0.0
H992 H 0.50846 0.89826 0.68845 0.0
H993 H 0.55774 0.87486 0.70465 0.0
H994 H 0.51016 0.82001 0.77886 0.0
H995 H 0.46093 0.84461 0.76321 0.0
C996 C 0.60011 0.7932 0.78011 0.0
C997 C 0.61556 0.78207 0.7522 0.0
C998 C 0.57542 0.8144 0.77718 0.0
C999 C 0.56577 0.82495 0.74631 0.0
C1000 C 0.58181 0.81439 0.71851 0.0
C1001 C 0.60645 0.79327 0.72142 0.0
C1002 C 0.50884 0.88208 0.70904 0.0
C1003 C 0.48113 0.87304 0.72459 0.0
C1004 C 0.53694 0.86842 0.71808 0.0
C1005 C 0.53773 0.84493 0.74241 0.0
C1006 C 0.51036 0.83807 0.76003 0.0
C1007 C 0.48219 0.85218 0.75122 0.0
H1008 H 0.89739 0.06268 0.73971 0.0
H1009 H 0.97039 0.9961 0.71789 0.0
H1010 H 0.89951 0.04711 0.79699 0.0
H1011 H 0.97318 0.98157 0.77545 0.0
H1012 H 0.89977 0.9906 0.89447 0.0
H1013 H 0.89246 0.99877 0.83589 0.0
H1014 H 0.99114 1.0156 0.82511 0.0
H1015 H 0.99853 1.0078 0.88372 0.0
C1016 C 0.91334 0.04418 0.74687 0.0
C1017 C 0.93398 1.03094 0.72414 0.0
C1018 C 0.91468 0.03544 0.77977 0.0
C1019 C 0.93687 1.01356 0.79066 0.0
C1020 C 0.95626 0.99896 0.76775 0.0
C1021 C 0.95464 1.00733 0.73482 0.0
C1022 C 0.91993 0.996 0.8796 0.0
C1023 C 0.94976 0.99865 0.89372 0.0
C1024 C 0.91568 1.00072 0.84612 0.0
C1025 C 0.94124 1.00762 0.82601 0.0
C1026 C 0.97108 1.00993 0.84004 0.0
C1027 C 0.97528 1.00573 0.8736 0.0
H1028 H 0.85719 0.12688 0.58459 0.0
H1029 H 0.89157 0.09916 0.48992 0.0
H1030 H 0.80492 0.13226 0.56144 0.0
H1031 H 0.83931 0.1041 0.46705 0.0
H1032 H 0.73287 0.09281 0.44643 0.0
H1033 H 0.78273 0.08001 0.47263 0.0
H1034 H 0.78484 0.17261 0.51834 0.0
H1035 H 0.73578 0.1856 0.49203 0.0
C1036 C 0.85353 0.12154 0.559 0.0
C1037 C 0.87854 0.11296 0.539 0.0
C1038 C 0.82366 0.12466 0.54576 0.0
C1039 C 0.81817 0.11864 0.51246 0.0
C1040 C 0.84288 0.10866 0.49283 0.0
C1041 C 0.87281 0.10609 0.5059 0.0
C1042 C 0.74404 0.11033 0.46211 0.0
C1043 C 0.73058 0.14027 0.46696 0.0
C1044 C 0.77248 0.10303 0.47705 0.0
C1045 C 0.78745 0.12528 0.49764 0.0
C1046 C 0.77363 0.15491 0.5029 0.0
C1047 C 0.74566 0.16241 0.48755 0.0
H1048 H 0.61247 0.12103 0.31106 0.0
H1049 H 0.61616 0.03872 0.37348 0.0
H1050 H 0.59396 0.088 0.2661 0.0
H1051 H 0.59567 1.00535 0.329 0.0
H1052 H 0.58476 0.95327 0.22854 0.0
H1053 H 0.60254 0.98115 0.27761 0.0
H1054 H 0.54835 0.06288 0.24953 0.0
H1055 H 0.53267 0.03563 0.19955 0.0
C1056 C 0.60972 0.09562 0.31485 0.0
C1057 C 0.61615 0.08222 0.34534 0.0
C1058 C 0.59845 0.0767 0.28934 0.0
C1059 C 0.59233 0.04399 0.29401 0.0
C1060 C 0.60008 1.03036 0.32436 0.0
C1061 C 0.61202 0.04934 0.34979 0.0
C1062 C 0.57587 0.97679 0.23357 0.0
C1063 C 0.55722 0.99234 0.21047 0.0
C1064 C 0.58624 0.99293 0.2616 0.0
C1065 C 0.57773 1.02475 0.2672 0.0
C1066 C 0.55647 0.03891 0.24551 0.0
C1067 C 0.54681 1.02309 0.21719 0.0
H1068 H 0.66921 0.96559 1.00099 0.0
H1069 H 0.70126 0.90044 0.07505 0.0
H1070 H 0.72309 0.97519 0.98413 0.0
H1071 H 0.75436 0.91001 0.05859 0.0
H1072 H 0.84741 0.91839 1.01796 0.0
H1073 H 0.79261 0.90364 1.01804 0.0
H1074 H 0.76836 1.00272 1.00726 0.0
H1075 H 0.82392 1.01711 1.00518 0.0
C1076 C 0.68766 0.95291 1.01325 0.0
C1077 C 0.68092 0.9322 0.03932 0.0
C1078 C 0.71848 0.95853 1.00372 0.0
C1079 C 0.74307 0.9435 1.02007 0.0
C1080 C 0.73606 0.92159 0.04497 0.0
C1081 C 0.70543 0.91596 0.0544 0.0
C1082 C 0.83031 0.93694 1.01518 0.0
C1083 C 0.83957 0.9689 1.01223 0.0
C1084 C 0.79894 0.92853 1.01531 0.0
C1085 C 0.77605 0.95204 1.01339 0.0
C1086 C 0.7854 0.984 1.00865 0.0
C1087 C 0.81707 0.99235 1.00778 0.0
H1088 H 0.15492 0.75866 0.99711 0.0
H1089 H 0.06516 0.71679 1.0178 0.0
H1090 H 0.13563 0.81108 1.01303 0.0
H1091 H 0.04545 0.76868 1.03292 0.0
H1092 H 1.01103 0.86104 0.05696 0.0
H1093 H 0.04398 0.81553 0.06521 0.0
H1094 H 0.10039 0.84462 0.98318 0.0
H1095 H 0.06884 0.89185 0.97648 0.0
C1096 C 0.13146 0.76062 1.00641 0.0
C1097 C 0.11141 0.73405 1.00655 0.0
C1098 C 0.12029 0.79055 1.01511 0.0
C1099 C 0.08889 0.79418 1.0238 0.0
C1100 C 0.06984 0.76684 1.02675 0.0
C1101 C 0.08102 0.73705 1.0181 0.0
C1102 C 0.03115 0.85865 0.04141 0.0
C1103 C 0.03696 0.88011 1.01568 0.0
C1104 C 0.04988 0.83219 0.04598 0.0
C1105 C 0.07446 0.82607 1.02454 0.0
C1106 C 0.08171 0.84865 1.0003 0.0
C1107 C 0.06324 0.87547 0.99604 0.0
H1108 H 0.54151 0.68086 0.1257 0.0
H1109 H 0.4517 0.70175 0.08361 0.0
H1110 H 0.55153 0.73728 0.13361 0.0
H1111 H 0.46219 0.75866 0.09067 0.0
H1112 H 0.47656 0.8531 0.147 0.0
H1113 H 0.46636 0.7969 0.13524 0.0
H1114 H 0.56207 0.7859 0.10579 0.0
H1115 H 0.57248 0.8413 0.11868 0.0
C1116 C 0.52411 0.69755 0.11754 0.0
C1117 C 0.49578 0.6868 0.10408 0.0
C1118 C 0.52992 0.72998 0.12199 0.0
C1119 C 0.5076 0.75253 0.11293 0.0
C1120 C 0.47966 0.74186 0.09838 0.0
C1121 C 0.47381 0.70929 0.09397 0.0
C1122 C 0.49543 0.83861 0.13818 0.0
C1123 C 0.52534 0.85176 0.13378 0.0
C1124 C 0.48951 0.80649 0.1311 0.0
C1125 C 0.51338 0.78691 0.11945 0.0
C1126 C 0.54323 0.80016 0.11507 0.0
C1127 C 0.54915 0.83209 0.12229 0.0
H1128 H 0.05611 0.1791 0.59283 0.0
H1129 H 0.96432 0.20193 0.5571 0.0
H1130 H 0.07022 0.2354 0.59284 0.0
H1131 H 0.97848 0.25842 0.55734 0.0
H1132 H 0.0654 0.33707 0.63498 0.0
H1133 H 0.05416 0.28049 0.62742 0.0
H1134 H 1.01275 0.30016 0.5335 0.0
H1135 H 1.0237 0.3568 0.54113 0.0
C1136 C 0.03909 0.19608 0.58443 0.0
C1137 C 1.00899 0.18602 0.57522 0.0
C1138 C 0.04712 0.22838 0.58472 0.0
C1139 C 0.0253 0.25139 0.57566 0.0
C1140 C 0.99584 0.24124 0.56441 0.0
C1141 C 0.98774 0.20885 0.56421 0.0
C1142 C 0.05393 0.32935 0.61271 0.0
C1143 C 0.04542 0.35148 0.5887 0.0
C1144 C 0.0477 0.29689 0.60825 0.0
C1145 C 0.03269 0.28583 0.57976 0.0
C1146 C 0.02416 0.30796 0.55578 0.0
C1147 C 0.03057 0.3404 0.56014 0.0
H1148 H 0.56127 0.38944 0.4956 0.0
H1149 H 0.49275 0.35915 0.56645 0.0
H1150 H 0.59055 0.34132 0.50596 0.0
H1151 H 0.52314 0.31237 0.57839 0.0
H1152 H 0.6402 0.25394 0.52398 0.0
H1153 H 0.62061 0.30603 0.54011 0.0
H1154 H 0.52749 0.2662 0.54502 0.0
H1155 H 0.54728 0.21444 0.5299 0.0
C1156 C 0.55281 0.37293 0.5139 0.0
C1157 C 0.5243 0.37795 0.52962 0.0
C1158 C 0.56992 0.34558 0.52032 0.0
C1159 C 0.55897 0.32279 0.5428 0.0
C1160 C 0.53194 0.32924 0.5606 0.0
C1161 C 0.51466 0.35633 0.55391 0.0
C1162 C 0.6158 0.25617 0.53 0.0
C1163 C 0.59507 0.23049 0.52524 0.0
C1164 C 0.60453 0.28601 0.53886 0.0
C1165 C 0.57242 0.29045 0.54313 0.0
C1166 C 0.55237 0.26374 0.54205 0.0
C1167 C 0.56362 0.23404 0.53318 0.0
H1168 H 0.74834 0.4351 0.75003 0.0
H1169 H 0.75921 0.43974 0.85474 0.0
H1170 H 0.76457 0.49041 0.74567 0.0
H1171 H 0.77574 0.4954 0.85038 0.0
H1172 H 0.7256 0.59254 0.82435 0.0
H1173 H 0.73916 0.53815 0.83668 0.0
H1174 H 0.79989 0.53624 0.75299 0.0
H1175 H 0.78652 0.59134 0.74072 0.0
C1176 C 0.75528 0.44766 0.77204 0.0
C1177 C 0.75163 0.43342 0.80278 0.0
C1178 C 0.76486 0.47937 0.76954 0.0
C1179 C 0.77081 0.49749 0.79777 0.0
C1180 C 0.77077 0.48213 0.82825 0.0
C1181 C 0.7614 0.45022 0.83073 0.0
C1182 C 0.74282 0.58113 0.80926 0.0
C1183 C 0.75454 0.59617 0.78118 0.0
C1184 C 0.7507 0.5498 0.81642 0.0
C1185 C 0.77035 0.53273 0.79559 0.0
C1186 C 0.78435 0.54868 0.76923 0.0
C1187 C 0.77655 0.58014 0.76212 0.0
H1188 H 0.76751 0.33285 0.90449 0.0
H1189 H 0.68489 0.3278 0.96416 0.0
H1190 H 0.79938 0.33831 0.95363 0.0
H1191 H 0.71626 0.33487 1.01272 0.0
H1192 H 0.78131 0.33318 0.09882 0.0
H1193 H 0.75281 0.3161 0.05008 0.0
H1194 H 0.8096 0.37951 0.99148 0.0
H1195 H 0.8388 0.39524 0.04005 0.0
C1196 C 0.75619 0.33243 0.92806 0.0
C1197 C 0.72365 0.33025 0.93036 0.0
C1198 C 0.7744 0.33595 0.95623 0.0
C1199 C 0.76038 0.33769 0.98719 0.0
C1200 C 0.728 0.33343 0.98945 0.0
C1201 C 0.70991 0.32952 0.96142 0.0
C1202 C 0.78746 0.34349 0.07546 0.0
C1203 C 0.81201 0.36565 0.07308 0.0
C1204 C 0.77123 0.33371 0.04752 0.0
C1205 C 0.77893 0.3463 1.01671 0.0
C1206 C 0.80346 0.36868 1.01457 0.0
C1207 C 0.81996 0.37804 0.04242 0.0
H1208 H 0.85609 0.4419 0.27627 0.0
H1209 H 0.82514 0.49856 0.19472 0.0
H1210 H 0.83595 0.48209 0.31401 0.0
H1211 H 0.80619 0.5385 0.23172 0.0
H1212 H 0.75749 0.60075 0.2981 0.0
H1213 H 0.76775 0.55094 0.26999 0.0
H1214 H 0.84775 0.53608 0.33213 0.0
H1215 H 0.83625 0.58542 0.36141 0.0
C1216 C 0.84474 0.46269 0.2664 0.0
C1217 C 0.84229 0.46699 0.23244 0.0
C1218 C 0.8334 0.48582 0.288 0.0
C1219 C 0.81924 0.51358 0.27603 0.0
C1220 C 0.81625 0.51725 0.24206 0.0
C1221 C 0.82746 0.49432 0.22068 0.0
C1222 C 0.77678 0.58639 0.30627 0.0
C1223 C 0.79621 0.59701 0.3317 0.0
C1224 C 0.78288 0.55795 0.28999 0.0
C1225 C 0.80912 0.53982 0.29811 0.0
C1226 C 0.82731 0.54933 0.3252 0.0
C1227 C 0.82077 0.57762 0.342 0.0
H1228 H 0.67725 0.72091 0.63237 0.0
H1229 H 0.77336 0.69484 0.64615 0.0
H1230 H 0.68222 0.71131 0.57368 0.0
H1231 H 0.77816 0.68514 0.58777 0.0
H1232 H 0.77126 0.6457 0.4857 0.0
H1233 H 0.75733 0.64766 0.54359 0.0
H1234 H 0.71305 0.73816 0.52828 0.0
H1235 H 0.72709 0.7363 0.47069 0.0
C1236 C 0.69939 0.71311 0.62291 0.0
C1237 C 0.72498 0.70888 0.64389 0.0
C1238 C 0.70219 0.70757 0.58936 0.0
C1239 C 0.73049 0.69721 0.57622 0.0
C1240 C 0.75592 0.69262 0.59726 0.0
C1241 C 0.75325 0.69857 0.63067 0.0
C1242 C 0.75776 0.66551 0.49455 0.0
C1243 C 0.75033 0.69091 0.47378 0.0
C1244 C 0.75007 0.6668 0.5277 0.0
C1245 C 0.7344 0.69324 0.54047 0.0
C1246 C 0.725 0.71744 0.51913 0.0
C1247 C 0.7331 0.7164 0.48618 0.0
H1248 H 0.46331 0.47343 0.21713 0.0
H1249 H 0.4121 0.55908 0.2368 0.0
H1250 H 0.46709 0.4632 0.27617 0.0
H1251 H 0.41653 0.54925 0.29536 0.0
H1252 H 0.47686 0.54131 0.39121 0.0
H1253 H 0.4712 0.54646 0.33195 0.0
H1254 H 0.42354 0.45559 0.32797 0.0
H1255 H 0.42849 0.45066 0.38742 0.0
C1256 C 0.45246 0.48968 0.23404 0.0
C1257 C 0.43705 0.51677 0.22245 0.0
C1258 C 0.45466 0.4839 0.26766 0.0
C1259 C 0.44224 0.50559 0.29009 0.0
C1260 C 0.42635 0.53227 0.27847 0.0
C1261 C 0.42355 0.53767 0.24501 0.0
C1262 C 0.46536 0.52235 0.37767 0.0
C1263 C 0.45292 0.49571 0.3939 0.0
C1264 C 0.46203 0.52536 0.34387 0.0
C1265 C 0.44687 0.50144 0.32561 0.0
C1266 C 0.43533 0.47429 0.34161 0.0
C1267 C 0.43802 0.47161 0.37555 0.0
H1268 H 0.23734 0.58254 0.93962 0.0
H1269 H 0.23571 0.67239 0.99079 0.0
H1270 H 0.28484 0.56839 0.96903 0.0
H1271 H 0.28155 0.65778 1.0214 0.0
H1272 H 0.38011 0.63921 0.05028 0.0
H1273 H 0.33454 0.6521 1.01794 0.0
H1274 H 0.30569 0.55305 1.01935 0.0
H1275 H 0.35255 0.54006 0.05008 0.0
C1276 C 0.24707 0.59914 0.95726 0.0
C1277 C 0.2331 0.6287 0.96259 0.0
C1278 C 0.27414 0.59099 0.97434 0.0
C1279 C 0.28736 0.61201 0.99757 0.0
C1280 C 0.2728 0.6413 1.00313 0.0
C1281 C 0.24629 0.64965 0.98565 0.0
C1282 C 0.36397 0.62023 0.04372 0.0
C1283 C 0.36976 0.58867 0.05282 0.0
C1284 C 0.33767 0.6276 1.02527 0.0
C1285 C 0.31606 0.60369 1.01612 0.0
C1286 C 0.32193 0.57206 1.02541 0.0
C1287 C 0.34865 0.56461 0.0433 0.0
H1288 H 0.06205 0.54998 0.87702 0.0
H1289 H 0.15363 0.54914 0.83409 0.0
H1290 H 0.04331 0.51261 0.83597 0.0
H1291 H 0.13455 0.51148 0.79238 0.0
H1292 H 0.09143 0.43518 0.72647 0.0
H1293 H 0.10936 0.45646 0.77915 0.0
H1294 H 0.0353 0.52502 0.77687 0.0
H1295 H 1.01804 0.50426 0.72424 0.0
C1296 C 0.07834 0.54145 0.859 0.0
C1297 C 0.10918 0.553 0.85832 0.0
C1298 C 0.06755 0.51995 0.83555 0.0
C1299 C 0.08729 0.50947 0.81071 0.0
C1300 C 0.11884 0.51907 0.81137 0.0
C1301 C 0.12975 0.54069 0.8351 0.0
C1302 C 0.07827 0.45389 0.73798 0.0
C1303 C 0.05311 0.46791 0.72159 0.0
C1304 C 0.08882 0.46636 0.76784 0.0
C1305 C 0.07389 0.49253 0.782 0.0
C1306 C 0.04716 0.50467 0.76676 0.0
C1307 C 0.03709 0.4927 0.73672 0.0
H1308 H 0.32884 0.49033 0.46124 0.0
H1309 H 0.33617 0.51257 0.56394 0.0
H1310 H 0.27201 0.48978 0.46554 0.0
H1311 H 0.28004 0.51128 0.56844 0.0
H1312 H 0.18054 0.52063 0.57214 0.0
H1313 H 0.23214 0.53535 0.55464 0.0
H1314 H 0.23385 0.45371 0.49057 0.0
H1315 H 0.18057 0.44017 0.50604 0.0
C1316 C 0.31831 0.49584 0.48452 0.0
C1317 C 0.33689 0.50137 0.51232 0.0
C1318 C 0.28582 0.49519 0.48704 0.0
C1319 C 0.27144 0.50032 0.51734 0.0
C1320 C 0.29018 0.50767 0.5446 0.0
C1321 C 0.32247 0.50821 0.5421 0.0
C1322 C 0.19107 0.50634 0.55329 0.0
C1323 C 0.17606 0.47892 0.54071 0.0
C1324 C 0.22111 0.51462 0.54365 0.0
C1325 C 0.23742 0.49537 0.52176 0.0
C1326 C 0.22192 0.46912 0.50749 0.0
C1327 C 0.19149 0.46106 0.51676 0.0
loop_
_geom_bond_atom_site_label_1
_geom_bond_atom_site_label_2
_geom_bond_distance
_geom_bond_site_symmetry_2
_ccdc_geom_bond_type
C0 C1 1.351 . S
C0 N3 1.368 . S
C0 H5 0.931 . S
C1 C0 1.351 . S
C1 N2 1.373 . S
C1 H29 0.930 . S
N2 C1 1.373 . S
N2 C4 1.340 . S
N3 C0 1.368 . S
N3 C4 1.321 . S
N3 Co6 2.135 . S
C4 N2 1.340 . S
C4 N3 1.321 . S
C4 H28 0.930 . S
H5 C0 0.931 . S
Co6 N3 2.135 . S
Co6 N9 2.121 . S
Co6 O14 2.055 . S
Co6 O17 2.039 . S
Co6 N20 2.140 . S
C7 O8 1.227 . S
C7 O17 1.265 . S
O8 C7 1.227 . S
N9 Co6 2.121 . S
N9 C11 1.375 . S
N9 C12 1.313 . S
C10 C11 1.338 . S
C10 N13 1.377 . S
C10 H30 0.930 . S
C11 N9 1.375 . S
C11 C10 1.338 . S
C11 H15 0.931 . S
C12 N9 1.313 . S
C12 N13 1.344 . S
C12 H16 0.930 . S
N13 C10 1.377 . S
N13 C12 1.344 . S
O14 Co6 2.055 . S
O14 C18 1.253 . S
H15 C11 0.931 . S
H16 C12 0.930 . S
O17 Co6 2.039 . S
O17 C7 1.265 . S
C18 O14 1.253 . S
C18 O19 1.227 . S
O19 C18 1.227 . S
N20 Co6 2.140 . S
N20 C23 1.346 . S
N20 C24 1.345 . S
C21 C22 1.387 . S
C21 C25 1.391 . S
C22 C21 1.387 . S
C22 C23 1.369 . S
C22 H31 0.929 . S
C23 N20 1.346 . S
C23 C22 1.369 . S
C23 H26 0.928 . S
C24 N20 1.345 . S
C24 C25 1.371 . S
C24 H27 0.931 . S
C25 C21 1.391 . S
C25 C24 1.371 . S
C25 H32 0.930 . S
H26 C23 0.928 . S
H27 C24 0.931 . S
H28 C4 0.930 . S
H29 C1 0.930 . S
H30 C10 0.930 . S
H31 C22 0.929 . S
H32 C25 0.930 . S
C33 C34 1.351 . S
C33 N36 1.368 . S
C33 H38 0.931 . S
C34 C33 1.351 . S
C34 N35 1.373 . S
C34 H62 0.930 . S
N35 C34 1.373 . S
N35 C37 1.340 . S
N36 C33 1.368 . S
N36 C37 1.321 . S
N36 Co39 2.135 . S
C37 N35 1.340 . S
C37 N36 1.321 . S
C37 H61 0.930 . S
H38 C33 0.931 . S
Co39 N36 2.135 . S
Co39 N42 2.121 . S
Co39 O47 2.055 . S
Co39 O50 2.039 . S
Co39 N53 2.140 . S
C40 O41 1.227 . S
C40 O50 1.265 . S
O41 C40 1.227 . S
N42 Co39 2.121 . S
N42 C44 1.375 . S
N42 C45 1.313 . S
C43 C44 1.338 . S
C43 N46 1.377 . S
C43 H63 0.930 . S
C44 N42 1.375 . S
C44 C43 1.338 . S
C44 H48 0.931 . S
C45 N42 1.313 . S
C45 N46 1.344 . S
C45 H49 0.930 . S
N46 C43 1.377 . S
N46 C45 1.344 . S
O47 Co39 2.055 . S
O47 C51 1.253 . S
H48 C44 0.931 . S
H49 C45 0.930 . S
O50 Co39 2.039 . S
O50 C40 1.265 . S
C51 O47 1.253 . S
C51 O52 1.227 . S
O52 C51 1.227 . S
N53 Co39 2.140 . S
N53 C56 1.346 . S
N53 C57 1.345 . S
C54 C55 1.387 . S
C54 C58 1.391 . S
C55 C54 1.387 . S
C55 C56 1.369 . S
C55 H64 0.929 . S
C56 N53 1.346 . S
C56 C55 1.369 . S
C56 H59 0.928 . S
C57 N53 1.345 . S
C57 C58 1.371 . S
C57 H60 0.931 . S
C58 C54 1.391 . S
C58 C57 1.371 . S
C58 H65 0.930 . S
H59 C56 0.928 . S
H60 C57 0.931 . S
H61 C37 0.930 . S
H62 C34 0.930 . S
H63 C43 0.930 . S
H64 C55 0.929 . S
H65 C58 0.930 . S
C66 C67 1.351 . S
C66 N69 1.368 . S
C66 H71 0.931 . S
C67 C66 1.351 . S
C67 N68 1.373 . S
C67 H95 0.930 . S
N68 C67 1.373 . S
N68 C70 1.340 . S
N69 C66 1.368 . S
N69 C70 1.321 . S
N69 Co72 2.135 . S
C70 N68 1.340 . S
C70 N69 1.321 . S
C70 H94 0.930 . S
H71 C66 0.931 . S
Co72 N69 2.135 . S
Co72 N75 2.121 . S
Co72 O80 2.055 . S
Co72 O83 2.039 . S
Co72 N86 2.140 . S
C73 O74 1.227 . S
C73 O83 1.265 . S
O74 C73 1.227 . S
N75 Co72 2.121 . S
N75 C77 1.375 . S
N75 C78 1.313 . S
C76 C77 1.338 . S
C76 N79 1.377 . S
C76 H96 0.930 . S
C77 N75 1.375 . S
C77 C76 1.338 . S
C77 H81 0.931 . S
C78 N75 1.313 . S
C78 N79 1.344 . S
C78 H82 0.930 . S
N79 C76 1.377 . S
N79 C78 1.344 . S
O80 Co72 2.055 . S
O80 C84 1.253 . S
H81 C77 0.931 . S
H82 C78 0.930 . S
O83 Co72 2.039 . S
O83 C73 1.265 . S
C84 O80 1.253 . S
C84 O85 1.227 . S
O85 C84 1.227 . S
N86 Co72 2.140 . S
N86 C89 1.346 . S
N86 C90 1.345 . S
C87 C88 1.387 . S
C87 C91 1.391 . S
C88 C87 1.387 . S
C88 C89 1.369 . S
C88 H97 0.929 . S
C89 N86 1.346 . S
C89 C88 1.369 . S
C89 H92 0.928 . S
C90 N86 1.345 . S
C90 C91 1.371 . S
C90 H93 0.931 . S
C91 C87 1.391 . S
C91 C90 1.371 . S
C91 H98 0.930 . S
H92 C89 0.928 . S
H93 C90 0.931 . S
H94 C70 0.930 . S
H95 C67 0.930 . S
H96 C76 0.930 . S
H97 C88 0.929 . S
H98 C91 0.930 . S
C99 C100 1.351 . S
C99 N102 1.368 . S
C99 H104 0.931 . S
C100 C99 1.351 . S
C100 N101 1.373 . S
C100 H128 0.930 . S
N101 C100 1.373 . S
N101 C103 1.340 . S
N102 C99 1.368 . S
N102 C103 1.321 . S
N102 Co105 2.135 . S
C103 N101 1.340 . S
C103 N102 1.321 . S
C103 H127 0.930 . S
H104 C99 0.931 . S
Co105 N102 2.135 . S
Co105 N108 2.121 . S
Co105 O113 2.055 . S
Co105 O116 2.039 . S
Co105 N119 2.140 . S
C106 O107 1.227 . S
C106 O116 1.265 . S
O107 C106 1.227 . S
N108 Co105 2.121 . S
N108 C110 1.375 . S
N108 C111 1.313 . S
C109 C110 1.338 . S
C109 N112 1.377 . S
C109 H129 0.930 . S
C110 N108 1.375 . S
C110 C109 1.338 . S
C110 H114 0.931 . S
C111 N108 1.313 . S
C111 N112 1.344 . S
C111 H115 0.930 . S
N112 C109 1.377 . S
N112 C111 1.344 . S
O113 Co105 2.055 . S
O113 C117 1.253 . S
H114 C110 0.931 . S
H115 C111 0.930 . S
O116 Co105 2.039 . S
O116 C106 1.265 . S
C117 O113 1.253 . S
C117 O118 1.227 . S
O118 C117 1.227 . S
N119 Co105 2.140 . S
N119 C122 1.346 . S
N119 C123 1.345 . S
C120 C121 1.387 . S
C120 C124 1.391 . S
C121 C120 1.387 . S
C121 C122 1.369 . S
C121 H130 0.929 . S
C122 N119 1.346 . S
C122 C121 1.369 . S
C122 H125 0.928 . S
C123 N119 1.345 . S
C123 C124 1.371 . S
C123 H126 0.931 . S
C124 C120 1.391 . S
C124 C123 1.371 . S
C124 H131 0.930 . S
H125 C122 0.928 . S
H126 C123 0.931 . S
H127 C103 0.930 . S
H128 C100 0.930 . S
H129 C109 0.930 . S
H130 C121 0.929 . S
H131 C124 0.930 . S
C132 C133 1.351 . S
C132 N135 1.368 . S
C132 H137 0.931 . S
C133 C132 1.351 . S
C133 N134 1.373 . S
C133 H161 0.930 . S
N134 C133 1.373 . S
N134 C136 1.340 . S
N135 C132 1.368 . S
N135 C136 1.321 . S
N135 Co138 2.135 . S
C136 N134 1.340 . S
C136 N135 1.321 . S
C136 H160 0.930 . S
H137 C132 0.931 . S
Co138 N135 2.135 . S
Co138 N141 2.121 . S
Co138 O146 2.055 . S
Co138 O149 2.039 . S
Co138 N152 2.140 . S
C139 O140 1.227 . S
C139 O149 1.265 . S
O140 C139 1.227 . S
N141 Co138 2.121 . S
N141 C143 1.375 . S
N141 C144 1.313 . S
C142 C143 1.338 . S
C142 N145 1.377 . S
C142 H162 0.930 . S
C143 N141 1.375 . S
C143 C142 1.338 . S
C143 H147 0.931 . S
C144 N141 1.313 . S
C144 N145 1.344 . S
C144 H148 0.930 . S
N145 C142 1.377 . S
N145 C144 1.344 . S
O146 Co138 2.055 . S
O146 C150 1.253 . S
H147 C143 0.931 . S
H148 C144 0.930 . S
O149 Co138 2.039 . S
O149 C139 1.265 . S
C150 O146 1.253 . S
C150 O151 1.227 . S
O151 C150 1.227 . S
N152 Co138 2.140 . S
N152 C155 1.346 . S
N152 C156 1.345 . S
C153 C154 1.387 . S
C153 C157 1.391 . S
C154 C153 1.387 . S
C154 C155 1.369 . S
C154 H163 0.929 . S
C155 N152 1.346 . S
C155 C154 1.369 . S
C155 H158 0.928 . S
C156 N152 1.345 . S
C156 C157 1.371 . S
C156 H159 0.931 . S
C157 C153 1.391 . S
C157 C156 1.371 . S
C157 H164 0.930 . S
H158 C155 0.928 . S
H159 C156 0.931 . S
H160 C136 0.930 . S
H161 C133 0.930 . S
H162 C142 0.930 . S
H163 C154 0.929 . S
H164 C157 0.930 . S
C165 C166 1.351 . S
C165 N168 1.368 . S
C165 H170 0.931 . S
C166 C165 1.351 . S
C166 N167 1.373 . S
C166 H194 0.930 . S
N167 C166 1.373 . S
N167 C169 1.340 . S
N168 C165 1.368 . S
N168 C169 1.321 . S
N168 Co171 2.135 . S
C169 N167 1.340 . S
C169 N168 1.321 . S
C169 H193 0.930 . S
H170 C165 0.931 . S
Co171 N168 2.135 . S
Co171 N174 2.121 . S
Co171 O179 2.055 . S
Co171 O182 2.039 . S
Co171 N185 2.140 . S
C172 O173 1.227 . S
C172 O182 1.265 . S
O173 C172 1.227 . S
N174 Co171 2.121 . S
N174 C176 1.375 . S
N174 C177 1.313 . S
C175 C176 1.338 . S
C175 N178 1.377 . S
C175 H195 0.930 . S
C176 N174 1.375 . S
C176 C175 1.338 . S
C176 H180 0.931 . S
C177 N174 1.313 . S
C177 N178 1.344 . S
C177 H181 0.930 . S
N178 C175 1.377 . S
N178 C177 1.344 . S
O179 Co171 2.055 . S
O179 C183 1.253 . S
H180 C176 0.931 . S
H181 C177 0.930 . S
O182 Co171 2.039 . S
O182 C172 1.265 . S
C183 O179 1.253 . S
C183 O184 1.227 . S
O184 C183 1.227 . S
N185 Co171 2.140 . S
N185 C188 1.346 . S
N185 C189 1.345 . S
C186 C187 1.387 . S
C186 C190 1.391 . S
C187 C186 1.387 . S
C187 C188 1.369 . S
C187 H196 0.929 . S
C188 N185 1.346 . S
C188 C187 1.369 . S
C188 H191 0.928 . S
C189 N185 1.345 . S
C189 C190 1.371 . S
C189 H192 0.931 . S
C190 C186 1.391 . S
C190 C189 1.371 . S
C190 H197 0.930 . S
H191 C188 0.928 . S
H192 C189 0.931 . S
H193 C169 0.930 . S
H194 C166 0.930 . S
H195 C175 0.930 . S
H196 C187 0.929 . S
H197 C190 0.930 . S
C198 C199 1.351 . S
C198 N201 1.368 . S
C198 H203 0.931 . S
C199 C198 1.351 . S
C199 N200 1.373 . S
C199 H227 0.930 . S
N200 C199 1.373 . S
N200 C202 1.340 . S
N201 C198 1.368 . S
N201 C202 1.321 . S
N201 Co204 2.135 . S
C202 N200 1.340 . S
C202 N201 1.321 . S
C202 H226 0.930 . S
H203 C198 0.931 . S
Co204 N201 2.135 . S
Co204 N207 2.121 . S
Co204 O212 2.055 . S
Co204 O215 2.039 . S
Co204 N218 2.140 . S
C205 O206 1.227 . S
C205 O215 1.265 . S
O206 C205 1.227 . S
N207 Co204 2.121 . S
N207 C209 1.375 . S
N207 C210 1.313 . S
C208 C209 1.338 . S
C208 N211 1.377 . S
C208 H228 0.930 . S
C209 N207 1.375 . S
C209 C208 1.338 . S
C209 H213 0.931 . S
C210 N207 1.313 . S
C210 N211 1.344 . S
C210 H214 0.930 . S
N211 C208 1.377 . S
N211 C210 1.344 . S
O212 Co204 2.055 . S
O212 C216 1.253 . S
H213 C209 0.931 . S
H214 C210 0.930 . S
O215 Co204 2.039 . S
O215 C205 1.265 . S
C216 O212 1.253 . S
C216 O217 1.227 . S
O217 C216 1.227 . S
N218 Co204 2.140 . S
N218 C221 1.346 . S
N218 C222 1.345 . S
C219 C220 1.387 . S
C219 C223 1.391 . S
C220 C219 1.387 . S
C220 C221 1.369 . S
C220 H229 0.929 . S
C221 N218 1.346 . S
C221 C220 1.369 . S
C221 H224 0.928 . S
C222 N218 1.345 . S
C222 C223 1.371 . S
C222 H225 0.931 . S
C223 C219 1.391 . S
C223 C222 1.371 . S
C223 H230 0.930 . S
H224 C221 0.928 . S
H225 C222 0.931 . S
H226 C202 0.930 . S
H227 C199 0.930 . S
H228 C208 0.930 . S
H229 C220 0.929 . S
H230 C223 0.930 . S
C231 C232 1.351 . S
C231 N234 1.368 . S
C231 H236 0.931 . S
C232 C231 1.351 . S
C232 N233 1.373 . S
C232 H260 0.930 . S
N233 C232 1.373 . S
N233 C235 1.340 . S
N234 C231 1.368 . S
N234 C235 1.321 . S
N234 Co237 2.135 . S
C235 N233 1.340 . S
C235 N234 1.321 . S
C235 H259 0.930 . S
H236 C231 0.931 . S
Co237 N234 2.135 . S
Co237 N240 2.121 . S
Co237 O245 2.055 . S
Co237 O248 2.039 . S
Co237 N251 2.140 . S
C238 O239 1.227 . S
C238 O248 1.265 . S
O239 C238 1.227 . S
N240 Co237 2.121 . S
N240 C242 1.375 . S
N240 C243 1.313 . S
C241 C242 1.338 . S
C241 N244 1.377 . S
C241 H261 0.930 . S
C242 N240 1.375 . S
C242 C241 1.338 . S
C242 H246 0.931 . S
C243 N240 1.313 . S
C243 N244 1.344 . S
C243 H247 0.930 . S
N244 C241 1.377 . S
N244 C243 1.344 . S
O245 Co237 2.055 . S
O245 C249 1.253 . S
H246 C242 0.931 . S
H247 C243 0.930 . S
O248 Co237 2.039 . S
O248 C238 1.265 . S
C249 O245 1.253 . S
C249 O250 1.227 . S
O250 C249 1.227 . S
N251 Co237 2.140 . S
N251 C254 1.346 . S
N251 C255 1.345 . S
C252 C253 1.387 . S
C252 C256 1.391 . S
C253 C252 1.387 . S
C253 C254 1.369 . S
C253 H262 0.929 . S
C254 N251 1.346 . S
C254 C253 1.369 . S
C254 H257 0.928 . S
C255 N251 1.345 . S
C255 C256 1.371 . S
C255 H258 0.931 . S
C256 C252 1.391 . S
C256 C255 1.371 . S
C256 H263 0.930 . S
H257 C254 0.928 . S
H258 C255 0.931 . S
H259 C235 0.930 . S
H260 C232 0.930 . S
H261 C241 0.930 . S
H262 C253 0.929 . S
H263 C256 0.930 . S
C264 C265 1.351 . S
C264 N267 1.368 . S
C264 H269 0.931 . S
C265 C264 1.351 . S
C265 N266 1.373 . S
C265 H293 0.930 . S
N266 C265 1.373 . S
N266 C268 1.340 . S
N267 C264 1.368 . S
N267 C268 1.321 . S
N267 Co270 2.135 . S
C268 N266 1.340 . S
C268 N267 1.321 . S
C268 H292 0.930 . S
H269 C264 0.931 . S
Co270 N267 2.135 . S
Co270 N273 2.121 . S
Co270 O278 2.055 . S
Co270 O281 2.039 . S
Co270 N284 2.140 . S
C271 O272 1.227 . S
C271 O281 1.265 . S
O272 C271 1.227 . S
N273 Co270 2.121 . S
N273 C275 1.375 . S
N273 C276 1.313 . S
C274 C275 1.338 . S
C274 N277 1.377 . S
C274 H294 0.930 . S
C275 N273 1.375 . S
C275 C274 1.338 . S
C275 H279 0.931 . S
C276 N273 1.313 . S
C276 N277 1.344 . S
C276 H280 0.930 . S
N277 C274 1.377 . S
N277 C276 1.344 . S
O278 Co270 2.055 . S
O278 C282 1.253 . S
H279 C275 0.931 . S
H280 C276 0.930 . S
O281 Co270 2.039 . S
O281 C271 1.265 . S
C282 O278 1.253 . S
C282 O283 1.227 . S
O283 C282 1.227 . S
N284 Co270 2.140 . S
N284 C287 1.346 . S
N284 C288 1.345 . S
C285 C286 1.387 . S
C285 C289 1.391 . S
C286 C285 1.387 . S
C286 C287 1.369 . S
C286 H295 0.929 . S
C287 N284 1.346 . S
C287 C286 1.369 . S
C287 H290 0.928 . S
C288 N284 1.345 . S
C288 C289 1.371 . S
C288 H291 0.931 . S
C289 C285 1.391 . S
C289 C288 1.371 . S
C289 H296 0.930 . S
H290 C287 0.928 . S
H291 C288 0.931 . S
H292 C268 0.930 . S
H293 C265 0.930 . S
H294 C274 0.930 . S
H295 C286 0.929 . S
H296 C289 0.930 . S
C297 C298 1.351 . S
C297 N300 1.368 . S
C297 H302 0.931 . S
C298 C297 1.351 . S
C298 N299 1.373 . S
C298 H326 0.930 . S
N299 C298 1.373 . S
N299 C301 1.340 . S
N300 C297 1.368 . S
N300 C301 1.321 . S
N300 Co303 2.135 . S
C301 N299 1.340 . S
C301 N300 1.321 . S
C301 H325 0.930 . S
H302 C297 0.931 . S
Co303 N300 2.135 . S
Co303 N306 2.121 . S
Co303 O311 2.055 . S
Co303 O314 2.039 . S
Co303 N317 2.140 . S
C304 O305 1.227 . S
C304 O314 1.265 . S
O305 C304 1.227 . S
N306 Co303 2.121 . S
N306 C308 1.375 . S
N306 C309 1.313 . S
C307 C308 1.338 . S
C307 N310 1.377 . S
C307 H327 0.930 . S
C308 N306 1.375 . S
C308 C307 1.338 . S
C308 H312 0.931 . S
C309 N306 1.313 . S
C309 N310 1.344 . S
C309 H313 0.930 . S
N310 C307 1.377 . S
N310 C309 1.344 . S
O311 Co303 2.055 . S
O311 C315 1.253 . S
H312 C308 0.931 . S
H313 C309 0.930 . S
O314 Co303 2.039 . S
O314 C304 1.265 . S
C315 O311 1.253 . S
C315 O316 1.227 . S
O316 C315 1.227 . S
N317 Co303 2.140 . S
N317 C320 1.346 . S
N317 C321 1.345 . S
C318 C319 1.387 . S
C318 C322 1.391 . S
C319 C318 1.387 . S
C319 C320 1.369 . S
C319 H328 0.929 . S
C320 N317 1.346 . S
C320 C319 1.369 . S
C320 H323 0.928 . S
C321 N317 1.345 . S
C321 C322 1.371 . S
C321 H324 0.931 . S
C322 C318 1.391 . S
C322 C321 1.371 . S
C322 H329 0.930 . S
H323 C320 0.928 . S
H324 C321 0.931 . S
H325 C301 0.930 . S
H326 C298 0.930 . S
H327 C307 0.930 . S
H328 C319 0.929 . S
H329 C322 0.930 . S
C330 C331 1.351 . S
C330 N333 1.368 . S
C330 H335 0.931 . S
C331 C330 1.351 . S
C331 N332 1.373 . S
C331 H359 0.930 . S
N332 C331 1.373 . S
N332 C334 1.340 . S
N333 C330 1.368 . S
N333 C334 1.321 . S
N333 Co336 2.135 . S
C334 N332 1.340 . S
C334 N333 1.321 . S
C334 H358 0.930 . S
H335 C330 0.931 . S
Co336 N333 2.135 . S
Co336 N339 2.121 . S
Co336 O344 2.055 . S
Co336 O347 2.039 . S
Co336 N350 2.140 . S
C337 O338 1.227 . S
C337 O347 1.265 . S
O338 C337 1.227 . S
N339 Co336 2.121 . S
N339 C341 1.375 . S
N339 C342 1.313 . S
C340 C341 1.338 . S
C340 N343 1.377 . S
C340 H360 0.930 . S
C341 N339 1.375 . S
C341 C340 1.338 . S
C341 H345 0.931 . S
C342 N339 1.313 . S
C342 N343 1.344 . S
C342 H346 0.930 . S
N343 C340 1.377 . S
N343 C342 1.344 . S
O344 Co336 2.055 . S
O344 C348 1.253 . S
H345 C341 0.931 . S
H346 C342 0.930 . S
O347 Co336 2.039 . S
O347 C337 1.265 . S
C348 O344 1.253 . S
C348 O349 1.227 . S
O349 C348 1.227 . S
N350 Co336 2.140 . S
N350 C353 1.346 . S
N350 C354 1.345 . S
C351 C352 1.387 . S
C351 C355 1.391 . S
C352 C351 1.387 . S
C352 C353 1.369 . S
C352 H361 0.929 . S
C353 N350 1.346 . S
C353 C352 1.369 . S
C353 H356 0.928 . S
C354 N350 1.345 . S
C354 C355 1.371 . S
C354 H357 0.931 . S
C355 C351 1.391 . S
C355 C354 1.371 . S
C355 H362 0.930 . S
H356 C353 0.928 . S
H357 C354 0.931 . S
H358 C334 0.930 . S
H359 C331 0.930 . S
H360 C340 0.930 . S
H361 C352 0.929 . S
H362 C355 0.930 . S
C363 C364 1.351 . S
C363 N366 1.368 . S
C363 H368 0.931 . S
C364 C363 1.351 . S
C364 N365 1.373 . S
C364 H392 0.930 . S
N365 C364 1.373 . S
N365 C367 1.340 . S
N366 C363 1.368 . S
N366 C367 1.321 . S
N366 Co369 2.135 . S
C367 N365 1.340 . S
C367 N366 1.321 . S
C367 H391 0.930 . S
H368 C363 0.931 . S
Co369 N366 2.135 . S
Co369 N372 2.121 . S
Co369 O377 2.055 . S
Co369 O380 2.039 . S
Co369 N383 2.140 . S
C370 O371 1.227 . S
C370 O380 1.265 . S
O371 C370 1.227 . S
N372 Co369 2.121 . S
N372 C374 1.375 . S
N372 C375 1.313 . S
C373 C374 1.338 . S
C373 N376 1.377 . S
C373 H393 0.930 . S
C374 N372 1.375 . S
C374 C373 1.338 . S
C374 H378 0.931 . S
C375 N372 1.313 . S
C375 N376 1.344 . S
C375 H379 0.930 . S
N376 C373 1.377 . S
N376 C375 1.344 . S
O377 Co369 2.055 . S
O377 C381 1.253 . S
H378 C374 0.931 . S
H379 C375 0.930 . S
O380 Co369 2.039 . S
O380 C370 1.265 . S
C381 O377 1.253 . S
C381 O382 1.227 . S
O382 C381 1.227 . S
N383 Co369 2.140 . S
N383 C386 1.346 . S
N383 C387 1.345 . S
C384 C385 1.387 . S
C384 C388 1.391 . S
C385 C384 1.387 . S
C385 C386 1.369 . S
C385 H394 0.929 . S
C386 N383 1.346 . S
C386 C385 1.369 . S
C386 H389 0.928 . S
C387 N383 1.345 . S
C387 C388 1.371 . S
C387 H390 0.931 . S
C388 C384 1.391 . S
C388 C387 1.371 . S
C388 H395 0.930 . S
H389 C386 0.928 . S
H390 C387 0.931 . S
H391 C367 0.930 . S
H392 C364 0.930 . S
H393 C373 0.930 . S
H394 C385 0.929 . S
H395 C388 0.930 . S
C396 C397 1.351 . S
C396 N399 1.368 . S
C396 H401 0.931 . S
C397 C396 1.351 . S
C397 N398 1.373 . S
C397 H425 0.930 . S
N398 C397 1.373 . S
N398 C400 1.340 . S
N399 C396 1.368 . S
N399 C400 1.321 . S
N399 Co402 2.135 . S
C400 N398 1.340 . S
C400 N399 1.321 . S
C400 H424 0.930 . S
H401 C396 0.931 . S
Co402 N399 2.135 . S
Co402 N405 2.121 . S
Co402 O410 2.055 . S
Co402 O413 2.039 . S
Co402 N416 2.140 . S
C403 O404 1.227 . S
C403 O413 1.265 . S
O404 C403 1.227 . S
N405 Co402 2.121 . S
N405 C407 1.375 . S
N405 C408 1.313 . S
C406 C407 1.338 . S
C406 N409 1.377 . S
C406 H426 0.930 . S
C407 N405 1.375 . S
C407 C406 1.338 . S
C407 H411 0.931 . S
C408 N405 1.313 . S
C408 N409 1.344 . S
C408 H412 0.930 . S
N409 C406 1.377 . S
N409 C408 1.344 . S
O410 Co402 2.055 . S
O410 C414 1.253 . S
H411 C407 0.931 . S
H412 C408 0.930 . S
O413 Co402 2.039 . S
O413 C403 1.265 . S
C414 O410 1.253 . S
C414 O415 1.227 . S
O415 C414 1.227 . S
N416 Co402 2.140 . S
N416 C419 1.346 . S
N416 C420 1.345 . S
C417 C418 1.387 . S
C417 C421 1.391 . S
C418 C417 1.387 . S
C418 C419 1.369 . S
C418 H427 0.929 . S
C419 N416 1.346 . S
C419 C418 1.369 . S
C419 H422 0.928 . S
C420 N416 1.345 . S
C420 C421 1.371 . S
C420 H423 0.931 . S
C421 C417 1.391 . S
C421 C420 1.371 . S
C421 H428 0.930 . S
H422 C419 0.928 . S
H423 C420 0.931 . S
H424 C400 0.930 . S
H425 C397 0.930 . S
H426 C406 0.930 . S
H427 C418 0.929 . S
H428 C421 0.930 . S
C429 C430 1.351 . S
C429 N432 1.368 . S
C429 H434 0.931 . S
C430 C429 1.351 . S
C430 N431 1.373 . S
C430 H458 0.930 . S
N431 C430 1.373 . S
N431 C433 1.340 . S
N432 C429 1.368 . S
N432 C433 1.321 . S
N432 Co435 2.135 . S
C433 N431 1.340 . S
C433 N432 1.321 . S
C433 H457 0.930 . S
H434 C429 0.931 . S
Co435 N432 2.135 . S
Co435 N438 2.121 . S
Co435 O443 2.055 . S
Co435 O446 2.039 . S
Co435 N449 2.140 . S
C436 O437 1.227 . S
C436 O446 1.265 . S
O437 C436 1.227 . S
N438 Co435 2.121 . S
N438 C440 1.375 . S
N438 C441 1.313 . S
C439 C440 1.338 . S
C439 N442 1.377 . S
C439 H459 0.930 . S
C440 N438 1.375 . S
C440 C439 1.338 . S
C440 H444 0.931 . S
C441 N438 1.313 . S
C441 N442 1.344 . S
C441 H445 0.930 . S
N442 C439 1.377 . S
N442 C441 1.344 . S
O443 Co435 2.055 . S
O443 C447 1.253 . S
H444 C440 0.931 . S
H445 C441 0.930 . S
O446 Co435 2.039 . S
O446 C436 1.265 . S
C447 O443 1.253 . S
C447 O448 1.227 . S
O448 C447 1.227 . S
N449 Co435 2.140 . S
N449 C452 1.346 . S
N449 C453 1.345 . S
C450 C451 1.387 . S
C450 C454 1.391 . S
C451 C450 1.387 . S
C451 C452 1.369 . S
C451 H460 0.929 . S
C452 N449 1.346 . S
C452 C451 1.369 . S
C452 H455 0.928 . S
C453 N449 1.345 . S
C453 C454 1.371 . S
C453 H456 0.931 . S
C454 C450 1.391 . S
C454 C453 1.371 . S
C454 H461 0.930 . S
H455 C452 0.928 . S
H456 C453 0.931 . S
H457 C433 0.930 . S
H458 C430 0.930 . S
H459 C439 0.930 . S
H460 C451 0.929 . S
H461 C454 0.930 . S
C462 C463 1.351 . S
C462 N465 1.368 . S
C462 H467 0.931 . S
C463 C462 1.351 . S
C463 N464 1.373 . S
C463 H491 0.930 . S
N464 C463 1.373 . S
N464 C466 1.340 . S
N465 C462 1.368 . S
N465 C466 1.321 . S
N465 Co468 2.135 . S
C466 N464 1.340 . S
C466 N465 1.321 . S
C466 H490 0.930 . S
H467 C462 0.931 . S
Co468 N465 2.135 . S
Co468 N471 2.121 . S
Co468 O476 2.055 . S
Co468 O479 2.039 . S
Co468 N482 2.140 . S
C469 O470 1.227 . S
C469 O479 1.265 . S
O470 C469 1.227 . S
N471 Co468 2.121 . S
N471 C473 1.375 . S
N471 C474 1.313 . S
C472 C473 1.338 . S
C472 N475 1.377 . S
C472 H492 0.930 . S
C473 N471 1.375 . S
C473 C472 1.338 . S
C473 H477 0.931 . S
C474 N471 1.313 . S
C474 N475 1.344 . S
C474 H478 0.930 . S
N475 C472 1.377 . S
N475 C474 1.344 . S
O476 Co468 2.055 . S
O476 C480 1.253 . S
H477 C473 0.931 . S
H478 C474 0.930 . S
O479 Co468 2.039 . S
O479 C469 1.265 . S
C480 O476 1.253 . S
C480 O481 1.227 . S
O481 C480 1.227 . S
N482 Co468 2.140 . S
N482 C485 1.346 . S
N482 C486 1.345 . S
C483 C484 1.387 . S
C483 C487 1.391 . S
C484 C483 1.387 . S
C484 C485 1.369 . S
C484 H493 0.929 . S
C485 N482 1.346 . S
C485 C484 1.369 . S
C485 H488 0.928 . S
C486 N482 1.345 . S
C486 C487 1.371 . S
C486 H489 0.931 . S
C487 C483 1.391 . S
C487 C486 1.371 . S
C487 H494 0.930 . S
H488 C485 0.928 . S
H489 C486 0.931 . S
H490 C466 0.930 . S
H491 C463 0.930 . S
H492 C472 0.930 . S
H493 C484 0.929 . S
H494 C487 0.930 . S
C495 C496 1.351 . S
C495 N498 1.368 . S
C495 H500 0.931 . S
C496 C495 1.351 . S
C496 N497 1.373 . S
C496 H524 0.930 . S
N497 C496 1.373 . S
N497 C499 1.340 . S
N498 C495 1.368 . S
N498 C499 1.321 . S
N498 Co501 2.135 . S
C499 N497 1.340 . S
C499 N498 1.321 . S
C499 H523 0.930 . S
H500 C495 0.931 . S
Co501 N498 2.135 . S
Co501 N504 2.121 . S
Co501 O509 2.055 . S
Co501 O512 2.039 . S
Co501 N515 2.140 . S
C502 O503 1.227 . S
C502 O512 1.265 . S
O503 C502 1.227 . S
N504 Co501 2.121 . S
N504 C506 1.375 . S
N504 C507 1.313 . S
C505 C506 1.338 . S
C505 N508 1.377 . S
C505 H525 0.930 . S
C506 N504 1.375 . S
C506 C505 1.338 . S
C506 H510 0.931 . S
C507 N504 1.313 . S
C507 N508 1.344 . S
C507 H511 0.930 . S
N508 C505 1.377 . S
N508 C507 1.344 . S
O509 Co501 2.055 . S
O509 C513 1.253 . S
H510 C506 0.931 . S
H511 C507 0.930 . S
O512 Co501 2.039 . S
O512 C502 1.265 . S
C513 O509 1.253 . S
C513 O514 1.227 . S
O514 C513 1.227 . S
N515 Co501 2.140 . S
N515 C518 1.346 . S
N515 C519 1.345 . S
C516 C517 1.387 . S
C516 C520 1.391 . S
C517 C516 1.387 . S
C517 C518 1.369 . S
C517 H526 0.929 . S
C518 N515 1.346 . S
C518 C517 1.369 . S
C518 H521 0.928 . S
C519 N515 1.345 . S
C519 C520 1.371 . S
C519 H522 0.931 . S
C520 C516 1.391 . S
C520 C519 1.371 . S
C520 H527 0.930 . S
H521 C518 0.928 . S
H522 C519 0.931 . S
H523 C499 0.930 . S
H524 C496 0.930 . S
H525 C505 0.930 . S
H526 C517 0.929 . S
H527 C520 0.930 . S
H528 C536 0.950 . S
H529 C541 0.950 . S
H530 C538 0.950 . S
H531 C540 0.950 . S
H532 C542 0.950 . S
H533 C544 0.950 . S
H534 C546 0.950 . S
H535 C547 0.950 . S
C536 H528 0.950 . S
C536 C537 1.386 . S
C536 C538 1.391 . S
C537 C536 1.386 . S
C537 C541 1.393 . S
C538 H530 0.950 . S
C538 C536 1.391 . S
C538 C539 1.400 . S
C539 C538 1.400 . S
C539 C540 1.398 . S
C539 C545 1.491 . S
C540 H531 0.950 . S
C540 C539 1.398 . S
C540 C541 1.391 . S
C541 H529 0.950 . S
C541 C537 1.393 . S
C541 C540 1.391 . S
C542 H532 0.950 . S
C542 C543 1.386 . S
C542 C544 1.391 . S
C543 C542 1.386 . S
C543 C547 1.393 . S
C544 H533 0.950 . S
C544 C542 1.391 . S
C544 C545 1.400 . S
C545 C539 1.491 . S
C545 C544 1.400 . S
C545 C546 1.398 . S
C546 H534 0.950 . S
C546 C545 1.398 . S
C546 C547 1.391 . S
C547 H535 0.950 . S
C547 C543 1.393 . S
C547 C546 1.391 . S
H548 C556 0.950 1_455 S
H549 C561 0.950 . S
H550 C558 0.950 . S
H551 C560 0.950 . S
H552 C562 0.950 . S
H553 C564 0.950 1_655 S
H554 C566 0.950 . S
H555 C567 0.950 . S
C556 H548 0.950 1_655 S
C556 C557 1.386 . S
C556 C558 1.391 1_655 S
C557 C556 1.386 . S
C557 C561 1.393 . S
C558 H550 0.950 . S
C558 C556 1.391 1_455 S
C558 C559 1.400 . S
C559 C558 1.400 . S
C559 C560 1.398 1_455 S
C559 C565 1.491 . S
C560 H551 0.950 . S
C560 C559 1.398 1_655 S
C560 C561 1.391 . S
C561 H549 0.950 . S
C561 C557 1.393 . S
C561 C560 1.391 . S
C562 H552 0.950 . S
C562 C563 1.386 . S
C562 C564 1.391 . S
C563 C562 1.386 . S
C563 C567 1.393 . S
C564 H553 0.950 1_455 S
C564 C562 1.391 . S
C564 C565 1.400 1_565 S
C565 C559 1.491 . S
C565 C564 1.400 1_545 S
C565 C566 1.398 . S
C566 H554 0.950 . S
C566 C565 1.398 . S
C566 C567 1.391 1_545 S
C567 H555 0.950 . S
C567 C563 1.393 . S
C567 C566 1.391 1_565 S
H568 C576 0.950 . S
H569 C581 0.950 . S
H570 C578 0.950 . S
H571 C580 0.950 . S
H572 C582 0.950 . S
H573 C584 0.950 . S
H574 C586 0.950 . S
H575 C587 0.950 . S
C576 H568 0.950 . S
C576 C577 1.386 . S
C576 C578 1.391 . S
C577 C576 1.386 . S
C577 C581 1.393 . S
C578 H570 0.950 . S
C578 C576 1.391 . S
C578 C579 1.400 . S
C579 C578 1.400 . S
C579 C580 1.398 . S
C579 C585 1.491 . S
C580 H571 0.950 . S
C580 C579 1.398 . S
C580 C581 1.391 . S
C581 H569 0.950 . S
C581 C577 1.393 . S
C581 C580 1.391 . S
C582 H572 0.950 . S
C582 C583 1.386 . S
C582 C584 1.391 . S
C583 C582 1.386 . S
C583 C587 1.393 . S
C584 H573 0.950 . S
C584 C582 1.391 . S
C584 C585 1.400 . S
C585 C579 1.491 . S
C585 C584 1.400 . S
C585 C586 1.398 . S
C586 H574 0.950 . S
C586 C585 1.398 . S
C586 C587 1.391 . S
C587 H575 0.950 . S
C587 C583 1.393 . S
C587 C586 1.391 . S
H588 C596 0.950 . S
H589 C601 0.950 . S
H590 C598 0.931 1_554 S
H591 C600 0.950 . S
H592 C602 0.950 . S
H593 C604 0.950 1_545 S
H594 C606 0.950 . S
H595 C607 0.950 . S
C596 H588 0.950 . S
C596 C597 1.386 1_565 S
C596 C598 1.409 . S
C597 C596 1.386 1_545 S
C597 C601 1.393 . S
C598 H590 0.931 1_556 S
C598 C596 1.409 . S
C598 C599 1.400 . S
C599 C598 1.400 . S
C599 C600 1.420 1_565 S
C599 C605 1.472 1_556 S
C600 H591 0.950 . S
C600 C599 1.420 1_545 S
C600 C601 1.391 . S
C601 H589 0.950 . S
C601 C597 1.393 . S
C601 C600 1.391 . S
C602 H592 0.950 . S
C602 C603 1.386 . S
C602 C604 1.391 . S
C603 C602 1.386 . S
C603 C607 1.393 . S
C604 H593 0.950 1_565 S
C604 C602 1.391 . S
C604 C605 1.400 . S
C605 C599 1.472 1_554 S
C605 C604 1.400 . S
C605 C606 1.398 . S
C606 H594 0.950 . S
C606 C605 1.398 . S
C606 C607 1.391 . S
C607 H595 0.950 . S
C607 C603 1.393 . S
C607 C606 1.391 . S
H608 C616 0.950 . S
H609 C621 0.950 . S
H610 C618 0.950 . S
H611 C620 0.950 . S
H612 C622 0.950 . S
H613 C624 0.950 . S
H614 C626 0.950 . S
H615 C627 0.950 . S
C616 H608 0.950 . S
C616 C617 1.386 . S
C616 C618 1.391 . S
C617 C616 1.386 . S
C617 C621 1.393 . S
C618 H610 0.950 . S
C618 C616 1.391 . S
C618 C619 1.400 . S
C619 C618 1.400 . S
C619 C620 1.398 . S
C619 C625 1.491 . S
C620 H611 0.950 . S
C620 C619 1.398 . S
C620 C621 1.391 . S
C621 H609 0.950 . S
C621 C617 1.393 . S
C621 C620 1.391 . S
C622 H612 0.950 . S
C622 C623 1.386 . S
C622 C624 1.391 . S
C623 C622 1.386 . S
C623 C627 1.393 . S
C624 H613 0.950 . S
C624 C622 1.391 . S
C624 C625 1.400 . S
C625 C619 1.491 . S
C625 C624 1.400 . S
C625 C626 1.398 . S
C626 H614 0.950 . S
C626 C625 1.398 . S
C626 C627 1.391 . S
C627 H615 0.950 . S
C627 C623 1.393 . S
C627 C626 1.391 . S
H628 C636 0.950 . S
H629 C641 0.950 . S
H630 C638 0.950 . S
H631 C640 0.950 1_545 S
H632 C642 0.950 . S
H633 C644 0.950 . S
H634 C646 0.950 . S
H635 C647 0.953 . S
C636 H628 0.950 . S
C636 C637 1.386 . S
C636 C638 1.391 . S
C637 C636 1.386 . S
C637 C641 1.393 . S
C638 H630 0.950 . S
C638 C636 1.391 . S
C638 C639 1.400 . S
C639 C638 1.400 . S
C639 C640 1.398 . S
C639 C645 1.502 . S
C640 H631 0.950 1_565 S
C640 C639 1.398 . S
C640 C641 1.391 . S
C641 H629 0.950 . S
C641 C637 1.393 . S
C641 C640 1.391 . S
C642 H632 0.950 . S
C642 C643 1.386 . S
C642 C644 1.391 . S
C643 C642 1.386 . S
C643 C647 1.393 . S
C644 H633 0.950 . S
C644 C642 1.391 . S
C644 C645 1.381 1_545 S
C645 C639 1.502 . S
C645 C644 1.381 1_565 S
C645 C646 1.406 . S
C646 H634 0.950 . S
C646 C645 1.406 . S
C646 C647 1.391 1_565 S
C647 H635 0.953 . S
C647 C643 1.393 . S
C647 C646 1.391 1_545 S
H648 C656 0.950 . S
H649 C661 0.950 . S
H650 C658 0.950 . S
H651 C660 0.950 . S
H652 C662 0.950 . S
H653 C664 0.950 . S
H654 C666 0.950 . S
H655 C667 0.950 . S
C656 H648 0.950 . S
C656 C657 1.386 . S
C656 C658 1.391 . S
C657 C656 1.386 . S
C657 C661 1.393 . S
C658 H650 0.950 . S
C658 C656 1.391 . S
C658 C659 1.400 . S
C659 C658 1.400 . S
C659 C660 1.398 . S
C659 C665 1.491 . S
C660 H651 0.950 . S
C660 C659 1.398 . S
C660 C661 1.391 . S
C661 H649 0.950 . S
C661 C657 1.393 . S
C661 C660 1.391 . S
C662 H652 0.950 . S
C662 C663 1.386 . S
C662 C664 1.391 . S
C663 C662 1.386 . S
C663 C667 1.393 . S
C664 H653 0.950 . S
C664 C662 1.391 . S
C664 C665 1.400 . S
C665 C659 1.491 . S
C665 C664 1.400 . S
C665 C666 1.398 . S
C666 H654 0.950 . S
C666 C665 1.398 . S
C666 C667 1.391 . S
C667 H655 0.950 . S
C667 C663 1.393 . S
C667 C666 1.391 . S
H668 C676 0.962 . S
H669 C681 0.950 . S
H670 C678 0.950 . S
H671 C680 0.968 . S
H672 C682 0.950 . S
H673 C684 0.950 1_455 S
H674 C686 0.950 1_554 S
H675 C687 0.950 . S
C676 H668 0.962 . S
C676 C677 1.386 . S
C676 C678 1.391 1_455 S
C677 C676 1.386 . S
C677 C681 1.393 . S
C678 H670 0.950 . S
C678 C676 1.391 1_655 S
C678 C679 1.400 . S
C679 C678 1.400 . S
C679 C680 1.395 1_654 S
C679 C685 1.491 1_554 S
C680 H671 0.968 . S
C680 C679 1.395 1_456 S
C680 C681 1.377 1_556 S
C681 H669 0.950 . S
C681 C677 1.393 . S
C681 C680 1.377 1_554 S
C682 H672 0.950 . S
C682 C683 1.386 . S
C682 C684 1.391 . S
C683 C682 1.386 . S
C683 C687 1.393 . S
C684 H673 0.950 1_655 S
C684 C682 1.391 . S
C684 C685 1.400 1_565 S
C685 C679 1.491 1_556 S
C685 C684 1.400 1_545 S
C685 C686 1.398 . S
C686 H674 0.950 1_556 S
C686 C685 1.398 . S
C686 C687 1.391 1_545 S
C687 H675 0.950 . S
C687 C683 1.393 . S
C687 C686 1.391 1_565 S
H688 C696 0.950 . S
H689 C701 0.950 . S
H690 C698 0.950 . S
H691 C700 0.950 . S
H692 C702 0.950 . S
H693 C704 0.950 . S
H694 C706 0.950 . S
H695 C707 0.950 . S
C696 H688 0.950 . S
C696 C697 1.386 . S
C696 C698 1.391 . S
C697 C696 1.386 . S
C697 C701 1.393 . S
C698 H690 0.950 . S
C698 C696 1.391 . S
C698 C699 1.400 . S
C699 C698 1.400 . S
C699 C700 1.398 . S
C699 C705 1.491 . S
C700 H691 0.950 . S
C700 C699 1.398 . S
C700 C701 1.391 . S
C701 H689 0.950 . S
C701 C697 1.393 . S
C701 C700 1.391 . S
C702 H692 0.950 . S
C702 C703 1.386 . S
C702 C704 1.391 . S
C703 C702 1.386 . S
C703 C707 1.393 . S
C704 H693 0.950 . S
C704 C702 1.391 . S
C704 C705 1.400 . S
C705 C699 1.491 . S
C705 C704 1.400 . S
C705 C706 1.398 . S
C706 H694 0.950 . S
C706 C705 1.398 . S
C706 C707 1.391 . S
C707 H695 0.950 . S
C707 C703 1.393 . S
C707 C706 1.391 . S
H708 C716 0.950 . S
H709 C721 0.950 . S
H710 C718 0.950 . S
H711 C720 0.950 . S
H712 C722 0.950 . S
H713 C724 0.964 . S
H714 C726 0.950 . S
H715 C727 0.950 . S
C716 H708 0.950 . S
C716 C717 1.386 . S
C716 C718 1.391 1_556 S
C717 C716 1.386 . S
C717 C721 1.393 . S
C718 H710 0.950 . S
C718 C716 1.391 1_554 S
C718 C719 1.400 . S
C719 C718 1.400 . S
C719 C720 1.398 1_554 S
C719 C725 1.491 . S
C720 H711 0.950 . S
C720 C719 1.398 1_556 S
C720 C721 1.391 . S
C721 H709 0.950 . S
C721 C717 1.393 . S
C721 C720 1.391 . S
C722 H712 0.950 . S
C722 C723 1.386 . S
C722 C724 1.391 1_655 S
C723 C722 1.386 . S
C723 C727 1.393 . S
C724 H713 0.964 . S
C724 C722 1.391 1_455 S
C724 C725 1.400 . S
C725 C719 1.491 . S
C725 C724 1.400 . S
C725 C726 1.398 . S
C726 H714 0.950 . S
C726 C725 1.398 . S
C726 C727 1.391 1_455 S
C727 H715 0.950 . S
C727 C723 1.393 . S
C727 C726 1.391 1_655 S
H728 C736 0.950 . S
H729 C741 0.950 . S
H730 C738 0.950 . S
H731 C740 0.950 . S
H732 C742 0.950 . S
H733 C744 0.950 . S
H734 C746 0.950 . S
H735 C747 0.950 . S
C736 H728 0.950 . S
C736 C737 1.386 . S
C736 C738 1.391 . S
C737 C736 1.386 . S
C737 C741 1.393 . S
C738 H730 0.950 . S
C738 C736 1.391 . S
C738 C739 1.400 . S
C739 C738 1.400 . S
C739 C740 1.398 . S
C739 C745 1.491 . S
C740 H731 0.950 . S
C740 C739 1.398 . S
C740 C741 1.391 . S
C741 H729 0.950 . S
C741 C737 1.393 . S
C741 C740 1.391 . S
C742 H732 0.950 . S
C742 C743 1.386 . S
C742 C744 1.391 . S
C743 C742 1.386 . S
C743 C747 1.393 . S
C744 H733 0.950 . S
C744 C742 1.391 . S
C744 C745 1.400 . S
C745 C739 1.491 . S
C745 C744 1.400 . S
C745 C746 1.398 . S
C746 H734 0.950 . S
C746 C745 1.398 . S
C746 C747 1.391 . S
C747 H735 0.950 . S
C747 C743 1.393 . S
C747 C746 1.391 . S
H748 C756 0.950 . S
H749 C761 0.950 . S
H750 C758 0.950 . S
H751 C760 0.950 . S
H752 C762 0.950 . S
H753 C764 0.936 1_655 S
H754 C766 0.950 . S
H755 C767 0.950 . S
C756 H748 0.950 . S
C756 C757 1.386 . S
C756 C758 1.391 . S
C757 C756 1.386 . S
C757 C761 1.393 . S
C758 H750 0.950 . S
C758 C756 1.391 . S
C758 C759 1.400 . S
C759 C758 1.400 . S
C759 C760 1.398 . S
C759 C765 1.491 . S
C760 H751 0.950 . S
C760 C759 1.398 . S
C760 C761 1.391 . S
C761 H749 0.950 . S
C761 C757 1.393 . S
C761 C760 1.391 . S
C762 H752 0.950 . S
C762 C763 1.386 . S
C762 C764 1.411 . S
C763 C762 1.386 . S
C763 C767 1.393 . S
C764 H753 0.936 1_455 S
C764 C762 1.411 . S
C764 C765 1.394 1_455 S
C765 C759 1.491 . S
C765 C764 1.394 1_655 S
C765 C766 1.398 1_655 S
C766 H754 0.950 . S
C766 C765 1.398 1_455 S
C766 C767 1.391 . S
C767 H755 0.950 . S
C767 C763 1.393 . S
C767 C766 1.391 . S
H768 C776 0.950 . S
H769 C781 0.950 . S
H770 C778 0.950 . S
H771 C780 0.950 1_554 S
H772 C782 0.950 . S
H773 C784 0.950 . S
H774 C786 0.950 . S
H775 C787 0.950 1_556 S
C776 H768 0.950 . S
C776 C777 1.386 . S
C776 C778 1.391 . S
C777 C776 1.386 . S
C777 C781 1.393 . S
C778 H770 0.950 . S
C778 C776 1.391 . S
C778 C779 1.400 . S
C779 C778 1.400 . S
C779 C780 1.398 . S
C779 C785 1.512 . S
C780 H771 0.950 1_556 S
C780 C779 1.398 . S
C780 C781 1.391 . S
C781 H769 0.950 . S
C781 C777 1.393 . S
C781 C780 1.391 . S
C782 H772 0.950 . S
C782 C783 1.386 . S
C782 C784 1.391 . S
C783 C782 1.386 . S
C783 C787 1.393 . S
C784 H773 0.950 . S
C784 C782 1.391 . S
C784 C785 1.363 1_554 S
C785 C779 1.512 . S
C785 C784 1.363 1_556 S
C785 C786 1.413 . S
C786 H774 0.950 . S
C786 C785 1.413 . S
C786 C787 1.391 1_556 S
C787 H775 0.950 1_554 S
C787 C783 1.393 . S
C787 C786 1.391 1_554 S
H788 C796 0.950 . S
H789 C801 0.950 . S
H790 C798 0.950 . S
H791 C800 0.950 . S
H792 C802 0.950 . S
H793 C804 0.950 . S
H794 C806 0.950 . S
H795 C807 0.950 . S
C796 H788 0.950 . S
C796 C797 1.386 . S
C796 C798 1.391 . S
C797 C796 1.386 . S
C797 C801 1.393 . S
C798 H790 0.950 . S
C798 C796 1.391 . S
C798 C799 1.400 . S
C799 C798 1.400 . S
C799 C800 1.398 . S
C799 C805 1.491 . S
C800 H791 0.950 . S
C800 C799 1.398 . S
C800 C801 1.391 . S
C801 H789 0.950 . S
C801 C797 1.393 . S
C801 C800 1.391 . S
C802 H792 0.950 . S
C802 C803 1.386 . S
C802 C804 1.391 . S
C803 C802 1.386 . S
C803 C807 1.393 . S
C804 H793 0.950 . S
C804 C802 1.391 . S
C804 C805 1.400 . S
C805 C799 1.491 . S
C805 C804 1.400 . S
C805 C806 1.398 . S
C806 H794 0.950 . S
C806 C805 1.398 . S
C806 C807 1.391 . S
C807 H795 0.950 . S
C807 C803 1.393 . S
C807 C806 1.391 . S
H808 C816 0.950 . S
H809 C821 0.950 . S
H810 C818 0.950 . S
H811 C820 0.950 . S
H812 C822 0.950 . S
H813 C824 0.950 . S
H814 C826 0.950 . S
H815 C827 0.950 . S
C816 H808 0.950 . S
C816 C817 1.386 . S
C816 C818 1.391 . S
C817 C816 1.386 . S
C817 C821 1.393 . S
C818 H810 0.950 . S
C818 C816 1.391 . S
C818 C819 1.400 . S
C819 C818 1.400 . S
C819 C820 1.398 . S
C819 C825 1.491 . S
C820 H811 0.950 . S
C820 C819 1.398 . S
C820 C821 1.391 . S
C821 H809 0.950 . S
C821 C817 1.393 . S
C821 C820 1.391 . S
C822 H812 0.950 . S
C822 C823 1.386 . S
C822 C824 1.391 . S
C823 C822 1.386 . S
C823 C827 1.393 . S
C824 H813 0.950 . S
C824 C822 1.391 . S
C824 C825 1.400 . S
C825 C819 1.491 . S
C825 C824 1.400 . S
C825 C826 1.398 . S
C826 H814 0.950 . S
C826 C825 1.398 . S
C826 C827 1.391 . S
C827 H815 0.950 . S
C827 C823 1.393 . S
C827 C826 1.391 . S
H828 C836 0.950 . S
H829 C841 0.950 . S
H830 C838 0.950 . S
H831 C840 0.950 . S
H832 C842 0.950 . S
H833 C844 0.950 . S
H834 C846 0.950 . S
H835 C847 0.950 . S
C836 H828 0.950 . S
C836 C837 1.386 . S
C836 C838 1.391 . S
C837 C836 1.386 . S
C837 C841 1.393 . S
C838 H830 0.950 . S
C838 C836 1.391 . S
C838 C839 1.400 . S
C839 C838 1.400 . S
C839 C840 1.398 . S
C839 C845 1.491 . S
C840 H831 0.950 . S
C840 C839 1.398 . S
C840 C841 1.391 . S
C841 H829 0.950 . S
C841 C837 1.393 . S
C841 C840 1.391 . S
C842 H832 0.950 . S
C842 C843 1.386 . S
C842 C844 1.391 . S
C843 C842 1.386 . S
C843 C847 1.393 . S
C844 H833 0.950 . S
C844 C842 1.391 . S
C844 C845 1.400 . S
C845 C839 1.491 . S
C845 C844 1.400 . S
C845 C846 1.398 . S
C846 H834 0.950 . S
C846 C845 1.398 . S
C846 C847 1.391 . S
C847 H835 0.950 . S
C847 C843 1.393 . S
C847 C846 1.391 . S
H848 C856 0.950 . S
H849 C861 0.950 . S
H850 C858 0.950 1_565 S
H851 C860 0.950 . S
H852 C862 0.950 . S
H853 C864 0.950 1_545 S
H854 C866 0.950 . S
H855 C867 0.950 . S
C856 H848 0.950 . S
C856 C857 1.386 . S
C856 C858 1.391 . S
C857 C856 1.386 . S
C857 C861 1.393 . S
C858 H850 0.950 1_545 S
C858 C856 1.391 . S
C858 C859 1.400 . S
C859 C858 1.400 . S
C859 C860 1.398 . S
C859 C865 1.491 1_545 S
C860 H851 0.950 . S
C860 C859 1.398 . S
C860 C861 1.391 . S
C861 H849 0.950 . S
C861 C857 1.393 . S
C861 C860 1.391 . S
C862 H852 0.950 . S
C862 C863 1.386 . S
C862 C864 1.391 . S
C863 C862 1.386 . S
C863 C867 1.393 . S
C864 H853 0.950 1_565 S
C864 C862 1.391 . S
C864 C865 1.400 . S
C865 C859 1.491 1_565 S
C865 C864 1.400 . S
C865 C866 1.398 . S
C866 H854 0.950 . S
C866 C865 1.398 . S
C866 C867 1.391 . S
C867 H855 0.950 . S
C867 C863 1.393 . S
C867 C866 1.391 . S
H868 C876 0.950 . S
H869 C881 0.950 . S
H870 C878 0.950 . S
H871 C880 0.950 . S
H872 C882 0.950 . S
H873 C884 0.950 . S
H874 C886 0.950 . S
H875 C887 0.950 . S
C876 H868 0.950 . S
C876 C877 1.386 . S
C876 C878 1.391 . S
C877 C876 1.386 . S
C877 C881 1.393 . S
C878 H870 0.950 . S
C878 C876 1.391 . S
C878 C879 1.400 . S
C879 C878 1.400 . S
C879 C880 1.398 . S
C879 C885 1.491 . S
C880 H871 0.950 . S
C880 C879 1.398 . S
C880 C881 1.391 . S
C881 H869 0.950 . S
C881 C877 1.393 . S
C881 C880 1.391 . S
C882 H872 0.950 . S
C882 C883 1.386 . S
C882 C884 1.391 . S
C883 C882 1.386 . S
C883 C887 1.393 . S
C884 H873 0.950 . S
C884 C882 1.391 . S
C884 C885 1.400 . S
C885 C879 1.491 . S
C885 C884 1.400 . S
C885 C886 1.398 . S
C886 H874 0.950 . S
C886 C885 1.398 . S
C886 C887 1.391 . S
C887 H875 0.950 . S
C887 C883 1.393 . S
C887 C886 1.391 . S
H888 C896 0.950 . S
H889 C901 0.950 . S
H890 C898 0.950 . S
H891 C900 0.950 . S
H892 C902 0.950 . S
H893 C904 0.950 . S
H894 C906 0.950 1_565 S
H895 C907 0.950 . S
C896 H888 0.950 . S
C896 C897 1.386 . S
C896 C898 1.391 . S
C897 C896 1.386 . S
C897 C901 1.393 . S
C898 H890 0.950 . S
C898 C896 1.391 . S
C898 C899 1.400 . S
C899 C898 1.400 . S
C899 C900 1.398 . S
C899 C905 1.491 . S
C900 H891 0.950 . S
C900 C899 1.398 . S
C900 C901 1.391 . S
C901 H889 0.950 . S
C901 C897 1.393 . S
C901 C900 1.391 . S
C902 H892 0.950 . S
C902 C903 1.386 . S
C902 C904 1.391 . S
C903 C902 1.386 . S
C903 C907 1.393 . S
C904 H893 0.950 . S
C904 C902 1.391 . S
C904 C905 1.400 1_545 S
C905 C899 1.491 . S
C905 C904 1.400 1_565 S
C905 C906 1.398 1_565 S
C906 H894 0.950 1_545 S
C906 C905 1.398 1_545 S
C906 C907 1.391 . S
C907 H895 0.950 . S
C907 C903 1.393 . S
C907 C906 1.391 . S
H908 C916 0.950 . S
H909 C921 0.950 . S
H910 C918 0.950 . S
H911 C920 0.950 . S
H912 C922 0.950 . S
H913 C924 0.950 . S
H914 C926 0.950 . S
H915 C927 0.950 . S
C916 H908 0.950 . S
C916 C917 1.386 . S
C916 C918 1.391 . S
C917 C916 1.386 . S
C917 C921 1.393 . S
C918 H910 0.950 . S
C918 C916 1.391 . S
C918 C919 1.400 . S
C919 C918 1.400 . S
C919 C920 1.398 . S
C919 C925 1.491 1_556 S
C920 H911 0.950 . S
C920 C919 1.398 . S
C920 C921 1.391 . S
C921 H909 0.950 . S
C921 C917 1.393 . S
C921 C920 1.391 . S
C922 H912 0.950 . S
C922 C923 1.386 . S
C922 C924 1.391 . S
C923 C922 1.386 . S
C923 C927 1.393 . S
C924 H913 0.950 . S
C924 C922 1.391 . S
C924 C925 1.400 . S
C925 C919 1.491 1_554 S
C925 C924 1.400 . S
C925 C926 1.398 . S
C926 H914 0.950 . S
C926 C925 1.398 . S
C926 C927 1.391 . S
C927 H915 0.950 . S
C927 C923 1.393 . S
C927 C926 1.391 . S
H928 C936 0.950 . S
H929 C941 0.950 . S
H930 C938 0.950 1_655 S
H931 C940 0.950 . S
H932 C942 0.950 . S
H933 C944 0.950 . S
H934 C946 0.950 . S
H935 C947 0.950 . S
C936 H928 0.950 . S
C936 C937 1.386 . S
C936 C938 1.391 . S
C937 C936 1.386 . S
C937 C941 1.393 . S
C938 H930 0.950 1_455 S
C938 C936 1.391 . S
C938 C939 1.400 . S
C939 C938 1.400 . S
C939 C940 1.398 . S
C939 C945 1.491 1_455 S
C940 H931 0.950 . S
C940 C939 1.398 . S
C940 C941 1.391 . S
C941 H929 0.950 . S
C941 C937 1.393 . S
C941 C940 1.391 . S
C942 H932 0.950 . S
C942 C943 1.386 . S
C942 C944 1.391 1_655 S
C943 C942 1.386 . S
C943 C947 1.393 . S
C944 H933 0.950 . S
C944 C942 1.391 1_455 S
C944 C945 1.400 1_455 S
C945 C939 1.491 1_655 S
C945 C944 1.400 1_655 S
C945 C946 1.398 . S
C946 H934 0.950 . S
C946 C945 1.398 . S
C946 C947 1.391 . S
C947 H935 0.950 . S
C947 C943 1.393 . S
C947 C946 1.391 . S
H948 C956 0.950 . S
H949 C961 0.950 . S
H950 C958 0.950 . S
H951 C960 0.950 . S
H952 C962 0.950 . S
H953 C964 0.950 . S
H954 C966 0.950 . S
H955 C967 0.950 . S
C956 H948 0.950 . S
C956 C957 1.386 . S
C956 C958 1.391 . S
C957 C956 1.386 . S
C957 C961 1.393 . S
C958 H950 0.950 . S
C958 C956 1.391 . S
C958 C959 1.400 . S
C959 C958 1.400 . S
C959 C960 1.398 . S
C959 C965 1.491 . S
C960 H951 0.950 . S
C960 C959 1.398 . S
C960 C961 1.391 . S
C961 H949 0.950 . S
C961 C957 1.393 . S
C961 C960 1.391 . S
C962 H952 0.950 . S
C962 C963 1.386 . S
C962 C964 1.391 . S
C963 C962 1.386 . S
C963 C967 1.393 . S
C964 H953 0.950 . S
C964 C962 1.391 . S
C964 C965 1.400 . S
C965 C959 1.491 . S
C965 C964 1.400 . S
C965 C966 1.398 . S
C966 H954 0.950 . S
C966 C965 1.398 . S
C966 C967 1.391 . S
C967 H955 0.950 . S
C967 C963 1.393 . S
C967 C966 1.391 . S
H968 C976 0.950 . S
H969 C981 0.950 . S
H970 C978 0.950 1_455 S
H971 C980 0.950 . S
H972 C982 0.950 . S
H973 C984 0.950 1_655 S
H974 C986 0.950 . S
H975 C987 0.950 . S
C976 H968 0.950 . S
C976 C977 1.386 . S
C976 C978 1.391 . S
C977 C976 1.386 . S
C977 C981 1.393 . S
C978 H970 0.950 1_655 S
C978 C976 1.391 . S
C978 C979 1.400 . S
C979 C978 1.400 . S
C979 C980 1.398 . S
C979 C985 1.491 1_655 S
C980 H971 0.950 . S
C980 C979 1.398 . S
C980 C981 1.391 . S
C981 H969 0.950 . S
C981 C977 1.393 . S
C981 C980 1.391 . S
C982 H972 0.950 . S
C982 C983 1.386 . S
C982 C984 1.391 . S
C983 C982 1.386 . S
C983 C987 1.393 . S
C984 H973 0.950 1_455 S
C984 C982 1.391 . S
C984 C985 1.400 . S
C985 C979 1.491 1_455 S
C985 C984 1.400 . S
C985 C986 1.398 . S
C986 H974 0.950 . S
C986 C985 1.398 . S
C986 C987 1.391 . S
C987 H975 0.950 . S
C987 C983 1.393 . S
C987 C986 1.391 . S
H988 C996 0.950 . S
H989 C1001 0.950 . S
H990 C998 0.950 . S
H991 C1000 0.950 . S
H992 C1002 0.950 . S
H993 C1004 0.950 . S
H994 C1006 0.950 . S
H995 C1007 0.950 . S
C996 H988 0.950 . S
C996 C997 1.386 . S
C996 C998 1.391 . S
C997 C996 1.386 . S
C997 C1001 1.393 . S
C998 H990 0.950 . S
C998 C996 1.391 . S
C998 C999 1.400 . S
C999 C998 1.400 . S
C999 C1000 1.398 . S
C999 C1005 1.491 . S
C1000 H991 0.950 . S
C1000 C999 1.398 . S
C1000 C1001 1.391 . S
C1001 H989 0.950 . S
C1001 C997 1.393 . S
C1001 C1000 1.391 . S
C1002 H992 0.950 . S
C1002 C1003 1.386 . S
C1002 C1004 1.391 . S
C1003 C1002 1.386 . S
C1003 C1007 1.393 . S
C1004 H993 0.950 . S
C1004 C1002 1.391 . S
C1004 C1005 1.400 . S
C1005 C999 1.491 . S
C1005 C1004 1.400 . S
C1005 C1006 1.398 . S
C1006 H994 0.950 . S
C1006 C1005 1.398 . S
C1006 C1007 1.391 . S
C1007 H995 0.950 . S
C1007 C1003 1.393 . S
C1007 C1006 1.391 . S
H1008 C1016 0.950 . S
H1009 C1021 0.950 . S
H1010 C1018 0.950 . S
H1011 C1020 0.950 1_565 S
H1012 C1022 0.950 . S
H1013 C1024 0.950 . S
H1014 C1026 0.950 . S
H1015 C1027 0.950 . S
C1016 H1008 0.950 . S
C1016 C1017 1.386 . S
C1016 C1018 1.391 . S
C1017 C1016 1.386 . S
C1017 C1021 1.393 . S
C1018 H1010 0.950 . S
C1018 C1016 1.391 . S
C1018 C1019 1.400 . S
C1019 C1018 1.400 . S
C1019 C1020 1.398 . S
C1019 C1025 1.491 1_545 S
C1020 H1011 0.950 1_545 S
C1020 C1019 1.398 . S
C1020 C1021 1.391 . S
C1021 H1009 0.950 . S
C1021 C1017 1.393 . S
C1021 C1020 1.391 . S
C1022 H1012 0.950 . S
C1022 C1023 1.386 . S
C1022 C1024 1.391 . S
C1023 C1022 1.386 . S
C1023 C1027 1.393 . S
C1024 H1013 0.950 . S
C1024 C1022 1.391 . S
C1024 C1025 1.400 . S
C1025 C1019 1.491 1_565 S
C1025 C1024 1.400 . S
C1025 C1026 1.398 . S
C1026 H1014 0.950 . S
C1026 C1025 1.398 . S
C1026 C1027 1.391 . S
C1027 H1015 0.950 . S
C1027 C1023 1.393 . S
C1027 C1026 1.391 . S
H1028 C1036 0.950 . S
H1029 C1041 0.950 . S
H1030 C1038 0.950 . S
H1031 C1040 0.950 . S
H1032 C1042 0.950 . S
H1033 C1044 0.950 . S
H1034 C1046 0.950 . S
H1035 C1047 0.950 . S
C1036 H1028 0.950 . S
C1036 C1037 1.386 . S
C1036 C1038 1.391 . S
C1037 C1036 1.386 . S
C1037 C1041 1.393 . S
C1038 H1030 0.950 . S
C1038 C1036 1.391 . S
C1038 C1039 1.400 . S
C1039 C1038 1.400 . S
C1039 C1040 1.398 . S
C1039 C1045 1.491 . S
C1040 H1031 0.950 . S
C1040 C1039 1.398 . S
C1040 C1041 1.391 . S
C1041 H1029 0.950 . S
C1041 C1037 1.393 . S
C1041 C1040 1.391 . S
C1042 H1032 0.950 . S
C1042 C1043 1.386 . S
C1042 C1044 1.391 . S
C1043 C1042 1.386 . S
C1043 C1047 1.393 . S
C1044 H1033 0.950 . S
C1044 C1042 1.391 . S
C1044 C1045 1.400 . S
C1045 C1039 1.491 . S
C1045 C1044 1.400 . S
C1045 C1046 1.398 . S
C1046 H1034 0.950 . S
C1046 C1045 1.398 . S
C1046 C1047 1.391 . S
C1047 H1035 0.950 . S
C1047 C1043 1.393 . S
C1047 C1046 1.391 . S
H1048 C1056 0.950 . S
H1049 C1061 0.950 . S
H1050 C1058 0.950 . S
H1051 C1060 0.950 . S
H1052 C1062 0.950 . S
H1053 C1064 0.950 . S
H1054 C1066 0.950 . S
H1055 C1067 0.950 . S
C1056 H1048 0.950 . S
C1056 C1057 1.386 . S
C1056 C1058 1.391 . S
C1057 C1056 1.386 . S
C1057 C1061 1.393 . S
C1058 H1050 0.950 . S
C1058 C1056 1.391 . S
C1058 C1059 1.400 . S
C1059 C1058 1.400 . S
C1059 C1060 1.398 . S
C1059 C1065 1.491 1_545 S
C1060 H1051 0.950 . S
C1060 C1059 1.398 . S
C1060 C1061 1.391 . S
C1061 H1049 0.950 . S
C1061 C1057 1.393 . S
C1061 C1060 1.391 . S
C1062 H1052 0.950 . S
C1062 C1063 1.386 . S
C1062 C1064 1.391 . S
C1063 C1062 1.386 . S
C1063 C1067 1.393 . S
C1064 H1053 0.950 . S
C1064 C1062 1.391 . S
C1064 C1065 1.400 . S
C1065 C1059 1.491 1_565 S
C1065 C1064 1.400 . S
C1065 C1066 1.398 . S
C1066 H1054 0.950 . S
C1066 C1065 1.398 . S
C1066 C1067 1.391 . S
C1067 H1055 0.950 . S
C1067 C1063 1.393 . S
C1067 C1066 1.391 . S
H1068 C1076 0.950 . S
H1069 C1081 0.950 . S
H1070 C1078 0.950 . S
H1071 C1080 0.950 . S
H1072 C1082 0.950 . S
H1073 C1084 0.950 1_554 S
H1074 C1086 0.950 . S
H1075 C1087 0.950 . S
C1076 H1068 0.950 . S
C1076 C1077 1.386 . S
C1076 C1078 1.391 1_554 S
C1077 C1076 1.386 . S
C1077 C1081 1.393 . S
C1078 H1070 0.950 . S
C1078 C1076 1.391 1_556 S
C1078 C1079 1.400 1_556 S
C1079 C1078 1.400 1_554 S
C1079 C1080 1.398 . S
C1079 C1085 1.491 1_554 S
C1080 H1071 0.950 . S
C1080 C1079 1.398 . S
C1080 C1081 1.391 . S
C1081 H1069 0.950 . S
C1081 C1077 1.393 . S
C1081 C1080 1.391 . S
C1082 H1072 0.950 . S
C1082 C1083 1.386 . S
C1082 C1084 1.391 . S
C1083 C1082 1.386 . S
C1083 C1087 1.393 . S
C1084 H1073 0.950 1_556 S
C1084 C1082 1.391 . S
C1084 C1085 1.400 . S
C1085 C1079 1.491 1_556 S
C1085 C1084 1.400 . S
C1085 C1086 1.398 . S
C1086 H1074 0.950 . S
C1086 C1085 1.398 . S
C1086 C1087 1.391 . S
C1087 H1075 0.950 . S
C1087 C1083 1.393 . S
C1087 C1086 1.391 . S
H1088 C1096 0.950 . S
H1089 C1101 0.950 . S
H1090 C1098 0.950 . S
H1091 C1100 0.950 1_655 S
H1092 C1102 0.950 . S
H1093 C1104 0.950 . S
H1094 C1106 0.947 . S
H1095 C1107 0.950 . S
C1096 H1088 0.950 . S
C1096 C1097 1.386 . S
C1096 C1098 1.391 . S
C1097 C1096 1.386 . S
C1097 C1101 1.393 . S
C1098 H1090 0.950 . S
C1098 C1096 1.391 . S
C1098 C1099 1.400 . S
C1099 C1098 1.400 . S
C1099 C1100 1.398 . S
C1099 C1105 1.491 1_455 S
C1100 H1091 0.950 1_455 S
C1100 C1099 1.398 . S
C1100 C1101 1.391 . S
C1101 H1089 0.950 . S
C1101 C1097 1.393 . S
C1101 C1100 1.391 . S
C1102 H1092 0.950 . S
C1102 C1103 1.386 . S
C1102 C1104 1.391 . S
C1103 C1102 1.386 . S
C1103 C1107 1.393 . S
C1104 H1093 0.950 . S
C1104 C1102 1.391 . S
C1104 C1105 1.400 . S
C1105 C1099 1.491 1_655 S
C1105 C1104 1.400 . S
C1105 C1106 1.399 1_655 S
C1106 H1094 0.947 . S
C1106 C1105 1.399 1_455 S
C1106 C1107 1.393 1_455 S
C1107 H1095 0.950 . S
C1107 C1103 1.393 . S
C1107 C1106 1.393 1_655 S
H1108 C1116 0.950 . S
H1109 C1121 0.950 . S
H1110 C1118 0.950 . S
H1111 C1120 0.950 . S
H1112 C1122 0.950 . S
H1113 C1124 0.950 . S
H1114 C1126 0.950 . S
H1115 C1127 0.950 . S
C1116 H1108 0.950 . S
C1116 C1117 1.386 . S
C1116 C1118 1.391 . S
C1117 C1116 1.386 . S
C1117 C1121 1.393 . S
C1118 H1110 0.950 . S
C1118 C1116 1.391 . S
C1118 C1119 1.400 . S
C1119 C1118 1.400 . S
C1119 C1120 1.398 . S
C1119 C1125 1.491 . S
C1120 H1111 0.950 . S
C1120 C1119 1.398 . S
C1120 C1121 1.391 . S
C1121 H1109 0.950 . S
C1121 C1117 1.393 . S
C1121 C1120 1.391 . S
C1122 H1112 0.950 . S
C1122 C1123 1.386 . S
C1122 C1124 1.391 . S
C1123 C1122 1.386 . S
C1123 C1127 1.393 . S
C1124 H1113 0.950 . S
C1124 C1122 1.391 . S
C1124 C1125 1.400 . S
C1125 C1119 1.491 . S
C1125 C1124 1.400 . S
C1125 C1126 1.398 . S
C1126 H1114 0.950 . S
C1126 C1125 1.398 . S
C1126 C1127 1.391 . S
C1127 H1115 0.950 . S
C1127 C1123 1.393 . S
C1127 C1126 1.391 . S
H1128 C1136 0.950 . S
H1129 C1141 0.950 . S
H1130 C1138 0.950 . S
H1131 C1140 0.950 . S
H1132 C1142 0.950 . S
H1133 C1144 0.950 1_655 S
H1134 C1146 0.950 . S
H1135 C1147 0.950 . S
C1136 H1128 0.950 . S
C1136 C1137 1.386 . S
C1136 C1138 1.391 1_655 S
C1137 C1136 1.386 . S
C1137 C1141 1.393 . S
C1138 H1130 0.950 . S
C1138 C1136 1.391 1_455 S
C1138 C1139 1.400 1_455 S
C1139 C1138 1.400 1_655 S
C1139 C1140 1.398 . S
C1139 C1145 1.491 1_655 S
C1140 H1131 0.950 . S
C1140 C1139 1.398 . S
C1140 C1141 1.391 . S
C1141 H1129 0.950 . S
C1141 C1137 1.393 . S
C1141 C1140 1.391 . S
C1142 H1132 0.950 . S
C1142 C1143 1.386 . S
C1142 C1144 1.391 . S
C1143 C1142 1.386 . S
C1143 C1147 1.393 . S
C1144 H1133 0.950 1_455 S
C1144 C1142 1.391 . S
C1144 C1145 1.400 . S
C1145 C1139 1.491 1_455 S
C1145 C1144 1.400 . S
C1145 C1146 1.398 . S
C1146 H1134 0.950 . S
C1146 C1145 1.398 . S
C1146 C1147 1.391 . S
C1147 H1135 0.950 . S
C1147 C1143 1.393 . S
C1147 C1146 1.391 . S
H1148 C1156 0.950 . S
H1149 C1161 0.950 . S
H1150 C1158 0.950 . S
H1151 C1160 0.950 . S
H1152 C1162 0.950 . S
H1153 C1164 0.950 . S
H1154 C1166 0.950 . S
H1155 C1167 0.950 . S
C1156 H1148 0.950 . S
C1156 C1157 1.386 . S
C1156 C1158 1.391 . S
C1157 C1156 1.386 . S
C1157 C1161 1.393 . S
C1158 H1150 0.950 . S
C1158 C1156 1.391 . S
C1158 C1159 1.400 . S
C1159 C1158 1.400 . S
C1159 C1160 1.398 . S
C1159 C1165 1.491 . S
C1160 H1151 0.950 . S
C1160 C1159 1.398 . S
C1160 C1161 1.391 . S
C1161 H1149 0.950 . S
C1161 C1157 1.393 . S
C1161 C1160 1.391 . S
C1162 H1152 0.950 . S
C1162 C1163 1.386 . S
C1162 C1164 1.391 . S
C1163 C1162 1.386 . S
C1163 C1167 1.393 . S
C1164 H1153 0.950 . S
C1164 C1162 1.391 . S
C1164 C1165 1.400 . S
C1165 C1159 1.491 . S
C1165 C1164 1.400 . S
C1165 C1166 1.398 . S
C1166 H1154 0.950 . S
C1166 C1165 1.398 . S
C1166 C1167 1.391 . S
C1167 H1155 0.950 . S
C1167 C1163 1.393 . S
C1167 C1166 1.391 . S
H1168 C1176 0.950 . S
H1169 C1181 0.950 . S
H1170 C1178 0.950 . S
H1171 C1180 0.950 . S
H1172 C1182 0.950 . S
H1173 C1184 0.950 . S
H1174 C1186 0.950 . S
H1175 C1187 0.950 . S
C1176 H1168 0.950 . S
C1176 C1177 1.386 . S
C1176 C1178 1.391 . S
C1177 C1176 1.386 . S
C1177 C1181 1.393 . S
C1178 H1170 0.950 . S
C1178 C1176 1.391 . S
C1178 C1179 1.400 . S
C1179 C1178 1.400 . S
C1179 C1180 1.398 . S
C1179 C1185 1.491 . S
C1180 H1171 0.950 . S
C1180 C1179 1.398 . S
C1180 C1181 1.391 . S
C1181 H1169 0.950 . S
C1181 C1177 1.393 . S
C1181 C1180 1.391 . S
C1182 H1172 0.950 . S
C1182 C1183 1.386 . S
C1182 C1184 1.391 . S
C1183 C1182 1.386 . S
C1183 C1187 1.393 . S
C1184 H1173 0.950 . S
C1184 C1182 1.391 . S
C1184 C1185 1.400 . S
C1185 C1179 1.491 . S
C1185 C1184 1.400 . S
C1185 C1186 1.398 . S
C1186 H1174 0.950 . S
C1186 C1185 1.398 . S
C1186 C1187 1.391 . S
C1187 H1175 0.950 . S
C1187 C1183 1.393 . S
C1187 C1186 1.391 . S
H1188 C1196 0.950 . S
H1189 C1201 0.950 . S
H1190 C1198 0.950 . S
H1191 C1200 0.950 . S
H1192 C1202 0.950 . S
H1193 C1204 0.950 . S
H1194 C1206 0.950 1_556 S
H1195 C1207 0.950 . S
C1196 H1188 0.950 . S
C1196 C1197 1.386 . S
C1196 C1198 1.391 . S
C1197 C1196 1.386 . S
C1197 C1201 1.393 . S
C1198 H1190 0.950 . S
C1198 C1196 1.391 . S
C1198 C1199 1.400 . S
C1199 C1198 1.400 . S
C1199 C1200 1.398 . S
C1199 C1205 1.491 1_556 S
C1200 H1191 0.950 . S
C1200 C1199 1.398 . S
C1200 C1201 1.391 . S
C1201 H1189 0.950 . S
C1201 C1197 1.393 . S
C1201 C1200 1.391 . S
C1202 H1192 0.950 . S
C1202 C1203 1.386 . S
C1202 C1204 1.391 . S
C1203 C1202 1.386 . S
C1203 C1207 1.393 . S
C1204 H1193 0.950 . S
C1204 C1202 1.391 . S
C1204 C1205 1.400 . S
C1205 C1199 1.491 1_554 S
C1205 C1204 1.400 . S
C1205 C1206 1.398 . S
C1206 H1194 0.950 1_554 S
C1206 C1205 1.398 . S
C1206 C1207 1.391 . S
C1207 H1195 0.950 . S
C1207 C1203 1.393 . S
C1207 C1206 1.391 . S
H1208 C1216 0.950 . S
H1209 C1221 0.950 . S
H1210 C1218 0.950 . S
H1211 C1220 0.950 . S
H1212 C1222 0.950 . S
H1213 C1224 0.950 . S
H1214 C1226 0.950 . S
H1215 C1227 0.950 . S
C1216 H1208 0.950 . S
C1216 C1217 1.386 . S
C1216 C1218 1.391 . S
C1217 C1216 1.386 . S
C1217 C1221 1.393 . S
C1218 H1210 0.950 . S
C1218 C1216 1.391 . S
C1218 C1219 1.400 . S
C1219 C1218 1.400 . S
C1219 C1220 1.398 . S
C1219 C1225 1.491 . S
C1220 H1211 0.950 . S
C1220 C1219 1.398 . S
C1220 C1221 1.391 . S
C1221 H1209 0.950 . S
C1221 C1217 1.393 . S
C1221 C1220 1.391 . S
C1222 H1212 0.950 . S
C1222 C1223 1.386 . S
C1222 C1224 1.391 . S
C1223 C1222 1.386 . S
C1223 C1227 1.393 . S
C1224 H1213 0.950 . S
C1224 C1222 1.391 . S
C1224 C1225 1.400 . S
C1225 C1219 1.491 . S
C1225 C1224 1.400 . S
C1225 C1226 1.398 . S
C1226 H1214 0.950 . S
C1226 C1225 1.398 . S
C1226 C1227 1.391 . S
C1227 H1215 0.950 . S
C1227 C1223 1.393 . S
C1227 C1226 1.391 . S
H1228 C1236 0.950 . S
H1229 C1241 0.950 . S
H1230 C1238 0.950 . S
H1231 C1240 0.950 . S
H1232 C1242 0.950 . S
H1233 C1244 0.950 . S
H1234 C1246 0.950 . S
H1235 C1247 0.950 . S
C1236 H1228 0.950 . S
C1236 C1237 1.386 . S
C1236 C1238 1.391 . S
C1237 C1236 1.386 . S
C1237 C1241 1.393 . S
C1238 H1230 0.950 . S
C1238 C1236 1.391 . S
C1238 C1239 1.400 . S
C1239 C1238 1.400 . S
C1239 C1240 1.398 . S
C1239 C1245 1.491 . S
C1240 H1231 0.950 . S
C1240 C1239 1.398 . S
C1240 C1241 1.391 . S
C1241 H1229 0.950 . S
C1241 C1237 1.393 . S
C1241 C1240 1.391 . S
C1242 H1232 0.950 . S
C1242 C1243 1.386 . S
C1242 C1244 1.391 . S
C1243 C1242 1.386 . S
C1243 C1247 1.393 . S
C1244 H1233 0.950 . S
C1244 C1242 1.391 . S
C1244 C1245 1.400 . S
C1245 C1239 1.491 . S
C1245 C1244 1.400 . S
C1245 C1246 1.398 . S
C1246 H1234 0.950 . S
C1246 C1245 1.398 . S
C1246 C1247 1.391 . S
C1247 H1235 0.950 . S
C1247 C1243 1.393 . S
C1247 C1246 1.391 . S
H1248 C1256 0.950 . S
H1249 C1261 0.950 . S
H1250 C1258 0.950 . S
H1251 C1260 0.950 . S
H1252 C1262 0.950 . S
H1253 C1264 0.950 . S
H1254 C1266 0.950 . S
H1255 C1267 0.950 . S
C1256 H1248 0.950 . S
C1256 C1257 1.386 . S
C1256 C1258 1.391 . S
C1257 C1256 1.386 . S
C1257 C1261 1.393 . S
C1258 H1250 0.950 . S
C1258 C1256 1.391 . S
C1258 C1259 1.400 . S
C1259 C1258 1.400 . S
C1259 C1260 1.398 . S
C1259 C1265 1.491 . S
C1260 H1251 0.950 . S
C1260 C1259 1.398 . S
C1260 C1261 1.391 . S
C1261 H1249 0.950 . S
C1261 C1257 1.393 . S
C1261 C1260 1.391 . S
C1262 H1252 0.950 . S
C1262 C1263 1.386 . S
C1262 C1264 1.391 . S
C1263 C1262 1.386 . S
C1263 C1267 1.393 . S
C1264 H1253 0.950 . S
C1264 C1262 1.391 . S
C1264 C1265 1.400 . S
C1265 C1259 1.491 . S
C1265 C1264 1.400 . S
C1265 C1266 1.398 . S
C1266 H1254 0.950 . S
C1266 C1265 1.398 . S
C1266 C1267 1.391 . S
C1267 H1255 0.950 . S
C1267 C1263 1.393 . S
C1267 C1266 1.391 . S
H1268 C1276 0.950 . S
H1269 C1281 0.950 . S
H1270 C1278 0.950 1_554 S
H1271 C1280 0.950 . S
H1272 C1282 0.950 . S
H1273 C1284 0.950 . S
H1274 C1286 0.950 . S
H1275 C1287 0.950 . S
C1276 H1268 0.950 . S
C1276 C1277 1.386 . S
C1276 C1278 1.391 . S
C1277 C1276 1.386 . S
C1277 C1281 1.393 . S
C1278 H1270 0.950 1_556 S
C1278 C1276 1.391 . S
C1278 C1279 1.400 . S
C1279 C1278 1.400 . S
C1279 C1280 1.398 . S
C1279 C1285 1.491 1_556 S
C1280 H1271 0.950 . S
C1280 C1279 1.398 . S
C1280 C1281 1.391 . S
C1281 H1269 0.950 . S
C1281 C1277 1.393 . S
C1281 C1280 1.391 . S
C1282 H1272 0.950 . S
C1282 C1283 1.386 . S
C1282 C1284 1.391 . S
C1283 C1282 1.386 . S
C1283 C1287 1.393 . S
C1284 H1273 0.950 . S
C1284 C1282 1.391 . S
C1284 C1285 1.400 . S
C1285 C1279 1.491 1_554 S
C1285 C1284 1.400 . S
C1285 C1286 1.398 . S
C1286 H1274 0.950 . S
C1286 C1285 1.398 . S
C1286 C1287 1.391 . S
C1287 H1275 0.950 . S
C1287 C1283 1.393 . S
C1287 C1286 1.391 . S
H1288 C1296 0.950 . S
H1289 C1301 0.950 . S
H1290 C1298 0.950 . S
H1291 C1300 0.950 . S
H1292 C1302 0.950 . S
H1293 C1304 0.950 . S
H1294 C1306 0.950 . S
H1295 C1307 0.950 . S
C1296 H1288 0.950 . S
C1296 C1297 1.386 . S
C1296 C1298 1.391 . S
C1297 C1296 1.386 . S
C1297 C1301 1.393 . S
C1298 H1290 0.950 . S
C1298 C1296 1.391 . S
C1298 C1299 1.400 . S
C1299 C1298 1.400 . S
C1299 C1300 1.398 . S
C1299 C1305 1.491 . S
C1300 H1291 0.950 . S
C1300 C1299 1.398 . S
C1300 C1301 1.391 . S
C1301 H1289 0.950 . S
C1301 C1297 1.393 . S
C1301 C1300 1.391 . S
C1302 H1292 0.950 . S
C1302 C1303 1.386 . S
C1302 C1304 1.391 . S
C1303 C1302 1.386 . S
C1303 C1307 1.393 . S
C1304 H1293 0.950 . S
C1304 C1302 1.391 . S
C1304 C1305 1.400 . S
C1305 C1299 1.491 . S
C1305 C1304 1.400 . S
C1305 C1306 1.398 . S
C1306 H1294 0.950 . S
C1306 C1305 1.398 . S
C1306 C1307 1.391 . S
C1307 H1295 0.950 . S
C1307 C1303 1.393 . S
C1307 C1306 1.391 . S
H1308 C1316 0.950 . S
H1309 C1321 0.950 . S
H1310 C1318 0.950 . S
H1311 C1320 0.950 . S
H1312 C1322 0.950 . S
H1313 C1324 0.950 . S
H1314 C1326 0.950 . S
H1315 C1327 0.950 . S
C1316 H1308 0.950 . S
C1316 C1317 1.386 . S
C1316 C1318 1.391 . S
C1317 C1316 1.386 . S
C1317 C1321 1.393 . S
C1318 H1310 0.950 . S
C1318 C1316 1.391 . S
C1318 C1319 1.400 . S
C1319 C1318 1.400 . S
C1319 C1320 1.398 . S
C1319 C1325 1.491 . S
C1320 H1311 0.950 . S
C1320 C1319 1.398 . S
C1320 C1321 1.391 . S
C1321 H1309 0.950 . S
C1321 C1317 1.393 . S
C1321 C1320 1.391 . S
C1322 H1312 0.950 . S
C1322 C1323 1.386 . S
C1322 C1324 1.391 . S
C1323 C1322 1.386 . S
C1323 C1327 1.393 . S
C1324 H1313 0.950 . S
C1324 C1322 1.391 . S
C1324 C1325 1.400 . S
C1325 C1319 1.491 . S
C1325 C1324 1.400 . S
C1325 C1326 1.398 . S
C1326 H1314 0.950 . S
C1326 C1325 1.398 . S
C1326 C1327 1.391 . S
C1327 H1315 0.950 . S
C1327 C1323 1.393 . S
C1327 C1326 1.391 . S
C537 N13 1.560 . S
C543 N497 1.578 . S
C557 N277 2.081 . S
C563 N46 2.092 . S
C577 N409 1.806 . S
C583 N68 1.820 . S
C597 N101 2.015 . S
C603 N343 1.977 . S
C617 N365 2.105 . S
C623 N35 2.111 . S
C637 N79 1.831 . S
C643 N299 1.844 . S
C657 N112 1.952 . S
C663 N431 1.970 . S
C677 N2 1.586 . S
C683 N244 1.576 . S
C697 N266 2.104 . S
C703 N134 2.111 . S
C717 N398 1.831 . S
C723 N178 1.836 . S
C737 N211 1.941 . S
C743 N332 1.970 . S
C757 N200 2.001 . S
C763 N442 1.971 . S
C777 N145 2.084 . S
C783 N376 2.091 . S
C797 N475 1.562 . S
C803 N233 1.580 . S
C817 N310 1.786 . S
C823 N167 1.800 . S
C837 N508 1.575 . S
C843 N464 1.595 . S
C857 C21 0.979 . S
C863 C51 0.980 . S
C877 C40 0.996 . S
C883 C87 1.001 . S
C897 C73 1.223 . S
C903 C106 1.224 . S
C917 C117 1.216 . S
C923 C7 1.209 . S
C937 C18 0.705 . S
C943 C183 0.703 . S
C957 C153 0.658 . S
C963 C120 0.656 . S
C977 C219 0.651 . S
C983 C54 0.653 . S
C997 C480 0.706 . S
C1003 C84 0.701 . S
C1017 C285 0.599 . S
C1023 C238 0.594 . S
C1037 C271 1.066 . S
C1043 C304 1.061 . S
C1057 C315 1.316 . S
C1063 C348 1.315 . S
C1077 C351 0.792 . S
C1083 C249 0.791 . S
C1097 C417 0.786 . S
C1103 C252 0.787 . S
C1117 C381 1.098 . S
C1123 C337 1.097 . S
C1137 C282 1.096 . S
C1143 C436 1.094 . S
C1157 C516 0.791 . S
C1163 C318 0.790 . S
C1177 C150 0.979 . S
C1183 C483 0.980 . S
C1197 C139 1.002 . S
C1203 C186 1.000 . S
C1217 C172 1.228 . S
C1223 C205 1.227 . S
C1237 C469 1.216 . S
C1243 C216 1.218 . S
C1257 C384 0.595 . S
C1263 C502 0.597 . S
C1277 C403 1.064 . S
C1283 C370 1.057 . S
C1297 C414 1.315 . S
C1303 C447 1.316 . S
C1317 C513 0.789 . S
C1323 C450 0.790 . S
