# Generated by pormake.
# Topology sne, (6)-cn, num edge types: 1
# Building blocks:
#     Node 0, Type 0, BuildingBlock: KUMBUR_clean_sbu_1, # of connection points: 6
#     Node 1, Type 0, BuildingBlock: KUMBUR_clean_sbu_1, # of connection points: 6
#     Node 2, Type 0, BuildingBlock: KUMBUR_clean_sbu_1, # of connection points: 6
#     Node 3, Type 0, BuildingBlock: KUMBUR_clean_sbu_1, # of connection points: 6
#     Node 4, Type 0, BuildingBlock: KUMBUR_clean_sbu_1, # of connection points: 6
#     Node 5, Type 0, BuildingBlock: KUMBUR_clean_sbu_1, # of connection points: 6
#     Node 6, Type 0, BuildingBlock: KUMBUR_clean_sbu_1, # of connection points: 6
#     Node 7, Type 0, BuildingBlock: KUMBUR_clean_sbu_1, # of connection points: 6
#     Edge 8, Type (0, 0), BuildingBlock: XIVTED_clean_linker_0, # of connection points: 2
#     Edge 9, Type (0, 0), BuildingBlock: XIVTED_clean_linker_0, # of connection points: 2
#     Edge 10, Type (0, 0), BuildingBlock: XIVTED_clean_linker_0, # of connection points: 2
#     Edge 11, Type (0, 0), BuildingBlock: XIVTED_clean_linker_0, # of connection points: 2
#     Edge 12, Type (0, 0), BuildingBlock: XIVTED_clean_linker_0, # of connection points: 2
#     Edge 13, Type (0, 0), BuildingBlock: XIVTED_clean_linker_0, # of connection points: 2
#     Edge 14, Type (0, 0), BuildingBlock: XIVTED_clean_linker_0, # of connection points: 2
#     Edge 15, Type (0, 0), BuildingBlock: XIVTED_clean_linker_0, # of connection points: 2
#     Edge 16, Type (0, 0), BuildingBlock: XIVTED_clean_linker_0, # of connection points: 2
#     Edge 17, Type (0, 0), BuildingBlock: XIVTED_clean_linker_0, # of connection points: 2
#     Edge 18, Type (0, 0), BuildingBlock: XIVTED_clean_linker_0, # of connection points: 2
#     Edge 19, Type (0, 0), BuildingBlock: XIVTED_clean_linker_0, # of connection points: 2
#     Edge 20, Type (0, 0), BuildingBlock: XIVTED_clean_linker_0, # of connection points: 2
#     Edge 21, Type (0, 0), BuildingBlock: XIVTED_clean_linker_0, # of connection points: 2
#     Edge 22, Type (0, 0), BuildingBlock: XIVTED_clean_linker_0, # of connection points: 2
#     Edge 23, Type (0, 0), BuildingBlock: XIVTED_clean_linker_0, # of connection points: 2
#     Edge 24, Type (0, 0), BuildingBlock: XIVTED_clean_linker_0, # of connection points: 2
#     Edge 25, Type (0, 0), BuildingBlock: XIVTED_clean_linker_0, # of connection points: 2
#     Edge 26, Type (0, 0), BuildingBlock: XIVTED_clean_linker_0, # of connection points: 2
#     Edge 27, Type (0, 0), BuildingBlock: XIVTED_clean_linker_0, # of connection points: 2
#     Edge 28, Type (0, 0), BuildingBlock: XIVTED_clean_linker_0, # of connection points: 2
#     Edge 29, Type (0, 0), BuildingBlock: XIVTED_clean_linker_0, # of connection points: 2
#     Edge 30, Type (0, 0), BuildingBlock: XIVTED_clean_linker_0, # of connection points: 2
#     Edge 31, Type (0, 0), BuildingBlock: XIVTED_clean_linker_0, # of connection points: 2
# Relax obj value: 0.230
# Max RMSD: 0.299
# Mean RMSD: 0.298
data_MOF--net-sne--node1-KUMBUR_clean_sbu_1--edge1-XIVTED_clean_linker_0
_symmetry_space_group_name_H-M    P1
_symmetry_Int_Tables_number       1
_symmetry_cell_setting            triclinic
loop_
_symmetry_equiv_pos_as_xyz
'x, y, z'
_cell_length_a     42.644706
_cell_length_b     42.507197
_cell_length_c     27.975682
_cell_angle_alpha  89.741307
_cell_angle_beta   90.27871
_cell_angle_gamma 90.515055
loop_
_atom_site_label
_atom_site_type_symbol
_atom_site_fract_x
_atom_site_fract_y
_atom_site_fract_z
_atom_type_partial_charge
Tb0 Tb 0.30716 0.18928 0.42166 0.0
C1 C 0.17564 0.16481 0.32261 0.0
N2 N 0.1902 0.1916 0.33773 0.0
C3 C 0.17456 0.21769 0.26515 0.0
C4 C 0.16184 0.16281 0.27678 0.0
C5 C 0.18739 0.21852 0.31126 0.0
C6 C 0.16245 0.18947 0.24731 0.0
C7 C 0.15561 0.11272 0.34191 0.0
C8 C 0.17187 0.14041 0.35498 0.0
C9 C 0.14338 0.10989 0.29541 0.0
C10 C 0.14641 0.13493 0.26294 0.0
Tb11 Tb 0.21044 0.19024 0.41399 0.0
N12 N 0.18426 0.14396 0.39945 0.0
C13 C 0.15204 0.08882 0.37606 0.0
C14 C 0.17934 0.12142 0.4336 0.0
C15 C 0.1637 0.09335 0.42227 0.0
H16 H 0.19399 0.24091 0.32631 0.0
H17 H 0.16033 0.07539 0.44936 0.0
H18 H 0.32933 0.14974 0.51689 0.0
H19 H 0.30864 0.31494 0.37909 0.0
H20 H 0.18689 0.12521 0.46989 0.0
H21 H 0.13982 0.06711 0.36742 0.0
H22 H 0.29547 0.26044 0.3641 0.0
H23 H 0.17325 0.23901 0.24395 0.0
H24 H 0.131 0.08871 0.28453 0.0
H25 H 0.13596 0.13285 0.2277 0.0
H26 H 0.36115 0.16043 0.58944 0.0
H27 H 0.15201 0.189 0.21193 0.0
H28 H 0.3399 0.32962 0.45012 0.0
N29 N 0.33097 0.1972 0.49279 0.0
C30 C 0.34176 0.22688 0.50027 0.0
C31 C 0.35573 0.17933 0.56479 0.0
C32 C 0.35984 0.23405 0.54117 0.0
C33 C 0.33766 0.17338 0.52396 0.0
C34 C 0.36696 0.20978 0.57338 0.0
N35 N 0.31537 0.24265 0.42902 0.0
C36 C 0.30729 0.26556 0.39681 0.0
C37 C 0.34284 0.2818 0.47648 0.0
C38 C 0.33337 0.25039 0.46788 0.0
C39 C 0.33335 0.30522 0.44454 0.0
C40 C 0.31553 0.29703 0.4046 0.0
H41 H 0.38092 0.21434 0.60511 0.0
H42 H 0.38384 0.27111 0.5801 0.0
H43 H 0.3688 0.31292 0.52376 0.0
O44 O 0.35212 0.19888 0.39095 0.0
O45 O 0.28108 0.20116 0.48656 0.0
O46 O 0.23696 0.22492 0.45693 0.0
O47 O 0.34075 0.15394 0.42447 0.0
O48 O 0.28748 0.20411 0.35325 0.0
O49 O 0.23953 0.22422 0.37319 0.0
O50 O 0.17291 0.18732 0.46369 0.0
O51 O 0.23306 0.15086 0.37658 0.0
O52 O 0.2873 0.15853 0.36628 0.0
O53 O 0.17623 0.22552 0.41435 0.0
O54 O 0.23184 0.16166 0.4722 0.0
O55 O 0.28288 0.14765 0.45001 0.0
C56 C 0.25635 0.21887 0.49244 0.0
C57 C 0.39374 0.15888 0.3948 0.0
C58 C 0.44707 0.16386 0.36335 0.0
C59 C 0.45373 0.13386 0.38213 0.0
C60 C 0.40119 0.12885 0.41256 0.0
C61 C 0.43098 0.11657 0.40637 0.0
C62 C 0.41693 0.17657 0.37032 0.0
C63 C 0.2607 0.21693 0.34084 0.0
C64 C 0.36197 0.1712 0.40372 0.0
C65 C 0.36983 0.26515 0.54897 0.0
C66 C 0.36125 0.28896 0.51686 0.0
C67 C 0.26054 0.14344 0.35818 0.0
C68 C 0.12495 0.2079 0.43243 0.0
C69 C 0.06896 0.20832 0.45227 0.0
C70 C 0.06176 0.20264 0.40395 0.0
C71 C 0.11655 0.20311 0.38436 0.0
C72 C 0.1008 0.21096 0.46654 0.0
C73 C 0.0854 0.20011 0.37038 0.0
C74 C 0.2555 0.14154 0.47041 0.0
C75 C 0.15862 0.21159 0.44582 0.0
H76 H 0.47682 0.12376 0.37835 0.0
H77 H 0.38403 0.1148 0.43175 0.0
H78 H 0.43649 0.09353 0.42057 0.0
H79 H 0.41151 0.19972 0.35635 0.0
H80 H 0.03765 0.20109 0.39172 0.0
H81 H 0.13383 0.20258 0.35691 0.0
H82 H 0.10668 0.21549 0.50361 0.0
H83 H 0.07955 0.19645 0.3331 0.0
Tb84 Tb 0.18991 0.80115 0.67927 0.0
C85 C 0.23652 0.68749 0.56925 0.0
N86 N 0.20669 0.69455 0.58248 0.0
C87 C 0.18777 0.68084 0.50436 0.0
C88 C 0.24305 0.67689 0.5227 0.0
C89 C 0.18228 0.69097 0.55107 0.0
C90 C 0.21823 0.67375 0.49011 0.0
C91 C 0.29209 0.68564 0.58921 0.0
C92 C 0.2609 0.69197 0.60208 0.0
C93 C 0.29852 0.67442 0.54316 0.0
C94 C 0.27411 0.67015 0.50999 0.0
Tb95 Tb 0.20216 0.70731 0.6611 0.0
N96 N 0.25411 0.70416 0.64575 0.0
C97 C 0.31593 0.69129 0.6228 0.0
C98 C 0.27706 0.70894 0.67913 0.0
C99 C 0.30837 0.70294 0.66793 0.0
H100 H 0.15843 0.69499 0.56187 0.0
H101 H 0.32662 0.707 0.69426 0.0
H102 H 0.23562 0.81777 0.77158 0.0
H103 H 0.07523 0.84525 0.63226 0.0
H104 H 0.27126 0.71697 0.71448 0.0
H105 H 0.34022 0.68672 0.61428 0.0
H106 H 0.12738 0.82339 0.61586 0.0
H107 H 0.1684 0.67808 0.47954 0.0
H108 H 0.32236 0.66938 0.53261 0.0
H109 H 0.27954 0.6619 0.47441 0.0
H110 H 0.22942 0.83762 0.8538 0.0
H111 H 0.22232 0.66582 0.45393 0.0
H112 H 0.0619 0.86221 0.71418 0.0
N113 N 0.18709 0.82069 0.75482 0.0
C114 C 0.15921 0.83324 0.76745 0.0
C115 C 0.20928 0.83595 0.83022 0.0
C116 C 0.15461 0.84581 0.81336 0.0
C117 C 0.21259 0.82402 0.784 0.0
C118 C 0.17995 0.84627 0.84537 0.0
N119 N 0.14227 0.8246 0.68842 0.0
C120 C 0.1213 0.8291 0.65207 0.0
C121 C 0.1069 0.84896 0.74389 0.0
C122 C 0.1359 0.83515 0.73307 0.0
C123 C 0.08454 0.85181 0.70737 0.0
C124 C 0.09194 0.84219 0.66111 0.0
H125 H 0.17747 0.85579 0.881 0.0
H126 H 0.12121 0.86807 0.86027 0.0
H127 H 0.07926 0.87052 0.79952 0.0
O128 O 0.1885 0.84886 0.65859 0.0
O129 O 0.1592 0.77259 0.72607 0.0
O130 O 0.15985 0.71954 0.70169 0.0
O131 O 0.23258 0.82574 0.67134 0.0
O132 O 0.16207 0.77875 0.62175 0.0
O133 O 0.15656 0.72417 0.63438 0.0
O134 O 0.2167 0.6703 0.70645 0.0
O135 O 0.23102 0.74546 0.62772 0.0
O136 O 0.19929 0.78548 0.60615 0.0
O137 O 0.18776 0.66108 0.64514 0.0
O138 O 0.21121 0.72363 0.73371 0.0
O139 O 0.22721 0.77336 0.71473 0.0
C140 C 0.14811 0.74339 0.72619 0.0
C141 C 0.23151 0.86652 0.61255 0.0
C142 C 0.23924 0.91381 0.5629 0.0
C143 C 0.25602 0.89532 0.53019 0.0
C144 C 0.24815 0.84888 0.579 0.0
C145 C 0.26021 0.86321 0.53811 0.0
C146 C 0.22706 0.89902 0.60433 0.0
C147 C 0.14651 0.75167 0.61807 0.0
C148 C 0.21886 0.85138 0.65625 0.0
C149 C 0.12535 0.85856 0.82501 0.0
C150 C 0.10149 0.86003 0.79037 0.0
C151 C 0.22035 0.76465 0.59433 0.0
C152 C 0.18297 0.62582 0.71028 0.0
C153 C 0.17888 0.57395 0.74928 0.0
C154 C 0.14697 0.58015 0.75819 0.0
C155 C 0.15135 0.63133 0.7203 0.0
C156 C 0.19675 0.59734 0.72524 0.0
C157 C 0.13355 0.60864 0.74427 0.0
C158 C 0.2221 0.75113 0.74696 0.0
C159 C 0.20146 0.64893 0.68242 0.0
H160 H 0.26654 0.90571 0.49865 0.0
H161 H 0.25217 0.82405 0.58454 0.0
H162 H 0.27317 0.84942 0.5126 0.0
H163 H 0.21395 0.91258 0.62999 0.0
H164 H 0.13195 0.56279 0.77508 0.0
H165 H 0.14031 0.65296 0.70885 0.0
H166 H 0.22134 0.59357 0.71796 0.0
H167 H 0.10903 0.61292 0.75142 0.0
Tb168 Tb 0.70685 0.81955 0.42187 0.0
C169 C 0.83559 0.83135 0.32109 0.0
N170 N 0.82291 0.80709 0.34674 0.0
C171 C 0.84234 0.77022 0.28917 0.0
C172 C 0.8503 0.82602 0.27681 0.0
C173 C 0.82848 0.77654 0.33325 0.0
C174 C 0.85255 0.7951 0.26025 0.0
C175 C 0.85402 0.8856 0.3195 0.0
C176 C 0.8382 0.86064 0.34269 0.0
C177 C 0.86599 0.88111 0.27339 0.0
C178 C 0.86426 0.85134 0.25217 0.0
Tb179 Tb 0.8004 0.82175 0.41788 0.0
N180 N 0.82754 0.86387 0.38806 0.0
C181 C 0.85857 0.91389 0.34416 0.0
C182 C 0.8333 0.89089 0.41322 0.0
C183 C 0.84859 0.91637 0.39147 0.0
H184 H 0.82066 0.7572 0.3556 0.0
H185 H 0.85254 0.93793 0.41112 0.0
H186 H 0.66809 0.85671 0.50439 0.0
H187 H 0.74422 0.69629 0.41524 0.0
H188 H 0.82531 0.89302 0.44964 0.0
H189 H 0.8706 0.93362 0.32752 0.0
H190 H 0.74953 0.75192 0.39796 0.0
H191 H 0.84531 0.74616 0.27766 0.0
H192 H 0.87792 0.90011 0.25476 0.0
H193 H 0.87514 0.8478 0.21771 0.0
H194 H 0.6325 0.84298 0.57111 0.0
H195 H 0.86367 0.79007 0.22642 0.0
H196 H 0.70414 0.67734 0.47205 0.0
N197 N 0.67739 0.80908 0.48715 0.0
C198 C 0.67237 0.77834 0.49775 0.0
C199 C 0.64352 0.82458 0.55073 0.0
C200 C 0.65247 0.76941 0.53564 0.0
C201 C 0.66363 0.83227 0.51304 0.0
C202 C 0.63773 0.79299 0.56189 0.0
N203 N 0.70953 0.76595 0.43834 0.0
C204 C 0.73018 0.74477 0.41966 0.0
C205 C 0.68618 0.72391 0.48543 0.0
C206 C 0.68891 0.75599 0.47251 0.0
C207 C 0.70544 0.70214 0.46303 0.0
C208 C 0.72797 0.71273 0.43079 0.0
H209 H 0.62227 0.78707 0.59127 0.0
H210 H 0.63316 0.73004 0.57557 0.0
H211 H 0.6628 0.69017 0.53177 0.0
O212 O 0.66138 0.80765 0.39507 0.0
O213 O 0.72999 0.8152 0.49043 0.0
O214 O 0.77357 0.78934 0.46593 0.0
O215 O 0.67443 0.85578 0.41324 0.0
O216 O 0.72187 0.79565 0.35662 0.0
O217 O 0.77635 0.80068 0.35535 0.0
O218 O 0.84095 0.83196 0.45886 0.0
O219 O 0.77772 0.86406 0.38812 0.0
O220 O 0.72885 0.84628 0.36347 0.0
O221 O 0.82997 0.78461 0.43988 0.0
O222 O 0.7807 0.85327 0.47237 0.0
O223 O 0.72778 0.86271 0.45349 0.0
C224 C 0.75429 0.79787 0.50046 0.0
C225 C 0.62116 0.8483 0.38524 0.0
C226 C 0.5686 0.84021 0.35198 0.0
C227 C 0.56146 0.87155 0.36359 0.0
C228 C 0.61342 0.87956 0.39585 0.0
C229 C 0.58374 0.891 0.38519 0.0
C230 C 0.59857 0.82856 0.36344 0.0
C231 C 0.74933 0.79223 0.33578 0.0
C232 C 0.6526 0.83676 0.39815 0.0
C233 C 0.64853 0.73741 0.54682 0.0
C234 C 0.66535 0.71471 0.52177 0.0
C235 C 0.75138 0.86762 0.36385 0.0
C236 C 0.88411 0.79837 0.44673 0.0
C237 C 0.93875 0.7886 0.46888 0.0
C238 C 0.94727 0.79131 0.42063 0.0
C239 C 0.89382 0.80172 0.39914 0.0
C240 C 0.90696 0.79162 0.482 0.0
C241 C 0.92489 0.79784 0.38604 0.0
C242 C 0.75493 0.87052 0.47414 0.0
C243 C 0.8507 0.80317 0.45958 0.0
H244 H 0.5384 0.88103 0.3565 0.0
H245 H 0.63024 0.89519 0.41287 0.0
H246 H 0.57791 0.91503 0.39393 0.0
H247 H 0.60439 0.80447 0.35491 0.0
H248 H 0.97149 0.78884 0.4098 0.0
H249 H 0.87781 0.80775 0.37171 0.0
H250 H 0.90028 0.78966 0.51923 0.0
H251 H 0.93169 0.80042 0.34898 0.0
Tb252 Tb 0.82106 0.30446 0.66695 0.0
C253 C 0.77029 0.18558 0.75366 0.0
N254 N 0.80136 0.18683 0.74347 0.0
C255 C 0.81314 0.15555 0.81253 0.0
C256 C 0.75944 0.16937 0.79453 0.0
C257 C 0.82286 0.17213 0.77186 0.0
C258 C 0.78128 0.15408 0.82385 0.0
C259 C 0.71761 0.20363 0.73705 0.0
C260 C 0.74969 0.20248 0.72481 0.0
C261 C 0.70653 0.18662 0.7768 0.0
C262 C 0.72737 0.16954 0.80545 0.0
Tb263 Tb 0.81457 0.21141 0.67447 0.0
N264 N 0.76145 0.21954 0.68724 0.0
C265 C 0.69772 0.22276 0.71017 0.0
C266 C 0.74201 0.23957 0.66282 0.0
C267 C 0.71008 0.24113 0.67343 0.0
H268 H 0.8475 0.17332 0.76306 0.0
H269 H 0.69508 0.25704 0.65371 0.0
H270 H 0.75788 0.32696 0.60455 0.0
H271 H 0.93956 0.35099 0.66845 0.0
H272 H 0.75045 0.25575 0.63656 0.0
H273 H 0.67301 0.22438 0.71859 0.0
H274 H 0.8939 0.32303 0.70267 0.0
H275 H 0.8302 0.14394 0.83512 0.0
H276 H 0.68195 0.18716 0.78641 0.0
H277 H 0.71856 0.15712 0.83659 0.0
H278 H 0.74765 0.3575 0.53054 0.0
H279 H 0.77384 0.14141 0.85559 0.0
H280 H 0.93536 0.37636 0.58895 0.0
N281 N 0.80753 0.33149 0.59928 0.0
C282 C 0.8319 0.34654 0.57745 0.0
C283 C 0.77146 0.35428 0.54305 0.0
C284 C 0.82713 0.36428 0.53536 0.0
C285 C 0.7773 0.33708 0.58484 0.0
C286 C 0.79654 0.36734 0.5176 0.0
N287 N 0.86445 0.33154 0.64232 0.0
C288 C 0.89186 0.33386 0.66785 0.0
C289 C 0.88668 0.36286 0.57884 0.0
C290 C 0.86128 0.3463 0.59938 0.0
C291 C 0.91529 0.36392 0.60362 0.0
C292 C 0.91774 0.34973 0.64859 0.0
H293 H 0.79193 0.38078 0.48537 0.0
H294 H 0.84961 0.39284 0.48081 0.0
H295 H 0.90178 0.39129 0.51858 0.0
O296 O 0.83082 0.34818 0.69855 0.0
O297 O 0.86183 0.28047 0.63707 0.0
O298 O 0.84718 0.22869 0.61934 0.0
O299 O 0.78334 0.33096 0.69324 0.0
O300 O 0.85154 0.28371 0.72225 0.0
O301 O 0.85932 0.22993 0.70557 0.0
O302 O 0.79545 0.16813 0.65193 0.0
O303 O 0.81173 0.23603 0.74197 0.0
O304 O 0.78709 0.27914 0.71329 0.0
O305 O 0.84406 0.17193 0.66989 0.0
O306 O 0.79603 0.228 0.6055 0.0
O307 O 0.8022 0.28265 0.60156 0.0
C308 C 0.86602 0.25341 0.61525 0.0
C309 C 0.79499 0.36848 0.75344 0.0
C310 C 0.78465 0.41606 0.79895 0.0
C311 C 0.78698 0.39845 0.84147 0.0
C312 C 0.79779 0.35138 0.79612 0.0
C313 C 0.79324 0.36624 0.83994 0.0
C314 C 0.78809 0.40074 0.75492 0.0
C315 C 0.86791 0.2573 0.7252 0.0
C316 C 0.80158 0.354 0.70714 0.0
C317 C 0.85274 0.37951 0.51356 0.0
C318 C 0.88246 0.37869 0.53514 0.0
C319 C 0.79517 0.26111 0.74971 0.0
C320 C 0.82917 0.13505 0.6104 0.0
C321 C 0.82019 0.08787 0.56248 0.0
C322 C 0.83872 0.10111 0.52603 0.0
C323 C 0.84779 0.14768 0.57376 0.0
C324 C 0.81566 0.10495 0.60486 0.0
C325 C 0.85259 0.13073 0.53186 0.0
C326 C 0.79485 0.25521 0.58248 0.0
C327 C 0.82203 0.15368 0.65319 0.0
H328 H 0.78435 0.40974 0.87585 0.0
H329 H 0.80418 0.32685 0.79551 0.0
H330 H 0.79531 0.35291 0.87285 0.0
H331 H 0.78688 0.41418 0.72192 0.0
H332 H 0.84276 0.08835 0.49322 0.0
H333 H 0.85835 0.1707 0.57752 0.0
H334 H 0.80102 0.09519 0.63294 0.0
H335 H 0.86697 0.14068 0.50371 0.0
Tb336 Tb 0.20677 0.32223 0.91747 0.0
C337 C 0.35652 0.36581 0.86018 0.0
N338 N 0.34034 0.33843 0.85574 0.0
C339 C 0.36659 0.32782 0.78215 0.0
C340 C 0.37708 0.37639 0.82422 0.0
C341 C 0.34647 0.31848 0.81907 0.0
C342 C 0.38145 0.35727 0.78419 0.0
C343 C 0.37167 0.40949 0.91043 0.0
C344 C 0.35393 0.38188 0.90261 0.0
C345 C 0.39067 0.42152 0.87353 0.0
C346 C 0.39346 0.40491 0.8305 0.0
Tb347 Tb 0.30664 0.32572 0.91565 0.0
N348 N 0.33611 0.36875 0.93763 0.0
C349 C 0.37085 0.42325 0.95574 0.0
C350 C 0.33771 0.38033 0.98302 0.0
C351 C 0.35433 0.4082 0.99248 0.0
H352 H 0.33609 0.29522 0.81858 0.0
H353 H 0.35474 0.41783 1.02823 0.0
H354 H 0.18104 0.3675 1.00416 0.0
H355 H 0.21292 0.19474 0.90509 0.0
H356 H 0.32634 0.36804 1.01209 0.0
H357 H 0.38403 0.44458 0.9633 0.0
H358 H 0.22943 0.2485 0.88632 0.0
H359 H 0.37089 0.31219 0.7525 0.0
H360 H 0.40422 0.44294 0.87859 0.0
H361 H 0.40911 0.41375 0.80305 0.0
H362 H 0.14526 0.36184 0.07319 0.0
H363 H 0.39719 0.36439 0.75577 0.0
H364 H 0.17256 0.18471 0.96653 0.0
N365 N 0.17829 0.3191 0.98577 0.0
C366 C 0.16591 0.29031 0.99606 0.0
C367 C 0.15094 0.34153 0.0518 0.0
C368 C 0.14567 0.28591 1.03519 0.0
C369 C 0.1713 0.34465 1.01293 0.0
C370 C 0.13792 0.31208 0.06283 0.0
N371 N 0.19767 0.27004 0.93475 0.0
C372 C 0.21127 0.24517 0.91229 0.0
C373 C 0.16633 0.23408 0.98224 0.0
C374 C 0.17601 0.26479 0.96967 0.0
C375 C 0.1793 0.2087 0.95788 0.0
C376 C 0.20214 0.21428 0.92323 0.0
H377 H 0.1224 0.30971 0.0932 0.0
H378 H 0.11891 0.25162 0.07602 0.0
H379 H 0.1371 0.20621 1.02979 0.0
O380 O 0.17058 0.31381 0.86639 0.0
O381 O 0.22839 0.30174 0.98131 0.0
O382 O 0.28339 0.30777 0.98143 0.0
O383 O 0.17049 0.35529 0.91204 0.0
O384 O 0.22674 0.30032 0.85319 0.0
O385 O 0.28251 0.29955 0.85579 0.0
O386 O 0.35098 0.31421 0.94465 0.0
O387 O 0.29154 0.36072 0.86215 0.0
O388 O 0.24757 0.34299 0.8863 0.0
O389 O 0.31892 0.27783 0.91712 0.0
O390 O 0.27889 0.35223 0.96997 0.0
O391 O 0.22819 0.36627 0.94413 0.0
C392 C 0.2564 0.29831 1.00071 0.0
C393 C 0.12671 0.35022 0.85695 0.0
C394 C 0.07284 0.34097 0.82988 0.0
C395 C 0.06964 0.37351 0.82223 0.0
C396 C 0.12269 0.3826 0.84967 0.0
C397 C 0.09447 0.39409 0.83176 0.0
C398 C 0.10182 0.32924 0.84626 0.0
C399 C 0.25468 0.29285 0.83555 0.0
C400 C 0.156 0.33913 0.87926 0.0
C401 C 0.13468 0.2555 0.04628 0.0
C402 C 0.14502 0.22963 1.01989 0.0
C403 C 0.26153 0.3642 0.8596 0.0
C404 C 0.36938 0.25985 0.94934 0.0
C405 C 0.41971 0.24345 0.98407 0.0
C406 C 0.41132 0.21197 0.97504 0.0
C407 C 0.36186 0.22814 0.94079 0.0
C408 C 0.39869 0.2675 0.97063 0.0
C409 C 0.38274 0.20446 0.95343 0.0
C410 C 0.25505 0.37222 0.96699 0.0
C411 C 0.34613 0.28436 0.93687 0.0
H412 H 0.04768 0.38305 0.80932 0.0
H413 H 0.14129 0.3991 0.85833 0.0
H414 H 0.09163 0.41912 0.82616 0.0
H415 H 0.10442 0.30427 0.85303 0.0
H416 H 0.4271 0.19305 0.98443 0.0
H417 H 0.33968 0.22153 0.9245 0.0
H418 H 0.40484 0.29184 0.97767 0.0
H419 H 0.37667 0.1801 0.94664 0.0
Tb420 Tb 0.31896 0.80095 0.16575 0.0
C421 C 0.27418 0.6876 0.26025 0.0
N422 N 0.30528 0.68844 0.25016 0.0
C423 C 0.3174 0.6672 0.32742 0.0
C424 C 0.26351 0.67769 0.30549 0.0
C425 C 0.32692 0.67775 0.28228 0.0
C426 C 0.28558 0.66744 0.33926 0.0
C427 C 0.22078 0.69732 0.23485 0.0
C428 C 0.25324 0.69768 0.22532 0.0
C429 C 0.21001 0.68827 0.28036 0.0
C430 C 0.23132 0.67843 0.31556 0.0
Tb431 Tb 0.31861 0.70644 0.17648 0.0
N432 N 0.26459 0.70657 0.18165 0.0
C433 C 0.20003 0.70502 0.19791 0.0
C434 C 0.24406 0.70996 0.14428 0.0
C435 C 0.2117 0.71054 0.15213 0.0
H436 H 0.35154 0.67792 0.27322 0.0
H437 H 0.19571 0.71428 0.12252 0.0
H438 H 0.25434 0.81968 0.10313 0.0
H439 H 0.43404 0.85377 0.15302 0.0
H440 H 0.25191 0.71068 0.10792 0.0
H441 H 0.17492 0.70507 0.20372 0.0
H442 H 0.38917 0.82888 0.19484 0.0
H443 H 0.3346 0.65911 0.35315 0.0
H444 H 0.18518 0.68815 0.28836 0.0
H445 H 0.22264 0.67116 0.35027 0.0
H446 H 0.2425 0.83936 1.02163 0.0
H447 H 0.27831 0.65957 0.37443 0.0
H448 H 0.42994 0.86626 0.06668 0.0
N449 N 0.30381 0.8212 0.09321 0.0
C450 C 0.32769 0.83211 0.06549 0.0
C451 C 0.2666 0.83704 1.03332 0.0
C452 C 0.32208 0.84408 1.01921 0.0
C453 C 0.27338 0.82572 0.07927 0.0
C454 C 0.2911 0.84538 1.00263 0.0
N455 N 0.36096 0.82574 0.13206 0.0
C456 C 0.38737 0.83404 0.1571 0.0
C457 C 0.38204 0.84924 0.06058 0.0
C458 C 0.35728 0.83478 0.08582 0.0
C459 C 0.41033 0.85512 0.08476 0.0
C460 C 0.41272 0.8482 0.13356 0.0
H461 H 0.28576 0.85437 0.96724 0.0
H462 H 0.3435 0.86503 0.95638 0.0
H463 H 0.39606 0.86951 0.99268 0.0
O464 O 0.31612 0.82497 0.23155 0.0
O465 O 0.36082 0.77756 0.13631 0.0
O466 O 0.34963 0.72469 0.1197 0.0
O467 O 0.30687 0.84881 0.1657 0.0
O468 O 0.35529 0.78114 0.2132 0.0
O469 O 0.36178 0.72592 0.20973 0.0
O470 O 0.30236 0.6617 0.1558 0.0
O471 O 0.313 0.73651 0.23963 0.0
O472 O 0.28364 0.77677 0.2108 0.0
O473 O 0.35019 0.66853 0.1771 0.0
O474 O 0.30713 0.7258 0.10554 0.0
O475 O 0.28432 0.77165 0.12764 0.0
C476 C 0.36728 0.75035 0.1159 0.0
C477 C 0.28103 0.86801 0.23291 0.0
C478 C 0.25834 0.91763 0.2595 0.0
C479 C 0.23014 0.90143 0.26942 0.0
C480 C 0.25255 0.85254 0.24211 0.0
C481 C 0.22734 0.86916 0.26072 0.0
C482 C 0.28382 0.9005 0.24148 0.0
C483 C 0.37035 0.75467 0.2238 0.0
C484 C 0.30755 0.85125 0.21172 0.0
C485 C 0.34725 0.85618 0.99232 0.0
C486 C 0.3772 0.85879 1.01301 0.0
C487 C 0.2925 0.75877 0.24684 0.0
C488 C 0.33918 0.63054 0.11722 0.0
C489 C 0.3313 0.58438 0.06662 0.0
C490 C 0.35284 0.59712 1.03375 0.0
C491 C 0.36065 0.64279 0.08397 0.0
C492 C 0.32476 0.6012 0.10859 0.0
C493 C 0.3675 0.62605 0.04258 0.0
C494 C 0.29279 0.75199 0.0939 0.0
C495 C 0.32976 0.64893 0.15918 0.0
H496 H 0.21024 0.91363 0.28417 0.0
H497 H 0.24973 0.82777 0.23443 0.0
H498 H 0.20546 0.85704 0.26815 0.0
H499 H 0.30562 0.91251 0.2329 0.0
H500 H 0.35853 0.58458 1.00135 0.0
H501 H 0.37187 0.6654 0.08976 0.0
H502 H 0.30776 0.59194 0.13382 0.0
H503 H 0.38405 0.63564 1.01704 0.0
Tb504 Tb 0.80075 0.69616 0.92603 0.0
C505 C 0.66674 0.64621 0.83903 0.0
N506 N 0.68194 0.67417 0.84325 0.0
C507 C 0.66573 0.68846 0.76392 0.0
C508 C 0.65159 0.63751 0.79616 0.0
C509 C 0.68046 0.69582 0.80729 0.0
C510 C 0.65161 0.65894 0.75803 0.0
C511 C 0.65011 0.59744 0.87624 0.0
C512 C 0.66595 0.62664 0.87838 0.0
C513 C 0.63586 0.588 0.83315 0.0
C514 C 0.63652 0.60805 0.79318 0.0
Tb515 Tb 0.7058 0.68421 0.91482 0.0
N516 N 0.67976 0.63685 0.91929 0.0
C517 C 0.64848 0.57903 0.91774 0.0
C518 C 0.67626 0.61999 0.96066 0.0
C519 C 0.66123 0.59059 0.96032 0.0
H520 H 0.68968 0.71911 0.81255 0.0
H521 H 0.6591 0.57709 0.99306 0.0
H522 H 0.81163 0.65025 1.02372 0.0
H523 H 0.80915 0.82105 0.89646 0.0
H524 H 0.68441 0.62941 0.99427 0.0
H525 H 0.6366 0.55639 0.91764 0.0
H526 H 0.79435 0.76646 0.87528 0.0
H527 H 0.66492 0.70571 0.73536 0.0
H528 H 0.62373 0.56555 0.83065 0.0
H529 H 0.62492 0.60078 0.76045 0.0
H530 H 0.83104 0.65821 0.10546 0.0
H531 H 0.6401 0.65329 0.7245 0.0
H532 H 0.83217 0.83246 0.97597 0.0
N533 N 0.81453 0.69889 1.00466 0.0
C534 C 0.82395 0.72822 1.01851 0.0
C535 C 0.8289 0.67812 0.08145 0.0
C536 C 0.83616 0.73354 0.06471 0.0
C537 C 0.81731 0.67381 1.03506 0.0
C538 C 0.83839 0.70805 0.09633 0.0
N539 N 0.80713 0.74778 0.94317 0.0
C540 C 0.8035 0.77142 0.91051 0.0
C541 C 0.82978 0.78397 0.9999 0.0
C542 C 0.82065 0.75331 0.98655 0.0
C543 C 0.82541 0.80856 0.96707 0.0
C544 C 0.81223 0.80224 0.92222 0.0
H545 H 0.84759 0.71119 0.13218 0.0
H546 H 0.8552 0.76853 0.11323 0.0
H547 H 0.8498 0.81255 0.05649 0.0
O548 O 0.83664 0.71051 0.8786 0.0
O549 O 0.76489 0.72659 0.95961 0.0
O550 O 0.72686 0.69311 0.98422 0.0
O551 O 0.84707 0.68168 0.9394 0.0
O552 O 0.7819 0.70709 0.8562 0.0
O553 O 0.73152 0.72203 0.87455 0.0
O554 O 0.6611 0.68621 0.9461 0.0
O555 O 0.73129 0.65714 0.86079 0.0
O556 O 0.78453 0.65502 0.88393 0.0
O557 O 0.68382 0.72841 0.92107 0.0
O558 O 0.73153 0.65667 0.97014 0.0
O559 O 0.78407 0.64948 0.94971 0.0
C560 C 0.746 0.71643 0.99348 0.0
C561 C 0.88203 0.67882 0.87413 0.0
C562 C 0.93433 0.67599 0.83804 0.0
C563 C 0.92737 0.64488 0.82412 0.0
C564 C 0.87633 0.64755 0.86114 0.0
C565 C 0.89865 0.63086 0.83562 0.0
C566 C 0.91107 0.69312 0.86239 0.0
C567 C 0.75472 0.71865 0.84346 0.0
C568 C 0.85858 0.69608 0.90224 0.0
C569 C 0.84562 0.76405 0.07794 0.0
C570 C 0.84255 0.78915 0.0456 0.0
C571 C 0.7596 0.64461 0.85945 0.0
C572 C 0.6274 0.72702 0.92218 0.0
C573 C 0.57081 0.73393 0.93514 0.0
C574 C 0.56794 0.7442 0.88749 0.0
C575 C 0.62372 0.738 0.87516 0.0
C576 C 0.60083 0.72547 0.95241 0.0
C577 C 0.59418 0.7464 0.85799 0.0
C578 C 0.75716 0.63932 0.96792 0.0
C579 C 0.6584 0.71632 0.93995 0.0
H580 H 0.94429 0.63122 0.8045 0.0
H581 H 0.85485 0.63597 0.8717 0.0
H582 H 0.89388 0.60675 0.82538 0.0
H583 H 0.91592 0.71704 0.87366 0.0
H584 H 0.54533 0.75104 0.8732 0.0
H585 H 0.64362 0.74013 0.8516 0.0
H586 H 0.60341 0.71715 0.98889 0.0
H587 H 0.59159 0.75467 0.82155 0.0
Tb588 Tb 0.68303 0.30346 0.1711 0.0
C589 C 0.73015 0.19217 0.05783 0.0
N590 N 0.70061 0.19887 0.0729 0.0
C591 C 0.67998 0.18595 0.99546 0.0
C592 C 0.73567 0.18226 1.01061 0.0
C593 C 0.67551 0.19538 0.04277 0.0
C594 C 0.71014 0.17938 0.97929 0.0
C595 C 0.78607 0.18977 0.07501 0.0
C596 C 0.75519 0.19605 0.08958 0.0
C597 C 0.79152 0.17935 1.02823 0.0
C598 C 0.76642 0.17571 0.9961 0.0
Tb599 Tb 0.69778 0.21013 0.1523 0.0
N600 N 0.74933 0.20733 0.13406 0.0
C601 C 0.81059 0.19458 0.10777 0.0
C602 C 0.77294 0.21126 0.16664 0.0
C603 C 0.80398 0.20533 0.15377 0.0
H604 H 0.65189 0.19886 0.055 0.0
H605 H 0.82275 0.20871 0.17946 0.0
H606 H 0.71119 0.31639 0.27875 0.0
H607 H 0.58292 0.35442 0.08156 0.0
H608 H 0.76784 0.2186 0.20263 0.0
H609 H 0.83466 0.19001 0.09795 0.0
H610 H 0.63554 0.3306 0.08605 0.0
H611 H 0.66005 0.18327 0.97167 0.0
H612 H 0.8151 0.17438 1.01636 0.0
H613 H 0.77108 0.16798 0.95998 0.0
H614 H 0.69195 0.33538 0.35659 0.0
H615 H 0.71343 0.17192 0.94268 0.0
H616 H 0.5556 0.36949 0.15584 0.0
N617 N 0.66785 0.32271 0.24318 0.0
C618 C 0.63916 0.33603 0.24498 0.0
C619 C 0.67657 0.33514 0.32569 0.0
C620 C 0.62712 0.34785 0.28801 0.0
C621 C 0.6873 0.32374 0.28192 0.0
C622 C 0.64606 0.34669 0.32902 0.0
N623 N 0.63654 0.32933 0.16202 0.0
C624 C 0.62327 0.33598 0.11866 0.0
C625 C 0.59321 0.35375 0.20214 0.0
C626 C 0.62267 0.33907 0.20281 0.0
C627 C 0.57835 0.35841 0.15799 0.0
C628 C 0.5937 0.34993 0.11599 0.0
H629 H 0.63782 0.3557 0.36283 0.0
H630 H 0.58724 0.37023 0.32097 0.0
H631 H 0.55737 0.37522 0.24566 0.0
O632 O 0.68752 0.35187 0.15485 0.0
O633 O 0.65751 0.27414 0.2233 0.0
O634 O 0.65619 0.22206 0.19477 0.0
O635 O 0.72819 0.32352 0.16827 0.0
O636 O 0.65586 0.27958 0.11362 0.0
O637 O 0.65086 0.22568 0.12943 0.0
O638 O 0.7132 0.17362 0.19781 0.0
O639 O 0.72615 0.24954 0.12281 0.0
O640 O 0.69238 0.28711 0.09904 0.0
O641 O 0.68496 0.16346 0.13614 0.0
O642 O 0.70848 0.22632 0.22377 0.0
O643 O 0.72117 0.27837 0.21017 0.0
C644 C 0.64577 0.24526 0.22204 0.0
C645 C 0.73324 0.36486 0.11089 0.0
C646 C 0.74455 0.41074 0.05962 0.0
C647 C 0.7629 0.39123 1.03049 0.0
C648 C 0.75175 0.34627 0.08095 0.0
C649 C 0.76625 0.35935 0.04097 0.0
C650 C 0.72971 0.39717 0.10004 0.0
C651 C 0.63976 0.25277 0.11319 0.0
C652 C 0.71796 0.35082 0.15363 0.0
C653 C 0.59713 0.36128 0.28818 0.0
C654 C 0.58014 0.36413 0.24529 0.0
C655 C 0.71535 0.26815 0.08899 0.0
C656 C 0.68086 0.12828 0.2014 0.0
C657 C 0.67766 0.0767 0.24061 0.0
C658 C 0.64603 0.08263 0.25129 0.0
C659 C 0.64915 0.13325 0.21161 0.0
C660 C 0.69516 0.10004 0.21624 0.0
C661 C 0.63199 0.1107 0.23698 0.0
C662 C 0.71908 0.25357 0.23883 0.0
C663 C 0.69883 0.15176 0.17361 0.0
H664 H 0.77537 0.40065 0.99993 0.0
H665 H 0.75539 0.32163 0.08863 0.0
H666 H 0.78052 0.34477 1.01827 0.0
H667 H 0.71531 0.41155 0.12291 0.0
H668 H 0.63206 0.06543 0.27061 0.0
H669 H 0.63761 0.1544 0.19936 0.0
H670 H 0.71949 0.09585 0.20741 0.0
H671 H 0.60756 0.11481 0.24502 0.0
H672 H 0.21602 0.11436 0.30177 0.0
H673 H 0.30862 0.95154 0.29494 0.0
H674 H 0.31047 0.10358 0.3538 0.0
H675 H 0.21403 0.96295 0.24246 0.0
H676 H 0.31141 0.00804 0.31064 0.0
H677 H 0.21636 0.06014 0.27366 0.0
C678 C 0.23667 0.10052 0.30773 0.0
C679 C 0.26259 0.11319 0.3321 0.0
C680 C 0.29009 0.9982 0.29548 0.0
C681 C 0.26386 0.05114 0.29855 0.0
C682 C 0.28851 0.9659 0.2863 0.0
C683 C 0.26093 0.95225 0.26769 0.0
C684 C 0.2639 0.01713 0.28603 0.0
C685 C 0.23556 0.97218 0.25773 0.0
C686 C 0.23709 0.0696 0.29109 0.0
C687 C 0.28971 0.09474 0.33571 0.0
N688 N 0.23762 1.00348 0.26721 0.0
N689 N 0.28948 0.06452 0.31984 0.0
H690 H 0.13222 0.6904 0.77581 0.0
H691 H 0.95079 0.73548 0.8051 0.0
H692 H 0.09583 0.78047 0.73318 0.0
H693 H 0.99094 0.64713 0.84909 0.0
H694 H 1.00363 0.75458 0.78387 0.0
H695 H 0.08084 0.67611 0.80784 0.0
C696 C 0.11345 0.70734 0.77371 0.0
C697 C 0.11842 0.73674 0.75203 0.0
C698 C 1.00083 0.73108 0.79841 0.0
C699 C 0.05904 0.72049 0.78834 0.0
C700 C 0.97067 0.72021 0.81073 0.0
C701 C 0.96624 0.68945 0.82831 0.0
C702 C 0.02677 0.7111 0.80396 0.0
C703 C 0.99298 0.67074 0.83469 0.0
C704 C 0.08404 0.69921 0.79204 0.0
C705 C 0.09324 0.75785 0.75051 0.0
N706 N 0.02186 0.68176 0.82237 0.0
N707 N 0.06457 0.74924 0.76798 0.0
H708 H 0.78284 0.92436 0.3729 0.0
H709 H 0.6516 0.01857 0.22752 0.0
H710 H 0.70425 0.88085 0.30053 0.0
H711 H 0.73505 0.06389 0.28258 0.0
H712 H 0.67206 0.96785 0.25287 0.0
H713 H 0.76781 0.97521 0.33865 0.0
C714 C 0.76287 0.92528 0.34907 0.0
C715 C 0.74499 0.89808 0.33945 0.0
C716 C 0.68608 0.98878 0.25933 0.0
C717 C 0.72715 0.95647 0.30091 0.0
C718 C 0.6743 0.01784 0.24504 0.0
C719 C 0.69144 0.04562 0.2534 0.0
C720 C 0.71528 0.98719 0.28263 0.0
C721 C 0.72104 0.04306 0.27541 0.0
C722 C 0.75413 0.95444 0.32981 0.0
C723 C 0.71881 0.90105 0.30916 0.0
N724 N 0.73191 0.01439 0.2897 0.0
N725 N 0.71065 0.92963 0.29132 0.0
H726 H 0.06572 0.28889 0.77216 0.0
H727 H 0.87973 0.29081 0.80537 0.0
H728 H 0.01627 0.3468 0.87227 0.0
H729 H 0.92459 0.23082 0.70299 0.0
H730 H 0.93085 0.30481 0.83829 0.0
H731 H 0.0161 0.26114 0.75358 0.0
C732 C 0.04455 0.29529 0.79085 0.0
C733 C 0.0449 0.32034 0.82337 0.0
C734 C 0.92972 0.2882 0.80909 0.0
C735 C 0.98836 0.28902 0.80243 0.0
C736 C 0.90044 0.28008 0.79046 0.0
C737 C 0.89799 0.25972 0.75138 0.0
C738 C 0.95702 0.27635 0.78803 0.0
C739 C 0.92555 0.24649 0.73338 0.0
C740 C 0.01626 0.2796 0.78014 0.0
C741 C 0.01689 0.32787 0.84652 0.0
N742 N 0.95407 0.25546 0.75131 0.0
N743 N 0.98985 0.31249 0.83537 0.0
H744 H 0.32345 0.53365 0.12667 0.0
H745 H 0.23899 0.42799 0.92667 0.0
H746 H 0.30301 0.56572 0.9835 0.0
H747 H 0.28113 0.38854 0.05343 0.0
H748 H 0.25348 0.48062 0.95413 0.0
H749 H 0.29998 0.4823 0.10693 0.0
C750 C 0.31375 0.52996 0.09126 0.0
C751 C 0.31546 0.55384 0.05649 0.0
C752 C 0.25944 0.4605 0.97616 0.0
C753 C 0.28851 0.4954 1.0338 0.0
C754 C 0.25099 0.43047 0.9606 0.0
C755 C 0.25958 0.40392 0.98729 0.0
C756 C 0.27625 0.46407 1.01913 0.0
C757 C 0.27485 0.40846 1.03126 0.0
C758 C 0.3005 0.50067 0.07998 0.0
C759 C 0.30263 0.5478 1.01113 0.0
N760 N 0.28294 0.438 0.04573 0.0
N761 N 0.28975 0.51922 1.0011 0.0
H762 H 0.51467 0.70548 0.9146 0.0
H763 H 0.42306 0.78015 0.13583 0.0
H764 H 0.56123 0.75941 1.02444 0.0
H765 H 0.3812 0.71338 1.03867 0.0
H766 H 0.47327 0.77443 0.09473 0.0
H767 H 0.46571 0.7084 0.95951 0.0
C768 C 0.51462 0.71776 0.94845 0.0
C769 C 0.54212 0.73231 0.96565 0.0
C770 C 0.45313 0.76105 0.0823 0.0
C771 C 0.48572 0.73624 1.01722 0.0
C772 C 0.42428 0.76467 0.10534 0.0
C773 C 0.39765 0.74765 0.0902 0.0
C774 C 0.45551 0.74026 0.04356 0.0
C775 C 0.40105 0.72697 0.05161 0.0
C776 C 0.48661 0.71945 0.9741 0.0
C777 C 0.54066 0.74772 1.00993 0.0
N778 N 0.42931 0.72399 1.02955 0.0
N779 N 0.5129 0.74958 1.03391 0.0
H780 H 0.7419 0.43857 0.97071 0.0
H781 H 0.72794 0.61689 0.04909 0.0
H782 H 0.74095 0.4618 0.12089 0.0
H783 H 0.7832 0.58748 0.92908 0.0
H784 H 0.72204 0.56128 0.0735 0.0
H785 H 0.74504 0.49442 0.95138 0.0
C786 C 0.74241 0.45529 0.99979 0.0
C787 C 0.742 0.44507 0.04772 0.0
C788 C 0.73549 0.56715 0.04191 0.0
C789 C 0.74461 0.50955 1.02529 0.0
C790 C 0.73879 0.59874 1.02792 0.0
C791 C 0.75574 0.60668 0.98659 0.0
C792 C 0.74869 0.54348 1.01372 0.0
C793 C 0.76976 0.58239 0.96086 0.0
C794 C 0.74406 0.48725 0.98856 0.0
C795 C 0.7413 0.46832 0.08347 0.0
N796 N 0.76556 0.55191 0.9744 0.0
N797 N 0.74272 0.49949 0.07155 0.0
H798 H 0.61651 0.28786 1.03824 0.0
H799 H 0.44228 0.21749 0.06626 0.0
H800 H 0.58957 0.218 0.14275 0.0
H801 H 0.4672 0.28386 0.9556 0.0
H802 H 0.49537 0.22155 0.09869 0.0
H803 H 0.56189 0.28987 1.01015 0.0
C804 C 0.59906 0.27308 0.05542 0.0
C805 C 0.60753 0.2529 0.0931 0.0
C806 C 0.48933 0.23542 0.06747 0.0
C807 C 0.54507 0.25486 0.06099 0.0
C808 C 0.45894 0.23319 0.04904 0.0
C809 C 0.45038 0.25013 1.0079 0.0
C810 C 0.5117 0.25458 0.04449 0.0
C811 C 0.47283 0.2704 0.9874 0.0
C812 C 0.56791 0.27415 1.03927 0.0
C813 C 0.58414 0.23373 0.11335 0.0
N814 N 0.50259 0.27182 1.00558 0.0
N815 N 0.55406 0.23526 0.09717 0.0
H816 H 0.71373 0.60531 0.82109 0.0
H817 H 0.82166 0.45768 0.8467 0.0
H818 H 0.81366 0.61317 0.83988 0.0
H819 H 0.74016 0.45303 0.7552 0.0
H820 H 0.81618 0.51481 0.85081 0.0
H821 H 0.71986 0.55002 0.79962 0.0
C822 C 0.737 0.59575 0.8203 0.0
C823 C 0.76313 0.61394 0.83442 0.0
C824 C 0.79957 0.50136 0.82958 0.0
C825 C 0.77031 0.55049 0.80998 0.0
C826 C 0.80255 0.46878 0.82758 0.0
C827 C 0.78121 0.45072 0.80087 0.0
C828 C 0.7747 0.51605 0.80544 0.0
C829 C 0.75704 0.46625 0.77624 0.0
C830 C 0.74047 0.56407 0.80792 0.0
C831 C 0.79277 0.60006 0.83109 0.0
N832 N 0.75414 0.4981 0.77961 0.0
N833 N 0.79552 0.5691 0.82033 0.0
H834 H 0.59707 0.28463 0.24585 0.0
H835 H 0.48431 0.14033 0.29405 0.0
H836 H 0.62895 0.18928 0.26164 0.0
H837 H 0.46746 0.22573 0.37219 0.0
H838 H 0.53247 0.16344 0.26256 0.0
H839 H 0.54599 0.26864 0.27911 0.0
C840 C 0.59362 0.26053 0.25706 0.0
C841 C 0.61719 0.23809 0.25013 0.0
C842 C 0.51814 0.17724 0.28635 0.0
C843 C 0.55871 0.21956 0.28617 0.0
C844 C 0.4906 0.16414 0.30419 0.0
C845 C 0.47225 0.18082 0.33675 0.0
C846 C 0.52743 0.2075 0.30048 0.0
C847 C 0.48111 0.21198 0.3475 0.0
C848 C 0.56437 0.2514 0.27555 0.0
C849 C 0.61115 0.20708 0.26472 0.0
N850 N 0.50838 0.22434 0.32969 0.0
N851 N 0.58244 0.19864 0.28128 0.0
H852 H 0.22694 0.54042 0.70677 0.0
H853 H 0.20019 0.38406 0.85714 0.0
H854 H 0.16305 0.53593 0.82621 0.0
H855 H 0.29213 0.40932 0.8077 0.0
H856 H 0.18083 0.43545 0.83073 0.0
H857 H 0.24717 0.48885 0.73024 0.0
C858 C 0.21719 0.52896 0.73801 0.0
C859 C 0.1928 0.54295 0.76406 0.0
C860 C 0.20521 0.42956 0.8255 0.0
C861 C 0.21528 0.48304 0.78977 0.0
C862 C 0.21614 0.4002 0.84069 0.0
C863 C 0.24774 0.39247 0.83616 0.0
C864 C 0.22593 0.45108 0.80391 0.0
C865 C 0.2675 0.41428 0.81265 0.0
C866 C 0.22866 0.49931 0.75107 0.0
C867 C 0.18105 0.52613 0.80379 0.0
N868 N 0.25631 0.44256 0.79741 0.0
N869 N 0.19211 0.49708 0.815 0.0
H870 H 0.55246 0.77816 0.37074 0.0
H871 H 0.38449 0.80194 0.28475 0.0
H872 H 0.52886 0.85695 0.27992 0.0
H873 H 0.42403 0.71856 0.22229 0.0
H874 H 0.43634 0.81701 0.31386 0.0
H875 H 0.50543 0.75005 0.34076 0.0
C876 C 0.53786 0.78927 0.34387 0.0
C877 C 0.54415 0.82029 0.32866 0.0
C878 C 0.43348 0.79511 0.29456 0.0
C879 C 0.49078 0.78863 0.29533 0.0
C880 C 0.40398 0.78642 0.27796 0.0
C881 C 0.40004 0.75917 0.2504 0.0
C882 C 0.45928 0.77628 0.28431 0.0
C883 C 0.42615 0.73976 0.24341 0.0
C884 C 0.51115 0.77324 0.32698 0.0
C885 C 0.52442 0.83353 0.29382 0.0
N886 N 0.45502 0.74889 0.25986 0.0
N887 N 0.49829 0.81793 0.27918 0.0
H888 H 0.82314 0.03675 0.62224 0.0
H889 H 0.72401 0.92395 0.44855 0.0
H890 H 0.78454 0.06734 0.4873 0.0
H891 H 0.79409 0.88919 0.54666 0.0
H892 H 0.73601 0.97767 0.47467 0.0
H893 H 0.80276 0.98346 0.6067 0.0
C894 C 0.81002 0.0323 0.58968 0.0
C895 C 0.8057 0.05632 0.55579 0.0
C896 C 0.74839 0.95822 0.49099 0.0
C897 C 0.7822 0.99578 0.53803 0.0
C898 C 0.74135 0.92755 0.47647 0.0
C899 C 0.75807 0.90211 0.49556 0.0
C900 C 0.77192 0.96342 0.52544 0.0
C901 C 0.78071 0.90819 0.53101 0.0
C902 C 0.79856 1.00194 0.58074 0.0
C903 C 0.78866 0.04935 0.51405 0.0
N904 N 0.78702 0.93824 0.54479 0.0
N905 N 0.77753 0.01972 0.50633 0.0
H906 H 0.05987 0.25599 0.51706 0.0
H907 H 0.87753 0.21472 0.53975 0.0
H908 H 0.01697 0.17128 0.46193 0.0
H909 H 0.92311 0.28121 0.63353 0.0
H910 H 0.9285 0.20184 0.50589 0.0
H911 H 0.01052 0.26803 0.5582 0.0
C912 C 0.04035 0.23959 0.51454 0.0
C913 C 0.04241 0.21273 0.48575 0.0
C914 C 0.9274 0.21927 0.53392 0.0
C915 C 0.98587 0.22676 0.53122 0.0
C916 C 0.89829 0.2265 0.55337 0.0
C917 C 0.89607 0.24867 0.59006 0.0
C918 C 0.95458 0.23463 0.5508 0.0
C919 C 0.92364 0.26423 0.60496 0.0
C920 C 0.01213 0.24663 0.53754 0.0
C921 C 0.01626 0.19247 0.48323 0.0
N922 N 0.95179 0.25687 0.58538 0.0
N923 N 0.98905 0.20009 0.50507 0.0
H924 H 0.23901 0.96344 0.62731 0.0
H925 H 0.27969 0.08885 0.43291 0.0
H926 H 0.23041 0.94352 0.47652 0.0
H927 H 0.22178 0.11967 0.54921 0.0
H928 H 0.27107 0.03453 0.45729 0.0
H929 H 0.23934 0.02008 0.60823 0.0
C930 C 0.23676 0.97078 0.59036 0.0
C931 C 0.23543 0.94834 0.55344 0.0
C932 C 0.2602 0.05313 0.47754 0.0
C933 C 0.23654 0.01299 0.53169 0.0
C934 C 0.26518 0.08421 0.46374 0.0
C935 C 0.25111 0.1089 0.48857 0.0
C936 C 0.24172 0.04634 0.51758 0.0
C937 C 0.23282 0.10129 0.5288 0.0
C938 C 0.23704 1.00312 0.57962 0.0
C939 C 0.23267 0.95959 0.50624 0.0
N940 N 0.2288 0.07055 0.54241 0.0
N941 N 0.23391 0.99094 0.49676 0.0
H942 H 0.12958 0.7888 0.54336 0.0
H943 H 0.9507 0.73743 0.52641 0.0
H944 H 0.09314 0.71809 0.6397 0.0
H945 H 0.98599 0.82924 0.4874 0.0
H946 H 1.00154 0.72598 0.56514 0.0
H947 H 0.07657 0.79843 0.51435 0.0
C948 C 0.11036 0.77504 0.558 0.0
C949 C 0.11561 0.75294 0.59433 0.0
C950 C 0.9978 0.74884 0.54896 0.0
C951 C 0.05474 0.76387 0.56144 0.0
C952 C 0.96878 0.75547 0.52747 0.0
C953 C 0.96434 0.78432 0.50396 0.0
C954 C 0.02233 0.77107 0.54584 0.0
C955 C 0.98858 0.80676 0.5053 0.0
C956 C 0.08007 0.78072 0.54175 0.0
C957 C 0.08996 0.73535 0.61154 0.0
N958 N 0.01665 0.79949 0.52515 0.0
N959 N 0.06044 0.74128 0.59507 0.0
H960 H 0.2131 0.30802 0.07105 0.0
H961 H 0.28538 0.19074 0.26156 0.0
H962 H 0.30161 0.26294 0.04613 0.0
H963 H 0.23589 0.27339 0.30662 0.0
H964 H 0.28566 0.21113 0.17956 0.0
H965 H 0.21435 0.28945 0.15394 0.0
C966 C 0.23266 0.29394 0.08277 0.0
C967 C 0.25713 0.28679 0.05117 0.0
C968 C 0.27452 0.22468 0.20732 0.0
C969 C 0.25869 0.26544 0.14657 0.0
C970 C 0.27428 0.21309 0.25417 0.0
C971 C 0.25974 0.22987 0.29104 0.0
C972 C 0.25969 0.25318 0.19665 0.0
C973 C 0.24621 0.25896 0.27921 0.0
C974 C 0.23349 0.28365 0.13035 0.0
C975 C 0.28223 0.26901 0.06908 0.0
N976 N 0.24607 0.26945 0.23295 0.0
N977 N 0.28219 0.25864 0.11537 0.0
H978 H 0.32871 0.74849 1.01401 0.0
H979 H 0.18689 0.74168 0.82667 0.0
H980 H 0.23314 0.76249 0.05727 0.0
H981 H 0.28048 0.76746 0.78375 0.0
H982 H 0.20336 0.74484 0.91088 0.0
H983 H 0.31199 0.75097 0.92987 0.0
C984 C 0.30418 0.75227 1.00575 0.0
C985 C 0.28237 0.75557 0.04288 0.0
C986 C 0.22031 0.74997 0.88317 0.0
C987 C 0.2628 0.75773 0.94608 0.0
C988 C 0.21095 0.74806 0.83504 0.0
C989 C 0.23228 0.75449 0.79803 0.0
C990 C 0.25162 0.75744 0.89483 0.0
C991 C 0.26319 0.76258 0.81106 0.0
C992 C 0.29466 0.75376 0.95765 0.0
C993 C 0.25082 0.76014 1.02992 0.0
N994 N 0.27198 0.76349 0.85821 0.0
N995 N 0.24198 0.7608 0.98279 0.0
H996 H 0.78317 0.81583 0.26115 0.0
H997 H 0.729 0.68449 0.07397 0.0
H998 H 0.71547 0.74356 0.29536 0.0
H999 H 0.76546 0.77463 1.02856 0.0
H1000 H 0.72993 0.70256 0.15661 0.0
H1001 H 0.78387 0.79754 0.17814 0.0
C1002 C 0.76888 0.79572 0.25135 0.0
C1003 C 0.74985 0.7807 0.28558 0.0
C1004 C 0.73801 0.71835 0.1287 0.0
C1005 C 0.74979 0.76013 0.19 0.0
C1006 C 0.73751 0.70808 0.0813 0.0
C1007 C 0.74786 0.72781 0.04394 0.0
C1008 C 0.7492 0.74863 0.13949 0.0
C1009 C 0.75836 0.75819 0.0561 0.0
C1010 C 0.76893 0.7856 0.20376 0.0
C1011 C 0.73071 0.75564 0.2703 0.0
N1012 N 0.75902 0.76758 0.10279 0.0
N1013 N 0.73134 0.746 0.22381 0.0
H1014 H 0.74165 0.29198 0.78052 0.0
H1015 H 0.77544 0.25638 0.05851 0.0
H1016 H 0.82029 0.23812 0.8317 0.0
H1017 H 0.68375 0.28126 1.00618 0.0
H1018 H 0.79436 0.25514 0.97585 0.0
H1019 H 0.722 0.29451 0.86335 0.0
C1020 C 0.75484 0.28091 0.80906 0.0
C1021 C 0.78271 0.26493 0.79906 0.0
C1022 C 0.77005 0.26079 0.98238 0.0
C1023 C 0.76047 0.26765 0.89364 0.0
C1024 C 0.75919 0.26112 1.02958 0.0
C1025 C 0.72774 0.26787 1.03924 0.0
C1026 C 0.74955 0.26815 0.94439 0.0
C1027 C 0.70812 0.27553 1.00037 0.0
C1028 C 0.74357 0.28218 0.85625 0.0
C1029 C 0.7987 0.25072 0.83753 0.0
N1030 N 0.71929 0.27544 0.95477 0.0
N1031 N 0.78747 0.2525 0.88282 0.0
H1032 H 0.79302 0.75168 0.53996 0.0
H1033 H 0.72035 0.76846 0.80509 0.0
H1034 H 0.71915 0.81589 0.57657 0.0
H1035 H 0.78631 0.69669 0.76662 0.0
H1036 H 0.72064 0.78708 0.72162 0.0
H1037 H 0.79271 0.7323 0.62328 0.0
C1038 C 0.77682 0.76173 0.56524 0.0
C1039 C 0.75606 0.78541 0.55067 0.0
C1040 C 0.73502 0.7672 0.73146 0.0
C1041 C 0.75547 0.76337 0.64627 0.0
C1042 C 0.73469 0.75649 0.77915 0.0
C1043 C 0.75303 0.73073 0.79307 0.0
C1044 C 0.75419 0.75239 0.69738 0.0
C1045 C 0.77171 0.71661 0.75777 0.0
C1046 C 0.77655 0.75062 0.61285 0.0
C1047 C 0.73555 0.79747 0.58547 0.0
N1048 N 0.77183 0.72756 0.71192 0.0
N1049 N 0.7358 0.7864 0.63116 0.0
H1050 H 0.81045 0.29702 0.51143 0.0
H1051 H 0.70102 0.21591 0.31256 0.0
H1052 H 0.7559 0.21278 0.53647 0.0
H1053 H 0.76487 0.29223 0.28012 0.0
H1054 H 0.71966 0.21593 0.39499 0.0
H1055 H 0.79253 0.2975 0.42826 0.0
C1056 C 0.7943 0.27886 0.49969 0.0
C1057 C 0.78413 0.25526 0.53157 0.0
C1058 C 0.72969 0.23272 0.37003 0.0
C1059 C 0.7641 0.25511 0.43535 0.0
C1060 C 0.7191 0.2327 0.32269 0.0
C1061 C 0.73123 0.25425 0.28906 0.0
C1062 C 0.7527 0.25449 0.38457 0.0
C1063 C 0.75456 0.27543 0.30477 0.0
C1064 C 0.78437 0.27894 0.45188 0.0
C1065 C 0.76424 0.23159 0.51347 0.0
N1066 N 0.76442 0.27512 0.35137 0.0
N1067 N 0.75479 0.23222 0.46679 0.0
H1068 H 0.29698 0.30448 0.76452 0.0
H1069 H 0.20724 0.20994 0.55545 0.0
H1070 H 0.21017 0.25515 0.79059 0.0
H1071 H 0.29494 0.25944 0.5403 0.0
H1072 H 0.20541 0.22687 0.63994 0.0
H1073 H 0.29585 0.28695 0.68228 0.0
C1074 C 0.27827 0.28891 0.75359 0.0
C1075 C 0.25459 0.28012 0.78569 0.0
C1076 C 0.22509 0.23395 0.61797 0.0
C1077 C 0.25166 0.26137 0.68896 0.0
C1078 C 0.22598 0.22458 0.56964 0.0
C1079 C 0.25168 0.23285 0.54072 0.0
C1080 C 0.25015 0.25169 0.63739 0.0
C1081 C 0.27534 0.25157 0.56117 0.0
C1082 C 0.27713 0.27946 0.70586 0.0
C1083 C 0.22937 0.26201 0.76751 0.0
N1084 N 0.2741 0.26015 0.60786 0.0
N1085 N 0.22858 0.25319 0.72048 0.0
H1086 H 0.23565 0.78225 0.28094 0.0
H1087 H 0.27899 0.74947 0.55884 0.0
H1088 H 0.32327 0.74335 0.32922 0.0
H1089 H 0.18773 0.78002 0.51276 0.0
H1090 H 0.29578 0.7484 0.47499 0.0
H1091 H 0.21812 0.78422 0.36488 0.0
C1092 C 0.25144 0.77467 0.30901 0.0
C1093 C 0.28123 0.76303 0.29749 0.0
C1094 C 0.272 0.75526 0.48304 0.0
C1095 C 0.26096 0.76442 0.39422 0.0
C1096 C 0.26229 0.75548 0.53112 0.0
C1097 C 0.23157 0.76391 0.54324 0.0
C1098 C 0.25112 0.76422 0.44621 0.0
C1099 C 0.21154 0.77299 0.5054 0.0
C1100 C 0.24127 0.7754 0.35707 0.0
C1101 C 0.30013 0.75259 0.33587 0.0
N1102 N 0.22156 0.77285 0.45897 0.0
N1103 N 0.28977 0.75351 0.38193 0.0
loop_
_geom_bond_atom_site_label_1
_geom_bond_atom_site_label_2
_geom_bond_distance
_geom_bond_site_symmetry_2
_ccdc_geom_bond_type
Tb0 N29 2.617 . S
Tb0 N35 2.572 . S
Tb0 O44 2.465 . S
Tb0 O45 2.387 . S
Tb0 O47 2.428 . S
Tb0 O48 2.308 . S
Tb0 O52 2.349 . S
Tb0 O55 2.393 . S
Tb0 C64 2.802 . S
C1 N2 1.379 . S
C1 C4 1.416 . S
C1 C8 1.424 . S
N2 C1 1.379 . S
N2 C5 1.334 . S
N2 Tb11 2.617 . S
C3 C5 1.390 . S
C3 C6 1.339 . S
C3 H23 0.930 . S
C4 C1 1.416 . S
C4 C6 1.416 . S
C4 C10 1.448 . S
C5 N2 1.334 . S
C5 C3 1.390 . S
C5 H16 0.930 . S
C6 C3 1.339 . S
C6 C4 1.416 . S
C6 H27 0.930 . S
C7 C8 1.413 . S
C7 C9 1.427 . S
C7 C13 1.416 . S
C8 C1 1.424 . S
C8 C7 1.413 . S
C8 N12 1.361 . S
C9 C7 1.427 . S
C9 C10 1.328 . S
C9 H24 0.929 . S
C10 C4 1.448 . S
C10 C9 1.328 . S
C10 H25 0.930 . S
Tb11 N2 2.617 . S
Tb11 N12 2.572 . S
Tb11 O46 2.349 . S
Tb11 O49 2.393 . S
Tb11 O50 2.465 . S
Tb11 O51 2.387 . S
Tb11 O53 2.428 . S
Tb11 O54 2.308 . S
Tb11 C75 2.802 . S
N12 C8 1.361 . S
N12 Tb11 2.572 . S
N12 C14 1.340 . S
C13 C7 1.416 . S
C13 C15 1.332 . S
C13 H21 0.931 . S
C14 N12 1.340 . S
C14 C15 1.407 . S
C14 H20 0.930 . S
C15 C13 1.332 . S
C15 C14 1.407 . S
C15 H17 0.929 . S
H16 C5 0.930 . S
H17 C15 0.929 . S
H18 C33 0.930 . S
H19 C40 0.929 . S
H20 C14 0.930 . S
H21 C13 0.931 . S
H22 C36 0.930 . S
H23 C3 0.930 . S
H24 C9 0.929 . S
H25 C10 0.930 . S
H26 C31 0.930 . S
H27 C6 0.930 . S
H28 C39 0.931 . S
N29 Tb0 2.617 . S
N29 C30 1.379 . S
N29 C33 1.334 . S
C30 N29 1.379 . S
C30 C32 1.416 . S
C30 C38 1.424 . S
C31 H26 0.930 . S
C31 C33 1.390 . S
C31 C34 1.339 . S
C32 C30 1.416 . S
C32 C34 1.416 . S
C32 C65 1.448 . S
C33 H18 0.930 . S
C33 N29 1.334 . S
C33 C31 1.390 . S
C34 C31 1.339 . S
C34 C32 1.416 . S
C34 H41 0.930 . S
N35 Tb0 2.572 . S
N35 C36 1.340 . S
N35 C38 1.361 . S
C36 H22 0.930 . S
C36 N35 1.340 . S
C36 C40 1.407 . S
C37 C38 1.413 . S
C37 C39 1.416 . S
C37 C66 1.427 . S
C38 C30 1.424 . S
C38 N35 1.361 . S
C38 C37 1.413 . S
C39 H28 0.931 . S
C39 C37 1.416 . S
C39 C40 1.332 . S
C40 H19 0.929 . S
C40 C36 1.407 . S
C40 C39 1.332 . S
H41 C34 0.930 . S
H42 C65 0.930 . S
H43 C66 0.929 . S
O44 Tb0 2.465 . S
O44 C64 1.264 . S
O45 Tb0 2.387 . S
O45 C56 1.264 . S
O46 Tb11 2.349 . S
O46 C56 1.243 . S
O47 Tb0 2.428 . S
O47 C64 1.256 . S
O48 Tb0 2.308 . S
O48 C63 1.266 . S
O49 Tb11 2.393 . S
O49 C63 1.248 . S
O50 Tb11 2.465 . S
O50 C75 1.264 . S
O51 Tb11 2.387 . S
O51 C67 1.264 . S
O52 Tb0 2.349 . S
O52 C67 1.243 . S
O53 Tb11 2.428 . S
O53 C75 1.256 . S
O54 Tb11 2.308 . S
O54 C74 1.266 . S
O55 Tb0 2.393 . S
O55 C74 1.248 . S
C56 O45 1.264 . S
C56 O46 1.243 . S
C57 C60 1.399 . S
C57 C62 1.383 . S
C57 C64 1.496 . S
C58 C59 1.399 . S
C58 C62 1.389 . S
C59 C58 1.399 . S
C59 C61 1.380 . S
C59 H76 0.929 . S
C60 C57 1.399 . S
C60 C61 1.392 . S
C60 H77 0.929 . S
C61 C59 1.380 . S
C61 C60 1.392 . S
C61 H78 0.929 . S
C62 C57 1.383 . S
C62 C58 1.389 . S
C62 H79 0.931 . S
C63 O48 1.266 . S
C63 O49 1.248 . S
C64 Tb0 2.802 . S
C64 O44 1.264 . S
C64 O47 1.256 . S
C64 C57 1.496 . S
C65 C32 1.448 . S
C65 H42 0.930 . S
C65 C66 1.328 . S
C66 C37 1.427 . S
C66 H43 0.929 . S
C66 C65 1.328 . S
C67 O51 1.264 . S
C67 O52 1.243 . S
C68 C71 1.399 . S
C68 C72 1.383 . S
C68 C75 1.496 . S
C69 C70 1.399 . S
C69 C72 1.389 . S
C70 C69 1.399 . S
C70 C73 1.380 . S
C70 H80 0.929 . S
C71 C68 1.399 . S
C71 C73 1.392 . S
C71 H81 0.929 . S
C72 C68 1.383 . S
C72 C69 1.389 . S
C72 H82 0.931 . S
C73 C70 1.380 . S
C73 C71 1.392 . S
C73 H83 0.929 . S
C74 O54 1.266 . S
C74 O55 1.248 . S
C75 Tb11 2.802 . S
C75 O50 1.264 . S
C75 O53 1.256 . S
C75 C68 1.496 . S
H76 C59 0.929 . S
H77 C60 0.929 . S
H78 C61 0.929 . S
H79 C62 0.931 . S
H80 C70 0.929 . S
H81 C71 0.929 . S
H82 C72 0.931 . S
H83 C73 0.929 . S
Tb84 N113 2.617 . S
Tb84 N119 2.572 . S
Tb84 O128 2.465 . S
Tb84 O129 2.387 . S
Tb84 O131 2.428 . S
Tb84 O132 2.308 . S
Tb84 O136 2.349 . S
Tb84 O139 2.393 . S
Tb84 C148 2.802 . S
C85 N86 1.379 . S
C85 C88 1.416 . S
C85 C92 1.424 . S
N86 C85 1.379 . S
N86 C89 1.334 . S
N86 Tb95 2.617 . S
C87 C89 1.390 . S
C87 C90 1.339 . S
C87 H107 0.930 . S
C88 C85 1.416 . S
C88 C90 1.416 . S
C88 C94 1.448 . S
C89 N86 1.334 . S
C89 C87 1.390 . S
C89 H100 0.930 . S
C90 C87 1.339 . S
C90 C88 1.416 . S
C90 H111 0.930 . S
C91 C92 1.413 . S
C91 C93 1.427 . S
C91 C97 1.416 . S
C92 C85 1.424 . S
C92 C91 1.413 . S
C92 N96 1.361 . S
C93 C91 1.427 . S
C93 C94 1.328 . S
C93 H108 0.929 . S
C94 C88 1.448 . S
C94 C93 1.328 . S
C94 H109 0.930 . S
Tb95 N86 2.617 . S
Tb95 N96 2.572 . S
Tb95 O130 2.349 . S
Tb95 O133 2.393 . S
Tb95 O134 2.465 . S
Tb95 O135 2.387 . S
Tb95 O137 2.428 . S
Tb95 O138 2.308 . S
Tb95 C159 2.802 . S
N96 C92 1.361 . S
N96 Tb95 2.572 . S
N96 C98 1.340 . S
C97 C91 1.416 . S
C97 C99 1.332 . S
C97 H105 0.931 . S
C98 N96 1.340 . S
C98 C99 1.407 . S
C98 H104 0.930 . S
C99 C97 1.332 . S
C99 C98 1.407 . S
C99 H101 0.929 . S
H100 C89 0.930 . S
H101 C99 0.929 . S
H102 C117 0.930 . S
H103 C124 0.929 . S
H104 C98 0.930 . S
H105 C97 0.931 . S
H106 C120 0.930 . S
H107 C87 0.930 . S
H108 C93 0.929 . S
H109 C94 0.930 . S
H110 C115 0.930 . S
H111 C90 0.930 . S
H112 C123 0.931 . S
N113 Tb84 2.617 . S
N113 C114 1.379 . S
N113 C117 1.334 . S
C114 N113 1.379 . S
C114 C116 1.416 . S
C114 C122 1.424 . S
C115 H110 0.930 . S
C115 C117 1.390 . S
C115 C118 1.339 . S
C116 C114 1.416 . S
C116 C118 1.416 . S
C116 C149 1.448 . S
C117 H102 0.930 . S
C117 N113 1.334 . S
C117 C115 1.390 . S
C118 C115 1.339 . S
C118 C116 1.416 . S
C118 H125 0.930 . S
N119 Tb84 2.572 . S
N119 C120 1.340 . S
N119 C122 1.361 . S
C120 H106 0.930 . S
C120 N119 1.340 . S
C120 C124 1.407 . S
C121 C122 1.413 . S
C121 C123 1.416 . S
C121 C150 1.427 . S
C122 C114 1.424 . S
C122 N119 1.361 . S
C122 C121 1.413 . S
C123 H112 0.931 . S
C123 C121 1.416 . S
C123 C124 1.332 . S
C124 H103 0.929 . S
C124 C120 1.407 . S
C124 C123 1.332 . S
H125 C118 0.930 . S
H126 C149 0.930 . S
H127 C150 0.929 . S
O128 Tb84 2.465 . S
O128 C148 1.264 . S
O129 Tb84 2.387 . S
O129 C140 1.264 . S
O130 Tb95 2.349 . S
O130 C140 1.243 . S
O131 Tb84 2.428 . S
O131 C148 1.256 . S
O132 Tb84 2.308 . S
O132 C147 1.266 . S
O133 Tb95 2.393 . S
O133 C147 1.248 . S
O134 Tb95 2.465 . S
O134 C159 1.264 . S
O135 Tb95 2.387 . S
O135 C151 1.264 . S
O136 Tb84 2.349 . S
O136 C151 1.243 . S
O137 Tb95 2.428 . S
O137 C159 1.256 . S
O138 Tb95 2.308 . S
O138 C158 1.266 . S
O139 Tb84 2.393 . S
O139 C158 1.248 . S
C140 O129 1.264 . S
C140 O130 1.243 . S
C141 C144 1.399 . S
C141 C146 1.383 . S
C141 C148 1.496 . S
C142 C143 1.399 . S
C142 C146 1.389 . S
C143 C142 1.399 . S
C143 C145 1.380 . S
C143 H160 0.929 . S
C144 C141 1.399 . S
C144 C145 1.392 . S
C144 H161 0.929 . S
C145 C143 1.380 . S
C145 C144 1.392 . S
C145 H162 0.929 . S
C146 C141 1.383 . S
C146 C142 1.389 . S
C146 H163 0.931 . S
C147 O132 1.266 . S
C147 O133 1.248 . S
C148 Tb84 2.802 . S
C148 O128 1.264 . S
C148 O131 1.256 . S
C148 C141 1.496 . S
C149 C116 1.448 . S
C149 H126 0.930 . S
C149 C150 1.328 . S
C150 C121 1.427 . S
C150 H127 0.929 . S
C150 C149 1.328 . S
C151 O135 1.264 . S
C151 O136 1.243 . S
C152 C155 1.399 . S
C152 C156 1.383 . S
C152 C159 1.496 . S
C153 C154 1.399 . S
C153 C156 1.389 . S
C154 C153 1.399 . S
C154 C157 1.380 . S
C154 H164 0.929 . S
C155 C152 1.399 . S
C155 C157 1.392 . S
C155 H165 0.929 . S
C156 C152 1.383 . S
C156 C153 1.389 . S
C156 H166 0.931 . S
C157 C154 1.380 . S
C157 C155 1.392 . S
C157 H167 0.929 . S
C158 O138 1.266 . S
C158 O139 1.248 . S
C159 Tb95 2.802 . S
C159 O134 1.264 . S
C159 O137 1.256 . S
C159 C152 1.496 . S
H160 C143 0.929 . S
H161 C144 0.929 . S
H162 C145 0.929 . S
H163 C146 0.931 . S
H164 C154 0.929 . S
H165 C155 0.929 . S
H166 C156 0.931 . S
H167 C157 0.929 . S
Tb168 N197 2.617 . S
Tb168 N203 2.572 . S
Tb168 O212 2.465 . S
Tb168 O213 2.387 . S
Tb168 O215 2.428 . S
Tb168 O216 2.308 . S
Tb168 O220 2.349 . S
Tb168 O223 2.393 . S
Tb168 C232 2.802 . S
C169 N170 1.379 . S
C169 C172 1.416 . S
C169 C176 1.424 . S
N170 C169 1.379 . S
N170 C173 1.334 . S
N170 Tb179 2.617 . S
C171 C173 1.390 . S
C171 C174 1.339 . S
C171 H191 0.930 . S
C172 C169 1.416 . S
C172 C174 1.416 . S
C172 C178 1.448 . S
C173 N170 1.334 . S
C173 C171 1.390 . S
C173 H184 0.930 . S
C174 C171 1.339 . S
C174 C172 1.416 . S
C174 H195 0.930 . S
C175 C176 1.413 . S
C175 C177 1.427 . S
C175 C181 1.416 . S
C176 C169 1.424 . S
C176 C175 1.413 . S
C176 N180 1.361 . S
C177 C175 1.427 . S
C177 C178 1.328 . S
C177 H192 0.929 . S
C178 C172 1.448 . S
C178 C177 1.328 . S
C178 H193 0.930 . S
Tb179 N170 2.617 . S
Tb179 N180 2.572 . S
Tb179 O214 2.349 . S
Tb179 O217 2.393 . S
Tb179 O218 2.465 . S
Tb179 O219 2.387 . S
Tb179 O221 2.428 . S
Tb179 O222 2.308 . S
Tb179 C243 2.802 . S
N180 C176 1.361 . S
N180 Tb179 2.572 . S
N180 C182 1.340 . S
C181 C175 1.416 . S
C181 C183 1.332 . S
C181 H189 0.931 . S
C182 N180 1.340 . S
C182 C183 1.407 . S
C182 H188 0.930 . S
C183 C181 1.332 . S
C183 C182 1.407 . S
C183 H185 0.929 . S
H184 C173 0.930 . S
H185 C183 0.929 . S
H186 C201 0.930 . S
H187 C208 0.929 . S
H188 C182 0.930 . S
H189 C181 0.931 . S
H190 C204 0.930 . S
H191 C171 0.930 . S
H192 C177 0.929 . S
H193 C178 0.930 . S
H194 C199 0.930 . S
H195 C174 0.930 . S
H196 C207 0.931 . S
N197 Tb168 2.617 . S
N197 C198 1.379 . S
N197 C201 1.334 . S
C198 N197 1.379 . S
C198 C200 1.416 . S
C198 C206 1.424 . S
C199 H194 0.930 . S
C199 C201 1.390 . S
C199 C202 1.339 . S
C200 C198 1.416 . S
C200 C202 1.416 . S
C200 C233 1.448 . S
C201 H186 0.930 . S
C201 N197 1.334 . S
C201 C199 1.390 . S
C202 C199 1.339 . S
C202 C200 1.416 . S
C202 H209 0.930 . S
N203 Tb168 2.572 . S
N203 C204 1.340 . S
N203 C206 1.361 . S
C204 H190 0.930 . S
C204 N203 1.340 . S
C204 C208 1.407 . S
C205 C206 1.413 . S
C205 C207 1.416 . S
C205 C234 1.427 . S
C206 C198 1.424 . S
C206 N203 1.361 . S
C206 C205 1.413 . S
C207 H196 0.931 . S
C207 C205 1.416 . S
C207 C208 1.332 . S
C208 H187 0.929 . S
C208 C204 1.407 . S
C208 C207 1.332 . S
H209 C202 0.930 . S
H210 C233 0.930 . S
H211 C234 0.929 . S
O212 Tb168 2.465 . S
O212 C232 1.264 . S
O213 Tb168 2.387 . S
O213 C224 1.264 . S
O214 Tb179 2.349 . S
O214 C224 1.243 . S
O215 Tb168 2.428 . S
O215 C232 1.256 . S
O216 Tb168 2.308 . S
O216 C231 1.266 . S
O217 Tb179 2.393 . S
O217 C231 1.248 . S
O218 Tb179 2.465 . S
O218 C243 1.264 . S
O219 Tb179 2.387 . S
O219 C235 1.264 . S
O220 Tb168 2.349 . S
O220 C235 1.243 . S
O221 Tb179 2.428 . S
O221 C243 1.256 . S
O222 Tb179 2.308 . S
O222 C242 1.266 . S
O223 Tb168 2.393 . S
O223 C242 1.248 . S
C224 O213 1.264 . S
C224 O214 1.243 . S
C225 C228 1.399 . S
C225 C230 1.383 . S
C225 C232 1.496 . S
C226 C227 1.399 . S
C226 C230 1.389 . S
C227 C226 1.399 . S
C227 C229 1.380 . S
C227 H244 0.929 . S
C228 C225 1.399 . S
C228 C229 1.392 . S
C228 H245 0.929 . S
C229 C227 1.380 . S
C229 C228 1.392 . S
C229 H246 0.929 . S
C230 C225 1.383 . S
C230 C226 1.389 . S
C230 H247 0.931 . S
C231 O216 1.266 . S
C231 O217 1.248 . S
C232 Tb168 2.802 . S
C232 O212 1.264 . S
C232 O215 1.256 . S
C232 C225 1.496 . S
C233 C200 1.448 . S
C233 H210 0.930 . S
C233 C234 1.328 . S
C234 C205 1.427 . S
C234 H211 0.929 . S
C234 C233 1.328 . S
C235 O219 1.264 . S
C235 O220 1.243 . S
C236 C239 1.399 . S
C236 C240 1.383 . S
C236 C243 1.496 . S
C237 C238 1.399 . S
C237 C240 1.389 . S
C238 C237 1.399 . S
C238 C241 1.380 . S
C238 H248 0.929 . S
C239 C236 1.399 . S
C239 C241 1.392 . S
C239 H249 0.929 . S
C240 C236 1.383 . S
C240 C237 1.389 . S
C240 H250 0.931 . S
C241 C238 1.380 . S
C241 C239 1.392 . S
C241 H251 0.929 . S
C242 O222 1.266 . S
C242 O223 1.248 . S
C243 Tb179 2.802 . S
C243 O218 1.264 . S
C243 O221 1.256 . S
C243 C236 1.496 . S
H244 C227 0.929 . S
H245 C228 0.929 . S
H246 C229 0.929 . S
H247 C230 0.931 . S
H248 C238 0.929 . S
H249 C239 0.929 . S
H250 C240 0.931 . S
H251 C241 0.929 . S
Tb252 N281 2.617 . S
Tb252 N287 2.572 . S
Tb252 O296 2.465 . S
Tb252 O297 2.387 . S
Tb252 O299 2.428 . S
Tb252 O300 2.308 . S
Tb252 O304 2.349 . S
Tb252 O307 2.393 . S
Tb252 C316 2.802 . S
C253 N254 1.379 . S
C253 C256 1.416 . S
C253 C260 1.424 . S
N254 C253 1.379 . S
N254 C257 1.334 . S
N254 Tb263 2.617 . S
C255 C257 1.390 . S
C255 C258 1.339 . S
C255 H275 0.930 . S
C256 C253 1.416 . S
C256 C258 1.416 . S
C256 C262 1.448 . S
C257 N254 1.334 . S
C257 C255 1.390 . S
C257 H268 0.930 . S
C258 C255 1.339 . S
C258 C256 1.416 . S
C258 H279 0.930 . S
C259 C260 1.413 . S
C259 C261 1.427 . S
C259 C265 1.416 . S
C260 C253 1.424 . S
C260 C259 1.413 . S
C260 N264 1.361 . S
C261 C259 1.427 . S
C261 C262 1.328 . S
C261 H276 0.929 . S
C262 C256 1.448 . S
C262 C261 1.328 . S
C262 H277 0.930 . S
Tb263 N254 2.617 . S
Tb263 N264 2.572 . S
Tb263 O298 2.349 . S
Tb263 O301 2.393 . S
Tb263 O302 2.465 . S
Tb263 O303 2.387 . S
Tb263 O305 2.428 . S
Tb263 O306 2.308 . S
Tb263 C327 2.802 . S
N264 C260 1.361 . S
N264 Tb263 2.572 . S
N264 C266 1.340 . S
C265 C259 1.416 . S
C265 C267 1.332 . S
C265 H273 0.931 . S
C266 N264 1.340 . S
C266 C267 1.407 . S
C266 H272 0.930 . S
C267 C265 1.332 . S
C267 C266 1.407 . S
C267 H269 0.929 . S
H268 C257 0.930 . S
H269 C267 0.929 . S
H270 C285 0.930 . S
H271 C292 0.929 . S
H272 C266 0.930 . S
H273 C265 0.931 . S
H274 C288 0.930 . S
H275 C255 0.930 . S
H276 C261 0.929 . S
H277 C262 0.930 . S
H278 C283 0.930 . S
H279 C258 0.930 . S
H280 C291 0.931 . S
N281 Tb252 2.617 . S
N281 C282 1.379 . S
N281 C285 1.334 . S
C282 N281 1.379 . S
C282 C284 1.416 . S
C282 C290 1.424 . S
C283 H278 0.930 . S
C283 C285 1.390 . S
C283 C286 1.339 . S
C284 C282 1.416 . S
C284 C286 1.416 . S
C284 C317 1.448 . S
C285 H270 0.930 . S
C285 N281 1.334 . S
C285 C283 1.390 . S
C286 C283 1.339 . S
C286 C284 1.416 . S
C286 H293 0.930 . S
N287 Tb252 2.572 . S
N287 C288 1.340 . S
N287 C290 1.361 . S
C288 H274 0.930 . S
C288 N287 1.340 . S
C288 C292 1.407 . S
C289 C290 1.413 . S
C289 C291 1.416 . S
C289 C318 1.427 . S
C290 C282 1.424 . S
C290 N287 1.361 . S
C290 C289 1.413 . S
C291 H280 0.931 . S
C291 C289 1.416 . S
C291 C292 1.332 . S
C292 H271 0.929 . S
C292 C288 1.407 . S
C292 C291 1.332 . S
H293 C286 0.930 . S
H294 C317 0.930 . S
H295 C318 0.929 . S
O296 Tb252 2.465 . S
O296 C316 1.264 . S
O297 Tb252 2.387 . S
O297 C308 1.264 . S
O298 Tb263 2.349 . S
O298 C308 1.243 . S
O299 Tb252 2.428 . S
O299 C316 1.256 . S
O300 Tb252 2.308 . S
O300 C315 1.266 . S
O301 Tb263 2.393 . S
O301 C315 1.248 . S
O302 Tb263 2.465 . S
O302 C327 1.264 . S
O303 Tb263 2.387 . S
O303 C319 1.264 . S
O304 Tb252 2.349 . S
O304 C319 1.243 . S
O305 Tb263 2.428 . S
O305 C327 1.256 . S
O306 Tb263 2.308 . S
O306 C326 1.266 . S
O307 Tb252 2.393 . S
O307 C326 1.248 . S
C308 O297 1.264 . S
C308 O298 1.243 . S
C309 C312 1.399 . S
C309 C314 1.383 . S
C309 C316 1.496 . S
C310 C311 1.399 . S
C310 C314 1.389 . S
C311 C310 1.399 . S
C311 C313 1.380 . S
C311 H328 0.929 . S
C312 C309 1.399 . S
C312 C313 1.392 . S
C312 H329 0.929 . S
C313 C311 1.380 . S
C313 C312 1.392 . S
C313 H330 0.929 . S
C314 C309 1.383 . S
C314 C310 1.389 . S
C314 H331 0.931 . S
C315 O300 1.266 . S
C315 O301 1.248 . S
C316 Tb252 2.802 . S
C316 O296 1.264 . S
C316 O299 1.256 . S
C316 C309 1.496 . S
C317 C284 1.448 . S
C317 H294 0.930 . S
C317 C318 1.328 . S
C318 C289 1.427 . S
C318 H295 0.929 . S
C318 C317 1.328 . S
C319 O303 1.264 . S
C319 O304 1.243 . S
C320 C323 1.399 . S
C320 C324 1.383 . S
C320 C327 1.496 . S
C321 C322 1.399 . S
C321 C324 1.389 . S
C322 C321 1.399 . S
C322 C325 1.380 . S
C322 H332 0.929 . S
C323 C320 1.399 . S
C323 C325 1.392 . S
C323 H333 0.929 . S
C324 C320 1.383 . S
C324 C321 1.389 . S
C324 H334 0.931 . S
C325 C322 1.380 . S
C325 C323 1.392 . S
C325 H335 0.929 . S
C326 O306 1.266 . S
C326 O307 1.248 . S
C327 Tb263 2.802 . S
C327 O302 1.264 . S
C327 O305 1.256 . S
C327 C320 1.496 . S
H328 C311 0.929 . S
H329 C312 0.929 . S
H330 C313 0.929 . S
H331 C314 0.931 . S
H332 C322 0.929 . S
H333 C323 0.929 . S
H334 C324 0.931 . S
H335 C325 0.929 . S
Tb336 N365 2.617 . S
Tb336 N371 2.572 . S
Tb336 O380 2.465 . S
Tb336 O381 2.387 . S
Tb336 O383 2.428 . S
Tb336 O384 2.308 . S
Tb336 O388 2.349 . S
Tb336 O391 2.393 . S
Tb336 C400 2.802 . S
C337 N338 1.379 . S
C337 C340 1.416 . S
C337 C344 1.424 . S
N338 C337 1.379 . S
N338 C341 1.334 . S
N338 Tb347 2.617 . S
C339 C341 1.390 . S
C339 C342 1.339 . S
C339 H359 0.930 . S
C340 C337 1.416 . S
C340 C342 1.416 . S
C340 C346 1.448 . S
C341 N338 1.334 . S
C341 C339 1.390 . S
C341 H352 0.930 . S
C342 C339 1.339 . S
C342 C340 1.416 . S
C342 H363 0.930 . S
C343 C344 1.413 . S
C343 C345 1.427 . S
C343 C349 1.416 . S
C344 C337 1.424 . S
C344 C343 1.413 . S
C344 N348 1.361 . S
C345 C343 1.427 . S
C345 C346 1.328 . S
C345 H360 0.929 . S
C346 C340 1.448 . S
C346 C345 1.328 . S
C346 H361 0.930 . S
Tb347 N338 2.617 . S
Tb347 N348 2.572 . S
Tb347 O382 2.349 . S
Tb347 O385 2.393 . S
Tb347 O386 2.465 . S
Tb347 O387 2.387 . S
Tb347 O389 2.428 . S
Tb347 O390 2.308 . S
Tb347 C411 2.802 . S
N348 C344 1.361 . S
N348 Tb347 2.572 . S
N348 C350 1.340 . S
C349 C343 1.416 . S
C349 C351 1.332 . S
C349 H357 0.931 . S
C350 N348 1.340 . S
C350 C351 1.407 . S
C350 H356 0.930 . S
C351 C349 1.332 . S
C351 C350 1.407 . S
C351 H353 0.929 . S
H352 C341 0.930 . S
H353 C351 0.929 . S
H354 C369 0.930 . S
H355 C376 0.929 . S
H356 C350 0.930 . S
H357 C349 0.931 . S
H358 C372 0.930 . S
H359 C339 0.930 . S
H360 C345 0.929 . S
H361 C346 0.930 . S
H362 C367 0.930 . S
H363 C342 0.930 . S
H364 C375 0.931 . S
N365 Tb336 2.617 . S
N365 C366 1.379 . S
N365 C369 1.334 . S
C366 N365 1.379 . S
C366 C368 1.416 1_556 S
C366 C374 1.424 . S
C367 H362 0.930 . S
C367 C369 1.390 1_554 S
C367 C370 1.339 . S
C368 C366 1.416 1_554 S
C368 C370 1.416 . S
C368 C401 1.448 . S
C369 H354 0.930 . S
C369 N365 1.334 . S
C369 C367 1.390 1_556 S
C370 C367 1.339 . S
C370 C368 1.416 . S
C370 H377 0.930 . S
N371 Tb336 2.572 . S
N371 C372 1.340 . S
N371 C374 1.361 . S
C372 H358 0.930 . S
C372 N371 1.340 . S
C372 C376 1.407 . S
C373 C374 1.413 . S
C373 C375 1.416 . S
C373 C402 1.427 1_556 S
C374 C366 1.424 . S
C374 N371 1.361 . S
C374 C373 1.413 . S
C375 H364 0.931 . S
C375 C373 1.416 . S
C375 C376 1.332 . S
C376 H355 0.929 . S
C376 C372 1.407 . S
C376 C375 1.332 . S
H377 C370 0.930 . S
H378 C401 0.930 . S
H379 C402 0.929 . S
O380 Tb336 2.465 . S
O380 C400 1.264 . S
O381 Tb336 2.387 . S
O381 C392 1.264 . S
O382 Tb347 2.349 . S
O382 C392 1.243 . S
O383 Tb336 2.428 . S
O383 C400 1.256 . S
O384 Tb336 2.308 . S
O384 C399 1.266 . S
O385 Tb347 2.393 . S
O385 C399 1.248 . S
O386 Tb347 2.465 . S
O386 C411 1.264 . S
O387 Tb347 2.387 . S
O387 C403 1.264 . S
O388 Tb336 2.349 . S
O388 C403 1.243 . S
O389 Tb347 2.428 . S
O389 C411 1.256 . S
O390 Tb347 2.308 . S
O390 C410 1.266 . S
O391 Tb336 2.393 . S
O391 C410 1.248 . S
C392 O381 1.264 . S
C392 O382 1.243 . S
C393 C396 1.399 . S
C393 C398 1.383 . S
C393 C400 1.496 . S
C394 C395 1.399 . S
C394 C398 1.389 . S
C395 C394 1.399 . S
C395 C397 1.380 . S
C395 H412 0.929 . S
C396 C393 1.399 . S
C396 C397 1.392 . S
C396 H413 0.929 . S
C397 C395 1.380 . S
C397 C396 1.392 . S
C397 H414 0.929 . S
C398 C393 1.383 . S
C398 C394 1.389 . S
C398 H415 0.931 . S
C399 O384 1.266 . S
C399 O385 1.248 . S
C400 Tb336 2.802 . S
C400 O380 1.264 . S
C400 O383 1.256 . S
C400 C393 1.496 . S
C401 C368 1.448 . S
C401 H378 0.930 . S
C401 C402 1.328 . S
C402 C373 1.427 1_554 S
C402 H379 0.929 . S
C402 C401 1.328 . S
C403 O387 1.264 . S
C403 O388 1.243 . S
C404 C407 1.399 . S
C404 C408 1.383 . S
C404 C411 1.496 . S
C405 C406 1.399 . S
C405 C408 1.389 . S
C406 C405 1.399 . S
C406 C409 1.380 . S
C406 H416 0.929 . S
C407 C404 1.399 . S
C407 C409 1.392 . S
C407 H417 0.929 . S
C408 C404 1.383 . S
C408 C405 1.389 . S
C408 H418 0.931 . S
C409 C406 1.380 . S
C409 C407 1.392 . S
C409 H419 0.929 . S
C410 O390 1.266 . S
C410 O391 1.248 . S
C411 Tb347 2.802 . S
C411 O386 1.264 . S
C411 O389 1.256 . S
C411 C404 1.496 . S
H412 C395 0.929 . S
H413 C396 0.929 . S
H414 C397 0.929 . S
H415 C398 0.931 . S
H416 C406 0.929 . S
H417 C407 0.929 . S
H418 C408 0.931 . S
H419 C409 0.929 . S
Tb420 N449 2.617 . S
Tb420 N455 2.572 . S
Tb420 O464 2.465 . S
Tb420 O465 2.387 . S
Tb420 O467 2.428 . S
Tb420 O468 2.308 . S
Tb420 O472 2.349 . S
Tb420 O475 2.393 . S
Tb420 C484 2.802 . S
C421 N422 1.379 . S
C421 C424 1.416 . S
C421 C428 1.424 . S
N422 C421 1.379 . S
N422 C425 1.334 . S
N422 Tb431 2.617 . S
C423 C425 1.390 . S
C423 C426 1.339 . S
C423 H443 0.930 . S
C424 C421 1.416 . S
C424 C426 1.416 . S
C424 C430 1.448 . S
C425 N422 1.334 . S
C425 C423 1.390 . S
C425 H436 0.930 . S
C426 C423 1.339 . S
C426 C424 1.416 . S
C426 H447 0.930 . S
C427 C428 1.413 . S
C427 C429 1.427 . S
C427 C433 1.416 . S
C428 C421 1.424 . S
C428 C427 1.413 . S
C428 N432 1.361 . S
C429 C427 1.427 . S
C429 C430 1.328 . S
C429 H444 0.929 . S
C430 C424 1.448 . S
C430 C429 1.328 . S
C430 H445 0.930 . S
Tb431 N422 2.617 . S
Tb431 N432 2.572 . S
Tb431 O466 2.349 . S
Tb431 O469 2.393 . S
Tb431 O470 2.465 . S
Tb431 O471 2.387 . S
Tb431 O473 2.428 . S
Tb431 O474 2.308 . S
Tb431 C495 2.802 . S
N432 C428 1.361 . S
N432 Tb431 2.572 . S
N432 C434 1.340 . S
C433 C427 1.416 . S
C433 C435 1.332 . S
C433 H441 0.931 . S
C434 N432 1.340 . S
C434 C435 1.407 . S
C434 H440 0.930 . S
C435 C433 1.332 . S
C435 C434 1.407 . S
C435 H437 0.929 . S
H436 C425 0.930 . S
H437 C435 0.929 . S
H438 C453 0.930 . S
H439 C460 0.929 . S
H440 C434 0.930 . S
H441 C433 0.931 . S
H442 C456 0.930 . S
H443 C423 0.930 . S
H444 C429 0.929 . S
H445 C430 0.930 . S
H446 C451 0.930 . S
H447 C426 0.930 . S
H448 C459 0.931 . S
N449 Tb420 2.617 . S
N449 C450 1.379 . S
N449 C453 1.334 . S
C450 N449 1.379 . S
C450 C452 1.416 1_554 S
C450 C458 1.424 . S
C451 H446 0.930 . S
C451 C453 1.390 1_556 S
C451 C454 1.339 . S
C452 C450 1.416 1_556 S
C452 C454 1.416 . S
C452 C485 1.448 . S
C453 H438 0.930 . S
C453 N449 1.334 . S
C453 C451 1.390 1_554 S
C454 C451 1.339 . S
C454 C452 1.416 . S
C454 H461 0.930 . S
N455 Tb420 2.572 . S
N455 C456 1.340 . S
N455 C458 1.361 . S
C456 H442 0.930 . S
C456 N455 1.340 . S
C456 C460 1.407 . S
C457 C458 1.413 . S
C457 C459 1.416 . S
C457 C486 1.427 1_554 S
C458 C450 1.424 . S
C458 N455 1.361 . S
C458 C457 1.413 . S
C459 H448 0.931 . S
C459 C457 1.416 . S
C459 C460 1.332 . S
C460 H439 0.929 . S
C460 C456 1.407 . S
C460 C459 1.332 . S
H461 C454 0.930 . S
H462 C485 0.930 . S
H463 C486 0.929 . S
O464 Tb420 2.465 . S
O464 C484 1.264 . S
O465 Tb420 2.387 . S
O465 C476 1.264 . S
O466 Tb431 2.349 . S
O466 C476 1.243 . S
O467 Tb420 2.428 . S
O467 C484 1.256 . S
O468 Tb420 2.308 . S
O468 C483 1.266 . S
O469 Tb431 2.393 . S
O469 C483 1.248 . S
O470 Tb431 2.465 . S
O470 C495 1.264 . S
O471 Tb431 2.387 . S
O471 C487 1.264 . S
O472 Tb420 2.349 . S
O472 C487 1.243 . S
O473 Tb431 2.428 . S
O473 C495 1.256 . S
O474 Tb431 2.308 . S
O474 C494 1.266 . S
O475 Tb420 2.393 . S
O475 C494 1.248 . S
C476 O465 1.264 . S
C476 O466 1.243 . S
C477 C480 1.399 . S
C477 C482 1.383 . S
C477 C484 1.496 . S
C478 C479 1.399 . S
C478 C482 1.389 . S
C479 C478 1.399 . S
C479 C481 1.380 . S
C479 H496 0.929 . S
C480 C477 1.399 . S
C480 C481 1.392 . S
C480 H497 0.929 . S
C481 C479 1.380 . S
C481 C480 1.392 . S
C481 H498 0.929 . S
C482 C477 1.383 . S
C482 C478 1.389 . S
C482 H499 0.931 . S
C483 O468 1.266 . S
C483 O469 1.248 . S
C484 Tb420 2.802 . S
C484 O464 1.264 . S
C484 O467 1.256 . S
C484 C477 1.496 . S
C485 C452 1.448 . S
C485 H462 0.930 . S
C485 C486 1.328 . S
C486 C457 1.427 1_556 S
C486 H463 0.929 . S
C486 C485 1.328 . S
C487 O471 1.264 . S
C487 O472 1.243 . S
C488 C491 1.399 . S
C488 C492 1.383 . S
C488 C495 1.496 . S
C489 C490 1.399 . S
C489 C492 1.389 . S
C490 C489 1.399 . S
C490 C493 1.380 . S
C490 H500 0.929 . S
C491 C488 1.399 . S
C491 C493 1.392 . S
C491 H501 0.929 . S
C492 C488 1.383 . S
C492 C489 1.389 . S
C492 H502 0.931 . S
C493 C490 1.380 . S
C493 C491 1.392 . S
C493 H503 0.929 . S
C494 O474 1.266 . S
C494 O475 1.248 . S
C495 Tb431 2.802 . S
C495 O470 1.264 . S
C495 O473 1.256 . S
C495 C488 1.496 . S
H496 C479 0.929 . S
H497 C480 0.929 . S
H498 C481 0.929 . S
H499 C482 0.931 . S
H500 C490 0.929 . S
H501 C491 0.929 . S
H502 C492 0.931 . S
H503 C493 0.929 . S
Tb504 N533 2.617 . S
Tb504 N539 2.572 . S
Tb504 O548 2.465 . S
Tb504 O549 2.387 . S
Tb504 O551 2.428 . S
Tb504 O552 2.308 . S
Tb504 O556 2.349 . S
Tb504 O559 2.393 . S
Tb504 C568 2.802 . S
C505 N506 1.379 . S
C505 C508 1.416 . S
C505 C512 1.424 . S
N506 C505 1.379 . S
N506 C509 1.334 . S
N506 Tb515 2.617 . S
C507 C509 1.390 . S
C507 C510 1.339 . S
C507 H527 0.930 . S
C508 C505 1.416 . S
C508 C510 1.416 . S
C508 C514 1.448 . S
C509 N506 1.334 . S
C509 C507 1.390 . S
C509 H520 0.930 . S
C510 C507 1.339 . S
C510 C508 1.416 . S
C510 H531 0.930 . S
C511 C512 1.413 . S
C511 C513 1.427 . S
C511 C517 1.416 . S
C512 C505 1.424 . S
C512 C511 1.413 . S
C512 N516 1.361 . S
C513 C511 1.427 . S
C513 C514 1.328 . S
C513 H528 0.929 . S
C514 C508 1.448 . S
C514 C513 1.328 . S
C514 H529 0.930 . S
Tb515 N506 2.617 . S
Tb515 N516 2.572 . S
Tb515 O550 2.349 . S
Tb515 O553 2.393 . S
Tb515 O554 2.465 . S
Tb515 O555 2.387 . S
Tb515 O557 2.428 . S
Tb515 O558 2.308 . S
Tb515 C579 2.802 . S
N516 C512 1.361 . S
N516 Tb515 2.572 . S
N516 C518 1.340 . S
C517 C511 1.416 . S
C517 C519 1.332 . S
C517 H525 0.931 . S
C518 N516 1.340 . S
C518 C519 1.407 . S
C518 H524 0.930 . S
C519 C517 1.332 . S
C519 C518 1.407 . S
C519 H521 0.929 . S
H520 C509 0.930 . S
H521 C519 0.929 . S
H522 C537 0.930 . S
H523 C544 0.929 . S
H524 C518 0.930 . S
H525 C517 0.931 . S
H526 C540 0.930 . S
H527 C507 0.930 . S
H528 C513 0.929 . S
H529 C514 0.930 . S
H530 C535 0.930 . S
H531 C510 0.930 . S
H532 C543 0.931 . S
N533 Tb504 2.617 . S
N533 C534 1.379 . S
N533 C537 1.334 . S
C534 N533 1.379 . S
C534 C536 1.416 1_556 S
C534 C542 1.424 . S
C535 H530 0.930 . S
C535 C537 1.390 1_554 S
C535 C538 1.339 . S
C536 C534 1.416 1_554 S
C536 C538 1.416 . S
C536 C569 1.448 . S
C537 H522 0.930 . S
C537 N533 1.334 . S
C537 C535 1.390 1_556 S
C538 C535 1.339 . S
C538 C536 1.416 . S
C538 H545 0.930 . S
N539 Tb504 2.572 . S
N539 C540 1.340 . S
N539 C542 1.361 . S
C540 H526 0.930 . S
C540 N539 1.340 . S
C540 C544 1.407 . S
C541 C542 1.413 . S
C541 C543 1.416 . S
C541 C570 1.427 1_556 S
C542 C534 1.424 . S
C542 N539 1.361 . S
C542 C541 1.413 . S
C543 H532 0.931 . S
C543 C541 1.416 . S
C543 C544 1.332 . S
C544 H523 0.929 . S
C544 C540 1.407 . S
C544 C543 1.332 . S
H545 C538 0.930 . S
H546 C569 0.930 . S
H547 C570 0.929 . S
O548 Tb504 2.465 . S
O548 C568 1.264 . S
O549 Tb504 2.387 . S
O549 C560 1.264 . S
O550 Tb515 2.349 . S
O550 C560 1.243 . S
O551 Tb504 2.428 . S
O551 C568 1.256 . S
O552 Tb504 2.308 . S
O552 C567 1.266 . S
O553 Tb515 2.393 . S
O553 C567 1.248 . S
O554 Tb515 2.465 . S
O554 C579 1.264 . S
O555 Tb515 2.387 . S
O555 C571 1.264 . S
O556 Tb504 2.349 . S
O556 C571 1.243 . S
O557 Tb515 2.428 . S
O557 C579 1.256 . S
O558 Tb515 2.308 . S
O558 C578 1.266 . S
O559 Tb504 2.393 . S
O559 C578 1.248 . S
C560 O549 1.264 . S
C560 O550 1.243 . S
C561 C564 1.399 . S
C561 C566 1.383 . S
C561 C568 1.496 . S
C562 C563 1.399 . S
C562 C566 1.389 . S
C563 C562 1.399 . S
C563 C565 1.380 . S
C563 H580 0.929 . S
C564 C561 1.399 . S
C564 C565 1.392 . S
C564 H581 0.929 . S
C565 C563 1.380 . S
C565 C564 1.392 . S
C565 H582 0.929 . S
C566 C561 1.383 . S
C566 C562 1.389 . S
C566 H583 0.931 . S
C567 O552 1.266 . S
C567 O553 1.248 . S
C568 Tb504 2.802 . S
C568 O548 1.264 . S
C568 O551 1.256 . S
C568 C561 1.496 . S
C569 C536 1.448 . S
C569 H546 0.930 . S
C569 C570 1.328 . S
C570 C541 1.427 1_554 S
C570 H547 0.929 . S
C570 C569 1.328 . S
C571 O555 1.264 . S
C571 O556 1.243 . S
C572 C575 1.399 . S
C572 C576 1.383 . S
C572 C579 1.496 . S
C573 C574 1.399 . S
C573 C576 1.389 . S
C574 C573 1.399 . S
C574 C577 1.380 . S
C574 H584 0.929 . S
C575 C572 1.399 . S
C575 C577 1.392 . S
C575 H585 0.929 . S
C576 C572 1.383 . S
C576 C573 1.389 . S
C576 H586 0.931 . S
C577 C574 1.380 . S
C577 C575 1.392 . S
C577 H587 0.929 . S
C578 O558 1.266 . S
C578 O559 1.248 . S
C579 Tb515 2.802 . S
C579 O554 1.264 . S
C579 O557 1.256 . S
C579 C572 1.496 . S
H580 C563 0.929 . S
H581 C564 0.929 . S
H582 C565 0.929 . S
H583 C566 0.931 . S
H584 C574 0.929 . S
H585 C575 0.929 . S
H586 C576 0.931 . S
H587 C577 0.929 . S
Tb588 N617 2.617 . S
Tb588 N623 2.572 . S
Tb588 O632 2.465 . S
Tb588 O633 2.387 . S
Tb588 O635 2.428 . S
Tb588 O636 2.308 . S
Tb588 O640 2.349 . S
Tb588 O643 2.393 . S
Tb588 C652 2.802 . S
C589 N590 1.379 . S
C589 C592 1.416 1_554 S
C589 C596 1.424 . S
N590 C589 1.379 . S
N590 C593 1.334 . S
N590 Tb599 2.617 . S
C591 C593 1.390 1_556 S
C591 C594 1.339 . S
C591 H611 0.930 . S
C592 C589 1.416 1_556 S
C592 C594 1.416 . S
C592 C598 1.448 . S
C593 N590 1.334 . S
C593 C591 1.390 1_554 S
C593 H604 0.930 . S
C594 C591 1.339 . S
C594 C592 1.416 . S
C594 H615 0.930 . S
C595 C596 1.413 . S
C595 C597 1.427 1_554 S
C595 C601 1.416 . S
C596 C589 1.424 . S
C596 C595 1.413 . S
C596 N600 1.361 . S
C597 C595 1.427 1_556 S
C597 C598 1.328 . S
C597 H612 0.929 . S
C598 C592 1.448 . S
C598 C597 1.328 . S
C598 H613 0.930 . S
Tb599 N590 2.617 . S
Tb599 N600 2.572 . S
Tb599 O634 2.349 . S
Tb599 O637 2.393 . S
Tb599 O638 2.465 . S
Tb599 O639 2.387 . S
Tb599 O641 2.428 . S
Tb599 O642 2.308 . S
Tb599 C663 2.802 . S
N600 C596 1.361 . S
N600 Tb599 2.572 . S
N600 C602 1.340 . S
C601 C595 1.416 . S
C601 C603 1.332 . S
C601 H609 0.931 . S
C602 N600 1.340 . S
C602 C603 1.407 . S
C602 H608 0.930 . S
C603 C601 1.332 . S
C603 C602 1.407 . S
C603 H605 0.929 . S
H604 C593 0.930 . S
H605 C603 0.929 . S
H606 C621 0.930 . S
H607 C628 0.929 . S
H608 C602 0.930 . S
H609 C601 0.931 . S
H610 C624 0.930 . S
H611 C591 0.930 . S
H612 C597 0.929 . S
H613 C598 0.930 . S
H614 C619 0.930 . S
H615 C594 0.930 . S
H616 C627 0.931 . S
N617 Tb588 2.617 . S
N617 C618 1.379 . S
N617 C621 1.334 . S
C618 N617 1.379 . S
C618 C620 1.416 . S
C618 C626 1.424 . S
C619 H614 0.930 . S
C619 C621 1.390 . S
C619 C622 1.339 . S
C620 C618 1.416 . S
C620 C622 1.416 . S
C620 C653 1.448 . S
C621 H606 0.930 . S
C621 N617 1.334 . S
C621 C619 1.390 . S
C622 C619 1.339 . S
C622 C620 1.416 . S
C622 H629 0.930 . S
N623 Tb588 2.572 . S
N623 C624 1.340 . S
N623 C626 1.361 . S
C624 H610 0.930 . S
C624 N623 1.340 . S
C624 C628 1.407 . S
C625 C626 1.413 . S
C625 C627 1.416 . S
C625 C654 1.427 . S
C626 C618 1.424 . S
C626 N623 1.361 . S
C626 C625 1.413 . S
C627 H616 0.931 . S
C627 C625 1.416 . S
C627 C628 1.332 . S
C628 H607 0.929 . S
C628 C624 1.407 . S
C628 C627 1.332 . S
H629 C622 0.930 . S
H630 C653 0.930 . S
H631 C654 0.929 . S
O632 Tb588 2.465 . S
O632 C652 1.264 . S
O633 Tb588 2.387 . S
O633 C644 1.264 . S
O634 Tb599 2.349 . S
O634 C644 1.243 . S
O635 Tb588 2.428 . S
O635 C652 1.256 . S
O636 Tb588 2.308 . S
O636 C651 1.266 . S
O637 Tb599 2.393 . S
O637 C651 1.248 . S
O638 Tb599 2.465 . S
O638 C663 1.264 . S
O639 Tb599 2.387 . S
O639 C655 1.264 . S
O640 Tb588 2.349 . S
O640 C655 1.243 . S
O641 Tb599 2.428 . S
O641 C663 1.256 . S
O642 Tb599 2.308 . S
O642 C662 1.266 . S
O643 Tb588 2.393 . S
O643 C662 1.248 . S
C644 O633 1.264 . S
C644 O634 1.243 . S
C645 C648 1.399 . S
C645 C650 1.383 . S
C645 C652 1.496 . S
C646 C647 1.399 . S
C646 C650 1.389 . S
C647 C646 1.399 . S
C647 C649 1.380 . S
C647 H664 0.929 . S
C648 C645 1.399 . S
C648 C649 1.392 . S
C648 H665 0.929 . S
C649 C647 1.380 . S
C649 C648 1.392 . S
C649 H666 0.929 . S
C650 C645 1.383 . S
C650 C646 1.389 . S
C650 H667 0.931 . S
C651 O636 1.266 . S
C651 O637 1.248 . S
C652 Tb588 2.802 . S
C652 O632 1.264 . S
C652 O635 1.256 . S
C652 C645 1.496 . S
C653 C620 1.448 . S
C653 H630 0.930 . S
C653 C654 1.328 . S
C654 C625 1.427 . S
C654 H631 0.929 . S
C654 C653 1.328 . S
C655 O639 1.264 . S
C655 O640 1.243 . S
C656 C659 1.399 . S
C656 C660 1.383 . S
C656 C663 1.496 . S
C657 C658 1.399 . S
C657 C660 1.389 . S
C658 C657 1.399 . S
C658 C661 1.380 . S
C658 H668 0.929 . S
C659 C656 1.399 . S
C659 C661 1.392 . S
C659 H669 0.929 . S
C660 C656 1.383 . S
C660 C657 1.389 . S
C660 H670 0.931 . S
C661 C658 1.380 . S
C661 C659 1.392 . S
C661 H671 0.929 . S
C662 O642 1.266 . S
C662 O643 1.248 . S
C663 Tb599 2.802 . S
C663 O638 1.264 . S
C663 O641 1.256 . S
C663 C656 1.496 . S
H664 C647 0.929 . S
H665 C648 0.929 . S
H666 C649 0.929 . S
H667 C650 0.931 . S
H668 C658 0.929 . S
H669 C659 0.929 . S
H670 C660 0.931 . S
H671 C661 0.929 . S
H672 C678 0.930 . S
H673 C682 0.930 . S
H674 C687 0.929 . S
H675 C685 0.929 . S
H676 C680 0.929 . S
H677 C686 0.929 . S
C678 H672 0.930 . S
C678 C679 1.367 . S
C678 C686 1.378 . S
C679 C678 1.367 . S
C679 C687 1.433 . S
C680 H676 0.929 . S
C680 C682 1.378 . S
C680 C684 1.361 . S
C681 C684 1.448 1_545 S
C681 C686 1.350 . S
C681 N689 1.427 . S
C682 H673 0.930 . S
C682 C680 1.378 . S
C682 C683 1.367 . S
C683 C682 1.367 . S
C683 C685 1.433 . S
C684 C680 1.361 . S
C684 C681 1.448 1_565 S
C684 N688 1.431 . S
C685 H675 0.929 . S
C685 C683 1.433 . S
C685 N688 1.384 . S
C686 H677 0.929 . S
C686 C678 1.378 . S
C686 C681 1.350 . S
C687 H674 0.929 . S
C687 C679 1.433 . S
C687 N689 1.384 . S
N688 C684 1.431 . S
N688 C685 1.384 . S
N689 C681 1.427 . S
N689 C687 1.384 . S
H690 C696 0.930 . S
H691 C700 0.930 . S
H692 C705 0.929 . S
H693 C703 0.929 . S
H694 C698 0.929 . S
H695 C704 0.929 . S
C696 H690 0.930 . S
C696 C697 1.367 . S
C696 C704 1.378 . S
C697 C696 1.367 . S
C697 C705 1.433 . S
C698 H694 0.929 . S
C698 C700 1.378 . S
C698 C702 1.363 . S
C699 C702 1.445 1_455 S
C699 C704 1.350 . S
C699 N707 1.427 . S
C700 H691 0.930 . S
C700 C698 1.378 . S
C700 C701 1.367 . S
C701 C700 1.367 . S
C701 C703 1.433 . S
C702 C698 1.363 . S
C702 C699 1.445 1_655 S
C702 N706 1.431 . S
C703 H693 0.929 . S
C703 C701 1.433 . S
C703 N706 1.384 . S
C704 H695 0.929 . S
C704 C696 1.378 . S
C704 C699 1.350 . S
C705 H692 0.929 . S
C705 C697 1.433 . S
C705 N707 1.384 . S
N706 C702 1.431 . S
N706 C703 1.384 . S
N707 C699 1.427 . S
N707 C705 1.384 . S
H708 C714 0.930 . S
H709 C718 0.930 . S
H710 C723 0.929 . S
H711 C721 0.929 . S
H712 C716 0.928 1_565 S
H713 C722 0.929 . S
C714 H708 0.930 . S
C714 C715 1.367 . S
C714 C722 1.378 . S
C715 C714 1.367 . S
C715 C723 1.433 . S
C716 H712 0.928 1_545 S
C716 C718 1.378 . S
C716 C720 1.350 1_545 S
C717 C720 1.466 . S
C717 C722 1.350 . S
C717 N725 1.427 . S
C718 H709 0.930 . S
C718 C716 1.378 . S
C718 C719 1.367 . S
C719 C718 1.367 . S
C719 C721 1.433 . S
C720 C716 1.350 1_565 S
C720 C717 1.466 . S
C720 N724 1.424 1_565 S
C721 H711 0.929 . S
C721 C719 1.433 . S
C721 N724 1.384 . S
C722 H713 0.929 . S
C722 C714 1.378 . S
C722 C717 1.350 . S
C723 H710 0.929 . S
C723 C715 1.433 . S
C723 N725 1.384 . S
N724 C720 1.424 1_545 S
N724 C721 1.384 . S
N725 C717 1.427 . S
N725 C723 1.384 . S
H726 C732 0.930 . S
H727 C736 0.930 . S
H728 C741 0.929 . S
H729 C739 0.929 . S
H730 C734 0.929 . S
H731 C740 0.929 . S
C732 H726 0.930 . S
C732 C733 1.367 . S
C732 C740 1.378 . S
C733 C732 1.367 . S
C733 C741 1.433 . S
C734 H730 0.929 . S
C734 C736 1.378 . S
C734 C738 1.350 . S
C735 C738 1.464 . S
C735 C740 1.349 1_655 S
C735 N743 1.427 1_655 S
C736 H727 0.930 . S
C736 C734 1.378 . S
C736 C737 1.367 . S
C737 C736 1.367 . S
C737 C739 1.433 . S
C738 C734 1.350 . S
C738 C735 1.464 . S
C738 N742 1.427 . S
C739 H729 0.929 . S
C739 C737 1.433 . S
C739 N742 1.384 . S
C740 H731 0.929 . S
C740 C732 1.378 . S
C740 C735 1.349 1_455 S
C741 H728 0.929 . S
C741 C733 1.433 . S
C741 N743 1.384 . S
N742 C738 1.427 . S
N742 C739 1.384 . S
N743 C735 1.427 1_455 S
N743 C741 1.384 . S
H744 C750 0.930 . S
H745 C754 0.930 . S
H746 C759 0.929 . S
H747 C757 0.919 1_554 S
H748 C752 0.929 . S
H749 C758 0.929 . S
C750 H744 0.930 . S
C750 C751 1.367 1_554 S
C750 C758 1.378 . S
C751 C750 1.367 1_556 S
C751 C759 1.433 . S
C752 H748 0.929 . S
C752 C754 1.378 . S
C752 C756 1.350 . S
C753 C756 1.463 . S
C753 C758 1.350 1_556 S
C753 N761 1.427 . S
C754 H745 0.930 . S
C754 C752 1.378 . S
C754 C755 1.367 . S
C755 C754 1.367 . S
C755 C757 1.446 . S
C756 C752 1.350 . S
C756 C753 1.463 . S
C756 N760 1.427 1_556 S
C757 H747 0.919 1_556 S
C757 C755 1.446 . S
C757 N760 1.381 1_556 S
C758 H749 0.929 . S
C758 C750 1.378 . S
C758 C753 1.350 1_554 S
C759 H746 0.929 . S
C759 C751 1.433 . S
C759 N761 1.384 . S
N760 C756 1.427 1_554 S
N760 C757 1.381 1_554 S
N761 C753 1.427 . S
N761 C759 1.384 . S
H762 C768 0.930 . S
H763 C772 0.930 . S
H764 C777 0.929 . S
H765 C775 0.929 1_556 S
H766 C770 0.929 . S
H767 C776 0.929 . S
C768 H762 0.930 . S
C768 C769 1.381 . S
C768 C776 1.378 . S
C769 C768 1.381 . S
C769 C777 1.415 1_556 S
C770 H766 0.929 . S
C770 C772 1.378 . S
C770 C774 1.350 . S
C771 C774 1.463 . S
C771 C776 1.350 1_554 S
C771 N779 1.427 . S
C772 H763 0.930 . S
C772 C770 1.378 . S
C772 C773 1.367 . S
C773 C772 1.367 . S
C773 C775 1.433 . S
C774 C770 1.350 . S
C774 C771 1.463 . S
C774 N778 1.427 1_554 S
C775 H765 0.929 1_554 S
C775 C773 1.433 . S
C775 N778 1.384 1_554 S
C776 H767 0.929 . S
C776 C768 1.378 . S
C776 C771 1.350 1_556 S
C777 H764 0.929 . S
C777 C769 1.415 1_554 S
C777 N779 1.384 . S
N778 C774 1.427 1_556 S
N778 C775 1.384 1_556 S
N779 C771 1.427 . S
N779 C777 1.384 . S
H780 C786 0.930 . S
H781 C790 0.930 1_554 S
H782 C795 0.929 . S
H783 C793 0.929 . S
H784 C788 0.929 . S
H785 C794 0.929 . S
C786 H780 0.930 . S
C786 C787 1.388 . S
C786 C794 1.378 . S
C787 C786 1.388 . S
C787 C795 1.416 1_556 S
C788 H784 0.929 . S
C788 C790 1.378 1_554 S
C788 C792 1.350 1_554 S
C789 C792 1.463 . S
C789 C794 1.350 . S
C789 N797 1.427 1_556 S
C790 H781 0.930 1_556 S
C790 C788 1.378 1_556 S
C790 C791 1.367 . S
C791 C790 1.367 . S
C791 C793 1.433 . S
C792 C788 1.350 1_556 S
C792 C789 1.463 . S
C792 N796 1.427 . S
C793 H783 0.929 . S
C793 C791 1.433 . S
C793 N796 1.384 . S
C794 H785 0.929 . S
C794 C786 1.378 . S
C794 C789 1.350 . S
C795 H782 0.929 . S
C795 C787 1.416 1_554 S
C795 N797 1.384 . S
N796 C792 1.427 . S
N796 C793 1.384 . S
N797 C789 1.427 1_554 S
N797 C795 1.384 . S
H798 C804 0.926 1_556 S
H799 C808 0.930 . S
H800 C813 0.929 . S
H801 C811 0.929 . S
H802 C806 0.929 . S
H803 C812 0.929 . S
C804 H798 0.926 1_554 S
C804 C805 1.372 . S
C804 C812 1.377 1_554 S
C805 C804 1.372 . S
C805 C813 1.433 . S
C806 H802 0.929 . S
C806 C808 1.378 . S
C806 C810 1.350 . S
C807 C810 1.463 . S
C807 C812 1.350 1_554 S
C807 N815 1.427 . S
C808 H799 0.930 . S
C808 C806 1.378 . S
C808 C809 1.367 . S
C809 C808 1.367 . S
C809 C811 1.433 1_554 S
C810 C806 1.350 . S
C810 C807 1.463 . S
C810 N814 1.427 1_554 S
C811 H801 0.929 . S
C811 C809 1.433 1_556 S
C811 N814 1.384 . S
C812 H803 0.929 . S
C812 C804 1.377 1_556 S
C812 C807 1.350 1_556 S
C813 H800 0.929 . S
C813 C805 1.433 . S
C813 N815 1.384 . S
N814 C810 1.427 1_556 S
N814 C811 1.384 . S
N815 C807 1.427 . S
N815 C813 1.384 . S
H816 C822 0.930 . S
H817 C826 0.930 . S
H818 C831 0.929 . S
H819 C829 0.929 . S
H820 C824 0.929 . S
H821 C830 0.929 . S
C822 H816 0.930 . S
C822 C823 1.367 . S
C822 C830 1.378 . S
C823 C822 1.367 . S
C823 C831 1.433 . S
C824 H820 0.929 . S
C824 C826 1.378 . S
C824 C828 1.350 . S
C825 C828 1.463 . S
C825 C830 1.350 . S
C825 N833 1.427 . S
C826 H817 0.930 . S
C826 C824 1.378 . S
C826 C827 1.367 . S
C827 C826 1.367 . S
C827 C829 1.433 . S
C828 C824 1.350 . S
C828 C825 1.463 . S
C828 N832 1.427 . S
C829 H819 0.929 . S
C829 C827 1.433 . S
C829 N832 1.384 . S
C830 H821 0.929 . S
C830 C822 1.378 . S
C830 C825 1.350 . S
C831 H818 0.929 . S
C831 C823 1.433 . S
C831 N833 1.384 . S
N832 C828 1.427 . S
N832 C829 1.384 . S
N833 C825 1.427 . S
N833 C831 1.384 . S
H834 C840 0.930 . S
H835 C844 0.930 . S
H836 C849 0.929 . S
H837 C847 0.929 . S
H838 C842 0.929 . S
H839 C848 0.929 . S
C840 H834 0.930 . S
C840 C841 1.367 . S
C840 C848 1.378 . S
C841 C840 1.367 . S
C841 C849 1.433 . S
C842 H838 0.929 . S
C842 C844 1.378 . S
C842 C846 1.350 . S
C843 C846 1.463 . S
C843 C848 1.350 . S
C843 N851 1.427 . S
C844 H835 0.930 . S
C844 C842 1.378 . S
C844 C845 1.367 . S
C845 C844 1.367 . S
C845 C847 1.433 . S
C846 C842 1.350 . S
C846 C843 1.463 . S
C846 N850 1.427 . S
C847 H837 0.929 . S
C847 C845 1.433 . S
C847 N850 1.384 . S
C848 H839 0.929 . S
C848 C840 1.378 . S
C848 C843 1.350 . S
C849 H836 0.929 . S
C849 C841 1.433 . S
C849 N851 1.384 . S
N850 C846 1.427 . S
N850 C847 1.384 . S
N851 C843 1.427 . S
N851 C849 1.384 . S
H852 C858 0.930 . S
H853 C862 0.930 . S
H854 C867 0.929 . S
H855 C865 0.929 . S
H856 C860 0.929 . S
H857 C866 0.929 . S
C858 H852 0.930 . S
C858 C859 1.367 . S
C858 C866 1.378 . S
C859 C858 1.367 . S
C859 C867 1.433 . S
C860 H856 0.929 . S
C860 C862 1.378 . S
C860 C864 1.350 . S
C861 C864 1.463 . S
C861 C866 1.350 . S
C861 N869 1.427 . S
C862 H853 0.930 . S
C862 C860 1.378 . S
C862 C863 1.367 . S
C863 C862 1.367 . S
C863 C865 1.433 . S
C864 C860 1.350 . S
C864 C861 1.463 . S
C864 N868 1.427 . S
C865 H855 0.929 . S
C865 C863 1.433 . S
C865 N868 1.384 . S
C866 H857 0.929 . S
C866 C858 1.378 . S
C866 C861 1.350 . S
C867 H854 0.929 . S
C867 C859 1.433 . S
C867 N869 1.384 . S
N868 C864 1.427 . S
N868 C865 1.384 . S
N869 C861 1.427 . S
N869 C867 1.384 . S
H870 C876 0.930 . S
H871 C880 0.930 . S
H872 C885 0.929 . S
H873 C883 0.929 . S
H874 C878 0.929 . S
H875 C884 0.929 . S
C876 H870 0.930 . S
C876 C877 1.367 . S
C876 C884 1.378 . S
C877 C876 1.367 . S
C877 C885 1.433 . S
C878 H874 0.929 . S
C878 C880 1.378 . S
C878 C882 1.350 . S
C879 C882 1.463 . S
C879 C884 1.350 . S
C879 N887 1.427 . S
C880 H871 0.930 . S
C880 C878 1.378 . S
C880 C881 1.367 . S
C881 C880 1.367 . S
C881 C883 1.433 . S
C882 C878 1.350 . S
C882 C879 1.463 . S
C882 N886 1.427 . S
C883 H873 0.929 . S
C883 C881 1.433 . S
C883 N886 1.384 . S
C884 H875 0.929 . S
C884 C876 1.378 . S
C884 C879 1.350 . S
C885 H872 0.929 . S
C885 C877 1.433 . S
C885 N887 1.384 . S
N886 C882 1.427 . S
N886 C883 1.384 . S
N887 C879 1.427 . S
N887 C885 1.384 . S
H888 C894 0.930 . S
H889 C898 0.930 . S
H890 C903 0.929 . S
H891 C901 0.929 . S
H892 C896 0.929 . S
H893 C902 0.929 1_565 S
C894 H888 0.930 . S
C894 C895 1.367 . S
C894 C902 1.378 . S
C895 C894 1.367 . S
C895 C903 1.433 . S
C896 H892 0.929 . S
C896 C898 1.378 . S
C896 C900 1.350 . S
C897 C900 1.448 1_545 S
C897 C902 1.355 . S
C897 N905 1.436 . S
C898 H889 0.930 . S
C898 C896 1.378 . S
C898 C899 1.367 . S
C899 C898 1.367 . S
C899 C901 1.433 . S
C900 C896 1.350 . S
C900 C897 1.448 1_565 S
C900 N904 1.427 . S
C901 H891 0.929 . S
C901 C899 1.433 . S
C901 N904 1.384 . S
C902 H893 0.929 1_545 S
C902 C894 1.378 . S
C902 C897 1.355 . S
C903 H890 0.929 . S
C903 C895 1.433 . S
C903 N905 1.384 . S
N904 C900 1.427 . S
N904 C901 1.384 . S
N905 C897 1.436 . S
N905 C903 1.384 . S
H906 C912 0.930 . S
H907 C916 0.930 . S
H908 C921 0.929 . S
H909 C919 0.929 . S
H910 C914 0.929 . S
H911 C920 0.929 . S
C912 H906 0.930 . S
C912 C913 1.367 . S
C912 C920 1.378 . S
C913 C912 1.367 . S
C913 C921 1.433 . S
C914 H910 0.929 . S
C914 C916 1.378 . S
C914 C918 1.350 . S
C915 C918 1.463 1_455 S
C915 C920 1.350 . S
C915 N923 1.428 . S
C916 H907 0.930 . S
C916 C914 1.378 . S
C916 C917 1.367 . S
C917 C916 1.367 . S
C917 C919 1.433 . S
C918 C914 1.350 . S
C918 C915 1.463 1_655 S
C918 N922 1.427 . S
C919 H909 0.929 . S
C919 C917 1.433 . S
C919 N922 1.384 . S
C920 H911 0.929 . S
C920 C912 1.378 . S
C920 C915 1.350 . S
C921 H908 0.929 . S
C921 C913 1.433 . S
C921 N923 1.399 . S
N922 C918 1.427 . S
N922 C919 1.384 . S
N923 C915 1.428 . S
N923 C921 1.399 . S
H924 C930 0.930 . S
H925 C934 0.930 . S
H926 C939 0.929 . S
H927 C937 0.929 . S
H928 C932 0.929 . S
H929 C938 0.929 . S
C930 H924 0.930 . S
C930 C931 1.367 . S
C930 C938 1.378 . S
C931 C930 1.367 . S
C931 C939 1.433 . S
C932 H928 0.929 . S
C932 C934 1.378 . S
C932 C936 1.350 . S
C933 C936 1.441 1_565 S
C933 C938 1.361 . S
C933 N941 1.437 . S
C934 H925 0.930 . S
C934 C932 1.378 . S
C934 C935 1.367 . S
C935 C934 1.367 . S
C935 C937 1.433 . S
C936 C932 1.350 . S
C936 C933 1.441 1_545 S
C936 N940 1.427 . S
C937 H927 0.929 . S
C937 C935 1.433 . S
C937 N940 1.384 . S
C938 H929 0.929 . S
C938 C930 1.378 . S
C938 C933 1.361 . S
C939 H926 0.929 . S
C939 C931 1.433 . S
C939 N941 1.384 . S
N940 C936 1.427 . S
N940 C937 1.384 . S
N941 C933 1.437 . S
N941 C939 1.384 . S
H942 C948 0.930 . S
H943 C952 0.930 . S
H944 C957 0.929 . S
H945 C955 0.929 . S
H946 C950 0.929 . S
H947 C956 0.929 . S
C948 H942 0.930 . S
C948 C949 1.367 . S
C948 C956 1.378 . S
C949 C948 1.367 . S
C949 C957 1.433 . S
C950 H946 0.929 . S
C950 C952 1.378 . S
C950 C954 1.380 . S
C951 C954 1.429 1_455 S
C951 C956 1.350 . S
C951 N959 1.427 . S
C952 H943 0.930 . S
C952 C950 1.378 . S
C952 C953 1.367 . S
C953 C952 1.367 . S
C953 C955 1.433 . S
C954 C950 1.380 . S
C954 C951 1.429 1_655 S
C954 N958 1.429 . S
C955 H945 0.929 . S
C955 C953 1.433 . S
C955 N958 1.384 . S
C956 H947 0.929 . S
C956 C948 1.378 . S
C956 C951 1.350 . S
C957 H944 0.929 . S
C957 C949 1.433 . S
C957 N959 1.384 . S
N958 C954 1.429 . S
N958 C955 1.384 . S
N959 C951 1.427 . S
N959 C957 1.384 . S
H960 C966 0.930 . S
H961 C970 0.930 . S
H962 C975 0.929 . S
H963 C973 0.929 . S
H964 C968 0.929 . S
H965 C974 0.929 . S
C966 H960 0.930 . S
C966 C967 1.367 . S
C966 C974 1.378 . S
C967 C966 1.367 . S
C967 C975 1.433 . S
C968 H964 0.929 . S
C968 C970 1.378 . S
C968 C972 1.350 . S
C969 C972 1.463 . S
C969 C974 1.350 . S
C969 N977 1.427 . S
C970 H961 0.930 . S
C970 C968 1.378 . S
C970 C971 1.367 . S
C971 C970 1.367 . S
C971 C973 1.433 . S
C972 C968 1.350 . S
C972 C969 1.463 . S
C972 N976 1.427 . S
C973 H963 0.929 . S
C973 C971 1.433 . S
C973 N976 1.384 . S
C974 H965 0.929 . S
C974 C966 1.378 . S
C974 C969 1.350 . S
C975 H962 0.929 . S
C975 C967 1.433 . S
C975 N977 1.384 . S
N976 C972 1.427 . S
N976 C973 1.384 . S
N977 C969 1.427 . S
N977 C975 1.384 . S
H978 C984 0.930 . S
H979 C988 0.930 . S
H980 C993 0.929 . S
H981 C991 0.929 . S
H982 C986 0.929 . S
H983 C992 0.929 . S
C984 H978 0.930 . S
C984 C985 1.367 . S
C984 C992 1.378 . S
C985 C984 1.367 . S
C985 C993 1.433 . S
C986 H982 0.929 . S
C986 C988 1.378 . S
C986 C990 1.350 . S
C987 C990 1.463 . S
C987 C992 1.350 . S
C987 N995 1.427 . S
C988 H979 0.930 . S
C988 C986 1.378 . S
C988 C989 1.367 . S
C989 C988 1.367 . S
C989 C991 1.433 . S
C990 C986 1.350 . S
C990 C987 1.463 . S
C990 N994 1.427 . S
C991 H981 0.929 . S
C991 C989 1.433 . S
C991 N994 1.384 . S
C992 H983 0.929 . S
C992 C984 1.378 . S
C992 C987 1.350 . S
C993 H980 0.929 . S
C993 C985 1.433 . S
C993 N995 1.384 . S
N994 C990 1.427 . S
N994 C991 1.384 . S
N995 C987 1.427 . S
N995 C993 1.384 . S
H996 C1002 0.930 . S
H997 C1006 0.930 . S
H998 C1011 0.929 . S
H999 C1009 0.929 . S
H1000 C1004 0.929 . S
H1001 C1010 0.929 . S
C1002 H996 0.930 . S
C1002 C1003 1.367 . S
C1002 C1010 1.378 . S
C1003 C1002 1.367 . S
C1003 C1011 1.433 . S
C1004 H1000 0.929 . S
C1004 C1006 1.378 . S
C1004 C1008 1.350 . S
C1005 C1008 1.463 . S
C1005 C1010 1.350 . S
C1005 N1013 1.427 . S
C1006 H997 0.930 . S
C1006 C1004 1.378 . S
C1006 C1007 1.367 . S
C1007 C1006 1.367 . S
C1007 C1009 1.433 . S
C1008 C1004 1.350 . S
C1008 C1005 1.463 . S
C1008 N1012 1.427 . S
C1009 H999 0.929 . S
C1009 C1007 1.433 . S
C1009 N1012 1.384 . S
C1010 H1001 0.929 . S
C1010 C1002 1.378 . S
C1010 C1005 1.350 . S
C1011 H998 0.929 . S
C1011 C1003 1.433 . S
C1011 N1013 1.384 . S
N1012 C1008 1.427 . S
N1012 C1009 1.384 . S
N1013 C1005 1.427 . S
N1013 C1011 1.384 . S
H1014 C1020 0.930 . S
H1015 C1024 0.930 . S
H1016 C1029 0.929 . S
H1017 C1027 0.929 . S
H1018 C1022 0.929 . S
H1019 C1028 0.929 . S
C1020 H1014 0.930 . S
C1020 C1021 1.367 . S
C1020 C1028 1.378 . S
C1021 C1020 1.367 . S
C1021 C1029 1.433 . S
C1022 H1018 0.929 . S
C1022 C1024 1.378 . S
C1022 C1026 1.350 . S
C1023 C1026 1.463 . S
C1023 C1028 1.350 . S
C1023 N1031 1.427 . S
C1024 H1015 0.930 . S
C1024 C1022 1.378 . S
C1024 C1025 1.367 . S
C1025 C1024 1.367 . S
C1025 C1027 1.433 . S
C1026 C1022 1.350 . S
C1026 C1023 1.463 . S
C1026 N1030 1.427 . S
C1027 H1017 0.929 . S
C1027 C1025 1.433 . S
C1027 N1030 1.384 . S
C1028 H1019 0.929 . S
C1028 C1020 1.378 . S
C1028 C1023 1.350 . S
C1029 H1016 0.929 . S
C1029 C1021 1.433 . S
C1029 N1031 1.384 . S
N1030 C1026 1.427 . S
N1030 C1027 1.384 . S
N1031 C1023 1.427 . S
N1031 C1029 1.384 . S
H1032 C1038 0.930 . S
H1033 C1042 0.930 . S
H1034 C1047 0.929 . S
H1035 C1045 0.929 . S
H1036 C1040 0.929 . S
H1037 C1046 0.929 . S
C1038 H1032 0.930 . S
C1038 C1039 1.367 . S
C1038 C1046 1.378 . S
C1039 C1038 1.367 . S
C1039 C1047 1.433 . S
C1040 H1036 0.929 . S
C1040 C1042 1.378 . S
C1040 C1044 1.350 . S
C1041 C1044 1.463 . S
C1041 C1046 1.350 . S
C1041 N1049 1.427 . S
C1042 H1033 0.930 . S
C1042 C1040 1.378 . S
C1042 C1043 1.367 . S
C1043 C1042 1.367 . S
C1043 C1045 1.433 . S
C1044 C1040 1.350 . S
C1044 C1041 1.463 . S
C1044 N1048 1.427 . S
C1045 H1035 0.929 . S
C1045 C1043 1.433 . S
C1045 N1048 1.384 . S
C1046 H1037 0.929 . S
C1046 C1038 1.378 . S
C1046 C1041 1.350 . S
C1047 H1034 0.929 . S
C1047 C1039 1.433 . S
C1047 N1049 1.384 . S
N1048 C1044 1.427 . S
N1048 C1045 1.384 . S
N1049 C1041 1.427 . S
N1049 C1047 1.384 . S
H1050 C1056 0.930 . S
H1051 C1060 0.930 . S
H1052 C1065 0.929 . S
H1053 C1063 0.929 . S
H1054 C1058 0.929 . S
H1055 C1064 0.929 . S
C1056 H1050 0.930 . S
C1056 C1057 1.367 . S
C1056 C1064 1.378 . S
C1057 C1056 1.367 . S
C1057 C1065 1.433 . S
C1058 H1054 0.929 . S
C1058 C1060 1.378 . S
C1058 C1062 1.350 . S
C1059 C1062 1.463 . S
C1059 C1064 1.350 . S
C1059 N1067 1.427 . S
C1060 H1051 0.930 . S
C1060 C1058 1.378 . S
C1060 C1061 1.367 . S
C1061 C1060 1.367 . S
C1061 C1063 1.433 . S
C1062 C1058 1.350 . S
C1062 C1059 1.463 . S
C1062 N1066 1.427 . S
C1063 H1053 0.929 . S
C1063 C1061 1.433 . S
C1063 N1066 1.384 . S
C1064 H1055 0.929 . S
C1064 C1056 1.378 . S
C1064 C1059 1.350 . S
C1065 H1052 0.929 . S
C1065 C1057 1.433 . S
C1065 N1067 1.384 . S
N1066 C1062 1.427 . S
N1066 C1063 1.384 . S
N1067 C1059 1.427 . S
N1067 C1065 1.384 . S
H1068 C1074 0.930 . S
H1069 C1078 0.930 . S
H1070 C1083 0.929 . S
H1071 C1081 0.929 . S
H1072 C1076 0.929 . S
H1073 C1082 0.929 . S
C1074 H1068 0.930 . S
C1074 C1075 1.367 . S
C1074 C1082 1.378 . S
C1075 C1074 1.367 . S
C1075 C1083 1.433 . S
C1076 H1072 0.929 . S
C1076 C1078 1.378 . S
C1076 C1080 1.350 . S
C1077 C1080 1.463 . S
C1077 C1082 1.350 . S
C1077 N1085 1.427 . S
C1078 H1069 0.930 . S
C1078 C1076 1.378 . S
C1078 C1079 1.367 . S
C1079 C1078 1.367 . S
C1079 C1081 1.433 . S
C1080 C1076 1.350 . S
C1080 C1077 1.463 . S
C1080 N1084 1.427 . S
C1081 H1071 0.929 . S
C1081 C1079 1.433 . S
C1081 N1084 1.384 . S
C1082 H1073 0.929 . S
C1082 C1074 1.378 . S
C1082 C1077 1.350 . S
C1083 H1070 0.929 . S
C1083 C1075 1.433 . S
C1083 N1085 1.384 . S
N1084 C1080 1.427 . S
N1084 C1081 1.384 . S
N1085 C1077 1.427 . S
N1085 C1083 1.384 . S
H1086 C1092 0.930 . S
H1087 C1096 0.930 . S
H1088 C1101 0.929 . S
H1089 C1099 0.929 . S
H1090 C1094 0.929 . S
H1091 C1100 0.929 . S
C1092 H1086 0.930 . S
C1092 C1093 1.367 . S
C1092 C1100 1.378 . S
C1093 C1092 1.367 . S
C1093 C1101 1.433 . S
C1094 H1090 0.929 . S
C1094 C1096 1.378 . S
C1094 C1098 1.350 . S
C1095 C1098 1.463 . S
C1095 C1100 1.350 . S
C1095 N1103 1.427 . S
C1096 H1087 0.930 . S
C1096 C1094 1.378 . S
C1096 C1097 1.367 . S
C1097 C1096 1.367 . S
C1097 C1099 1.433 . S
C1098 C1094 1.350 . S
C1098 C1095 1.463 . S
C1098 N1102 1.427 . S
C1099 H1089 0.929 . S
C1099 C1097 1.433 . S
C1099 N1102 1.384 . S
C1100 H1091 0.929 . S
C1100 C1092 1.378 . S
C1100 C1095 1.350 . S
C1101 H1088 0.929 . S
C1101 C1093 1.433 . S
C1101 N1103 1.384 . S
N1102 C1098 1.427 . S
N1102 C1099 1.384 . S
N1103 C1095 1.427 . S
N1103 C1101 1.384 . S
C679 C67 1.328 . S
C683 C478 1.088 . S
C697 C140 1.352 . S
C701 C562 1.290 . S
C715 C235 1.384 . S
C719 C657 1.303 . S
C733 C394 1.270 . S
C737 C315 1.303 . S
C751 C489 1.300 1_556 S
C755 C410 1.337 . S
C769 C573 1.122 . S
C773 C476 1.375 . S
C787 C646 1.077 1_556 S
C791 C578 1.296 . S
C805 C651 1.335 . S
C809 C405 1.114 1_554 S
C823 C571 1.329 . S
C827 C310 1.092 . S
C841 C644 1.352 . S
C845 C58 1.276 . S
C859 C153 1.308 . S
C863 C403 1.377 . S
C877 C226 1.265 . S
C881 C483 1.295 . S
C895 C321 1.301 . S
C899 C242 1.338 . S
C913 C69 1.108 . S
C917 C308 1.378 . S
C931 C142 1.056 . S
C935 C74 1.278 . S
C949 C147 1.333 . S
C953 C237 1.103 . S
C967 C392 2.712 1_554 S
C971 C63 2.756 . S
C985 C494 2.747 1_556 S
C989 C158 2.740 . S
C1003 C231 2.752 . S
C1007 C560 2.714 1_554 S
C1021 C319 2.732 . S
C1025 C655 2.733 1_556 S
C1039 C224 2.718 . S
C1043 C567 2.755 . S
C1057 C326 2.742 . S
C1061 C662 2.744 . S
C1075 C399 2.752 . S
C1079 C56 2.715 . S
C1093 C487 2.732 . S
C1097 C151 2.733 . S
