# Generated by pormake.
# Topology unv, (4)-cn, num edge types: 1
# Building blocks:
#     Node 0, Type 0, BuildingBlock: AZAVOO_clean_sbu_0, # of connection points: 4
#     Node 1, Type 0, BuildingBlock: AZAVOO_clean_sbu_0, # of connection points: 4
#     Node 2, Type 0, BuildingBlock: AZAVOO_clean_sbu_0, # of connection points: 4
#     Node 3, Type 0, BuildingBlock: AZAVOO_clean_sbu_0, # of connection points: 4
#     Node 4, Type 0, BuildingBlock: AZAVOO_clean_sbu_0, # of connection points: 4
#     Node 5, Type 0, BuildingBlock: AZAVOO_clean_sbu_0, # of connection points: 4
#     Node 6, Type 0, BuildingBlock: AZAVOO_clean_sbu_0, # of connection points: 4
#     Node 7, Type 0, BuildingBlock: AZAVOO_clean_sbu_0, # of connection points: 4
#     Node 8, Type 0, BuildingBlock: AZAVOO_clean_sbu_0, # of connection points: 4
#     Node 9, Type 0, BuildingBlock: AZAVOO_clean_sbu_0, # of connection points: 4
#     Node 10, Type 0, BuildingBlock: AZAVOO_clean_sbu_0, # of connection points: 4
#     Node 11, Type 0, BuildingBlock: AZAVOO_clean_sbu_0, # of connection points: 4
#     Node 12, Type 0, BuildingBlock: AZAVOO_clean_sbu_0, # of connection points: 4
#     Node 13, Type 0, BuildingBlock: AZAVOO_clean_sbu_0, # of connection points: 4
#     Node 14, Type 0, BuildingBlock: AZAVOO_clean_sbu_0, # of connection points: 4
#     Node 15, Type 0, BuildingBlock: AZAVOO_clean_sbu_0, # of connection points: 4
#     Node 16, Type 0, BuildingBlock: AZAVOO_clean_sbu_0, # of connection points: 4
#     Node 17, Type 0, BuildingBlock: AZAVOO_clean_sbu_0, # of connection points: 4
#     Node 18, Type 0, BuildingBlock: AZAVOO_clean_sbu_0, # of connection points: 4
#     Node 19, Type 0, BuildingBlock: AZAVOO_clean_sbu_0, # of connection points: 4
#     Node 20, Type 0, BuildingBlock: AZAVOO_clean_sbu_0, # of connection points: 4
#     Node 21, Type 0, BuildingBlock: AZAVOO_clean_sbu_0, # of connection points: 4
#     Node 22, Type 0, BuildingBlock: AZAVOO_clean_sbu_0, # of connection points: 4
#     Node 23, Type 0, BuildingBlock: AZAVOO_clean_sbu_0, # of connection points: 4
#     Edge 24, Type (0, 0), BuildingBlock: OJICUG_clean_linker_0, # of connection points: 2
#     Edge 25, Type (0, 0), BuildingBlock: OJICUG_clean_linker_0, # of connection points: 2
#     Edge 26, Type (0, 0), BuildingBlock: OJICUG_clean_linker_0, # of connection points: 2
#     Edge 27, Type (0, 0), BuildingBlock: OJICUG_clean_linker_0, # of connection points: 2
#     Edge 28, Type (0, 0), BuildingBlock: OJICUG_clean_linker_0, # of connection points: 2
#     Edge 29, Type (0, 0), BuildingBlock: OJICUG_clean_linker_0, # of connection points: 2
#     Edge 30, Type (0, 0), BuildingBlock: OJICUG_clean_linker_0, # of connection points: 2
#     Edge 31, Type (0, 0), BuildingBlock: OJICUG_clean_linker_0, # of connection points: 2
#     Edge 32, Type (0, 0), BuildingBlock: OJICUG_clean_linker_0, # of connection points: 2
#     Edge 33, Type (0, 0), BuildingBlock: OJICUG_clean_linker_0, # of connection points: 2
#     Edge 34, Type (0, 0), BuildingBlock: OJICUG_clean_linker_0, # of connection points: 2
#     Edge 35, Type (0, 0), BuildingBlock: OJICUG_clean_linker_0, # of connection points: 2
#     Edge 36, Type (0, 0), BuildingBlock: OJICUG_clean_linker_0, # of connection points: 2
#     Edge 37, Type (0, 0), BuildingBlock: OJICUG_clean_linker_0, # of connection points: 2
#     Edge 38, Type (0, 0), BuildingBlock: OJICUG_clean_linker_0, # of connection points: 2
#     Edge 39, Type (0, 0), BuildingBlock: OJICUG_clean_linker_0, # of connection points: 2
#     Edge 40, Type (0, 0), BuildingBlock: OJICUG_clean_linker_0, # of connection points: 2
#     Edge 41, Type (0, 0), BuildingBlock: OJICUG_clean_linker_0, # of connection points: 2
#     Edge 42, Type (0, 0), BuildingBlock: OJICUG_clean_linker_0, # of connection points: 2
#     Edge 43, Type (0, 0), BuildingBlock: OJICUG_clean_linker_0, # of connection points: 2
#     Edge 44, Type (0, 0), BuildingBlock: OJICUG_clean_linker_0, # of connection points: 2
#     Edge 45, Type (0, 0), BuildingBlock: OJICUG_clean_linker_0, # of connection points: 2
#     Edge 46, Type (0, 0), BuildingBlock: OJICUG_clean_linker_0, # of connection points: 2
#     Edge 47, Type (0, 0), BuildingBlock: OJICUG_clean_linker_0, # of connection points: 2
#     Edge 48, Type (0, 0), BuildingBlock: OJICUG_clean_linker_0, # of connection points: 2
#     Edge 49, Type (0, 0), BuildingBlock: OJICUG_clean_linker_0, # of connection points: 2
#     Edge 50, Type (0, 0), BuildingBlock: OJICUG_clean_linker_0, # of connection points: 2
#     Edge 51, Type (0, 0), BuildingBlock: OJICUG_clean_linker_0, # of connection points: 2
#     Edge 52, Type (0, 0), BuildingBlock: OJICUG_clean_linker_0, # of connection points: 2
#     Edge 53, Type (0, 0), BuildingBlock: OJICUG_clean_linker_0, # of connection points: 2
#     Edge 54, Type (0, 0), BuildingBlock: OJICUG_clean_linker_0, # of connection points: 2
#     Edge 55, Type (0, 0), BuildingBlock: OJICUG_clean_linker_0, # of connection points: 2
#     Edge 56, Type (0, 0), BuildingBlock: OJICUG_clean_linker_0, # of connection points: 2
#     Edge 57, Type (0, 0), BuildingBlock: OJICUG_clean_linker_0, # of connection points: 2
#     Edge 58, Type (0, 0), BuildingBlock: OJICUG_clean_linker_0, # of connection points: 2
#     Edge 59, Type (0, 0), BuildingBlock: OJICUG_clean_linker_0, # of connection points: 2
#     Edge 60, Type (0, 0), BuildingBlock: OJICUG_clean_linker_0, # of connection points: 2
#     Edge 61, Type (0, 0), BuildingBlock: OJICUG_clean_linker_0, # of connection points: 2
#     Edge 62, Type (0, 0), BuildingBlock: OJICUG_clean_linker_0, # of connection points: 2
#     Edge 63, Type (0, 0), BuildingBlock: OJICUG_clean_linker_0, # of connection points: 2
#     Edge 64, Type (0, 0), BuildingBlock: OJICUG_clean_linker_0, # of connection points: 2
#     Edge 65, Type (0, 0), BuildingBlock: OJICUG_clean_linker_0, # of connection points: 2
#     Edge 66, Type (0, 0), BuildingBlock: OJICUG_clean_linker_0, # of connection points: 2
#     Edge 67, Type (0, 0), BuildingBlock: OJICUG_clean_linker_0, # of connection points: 2
#     Edge 68, Type (0, 0), BuildingBlock: OJICUG_clean_linker_0, # of connection points: 2
#     Edge 69, Type (0, 0), BuildingBlock: OJICUG_clean_linker_0, # of connection points: 2
#     Edge 70, Type (0, 0), BuildingBlock: OJICUG_clean_linker_0, # of connection points: 2
#     Edge 71, Type (0, 0), BuildingBlock: OJICUG_clean_linker_0, # of connection points: 2
# Relax obj value: 0.347
# Max RMSD: 0.357
# Mean RMSD: 0.321
data_MOF--net-unv--node1-AZAVOO_clean_sbu_0--edge1-OJICUG_clean_linker_0
_symmetry_space_group_name_H-M    P1
_symmetry_Int_Tables_number       1
_symmetry_cell_setting            triclinic
loop_
_symmetry_equiv_pos_as_xyz
'x, y, z'
_cell_length_a     35.53385
_cell_length_b     35.145782
_cell_length_c     35.188945
_cell_angle_alpha  90.26492
_cell_angle_beta   90.217955
_cell_angle_gamma 89.862887
loop_
_atom_site_label
_atom_site_type_symbol
_atom_site_fract_x
_atom_site_fract_y
_atom_site_fract_z
_atom_type_partial_charge
Mg0 Mg 0.11318 0.07486 0.40745 0.0
O1 O 0.05641 0.04556 0.40695 0.0
O2 O 0.02726 0.04952 0.46269 0.0
Mg3 Mg 0.06753 0.08483 0.50032 0.0
C4 C 0.02851 0.03812 0.42823 0.0
C5 C 0.13858 0.04128 0.3311 0.0
O6 O 0.1683 0.03499 0.3525 0.0
O7 O 0.08488 0.13394 0.40323 0.0
O8 O 0.0631 0.13827 0.46268 0.0
O9 O 0.13965 0.02146 0.42794 0.0
O10 O 0.11667 0.06476 0.46707 0.0
C11 C 0.06888 0.15265 0.42992 0.0
C12 C 0.1311 0.03133 0.4622 0.0
O13 O 0.11284 0.06321 0.34358 0.0
Mg14 Mg 0.95586 0.37289 0.43386 0.0
O15 O 1.00172 0.41813 0.43438 0.0
O16 O 0.03639 0.41485 0.48712 0.0
Mg17 Mg 0.01271 0.36472 0.52079 0.0
C18 C 0.02814 0.4306 0.45557 0.0
C19 C 0.91505 0.40616 0.36352 0.0
O20 O 0.88714 0.40332 0.38771 0.0
O21 O 0.99701 0.32386 0.41928 0.0
O22 O 0.02713 0.32049 0.47489 0.0
O23 O 0.91955 0.41418 0.46409 0.0
O24 O 0.95656 0.37405 0.49459 0.0
C25 C 0.02108 0.30801 0.44127 0.0
C26 C 0.93436 0.40318 0.49579 0.0
O27 O 0.9466 0.39111 0.37198 0.0
Mg28 Mg 0.06472 0.87604 0.15933 0.0
O29 O 0.01489 0.91549 0.14569 0.0
O30 O 0.98002 0.89022 0.09929 0.0
Mg31 Mg 1.00676 0.83299 0.08416 0.0
C32 C 0.98702 0.9171 0.12271 0.0
C33 C 0.10889 0.92825 0.21492 0.0
O34 O 0.13517 0.91883 0.19043 0.0
O35 O 0.02812 0.83319 0.19166 0.0
O36 O 0.99582 0.80774 0.14323 0.0
O37 O 0.09765 0.90516 0.11493 0.0
O38 O 0.06238 0.85477 0.10298 0.0
C39 C 1.00417 0.80938 0.17854 0.0
C40 C 0.08337 0.88181 0.09033 0.0
O41 O 0.07649 0.91312 0.21178 0.0
Mg42 Mg 0.91937 0.59276 0.19748 0.0
O43 O 0.97266 0.56714 0.16796 0.0
O44 O 0.98477 0.60024 0.11501 0.0
Mg45 Mg 0.95809 0.65657 0.12851 0.0
C46 C 0.98928 0.57092 0.13584 0.0
C47 C 0.8997 0.5242 0.25016 0.0
O48 O 0.86855 0.52727 0.23016 0.0
O49 O 0.94798 0.64121 0.23176 0.0
O50 O 0.9873 0.64591 0.18518 0.0
O51 O 0.8874 0.56296 0.15241 0.0
O52 O 0.90782 0.62215 0.14607 0.0
C53 C 0.97471 0.65912 0.2161 0.0
C54 C 0.89287 0.59215 0.1308 0.0
O55 O 0.92598 0.54816 0.24483 0.0
Mg56 Mg 0.37952 0.97811 0.09281 0.0
O57 O 0.38977 0.92341 0.06172 0.0
O58 O 0.43298 0.88726 0.0896 0.0
Mg59 Mg 0.44514 0.91843 0.14627 0.0
C60 C 0.41048 0.89397 0.06212 0.0
C61 C 0.33483 0.00569 0.02097 0.0
O62 O 0.36584 0.02541 0.01646 0.0
O63 O 0.34223 0.9511 0.13701 0.0
O64 O 0.38464 0.91777 0.17023 0.0
O65 O 0.42943 0.00083 0.06342 0.0
O66 O 0.43216 0.97453 0.12055 0.0
C67 C 0.35113 0.93027 0.16529 0.0
C68 C 0.44923 -0.01045 0.09222 0.0
O69 O 0.33086 0.98578 0.05079 0.0
Mg70 Mg 0.60933 0.48368 0.13937 0.0
O71 O 0.61783 0.54706 0.1457 0.0
O72 O 0.56321 0.57281 0.15544 0.0
Mg73 Mg 0.55464 0.53457 0.20781 0.0
C74 C 0.59262 0.57016 0.13533 0.0
C75 C 0.65272 0.47961 0.06202 0.0
O76 O 0.61973 0.46761 0.05009 0.0
O77 O 0.64741 0.47915 0.18974 0.0
O78 O 0.61636 0.51998 0.22742 0.0
O79 O 0.55862 0.49006 0.10396 0.0
O80 O 0.55549 0.48552 0.16692 0.0
C81 C 0.64483 0.49857 0.22033 0.0
C82 C 0.53852 0.48821 0.13452 0.0
O83 O 0.65787 0.4856 0.09734 0.0
Mg84 Mg 0.33856 0.92223 0.36344 0.0
O85 O 0.33349 0.97831 0.39717 0.0
O86 O 0.35914 0.02628 0.36462 0.0
Mg87 Mg 0.35366 0.00521 0.3033 0.0
C88 C 0.34653 0.01218 0.39549 0.0
C89 C 0.27978 0.89029 0.4265 0.0
O90 O 0.25314 0.90784 0.40741 0.0
O91 O 0.28116 0.92625 0.33379 0.0
O92 O 0.29652 0.98383 0.32198 0.0
O93 O 0.39878 0.92495 0.37752 0.0
O94 O 0.37711 0.94936 0.32363 0.0
C95 C 0.28325 0.95269 0.3096 0.0
C96 C 0.4049 0.94407 0.34686 0.0
O97 O 0.31359 0.89129 0.41466 0.0
Mg98 Mg 0.68721 0.50563 0.40538 0.0
O99 O 0.68093 0.45446 0.44494 0.0
O100 O 0.64642 0.40843 0.41783 0.0
Mg101 Mg 0.65203 0.42091 0.35452 0.0
C102 C 0.66221 0.42352 0.44692 0.0
C103 C 0.73622 0.56719 0.44949 0.0
O104 O 0.7309 0.58662 0.41811 0.0
O105 O 0.74067 0.48388 0.37655 0.0
O106 O 0.71392 0.43001 0.36796 0.0
O107 O 0.62825 0.5184 0.41956 0.0
O108 O 0.6429 0.48271 0.36949 0.0
C109 C 0.72981 0.4586 0.35324 0.0
C110 C 0.61753 0.497 0.39152 0.0
O111 O 0.72199 0.53418 0.45226 0.0
Mg112 Mg 0.05968 0.38081 0.98558 0.0
O113 O 0.04896 0.42965 0.02817 0.0
O114 O 0.98624 0.43688 0.03015 0.0
Mg115 Mg 0.9568 0.39773 0.98831 0.0
C116 C 0.01932 0.4454 0.04141 0.0
C117 C 0.14444 0.40236 0.9908 0.0
O118 O 0.12965 0.431 0.97207 0.0
O119 O 0.03726 0.33775 0.03036 0.0
O120 O 0.9754 0.34971 0.0261 0.0
O121 O 0.05811 0.4232 0.93642 0.0
O122 O 0.00942 0.3914 0.95786 0.0
C123 C 1.00299 0.33113 0.04001 0.0
C124 C 0.02246 0.4161 0.93496 0.0
O125 O 0.12259 0.37652 0.00312 0.0
Mg126 Mg 0.1161 0.66707 0.45429 0.0
O127 O 0.09471 0.60545 0.44581 0.0
O128 O 0.03474 0.60421 0.46527 0.0
Mg129 Mg 0.01661 0.66276 0.48605 0.0
C130 C 0.06382 0.58791 0.45157 0.0
C131 C 0.1911 0.62305 0.44048 0.0
O132 O 0.1729 0.60157 0.46467 0.0
O133 O 0.08119 0.6881 0.40027 0.0
O134 O 0.0241 0.68431 0.42668 0.0
O135 O 0.12823 0.65183 0.51576 0.0
O136 O 0.07525 0.67739 0.49551 0.0
C137 C 0.04507 0.69227 0.39859 0.0
C138 C 0.09423 0.6628 0.52269 0.0
O139 O 0.17419 0.65204 0.42659 0.0
Mg140 Mg 0.92318 0.8153 0.38413 0.0
O141 O 0.93895 0.88021 0.38314 0.0
O142 O 1.00136 0.88563 0.37404 0.0
Mg143 Mg 0.02582 0.82864 0.35914 0.0
C144 C 0.96907 0.90008 0.38063 0.0
C145 C 0.84386 0.85887 0.40005 0.0
O146 O 0.86692 0.88299 0.41662 0.0
O147 O 0.92864 0.80471 0.31924 0.0
O148 O 0.98281 0.83 0.31108 0.0
O149 O 0.94232 0.81301 0.44509 0.0
O150 O 0.98104 0.8039 0.39722 0.0
C151 C 0.96319 0.80001 0.31023 0.0
C152 C 0.97623 0.80658 0.43325 0.0
O153 O 0.85772 0.82923 0.38401 0.0
Mg154 Mg 0.43947 0.59619 0.41942 0.0
O155 O 0.45225 0.56399 0.47603 0.0
O156 O 0.515 0.55698 0.47782 0.0
Mg157 Mg 0.54256 0.5801 0.42462 0.0
C158 C 0.48252 0.55254 0.49244 0.0
C159 C 0.35072 0.58741 0.42629 0.0
O160 O 0.36008 0.55409 0.41211 0.0
O161 O 0.46425 0.65276 0.44376 0.0
O162 O 0.52585 0.63931 0.44217 0.0
O163 O 0.43842 0.53808 0.38993 0.0
O164 O 0.48846 0.57445 0.39586 0.0
C165 C 0.49887 0.66231 0.44863 0.0
C166 C 0.47421 0.54275 0.3854 0.0
O167 O 0.3769 0.61071 0.43513 0.0
Mg168 Mg 0.57249 0.60137 0.90342 0.0
O169 O 0.5181 0.56904 0.91384 0.0
O170 O 0.48201 0.60006 0.95528 0.0
Mg171 Mg 0.51447 0.65392 0.97232 0.0
C172 C 0.48823 0.57154 0.9336 0.0
C173 C 0.5916 0.52882 0.85484 0.0
O174 O 0.6022 0.51721 0.88866 0.0
O175 O 0.54447 0.64785 0.86825 0.0
O176 O 0.51279 0.68028 0.9127 0.0
O177 O 0.59877 0.57068 0.95228 0.0
O178 O 0.56847 0.62533 0.95836 0.0
C179 C 0.52407 0.67601 0.87852 0.0
C180 C 0.58544 0.59712 0.97417 0.0
O181 O 0.58009 0.56291 0.85091 0.0
Mg182 Mg 0.46221 0.87413 0.84012 0.0
O183 O 0.50233 0.91918 0.86742 0.0
O184 O 0.53266 0.89511 0.91799 0.0
Mg185 Mg 0.52512 0.83112 0.91097 0.0
C186 C 0.52368 0.92308 0.89665 0.0
C187 C 0.42585 0.94263 0.79544 0.0
O188 O 0.40465 0.94447 0.82589 0.0
O189 O 0.50529 0.84307 0.80251 0.0
O190 O 0.54193 0.84505 0.85086 0.0
O191 O 0.42212 0.88744 0.88603 0.0
O192 O 0.46537 0.84246 0.89238 0.0
C193 C 0.52992 0.8264 0.82251 0.0
C194 C 0.43867 0.86246 0.90729 0.0
O195 O 0.45037 0.91638 0.79264 0.0
Mg196 Mg 0.56522 0.38257 0.65314 0.0
O197 O 0.52446 0.42303 0.61846 0.0
O198 O 0.5171 0.39996 0.55913 0.0
Mg199 Mg 0.53593 0.3388 0.56269 0.0
C200 C 0.51239 0.42605 0.58408 0.0
C201 C 0.58465 0.41936 0.73118 0.0
O202 O 0.61211 0.39459 0.72717 0.0
O203 O 0.52214 0.33667 0.67287 0.0
O204 O 0.5018 0.34381 0.61577 0.0
O205 O 0.61176 0.40971 0.622 0.0
O206 O 0.58337 0.35803 0.60022 0.0
C207 C 0.50478 0.32265 0.64453 0.0
C208 C 0.60739 0.38495 0.59501 0.0
O209 O 0.55874 0.42043 0.70612 0.0
Mg210 Mg 0.42792 0.09217 0.59845 0.0
O211 O 0.47783 0.05975 0.57077 0.0
O212 O 0.49151 0.08864 0.5162 0.0
Mg213 Mg 0.45031 0.13811 0.50845 0.0
C214 C 0.4973 0.06228 0.54037 0.0
C215 C 0.41162 0.05383 0.67565 0.0
O216 O 0.37835 0.06805 0.66748 0.0
O217 O 0.46361 0.14329 0.61662 0.0
O218 O 0.47345 0.17082 0.56045 0.0
O219 O 0.38911 0.05354 0.56841 0.0
O220 O 0.40872 0.10778 0.54391 0.0
C221 C 0.47675 0.17035 0.59663 0.0
C222 C 0.39045 0.07629 0.53964 0.0
O223 O 0.43906 0.06064 0.65365 0.0
Mg224 Mg 0.90217 0.60631 0.62604 0.0
O225 O 0.91167 0.54538 0.60769 0.0
O226 O 0.96123 0.51978 0.63667 0.0
Mg227 Mg 0.98503 0.56753 0.67516 0.0
C228 C 0.9338 0.51747 0.61327 0.0
C229 C 0.8406 0.61979 0.56467 0.0
O230 O 0.86612 0.64472 0.55458 0.0
O231 O 0.87835 0.58865 0.68371 0.0
O232 O 0.9323 0.5725 0.7126 0.0
O233 O 0.94119 0.62497 0.58064 0.0
O234 O 0.96006 0.6124 0.63925 0.0
C235 C 0.89692 0.57922 0.71339 0.0
C236 C 0.9683 0.6216 0.605 0.0
O237 O 0.84538 0.60144 0.59542 0.0
Mg238 Mg 0.15443 0.81656 0.58453 0.0
O239 O 0.14974 0.87906 0.56491 0.0
O240 O 0.0902 0.89731 0.57511 0.0
Mg241 Mg 0.05689 0.84751 0.59963 0.0
C242 C 0.12354 0.90409 0.5635 0.0
C243 C 0.25125 0.82425 0.57413 0.0
O244 O 0.28066 0.81708 0.59573 0.0
O245 O 0.15293 0.83502 0.647 0.0
O246 O 0.09186 0.84834 0.65431 0.0
O247 O 0.13704 0.79732 0.52583 0.0
O248 O 0.09744 0.80911 0.57241 0.0
C249 C 0.125 0.8442 0.66779 0.0
C250 C 0.10257 0.80086 0.53723 0.0
O251 O 0.21887 0.81784 0.58804 0.0
Mg252 Mg 0.82848 0.52806 0.89702 0.0
O253 O 0.85167 0.55344 0.95385 0.0
O254 O 0.90898 0.5793 0.94828 0.0
Mg255 Mg 0.91666 0.58312 0.88438 0.0
C256 C 0.88085 0.56926 0.96836 0.0
C257 C 0.7612 0.53488 0.95376 0.0
O258 O 0.77805 0.56744 0.96053 0.0
O259 O 0.80565 0.58436 0.87321 0.0
O260 O 0.85848 0.60902 0.88906 0.0
O261 O 0.86349 0.47753 0.90695 0.0
O262 O 0.88575 0.52787 0.8768 0.0
C263 C 0.83434 0.6031 0.86313 0.0
C264 C 0.89156 0.49469 0.89122 0.0
O265 O 0.7731 0.51365 0.92699 0.0
Mg266 Mg 0.14411 0.97685 0.87072 0.0
O267 O 0.12463 0.94131 0.92119 0.0
O268 O 0.06482 0.92375 0.9134 0.0
Mg269 Mg 0.04544 0.94853 0.85674 0.0
C270 C 0.09517 0.92439 0.93284 0.0
C271 C 0.22162 0.00118 0.90261 0.0
O272 O 0.20865 0.03385 0.89007 0.0
O273 O 0.14908 0.92481 0.83162 0.0
O274 O 0.08786 0.91298 0.82335 0.0
O275 O 0.12371 0.02794 0.90051 0.0
O276 O 0.08775 -0.00572 0.86159 0.0
C277 C 0.12238 0.90597 0.81609 0.0
C278 C 0.09078 0.02151 0.88607 0.0
O279 O 0.20336 0.97094 0.8952 0.0
Mg280 Mg 0.59267 0.88126 0.39466 0.0
O281 O 0.58043 0.92293 0.44568 0.0
O282 O 0.51734 0.92592 0.4484 0.0
Mg283 Mg 0.48864 0.89213 0.40172 0.0
C284 C 0.54983 0.93505 0.46091 0.0
C285 C 0.68292 0.89522 0.40028 0.0
O286 O 0.67313 0.92864 0.38687 0.0
O287 O 0.57232 0.82863 0.42941 0.0
O288 O 0.51004 0.83842 0.42826 0.0
O289 O 0.58763 0.93248 0.35406 0.0
O290 O 0.5411 0.89516 0.37064 0.0
C291 C 0.53853 0.81838 0.43738 0.0
C292 C 0.55213 0.92448 0.35278 0.0
O293 O 0.65704 0.87159 0.40882 0.0
Mg294 Mg 0.59479 0.12343 0.03087 0.0
O295 O 0.57672 0.08063 0.98332 0.0
O296 O 0.51651 0.06609 0.99505 0.0
Mg297 Mg 0.49633 0.0961 0.04848 0.0
C298 C 0.54628 0.06285 0.97516 0.0
C299 C 0.67266 0.10769 0.99567 0.0
O300 O 0.65758 0.07368 0.99778 0.0
O301 O 0.55943 0.17282 0.00357 0.0
O302 O 0.50173 0.15261 0.01866 0.0
O303 O 0.61045 0.07253 0.06604 0.0
O304 O 0.55489 0.10086 0.06708 0.0
C305 C 0.52344 0.17713 0.00374 0.0
C306 C 0.57587 0.07291 0.07721 0.0
O307 O 0.6521 0.13658 0.00296 0.0
Mg308 Mg 0.38374 0.37511 0.04485 0.0
O309 O 0.40356 0.42019 0.00122 0.0
O310 O 0.46445 0.4304 0.01468 0.0
Mg311 Mg 0.48382 0.39542 0.06502 0.0
C312 C 0.43498 0.43663 0.99486 0.0
C313 C 0.30679 0.39811 0.01102 0.0
O314 O 0.32296 0.43084 0.01873 0.0
O315 O 0.41643 0.32651 0.01267 0.0
O316 O 0.47513 0.34264 0.02943 0.0
O317 O 0.37178 0.42389 0.08528 0.0
O318 O 0.42533 0.39206 0.08282 0.0
C319 C 0.45223 0.32072 0.01208 0.0
C320 C 0.40632 0.42005 0.0962 0.0
O321 O 0.32604 0.3677 0.01494 0.0
Mg322 Mg 0.92079 0.12672 0.00661 0.0
O323 O 0.92704 0.07622 0.04875 0.0
O324 O 0.98862 0.07336 0.06221 0.0
Mg325 Mg 0.02272 0.11371 0.02644 0.0
C326 C 0.95494 0.06203 0.06699 0.0
C327 C 0.83598 0.10849 0.99226 0.0
O328 O 0.85329 0.08533 0.96868 0.0
O329 O 0.9349 0.17189 0.05292 0.0
O330 O 0.99729 0.16381 0.05662 0.0
O331 O 0.93121 0.08736 0.95597 0.0
O332 O 0.9752 0.11817 0.98731 0.0
C333 C 0.9675 0.18212 0.06519 0.0
C334 C 0.96647 0.09526 0.96046 0.0
O335 O 0.85582 0.1294 0.01422 0.0
C336 C 0.15854 0.94236 0.51536 0.0
C337 C 0.13016 0.9402 0.54295 0.0
H338 H 0.18078 0.97292 0.46801 0.0
C339 C 0.10504 0.97098 0.54692 0.0
H340 H 0.17829 0.91922 0.51148 0.0
C341 C 0.10685 0.00212 0.52233 0.0
C342 C 0.13335 0.00275 0.49287 0.0
H343 H 0.08293 0.97027 0.56801 0.0
H344 H 0.08596 0.02432 0.52501 0.0
C345 C 0.15984 0.97308 0.49033 0.0
C346 C 0.95591 0.42545 0.56069 0.0
C347 C 0.93042 0.42757 0.53007 0.0
H348 H 0.97725 0.45231 0.61123 0.0
C349 C 0.90285 0.45625 0.53044 0.0
H350 H 0.97702 0.40338 0.56183 0.0
C351 C 0.90248 0.48381 0.55905 0.0
C352 C 0.93 0.48376 0.58792 0.0
H353 H 0.88233 0.45838 0.50769 0.0
H354 H 0.88167 0.50632 0.55727 0.0
C355 C 0.95591 0.45348 0.5892 0.0
C356 C 0.11801 0.91218 0.03703 0.0
C357 C 0.08852 0.88871 0.04924 0.0
H358 H 0.14377 0.94109 0.99066 0.0
C359 C 0.06329 0.874 0.0221 0.0
H360 H 0.13817 0.92366 0.05719 0.0
C361 C 0.06618 0.88441 0.98389 0.0
C362 C 0.09485 0.90909 0.97197 0.0
H363 H 0.04046 0.85566 0.03041 0.0
H364 H 0.04543 0.87385 0.96385 0.0
C365 C 0.12135 0.92198 -0.0012 0.0
C366 C 0.90556 0.61296 0.06385 0.0
C367 C 0.88716 0.58854 0.08918 0.0
H368 H 0.91871 0.62545 0.00588 0.0
C369 C 0.8651 0.55875 0.07428 0.0
H370 H 0.92244 0.63636 0.07416 0.0
C371 C 0.86219 0.55305 0.03499 0.0
C372 C 0.88208 0.57641 0.00982 0.0
H373 H 0.85035 0.53955 0.09302 0.0
H374 H 0.84526 0.52967 0.02439 0.0
C375 C 0.90352 0.60661 0.02464 0.0
C376 C 0.50224 0.01992 0.12591 0.0
C377 C 0.48929 -0.00138 0.09473 0.0
H378 H 0.54246 0.06114 0.14491 0.0
C379 C 0.51281 -0.00713 0.06336 0.0
H380 H 0.48438 0.0246 0.1504 0.0
C381 C 0.5472 0.01186 0.06143 0.0
C382 C 0.5569 0.03844 0.08966 0.0
H383 H 0.5033 0.97625 0.03916 0.0
H384 H 0.5633 0.01002 0.03542 0.0
C385 C 0.53568 0.04038 0.12308 0.0
C386 C 0.47931 0.45975 0.15845 0.0
C387 C 0.49747 0.48298 0.13184 0.0
H388 H 0.43377 0.42115 0.16777 0.0
C389 C 0.47781 0.49447 0.09915 0.0
H390 H 0.49377 0.4506 0.184 0.0
C391 C 0.44254 0.47892 0.09088 0.0
C392 C 0.42743 0.45078 0.11446 0.0
H393 H 0.49104 0.51276 0.07843 0.0
H394 H 0.4297 0.48498 0.06361 0.0
C395 C 0.4447 0.44322 0.14947 0.0
C396 C 0.50164 0.93745 0.30716 0.0
C397 C 0.52255 0.95015 0.33877 0.0
H398 H 0.4465 0.92629 0.28465 0.0
C399 C 0.50421 0.97227 0.36645 0.0
H400 H 0.51497 0.91986 0.28569 0.0
C401 C 0.46487 0.97447 0.36678 0.0
C402 C 0.44363 0.95628 0.33833 0.0
H403 H 0.51955 0.98214 0.39126 0.0
H404 H 0.45104 0.98674 0.39137 0.0
C405 C 0.46229 0.94067 0.30684 0.0
C406 C 0.52409 0.51445 0.34657 0.0
C407 C 0.50071 0.51149 0.37854 0.0
H408 H 0.5806 0.51096 0.32555 0.0
C409 C 0.51436 0.49257 0.41083 0.0
H410 H 0.51436 0.5295 0.32156 0.0
C411 C 0.55267 0.48387 0.4139 0.0
C412 C 0.57713 0.49209 0.38384 0.0
H413 H 0.49695 0.49017 0.43591 0.0
H414 H 0.56371 0.47419 0.44094 0.0
C415 C 0.56215 0.50437 0.34907 0.0
C416 C 0.03774 0.51028 0.06242 0.0
C417 C 0.02231 0.47472 0.07093 0.0
H418 H 0.03966 0.56942 0.07719 0.0
C419 C 1.00279 0.46975 0.10509 0.0
H420 H 0.05262 0.51461 0.03598 0.0
C421 C 0.9959 0.50073 0.12899 0.0
C422 C 0.00753 0.53735 0.11841 0.0
H423 H 0.99058 0.44241 0.11195 0.0
H424 H 0.97832 0.49649 0.15369 0.0
C425 C 0.0302 0.54154 0.08595 0.0
C426 C 0.075 0.48289 0.46765 0.0
C427 C 0.04401 0.46861 0.44709 0.0
H428 H 0.10634 0.53255 0.48423 0.0
C429 C 0.02408 0.49336 0.42287 0.0
H430 H 0.09092 0.4646 0.48651 0.0
C431 C 0.03241 0.53213 0.42231 0.0
C432 C 0.06158 0.5467 0.4449 0.0
H433 H 1.00003 0.48348 0.40662 0.0
H434 H 0.01474 0.55108 0.40579 0.0
C435 C 0.08394 0.52168 0.46627 0.0
C436 C 0.98541 0.96564 0.36294 0.0
C437 C 0.96876 0.94101 0.38914 0.0
H438 H 0.01636 0.01686 0.35469 0.0
C439 C 0.96382 0.95326 0.42682 0.0
H440 H 0.9898 0.95657 0.3338 0.0
C441 C 0.97976 0.98765 0.43918 0.0
C442 C 1.00077 0.01 0.41387 0.0
H443 H 0.95158 0.93436 0.44762 0.0
H444 H 0.97892 -0.0054 0.46919 0.0
C445 C 1.00097 0.0 0.3751 0.0
C446 C 0.50878 0.52802 0.55341 0.0
C447 C 0.48068 0.52644 0.52515 0.0
H448 H 0.54002 0.49727 0.59566 0.0
C449 C 0.45786 0.49398 0.52264 0.0
H450 H 0.52704 0.55259 0.55558 0.0
C451 C 0.46602 0.46199 0.54478 0.0
C452 C 0.49636 0.46238 0.57055 0.0
H453 H 0.4365 0.49174 0.50069 0.0
H454 H 0.45043 0.43599 0.53969 0.0
C455 C 0.51622 0.49638 0.57634 0.0
C456 C 0.62325 0.5745 0.07172 0.0
C457 C 0.59225 0.58276 0.09516 0.0
H458 H 0.64485 0.57157 0.015 0.0
C459 C 0.55976 0.59862 0.07861 0.0
H460 H 0.64895 0.56294 0.0836 0.0
C461 C 0.55784 0.60442 0.03929 0.0
C462 C 0.58808 0.59389 0.01584 0.0
H463 H 0.53533 0.60518 0.09576 0.0
H464 H 0.53205 0.61543 0.02716 0.0
C465 C 0.62095 0.57936 0.03245 0.0
C466 C 0.4488 0.85779 0.0143 0.0
C467 C 0.41402 0.87332 0.02556 0.0
H468 H 0.4841 0.84195 0.96747 0.0
C469 C 0.38555 0.87789 0.99809 0.0
H470 H 0.47137 0.85411 0.03474 0.0
C471 C 0.39313 0.87185 0.95974 0.0
C472 C 0.42909 0.86035 0.94802 0.0
H473 H 0.35831 0.88943 0.00585 0.0
H474 H 0.3714 0.87832 0.93905 0.0
C475 C 0.45623 0.85119 0.97569 0.0
C476 C 0.61573 0.36843 0.52605 0.0
C477 C 0.62573 0.39059 0.55787 0.0
H478 H 0.61961 0.36121 0.4657 0.0
C479 C 0.65195 0.41999 0.55346 0.0
H480 H 0.59625 0.34503 0.52862 0.0
C481 C 0.66592 0.42883 0.51764 0.0
C482 C 0.65365 0.40869 0.48524 0.0
H483 H 0.66078 0.4372 0.57753 0.0
H484 H 0.68485 0.45276 0.51523 0.0
C485 C 0.62939 0.37755 0.49 0.0
C486 C 0.38453 0.08214 0.46851 0.0
C487 C 0.37481 0.06395 0.50256 0.0
H488 H 0.38305 0.08021 0.40763 0.0
C489 C 0.35153 0.03174 0.50093 0.0
H490 H 0.40199 0.10729 0.46878 0.0
C491 C 0.34024 0.01655 0.46607 0.0
C492 C 0.35219 0.03298 0.43184 0.0
H493 H 0.34294 0.01739 0.52665 0.0
H494 H 0.32351 -0.00919 0.46609 0.0
C495 C 0.37346 0.0667 0.43342 0.0
C496 C 0.05184 0.6782 0.57532 0.0
C497 C 0.07311 0.65058 0.55605 0.0
H498 H 1.00145 0.69008 0.60647 0.0
C499 C 0.06314 0.61206 0.55909 0.0
H500 H 0.05848 0.70814 0.57241 0.0
C501 C 0.02996 0.60184 0.5778 0.0
C502 C 1.00704 0.63006 0.59399 0.0
H503 H 0.07846 0.59048 0.54336 0.0
H504 H 0.02081 0.57245 0.5771 0.0
C505 C 0.01903 0.66797 0.59428 0.0
C506 C 0.04534 0.7984 0.44605 0.0
C507 C 0.00853 0.80377 0.45979 0.0
H508 H 0.10402 0.79343 0.45965 0.0
C509 C 1.00283 0.80569 0.49916 0.0
H510 H 0.05067 0.79575 0.41592 0.0
C511 C 0.03331 0.80341 0.5242 0.0
C512 C 0.0703 0.79984 0.51048 0.0
H513 H 0.97479 0.809 0.51071 0.0
H514 H 0.02773 0.80467 0.55436 0.0
C515 C 0.07595 0.79671 0.47113 0.0
C516 C 0.99443 0.47789 0.91335 0.0
C517 C 0.99526 0.43794 0.91227 0.0
H518 H 0.96004 0.52794 0.90704 0.0
C519 C 0.96422 0.41811 0.89751 0.0
H520 H 0.01786 0.49366 0.92524 0.0
C521 C 0.93136 0.43735 0.88795 0.0
C522 C 0.92903 0.47688 0.89245 0.0
H523 H 0.96425 0.38728 0.89646 0.0
H524 H 0.90694 0.42101 0.87926 0.0
C525 C 0.96132 0.49739 0.90324 0.0
C526 C 0.02075 0.02852 0.89564 0.0
C527 C 0.05769 0.042 0.90106 0.0
H528 H 0.96243 0.03449 0.91073 0.0
C529 C 0.06342 0.0747 0.9232 0.0
H530 H 0.0152 0.00388 0.87814 0.0
C531 C 0.03335 0.09247 0.94107 0.0
C532 C 0.99676 0.07766 0.93788 0.0
H533 H 0.09136 0.08636 0.92729 0.0
H534 H 0.03906 0.11765 0.95794 0.0
C535 C 0.99045 0.04611 0.91417 0.0
C536 C 0.51427 -0.00692 0.54213 0.0
C537 C 0.52185 0.02993 0.52877 0.0
H538 H 0.51806 0.93321 0.53075 0.0
C539 C 0.54753 0.03407 0.49865 0.0
H540 H 0.49461 -0.01125 0.56515 0.0
C541 C 0.56178 0.00204 0.47958 0.0
C542 C 0.55019 0.96542 0.48998 0.0
H543 H 0.55412 0.06205 0.48777 0.0
H544 H 0.5783 0.00615 0.45411 0.0
C545 C 0.52789 0.96115 0.52256 0.0
C546 C 0.57345 0.00303 0.94879 0.0
C547 C 0.5464 0.03212 0.94646 0.0
H548 H 0.58713 0.94505 0.93516 0.0
C549 C 0.51481 0.02691 0.9229 0.0
H550 H 0.5977 0.00612 0.9673 0.0
C551 C 0.50915 -0.00766 0.90388 0.0
C552 C 0.53434 0.96192 0.90913 0.0
H553 H 0.49333 0.04877 0.92107 0.0
H554 H 0.48349 0.98849 0.88759 0.0
C555 C 0.5672 0.96799 0.93072 0.0
C556 C 0.47909 0.50156 0.92514 0.0
C557 C 0.46502 0.53679 0.93811 0.0
H558 H 0.48002 0.44123 0.93341 0.0
C559 C 0.43339 0.53694 0.9621 0.0
H560 H 0.50316 0.50019 0.90637 0.0
C561 C 0.41946 0.50276 0.97668 0.0
C562 C 0.43725 0.46819 0.96781 0.0
H563 H 0.42162 0.5635 0.97237 0.0
H564 H 0.3977 0.50384 0.99816 0.0
C565 C 0.46572 0.46761 0.94038 0.0
C566 C 0.9324 -0.0045 0.0745 0.0
C567 C 0.95047 0.02745 0.09005 0.0
H568 H 0.92955 0.93467 0.0731 0.0
C569 C 0.97298 0.02298 0.12262 0.0
H570 H 0.91505 -0.0018 0.04926 0.0
C571 C 0.98121 0.98674 0.13645 0.0
C572 C 0.96762 0.95423 0.11747 0.0
H573 H 0.98708 0.0473 0.13521 0.0
H574 H 1.00124 0.98427 0.1596 0.0
C575 C 0.94101 0.95905 0.08805 0.0
C576 C 0.03419 0.20818 0.40069 0.0
C577 C 0.06155 0.19383 0.42578 0.0
H578 H 0.99978 0.25631 0.3855 0.0
C579 C 0.07931 0.21883 0.45123 0.0
H580 H 0.02001 0.1893 0.3809 0.0
C581 C 0.06835 0.25688 0.45353 0.0
C582 C 0.03873 0.2709 0.4309 0.0
H583 H 0.10068 0.20846 0.47069 0.0
H584 H 0.08166 0.27475 0.47482 0.0
C585 C 0.02275 0.24653 0.40328 0.0
C586 C 0.94853 0.72371 0.20643 0.0
C587 C 0.97733 0.70065 0.22123 0.0
H588 H 0.93451 0.77743 0.18139 0.0
C589 C 0.01217 0.71716 0.23026 0.0
H590 H 0.92168 0.71138 0.19853 0.0
C591 C 0.01925 0.75528 0.22129 0.0
C592 C 0.99195 0.77695 0.20205 0.0
H593 H 0.03495 0.69974 0.24114 0.0
H594 H 0.04744 0.76628 0.2254 0.0
C595 C 0.9559 0.76148 0.19654 0.0
C596 C 0.30022 0.95955 0.20434 0.0
C597 C 0.32538 0.92914 0.19823 0.0
H598 H 0.26779 -0.00887 0.24505 0.0
C599 C 0.33168 0.90306 0.22776 0.0
H600 H 0.29489 0.98034 0.18232 0.0
C601 C 0.31569 0.90907 0.26354 0.0
C602 C 0.29371 0.94167 0.27054 0.0
H603 H 0.35095 0.87943 0.22396 0.0
H604 H 0.32284 0.88974 0.28635 0.0
C605 C 0.28496 0.96603 0.24034 0.0
C606 C 0.67881 0.51843 0.2798 0.0
C607 C 0.67219 0.49124 0.25118 0.0
H608 H 0.70359 0.53008 0.3342 0.0
C609 C 0.68852 0.45494 0.25458 0.0
H610 H 0.66662 0.54664 0.27783 0.0
C611 C 0.7086 0.44509 0.28725 0.0
C612 C 0.71363 0.47159 0.31675 0.0
H613 H 0.68379 0.43329 0.23309 0.0
H614 H 0.71909 0.41626 0.2901 0.0
C615 C 0.70002 0.50893 0.31201 0.0
C616 C 0.24737 0.43084 0.99138 0.0
C617 C 0.26565 0.39733 0.00301 0.0
H618 H 0.19534 0.45862 0.9786 0.0
C619 C 0.2437 0.36488 0.01028 0.0
H620 H 0.26333 0.45638 0.98562 0.0
C621 C 0.20424 0.36635 0.00686 0.0
C622 C 0.18606 0.40014 0.99561 0.0
H623 H 0.25687 0.33873 0.01967 0.0
H624 H 0.18804 0.34106 0.01296 0.0
C625 C 0.20824 0.43215 0.98751 0.0
C626 C 0.25842 0.64402 0.42951 0.0
C627 C 0.23168 0.61479 0.4334 0.0
H628 H 0.31718 0.65857 0.42546 0.0
C629 C 0.2446 0.57699 0.43507 0.0
H630 H 0.24945 0.67348 0.42879 0.0
C631 C 0.28305 0.56847 0.4328 0.0
C632 C 0.31 0.59754 0.42983 0.0
H633 H 0.22485 0.55381 0.43838 0.0
H634 H 0.29174 0.53893 0.43397 0.0
C635 C 0.29723 0.63551 0.42818 0.0
C636 C 0.75114 0.91353 0.40571 0.0
C637 C 0.72383 0.88479 0.40235 0.0
H638 H 0.80966 0.92789 0.408 0.0
C639 C 0.73636 0.84688 0.39819 0.0
H640 H 0.74269 0.94301 0.40882 0.0
C641 C 0.77518 0.83821 0.39667 0.0
C642 C 0.8024 0.86712 0.40021 0.0
H643 H 0.71617 0.82404 0.39511 0.0
H644 H 0.78386 0.80885 0.39312 0.0
C645 C 0.78969 0.90481 0.40514 0.0
C646 C 0.55715 0.76137 0.82534 0.0
C647 C 0.52552 0.78512 0.82767 0.0
H648 H 0.58065 0.70672 0.83788 0.0
C649 C 0.49116 0.77 0.84014 0.0
H650 H 0.5839 0.77255 0.81589 0.0
C651 C 0.48951 0.73273 0.85385 0.0
C652 C 0.52183 0.70966 0.85378 0.0
H653 H 0.4663 0.78777 0.84185 0.0
H654 H 0.46366 0.7227 0.86653 0.0
C655 C 0.55514 0.72367 0.83763 0.0
C656 C 0.52522 0.26463 0.60912 0.0
C657 C 0.5044 0.28093 0.63891 0.0
H658 H 0.53295 0.21646 0.57247 0.0
C659 C 0.47949 0.25791 0.65937 0.0
H660 H 0.54578 0.28115 0.5939 0.0
C661 C 0.47301 0.22015 0.64784 0.0
C662 C 0.49104 0.20524 0.61543 0.0
H663 H 0.46321 0.26981 0.68253 0.0
H664 H 0.45167 0.20378 0.66234 0.0
C665 C 0.5183 0.22736 0.59719 0.0
C666 C 0.82808 0.57734 0.79593 0.0
C667 C 0.84867 0.59745 0.82387 0.0
H668 H 0.82706 0.55583 0.73842 0.0
C669 C 0.88406 0.61215 0.81421 0.0
H670 H 0.80042 0.56617 0.80218 0.0
C671 C 0.89959 0.605 0.77868 0.0
C672 C 0.87956 0.58435 0.75107 0.0
H673 H 0.90009 0.6291 0.83428 0.0
H674 H 0.92716 0.61648 0.77247 0.0
C675 C 0.84327 0.57125 0.75956 0.0
C676 C 0.10137 0.84187 0.73383 0.0
C677 C 0.13034 0.85148 0.70873 0.0
H678 H 0.07721 0.85014 0.78862 0.0
C679 C 0.16139 0.87215 0.72244 0.0
H680 H 0.07749 0.82528 0.72413 0.0
C681 C 0.16114 0.8868 0.75961 0.0
C682 C 0.12996 0.8806 0.78334 0.0
H683 H 0.18417 0.87971 0.70358 0.0
H684 H 0.18361 0.9057 0.76842 0.0
C685 C 0.10134 0.85597 0.77085 0.0
C686 C 0.77357 0.08071 0.97427 0.0
C687 C 0.79407 0.10994 0.99222 0.0
H688 H 0.71948 0.05739 0.96104 0.0
C689 C 0.77409 0.14026 0.009 0.0
H690 H 0.78791 0.05698 0.9609 0.0
C691 C 0.73448 0.14088 0.00831 0.0
C692 C 0.71415 0.11087 0.9914 0.0
H693 H 0.78901 0.1634 0.02274 0.0
H694 H 0.71983 0.16406 0.02228 0.0
C695 C 0.73423 0.08102 0.97416 0.0
C696 C 0.15359 0.96793 0.25345 0.0
C697 C 0.11639 0.95809 0.24386 0.0
H698 H 0.18977 0.00214 0.28842 0.0
C699 C 0.08661 0.97795 0.26118 0.0
H700 H 0.17717 0.9533 0.24046 0.0
C701 C 0.09388 0.00667 0.28791 0.0
C702 C 0.13107 0.01564 0.2984 0.0
H703 H 0.05766 0.97134 0.25407 0.0
H704 H 0.07029 0.02079 0.3014 0.0
C705 C 0.16083 -0.0039 0.28072 0.0
C706 C 0.87614 0.44365 0.31746 0.0
C707 C 0.91178 0.43321 0.33142 0.0
H708 H 0.84444 0.48026 0.28081 0.0
C709 C 0.94369 0.45221 0.31757 0.0
H710 H 0.851 0.42972 0.32772 0.0
C711 C 0.93987 0.48186 0.2913 0.0
C712 C 0.90411 0.49269 0.27782 0.0
H713 H 0.97152 0.44521 0.32814 0.0
H714 H 0.9649 0.49641 0.28167 0.0
C715 C 0.87238 0.47276 0.2907 0.0
C716 C 0.25522 0.97134 0.95765 0.0
C717 C 0.25263 0.00077 0.93083 0.0
H718 H 0.28264 0.95029 0.00767 0.0
C719 C 0.27762 0.03159 0.93362 0.0
H720 H 0.23609 0.94741 0.95654 0.0
C721 C 0.3045 0.03309 0.96276 0.0
C722 C 0.30634 0.00422 0.99021 0.0
H723 H 0.27618 0.05476 0.91346 0.0
H724 H 0.32338 0.05721 0.96419 0.0
C725 C 0.28156 0.97323 0.98724 0.0
C726 C 0.70995 0.51716 0.04568 0.0
C727 C 0.68145 0.49186 0.03433 0.0
H728 H 0.75669 0.55128 0.02885 0.0
C729 C 0.67923 0.48073 0.99593 0.0
H730 H 0.71233 0.52652 0.07496 0.0
C731 C 0.70517 0.49455 0.96949 0.0
C732 C 0.73304 0.52055 0.98086 0.0
H733 H 0.65747 0.46139 0.98632 0.0
H734 H 0.70312 0.48538 0.94013 0.0
C735 C 0.73513 0.53171 0.01916 0.0
C736 C 0.30125 0.86023 0.48688 0.0
C737 C 0.27145 0.87166 0.46324 0.0
H738 H 0.31817 0.83671 0.53988 0.0
C739 C 0.23426 0.86606 0.47571 0.0
H740 H 0.33025 0.86405 0.47831 0.0
C741 C 0.22721 0.84985 0.5114 0.0
C742 C 0.25721 0.83952 0.53538 0.0
H743 H 0.21064 0.87436 0.45802 0.0
H744 H 0.19842 0.84584 0.5203 0.0
C745 C 0.29425 0.84455 0.52241 0.0
C746 C 0.78927 0.5756 0.54305 0.0
C747 C 0.81046 0.60883 0.53748 0.0
H748 H 0.74936 0.53631 0.51965 0.0
C749 C 0.80511 0.62955 0.50378 0.0
H750 H 0.79277 0.55887 0.5686 0.0
C751 C 0.7802 0.61663 0.4757 0.0
C752 C 0.76022 0.58255 0.48055 0.0
H753 H 0.82093 0.6553 0.49858 0.0
H754 H 0.77745 0.63285 0.44973 0.0
C755 C 0.76451 0.56255 0.51486 0.0
C756 C 0.02092 0.27174 0.07512 0.0
C757 C 0.99317 0.2972 0.06276 0.0
H758 H 0.03366 0.21432 0.08948 0.0
C759 C 0.955 0.28654 0.06607 0.0
H760 H 0.05041 0.27942 0.07435 0.0
C761 C 0.94532 0.24889 0.07367 0.0
C762 C 0.97369 0.22164 0.07867 0.0
H763 H 0.93256 0.30599 0.05841 0.0
H764 H 0.91615 0.24045 0.07065 0.0
C765 C 0.01109 0.23435 0.08395 0.0
C766 C 0.98546 0.71007 0.36492 0.0
C767 C 0.02528 0.71125 0.36629 0.0
H768 H 0.93443 0.73701 0.34655 0.0
C769 C 0.04383 0.73603 0.3416 0.0
H770 H 0.96998 0.69043 0.38258 0.0
C771 C 0.02301 0.76217 0.31987 0.0
C772 C 0.98344 0.76513 0.32367 0.0
H773 H 0.07427 0.73738 0.34131 0.0
H774 H 0.03824 0.78255 0.30285 0.0
C775 C 0.9648 0.73677 0.34408 0.0
C776 C 0.49241 0.76909 0.45811 0.0
C777 C 0.5302 0.77968 0.45163 0.0
H778 H 0.45258 0.72362 0.46201 0.0
C779 C 0.55801 0.75143 0.45233 0.0
H780 H 0.47015 0.79022 0.45868 0.0
C781 C 0.54778 0.71318 0.45501 0.0
C782 C 0.5095 0.70239 0.45646 0.0
H783 H 0.5873 0.75853 0.44795 0.0
H784 H 0.56992 0.69202 0.45301 0.0
C785 C 0.48211 0.73083 0.46011 0.0
C786 C 0.56726 0.50818 0.79078 0.0
C787 C 0.59038 0.50148 0.82261 0.0
H788 H 0.54662 0.48714 0.7373 0.0
C789 C 0.61107 0.46739 0.82426 0.0
H790 H 0.5507 0.53401 0.78882 0.0
C791 C 0.60899 0.44076 0.79467 0.0
C792 C 0.58562 0.44721 0.76301 0.0
H793 H 0.62908 0.46133 0.8484 0.0
H794 H 0.62557 0.41494 0.79674 0.0
C795 C 0.56465 0.48117 0.76144 0.0
C796 C 0.45108 0.97594 0.73828 0.0
C797 C 0.42241 0.97168 0.76533 0.0
H798 H 0.4705 0.00567 0.68924 0.0
C799 C 0.39079 -0.0043 0.76356 0.0
H800 H 0.47596 0.95809 0.73907 0.0
C801 C 0.38753 0.02286 0.73477 0.0
C802 C 0.41609 0.0269 0.70756 0.0
H803 H 0.36828 -0.00683 0.78406 0.0
H804 H 0.36254 0.04052 0.73374 0.0
C805 C 0.44808 0.00342 0.70987 0.0
C806 C 0.44758 0.25177 0.99354 0.0
C807 C 0.46887 0.28513 0.99641 0.0
H808 H 0.44842 0.19103 0.99228 0.0
C809 C 0.50832 0.28258 0.99192 0.0
H810 H 0.41725 0.25265 0.99647 0.0
C811 C 0.52643 0.2472 0.99015 0.0
C812 C 0.50539 0.21366 0.99248 0.0
H813 H 0.52563 0.3079 0.99312 0.0
H814 H 0.5569 0.24628 0.99042 0.0
C815 C 0.46567 0.21638 0.99141 0.0
loop_
_geom_bond_atom_site_label_1
_geom_bond_atom_site_label_2
_geom_bond_distance
_geom_bond_site_symmetry_2
_ccdc_geom_bond_type
Mg0 O1 2.028 1_455 S
Mg0 O7 1.986 1_455 S
Mg0 O9 2.114 . S
Mg0 O10 2.251 . S
Mg0 O13 2.010 . S
O1 Mg0 2.028 1_655 S
O1 C4 1.250 . S
O2 Mg3 2.028 . S
O2 C4 1.248 . S
Mg3 O2 2.028 . S
Mg3 O8 2.032 . S
Mg3 O10 2.079 1_655 S
C4 O1 1.250 . S
C4 O2 1.248 . S
C5 O6 1.264 . S
C5 O13 1.249 . S
O6 C5 1.264 . S
O7 Mg0 1.986 1_655 S
O7 C11 1.246 . S
O8 Mg3 2.032 . S
O8 C11 1.259 . S
O9 Mg0 2.114 . S
O9 C12 1.252 . S
O10 Mg0 2.251 . S
O10 Mg3 2.079 1_455 S
O10 C12 1.273 . S
C11 O7 1.246 . S
C11 O8 1.259 . S
C12 O9 1.252 . S
C12 O10 1.273 . S
O13 Mg0 2.010 . S
O13 C5 1.249 . S
Mg14 O15 2.028 1_655 S
Mg14 O21 1.986 1_655 S
Mg14 O23 2.114 . S
Mg14 O24 2.251 . S
Mg14 O27 2.010 . S
O15 Mg14 2.028 1_455 S
O15 C18 1.250 . S
O16 Mg17 2.028 . S
O16 C18 1.248 . S
Mg17 O16 2.028 . S
Mg17 O22 2.032 . S
Mg17 O24 2.079 1_455 S
C18 O15 1.250 . S
C18 O16 1.248 . S
C19 O20 1.264 . S
C19 O27 1.249 . S
O20 C19 1.264 . S
O21 Mg14 1.986 1_455 S
O21 C25 1.246 . S
O22 Mg17 2.032 . S
O22 C25 1.259 . S
O23 Mg14 2.114 . S
O23 C26 1.252 . S
O24 Mg14 2.251 . S
O24 Mg17 2.079 1_655 S
O24 C26 1.273 . S
C25 O21 1.246 . S
C25 O22 1.259 . S
C26 O23 1.252 . S
C26 O24 1.273 . S
O27 Mg14 2.010 . S
O27 C19 1.249 . S
Mg28 O29 2.028 1_455 S
Mg28 O35 1.986 1_455 S
Mg28 O37 2.114 . S
Mg28 O38 2.251 . S
Mg28 O41 2.010 . S
O29 Mg28 2.028 1_655 S
O29 C32 1.250 . S
O30 Mg31 2.028 . S
O30 C32 1.248 . S
Mg31 O30 2.028 . S
Mg31 O36 2.032 . S
Mg31 O38 2.079 1_655 S
C32 O29 1.250 . S
C32 O30 1.248 . S
C33 O34 1.264 . S
C33 O41 1.249 . S
O34 C33 1.264 . S
O35 Mg28 1.986 1_655 S
O35 C39 1.246 . S
O36 Mg31 2.032 . S
O36 C39 1.259 . S
O37 Mg28 2.114 . S
O37 C40 1.252 . S
O38 Mg28 2.251 . S
O38 Mg31 2.079 1_455 S
O38 C40 1.273 . S
C39 O35 1.246 . S
C39 O36 1.259 . S
C40 O37 1.252 . S
C40 O38 1.273 . S
O41 Mg28 2.010 . S
O41 C33 1.249 . S
Mg42 O43 2.028 1_655 S
Mg42 O49 1.986 1_655 S
Mg42 O51 2.114 . S
Mg42 O52 2.251 . S
Mg42 O55 2.010 . S
O43 Mg42 2.028 1_455 S
O43 C46 1.250 . S
O44 Mg45 2.028 . S
O44 C46 1.248 . S
Mg45 O44 2.028 . S
Mg45 O50 2.032 . S
Mg45 O52 2.079 1_455 S
C46 O43 1.250 . S
C46 O44 1.248 . S
C47 O48 1.264 . S
C47 O55 1.249 . S
O48 C47 1.264 . S
O49 Mg42 1.986 1_455 S
O49 C53 1.246 . S
O50 Mg45 2.032 . S
O50 C53 1.259 . S
O51 Mg42 2.114 . S
O51 C54 1.252 . S
O52 Mg42 2.251 . S
O52 Mg45 2.079 1_655 S
O52 C54 1.273 . S
C53 O49 1.246 . S
C53 O50 1.259 . S
C54 O51 1.252 . S
C54 O52 1.273 . S
O55 Mg42 2.010 . S
O55 C47 1.249 . S
Mg56 O57 2.028 1_545 S
Mg56 O63 1.986 1_545 S
Mg56 O65 2.114 . S
Mg56 O66 2.251 . S
Mg56 O69 2.010 . S
O57 Mg56 2.028 1_565 S
O57 C60 1.250 . S
O58 Mg59 2.028 . S
O58 C60 1.248 . S
Mg59 O58 2.028 . S
Mg59 O64 2.032 . S
Mg59 O66 2.079 1_565 S
C60 O57 1.250 . S
C60 O58 1.248 . S
C61 O62 1.264 . S
C61 O69 1.249 . S
O62 C61 1.264 . S
O63 Mg56 1.986 1_565 S
O63 C67 1.246 . S
O64 Mg59 2.032 . S
O64 C67 1.259 . S
O65 Mg56 2.114 . S
O65 C68 1.252 . S
O66 Mg56 2.251 . S
O66 Mg59 2.079 1_545 S
O66 C68 1.273 . S
C67 O63 1.246 . S
C67 O64 1.259 . S
C68 O65 1.252 . S
C68 O66 1.273 . S
O69 Mg56 2.010 . S
O69 C61 1.249 . S
Mg70 O71 2.028 . S
Mg70 O77 1.986 . S
Mg70 O79 2.114 . S
Mg70 O80 2.251 . S
Mg70 O83 2.010 . S
O71 Mg70 2.028 . S
O71 C74 1.250 . S
O72 Mg73 2.028 . S
O72 C74 1.248 . S
Mg73 O72 2.028 . S
Mg73 O78 2.032 . S
Mg73 O80 2.079 . S
C74 O71 1.250 . S
C74 O72 1.248 . S
C75 O76 1.264 . S
C75 O83 1.249 . S
O76 C75 1.264 . S
O77 Mg70 1.986 . S
O77 C81 1.246 . S
O78 Mg73 2.032 . S
O78 C81 1.259 . S
O79 Mg70 2.114 . S
O79 C82 1.252 . S
O80 Mg70 2.251 . S
O80 Mg73 2.079 . S
O80 C82 1.273 . S
C81 O77 1.246 . S
C81 O78 1.259 . S
C82 O79 1.252 . S
C82 O80 1.273 . S
O83 Mg70 2.010 . S
O83 C75 1.249 . S
Mg84 O85 2.028 1_565 S
Mg84 O91 1.986 1_565 S
Mg84 O93 2.114 . S
Mg84 O94 2.251 . S
Mg84 O97 2.010 . S
O85 Mg84 2.028 1_545 S
O85 C88 1.250 . S
O86 Mg87 2.028 . S
O86 C88 1.248 . S
Mg87 O86 2.028 . S
Mg87 O92 2.032 . S
Mg87 O94 2.079 1_545 S
C88 O85 1.250 . S
C88 O86 1.248 . S
C89 O90 1.264 . S
C89 O97 1.249 . S
O90 C89 1.264 . S
O91 Mg84 1.986 1_545 S
O91 C95 1.246 . S
O92 Mg87 2.032 . S
O92 C95 1.259 . S
O93 Mg84 2.114 . S
O93 C96 1.252 . S
O94 Mg84 2.251 . S
O94 Mg87 2.079 1_565 S
O94 C96 1.273 . S
C95 O91 1.246 . S
C95 O92 1.259 . S
C96 O93 1.252 . S
C96 O94 1.273 . S
O97 Mg84 2.010 . S
O97 C89 1.249 . S
Mg98 O99 2.028 . S
Mg98 O105 1.986 . S
Mg98 O107 2.114 . S
Mg98 O108 2.251 . S
Mg98 O111 2.010 . S
O99 Mg98 2.028 . S
O99 C102 1.250 . S
O100 Mg101 2.028 . S
O100 C102 1.248 . S
Mg101 O100 2.028 . S
Mg101 O106 2.032 . S
Mg101 O108 2.079 . S
C102 O99 1.250 . S
C102 O100 1.248 . S
C103 O104 1.264 . S
C103 O111 1.249 . S
O104 C103 1.264 . S
O105 Mg98 1.986 . S
O105 C109 1.246 . S
O106 Mg101 2.032 . S
O106 C109 1.259 . S
O107 Mg98 2.114 . S
O107 C110 1.252 . S
O108 Mg98 2.251 . S
O108 Mg101 2.079 . S
O108 C110 1.273 . S
C109 O105 1.246 . S
C109 O106 1.259 . S
C110 O107 1.252 . S
C110 O108 1.273 . S
O111 Mg98 2.010 . S
O111 C103 1.249 . S
Mg112 O113 2.028 1_556 S
Mg112 O119 1.986 1_556 S
Mg112 O121 2.114 . S
Mg112 O122 2.251 . S
Mg112 O125 2.010 . S
O113 Mg112 2.028 1_554 S
O113 C116 1.250 . S
O114 Mg115 2.028 1_455 S
O114 C116 1.248 . S
Mg115 O114 2.028 1_655 S
Mg115 O120 2.032 1_655 S
Mg115 O122 2.079 1_654 S
C116 O113 1.250 . S
C116 O114 1.248 . S
C117 O118 1.264 . S
C117 O125 1.249 . S
O118 C117 1.264 . S
O119 Mg112 1.986 1_554 S
O119 C123 1.246 . S
O120 Mg115 2.032 1_455 S
O120 C123 1.259 . S
O121 Mg112 2.114 . S
O121 C124 1.252 . S
O122 Mg112 2.251 . S
O122 Mg115 2.079 1_456 S
O122 C124 1.273 . S
C123 O119 1.246 . S
C123 O120 1.259 . S
C124 O121 1.252 . S
C124 O122 1.273 . S
O125 Mg112 2.010 . S
O125 C117 1.249 . S
Mg126 O127 2.028 . S
Mg126 O133 1.986 . S
Mg126 O135 2.114 . S
Mg126 O136 2.251 . S
Mg126 O139 2.010 . S
O127 Mg126 2.028 . S
O127 C130 1.250 . S
O128 Mg129 2.028 1_455 S
O128 C130 1.248 . S
Mg129 O128 2.028 1_655 S
Mg129 O134 2.032 1_655 S
Mg129 O136 2.079 1_655 S
C130 O127 1.250 . S
C130 O128 1.248 . S
C131 O132 1.264 . S
C131 O139 1.249 . S
O132 C131 1.264 . S
O133 Mg126 1.986 . S
O133 C137 1.246 . S
O134 Mg129 2.032 1_455 S
O134 C137 1.259 . S
O135 Mg126 2.114 . S
O135 C138 1.252 . S
O136 Mg126 2.251 . S
O136 Mg129 2.079 1_455 S
O136 C138 1.273 . S
C137 O133 1.246 . S
C137 O134 1.259 . S
C138 O135 1.252 . S
C138 O136 1.273 . S
O139 Mg126 2.010 . S
O139 C131 1.249 . S
Mg140 O141 2.028 . S
Mg140 O147 1.986 . S
Mg140 O149 2.114 . S
Mg140 O150 2.251 . S
Mg140 O153 2.010 . S
O141 Mg140 2.028 . S
O141 C144 1.250 . S
O142 Mg143 2.028 1_655 S
O142 C144 1.248 . S
Mg143 O142 2.028 1_455 S
Mg143 O148 2.032 1_455 S
Mg143 O150 2.079 1_455 S
C144 O141 1.250 . S
C144 O142 1.248 . S
C145 O146 1.264 . S
C145 O153 1.249 . S
O146 C145 1.264 . S
O147 Mg140 1.986 . S
O147 C151 1.246 . S
O148 Mg143 2.032 1_655 S
O148 C151 1.259 . S
O149 Mg140 2.114 . S
O149 C152 1.252 . S
O150 Mg140 2.251 . S
O150 Mg143 2.079 1_655 S
O150 C152 1.273 . S
C151 O147 1.246 . S
C151 O148 1.259 . S
C152 O149 1.252 . S
C152 O150 1.273 . S
O153 Mg140 2.010 . S
O153 C145 1.249 . S
Mg154 O155 2.028 . S
Mg154 O161 1.986 . S
Mg154 O163 2.114 . S
Mg154 O164 2.251 . S
Mg154 O167 2.010 . S
O155 Mg154 2.028 . S
O155 C158 1.250 . S
O156 Mg157 2.028 . S
O156 C158 1.248 . S
Mg157 O156 2.028 . S
Mg157 O162 2.032 . S
Mg157 O164 2.079 . S
C158 O155 1.250 . S
C158 O156 1.248 . S
C159 O160 1.264 . S
C159 O167 1.249 . S
O160 C159 1.264 . S
O161 Mg154 1.986 . S
O161 C165 1.246 . S
O162 Mg157 2.032 . S
O162 C165 1.259 . S
O163 Mg154 2.114 . S
O163 C166 1.252 . S
O164 Mg154 2.251 . S
O164 Mg157 2.079 . S
O164 C166 1.273 . S
C165 O161 1.246 . S
C165 O162 1.259 . S
C166 O163 1.252 . S
C166 O164 1.273 . S
O167 Mg154 2.010 . S
O167 C159 1.249 . S
Mg168 O169 2.028 . S
Mg168 O175 1.986 . S
Mg168 O177 2.114 . S
Mg168 O178 2.251 . S
Mg168 O181 2.010 . S
O169 Mg168 2.028 . S
O169 C172 1.250 . S
O170 Mg171 2.028 . S
O170 C172 1.248 . S
Mg171 O170 2.028 . S
Mg171 O176 2.032 . S
Mg171 O178 2.079 . S
C172 O169 1.250 . S
C172 O170 1.248 . S
C173 O174 1.264 . S
C173 O181 1.249 . S
O174 C173 1.264 . S
O175 Mg168 1.986 . S
O175 C179 1.246 . S
O176 Mg171 2.032 . S
O176 C179 1.259 . S
O177 Mg168 2.114 . S
O177 C180 1.252 . S
O178 Mg168 2.251 . S
O178 Mg171 2.079 . S
O178 C180 1.273 . S
C179 O175 1.246 . S
C179 O176 1.259 . S
C180 O177 1.252 . S
C180 O178 1.273 . S
O181 Mg168 2.010 . S
O181 C173 1.249 . S
Mg182 O183 2.028 . S
Mg182 O189 1.986 . S
Mg182 O191 2.114 . S
Mg182 O192 2.251 . S
Mg182 O195 2.010 . S
O183 Mg182 2.028 . S
O183 C186 1.250 . S
O184 Mg185 2.028 . S
O184 C186 1.248 . S
Mg185 O184 2.028 . S
Mg185 O190 2.032 . S
Mg185 O192 2.079 . S
C186 O183 1.250 . S
C186 O184 1.248 . S
C187 O188 1.264 . S
C187 O195 1.249 . S
O188 C187 1.264 . S
O189 Mg182 1.986 . S
O189 C193 1.246 . S
O190 Mg185 2.032 . S
O190 C193 1.259 . S
O191 Mg182 2.114 . S
O191 C194 1.252 . S
O192 Mg182 2.251 . S
O192 Mg185 2.079 . S
O192 C194 1.273 . S
C193 O189 1.246 . S
C193 O190 1.259 . S
C194 O191 1.252 . S
C194 O192 1.273 . S
O195 Mg182 2.010 . S
O195 C187 1.249 . S
Mg196 O197 2.028 . S
Mg196 O203 1.986 . S
Mg196 O205 2.114 . S
Mg196 O206 2.251 . S
Mg196 O209 2.010 . S
O197 Mg196 2.028 . S
O197 C200 1.250 . S
O198 Mg199 2.028 . S
O198 C200 1.248 . S
Mg199 O198 2.028 . S
Mg199 O204 2.032 . S
Mg199 O206 2.079 . S
C200 O197 1.250 . S
C200 O198 1.248 . S
C201 O202 1.264 . S
C201 O209 1.249 . S
O202 C201 1.264 . S
O203 Mg196 1.986 . S
O203 C207 1.246 . S
O204 Mg199 2.032 . S
O204 C207 1.259 . S
O205 Mg196 2.114 . S
O205 C208 1.252 . S
O206 Mg196 2.251 . S
O206 Mg199 2.079 . S
O206 C208 1.273 . S
C207 O203 1.246 . S
C207 O204 1.259 . S
C208 O205 1.252 . S
C208 O206 1.273 . S
O209 Mg196 2.010 . S
O209 C201 1.249 . S
Mg210 O211 2.028 . S
Mg210 O217 1.986 . S
Mg210 O219 2.114 . S
Mg210 O220 2.251 . S
Mg210 O223 2.010 . S
O211 Mg210 2.028 . S
O211 C214 1.250 . S
O212 Mg213 2.028 . S
O212 C214 1.248 . S
Mg213 O212 2.028 . S
Mg213 O218 2.032 . S
Mg213 O220 2.079 . S
C214 O211 1.250 . S
C214 O212 1.248 . S
C215 O216 1.264 . S
C215 O223 1.249 . S
O216 C215 1.264 . S
O217 Mg210 1.986 . S
O217 C221 1.246 . S
O218 Mg213 2.032 . S
O218 C221 1.259 . S
O219 Mg210 2.114 . S
O219 C222 1.252 . S
O220 Mg210 2.251 . S
O220 Mg213 2.079 . S
O220 C222 1.273 . S
C221 O217 1.246 . S
C221 O218 1.259 . S
C222 O219 1.252 . S
C222 O220 1.273 . S
O223 Mg210 2.010 . S
O223 C215 1.249 . S
Mg224 O225 2.028 . S
Mg224 O231 1.986 . S
Mg224 O233 2.114 . S
Mg224 O234 2.251 . S
Mg224 O237 2.010 . S
O225 Mg224 2.028 . S
O225 C228 1.250 . S
O226 Mg227 2.028 . S
O226 C228 1.248 . S
Mg227 O226 2.028 . S
Mg227 O232 2.032 . S
Mg227 O234 2.079 . S
C228 O225 1.250 . S
C228 O226 1.248 . S
C229 O230 1.264 . S
C229 O237 1.249 . S
O230 C229 1.264 . S
O231 Mg224 1.986 . S
O231 C235 1.246 . S
O232 Mg227 2.032 . S
O232 C235 1.259 . S
O233 Mg224 2.114 . S
O233 C236 1.252 . S
O234 Mg224 2.251 . S
O234 Mg227 2.079 . S
O234 C236 1.273 . S
C235 O231 1.246 . S
C235 O232 1.259 . S
C236 O233 1.252 . S
C236 O234 1.273 . S
O237 Mg224 2.010 . S
O237 C229 1.249 . S
Mg238 O239 2.028 1_565 S
Mg238 O245 1.986 1_565 S
Mg238 O247 2.114 . S
Mg238 O248 2.251 . S
Mg238 O251 2.010 . S
O239 Mg238 2.028 1_545 S
O239 C242 1.250 . S
O240 Mg241 2.028 . S
O240 C242 1.248 . S
Mg241 O240 2.028 . S
Mg241 O246 2.032 . S
Mg241 O248 2.079 1_545 S
C242 O239 1.250 . S
C242 O240 1.248 . S
C243 O244 1.264 . S
C243 O251 1.249 . S
O244 C243 1.264 . S
O245 Mg238 1.986 1_545 S
O245 C249 1.246 . S
O246 Mg241 2.032 . S
O246 C249 1.259 . S
O247 Mg238 2.114 . S
O247 C250 1.252 . S
O248 Mg238 2.251 . S
O248 Mg241 2.079 1_565 S
O248 C250 1.273 . S
C249 O245 1.246 . S
C249 O246 1.259 . S
C250 O247 1.252 . S
C250 O248 1.273 . S
O251 Mg238 2.010 . S
O251 C243 1.249 . S
Mg252 O253 2.028 . S
Mg252 O259 1.986 . S
Mg252 O261 2.114 . S
Mg252 O262 2.251 . S
Mg252 O265 2.010 . S
O253 Mg252 2.028 . S
O253 C256 1.250 . S
O254 Mg255 2.028 . S
O254 C256 1.248 . S
Mg255 O254 2.028 . S
Mg255 O260 2.032 . S
Mg255 O262 2.079 . S
C256 O253 1.250 . S
C256 O254 1.248 . S
C257 O258 1.264 . S
C257 O265 1.249 . S
O258 C257 1.264 . S
O259 Mg252 1.986 . S
O259 C263 1.246 . S
O260 Mg255 2.032 . S
O260 C263 1.259 . S
O261 Mg252 2.114 . S
O261 C264 1.252 . S
O262 Mg252 2.251 . S
O262 Mg255 2.079 . S
O262 C264 1.273 . S
C263 O259 1.246 . S
C263 O260 1.259 . S
C264 O261 1.252 . S
C264 O262 1.273 . S
O265 Mg252 2.010 . S
O265 C257 1.249 . S
Mg266 O267 2.028 1_545 S
Mg266 O273 1.986 1_545 S
Mg266 O275 2.114 . S
Mg266 O276 2.251 . S
Mg266 O279 2.010 . S
O267 Mg266 2.028 1_565 S
O267 C270 1.250 . S
O268 Mg269 2.028 . S
O268 C270 1.248 . S
Mg269 O268 2.028 . S
Mg269 O274 2.032 . S
Mg269 O276 2.079 1_565 S
C270 O267 1.250 . S
C270 O268 1.248 . S
C271 O272 1.264 . S
C271 O279 1.249 . S
O272 C271 1.264 . S
O273 Mg266 1.986 1_565 S
O273 C277 1.246 . S
O274 Mg269 2.032 . S
O274 C277 1.259 . S
O275 Mg266 2.114 . S
O275 C278 1.252 . S
O276 Mg266 2.251 . S
O276 Mg269 2.079 1_545 S
O276 C278 1.273 . S
C277 O273 1.246 . S
C277 O274 1.259 . S
C278 O275 1.252 . S
C278 O276 1.273 . S
O279 Mg266 2.010 . S
O279 C271 1.249 . S
Mg280 O281 2.028 . S
Mg280 O287 1.986 . S
Mg280 O289 2.114 . S
Mg280 O290 2.251 . S
Mg280 O293 2.010 . S
O281 Mg280 2.028 . S
O281 C284 1.250 . S
O282 Mg283 2.028 . S
O282 C284 1.248 . S
Mg283 O282 2.028 . S
Mg283 O288 2.032 . S
Mg283 O290 2.079 . S
C284 O281 1.250 . S
C284 O282 1.248 . S
C285 O286 1.264 . S
C285 O293 1.249 . S
O286 C285 1.264 . S
O287 Mg280 1.986 . S
O287 C291 1.246 . S
O288 Mg283 2.032 . S
O288 C291 1.259 . S
O289 Mg280 2.114 . S
O289 C292 1.252 . S
O290 Mg280 2.251 . S
O290 Mg283 2.079 . S
O290 C292 1.273 . S
C291 O287 1.246 . S
C291 O288 1.259 . S
C292 O289 1.252 . S
C292 O290 1.273 . S
O293 Mg280 2.010 . S
O293 C285 1.249 . S
Mg294 O295 2.028 1_554 S
Mg294 O301 1.986 1_554 S
Mg294 O303 2.114 . S
Mg294 O304 2.251 . S
Mg294 O307 2.010 . S
O295 Mg294 2.028 1_556 S
O295 C298 1.250 . S
O296 Mg297 2.028 . S
O296 C298 1.248 . S
Mg297 O296 2.028 . S
Mg297 O302 2.032 . S
Mg297 O304 2.079 1_556 S
C298 O295 1.250 . S
C298 O296 1.248 . S
C299 O300 1.264 . S
C299 O307 1.249 . S
O300 C299 1.264 . S
O301 Mg294 1.986 1_556 S
O301 C305 1.246 . S
O302 Mg297 2.032 . S
O302 C305 1.259 . S
O303 Mg294 2.114 . S
O303 C306 1.252 . S
O304 Mg294 2.251 . S
O304 Mg297 2.079 1_554 S
O304 C306 1.273 . S
C305 O301 1.246 . S
C305 O302 1.259 . S
C306 O303 1.252 . S
C306 O304 1.273 . S
O307 Mg294 2.010 . S
O307 C299 1.249 . S
Mg308 O309 2.028 1_554 S
Mg308 O315 1.986 1_554 S
Mg308 O317 2.114 . S
Mg308 O318 2.251 . S
Mg308 O321 2.010 . S
O309 Mg308 2.028 1_556 S
O309 C312 1.250 . S
O310 Mg311 2.028 . S
O310 C312 1.248 . S
Mg311 O310 2.028 . S
Mg311 O316 2.032 . S
Mg311 O318 2.079 1_556 S
C312 O309 1.250 . S
C312 O310 1.248 . S
C313 O314 1.264 . S
C313 O321 1.249 . S
O314 C313 1.264 . S
O315 Mg308 1.986 1_556 S
O315 C319 1.246 . S
O316 Mg311 2.032 . S
O316 C319 1.259 . S
O317 Mg308 2.114 . S
O317 C320 1.252 . S
O318 Mg308 2.251 . S
O318 Mg311 2.079 1_554 S
O318 C320 1.273 . S
C319 O315 1.246 . S
C319 O316 1.259 . S
C320 O317 1.252 . S
C320 O318 1.273 . S
O321 Mg308 2.010 . S
O321 C313 1.249 . S
Mg322 O323 2.028 1_556 S
Mg322 O329 1.986 1_556 S
Mg322 O331 2.114 . S
Mg322 O332 2.251 . S
Mg322 O335 2.010 . S
O323 Mg322 2.028 1_554 S
O323 C326 1.250 . S
O324 Mg325 2.028 1_655 S
O324 C326 1.248 . S
Mg325 O324 2.028 1_455 S
Mg325 O330 2.032 1_455 S
Mg325 O332 2.079 1_454 S
C326 O323 1.250 . S
C326 O324 1.248 . S
C327 O328 1.264 . S
C327 O335 1.249 . S
O328 C327 1.264 . S
O329 Mg322 1.986 1_554 S
O329 C333 1.246 . S
O330 Mg325 2.032 1_655 S
O330 C333 1.259 . S
O331 Mg322 2.114 . S
O331 C334 1.252 . S
O332 Mg322 2.251 . S
O332 Mg325 2.079 1_656 S
O332 C334 1.273 . S
C333 O329 1.246 . S
C333 O330 1.259 . S
C334 O331 1.252 . S
C334 O332 1.273 . S
O335 Mg322 2.010 . S
O335 C327 1.249 . S
C336 C337 1.387 . S
C336 H340 0.950 . S
C336 C345 1.390 . S
C337 C336 1.387 . S
C337 C339 1.387 . S
H338 C345 0.950 . S
C339 C337 1.387 . S
C339 C341 1.390 . S
C339 H343 0.950 . S
H340 C336 0.950 . S
C341 C339 1.390 . S
C341 C342 1.387 . S
C341 H344 0.950 . S
C342 C341 1.387 . S
C342 C345 1.387 . S
H343 C339 0.950 . S
H344 C341 0.950 . S
C345 C336 1.390 . S
C345 H338 0.950 . S
C345 C342 1.387 . S
C346 C347 1.387 . S
C346 H350 0.950 . S
C346 C355 1.390 . S
C347 C346 1.387 . S
C347 C349 1.387 . S
H348 C355 0.950 . S
C349 C347 1.387 . S
C349 C351 1.390 . S
C349 H353 0.950 . S
H350 C346 0.950 . S
C351 C349 1.390 . S
C351 C352 1.387 . S
C351 H354 0.950 . S
C352 C351 1.387 . S
C352 C355 1.387 . S
H353 C349 0.950 . S
H354 C351 0.950 . S
C355 C346 1.390 . S
C355 H348 0.950 . S
C355 C352 1.387 . S
C356 C357 1.387 . S
C356 H360 0.950 . S
C356 C365 1.390 1_554 S
C357 C356 1.387 . S
C357 C359 1.387 . S
H358 C365 0.950 . S
C359 C357 1.387 . S
C359 C361 1.390 1_554 S
C359 H363 0.950 . S
H360 C356 0.950 . S
C361 C359 1.390 1_556 S
C361 C362 1.387 . S
C361 H364 0.950 . S
C362 C361 1.387 . S
C362 C365 1.387 . S
H363 C359 0.950 . S
H364 C361 0.950 . S
C365 C356 1.390 1_556 S
C365 H358 0.950 . S
C365 C362 1.387 . S
C366 C367 1.387 . S
C366 H370 0.950 . S
C366 C375 1.390 1_554 S
C367 C366 1.387 . S
C367 C369 1.387 . S
H368 C375 0.950 . S
C369 C367 1.387 . S
C369 C371 1.390 1_554 S
C369 H373 0.950 . S
H370 C366 0.950 . S
C371 C369 1.390 1_556 S
C371 C372 1.387 . S
C371 H374 0.950 . S
C372 C371 1.387 . S
C372 C375 1.387 . S
H373 C369 0.950 . S
H374 C371 0.950 . S
C375 C366 1.390 1_556 S
C375 H368 0.950 . S
C375 C372 1.387 . S
C376 C377 1.387 . S
C376 H380 0.950 . S
C376 C385 1.390 . S
C377 C376 1.387 . S
C377 C379 1.387 . S
H378 C385 0.950 . S
C379 C377 1.387 . S
C379 C381 1.390 . S
C379 H383 0.950 . S
H380 C376 0.950 . S
C381 C379 1.390 . S
C381 C382 1.387 . S
C381 H384 0.950 . S
C382 C381 1.387 . S
C382 C385 1.387 . S
H383 C379 0.950 . S
H384 C381 0.950 . S
C385 C376 1.390 . S
C385 H378 0.950 . S
C385 C382 1.387 . S
C386 C387 1.387 . S
C386 H390 0.950 . S
C386 C395 1.390 . S
C387 C386 1.387 . S
C387 C389 1.387 . S
H388 C395 0.950 . S
C389 C387 1.387 . S
C389 C391 1.390 . S
C389 H393 0.950 . S
H390 C386 0.950 . S
C391 C389 1.390 . S
C391 C392 1.387 . S
C391 H394 0.950 . S
C392 C391 1.387 . S
C392 C395 1.387 . S
H393 C389 0.950 . S
H394 C391 0.950 . S
C395 C386 1.390 . S
C395 H388 0.950 . S
C395 C392 1.387 . S
C396 C397 1.387 . S
C396 H400 0.950 . S
C396 C405 1.390 . S
C397 C396 1.387 . S
C397 C399 1.387 . S
H398 C405 0.950 . S
C399 C397 1.387 . S
C399 C401 1.390 . S
C399 H403 0.950 . S
H400 C396 0.950 . S
C401 C399 1.390 . S
C401 C402 1.387 . S
C401 H404 0.950 . S
C402 C401 1.387 . S
C402 C405 1.387 . S
H403 C399 0.950 . S
H404 C401 0.950 . S
C405 C396 1.390 . S
C405 H398 0.950 . S
C405 C402 1.387 . S
C406 C407 1.387 . S
C406 H410 0.950 . S
C406 C415 1.390 . S
C407 C406 1.387 . S
C407 C409 1.387 . S
H408 C415 0.950 . S
C409 C407 1.387 . S
C409 C411 1.390 . S
C409 H413 0.950 . S
H410 C406 0.950 . S
C411 C409 1.390 . S
C411 C412 1.387 . S
C411 H414 0.950 . S
C412 C411 1.387 . S
C412 C415 1.387 . S
H413 C409 0.950 . S
H414 C411 0.950 . S
C415 C406 1.390 . S
C415 H408 0.950 . S
C415 C412 1.387 . S
C416 C417 1.387 . S
C416 H420 0.950 . S
C416 C425 1.390 . S
C417 C416 1.387 . S
C417 C419 1.387 . S
H418 C425 0.950 . S
C419 C417 1.387 . S
C419 C421 1.390 . S
C419 H423 0.950 . S
H420 C416 0.950 . S
C421 C419 1.390 . S
C421 C422 1.387 . S
C421 H424 0.950 . S
C422 C421 1.387 . S
C422 C425 1.387 . S
H423 C419 0.950 . S
H424 C421 0.950 . S
C425 C416 1.390 . S
C425 H418 0.950 . S
C425 C422 1.387 . S
C426 C427 1.387 . S
C426 H430 0.950 . S
C426 C435 1.390 . S
C427 C426 1.387 . S
C427 C429 1.387 . S
H428 C435 0.950 . S
C429 C427 1.387 . S
C429 C431 1.390 . S
C429 H433 0.950 . S
H430 C426 0.950 . S
C431 C429 1.390 . S
C431 C432 1.387 . S
C431 H434 0.950 . S
C432 C431 1.387 . S
C432 C435 1.387 . S
H433 C429 0.950 . S
H434 C431 0.950 . S
C435 C426 1.390 . S
C435 H428 0.950 . S
C435 C432 1.387 . S
C436 C437 1.387 . S
C436 H440 0.950 . S
C436 C445 1.390 . S
C437 C436 1.387 . S
C437 C439 1.387 . S
H438 C445 0.950 1_545 S
C439 C437 1.387 . S
C439 C441 1.390 1_565 S
C439 H443 0.950 . S
H440 C436 0.950 . S
C441 C439 1.390 1_545 S
C441 C442 1.387 . S
C441 H444 0.950 . S
C442 C441 1.387 . S
C442 C445 1.387 1_545 S
H443 C439 0.950 . S
H444 C441 0.950 . S
C445 C436 1.390 . S
C445 H438 0.950 1_565 S
C445 C442 1.387 1_565 S
C446 C447 1.387 . S
C446 H450 0.950 . S
C446 C455 1.390 . S
C447 C446 1.387 . S
C447 C449 1.387 . S
H448 C455 0.950 . S
C449 C447 1.387 . S
C449 C451 1.390 . S
C449 H453 0.950 . S
H450 C446 0.950 . S
C451 C449 1.390 . S
C451 C452 1.387 . S
C451 H454 0.950 . S
C452 C451 1.387 . S
C452 C455 1.387 . S
H453 C449 0.950 . S
H454 C451 0.950 . S
C455 C446 1.390 . S
C455 H448 0.950 . S
C455 C452 1.387 . S
C456 C457 1.387 . S
C456 H460 0.950 . S
C456 C465 1.390 1_554 S
C457 C456 1.387 . S
C457 C459 1.387 . S
H458 C465 0.950 . S
C459 C457 1.387 . S
C459 C461 1.390 1_554 S
C459 H463 0.950 . S
H460 C456 0.950 . S
C461 C459 1.390 1_556 S
C461 C462 1.387 . S
C461 H464 0.950 . S
C462 C461 1.387 . S
C462 C465 1.387 . S
H463 C459 0.950 . S
H464 C461 0.950 . S
C465 C456 1.390 1_556 S
C465 H458 0.950 . S
C465 C462 1.387 . S
C466 C467 1.387 . S
C466 H470 0.950 . S
C466 C475 1.390 1_554 S
C467 C466 1.387 . S
C467 C469 1.387 . S
H468 C475 0.950 . S
C469 C467 1.387 . S
C469 C471 1.390 1_554 S
C469 H473 0.950 . S
H470 C466 0.950 . S
C471 C469 1.390 1_556 S
C471 C472 1.387 . S
C471 H474 0.950 . S
C472 C471 1.387 . S
C472 C475 1.387 . S
H473 C469 0.950 . S
H474 C471 0.950 . S
C475 C466 1.390 1_556 S
C475 H468 0.950 . S
C475 C472 1.387 . S
C476 C477 1.387 . S
C476 H480 0.950 . S
C476 C485 1.390 . S
C477 C476 1.387 . S
C477 C479 1.387 . S
H478 C485 0.950 . S
C479 C477 1.387 . S
C479 C481 1.390 . S
C479 H483 0.950 . S
H480 C476 0.950 . S
C481 C479 1.390 . S
C481 C482 1.387 . S
C481 H484 0.950 . S
C482 C481 1.387 . S
C482 C485 1.387 . S
H483 C479 0.950 . S
H484 C481 0.950 . S
C485 C476 1.390 . S
C485 H478 0.950 . S
C485 C482 1.387 . S
C486 C487 1.387 . S
C486 H490 0.950 . S
C486 C495 1.390 . S
C487 C486 1.387 . S
C487 C489 1.387 . S
H488 C495 0.950 . S
C489 C487 1.387 . S
C489 C491 1.390 . S
C489 H493 0.950 . S
H490 C486 0.950 . S
C491 C489 1.390 . S
C491 C492 1.387 . S
C491 H494 0.950 . S
C492 C491 1.387 . S
C492 C495 1.387 . S
H493 C489 0.950 . S
H494 C491 0.950 . S
C495 C486 1.390 . S
C495 H488 0.950 . S
C495 C492 1.387 . S
C496 C497 1.387 . S
C496 H500 0.950 . S
C496 C505 1.390 1_455 S
C497 C496 1.387 . S
C497 C499 1.387 . S
H498 C505 0.950 . S
C499 C497 1.387 . S
C499 C501 1.390 1_455 S
C499 H503 0.950 . S
H500 C496 0.950 . S
C501 C499 1.390 1_655 S
C501 C502 1.387 . S
C501 H504 0.950 . S
C502 C501 1.387 . S
C502 C505 1.387 . S
H503 C499 0.950 . S
H504 C501 0.950 . S
C505 C496 1.390 1_655 S
C505 H498 0.950 . S
C505 C502 1.387 . S
C506 C507 1.387 . S
C506 H510 0.950 . S
C506 C515 1.390 1_655 S
C507 C506 1.387 . S
C507 C509 1.387 . S
H508 C515 0.950 . S
C509 C507 1.387 . S
C509 C511 1.390 1_655 S
C509 H513 0.950 . S
H510 C506 0.950 . S
C511 C509 1.390 1_455 S
C511 C512 1.387 . S
C511 H514 0.950 . S
C512 C511 1.387 . S
C512 C515 1.387 . S
H513 C509 0.950 . S
H514 C511 0.950 . S
C515 C506 1.390 1_455 S
C515 H508 0.950 . S
C515 C512 1.387 . S
C516 C517 1.387 . S
C516 H520 0.950 . S
C516 C525 1.390 1_455 S
C517 C516 1.387 . S
C517 C519 1.387 . S
H518 C525 0.950 . S
C519 C517 1.387 . S
C519 C521 1.390 1_455 S
C519 H523 0.950 . S
H520 C516 0.950 . S
C521 C519 1.390 1_655 S
C521 C522 1.387 . S
C521 H524 0.950 . S
C522 C521 1.387 . S
C522 C525 1.387 . S
H523 C519 0.950 . S
H524 C521 0.950 . S
C525 C516 1.390 1_655 S
C525 H518 0.950 . S
C525 C522 1.387 . S
C526 C527 1.387 . S
C526 H530 0.950 . S
C526 C535 1.390 1_455 S
C527 C526 1.387 . S
C527 C529 1.387 . S
H528 C535 0.950 . S
C529 C527 1.387 . S
C529 C531 1.390 1_455 S
C529 H533 0.950 . S
H530 C526 0.950 . S
C531 C529 1.390 1_655 S
C531 C532 1.387 . S
C531 H534 0.950 . S
C532 C531 1.387 . S
C532 C535 1.387 . S
H533 C529 0.950 . S
H534 C531 0.950 . S
C535 C526 1.390 1_655 S
C535 H528 0.950 . S
C535 C532 1.387 . S
C536 C537 1.387 1_565 S
C536 H540 0.950 1_565 S
C536 C545 1.390 . S
C537 C536 1.387 1_545 S
C537 C539 1.387 . S
H538 C545 0.950 . S
C539 C537 1.387 . S
C539 C541 1.390 1_545 S
C539 H543 0.950 . S
H540 C536 0.950 1_545 S
C541 C539 1.390 1_565 S
C541 C542 1.387 . S
C541 H544 0.950 . S
C542 C541 1.387 . S
C542 C545 1.387 . S
H543 C539 0.950 . S
H544 C541 0.950 . S
C545 C536 1.390 . S
C545 H538 0.950 . S
C545 C542 1.387 . S
C546 C547 1.387 . S
C546 H550 0.950 . S
C546 C555 1.390 1_545 S
C547 C546 1.387 . S
C547 C549 1.387 . S
H548 C555 0.950 . S
C549 C547 1.387 . S
C549 C551 1.390 1_545 S
C549 H553 0.950 . S
H550 C546 0.950 . S
C551 C549 1.390 1_565 S
C551 C552 1.387 . S
C551 H554 0.950 . S
C552 C551 1.387 . S
C552 C555 1.387 . S
H553 C549 0.950 . S
H554 C551 0.950 . S
C555 C546 1.390 1_565 S
C555 H548 0.950 . S
C555 C552 1.387 . S
C556 C557 1.387 . S
C556 H560 0.950 . S
C556 C565 1.390 . S
C557 C556 1.387 . S
C557 C559 1.387 . S
H558 C565 0.950 . S
C559 C557 1.387 . S
C559 C561 1.390 . S
C559 H563 0.950 . S
H560 C556 0.950 . S
C561 C559 1.390 . S
C561 C562 1.387 . S
C561 H564 0.950 . S
C562 C561 1.387 . S
C562 C565 1.387 . S
H563 C559 0.950 . S
H564 C561 0.950 . S
C565 C556 1.390 . S
C565 H558 0.950 . S
C565 C562 1.387 . S
C566 C567 1.387 . S
C566 H570 0.950 . S
C566 C575 1.390 1_545 S
C567 C566 1.387 . S
C567 C569 1.387 . S
H568 C575 0.950 . S
C569 C567 1.387 . S
C569 C571 1.390 1_545 S
C569 H573 0.950 . S
H570 C566 0.950 . S
C571 C569 1.390 1_565 S
C571 C572 1.387 . S
C571 H574 0.950 . S
C572 C571 1.387 . S
C572 C575 1.387 . S
H573 C569 0.950 . S
H574 C571 0.950 . S
C575 C566 1.390 1_565 S
C575 H568 0.950 . S
C575 C572 1.387 . S
C576 C577 1.387 . S
C576 H580 0.950 . S
C576 C585 1.390 1_655 S
C577 C576 1.387 . S
C577 C579 1.387 . S
H578 C585 0.950 . S
C579 C577 1.387 . S
C579 C581 1.390 1_655 S
C579 H583 0.950 . S
H580 C576 0.950 . S
C581 C579 1.390 1_455 S
C581 C582 1.387 . S
C581 H584 0.950 . S
C582 C581 1.387 . S
C582 C585 1.387 . S
H583 C579 0.950 . S
H584 C581 0.950 . S
C585 C576 1.390 1_455 S
C585 H578 0.950 . S
C585 C582 1.387 . S
C586 C587 1.387 . S
C586 H590 0.950 . S
C586 C595 1.390 1_455 S
C587 C586 1.387 . S
C587 C589 1.387 . S
H588 C595 0.950 . S
C589 C587 1.387 . S
C589 C591 1.390 1_455 S
C589 H593 0.950 . S
H590 C586 0.950 . S
C591 C589 1.390 1_655 S
C591 C592 1.387 . S
C591 H594 0.950 . S
C592 C591 1.387 . S
C592 C595 1.387 . S
H593 C589 0.950 . S
H594 C591 0.950 . S
C595 C586 1.390 1_655 S
C595 H588 0.950 . S
C595 C592 1.387 . S
C596 C597 1.387 . S
C596 H600 0.950 . S
C596 C605 1.390 1_565 S
C597 C596 1.387 . S
C597 C599 1.387 . S
H598 C605 0.950 . S
C599 C597 1.387 . S
C599 C601 1.390 1_565 S
C599 H603 0.950 . S
H600 C596 0.950 . S
C601 C599 1.390 1_545 S
C601 C602 1.387 . S
C601 H604 0.950 . S
C602 C601 1.387 . S
C602 C605 1.387 . S
H603 C599 0.950 . S
H604 C601 0.950 . S
C605 C596 1.390 1_545 S
C605 H598 0.950 . S
C605 C602 1.387 . S
C606 C607 1.387 . S
C606 H610 0.950 . S
C606 C615 1.390 . S
C607 C606 1.387 . S
C607 C609 1.387 . S
H608 C615 0.950 . S
C609 C607 1.387 . S
C609 C611 1.390 . S
C609 H613 0.950 . S
H610 C606 0.950 . S
C611 C609 1.390 . S
C611 C612 1.387 . S
C611 H614 0.950 . S
C612 C611 1.387 . S
C612 C615 1.387 . S
H613 C609 0.950 . S
H614 C611 0.950 . S
C615 C606 1.390 . S
C615 H608 0.950 . S
C615 C612 1.387 . S
C616 C617 1.387 . S
C616 H620 0.950 . S
C616 C625 1.390 1_554 S
C617 C616 1.387 . S
C617 C619 1.387 . S
H618 C625 0.950 . S
C619 C617 1.387 . S
C619 C621 1.390 1_554 S
C619 H623 0.950 . S
H620 C616 0.950 . S
C621 C619 1.390 1_556 S
C621 C622 1.387 . S
C621 H624 0.950 . S
C622 C621 1.387 . S
C622 C625 1.387 . S
H623 C619 0.950 . S
H624 C621 0.950 . S
C625 C616 1.390 1_556 S
C625 H618 0.950 . S
C625 C622 1.387 . S
C626 C627 1.387 . S
C626 H630 0.950 . S
C626 C635 1.390 . S
C627 C626 1.387 . S
C627 C629 1.387 . S
H628 C635 0.950 . S
C629 C627 1.387 . S
C629 C631 1.390 . S
C629 H633 0.950 . S
H630 C626 0.950 . S
C631 C629 1.390 . S
C631 C632 1.387 . S
C631 H634 0.950 . S
C632 C631 1.387 . S
C632 C635 1.387 . S
H633 C629 0.950 . S
H634 C631 0.950 . S
C635 C626 1.390 . S
C635 H628 0.950 . S
C635 C632 1.387 . S
C636 C637 1.387 . S
C636 H640 0.950 . S
C636 C645 1.390 . S
C637 C636 1.387 . S
C637 C639 1.387 . S
H638 C645 0.950 . S
C639 C637 1.387 . S
C639 C641 1.390 . S
C639 H643 0.950 . S
H640 C636 0.950 . S
C641 C639 1.390 . S
C641 C642 1.387 . S
C641 H644 0.950 . S
C642 C641 1.387 . S
C642 C645 1.387 . S
H643 C639 0.950 . S
H644 C641 0.950 . S
C645 C636 1.390 . S
C645 H638 0.950 . S
C645 C642 1.387 . S
C646 C647 1.387 . S
C646 H650 0.950 . S
C646 C655 1.390 . S
C647 C646 1.387 . S
C647 C649 1.387 . S
H648 C655 0.950 . S
C649 C647 1.387 . S
C649 C651 1.390 . S
C649 H653 0.950 . S
H650 C646 0.950 . S
C651 C649 1.390 . S
C651 C652 1.387 . S
C651 H654 0.950 . S
C652 C651 1.387 . S
C652 C655 1.387 . S
H653 C649 0.950 . S
H654 C651 0.950 . S
C655 C646 1.390 . S
C655 H648 0.950 . S
C655 C652 1.387 . S
C656 C657 1.387 . S
C656 H660 0.950 . S
C656 C665 1.390 . S
C657 C656 1.387 . S
C657 C659 1.387 . S
H658 C665 0.950 . S
C659 C657 1.387 . S
C659 C661 1.390 . S
C659 H663 0.950 . S
H660 C656 0.950 . S
C661 C659 1.390 . S
C661 C662 1.387 . S
C661 H664 0.950 . S
C662 C661 1.387 . S
C662 C665 1.387 . S
H663 C659 0.950 . S
H664 C661 0.950 . S
C665 C656 1.390 . S
C665 H658 0.950 . S
C665 C662 1.387 . S
C666 C667 1.387 . S
C666 H670 0.950 . S
C666 C675 1.390 . S
C667 C666 1.387 . S
C667 C669 1.387 . S
H668 C675 0.950 . S
C669 C667 1.387 . S
C669 C671 1.390 . S
C669 H673 0.950 . S
H670 C666 0.950 . S
C671 C669 1.390 . S
C671 C672 1.387 . S
C671 H674 0.950 . S
C672 C671 1.387 . S
C672 C675 1.387 . S
H673 C669 0.950 . S
H674 C671 0.950 . S
C675 C666 1.390 . S
C675 H668 0.950 . S
C675 C672 1.387 . S
C676 C677 1.387 . S
C676 H680 0.950 . S
C676 C685 1.390 1_545 S
C677 C676 1.387 . S
C677 C679 1.387 . S
H678 C685 0.950 . S
C679 C677 1.387 . S
C679 C681 1.393 . S
C679 H683 0.950 . S
H680 C676 0.950 . S
C681 C679 1.393 . S
C681 C682 1.385 1_545 S
C681 H684 0.950 1_545 S
C682 C681 1.385 1_565 S
C682 C685 1.387 . S
H683 C679 0.950 . S
H684 C681 0.950 1_565 S
C685 C676 1.390 1_565 S
C685 H678 0.950 . S
C685 C682 1.387 . S
C686 C687 1.387 1_554 S
C686 H690 0.950 . S
C686 C695 1.390 . S
C687 C686 1.387 1_556 S
C687 C689 1.387 . S
H688 C695 0.950 . S
C689 C687 1.387 . S
C689 C691 1.390 . S
C689 H693 0.950 . S
H690 C686 0.950 . S
C691 C689 1.390 . S
C691 C692 1.387 1_556 S
C691 H694 0.950 . S
C692 C691 1.387 1_554 S
C692 C695 1.387 . S
H693 C689 0.950 . S
H694 C691 0.950 . S
C695 C686 1.390 . S
C695 H688 0.950 . S
C695 C692 1.387 . S
C696 C697 1.387 . S
C696 H700 0.950 . S
C696 C705 1.390 1_565 S
C697 C696 1.387 . S
C697 C699 1.387 1_455 S
H698 C705 0.950 . S
C699 C697 1.387 1_655 S
C699 C701 1.390 1_565 S
C699 H703 0.950 . S
H700 C696 0.950 . S
C701 C699 1.390 1_545 S
C701 C702 1.387 1_655 S
C701 H704 0.950 . S
C702 C701 1.387 1_455 S
C702 C705 1.387 . S
H703 C699 0.950 . S
H704 C701 0.950 . S
C705 C696 1.390 1_545 S
C705 H698 0.950 . S
C705 C702 1.387 . S
C706 C707 1.387 . S
C706 H710 0.950 . S
C706 C715 1.390 . S
C707 C706 1.387 . S
C707 C709 1.387 1_655 S
H708 C715 0.950 . S
C709 C707 1.387 1_455 S
C709 C711 1.390 . S
C709 H713 0.950 . S
H710 C706 0.950 . S
C711 C709 1.390 . S
C711 C712 1.387 1_455 S
C711 H714 0.950 . S
C712 C711 1.387 1_655 S
C712 C715 1.387 . S
H713 C709 0.950 . S
H714 C711 0.950 . S
C715 C706 1.390 . S
C715 H708 0.950 . S
C715 C712 1.387 . S
C716 C717 1.387 1_565 S
C716 H720 0.950 . S
C716 C725 1.390 1_556 S
C717 C716 1.387 1_545 S
C717 C719 1.387 . S
H718 C725 0.950 . S
C719 C717 1.387 . S
C719 C721 1.390 1_556 S
C719 H723 0.950 . S
H720 C716 0.950 . S
C721 C719 1.390 1_554 S
C721 C722 1.387 . S
C721 H724 0.950 . S
C722 C721 1.387 . S
C722 C725 1.387 1_545 S
H723 C719 0.950 . S
H724 C721 0.950 . S
C725 C716 1.390 1_554 S
C725 H718 0.950 . S
C725 C722 1.387 1_565 S
C726 C727 1.387 . S
C726 H730 0.950 . S
C726 C735 1.390 1_554 S
C727 C726 1.387 . S
C727 C729 1.387 . S
H728 C735 0.950 . S
C729 C727 1.387 . S
C729 C731 1.390 1_554 S
C729 H733 0.950 . S
H730 C726 0.950 . S
C731 C729 1.390 1_556 S
C731 C732 1.387 . S
C731 H734 0.950 . S
C732 C731 1.387 . S
C732 C735 1.387 . S
H733 C729 0.950 . S
H734 C731 0.950 . S
C735 C726 1.390 1_556 S
C735 H728 0.950 . S
C735 C732 1.387 . S
C736 C737 1.387 1_545 S
C736 H740 0.950 . S
C736 C745 1.390 . S
C737 C736 1.387 1_565 S
C737 C739 1.387 . S
H738 C745 0.950 . S
C739 C737 1.387 . S
C739 C741 1.390 . S
C739 H743 0.950 . S
H740 C736 0.950 . S
C741 C739 1.390 . S
C741 C742 1.387 . S
C741 H744 0.950 . S
C742 C741 1.387 . S
C742 C745 1.387 1_565 S
H743 C739 0.950 . S
H744 C741 0.950 . S
C745 C736 1.390 . S
C745 H738 0.950 . S
C745 C742 1.387 1_545 S
C746 C747 1.387 . S
C746 H750 0.950 . S
C746 C755 1.390 . S
C747 C746 1.387 . S
C747 C749 1.387 . S
H748 C755 0.950 . S
C749 C747 1.387 . S
C749 C751 1.390 . S
C749 H753 0.950 . S
H750 C746 0.950 . S
C751 C749 1.390 . S
C751 C752 1.387 . S
C751 H754 0.950 . S
C752 C751 1.387 . S
C752 C755 1.387 . S
H753 C749 0.950 . S
H754 C751 0.950 . S
C755 C746 1.390 . S
C755 H748 0.950 . S
C755 C752 1.387 . S
C756 C757 1.387 1_556 S
C756 H760 0.950 . S
C756 C765 1.390 1_455 S
C757 C756 1.387 1_554 S
C757 C759 1.387 . S
H758 C765 0.950 . S
C759 C757 1.387 . S
C759 C761 1.390 1_455 S
C759 H763 0.950 . S
H760 C756 0.950 . S
C761 C759 1.390 1_655 S
C761 C762 1.387 . S
C761 H764 0.950 . S
C762 C761 1.387 . S
C762 C765 1.387 1_554 S
H763 C759 0.950 . S
H764 C761 0.950 . S
C765 C756 1.390 1_655 S
C765 H758 0.950 . S
C765 C762 1.387 1_556 S
C766 C767 1.387 . S
C766 H770 0.950 . S
C766 C775 1.390 1_455 S
C767 C766 1.387 . S
C767 C769 1.387 . S
H768 C775 0.950 . S
C769 C767 1.387 . S
C769 C771 1.390 1_455 S
C769 H773 0.950 . S
H770 C766 0.950 . S
C771 C769 1.390 1_655 S
C771 C772 1.387 . S
C771 H774 0.950 . S
C772 C771 1.387 . S
C772 C775 1.387 . S
H773 C769 0.950 . S
H774 C771 0.950 . S
C775 C766 1.390 1_655 S
C775 H768 0.950 . S
C775 C772 1.387 . S
C776 C777 1.387 . S
C776 H780 0.950 . S
C776 C785 1.390 . S
C777 C776 1.387 . S
C777 C779 1.387 . S
H778 C785 0.950 . S
C779 C777 1.387 . S
C779 C781 1.390 . S
C779 H783 0.950 . S
H780 C776 0.950 . S
C781 C779 1.390 . S
C781 C782 1.387 . S
C781 H784 0.950 . S
C782 C781 1.387 . S
C782 C785 1.387 . S
H783 C779 0.950 . S
H784 C781 0.950 . S
C785 C776 1.390 . S
C785 H778 0.950 . S
C785 C782 1.387 . S
C786 C787 1.387 . S
C786 H790 0.950 . S
C786 C795 1.390 . S
C787 C786 1.387 . S
C787 C789 1.387 . S
H788 C795 0.950 . S
C789 C787 1.387 . S
C789 C791 1.390 . S
C789 H793 0.950 . S
H790 C786 0.950 . S
C791 C789 1.390 . S
C791 C792 1.387 . S
C791 H794 0.950 . S
C792 C791 1.387 . S
C792 C795 1.387 . S
H793 C789 0.950 . S
H794 C791 0.950 . S
C795 C786 1.390 . S
C795 H788 0.950 . S
C795 C792 1.387 . S
C796 C797 1.387 . S
C796 H800 0.950 . S
C796 C805 1.390 1_565 S
C797 C796 1.387 . S
C797 C799 1.387 . S
H798 C805 0.950 . S
C799 C797 1.387 . S
C799 C801 1.390 1_565 S
C799 H803 0.950 . S
H800 C796 0.950 . S
C801 C799 1.390 1_545 S
C801 C802 1.387 . S
C801 H804 0.950 . S
C802 C801 1.387 . S
C802 C805 1.387 . S
H803 C799 0.950 . S
H804 C801 0.950 . S
C805 C796 1.390 1_545 S
C805 H798 0.950 . S
C805 C802 1.387 . S
C806 C807 1.387 1_554 S
C806 H810 0.950 . S
C806 C815 1.390 . S
C807 C806 1.387 1_556 S
C807 C809 1.387 . S
H808 C815 0.950 . S
C809 C807 1.387 . S
C809 C811 1.390 . S
C809 H813 0.950 . S
H810 C806 0.950 . S
C811 C809 1.390 . S
C811 C812 1.387 . S
C811 H814 0.950 . S
C812 C811 1.387 . S
C812 C815 1.387 1_556 S
H813 C809 0.950 . S
H814 C811 0.950 . S
C815 C806 1.390 . S
C815 H808 0.950 . S
C815 C812 1.387 1_554 S
C337 C242 0.982 . S
C342 C12 0.994 . S
C347 C26 1.154 . S
C352 C228 1.059 . S
C357 C40 1.040 . S
C362 C270 1.023 . S
C367 C54 1.190 . S
C372 C256 1.090 . S
C377 C68 0.964 . S
C382 C306 0.946 . S
C387 C82 1.010 . S
C392 C320 0.977 . S
C397 C292 0.968 . S
C402 C96 1.014 . S
C407 C166 1.007 . S
C412 C110 1.070 . S
C417 C116 1.032 . S
C422 C46 1.067 . S
C427 C18 1.075 . S
C432 C130 1.060 . S
C437 C144 1.178 . S
C442 C4 1.205 . S
C447 C158 1.123 . S
C452 C200 1.101 . S
C457 C74 1.112 . S
C462 C180 1.226 . S
C467 C60 1.044 . S
C472 C194 1.086 . S
C477 C208 1.187 . S
C482 C102 1.077 . S
C487 C222 1.039 . S
C492 C88 1.004 . S
C497 C138 1.060 . S
C502 C236 1.135 . S
C507 C152 1.015 . S
C512 C250 1.064 . S
C517 C124 1.028 . S
C522 C264 1.068 . S
C527 C278 1.021 . S
C532 C334 0.997 . S
C537 C214 1.219 . S
C542 C284 1.248 . S
C547 C298 1.216 . S
C552 C186 1.200 . S
C557 C172 1.096 . S
C562 C312 1.096 . S
C567 C326 1.146 . S
C572 C32 1.184 . S
C577 C11 1.618 . S
C582 C25 1.593 . S
C587 C53 1.579 . S
C592 C39 1.602 . S
C597 C67 1.538 . S
C602 C95 1.526 . S
C607 C81 1.828 . S
C612 C109 1.812 . S
C617 C313 1.496 . S
C622 C117 1.474 . S
C627 C131 1.626 . S
C632 C159 1.643 . S
C637 C285 1.586 . S
C642 C145 1.570 . S
C647 C193 1.737 . S
C652 C179 1.710 . S
C657 C207 1.726 . S
C662 C221 1.752 . S
C667 C263 1.816 . S
C672 C235 1.802 . S
C677 C249 1.509 . S
C682 C277 1.519 . S
C687 C327 1.442 . S
C692 C299 1.456 . S
C697 C33 1.287 . S
C702 C5 1.277 . S
C707 C19 1.366 . S
C712 C47 1.377 . S
C717 C271 1.333 . S
C722 C61 1.320 . S
C727 C75 1.349 . S
C732 C257 1.364 . S
C737 C89 1.364 . S
C742 C243 1.377 . S
C747 C229 1.410 . S
C752 C103 1.396 . S
C757 C123 1.420 . S
C762 C333 1.412 . S
C767 C137 1.432 . S
C772 C151 1.423 . S
C777 C291 1.480 . S
C782 C165 1.490 . S
C787 C173 1.390 . S
C792 C201 1.382 . S
C797 C187 1.301 . S
C802 C215 1.288 . S
C807 C319 1.473 . S
C812 C305 1.463 . S
