# Generated by pormake.
# Topology umh, (4)-cn, num edge types: 1
# Building blocks:
#     Node 0, Type 0, BuildingBlock: MUDLON_clean_sbu_0, # of connection points: 4
#     Node 1, Type 0, BuildingBlock: MUDLON_clean_sbu_0, # of connection points: 4
#     Node 2, Type 0, BuildingBlock: MUDLON_clean_sbu_0, # of connection points: 4
#     Node 3, Type 0, BuildingBlock: MUDLON_clean_sbu_0, # of connection points: 4
#     Node 4, Type 0, BuildingBlock: MUDLON_clean_sbu_0, # of connection points: 4
#     Node 5, Type 0, BuildingBlock: MUDLON_clean_sbu_0, # of connection points: 4
#     Node 6, Type 0, BuildingBlock: MUDLON_clean_sbu_0, # of connection points: 4
#     Node 7, Type 0, BuildingBlock: MUDLON_clean_sbu_0, # of connection points: 4
#     Node 8, Type 0, BuildingBlock: MUDLON_clean_sbu_0, # of connection points: 4
#     Node 9, Type 0, BuildingBlock: MUDLON_clean_sbu_0, # of connection points: 4
#     Node 10, Type 0, BuildingBlock: MUDLON_clean_sbu_0, # of connection points: 4
#     Node 11, Type 0, BuildingBlock: MUDLON_clean_sbu_0, # of connection points: 4
#     Node 12, Type 0, BuildingBlock: MUDLON_clean_sbu_0, # of connection points: 4
#     Node 13, Type 0, BuildingBlock: MUDLON_clean_sbu_0, # of connection points: 4
#     Node 14, Type 0, BuildingBlock: MUDLON_clean_sbu_0, # of connection points: 4
#     Node 15, Type 0, BuildingBlock: MUDLON_clean_sbu_0, # of connection points: 4
#     Edge 16, Type (0, 0), BuildingBlock: UVAHIK_clean_linker_0, # of connection points: 2
#     Edge 17, Type (0, 0), BuildingBlock: UVAHIK_clean_linker_0, # of connection points: 2
#     Edge 18, Type (0, 0), BuildingBlock: UVAHIK_clean_linker_0, # of connection points: 2
#     Edge 19, Type (0, 0), BuildingBlock: UVAHIK_clean_linker_0, # of connection points: 2
#     Edge 20, Type (0, 0), BuildingBlock: UVAHIK_clean_linker_0, # of connection points: 2
#     Edge 21, Type (0, 0), BuildingBlock: UVAHIK_clean_linker_0, # of connection points: 2
#     Edge 22, Type (0, 0), BuildingBlock: UVAHIK_clean_linker_0, # of connection points: 2
#     Edge 23, Type (0, 0), BuildingBlock: UVAHIK_clean_linker_0, # of connection points: 2
#     Edge 24, Type (0, 0), BuildingBlock: UVAHIK_clean_linker_0, # of connection points: 2
#     Edge 25, Type (0, 0), BuildingBlock: UVAHIK_clean_linker_0, # of connection points: 2
#     Edge 26, Type (0, 0), BuildingBlock: UVAHIK_clean_linker_0, # of connection points: 2
#     Edge 27, Type (0, 0), BuildingBlock: UVAHIK_clean_linker_0, # of connection points: 2
#     Edge 28, Type (0, 0), BuildingBlock: UVAHIK_clean_linker_0, # of connection points: 2
#     Edge 29, Type (0, 0), BuildingBlock: UVAHIK_clean_linker_0, # of connection points: 2
#     Edge 30, Type (0, 0), BuildingBlock: UVAHIK_clean_linker_0, # of connection points: 2
#     Edge 31, Type (0, 0), BuildingBlock: UVAHIK_clean_linker_0, # of connection points: 2
#     Edge 32, Type (0, 0), BuildingBlock: UVAHIK_clean_linker_0, # of connection points: 2
#     Edge 33, Type (0, 0), BuildingBlock: UVAHIK_clean_linker_0, # of connection points: 2
#     Edge 34, Type (0, 0), BuildingBlock: UVAHIK_clean_linker_0, # of connection points: 2
#     Edge 35, Type (0, 0), BuildingBlock: UVAHIK_clean_linker_0, # of connection points: 2
#     Edge 36, Type (0, 0), BuildingBlock: UVAHIK_clean_linker_0, # of connection points: 2
#     Edge 37, Type (0, 0), BuildingBlock: UVAHIK_clean_linker_0, # of connection points: 2
#     Edge 38, Type (0, 0), BuildingBlock: UVAHIK_clean_linker_0, # of connection points: 2
#     Edge 39, Type (0, 0), BuildingBlock: UVAHIK_clean_linker_0, # of connection points: 2
#     Edge 40, Type (0, 0), BuildingBlock: UVAHIK_clean_linker_0, # of connection points: 2
#     Edge 41, Type (0, 0), BuildingBlock: UVAHIK_clean_linker_0, # of connection points: 2
#     Edge 42, Type (0, 0), BuildingBlock: UVAHIK_clean_linker_0, # of connection points: 2
#     Edge 43, Type (0, 0), BuildingBlock: UVAHIK_clean_linker_0, # of connection points: 2
#     Edge 44, Type (0, 0), BuildingBlock: UVAHIK_clean_linker_0, # of connection points: 2
#     Edge 45, Type (0, 0), BuildingBlock: UVAHIK_clean_linker_0, # of connection points: 2
#     Edge 46, Type (0, 0), BuildingBlock: UVAHIK_clean_linker_0, # of connection points: 2
#     Edge 47, Type (0, 0), BuildingBlock: UVAHIK_clean_linker_0, # of connection points: 2
# Relax obj value: 0.038
# Max RMSD: 0.081
# Mean RMSD: 0.081
data_MOF--net-umh--node1-MUDLON_clean_sbu_0--edge1-UVAHIK_clean_linker_0
_symmetry_space_group_name_H-M    P1
_symmetry_Int_Tables_number       1
_symmetry_cell_setting            triclinic
loop_
_symmetry_equiv_pos_as_xyz
'x, y, z'
_cell_length_a     53.961787
_cell_length_b     54.329628
_cell_length_c     71.115736
_cell_angle_alpha  90.032475
_cell_angle_beta   89.992758
_cell_angle_gamma 90.156469
loop_
_atom_site_label
_atom_site_type_symbol
_atom_site_fract_x
_atom_site_fract_y
_atom_site_fract_z
_atom_type_partial_charge
Mg0 Mg 0.34662 0.10332 0.16293 0.0
C1 C 0.36622 0.09294 0.12411 0.0
O2 O 0.38621 0.09001 0.13439 0.0
C3 C 0.32403 0.08848 0.19827 0.0
O4 O 0.34524 0.09899 0.2026 0.0
C5 C 0.3821 0.06677 0.17652 0.0
O6 O 0.36138 0.05438 0.17414 0.0
O7 O 0.38214 0.08976 0.17315 0.0
O8 O 0.34569 0.0971 0.13236 0.0
O9 O 0.33962 0.14226 0.16733 0.0
C10 C 0.32478 0.15171 0.15548 0.0
O11 O 0.31757 0.13831 0.1411 0.0
O12 O 0.31834 0.08642 0.18094 0.0
Mg13 Mg 0.4017 0.35052 0.66452 0.0
C14 C 0.42204 0.3611 0.62476 0.0
O15 O 0.43792 0.37506 0.63388 0.0
C16 C 0.42698 0.33163 0.69883 0.0
O17 O 0.42346 0.35495 0.70287 0.0
C18 C 0.40877 0.40688 0.66413 0.0
O19 O 0.39644 0.40566 0.64822 0.0
O20 O 0.41207 0.38737 0.67366 0.0
O21 O 0.40703 0.34773 0.63409 0.0
O22 O 0.36274 0.34171 0.66803 0.0
C23 C 0.35462 0.33102 0.68271 0.0
O24 O 0.36935 0.32854 0.69728 0.0
O25 O 0.42111 0.32402 0.68246 0.0
Mg26 Mg 0.14601 0.40291 0.16857 0.0
C27 C 0.13152 0.39584 0.12912 0.0
O28 O 0.11449 0.38426 0.13893 0.0
C29 C 0.16772 0.42728 0.20228 0.0
O30 O 0.14433 0.42451 0.20697 0.0
C31 C 0.08951 0.40607 0.17827 0.0
O32 O 0.08833 0.38251 0.17421 0.0
O33 O 0.11017 0.41731 0.17726 0.0
O34 O 0.14872 0.40704 0.13798 0.0
O35 O 0.15191 0.36381 0.17295 0.0
C36 C 0.16311 0.35587 0.18745 0.0
O37 O 0.16725 0.371 0.20151 0.0
O38 O 0.17438 0.42114 0.18573 0.0
Mg39 Mg 0.09909 0.14784 0.66399 0.0
C40 C 0.07752 0.1378 0.62452 0.0
O41 O 0.06251 0.12306 0.63376 0.0
C42 C 0.08121 0.16601 0.70018 0.0
O43 O 0.09117 0.14447 0.70374 0.0
C44 C 0.09215 0.09146 0.66325 0.0
O45 O 0.10469 0.09278 0.64744 0.0
O46 O 0.08853 0.11093 0.67277 0.0
O47 O 0.09238 0.15148 0.63372 0.0
O48 O 0.138 0.15639 0.66872 0.0
C49 C 0.15043 0.16567 0.65526 0.0
O50 O 0.14026 0.16691 0.63852 0.0
O51 O 0.08035 0.17324 0.68314 0.0
Mg52 Mg 0.35467 0.39438 0.39094 0.0
C53 C 0.36688 0.41448 0.43034 0.0
O54 O 0.38186 0.42902 0.42089 0.0
C55 C 0.33782 0.42067 0.35647 0.0
O56 O 0.36101 0.4155 0.35252 0.0
C57 C 0.4116 0.39678 0.39193 0.0
O58 O 0.40889 0.38372 0.40735 0.0
O59 O 0.39258 0.40212 0.38222 0.0
O60 O 0.35226 0.40032 0.42133 0.0
O61 O 0.34275 0.35643 0.38756 0.0
C62 C 0.33207 0.34893 0.37267 0.0
O63 O 0.33155 0.36337 0.35787 0.0
O64 O 0.32966 0.41547 0.37282 0.0
Mg65 Mg 0.10858 0.35134 0.88844 0.0
C66 C 0.12503 0.35755 0.92795 0.0
O67 O 0.14462 0.36379 0.91805 0.0
C68 C 0.07859 0.33118 0.85657 0.0
O69 O 0.08082 0.35445 0.85185 0.0
C70 C 0.09858 0.40674 0.88962 0.0
O71 O 0.10881 0.40477 0.9063 0.0
O72 O 0.09754 0.38789 0.87903 0.0
O73 O 0.10568 0.35036 0.91921 0.0
O74 O 0.14653 0.34112 0.88197 0.0
C75 C 0.15268 0.33259 0.86599 0.0
O76 O 0.13658 0.3332 0.85215 0.0
O77 O 0.08682 0.32434 0.87253 0.0
Mg78 Mg 0.13668 0.10493 0.389 0.0
C79 C 0.12705 0.08538 0.42902 0.0
O80 O 0.11257 0.06975 0.42015 0.0
C81 C 0.15621 0.08387 0.35376 0.0
O82 O 0.13386 0.09133 0.34921 0.0
C83 C 0.08027 0.09767 0.39044 0.0
O84 O 0.08202 0.11192 0.40531 0.0
O85 O 0.09962 0.09318 0.38083 0.0
O86 O 0.14052 0.10002 0.41946 0.0
O87 O 0.1451 0.14336 0.38309 0.0
C88 C 0.15175 0.15732 0.39654 0.0
O89 O 0.14978 0.14918 0.41386 0.0
O90 O 0.16302 0.08571 0.37086 0.0
Mg91 Mg 0.39665 0.14185 0.88602 0.0
C92 C 0.41483 0.13567 0.92712 0.0
O93 O 0.43361 0.12416 0.91935 0.0
C94 C 0.42335 0.16199 0.85274 0.0
O95 O 0.42009 0.13878 0.84817 0.0
C96 C 0.40823 0.08641 0.88825 0.0
O97 O 0.39653 0.08782 0.90441 0.0
O98 O 0.40952 0.10538 0.87782 0.0
O99 O 0.39868 0.14571 0.91661 0.0
O100 O 0.358 0.14958 0.88002 0.0
C101 C 0.35067 0.15719 0.86406 0.0
O102 O 0.36603 0.15658 0.84975 0.0
O103 O 0.41678 0.16901 0.8691 0.0
Mg104 Mg 0.65174 0.89758 0.88882 0.0
C105 C 0.63981 0.91453 0.92866 0.0
O106 O 0.62124 0.92495 0.9198 0.0
C107 C 0.69582 0.91523 0.8653 0.0
O108 O 0.70784 0.89973 0.87612 0.0
C109 C 0.60583 0.91578 0.86852 0.0
O110 O 0.62239 0.92084 0.85554 0.0
O111 O 0.61262 0.90431 0.88322 0.0
O112 O 0.65661 0.90394 0.91906 0.0
O113 O 0.66404 0.86005 0.88352 0.0
C114 C 0.68061 0.85206 0.89467 0.0
O115 O 0.68725 0.86586 0.90899 0.0
O116 O 0.6731 0.91961 0.86875 0.0
Mg117 Mg 0.60905 0.6328 0.38528 0.0
C118 C 0.66199 0.64723 0.39262 0.0
O119 O 0.65408 0.64482 0.40999 0.0
C120 C 0.60198 0.57697 0.38752 0.0
O121 O 0.61629 0.57936 0.40236 0.0
C122 C 0.59156 0.65278 0.34952 0.0
O123 O 0.60305 0.63226 0.34515 0.0
O124 O 0.58954 0.65843 0.36685 0.0
O125 O 0.64769 0.64108 0.3792 0.0
O126 O 0.60424 0.63713 0.4157 0.0
C127 C 0.5892 0.62425 0.42537 0.0
O128 O 0.57311 0.61012 0.41663 0.0
O129 O 0.59734 0.59581 0.37753 0.0
Mg130 Mg 0.85705 0.59709 0.88519 0.0
C131 C 0.84398 0.60691 0.92592 0.0
O132 O 0.83469 0.62672 0.91807 0.0
C133 C 0.81158 0.57821 0.8631 0.0
O134 O 0.79925 0.59217 0.87492 0.0
C135 C 0.90236 0.57533 0.86621 0.0
O136 O 0.88538 0.56751 0.85438 0.0
O137 O 0.89592 0.5893 0.8797 0.0
O138 O 0.85263 0.59003 0.91537 0.0
O139 O 0.84742 0.63543 0.88067 0.0
C140 C 0.8373 0.64299 0.8656 0.0
O141 O 0.8352 0.62788 0.85126 0.0
O142 O 0.83482 0.57557 0.86535 0.0
Mg143 Mg 0.89911 0.8493 0.38812 0.0
C144 C 0.85363 0.82749 0.36927 0.0
O145 O 0.86863 0.82668 0.35474 0.0
C146 C 0.90158 0.90575 0.39003 0.0
O147 O 0.88796 0.9026 0.40516 0.0
C148 C 0.9278 0.83334 0.35416 0.0
O149 O 0.92589 0.85716 0.35139 0.0
O150 O 0.91996 0.82445 0.36965 0.0
O151 O 0.86082 0.83817 0.38423 0.0
O152 O 0.90427 0.84612 0.41856 0.0
C153 C 0.91841 0.86033 0.42795 0.0
O154 O 0.9335 0.87517 0.41887 0.0
O155 O 0.90731 0.88713 0.38011 0.0
Mg156 Mg 0.65174 0.59236 0.66034 0.0
C157 C 0.63754 0.57451 0.62132 0.0
O158 O 0.61901 0.56519 0.63098 0.0
C159 C 0.69668 0.57358 0.68241 0.0
O160 O 0.70891 0.58685 0.67006 0.0
C161 C 0.60608 0.57638 0.68216 0.0
O162 O 0.6229 0.57148 0.69497 0.0
O163 O 0.61276 0.58684 0.66699 0.0
O164 O 0.65528 0.58479 0.63018 0.0
O165 O 0.66448 0.62995 0.66448 0.0
C166 C 0.68131 0.63725 0.65326 0.0
O167 O 0.68832 0.62254 0.6396 0.0
O168 O 0.67338 0.57092 0.68048 0.0
Mg169 Mg 0.89892 0.64225 0.16418 0.0
C170 C 0.85418 0.66982 0.15755 0.0
O171 O 0.87089 0.67887 0.14601 0.0
C172 C 0.90194 0.58644 0.17449 0.0
O173 O 0.88039 0.58416 0.16608 0.0
C174 C 0.90529 0.67602 0.19572 0.0
O175 O 0.88509 0.66338 0.19938 0.0
O176 O 0.91719 0.67133 0.18064 0.0
O177 O 0.85996 0.65135 0.16761 0.0
O178 O 0.90417 0.64061 0.13353 0.0
C179 C 0.88775 0.62732 0.12552 0.0
O180 O 0.87081 0.61681 0.1361 0.0
O181 O 0.91185 0.60762 0.17597 0.0
Mg182 Mg 0.85429 0.89758 0.66198 0.0
C183 C 0.86612 0.91524 0.62259 0.0
O184 O 0.884 0.92626 0.63191 0.0
C185 C 0.80836 0.91613 0.68374 0.0
O186 O 0.79602 0.90353 0.67103 0.0
C187 C 0.89956 0.91629 0.68298 0.0
O188 O 0.88288 0.92027 0.69609 0.0
O189 O 0.89302 0.90553 0.6679 0.0
O190 O 0.84933 0.90395 0.6318 0.0
O191 O 0.84471 0.85911 0.6656 0.0
C192 C 0.83425 0.85103 0.68039 0.0
O193 O 0.83173 0.86572 0.69494 0.0
O194 O 0.83177 0.91814 0.68218 0.0
Mg195 Mg 0.60284 0.84899 0.16455 0.0
C196 C 0.6502 0.8339 0.18446 0.0
O197 O 0.63485 0.83052 0.19854 0.0
C198 C 0.56424 0.8847 0.17476 0.0
O199 O 0.55178 0.86452 0.17084 0.0
C200 C 0.57947 0.82553 0.19825 0.0
O201 O 0.58269 0.8484 0.20375 0.0
O202 O 0.58521 0.81983 0.1814 0.0
O203 O 0.64224 0.84395 0.16949 0.0
O204 O 0.59976 0.84684 0.13374 0.0
C205 C 0.59178 0.86538 0.12461 0.0
O206 O 0.58293 0.88423 0.13399 0.0
O207 O 0.58776 0.88431 0.17354 0.0
C208 C 0.42746 0.12167 0.95942 0.0
C209 C 0.41049 0.13394 0.94773 0.0
C210 C 0.42222 0.11794 0.97849 0.0
C211 C 0.36972 0.11375 1.01179 0.0
H212 H 0.42105 0.1199 0.04961 0.0
C213 C 0.35034 0.10577 0.09224 0.0
C214 C 0.36873 0.09466 0.10335 0.0
C215 C 0.35453 0.11025 0.07306 0.0
C216 C 0.40654 0.11775 0.03922 0.0
H217 H 0.37491 0.15247 0.94718 0.0
H218 H 0.36591 0.14609 0.98044 0.0
H219 H 0.43058 0.1293 1.01693 0.0
H220 H 0.40536 0.07834 0.10277 0.0
H221 H 0.41236 0.08554 0.06947 0.0
H222 H 0.34572 0.102 0.03409 0.0
C223 C 0.38314 0.13908 0.97478 0.0
C224 C 0.41202 0.12323 1.02045 0.0
C225 C 0.38843 0.14292 0.95573 0.0
C226 C 0.39087 0.08715 0.09469 0.0
C227 C 0.39499 0.09149 0.07558 0.0
C228 C 0.36424 0.10819 0.03058 0.0
C229 C 0.39984 0.12629 0.98637 0.0
C230 C 0.39374 0.12118 1.00646 0.0
C231 C 0.37716 0.10363 0.06457 0.0
C232 C 0.38264 0.10994 0.04454 0.0
H233 H 0.44459 0.11442 0.95375 0.0
H234 H 0.43542 0.10783 0.98695 0.0
H235 H 0.35526 0.11168 1.00134 0.0
H236 H 0.33313 0.11191 0.0985 0.0
H237 H 0.3404 0.11973 0.06506 0.0
C238 C 0.38881 0.42431 0.4606 0.0
C239 C 0.37011 0.41136 0.45097 0.0
C240 C 0.39402 0.41915 0.47948 0.0
C241 C 0.38738 0.36943 0.51476 0.0
H242 H 0.4059 0.42055 0.55015 0.0
C243 C 0.39981 0.35124 0.59459 0.0
C244 C 0.41864 0.36413 0.60414 0.0
C245 C 0.39453 0.35636 0.57571 0.0
C246 C 0.40109 0.40599 0.54039 0.0
H247 H 0.34153 0.38347 0.45398 0.0
H248 H 0.35034 0.37478 0.48694 0.0
H249 H 0.39421 0.43166 0.51816 0.0
H250 H 0.44733 0.39187 0.60099 0.0
H251 H 0.43836 0.40052 0.56805 0.0
H252 H 0.39425 0.34376 0.537 0.0
C253 C 0.36133 0.38861 0.47979 0.0
C254 C 0.39432 0.41239 0.52203 0.0
C255 C 0.35612 0.39377 0.46091 0.0
C256 C 0.43266 0.38161 0.59412 0.0
C257 C 0.42735 0.38676 0.57526 0.0
C258 C 0.39415 0.36303 0.53313 0.0
C259 C 0.38065 0.40091 0.48924 0.0
C260 C 0.38737 0.3942 0.50895 0.0
C261 C 0.40792 0.37452 0.56589 0.0
C262 C 0.40112 0.38122 0.54619 0.0
H263 H 0.40003 0.43792 0.45341 0.0
H264 H 0.40915 0.42887 0.48622 0.0
H265 H 0.38259 0.35487 0.505 0.0
H266 H 0.38858 0.3377 0.60185 0.0
H267 H 0.37932 0.34669 0.56903 0.0
C268 C 0.14693 0.3698 0.95754 0.0
C269 C 0.12545 0.36066 0.94872 0.0
C270 C 0.14751 0.3739 0.97692 0.0
C271 C 0.10664 0.38371 1.01813 0.0
H272 H 0.16658 0.37005 0.04633 0.0
C273 C 0.1098 0.38454 0.09929 0.0
C274 C 0.13082 0.39446 0.10826 0.0
C275 C 0.10917 0.38159 0.07979 0.0
C276 C 0.14981 0.37429 0.03863 0.0
H277 H 0.08775 0.34837 0.95355 0.0
H278 H 0.08884 0.35515 0.98758 0.0
H279 H 0.16514 0.36124 1.01273 0.0
H280 H 0.16757 0.40944 0.10363 0.0
H281 H 0.16648 0.40428 0.06937 0.0
H282 H 0.09125 0.39649 0.04412 0.0
C283 C 0.10518 0.35951 0.97937 0.0
C284 C 0.14894 0.36919 1.01933 0.0
C285 C 0.10458 0.35544 0.95987 0.0
C286 C 0.1511 0.40177 0.09716 0.0
C287 C 0.15053 0.39864 0.07756 0.0
C288 C 0.10748 0.38871 0.03744 0.0
C289 C 0.12665 0.3689 0.98814 0.0
C290 C 0.12734 0.37384 1.00881 0.0
C291 C 0.12958 0.38837 0.06866 0.0
C292 C 0.12906 0.38403 0.04795 0.0
H293 H 0.16336 0.37415 0.94943 0.0
H294 H 0.16423 0.3815 0.98305 0.0
H295 H 0.08985 0.38796 1.01047 0.0
H296 H 0.09381 0.37871 0.10737 0.0
H297 H 0.09286 0.37336 0.07348 0.0
C298 C 0.09822 0.14908 0.594 0.0
C299 C 0.08028 0.13529 0.60379 0.0
C300 C 0.10303 0.14446 0.57497 0.0
C301 C 0.07771 0.11347 0.53233 0.0
H302 H 0.14654 0.11262 0.51664 0.0
C303 C 0.10693 0.07519 0.45991 0.0
C304 C 0.12446 0.08891 0.44967 0.0
C305 C 0.10217 0.08057 0.47882 0.0
C306 C 0.12721 0.113 0.52073 0.0
H307 H 0.05276 0.10635 0.60096 0.0
H308 H 0.06121 0.09823 0.56791 0.0
H309 H 0.1361 0.12375 0.5489 0.0
H310 H 0.15139 0.11854 0.45159 0.0
H311 H 0.1431 0.12788 0.48454 0.0
H312 H 0.06884 0.10259 0.50418 0.0
C313 C 0.07146 0.11278 0.57486 0.0
C314 C 0.12119 0.11947 0.53924 0.0
C315 C 0.06664 0.11741 0.59388 0.0
C316 C 0.1378 0.10753 0.45903 0.0
C317 C 0.13308 0.11287 0.47797 0.0
C318 C 0.08373 0.10696 0.51384 0.0
C319 C 0.09003 0.12593 0.56522 0.0
C320 C 0.09636 0.11975 0.54532 0.0
C321 C 0.11486 0.09977 0.48802 0.0
C322 C 0.10857 0.10656 0.50779 0.0
H323 H 0.10906 0.16305 0.60115 0.0
H324 H 0.11713 0.15528 0.56794 0.0
H325 H 0.05837 0.11384 0.53639 0.0
H326 H 0.09633 0.06069 0.4532 0.0
H327 H 0.08835 0.06979 0.48621 0.0
C328 C 0.61229 0.85239 0.09432 0.0
C329 C 0.59549 0.8676 0.10397 0.0
C330 C 0.61814 0.85696 0.07541 0.0
C331 C 0.61643 0.90764 0.04016 0.0
H332 H 0.62888 0.85557 1.00414 0.0
C333 C 0.62109 0.92456 0.96001 0.0
C334 C 0.63879 0.9116 0.94942 0.0
C335 C 0.6178 0.91963 0.97915 0.0
C336 C 0.62578 0.87033 1.01409 0.0
H337 H 0.57067 0.89867 0.10097 0.0
H338 H 0.58022 0.90612 0.06806 0.0
H339 H 0.6181 0.8451 0.03652 0.0
H340 H 0.66744 0.88372 0.95091 0.0
H341 H 0.66165 0.87514 0.98439 0.0
H342 H 0.62366 0.93284 1.01766 0.0
C343 C 0.58955 0.89116 0.07517 0.0
C344 C 0.61957 0.86433 0.03269 0.0
C345 C 0.58387 0.88672 0.09404 0.0
C346 C 0.65368 0.89412 0.95863 0.0
C347 C 0.65021 0.88902 0.97778 0.0
C348 C 0.62247 0.91362 1.02159 0.0
C349 C 0.60721 0.87675 0.06568 0.0
C350 C 0.61455 0.88291 0.04594 0.0
C351 C 0.63198 0.90148 0.98821 0.0
C352 C 0.62702 0.89506 1.00826 0.0
H353 H 0.62169 0.83759 0.10158 0.0
H354 H 0.63191 0.84552 0.06863 0.0
H355 H 0.61334 0.9225 0.05003 0.0
H356 H 0.60927 0.9381 0.95338 0.0
H357 H 0.60346 0.92945 0.98671 0.0
C358 C 0.65155 0.59229 0.59038 0.0
C359 C 0.63541 0.5769 0.60056 0.0
C360 C 0.64722 0.59728 0.57132 0.0
C361 C 0.59599 0.59751 0.53654 0.0
H362 H 0.64878 0.60501 0.50002 0.0
C363 C 0.57748 0.60605 0.45661 0.0
C364 C 0.59265 0.62196 0.44605 0.0
C365 C 0.5825 0.60156 0.47561 0.0
C366 C 0.63382 0.6033 0.5101 0.0
H367 H 0.6028 0.55364 0.59834 0.0
H368 H 0.59558 0.56189 0.56516 0.0
H369 H 0.6588 0.59391 0.53239 0.0
H370 H 0.62458 0.64626 0.44747 0.0
H371 H 0.63313 0.63863 0.48065 0.0
H372 H 0.57101 0.6068 0.51427 0.0
C373 C 0.61124 0.57065 0.57198 0.0
C374 C 0.63958 0.59688 0.52867 0.0
C375 C 0.61553 0.56573 0.591 0.0
C376 C 0.61249 0.63388 0.45514 0.0
C377 C 0.61756 0.62933 0.47414 0.0
C378 C 0.59024 0.60388 0.51799 0.0
C379 C 0.62666 0.58694 0.56197 0.0
C380 C 0.62072 0.59378 0.54213 0.0
C381 C 0.60285 0.61282 0.48456 0.0
C382 C 0.60906 0.60678 0.50449 0.0
H383 H 0.66699 0.6013 0.5973 0.0
H384 H 0.65943 0.61001 0.56412 0.0
H385 H 0.58099 0.59583 0.54658 0.0
H386 H 0.5621 0.59648 0.45008 0.0
H387 H 0.57089 0.58858 0.48312 0.0
C388 C 0.83835 0.62536 0.95794 0.0
C389 C 0.84773 0.60629 0.94663 0.0
C390 C 0.84416 0.62666 0.97708 0.0
C391 C 0.86766 0.59017 1.01732 0.0
H392 H 0.88082 0.65463 0.03865 0.0
C393 C 0.86944 0.60715 0.09717 0.0
C394 C 0.8866 0.62395 0.10479 0.0
C395 C 0.86701 0.60428 0.07776 0.0
C396 C 0.87751 0.63646 0.0329 0.0
H397 H 0.87009 0.57319 0.94681 0.0
H398 H 0.88029 0.57547 0.98024 0.0
H399 H 0.87168 0.65074 1.0052 0.0
H400 H 0.91498 0.65071 0.09783 0.0
H401 H 0.9108 0.64564 0.06367 0.0
H402 H 0.87368 0.57588 0.04498 0.0
C403 C 0.86828 0.58938 0.9743 0.0
C404 C 0.87191 0.63424 1.01374 0.0
C405 C 0.86243 0.58807 0.95511 0.0
C406 C 0.90159 0.63762 0.09242 0.0
C407 C 0.89908 0.6348 0.07287 0.0
C408 C 0.87323 0.59239 0.03647 0.0
C409 C 0.85956 0.60894 0.98548 0.0
C410 C 0.86658 0.61111 1.00573 0.0
C411 C 0.88165 0.61813 0.0653 0.0
C412 C 0.8779 0.6156 0.04458 0.0
H413 H 0.82686 0.63966 0.95195 0.0
H414 H 0.83662 0.64166 0.9853 0.0
H415 H 0.86357 0.57208 1.0117 0.0
H416 H 0.85754 0.59627 0.10622 0.0
H417 H 0.85313 0.59158 0.07252 0.0
C418 C 0.89581 0.85034 0.45797 0.0
C419 C 0.91475 0.86326 0.44856 0.0
C420 C 0.89035 0.8554 0.47684 0.0
C421 C 0.91551 0.88492 0.51999 0.0
H422 H 0.84632 0.89024 0.53416 0.0
C423 C 0.8872 0.92444 0.59196 0.0
C424 C 0.86829 0.91219 0.60187 0.0
C425 C 0.89184 0.91901 0.57306 0.0
C426 C 0.86573 0.88859 0.53051 0.0
H427 H 0.9433 0.8911 0.45194 0.0
H428 H 0.93381 0.89985 0.48474 0.0
H429 H 0.85727 0.8784 0.50211 0.0
H430 H 0.8387 0.88529 0.59931 0.0
H431 H 0.84688 0.87571 0.56634 0.0
H432 H 0.92403 0.89505 0.54833 0.0
C433 C 0.92324 0.88571 0.47759 0.0
C434 C 0.87202 0.88174 0.51212 0.0
C435 C 0.92865 0.88071 0.45871 0.0
C436 C 0.85337 0.89516 0.59212 0.0
C437 C 0.85806 0.88967 0.57318 0.0
C438 C 0.90923 0.89173 0.53836 0.0
C439 C 0.90374 0.87342 0.48682 0.0
C440 C 0.89701 0.87991 0.50659 0.0
C441 C 0.87775 0.90111 0.56352 0.0
C442 C 0.88426 0.8938 0.54387 0.0
H443 H 0.88471 0.83677 0.45062 0.0
H444 H 0.87549 0.84528 0.48358 0.0
H445 H 0.93493 0.88332 0.51634 0.0
H446 H 0.89896 0.93779 0.59896 0.0
H447 H 0.90677 0.92863 0.56599 0.0
C448 C 0.17648 0.31826 0.16984 0.0
C449 C 0.17643 0.33208 0.18656 0.0
C450 C 0.1928 0.29857 0.1676 0.0
C451 C 0.23414 0.25537 0.19233 0.0
H452 H 0.27032 0.25635 0.1452 0.0
C453 C 0.31353 0.18676 0.17692 0.0
C454 C 0.3125 0.17556 0.15912 0.0
C455 C 0.29872 0.20725 0.18095 0.0
C456 C 0.26028 0.25568 0.15838 0.0
H457 H 0.19222 0.33486 0.21455 0.0
H458 H 0.22057 0.30031 0.21065 0.0
H459 H 0.23888 0.28741 0.15126 0.0
H460 H 0.29616 0.17783 0.1313 0.0
H461 H 0.27045 0.2132 0.13828 0.0
H462 H 0.25529 0.22334 0.1993 0.0
C463 C 0.20809 0.30485 0.19925 0.0
C464 C 0.24221 0.27344 0.16183 0.0
C465 C 0.19184 0.32466 0.20146 0.0
C466 C 0.29736 0.18597 0.14518 0.0
C467 C 0.28267 0.20639 0.14916 0.0
C468 C 0.25217 0.23746 0.18883 0.0
C469 C 0.20931 0.29214 0.18206 0.0
C470 C 0.22871 0.27332 0.17873 0.0
C471 C 0.28276 0.21699 0.1672 0.0
C472 C 0.26524 0.23724 0.1717 0.0
H473 H 0.16477 0.32335 0.15811 0.0
H474 H 0.19297 0.28876 0.15434 0.0
H475 H 0.224 0.2548 0.20547 0.0
H476 H 0.32499 0.17914 0.18797 0.0
H477 H 0.29947 0.21521 0.1949 0.0
C478 C 0.32276 0.3034 0.69746 0.0
C479 C 0.33104 0.31704 0.68185 0.0
C480 C 0.3029 0.28695 0.6957 0.0
C481 C 0.27325 0.24847 0.66006 0.0
H482 H 0.21949 0.24171 0.69587 0.0
C483 C 0.18624 0.19098 0.64415 0.0
C484 C 0.17406 0.17874 0.65892 0.0
C485 C 0.20651 0.20626 0.64775 0.0
C486 C 0.23462 0.24304 0.68591 0.0
H487 H 0.32393 0.32516 0.65245 0.0
H488 H 0.28937 0.29649 0.64945 0.0
H489 H 0.25137 0.27307 0.7009 0.0
H490 H 0.17446 0.17199 0.68898 0.0
H491 H 0.21033 0.19828 0.69522 0.0
H492 H 0.25689 0.21839 0.64515 0.0
C493 C 0.29847 0.2983 0.66296 0.0
C494 C 0.25277 0.26112 0.68875 0.0
C495 C 0.31815 0.31487 0.66474 0.0
C496 C 0.18338 0.18122 0.67729 0.0
C497 C 0.20379 0.19648 0.68089 0.0
C498 C 0.25529 0.23029 0.65731 0.0
C499 C 0.29107 0.2837 0.67827 0.0
C500 C 0.27205 0.26423 0.6757 0.0
C501 C 0.21528 0.20958 0.6662 0.0
C502 C 0.23553 0.22756 0.67004 0.0
H503 H 0.33224 0.30468 0.71085 0.0
H504 H 0.29757 0.27594 0.70774 0.0
H505 H 0.28822 0.25009 0.64999 0.0
H506 H 0.17956 0.18952 0.62983 0.0
H507 H 0.21466 0.21624 0.6361 0.0
C508 C 0.30336 0.31866 0.3572 0.0
C509 C 0.3161 0.32671 0.37334 0.0
C510 C 0.28529 0.3002 0.35848 0.0
C511 C 0.24094 0.2753 0.39223 0.0
H512 H 0.23536 0.21966 0.35835 0.0
C513 C 0.17673 0.19324 0.40774 0.0
C514 C 0.16599 0.18016 0.39275 0.0
C515 C 0.19335 0.21245 0.40434 0.0
C516 C 0.23633 0.23534 0.36772 0.0
H517 H 0.32071 0.32073 0.40332 0.0
H518 H 0.28916 0.28869 0.40551 0.0
H519 H 0.26906 0.24929 0.35422 0.0
H520 H 0.16324 0.17797 0.36237 0.0
H521 H 0.19177 0.21204 0.3564 0.0
H522 H 0.20817 0.2618 0.40561 0.0
C523 C 0.29301 0.29683 0.39191 0.0
C524 C 0.25576 0.2522 0.3654 0.0
C525 C 0.31123 0.31506 0.39061 0.0
C526 C 0.17126 0.1876 0.37424 0.0
C527 C 0.18783 0.20698 0.37082 0.0
C528 C 0.2214 0.25866 0.39442 0.0
C529 C 0.27945 0.28964 0.37596 0.0
C530 C 0.25847 0.27211 0.37784 0.0
C531 C 0.19953 0.21927 0.38584 0.0
C532 C 0.21904 0.23822 0.38239 0.0
H533 H 0.30669 0.32722 0.34368 0.0
H534 H 0.27512 0.29498 0.34596 0.0
H535 H 0.24228 0.29079 0.40178 0.0
H536 H 0.17314 0.188 0.42218 0.0
H537 H 0.20216 0.22121 0.41628 0.0
C538 C 0.31492 0.17878 0.87917 0.0
C539 C 0.32744 0.17157 0.86272 0.0
C540 C 0.29578 0.19598 0.87835 0.0
C541 C 0.24991 0.2256 0.84816 0.0
H542 H 0.25849 0.28118 0.88182 0.0
C543 C 0.18272 0.3082 0.84658 0.0
C544 C 0.17567 0.31795 0.86409 0.0
C545 C 0.20241 0.29157 0.84528 0.0
C546 C 0.25557 0.26569 0.87248 0.0
H547 H 0.3285 0.17556 0.83238 0.0
H548 H 0.29454 0.20528 0.83096 0.0
H549 H 0.2886 0.24789 0.88204 0.0
H550 H 0.18435 0.31848 0.89388 0.0
H551 H 0.21804 0.28919 0.89172 0.0
H552 H 0.21645 0.24289 0.83901 0.0
C553 C 0.29985 0.19777 0.84447 0.0
C554 C 0.27289 0.24665 0.8726 0.0
C555 C 0.31928 0.18077 0.84531 0.0
C556 C 0.18935 0.31145 0.88014 0.0
C557 C 0.20882 0.29465 0.87888 0.0
C558 C 0.23234 0.24451 0.84823 0.0
C559 C 0.28848 0.2061 0.86106 0.0
C560 C 0.27013 0.22633 0.86056 0.0
C561 C 0.21536 0.28414 0.86148 0.0
C562 C 0.23484 0.26474 0.86051 0.0
H563 H 0.32066 0.17206 0.89282 0.0
H564 H 0.28704 0.20185 0.89131 0.0
H565 H 0.24735 0.2101 0.83877 0.0
H566 H 0.17263 0.31292 0.83393 0.0
H567 H 0.20724 0.2843 0.83159 0.0
C568 C 0.71244 0.82094 0.90346 0.0
C569 C 0.69473 0.82937 0.89051 0.0
C570 C 0.72796 0.80133 0.89898 0.0
C571 C 0.73586 0.74806 0.86761 0.0
H572 H 0.80499 0.75542 0.88159 0.0
C573 C 0.80876 0.67348 0.85043 0.0
C574 C 0.82438 0.66701 0.86545 0.0
C575 C 0.79399 0.69457 0.85147 0.0
C576 C 0.78573 0.75302 0.87768 0.0
H577 H 0.67882 0.82318 0.8629 0.0
H578 H 0.70607 0.78868 0.85505 0.0
H579 H 0.77611 0.78891 0.88757 0.0
H580 H 0.83749 0.67821 0.89301 0.0
H581 H 0.81181 0.71483 0.89482 0.0
H582 H 0.74546 0.71195 0.85802 0.0
C583 C 0.70784 0.79734 0.86871 0.0
C584 C 0.76917 0.77219 0.88112 0.0
C585 C 0.69224 0.81708 0.8732 0.0
C586 C 0.8257 0.68265 0.88117 0.0
C587 C 0.81102 0.70374 0.88218 0.0
C588 C 0.75246 0.72882 0.86418 0.0
C589 C 0.72622 0.78961 0.88142 0.0
C590 C 0.74396 0.76977 0.87646 0.0
C591 C 0.79464 0.7097 0.8675 0.0
C592 C 0.77751 0.73094 0.86947 0.0
H593 H 0.71472 0.82983 0.917 0.0
H594 H 0.74152 0.79545 0.90927 0.0
H595 H 0.71653 0.74559 0.86395 0.0
H596 H 0.8073 0.66184 0.83811 0.0
H597 H 0.78182 0.69885 0.83982 0.0
C598 C 0.69808 0.67215 0.4038 0.0
C599 C 0.68492 0.66145 0.38882 0.0
C600 C 0.71729 0.6888 0.40037 0.0
C601 C 0.73995 0.73168 0.36373 0.0
H602 H 0.79559 0.73823 0.39787 0.0
C603 C 0.82356 0.79881 0.35353 0.0
C604 C 0.83122 0.81167 0.3697 0.0
C605 C 0.80505 0.78077 0.35469 0.0
C606 C 0.78005 0.7367 0.38829 0.0
H607 H 0.68264 0.65877 0.35843 0.0
H608 H 0.71676 0.68731 0.35244 0.0
H609 H 0.76678 0.70403 0.40165 0.0
H610 H 0.82445 0.81658 0.39956 0.0
H611 H 0.79238 0.78504 0.40154 0.0
H612 H 0.75371 0.7643 0.35022 0.0
C613 C 0.71173 0.68334 0.36687 0.0
C614 C 0.7635 0.71712 0.39046 0.0
C615 C 0.69233 0.66677 0.3703 0.0
C616 C 0.81909 0.80699 0.38683 0.0
C617 C 0.80084 0.78879 0.38802 0.0
C618 C 0.75673 0.75114 0.36142 0.0
C619 C 0.72407 0.69502 0.38187 0.0
C620 C 0.74297 0.71456 0.37842 0.0
C621 C 0.79409 0.77508 0.37207 0.0
C622 C 0.77669 0.75406 0.37389 0.0
H623 H 0.69286 0.66854 0.41824 0.0
H624 H 0.72608 0.69759 0.41231 0.0
H625 H 0.72419 0.73054 0.35434 0.0
H626 H 0.83249 0.802 0.3401 0.0
H627 H 0.80015 0.77047 0.34217 0.0
C628 C 0.82311 0.81181 0.66395 0.0
C629 C 0.82124 0.82701 0.67988 0.0
C630 C 0.80807 0.791 0.66213 0.0
C631 C 0.76708 0.74796 0.68788 0.0
H632 H 0.73697 0.73953 0.63876 0.0
C633 C 0.69142 0.67437 0.67299 0.0
C634 C 0.69471 0.66069 0.65639 0.0
C635 C 0.70583 0.69537 0.67643 0.0
C636 C 0.74535 0.7415 0.65252 0.0
H637 H 0.80298 0.83153 0.70685 0.0
H638 H 0.77664 0.79519 0.70361 0.0
H639 H 0.76547 0.77359 0.64413 0.0
H640 H 0.71526 0.65868 0.6302 0.0
H641 H 0.74026 0.69506 0.63619 0.0
H642 H 0.74693 0.7157 0.6962 0.0
C643 C 0.78981 0.79935 0.69256 0.0
C644 C 0.76176 0.76098 0.65558 0.0
C645 C 0.8049 0.82021 0.6944 0.0
C646 C 0.71222 0.66879 0.64313 0.0
C647 C 0.72649 0.68975 0.64651 0.0
C648 C 0.75063 0.7284 0.68481 0.0
C649 C 0.79078 0.7849 0.67617 0.0
C650 C 0.77305 0.76429 0.67322 0.0
C651 C 0.72367 0.70317 0.66327 0.0
C652 C 0.7398 0.72482 0.66702 0.0
H653 H 0.83564 0.81639 0.65257 0.0
H654 H 0.80966 0.77992 0.64952 0.0
H655 H 0.77556 0.74995 0.7016 0.0
H656 H 0.67811 0.66856 0.6835 0.0
H657 H 0.70306 0.70548 0.68938 0.0
C658 C 0.82332 0.70067 0.1468 0.0
C659 C 0.83067 0.68323 0.16025 0.0
C660 C 0.80312 0.71598 0.15014 0.0
C661 C 0.76777 0.74365 0.18867 0.0
H662 H 0.72263 0.76167 0.1486 0.0
C663 C 0.68068 0.80488 0.19899 0.0
C664 C 0.67426 0.82085 0.18421 0.0
C665 C 0.7007 0.78877 0.19714 0.0
C666 C 0.73529 0.75709 0.15987 0.0
H667 H 0.82213 0.66759 0.18753 0.0
H668 H 0.78649 0.69443 0.19337 0.0
H669 H 0.7537 0.7301 0.14307 0.0
H670 H 0.68511 0.83382 0.15655 0.0
H671 H 0.72025 0.80606 0.15349 0.0
H672 H 0.74931 0.77079 0.20545 0.0
C673 C 0.79659 0.6963 0.18029 0.0
C674 C 0.75301 0.7389 0.15673 0.0
C675 C 0.8168 0.68078 0.17687 0.0
C676 C 0.68938 0.82161 0.16813 0.0
C677 C 0.70939 0.80553 0.1663 0.0
C678 C 0.74999 0.7619 0.19183 0.0
C679 C 0.78979 0.71431 0.16706 0.0
C680 C 0.76964 0.73215 0.17101 0.0
C681 C 0.71474 0.78834 0.1805 0.0
C682 C 0.73373 0.76901 0.17738 0.0
H683 H 0.83363 0.70299 0.13384 0.0
H684 H 0.79856 0.7298 0.13974 0.0
H685 H 0.78054 0.73908 0.19989 0.0
H686 H 0.66946 0.80384 0.21159 0.0
H687 H 0.70432 0.77576 0.20834 0.0
C688 C 0.19935 0.07465 0.34216 0.0
C689 C 0.17382 0.07683 0.33863 0.0
C690 C 0.21607 0.07135 0.32728 0.0
C691 C 0.22052 0.05534 0.27627 0.0
H692 H 0.27873 0.09719 0.27801 0.0
C693 C 0.28147 0.07785 0.21068 0.0
C694 C 0.30704 0.08096 0.21365 0.0
C695 C 0.26546 0.07388 0.22597 0.0
C696 C 0.2628 0.08505 0.27736 0.0
H697 H 0.14579 0.07592 0.31676 0.0
H698 H 0.17479 0.07036 0.29098 0.0
H699 H 0.25099 0.09569 0.30487 0.0
H700 H 0.33601 0.08069 0.23479 0.0
H701 H 0.30842 0.07326 0.26114 0.0
H702 H 0.23227 0.04505 0.24853 0.0
C703 C 0.18199 0.07106 0.30518 0.0
C704 C 0.24687 0.08417 0.29284 0.0
C705 C 0.16533 0.07441 0.32001 0.0
C706 C 0.31636 0.07875 0.23202 0.0
C707 C 0.30049 0.07463 0.24719 0.0
C708 C 0.23652 0.0562 0.26074 0.0
C709 C 0.20763 0.07006 0.30855 0.0
C710 C 0.22543 0.06944 0.29249 0.0
C711 C 0.27476 0.07281 0.24448 0.0
C712 C 0.25784 0.07116 0.26106 0.0
H713 H 0.20651 0.07637 0.35633 0.0
H714 H 0.23567 0.07027 0.33042 0.0
H715 H 0.2043 0.0436 0.27557 0.0
H716 H 0.27373 0.07952 0.19669 0.0
H717 H 0.24573 0.07265 0.22336 0.0
C718 C 0.43338 0.28862 0.7113 0.0
C719 C 0.43363 0.31425 0.71414 0.0
C720 C 0.43651 0.27249 0.72651 0.0
C721 C 0.42658 0.27022 0.77757 0.0
H722 H 0.46562 0.21052 0.77569 0.0
C723 C 0.43187 0.20534 0.84177 0.0
C724 C 0.43058 0.17998 0.83798 0.0
C725 C 0.43581 0.22225 0.82717 0.0
C726 C 0.45443 0.227 0.77642 0.0
H727 H 0.43861 0.34292 0.7351 0.0
H728 H 0.444 0.31489 0.76142 0.0
H729 H 0.46561 0.23849 0.74881 0.0
H730 H 0.43334 0.15252 0.81589 0.0
H731 H 0.43957 0.18178 0.79061 0.0
H732 H 0.41465 0.25855 0.8048 0.0
C733 C 0.44109 0.30724 0.74752 0.0
C734 C 0.45449 0.24304 0.761 0.0
C735 C 0.43812 0.32331 0.73236 0.0
C736 C 0.43425 0.17191 0.81938 0.0
C737 C 0.438 0.18876 0.80482 0.0
C738 C 0.42632 0.25411 0.7929 0.0
C739 C 0.43979 0.28166 0.74487 0.0
C740 C 0.44048 0.2648 0.76137 0.0
C741 C 0.43841 0.21422 0.80842 0.0
C742 C 0.44011 0.23217 0.79253 0.0
H743 H 0.42992 0.28102 0.69746 0.0
H744 H 0.43533 0.25285 0.72402 0.0
H745 H 0.41528 0.28665 0.77821 0.0
H746 H 0.42922 0.21219 0.85593 0.0
H747 H 0.43649 0.24167 0.83058 0.0
C748 C 0.21174 0.43365 0.21322 0.0
C749 C 0.18619 0.43348 0.21706 0.0
C750 C 0.22898 0.43665 0.22782 0.0
C751 C 0.23476 0.45449 0.27863 0.0
H752 H 0.29267 0.41254 0.27673 0.0
C753 C 0.29514 0.42984 0.34382 0.0
C754 C 0.32092 0.42845 0.3411 0.0
C755 C 0.27924 0.43402 0.32855 0.0
C756 C 0.27676 0.42463 0.2774 0.0
H757 H 0.15877 0.43725 0.23921 0.0
H758 H 0.18855 0.44187 0.26447 0.0
H759 H 0.26446 0.41362 0.25009 0.0
H760 H 0.35019 0.43165 0.32028 0.0
H761 H 0.32257 0.43891 0.29385 0.0
H762 H 0.24683 0.46478 0.30631 0.0
C763 C 0.19546 0.44013 0.25024 0.0
C764 C 0.26058 0.42533 0.26205 0.0
C765 C 0.1783 0.43729 0.23568 0.0
C766 C 0.33044 0.43241 0.32293 0.0
C767 C 0.3146 0.43644 0.30771 0.0
C768 C 0.25086 0.4536 0.29407 0.0
C769 C 0.22107 0.43942 0.2466 0.0
C770 C 0.23923 0.44013 0.26247 0.0
C771 C 0.28879 0.43676 0.31024 0.0
C772 C 0.27199 0.43856 0.29367 0.0
H773 H 0.21846 0.43084 0.19904 0.0
H774 H 0.24852 0.43646 0.22439 0.0
H775 H 0.21876 0.46643 0.2794 0.0
H776 H 0.28718 0.42683 0.35761 0.0
H777 H 0.25942 0.43407 0.33096 0.0
C778 C 0.06886 0.20727 0.71361 0.0
C779 C 0.07389 0.1821 0.71613 0.0
C780 C 0.06502 0.22264 0.72922 0.0
C781 C 0.08124 0.2262 0.77952 0.0
H782 H 0.03318 0.27901 0.78143 0.0
C783 C 0.07312 0.2875 0.84535 0.0
C784 C 0.07109 0.31292 0.84206 0.0
C785 C 0.06965 0.27063 0.83065 0.0
C786 C 0.04683 0.26444 0.78108 0.0
H787 H 0.07736 0.15314 0.73698 0.0
H788 H 0.07052 0.17972 0.76393 0.0
H789 H 0.03446 0.2518 0.75405 0.0
H790 H 0.06249 0.3404 0.82092 0.0
H791 H 0.05688 0.31121 0.79541 0.0
H792 H 0.09414 0.23904 0.80618 0.0
C793 C 0.07004 0.18776 0.75 0.0
C794 C 0.04754 0.24886 0.76537 0.0
C795 C 0.07384 0.17249 0.73449 0.0
C796 C 0.06427 0.32096 0.82399 0.0
C797 C 0.06089 0.30415 0.80932 0.0
C798 C 0.08062 0.2418 0.79514 0.0
C799 C 0.06618 0.21313 0.74763 0.0
C800 C 0.06481 0.22957 0.76438 0.0
C801 C 0.06413 0.27878 0.81231 0.0
C802 C 0.06349 0.26123 0.79614 0.0
H803 H 0.06879 0.21526 0.69966 0.0
H804 H 0.06217 0.24213 0.72691 0.0
H805 H 0.09509 0.21183 0.77909 0.0
H806 H 0.07827 0.28065 0.8591 0.0
H807 H 0.07181 0.2512 0.8336 0.0
C808 C 0.69213 0.93121 0.83227 0.0
C809 C 0.70716 0.92357 0.84734 0.0
C810 C 0.70235 0.93519 0.81442 0.0
C811 C 0.76019 0.94692 0.78837 0.0
H812 H 0.7292 0.90927 0.74844 0.0
C813 C 0.81001 0.92801 0.71782 0.0
C814 C 0.79597 0.92371 0.70148 0.0
C815 C 0.79839 0.93173 0.73519 0.0
C816 C 0.73788 0.92042 0.75921 0.0
H817 H 0.74492 0.91551 0.85567 0.0
H818 H 0.76281 0.9231 0.8246 0.0
H819 H 0.71046 0.90998 0.77953 0.0
H820 H 0.75864 0.92135 0.69044 0.0
H821 H 0.73831 0.92903 0.72048 0.0
H822 H 0.78745 0.95771 0.76812 0.0
C823 C 0.7431 0.92576 0.82659 0.0
C824 C 0.72712 0.92069 0.77712 0.0
C825 C 0.73283 0.92136 0.84438 0.0
C826 C 0.77001 0.92444 0.70278 0.0
C827 C 0.75835 0.92859 0.7201 0.0
C828 C 0.77075 0.94702 0.77036 0.0
C829 C 0.72788 0.93207 0.8113 0.0
C830 C 0.73834 0.93363 0.79197 0.0
C831 C 0.77235 0.93167 0.73669 0.0
C832 C 0.76 0.93341 0.75555 0.0
H833 H 0.67228 0.933 0.83402 0.0
H834 H 0.6902 0.94022 0.80293 0.0
H835 H 0.76914 0.95725 0.79951 0.0
H836 H 0.83007 0.92736 0.7174 0.0
H837 H 0.80996 0.93362 0.74753 0.0
C838 C 0.57501 0.69358 0.33819 0.0
C839 C 0.58364 0.66973 0.33428 0.0
C840 C 0.57 0.71008 0.3235 0.0
C841 C 0.56051 0.71378 0.27144 0.0
H842 H 0.58471 0.78046 0.27789 0.0
C843 C 0.5778 0.78146 0.20933 0.0
C844 C 0.57316 0.80657 0.21251 0.0
C845 C 0.5753 0.76436 0.22401 0.0
C846 C 0.57748 0.76203 0.2759 0.0
H847 H 0.59287 0.6443 0.3118 0.0
H848 H 0.58452 0.67294 0.28645 0.0
H849 H 0.58675 0.75177 0.30406 0.0
H850 H 0.56072 0.83312 0.23324 0.0
H851 H 0.55603 0.80341 0.25856 0.0
H852 H 0.5518 0.72401 0.24308 0.0
C853 C 0.58131 0.67895 0.30077 0.0
C854 C 0.57861 0.74555 0.29097 0.0
C855 C 0.58629 0.66252 0.31538 0.0
C856 C 0.56472 0.81396 0.23034 0.0
C857 C 0.56217 0.79694 0.24493 0.0
C858 C 0.55945 0.73028 0.25633 0.0
C859 C 0.57347 0.70308 0.30459 0.0
C860 C 0.57037 0.72112 0.28892 0.0
C861 C 0.56807 0.77203 0.24212 0.0
C862 C 0.56808 0.75458 0.25832 0.0
H863 H 0.57271 0.69971 0.35257 0.0
H864 H 0.56365 0.72842 0.32698 0.0
H865 H 0.55366 0.69522 0.26941 0.0
H866 H 0.58444 0.77518 0.19579 0.0
H867 H 0.58011 0.74533 0.22136 0.0
C868 C 0.81437 0.56254 0.82996 0.0
C869 C 0.79971 0.56986 0.84534 0.0
C870 C 0.80364 0.55828 0.81233 0.0
C871 C 0.74534 0.54524 0.78729 0.0
H872 H 0.77515 0.58262 0.74672 0.0
C873 C 0.69494 0.56162 0.71647 0.0
C874 C 0.70898 0.56595 0.70014 0.0
C875 C 0.70657 0.55832 0.73389 0.0
C876 C 0.76681 0.57154 0.75768 0.0
H877 H 0.76207 0.57711 0.85442 0.0
H878 H 0.7433 0.56912 0.82368 0.0
H879 H 0.79422 0.58297 0.77766 0.0
H880 H 0.74631 0.56858 0.68912 0.0
H881 H 0.76665 0.56159 0.71922 0.0
H882 H 0.71809 0.53347 0.76733 0.0
C883 C 0.76312 0.56689 0.82529 0.0
C884 C 0.77774 0.57189 0.7755 0.0
C885 C 0.7739 0.57152 0.84289 0.0
C886 C 0.73495 0.56549 0.70146 0.0
C887 C 0.7466 0.56175 0.71882 0.0
C888 C 0.73459 0.54454 0.76934 0.0
C889 C 0.77797 0.56086 0.80971 0.0
C890 C 0.767 0.559 0.79056 0.0
C891 C 0.7326 0.55886 0.73542 0.0
C892 C 0.74497 0.55795 0.75429 0.0
H893 H 0.83431 0.56111 0.83129 0.0
H894 H 0.81551 0.55344 0.80062 0.0
H895 H 0.73676 0.53495 0.7986 0.0
H896 H 0.67488 0.56203 0.716 0.0
H897 H 0.69501 0.55647 0.74624 0.0
C898 C 0.94141 0.82765 0.3208 0.0
C899 C 0.93446 0.81712 0.33809 0.0
C900 C 0.94368 0.81314 0.30466 0.0
C901 C 0.94886 0.74955 0.28637 0.0
H902 H 0.91078 0.77512 0.24447 0.0
C903 C 0.93811 0.69924 0.21381 0.0
C904 C 0.91308 0.6953 0.20919 0.0
C905 C 0.94451 0.71528 0.22857 0.0
C906 C 0.92171 0.76785 0.25597 0.0
H907 H 0.92601 0.7827 0.35216 0.0
H908 H 0.93017 0.75727 0.32389 0.0
H909 H 0.91596 0.79999 0.27276 0.0
H910 H 0.87531 0.7057 0.21573 0.0
H911 H 0.88647 0.73416 0.24083 0.0
H912 H 0.95405 0.71709 0.26952 0.0
C913 C 0.93382 0.77683 0.32289 0.0
C914 C 0.92478 0.78213 0.27215 0.0
C915 C 0.93139 0.79142 0.33908 0.0
C916 C 0.89475 0.70839 0.21899 0.0
C917 C 0.90113 0.72473 0.23333 0.0
C918 C 0.94608 0.73536 0.27 0.0
C919 C 0.93923 0.78767 0.30538 0.0
C920 C 0.93802 0.77301 0.28769 0.0
C921 C 0.92601 0.72805 0.23853 0.0
C922 C 0.93204 0.7442 0.25479 0.0
H923 H 0.94414 0.84733 0.3195 0.0
H924 H 0.94825 0.82199 0.29146 0.0
H925 H 0.95926 0.74208 0.29807 0.0
H926 H 0.95256 0.68918 0.20659 0.0
H927 H 0.96384 0.71759 0.23229 0.0
C928 C 0.4032 0.0293 0.18861 0.0
C929 C 0.40496 0.05347 0.18174 0.0
C930 C 0.42446 0.01546 0.1919 0.0
C931 C 0.48811 0.00876 0.17554 0.0
H932 H 0.49052 0.96047 0.21565 0.0
C933 C 0.56158 0.93075 0.17802 0.0
C934 C 0.55069 0.90734 0.17991 0.0
C935 C 0.54762 0.95202 0.18144 0.0
C936 C 0.4902 0.97396 0.20443 0.0
H937 H 0.43048 0.08241 0.17351 0.0
H938 H 0.46791 0.05798 0.17921 0.0
H939 H 0.45893 0.99249 0.21624 0.0
H940 H 0.51708 0.88781 0.18759 0.0
H941 H 0.49298 0.92466 0.1937 0.0
H942 H 0.51886 0.98955 0.16339 0.0
C943 C 0.44995 0.04982 0.18199 0.0
C944 C 0.47211 0.99226 0.20475 0.0
C945 C 0.42856 0.06383 0.17883 0.0
C946 C 0.52597 0.90558 0.18594 0.0
C947 C 0.51221 0.92671 0.18959 0.0
C948 C 0.50631 0.99045 0.17526 0.0
C949 C 0.44808 0.02535 0.18834 0.0
C950 C 0.47023 0.00928 0.18994 0.0
C951 C 0.52272 0.95017 0.18714 0.0
C952 C 0.50691 0.97231 0.18934 0.0
H953 H 0.38531 0.02079 0.19106 0.0
H954 H 0.42228 0.99657 0.19651 0.0
H955 H 0.48708 0.02149 0.16386 0.0
H956 H 0.58059 0.93263 0.17334 0.0
H957 H 0.55619 0.96989 0.17947 0.0
C958 C 0.57391 0.55269 0.70005 0.0
C959 C 0.58078 0.5659 0.68387 0.0
C960 C 0.55168 0.53944 0.70053 0.0
C961 C 0.49165 0.5291 0.67588 0.0
H962 H 0.49992 0.46239 0.69409 0.0
C963 C 0.42592 0.44859 0.65624 0.0
C964 C 0.4224 0.42957 0.66938 0.0
C965 C 0.44206 0.46814 0.66018 0.0
C966 C 0.49702 0.48107 0.68928 0.0
H967 H 0.5689 0.57675 0.65593 0.0
H968 H 0.53028 0.55346 0.65672 0.0
H969 H 0.53367 0.49165 0.69729 0.0
H970 H 0.43163 0.41711 0.69748 0.0
H971 H 0.45925 0.45141 0.7045 0.0
H972 H 0.45507 0.51819 0.66748 0.0
C973 C 0.54198 0.55346 0.6691 0.0
C974 C 0.51645 0.4979 0.69112 0.0
C975 C 0.56421 0.56675 0.66862 0.0
C976 C 0.43415 0.43132 0.68696 0.0
C977 C 0.45012 0.45092 0.69094 0.0
C978 C 0.47212 0.51222 0.67407 0.0
C979 C 0.53581 0.53905 0.68485 0.0
C980 C 0.51415 0.52204 0.68426 0.0
C981 C 0.4549 0.46916 0.67738 0.0
C982 C 0.47468 0.4879 0.68057 0.0
H983 H 0.58613 0.5518 0.71211 0.0
H984 H 0.54725 0.52892 0.71302 0.0
H985 H 0.48919 0.54763 0.67061 0.0
H986 H 0.41719 0.44778 0.64254 0.0
H987 H 0.44541 0.48174 0.64934 0.0
C988 C 0.0687 0.44427 0.18978 0.0
C989 C 0.06678 0.42024 0.18259 0.0
C990 C 0.04758 0.45865 0.19237 0.0
C991 C 0.98517 0.46699 0.17373 0.0
H992 H 0.97875 0.5123 0.2156 0.0
C993 C 0.90806 0.54057 0.17538 0.0
C994 C 0.9163 0.56438 0.18007 0.0
C995 C 0.92319 0.5201 0.17864 0.0
C996 C 0.98028 0.4998 0.20379 0.0
H997 H 0.04104 0.39218 0.17303 0.0
H998 H 0.00401 0.4175 0.17746 0.0
H999 H 0.01143 0.48136 0.21594 0.0
H1000 H 0.94641 0.58515 0.19272 0.0
H1001 H 0.97272 0.54971 0.19817 0.0
H1002 H 0.9547 0.48602 0.1612 0.0
C1003 C 0.02196 0.42515 0.18103 0.0
C1004 C 0.99898 0.48205 0.20401 0.0
C1005 C 0.04314 0.41063 0.17859 0.0
C1006 C 0.93947 0.5671 0.18887 0.0
C1007 C 0.95453 0.5467 0.19214 0.0
C1008 C 0.96651 0.48482 0.17347 0.0
C1009 C 0.024 0.44944 0.18774 0.0
C1010 C 0.00204 0.46586 0.18877 0.0
C1011 C 0.94683 0.52299 0.18672 0.0
C1012 C 0.96425 0.50186 0.18827 0.0
H1013 H 0.08662 0.45222 0.19306 0.0
H1014 H 0.04985 0.47737 0.19735 0.0
H1015 H 0.98717 0.45494 0.16169 0.0
H1016 H 0.89028 0.5378 0.16864 0.0
H1017 H 0.91656 0.50205 0.17452 0.0
C1018 C 0.94077 0.92744 0.66897 0.0
C1019 C 0.9244 0.92787 0.68437 0.0
C1020 C 0.96252 0.94151 0.66919 0.0
C1021 C 0.98654 -0.0019 0.69069 0.0
H1022 H 0.04833 0.97929 0.66691 0.0
C1023 C 0.06711 0.0667 0.68607 0.0
C1024 C 0.07883 0.06859 0.66848 0.0
C1025 C 0.05157 0.0468 0.69011 0.0
C1026 C 0.03115 0.98485 0.67353 0.0
H1027 H 0.91893 0.94213 0.71256 0.0
H1028 H 0.95697 0.96641 0.713 0.0
H1029 H 0.0151 0.94892 0.67036 0.0
H1030 H 0.0844 0.05038 0.64168 0.0
H1031 H 0.05691 0.01585 0.64858 0.0
H1032 H 0.00206 0.0341 0.69337 0.0
C1033 C 0.95274 0.95558 0.70061 0.0
C1034 C 0.01214 0.96744 0.67552 0.0
C1035 C 0.931 0.94154 0.7004 0.0
C1036 C 0.07569 0.04945 0.65538 0.0
C1037 C 0.05997 0.02959 0.65937 0.0
C1038 C 0.00546 0.01545 0.68866 0.0
C1039 C 0.96839 0.9563 0.6848 0.0
C1040 C 0.98951 0.97395 0.68397 0.0
C1041 C 0.04719 0.02837 0.6766 0.0
C1042 C 0.02793 0.00915 0.6799 0.0
H1043 H 0.93628 0.9171 0.65639 0.0
H1044 H 0.97405 0.94176 0.65672 0.0
H1045 H 0.96918 0.00391 0.6969 0.0
H1046 H 0.06936 0.081 0.69657 0.0
H1047 H 0.04248 0.04617 0.70368 0.0
C1048 C 0.58788 0.53505 0.39786 0.0
C1049 C 0.58802 0.55381 0.38425 0.0
C1050 C 0.5719 0.51484 0.39606 0.0
C1051 C 0.51236 0.49885 0.37389 0.0
H1052 H 0.52737 0.43287 0.39118 0.0
C1053 C 0.43835 0.42305 0.37124 0.0
C1054 C 0.43556 0.40902 0.38772 0.0
C1055 C 0.45936 0.43772 0.36855 0.0
C1056 C 0.52288 0.45123 0.38636 0.0
H1057 H 0.57268 0.56522 0.35745 0.0
H1058 H 0.54524 0.52982 0.35415 0.0
H1059 H 0.56011 0.46408 0.39043 0.0
H1060 H 0.45337 0.39837 0.4138 0.0
H1061 H 0.4899 0.42418 0.40921 0.0
H1062 H 0.47513 0.48635 0.37021 0.0
C1063 C 0.557 0.53099 0.36646 0.0
C1064 C 0.54163 0.46911 0.38594 0.0
C1065 C 0.57287 0.55123 0.36829 0.0
C1066 C 0.45493 0.40893 0.40094 0.0
C1067 C 0.47594 0.42369 0.39828 0.0
C1068 C 0.49369 0.48103 0.37429 0.0
C1069 C 0.55579 0.5129 0.38057 0.0
C1070 C 0.53654 0.49321 0.37984 0.0
C1071 C 0.47807 0.4388 0.3823 0.0
C1072 C 0.49862 0.45705 0.38068 0.0
H1073 H 0.59929 0.53647 0.41034 0.0
H1074 H 0.57136 0.50137 0.40727 0.0
H1075 H 0.50758 0.51732 0.3695 0.0
H1076 H 0.4239 0.42338 0.36067 0.0
H1077 H 0.46065 0.44872 0.35589 0.0
C1078 C 0.08493 0.44987 0.89659 0.0
C1079 C 0.08508 0.42948 0.88441 0.0
C1080 C 0.06949 0.46997 0.89303 0.0
C1081 C 0.02896 0.49894 0.85684 0.0
H1082 H 0.99168 0.52077 0.90034 0.0
C1083 C 0.93399 0.54725 0.85193 0.0
C1084 C 0.92771 0.56487 0.8656 0.0
C1085 C 0.95654 0.53471 0.85291 0.0
C1086 C 0.00222 0.51531 0.88807 0.0
H1087 H 0.07009 0.41485 0.85838 0.0
H1088 H 0.04297 0.44969 0.85233 0.0
H1089 H 0.02533 0.49167 0.90439 0.0
H1090 H 0.94095 0.58424 0.89035 0.0
H1091 H 0.9804 0.56253 0.89192 0.0
H1092 H 0.0052 0.52211 0.84048 0.0
C1093 C 0.05494 0.4503 0.86455 0.0
C1094 C 0.02157 0.49857 0.8904 0.0
C1095 C 0.07042 0.43023 0.86808 0.0
C1096 C 0.9451 0.57064 0.87966 0.0
C1097 C 0.96766 0.55809 0.88064 0.0
C1098 C 0.00954 0.5157 0.85451 0.0
C1099 C 0.0538 0.47014 0.87724 0.0
C1100 C 0.03495 0.48986 0.87479 0.0
C1101 C 0.97337 0.5395 0.86757 0.0
C1102 C 0.99568 0.52378 0.87007 0.0
H1103 H 0.09614 0.45 0.90922 0.0
H1104 H 0.06943 0.48515 0.90291 0.0
H1105 H 0.03911 0.49288 0.84455 0.0
H1106 H 0.92106 0.54238 0.84088 0.0
H1107 H 0.96021 0.52039 0.84269 0.0
C1108 C 0.91305 0.9487 0.39981 0.0
C1109 C 0.91384 0.92973 0.38637 0.0
C1110 C 0.92771 0.96982 0.39766 0.0
C1111 C 0.98589 0.98879 0.37489 0.0
H1112 H 0.96721 0.05421 0.39134 0.0
C1113 C 0.05529 0.06868 0.37059 0.0
C1114 C 0.05724 0.08355 0.38671 0.0
C1115 C 0.03523 0.05262 0.36834 0.0
C1116 C 0.97273 0.03602 0.38677 0.0
H1117 H 0.92936 0.91885 0.35948 0.0
H1118 H 0.95451 0.95578 0.35559 0.0
H1119 H 0.93634 0.02115 0.39127 0.0
H1120 H 0.03894 0.0941 0.41264 0.0
H1121 H 0.00413 0.06583 0.40883 0.0
H1122 H 0.02231 0.00328 0.37082 0.0
C1123 C 0.94304 0.95411 0.36803 0.0
C1124 C 0.95504 0.01708 0.38672 0.0
C1125 C 0.92848 0.93299 0.3702 0.0
C1126 C 0.038 0.08293 0.40004 0.0
C1127 C 0.01797 0.06675 0.39782 0.0
C1128 C 0.00351 0.00764 0.37495 0.0
C1129 C 0.9434 0.97245 0.38199 0.0
C1130 C 0.96148 0.99318 0.38091 0.0
C1131 C 0.01669 0.05093 0.38218 0.0
C1132 C 0.99724 0.03146 0.38101 0.0
H1133 H 0.902 0.94678 0.41244 0.0
H1134 H 0.92763 0.98349 0.40875 0.0
H1135 H 0.99169 0.97051 0.37072 0.0
H1136 H 0.06966 0.06887 0.35996 0.0
H1137 H 0.03457 0.04109 0.35592 0.0
C1138 C 0.57385 0.94088 0.85172 0.0
C1139 C 0.58086 0.92709 0.86756 0.0
C1140 C 0.55203 0.9547 0.85186 0.0
C1141 C 0.49293 0.96544 0.87757 0.0
H1142 H 0.50146 0.03211 0.85923 0.0
C1143 C 0.42686 0.04562 0.89682 0.0
C1144 C 0.42295 0.06426 0.88344 0.0
C1145 C 0.44344 0.02642 0.89317 0.0
C1146 C 0.4985 0.01345 0.8641 0.0
H1147 H 0.56965 0.91595 0.89561 0.0
H1148 H 0.53171 0.94021 0.8959 0.0
H1149 H 0.53494 0.00273 0.85576 0.0
H1150 H 0.43227 0.07648 0.85527 0.0
H1151 H 0.46071 0.04281 0.84877 0.0
H1152 H 0.45654 0.97645 0.88623 0.0
C1153 C 0.54299 0.94023 0.8833 0.0
C1154 C 0.51778 0.99655 0.86211 0.0
C1155 C 0.56482 0.92636 0.88316 0.0
C1156 C 0.43501 0.06256 0.86597 0.0
C1157 C 0.45147 0.04333 0.86229 0.0
C1158 C 0.47356 0.98239 0.87953 0.0
C1159 C 0.53669 0.95511 0.86785 0.0
C1160 C 0.51534 0.97239 0.86894 0.0
C1161 C 0.4564 0.02536 0.87602 0.0
C1162 C 0.4762 0.00668 0.87295 0.0
H1163 H 0.58564 0.94171 0.83941 0.0
H1164 H 0.54748 0.96556 0.83958 0.0
H1165 H 0.49035 0.9469 0.88282 0.0
H1166 H 0.41791 0.04638 0.91044 0.0
H1167 H 0.4469 0.01305 0.90414 0.0
loop_
_geom_bond_atom_site_label_1
_geom_bond_atom_site_label_2
_geom_bond_distance
_geom_bond_site_symmetry_2
_ccdc_geom_bond_type
Mg0 O7 2.141 . S
Mg0 O8 2.048 . S
Mg0 O9 2.048 . S
Mg0 O12 2.141 . S
C1 O2 1.313 . S
C1 O8 1.195 . S
O2 C1 1.313 . S
C3 O4 1.245 . S
C3 O12 1.289 . S
O4 C3 1.245 . S
C5 O6 1.245 . S
C5 O7 1.289 . S
O6 C5 1.245 . S
O7 Mg0 2.141 . S
O7 C5 1.289 . S
O8 Mg0 2.048 . S
O8 C1 1.195 . S
O9 Mg0 2.048 . S
O9 C10 1.195 . S
C10 O9 1.195 . S
C10 O11 1.313 . S
O11 C10 1.313 . S
O12 Mg0 2.141 . S
O12 C3 1.289 . S
Mg13 O20 2.141 . S
Mg13 O21 2.048 . S
Mg13 O22 2.048 . S
Mg13 O25 2.141 . S
C14 O15 1.313 . S
C14 O21 1.195 . S
O15 C14 1.313 . S
C16 O17 1.245 . S
C16 O25 1.289 . S
O17 C16 1.245 . S
C18 O19 1.245 . S
C18 O20 1.289 . S
O19 C18 1.245 . S
O20 Mg13 2.141 . S
O20 C18 1.289 . S
O21 Mg13 2.048 . S
O21 C14 1.195 . S
O22 Mg13 2.048 . S
O22 C23 1.195 . S
C23 O22 1.195 . S
C23 O24 1.313 . S
O24 C23 1.313 . S
O25 Mg13 2.141 . S
O25 C16 1.289 . S
Mg26 O33 2.141 . S
Mg26 O34 2.048 . S
Mg26 O35 2.048 . S
Mg26 O38 2.141 . S
C27 O28 1.313 . S
C27 O34 1.195 . S
O28 C27 1.313 . S
C29 O30 1.245 . S
C29 O38 1.289 . S
O30 C29 1.245 . S
C31 O32 1.245 . S
C31 O33 1.289 . S
O32 C31 1.245 . S
O33 Mg26 2.141 . S
O33 C31 1.289 . S
O34 Mg26 2.048 . S
O34 C27 1.195 . S
O35 Mg26 2.048 . S
O35 C36 1.195 . S
C36 O35 1.195 . S
C36 O37 1.313 . S
O37 C36 1.313 . S
O38 Mg26 2.141 . S
O38 C29 1.289 . S
Mg39 O46 2.141 . S
Mg39 O47 2.048 . S
Mg39 O48 2.048 . S
Mg39 O51 2.141 . S
C40 O41 1.313 . S
C40 O47 1.195 . S
O41 C40 1.313 . S
C42 O43 1.245 . S
C42 O51 1.289 . S
O43 C42 1.245 . S
C44 O45 1.245 . S
C44 O46 1.289 . S
O45 C44 1.245 . S
O46 Mg39 2.141 . S
O46 C44 1.289 . S
O47 Mg39 2.048 . S
O47 C40 1.195 . S
O48 Mg39 2.048 . S
O48 C49 1.195 . S
C49 O48 1.195 . S
C49 O50 1.313 . S
O50 C49 1.313 . S
O51 Mg39 2.141 . S
O51 C42 1.289 . S
Mg52 O59 2.141 . S
Mg52 O60 2.048 . S
Mg52 O61 2.048 . S
Mg52 O64 2.141 . S
C53 O54 1.313 . S
C53 O60 1.195 . S
O54 C53 1.313 . S
C55 O56 1.245 . S
C55 O64 1.289 . S
O56 C55 1.245 . S
C57 O58 1.245 . S
C57 O59 1.289 . S
O58 C57 1.245 . S
O59 Mg52 2.141 . S
O59 C57 1.289 . S
O60 Mg52 2.048 . S
O60 C53 1.195 . S
O61 Mg52 2.048 . S
O61 C62 1.195 . S
C62 O61 1.195 . S
C62 O63 1.313 . S
O63 C62 1.313 . S
O64 Mg52 2.141 . S
O64 C55 1.289 . S
Mg65 O72 2.141 . S
Mg65 O73 2.048 . S
Mg65 O74 2.048 . S
Mg65 O77 2.141 . S
C66 O67 1.313 . S
C66 O73 1.195 . S
O67 C66 1.313 . S
C68 O69 1.245 . S
C68 O77 1.289 . S
O69 C68 1.245 . S
C70 O71 1.245 . S
C70 O72 1.289 . S
O71 C70 1.245 . S
O72 Mg65 2.141 . S
O72 C70 1.289 . S
O73 Mg65 2.048 . S
O73 C66 1.195 . S
O74 Mg65 2.048 . S
O74 C75 1.195 . S
C75 O74 1.195 . S
C75 O76 1.313 . S
O76 C75 1.313 . S
O77 Mg65 2.141 . S
O77 C68 1.289 . S
Mg78 O85 2.141 . S
Mg78 O86 2.048 . S
Mg78 O87 2.048 . S
Mg78 O90 2.141 . S
C79 O80 1.313 . S
C79 O86 1.195 . S
O80 C79 1.313 . S
C81 O82 1.245 . S
C81 O90 1.289 . S
O82 C81 1.245 . S
C83 O84 1.245 . S
C83 O85 1.289 . S
O84 C83 1.245 . S
O85 Mg78 2.141 . S
O85 C83 1.289 . S
O86 Mg78 2.048 . S
O86 C79 1.195 . S
O87 Mg78 2.048 . S
O87 C88 1.195 . S
C88 O87 1.195 . S
C88 O89 1.313 . S
O89 C88 1.313 . S
O90 Mg78 2.141 . S
O90 C81 1.289 . S
Mg91 O98 2.141 . S
Mg91 O99 2.048 . S
Mg91 O100 2.048 . S
Mg91 O103 2.141 . S
C92 O93 1.313 . S
C92 O99 1.195 . S
O93 C92 1.313 . S
C94 O95 1.245 . S
C94 O103 1.289 . S
O95 C94 1.245 . S
C96 O97 1.245 . S
C96 O98 1.289 . S
O97 C96 1.245 . S
O98 Mg91 2.141 . S
O98 C96 1.289 . S
O99 Mg91 2.048 . S
O99 C92 1.195 . S
O100 Mg91 2.048 . S
O100 C101 1.195 . S
C101 O100 1.195 . S
C101 O102 1.313 . S
O102 C101 1.313 . S
O103 Mg91 2.141 . S
O103 C94 1.289 . S
Mg104 O111 2.141 . S
Mg104 O112 2.048 . S
Mg104 O113 2.048 . S
Mg104 O116 2.141 . S
C105 O106 1.313 . S
C105 O112 1.195 . S
O106 C105 1.313 . S
C107 O108 1.245 . S
C107 O116 1.289 . S
O108 C107 1.245 . S
C109 O110 1.245 . S
C109 O111 1.289 . S
O110 C109 1.245 . S
O111 Mg104 2.141 . S
O111 C109 1.289 . S
O112 Mg104 2.048 . S
O112 C105 1.195 . S
O113 Mg104 2.048 . S
O113 C114 1.195 . S
C114 O113 1.195 . S
C114 O115 1.313 . S
O115 C114 1.313 . S
O116 Mg104 2.141 . S
O116 C107 1.289 . S
Mg117 O124 2.141 . S
Mg117 O125 2.048 . S
Mg117 O126 2.048 . S
Mg117 O129 2.141 . S
C118 O119 1.313 . S
C118 O125 1.195 . S
O119 C118 1.313 . S
C120 O121 1.245 . S
C120 O129 1.289 . S
O121 C120 1.245 . S
C122 O123 1.245 . S
C122 O124 1.289 . S
O123 C122 1.245 . S
O124 Mg117 2.141 . S
O124 C122 1.289 . S
O125 Mg117 2.048 . S
O125 C118 1.195 . S
O126 Mg117 2.048 . S
O126 C127 1.195 . S
C127 O126 1.195 . S
C127 O128 1.313 . S
O128 C127 1.313 . S
O129 Mg117 2.141 . S
O129 C120 1.289 . S
Mg130 O137 2.141 . S
Mg130 O138 2.048 . S
Mg130 O139 2.048 . S
Mg130 O142 2.141 . S
C131 O132 1.313 . S
C131 O138 1.195 . S
O132 C131 1.313 . S
C133 O134 1.245 . S
C133 O142 1.289 . S
O134 C133 1.245 . S
C135 O136 1.245 . S
C135 O137 1.289 . S
O136 C135 1.245 . S
O137 Mg130 2.141 . S
O137 C135 1.289 . S
O138 Mg130 2.048 . S
O138 C131 1.195 . S
O139 Mg130 2.048 . S
O139 C140 1.195 . S
C140 O139 1.195 . S
C140 O141 1.313 . S
O141 C140 1.313 . S
O142 Mg130 2.141 . S
O142 C133 1.289 . S
Mg143 O150 2.141 . S
Mg143 O151 2.048 . S
Mg143 O152 2.048 . S
Mg143 O155 2.141 . S
C144 O145 1.313 . S
C144 O151 1.195 . S
O145 C144 1.313 . S
C146 O147 1.245 . S
C146 O155 1.289 . S
O147 C146 1.245 . S
C148 O149 1.245 . S
C148 O150 1.289 . S
O149 C148 1.245 . S
O150 Mg143 2.141 . S
O150 C148 1.289 . S
O151 Mg143 2.048 . S
O151 C144 1.195 . S
O152 Mg143 2.048 . S
O152 C153 1.195 . S
C153 O152 1.195 . S
C153 O154 1.313 . S
O154 C153 1.313 . S
O155 Mg143 2.141 . S
O155 C146 1.289 . S
Mg156 O163 2.141 . S
Mg156 O164 2.048 . S
Mg156 O165 2.048 . S
Mg156 O168 2.141 . S
C157 O158 1.313 . S
C157 O164 1.195 . S
O158 C157 1.313 . S
C159 O160 1.245 . S
C159 O168 1.289 . S
O160 C159 1.245 . S
C161 O162 1.245 . S
C161 O163 1.289 . S
O162 C161 1.245 . S
O163 Mg156 2.141 . S
O163 C161 1.289 . S
O164 Mg156 2.048 . S
O164 C157 1.195 . S
O165 Mg156 2.048 . S
O165 C166 1.195 . S
C166 O165 1.195 . S
C166 O167 1.313 . S
O167 C166 1.313 . S
O168 Mg156 2.141 . S
O168 C159 1.289 . S
Mg169 O176 2.141 . S
Mg169 O177 2.048 . S
Mg169 O178 2.048 . S
Mg169 O181 2.141 . S
C170 O171 1.313 . S
C170 O177 1.195 . S
O171 C170 1.313 . S
C172 O173 1.245 . S
C172 O181 1.289 . S
O173 C172 1.245 . S
C174 O175 1.245 . S
C174 O176 1.289 . S
O175 C174 1.245 . S
O176 Mg169 2.141 . S
O176 C174 1.289 . S
O177 Mg169 2.048 . S
O177 C170 1.195 . S
O178 Mg169 2.048 . S
O178 C179 1.195 . S
C179 O178 1.195 . S
C179 O180 1.313 . S
O180 C179 1.313 . S
O181 Mg169 2.141 . S
O181 C172 1.289 . S
Mg182 O189 2.141 . S
Mg182 O190 2.048 . S
Mg182 O191 2.048 . S
Mg182 O194 2.141 . S
C183 O184 1.313 . S
C183 O190 1.195 . S
O184 C183 1.313 . S
C185 O186 1.245 . S
C185 O194 1.289 . S
O186 C185 1.245 . S
C187 O188 1.245 . S
C187 O189 1.289 . S
O188 C187 1.245 . S
O189 Mg182 2.141 . S
O189 C187 1.289 . S
O190 Mg182 2.048 . S
O190 C183 1.195 . S
O191 Mg182 2.048 . S
O191 C192 1.195 . S
C192 O191 1.195 . S
C192 O193 1.313 . S
O193 C192 1.313 . S
O194 Mg182 2.141 . S
O194 C185 1.289 . S
Mg195 O202 2.141 . S
Mg195 O203 2.048 . S
Mg195 O204 2.048 . S
Mg195 O207 2.141 . S
C196 O197 1.313 . S
C196 O203 1.195 . S
O197 C196 1.313 . S
C198 O199 1.245 . S
C198 O207 1.289 . S
O199 C198 1.245 . S
C200 O201 1.245 . S
C200 O202 1.289 . S
O201 C200 1.245 . S
O202 Mg195 2.141 . S
O202 C200 1.289 . S
O203 Mg195 2.048 . S
O203 C196 1.195 . S
O204 Mg195 2.048 . S
O204 C205 1.195 . S
C205 O204 1.195 . S
C205 O206 1.313 . S
O206 C205 1.313 . S
O207 Mg195 2.141 . S
O207 C198 1.289 . S
C208 C209 1.349 . S
C208 C210 1.327 . S
C208 H233 0.950 . S
C209 C208 1.349 . S
C209 C225 1.349 . S
C210 C208 1.327 . S
C210 C229 1.429 . S
C210 H234 0.950 . S
C211 C228 1.574 1_556 S
C211 C230 1.368 . S
C211 H235 0.949 . S
H212 C216 0.949 . S
C213 C214 1.349 . S
C213 C215 1.327 . S
C213 H236 0.950 . S
C214 C213 1.349 . S
C214 C226 1.349 . S
C215 C213 1.327 . S
C215 C231 1.429 . S
C215 H237 0.950 . S
C216 H212 0.949 . S
C216 C224 1.574 1_554 S
C216 C232 1.368 . S
H217 C225 0.950 . S
H218 C223 0.950 . S
H219 C224 0.949 . S
H220 C226 0.950 . S
H221 C227 0.950 . S
H222 C228 0.949 . S
C223 H218 0.950 . S
C223 C225 1.327 . S
C223 C229 1.429 . S
C224 C216 1.574 1_556 S
C224 H219 0.949 . S
C224 C230 1.368 . S
C225 C209 1.349 . S
C225 H217 0.950 . S
C225 C223 1.327 . S
C226 C214 1.349 . S
C226 H220 0.950 . S
C226 C227 1.327 . S
C227 H221 0.950 . S
C227 C226 1.327 . S
C227 C231 1.429 . S
C228 C211 1.574 1_554 S
C228 H222 0.949 . S
C228 C232 1.368 . S
C229 C210 1.429 . S
C229 C223 1.429 . S
C229 C230 1.523 . S
C230 C211 1.368 . S
C230 C224 1.368 . S
C230 C229 1.523 . S
C231 C215 1.429 . S
C231 C227 1.429 . S
C231 C232 1.523 . S
C232 C216 1.368 . S
C232 C228 1.368 . S
C232 C231 1.523 . S
H233 C208 0.950 . S
H234 C210 0.950 . S
H235 C211 0.949 . S
H236 C213 0.950 . S
H237 C215 0.950 . S
C238 C239 1.349 . S
C238 C240 1.327 . S
C238 H263 0.950 . S
C239 C238 1.349 . S
C239 C255 1.349 . S
C240 C238 1.327 . S
C240 C259 1.429 . S
C240 H264 0.950 . S
C241 C258 1.574 . S
C241 C260 1.368 . S
C241 H265 0.949 . S
H242 C246 0.949 . S
C243 C244 1.349 . S
C243 C245 1.327 . S
C243 H266 0.950 . S
C244 C243 1.349 . S
C244 C256 1.349 . S
C245 C243 1.327 . S
C245 C261 1.429 . S
C245 H267 0.950 . S
C246 H242 0.949 . S
C246 C254 1.574 . S
C246 C262 1.368 . S
H247 C255 0.950 . S
H248 C253 0.950 . S
H249 C254 0.949 . S
H250 C256 0.950 . S
H251 C257 0.950 . S
H252 C258 0.949 . S
C253 H248 0.950 . S
C253 C255 1.327 . S
C253 C259 1.429 . S
C254 C246 1.574 . S
C254 H249 0.949 . S
C254 C260 1.368 . S
C255 C239 1.349 . S
C255 H247 0.950 . S
C255 C253 1.327 . S
C256 C244 1.349 . S
C256 H250 0.950 . S
C256 C257 1.327 . S
C257 H251 0.950 . S
C257 C256 1.327 . S
C257 C261 1.429 . S
C258 C241 1.574 . S
C258 H252 0.949 . S
C258 C262 1.368 . S
C259 C240 1.429 . S
C259 C253 1.429 . S
C259 C260 1.523 . S
C260 C241 1.368 . S
C260 C254 1.368 . S
C260 C259 1.523 . S
C261 C245 1.429 . S
C261 C257 1.429 . S
C261 C262 1.523 . S
C262 C246 1.368 . S
C262 C258 1.368 . S
C262 C261 1.523 . S
H263 C238 0.950 . S
H264 C240 0.950 . S
H265 C241 0.949 . S
H266 C243 0.950 . S
H267 C245 0.950 . S
C268 C269 1.349 . S
C268 C270 1.327 . S
C268 H293 0.950 . S
C269 C268 1.349 . S
C269 C285 1.349 . S
C270 C268 1.327 . S
C270 C289 1.429 . S
C270 H294 0.950 . S
C271 C288 1.574 1_556 S
C271 C290 1.368 . S
C271 H295 0.949 . S
H272 C276 0.949 . S
C273 C274 1.349 . S
C273 C275 1.327 . S
C273 H296 0.950 . S
C274 C273 1.349 . S
C274 C286 1.349 . S
C275 C273 1.327 . S
C275 C291 1.429 . S
C275 H297 0.950 . S
C276 H272 0.949 . S
C276 C284 1.574 1_554 S
C276 C292 1.368 . S
H277 C285 0.950 . S
H278 C283 0.950 . S
H279 C284 0.949 . S
H280 C286 0.950 . S
H281 C287 0.950 . S
H282 C288 0.949 . S
C283 H278 0.950 . S
C283 C285 1.327 . S
C283 C289 1.429 . S
C284 C276 1.574 1_556 S
C284 H279 0.949 . S
C284 C290 1.368 . S
C285 C269 1.349 . S
C285 H277 0.950 . S
C285 C283 1.327 . S
C286 C274 1.349 . S
C286 H280 0.950 . S
C286 C287 1.327 . S
C287 H281 0.950 . S
C287 C286 1.327 . S
C287 C291 1.429 . S
C288 C271 1.574 1_554 S
C288 H282 0.949 . S
C288 C292 1.368 . S
C289 C270 1.429 . S
C289 C283 1.429 . S
C289 C290 1.523 . S
C290 C271 1.368 . S
C290 C284 1.368 . S
C290 C289 1.523 . S
C291 C275 1.429 . S
C291 C287 1.429 . S
C291 C292 1.523 . S
C292 C276 1.368 . S
C292 C288 1.368 . S
C292 C291 1.523 . S
H293 C268 0.950 . S
H294 C270 0.950 . S
H295 C271 0.949 . S
H296 C273 0.950 . S
H297 C275 0.950 . S
C298 C299 1.349 . S
C298 C300 1.327 . S
C298 H323 0.950 . S
C299 C298 1.349 . S
C299 C315 1.349 . S
C300 C298 1.327 . S
C300 C319 1.429 . S
C300 H324 0.950 . S
C301 C318 1.574 . S
C301 C320 1.368 . S
C301 H325 0.949 . S
H302 C306 0.949 . S
C303 C304 1.349 . S
C303 C305 1.327 . S
C303 H326 0.950 . S
C304 C303 1.349 . S
C304 C316 1.349 . S
C305 C303 1.327 . S
C305 C321 1.429 . S
C305 H327 0.950 . S
C306 H302 0.949 . S
C306 C314 1.574 . S
C306 C322 1.368 . S
H307 C315 0.950 . S
H308 C313 0.950 . S
H309 C314 0.949 . S
H310 C316 0.950 . S
H311 C317 0.950 . S
H312 C318 0.949 . S
C313 H308 0.950 . S
C313 C315 1.327 . S
C313 C319 1.429 . S
C314 C306 1.574 . S
C314 H309 0.949 . S
C314 C320 1.368 . S
C315 C299 1.349 . S
C315 H307 0.950 . S
C315 C313 1.327 . S
C316 C304 1.349 . S
C316 H310 0.950 . S
C316 C317 1.327 . S
C317 H311 0.950 . S
C317 C316 1.327 . S
C317 C321 1.429 . S
C318 C301 1.574 . S
C318 H312 0.949 . S
C318 C322 1.368 . S
C319 C300 1.429 . S
C319 C313 1.429 . S
C319 C320 1.523 . S
C320 C301 1.368 . S
C320 C314 1.368 . S
C320 C319 1.523 . S
C321 C305 1.429 . S
C321 C317 1.429 . S
C321 C322 1.523 . S
C322 C306 1.368 . S
C322 C318 1.368 . S
C322 C321 1.523 . S
H323 C298 0.950 . S
H324 C300 0.950 . S
H325 C301 0.949 . S
H326 C303 0.950 . S
H327 C305 0.950 . S
C328 C329 1.349 . S
C328 C330 1.327 . S
C328 H353 0.950 . S
C329 C328 1.349 . S
C329 C345 1.349 . S
C330 C328 1.327 . S
C330 C349 1.429 . S
C330 H354 0.950 . S
C331 C348 1.574 1_554 S
C331 C350 1.368 . S
C331 H355 0.949 . S
H332 C336 0.949 . S
C333 C334 1.349 . S
C333 C335 1.327 . S
C333 H356 0.950 . S
C334 C333 1.349 . S
C334 C346 1.349 . S
C335 C333 1.327 . S
C335 C351 1.429 . S
C335 H357 0.950 . S
C336 H332 0.949 . S
C336 C344 1.574 1_556 S
C336 C352 1.368 . S
H337 C345 0.950 . S
H338 C343 0.950 . S
H339 C344 0.949 . S
H340 C346 0.950 . S
H341 C347 0.950 . S
H342 C348 0.949 . S
C343 H338 0.950 . S
C343 C345 1.327 . S
C343 C349 1.429 . S
C344 C336 1.574 1_554 S
C344 H339 0.949 . S
C344 C350 1.368 . S
C345 C329 1.349 . S
C345 H337 0.950 . S
C345 C343 1.327 . S
C346 C334 1.349 . S
C346 H340 0.950 . S
C346 C347 1.327 . S
C347 H341 0.950 . S
C347 C346 1.327 . S
C347 C351 1.429 . S
C348 C331 1.574 1_556 S
C348 H342 0.949 . S
C348 C352 1.368 . S
C349 C330 1.429 . S
C349 C343 1.429 . S
C349 C350 1.523 . S
C350 C331 1.368 . S
C350 C344 1.368 . S
C350 C349 1.523 . S
C351 C335 1.429 . S
C351 C347 1.429 . S
C351 C352 1.523 . S
C352 C336 1.368 . S
C352 C348 1.368 . S
C352 C351 1.523 . S
H353 C328 0.950 . S
H354 C330 0.950 . S
H355 C331 0.949 . S
H356 C333 0.950 . S
H357 C335 0.950 . S
C358 C359 1.349 . S
C358 C360 1.327 . S
C358 H383 0.950 . S
C359 C358 1.349 . S
C359 C375 1.349 . S
C360 C358 1.327 . S
C360 C379 1.429 . S
C360 H384 0.950 . S
C361 C378 1.574 . S
C361 C380 1.368 . S
C361 H385 0.949 . S
H362 C366 0.949 . S
C363 C364 1.349 . S
C363 C365 1.327 . S
C363 H386 0.950 . S
C364 C363 1.349 . S
C364 C376 1.349 . S
C365 C363 1.327 . S
C365 C381 1.429 . S
C365 H387 0.950 . S
C366 H362 0.949 . S
C366 C374 1.574 . S
C366 C382 1.368 . S
H367 C375 0.950 . S
H368 C373 0.950 . S
H369 C374 0.949 . S
H370 C376 0.950 . S
H371 C377 0.950 . S
H372 C378 0.949 . S
C373 H368 0.950 . S
C373 C375 1.327 . S
C373 C379 1.429 . S
C374 C366 1.574 . S
C374 H369 0.949 . S
C374 C380 1.368 . S
C375 C359 1.349 . S
C375 H367 0.950 . S
C375 C373 1.327 . S
C376 C364 1.349 . S
C376 H370 0.950 . S
C376 C377 1.327 . S
C377 H371 0.950 . S
C377 C376 1.327 . S
C377 C381 1.429 . S
C378 C361 1.574 . S
C378 H372 0.949 . S
C378 C382 1.368 . S
C379 C360 1.429 . S
C379 C373 1.429 . S
C379 C380 1.523 . S
C380 C361 1.368 . S
C380 C374 1.368 . S
C380 C379 1.523 . S
C381 C365 1.429 . S
C381 C377 1.429 . S
C381 C382 1.523 . S
C382 C366 1.368 . S
C382 C378 1.368 . S
C382 C381 1.523 . S
H383 C358 0.950 . S
H384 C360 0.950 . S
H385 C361 0.949 . S
H386 C363 0.950 . S
H387 C365 0.950 . S
C388 C389 1.349 . S
C388 C390 1.327 . S
C388 H413 0.950 . S
C389 C388 1.349 . S
C389 C405 1.349 . S
C390 C388 1.327 . S
C390 C409 1.429 . S
C390 H414 0.950 . S
C391 C408 1.574 1_556 S
C391 C410 1.368 . S
C391 H415 0.949 . S
H392 C396 0.949 . S
C393 C394 1.349 . S
C393 C395 1.327 . S
C393 H416 0.950 . S
C394 C393 1.349 . S
C394 C406 1.349 . S
C395 C393 1.327 . S
C395 C411 1.429 . S
C395 H417 0.950 . S
C396 H392 0.949 . S
C396 C404 1.574 1_554 S
C396 C412 1.368 . S
H397 C405 0.950 . S
H398 C403 0.950 . S
H399 C404 0.949 . S
H400 C406 0.950 . S
H401 C407 0.950 . S
H402 C408 0.949 . S
C403 H398 0.950 . S
C403 C405 1.327 . S
C403 C409 1.429 . S
C404 C396 1.574 1_556 S
C404 H399 0.949 . S
C404 C410 1.368 . S
C405 C389 1.349 . S
C405 H397 0.950 . S
C405 C403 1.327 . S
C406 C394 1.349 . S
C406 H400 0.950 . S
C406 C407 1.327 . S
C407 H401 0.950 . S
C407 C406 1.327 . S
C407 C411 1.429 . S
C408 C391 1.574 1_554 S
C408 H402 0.949 . S
C408 C412 1.368 . S
C409 C390 1.429 . S
C409 C403 1.429 . S
C409 C410 1.523 . S
C410 C391 1.368 . S
C410 C404 1.368 . S
C410 C409 1.523 . S
C411 C395 1.429 . S
C411 C407 1.429 . S
C411 C412 1.523 . S
C412 C396 1.368 . S
C412 C408 1.368 . S
C412 C411 1.523 . S
H413 C388 0.950 . S
H414 C390 0.950 . S
H415 C391 0.949 . S
H416 C393 0.950 . S
H417 C395 0.950 . S
C418 C419 1.349 . S
C418 C420 1.327 . S
C418 H443 0.950 . S
C419 C418 1.349 . S
C419 C435 1.349 . S
C420 C418 1.327 . S
C420 C439 1.429 . S
C420 H444 0.950 . S
C421 C438 1.574 . S
C421 C440 1.368 . S
C421 H445 0.949 . S
H422 C426 0.949 . S
C423 C424 1.349 . S
C423 C425 1.327 . S
C423 H446 0.950 . S
C424 C423 1.349 . S
C424 C436 1.349 . S
C425 C423 1.327 . S
C425 C441 1.429 . S
C425 H447 0.950 . S
C426 H422 0.949 . S
C426 C434 1.574 . S
C426 C442 1.368 . S
H427 C435 0.950 . S
H428 C433 0.950 . S
H429 C434 0.949 . S
H430 C436 0.950 . S
H431 C437 0.950 . S
H432 C438 0.949 . S
C433 H428 0.950 . S
C433 C435 1.327 . S
C433 C439 1.429 . S
C434 C426 1.574 . S
C434 H429 0.949 . S
C434 C440 1.368 . S
C435 C419 1.349 . S
C435 H427 0.950 . S
C435 C433 1.327 . S
C436 C424 1.349 . S
C436 H430 0.950 . S
C436 C437 1.327 . S
C437 H431 0.950 . S
C437 C436 1.327 . S
C437 C441 1.429 . S
C438 C421 1.574 . S
C438 H432 0.949 . S
C438 C442 1.368 . S
C439 C420 1.429 . S
C439 C433 1.429 . S
C439 C440 1.523 . S
C440 C421 1.368 . S
C440 C434 1.368 . S
C440 C439 1.523 . S
C441 C425 1.429 . S
C441 C437 1.429 . S
C441 C442 1.523 . S
C442 C426 1.368 . S
C442 C438 1.368 . S
C442 C441 1.523 . S
H443 C418 0.950 . S
H444 C420 0.950 . S
H445 C421 0.949 . S
H446 C423 0.950 . S
H447 C425 0.950 . S
C448 C449 1.349 . S
C448 C450 1.327 . S
C448 H473 0.950 . S
C449 C448 1.349 . S
C449 C465 1.349 . S
C450 C448 1.327 . S
C450 C469 1.429 . S
C450 H474 0.950 . S
C451 C468 1.574 . S
C451 C470 1.368 . S
C451 H475 0.949 . S
H452 C456 0.949 . S
C453 C454 1.349 . S
C453 C455 1.327 . S
C453 H476 0.950 . S
C454 C453 1.349 . S
C454 C466 1.349 . S
C455 C453 1.327 . S
C455 C471 1.429 . S
C455 H477 0.950 . S
C456 H452 0.949 . S
C456 C464 1.574 . S
C456 C472 1.368 . S
H457 C465 0.950 . S
H458 C463 0.950 . S
H459 C464 0.949 . S
H460 C466 0.950 . S
H461 C467 0.950 . S
H462 C468 0.949 . S
C463 H458 0.950 . S
C463 C465 1.327 . S
C463 C469 1.429 . S
C464 C456 1.574 . S
C464 H459 0.949 . S
C464 C470 1.368 . S
C465 C449 1.349 . S
C465 H457 0.950 . S
C465 C463 1.327 . S
C466 C454 1.349 . S
C466 H460 0.950 . S
C466 C467 1.327 . S
C467 H461 0.950 . S
C467 C466 1.327 . S
C467 C471 1.429 . S
C468 C451 1.574 . S
C468 H462 0.949 . S
C468 C472 1.368 . S
C469 C450 1.429 . S
C469 C463 1.429 . S
C469 C470 1.523 . S
C470 C451 1.368 . S
C470 C464 1.368 . S
C470 C469 1.523 . S
C471 C455 1.429 . S
C471 C467 1.429 . S
C471 C472 1.523 . S
C472 C456 1.368 . S
C472 C468 1.368 . S
C472 C471 1.523 . S
H473 C448 0.950 . S
H474 C450 0.950 . S
H475 C451 0.949 . S
H476 C453 0.950 . S
H477 C455 0.950 . S
C478 C479 1.349 . S
C478 C480 1.327 . S
C478 H503 0.950 . S
C479 C478 1.349 . S
C479 C495 1.349 . S
C480 C478 1.327 . S
C480 C499 1.429 . S
C480 H504 0.950 . S
C481 C498 1.574 . S
C481 C500 1.368 . S
C481 H505 0.949 . S
H482 C486 0.949 . S
C483 C484 1.349 . S
C483 C485 1.327 . S
C483 H506 0.950 . S
C484 C483 1.349 . S
C484 C496 1.349 . S
C485 C483 1.327 . S
C485 C501 1.429 . S
C485 H507 0.950 . S
C486 H482 0.949 . S
C486 C494 1.574 . S
C486 C502 1.368 . S
H487 C495 0.950 . S
H488 C493 0.950 . S
H489 C494 0.949 . S
H490 C496 0.950 . S
H491 C497 0.950 . S
H492 C498 0.949 . S
C493 H488 0.950 . S
C493 C495 1.327 . S
C493 C499 1.429 . S
C494 C486 1.574 . S
C494 H489 0.949 . S
C494 C500 1.368 . S
C495 C479 1.349 . S
C495 H487 0.950 . S
C495 C493 1.327 . S
C496 C484 1.349 . S
C496 H490 0.950 . S
C496 C497 1.327 . S
C497 H491 0.950 . S
C497 C496 1.327 . S
C497 C501 1.429 . S
C498 C481 1.574 . S
C498 H492 0.949 . S
C498 C502 1.368 . S
C499 C480 1.429 . S
C499 C493 1.429 . S
C499 C500 1.523 . S
C500 C481 1.368 . S
C500 C494 1.368 . S
C500 C499 1.523 . S
C501 C485 1.429 . S
C501 C497 1.429 . S
C501 C502 1.523 . S
C502 C486 1.368 . S
C502 C498 1.368 . S
C502 C501 1.523 . S
H503 C478 0.950 . S
H504 C480 0.950 . S
H505 C481 0.949 . S
H506 C483 0.950 . S
H507 C485 0.950 . S
C508 C509 1.349 . S
C508 C510 1.327 . S
C508 H533 0.950 . S
C509 C508 1.349 . S
C509 C525 1.349 . S
C510 C508 1.327 . S
C510 C529 1.429 . S
C510 H534 0.950 . S
C511 C528 1.574 . S
C511 C530 1.368 . S
C511 H535 0.949 . S
H512 C516 0.949 . S
C513 C514 1.349 . S
C513 C515 1.327 . S
C513 H536 0.950 . S
C514 C513 1.349 . S
C514 C526 1.349 . S
C515 C513 1.327 . S
C515 C531 1.429 . S
C515 H537 0.950 . S
C516 H512 0.949 . S
C516 C524 1.574 . S
C516 C532 1.368 . S
H517 C525 0.950 . S
H518 C523 0.950 . S
H519 C524 0.949 . S
H520 C526 0.950 . S
H521 C527 0.950 . S
H522 C528 0.949 . S
C523 H518 0.950 . S
C523 C525 1.327 . S
C523 C529 1.429 . S
C524 C516 1.574 . S
C524 H519 0.949 . S
C524 C530 1.368 . S
C525 C509 1.349 . S
C525 H517 0.950 . S
C525 C523 1.327 . S
C526 C514 1.349 . S
C526 H520 0.950 . S
C526 C527 1.327 . S
C527 H521 0.950 . S
C527 C526 1.327 . S
C527 C531 1.429 . S
C528 C511 1.574 . S
C528 H522 0.949 . S
C528 C532 1.368 . S
C529 C510 1.429 . S
C529 C523 1.429 . S
C529 C530 1.523 . S
C530 C511 1.368 . S
C530 C524 1.368 . S
C530 C529 1.523 . S
C531 C515 1.429 . S
C531 C527 1.429 . S
C531 C532 1.523 . S
C532 C516 1.368 . S
C532 C528 1.368 . S
C532 C531 1.523 . S
H533 C508 0.950 . S
H534 C510 0.950 . S
H535 C511 0.949 . S
H536 C513 0.950 . S
H537 C515 0.950 . S
C538 C539 1.349 . S
C538 C540 1.327 . S
C538 H563 0.950 . S
C539 C538 1.349 . S
C539 C555 1.349 . S
C540 C538 1.327 . S
C540 C559 1.429 . S
C540 H564 0.950 . S
C541 C558 1.574 . S
C541 C560 1.368 . S
C541 H565 0.949 . S
H542 C546 0.949 . S
C543 C544 1.349 . S
C543 C545 1.327 . S
C543 H566 0.950 . S
C544 C543 1.349 . S
C544 C556 1.349 . S
C545 C543 1.327 . S
C545 C561 1.429 . S
C545 H567 0.950 . S
C546 H542 0.949 . S
C546 C554 1.574 . S
C546 C562 1.368 . S
H547 C555 0.950 . S
H548 C553 0.950 . S
H549 C554 0.949 . S
H550 C556 0.950 . S
H551 C557 0.950 . S
H552 C558 0.949 . S
C553 H548 0.950 . S
C553 C555 1.327 . S
C553 C559 1.429 . S
C554 C546 1.574 . S
C554 H549 0.949 . S
C554 C560 1.368 . S
C555 C539 1.349 . S
C555 H547 0.950 . S
C555 C553 1.327 . S
C556 C544 1.349 . S
C556 H550 0.950 . S
C556 C557 1.327 . S
C557 H551 0.950 . S
C557 C556 1.327 . S
C557 C561 1.429 . S
C558 C541 1.574 . S
C558 H552 0.949 . S
C558 C562 1.368 . S
C559 C540 1.429 . S
C559 C553 1.429 . S
C559 C560 1.523 . S
C560 C541 1.368 . S
C560 C554 1.368 . S
C560 C559 1.523 . S
C561 C545 1.429 . S
C561 C557 1.429 . S
C561 C562 1.523 . S
C562 C546 1.368 . S
C562 C558 1.368 . S
C562 C561 1.523 . S
H563 C538 0.950 . S
H564 C540 0.950 . S
H565 C541 0.949 . S
H566 C543 0.950 . S
H567 C545 0.950 . S
C568 C569 1.349 . S
C568 C570 1.327 . S
C568 H593 0.950 . S
C569 C568 1.349 . S
C569 C585 1.349 . S
C570 C568 1.327 . S
C570 C589 1.429 . S
C570 H594 0.950 . S
C571 C588 1.574 . S
C571 C590 1.368 . S
C571 H595 0.949 . S
H572 C576 0.949 . S
C573 C574 1.349 . S
C573 C575 1.327 . S
C573 H596 0.950 . S
C574 C573 1.349 . S
C574 C586 1.349 . S
C575 C573 1.327 . S
C575 C591 1.429 . S
C575 H597 0.950 . S
C576 H572 0.949 . S
C576 C584 1.574 . S
C576 C592 1.368 . S
H577 C585 0.950 . S
H578 C583 0.950 . S
H579 C584 0.949 . S
H580 C586 0.950 . S
H581 C587 0.950 . S
H582 C588 0.949 . S
C583 H578 0.950 . S
C583 C585 1.327 . S
C583 C589 1.429 . S
C584 C576 1.574 . S
C584 H579 0.949 . S
C584 C590 1.368 . S
C585 C569 1.349 . S
C585 H577 0.950 . S
C585 C583 1.327 . S
C586 C574 1.349 . S
C586 H580 0.950 . S
C586 C587 1.327 . S
C587 H581 0.950 . S
C587 C586 1.327 . S
C587 C591 1.429 . S
C588 C571 1.574 . S
C588 H582 0.949 . S
C588 C592 1.368 . S
C589 C570 1.429 . S
C589 C583 1.429 . S
C589 C590 1.523 . S
C590 C571 1.368 . S
C590 C584 1.368 . S
C590 C589 1.523 . S
C591 C575 1.429 . S
C591 C587 1.429 . S
C591 C592 1.523 . S
C592 C576 1.368 . S
C592 C588 1.368 . S
C592 C591 1.523 . S
H593 C568 0.950 . S
H594 C570 0.950 . S
H595 C571 0.949 . S
H596 C573 0.950 . S
H597 C575 0.950 . S
C598 C599 1.349 . S
C598 C600 1.327 . S
C598 H623 0.950 . S
C599 C598 1.349 . S
C599 C615 1.349 . S
C600 C598 1.327 . S
C600 C619 1.429 . S
C600 H624 0.950 . S
C601 C618 1.574 . S
C601 C620 1.368 . S
C601 H625 0.949 . S
H602 C606 0.949 . S
C603 C604 1.349 . S
C603 C605 1.327 . S
C603 H626 0.950 . S
C604 C603 1.349 . S
C604 C616 1.349 . S
C605 C603 1.327 . S
C605 C621 1.429 . S
C605 H627 0.950 . S
C606 H602 0.949 . S
C606 C614 1.574 . S
C606 C622 1.368 . S
H607 C615 0.950 . S
H608 C613 0.950 . S
H609 C614 0.949 . S
H610 C616 0.950 . S
H611 C617 0.950 . S
H612 C618 0.949 . S
C613 H608 0.950 . S
C613 C615 1.327 . S
C613 C619 1.429 . S
C614 C606 1.574 . S
C614 H609 0.949 . S
C614 C620 1.368 . S
C615 C599 1.349 . S
C615 H607 0.950 . S
C615 C613 1.327 . S
C616 C604 1.349 . S
C616 H610 0.950 . S
C616 C617 1.327 . S
C617 H611 0.950 . S
C617 C616 1.327 . S
C617 C621 1.429 . S
C618 C601 1.574 . S
C618 H612 0.949 . S
C618 C622 1.368 . S
C619 C600 1.429 . S
C619 C613 1.429 . S
C619 C620 1.523 . S
C620 C601 1.368 . S
C620 C614 1.368 . S
C620 C619 1.523 . S
C621 C605 1.429 . S
C621 C617 1.429 . S
C621 C622 1.523 . S
C622 C606 1.368 . S
C622 C618 1.368 . S
C622 C621 1.523 . S
H623 C598 0.950 . S
H624 C600 0.950 . S
H625 C601 0.949 . S
H626 C603 0.950 . S
H627 C605 0.950 . S
C628 C629 1.349 . S
C628 C630 1.327 . S
C628 H653 0.950 . S
C629 C628 1.349 . S
C629 C645 1.349 . S
C630 C628 1.327 . S
C630 C649 1.429 . S
C630 H654 0.950 . S
C631 C648 1.574 . S
C631 C650 1.368 . S
C631 H655 0.949 . S
H632 C636 0.949 . S
C633 C634 1.349 . S
C633 C635 1.327 . S
C633 H656 0.950 . S
C634 C633 1.349 . S
C634 C646 1.349 . S
C635 C633 1.327 . S
C635 C651 1.429 . S
C635 H657 0.950 . S
C636 H632 0.949 . S
C636 C644 1.574 . S
C636 C652 1.368 . S
H637 C645 0.950 . S
H638 C643 0.950 . S
H639 C644 0.949 . S
H640 C646 0.950 . S
H641 C647 0.950 . S
H642 C648 0.949 . S
C643 H638 0.950 . S
C643 C645 1.327 . S
C643 C649 1.429 . S
C644 C636 1.574 . S
C644 H639 0.949 . S
C644 C650 1.368 . S
C645 C629 1.349 . S
C645 H637 0.950 . S
C645 C643 1.327 . S
C646 C634 1.349 . S
C646 H640 0.950 . S
C646 C647 1.327 . S
C647 H641 0.950 . S
C647 C646 1.327 . S
C647 C651 1.429 . S
C648 C631 1.574 . S
C648 H642 0.949 . S
C648 C652 1.368 . S
C649 C630 1.429 . S
C649 C643 1.429 . S
C649 C650 1.523 . S
C650 C631 1.368 . S
C650 C644 1.368 . S
C650 C649 1.523 . S
C651 C635 1.429 . S
C651 C647 1.429 . S
C651 C652 1.523 . S
C652 C636 1.368 . S
C652 C648 1.368 . S
C652 C651 1.523 . S
H653 C628 0.950 . S
H654 C630 0.950 . S
H655 C631 0.949 . S
H656 C633 0.950 . S
H657 C635 0.950 . S
C658 C659 1.349 . S
C658 C660 1.327 . S
C658 H683 0.950 . S
C659 C658 1.349 . S
C659 C675 1.349 . S
C660 C658 1.327 . S
C660 C679 1.429 . S
C660 H684 0.950 . S
C661 C678 1.574 . S
C661 C680 1.368 . S
C661 H685 0.949 . S
H662 C666 0.949 . S
C663 C664 1.349 . S
C663 C665 1.327 . S
C663 H686 0.950 . S
C664 C663 1.349 . S
C664 C676 1.349 . S
C665 C663 1.327 . S
C665 C681 1.429 . S
C665 H687 0.950 . S
C666 H662 0.949 . S
C666 C674 1.574 . S
C666 C682 1.368 . S
H667 C675 0.950 . S
H668 C673 0.950 . S
H669 C674 0.949 . S
H670 C676 0.950 . S
H671 C677 0.950 . S
H672 C678 0.949 . S
C673 H668 0.950 . S
C673 C675 1.327 . S
C673 C679 1.429 . S
C674 C666 1.574 . S
C674 H669 0.949 . S
C674 C680 1.368 . S
C675 C659 1.349 . S
C675 H667 0.950 . S
C675 C673 1.327 . S
C676 C664 1.349 . S
C676 H670 0.950 . S
C676 C677 1.327 . S
C677 H671 0.950 . S
C677 C676 1.327 . S
C677 C681 1.429 . S
C678 C661 1.574 . S
C678 H672 0.949 . S
C678 C682 1.368 . S
C679 C660 1.429 . S
C679 C673 1.429 . S
C679 C680 1.523 . S
C680 C661 1.368 . S
C680 C674 1.368 . S
C680 C679 1.523 . S
C681 C665 1.429 . S
C681 C677 1.429 . S
C681 C682 1.523 . S
C682 C666 1.368 . S
C682 C678 1.368 . S
C682 C681 1.523 . S
H683 C658 0.950 . S
H684 C660 0.950 . S
H685 C661 0.949 . S
H686 C663 0.950 . S
H687 C665 0.950 . S
C688 C689 1.349 . S
C688 C690 1.327 . S
C688 H713 0.950 . S
C689 C688 1.349 . S
C689 C705 1.349 . S
C690 C688 1.327 . S
C690 C709 1.429 . S
C690 H714 0.950 . S
C691 C708 1.574 . S
C691 C710 1.368 . S
C691 H715 0.949 . S
H692 C696 0.949 . S
C693 C694 1.349 . S
C693 C695 1.327 . S
C693 H716 0.950 . S
C694 C693 1.349 . S
C694 C706 1.349 . S
C695 C693 1.327 . S
C695 C711 1.429 . S
C695 H717 0.950 . S
C696 H692 0.949 . S
C696 C704 1.574 . S
C696 C712 1.368 . S
H697 C705 0.950 . S
H698 C703 0.950 . S
H699 C704 0.949 . S
H700 C706 0.950 . S
H701 C707 0.950 . S
H702 C708 0.949 . S
C703 H698 0.950 . S
C703 C705 1.327 . S
C703 C709 1.429 . S
C704 C696 1.574 . S
C704 H699 0.949 . S
C704 C710 1.368 . S
C705 C689 1.349 . S
C705 H697 0.950 . S
C705 C703 1.327 . S
C706 C694 1.349 . S
C706 H700 0.950 . S
C706 C707 1.327 . S
C707 H701 0.950 . S
C707 C706 1.327 . S
C707 C711 1.429 . S
C708 C691 1.574 . S
C708 H702 0.949 . S
C708 C712 1.368 . S
C709 C690 1.429 . S
C709 C703 1.429 . S
C709 C710 1.523 . S
C710 C691 1.368 . S
C710 C704 1.368 . S
C710 C709 1.523 . S
C711 C695 1.429 . S
C711 C707 1.429 . S
C711 C712 1.523 . S
C712 C696 1.368 . S
C712 C708 1.368 . S
C712 C711 1.523 . S
H713 C688 0.950 . S
H714 C690 0.950 . S
H715 C691 0.949 . S
H716 C693 0.950 . S
H717 C695 0.950 . S
C718 C719 1.349 . S
C718 C720 1.327 . S
C718 H743 0.950 . S
C719 C718 1.349 . S
C719 C735 1.349 . S
C720 C718 1.327 . S
C720 C739 1.429 . S
C720 H744 0.950 . S
C721 C738 1.574 . S
C721 C740 1.368 . S
C721 H745 0.949 . S
H722 C726 0.949 . S
C723 C724 1.349 . S
C723 C725 1.327 . S
C723 H746 0.950 . S
C724 C723 1.349 . S
C724 C736 1.349 . S
C725 C723 1.327 . S
C725 C741 1.429 . S
C725 H747 0.950 . S
C726 H722 0.949 . S
C726 C734 1.574 . S
C726 C742 1.368 . S
H727 C735 0.950 . S
H728 C733 0.950 . S
H729 C734 0.949 . S
H730 C736 0.950 . S
H731 C737 0.950 . S
H732 C738 0.949 . S
C733 H728 0.950 . S
C733 C735 1.327 . S
C733 C739 1.429 . S
C734 C726 1.574 . S
C734 H729 0.949 . S
C734 C740 1.368 . S
C735 C719 1.349 . S
C735 H727 0.950 . S
C735 C733 1.327 . S
C736 C724 1.349 . S
C736 H730 0.950 . S
C736 C737 1.327 . S
C737 H731 0.950 . S
C737 C736 1.327 . S
C737 C741 1.429 . S
C738 C721 1.574 . S
C738 H732 0.949 . S
C738 C742 1.368 . S
C739 C720 1.429 . S
C739 C733 1.429 . S
C739 C740 1.523 . S
C740 C721 1.368 . S
C740 C734 1.368 . S
C740 C739 1.523 . S
C741 C725 1.429 . S
C741 C737 1.429 . S
C741 C742 1.523 . S
C742 C726 1.368 . S
C742 C738 1.368 . S
C742 C741 1.523 . S
H743 C718 0.950 . S
H744 C720 0.950 . S
H745 C721 0.949 . S
H746 C723 0.950 . S
H747 C725 0.950 . S
C748 C749 1.349 . S
C748 C750 1.327 . S
C748 H773 0.950 . S
C749 C748 1.349 . S
C749 C765 1.349 . S
C750 C748 1.327 . S
C750 C769 1.429 . S
C750 H774 0.950 . S
C751 C768 1.574 . S
C751 C770 1.368 . S
C751 H775 0.949 . S
H752 C756 0.949 . S
C753 C754 1.349 . S
C753 C755 1.327 . S
C753 H776 0.950 . S
C754 C753 1.349 . S
C754 C766 1.349 . S
C755 C753 1.327 . S
C755 C771 1.429 . S
C755 H777 0.950 . S
C756 H752 0.949 . S
C756 C764 1.574 . S
C756 C772 1.368 . S
H757 C765 0.950 . S
H758 C763 0.950 . S
H759 C764 0.949 . S
H760 C766 0.950 . S
H761 C767 0.950 . S
H762 C768 0.949 . S
C763 H758 0.950 . S
C763 C765 1.327 . S
C763 C769 1.429 . S
C764 C756 1.574 . S
C764 H759 0.949 . S
C764 C770 1.368 . S
C765 C749 1.349 . S
C765 H757 0.950 . S
C765 C763 1.327 . S
C766 C754 1.349 . S
C766 H760 0.950 . S
C766 C767 1.327 . S
C767 H761 0.950 . S
C767 C766 1.327 . S
C767 C771 1.429 . S
C768 C751 1.574 . S
C768 H762 0.949 . S
C768 C772 1.368 . S
C769 C750 1.429 . S
C769 C763 1.429 . S
C769 C770 1.523 . S
C770 C751 1.368 . S
C770 C764 1.368 . S
C770 C769 1.523 . S
C771 C755 1.429 . S
C771 C767 1.429 . S
C771 C772 1.523 . S
C772 C756 1.368 . S
C772 C768 1.368 . S
C772 C771 1.523 . S
H773 C748 0.950 . S
H774 C750 0.950 . S
H775 C751 0.949 . S
H776 C753 0.950 . S
H777 C755 0.950 . S
C778 C779 1.349 . S
C778 C780 1.327 . S
C778 H803 0.950 . S
C779 C778 1.349 . S
C779 C795 1.349 . S
C780 C778 1.327 . S
C780 C799 1.429 . S
C780 H804 0.950 . S
C781 C798 1.574 . S
C781 C800 1.368 . S
C781 H805 0.949 . S
H782 C786 0.949 . S
C783 C784 1.349 . S
C783 C785 1.327 . S
C783 H806 0.950 . S
C784 C783 1.349 . S
C784 C796 1.349 . S
C785 C783 1.327 . S
C785 C801 1.429 . S
C785 H807 0.950 . S
C786 H782 0.949 . S
C786 C794 1.574 . S
C786 C802 1.368 . S
H787 C795 0.950 . S
H788 C793 0.950 . S
H789 C794 0.949 . S
H790 C796 0.950 . S
H791 C797 0.950 . S
H792 C798 0.949 . S
C793 H788 0.950 . S
C793 C795 1.327 . S
C793 C799 1.429 . S
C794 C786 1.574 . S
C794 H789 0.949 . S
C794 C800 1.368 . S
C795 C779 1.349 . S
C795 H787 0.950 . S
C795 C793 1.327 . S
C796 C784 1.349 . S
C796 H790 0.950 . S
C796 C797 1.327 . S
C797 H791 0.950 . S
C797 C796 1.327 . S
C797 C801 1.429 . S
C798 C781 1.574 . S
C798 H792 0.949 . S
C798 C802 1.368 . S
C799 C780 1.429 . S
C799 C793 1.429 . S
C799 C800 1.523 . S
C800 C781 1.368 . S
C800 C794 1.368 . S
C800 C799 1.523 . S
C801 C785 1.429 . S
C801 C797 1.429 . S
C801 C802 1.523 . S
C802 C786 1.368 . S
C802 C798 1.368 . S
C802 C801 1.523 . S
H803 C778 0.950 . S
H804 C780 0.950 . S
H805 C781 0.949 . S
H806 C783 0.950 . S
H807 C785 0.950 . S
C808 C809 1.349 . S
C808 C810 1.327 . S
C808 H833 0.950 . S
C809 C808 1.349 . S
C809 C825 1.349 . S
C810 C808 1.327 . S
C810 C829 1.429 . S
C810 H834 0.950 . S
C811 C828 1.574 . S
C811 C830 1.368 . S
C811 H835 0.949 . S
H812 C816 0.949 . S
C813 C814 1.349 . S
C813 C815 1.327 . S
C813 H836 0.950 . S
C814 C813 1.349 . S
C814 C826 1.349 . S
C815 C813 1.327 . S
C815 C831 1.429 . S
C815 H837 0.950 . S
C816 H812 0.949 . S
C816 C824 1.574 . S
C816 C832 1.368 . S
H817 C825 0.950 . S
H818 C823 0.950 . S
H819 C824 0.949 . S
H820 C826 0.950 . S
H821 C827 0.950 . S
H822 C828 0.949 . S
C823 H818 0.950 . S
C823 C825 1.327 . S
C823 C829 1.429 . S
C824 C816 1.574 . S
C824 H819 0.949 . S
C824 C830 1.368 . S
C825 C809 1.349 . S
C825 H817 0.950 . S
C825 C823 1.327 . S
C826 C814 1.349 . S
C826 H820 0.950 . S
C826 C827 1.327 . S
C827 H821 0.950 . S
C827 C826 1.327 . S
C827 C831 1.429 . S
C828 C811 1.574 . S
C828 H822 0.949 . S
C828 C832 1.368 . S
C829 C810 1.429 . S
C829 C823 1.429 . S
C829 C830 1.523 . S
C830 C811 1.368 . S
C830 C824 1.368 . S
C830 C829 1.523 . S
C831 C815 1.429 . S
C831 C827 1.429 . S
C831 C832 1.523 . S
C832 C816 1.368 . S
C832 C828 1.368 . S
C832 C831 1.523 . S
H833 C808 0.950 . S
H834 C810 0.950 . S
H835 C811 0.949 . S
H836 C813 0.950 . S
H837 C815 0.950 . S
C838 C839 1.349 . S
C838 C840 1.327 . S
C838 H863 0.950 . S
C839 C838 1.349 . S
C839 C855 1.349 . S
C840 C838 1.327 . S
C840 C859 1.429 . S
C840 H864 0.950 . S
C841 C858 1.574 . S
C841 C860 1.368 . S
C841 H865 0.949 . S
H842 C846 0.949 . S
C843 C844 1.349 . S
C843 C845 1.327 . S
C843 H866 0.950 . S
C844 C843 1.349 . S
C844 C856 1.349 . S
C845 C843 1.327 . S
C845 C861 1.429 . S
C845 H867 0.950 . S
C846 H842 0.949 . S
C846 C854 1.574 . S
C846 C862 1.368 . S
H847 C855 0.950 . S
H848 C853 0.950 . S
H849 C854 0.949 . S
H850 C856 0.950 . S
H851 C857 0.950 . S
H852 C858 0.949 . S
C853 H848 0.950 . S
C853 C855 1.327 . S
C853 C859 1.429 . S
C854 C846 1.574 . S
C854 H849 0.949 . S
C854 C860 1.368 . S
C855 C839 1.349 . S
C855 H847 0.950 . S
C855 C853 1.327 . S
C856 C844 1.349 . S
C856 H850 0.950 . S
C856 C857 1.327 . S
C857 H851 0.950 . S
C857 C856 1.327 . S
C857 C861 1.429 . S
C858 C841 1.574 . S
C858 H852 0.949 . S
C858 C862 1.368 . S
C859 C840 1.429 . S
C859 C853 1.429 . S
C859 C860 1.523 . S
C860 C841 1.368 . S
C860 C854 1.368 . S
C860 C859 1.523 . S
C861 C845 1.429 . S
C861 C857 1.429 . S
C861 C862 1.523 . S
C862 C846 1.368 . S
C862 C858 1.368 . S
C862 C861 1.523 . S
H863 C838 0.950 . S
H864 C840 0.950 . S
H865 C841 0.949 . S
H866 C843 0.950 . S
H867 C845 0.950 . S
C868 C869 1.349 . S
C868 C870 1.327 . S
C868 H893 0.950 . S
C869 C868 1.349 . S
C869 C885 1.349 . S
C870 C868 1.327 . S
C870 C889 1.429 . S
C870 H894 0.950 . S
C871 C888 1.574 . S
C871 C890 1.368 . S
C871 H895 0.949 . S
H872 C876 0.949 . S
C873 C874 1.349 . S
C873 C875 1.327 . S
C873 H896 0.950 . S
C874 C873 1.349 . S
C874 C886 1.349 . S
C875 C873 1.327 . S
C875 C891 1.429 . S
C875 H897 0.950 . S
C876 H872 0.949 . S
C876 C884 1.574 . S
C876 C892 1.368 . S
H877 C885 0.950 . S
H878 C883 0.950 . S
H879 C884 0.949 . S
H880 C886 0.950 . S
H881 C887 0.950 . S
H882 C888 0.949 . S
C883 H878 0.950 . S
C883 C885 1.327 . S
C883 C889 1.429 . S
C884 C876 1.574 . S
C884 H879 0.949 . S
C884 C890 1.368 . S
C885 C869 1.349 . S
C885 H877 0.950 . S
C885 C883 1.327 . S
C886 C874 1.349 . S
C886 H880 0.950 . S
C886 C887 1.327 . S
C887 H881 0.950 . S
C887 C886 1.327 . S
C887 C891 1.429 . S
C888 C871 1.574 . S
C888 H882 0.949 . S
C888 C892 1.368 . S
C889 C870 1.429 . S
C889 C883 1.429 . S
C889 C890 1.523 . S
C890 C871 1.368 . S
C890 C884 1.368 . S
C890 C889 1.523 . S
C891 C875 1.429 . S
C891 C887 1.429 . S
C891 C892 1.523 . S
C892 C876 1.368 . S
C892 C888 1.368 . S
C892 C891 1.523 . S
H893 C868 0.950 . S
H894 C870 0.950 . S
H895 C871 0.949 . S
H896 C873 0.950 . S
H897 C875 0.950 . S
C898 C899 1.349 . S
C898 C900 1.327 . S
C898 H923 0.950 . S
C899 C898 1.349 . S
C899 C915 1.349 . S
C900 C898 1.327 . S
C900 C919 1.429 . S
C900 H924 0.950 . S
C901 C918 1.574 . S
C901 C920 1.368 . S
C901 H925 0.949 . S
H902 C906 0.949 . S
C903 C904 1.349 . S
C903 C905 1.327 . S
C903 H926 0.950 . S
C904 C903 1.349 . S
C904 C916 1.349 . S
C905 C903 1.327 . S
C905 C921 1.429 . S
C905 H927 0.950 . S
C906 H902 0.949 . S
C906 C914 1.574 . S
C906 C922 1.368 . S
H907 C915 0.950 . S
H908 C913 0.950 . S
H909 C914 0.949 . S
H910 C916 0.950 . S
H911 C917 0.950 . S
H912 C918 0.949 . S
C913 H908 0.950 . S
C913 C915 1.327 . S
C913 C919 1.429 . S
C914 C906 1.574 . S
C914 H909 0.949 . S
C914 C920 1.368 . S
C915 C899 1.349 . S
C915 H907 0.950 . S
C915 C913 1.327 . S
C916 C904 1.349 . S
C916 H910 0.950 . S
C916 C917 1.327 . S
C917 H911 0.950 . S
C917 C916 1.327 . S
C917 C921 1.429 . S
C918 C901 1.574 . S
C918 H912 0.949 . S
C918 C922 1.368 . S
C919 C900 1.429 . S
C919 C913 1.429 . S
C919 C920 1.523 . S
C920 C901 1.368 . S
C920 C914 1.368 . S
C920 C919 1.523 . S
C921 C905 1.429 . S
C921 C917 1.429 . S
C921 C922 1.523 . S
C922 C906 1.368 . S
C922 C918 1.368 . S
C922 C921 1.523 . S
H923 C898 0.950 . S
H924 C900 0.950 . S
H925 C901 0.949 . S
H926 C903 0.950 . S
H927 C905 0.950 . S
C928 C929 1.349 . S
C928 C930 1.327 1_545 S
C928 H953 0.950 . S
C929 C928 1.349 . S
C929 C945 1.349 1_545 S
C930 C928 1.327 1_565 S
C930 C949 1.429 . S
C930 H954 0.950 . S
C931 C948 1.574 . S
C931 C950 1.368 . S
C931 H955 0.949 . S
H932 C936 0.949 . S
C933 C934 1.349 . S
C933 C935 1.327 . S
C933 H956 0.950 . S
C934 C933 1.349 . S
C934 C946 1.349 . S
C935 C933 1.327 . S
C935 C951 1.429 . S
C935 H957 0.950 . S
C936 H932 0.949 . S
C936 C944 1.574 . S
C936 C952 1.368 . S
H937 C945 0.950 . S
H938 C943 0.950 . S
H939 C944 0.949 . S
H940 C946 0.950 . S
H941 C947 0.950 . S
H942 C948 0.949 . S
C943 H938 0.950 . S
C943 C945 1.327 . S
C943 C949 1.429 . S
C944 C936 1.574 . S
C944 H939 0.949 . S
C944 C950 1.368 . S
C945 C929 1.349 1_565 S
C945 H937 0.950 . S
C945 C943 1.327 . S
C946 C934 1.349 . S
C946 H940 0.950 . S
C946 C947 1.327 . S
C947 H941 0.950 . S
C947 C946 1.327 . S
C947 C951 1.429 . S
C948 C931 1.574 . S
C948 H942 0.949 . S
C948 C952 1.368 . S
C949 C930 1.429 . S
C949 C943 1.429 . S
C949 C950 1.523 . S
C950 C931 1.368 . S
C950 C944 1.368 . S
C950 C949 1.523 . S
C951 C935 1.429 . S
C951 C947 1.429 . S
C951 C952 1.523 . S
C952 C936 1.368 . S
C952 C948 1.368 . S
C952 C951 1.523 . S
H953 C928 0.950 . S
H954 C930 0.950 . S
H955 C931 0.949 . S
H956 C933 0.950 . S
H957 C935 0.950 . S
C958 C959 1.349 . S
C958 C960 1.327 . S
C958 H983 0.950 . S
C959 C958 1.349 . S
C959 C975 1.349 . S
C960 C958 1.327 . S
C960 C979 1.429 . S
C960 H984 0.950 . S
C961 C978 1.574 . S
C961 C980 1.368 . S
C961 H985 0.949 . S
H962 C966 0.949 . S
C963 C964 1.349 . S
C963 C965 1.327 . S
C963 H986 0.950 . S
C964 C963 1.349 . S
C964 C976 1.349 . S
C965 C963 1.327 . S
C965 C981 1.429 . S
C965 H987 0.950 . S
C966 H962 0.949 . S
C966 C974 1.574 . S
C966 C982 1.368 . S
H967 C975 0.950 . S
H968 C973 0.950 . S
H969 C974 0.949 . S
H970 C976 0.950 . S
H971 C977 0.950 . S
H972 C978 0.949 . S
C973 H968 0.950 . S
C973 C975 1.327 . S
C973 C979 1.429 . S
C974 C966 1.574 . S
C974 H969 0.949 . S
C974 C980 1.368 . S
C975 C959 1.349 . S
C975 H967 0.950 . S
C975 C973 1.327 . S
C976 C964 1.349 . S
C976 H970 0.950 . S
C976 C977 1.327 . S
C977 H971 0.950 . S
C977 C976 1.327 . S
C977 C981 1.429 . S
C978 C961 1.574 . S
C978 H972 0.949 . S
C978 C982 1.368 . S
C979 C960 1.429 . S
C979 C973 1.429 . S
C979 C980 1.523 . S
C980 C961 1.368 . S
C980 C974 1.368 . S
C980 C979 1.523 . S
C981 C965 1.429 . S
C981 C977 1.429 . S
C981 C982 1.523 . S
C982 C966 1.368 . S
C982 C978 1.368 . S
C982 C981 1.523 . S
H983 C958 0.950 . S
H984 C960 0.950 . S
H985 C961 0.949 . S
H986 C963 0.950 . S
H987 C965 0.950 . S
C988 C989 1.349 . S
C988 C990 1.327 . S
C988 H1013 0.950 . S
C989 C988 1.349 . S
C989 C1005 1.349 . S
C990 C988 1.327 . S
C990 C1009 1.429 . S
C990 H1014 0.950 . S
C991 C1008 1.574 . S
C991 C1010 1.368 . S
C991 H1015 0.949 . S
H992 C996 0.949 . S
C993 C994 1.349 . S
C993 C995 1.327 1_655 S
C993 H1016 0.950 . S
C994 C993 1.349 . S
C994 C1006 1.349 1_655 S
C995 C993 1.327 1_455 S
C995 C1011 1.429 . S
C995 H1017 0.950 . S
C996 H992 0.949 . S
C996 C1004 1.574 . S
C996 C1012 1.368 . S
H997 C1005 0.950 . S
H998 C1003 0.950 . S
H999 C1004 0.949 . S
H1000 C1006 0.950 . S
H1001 C1007 0.950 . S
H1002 C1008 0.949 . S
C1003 H998 0.950 . S
C1003 C1005 1.327 . S
C1003 C1009 1.429 . S
C1004 C996 1.574 . S
C1004 H999 0.949 . S
C1004 C1010 1.368 . S
C1005 C989 1.349 . S
C1005 H997 0.950 . S
C1005 C1003 1.327 . S
C1006 C994 1.349 1_455 S
C1006 H1000 0.950 . S
C1006 C1007 1.327 . S
C1007 H1001 0.950 . S
C1007 C1006 1.327 . S
C1007 C1011 1.429 . S
C1008 C991 1.574 . S
C1008 H1002 0.949 . S
C1008 C1012 1.368 . S
C1009 C990 1.429 . S
C1009 C1003 1.429 . S
C1009 C1010 1.523 . S
C1010 C991 1.368 . S
C1010 C1004 1.368 . S
C1010 C1009 1.523 . S
C1011 C995 1.429 . S
C1011 C1007 1.429 . S
C1011 C1012 1.523 . S
C1012 C996 1.368 . S
C1012 C1008 1.368 . S
C1012 C1011 1.523 . S
H1013 C988 0.950 . S
H1014 C990 0.950 . S
H1015 C991 0.949 . S
H1016 C993 0.950 . S
H1017 C995 0.950 . S
C1018 C1019 1.349 . S
C1018 C1020 1.327 1_565 S
C1018 H1043 0.950 . S
C1019 C1018 1.349 . S
C1019 C1035 1.349 1_565 S
C1020 C1018 1.327 1_545 S
C1020 C1039 1.429 . S
C1020 H1044 0.950 . S
C1021 C1038 1.574 . S
C1021 C1040 1.368 . S
C1021 H1045 0.949 . S
H1022 C1026 0.949 . S
C1023 C1024 1.349 1_655 S
C1023 C1025 1.327 . S
C1023 H1046 0.950 . S
C1024 C1023 1.349 1_455 S
C1024 C1036 1.349 . S
C1025 C1023 1.327 . S
C1025 C1041 1.429 . S
C1025 H1047 0.950 . S
C1026 H1022 0.949 . S
C1026 C1034 1.574 . S
C1026 C1042 1.368 . S
H1027 C1035 0.950 . S
H1028 C1033 0.950 . S
H1029 C1034 0.949 . S
H1030 C1036 0.950 . S
H1031 C1037 0.950 . S
H1032 C1038 0.949 . S
C1033 H1028 0.950 . S
C1033 C1035 1.327 . S
C1033 C1039 1.429 . S
C1034 C1026 1.574 . S
C1034 H1029 0.949 . S
C1034 C1040 1.368 . S
C1035 C1019 1.349 1_545 S
C1035 H1027 0.950 . S
C1035 C1033 1.327 . S
C1036 C1024 1.349 . S
C1036 H1030 0.950 . S
C1036 C1037 1.327 1_455 S
C1037 H1031 0.950 . S
C1037 C1036 1.327 1_655 S
C1037 C1041 1.429 . S
C1038 C1021 1.574 . S
C1038 H1032 0.949 . S
C1038 C1042 1.368 . S
C1039 C1020 1.429 . S
C1039 C1033 1.429 . S
C1039 C1040 1.523 . S
C1040 C1021 1.368 . S
C1040 C1034 1.368 . S
C1040 C1039 1.523 . S
C1041 C1025 1.429 . S
C1041 C1037 1.429 . S
C1041 C1042 1.523 . S
C1042 C1026 1.368 . S
C1042 C1038 1.368 . S
C1042 C1041 1.523 . S
H1043 C1018 0.950 . S
H1044 C1020 0.950 . S
H1045 C1021 0.949 . S
H1046 C1023 0.950 . S
H1047 C1025 0.950 . S
C1048 C1049 1.349 . S
C1048 C1050 1.327 . S
C1048 H1073 0.950 . S
C1049 C1048 1.349 . S
C1049 C1065 1.349 . S
C1050 C1048 1.327 . S
C1050 C1069 1.429 . S
C1050 H1074 0.950 . S
C1051 C1068 1.574 . S
C1051 C1070 1.368 . S
C1051 H1075 0.949 . S
H1052 C1056 0.949 . S
C1053 C1054 1.349 . S
C1053 C1055 1.327 . S
C1053 H1076 0.950 . S
C1054 C1053 1.349 . S
C1054 C1066 1.349 . S
C1055 C1053 1.327 . S
C1055 C1071 1.429 . S
C1055 H1077 0.950 . S
C1056 H1052 0.949 . S
C1056 C1064 1.574 . S
C1056 C1072 1.368 . S
H1057 C1065 0.950 . S
H1058 C1063 0.950 . S
H1059 C1064 0.949 . S
H1060 C1066 0.950 . S
H1061 C1067 0.950 . S
H1062 C1068 0.949 . S
C1063 H1058 0.950 . S
C1063 C1065 1.327 . S
C1063 C1069 1.429 . S
C1064 C1056 1.574 . S
C1064 H1059 0.949 . S
C1064 C1070 1.368 . S
C1065 C1049 1.349 . S
C1065 H1057 0.950 . S
C1065 C1063 1.327 . S
C1066 C1054 1.349 . S
C1066 H1060 0.950 . S
C1066 C1067 1.327 . S
C1067 H1061 0.950 . S
C1067 C1066 1.327 . S
C1067 C1071 1.429 . S
C1068 C1051 1.574 . S
C1068 H1062 0.949 . S
C1068 C1072 1.368 . S
C1069 C1050 1.429 . S
C1069 C1063 1.429 . S
C1069 C1070 1.523 . S
C1070 C1051 1.368 . S
C1070 C1064 1.368 . S
C1070 C1069 1.523 . S
C1071 C1055 1.429 . S
C1071 C1067 1.429 . S
C1071 C1072 1.523 . S
C1072 C1056 1.368 . S
C1072 C1068 1.368 . S
C1072 C1071 1.523 . S
H1073 C1048 0.950 . S
H1074 C1050 0.950 . S
H1075 C1051 0.949 . S
H1076 C1053 0.950 . S
H1077 C1055 0.950 . S
C1078 C1079 1.349 . S
C1078 C1080 1.327 1_455 S
C1078 H1103 0.950 . S
C1079 C1078 1.349 . S
C1079 C1095 1.349 1_455 S
C1080 C1078 1.327 1_655 S
C1080 C1099 1.429 . S
C1080 H1104 0.950 . S
C1081 C1098 1.574 . S
C1081 C1100 1.368 . S
C1081 H1105 0.949 . S
H1082 C1086 0.949 . S
C1083 C1084 1.349 . S
C1083 C1085 1.327 . S
C1083 H1106 0.950 . S
C1084 C1083 1.349 . S
C1084 C1096 1.349 . S
C1085 C1083 1.327 . S
C1085 C1101 1.429 . S
C1085 H1107 0.950 . S
C1086 H1082 0.949 . S
C1086 C1094 1.574 . S
C1086 C1102 1.368 . S
H1087 C1095 0.950 . S
H1088 C1093 0.950 . S
H1089 C1094 0.949 . S
H1090 C1096 0.950 . S
H1091 C1097 0.950 . S
H1092 C1098 0.949 . S
C1093 H1088 0.950 . S
C1093 C1095 1.327 . S
C1093 C1099 1.429 . S
C1094 C1086 1.574 . S
C1094 H1089 0.949 . S
C1094 C1100 1.368 . S
C1095 C1079 1.349 1_655 S
C1095 H1087 0.950 . S
C1095 C1093 1.327 . S
C1096 C1084 1.349 . S
C1096 H1090 0.950 . S
C1096 C1097 1.327 . S
C1097 H1091 0.950 . S
C1097 C1096 1.327 . S
C1097 C1101 1.429 . S
C1098 C1081 1.574 . S
C1098 H1092 0.949 . S
C1098 C1102 1.368 . S
C1099 C1080 1.429 . S
C1099 C1093 1.429 . S
C1099 C1100 1.523 . S
C1100 C1081 1.368 . S
C1100 C1094 1.368 . S
C1100 C1099 1.523 . S
C1101 C1085 1.429 . S
C1101 C1097 1.429 . S
C1101 C1102 1.523 . S
C1102 C1086 1.368 . S
C1102 C1098 1.368 . S
C1102 C1101 1.523 . S
H1103 C1078 0.950 . S
H1104 C1080 0.950 . S
H1105 C1081 0.949 . S
H1106 C1083 0.950 . S
H1107 C1085 0.950 . S
C1108 C1109 1.349 . S
C1108 C1110 1.327 1_655 S
C1108 H1133 0.950 . S
C1109 C1108 1.349 . S
C1109 C1125 1.349 1_655 S
C1110 C1108 1.327 1_455 S
C1110 C1129 1.429 . S
C1110 H1134 0.950 . S
C1111 C1128 1.574 . S
C1111 C1130 1.368 . S
C1111 H1135 0.949 . S
H1112 C1116 0.949 . S
C1113 C1114 1.349 1_565 S
C1113 C1115 1.327 . S
C1113 H1136 0.950 . S
C1114 C1113 1.349 1_545 S
C1114 C1126 1.349 . S
C1115 C1113 1.327 . S
C1115 C1131 1.429 . S
C1115 H1137 0.950 . S
C1116 H1112 0.949 . S
C1116 C1124 1.574 . S
C1116 C1132 1.368 . S
H1117 C1125 0.950 . S
H1118 C1123 0.950 . S
H1119 C1124 0.949 . S
H1120 C1126 0.950 . S
H1121 C1127 0.950 . S
H1122 C1128 0.949 . S
C1123 H1118 0.950 . S
C1123 C1125 1.327 . S
C1123 C1129 1.429 . S
C1124 C1116 1.574 . S
C1124 H1119 0.949 . S
C1124 C1130 1.368 . S
C1125 C1109 1.349 1_455 S
C1125 H1117 0.950 . S
C1125 C1123 1.327 . S
C1126 C1114 1.349 . S
C1126 H1120 0.950 . S
C1126 C1127 1.327 1_545 S
C1127 H1121 0.950 . S
C1127 C1126 1.327 1_565 S
C1127 C1131 1.429 . S
C1128 C1111 1.574 . S
C1128 H1122 0.949 . S
C1128 C1132 1.368 . S
C1129 C1110 1.429 . S
C1129 C1123 1.429 . S
C1129 C1130 1.523 . S
C1130 C1111 1.368 . S
C1130 C1124 1.368 . S
C1130 C1129 1.523 . S
C1131 C1115 1.429 . S
C1131 C1127 1.429 . S
C1131 C1132 1.523 . S
C1132 C1116 1.368 . S
C1132 C1128 1.368 . S
C1132 C1131 1.523 . S
H1133 C1108 0.950 . S
H1134 C1110 0.950 . S
H1135 C1111 0.949 . S
H1136 C1113 0.950 . S
H1137 C1115 0.950 . S
C1138 C1139 1.349 1_545 S
C1138 C1140 1.327 . S
C1138 H1163 0.950 . S
C1139 C1138 1.349 1_565 S
C1139 C1155 1.349 . S
C1140 C1138 1.327 . S
C1140 C1159 1.429 . S
C1140 H1164 0.950 . S
C1141 C1158 1.574 . S
C1141 C1160 1.368 . S
C1141 H1165 0.949 . S
H1142 C1146 0.949 . S
C1143 C1144 1.349 . S
C1143 C1145 1.327 . S
C1143 H1166 0.950 . S
C1144 C1143 1.349 . S
C1144 C1156 1.349 . S
C1145 C1143 1.327 . S
C1145 C1161 1.429 . S
C1145 H1167 0.950 . S
C1146 H1142 0.949 . S
C1146 C1154 1.574 . S
C1146 C1162 1.368 . S
H1147 C1155 0.950 . S
H1148 C1153 0.950 . S
H1149 C1154 0.949 . S
H1150 C1156 0.950 . S
H1151 C1157 0.950 . S
H1152 C1158 0.949 . S
C1153 H1148 0.950 . S
C1153 C1155 1.327 1_545 S
C1153 C1159 1.429 . S
C1154 C1146 1.574 . S
C1154 H1149 0.949 . S
C1154 C1160 1.368 . S
C1155 C1139 1.349 . S
C1155 H1147 0.950 . S
C1155 C1153 1.327 1_565 S
C1156 C1144 1.349 . S
C1156 H1150 0.950 . S
C1156 C1157 1.327 . S
C1157 H1151 0.950 . S
C1157 C1156 1.327 . S
C1157 C1161 1.429 . S
C1158 C1141 1.574 . S
C1158 H1152 0.949 . S
C1158 C1162 1.368 . S
C1159 C1140 1.429 . S
C1159 C1153 1.429 . S
C1159 C1160 1.523 . S
C1160 C1141 1.368 . S
C1160 C1154 1.368 . S
C1160 C1159 1.523 . S
C1161 C1145 1.429 . S
C1161 C1157 1.429 . S
C1161 C1162 1.523 . S
C1162 C1146 1.368 . S
C1162 C1158 1.368 . S
C1162 C1161 1.523 . S
H1163 C1138 0.950 . S
H1164 C1140 0.950 . S
H1165 C1141 0.949 . S
H1166 C1143 0.950 . S
H1167 C1145 0.950 . S
C209 C92 1.595 . S
C214 C1 1.595 . S
C239 C53 1.595 . S
C244 C14 1.595 . S
C269 C66 1.595 . S
C274 C27 1.595 . S
C299 C40 1.595 . S
C304 C79 1.595 . S
C329 C205 1.595 . S
C334 C105 1.613 . S
C359 C157 1.613 . S
C364 C127 1.595 . S
C389 C131 1.613 . S
C394 C179 1.595 . S
C419 C153 1.595 . S
C424 C183 1.613 . S
C449 C36 1.479 . S
C454 C10 1.479 . S
C479 C23 1.479 . S
C484 C49 1.479 . S
C509 C62 1.479 . S
C514 C88 1.479 . S
C539 C101 1.479 . S
C544 C75 1.479 . S
C569 C114 1.523 . S
C574 C140 1.523 . S
C599 C118 1.479 . S
C604 C144 1.479 . S
C629 C192 1.523 . S
C634 C166 1.523 . S
C659 C170 1.479 . S
C664 C196 1.479 . S
C689 C81 1.590 . S
C694 C3 1.590 . S
C719 C16 1.590 . S
C724 C94 1.590 . S
C749 C29 1.590 . S
C754 C55 1.590 . S
C779 C42 1.590 . S
C784 C68 1.590 . S
C809 C107 1.603 . S
C814 C185 1.603 . S
C839 C122 1.590 . S
C844 C200 1.590 . S
C869 C133 1.603 . S
C874 C159 1.603 . S
C899 C148 1.590 . S
C904 C174 1.590 . S
C929 C5 1.656 . S
C934 C198 1.656 . S
C959 C161 1.697 . S
C964 C18 1.656 . S
C989 C31 1.656 . S
C994 C172 1.656 . S
C1019 C187 1.697 . S
C1024 C44 1.656 . S
C1049 C120 1.656 . S
C1054 C57 1.656 . S
C1079 C70 1.656 . S
C1084 C135 1.697 . S
C1109 C146 1.656 . S
C1114 C83 1.656 . S
C1139 C109 1.697 . S
C1144 C96 1.656 . S
