# Generated by pormake.
# Topology ilc, (8)-cn, num edge types: 1
# Building blocks:
#     Node 0, Type 0, BuildingBlock: HISSIN_clean_sbu_1, # of connection points: 8
#     Node 1, Type 0, BuildingBlock: HISSIN_clean_sbu_1, # of connection points: 8
#     Node 2, Type 0, BuildingBlock: HISSIN_clean_sbu_1, # of connection points: 8
#     Edge 3, Type (0, 0), BuildingBlock: XUDNAN_clean_linker_2, # of connection points: 2
#     Edge 4, Type (0, 0), BuildingBlock: XUDNAN_clean_linker_2, # of connection points: 2
#     Edge 5, Type (0, 0), BuildingBlock: XUDNAN_clean_linker_2, # of connection points: 2
#     Edge 6, Type (0, 0), BuildingBlock: XUDNAN_clean_linker_2, # of connection points: 2
#     Edge 7, Type (0, 0), BuildingBlock: XUDNAN_clean_linker_2, # of connection points: 2
#     Edge 8, Type (0, 0), BuildingBlock: XUDNAN_clean_linker_2, # of connection points: 2
#     Edge 9, Type (0, 0), BuildingBlock: XUDNAN_clean_linker_2, # of connection points: 2
#     Edge 10, Type (0, 0), BuildingBlock: XUDNAN_clean_linker_2, # of connection points: 2
#     Edge 11, Type (0, 0), BuildingBlock: XUDNAN_clean_linker_2, # of connection points: 2
#     Edge 12, Type (0, 0), BuildingBlock: XUDNAN_clean_linker_2, # of connection points: 2
#     Edge 13, Type (0, 0), BuildingBlock: XUDNAN_clean_linker_2, # of connection points: 2
#     Edge 14, Type (0, 0), BuildingBlock: XUDNAN_clean_linker_2, # of connection points: 2
# Relax obj value: 0.165
# Max RMSD: 0.203
# Mean RMSD: 0.203
data_MOF--net-ilc--node1-HISSIN_clean_sbu_1--edge1-XUDNAN_clean_linker_2
_symmetry_space_group_name_H-M    P1
_symmetry_Int_Tables_number       1
_symmetry_cell_setting            triclinic
loop_
_symmetry_equiv_pos_as_xyz
'x, y, z'
_cell_length_a     21.785717
_cell_length_b     29.996427
_cell_length_c     19.735109
_cell_angle_alpha  101.4795
_cell_angle_beta   75.355455
_cell_angle_gamma 141.68968
loop_
_atom_site_label
_atom_site_type_symbol
_atom_site_fract_x
_atom_site_fract_y
_atom_site_fract_z
_atom_type_partial_charge
Eu0 Eu 0.95013 0.97246 0.93414 0.0
C1 C 0.1894 0.09883 0.9302 0.0
O2 O 0.9377 0.91448 0.83399 0.0
C3 C 0.12884 0.96396 0.15965 0.0
C4 C 1.03065 0.86558 0.26375 0.0
C5 C 1.05841 0.94816 0.2136 0.0
C6 C 1.01456 0.90286 0.26817 0.0
C7 C 0.15506 0.93338 0.16005 0.0
C8 C 0.10487 0.8835 0.21262 0.0
Eu9 Eu 0.17118 0.09425 0.08199 0.0
O10 O 0.87657 0.91984 0.0402 0.0
O11 O 0.20368 0.17323 0.16322 0.0
O12 O 0.25359 0.14291 0.9741 0.0
O13 O 1.01237 1.02957 0.08181 0.0
C14 C 0.19208 0.2066 0.14695 0.0
O15 O 0.16788 0.19356 0.0852 0.0
O16 O 0.12043 0.99593 0.06693 0.0
C17 C 0.17934 1.01702 0.10727 0.0
C18 C 0.90159 0.85298 0.83357 0.0
O19 O 0.86631 0.82141 0.8934 0.0
O20 O 0.23921 0.08356 0.12983 0.0
O21 O 0.09913 0.03812 0.95803 0.0
C22 C 0.94409 0.05204 0.91482 0.0
O23 O 1.01907 0.07748 0.93747 0.0
C24 C 0.97376 0.08312 0.84774 0.0
C25 C 1.01606 0.1223 0.71115 0.0
C26 C 1.02369 0.07811 0.79367 0.0
C27 C 1.03867 0.0929 0.72521 0.0
C28 C 0.94297 0.10727 0.83317 0.0
C29 C 0.96596 0.12804 0.76407 0.0
C30 C 0.92982 0.95965 0.09179 0.0
O31 O 0.86444 0.98126 0.91765 0.0
H32 H 0.99919 0.83236 0.30753 0.0
H33 H 1.04659 0.97766 0.21744 0.0
H34 H 0.21573 0.95002 0.12186 0.0
H35 H 1.02505 0.13163 0.65713 0.0
H36 H 1.0399 0.05393 0.80344 0.0
H37 H 0.89878 0.10711 0.87379 0.0
Eu38 Eu 0.58881 0.28061 0.28646 0.0
C39 C 0.81411 0.41615 0.22998 0.0
O40 O 0.56027 0.21145 0.19248 0.0
C41 C 0.83889 0.36324 0.47592 0.0
C42 C 0.81483 0.30849 0.59229 0.0
C43 C 0.79263 0.36133 0.54163 0.0
C44 C 0.77955 0.33296 0.59942 0.0
C45 C 0.87235 0.33654 0.46872 0.0
C46 C 0.86083 0.30968 0.52795 0.0
Eu47 Eu 0.7772 0.42529 0.39085 0.0
O48 O 0.53513 0.23777 0.39424 0.0
O49 O 0.82208 0.51376 0.4632 0.0
O50 O 0.82857 0.46003 0.27771 0.0
O51 O 0.6175 0.34532 0.44935 0.0
C52 C 0.85152 0.56756 0.4404 0.0
O53 O 0.85989 0.5721 0.37311 0.0
O54 O 0.76812 0.34711 0.38696 0.0
C55 C 0.84942 0.39176 0.41548 0.0
C56 C 0.50943 0.14535 0.19599 0.0
O57 O 0.46377 0.11334 0.25714 0.0
O58 O 0.89619 0.45718 0.42299 0.0
O59 O 0.74909 0.34955 0.24783 0.0
C60 C 0.54926 0.33811 0.26432 0.0
O61 O 0.62227 0.37151 0.29778 0.0
C62 C 0.58332 0.37494 0.20033 0.0
C63 C 0.66118 0.44757 0.07758 0.0
C64 C 0.6511 0.38549 0.14883 0.0
C65 C 0.68631 0.41833 0.08573 0.0
C66 C 0.54408 0.39286 0.18613 0.0
C67 C 0.58123 0.42806 0.1224 0.0
C68 C 0.54949 0.27493 0.45127 0.0
O69 O 0.48679 0.26877 0.25656 0.0
H70 H 0.80616 0.28786 0.63791 0.0
H71 H 0.76613 0.38115 0.54757 0.0
H72 H 0.90671 0.33678 0.41813 0.0
H73 H 0.69784 0.47957 0.03166 0.0
H74 H 0.67055 0.36298 0.15593 0.0
H75 H 0.48399 0.37752 0.2234 0.0
Eu76 Eu 0.31821 0.63363 0.61437 0.0
C77 C 0.54693 0.75951 0.55758 0.0
O78 O 0.2529 0.54556 0.53363 0.0
C79 C 0.54876 0.72239 0.83079 0.0
C80 C 0.54501 0.70631 0.96655 0.0
C81 C 0.55276 0.76166 0.8863 0.0
C82 C 0.54708 0.75154 0.95405 0.0
C83 C 0.53231 0.66879 0.8452 0.0
C84 C 0.52674 0.65902 0.91476 0.0
Eu85 Eu 0.48709 0.76705 0.71767 0.0
O86 O 0.25166 0.58592 0.72055 0.0
O87 O 0.5316 0.85914 0.7818 0.0
O88 O 0.5532 0.80115 0.60303 0.0
O89 O 0.32556 0.69151 0.77251 0.0
C90 C 0.4901 0.84935 0.84796 0.0
O91 O 0.42804 0.78715 0.87741 0.0
O92 O 0.46413 0.68541 0.73873 0.0
C93 C 0.55117 0.73378 0.76039 0.0
C94 C 0.27888 0.51688 0.52349 0.0
O95 O 0.33661 0.5368 0.56424 0.0
O96 O 0.60761 0.80006 0.7477 0.0
O97 O 0.47067 0.69013 0.5682 0.0
C98 C 0.29595 0.70481 0.60081 0.0
O99 O 0.36305 0.7296 0.6346 0.0
C100 C 0.33421 0.75435 0.54951 0.0
C101 C 0.40374 0.8436 0.447 0.0
C102 C 0.41074 0.77972 0.49436 0.0
C103 C 0.43896 0.819 0.4398 0.0
C104 C 0.28515 0.76776 0.54887 0.0
C105 C 0.31899 0.81161 0.4963 0.0
C106 C 0.25431 0.62084 0.77436 0.0
O107 O 0.23518 0.63779 0.58002 0.0
H108 H 0.54168 0.70005 0.0202 0.0
H109 H 0.55472 0.79725 0.87757 0.0
H110 H 0.51958 0.63348 0.80386 0.0
H111 H 0.42444 0.87237 0.40329 0.0
H112 H 0.4376 0.76019 0.48864 0.0
H113 H 0.21764 0.74067 0.5859 0.0
H114 H 0.16723 0.14708 0.6014 0.0
H115 H 0.90649 0.95064 0.72125 0.0
H116 H 0.8696 0.87881 0.61506 0.0
H117 H 0.06325 0.1005 0.47212 0.0
H118 H 0.1553 0.1314 0.39573 0.0
H119 H 0.1941 0.17604 0.47866 0.0
H120 H 0.28568 0.15691 0.48866 0.0
H121 H 0.2683 0.12438 0.3999 0.0
H122 H 0.23001 0.07031 0.46684 0.0
H123 H 0.84489 0.82899 0.49545 0.0
H124 H 0.85391 0.80365 0.36839 0.0
H125 H 0.12576 1.03257 0.32759 0.0
C126 C 0.106 0.08904 0.6055 0.0
C127 C 1.04073 0.05415 0.6689 0.0
C128 C 0.95867 0.97811 0.67294 0.0
C129 C 0.93639 0.93681 0.61292 0.0
C130 C 0.99801 0.97268 0.55007 0.0
C131 C 0.08313 0.04696 0.54605 0.0
C132 C 0.13064 0.07207 0.47111 0.0
C133 C 0.13593 0.12281 0.45321 0.0
C134 C 0.23493 0.10803 0.45576 0.0
C135 C 1.05677 1.00057 0.43419 0.0
C136 C 0.9811 0.94391 0.48049 0.0
C137 C 0.90431 0.87274 0.45836 0.0
C138 C 0.9089 0.85887 0.38649 0.0
C139 C 0.98887 0.91615 0.33858 0.0
C140 C 0.06182 0.98778 0.36282 0.0
H141 H 0.84569 0.44698 0.677 0.0
H142 H 0.61888 0.21556 0.68065 0.0
H143 H 0.58957 0.21719 0.80973 0.0
H144 H 0.95345 0.49056 0.81227 0.0
H145 H 0.96998 0.55778 0.85515 0.0
H146 H 0.96695 0.54256 0.76234 0.0
H147 H 0.81823 0.51374 0.77115 0.0
H148 H 0.82633 0.53665 0.86267 0.0
H149 H 0.70891 0.45085 0.83623 0.0
H150 H 0.60297 0.24522 0.93468 0.0
H151 H 0.60932 0.29043 0.05352 0.0
H152 H 0.82824 0.50511 0.97118 0.0
C153 C 0.7865 0.39648 0.70515 0.0
C154 C 0.7348 0.33119 0.66977 0.0
C155 C 0.6588 0.26592 0.70764 0.0
C156 C 0.64296 0.26651 0.78065 0.0
C157 C 0.70205 0.3326 0.81426 0.0
C158 C 0.76842 0.39593 0.77828 0.0
C159 C 0.82007 0.45911 0.82796 0.0
C160 C 0.93442 0.5159 0.81358 0.0
C161 C 0.79165 0.492 0.82434 0.0
C162 C 0.77442 0.42139 0.89707 0.0
C163 C 0.70791 0.3487 0.88752 0.0
C164 C 0.65374 0.30191 0.94316 0.0
C165 C 0.65955 0.32868 0.01082 0.0
C166 C 0.71823 0.40139 0.02182 0.0
C167 C 0.7823 0.4493 0.96442 0.0
H168 H 0.65066 0.87519 0.03173 0.0
H169 H 0.35564 0.65466 0.01149 0.0
H170 H 0.29961 0.65056 0.13725 0.0
H171 H 0.6827 0.87068 0.18407 0.0
H172 H 0.73763 0.95528 0.21693 0.0
H173 H 0.74343 0.93945 0.12502 0.0
H174 H 0.65424 0.96828 0.12462 0.0
H175 H 0.654 0.9822 0.21793 0.0
H176 H 0.5383 0.91807 0.18425 0.0
H177 H 0.29727 0.65606 0.26146 0.0
H178 H 0.3127 0.68687 0.38561 0.0
H179 H 0.58993 0.91202 0.33085 0.0
C180 C 0.57254 0.82827 0.05333 0.0
C181 C 0.50746 0.76493 0.01351 0.0
C182 C 0.40584 0.70349 0.04218 0.0
C183 C 0.37368 0.70041 0.11341 0.0
C184 C 0.4424 0.76101 0.15331 0.0
C185 C 0.53694 0.82571 0.12416 0.0
C186 C 0.5951 0.88177 0.18068 0.0
C187 C 0.69533 0.91331 0.17646 0.0
C188 C 0.61152 0.94119 0.17646 0.0
C189 C 0.52167 0.83593 0.24563 0.0
C190 C 0.43554 0.76614 0.22779 0.0
C191 C 0.36205 0.71116 0.27677 0.0
C192 C 0.37284 0.72899 0.34696 0.0
C193 C 0.45415 0.80161 0.36757 0.0
C194 C 0.52954 0.85588 0.3162 0.0
H195 H 0.35791 0.91994 0.47608 0.0
H196 H 0.13828 0.68971 0.45704 0.0
H197 H 0.07076 0.685 0.36888 0.0
H198 H 0.19537 0.92211 0.44746 0.0
H199 H 0.30184 1.00523 0.39939 0.0
H200 H 0.31902 0.9862 0.46866 0.0
H201 H 0.451 1.0078 0.38074 0.0
H202 H 0.42963 1.02146 0.30939 0.0
H203 H 0.41483 0.95282 0.30321 0.0
H204 H 1.03833 0.70743 0.27396 0.0
H205 H 1.01983 0.75204 0.19825 0.0
H206 H 0.26449 0.96775 0.27631 0.0
C207 C 0.29139 0.86801 0.4567 0.0
C208 C 0.25204 0.80503 0.47436 0.0
C209 C 0.16765 0.73825 0.44576 0.0
C210 C 0.13015 0.73531 0.39449 0.0
C211 C 0.17619 0.79932 0.37387 0.0
C212 C 0.25251 0.86405 0.40592 0.0
C213 C 0.29238 0.92558 0.37197 0.0
C214 C 0.27613 0.96188 0.42499 0.0
C215 C 0.4035 0.9801 0.33941 0.0
C216 C 0.22648 0.88539 0.3159 0.0
C217 C 0.1607 0.81269 0.31726 0.0
C218 C 0.08977 0.7643 0.27219 0.0
C219 C 0.08096 0.79017 0.22834 0.0
C220 C 0.14329 0.86367 0.22963 0.0
C221 C 0.2194 0.91206 0.27188 0.0
H222 H 0.30996 0.44152 0.49431 0.0
H223 H 0.18467 0.48018 0.41743 0.0
H224 H 0.1497 0.40524 0.31361 0.0
H225 H 0.42877 0.44581 0.33153 0.0
H226 H 0.39833 0.37324 0.35049 0.0
H227 H 0.41112 0.42769 0.42065 0.0
H228 H 0.23374 0.31456 0.48282 0.0
H229 H 0.21854 0.25863 0.41343 0.0
H230 H 0.12828 0.25415 0.43684 0.0
H231 H 0.13956 0.33393 0.21468 0.0
H232 H 0.13712 0.2596 0.1322 0.0
H233 H 0.26054 0.26047 0.27502 0.0
C234 C 0.27433 0.43377 0.45598 0.0
C235 C 0.25049 0.46716 0.46397 0.0
C236 C 0.20371 0.45534 0.4126 0.0
C237 C 0.18374 0.41295 0.35334 0.0
C238 C 0.2097 0.38187 0.34661 0.0
C239 C 0.25237 0.39062 0.39704 0.0
C240 C 0.27174 0.35043 0.37731 0.0
C241 C 0.38417 0.4024 0.36951 0.0
C242 C 0.2093 0.2909 0.4308 0.0
C243 C 0.23508 0.31885 0.30714 0.0
C244 C 0.20018 0.33814 0.29048 0.0
C245 C 0.16541 0.3177 0.2276 0.0
C246 C 0.16476 0.27558 0.18091 0.0
C247 C 0.19787 0.25351 0.1972 0.0
C248 C 0.23386 0.27581 0.26127 0.0
H249 H 0.69483 0.89461 0.49644 0.0
H250 H 0.55985 0.68516 0.4679 0.0
H251 H 0.65914 0.7204 0.35086 0.0
H252 H 0.69401 0.90804 0.32584 0.0
H253 H 0.81013 1.00426 0.31898 0.0
H254 H 0.73519 0.96335 0.40333 0.0
H255 H 0.89072 1.02132 0.44237 0.0
H256 H 0.96348 0.05772 0.35604 0.0
H257 H 0.94675 0.99935 0.39606 0.0
H258 H 0.74969 0.7682 0.23231 0.0
H259 H 0.83672 0.83079 0.11863 0.0
H260 H 0.92533 1.01357 0.22056 0.0
C261 C 0.68866 0.85715 0.4663 0.0
C262 C 0.61909 0.78703 0.4916 0.0
C263 C 0.61188 0.73904 0.44991 0.0
C264 C 0.66833 0.75856 0.38315 0.0
C265 C 0.73363 0.82691 0.35873 0.0
C266 C 0.74586 0.87617 0.39915 0.0
C267 C 0.81527 0.94383 0.35721 0.0
C268 C 0.76045 0.95582 0.35101 0.0
C269 C 0.90979 1.00962 0.38987 0.0
C270 C 0.83847 0.92406 0.28686 0.0
C271 C 0.79008 0.85613 0.28936 0.0
C272 C 0.78984 0.82207 0.22977 0.0
C273 C 0.83911 0.85781 0.16546 0.0
C274 C 0.88929 0.92729 0.16131 0.0
C275 C 0.89045 0.96141 0.22296 0.0
H276 H 1.0197 0.3703 0.57741 0.0
H277 H 0.75346 0.1741 0.48984 0.0
H278 H 0.74604 0.1041 0.54839 0.0
H279 H 0.12571 0.31354 0.57533 0.0
H280 H 0.1692 0.35727 0.65793 0.0
H281 H 0.1653 0.39368 0.59954 0.0
H282 H 1.05735 0.38956 0.69576 0.0
H283 H 1.05756 0.35208 0.75632 0.0
H284 H 0.94029 0.30569 0.7391 0.0
H285 H 0.74877 0.05404 0.63504 0.0
H286 H 0.78917 1.02978 0.71711 0.0
H287 H 1.05446 0.25849 0.74805 0.0
C288 C 0.96415 0.31324 0.56668 0.0
C289 C 0.88847 0.27768 0.52766 0.0
C290 C 0.81383 0.20248 0.51753 0.0
C291 C 0.80781 0.16218 0.55202 0.0
C292 C 0.8779 0.19817 0.59568 0.0
C293 C 0.95708 0.27232 0.60094 0.0
C294 C 1.01873 0.29746 0.65462 0.0
C295 C 0.12612 0.34309 0.61971 0.0
C296 C 1.01838 0.33859 0.71503 0.0
C297 C 0.96123 0.22607 0.67947 0.0
C298 C 0.87932 0.16937 0.6456 0.0
C299 C 0.81343 0.09815 0.66114 0.0
C300 C 0.83571 0.08478 0.70891 0.0
C301 C 0.92344 0.14225 0.74013 0.0
C302 C 0.98536 0.21367 0.72657 0.0
H303 H 0.79531 0.557 0.58388 0.0
H304 H 0.95111 0.69898 0.40898 0.0
H305 H 0.98492 0.78845 0.49013 0.0
H306 H 0.67413 0.59408 0.66962 0.0
H307 H 0.67889 0.59041 0.75761 0.0
H308 H 0.67303 0.53743 0.69003 0.0
H309 H 0.8346 0.59392 0.7122 0.0
H310 H 0.8415 0.64495 0.78362 0.0
H311 H 0.94648 0.69038 0.71389 0.0
H312 H 1.00285 0.86339 0.59157 0.0
H313 H 0.99649 0.9147 0.70357 0.0
H314 H 0.81706 0.72031 0.81149 0.0
C315 C 0.83756 0.60726 0.56273 0.0
C316 C 0.87245 0.6215 0.48998 0.0
C317 C 0.925 0.68719 0.46445 0.0
C318 C 0.94442 0.73839 0.51023 0.0
C319 C 0.90877 0.72259 0.58158 0.0
C320 C 0.85554 0.65829 0.60761 0.0
C321 C 0.81994 0.65258 0.68582 0.0
C322 C 0.70469 0.58985 0.70168 0.0
C323 C 0.86322 0.64503 0.72627 0.0
C324 C 0.86379 0.72451 0.70016 0.0
C325 C 0.9147 0.76406 0.63927 0.0
C326 C 0.96231 0.83247 0.63938 0.0
C327 C 0.95762 0.86105 0.70325 0.0
C328 C 0.90479 0.8213 0.76629 0.0
C329 C 0.85756 0.75206 0.76432 0.0
H330 H 0.54765 0.33092 0.57985 0.0
H331 H 0.40226 0.13081 0.47495 0.0
H332 H 0.28494 0.06429 0.58384 0.0
H333 H 0.53568 0.2852 0.74173 0.0
H334 H 0.51597 0.33016 0.79573 0.0
H335 H 0.58419 0.36145 0.70806 0.0
H336 H 0.45988 0.34791 0.67994 0.0
H337 H 0.39052 0.3153 0.7673 0.0
H338 H 0.32731 0.26208 0.69272 0.0
H339 H 0.18449 1.01919 0.70255 0.0
H340 H 0.12092 0.99944 0.82925 0.0
H341 H 0.33397 0.22801 0.86075 0.0
C342 C 0.4907 0.27305 0.57958 0.0
C343 C 0.48232 0.23587 0.51802 0.0
C344 C 0.40899 0.16044 0.5208 0.0
C345 C 0.34167 0.12205 0.58243 0.0
C346 C 0.35008 0.16 0.64142 0.0
C347 C 0.42399 0.23394 0.64117 0.0
C348 C 0.42144 0.26197 0.71356 0.0
C349 C 0.52016 0.31269 0.74139 0.0
C350 C 0.3984 0.299 0.71332 0.0
C351 C 0.33468 0.1921 0.75444 0.0
C352 C 0.29361 0.13397 0.71127 0.0
C353 C 0.21462 0.06398 0.73674 0.0
C354 C 0.1778 0.05309 0.80855 0.0
C355 C 0.21979 0.1117 0.85409 0.0
C356 C 0.29913 0.18213 0.82666 0.0
H357 H 0.59597 0.45225 0.98585 0.0
H358 H 0.45595 0.42996 0.20004 0.0
H359 H 0.39292 0.4588 0.15783 0.0
H360 H 0.70492 0.61554 0.96666 0.0
H361 H 0.70235 0.60659 0.87434 0.0
H362 H 0.70951 0.56171 0.91311 0.0
H363 H 0.5519 0.43987 0.8661 0.0
H364 H 0.53928 0.48084 0.82584 0.0
H365 H 0.43673 0.40799 0.8867 0.0
H366 H 0.35374 0.49732 0.09202 0.0
H367 H 0.37875 0.5719 0.02376 0.0
H368 H 0.58827 0.60316 0.86423 0.0
C369 C 0.5552 0.45513 0.02601 0.0
C370 C 0.53522 0.44066 0.09802 0.0
C371 C 0.47357 0.4404 0.14488 0.0
C372 C 0.43694 0.45674 0.12117 0.0
C373 C 0.46416 0.47485 0.05073 0.0
C374 C 0.52436 0.47604 0.00453 0.0
C375 C 0.56077 0.51116 0.93556 0.0
C376 C 0.67616 0.57763 0.92162 0.0
C377 C 0.51979 0.45677 0.87498 0.0
C378 C 0.51393 0.53195 0.95056 0.0
C379 C 0.45391 0.50668 0.01583 0.0
C380 C 0.40187 0.51831 0.0416 0.0
C381 C 0.41692 0.56094 0.00224 0.0
C382 C 0.48842 0.59559 0.93972 0.0
C383 C 0.53367 0.57783 0.91173 0.0
H384 H 0.39894 0.83713 0.98027 0.0
H385 H 0.61866 0.98758 0.80778 0.0
H386 H 0.64131 0.07778 0.87538 0.0
H387 H 0.28546 0.88599 0.02861 0.0
H388 H 0.26612 0.8746 0.12083 0.0
H389 H 0.26629 0.82211 0.05828 0.0
H390 H 0.40798 0.86921 0.11092 0.0
H391 H 0.40316 0.91886 0.17454 0.0
H392 H 0.52031 0.96511 0.11982 0.0
H393 H 0.63957 0.152 0.96384 0.0
H394 H 0.62192 0.20555 0.06622 0.0
H395 H 0.40524 1.00634 0.18087 0.0
C396 C 0.45207 0.88905 0.95646 0.0
C397 C 0.50709 0.90514 0.88844 0.0
C398 C 0.57553 0.97383 0.85961 0.0
C399 C 0.58862 1.02534 0.89762 0.0
C400 C 0.53234 1.00731 0.9643 0.0
C401 C 0.46566 0.94078 0.99342 0.0
C402 C 0.41511 0.93472 0.06623 0.0
C403 C 0.30149 0.87584 0.06853 0.0
C404 C 0.43797 0.9211 0.12114 0.0
C405 C 0.46551 1.00894 0.07464 0.0
C406 C 0.53187 0.04974 0.01492 0.0
C407 C 0.58786 0.12037 0.01075 0.0
C408 C 0.57724 0.15038 0.0694 0.0
C409 C 0.51223 0.11038 0.13212 0.0
C410 C 0.45507 0.0384 0.13398 0.0
H411 H 0.23256 0.6719 0.89938 0.0
H412 H 0.09078 0.47519 0.78762 0.0
H413 H 0.95701 0.40412 0.88859 0.0
H414 H 0.1873 0.61314 0.0634 0.0
H415 H 0.16496 0.65727 0.11492 0.0
H416 H 0.24473 0.69341 0.03097 0.0
H417 H 0.13324 0.68677 0.99134 0.0
H418 H 1.05156 0.64912 0.07465 0.0
H419 H 1.00095 0.60215 0.99467 0.0
H420 H 0.84762 0.35423 1.00107 0.0
H421 H 0.76649 0.32576 0.12309 0.0
H422 H 0.97514 0.55282 0.16879 0.0
C423 C 0.17301 0.61393 0.89592 0.0
C424 C 0.17259 0.57929 0.83523 0.0
C425 C 0.09326 0.5032 0.8332 0.0
C426 C 1.01643 0.46219 0.8903 0.0
C427 C 1.01962 0.49787 0.9493 0.0
C428 C 0.09555 0.57189 0.953 0.0
C429 C 0.08417 0.59608 0.02535 0.0
C430 C 0.17582 0.64283 0.06076 0.0
C431 C 0.06636 0.63586 0.02125 0.0
C432 C 0.99118 0.52387 0.06192 0.0
C433 C 0.95531 0.46837 0.01623 0.0
C434 C 0.87443 0.39705 0.03732 0.0
C435 C 0.82916 0.3816 0.10723 0.0
C436 C 0.86441 0.43703 0.15602 0.0
C437 C 0.946 0.50928 0.13274 0.0
loop_
_geom_bond_atom_site_label_1
_geom_bond_atom_site_label_2
_geom_bond_distance
_geom_bond_site_symmetry_2
_ccdc_geom_bond_type
Eu0 O2 2.323 . S
Eu0 O10 2.328 1_556 S
Eu0 O21 2.316 1_655 S
Eu0 C22 2.837 . S
Eu0 O23 2.488 . S
Eu0 O31 2.461 . S
C1 O12 1.251 . S
C1 O21 1.237 1_545 S
O2 Eu0 2.323 . S
O2 C18 1.279 . S
C3 C5 1.383 . S
C3 C7 1.388 1_545 S
C3 C17 1.491 . S
C4 C6 1.403 . S
C4 C8 1.385 . S
C4 H32 0.931 . S
C5 C3 1.383 . S
C5 C6 1.393 1_545 S
C5 H33 0.930 . S
C6 C4 1.403 . S
C6 C5 1.393 1_565 S
C7 C3 1.388 1_565 S
C7 C8 1.394 . S
C7 H34 0.930 . S
C8 C4 1.385 . S
C8 C7 1.394 . S
Eu9 O11 2.323 . S
Eu9 O12 2.328 1_554 S
Eu9 O13 2.316 1_455 S
Eu9 O16 2.488 . S
Eu9 C17 2.837 . S
Eu9 O20 2.461 . S
O10 Eu0 2.328 1_554 S
O10 C30 1.251 . S
O11 Eu9 2.323 . S
O11 C14 1.279 . S
O12 C1 1.251 . S
O12 Eu9 2.328 1_556 S
O13 Eu9 2.316 1_655 S
O13 C30 1.237 1_545 S
C14 O11 1.279 . S
C14 O15 1.244 . S
O15 C14 1.244 . S
O16 Eu9 2.488 . S
O16 C17 1.271 . S
C17 C3 1.491 . S
C17 Eu9 2.837 . S
C17 O16 1.271 . S
C17 O20 1.261 . S
C18 O2 1.279 . S
C18 O19 1.244 . S
O19 C18 1.244 . S
O20 Eu9 2.461 . S
O20 C17 1.261 . S
O21 Eu0 2.316 1_455 S
O21 C1 1.237 1_565 S
C22 Eu0 2.837 . S
C22 O23 1.271 . S
C22 C24 1.491 . S
C22 O31 1.261 . S
O23 Eu0 2.488 . S
O23 C22 1.271 . S
C24 C22 1.491 . S
C24 C26 1.383 . S
C24 C28 1.388 1_565 S
C25 C27 1.403 . S
C25 C29 1.385 . S
C25 H35 0.931 . S
C26 C24 1.383 . S
C26 C27 1.393 1_565 S
C26 H36 0.930 . S
C27 C25 1.403 . S
C27 C26 1.393 1_545 S
C28 C24 1.388 1_545 S
C28 C29 1.394 . S
C28 H37 0.930 . S
C29 C25 1.385 . S
C29 C28 1.394 . S
C30 O10 1.251 . S
C30 O13 1.237 1_565 S
O31 Eu0 2.461 . S
O31 C22 1.261 . S
H32 C4 0.931 . S
H33 C5 0.930 . S
H34 C7 0.930 . S
H35 C25 0.931 . S
H36 C26 0.930 . S
H37 C28 0.930 . S
Eu38 O40 2.323 . S
Eu38 O48 2.328 . S
Eu38 O59 2.316 . S
Eu38 C60 2.837 . S
Eu38 O61 2.488 . S
Eu38 O69 2.461 . S
C39 O50 1.251 . S
C39 O59 1.237 . S
O40 Eu38 2.323 . S
O40 C56 1.279 . S
C41 C43 1.383 . S
C41 C45 1.388 . S
C41 C55 1.491 . S
C42 C44 1.403 . S
C42 C46 1.385 . S
C42 H70 0.931 . S
C43 C41 1.383 . S
C43 C44 1.393 . S
C43 H71 0.930 . S
C44 C42 1.403 . S
C44 C43 1.393 . S
C45 C41 1.388 . S
C45 C46 1.394 . S
C45 H72 0.930 . S
C46 C42 1.385 . S
C46 C45 1.394 . S
Eu47 O49 2.323 . S
Eu47 O50 2.328 . S
Eu47 O51 2.316 . S
Eu47 O54 2.488 . S
Eu47 C55 2.837 . S
Eu47 O58 2.461 . S
O48 Eu38 2.328 . S
O48 C68 1.251 . S
O49 Eu47 2.323 . S
O49 C52 1.279 . S
O50 C39 1.251 . S
O50 Eu47 2.328 . S
O51 Eu47 2.316 . S
O51 C68 1.237 . S
C52 O49 1.279 . S
C52 O53 1.244 . S
O53 C52 1.244 . S
O54 Eu47 2.488 . S
O54 C55 1.271 . S
C55 C41 1.491 . S
C55 Eu47 2.837 . S
C55 O54 1.271 . S
C55 O58 1.261 . S
C56 O40 1.279 . S
C56 O57 1.244 . S
O57 C56 1.244 . S
O58 Eu47 2.461 . S
O58 C55 1.261 . S
O59 Eu38 2.316 . S
O59 C39 1.237 . S
C60 Eu38 2.837 . S
C60 O61 1.271 . S
C60 C62 1.491 . S
C60 O69 1.261 . S
O61 Eu38 2.488 . S
O61 C60 1.271 . S
C62 C60 1.491 . S
C62 C64 1.383 . S
C62 C66 1.388 . S
C63 C65 1.403 . S
C63 C67 1.385 . S
C63 H73 0.931 . S
C64 C62 1.383 . S
C64 C65 1.393 . S
C64 H74 0.930 . S
C65 C63 1.403 . S
C65 C64 1.393 . S
C66 C62 1.388 . S
C66 C67 1.394 . S
C66 H75 0.930 . S
C67 C63 1.385 . S
C67 C66 1.394 . S
C68 O48 1.251 . S
C68 O51 1.237 . S
O69 Eu38 2.461 . S
O69 C60 1.261 . S
H70 C42 0.931 . S
H71 C43 0.930 . S
H72 C45 0.930 . S
H73 C63 0.931 . S
H74 C64 0.930 . S
H75 C66 0.930 . S
Eu76 O78 2.323 . S
Eu76 O86 2.328 . S
Eu76 O97 2.316 . S
Eu76 C98 2.837 . S
Eu76 O99 2.488 . S
Eu76 O107 2.461 . S
C77 O88 1.251 . S
C77 O97 1.237 . S
O78 Eu76 2.323 . S
O78 C94 1.279 . S
C79 C81 1.383 . S
C79 C83 1.388 . S
C79 C93 1.491 . S
C80 C82 1.403 . S
C80 C84 1.385 . S
C80 H108 0.931 . S
C81 C79 1.383 . S
C81 C82 1.393 . S
C81 H109 0.930 . S
C82 C80 1.403 . S
C82 C81 1.393 . S
C83 C79 1.388 . S
C83 C84 1.394 . S
C83 H110 0.930 . S
C84 C80 1.385 . S
C84 C83 1.394 . S
Eu85 O87 2.323 . S
Eu85 O88 2.328 . S
Eu85 O89 2.316 . S
Eu85 O92 2.488 . S
Eu85 C93 2.837 . S
Eu85 O96 2.461 . S
O86 Eu76 2.328 . S
O86 C106 1.251 . S
O87 Eu85 2.323 . S
O87 C90 1.279 . S
O88 C77 1.251 . S
O88 Eu85 2.328 . S
O89 Eu85 2.316 . S
O89 C106 1.237 . S
C90 O87 1.279 . S
C90 O91 1.244 . S
O91 C90 1.244 . S
O92 Eu85 2.488 . S
O92 C93 1.271 . S
C93 C79 1.491 . S
C93 Eu85 2.837 . S
C93 O92 1.271 . S
C93 O96 1.261 . S
C94 O78 1.279 . S
C94 O95 1.244 . S
O95 C94 1.244 . S
O96 Eu85 2.461 . S
O96 C93 1.261 . S
O97 Eu76 2.316 . S
O97 C77 1.237 . S
C98 Eu76 2.837 . S
C98 O99 1.271 . S
C98 C100 1.491 . S
C98 O107 1.261 . S
O99 Eu76 2.488 . S
O99 C98 1.271 . S
C100 C98 1.491 . S
C100 C102 1.383 . S
C100 C104 1.388 . S
C101 C103 1.403 . S
C101 C105 1.385 . S
C101 H111 0.931 . S
C102 C100 1.383 . S
C102 C103 1.393 . S
C102 H112 0.930 . S
C103 C101 1.403 . S
C103 C102 1.393 . S
C104 C100 1.388 . S
C104 C105 1.394 . S
C104 H113 0.930 . S
C105 C101 1.385 . S
C105 C104 1.394 . S
C106 O86 1.251 . S
C106 O89 1.237 . S
O107 Eu76 2.461 . S
O107 C98 1.261 . S
H108 C80 0.931 . S
H109 C81 0.930 . S
H110 C83 0.930 . S
H111 C101 0.931 . S
H112 C102 0.930 . S
H113 C104 0.930 . S
H114 C126 0.930 . S
H115 C128 0.930 . S
H116 C129 0.930 . S
H117 C133 0.959 1_655 S
H118 C133 0.959 . S
H119 C133 0.961 . S
H120 C134 0.960 . S
H121 C134 0.961 . S
H122 C134 0.959 . S
H123 C137 0.929 . S
H124 C138 0.931 . S
H125 C140 0.930 . S
C126 H114 0.930 . S
C126 C127 1.399 . S
C126 C131 1.399 . S
C127 C126 1.399 . S
C127 C128 1.376 1_545 S
C128 H115 0.930 . S
C128 C127 1.376 1_565 S
C128 C129 1.388 . S
C129 H116 0.930 . S
C129 C128 1.388 . S
C129 C130 1.390 . S
C130 C129 1.390 . S
C130 C131 1.394 1_565 S
C130 C136 1.465 1_655 S
C131 C126 1.399 . S
C131 C130 1.394 1_545 S
C131 C132 1.516 1_655 S
C132 C131 1.516 1_455 S
C132 C133 1.502 . S
C132 C134 1.561 . S
C132 C135 1.526 . S
C133 H117 0.959 1_455 S
C133 H118 0.959 . S
C133 H119 0.961 . S
C133 C132 1.502 . S
C134 H120 0.960 . S
C134 H121 0.961 . S
C134 H122 0.959 . S
C134 C132 1.561 . S
C135 C132 1.526 . S
C135 C136 1.396 1_545 S
C135 C140 1.390 . S
C136 C130 1.465 1_455 S
C136 C135 1.396 1_565 S
C136 C137 1.399 1_455 S
C137 H123 0.929 . S
C137 C136 1.399 1_655 S
C137 C138 1.385 1_655 S
C138 H124 0.931 . S
C138 C137 1.385 1_455 S
C138 C139 1.389 . S
C139 C138 1.389 . S
C139 C140 1.387 1_565 S
C140 H125 0.930 . S
C140 C135 1.390 . S
C140 C139 1.387 1_545 S
H141 C153 0.930 . S
H142 C155 0.930 . S
H143 C156 0.930 . S
H144 C160 0.959 . S
H145 C160 0.959 . S
H146 C160 0.961 . S
H147 C161 0.960 . S
H148 C161 0.961 . S
H149 C161 0.959 . S
H150 C164 0.929 . S
H151 C165 0.931 1_554 S
H152 C167 0.930 . S
C153 H141 0.930 . S
C153 C154 1.399 . S
C153 C158 1.399 . S
C154 C153 1.399 . S
C154 C155 1.376 . S
C155 H142 0.930 . S
C155 C154 1.376 . S
C155 C156 1.388 . S
C156 H143 0.930 . S
C156 C155 1.388 . S
C156 C157 1.390 . S
C157 C156 1.390 . S
C157 C158 1.394 . S
C157 C163 1.465 . S
C158 C153 1.399 . S
C158 C157 1.394 . S
C158 C159 1.516 . S
C159 C158 1.516 . S
C159 C160 1.502 . S
C159 C161 1.561 . S
C159 C162 1.526 . S
C160 H144 0.959 . S
C160 H145 0.959 . S
C160 H146 0.961 . S
C160 C159 1.502 . S
C161 H147 0.960 . S
C161 H148 0.961 . S
C161 H149 0.959 . S
C161 C159 1.561 . S
C162 C159 1.526 . S
C162 C163 1.396 . S
C162 C167 1.390 . S
C163 C157 1.465 . S
C163 C162 1.396 . S
C163 C164 1.399 . S
C164 H150 0.929 . S
C164 C163 1.399 . S
C164 C165 1.385 . S
C165 H151 0.931 1_556 S
C165 C164 1.385 . S
C165 C166 1.389 . S
C166 C165 1.389 . S
C166 C167 1.387 . S
C167 H152 0.930 . S
C167 C162 1.390 . S
C167 C166 1.387 . S
H168 C180 0.930 . S
H169 C182 0.930 1_556 S
H170 C183 0.930 . S
H171 C187 0.959 . S
H172 C187 0.959 . S
H173 C187 0.961 . S
H174 C188 0.960 . S
H175 C188 0.961 . S
H176 C188 0.959 . S
H177 C191 0.929 . S
H178 C192 0.931 . S
H179 C194 0.930 . S
C180 H168 0.930 . S
C180 C181 1.399 . S
C180 C185 1.399 . S
C181 C180 1.399 . S
C181 C182 1.376 . S
C182 H169 0.930 1_554 S
C182 C181 1.376 . S
C182 C183 1.388 . S
C183 H170 0.930 . S
C183 C182 1.388 . S
C183 C184 1.390 . S
C184 C183 1.390 . S
C184 C185 1.394 . S
C184 C190 1.465 . S
C185 C180 1.399 . S
C185 C184 1.394 . S
C185 C186 1.516 . S
C186 C185 1.516 . S
C186 C187 1.502 . S
C186 C188 1.561 . S
C186 C189 1.526 . S
C187 H171 0.959 . S
C187 H172 0.959 . S
C187 H173 0.961 . S
C187 C186 1.502 . S
C188 H174 0.960 . S
C188 H175 0.961 . S
C188 H176 0.959 . S
C188 C186 1.561 . S
C189 C186 1.526 . S
C189 C190 1.396 . S
C189 C194 1.390 . S
C190 C184 1.465 . S
C190 C189 1.396 . S
C190 C191 1.399 . S
C191 H177 0.929 . S
C191 C190 1.399 . S
C191 C192 1.385 . S
C192 H178 0.931 . S
C192 C191 1.385 . S
C192 C193 1.389 . S
C193 C192 1.389 . S
C193 C194 1.387 . S
C194 H179 0.930 . S
C194 C189 1.390 . S
C194 C193 1.387 . S
H195 C207 0.930 . S
H196 C209 0.930 . S
H197 C210 0.930 . S
H198 C214 0.959 . S
H199 C214 0.959 . S
H200 C214 0.961 . S
H201 C215 0.960 . S
H202 C215 0.961 . S
H203 C215 0.959 . S
H204 C218 0.929 . S
H205 C219 0.931 . S
H206 C221 0.930 . S
C207 H195 0.930 . S
C207 C208 1.399 . S
C207 C212 1.399 . S
C208 C207 1.399 . S
C208 C209 1.376 . S
C209 H196 0.930 . S
C209 C208 1.376 . S
C209 C210 1.388 . S
C210 H197 0.930 . S
C210 C209 1.388 . S
C210 C211 1.390 . S
C211 C210 1.390 . S
C211 C212 1.394 . S
C211 C217 1.465 . S
C212 C207 1.399 . S
C212 C211 1.394 . S
C212 C213 1.516 . S
C213 C212 1.516 . S
C213 C214 1.502 . S
C213 C215 1.561 . S
C213 C216 1.526 . S
C214 H198 0.959 . S
C214 H199 0.959 . S
C214 H200 0.961 . S
C214 C213 1.502 . S
C215 H201 0.960 . S
C215 H202 0.961 . S
C215 H203 0.959 . S
C215 C213 1.561 . S
C216 C213 1.526 . S
C216 C217 1.396 . S
C216 C221 1.390 . S
C217 C211 1.465 . S
C217 C216 1.396 . S
C217 C218 1.399 . S
C218 H204 0.929 . S
C218 C217 1.399 . S
C218 C219 1.385 . S
C219 H205 0.931 . S
C219 C218 1.385 . S
C219 C220 1.389 . S
C220 C219 1.389 . S
C220 C221 1.387 . S
C221 H206 0.930 . S
C221 C216 1.390 . S
C221 C220 1.387 . S
H222 C234 0.930 . S
H223 C236 0.930 . S
H224 C237 0.930 . S
H225 C241 0.959 . S
H226 C241 0.959 . S
H227 C241 0.961 . S
H228 C242 0.960 . S
H229 C242 0.961 . S
H230 C242 0.959 . S
H231 C245 0.929 . S
H232 C246 0.931 . S
H233 C248 0.930 . S
C234 H222 0.930 . S
C234 C235 1.399 . S
C234 C239 1.399 . S
C235 C234 1.399 . S
C235 C236 1.376 . S
C236 H223 0.930 . S
C236 C235 1.376 . S
C236 C237 1.388 . S
C237 H224 0.930 . S
C237 C236 1.388 . S
C237 C238 1.390 . S
C238 C237 1.390 . S
C238 C239 1.394 . S
C238 C244 1.465 . S
C239 C234 1.399 . S
C239 C238 1.394 . S
C239 C240 1.516 . S
C240 C239 1.516 . S
C240 C241 1.502 . S
C240 C242 1.561 . S
C240 C243 1.526 . S
C241 H225 0.959 . S
C241 H226 0.959 . S
C241 H227 0.961 . S
C241 C240 1.502 . S
C242 H228 0.960 . S
C242 H229 0.961 . S
C242 H230 0.959 . S
C242 C240 1.561 . S
C243 C240 1.526 . S
C243 C244 1.396 . S
C243 C248 1.390 . S
C244 C238 1.465 . S
C244 C243 1.396 . S
C244 C245 1.399 . S
C245 H231 0.929 . S
C245 C244 1.399 . S
C245 C246 1.385 . S
C246 H232 0.931 . S
C246 C245 1.385 . S
C246 C247 1.389 . S
C247 C246 1.389 . S
C247 C248 1.387 . S
C248 H233 0.930 . S
C248 C243 1.390 . S
C248 C247 1.387 . S
H249 C261 0.930 . S
H250 C263 0.930 . S
H251 C264 0.930 . S
H252 C268 0.959 . S
H253 C268 0.959 . S
H254 C268 0.961 . S
H255 C269 0.960 . S
H256 C269 0.961 . S
H257 C269 0.959 . S
H258 C272 0.929 . S
H259 C273 0.931 . S
H260 C275 0.930 . S
C261 H249 0.930 . S
C261 C262 1.399 . S
C261 C266 1.399 . S
C262 C261 1.399 . S
C262 C263 1.376 . S
C263 H250 0.930 . S
C263 C262 1.376 . S
C263 C264 1.388 . S
C264 H251 0.930 . S
C264 C263 1.388 . S
C264 C265 1.390 . S
C265 C264 1.390 . S
C265 C266 1.394 . S
C265 C271 1.465 . S
C266 C261 1.399 . S
C266 C265 1.394 . S
C266 C267 1.516 . S
C267 C266 1.516 . S
C267 C268 1.502 . S
C267 C269 1.561 . S
C267 C270 1.526 . S
C268 H252 0.959 . S
C268 H253 0.959 . S
C268 H254 0.961 . S
C268 C267 1.502 . S
C269 H255 0.960 . S
C269 H256 0.961 . S
C269 H257 0.959 . S
C269 C267 1.561 . S
C270 C267 1.526 . S
C270 C271 1.396 . S
C270 C275 1.390 . S
C271 C265 1.465 . S
C271 C270 1.396 . S
C271 C272 1.399 . S
C272 H258 0.929 . S
C272 C271 1.399 . S
C272 C273 1.385 . S
C273 H259 0.931 . S
C273 C272 1.385 . S
C273 C274 1.389 . S
C274 C273 1.389 . S
C274 C275 1.387 . S
C275 H260 0.930 . S
C275 C270 1.390 . S
C275 C274 1.387 . S
H276 C288 0.930 . S
H277 C290 0.930 . S
H278 C291 0.930 . S
H279 C295 0.959 . S
H280 C295 0.959 . S
H281 C295 0.961 . S
H282 C296 0.960 . S
H283 C296 0.961 . S
H284 C296 0.959 . S
H285 C299 0.929 . S
H286 C300 0.931 . S
H287 C302 0.930 . S
C288 H276 0.930 . S
C288 C289 1.399 . S
C288 C293 1.399 . S
C289 C288 1.399 . S
C289 C290 1.376 . S
C290 H277 0.930 . S
C290 C289 1.376 . S
C290 C291 1.388 . S
C291 H278 0.930 . S
C291 C290 1.388 . S
C291 C292 1.390 . S
C292 C291 1.390 . S
C292 C293 1.394 . S
C292 C298 1.465 . S
C293 C288 1.399 . S
C293 C292 1.394 . S
C293 C294 1.516 . S
C294 C293 1.516 . S
C294 C295 1.502 1_655 S
C294 C296 1.561 . S
C294 C297 1.526 . S
C295 H279 0.959 . S
C295 H280 0.959 . S
C295 H281 0.961 . S
C295 C294 1.502 1_455 S
C296 H282 0.960 . S
C296 H283 0.961 . S
C296 H284 0.959 . S
C296 C294 1.561 . S
C297 C294 1.526 . S
C297 C298 1.396 . S
C297 C302 1.390 . S
C298 C292 1.465 . S
C298 C297 1.396 . S
C298 C299 1.399 . S
C299 H285 0.929 . S
C299 C298 1.399 . S
C299 C300 1.385 . S
C300 H286 0.931 . S
C300 C299 1.385 . S
C300 C301 1.389 . S
C301 C300 1.389 . S
C301 C302 1.387 . S
C302 H287 0.930 . S
C302 C297 1.390 . S
C302 C301 1.387 . S
H303 C315 0.930 . S
H304 C317 0.930 . S
H305 C318 0.930 . S
H306 C322 0.959 . S
H307 C322 0.959 . S
H308 C322 0.961 . S
H309 C323 0.960 . S
H310 C323 0.961 . S
H311 C323 0.959 . S
H312 C326 0.929 1_455 S
H313 C327 0.931 1_455 S
H314 C329 0.930 . S
C315 H303 0.930 . S
C315 C316 1.399 . S
C315 C320 1.399 . S
C316 C315 1.399 . S
C316 C317 1.376 . S
C317 H304 0.930 . S
C317 C316 1.376 . S
C317 C318 1.388 . S
C318 H305 0.930 . S
C318 C317 1.388 . S
C318 C319 1.390 . S
C319 C318 1.390 . S
C319 C320 1.394 . S
C319 C325 1.465 . S
C320 C315 1.399 . S
C320 C319 1.394 . S
C320 C321 1.516 . S
C321 C320 1.516 . S
C321 C322 1.502 . S
C321 C323 1.561 . S
C321 C324 1.526 . S
C322 H306 0.959 . S
C322 H307 0.959 . S
C322 H308 0.961 . S
C322 C321 1.502 . S
C323 H309 0.960 . S
C323 H310 0.961 . S
C323 H311 0.959 . S
C323 C321 1.561 . S
C324 C321 1.526 . S
C324 C325 1.396 . S
C324 C329 1.390 . S
C325 C319 1.465 . S
C325 C324 1.396 . S
C325 C326 1.399 . S
C326 H312 0.929 1_655 S
C326 C325 1.399 . S
C326 C327 1.385 . S
C327 H313 0.931 1_655 S
C327 C326 1.385 . S
C327 C328 1.389 . S
C328 C327 1.389 . S
C328 C329 1.387 . S
C329 H314 0.930 . S
C329 C324 1.390 . S
C329 C328 1.387 . S
H330 C342 0.930 . S
H331 C344 0.930 . S
H332 C345 0.930 . S
H333 C349 0.959 . S
H334 C349 0.959 . S
H335 C349 0.961 . S
H336 C350 0.960 . S
H337 C350 0.961 . S
H338 C350 0.959 . S
H339 C353 0.929 . S
H340 C354 0.931 . S
H341 C356 0.930 . S
C342 H330 0.930 . S
C342 C343 1.399 . S
C342 C347 1.399 . S
C343 C342 1.399 . S
C343 C344 1.376 . S
C344 H331 0.930 . S
C344 C343 1.376 . S
C344 C345 1.388 . S
C345 H332 0.930 . S
C345 C344 1.388 . S
C345 C346 1.390 . S
C346 C345 1.390 . S
C346 C347 1.394 . S
C346 C352 1.465 . S
C347 C342 1.399 . S
C347 C346 1.394 . S
C347 C348 1.516 . S
C348 C347 1.516 . S
C348 C349 1.502 . S
C348 C350 1.561 . S
C348 C351 1.526 . S
C349 H333 0.959 . S
C349 H334 0.959 . S
C349 H335 0.961 . S
C349 C348 1.502 . S
C350 H336 0.960 . S
C350 H337 0.961 . S
C350 H338 0.959 . S
C350 C348 1.561 . S
C351 C348 1.526 . S
C351 C352 1.396 . S
C351 C356 1.390 . S
C352 C346 1.465 . S
C352 C351 1.396 . S
C352 C353 1.399 . S
C353 H339 0.929 . S
C353 C352 1.399 . S
C353 C354 1.385 . S
C354 H340 0.931 . S
C354 C353 1.385 . S
C354 C355 1.389 . S
C355 C354 1.389 . S
C355 C356 1.387 . S
C356 H341 0.930 . S
C356 C351 1.390 . S
C356 C355 1.387 . S
H357 C369 0.931 . S
H358 C371 0.930 . S
H359 C372 0.930 . S
H360 C376 0.959 . S
H361 C376 0.959 . S
H362 C376 0.961 . S
H363 C377 0.960 . S
H364 C377 0.961 . S
H365 C377 0.959 . S
H366 C380 0.929 . S
H367 C381 0.931 . S
H368 C383 0.930 . S
C369 H357 0.931 . S
C369 C370 1.399 . S
C369 C374 1.399 . S
C370 C369 1.399 . S
C370 C371 1.376 . S
C371 H358 0.930 . S
C371 C370 1.376 . S
C371 C372 1.388 . S
C372 H359 0.930 . S
C372 C371 1.388 . S
C372 C373 1.390 . S
C373 C372 1.390 . S
C373 C374 1.394 . S
C373 C379 1.465 . S
C374 C369 1.399 . S
C374 C373 1.394 . S
C374 C375 1.516 1_554 S
C375 C374 1.516 1_556 S
C375 C376 1.502 . S
C375 C377 1.561 . S
C375 C378 1.526 . S
C376 H360 0.959 . S
C376 H361 0.959 . S
C376 H362 0.961 . S
C376 C375 1.502 . S
C377 H363 0.960 . S
C377 H364 0.961 . S
C377 H365 0.959 . S
C377 C375 1.561 . S
C378 C375 1.526 . S
C378 C379 1.396 1_556 S
C378 C383 1.390 . S
C379 C373 1.465 . S
C379 C378 1.396 1_554 S
C379 C380 1.399 . S
C380 H366 0.929 . S
C380 C379 1.399 . S
C380 C381 1.385 1_554 S
C381 H367 0.931 . S
C381 C380 1.385 1_556 S
C381 C382 1.389 . S
C382 C381 1.389 . S
C382 C383 1.387 . S
C383 H368 0.930 . S
C383 C378 1.390 . S
C383 C382 1.387 . S
H384 C396 0.930 . S
H385 C398 0.930 . S
H386 C399 0.929 1_545 S
H387 C403 0.959 . S
H388 C403 0.959 . S
H389 C403 0.961 . S
H390 C404 0.960 . S
H391 C404 0.961 . S
H392 C404 0.959 . S
H393 C407 0.929 1_556 S
H394 C408 0.931 . S
H395 C410 0.930 . S
C396 H384 0.930 . S
C396 C397 1.399 . S
C396 C401 1.399 . S
C397 C396 1.399 . S
C397 C398 1.376 . S
C398 H385 0.930 . S
C398 C397 1.376 . S
C398 C399 1.390 . S
C399 H386 0.929 1_565 S
C399 C398 1.390 . S
C399 C400 1.389 . S
C400 C399 1.389 . S
C400 C401 1.394 . S
C400 C406 1.465 1_566 S
C401 C396 1.399 . S
C401 C400 1.394 . S
C401 C402 1.516 1_556 S
C402 C401 1.516 1_554 S
C402 C403 1.502 . S
C402 C404 1.561 . S
C402 C405 1.526 1_565 S
C403 H387 0.959 . S
C403 H388 0.959 . S
C403 H389 0.961 . S
C403 C402 1.502 . S
C404 H390 0.960 . S
C404 H391 0.961 . S
C404 H392 0.959 . S
C404 C402 1.561 . S
C405 C402 1.526 1_545 S
C405 C406 1.396 . S
C405 C410 1.390 . S
C406 C400 1.465 1_544 S
C406 C405 1.396 . S
C406 C407 1.399 . S
C407 H393 0.929 1_554 S
C407 C406 1.399 . S
C407 C408 1.385 . S
C408 H394 0.931 . S
C408 C407 1.385 . S
C408 C409 1.389 . S
C409 C408 1.389 . S
C409 C410 1.387 . S
C410 H395 0.930 . S
C410 C405 1.390 . S
C410 C409 1.387 . S
H411 C423 0.930 . S
H412 C425 0.930 . S
H413 C426 0.930 . S
H414 C430 0.959 . S
H415 C430 0.959 . S
H416 C430 0.961 . S
H417 C431 0.960 . S
H418 C431 0.961 . S
H419 C431 0.959 . S
H420 C434 0.929 . S
H421 C435 0.931 . S
H422 C437 0.930 . S
C423 H411 0.930 . S
C423 C424 1.399 . S
C423 C428 1.399 . S
C424 C423 1.399 . S
C424 C425 1.376 . S
C425 H412 0.930 . S
C425 C424 1.376 . S
C425 C426 1.388 1_455 S
C426 H413 0.930 . S
C426 C425 1.388 1_655 S
C426 C427 1.390 . S
C427 C426 1.390 . S
C427 C428 1.394 1_655 S
C427 C433 1.465 1_556 S
C428 C423 1.399 . S
C428 C427 1.394 1_455 S
C428 C429 1.516 1_556 S
C429 C428 1.516 1_554 S
C429 C430 1.502 . S
C429 C431 1.561 . S
C429 C432 1.526 1_455 S
C430 H414 0.959 . S
C430 H415 0.959 . S
C430 H416 0.961 . S
C430 C429 1.502 . S
C431 H417 0.960 . S
C431 H418 0.961 . S
C431 H419 0.959 . S
C431 C429 1.561 . S
C432 C429 1.526 1_655 S
C432 C433 1.396 . S
C432 C437 1.390 . S
C433 C427 1.465 1_554 S
C433 C432 1.396 . S
C433 C434 1.399 . S
C434 H420 0.929 . S
C434 C433 1.399 . S
C434 C435 1.385 . S
C435 H421 0.931 . S
C435 C434 1.385 . S
C435 C436 1.389 . S
C436 C435 1.389 . S
C436 C437 1.387 . S
C437 H422 0.930 . S
C437 C432 1.390 . S
C437 C436 1.387 . S
C127 C27 0.718 . S
C139 C6 0.775 . S
C154 C44 0.707 . S
C166 C65 0.787 1_556 S
C181 C82 0.705 1_554 S
C193 C103 0.789 . S
C208 C105 2.374 . S
C220 C8 2.449 . S
C235 C94 1.276 . S
C247 C14 1.321 . S
C262 C77 1.592 . S
C274 C30 1.568 . S
C289 C46 2.429 . S
C301 C29 2.382 . S
C316 C52 1.250 . S
C328 C18 1.361 . S
C343 C68 1.589 . S
C355 C1 1.582 . S
C370 C67 2.436 . S
C382 C84 2.377 . S
C397 C90 1.252 . S
C409 C56 1.362 . S
C424 C106 1.582 . S
C436 C39 1.588 . S
