# Generated by pormake.
# Topology vby, (6)-cn, num edge types: 1
# Building blocks:
#     Node 0, Type 0, BuildingBlock: KUMBUR_clean_sbu_0, # of connection points: 6
#     Node 1, Type 0, BuildingBlock: KUMBUR_clean_sbu_0, # of connection points: 6
#     Node 2, Type 0, BuildingBlock: KUMBUR_clean_sbu_0, # of connection points: 6
#     Node 3, Type 0, BuildingBlock: KUMBUR_clean_sbu_0, # of connection points: 6
#     Node 4, Type 0, BuildingBlock: KUMBUR_clean_sbu_0, # of connection points: 6
#     Node 5, Type 0, BuildingBlock: KUMBUR_clean_sbu_0, # of connection points: 6
#     Node 6, Type 0, BuildingBlock: KUMBUR_clean_sbu_0, # of connection points: 6
#     Node 7, Type 0, BuildingBlock: KUMBUR_clean_sbu_0, # of connection points: 6
#     Edge 8, Type (0, 0), BuildingBlock: UVAHIK_clean_linker_0, # of connection points: 2
#     Edge 9, Type (0, 0), BuildingBlock: UVAHIK_clean_linker_0, # of connection points: 2
#     Edge 10, Type (0, 0), BuildingBlock: UVAHIK_clean_linker_0, # of connection points: 2
#     Edge 11, Type (0, 0), BuildingBlock: UVAHIK_clean_linker_0, # of connection points: 2
#     Edge 12, Type (0, 0), BuildingBlock: UVAHIK_clean_linker_0, # of connection points: 2
#     Edge 13, Type (0, 0), BuildingBlock: UVAHIK_clean_linker_0, # of connection points: 2
#     Edge 14, Type (0, 0), BuildingBlock: UVAHIK_clean_linker_0, # of connection points: 2
#     Edge 15, Type (0, 0), BuildingBlock: UVAHIK_clean_linker_0, # of connection points: 2
#     Edge 16, Type (0, 0), BuildingBlock: UVAHIK_clean_linker_0, # of connection points: 2
#     Edge 17, Type (0, 0), BuildingBlock: UVAHIK_clean_linker_0, # of connection points: 2
#     Edge 18, Type (0, 0), BuildingBlock: UVAHIK_clean_linker_0, # of connection points: 2
#     Edge 19, Type (0, 0), BuildingBlock: UVAHIK_clean_linker_0, # of connection points: 2
#     Edge 20, Type (0, 0), BuildingBlock: UVAHIK_clean_linker_0, # of connection points: 2
#     Edge 21, Type (0, 0), BuildingBlock: UVAHIK_clean_linker_0, # of connection points: 2
#     Edge 22, Type (0, 0), BuildingBlock: UVAHIK_clean_linker_0, # of connection points: 2
#     Edge 23, Type (0, 0), BuildingBlock: UVAHIK_clean_linker_0, # of connection points: 2
#     Edge 24, Type (0, 0), BuildingBlock: UVAHIK_clean_linker_0, # of connection points: 2
#     Edge 25, Type (0, 0), BuildingBlock: UVAHIK_clean_linker_0, # of connection points: 2
#     Edge 26, Type (0, 0), BuildingBlock: UVAHIK_clean_linker_0, # of connection points: 2
#     Edge 27, Type (0, 0), BuildingBlock: UVAHIK_clean_linker_0, # of connection points: 2
#     Edge 28, Type (0, 0), BuildingBlock: UVAHIK_clean_linker_0, # of connection points: 2
#     Edge 29, Type (0, 0), BuildingBlock: UVAHIK_clean_linker_0, # of connection points: 2
#     Edge 30, Type (0, 0), BuildingBlock: UVAHIK_clean_linker_0, # of connection points: 2
#     Edge 31, Type (0, 0), BuildingBlock: UVAHIK_clean_linker_0, # of connection points: 2
# Relax obj value: 0.109
# Max RMSD: 0.193
# Mean RMSD: 0.193
data_MOF--net-vby--node1-KUMBUR_clean_sbu_0--edge1-UVAHIK_clean_linker_0
_symmetry_space_group_name_H-M    P1
_symmetry_Int_Tables_number       1
_symmetry_cell_setting            triclinic
loop_
_symmetry_equiv_pos_as_xyz
'x, y, z'
_cell_length_a     18.790881
_cell_length_b     115.16192
_cell_length_c     38.998388
_cell_angle_alpha  115.29459
_cell_angle_beta   90.014757
_cell_angle_gamma 90.110189
loop_
_atom_site_label
_atom_site_type_symbol
_atom_site_fract_x
_atom_site_fract_y
_atom_site_fract_z
_atom_type_partial_charge
Tb0 Tb 0.10431 0.40129 0.02608 0.0
C1 C 0.95039 0.35299 0.93821 0.0
C2 C 0.84608 0.35528 0.97679 0.0
C3 C 0.8379 0.34363 0.90825 0.0
C4 C 0.91845 0.35785 0.97328 0.0
C5 C 0.91133 0.34536 0.90536 0.0
C6 C 0.80529 0.34857 0.94398 0.0
C7 C 1.02223 0.33978 0.87087 0.0
N8 N 1.0218 0.35445 0.93701 0.0
C9 C 0.05865 0.34722 0.90446 0.0
C10 C 0.94803 0.33906 0.87114 0.0
Tb11 Tb 0.07676 0.36738 0.99326 0.0
N12 N 0.95995 0.36419 0.00419 0.0
C13 C 0.93322 0.36743 0.03971 0.0
C14 C 0.8178 0.35904 0.01313 0.0
C15 C 0.86198 0.36492 0.04471 0.0
H16 H 0.11608 0.34775 0.90414 0.0
H17 H 0.84107 0.36765 0.07295 0.0
H18 H 0.74926 0.34672 0.94604 0.0
H19 H 0.05142 0.33454 0.84488 0.0
H20 H 0.96633 0.37193 0.06441 0.0
H21 H 0.18371 0.42256 0.93163 0.0
H22 H 0.76255 0.3572 0.01708 0.0
H23 H 0.19128 0.40063 0.10024 0.0
H24 H 0.09935 0.41386 0.963 0.0
H25 H 0.31033 0.40518 0.12761 0.0
H26 H 0.80664 0.33797 0.88328 0.0
H27 H 0.31149 0.42434 0.94826 0.0
H28 H 0.40737 0.42272 0.99066 0.0
H29 H 0.92 0.33312 0.84523 0.0
H30 H 0.44121 0.4185 0.0452 0.0
N31 N 0.1792 0.40933 0.99432 0.0
C32 C 0.15534 0.41417 0.9697 0.0
C33 C 0.27482 0.42024 0.96154 0.0
C34 C 0.2978 0.41666 0.98973 0.0
C35 C 0.20286 0.41924 0.95207 0.0
C36 C 0.24785 0.41135 0.00614 0.0
H37 H 0.40481 0.41246 0.09721 0.0
N38 N 0.21617 0.40448 0.05274 0.0
C39 C 0.2991 0.40618 0.10179 0.0
C40 C 0.26669 0.40906 0.03682 0.0
C41 C 0.23118 0.40339 0.08559 0.0
C42 C 0.35217 0.41033 0.08467 0.0
C43 C 0.33627 0.41191 0.05193 0.0
O44 O 0.09736 0.41683 0.08 0.0
O45 O 1.02576 0.38623 0.01692 0.0
O46 O 0.05734 0.37197 0.94502 0.0
O47 O 0.10885 0.39228 0.96384 0.0
O48 O 0.99902 0.40067 0.00136 0.0
O49 O 0.05672 0.41858 0.03114 0.0
O50 O 0.14141 0.35076 0.97518 0.0
O51 O 0.15532 0.38298 0.01338 0.0
O52 O 0.06911 0.39779 0.07462 0.0
O53 O 0.09411 0.37612 0.05464 0.0
O54 O 0.17917 0.36656 0.96566 0.0
O55 O 0.074 0.35589 0.0233 0.0
C56 C 0.97614 0.39034 0.00268 0.0
C57 C 0.11606 0.43684 0.07687 0.0
C58 C 0.13424 0.45762 0.07414 0.0
C59 C 0.09357 0.44631 0.06511 0.0
C60 C 0.19697 0.45931 0.09552 0.0
C61 C 0.17932 0.43889 0.09798 0.0
C62 C 0.2192 0.45002 0.10716 0.0
C63 C 0.08056 0.38159 0.93805 0.0
C64 C 0.07486 0.42474 0.06651 0.0
C65 C 0.38729 0.41647 0.03436 0.0
C66 C 0.36811 0.41882 0.00323 0.0
C67 C 0.20293 0.37768 0.98831 0.0
C68 C 0.0943 0.3337 0.9873 0.0
C69 C 0.13332 0.32491 -0.00344 0.0
C70 C 0.10828 0.31217 0.9853 0.0
C71 C 0.04524 0.30836 0.96384 0.0
C72 C 1.0311 0.32955 0.96649 0.0
C73 C 1.00716 0.31698 0.95457 0.0
C74 C 0.07833 0.38758 0.08142 0.0
C75 C 0.11737 0.34728 0.0006 0.0
H76 H 0.04535 0.44476 0.04848 0.0
H77 H 0.22875 0.46794 0.1038 0.0
H78 H 0.19842 0.43189 0.10748 0.0
H79 H 0.26765 0.45149 0.12353 0.0
H80 H 0.18163 0.32805 0.01321 0.0
H81 H 1.02526 0.29864 0.95407 0.0
H82 H 0.99953 0.33603 0.95974 0.0
H83 H 0.95842 0.31394 0.93832 0.0
Tb84 Tb 0.98416 0.65272 0.03843 0.0
C85 C 0.8419 0.60401 0.92208 0.0
C86 C 0.72797 0.60254 0.94871 0.0
C87 C 0.74247 0.59358 0.88029 0.0
C88 C 0.79944 0.6067 0.95327 0.0
C89 C 0.81477 0.59705 0.88517 0.0
C90 C 0.69907 0.59633 0.91206 0.0
C91 C 0.93435 0.59597 0.86127 0.0
N92 N 0.91175 0.60719 0.92817 0.0
C93 C 0.95874 0.60281 0.89849 0.0
C94 C 0.86184 0.59325 0.85451 0.0
Tb95 Tb 0.94719 0.61835 0.99009 0.0
N96 N 0.82993 0.61249 0.98806 0.0
C97 C 0.79304 0.61347 0.01943 0.0
C98 C 0.68871 0.60428 0.98101 0.0
C99 C 0.7218 0.60958 0.01646 0.0
H100 H 1.01482 0.60492 0.90338 0.0
H101 H 0.69241 0.61072 0.04157 0.0
H102 H 0.64402 0.59322 0.90796 0.0
H103 H 0.97147 0.59282 0.83784 0.0
H104 H 0.81752 0.61759 0.04711 0.0
H105 H 0.23855 0.66145 0.98862 0.0
H106 H 0.6336 0.60126 0.97878 0.0
H107 H 0.91682 0.66455 0.12558 0.0
H108 H 0.11457 0.65413 0.98226 0.0
H109 H 0.95985 0.67607 0.19122 0.0
H110 H 0.7203 0.58836 0.85215 0.0
H111 H 0.296 0.67106 0.05173 0.0
H112 H 0.28475 0.6788 0.12237 0.0
H113 H 0.84316 0.58788 0.82569 0.0
H114 H 0.20867 0.68282 0.17772 0.0
N115 N 0.10066 0.6592 0.04121 0.0
C116 C 0.13807 0.65834 0.01011 0.0
C117 C 0.24118 0.66786 0.04916 0.0
C118 C 0.20165 0.66938 0.08116 0.0
C119 C 0.20886 0.66248 0.01353 0.0
C120 C 0.13058 0.66499 0.07615 0.0
H121 H 0.08695 0.68204 0.20371 0.0
N122 N 1.01887 0.66366 0.10066 0.0
C123 C 0.99659 0.67363 0.1678 0.0
C124 C 0.0881 0.6673 0.1071 0.0
C125 C 0.97234 0.66712 0.13043 0.0
C126 C 0.0684 0.67695 0.17475 0.0
C127 C 0.11498 0.67397 0.14419 0.0
O128 O 0.91814 0.66908 0.05706 0.0
O129 O 0.90413 0.63767 0.0136 0.0
O130 O 0.92585 0.6268 0.95017 0.0
O131 O 0.99744 0.6451 0.97662 0.0
O132 O 0.87549 0.65351 0.06052 0.0
O133 O 0.98917 0.66479 0.01024 0.0
O134 O 1.0098 0.60157 0.97155 0.0
O135 O 1.02625 0.63342 0.01358 0.0
O136 O 1.01394 0.64382 0.07587 0.0
O137 O 0.93845 0.62607 0.05249 0.0
O138 O 0.05801 0.61699 0.96969 0.0
O139 O 0.93964 0.60654 0.01905 0.0
C140 C 0.85225 0.64272 0.03567 0.0
C141 C 0.96502 0.68676 0.04832 0.0
C142 C 0.95447 0.70825 0.04976 0.0
C143 C 0.93242 0.69525 0.03544 0.0
C144 C 1.00869 0.71257 0.0773 0.0
C145 C 1.01854 0.69146 0.07592 0.0
C146 C 0.04021 0.70424 0.09024 0.0
C147 C 0.9611 0.63644 0.94785 0.0
C148 C 0.94389 0.67305 0.03291 0.0
C149 C 0.18673 0.67779 0.14945 0.0
C150 C 0.23004 0.67549 0.11795 0.0
C151 C 0.07986 0.62811 0.9933 0.0
C152 C 0.95709 0.58436 0.98087 0.0
C153 C 0.97707 0.57625 -0.00189 0.0
C154 C 0.95006 0.56356 0.98424 0.0
C155 C 0.90359 0.55916 0.95297 0.0
C156 C 0.9116 0.57953 0.94934 0.0
C157 C 0.88489 0.56707 0.93562 0.0
C158 C 0.98019 0.63429 0.07945 0.0
C159 C 0.98249 0.59786 -0.00404 0.0
H160 H 0.89097 0.69172 0.01409 0.0
H161 H 1.02612 0.72249 0.08937 0.0
H162 H 0.04357 0.68529 0.08658 0.0
H163 H 0.08156 0.70772 0.11161 0.0
H164 H 1.01253 0.57983 0.02237 0.0
H165 H 0.88265 0.54946 0.94141 0.0
H166 H 0.89681 0.58534 0.93506 0.0
H167 H 0.8497 0.56351 0.91129 0.0
Tb168 Tb 0.11095 0.61533 0.49293 0.0
C169 C 0.96038 0.66357 0.58462 0.0
C170 C 0.85504 0.66181 0.54713 0.0
C171 C 0.84914 0.67297 0.61586 0.0
C172 C 0.92738 0.65905 0.54983 0.0
C173 C 0.92252 0.67105 0.61799 0.0
C174 C 0.81541 0.66836 0.58041 0.0
C175 C 1.03453 0.67614 0.65167 0.0
N176 N 1.03171 0.66191 0.58516 0.0
C177 C 0.06974 0.66885 0.61761 0.0
C178 C 0.96037 0.67702 0.65203 0.0
Tb179 Tb 0.08463 0.64932 0.52807 0.0
N180 N 0.96776 0.65285 0.51845 0.0
C181 C 0.93995 0.64992 0.4833 0.0
C182 C 0.82563 0.65836 0.51115 0.0
C183 C 0.86871 0.65262 0.47913 0.0
H184 H 0.12714 0.66822 0.61741 0.0
H185 H 0.84692 0.65014 0.45117 0.0
H186 H 0.75942 0.67035 0.57896 0.0
H187 H 0.06462 0.68114 0.67754 0.0
H188 H 0.97221 0.64551 0.45827 0.0
H189 H 0.19251 0.59309 0.58453 0.0
H190 H 0.77035 0.66034 0.50783 0.0
H191 H 0.19631 0.61661 0.41915 0.0
H192 H 0.10742 0.60215 0.55459 0.0
H193 H 0.31476 0.61225 0.3912 0.0
H194 H 0.81878 0.67851 0.64123 0.0
H195 H 0.31988 0.59141 0.56726 0.0
H196 H 0.41476 0.59337 0.5249 0.0
H197 H 0.93329 0.68283 0.67833 0.0
H198 H 0.44735 0.59807 0.47106 0.0
N199 N 0.18655 0.60696 0.52347 0.0
C200 C 0.16326 0.60188 0.54761 0.0
C201 C 0.28291 0.59566 0.5546 0.0
C202 C 0.30522 0.5995 0.52681 0.0
C203 C 0.21118 0.5966 0.56443 0.0
C204 C 0.25489 0.60499 0.51121 0.0
H205 H 0.40986 0.60462 0.42026 0.0
N206 N 0.22216 0.6123 0.46571 0.0
C207 C 0.30406 0.611 0.4167 0.0
C208 C 0.27302 0.60754 0.48088 0.0
C209 C 0.23648 0.61369 0.43324 0.0
C210 C 0.35748 0.60666 0.43306 0.0
C211 C 0.34226 0.60478 0.46539 0.0
O212 O 0.10383 0.59991 0.43875 0.0
O213 O 1.03298 0.63051 0.50324 0.0
O214 O 0.06507 0.64422 0.57533 0.0
O215 O 0.11655 0.6239 0.55515 0.0
O216 O 1.00577 0.6158 0.51759 0.0
O217 O 0.06216 0.59804 0.48725 0.0
O218 O 0.15122 0.66573 0.54627 0.0
O219 O 0.16255 0.6337 0.5067 0.0
O220 O 0.07497 0.61924 0.4452 0.0
O221 O 0.10017 0.641 0.46661 0.0
O222 O 0.1873 0.64986 0.55513 0.0
O223 O 0.08045 0.66134 0.4997 0.0
C224 C 0.98324 0.62626 0.51707 0.0
C225 C 0.12126 0.57982 0.44155 0.0
C226 C 0.13906 0.55912 0.44479 0.0
C227 C 0.09881 0.57044 0.45374 0.0
C228 C 0.20135 0.55733 0.42306 0.0
C229 C 0.18409 0.57767 0.42012 0.0
C230 C 0.22355 0.56652 0.41101 0.0
C231 C 0.08845 0.63447 0.58148 0.0
C232 C 0.08061 0.59194 0.45194 0.0
C233 C 0.39367 0.60003 0.48219 0.0
C234 C 0.37521 0.59741 0.51293 0.0
C235 C 0.21053 0.63881 0.53178 0.0
C236 C 0.10487 0.68334 0.53682 0.0
C237 C 0.14119 0.69194 0.52559 0.0
C238 C 0.11848 0.70486 0.53873 0.0
C239 C 0.06057 0.70904 0.56394 0.0
C240 C 0.04657 0.68785 0.56135 0.0
C241 C 1.02505 0.7006 0.57505 0.0
C242 C 0.08383 0.62966 0.43929 0.0
C243 C 0.12586 0.66963 0.52201 0.0
H244 H 0.05096 0.57207 0.47065 0.0
H245 H 0.23279 0.54868 0.41484 0.0
H246 H 0.20319 0.58461 0.41034 0.0
H247 H 0.27167 0.56499 0.39439 0.0
H248 H 0.18557 0.68852 0.50609 0.0
H249 H 0.04268 0.71891 0.57527 0.0
H250 H 1.01704 0.68155 0.5698 0.0
H251 H 0.9802 0.70393 0.5942 0.0
Tb252 Tb 0.98635 0.36457 0.48134 0.0
C253 C 0.84412 0.41294 0.59873 0.0
C254 C 0.73029 0.41441 0.57204 0.0
C255 C 0.7445 0.42311 0.64045 0.0
C256 C 0.80181 0.41034 0.56752 0.0
C257 C 0.81682 0.41972 0.63563 0.0
C258 C 0.70123 0.42045 0.60865 0.0
C259 C 0.93624 0.42073 0.65974 0.0
N260 N 0.91396 0.40979 0.59271 0.0
C261 C 0.96079 0.41406 0.62253 0.0
C262 C 0.86373 0.42339 0.66639 0.0
Tb263 Tb 0.9496 0.39887 0.53081 0.0
N264 N 0.8324 0.40469 0.53277 0.0
C265 C 0.7956 0.40378 0.50144 0.0
C266 C 0.69113 0.41275 0.53976 0.0
C267 C 0.72434 0.40761 0.50438 0.0
H268 H 1.01686 0.41198 0.61772 0.0
H269 H 0.69502 0.40652 0.47929 0.0
H270 H 0.64613 0.4235 0.61271 0.0
H271 H 0.97323 0.42379 0.68326 0.0
H272 H 0.82016 0.39977 0.47381 0.0
H273 H 0.24014 0.35562 0.5311 0.0
H274 H 0.63597 0.41571 0.54196 0.0
H275 H 0.91958 0.35321 0.39403 0.0
H276 H 0.11631 0.36293 0.53745 0.0
H277 H 0.96294 0.342 0.32842 0.0
H278 H 0.72219 0.42819 0.66858 0.0
H279 H 0.2978 0.34626 0.4681 0.0
H280 H 0.28696 0.33884 0.39757 0.0
H281 H 0.84491 0.42863 0.69521 0.0
H282 H 0.21131 0.3351 0.34221 0.0
N283 N 0.10266 0.35807 0.47859 0.0
C284 C 0.13989 0.35883 0.50964 0.0
C285 C 0.24303 0.34944 0.47066 0.0
C286 C 0.2037 0.34806 0.4387 0.0
C287 C 0.2106 0.35469 0.50622 0.0
C288 C 0.13269 0.35242 0.44369 0.0
H289 H 0.08993 0.33604 0.3161 0.0
N290 N 1.02134 0.35393 0.41911 0.0
C291 C 0.99948 0.34431 0.3519 0.0
C292 C 0.09049 0.35029 0.41274 0.0
C293 C 0.97505 0.35064 0.38925 0.0
C294 C 0.07124 0.341 0.34505 0.0
C295 C 0.11756 0.3438 0.37567 0.0
O296 O 0.92002 0.3482 0.46195 0.0
O297 O 0.90632 0.37953 0.50653 0.0
O298 O 0.92777 0.39015 0.57002 0.0
O299 O 0.99926 0.37192 0.54313 0.0
O300 O 0.87783 0.36384 0.45906 0.0
O301 O 0.99112 0.35225 0.50871 0.0
O302 O 1.01227 0.4157 0.55003 0.0
O303 O 1.02863 0.38388 0.50705 0.0
O304 O 1.01687 0.37375 0.44472 0.0
O305 O 0.9411 0.39139 0.46845 0.0
O306 O 0.06034 0.40021 0.55142 0.0
O307 O 0.94238 0.41085 0.50239 0.0
C308 C 0.85449 0.37454 0.48424 0.0
C309 C 0.96647 0.33035 0.46975 0.0
C310 C 0.95651 0.30882 0.46805 0.0
C311 C 0.93518 0.32186 0.48301 0.0
C312 C 1.00881 0.3045 0.43952 0.0
C313 C 1.01809 0.32566 0.44117 0.0
C314 C 0.03912 0.31285 0.42624 0.0
C315 C 0.96273 0.38044 0.57198 0.0
C316 C 0.94569 0.34407 0.48573 0.0
C317 C 0.18923 0.33999 0.37045 0.0
C318 C 0.23228 0.34212 0.40196 0.0
C319 C 0.08222 0.38915 0.52753 0.0
C320 C 0.95999 0.43299 0.54114 0.0
C321 C 0.97988 0.44116 0.52406 0.0
C322 C 0.95314 0.45385 0.53817 0.0
C323 C 0.90699 0.45819 0.56952 0.0
C324 C 0.91477 0.43775 0.57273 0.0
C325 C 0.88832 0.45021 0.58669 0.0
C326 C 0.98324 0.38333 0.44149 0.0
C327 C 0.98521 0.41951 0.52578 0.0
H328 H 0.89523 0.3254 0.50512 0.0
H329 H 1.02559 0.29456 0.42693 0.0
H330 H 0.04203 0.33186 0.4302 0.0
H331 H 0.07896 0.30937 0.4041 0.0
H332 H 1.01508 0.43763 0.49974 0.0
H333 H 0.88625 0.46789 0.58127 0.0
H334 H 0.89999 0.43188 0.58685 0.0
H335 H 0.85336 0.45372 0.61107 0.0
Tb336 Tb 0.64438 0.89967 0.02345 0.0
C337 C 0.49675 0.8497 0.91894 0.0
C338 C 0.38656 0.84898 0.94994 0.0
C339 C 0.39407 0.83862 0.88114 0.0
C340 C 0.45785 0.85306 0.95171 0.0
C341 C 0.46611 0.84213 0.88329 0.0
C342 C 0.3543 0.84205 0.91445 0.0
C343 C 0.58196 0.84096 0.85515 0.0
N344 N 0.5665 0.85308 0.92237 0.0
C345 C 0.60999 0.84842 0.89121 0.0
C346 C 0.5095 0.83794 0.85109 0.0
Tb347 Tb 0.60771 0.86538 0.98261 0.0
N348 N 0.49143 0.85959 0.98538 0.0
C349 C 0.4576 0.86156 0.0185 0.0
C350 C 0.35066 0.85162 0.98386 0.0
C351 C 0.38672 0.85777 0.01825 0.0
H352 H 0.666 0.85073 0.89394 0.0
H353 H 0.35987 0.85965 0.04465 0.0
H354 H 0.29934 0.83896 0.91251 0.0
H355 H 0.61625 0.83756 0.83052 0.0
H356 H 0.48403 0.86633 0.04549 0.0
H357 H 0.8885 0.90178 0.95219 0.0
H358 H 0.2958 0.84869 0.98377 0.0
H359 H 0.59428 0.91795 0.11117 0.0
H360 H 0.76322 0.89643 0.9559 0.0
H361 H 0.65075 0.93146 0.17279 0.0
H362 H 0.36924 0.83292 0.85399 0.0
H363 H 0.95958 0.91262 0.01075 0.0
H364 H 0.96349 0.92321 0.08202 0.0
H365 H 0.48802 0.83211 0.82316 0.0
H366 H 0.89869 0.93114 0.14263 0.0
N367 N 0.76203 0.90386 0.01635 0.0
C368 C 0.79274 0.90121 0.98192 0.0
C369 C 0.9042 0.91032 0.01265 0.0
C370 C 0.87146 0.91378 0.04784 0.0
C371 C 0.86421 0.90424 0.97958 0.0
C372 C 0.79924 0.91053 0.04869 0.0
H373 H 0.78147 0.93446 0.17682 0.0
N374 N 0.69246 0.91254 0.08144 0.0
C375 C 0.68323 0.92674 0.14772 0.0
C376 C 0.76318 0.91494 0.08256 0.0
C377 C 0.65148 0.91906 0.11285 0.0
C378 C 0.75701 0.92838 0.1499 0.0
C379 C 0.79776 0.92277 0.11682 0.0
O380 O 0.58042 0.91626 0.04144 0.0
O381 O 0.56484 0.88459 0.00317 0.0
O382 O 0.57367 0.87252 0.94134 0.0
O383 O 0.64187 0.89115 0.96075 0.0
O384 O 0.53551 0.90144 0.04646 0.0
O385 O 0.65474 0.91178 -0.0042 0.0
O386 O 0.67426 0.84909 0.96466 0.0
O387 O 0.68852 0.88046 0.00472 0.0
O388 O 0.65996 0.89377 0.06953 0.0
O389 O 0.6018 0.8738 0.04497 0.0
O390 O 0.7135 0.86433 0.95751 0.0
O391 O 0.60553 0.85386 0.01259 0.0
C392 C 0.51269 0.89017 0.02439 0.0
C393 C 0.55569 0.92439 -0.00378 0.0
C394 C 0.5143 0.94178 0.98061 0.0
C395 C 0.56165 0.93706 -0.00018 0.0
C396 C 0.46083 0.93346 0.95775 0.0
C397 C 0.50234 0.91631 0.97315 0.0
C398 C 0.45518 0.92086 0.95405 0.0
C399 C 0.60197 0.88202 0.93525 0.0
C400 C 0.60641 0.91977 0.0164 0.0
C401 C 0.87089 0.92529 0.11655 0.0
C402 C 0.90773 0.9208 0.08205 0.0
C403 C 0.73866 0.8751 0.9816 0.0
C404 C 0.63012 0.83176 0.97623 0.0
C405 C 0.66474 0.82361 0.98975 0.0
C406 C 0.64342 0.8106 0.9769 0.0
C407 C 0.5881 0.80593 0.95008 0.0
C408 C 0.5753 0.8267 0.94955 0.0
C409 C 0.55454 0.81392 0.93657 0.0
C410 C 0.6311 0.88383 0.07323 0.0
C411 C 0.65043 0.84548 0.98999 0.0
H412 H 0.60394 0.94316 0.01718 0.0
H413 H 0.42257 0.93673 0.94305 0.0
H414 H 0.49724 0.90652 0.96996 0.0
H415 H 0.4138 0.9146 0.93638 0.0
H416 H 0.70711 0.8274 0.01046 0.0
H417 H 0.57124 0.79599 0.93906 0.0
H418 H 0.54846 0.83259 0.93856 0.0
H419 H 0.51222 0.81018 0.91585 0.0
Tb420 Tb 0.46817 0.15247 0.03383 0.0
C421 C 0.29805 0.10433 0.94299 0.0
C422 C 0.19962 0.10606 0.9849 0.0
C423 C 0.18312 0.09498 0.91669 0.0
C424 C 0.2709 0.10872 0.97921 0.0
C425 C 0.25513 0.09704 0.91132 0.0
C426 C 0.15542 0.09947 0.95345 0.0
C427 C 0.35998 0.09276 0.87208 0.0
N428 N 0.368 0.10637 0.93895 0.0
C429 C 0.40036 0.09989 0.90445 0.0
C430 C 0.28667 0.09155 0.87541 0.0
Tb431 Tb 0.42985 0.11823 0.99368 0.0
N432 N 0.31509 0.11516 0.00889 0.0
C433 C 0.29214 0.11835 0.04521 0.0
C434 C 0.17527 0.10986 0.02199 0.0
C435 C 0.2221 0.11584 0.05222 0.0
H436 H 0.45731 0.10056 0.90194 0.0
H437 H 0.20413 0.11866 0.08104 0.0
H438 H 0.10029 0.09751 0.95728 0.0
H439 H 0.38552 0.08809 0.84468 0.0
H440 H 0.32659 0.12313 0.06925 0.0
H441 H 0.71779 0.15732 0.9716 0.0
H442 H 0.12089 0.10802 0.02755 0.0
H443 H 0.40898 0.16815 0.12202 0.0
H444 H 0.59304 0.15101 0.97086 0.0
H445 H 0.45822 0.18175 0.1852 0.0
H446 H 0.14907 0.08955 0.89271 0.0
H447 H 0.78185 0.16833 0.03247 0.0
H448 H 0.77771 0.17848 0.10372 0.0
H449 H 0.25555 0.08589 0.85038 0.0
H450 H 0.70672 0.18526 0.16214 0.0
N451 N 0.58519 0.15795 0.03103 0.0
C452 C 0.6194 0.1558 -0.00215 0.0
C453 C 0.72672 0.16555 0.03242 0.0
C454 C 0.6904 0.16846 0.06637 0.0
C455 C 0.69066 0.15938 -0.00196 0.0
C456 C 0.61875 0.16456 0.06467 0.0
H457 H 0.58691 0.18682 0.19274 0.0
N458 N 0.50912 0.16519 0.09388 0.0
C459 C 0.49294 0.17799 0.16074 0.0
C460 C 0.5792 0.16836 0.09737 0.0
C461 C 0.46519 0.17029 0.12481 0.0
C462 C 0.56564 0.1808 0.16491 0.0
C463 C 0.6096 0.17615 0.1329 0.0
O464 O 0.4027 0.16891 0.05086 0.0
O465 O 0.38665 0.13748 0.01241 0.0
O466 O 0.41217 0.12441 0.94852 0.0
O467 O 0.47499 0.14385 0.97153 0.0
O468 O 0.36205 0.15378 0.05902 0.0
O469 O 0.47094 0.16359 0.00261 0.0
O470 O 0.48793 0.10096 0.96885 0.0
O471 O 0.51036 0.13315 0.01353 0.0
O472 O 0.50089 0.14594 0.07665 0.0
O473 O 0.44477 0.12595 0.0557 0.0
O474 O 0.5377 0.11633 0.96939 0.0
O475 O 0.42425 0.10527 0.01862 0.0
C476 C 0.33661 0.14297 0.03541 0.0
C477 C 0.44872 0.18582 0.03776 0.0
C478 C 0.43455 0.20707 0.03782 0.0
C479 C 0.41099 0.19424 0.02641 0.0
C480 C 0.49505 0.21132 0.06119 0.0
C481 C 0.50878 0.19046 0.06096 0.0
C482 C 0.53162 0.20308 0.07265 0.0
C483 C 0.44337 0.13397 0.94395 0.0
C484 C 0.42685 0.1722 0.02496 0.0
C485 C 0.68206 0.17941 0.13507 0.0
C486 C 0.72246 0.17555 0.10181 0.0
C487 C 0.56178 0.12748 0.99178 0.0
C488 C 0.52169 0.09139 0.00943 0.0
C489 C 0.51372 0.07861 0.00469 0.0
C490 C 0.56411 0.07302 0.01997 0.0
C491 C 0.62293 0.08049 0.03973 0.0
C492 C 0.58044 0.09862 0.02941 0.0
C493 C 0.63087 0.09316 0.04435 0.0
C494 C 0.47888 0.13588 0.08194 0.0
C495 C 0.46725 0.09706 0.99406 0.0
H496 H 0.36462 0.19078 0.00831 0.0
H497 H 0.51384 0.22111 0.07099 0.0
H498 H 0.53841 0.18434 0.07003 0.0
H499 H 0.57807 0.20649 0.09067 0.0
H500 H 0.46753 0.07313 0.98974 0.0
H501 H 0.66338 0.0765 0.05134 0.0
H502 H 0.58713 0.10848 0.03348 0.0
H503 H 0.67637 0.09876 0.05962 0.0
Tb504 Tb 0.6379 0.11738 0.49248 0.0
C505 C 0.49694 0.16722 0.60081 0.0
C506 C 0.38439 0.1676 0.57142 0.0
C507 C 0.39483 0.17761 0.64011 0.0
C508 C 0.45621 0.16375 0.56865 0.0
C509 C 0.46762 0.17458 0.63691 0.0
C510 C 0.35322 0.17413 0.60735 0.0
C511 C 0.5862 0.1771 0.66304 0.0
N512 N 0.56738 0.16445 0.59625 0.0
C513 C 0.61284 0.16992 0.62653 0.0
C514 C 0.51306 0.17923 0.66837 0.0
Tb515 Tb 0.60621 0.152 0.53548 0.0
N516 N 0.48889 0.15763 0.53458 0.0
C517 C 0.45384 0.15615 0.50215 0.0
C518 C 0.34712 0.16528 0.53809 0.0
C519 C 0.38247 0.15977 0.50337 0.0
H520 H 0.66945 0.16827 0.62274 0.0
H521 H 0.35467 0.15821 0.47745 0.0
H522 H 0.29783 0.17698 0.61006 0.0
H523 H 0.62211 0.181 0.68702 0.0
H524 H 0.47956 0.15184 0.47489 0.0
H525 H 0.82218 0.11947 0.60255 0.0
H526 H 0.29187 0.16806 0.53894 0.0
H527 H 0.65533 0.10241 0.39732 0.0
H528 H 0.70975 0.12295 0.57797 0.0
H529 H 0.75095 0.09321 0.35088 0.0
H530 H 0.37097 0.18311 0.66762 0.0
H531 H 0.92384 0.11006 0.55958 0.0
H532 H 0.97329 0.10115 0.49392 0.0
H533 H 0.49264 0.18491 0.69662 0.0
H534 H 0.95505 0.09467 0.4258 0.0
N535 N 0.74368 0.11549 0.52001 0.0
C536 C 0.75183 0.11872 0.55799 0.0
C537 C 0.87362 0.11143 0.54818 0.0
C538 C 0.86536 0.10797 0.50946 0.0
C539 C 0.81644 0.11676 0.57248 0.0
C540 C 0.79876 0.10999 0.49599 0.0
H541 H 0.87296 0.09184 0.37239 0.0
N542 N 0.7235 0.10823 0.44584 0.0
C543 C 0.76288 0.09716 0.38089 0.0
C544 C 0.78877 0.10649 0.45781 0.0
C545 C 0.70903 0.10275 0.40757 0.0
C546 C 0.83146 0.09634 0.39312 0.0
C547 C 0.84472 0.10068 0.43188 0.0
O548 O 0.59613 0.09922 0.45664 0.0
O549 O 0.56048 0.13277 0.51349 0.0
O550 O 0.58385 0.14579 0.58014 0.0
O551 O 0.60087 0.12347 0.55147 0.0
O552 O 0.53015 0.11608 0.469 0.0
O553 O 0.62266 0.10364 0.51445 0.0
O554 O 0.67584 0.16795 0.55224 0.0
O555 O 0.68439 0.13649 0.51121 0.0
O556 O 0.63679 0.12329 0.44606 0.0
O557 O 0.59806 0.14463 0.47368 0.0
O558 O 0.71312 0.15253 0.55842 0.0
O559 O 0.6018 0.16399 0.50704 0.0
C560 C 0.50813 0.12733 0.49186 0.0
C561 C 0.63677 0.08189 0.46968 0.0
C562 C 0.65123 0.06138 0.47434 0.0
C563 C 0.61772 0.0735 0.48621 0.0
C564 C 0.70306 0.05781 0.44563 0.0
C565 C 0.68839 0.07787 0.44093 0.0
C566 C 0.72133 0.06599 0.42917 0.0
C567 C 0.5855 0.13444 0.58103 0.0
C568 C 0.60238 0.09469 0.48197 0.0
C569 C 0.91144 0.09899 0.44526 0.0
C570 C 0.92171 0.10261 0.48398 0.0
C571 C 0.73577 0.14167 0.53381 0.0
C572 C 0.63057 0.18582 0.54405 0.0
C573 C 0.66538 0.1942 0.53143 0.0
C574 C 0.64501 0.20727 0.5456 0.0
C575 C 0.59071 0.21179 0.573 0.0
C576 C 0.57628 0.19069 0.57106 0.0
C577 C 0.55679 0.20356 0.58554 0.0
C578 C 0.61594 0.13395 0.44407 0.0
C579 C 0.64935 0.17201 0.52854 0.0
H580 H 0.57769 0.07641 0.50829 0.0
H581 H 0.72885 0.04853 0.43531 0.0
H582 H 0.70311 0.08377 0.42699 0.0
H583 H 0.76089 0.06305 0.40689 0.0
H584 H 0.70692 0.19051 0.51024 0.0
H585 H 0.57468 0.22177 0.58506 0.0
H586 H 0.54856 0.18456 0.58097 0.0
H587 H 0.51497 0.20716 0.60655 0.0
Tb588 Tb 0.46773 0.86316 0.47876 0.0
C589 C 0.27526 0.90556 0.54534 0.0
C590 C 0.21101 0.9058 0.49168 0.0
C591 C 0.1512 0.91251 0.55208 0.0
C592 C 0.27431 0.90354 0.50765 0.0
C593 C 0.21315 0.91001 0.56778 0.0
C594 C 0.15012 0.9104 0.51414 0.0
C595 C 0.27688 0.90936 0.62028 0.0
N596 N 0.33561 0.90278 0.5597 0.0
C597 C 0.33728 0.9052 0.59747 0.0
C598 C 0.21444 0.91172 0.60538 0.0
Tb599 Tb 0.43354 0.89756 0.51973 0.0
N600 N 0.33337 0.89861 0.48606 0.0
C601 C 0.33075 0.89564 0.44795 0.0
C602 C 0.2097 0.90305 0.45323 0.0
C603 C 0.26963 0.89786 0.43128 0.0
H604 H 0.38508 0.90465 0.61178 0.0
H605 H 0.26876 0.89545 0.40125 0.0
H606 H 0.10141 0.91216 0.50223 0.0
H607 H 0.27921 0.91108 0.64981 0.0
H608 H 0.37401 0.89139 0.42899 0.0
H609 H 0.71239 0.85835 0.54474 0.0
H610 H 0.16219 0.90462 0.44004 0.0
H611 H 0.41303 0.84813 0.38948 0.0
H612 H 0.58891 0.86501 0.5436 0.0
H613 H 0.46486 0.83456 0.32698 0.0
H614 H 0.10344 0.91593 0.56898 0.0
H615 H 0.77847 0.84699 0.48479 0.0
H616 H 0.77783 0.83686 0.41352 0.0
H617 H 0.16785 0.91505 0.6233 0.0
H618 H 0.71045 0.83041 0.35399 0.0
N619 N 0.58377 0.85775 0.48331 0.0
C620 C 0.61622 0.86004 0.51703 0.0
C621 C 0.72386 0.84987 0.48402 0.0
C622 C 0.68946 0.84699 0.44954 0.0
C623 C 0.68668 0.85626 0.51789 0.0
C624 C 0.61844 0.85103 0.45016 0.0
H625 H 0.5931 0.82924 0.32149 0.0
N626 N 0.51157 0.85095 0.41912 0.0
C627 C 0.49829 0.83823 0.35199 0.0
C628 C 0.58114 0.84754 0.41681 0.0
C629 C 0.46911 0.84594 0.38749 0.0
C630 C 0.57075 0.83527 0.34899 0.0
C631 C 0.61292 0.83975 0.38172 0.0
O632 O 0.3978 0.84723 0.46059 0.0
O633 O 0.38725 0.87842 0.50229 0.0
O634 O 0.46458 0.89343 0.5674 0.0
O635 O 0.46772 0.87093 0.54113 0.0
O636 O 0.36456 0.86273 0.45243 0.0
O637 O 0.47109 0.85076 0.50592 0.0
O638 O 0.44234 0.91597 0.56444 0.0
O639 O 0.51025 0.88225 0.50366 0.0
O640 O 0.50272 0.86998 0.43642 0.0
O641 O 0.47268 0.89189 0.46177 0.0
O642 O 0.55002 0.90029 0.52852 0.0
O643 O 0.4498 0.9133 0.50629 0.0
C644 C 0.33888 0.87321 0.47767 0.0
C645 C 0.44057 0.82902 0.46799 0.0
C646 C 0.42728 0.80772 0.46764 0.0
C647 C 0.40833 0.82087 0.48231 0.0
C648 C 0.47781 0.8029 0.43832 0.0
C649 C 0.49034 0.8238 0.43861 0.0
C650 C 0.50881 0.81088 0.42393 0.0
C651 C 0.46977 0.88242 0.57036 0.0
C652 C 0.42328 0.84292 0.48397 0.0
C653 C 0.68473 0.83625 0.3807 0.0
C654 C 0.72303 0.8399 0.41459 0.0
C655 C 0.56856 0.88843 0.51313 0.0
C656 C 0.51323 0.93099 0.55257 0.0
C657 C 0.51122 0.94121 0.54158 0.0
C658 C 0.56568 0.95062 0.55286 0.0
C659 C 0.62165 0.94961 0.57546 0.0
C660 C 0.56994 0.93032 0.57512 0.0
C661 C 0.62371 0.93955 0.58633 0.0
C662 C 0.49741 0.88115 0.43416 0.0
C663 C 0.45442 0.92149 0.54188 0.0
H664 H 0.36971 0.82476 0.50502 0.0
H665 H 0.4927 0.79285 0.42604 0.0
H666 H 0.51509 0.82964 0.42681 0.0
H667 H 0.54731 0.80702 0.40119 0.0
H668 H 0.46755 0.94178 0.52421 0.0
H669 H 0.66358 0.95676 0.58539 0.0
H670 H 0.57245 0.92275 0.58457 0.0
H671 H 0.66694 0.93898 0.60389 0.0
C672 C 0.31911 0.38129 0.96236 0.0
C673 C 0.28117 0.38015 0.99186 0.0
C674 C 0.39386 0.38229 0.96355 0.0
C675 C 0.54838 0.39163 0.02814 0.0
H676 H 0.65835 0.3696 0.94045 0.0
C677 C 0.8588 0.39094 0.03448 0.0
C678 C 0.89828 0.38763 0.00106 0.0
C679 C 0.78409 0.38984 0.03342 0.0
C680 C 0.62909 0.37606 0.96511 0.0
H681 H 0.29261 0.37798 0.04399 0.0
H682 H 0.42287 0.38021 0.04692 0.0
H683 H 0.52876 0.36846 0.9382 0.0
H684 H 0.88976 0.3818 0.94072 0.0
H685 H 0.76017 0.38007 0.9385 0.0
H686 H 0.64756 0.39965 0.05475 0.0
C687 C 0.39472 0.38066 0.02328 0.0
C688 C 0.55424 0.37531 0.9638 0.0
C689 C 0.32003 0.37951 0.02182 0.0
C690 C 0.86097 0.38387 0.96675 0.0
C691 C 0.78623 0.38285 0.9656 0.0
C692 C 0.62317 0.39259 0.02923 0.0
C693 C 0.43281 0.38206 0.99414 0.0
C694 C 0.51275 0.38303 -0.00465 0.0
C695 C 0.74602 0.38577 -0.00107 0.0
C696 C 0.66532 0.38478 -0.00223 0.0
H697 H 0.29079 0.38139 0.9383 0.0
H698 H 0.42125 0.38331 0.94055 0.0
H699 H 0.51821 0.39783 0.05285 0.0
H700 H 0.88585 0.39442 0.0616 0.0
H701 H 0.75657 0.39208 0.05985 0.0
C702 C 0.18973 0.6354 0.03533 0.0
C703 C 0.15737 0.63132 -0.0005 0.0
C704 C 0.26438 0.63683 0.03934 0.0
C705 C 0.4304 0.63924 0.988 0.0
H706 H 0.52658 0.62984 0.06029 0.0
C707 C 0.74209 0.63628 0.99337 0.0
C708 C 0.77403 0.6402 0.02925 0.0
C709 C 0.66734 0.63506 0.98918 0.0
C710 C 0.50091 0.63267 0.04017 0.0
H711 H 0.17865 0.62493 0.93972 0.0
H712 H 0.30757 0.62746 0.94648 0.0
H713 H 0.39723 0.62857 0.05546 0.0
H714 H 0.75194 0.64658 0.08896 0.0
H715 H 0.62302 0.64447 0.08192 0.0
H716 H 0.53417 0.64332 0.9727 0.0
C717 C 0.27591 0.62995 0.97182 0.0
C718 C 0.4261 0.63195 0.03745 0.0
C719 C 0.20166 0.62846 0.96785 0.0
C720 C 0.72925 0.6432 0.06079 0.0
C721 C 0.65498 0.64193 0.05666 0.0
C722 C 0.50526 0.63995 0.99073 0.0
C723 C 0.30896 0.6341 0.00759 0.0
C724 C 0.38928 0.63521 0.01129 0.0
C725 C 0.62235 0.63783 0.02081 0.0
C726 C 0.54205 0.63671 0.01694 0.0
H727 H 0.15752 0.63728 0.06015 0.0
H728 H 0.28707 0.64013 0.06746 0.0
H729 H 0.4047 0.64204 0.96785 0.0
H730 H 0.77481 0.63426 0.96862 0.0
H731 H 0.64495 0.63182 0.96102 0.0
C732 C 0.86817 0.63251 0.55295 0.0
C733 C 0.90549 0.62899 0.51878 0.0
C734 C 0.79347 0.63353 0.55407 0.0
C735 C 0.63045 0.62417 0.49024 0.0
H736 H 0.5363 0.64779 0.58187 0.0
C737 C 0.32739 0.63717 0.4983 0.0
C738 C 0.28865 0.63631 0.52797 0.0
C739 C 0.40206 0.63604 0.49676 0.0
C740 C 0.56171 0.64108 0.5561 0.0
H741 H 0.89315 0.62265 0.45838 0.0
H742 H 0.76392 0.625 0.46013 0.0
H743 H 0.66587 0.64671 0.57968 0.0
H744 H 0.29845 0.63466 0.58095 0.0
H745 H 0.42885 0.63278 0.57854 0.0
H746 H 0.52544 0.619 0.4664 0.0
C747 C 0.7914 0.62704 0.48646 0.0
C748 C 0.63654 0.64037 0.55482 0.0
C749 C 0.86608 0.62593 0.48542 0.0
C750 C 0.32667 0.63494 0.55709 0.0
C751 C 0.40139 0.63396 0.55583 0.0
C752 C 0.55568 0.62509 0.49131 0.0
C753 C 0.75332 0.63086 0.52083 0.0
C754 C 0.67266 0.63183 0.52194 0.0
C755 C 0.44023 0.63443 0.52554 0.0
C756 C 0.52014 0.6335 0.52432 0.0
H757 H 0.89691 0.63438 0.57889 0.0
H758 H 0.76736 0.63612 0.58105 0.0
H759 H 0.65478 0.61723 0.46452 0.0
H760 H 0.29992 0.63888 0.47647 0.0
H761 H 0.43013 0.63667 0.47336 0.0
C762 C 0.73117 0.37391 0.4592 0.0
C763 C 0.7762 0.37693 0.49071 0.0
C764 C 0.65687 0.37505 0.46336 0.0
C765 C 0.51161 0.38987 0.53487 0.0
H766 H 0.39203 0.36529 0.45607 0.0
C767 C 0.20404 0.38886 0.5531 0.0
C768 C 0.15976 0.386 0.5214 0.0
C769 C 0.27831 0.38743 0.54923 0.0
C770 C 0.42427 0.37236 0.47821 0.0
H771 H 0.77736 0.38279 0.5513 0.0
H772 H 0.64747 0.38487 0.55888 0.0
H773 H 0.52122 0.36347 0.45038 0.0
H774 H 0.16004 0.38012 0.46079 0.0
H775 H 0.28964 0.37751 0.45372 0.0
H776 H 0.41465 0.39877 0.56268 0.0
C777 C 0.66976 0.38194 0.53083 0.0
C778 C 0.49896 0.37132 0.47496 0.0
C779 C 0.7445 0.3808 0.52659 0.0
C780 C 0.19217 0.38194 0.48562 0.0
C781 C 0.26681 0.38051 0.48169 0.0
C782 C 0.43691 0.39091 0.53812 0.0
C783 C 0.62448 0.37905 0.4992 0.0
C784 C 0.54418 0.38006 0.50318 0.0
C785 C 0.31139 0.38332 0.51352 0.0
C786 C 0.39169 0.38218 0.50985 0.0
H787 H 0.7537 0.37068 0.43106 0.0
H788 H 0.62483 0.37287 0.43828 0.0
H789 H 0.54386 0.39695 0.55698 0.0
H790 H 0.18098 0.39227 0.58117 0.0
H791 H 0.3098 0.38956 0.57446 0.0
C792 C 0.86305 0.87264 0.95613 0.0
C793 C 0.81766 0.87687 0.98784 0.0
C794 C 0.93738 0.87387 0.96032 0.0
C795 C 0.08679 0.87865 0.02907 0.0
H796 H 0.19405 0.88742 0.9585 0.0
C797 C 0.38992 0.89099 0.05051 0.0
C798 C 0.43459 0.88726 0.01864 0.0
C799 C 0.31565 0.88939 0.0466 0.0
C800 C 0.16548 0.88478 0.97822 0.0
H801 H 0.81605 0.88479 0.04909 0.0
H802 H 0.946 0.8871 0.05671 0.0
H803 H 0.06491 0.88553 0.95316 0.0
H804 H 0.43481 0.87975 0.95745 0.0
H805 H 0.30548 0.87669 0.95028 0.0
H806 H 0.1874 0.87789 0.05413 0.0
C807 C 0.92401 0.88296 0.02833 0.0
C808 C 0.09073 0.8837 0.97518 0.0
C809 C 0.8492 0.88179 0.02406 0.0
C810 C 0.40244 0.8823 0.98258 0.0
C811 C 0.32781 0.88075 0.97859 0.0
C812 C 0.16159 0.87971 0.03209 0.0
C813 C 0.96953 0.87916 -0.00353 0.0
C814 C 0.04981 0.88059 0.00048 0.0
C815 C 0.28288 0.88424 0.01058 0.0
C816 C 0.20254 0.88281 0.00675 0.0
H817 H 0.84078 0.86851 0.92777 0.0
H818 H 0.96972 0.87049 0.93496 0.0
H819 H 0.05808 0.87604 0.04883 0.0
H820 H 0.41268 0.89518 0.07876 0.0
H821 H 0.28379 0.89252 0.07208 0.0
C822 C 0.21185 0.14557 0.06085 0.0
C823 C 0.25747 0.14117 0.0292 0.0
C824 C 0.13748 0.14434 0.05658 0.0
C825 C 0.99342 0.12682 0.98623 0.0
H826 H 0.87112 0.1525 0.05979 0.0
C827 C 0.68507 0.12609 0.96549 0.0
C828 C 0.64029 0.13008 -0.0026 0.0
C829 C 0.75944 0.12759 0.96937 0.0
C830 C 0.90412 0.14511 0.03917 0.0
H831 H 0.25926 0.13304 0.96793 0.0
H832 H 0.12939 0.13085 0.96017 0.0
H833 H 1.00005 0.15503 0.06568 0.0
H834 H 0.64007 0.13792 0.05866 0.0
H835 H 0.76965 0.14064 0.0657 0.0
H836 H 0.89741 0.1169 0.9597 0.0
C837 C 0.15124 0.13487 0.98858 0.0
C838 C 0.97874 0.14657 0.04253 0.0
C839 C 0.22603 0.1361 0.99294 0.0
C840 C 0.67248 0.13519 0.03348 0.0
C841 C 0.74717 0.1367 0.03743 0.0
C842 C 0.91878 0.12536 0.98285 0.0
C843 C 0.10542 0.13889 0.02038 0.0
C844 C 1.02505 0.13744 0.01618 0.0
C845 C 0.79219 0.13293 0.0054 0.0
C846 C 0.87253 0.13447 0.00927 0.0
H847 H 0.23401 0.14975 0.08923 0.0
H848 H 0.10519 0.14747 0.08192 0.0
H849 H 1.02636 0.11942 0.96562 0.0
H850 H 0.66229 0.12188 0.93725 0.0
H851 H 0.79121 0.12465 0.9439 0.0
C852 C 0.38585 0.12684 0.46589 0.0
C853 C 0.43022 0.13014 0.49776 0.0
C854 C 0.31159 0.12821 0.46969 0.0
C855 C 0.16125 0.13084 0.53569 0.0
H856 H 0.05441 0.14184 0.46977 0.0
C857 C 0.85932 0.14268 0.55895 0.0
C858 C 0.81418 0.13935 0.52736 0.0
C859 C 0.93349 0.14136 0.55474 0.0
C860 C 0.08298 0.13858 0.48813 0.0
H861 H 0.43029 0.13665 0.55864 0.0
H862 H 0.30056 0.13923 0.56562 0.0
H863 H 0.18382 0.14033 0.4649 0.0
H864 H 0.8128 0.1331 0.4666 0.0
H865 H 0.94258 0.13054 0.45884 0.0
H866 H 0.06045 0.12906 0.55886 0.0
C867 C 0.32324 0.13572 0.53747 0.0
C868 C 0.15776 0.13773 0.48538 0.0
C869 C 0.39793 0.13443 0.53362 0.0
C870 C 0.84578 0.13528 0.49138 0.0
C871 C 0.92046 0.13399 0.4871 0.0
C872 C 0.08649 0.13168 0.53841 0.0
C873 C 0.27865 0.13267 0.50552 0.0
C874 C 0.19842 0.13385 0.50912 0.0
C875 C 0.9657 0.13692 0.51875 0.0
C876 C 0.04584 0.13561 0.51479 0.0
H877 H 0.40885 0.12316 0.43775 0.0
H878 H 0.27985 0.12546 0.44424 0.0
H879 H 0.1898 0.12759 0.55406 0.0
H880 H 0.83695 0.14626 0.58721 0.0
H881 H 0.96569 0.14406 0.58002 0.0
C882 C 0.6877 0.88796 0.5407 0.0
C883 C 0.64455 0.88436 0.50832 0.0
C884 C 0.76176 0.88614 0.53761 0.0
C885 C 0.90881 0.8697 0.46773 0.0
H886 H 1.02783 0.89432 0.54669 0.0
C887 C 0.21626 0.87216 0.45107 0.0
C888 C 0.25994 0.87478 0.48284 0.0
C889 C 0.14179 0.87302 0.45444 0.0
C890 C 0.99562 0.88727 0.52449 0.0
H891 H 0.64669 0.87699 0.4472 0.0
H892 H 0.77565 0.87387 0.44146 0.0
H893 H 0.89891 0.89647 0.5514 0.0
H894 H 0.25867 0.87913 0.54255 0.0
H895 H 0.12855 0.88089 0.54885 0.0
H896 H 1.00613 0.86071 0.44047 0.0
C897 C 0.75223 0.87758 0.46946 0.0
C898 C 0.92105 0.88846 0.52723 0.0
C899 C 0.67782 0.8793 0.47263 0.0
C900 C 0.2268 0.87762 0.51785 0.0
C901 C 0.15206 0.87856 0.52135 0.0
C902 C 0.98346 0.8686 0.46482 0.0
C903 C 0.79579 0.88104 0.50195 0.0
C904 C 0.87603 0.87969 0.49893 0.0
C905 C 0.10825 0.87631 0.48968 0.0
C906 C 1.02822 0.87737 0.49314 0.0
H907 H 0.66391 0.89226 0.56868 0.0
H908 H 0.79224 0.8888 0.56342 0.0
H909 H 0.87684 0.86257 0.44561 0.0
H910 H 0.23998 0.8696 0.42347 0.0
H911 H 0.11049 0.87126 0.42939 0.0
C912 C 0.04176 0.55185 0.00484 0.0
C913 C 0.97008 0.55456 0.00103 0.0
C914 C 0.05988 0.5418 0.01456 0.0
C915 C 0.98833 0.52025 0.05549 0.0
H916 H 0.13385 0.49674 0.99428 0.0
C917 C 0.04124 0.47177 0.0639 0.0
C918 C 0.11252 0.46782 0.062 0.0
C919 C 1.02293 0.48222 0.05604 0.0
C920 C 0.09372 0.50326 0.01209 0.0
H921 H 0.8613 0.5493 0.0064 0.0
H922 H 0.89265 0.53197 0.0238 0.0
H923 H 0.10687 0.51588 0.98499 0.0
H924 H 0.21971 0.47144 0.04822 0.0
H925 H 0.18852 0.48971 0.0358 0.0
H926 H 0.97559 0.50775 0.08292 0.0
C927 C 0.93506 0.53751 0.01916 0.0
C928 C 0.07829 0.51428 0.00672 0.0
C929 C 0.91705 0.54743 0.00905 0.0
C930 C 0.1644 0.47431 0.05069 0.0
C931 C 0.14626 0.48475 0.04304 0.0
C932 C 1.00417 0.50928 0.0611 0.0
C933 C 1.00668 0.53434 0.02117 0.0
C934 C 1.02528 0.52292 0.02828 0.0
C935 C 0.07539 0.489 0.04601 0.0
C936 C 0.05709 0.50059 0.03945 0.0
H937 H 0.08378 0.5571 -0.00142 0.0
H938 H 0.1156 0.53973 0.01631 0.0
H939 H 0.94758 0.52674 0.07284 0.0
H940 H 0.99983 0.46705 0.07262 0.0
H941 H 0.96756 0.48501 0.058 0.0
C942 C 0.04474 0.4655 0.51709 0.0
C943 C 0.97306 0.4629 0.52147 0.0
C944 C 0.06296 0.47551 0.50719 0.0
C945 C 0.99113 0.49703 0.46637 0.0
H946 H 0.13935 0.52037 0.52598 0.0
C947 C 0.04584 0.54518 0.45614 0.0
C948 C 0.1173 0.54902 0.45739 0.0
C949 C 1.02733 0.53484 0.46449 0.0
C950 C 0.09844 0.51389 0.50862 0.0
H951 H 0.86435 0.46833 0.51696 0.0
H952 H 0.89588 0.4856 0.49925 0.0
H953 H 0.11182 0.50137 0.53599 0.0
H954 H 0.22469 0.5453 0.47055 0.0
H955 H 0.19313 0.5272 0.48378 0.0
H956 H 0.97818 0.50943 0.43863 0.0
C957 C 0.9382 0.47999 0.5036 0.0
C958 C 0.08269 0.50295 0.5144 0.0
C959 C 0.92009 0.47011 0.5139 0.0
C960 C 0.16922 0.54251 0.46855 0.0
C961 C 0.15088 0.53217 0.47668 0.0
C962 C 1.00728 0.50792 0.46034 0.0
C963 C 1.00988 0.48304 0.50094 0.0
C964 C 1.02871 0.49438 0.49343 0.0
C965 C 0.07977 0.52804 0.47436 0.0
C966 C 0.06118 0.51655 0.4814 0.0
H967 H 0.08673 0.46018 0.523 0.0
H968 H 0.11871 0.47749 0.50495 0.0
H969 H 0.94963 0.49059 0.44946 0.0
H970 H 1.00437 0.54991 0.44757 0.0
H971 H 0.97181 0.53214 0.46303 0.0
C972 C 0.50615 0.95809 0.9532 0.0
C973 C 0.52021 0.95527 0.98433 0.0
C974 C 0.50997 0.97072 0.95679 0.0
C975 C 0.50936 1.00488 0.02908 0.0
H976 H 0.58144 0.01154 0.94604 0.0
C977 C 0.57236 0.05638 0.04591 0.0
C978 C 0.55563 0.05952 0.01569 0.0
C979 C 0.56635 0.04372 0.04186 0.0
C980 C 0.56036 0.00986 0.96937 0.0
H981 H 0.54946 0.96381 0.04387 0.0
H982 H 0.55818 0.9857 0.04982 0.0
H983 H 0.57592 0.98955 0.93958 0.0
H984 H 0.51918 0.05163 0.95736 0.0
H985 H 0.50793 0.02957 0.95041 0.0
H986 H 0.49444 0.02522 0.05897 0.0
C987 C 0.54296 0.97814 0.02266 0.0
C988 C 0.55714 0.9972 0.96567 0.0
C989 C 0.53893 0.9655 0.0191 0.0
C990 C 0.53205 0.04962 0.98135 0.0
C991 C 0.52635 0.03692 0.97723 0.0
C992 C 0.51284 0.01754 0.03282 0.0
C993 C 0.52827 0.98096 0.99159 0.0
C994 C 0.53169 0.9945 -0.0045 0.0
C995 C 0.54358 0.03378 0.00742 0.0
C996 C 0.53853 0.02023 0.00306 0.0
H997 H 0.49252 0.9505 0.92579 0.0
H998 H 0.49749 0.97245 0.93227 0.0
H999 H 0.48812 1.00324 0.05244 0.0
H1000 H 0.58987 0.06374 0.07293 0.0
H1001 H 0.58077 0.0417 0.06564 0.0
C1002 C 0.68822 0.04535 0.49857 0.0
C1003 C 0.63319 0.05206 0.49044 0.0
C1004 C 0.67337 0.03483 0.50637 0.0
C1005 C 0.53827 0.01774 0.53552 0.0
H1006 H 0.65261 0.98795 0.47541 0.0
C1007 C 0.50225 0.96829 0.5424 0.0
C1008 C 0.56517 0.96157 0.54176 0.0
C1009 C 0.50396 0.9792 0.53486 0.0
C1010 C 0.62067 0.99618 0.49284 0.0
H1011 H 0.51875 0.05349 0.48691 0.0
H1012 H 0.49248 0.03513 0.50148 0.0
H1013 H 0.66788 1.00772 0.46808 0.0
H1014 H 0.67871 0.96086 0.53106 0.0
H1015 H 0.68209 0.97985 0.51919 0.0
H1016 H 0.49248 1.00626 0.56111 0.0
C1017 C 0.54732 0.03801 0.50131 0.0
C1018 C 0.62934 1.00754 0.48849 0.0
C1019 C 0.56232 0.04855 0.49316 0.0
C1020 C 0.62927 0.96586 0.5324 0.0
C1021 C 0.63103 0.97671 0.52504 0.0
C1022 C 0.53009 1.00636 0.54022 0.0
C1023 C 0.60295 0.03076 0.50666 0.0
C1024 C 0.58921 0.01853 0.51018 0.0
C1025 C 0.56859 0.98363 0.52633 0.0
C1026 C 0.57216 0.99547 0.51938 0.0
H1027 H 0.74336 0.04794 0.49745 0.0
H1028 H 0.71737 0.02966 0.51126 0.0
H1029 H 0.50654 0.02605 0.55263 0.0
H1030 H 0.45195 0.96534 0.54972 0.0
H1031 H 0.4546 0.98415 0.53573 0.0
C1032 C 0.21916 0.30042 0.98984 0.0
C1033 C 0.14565 0.30265 -0.00441 0.0
C1034 C 0.25135 0.29021 0.99478 0.0
C1035 C 0.22195 0.2669 0.03723 0.0
H1036 H 0.36038 0.24627 0.9625 0.0
C1037 C 0.32393 0.21845 0.03124 0.0
C1038 C 0.39762 0.21633 0.02627 0.0
C1039 C 0.29199 0.22859 0.0259 0.0
C1040 C 0.32222 0.25197 0.98383 0.0
H1041 H 0.04929 0.29632 0.01316 0.0
H1042 H 0.10467 0.27863 0.02139 0.0
H1043 H 0.31091 0.26534 0.95928 0.0
H1044 H 0.49469 0.22275 0.00969 0.0
H1045 H 0.43958 0.24032 0.00051 0.0
H1046 H 0.23318 0.25351 0.06175 0.0
C1047 C 0.13794 0.28469 0.01311 0.0
C1048 C 0.29401 0.26297 0.98208 0.0
C1049 C 0.10593 0.29481 0.00808 0.0
C1050 C 0.43783 0.22417 0.01403 0.0
C1051 C 0.40605 0.23422 0.00852 0.0
C1052 C 0.25009 0.25588 0.03896 0.0
C1053 C 0.21087 0.28206 0.00589 0.0
C1054 C 0.24335 0.27061 0.00872 0.0
C1055 C 0.33292 0.23678 0.01514 0.0
C1056 C 0.30068 0.24824 0.0123 0.0
H1057 H 0.25123 0.30624 0.9801 0.0
H1058 H 0.30787 0.28863 0.9895 0.0
H1059 H 0.18389 0.2726 0.05862 0.0
H1060 H 0.29153 0.21263 0.04084 0.0
H1061 H 0.23533 0.23013 0.03071 0.0
C1062 C 0.75213 0.80043 0.99111 0.0
C1063 C 0.67773 0.80158 0.99038 0.0
C1064 C 0.78316 0.79062 -0.00151 0.0
C1065 C 0.74311 0.76639 0.03645 0.0
H1066 H 0.90388 0.74826 0.9747 0.0
C1067 C 0.84737 0.71878 0.03561 0.0
C1068 C 0.92164 0.7176 0.03712 0.0
C1069 C 0.81737 0.72877 0.02874 0.0
C1070 C 0.85935 0.75327 0.99244 0.0
H1071 H 0.5779 0.79375 -0.00097 0.0
H1072 H 0.63136 0.77673 0.01143 0.0
H1073 H 0.85473 0.7668 0.96815 0.0
H1074 H 1.02241 0.7256 0.03047 0.0
H1075 H 0.97054 0.74291 0.01866 0.0
H1076 H 0.74756 0.75282 0.06062 0.0
C1077 C 0.66622 0.78334 0.00642 0.0
C1078 C 0.83128 0.76397 0.9888 0.0
C1079 C 0.6354 0.79308 -0.00101 0.0
C1080 C 0.96498 0.72629 0.02987 0.0
C1081 C 0.93513 0.73619 0.02281 0.0
C1082 C 0.77109 0.75568 0.04004 0.0
C1083 C 0.74053 0.78178 0.00559 0.0
C1084 C 0.7726 0.77069 0.0107 0.0
C1085 C 0.8609 0.73774 0.02284 0.0
C1086 C 0.82961 0.74894 0.01808 0.0
H1087 H 0.78628 0.80677 0.98445 0.0
H1088 H 0.84061 0.78987 -0.00182 0.0
H1089 H 0.69865 0.77139 0.05427 0.0
H1090 H 0.81246 0.71231 0.04124 0.0
H1091 H 0.75997 0.72953 0.02842 0.0
C1092 C 0.22752 0.71562 0.52691 0.0
C1093 C 0.15314 0.71422 0.52665 0.0
C1094 C 0.25848 0.72558 0.52019 0.0
C1095 C 0.21829 0.74979 0.48222 0.0
H1096 H 0.37776 0.76824 0.54502 0.0
C1097 C 0.32082 0.79759 0.48379 0.0
C1098 C 0.395 0.7987 0.48166 0.0
C1099 C 0.29107 0.78766 0.49107 0.0
C1100 C 0.33353 0.76315 0.52704 0.0
H1101 H 0.0534 0.72177 0.51691 0.0
H1102 H 0.10666 0.73909 0.5059 0.0
H1103 H 0.32909 0.74955 0.5511 0.0
H1104 H 0.49604 0.79071 0.48766 0.0
H1105 H 0.44458 0.77353 0.50041 0.0
H1106 H 0.22249 0.76343 0.45834 0.0
C1107 C 0.14159 0.73256 0.51113 0.0
C1108 C 0.30578 0.75236 0.53039 0.0
C1109 C 0.11086 0.72265 0.51783 0.0
C1110 C 0.43864 0.79007 0.48889 0.0
C1111 C 0.40906 0.78024 0.49641 0.0
C1112 C 0.24585 0.7606 0.47899 0.0
C1113 C 0.2158 0.73433 0.5128 0.0
C1114 C 0.24761 0.74552 0.50808 0.0
C1115 C 0.33486 0.7787 0.49677 0.0
C1116 C 0.30384 0.76745 0.50136 0.0
H1117 H 0.26163 0.70932 0.53369 0.0
H1118 H 0.31588 0.7265 0.52113 0.0
H1119 H 0.17431 0.74469 0.46405 0.0
H1120 H 0.28579 0.80402 0.47814 0.0
H1121 H 0.23369 0.78688 0.49168 0.0
C1122 C 0.96839 0.29056 0.48683 0.0
C1123 C 0.92468 0.29948 0.48104 0.0
C1124 C 0.93895 0.28074 0.49449 0.0
C1125 C 0.77258 0.27008 0.52479 0.0
H1126 H 0.85959 0.23641 0.47591 0.0
C1127 C 0.63646 0.22528 0.52562 0.0
C1128 C 0.67892 0.21646 0.53262 0.0
C1129 C 0.66727 0.23505 0.5183 0.0
C1130 C 0.83502 0.24577 0.49013 0.0
H1131 H 0.81541 0.30525 0.48004 0.0
H1132 H 0.76366 0.28808 0.49332 0.0
H1133 H 0.91049 0.25441 0.46692 0.0
H1134 H 0.78754 0.21075 0.53576 0.0
H1135 H 0.84176 0.22784 0.52278 0.0
H1136 H 0.69692 0.26142 0.54784 0.0
C1137 C 0.82102 0.28873 0.49221 0.0
C1138 C 0.86431 0.25614 0.48502 0.0
C1139 C 0.85064 0.29862 0.48465 0.0
C1140 C 0.75329 0.21732 0.53029 0.0
C1141 C 0.7843 0.22715 0.52293 0.0
C1142 C 0.74324 0.25972 0.52983 0.0
C1143 C 0.86476 0.2795 0.49654 0.0
C1144 C 0.83353 0.26846 0.50226 0.0
C1145 C 0.74162 0.23633 0.51767 0.0
C1146 C 0.77386 0.24739 0.51247 0.0
H1147 H 1.02573 0.29106 0.48493 0.0
H1148 H 0.97458 0.27407 0.49862 0.0
H1149 H 0.74795 0.27943 0.53905 0.0
H1150 H 0.57896 0.22475 0.52643 0.0
H1151 H 0.63257 0.24169 0.51338 0.0
C1152 C 0.10096 0.37955 0.13063 0.0
C1153 C 0.07135 0.38889 0.12071 0.0
C1154 C 0.09317 0.38045 0.16726 0.0
C1155 C 0.97705 0.39298 0.24963 0.0
H1156 H 0.13934 0.38717 0.3017 0.0
C1157 C 0.95357 0.39424 0.39954 0.0
C1158 C 0.99324 0.38508 0.40628 0.0
C1159 C 0.96392 0.3959 0.36635 0.0
C1160 C 0.09322 0.38867 0.28743 0.0
H1161 H 1.01024 0.40652 0.14146 0.0
H1162 H 0.99554 0.40797 0.20567 0.0
H1163 H 0.15613 0.38795 0.24078 0.0
H1164 H 0.07609 0.3707 0.38363 0.0
H1165 H 0.09167 0.37313 0.3254 0.0
H1166 H 0.91356 0.39323 0.2955 0.0
C1167 C 1.02514 0.4 0.18494 0.0
C1168 C 0.10303 0.38919 0.25262 0.0
C1169 C 1.03389 0.39921 0.14832 0.0
C1170 C 0.04368 0.37769 0.37919 0.0
C1171 C 0.05348 0.37924 0.34593 0.0
C1172 C 0.96703 0.39232 0.28432 0.0
C1173 C 0.05482 0.39063 0.19473 0.0
C1174 C 0.04495 0.39118 0.23313 0.0
C1175 C 1.01399 0.3884 0.33907 0.0
C1176 C 1.02489 0.38997 0.30341 0.0
H1177 H 0.13031 0.3715 0.11007 0.0
H1178 H 0.116 0.37302 0.17389 0.0
H1179 H 0.93125 0.39443 0.23503 0.0
H1180 H 0.91455 0.40017 0.41989 0.0
H1181 H 0.9332 0.40316 0.36231 0.0
C1182 C 0.94863 0.62387 0.12253 0.0
C1183 C 0.98894 0.6329 0.11529 0.0
C1184 C 0.95689 0.62274 0.15667 0.0
C1185 C 1.01279 0.6412 0.25511 0.0
H1186 H 0.04215 0.60827 0.25771 0.0
C1187 C 0.1028 0.63849 0.39167 0.0
C1188 C 0.07464 0.62881 0.4006 0.0
C1189 C 0.09107 0.6383 0.35613 0.0
C1190 C 1.03293 0.61752 0.25757 0.0
H1191 H 0.07182 0.64737 0.13773 0.0
H1192 H 0.08428 0.64569 0.19745 0.0
H1193 H 1.02207 0.60921 0.19695 0.0
H1194 H 1.01291 0.61121 0.37898 0.0
H1195 H 0.99074 0.61102 0.31693 0.0
H1196 H 1.0222 0.64958 0.31541 0.0
C1197 C 0.04586 0.63958 0.1769 0.0
C1198 C 1.02162 0.61805 0.22275 0.0
C1199 C 0.03842 0.64058 0.14267 0.0
C1200 C 1.03556 0.61877 0.37285 0.0
C1201 C 1.02305 0.61866 0.33726 0.0
C1202 C 1.02322 0.64068 0.28984 0.0
C1203 C 1.00501 0.6307 0.18435 0.0
C1204 C 1.01258 0.62993 0.22118 0.0
C1205 C 0.04995 0.62852 0.32864 0.0
C1206 C 1.03473 0.62886 0.29155 0.0
H1207 H 0.91033 0.61774 0.102 0.0
H1208 H 0.92464 0.61583 0.16174 0.0
H1209 H 1.00468 0.65047 0.25479 0.0
H1210 H 0.13398 0.64628 0.41222 0.0
H1211 H 0.1144 0.64586 0.35026 0.0
C1212 C 1.01145 0.64608 0.9064 0.0
C1213 C 0.96578 0.63711 0.91072 0.0
C1214 C 1.02101 0.64615 0.87102 0.0
C1215 C 0.94627 0.63381 0.77325 0.0
H1216 H 0.13748 0.64083 0.74946 0.0
C1217 C 0.03777 0.62475 0.62204 0.0
C1218 C 0.07563 0.63478 0.61903 0.0
C1219 C 1.02233 0.6252 0.65763 0.0
C1220 C 0.08372 0.63895 0.75583 0.0
H1221 H 0.88943 0.62194 0.88156 0.0
H1222 H 0.90913 0.62151 0.81927 0.0
H1223 H 0.11306 0.64118 0.81117 0.0
H1224 H 0.12809 0.65303 0.65033 0.0
H1225 H 0.10178 0.65381 0.71285 0.0
H1226 H 0.91797 0.63121 0.71713 0.0
C1227 C 0.93755 0.62855 0.84335 0.0
C1228 C 0.06948 0.63921 0.79128 0.0
C1229 C 0.92713 0.62863 0.87901 0.0
C1230 C 0.09834 0.64524 0.65207 0.0
C1231 C 0.08375 0.64562 0.6877 0.0
C1232 C 0.96083 0.63339 0.73755 0.0
C1233 C 0.98568 0.63718 0.83877 0.0
C1234 C 1.00045 0.63673 0.80064 0.0
C1235 C 0.04527 0.63563 0.69083 0.0
C1236 C 1.02963 0.63602 0.72858 0.0
H1237 H 0.04091 0.653 0.93022 0.0
H1238 H 0.0566 0.65323 0.869 0.0
H1239 H 0.89231 0.63203 0.77951 0.0
H1240 H 1.0187 0.61669 0.59687 0.0
H1241 H 0.99298 0.61733 0.6592 0.0
C1242 C 0.92746 0.38784 0.64045 0.0
C1243 C 0.96646 0.37951 0.60876 0.0
C1244 C 0.9366 0.38762 0.67581 0.0
C1245 C 0.06534 0.37632 0.72771 0.0
H1246 H 0.91196 0.38428 0.80066 0.0
C1247 C 0.08947 0.37037 0.86743 0.0
C1248 C 0.06737 0.38098 0.90017 0.0
C1249 C 0.07543 0.36984 0.83155 0.0
C1250 C 0.95531 0.38209 0.78056 0.0
H1251 H 0.0411 0.36361 0.58893 0.0
H1252 H 0.05453 0.36285 0.64961 0.0
H1253 H 0.88855 0.38371 0.73836 0.0
H1254 H 1.01152 0.39913 0.92153 0.0
H1255 H 0.98676 0.39822 0.85883 0.0
H1256 H 0.13157 0.37447 0.76981 0.0
C1257 C 1.01959 0.37004 0.64784 0.0
C1258 C 0.94207 0.38182 0.74491 0.0
C1259 C 1.01133 0.37041 0.61277 0.0
C1260 C 1.03025 0.39097 0.89661 0.0
C1261 C 1.01532 0.39036 0.8608 0.0
C1262 C 0.07825 0.37642 0.76311 0.0
C1263 C 0.98376 0.37884 0.6801 0.0
C1264 C 0.99699 0.37897 0.718 0.0
C1265 C 0.038 0.37982 0.8279 0.0
C1266 C 1.0235 0.37936 0.78995 0.0
H1267 H 0.89041 0.39464 0.63812 0.0
H1268 H 0.90791 0.39456 0.6999 0.0
H1269 H 0.10949 0.37438 0.70821 0.0
H1270 H 0.1185 0.3626 0.8696 0.0
H1271 H 0.09321 0.36157 0.80663 0.0
C1272 C 0.63954 0.87262 0.11574 0.0
C1273 C 0.62796 0.88396 0.11133 0.0
C1274 C 0.63158 0.87246 0.15129 0.0
C1275 C 0.53729 0.8894 0.24188 0.0
H1276 H 0.66993 0.87214 0.28059 0.0
C1277 C 0.50875 0.893 0.39315 0.0
C1278 C 0.52102 0.88186 0.39861 0.0
C1279 C 0.52643 0.89344 0.35888 0.0
C1280 C 0.63187 0.87688 0.27005 0.0
H1281 H 0.59577 0.90381 0.14051 0.0
H1282 H 0.58369 0.90372 0.20242 0.0
H1283 H 0.69188 0.87237 0.21912 0.0
H1284 H 0.56675 0.86281 0.37285 0.0
H1285 H 0.59496 0.86331 0.31269 0.0
H1286 H 0.4764 0.89371 0.2921 0.0
C1287 C 0.59966 0.89495 0.17857 0.0
C1288 C 0.6446 0.87703 0.23482 0.0
C1289 C 0.6081 0.8951 0.14314 0.0
C1290 C 0.55433 0.87138 0.36937 0.0
C1291 C 0.57162 0.87176 0.33494 0.0
C1292 C 0.5243 0.88918 0.27688 0.0
C1293 C 0.61069 0.88361 0.18305 0.0
C1294 C 0.59759 0.88335 0.2204 0.0
C1295 C 0.5569 0.88274 0.32898 0.0
C1296 C 0.5715 0.88296 0.29159 0.0
H1297 H 0.65422 0.86383 0.09161 0.0
H1298 H 0.63972 0.86353 0.15366 0.0
H1299 H 0.49927 0.89415 0.23129 0.0
H1300 H 0.48441 0.9014 0.41513 0.0
H1301 H 0.51598 0.90219 0.35583 0.0
C1302 C 0.47233 0.12507 0.12601 0.0
C1303 C 0.4962 0.13535 0.11848 0.0
C1304 C 0.48847 0.12463 0.1605 0.0
C1305 C 0.53208 0.14534 0.25955 0.0
H1306 H 0.60483 0.11435 0.26277 0.0
C1307 C 0.62039 0.14493 0.4009 0.0
C1308 C 0.60789 0.13377 0.4061 0.0
C1309 C 0.61008 0.14495 0.36538 0.0
C1310 C 0.58353 0.12304 0.26255 0.0
H1311 H 0.55901 0.15284 0.14097 0.0
H1312 H 0.58444 0.15235 0.20151 0.0
H1313 H 0.57898 0.11457 0.20173 0.0
H1314 H 0.57244 0.114 0.37852 0.0
H1315 H 0.55288 0.11404 0.31687 0.0
H1316 H 0.53417 0.15375 0.32012 0.0
C1317 C 0.55269 0.1447 0.1808 0.0
C1318 C 0.56902 0.12316 0.22747 0.0
C1319 C 0.53762 0.14503 0.14611 0.0
C1320 C 0.58453 0.12264 0.37511 0.0
C1321 C 0.57322 0.12269 0.3397 0.0
C1322 C 0.54555 0.14517 0.29463 0.0
C1323 C 0.52813 0.13452 0.18844 0.0
C1324 C 0.54334 0.13432 0.2256 0.0
C1325 C 0.58563 0.13386 0.33429 0.0
C1326 C 0.5717 0.13403 0.29671 0.0
H1327 H 0.44091 0.11736 0.10534 0.0
H1328 H 0.46871 0.11667 0.16563 0.0
H1329 H 0.51146 0.15404 0.25901 0.0
H1330 H 0.63862 0.15366 0.4243 0.0
H1331 H 0.62165 0.15368 0.36236 0.0
C1332 C 0.48188 0.12301 0.87647 0.0
C1333 C 0.44748 0.13333 0.90547 0.0
C1334 C 0.49133 0.12288 0.84072 0.0
C1335 C 0.48182 0.12165 0.76181 0.0
H1336 H 0.51346 0.15411 0.75665 0.0
C1337 C 0.52139 0.12439 0.61787 0.0
C1338 C 0.56675 0.13397 0.61716 0.0
C1339 C 0.50245 0.12424 0.65245 0.0
C1340 C 0.5057 0.14491 0.75744 0.0
H1341 H 0.39574 0.15158 0.92032 0.0
H1342 H 0.4087 0.15116 0.85745 0.0
H1343 H 0.49041 0.15388 0.8174 0.0
H1344 H 0.63091 0.15047 0.6515 0.0
H1345 H 0.60054 0.15002 0.71149 0.0
H1346 H 0.50166 0.11264 0.70215 0.0
C1347 C 0.43024 0.14326 0.86221 0.0
C1348 C 0.49096 0.14479 0.79244 0.0
C1349 C 0.42202 0.14348 0.89817 0.0
C1350 C 0.5942 0.1432 0.65141 0.0
C1351 C 0.57648 0.14294 0.68586 0.0
C1352 C 0.49785 0.12175 0.72687 0.0
C1353 C 0.46592 0.13304 0.83301 0.0
C1354 C 0.47903 0.13316 0.79527 0.0
C1355 C 0.52975 0.13353 0.68704 0.0
C1356 C 0.51045 0.13338 0.72414 0.0
H1357 H 0.5044 0.11532 0.88188 0.0
H1358 H 0.52074 0.115 0.8196 0.0
H1359 H 0.47176 0.11249 0.76246 0.0
H1360 H 0.49931 0.11719 0.59176 0.0
H1361 H 0.46556 0.11695 0.65198 0.0
C1362 C 0.5108 0.89386 0.63805 0.0
C1363 C 0.4817 0.88288 0.60853 0.0
C1364 C 0.52388 0.89408 0.6737 0.0
C1365 C 0.54207 0.8722 0.72176 0.0
H1366 H 0.52268 0.90381 0.81333 0.0
C1367 C 0.54115 0.87368 0.87177 0.0
C1368 C 0.58727 0.88261 0.89855 0.0
C1369 C 0.52858 0.87399 0.83684 0.0
C1370 C 0.52873 0.89494 0.78795 0.0
H1371 H 0.44195 0.86364 0.59362 0.0
H1372 H 0.46195 0.86418 0.65584 0.0
H1373 H 0.4988 0.90378 0.75174 0.0
H1374 H 0.65341 0.89936 0.91009 0.0
H1375 H 0.62984 0.90007 0.84936 0.0
H1376 H 0.56986 0.86332 0.75831 0.0
C1377 C 0.4771 0.8725 0.65138 0.0
C1378 C 0.51538 0.8949 0.75254 0.0
C1379 C 0.46507 0.87221 0.61563 0.0
C1380 C 0.61828 0.89221 0.89004 0.0
C1381 C 0.60461 0.89267 0.8553 0.0
C1382 C 0.55429 0.8722 0.75715 0.0
C1383 C 0.5073 0.88339 0.68093 0.0
C1384 C 0.52181 0.88352 0.71886 0.0
C1385 C 0.56036 0.88345 0.82813 0.0
C1386 C 0.54778 0.88356 0.79062 0.0
H1387 H 0.52486 0.9022 0.63341 0.0
H1388 H 0.54826 0.90257 0.69534 0.0
H1389 H 0.54939 0.8633 0.69664 0.0
H1390 H 0.51427 0.86645 0.87773 0.0
H1391 H 0.49318 0.8669 0.81674 0.0
loop_
_geom_bond_atom_site_label_1
_geom_bond_atom_site_label_2
_geom_bond_distance
_geom_bond_site_symmetry_2
_ccdc_geom_bond_type
Tb0 N31 2.660 . S
Tb0 N38 2.600 . S
Tb0 O44 2.546 . S
Tb0 O45 2.610 1_455 S
Tb0 O47 2.320 1_554 S
Tb0 O48 2.552 1_455 S
Tb0 O49 2.413 . S
Tb0 O51 2.362 . S
Tb0 O52 2.421 . S
Tb0 C64 2.833 . S
C1 C4 1.432 . S
C1 C5 1.414 . S
C1 N8 1.359 . S
C2 C4 1.417 . S
C2 C6 1.432 . S
C2 C14 1.410 1_556 S
C3 C5 1.444 . S
C3 C6 1.317 . S
C3 H26 0.929 . S
C4 C1 1.432 . S
C4 C2 1.417 . S
C4 N12 1.360 1_556 S
C5 C1 1.414 . S
C5 C3 1.444 . S
C5 C10 1.385 . S
C6 C2 1.432 . S
C6 C3 1.317 . S
C6 H18 0.930 . S
C7 C9 1.392 . S
C7 C10 1.370 . S
C7 H19 0.931 . S
N8 C1 1.359 . S
N8 C9 1.327 . S
N8 Tb11 2.600 1_655 S
C9 C7 1.392 . S
C9 N8 1.327 . S
C9 H16 0.930 1_655 S
C10 C5 1.385 . S
C10 C7 1.370 . S
C10 H29 0.930 . S
Tb11 N8 2.600 1_455 S
Tb11 N12 2.660 1_456 S
Tb11 O45 2.362 1_456 S
Tb11 O46 2.421 . S
Tb11 O50 2.546 . S
Tb11 O51 2.610 1_556 S
Tb11 O53 2.320 1_556 S
Tb11 O54 2.552 . S
Tb11 O55 2.413 1_556 S
Tb11 C75 2.833 . S
N12 C4 1.360 1_554 S
N12 Tb11 2.660 1_654 S
N12 C13 1.305 . S
C13 N12 1.305 . S
C13 C15 1.407 . S
C13 H20 0.930 . S
C14 C2 1.410 1_554 S
C14 C15 1.345 . S
C14 H22 0.930 . S
C15 C13 1.407 . S
C15 C14 1.345 . S
C15 H17 0.930 . S
H16 C9 0.930 1_455 S
H17 C15 0.930 . S
H18 C6 0.930 . S
H19 C7 0.931 . S
H20 C13 0.930 . S
H21 C35 0.930 . S
H22 C14 0.930 . S
H23 C41 0.930 . S
H24 C32 0.930 . S
H25 C39 0.931 . S
H26 C3 0.929 . S
H27 C33 0.930 . S
H28 C66 0.930 . S
H29 C10 0.930 . S
H30 C65 0.929 . S
N31 Tb0 2.660 . S
N31 C32 1.305 1_554 S
N31 C36 1.360 . S
C32 H24 0.930 . S
C32 N31 1.305 1_556 S
C32 C35 1.407 . S
C33 H27 0.930 . S
C33 C34 1.410 1_556 S
C33 C35 1.345 . S
C34 C33 1.410 1_554 S
C34 C36 1.417 . S
C34 C66 1.432 . S
C35 H21 0.930 . S
C35 C32 1.407 . S
C35 C33 1.345 . S
C36 N31 1.360 . S
C36 C34 1.417 . S
C36 C40 1.432 . S
H37 C42 0.930 . S
N38 Tb0 2.600 . S
N38 C40 1.359 . S
N38 C41 1.327 . S
C39 H25 0.931 . S
C39 C41 1.392 . S
C39 C42 1.370 . S
C40 C36 1.432 . S
C40 N38 1.359 . S
C40 C43 1.414 . S
C41 H23 0.930 . S
C41 N38 1.327 . S
C41 C39 1.392 . S
C42 H37 0.930 . S
C42 C39 1.370 . S
C42 C43 1.385 . S
C43 C40 1.414 . S
C43 C42 1.385 . S
C43 C65 1.444 . S
O44 Tb0 2.546 . S
O44 C64 1.251 . S
O45 Tb0 2.610 1_655 S
O45 Tb11 2.362 1_654 S
O45 C56 1.283 . S
O46 Tb11 2.421 . S
O46 C63 1.262 . S
O47 Tb0 2.320 1_556 S
O47 C63 1.260 . S
O48 Tb0 2.552 1_655 S
O48 C56 1.243 . S
O49 Tb0 2.413 . S
O49 C64 1.256 . S
O50 Tb11 2.546 . S
O50 C75 1.251 . S
O51 Tb0 2.362 . S
O51 Tb11 2.610 1_554 S
O51 C67 1.283 . S
O52 Tb0 2.421 . S
O52 C74 1.262 . S
O53 Tb11 2.320 1_554 S
O53 C74 1.260 . S
O54 Tb11 2.552 . S
O54 C67 1.243 1_556 S
O55 Tb11 2.413 1_554 S
O55 C75 1.256 1_554 S
C56 O45 1.283 . S
C56 O48 1.243 . S
C57 C59 1.378 1_455 S
C57 C61 1.394 . S
C57 C64 1.504 . S
C58 C59 1.400 . S
C58 C60 1.384 . S
C59 C57 1.378 1_655 S
C59 C58 1.400 . S
C59 H76 0.930 . S
C60 C58 1.384 . S
C60 C62 1.392 . S
C60 H77 0.931 . S
C61 C57 1.394 . S
C61 C62 1.401 1_455 S
C61 H78 0.930 . S
C62 C60 1.392 . S
C62 C61 1.401 1_655 S
C62 H79 0.930 . S
C63 O46 1.262 . S
C63 O47 1.260 . S
C64 Tb0 2.833 . S
C64 O44 1.251 . S
C64 O49 1.256 . S
C64 C57 1.504 . S
C65 H30 0.929 . S
C65 C43 1.444 . S
C65 C66 1.317 . S
C66 H28 0.930 . S
C66 C34 1.432 . S
C66 C65 1.317 . S
C67 O51 1.283 . S
C67 O54 1.243 1_554 S
C68 C69 1.382 . S
C68 C72 1.393 . S
C68 C75 1.500 . S
C69 C68 1.382 . S
C69 C70 1.400 . S
C69 H80 0.930 1_556 S
C70 C69 1.400 . S
C70 C71 1.384 . S
C71 C70 1.384 . S
C71 C73 1.392 . S
C71 H81 0.931 . S
C72 C68 1.393 . S
C72 C73 1.401 . S
C72 H82 0.930 . S
C73 C71 1.392 . S
C73 C72 1.401 . S
C73 H83 0.930 . S
C74 O52 1.262 . S
C74 O53 1.260 . S
C75 Tb11 2.833 . S
C75 O50 1.251 . S
C75 O55 1.256 1_556 S
C75 C68 1.500 . S
H76 C59 0.930 . S
H77 C60 0.931 . S
H78 C61 0.930 . S
H79 C62 0.930 . S
H80 C69 0.930 1_554 S
H81 C71 0.931 . S
H82 C72 0.930 . S
H83 C73 0.930 . S
Tb84 N115 2.660 1_655 S
Tb84 N122 2.600 1_655 S
Tb84 O128 2.546 . S
Tb84 O129 2.610 . S
Tb84 O131 2.320 1_554 S
Tb84 O132 2.552 . S
Tb84 O133 2.413 . S
Tb84 O135 2.362 1_655 S
Tb84 O136 2.421 . S
Tb84 C148 2.833 . S
C85 C88 1.432 . S
C85 C89 1.414 . S
C85 N92 1.359 . S
C86 C88 1.417 . S
C86 C90 1.432 . S
C86 C98 1.410 1_556 S
C87 C89 1.444 . S
C87 C90 1.317 . S
C87 H110 0.929 . S
C88 C85 1.432 . S
C88 C86 1.417 . S
C88 N96 1.360 1_556 S
C89 C85 1.414 . S
C89 C87 1.444 . S
C89 C94 1.385 . S
C90 C86 1.432 . S
C90 C87 1.317 . S
C90 H102 0.930 . S
C91 C93 1.392 . S
C91 C94 1.370 . S
C91 H103 0.931 . S
N92 C85 1.359 . S
N92 C93 1.327 . S
N92 Tb95 2.600 . S
C93 C91 1.392 . S
C93 N92 1.327 . S
C93 H100 0.930 . S
C94 C89 1.385 . S
C94 C91 1.370 . S
C94 H113 0.930 . S
Tb95 N92 2.600 . S
Tb95 N96 2.660 1_556 S
Tb95 O129 2.362 1_556 S
Tb95 O130 2.421 . S
Tb95 O134 2.546 . S
Tb95 O135 2.610 1_656 S
Tb95 O137 2.320 1_556 S
Tb95 O138 2.552 1_655 S
Tb95 O139 2.413 1_556 S
Tb95 C159 2.833 . S
N96 C88 1.360 1_554 S
N96 Tb95 2.660 1_554 S
N96 C97 1.305 . S
C97 N96 1.305 . S
C97 C99 1.407 . S
C97 H104 0.930 . S
C98 C86 1.410 1_554 S
C98 C99 1.345 . S
C98 H106 0.930 . S
C99 C97 1.407 . S
C99 C98 1.345 . S
C99 H101 0.930 . S
H100 C93 0.930 . S
H101 C99 0.930 . S
H102 C90 0.930 . S
H103 C91 0.931 . S
H104 C97 0.930 . S
H105 C119 0.930 . S
H106 C98 0.930 . S
H107 C125 0.930 1_655 S
H108 C116 0.930 . S
H109 C123 0.931 . S
H110 C87 0.929 . S
H111 C117 0.930 1_556 S
H112 C150 0.930 . S
H113 C94 0.930 . S
H114 C149 0.929 . S
N115 Tb84 2.660 1_455 S
N115 C116 1.305 1_554 S
N115 C120 1.360 . S
C116 H108 0.930 . S
C116 N115 1.305 1_556 S
C116 C119 1.407 . S
C117 H111 0.930 1_554 S
C117 C118 1.410 . S
C117 C119 1.345 1_554 S
C118 C117 1.410 . S
C118 C120 1.417 . S
C118 C150 1.432 . S
C119 H105 0.930 . S
C119 C116 1.407 . S
C119 C117 1.345 1_556 S
C120 N115 1.360 . S
C120 C118 1.417 . S
C120 C124 1.432 . S
H121 C126 0.930 . S
N122 Tb84 2.600 1_455 S
N122 C124 1.359 . S
N122 C125 1.327 . S
C123 H109 0.931 . S
C123 C125 1.392 . S
C123 C126 1.370 . S
C124 C120 1.432 . S
C124 N122 1.359 . S
C124 C127 1.414 . S
C125 H107 0.930 1_455 S
C125 N122 1.327 . S
C125 C123 1.392 . S
C126 H121 0.930 . S
C126 C123 1.370 . S
C126 C127 1.385 . S
C127 C124 1.414 . S
C127 C126 1.385 . S
C127 C149 1.444 . S
O128 Tb84 2.546 . S
O128 C148 1.251 . S
O129 Tb84 2.610 . S
O129 Tb95 2.362 1_554 S
O129 C140 1.283 . S
O130 Tb95 2.421 . S
O130 C147 1.262 . S
O131 Tb84 2.320 1_556 S
O131 C147 1.260 . S
O132 Tb84 2.552 . S
O132 C140 1.243 . S
O133 Tb84 2.413 . S
O133 C148 1.256 . S
O134 Tb95 2.546 . S
O134 C159 1.251 . S
O135 Tb84 2.362 1_455 S
O135 Tb95 2.610 1_454 S
O135 C151 1.283 . S
O136 Tb84 2.421 . S
O136 C158 1.262 . S
O137 Tb95 2.320 1_554 S
O137 C158 1.260 . S
O138 Tb95 2.552 1_455 S
O138 C151 1.243 1_556 S
O139 Tb95 2.413 1_554 S
O139 C159 1.256 1_554 S
C140 O129 1.283 . S
C140 O132 1.243 . S
C141 C143 1.382 . S
C141 C145 1.393 . S
C141 C148 1.500 . S
C142 C143 1.400 . S
C142 C144 1.384 . S
C143 C141 1.382 . S
C143 C142 1.400 . S
C143 H160 0.930 . S
C144 C142 1.384 . S
C144 C146 1.392 . S
C144 H161 0.931 . S
C145 C141 1.393 . S
C145 C146 1.401 . S
C145 H162 0.930 . S
C146 C144 1.392 . S
C146 C145 1.401 . S
C146 H163 0.930 . S
C147 O130 1.262 . S
C147 O131 1.260 . S
C148 Tb84 2.833 . S
C148 O128 1.251 . S
C148 O133 1.256 . S
C148 C141 1.500 . S
C149 H114 0.929 . S
C149 C127 1.444 . S
C149 C150 1.317 . S
C150 H112 0.930 . S
C150 C118 1.432 . S
C150 C149 1.317 . S
C151 O135 1.283 . S
C151 O138 1.243 1_554 S
C152 C153 1.378 1_656 S
C152 C156 1.394 . S
C152 C159 1.504 . S
C153 C152 1.378 1_454 S
C153 C154 1.400 1_554 S
C153 H164 0.930 . S
C154 C153 1.400 1_556 S
C154 C155 1.384 . S
C155 C154 1.384 . S
C155 C157 1.392 . S
C155 H165 0.931 . S
C156 C152 1.394 . S
C156 C157 1.401 1_655 S
C156 H166 0.930 . S
C157 C155 1.392 . S
C157 C156 1.401 1_455 S
C157 H167 0.930 . S
C158 O136 1.262 . S
C158 O137 1.260 . S
C159 Tb95 2.833 . S
C159 O134 1.251 . S
C159 O139 1.256 1_556 S
C159 C152 1.504 . S
H160 C143 0.930 . S
H161 C144 0.931 . S
H162 C145 0.930 . S
H163 C146 0.930 . S
H164 C153 0.930 . S
H165 C155 0.931 . S
H166 C156 0.930 . S
H167 C157 0.930 . S
Tb168 N199 2.660 . S
Tb168 N206 2.600 . S
Tb168 O212 2.546 . S
Tb168 O213 2.610 1_455 S
Tb168 O215 2.320 . S
Tb168 O216 2.552 1_455 S
Tb168 O217 2.413 . S
Tb168 O219 2.362 . S
Tb168 O220 2.421 . S
Tb168 C232 2.833 . S
C169 C172 1.432 . S
C169 C173 1.414 . S
C169 N176 1.359 . S
C170 C172 1.417 . S
C170 C174 1.432 . S
C170 C182 1.410 . S
C171 C173 1.444 . S
C171 C174 1.317 . S
C171 H194 0.929 . S
C172 C169 1.432 . S
C172 C170 1.417 . S
C172 N180 1.360 . S
C173 C169 1.414 . S
C173 C171 1.444 . S
C173 C178 1.385 . S
C174 C170 1.432 . S
C174 C171 1.317 . S
C174 H186 0.930 . S
C175 C177 1.392 . S
C175 C178 1.370 . S
C175 H187 0.931 . S
N176 C169 1.359 . S
N176 C177 1.327 . S
N176 Tb179 2.600 1_655 S
C177 C175 1.392 . S
C177 N176 1.327 . S
C177 H184 0.930 1_655 S
C178 C173 1.385 . S
C178 C175 1.370 . S
C178 H197 0.930 . S
Tb179 N176 2.600 1_455 S
Tb179 N180 2.660 1_455 S
Tb179 O213 2.362 1_455 S
Tb179 O214 2.421 . S
Tb179 O218 2.546 . S
Tb179 O219 2.610 . S
Tb179 O221 2.320 . S
Tb179 O222 2.552 . S
Tb179 O223 2.413 . S
Tb179 C243 2.833 . S
N180 C172 1.360 . S
N180 Tb179 2.660 1_655 S
N180 C181 1.305 . S
C181 N180 1.305 . S
C181 C183 1.407 . S
C181 H188 0.930 . S
C182 C170 1.410 . S
C182 C183 1.345 . S
C182 H190 0.930 . S
C183 C181 1.407 . S
C183 C182 1.345 . S
C183 H185 0.930 . S
H184 C177 0.930 1_455 S
H185 C183 0.930 . S
H186 C174 0.930 . S
H187 C175 0.931 . S
H188 C181 0.930 . S
H189 C203 0.930 . S
H190 C182 0.930 . S
H191 C209 0.930 . S
H192 C200 0.930 . S
H193 C207 0.931 . S
H194 C171 0.929 . S
H195 C201 0.930 . S
H196 C234 0.930 . S
H197 C178 0.930 . S
H198 C233 0.929 . S
N199 Tb168 2.660 . S
N199 C200 1.305 . S
N199 C204 1.360 . S
C200 H192 0.930 . S
C200 N199 1.305 . S
C200 C203 1.407 . S
C201 H195 0.930 . S
C201 C202 1.410 . S
C201 C203 1.345 . S
C202 C201 1.410 . S
C202 C204 1.417 . S
C202 C234 1.432 . S
C203 H189 0.930 . S
C203 C200 1.407 . S
C203 C201 1.345 . S
C204 N199 1.360 . S
C204 C202 1.417 . S
C204 C208 1.432 . S
H205 C210 0.930 . S
N206 Tb168 2.600 . S
N206 C208 1.359 . S
N206 C209 1.327 . S
C207 H193 0.931 . S
C207 C209 1.392 . S
C207 C210 1.370 . S
C208 C204 1.432 . S
C208 N206 1.359 . S
C208 C211 1.414 . S
C209 H191 0.930 . S
C209 N206 1.327 . S
C209 C207 1.392 . S
C210 H205 0.930 . S
C210 C207 1.370 . S
C210 C211 1.385 . S
C211 C208 1.414 . S
C211 C210 1.385 . S
C211 C233 1.444 . S
O212 Tb168 2.546 . S
O212 C232 1.251 . S
O213 Tb168 2.610 1_655 S
O213 Tb179 2.362 1_655 S
O213 C224 1.283 . S
O214 Tb179 2.421 . S
O214 C231 1.262 . S
O215 Tb168 2.320 . S
O215 C231 1.260 . S
O216 Tb168 2.552 1_655 S
O216 C224 1.243 . S
O217 Tb168 2.413 . S
O217 C232 1.256 . S
O218 Tb179 2.546 . S
O218 C243 1.251 . S
O219 Tb168 2.362 . S
O219 Tb179 2.610 . S
O219 C235 1.283 . S
O220 Tb168 2.421 . S
O220 C242 1.262 . S
O221 Tb179 2.320 . S
O221 C242 1.260 . S
O222 Tb179 2.552 . S
O222 C235 1.243 . S
O223 Tb179 2.413 . S
O223 C243 1.256 . S
C224 O213 1.283 . S
C224 O216 1.243 . S
C225 C227 1.378 1_455 S
C225 C229 1.394 . S
C225 C232 1.504 . S
C226 C227 1.400 . S
C226 C228 1.384 . S
C227 C225 1.378 1_655 S
C227 C226 1.400 . S
C227 H244 0.930 . S
C228 C226 1.384 . S
C228 C230 1.392 . S
C228 H245 0.931 . S
C229 C225 1.394 . S
C229 C230 1.401 1_455 S
C229 H246 0.930 . S
C230 C228 1.392 . S
C230 C229 1.401 1_655 S
C230 H247 0.930 . S
C231 O214 1.262 . S
C231 O215 1.260 . S
C232 Tb168 2.833 . S
C232 O212 1.251 . S
C232 O217 1.256 . S
C232 C225 1.504 . S
C233 H198 0.929 . S
C233 C211 1.444 . S
C233 C234 1.317 . S
C234 H196 0.930 . S
C234 C202 1.432 . S
C234 C233 1.317 . S
C235 O219 1.283 . S
C235 O222 1.243 . S
C236 C237 1.382 . S
C236 C240 1.393 . S
C236 C243 1.500 . S
C237 C236 1.382 . S
C237 C238 1.400 . S
C237 H248 0.930 . S
C238 C237 1.400 . S
C238 C239 1.384 . S
C239 C238 1.384 . S
C239 C241 1.392 . S
C239 H249 0.931 . S
C240 C236 1.393 . S
C240 C241 1.401 . S
C240 H250 0.930 . S
C241 C239 1.392 . S
C241 C240 1.401 . S
C241 H251 0.930 . S
C242 O220 1.262 . S
C242 O221 1.260 . S
C243 Tb179 2.833 . S
C243 O218 1.251 . S
C243 O223 1.256 . S
C243 C236 1.500 . S
H244 C227 0.930 . S
H245 C228 0.931 . S
H246 C229 0.930 . S
H247 C230 0.930 . S
H248 C237 0.930 . S
H249 C239 0.931 . S
H250 C240 0.930 . S
H251 C241 0.930 . S
Tb252 N283 2.660 1_655 S
Tb252 N290 2.600 1_655 S
Tb252 O296 2.546 . S
Tb252 O297 2.610 . S
Tb252 O299 2.320 . S
Tb252 O300 2.552 . S
Tb252 O301 2.413 . S
Tb252 O303 2.362 1_655 S
Tb252 O304 2.421 . S
Tb252 C316 2.833 . S
C253 C256 1.432 . S
C253 C257 1.414 . S
C253 N260 1.359 . S
C254 C256 1.417 . S
C254 C258 1.432 . S
C254 C266 1.410 . S
C255 C257 1.444 . S
C255 C258 1.317 . S
C255 H278 0.929 . S
C256 C253 1.432 . S
C256 C254 1.417 . S
C256 N264 1.360 . S
C257 C253 1.414 . S
C257 C255 1.444 . S
C257 C262 1.385 . S
C258 C254 1.432 . S
C258 C255 1.317 . S
C258 H270 0.930 . S
C259 C261 1.392 . S
C259 C262 1.370 . S
C259 H271 0.931 . S
N260 C253 1.359 . S
N260 C261 1.327 . S
N260 Tb263 2.600 . S
C261 C259 1.392 . S
C261 N260 1.327 . S
C261 H268 0.930 . S
C262 C257 1.385 . S
C262 C259 1.370 . S
C262 H281 0.930 . S
Tb263 N260 2.600 . S
Tb263 N264 2.660 . S
Tb263 O297 2.362 . S
Tb263 O298 2.421 . S
Tb263 O302 2.546 . S
Tb263 O303 2.610 1_655 S
Tb263 O305 2.320 . S
Tb263 O306 2.552 1_655 S
Tb263 O307 2.413 . S
Tb263 C327 2.833 . S
N264 C256 1.360 . S
N264 Tb263 2.660 . S
N264 C265 1.305 . S
C265 N264 1.305 . S
C265 C267 1.407 . S
C265 H272 0.930 . S
C266 C254 1.410 . S
C266 C267 1.345 . S
C266 H274 0.930 . S
C267 C265 1.407 . S
C267 C266 1.345 . S
C267 H269 0.930 . S
H268 C261 0.930 . S
H269 C267 0.930 . S
H270 C258 0.930 . S
H271 C259 0.931 . S
H272 C265 0.930 . S
H273 C287 0.930 . S
H274 C266 0.930 . S
H275 C293 0.930 1_655 S
H276 C284 0.930 . S
H277 C291 0.931 . S
H278 C255 0.929 . S
H279 C285 0.930 . S
H280 C318 0.930 . S
H281 C262 0.930 . S
H282 C317 0.929 . S
N283 Tb252 2.660 1_455 S
N283 C284 1.305 . S
N283 C288 1.360 . S
C284 H276 0.930 . S
C284 N283 1.305 . S
C284 C287 1.407 . S
C285 H279 0.930 . S
C285 C286 1.410 . S
C285 C287 1.345 . S
C286 C285 1.410 . S
C286 C288 1.417 . S
C286 C318 1.432 . S
C287 H273 0.930 . S
C287 C284 1.407 . S
C287 C285 1.345 . S
C288 N283 1.360 . S
C288 C286 1.417 . S
C288 C292 1.432 . S
H289 C294 0.930 . S
N290 Tb252 2.600 1_455 S
N290 C292 1.359 . S
N290 C293 1.327 . S
C291 H277 0.931 . S
C291 C293 1.392 . S
C291 C294 1.370 . S
C292 C288 1.432 . S
C292 N290 1.359 . S
C292 C295 1.414 . S
C293 H275 0.930 1_455 S
C293 N290 1.327 . S
C293 C291 1.392 . S
C294 H289 0.930 . S
C294 C291 1.370 . S
C294 C295 1.385 . S
C295 C292 1.414 . S
C295 C294 1.385 . S
C295 C317 1.444 . S
O296 Tb252 2.546 . S
O296 C316 1.251 . S
O297 Tb252 2.610 . S
O297 Tb263 2.362 . S
O297 C308 1.283 . S
O298 Tb263 2.421 . S
O298 C315 1.262 . S
O299 Tb252 2.320 . S
O299 C315 1.260 . S
O300 Tb252 2.552 . S
O300 C308 1.243 . S
O301 Tb252 2.413 . S
O301 C316 1.256 . S
O302 Tb263 2.546 . S
O302 C327 1.251 . S
O303 Tb252 2.362 1_455 S
O303 Tb263 2.610 1_455 S
O303 C319 1.283 . S
O304 Tb252 2.421 . S
O304 C326 1.262 . S
O305 Tb263 2.320 . S
O305 C326 1.260 . S
O306 Tb263 2.552 1_455 S
O306 C319 1.243 . S
O307 Tb263 2.413 . S
O307 C327 1.256 . S
C308 O297 1.283 . S
C308 O300 1.243 . S
C309 C311 1.382 . S
C309 C313 1.393 . S
C309 C316 1.500 . S
C310 C311 1.400 . S
C310 C312 1.384 . S
C311 C309 1.382 . S
C311 C310 1.400 . S
C311 H328 0.930 . S
C312 C310 1.384 . S
C312 C314 1.392 . S
C312 H329 0.931 . S
C313 C309 1.393 . S
C313 C314 1.401 . S
C313 H330 0.930 . S
C314 C312 1.392 . S
C314 C313 1.401 . S
C314 H331 0.930 . S
C315 O298 1.262 . S
C315 O299 1.260 . S
C316 Tb252 2.833 . S
C316 O296 1.251 . S
C316 O301 1.256 . S
C316 C309 1.500 . S
C317 H282 0.929 . S
C317 C295 1.444 . S
C317 C318 1.317 . S
C318 H280 0.930 . S
C318 C286 1.432 . S
C318 C317 1.317 . S
C319 O303 1.283 . S
C319 O306 1.243 . S
C320 C321 1.378 1_655 S
C320 C324 1.394 . S
C320 C327 1.504 . S
C321 C320 1.378 1_455 S
C321 C322 1.400 . S
C321 H332 0.930 . S
C322 C321 1.400 . S
C322 C323 1.384 . S
C323 C322 1.384 . S
C323 C325 1.392 . S
C323 H333 0.931 . S
C324 C320 1.394 . S
C324 C325 1.401 1_655 S
C324 H334 0.930 . S
C325 C323 1.392 . S
C325 C324 1.401 1_455 S
C325 H335 0.930 . S
C326 O304 1.262 . S
C326 O305 1.260 . S
C327 Tb263 2.833 . S
C327 O302 1.251 . S
C327 O307 1.256 . S
C327 C320 1.504 . S
H328 C311 0.930 . S
H329 C312 0.931 . S
H330 C313 0.930 . S
H331 C314 0.930 . S
H332 C321 0.930 . S
H333 C323 0.931 . S
H334 C324 0.930 . S
H335 C325 0.930 . S
Tb336 N367 2.660 . S
Tb336 N374 2.600 . S
Tb336 O380 2.546 . S
Tb336 O381 2.610 . S
Tb336 O383 2.320 1_554 S
Tb336 O384 2.552 . S
Tb336 O385 2.413 . S
Tb336 O387 2.362 . S
Tb336 O388 2.421 . S
Tb336 C400 2.833 . S
C337 C340 1.432 . S
C337 C341 1.414 . S
C337 N344 1.359 . S
C338 C340 1.417 . S
C338 C342 1.432 . S
C338 C350 1.410 1_556 S
C339 C341 1.444 . S
C339 C342 1.317 . S
C339 H362 0.929 . S
C340 C337 1.432 . S
C340 C338 1.417 . S
C340 N348 1.360 1_556 S
C341 C337 1.414 . S
C341 C339 1.444 . S
C341 C346 1.385 . S
C342 C338 1.432 . S
C342 C339 1.317 . S
C342 H354 0.930 . S
C343 C345 1.392 . S
C343 C346 1.370 . S
C343 H355 0.931 . S
N344 C337 1.359 . S
N344 C345 1.327 . S
N344 Tb347 2.600 . S
C345 C343 1.392 . S
C345 N344 1.327 . S
C345 H352 0.930 . S
C346 C341 1.385 . S
C346 C343 1.370 . S
C346 H365 0.930 . S
Tb347 N344 2.600 . S
Tb347 N348 2.660 1_556 S
Tb347 O381 2.362 1_556 S
Tb347 O382 2.421 . S
Tb347 O386 2.546 . S
Tb347 O387 2.610 1_556 S
Tb347 O389 2.320 1_556 S
Tb347 O390 2.552 . S
Tb347 O391 2.413 1_556 S
Tb347 C411 2.833 . S
N348 C340 1.360 1_554 S
N348 Tb347 2.660 1_554 S
N348 C349 1.305 . S
C349 N348 1.305 . S
C349 C351 1.407 . S
C349 H356 0.930 . S
C350 C338 1.410 1_554 S
C350 C351 1.345 . S
C350 H358 0.930 . S
C351 C349 1.407 . S
C351 C350 1.345 . S
C351 H353 0.930 . S
H352 C345 0.930 . S
H353 C351 0.930 . S
H354 C342 0.930 . S
H355 C343 0.931 . S
H356 C349 0.930 . S
H357 C371 0.930 . S
H358 C350 0.930 . S
H359 C377 0.930 . S
H360 C368 0.930 . S
H361 C375 0.931 . S
H362 C339 0.929 . S
H363 C369 0.930 . S
H364 C402 0.930 . S
H365 C346 0.930 . S
H366 C401 0.929 . S
N367 Tb336 2.660 . S
N367 C368 1.305 1_554 S
N367 C372 1.360 . S
C368 H360 0.930 . S
C368 N367 1.305 1_556 S
C368 C371 1.407 . S
C369 H363 0.930 . S
C369 C370 1.410 1_556 S
C369 C371 1.345 . S
C370 C369 1.410 1_554 S
C370 C372 1.417 . S
C370 C402 1.432 . S
C371 H357 0.930 . S
C371 C368 1.407 . S
C371 C369 1.345 . S
C372 N367 1.360 . S
C372 C370 1.417 . S
C372 C376 1.432 . S
H373 C378 0.930 . S
N374 Tb336 2.600 . S
N374 C376 1.359 . S
N374 C377 1.327 . S
C375 H361 0.931 . S
C375 C377 1.392 . S
C375 C378 1.370 . S
C376 C372 1.432 . S
C376 N374 1.359 . S
C376 C379 1.414 . S
C377 H359 0.930 . S
C377 N374 1.327 . S
C377 C375 1.392 . S
C378 H373 0.930 . S
C378 C375 1.370 . S
C378 C379 1.385 . S
C379 C376 1.414 . S
C379 C378 1.385 . S
C379 C401 1.444 . S
O380 Tb336 2.546 . S
O380 C400 1.251 . S
O381 Tb336 2.610 . S
O381 Tb347 2.362 1_554 S
O381 C392 1.283 . S
O382 Tb347 2.421 . S
O382 C399 1.262 . S
O383 Tb336 2.320 1_556 S
O383 C399 1.260 . S
O384 Tb336 2.552 . S
O384 C392 1.243 . S
O385 Tb336 2.413 . S
O385 C400 1.256 . S
O386 Tb347 2.546 . S
O386 C411 1.251 . S
O387 Tb336 2.362 . S
O387 Tb347 2.610 1_554 S
O387 C403 1.283 . S
O388 Tb336 2.421 . S
O388 C410 1.262 . S
O389 Tb347 2.320 1_554 S
O389 C410 1.260 . S
O390 Tb347 2.552 . S
O390 C403 1.243 1_556 S
O391 Tb347 2.413 1_554 S
O391 C411 1.256 1_554 S
C392 O381 1.283 . S
C392 O384 1.243 . S
C393 C395 1.382 . S
C393 C397 1.393 . S
C393 C400 1.500 . S
C394 C395 1.400 . S
C394 C396 1.384 . S
C395 C393 1.382 . S
C395 C394 1.400 . S
C395 H412 0.930 . S
C396 C394 1.384 . S
C396 C398 1.392 . S
C396 H413 0.931 . S
C397 C393 1.393 . S
C397 C398 1.401 . S
C397 H414 0.930 . S
C398 C396 1.392 . S
C398 C397 1.401 . S
C398 H415 0.930 . S
C399 O382 1.262 . S
C399 O383 1.260 . S
C400 Tb336 2.833 . S
C400 O380 1.251 . S
C400 O385 1.256 . S
C400 C393 1.500 . S
C401 H366 0.929 . S
C401 C379 1.444 . S
C401 C402 1.317 . S
C402 H364 0.930 . S
C402 C370 1.432 . S
C402 C401 1.317 . S
C403 O387 1.283 . S
C403 O390 1.243 1_554 S
C404 C405 1.382 . S
C404 C408 1.393 . S
C404 C411 1.500 . S
C405 C404 1.382 . S
C405 C406 1.400 . S
C405 H416 0.930 1_556 S
C406 C405 1.400 . S
C406 C407 1.384 . S
C407 C406 1.384 . S
C407 C409 1.392 . S
C407 H417 0.931 . S
C408 C404 1.393 . S
C408 C409 1.401 . S
C408 H418 0.930 . S
C409 C407 1.392 . S
C409 C408 1.401 . S
C409 H419 0.930 . S
C410 O388 1.262 . S
C410 O389 1.260 . S
C411 Tb347 2.833 . S
C411 O386 1.251 . S
C411 O391 1.256 1_556 S
C411 C404 1.500 . S
H412 C395 0.930 . S
H413 C396 0.931 . S
H414 C397 0.930 . S
H415 C398 0.930 . S
H416 C405 0.930 1_554 S
H417 C407 0.931 . S
H418 C408 0.930 . S
H419 C409 0.930 . S
Tb420 N451 2.660 . S
Tb420 N458 2.600 . S
Tb420 O464 2.546 . S
Tb420 O465 2.610 . S
Tb420 O467 2.320 1_554 S
Tb420 O468 2.552 . S
Tb420 O469 2.413 . S
Tb420 O471 2.362 . S
Tb420 O472 2.421 . S
Tb420 C484 2.833 . S
C421 C424 1.432 . S
C421 C425 1.414 . S
C421 N428 1.359 . S
C422 C424 1.417 . S
C422 C426 1.432 . S
C422 C434 1.410 1_556 S
C423 C425 1.444 . S
C423 C426 1.317 . S
C423 H446 0.929 . S
C424 C421 1.432 . S
C424 C422 1.417 . S
C424 N432 1.360 1_556 S
C425 C421 1.414 . S
C425 C423 1.444 . S
C425 C430 1.385 . S
C426 C422 1.432 . S
C426 C423 1.317 . S
C426 H438 0.930 . S
C427 C429 1.392 . S
C427 C430 1.370 . S
C427 H439 0.931 . S
N428 C421 1.359 . S
N428 C429 1.327 . S
N428 Tb431 2.600 . S
C429 C427 1.392 . S
C429 N428 1.327 . S
C429 H436 0.930 . S
C430 C425 1.385 . S
C430 C427 1.370 . S
C430 H449 0.930 . S
Tb431 N428 2.600 . S
Tb431 N432 2.660 1_556 S
Tb431 O465 2.362 1_556 S
Tb431 O466 2.421 . S
Tb431 O470 2.546 . S
Tb431 O471 2.610 1_556 S
Tb431 O473 2.320 1_556 S
Tb431 O474 2.552 . S
Tb431 O475 2.413 1_556 S
Tb431 C495 2.833 . S
N432 C424 1.360 1_554 S
N432 Tb431 2.660 1_554 S
N432 C433 1.305 . S
C433 N432 1.305 . S
C433 C435 1.407 . S
C433 H440 0.930 . S
C434 C422 1.410 1_554 S
C434 C435 1.345 . S
C434 H442 0.930 . S
C435 C433 1.407 . S
C435 C434 1.345 . S
C435 H437 0.930 . S
H436 C429 0.930 . S
H437 C435 0.930 . S
H438 C426 0.930 . S
H439 C427 0.931 . S
H440 C433 0.930 . S
H441 C455 0.930 . S
H442 C434 0.930 . S
H443 C461 0.930 . S
H444 C452 0.930 . S
H445 C459 0.931 . S
H446 C423 0.929 . S
H447 C453 0.930 1_556 S
H448 C486 0.930 . S
H449 C430 0.930 . S
H450 C485 0.929 . S
N451 Tb420 2.660 . S
N451 C452 1.305 1_554 S
N451 C456 1.360 . S
C452 H444 0.930 . S
C452 N451 1.305 1_556 S
C452 C455 1.407 . S
C453 H447 0.930 1_554 S
C453 C454 1.410 . S
C453 C455 1.345 1_554 S
C454 C453 1.410 . S
C454 C456 1.417 . S
C454 C486 1.432 . S
C455 H441 0.930 . S
C455 C452 1.407 . S
C455 C453 1.345 1_556 S
C456 N451 1.360 . S
C456 C454 1.417 . S
C456 C460 1.432 . S
H457 C462 0.930 . S
N458 Tb420 2.600 . S
N458 C460 1.359 . S
N458 C461 1.327 . S
C459 H445 0.931 . S
C459 C461 1.392 . S
C459 C462 1.370 . S
C460 C456 1.432 . S
C460 N458 1.359 . S
C460 C463 1.414 . S
C461 H443 0.930 . S
C461 N458 1.327 . S
C461 C459 1.392 . S
C462 H457 0.930 . S
C462 C459 1.370 . S
C462 C463 1.385 . S
C463 C460 1.414 . S
C463 C462 1.385 . S
C463 C485 1.444 . S
O464 Tb420 2.546 . S
O464 C484 1.251 . S
O465 Tb420 2.610 . S
O465 Tb431 2.362 1_554 S
O465 C476 1.283 . S
O466 Tb431 2.421 . S
O466 C483 1.262 . S
O467 Tb420 2.320 1_556 S
O467 C483 1.260 . S
O468 Tb420 2.552 . S
O468 C476 1.243 . S
O469 Tb420 2.413 . S
O469 C484 1.256 . S
O470 Tb431 2.546 . S
O470 C495 1.251 . S
O471 Tb420 2.362 . S
O471 Tb431 2.610 1_554 S
O471 C487 1.283 . S
O472 Tb420 2.421 . S
O472 C494 1.262 . S
O473 Tb431 2.320 1_554 S
O473 C494 1.260 . S
O474 Tb431 2.552 . S
O474 C487 1.243 1_556 S
O475 Tb431 2.413 1_554 S
O475 C495 1.256 1_554 S
C476 O465 1.283 . S
C476 O468 1.243 . S
C477 C479 1.382 . S
C477 C481 1.393 . S
C477 C484 1.500 . S
C478 C479 1.400 . S
C478 C480 1.384 . S
C479 C477 1.382 . S
C479 C478 1.400 . S
C479 H496 0.930 . S
C480 C478 1.384 . S
C480 C482 1.392 . S
C480 H497 0.931 . S
C481 C477 1.393 . S
C481 C482 1.401 . S
C481 H498 0.930 . S
C482 C480 1.392 . S
C482 C481 1.401 . S
C482 H499 0.930 . S
C483 O466 1.262 . S
C483 O467 1.260 . S
C484 Tb420 2.833 . S
C484 O464 1.251 . S
C484 O469 1.256 . S
C484 C477 1.500 . S
C485 H450 0.929 . S
C485 C463 1.444 . S
C485 C486 1.317 . S
C486 H448 0.930 . S
C486 C454 1.432 . S
C486 C485 1.317 . S
C487 O471 1.283 . S
C487 O474 1.243 1_554 S
C488 C489 1.382 1_556 S
C488 C492 1.393 . S
C488 C495 1.500 . S
C489 C488 1.382 1_554 S
C489 C490 1.400 1_554 S
C489 H500 0.930 . S
C490 C489 1.400 1_556 S
C490 C491 1.384 . S
C491 C490 1.384 . S
C491 C493 1.392 . S
C491 H501 0.931 . S
C492 C488 1.393 . S
C492 C493 1.401 . S
C492 H502 0.930 . S
C493 C491 1.392 . S
C493 C492 1.401 . S
C493 H503 0.930 . S
C494 O472 1.262 . S
C494 O473 1.260 . S
C495 Tb431 2.833 . S
C495 O470 1.251 . S
C495 O475 1.256 1_556 S
C495 C488 1.500 . S
H496 C479 0.930 . S
H497 C480 0.931 . S
H498 C481 0.930 . S
H499 C482 0.930 . S
H500 C489 0.930 . S
H501 C491 0.931 . S
H502 C492 0.930 . S
H503 C493 0.930 . S
Tb504 N535 2.660 . S
Tb504 N542 2.600 . S
Tb504 O548 2.546 . S
Tb504 O549 2.610 . S
Tb504 O551 2.320 . S
Tb504 O552 2.552 . S
Tb504 O553 2.413 . S
Tb504 O555 2.362 . S
Tb504 O556 2.421 . S
Tb504 C568 2.833 . S
C505 C508 1.432 . S
C505 C509 1.414 . S
C505 N512 1.359 . S
C506 C508 1.417 . S
C506 C510 1.432 . S
C506 C518 1.410 . S
C507 C509 1.444 . S
C507 C510 1.317 . S
C507 H530 0.929 . S
C508 C505 1.432 . S
C508 C506 1.417 . S
C508 N516 1.360 . S
C509 C505 1.414 . S
C509 C507 1.444 . S
C509 C514 1.385 . S
C510 C506 1.432 . S
C510 C507 1.317 . S
C510 H522 0.930 . S
C511 C513 1.392 . S
C511 C514 1.370 . S
C511 H523 0.931 . S
N512 C505 1.359 . S
N512 C513 1.327 . S
N512 Tb515 2.600 . S
C513 C511 1.392 . S
C513 N512 1.327 . S
C513 H520 0.930 . S
C514 C509 1.385 . S
C514 C511 1.370 . S
C514 H533 0.930 . S
Tb515 N512 2.600 . S
Tb515 N516 2.660 . S
Tb515 O549 2.362 . S
Tb515 O550 2.421 . S
Tb515 O554 2.546 . S
Tb515 O555 2.610 . S
Tb515 O557 2.320 . S
Tb515 O558 2.552 . S
Tb515 O559 2.413 . S
Tb515 C579 2.833 . S
N516 C508 1.360 . S
N516 Tb515 2.660 . S
N516 C517 1.305 . S
C517 N516 1.305 . S
C517 C519 1.407 . S
C517 H524 0.930 . S
C518 C506 1.410 . S
C518 C519 1.345 . S
C518 H526 0.930 . S
C519 C517 1.407 . S
C519 C518 1.345 . S
C519 H521 0.930 . S
H520 C513 0.930 . S
H521 C519 0.930 . S
H522 C510 0.930 . S
H523 C511 0.931 . S
H524 C517 0.930 . S
H525 C539 0.930 . S
H526 C518 0.930 . S
H527 C545 0.930 . S
H528 C536 0.930 . S
H529 C543 0.931 . S
H530 C507 0.929 . S
H531 C537 0.930 . S
H532 C570 0.930 . S
H533 C514 0.930 . S
H534 C569 0.929 . S
N535 Tb504 2.660 . S
N535 C536 1.305 . S
N535 C540 1.360 . S
C536 H528 0.930 . S
C536 N535 1.305 . S
C536 C539 1.407 . S
C537 H531 0.930 . S
C537 C538 1.410 . S
C537 C539 1.345 . S
C538 C537 1.410 . S
C538 C540 1.417 . S
C538 C570 1.432 . S
C539 H525 0.930 . S
C539 C536 1.407 . S
C539 C537 1.345 . S
C540 N535 1.360 . S
C540 C538 1.417 . S
C540 C544 1.432 . S
H541 C546 0.930 . S
N542 Tb504 2.600 . S
N542 C544 1.359 . S
N542 C545 1.327 . S
C543 H529 0.931 . S
C543 C545 1.392 . S
C543 C546 1.370 . S
C544 C540 1.432 . S
C544 N542 1.359 . S
C544 C547 1.414 . S
C545 H527 0.930 . S
C545 N542 1.327 . S
C545 C543 1.392 . S
C546 H541 0.930 . S
C546 C543 1.370 . S
C546 C547 1.385 . S
C547 C544 1.414 . S
C547 C546 1.385 . S
C547 C569 1.444 . S
O548 Tb504 2.546 . S
O548 C568 1.251 . S
O549 Tb504 2.610 . S
O549 Tb515 2.362 . S
O549 C560 1.283 . S
O550 Tb515 2.421 . S
O550 C567 1.262 . S
O551 Tb504 2.320 . S
O551 C567 1.260 . S
O552 Tb504 2.552 . S
O552 C560 1.243 . S
O553 Tb504 2.413 . S
O553 C568 1.256 . S
O554 Tb515 2.546 . S
O554 C579 1.251 . S
O555 Tb504 2.362 . S
O555 Tb515 2.610 . S
O555 C571 1.283 . S
O556 Tb504 2.421 . S
O556 C578 1.262 . S
O557 Tb515 2.320 . S
O557 C578 1.260 . S
O558 Tb515 2.552 . S
O558 C571 1.243 . S
O559 Tb515 2.413 . S
O559 C579 1.256 . S
C560 O549 1.283 . S
C560 O552 1.243 . S
C561 C563 1.382 . S
C561 C565 1.393 . S
C561 C568 1.500 . S
C562 C563 1.400 . S
C562 C564 1.384 . S
C563 C561 1.382 . S
C563 C562 1.400 . S
C563 H580 0.930 . S
C564 C562 1.384 . S
C564 C566 1.392 . S
C564 H581 0.931 . S
C565 C561 1.393 . S
C565 C566 1.401 . S
C565 H582 0.930 . S
C566 C564 1.392 . S
C566 C565 1.401 . S
C566 H583 0.930 . S
C567 O550 1.262 . S
C567 O551 1.260 . S
C568 Tb504 2.833 . S
C568 O548 1.251 . S
C568 O553 1.256 . S
C568 C561 1.500 . S
C569 H534 0.929 . S
C569 C547 1.444 . S
C569 C570 1.317 . S
C570 H532 0.930 . S
C570 C538 1.432 . S
C570 C569 1.317 . S
C571 O555 1.283 . S
C571 O558 1.243 . S
C572 C573 1.382 . S
C572 C576 1.393 . S
C572 C579 1.500 . S
C573 C572 1.382 . S
C573 C574 1.400 . S
C573 H584 0.930 . S
C574 C573 1.400 . S
C574 C575 1.384 . S
C575 C574 1.384 . S
C575 C577 1.392 . S
C575 H585 0.931 . S
C576 C572 1.393 . S
C576 C577 1.401 . S
C576 H586 0.930 . S
C577 C575 1.392 . S
C577 C576 1.401 . S
C577 H587 0.930 . S
C578 O556 1.262 . S
C578 O557 1.260 . S
C579 Tb515 2.833 . S
C579 O554 1.251 . S
C579 O559 1.256 . S
C579 C572 1.500 . S
H580 C563 0.930 . S
H581 C564 0.931 . S
H582 C565 0.930 . S
H583 C566 0.930 . S
H584 C573 0.930 . S
H585 C575 0.931 . S
H586 C576 0.930 . S
H587 C577 0.930 . S
Tb588 N619 2.660 . S
Tb588 N626 2.600 . S
Tb588 O632 2.546 . S
Tb588 O633 2.610 . S
Tb588 O635 2.320 . S
Tb588 O636 2.552 . S
Tb588 O637 2.413 . S
Tb588 O639 2.362 . S
Tb588 O640 2.421 . S
Tb588 C652 2.833 . S
C589 C592 1.432 . S
C589 C593 1.414 . S
C589 N596 1.359 . S
C590 C592 1.417 . S
C590 C594 1.432 . S
C590 C602 1.410 . S
C591 C593 1.444 . S
C591 C594 1.317 . S
C591 H614 0.929 . S
C592 C589 1.432 . S
C592 C590 1.417 . S
C592 N600 1.360 . S
C593 C589 1.414 . S
C593 C591 1.444 . S
C593 C598 1.385 . S
C594 C590 1.432 . S
C594 C591 1.317 . S
C594 H606 0.930 . S
C595 C597 1.392 . S
C595 C598 1.370 . S
C595 H607 0.931 . S
N596 C589 1.359 . S
N596 C597 1.327 . S
N596 Tb599 2.600 . S
C597 C595 1.392 . S
C597 N596 1.327 . S
C597 H604 0.930 . S
C598 C593 1.385 . S
C598 C595 1.370 . S
C598 H617 0.930 . S
Tb599 N596 2.600 . S
Tb599 N600 2.660 . S
Tb599 O633 2.362 . S
Tb599 O634 2.421 . S
Tb599 O638 2.546 . S
Tb599 O639 2.610 . S
Tb599 O641 2.320 . S
Tb599 O642 2.552 . S
Tb599 O643 2.413 . S
Tb599 C663 2.833 . S
N600 C592 1.360 . S
N600 Tb599 2.660 . S
N600 C601 1.305 . S
C601 N600 1.305 . S
C601 C603 1.407 . S
C601 H608 0.930 . S
C602 C590 1.410 . S
C602 C603 1.345 . S
C602 H610 0.930 . S
C603 C601 1.407 . S
C603 C602 1.345 . S
C603 H605 0.930 . S
H604 C597 0.930 . S
H605 C603 0.930 . S
H606 C594 0.930 . S
H607 C595 0.931 . S
H608 C601 0.930 . S
H609 C623 0.930 . S
H610 C602 0.930 . S
H611 C629 0.930 . S
H612 C620 0.930 . S
H613 C627 0.931 . S
H614 C591 0.929 . S
H615 C621 0.930 . S
H616 C654 0.930 . S
H617 C598 0.930 . S
H618 C653 0.929 . S
N619 Tb588 2.660 . S
N619 C620 1.305 . S
N619 C624 1.360 . S
C620 H612 0.930 . S
C620 N619 1.305 . S
C620 C623 1.407 . S
C621 H615 0.930 . S
C621 C622 1.410 . S
C621 C623 1.345 . S
C622 C621 1.410 . S
C622 C624 1.417 . S
C622 C654 1.432 . S
C623 H609 0.930 . S
C623 C620 1.407 . S
C623 C621 1.345 . S
C624 N619 1.360 . S
C624 C622 1.417 . S
C624 C628 1.432 . S
H625 C630 0.930 . S
N626 Tb588 2.600 . S
N626 C628 1.359 . S
N626 C629 1.327 . S
C627 H613 0.931 . S
C627 C629 1.392 . S
C627 C630 1.370 . S
C628 C624 1.432 . S
C628 N626 1.359 . S
C628 C631 1.414 . S
C629 H611 0.930 . S
C629 N626 1.327 . S
C629 C627 1.392 . S
C630 H625 0.930 . S
C630 C627 1.370 . S
C630 C631 1.385 . S
C631 C628 1.414 . S
C631 C630 1.385 . S
C631 C653 1.444 . S
O632 Tb588 2.546 . S
O632 C652 1.251 . S
O633 Tb588 2.610 . S
O633 Tb599 2.362 . S
O633 C644 1.283 . S
O634 Tb599 2.421 . S
O634 C651 1.262 . S
O635 Tb588 2.320 . S
O635 C651 1.260 . S
O636 Tb588 2.552 . S
O636 C644 1.243 . S
O637 Tb588 2.413 . S
O637 C652 1.256 . S
O638 Tb599 2.546 . S
O638 C663 1.251 . S
O639 Tb588 2.362 . S
O639 Tb599 2.610 . S
O639 C655 1.283 . S
O640 Tb588 2.421 . S
O640 C662 1.262 . S
O641 Tb599 2.320 . S
O641 C662 1.260 . S
O642 Tb599 2.552 . S
O642 C655 1.243 . S
O643 Tb599 2.413 . S
O643 C663 1.256 . S
C644 O633 1.283 . S
C644 O636 1.243 . S
C645 C647 1.382 . S
C645 C649 1.393 . S
C645 C652 1.500 . S
C646 C647 1.400 . S
C646 C648 1.384 . S
C647 C645 1.382 . S
C647 C646 1.400 . S
C647 H664 0.930 . S
C648 C646 1.384 . S
C648 C650 1.392 . S
C648 H665 0.931 . S
C649 C645 1.393 . S
C649 C650 1.401 . S
C649 H666 0.930 . S
C650 C648 1.392 . S
C650 C649 1.401 . S
C650 H667 0.930 . S
C651 O634 1.262 . S
C651 O635 1.260 . S
C652 Tb588 2.833 . S
C652 O632 1.251 . S
C652 O637 1.256 . S
C652 C645 1.500 . S
C653 H618 0.929 . S
C653 C631 1.444 . S
C653 C654 1.317 . S
C654 H616 0.930 . S
C654 C622 1.432 . S
C654 C653 1.317 . S
C655 O639 1.283 . S
C655 O642 1.243 . S
C656 C657 1.382 . S
C656 C660 1.393 . S
C656 C663 1.500 . S
C657 C656 1.382 . S
C657 C658 1.400 . S
C657 H668 0.930 . S
C658 C657 1.400 . S
C658 C659 1.384 . S
C659 C658 1.384 . S
C659 C661 1.392 . S
C659 H669 0.931 . S
C660 C656 1.393 . S
C660 C661 1.401 . S
C660 H670 0.930 . S
C661 C659 1.392 . S
C661 C660 1.401 . S
C661 H671 0.930 . S
C662 O640 1.262 . S
C662 O641 1.260 . S
C663 Tb599 2.833 . S
C663 O638 1.251 . S
C663 O643 1.256 . S
C663 C656 1.500 . S
H664 C647 0.930 . S
H665 C648 0.931 . S
H666 C649 0.930 . S
H667 C650 0.930 . S
H668 C657 0.930 . S
H669 C659 0.931 . S
H670 C660 0.930 . S
H671 C661 0.930 . S
C672 C673 1.349 1_556 S
C672 C674 1.327 . S
C672 H697 0.950 . S
C673 C672 1.349 1_554 S
C673 C689 1.349 . S
C674 C672 1.327 . S
C674 C693 1.429 1_556 S
C674 H698 0.950 . S
C675 C692 1.574 . S
C675 C694 1.368 . S
C675 H699 0.949 . S
H676 C680 0.949 . S
C677 C678 1.349 . S
C677 C679 1.327 . S
C677 H700 0.950 . S
C678 C677 1.349 . S
C678 C690 1.349 1_554 S
C679 C677 1.327 . S
C679 C695 1.429 . S
C679 H701 0.950 . S
C680 H676 0.949 . S
C680 C688 1.574 . S
C680 C696 1.368 1_556 S
H681 C689 0.950 . S
H682 C687 0.950 . S
H683 C688 0.949 . S
H684 C690 0.950 . S
H685 C691 0.950 . S
H686 C692 0.949 . S
C687 H682 0.950 . S
C687 C689 1.327 . S
C687 C693 1.429 . S
C688 C680 1.574 . S
C688 H683 0.949 . S
C688 C694 1.368 1_556 S
C689 C673 1.349 . S
C689 H681 0.950 . S
C689 C687 1.327 . S
C690 C678 1.349 1_556 S
C690 H684 0.950 . S
C690 C691 1.327 . S
C691 H685 0.950 . S
C691 C690 1.327 . S
C691 C695 1.429 1_556 S
C692 C675 1.574 . S
C692 H686 0.949 . S
C692 C696 1.368 . S
C693 C674 1.429 1_554 S
C693 C687 1.429 . S
C693 C694 1.523 . S
C694 C675 1.368 . S
C694 C688 1.368 1_554 S
C694 C693 1.523 . S
C695 C679 1.429 . S
C695 C691 1.429 1_554 S
C695 C696 1.523 . S
C696 C680 1.368 1_554 S
C696 C692 1.368 . S
C696 C695 1.523 . S
H697 C672 0.950 . S
H698 C674 0.950 . S
H699 C675 0.949 . S
H700 C677 0.950 . S
H701 C679 0.950 . S
C702 C703 1.349 . S
C702 C704 1.327 . S
C702 H727 0.950 . S
C703 C702 1.349 . S
C703 C719 1.349 1_554 S
C704 C702 1.327 . S
C704 C723 1.429 . S
C704 H728 0.950 . S
C705 C722 1.574 . S
C705 C724 1.368 1_556 S
C705 H729 0.949 . S
H706 C710 0.949 . S
C707 C708 1.349 1_556 S
C707 C709 1.327 . S
C707 H730 0.950 . S
C708 C707 1.349 1_554 S
C708 C720 1.349 . S
C709 C707 1.327 . S
C709 C725 1.429 1_556 S
C709 H731 0.950 . S
C710 H706 0.949 . S
C710 C718 1.574 . S
C710 C726 1.368 . S
H711 C719 0.950 . S
H712 C717 0.950 . S
H713 C718 0.949 . S
H714 C720 0.950 . S
H715 C721 0.950 . S
H716 C722 0.949 . S
C717 H712 0.950 . S
C717 C719 1.327 . S
C717 C723 1.429 1_556 S
C718 C710 1.574 . S
C718 H713 0.949 . S
C718 C724 1.368 . S
C719 C703 1.349 1_556 S
C719 H711 0.950 . S
C719 C717 1.327 . S
C720 C708 1.349 . S
C720 H714 0.950 . S
C720 C721 1.327 . S
C721 H715 0.950 . S
C721 C720 1.327 . S
C721 C725 1.429 . S
C722 C705 1.574 . S
C722 H716 0.949 . S
C722 C726 1.368 1_556 S
C723 C704 1.429 . S
C723 C717 1.429 1_554 S
C723 C724 1.523 . S
C724 C705 1.368 1_554 S
C724 C718 1.368 . S
C724 C723 1.523 . S
C725 C709 1.429 1_554 S
C725 C721 1.429 . S
C725 C726 1.523 . S
C726 C710 1.368 . S
C726 C722 1.368 1_554 S
C726 C725 1.523 . S
H727 C702 0.950 . S
H728 C704 0.950 . S
H729 C705 0.949 . S
H730 C707 0.950 . S
H731 C709 0.950 . S
C732 C733 1.349 . S
C732 C734 1.327 . S
C732 H757 0.950 . S
C733 C732 1.349 . S
C733 C749 1.349 . S
C734 C732 1.327 . S
C734 C753 1.429 . S
C734 H758 0.950 . S
C735 C752 1.574 . S
C735 C754 1.368 . S
C735 H759 0.949 . S
H736 C740 0.949 . S
C737 C738 1.349 . S
C737 C739 1.327 . S
C737 H760 0.950 . S
C738 C737 1.349 . S
C738 C750 1.349 . S
C739 C737 1.327 . S
C739 C755 1.429 . S
C739 H761 0.950 . S
C740 H736 0.949 . S
C740 C748 1.574 . S
C740 C756 1.368 . S
H741 C749 0.950 . S
H742 C747 0.950 . S
H743 C748 0.949 . S
H744 C750 0.950 . S
H745 C751 0.950 . S
H746 C752 0.949 . S
C747 H742 0.950 . S
C747 C749 1.327 . S
C747 C753 1.429 . S
C748 C740 1.574 . S
C748 H743 0.949 . S
C748 C754 1.368 . S
C749 C733 1.349 . S
C749 H741 0.950 . S
C749 C747 1.327 . S
C750 C738 1.349 . S
C750 H744 0.950 . S
C750 C751 1.327 . S
C751 H745 0.950 . S
C751 C750 1.327 . S
C751 C755 1.429 . S
C752 C735 1.574 . S
C752 H746 0.949 . S
C752 C756 1.368 . S
C753 C734 1.429 . S
C753 C747 1.429 . S
C753 C754 1.523 . S
C754 C735 1.368 . S
C754 C748 1.368 . S
C754 C753 1.523 . S
C755 C739 1.429 . S
C755 C751 1.429 . S
C755 C756 1.523 . S
C756 C740 1.368 . S
C756 C752 1.368 . S
C756 C755 1.523 . S
H757 C732 0.950 . S
H758 C734 0.950 . S
H759 C735 0.949 . S
H760 C737 0.950 . S
H761 C739 0.950 . S
C762 C763 1.349 . S
C762 C764 1.327 . S
C762 H787 0.950 . S
C763 C762 1.349 . S
C763 C779 1.349 . S
C764 C762 1.327 . S
C764 C783 1.429 . S
C764 H788 0.950 . S
C765 C782 1.574 . S
C765 C784 1.368 . S
C765 H789 0.949 . S
H766 C770 0.949 . S
C767 C768 1.349 . S
C767 C769 1.327 . S
C767 H790 0.950 . S
C768 C767 1.349 . S
C768 C780 1.349 . S
C769 C767 1.327 . S
C769 C785 1.429 . S
C769 H791 0.950 . S
C770 H766 0.949 . S
C770 C778 1.574 . S
C770 C786 1.368 . S
H771 C779 0.950 . S
H772 C777 0.950 . S
H773 C778 0.949 . S
H774 C780 0.950 . S
H775 C781 0.950 . S
H776 C782 0.949 . S
C777 H772 0.950 . S
C777 C779 1.327 . S
C777 C783 1.429 . S
C778 C770 1.574 . S
C778 H773 0.949 . S
C778 C784 1.368 . S
C779 C763 1.349 . S
C779 H771 0.950 . S
C779 C777 1.327 . S
C780 C768 1.349 . S
C780 H774 0.950 . S
C780 C781 1.327 . S
C781 H775 0.950 . S
C781 C780 1.327 . S
C781 C785 1.429 . S
C782 C765 1.574 . S
C782 H776 0.949 . S
C782 C786 1.368 . S
C783 C764 1.429 . S
C783 C777 1.429 . S
C783 C784 1.523 . S
C784 C765 1.368 . S
C784 C778 1.368 . S
C784 C783 1.523 . S
C785 C769 1.429 . S
C785 C781 1.429 . S
C785 C786 1.523 . S
C786 C770 1.368 . S
C786 C782 1.368 . S
C786 C785 1.523 . S
H787 C762 0.950 . S
H788 C764 0.950 . S
H789 C765 0.949 . S
H790 C767 0.950 . S
H791 C769 0.950 . S
C792 C793 1.349 . S
C792 C794 1.327 . S
C792 H817 0.950 1_554 S
C793 C792 1.349 . S
C793 C809 1.349 . S
C794 C792 1.327 . S
C794 C813 1.429 . S
C794 H818 0.950 1_554 S
C795 C812 1.574 . S
C795 C814 1.368 1_455 S
C795 H819 0.949 . S
H796 C800 0.949 . S
C797 C798 1.349 . S
C797 C799 1.327 . S
C797 H820 0.950 . S
C798 C797 1.349 . S
C798 C810 1.349 1_554 S
C799 C797 1.327 . S
C799 C815 1.429 . S
C799 H821 0.950 . S
C800 H796 0.949 . S
C800 C808 1.576 . S
C800 C816 1.368 1_556 S
H801 C809 0.950 . S
H802 C807 0.950 . S
H803 C808 0.963 1_655 S
H804 C810 0.950 . S
H805 C811 0.950 . S
H806 C812 0.949 . S
C807 H802 0.950 . S
C807 C809 1.327 . S
C807 C813 1.429 . S
C808 C800 1.576 . S
C808 H803 0.963 1_455 S
C808 C814 1.352 1_456 S
C809 C793 1.349 . S
C809 H801 0.950 . S
C809 C807 1.327 . S
C810 C798 1.349 1_556 S
C810 H804 0.950 . S
C810 C811 1.327 . S
C811 H805 0.950 . S
C811 C810 1.327 . S
C811 C815 1.429 1_556 S
C812 C795 1.574 . S
C812 H806 0.949 . S
C812 C816 1.368 . S
C813 C794 1.429 . S
C813 C807 1.429 . S
C813 C814 1.523 . S
C814 C795 1.368 1_655 S
C814 C808 1.352 1_654 S
C814 C813 1.523 . S
C815 C799 1.429 . S
C815 C811 1.429 1_554 S
C815 C816 1.523 . S
C816 C800 1.368 1_554 S
C816 C812 1.368 . S
C816 C815 1.523 . S
H817 C792 0.950 1_556 S
H818 C794 0.950 1_556 S
H819 C795 0.949 . S
H820 C797 0.950 . S
H821 C799 0.950 . S
C822 C823 1.349 . S
C822 C824 1.327 . S
C822 H847 0.950 . S
C823 C822 1.349 . S
C823 C839 1.349 . S
C824 C822 1.327 . S
C824 C843 1.429 . S
C824 H848 0.950 . S
C825 C842 1.574 . S
C825 C844 1.368 1_655 S
C825 H849 0.946 1_655 S
H826 C830 0.949 . S
C827 C828 1.349 . S
C827 C829 1.327 . S
C827 H850 0.950 . S
C828 C827 1.349 . S
C828 C840 1.349 . S
C829 C827 1.327 . S
C829 C845 1.429 . S
C829 H851 0.950 . S
C830 H826 0.949 . S
C830 C838 1.574 . S
C830 C846 1.368 . S
H831 C839 0.950 1_556 S
H832 C837 0.950 1_556 S
H833 C838 0.949 . S
H834 C840 0.950 . S
H835 C841 0.950 . S
H836 C842 0.949 . S
C837 H832 0.950 1_554 S
C837 C839 1.327 . S
C837 C843 1.429 . S
C838 C830 1.574 . S
C838 H833 0.949 . S
C838 C844 1.368 1_655 S
C839 C823 1.349 . S
C839 H831 0.950 1_554 S
C839 C837 1.327 . S
C840 C828 1.349 . S
C840 H834 0.950 . S
C840 C841 1.327 . S
C841 H835 0.950 . S
C841 C840 1.327 . S
C841 C845 1.429 . S
C842 C825 1.574 . S
C842 H836 0.949 . S
C842 C846 1.368 . S
C843 C824 1.429 . S
C843 C837 1.429 . S
C843 C844 1.523 . S
C844 C825 1.368 1_455 S
C844 C838 1.368 1_455 S
C844 C843 1.523 . S
C845 C829 1.429 . S
C845 C841 1.429 . S
C845 C846 1.523 . S
C846 C830 1.368 . S
C846 C842 1.368 . S
C846 C845 1.523 . S
H847 C822 0.950 . S
H848 C824 0.950 . S
H849 C825 0.946 1_455 S
H850 C827 0.950 . S
H851 C829 0.950 . S
C852 C853 1.349 . S
C852 C854 1.327 . S
C852 H877 0.950 . S
C853 C852 1.349 . S
C853 C869 1.349 . S
C854 C852 1.327 . S
C854 C873 1.429 . S
C854 H878 0.950 . S
C855 C872 1.574 . S
C855 C874 1.368 . S
C855 H879 0.949 . S
H856 C860 0.949 . S
C857 C858 1.349 . S
C857 C859 1.327 . S
C857 H880 0.950 . S
C858 C857 1.349 . S
C858 C870 1.349 . S
C859 C857 1.327 . S
C859 C875 1.429 . S
C859 H881 0.950 . S
C860 H856 0.949 . S
C860 C868 1.574 . S
C860 C876 1.368 1_455 S
H861 C869 0.950 . S
H862 C867 0.950 . S
H863 C868 0.949 . S
H864 C870 0.950 . S
H865 C871 0.950 . S
H866 C872 0.949 1_655 S
C867 H862 0.950 . S
C867 C869 1.327 . S
C867 C873 1.429 . S
C868 C860 1.574 . S
C868 H863 0.949 . S
C868 C874 1.368 . S
C869 C853 1.349 . S
C869 H861 0.950 . S
C869 C867 1.327 . S
C870 C858 1.349 . S
C870 H864 0.950 . S
C870 C871 1.327 . S
C871 H865 0.950 . S
C871 C870 1.327 . S
C871 C875 1.429 . S
C872 C855 1.574 . S
C872 H866 0.949 1_455 S
C872 C876 1.368 1_455 S
C873 C854 1.429 . S
C873 C867 1.429 . S
C873 C874 1.523 . S
C874 C855 1.368 . S
C874 C868 1.368 . S
C874 C873 1.523 . S
C875 C859 1.429 . S
C875 C871 1.429 . S
C875 C876 1.523 . S
C876 C860 1.368 1_655 S
C876 C872 1.368 1_655 S
C876 C875 1.523 . S
H877 C852 0.950 . S
H878 C854 0.950 . S
H879 C855 0.949 . S
H880 C857 0.950 . S
H881 C859 0.950 . S
C882 C883 1.349 . S
C882 C884 1.327 . S
C882 H907 0.950 . S
C883 C882 1.349 . S
C883 C899 1.349 . S
C884 C882 1.327 . S
C884 C903 1.429 . S
C884 H908 0.950 . S
C885 C902 1.574 . S
C885 C904 1.368 . S
C885 H909 0.949 . S
H886 C890 0.949 1_455 S
C887 C888 1.349 . S
C887 C889 1.327 . S
C887 H910 0.950 . S
C888 C887 1.349 . S
C888 C900 1.349 . S
C889 C887 1.327 . S
C889 C905 1.429 . S
C889 H911 0.950 . S
C890 H886 0.949 1_655 S
C890 C898 1.574 . S
C890 C906 1.368 1_655 S
H891 C899 0.950 . S
H892 C897 0.950 . S
H893 C898 0.949 . S
H894 C900 0.950 . S
H895 C901 0.950 . S
H896 C902 0.949 1_455 S
C897 H892 0.950 . S
C897 C899 1.327 . S
C897 C903 1.429 . S
C898 C890 1.574 . S
C898 H893 0.949 . S
C898 C904 1.368 . S
C899 C883 1.349 . S
C899 H891 0.950 . S
C899 C897 1.327 . S
C900 C888 1.349 . S
C900 H894 0.950 . S
C900 C901 1.327 . S
C901 H895 0.950 . S
C901 C900 1.327 . S
C901 C905 1.429 . S
C902 C885 1.574 . S
C902 H896 0.949 1_655 S
C902 C906 1.368 1_655 S
C903 C884 1.429 . S
C903 C897 1.429 . S
C903 C904 1.523 . S
C904 C885 1.368 . S
C904 C898 1.368 . S
C904 C903 1.523 . S
C905 C889 1.429 . S
C905 C901 1.429 . S
C905 C906 1.523 . S
C906 C890 1.368 1_455 S
C906 C902 1.368 1_455 S
C906 C905 1.523 . S
H907 C882 0.950 . S
H908 C884 0.950 . S
H909 C885 0.949 . S
H910 C887 0.950 . S
H911 C889 0.950 . S
C912 C913 1.349 1_556 S
C912 C914 1.327 . S
C912 H937 0.950 . S
C913 C912 1.349 1_554 S
C913 C929 1.349 . S
C914 C912 1.327 . S
C914 C933 1.429 1_556 S
C914 H938 0.950 . S
C915 C932 1.574 . S
C915 C934 1.368 1_655 S
C915 H939 0.949 . S
H916 C920 0.949 . S
C917 C918 1.349 . S
C917 C919 1.327 . S
C917 H940 0.950 . S
C918 C917 1.349 . S
C918 C930 1.349 1_554 S
C919 C917 1.327 . S
C919 C935 1.429 . S
C919 H941 0.950 . S
C920 H916 0.949 . S
C920 C928 1.574 . S
C920 C936 1.368 1_456 S
H921 C929 0.950 1_655 S
H922 C927 0.950 1_655 S
H923 C928 0.949 . S
H924 C930 0.950 1_455 S
H925 C931 0.950 1_455 S
H926 C932 0.949 . S
C927 H922 0.950 1_455 S
C927 C929 1.327 . S
C927 C933 1.429 . S
C928 C920 1.574 . S
C928 H923 0.949 . S
C928 C934 1.368 1_556 S
C929 C913 1.349 . S
C929 H921 0.950 1_455 S
C929 C927 1.327 . S
C930 C918 1.349 1_556 S
C930 H924 0.950 1_655 S
C930 C931 1.327 . S
C931 H925 0.950 1_655 S
C931 C930 1.327 . S
C931 C935 1.429 1_556 S
C932 C915 1.574 . S
C932 H926 0.949 . S
C932 C936 1.368 . S
C933 C914 1.429 1_554 S
C933 C927 1.429 . S
C933 C934 1.523 . S
C934 C915 1.368 1_455 S
C934 C928 1.368 1_554 S
C934 C933 1.523 . S
C935 C919 1.429 . S
C935 C931 1.429 1_554 S
C935 C936 1.523 . S
C936 C920 1.368 1_654 S
C936 C932 1.368 . S
C936 C935 1.523 . S
H937 C912 0.950 . S
H938 C914 0.950 . S
H939 C915 0.949 . S
H940 C917 0.950 . S
H941 C919 0.950 . S
C942 C943 1.349 . S
C942 C944 1.327 . S
C942 H967 0.950 . S
C943 C942 1.349 . S
C943 C959 1.349 . S
C944 C942 1.327 . S
C944 C963 1.429 . S
C944 H968 0.950 . S
C945 C962 1.574 . S
C945 C964 1.368 1_655 S
C945 H969 0.949 . S
H946 C950 0.949 . S
C947 C948 1.349 . S
C947 C949 1.327 . S
C947 H970 0.950 . S
C948 C947 1.349 . S
C948 C960 1.349 . S
C949 C947 1.327 . S
C949 C965 1.429 . S
C949 H971 0.950 . S
C950 H946 0.949 . S
C950 C958 1.574 . S
C950 C966 1.368 1_455 S
H951 C959 0.950 . S
H952 C957 0.950 1_655 S
H953 C958 0.949 . S
H954 C960 0.950 . S
H955 C961 0.950 1_455 S
H956 C962 0.949 . S
C957 H952 0.950 1_455 S
C957 C959 1.327 . S
C957 C963 1.429 . S
C958 C950 1.574 . S
C958 H953 0.949 . S
C958 C964 1.368 . S
C959 C943 1.349 . S
C959 H951 0.950 . S
C959 C957 1.327 . S
C960 C948 1.349 . S
C960 H954 0.950 . S
C960 C961 1.327 . S
C961 H955 0.950 1_655 S
C961 C960 1.327 . S
C961 C965 1.429 . S
C962 C945 1.574 . S
C962 H956 0.949 . S
C962 C966 1.368 . S
C963 C944 1.429 . S
C963 C957 1.429 . S
C963 C964 1.523 . S
C964 C945 1.368 1_455 S
C964 C958 1.368 . S
C964 C963 1.523 . S
C965 C949 1.429 . S
C965 C961 1.429 . S
C965 C966 1.523 . S
C966 C950 1.368 1_655 S
C966 C962 1.368 . S
C966 C965 1.523 . S
H967 C942 0.950 . S
H968 C944 0.950 . S
H969 C945 0.949 . S
H970 C947 0.950 . S
H971 C949 0.950 . S
C972 C973 1.349 1_556 S
C972 C974 1.327 . S
C972 H997 0.950 . S
C973 C972 1.349 1_554 S
C973 C989 1.349 . S
C974 C972 1.327 . S
C974 C993 1.429 1_556 S
C974 H998 0.950 . S
C975 C992 1.574 1_565 S
C975 C994 1.368 . S
C975 H999 0.949 . S
H976 C980 0.949 . S
C977 C978 1.349 . S
C977 C979 1.327 . S
C977 H1000 0.950 . S
C978 C977 1.349 . S
C978 C990 1.349 1_554 S
C979 C977 1.327 . S
C979 C995 1.429 . S
C979 H1001 0.950 . S
C980 H976 0.949 . S
C980 C988 1.574 1_545 S
C980 C996 1.368 1_556 S
H981 C989 0.950 . S
H982 C987 0.950 . S
H983 C988 0.949 . S
H984 C990 0.950 . S
H985 C991 0.950 . S
H986 C992 0.949 . S
C987 H982 0.950 . S
C987 C989 1.327 . S
C987 C993 1.429 . S
C988 C980 1.574 1_565 S
C988 H983 0.949 . S
C988 C994 1.368 1_556 S
C989 C973 1.349 . S
C989 H981 0.950 . S
C989 C987 1.327 . S
C990 C978 1.349 1_556 S
C990 H984 0.950 . S
C990 C991 1.327 . S
C991 H985 0.950 . S
C991 C990 1.327 . S
C991 C995 1.429 1_556 S
C992 C975 1.574 1_545 S
C992 H986 0.949 . S
C992 C996 1.368 . S
C993 C974 1.429 1_554 S
C993 C987 1.429 . S
C993 C994 1.523 . S
C994 C975 1.368 . S
C994 C988 1.368 1_554 S
C994 C993 1.523 . S
C995 C979 1.429 . S
C995 C991 1.429 1_554 S
C995 C996 1.523 . S
C996 C980 1.368 1_554 S
C996 C992 1.368 . S
C996 C995 1.523 . S
H997 C972 0.950 . S
H998 C974 0.950 . S
H999 C975 0.949 . S
H1000 C977 0.950 . S
H1001 C979 0.950 . S
C1002 C1003 1.349 . S
C1002 C1004 1.327 . S
C1002 H1027 0.950 . S
C1003 C1002 1.349 . S
C1003 C1019 1.349 . S
C1004 C1002 1.327 . S
C1004 C1023 1.429 . S
C1004 H1028 0.950 . S
C1005 C1022 1.574 1_545 S
C1005 C1024 1.368 . S
C1005 H1029 0.949 . S
H1006 C1010 0.949 . S
C1007 C1008 1.349 . S
C1007 C1009 1.327 . S
C1007 H1030 0.950 . S
C1008 C1007 1.349 . S
C1008 C1020 1.349 . S
C1009 C1007 1.327 . S
C1009 C1025 1.429 . S
C1009 H1031 0.950 . S
C1010 H1006 0.949 . S
C1010 C1018 1.574 1_565 S
C1010 C1026 1.368 . S
H1011 C1019 0.950 . S
H1012 C1017 0.950 . S
H1013 C1018 0.949 . S
H1014 C1020 0.950 . S
H1015 C1021 0.950 . S
H1016 C1022 0.949 . S
C1017 H1012 0.950 . S
C1017 C1019 1.327 . S
C1017 C1023 1.429 . S
C1018 C1010 1.574 1_545 S
C1018 H1013 0.949 . S
C1018 C1024 1.368 . S
C1019 C1003 1.349 . S
C1019 H1011 0.950 . S
C1019 C1017 1.327 . S
C1020 C1008 1.349 . S
C1020 H1014 0.950 . S
C1020 C1021 1.327 . S
C1021 H1015 0.950 . S
C1021 C1020 1.327 . S
C1021 C1025 1.429 . S
C1022 C1005 1.574 1_565 S
C1022 H1016 0.949 . S
C1022 C1026 1.368 . S
C1023 C1004 1.429 . S
C1023 C1017 1.429 . S
C1023 C1024 1.523 . S
C1024 C1005 1.368 . S
C1024 C1018 1.368 . S
C1024 C1023 1.523 . S
C1025 C1009 1.429 . S
C1025 C1021 1.429 . S
C1025 C1026 1.523 . S
C1026 C1010 1.368 . S
C1026 C1022 1.368 . S
C1026 C1025 1.523 . S
H1027 C1002 0.950 . S
H1028 C1004 0.950 . S
H1029 C1005 0.949 . S
H1030 C1007 0.950 . S
H1031 C1009 0.950 . S
C1032 C1033 1.349 1_556 S
C1032 C1034 1.327 . S
C1032 H1057 0.950 . S
C1033 C1032 1.349 1_554 S
C1033 C1049 1.349 . S
C1034 C1032 1.327 . S
C1034 C1053 1.429 1_556 S
C1034 H1058 0.950 . S
C1035 C1052 1.574 . S
C1035 C1054 1.368 . S
C1035 H1059 0.949 . S
H1036 C1040 0.949 . S
C1037 C1038 1.349 . S
C1037 C1039 1.327 . S
C1037 H1060 0.950 . S
C1038 C1037 1.349 . S
C1038 C1050 1.349 1_554 S
C1039 C1037 1.327 . S
C1039 C1055 1.429 . S
C1039 H1061 0.950 . S
C1040 H1036 0.949 . S
C1040 C1048 1.574 . S
C1040 C1056 1.368 1_556 S
H1041 C1049 0.950 . S
H1042 C1047 0.950 . S
H1043 C1048 0.949 . S
H1044 C1050 0.950 . S
H1045 C1051 0.950 . S
H1046 C1052 0.949 . S
C1047 H1042 0.950 . S
C1047 C1049 1.327 . S
C1047 C1053 1.429 . S
C1048 C1040 1.574 . S
C1048 H1043 0.949 . S
C1048 C1054 1.368 1_556 S
C1049 C1033 1.349 . S
C1049 H1041 0.950 . S
C1049 C1047 1.327 . S
C1050 C1038 1.349 1_556 S
C1050 H1044 0.950 . S
C1050 C1051 1.327 . S
C1051 H1045 0.950 . S
C1051 C1050 1.327 . S
C1051 C1055 1.429 1_556 S
C1052 C1035 1.574 . S
C1052 H1046 0.949 . S
C1052 C1056 1.368 . S
C1053 C1034 1.429 1_554 S
C1053 C1047 1.429 . S
C1053 C1054 1.523 . S
C1054 C1035 1.368 . S
C1054 C1048 1.368 1_554 S
C1054 C1053 1.523 . S
C1055 C1039 1.429 . S
C1055 C1051 1.429 1_554 S
C1055 C1056 1.523 . S
C1056 C1040 1.368 1_554 S
C1056 C1052 1.368 . S
C1056 C1055 1.523 . S
H1057 C1032 0.950 . S
H1058 C1034 0.950 . S
H1059 C1035 0.949 . S
H1060 C1037 0.950 . S
H1061 C1039 0.950 . S
C1062 C1063 1.349 1_556 S
C1062 C1064 1.327 . S
C1062 H1087 0.950 . S
C1063 C1062 1.349 1_554 S
C1063 C1079 1.349 . S
C1064 C1062 1.327 . S
C1064 C1083 1.429 1_556 S
C1064 H1088 0.950 . S
C1065 C1082 1.574 . S
C1065 C1084 1.368 . S
C1065 H1089 0.949 . S
H1066 C1070 0.949 . S
C1067 C1068 1.349 . S
C1067 C1069 1.327 . S
C1067 H1090 0.950 . S
C1068 C1067 1.349 . S
C1068 C1080 1.349 1_554 S
C1069 C1067 1.327 . S
C1069 C1085 1.429 . S
C1069 H1091 0.950 . S
C1070 H1066 0.949 . S
C1070 C1078 1.574 . S
C1070 C1086 1.368 1_556 S
H1071 C1079 0.950 . S
H1072 C1077 0.950 . S
H1073 C1078 0.949 . S
H1074 C1080 0.950 . S
H1075 C1081 0.950 . S
H1076 C1082 0.949 . S
C1077 H1072 0.950 . S
C1077 C1079 1.327 . S
C1077 C1083 1.429 . S
C1078 C1070 1.574 . S
C1078 H1073 0.949 . S
C1078 C1084 1.368 1_556 S
C1079 C1063 1.349 . S
C1079 H1071 0.950 . S
C1079 C1077 1.327 . S
C1080 C1068 1.349 1_556 S
C1080 H1074 0.950 . S
C1080 C1081 1.327 . S
C1081 H1075 0.950 . S
C1081 C1080 1.327 . S
C1081 C1085 1.429 1_556 S
C1082 C1065 1.574 . S
C1082 H1076 0.949 . S
C1082 C1086 1.368 . S
C1083 C1064 1.429 1_554 S
C1083 C1077 1.429 . S
C1083 C1084 1.523 . S
C1084 C1065 1.368 . S
C1084 C1078 1.368 1_554 S
C1084 C1083 1.523 . S
C1085 C1069 1.429 . S
C1085 C1081 1.429 1_554 S
C1085 C1086 1.523 . S
C1086 C1070 1.368 1_554 S
C1086 C1082 1.368 . S
C1086 C1085 1.523 . S
H1087 C1062 0.950 . S
H1088 C1064 0.950 . S
H1089 C1065 0.949 . S
H1090 C1067 0.950 . S
H1091 C1069 0.950 . S
C1092 C1093 1.349 . S
C1092 C1094 1.327 . S
C1092 H1117 0.950 . S
C1093 C1092 1.349 . S
C1093 C1109 1.349 . S
C1094 C1092 1.327 . S
C1094 C1113 1.429 . S
C1094 H1118 0.950 . S
C1095 C1112 1.574 . S
C1095 C1114 1.368 . S
C1095 H1119 0.949 . S
H1096 C1100 0.949 . S
C1097 C1098 1.349 . S
C1097 C1099 1.327 . S
C1097 H1120 0.950 . S
C1098 C1097 1.349 . S
C1098 C1110 1.349 . S
C1099 C1097 1.327 . S
C1099 C1115 1.429 . S
C1099 H1121 0.950 . S
C1100 H1096 0.949 . S
C1100 C1108 1.574 . S
C1100 C1116 1.368 . S
H1101 C1109 0.950 . S
H1102 C1107 0.950 . S
H1103 C1108 0.949 . S
H1104 C1110 0.950 . S
H1105 C1111 0.950 . S
H1106 C1112 0.949 . S
C1107 H1102 0.950 . S
C1107 C1109 1.327 . S
C1107 C1113 1.429 . S
C1108 C1100 1.574 . S
C1108 H1103 0.949 . S
C1108 C1114 1.368 . S
C1109 C1093 1.349 . S
C1109 H1101 0.950 . S
C1109 C1107 1.327 . S
C1110 C1098 1.349 . S
C1110 H1104 0.950 . S
C1110 C1111 1.327 . S
C1111 H1105 0.950 . S
C1111 C1110 1.327 . S
C1111 C1115 1.429 . S
C1112 C1095 1.574 . S
C1112 H1106 0.949 . S
C1112 C1116 1.368 . S
C1113 C1094 1.429 . S
C1113 C1107 1.429 . S
C1113 C1114 1.523 . S
C1114 C1095 1.368 . S
C1114 C1108 1.368 . S
C1114 C1113 1.523 . S
C1115 C1099 1.429 . S
C1115 C1111 1.429 . S
C1115 C1116 1.523 . S
C1116 C1100 1.368 . S
C1116 C1112 1.368 . S
C1116 C1115 1.523 . S
H1117 C1092 0.950 . S
H1118 C1094 0.950 . S
H1119 C1095 0.949 . S
H1120 C1097 0.950 . S
H1121 C1099 0.950 . S
C1122 C1123 1.349 . S
C1122 C1124 1.327 . S
C1122 H1147 0.950 . S
C1123 C1122 1.349 . S
C1123 C1139 1.349 . S
C1124 C1122 1.327 . S
C1124 C1143 1.429 . S
C1124 H1148 0.950 . S
C1125 C1142 1.574 . S
C1125 C1144 1.368 . S
C1125 H1149 0.949 . S
H1126 C1130 0.949 . S
C1127 C1128 1.349 . S
C1127 C1129 1.327 . S
C1127 H1150 0.950 . S
C1128 C1127 1.349 . S
C1128 C1140 1.349 . S
C1129 C1127 1.327 . S
C1129 C1145 1.429 . S
C1129 H1151 0.950 . S
C1130 H1126 0.949 . S
C1130 C1138 1.574 . S
C1130 C1146 1.368 . S
H1131 C1139 0.950 . S
H1132 C1137 0.950 . S
H1133 C1138 0.949 . S
H1134 C1140 0.950 . S
H1135 C1141 0.950 . S
H1136 C1142 0.949 . S
C1137 H1132 0.950 . S
C1137 C1139 1.327 . S
C1137 C1143 1.429 . S
C1138 C1130 1.574 . S
C1138 H1133 0.949 . S
C1138 C1144 1.368 . S
C1139 C1123 1.349 . S
C1139 H1131 0.950 . S
C1139 C1137 1.327 . S
C1140 C1128 1.349 . S
C1140 H1134 0.950 . S
C1140 C1141 1.327 . S
C1141 H1135 0.950 . S
C1141 C1140 1.327 . S
C1141 C1145 1.429 . S
C1142 C1125 1.574 . S
C1142 H1136 0.949 . S
C1142 C1146 1.368 . S
C1143 C1124 1.429 . S
C1143 C1137 1.429 . S
C1143 C1144 1.523 . S
C1144 C1125 1.368 . S
C1144 C1138 1.368 . S
C1144 C1143 1.523 . S
C1145 C1129 1.429 . S
C1145 C1141 1.429 . S
C1145 C1146 1.523 . S
C1146 C1130 1.368 . S
C1146 C1142 1.368 . S
C1146 C1145 1.523 . S
H1147 C1122 0.950 . S
H1148 C1124 0.950 . S
H1149 C1125 0.949 . S
H1150 C1127 0.950 . S
H1151 C1129 0.950 . S
C1152 C1153 1.349 . S
C1152 C1154 1.327 . S
C1152 H1177 0.950 . S
C1153 C1152 1.349 . S
C1153 C1169 1.349 . S
C1154 C1152 1.327 . S
C1154 C1173 1.429 . S
C1154 H1178 0.950 . S
C1155 C1172 1.574 . S
C1155 C1174 1.368 1_655 S
C1155 H1179 0.949 . S
H1156 C1160 0.949 . S
C1157 C1158 1.349 . S
C1157 C1159 1.327 . S
C1157 H1180 0.950 . S
C1158 C1157 1.349 . S
C1158 C1170 1.349 1_655 S
C1159 C1157 1.327 . S
C1159 C1175 1.429 . S
C1159 H1181 0.950 . S
C1160 H1156 0.949 . S
C1160 C1168 1.574 . S
C1160 C1176 1.368 . S
H1161 C1169 0.950 . S
H1162 C1167 0.950 1_655 S
H1163 C1168 0.949 . S
H1164 C1170 0.950 . S
H1165 C1171 0.950 . S
H1166 C1172 0.949 . S
C1167 H1162 0.950 1_455 S
C1167 C1169 1.327 . S
C1167 C1173 1.429 . S
C1168 C1160 1.574 . S
C1168 H1163 0.949 . S
C1168 C1174 1.368 . S
C1169 C1153 1.349 . S
C1169 H1161 0.950 . S
C1169 C1167 1.327 . S
C1170 C1158 1.349 1_455 S
C1170 H1164 0.950 . S
C1170 C1171 1.327 . S
C1171 H1165 0.950 . S
C1171 C1170 1.327 . S
C1171 C1175 1.429 1_455 S
C1172 C1155 1.574 . S
C1172 H1166 0.949 . S
C1172 C1176 1.368 1_655 S
C1173 C1154 1.429 . S
C1173 C1167 1.429 . S
C1173 C1174 1.523 . S
C1174 C1155 1.368 1_455 S
C1174 C1168 1.368 . S
C1174 C1173 1.523 . S
C1175 C1159 1.429 . S
C1175 C1171 1.429 1_655 S
C1175 C1176 1.523 1_655 S
C1176 C1160 1.368 . S
C1176 C1172 1.368 1_455 S
C1176 C1175 1.523 1_455 S
H1177 C1152 0.950 . S
H1178 C1154 0.950 . S
H1179 C1155 0.949 . S
H1180 C1157 0.950 . S
H1181 C1159 0.950 . S
C1182 C1183 1.349 . S
C1182 C1184 1.327 1_655 S
C1182 H1207 0.950 1_655 S
C1183 C1182 1.349 . S
C1183 C1199 1.349 . S
C1184 C1182 1.327 1_455 S
C1184 C1203 1.429 1_455 S
C1184 H1208 0.950 . S
C1185 C1202 1.574 1_655 S
C1185 C1204 1.368 1_655 S
C1185 H1209 0.949 . S
H1186 C1190 0.949 . S
C1187 C1188 1.349 . S
C1187 C1189 1.327 . S
C1187 H1210 0.950 . S
C1188 C1187 1.349 . S
C1188 C1200 1.349 . S
C1189 C1187 1.327 . S
C1189 C1205 1.429 . S
C1189 H1211 0.950 . S
C1190 H1186 0.949 . S
C1190 C1198 1.574 . S
C1190 C1206 1.368 . S
H1191 C1199 0.950 . S
H1192 C1197 0.950 . S
H1193 C1198 0.949 . S
H1194 C1200 0.950 . S
H1195 C1201 0.950 . S
H1196 C1202 0.949 1_655 S
C1197 H1192 0.950 . S
C1197 C1199 1.327 . S
C1197 C1203 1.429 . S
C1198 C1190 1.574 . S
C1198 H1193 0.949 . S
C1198 C1204 1.368 . S
C1199 C1183 1.349 . S
C1199 H1191 0.950 . S
C1199 C1197 1.327 . S
C1200 C1188 1.349 . S
C1200 H1194 0.950 . S
C1200 C1201 1.327 . S
C1201 H1195 0.950 . S
C1201 C1200 1.327 . S
C1201 C1205 1.429 . S
C1202 C1185 1.574 1_455 S
C1202 H1196 0.949 1_455 S
C1202 C1206 1.368 . S
C1203 C1184 1.429 1_655 S
C1203 C1197 1.429 . S
C1203 C1204 1.523 1_655 S
C1204 C1185 1.368 1_455 S
C1204 C1198 1.368 . S
C1204 C1203 1.523 1_455 S
C1205 C1189 1.429 . S
C1205 C1201 1.429 . S
C1205 C1206 1.523 . S
C1206 C1190 1.368 . S
C1206 C1202 1.368 . S
C1206 C1205 1.523 . S
H1207 C1182 0.950 1_455 S
H1208 C1184 0.950 . S
H1209 C1185 0.949 . S
H1210 C1187 0.950 . S
H1211 C1189 0.950 . S
C1212 C1213 1.349 . S
C1212 C1214 1.327 . S
C1212 H1237 0.950 1_655 S
C1213 C1212 1.349 . S
C1213 C1229 1.349 . S
C1214 C1212 1.327 . S
C1214 C1233 1.429 . S
C1214 H1238 0.950 1_655 S
C1215 C1232 1.574 . S
C1215 C1234 1.368 . S
C1215 H1239 0.949 . S
H1216 C1220 0.949 . S
C1217 C1218 1.349 1_655 S
C1217 C1219 1.327 . S
C1217 H1240 0.950 . S
C1218 C1217 1.349 1_455 S
C1218 C1230 1.349 . S
C1219 C1217 1.327 . S
C1219 C1235 1.429 1_655 S
C1219 H1241 0.950 . S
C1220 H1216 0.949 . S
C1220 C1228 1.574 . S
C1220 C1236 1.368 1_455 S
H1221 C1229 0.950 . S
H1222 C1227 0.950 . S
H1223 C1228 0.949 . S
H1224 C1230 0.950 . S
H1225 C1231 0.950 . S
H1226 C1232 0.949 . S
C1227 H1222 0.950 . S
C1227 C1229 1.327 . S
C1227 C1233 1.429 . S
C1228 C1220 1.574 . S
C1228 H1223 0.949 . S
C1228 C1234 1.368 1_455 S
C1229 C1213 1.349 . S
C1229 H1221 0.950 . S
C1229 C1227 1.327 . S
C1230 C1218 1.349 . S
C1230 H1224 0.950 . S
C1230 C1231 1.327 . S
C1231 H1225 0.950 . S
C1231 C1230 1.327 . S
C1231 C1235 1.429 . S
C1232 C1215 1.574 . S
C1232 H1226 0.949 . S
C1232 C1236 1.368 . S
C1233 C1214 1.429 . S
C1233 C1227 1.429 . S
C1233 C1234 1.523 . S
C1234 C1215 1.368 . S
C1234 C1228 1.368 1_655 S
C1234 C1233 1.523 . S
C1235 C1219 1.429 1_455 S
C1235 C1231 1.429 . S
C1235 C1236 1.523 1_455 S
C1236 C1220 1.368 1_655 S
C1236 C1232 1.368 . S
C1236 C1235 1.523 1_655 S
H1237 C1212 0.950 1_455 S
H1238 C1214 0.950 1_455 S
H1239 C1215 0.949 . S
H1240 C1217 0.950 . S
H1241 C1219 0.950 . S
C1242 C1243 1.349 . S
C1242 C1244 1.327 . S
C1242 H1267 0.950 . S
C1243 C1242 1.349 . S
C1243 C1259 1.349 . S
C1244 C1242 1.327 . S
C1244 C1263 1.429 . S
C1244 H1268 0.950 . S
C1245 C1262 1.574 . S
C1245 C1264 1.368 1_455 S
C1245 H1269 0.949 . S
H1246 C1250 0.949 . S
C1247 C1248 1.349 . S
C1247 C1249 1.327 . S
C1247 H1270 0.950 . S
C1248 C1247 1.349 . S
C1248 C1260 1.349 1_455 S
C1249 C1247 1.327 . S
C1249 C1265 1.429 . S
C1249 H1271 0.950 . S
C1250 H1246 0.949 . S
C1250 C1258 1.574 . S
C1250 C1266 1.368 . S
H1251 C1259 0.950 . S
H1252 C1257 0.950 1_455 S
H1253 C1258 0.949 . S
H1254 C1260 0.950 . S
H1255 C1261 0.950 . S
H1256 C1262 0.949 . S
C1257 H1252 0.950 1_655 S
C1257 C1259 1.327 . S
C1257 C1263 1.429 . S
C1258 C1250 1.574 . S
C1258 H1253 0.949 . S
C1258 C1264 1.368 . S
C1259 C1243 1.349 . S
C1259 H1251 0.950 . S
C1259 C1257 1.327 . S
C1260 C1248 1.349 1_655 S
C1260 H1254 0.950 . S
C1260 C1261 1.327 . S
C1261 H1255 0.950 . S
C1261 C1260 1.327 . S
C1261 C1265 1.429 1_655 S
C1262 C1245 1.574 . S
C1262 H1256 0.949 . S
C1262 C1266 1.368 1_455 S
C1263 C1244 1.429 . S
C1263 C1257 1.429 . S
C1263 C1264 1.523 . S
C1264 C1245 1.368 1_655 S
C1264 C1258 1.368 . S
C1264 C1263 1.523 . S
C1265 C1249 1.429 . S
C1265 C1261 1.429 1_455 S
C1265 C1266 1.523 1_455 S
C1266 C1250 1.368 . S
C1266 C1262 1.368 1_655 S
C1266 C1265 1.523 1_655 S
H1267 C1242 0.950 . S
H1268 C1244 0.950 . S
H1269 C1245 0.949 . S
H1270 C1247 0.950 . S
H1271 C1249 0.950 . S
C1272 C1273 1.349 . S
C1272 C1274 1.327 . S
C1272 H1297 0.950 . S
C1273 C1272 1.349 . S
C1273 C1289 1.349 . S
C1274 C1272 1.327 . S
C1274 C1293 1.429 . S
C1274 H1298 0.950 . S
C1275 C1292 1.574 . S
C1275 C1294 1.368 . S
C1275 H1299 0.949 . S
H1276 C1280 0.949 . S
C1277 C1278 1.349 . S
C1277 C1279 1.327 . S
C1277 H1300 0.950 . S
C1278 C1277 1.349 . S
C1278 C1290 1.349 . S
C1279 C1277 1.327 . S
C1279 C1295 1.429 . S
C1279 H1301 0.950 . S
C1280 H1276 0.949 . S
C1280 C1288 1.574 . S
C1280 C1296 1.368 . S
H1281 C1289 0.950 . S
H1282 C1287 0.950 . S
H1283 C1288 0.949 . S
H1284 C1290 0.950 . S
H1285 C1291 0.950 . S
H1286 C1292 0.949 . S
C1287 H1282 0.950 . S
C1287 C1289 1.327 . S
C1287 C1293 1.429 . S
C1288 C1280 1.574 . S
C1288 H1283 0.949 . S
C1288 C1294 1.368 . S
C1289 C1273 1.349 . S
C1289 H1281 0.950 . S
C1289 C1287 1.327 . S
C1290 C1278 1.349 . S
C1290 H1284 0.950 . S
C1290 C1291 1.327 . S
C1291 H1285 0.950 . S
C1291 C1290 1.327 . S
C1291 C1295 1.429 . S
C1292 C1275 1.574 . S
C1292 H1286 0.949 . S
C1292 C1296 1.368 . S
C1293 C1274 1.429 . S
C1293 C1287 1.429 . S
C1293 C1294 1.523 . S
C1294 C1275 1.368 . S
C1294 C1288 1.368 . S
C1294 C1293 1.523 . S
C1295 C1279 1.429 . S
C1295 C1291 1.429 . S
C1295 C1296 1.523 . S
C1296 C1280 1.368 . S
C1296 C1292 1.368 . S
C1296 C1295 1.523 . S
H1297 C1272 0.950 . S
H1298 C1274 0.950 . S
H1299 C1275 0.949 . S
H1300 C1277 0.950 . S
H1301 C1279 0.950 . S
C1302 C1303 1.349 . S
C1302 C1304 1.327 . S
C1302 H1327 0.950 . S
C1303 C1302 1.349 . S
C1303 C1319 1.349 . S
C1304 C1302 1.327 . S
C1304 C1323 1.429 . S
C1304 H1328 0.950 . S
C1305 C1322 1.574 . S
C1305 C1324 1.368 . S
C1305 H1329 0.949 . S
H1306 C1310 0.949 . S
C1307 C1308 1.349 . S
C1307 C1309 1.327 . S
C1307 H1330 0.950 . S
C1308 C1307 1.349 . S
C1308 C1320 1.349 . S
C1309 C1307 1.327 . S
C1309 C1325 1.429 . S
C1309 H1331 0.950 . S
C1310 H1306 0.949 . S
C1310 C1318 1.574 . S
C1310 C1326 1.368 . S
H1311 C1319 0.950 . S
H1312 C1317 0.950 . S
H1313 C1318 0.949 . S
H1314 C1320 0.950 . S
H1315 C1321 0.950 . S
H1316 C1322 0.949 . S
C1317 H1312 0.950 . S
C1317 C1319 1.327 . S
C1317 C1323 1.429 . S
C1318 C1310 1.574 . S
C1318 H1313 0.949 . S
C1318 C1324 1.368 . S
C1319 C1303 1.349 . S
C1319 H1311 0.950 . S
C1319 C1317 1.327 . S
C1320 C1308 1.349 . S
C1320 H1314 0.950 . S
C1320 C1321 1.327 . S
C1321 H1315 0.950 . S
C1321 C1320 1.327 . S
C1321 C1325 1.429 . S
C1322 C1305 1.574 . S
C1322 H1316 0.949 . S
C1322 C1326 1.368 . S
C1323 C1304 1.429 . S
C1323 C1317 1.429 . S
C1323 C1324 1.523 . S
C1324 C1305 1.368 . S
C1324 C1318 1.368 . S
C1324 C1323 1.523 . S
C1325 C1309 1.429 . S
C1325 C1321 1.429 . S
C1325 C1326 1.523 . S
C1326 C1310 1.368 . S
C1326 C1322 1.368 . S
C1326 C1325 1.523 . S
H1327 C1302 0.950 . S
H1328 C1304 0.950 . S
H1329 C1305 0.949 . S
H1330 C1307 0.950 . S
H1331 C1309 0.950 . S
C1332 C1333 1.349 . S
C1332 C1334 1.327 . S
C1332 H1357 0.950 . S
C1333 C1332 1.349 . S
C1333 C1349 1.349 . S
C1334 C1332 1.327 . S
C1334 C1353 1.429 . S
C1334 H1358 0.950 . S
C1335 C1352 1.574 . S
C1335 C1354 1.368 . S
C1335 H1359 0.949 . S
H1336 C1340 0.949 . S
C1337 C1338 1.349 . S
C1337 C1339 1.327 . S
C1337 H1360 0.950 . S
C1338 C1337 1.349 . S
C1338 C1350 1.349 . S
C1339 C1337 1.327 . S
C1339 C1355 1.429 . S
C1339 H1361 0.950 . S
C1340 H1336 0.949 . S
C1340 C1348 1.574 . S
C1340 C1356 1.368 . S
H1341 C1349 0.950 . S
H1342 C1347 0.950 . S
H1343 C1348 0.949 . S
H1344 C1350 0.950 . S
H1345 C1351 0.950 . S
H1346 C1352 0.949 . S
C1347 H1342 0.950 . S
C1347 C1349 1.327 . S
C1347 C1353 1.429 . S
C1348 C1340 1.574 . S
C1348 H1343 0.949 . S
C1348 C1354 1.368 . S
C1349 C1333 1.349 . S
C1349 H1341 0.950 . S
C1349 C1347 1.327 . S
C1350 C1338 1.349 . S
C1350 H1344 0.950 . S
C1350 C1351 1.327 . S
C1351 H1345 0.950 . S
C1351 C1350 1.327 . S
C1351 C1355 1.429 . S
C1352 C1335 1.574 . S
C1352 H1346 0.949 . S
C1352 C1356 1.368 . S
C1353 C1334 1.429 . S
C1353 C1347 1.429 . S
C1353 C1354 1.523 . S
C1354 C1335 1.368 . S
C1354 C1348 1.368 . S
C1354 C1353 1.523 . S
C1355 C1339 1.429 . S
C1355 C1351 1.429 . S
C1355 C1356 1.523 . S
C1356 C1340 1.368 . S
C1356 C1352 1.368 . S
C1356 C1355 1.523 . S
H1357 C1332 0.950 . S
H1358 C1334 0.950 . S
H1359 C1335 0.949 . S
H1360 C1337 0.950 . S
H1361 C1339 0.950 . S
C1362 C1363 1.349 . S
C1362 C1364 1.327 . S
C1362 H1387 0.950 . S
C1363 C1362 1.349 . S
C1363 C1379 1.349 . S
C1364 C1362 1.327 . S
C1364 C1383 1.429 . S
C1364 H1388 0.950 . S
C1365 C1382 1.574 . S
C1365 C1384 1.368 . S
C1365 H1389 0.949 . S
H1366 C1370 0.949 . S
C1367 C1368 1.349 . S
C1367 C1369 1.327 . S
C1367 H1390 0.950 . S
C1368 C1367 1.349 . S
C1368 C1380 1.349 . S
C1369 C1367 1.327 . S
C1369 C1385 1.429 . S
C1369 H1391 0.950 . S
C1370 H1366 0.949 . S
C1370 C1378 1.574 . S
C1370 C1386 1.368 . S
H1371 C1379 0.950 . S
H1372 C1377 0.950 . S
H1373 C1378 0.949 . S
H1374 C1380 0.950 . S
H1375 C1381 0.950 . S
H1376 C1382 0.949 . S
C1377 H1372 0.950 . S
C1377 C1379 1.327 . S
C1377 C1383 1.429 . S
C1378 C1370 1.574 . S
C1378 H1373 0.949 . S
C1378 C1384 1.368 . S
C1379 C1363 1.349 . S
C1379 H1371 0.950 . S
C1379 C1377 1.327 . S
C1380 C1368 1.349 . S
C1380 H1374 0.950 . S
C1380 C1381 1.327 . S
C1381 H1375 0.950 . S
C1381 C1380 1.327 . S
C1381 C1385 1.429 . S
C1382 C1365 1.574 . S
C1382 H1376 0.949 . S
C1382 C1386 1.368 . S
C1383 C1364 1.429 . S
C1383 C1377 1.429 . S
C1383 C1384 1.523 . S
C1384 C1365 1.368 . S
C1384 C1378 1.368 . S
C1384 C1383 1.523 . S
C1385 C1369 1.429 . S
C1385 C1381 1.429 . S
C1385 C1386 1.523 . S
C1386 C1370 1.368 . S
C1386 C1382 1.368 . S
C1386 C1385 1.523 . S
H1387 C1362 0.950 . S
H1388 C1364 0.950 . S
H1389 C1365 0.949 . S
H1390 C1367 0.950 . S
H1391 C1369 0.950 . S
C673 C67 2.099 . S
C678 C56 2.099 . S
C703 C151 2.099 . S
C708 C140 2.099 . S
C733 C224 2.099 . S
C738 C235 2.099 . S
C763 C308 2.099 . S
C768 C319 2.099 . S
C793 C403 2.099 . S
C798 C392 2.099 . S
C823 C476 2.099 . S
C828 C487 2.099 . S
C853 C560 2.099 . S
C858 C571 2.099 . S
C883 C655 2.099 . S
C888 C644 2.099 . S
C913 C154 1.726 1_554 S
C918 C58 1.726 . S
C943 C322 1.726 . S
C948 C226 1.726 . S
C973 C394 1.726 . S
C978 C490 1.726 1_554 S
C1003 C562 1.726 . S
C1008 C658 1.726 . S
C1033 C70 1.386 1_554 S
C1038 C478 1.386 . S
C1063 C406 1.386 1_554 S
C1068 C142 1.386 . S
C1093 C238 1.386 . S
C1098 C646 1.386 . S
C1123 C310 1.386 . S
C1128 C574 1.386 . S
C1153 C74 1.522 . S
C1158 C326 1.595 . S
C1183 C158 1.595 . S
C1188 C242 1.522 . S
C1213 C147 1.522 . S
C1218 C231 1.595 . S
C1243 C315 1.522 . S
C1248 C63 1.595 . S
C1273 C410 1.523 . S
C1278 C662 1.595 . S
C1303 C494 1.595 . S
C1308 C578 1.522 . S
C1333 C483 1.522 . S
C1338 C567 1.595 . S
C1363 C651 1.522 . S
C1368 C399 1.595 . S
