# Generated by pormake.
# Topology tfs, (6)-cn, num edge types: 1
# Building blocks:
#     Node 0, Type 0, BuildingBlock: INOVEN_clean_sbu_0, # of connection points: 6
#     Node 1, Type 0, BuildingBlock: INOVEN_clean_sbu_0, # of connection points: 6
#     Node 2, Type 0, BuildingBlock: INOVEN_clean_sbu_0, # of connection points: 6
#     Node 3, Type 0, BuildingBlock: INOVEN_clean_sbu_0, # of connection points: 6
#     Node 4, Type 0, BuildingBlock: INOVEN_clean_sbu_0, # of connection points: 6
#     Node 5, Type 0, BuildingBlock: INOVEN_clean_sbu_0, # of connection points: 6
#     Edge 6, Type (0, 0), BuildingBlock: UVAHIK_clean_linker_0, # of connection points: 2
#     Edge 7, Type (0, 0), BuildingBlock: UVAHIK_clean_linker_0, # of connection points: 2
#     Edge 8, Type (0, 0), BuildingBlock: UVAHIK_clean_linker_0, # of connection points: 2
#     Edge 9, Type (0, 0), BuildingBlock: UVAHIK_clean_linker_0, # of connection points: 2
#     Edge 10, Type (0, 0), BuildingBlock: UVAHIK_clean_linker_0, # of connection points: 2
#     Edge 11, Type (0, 0), BuildingBlock: UVAHIK_clean_linker_0, # of connection points: 2
#     Edge 12, Type (0, 0), BuildingBlock: UVAHIK_clean_linker_0, # of connection points: 2
#     Edge 13, Type (0, 0), BuildingBlock: UVAHIK_clean_linker_0, # of connection points: 2
#     Edge 14, Type (0, 0), BuildingBlock: UVAHIK_clean_linker_0, # of connection points: 2
#     Edge 15, Type (0, 0), BuildingBlock: UVAHIK_clean_linker_0, # of connection points: 2
#     Edge 16, Type (0, 0), BuildingBlock: UVAHIK_clean_linker_0, # of connection points: 2
#     Edge 17, Type (0, 0), BuildingBlock: UVAHIK_clean_linker_0, # of connection points: 2
#     Edge 18, Type (0, 0), BuildingBlock: UVAHIK_clean_linker_0, # of connection points: 2
#     Edge 19, Type (0, 0), BuildingBlock: UVAHIK_clean_linker_0, # of connection points: 2
#     Edge 20, Type (0, 0), BuildingBlock: UVAHIK_clean_linker_0, # of connection points: 2
#     Edge 21, Type (0, 0), BuildingBlock: UVAHIK_clean_linker_0, # of connection points: 2
#     Edge 22, Type (0, 0), BuildingBlock: UVAHIK_clean_linker_0, # of connection points: 2
#     Edge 23, Type (0, 0), BuildingBlock: UVAHIK_clean_linker_0, # of connection points: 2
# Relax obj value: 0.473
# Max RMSD: 0.400
# Mean RMSD: 0.349
data_MOF--net-tfs--node1-INOVEN_clean_sbu_0--edge1-UVAHIK_clean_linker_0
_symmetry_space_group_name_H-M    P1
_symmetry_Int_Tables_number       1
_symmetry_cell_setting            triclinic
loop_
_symmetry_equiv_pos_as_xyz
'x, y, z'
_cell_length_a     62.681581
_cell_length_b     62.103873
_cell_length_c     15.861807
_cell_angle_alpha  92.753552
_cell_angle_beta   100.95832
_cell_angle_gamma 119.88296
loop_
_atom_site_label
_atom_site_type_symbol
_atom_site_fract_x
_atom_site_fract_y
_atom_site_fract_z
_atom_type_partial_charge
Gd0 Gd 0.19659 0.39568 0.26421 0.0
Gd1 Gd 0.18145 0.42381 0.12957 0.0
C2 C 0.14529 0.39769 0.25358 0.0
C3 C 0.20707 0.37603 0.39402 0.0
C4 C 0.21832 0.36035 0.41026 0.0
C5 C 0.22233 0.34896 0.34134 0.0
C6 C 0.2248 0.35641 0.49513 0.0
C7 C 0.23905 0.32947 0.44216 0.0
C8 C 0.23511 0.34112 0.51106 0.0
C9 C 0.23255 0.33361 0.35708 0.0
C10 C 0.17586 0.3713 0.09731 0.0
C11 C 0.23501 0.42556 0.15154 0.0
C12 C 0.17087 0.44237 -0.0037 0.0
C13 C 0.1631 0.46087 0.98176 0.0
C14 C 0.15545 0.46949 0.04663 0.0
C15 C 0.16578 0.47188 0.90647 0.0
C16 C 0.15486 0.50125 0.96351 0.0
C17 C 0.16167 0.4919 0.89729 0.0
C18 C 0.15131 0.48947 0.03751 0.0
C19 C 0.20324 0.44923 0.29481 0.0
O20 O 0.16445 0.39707 0.30309 0.0
O21 O 0.14575 0.40413 0.17539 0.0
O22 O 0.22243 0.39906 0.38338 0.0
O23 O 0.18491 0.36509 0.33797 0.0
O24 O 0.19317 0.3696 0.15092 0.0
O25 O 0.16961 0.38438 0.13712 0.0
O26 O 0.21554 0.42455 0.09699 0.0
O27 O 0.23328 0.41805 0.22777 0.0
O28 O 0.15429 0.42101 0.01534 0.0
O29 O 0.1938 0.45169 0.04527 0.0
O30 O 0.1865 0.45166 0.24078 0.0
O31 O 0.20851 0.43518 0.25558 0.0
H32 H 0.21739 0.35181 0.2753 0.0
H33 H 0.22188 0.36515 0.54908 0.0
H34 H 0.24027 0.33868 0.57749 0.0
H35 H 0.23505 0.32472 0.30241 0.0
H36 H 0.15357 0.46136 0.10568 0.0
H37 H 0.17182 0.46551 0.856 0.0
H38 H 0.16429 0.50038 0.83915 0.0
H39 H 0.14644 0.49641 0.0903 0.0
Gd40 Gd 0.76981 0.19813 0.77139 0.0
Gd41 Gd 0.81169 0.22102 0.67011 0.0
C42 C 0.81079 0.25963 0.80582 0.0
C43 C 0.74418 0.18436 0.88871 0.0
C44 C 0.72874 0.19151 0.92792 0.0
C45 C 0.71106 0.1743 0.96916 0.0
C46 C 0.72987 0.21436 0.91809 0.0
C47 C 0.69397 0.20156 0.98297 0.0
C48 C 0.71267 0.2194 0.94583 0.0
C49 C 0.69377 0.17925 -0.00358 0.0
C50 C 0.75611 0.20963 0.61566 0.0
C51 C 0.77049 0.16135 0.63237 0.0
C52 C 0.83704 0.23256 0.55189 0.0
C53 C 0.86174 0.24993 0.53555 0.0
C54 C 0.88035 0.27149 0.59597 0.0
C55 C 0.86694 0.24415 0.45845 0.0
C56 C 0.90969 0.28076 0.50312 0.0
C57 C 0.89067 0.25943 0.44221 0.0
C58 C 0.90421 0.2869 0.57967 0.0
C59 C 0.82515 0.21084 0.82841 0.0
O60 O 0.79252 0.23991 0.8299 0.0
O61 O 0.82033 0.25736 0.7407 0.0
O62 O 0.73463 0.17397 0.80652 0.0
O63 O 0.7686 0.20076 0.90686 0.0
O64 O 0.74047 0.19074 0.64716 0.0
O65 O 0.77705 0.22177 0.67058 0.0
O66 O 0.78282 0.18159 0.59742 0.0
O67 O 0.7677 0.16345 0.71223 0.0
O68 O 0.82299 0.24182 0.56515 0.0
O69 O 0.83646 0.21642 0.60287 0.0
O70 O 0.84047 0.23015 0.79733 0.0
O71 O 0.80454 0.19766 0.77206 0.0
H72 H 0.71001 0.1566 0.97742 0.0
H73 H 0.74336 0.22781 0.88594 0.0
H74 H 0.71313 0.23663 0.93383 0.0
H75 H 0.67973 0.16528 0.02557 0.0
H76 H 0.87657 0.27613 0.65602 0.0
H77 H 0.85272 0.22757 0.41114 0.0
H78 H 0.89418 0.25444 0.38208 0.0
H79 H 0.91857 0.30315 0.62793 0.0
Gd80 Gd 0.55243 0.75323 0.23462 0.0
Gd81 Gd 0.58128 0.79843 0.1438 0.0
C82 C 0.51961 0.76633 0.09455 0.0
C83 C 0.53236 0.71966 0.33039 0.0
C84 C 0.50962 0.69423 0.3103 0.0
C85 C 0.51069 0.67456 0.34659 0.0
C86 C 0.48761 0.6889 0.24858 0.0
C87 C 0.46822 0.64426 0.25767 0.0
C88 C 0.46706 0.6642 0.22303 0.0
C89 C 0.49021 0.64978 0.32046 0.0
C90 C 0.55675 0.74106 0.07671 0.0
C91 C 0.61358 0.783 0.27824 0.0
C92 C 0.60159 0.83314 0.05193 0.0
C93 C 0.62155 0.85987 0.0787 0.0
C94 C 0.63894 0.86812 0.16033 0.0
C95 C 0.62099 0.87768 0.02879 0.0
C96 C 0.65353 0.91181 0.14519 0.0
C97 C 0.63689 0.90345 0.06162 0.0
C98 C 0.65483 0.89384 0.19316 0.0
C99 C 0.5786 0.81042 0.30629 0.0
O100 O 0.52031 0.75691 0.16707 0.0
O101 O 0.54022 0.77919 0.06512 0.0
O102 O 0.55056 0.72209 0.29548 0.0
O103 O 0.52857 0.73852 0.3248 0.0
O104 O 0.53676 0.72734 0.10468 0.0
O105 O 0.57332 0.75956 0.13337 0.0
O106 O 0.61276 0.79238 0.20536 0.0
O107 O 0.59332 0.77141 0.31002 0.0
O108 O 0.58055 0.82726 0.07426 0.0
O109 O 0.60851 0.81665 0.06628 0.0
O110 O 0.59773 0.82409 0.27429 0.0
O111 O 0.56162 0.7925 0.24805 0.0
H112 H 0.52766 0.67828 0.39339 0.0
H113 H 0.48645 0.70374 0.21878 0.0
H114 H 0.45029 0.66076 0.17584 0.0
H115 H 0.49192 0.6349 0.34775 0.0
H116 H 0.63941 0.85467 0.20054 0.0
H117 H 0.60752 0.87165 0.96602 0.0
H118 H 0.63566 0.91681 0.0226 0.0
H119 H 0.66714 0.89955 0.25812 0.0
Gd120 Gd 0.82545 0.58354 0.8424 0.0
Gd121 Gd 0.81031 0.61163 0.7076 0.0
C122 C 0.77162 0.58138 0.81884 0.0
C123 C 0.83594 0.56488 0.97551 0.0
C124 C 0.84316 0.54593 0.98871 0.0
C125 C 0.85084 0.53746 0.92357 0.0
C126 C 0.83989 0.53437 0.06273 0.0
C127 C 0.85032 0.5048 0.00383 0.0
C128 C 0.84346 0.51396 0.07036 0.0
C129 C 0.85445 0.51711 0.93115 0.0
C130 C 0.8043 0.55817 0.6774 0.0
C131 C 0.862 0.61027 0.72003 0.0
C132 C 0.80006 0.63196 0.57984 0.0
C133 C 0.7875 0.64659 0.56098 0.0
C134 C 0.80162 0.67122 0.5443 0.0
C135 C 0.76172 0.63646 0.55935 0.0
C136 C 0.7645 0.67542 0.52478 0.0
C137 C 0.75033 0.65072 0.54111 0.0
C138 C 0.79028 0.68555 0.52683 0.0
C139 C 0.83057 0.63566 0.87503 0.0
O140 O 0.79106 0.58242 0.87374 0.0
O141 O 0.77348 0.58904 0.74286 0.0
O142 O 0.85267 0.58603 0.95576 0.0
O143 O 0.81294 0.55599 0.92782 0.0
O144 O 0.82083 0.55574 0.73249 0.0
O145 O 0.79864 0.57211 0.71537 0.0
O146 O 0.84283 0.61078 0.67003 0.0
O147 O 0.86137 0.60368 0.79797 0.0
O148 O 0.78569 0.60817 0.58526 0.0
O149 O 0.82167 0.64342 0.63903 0.0
O150 O 0.81304 0.63709 0.82155 0.0
O151 O 0.83708 0.6229 0.83488 0.0
H152 H 0.85317 0.54601 0.86545 0.0
H153 H 0.83382 0.54062 0.11337 0.0
H154 H 0.8404 0.50507 0.12753 0.0
H155 H 0.85937 0.51033 0.87814 0.0
H156 H 0.82148 0.6794 0.54472 0.0
H157 H 0.75034 0.61756 0.57227 0.0
H158 H 0.73047 0.64251 0.5407 0.0
H159 H 0.80159 0.70441 0.51349 0.0
Gd160 Gd 0.19325 0.78523 0.28575 0.0
Gd161 Gd 0.23498 0.80739 0.1836 0.0
C162 C 0.23474 0.84483 0.32108 0.0
C163 C 0.1684 0.77445 0.40537 0.0
C164 C 0.14406 0.75727 0.42448 0.0
C165 C 0.12489 0.73572 0.36513 0.0
C166 C 0.13979 0.76324 0.50337 0.0
C167 C 0.09685 0.72687 0.46271 0.0
C168 C 0.11644 0.74816 0.52252 0.0
C169 C 0.1014 0.72054 0.38428 0.0
C170 C 0.17971 0.79507 0.12705 0.0
C171 C 0.19343 0.74603 0.15038 0.0
C172 C 0.26082 0.82074 0.06679 0.0
C173 C 0.27659 0.81372 0.02891 0.0
C174 C 0.29725 0.83236 0.00208 0.0
C175 C 0.27272 0.78938 0.0263 0.0
C176 C 0.31158 0.80319 0.97847 0.0
C177 C 0.29003 0.78411 0.00068 0.0
C178 C 0.31466 0.82718 0.97729 0.0
C179 C 0.24848 0.79589 0.33973 0.0
O180 O 0.22233 0.82481 0.35692 0.0
O181 O 0.2374 0.84235 0.24123 0.0
O182 O 0.18258 0.76527 0.39299 0.0
O183 O 0.16841 0.78994 0.35227 0.0
O184 O 0.16435 0.776 0.15896 0.0
O185 O 0.20046 0.8083 0.18279 0.0
O186 O 0.21174 0.76556 0.1256 0.0
O187 O 0.18414 0.74862 0.21587 0.0
O188 O 0.27022 0.83147 0.14864 0.0
O189 O 0.2364 0.80426 0.04844 0.0
O190 O 0.26424 0.8147 0.30828 0.0
O191 O 0.22757 0.78393 0.28473 0.0
H192 H 0.12796 0.73094 0.30372 0.0
H193 H 0.15444 0.77981 0.54986 0.0
H194 H 0.11367 0.75329 0.58404 0.0
H195 H 0.08659 0.70433 0.33678 0.0
H196 H 0.30048 0.85123 0.00359 0.0
H197 H 0.25693 0.77477 0.04728 0.0
H198 H 0.28733 0.76552 0.00295 0.0
H199 H 0.33099 0.84216 0.95984 0.0
Gd200 Gd 0.42413 0.20791 0.81656 0.0
Gd201 Gd 0.45364 0.25356 0.72899 0.0
C202 C 0.39251 0.22474 0.68584 0.0
C203 C 0.40382 0.17287 0.9073 0.0
C204 C 0.38422 0.14602 0.88032 0.0
C205 C 0.36605 0.13768 0.80042 0.0
C206 C 0.38597 0.12827 0.92783 0.0
C207 C 0.35313 0.09414 0.81215 0.0
C208 C 0.37054 0.10253 0.89411 0.0
C209 C 0.35057 0.11197 0.76684 0.0
C210 C 0.42611 0.19641 0.65257 0.0
C211 C 0.48572 0.23842 0.86313 0.0
C212 C 0.47395 0.28779 0.63552 0.0
C213 C 0.49666 0.31324 0.65668 0.0
C214 C 0.49561 0.333 0.6211 0.0
C215 C 0.5186 0.31846 0.7185 0.0
C216 C 0.53801 0.36319 0.71073 0.0
C217 C 0.53913 0.34316 0.74476 0.0
C218 C 0.51606 0.35777 0.64793 0.0
C219 C 0.44988 0.26506 0.88891 0.0
O220 O 0.39308 0.21488 0.75775 0.0
O221 O 0.41282 0.23631 0.65435 0.0
O222 O 0.42507 0.17916 0.88598 0.0
O223 O 0.39656 0.1891 0.89249 0.0
O224 O 0.40708 0.18272 0.68499 0.0
O225 O 0.44344 0.21398 0.71119 0.0
O226 O 0.48507 0.24824 0.79153 0.0
O227 O 0.46525 0.22619 0.89378 0.0
O228 O 0.45567 0.28509 0.67044 0.0
O229 O 0.47777 0.26892 0.63997 0.0
O230 O 0.46991 0.2787 0.86097 0.0
O231 O 0.43303 0.2471 0.83102 0.0
H232 H 0.36466 0.15108 0.76192 0.0
H233 H 0.40005 0.13437 0.98916 0.0
H234 H 0.37276 0.08923 0.93096 0.0
H235 H 0.33759 0.10618 0.70313 0.0
H236 H 0.47868 0.32936 0.57423 0.0
H237 H 0.51974 0.30354 0.74775 0.0
H238 H 0.55587 0.34652 0.79195 0.0
H239 H 0.51438 0.37272 0.62112 0.0
C240 C 0.36929 0.23664 0.56953 0.0
C241 C 0.36984 0.22582 0.64515 0.0
C242 C 0.35023 0.24189 0.53942 0.0
C243 C 0.30379 0.24562 0.47239 0.0
H244 H 0.2906 0.2774 0.65592 0.0
C245 C 0.24313 0.29687 0.52014 0.0
C246 C 0.25011 0.31328 0.45908 0.0
C247 C 0.25407 0.28218 0.53768 0.0
C248 C 0.29371 0.2682 0.60382 0.0
H249 H 0.34966 0.21022 0.74453 0.0
H250 H 0.31612 0.21903 0.69102 0.0
H251 H 0.31532 0.25748 0.69364 0.0
H252 H 0.27408 0.32701 0.36854 0.0
H253 H 0.29302 0.30132 0.39883 0.0
H254 H 0.28288 0.25723 0.38277 0.0
C255 C 0.33079 0.22398 0.65619 0.0
C256 C 0.30783 0.25669 0.62541 0.0
C257 C 0.34991 0.21874 0.68645 0.0
C258 C 0.26797 0.31431 0.41497 0.0
C259 C 0.27882 0.29956 0.43227 0.0
C260 C 0.28974 0.25724 0.45082 0.0
C261 C 0.33119 0.23636 0.584 0.0
C262 C 0.31346 0.24567 0.56006 0.0
C263 C 0.27215 0.28348 0.4943 0.0
C264 C 0.28495 0.26906 0.51639 0.0
H265 H 0.38425 0.24219 0.53568 0.0
H266 H 0.35128 0.25158 0.48399 0.0
H267 H 0.30743 0.23696 0.4204 0.0
H268 H 0.2291 0.29527 0.55416 0.0
H269 H 0.24833 0.26975 0.5851 0.0
C270 C 0.1234 0.38703 0.3749 0.0
C271 C 0.12276 0.39083 0.28799 0.0
C272 C 0.10175 0.3788 0.40645 0.0
C273 C 0.03748 0.37023 0.36086 0.0
H274 H 0.02315 0.3158 0.49361 0.0
C275 C 0.94848 0.32229 0.50192 0.0
C276 C 0.93537 0.29582 0.48758 0.0
C277 C 0.97238 0.33616 0.48432 0.0
C278 C 0.02687 0.33098 0.45662 0.0
H279 H 0.09912 0.38994 0.16708 0.0
H280 H 0.06109 0.37507 0.22186 0.0
H281 H 0.06284 0.33646 0.44904 0.0
H282 H 0.93731 0.26318 0.4461 0.0
H283 H 0.97872 0.28726 0.41483 0.0
H284 H 1.00094 0.36403 0.36625 0.0
C285 C 0.07847 0.37875 0.26583 0.0
C286 C 0.04975 0.34302 0.43186 0.0
C287 C 0.10022 0.38712 0.23426 0.0
C288 C 0.9468 0.28355 0.45681 0.0
C289 C 0.97066 0.29736 0.4398 0.0
C290 C 0.01454 0.35819 0.38592 0.0
C291 C 0.07888 0.37403 0.35181 0.0
C292 C 0.05521 0.36258 0.38277 0.0
C293 C 0.9837 0.3238 0.45305 0.0
C294 C 0.00884 0.33816 0.43285 0.0
H295 H 0.14053 0.39002 0.41856 0.0
H296 H 0.10284 0.37582 0.47349 0.0
H297 H 0.04125 0.3854 0.32378 0.0
H298 H 0.94005 0.33222 0.52523 0.0
H299 H 0.98208 0.35654 0.49564 0.0
C300 C 0.74741 0.11419 0.61653 0.0
C301 C 0.75964 0.13615 0.58046 0.0
C302 C 0.73715 0.09045 0.56692 0.0
C303 C 0.71448 0.05769 0.33925 0.0
H304 H 0.72093 0.00552 0.44477 0.0
C305 C 0.65609 0.95314 0.17641 0.0
C306 C 0.66789 0.93887 0.18546 0.0
C307 C 0.66858 0.97786 0.22067 0.0
C308 C 0.71919 0.01995 0.414 0.0
H309 H 0.77062 0.15036 0.46373 0.0
H310 H 0.75297 0.10907 0.37786 0.0
H311 H 0.74034 0.04726 0.53065 0.0
H312 H 0.70251 0.93981 0.24553 0.0
H313 H 0.72436 0.98304 0.32267 0.0
H314 H 0.69357 0.03047 0.22233 0.0
C315 C 0.75107 0.11014 0.44415 0.0
C316 C 0.73003 0.04379 0.4636 0.0
C317 C 0.76135 0.13384 0.4937 0.0
C318 C 0.69276 0.95017 0.23805 0.0
C319 C 0.70526 0.97492 0.28239 0.0
C320 C 0.70362 0.03385 0.28968 0.0
C321 C 0.73884 0.08815 0.4801 0.0
C322 C 0.7277 0.06291 0.42696 0.0
C323 C 0.69318 0.98894 0.27515 0.0
C324 C 0.70572 0.01465 0.32658 0.0
H325 H 0.7457 0.11529 0.68306 0.0
H326 H 0.72755 0.07388 0.59624 0.0
H327 H 0.71213 0.07192 0.30918 0.0
H328 H 0.63679 0.94491 0.13775 0.0
H329 H 0.65857 0.98798 0.21457 0.0
C330 C 0.72852 0.67954 0.44494 0.0
C331 C 0.75234 0.69046 0.50437 0.0
C332 C 0.71718 0.69372 0.42445 0.0
C333 C 0.71584 0.74903 0.50714 0.0
H334 H 0.68307 0.74252 0.26609 0.0
C335 C 0.63766 0.77258 0.39707 0.0
C336 C 0.63627 0.78192 0.31846 0.0
C337 C 0.6563 0.76666 0.42629 0.0
C338 C 0.69246 0.74488 0.33359 0.0
H339 H 0.78281 0.72468 0.58996 0.0
H340 H 0.76287 0.74951 0.55424 0.0
H341 H 0.70643 0.72111 0.3022 0.0
H342 H 0.65464 0.79432 0.21267 0.0
H343 H 0.68722 0.78409 0.26404 0.0
H344 H 0.7014 0.77246 0.53853 0.0
C345 C 0.75304 0.72998 0.52349 0.0
C346 C 0.70556 0.73235 0.35433 0.0
C347 C 0.76451 0.71583 0.5434 0.0
C348 C 0.65507 0.78702 0.27321 0.0
C349 C 0.67364 0.78099 0.30226 0.0
C350 C 0.70254 0.76145 0.48642 0.0
C351 C 0.72932 0.71909 0.46341 0.0
C352 C 0.71705 0.73395 0.44139 0.0
C353 C 0.67388 0.7699 0.3774 0.0
C354 C 0.69042 0.75923 0.39948 0.0
H355 H 0.71878 0.66009 0.41333 0.0
H356 H 0.69875 0.68473 0.37866 0.0
H357 H 0.72445 0.75053 0.57486 0.0
H358 H 0.62358 0.7686 0.43389 0.0
H359 H 0.65591 0.75809 0.48429 0.0
C360 C 0.06082 0.72468 0.51551 0.0
C361 C 0.07152 0.71211 0.48129 0.0
C362 C 0.03726 0.71116 0.53483 0.0
C363 C 0.99283 0.65019 0.58705 0.0
H364 H 0.94551 0.67339 0.531 0.0
C365 C 0.90704 0.62059 0.73963 0.0
C366 C 0.88471 0.61747 0.68638 0.0
C367 C 0.92891 0.6292 0.70853 0.0
C368 C 0.95833 0.66643 0.54626 0.0
H369 H 0.06586 0.67545 0.44019 0.0
H370 H 0.02432 0.65164 0.47368 0.0
H371 H 0.98505 0.69389 0.48552 0.0
H372 H 0.86748 0.61973 0.55744 0.0
H373 H 0.90527 0.63423 0.50303 0.0
H374 H 0.96594 0.62268 0.64796 0.0
C375 C 0.03437 0.67203 0.48597 0.0
C376 C 0.98114 0.67838 0.521 0.0
C377 C 0.058 0.68563 0.46611 0.0
C378 C 0.88441 0.62215 0.60048 0.0
C379 C 0.90614 0.6306 0.56935 0.0
C380 C 0.96996 0.63823 0.61263 0.0
C381 C 0.02376 0.6847 0.52042 0.0
C382 C 0.99879 0.67063 0.54204 0.0
C383 C 0.92881 0.63476 0.62354 0.0
C384 C 0.95256 0.64637 0.59309 0.0
H385 H 0.07062 0.74507 0.52695 0.0
H386 H 0.02974 0.72148 0.56222 0.0
H387 H 0.00614 0.6439 0.60462 0.0
H388 H 0.90788 0.61709 0.80607 0.0
H389 H 0.94613 0.63239 0.75212 0.0
C390 C 0.25997 0.89196 0.33701 0.0
C391 C 0.24595 0.87024 0.37195 0.0
C392 C 0.27085 0.9159 0.38594 0.0
C393 C 0.26631 0.94983 0.57265 0.0
H394 H 0.33547 1.00049 0.57481 0.0
C395 C 0.31389 0.05513 0.72273 0.0
C396 C 0.33938 0.06728 0.77036 0.0
C397 C 0.30179 0.03057 0.67713 0.0
C398 C 0.3162 0.9865 0.57534 0.0
H399 H 0.23233 0.85667 0.48582 0.0
H400 H 0.2513 0.89841 0.57084 0.0
H401 H 0.31575 0.95876 0.48834 0.0
H402 H 0.37202 0.063 0.80813 0.0
H403 H 0.35082 0.02011 0.72959 0.0
H404 H 0.26688 0.97759 0.66032 0.0
C405 C 0.25368 0.89692 0.50536 0.0
C406 C 0.30481 0.96269 0.52503 0.0
C407 C 0.24292 0.873 0.45667 0.0
C408 C 0.35229 0.0541 0.77295 0.0
C409 C 0.34025 0.02964 0.72703 0.0
C410 C 0.27766 0.97373 0.62259 0.0
C411 C 0.26785 0.91865 0.47068 0.0
C412 C 0.27976 0.94406 0.52326 0.0
C413 C 0.31498 0.01771 0.67766 0.0
C414 C 0.30277 0.99229 0.62475 0.0
H415 H 0.26265 0.89052 0.27196 0.0
H416 H 0.28145 0.9323 0.3571 0.0
H417 H 0.2469 0.93593 0.57205 0.0
H418 H 0.3034 0.06474 0.71991 0.0
H419 H 0.28234 0.02193 0.63933 0.0
C420 C 0.19811 0.7156 0.05683 0.0
C421 C 0.18435 0.72018 0.10815 0.0
C422 C 0.19109 0.69089 0.02606 0.0
C423 C 0.15716 0.62731 0.08207 0.0
H424 H 0.16559 0.60618 0.86297 0.0
C425 C 0.13459 0.52638 0.98893 0.0
C426 C 0.15333 0.52432 0.959 0.0
C427 C 0.13497 0.54911 -0.00595 0.0
C428 C 0.16321 0.61185 0.92447 0.0
H429 H 0.15135 0.70243 0.16191 0.0
H430 H 0.13886 0.65955 0.10686 0.0
H431 H 0.17234 0.64835 0.89497 0.0
H432 H 0.18667 0.54436 0.90831 0.0
H433 H 0.18731 0.58394 0.91718 0.0
H434 H 0.14849 0.59114 0.11248 0.0
C435 C 0.15552 0.67496 0.09255 0.0
C436 C 0.16711 0.63601 0.94287 0.0
C437 C 0.16263 0.69959 0.1238 0.0
C438 C 0.17177 0.54519 0.93066 0.0
C439 C 0.17215 0.56791 0.93576 0.0
C440 C 0.1532 0.60322 0.06361 0.0
C441 C 0.17007 0.67027 0.04545 0.0
C442 C 0.16436 0.64411 0.02233 0.0
C443 C 0.1541 0.5703 0.96941 0.0
C444 C 0.15642 0.59526 0.98504 0.0
H445 H 0.21491 0.73104 0.04342 0.0
H446 H 0.20283 0.688 -0.00956 0.0
H447 H 0.1554 0.63304 0.1447 0.0
H448 H 0.11987 0.51053 0.00981 0.0
H449 H 0.12053 0.55021 0.01879 0.0
C450 C 0.53087 0.2521 0.87005 0.0
C451 C 0.50948 0.23927 0.90427 0.0
C452 C 0.55181 0.24943 0.8964 0.0
C453 C 0.58817 0.23336 0.05657 0.0
H454 H 0.59781 0.20349 0.85737 0.0
C455 C 0.67799 0.2283 0.03696 0.0
C456 C 0.67309 0.20492 -0.00179 0.0
C457 C 0.65791 0.23203 0.04113 0.0
C458 C 0.59526 0.21169 0.91368 0.0
H459 H 0.49428 0.2152 -0.00158 0.0
H460 H 0.53144 0.21089 0.04559 0.0
H461 H 0.56378 0.21268 0.83771 0.0
H462 H 0.64338 0.16697 0.93574 0.0
H463 H 0.60848 0.17362 0.9421 0.0
H464 H 0.62036 0.233 0.13196 0.0
C465 C 0.53162 0.2228 -0.00229 0.0
C466 C 0.57592 0.21706 0.90234 0.0
C467 C 0.51039 0.22526 0.97059 0.0
C468 C 0.64777 0.18511 0.96679 0.0
C469 C 0.62779 0.18894 0.96991 0.0
C470 C 0.60797 0.22841 0.06771 0.0
C471 C 0.55205 0.23417 0.95839 0.0
C472 C 0.57224 0.228 0.97345 0.0
C473 C 0.63267 0.21256 0.00536 0.0
C474 C 0.6116 0.21747 -0.00381 0.0
H475 H 0.53104 0.26332 0.81967 0.0
H476 H 0.56748 0.25854 0.8658 0.0
H477 H 0.58564 0.24185 0.11219 0.0
H478 H 0.69732 0.24384 0.06207 0.0
H479 H 0.66213 0.25046 0.06833 0.0
C480 C 0.43275 0.60953 0.14007 0.0
C481 C 0.44665 0.61784 0.22776 0.0
C482 C 0.41176 0.58509 0.11276 0.0
C483 C 0.38016 0.52176 0.17282 0.0
H484 H 0.31792 0.51769 0.05364 0.0
C485 C 0.28203 0.44495 0.19756 0.0
C486 C 0.26034 0.43899 0.13269 0.0
C487 C 0.30619 0.46254 0.18927 0.0
C488 C 0.33515 0.51818 0.08467 0.0
H489 H 0.44952 0.6066 0.35496 0.0
H490 H 0.41316 0.56389 0.30685 0.0
H491 H 0.35805 0.55728 0.07797 0.0
H492 H 0.24717 0.44459 0.00357 0.0
H493 H 0.28947 0.47487 0.98813 0.0
H494 H 0.35722 0.48278 0.18112 0.0
C495 C 0.41867 0.5763 0.25924 0.0
C496 C 0.35818 0.54099 0.09901 0.0
C497 C 0.43951 0.60081 0.28678 0.0
C498 C 0.26348 0.44909 0.05545 0.0
C499 C 0.28773 0.46659 0.04685 0.0
C500 C 0.35714 0.49883 0.15762 0.0
C501 C 0.40437 0.56832 0.17225 0.0
C502 C 0.38078 0.54322 0.14571 0.0
C503 C 0.30928 0.47441 0.11548 0.0
C504 C 0.33421 0.49699 0.11606 0.0
H505 H 0.43804 0.62192 0.09233 0.0
H506 H 0.4012 0.57935 0.04515 0.0
H507 H 0.3974 0.52288 0.20777 0.0
H508 H 0.28036 0.4374 0.2577 0.0
H509 H 0.32222 0.46811 0.2438 0.0
C510 C 0.87009 0.47927 0.97695 0.0
C511 C 0.85138 0.48143 0.00665 0.0
C512 C 0.86932 0.45636 0.97028 0.0
C513 C 0.84 0.39307 0.03541 0.0
H514 H 0.84859 0.3728 0.81536 0.0
C515 C 0.80548 0.28963 0.89907 0.0
C516 C 0.81957 0.28536 0.84849 0.0
C517 C 0.81229 0.31424 0.93045 0.0
C518 C 0.84659 0.37826 0.87792 0.0
H519 H 0.81764 0.46134 0.05528 0.0
H520 H 0.81634 0.42143 0.04376 0.0
H521 H 0.85567 0.41471 0.84954 0.0
H522 H 0.8529 0.30352 0.7966 0.0
H523 H 0.86503 0.34621 0.85273 0.0
H524 H 0.8305 0.35631 0.06293 0.0
C525 C 0.83177 0.43752 0.02651 0.0
C526 C 0.85065 0.40236 0.8975 0.0
C527 C 0.83253 0.46044 0.03315 0.0
C528 C 0.84137 0.30614 0.83411 0.0
C529 C 0.84828 0.33065 0.86598 0.0
C530 C 0.836 0.3689 0.01589 0.0
C531 C 0.84982 0.43507 -0.00688 0.0
C532 C 0.8472 0.41 0.97608 0.0
C533 C 0.83344 0.33505 0.91243 0.0
C534 C 0.83905 0.36114 0.93651 0.0
H535 H 0.88512 0.49521 0.95748 0.0
H536 H 0.88378 0.45521 0.94582 0.0
H537 H 0.83742 0.39849 0.09688 0.0
H538 H 0.78859 0.27403 0.91145 0.0
H539 H 0.80034 0.31691 0.96554 0.0
C540 C 0.35729 0.81614 0.01338 0.0
C541 C 0.33218 0.79894 0.96658 0.0
C542 C 0.37654 0.81114 0.01085 0.0
C543 C 0.39825 0.77761 0.89327 0.0
H544 H 0.43198 0.77604 0.12285 0.0
C545 C 0.49474 0.78025 -0.00793 0.0
C546 C 0.4954 0.76417 0.0507 0.0
C547 C 0.4728 0.78152 0.96523 0.0
C548 C 0.42265 0.77626 0.05824 0.0
H549 H 0.3077 0.7636 0.87736 0.0
H550 H 0.34178 0.75505 0.87176 0.0
H551 H 0.39818 0.78544 0.10755 0.0
H552 H 0.4728 0.73505 0.12006 0.0
H553 H 0.4349 0.73748 0.07384 0.0
H554 H 0.42343 0.76904 0.84457 0.0
C555 C 0.34634 0.7723 0.91057 0.0
C556 C 0.40346 0.7818 0.04963 0.0
C557 C 0.3269 0.77711 0.91421 0.0
C558 C 0.47312 0.74797 0.0761 0.0
C559 C 0.45137 0.74932 0.04967 0.0
C560 C 0.41792 0.7725 0.90209 0.0
C561 C 0.37118 0.78903 0.96058 0.0
C562 C 0.39112 0.78258 0.96728 0.0
C563 C 0.45131 0.76678 -0.00313 0.0
C564 C 0.43018 0.77167 0.98479 0.0
H565 H 0.36188 0.83296 0.05507 0.0
H566 H 0.39558 0.8243 0.04993 0.0
H567 H 0.38897 0.77819 0.82914 0.0
H568 H 0.51157 0.79293 0.9712 0.0
H569 H 0.4732 0.79516 0.92449 0.0
C570 C 0.72461 0.56202 0.77241 0.0
C571 C 0.74626 0.56794 0.8374 0.0
C572 C 0.70042 0.54451 0.78068 0.0
C573 C 0.67123 0.48894 0.88532 0.0
H574 H 0.60914 0.48459 0.76237 0.0
C575 C 0.57346 0.39775 0.82885 0.0
C576 C 0.55959 0.38958 0.74111 0.0
C577 C 0.59449 0.42215 0.85653 0.0
C578 C 0.62634 0.48561 0.79729 0.0
H579 H 0.75934 0.56234 0.96664 0.0
H580 H 0.717 0.53218 0.98201 0.0
H581 H 0.64943 0.52457 0.78911 0.0
H582 H 0.55681 0.40102 0.61425 0.0
H583 H 0.59324 0.44367 0.663 0.0
H584 H 0.64818 0.44985 0.8918 0.0
C585 C 0.71879 0.54044 0.92325 0.0
C586 C 0.64941 0.50847 0.81254 0.0
C587 C 0.74306 0.55786 0.91467 0.0
C588 C 0.5668 0.40671 0.68245 0.0
C589 C 0.58768 0.43118 0.71036 0.0
C590 C 0.64814 0.46619 0.87089 0.0
C591 C 0.69726 0.53268 0.85456 0.0
C592 C 0.67228 0.51019 0.85402 0.0
C593 C 0.60194 0.43903 0.79738 0.0
C594 C 0.62559 0.46408 0.82423 0.0
H595 H 0.72633 0.56956 0.71225 0.0
H596 H 0.68441 0.53897 0.72611 0.0
H597 H 0.68841 0.48934 0.91631 0.0
H598 H 0.56812 0.38528 0.87631 0.0
H599 H 0.60502 0.4278 0.92416 0.0
C600 C 0.19394 0.37232 0.97018 0.0
C601 C 0.17389 0.37013 0.00357 0.0
C602 C 0.19633 0.37975 0.88925 0.0
C603 C 0.1809 0.41888 0.75895 0.0
H604 H 0.20669 0.39826 0.58788 0.0
C605 C 0.18646 0.45034 0.42359 0.0
C606 C 0.20599 0.45166 0.389 0.0
C607 C 0.18451 0.44364 0.50568 0.0
C608 C 0.19991 0.40449 0.63605 0.0
H609 H 0.13885 0.37037 0.97535 0.0
H610 H 0.1427 0.38285 0.83285 0.0
H611 H 0.196 0.37494 0.70772 0.0
H612 H 0.24079 0.45097 0.41611 0.0
H613 H 0.2378 0.43991 0.56067 0.0
H614 H 0.18482 0.44845 0.68728 0.0
C615 C 0.15698 0.3797 0.8701 0.0
C616 C 0.19358 0.391 0.70401 0.0
C617 C 0.15466 0.37237 0.95101 0.0
C618 C 0.22535 0.4496 0.44144 0.0
C619 C 0.22351 0.44307 0.52354 0.0
C620 C 0.18725 0.4324 0.69102 0.0
C621 C 0.17855 0.38479 0.84082 0.0
C622 C 0.18397 0.39804 0.7659 0.0
C623 C 0.20225 0.43852 0.55394 0.0
C624 C 0.19688 0.42536 0.62913 0.0
H625 H 0.20903 0.3707 0.00979 0.0
H626 H 0.21312 0.38351 0.86804 0.0
H627 H 0.17403 0.42503 0.80702 0.0
H628 H 0.17131 0.45187 0.38403 0.0
H629 H 0.16795 0.44032 0.5277 0.0
C630 C 0.74329 0.18786 0.46354 0.0
C631 C 0.75443 0.2103 0.52267 0.0
C632 C 0.74959 0.18839 0.38349 0.0
C633 C 0.80468 0.2275 0.29939 0.0
H634 H 0.76309 0.18224 0.0813 0.0
C635 C 0.83649 0.2335 0.97812 0.0
C636 C 0.82603 0.21077 0.92124 0.0
C637 C 0.82992 0.23336 0.05751 0.0
C638 C 0.775 0.19475 0.1423 0.0
H639 H 0.77788 0.25093 0.54167 0.0
H640 H 0.78792 0.25203 0.40018 0.0
H641 H 0.74321 0.1832 0.19823 0.0
H642 H 0.80317 0.17014 0.90542 0.0
H643 H 0.79248 0.1698 0.0457 0.0
H644 H 0.83646 0.23908 0.24336 0.0
C645 C 0.77522 0.23399 0.41652 0.0
C646 C 0.76357 0.19539 0.20892 0.0
C647 C 0.76923 0.23341 0.49683 0.0
C648 C 0.81136 0.18787 0.94857 0.0
C649 C 0.80503 0.1877 0.02817 0.0
C650 C 0.8161 0.22689 0.23272 0.0
C651 C 0.76675 0.21142 0.36157 0.0
C652 C 0.7783 0.21176 0.28819 0.0
C653 C 0.81304 0.21048 0.08091 0.0
C654 C 0.80138 0.21044 0.15367 0.0
H655 H 0.73194 0.16981 0.4826 0.0
H656 H 0.74275 0.17068 0.34242 0.0
H657 H 0.81662 0.23995 0.36048 0.0
H658 H 0.84769 0.2514 0.95789 0.0
H659 H 0.83638 0.2512 0.09696 0.0
C660 C 0.58658 0.74242 -0.00674 0.0
C661 C 0.56156 0.73462 -0.00422 0.0
C662 C 0.59283 0.74265 0.91372 0.0
C663 C 0.56681 0.73297 0.67459 0.0
H664 H 0.61708 0.80436 0.70755 0.0
C665 C 0.5598 0.79234 0.42638 0.0
C666 C 0.58159 0.80761 0.39782 0.0
C667 C 0.56163 0.78152 0.49992 0.0
C668 C 0.60343 0.78432 0.69708 0.0
H669 H 0.52283 0.71791 0.92021 0.0
H670 H 0.53379 0.71953 0.78028 0.0
H671 H 0.61289 0.78252 0.83141 0.0
H672 H 0.6227 0.82648 0.42859 0.0
H673 H 0.62594 0.80773 0.55881 0.0
H674 H 0.55634 0.73547 0.54065 0.0
C675 C 0.5486 0.72492 0.83901 0.0
C676 C 0.60113 0.77165 0.7678 0.0
C677 C 0.54227 0.72418 0.9189 0.0
C678 C 0.6056 0.81464 0.44959 0.0
C679 C 0.60745 0.80369 0.52323 0.0
C680 C 0.5691 0.74568 0.60382 0.0
C681 C 0.57422 0.73586 0.83615 0.0
C682 C 0.58187 0.7462 0.75805 0.0
C683 C 0.58531 0.78601 0.54583 0.0
C684 C 0.5865 0.77172 0.61582 0.0
H685 H 0.60163 0.75001 0.05264 0.0
H686 H 0.61259 0.75057 0.91315 0.0
H687 H 0.55211 0.71328 0.66518 0.0
H688 H 0.54116 0.78709 0.3878 0.0
H689 H 0.54439 0.76868 0.51845 0.0
C690 C 0.82121 0.5557 0.55034 0.0
C691 C 0.80187 0.55542 0.58341 0.0
C692 C 0.82335 0.56139 0.46729 0.0
C693 C 0.83632 0.59925 0.34516 0.0
H694 H 0.78215 0.58065 0.13957 0.0
C695 C 0.81226 0.63398 0.0019 0.0
C696 C 0.83242 0.6365 0.96857 0.0
C697 C 0.80966 0.62595 0.08188 0.0
C698 C 0.79737 0.58631 0.19725 0.0
H699 H 0.7677 0.55721 0.55337 0.0
H700 H 0.77136 0.5672 0.40832 0.0
H701 H 0.77325 0.5569 0.25936 0.0
H702 H 0.86744 0.63622 -0.00393 0.0
H703 H 0.86299 0.62219 0.13565 0.0
H704 H 0.86035 0.6289 0.28396 0.0
C705 C 0.78501 0.5633 0.44603 0.0
C706 C 0.79233 0.57253 0.26515 0.0
C707 C 0.78295 0.55771 0.52907 0.0
C708 C 0.85158 0.63406 0.02053 0.0
C709 C 0.84903 0.62606 0.10038 0.0
C710 C 0.84133 0.61311 0.27756 0.0
C711 C 0.80602 0.56659 0.41649 0.0
C712 C 0.81173 0.57899 0.33996 0.0
C713 C 0.82733 0.62062 0.12939 0.0
C714 C 0.82186 0.60689 0.20326 0.0
H715 H 0.83598 0.55387 0.59124 0.0
H716 H 0.83946 0.56338 0.44517 0.0
H717 H 0.85156 0.60493 0.40263 0.0
H718 H 0.79729 0.63588 0.96293 0.0
H719 H 0.79308 0.62248 0.10405 0.0
C720 C 0.26118 0.81735 0.49218 0.0
C721 C 0.25017 0.79503 0.43259 0.0
C722 C 0.25499 0.81655 0.57248 0.0
C723 C 0.20025 0.77686 0.65711 0.0
H724 H 0.24183 0.82234 0.8748 0.0
C725 C 0.16827 0.77182 0.97826 0.0
C726 C 0.17872 0.79473 0.03406 0.0
C727 C 0.17491 0.77161 0.89916 0.0
C728 C 0.22992 0.80975 0.81392 0.0
H729 H 0.227 0.75436 0.41273 0.0
H730 H 0.21715 0.75281 0.55467 0.0
H731 H 0.26167 0.82141 0.75775 0.0
H732 H 0.20163 0.83533 0.04808 0.0
H733 H 0.2124 0.83504 0.90825 0.0
H734 H 0.16848 0.76524 0.7133 0.0
C735 C 0.22969 0.77095 0.53857 0.0
C736 C 0.24133 0.80913 0.74725 0.0
C737 C 0.23557 0.77179 0.458 0.0
C738 C 0.19343 0.81746 0.00578 0.0
C739 C 0.19982 0.81727 0.92646 0.0
C740 C 0.18884 0.77746 0.72384 0.0
C741 C 0.23806 0.79337 0.59419 0.0
C742 C 0.22659 0.79276 0.66801 0.0
C743 C 0.19185 0.79432 0.87497 0.0
C744 C 0.20354 0.79406 0.80262 0.0
H745 H 0.27236 0.83549 0.47339 0.0
H746 H 0.26174 0.83416 0.61402 0.0
H747 H 0.1883 0.76436 0.5961 0.0
H748 H 0.15704 0.75406 -0.00075 0.0
H749 H 0.16846 0.75364 0.86061 0.0
C750 C 0.44456 0.21531 0.53288 0.0
C751 C 0.42286 0.19985 0.56164 0.0
C752 C 0.44264 0.22669 0.46093 0.0
C753 C 0.40071 0.22463 0.26617 0.0
H754 H 0.45336 0.29516 0.29744 0.0
C755 C 0.41997 0.26508 0.96941 0.0
C756 C 0.44491 0.27199 0.96878 0.0
C757 C 0.41341 0.26559 0.04803 0.0
C758 C 0.43826 0.27564 0.28821 0.0
H759 H 0.3818 0.18134 0.53266 0.0
H760 H 0.3784 0.20103 0.40499 0.0
H761 H 0.44839 0.27312 0.42236 0.0
H762 H 0.48326 0.28784 0.04662 0.0
H763 H 0.47169 0.28745 0.18505 0.0
H764 H 0.39163 0.22636 0.13163 0.0
C765 C 0.39689 0.2048 0.43936 0.0
C766 C 0.43554 0.26301 0.35923 0.0
C767 C 0.39882 0.1933 0.51145 0.0
C768 C 0.46388 0.28224 0.04646 0.0
C769 C 0.45722 0.28223 0.12548 0.0
C770 C 0.40343 0.23721 0.19521 0.0
C771 C 0.41897 0.22258 0.41668 0.0
C772 C 0.41775 0.23707 0.34736 0.0
C773 C 0.43157 0.2722 0.12669 0.0
C774 C 0.42324 0.26242 0.20468 0.0
H775 H 0.46321 0.22022 0.57019 0.0
H776 H 0.45983 0.23956 0.44218 0.0
H777 H 0.38675 0.20467 0.25576 0.0
H778 H 0.40518 0.25768 0.90937 0.0
H779 H 0.39366 0.25836 0.04724 0.0
loop_
_geom_bond_atom_site_label_1
_geom_bond_atom_site_label_2
_geom_bond_distance
_geom_bond_site_symmetry_2
_ccdc_geom_bond_type
Gd0 C3 2.818 . S
Gd0 O20 2.377 1_554 S
Gd0 O22 2.448 1_554 S
Gd0 O23 2.506 . S
Gd0 O24 2.435 1_554 S
Gd0 O25 2.717 1_554 S
Gd0 O27 2.395 1_554 S
Gd0 O31 2.327 . S
Gd1 C12 2.818 . S
Gd1 O21 2.395 1_556 S
Gd1 O25 2.327 . S
Gd1 O26 2.377 1_556 S
Gd1 O28 2.448 1_556 S
Gd1 O29 2.506 . S
Gd1 O30 2.435 1_556 S
Gd1 O31 2.717 1_556 S
C2 O20 1.240 1_554 S
C2 O21 1.240 . S
C3 Gd0 2.818 . S
C3 C4 1.510 . S
C3 O22 1.249 1_554 S
C3 O23 1.252 . S
C4 C3 1.510 . S
C4 C5 1.404 . S
C4 C6 1.352 . S
C5 C4 1.404 . S
C5 C9 1.389 . S
C5 H32 0.930 1_554 S
C6 C4 1.352 . S
C6 C8 1.374 . S
C6 H33 0.931 . S
C7 C8 1.359 . S
C7 C9 1.364 . S
C8 C6 1.374 . S
C8 C7 1.359 . S
C8 H34 0.931 . S
C9 C5 1.389 . S
C9 C7 1.364 . S
C9 H35 0.931 . S
C10 O24 1.256 . S
C10 O25 1.257 . S
C11 O26 1.240 1_556 S
C11 O27 1.240 . S
C12 Gd1 2.818 . S
C12 C13 1.510 . S
C12 O28 1.249 1_556 S
C12 O29 1.252 . S
C13 C12 1.510 . S
C13 C14 1.404 . S
C13 C15 1.352 . S
C14 C13 1.404 . S
C14 C18 1.389 . S
C14 H36 0.930 1_556 S
C15 C13 1.352 . S
C15 C17 1.374 . S
C15 H37 0.931 . S
C16 C17 1.359 . S
C16 C18 1.364 . S
C17 C15 1.374 . S
C17 C16 1.359 . S
C17 H38 0.931 . S
C18 C14 1.389 . S
C18 C16 1.364 . S
C18 H39 0.931 . S
C19 O30 1.256 . S
C19 O31 1.257 . S
O20 Gd0 2.377 1_556 S
O20 C2 1.240 1_556 S
O21 Gd1 2.395 1_554 S
O21 C2 1.240 . S
O22 Gd0 2.448 1_556 S
O22 C3 1.249 1_556 S
O23 Gd0 2.506 . S
O23 C3 1.252 . S
O24 Gd0 2.435 1_556 S
O24 C10 1.256 . S
O25 Gd0 2.717 1_556 S
O25 Gd1 2.327 . S
O25 C10 1.257 . S
O26 Gd1 2.377 1_554 S
O26 C11 1.240 1_554 S
O27 Gd0 2.395 1_556 S
O27 C11 1.240 . S
O28 Gd1 2.448 1_554 S
O28 C12 1.249 1_554 S
O29 Gd1 2.506 . S
O29 C12 1.252 . S
O30 Gd1 2.435 1_554 S
O30 C19 1.256 . S
O31 Gd0 2.327 . S
O31 Gd1 2.717 1_554 S
O31 C19 1.257 . S
H32 C5 0.930 1_556 S
H33 C6 0.931 . S
H34 C8 0.931 . S
H35 C9 0.931 . S
H36 C14 0.930 1_554 S
H37 C15 0.931 . S
H38 C17 0.931 . S
H39 C18 0.931 . S
Gd40 C43 2.818 . S
Gd40 O60 2.377 . S
Gd40 O62 2.448 . S
Gd40 O63 2.506 1_556 S
Gd40 O64 2.435 . S
Gd40 O65 2.717 . S
Gd40 O67 2.395 . S
Gd40 O71 2.327 1_556 S
Gd41 C52 2.818 . S
Gd41 O61 2.395 1_556 S
Gd41 O65 2.327 . S
Gd41 O66 2.377 . S
Gd41 O68 2.448 1_556 S
Gd41 O69 2.506 . S
Gd41 O70 2.435 1_556 S
Gd41 O71 2.717 1_556 S
C42 O60 1.240 1_554 S
C42 O61 1.240 . S
C43 Gd40 2.818 . S
C43 C44 1.510 1_556 S
C43 O62 1.249 . S
C43 O63 1.252 1_556 S
C44 C43 1.510 1_554 S
C44 C45 1.404 1_554 S
C44 C46 1.352 . S
C45 C44 1.404 1_556 S
C45 C49 1.389 . S
C45 H72 0.930 . S
C46 C44 1.352 . S
C46 C48 1.374 . S
C46 H73 0.931 . S
C47 C48 1.359 . S
C47 C49 1.364 1_554 S
C48 C46 1.374 . S
C48 C47 1.359 . S
C48 H74 0.931 . S
C49 C45 1.389 . S
C49 C47 1.364 1_556 S
C49 H75 0.931 . S
C50 O64 1.256 . S
C50 O65 1.257 . S
C51 O66 1.240 . S
C51 O67 1.240 . S
C52 Gd41 2.818 . S
C52 C53 1.510 . S
C52 O68 1.249 1_556 S
C52 O69 1.252 . S
C53 C52 1.510 . S
C53 C54 1.404 . S
C53 C55 1.352 . S
C54 C53 1.404 . S
C54 C58 1.389 . S
C54 H76 0.930 1_556 S
C55 C53 1.352 . S
C55 C57 1.374 . S
C55 H77 0.931 . S
C56 C57 1.359 . S
C56 C58 1.364 . S
C57 C55 1.374 . S
C57 C56 1.359 . S
C57 H78 0.931 . S
C58 C54 1.389 . S
C58 C56 1.364 . S
C58 H79 0.931 1_556 S
C59 O70 1.256 . S
C59 O71 1.257 . S
O60 Gd40 2.377 . S
O60 C42 1.240 1_556 S
O61 Gd41 2.395 1_554 S
O61 C42 1.240 . S
O62 Gd40 2.448 . S
O62 C43 1.249 . S
O63 Gd40 2.506 1_554 S
O63 C43 1.252 1_554 S
O64 Gd40 2.435 . S
O64 C50 1.256 . S
O65 Gd40 2.717 . S
O65 Gd41 2.327 . S
O65 C50 1.257 . S
O66 Gd41 2.377 . S
O66 C51 1.240 . S
O67 Gd40 2.395 . S
O67 C51 1.240 . S
O68 Gd41 2.448 1_554 S
O68 C52 1.249 1_554 S
O69 Gd41 2.506 . S
O69 C52 1.252 . S
O70 Gd41 2.435 1_554 S
O70 C59 1.256 . S
O71 Gd40 2.327 1_554 S
O71 Gd41 2.717 1_554 S
O71 C59 1.257 . S
H72 C45 0.930 . S
H73 C46 0.931 . S
H74 C48 0.931 . S
H75 C49 0.931 . S
H76 C54 0.930 1_554 S
H77 C55 0.931 . S
H78 C57 0.931 . S
H79 C58 0.931 1_554 S
Gd80 C83 2.818 . S
Gd80 O100 2.377 . S
Gd80 O102 2.448 . S
Gd80 O103 2.506 1_556 S
Gd80 O104 2.435 . S
Gd80 O105 2.717 . S
Gd80 O107 2.395 1_556 S
Gd80 O111 2.327 1_556 S
Gd81 C92 2.818 . S
Gd81 O101 2.395 . S
Gd81 O105 2.327 1_554 S
Gd81 O106 2.377 . S
Gd81 O108 2.448 . S
Gd81 O109 2.506 . S
Gd81 O110 2.435 . S
Gd81 O111 2.717 . S
C82 O100 1.240 . S
C82 O101 1.240 1_556 S
C83 Gd80 2.818 . S
C83 C84 1.510 . S
C83 O102 1.249 . S
C83 O103 1.252 1_556 S
C84 C83 1.510 . S
C84 C85 1.404 . S
C84 C86 1.352 . S
C85 C84 1.404 . S
C85 C89 1.389 . S
C85 H112 0.930 . S
C86 C84 1.352 . S
C86 C88 1.374 . S
C86 H113 0.931 1_556 S
C87 C88 1.359 . S
C87 C89 1.364 . S
C88 C86 1.374 . S
C88 C87 1.359 . S
C88 H114 0.931 1_556 S
C89 C85 1.389 . S
C89 C87 1.364 . S
C89 H115 0.931 . S
C90 O104 1.256 . S
C90 O105 1.257 . S
C91 O106 1.240 . S
C91 O107 1.240 . S
C92 Gd81 2.818 . S
C92 C93 1.510 . S
C92 O108 1.249 . S
C92 O109 1.252 . S
C93 C92 1.510 . S
C93 C94 1.404 . S
C93 C95 1.352 . S
C94 C93 1.404 . S
C94 C98 1.389 . S
C94 H116 0.930 . S
C95 C93 1.352 . S
C95 C97 1.374 . S
C95 H117 0.931 1_554 S
C96 C97 1.359 . S
C96 C98 1.364 . S
C97 C95 1.374 . S
C97 C96 1.359 . S
C97 H118 0.931 . S
C98 C94 1.389 . S
C98 C96 1.364 . S
C98 H119 0.931 . S
C99 O110 1.256 . S
C99 O111 1.257 . S
O100 Gd80 2.377 . S
O100 C82 1.240 . S
O101 Gd81 2.395 . S
O101 C82 1.240 1_554 S
O102 Gd80 2.448 . S
O102 C83 1.249 . S
O103 Gd80 2.506 1_554 S
O103 C83 1.252 1_554 S
O104 Gd80 2.435 . S
O104 C90 1.256 . S
O105 Gd80 2.717 . S
O105 Gd81 2.327 1_556 S
O105 C90 1.257 . S
O106 Gd81 2.377 . S
O106 C91 1.240 . S
O107 Gd80 2.395 1_554 S
O107 C91 1.240 . S
O108 Gd81 2.448 . S
O108 C92 1.249 . S
O109 Gd81 2.506 . S
O109 C92 1.252 . S
O110 Gd81 2.435 . S
O110 C99 1.256 . S
O111 Gd80 2.327 1_554 S
O111 Gd81 2.717 . S
O111 C99 1.257 . S
H112 C85 0.930 . S
H113 C86 0.931 1_554 S
H114 C88 0.931 1_554 S
H115 C89 0.931 . S
H116 C94 0.930 . S
H117 C95 0.931 1_556 S
H118 C97 0.931 . S
H119 C98 0.931 . S
Gd120 C123 2.818 1_556 S
Gd120 O140 2.377 . S
Gd120 O142 2.448 . S
Gd120 O143 2.506 1_556 S
Gd120 O144 2.435 . S
Gd120 O145 2.717 . S
Gd120 O147 2.395 . S
Gd120 O151 2.327 1_556 S
Gd121 C132 2.818 . S
Gd121 O141 2.395 . S
Gd121 O145 2.327 . S
Gd121 O146 2.377 . S
Gd121 O148 2.448 . S
Gd121 O149 2.506 . S
Gd121 O150 2.435 1_556 S
Gd121 O151 2.717 1_556 S
C122 O140 1.240 . S
C122 O141 1.240 . S
C123 Gd120 2.818 1_554 S
C123 C124 1.510 . S
C123 O142 1.249 1_554 S
C123 O143 1.252 . S
C124 C123 1.510 . S
C124 C125 1.404 . S
C124 C126 1.352 . S
C125 C124 1.404 . S
C125 C129 1.389 . S
C125 H152 0.930 1_554 S
C126 C124 1.352 . S
C126 C128 1.374 . S
C126 H153 0.931 . S
C127 C128 1.359 . S
C127 C129 1.364 . S
C128 C126 1.374 . S
C128 C127 1.359 . S
C128 H154 0.931 . S
C129 C125 1.389 . S
C129 C127 1.364 . S
C129 H155 0.931 . S
C130 O144 1.256 . S
C130 O145 1.257 . S
C131 O146 1.240 . S
C131 O147 1.240 . S
C132 Gd121 2.818 . S
C132 C133 1.510 . S
C132 O148 1.249 . S
C132 O149 1.252 . S
C133 C132 1.510 . S
C133 C134 1.404 . S
C133 C135 1.352 . S
C134 C133 1.404 . S
C134 C138 1.389 . S
C134 H156 0.930 1_556 S
C135 C133 1.352 . S
C135 C137 1.374 . S
C135 H157 0.931 . S
C136 C137 1.359 . S
C136 C138 1.364 . S
C137 C135 1.374 . S
C137 C136 1.359 . S
C137 H158 0.931 . S
C138 C134 1.389 . S
C138 C136 1.364 . S
C138 H159 0.931 . S
C139 O150 1.256 . S
C139 O151 1.257 . S
O140 Gd120 2.377 . S
O140 C122 1.240 . S
O141 Gd121 2.395 . S
O141 C122 1.240 . S
O142 Gd120 2.448 . S
O142 C123 1.249 1_556 S
O143 Gd120 2.506 1_554 S
O143 C123 1.252 . S
O144 Gd120 2.435 . S
O144 C130 1.256 . S
O145 Gd120 2.717 . S
O145 Gd121 2.327 . S
O145 C130 1.257 . S
O146 Gd121 2.377 . S
O146 C131 1.240 . S
O147 Gd120 2.395 . S
O147 C131 1.240 . S
O148 Gd121 2.448 . S
O148 C132 1.249 . S
O149 Gd121 2.506 . S
O149 C132 1.252 . S
O150 Gd121 2.435 1_554 S
O150 C139 1.256 . S
O151 Gd120 2.327 1_554 S
O151 Gd121 2.717 1_554 S
O151 C139 1.257 . S
H152 C125 0.930 1_556 S
H153 C126 0.931 . S
H154 C128 0.931 . S
H155 C129 0.931 . S
H156 C134 0.930 1_554 S
H157 C135 0.931 . S
H158 C137 0.931 . S
H159 C138 0.931 . S
Gd160 C163 2.818 1_556 S
Gd160 O180 2.377 1_556 S
Gd160 O182 2.448 . S
Gd160 O183 2.506 1_556 S
Gd160 O184 2.435 . S
Gd160 O185 2.717 . S
Gd160 O187 2.395 . S
Gd160 O191 2.327 1_556 S
Gd161 C172 2.818 1_554 S
Gd161 O181 2.395 . S
Gd161 O185 2.327 1_554 S
Gd161 O186 2.377 . S
Gd161 O188 2.448 . S
Gd161 O189 2.506 1_554 S
Gd161 O190 2.435 . S
Gd161 O191 2.717 . S
C162 O180 1.240 . S
C162 O181 1.240 . S
C163 Gd160 2.818 1_554 S
C163 C164 1.510 . S
C163 O182 1.249 1_554 S
C163 O183 1.252 . S
C164 C163 1.510 . S
C164 C165 1.404 1_554 S
C164 C166 1.352 . S
C165 C164 1.404 1_556 S
C165 C169 1.389 1_556 S
C165 H192 0.930 . S
C166 C164 1.352 . S
C166 C168 1.374 . S
C166 H193 0.931 . S
C167 C168 1.359 . S
C167 C169 1.364 . S
C168 C166 1.374 . S
C168 C167 1.359 . S
C168 H194 0.931 . S
C169 C165 1.389 1_554 S
C169 C167 1.364 . S
C169 H195 0.931 1_554 S
C170 O184 1.256 . S
C170 O185 1.257 . S
C171 O186 1.240 1_556 S
C171 O187 1.240 . S
C172 Gd161 2.818 1_556 S
C172 C173 1.510 . S
C172 O188 1.249 1_556 S
C172 O189 1.252 . S
C173 C172 1.510 . S
C173 C174 1.404 1_556 S
C173 C175 1.352 . S
C174 C173 1.404 1_554 S
C174 C178 1.389 . S
C174 H196 0.930 . S
C175 C173 1.352 . S
C175 C177 1.374 . S
C175 H197 0.931 . S
C176 C177 1.359 . S
C176 C178 1.364 1_556 S
C177 C175 1.374 . S
C177 C176 1.359 . S
C177 H198 0.931 . S
C178 C174 1.389 . S
C178 C176 1.364 1_554 S
C178 H199 0.931 . S
C179 O190 1.256 . S
C179 O191 1.257 . S
O180 Gd160 2.377 1_554 S
O180 C162 1.240 . S
O181 Gd161 2.395 . S
O181 C162 1.240 . S
O182 Gd160 2.448 . S
O182 C163 1.249 1_556 S
O183 Gd160 2.506 1_554 S
O183 C163 1.252 . S
O184 Gd160 2.435 . S
O184 C170 1.256 . S
O185 Gd160 2.717 . S
O185 Gd161 2.327 1_556 S
O185 C170 1.257 . S
O186 Gd161 2.377 . S
O186 C171 1.240 1_554 S
O187 Gd160 2.395 . S
O187 C171 1.240 . S
O188 Gd161 2.448 . S
O188 C172 1.249 1_554 S
O189 Gd161 2.506 1_556 S
O189 C172 1.252 . S
O190 Gd161 2.435 . S
O190 C179 1.256 . S
O191 Gd160 2.327 1_554 S
O191 Gd161 2.717 . S
O191 C179 1.257 . S
H192 C165 0.930 . S
H193 C166 0.931 . S
H194 C168 0.931 . S
H195 C169 0.931 1_556 S
H196 C174 0.930 . S
H197 C175 0.931 . S
H198 C177 0.931 . S
H199 C178 0.931 . S
Gd200 C203 2.818 . S
Gd200 O220 2.377 . S
Gd200 O222 2.448 . S
Gd200 O223 2.506 . S
Gd200 O224 2.435 . S
Gd200 O225 2.717 . S
Gd200 O227 2.395 . S
Gd200 O231 2.327 1_556 S
Gd201 C212 2.817 . S
Gd201 O221 2.395 1_554 S
Gd201 O225 2.318 1_554 S
Gd201 O226 2.379 . S
Gd201 O228 2.453 . S
Gd201 O229 2.500 1_554 S
Gd201 O230 2.448 . S
Gd201 O231 2.723 . S
C202 O220 1.240 . S
C202 O221 1.240 . S
C203 Gd200 2.818 . S
C203 C204 1.510 . S
C203 O222 1.249 . S
C203 O223 1.252 . S
C204 C203 1.510 . S
C204 C205 1.404 . S
C204 C206 1.352 . S
C205 C204 1.404 . S
C205 C209 1.389 . S
C205 H232 0.930 . S
C206 C204 1.352 . S
C206 C208 1.374 . S
C206 H233 0.931 . S
C207 C208 1.359 . S
C207 C209 1.364 . S
C208 C206 1.374 . S
C208 C207 1.359 . S
C208 H234 0.931 . S
C209 C205 1.389 . S
C209 C207 1.364 . S
C209 H235 0.931 . S
C210 O224 1.256 . S
C210 O225 1.257 . S
C211 O226 1.240 . S
C211 O227 1.240 1_554 S
C212 Gd201 2.817 . S
C212 C213 1.510 . S
C212 O228 1.249 . S
C212 O229 1.252 1_554 S
C213 C212 1.510 . S
C213 C214 1.404 . S
C213 C215 1.352 1_554 S
C214 C213 1.404 . S
C214 C218 1.389 . S
C214 H236 0.930 . S
C215 C213 1.352 1_556 S
C215 C217 1.374 1_556 S
C215 H237 0.931 . S
C216 C217 1.359 . S
C216 C218 1.364 . S
C217 C215 1.374 1_554 S
C217 C216 1.359 . S
C217 H238 0.931 1_554 S
C218 C214 1.389 . S
C218 C216 1.364 . S
C218 H239 0.931 . S
C219 O230 1.256 . S
C219 O231 1.257 . S
O220 Gd200 2.377 . S
O220 C202 1.240 . S
O221 Gd201 2.395 1_556 S
O221 C202 1.240 . S
O222 Gd200 2.448 . S
O222 C203 1.249 . S
O223 Gd200 2.506 . S
O223 C203 1.252 . S
O224 Gd200 2.435 . S
O224 C210 1.256 . S
O225 Gd200 2.717 . S
O225 Gd201 2.318 1_556 S
O225 C210 1.257 . S
O226 Gd201 2.379 . S
O226 C211 1.240 . S
O227 Gd200 2.395 . S
O227 C211 1.240 1_556 S
O228 Gd201 2.453 . S
O228 C212 1.249 . S
O229 Gd201 2.500 1_556 S
O229 C212 1.252 1_556 S
O230 Gd201 2.448 . S
O230 C219 1.256 . S
O231 Gd200 2.327 1_554 S
O231 Gd201 2.723 . S
O231 C219 1.257 . S
H232 C205 0.930 . S
H233 C206 0.931 . S
H234 C208 0.931 . S
H235 C209 0.931 . S
H236 C214 0.930 . S
H237 C215 0.931 . S
H238 C217 0.931 1_556 S
H239 C218 0.931 . S
C240 C241 1.349 . S
C240 C242 1.327 . S
C240 H265 0.950 . S
C241 C240 1.349 . S
C241 C257 1.349 . S
C242 C240 1.327 . S
C242 C261 1.429 . S
C242 H266 0.950 . S
C243 C260 1.574 . S
C243 C262 1.368 . S
C243 H267 0.949 . S
H244 C248 0.949 . S
C245 C246 1.349 . S
C245 C247 1.327 . S
C245 H268 0.950 . S
C246 C245 1.349 . S
C246 C258 1.349 . S
C247 C245 1.327 . S
C247 C263 1.429 . S
C247 H269 0.950 . S
C248 H244 0.949 . S
C248 C256 1.574 . S
C248 C264 1.368 . S
H249 C257 0.950 . S
H250 C255 0.950 . S
H251 C256 0.949 . S
H252 C258 0.950 . S
H253 C259 0.950 . S
H254 C260 0.949 . S
C255 H250 0.950 . S
C255 C257 1.327 . S
C255 C261 1.429 . S
C256 C248 1.574 . S
C256 H251 0.949 . S
C256 C262 1.368 . S
C257 C241 1.349 . S
C257 H249 0.950 . S
C257 C255 1.327 . S
C258 C246 1.349 . S
C258 H252 0.950 . S
C258 C259 1.327 . S
C259 H253 0.950 . S
C259 C258 1.327 . S
C259 C263 1.429 . S
C260 C243 1.574 . S
C260 H254 0.949 . S
C260 C264 1.368 . S
C261 C242 1.429 . S
C261 C255 1.429 . S
C261 C262 1.523 . S
C262 C243 1.368 . S
C262 C256 1.368 . S
C262 C261 1.523 . S
C263 C247 1.429 . S
C263 C259 1.429 . S
C263 C264 1.523 . S
C264 C248 1.368 . S
C264 C260 1.368 . S
C264 C263 1.523 . S
H265 C240 0.950 . S
H266 C242 0.950 . S
H267 C243 0.949 . S
H268 C245 0.950 . S
H269 C247 0.950 . S
C270 C271 1.349 . S
C270 C272 1.327 . S
C270 H295 0.950 . S
C271 C270 1.349 . S
C271 C287 1.349 . S
C272 C270 1.327 . S
C272 C291 1.429 . S
C272 H296 0.950 . S
C273 C290 1.574 . S
C273 C292 1.368 . S
C273 H297 0.949 . S
H274 C278 0.949 . S
C275 C276 1.349 . S
C275 C277 1.327 . S
C275 H298 0.950 1_455 S
C276 C275 1.349 . S
C276 C288 1.349 . S
C277 C275 1.327 . S
C277 C293 1.429 . S
C277 H299 0.950 . S
C278 H274 0.949 . S
C278 C286 1.574 . S
C278 C294 1.368 . S
H279 C287 0.950 . S
H280 C285 0.950 . S
H281 C286 0.949 . S
H282 C288 0.950 . S
H283 C289 0.950 . S
H284 C290 0.949 . S
C285 H280 0.950 . S
C285 C287 1.327 . S
C285 C291 1.429 . S
C286 C278 1.574 . S
C286 H281 0.949 . S
C286 C292 1.368 . S
C287 C271 1.349 . S
C287 H279 0.950 . S
C287 C285 1.327 . S
C288 C276 1.349 . S
C288 H282 0.950 . S
C288 C289 1.327 . S
C289 H283 0.950 . S
C289 C288 1.327 . S
C289 C293 1.429 . S
C290 C273 1.574 . S
C290 H284 0.949 . S
C290 C294 1.368 . S
C291 C272 1.429 . S
C291 C285 1.429 . S
C291 C292 1.523 . S
C292 C273 1.368 . S
C292 C286 1.368 . S
C292 C291 1.523 . S
C293 C277 1.429 . S
C293 C289 1.429 . S
C293 C294 1.523 . S
C294 C278 1.368 . S
C294 C290 1.368 . S
C294 C293 1.523 . S
H295 C270 0.950 . S
H296 C272 0.950 . S
H297 C273 0.949 . S
H298 C275 0.950 1_655 S
H299 C277 0.950 . S
C300 C301 1.349 . S
C300 C302 1.327 . S
C300 H325 0.950 . S
C301 C300 1.349 . S
C301 C317 1.349 . S
C302 C300 1.327 . S
C302 C321 1.429 . S
C302 H326 0.950 . S
C303 C320 1.574 . S
C303 C322 1.368 . S
C303 H327 0.949 . S
H304 C308 0.949 . S
C305 C306 1.349 . S
C305 C307 1.327 1_565 S
C305 H328 0.950 . S
C306 C305 1.349 . S
C306 C318 1.349 . S
C307 C305 1.327 1_545 S
C307 C323 1.429 . S
C307 H329 0.950 . S
C308 H304 0.949 . S
C308 C316 1.574 . S
C308 C324 1.368 . S
H309 C317 0.950 . S
H310 C315 0.950 . S
H311 C316 0.949 . S
H312 C318 0.950 . S
H313 C319 0.950 . S
H314 C320 0.949 . S
C315 H310 0.950 . S
C315 C317 1.327 . S
C315 C321 1.429 . S
C316 C308 1.574 . S
C316 H311 0.949 . S
C316 C322 1.368 . S
C317 C301 1.349 . S
C317 H309 0.950 . S
C317 C315 1.327 . S
C318 C306 1.349 . S
C318 H312 0.950 . S
C318 C319 1.327 . S
C319 H313 0.950 . S
C319 C318 1.327 . S
C319 C323 1.429 1_565 S
C320 C303 1.574 . S
C320 H314 0.949 . S
C320 C324 1.368 . S
C321 C302 1.429 . S
C321 C315 1.429 . S
C321 C322 1.523 . S
C322 C303 1.368 . S
C322 C316 1.368 . S
C322 C321 1.523 . S
C323 C307 1.429 . S
C323 C319 1.429 1_545 S
C323 C324 1.523 . S
C324 C308 1.368 . S
C324 C320 1.368 . S
C324 C323 1.523 . S
H325 C300 0.950 . S
H326 C302 0.950 . S
H327 C303 0.949 . S
H328 C305 0.950 . S
H329 C307 0.950 . S
C330 C331 1.349 . S
C330 C332 1.327 . S
C330 H355 0.950 . S
C331 C330 1.349 . S
C331 C347 1.349 . S
C332 C330 1.327 . S
C332 C351 1.429 . S
C332 H356 0.950 . S
C333 C350 1.574 . S
C333 C352 1.368 . S
C333 H357 0.949 . S
H334 C338 0.949 . S
C335 C336 1.349 . S
C335 C337 1.327 . S
C335 H358 0.950 . S
C336 C335 1.349 . S
C336 C348 1.349 . S
C337 C335 1.327 . S
C337 C353 1.429 . S
C337 H359 0.950 . S
C338 H334 0.949 . S
C338 C346 1.574 . S
C338 C354 1.368 . S
H339 C347 0.950 . S
H340 C345 0.950 . S
H341 C346 0.949 . S
H342 C348 0.950 . S
H343 C349 0.950 . S
H344 C350 0.949 . S
C345 H340 0.950 . S
C345 C347 1.327 . S
C345 C351 1.429 . S
C346 C338 1.574 . S
C346 H341 0.949 . S
C346 C352 1.368 . S
C347 C331 1.349 . S
C347 H339 0.950 . S
C347 C345 1.327 . S
C348 C336 1.349 . S
C348 H342 0.950 . S
C348 C349 1.327 . S
C349 H343 0.950 . S
C349 C348 1.327 . S
C349 C353 1.429 . S
C350 C333 1.574 . S
C350 H344 0.949 . S
C350 C354 1.368 . S
C351 C332 1.429 . S
C351 C345 1.429 . S
C351 C352 1.523 . S
C352 C333 1.368 . S
C352 C346 1.368 . S
C352 C351 1.523 . S
C353 C337 1.429 . S
C353 C349 1.429 . S
C353 C354 1.523 . S
C354 C338 1.368 . S
C354 C350 1.368 . S
C354 C353 1.523 . S
H355 C330 0.950 . S
H356 C332 0.950 . S
H357 C333 0.949 . S
H358 C335 0.950 . S
H359 C337 0.950 . S
C360 C361 1.349 . S
C360 C362 1.327 . S
C360 H385 0.950 1_655 S
C361 C360 1.349 . S
C361 C377 1.349 . S
C362 C360 1.327 . S
C362 C381 1.429 . S
C362 H386 0.950 . S
C363 C380 1.574 . S
C363 C382 1.368 . S
C363 H387 0.949 . S
H364 C368 0.949 . S
C365 C366 1.349 . S
C365 C367 1.327 . S
C365 H388 0.950 . S
C366 C365 1.349 . S
C366 C378 1.349 . S
C367 C365 1.327 . S
C367 C383 1.429 . S
C367 H389 0.950 . S
C368 H364 0.949 . S
C368 C376 1.574 . S
C368 C384 1.368 . S
H369 C377 0.950 . S
H370 C375 0.950 . S
H371 C376 0.949 . S
H372 C378 0.950 . S
H373 C379 0.950 . S
H374 C380 0.949 . S
C375 H370 0.950 . S
C375 C377 1.327 . S
C375 C381 1.429 . S
C376 C368 1.574 . S
C376 H371 0.949 . S
C376 C382 1.368 . S
C377 C361 1.349 . S
C377 H369 0.950 . S
C377 C375 1.327 . S
C378 C366 1.349 . S
C378 H372 0.950 . S
C378 C379 1.327 . S
C379 H373 0.950 . S
C379 C378 1.327 . S
C379 C383 1.429 . S
C380 C363 1.574 . S
C380 H374 0.949 . S
C380 C384 1.368 . S
C381 C362 1.429 . S
C381 C375 1.429 . S
C381 C382 1.523 . S
C382 C363 1.368 . S
C382 C376 1.368 . S
C382 C381 1.523 . S
C383 C367 1.429 . S
C383 C379 1.429 . S
C383 C384 1.523 . S
C384 C368 1.368 . S
C384 C380 1.368 . S
C384 C383 1.523 . S
H385 C360 0.950 1_455 S
H386 C362 0.950 . S
H387 C363 0.949 . S
H388 C365 0.950 . S
H389 C367 0.950 . S
C390 C391 1.349 . S
C390 C392 1.327 . S
C390 H415 0.950 . S
C391 C390 1.349 . S
C391 C407 1.349 . S
C392 C390 1.327 . S
C392 C411 1.429 . S
C392 H416 0.950 . S
C393 C410 1.574 . S
C393 C412 1.368 . S
C393 H417 0.949 . S
H394 C398 0.949 . S
C395 C396 1.349 . S
C395 C397 1.327 . S
C395 H418 0.950 . S
C396 C395 1.349 . S
C396 C408 1.349 . S
C397 C395 1.327 . S
C397 C413 1.429 1_545 S
C397 H419 0.950 . S
C398 H394 0.949 . S
C398 C406 1.574 . S
C398 C414 1.368 . S
H399 C407 0.950 . S
H400 C405 0.950 . S
H401 C406 0.949 . S
H402 C408 0.950 . S
H403 C409 0.950 . S
H404 C410 0.949 . S
C405 H400 0.950 . S
C405 C407 1.327 . S
C405 C411 1.429 . S
C406 C398 1.574 . S
C406 H401 0.949 . S
C406 C412 1.368 . S
C407 C391 1.349 . S
C407 H399 0.950 . S
C407 C405 1.327 . S
C408 C396 1.349 . S
C408 H402 0.950 . S
C408 C409 1.327 1_545 S
C409 H403 0.950 . S
C409 C408 1.327 1_565 S
C409 C413 1.429 . S
C410 C393 1.574 . S
C410 H404 0.949 . S
C410 C414 1.368 . S
C411 C392 1.429 . S
C411 C405 1.429 . S
C411 C412 1.523 . S
C412 C393 1.368 . S
C412 C406 1.368 . S
C412 C411 1.523 . S
C413 C397 1.429 1_565 S
C413 C409 1.429 . S
C413 C414 1.523 . S
C414 C398 1.368 . S
C414 C410 1.368 . S
C414 C413 1.523 . S
H415 C390 0.950 . S
H416 C392 0.950 . S
H417 C393 0.949 . S
H418 C395 0.950 . S
H419 C397 0.950 . S
C420 C421 1.349 . S
C420 C422 1.327 . S
C420 H445 0.950 . S
C421 C420 1.349 . S
C421 C437 1.349 . S
C422 C420 1.327 . S
C422 C441 1.429 . S
C422 H446 0.950 . S
C423 C440 1.574 . S
C423 C442 1.368 . S
C423 H447 0.956 . S
H424 C428 0.949 . S
C425 C426 1.349 . S
C425 C427 1.327 . S
C425 H448 0.950 . S
C426 C425 1.349 . S
C426 C438 1.349 . S
C427 C425 1.327 . S
C427 C443 1.429 . S
C427 H449 0.950 . S
C428 H424 0.949 . S
C428 C436 1.574 . S
C428 C444 1.368 . S
H429 C437 0.950 1_554 S
H430 C435 0.950 1_554 S
H431 C436 0.949 . S
H432 C438 0.950 . S
H433 C439 0.950 . S
H434 C440 0.949 . S
C435 H430 0.950 1_556 S
C435 C437 1.327 . S
C435 C441 1.429 . S
C436 C428 1.574 . S
C436 H431 0.949 . S
C436 C442 1.368 . S
C437 C421 1.349 . S
C437 H429 0.950 1_556 S
C437 C435 1.327 . S
C438 C426 1.349 . S
C438 H432 0.950 . S
C438 C439 1.327 . S
C439 H433 0.950 . S
C439 C438 1.327 . S
C439 C443 1.429 . S
C440 C423 1.574 . S
C440 H434 0.949 . S
C440 C444 1.368 . S
C441 C422 1.429 . S
C441 C435 1.429 . S
C441 C442 1.523 . S
C442 C423 1.368 . S
C442 C436 1.368 . S
C442 C441 1.523 . S
C443 C427 1.429 . S
C443 C439 1.429 . S
C443 C444 1.523 . S
C444 C428 1.368 . S
C444 C440 1.368 . S
C444 C443 1.523 . S
H445 C420 0.950 . S
H446 C422 0.950 . S
H447 C423 0.956 . S
H448 C425 0.950 . S
H449 C427 0.950 . S
C450 C451 1.349 1_556 S
C450 C452 1.327 . S
C450 H475 0.950 . S
C451 C450 1.349 1_554 S
C451 C467 1.349 . S
C452 C450 1.327 . S
C452 C471 1.429 1_556 S
C452 H476 0.950 . S
C453 C470 1.574 . S
C453 C472 1.368 . S
C453 H477 0.949 . S
H454 C458 0.949 1_556 S
C455 C456 1.349 . S
C455 C457 1.327 . S
C455 H478 0.950 . S
C456 C455 1.349 . S
C456 C468 1.349 . S
C457 C455 1.327 . S
C457 C473 1.429 . S
C457 H479 0.950 . S
C458 H454 0.949 1_554 S
C458 C466 1.574 1_554 S
C458 C474 1.368 . S
H459 C467 0.950 . S
H460 C465 0.950 . S
H461 C466 0.949 . S
H462 C468 0.950 1_556 S
H463 C469 0.950 1_556 S
H464 C470 0.949 . S
C465 H460 0.950 . S
C465 C467 1.327 . S
C465 C471 1.429 . S
C466 C458 1.574 1_556 S
C466 H461 0.949 . S
C466 C472 1.368 1_556 S
C467 C451 1.349 . S
C467 H459 0.950 . S
C467 C465 1.327 . S
C468 C456 1.349 . S
C468 H462 0.950 1_554 S
C468 C469 1.327 . S
C469 H463 0.950 1_554 S
C469 C468 1.327 . S
C469 C473 1.429 . S
C470 C453 1.574 . S
C470 H464 0.949 . S
C470 C474 1.368 . S
C471 C452 1.429 1_554 S
C471 C465 1.429 . S
C471 C472 1.523 . S
C472 C453 1.368 . S
C472 C466 1.368 1_554 S
C472 C471 1.523 . S
C473 C457 1.429 . S
C473 C469 1.429 . S
C473 C474 1.523 . S
C474 C458 1.368 . S
C474 C470 1.368 . S
C474 C473 1.523 . S
H475 C450 0.950 . S
H476 C452 0.950 . S
H477 C453 0.949 . S
H478 C455 0.950 . S
H479 C457 0.950 . S
C480 C481 1.349 . S
C480 C482 1.327 . S
C480 H505 0.950 1_556 S
C481 C480 1.349 . S
C481 C497 1.349 . S
C482 C480 1.327 . S
C482 C501 1.429 . S
C482 H506 0.950 1_556 S
C483 C500 1.574 . S
C483 C502 1.368 . S
C483 H507 0.949 . S
H484 C488 0.949 . S
C485 C486 1.349 . S
C485 C487 1.327 . S
C485 H508 0.950 . S
C486 C485 1.349 . S
C486 C498 1.349 1_556 S
C487 C485 1.327 . S
C487 C503 1.429 . S
C487 H509 0.950 . S
C488 H484 0.949 . S
C488 C496 1.574 1_554 S
C488 C504 1.368 1_554 S
H489 C497 0.950 . S
H490 C495 0.950 . S
H491 C496 0.949 1_554 S
H492 C498 0.950 . S
H493 C499 0.950 . S
H494 C500 0.949 . S
C495 H490 0.950 . S
C495 C497 1.327 . S
C495 C501 1.429 . S
C496 C488 1.574 1_556 S
C496 H491 0.949 1_556 S
C496 C502 1.368 . S
C497 C481 1.349 . S
C497 H489 0.950 . S
C497 C495 1.327 . S
C498 C486 1.349 1_554 S
C498 H492 0.950 . S
C498 C499 1.327 . S
C499 H493 0.950 . S
C499 C498 1.327 . S
C499 C503 1.429 1_554 S
C500 C483 1.574 . S
C500 H494 0.949 . S
C500 C504 1.368 . S
C501 C482 1.429 . S
C501 C495 1.429 . S
C501 C502 1.523 . S
C502 C483 1.368 . S
C502 C496 1.368 . S
C502 C501 1.523 . S
C503 C487 1.429 . S
C503 C499 1.429 1_556 S
C503 C504 1.523 . S
C504 C488 1.368 1_556 S
C504 C500 1.368 . S
C504 C503 1.523 . S
H505 C480 0.950 1_554 S
H506 C482 0.950 1_554 S
H507 C483 0.949 . S
H508 C485 0.950 . S
H509 C487 0.950 . S
C510 C511 1.349 . S
C510 C512 1.327 . S
C510 H535 0.950 . S
C511 C510 1.349 . S
C511 C527 1.349 . S
C512 C510 1.327 . S
C512 C531 1.429 . S
C512 H536 0.950 . S
C513 C530 1.574 . S
C513 C532 1.368 . S
C513 H537 0.949 . S
H514 C518 0.949 1_556 S
C515 C516 1.349 . S
C515 C517 1.327 . S
C515 H538 0.950 . S
C516 C515 1.349 . S
C516 C528 1.349 1_554 S
C517 C515 1.327 . S
C517 C533 1.429 . S
C517 H539 0.950 . S
C518 H514 0.949 1_554 S
C518 C526 1.574 . S
C518 C534 1.368 . S
H519 C527 0.950 . S
H520 C525 0.950 . S
H521 C526 0.949 1_556 S
H522 C528 0.950 . S
H523 C529 0.950 1_556 S
H524 C530 0.949 . S
C525 H520 0.950 . S
C525 C527 1.327 . S
C525 C531 1.429 . S
C526 C518 1.574 . S
C526 H521 0.949 1_554 S
C526 C532 1.368 . S
C527 C511 1.349 . S
C527 H519 0.950 . S
C527 C525 1.327 . S
C528 C516 1.349 1_556 S
C528 H522 0.950 . S
C528 C529 1.327 1_556 S
C529 H523 0.950 1_554 S
C529 C528 1.327 1_554 S
C529 C533 1.429 . S
C530 C513 1.574 . S
C530 H524 0.949 . S
C530 C534 1.368 . S
C531 C512 1.429 . S
C531 C525 1.429 . S
C531 C532 1.523 . S
C532 C513 1.368 . S
C532 C526 1.368 . S
C532 C531 1.523 . S
C533 C517 1.429 . S
C533 C529 1.429 . S
C533 C534 1.523 . S
C534 C518 1.368 . S
C534 C530 1.368 . S
C534 C533 1.523 . S
H535 C510 0.950 . S
H536 C512 0.950 . S
H537 C513 0.949 . S
H538 C515 0.950 . S
H539 C517 0.950 . S
C540 C541 1.349 . S
C540 C542 1.327 . S
C540 H565 0.950 . S
C541 C540 1.349 . S
C541 C557 1.349 . S
C542 C540 1.327 . S
C542 C561 1.429 . S
C542 H566 0.950 . S
C543 C560 1.574 . S
C543 C562 1.368 . S
C543 H567 0.949 . S
H544 C548 0.949 . S
C545 C546 1.349 . S
C545 C547 1.327 . S
C545 H568 0.950 . S
C546 C545 1.349 . S
C546 C558 1.349 . S
C547 C545 1.327 . S
C547 C563 1.429 . S
C547 H569 0.950 . S
C548 H544 0.949 . S
C548 C556 1.574 . S
C548 C564 1.368 . S
H549 C557 0.950 . S
H550 C555 0.950 . S
H551 C556 0.949 . S
H552 C558 0.950 . S
H553 C559 0.950 . S
H554 C560 0.949 . S
C555 H550 0.950 . S
C555 C557 1.327 . S
C555 C561 1.429 . S
C556 C548 1.574 . S
C556 H551 0.949 . S
C556 C562 1.368 . S
C557 C541 1.349 . S
C557 H549 0.950 . S
C557 C555 1.327 . S
C558 C546 1.349 . S
C558 H552 0.950 . S
C558 C559 1.327 . S
C559 H553 0.950 . S
C559 C558 1.327 . S
C559 C563 1.429 . S
C560 C543 1.574 . S
C560 H554 0.949 . S
C560 C564 1.368 . S
C561 C542 1.429 . S
C561 C555 1.429 . S
C561 C562 1.523 . S
C562 C543 1.368 . S
C562 C556 1.368 . S
C562 C561 1.523 . S
C563 C547 1.429 . S
C563 C559 1.429 . S
C563 C564 1.523 . S
C564 C548 1.368 . S
C564 C560 1.368 . S
C564 C563 1.523 . S
H565 C540 0.950 . S
H566 C542 0.950 . S
H567 C543 0.949 . S
H568 C545 0.950 . S
H569 C547 0.950 . S
C570 C571 1.349 . S
C570 C572 1.327 . S
C570 H595 0.950 . S
C571 C570 1.349 . S
C571 C587 1.349 1_554 S
C572 C570 1.327 . S
C572 C591 1.429 . S
C572 H596 0.950 . S
C573 C590 1.574 . S
C573 C592 1.368 1_556 S
C573 H597 0.949 . S
H574 C578 0.949 . S
C575 C576 1.349 . S
C575 C577 1.327 . S
C575 H598 0.950 1_554 S
C576 C575 1.349 . S
C576 C588 1.349 . S
C577 C575 1.327 . S
C577 C593 1.429 . S
C577 H599 0.950 1_554 S
C578 H574 0.949 . S
C578 C586 1.574 . S
C578 C594 1.368 . S
H579 C587 0.950 . S
H580 C585 0.950 . S
H581 C586 0.949 . S
H582 C588 0.950 . S
H583 C589 0.950 . S
H584 C590 0.949 . S
C585 H580 0.950 . S
C585 C587 1.327 . S
C585 C591 1.429 1_556 S
C586 C578 1.574 . S
C586 H581 0.949 . S
C586 C592 1.368 . S
C587 C571 1.349 1_556 S
C587 H579 0.950 . S
C587 C585 1.327 . S
C588 C576 1.349 . S
C588 H582 0.950 . S
C588 C589 1.327 . S
C589 H583 0.950 . S
C589 C588 1.327 . S
C589 C593 1.429 . S
C590 C573 1.574 . S
C590 H584 0.949 . S
C590 C594 1.368 1_556 S
C591 C572 1.429 . S
C591 C585 1.429 1_554 S
C591 C592 1.523 . S
C592 C573 1.368 1_554 S
C592 C586 1.368 . S
C592 C591 1.523 . S
C593 C577 1.429 . S
C593 C589 1.429 . S
C593 C594 1.523 . S
C594 C578 1.368 . S
C594 C590 1.368 1_554 S
C594 C593 1.523 . S
H595 C570 0.950 . S
H596 C572 0.950 . S
H597 C573 0.949 . S
H598 C575 0.950 1_556 S
H599 C577 0.950 1_556 S
C600 C601 1.349 . S
C600 C602 1.327 . S
C600 H625 0.950 . S
C601 C600 1.349 . S
C601 C617 1.349 . S
C602 C600 1.327 . S
C602 C621 1.429 . S
C602 H626 0.950 . S
C603 C620 1.574 . S
C603 C622 1.368 . S
C603 H627 0.949 . S
H604 C608 0.949 . S
C605 C606 1.349 . S
C605 C607 1.327 . S
C605 H628 0.950 . S
C606 C605 1.349 . S
C606 C618 1.349 . S
C607 C605 1.327 . S
C607 C623 1.429 . S
C607 H629 0.950 . S
C608 H604 0.949 . S
C608 C616 1.574 . S
C608 C624 1.368 . S
H609 C617 0.950 . S
H610 C615 0.950 . S
H611 C616 0.949 . S
H612 C618 0.950 . S
H613 C619 0.950 . S
H614 C620 0.949 . S
C615 H610 0.950 . S
C615 C617 1.327 . S
C615 C621 1.429 . S
C616 C608 1.574 . S
C616 H611 0.949 . S
C616 C622 1.368 . S
C617 C601 1.349 . S
C617 H609 0.950 . S
C617 C615 1.327 . S
C618 C606 1.349 . S
C618 H612 0.950 . S
C618 C619 1.327 . S
C619 H613 0.950 . S
C619 C618 1.327 . S
C619 C623 1.429 . S
C620 C603 1.574 . S
C620 H614 0.949 . S
C620 C624 1.368 . S
C621 C602 1.429 . S
C621 C615 1.429 . S
C621 C622 1.523 . S
C622 C603 1.368 . S
C622 C616 1.368 . S
C622 C621 1.523 . S
C623 C607 1.429 . S
C623 C619 1.429 . S
C623 C624 1.523 . S
C624 C608 1.368 . S
C624 C620 1.368 . S
C624 C623 1.523 . S
H625 C600 0.950 . S
H626 C602 0.950 . S
H627 C603 0.949 . S
H628 C605 0.950 . S
H629 C607 0.950 . S
C630 C631 1.349 . S
C630 C632 1.327 . S
C630 H655 0.950 . S
C631 C630 1.349 . S
C631 C647 1.349 . S
C632 C630 1.327 . S
C632 C651 1.429 . S
C632 H656 0.950 . S
C633 C650 1.574 . S
C633 C652 1.368 . S
C633 H657 0.949 . S
H634 C638 0.949 . S
C635 C636 1.349 . S
C635 C637 1.327 . S
C635 H658 0.950 . S
C636 C635 1.349 . S
C636 C648 1.349 . S
C637 C635 1.327 . S
C637 C653 1.429 . S
C637 H659 0.950 . S
C638 H634 0.949 . S
C638 C646 1.574 . S
C638 C654 1.368 . S
H639 C647 0.950 . S
H640 C645 0.950 . S
H641 C646 0.949 . S
H642 C648 0.950 . S
H643 C649 0.950 . S
H644 C650 0.949 . S
C645 H640 0.950 . S
C645 C647 1.327 . S
C645 C651 1.429 . S
C646 C638 1.574 . S
C646 H641 0.949 . S
C646 C652 1.368 . S
C647 C631 1.349 . S
C647 H639 0.950 . S
C647 C645 1.327 . S
C648 C636 1.349 . S
C648 H642 0.950 . S
C648 C649 1.327 . S
C649 H643 0.950 . S
C649 C648 1.327 . S
C649 C653 1.429 . S
C650 C633 1.574 . S
C650 H644 0.949 . S
C650 C654 1.368 . S
C651 C632 1.429 . S
C651 C645 1.429 . S
C651 C652 1.523 . S
C652 C633 1.368 . S
C652 C646 1.368 . S
C652 C651 1.523 . S
C653 C637 1.429 . S
C653 C649 1.429 . S
C653 C654 1.523 . S
C654 C638 1.368 . S
C654 C650 1.368 . S
C654 C653 1.523 . S
H655 C630 0.950 . S
H656 C632 0.950 . S
H657 C633 0.949 . S
H658 C635 0.950 . S
H659 C637 0.950 . S
C660 C661 1.349 . S
C660 C662 1.327 . S
C660 H685 0.950 . S
C661 C660 1.349 . S
C661 C677 1.349 . S
C662 C660 1.327 . S
C662 C681 1.429 . S
C662 H686 0.950 . S
C663 C680 1.574 . S
C663 C682 1.368 . S
C663 H687 0.949 . S
H664 C668 0.949 . S
C665 C666 1.349 . S
C665 C667 1.327 . S
C665 H688 0.950 . S
C666 C665 1.349 . S
C666 C678 1.349 . S
C667 C665 1.327 . S
C667 C683 1.429 . S
C667 H689 0.950 . S
C668 H664 0.949 . S
C668 C676 1.574 . S
C668 C684 1.368 . S
H669 C677 0.950 . S
H670 C675 0.950 . S
H671 C676 0.949 . S
H672 C678 0.950 . S
H673 C679 0.950 . S
H674 C680 0.949 . S
C675 H670 0.950 . S
C675 C677 1.327 . S
C675 C681 1.429 . S
C676 C668 1.574 . S
C676 H671 0.949 . S
C676 C682 1.368 . S
C677 C661 1.349 . S
C677 H669 0.950 . S
C677 C675 1.327 . S
C678 C666 1.349 . S
C678 H672 0.950 . S
C678 C679 1.327 . S
C679 H673 0.950 . S
C679 C678 1.327 . S
C679 C683 1.429 . S
C680 C663 1.574 . S
C680 H674 0.949 . S
C680 C684 1.368 . S
C681 C662 1.429 . S
C681 C675 1.429 . S
C681 C682 1.523 . S
C682 C663 1.368 . S
C682 C676 1.368 . S
C682 C681 1.523 . S
C683 C667 1.429 . S
C683 C679 1.429 . S
C683 C684 1.523 . S
C684 C668 1.368 . S
C684 C680 1.368 . S
C684 C683 1.523 . S
H685 C660 0.950 . S
H686 C662 0.950 . S
H687 C663 0.949 . S
H688 C665 0.950 . S
H689 C667 0.950 . S
C690 C691 1.349 . S
C690 C692 1.327 . S
C690 H715 0.950 . S
C691 C690 1.349 . S
C691 C707 1.349 . S
C692 C690 1.327 . S
C692 C711 1.429 . S
C692 H716 0.950 . S
C693 C710 1.574 . S
C693 C712 1.368 . S
C693 H717 0.949 . S
H694 C698 0.949 . S
C695 C696 1.349 . S
C695 C697 1.327 . S
C695 H718 0.950 . S
C696 C695 1.349 . S
C696 C708 1.349 . S
C697 C695 1.327 . S
C697 C713 1.429 . S
C697 H719 0.950 . S
C698 H694 0.949 . S
C698 C706 1.574 . S
C698 C714 1.368 . S
H699 C707 0.950 . S
H700 C705 0.950 . S
H701 C706 0.949 . S
H702 C708 0.950 . S
H703 C709 0.950 . S
H704 C710 0.949 . S
C705 H700 0.950 . S
C705 C707 1.327 . S
C705 C711 1.429 . S
C706 C698 1.574 . S
C706 H701 0.949 . S
C706 C712 1.368 . S
C707 C691 1.349 . S
C707 H699 0.950 . S
C707 C705 1.327 . S
C708 C696 1.349 . S
C708 H702 0.950 . S
C708 C709 1.327 . S
C709 H703 0.950 . S
C709 C708 1.327 . S
C709 C713 1.429 . S
C710 C693 1.574 . S
C710 H704 0.949 . S
C710 C714 1.368 . S
C711 C692 1.429 . S
C711 C705 1.429 . S
C711 C712 1.523 . S
C712 C693 1.368 . S
C712 C706 1.368 . S
C712 C711 1.523 . S
C713 C697 1.429 . S
C713 C709 1.429 . S
C713 C714 1.523 . S
C714 C698 1.368 . S
C714 C710 1.368 . S
C714 C713 1.523 . S
H715 C690 0.950 . S
H716 C692 0.950 . S
H717 C693 0.949 . S
H718 C695 0.950 . S
H719 C697 0.950 . S
C720 C721 1.349 . S
C720 C722 1.327 . S
C720 H745 0.950 . S
C721 C720 1.349 . S
C721 C737 1.349 . S
C722 C720 1.327 . S
C722 C741 1.429 . S
C722 H746 0.950 . S
C723 C740 1.574 . S
C723 C742 1.368 . S
C723 H747 0.949 . S
H724 C728 0.949 . S
C725 C726 1.349 . S
C725 C727 1.327 . S
C725 H748 0.950 . S
C726 C725 1.349 . S
C726 C738 1.349 . S
C727 C725 1.327 . S
C727 C743 1.429 . S
C727 H749 0.950 . S
C728 H724 0.949 . S
C728 C736 1.574 . S
C728 C744 1.368 . S
H729 C737 0.950 . S
H730 C735 0.950 . S
H731 C736 0.949 . S
H732 C738 0.950 . S
H733 C739 0.950 . S
H734 C740 0.949 . S
C735 H730 0.950 . S
C735 C737 1.327 . S
C735 C741 1.429 . S
C736 C728 1.574 . S
C736 H731 0.949 . S
C736 C742 1.368 . S
C737 C721 1.349 . S
C737 H729 0.950 . S
C737 C735 1.327 . S
C738 C726 1.349 . S
C738 H732 0.950 . S
C738 C739 1.327 . S
C739 H733 0.950 . S
C739 C738 1.327 . S
C739 C743 1.429 . S
C740 C723 1.574 . S
C740 H734 0.949 . S
C740 C744 1.368 . S
C741 C722 1.429 . S
C741 C735 1.429 . S
C741 C742 1.523 . S
C742 C723 1.368 . S
C742 C736 1.368 . S
C742 C741 1.523 . S
C743 C727 1.429 . S
C743 C739 1.429 . S
C743 C744 1.523 . S
C744 C728 1.368 . S
C744 C740 1.368 . S
C744 C743 1.523 . S
H745 C720 0.950 . S
H746 C722 0.950 . S
H747 C723 0.949 . S
H748 C725 0.950 . S
H749 C727 0.950 . S
C750 C751 1.349 . S
C750 C752 1.327 . S
C750 H775 0.950 . S
C751 C750 1.349 . S
C751 C767 1.349 . S
C752 C750 1.327 . S
C752 C771 1.429 . S
C752 H776 0.950 . S
C753 C770 1.574 . S
C753 C772 1.368 . S
C753 H777 0.949 . S
H754 C758 0.949 . S
C755 C756 1.349 . S
C755 C757 1.327 . S
C755 H778 0.950 . S
C756 C755 1.349 . S
C756 C768 1.349 . S
C757 C755 1.327 . S
C757 C773 1.429 . S
C757 H779 0.950 . S
C758 H754 0.949 . S
C758 C766 1.574 . S
C758 C774 1.368 . S
H759 C767 0.950 . S
H760 C765 0.950 . S
H761 C766 0.949 . S
H762 C768 0.950 . S
H763 C769 0.950 . S
H764 C770 0.949 . S
C765 H760 0.950 . S
C765 C767 1.327 . S
C765 C771 1.429 . S
C766 C758 1.574 . S
C766 H761 0.949 . S
C766 C772 1.368 . S
C767 C751 1.349 . S
C767 H759 0.950 . S
C767 C765 1.327 . S
C768 C756 1.349 . S
C768 H762 0.950 . S
C768 C769 1.327 . S
C769 H763 0.950 . S
C769 C768 1.327 . S
C769 C773 1.429 . S
C770 C753 1.574 . S
C770 H764 0.949 . S
C770 C774 1.368 . S
C771 C752 1.429 . S
C771 C765 1.429 . S
C771 C772 1.523 . S
C772 C753 1.368 . S
C772 C766 1.368 . S
C772 C771 1.523 . S
C773 C757 1.429 . S
C773 C769 1.429 . S
C773 C774 1.523 . S
C774 C758 1.368 . S
C774 C770 1.368 . S
C774 C773 1.523 . S
H775 C750 0.950 . S
H776 C752 0.950 . S
H777 C753 0.949 . S
H778 C755 0.950 . S
H779 C757 0.950 . S
C241 C202 3.061 . S
C246 C7 2.927 . S
C271 C2 3.118 . S
C276 C56 2.910 1_455 S
C301 C51 2.973 . S
C306 C96 2.852 . S
C331 C136 2.928 . S
C336 C91 3.061 . S
C361 C167 2.913 1_655 S
C366 C131 3.119 . S
C391 C162 2.974 . S
C396 C207 2.852 . S
C421 C171 2.381 . S
C426 C16 2.379 . S
C451 C211 2.174 . S
C456 C47 2.161 . S
C481 C87 2.186 . S
C486 C11 2.216 . S
C511 C127 2.379 . S
C516 C42 2.382 . S
C541 C176 2.161 . S
C546 C82 2.175 . S
C571 C122 2.215 1_554 S
C576 C216 2.186 . S
C601 C10 0.463 . S
C606 C19 0.463 . S
C631 C50 0.324 . S
C636 C59 0.324 . S
C661 C90 0.598 . S
C666 C99 0.598 . S
C691 C130 0.463 . S
C696 C139 0.463 . S
C721 C179 0.324 . S
C726 C170 0.324 . S
C751 C210 0.598 . S
C756 C219 0.598 . S
