# Generated by pormake.
# Topology vby, (6)-cn, num edge types: 1
# Building blocks:
#     Node 0, Type 0, BuildingBlock: BETDAH_clean_sbu_0, # of connection points: 6
#     Node 1, Type 0, BuildingBlock: BETDAH_clean_sbu_0, # of connection points: 6
#     Node 2, Type 0, BuildingBlock: BETDAH_clean_sbu_0, # of connection points: 6
#     Node 3, Type 0, BuildingBlock: BETDAH_clean_sbu_0, # of connection points: 6
#     Node 4, Type 0, BuildingBlock: BETDAH_clean_sbu_0, # of connection points: 6
#     Node 5, Type 0, BuildingBlock: BETDAH_clean_sbu_0, # of connection points: 6
#     Node 6, Type 0, BuildingBlock: BETDAH_clean_sbu_0, # of connection points: 6
#     Node 7, Type 0, BuildingBlock: BETDAH_clean_sbu_0, # of connection points: 6
#     Edge 8, Type (0, 0), BuildingBlock: XIVTED_clean_linker_0, # of connection points: 2
#     Edge 9, Type (0, 0), BuildingBlock: XIVTED_clean_linker_0, # of connection points: 2
#     Edge 10, Type (0, 0), BuildingBlock: XIVTED_clean_linker_0, # of connection points: 2
#     Edge 11, Type (0, 0), BuildingBlock: XIVTED_clean_linker_0, # of connection points: 2
#     Edge 12, Type (0, 0), BuildingBlock: XIVTED_clean_linker_0, # of connection points: 2
#     Edge 13, Type (0, 0), BuildingBlock: XIVTED_clean_linker_0, # of connection points: 2
#     Edge 14, Type (0, 0), BuildingBlock: XIVTED_clean_linker_0, # of connection points: 2
#     Edge 15, Type (0, 0), BuildingBlock: XIVTED_clean_linker_0, # of connection points: 2
#     Edge 16, Type (0, 0), BuildingBlock: XIVTED_clean_linker_0, # of connection points: 2
#     Edge 17, Type (0, 0), BuildingBlock: XIVTED_clean_linker_0, # of connection points: 2
#     Edge 18, Type (0, 0), BuildingBlock: XIVTED_clean_linker_0, # of connection points: 2
#     Edge 19, Type (0, 0), BuildingBlock: XIVTED_clean_linker_0, # of connection points: 2
#     Edge 20, Type (0, 0), BuildingBlock: XIVTED_clean_linker_0, # of connection points: 2
#     Edge 21, Type (0, 0), BuildingBlock: XIVTED_clean_linker_0, # of connection points: 2
#     Edge 22, Type (0, 0), BuildingBlock: XIVTED_clean_linker_0, # of connection points: 2
#     Edge 23, Type (0, 0), BuildingBlock: XIVTED_clean_linker_0, # of connection points: 2
#     Edge 24, Type (0, 0), BuildingBlock: XIVTED_clean_linker_0, # of connection points: 2
#     Edge 25, Type (0, 0), BuildingBlock: XIVTED_clean_linker_0, # of connection points: 2
#     Edge 26, Type (0, 0), BuildingBlock: XIVTED_clean_linker_0, # of connection points: 2
#     Edge 27, Type (0, 0), BuildingBlock: XIVTED_clean_linker_0, # of connection points: 2
#     Edge 28, Type (0, 0), BuildingBlock: XIVTED_clean_linker_0, # of connection points: 2
#     Edge 29, Type (0, 0), BuildingBlock: XIVTED_clean_linker_0, # of connection points: 2
#     Edge 30, Type (0, 0), BuildingBlock: XIVTED_clean_linker_0, # of connection points: 2
#     Edge 31, Type (0, 0), BuildingBlock: XIVTED_clean_linker_0, # of connection points: 2
# Relax obj value: 0.203
# Max RMSD: 0.219
# Mean RMSD: 0.219
data_MOF--net-vby--node1-BETDAH_clean_sbu_0--edge1-XIVTED_clean_linker_0
_symmetry_space_group_name_H-M    P1
_symmetry_Int_Tables_number       1
_symmetry_cell_setting            triclinic
loop_
_symmetry_equiv_pos_as_xyz
'x, y, z'
_cell_length_a     15.678283
_cell_length_b     103.39447
_cell_length_c     29.394718
_cell_angle_alpha  89.927146
_cell_angle_beta   84.757599
_cell_angle_gamma 89.973818
loop_
_atom_site_label
_atom_site_type_symbol
_atom_site_fract_x
_atom_site_fract_y
_atom_site_fract_z
_atom_type_partial_charge
Ho0 Ho 0.0758 0.40309 0.0031 0.0
Ho1 Ho 0.06066 0.37466 0.0211 0.0
C2 C 0.88809 0.38988 0.01962 0.0
C3 C 0.07239 0.42696 0.97447 0.0
C4 C 0.0515 0.44058 0.98711 0.0
C5 C 1.01319 0.44846 0.9558 0.0
C6 C 1.00429 0.46181 0.96309 0.0
C7 C 0.03375 0.46767 0.00196 0.0
C8 C 0.06952 0.45966 0.03415 0.0
C9 C 0.07834 0.44629 0.02682 0.0
C10 C 0.0785 0.39642 0.09281 0.0
C11 C 0.24866 0.38749 1.00037 0.0
C12 C 0.06752 0.35081 0.04931 0.0
C13 C 0.11448 0.33839 0.04171 0.0
C14 C 0.1351 0.33116 0.07963 0.0
C15 C 0.16937 0.31867 0.07417 0.0
C16 C 0.18373 0.31303 0.03053 0.0
C17 C 0.16558 0.32048 0.99237 0.0
C18 C 0.1313 0.333 0.99788 0.0
C19 C 0.049 0.38145 0.93257 0.0
O20 O 0.93488 0.39889 0.99701 0.0
O21 O 0.92531 0.3806 0.04163 0.0
O22 O 0.13729 0.42166 0.99209 0.0
O23 O 1.00986 0.41879 0.97084 0.0
O24 O 0.12124 0.40587 0.07323 0.0
O25 O 1.03105 0.39162 0.06504 0.0
O26 O 0.20311 0.37828 0.02231 0.0
O27 O 0.21026 0.39704 0.98049 0.0
O28 O 1.02094 0.35472 0.01735 0.0
O29 O 0.10619 0.36038 0.06796 0.0
O30 O 1.0066 0.37216 0.95345 0.0
O31 O 0.10112 0.38616 0.95832 0.0
H32 H 0.99298 0.44435 0.92463 0.0
H33 H 0.97741 0.46759 0.9372 0.0
H34 H 0.09168 0.46375 0.06486 0.0
H35 H 0.10835 0.44048 0.05158 0.0
H36 H 0.12252 0.33505 0.1138 0.0
H37 H 0.18392 0.31338 0.10434 0.0
H38 H 0.17495 0.31649 0.95825 0.0
H39 H 0.11574 0.3383 0.96792 0.0
Ho40 Ho 1.00079 0.65879 0.01532 0.0
Ho41 Ho 0.98388 0.63003 0.03102 0.0
C42 C 0.81207 0.646 0.03397 0.0
C43 C 0.99598 0.68274 0.98817 0.0
C44 C 0.94818 0.69514 0.99442 0.0
C45 C 0.92818 0.70209 0.95572 0.0
C46 C 0.89382 0.7146 0.95987 0.0
C47 C 0.87878 0.72056 0.00295 0.0
C48 C 0.89615 0.71339 0.04189 0.0
C49 C 0.93051 0.70085 0.0377 0.0
C50 C 1.00939 0.6513 0.1032 0.0
C51 C 0.17259 0.64317 0.01667 0.0
C52 C 0.98447 0.60601 0.05803 0.0
C53 C 1.00773 0.59244 0.04563 0.0
C54 C 0.04491 0.58464 0.0776 0.0
C55 C 0.05483 0.57129 0.07056 0.0
C56 C 1.02743 0.56535 0.03133 0.0
C57 C 0.99312 0.57328 0.99844 0.0
C58 C 0.98334 0.58666 0.0055 0.0
C59 C 0.98423 0.63755 0.94204 0.0
O60 O 0.85835 0.65535 0.01329 0.0
O61 O 0.84946 0.63621 0.05311 0.0
O62 O 0.03821 0.67875 0.02181 0.0
O63 O 0.96059 0.67322 0.96747 0.0
O64 O 0.05231 0.66077 0.08378 0.0
O65 O 0.95835 0.64678 0.07647 0.0
O66 O 0.12513 0.6339 0.03739 0.0
O67 O 0.1365 0.65282 0.99599 0.0
O68 O 0.92281 0.61134 0.03769 0.0
O69 O 0.04517 0.61422 0.06519 0.0
O70 O 0.94093 0.62791 0.95998 0.0
O71 O 1.03071 0.64199 0.97089 0.0
H72 H 0.94146 0.69796 0.92194 0.0
H73 H 0.87988 0.71966 0.92914 0.0
H74 H 0.88624 0.71763 0.07562 0.0
H75 H 0.94561 0.6958 0.06825 0.0
H76 H 0.0632 0.5888 0.10911 0.0
H77 H 0.08062 0.56556 0.09694 0.0
H78 H 0.97263 0.56913 0.96745 0.0
H79 H 0.95424 0.59238 0.98019 0.0
Ho80 Ho 0.04971 0.66006 0.52305 0.0
Ho81 Ho 0.06258 0.63126 0.51774 0.0
C82 C 0.23864 0.64626 0.50947 0.0
C83 C 0.05694 0.6845 0.54362 0.0
C84 C 0.10734 0.69663 0.53674 0.0
C85 C 0.12509 0.70389 0.5751 0.0
C86 C 0.16163 0.71624 0.5701 0.0
C87 C 0.18115 0.72171 0.52649 0.0
C88 C 0.16582 0.71424 0.48798 0.0
C89 C 0.12933 0.70186 0.49302 0.0
C90 C 0.03382 0.65052 0.43861 0.0
C91 C 0.87709 0.64485 0.52616 0.0
C92 C 0.05314 0.60643 0.50904 0.0
C93 C 0.04721 0.59208 0.50723 0.0
C94 C 0.05852 0.58529 0.4657 0.0
C95 C 0.05516 0.57169 0.46511 0.0
C96 C 0.04064 0.56458 0.50609 0.0
C97 C 1.02993 0.57147 0.54749 0.0
C98 C 0.03289 0.58498 0.54802 0.0
C99 C 0.07551 0.64159 0.60185 0.0
O100 O 0.19331 0.65679 0.52085 0.0
O101 O 0.20156 0.63517 0.50104 0.0
O102 O 1.01955 0.67999 0.50903 0.0
O103 O 0.0867 0.67531 0.56842 0.0
O104 O 0.9924 0.66042 0.45604 0.0
O105 O 0.08675 0.64655 0.46548 0.0
O106 O 0.92401 0.63536 0.5069 0.0
O107 O 0.91387 0.65477 0.54477 0.0
O108 O 1.02835 0.61264 0.54654 0.0
O109 O 0.08112 0.61386 0.47476 0.0
O110 O 0.12447 0.63253 0.58381 0.0
O111 O 1.02223 0.64481 0.57429 0.0
H112 H 0.10782 0.70019 0.6092 0.0
H113 H 0.17136 0.7217 0.60061 0.0
H114 H 0.18119 0.71801 0.45383 0.0
H115 H 0.11636 0.69654 0.4627 0.0
H116 H 0.06993 0.59047 0.43369 0.0
H117 H 0.06302 0.56677 0.43251 0.0
H118 H 1.02065 0.56643 0.57986 0.0
H119 H 1.02507 0.58987 0.58072 0.0
Ho120 Ho 0.99558 0.40252 0.52425 0.0
Ho121 Ho 1.0136 0.37422 0.50702 0.0
C122 C 0.18515 0.38979 0.50769 0.0
C123 C 0.99563 0.42639 0.55246 0.0
C124 C 1.0214 0.43991 0.54152 0.0
C125 C 0.03991 0.44808 0.57739 0.0
C126 C 0.04977 0.4614 0.57041 0.0
C127 C 0.0414 0.46693 0.52725 0.0
C128 C 1.02728 0.45864 0.49066 0.0
C129 C 1.01694 0.44526 0.49777 0.0
C130 C 0.99431 0.39574 0.43465 0.0
C131 C 0.82427 0.38668 0.52672 0.0
C132 C 1.00773 0.35029 0.47991 0.0
C133 C 0.95962 0.33797 0.48774 0.0
C134 C 0.9318 0.33131 0.45021 0.0
C135 C 0.89625 0.3189 0.45545 0.0
C136 C 0.88789 0.31276 0.49845 0.0
C137 C 0.91325 0.31963 0.53633 0.0
C138 C 0.94871 0.33207 0.53106 0.0
C139 C 1.02346 0.38116 0.59545 0.0
O140 O 0.13757 0.39891 0.5291 0.0
O141 O 0.14892 0.38021 0.48677 0.0
O142 O 0.9365 0.42137 0.52952 0.0
O143 O 0.05428 0.41799 0.56118 0.0
O144 O 0.94956 0.405 0.45417 0.0
O145 O 0.04241 0.39111 0.46251 0.0
O146 O 0.87099 0.37756 0.50506 0.0
O147 O 0.8615 0.3963 0.54669 0.0
O148 O 0.05301 0.35429 0.51225 0.0
O149 O 0.97061 0.35982 0.46005 0.0
O150 O 0.06784 0.37205 0.57475 0.0
O151 O 0.97086 0.38566 0.56949 0.0
H152 H 0.04328 0.4442 0.61146 0.0
H153 H 0.06208 0.46744 0.59917 0.0
H154 H 1.02016 0.46256 0.45703 0.0
H155 H 1.00219 0.43919 0.46952 0.0
H156 H 0.93972 0.33558 0.4164 0.0
H157 H 0.8761 0.31406 0.42559 0.0
H158 H 0.90868 0.31524 0.56991 0.0
H159 H 0.96985 0.33689 0.56073 0.0
Ho160 Ho 0.5726 0.9037 0.00514 0.0
Ho161 Ho 0.55541 0.87529 0.02298 0.0
C162 C 0.38395 0.89072 0.02046 0.0
C163 C 0.57051 0.92757 0.97645 0.0
C164 C 0.54917 0.94117 0.98926 0.0
C165 C 0.51072 0.94907 0.95806 0.0
C166 C 0.50166 0.96241 0.96556 0.0
C167 C 0.53122 0.96822 0.00448 0.0
C168 C 0.56685 0.96018 0.0366 0.0
C169 C 0.57576 0.94682 0.0291 0.0
C170 C 0.57266 0.89702 0.09497 0.0
C171 C 0.74439 0.88786 0.00332 0.0
C172 C 0.56046 0.85142 0.05116 0.0
C173 C 0.60775 0.83899 0.04457 0.0
C174 C 0.62823 0.832 0.08309 0.0
C175 C 0.66235 0.81948 0.07868 0.0
C176 C 0.67669 0.81356 0.03552 0.0
C177 C 0.65888 0.82076 0.99674 0.0
C178 C 0.62473 0.83331 1.0012 0.0
C179 C 0.54647 0.88216 0.93432 0.0
O180 O 0.43173 0.89969 0.99829 0.0
O181 O 0.41999 0.88133 0.04252 0.0
O182 O 0.63471 0.92224 0.99463 0.0
O183 O 0.50818 0.91941 0.97214 0.0
O184 O 0.61642 0.90641 0.07563 0.0
O185 O 0.52572 0.89228 0.06683 0.0
O186 O 0.69788 0.8787 0.02491 0.0
O187 O 0.70708 0.8975 0.98337 0.0
O188 O 0.5164 0.85534 0.01816 0.0
O189 O 0.59746 0.86099 0.07079 0.0
O190 O 0.5027 0.87294 0.95485 0.0
O191 O 0.59812 0.88676 0.96053 0.0
H192 H 0.49061 0.94499 0.92682 0.0
H193 H 0.47476 0.96824 0.93977 0.0
H194 H 0.58904 0.96424 0.06735 0.0
H195 H 0.60576 0.94099 0.05381 0.0
H196 H 0.61553 0.83611 0.11694 0.0
H197 H 0.67668 0.8144 0.10929 0.0
H198 H 0.66829 0.81655 0.96296 0.0
H199 H 0.6093 0.8384 0.97079 0.0
Ho200 Ho 0.50116 0.15837 0.00714 0.0
Ho201 Ho 0.49003 0.13013 0.02931 0.0
C202 C 0.31436 0.14511 0.02788 0.0
C203 C 0.49254 0.18182 0.9753 0.0
C204 C 0.44766 0.19438 0.98336 0.0
C205 C 0.42671 0.2017 0.94571 0.0
C206 C 0.39349 0.21424 0.95156 0.0
C207 C 0.3805 0.21984 0.99532 0.0
C208 C 0.3991 0.2123 0.03322 0.0
C209 C 0.43236 0.19973 0.02732 0.0
C210 C 0.51106 0.15287 0.09713 0.0
C211 C 0.67409 0.14391 0.01312 0.0
C212 C 0.50128 0.10683 0.06246 0.0
C213 C 0.51132 0.09296 0.05037 0.0
C214 C 0.55154 0.08477 0.0799 0.0
C215 C 0.5558 0.07141 0.07221 0.0
C216 C 0.5199 0.06585 0.03461 0.0
C217 C 0.4809 0.07415 0.00445 0.0
C218 C 0.47663 0.08757 0.01225 0.0
C219 C 0.48591 0.13531 0.93829 0.0
O220 O 0.3594 0.15443 0.00632 0.0
O221 O 0.3527 0.13554 0.04769 0.0
O222 O 0.5445 0.17821 0.00516 0.0
O223 O 0.44933 0.17212 0.96052 0.0
O224 O 0.55171 0.16215 0.07521 0.0
O225 O 0.46147 0.1475 0.07147 0.0
O226 O 0.62716 0.13562 0.03893 0.0
O227 O 0.63677 0.15236 0.98768 0.0
O228 O 0.4294 0.11243 0.05494 0.0
O229 O 0.56704 0.11443 0.05341 0.0
O230 O 0.44834 0.12566 0.95972 0.0
O231 O 0.53168 0.14098 0.96516 0.0
H232 H 0.43802 0.19782 0.91146 0.0
H233 H 0.37852 0.21958 0.9216 0.0
H234 H 0.39073 0.21626 0.06742 0.0
H235 H 0.44818 0.19434 0.05704 0.0
H236 H 0.57803 0.08868 0.10977 0.0
H237 H 0.58511 0.06541 0.09666 0.0
H238 H 0.45353 0.0703 0.97481 0.0
H239 H 0.44517 0.09368 0.98892 0.0
Ho240 Ho 0.55569 0.15901 0.52518 0.0
Ho241 Ho 0.56353 0.13064 0.50377 0.0
C242 C 0.74178 0.145 0.50644 0.0
C243 C 0.56623 0.18236 0.55718 0.0
C244 C 0.61177 0.19486 0.54888 0.0
C245 C 0.63972 0.20164 0.58609 0.0
C246 C 0.67372 0.21414 0.58047 0.0
C247 C 0.6804 0.22023 0.5374 0.0
C248 C 0.65479 0.21324 0.49981 0.0
C249 C 0.62083 0.20071 0.50547 0.0
C250 C 0.54573 0.15351 0.43529 0.0
C251 C 0.38242 0.14505 0.51805 0.0
C252 C 0.54256 0.1075 0.47147 0.0
C253 C 0.54459 0.09347 0.48132 0.0
C254 C 0.50091 0.08512 0.45397 0.0
C255 C 0.50194 0.07175 0.46103 0.0
C256 C 0.54689 0.06633 0.49575 0.0
C257 C 0.58967 0.07478 0.52378 0.0
C258 C 0.58869 0.08824 0.51656 0.0
C259 C 0.57023 0.13597 0.59426 0.0
O260 O 0.6974 0.15488 0.52474 0.0
O261 O 0.70353 0.13491 0.48972 0.0
O262 O 0.5131 0.17888 0.52776 0.0
O263 O 0.60928 0.17258 0.57161 0.0
O264 O 0.5067 0.163 0.45677 0.0
O265 O 0.59389 0.14794 0.46132 0.0
O266 O 0.42956 0.13703 0.49136 0.0
O267 O 0.41971 0.1532 0.54447 0.0
O268 O 0.61505 0.11377 0.46675 0.0
O269 O 0.48149 0.11424 0.49318 0.0
O270 O 0.60707 0.12622 0.57301 0.0
O271 O 0.5243 0.1417 0.56749 0.0
H272 H 0.6333 0.19737 0.61993 0.0
H273 H 0.69416 0.21906 0.61009 0.0
H274 H 0.65816 0.2176 0.46618 0.0
H275 H 0.59958 0.19576 0.47609 0.0
H276 H 0.46595 0.08896 0.4268 0.0
H277 H 0.46682 0.06564 0.43936 0.0
H278 H 0.62531 0.07097 0.55068 0.0
H279 H 0.62268 0.09452 0.53819 0.0
Ho280 Ho 0.49338 0.90435 0.5269 0.0
Ho281 Ho 0.5084 0.87594 0.50854 0.0
C282 C 0.68093 0.89106 0.51107 0.0
C283 C 0.49705 0.92813 0.556 0.0
C284 C 0.51822 0.94175 0.5433 0.0
C285 C 0.56324 0.94929 0.57277 0.0
C286 C 0.57309 0.96264 0.56578 0.0
C287 C 0.53776 0.96884 0.52914 0.0
C288 C 0.49526 0.96116 0.49864 0.0
C289 C 0.48551 0.94779 0.50565 0.0
C290 C 0.49246 0.89784 0.43698 0.0
C291 C 0.32042 0.88879 0.52899 0.0
C292 C 0.50195 0.8522 0.47954 0.0
C293 C 0.45385 0.83987 0.4861 0.0
C294 C 0.43778 0.83256 0.44762 0.0
C295 C 0.4021 0.82015 0.45245 0.0
C296 C 0.38177 0.81469 0.49602 0.0
C297 C 0.39564 0.82221 0.53464 0.0
C298 C 0.4312 0.83466 0.52976 0.0
C299 C 0.51845 0.88256 0.59728 0.0
O300 O 0.63397 0.90004 0.53369 0.0
O301 O 0.64398 0.88184 0.48879 0.0
O302 O 0.43184 0.92288 0.53856 0.0
O303 O 0.55952 0.91993 0.55942 0.0
O304 O 0.44957 0.9073 0.45638 0.0
O305 O 0.53904 0.89297 0.46508 0.0
O306 O 0.36602 0.87959 0.50707 0.0
O307 O 0.3587 0.89831 0.54896 0.0
O308 O 0.54663 0.85593 0.51251 0.0
O309 O 0.46502 0.86189 0.46044 0.0
O310 O 0.56121 0.87329 0.57655 0.0
O311 O 0.46704 0.88734 0.57124 0.0
H312 H 0.58863 0.94491 0.60221 0.0
H313 H 0.60762 0.96813 0.58951 0.0
H314 H 0.4665 0.96554 0.47026 0.0
H315 H 0.4499 0.94227 0.48245 0.0
H316 H 0.4554 0.83629 0.41359 0.0
H317 H 0.39344 0.81465 0.42188 0.0
H318 H 0.37961 0.81845 0.56874 0.0
H319 H 0.44277 0.84006 0.56013 0.0
H320 H 0.36375 0.40493 0.95937 0.0
H321 H 0.77213 0.37263 0.06066 0.0
H322 H 0.35089 0.37024 0.04156 0.0
H323 H 0.78746 0.40665 0.97508 0.0
H324 H 0.61785 0.37178 0.05463 0.0
H325 H 0.51857 0.40568 0.96428 0.0
C326 C 0.3934 0.3974 0.97818 0.0
C327 C 0.34375 0.38749 1.00004 0.0
C328 C 0.65483 0.37946 0.03723 0.0
C329 C 0.52174 0.38838 0.00618 0.0
C330 C 0.74314 0.37998 0.04079 0.0
C331 C 0.79331 0.38975 0.01842 0.0
C332 C 0.61574 0.38876 0.01108 0.0
C333 C 0.75163 0.39896 0.99305 0.0
C334 C 0.48198 0.39787 0.98109 0.0
C335 C 0.38624 0.37806 0.02404 0.0
N336 N 0.66553 0.39823 0.99003 0.0
N337 N 0.47244 0.37876 0.02657 0.0
H338 H 0.27159 0.62546 0.05805 0.0
H339 H 0.71146 0.66405 0.99569 0.0
H340 H 0.28981 0.66083 0.97956 0.0
H341 H 0.69573 0.62817 0.0713 0.0
H342 H 0.55662 0.66326 0.99106 0.0
H343 H 0.42633 0.62631 0.06378 0.0
C344 C 0.30804 0.63337 0.04177 0.0
C345 C 0.26723 0.64307 0.01821 0.0
C346 C 0.58695 0.65557 0.00882 0.0
C347 C 0.44488 0.64417 0.02501 0.0
C348 C 0.67551 0.65605 0.01164 0.0
C349 C 0.71711 0.64617 0.03396 0.0
C350 C 0.5391 0.64514 0.0284 0.0
C351 C 0.6667 0.63603 0.05378 0.0
C352 C 0.39649 0.63387 0.04519 0.0
C353 C 0.31817 0.6531 0.99802 0.0
N354 N 0.58066 0.63576 0.05044 0.0
N355 N 0.40396 0.6534 0.00196 0.0
H356 H 0.77773 0.62598 0.49212 0.0
H357 H 0.34018 0.66626 0.5343 0.0
H358 H 0.76125 0.6637 0.55515 0.0
H359 H 0.35378 0.62705 0.48373 0.0
H360 H 0.49538 0.66599 0.53828 0.0
H361 H 0.62334 0.62655 0.486 0.0
C362 C 0.7417 0.63436 0.50488 0.0
C363 C 0.78277 0.64479 0.5243 0.0
C364 C 0.46439 0.65746 0.52617 0.0
C365 C 0.60557 0.64556 0.51701 0.0
C366 C 0.37571 0.65763 0.52367 0.0
C367 C 0.3335 0.64665 0.50872 0.0
C368 C 0.51152 0.64626 0.51352 0.0
C369 C 0.38325 0.63574 0.49558 0.0
C370 C 0.65344 0.6347 0.50128 0.0
C371 C 0.73247 0.65541 0.54006 0.0
N372 N 0.46935 0.63581 0.49836 0.0
N373 N 0.64672 0.65553 0.53599 0.0
H374 H 0.7243 0.3689 0.48686 0.0
H375 H 0.28378 0.40727 0.55005 0.0
H376 H 0.70732 0.40427 0.56503 0.0
H377 H 0.30281 0.37232 0.46958 0.0
H378 H 0.43834 0.40634 0.5562 0.0
H379 H 0.56962 0.36978 0.48164 0.0
C380 C 0.6881 0.37681 0.50326 0.0
C381 C 0.72932 0.38652 0.52647 0.0
C382 C 0.40875 0.39889 0.53707 0.0
C383 C 0.55148 0.38765 0.52022 0.0
C384 C 0.32039 0.39945 0.53339 0.0
C385 C 0.27984 0.38988 0.50916 0.0
C386 C 0.45735 0.38868 0.51648 0.0
C387 C 0.33098 0.37995 0.48854 0.0
C388 C 0.59963 0.37733 0.5001 0.0
C389 C 0.6786 0.39654 0.54684 0.0
N390 N 0.41671 0.3796 0.49274 0.0
N391 N 0.59266 0.39686 0.54314 0.0
H392 H 0.84454 0.87008 0.04321 0.0
H393 H 0.28556 0.90799 0.97682 0.0
H394 H 0.86123 0.90537 0.96427 0.0
H395 H 0.26623 0.8734 0.05952 0.0
H396 H 0.13086 0.90711 0.97105 0.0
H397 H 0.99943 0.87084 0.04769 0.0
C398 C 0.88071 0.87794 0.0265 0.0
C399 C 0.83936 0.88766 0.0033 0.0
C400 C 0.16044 0.89973 0.99057 0.0
C401 C 1.01745 0.88867 0.00866 0.0
C402 C 0.24887 0.90025 0.99401 0.0
C403 C 0.28934 0.89078 0.01879 0.0
C404 C 0.11171 0.88964 0.01195 0.0
C405 C 0.23811 0.88095 0.04011 0.0
C406 C 0.9693 0.87841 0.02923 0.0
C407 C 0.89005 0.89763 0.9825 0.0
N408 N 0.15232 0.88063 0.03614 0.0
N409 N 0.97613 0.89789 0.98576 0.0
H410 H 0.19858 0.12795 0.07007 0.0
H411 H 0.79086 0.16055 0.96913 0.0
H412 H 0.21291 0.16237 0.98641 0.0
H413 H 0.77348 0.12776 0.0605 0.0
H414 H 0.94571 0.16111 0.97397 0.0
H415 H 0.04327 0.12762 0.06666 0.0
C416 C 0.16918 0.13549 0.05118 0.0
C417 C 0.21931 0.14521 0.02851 0.0
C418 C 0.90808 0.15378 0.99295 0.0
C419 C 0.04091 0.14481 0.02414 0.0
C420 C 0.81951 0.15343 0.99008 0.0
C421 C 0.76873 0.14408 0.01438 0.0
C422 C 0.94666 0.1447 0.02025 0.0
C423 C 0.80983 0.13514 0.0411 0.0
C424 C 0.08034 0.13527 0.04917 0.0
C425 C 0.17718 0.15469 0.00451 0.0
N426 N 0.89614 0.13567 0.04329 0.0
N427 N 0.09074 0.15422 0.00284 0.0
H428 H 0.26511 0.16155 0.5623 0.0
H429 H 0.85803 0.12764 0.46592 0.0
H430 H 0.28389 0.12888 0.4707 0.0
H431 H 0.84271 0.16273 0.54566 0.0
H432 H 1.01359 0.12769 0.46832 0.0
H433 H 0.10994 0.16178 0.55826 0.0
C434 C 0.2367 0.1544 0.54142 0.0
C435 C 0.28789 0.14518 0.51682 0.0
C436 C 0.97623 0.1354 0.48518 0.0
C437 C 0.10979 0.1454 0.51199 0.0
C438 C 0.88723 0.13538 0.48382 0.0
C439 C 0.8368 0.14519 0.50567 0.0
C440 C 1.0154 0.14525 0.50881 0.0
C441 C 0.87866 0.15497 0.52826 0.0
C442 C 0.14798 0.15457 0.53903 0.0
C443 C 0.24721 0.13618 0.49025 0.0
N444 N 0.96525 0.15472 0.52939 0.0
N445 N 0.16075 0.13651 0.48861 0.0
H446 H 0.7969 0.87391 0.46971 0.0
H447 H 0.2054 0.90613 0.57048 0.0
H448 H 0.78136 0.90774 0.55597 0.0
H449 H 0.21822 0.87159 0.48777 0.0
H450 H 0.05046 0.90683 0.56606 0.0
H451 H 0.9512 0.87308 0.47547 0.0
C452 C 0.82585 0.88122 0.4897 0.0
C453 C 0.77564 0.89093 0.51232 0.0
C454 C 0.08707 0.89907 0.54902 0.0
C455 C 0.95324 0.88997 0.51932 0.0
C456 C 0.17571 0.89863 0.55165 0.0
C457 C 0.22536 0.88877 0.52949 0.0
C458 C 0.04728 0.88961 0.52394 0.0
C459 C 0.18286 0.87937 0.5055 0.0
C460 C 0.91418 0.88071 0.49309 0.0
C461 C 0.81726 0.9001 0.53781 0.0
N462 N 0.09659 0.88005 0.50325 0.0
N463 N 0.90341 0.89938 0.54065 0.0
H464 H 0.1529 0.54841 0.05427 0.0
H465 H 0.90727 0.48464 0.98062 0.0
H466 H 0.90955 0.5492 0.99656 0.0
H467 H 0.15286 0.4838 0.036 0.0
H468 H 0.90672 0.50822 0.98669 0.0
H469 H 0.1536 0.52481 0.04842 0.0
C470 C 0.09946 0.54365 0.04043 0.0
C471 C 1.03103 0.55092 0.02592 0.0
C472 C 0.9607 0.50288 0.99761 0.0
C473 C 0.03172 0.52372 0.01888 0.0
C474 C 0.96127 0.48937 0.99398 0.0
C475 C 1.03032 0.48209 0.00771 0.0
C476 C 1.02971 0.50929 0.01509 0.0
C477 C 0.09761 0.48889 0.0255 0.0
C478 C 0.1001 0.53014 0.03693 0.0
C479 C 0.96435 0.54411 0.00763 0.0
N480 N 0.09568 0.50205 0.02854 0.0
N481 N 0.9663 0.53096 0.00477 0.0
H482 H 0.11916 0.48165 0.4565 0.0
H483 H 0.93615 0.54874 0.56191 0.0
H484 H 0.9635 0.48507 0.58472 0.0
H485 H 0.13578 0.54714 0.45071 0.0
H486 H 0.9365 0.52522 0.56565 0.0
H487 H 0.11722 0.50534 0.44882 0.0
C488 C 0.08447 0.48735 0.48297 0.0
C489 C 0.042 0.48131 0.52152 0.0
C490 C 0.98033 0.52999 0.54039 0.0
C491 C 0.03914 0.50843 0.5128 0.0
C492 C 0.98053 0.54348 0.53834 0.0
C493 C 0.03687 0.55008 0.50632 0.0
C494 C 0.03638 0.52285 0.50999 0.0
C495 C 0.09083 0.54256 0.47584 0.0
C496 C 0.0837 0.50088 0.47865 0.0
C497 C 0.99841 0.48925 0.5548 0.0
N498 N 0.08943 0.52938 0.47852 0.0
N499 N 0.99797 0.50232 0.5496 0.0
H500 H 0.65233 0.98409 0.03747 0.0
H501 H 0.39494 0.05011 0.00391 0.0
H502 H 0.40504 0.98541 0.98409 0.0
H503 H 0.64808 0.04856 0.05038 0.0
H504 H 0.39686 0.02653 0.99648 0.0
H505 H 0.64974 1.00763 0.04415 0.0
C506 C 0.59697 0.98929 0.02755 0.0
C507 C 0.52868 0.98264 0.01027 0.0
C508 C 0.45204 0.03136 0.00825 0.0
C509 C 0.52598 1.00983 0.01722 0.0
C510 C 0.45132 0.04487 0.01219 0.0
C511 C 0.52139 0.05146 0.02794 0.0
C512 C 0.52331 0.02428 0.02016 0.0
C513 C 0.59188 0.04399 0.03882 0.0
C514 C 0.59591 1.00279 0.03102 0.0
C515 C 0.45965 0.99005 0.99714 0.0
N516 N 0.59091 0.03087 0.03481 0.0
N517 N 0.46007 1.00319 1.00091 0.0
H518 H 0.53704 0.05222 0.57595 0.0
H519 H 0.56098 0.9832 0.44973 0.0
H520 H 0.5623 0.04752 0.4295 0.0
H521 H 0.52473 0.98754 0.59625 0.0
H522 H 0.56464 1.00673 0.44197 0.0
H523 H 0.53728 0.02863 0.58443 0.0
C524 C 0.54322 0.04626 0.54556 0.0
C525 C 0.5493 0.05195 0.50192 0.0
C526 C 0.55607 1.00255 0.47586 0.0
C527 C 0.54896 0.02483 0.51141 0.0
C528 C 0.55352 0.98906 0.48033 0.0
C529 C 0.54259 0.98325 0.52375 0.0
C530 C 0.54758 1.0104 0.51505 0.0
C531 C 0.53464 0.99148 0.56207 0.0
C532 C 0.54281 0.03276 0.55043 0.0
C533 C 0.55607 0.04365 0.46386 0.0
N534 N 0.53716 1.00458 0.55681 0.0
N535 N 0.55569 0.03058 0.46949 0.0
H536 H 0.29649 0.3026 0.96255 0.0
H537 H 0.26923 0.2303 0.06391 0.0
H538 H 0.14141 0.292 0.08584 0.0
H539 H 0.42295 0.24088 0.94017 0.0
H540 H 0.22284 0.25283 0.0729 0.0
H541 H 0.34333 0.28009 0.95381 0.0
C542 C 0.27192 0.29557 0.98775 0.0
C543 C 0.21475 0.29933 0.02507 0.0
C544 C 0.26665 0.25022 0.04373 0.0
C545 C 0.2691 0.27338 0.01538 0.0
C546 C 0.29362 0.23733 0.03867 0.0
C547 C 0.35019 0.23356 1.00113 0.0
C548 C 0.29641 0.25953 0.01111 0.0
C549 C 0.37832 0.24319 0.9693 0.0
C550 C 0.29915 0.28269 0.98284 0.0
C551 C 0.18647 0.2897 0.05688 0.0
N552 N 0.35132 0.25566 0.97504 0.0
N553 N 0.21374 0.27723 0.05127 0.0
H554 H 0.63267 0.79297 0.0925 0.0
H555 H 0.92293 0.74113 0.94586 0.0
H556 H 0.78926 0.80253 0.9686 0.0
H557 H 0.76544 0.73158 0.06948 0.0
H558 H 0.87402 0.76353 0.9533 0.0
H559 H 0.68137 0.77057 0.08489 0.0
C560 C 0.67788 0.79043 0.06385 0.0
C561 C 0.70698 0.79979 0.03127 0.0
C562 C 0.85001 0.75654 0.9788 0.0
C563 C 0.76234 0.77389 0.02197 0.0
C564 C 0.87747 0.74367 0.97441 0.0
C565 C 0.84823 0.73431 0.00697 0.0
C566 C 0.79265 0.76021 0.01608 0.0
C567 C 0.7907 0.7384 0.04372 0.0
C568 C 0.70522 0.77756 0.05936 0.0
C569 C 0.76417 0.79571 0.99438 0.0
N570 N 0.76489 0.75098 0.04721 0.0
N571 N 0.78991 0.78312 0.99081 0.0
H572 H 0.29583 0.73429 0.57695 0.0
H573 H 0.26838 0.80204 0.44501 0.0
H574 H 0.14072 0.74035 0.46484 0.0
H575 H 0.42161 0.79609 0.55796 0.0
H576 H 0.22154 0.77951 0.45155 0.0
H577 H 0.34283 0.75681 0.57036 0.0
C578 C 0.2714 0.74033 0.55098 0.0
C579 C 0.21391 0.73531 0.52146 0.0
C580 C 0.2653 0.78313 0.47498 0.0
C581 C 0.2683 0.76126 0.51353 0.0
C582 C 0.29245 0.79602 0.47115 0.0
C583 C 0.34934 0.80107 0.50092 0.0
C584 C 0.29518 0.77511 0.50878 0.0
C585 C 0.37695 0.79275 0.53457 0.0
C586 C 0.29863 0.75322 0.54712 0.0
C587 C 0.18587 0.74366 0.48802 0.0
N588 N 0.34987 0.78023 0.53747 0.0
N589 N 0.21307 0.75617 0.48507 0.0
H590 H 0.91908 0.29237 0.43894 0.0
H591 H 0.6486 0.24065 0.59668 0.0
H592 H 0.78445 0.30177 0.56937 0.0
H593 H 0.78199 0.23129 0.4659 0.0
H594 H 0.69839 0.26296 0.58746 0.0
H595 H 0.86848 0.27009 0.44789 0.0
C596 C 0.87825 0.28982 0.46933 0.0
C597 C 0.85598 0.2991 0.50335 0.0
C598 C 0.71688 0.25603 0.56076 0.0
C599 C 0.7986 0.27334 0.51416 0.0
C600 C 0.68895 0.24322 0.56614 0.0
C601 C 0.71122 0.23394 0.53213 0.0
C602 C 0.76772 0.25973 0.52103 0.0
C603 C 0.76223 0.23805 0.49289 0.0
C604 C 0.84986 0.27702 0.47456 0.0
C605 C 0.80429 0.29501 0.54239 0.0
N606 N 0.78871 0.25058 0.48849 0.0
N607 N 0.77746 0.28249 0.54667 0.0
H608 H 0.19644 0.40098 0.15329 0.0
H609 H 0.87525 0.39957 0.37429 0.0
H610 H 0.93778 0.38755 0.14621 0.0
H611 H 0.13779 0.38793 0.3811 0.0
H612 H 0.89565 0.39801 0.29058 0.0
H613 H 0.17677 0.39907 0.23696 0.0
C614 C 0.13569 0.39757 0.1694 0.0
C615 C 0.06863 0.39442 0.14292 0.0
C616 C 0.94849 0.39569 0.31046 0.0
C617 C 0.04514 0.39251 0.23837 0.0
C618 C 0.93703 0.39662 0.3581 0.0
C619 C 1.00493 0.39387 0.38452 0.0
C620 C 1.0292 0.39238 0.28901 0.0
C621 C 0.08373 0.39008 0.36192 0.0
C622 C 0.12467 0.39644 0.21701 0.0
C623 C 0.99117 0.39003 0.16542 0.0
N624 N 0.09419 0.38965 0.31538 0.0
N625 N 0.98101 0.3894 0.21194 0.0
H626 H 0.8826 0.64102 0.16351 0.0
H627 H 0.16544 0.64197 0.3776 0.0
H628 H 0.1455 0.65371 0.15304 0.0
H629 H 0.89598 0.65102 0.38969 0.0
H630 H 0.16056 0.63941 0.29444 0.0
H631 H 0.8888 0.6379 0.24636 0.0
C632 C 0.94189 0.64292 0.17854 0.0
C633 C 1.01336 0.64776 0.15172 0.0
C634 C 0.10235 0.64174 0.31556 0.0
C635 C 1.02142 0.64401 0.24562 0.0
C636 C 0.10504 0.64312 0.36287 0.0
C637 C 1.03112 0.6468 0.39024 0.0
C638 C 1.02481 0.64376 0.29595 0.0
C639 C 0.95448 0.64828 0.36954 0.0
C640 C 0.94534 0.64119 0.22566 0.0
C641 C 0.08871 0.65011 0.17276 0.0
N642 N 0.95323 0.64677 0.32366 0.0
N643 N 0.09085 0.64821 0.21843 0.0
H644 H 0.86977 0.63298 0.87973 0.0
H645 H 0.19648 0.63993 0.66235 0.0
H646 H 0.12272 0.64819 0.89167 0.0
H647 H 0.92814 0.6478 0.65475 0.0
H648 H 0.17367 0.64095 0.74608 0.0
H649 H 0.89093 0.6362 0.79668 0.0
C650 C 0.92957 0.63706 0.86481 0.0
C651 C 0.99468 0.6403 0.89245 0.0
C652 C 0.12008 0.64262 0.72603 0.0
C653 C 1.01988 0.64376 0.79765 0.0
C654 C 0.13299 0.64203 0.67837 0.0
C655 C 0.0641 0.6438 0.65174 0.0
C656 C 0.03718 0.64462 0.7472 0.0
C657 C 0.98302 0.64644 0.67409 0.0
C658 C 0.94143 0.63894 0.81755 0.0
C659 C 0.0709 0.64559 0.8715 0.0
N660 N 0.97144 0.64655 0.7206 0.0
N661 N 0.08201 0.64696 0.82523 0.0
H662 H 0.16296 0.37947 0.64294 0.0
H663 H 0.90989 0.37901 0.88513 0.0
H664 H 0.8954 0.38968 0.65896 0.0
H665 H 0.1751 0.3905 0.86891 0.0
H666 H 0.90238 0.38165 0.80273 0.0
H667 H 0.16982 0.38226 0.72531 0.0
C668 C 0.10578 0.38242 0.66387 0.0
C669 C 1.02839 0.3843 0.64426 0.0
C670 C 0.96191 0.38377 0.81722 0.0
C671 C 0.0354 0.38724 0.73864 0.0
C672 C 0.96639 0.38221 0.86416 0.0
C673 C 0.04335 0.38449 0.88371 0.0
C674 C 0.03565 0.38727 0.7893 0.0
C675 C 0.11456 0.38866 0.85511 0.0
C676 C 0.10988 0.38406 0.71078 0.0
C677 C 0.95629 0.38816 0.67279 0.0
N678 N 0.10948 0.38968 0.80914 0.0
N679 N 0.9611 0.38926 0.71876 0.0
H680 H 0.42826 0.88901 0.14722 0.0
H681 H 0.63402 0.88876 0.38506 0.0
H682 H 0.68912 0.9011 0.15666 0.0
H683 H 0.37699 0.9026 0.37509 0.0
H684 H 0.65418 0.88727 0.30117 0.0
H685 H 0.40734 0.88798 0.23126 0.0
C686 C 0.48137 0.89127 0.16697 0.0
C687 C 0.56045 0.89521 0.14513 0.0
C688 C 0.59324 0.89053 0.3175 0.0
C689 C 0.53744 0.8938 0.2407 0.0
C690 C 0.58156 0.89133 0.36523 0.0
C691 C 0.50387 0.89588 0.38688 0.0
C692 C 0.52591 0.89394 0.29142 0.0
C693 C 0.43802 0.89912 0.35961 0.0
C694 C 0.46926 0.89074 0.21476 0.0
C695 C 0.62707 0.8981 0.17228 0.0
N696 N 0.45029 0.89802 0.31329 0.0
N697 N 0.6143 0.89727 0.21865 0.0
H698 H 0.38406 0.14414 0.16078 0.0
H699 H 0.671 0.14399 0.37229 0.0
H700 H 0.64814 0.15624 0.14591 0.0
H701 H 0.40944 0.15731 0.38619 0.0
H702 H 0.66291 0.142 0.28909 0.0
H703 H 0.39185 0.14248 0.24411 0.0
C704 C 0.44389 0.14624 0.17498 0.0
C705 C 0.51539 0.15043 0.1466 0.0
C706 C 0.60714 0.14522 0.31058 0.0
C707 C 0.52525 0.14829 0.24121 0.0
C708 C 0.61162 0.1463 0.35792 0.0
C709 C 0.54097 0.15092 0.38596 0.0
C710 C 0.5307 0.1484 0.29152 0.0
C711 C 0.46556 0.15382 0.36562 0.0
C712 C 0.44821 0.14535 0.22239 0.0
C713 C 0.59138 0.15308 0.16673 0.0
N714 N 0.46221 0.15246 0.31974 0.0
N715 N 0.5945 0.15192 0.2127 0.0
H716 H 0.45821 0.11627 0.87766 0.0
H717 H 0.51657 0.15681 0.64825 0.0
H718 H 0.54038 0.15599 0.88333 0.0
H719 H 0.59846 0.11711 0.65578 0.0
H720 H 0.49781 0.15749 0.7327 0.0
H721 H 0.47988 0.11709 0.79431 0.0
C722 C 0.4805 0.12521 0.86136 0.0
C723 C 0.49803 0.13606 0.88758 0.0
C724 C 0.52015 0.14868 0.71563 0.0
C725 C 0.52139 0.13711 0.79173 0.0
C726 C 0.53049 0.14826 0.6676 0.0
C727 C 0.55907 0.13688 0.64496 0.0
C728 C 0.53614 0.13752 0.74093 0.0
C729 C 0.57644 0.12609 0.67169 0.0
C730 C 0.49309 0.12564 0.81375 0.0
C731 C 0.5267 0.14738 0.86438 0.0
N732 N 0.56371 0.12663 0.71804 0.0
N733 N 0.53687 0.14766 0.81766 0.0
H734 H 0.39057 0.89172 0.6594 0.0
H735 H 0.67552 0.89107 0.87232 0.0
H736 H 0.65518 0.87983 0.64656 0.0
H737 H 0.40942 0.87998 0.88503 0.0
H738 H 0.66922 0.89346 0.78915 0.0
H739 H 0.39717 0.89393 0.74258 0.0
C740 C 0.45027 0.88979 0.67401 0.0
C741 C 0.52223 0.88548 0.64634 0.0
C742 C 0.61208 0.89066 0.81038 0.0
C743 C 0.53069 0.8882 0.74069 0.0
C744 C 0.61557 0.88936 0.85769 0.0
C745 C 0.54308 0.88521 0.88531 0.0
C746 C 0.53499 0.88815 0.79099 0.0
C747 C 0.46694 0.88308 0.86473 0.0
C748 C 0.45393 0.891 0.72132 0.0
C749 C 0.59807 0.88306 0.66689 0.0
N750 N 0.46476 0.88458 0.81886 0.0
N751 N 0.60045 0.88447 0.71278 0.0
loop_
_geom_bond_atom_site_label_1
_geom_bond_atom_site_label_2
_geom_bond_distance
_geom_bond_site_symmetry_2
_ccdc_geom_bond_type
Ho0 C3 2.811 1_455 S
Ho0 O20 2.322 1_455 S
Ho0 O22 2.378 . S
Ho0 O23 2.524 1_554 S
Ho0 O24 2.381 . S
Ho0 O25 2.669 . S
Ho0 O27 2.346 . S
Ho0 O31 2.305 1_554 S
Ho1 C12 2.811 . S
Ho1 O21 2.346 1_455 S
Ho1 O25 2.305 . S
Ho1 O26 2.322 1_554 S
Ho1 O28 2.378 1_554 S
Ho1 O29 2.524 . S
Ho1 O30 2.381 1_554 S
Ho1 O31 2.669 1_554 S
C2 O20 1.259 . S
C2 O21 1.268 . S
C3 Ho0 2.811 1_655 S
C3 C4 1.488 . S
C3 O22 1.215 1_655 S
C3 O23 1.289 1_654 S
C4 C3 1.488 . S
C4 C5 1.348 1_554 S
C4 C9 1.413 . S
C5 C4 1.348 1_556 S
C5 C6 1.442 . S
C5 H32 0.930 . S
C6 C5 1.442 . S
C6 C7 1.381 1_556 S
C6 H33 0.931 . S
C7 C6 1.381 1_554 S
C7 C8 1.321 . S
C8 C7 1.321 . S
C8 C9 1.403 . S
C8 H34 0.934 . S
C9 C4 1.413 . S
C9 C8 1.403 . S
C9 H35 0.930 . S
C10 O24 1.275 . S
C10 O25 1.256 . S
C11 O26 1.259 1_554 S
C11 O27 1.268 . S
C12 Ho1 2.811 . S
C12 C13 1.488 . S
C12 O28 1.215 1_554 S
C12 O29 1.289 . S
C13 C12 1.488 . S
C13 C14 1.348 . S
C13 C18 1.413 1_554 S
C14 C13 1.348 . S
C14 C15 1.442 . S
C14 H36 0.930 . S
C15 C14 1.442 . S
C15 C16 1.381 . S
C15 H37 0.931 . S
C16 C15 1.381 . S
C16 C17 1.321 1_554 S
C17 C16 1.321 1_556 S
C17 C18 1.403 . S
C17 H38 0.934 . S
C18 C13 1.413 1_556 S
C18 C17 1.403 . S
C18 H39 0.930 . S
C19 O30 1.275 . S
C19 O31 1.256 . S
O20 Ho0 2.322 1_655 S
O20 C2 1.259 . S
O21 Ho1 2.346 1_655 S
O21 C2 1.268 . S
O22 Ho0 2.378 . S
O22 C3 1.215 1_455 S
O23 Ho0 2.524 1_556 S
O23 C3 1.289 1_456 S
O24 Ho0 2.381 . S
O24 C10 1.275 . S
O25 Ho0 2.669 . S
O25 Ho1 2.305 . S
O25 C10 1.256 . S
O26 Ho1 2.322 1_556 S
O26 C11 1.259 1_556 S
O27 Ho0 2.346 . S
O27 C11 1.268 . S
O28 Ho1 2.378 1_556 S
O28 C12 1.215 1_556 S
O29 Ho1 2.524 . S
O29 C12 1.289 . S
O30 Ho1 2.381 1_556 S
O30 C19 1.275 . S
O31 Ho0 2.305 1_556 S
O31 Ho1 2.669 1_556 S
O31 C19 1.256 . S
H32 C5 0.930 . S
H33 C6 0.931 . S
H34 C8 0.934 . S
H35 C9 0.930 . S
H36 C14 0.930 . S
H37 C15 0.931 . S
H38 C17 0.934 . S
H39 C18 0.930 . S
Ho40 C43 2.811 . S
Ho40 O60 2.322 . S
Ho40 O62 2.378 . S
Ho40 O63 2.524 1_554 S
Ho40 O64 2.381 . S
Ho40 O65 2.669 . S
Ho40 O67 2.346 1_655 S
Ho40 O71 2.305 1_554 S
Ho41 C52 2.811 1_655 S
Ho41 O61 2.346 . S
Ho41 O65 2.305 . S
Ho41 O66 2.322 1_654 S
Ho41 O68 2.378 1_554 S
Ho41 O69 2.524 . S
Ho41 O70 2.381 1_554 S
Ho41 O71 2.669 1_554 S
C42 O60 1.259 . S
C42 O61 1.268 . S
C43 Ho40 2.811 . S
C43 C44 1.488 . S
C43 O62 1.215 . S
C43 O63 1.289 1_554 S
C44 C43 1.488 . S
C44 C45 1.348 1_554 S
C44 C49 1.413 . S
C45 C44 1.348 1_556 S
C45 C46 1.442 . S
C45 H72 0.930 . S
C46 C45 1.442 . S
C46 C47 1.381 1_556 S
C46 H73 0.931 . S
C47 C46 1.381 1_554 S
C47 C48 1.321 . S
C48 C47 1.321 . S
C48 C49 1.403 . S
C48 H74 0.934 . S
C49 C44 1.413 . S
C49 C48 1.403 . S
C49 H75 0.930 . S
C50 O64 1.275 . S
C50 O65 1.256 . S
C51 O66 1.259 1_554 S
C51 O67 1.268 . S
C52 Ho41 2.811 1_455 S
C52 C53 1.488 . S
C52 O68 1.215 1_454 S
C52 O69 1.289 1_455 S
C53 C52 1.488 . S
C53 C54 1.348 . S
C53 C58 1.413 1_554 S
C54 C53 1.348 . S
C54 C55 1.442 . S
C54 H76 0.930 . S
C55 C54 1.442 . S
C55 C56 1.381 . S
C55 H77 0.931 . S
C56 C55 1.381 . S
C56 C57 1.321 1_554 S
C57 C56 1.321 1_556 S
C57 C58 1.403 . S
C57 H78 0.934 . S
C58 C53 1.413 1_556 S
C58 C57 1.403 . S
C58 H79 0.930 . S
C59 O70 1.275 . S
C59 O71 1.256 . S
O60 Ho40 2.322 . S
O60 C42 1.259 . S
O61 Ho41 2.346 . S
O61 C42 1.268 . S
O62 Ho40 2.378 . S
O62 C43 1.215 . S
O63 Ho40 2.524 1_556 S
O63 C43 1.289 1_556 S
O64 Ho40 2.381 . S
O64 C50 1.275 . S
O65 Ho40 2.669 . S
O65 Ho41 2.305 . S
O65 C50 1.256 . S
O66 Ho41 2.322 1_456 S
O66 C51 1.259 1_556 S
O67 Ho40 2.346 1_455 S
O67 C51 1.268 . S
O68 Ho41 2.378 1_556 S
O68 C52 1.215 1_656 S
O69 Ho41 2.524 . S
O69 C52 1.289 1_655 S
O70 Ho41 2.381 1_556 S
O70 C59 1.275 . S
O71 Ho40 2.305 1_556 S
O71 Ho41 2.669 1_556 S
O71 C59 1.256 . S
H72 C45 0.930 . S
H73 C46 0.931 . S
H74 C48 0.934 . S
H75 C49 0.930 . S
H76 C54 0.930 . S
H77 C55 0.931 . S
H78 C57 0.934 . S
H79 C58 0.930 . S
Ho80 C83 2.811 . S
Ho80 O100 2.322 . S
Ho80 O102 2.378 . S
Ho80 O103 2.524 . S
Ho80 O104 2.381 . S
Ho80 O105 2.669 . S
Ho80 O107 2.346 1_455 S
Ho80 O111 2.305 . S
Ho81 C92 2.811 1_455 S
Ho81 O101 2.346 . S
Ho81 O105 2.305 . S
Ho81 O106 2.322 1_455 S
Ho81 O108 2.378 . S
Ho81 O109 2.524 . S
Ho81 O110 2.381 . S
Ho81 O111 2.669 . S
C82 O100 1.259 . S
C82 O101 1.268 . S
C83 Ho80 2.811 . S
C83 C84 1.488 . S
C83 O102 1.215 . S
C83 O103 1.289 . S
C84 C83 1.488 . S
C84 C85 1.348 . S
C84 C89 1.413 . S
C85 C84 1.348 . S
C85 C86 1.442 . S
C85 H112 0.930 . S
C86 C85 1.442 . S
C86 C87 1.381 . S
C86 H113 0.931 . S
C87 C86 1.381 . S
C87 C88 1.321 . S
C88 C87 1.321 . S
C88 C89 1.403 . S
C88 H114 0.934 . S
C89 C84 1.413 . S
C89 C88 1.403 . S
C89 H115 0.930 . S
C90 O104 1.275 . S
C90 O105 1.256 . S
C91 O106 1.259 . S
C91 O107 1.268 . S
C92 Ho81 2.811 1_655 S
C92 C93 1.488 . S
C92 O108 1.215 1_655 S
C92 O109 1.289 1_655 S
C93 C92 1.488 . S
C93 C94 1.348 . S
C93 C98 1.413 . S
C94 C93 1.348 . S
C94 C95 1.442 . S
C94 H116 0.930 . S
C95 C94 1.442 . S
C95 C96 1.381 . S
C95 H117 0.931 . S
C96 C95 1.381 . S
C96 C97 1.321 . S
C97 C96 1.321 . S
C97 C98 1.403 . S
C97 H118 0.934 . S
C98 C93 1.413 . S
C98 C97 1.403 . S
C98 H119 0.930 . S
C99 O110 1.275 . S
C99 O111 1.256 . S
O100 Ho80 2.322 . S
O100 C82 1.259 . S
O101 Ho81 2.346 . S
O101 C82 1.268 . S
O102 Ho80 2.378 . S
O102 C83 1.215 . S
O103 Ho80 2.524 . S
O103 C83 1.289 . S
O104 Ho80 2.381 . S
O104 C90 1.275 . S
O105 Ho80 2.669 . S
O105 Ho81 2.305 . S
O105 C90 1.256 . S
O106 Ho81 2.322 1_655 S
O106 C91 1.259 . S
O107 Ho80 2.346 1_655 S
O107 C91 1.268 . S
O108 Ho81 2.378 . S
O108 C92 1.215 1_455 S
O109 Ho81 2.524 . S
O109 C92 1.289 1_455 S
O110 Ho81 2.381 . S
O110 C99 1.275 . S
O111 Ho80 2.305 . S
O111 Ho81 2.669 . S
O111 C99 1.256 . S
H112 C85 0.930 . S
H113 C86 0.931 . S
H114 C88 0.934 . S
H115 C89 0.930 . S
H116 C94 0.930 . S
H117 C95 0.931 . S
H118 C97 0.934 . S
H119 C98 0.930 . S
Ho120 C123 2.811 1_655 S
Ho120 O140 2.322 1_655 S
Ho120 O142 2.378 . S
Ho120 O143 2.524 . S
Ho120 O144 2.381 . S
Ho120 O145 2.669 . S
Ho120 O147 2.346 . S
Ho120 O151 2.305 . S
Ho121 C132 2.811 . S
Ho121 O141 2.346 1_655 S
Ho121 O145 2.305 . S
Ho121 O146 2.322 . S
Ho121 O148 2.378 . S
Ho121 O149 2.524 . S
Ho121 O150 2.381 . S
Ho121 O151 2.669 . S
C122 O140 1.259 . S
C122 O141 1.268 . S
C123 Ho120 2.811 1_455 S
C123 C124 1.488 . S
C123 O142 1.215 1_455 S
C123 O143 1.289 1_455 S
C124 C123 1.488 . S
C124 C125 1.348 . S
C124 C129 1.413 . S
C125 C124 1.348 . S
C125 C126 1.442 . S
C125 H152 0.930 . S
C126 C125 1.442 . S
C126 C127 1.381 . S
C126 H153 0.931 . S
C127 C126 1.381 . S
C127 C128 1.321 . S
C128 C127 1.321 . S
C128 C129 1.403 . S
C128 H154 0.934 . S
C129 C124 1.413 . S
C129 C128 1.403 . S
C129 H155 0.930 . S
C130 O144 1.275 . S
C130 O145 1.256 . S
C131 O146 1.259 . S
C131 O147 1.268 . S
C132 Ho121 2.811 . S
C132 C133 1.488 . S
C132 O148 1.215 . S
C132 O149 1.289 . S
C133 C132 1.488 . S
C133 C134 1.348 . S
C133 C138 1.413 . S
C134 C133 1.348 . S
C134 C135 1.442 . S
C134 H156 0.930 . S
C135 C134 1.442 . S
C135 C136 1.381 . S
C135 H157 0.931 . S
C136 C135 1.381 . S
C136 C137 1.321 . S
C137 C136 1.321 . S
C137 C138 1.403 . S
C137 H158 0.934 . S
C138 C133 1.413 . S
C138 C137 1.403 . S
C138 H159 0.930 . S
C139 O150 1.275 . S
C139 O151 1.256 . S
O140 Ho120 2.322 1_455 S
O140 C122 1.259 . S
O141 Ho121 2.346 1_455 S
O141 C122 1.268 . S
O142 Ho120 2.378 . S
O142 C123 1.215 1_655 S
O143 Ho120 2.524 . S
O143 C123 1.289 1_655 S
O144 Ho120 2.381 . S
O144 C130 1.275 . S
O145 Ho120 2.669 . S
O145 Ho121 2.305 . S
O145 C130 1.256 . S
O146 Ho121 2.322 . S
O146 C131 1.259 . S
O147 Ho120 2.346 . S
O147 C131 1.268 . S
O148 Ho121 2.378 . S
O148 C132 1.215 . S
O149 Ho121 2.524 . S
O149 C132 1.289 . S
O150 Ho121 2.381 . S
O150 C139 1.275 . S
O151 Ho120 2.305 . S
O151 Ho121 2.669 . S
O151 C139 1.256 . S
H152 C125 0.930 . S
H153 C126 0.931 . S
H154 C128 0.934 . S
H155 C129 0.930 . S
H156 C134 0.930 . S
H157 C135 0.931 . S
H158 C137 0.934 . S
H159 C138 0.930 . S
Ho160 C163 2.811 . S
Ho160 O180 2.322 . S
Ho160 O182 2.378 . S
Ho160 O183 2.524 1_554 S
Ho160 O184 2.381 . S
Ho160 O185 2.669 . S
Ho160 O187 2.346 . S
Ho160 O191 2.305 1_554 S
Ho161 C172 2.811 . S
Ho161 O181 2.346 . S
Ho161 O185 2.305 . S
Ho161 O186 2.322 1_554 S
Ho161 O188 2.378 1_554 S
Ho161 O189 2.524 . S
Ho161 O190 2.381 1_554 S
Ho161 O191 2.669 1_554 S
C162 O180 1.259 . S
C162 O181 1.268 . S
C163 Ho160 2.811 . S
C163 C164 1.488 . S
C163 O182 1.215 . S
C163 O183 1.289 1_554 S
C164 C163 1.488 . S
C164 C165 1.348 1_554 S
C164 C169 1.413 . S
C165 C164 1.348 1_556 S
C165 C166 1.442 . S
C165 H192 0.930 . S
C166 C165 1.442 . S
C166 C167 1.381 1_556 S
C166 H193 0.931 . S
C167 C166 1.381 1_554 S
C167 C168 1.321 . S
C168 C167 1.321 . S
C168 C169 1.403 . S
C168 H194 0.934 . S
C169 C164 1.413 . S
C169 C168 1.403 . S
C169 H195 0.930 . S
C170 O184 1.275 . S
C170 O185 1.256 . S
C171 O186 1.259 1_554 S
C171 O187 1.268 . S
C172 Ho161 2.811 . S
C172 C173 1.488 . S
C172 O188 1.215 1_554 S
C172 O189 1.289 . S
C173 C172 1.488 . S
C173 C174 1.348 . S
C173 C178 1.413 1_554 S
C174 C173 1.348 . S
C174 C175 1.442 . S
C174 H196 0.930 . S
C175 C174 1.442 . S
C175 C176 1.381 . S
C175 H197 0.931 . S
C176 C175 1.381 . S
C176 C177 1.321 1_554 S
C177 C176 1.321 1_556 S
C177 C178 1.403 . S
C177 H198 0.934 . S
C178 C173 1.413 1_556 S
C178 C177 1.403 . S
C178 H199 0.930 . S
C179 O190 1.275 . S
C179 O191 1.256 . S
O180 Ho160 2.322 . S
O180 C162 1.259 . S
O181 Ho161 2.346 . S
O181 C162 1.268 . S
O182 Ho160 2.378 . S
O182 C163 1.215 . S
O183 Ho160 2.524 1_556 S
O183 C163 1.289 1_556 S
O184 Ho160 2.381 . S
O184 C170 1.275 . S
O185 Ho160 2.669 . S
O185 Ho161 2.305 . S
O185 C170 1.256 . S
O186 Ho161 2.322 1_556 S
O186 C171 1.259 1_556 S
O187 Ho160 2.346 . S
O187 C171 1.268 . S
O188 Ho161 2.378 1_556 S
O188 C172 1.215 1_556 S
O189 Ho161 2.524 . S
O189 C172 1.289 . S
O190 Ho161 2.381 1_556 S
O190 C179 1.275 . S
O191 Ho160 2.305 1_556 S
O191 Ho161 2.669 1_556 S
O191 C179 1.256 . S
H192 C165 0.930 . S
H193 C166 0.931 . S
H194 C168 0.934 . S
H195 C169 0.930 . S
H196 C174 0.930 . S
H197 C175 0.931 . S
H198 C177 0.934 . S
H199 C178 0.930 . S
Ho200 C203 2.811 . S
Ho200 O220 2.322 . S
Ho200 O222 2.378 . S
Ho200 O223 2.524 1_554 S
Ho200 O224 2.381 . S
Ho200 O225 2.669 . S
Ho200 O227 2.346 . S
Ho200 O231 2.305 1_554 S
Ho201 C212 2.811 . S
Ho201 O221 2.346 . S
Ho201 O225 2.305 . S
Ho201 O226 2.322 1_554 S
Ho201 O228 2.378 1_554 S
Ho201 O229 2.524 . S
Ho201 O230 2.381 1_554 S
Ho201 O231 2.669 1_554 S
C202 O220 1.259 . S
C202 O221 1.268 . S
C203 Ho200 2.811 . S
C203 C204 1.488 . S
C203 O222 1.215 . S
C203 O223 1.289 1_554 S
C204 C203 1.488 . S
C204 C205 1.348 1_554 S
C204 C209 1.413 . S
C205 C204 1.348 1_556 S
C205 C206 1.442 . S
C205 H232 0.930 . S
C206 C205 1.442 . S
C206 C207 1.381 1_556 S
C206 H233 0.931 . S
C207 C206 1.381 1_554 S
C207 C208 1.321 . S
C208 C207 1.321 . S
C208 C209 1.403 . S
C208 H234 0.934 . S
C209 C204 1.413 . S
C209 C208 1.403 . S
C209 H235 0.930 . S
C210 O224 1.275 . S
C210 O225 1.256 . S
C211 O226 1.259 1_554 S
C211 O227 1.268 . S
C212 Ho201 2.811 . S
C212 C213 1.488 . S
C212 O228 1.215 1_554 S
C212 O229 1.289 . S
C213 C212 1.488 . S
C213 C214 1.348 . S
C213 C218 1.413 1_554 S
C214 C213 1.348 . S
C214 C215 1.442 . S
C214 H236 0.930 . S
C215 C214 1.442 . S
C215 C216 1.381 . S
C215 H237 0.931 . S
C216 C215 1.381 . S
C216 C217 1.321 1_554 S
C217 C216 1.321 1_556 S
C217 C218 1.403 . S
C217 H238 0.934 . S
C218 C213 1.413 1_556 S
C218 C217 1.403 . S
C218 H239 0.930 . S
C219 O230 1.275 . S
C219 O231 1.256 . S
O220 Ho200 2.322 . S
O220 C202 1.259 . S
O221 Ho201 2.346 . S
O221 C202 1.268 . S
O222 Ho200 2.378 . S
O222 C203 1.215 . S
O223 Ho200 2.524 1_556 S
O223 C203 1.289 1_556 S
O224 Ho200 2.381 . S
O224 C210 1.275 . S
O225 Ho200 2.669 . S
O225 Ho201 2.305 . S
O225 C210 1.256 . S
O226 Ho201 2.322 1_556 S
O226 C211 1.259 1_556 S
O227 Ho200 2.346 . S
O227 C211 1.268 . S
O228 Ho201 2.378 1_556 S
O228 C212 1.215 1_556 S
O229 Ho201 2.524 . S
O229 C212 1.289 . S
O230 Ho201 2.381 1_556 S
O230 C219 1.275 . S
O231 Ho200 2.305 1_556 S
O231 Ho201 2.669 1_556 S
O231 C219 1.256 . S
H232 C205 0.930 . S
H233 C206 0.931 . S
H234 C208 0.934 . S
H235 C209 0.930 . S
H236 C214 0.930 . S
H237 C215 0.931 . S
H238 C217 0.934 . S
H239 C218 0.930 . S
Ho240 C243 2.811 . S
Ho240 O260 2.322 . S
Ho240 O262 2.378 . S
Ho240 O263 2.524 . S
Ho240 O264 2.381 . S
Ho240 O265 2.669 . S
Ho240 O267 2.346 . S
Ho240 O271 2.305 . S
Ho241 C252 2.811 . S
Ho241 O261 2.346 . S
Ho241 O265 2.305 . S
Ho241 O266 2.322 . S
Ho241 O268 2.378 . S
Ho241 O269 2.524 . S
Ho241 O270 2.381 . S
Ho241 O271 2.669 . S
C242 O260 1.259 . S
C242 O261 1.268 . S
C243 Ho240 2.811 . S
C243 C244 1.488 . S
C243 O262 1.215 . S
C243 O263 1.289 . S
C244 C243 1.488 . S
C244 C245 1.348 . S
C244 C249 1.413 . S
C245 C244 1.348 . S
C245 C246 1.442 . S
C245 H272 0.930 . S
C246 C245 1.442 . S
C246 C247 1.381 . S
C246 H273 0.931 . S
C247 C246 1.381 . S
C247 C248 1.321 . S
C248 C247 1.321 . S
C248 C249 1.403 . S
C248 H274 0.934 . S
C249 C244 1.413 . S
C249 C248 1.403 . S
C249 H275 0.930 . S
C250 O264 1.275 . S
C250 O265 1.256 . S
C251 O266 1.259 . S
C251 O267 1.268 . S
C252 Ho241 2.811 . S
C252 C253 1.488 . S
C252 O268 1.215 . S
C252 O269 1.289 . S
C253 C252 1.488 . S
C253 C254 1.348 . S
C253 C258 1.413 . S
C254 C253 1.348 . S
C254 C255 1.442 . S
C254 H276 0.930 . S
C255 C254 1.442 . S
C255 C256 1.381 . S
C255 H277 0.931 . S
C256 C255 1.381 . S
C256 C257 1.321 . S
C257 C256 1.321 . S
C257 C258 1.403 . S
C257 H278 0.934 . S
C258 C253 1.413 . S
C258 C257 1.403 . S
C258 H279 0.930 . S
C259 O270 1.275 . S
C259 O271 1.256 . S
O260 Ho240 2.322 . S
O260 C242 1.259 . S
O261 Ho241 2.346 . S
O261 C242 1.268 . S
O262 Ho240 2.378 . S
O262 C243 1.215 . S
O263 Ho240 2.524 . S
O263 C243 1.289 . S
O264 Ho240 2.381 . S
O264 C250 1.275 . S
O265 Ho240 2.669 . S
O265 Ho241 2.305 . S
O265 C250 1.256 . S
O266 Ho241 2.322 . S
O266 C251 1.259 . S
O267 Ho240 2.346 . S
O267 C251 1.268 . S
O268 Ho241 2.378 . S
O268 C252 1.215 . S
O269 Ho241 2.524 . S
O269 C252 1.289 . S
O270 Ho241 2.381 . S
O270 C259 1.275 . S
O271 Ho240 2.305 . S
O271 Ho241 2.669 . S
O271 C259 1.256 . S
H272 C245 0.930 . S
H273 C246 0.931 . S
H274 C248 0.934 . S
H275 C249 0.930 . S
H276 C254 0.930 . S
H277 C255 0.931 . S
H278 C257 0.934 . S
H279 C258 0.930 . S
Ho280 C283 2.811 . S
Ho280 O300 2.322 . S
Ho280 O302 2.378 . S
Ho280 O303 2.524 . S
Ho280 O304 2.381 . S
Ho280 O305 2.669 . S
Ho280 O307 2.346 . S
Ho280 O311 2.305 . S
Ho281 C292 2.811 . S
Ho281 O301 2.346 . S
Ho281 O305 2.305 . S
Ho281 O306 2.322 . S
Ho281 O308 2.378 . S
Ho281 O309 2.524 . S
Ho281 O310 2.381 . S
Ho281 O311 2.669 . S
C282 O300 1.259 . S
C282 O301 1.268 . S
C283 Ho280 2.811 . S
C283 C284 1.488 . S
C283 O302 1.215 . S
C283 O303 1.289 . S
C284 C283 1.488 . S
C284 C285 1.348 . S
C284 C289 1.413 . S
C285 C284 1.348 . S
C285 C286 1.442 . S
C285 H312 0.930 . S
C286 C285 1.442 . S
C286 C287 1.381 . S
C286 H313 0.931 . S
C287 C286 1.381 . S
C287 C288 1.321 . S
C288 C287 1.321 . S
C288 C289 1.403 . S
C288 H314 0.934 . S
C289 C284 1.413 . S
C289 C288 1.403 . S
C289 H315 0.930 . S
C290 O304 1.275 . S
C290 O305 1.256 . S
C291 O306 1.259 . S
C291 O307 1.268 . S
C292 Ho281 2.811 . S
C292 C293 1.488 . S
C292 O308 1.215 . S
C292 O309 1.289 . S
C293 C292 1.488 . S
C293 C294 1.348 . S
C293 C298 1.413 . S
C294 C293 1.348 . S
C294 C295 1.442 . S
C294 H316 0.930 . S
C295 C294 1.442 . S
C295 C296 1.381 . S
C295 H317 0.931 . S
C296 C295 1.381 . S
C296 C297 1.321 . S
C297 C296 1.321 . S
C297 C298 1.403 . S
C297 H318 0.934 . S
C298 C293 1.413 . S
C298 C297 1.403 . S
C298 H319 0.930 . S
C299 O310 1.275 . S
C299 O311 1.256 . S
O300 Ho280 2.322 . S
O300 C282 1.259 . S
O301 Ho281 2.346 . S
O301 C282 1.268 . S
O302 Ho280 2.378 . S
O302 C283 1.215 . S
O303 Ho280 2.524 . S
O303 C283 1.289 . S
O304 Ho280 2.381 . S
O304 C290 1.275 . S
O305 Ho280 2.669 . S
O305 Ho281 2.305 . S
O305 C290 1.256 . S
O306 Ho281 2.322 . S
O306 C291 1.259 . S
O307 Ho280 2.346 . S
O307 C291 1.268 . S
O308 Ho281 2.378 . S
O308 C292 1.215 . S
O309 Ho281 2.524 . S
O309 C292 1.289 . S
O310 Ho281 2.381 . S
O310 C299 1.275 . S
O311 Ho280 2.305 . S
O311 Ho281 2.669 . S
O311 C299 1.256 . S
H312 C285 0.930 . S
H313 C286 0.931 . S
H314 C288 0.934 . S
H315 C289 0.930 . S
H316 C294 0.930 . S
H317 C295 0.931 . S
H318 C297 0.934 . S
H319 C298 0.930 . S
H320 C326 0.930 . S
H321 C330 0.930 . S
H322 C335 0.929 . S
H323 C333 0.929 . S
H324 C328 0.929 . S
H325 C334 0.929 . S
C326 H320 0.930 . S
C326 C327 1.367 1_556 S
C326 C334 1.378 . S
C327 C326 1.367 1_554 S
C327 C335 1.433 . S
C328 H324 0.929 . S
C328 C330 1.378 . S
C328 C332 1.350 . S
C329 C332 1.463 . S
C329 C334 1.350 1_554 S
C329 N337 1.427 . S
C330 H321 0.930 . S
C330 C328 1.378 . S
C330 C331 1.367 . S
C331 C330 1.367 . S
C331 C333 1.433 1_554 S
C332 C328 1.350 . S
C332 C329 1.463 . S
C332 N336 1.427 1_554 S
C333 H323 0.929 . S
C333 C331 1.433 1_556 S
C333 N336 1.384 . S
C334 H325 0.929 . S
C334 C326 1.378 . S
C334 C329 1.350 1_556 S
C335 H322 0.929 . S
C335 C327 1.433 . S
C335 N337 1.384 . S
N336 C332 1.427 1_556 S
N336 C333 1.384 . S
N337 C329 1.427 . S
N337 C335 1.384 . S
H338 C344 0.930 . S
H339 C348 0.930 . S
H340 C353 0.929 . S
H341 C351 0.929 . S
H342 C346 0.929 . S
H343 C352 0.929 . S
C344 H338 0.930 . S
C344 C345 1.367 . S
C344 C352 1.378 . S
C345 C344 1.367 . S
C345 C353 1.433 1_554 S
C346 H342 0.929 . S
C346 C348 1.378 . S
C346 C350 1.350 1_556 S
C347 C350 1.463 . S
C347 C352 1.350 . S
C347 N355 1.427 1_554 S
C348 H339 0.930 . S
C348 C346 1.378 . S
C348 C349 1.367 1_556 S
C349 C348 1.367 1_554 S
C349 C351 1.433 . S
C350 C346 1.350 1_554 S
C350 C347 1.463 . S
C350 N354 1.427 . S
C351 H341 0.929 . S
C351 C349 1.433 . S
C351 N354 1.384 . S
C352 H343 0.929 . S
C352 C344 1.378 . S
C352 C347 1.350 . S
C353 H340 0.929 . S
C353 C345 1.433 1_556 S
C353 N355 1.384 . S
N354 C350 1.427 . S
N354 C351 1.384 . S
N355 C347 1.427 1_556 S
N355 C353 1.384 . S
H356 C362 0.930 . S
H357 C366 0.930 . S
H358 C371 0.929 . S
H359 C369 0.929 . S
H360 C364 0.929 . S
H361 C370 0.929 . S
C362 H356 0.930 . S
C362 C363 1.367 . S
C362 C370 1.378 . S
C363 C362 1.367 . S
C363 C371 1.433 . S
C364 H360 0.929 . S
C364 C366 1.378 . S
C364 C368 1.350 . S
C365 C368 1.463 . S
C365 C370 1.350 . S
C365 N373 1.427 . S
C366 H357 0.930 . S
C366 C364 1.378 . S
C366 C367 1.367 . S
C367 C366 1.367 . S
C367 C369 1.433 . S
C368 C364 1.350 . S
C368 C365 1.463 . S
C368 N372 1.427 . S
C369 H359 0.929 . S
C369 C367 1.433 . S
C369 N372 1.384 . S
C370 H361 0.929 . S
C370 C362 1.378 . S
C370 C365 1.350 . S
C371 H358 0.929 . S
C371 C363 1.433 . S
C371 N373 1.384 . S
N372 C368 1.427 . S
N372 C369 1.384 . S
N373 C365 1.427 . S
N373 C371 1.384 . S
H374 C380 0.930 . S
H375 C384 0.930 . S
H376 C389 0.929 . S
H377 C387 0.929 . S
H378 C382 0.929 . S
H379 C388 0.929 . S
C380 H374 0.930 . S
C380 C381 1.367 . S
C380 C388 1.378 . S
C381 C380 1.367 . S
C381 C389 1.433 . S
C382 H378 0.929 . S
C382 C384 1.378 . S
C382 C386 1.350 . S
C383 C386 1.463 . S
C383 C388 1.350 . S
C383 N391 1.427 . S
C384 H375 0.930 . S
C384 C382 1.378 . S
C384 C385 1.367 . S
C385 C384 1.367 . S
C385 C387 1.433 . S
C386 C382 1.350 . S
C386 C383 1.463 . S
C386 N390 1.427 . S
C387 H377 0.929 . S
C387 C385 1.433 . S
C387 N390 1.384 . S
C388 H379 0.929 . S
C388 C380 1.378 . S
C388 C383 1.350 . S
C389 H376 0.929 . S
C389 C381 1.433 . S
C389 N391 1.384 . S
N390 C386 1.427 . S
N390 C387 1.384 . S
N391 C383 1.427 . S
N391 C389 1.384 . S
H392 C398 0.930 . S
H393 C402 0.930 . S
H394 C407 0.929 . S
H395 C405 0.929 . S
H396 C400 0.929 . S
H397 C406 0.929 . S
C398 H392 0.930 . S
C398 C399 1.367 . S
C398 C406 1.378 . S
C399 C398 1.367 . S
C399 C407 1.433 1_554 S
C400 H396 0.929 . S
C400 C402 1.378 . S
C400 C404 1.350 1_556 S
C401 C404 1.463 . S
C401 C406 1.350 1_455 S
C401 N409 1.427 1_454 S
C402 H393 0.930 . S
C402 C400 1.378 . S
C402 C403 1.367 1_556 S
C403 C402 1.367 1_554 S
C403 C405 1.433 . S
C404 C400 1.350 1_554 S
C404 C401 1.463 . S
C404 N408 1.427 . S
C405 H395 0.929 . S
C405 C403 1.433 . S
C405 N408 1.384 . S
C406 H397 0.929 . S
C406 C398 1.378 . S
C406 C401 1.350 1_655 S
C407 H394 0.929 . S
C407 C399 1.433 1_556 S
C407 N409 1.384 . S
N408 C404 1.427 . S
N408 C405 1.384 . S
N409 C401 1.427 1_656 S
N409 C407 1.384 . S
H410 C416 0.930 . S
H411 C420 0.930 . S
H412 C425 0.929 . S
H413 C423 0.929 . S
H414 C418 0.929 . S
H415 C424 0.929 . S
C416 H410 0.930 . S
C416 C417 1.367 1_556 S
C416 C424 1.378 . S
C417 C416 1.367 1_554 S
C417 C425 1.433 . S
C418 H414 0.929 . S
C418 C420 1.378 . S
C418 C422 1.350 . S
C419 C422 1.463 . S
C419 C424 1.350 1_654 S
C419 N427 1.427 1_655 S
C420 H411 0.930 . S
C420 C418 1.378 . S
C420 C421 1.367 . S
C421 C420 1.367 . S
C421 C423 1.433 1_554 S
C422 C418 1.350 . S
C422 C419 1.463 . S
C422 N426 1.427 1_554 S
C423 H413 0.929 . S
C423 C421 1.433 1_556 S
C423 N426 1.384 . S
C424 H415 0.929 . S
C424 C416 1.378 . S
C424 C419 1.350 1_456 S
C425 H412 0.929 . S
C425 C417 1.433 . S
C425 N427 1.384 . S
N426 C422 1.427 1_556 S
N426 C423 1.384 . S
N427 C419 1.427 1_455 S
N427 C425 1.384 . S
H428 C434 0.930 . S
H429 C438 0.930 . S
H430 C443 0.929 . S
H431 C441 0.929 . S
H432 C436 0.929 1_455 S
H433 C442 0.929 . S
C434 H428 0.930 . S
C434 C435 1.367 . S
C434 C442 1.378 . S
C435 C434 1.367 . S
C435 C443 1.433 . S
C436 H432 0.929 1_655 S
C436 C438 1.378 . S
C436 C440 1.350 1_655 S
C437 C440 1.463 . S
C437 C442 1.350 . S
C437 N445 1.427 . S
C438 H429 0.930 . S
C438 C436 1.378 . S
C438 C439 1.367 . S
C439 C438 1.367 . S
C439 C441 1.433 . S
C440 C436 1.350 1_455 S
C440 C437 1.463 . S
C440 N444 1.427 1_455 S
C441 H431 0.929 . S
C441 C439 1.433 . S
C441 N444 1.384 . S
C442 H433 0.929 . S
C442 C434 1.378 . S
C442 C437 1.350 . S
C443 H430 0.929 . S
C443 C435 1.433 . S
C443 N445 1.384 . S
N444 C440 1.427 1_655 S
N444 C441 1.384 . S
N445 C437 1.427 . S
N445 C443 1.384 . S
H446 C452 0.930 . S
H447 C456 0.930 . S
H448 C461 0.929 . S
H449 C459 0.929 . S
H450 C454 0.929 1_655 S
H451 C460 0.929 . S
C452 H446 0.930 . S
C452 C453 1.367 . S
C452 C460 1.378 . S
C453 C452 1.367 . S
C453 C461 1.433 . S
C454 H450 0.929 1_455 S
C454 C456 1.378 . S
C454 C458 1.350 1_455 S
C455 C458 1.463 . S
C455 C460 1.350 . S
C455 N463 1.427 . S
C456 H447 0.930 . S
C456 C454 1.378 . S
C456 C457 1.367 . S
C457 C456 1.367 . S
C457 C459 1.433 . S
C458 C454 1.350 1_655 S
C458 C455 1.463 . S
C458 N462 1.427 1_655 S
C459 H449 0.929 . S
C459 C457 1.433 . S
C459 N462 1.384 . S
C460 H451 0.929 . S
C460 C452 1.378 . S
C460 C455 1.350 . S
C461 H448 0.929 . S
C461 C453 1.433 . S
C461 N463 1.384 . S
N462 C458 1.427 1_455 S
N462 C459 1.384 . S
N463 C455 1.427 . S
N463 C461 1.384 . S
H464 C470 0.930 . S
H465 C474 0.930 . S
H466 C479 0.929 . S
H467 C477 0.929 . S
H468 C472 0.929 . S
H469 C478 0.929 . S
C470 H464 0.930 . S
C470 C471 1.367 . S
C470 C478 1.378 . S
C471 C470 1.367 . S
C471 C479 1.433 1_554 S
C472 H468 0.929 . S
C472 C474 1.378 . S
C472 C476 1.350 1_556 S
C473 C476 1.463 1_455 S
C473 C478 1.350 . S
C473 N481 1.427 1_454 S
C474 H465 0.930 . S
C474 C472 1.378 . S
C474 C475 1.367 1_556 S
C475 C474 1.367 1_554 S
C475 C477 1.433 . S
C476 C472 1.350 1_554 S
C476 C473 1.463 1_655 S
C476 N480 1.427 1_655 S
C477 H467 0.929 . S
C477 C475 1.433 . S
C477 N480 1.384 1_655 S
C478 H469 0.929 . S
C478 C470 1.378 . S
C478 C473 1.350 . S
C479 H466 0.929 . S
C479 C471 1.433 1_556 S
C479 N481 1.384 1_455 S
N480 C476 1.427 1_455 S
N480 C477 1.384 1_455 S
N481 C473 1.427 1_656 S
N481 C479 1.384 1_655 S
H482 C488 0.930 . S
H483 C492 0.930 . S
H484 C497 0.929 . S
H485 C495 0.929 . S
H486 C490 0.929 . S
H487 C496 0.929 . S
C488 H482 0.930 . S
C488 C489 1.367 . S
C488 C496 1.378 . S
C489 C488 1.367 . S
C489 C497 1.433 . S
C490 H486 0.929 . S
C490 C492 1.378 . S
C490 C494 1.350 . S
C491 C494 1.463 1_455 S
C491 C496 1.350 . S
C491 N499 1.427 1_455 S
C492 H483 0.930 . S
C492 C490 1.378 . S
C492 C493 1.367 . S
C493 C492 1.367 . S
C493 C495 1.433 . S
C494 C490 1.350 . S
C494 C491 1.463 1_655 S
C494 N498 1.427 1_655 S
C495 H485 0.929 . S
C495 C493 1.433 . S
C495 N498 1.384 1_655 S
C496 H487 0.929 . S
C496 C488 1.378 . S
C496 C491 1.350 . S
C497 H484 0.929 . S
C497 C489 1.433 . S
C497 N499 1.384 1_455 S
N498 C494 1.427 1_455 S
N498 C495 1.384 1_455 S
N499 C491 1.427 1_655 S
N499 C497 1.384 1_655 S
H500 C506 0.930 . S
H501 C510 0.930 . S
H502 C515 0.938 . S
H503 C513 0.929 . S
H504 C508 0.929 . S
H505 C514 0.929 . S
C506 H500 0.930 . S
C506 C507 1.367 . S
C506 C514 1.378 . S
C507 C506 1.367 . S
C507 C515 1.428 1_554 S
C508 H504 0.929 . S
C508 C510 1.378 . S
C508 C512 1.350 . S
C509 C512 1.463 1_565 S
C509 C514 1.350 . S
C509 N517 1.427 . S
C510 H501 0.930 . S
C510 C508 1.378 . S
C510 C511 1.367 . S
C511 C510 1.367 . S
C511 C513 1.433 . S
C512 C508 1.350 . S
C512 C509 1.463 1_545 S
C512 N516 1.427 . S
C513 H503 0.929 . S
C513 C511 1.433 . S
C513 N516 1.384 . S
C514 H505 0.929 . S
C514 C506 1.378 . S
C514 C509 1.350 . S
C515 H502 0.938 . S
C515 C507 1.428 1_556 S
C515 N517 1.381 1_556 S
N516 C512 1.427 . S
N516 C513 1.384 . S
N517 C509 1.427 . S
N517 C515 1.381 1_554 S
H518 C524 0.930 . S
H519 C528 0.930 . S
H520 C533 0.929 . S
H521 C531 0.929 . S
H522 C526 0.929 . S
H523 C532 0.929 . S
C524 H518 0.930 . S
C524 C525 1.367 . S
C524 C532 1.378 . S
C525 C524 1.367 . S
C525 C533 1.433 . S
C526 H522 0.929 . S
C526 C528 1.378 . S
C526 C530 1.350 . S
C527 C530 1.463 1_545 S
C527 C532 1.350 . S
C527 N535 1.427 . S
C528 H519 0.930 . S
C528 C526 1.378 . S
C528 C529 1.367 . S
C529 C528 1.367 . S
C529 C531 1.433 . S
C530 C526 1.350 . S
C530 C527 1.463 1_565 S
C530 N534 1.427 . S
C531 H521 0.929 . S
C531 C529 1.433 . S
C531 N534 1.384 . S
C532 H523 0.929 . S
C532 C524 1.378 . S
C532 C527 1.350 . S
C533 H520 0.929 . S
C533 C525 1.433 . S
C533 N535 1.384 . S
N534 C530 1.427 . S
N534 C531 1.384 . S
N535 C527 1.427 . S
N535 C533 1.384 . S
H536 C542 0.930 . S
H537 C546 0.930 . S
H538 C551 0.929 . S
H539 C549 0.929 . S
H540 C544 0.929 . S
H541 C550 0.929 . S
C542 H536 0.930 . S
C542 C543 1.367 1_556 S
C542 C550 1.378 . S
C543 C542 1.367 1_554 S
C543 C551 1.433 . S
C544 H540 0.929 . S
C544 C546 1.378 . S
C544 C548 1.350 . S
C545 C548 1.463 . S
C545 C550 1.350 1_554 S
C545 N553 1.427 . S
C546 H537 0.930 . S
C546 C544 1.378 . S
C546 C547 1.367 . S
C547 C546 1.367 . S
C547 C549 1.433 1_554 S
C548 C544 1.350 . S
C548 C545 1.463 . S
C548 N552 1.427 1_554 S
C549 H539 0.929 . S
C549 C547 1.433 1_556 S
C549 N552 1.384 . S
C550 H541 0.929 . S
C550 C542 1.378 . S
C550 C545 1.350 1_556 S
C551 H538 0.929 . S
C551 C543 1.433 . S
C551 N553 1.384 . S
N552 C548 1.427 1_556 S
N552 C549 1.384 . S
N553 C545 1.427 . S
N553 C551 1.384 . S
H554 C560 0.930 . S
H555 C564 0.930 . S
H556 C569 0.929 . S
H557 C567 0.929 . S
H558 C562 0.929 . S
H559 C568 0.929 . S
C560 H554 0.930 . S
C560 C561 1.367 . S
C560 C568 1.378 . S
C561 C560 1.367 . S
C561 C569 1.433 1_554 S
C562 H558 0.929 . S
C562 C564 1.378 . S
C562 C566 1.350 1_556 S
C563 C566 1.463 . S
C563 C568 1.350 . S
C563 N571 1.427 1_554 S
C564 H555 0.930 . S
C564 C562 1.378 . S
C564 C565 1.367 1_556 S
C565 C564 1.367 1_554 S
C565 C567 1.433 . S
C566 C562 1.350 1_554 S
C566 C563 1.463 . S
C566 N570 1.427 . S
C567 H557 0.929 . S
C567 C565 1.433 . S
C567 N570 1.384 . S
C568 H559 0.929 . S
C568 C560 1.378 . S
C568 C563 1.350 . S
C569 H556 0.929 . S
C569 C561 1.433 1_556 S
C569 N571 1.384 . S
N570 C566 1.427 . S
N570 C567 1.384 . S
N571 C563 1.427 1_556 S
N571 C569 1.384 . S
H572 C578 0.930 . S
H573 C582 0.930 . S
H574 C587 0.929 . S
H575 C585 0.929 . S
H576 C580 0.929 . S
H577 C586 0.929 . S
C578 H572 0.930 . S
C578 C579 1.367 . S
C578 C586 1.378 . S
C579 C578 1.367 . S
C579 C587 1.433 . S
C580 H576 0.929 . S
C580 C582 1.378 . S
C580 C584 1.350 . S
C581 C584 1.463 . S
C581 C586 1.350 . S
C581 N589 1.427 . S
C582 H573 0.930 . S
C582 C580 1.378 . S
C582 C583 1.367 . S
C583 C582 1.367 . S
C583 C585 1.433 . S
C584 C580 1.350 . S
C584 C581 1.463 . S
C584 N588 1.427 . S
C585 H575 0.929 . S
C585 C583 1.433 . S
C585 N588 1.384 . S
C586 H577 0.929 . S
C586 C578 1.378 . S
C586 C581 1.350 . S
C587 H574 0.929 . S
C587 C579 1.433 . S
C587 N589 1.384 . S
N588 C584 1.427 . S
N588 C585 1.384 . S
N589 C581 1.427 . S
N589 C587 1.384 . S
H590 C596 0.930 . S
H591 C600 0.930 . S
H592 C605 0.929 . S
H593 C603 0.929 . S
H594 C598 0.929 . S
H595 C604 0.929 . S
C596 H590 0.930 . S
C596 C597 1.367 . S
C596 C604 1.378 . S
C597 C596 1.367 . S
C597 C605 1.433 . S
C598 H594 0.929 . S
C598 C600 1.378 . S
C598 C602 1.350 . S
C599 C602 1.463 . S
C599 C604 1.350 . S
C599 N607 1.427 . S
C600 H591 0.930 . S
C600 C598 1.378 . S
C600 C601 1.367 . S
C601 C600 1.367 . S
C601 C603 1.433 . S
C602 C598 1.350 . S
C602 C599 1.463 . S
C602 N606 1.427 . S
C603 H593 0.929 . S
C603 C601 1.433 . S
C603 N606 1.384 . S
C604 H595 0.929 . S
C604 C596 1.378 . S
C604 C599 1.350 . S
C605 H592 0.929 . S
C605 C597 1.433 . S
C605 N607 1.384 . S
N606 C602 1.427 . S
N606 C603 1.384 . S
N607 C599 1.427 . S
N607 C605 1.384 . S
H608 C614 0.930 . S
H609 C618 0.930 . S
H610 C623 0.929 . S
H611 C621 0.929 . S
H612 C616 0.929 . S
H613 C622 0.929 . S
C614 H608 0.930 . S
C614 C615 1.367 . S
C614 C622 1.378 . S
C615 C614 1.367 . S
C615 C623 1.433 1_455 S
C616 H612 0.929 . S
C616 C618 1.378 . S
C616 C620 1.350 . S
C617 C620 1.463 1_455 S
C617 C622 1.350 . S
C617 N625 1.427 1_455 S
C618 H609 0.930 . S
C618 C616 1.378 . S
C618 C619 1.367 . S
C619 C618 1.367 . S
C619 C621 1.433 1_655 S
C620 C616 1.350 . S
C620 C617 1.463 1_655 S
C620 N624 1.427 1_655 S
C621 H611 0.929 . S
C621 C619 1.433 1_455 S
C621 N624 1.384 . S
C622 H613 0.929 . S
C622 C614 1.378 . S
C622 C617 1.350 . S
C623 H610 0.929 . S
C623 C615 1.433 1_655 S
C623 N625 1.384 . S
N624 C620 1.427 1_455 S
N624 C621 1.384 . S
N625 C617 1.427 1_655 S
N625 C623 1.384 . S
H626 C632 0.930 . S
H627 C636 0.930 . S
H628 C641 0.929 . S
H629 C639 0.929 . S
H630 C634 0.929 . S
H631 C640 0.929 . S
C632 H626 0.930 . S
C632 C633 1.367 . S
C632 C640 1.378 . S
C633 C632 1.367 . S
C633 C641 1.433 1_655 S
C634 H630 0.929 . S
C634 C636 1.378 . S
C634 C638 1.350 . S
C635 C638 1.463 1_655 S
C635 C640 1.350 . S
C635 N643 1.427 1_655 S
C636 H627 0.930 . S
C636 C634 1.378 . S
C636 C637 1.367 . S
C637 C636 1.367 . S
C637 C639 1.433 1_455 S
C638 C634 1.350 . S
C638 C635 1.463 1_455 S
C638 N642 1.427 1_455 S
C639 H629 0.929 . S
C639 C637 1.433 1_655 S
C639 N642 1.384 . S
C640 H631 0.929 . S
C640 C632 1.378 . S
C640 C635 1.350 . S
C641 H628 0.929 . S
C641 C633 1.433 1_455 S
C641 N643 1.384 . S
N642 C638 1.427 1_655 S
N642 C639 1.384 . S
N643 C635 1.427 1_455 S
N643 C641 1.384 . S
H644 C650 0.930 . S
H645 C654 0.930 . S
H646 C659 0.929 1_455 S
H647 C657 0.929 1_655 S
H648 C652 0.929 . S
H649 C658 0.929 . S
C650 H644 0.930 . S
C650 C651 1.367 . S
C650 C658 1.378 . S
C651 C650 1.367 . S
C651 C659 1.433 . S
C652 H648 0.929 . S
C652 C654 1.378 . S
C652 C656 1.350 . S
C653 C656 1.463 1_655 S
C653 C658 1.350 . S
C653 N661 1.427 1_655 S
C654 H645 0.930 . S
C654 C652 1.378 . S
C654 C655 1.367 . S
C655 C654 1.367 . S
C655 C657 1.433 . S
C656 C652 1.350 . S
C656 C653 1.463 1_455 S
C656 N660 1.427 1_455 S
C657 H647 0.929 1_455 S
C657 C655 1.433 . S
C657 N660 1.384 1_455 S
C658 H649 0.929 . S
C658 C650 1.378 . S
C658 C653 1.350 . S
C659 H646 0.929 1_655 S
C659 C651 1.433 . S
C659 N661 1.384 1_655 S
N660 C656 1.427 1_655 S
N660 C657 1.384 1_655 S
N661 C653 1.427 1_455 S
N661 C659 1.384 1_455 S
H662 C668 0.930 . S
H663 C672 0.930 . S
H664 C677 0.929 . S
H665 C675 0.929 . S
H666 C670 0.929 . S
H667 C676 0.929 . S
C668 H662 0.930 . S
C668 C669 1.367 1_455 S
C668 C676 1.378 . S
C669 C668 1.367 1_655 S
C669 C677 1.433 . S
C670 H666 0.929 . S
C670 C672 1.378 . S
C670 C674 1.350 1_655 S
C671 C674 1.463 1_655 S
C671 C676 1.350 1_655 S
C671 N679 1.427 . S
C672 H663 0.930 . S
C672 C670 1.378 . S
C672 C673 1.367 1_655 S
C673 C672 1.367 1_455 S
C673 C675 1.433 . S
C674 C670 1.350 1_455 S
C674 C671 1.463 1_455 S
C674 N678 1.427 . S
C675 H665 0.929 . S
C675 C673 1.433 . S
C675 N678 1.384 . S
C676 H667 0.929 . S
C676 C668 1.378 . S
C676 C671 1.350 1_455 S
C677 H664 0.929 . S
C677 C669 1.433 . S
C677 N679 1.384 . S
N678 C674 1.427 . S
N678 C675 1.384 . S
N679 C671 1.427 . S
N679 C677 1.384 . S
H680 C686 0.930 . S
H681 C690 0.930 . S
H682 C695 0.929 . S
H683 C693 0.929 . S
H684 C688 0.929 . S
H685 C694 0.929 . S
C686 H680 0.930 . S
C686 C687 1.367 . S
C686 C694 1.378 . S
C687 C686 1.367 . S
C687 C695 1.433 . S
C688 H684 0.929 . S
C688 C690 1.378 . S
C688 C692 1.350 . S
C689 C692 1.463 . S
C689 C694 1.350 . S
C689 N697 1.427 . S
C690 H681 0.930 . S
C690 C688 1.378 . S
C690 C691 1.367 . S
C691 C690 1.367 . S
C691 C693 1.433 . S
C692 C688 1.350 . S
C692 C689 1.463 . S
C692 N696 1.427 . S
C693 H683 0.929 . S
C693 C691 1.433 . S
C693 N696 1.384 . S
C694 H685 0.929 . S
C694 C686 1.378 . S
C694 C689 1.350 . S
C695 H682 0.929 . S
C695 C687 1.433 . S
C695 N697 1.384 . S
N696 C692 1.427 . S
N696 C693 1.384 . S
N697 C689 1.427 . S
N697 C695 1.384 . S
H698 C704 0.930 . S
H699 C708 0.930 . S
H700 C713 0.929 . S
H701 C711 0.929 . S
H702 C706 0.929 . S
H703 C712 0.929 . S
C704 H698 0.930 . S
C704 C705 1.367 . S
C704 C712 1.378 . S
C705 C704 1.367 . S
C705 C713 1.433 . S
C706 H702 0.929 . S
C706 C708 1.378 . S
C706 C710 1.350 . S
C707 C710 1.463 . S
C707 C712 1.350 . S
C707 N715 1.427 . S
C708 H699 0.930 . S
C708 C706 1.378 . S
C708 C709 1.367 . S
C709 C708 1.367 . S
C709 C711 1.433 . S
C710 C706 1.350 . S
C710 C707 1.463 . S
C710 N714 1.427 . S
C711 H701 0.929 . S
C711 C709 1.433 . S
C711 N714 1.384 . S
C712 H703 0.929 . S
C712 C704 1.378 . S
C712 C707 1.350 . S
C713 H700 0.929 . S
C713 C705 1.433 . S
C713 N715 1.384 . S
N714 C710 1.427 . S
N714 C711 1.384 . S
N715 C707 1.427 . S
N715 C713 1.384 . S
H716 C722 0.930 . S
H717 C726 0.930 . S
H718 C731 0.929 . S
H719 C729 0.929 . S
H720 C724 0.929 . S
H721 C730 0.929 . S
C722 H716 0.930 . S
C722 C723 1.367 . S
C722 C730 1.378 . S
C723 C722 1.367 . S
C723 C731 1.433 . S
C724 H720 0.929 . S
C724 C726 1.378 . S
C724 C728 1.350 . S
C725 C728 1.463 . S
C725 C730 1.350 . S
C725 N733 1.427 . S
C726 H717 0.930 . S
C726 C724 1.378 . S
C726 C727 1.367 . S
C727 C726 1.367 . S
C727 C729 1.433 . S
C728 C724 1.350 . S
C728 C725 1.463 . S
C728 N732 1.427 . S
C729 H719 0.929 . S
C729 C727 1.433 . S
C729 N732 1.384 . S
C730 H721 0.929 . S
C730 C722 1.378 . S
C730 C725 1.350 . S
C731 H718 0.929 . S
C731 C723 1.433 . S
C731 N733 1.384 . S
N732 C728 1.427 . S
N732 C729 1.384 . S
N733 C725 1.427 . S
N733 C731 1.384 . S
H734 C740 0.930 . S
H735 C744 0.930 . S
H736 C749 0.929 . S
H737 C747 0.929 . S
H738 C742 0.929 . S
H739 C748 0.929 . S
C740 H734 0.930 . S
C740 C741 1.367 . S
C740 C748 1.378 . S
C741 C740 1.367 . S
C741 C749 1.433 . S
C742 H738 0.929 . S
C742 C744 1.378 . S
C742 C746 1.350 . S
C743 C746 1.463 . S
C743 C748 1.350 . S
C743 N751 1.427 . S
C744 H735 0.930 . S
C744 C742 1.378 . S
C744 C745 1.367 . S
C745 C744 1.367 . S
C745 C747 1.433 . S
C746 C742 1.350 . S
C746 C743 1.463 . S
C746 N750 1.427 . S
C747 H737 0.929 . S
C747 C745 1.433 . S
C747 N750 1.384 . S
C748 H739 0.929 . S
C748 C740 1.378 . S
C748 C743 1.350 . S
C749 H736 0.929 . S
C749 C741 1.433 . S
C749 N751 1.384 . S
N750 C746 1.427 . S
N750 C747 1.384 . S
N751 C743 1.427 . S
N751 C749 1.384 . S
C327 C11 2.317 . S
C331 C2 2.317 . S
C345 C51 2.323 . S
C349 C42 2.323 . S
C363 C91 2.325 . S
C367 C82 2.325 . S
C381 C131 2.322 . S
C385 C122 2.322 . S
C399 C171 2.322 . S
C403 C162 2.322 . S
C417 C202 2.318 . S
C421 C211 2.318 . S
C435 C251 2.316 . S
C439 C242 2.316 . S
C453 C282 2.318 . S
C457 C291 2.318 . S
C471 C56 2.649 . S
C475 C7 2.649 . S
C489 C127 2.646 . S
C493 C96 2.646 . S
C507 C167 2.636 . S
C511 C216 2.636 . S
C525 C256 2.643 . S
C529 C287 2.643 . S
C543 C16 1.854 . S
C547 C207 1.854 . S
C561 C176 1.848 . S
C565 C47 1.848 . S
C579 C87 1.857 . S
C583 C296 1.857 . S
C597 C136 1.853 . S
C601 C247 1.853 . S
C615 C10 1.479 . S
C619 C130 1.470 . S
C633 C50 1.613 . S
C637 C90 1.609 . S
C651 C59 1.468 . S
C655 C99 1.480 . S
C669 C139 1.601 . S
C673 C19 1.606 . S
C687 C170 1.467 . S
C691 C290 1.479 . S
C705 C210 1.605 . S
C709 C250 1.614 . S
C723 C219 1.467 . S
C727 C259 1.480 . S
C741 C299 1.605 . S
C745 C179 1.614 . S
