# Generated by pormake.
# Topology ana, (4)-cn, num edge types: 1
# Building blocks:
#     Node 0, Type 0, BuildingBlock: QUQFOY_clean_sbu_3, # of connection points: 4
#     Node 1, Type 0, BuildingBlock: QUQFOY_clean_sbu_3, # of connection points: 4
#     Node 2, Type 0, BuildingBlock: QUQFOY_clean_sbu_3, # of connection points: 4
#     Node 3, Type 0, BuildingBlock: QUQFOY_clean_sbu_3, # of connection points: 4
#     Node 4, Type 0, BuildingBlock: QUQFOY_clean_sbu_3, # of connection points: 4
#     Node 5, Type 0, BuildingBlock: QUQFOY_clean_sbu_3, # of connection points: 4
#     Node 6, Type 0, BuildingBlock: QUQFOY_clean_sbu_3, # of connection points: 4
#     Node 7, Type 0, BuildingBlock: QUQFOY_clean_sbu_3, # of connection points: 4
#     Node 8, Type 0, BuildingBlock: QUQFOY_clean_sbu_3, # of connection points: 4
#     Node 9, Type 0, BuildingBlock: QUQFOY_clean_sbu_3, # of connection points: 4
#     Node 10, Type 0, BuildingBlock: QUQFOY_clean_sbu_3, # of connection points: 4
#     Node 11, Type 0, BuildingBlock: QUQFOY_clean_sbu_3, # of connection points: 4
#     Node 12, Type 0, BuildingBlock: QUQFOY_clean_sbu_3, # of connection points: 4
#     Node 13, Type 0, BuildingBlock: QUQFOY_clean_sbu_3, # of connection points: 4
#     Node 14, Type 0, BuildingBlock: QUQFOY_clean_sbu_3, # of connection points: 4
#     Node 15, Type 0, BuildingBlock: QUQFOY_clean_sbu_3, # of connection points: 4
#     Node 16, Type 0, BuildingBlock: QUQFOY_clean_sbu_3, # of connection points: 4
#     Node 17, Type 0, BuildingBlock: QUQFOY_clean_sbu_3, # of connection points: 4
#     Node 18, Type 0, BuildingBlock: QUQFOY_clean_sbu_3, # of connection points: 4
#     Node 19, Type 0, BuildingBlock: QUQFOY_clean_sbu_3, # of connection points: 4
#     Node 20, Type 0, BuildingBlock: QUQFOY_clean_sbu_3, # of connection points: 4
#     Node 21, Type 0, BuildingBlock: QUQFOY_clean_sbu_3, # of connection points: 4
#     Node 22, Type 0, BuildingBlock: QUQFOY_clean_sbu_3, # of connection points: 4
#     Node 23, Type 0, BuildingBlock: QUQFOY_clean_sbu_3, # of connection points: 4
#     Node 24, Type 0, BuildingBlock: QUQFOY_clean_sbu_3, # of connection points: 4
#     Node 25, Type 0, BuildingBlock: QUQFOY_clean_sbu_3, # of connection points: 4
#     Node 26, Type 0, BuildingBlock: QUQFOY_clean_sbu_3, # of connection points: 4
#     Node 27, Type 0, BuildingBlock: QUQFOY_clean_sbu_3, # of connection points: 4
#     Node 28, Type 0, BuildingBlock: QUQFOY_clean_sbu_3, # of connection points: 4
#     Node 29, Type 0, BuildingBlock: QUQFOY_clean_sbu_3, # of connection points: 4
#     Node 30, Type 0, BuildingBlock: QUQFOY_clean_sbu_3, # of connection points: 4
#     Node 31, Type 0, BuildingBlock: QUQFOY_clean_sbu_3, # of connection points: 4
#     Node 32, Type 0, BuildingBlock: QUQFOY_clean_sbu_3, # of connection points: 4
#     Node 33, Type 0, BuildingBlock: QUQFOY_clean_sbu_3, # of connection points: 4
#     Node 34, Type 0, BuildingBlock: QUQFOY_clean_sbu_3, # of connection points: 4
#     Node 35, Type 0, BuildingBlock: QUQFOY_clean_sbu_3, # of connection points: 4
#     Node 36, Type 0, BuildingBlock: QUQFOY_clean_sbu_3, # of connection points: 4
#     Node 37, Type 0, BuildingBlock: QUQFOY_clean_sbu_3, # of connection points: 4
#     Node 38, Type 0, BuildingBlock: QUQFOY_clean_sbu_3, # of connection points: 4
#     Node 39, Type 0, BuildingBlock: QUQFOY_clean_sbu_3, # of connection points: 4
#     Node 40, Type 0, BuildingBlock: QUQFOY_clean_sbu_3, # of connection points: 4
#     Node 41, Type 0, BuildingBlock: QUQFOY_clean_sbu_3, # of connection points: 4
#     Node 42, Type 0, BuildingBlock: QUQFOY_clean_sbu_3, # of connection points: 4
#     Node 43, Type 0, BuildingBlock: QUQFOY_clean_sbu_3, # of connection points: 4
#     Node 44, Type 0, BuildingBlock: QUQFOY_clean_sbu_3, # of connection points: 4
#     Node 45, Type 0, BuildingBlock: QUQFOY_clean_sbu_3, # of connection points: 4
#     Node 46, Type 0, BuildingBlock: QUQFOY_clean_sbu_3, # of connection points: 4
#     Node 47, Type 0, BuildingBlock: QUQFOY_clean_sbu_3, # of connection points: 4
#     Edge 48, Type (0, 0), BuildingBlock: TEMPAE_clean_linker_10, # of connection points: 2
#     Edge 49, Type (0, 0), BuildingBlock: TEMPAE_clean_linker_10, # of connection points: 2
#     Edge 50, Type (0, 0), BuildingBlock: TEMPAE_clean_linker_10, # of connection points: 2
#     Edge 51, Type (0, 0), BuildingBlock: TEMPAE_clean_linker_10, # of connection points: 2
#     Edge 52, Type (0, 0), BuildingBlock: TEMPAE_clean_linker_10, # of connection points: 2
#     Edge 53, Type (0, 0), BuildingBlock: TEMPAE_clean_linker_10, # of connection points: 2
#     Edge 54, Type (0, 0), BuildingBlock: TEMPAE_clean_linker_10, # of connection points: 2
#     Edge 55, Type (0, 0), BuildingBlock: TEMPAE_clean_linker_10, # of connection points: 2
#     Edge 56, Type (0, 0), BuildingBlock: TEMPAE_clean_linker_10, # of connection points: 2
#     Edge 57, Type (0, 0), BuildingBlock: TEMPAE_clean_linker_10, # of connection points: 2
#     Edge 58, Type (0, 0), BuildingBlock: TEMPAE_clean_linker_10, # of connection points: 2
#     Edge 59, Type (0, 0), BuildingBlock: TEMPAE_clean_linker_10, # of connection points: 2
#     Edge 60, Type (0, 0), BuildingBlock: TEMPAE_clean_linker_10, # of connection points: 2
#     Edge 61, Type (0, 0), BuildingBlock: TEMPAE_clean_linker_10, # of connection points: 2
#     Edge 62, Type (0, 0), BuildingBlock: TEMPAE_clean_linker_10, # of connection points: 2
#     Edge 63, Type (0, 0), BuildingBlock: TEMPAE_clean_linker_10, # of connection points: 2
#     Edge 64, Type (0, 0), BuildingBlock: TEMPAE_clean_linker_10, # of connection points: 2
#     Edge 65, Type (0, 0), BuildingBlock: TEMPAE_clean_linker_10, # of connection points: 2
#     Edge 66, Type (0, 0), BuildingBlock: TEMPAE_clean_linker_10, # of connection points: 2
#     Edge 67, Type (0, 0), BuildingBlock: TEMPAE_clean_linker_10, # of connection points: 2
#     Edge 68, Type (0, 0), BuildingBlock: TEMPAE_clean_linker_10, # of connection points: 2
#     Edge 69, Type (0, 0), BuildingBlock: TEMPAE_clean_linker_10, # of connection points: 2
#     Edge 70, Type (0, 0), BuildingBlock: TEMPAE_clean_linker_10, # of connection points: 2
#     Edge 71, Type (0, 0), BuildingBlock: TEMPAE_clean_linker_10, # of connection points: 2
#     Edge 72, Type (0, 0), BuildingBlock: TEMPAE_clean_linker_10, # of connection points: 2
#     Edge 73, Type (0, 0), BuildingBlock: TEMPAE_clean_linker_10, # of connection points: 2
#     Edge 74, Type (0, 0), BuildingBlock: TEMPAE_clean_linker_10, # of connection points: 2
#     Edge 75, Type (0, 0), BuildingBlock: TEMPAE_clean_linker_10, # of connection points: 2
#     Edge 76, Type (0, 0), BuildingBlock: TEMPAE_clean_linker_10, # of connection points: 2
#     Edge 77, Type (0, 0), BuildingBlock: TEMPAE_clean_linker_10, # of connection points: 2
#     Edge 78, Type (0, 0), BuildingBlock: TEMPAE_clean_linker_10, # of connection points: 2
#     Edge 79, Type (0, 0), BuildingBlock: TEMPAE_clean_linker_10, # of connection points: 2
#     Edge 80, Type (0, 0), BuildingBlock: TEMPAE_clean_linker_10, # of connection points: 2
#     Edge 81, Type (0, 0), BuildingBlock: TEMPAE_clean_linker_10, # of connection points: 2
#     Edge 82, Type (0, 0), BuildingBlock: TEMPAE_clean_linker_10, # of connection points: 2
#     Edge 83, Type (0, 0), BuildingBlock: TEMPAE_clean_linker_10, # of connection points: 2
#     Edge 84, Type (0, 0), BuildingBlock: TEMPAE_clean_linker_10, # of connection points: 2
#     Edge 85, Type (0, 0), BuildingBlock: TEMPAE_clean_linker_10, # of connection points: 2
#     Edge 86, Type (0, 0), BuildingBlock: TEMPAE_clean_linker_10, # of connection points: 2
#     Edge 87, Type (0, 0), BuildingBlock: TEMPAE_clean_linker_10, # of connection points: 2
#     Edge 88, Type (0, 0), BuildingBlock: TEMPAE_clean_linker_10, # of connection points: 2
#     Edge 89, Type (0, 0), BuildingBlock: TEMPAE_clean_linker_10, # of connection points: 2
#     Edge 90, Type (0, 0), BuildingBlock: TEMPAE_clean_linker_10, # of connection points: 2
#     Edge 91, Type (0, 0), BuildingBlock: TEMPAE_clean_linker_10, # of connection points: 2
#     Edge 92, Type (0, 0), BuildingBlock: TEMPAE_clean_linker_10, # of connection points: 2
#     Edge 93, Type (0, 0), BuildingBlock: TEMPAE_clean_linker_10, # of connection points: 2
#     Edge 94, Type (0, 0), BuildingBlock: TEMPAE_clean_linker_10, # of connection points: 2
#     Edge 95, Type (0, 0), BuildingBlock: TEMPAE_clean_linker_10, # of connection points: 2
#     Edge 96, Type (0, 0), BuildingBlock: TEMPAE_clean_linker_10, # of connection points: 2
#     Edge 97, Type (0, 0), BuildingBlock: TEMPAE_clean_linker_10, # of connection points: 2
#     Edge 98, Type (0, 0), BuildingBlock: TEMPAE_clean_linker_10, # of connection points: 2
#     Edge 99, Type (0, 0), BuildingBlock: TEMPAE_clean_linker_10, # of connection points: 2
#     Edge 100, Type (0, 0), BuildingBlock: TEMPAE_clean_linker_10, # of connection points: 2
#     Edge 101, Type (0, 0), BuildingBlock: TEMPAE_clean_linker_10, # of connection points: 2
#     Edge 102, Type (0, 0), BuildingBlock: TEMPAE_clean_linker_10, # of connection points: 2
#     Edge 103, Type (0, 0), BuildingBlock: TEMPAE_clean_linker_10, # of connection points: 2
#     Edge 104, Type (0, 0), BuildingBlock: TEMPAE_clean_linker_10, # of connection points: 2
#     Edge 105, Type (0, 0), BuildingBlock: TEMPAE_clean_linker_10, # of connection points: 2
#     Edge 106, Type (0, 0), BuildingBlock: TEMPAE_clean_linker_10, # of connection points: 2
#     Edge 107, Type (0, 0), BuildingBlock: TEMPAE_clean_linker_10, # of connection points: 2
#     Edge 108, Type (0, 0), BuildingBlock: TEMPAE_clean_linker_10, # of connection points: 2
#     Edge 109, Type (0, 0), BuildingBlock: TEMPAE_clean_linker_10, # of connection points: 2
#     Edge 110, Type (0, 0), BuildingBlock: TEMPAE_clean_linker_10, # of connection points: 2
#     Edge 111, Type (0, 0), BuildingBlock: TEMPAE_clean_linker_10, # of connection points: 2
#     Edge 112, Type (0, 0), BuildingBlock: TEMPAE_clean_linker_10, # of connection points: 2
#     Edge 113, Type (0, 0), BuildingBlock: TEMPAE_clean_linker_10, # of connection points: 2
#     Edge 114, Type (0, 0), BuildingBlock: TEMPAE_clean_linker_10, # of connection points: 2
#     Edge 115, Type (0, 0), BuildingBlock: TEMPAE_clean_linker_10, # of connection points: 2
#     Edge 116, Type (0, 0), BuildingBlock: TEMPAE_clean_linker_10, # of connection points: 2
#     Edge 117, Type (0, 0), BuildingBlock: TEMPAE_clean_linker_10, # of connection points: 2
#     Edge 118, Type (0, 0), BuildingBlock: TEMPAE_clean_linker_10, # of connection points: 2
#     Edge 119, Type (0, 0), BuildingBlock: TEMPAE_clean_linker_10, # of connection points: 2
#     Edge 120, Type (0, 0), BuildingBlock: TEMPAE_clean_linker_10, # of connection points: 2
#     Edge 121, Type (0, 0), BuildingBlock: TEMPAE_clean_linker_10, # of connection points: 2
#     Edge 122, Type (0, 0), BuildingBlock: TEMPAE_clean_linker_10, # of connection points: 2
#     Edge 123, Type (0, 0), BuildingBlock: TEMPAE_clean_linker_10, # of connection points: 2
#     Edge 124, Type (0, 0), BuildingBlock: TEMPAE_clean_linker_10, # of connection points: 2
#     Edge 125, Type (0, 0), BuildingBlock: TEMPAE_clean_linker_10, # of connection points: 2
#     Edge 126, Type (0, 0), BuildingBlock: TEMPAE_clean_linker_10, # of connection points: 2
#     Edge 127, Type (0, 0), BuildingBlock: TEMPAE_clean_linker_10, # of connection points: 2
#     Edge 128, Type (0, 0), BuildingBlock: TEMPAE_clean_linker_10, # of connection points: 2
#     Edge 129, Type (0, 0), BuildingBlock: TEMPAE_clean_linker_10, # of connection points: 2
#     Edge 130, Type (0, 0), BuildingBlock: TEMPAE_clean_linker_10, # of connection points: 2
#     Edge 131, Type (0, 0), BuildingBlock: TEMPAE_clean_linker_10, # of connection points: 2
#     Edge 132, Type (0, 0), BuildingBlock: TEMPAE_clean_linker_10, # of connection points: 2
#     Edge 133, Type (0, 0), BuildingBlock: TEMPAE_clean_linker_10, # of connection points: 2
#     Edge 134, Type (0, 0), BuildingBlock: TEMPAE_clean_linker_10, # of connection points: 2
#     Edge 135, Type (0, 0), BuildingBlock: TEMPAE_clean_linker_10, # of connection points: 2
#     Edge 136, Type (0, 0), BuildingBlock: TEMPAE_clean_linker_10, # of connection points: 2
#     Edge 137, Type (0, 0), BuildingBlock: TEMPAE_clean_linker_10, # of connection points: 2
#     Edge 138, Type (0, 0), BuildingBlock: TEMPAE_clean_linker_10, # of connection points: 2
#     Edge 139, Type (0, 0), BuildingBlock: TEMPAE_clean_linker_10, # of connection points: 2
#     Edge 140, Type (0, 0), BuildingBlock: TEMPAE_clean_linker_10, # of connection points: 2
#     Edge 141, Type (0, 0), BuildingBlock: TEMPAE_clean_linker_10, # of connection points: 2
#     Edge 142, Type (0, 0), BuildingBlock: TEMPAE_clean_linker_10, # of connection points: 2
#     Edge 143, Type (0, 0), BuildingBlock: TEMPAE_clean_linker_10, # of connection points: 2
# Relax obj value: 0.102
# Max RMSD: 0.128
# Mean RMSD: 0.114
data_MOF--net-ana--node1-QUQFOY_clean_sbu_3--edge1-TEMPAE_clean_linker_10
_symmetry_space_group_name_H-M    P1
_symmetry_Int_Tables_number       1
_symmetry_cell_setting            triclinic
loop_
_symmetry_equiv_pos_as_xyz
'x, y, z'
_cell_length_a     66.649218
_cell_length_b     67.727922
_cell_length_c     67.583749
_cell_angle_alpha  90.158822
_cell_angle_beta   90.327764
_cell_angle_gamma 90.804621
loop_
_atom_site_label
_atom_site_type_symbol
_atom_site_fract_x
_atom_site_fract_y
_atom_site_fract_z
_atom_type_partial_charge
C0 C 0.13887 0.11475 0.35612 0.0
O1 O 0.12338 0.10388 0.3585 0.0
Cd2 Cd 0.091 0.11521 0.36958 0.0
O3 O 0.13904 0.13288 0.36113 0.0
Cd4 Cd 0.11648 0.15588 0.37747 0.0
C5 C 0.10486 0.12628 0.4167 0.0
O6 O 0.08695 0.14808 0.35746 0.0
O7 O 0.08307 0.16897 0.38117 0.0
O8 O 0.13341 0.18436 0.3625 0.0
C9 C 0.07536 0.15939 0.36688 0.0
O10 O 0.09303 0.11626 0.40558 0.0
C11 C 0.1354 0.19357 0.37883 0.0
O12 O 0.11615 0.1398 0.40963 0.0
O13 O 0.12967 0.18466 0.39433 0.0
C14 C 0.07723 0.87032 0.69039 0.0
O15 O 0.059 0.87351 0.68606 0.0
Cd16 Cd 0.04322 0.86661 0.65521 0.0
O17 O 0.08889 0.86229 0.67789 0.0
Cd18 Cd 0.08609 0.84951 0.64328 0.0
C19 C 0.07481 0.89478 0.62649 0.0
O20 O 0.05336 0.83391 0.64697 0.0
O21 O 0.06332 0.83732 0.61704 0.0
O22 O 0.10922 0.82308 0.65148 0.0
C23 C 0.05036 0.83037 0.62883 0.0
O24 O 0.05744 0.89219 0.63387 0.0
C25 C 0.11887 0.82425 0.63536 0.0
O26 O 0.08841 0.88195 0.62855 0.0
O27 O 0.11408 0.83802 0.62362 0.0
C28 C 0.32248 0.85171 0.87148 0.0
O29 O 0.3379 0.86206 0.86713 0.0
Cd30 Cd 0.37229 0.85129 0.8716 0.0
O31 O 0.32421 0.83428 0.87816 0.0
Cd32 Cd 0.35016 0.81082 0.88685 0.0
C33 C 0.37119 0.84221 0.92099 0.0
O34 O 0.37314 0.81792 0.85981 0.0
O35 O 0.38324 0.79702 0.88146 0.0
O36 O 0.32864 0.78275 0.87756 0.0
C37 C 0.3869 0.80663 0.86582 0.0
O38 O 0.37936 0.85234 0.9073 0.0
C39 C 0.33074 0.77411 0.89413 0.0
O40 O 0.35929 0.82788 0.91701 0.0
O41 O 0.34112 0.78306 0.90726 0.0
C42 C 0.40697 0.10752 0.19821 0.0
O43 O 0.42289 0.09814 0.19441 0.0
Cd44 Cd 0.43835 0.09535 0.1627 0.0
O45 O 0.39723 0.11626 0.18459 0.0
Cd46 Cd 0.39907 0.12172 0.14842 0.0
C47 C 0.39961 0.07271 0.13716 0.0
O48 O 0.43458 0.12764 0.14976 0.0
O49 O 0.42141 0.13079 0.12074 0.0
O50 O 0.38509 0.15397 0.15361 0.0
C51 C 0.43694 0.13138 0.13162 0.0
O52 O 0.41695 0.07191 0.14509 0.0
C53 C 0.37098 0.15196 0.14104 0.0
O54 O 0.38981 0.08869 0.1368 0.0
O55 O 0.36932 0.13533 0.13239 0.0
C56 C 0.09163 0.88516 0.12412 0.0
O57 O 0.10548 0.88096 0.13631 0.0
Cd58 Cd 0.13523 0.86339 0.12747 0.0
O59 O 0.09286 0.88011 0.10602 0.0
Cd60 Cd 0.11612 0.86186 0.08496 0.0
C61 C 0.11111 0.82107 0.11316 0.0
O62 O 0.14837 0.87536 0.09665 0.0
O63 O 0.149 0.849 0.07861 0.0
O64 O 0.10757 0.88221 0.05626 0.0
C65 C 0.15861 0.86288 0.08712 0.0
O66 O 0.12365 0.82905 0.12514 0.0
C67 C 0.10514 0.86749 0.04473 0.0
O68 O 0.10468 0.83052 0.09823 0.0
O69 O 0.10681 0.85045 0.05224 0.0
C70 C 0.4489 0.85264 0.32407 0.0
O71 O 0.44586 0.84037 0.31009 0.0
Cd72 Cd 0.41423 0.83638 0.29379 0.0
O73 O 0.43472 0.86327 0.33047 0.0
Cd74 Cd 0.39872 0.86772 0.3237 0.0
C75 C 0.38803 0.82024 0.33377 0.0
O76 O 0.40309 0.8693 0.28853 0.0
O77 O 0.37227 0.86609 0.29773 0.0
O78 O 0.40506 0.90214 0.33096 0.0
C79 C 0.38469 0.86974 0.28401 0.0
O80 O 0.39374 0.81659 0.31622 0.0
C81 C 0.3903 0.90428 0.34248 0.0
O82 O 0.38979 0.83748 0.34112 0.0
O83 O 0.37945 0.88908 0.3458 0.0
C84 C 0.39198 0.1032 0.62594 0.0
O85 O 0.38113 0.10456 0.64124 0.0
Cd86 Cd 0.34993 0.12218 0.63986 0.0
O87 O 0.38572 0.10974 0.60945 0.0
Cd88 Cd 0.35585 0.12544 0.59606 0.0
C89 C 0.36693 0.16611 0.62205 0.0
O90 O 0.32792 0.10963 0.61406 0.0
O91 O 0.32218 0.13718 0.59905 0.0
O92 O 0.35773 0.10532 0.56612 0.0
C93 C 0.31527 0.12198 0.60766 0.0
O94 O 0.35875 0.15744 0.6367 0.0
C95 C 0.3567 0.12 0.55451 0.0
O96 O 0.36916 0.15708 0.60576 0.0
O97 O 0.35589 0.13701 0.56233 0.0
C98 C 0.02371 0.15 0.82317 0.0
O99 O 0.02509 0.15982 0.80726 0.0
Cd100 Cd 0.05384 0.16049 0.78663 0.0
O101 O 0.03832 0.13968 0.82936 0.0
Cd102 Cd 0.07299 0.13227 0.81869 0.0
C103 C 0.08738 0.1802 0.82001 0.0
O104 O 0.0637 0.12676 0.78456 0.0
O105 O 0.09556 0.12855 0.7902 0.0
O106 O 0.06864 0.09857 0.82997 0.0
C107 C 0.08134 0.1246 0.77823 0.0
O108 O 0.07726 0.1822 0.80414 0.0
C109 C 0.08418 0.09837 0.84088 0.0
O110 O 0.08773 0.16373 0.82898 0.0
O111 O 0.09435 0.11433 0.84213 0.0
C112 C 0.209 0.42487 0.10061 0.0
O113 O 0.20613 0.43817 0.0877 0.0
Cd114 Cd 0.17614 0.45647 0.08269 0.0
O115 O 0.19513 0.41969 0.11254 0.0
Cd116 Cd 0.15979 0.42767 0.11994 0.0
C117 C 0.14385 0.41736 0.0729 0.0
O118 O 0.16612 0.4621 0.11569 0.0
O119 O 0.13568 0.45499 0.12381 0.0
O120 O 0.1649 0.42168 0.15506 0.0
C121 C 0.14867 0.46806 0.11932 0.0
O122 O 0.1535 0.43261 0.06705 0.0
C123 C 0.15168 0.40804 0.15617 0.0
O124 O 0.14412 0.4122 0.09099 0.0
O125 O 0.14241 0.40338 0.14033 0.0
C126 C 0.6851 0.06077 0.8794 0.0
O127 O 0.68057 0.04336 0.88488 0.0
Cd128 Cd 0.6465 0.03268 0.88707 0.0
O129 O 0.67158 0.07244 0.87331 0.0
Cd130 Cd 0.63522 0.07366 0.86602 0.0
C131 C 0.62934 0.07198 0.91506 0.0
O132 O 0.63126 0.04001 0.85599 0.0
O133 O 0.60364 0.05442 0.86333 0.0
O134 O 0.64454 0.08679 0.83443 0.0
C135 C 0.61231 0.03927 0.85662 0.0
O136 O 0.63438 0.05396 0.91361 0.0
C137 C 0.63238 0.10103 0.83443 0.0
O138 O 0.62875 0.08312 0.89993 0.0
O139 O 0.62164 0.10313 0.84977 0.0
C140 C 0.80069 0.90371 0.3714 0.0
O141 O 0.80668 0.92078 0.37678 0.0
Cd142 Cd 0.84091 0.93054 0.3754 0.0
O143 O 0.8127 0.89166 0.3633 0.0
Cd144 Cd 0.84785 0.88971 0.35169 0.0
C145 C 0.85952 0.88923 0.39969 0.0
O146 O 0.8514 0.92349 0.34268 0.0
O147 O 0.87945 0.90891 0.34751 0.0
O148 O 0.83381 0.87849 0.32076 0.0
C149 C 0.87032 0.92424 0.34192 0.0
O150 O 0.85522 0.9075 0.39916 0.0
C151 C 0.84608 0.86463 0.31795 0.0
O152 O 0.85778 0.87837 0.38433 0.0
O153 O 0.85895 0.86163 0.33156 0.0
C154 C 0.82028 0.00855 0.12306 0.0
O155 O 0.80557 0.01037 0.13473 0.0
Cd156 Cd 0.79229 0.04104 0.14502 0.0
O157 O 0.82913 0.0237 0.11589 0.0
Cd158 Cd 0.82562 0.06021 0.11787 0.0
C159 C 0.83405 0.06227 0.16677 0.0
O160 O 0.78933 0.06079 0.11592 0.0
O161 O 0.80368 0.08807 0.12512 0.0
O162 O 0.8322 0.06282 0.08284 0.0
C163 C 0.78778 0.07897 0.11989 0.0
O164 O 0.81661 0.0546 0.16859 0.0
C165 C 0.84644 0.07536 0.08436 0.0
O166 O 0.84171 0.06516 0.14982 0.0
O167 O 0.85158 0.08054 0.10176 0.0
C168 C 0.31066 0.51348 0.63428 0.0
O169 O 0.29553 0.51431 0.64563 0.0
Cd170 Cd 0.27417 0.54187 0.65073 0.0
O171 O 0.31671 0.5286 0.62465 0.0
Cd172 Cd 0.30738 0.56386 0.6211 0.0
C173 C 0.30888 0.57406 0.67069 0.0
O174 O 0.27266 0.55394 0.61773 0.0
O175 O 0.27848 0.58468 0.6122 0.0
O176 O 0.32702 0.56166 0.59069 0.0
C177 C 0.2658 0.57067 0.61347 0.0
O178 O 0.29338 0.56318 0.67311 0.0
C179 C 0.33285 0.5796 0.59131 0.0
O180 O 0.31684 0.5761 0.65375 0.0
O181 O 0.32717 0.58988 0.60589 0.0
C182 C 0.14502 0.54928 0.35416 0.0
O183 O 0.16291 0.55256 0.34859 0.0
Cd184 Cd 0.17846 0.58431 0.34979 0.0
O185 O 0.1345 0.56312 0.36133 0.0
Cd186 Cd 0.13789 0.59866 0.36986 0.0
C187 C 0.14355 0.60976 0.32205 0.0
O188 O 0.17169 0.59651 0.38212 0.0
O189 O 0.16144 0.62608 0.37667 0.0
O190 O 0.12133 0.58878 0.39969 0.0
C191 C 0.17476 0.61492 0.38375 0.0
O192 O 0.16095 0.60246 0.32408 0.0
C193 C 0.11018 0.60372 0.40116 0.0
O194 O 0.13111 0.60965 0.33629 0.0
O195 O 0.11087 0.61611 0.38707 0.0
C196 C 0.29225 0.41068 0.87767 0.0
O197 O 0.29912 0.42746 0.88298 0.0
Cd198 Cd 0.33336 0.43654 0.87911 0.0
O199 O 0.30343 0.3983 0.86893 0.0
Cd200 Cd 0.3382 0.39562 0.85631 0.0
C201 C 0.35393 0.39656 0.90336 0.0
O202 O 0.34105 0.42903 0.84554 0.0
O203 O 0.36936 0.41451 0.84882 0.0
O204 O 0.32371 0.38232 0.82626 0.0
C205 C 0.35981 0.42948 0.84298 0.0
O206 O 0.34981 0.41486 0.90283 0.0
C207 C 0.33602 0.36834 0.82431 0.0
O208 O 0.35061 0.38544 0.88845 0.0
O209 O 0.34894 0.36629 0.83803 0.0
C210 C 0.84128 0.85343 0.59455 0.0
O211 O 0.85713 0.86408 0.59493 0.0
Cd212 Cd 0.88938 0.85243 0.58427 0.0
O213 O 0.84192 0.83551 0.58891 0.0
Cd214 Cd 0.86605 0.81105 0.57741 0.0
C215 C 0.87786 0.83769 0.53682 0.0
O216 O 0.89409 0.82066 0.5984 0.0
O217 O 0.90069 0.79971 0.57524 0.0
O218 O 0.85338 0.78552 0.59879 0.0
C219 C 0.90677 0.80961 0.59013 0.0
O220 O 0.88765 0.84927 0.54833 0.0
C221 C 0.84682 0.77428 0.58511 0.0
O222 O 0.86749 0.82331 0.54361 0.0
O223 O 0.84866 0.78027 0.56741 0.0
C224 C 0.86086 0.13597 0.37025 0.0
O225 O 0.86409 0.12584 0.38567 0.0
Cd226 Cd 0.8891 0.10045 0.38416 0.0
O227 O 0.86941 0.13155 0.35412 0.0
Cd228 Cd 0.89164 0.10685 0.34042 0.0
C229 C 0.92938 0.12626 0.36617 0.0
O230 O 0.88217 0.07664 0.35827 0.0
O231 O 0.91105 0.07735 0.34376 0.0
O232 O 0.86931 0.10523 0.31193 0.0
C233 C 0.89736 0.06732 0.35212 0.0
O234 O 0.92217 0.11659 0.38069 0.0
C235 C 0.88325 0.10597 0.29923 0.0
O236 O 0.92014 0.12672 0.3497 0.0
O237 O 0.9011 0.10767 0.3057 0.0
C238 C 0.65003 0.13412 0.11007 0.0
O239 O 0.63566 0.12232 0.11403 0.0
Cd240 Cd 0.60275 0.12652 0.0999 0.0
O241 O 0.64697 0.14953 0.09988 0.0
Cd242 Cd 0.61939 0.16721 0.08427 0.0
C243 C 0.61521 0.13133 0.05062 0.0
O244 O 0.5912 0.15925 0.10544 0.0
O245 O 0.58405 0.16812 0.07548 0.0
O246 O 0.62626 0.19759 0.1014 0.0
C247 C 0.57801 0.16397 0.09276 0.0
O248 O 0.60632 0.12152 0.06414 0.0
C249 C 0.63089 0.20753 0.0862 0.0
O250 O 0.62307 0.14822 0.05419 0.0
O251 O 0.63057 0.19869 0.06959 0.0
C252 C 0.60016 0.82915 0.87132 0.0
O253 O 0.59224 0.83725 0.88624 0.0
Cd254 Cd 0.56995 0.86459 0.88205 0.0
O255 O 0.59577 0.83466 0.8539 0.0
Cd256 Cd 0.57461 0.85867 0.83702 0.0
C257 C 0.53136 0.84238 0.85646 0.0
O258 O 0.5834 0.88715 0.8579 0.0
O259 O 0.55919 0.89079 0.83685 0.0
O260 O 0.60212 0.85816 0.81355 0.0
C261 C 0.57117 0.89855 0.84932 0.0
O262 O 0.53738 0.85115 0.87213 0.0
C263 C 0.59108 0.85857 0.79822 0.0
O264 O 0.54278 0.84111 0.84149 0.0
O265 O 0.57224 0.85859 0.80089 0.0
C266 C 0.88487 0.14569 0.87952 0.0
O267 O 0.87084 0.14302 0.86695 0.0
Cd268 Cd 0.83594 0.14466 0.87472 0.0
O269 O 0.88097 0.14873 0.8977 0.0
Cd270 Cd 0.85145 0.15041 0.91948 0.0
C271 C 0.83574 0.19111 0.89555 0.0
O272 O 0.83272 0.12421 0.90308 0.0
O273 O 0.81621 0.14065 0.92467 0.0
O274 O 0.87142 0.13259 0.94357 0.0
C275 C 0.81661 0.12635 0.91256 0.0
O276 O 0.83011 0.17959 0.8816 0.0
C277 C 0.86647 0.14324 0.95819 0.0
O278 O 0.84491 0.18445 0.91063 0.0
O279 O 0.85518 0.15777 0.95457 0.0
C280 C 0.61524 0.10141 0.64552 0.0
O281 O 0.62898 0.11451 0.64741 0.0
Cd282 Cd 0.62263 0.1492 0.65281 0.0
O283 O 0.59686 0.10573 0.64746 0.0
Cd284 Cd 0.57629 0.13408 0.65593 0.0
C285 C 0.60228 0.14432 0.69851 0.0
O286 O 0.59333 0.1567 0.63358 0.0
O287 O 0.56957 0.16898 0.65096 0.0
O288 O 0.55021 0.11504 0.63852 0.0
C289 C 0.58316 0.17166 0.63818 0.0
O290 O 0.61637 0.15187 0.68823 0.0
C291 C 0.53664 0.11899 0.65099 0.0
O292 O 0.58725 0.13585 0.69024 0.0
O293 O 0.54155 0.12996 0.66553 0.0
C294 C 0.58939 0.85643 0.37703 0.0
O295 O 0.60308 0.85737 0.36405 0.0
Cd296 Cd 0.63711 0.84808 0.36969 0.0
O297 O 0.5934 0.85139 0.39475 0.0
Cd298 Cd 0.62258 0.84263 0.41531 0.0
C299 C 0.62788 0.80125 0.3881 0.0
O300 O 0.64659 0.864 0.39952 0.0
O301 O 0.6593 0.84212 0.41882 0.0
O302 O 0.61359 0.8656 0.44084 0.0
C303 C 0.66203 0.85694 0.40765 0.0
O304 O 0.63506 0.81241 0.37466 0.0
C305 C 0.61247 0.85302 0.45467 0.0
O306 O 0.62112 0.80843 0.40414 0.0
O307 O 0.61506 0.83502 0.45008 0.0
C308 C 0.87204 0.87209 0.11661 0.0
O309 O 0.8597 0.85764 0.11555 0.0
Cd310 Cd 0.86715 0.82524 0.12877 0.0
O311 O 0.88923 0.86988 0.12445 0.0
Cd312 Cd 0.91017 0.84533 0.14029 0.0
C313 C 0.87661 0.83707 0.17724 0.0
O314 O 0.90083 0.81709 0.12009 0.0
O315 O 0.91895 0.81116 0.14597 0.0
O316 O 0.94103 0.85524 0.12424 0.0
C317 C 0.90979 0.80454 0.13078 0.0
O318 O 0.86534 0.82787 0.1649 0.0
C319 C 0.949 0.86291 0.13959 0.0
O320 O 0.89277 0.84562 0.17171 0.0
O321 O 0.93889 0.86246 0.15545 0.0
C322 C 0.8568 0.60293 0.84245 0.0
O323 O 0.87253 0.60268 0.85316 0.0
Cd324 Cd 0.87397 0.58689 0.88517 0.0
O325 O 0.8405 0.59516 0.84851 0.0
Cd326 Cd 0.8266 0.57804 0.87717 0.0
C327 C 0.85898 0.53989 0.87277 0.0
O328 O 0.84455 0.59679 0.90234 0.0
O329 O 0.82655 0.57213 0.91273 0.0
O330 O 0.79509 0.59537 0.87522 0.0
C331 C 0.83827 0.58653 0.91674 0.0
O332 O 0.87302 0.55118 0.87922 0.0
C333 C 0.7847 0.5803 0.87018 0.0
O334 O 0.84139 0.5464 0.86983 0.0
O335 O 0.79378 0.56403 0.86854 0.0
C336 C 0.37305 0.86773 0.06493 0.0
O337 O 0.37208 0.85266 0.07603 0.0
Cd338 Cd 0.35541 0.85349 0.10772 0.0
O339 O 0.36583 0.88403 0.07064 0.0
Cd340 Cd 0.34922 0.89811 0.0993 0.0
C341 C 0.30898 0.86854 0.09337 0.0
O342 O 0.36677 0.88164 0.12665 0.0
O343 O 0.33988 0.89775 0.13361 0.0
O344 O 0.36901 0.92792 0.0937 0.0
C345 C 0.35492 0.88825 0.13967 0.0
O346 O 0.31921 0.85501 0.10149 0.0
C347 C 0.35422 0.93948 0.09485 0.0
O348 O 0.31694 0.88517 0.08922 0.0
O349 O 0.33702 0.93168 0.09753 0.0
C350 C 0.11157 0.10528 0.56382 0.0
O351 O 0.11044 0.11987 0.57561 0.0
Cd352 Cd 0.11828 0.11785 0.61055 0.0
O353 O 0.11622 0.0883 0.57021 0.0
Cd354 Cd 0.12434 0.07173 0.60118 0.0
C355 C 0.16599 0.09989 0.60756 0.0
O356 O 0.10181 0.08914 0.62349 0.0
O357 O 0.12361 0.06982 0.63673 0.0
O358 O 0.10482 0.04333 0.5895 0.0
C359 C 0.10905 0.08139 0.639 0.0
O360 O 0.1546 0.1138 0.61309 0.0
C361 C 0.11834 0.03093 0.59361 0.0
O362 O 0.15873 0.08366 0.601 0.0
O363 O 0.13483 0.0377 0.60048 0.0
C364 C 0.12152 0.89066 0.89983 0.0
O365 O 0.119 0.87655 0.88762 0.0
Cd366 Cd 0.13021 0.8782 0.85389 0.0
O367 O 0.12885 0.90721 0.89435 0.0
Cd368 Cd 0.13952 0.92417 0.86383 0.0
C369 C 0.17931 0.89451 0.86044 0.0
O370 O 0.11637 0.90762 0.84099 0.0
O371 O 0.13995 0.92513 0.82774 0.0
O372 O 0.12057 0.95217 0.87581 0.0
C373 C 0.12446 0.91431 0.82542 0.0
O374 O 0.16696 0.88114 0.85462 0.0
C375 C 0.13401 0.96499 0.87178 0.0
O376 O 0.17322 0.91131 0.86617 0.0
O377 O 0.15031 0.95871 0.86463 0.0
C378 C 0.62768 0.3801 0.39497 0.0
O379 O 0.62507 0.36668 0.38202 0.0
Cd380 Cd 0.63602 0.37073 0.34828 0.0
O381 O 0.63503 0.39687 0.3903 0.0
Cd382 Cd 0.64606 0.41526 0.36099 0.0
C383 C 0.68529 0.38531 0.3553 0.0
O384 O 0.6225 0.4011 0.33686 0.0
O385 O 0.64693 0.41874 0.32524 0.0
O386 O 0.6279 0.44318 0.37421 0.0
C387 C 0.63095 0.4089 0.32198 0.0
O388 O 0.67284 0.37255 0.34841 0.0
C389 C 0.64201 0.45567 0.3715 0.0
O390 O 0.67935 0.40163 0.36237 0.0
O391 O 0.6583 0.44917 0.36452 0.0
C392 C 0.88137 0.37299 0.63472 0.0
O393 O 0.8976 0.37645 0.62554 0.0
Cd394 Cd 0.89843 0.39155 0.59324 0.0
O395 O 0.86464 0.37827 0.62755 0.0
Cd396 Cd 0.8527 0.39628 0.59879 0.0
C397 C 0.8822 0.4363 0.6072 0.0
O398 O 0.87123 0.37851 0.57328 0.0
O399 O 0.85501 0.40439 0.56412 0.0
O400 O 0.82178 0.37731 0.60311 0.0
C401 C 0.86503 0.38939 0.55932 0.0
O402 O 0.89638 0.42703 0.59895 0.0
C403 C 0.81037 0.3921 0.60157 0.0
O404 O 0.86545 0.42781 0.6106 0.0
O405 O 0.81872 0.40882 0.59885 0.0
C406 C 0.6163 0.6219 0.06212 0.0
O407 O 0.61638 0.63677 0.07359 0.0
Cd408 Cd 0.62675 0.63371 0.10786 0.0
O409 O 0.62029 0.60489 0.06878 0.0
Cd410 Cd 0.62833 0.58842 0.09962 0.0
C411 C 0.6725 0.61232 0.10185 0.0
O412 O 0.6091 0.60721 0.12414 0.0
O413 O 0.63228 0.58773 0.13476 0.0
O414 O 0.60506 0.56194 0.09018 0.0
C415 C 0.61795 0.59914 0.13868 0.0
O416 O 0.66275 0.62719 0.10791 0.0
C417 C 0.61753 0.54828 0.09334 0.0
O418 O 0.66343 0.59665 0.09616 0.0
O419 O 0.6351 0.55342 0.0988 0.0
C420 C 0.64078 0.61005 0.85656 0.0
O421 O 0.62536 0.59966 0.86071 0.0
Cd422 Cd 0.59284 0.61234 0.8696 0.0
O423 O 0.64064 0.62877 0.85817 0.0
Cd424 Cd 0.61755 0.65366 0.87037 0.0
C425 C 0.60613 0.63164 0.91421 0.0
O426 O 0.58746 0.64279 0.85272 0.0
O427 O 0.58388 0.6656 0.87474 0.0
O428 O 0.62813 0.68149 0.8501 0.0
C429 C 0.57597 0.65478 0.86143 0.0
O430 O 0.59471 0.61955 0.90487 0.0
C431 C 0.6351 0.69153 0.86456 0.0
O432 O 0.61725 0.64395 0.90502 0.0
O433 O 0.63506 0.68334 0.88142 0.0
C434 C 0.5778 0.38387 0.18446 0.0
O435 O 0.5594 0.38763 0.1816 0.0
Cd436 Cd 0.5415 0.38203 0.15162 0.0
O437 O 0.58841 0.37646 0.17071 0.0
Cd438 Cd 0.58322 0.36608 0.13558 0.0
C439 C 0.57006 0.41201 0.12196 0.0
O440 O 0.55146 0.3496 0.14188 0.0
O441 O 0.55871 0.35334 0.11116 0.0
O442 O 0.60782 0.3404 0.14101 0.0
C443 C 0.54718 0.34583 0.12402 0.0
O444 O 0.55336 0.40896 0.13055 0.0
C445 C 0.61619 0.3424 0.12428 0.0
O446 O 0.58378 0.39917 0.12236 0.0
O447 O 0.60991 0.35621 0.11332 0.0
C448 C 0.83166 0.35234 0.36275 0.0
O449 O 0.84543 0.36497 0.3591 0.0
Cd450 Cd 0.88043 0.35976 0.36727 0.0
O451 O 0.83588 0.33564 0.3701 0.0
Cd452 Cd 0.86434 0.3162 0.38099 0.0
C453 C 0.87484 0.3503 0.4166 0.0
O454 O 0.88853 0.32717 0.35625 0.0
O455 O 0.89966 0.30822 0.37927 0.0
O456 O 0.84581 0.28701 0.36929 0.0
C457 C 0.90331 0.31836 0.36397 0.0
O458 O 0.88217 0.36175 0.40348 0.0
C459 C 0.8491 0.27721 0.38497 0.0
O460 O 0.86664 0.33388 0.41187 0.0
O461 O 0.85916 0.2857 0.39862 0.0
C462 C 0.8879 0.62011 0.7002 0.0
O463 O 0.90636 0.61661 0.69757 0.0
Cd464 Cd 0.92391 0.61706 0.66722 0.0
O465 O 0.87623 0.62393 0.68571 0.0
Cd466 Cd 0.87952 0.62592 0.64901 0.0
C467 C 0.89697 0.57936 0.64521 0.0
O468 O 0.91044 0.64482 0.6506 0.0
O469 O 0.90226 0.63465 0.62158 0.0
O470 O 0.85314 0.65031 0.64991 0.0
C471 C 0.91431 0.64459 0.63233 0.0
O472 O 0.91359 0.58585 0.65219 0.0
C473 C 0.84502 0.64498 0.63367 0.0
O474 O 0.88184 0.59053 0.64353 0.0
O475 O 0.8521 0.62981 0.62531 0.0
C476 C 0.58919 0.37149 0.61673 0.0
O477 O 0.60243 0.37196 0.63032 0.0
Cd478 Cd 0.63543 0.35876 0.62575 0.0
O479 O 0.5934 0.36528 0.59946 0.0
Cd480 Cd 0.6223 0.35323 0.5808 0.0
C481 C 0.62225 0.31243 0.60942 0.0
O482 O 0.64872 0.37359 0.59628 0.0
O483 O 0.65817 0.34983 0.57726 0.0
O484 O 0.6111 0.37104 0.5513 0.0
C485 C 0.66289 0.36474 0.5877 0.0
O486 O 0.63025 0.32278 0.6232 0.0
C487 C 0.61297 0.35622 0.53989 0.0
O488 O 0.61715 0.32032 0.59316 0.0
O489 O 0.61849 0.34017 0.54773 0.0
C490 C 0.94247 0.34423 0.82482 0.0
O491 O 0.94072 0.33053 0.812 0.0
Cd492 Cd 0.91088 0.3222 0.79402 0.0
O493 O 0.92763 0.35508 0.8292 0.0
Cd494 Cd 0.89194 0.36017 0.82045 0.0
C495 C 0.87954 0.31333 0.83401 0.0
O496 O 0.89876 0.35382 0.78668 0.0
O497 O 0.86791 0.36112 0.79214 0.0
O498 O 0.89979 0.39498 0.82345 0.0
C499 C 0.88129 0.35616 0.7799 0.0
O500 O 0.8897 0.30764 0.8192 0.0
C501 C 0.88582 0.39887 0.83546 0.0
O502 O 0.87805 0.3316 0.83826 0.0
O503 O 0.87458 0.38455 0.84081 0.0
C504 C 0.89388 0.59633 0.13658 0.0
O505 O 0.88168 0.60195 0.14973 0.0
Cd506 Cd 0.85105 0.61898 0.14236 0.0
O507 O 0.89059 0.5999 0.11841 0.0
Cd508 Cd 0.86538 0.61781 0.09952 0.0
C509 C 0.87291 0.66038 0.12442 0.0
O510 O 0.83403 0.60492 0.11393 0.0
O511 O 0.83229 0.63082 0.09542 0.0
O512 O 0.87006 0.59661 0.07055 0.0
C513 C 0.82325 0.61704 0.10447 0.0
O514 O 0.86118 0.65346 0.13758 0.0
C515 C 0.87225 0.61103 0.05872 0.0
O516 O 0.87837 0.64966 0.11002 0.0
O517 O 0.87227 0.62824 0.06615 0.0
C518 C 0.52582 0.63222 0.32751 0.0
O519 O 0.52589 0.64417 0.31307 0.0
Cd520 Cd 0.55454 0.6522 0.29392 0.0
O521 O 0.54184 0.62371 0.333 0.0
Cd522 Cd 0.57756 0.6233 0.32295 0.0
C523 C 0.58424 0.6722 0.33063 0.0
O524 O 0.5697 0.62105 0.28823 0.0
O525 O 0.601 0.62627 0.2949 0.0
O526 O 0.57762 0.58838 0.32995 0.0
C527 C 0.58754 0.62229 0.2821 0.0
O528 O 0.57408 0.67459 0.31483 0.0
C529 C 0.59249 0.58888 0.34174 0.0
O530 O 0.58709 0.65501 0.33754 0.0
O531 O 0.60045 0.60569 0.34524 0.0
C532 C 0.70604 0.91526 0.61044 0.0
O533 O 0.7013 0.92818 0.59769 0.0
Cd534 Cd 0.67061 0.94627 0.59624 0.0
O535 O 0.69364 0.90982 0.62373 0.0
Cd536 Cd 0.65841 0.91705 0.63222 0.0
C537 C 0.63911 0.90767 0.58631 0.0
O538 O 0.66364 0.95223 0.63002 0.0
O539 O 0.63329 0.94339 0.63676 0.0
O540 O 0.66394 0.91041 0.66727 0.0
C541 C 0.646 0.95723 0.6342 0.0
O542 O 0.64576 0.92447 0.58086 0.0
C543 C 0.65044 0.89703 0.66833 0.0
O544 O 0.64317 0.90078 0.60333 0.0
O545 O 0.64116 0.89257 0.65246 0.0
C546 C 0.34133 0.35658 0.09396 0.0
O547 O 0.35754 0.3666 0.09545 0.0
Cd548 Cd 0.38989 0.35448 0.08604 0.0
O549 O 0.34148 0.33876 0.08791 0.0
Cd550 Cd 0.36481 0.31315 0.07727 0.0
C551 C 0.37798 0.34129 0.038 0.0
O552 O 0.39123 0.32239 0.09997 0.0
O553 O 0.39921 0.30042 0.0785 0.0
O554 O 0.34375 0.29025 0.09568 0.0
C555 C 0.40444 0.31103 0.09315 0.0
O556 O 0.38818 0.35214 0.0499 0.0
C557 C 0.34374 0.27687 0.08248 0.0
O558 O 0.36717 0.32698 0.04425 0.0
O559 O 0.35278 0.28083 0.06643 0.0
C560 C 0.36095 0.63844 0.87254 0.0
O561 O 0.36443 0.62575 0.88584 0.0
Cd562 Cd 0.38812 0.60013 0.8789 0.0
O563 O 0.36817 0.63652 0.85528 0.0
Cd564 Cd 0.38707 0.61335 0.83513 0.0
C565 C 0.42836 0.62623 0.85985 0.0
O566 O 0.37709 0.58198 0.85021 0.0
O567 O 0.4033 0.58185 0.83147 0.0
O568 O 0.36107 0.61752 0.81028 0.0
C569 C 0.39038 0.57217 0.84127 0.0
O570 O 0.42129 0.61561 0.87377 0.0
C571 C 0.37308 0.61905 0.79585 0.0
O572 O 0.41819 0.6292 0.8442 0.0
O573 O 0.39172 0.61867 0.79979 0.0
C574 C 0.12262 0.60892 0.59863 0.0
O575 O 0.10702 0.59855 0.59495 0.0
Cd576 Cd 0.07483 0.61275 0.58682 0.0
O577 O 0.12251 0.62759 0.59685 0.0
Cd578 Cd 0.09998 0.65352 0.58599 0.0
C579 C 0.08625 0.63272 0.54204 0.0
O580 O 0.07081 0.64297 0.60466 0.0
O581 O 0.06643 0.66648 0.58348 0.0
O582 O 0.11143 0.6777 0.60991 0.0
C583 C 0.05922 0.65564 0.59704 0.0
O584 O 0.07552 0.62056 0.55184 0.0
C585 C 0.11997 0.68904 0.59757 0.0
O586 O 0.09796 0.64505 0.55074 0.0
O587 O 0.11981 0.6837 0.57954 0.0
C588 C 0.11257 0.33491 0.36272 0.0
O589 O 0.11037 0.34606 0.37763 0.0
Cd590 Cd 0.09131 0.37576 0.37463 0.0
O591 O 0.10632 0.34 0.34569 0.0
Cd592 Cd 0.09155 0.36885 0.32951 0.0
C593 C 0.04791 0.35927 0.35183 0.0
O594 O 0.1072 0.39515 0.34939 0.0
O595 O 0.08242 0.40346 0.33059 0.0
O596 O 0.11612 0.36444 0.30332 0.0
C597 C 0.09678 0.40875 0.34185 0.0
O598 O 0.05614 0.36647 0.36737 0.0
C599 C 0.10356 0.36644 0.2893 0.0
O600 O 0.05791 0.35732 0.33602 0.0
O601 O 0.08537 0.36888 0.29406 0.0
C602 C 0.39007 0.62648 0.38404 0.0
O603 O 0.37667 0.62734 0.37065 0.0
Cd604 Cd 0.34621 0.64511 0.37513 0.0
O605 O 0.38686 0.6334 0.40124 0.0
Cd606 Cd 0.36003 0.64802 0.42098 0.0
C607 C 0.36493 0.68931 0.39438 0.0
O608 O 0.33084 0.6339 0.40466 0.0
O609 O 0.32569 0.65875 0.42417 0.0
O610 O 0.36073 0.62219 0.44504 0.0
C611 C 0.31851 0.64538 0.41292 0.0
O612 O 0.35707 0.67929 0.3803 0.0
C613 C 0.36615 0.63295 0.45954 0.0
O614 O 0.36852 0.68172 0.41124 0.0
O615 O 0.36974 0.65111 0.4561 0.0
C616 C 0.1162 0.61101 0.12293 0.0
O617 O 0.12861 0.62512 0.126 0.0
Cd618 Cd 0.11928 0.65774 0.13692 0.0
O619 O 0.09769 0.61282 0.12688 0.0
Cd620 Cd 0.07584 0.6369 0.14233 0.0
C621 C 0.10532 0.64512 0.18324 0.0
O622 O 0.08698 0.66468 0.12289 0.0
O623 O 0.06596 0.67136 0.14604 0.0
O624 O 0.0451 0.62608 0.12567 0.0
C625 C 0.0766 0.67748 0.13174 0.0
O626 O 0.11746 0.65537 0.17287 0.0
C627 C 0.0375 0.61828 0.14103 0.0
O628 O 0.09038 0.63625 0.17529 0.0
O629 O 0.04769 0.61927 0.15692 0.0
C630 C 0.08205 0.35952 0.87815 0.0
O631 O 0.09587 0.36306 0.86573 0.0
Cd632 Cd 0.13066 0.35663 0.87199 0.0
O633 O 0.08623 0.35298 0.8953 0.0
Cd634 Cd 0.11542 0.34432 0.91564 0.0
C635 C 0.12559 0.30743 0.88376 0.0
O636 O 0.13756 0.37029 0.90381 0.0
O637 O 0.1515 0.34797 0.92164 0.0
O638 O 0.09801 0.35986 0.94276 0.0
C639 C 0.15325 0.36404 0.9122 0.0
O640 O 0.13257 0.32056 0.87211 0.0
C641 C 0.1021 0.34663 0.95537 0.0
O642 O 0.11737 0.31217 0.90002 0.0
O643 O 0.11157 0.3317 0.94918 0.0
C644 C 0.36758 0.37786 0.62992 0.0
O645 O 0.35543 0.36344 0.62727 0.0
Cd646 Cd 0.36262 0.32994 0.63724 0.0
O647 O 0.38482 0.37508 0.63747 0.0
Cd648 Cd 0.40611 0.34878 0.64996 0.0
C649 C 0.37248 0.33887 0.68631 0.0
O650 O 0.39598 0.32303 0.62674 0.0
O651 O 0.41537 0.31428 0.65069 0.0
O652 O 0.43353 0.3671 0.63477 0.0
C653 C 0.40539 0.30936 0.63541 0.0
O654 O 0.36131 0.33028 0.67346 0.0
C655 C 0.44519 0.36582 0.64963 0.0
O656 O 0.38864 0.34775 0.68133 0.0
O657 O 0.43847 0.35693 0.6648 0.0
C658 C 0.36143 0.10117 0.33902 0.0
O659 O 0.37486 0.10171 0.35244 0.0
Cd660 Cd 0.36953 0.09042 0.38585 0.0
O661 O 0.34372 0.09514 0.34287 0.0
Cd662 Cd 0.32379 0.0829 0.37067 0.0
C663 C 0.35351 0.043 0.37628 0.0
O664 O 0.33839 0.10362 0.39634 0.0
O665 O 0.31842 0.08027 0.40617 0.0
O666 O 0.29444 0.10209 0.36297 0.0
C667 C 0.32958 0.09499 0.41053 0.0
O668 O 0.36687 0.05441 0.38383 0.0
C669 C 0.28329 0.08735 0.35859 0.0
O670 O 0.33718 0.04981 0.36944 0.0
O671 O 0.29111 0.07038 0.35938 0.0
C672 C 0.11066 0.299 0.35673 0.0
C673 C 0.1208 0.31511 0.36528 0.0
C674 C 0.11716 0.27974 0.35997 0.0
C675 C 0.13477 0.27664 0.37133 0.0
C676 C 0.1457 0.29299 0.37914 0.0
C677 C 0.13824 0.31211 0.37646 0.0
C678 C 0.10468 0.26271 0.35186 0.0
C679 C 0.16496 0.29037 0.39061 0.0
C680 C 0.1329 0.2264 0.39476 0.0
C681 C 0.14054 0.21479 0.37943 0.0
C682 C 0.13245 0.24698 0.39312 0.0
C683 C 0.1405 0.2561 0.37606 0.0
C684 C 0.15058 0.2446 0.3618 0.0
C685 C 0.1501 0.22395 0.36342 0.0
C686 C 0.12127 0.25863 0.40853 0.0
C687 C 0.16037 0.25397 0.34401 0.0
H688 H 0.09711 0.30144 0.34818 0.0
H689 H 0.14613 0.3247 0.38289 0.0
H690 H 0.11374 0.25377 0.34156 0.0
H691 H 0.09986 0.2529 0.36413 0.0
H692 H 0.0911 0.26773 0.34384 0.0
H693 H 0.17417 0.30417 0.39084 0.0
H694 H 0.16145 0.28642 0.40613 0.0
H695 H 0.17402 0.27831 0.38424 0.0
H696 H 0.12557 0.21936 0.40722 0.0
H697 H 0.15633 0.21498 0.35171 0.0
H698 H 0.107 0.26395 0.40204 0.0
H699 H 0.13015 0.27177 0.41327 0.0
H700 H 0.11767 0.24964 0.42181 0.0
H701 H 0.1487 0.25771 0.33292 0.0
H702 H 0.17119 0.24387 0.33692 0.0
H703 H 0.16833 0.26788 0.34824 0.0
C704 C 0.01798 0.81263 0.63459 0.0
C705 C 0.03066 0.82309 0.62176 0.0
C706 C -0.00179 0.80787 0.62902 0.0
C707 C -0.00909 0.81413 0.6104 0.0
C708 C 0.00396 0.82387 0.59703 0.0
C709 C 0.0238 0.82805 0.60281 0.0
C710 C 0.98486 0.79702 0.64347 0.0
C711 C -0.00337 0.83103 0.57716 0.0
C712 C 0.94103 0.79512 0.59008 0.0
C713 C 0.92811 0.81017 0.59596 0.0
C714 C 0.9615 0.79592 0.59506 0.0
C715 C 0.96918 0.81238 0.60575 0.0
C716 C 0.95616 0.82757 0.61176 0.0
C717 C 0.93572 0.82617 0.60697 0.0
C718 C 0.9749 0.77926 0.58881 0.0
C719 C 0.96386 0.84552 0.62292 0.0
H720 H 0.02337 0.80862 0.64917 0.0
H721 H 0.03359 0.83617 0.59288 0.0
H722 H 0.9735 0.80726 0.64938 0.0
H723 H 0.97665 0.78475 0.63593 0.0
H724 H -0.00652 0.79092 0.65611 0.0
H725 H 0.00905 0.83687 0.56787 0.0
H726 H -0.01115 0.8189 0.56899 0.0
H727 H 0.98558 0.84294 0.57937 0.0
H728 H 0.93511 0.78267 0.58166 0.0
H729 H 0.92578 0.83789 0.61143 0.0
H730 H 0.98284 0.77322 0.60189 0.0
H731 H 0.98653 0.78487 0.57849 0.0
H732 H 0.96639 0.76708 0.58141 0.0
H733 H 0.97099 0.84096 0.63703 0.0
H734 H 0.95176 0.8561 0.62633 0.0
H735 H 0.97552 0.85328 0.61409 0.0
C736 C 0.33425 0.74214 0.91151 0.0
C737 C 0.3248 0.75323 0.89676 0.0
C738 C 0.33458 0.72152 0.91031 0.0
C739 C 0.32476 0.71193 0.89427 0.0
C740 C 0.31221 0.72286 0.88154 0.0
C741 C 0.3127 0.74355 0.88264 0.0
C742 C 0.34772 0.71034 0.92454 0.0
C743 C 0.30017 0.71287 0.86533 0.0
C744 C 0.35677 0.67431 0.8687 0.0
C745 C 0.35029 0.65666 0.87738 0.0
C746 C 0.34826 0.69228 0.87392 0.0
C747 C 0.33223 0.69251 0.88762 0.0
C748 C 0.32487 0.67455 0.89569 0.0
C749 C 0.33437 0.65679 0.89082 0.0
C750 C 0.35707 0.71107 0.8653 0.0
C751 C 0.30737 0.67388 0.90975 0.0
H752 H 0.34322 0.74955 0.9228 0.0
H753 H 0.3048 0.75208 0.87158 0.0
H754 H 0.33967 0.69708 0.93014 0.0
H755 H 0.36132 0.70526 0.91672 0.0
H756 H 0.35254 0.71958 0.93737 0.0
H757 H 0.28757 0.72223 0.86031 0.0
H758 H 0.31 0.71008 0.85246 0.0
H759 H 0.29407 0.69843 0.87044 0.0
H760 H 0.36919 0.67419 0.85839 0.0
H761 H 0.32925 0.64304 0.8974 0.0
H762 H 0.36189 0.72127 0.87735 0.0
H763 H 0.34559 0.7187 0.85632 0.0
H764 H 0.37022 0.70826 0.85571 0.0
H765 H 0.31312 0.67323 0.92517 0.0
H766 H 0.2981 0.66035 0.90718 0.0
H767 H 0.29764 0.68696 0.9083 0.0
C768 C 0.45981 0.15228 0.11142 0.0
C769 C 0.45686 0.13593 0.12371 0.0
C770 C 0.47918 0.15779 0.10535 0.0
C771 C 0.49568 0.14614 0.11112 0.0
C772 C 0.49254 0.12906 0.1228 0.0
C773 C 0.47316 0.12442 0.12934 0.0
C774 C 0.48208 0.17647 0.0935 0.0
C775 C 0.50966 0.11586 0.12861 0.0
C776 C 0.54454 0.15065 0.08302 0.0
C777 C 0.55664 0.16077 0.09679 0.0
C778 C 0.52452 0.14589 0.0874 0.0
C779 C 0.51638 0.15211 0.10564 0.0
C780 C 0.52838 0.16312 0.1192 0.0
C781 C 0.54857 0.16694 0.11477 0.0
C782 C 0.51241 0.13347 0.07294 0.0
C783 C 0.52 0.17056 0.1385 0.0
H784 H 0.44708 0.16122 0.1073 0.0
H785 H 0.4707 0.11169 0.13877 0.0
H786 H 0.49166 0.18707 0.10197 0.0
H787 H 0.48996 0.17324 0.07948 0.0
H788 H 0.46763 0.18366 0.08993 0.0
H789 H 0.50437 0.1022 0.13615 0.0
H790 H 0.51833 0.11162 0.11533 0.0
H791 H 0.52009 0.12391 0.13873 0.0
H792 H 0.55099 0.1457 0.0692 0.0
H793 H 0.55805 0.17485 0.12531 0.0
H794 H 0.49831 0.14101 0.06892 0.0
H795 H 0.50815 0.11924 0.07996 0.0
H796 H 0.52083 0.13031 0.05917 0.0
H797 H 0.50583 0.17855 0.13581 0.0
H798 H 0.53069 0.18059 0.1464 0.0
H799 H 0.51642 0.1579 0.14831 0.0
C800 C 0.09388 0.70517 0.11423 0.0
C801 C 0.07938 0.69876 0.12781 0.0
C802 C 0.09801 0.72532 0.11158 0.0
C803 C 0.08729 0.73936 0.12271 0.0
C804 C 0.07216 0.73302 0.13595 0.0
C805 C 0.06841 0.71275 0.13838 0.0
C806 C 0.11427 0.73155 0.09733 0.0
C807 C 0.06032 0.74763 0.14792 0.0
C808 C 0.1132 0.78885 0.13099 0.0
C809 C 0.10429 0.80045 0.11629 0.0
C810 C 0.10753 0.76901 0.13346 0.0
C811 C 0.09252 0.76063 0.12101 0.0
C812 C 0.08312 0.77235 0.10647 0.0
C813 C 0.08916 0.79212 0.10424 0.0
C814 C 0.11793 0.7569 0.14909 0.0
C815 C 0.06695 0.7639 0.09304 0.0
H816 H 0.1024 0.69441 0.106 0.0
H817 H 0.05713 0.70787 0.14884 0.0
H818 H 0.10825 0.74212 0.08636 0.0
H819 H 0.12657 0.73925 0.1055 0.0
H820 H 0.12066 0.71881 0.08925 0.0
H821 H 0.04826 0.74035 0.15667 0.0
H822 H 0.07051 0.75573 0.15824 0.0
H823 H 0.05344 0.75873 0.13804 0.0
H824 H 0.12489 0.79517 0.14036 0.0
H825 H 0.0821 0.801 0.09293 0.0
H826 H 0.12604 0.74459 0.14199 0.0
H827 H 0.10671 0.75024 0.15923 0.0
H828 H 0.12883 0.76581 0.15798 0.0
H829 H 0.07324 0.75201 0.08373 0.0
H830 H 0.06042 0.77526 0.08317 0.0
H831 H 0.05472 0.75719 0.10195 0.0
C832 C 0.47428 0.87138 0.34428 0.0
C833 C 0.46912 0.8547 0.33289 0.0
C834 C 0.49359 0.87366 0.35237 0.0
C835 C 0.50788 0.85876 0.3492 0.0
C836 C 0.50268 0.84178 0.33793 0.0
C837 C 0.48338 0.84003 0.32978 0.0
C838 C 0.49877 0.89205 0.36412 0.0
C839 C 0.51749 0.82546 0.33448 0.0
C840 C 0.56383 0.86807 0.35274 0.0
C841 C 0.56833 0.85955 0.37109 0.0
C842 C 0.54399 0.8689 0.34588 0.0
C843 C 0.52839 0.86078 0.35755 0.0
C844 C 0.53272 0.853 0.37647 0.0
C845 C 0.55266 0.85261 0.38309 0.0
C846 C 0.53984 0.87763 0.32575 0.0
C847 C 0.51646 0.84407 0.38925 0.0
H848 H 0.46332 0.88282 0.34662 0.0
H849 H 0.47942 0.82705 0.3211 0.0
H850 H 0.50364 0.88801 0.37928 0.0
H851 H 0.51151 0.90002 0.3571 0.0
H852 H 0.4859 0.90224 0.36523 0.0
H853 H 0.51088 0.81303 0.32574 0.0
H854 H 0.53077 0.83133 0.32648 0.0
H855 H 0.52288 0.81964 0.34886 0.0
H856 H 0.57586 0.87366 0.3435 0.0
H857 H 0.55604 0.846 0.39729 0.0
H858 H 0.52741 0.88832 0.3266 0.0
H859 H 0.53505 0.86573 0.31536 0.0
H860 H 0.55325 0.88524 0.31952 0.0
H861 H 0.50381 0.85441 0.39079 0.0
H862 H 0.52205 0.84023 0.40426 0.0
H863 H 0.51044 0.83044 0.3821 0.0
C864 C 0.36723 0.19886 0.63928 0.0
C865 C 0.37363 0.18694 0.62362 0.0
C866 C 0.37292 0.21885 0.64035 0.0
C867 C 0.38547 0.22698 0.62553 0.0
C868 C 0.39222 0.21497 0.60986 0.0
C869 C 0.38614 0.19511 0.60904 0.0
C870 C 0.36534 0.23132 0.65722 0.0
C871 C 0.40584 0.22309 0.59396 0.0
C872 C 0.38497 0.28258 0.61932 0.0
C873 C 0.40162 0.28835 0.63082 0.0
C874 C 0.37973 0.26256 0.61715 0.0
C875 C 0.39158 0.24808 0.6265 0.0
C876 C 0.40892 0.2538 0.63736 0.0
C877 C 0.41368 0.27391 0.63947 0.0
C878 C 0.36109 0.25695 0.60551 0.0
C879 C 0.4221 0.23874 0.64726 0.0
H880 H 0.35751 0.19265 0.65054 0.0
H881 H 0.39125 0.18595 0.59695 0.0
H882 H 0.37819 0.23757 0.66579 0.0
H883 H 0.35673 0.24393 0.65131 0.0
H884 H 0.35556 0.22278 0.66744 0.0
H885 H 0.41001 0.21167 0.58295 0.0
H886 H 0.39836 0.23534 0.58609 0.0
H887 H 0.41978 0.22927 0.60075 0.0
H888 H 0.37557 0.29372 0.61269 0.0
H889 H 0.42664 0.27834 0.64827 0.0
H890 H 0.34998 0.24983 0.61546 0.0
H891 H 0.36475 0.24606 0.59384 0.0
H892 H 0.35402 0.26993 0.59844 0.0
H893 H 0.41352 0.23098 0.659 0.0
H894 H 0.43575 0.24556 0.65404 0.0
H895 H 0.42677 0.22742 0.63638 0.0
C896 C -0.00039 0.13437 0.84679 0.0
C897 C 0.0046 0.14996 0.83406 0.0
C898 C 0.98065 0.13328 0.85568 0.0
C899 C 0.9666 0.14831 0.85194 0.0
C900 C 0.97191 0.16453 0.83981 0.0
C901 C -0.00919 0.16507 0.83088 0.0
C902 C 0.97538 0.11567 0.86837 0.0
C903 C 0.95742 0.18102 0.83577 0.0
C904 C 0.91087 0.13733 0.85457 0.0
C905 C 0.90595 0.14554 0.87294 0.0
C906 C 0.93071 0.1376 0.84786 0.0
C907 C 0.9459 0.14658 0.85967 0.0
C908 C 0.94109 0.15468 0.87833 0.0
C909 C 0.92116 0.15394 0.88483 0.0
C910 C 0.93535 0.12858 0.82796 0.0
C911 C 0.95689 0.16461 0.89117 0.0
H912 H 0.01022 0.12262 0.84923 0.0
H913 H -0.0053 0.17727 0.82121 0.0
H914 H 0.9697 0.12059 0.88295 0.0
H915 H 0.96319 0.10691 0.86115 0.0
H916 H -0.01159 0.10591 0.87084 0.0
H917 H 0.96444 0.19329 0.82728 0.0
H918 H 0.94436 0.17521 0.82722 0.0
H919 H 0.95162 0.18701 0.84989 0.0
H920 H 0.8992 0.13067 0.84541 0.0
H921 H 0.91742 0.16037 0.89901 0.0
H922 H 0.94749 0.11763 0.82951 0.0
H923 H 0.9408 0.14022 0.81772 0.0
H924 H 0.92203 0.12114 0.82115 0.0
H925 H 0.96951 0.15445 0.89388 0.0
H926 H 0.95084 0.16943 0.90566 0.0
H927 H 0.96313 0.17773 0.88342 0.0
C928 C 0.40524 0.09368 0.23225 0.0
C929 C 0.3998 0.10838 0.21879 0.0
C930 C 0.39852 0.09415 0.25183 0.0
C931 C 0.38643 0.10995 0.25817 0.0
C932 C 0.38115 0.12503 0.24475 0.0
C933 C 0.38772 0.12394 0.2251 0.0
C934 C 0.4041 0.07757 0.26563 0.0
C935 C 0.36861 0.14228 0.25115 0.0
C936 C 0.35441 0.09883 0.30286 0.0
C937 C 0.36675 0.10576 0.31834 0.0
C938 C 0.36032 0.10075 0.28311 0.0
C939 C 0.37883 0.11017 0.27874 0.0
C940 C 0.3908 0.11824 0.29421 0.0
C941 C 0.38471 0.11575 0.31389 0.0
C942 C 0.34728 0.09169 0.26702 0.0
C943 C 0.41042 0.12879 0.29002 0.0
H944 H 0.41448 0.08157 0.22738 0.0
H945 H 0.38366 0.13543 0.21474 0.0
H946 H 0.41245 0.08356 0.27862 0.0
H947 H 0.39031 0.07019 0.27127 0.0
H948 H 0.4135 0.06631 0.2583 0.0
H949 H 0.36655 0.15321 0.23911 0.0
H950 H 0.35362 0.13696 0.256 0.0
H951 H 0.37579 0.14984 0.26401 0.0
H952 H 0.34051 0.09105 0.30618 0.0
H953 H 0.3942 0.12131 0.3258 0.0
H954 H 0.35527 0.07923 0.26004 0.0
H955 H 0.34427 0.10266 0.25526 0.0
H956 H 0.33271 0.08606 0.27278 0.0
H957 H 0.42152 0.11803 0.28455 0.0
H958 H 0.41674 0.1362 0.3034 0.0
H959 H 0.40837 0.13999 0.27826 0.0
C960 C 0.08866 0.11331 0.44738 0.0
C961 C 0.10499 0.12276 0.43825 0.0
C962 C 0.0883 0.11061 0.46795 0.0
C963 C 0.10484 0.11722 0.47953 0.0
C964 C 0.12143 0.12664 0.47038 0.0
C965 C 0.12123 0.12944 0.44985 0.0
C966 C 0.07025 0.10075 0.47728 0.0
C967 C 0.13949 0.13357 0.48224 0.0
C968 C 0.10027 0.12542 0.53488 0.0
C969 C 0.10855 0.10802 0.54233 0.0
C970 C 0.09836 0.12838 0.51441 0.0
C971 C 0.10518 0.11372 0.50117 0.0
C972 C 0.11323 0.09601 0.50861 0.0
C973 C 0.11469 0.09331 0.52909 0.0
C974 C 0.0894 0.14733 0.50694 0.0
C975 C 0.1209 0.08014 0.49495 0.0
H976 H 0.07598 0.1083 0.43849 0.0
H977 H 0.13392 0.1367 0.44285 0.0
H978 H 0.0748 0.08694 0.48476 0.0
H979 H 0.06388 0.11054 0.48876 0.0
H980 H 0.05833 0.09709 0.46626 0.0
H981 H 0.15115 0.14065 0.47284 0.0
H982 H 0.13485 0.14432 0.49369 0.0
H983 H 0.14626 0.12088 0.49004 0.0
H984 H 0.09539 0.13678 0.54503 0.0
H985 H 0.12117 0.07984 0.53471 0.0
H986 H 0.07695 0.14401 0.49641 0.0
H987 H 0.10091 0.15598 0.49877 0.0
H988 H 0.08358 0.15663 0.51913 0.0
H989 H 0.10892 0.0754 0.48443 0.0
H990 H 0.12618 0.06697 0.50312 0.0
H991 H 0.13353 0.08612 0.48605 0.0
C992 C 0.12481 0.91758 0.78868 0.0
C993 C 0.11784 0.90776 0.80558 0.0
C994 C 0.1189 0.91133 0.7697 0.0
C995 C 0.10596 0.8947 0.76763 0.0
C996 C 0.09909 0.88457 0.78464 0.0
C997 C 0.10499 0.89132 0.80344 0.0
C998 C 0.12625 0.92269 0.7519 0.0
C999 C 0.08544 0.86664 0.78297 0.0
C1000 C 0.07397 0.88998 0.72138 0.0
C1001 C 0.08487 0.87649 0.71006 0.0
C1002 C 0.0808 0.89615 0.74005 0.0
C1003 C 0.09885 0.88845 0.74772 0.0
C1004 C 0.10993 0.87478 0.73643 0.0
C1005 C 0.10288 0.86907 0.71762 0.0
C1006 C 0.06872 0.91097 0.75154 0.0
C1007 C 0.12912 0.8661 0.7443 0.0
H1008 H 0.13474 0.93031 0.79029 0.0
H1009 H 0.09972 0.88358 0.81647 0.0
H1010 H 0.13424 0.9127 0.74167 0.0
H1011 H 0.11329 0.92874 0.74365 0.0
H1012 H 0.13653 0.9351 0.75605 0.0
H1013 H 0.08222 0.85989 0.79759 0.0
H1014 H 0.07102 0.87079 0.77596 0.0
H1015 H 0.09236 0.85536 0.77333 0.0
H1016 H 0.06012 0.89592 0.71557 0.0
H1017 H 0.11132 0.85859 0.70896 0.0
H1018 H 0.07817 0.92414 0.75511 0.0
H1019 H 0.0638 0.90445 0.76577 0.0
H1020 H 0.05524 0.91585 0.74325 0.0
H1021 H 0.14021 0.87805 0.74755 0.0
H1022 H 0.13589 0.85556 0.73372 0.0
H1023 H 0.12613 0.85828 0.75841 0.0
C1024 C 0.36048 0.84267 0.95602 0.0
C1025 C 0.37518 0.84704 0.94191 0.0
C1026 C 0.36373 0.84682 0.97605 0.0
C1027 C 0.38235 0.85512 0.98222 0.0
C1028 C 0.39743 0.8593 0.96811 0.0
C1029 C 0.39355 0.85544 0.94799 0.0
C1030 C 0.34706 0.84253 -0.00943 0.0
C1031 C 0.41761 0.8677 0.97428 0.0
C1032 C 0.37665 0.88136 0.03093 0.0
C1033 C 0.38008 0.86593 0.04429 0.0
C1034 C 0.379 0.87859 0.01055 0.0
C1035 C 0.38532 0.86005 0.00343 0.0
C1036 C 0.3909 0.84514 0.01695 0.0
C1037 C 0.38803 0.84819 0.03729 0.0
C1038 C 0.3727 0.89482 -0.00336 0.0
C1039 C 0.39827 0.82539 0.0099 0.0
H1040 H 0.34622 0.83628 0.95132 0.0
H1041 H 0.40501 0.85861 0.93708 0.0
H1042 H 0.35219 0.83183 0.00185 0.0
H1043 H 0.34298 0.85628 -0.00153 0.0
H1044 H 0.33337 0.83637 0.98325 0.0
H1045 H 0.42795 0.86947 0.96155 0.0
H1046 H 0.41574 0.8823 0.98145 0.0
H1047 H 0.42468 0.85789 0.98536 0.0
H1048 H 0.37074 0.89524 0.0362 0.0
H1049 H 0.39106 0.83631 0.04755 0.0
H1050 H 0.35802 0.89077 0.98981 0.0
H1051 H 0.38366 0.89671 0.9845 0.0
H1052 H 0.3711 0.90919 0.00441 0.0
H1053 H 0.38536 0.81637 0.00441 0.0
H1054 H 0.40576 0.81711 0.02196 0.0
H1055 H 0.40892 0.82724 -0.00254 0.0
C1056 C 0.39111 0.88368 0.25082 0.0
C1057 C 0.37854 0.87273 0.26333 0.0
C1058 C 0.38633 0.88612 0.23082 0.0
C1059 C 0.36877 0.87696 0.22307 0.0
C1060 C 0.35592 0.86594 0.23565 0.0
C1061 C 0.36084 0.86417 0.25579 0.0
C1062 C 0.40012 0.89843 0.21799 0.0
C1063 C 0.33727 0.85569 0.22773 0.0
C1064 C 0.34913 0.8974 0.17478 0.0
C1065 C 0.35807 0.88486 0.16096 0.0
C1066 C 0.35218 0.89477 0.19511 0.0
C1067 C 0.36408 0.87895 0.20172 0.0
C1068 C 0.37266 0.86588 0.18784 0.0
C1069 C 0.36976 0.86915 0.16755 0.0
C1070 C 0.34321 0.9093 0.20945 0.0
C1071 C 0.38514 0.84864 0.19443 0.0
H1072 H 0.40473 0.89044 0.25673 0.0
H1073 H 0.3512 0.8556 0.26549 0.0
H1074 H 0.40653 0.8891 0.20614 0.0
H1075 H 0.39156 0.91032 0.21067 0.0
H1076 H 0.41268 0.90528 0.22657 0.0
H1077 H 0.32883 0.84777 0.23949 0.0
H1078 H 0.3272 0.86658 0.22072 0.0
H1079 H 0.34143 0.84491 0.21611 0.0
H1080 H 0.34013 0.90961 0.16968 0.0
H1081 H 0.37648 0.85933 0.15685 0.0
H1082 H 0.3554 0.91722 0.21759 0.0
H1083 H 0.33397 0.9014 0.22058 0.0
H1084 H 0.33372 0.92037 0.20191 0.0
H1085 H 0.39909 0.85412 0.20174 0.0
H1086 H 0.38934 0.83894 0.18187 0.0
H1087 H 0.37679 0.83967 0.20545 0.0
C1088 C 0.3605 0.0996 0.524 0.0
C1089 C 0.3551 0.11743 0.53291 0.0
C1090 C 0.3576 0.09658 0.50365 0.0
C1091 C 0.34868 0.11158 0.49216 0.0
C1092 C 0.34359 0.12975 0.50103 0.0
C1093 C 0.34708 0.13254 0.5213 0.0
C1094 C 0.36361 0.07717 0.49454 0.0
C1095 C 0.33372 0.14594 0.4893 0.0
C1096 C 0.35228 0.10953 0.43625 0.0
C1097 C 0.33411 0.10007 0.43125 0.0
C1098 C 0.35733 0.11328 0.45608 0.0
C1099 C 0.34363 0.10785 0.4711 0.0
C1100 C 0.32505 0.09874 0.46606 0.0
C1101 C 0.32061 0.09473 0.44616 0.0
C1102 C 0.37743 0.12267 0.46099 0.0
C1103 C 0.30988 0.09316 0.48168 0.0
H1104 H 0.36683 0.08796 0.53295 0.0
H1105 H 0.34278 0.14631 0.52819 0.0
H1106 H 0.35004 0.06895 0.48939 0.0
H1107 H 0.3732 0.07982 0.48141 0.0
H1108 H 0.37188 0.06774 0.50515 0.0
H1109 H 0.33146 0.1595 0.49826 0.0
H1110 H 0.34292 0.14984 0.47622 0.0
H1111 H 0.3189 0.14065 0.48372 0.0
H1112 H 0.36281 0.11349 0.42471 0.0
H1113 H 0.30652 0.0875 0.44225 0.0
H1114 H 0.38617 0.11267 0.47063 0.0
H1115 H 0.37532 0.1366 0.46935 0.0
H1116 H 0.38637 0.12599 0.44755 0.0
H1117 H 0.31635 0.0821 0.49187 0.0
H1118 H 0.29581 0.08691 0.47519 0.0
H1119 H 0.30611 0.10632 0.49067 0.0
C1120 C 0.0694 0.1095 0.74667 0.0
C1121 C 0.08489 0.11867 0.75758 0.0
C1122 C 0.07241 0.10344 0.72711 0.0
C1123 C 0.09124 0.107 0.71818 0.0
C1124 C 0.10685 0.11654 0.72901 0.0
C1125 C 0.10354 0.12209 0.74872 0.0
C1126 C 0.05557 0.09292 0.71614 0.0
C1127 C 0.12703 0.12082 0.7198 0.0
C1128 C 0.10716 0.0752 0.67511 0.0
C1129 C 0.10293 0.08742 0.65897 0.0
C1130 C 0.10301 0.08125 0.69446 0.0
C1131 C 0.09482 0.10013 0.6977 0.0
C1132 C 0.09025 0.11243 0.68143 0.0
C1133 C 0.09418 0.10582 0.66216 0.0
C1134 C 0.10766 0.06755 0.71143 0.0
C1135 C 0.08175 0.13277 0.68441 0.0
H1136 H 0.05498 0.10673 0.75356 0.0
H1137 H 0.11549 0.12929 0.75712 0.0
H1138 H 0.05182 0.10102 0.7024 0.0
H1139 H 0.06041 0.07795 0.71168 0.0
H1140 H 0.04178 0.09144 0.72521 0.0
H1141 H 0.13724 0.12918 0.72994 0.0
H1142 H 0.13431 0.10677 0.71569 0.0
H1143 H 0.12509 0.12945 0.70601 0.0
H1144 H 0.11383 0.06091 0.67261 0.0
H1145 H 0.09108 0.11534 0.64967 0.0
H1146 H 0.09406 0.06512 0.72056 0.0
H1147 H 0.1193 0.07436 0.72117 0.0
H1148 H 0.1131 0.05299 0.70629 0.0
H1149 H 0.06752 0.13177 0.6928 0.0
H1150 H 0.07881 0.1404 0.67017 0.0
H1151 H 0.09239 0.14194 0.69331 0.0
C1152 C 0.11098 0.85571 0.01052 0.0
C1153 C 0.10303 0.86998 0.02319 0.0
C1154 C 0.1121 0.85897 -0.00989 0.0
C1155 C 0.10441 0.87664 0.98213 0.0
C1156 C 0.09511 0.89051 -0.00529 0.0
C1157 C 0.09489 0.88719 0.01522 0.0
C1158 C 0.12268 0.8441 0.97731 0.0
C1159 C 0.08608 0.90915 0.98662 0.0
C1160 C 0.12914 0.89564 0.93548 0.0
C1161 C 0.11648 0.88775 0.92079 0.0
C1162 C 0.12526 0.89224 0.95554 0.0
C1163 C 0.10787 0.88133 0.96098 0.0
C1164 C 0.0946 0.874 0.94618 0.0
C1165 C 0.0993 0.87696 0.92617 0.0
C1166 C 0.14014 0.89973 0.97084 0.0
C1167 C 0.07556 0.86294 0.95147 0.0
H1168 H 0.11745 0.84246 0.0167 0.0
H1169 H 0.08863 0.89817 0.02502 0.0
H1170 H 0.11296 0.83947 0.96471 0.0
H1171 H 0.13644 0.85098 0.97101 0.0
H1172 H 0.12704 0.83073 0.98569 0.0
H1173 H 0.0769 0.91688 -0.00217 0.0
H1174 H 0.09821 0.91936 0.98172 0.0
H1175 H 0.07653 0.90575 0.97351 0.0
H1176 H 0.14249 0.90389 0.93124 0.0
H1177 H 0.08942 0.87106 0.91473 0.0
H1178 H 0.14605 0.88715 0.97949 0.0
H1179 H 0.13265 0.90974 0.98141 0.0
H1180 H 0.153 0.90782 0.9641 0.0
H1181 H 0.07929 0.84868 0.95853 0.0
H1182 H 0.06594 0.85988 0.93831 0.0
H1183 H 0.06684 0.87155 0.96236 0.0
C1184 C 0.32124 0.38477 0.1068 0.0
C1185 C 0.32191 0.36595 0.09815 0.0
C1186 C 0.30292 0.39439 0.10928 0.0
C1187 C 0.28496 0.38503 0.10271 0.0
C1188 C 0.28547 0.36577 0.09461 0.0
C1189 C 0.30393 0.35641 0.09254 0.0
C1190 C 0.30286 0.41483 0.11825 0.0
C1191 C 0.26662 0.3554 0.08728 0.0
C1192 C 0.23398 0.40375 0.11806 0.0
C1193 C 0.22866 0.41511 0.10157 0.0
C1194 C 0.25253 0.39423 0.1189 0.0
C1195 C 0.26585 0.39593 0.10275 0.0
C1196 C 0.26061 0.40748 0.08615 0.0
C1197 C 0.24213 0.41704 0.08581 0.0
C1198 C 0.25778 0.38221 0.13694 0.0
C1199 C 0.27436 0.40943 0.06853 0.0
H1200 H 0.33506 0.39216 0.11134 0.0
H1201 H 0.3043 0.34185 0.08586 0.0
H1202 H 0.29857 0.42573 0.10681 0.0
H1203 H 0.29157 0.41563 0.13022 0.0
H1204 H 0.31777 0.41922 0.1244 0.0
H1205 H 0.26943 0.33997 0.08253 0.0
H1206 H 0.25507 0.35516 0.09902 0.0
H1207 H 0.26032 0.36359 0.07454 0.0
H1208 H 0.22368 0.40232 0.13034 0.0
H1209 H 0.23809 0.42574 0.07299 0.0
H1210 H 0.2724 0.38731 0.14316 0.0
H1211 H 0.25943 0.36648 0.13273 0.0
H1212 H 0.24621 0.38321 0.14865 0.0
H1213 H 0.28919 0.41545 0.07328 0.0
H1214 H 0.26815 0.41922 0.05691 0.0
H1215 H 0.27691 0.39466 0.06193 0.0
C1216 C 0.71986 0.05759 0.89293 0.0
C1217 C 0.70593 0.06817 0.88165 0.0
C1218 C 0.73884 0.06565 0.89733 0.0
C1219 C 0.74402 0.08462 0.89013 0.0
C1220 C 0.73045 0.09491 0.87787 0.0
C1221 C 0.71152 0.08658 0.87384 0.0
C1222 C 0.75297 0.05429 0.91046 0.0
C1223 C 0.73561 0.11508 0.8697 0.0
C1224 C 0.78102 0.11663 0.91885 0.0
C1225 C 0.79842 0.11473 0.90753 0.0
C1226 C 0.76331 0.10651 0.91357 0.0
C1227 C 0.76303 0.09435 0.89649 0.0
C1228 C 0.78065 0.09208 0.88521 0.0
C1229 C 0.7982 0.10224 0.89093 0.0
C1230 C 0.7448 0.10911 0.92605 0.0
C1231 C 0.78081 0.07932 0.86684 0.0
H1232 H 0.71565 0.04334 0.89901 0.0
H1233 H 0.7009 0.09475 0.86496 0.0
H1234 H 0.76799 0.05337 0.90356 0.0
H1235 H 0.75492 0.06216 0.92478 0.0
H1236 H 0.74735 0.03908 0.91348 0.0
H1237 H 0.72408 0.12037 0.8591 0.0
H1238 H 0.73694 0.12589 0.88202 0.0
H1239 H 0.75031 0.11481 0.86211 0.0
H1240 H 0.78118 0.12619 0.93174 0.0
H1241 H 0.81163 0.10075 0.88211 0.0
H1242 H 0.73893 0.09452 0.93092 0.0
H1243 H 0.73285 0.11613 0.91713 0.0
H1244 H 0.74778 0.1184 0.93935 0.0
H1245 H 0.77546 0.06416 0.87035 0.0
H1246 H 0.79599 0.07845 0.86021 0.0
H1247 H 0.77037 0.08538 0.85563 0.0
C1248 C 0.12956 0.49756 0.12972 0.0
C1249 C 0.14365 0.48898 0.11722 0.0
C1250 C 0.12584 0.51785 0.12878 0.0
C1251 C 0.13595 0.52957 0.11452 0.0
C1252 C 0.14956 0.52076 0.1013 0.0
C1253 C 0.15354 0.50058 0.10306 0.0
C1254 C 0.11157 0.52685 0.14345 0.0
C1255 C 0.16002 0.53265 0.08545 0.0
C1256 C 0.11142 0.57881 0.10574 0.0
C1257 C 0.12339 0.59133 0.11754 0.0
C1258 C 0.11613 0.55883 0.10352 0.0
C1259 C 0.13272 0.55117 0.11398 0.0
C1260 C 0.14534 0.56396 0.12524 0.0
C1261 C 0.14069 0.58403 0.12661 0.0
C1262 C 0.10278 0.54577 0.09079 0.0
C1263 C 0.16291 0.55624 0.13697 0.0
H1264 H 0.12203 0.48853 0.14071 0.0
H1265 H 0.1643 0.49383 0.09326 0.0
H1266 H 0.11951 0.53844 0.15225 0.0
H1267 H 0.09905 0.53407 0.13552 0.0
H1268 H 0.10517 0.51572 0.15377 0.0
H1269 H 0.16893 0.52323 0.07539 0.0
H1270 H 0.14885 0.54079 0.07652 0.0
H1271 H 0.17023 0.54378 0.09236 0.0
H1272 H 0.09806 0.58455 0.09871 0.0
H1273 H 0.14976 0.59371 0.13595 0.0
H1274 H 0.09372 0.53582 0.10033 0.0
H1275 H 0.11195 0.53633 0.08102 0.0
H1276 H 0.09238 0.55448 0.08147 0.0
H1277 H 0.15733 0.54616 0.14871 0.0
H1278 H 0.17187 0.56829 0.14406 0.0
H1279 H 0.17291 0.54757 0.12732 0.0
C1280 C 0.69913 0.85763 0.41275 0.0
C1281 C 0.68226 0.86395 0.40221 0.0
C1282 C 0.71842 0.86413 0.40751 0.0
C1283 C 0.7208 0.87705 0.39123 0.0
C1284 C 0.70383 0.88338 0.38047 0.0
C1285 C 0.68472 0.87684 0.38618 0.0
C1286 C 0.73624 0.85729 0.41943 0.0
C1287 C 0.70586 0.89701 0.36292 0.0
C1288 C 0.76813 0.90838 0.38866 0.0
C1289 C 0.77988 0.89738 0.3756 0.0
C1290 C 0.74883 0.90192 0.39386 0.0
C1291 C 0.74106 0.88418 0.38561 0.0
C1292 C 0.75263 0.87322 0.37209 0.0
C1293 C 0.77199 0.87991 0.36732 0.0
C1294 C 0.73691 0.9139 0.40844 0.0
C1295 C 0.74463 0.85436 0.36281 0.0
H1296 H 0.69724 0.8477 0.42518 0.0
H1297 H 0.6717 0.88168 0.37792 0.0
H1298 H 0.74684 0.8494 0.4097 0.0
H1299 H 0.74445 0.87023 0.42576 0.0
H1300 H 0.7318 0.8473 0.43171 0.0
H1301 H 0.69115 0.90022 0.3559 0.0
H1302 H 0.713 0.91117 0.3676 0.0
H1303 H 0.71573 0.89032 0.35165 0.0
H1304 H 0.77417 0.92184 0.3952 0.0
H1305 H 0.78097 0.87139 0.35715 0.0
H1306 H 0.73331 0.90479 0.4216 0.0
H1307 H 0.72246 0.91832 0.40166 0.0
H1308 H 0.74513 0.92742 0.41342 0.0
H1309 H 0.74143 0.8433 0.3745 0.0
H1310 H 0.75533 0.84789 0.35214 0.0
H1311 H 0.73028 0.8572 0.35499 0.0
C1312 C 0.84704 0.89558 0.10231 0.0
C1313 C 0.86576 0.89224 0.11118 0.0
C1314 C 0.83973 0.91483 0.10034 0.0
C1315 C 0.85125 0.93095 0.10781 0.0
C1316 C 0.87072 0.92777 0.11545 0.0
C1317 C 0.87782 0.90849 0.11683 0.0
C1318 C 0.81914 0.91776 0.09152 0.0
C1319 C 0.8834 0.94451 0.12384 0.0
C1320 C 0.83781 0.9848 0.10081 0.0
C1321 C 0.82745 0.98859 0.11839 0.0
C1322 C 0.84485 0.9658 0.0966 0.0
C1323 C 0.84195 0.95052 0.1106 0.0
C1324 C 0.83134 0.95429 0.12826 0.0
C1325 C 0.82401 0.97321 0.13181 0.0
C1326 C 0.85563 0.96214 0.07739 0.0
C1327 C 0.82831 0.93852 0.14379 0.0
H1328 H 0.83775 0.88313 0.09763 0.0
H1329 H 0.8924 0.90612 0.12354 0.0
H1330 H 0.80829 0.92066 0.10353 0.0
H1331 H 0.81913 0.93074 0.08153 0.0
H1332 H 0.81383 0.90456 0.08311 0.0
H1333 H 0.89896 0.93989 0.12727 0.0
H1334 H 0.88408 0.95705 0.11335 0.0
H1335 H 0.87648 0.94997 0.13768 0.0
H1336 H 0.84028 -0.00335 0.09031 0.0
H1337 H 0.81609 0.97612 0.14546 0.0
H1338 H 0.84924 0.94887 0.06987 0.0
H1339 H 0.87169 0.95921 0.0804 0.0
H1340 H 0.85467 0.97492 0.06718 0.0
H1341 H 0.8204 0.92552 0.13727 0.0
H1342 H 0.81951 0.94384 0.15661 0.0
H1343 H 0.84309 0.93346 0.14929 0.0
C1344 C 0.1544 0.60812 0.61777 0.0
C1345 C 0.14171 0.59949 0.60352 0.0
C1346 C 0.17396 0.60134 0.62055 0.0
C1347 C 0.18115 0.58609 0.60824 0.0
C1348 C 0.16811 0.57681 0.59433 0.0
C1349 C 0.14835 0.58346 0.59234 0.0
C1350 C 0.18721 0.61118 0.63598 0.0
C1351 C 0.1754 0.56084 0.58061 0.0
C1352 C 0.23713 0.58912 0.59933 0.0
C1353 C 0.24413 0.57395 0.61144 0.0
C1354 C 0.21655 0.59269 0.59758 0.0
C1355 C 0.20277 0.58121 0.60874 0.0
C1356 C 0.20979 0.56584 0.62098 0.0
C1357 C 0.23043 0.56218 0.62194 0.0
C1358 C 0.20958 0.6089 0.58397 0.0
C1359 C 0.19559 0.55373 0.63354 0.0
H1360 H 0.14914 0.6205 0.62644 0.0
H1361 H 0.13853 0.57699 0.58116 0.0
H1362 H 0.19495 0.59992 0.64503 0.0
H1363 H 0.19895 0.62025 0.62861 0.0
H1364 H 0.1786 0.62091 0.64599 0.0
H1365 H 0.16296 0.55393 0.57191 0.0
H1366 H 0.18647 0.56728 0.57016 0.0
H1367 H 0.18314 0.54917 0.58907 0.0
H1368 H 0.24777 0.59809 0.5911 0.0
H1369 H 0.23591 0.55053 0.63143 0.0
H1370 H 0.20276 0.62089 0.59277 0.0
H1371 H 0.19785 0.60311 0.57367 0.0
H1372 H 0.22205 0.61532 0.57513 0.0
H1373 H 0.18812 0.56348 0.64438 0.0
H1374 H 0.2034 0.54187 0.64175 0.0
H1375 H 0.18364 0.5469 0.6242 0.0
C1376 C 0.11561 0.43533 0.35994 0.0
C1377 C 0.10172 0.42977 0.34524 0.0
C1378 C 0.12148 0.45514 0.36237 0.0
C1379 C 0.11346 0.4696 0.34961 0.0
C1380 C 0.09903 0.46414 0.3351 0.0
C1381 C 0.09323 0.44426 0.33317 0.0
C1382 C 0.13671 0.4605 0.3782 0.0
C1383 C 0.09033 0.47915 0.3211 0.0
C1384 C 0.11936 0.52369 0.36339 0.0
C1385 C 0.13652 0.52908 0.35265 0.0
C1386 C 0.11165 0.50433 0.36259 0.0
C1387 C 0.12119 0.49019 0.35056 0.0
C1388 C 0.13831 0.49564 0.33944 0.0
C1389 C 0.14585 0.51499 0.34073 0.0
C1390 C 0.09349 0.49893 0.37481 0.0
C1391 C 0.14872 0.48099 0.32624 0.0
H1392 H 0.12208 0.42417 0.36939 0.0
H1393 H 0.0825 0.44001 0.32176 0.0
H1394 H 0.15081 0.46577 0.3712 0.0
H1395 H 0.1311 0.47275 0.3875 0.0
H1396 H 0.14023 0.44779 0.38791 0.0
H1397 H 0.07841 0.47268 0.3114 0.0
H1398 H 0.08393 0.49163 0.32951 0.0
H1399 H 0.1024 0.48532 0.3116 0.0
H1400 H 0.11216 0.53451 0.37272 0.0
H1401 H 0.15903 0.51911 0.33229 0.0
H1402 H 0.09733 0.487 0.38534 0.0
H1403 H 0.08128 0.49315 0.36509 0.0
H1404 H 0.08777 0.5117 0.38332 0.0
H1405 H 0.15436 0.46852 0.3352 0.0
H1406 H 0.16155 0.48775 0.31817 0.0
H1407 H 0.13792 0.47474 0.31526 0.0
C1408 C 0.37835 0.54014 0.85507 0.0
C1409 C 0.3904 0.55044 0.84159 0.0
C1410 C 0.37693 0.51952 0.85447 0.0
C1411 C 0.38761 0.50903 0.83984 0.0
C1412 C 0.40046 0.51928 0.82672 0.0
C1413 C 0.40179 0.53993 0.82782 0.0
C1414 C 0.36327 0.50903 0.86891 0.0
C1415 C 0.41195 0.50858 0.81087 0.0
C1416 C 0.38759 0.4539 0.84842 0.0
C1417 C 0.36983 0.44837 0.83859 0.0
C1418 C 0.39451 0.47356 0.84794 0.0
C1419 C 0.38349 0.48767 0.83713 0.0
C1420 C 0.36664 0.48164 0.82568 0.0
C1421 C 0.35989 0.46205 0.82673 0.0
C1422 C 0.41252 0.47949 0.86034 0.0
C1423 C 0.35475 0.49617 0.8136 0.0
H1424 H 0.36972 0.54823 0.86587 0.0
H1425 H 0.41117 0.54787 0.81738 0.0
H1426 H 0.35023 0.50247 0.86085 0.0
H1427 H 0.3713 0.49678 0.87623 0.0
H1428 H 0.35756 0.51913 0.8805 0.0
H1429 H 0.42327 0.51832 0.80365 0.0
H1430 H 0.41966 0.49559 0.81714 0.0
H1431 H 0.40132 0.50304 0.79937 0.0
H1432 H 0.39522 0.44327 0.85766 0.0
H1433 H 0.34624 0.45762 0.81899 0.0
H1434 H 0.40739 0.48731 0.8738 0.0
H1435 H 0.42248 0.4898 0.85213 0.0
H1436 H 0.42134 0.46649 0.86502 0.0
H1437 H 0.34637 0.50602 0.82367 0.0
H1438 H 0.34381 0.48867 0.80355 0.0
H1439 H 0.36491 0.50561 0.80462 0.0
C1440 C 0.83496 0.66098 0.60242 0.0
C1441 C 0.83207 0.65871 0.62282 0.0
C1442 C 0.83086 0.67901 0.59322 0.0
C1443 C 0.82313 0.69465 0.6047 0.0
C1444 C 0.81627 0.69082 0.62411 0.0
C1445 C 0.8213 0.67297 0.6332 0.0
C1446 C 0.83804 0.68229 0.57234 0.0
C1447 C 0.80648 0.70667 0.63625 0.0
C1448 C 0.85212 0.74281 0.6021 0.0
C1449 C 0.8401 0.75413 0.58969 0.0
C1450 C 0.84682 0.72336 0.60667 0.0
C1451 C 0.8285 0.71526 0.59927 0.0
C1452 C 0.81606 0.72678 0.58689 0.0
C1453 C 0.82223 0.7461 0.58193 0.0
C1454 C 0.86099 0.71153 0.61939 0.0
C1455 C 0.79601 0.71915 0.5795 0.0
H1456 H 0.843 0.64982 0.59424 0.0
H1457 H 0.81857 0.67101 0.64888 0.0
H1458 H 0.82768 0.69191 0.56401 0.0
H1459 H 0.85297 0.68977 0.57282 0.0
H1460 H 0.83957 0.66812 0.56421 0.0
H1461 H 0.79748 0.70019 0.64847 0.0
H1462 H 0.81825 0.71643 0.64288 0.0
H1463 H 0.79665 0.7159 0.62686 0.0
H1464 H 0.86603 0.7491 0.6079 0.0
H1465 H 0.81289 0.75509 0.57247 0.0
H1466 H 0.86445 0.69729 0.61209 0.0
H1467 H 0.85386 0.70815 0.6338 0.0
H1468 H 0.87536 0.71953 0.62238 0.0
H1469 H 0.79626 0.7031 0.57625 0.0
H1470 H 0.7911 0.72712 0.566 0.0
H1471 H 0.78464 0.72152 0.59117 0.0
C1472 C 0.96288 0.12974 0.38255 0.0
C1473 C 0.94953 0.13546 0.36761 0.0
C1474 C 0.98302 0.13593 0.38222 0.0
C1475 C -0.01019 0.14832 0.36672 0.0
C1476 C 0.97612 0.15518 0.35235 0.0
C1477 C 0.95613 0.14858 0.3529 0.0
C1478 C -0.00275 0.12832 0.39781 0.0
C1479 C 0.98278 0.16871 0.33584 0.0
C1480 C 0.04119 0.17159 0.37452 0.0
C1481 C 0.0534 0.15823 0.36445 0.0
C1482 C 0.0203 0.16907 0.37469 0.0
C1483 C 0.01153 0.1527 0.36472 0.0
C1484 C 0.0237 0.1397 0.35377 0.0
C1485 C 0.04454 0.1427 0.35367 0.0
C1486 C 0.00772 0.18341 0.38624 0.0
C1487 C 0.01483 0.12205 0.34296 0.0
H1488 H 0.95787 0.11961 0.39395 0.0
H1489 H 0.9458 0.15324 0.34143 0.0
H1490 H 0.00836 0.11847 0.39081 0.0
H1491 H 0.00573 0.14074 0.40477 0.0
H1492 H -0.01067 0.11992 0.40959 0.0
H1493 H 0.96988 0.17456 0.32731 0.0
H1494 H -0.00826 0.18132 0.34183 0.0
H1495 H -0.00745 0.16052 0.32553 0.0
H1496 H 0.04801 0.18372 0.38275 0.0
H1497 H 0.05393 0.13234 0.34588 0.0
H1498 H 0.00135 0.1759 0.3994 0.0
H1499 H -0.00507 0.1885 0.3771 0.0
H1500 H 0.01657 0.1965 0.39132 0.0
H1501 H 0.00797 0.1117 0.35376 0.0
H1502 H 0.02624 0.11398 0.3343 0.0
H1503 H 0.00274 0.12678 0.33274 0.0
C1504 C 0.61769 0.23999 0.09473 0.0
C1505 C 0.63369 0.22891 0.08783 0.0
C1506 C 0.61999 0.26017 0.09847 0.0
C1507 C 0.63903 0.26935 0.09574 0.0
C1508 C 0.65521 0.25825 0.0883 0.0
C1509 C 0.65228 0.23802 0.08426 0.0
C1510 C 0.60214 0.27147 0.10596 0.0
C1511 C 0.67578 0.26737 0.08557 0.0
C1512 C 0.63019 0.3237 0.09599 0.0
C1513 C 0.62937 0.32695 0.11647 0.0
C1514 C 0.6361 0.30538 0.08847 0.0
C1515 C 0.64159 0.2903 0.10181 0.0
C1516 C 0.64404 0.29476 0.12216 0.0
C1517 C 0.63761 0.31303 0.12934 0.0
C1518 C 0.63361 0.30133 0.06662 0.0
C1519 C 0.65082 0.27935 0.13673 0.0
H1520 H 0.60335 0.23273 0.09744 0.0
H1521 H 0.66467 0.2292 0.07912 0.0
H1522 H 0.60501 0.27649 0.12137 0.0
H1523 H 0.5997 0.28477 0.09676 0.0
H1524 H 0.58812 0.26239 0.10579 0.0
H1525 H 0.68503 0.25851 0.0753 0.0
H1526 H 0.67488 0.28268 0.07989 0.0
H1527 H 0.68359 0.26802 0.10011 0.0
H1528 H 0.62413 0.33457 0.08593 0.0
H1529 H 0.63747 0.31571 0.14516 0.0
H1530 H 0.61899 0.29368 0.06402 0.0
H1531 H 0.64559 0.29158 0.06111 0.0
H1532 H 0.63378 0.31522 0.0579 0.0
H1533 H 0.63803 0.26928 0.14015 0.0
H1534 H 0.6562 0.28616 0.1508 0.0
H1535 H 0.663 0.27034 0.13039 0.0
C1536 C 0.41385 0.82496 0.84777 0.0
C1537 C 0.40764 0.80828 0.85844 0.0
C1538 C 0.4343 0.82881 0.84451 0.0
C1539 C 0.44873 0.81553 0.85192 0.0
C1540 C 0.44239 0.79775 0.86104 0.0
C1541 C 0.42188 0.79439 0.86431 0.0
C1542 C 0.44048 0.84794 0.83472 0.0
C1543 C 0.45729 0.78305 0.86884 0.0
C1544 C 0.50359 0.82396 0.83881 0.0
C1545 C 0.51054 0.83453 0.85544 0.0
C1546 C 0.48353 0.8174 0.83746 0.0
C1547 C 0.47016 0.82168 0.85304 0.0
C1548 C 0.47716 0.83213 0.86994 0.0
C1549 C 0.49725 0.83833 0.87097 0.0
C1550 C 0.47659 0.80608 0.81935 0.0
C1551 C 0.46335 0.83703 0.88687 0.0
H1552 H 0.40288 0.8357 0.84315 0.0
H1553 H 0.41709 0.78133 0.87234 0.0
H1554 H 0.4467 0.85824 0.84608 0.0
H1555 H 0.45242 0.84542 0.82367 0.0
H1556 H 0.42764 0.85518 0.82728 0.0
H1557 H 0.45002 0.76865 0.87242 0.0
H1558 H 0.46937 0.78054 0.85793 0.0
H1559 H 0.46445 0.78901 0.88251 0.0
H1560 H 0.51377 0.82092 0.82676 0.0
H1561 H 0.50244 0.84651 0.88387 0.0
H1562 H 0.46482 0.81447 0.81148 0.0
H1563 H 0.46976 0.79173 0.82375 0.0
H1564 H 0.48905 0.80324 0.80892 0.0
H1565 H 0.45069 0.84603 0.88143 0.0
H1566 H 0.47118 0.84533 0.89892 0.0
H1567 H 0.45686 0.82327 0.89318 0.0
C1568 C 0.82411 0.22016 0.87617 0.0
C1569 C 0.8345 0.2127 0.89257 0.0
C1570 C 0.82746 0.23958 0.86978 0.0
C1571 C 0.84165 0.25164 0.87995 0.0
C1572 C 0.84996 0.2451 0.89805 0.0
C1573 C 0.84625 0.22564 0.9042 0.0
C1574 C 0.81777 0.24625 0.85075 0.0
C1575 C 0.86479 0.2577 0.90959 0.0
C1576 C 0.87682 0.2787 0.84556 0.0
C1577 C 0.86999 0.29814 0.84661 0.0
C1578 C 0.86792 0.26368 0.85671 0.0
C1579 C 0.85158 0.26811 0.86919 0.0
C1580 C 0.84478 0.28777 0.87069 0.0
C1581 C 0.85415 0.30264 0.85937 0.0
C1582 C 0.87591 0.24296 0.85486 0.0
C1583 C 0.82731 0.29301 0.88369 0.0
H1584 H 0.81454 0.21041 0.8674 0.0
H1585 H 0.854 0.22014 0.91716 0.0
H1586 H 0.81337 0.26195 0.85175 0.0
H1587 H 0.8287 0.24493 0.8385 0.0
H1588 H 0.8043 0.23713 0.84697 0.0
H1589 H 0.86636 0.25253 0.9251 0.0
H1590 H 0.87971 0.25693 0.90243 0.0
H1591 H 0.86025 0.27339 0.9097 0.0
H1592 H 0.88923 0.27515 0.83595 0.0
H1593 H 0.8488 0.31766 0.8602 0.0
H1594 H 0.86404 0.23293 0.84885 0.0
H1595 H 0.8803 0.23731 0.86964 0.0
H1596 H 0.88915 0.2422 0.84499 0.0
H1597 H 0.81313 0.28819 0.87634 0.0
H1598 H 0.82658 0.30917 0.88639 0.0
H1599 H 0.82816 0.28531 0.89813 0.0
C1600 C 0.4269 0.10355 0.61329 0.0
C1601 C 0.41322 0.09748 0.62783 0.0
C1602 C 0.44759 0.10313 0.61683 0.0
C1603 C 0.45475 0.09586 0.63511 0.0
C1604 C 0.44113 0.08751 0.64885 0.0
C1605 C 0.42042 0.08871 0.64519 0.0
C1606 C 0.46155 0.11245 0.60187 0.0
C1607 C 0.44832 0.07873 0.66808 0.0
C1608 C 0.51154 0.0941 0.63857 0.0
C1609 C 0.51582 0.11199 0.64827 0.0
C1610 C 0.4916 0.08788 0.63529 0.0
C1611 C 0.47578 0.10031 0.6411 0.0
C1612 C 0.48012 0.11823 0.65122 0.0
C1613 C 0.5001 0.12366 0.65499 0.0
C1614 C 0.48753 0.06832 0.62519 0.0
C1615 C 0.46372 0.13218 0.65726 0.0
H1616 H 0.42148 0.11022 0.59975 0.0
H1617 H 0.40992 0.08366 0.65634 0.0
H1618 H 0.46764 0.12658 0.60791 0.0
H1619 H 0.47446 0.10276 0.59892 0.0
H1620 H 0.45385 0.11555 0.58762 0.0
H1621 H 0.43664 0.06912 0.6749 0.0
H1622 H 0.46207 0.06998 0.66575 0.0
H1623 H 0.45214 0.09078 0.67866 0.0
H1624 H 0.52376 0.08496 0.6336 0.0
H1625 H 0.50346 0.13752 0.66245 0.0
H1626 H 0.48317 0.07085 0.60955 0.0
H1627 H 0.47492 0.06032 0.63241 0.0
H1628 H 0.50095 0.05877 0.62536 0.0
H1629 H 0.45529 0.13702 0.64396 0.0
H1630 H 0.46969 0.1455 0.66505 0.0
H1631 H 0.45291 0.12455 0.66713 0.0
C1632 C 0.63623 0.77132 0.36843 0.0
C1633 C 0.62548 0.77993 0.38391 0.0
C1634 C 0.63162 0.75215 0.36185 0.0
C1635 C 0.61571 0.7415 0.37081 0.0
C1636 C 0.6058 0.74954 0.3874 0.0
C1637 C 0.61091 0.76867 0.39385 0.0
C1638 C 0.64277 0.74393 0.34434 0.0
C1639 C 0.58871 0.73863 0.3973 0.0
C1640 C 0.58556 0.70857 0.33615 0.0
C1641 C 0.59235 0.68974 0.3412 0.0
C1642 C 0.59288 0.72544 0.34593 0.0
C1643 C 0.60753 0.72347 0.36101 0.0
C1644 C 0.61448 0.70454 0.36624 0.0
C1645 C 0.60671 0.68783 0.35632 0.0
C1646 C 0.58494 0.74539 0.34004 0.0
C1647 C 0.63024 0.70197 0.38212 0.0
H1648 H 0.64774 0.77986 0.36089 0.0
H1649 H 0.60257 0.77523 0.40586 0.0
H1650 H 0.64696 0.72837 0.34701 0.0
H1651 H 0.63289 0.74412 0.33107 0.0
H1652 H 0.65659 0.75266 0.34103 0.0
H1653 H 0.58459 0.74553 0.41163 0.0
H1654 H 0.57534 0.73869 0.38743 0.0
H1655 H 0.59261 0.72299 0.39995 0.0
H1656 H 0.57436 0.71017 0.32459 0.0
H1657 H 0.61205 0.67331 0.36026 0.0
H1658 H 0.59737 0.75483 0.33438 0.0
H1659 H 0.57862 0.75297 0.35313 0.0
H1660 H 0.57311 0.74428 0.32843 0.0
H1661 H 0.64426 0.70986 0.37783 0.0
H1662 H 0.63373 0.6862 0.38473 0.0
H1663 H 0.62515 0.70861 0.39621 0.0
C1664 C 0.06469 0.88353 0.14912 0.0
C1665 C 0.07206 0.89163 0.1315 0.0
C1666 C 0.04405 0.88315 0.15295 0.0
C1667 C 0.03074 0.89168 0.13911 0.0
C1668 C 0.03849 0.90257 0.12296 0.0
C1669 C 0.05911 0.90206 0.11907 0.0
C1670 C 0.03642 0.87134 0.17033 0.0
C1671 C 0.02481 0.91291 0.10859 0.0
C1672 C 0.98383 0.86183 0.12735 0.0
C1673 C 0.96955 0.87101 0.13915 0.0
C1674 C 0.00379 0.86847 0.12735 0.0
C1675 C 0.00938 0.88525 0.13883 0.0
C1676 C -0.00522 0.89508 0.1502 0.0
C1677 C 0.97505 0.8875 0.15062 0.0
C1678 C 0.01895 0.8572 0.11538 0.0
C1679 C -0.0001 0.91338 0.16208 0.0
H1680 H 0.07471 0.87549 0.15878 0.0
H1681 H 0.06488 0.90861 0.10559 0.0
H1682 H 0.02444 0.87936 0.17814 0.0
H1683 H 0.02985 0.85717 0.16489 0.0
H1684 H 0.04858 0.868 0.18107 0.0
H1685 H 0.03308 0.92421 0.09984 0.0
H1686 H 0.01816 0.90193 0.09816 0.0
H1687 H 0.01233 0.92011 0.11651 0.0
H1688 H 0.97953 0.84899 0.11861 0.0
H1689 H 0.96387 0.89465 0.15964 0.0
H1690 H 0.03152 0.85249 0.12504 0.0
H1691 H 0.02536 0.86684 0.10372 0.0
H1692 H 0.01228 0.84387 0.10815 0.0
H1693 H 0.00633 0.90904 0.17657 0.0
H1694 H 0.98636 0.9223 0.16498 0.0
H1695 H 0.01117 0.92279 0.15441 0.0
C1696 C 0.63421 0.87016 0.68802 0.0
C1697 C 0.64448 0.88834 0.68742 0.0
C1698 C 0.6265 0.86283 0.70587 0.0
C1699 C 0.6286 0.8743 0.72332 0.0
C1700 C 0.63948 0.8924 0.72287 0.0
C1701 C 0.64754 0.89907 0.70495 0.0
C1702 C 0.61555 0.84317 0.70593 0.0
C1703 C 0.6417 0.90525 0.74109 0.0
C1704 C 0.58919 0.86988 0.76329 0.0
C1705 C 0.59987 0.86045 0.77836 0.0
C1706 C 0.59826 0.87408 0.74509 0.0
C1707 C 0.61826 0.86818 0.74175 0.0
C1708 C 0.62872 0.85766 0.75654 0.0
C1709 C 0.61948 0.85418 0.77483 0.0
C1710 C 0.58676 0.88569 0.72982 0.0
C1711 C 0.64983 0.85061 0.75327 0.0
H1712 H 0.63196 0.86178 0.67447 0.0
H1713 H 0.65536 0.91321 0.70448 0.0
H1714 H 0.62114 0.83382 0.71819 0.0
H1715 H 0.59932 0.84548 0.70845 0.0
H1716 H 0.61731 0.83505 0.69175 0.0
H1717 H 0.65116 0.91859 0.73838 0.0
H1718 H 0.62668 0.91004 0.74604 0.0
H1719 H 0.64846 0.89676 0.75338 0.0
H1720 H 0.57407 0.87484 0.76606 0.0
H1721 H 0.62769 0.84675 0.78646 0.0
H1722 H 0.58624 0.87759 0.71555 0.0
H1723 H 0.59454 0.90002 0.72714 0.0
H1724 H 0.57114 0.88866 0.73451 0.0
H1725 H 0.65081 0.84262 0.73896 0.0
H1726 H 0.65496 0.8407 0.7653 0.0
H1727 H 0.66028 0.86347 0.75253 0.0
C1728 C 0.89337 0.85283 0.5069 0.0
C1729 C 0.87774 0.84176 0.51539 0.0
C1730 C 0.89248 0.85861 0.48702 0.0
C1731 C 0.87532 0.85356 0.47557 0.0
C1732 C 0.85992 0.8416 0.4838 0.0
C1733 C 0.86142 0.83566 0.5036 0.0
C1734 C 0.90939 0.87099 0.47861 0.0
C1735 C 0.84124 0.83619 0.47213 0.0
C1736 C 0.85974 0.89015 0.43646 0.0
C1737 C 0.86485 0.88036 0.41893 0.0
C1738 C 0.86316 0.88155 0.45494 0.0
C1739 C 0.87229 0.86285 0.45596 0.0
C1740 C 0.87803 0.85309 0.43837 0.0
C1741 C 0.87403 0.86189 0.41999 0.0
C1742 C 0.85654 0.89231 0.47336 0.0
C1743 C 0.8882 0.83333 0.43899 0.0
H1744 H 0.90616 0.85733 0.51591 0.0
H1745 H 0.8493 0.8271 0.51013 0.0
H1746 H 0.91378 0.86534 0.46386 0.0
H1747 H 0.90434 0.88639 0.47662 0.0
H1748 H 0.92282 0.87121 0.48844 0.0
H1749 H 0.8316 0.82529 0.48001 0.0
H1750 H 0.83237 0.84968 0.46942 0.0
H1751 H 0.84524 0.83001 0.45749 0.0
H1752 H 0.85249 0.90436 0.43577 0.0
H1753 H 0.87807 0.85431 0.40646 0.0
H1754 H 0.86958 0.89508 0.4833 0.0
H1755 H 0.84558 0.88304 0.48161 0.0
H1756 H 0.84948 0.90668 0.46995 0.0
H1757 H 0.90174 0.83423 0.4486 0.0
H1758 H 0.89272 0.82821 0.42405 0.0
H1759 H 0.87796 0.8221 0.44551 0.0
C1760 C 0.84266 0.05834 0.2023 0.0
C1761 C 0.84488 0.06887 0.18466 0.0
C1762 C 0.85123 0.06538 0.21995 0.0
C1763 C 0.86171 0.08371 0.22 0.0
C1764 C 0.86444 0.09419 0.20211 0.0
C1765 C 0.8562 0.08647 0.18452 0.0
C1766 C 0.84849 0.0535 0.23865 0.0
C1767 C 0.87513 0.11398 0.20171 0.0
C1768 C 0.86011 0.10793 0.27035 0.0
C1769 C 0.87895 0.10314 0.27804 0.0
C1770 C 0.85484 0.10292 0.25086 0.0
C1771 C 0.86856 0.09233 0.2391 0.0
C1772 C 0.88794 0.08823 0.24652 0.0
C1773 C 0.89301 0.09394 0.26589 0.0
C1774 C 0.83423 0.10806 0.24323 0.0
C1775 C 0.9028 0.07662 0.23457 0.0
H1776 H 0.83402 0.04464 0.20231 0.0
H1777 H 0.85774 0.09469 0.17085 0.0
H1778 H 0.86315 0.05151 0.2462 0.0
H1779 H 0.83865 0.06155 0.24901 0.0
H1780 H 0.84167 0.03872 0.23571 0.0
H1781 H 0.87748 0.11941 0.18639 0.0
H1782 H 0.86613 0.12498 0.20987 0.0
H1783 H 0.8899 0.11313 0.20927 0.0
H1784 H 0.84931 0.11523 0.27972 0.0
H1785 H 0.90757 0.09014 0.27191 0.0
H1786 H 0.8249 0.09442 0.24188 0.0
H1787 H 0.83527 0.11474 0.22829 0.0
H1788 H 0.82645 0.1185 0.2532 0.0
H1789 H 0.89739 0.06111 0.23314 0.0
H1790 H 0.91794 0.07661 0.24155 0.0
H1791 H 0.90412 0.08269 0.2194 0.0
C1792 C 0.6145 0.09769 0.93694 0.0
C1793 C 0.62551 0.08034 0.93483 0.0
C1794 C 0.6117 0.10621 0.95565 0.0
C1795 C 0.62051 0.09736 0.97248 0.0
C1796 C 0.63153 0.07979 0.97044 0.0
C1797 C 0.63372 0.07137 0.95165 0.0
C1798 C 0.59949 0.12474 0.95739 0.0
C1799 C 0.64145 0.07014 0.98802 0.0
C1800 C 0.63149 0.12918 0.01755 0.0
C1801 C 0.61631 0.12299 0.03049 0.0
C1802 C 0.63296 0.12103 -0.00146 0.0
C1803 C 0.61864 0.10668 -0.00776 0.0
C1804 C 0.60302 0.1007 0.00507 0.0
C1805 C 0.60217 0.10878 0.02415 0.0
C1806 C 0.65006 0.12746 0.98537 0.0
C1807 C 0.58728 0.0857 -0.00132 0.0
H1808 H 0.60806 0.1046 0.92397 0.0
H1809 H 0.6424 0.05805 0.95006 0.0
H1810 H 0.58725 0.1225 0.96827 0.0
H1811 H 0.60911 0.13707 0.96295 0.0
H1812 H 0.59277 0.12916 0.94302 0.0
H1813 H 0.64946 0.05647 0.98388 0.0
H1814 H 0.65237 0.0806 -0.00504 0.0
H1815 H 0.63008 0.06637 -0.00064 0.0
H1816 H 0.6425 0.1401 0.02245 0.0
H1817 H 0.59028 0.10412 0.03406 0.0
H1818 H 0.64414 0.13345 0.97128 0.0
H1819 H 0.65938 0.11454 0.9816 0.0
H1820 H 0.65984 0.1389 -0.00753 0.0
H1821 H 0.58002 0.09049 0.98472 0.0
H1822 H 0.5755 0.08346 0.01005 0.0
H1823 H 0.59442 0.07131 -0.00431 0.0
C1824 C 0.61547 0.12825 0.8159 0.0
C1825 C 0.62958 0.11309 0.81649 0.0
C1826 C 0.61071 0.13759 0.79796 0.0
C1827 C 0.62001 0.13127 0.78031 0.0
C1828 C 0.63512 0.11683 0.78108 0.0
C1829 C 0.63984 0.10806 0.79918 0.0
C1830 C 0.59497 0.15339 0.79776 0.0
C1831 C 0.64535 0.10957 0.76258 0.0
C1832 C 0.59314 0.12981 0.7311 0.0
C1833 C 0.60434 0.14368 0.72027 0.0
C1834 C 0.5972 0.12658 0.75117 0.0
C1835 C 0.61254 0.13777 0.7607 0.0
C1836 C 0.62265 0.153 0.75032 0.0
C1837 C 0.6186 0.15563 0.7301 0.0
C1838 C 0.58618 0.11005 0.76167 0.0
C1839 C 0.63864 0.16566 0.76018 0.0
H1840 H 0.60763 0.13234 0.82928 0.0
H1841 H 0.6509 0.09648 0.79954 0.0
H1842 H 0.59952 0.16577 0.78797 0.0
H1843 H 0.58068 0.14712 0.79185 0.0
H1844 H 0.59215 0.15929 0.81283 0.0
H1845 H 0.65756 0.09906 0.76589 0.0
H1846 H 0.63418 0.10204 0.75281 0.0
H1847 H 0.65179 0.12217 0.75419 0.0
H1848 H 0.58202 0.12059 0.72364 0.0
H1849 H 0.62706 0.16662 0.72187 0.0
H1850 H 0.58031 0.11526 0.77605 0.0
H1851 H 0.59674 0.0979 0.76481 0.0
H1852 H 0.57347 0.10398 0.75274 0.0
H1853 H 0.63396 0.17005 0.77528 0.0
H1854 H 0.64206 0.17918 0.75149 0.0
H1855 H 0.65263 0.15709 0.76166 0.0
C1856 C 0.62036 0.87738 0.48089 0.0
C1857 C 0.61109 0.85952 0.4754 0.0
C1858 C 0.62179 0.88305 0.50074 0.0
C1859 C 0.61292 0.87094 0.51545 0.0
C1860 C 0.60244 0.85342 0.50988 0.0
C1861 C 0.60211 0.84762 0.48988 0.0
C1862 C 0.63364 0.90155 0.506 0.0
C1863 C 0.59205 0.84056 0.52498 0.0
C1864 C 0.63949 0.87868 0.56422 0.0
C1865 C 0.62926 0.89503 0.57146 0.0
C1866 C 0.63328 0.86938 0.54664 0.0
C1867 C 0.61607 0.87631 0.53656 0.0
C1868 C 0.60441 0.89136 0.54517 0.0
C1869 C 0.61148 0.90097 0.56231 0.0
C1870 C 0.64639 0.85368 0.53779 0.0
C1871 C 0.58539 0.89838 0.53543 0.0
H1872 H 0.62748 0.88649 0.4697 0.0
H1873 H 0.59486 0.83382 0.48558 0.0
H1874 H 0.62389 0.91224 0.51364 0.0
H1875 H 0.64607 0.89789 0.5163 0.0
H1876 H 0.64015 0.9089 0.49278 0.0
H1877 H 0.58026 0.83104 0.51801 0.0
H1878 H 0.60317 0.83079 0.5321 0.0
H1879 H 0.5851 0.8496 0.53675 0.0
H1880 H 0.65334 0.87428 0.57136 0.0
H1881 H 0.60358 0.91361 0.56809 0.0
H1882 H 0.65396 0.85967 0.52446 0.0
H1883 H 0.63722 0.84073 0.53304 0.0
H1884 H 0.65807 0.84864 0.54835 0.0
H1885 H 0.58921 0.90825 0.52289 0.0
H1886 H 0.57593 0.90672 0.54594 0.0
H1887 H 0.57653 0.88571 0.52941 0.0
C1888 C 0.86216 0.84111 0.29442 0.0
C1889 C 0.84693 0.85455 0.29856 0.0
C1890 C 0.86562 0.83482 0.27494 0.0
C1891 C 0.85372 0.84238 0.25935 0.0
C1892 C 0.83729 0.85461 0.2637 0.0
C1893 C 0.83401 0.86043 0.28329 0.0
C1894 C 0.88297 0.82133 0.2709 0.0
C1895 C 0.82429 0.86308 0.24751 0.0
C1896 C 0.87917 0.85276 0.21052 0.0
C1897 C 0.87094 0.83795 0.19831 0.0
C1898 C 0.87384 0.85413 0.23047 0.0
C1899 C 0.8602 0.84013 0.23851 0.0
C1900 C 0.85218 0.82484 0.22641 0.0
C1901 C 0.85749 0.82405 0.20634 0.0
C1902 C 0.88249 0.87086 0.24282 0.0
C1903 C 0.8379 0.80947 0.23461 0.0
H1904 H 0.87206 0.83634 0.3062 0.0
H1905 H 0.82205 0.87066 0.2864 0.0
H1906 H 0.87867 0.80986 0.25986 0.0
H1907 H 0.89562 0.83007 0.26464 0.0
H1908 H 0.88832 0.81397 0.28458 0.0
H1909 H 0.81069 0.87022 0.25348 0.0
H1910 H 0.83307 0.8743 0.23916 0.0
H1911 H 0.81954 0.85141 0.23687 0.0
H1912 H 0.88952 0.86357 0.20438 0.0
H1913 H 0.85125 0.81245 0.19699 0.0
H1914 H 0.89062 0.8649 0.25581 0.0
H1915 H 0.87019 0.88014 0.24852 0.0
H1916 H 0.893 0.88042 0.23432 0.0
H1917 H 0.8446 0.80242 0.24785 0.0
H1918 H 0.83406 0.7978 0.22358 0.0
H1919 H 0.82384 0.81657 0.23941 0.0
C1920 C 0.85997 0.14494 -0.00565 0.0
C1921 C 0.87109 0.13722 0.97866 0.0
C1922 C 0.86021 0.13593 0.01297 0.0
C1923 C 0.87214 0.11905 0.01599 0.0
C1924 C 0.8852 0.11269 0.0009 0.0
C1925 C 0.88437 0.12174 0.98228 0.0
C1926 C 0.84606 0.1432 0.02869 0.0
C1927 C 0.89868 0.09521 0.00381 0.0
C1928 C 0.8709 0.09868 0.06827 0.0
C1929 C 0.85522 0.08471 0.06663 0.0
C1930 C 0.87751 0.1093 0.05164 0.0
C1931 C 0.86791 0.10607 0.03316 0.0
C1932 C 0.85274 0.09132 0.0313 0.0
C1933 C 0.84672 0.08073 0.04802 0.0
C1934 C 0.89409 0.12453 0.05406 0.0
C1935 C 0.84207 0.08742 0.01185 0.0
H1936 H 0.84982 0.15703 -0.00831 0.0
H1937 H 0.89327 0.11594 0.97027 0.0
H1938 H 0.83338 0.13253 0.0302 0.0
H1939 H 0.85377 0.14422 0.04324 0.0
H1940 H 0.83986 0.15789 0.02501 0.0
H1941 H 0.91081 0.09488 -0.00738 0.0
H1942 H 0.90554 0.09544 0.01881 0.0
H1943 H 0.88968 0.08137 0.0024 0.0
H1944 H 0.87764 0.10171 0.08261 0.0
H1945 H 0.83468 0.06988 0.04662 0.0
H1946 H 0.88754 0.1395 0.0543 0.0
H1947 H 0.90466 0.12395 0.04146 0.0
H1948 H 0.90262 0.12245 0.06806 0.0
H1949 H 0.83398 0.10085 0.00714 0.0
H1950 H 0.83106 0.07499 0.0128 0.0
H1951 H 0.85308 0.08393 0.00015 0.0
C1952 C 0.7535 0.56923 0.85256 0.0
C1953 C 0.76303 0.58176 0.86634 0.0
C1954 C 0.733 0.5712 0.8482 0.0
C1955 C 0.72182 0.58563 0.85834 0.0
C1956 C 0.73134 0.59794 0.87265 0.0
C1957 C 0.75192 0.59606 0.87623 0.0
C1958 C 0.72345 0.55826 0.83244 0.0
C1959 C 0.71983 0.6132 0.88414 0.0
C1960 C 0.67437 0.60975 0.84084 0.0
C1961 C 0.6601 0.60051 0.85294 0.0
C1962 C 0.69436 0.60362 0.84092 0.0
C1963 C 0.70022 0.58838 0.85394 0.0
C1964 C 0.68554 0.57803 0.86505 0.0
C1965 C 0.66552 0.58407 0.86419 0.0
C1966 C 0.70945 0.61456 0.82832 0.0
C1967 C 0.69123 0.56196 0.87938 0.0
H1968 H 0.76219 0.55828 0.84479 0.0
H1969 H 0.75931 0.60564 0.88699 0.0
H1970 H 0.71027 0.55019 0.83851 0.0
H1971 H 0.71792 0.56759 0.82015 0.0
H1972 H 0.7341 0.54736 0.82635 0.0
H1973 H 0.72923 0.62068 0.89561 0.0
H1974 H 0.71402 0.62458 0.87391 0.0
H1975 H 0.70671 0.60616 0.89147 0.0
H1976 H 0.6701 0.62239 0.83202 0.0
H1977 H 0.65448 0.57703 0.87367 0.0
H1978 H 0.72002 0.60412 0.82138 0.0
H1979 H 0.7184 0.62486 0.83776 0.0
H1980 H 0.70207 0.62326 0.8165 0.0
H1981 H 0.70194 0.55161 0.87257 0.0
H1982 H 0.67791 0.55343 0.88457 0.0
H1983 H 0.6988 0.56873 0.89246 0.0
C1984 C 0.27678 0.87851 0.07767 0.0
C1985 C 0.28722 0.86571 0.09019 0.0
C1986 C 0.25584 0.87751 0.07614 0.0
C1987 C 0.24511 0.86353 0.08761 0.0
C1988 C 0.25558 0.85013 0.09979 0.0
C1989 C 0.27657 0.85129 0.10082 0.0
C1990 C 0.24516 0.89179 0.06272 0.0
C1991 C 0.24456 0.8351 0.1123 0.0
C1992 C 0.19137 0.87559 0.10035 0.0
C1993 C 0.18071 0.86342 0.08709 0.0
C1994 C 0.2124 0.87565 0.10077 0.0
C1995 C 0.2229 0.86345 0.08743 0.0
C1996 C 0.2122 0.85131 0.07385 0.0
C1997 C 0.1912 0.85136 0.07393 0.0
C1998 C 0.22339 0.88867 0.11557 0.0
C1999 C 0.22294 0.83832 0.05924 0.0
H2000 H 0.28497 0.88959 0.06929 0.0
H2001 H 0.28457 0.84141 0.11059 0.0
H2002 H 0.23488 0.88366 0.05251 0.0
H2003 H 0.23587 0.90187 0.07169 0.0
H2004 H 0.25578 0.90084 0.0538 0.0
H2005 H 0.25496 0.82518 0.1203 0.0
H2006 H 0.23517 0.84279 0.12333 0.0
H2007 H 0.23434 0.82595 0.10294 0.0
H2008 H 0.18329 0.88486 0.1106 0.0
H2009 H 0.18298 0.842 0.06357 0.0
H2010 H 0.23328 0.89934 0.10772 0.0
H2011 H 0.23312 0.87954 0.12515 0.0
H2012 H 0.21297 0.89704 0.12512 0.0
H2013 H 0.23297 0.84746 0.04982 0.0
H2014 H 0.21236 0.82992 0.04951 0.0
H2015 H 0.23251 0.82768 0.06724 0.0
C2016 C 0.87974 0.50968 0.87686 0.0
C2017 C 0.86308 0.51895 0.86844 0.0
C2018 C 0.8837 0.48979 0.87279 0.0
C2019 C 0.8709 0.47911 0.85971 0.0
C2020 C 0.85406 0.4884 0.85118 0.0
C2021 C 0.85025 0.50816 0.8558 0.0
C2022 C 0.90161 0.48024 0.88239 0.0
C2023 C 0.84028 0.47758 0.83687 0.0
C2024 C 0.89162 0.43511 0.83228 0.0
C2025 C 0.88256 0.41927 0.84232 0.0
C2026 C 0.8881 0.45466 0.83794 0.0
C2027 C 0.8755 0.45844 0.85425 0.0
C2028 C 0.86671 0.44251 0.86478 0.0
C2029 C 0.8702 0.42307 0.85856 0.0
C2030 C 0.89747 0.47128 0.82615 0.0
C2031 C 0.85346 0.44601 0.88246 0.0
H2032 H 0.8896 0.51792 0.88678 0.0
H2033 H 0.8374 0.51529 0.84917 0.0
H2034 H 0.89681 0.46669 0.89036 0.0
H2035 H 0.91243 0.47569 0.87088 0.0
H2036 H 0.90948 0.49029 0.89299 0.0
H2037 H 0.82772 0.4869 0.83169 0.0
H2038 H 0.84891 0.47267 0.8238 0.0
H2039 H 0.8339 0.46416 0.84395 0.0
H2040 H 0.90113 0.43225 0.81967 0.0
H2041 H 0.86328 0.41084 0.86643 0.0
H2042 H 0.90664 0.481 0.83598 0.0
H2043 H 0.88553 0.48048 0.81957 0.0
H2044 H 0.90716 0.46581 0.81404 0.0
H2045 H 0.86147 0.45545 0.89349 0.0
H2046 H 0.84875 0.43202 0.88973 0.0
H2047 H 0.83983 0.45402 0.8778 0.0
C2048 C 0.20056 0.09087 0.59735 0.0
C2049 C 0.18795 0.10255 0.6089 0.0
C2050 C 0.22143 0.09352 0.59811 0.0
C2051 C 0.22985 0.10794 0.61101 0.0
C2052 C 0.21723 0.1194 0.62311 0.0
C2053 C 0.19638 0.11671 0.62176 0.0
C2054 C 0.23443 0.0813 0.5847 0.0
C2055 C 0.22574 0.1347 0.63725 0.0
C2056 C 0.28556 0.10441 0.62213 0.0
C2057 C 0.29345 0.11868 0.60927 0.0
C2058 C 0.26477 0.10101 0.62322 0.0
C2059 C 0.25176 0.11189 0.61086 0.0
C2060 C 0.25969 0.12633 0.5979 0.0
C2061 C 0.28043 0.12967 0.59739 0.0
C2062 C 0.25673 0.08573 0.63745 0.0
C2063 C 0.2463 0.138 0.58426 0.0
H2064 H 0.19409 0.07995 0.58735 0.0
H2065 H 0.18668 0.12561 0.63089 0.0
H2066 H 0.2426 0.09111 0.57427 0.0
H2067 H 0.24586 0.0734 0.59352 0.0
H2068 H 0.22556 0.07028 0.57599 0.0
H2069 H 0.21399 0.14135 0.64665 0.0
H2070 H 0.23722 0.12798 0.64699 0.0
H2071 H 0.23331 0.14668 0.62883 0.0
H2072 H 0.29561 0.09596 0.63139 0.0
H2073 H 0.28649 0.14064 0.58733 0.0
H2074 H 0.24895 0.0737 0.62915 0.0
H2075 H 0.2455 0.09248 0.64737 0.0
H2076 H 0.26877 0.07919 0.64666 0.0
H2077 H 0.23785 0.12781 0.57428 0.0
H2078 H 0.2549 0.1487 0.57507 0.0
H2079 H 0.23513 0.14624 0.59301 0.0
C2080 C 0.11418 -0.00693 0.88494 0.0
C2081 C 0.12984 0.98627 0.87309 0.0
C2082 C 0.10772 0.01266 0.88357 0.0
C2083 C 0.11675 0.02544 0.86957 0.0
C2084 C 0.13345 0.01899 0.85855 0.0
C2085 C 0.13997 -0.00048 0.86064 0.0
C2086 C 0.09036 0.01922 0.8961 0.0
C2087 C 0.14332 0.03205 0.84323 0.0
C2088 C 0.08376 0.06176 0.8428 0.0
C2089 C 0.09101 0.07989 0.8501 0.0
C2090 C 0.09171 0.04394 0.84944 0.0
C2091 C 0.10694 0.04422 0.86414 0.0
C2092 C 0.11353 0.06243 0.87241 0.0
C2093 C 0.10569 0.08013 0.86505 0.0
C2094 C 0.08446 0.02485 0.84 0.0
C2095 C 0.12926 0.06324 0.88856 0.0
H2096 H 0.10648 0.9829 0.89477 0.0
H2097 H 0.15209 -0.0057 0.85146 0.0
H2098 H 0.09309 0.03436 0.90192 0.0
H2099 H 0.07652 0.01955 0.88692 0.0
H2100 H 0.08767 0.00908 0.90874 0.0
H2101 H 0.1573 0.02556 0.83736 0.0
H2102 H 0.13276 0.03426 0.8307 0.0
H2103 H 0.14696 0.0468 0.84955 0.0
H2104 H 0.07246 0.0615 0.83119 0.0
H2105 H 0.11122 0.09414 0.87083 0.0
H2106 H 0.07874 0.01458 0.85148 0.0
H2107 H 0.09714 0.01753 0.83252 0.0
H2108 H 0.07233 0.02721 0.82894 0.0
H2109 H 0.1257 0.05232 0.90028 0.0
H2110 H 0.13056 0.07815 0.89538 0.0
H2111 H 0.14406 0.05934 0.88235 0.0
C2112 C 0.79548 0.3464 0.36969 0.0
C2113 C 0.81035 0.3573 0.35976 0.0
C2114 C 0.77523 0.35133 0.3681 0.0
C2115 C 0.76964 0.36733 0.35596 0.0
C2116 C 0.78448 0.37812 0.34548 0.0
C2117 C 0.80475 0.3731 0.34767 0.0
C2118 C 0.75987 0.33967 0.37978 0.0
C2119 C 0.77896 0.39504 0.33211 0.0
C2120 C 0.71465 0.36754 0.34145 0.0
C2121 C 0.70697 0.38119 0.35496 0.0
C2122 C 0.73522 0.36348 0.34105 0.0
C2123 C 0.74826 0.37297 0.35479 0.0
C2124 C 0.7406 0.38689 0.36835 0.0
C2125 C 0.72005 0.39099 0.36814 0.0
C2126 C 0.74294 0.3488 0.32616 0.0
C2127 C 0.754 0.39698 0.3835 0.0
H2128 H 0.7997 0.33425 0.3792 0.0
H2129 H 0.81619 0.3815 0.33989 0.0
H2130 H 0.75192 0.34964 0.39007 0.0
H2131 H 0.74843 0.33309 0.36967 0.0
H2132 H 0.76673 0.32762 0.38853 0.0
H2133 H 0.79217 0.40128 0.32422 0.0
H2134 H 0.76764 0.39004 0.32101 0.0
H2135 H 0.77205 0.40698 0.34092 0.0
H2136 H 0.70461 0.36012 0.33108 0.0
H2137 H 0.71415 0.40151 0.37864 0.0
H2138 H 0.74868 0.33562 0.33394 0.0
H2139 H 0.75565 0.35538 0.3178 0.0
H2140 H 0.73113 0.34393 0.31548 0.0
H2141 H 0.7605 0.3858 0.39355 0.0
H2142 H 0.7458 0.40792 0.39255 0.0
H2143 H 0.76669 0.40464 0.37609 0.0
C2144 C 0.87332 0.46537 0.62781 0.0
C2145 C 0.88502 0.4572 0.61278 0.0
C2146 C 0.87558 0.48526 0.63318 0.0
C2147 C 0.88955 0.49731 0.62295 0.0
C2148 C 0.90134 0.48918 0.60769 0.0
C2149 C 0.89909 0.46911 0.60293 0.0
C2150 C 0.86307 0.49334 0.64983 0.0
C2151 C 0.91612 0.50173 0.59624 0.0
C2152 C 0.88087 0.55244 0.62519 0.0
C2153 C 0.89523 0.55846 0.63925 0.0
C2154 C 0.87915 0.53259 0.6194 0.0
C2155 C 0.89178 0.51846 0.62827 0.0
C2156 C 0.90624 0.52446 0.64255 0.0
C2157 C 0.90795 0.54445 0.64771 0.0
C2158 C 0.86382 0.52674 0.60384 0.0
C2159 C 0.91966 0.50971 0.65261 0.0
H2160 H 0.86254 0.45613 0.63556 0.0
H2161 H 0.90804 0.46284 0.5912 0.0
H2162 H 0.87297 0.49983 0.66147 0.0
H2163 H 0.85342 0.50534 0.64425 0.0
H2164 H 0.85333 0.48183 0.65667 0.0
H2165 H 0.92392 0.49319 0.58461 0.0
H2166 H 0.90822 0.51419 0.58913 0.0
H2167 H 0.92755 0.50821 0.60643 0.0
H2168 H 0.87114 0.56328 0.61851 0.0
H2169 H 0.91897 0.54906 0.6587 0.0
H2170 H 0.85263 0.51633 0.61022 0.0
H2171 H 0.87126 0.51896 0.59147 0.0
H2172 H 0.85578 0.53967 0.59779 0.0
H2173 H 0.91038 0.49853 0.66047 0.0
H2174 H 0.93011 0.51681 0.66344 0.0
H2175 H 0.92861 0.50173 0.64144 0.0
C2176 C 0.62134 0.51371 0.10458 0.0
C2177 C 0.61132 0.52735 0.0927 0.0
C2178 C 0.61397 0.49439 0.10663 0.0
C2179 C 0.59651 0.48845 0.09604 0.0
C2180 C 0.58712 0.50177 0.08295 0.0
C2181 C 0.59445 0.52125 0.08169 0.0
C2182 C 0.62418 0.48073 0.12106 0.0
C2183 C 0.56892 0.4957 0.07089 0.0
C2184 C 0.58796 0.43315 0.09741 0.0
C2185 C 0.57439 0.43141 0.1131 0.0
C2186 C 0.59418 0.45178 0.0906 0.0
C2187 C 0.5872 0.46892 0.10022 0.0
C2188 C 0.57284 0.46721 0.11551 0.0
C2189 C 0.56637 0.44843 0.12156 0.0
C2190 C 0.60893 0.45308 0.07377 0.0
C2191 C 0.56537 0.48512 0.12645 0.0
H2192 H 0.63434 0.51845 0.11317 0.0
H2193 H 0.58681 0.53178 0.07236 0.0
H2194 H 0.6137 0.47689 0.13321 0.0
H2195 H 0.62826 0.46676 0.1136 0.0
H2196 H 0.63798 0.48746 0.12764 0.0
H2197 H 0.56533 0.50671 0.0593 0.0
H2198 H 0.57131 0.48117 0.06371 0.0
H2199 H 0.55574 0.49408 0.08073 0.0
H2200 H 0.594 0.41995 0.09073 0.0
H2201 H 0.55596 0.44707 0.13377 0.0
H2202 H 0.62397 0.45732 0.07962 0.0
H2203 H 0.6044 0.46461 0.06307 0.0
H2204 H 0.61022 0.43879 0.06579 0.0
H2205 H 0.57803 0.4923 0.13458 0.0
H2206 H 0.55341 0.48131 0.13723 0.0
H2207 H 0.55941 0.49611 0.11589 0.0
C2208 C 0.65047 0.72292 0.87722 0.0
C2209 C 0.63901 0.71289 0.86282 0.0
C2210 C 0.64974 0.74356 0.87888 0.0
C2211 C 0.63658 0.7541 0.86641 0.0
C2212 C 0.62635 0.74416 0.85079 0.0
C2213 C 0.62804 0.72367 0.84895 0.0
C2214 C 0.66185 0.7538 0.89491 0.0
C2215 C 0.61194 0.75477 0.83729 0.0
C2216 C 0.60603 0.79627 0.8859 0.0
C2217 C 0.61263 0.81163 0.8737 0.0
C2218 C 0.61469 0.77759 0.88463 0.0
C2219 C 0.63082 0.77458 0.8714 0.0
C2220 C 0.63897 0.79072 0.86075 0.0
C2221 C 0.62941 0.80901 0.86163 0.0
C2222 C 0.6053 0.7607 0.89602 0.0
C2223 C 0.65685 0.78839 0.8474 0.0
H2224 H 0.65918 0.71459 0.88782 0.0
H2225 H 0.61916 0.71593 0.83781 0.0
H2226 H 0.66721 0.76857 0.88996 0.0
H2227 H 0.65232 0.75594 0.90812 0.0
H2228 H 0.67498 0.74491 0.8994 0.0
H2229 H 0.60594 0.74506 0.8253 0.0
H2230 H 0.59912 0.76028 0.84604 0.0
H2231 H 0.61941 0.76774 0.83042 0.0
H2232 H 0.59298 0.79837 0.89514 0.0
H2233 H 0.6346 0.82105 0.85235 0.0
H2234 H 0.61688 0.75282 0.90464 0.0
H2235 H 0.59841 0.74992 0.88551 0.0
H2236 H 0.59352 0.76574 0.90637 0.0
H2237 H 0.6678 0.77797 0.85382 0.0
H2238 H 0.66454 0.8028 0.84474 0.0
H2239 H 0.65183 0.78238 0.83289 0.0
C2240 C 0.51905 0.34031 0.1001 0.0
C2241 C 0.52772 0.33669 0.11864 0.0
C2242 C 0.49938 0.33396 0.09586 0.0
C2243 C 0.48839 0.32343 0.11038 0.0
C2244 C 0.49758 0.31863 0.12863 0.0
C2245 C 0.51711 0.32552 0.13263 0.0
C2246 C 0.48996 0.33958 0.07633 0.0
C2247 C 0.48648 0.30703 0.14427 0.0
C2248 C 0.43214 0.32997 0.10951 0.0
C2249 C 0.42567 0.31314 0.09907 0.0
C2250 C 0.45253 0.33332 0.11351 0.0
C2251 C 0.46672 0.31928 0.10726 0.0
C2252 C 0.4602 0.30184 0.09744 0.0
C2253 C 0.43971 0.29906 0.09327 0.0
C2254 C 0.45895 0.35223 0.12382 0.0
C2255 C 0.4749 0.28637 0.09099 0.0
H2256 H 0.52724 0.34895 0.08927 0.0
H2257 H 0.52392 0.32252 0.1469 0.0
H2258 H 0.4832 0.3264 0.06899 0.0
H2259 H 0.4777 0.35017 0.07895 0.0
H2260 H 0.50098 0.34649 0.0661 0.0
H2261 H 0.49656 0.30232 0.15647 0.0
H2262 H 0.47448 0.31623 0.15065 0.0
H2263 H 0.47915 0.29373 0.13768 0.0
H2264 H 0.42134 0.34093 0.11396 0.0
H2265 H 0.43469 0.28597 0.0853 0.0
H2266 H 0.46898 0.36097 0.11402 0.0
H2267 H 0.46758 0.34884 0.13744 0.0
H2268 H 0.44599 0.36149 0.12792 0.0
H2269 H 0.48489 0.29252 0.0794 0.0
H2270 H 0.46725 0.27294 0.08499 0.0
H2271 H 0.48457 0.28204 0.10363 0.0
C2272 C 0.85361 0.16924 0.35708 0.0
C2273 C 0.85011 0.15484 0.37157 0.0
C2274 C 0.84814 0.18883 0.36016 0.0
C2275 C 0.83819 0.19399 0.37784 0.0
C2276 C 0.83224 0.17906 0.39129 0.0
C2277 C 0.83868 0.15963 0.38823 0.0
C2278 C 0.85493 0.20427 0.34543 0.0
C2279 C 0.82035 0.1838 0.40957 0.0
C2280 C 0.8568 0.24346 0.39613 0.0
C2281 C 0.84372 0.25616 0.38634 0.0
C2282 C 0.85433 0.22299 0.3946 0.0
C2283 C 0.83784 0.21509 0.38371 0.0
C2284 C 0.82335 0.22792 0.37563 0.0
C2285 C 0.82677 0.24841 0.37656 0.0
C2286 C 0.87045 0.20993 0.40307 0.0
C2287 C 0.8049 0.22014 0.36501 0.0
H2288 H 0.86219 0.16561 0.34402 0.0
H2289 H 0.83552 0.14844 0.39927 0.0
H2290 H 0.84207 0.21326 0.34057 0.0
H2291 H 0.86607 0.2144 0.35253 0.0
H2292 H 0.86191 0.19766 0.33212 0.0
H2293 H 0.81205 0.17058 0.41503 0.0
H2294 H 0.83067 0.18893 0.4215 0.0
H2295 H 0.80949 0.19574 0.40662 0.0
H2296 H 0.86989 0.24951 0.40372 0.0
H2297 H 0.81643 0.2583 0.3693 0.0
H2298 H 0.87805 0.202 0.39089 0.0
H2299 H 0.86374 0.19865 0.41297 0.0
H2300 H 0.88197 0.21844 0.41159 0.0
H2301 H 0.8082 0.21839 0.34904 0.0
H2302 H 0.79231 0.23063 0.36634 0.0
H2303 H 0.80001 0.20557 0.37088 0.0
C2304 C 0.94727 0.6616 0.63752 0.0
C2305 C 0.93434 0.65058 0.62519 0.0
C2306 C 0.96739 0.66477 0.63239 0.0
C2307 C 0.9747 0.65653 0.61463 0.0
C2308 C 0.96143 0.64639 0.60157 0.0
C2309 C 0.94131 0.64364 0.60697 0.0
C2310 C 0.98105 0.67595 0.64651 0.0
C2311 C 0.96873 0.63737 0.58251 0.0
C2312 C 0.02583 0.67174 0.59516 0.0
C2313 C 0.0378 0.65639 0.60222 0.0
C2314 C 0.00526 0.67221 0.59933 0.0
C2315 C -0.00348 0.65683 0.61063 0.0
C2316 C 0.00858 0.64141 0.61797 0.0
C2317 C 0.02912 0.64143 0.61376 0.0
C2318 C -0.00714 0.689 0.59152 0.0
C2319 C -0.00028 0.62469 0.62999 0.0
H2320 H 0.94185 0.66716 0.65153 0.0
H2321 H 0.93135 0.63515 0.59736 0.0
H2322 H -0.00829 0.66558 0.65347 0.0
H2323 H -0.00994 0.6872 0.63845 0.0
H2324 H 0.97257 0.68342 0.65842 0.0
H2325 H 0.9562 0.63156 0.57318 0.0
H2326 H 0.97741 0.6484 0.57385 0.0
H2327 H 0.97896 0.62503 0.58593 0.0
H2328 H 0.03252 0.6834 0.58631 0.0
H2329 H 0.03832 0.62951 0.6192 0.0
H2330 H 0.98499 0.69637 0.60387 0.0
H2331 H 0.98118 0.6832 0.5812 0.0
H2332 H 0.00211 0.7002 0.58361 0.0
H2333 H -0.0076 0.63061 0.64342 0.0
H2334 H 0.0112 0.61388 0.63465 0.0
H2335 H 0.98799 0.61679 0.62121 0.0
C2336 C 0.6079 0.28016 0.59771 0.0
C2337 C 0.61809 0.29113 0.61241 0.0
C2338 C 0.60274 0.26028 0.60064 0.0
C2339 C 0.60795 0.2511 0.61867 0.0
C2340 C 0.61873 0.26186 0.63335 0.0
C2341 C 0.62364 0.28179 0.63006 0.0
C2342 C 0.59119 0.24927 0.58468 0.0
C2343 C 0.62463 0.25246 0.65272 0.0
C2344 C 0.57657 0.20769 0.63637 0.0
C2345 C 0.58883 0.19172 0.63168 0.0
C2346 C 0.58249 0.22707 0.6319 0.0
C2347 C 0.60118 0.23054 0.62261 0.0
C2348 C 0.61342 0.21446 0.6174 0.0
C2349 C 0.60705 0.19518 0.62194 0.0
C2350 C 0.56893 0.24387 0.63747 0.0
C2351 C 0.63345 0.21765 0.60749 0.0
H2352 H 0.60358 0.28721 0.58398 0.0
H2353 H 0.63158 0.29011 0.64145 0.0
H2354 H 0.59901 0.23548 0.58068 0.0
H2355 H 0.57614 0.24495 0.59026 0.0
H2356 H 0.58923 0.25825 0.57109 0.0
H2357 H 0.63396 0.26251 0.66212 0.0
H2358 H 0.61095 0.24822 0.66108 0.0
H2359 H 0.63312 0.23876 0.64995 0.0
H2360 H 0.56242 0.20506 0.64383 0.0
H2361 H 0.6166 0.18287 0.61834 0.0
H2362 H 0.56549 0.25289 0.62423 0.0
H2363 H 0.57667 0.2537 0.64832 0.0
H2364 H 0.55458 0.23859 0.64402 0.0
H2365 H 0.63152 0.22627 0.5937 0.0
H2366 H 0.64085 0.20353 0.6038 0.0
H2367 H 0.64356 0.22638 0.61738 0.0
C2368 C 0.04552 0.35439 0.88464 0.0
C2369 C 0.0608 0.36137 0.87216 0.0
C2370 C 0.02554 0.35346 0.87816 0.0
C2371 C 0.02073 0.35981 0.85882 0.0
C2372 C 0.03584 0.36806 0.84662 0.0
C2373 C 0.05575 0.36868 0.85342 0.0
C2374 C 0.00981 0.34454 0.89158 0.0
C2375 C 0.03117 0.37522 0.82598 0.0
C2376 C 0.97746 0.33414 0.83247 0.0
C2377 C 0.96219 0.34804 0.83423 0.0
C2378 C -0.00349 0.33777 0.84062 0.0
C2379 C 0.00043 0.35582 0.8506 0.0
C2380 C 0.98508 0.36988 0.85258 0.0
C2381 C 0.96606 0.36577 0.84444 0.0
C2382 C 0.01249 0.32231 0.83842 0.0
C2383 C -0.01117 0.38933 0.86302 0.0
H2384 H 0.04926 0.34882 0.8992 0.0
H2385 H 0.06742 0.3743 0.84376 0.0
H2386 H -0.00355 0.35409 0.89224 0.0
H2387 H 0.0048 0.33002 0.88554 0.0
H2388 H 0.01555 0.3423 0.90686 0.0
H2389 H 0.04406 0.38333 0.81932 0.0
H2390 H 0.02731 0.36241 0.81635 0.0
H2391 H 0.01799 0.38504 0.82613 0.0
H2392 H 0.97455 0.32036 0.8247 0.0
H2393 H 0.95434 0.37663 0.84576 0.0
H2394 H 0.01817 0.31792 0.8532 0.0
H2395 H 0.02539 0.32849 0.83006 0.0
H2396 H 0.00685 0.30888 0.83058 0.0
H2397 H -0.00585 0.38673 0.87836 0.0
H2398 H 0.97518 0.39853 0.86358 0.0
H2399 H 0.00084 0.39776 0.85532 0.0
C2400 C 0.89465 0.68814 0.11241 0.0
C2401 C 0.87978 0.68121 0.12538 0.0
C2402 C 0.90079 0.70802 0.11255 0.0
C2403 C 0.89173 0.72127 0.12587 0.0
C2404 C 0.87687 0.71435 0.13915 0.0
C2405 C 0.87113 0.69436 0.1388 0.0
C2406 C 0.91683 0.71486 0.09832 0.0
C2407 C 0.86683 0.72813 0.15352 0.0
C2408 C 0.9173 0.76971 0.13959 0.0
C2409 C 0.90662 0.78312 0.12796 0.0
C2410 C 0.91302 0.74942 0.13862 0.0
C2411 C 0.89759 0.74246 0.12583 0.0
C2412 C 0.8872 0.75585 0.11358 0.0
C2413 C 0.89191 0.77606 0.11473 0.0
C2414 C 0.92457 0.73551 0.15172 0.0
C2415 C 0.87062 0.74893 0.09979 0.0
H2416 H 0.90149 0.67805 0.10205 0.0
H2417 H 0.8596 0.68913 0.14883 0.0
H2418 H 0.91067 0.72617 0.08821 0.0
H2419 H 0.92947 0.72191 0.10659 0.0
H2420 H 0.92276 0.70255 0.08928 0.0
H2421 H 0.85566 0.72038 0.16296 0.0
H2422 H 0.87825 0.73533 0.16324 0.0
H2423 H 0.85913 0.74001 0.14529 0.0
H2424 H 0.92877 0.7751 0.14976 0.0
H2425 H 0.88359 0.78639 0.10573 0.0
H2426 H 0.93095 0.7234 0.14276 0.0
H2427 H 0.91429 0.72864 0.16266 0.0
H2428 H 0.93698 0.74313 0.15986 0.0
H2429 H 0.87614 0.73717 0.08983 0.0
H2430 H 0.86464 0.76111 0.0906 0.0
H2431 H 0.85811 0.74246 0.10851 0.0
C2432 C 0.4267 0.62496 0.39131 0.0
C2433 C 0.41046 0.62001 0.37888 0.0
C2434 C 0.44647 0.62337 0.38468 0.0
C2435 C 0.44999 0.61637 0.36529 0.0
C2436 C 0.43379 0.60922 0.35357 0.0
C2437 C 0.41413 0.61127 0.36045 0.0
C2438 C 0.46334 0.6312 0.39763 0.0
C2439 C 0.43704 0.60115 0.33301 0.0
C2440 C 0.49135 0.6419 0.33679 0.0
C2441 C 0.50679 0.62813 0.3378 0.0
C2442 C 0.47292 0.63824 0.34591 0.0
C2443 C 0.46972 0.62019 0.356 0.0
C2444 C 0.48524 0.60618 0.35713 0.0
C2445 C 0.50374 0.61042 0.34813 0.0
C2446 C 0.45684 0.65373 0.34467 0.0
C2447 C 0.48216 0.58667 0.36748 0.0
H2448 H 0.424 0.63153 0.40568 0.0
H2449 H 0.40165 0.60705 0.35091 0.0
H2450 H 0.4765 0.62139 0.39705 0.0
H2451 H 0.46822 0.64592 0.39214 0.0
H2452 H 0.45865 0.63282 0.41329 0.0
H2453 H 0.4237 0.59275 0.32748 0.0
H2454 H 0.44002 0.61357 0.32271 0.0
H2455 H 0.45025 0.59138 0.33268 0.0
H2456 H 0.49373 0.65567 0.32894 0.0
H2457 H 0.51564 0.59968 0.34878 0.0
H2458 H 0.45204 0.65802 0.35976 0.0
H2459 H 0.44347 0.64764 0.3368 0.0
H2460 H 0.46203 0.66723 0.33679 0.0
H2461 H 0.47728 0.5891 0.38295 0.0
H2462 H 0.49599 0.5777 0.36767 0.0
H2463 H 0.47006 0.57807 0.35993 0.0
C2464 C 0.84351 0.60381 0.80797 0.0
C2465 C 0.85782 0.6103 0.82194 0.0
C2466 C 0.84599 0.60772 0.78779 0.0
C2467 C 0.86296 0.61874 0.78154 0.0
C2468 C 0.87647 0.62685 0.79573 0.0
C2469 C 0.87388 0.62231 0.8158 0.0
C2470 C 0.83143 0.59853 0.77312 0.0
C2471 C 0.89442 0.63917 0.78961 0.0
C2472 C 0.88709 0.60465 0.73322 0.0
C2473 C 0.88014 0.61929 0.72046 0.0
C2474 C 0.88113 0.60409 0.75299 0.0
C2475 C 0.86837 0.61893 0.7603 0.0
C2476 C 0.86114 0.63372 0.74743 0.0
C2477 C 0.86691 0.63355 0.72746 0.0
C2478 C 0.8887 0.58771 0.7661 0.0
C2479 C 0.84792 0.65002 0.75487 0.0
H2480 H 0.83101 0.59455 0.81261 0.0
H2481 H 0.8848 0.62762 0.82658 0.0
H2482 H 0.8271 0.60934 0.76162 0.0
H2483 H 0.83876 0.58604 0.7655 0.0
H2484 H 0.81761 0.59284 0.78038 0.0
H2485 H 0.90138 0.64711 0.80238 0.0
H2486 H 0.90588 0.62947 0.78299 0.0
H2487 H 0.8901 0.65011 0.77823 0.0
H2488 H 0.89723 0.59355 0.72768 0.0
H2489 H 0.86174 0.64498 0.71753 0.0
H2490 H 0.8759 0.57995 0.77325 0.0
H2491 H 0.89833 0.594 0.77805 0.0
H2492 H 0.89755 0.5767 0.75777 0.0
H2493 H 0.83464 0.64374 0.76255 0.0
H2494 H 0.8427 0.65976 0.74274 0.0
H2495 H 0.85636 0.65915 0.76585 0.0
C2496 C 0.60456 0.64145 0.03287 0.0
C2497 C 0.61286 0.6242 0.04064 0.0
C2498 C 0.60206 0.64373 0.01235 0.0
C2499 C 0.60836 0.62856 -0.00056 0.0
C2500 C 0.61662 0.61109 0.00724 0.0
C2501 C 0.6186 0.60907 0.02773 0.0
C2502 C 0.59285 0.66239 0.00448 0.0
C2503 C 0.62379 0.5947 -0.00608 0.0
C2504 C 0.59007 0.62349 0.94651 0.0
C2505 C 0.60628 0.63162 0.93604 0.0
C2506 C 0.59011 0.62325 0.96725 0.0
C2507 C 0.60694 0.63096 0.97769 0.0
C2508 C 0.62321 0.63947 0.96721 0.0
C2509 C 0.6226 0.63986 0.94649 0.0
C2510 C 0.57235 0.61435 0.97797 0.0
C2511 C 0.64159 0.6475 0.97785 0.0
H2512 H 0.60002 0.65314 0.0428 0.0
H2513 H 0.62515 0.59573 0.0336 0.0
H2514 H 0.60394 0.67053 -0.0047 0.0
H2515 H 0.57983 0.65868 -0.00521 0.0
H2516 H 0.58778 0.67231 0.01651 0.0
H2517 H 0.62983 0.58204 0.0024 0.0
H2518 H 0.61129 0.58923 0.9844 0.0
H2519 H 0.63573 0.60041 0.984 0.0
H2520 H 0.57729 0.61735 0.93849 0.0
H2521 H 0.63517 0.64616 0.93845 0.0
H2522 H 0.56699 0.62469 0.98948 0.0
H2523 H 0.57693 0.60063 0.98558 0.0
H2524 H 0.55969 0.61071 0.96777 0.0
H2525 H 0.63723 0.65855 0.98912 0.0
H2526 H 0.65249 0.65451 0.96757 0.0
H2527 H 0.64919 0.63534 0.98576 0.0
C2528 C 0.60433 0.37865 0.21021 0.0
C2529 C 0.58672 0.388 0.20411 0.0
C2530 C 0.61221 0.38181 0.22928 0.0
C2531 C 0.6024 0.39485 0.24234 0.0
C2532 C 0.58491 0.40468 0.23608 0.0
C2533 C 0.5772 0.40102 0.21709 0.0
C2534 C 0.63079 0.37092 0.2356 0.0
C2535 C 0.57423 0.41894 0.24949 0.0
C2536 C 0.60948 0.39024 0.2978 0.0
C2537 C 0.62363 0.40527 0.30165 0.0
C2538 C 0.60278 0.38639 0.27846 0.0
C2539 C 0.61019 0.39807 0.2627 0.0
C2540 C 0.62444 0.4133 0.26651 0.0
C2541 C 0.6311 0.41664 0.28595 0.0
C2542 C 0.58771 0.36988 0.27489 0.0
C2543 C 0.63243 0.42625 0.2501 0.0
H2544 H 0.61168 0.36851 0.20026 0.0
H2545 H 0.56368 0.40843 0.21239 0.0
H2546 H 0.64269 0.38159 0.24026 0.0
H2547 H 0.62734 0.36147 0.24856 0.0
H2548 H 0.63676 0.36147 0.22359 0.0
H2549 H 0.56121 0.42591 0.24208 0.0
H2550 H 0.5688 0.41112 0.26287 0.0
H2551 H 0.58478 0.43076 0.25453 0.0
H2552 H 0.6038 0.38132 0.30989 0.0
H2553 H 0.64202 0.42831 0.28889 0.0
H2554 H 0.59358 0.35936 0.26379 0.0
H2555 H 0.57361 0.37596 0.26877 0.0
H2556 H 0.5841 0.36163 0.28863 0.0
H2557 H 0.63946 0.41705 0.23852 0.0
H2558 H 0.64369 0.43727 0.25552 0.0
H2559 H 0.61989 0.43422 0.24298 0.0
C2560 C 0.85812 0.39438 0.52351 0.0
C2561 C 0.86883 0.38467 0.53841 0.0
C2562 C 0.86055 0.38933 0.50359 0.0
C2563 C 0.87425 0.37442 0.49847 0.0
C2564 C 0.88567 0.36507 0.51337 0.0
C2565 C 0.8827 0.37021 0.53324 0.0
C2566 C 0.84789 0.39942 0.48811 0.0
C2567 C 0.90061 0.34929 0.50836 0.0
C2568 C 0.8628 0.34651 0.45118 0.0
C2569 C 0.8754 0.35616 0.43764 0.0
C2570 C 0.86254 0.35215 0.47109 0.0
C2571 C 0.87539 0.36763 0.47768 0.0
C2572 C 0.88852 0.37714 0.46423 0.0
C2573 C 0.88825 0.37139 0.44427 0.0
C2574 C 0.84812 0.34186 0.48497 0.0
C2575 C 0.90262 0.39351 0.47088 0.0
H2576 H 0.84736 0.40557 0.52746 0.0
H2577 H 0.89113 0.3628 0.54473 0.0
H2578 H 0.85758 0.40584 0.47642 0.0
H2579 H 0.83773 0.38843 0.48088 0.0
H2580 H 0.83864 0.41136 0.49448 0.0
H2581 H 0.90958 0.34477 0.52145 0.0
H2582 H 0.8926 0.33609 0.50238 0.0
H2583 H 0.911 0.35463 0.4967 0.0
H2584 H 0.85278 0.33478 0.44614 0.0
H2585 H 0.89813 0.37877 0.43388 0.0
H2586 H 0.83742 0.35268 0.49106 0.0
H2587 H 0.85642 0.33551 0.49767 0.0
H2588 H 0.83942 0.32982 0.47755 0.0
H2589 H 0.89388 0.40631 0.47609 0.0
H2590 H 0.91274 0.39854 0.45884 0.0
H2591 H 0.91191 0.38849 0.48353 0.0
C2592 C 0.86632 0.36843 0.74867 0.0
C2593 C 0.8774 0.35415 0.75864 0.0
C2594 C 0.86599 0.36891 0.72793 0.0
C2595 C 0.87642 0.35434 0.71714 0.0
C2596 C 0.88616 0.33891 0.72726 0.0
C2597 C 0.88689 0.33925 0.74796 0.0
C2598 C 0.85578 0.38584 0.71765 0.0
C2599 C 0.89672 0.32268 0.71626 0.0
C2600 C 0.8655 0.35408 0.66213 0.0
C2601 C 0.8818 0.36519 0.65498 0.0
C2602 C 0.8641 0.34935 0.68225 0.0
C2603 C 0.87899 0.35656 0.6955 0.0
C2604 C 0.89588 0.36712 0.68821 0.0
C2605 C 0.89724 0.37103 0.66792 0.0
C2606 C 0.84631 0.33738 0.68942 0.0
C2607 C 0.91191 0.37535 0.70195 0.0
H2608 H 0.85914 0.38001 0.75705 0.0
H2609 H 0.89533 0.32812 0.75582 0.0
H2610 H 0.8672 0.39517 0.7101 0.0
H2611 H 0.84524 0.38021 0.70613 0.0
H2612 H 0.84735 0.39525 0.72812 0.0
H2613 H 0.90057 0.31018 0.72613 0.0
H2614 H 0.88722 0.31701 0.7039 0.0
H2615 H 0.9108 0.32861 0.70976 0.0
H2616 H 0.8536 0.34949 0.65203 0.0
H2617 H 0.90973 0.37979 0.66239 0.0
H2618 H 0.83603 0.34705 0.69774 0.0
H2619 H 0.85128 0.32561 0.69966 0.0
H2620 H 0.83777 0.33046 0.67698 0.0
H2621 H 0.90516 0.3861 0.71231 0.0
H2622 H 0.92425 0.38289 0.69383 0.0
H2623 H 0.9184 0.36337 0.711 0.0
C2624 C 0.86463 0.59807 0.94049 0.0
C2625 C 0.84534 0.59026 0.93705 0.0
C2626 C 0.87171 0.60121 0.95985 0.0
C2627 C 0.8589 0.59703 0.97597 0.0
C2628 C 0.83933 0.5893 0.9725 0.0
C2629 C 0.83291 0.58569 0.95304 0.0
C2630 C 0.89285 0.6089 0.96305 0.0
C2631 C 0.82503 0.58519 0.98931 0.0
C2632 C 0.87635 0.58972 0.02881 0.0
C2633 C 0.87214 0.60817 0.03711 0.0
C2634 C 0.87342 0.58625 0.00852 0.0
C2635 C 0.8655 0.60141 -0.00349 0.0
C2636 C 0.86205 0.6203 0.00468 0.0
C2637 C 0.8657 0.62352 0.02485 0.0
C2638 C 0.8779 0.56612 0.00013 0.0
C2639 C 0.85318 0.6367 -0.00753 0.0
H2640 H 0.87431 0.60136 0.92806 0.0
H2641 H 0.81798 0.5797 0.9503 0.0
H2642 H 0.89256 0.62356 0.97038 0.0
H2643 H 0.90113 0.59884 0.97302 0.0
H2644 H 0.90125 0.61035 0.94896 0.0
H2645 H 0.8102 0.57958 0.98402 0.0
H2646 H 0.83151 0.57414 -0.00051 0.0
H2647 H 0.8227 0.5989 -0.00201 0.0
H2648 H 0.88148 0.57789 0.03826 0.0
H2649 H 0.86233 0.63779 0.03124 0.0
H2650 H 0.88644 0.56754 0.98614 0.0
H2651 H 0.86363 0.55821 -0.00339 0.0
H2652 H 0.88662 0.55699 0.01065 0.0
H2653 H 0.86194 0.63901 0.97875 0.0
H2654 H 0.85272 0.6509 0.00072 0.0
H2655 H 0.83765 0.63254 0.98796 0.0
C2656 C 0.61016 0.62705 0.25306 0.0
C2657 C 0.59195 0.62016 0.26088 0.0
C2658 C 0.61422 0.62499 0.2328 0.0
C2659 C 0.59991 0.61548 0.22033 0.0
C2660 C 0.5815 0.60859 0.22819 0.0
C2661 C 0.57768 0.61118 0.24835 0.0
C2662 C 0.6339 0.63275 0.2248 0.0
C2663 C 0.56606 0.59799 0.21542 0.0
C2664 C 0.60262 0.62059 0.1645 0.0
C2665 C 0.61276 0.60336 0.15938 0.0
C2666 C 0.59865 0.62498 0.1844 0.0
C2667 C 0.60462 0.61159 0.1993 0.0
C2668 C 0.61461 0.59405 0.19413 0.0
C2669 C 0.61871 0.59024 0.17423 0.0
C2670 C 0.58821 0.64395 0.18949 0.0
C2671 C 0.62082 0.57922 0.20958 0.0
H2672 H 0.6211 0.63412 0.26267 0.0
H2673 H 0.56359 0.60576 0.2544 0.0
H2674 H 0.64299 0.62029 0.21931 0.0
H2675 H 0.63115 0.64267 0.21206 0.0
H2676 H 0.6428 0.64096 0.23616 0.0
H2677 H 0.55227 0.59401 0.22375 0.0
H2678 H 0.5618 0.60736 0.20268 0.0
H2679 H 0.57255 0.58427 0.20932 0.0
H2680 H 0.59818 0.63081 0.15302 0.0
H2681 H 0.62646 0.57684 0.17026 0.0
H2682 H 0.59758 0.65277 0.19998 0.0
H2683 H 0.57379 0.64063 0.19699 0.0
H2684 H 0.58512 0.65306 0.17621 0.0
H2685 H 0.63121 0.58629 0.22044 0.0
H2686 H 0.62834 0.56623 0.20302 0.0
H2687 H 0.60746 0.57396 0.21787 0.0
C2688 C 0.60019 0.37354 0.50982 0.0
C2689 C 0.61078 0.35791 0.51825 0.0
C2690 C 0.60005 0.37637 0.48925 0.0
C2691 C 0.61127 0.36365 0.47703 0.0
C2692 C 0.62131 0.34739 0.48544 0.0
C2693 C 0.6207 0.34457 0.50594 0.0
C2694 C 0.58864 0.39349 0.4807 0.0
C2695 C 0.63385 0.33377 0.473 0.0
C2696 C 0.60703 0.36337 0.42096 0.0
C2697 C 0.62283 0.37619 0.41585 0.0
C2698 C 0.6025 0.3597 0.4409 0.0
C2699 C 0.61453 0.36856 0.45591 0.0
C2700 C 0.63053 0.38148 0.45075 0.0
C2701 C 0.63428 0.38537 0.43078 0.0
C2702 C 0.58496 0.34633 0.44592 0.0
C2703 C 0.64406 0.39079 0.46629 0.0
H2704 H 0.59234 0.38374 0.51932 0.0
H2705 H 0.62896 0.3325 0.51243 0.0
H2706 H 0.59937 0.40513 0.47582 0.0
H2707 H 0.57983 0.38868 0.46752 0.0
H2708 H 0.5783 0.40006 0.49165 0.0
H2709 H 0.63954 0.32104 0.4816 0.0
H2710 H 0.62502 0.32803 0.46022 0.0
H2711 H 0.64689 0.34211 0.46697 0.0
H2712 H 0.59806 0.35644 0.40938 0.0
H2713 H 0.64659 0.39519 0.42681 0.0
H2714 H 0.57483 0.35388 0.45639 0.0
H2715 H 0.59039 0.33284 0.45337 0.0
H2716 H 0.57619 0.34184 0.43258 0.0
H2717 H 0.63512 0.39982 0.47662 0.0
H2718 H 0.65595 0.40035 0.45975 0.0
H2719 H 0.65135 0.37909 0.47515 0.0
C2720 C 0.73802 0.90864 0.59273 0.0
C2721 C 0.72616 0.90637 0.60967 0.0
C2722 C 0.75697 0.90006 0.59153 0.0
C2723 C 0.76437 0.88914 0.60777 0.0
C2724 C 0.75265 0.88704 0.62505 0.0
C2725 C 0.73359 0.89557 0.62575 0.0
C2726 C 0.76894 0.90239 0.57274 0.0
C2727 C 0.76018 0.87568 0.64272 0.0
C2728 C 0.80387 0.85152 0.59541 0.0
C2729 C 0.82168 0.86206 0.5996 0.0
C2730 C 0.78509 0.85998 0.59854 0.0
C2731 C 0.78409 0.87937 0.60625 0.0
C2732 C 0.80195 0.88982 0.61126 0.0
C2733 C 0.82058 0.88108 0.60776 0.0
C2734 C 0.76636 0.84844 0.59286 0.0
C2735 C 0.80141 0.91044 0.61977 0.0
H2736 H 0.73236 0.91689 0.58021 0.0
H2737 H 0.72456 0.89387 0.63894 0.0
H2738 H 0.78374 0.90936 0.57608 0.0
H2739 H 0.7718 0.88767 0.56618 0.0
H2740 H 0.76112 0.91153 0.56155 0.0
H2741 H 0.74959 0.87614 0.65535 0.0
H2742 H 0.76251 0.86003 0.63856 0.0
H2743 H 0.77491 0.88179 0.64767 0.0
H2744 H 0.80456 0.83682 0.58911 0.0
H2745 H 0.83426 0.88926 0.61117 0.0
H2746 H 0.7585 0.85607 0.58061 0.0
H2747 H 0.75587 0.8477 0.60552 0.0
H2748 H 0.7697 0.83315 0.58801 0.0
H2749 H 0.79533 0.92073 0.60856 0.0
H2750 H 0.81651 0.91589 0.62443 0.0
H2751 H 0.79127 0.91085 0.63273 0.0
C2752 C 0.20616 0.61088 0.40294 0.0
C2753 C 0.19432 0.62256 0.39059 0.0
C2754 C 0.22577 0.61668 0.40787 0.0
C2755 C 0.23378 0.63437 0.3999 0.0
C2756 C 0.22159 0.64668 0.38813 0.0
C2757 C 0.20184 0.64069 0.38374 0.0
C2758 C 0.23822 0.60337 0.42082 0.0
C2759 C 0.22976 0.66554 0.37922 0.0
C2760 C 0.2831 0.65259 0.42173 0.0
C2761 C 0.29684 0.64368 0.40899 0.0
C2762 C 0.2624 0.65017 0.41868 0.0
C2763 C 0.25543 0.63884 0.40237 0.0
C2764 C 0.26926 0.63046 0.38905 0.0
C2765 C 0.28983 0.63285 0.39263 0.0
C2766 C 0.24803 0.65906 0.43331 0.0
C2767 C 0.26232 0.61852 0.3713 0.0
H2768 H 0.20022 0.59696 0.40842 0.0
H2769 H 0.19265 0.64969 0.37415 0.0
H2770 H 0.25027 0.59665 0.41188 0.0
H2771 H 0.24557 0.61201 0.43287 0.0
H2772 H 0.2291 0.59129 0.42751 0.0
H2773 H 0.21779 0.67445 0.37223 0.0
H2774 H 0.23751 0.67467 0.39065 0.0
H2775 H 0.24101 0.66192 0.36778 0.0
H2776 H 0.28853 0.66097 0.43441 0.0
H2777 H 0.30046 0.62615 0.38264 0.0
H2778 H 0.23999 0.64708 0.44131 0.0
H2779 H 0.23655 0.66785 0.42548 0.0
H2780 H 0.25582 0.66869 0.44434 0.0
H2781 H 0.25463 0.6048 0.37632 0.0
H2782 H 0.27496 0.61436 0.36157 0.0
H2783 H 0.25134 0.62699 0.36246 0.0
C2784 C 0.60792 0.06862 0.63032 0.0
C2785 C 0.62045 0.08066 0.64207 0.0
C2786 C 0.61183 0.04848 0.62794 0.0
C2787 C 0.62824 0.04013 0.63815 0.0
C2788 C 0.64097 0.05227 0.65 0.0
C2789 C 0.63711 0.07252 0.65155 0.0
C2790 C 0.59836 0.03613 0.61463 0.0
C2791 C 0.65831 0.04377 0.66149 0.0
C2792 C 0.62635 0.985 0.64808 0.0
C2793 C 0.64047 0.97815 0.63456 0.0
C2794 C 0.62225 0.00522 0.64948 0.0
C2795 C 0.63202 0.01866 0.63656 0.0
C2796 C 0.64572 0.01163 0.62236 0.0
C2797 C 0.65005 -0.00854 0.62178 0.0
C2798 C 0.60795 0.01228 0.66515 0.0
C2799 C 0.65588 0.0254 0.60787 0.0
H2800 H 0.59507 0.075 0.62293 0.0
H2801 H 0.64663 0.08183 0.66082 0.0
H2802 H 0.60746 0.02832 0.60344 0.0
H2803 H 0.59041 0.0247 0.62345 0.0
H2804 H 0.587 0.04515 0.60682 0.0
H2805 H 0.66656 0.05517 0.67029 0.0
H2806 H 0.65271 0.03215 0.67169 0.0
H2807 H 0.669 0.03669 0.65125 0.0
H2808 H 0.61909 0.97464 0.65803 0.0
H2809 H 0.66086 0.98606 0.61119 0.0
H2810 H 0.5953 0.0202 0.65819 0.0
H2811 H 0.6158 0.02289 0.67518 0.0
H2812 H 0.60175 -6e-05 0.67414 0.0
H2813 H 0.64448 0.0341 0.5998 0.0
H2814 H 0.66508 0.01735 0.59691 0.0
H2815 H 0.66575 0.03604 0.61594 0.0
C2816 C 0.17544 0.38686 0.8931 0.0
C2817 C 0.17311 0.37294 0.90825 0.0
C2818 C 0.19451 0.39411 0.88799 0.0
C2819 C 0.21152 0.38742 0.89848 0.0
C2820 C 0.20918 0.37391 0.91426 0.0
C2821 C 0.18997 0.36674 0.9189 0.0
C2822 C 0.1965 0.40842 0.87099 0.0
C2823 C 0.22701 0.36668 0.92593 0.0
C2824 C 0.26234 0.38838 0.87374 0.0
C2825 C 0.27127 0.40525 0.88227 0.0
C2826 C 0.24271 0.38264 0.87861 0.0
C2827 C 0.23189 0.39393 0.89247 0.0
C2828 C 0.2407 0.4111 0.90095 0.0
C2829 C 0.26028 0.41662 0.89566 0.0
C2830 C 0.23364 0.36435 0.86911 0.0
C2831 C 0.22962 0.42338 0.91592 0.0
H2832 H 0.16243 0.39166 0.8848 0.0
H2833 H 0.18819 0.35607 0.9307 0.0
H2834 H 0.2048 0.42191 0.87583 0.0
H2835 H 0.2053 0.40159 0.85894 0.0
H2836 H 0.1817 0.4128 0.86491 0.0
H2837 H 0.22249 0.35705 0.93847 0.0
H2838 H 0.23703 0.35822 0.91609 0.0
H2839 H 0.23586 0.37939 0.93185 0.0
H2840 H 0.27071 0.3796 0.8633 0.0
H2841 H 0.26711 0.42965 0.90236 0.0
H2842 H 0.21925 0.36797 0.86172 0.0
H2843 H 0.23027 0.35316 0.88062 0.0
H2844 H 0.24376 0.35768 0.85801 0.0
H2845 H 0.21513 0.4283 0.90961 0.0
H2846 H 0.23843 0.43661 0.92074 0.0
H2847 H 0.22612 0.41431 0.92914 0.0
C2848 C 0.37337 0.41428 0.63219 0.0
C2849 C 0.36117 0.39833 0.626 0.0
C2850 C 0.36645 0.43369 0.63138 0.0
C2851 C 0.34696 0.43726 0.62398 0.0
C2852 C 0.33512 0.42142 0.61638 0.0
C2853 C 0.34233 0.40208 0.61759 0.0
C2854 C 0.37948 0.45016 0.63974 0.0
C2855 C 0.31439 0.42475 0.60804 0.0
C2856 C 0.3187 0.47982 0.64636 0.0
C2857 C 0.32082 0.49441 0.63184 0.0
C2858 C 0.32732 0.46126 0.644 0.0
C2859 C 0.33807 0.45705 0.62652 0.0
C2860 C 0.34037 0.47172 0.6118 0.0
C2861 C 0.33185 0.49035 0.61472 0.0
C2862 C 0.32486 0.44611 0.66022 0.0
C2863 C 0.35152 0.46763 0.59288 0.0
H2864 H 0.38802 0.41157 0.63859 0.0
H2865 H 0.3329 0.38988 0.61256 0.0
H2866 H 0.38011 0.46282 0.62939 0.0
H2867 H 0.37287 0.45556 0.65376 0.0
H2868 H 0.39503 0.4453 0.64285 0.0
H2869 H 0.30829 0.41145 0.60031 0.0
H2870 H 0.30405 0.42859 0.62022 0.0
H2871 H 0.31459 0.4373 0.59753 0.0
H2872 H 0.3103 0.48294 0.65968 0.0
H2873 H 0.33338 0.50155 0.60338 0.0
H2874 H 0.3398 0.44122 0.66544 0.0
H2875 H 0.31675 0.43289 0.6544 0.0
H2876 H 0.31646 0.45191 0.67308 0.0
H2877 H 0.36706 0.46301 0.59627 0.0
H2878 H 0.35217 0.48071 0.58301 0.0
H2879 H 0.34408 0.45525 0.58479 0.0
C2880 C 0.75245 0.08085 0.10844 0.0
C2881 C 0.76806 0.08842 0.12027 0.0
C2882 C 0.73353 0.08953 0.1085 0.0
C2883 C 0.73005 0.10584 0.12111 0.0
C2884 C 0.74568 0.11335 0.13336 0.0
C2885 C 0.76466 0.10469 0.13259 0.0
C2886 C 0.71737 0.08142 0.09484 0.0
C2887 C 0.7423 0.13042 0.14731 0.0
C2888 C 0.68684 0.13755 0.10492 0.0
C2889 C 0.67082 0.12892 0.11532 0.0
C2890 C 0.70644 0.13076 0.10735 0.0
C2891 C 0.71014 0.11529 0.12083 0.0
C2892 C 0.69429 0.10748 0.13241 0.0
C2893 C 0.67472 0.11424 0.12935 0.0
C2894 C 0.72288 0.13922 0.09447 0.0
C2895 C 0.69783 0.09131 0.14731 0.0
H2896 H 0.75515 0.06832 0.09884 0.0
H2897 H 0.77672 0.11041 0.14188 0.0
H2898 H 0.70426 0.07631 0.10358 0.0
H2899 H 0.71209 0.09322 0.08479 0.0
H2900 H 0.72267 0.06888 0.08572 0.0
H2901 H 0.75581 0.13398 0.15642 0.0
H2902 H 0.73814 0.14375 0.13882 0.0
H2903 H 0.72963 0.1269 0.15734 0.0
H2904 H 0.68395 0.14889 0.09403 0.0
H2905 H 0.66241 0.10768 0.13757 0.0
H2906 H 0.72781 0.1278 0.08382 0.0
H2907 H 0.73613 0.14355 0.10357 0.0
H2908 H 0.71789 0.15231 0.08599 0.0
H2909 H 0.70101 0.07731 0.13945 0.0
H2910 H 0.68463 0.08884 0.15701 0.0
H2911 H 0.71109 0.09495 0.1567 0.0
C2912 C 0.58379 0.01614 0.86374 0.0
C2913 C 0.60165 0.02036 0.85366 0.0
C2914 C 0.57543 -0.003 0.86341 0.0
C2915 C 0.58509 0.98204 0.85253 0.0
C2916 C 0.60238 0.98663 0.84129 0.0
C2917 C 0.61053 0.00573 0.84212 0.0
C2918 C 0.55702 -0.00743 0.87561 0.0
C2919 C 0.61289 0.97114 0.82918 0.0
C2920 C 0.58455 0.92832 0.86694 0.0
C2921 C 0.57218 0.92011 0.85217 0.0
C2922 C 0.58771 0.94876 0.86813 0.0
C2923 C 0.57842 0.96117 0.85407 0.0
C2924 C 0.56491 0.95308 0.83993 0.0
C2925 C 0.56187 0.93259 0.8392 0.0
C2926 C 0.602 0.95694 0.88362 0.0
C2927 C 0.55477 0.96587 0.8247 0.0
H2928 H 0.57695 0.02747 0.87272 0.0
H2929 H 0.62424 0.0091 0.83417 0.0
H2930 H 0.54589 0.98378 0.86693 0.0
H2931 H 0.56133 0.9836 0.88864 0.0
H2932 H 0.54978 0.00624 0.88097 0.0
H2933 H 0.62507 0.97756 0.81995 0.0
H2934 H 0.61951 0.95998 0.83918 0.0
H2935 H 0.60201 0.96331 0.81934 0.0
H2936 H 0.59232 0.91872 0.87716 0.0
H2937 H 0.55216 0.9263 0.82783 0.0
H2938 H 0.59534 0.96979 0.89124 0.0
H2939 H 0.616 0.96218 0.8764 0.0
H2940 H 0.606 0.94572 0.89488 0.0
H2941 H 0.54852 0.97926 0.8317 0.0
H2942 H 0.5425 0.95782 0.81677 0.0
H2943 H 0.56599 0.97087 0.81366 0.0
C2944 C 0.912 0.03569 0.34066 0.0
C2945 C 0.89818 0.04561 0.35257 0.0
C2946 C 0.91121 0.01511 0.33871 0.0
C2947 C 0.89643 0.00426 0.34912 0.0
C2948 C 0.88334 0.01408 0.36221 0.0
C2949 C 0.88427 0.03471 0.36366 0.0
C2950 C 0.92528 0.00515 0.3245 0.0
C2951 C 0.8676 0.00291 0.37385 0.0
C2952 C 0.87207 0.95805 0.32856 0.0
C2953 C 0.8804 0.94356 0.34066 0.0
C2954 C 0.8783 0.97777 0.3302 0.0
C2955 C 0.89288 0.98309 0.34464 0.0
C2956 C 0.90231 0.96831 0.356 0.0
C2957 C 0.89605 0.94856 0.35374 0.0
C2958 C 0.86825 -0.00693 0.31745 0.0
C2959 C 0.91781 0.97349 0.37161 0.0
H2960 H 0.92283 0.04407 0.33208 0.0
H2961 H 0.87372 0.04233 0.37303 0.0
H2962 H 0.93188 -0.00817 0.33131 0.0
H2963 H 0.91677 0.00025 0.31117 0.0
H2964 H 0.93765 0.0152 0.31973 0.0
H2965 H 0.86022 0.01241 0.385 0.0
H2966 H 0.85591 -0.00301 0.36359 0.0
H2967 H 0.87438 -0.00984 0.38154 0.0
H2968 H 0.86001 0.95405 0.31841 0.0
H2969 H 0.90233 0.93732 0.36324 0.0
H2970 H 0.87961 0.00307 0.31071 0.0
H2971 H 0.85833 0.00225 0.32673 0.0
H2972 H 0.85903 0.98625 0.30543 0.0
H2973 H 0.92893 0.98435 0.36588 0.0
H2974 H 0.92588 0.96025 0.37691 0.0
H2975 H 0.91029 0.9804 0.38443 0.0
C2976 C 0.34615 0.24073 0.07751 0.0
C2977 C 0.33713 0.25658 0.08718 0.0
C2978 C 0.34576 0.22184 0.08587 0.0
C2979 C 0.33557 0.21877 0.10396 0.0
C2980 C 0.32373 0.23398 0.11194 0.0
C2981 C 0.32496 0.25293 0.10366 0.0
C2982 C 0.35842 0.20596 0.07671 0.0
C2983 C 0.31147 0.23079 0.13037 0.0
C2984 C 0.34193 0.16657 0.12279 0.0
C2985 C 0.35905 0.16903 0.13476 0.0
C2986 C 0.33277 0.18292 0.11395 0.0
C2987 C 0.34149 0.20193 0.11659 0.0
C2988 C 0.35802 0.20455 0.12968 0.0
C2989 C 0.36634 0.18809 0.13886 0.0
C2990 C 0.31455 0.17955 0.10097 0.0
C2991 C 0.368 0.22452 0.13282 0.0
H2992 H 0.35534 0.24345 0.06458 0.0
H2993 H 0.31752 0.26509 0.11089 0.0
H2994 H 0.37174 0.20336 0.08625 0.0
H2995 H 0.34983 0.19187 0.07564 0.0
H2996 H 0.36372 0.21006 0.06169 0.0
H2997 H 0.29936 0.24183 0.13159 0.0
H2998 H 0.30469 0.21573 0.13053 0.0
H2999 H 0.32132 0.23232 0.14359 0.0
H3000 H 0.33606 0.15184 0.1198 0.0
H3001 H 0.37952 0.19008 0.14818 0.0
H3002 H 0.31943 0.17604 0.08572 0.0
H3003 H 0.30491 0.19277 0.10037 0.0
H3004 H 0.30545 0.16681 0.10635 0.0
H3005 H 0.37393 0.23014 0.11856 0.0
H3006 H 0.3806 0.22397 0.14363 0.0
H3007 H 0.35695 0.23531 0.13827 0.0
C3008 C 0.54504 0.63799 0.84846 0.0
C3009 C 0.55397 0.65349 0.85924 0.0
C3010 C 0.52416 0.63527 0.84827 0.0
C3011 C 0.51201 0.64846 0.85901 0.0
C3012 C 0.52088 0.66467 0.86918 0.0
C3013 C 0.5418 0.66696 0.86921 0.0
C3014 C 0.51517 0.61781 0.83725 0.0
C3015 C 0.50835 0.67914 0.8806 0.0
C3016 C 0.45663 0.64664 0.8464 0.0
C3017 C 0.44921 0.63386 0.86104 0.0
C3018 C 0.47696 0.65215 0.84597 0.0
C3019 C 0.49015 0.6446 0.86045 0.0
C3020 C 0.48262 0.63239 0.87576 0.0
C3021 C 0.4622 0.62722 0.87591 0.0
C3022 C 0.48445 0.66542 0.8296 0.0
C3023 C 0.4963 0.6241 0.89148 0.0
H3024 H 0.55439 0.62755 0.84072 0.0
H3025 H 0.54865 0.67907 0.87746 0.0
H3026 H 0.50786 0.60758 0.84788 0.0
H3027 H 0.50341 0.62281 0.82679 0.0
H3028 H 0.5266 0.60953 0.82882 0.0
H3029 H 0.5174 0.69186 0.88629 0.0
H3030 H 0.49609 0.68483 0.87113 0.0
H3031 H 0.50124 0.67155 0.89335 0.0
H3032 H 0.44665 0.65197 0.83494 0.0
H3033 H 0.45659 0.61737 0.88728 0.0
H3034 H 0.4945 0.65702 0.81973 0.0
H3035 H 0.49337 0.67794 0.83584 0.0
H3036 H 0.47199 0.67143 0.82054 0.0
H3037 H 0.50727 0.61408 0.88454 0.0
H3038 H 0.4879 0.61574 0.90296 0.0
H3039 H 0.50497 0.63618 0.89881 0.0
C3040 C 0.14536 0.71665 0.5979 0.0
C3041 C 0.12671 0.70887 0.60358 0.0
C3042 C 0.15106 0.73604 0.60323 0.0
C3043 C 0.13723 0.74805 0.61342 0.0
C3044 C 0.11832 0.74006 0.61905 0.0
C3045 C 0.11357 0.72042 0.61451 0.0
C3046 C 0.17168 0.74344 0.59754 0.0
C3047 C 0.10264 0.75241 0.62919 0.0
C3048 C 0.13984 0.79487 0.64245 0.0
C3049 C 0.13133 0.80776 0.62868 0.0
C3050 C 0.14543 0.7758 0.63671 0.0
C3051 C 0.14126 0.76936 0.61717 0.0
C3052 C 0.13542 0.78324 0.6027 0.0
C3053 C 0.13086 0.80249 0.60861 0.0
C3054 C 0.15357 0.76187 0.65205 0.0
C3055 C 0.1313 0.77711 0.58156 0.0
H3056 H 0.15554 0.70756 0.5895 0.0
H3057 H 0.09907 0.71432 0.6187 0.0
H3058 H 0.17178 0.74697 0.58152 0.0
H3059 H 0.17645 0.75678 0.606 0.0
H3060 H 0.18291 0.73171 0.59996 0.0
H3061 H 0.08812 0.74435 0.63087 0.0
H3062 H 0.108 0.75686 0.64413 0.0
H3063 H 0.0999 0.76609 0.62063 0.0
H3064 H 0.14075 0.79912 0.65791 0.0
H3065 H 0.12462 0.81257 0.59786 0.0
H3066 H 0.16447 0.75161 0.64533 0.0
H3067 H 0.14109 0.75291 0.65831 0.0
H3068 H 0.16101 0.77007 0.66439 0.0
H3069 H 0.14423 0.76898 0.57555 0.0
H3070 H 0.12833 0.78996 0.57184 0.0
H3071 H 0.11801 0.76703 0.58103 0.0
C3072 C 0.01422 0.35815 0.36798 0.0
C3073 C 0.02651 0.35312 0.35203 0.0
C3074 C -0.00607 0.3524 0.36829 0.0
C3075 C 0.98581 0.34119 0.35236 0.0
C3076 C -0.00191 0.33612 0.33619 0.0
C3077 C 0.01828 0.34222 0.33617 0.0
C3078 C 0.98121 0.35819 0.38574 0.0
C3079 C -0.01001 0.324 0.31906 0.0
C3080 C 0.93968 0.31082 0.3653 0.0
C3081 C 0.92422 0.32284 0.35835 0.0
C3082 C 0.95984 0.31622 0.36267 0.0
C3083 C 0.96463 0.3342 0.35307 0.0
C3084 C 0.94911 0.34598 0.34525 0.0
C3085 C 0.92902 0.34008 0.34788 0.0
C3086 C 0.97599 0.3031 0.37093 0.0
C3087 C 0.95367 0.36529 0.33499 0.0
H3088 H 0.02043 0.36666 0.38023 0.0
H3089 H 0.02769 0.33822 0.3238 0.0
H3090 H 0.96785 0.36635 0.38058 0.0
H3091 H 0.9757 0.34476 0.39346 0.0
H3092 H -0.01039 0.36758 0.39655 0.0
H3093 H 0.00138 0.32173 0.30737 0.0
H3094 H 0.98479 0.30934 0.32443 0.0
H3095 H 0.97682 0.33133 0.31237 0.0
H3096 H 0.936 0.2974 0.37329 0.0
H3097 H 0.9171 0.34945 0.34257 0.0
H3098 H 0.98386 0.31078 0.38332 0.0
H3099 H 0.98735 0.29998 0.35945 0.0
H3100 H 0.96982 0.28885 0.37649 0.0
H3101 H 0.96035 0.37592 0.34578 0.0
H3102 H 0.94003 0.37195 0.32843 0.0
H3103 H 0.96484 0.36311 0.32312 0.0
C3104 C 0.38901 0.80196 0.36557 0.0
C3105 C 0.38148 0.80368 0.34627 0.0
C3106 C 0.38603 0.78451 0.37637 0.0
C3107 C 0.37478 0.76878 0.36779 0.0
C3108 C 0.36587 0.77112 0.34887 0.0
C3109 C 0.36966 0.78844 0.33817 0.0
C3110 C 0.39612 0.78239 0.39629 0.0
C3111 C 0.35324 0.75492 0.33947 0.0
C3112 C 0.38551 0.71522 0.37844 0.0
C3113 C 0.36954 0.71014 0.39079 0.0
C3114 C 0.38812 0.73467 0.37188 0.0
C3115 C 0.37404 0.74914 0.37743 0.0
C3116 C 0.35832 0.74417 0.39059 0.0
C3117 C 0.35632 0.72462 0.39724 0.0
C3118 C 0.40531 0.73947 0.35816 0.0
C3119 C 0.34286 0.75909 0.39656 0.0
H3120 H 0.39834 0.81373 0.37172 0.0
H3121 H 0.36378 0.78989 0.32325 0.0
H3122 H 0.38548 0.77627 0.40732 0.0
H3123 H 0.40866 0.77187 0.39502 0.0
H3124 H 0.40224 0.7967 0.40192 0.0
H3125 H 0.34536 0.76002 0.32593 0.0
H3126 H 0.36294 0.74239 0.33538 0.0
H3127 H 0.34192 0.74927 0.35009 0.0
H3128 H 0.39555 0.70381 0.3734 0.0
H3129 H 0.34379 0.72043 0.40657 0.0
H3130 H 0.41341 0.75299 0.36324 0.0
H3131 H 0.39939 0.74242 0.34309 0.0
H3132 H 0.41616 0.72721 0.35718 0.0
H3133 H 0.3502 0.77312 0.40135 0.0
H3134 H 0.33314 0.75358 0.40872 0.0
H3135 H 0.33321 0.76249 0.38362 0.0
C3136 C 0.01242 0.59357 0.15315 0.0
C3137 C 0.01723 0.60951 0.1408 0.0
C3138 C -0.00728 0.58602 0.15398 0.0
C3139 C 0.97747 0.59534 0.14293 0.0
C3140 C 0.98242 0.61126 0.13017 0.0
C3141 C 0.00236 0.61787 0.12898 0.0
C3142 C -0.01174 0.56851 0.16708 0.0
C3143 C 0.96655 0.62192 0.11843 0.0
C3144 C 0.92534 0.57843 0.12936 0.0
C3145 C 0.91411 0.59 0.14233 0.0
C3146 C 0.94629 0.57784 0.13105 0.0
C3147 C 0.95606 0.58975 0.1455 0.0
C3148 C 0.94462 0.5996 0.15999 0.0
C3149 C 0.92366 0.59931 0.15841 0.0
C3150 C 0.95801 0.56615 0.11613 0.0
C3151 C 0.95444 0.61256 0.17558 0.0
H3152 H 0.02406 0.587 0.16216 0.0
H3153 H 0.00614 0.63027 0.11952 0.0
H3154 H 0.98264 0.57377 0.18155 0.0
H3155 H 0.97656 0.55871 0.16042 0.0
H3156 H 0.00194 0.55974 0.16989 0.0
H3157 H 0.97291 0.63429 0.10958 0.0
H3158 H 0.95875 0.61149 0.10821 0.0
H3159 H 0.95511 0.62795 0.12858 0.0
H3160 H 0.91789 0.57098 0.11707 0.0
H3161 H 0.91498 0.60825 0.16847 0.0
H3162 H 0.97129 0.55933 0.12318 0.0
H3163 H 0.96349 0.57616 0.1043 0.0
H3164 H 0.94859 0.55437 0.10914 0.0
H3165 H 0.96694 0.60476 0.18292 0.0
H3166 H 0.94363 0.61728 0.18706 0.0
H3167 H 0.96086 0.62596 0.16845 0.0
C3168 C 0.13749 0.28025 0.86188 0.0
C3169 C 0.12504 0.28662 0.87721 0.0
C3170 C 0.13485 0.26146 0.85341 0.0
C3171 C 0.11909 0.24904 0.86015 0.0
C3172 C 0.10732 0.25491 0.87646 0.0
C3173 C 0.11059 0.27358 0.88494 0.0
C3174 C 0.14807 0.25544 0.83643 0.0
C3175 C 0.0902 0.24218 0.88394 0.0
C3176 C 0.09154 0.21664 0.82309 0.0
C3177 C 0.09735 0.19771 0.82894 0.0
C3178 C 0.099 0.23348 0.83282 0.0
C3179 C 0.11295 0.23136 0.84852 0.0
C3180 C 0.11972 0.21238 0.85382 0.0
C3181 C 0.11165 0.19571 0.84409 0.0
C3182 C 0.09121 0.25347 0.82687 0.0
C3183 C 0.13498 0.20966 0.87014 0.0
H3184 H 0.14889 0.29019 0.85605 0.0
H3185 H 0.10093 0.27841 0.89681 0.0
H3186 H 0.15279 0.23988 0.83808 0.0
H3187 H 0.13953 0.2565 0.82234 0.0
H3188 H 0.16167 0.26504 0.83532 0.0
H3189 H 0.08379 0.248 0.89789 0.0
H3190 H 0.07811 0.2415 0.87258 0.0
H3191 H 0.09523 0.22687 0.88652 0.0
H3192 H 0.08047 0.21831 0.81143 0.0
H3193 H 0.11633 0.1811 0.84854 0.0
H3194 H 0.10386 0.26353 0.82305 0.0
H3195 H 0.08317 0.26021 0.83949 0.0
H3196 H 0.08078 0.25258 0.81401 0.0
H3197 H 0.14791 0.21995 0.86814 0.0
H3198 H 0.14061 0.19431 0.87068 0.0
H3199 H 0.12811 0.21316 0.88462 0.0
C3200 C 0.56336 0.38836 0.63728 0.0
C3201 C 0.56816 0.37583 0.62151 0.0
C3202 C 0.54332 0.39076 0.64305 0.0
C3203 C 0.52798 0.37978 0.63326 0.0
C3204 C 0.53276 0.36755 0.61698 0.0
C3205 C 0.55276 0.36599 0.61111 0.0
C3206 C 0.53865 0.40452 0.65996 0.0
C3207 C 0.51691 0.35524 0.6064 0.0
C3208 C 0.48099 0.36214 0.65897 0.0
C3209 C 0.46629 0.37236 0.64844 0.0
C3210 C 0.50139 0.36535 0.65509 0.0
C3211 C 0.50713 0.37957 0.64079 0.0
C3212 C 0.49237 0.39128 0.63156 0.0
C3213 C 0.47203 0.38726 0.63521 0.0
C3214 C 0.51662 0.35224 0.66494 0.0
C3215 C 0.49798 0.40713 0.61687 0.0
H3216 H 0.57527 0.3961 0.64524 0.0
H3217 H 0.55643 0.35619 0.599 0.0
H3218 H 0.5255 0.41372 0.65629 0.0
H3219 H 0.53479 0.39579 0.67329 0.0
H3220 H 0.55159 0.4144 0.66368 0.0
H3221 H 0.52316 0.3466 0.59393 0.0
H3222 H 0.50979 0.34481 0.61697 0.0
H3223 H 0.50495 0.36484 0.60051 0.0
H3224 H 0.47653 0.35059 0.66919 0.0
H3225 H 0.46062 0.39535 0.62726 0.0
H3226 H 0.52918 0.36119 0.6712 0.0
H3227 H 0.52303 0.34213 0.65376 0.0
H3228 H 0.50991 0.34321 0.67697 0.0
H3229 H 0.51125 0.41576 0.62215 0.0
H3230 H 0.48541 0.4174 0.61417 0.0
H3231 H 0.502 0.4002 0.60257 0.0
C3232 C 0.1291 0.36135 0.26294 0.0
C3233 C 0.11011 0.36792 0.26855 0.0
C3234 C 0.13646 0.36505 0.24387 0.0
C3235 C 0.12473 0.37601 0.23041 0.0
C3236 C 0.1052 0.38192 0.23575 0.0
C3237 C 0.09803 0.37758 0.2547 0.0
C3238 C 0.15711 0.358 0.23846 0.0
C3239 C 0.09235 0.39392 0.22191 0.0
C3240 C 0.15078 0.40877 0.19295 0.0
C3241 C 0.14648 0.3988 0.17522 0.0
C3242 C 0.14418 0.40123 0.21109 0.0
C3243 C 0.13347 0.38303 0.21151 0.0
C3244 C 0.12998 0.37239 0.19374 0.0
C3245 C 0.13629 0.38056 0.17573 0.0
C3246 C 0.14788 0.41319 0.2297 0.0
C3247 C 0.11911 0.35268 0.19372 0.0
H3248 H 0.1384 0.35371 0.27359 0.0
H3249 H 0.08336 0.38273 0.25902 0.0
H3250 H 0.15683 0.35087 0.22366 0.0
H3251 H 0.16763 0.3708 0.23768 0.0
H3252 H 0.16305 0.34735 0.24944 0.0
H3253 H 0.07709 0.39637 0.22789 0.0
H3254 H 0.09965 0.40852 0.21934 0.0
H3255 H 0.09087 0.38646 0.20735 0.0
H3256 H 0.15859 0.42292 0.19258 0.0
H3257 H 0.13312 0.37274 0.16202 0.0
H3258 H 0.15583 0.4042 0.24088 0.0
H3259 H 0.13332 0.41749 0.23621 0.0
H3260 H 0.15691 0.42679 0.22688 0.0
H3261 H 0.12576 0.34277 0.20495 0.0
H3262 H 0.11963 0.3453 0.17903 0.0
H3263 H 0.10317 0.35476 0.19774 0.0
C3264 C 0.37029 0.36948 0.92246 0.0
C3265 C 0.36098 0.38791 0.92214 0.0
C3266 C 0.37553 0.36057 0.94047 0.0
C3267 C 0.37086 0.37015 0.95846 0.0
C3268 C 0.36186 0.38895 0.95818 0.0
C3269 C 0.35724 0.39769 0.94002 0.0
C3270 C 0.3856 0.34075 0.94025 0.0
C3271 C 0.35634 0.39951 0.97708 0.0
C3272 C 0.36074 0.34122 0.0052 0.0
C3273 C 0.37751 0.3464 0.0168 0.0
C3274 C 0.35879 0.34817 0.98579 0.0
C3275 C 0.3742 0.36021 0.9777 0.0
C3276 C 0.39175 0.36441 0.98889 0.0
C3277 C 0.39309 0.35765 0.00844 0.0
C3278 C 0.33967 0.34367 0.97443 0.0
C3279 C 0.4087 0.37678 0.98054 0.0
H3280 H 0.37334 0.36194 0.90865 0.0
H3281 H 0.34994 0.41189 0.93987 0.0
H3282 H 0.39916 0.34112 0.94986 0.0
H3283 H 0.37526 0.32933 0.94629 0.0
H3284 H 0.39003 0.33623 0.9251 0.0
H3285 H 0.34974 0.41421 0.97426 0.0
H3286 H 0.34532 0.39044 0.98545 0.0
H3287 H 0.36979 0.40153 0.98664 0.0
H3288 H 0.34863 0.33257 0.01163 0.0
H3289 H 0.4062 0.36148 0.0173 0.0
H3290 H 0.34314 0.3376 0.95961 0.0
H3291 H 0.33126 0.35751 0.97215 0.0
H3292 H 0.32979 0.33296 0.98229 0.0
H3293 H 0.41257 0.37163 0.96546 0.0
H3294 H 0.42237 0.37633 -0.00999 0.0
H3295 H 0.40394 0.39235 0.97929 0.0
C3296 C 0.32865 0.60181 0.68598 0.0
C3297 C 0.31831 0.58376 0.68798 0.0
C3298 C 0.33803 0.61086 0.70236 0.0
C3299 C 0.33756 0.60125 0.72092 0.0
C3300 C 0.32719 0.58297 0.72294 0.0
C3301 C 0.31742 0.57461 0.70649 0.0
C3302 C 0.34842 0.63064 0.69985 0.0
C3303 C 0.32674 0.57202 0.74239 0.0
C3304 C 0.37692 0.60943 0.76062 0.0
C3305 C 0.36558 0.61856 0.77534 0.0
C3306 C 0.36834 0.60473 0.74219 0.0
C3307 C 0.34817 0.60986 0.73832 0.0
C3308 C 0.33735 0.6208 0.75246 0.0
C3309 C 0.34609 0.62475 0.77099 0.0
C3310 C 0.38025 0.59271 0.72766 0.0
C3311 C 0.31606 0.62713 0.74858 0.0
H3312 H 0.3292 0.60895 0.67164 0.0
H3313 H 0.30958 0.56056 0.70799 0.0
H3314 H 0.34237 0.64143 0.71059 0.0
H3315 H 0.36468 0.62931 0.70303 0.0
H3316 H 0.34654 0.6366 0.68467 0.0
H3317 H 0.31852 0.55767 0.74128 0.0
H3318 H 0.34228 0.56918 0.74752 0.0
H3319 H 0.31945 0.58115 0.75386 0.0
H3320 H 0.39198 0.60457 0.76402 0.0
H3321 H 0.33741 0.63201 0.78234 0.0
H3322 H 0.37906 0.59892 0.71255 0.0
H3323 H 0.37403 0.57743 0.7271 0.0
H3324 H 0.39637 0.592 0.73185 0.0
H3325 H 0.31454 0.63321 0.73343 0.0
H3326 H 0.31112 0.63841 0.75941 0.0
H3327 H 0.30582 0.61413 0.74966 0.0
C3328 C 0.06871 0.62386 0.51048 0.0
C3329 C 0.08566 0.63174 0.52025 0.0
C3330 C 0.06869 0.62089 0.48994 0.0
C3331 C 0.08622 0.62542 0.47909 0.0
C3332 C 0.10301 0.63428 0.48874 0.0
C3333 C 0.10243 0.63755 0.50922 0.0
C3334 C 0.0503 0.61199 0.48006 0.0
C3335 C 0.1221 0.6391 0.4777 0.0
C3336 C 0.10119 0.59426 0.43545 0.0
C3337 C 0.09959 0.60774 0.41984 0.0
C3338 C 0.09577 0.59949 0.4547 0.0
C3339 C 0.08818 0.61856 0.45834 0.0
C3340 C 0.08469 0.63155 0.44235 0.0
C3341 C 0.0906 0.62603 0.42322 0.0
C3342 C 0.09975 0.58518 0.47134 0.0
C3343 C 0.076 0.65174 0.44562 0.0
H3344 H 0.05557 0.61966 0.51895 0.0
H3345 H 0.11553 0.64367 0.51673 0.0
H3346 H 0.04695 0.61973 0.466 0.0
H3347 H 0.05307 0.59629 0.4764 0.0
H3348 H 0.03691 0.61264 0.48975 0.0
H3349 H 0.13325 0.64717 0.48709 0.0
H3350 H 0.12897 0.62523 0.47241 0.0
H3351 H 0.11878 0.64821 0.4645 0.0
H3352 H 0.10791 0.58 0.43292 0.0
H3353 H 0.08917 0.63646 0.41117 0.0
H3354 H 0.08618 0.58321 0.48058 0.0
H3355 H 0.11186 0.5912 0.48105 0.0
H3356 H 0.10437 0.57047 0.46584 0.0
H3357 H 0.06333 0.651 0.45618 0.0
H3358 H 0.07066 0.65838 0.43156 0.0
H3359 H 0.08767 0.66168 0.45212 0.0
C3360 C 0.12227 0.65541 0.21483 0.0
C3361 C 0.10908 0.64262 0.20463 0.0
C3362 C 0.12693 0.65224 0.23483 0.0
C3363 C 0.11849 0.63569 0.24464 0.0
C3364 C 0.10469 0.62311 0.2346 0.0
C3365 C 0.10002 0.62683 0.21475 0.0
C3366 C 0.14141 0.66616 0.24524 0.0
C3367 C 0.09565 0.60511 0.24448 0.0
C3368 C 0.14837 0.61197 0.28565 0.0
C3369 C 0.13758 0.61746 0.3025 0.0
C3370 C 0.14246 0.61811 0.26678 0.0
C3371 C 0.12554 0.63032 0.26473 0.0
C3372 C 0.11492 0.63645 0.2817 0.0
C3373 C 0.12096 0.62976 0.30043 0.0
C3374 C 0.15398 0.61099 0.24899 0.0
C3375 C 0.09703 0.64977 0.28003 0.0
H3376 H 0.12913 0.66776 0.20713 0.0
H3377 H 0.08983 0.61688 0.20695 0.0
H3378 H 0.13524 0.67083 0.2597 0.0
H3379 H 0.15569 0.65848 0.24826 0.0
H3380 H 0.14478 0.67953 0.23629 0.0
H3381 H 0.08421 0.59756 0.23501 0.0
H3382 H 0.10766 0.59446 0.24796 0.0
H3383 H 0.08855 0.60928 0.25866 0.0
H3384 H 0.16118 0.60238 0.28712 0.0
H3385 H 0.11267 0.63415 0.31343 0.0
H3386 H 0.1595 0.62376 0.24023 0.0
H3387 H 0.14391 0.60209 0.23922 0.0
H3388 H 0.16702 0.60183 0.25319 0.0
H3389 H 0.10103 0.66317 0.27141 0.0
H3390 H 0.09136 0.65439 0.29473 0.0
H3391 H 0.08471 0.64203 0.27192 0.0
C3392 C 0.11833 0.39121 0.06384 0.0
C3393 C 0.13318 0.40492 0.05814 0.0
C3394 C 0.10874 0.37896 0.04975 0.0
C3395 C 0.11447 0.38031 0.02967 0.0
C3396 C 0.12942 0.39419 0.0239 0.0
C3397 C 0.13842 0.40642 0.03817 0.0
C3398 C 0.0925 0.36471 0.05628 0.0
C3399 C 0.13621 0.39596 0.00265 0.0
C3400 C 0.11231 0.34133 -0.00967 0.0
C3401 C 0.09958 0.35049 0.97668 0.0
C3402 C 0.11555 0.3496 0.00913 0.0
C3403 C 0.10551 0.36713 0.01434 0.0
C3404 C 0.09029 0.37447 0.00179 0.0
C3405 C 0.08764 0.36616 0.98293 0.0
C3406 C 0.13183 0.3412 0.0221 0.0
C3407 C 0.07868 0.39267 0.00714 0.0
H3408 H 0.11413 0.39013 0.07927 0.0
H3409 H 0.14997 0.41688 0.03369 0.0
H3410 H 0.07803 0.36875 0.0493 0.0
H3411 H 0.09592 0.3495 0.05135 0.0
H3412 H 0.09059 0.3647 0.0726 0.0
H3413 H 0.14836 0.40719 0.00078 0.0
H3414 H 0.14176 0.38153 -0.00269 0.0
H3415 H 0.12339 0.4001 -0.00695 0.0
H3416 H 0.12139 0.32903 0.98565 0.0
H3417 H 0.07743 0.373 0.97254 0.0
H3418 H 0.12771 0.34193 0.03795 0.0
H3419 H 0.14582 0.35004 0.02015 0.0
H3420 H 0.13502 0.32562 0.01817 0.0
H3421 H 0.07515 0.39295 0.02316 0.0
H3422 H 0.06446 0.39353 -0.00146 0.0
H3423 H 0.0879 0.406 0.00378 0.0
C3424 C 0.35217 0.34325 0.80259 0.0
C3425 C 0.33713 0.35721 0.80553 0.0
C3426 C 0.35642 0.33624 0.78353 0.0
C3427 C 0.34557 0.34364 0.76715 0.0
C3428 C 0.32914 0.35625 0.7703 0.0
C3429 C 0.32501 0.36275 0.78951 0.0
C3430 C 0.37366 0.3223 0.78078 0.0
C3431 C 0.31721 0.36454 0.75324 0.0
C3432 C 0.37414 0.35369 0.72001 0.0
C3433 C 0.3663 0.33915 0.70725 0.0
C3434 C 0.36774 0.355 0.73964 0.0
C3435 C 0.35343 0.34116 0.74682 0.0
C3436 C 0.34597 0.32599 0.73425 0.0
C3437 C 0.35233 0.3253 0.71449 0.0
C3438 C 0.37586 0.3716 0.7525 0.0
C3439 C 0.33104 0.31075 0.74156 0.0
H3440 H 0.36141 0.3387 0.81497 0.0
H3441 H 0.3132 0.37336 0.79169 0.0
H3442 H 0.36989 0.31086 0.76953 0.0
H3443 H 0.38696 0.33069 0.77542 0.0
H3444 H 0.3778 0.31491 0.79485 0.0
H3445 H 0.30332 0.37185 0.75828 0.0
H3446 H 0.32657 0.3756 0.74528 0.0
H3447 H 0.31304 0.35276 0.74251 0.0
H3448 H 0.38489 0.36447 0.71448 0.0
H3449 H 0.34638 0.3139 0.70471 0.0
H3450 H 0.38303 0.36552 0.76598 0.0
H3451 H 0.36338 0.3811 0.75738 0.0
H3452 H 0.38708 0.38097 0.74468 0.0
H3453 H 0.33639 0.30419 0.75563 0.0
H3454 H 0.3284 0.29872 0.73061 0.0
H3455 H 0.31651 0.31789 0.74467 0.0
C3456 C 0.35041 0.61151 0.48459 0.0
C3457 C 0.36569 0.62498 0.47971 0.0
C3458 C 0.34822 0.60468 0.50394 0.0
C3459 C 0.36221 0.61084 0.51863 0.0
C3460 C 0.3783 0.62374 0.51358 0.0
C3461 C 0.37957 0.63109 0.49418 0.0
C3462 C 0.33045 0.59147 0.50878 0.0
C3463 C 0.39395 0.62991 0.52867 0.0
C3464 C 0.33972 0.60828 0.5696 0.0
C3465 C 0.34373 0.58871 0.57473 0.0
C3466 C 0.34686 0.61626 0.55185 0.0
C3467 C 0.3589 0.60457 0.53937 0.0
C3468 C 0.36462 0.58546 0.5455 0.0
C3469 C 0.35656 0.57755 0.56294 0.0
C3470 C 0.33984 0.63643 0.5456 0.0
C3471 C 0.37817 0.57291 0.53301 0.0
H3472 H 0.33957 0.60696 0.47338 0.0
H3473 H 0.39146 0.64143 0.49028 0.0
H3474 H 0.33568 0.5771 0.51451 0.0
H3475 H 0.3213 0.59837 0.52053 0.0
H3476 H 0.32064 0.58859 0.49571 0.0
H3477 H 0.40702 0.63746 0.52171 0.0
H3478 H 0.3873 0.64014 0.53956 0.0
H3479 H 0.39933 0.61686 0.53695 0.0
H3480 H 0.32975 0.61689 0.57873 0.0
H3481 H 0.35987 0.56249 0.5671 0.0
H3482 H 0.32908 0.6348 0.53308 0.0
H3483 H 0.3526 0.64564 0.54036 0.0
H3484 H 0.33228 0.64438 0.55781 0.0
H3485 H 0.36951 0.56659 0.52038 0.0
H3486 H 0.38457 0.56053 0.54163 0.0
H3487 H 0.39065 0.58195 0.52683 0.0
C3488 C 0.16522 0.08983 0.36072 0.0
C3489 C 0.15788 0.10596 0.35018 0.0
C3490 C 0.18541 0.08453 0.35921 0.0
C3491 C 0.1982 0.09526 0.34632 0.0
C3492 C 0.19018 0.11011 0.33401 0.0
C3493 C 0.17016 0.11563 0.33645 0.0
C3494 C 0.19345 0.06898 0.373 0.0
C3495 C 0.20313 0.1213 0.31949 0.0
C3496 C 0.25137 0.10465 0.36408 0.0
C3497 C 0.26183 0.08979 0.35433 0.0
C3498 C 0.23063 0.10646 0.36161 0.0
C3499 C 0.22026 0.09354 0.34843 0.0
C3500 C 0.2309 0.07896 0.33792 0.0
C3501 C 0.25159 0.07697 0.34133 0.0
C3502 C 0.21977 0.12188 0.37352 0.0
C3503 C 0.22045 0.06551 0.32318 0.0
H3504 H 0.15567 0.08253 0.37148 0.0
H3505 H 0.16434 0.12807 0.32825 0.0
H3506 H 0.20345 0.05876 0.36505 0.0
H3507 H 0.20249 0.07627 0.38486 0.0
H3508 H 0.18122 0.06023 0.38005 0.0
H3509 H 0.19394 0.12912 0.30829 0.0
H3510 H 0.21242 0.13244 0.32755 0.0
H3511 H 0.21346 0.11119 0.31176 0.0
H3512 H 0.25931 0.11443 0.37427 0.0
H3513 H 0.25979 0.06556 0.33371 0.0
H3514 H 0.20768 0.11478 0.38234 0.0
H3515 H 0.2126 0.13263 0.36346 0.0
H3516 H 0.22997 0.13012 0.38376 0.0
H3517 H 0.20946 0.05583 0.33088 0.0
H3518 H 0.23116 0.05606 0.31508 0.0
H3519 H 0.21193 0.07438 0.31229 0.0
C3520 C 0.77615 0.40453 0.59409 0.0
C3521 C 0.78836 0.38982 0.60205 0.0
C3522 C 0.7553 0.4018 0.59281 0.0
C3523 C 0.74651 0.38412 0.60001 0.0
C3524 C 0.75868 0.36965 0.60895 0.0
C3525 C 0.77953 0.37259 0.60967 0.0
C3526 C 0.74282 0.41741 0.58289 0.0
C3527 C 0.74976 0.35076 0.61713 0.0
C3528 C 0.69012 0.38135 0.60738 0.0
C3529 C 0.68405 0.37061 0.59059 0.0
C3530 C 0.71047 0.38593 0.6107 0.0
C3531 C 0.72487 0.37996 0.59666 0.0
C3532 C 0.71869 0.36958 0.57942 0.0
C3533 C 0.69835 0.36485 0.57671 0.0
C3534 C 0.71662 0.3967 0.62941 0.0
C3535 C 0.73357 0.36331 0.56392 0.0
H3536 H 0.78296 0.41786 0.58815 0.0
H3537 H 0.78893 0.36128 0.61602 0.0
H3538 H 0.7363 0.41138 0.56894 0.0
H3539 H 0.73013 0.42162 0.59249 0.0
H3540 H 0.75175 0.43089 0.57934 0.0
H3541 H 0.761 0.34199 0.62538 0.0
H3542 H 0.73712 0.35409 0.62716 0.0
H3543 H 0.74365 0.34156 0.60484 0.0
H3544 H 0.67905 0.3857 0.61819 0.0
H3545 H 0.69363 0.35666 0.56364 0.0
H3546 H 0.72511 0.41039 0.62575 0.0
H3547 H 0.72675 0.38731 0.6383 0.0
H3548 H 0.70353 0.40065 0.63864 0.0
H3549 H 0.74239 0.37629 0.55874 0.0
H3550 H 0.72615 0.35619 0.55092 0.0
H3551 H 0.74431 0.35274 0.57041 0.0
C3552 C 0.37076 0.92597 0.36519 0.0
C3553 C 0.3854 0.92389 0.35055 0.0
C3554 C 0.36517 0.94476 0.37184 0.0
C3555 C 0.37419 0.96175 0.36333 0.0
C3556 C 0.38928 0.95969 0.34887 0.0
C3557 C 0.39482 0.94078 0.34278 0.0
C3558 C 0.3493 0.94646 0.38758 0.0
C3559 C 0.39908 0.97746 0.33926 0.0
C3560 C 0.34666 0.01013 0.36076 0.0
C3561 C 0.35745 0.02166 0.37453 0.0
C3562 C 0.35146 -0.00968 0.35752 0.0
C3563 C 0.36719 0.98177 0.36857 0.0
C3564 C 0.37743 -0.00698 0.38324 0.0
C3565 C 0.37256 0.01293 0.38592 0.0
C3566 C 0.3404 0.97887 0.34154 0.0
C3567 C 0.39401 0.98425 0.39557 0.0
H3568 H 0.36353 0.91294 0.37132 0.0
H3569 H 0.40612 0.93927 0.33143 0.0
H3570 H 0.35468 0.9563 0.3997 0.0
H3571 H 0.33565 0.95319 0.38119 0.0
H3572 H 0.34509 0.93188 0.39394 0.0
H3573 H 0.41093 0.97328 0.32859 0.0
H3574 H 0.38759 0.98613 0.33128 0.0
H3575 H 0.4059 0.98728 0.35069 0.0
H3576 H 0.33497 0.0168 0.35191 0.0
H3577 H 0.38078 0.02172 0.39675 0.0
H3578 H 0.33449 0.96471 0.34748 0.0
H3579 H 0.35092 0.97524 0.32943 0.0
H3580 H 0.3277 0.98726 0.33518 0.0
H3581 H 0.38911 0.96985 0.40181 0.0
H3582 H 0.39877 -0.00583 0.40791 0.0
H3583 H 0.40722 0.98147 0.38611 0.0
C3584 C 0.7909 0.60376 0.11783 0.0
C3585 C 0.80119 0.6157 0.10426 0.0
C3586 C 0.76986 0.60287 0.11783 0.0
C3587 C 0.75902 0.61396 0.10373 0.0
C3588 C 0.76937 0.62581 0.08983 0.0
C3589 C 0.79034 0.62663 0.09036 0.0
C3590 C 0.75922 0.59025 0.133 0.0
C3591 C 0.7583 0.63761 0.0744 0.0
C3592 C 0.70548 0.59883 0.09153 0.0
C3593 C 0.69463 0.61294 0.10209 0.0
C3594 C 0.72649 0.59894 0.09199 0.0
C3595 C 0.73682 0.61333 0.10351 0.0
C3596 C 0.72597 0.62752 0.11431 0.0
C3597 C 0.70497 0.62725 0.11335 0.0
C3598 C 0.73763 0.58378 0.08003 0.0
C3599 C 0.73655 0.64298 0.12688 0.0
H3600 H 0.79928 0.59534 0.12863 0.0
H3601 H 0.79827 0.63577 0.07973 0.0
H3602 H 0.74924 0.59954 0.14209 0.0
H3603 H 0.7496 0.57899 0.12548 0.0
H3604 H 0.76986 0.5826 0.14298 0.0
H3605 H 0.76865 0.64572 0.06437 0.0
H3606 H 0.74853 0.62768 0.06535 0.0
H3607 H 0.74842 0.64845 0.08171 0.0
H3608 H 0.69755 0.58778 0.08274 0.0
H3609 H 0.69665 0.63808 0.12168 0.0
H3610 H 0.74745 0.57502 0.08987 0.0
H3611 H 0.74747 0.59131 0.06913 0.0
H3612 H 0.72732 0.57351 0.07196 0.0
H3613 H 0.74646 0.63576 0.13786 0.0
H3614 H 0.72587 0.65254 0.13489 0.0
H3615 H 0.74623 0.65247 0.11745 0.0
C3616 C 0.61386 0.57092 0.36626 0.0
C3617 C 0.60066 0.57052 0.35003 0.0
C3618 C 0.62208 0.55338 0.37362 0.0
C3619 C 0.61733 0.53523 0.36414 0.0
C3620 C 0.60391 0.53481 0.34782 0.0
C3621 C 0.59559 0.55243 0.34112 0.0
C3622 C 0.63593 0.55427 0.39135 0.0
C3623 C 0.59865 0.5158 0.3371 0.0
C3624 C 0.65041 0.49058 0.36325 0.0
C3625 C 0.63859 0.47702 0.37381 0.0
C3626 C 0.64455 0.51028 0.36133 0.0
C3627 C 0.6267 0.51655 0.37055 0.0
C3628 C 0.61597 0.50343 0.38301 0.0
C3629 C 0.62192 0.48369 0.3843 0.0
C3630 C 0.65632 0.52374 0.34776 0.0
C3631 C 0.59722 0.50973 0.39358 0.0
H3632 H 0.61771 0.58491 0.37324 0.0
H3633 H 0.58547 0.55206 0.32851 0.0
H3634 H 0.63076 0.54368 0.4028 0.0
H3635 H 0.65124 0.54987 0.38696 0.0
H3636 H 0.63681 0.56928 0.39799 0.0
H3637 H 0.58817 0.5181 0.3245 0.0
H3638 H 0.61248 0.50894 0.33136 0.0
H3639 H 0.5916 0.50514 0.34748 0.0
H3640 H 0.66337 0.48549 0.35518 0.0
H3641 H 0.61292 0.47329 0.39274 0.0
H3642 H 0.65842 0.53858 0.35446 0.0
H3643 H 0.64783 0.5256 0.33372 0.0
H3644 H 0.67129 0.5177 0.34419 0.0
H3645 H 0.59916 0.52477 0.39992 0.0
H3646 H 0.5931 0.49934 0.40563 0.0
H3647 H 0.58456 0.51017 0.38287 0.0
C3648 C 0.21412 0.90126 0.87293 0.0
C3649 C 0.201 0.89035 0.86068 0.0
C3650 C 0.23454 0.89664 0.87411 0.0
C3651 C 0.24202 0.88099 0.86248 0.0
C3652 C 0.229 0.8705 0.84945 0.0
C3653 C 0.2086 0.87518 0.84886 0.0
C3654 C 0.24792 0.90792 0.88842 0.0
C3655 C 0.23651 0.85393 0.83659 0.0
C3656 C 0.29829 0.87531 0.85618 0.0
C3657 C 0.30218 0.85993 0.86943 0.0
C3658 C 0.27874 0.8825 0.8538 0.0
C3659 C 0.26295 0.87434 0.86524 0.0
C3660 C 0.26697 0.8592 0.87902 0.0
C3661 C 0.28648 0.85207 0.8808 0.0
C3662 C 0.2749 0.89844 0.83874 0.0
C3663 C 0.2506 0.85036 0.89175 0.0
H3664 H 0.2083 0.91299 0.88211 0.0
H3665 H 0.19856 0.86688 0.83916 0.0
H3666 H 0.25298 0.89788 0.90034 0.0
H3667 H 0.26153 0.91353 0.8808 0.0
H3668 H 0.24014 0.92058 0.89531 0.0
H3669 H 0.22492 0.84856 0.82591 0.0
H3670 H 0.24994 0.85886 0.82823 0.0
H3671 H 0.24106 0.84136 0.84602 0.0
H3672 H 0.3104 0.88138 0.84734 0.0
H3673 H 0.28947 0.84034 0.89126 0.0
H3674 H 0.26765 0.91124 0.84589 0.0
H3675 H 0.26439 0.89277 0.8272 0.0
H3676 H 0.2889 0.90364 0.83146 0.0
H3677 H 0.24292 0.86218 0.90008 0.0
H3678 H 0.25646 0.83944 0.90249 0.0
H3679 H 0.23915 0.8429 0.88227 0.0
C3680 C 0.37473 0.96956 0.08761 0.0
C3681 C 0.35727 0.96102 0.09547 0.0
C3682 C 0.37967 0.98939 0.09137 0.0
C3683 C 0.36712 0.00065 0.10375 0.0
C3684 C 0.34873 -0.0075 0.11049 0.0
C3685 C 0.3439 0.97278 0.10604 0.0
C3686 C 0.39909 -0.00221 0.0834 0.0
C3687 C 0.33511 0.00391 0.124 0.0
C3688 C 0.3951 0.03635 0.13731 0.0
C3689 C 0.39069 0.05456 0.12872 0.0
C3690 C 0.38709 0.01878 0.12952 0.0
C3691 C 0.37484 0.01943 0.11235 0.0
C3692 C 0.37035 0.03779 0.10354 0.0
C3693 C 0.37813 0.05525 0.11204 0.0
C3694 C 0.39181 -0.00048 0.13967 0.0
C3695 C 0.35777 0.03893 0.08495 0.0
H3696 H 0.38494 0.96051 0.07919 0.0
H3697 H 0.33037 0.96618 0.11213 0.0
H3698 H 0.39695 0.01301 0.07781 0.0
H3699 H 0.41043 -0.00142 0.09547 0.0
H3700 H 0.40516 0.98855 0.07127 0.0
H3701 H 0.32012 -0.00332 0.12543 0.0
H3702 H 0.34206 0.00495 0.13893 0.0
H3703 H 0.33307 0.01919 0.11856 0.0
H3704 H 0.40465 0.03586 0.15034 0.0
H3705 H 0.37486 0.06938 0.10534 0.0
H3706 H 0.40049 -0.01003 0.12957 0.0
H3707 H 0.37771 -0.00853 0.14334 0.0
H3708 H 0.40065 0.00174 0.1535 0.0
H3709 H 0.36539 0.03108 0.07274 0.0
H3710 H 0.35514 0.05441 0.08031 0.0
H3711 H 0.34305 0.03145 0.08717 0.0
C3712 C 0.07113 0.93108 0.62384 0.0
C3713 C 0.07984 0.9137 0.61694 0.0
C3714 C 0.07769 0.94953 0.61696 0.0
C3715 C 0.09284 0.95051 0.60237 0.0
C3716 C 0.1007 0.93293 0.59438 0.0
C3717 C 0.09436 0.91467 0.60205 0.0
C3718 C 0.06925 0.96796 0.62621 0.0
C3719 C 0.11631 0.93343 0.57829 0.0
C3720 C 0.09845 0.0019 0.58119 0.0
C3721 C 0.11416 0.00954 0.59289 0.0
C3722 C 0.09233 0.98208 0.58291 0.0
C3723 C 0.10173 0.96997 0.59716 0.0
C3724 C 0.1183 0.97738 0.60823 0.0
C3725 C 0.12452 -0.00298 0.60572 0.0
C3726 C 0.07514 0.97443 0.5703 0.0
C3727 C 0.12847 0.96507 0.62387 0.0
H3728 H 0.05998 0.93031 0.63544 0.0
H3729 H 0.10094 0.90117 0.59658 0.0
H3730 H 0.0814 0.97625 0.63405 0.0
H3731 H 0.0632 0.9778 0.6146 0.0
H3732 H 0.05711 0.9646 0.63693 0.0
H3733 H 0.11841 0.91865 0.57149 0.0
H3734 H 0.11204 0.944 0.56653 0.0
H3735 H 0.1309 0.93854 0.58455 0.0
H3736 H 0.09057 0.01155 0.5711 0.0
H3737 H 0.13664 0.00293 0.61483 0.0
H3738 H 0.06139 0.97323 0.57941 0.0
H3739 H 0.0784 0.95947 0.56452 0.0
H3740 H 0.072 0.98437 0.55763 0.0
H3741 H 0.11774 0.96186 0.63598 0.0
H3742 H 0.14189 0.97263 0.63031 0.0
H3743 H 0.13312 0.95072 0.6176 0.0
loop_
_geom_bond_atom_site_label_1
_geom_bond_atom_site_label_2
_geom_bond_distance
_geom_bond_site_symmetry_2
_ccdc_geom_bond_type
C0 O1 1.306 . S
C0 O3 1.160 . S
O1 C0 1.306 . S
O1 Cd2 2.228 . S
Cd2 O1 2.228 . S
Cd2 O6 2.273 . S
Cd2 O10 2.277 . S
O3 C0 1.160 . S
O3 Cd4 2.203 . S
Cd4 O3 2.203 . S
Cd4 O6 2.411 . S
Cd4 O7 2.333 . S
Cd4 O8 2.352 . S
Cd4 O12 2.277 . S
Cd4 O13 2.356 . S
C5 O10 1.209 . S
C5 O12 1.226 . S
O6 Cd2 2.273 . S
O6 Cd4 2.411 . S
O6 C9 1.320 . S
O7 Cd4 2.333 . S
O7 C9 1.214 . S
O8 Cd4 2.352 . S
O8 C11 1.258 . S
C9 O6 1.320 . S
C9 O7 1.214 . S
O10 Cd2 2.277 . S
O10 C5 1.209 . S
C11 O8 1.258 . S
C11 O13 1.282 . S
O12 Cd4 2.277 . S
O12 C5 1.226 . S
O13 Cd4 2.356 . S
O13 C11 1.282 . S
C14 O15 1.306 . S
C14 O17 1.160 . S
O15 C14 1.306 . S
O15 Cd16 2.228 . S
Cd16 O15 2.228 . S
Cd16 O20 2.273 . S
Cd16 O24 2.277 . S
O17 C14 1.160 . S
O17 Cd18 2.203 . S
Cd18 O17 2.203 . S
Cd18 O20 2.411 . S
Cd18 O21 2.333 . S
Cd18 O22 2.352 . S
Cd18 O26 2.277 . S
Cd18 O27 2.356 . S
C19 O24 1.209 . S
C19 O26 1.226 . S
O20 Cd16 2.273 . S
O20 Cd18 2.411 . S
O20 C23 1.320 . S
O21 Cd18 2.333 . S
O21 C23 1.214 . S
O22 Cd18 2.352 . S
O22 C25 1.258 . S
C23 O20 1.320 . S
C23 O21 1.214 . S
O24 Cd16 2.277 . S
O24 C19 1.209 . S
C25 O22 1.258 . S
C25 O27 1.282 . S
O26 Cd18 2.277 . S
O26 C19 1.226 . S
O27 Cd18 2.356 . S
O27 C25 1.282 . S
C28 O29 1.306 . S
C28 O31 1.160 . S
O29 C28 1.306 . S
O29 Cd30 2.228 . S
Cd30 O29 2.228 . S
Cd30 O34 2.273 . S
Cd30 O38 2.277 . S
O31 C28 1.160 . S
O31 Cd32 2.203 . S
Cd32 O31 2.203 . S
Cd32 O34 2.411 . S
Cd32 O35 2.333 . S
Cd32 O36 2.352 . S
Cd32 O40 2.277 . S
Cd32 O41 2.356 . S
C33 O38 1.209 . S
C33 O40 1.226 . S
O34 Cd30 2.273 . S
O34 Cd32 2.411 . S
O34 C37 1.320 . S
O35 Cd32 2.333 . S
O35 C37 1.214 . S
O36 Cd32 2.352 . S
O36 C39 1.258 . S
C37 O34 1.320 . S
C37 O35 1.214 . S
O38 Cd30 2.277 . S
O38 C33 1.209 . S
C39 O36 1.258 . S
C39 O41 1.282 . S
O40 Cd32 2.277 . S
O40 C33 1.226 . S
O41 Cd32 2.356 . S
O41 C39 1.282 . S
C42 O43 1.306 . S
C42 O45 1.160 . S
O43 C42 1.306 . S
O43 Cd44 2.228 . S
Cd44 O43 2.228 . S
Cd44 O48 2.273 . S
Cd44 O52 2.277 . S
O45 C42 1.160 . S
O45 Cd46 2.203 . S
Cd46 O45 2.203 . S
Cd46 O48 2.411 . S
Cd46 O49 2.333 . S
Cd46 O50 2.352 . S
Cd46 O54 2.277 . S
Cd46 O55 2.356 . S
C47 O52 1.209 . S
C47 O54 1.226 . S
O48 Cd44 2.273 . S
O48 Cd46 2.411 . S
O48 C51 1.320 . S
O49 Cd46 2.333 . S
O49 C51 1.214 . S
O50 Cd46 2.352 . S
O50 C53 1.258 . S
C51 O48 1.320 . S
C51 O49 1.214 . S
O52 Cd44 2.277 . S
O52 C47 1.209 . S
C53 O50 1.258 . S
C53 O55 1.282 . S
O54 Cd46 2.277 . S
O54 C47 1.226 . S
O55 Cd46 2.356 . S
O55 C53 1.282 . S
C56 O57 1.306 . S
C56 O59 1.160 . S
O57 C56 1.306 . S
O57 Cd58 2.228 . S
Cd58 O57 2.228 . S
Cd58 O62 2.273 . S
Cd58 O66 2.277 . S
O59 C56 1.160 . S
O59 Cd60 2.203 . S
Cd60 O59 2.203 . S
Cd60 O62 2.411 . S
Cd60 O63 2.333 . S
Cd60 O64 2.352 . S
Cd60 O68 2.277 . S
Cd60 O69 2.356 . S
C61 O66 1.209 . S
C61 O68 1.226 . S
O62 Cd58 2.273 . S
O62 Cd60 2.411 . S
O62 C65 1.320 . S
O63 Cd60 2.333 . S
O63 C65 1.214 . S
O64 Cd60 2.352 . S
O64 C67 1.258 . S
C65 O62 1.320 . S
C65 O63 1.214 . S
O66 Cd58 2.277 . S
O66 C61 1.209 . S
C67 O64 1.258 . S
C67 O69 1.282 . S
O68 Cd60 2.277 . S
O68 C61 1.226 . S
O69 Cd60 2.356 . S
O69 C67 1.282 . S
C70 O71 1.306 . S
C70 O73 1.160 . S
O71 C70 1.306 . S
O71 Cd72 2.228 . S
Cd72 O71 2.228 . S
Cd72 O76 2.273 . S
Cd72 O80 2.277 . S
O73 C70 1.160 . S
O73 Cd74 2.203 . S
Cd74 O73 2.203 . S
Cd74 O76 2.411 . S
Cd74 O77 2.333 . S
Cd74 O78 2.352 . S
Cd74 O82 2.277 . S
Cd74 O83 2.356 . S
C75 O80 1.209 . S
C75 O82 1.226 . S
O76 Cd72 2.273 . S
O76 Cd74 2.411 . S
O76 C79 1.320 . S
O77 Cd74 2.333 . S
O77 C79 1.214 . S
O78 Cd74 2.352 . S
O78 C81 1.258 . S
C79 O76 1.320 . S
C79 O77 1.214 . S
O80 Cd72 2.277 . S
O80 C75 1.209 . S
C81 O78 1.258 . S
C81 O83 1.282 . S
O82 Cd74 2.277 . S
O82 C75 1.226 . S
O83 Cd74 2.356 . S
O83 C81 1.282 . S
C84 O85 1.306 . S
C84 O87 1.160 . S
O85 C84 1.306 . S
O85 Cd86 2.228 . S
Cd86 O85 2.228 . S
Cd86 O90 2.273 . S
Cd86 O94 2.277 . S
O87 C84 1.160 . S
O87 Cd88 2.203 . S
Cd88 O87 2.203 . S
Cd88 O90 2.411 . S
Cd88 O91 2.333 . S
Cd88 O92 2.352 . S
Cd88 O96 2.277 . S
Cd88 O97 2.356 . S
C89 O94 1.209 . S
C89 O96 1.226 . S
O90 Cd86 2.273 . S
O90 Cd88 2.411 . S
O90 C93 1.320 . S
O91 Cd88 2.333 . S
O91 C93 1.214 . S
O92 Cd88 2.352 . S
O92 C95 1.258 . S
C93 O90 1.320 . S
C93 O91 1.214 . S
O94 Cd86 2.277 . S
O94 C89 1.209 . S
C95 O92 1.258 . S
C95 O97 1.282 . S
O96 Cd88 2.277 . S
O96 C89 1.226 . S
O97 Cd88 2.356 . S
O97 C95 1.282 . S
C98 O99 1.306 . S
C98 O101 1.160 . S
O99 C98 1.306 . S
O99 Cd100 2.228 . S
Cd100 O99 2.228 . S
Cd100 O104 2.273 . S
Cd100 O108 2.277 . S
O101 C98 1.160 . S
O101 Cd102 2.203 . S
Cd102 O101 2.203 . S
Cd102 O104 2.411 . S
Cd102 O105 2.333 . S
Cd102 O106 2.352 . S
Cd102 O110 2.277 . S
Cd102 O111 2.356 . S
C103 O108 1.209 . S
C103 O110 1.226 . S
O104 Cd100 2.273 . S
O104 Cd102 2.411 . S
O104 C107 1.320 . S
O105 Cd102 2.333 . S
O105 C107 1.214 . S
O106 Cd102 2.352 . S
O106 C109 1.258 . S
C107 O104 1.320 . S
C107 O105 1.214 . S
O108 Cd100 2.277 . S
O108 C103 1.209 . S
C109 O106 1.258 . S
C109 O111 1.282 . S
O110 Cd102 2.277 . S
O110 C103 1.226 . S
O111 Cd102 2.356 . S
O111 C109 1.282 . S
C112 O113 1.306 . S
C112 O115 1.160 . S
O113 C112 1.306 . S
O113 Cd114 2.228 . S
Cd114 O113 2.228 . S
Cd114 O118 2.273 . S
Cd114 O122 2.277 . S
O115 C112 1.160 . S
O115 Cd116 2.203 . S
Cd116 O115 2.203 . S
Cd116 O118 2.411 . S
Cd116 O119 2.333 . S
Cd116 O120 2.352 . S
Cd116 O124 2.277 . S
Cd116 O125 2.356 . S
C117 O122 1.209 . S
C117 O124 1.226 . S
O118 Cd114 2.273 . S
O118 Cd116 2.411 . S
O118 C121 1.320 . S
O119 Cd116 2.333 . S
O119 C121 1.214 . S
O120 Cd116 2.352 . S
O120 C123 1.258 . S
C121 O118 1.320 . S
C121 O119 1.214 . S
O122 Cd114 2.277 . S
O122 C117 1.209 . S
C123 O120 1.258 . S
C123 O125 1.282 . S
O124 Cd116 2.277 . S
O124 C117 1.226 . S
O125 Cd116 2.356 . S
O125 C123 1.282 . S
C126 O127 1.306 . S
C126 O129 1.160 . S
O127 C126 1.306 . S
O127 Cd128 2.228 . S
Cd128 O127 2.228 . S
Cd128 O132 2.273 . S
Cd128 O136 2.277 . S
O129 C126 1.160 . S
O129 Cd130 2.203 . S
Cd130 O129 2.203 . S
Cd130 O132 2.411 . S
Cd130 O133 2.333 . S
Cd130 O134 2.352 . S
Cd130 O138 2.277 . S
Cd130 O139 2.356 . S
C131 O136 1.209 . S
C131 O138 1.226 . S
O132 Cd128 2.273 . S
O132 Cd130 2.411 . S
O132 C135 1.320 . S
O133 Cd130 2.333 . S
O133 C135 1.214 . S
O134 Cd130 2.352 . S
O134 C137 1.258 . S
C135 O132 1.320 . S
C135 O133 1.214 . S
O136 Cd128 2.277 . S
O136 C131 1.209 . S
C137 O134 1.258 . S
C137 O139 1.282 . S
O138 Cd130 2.277 . S
O138 C131 1.226 . S
O139 Cd130 2.356 . S
O139 C137 1.282 . S
C140 O141 1.306 . S
C140 O143 1.160 . S
O141 C140 1.306 . S
O141 Cd142 2.228 . S
Cd142 O141 2.228 . S
Cd142 O146 2.273 . S
Cd142 O150 2.277 . S
O143 C140 1.160 . S
O143 Cd144 2.203 . S
Cd144 O143 2.203 . S
Cd144 O146 2.411 . S
Cd144 O147 2.333 . S
Cd144 O148 2.352 . S
Cd144 O152 2.277 . S
Cd144 O153 2.356 . S
C145 O150 1.209 . S
C145 O152 1.226 . S
O146 Cd142 2.273 . S
O146 Cd144 2.411 . S
O146 C149 1.320 . S
O147 Cd144 2.333 . S
O147 C149 1.214 . S
O148 Cd144 2.352 . S
O148 C151 1.258 . S
C149 O146 1.320 . S
C149 O147 1.214 . S
O150 Cd142 2.277 . S
O150 C145 1.209 . S
C151 O148 1.258 . S
C151 O153 1.282 . S
O152 Cd144 2.277 . S
O152 C145 1.226 . S
O153 Cd144 2.356 . S
O153 C151 1.282 . S
C154 O155 1.306 . S
C154 O157 1.160 . S
O155 C154 1.306 . S
O155 Cd156 2.228 . S
Cd156 O155 2.228 . S
Cd156 O160 2.273 . S
Cd156 O164 2.277 . S
O157 C154 1.160 . S
O157 Cd158 2.203 . S
Cd158 O157 2.203 . S
Cd158 O160 2.411 . S
Cd158 O161 2.333 . S
Cd158 O162 2.352 . S
Cd158 O166 2.277 . S
Cd158 O167 2.356 . S
C159 O164 1.209 . S
C159 O166 1.226 . S
O160 Cd156 2.273 . S
O160 Cd158 2.411 . S
O160 C163 1.320 . S
O161 Cd158 2.333 . S
O161 C163 1.214 . S
O162 Cd158 2.352 . S
O162 C165 1.258 . S
C163 O160 1.320 . S
C163 O161 1.214 . S
O164 Cd156 2.277 . S
O164 C159 1.209 . S
C165 O162 1.258 . S
C165 O167 1.282 . S
O166 Cd158 2.277 . S
O166 C159 1.226 . S
O167 Cd158 2.356 . S
O167 C165 1.282 . S
C168 O169 1.306 . S
C168 O171 1.160 . S
O169 C168 1.306 . S
O169 Cd170 2.228 . S
Cd170 O169 2.228 . S
Cd170 O174 2.273 . S
Cd170 O178 2.277 . S
O171 C168 1.160 . S
O171 Cd172 2.203 . S
Cd172 O171 2.203 . S
Cd172 O174 2.411 . S
Cd172 O175 2.333 . S
Cd172 O176 2.352 . S
Cd172 O180 2.277 . S
Cd172 O181 2.356 . S
C173 O178 1.209 . S
C173 O180 1.226 . S
O174 Cd170 2.273 . S
O174 Cd172 2.411 . S
O174 C177 1.320 . S
O175 Cd172 2.333 . S
O175 C177 1.214 . S
O176 Cd172 2.352 . S
O176 C179 1.258 . S
C177 O174 1.320 . S
C177 O175 1.214 . S
O178 Cd170 2.277 . S
O178 C173 1.209 . S
C179 O176 1.258 . S
C179 O181 1.282 . S
O180 Cd172 2.277 . S
O180 C173 1.226 . S
O181 Cd172 2.356 . S
O181 C179 1.282 . S
C182 O183 1.306 . S
C182 O185 1.160 . S
O183 C182 1.306 . S
O183 Cd184 2.228 . S
Cd184 O183 2.228 . S
Cd184 O188 2.273 . S
Cd184 O192 2.277 . S
O185 C182 1.160 . S
O185 Cd186 2.203 . S
Cd186 O185 2.203 . S
Cd186 O188 2.411 . S
Cd186 O189 2.333 . S
Cd186 O190 2.352 . S
Cd186 O194 2.277 . S
Cd186 O195 2.356 . S
C187 O192 1.209 . S
C187 O194 1.226 . S
O188 Cd184 2.273 . S
O188 Cd186 2.411 . S
O188 C191 1.320 . S
O189 Cd186 2.333 . S
O189 C191 1.214 . S
O190 Cd186 2.352 . S
O190 C193 1.258 . S
C191 O188 1.320 . S
C191 O189 1.214 . S
O192 Cd184 2.277 . S
O192 C187 1.209 . S
C193 O190 1.258 . S
C193 O195 1.282 . S
O194 Cd186 2.277 . S
O194 C187 1.226 . S
O195 Cd186 2.356 . S
O195 C193 1.282 . S
C196 O197 1.306 . S
C196 O199 1.160 . S
O197 C196 1.306 . S
O197 Cd198 2.228 . S
Cd198 O197 2.228 . S
Cd198 O202 2.273 . S
Cd198 O206 2.277 . S
O199 C196 1.160 . S
O199 Cd200 2.203 . S
Cd200 O199 2.203 . S
Cd200 O202 2.411 . S
Cd200 O203 2.333 . S
Cd200 O204 2.352 . S
Cd200 O208 2.277 . S
Cd200 O209 2.356 . S
C201 O206 1.209 . S
C201 O208 1.226 . S
O202 Cd198 2.273 . S
O202 Cd200 2.411 . S
O202 C205 1.320 . S
O203 Cd200 2.333 . S
O203 C205 1.214 . S
O204 Cd200 2.352 . S
O204 C207 1.258 . S
C205 O202 1.320 . S
C205 O203 1.214 . S
O206 Cd198 2.277 . S
O206 C201 1.209 . S
C207 O204 1.258 . S
C207 O209 1.282 . S
O208 Cd200 2.277 . S
O208 C201 1.226 . S
O209 Cd200 2.356 . S
O209 C207 1.282 . S
C210 O211 1.306 . S
C210 O213 1.160 . S
O211 C210 1.306 . S
O211 Cd212 2.228 . S
Cd212 O211 2.228 . S
Cd212 O216 2.273 . S
Cd212 O220 2.277 . S
O213 C210 1.160 . S
O213 Cd214 2.203 . S
Cd214 O213 2.203 . S
Cd214 O216 2.411 . S
Cd214 O217 2.333 . S
Cd214 O218 2.352 . S
Cd214 O222 2.277 . S
Cd214 O223 2.356 . S
C215 O220 1.209 . S
C215 O222 1.226 . S
O216 Cd212 2.273 . S
O216 Cd214 2.411 . S
O216 C219 1.320 . S
O217 Cd214 2.333 . S
O217 C219 1.214 . S
O218 Cd214 2.352 . S
O218 C221 1.258 . S
C219 O216 1.320 . S
C219 O217 1.214 . S
O220 Cd212 2.277 . S
O220 C215 1.209 . S
C221 O218 1.258 . S
C221 O223 1.282 . S
O222 Cd214 2.277 . S
O222 C215 1.226 . S
O223 Cd214 2.356 . S
O223 C221 1.282 . S
C224 O225 1.306 . S
C224 O227 1.160 . S
O225 C224 1.306 . S
O225 Cd226 2.228 . S
Cd226 O225 2.228 . S
Cd226 O230 2.273 . S
Cd226 O234 2.277 . S
O227 C224 1.160 . S
O227 Cd228 2.203 . S
Cd228 O227 2.203 . S
Cd228 O230 2.411 . S
Cd228 O231 2.333 . S
Cd228 O232 2.352 . S
Cd228 O236 2.277 . S
Cd228 O237 2.356 . S
C229 O234 1.209 . S
C229 O236 1.226 . S
O230 Cd226 2.273 . S
O230 Cd228 2.411 . S
O230 C233 1.320 . S
O231 Cd228 2.333 . S
O231 C233 1.214 . S
O232 Cd228 2.352 . S
O232 C235 1.258 . S
C233 O230 1.320 . S
C233 O231 1.214 . S
O234 Cd226 2.277 . S
O234 C229 1.209 . S
C235 O232 1.258 . S
C235 O237 1.282 . S
O236 Cd228 2.277 . S
O236 C229 1.226 . S
O237 Cd228 2.356 . S
O237 C235 1.282 . S
C238 O239 1.306 . S
C238 O241 1.160 . S
O239 C238 1.306 . S
O239 Cd240 2.228 . S
Cd240 O239 2.228 . S
Cd240 O244 2.273 . S
Cd240 O248 2.277 . S
O241 C238 1.160 . S
O241 Cd242 2.203 . S
Cd242 O241 2.203 . S
Cd242 O244 2.411 . S
Cd242 O245 2.333 . S
Cd242 O246 2.352 . S
Cd242 O250 2.277 . S
Cd242 O251 2.356 . S
C243 O248 1.209 . S
C243 O250 1.226 . S
O244 Cd240 2.273 . S
O244 Cd242 2.411 . S
O244 C247 1.320 . S
O245 Cd242 2.333 . S
O245 C247 1.214 . S
O246 Cd242 2.352 . S
O246 C249 1.258 . S
C247 O244 1.320 . S
C247 O245 1.214 . S
O248 Cd240 2.277 . S
O248 C243 1.209 . S
C249 O246 1.258 . S
C249 O251 1.282 . S
O250 Cd242 2.277 . S
O250 C243 1.226 . S
O251 Cd242 2.356 . S
O251 C249 1.282 . S
C252 O253 1.306 . S
C252 O255 1.160 . S
O253 C252 1.306 . S
O253 Cd254 2.228 . S
Cd254 O253 2.228 . S
Cd254 O258 2.273 . S
Cd254 O262 2.277 . S
O255 C252 1.160 . S
O255 Cd256 2.203 . S
Cd256 O255 2.203 . S
Cd256 O258 2.411 . S
Cd256 O259 2.333 . S
Cd256 O260 2.352 . S
Cd256 O264 2.277 . S
Cd256 O265 2.356 . S
C257 O262 1.209 . S
C257 O264 1.226 . S
O258 Cd254 2.273 . S
O258 Cd256 2.411 . S
O258 C261 1.320 . S
O259 Cd256 2.333 . S
O259 C261 1.214 . S
O260 Cd256 2.352 . S
O260 C263 1.258 . S
C261 O258 1.320 . S
C261 O259 1.214 . S
O262 Cd254 2.277 . S
O262 C257 1.209 . S
C263 O260 1.258 . S
C263 O265 1.282 . S
O264 Cd256 2.277 . S
O264 C257 1.226 . S
O265 Cd256 2.356 . S
O265 C263 1.282 . S
C266 O267 1.306 . S
C266 O269 1.160 . S
O267 C266 1.306 . S
O267 Cd268 2.228 . S
Cd268 O267 2.228 . S
Cd268 O272 2.273 . S
Cd268 O276 2.277 . S
O269 C266 1.160 . S
O269 Cd270 2.203 . S
Cd270 O269 2.203 . S
Cd270 O272 2.411 . S
Cd270 O273 2.333 . S
Cd270 O274 2.352 . S
Cd270 O278 2.277 . S
Cd270 O279 2.356 . S
C271 O276 1.209 . S
C271 O278 1.226 . S
O272 Cd268 2.273 . S
O272 Cd270 2.411 . S
O272 C275 1.320 . S
O273 Cd270 2.333 . S
O273 C275 1.214 . S
O274 Cd270 2.352 . S
O274 C277 1.258 . S
C275 O272 1.320 . S
C275 O273 1.214 . S
O276 Cd268 2.277 . S
O276 C271 1.209 . S
C277 O274 1.258 . S
C277 O279 1.282 . S
O278 Cd270 2.277 . S
O278 C271 1.226 . S
O279 Cd270 2.356 . S
O279 C277 1.282 . S
C280 O281 1.306 . S
C280 O283 1.160 . S
O281 C280 1.306 . S
O281 Cd282 2.228 . S
Cd282 O281 2.228 . S
Cd282 O286 2.273 . S
Cd282 O290 2.277 . S
O283 C280 1.160 . S
O283 Cd284 2.203 . S
Cd284 O283 2.203 . S
Cd284 O286 2.411 . S
Cd284 O287 2.333 . S
Cd284 O288 2.352 . S
Cd284 O292 2.277 . S
Cd284 O293 2.356 . S
C285 O290 1.209 . S
C285 O292 1.226 . S
O286 Cd282 2.273 . S
O286 Cd284 2.411 . S
O286 C289 1.320 . S
O287 Cd284 2.333 . S
O287 C289 1.214 . S
O288 Cd284 2.352 . S
O288 C291 1.258 . S
C289 O286 1.320 . S
C289 O287 1.214 . S
O290 Cd282 2.277 . S
O290 C285 1.209 . S
C291 O288 1.258 . S
C291 O293 1.282 . S
O292 Cd284 2.277 . S
O292 C285 1.226 . S
O293 Cd284 2.356 . S
O293 C291 1.282 . S
C294 O295 1.306 . S
C294 O297 1.160 . S
O295 C294 1.306 . S
O295 Cd296 2.228 . S
Cd296 O295 2.228 . S
Cd296 O300 2.273 . S
Cd296 O304 2.277 . S
O297 C294 1.160 . S
O297 Cd298 2.203 . S
Cd298 O297 2.203 . S
Cd298 O300 2.411 . S
Cd298 O301 2.333 . S
Cd298 O302 2.352 . S
Cd298 O306 2.277 . S
Cd298 O307 2.356 . S
C299 O304 1.209 . S
C299 O306 1.226 . S
O300 Cd296 2.273 . S
O300 Cd298 2.411 . S
O300 C303 1.320 . S
O301 Cd298 2.333 . S
O301 C303 1.214 . S
O302 Cd298 2.352 . S
O302 C305 1.258 . S
C303 O300 1.320 . S
C303 O301 1.214 . S
O304 Cd296 2.277 . S
O304 C299 1.209 . S
C305 O302 1.258 . S
C305 O307 1.282 . S
O306 Cd298 2.277 . S
O306 C299 1.226 . S
O307 Cd298 2.356 . S
O307 C305 1.282 . S
C308 O309 1.306 . S
C308 O311 1.160 . S
O309 C308 1.306 . S
O309 Cd310 2.228 . S
Cd310 O309 2.228 . S
Cd310 O314 2.273 . S
Cd310 O318 2.277 . S
O311 C308 1.160 . S
O311 Cd312 2.203 . S
Cd312 O311 2.203 . S
Cd312 O314 2.411 . S
Cd312 O315 2.333 . S
Cd312 O316 2.352 . S
Cd312 O320 2.277 . S
Cd312 O321 2.356 . S
C313 O318 1.209 . S
C313 O320 1.226 . S
O314 Cd310 2.273 . S
O314 Cd312 2.411 . S
O314 C317 1.320 . S
O315 Cd312 2.333 . S
O315 C317 1.214 . S
O316 Cd312 2.352 . S
O316 C319 1.258 . S
C317 O314 1.320 . S
C317 O315 1.214 . S
O318 Cd310 2.277 . S
O318 C313 1.209 . S
C319 O316 1.258 . S
C319 O321 1.282 . S
O320 Cd312 2.277 . S
O320 C313 1.226 . S
O321 Cd312 2.356 . S
O321 C319 1.282 . S
C322 O323 1.306 . S
C322 O325 1.160 . S
O323 C322 1.306 . S
O323 Cd324 2.228 . S
Cd324 O323 2.228 . S
Cd324 O328 2.273 . S
Cd324 O332 2.277 . S
O325 C322 1.160 . S
O325 Cd326 2.203 . S
Cd326 O325 2.203 . S
Cd326 O328 2.411 . S
Cd326 O329 2.333 . S
Cd326 O330 2.352 . S
Cd326 O334 2.277 . S
Cd326 O335 2.356 . S
C327 O332 1.209 . S
C327 O334 1.226 . S
O328 Cd324 2.273 . S
O328 Cd326 2.411 . S
O328 C331 1.320 . S
O329 Cd326 2.333 . S
O329 C331 1.214 . S
O330 Cd326 2.352 . S
O330 C333 1.258 . S
C331 O328 1.320 . S
C331 O329 1.214 . S
O332 Cd324 2.277 . S
O332 C327 1.209 . S
C333 O330 1.258 . S
C333 O335 1.282 . S
O334 Cd326 2.277 . S
O334 C327 1.226 . S
O335 Cd326 2.356 . S
O335 C333 1.282 . S
C336 O337 1.306 . S
C336 O339 1.160 . S
O337 C336 1.306 . S
O337 Cd338 2.228 . S
Cd338 O337 2.228 . S
Cd338 O342 2.273 . S
Cd338 O346 2.277 . S
O339 C336 1.160 . S
O339 Cd340 2.203 . S
Cd340 O339 2.203 . S
Cd340 O342 2.411 . S
Cd340 O343 2.333 . S
Cd340 O344 2.352 . S
Cd340 O348 2.277 . S
Cd340 O349 2.356 . S
C341 O346 1.209 . S
C341 O348 1.226 . S
O342 Cd338 2.273 . S
O342 Cd340 2.411 . S
O342 C345 1.320 . S
O343 Cd340 2.333 . S
O343 C345 1.214 . S
O344 Cd340 2.352 . S
O344 C347 1.258 . S
C345 O342 1.320 . S
C345 O343 1.214 . S
O346 Cd338 2.277 . S
O346 C341 1.209 . S
C347 O344 1.258 . S
C347 O349 1.282 . S
O348 Cd340 2.277 . S
O348 C341 1.226 . S
O349 Cd340 2.356 . S
O349 C347 1.282 . S
C350 O351 1.306 . S
C350 O353 1.160 . S
O351 C350 1.306 . S
O351 Cd352 2.228 . S
Cd352 O351 2.228 . S
Cd352 O356 2.273 . S
Cd352 O360 2.277 . S
O353 C350 1.160 . S
O353 Cd354 2.203 . S
Cd354 O353 2.203 . S
Cd354 O356 2.411 . S
Cd354 O357 2.333 . S
Cd354 O358 2.352 . S
Cd354 O362 2.277 . S
Cd354 O363 2.356 . S
C355 O360 1.209 . S
C355 O362 1.226 . S
O356 Cd352 2.273 . S
O356 Cd354 2.411 . S
O356 C359 1.320 . S
O357 Cd354 2.333 . S
O357 C359 1.214 . S
O358 Cd354 2.352 . S
O358 C361 1.258 . S
C359 O356 1.320 . S
C359 O357 1.214 . S
O360 Cd352 2.277 . S
O360 C355 1.209 . S
C361 O358 1.258 . S
C361 O363 1.282 . S
O362 Cd354 2.277 . S
O362 C355 1.226 . S
O363 Cd354 2.356 . S
O363 C361 1.282 . S
C364 O365 1.306 . S
C364 O367 1.160 . S
O365 C364 1.306 . S
O365 Cd366 2.228 . S
Cd366 O365 2.228 . S
Cd366 O370 2.273 . S
Cd366 O374 2.277 . S
O367 C364 1.160 . S
O367 Cd368 2.203 . S
Cd368 O367 2.203 . S
Cd368 O370 2.411 . S
Cd368 O371 2.333 . S
Cd368 O372 2.352 . S
Cd368 O376 2.277 . S
Cd368 O377 2.356 . S
C369 O374 1.209 . S
C369 O376 1.226 . S
O370 Cd366 2.273 . S
O370 Cd368 2.411 . S
O370 C373 1.320 . S
O371 Cd368 2.333 . S
O371 C373 1.214 . S
O372 Cd368 2.352 . S
O372 C375 1.258 . S
C373 O370 1.320 . S
C373 O371 1.214 . S
O374 Cd366 2.277 . S
O374 C369 1.209 . S
C375 O372 1.258 . S
C375 O377 1.282 . S
O376 Cd368 2.277 . S
O376 C369 1.226 . S
O377 Cd368 2.356 . S
O377 C375 1.282 . S
C378 O379 1.306 . S
C378 O381 1.160 . S
O379 C378 1.306 . S
O379 Cd380 2.228 . S
Cd380 O379 2.228 . S
Cd380 O384 2.273 . S
Cd380 O388 2.277 . S
O381 C378 1.160 . S
O381 Cd382 2.203 . S
Cd382 O381 2.203 . S
Cd382 O384 2.411 . S
Cd382 O385 2.333 . S
Cd382 O386 2.352 . S
Cd382 O390 2.277 . S
Cd382 O391 2.356 . S
C383 O388 1.209 . S
C383 O390 1.226 . S
O384 Cd380 2.273 . S
O384 Cd382 2.411 . S
O384 C387 1.320 . S
O385 Cd382 2.333 . S
O385 C387 1.214 . S
O386 Cd382 2.352 . S
O386 C389 1.258 . S
C387 O384 1.320 . S
C387 O385 1.214 . S
O388 Cd380 2.277 . S
O388 C383 1.209 . S
C389 O386 1.258 . S
C389 O391 1.282 . S
O390 Cd382 2.277 . S
O390 C383 1.226 . S
O391 Cd382 2.356 . S
O391 C389 1.282 . S
C392 O393 1.306 . S
C392 O395 1.160 . S
O393 C392 1.306 . S
O393 Cd394 2.228 . S
Cd394 O393 2.228 . S
Cd394 O398 2.273 . S
Cd394 O402 2.277 . S
O395 C392 1.160 . S
O395 Cd396 2.203 . S
Cd396 O395 2.203 . S
Cd396 O398 2.411 . S
Cd396 O399 2.333 . S
Cd396 O400 2.352 . S
Cd396 O404 2.277 . S
Cd396 O405 2.356 . S
C397 O402 1.209 . S
C397 O404 1.226 . S
O398 Cd394 2.273 . S
O398 Cd396 2.411 . S
O398 C401 1.320 . S
O399 Cd396 2.333 . S
O399 C401 1.214 . S
O400 Cd396 2.352 . S
O400 C403 1.258 . S
C401 O398 1.320 . S
C401 O399 1.214 . S
O402 Cd394 2.277 . S
O402 C397 1.209 . S
C403 O400 1.258 . S
C403 O405 1.282 . S
O404 Cd396 2.277 . S
O404 C397 1.226 . S
O405 Cd396 2.356 . S
O405 C403 1.282 . S
C406 O407 1.306 . S
C406 O409 1.160 . S
O407 C406 1.306 . S
O407 Cd408 2.228 . S
Cd408 O407 2.228 . S
Cd408 O412 2.273 . S
Cd408 O416 2.277 . S
O409 C406 1.160 . S
O409 Cd410 2.203 . S
Cd410 O409 2.203 . S
Cd410 O412 2.411 . S
Cd410 O413 2.333 . S
Cd410 O414 2.352 . S
Cd410 O418 2.277 . S
Cd410 O419 2.356 . S
C411 O416 1.209 . S
C411 O418 1.226 . S
O412 Cd408 2.273 . S
O412 Cd410 2.411 . S
O412 C415 1.320 . S
O413 Cd410 2.333 . S
O413 C415 1.214 . S
O414 Cd410 2.352 . S
O414 C417 1.258 . S
C415 O412 1.320 . S
C415 O413 1.214 . S
O416 Cd408 2.277 . S
O416 C411 1.209 . S
C417 O414 1.258 . S
C417 O419 1.282 . S
O418 Cd410 2.277 . S
O418 C411 1.226 . S
O419 Cd410 2.356 . S
O419 C417 1.282 . S
C420 O421 1.306 . S
C420 O423 1.160 . S
O421 C420 1.306 . S
O421 Cd422 2.228 . S
Cd422 O421 2.228 . S
Cd422 O426 2.273 . S
Cd422 O430 2.277 . S
O423 C420 1.160 . S
O423 Cd424 2.203 . S
Cd424 O423 2.203 . S
Cd424 O426 2.411 . S
Cd424 O427 2.333 . S
Cd424 O428 2.352 . S
Cd424 O432 2.277 . S
Cd424 O433 2.356 . S
C425 O430 1.209 . S
C425 O432 1.226 . S
O426 Cd422 2.273 . S
O426 Cd424 2.411 . S
O426 C429 1.320 . S
O427 Cd424 2.333 . S
O427 C429 1.214 . S
O428 Cd424 2.352 . S
O428 C431 1.258 . S
C429 O426 1.320 . S
C429 O427 1.214 . S
O430 Cd422 2.277 . S
O430 C425 1.209 . S
C431 O428 1.258 . S
C431 O433 1.282 . S
O432 Cd424 2.277 . S
O432 C425 1.226 . S
O433 Cd424 2.356 . S
O433 C431 1.282 . S
C434 O435 1.306 . S
C434 O437 1.160 . S
O435 C434 1.306 . S
O435 Cd436 2.228 . S
Cd436 O435 2.228 . S
Cd436 O440 2.273 . S
Cd436 O444 2.277 . S
O437 C434 1.160 . S
O437 Cd438 2.203 . S
Cd438 O437 2.203 . S
Cd438 O440 2.411 . S
Cd438 O441 2.333 . S
Cd438 O442 2.352 . S
Cd438 O446 2.277 . S
Cd438 O447 2.356 . S
C439 O444 1.209 . S
C439 O446 1.226 . S
O440 Cd436 2.273 . S
O440 Cd438 2.411 . S
O440 C443 1.320 . S
O441 Cd438 2.333 . S
O441 C443 1.214 . S
O442 Cd438 2.352 . S
O442 C445 1.258 . S
C443 O440 1.320 . S
C443 O441 1.214 . S
O444 Cd436 2.277 . S
O444 C439 1.209 . S
C445 O442 1.258 . S
C445 O447 1.282 . S
O446 Cd438 2.277 . S
O446 C439 1.226 . S
O447 Cd438 2.356 . S
O447 C445 1.282 . S
C448 O449 1.306 . S
C448 O451 1.160 . S
O449 C448 1.306 . S
O449 Cd450 2.228 . S
Cd450 O449 2.228 . S
Cd450 O454 2.273 . S
Cd450 O458 2.277 . S
O451 C448 1.160 . S
O451 Cd452 2.203 . S
Cd452 O451 2.203 . S
Cd452 O454 2.411 . S
Cd452 O455 2.333 . S
Cd452 O456 2.352 . S
Cd452 O460 2.277 . S
Cd452 O461 2.356 . S
C453 O458 1.209 . S
C453 O460 1.226 . S
O454 Cd450 2.273 . S
O454 Cd452 2.411 . S
O454 C457 1.320 . S
O455 Cd452 2.333 . S
O455 C457 1.214 . S
O456 Cd452 2.352 . S
O456 C459 1.258 . S
C457 O454 1.320 . S
C457 O455 1.214 . S
O458 Cd450 2.277 . S
O458 C453 1.209 . S
C459 O456 1.258 . S
C459 O461 1.282 . S
O460 Cd452 2.277 . S
O460 C453 1.226 . S
O461 Cd452 2.356 . S
O461 C459 1.282 . S
C462 O463 1.306 . S
C462 O465 1.160 . S
O463 C462 1.306 . S
O463 Cd464 2.228 . S
Cd464 O463 2.228 . S
Cd464 O468 2.273 . S
Cd464 O472 2.277 . S
O465 C462 1.160 . S
O465 Cd466 2.203 . S
Cd466 O465 2.203 . S
Cd466 O468 2.411 . S
Cd466 O469 2.333 . S
Cd466 O470 2.352 . S
Cd466 O474 2.277 . S
Cd466 O475 2.356 . S
C467 O472 1.209 . S
C467 O474 1.226 . S
O468 Cd464 2.273 . S
O468 Cd466 2.411 . S
O468 C471 1.320 . S
O469 Cd466 2.333 . S
O469 C471 1.214 . S
O470 Cd466 2.352 . S
O470 C473 1.258 . S
C471 O468 1.320 . S
C471 O469 1.214 . S
O472 Cd464 2.277 . S
O472 C467 1.209 . S
C473 O470 1.258 . S
C473 O475 1.282 . S
O474 Cd466 2.277 . S
O474 C467 1.226 . S
O475 Cd466 2.356 . S
O475 C473 1.282 . S
C476 O477 1.306 . S
C476 O479 1.160 . S
O477 C476 1.306 . S
O477 Cd478 2.228 . S
Cd478 O477 2.228 . S
Cd478 O482 2.273 . S
Cd478 O486 2.277 . S
O479 C476 1.160 . S
O479 Cd480 2.203 . S
Cd480 O479 2.203 . S
Cd480 O482 2.411 . S
Cd480 O483 2.333 . S
Cd480 O484 2.352 . S
Cd480 O488 2.277 . S
Cd480 O489 2.356 . S
C481 O486 1.209 . S
C481 O488 1.226 . S
O482 Cd478 2.273 . S
O482 Cd480 2.411 . S
O482 C485 1.320 . S
O483 Cd480 2.333 . S
O483 C485 1.214 . S
O484 Cd480 2.352 . S
O484 C487 1.258 . S
C485 O482 1.320 . S
C485 O483 1.214 . S
O486 Cd478 2.277 . S
O486 C481 1.209 . S
C487 O484 1.258 . S
C487 O489 1.282 . S
O488 Cd480 2.277 . S
O488 C481 1.226 . S
O489 Cd480 2.356 . S
O489 C487 1.282 . S
C490 O491 1.306 . S
C490 O493 1.160 . S
O491 C490 1.306 . S
O491 Cd492 2.228 . S
Cd492 O491 2.228 . S
Cd492 O496 2.273 . S
Cd492 O500 2.277 . S
O493 C490 1.160 . S
O493 Cd494 2.203 . S
Cd494 O493 2.203 . S
Cd494 O496 2.411 . S
Cd494 O497 2.333 . S
Cd494 O498 2.352 . S
Cd494 O502 2.277 . S
Cd494 O503 2.356 . S
C495 O500 1.209 . S
C495 O502 1.226 . S
O496 Cd492 2.273 . S
O496 Cd494 2.411 . S
O496 C499 1.320 . S
O497 Cd494 2.333 . S
O497 C499 1.214 . S
O498 Cd494 2.352 . S
O498 C501 1.258 . S
C499 O496 1.320 . S
C499 O497 1.214 . S
O500 Cd492 2.277 . S
O500 C495 1.209 . S
C501 O498 1.258 . S
C501 O503 1.282 . S
O502 Cd494 2.277 . S
O502 C495 1.226 . S
O503 Cd494 2.356 . S
O503 C501 1.282 . S
C504 O505 1.306 . S
C504 O507 1.160 . S
O505 C504 1.306 . S
O505 Cd506 2.228 . S
Cd506 O505 2.228 . S
Cd506 O510 2.273 . S
Cd506 O514 2.277 . S
O507 C504 1.160 . S
O507 Cd508 2.203 . S
Cd508 O507 2.203 . S
Cd508 O510 2.411 . S
Cd508 O511 2.333 . S
Cd508 O512 2.352 . S
Cd508 O516 2.277 . S
Cd508 O517 2.356 . S
C509 O514 1.209 . S
C509 O516 1.226 . S
O510 Cd506 2.273 . S
O510 Cd508 2.411 . S
O510 C513 1.320 . S
O511 Cd508 2.333 . S
O511 C513 1.214 . S
O512 Cd508 2.352 . S
O512 C515 1.258 . S
C513 O510 1.320 . S
C513 O511 1.214 . S
O514 Cd506 2.277 . S
O514 C509 1.209 . S
C515 O512 1.258 . S
C515 O517 1.282 . S
O516 Cd508 2.277 . S
O516 C509 1.226 . S
O517 Cd508 2.356 . S
O517 C515 1.282 . S
C518 O519 1.306 . S
C518 O521 1.160 . S
O519 C518 1.306 . S
O519 Cd520 2.228 . S
Cd520 O519 2.228 . S
Cd520 O524 2.273 . S
Cd520 O528 2.277 . S
O521 C518 1.160 . S
O521 Cd522 2.203 . S
Cd522 O521 2.203 . S
Cd522 O524 2.411 . S
Cd522 O525 2.333 . S
Cd522 O526 2.352 . S
Cd522 O530 2.277 . S
Cd522 O531 2.356 . S
C523 O528 1.209 . S
C523 O530 1.226 . S
O524 Cd520 2.273 . S
O524 Cd522 2.411 . S
O524 C527 1.320 . S
O525 Cd522 2.333 . S
O525 C527 1.214 . S
O526 Cd522 2.352 . S
O526 C529 1.258 . S
C527 O524 1.320 . S
C527 O525 1.214 . S
O528 Cd520 2.277 . S
O528 C523 1.209 . S
C529 O526 1.258 . S
C529 O531 1.282 . S
O530 Cd522 2.277 . S
O530 C523 1.226 . S
O531 Cd522 2.356 . S
O531 C529 1.282 . S
C532 O533 1.306 . S
C532 O535 1.160 . S
O533 C532 1.306 . S
O533 Cd534 2.228 . S
Cd534 O533 2.228 . S
Cd534 O538 2.273 . S
Cd534 O542 2.277 . S
O535 C532 1.160 . S
O535 Cd536 2.203 . S
Cd536 O535 2.203 . S
Cd536 O538 2.411 . S
Cd536 O539 2.333 . S
Cd536 O540 2.352 . S
Cd536 O544 2.277 . S
Cd536 O545 2.356 . S
C537 O542 1.209 . S
C537 O544 1.226 . S
O538 Cd534 2.273 . S
O538 Cd536 2.411 . S
O538 C541 1.320 . S
O539 Cd536 2.333 . S
O539 C541 1.214 . S
O540 Cd536 2.352 . S
O540 C543 1.258 . S
C541 O538 1.320 . S
C541 O539 1.214 . S
O542 Cd534 2.277 . S
O542 C537 1.209 . S
C543 O540 1.258 . S
C543 O545 1.282 . S
O544 Cd536 2.277 . S
O544 C537 1.226 . S
O545 Cd536 2.356 . S
O545 C543 1.282 . S
C546 O547 1.306 . S
C546 O549 1.160 . S
O547 C546 1.306 . S
O547 Cd548 2.228 . S
Cd548 O547 2.228 . S
Cd548 O552 2.273 . S
Cd548 O556 2.277 . S
O549 C546 1.160 . S
O549 Cd550 2.203 . S
Cd550 O549 2.203 . S
Cd550 O552 2.411 . S
Cd550 O553 2.333 . S
Cd550 O554 2.352 . S
Cd550 O558 2.277 . S
Cd550 O559 2.356 . S
C551 O556 1.209 . S
C551 O558 1.226 . S
O552 Cd548 2.273 . S
O552 Cd550 2.411 . S
O552 C555 1.320 . S
O553 Cd550 2.333 . S
O553 C555 1.214 . S
O554 Cd550 2.352 . S
O554 C557 1.258 . S
C555 O552 1.320 . S
C555 O553 1.214 . S
O556 Cd548 2.277 . S
O556 C551 1.209 . S
C557 O554 1.258 . S
C557 O559 1.282 . S
O558 Cd550 2.277 . S
O558 C551 1.226 . S
O559 Cd550 2.356 . S
O559 C557 1.282 . S
C560 O561 1.306 . S
C560 O563 1.160 . S
O561 C560 1.306 . S
O561 Cd562 2.228 . S
Cd562 O561 2.228 . S
Cd562 O566 2.273 . S
Cd562 O570 2.277 . S
O563 C560 1.160 . S
O563 Cd564 2.203 . S
Cd564 O563 2.203 . S
Cd564 O566 2.411 . S
Cd564 O567 2.333 . S
Cd564 O568 2.352 . S
Cd564 O572 2.277 . S
Cd564 O573 2.356 . S
C565 O570 1.209 . S
C565 O572 1.226 . S
O566 Cd562 2.273 . S
O566 Cd564 2.411 . S
O566 C569 1.320 . S
O567 Cd564 2.333 . S
O567 C569 1.214 . S
O568 Cd564 2.352 . S
O568 C571 1.258 . S
C569 O566 1.320 . S
C569 O567 1.214 . S
O570 Cd562 2.277 . S
O570 C565 1.209 . S
C571 O568 1.258 . S
C571 O573 1.282 . S
O572 Cd564 2.277 . S
O572 C565 1.226 . S
O573 Cd564 2.356 . S
O573 C571 1.282 . S
C574 O575 1.306 . S
C574 O577 1.160 . S
O575 C574 1.306 . S
O575 Cd576 2.228 . S
Cd576 O575 2.228 . S
Cd576 O580 2.273 . S
Cd576 O584 2.277 . S
O577 C574 1.160 . S
O577 Cd578 2.203 . S
Cd578 O577 2.203 . S
Cd578 O580 2.411 . S
Cd578 O581 2.333 . S
Cd578 O582 2.352 . S
Cd578 O586 2.277 . S
Cd578 O587 2.356 . S
C579 O584 1.209 . S
C579 O586 1.226 . S
O580 Cd576 2.273 . S
O580 Cd578 2.411 . S
O580 C583 1.320 . S
O581 Cd578 2.333 . S
O581 C583 1.214 . S
O582 Cd578 2.352 . S
O582 C585 1.258 . S
C583 O580 1.320 . S
C583 O581 1.214 . S
O584 Cd576 2.277 . S
O584 C579 1.209 . S
C585 O582 1.258 . S
C585 O587 1.282 . S
O586 Cd578 2.277 . S
O586 C579 1.226 . S
O587 Cd578 2.356 . S
O587 C585 1.282 . S
C588 O589 1.306 . S
C588 O591 1.160 . S
O589 C588 1.306 . S
O589 Cd590 2.228 . S
Cd590 O589 2.228 . S
Cd590 O594 2.273 . S
Cd590 O598 2.277 . S
O591 C588 1.160 . S
O591 Cd592 2.203 . S
Cd592 O591 2.203 . S
Cd592 O594 2.411 . S
Cd592 O595 2.333 . S
Cd592 O596 2.352 . S
Cd592 O600 2.277 . S
Cd592 O601 2.356 . S
C593 O598 1.209 . S
C593 O600 1.226 . S
O594 Cd590 2.273 . S
O594 Cd592 2.411 . S
O594 C597 1.320 . S
O595 Cd592 2.333 . S
O595 C597 1.214 . S
O596 Cd592 2.352 . S
O596 C599 1.258 . S
C597 O594 1.320 . S
C597 O595 1.214 . S
O598 Cd590 2.277 . S
O598 C593 1.209 . S
C599 O596 1.258 . S
C599 O601 1.282 . S
O600 Cd592 2.277 . S
O600 C593 1.226 . S
O601 Cd592 2.356 . S
O601 C599 1.282 . S
C602 O603 1.306 . S
C602 O605 1.160 . S
O603 C602 1.306 . S
O603 Cd604 2.228 . S
Cd604 O603 2.228 . S
Cd604 O608 2.273 . S
Cd604 O612 2.277 . S
O605 C602 1.160 . S
O605 Cd606 2.203 . S
Cd606 O605 2.203 . S
Cd606 O608 2.411 . S
Cd606 O609 2.333 . S
Cd606 O610 2.352 . S
Cd606 O614 2.277 . S
Cd606 O615 2.356 . S
C607 O612 1.209 . S
C607 O614 1.226 . S
O608 Cd604 2.273 . S
O608 Cd606 2.411 . S
O608 C611 1.320 . S
O609 Cd606 2.333 . S
O609 C611 1.214 . S
O610 Cd606 2.352 . S
O610 C613 1.258 . S
C611 O608 1.320 . S
C611 O609 1.214 . S
O612 Cd604 2.277 . S
O612 C607 1.209 . S
C613 O610 1.258 . S
C613 O615 1.282 . S
O614 Cd606 2.277 . S
O614 C607 1.226 . S
O615 Cd606 2.356 . S
O615 C613 1.282 . S
C616 O617 1.306 . S
C616 O619 1.160 . S
O617 C616 1.306 . S
O617 Cd618 2.228 . S
Cd618 O617 2.228 . S
Cd618 O622 2.273 . S
Cd618 O626 2.277 . S
O619 C616 1.160 . S
O619 Cd620 2.203 . S
Cd620 O619 2.203 . S
Cd620 O622 2.411 . S
Cd620 O623 2.333 . S
Cd620 O624 2.352 . S
Cd620 O628 2.277 . S
Cd620 O629 2.356 . S
C621 O626 1.209 . S
C621 O628 1.226 . S
O622 Cd618 2.273 . S
O622 Cd620 2.411 . S
O622 C625 1.320 . S
O623 Cd620 2.333 . S
O623 C625 1.214 . S
O624 Cd620 2.352 . S
O624 C627 1.258 . S
C625 O622 1.320 . S
C625 O623 1.214 . S
O626 Cd618 2.277 . S
O626 C621 1.209 . S
C627 O624 1.258 . S
C627 O629 1.282 . S
O628 Cd620 2.277 . S
O628 C621 1.226 . S
O629 Cd620 2.356 . S
O629 C627 1.282 . S
C630 O631 1.306 . S
C630 O633 1.160 . S
O631 C630 1.306 . S
O631 Cd632 2.228 . S
Cd632 O631 2.228 . S
Cd632 O636 2.273 . S
Cd632 O640 2.277 . S
O633 C630 1.160 . S
O633 Cd634 2.203 . S
Cd634 O633 2.203 . S
Cd634 O636 2.411 . S
Cd634 O637 2.333 . S
Cd634 O638 2.352 . S
Cd634 O642 2.277 . S
Cd634 O643 2.356 . S
C635 O640 1.209 . S
C635 O642 1.226 . S
O636 Cd632 2.273 . S
O636 Cd634 2.411 . S
O636 C639 1.320 . S
O637 Cd634 2.333 . S
O637 C639 1.214 . S
O638 Cd634 2.352 . S
O638 C641 1.258 . S
C639 O636 1.320 . S
C639 O637 1.214 . S
O640 Cd632 2.277 . S
O640 C635 1.209 . S
C641 O638 1.258 . S
C641 O643 1.282 . S
O642 Cd634 2.277 . S
O642 C635 1.226 . S
O643 Cd634 2.356 . S
O643 C641 1.282 . S
C644 O645 1.306 . S
C644 O647 1.160 . S
O645 C644 1.306 . S
O645 Cd646 2.228 . S
Cd646 O645 2.228 . S
Cd646 O650 2.273 . S
Cd646 O654 2.277 . S
O647 C644 1.160 . S
O647 Cd648 2.203 . S
Cd648 O647 2.203 . S
Cd648 O650 2.411 . S
Cd648 O651 2.333 . S
Cd648 O652 2.352 . S
Cd648 O656 2.277 . S
Cd648 O657 2.356 . S
C649 O654 1.209 . S
C649 O656 1.226 . S
O650 Cd646 2.273 . S
O650 Cd648 2.411 . S
O650 C653 1.320 . S
O651 Cd648 2.333 . S
O651 C653 1.214 . S
O652 Cd648 2.352 . S
O652 C655 1.258 . S
C653 O650 1.320 . S
C653 O651 1.214 . S
O654 Cd646 2.277 . S
O654 C649 1.209 . S
C655 O652 1.258 . S
C655 O657 1.282 . S
O656 Cd648 2.277 . S
O656 C649 1.226 . S
O657 Cd648 2.356 . S
O657 C655 1.282 . S
C658 O659 1.306 . S
C658 O661 1.160 . S
O659 C658 1.306 . S
O659 Cd660 2.228 . S
Cd660 O659 2.228 . S
Cd660 O664 2.273 . S
Cd660 O668 2.277 . S
O661 C658 1.160 . S
O661 Cd662 2.203 . S
Cd662 O661 2.203 . S
Cd662 O664 2.411 . S
Cd662 O665 2.333 . S
Cd662 O666 2.352 . S
Cd662 O670 2.277 . S
Cd662 O671 2.356 . S
C663 O668 1.209 . S
C663 O670 1.226 . S
O664 Cd660 2.273 . S
O664 Cd662 2.411 . S
O664 C667 1.320 . S
O665 Cd662 2.333 . S
O665 C667 1.214 . S
O666 Cd662 2.352 . S
O666 C669 1.258 . S
C667 O664 1.320 . S
C667 O665 1.214 . S
O668 Cd660 2.277 . S
O668 C663 1.209 . S
C669 O666 1.258 . S
C669 O671 1.282 . S
O670 Cd662 2.277 . S
O670 C663 1.226 . S
O671 Cd662 2.356 . S
O671 C669 1.282 . S
C672 C673 1.391 . S
C672 C674 1.394 . S
C672 H688 0.931 . S
C673 C672 1.391 . S
C673 C677 1.376 . S
C674 C672 1.394 . S
C674 C675 1.369 . S
C674 C678 1.531 . S
C675 C674 1.369 . S
C675 C676 1.410 . S
C675 C683 1.503 . S
C676 C675 1.410 . S
C676 C677 1.392 . S
C676 C679 1.511 . S
C677 C673 1.376 . S
C677 C676 1.392 . S
C677 H689 0.929 . S
C678 C674 1.531 . S
C678 H690 0.960 . S
C678 H691 0.962 . S
C678 H692 0.960 . S
C679 C676 1.511 . S
C679 H693 0.961 . S
C679 H694 0.961 . S
C679 H695 0.961 . S
C680 C681 1.370 . S
C680 C682 1.363 . S
C680 H696 0.931 . S
C681 C680 1.370 . S
C681 C685 1.408 . S
C682 C680 1.363 . S
C682 C683 1.370 . S
C682 C686 1.524 . S
C683 C675 1.503 . S
C683 C682 1.370 . S
C683 C684 1.403 . S
C684 C683 1.403 . S
C684 C685 1.404 . S
C684 C687 1.539 . S
C685 C681 1.408 . S
C685 C684 1.404 . S
C685 H697 0.930 . S
C686 C682 1.524 . S
C686 H698 0.956 . S
C686 H699 0.961 . S
C686 H700 0.961 . S
C687 C684 1.539 . S
C687 H701 0.958 . S
C687 H702 0.961 . S
C687 H703 0.960 . S
H688 C672 0.931 . S
H689 C677 0.929 . S
H690 C678 0.960 . S
H691 C678 0.962 . S
H692 C678 0.960 . S
H693 C679 0.961 . S
H694 C679 0.961 . S
H695 C679 0.961 . S
H696 C680 0.931 . S
H697 C685 0.930 . S
H698 C686 0.956 . S
H699 C686 0.961 . S
H700 C686 0.961 . S
H701 C687 0.958 . S
H702 C687 0.961 . S
H703 C687 0.960 . S
C704 C705 1.391 . S
C704 C706 1.394 . S
C704 H720 0.931 . S
C705 C704 1.391 . S
C705 C709 1.376 . S
C706 C704 1.394 . S
C706 C707 1.369 1_455 S
C706 C710 1.531 1_455 S
C707 C706 1.369 1_655 S
C707 C708 1.410 1_655 S
C707 C715 1.503 . S
C708 C707 1.410 1_455 S
C708 C709 1.392 . S
C708 C711 1.511 1_455 S
C709 C705 1.376 . S
C709 C708 1.392 . S
C709 H721 0.929 . S
C710 C706 1.531 1_655 S
C710 H722 0.959 . S
C710 H723 0.962 1_655 S
C710 H724 0.961 1_655 S
C711 C708 1.511 1_655 S
C711 H725 0.961 . S
C711 H726 0.961 . S
C711 H727 0.961 . S
C712 C713 1.370 . S
C712 C714 1.363 . S
C712 H728 0.931 . S
C713 C712 1.370 . S
C713 C717 1.408 . S
C714 C712 1.363 . S
C714 C715 1.370 . S
C714 C718 1.524 . S
C715 C707 1.503 . S
C715 C714 1.370 . S
C715 C716 1.403 . S
C716 C715 1.403 . S
C716 C717 1.404 . S
C716 C719 1.539 . S
C717 C713 1.408 . S
C717 C716 1.404 . S
C717 H729 0.930 . S
C718 C714 1.524 . S
C718 H730 0.956 . S
C718 H731 0.961 . S
C718 H732 0.961 . S
C719 C716 1.539 . S
C719 H733 0.958 . S
C719 H734 0.961 . S
C719 H735 0.960 . S
H720 C704 0.931 . S
H721 C709 0.929 . S
H722 C710 0.959 . S
H723 C710 0.962 1_455 S
H724 C710 0.961 1_455 S
H725 C711 0.961 . S
H726 C711 0.961 . S
H727 C711 0.961 . S
H728 C712 0.931 . S
H729 C717 0.930 . S
H730 C718 0.956 . S
H731 C718 0.961 . S
H732 C718 0.961 . S
H733 C719 0.958 . S
H734 C719 0.961 . S
H735 C719 0.960 . S
C736 C737 1.391 . S
C736 C738 1.394 . S
C736 H752 0.931 . S
C737 C736 1.391 . S
C737 C741 1.376 . S
C738 C736 1.394 . S
C738 C739 1.369 . S
C738 C742 1.531 . S
C739 C738 1.369 . S
C739 C740 1.410 . S
C739 C747 1.503 . S
C740 C739 1.410 . S
C740 C741 1.392 . S
C740 C743 1.511 . S
C741 C737 1.376 . S
C741 C740 1.392 . S
C741 H753 0.929 . S
C742 C738 1.531 . S
C742 H754 0.960 . S
C742 H755 0.962 . S
C742 H756 0.960 . S
C743 C740 1.511 . S
C743 H757 0.961 . S
C743 H758 0.961 . S
C743 H759 0.961 . S
C744 C745 1.370 . S
C744 C746 1.363 . S
C744 H760 0.931 . S
C745 C744 1.370 . S
C745 C749 1.408 . S
C746 C744 1.363 . S
C746 C747 1.370 . S
C746 C750 1.524 . S
C747 C739 1.503 . S
C747 C746 1.370 . S
C747 C748 1.403 . S
C748 C747 1.403 . S
C748 C749 1.404 . S
C748 C751 1.539 . S
C749 C745 1.408 . S
C749 C748 1.404 . S
C749 H761 0.930 . S
C750 C746 1.524 . S
C750 H762 0.956 . S
C750 H763 0.961 . S
C750 H764 0.961 . S
C751 C748 1.539 . S
C751 H765 0.958 . S
C751 H766 0.961 . S
C751 H767 0.960 . S
H752 C736 0.931 . S
H753 C741 0.929 . S
H754 C742 0.960 . S
H755 C742 0.962 . S
H756 C742 0.960 . S
H757 C743 0.961 . S
H758 C743 0.961 . S
H759 C743 0.961 . S
H760 C744 0.931 . S
H761 C749 0.930 . S
H762 C750 0.956 . S
H763 C750 0.961 . S
H764 C750 0.961 . S
H765 C751 0.958 . S
H766 C751 0.961 . S
H767 C751 0.960 . S
C768 C769 1.391 . S
C768 C770 1.394 . S
C768 H784 0.931 . S
C769 C768 1.391 . S
C769 C773 1.376 . S
C770 C768 1.394 . S
C770 C771 1.369 . S
C770 C774 1.531 . S
C771 C770 1.369 . S
C771 C772 1.410 . S
C771 C779 1.503 . S
C772 C771 1.410 . S
C772 C773 1.392 . S
C772 C775 1.511 . S
C773 C769 1.376 . S
C773 C772 1.392 . S
C773 H785 0.929 . S
C774 C770 1.531 . S
C774 H786 0.960 . S
C774 H787 0.962 . S
C774 H788 0.960 . S
C775 C772 1.511 . S
C775 H789 0.961 . S
C775 H790 0.961 . S
C775 H791 0.961 . S
C776 C777 1.370 . S
C776 C778 1.363 . S
C776 H792 0.931 . S
C777 C776 1.370 . S
C777 C781 1.408 . S
C778 C776 1.363 . S
C778 C779 1.370 . S
C778 C782 1.524 . S
C779 C771 1.503 . S
C779 C778 1.370 . S
C779 C780 1.403 . S
C780 C779 1.403 . S
C780 C781 1.404 . S
C780 C783 1.539 . S
C781 C777 1.408 . S
C781 C780 1.404 . S
C781 H793 0.930 . S
C782 C778 1.524 . S
C782 H794 0.956 . S
C782 H795 0.961 . S
C782 H796 0.961 . S
C783 C780 1.539 . S
C783 H797 0.958 . S
C783 H798 0.961 . S
C783 H799 0.960 . S
H784 C768 0.931 . S
H785 C773 0.929 . S
H786 C774 0.960 . S
H787 C774 0.962 . S
H788 C774 0.960 . S
H789 C775 0.961 . S
H790 C775 0.961 . S
H791 C775 0.961 . S
H792 C776 0.931 . S
H793 C781 0.930 . S
H794 C782 0.956 . S
H795 C782 0.961 . S
H796 C782 0.961 . S
H797 C783 0.958 . S
H798 C783 0.961 . S
H799 C783 0.960 . S
C800 C801 1.391 . S
C800 C802 1.394 . S
C800 H816 0.931 . S
C801 C800 1.391 . S
C801 C805 1.376 . S
C802 C800 1.394 . S
C802 C803 1.369 . S
C802 C806 1.531 . S
C803 C802 1.369 . S
C803 C804 1.410 . S
C803 C811 1.503 . S
C804 C803 1.410 . S
C804 C805 1.392 . S
C804 C807 1.511 . S
C805 C801 1.376 . S
C805 C804 1.392 . S
C805 H817 0.929 . S
C806 C802 1.531 . S
C806 H818 0.960 . S
C806 H819 0.962 . S
C806 H820 0.960 . S
C807 C804 1.511 . S
C807 H821 0.961 . S
C807 H822 0.961 . S
C807 H823 0.961 . S
C808 C809 1.370 . S
C808 C810 1.363 . S
C808 H824 0.931 . S
C809 C808 1.370 . S
C809 C813 1.408 . S
C810 C808 1.363 . S
C810 C811 1.370 . S
C810 C814 1.524 . S
C811 C803 1.503 . S
C811 C810 1.370 . S
C811 C812 1.403 . S
C812 C811 1.403 . S
C812 C813 1.404 . S
C812 C815 1.539 . S
C813 C809 1.408 . S
C813 C812 1.404 . S
C813 H825 0.930 . S
C814 C810 1.524 . S
C814 H826 0.956 . S
C814 H827 0.961 . S
C814 H828 0.961 . S
C815 C812 1.539 . S
C815 H829 0.958 . S
C815 H830 0.961 . S
C815 H831 0.960 . S
H816 C800 0.931 . S
H817 C805 0.929 . S
H818 C806 0.960 . S
H819 C806 0.962 . S
H820 C806 0.960 . S
H821 C807 0.961 . S
H822 C807 0.961 . S
H823 C807 0.961 . S
H824 C808 0.931 . S
H825 C813 0.930 . S
H826 C814 0.956 . S
H827 C814 0.961 . S
H828 C814 0.961 . S
H829 C815 0.958 . S
H830 C815 0.961 . S
H831 C815 0.960 . S
C832 C833 1.391 . S
C832 C834 1.394 . S
C832 H848 0.931 . S
C833 C832 1.391 . S
C833 C837 1.376 . S
C834 C832 1.394 . S
C834 C835 1.369 . S
C834 C838 1.531 . S
C835 C834 1.369 . S
C835 C836 1.410 . S
C835 C843 1.503 . S
C836 C835 1.410 . S
C836 C837 1.392 . S
C836 C839 1.511 . S
C837 C833 1.376 . S
C837 C836 1.392 . S
C837 H849 0.929 . S
C838 C834 1.531 . S
C838 H850 0.960 . S
C838 H851 0.962 . S
C838 H852 0.960 . S
C839 C836 1.511 . S
C839 H853 0.961 . S
C839 H854 0.961 . S
C839 H855 0.961 . S
C840 C841 1.370 . S
C840 C842 1.363 . S
C840 H856 0.931 . S
C841 C840 1.370 . S
C841 C845 1.408 . S
C842 C840 1.363 . S
C842 C843 1.370 . S
C842 C846 1.524 . S
C843 C835 1.503 . S
C843 C842 1.370 . S
C843 C844 1.403 . S
C844 C843 1.403 . S
C844 C845 1.404 . S
C844 C847 1.539 . S
C845 C841 1.408 . S
C845 C844 1.404 . S
C845 H857 0.930 . S
C846 C842 1.524 . S
C846 H858 0.956 . S
C846 H859 0.961 . S
C846 H860 0.961 . S
C847 C844 1.539 . S
C847 H861 0.958 . S
C847 H862 0.961 . S
C847 H863 0.960 . S
H848 C832 0.931 . S
H849 C837 0.929 . S
H850 C838 0.960 . S
H851 C838 0.962 . S
H852 C838 0.960 . S
H853 C839 0.961 . S
H854 C839 0.961 . S
H855 C839 0.961 . S
H856 C840 0.931 . S
H857 C845 0.930 . S
H858 C846 0.956 . S
H859 C846 0.961 . S
H860 C846 0.961 . S
H861 C847 0.958 . S
H862 C847 0.961 . S
H863 C847 0.960 . S
C864 C865 1.391 . S
C864 C866 1.394 . S
C864 H880 0.931 . S
C865 C864 1.391 . S
C865 C869 1.376 . S
C866 C864 1.394 . S
C866 C867 1.369 . S
C866 C870 1.531 . S
C867 C866 1.369 . S
C867 C868 1.410 . S
C867 C875 1.503 . S
C868 C867 1.410 . S
C868 C869 1.392 . S
C868 C871 1.511 . S
C869 C865 1.376 . S
C869 C868 1.392 . S
C869 H881 0.929 . S
C870 C866 1.531 . S
C870 H882 0.960 . S
C870 H883 0.962 . S
C870 H884 0.960 . S
C871 C868 1.511 . S
C871 H885 0.961 . S
C871 H886 0.961 . S
C871 H887 0.961 . S
C872 C873 1.370 . S
C872 C874 1.363 . S
C872 H888 0.931 . S
C873 C872 1.370 . S
C873 C877 1.408 . S
C874 C872 1.363 . S
C874 C875 1.370 . S
C874 C878 1.524 . S
C875 C867 1.503 . S
C875 C874 1.370 . S
C875 C876 1.403 . S
C876 C875 1.403 . S
C876 C877 1.404 . S
C876 C879 1.539 . S
C877 C873 1.408 . S
C877 C876 1.404 . S
C877 H889 0.930 . S
C878 C874 1.524 . S
C878 H890 0.956 . S
C878 H891 0.961 . S
C878 H892 0.961 . S
C879 C876 1.539 . S
C879 H893 0.958 . S
C879 H894 0.961 . S
C879 H895 0.960 . S
H880 C864 0.931 . S
H881 C869 0.929 . S
H882 C870 0.960 . S
H883 C870 0.962 . S
H884 C870 0.960 . S
H885 C871 0.961 . S
H886 C871 0.961 . S
H887 C871 0.961 . S
H888 C872 0.931 . S
H889 C877 0.930 . S
H890 C878 0.956 . S
H891 C878 0.961 . S
H892 C878 0.961 . S
H893 C879 0.958 . S
H894 C879 0.961 . S
H895 C879 0.960 . S
C896 C897 1.391 . S
C896 C898 1.394 . S
C896 H912 0.931 . S
C897 C896 1.391 . S
C897 C901 1.376 . S
C898 C896 1.394 . S
C898 C899 1.369 1_455 S
C898 C902 1.529 1_455 S
C899 C898 1.369 1_655 S
C899 C900 1.410 1_655 S
C899 C907 1.503 . S
C900 C899 1.410 1_455 S
C900 C901 1.392 . S
C900 C903 1.511 1_455 S
C901 C897 1.376 . S
C901 C900 1.392 . S
C901 H913 0.929 . S
C902 C898 1.529 1_655 S
C902 H914 0.962 . S
C902 H915 0.963 . S
C902 H916 0.958 1_655 S
C903 C900 1.511 1_655 S
C903 H917 0.961 . S
C903 H918 0.961 . S
C903 H919 0.961 . S
C904 C905 1.370 . S
C904 C906 1.363 . S
C904 H920 0.931 . S
C905 C904 1.370 . S
C905 C909 1.408 . S
C906 C904 1.363 . S
C906 C907 1.370 . S
C906 C910 1.524 . S
C907 C899 1.503 . S
C907 C906 1.370 . S
C907 C908 1.403 . S
C908 C907 1.403 . S
C908 C909 1.404 . S
C908 C911 1.539 . S
C909 C905 1.408 . S
C909 C908 1.404 . S
C909 H921 0.930 . S
C910 C906 1.524 . S
C910 H922 0.956 . S
C910 H923 0.961 . S
C910 H924 0.961 . S
C911 C908 1.539 . S
C911 H925 0.958 . S
C911 H926 0.961 . S
C911 H927 0.960 . S
H912 C896 0.931 . S
H913 C901 0.929 . S
H914 C902 0.962 . S
H915 C902 0.963 . S
H916 C902 0.958 1_455 S
H917 C903 0.961 . S
H918 C903 0.961 . S
H919 C903 0.961 . S
H920 C904 0.931 . S
H921 C909 0.930 . S
H922 C910 0.956 . S
H923 C910 0.961 . S
H924 C910 0.961 . S
H925 C911 0.958 . S
H926 C911 0.961 . S
H927 C911 0.960 . S
C928 C929 1.391 . S
C928 C930 1.394 . S
C928 H944 0.931 . S
C929 C928 1.391 . S
C929 C933 1.376 . S
C930 C928 1.394 . S
C930 C931 1.369 . S
C930 C934 1.531 . S
C931 C930 1.369 . S
C931 C932 1.410 . S
C931 C939 1.503 . S
C932 C931 1.410 . S
C932 C933 1.392 . S
C932 C935 1.511 . S
C933 C929 1.376 . S
C933 C932 1.392 . S
C933 H945 0.929 . S
C934 C930 1.531 . S
C934 H946 0.960 . S
C934 H947 0.962 . S
C934 H948 0.960 . S
C935 C932 1.511 . S
C935 H949 0.961 . S
C935 H950 0.961 . S
C935 H951 0.961 . S
C936 C937 1.370 . S
C936 C938 1.363 . S
C936 H952 0.931 . S
C937 C936 1.370 . S
C937 C941 1.408 . S
C938 C936 1.363 . S
C938 C939 1.370 . S
C938 C942 1.524 . S
C939 C931 1.503 . S
C939 C938 1.370 . S
C939 C940 1.403 . S
C940 C939 1.403 . S
C940 C941 1.404 . S
C940 C943 1.539 . S
C941 C937 1.408 . S
C941 C940 1.404 . S
C941 H953 0.930 . S
C942 C938 1.524 . S
C942 H954 0.956 . S
C942 H955 0.961 . S
C942 H956 0.961 . S
C943 C940 1.539 . S
C943 H957 0.958 . S
C943 H958 0.961 . S
C943 H959 0.960 . S
H944 C928 0.931 . S
H945 C933 0.929 . S
H946 C934 0.960 . S
H947 C934 0.962 . S
H948 C934 0.960 . S
H949 C935 0.961 . S
H950 C935 0.961 . S
H951 C935 0.961 . S
H952 C936 0.931 . S
H953 C941 0.930 . S
H954 C942 0.956 . S
H955 C942 0.961 . S
H956 C942 0.961 . S
H957 C943 0.958 . S
H958 C943 0.961 . S
H959 C943 0.960 . S
C960 C961 1.391 . S
C960 C962 1.394 . S
C960 H976 0.931 . S
C961 C960 1.391 . S
C961 C965 1.376 . S
C962 C960 1.394 . S
C962 C963 1.369 . S
C962 C966 1.531 . S
C963 C962 1.369 . S
C963 C964 1.410 . S
C963 C971 1.503 . S
C964 C963 1.410 . S
C964 C965 1.392 . S
C964 C967 1.511 . S
C965 C961 1.376 . S
C965 C964 1.392 . S
C965 H977 0.929 . S
C966 C962 1.531 . S
C966 H978 0.960 . S
C966 H979 0.962 . S
C966 H980 0.960 . S
C967 C964 1.511 . S
C967 H981 0.961 . S
C967 H982 0.961 . S
C967 H983 0.961 . S
C968 C969 1.370 . S
C968 C970 1.363 . S
C968 H984 0.931 . S
C969 C968 1.370 . S
C969 C973 1.408 . S
C970 C968 1.363 . S
C970 C971 1.370 . S
C970 C974 1.524 . S
C971 C963 1.503 . S
C971 C970 1.370 . S
C971 C972 1.403 . S
C972 C971 1.403 . S
C972 C973 1.404 . S
C972 C975 1.539 . S
C973 C969 1.408 . S
C973 C972 1.404 . S
C973 H985 0.930 . S
C974 C970 1.524 . S
C974 H986 0.956 . S
C974 H987 0.961 . S
C974 H988 0.961 . S
C975 C972 1.539 . S
C975 H989 0.958 . S
C975 H990 0.961 . S
C975 H991 0.960 . S
H976 C960 0.931 . S
H977 C965 0.929 . S
H978 C966 0.960 . S
H979 C966 0.962 . S
H980 C966 0.960 . S
H981 C967 0.961 . S
H982 C967 0.961 . S
H983 C967 0.961 . S
H984 C968 0.931 . S
H985 C973 0.930 . S
H986 C974 0.956 . S
H987 C974 0.961 . S
H988 C974 0.961 . S
H989 C975 0.958 . S
H990 C975 0.961 . S
H991 C975 0.960 . S
C992 C993 1.391 . S
C992 C994 1.394 . S
C992 H1008 0.931 . S
C993 C992 1.391 . S
C993 C997 1.376 . S
C994 C992 1.394 . S
C994 C995 1.369 . S
C994 C998 1.531 . S
C995 C994 1.369 . S
C995 C996 1.410 . S
C995 C1003 1.503 . S
C996 C995 1.410 . S
C996 C997 1.392 . S
C996 C999 1.511 . S
C997 C993 1.376 . S
C997 C996 1.392 . S
C997 H1009 0.929 . S
C998 C994 1.531 . S
C998 H1010 0.960 . S
C998 H1011 0.962 . S
C998 H1012 0.960 . S
C999 C996 1.511 . S
C999 H1013 0.961 . S
C999 H1014 0.961 . S
C999 H1015 0.961 . S
C1000 C1001 1.370 . S
C1000 C1002 1.363 . S
C1000 H1016 0.931 . S
C1001 C1000 1.370 . S
C1001 C1005 1.408 . S
C1002 C1000 1.363 . S
C1002 C1003 1.370 . S
C1002 C1006 1.524 . S
C1003 C995 1.503 . S
C1003 C1002 1.370 . S
C1003 C1004 1.403 . S
C1004 C1003 1.403 . S
C1004 C1005 1.404 . S
C1004 C1007 1.539 . S
C1005 C1001 1.408 . S
C1005 C1004 1.404 . S
C1005 H1017 0.930 . S
C1006 C1002 1.524 . S
C1006 H1018 0.956 . S
C1006 H1019 0.961 . S
C1006 H1020 0.961 . S
C1007 C1004 1.539 . S
C1007 H1021 0.958 . S
C1007 H1022 0.961 . S
C1007 H1023 0.960 . S
H1008 C992 0.931 . S
H1009 C997 0.929 . S
H1010 C998 0.960 . S
H1011 C998 0.962 . S
H1012 C998 0.960 . S
H1013 C999 0.961 . S
H1014 C999 0.961 . S
H1015 C999 0.961 . S
H1016 C1000 0.931 . S
H1017 C1005 0.930 . S
H1018 C1006 0.956 . S
H1019 C1006 0.961 . S
H1020 C1006 0.961 . S
H1021 C1007 0.958 . S
H1022 C1007 0.961 . S
H1023 C1007 0.960 . S
C1024 C1025 1.391 . S
C1024 C1026 1.394 . S
C1024 H1040 0.931 . S
C1025 C1024 1.391 . S
C1025 C1029 1.376 . S
C1026 C1024 1.394 . S
C1026 C1027 1.369 1_556 S
C1026 C1030 1.531 1_556 S
C1027 C1026 1.369 1_554 S
C1027 C1028 1.410 1_554 S
C1027 C1035 1.503 . S
C1028 C1027 1.410 1_556 S
C1028 C1029 1.392 . S
C1028 C1031 1.511 1_556 S
C1029 C1025 1.376 . S
C1029 C1028 1.392 . S
C1029 H1041 0.929 . S
C1030 C1026 1.531 1_554 S
C1030 H1042 0.960 . S
C1030 H1043 0.962 . S
C1030 H1044 0.960 . S
C1031 C1028 1.511 1_554 S
C1031 H1045 0.961 1_554 S
C1031 H1046 0.961 . S
C1031 H1047 0.961 . S
C1032 C1033 1.370 . S
C1032 C1034 1.363 . S
C1032 H1048 0.931 . S
C1033 C1032 1.370 . S
C1033 C1037 1.408 . S
C1034 C1032 1.363 . S
C1034 C1035 1.370 . S
C1034 C1038 1.524 . S
C1035 C1027 1.503 . S
C1035 C1034 1.370 . S
C1035 C1036 1.403 . S
C1036 C1035 1.403 . S
C1036 C1037 1.404 . S
C1036 C1039 1.539 . S
C1037 C1033 1.408 . S
C1037 C1036 1.404 . S
C1037 H1049 0.930 . S
C1038 C1034 1.524 . S
C1038 H1050 0.956 . S
C1038 H1051 0.961 . S
C1038 H1052 0.961 . S
C1039 C1036 1.539 . S
C1039 H1053 0.958 . S
C1039 H1054 0.961 . S
C1039 H1055 0.960 . S
H1040 C1024 0.931 . S
H1041 C1029 0.929 . S
H1042 C1030 0.960 . S
H1043 C1030 0.962 . S
H1044 C1030 0.960 . S
H1045 C1031 0.961 1_556 S
H1046 C1031 0.961 . S
H1047 C1031 0.961 . S
H1048 C1032 0.931 . S
H1049 C1037 0.930 . S
H1050 C1038 0.956 . S
H1051 C1038 0.961 . S
H1052 C1038 0.961 . S
H1053 C1039 0.958 . S
H1054 C1039 0.961 . S
H1055 C1039 0.960 . S
C1056 C1057 1.391 . S
C1056 C1058 1.394 . S
C1056 H1072 0.931 . S
C1057 C1056 1.391 . S
C1057 C1061 1.376 . S
C1058 C1056 1.394 . S
C1058 C1059 1.369 . S
C1058 C1062 1.531 . S
C1059 C1058 1.369 . S
C1059 C1060 1.410 . S
C1059 C1067 1.503 . S
C1060 C1059 1.410 . S
C1060 C1061 1.392 . S
C1060 C1063 1.511 . S
C1061 C1057 1.376 . S
C1061 C1060 1.392 . S
C1061 H1073 0.929 . S
C1062 C1058 1.531 . S
C1062 H1074 0.960 . S
C1062 H1075 0.962 . S
C1062 H1076 0.960 . S
C1063 C1060 1.511 . S
C1063 H1077 0.961 . S
C1063 H1078 0.961 . S
C1063 H1079 0.961 . S
C1064 C1065 1.370 . S
C1064 C1066 1.363 . S
C1064 H1080 0.931 . S
C1065 C1064 1.370 . S
C1065 C1069 1.408 . S
C1066 C1064 1.363 . S
C1066 C1067 1.370 . S
C1066 C1070 1.524 . S
C1067 C1059 1.503 . S
C1067 C1066 1.370 . S
C1067 C1068 1.403 . S
C1068 C1067 1.403 . S
C1068 C1069 1.404 . S
C1068 C1071 1.539 . S
C1069 C1065 1.408 . S
C1069 C1068 1.404 . S
C1069 H1081 0.930 . S
C1070 C1066 1.524 . S
C1070 H1082 0.956 . S
C1070 H1083 0.961 . S
C1070 H1084 0.961 . S
C1071 C1068 1.539 . S
C1071 H1085 0.958 . S
C1071 H1086 0.961 . S
C1071 H1087 0.960 . S
H1072 C1056 0.931 . S
H1073 C1061 0.929 . S
H1074 C1062 0.960 . S
H1075 C1062 0.962 . S
H1076 C1062 0.960 . S
H1077 C1063 0.961 . S
H1078 C1063 0.961 . S
H1079 C1063 0.961 . S
H1080 C1064 0.931 . S
H1081 C1069 0.930 . S
H1082 C1070 0.956 . S
H1083 C1070 0.961 . S
H1084 C1070 0.961 . S
H1085 C1071 0.958 . S
H1086 C1071 0.961 . S
H1087 C1071 0.960 . S
C1088 C1089 1.391 . S
C1088 C1090 1.394 . S
C1088 H1104 0.931 . S
C1089 C1088 1.391 . S
C1089 C1093 1.376 . S
C1090 C1088 1.394 . S
C1090 C1091 1.369 . S
C1090 C1094 1.531 . S
C1091 C1090 1.369 . S
C1091 C1092 1.410 . S
C1091 C1099 1.503 . S
C1092 C1091 1.410 . S
C1092 C1093 1.392 . S
C1092 C1095 1.511 . S
C1093 C1089 1.376 . S
C1093 C1092 1.392 . S
C1093 H1105 0.929 . S
C1094 C1090 1.531 . S
C1094 H1106 0.960 . S
C1094 H1107 0.962 . S
C1094 H1108 0.960 . S
C1095 C1092 1.511 . S
C1095 H1109 0.961 . S
C1095 H1110 0.961 . S
C1095 H1111 0.961 . S
C1096 C1097 1.370 . S
C1096 C1098 1.363 . S
C1096 H1112 0.931 . S
C1097 C1096 1.370 . S
C1097 C1101 1.408 . S
C1098 C1096 1.363 . S
C1098 C1099 1.370 . S
C1098 C1102 1.524 . S
C1099 C1091 1.503 . S
C1099 C1098 1.370 . S
C1099 C1100 1.403 . S
C1100 C1099 1.403 . S
C1100 C1101 1.404 . S
C1100 C1103 1.539 . S
C1101 C1097 1.408 . S
C1101 C1100 1.404 . S
C1101 H1113 0.930 . S
C1102 C1098 1.524 . S
C1102 H1114 0.956 . S
C1102 H1115 0.961 . S
C1102 H1116 0.961 . S
C1103 C1100 1.539 . S
C1103 H1117 0.958 . S
C1103 H1118 0.961 . S
C1103 H1119 0.960 . S
H1104 C1088 0.931 . S
H1105 C1093 0.929 . S
H1106 C1094 0.960 . S
H1107 C1094 0.962 . S
H1108 C1094 0.960 . S
H1109 C1095 0.961 . S
H1110 C1095 0.961 . S
H1111 C1095 0.961 . S
H1112 C1096 0.931 . S
H1113 C1101 0.930 . S
H1114 C1102 0.956 . S
H1115 C1102 0.961 . S
H1116 C1102 0.961 . S
H1117 C1103 0.958 . S
H1118 C1103 0.961 . S
H1119 C1103 0.960 . S
C1120 C1121 1.391 . S
C1120 C1122 1.394 . S
C1120 H1136 0.931 . S
C1121 C1120 1.391 . S
C1121 C1125 1.376 . S
C1122 C1120 1.394 . S
C1122 C1123 1.369 . S
C1122 C1126 1.531 . S
C1123 C1122 1.369 . S
C1123 C1124 1.410 . S
C1123 C1131 1.503 . S
C1124 C1123 1.410 . S
C1124 C1125 1.392 . S
C1124 C1127 1.511 . S
C1125 C1121 1.376 . S
C1125 C1124 1.392 . S
C1125 H1137 0.929 . S
C1126 C1122 1.531 . S
C1126 H1138 0.960 . S
C1126 H1139 0.962 . S
C1126 H1140 0.960 . S
C1127 C1124 1.511 . S
C1127 H1141 0.961 . S
C1127 H1142 0.961 . S
C1127 H1143 0.961 . S
C1128 C1129 1.370 . S
C1128 C1130 1.363 . S
C1128 H1144 0.931 . S
C1129 C1128 1.370 . S
C1129 C1133 1.408 . S
C1130 C1128 1.363 . S
C1130 C1131 1.370 . S
C1130 C1134 1.524 . S
C1131 C1123 1.503 . S
C1131 C1130 1.370 . S
C1131 C1132 1.403 . S
C1132 C1131 1.403 . S
C1132 C1133 1.404 . S
C1132 C1135 1.539 . S
C1133 C1129 1.408 . S
C1133 C1132 1.404 . S
C1133 H1145 0.930 . S
C1134 C1130 1.524 . S
C1134 H1146 0.956 . S
C1134 H1147 0.961 . S
C1134 H1148 0.961 . S
C1135 C1132 1.539 . S
C1135 H1149 0.958 . S
C1135 H1150 0.961 . S
C1135 H1151 0.960 . S
H1136 C1120 0.931 . S
H1137 C1125 0.929 . S
H1138 C1126 0.960 . S
H1139 C1126 0.962 . S
H1140 C1126 0.960 . S
H1141 C1127 0.961 . S
H1142 C1127 0.961 . S
H1143 C1127 0.961 . S
H1144 C1128 0.931 . S
H1145 C1133 0.930 . S
H1146 C1134 0.956 . S
H1147 C1134 0.961 . S
H1148 C1134 0.961 . S
H1149 C1135 0.958 . S
H1150 C1135 0.961 . S
H1151 C1135 0.960 . S
C1152 C1153 1.391 . S
C1152 C1154 1.394 . S
C1152 H1168 0.931 . S
C1153 C1152 1.391 . S
C1153 C1157 1.376 . S
C1154 C1152 1.394 . S
C1154 C1155 1.369 1_554 S
C1154 C1158 1.531 1_554 S
C1155 C1154 1.369 1_556 S
C1155 C1156 1.397 1_556 S
C1155 C1163 1.503 . S
C1156 C1155 1.397 1_554 S
C1156 C1157 1.421 . S
C1156 C1159 1.497 1_554 S
C1157 C1153 1.376 . S
C1157 C1156 1.421 . S
C1157 H1169 0.929 . S
C1158 C1154 1.531 1_556 S
C1158 H1170 0.960 . S
C1158 H1171 0.962 . S
C1158 H1172 0.960 . S
C1159 C1156 1.497 1_556 S
C1159 H1173 0.961 . S
C1159 H1174 0.961 . S
C1159 H1175 0.961 . S
C1160 C1161 1.370 . S
C1160 C1162 1.363 . S
C1160 H1176 0.931 . S
C1161 C1160 1.370 . S
C1161 C1165 1.408 . S
C1162 C1160 1.363 . S
C1162 C1163 1.370 . S
C1162 C1166 1.524 . S
C1163 C1155 1.503 . S
C1163 C1162 1.370 . S
C1163 C1164 1.403 . S
C1164 C1163 1.403 . S
C1164 C1165 1.404 . S
C1164 C1167 1.539 . S
C1165 C1161 1.408 . S
C1165 C1164 1.404 . S
C1165 H1177 0.930 . S
C1166 C1162 1.524 . S
C1166 H1178 0.956 . S
C1166 H1179 0.961 . S
C1166 H1180 0.961 . S
C1167 C1164 1.539 . S
C1167 H1181 0.958 . S
C1167 H1182 0.961 . S
C1167 H1183 0.960 . S
H1168 C1152 0.931 . S
H1169 C1157 0.929 . S
H1170 C1158 0.960 . S
H1171 C1158 0.962 . S
H1172 C1158 0.960 . S
H1173 C1159 0.961 . S
H1174 C1159 0.961 . S
H1175 C1159 0.961 . S
H1176 C1160 0.931 . S
H1177 C1165 0.930 . S
H1178 C1166 0.956 . S
H1179 C1166 0.961 . S
H1180 C1166 0.961 . S
H1181 C1167 0.958 . S
H1182 C1167 0.961 . S
H1183 C1167 0.960 . S
C1184 C1185 1.391 . S
C1184 C1186 1.394 . S
C1184 H1200 0.931 . S
C1185 C1184 1.391 . S
C1185 C1189 1.376 . S
C1186 C1184 1.394 . S
C1186 C1187 1.369 . S
C1186 C1190 1.531 . S
C1187 C1186 1.369 . S
C1187 C1188 1.410 . S
C1187 C1195 1.503 . S
C1188 C1187 1.410 . S
C1188 C1189 1.392 . S
C1188 C1191 1.511 . S
C1189 C1185 1.376 . S
C1189 C1188 1.392 . S
C1189 H1201 0.929 . S
C1190 C1186 1.531 . S
C1190 H1202 0.960 . S
C1190 H1203 0.962 . S
C1190 H1204 0.960 . S
C1191 C1188 1.511 . S
C1191 H1205 0.961 . S
C1191 H1206 0.961 . S
C1191 H1207 0.961 . S
C1192 C1193 1.370 . S
C1192 C1194 1.363 . S
C1192 H1208 0.931 . S
C1193 C1192 1.370 . S
C1193 C1197 1.408 . S
C1194 C1192 1.363 . S
C1194 C1195 1.370 . S
C1194 C1198 1.524 . S
C1195 C1187 1.503 . S
C1195 C1194 1.370 . S
C1195 C1196 1.403 . S
C1196 C1195 1.403 . S
C1196 C1197 1.404 . S
C1196 C1199 1.539 . S
C1197 C1193 1.408 . S
C1197 C1196 1.404 . S
C1197 H1209 0.930 . S
C1198 C1194 1.524 . S
C1198 H1210 0.956 . S
C1198 H1211 0.961 . S
C1198 H1212 0.961 . S
C1199 C1196 1.539 . S
C1199 H1213 0.958 . S
C1199 H1214 0.961 . S
C1199 H1215 0.960 . S
H1200 C1184 0.931 . S
H1201 C1189 0.929 . S
H1202 C1190 0.960 . S
H1203 C1190 0.962 . S
H1204 C1190 0.960 . S
H1205 C1191 0.961 . S
H1206 C1191 0.961 . S
H1207 C1191 0.961 . S
H1208 C1192 0.931 . S
H1209 C1197 0.930 . S
H1210 C1198 0.956 . S
H1211 C1198 0.961 . S
H1212 C1198 0.961 . S
H1213 C1199 0.958 . S
H1214 C1199 0.961 . S
H1215 C1199 0.960 . S
C1216 C1217 1.391 . S
C1216 C1218 1.394 . S
C1216 H1232 0.931 . S
C1217 C1216 1.391 . S
C1217 C1221 1.376 . S
C1218 C1216 1.394 . S
C1218 C1219 1.369 . S
C1218 C1222 1.531 . S
C1219 C1218 1.369 . S
C1219 C1220 1.410 . S
C1219 C1227 1.503 . S
C1220 C1219 1.410 . S
C1220 C1221 1.392 . S
C1220 C1223 1.511 . S
C1221 C1217 1.376 . S
C1221 C1220 1.392 . S
C1221 H1233 0.929 . S
C1222 C1218 1.531 . S
C1222 H1234 0.960 . S
C1222 H1235 0.962 . S
C1222 H1236 0.960 . S
C1223 C1220 1.511 . S
C1223 H1237 0.961 . S
C1223 H1238 0.961 . S
C1223 H1239 0.961 . S
C1224 C1225 1.370 . S
C1224 C1226 1.363 . S
C1224 H1240 0.931 . S
C1225 C1224 1.370 . S
C1225 C1229 1.408 . S
C1226 C1224 1.363 . S
C1226 C1227 1.370 . S
C1226 C1230 1.524 . S
C1227 C1219 1.503 . S
C1227 C1226 1.370 . S
C1227 C1228 1.403 . S
C1228 C1227 1.403 . S
C1228 C1229 1.404 . S
C1228 C1231 1.539 . S
C1229 C1225 1.408 . S
C1229 C1228 1.404 . S
C1229 H1241 0.930 . S
C1230 C1226 1.524 . S
C1230 H1242 0.956 . S
C1230 H1243 0.961 . S
C1230 H1244 0.961 . S
C1231 C1228 1.539 . S
C1231 H1245 0.958 . S
C1231 H1246 0.961 . S
C1231 H1247 0.960 . S
H1232 C1216 0.931 . S
H1233 C1221 0.929 . S
H1234 C1222 0.960 . S
H1235 C1222 0.962 . S
H1236 C1222 0.960 . S
H1237 C1223 0.961 . S
H1238 C1223 0.961 . S
H1239 C1223 0.961 . S
H1240 C1224 0.931 . S
H1241 C1229 0.930 . S
H1242 C1230 0.956 . S
H1243 C1230 0.961 . S
H1244 C1230 0.961 . S
H1245 C1231 0.958 . S
H1246 C1231 0.961 . S
H1247 C1231 0.960 . S
C1248 C1249 1.391 . S
C1248 C1250 1.394 . S
C1248 H1264 0.931 . S
C1249 C1248 1.391 . S
C1249 C1253 1.376 . S
C1250 C1248 1.394 . S
C1250 C1251 1.369 . S
C1250 C1254 1.531 . S
C1251 C1250 1.369 . S
C1251 C1252 1.410 . S
C1251 C1259 1.503 . S
C1252 C1251 1.410 . S
C1252 C1253 1.392 . S
C1252 C1255 1.511 . S
C1253 C1249 1.376 . S
C1253 C1252 1.392 . S
C1253 H1265 0.929 . S
C1254 C1250 1.531 . S
C1254 H1266 0.960 . S
C1254 H1267 0.962 . S
C1254 H1268 0.960 . S
C1255 C1252 1.511 . S
C1255 H1269 0.961 . S
C1255 H1270 0.961 . S
C1255 H1271 0.961 . S
C1256 C1257 1.370 . S
C1256 C1258 1.363 . S
C1256 H1272 0.931 . S
C1257 C1256 1.370 . S
C1257 C1261 1.408 . S
C1258 C1256 1.363 . S
C1258 C1259 1.370 . S
C1258 C1262 1.524 . S
C1259 C1251 1.503 . S
C1259 C1258 1.370 . S
C1259 C1260 1.403 . S
C1260 C1259 1.403 . S
C1260 C1261 1.404 . S
C1260 C1263 1.539 . S
C1261 C1257 1.408 . S
C1261 C1260 1.404 . S
C1261 H1273 0.930 . S
C1262 C1258 1.524 . S
C1262 H1274 0.956 . S
C1262 H1275 0.961 . S
C1262 H1276 0.961 . S
C1263 C1260 1.539 . S
C1263 H1277 0.958 . S
C1263 H1278 0.961 . S
C1263 H1279 0.960 . S
H1264 C1248 0.931 . S
H1265 C1253 0.929 . S
H1266 C1254 0.960 . S
H1267 C1254 0.962 . S
H1268 C1254 0.960 . S
H1269 C1255 0.961 . S
H1270 C1255 0.961 . S
H1271 C1255 0.961 . S
H1272 C1256 0.931 . S
H1273 C1261 0.930 . S
H1274 C1262 0.956 . S
H1275 C1262 0.961 . S
H1276 C1262 0.961 . S
H1277 C1263 0.958 . S
H1278 C1263 0.961 . S
H1279 C1263 0.960 . S
C1280 C1281 1.391 . S
C1280 C1282 1.394 . S
C1280 H1296 0.931 . S
C1281 C1280 1.391 . S
C1281 C1285 1.376 . S
C1282 C1280 1.394 . S
C1282 C1283 1.369 . S
C1282 C1286 1.531 . S
C1283 C1282 1.369 . S
C1283 C1284 1.410 . S
C1283 C1291 1.503 . S
C1284 C1283 1.410 . S
C1284 C1285 1.392 . S
C1284 C1287 1.511 . S
C1285 C1281 1.376 . S
C1285 C1284 1.392 . S
C1285 H1297 0.929 . S
C1286 C1282 1.531 . S
C1286 H1298 0.960 . S
C1286 H1299 0.962 . S
C1286 H1300 0.960 . S
C1287 C1284 1.511 . S
C1287 H1301 0.961 . S
C1287 H1302 0.961 . S
C1287 H1303 0.961 . S
C1288 C1289 1.370 . S
C1288 C1290 1.363 . S
C1288 H1304 0.931 . S
C1289 C1288 1.370 . S
C1289 C1293 1.408 . S
C1290 C1288 1.363 . S
C1290 C1291 1.370 . S
C1290 C1294 1.524 . S
C1291 C1283 1.503 . S
C1291 C1290 1.370 . S
C1291 C1292 1.403 . S
C1292 C1291 1.403 . S
C1292 C1293 1.404 . S
C1292 C1295 1.539 . S
C1293 C1289 1.408 . S
C1293 C1292 1.404 . S
C1293 H1305 0.930 . S
C1294 C1290 1.524 . S
C1294 H1306 0.956 . S
C1294 H1307 0.961 . S
C1294 H1308 0.961 . S
C1295 C1292 1.539 . S
C1295 H1309 0.958 . S
C1295 H1310 0.961 . S
C1295 H1311 0.960 . S
H1296 C1280 0.931 . S
H1297 C1285 0.929 . S
H1298 C1286 0.960 . S
H1299 C1286 0.962 . S
H1300 C1286 0.960 . S
H1301 C1287 0.961 . S
H1302 C1287 0.961 . S
H1303 C1287 0.961 . S
H1304 C1288 0.931 . S
H1305 C1293 0.930 . S
H1306 C1294 0.956 . S
H1307 C1294 0.961 . S
H1308 C1294 0.961 . S
H1309 C1295 0.958 . S
H1310 C1295 0.961 . S
H1311 C1295 0.960 . S
C1312 C1313 1.391 . S
C1312 C1314 1.394 . S
C1312 H1328 0.931 . S
C1313 C1312 1.391 . S
C1313 C1317 1.376 . S
C1314 C1312 1.394 . S
C1314 C1315 1.369 . S
C1314 C1318 1.531 . S
C1315 C1314 1.369 . S
C1315 C1316 1.410 . S
C1315 C1323 1.503 . S
C1316 C1315 1.410 . S
C1316 C1317 1.392 . S
C1316 C1319 1.511 . S
C1317 C1313 1.376 . S
C1317 C1316 1.392 . S
C1317 H1329 0.929 . S
C1318 C1314 1.531 . S
C1318 H1330 0.960 . S
C1318 H1331 0.962 . S
C1318 H1332 0.960 . S
C1319 C1316 1.511 . S
C1319 H1333 0.961 . S
C1319 H1334 0.961 . S
C1319 H1335 0.961 . S
C1320 C1321 1.370 . S
C1320 C1322 1.363 1_545 S
C1320 H1336 0.931 . S
C1321 C1320 1.370 . S
C1321 C1325 1.408 . S
C1322 C1320 1.363 1_565 S
C1322 C1323 1.370 . S
C1322 C1326 1.524 . S
C1323 C1315 1.503 . S
C1323 C1322 1.370 . S
C1323 C1324 1.403 1_565 S
C1324 C1323 1.403 1_545 S
C1324 C1325 1.404 . S
C1324 C1327 1.539 . S
C1325 C1321 1.408 . S
C1325 C1324 1.404 . S
C1325 H1337 0.930 . S
C1326 C1322 1.524 . S
C1326 H1338 0.956 . S
C1326 H1339 0.961 . S
C1326 H1340 0.961 . S
C1327 C1324 1.539 . S
C1327 H1341 0.958 1_545 S
C1327 H1342 0.961 . S
C1327 H1343 0.960 1_545 S
H1328 C1312 0.931 . S
H1329 C1317 0.929 . S
H1330 C1318 0.960 . S
H1331 C1318 0.962 . S
H1332 C1318 0.960 . S
H1333 C1319 0.961 . S
H1334 C1319 0.961 . S
H1335 C1319 0.961 . S
H1336 C1320 0.931 . S
H1337 C1325 0.930 . S
H1338 C1326 0.956 . S
H1339 C1326 0.961 . S
H1340 C1326 0.961 . S
H1341 C1327 0.958 1_565 S
H1342 C1327 0.961 . S
H1343 C1327 0.960 1_565 S
C1344 C1345 1.391 . S
C1344 C1346 1.394 . S
C1344 H1360 0.931 . S
C1345 C1344 1.391 . S
C1345 C1349 1.376 . S
C1346 C1344 1.394 . S
C1346 C1347 1.369 . S
C1346 C1350 1.531 . S
C1347 C1346 1.369 . S
C1347 C1348 1.410 . S
C1347 C1355 1.503 . S
C1348 C1347 1.410 . S
C1348 C1349 1.392 . S
C1348 C1351 1.511 . S
C1349 C1345 1.376 . S
C1349 C1348 1.392 . S
C1349 H1361 0.929 . S
C1350 C1346 1.531 . S
C1350 H1362 0.960 . S
C1350 H1363 0.962 . S
C1350 H1364 0.960 . S
C1351 C1348 1.511 . S
C1351 H1365 0.961 . S
C1351 H1366 0.961 . S
C1351 H1367 0.961 . S
C1352 C1353 1.370 . S
C1352 C1354 1.363 . S
C1352 H1368 0.931 . S
C1353 C1352 1.370 . S
C1353 C1357 1.408 . S
C1354 C1352 1.363 . S
C1354 C1355 1.370 . S
C1354 C1358 1.524 . S
C1355 C1347 1.503 . S
C1355 C1354 1.370 . S
C1355 C1356 1.403 . S
C1356 C1355 1.403 . S
C1356 C1357 1.404 . S
C1356 C1359 1.539 . S
C1357 C1353 1.408 . S
C1357 C1356 1.404 . S
C1357 H1369 0.930 . S
C1358 C1354 1.524 . S
C1358 H1370 0.956 . S
C1358 H1371 0.961 . S
C1358 H1372 0.961 . S
C1359 C1356 1.539 . S
C1359 H1373 0.958 . S
C1359 H1374 0.961 . S
C1359 H1375 0.960 . S
H1360 C1344 0.931 . S
H1361 C1349 0.929 . S
H1362 C1350 0.960 . S
H1363 C1350 0.962 . S
H1364 C1350 0.960 . S
H1365 C1351 0.961 . S
H1366 C1351 0.961 . S
H1367 C1351 0.961 . S
H1368 C1352 0.931 . S
H1369 C1357 0.930 . S
H1370 C1358 0.956 . S
H1371 C1358 0.961 . S
H1372 C1358 0.961 . S
H1373 C1359 0.958 . S
H1374 C1359 0.961 . S
H1375 C1359 0.960 . S
C1376 C1377 1.391 . S
C1376 C1378 1.394 . S
C1376 H1392 0.931 . S
C1377 C1376 1.391 . S
C1377 C1381 1.376 . S
C1378 C1376 1.394 . S
C1378 C1379 1.369 . S
C1378 C1382 1.531 . S
C1379 C1378 1.369 . S
C1379 C1380 1.410 . S
C1379 C1387 1.503 . S
C1380 C1379 1.410 . S
C1380 C1381 1.392 . S
C1380 C1383 1.511 . S
C1381 C1377 1.376 . S
C1381 C1380 1.392 . S
C1381 H1393 0.929 . S
C1382 C1378 1.531 . S
C1382 H1394 0.960 . S
C1382 H1395 0.962 . S
C1382 H1396 0.960 . S
C1383 C1380 1.511 . S
C1383 H1397 0.961 . S
C1383 H1398 0.961 . S
C1383 H1399 0.961 . S
C1384 C1385 1.370 . S
C1384 C1386 1.363 . S
C1384 H1400 0.931 . S
C1385 C1384 1.370 . S
C1385 C1389 1.408 . S
C1386 C1384 1.363 . S
C1386 C1387 1.370 . S
C1386 C1390 1.524 . S
C1387 C1379 1.503 . S
C1387 C1386 1.370 . S
C1387 C1388 1.403 . S
C1388 C1387 1.403 . S
C1388 C1389 1.404 . S
C1388 C1391 1.539 . S
C1389 C1385 1.408 . S
C1389 C1388 1.404 . S
C1389 H1401 0.930 . S
C1390 C1386 1.524 . S
C1390 H1402 0.956 . S
C1390 H1403 0.961 . S
C1390 H1404 0.961 . S
C1391 C1388 1.539 . S
C1391 H1405 0.958 . S
C1391 H1406 0.961 . S
C1391 H1407 0.960 . S
H1392 C1376 0.931 . S
H1393 C1381 0.929 . S
H1394 C1382 0.960 . S
H1395 C1382 0.962 . S
H1396 C1382 0.960 . S
H1397 C1383 0.961 . S
H1398 C1383 0.961 . S
H1399 C1383 0.961 . S
H1400 C1384 0.931 . S
H1401 C1389 0.930 . S
H1402 C1390 0.956 . S
H1403 C1390 0.961 . S
H1404 C1390 0.961 . S
H1405 C1391 0.958 . S
H1406 C1391 0.961 . S
H1407 C1391 0.960 . S
C1408 C1409 1.391 . S
C1408 C1410 1.394 . S
C1408 H1424 0.931 . S
C1409 C1408 1.391 . S
C1409 C1413 1.376 . S
C1410 C1408 1.394 . S
C1410 C1411 1.369 . S
C1410 C1414 1.531 . S
C1411 C1410 1.369 . S
C1411 C1412 1.410 . S
C1411 C1419 1.503 . S
C1412 C1411 1.410 . S
C1412 C1413 1.392 . S
C1412 C1415 1.511 . S
C1413 C1409 1.376 . S
C1413 C1412 1.392 . S
C1413 H1425 0.929 . S
C1414 C1410 1.531 . S
C1414 H1426 0.960 . S
C1414 H1427 0.962 . S
C1414 H1428 0.960 . S
C1415 C1412 1.511 . S
C1415 H1429 0.961 . S
C1415 H1430 0.961 . S
C1415 H1431 0.961 . S
C1416 C1417 1.370 . S
C1416 C1418 1.363 . S
C1416 H1432 0.931 . S
C1417 C1416 1.370 . S
C1417 C1421 1.408 . S
C1418 C1416 1.363 . S
C1418 C1419 1.370 . S
C1418 C1422 1.524 . S
C1419 C1411 1.503 . S
C1419 C1418 1.370 . S
C1419 C1420 1.403 . S
C1420 C1419 1.403 . S
C1420 C1421 1.404 . S
C1420 C1423 1.539 . S
C1421 C1417 1.408 . S
C1421 C1420 1.404 . S
C1421 H1433 0.930 . S
C1422 C1418 1.524 . S
C1422 H1434 0.956 . S
C1422 H1435 0.961 . S
C1422 H1436 0.961 . S
C1423 C1420 1.539 . S
C1423 H1437 0.958 . S
C1423 H1438 0.961 . S
C1423 H1439 0.960 . S
H1424 C1408 0.931 . S
H1425 C1413 0.929 . S
H1426 C1414 0.960 . S
H1427 C1414 0.962 . S
H1428 C1414 0.960 . S
H1429 C1415 0.961 . S
H1430 C1415 0.961 . S
H1431 C1415 0.961 . S
H1432 C1416 0.931 . S
H1433 C1421 0.930 . S
H1434 C1422 0.956 . S
H1435 C1422 0.961 . S
H1436 C1422 0.961 . S
H1437 C1423 0.958 . S
H1438 C1423 0.961 . S
H1439 C1423 0.960 . S
C1440 C1441 1.391 . S
C1440 C1442 1.394 . S
C1440 H1456 0.931 . S
C1441 C1440 1.391 . S
C1441 C1445 1.376 . S
C1442 C1440 1.394 . S
C1442 C1443 1.369 . S
C1442 C1446 1.531 . S
C1443 C1442 1.369 . S
C1443 C1444 1.410 . S
C1443 C1451 1.503 . S
C1444 C1443 1.410 . S
C1444 C1445 1.392 . S
C1444 C1447 1.511 . S
C1445 C1441 1.376 . S
C1445 C1444 1.392 . S
C1445 H1457 0.929 . S
C1446 C1442 1.531 . S
C1446 H1458 0.960 . S
C1446 H1459 0.962 . S
C1446 H1460 0.960 . S
C1447 C1444 1.511 . S
C1447 H1461 0.961 . S
C1447 H1462 0.961 . S
C1447 H1463 0.961 . S
C1448 C1449 1.370 . S
C1448 C1450 1.363 . S
C1448 H1464 0.931 . S
C1449 C1448 1.370 . S
C1449 C1453 1.408 . S
C1450 C1448 1.363 . S
C1450 C1451 1.370 . S
C1450 C1454 1.524 . S
C1451 C1443 1.503 . S
C1451 C1450 1.370 . S
C1451 C1452 1.403 . S
C1452 C1451 1.403 . S
C1452 C1453 1.404 . S
C1452 C1455 1.539 . S
C1453 C1449 1.408 . S
C1453 C1452 1.404 . S
C1453 H1465 0.930 . S
C1454 C1450 1.524 . S
C1454 H1466 0.956 . S
C1454 H1467 0.961 . S
C1454 H1468 0.961 . S
C1455 C1452 1.539 . S
C1455 H1469 0.958 . S
C1455 H1470 0.961 . S
C1455 H1471 0.960 . S
H1456 C1440 0.931 . S
H1457 C1445 0.929 . S
H1458 C1446 0.960 . S
H1459 C1446 0.962 . S
H1460 C1446 0.960 . S
H1461 C1447 0.961 . S
H1462 C1447 0.961 . S
H1463 C1447 0.961 . S
H1464 C1448 0.931 . S
H1465 C1453 0.930 . S
H1466 C1454 0.956 . S
H1467 C1454 0.961 . S
H1468 C1454 0.961 . S
H1469 C1455 0.958 . S
H1470 C1455 0.961 . S
H1471 C1455 0.960 . S
C1472 C1473 1.391 . S
C1472 C1474 1.394 . S
C1472 H1488 0.931 . S
C1473 C1472 1.391 . S
C1473 C1477 1.376 . S
C1474 C1472 1.394 . S
C1474 C1475 1.369 1_655 S
C1474 C1478 1.531 . S
C1475 C1474 1.369 1_455 S
C1475 C1476 1.410 1_455 S
C1475 C1483 1.503 . S
C1476 C1475 1.410 1_655 S
C1476 C1477 1.392 . S
C1476 C1479 1.511 1_655 S
C1477 C1473 1.376 . S
C1477 C1476 1.392 . S
C1477 H1489 0.929 . S
C1478 C1474 1.531 . S
C1478 H1490 0.960 1_655 S
C1478 H1491 0.962 . S
C1478 H1492 0.960 . S
C1479 C1476 1.511 1_455 S
C1479 H1493 0.961 . S
C1479 H1494 0.961 . S
C1479 H1495 0.961 . S
C1480 C1481 1.370 . S
C1480 C1482 1.363 . S
C1480 H1496 0.931 . S
C1481 C1480 1.370 . S
C1481 C1485 1.408 . S
C1482 C1480 1.363 . S
C1482 C1483 1.370 . S
C1482 C1486 1.524 . S
C1483 C1475 1.503 . S
C1483 C1482 1.370 . S
C1483 C1484 1.403 . S
C1484 C1483 1.403 . S
C1484 C1485 1.404 . S
C1484 C1487 1.539 . S
C1485 C1481 1.408 . S
C1485 C1484 1.404 . S
C1485 H1497 0.930 . S
C1486 C1482 1.524 . S
C1486 H1498 0.956 . S
C1486 H1499 0.961 . S
C1486 H1500 0.961 . S
C1487 C1484 1.539 . S
C1487 H1501 0.958 . S
C1487 H1502 0.961 . S
C1487 H1503 0.960 . S
H1488 C1472 0.931 . S
H1489 C1477 0.929 . S
H1490 C1478 0.960 1_455 S
H1491 C1478 0.962 . S
H1492 C1478 0.960 . S
H1493 C1479 0.961 . S
H1494 C1479 0.961 . S
H1495 C1479 0.961 . S
H1496 C1480 0.931 . S
H1497 C1485 0.930 . S
H1498 C1486 0.956 . S
H1499 C1486 0.961 . S
H1500 C1486 0.961 . S
H1501 C1487 0.958 . S
H1502 C1487 0.961 . S
H1503 C1487 0.960 . S
C1504 C1505 1.391 . S
C1504 C1506 1.394 . S
C1504 H1520 0.931 . S
C1505 C1504 1.391 . S
C1505 C1509 1.376 . S
C1506 C1504 1.394 . S
C1506 C1507 1.369 . S
C1506 C1510 1.531 . S
C1507 C1506 1.369 . S
C1507 C1508 1.410 . S
C1507 C1515 1.503 . S
C1508 C1507 1.410 . S
C1508 C1509 1.392 . S
C1508 C1511 1.511 . S
C1509 C1505 1.376 . S
C1509 C1508 1.392 . S
C1509 H1521 0.929 . S
C1510 C1506 1.531 . S
C1510 H1522 0.960 . S
C1510 H1523 0.962 . S
C1510 H1524 0.960 . S
C1511 C1508 1.511 . S
C1511 H1525 0.961 . S
C1511 H1526 0.961 . S
C1511 H1527 0.961 . S
C1512 C1513 1.370 . S
C1512 C1514 1.363 . S
C1512 H1528 0.931 . S
C1513 C1512 1.370 . S
C1513 C1517 1.408 . S
C1514 C1512 1.363 . S
C1514 C1515 1.370 . S
C1514 C1518 1.524 . S
C1515 C1507 1.503 . S
C1515 C1514 1.370 . S
C1515 C1516 1.403 . S
C1516 C1515 1.403 . S
C1516 C1517 1.404 . S
C1516 C1519 1.539 . S
C1517 C1513 1.408 . S
C1517 C1516 1.404 . S
C1517 H1529 0.930 . S
C1518 C1514 1.524 . S
C1518 H1530 0.956 . S
C1518 H1531 0.961 . S
C1518 H1532 0.961 . S
C1519 C1516 1.539 . S
C1519 H1533 0.958 . S
C1519 H1534 0.961 . S
C1519 H1535 0.960 . S
H1520 C1504 0.931 . S
H1521 C1509 0.929 . S
H1522 C1510 0.960 . S
H1523 C1510 0.962 . S
H1524 C1510 0.960 . S
H1525 C1511 0.961 . S
H1526 C1511 0.961 . S
H1527 C1511 0.961 . S
H1528 C1512 0.931 . S
H1529 C1517 0.930 . S
H1530 C1518 0.956 . S
H1531 C1518 0.961 . S
H1532 C1518 0.961 . S
H1533 C1519 0.958 . S
H1534 C1519 0.961 . S
H1535 C1519 0.960 . S
C1536 C1537 1.391 . S
C1536 C1538 1.394 . S
C1536 H1552 0.931 . S
C1537 C1536 1.391 . S
C1537 C1541 1.376 . S
C1538 C1536 1.394 . S
C1538 C1539 1.369 . S
C1538 C1542 1.531 . S
C1539 C1538 1.369 . S
C1539 C1540 1.410 . S
C1539 C1547 1.503 . S
C1540 C1539 1.410 . S
C1540 C1541 1.392 . S
C1540 C1543 1.511 . S
C1541 C1537 1.376 . S
C1541 C1540 1.392 . S
C1541 H1553 0.929 . S
C1542 C1538 1.531 . S
C1542 H1554 0.960 . S
C1542 H1555 0.962 . S
C1542 H1556 0.960 . S
C1543 C1540 1.511 . S
C1543 H1557 0.961 . S
C1543 H1558 0.961 . S
C1543 H1559 0.961 . S
C1544 C1545 1.370 . S
C1544 C1546 1.363 . S
C1544 H1560 0.931 . S
C1545 C1544 1.370 . S
C1545 C1549 1.408 . S
C1546 C1544 1.363 . S
C1546 C1547 1.370 . S
C1546 C1550 1.524 . S
C1547 C1539 1.503 . S
C1547 C1546 1.370 . S
C1547 C1548 1.403 . S
C1548 C1547 1.403 . S
C1548 C1549 1.404 . S
C1548 C1551 1.539 . S
C1549 C1545 1.408 . S
C1549 C1548 1.404 . S
C1549 H1561 0.930 . S
C1550 C1546 1.524 . S
C1550 H1562 0.956 . S
C1550 H1563 0.961 . S
C1550 H1564 0.961 . S
C1551 C1548 1.539 . S
C1551 H1565 0.958 . S
C1551 H1566 0.961 . S
C1551 H1567 0.960 . S
H1552 C1536 0.931 . S
H1553 C1541 0.929 . S
H1554 C1542 0.960 . S
H1555 C1542 0.962 . S
H1556 C1542 0.960 . S
H1557 C1543 0.961 . S
H1558 C1543 0.961 . S
H1559 C1543 0.961 . S
H1560 C1544 0.931 . S
H1561 C1549 0.930 . S
H1562 C1550 0.956 . S
H1563 C1550 0.961 . S
H1564 C1550 0.961 . S
H1565 C1551 0.958 . S
H1566 C1551 0.961 . S
H1567 C1551 0.960 . S
C1568 C1569 1.391 . S
C1568 C1570 1.394 . S
C1568 H1584 0.931 . S
C1569 C1568 1.391 . S
C1569 C1573 1.376 . S
C1570 C1568 1.394 . S
C1570 C1571 1.369 . S
C1570 C1574 1.531 . S
C1571 C1570 1.369 . S
C1571 C1572 1.410 . S
C1571 C1579 1.503 . S
C1572 C1571 1.410 . S
C1572 C1573 1.392 . S
C1572 C1575 1.511 . S
C1573 C1569 1.376 . S
C1573 C1572 1.392 . S
C1573 H1585 0.929 . S
C1574 C1570 1.531 . S
C1574 H1586 0.960 . S
C1574 H1587 0.962 . S
C1574 H1588 0.960 . S
C1575 C1572 1.511 . S
C1575 H1589 0.961 . S
C1575 H1590 0.961 . S
C1575 H1591 0.961 . S
C1576 C1577 1.370 . S
C1576 C1578 1.363 . S
C1576 H1592 0.931 . S
C1577 C1576 1.370 . S
C1577 C1581 1.408 . S
C1578 C1576 1.363 . S
C1578 C1579 1.370 . S
C1578 C1582 1.524 . S
C1579 C1571 1.503 . S
C1579 C1578 1.370 . S
C1579 C1580 1.403 . S
C1580 C1579 1.403 . S
C1580 C1581 1.404 . S
C1580 C1583 1.539 . S
C1581 C1577 1.408 . S
C1581 C1580 1.404 . S
C1581 H1593 0.930 . S
C1582 C1578 1.524 . S
C1582 H1594 0.956 . S
C1582 H1595 0.961 . S
C1582 H1596 0.961 . S
C1583 C1580 1.539 . S
C1583 H1597 0.958 . S
C1583 H1598 0.961 . S
C1583 H1599 0.960 . S
H1584 C1568 0.931 . S
H1585 C1573 0.929 . S
H1586 C1574 0.960 . S
H1587 C1574 0.962 . S
H1588 C1574 0.960 . S
H1589 C1575 0.961 . S
H1590 C1575 0.961 . S
H1591 C1575 0.961 . S
H1592 C1576 0.931 . S
H1593 C1581 0.930 . S
H1594 C1582 0.956 . S
H1595 C1582 0.961 . S
H1596 C1582 0.961 . S
H1597 C1583 0.958 . S
H1598 C1583 0.961 . S
H1599 C1583 0.960 . S
C1600 C1601 1.391 . S
C1600 C1602 1.394 . S
C1600 H1616 0.931 . S
C1601 C1600 1.391 . S
C1601 C1605 1.376 . S
C1602 C1600 1.394 . S
C1602 C1603 1.369 . S
C1602 C1606 1.531 . S
C1603 C1602 1.369 . S
C1603 C1604 1.410 . S
C1603 C1611 1.503 . S
C1604 C1603 1.410 . S
C1604 C1605 1.392 . S
C1604 C1607 1.511 . S
C1605 C1601 1.376 . S
C1605 C1604 1.392 . S
C1605 H1617 0.929 . S
C1606 C1602 1.531 . S
C1606 H1618 0.960 . S
C1606 H1619 0.962 . S
C1606 H1620 0.960 . S
C1607 C1604 1.511 . S
C1607 H1621 0.961 . S
C1607 H1622 0.961 . S
C1607 H1623 0.961 . S
C1608 C1609 1.370 . S
C1608 C1610 1.363 . S
C1608 H1624 0.931 . S
C1609 C1608 1.370 . S
C1609 C1613 1.408 . S
C1610 C1608 1.363 . S
C1610 C1611 1.370 . S
C1610 C1614 1.524 . S
C1611 C1603 1.503 . S
C1611 C1610 1.370 . S
C1611 C1612 1.403 . S
C1612 C1611 1.403 . S
C1612 C1613 1.404 . S
C1612 C1615 1.539 . S
C1613 C1609 1.408 . S
C1613 C1612 1.404 . S
C1613 H1625 0.930 . S
C1614 C1610 1.524 . S
C1614 H1626 0.956 . S
C1614 H1627 0.961 . S
C1614 H1628 0.961 . S
C1615 C1612 1.539 . S
C1615 H1629 0.958 . S
C1615 H1630 0.961 . S
C1615 H1631 0.960 . S
H1616 C1600 0.931 . S
H1617 C1605 0.929 . S
H1618 C1606 0.960 . S
H1619 C1606 0.962 . S
H1620 C1606 0.960 . S
H1621 C1607 0.961 . S
H1622 C1607 0.961 . S
H1623 C1607 0.961 . S
H1624 C1608 0.931 . S
H1625 C1613 0.930 . S
H1626 C1614 0.956 . S
H1627 C1614 0.961 . S
H1628 C1614 0.961 . S
H1629 C1615 0.958 . S
H1630 C1615 0.961 . S
H1631 C1615 0.960 . S
C1632 C1633 1.391 . S
C1632 C1634 1.394 . S
C1632 H1648 0.931 . S
C1633 C1632 1.391 . S
C1633 C1637 1.376 . S
C1634 C1632 1.394 . S
C1634 C1635 1.369 . S
C1634 C1638 1.531 . S
C1635 C1634 1.369 . S
C1635 C1636 1.410 . S
C1635 C1643 1.503 . S
C1636 C1635 1.410 . S
C1636 C1637 1.392 . S
C1636 C1639 1.511 . S
C1637 C1633 1.376 . S
C1637 C1636 1.392 . S
C1637 H1649 0.929 . S
C1638 C1634 1.531 . S
C1638 H1650 0.960 . S
C1638 H1651 0.962 . S
C1638 H1652 0.960 . S
C1639 C1636 1.511 . S
C1639 H1653 0.961 . S
C1639 H1654 0.961 . S
C1639 H1655 0.961 . S
C1640 C1641 1.370 . S
C1640 C1642 1.363 . S
C1640 H1656 0.931 . S
C1641 C1640 1.370 . S
C1641 C1645 1.408 . S
C1642 C1640 1.363 . S
C1642 C1643 1.370 . S
C1642 C1646 1.524 . S
C1643 C1635 1.503 . S
C1643 C1642 1.370 . S
C1643 C1644 1.403 . S
C1644 C1643 1.403 . S
C1644 C1645 1.404 . S
C1644 C1647 1.539 . S
C1645 C1641 1.408 . S
C1645 C1644 1.404 . S
C1645 H1657 0.930 . S
C1646 C1642 1.524 . S
C1646 H1658 0.956 . S
C1646 H1659 0.961 . S
C1646 H1660 0.961 . S
C1647 C1644 1.539 . S
C1647 H1661 0.958 . S
C1647 H1662 0.961 . S
C1647 H1663 0.960 . S
H1648 C1632 0.931 . S
H1649 C1637 0.929 . S
H1650 C1638 0.960 . S
H1651 C1638 0.962 . S
H1652 C1638 0.960 . S
H1653 C1639 0.961 . S
H1654 C1639 0.961 . S
H1655 C1639 0.961 . S
H1656 C1640 0.931 . S
H1657 C1645 0.930 . S
H1658 C1646 0.956 . S
H1659 C1646 0.961 . S
H1660 C1646 0.961 . S
H1661 C1647 0.958 . S
H1662 C1647 0.961 . S
H1663 C1647 0.960 . S
C1664 C1665 1.391 . S
C1664 C1666 1.394 . S
C1664 H1680 0.931 . S
C1665 C1664 1.391 . S
C1665 C1669 1.376 . S
C1666 C1664 1.394 . S
C1666 C1667 1.369 . S
C1666 C1670 1.531 . S
C1667 C1666 1.369 . S
C1667 C1668 1.410 . S
C1667 C1675 1.503 . S
C1668 C1667 1.410 . S
C1668 C1669 1.392 . S
C1668 C1671 1.511 . S
C1669 C1665 1.376 . S
C1669 C1668 1.392 . S
C1669 H1681 0.929 . S
C1670 C1666 1.531 . S
C1670 H1682 0.960 . S
C1670 H1683 0.962 . S
C1670 H1684 0.960 . S
C1671 C1668 1.511 . S
C1671 H1685 0.961 . S
C1671 H1686 0.961 . S
C1671 H1687 0.961 . S
C1672 C1673 1.370 . S
C1672 C1674 1.363 . S
C1672 H1688 0.931 . S
C1673 C1672 1.370 . S
C1673 C1677 1.408 . S
C1674 C1672 1.363 . S
C1674 C1675 1.370 1_655 S
C1674 C1678 1.524 1_655 S
C1675 C1667 1.503 . S
C1675 C1674 1.370 1_455 S
C1675 C1676 1.403 . S
C1676 C1675 1.403 . S
C1676 C1677 1.404 1_455 S
C1676 C1679 1.539 . S
C1677 C1673 1.408 . S
C1677 C1676 1.404 1_655 S
C1677 H1689 0.930 . S
C1678 C1674 1.524 1_455 S
C1678 H1690 0.956 . S
C1678 H1691 0.961 . S
C1678 H1692 0.961 1_455 S
C1679 C1676 1.539 . S
C1679 H1693 0.958 . S
C1679 H1694 0.961 . S
C1679 H1695 0.960 . S
H1680 C1664 0.931 . S
H1681 C1669 0.929 . S
H1682 C1670 0.960 . S
H1683 C1670 0.962 . S
H1684 C1670 0.960 . S
H1685 C1671 0.961 . S
H1686 C1671 0.961 . S
H1687 C1671 0.961 . S
H1688 C1672 0.931 . S
H1689 C1677 0.930 . S
H1690 C1678 0.956 . S
H1691 C1678 0.961 . S
H1692 C1678 0.961 1_655 S
H1693 C1679 0.958 . S
H1694 C1679 0.961 . S
H1695 C1679 0.960 . S
C1696 C1697 1.391 . S
C1696 C1698 1.394 . S
C1696 H1712 0.931 . S
C1697 C1696 1.391 . S
C1697 C1701 1.376 . S
C1698 C1696 1.394 . S
C1698 C1699 1.369 . S
C1698 C1702 1.531 . S
C1699 C1698 1.369 . S
C1699 C1700 1.410 . S
C1699 C1707 1.503 . S
C1700 C1699 1.410 . S
C1700 C1701 1.392 . S
C1700 C1703 1.511 . S
C1701 C1697 1.376 . S
C1701 C1700 1.392 . S
C1701 H1713 0.929 . S
C1702 C1698 1.531 . S
C1702 H1714 0.960 . S
C1702 H1715 0.962 . S
C1702 H1716 0.960 . S
C1703 C1700 1.511 . S
C1703 H1717 0.961 . S
C1703 H1718 0.961 . S
C1703 H1719 0.961 . S
C1704 C1705 1.370 . S
C1704 C1706 1.363 . S
C1704 H1720 0.931 . S
C1705 C1704 1.370 . S
C1705 C1709 1.408 . S
C1706 C1704 1.363 . S
C1706 C1707 1.370 . S
C1706 C1710 1.524 . S
C1707 C1699 1.503 . S
C1707 C1706 1.370 . S
C1707 C1708 1.403 . S
C1708 C1707 1.403 . S
C1708 C1709 1.404 . S
C1708 C1711 1.539 . S
C1709 C1705 1.408 . S
C1709 C1708 1.404 . S
C1709 H1721 0.930 . S
C1710 C1706 1.524 . S
C1710 H1722 0.956 . S
C1710 H1723 0.961 . S
C1710 H1724 0.961 . S
C1711 C1708 1.539 . S
C1711 H1725 0.958 . S
C1711 H1726 0.961 . S
C1711 H1727 0.960 . S
H1712 C1696 0.931 . S
H1713 C1701 0.929 . S
H1714 C1702 0.960 . S
H1715 C1702 0.962 . S
H1716 C1702 0.960 . S
H1717 C1703 0.961 . S
H1718 C1703 0.961 . S
H1719 C1703 0.961 . S
H1720 C1704 0.931 . S
H1721 C1709 0.930 . S
H1722 C1710 0.956 . S
H1723 C1710 0.961 . S
H1724 C1710 0.961 . S
H1725 C1711 0.958 . S
H1726 C1711 0.961 . S
H1727 C1711 0.960 . S
C1728 C1729 1.391 . S
C1728 C1730 1.394 . S
C1728 H1744 0.931 . S
C1729 C1728 1.391 . S
C1729 C1733 1.376 . S
C1730 C1728 1.394 . S
C1730 C1731 1.369 . S
C1730 C1734 1.531 . S
C1731 C1730 1.369 . S
C1731 C1732 1.410 . S
C1731 C1739 1.503 . S
C1732 C1731 1.410 . S
C1732 C1733 1.392 . S
C1732 C1735 1.511 . S
C1733 C1729 1.376 . S
C1733 C1732 1.392 . S
C1733 H1745 0.929 . S
C1734 C1730 1.531 . S
C1734 H1746 0.960 . S
C1734 H1747 0.962 . S
C1734 H1748 0.960 . S
C1735 C1732 1.511 . S
C1735 H1749 0.961 . S
C1735 H1750 0.961 . S
C1735 H1751 0.961 . S
C1736 C1737 1.370 . S
C1736 C1738 1.363 . S
C1736 H1752 0.931 . S
C1737 C1736 1.370 . S
C1737 C1741 1.408 . S
C1738 C1736 1.363 . S
C1738 C1739 1.370 . S
C1738 C1742 1.524 . S
C1739 C1731 1.503 . S
C1739 C1738 1.370 . S
C1739 C1740 1.403 . S
C1740 C1739 1.403 . S
C1740 C1741 1.404 . S
C1740 C1743 1.539 . S
C1741 C1737 1.408 . S
C1741 C1740 1.404 . S
C1741 H1753 0.930 . S
C1742 C1738 1.524 . S
C1742 H1754 0.956 . S
C1742 H1755 0.961 . S
C1742 H1756 0.961 . S
C1743 C1740 1.539 . S
C1743 H1757 0.958 . S
C1743 H1758 0.961 . S
C1743 H1759 0.960 . S
H1744 C1728 0.931 . S
H1745 C1733 0.929 . S
H1746 C1734 0.960 . S
H1747 C1734 0.962 . S
H1748 C1734 0.960 . S
H1749 C1735 0.961 . S
H1750 C1735 0.961 . S
H1751 C1735 0.961 . S
H1752 C1736 0.931 . S
H1753 C1741 0.930 . S
H1754 C1742 0.956 . S
H1755 C1742 0.961 . S
H1756 C1742 0.961 . S
H1757 C1743 0.958 . S
H1758 C1743 0.961 . S
H1759 C1743 0.960 . S
C1760 C1761 1.391 . S
C1760 C1762 1.394 . S
C1760 H1776 0.931 . S
C1761 C1760 1.391 . S
C1761 C1765 1.376 . S
C1762 C1760 1.394 . S
C1762 C1763 1.369 . S
C1762 C1766 1.531 . S
C1763 C1762 1.369 . S
C1763 C1764 1.410 . S
C1763 C1771 1.503 . S
C1764 C1763 1.410 . S
C1764 C1765 1.392 . S
C1764 C1767 1.511 . S
C1765 C1761 1.376 . S
C1765 C1764 1.392 . S
C1765 H1777 0.929 . S
C1766 C1762 1.531 . S
C1766 H1778 0.960 . S
C1766 H1779 0.962 . S
C1766 H1780 0.960 . S
C1767 C1764 1.511 . S
C1767 H1781 0.961 . S
C1767 H1782 0.961 . S
C1767 H1783 0.961 . S
C1768 C1769 1.370 . S
C1768 C1770 1.363 . S
C1768 H1784 0.931 . S
C1769 C1768 1.370 . S
C1769 C1773 1.408 . S
C1770 C1768 1.363 . S
C1770 C1771 1.370 . S
C1770 C1774 1.524 . S
C1771 C1763 1.503 . S
C1771 C1770 1.370 . S
C1771 C1772 1.403 . S
C1772 C1771 1.403 . S
C1772 C1773 1.404 . S
C1772 C1775 1.539 . S
C1773 C1769 1.408 . S
C1773 C1772 1.404 . S
C1773 H1785 0.930 . S
C1774 C1770 1.524 . S
C1774 H1786 0.956 . S
C1774 H1787 0.961 . S
C1774 H1788 0.961 . S
C1775 C1772 1.539 . S
C1775 H1789 0.958 . S
C1775 H1790 0.961 . S
C1775 H1791 0.960 . S
H1776 C1760 0.931 . S
H1777 C1765 0.929 . S
H1778 C1766 0.960 . S
H1779 C1766 0.962 . S
H1780 C1766 0.960 . S
H1781 C1767 0.961 . S
H1782 C1767 0.961 . S
H1783 C1767 0.961 . S
H1784 C1768 0.931 . S
H1785 C1773 0.930 . S
H1786 C1774 0.956 . S
H1787 C1774 0.961 . S
H1788 C1774 0.961 . S
H1789 C1775 0.958 . S
H1790 C1775 0.961 . S
H1791 C1775 0.960 . S
C1792 C1793 1.391 . S
C1792 C1794 1.394 . S
C1792 H1808 0.931 . S
C1793 C1792 1.391 . S
C1793 C1797 1.376 . S
C1794 C1792 1.394 . S
C1794 C1795 1.369 . S
C1794 C1798 1.531 . S
C1795 C1794 1.369 . S
C1795 C1796 1.410 . S
C1795 C1803 1.503 . S
C1796 C1795 1.410 . S
C1796 C1797 1.392 . S
C1796 C1799 1.511 . S
C1797 C1793 1.376 . S
C1797 C1796 1.392 . S
C1797 H1809 0.929 . S
C1798 C1794 1.531 . S
C1798 H1810 0.960 . S
C1798 H1811 0.962 . S
C1798 H1812 0.960 . S
C1799 C1796 1.511 . S
C1799 H1813 0.961 . S
C1799 H1814 0.961 . S
C1799 H1815 0.961 . S
C1800 C1801 1.370 . S
C1800 C1802 1.363 . S
C1800 H1816 0.931 . S
C1801 C1800 1.370 . S
C1801 C1805 1.408 . S
C1802 C1800 1.363 . S
C1802 C1803 1.370 1_554 S
C1802 C1806 1.524 1_554 S
C1803 C1795 1.503 . S
C1803 C1802 1.370 1_556 S
C1803 C1804 1.403 1_556 S
C1804 C1803 1.403 1_554 S
C1804 C1805 1.404 . S
C1804 C1807 1.539 . S
C1805 C1801 1.408 . S
C1805 C1804 1.404 . S
C1805 H1817 0.930 . S
C1806 C1802 1.524 1_556 S
C1806 H1818 0.956 . S
C1806 H1819 0.961 . S
C1806 H1820 0.961 . S
C1807 C1804 1.539 . S
C1807 H1821 0.958 . S
C1807 H1822 0.961 . S
C1807 H1823 0.960 1_554 S
H1808 C1792 0.931 . S
H1809 C1797 0.929 . S
H1810 C1798 0.960 . S
H1811 C1798 0.962 . S
H1812 C1798 0.960 . S
H1813 C1799 0.961 . S
H1814 C1799 0.961 . S
H1815 C1799 0.961 . S
H1816 C1800 0.931 . S
H1817 C1805 0.930 . S
H1818 C1806 0.956 . S
H1819 C1806 0.961 . S
H1820 C1806 0.961 . S
H1821 C1807 0.958 . S
H1822 C1807 0.961 . S
H1823 C1807 0.960 1_556 S
C1824 C1825 1.391 . S
C1824 C1826 1.394 . S
C1824 H1840 0.931 . S
C1825 C1824 1.391 . S
C1825 C1829 1.376 . S
C1826 C1824 1.394 . S
C1826 C1827 1.369 . S
C1826 C1830 1.531 . S
C1827 C1826 1.369 . S
C1827 C1828 1.410 . S
C1827 C1835 1.503 . S
C1828 C1827 1.410 . S
C1828 C1829 1.392 . S
C1828 C1831 1.511 . S
C1829 C1825 1.376 . S
C1829 C1828 1.392 . S
C1829 H1841 0.929 . S
C1830 C1826 1.531 . S
C1830 H1842 0.960 . S
C1830 H1843 0.962 . S
C1830 H1844 0.960 . S
C1831 C1828 1.511 . S
C1831 H1845 0.961 . S
C1831 H1846 0.961 . S
C1831 H1847 0.961 . S
C1832 C1833 1.370 . S
C1832 C1834 1.363 . S
C1832 H1848 0.931 . S
C1833 C1832 1.370 . S
C1833 C1837 1.408 . S
C1834 C1832 1.363 . S
C1834 C1835 1.370 . S
C1834 C1838 1.524 . S
C1835 C1827 1.503 . S
C1835 C1834 1.370 . S
C1835 C1836 1.403 . S
C1836 C1835 1.403 . S
C1836 C1837 1.404 . S
C1836 C1839 1.539 . S
C1837 C1833 1.408 . S
C1837 C1836 1.404 . S
C1837 H1849 0.930 . S
C1838 C1834 1.524 . S
C1838 H1850 0.956 . S
C1838 H1851 0.961 . S
C1838 H1852 0.961 . S
C1839 C1836 1.539 . S
C1839 H1853 0.958 . S
C1839 H1854 0.961 . S
C1839 H1855 0.960 . S
H1840 C1824 0.931 . S
H1841 C1829 0.929 . S
H1842 C1830 0.960 . S
H1843 C1830 0.962 . S
H1844 C1830 0.960 . S
H1845 C1831 0.961 . S
H1846 C1831 0.961 . S
H1847 C1831 0.961 . S
H1848 C1832 0.931 . S
H1849 C1837 0.930 . S
H1850 C1838 0.956 . S
H1851 C1838 0.961 . S
H1852 C1838 0.961 . S
H1853 C1839 0.958 . S
H1854 C1839 0.961 . S
H1855 C1839 0.960 . S
C1856 C1857 1.391 . S
C1856 C1858 1.394 . S
C1856 H1872 0.931 . S
C1857 C1856 1.391 . S
C1857 C1861 1.376 . S
C1858 C1856 1.394 . S
C1858 C1859 1.369 . S
C1858 C1862 1.531 . S
C1859 C1858 1.369 . S
C1859 C1860 1.410 . S
C1859 C1867 1.503 . S
C1860 C1859 1.410 . S
C1860 C1861 1.392 . S
C1860 C1863 1.511 . S
C1861 C1857 1.376 . S
C1861 C1860 1.392 . S
C1861 H1873 0.929 . S
C1862 C1858 1.531 . S
C1862 H1874 0.960 . S
C1862 H1875 0.962 . S
C1862 H1876 0.960 . S
C1863 C1860 1.511 . S
C1863 H1877 0.961 . S
C1863 H1878 0.961 . S
C1863 H1879 0.961 . S
C1864 C1865 1.370 . S
C1864 C1866 1.363 . S
C1864 H1880 0.931 . S
C1865 C1864 1.370 . S
C1865 C1869 1.408 . S
C1866 C1864 1.363 . S
C1866 C1867 1.370 . S
C1866 C1870 1.524 . S
C1867 C1859 1.503 . S
C1867 C1866 1.370 . S
C1867 C1868 1.403 . S
C1868 C1867 1.403 . S
C1868 C1869 1.404 . S
C1868 C1871 1.539 . S
C1869 C1865 1.408 . S
C1869 C1868 1.404 . S
C1869 H1881 0.930 . S
C1870 C1866 1.524 . S
C1870 H1882 0.956 . S
C1870 H1883 0.961 . S
C1870 H1884 0.961 . S
C1871 C1868 1.539 . S
C1871 H1885 0.958 . S
C1871 H1886 0.961 . S
C1871 H1887 0.960 . S
H1872 C1856 0.931 . S
H1873 C1861 0.929 . S
H1874 C1862 0.960 . S
H1875 C1862 0.962 . S
H1876 C1862 0.960 . S
H1877 C1863 0.961 . S
H1878 C1863 0.961 . S
H1879 C1863 0.961 . S
H1880 C1864 0.931 . S
H1881 C1869 0.930 . S
H1882 C1870 0.956 . S
H1883 C1870 0.961 . S
H1884 C1870 0.961 . S
H1885 C1871 0.958 . S
H1886 C1871 0.961 . S
H1887 C1871 0.960 . S
C1888 C1889 1.391 . S
C1888 C1890 1.394 . S
C1888 H1904 0.931 . S
C1889 C1888 1.391 . S
C1889 C1893 1.376 . S
C1890 C1888 1.394 . S
C1890 C1891 1.369 . S
C1890 C1894 1.531 . S
C1891 C1890 1.369 . S
C1891 C1892 1.410 . S
C1891 C1899 1.503 . S
C1892 C1891 1.410 . S
C1892 C1893 1.392 . S
C1892 C1895 1.511 . S
C1893 C1889 1.376 . S
C1893 C1892 1.392 . S
C1893 H1905 0.929 . S
C1894 C1890 1.531 . S
C1894 H1906 0.960 . S
C1894 H1907 0.962 . S
C1894 H1908 0.960 . S
C1895 C1892 1.511 . S
C1895 H1909 0.961 . S
C1895 H1910 0.961 . S
C1895 H1911 0.961 . S
C1896 C1897 1.370 . S
C1896 C1898 1.363 . S
C1896 H1912 0.931 . S
C1897 C1896 1.370 . S
C1897 C1901 1.408 . S
C1898 C1896 1.363 . S
C1898 C1899 1.370 . S
C1898 C1902 1.524 . S
C1899 C1891 1.503 . S
C1899 C1898 1.370 . S
C1899 C1900 1.403 . S
C1900 C1899 1.403 . S
C1900 C1901 1.404 . S
C1900 C1903 1.539 . S
C1901 C1897 1.408 . S
C1901 C1900 1.404 . S
C1901 H1913 0.930 . S
C1902 C1898 1.524 . S
C1902 H1914 0.956 . S
C1902 H1915 0.961 . S
C1902 H1916 0.961 . S
C1903 C1900 1.539 . S
C1903 H1917 0.958 . S
C1903 H1918 0.961 . S
C1903 H1919 0.960 . S
H1904 C1888 0.931 . S
H1905 C1893 0.929 . S
H1906 C1894 0.960 . S
H1907 C1894 0.962 . S
H1908 C1894 0.960 . S
H1909 C1895 0.961 . S
H1910 C1895 0.961 . S
H1911 C1895 0.961 . S
H1912 C1896 0.931 . S
H1913 C1901 0.930 . S
H1914 C1902 0.956 . S
H1915 C1902 0.961 . S
H1916 C1902 0.961 . S
H1917 C1903 0.958 . S
H1918 C1903 0.961 . S
H1919 C1903 0.960 . S
C1920 C1921 1.391 . S
C1920 C1922 1.394 . S
C1920 H1936 0.931 . S
C1921 C1920 1.391 . S
C1921 C1925 1.376 . S
C1922 C1920 1.394 . S
C1922 C1923 1.369 1_556 S
C1922 C1926 1.531 . S
C1923 C1922 1.369 1_554 S
C1923 C1924 1.410 1_554 S
C1923 C1931 1.503 . S
C1924 C1923 1.410 1_556 S
C1924 C1925 1.392 . S
C1924 C1927 1.511 1_556 S
C1925 C1921 1.376 . S
C1925 C1924 1.392 . S
C1925 H1937 0.929 . S
C1926 C1922 1.531 . S
C1926 H1938 0.960 1_556 S
C1926 H1939 0.962 . S
C1926 H1940 0.960 . S
C1927 C1924 1.511 1_554 S
C1927 H1941 0.961 . S
C1927 H1942 0.961 . S
C1927 H1943 0.961 . S
C1928 C1929 1.370 . S
C1928 C1930 1.363 . S
C1928 H1944 0.931 . S
C1929 C1928 1.370 . S
C1929 C1933 1.408 . S
C1930 C1928 1.363 . S
C1930 C1931 1.370 . S
C1930 C1934 1.524 . S
C1931 C1923 1.503 . S
C1931 C1930 1.370 . S
C1931 C1932 1.403 . S
C1932 C1931 1.403 . S
C1932 C1933 1.404 . S
C1932 C1935 1.539 . S
C1933 C1929 1.408 . S
C1933 C1932 1.404 . S
C1933 H1945 0.930 . S
C1934 C1930 1.524 . S
C1934 H1946 0.956 . S
C1934 H1947 0.961 . S
C1934 H1948 0.961 . S
C1935 C1932 1.539 . S
C1935 H1949 0.958 . S
C1935 H1950 0.961 . S
C1935 H1951 0.960 . S
H1936 C1920 0.931 . S
H1937 C1925 0.929 . S
H1938 C1926 0.960 1_554 S
H1939 C1926 0.962 . S
H1940 C1926 0.960 . S
H1941 C1927 0.961 . S
H1942 C1927 0.961 . S
H1943 C1927 0.961 . S
H1944 C1928 0.931 . S
H1945 C1933 0.930 . S
H1946 C1934 0.956 . S
H1947 C1934 0.961 . S
H1948 C1934 0.961 . S
H1949 C1935 0.958 . S
H1950 C1935 0.961 . S
H1951 C1935 0.960 . S
C1952 C1953 1.391 . S
C1952 C1954 1.394 . S
C1952 H1968 0.931 . S
C1953 C1952 1.391 . S
C1953 C1957 1.376 . S
C1954 C1952 1.394 . S
C1954 C1955 1.369 . S
C1954 C1958 1.531 . S
C1955 C1954 1.369 . S
C1955 C1956 1.410 . S
C1955 C1963 1.503 . S
C1956 C1955 1.410 . S
C1956 C1957 1.392 . S
C1956 C1959 1.511 . S
C1957 C1953 1.376 . S
C1957 C1956 1.392 . S
C1957 H1969 0.929 . S
C1958 C1954 1.531 . S
C1958 H1970 0.960 . S
C1958 H1971 0.962 . S
C1958 H1972 0.960 . S
C1959 C1956 1.511 . S
C1959 H1973 0.961 . S
C1959 H1974 0.961 . S
C1959 H1975 0.961 . S
C1960 C1961 1.370 . S
C1960 C1962 1.363 . S
C1960 H1976 0.931 . S
C1961 C1960 1.370 . S
C1961 C1965 1.408 . S
C1962 C1960 1.363 . S
C1962 C1963 1.370 . S
C1962 C1966 1.524 . S
C1963 C1955 1.503 . S
C1963 C1962 1.370 . S
C1963 C1964 1.403 . S
C1964 C1963 1.403 . S
C1964 C1965 1.404 . S
C1964 C1967 1.539 . S
C1965 C1961 1.408 . S
C1965 C1964 1.404 . S
C1965 H1977 0.930 . S
C1966 C1962 1.524 . S
C1966 H1978 0.956 . S
C1966 H1979 0.961 . S
C1966 H1980 0.961 . S
C1967 C1964 1.539 . S
C1967 H1981 0.958 . S
C1967 H1982 0.961 . S
C1967 H1983 0.960 . S
H1968 C1952 0.931 . S
H1969 C1957 0.929 . S
H1970 C1958 0.960 . S
H1971 C1958 0.962 . S
H1972 C1958 0.960 . S
H1973 C1959 0.961 . S
H1974 C1959 0.961 . S
H1975 C1959 0.961 . S
H1976 C1960 0.931 . S
H1977 C1965 0.930 . S
H1978 C1966 0.956 . S
H1979 C1966 0.961 . S
H1980 C1966 0.961 . S
H1981 C1967 0.958 . S
H1982 C1967 0.961 . S
H1983 C1967 0.960 . S
C1984 C1985 1.391 . S
C1984 C1986 1.394 . S
C1984 H2000 0.931 . S
C1985 C1984 1.391 . S
C1985 C1989 1.376 . S
C1986 C1984 1.394 . S
C1986 C1987 1.369 . S
C1986 C1990 1.531 . S
C1987 C1986 1.369 . S
C1987 C1988 1.410 . S
C1987 C1995 1.503 . S
C1988 C1987 1.410 . S
C1988 C1989 1.392 . S
C1988 C1991 1.511 . S
C1989 C1985 1.376 . S
C1989 C1988 1.392 . S
C1989 H2001 0.929 . S
C1990 C1986 1.531 . S
C1990 H2002 0.960 . S
C1990 H2003 0.962 . S
C1990 H2004 0.960 . S
C1991 C1988 1.511 . S
C1991 H2005 0.961 . S
C1991 H2006 0.961 . S
C1991 H2007 0.961 . S
C1992 C1993 1.370 . S
C1992 C1994 1.363 . S
C1992 H2008 0.931 . S
C1993 C1992 1.370 . S
C1993 C1997 1.408 . S
C1994 C1992 1.363 . S
C1994 C1995 1.370 . S
C1994 C1998 1.524 . S
C1995 C1987 1.503 . S
C1995 C1994 1.370 . S
C1995 C1996 1.403 . S
C1996 C1995 1.403 . S
C1996 C1997 1.404 . S
C1996 C1999 1.539 . S
C1997 C1993 1.408 . S
C1997 C1996 1.404 . S
C1997 H2009 0.930 . S
C1998 C1994 1.524 . S
C1998 H2010 0.956 . S
C1998 H2011 0.961 . S
C1998 H2012 0.961 . S
C1999 C1996 1.539 . S
C1999 H2013 0.958 . S
C1999 H2014 0.961 . S
C1999 H2015 0.960 . S
H2000 C1984 0.931 . S
H2001 C1989 0.929 . S
H2002 C1990 0.960 . S
H2003 C1990 0.962 . S
H2004 C1990 0.960 . S
H2005 C1991 0.961 . S
H2006 C1991 0.961 . S
H2007 C1991 0.961 . S
H2008 C1992 0.931 . S
H2009 C1997 0.930 . S
H2010 C1998 0.956 . S
H2011 C1998 0.961 . S
H2012 C1998 0.961 . S
H2013 C1999 0.958 . S
H2014 C1999 0.961 . S
H2015 C1999 0.960 . S
C2016 C2017 1.391 . S
C2016 C2018 1.394 . S
C2016 H2032 0.931 . S
C2017 C2016 1.391 . S
C2017 C2021 1.376 . S
C2018 C2016 1.394 . S
C2018 C2019 1.369 . S
C2018 C2022 1.531 . S
C2019 C2018 1.369 . S
C2019 C2020 1.410 . S
C2019 C2027 1.503 . S
C2020 C2019 1.410 . S
C2020 C2021 1.392 . S
C2020 C2023 1.511 . S
C2021 C2017 1.376 . S
C2021 C2020 1.392 . S
C2021 H2033 0.929 . S
C2022 C2018 1.531 . S
C2022 H2034 0.960 . S
C2022 H2035 0.962 . S
C2022 H2036 0.960 . S
C2023 C2020 1.511 . S
C2023 H2037 0.961 . S
C2023 H2038 0.961 . S
C2023 H2039 0.961 . S
C2024 C2025 1.370 . S
C2024 C2026 1.363 . S
C2024 H2040 0.931 . S
C2025 C2024 1.370 . S
C2025 C2029 1.408 . S
C2026 C2024 1.363 . S
C2026 C2027 1.370 . S
C2026 C2030 1.524 . S
C2027 C2019 1.503 . S
C2027 C2026 1.370 . S
C2027 C2028 1.403 . S
C2028 C2027 1.403 . S
C2028 C2029 1.404 . S
C2028 C2031 1.539 . S
C2029 C2025 1.408 . S
C2029 C2028 1.404 . S
C2029 H2041 0.930 . S
C2030 C2026 1.524 . S
C2030 H2042 0.956 . S
C2030 H2043 0.961 . S
C2030 H2044 0.961 . S
C2031 C2028 1.539 . S
C2031 H2045 0.958 . S
C2031 H2046 0.961 . S
C2031 H2047 0.960 . S
H2032 C2016 0.931 . S
H2033 C2021 0.929 . S
H2034 C2022 0.960 . S
H2035 C2022 0.962 . S
H2036 C2022 0.960 . S
H2037 C2023 0.961 . S
H2038 C2023 0.961 . S
H2039 C2023 0.961 . S
H2040 C2024 0.931 . S
H2041 C2029 0.930 . S
H2042 C2030 0.956 . S
H2043 C2030 0.961 . S
H2044 C2030 0.961 . S
H2045 C2031 0.958 . S
H2046 C2031 0.961 . S
H2047 C2031 0.960 . S
C2048 C2049 1.391 . S
C2048 C2050 1.394 . S
C2048 H2064 0.931 . S
C2049 C2048 1.391 . S
C2049 C2053 1.376 . S
C2050 C2048 1.394 . S
C2050 C2051 1.369 . S
C2050 C2054 1.531 . S
C2051 C2050 1.369 . S
C2051 C2052 1.410 . S
C2051 C2059 1.503 . S
C2052 C2051 1.410 . S
C2052 C2053 1.392 . S
C2052 C2055 1.511 . S
C2053 C2049 1.376 . S
C2053 C2052 1.392 . S
C2053 H2065 0.929 . S
C2054 C2050 1.531 . S
C2054 H2066 0.960 . S
C2054 H2067 0.962 . S
C2054 H2068 0.960 . S
C2055 C2052 1.511 . S
C2055 H2069 0.961 . S
C2055 H2070 0.961 . S
C2055 H2071 0.961 . S
C2056 C2057 1.370 . S
C2056 C2058 1.363 . S
C2056 H2072 0.931 . S
C2057 C2056 1.370 . S
C2057 C2061 1.408 . S
C2058 C2056 1.363 . S
C2058 C2059 1.370 . S
C2058 C2062 1.524 . S
C2059 C2051 1.503 . S
C2059 C2058 1.370 . S
C2059 C2060 1.403 . S
C2060 C2059 1.403 . S
C2060 C2061 1.404 . S
C2060 C2063 1.539 . S
C2061 C2057 1.408 . S
C2061 C2060 1.404 . S
C2061 H2073 0.930 . S
C2062 C2058 1.524 . S
C2062 H2074 0.956 . S
C2062 H2075 0.961 . S
C2062 H2076 0.961 . S
C2063 C2060 1.539 . S
C2063 H2077 0.958 . S
C2063 H2078 0.961 . S
C2063 H2079 0.960 . S
H2064 C2048 0.931 . S
H2065 C2053 0.929 . S
H2066 C2054 0.960 . S
H2067 C2054 0.962 . S
H2068 C2054 0.960 . S
H2069 C2055 0.961 . S
H2070 C2055 0.961 . S
H2071 C2055 0.961 . S
H2072 C2056 0.931 . S
H2073 C2061 0.930 . S
H2074 C2062 0.956 . S
H2075 C2062 0.961 . S
H2076 C2062 0.961 . S
H2077 C2063 0.958 . S
H2078 C2063 0.961 . S
H2079 C2063 0.960 . S
C2080 C2081 1.391 . S
C2080 C2082 1.388 1_565 S
C2080 H2096 0.931 . S
C2081 C2080 1.391 . S
C2081 C2085 1.376 . S
C2082 C2080 1.388 1_545 S
C2082 C2083 1.372 . S
C2082 C2086 1.533 . S
C2083 C2082 1.372 . S
C2083 C2084 1.410 . S
C2083 C2091 1.503 . S
C2084 C2083 1.410 . S
C2084 C2085 1.392 1_545 S
C2084 C2087 1.511 . S
C2085 C2081 1.376 . S
C2085 C2084 1.392 1_565 S
C2085 H2097 0.929 . S
C2086 C2082 1.533 . S
C2086 H2098 0.960 . S
C2086 H2099 0.962 . S
C2086 H2100 0.960 . S
C2087 C2084 1.511 . S
C2087 H2101 0.961 . S
C2087 H2102 0.961 . S
C2087 H2103 0.961 . S
C2088 C2089 1.370 . S
C2088 C2090 1.363 . S
C2088 H2104 0.931 . S
C2089 C2088 1.370 . S
C2089 C2093 1.408 . S
C2090 C2088 1.363 . S
C2090 C2091 1.370 . S
C2090 C2094 1.524 . S
C2091 C2083 1.503 . S
C2091 C2090 1.370 . S
C2091 C2092 1.403 . S
C2092 C2091 1.403 . S
C2092 C2093 1.404 . S
C2092 C2095 1.539 . S
C2093 C2089 1.408 . S
C2093 C2092 1.404 . S
C2093 H2105 0.930 . S
C2094 C2090 1.524 . S
C2094 H2106 0.956 . S
C2094 H2107 0.961 . S
C2094 H2108 0.961 . S
C2095 C2092 1.539 . S
C2095 H2109 0.958 . S
C2095 H2110 0.961 . S
C2095 H2111 0.960 . S
H2096 C2080 0.931 . S
H2097 C2085 0.929 . S
H2098 C2086 0.960 . S
H2099 C2086 0.962 . S
H2100 C2086 0.960 . S
H2101 C2087 0.961 . S
H2102 C2087 0.961 . S
H2103 C2087 0.961 . S
H2104 C2088 0.931 . S
H2105 C2093 0.930 . S
H2106 C2094 0.956 . S
H2107 C2094 0.961 . S
H2108 C2094 0.961 . S
H2109 C2095 0.958 . S
H2110 C2095 0.961 . S
H2111 C2095 0.960 . S
C2112 C2113 1.391 . S
C2112 C2114 1.394 . S
C2112 H2128 0.931 . S
C2113 C2112 1.391 . S
C2113 C2117 1.376 . S
C2114 C2112 1.394 . S
C2114 C2115 1.369 . S
C2114 C2118 1.531 . S
C2115 C2114 1.369 . S
C2115 C2116 1.410 . S
C2115 C2123 1.503 . S
C2116 C2115 1.410 . S
C2116 C2117 1.392 . S
C2116 C2119 1.511 . S
C2117 C2113 1.376 . S
C2117 C2116 1.392 . S
C2117 H2129 0.929 . S
C2118 C2114 1.531 . S
C2118 H2130 0.960 . S
C2118 H2131 0.962 . S
C2118 H2132 0.960 . S
C2119 C2116 1.511 . S
C2119 H2133 0.961 . S
C2119 H2134 0.961 . S
C2119 H2135 0.961 . S
C2120 C2121 1.370 . S
C2120 C2122 1.363 . S
C2120 H2136 0.931 . S
C2121 C2120 1.370 . S
C2121 C2125 1.408 . S
C2122 C2120 1.363 . S
C2122 C2123 1.370 . S
C2122 C2126 1.524 . S
C2123 C2115 1.503 . S
C2123 C2122 1.370 . S
C2123 C2124 1.403 . S
C2124 C2123 1.403 . S
C2124 C2125 1.404 . S
C2124 C2127 1.539 . S
C2125 C2121 1.408 . S
C2125 C2124 1.404 . S
C2125 H2137 0.930 . S
C2126 C2122 1.524 . S
C2126 H2138 0.956 . S
C2126 H2139 0.961 . S
C2126 H2140 0.961 . S
C2127 C2124 1.539 . S
C2127 H2141 0.958 . S
C2127 H2142 0.961 . S
C2127 H2143 0.960 . S
H2128 C2112 0.931 . S
H2129 C2117 0.929 . S
H2130 C2118 0.960 . S
H2131 C2118 0.962 . S
H2132 C2118 0.960 . S
H2133 C2119 0.961 . S
H2134 C2119 0.961 . S
H2135 C2119 0.961 . S
H2136 C2120 0.931 . S
H2137 C2125 0.930 . S
H2138 C2126 0.956 . S
H2139 C2126 0.961 . S
H2140 C2126 0.961 . S
H2141 C2127 0.958 . S
H2142 C2127 0.961 . S
H2143 C2127 0.960 . S
C2144 C2145 1.391 . S
C2144 C2146 1.394 . S
C2144 H2160 0.931 . S
C2145 C2144 1.391 . S
C2145 C2149 1.376 . S
C2146 C2144 1.394 . S
C2146 C2147 1.369 . S
C2146 C2150 1.531 . S
C2147 C2146 1.369 . S
C2147 C2148 1.410 . S
C2147 C2155 1.503 . S
C2148 C2147 1.410 . S
C2148 C2149 1.392 . S
C2148 C2151 1.511 . S
C2149 C2145 1.376 . S
C2149 C2148 1.392 . S
C2149 H2161 0.929 . S
C2150 C2146 1.531 . S
C2150 H2162 0.960 . S
C2150 H2163 0.962 . S
C2150 H2164 0.960 . S
C2151 C2148 1.511 . S
C2151 H2165 0.961 . S
C2151 H2166 0.961 . S
C2151 H2167 0.961 . S
C2152 C2153 1.370 . S
C2152 C2154 1.363 . S
C2152 H2168 0.931 . S
C2153 C2152 1.370 . S
C2153 C2157 1.408 . S
C2154 C2152 1.363 . S
C2154 C2155 1.370 . S
C2154 C2158 1.524 . S
C2155 C2147 1.503 . S
C2155 C2154 1.370 . S
C2155 C2156 1.403 . S
C2156 C2155 1.403 . S
C2156 C2157 1.404 . S
C2156 C2159 1.539 . S
C2157 C2153 1.408 . S
C2157 C2156 1.404 . S
C2157 H2169 0.930 . S
C2158 C2154 1.524 . S
C2158 H2170 0.956 . S
C2158 H2171 0.961 . S
C2158 H2172 0.961 . S
C2159 C2156 1.539 . S
C2159 H2173 0.958 . S
C2159 H2174 0.961 . S
C2159 H2175 0.960 . S
H2160 C2144 0.931 . S
H2161 C2149 0.929 . S
H2162 C2150 0.960 . S
H2163 C2150 0.962 . S
H2164 C2150 0.960 . S
H2165 C2151 0.961 . S
H2166 C2151 0.961 . S
H2167 C2151 0.961 . S
H2168 C2152 0.931 . S
H2169 C2157 0.930 . S
H2170 C2158 0.956 . S
H2171 C2158 0.961 . S
H2172 C2158 0.961 . S
H2173 C2159 0.958 . S
H2174 C2159 0.961 . S
H2175 C2159 0.960 . S
C2176 C2177 1.391 . S
C2176 C2178 1.394 . S
C2176 H2192 0.931 . S
C2177 C2176 1.391 . S
C2177 C2181 1.376 . S
C2178 C2176 1.394 . S
C2178 C2179 1.369 . S
C2178 C2182 1.531 . S
C2179 C2178 1.369 . S
C2179 C2180 1.410 . S
C2179 C2187 1.503 . S
C2180 C2179 1.410 . S
C2180 C2181 1.392 . S
C2180 C2183 1.511 . S
C2181 C2177 1.376 . S
C2181 C2180 1.392 . S
C2181 H2193 0.929 . S
C2182 C2178 1.531 . S
C2182 H2194 0.960 . S
C2182 H2195 0.962 . S
C2182 H2196 0.960 . S
C2183 C2180 1.511 . S
C2183 H2197 0.961 . S
C2183 H2198 0.961 . S
C2183 H2199 0.961 . S
C2184 C2185 1.370 . S
C2184 C2186 1.363 . S
C2184 H2200 0.931 . S
C2185 C2184 1.370 . S
C2185 C2189 1.408 . S
C2186 C2184 1.363 . S
C2186 C2187 1.370 . S
C2186 C2190 1.524 . S
C2187 C2179 1.503 . S
C2187 C2186 1.370 . S
C2187 C2188 1.403 . S
C2188 C2187 1.403 . S
C2188 C2189 1.404 . S
C2188 C2191 1.539 . S
C2189 C2185 1.408 . S
C2189 C2188 1.404 . S
C2189 H2201 0.930 . S
C2190 C2186 1.524 . S
C2190 H2202 0.956 . S
C2190 H2203 0.961 . S
C2190 H2204 0.961 . S
C2191 C2188 1.539 . S
C2191 H2205 0.958 . S
C2191 H2206 0.961 . S
C2191 H2207 0.960 . S
H2192 C2176 0.931 . S
H2193 C2181 0.929 . S
H2194 C2182 0.960 . S
H2195 C2182 0.962 . S
H2196 C2182 0.960 . S
H2197 C2183 0.961 . S
H2198 C2183 0.961 . S
H2199 C2183 0.961 . S
H2200 C2184 0.931 . S
H2201 C2189 0.930 . S
H2202 C2190 0.956 . S
H2203 C2190 0.961 . S
H2204 C2190 0.961 . S
H2205 C2191 0.958 . S
H2206 C2191 0.961 . S
H2207 C2191 0.960 . S
C2208 C2209 1.391 . S
C2208 C2210 1.394 . S
C2208 H2224 0.931 . S
C2209 C2208 1.391 . S
C2209 C2213 1.376 . S
C2210 C2208 1.394 . S
C2210 C2211 1.369 . S
C2210 C2214 1.531 . S
C2211 C2210 1.369 . S
C2211 C2212 1.410 . S
C2211 C2219 1.503 . S
C2212 C2211 1.410 . S
C2212 C2213 1.392 . S
C2212 C2215 1.511 . S
C2213 C2209 1.376 . S
C2213 C2212 1.392 . S
C2213 H2225 0.929 . S
C2214 C2210 1.531 . S
C2214 H2226 0.960 . S
C2214 H2227 0.962 . S
C2214 H2228 0.960 . S
C2215 C2212 1.511 . S
C2215 H2229 0.961 . S
C2215 H2230 0.961 . S
C2215 H2231 0.961 . S
C2216 C2217 1.370 . S
C2216 C2218 1.363 . S
C2216 H2232 0.931 . S
C2217 C2216 1.370 . S
C2217 C2221 1.408 . S
C2218 C2216 1.363 . S
C2218 C2219 1.370 . S
C2218 C2222 1.524 . S
C2219 C2211 1.503 . S
C2219 C2218 1.370 . S
C2219 C2220 1.403 . S
C2220 C2219 1.403 . S
C2220 C2221 1.404 . S
C2220 C2223 1.539 . S
C2221 C2217 1.408 . S
C2221 C2220 1.404 . S
C2221 H2233 0.930 . S
C2222 C2218 1.524 . S
C2222 H2234 0.956 . S
C2222 H2235 0.961 . S
C2222 H2236 0.961 . S
C2223 C2220 1.539 . S
C2223 H2237 0.958 . S
C2223 H2238 0.961 . S
C2223 H2239 0.960 . S
H2224 C2208 0.931 . S
H2225 C2213 0.929 . S
H2226 C2214 0.960 . S
H2227 C2214 0.962 . S
H2228 C2214 0.960 . S
H2229 C2215 0.961 . S
H2230 C2215 0.961 . S
H2231 C2215 0.961 . S
H2232 C2216 0.931 . S
H2233 C2221 0.930 . S
H2234 C2222 0.956 . S
H2235 C2222 0.961 . S
H2236 C2222 0.961 . S
H2237 C2223 0.958 . S
H2238 C2223 0.961 . S
H2239 C2223 0.960 . S
C2240 C2241 1.391 . S
C2240 C2242 1.394 . S
C2240 H2256 0.931 . S
C2241 C2240 1.391 . S
C2241 C2245 1.376 . S
C2242 C2240 1.394 . S
C2242 C2243 1.369 . S
C2242 C2246 1.531 . S
C2243 C2242 1.369 . S
C2243 C2244 1.410 . S
C2243 C2251 1.503 . S
C2244 C2243 1.410 . S
C2244 C2245 1.392 . S
C2244 C2247 1.511 . S
C2245 C2241 1.376 . S
C2245 C2244 1.392 . S
C2245 H2257 0.929 . S
C2246 C2242 1.531 . S
C2246 H2258 0.960 . S
C2246 H2259 0.962 . S
C2246 H2260 0.960 . S
C2247 C2244 1.511 . S
C2247 H2261 0.961 . S
C2247 H2262 0.961 . S
C2247 H2263 0.961 . S
C2248 C2249 1.370 . S
C2248 C2250 1.363 . S
C2248 H2264 0.931 . S
C2249 C2248 1.370 . S
C2249 C2253 1.408 . S
C2250 C2248 1.363 . S
C2250 C2251 1.370 . S
C2250 C2254 1.524 . S
C2251 C2243 1.503 . S
C2251 C2250 1.370 . S
C2251 C2252 1.403 . S
C2252 C2251 1.403 . S
C2252 C2253 1.404 . S
C2252 C2255 1.539 . S
C2253 C2249 1.408 . S
C2253 C2252 1.404 . S
C2253 H2265 0.930 . S
C2254 C2250 1.524 . S
C2254 H2266 0.956 . S
C2254 H2267 0.961 . S
C2254 H2268 0.961 . S
C2255 C2252 1.539 . S
C2255 H2269 0.958 . S
C2255 H2270 0.961 . S
C2255 H2271 0.960 . S
H2256 C2240 0.931 . S
H2257 C2245 0.929 . S
H2258 C2246 0.960 . S
H2259 C2246 0.962 . S
H2260 C2246 0.960 . S
H2261 C2247 0.961 . S
H2262 C2247 0.961 . S
H2263 C2247 0.961 . S
H2264 C2248 0.931 . S
H2265 C2253 0.930 . S
H2266 C2254 0.956 . S
H2267 C2254 0.961 . S
H2268 C2254 0.961 . S
H2269 C2255 0.958 . S
H2270 C2255 0.961 . S
H2271 C2255 0.960 . S
C2272 C2273 1.391 . S
C2272 C2274 1.394 . S
C2272 H2288 0.931 . S
C2273 C2272 1.391 . S
C2273 C2277 1.376 . S
C2274 C2272 1.394 . S
C2274 C2275 1.369 . S
C2274 C2278 1.531 . S
C2275 C2274 1.369 . S
C2275 C2276 1.410 . S
C2275 C2283 1.503 . S
C2276 C2275 1.410 . S
C2276 C2277 1.392 . S
C2276 C2279 1.511 . S
C2277 C2273 1.376 . S
C2277 C2276 1.392 . S
C2277 H2289 0.929 . S
C2278 C2274 1.531 . S
C2278 H2290 0.960 . S
C2278 H2291 0.962 . S
C2278 H2292 0.960 . S
C2279 C2276 1.511 . S
C2279 H2293 0.961 . S
C2279 H2294 0.961 . S
C2279 H2295 0.961 . S
C2280 C2281 1.370 . S
C2280 C2282 1.363 . S
C2280 H2296 0.931 . S
C2281 C2280 1.370 . S
C2281 C2285 1.408 . S
C2282 C2280 1.363 . S
C2282 C2283 1.370 . S
C2282 C2286 1.524 . S
C2283 C2275 1.503 . S
C2283 C2282 1.370 . S
C2283 C2284 1.403 . S
C2284 C2283 1.403 . S
C2284 C2285 1.404 . S
C2284 C2287 1.539 . S
C2285 C2281 1.408 . S
C2285 C2284 1.404 . S
C2285 H2297 0.930 . S
C2286 C2282 1.524 . S
C2286 H2298 0.956 . S
C2286 H2299 0.961 . S
C2286 H2300 0.961 . S
C2287 C2284 1.539 . S
C2287 H2301 0.958 . S
C2287 H2302 0.961 . S
C2287 H2303 0.960 . S
H2288 C2272 0.931 . S
H2289 C2277 0.929 . S
H2290 C2278 0.960 . S
H2291 C2278 0.962 . S
H2292 C2278 0.960 . S
H2293 C2279 0.961 . S
H2294 C2279 0.961 . S
H2295 C2279 0.961 . S
H2296 C2280 0.931 . S
H2297 C2285 0.930 . S
H2298 C2286 0.956 . S
H2299 C2286 0.961 . S
H2300 C2286 0.961 . S
H2301 C2287 0.958 . S
H2302 C2287 0.961 . S
H2303 C2287 0.960 . S
C2304 C2305 1.391 . S
C2304 C2306 1.450 . S
C2304 H2320 0.931 . S
C2305 C2304 1.391 . S
C2305 C2309 1.376 . S
C2306 C2304 1.450 . S
C2306 C2307 1.350 1_655 S
C2306 C2310 1.494 1_655 S
C2307 C2306 1.350 1_455 S
C2307 C2308 1.410 1_455 S
C2307 C2315 1.503 . S
C2308 C2307 1.410 1_655 S
C2308 C2309 1.392 . S
C2308 C2311 1.525 . S
C2309 C2305 1.376 . S
C2309 C2308 1.392 . S
C2309 H2321 0.929 . S
C2310 C2306 1.494 1_455 S
C2310 H2322 0.960 . S
C2310 H2323 0.962 . S
C2310 H2324 0.960 . S
C2311 C2308 1.525 . S
C2311 H2325 0.991 . S
C2311 H2326 0.926 1_655 S
C2311 H2327 0.953 1_655 S
C2312 C2313 1.370 . S
C2312 C2314 1.363 . S
C2312 H2328 0.931 . S
C2313 C2312 1.370 . S
C2313 C2317 1.408 . S
C2314 C2312 1.363 . S
C2314 C2315 1.370 . S
C2314 C2318 1.524 . S
C2315 C2307 1.503 . S
C2315 C2314 1.370 . S
C2315 C2316 1.403 . S
C2316 C2315 1.403 . S
C2316 C2317 1.404 . S
C2316 C2319 1.539 . S
C2317 C2313 1.408 . S
C2317 C2316 1.404 . S
C2317 H2329 0.930 . S
C2318 C2314 1.524 . S
C2318 H2330 0.956 . S
C2318 H2331 0.961 . S
C2318 H2332 0.961 . S
C2319 C2316 1.539 . S
C2319 H2333 0.958 . S
C2319 H2334 0.961 . S
C2319 H2335 0.960 . S
H2320 C2304 0.931 . S
H2321 C2309 0.929 . S
H2322 C2310 0.960 . S
H2323 C2310 0.962 . S
H2324 C2310 0.960 . S
H2325 C2311 0.991 . S
H2326 C2311 0.926 1_455 S
H2327 C2311 0.953 1_455 S
H2328 C2312 0.931 . S
H2329 C2317 0.930 . S
H2330 C2318 0.956 . S
H2331 C2318 0.961 . S
H2332 C2318 0.961 . S
H2333 C2319 0.958 . S
H2334 C2319 0.961 . S
H2335 C2319 0.960 . S
C2336 C2337 1.391 . S
C2336 C2338 1.394 . S
C2336 H2352 0.931 . S
C2337 C2336 1.391 . S
C2337 C2341 1.376 . S
C2338 C2336 1.394 . S
C2338 C2339 1.369 . S
C2338 C2342 1.531 . S
C2339 C2338 1.369 . S
C2339 C2340 1.410 . S
C2339 C2347 1.503 . S
C2340 C2339 1.410 . S
C2340 C2341 1.392 . S
C2340 C2343 1.511 . S
C2341 C2337 1.376 . S
C2341 C2340 1.392 . S
C2341 H2353 0.929 . S
C2342 C2338 1.531 . S
C2342 H2354 0.960 . S
C2342 H2355 0.962 . S
C2342 H2356 0.960 . S
C2343 C2340 1.511 . S
C2343 H2357 0.961 . S
C2343 H2358 0.961 . S
C2343 H2359 0.961 . S
C2344 C2345 1.370 . S
C2344 C2346 1.363 . S
C2344 H2360 0.931 . S
C2345 C2344 1.370 . S
C2345 C2349 1.408 . S
C2346 C2344 1.363 . S
C2346 C2347 1.370 . S
C2346 C2350 1.524 . S
C2347 C2339 1.503 . S
C2347 C2346 1.370 . S
C2347 C2348 1.403 . S
C2348 C2347 1.403 . S
C2348 C2349 1.404 . S
C2348 C2351 1.539 . S
C2349 C2345 1.408 . S
C2349 C2348 1.404 . S
C2349 H2361 0.930 . S
C2350 C2346 1.524 . S
C2350 H2362 0.956 . S
C2350 H2363 0.961 . S
C2350 H2364 0.961 . S
C2351 C2348 1.539 . S
C2351 H2365 0.958 . S
C2351 H2366 0.961 . S
C2351 H2367 0.960 . S
H2352 C2336 0.931 . S
H2353 C2341 0.929 . S
H2354 C2342 0.960 . S
H2355 C2342 0.962 . S
H2356 C2342 0.960 . S
H2357 C2343 0.961 . S
H2358 C2343 0.961 . S
H2359 C2343 0.961 . S
H2360 C2344 0.931 . S
H2361 C2349 0.930 . S
H2362 C2350 0.956 . S
H2363 C2350 0.961 . S
H2364 C2350 0.961 . S
H2365 C2351 0.958 . S
H2366 C2351 0.961 . S
H2367 C2351 0.960 . S
C2368 C2369 1.391 . S
C2368 C2370 1.394 . S
C2368 H2384 0.931 . S
C2369 C2368 1.391 . S
C2369 C2373 1.376 . S
C2370 C2368 1.394 . S
C2370 C2371 1.369 . S
C2370 C2374 1.531 . S
C2371 C2370 1.369 . S
C2371 C2372 1.410 . S
C2371 C2379 1.503 . S
C2372 C2371 1.410 . S
C2372 C2373 1.392 . S
C2372 C2375 1.511 . S
C2373 C2369 1.376 . S
C2373 C2372 1.392 . S
C2373 H2385 0.929 . S
C2374 C2370 1.531 . S
C2374 H2386 0.960 . S
C2374 H2387 0.962 . S
C2374 H2388 0.960 . S
C2375 C2372 1.511 . S
C2375 H2389 0.961 . S
C2375 H2390 0.961 . S
C2375 H2391 0.961 . S
C2376 C2377 1.370 . S
C2376 C2378 1.363 . S
C2376 H2392 0.931 . S
C2377 C2376 1.370 . S
C2377 C2381 1.408 . S
C2378 C2376 1.363 . S
C2378 C2379 1.370 1_655 S
C2378 C2382 1.524 1_655 S
C2379 C2371 1.503 . S
C2379 C2378 1.370 1_455 S
C2379 C2380 1.403 1_455 S
C2380 C2379 1.403 1_655 S
C2380 C2381 1.404 . S
C2380 C2383 1.539 1_655 S
C2381 C2377 1.408 . S
C2381 C2380 1.404 . S
C2381 H2393 0.930 . S
C2382 C2378 1.524 1_455 S
C2382 H2394 0.956 . S
C2382 H2395 0.961 . S
C2382 H2396 0.961 1_455 S
C2383 C2380 1.539 1_455 S
C2383 H2397 0.958 . S
C2383 H2398 0.965 . S
C2383 H2399 0.960 . S
H2384 C2368 0.931 . S
H2385 C2373 0.929 . S
H2386 C2374 0.960 . S
H2387 C2374 0.962 . S
H2388 C2374 0.960 . S
H2389 C2375 0.961 . S
H2390 C2375 0.961 . S
H2391 C2375 0.961 . S
H2392 C2376 0.931 . S
H2393 C2381 0.930 . S
H2394 C2382 0.956 . S
H2395 C2382 0.961 . S
H2396 C2382 0.961 1_655 S
H2397 C2383 0.958 . S
H2398 C2383 0.965 . S
H2399 C2383 0.960 . S
C2400 C2401 1.391 . S
C2400 C2402 1.394 . S
C2400 H2416 0.931 . S
C2401 C2400 1.391 . S
C2401 C2405 1.376 . S
C2402 C2400 1.394 . S
C2402 C2403 1.369 . S
C2402 C2406 1.531 . S
C2403 C2402 1.369 . S
C2403 C2404 1.410 . S
C2403 C2411 1.503 . S
C2404 C2403 1.410 . S
C2404 C2405 1.392 . S
C2404 C2407 1.511 . S
C2405 C2401 1.376 . S
C2405 C2404 1.392 . S
C2405 H2417 0.929 . S
C2406 C2402 1.531 . S
C2406 H2418 0.960 . S
C2406 H2419 0.962 . S
C2406 H2420 0.960 . S
C2407 C2404 1.511 . S
C2407 H2421 0.961 . S
C2407 H2422 0.961 . S
C2407 H2423 0.961 . S
C2408 C2409 1.370 . S
C2408 C2410 1.363 . S
C2408 H2424 0.931 . S
C2409 C2408 1.370 . S
C2409 C2413 1.408 . S
C2410 C2408 1.363 . S
C2410 C2411 1.370 . S
C2410 C2414 1.524 . S
C2411 C2403 1.503 . S
C2411 C2410 1.370 . S
C2411 C2412 1.403 . S
C2412 C2411 1.403 . S
C2412 C2413 1.404 . S
C2412 C2415 1.539 . S
C2413 C2409 1.408 . S
C2413 C2412 1.404 . S
C2413 H2425 0.930 . S
C2414 C2410 1.524 . S
C2414 H2426 0.956 . S
C2414 H2427 0.961 . S
C2414 H2428 0.961 . S
C2415 C2412 1.539 . S
C2415 H2429 0.958 . S
C2415 H2430 0.961 . S
C2415 H2431 0.960 . S
H2416 C2400 0.931 . S
H2417 C2405 0.929 . S
H2418 C2406 0.960 . S
H2419 C2406 0.962 . S
H2420 C2406 0.960 . S
H2421 C2407 0.961 . S
H2422 C2407 0.961 . S
H2423 C2407 0.961 . S
H2424 C2408 0.931 . S
H2425 C2413 0.930 . S
H2426 C2414 0.956 . S
H2427 C2414 0.961 . S
H2428 C2414 0.961 . S
H2429 C2415 0.958 . S
H2430 C2415 0.961 . S
H2431 C2415 0.960 . S
C2432 C2433 1.391 . S
C2432 C2434 1.394 . S
C2432 H2448 0.931 . S
C2433 C2432 1.391 . S
C2433 C2437 1.376 . S
C2434 C2432 1.394 . S
C2434 C2435 1.369 . S
C2434 C2438 1.531 . S
C2435 C2434 1.369 . S
C2435 C2436 1.410 . S
C2435 C2443 1.503 . S
C2436 C2435 1.410 . S
C2436 C2437 1.392 . S
C2436 C2439 1.511 . S
C2437 C2433 1.376 . S
C2437 C2436 1.392 . S
C2437 H2449 0.929 . S
C2438 C2434 1.531 . S
C2438 H2450 0.960 . S
C2438 H2451 0.962 . S
C2438 H2452 0.960 . S
C2439 C2436 1.511 . S
C2439 H2453 0.961 . S
C2439 H2454 0.961 . S
C2439 H2455 0.961 . S
C2440 C2441 1.370 . S
C2440 C2442 1.363 . S
C2440 H2456 0.931 . S
C2441 C2440 1.370 . S
C2441 C2445 1.408 . S
C2442 C2440 1.363 . S
C2442 C2443 1.370 . S
C2442 C2446 1.524 . S
C2443 C2435 1.503 . S
C2443 C2442 1.370 . S
C2443 C2444 1.403 . S
C2444 C2443 1.403 . S
C2444 C2445 1.404 . S
C2444 C2447 1.539 . S
C2445 C2441 1.408 . S
C2445 C2444 1.404 . S
C2445 H2457 0.930 . S
C2446 C2442 1.524 . S
C2446 H2458 0.956 . S
C2446 H2459 0.961 . S
C2446 H2460 0.961 . S
C2447 C2444 1.539 . S
C2447 H2461 0.958 . S
C2447 H2462 0.961 . S
C2447 H2463 0.960 . S
H2448 C2432 0.931 . S
H2449 C2437 0.929 . S
H2450 C2438 0.960 . S
H2451 C2438 0.962 . S
H2452 C2438 0.960 . S
H2453 C2439 0.961 . S
H2454 C2439 0.961 . S
H2455 C2439 0.961 . S
H2456 C2440 0.931 . S
H2457 C2445 0.930 . S
H2458 C2446 0.956 . S
H2459 C2446 0.961 . S
H2460 C2446 0.961 . S
H2461 C2447 0.958 . S
H2462 C2447 0.961 . S
H2463 C2447 0.960 . S
C2464 C2465 1.391 . S
C2464 C2466 1.394 . S
C2464 H2480 0.931 . S
C2465 C2464 1.391 . S
C2465 C2469 1.376 . S
C2466 C2464 1.394 . S
C2466 C2467 1.369 . S
C2466 C2470 1.531 . S
C2467 C2466 1.369 . S
C2467 C2468 1.410 . S
C2467 C2475 1.503 . S
C2468 C2467 1.410 . S
C2468 C2469 1.392 . S
C2468 C2471 1.511 . S
C2469 C2465 1.376 . S
C2469 C2468 1.392 . S
C2469 H2481 0.929 . S
C2470 C2466 1.531 . S
C2470 H2482 0.960 . S
C2470 H2483 0.962 . S
C2470 H2484 0.960 . S
C2471 C2468 1.511 . S
C2471 H2485 0.961 . S
C2471 H2486 0.961 . S
C2471 H2487 0.961 . S
C2472 C2473 1.370 . S
C2472 C2474 1.363 . S
C2472 H2488 0.931 . S
C2473 C2472 1.370 . S
C2473 C2477 1.408 . S
C2474 C2472 1.363 . S
C2474 C2475 1.370 . S
C2474 C2478 1.524 . S
C2475 C2467 1.503 . S
C2475 C2474 1.370 . S
C2475 C2476 1.403 . S
C2476 C2475 1.403 . S
C2476 C2477 1.404 . S
C2476 C2479 1.539 . S
C2477 C2473 1.408 . S
C2477 C2476 1.404 . S
C2477 H2489 0.930 . S
C2478 C2474 1.524 . S
C2478 H2490 0.956 . S
C2478 H2491 0.961 . S
C2478 H2492 0.961 . S
C2479 C2476 1.539 . S
C2479 H2493 0.958 . S
C2479 H2494 0.961 . S
C2479 H2495 0.960 . S
H2480 C2464 0.931 . S
H2481 C2469 0.929 . S
H2482 C2470 0.960 . S
H2483 C2470 0.962 . S
H2484 C2470 0.960 . S
H2485 C2471 0.961 . S
H2486 C2471 0.961 . S
H2487 C2471 0.961 . S
H2488 C2472 0.931 . S
H2489 C2477 0.930 . S
H2490 C2478 0.956 . S
H2491 C2478 0.961 . S
H2492 C2478 0.961 . S
H2493 C2479 0.958 . S
H2494 C2479 0.961 . S
H2495 C2479 0.960 . S
C2496 C2497 1.391 . S
C2496 C2498 1.394 . S
C2496 H2512 0.931 . S
C2497 C2496 1.391 . S
C2497 C2501 1.376 . S
C2498 C2496 1.394 . S
C2498 C2499 1.369 . S
C2498 C2502 1.531 . S
C2499 C2498 1.369 . S
C2499 C2500 1.410 . S
C2499 C2507 1.503 . S
C2500 C2499 1.410 . S
C2500 C2501 1.392 . S
C2500 C2503 1.511 . S
C2501 C2497 1.376 . S
C2501 C2500 1.392 . S
C2501 H2513 0.929 . S
C2502 C2498 1.531 . S
C2502 H2514 0.960 . S
C2502 H2515 0.962 . S
C2502 H2516 0.960 . S
C2503 C2500 1.511 . S
C2503 H2517 0.961 . S
C2503 H2518 0.961 . S
C2503 H2519 0.961 . S
C2504 C2505 1.370 . S
C2504 C2506 1.363 . S
C2504 H2520 0.931 . S
C2505 C2504 1.370 . S
C2505 C2509 1.408 . S
C2506 C2504 1.363 . S
C2506 C2507 1.370 1_556 S
C2506 C2510 1.524 1_556 S
C2507 C2499 1.503 . S
C2507 C2506 1.370 1_554 S
C2507 C2508 1.403 1_554 S
C2508 C2507 1.403 1_556 S
C2508 C2509 1.404 . S
C2508 C2511 1.539 1_556 S
C2509 C2505 1.408 . S
C2509 C2508 1.404 . S
C2509 H2521 0.930 . S
C2510 C2506 1.524 1_554 S
C2510 H2522 0.956 . S
C2510 H2523 0.961 . S
C2510 H2524 0.961 1_554 S
C2511 C2508 1.539 1_554 S
C2511 H2525 0.958 . S
C2511 H2526 0.984 . S
C2511 H2527 0.960 . S
H2512 C2496 0.931 . S
H2513 C2501 0.929 . S
H2514 C2502 0.960 . S
H2515 C2502 0.962 . S
H2516 C2502 0.960 . S
H2517 C2503 0.961 . S
H2518 C2503 0.961 . S
H2519 C2503 0.961 . S
H2520 C2504 0.931 . S
H2521 C2509 0.930 . S
H2522 C2510 0.956 . S
H2523 C2510 0.961 . S
H2524 C2510 0.961 1_556 S
H2525 C2511 0.958 . S
H2526 C2511 0.984 . S
H2527 C2511 0.960 . S
C2528 C2529 1.391 . S
C2528 C2530 1.394 . S
C2528 H2544 0.931 . S
C2529 C2528 1.391 . S
C2529 C2533 1.376 . S
C2530 C2528 1.394 . S
C2530 C2531 1.369 . S
C2530 C2534 1.531 . S
C2531 C2530 1.369 . S
C2531 C2532 1.410 . S
C2531 C2539 1.503 . S
C2532 C2531 1.410 . S
C2532 C2533 1.392 . S
C2532 C2535 1.511 . S
C2533 C2529 1.376 . S
C2533 C2532 1.392 . S
C2533 H2545 0.929 . S
C2534 C2530 1.531 . S
C2534 H2546 0.960 . S
C2534 H2547 0.962 . S
C2534 H2548 0.960 . S
C2535 C2532 1.511 . S
C2535 H2549 0.961 . S
C2535 H2550 0.961 . S
C2535 H2551 0.961 . S
C2536 C2537 1.370 . S
C2536 C2538 1.363 . S
C2536 H2552 0.931 . S
C2537 C2536 1.370 . S
C2537 C2541 1.408 . S
C2538 C2536 1.363 . S
C2538 C2539 1.370 . S
C2538 C2542 1.524 . S
C2539 C2531 1.503 . S
C2539 C2538 1.370 . S
C2539 C2540 1.403 . S
C2540 C2539 1.403 . S
C2540 C2541 1.404 . S
C2540 C2543 1.539 . S
C2541 C2537 1.408 . S
C2541 C2540 1.404 . S
C2541 H2553 0.930 . S
C2542 C2538 1.524 . S
C2542 H2554 0.956 . S
C2542 H2555 0.961 . S
C2542 H2556 0.961 . S
C2543 C2540 1.539 . S
C2543 H2557 0.958 . S
C2543 H2558 0.961 . S
C2543 H2559 0.960 . S
H2544 C2528 0.931 . S
H2545 C2533 0.929 . S
H2546 C2534 0.960 . S
H2547 C2534 0.962 . S
H2548 C2534 0.960 . S
H2549 C2535 0.961 . S
H2550 C2535 0.961 . S
H2551 C2535 0.961 . S
H2552 C2536 0.931 . S
H2553 C2541 0.930 . S
H2554 C2542 0.956 . S
H2555 C2542 0.961 . S
H2556 C2542 0.961 . S
H2557 C2543 0.958 . S
H2558 C2543 0.961 . S
H2559 C2543 0.960 . S
C2560 C2561 1.391 . S
C2560 C2562 1.394 . S
C2560 H2576 0.931 . S
C2561 C2560 1.391 . S
C2561 C2565 1.376 . S
C2562 C2560 1.394 . S
C2562 C2563 1.369 . S
C2562 C2566 1.531 . S
C2563 C2562 1.369 . S
C2563 C2564 1.410 . S
C2563 C2571 1.503 . S
C2564 C2563 1.410 . S
C2564 C2565 1.392 . S
C2564 C2567 1.511 . S
C2565 C2561 1.376 . S
C2565 C2564 1.392 . S
C2565 H2577 0.929 . S
C2566 C2562 1.531 . S
C2566 H2578 0.960 . S
C2566 H2579 0.962 . S
C2566 H2580 0.960 . S
C2567 C2564 1.511 . S
C2567 H2581 0.961 . S
C2567 H2582 0.961 . S
C2567 H2583 0.961 . S
C2568 C2569 1.370 . S
C2568 C2570 1.363 . S
C2568 H2584 0.931 . S
C2569 C2568 1.370 . S
C2569 C2573 1.408 . S
C2570 C2568 1.363 . S
C2570 C2571 1.370 . S
C2570 C2574 1.524 . S
C2571 C2563 1.503 . S
C2571 C2570 1.370 . S
C2571 C2572 1.403 . S
C2572 C2571 1.403 . S
C2572 C2573 1.404 . S
C2572 C2575 1.539 . S
C2573 C2569 1.408 . S
C2573 C2572 1.404 . S
C2573 H2585 0.930 . S
C2574 C2570 1.524 . S
C2574 H2586 0.956 . S
C2574 H2587 0.961 . S
C2574 H2588 0.961 . S
C2575 C2572 1.539 . S
C2575 H2589 0.958 . S
C2575 H2590 0.961 . S
C2575 H2591 0.960 . S
H2576 C2560 0.931 . S
H2577 C2565 0.929 . S
H2578 C2566 0.960 . S
H2579 C2566 0.962 . S
H2580 C2566 0.960 . S
H2581 C2567 0.961 . S
H2582 C2567 0.961 . S
H2583 C2567 0.961 . S
H2584 C2568 0.931 . S
H2585 C2573 0.930 . S
H2586 C2574 0.956 . S
H2587 C2574 0.961 . S
H2588 C2574 0.961 . S
H2589 C2575 0.958 . S
H2590 C2575 0.961 . S
H2591 C2575 0.960 . S
C2592 C2593 1.391 . S
C2592 C2594 1.394 . S
C2592 H2608 0.931 . S
C2593 C2592 1.391 . S
C2593 C2597 1.376 . S
C2594 C2592 1.394 . S
C2594 C2595 1.369 . S
C2594 C2598 1.531 . S
C2595 C2594 1.369 . S
C2595 C2596 1.410 . S
C2595 C2603 1.503 . S
C2596 C2595 1.410 . S
C2596 C2597 1.392 . S
C2596 C2599 1.511 . S
C2597 C2593 1.376 . S
C2597 C2596 1.392 . S
C2597 H2609 0.929 . S
C2598 C2594 1.531 . S
C2598 H2610 0.960 . S
C2598 H2611 0.962 . S
C2598 H2612 0.960 . S
C2599 C2596 1.511 . S
C2599 H2613 0.961 . S
C2599 H2614 0.961 . S
C2599 H2615 0.961 . S
C2600 C2601 1.370 . S
C2600 C2602 1.363 . S
C2600 H2616 0.931 . S
C2601 C2600 1.370 . S
C2601 C2605 1.408 . S
C2602 C2600 1.363 . S
C2602 C2603 1.370 . S
C2602 C2606 1.524 . S
C2603 C2595 1.503 . S
C2603 C2602 1.370 . S
C2603 C2604 1.403 . S
C2604 C2603 1.403 . S
C2604 C2605 1.404 . S
C2604 C2607 1.539 . S
C2605 C2601 1.408 . S
C2605 C2604 1.404 . S
C2605 H2617 0.930 . S
C2606 C2602 1.524 . S
C2606 H2618 0.956 . S
C2606 H2619 0.961 . S
C2606 H2620 0.961 . S
C2607 C2604 1.539 . S
C2607 H2621 0.958 . S
C2607 H2622 0.961 . S
C2607 H2623 0.960 . S
H2608 C2592 0.931 . S
H2609 C2597 0.929 . S
H2610 C2598 0.960 . S
H2611 C2598 0.962 . S
H2612 C2598 0.960 . S
H2613 C2599 0.961 . S
H2614 C2599 0.961 . S
H2615 C2599 0.961 . S
H2616 C2600 0.931 . S
H2617 C2605 0.930 . S
H2618 C2606 0.956 . S
H2619 C2606 0.961 . S
H2620 C2606 0.961 . S
H2621 C2607 0.958 . S
H2622 C2607 0.961 . S
H2623 C2607 0.960 . S
C2624 C2625 1.391 . S
C2624 C2626 1.394 . S
C2624 H2640 0.931 . S
C2625 C2624 1.391 . S
C2625 C2629 1.376 . S
C2626 C2624 1.394 . S
C2626 C2627 1.369 . S
C2626 C2630 1.531 . S
C2627 C2626 1.369 . S
C2627 C2628 1.410 . S
C2627 C2635 1.503 . S
C2628 C2627 1.410 . S
C2628 C2629 1.392 . S
C2628 C2631 1.511 . S
C2629 C2625 1.376 . S
C2629 C2628 1.392 . S
C2629 H2641 0.929 . S
C2630 C2626 1.531 . S
C2630 H2642 0.960 . S
C2630 H2643 0.962 . S
C2630 H2644 0.960 . S
C2631 C2628 1.511 . S
C2631 H2645 0.961 . S
C2631 H2646 0.961 . S
C2631 H2647 0.961 . S
C2632 C2633 1.370 . S
C2632 C2634 1.363 . S
C2632 H2648 0.931 . S
C2633 C2632 1.370 . S
C2633 C2637 1.408 . S
C2634 C2632 1.363 . S
C2634 C2635 1.370 1_554 S
C2634 C2638 1.524 1_554 S
C2635 C2627 1.503 . S
C2635 C2634 1.370 1_556 S
C2635 C2636 1.403 . S
C2636 C2635 1.403 . S
C2636 C2637 1.404 1_556 S
C2636 C2639 1.539 . S
C2637 C2633 1.408 . S
C2637 C2636 1.404 1_554 S
C2637 H2649 0.930 . S
C2638 C2634 1.524 1_556 S
C2638 H2650 0.956 . S
C2638 H2651 0.961 . S
C2638 H2652 0.961 1_556 S
C2639 C2636 1.539 . S
C2639 H2653 0.958 . S
C2639 H2654 0.961 . S
C2639 H2655 0.960 . S
H2640 C2624 0.931 . S
H2641 C2629 0.929 . S
H2642 C2630 0.960 . S
H2643 C2630 0.962 . S
H2644 C2630 0.960 . S
H2645 C2631 0.961 . S
H2646 C2631 0.961 . S
H2647 C2631 0.961 . S
H2648 C2632 0.931 . S
H2649 C2637 0.930 . S
H2650 C2638 0.956 . S
H2651 C2638 0.961 . S
H2652 C2638 0.961 1_554 S
H2653 C2639 0.958 . S
H2654 C2639 0.961 . S
H2655 C2639 0.960 . S
C2656 C2657 1.391 . S
C2656 C2658 1.394 . S
C2656 H2672 0.931 . S
C2657 C2656 1.391 . S
C2657 C2661 1.376 . S
C2658 C2656 1.394 . S
C2658 C2659 1.369 . S
C2658 C2662 1.531 . S
C2659 C2658 1.369 . S
C2659 C2660 1.410 . S
C2659 C2667 1.503 . S
C2660 C2659 1.410 . S
C2660 C2661 1.392 . S
C2660 C2663 1.511 . S
C2661 C2657 1.376 . S
C2661 C2660 1.392 . S
C2661 H2673 0.929 . S
C2662 C2658 1.531 . S
C2662 H2674 0.960 . S
C2662 H2675 0.962 . S
C2662 H2676 0.960 . S
C2663 C2660 1.511 . S
C2663 H2677 0.961 . S
C2663 H2678 0.961 . S
C2663 H2679 0.961 . S
C2664 C2665 1.370 . S
C2664 C2666 1.363 . S
C2664 H2680 0.931 . S
C2665 C2664 1.370 . S
C2665 C2669 1.408 . S
C2666 C2664 1.363 . S
C2666 C2667 1.370 . S
C2666 C2670 1.524 . S
C2667 C2659 1.503 . S
C2667 C2666 1.370 . S
C2667 C2668 1.403 . S
C2668 C2667 1.403 . S
C2668 C2669 1.404 . S
C2668 C2671 1.539 . S
C2669 C2665 1.408 . S
C2669 C2668 1.404 . S
C2669 H2681 0.930 . S
C2670 C2666 1.524 . S
C2670 H2682 0.956 . S
C2670 H2683 0.961 . S
C2670 H2684 0.961 . S
C2671 C2668 1.539 . S
C2671 H2685 0.958 . S
C2671 H2686 0.961 . S
C2671 H2687 0.960 . S
H2672 C2656 0.931 . S
H2673 C2661 0.929 . S
H2674 C2662 0.960 . S
H2675 C2662 0.962 . S
H2676 C2662 0.960 . S
H2677 C2663 0.961 . S
H2678 C2663 0.961 . S
H2679 C2663 0.961 . S
H2680 C2664 0.931 . S
H2681 C2669 0.930 . S
H2682 C2670 0.956 . S
H2683 C2670 0.961 . S
H2684 C2670 0.961 . S
H2685 C2671 0.958 . S
H2686 C2671 0.961 . S
H2687 C2671 0.960 . S
C2688 C2689 1.391 . S
C2688 C2690 1.394 . S
C2688 H2704 0.931 . S
C2689 C2688 1.391 . S
C2689 C2693 1.376 . S
C2690 C2688 1.394 . S
C2690 C2691 1.369 . S
C2690 C2694 1.531 . S
C2691 C2690 1.369 . S
C2691 C2692 1.410 . S
C2691 C2699 1.503 . S
C2692 C2691 1.410 . S
C2692 C2693 1.392 . S
C2692 C2695 1.511 . S
C2693 C2689 1.376 . S
C2693 C2692 1.392 . S
C2693 H2705 0.929 . S
C2694 C2690 1.531 . S
C2694 H2706 0.960 . S
C2694 H2707 0.962 . S
C2694 H2708 0.960 . S
C2695 C2692 1.511 . S
C2695 H2709 0.961 . S
C2695 H2710 0.961 . S
C2695 H2711 0.961 . S
C2696 C2697 1.370 . S
C2696 C2698 1.363 . S
C2696 H2712 0.931 . S
C2697 C2696 1.370 . S
C2697 C2701 1.408 . S
C2698 C2696 1.363 . S
C2698 C2699 1.370 . S
C2698 C2702 1.524 . S
C2699 C2691 1.503 . S
C2699 C2698 1.370 . S
C2699 C2700 1.403 . S
C2700 C2699 1.403 . S
C2700 C2701 1.404 . S
C2700 C2703 1.539 . S
C2701 C2697 1.408 . S
C2701 C2700 1.404 . S
C2701 H2713 0.930 . S
C2702 C2698 1.524 . S
C2702 H2714 0.956 . S
C2702 H2715 0.961 . S
C2702 H2716 0.961 . S
C2703 C2700 1.539 . S
C2703 H2717 0.958 . S
C2703 H2718 0.961 . S
C2703 H2719 0.960 . S
H2704 C2688 0.931 . S
H2705 C2693 0.929 . S
H2706 C2694 0.960 . S
H2707 C2694 0.962 . S
H2708 C2694 0.960 . S
H2709 C2695 0.961 . S
H2710 C2695 0.961 . S
H2711 C2695 0.961 . S
H2712 C2696 0.931 . S
H2713 C2701 0.930 . S
H2714 C2702 0.956 . S
H2715 C2702 0.961 . S
H2716 C2702 0.961 . S
H2717 C2703 0.958 . S
H2718 C2703 0.961 . S
H2719 C2703 0.960 . S
C2720 C2721 1.391 . S
C2720 C2722 1.394 . S
C2720 H2736 0.931 . S
C2721 C2720 1.391 . S
C2721 C2725 1.376 . S
C2722 C2720 1.394 . S
C2722 C2723 1.369 . S
C2722 C2726 1.531 . S
C2723 C2722 1.369 . S
C2723 C2724 1.410 . S
C2723 C2731 1.503 . S
C2724 C2723 1.410 . S
C2724 C2725 1.392 . S
C2724 C2727 1.511 . S
C2725 C2721 1.376 . S
C2725 C2724 1.392 . S
C2725 H2737 0.929 . S
C2726 C2722 1.531 . S
C2726 H2738 0.960 . S
C2726 H2739 0.962 . S
C2726 H2740 0.960 . S
C2727 C2724 1.511 . S
C2727 H2741 0.961 . S
C2727 H2742 0.961 . S
C2727 H2743 0.961 . S
C2728 C2729 1.370 . S
C2728 C2730 1.363 . S
C2728 H2744 0.931 . S
C2729 C2728 1.370 . S
C2729 C2733 1.408 . S
C2730 C2728 1.363 . S
C2730 C2731 1.370 . S
C2730 C2734 1.524 . S
C2731 C2723 1.503 . S
C2731 C2730 1.370 . S
C2731 C2732 1.403 . S
C2732 C2731 1.403 . S
C2732 C2733 1.404 . S
C2732 C2735 1.539 . S
C2733 C2729 1.408 . S
C2733 C2732 1.404 . S
C2733 H2745 0.930 . S
C2734 C2730 1.524 . S
C2734 H2746 0.956 . S
C2734 H2747 0.961 . S
C2734 H2748 0.961 . S
C2735 C2732 1.539 . S
C2735 H2749 0.958 . S
C2735 H2750 0.961 . S
C2735 H2751 0.960 . S
H2736 C2720 0.931 . S
H2737 C2725 0.929 . S
H2738 C2726 0.960 . S
H2739 C2726 0.962 . S
H2740 C2726 0.960 . S
H2741 C2727 0.961 . S
H2742 C2727 0.961 . S
H2743 C2727 0.961 . S
H2744 C2728 0.931 . S
H2745 C2733 0.930 . S
H2746 C2734 0.956 . S
H2747 C2734 0.961 . S
H2748 C2734 0.961 . S
H2749 C2735 0.958 . S
H2750 C2735 0.961 . S
H2751 C2735 0.960 . S
C2752 C2753 1.391 . S
C2752 C2754 1.394 . S
C2752 H2768 0.931 . S
C2753 C2752 1.391 . S
C2753 C2757 1.376 . S
C2754 C2752 1.394 . S
C2754 C2755 1.369 . S
C2754 C2758 1.531 . S
C2755 C2754 1.369 . S
C2755 C2756 1.410 . S
C2755 C2763 1.503 . S
C2756 C2755 1.410 . S
C2756 C2757 1.392 . S
C2756 C2759 1.511 . S
C2757 C2753 1.376 . S
C2757 C2756 1.392 . S
C2757 H2769 0.929 . S
C2758 C2754 1.531 . S
C2758 H2770 0.960 . S
C2758 H2771 0.962 . S
C2758 H2772 0.960 . S
C2759 C2756 1.511 . S
C2759 H2773 0.961 . S
C2759 H2774 0.961 . S
C2759 H2775 0.961 . S
C2760 C2761 1.370 . S
C2760 C2762 1.363 . S
C2760 H2776 0.931 . S
C2761 C2760 1.370 . S
C2761 C2765 1.408 . S
C2762 C2760 1.363 . S
C2762 C2763 1.370 . S
C2762 C2766 1.524 . S
C2763 C2755 1.503 . S
C2763 C2762 1.370 . S
C2763 C2764 1.403 . S
C2764 C2763 1.403 . S
C2764 C2765 1.404 . S
C2764 C2767 1.539 . S
C2765 C2761 1.408 . S
C2765 C2764 1.404 . S
C2765 H2777 0.930 . S
C2766 C2762 1.524 . S
C2766 H2778 0.956 . S
C2766 H2779 0.961 . S
C2766 H2780 0.961 . S
C2767 C2764 1.539 . S
C2767 H2781 0.958 . S
C2767 H2782 0.961 . S
C2767 H2783 0.960 . S
H2768 C2752 0.931 . S
H2769 C2757 0.929 . S
H2770 C2758 0.960 . S
H2771 C2758 0.962 . S
H2772 C2758 0.960 . S
H2773 C2759 0.961 . S
H2774 C2759 0.961 . S
H2775 C2759 0.961 . S
H2776 C2760 0.931 . S
H2777 C2765 0.930 . S
H2778 C2766 0.956 . S
H2779 C2766 0.961 . S
H2780 C2766 0.961 . S
H2781 C2767 0.958 . S
H2782 C2767 0.961 . S
H2783 C2767 0.960 . S
C2784 C2785 1.391 . S
C2784 C2786 1.394 . S
C2784 H2800 0.931 . S
C2785 C2784 1.391 . S
C2785 C2789 1.376 . S
C2786 C2784 1.394 . S
C2786 C2787 1.369 . S
C2786 C2790 1.531 . S
C2787 C2786 1.369 . S
C2787 C2788 1.410 . S
C2787 C2795 1.503 . S
C2788 C2787 1.410 . S
C2788 C2789 1.392 . S
C2788 C2791 1.511 . S
C2789 C2785 1.376 . S
C2789 C2788 1.392 . S
C2789 H2801 0.929 . S
C2790 C2786 1.531 . S
C2790 H2802 0.960 . S
C2790 H2803 0.962 . S
C2790 H2804 0.960 . S
C2791 C2788 1.511 . S
C2791 H2805 0.961 . S
C2791 H2806 0.961 . S
C2791 H2807 0.961 . S
C2792 C2793 1.370 . S
C2792 C2794 1.363 . S
C2792 H2808 0.931 . S
C2793 C2792 1.370 . S
C2793 C2797 1.408 . S
C2794 C2792 1.363 . S
C2794 C2795 1.370 1_565 S
C2794 C2798 1.524 1_565 S
C2795 C2787 1.503 . S
C2795 C2794 1.370 1_545 S
C2795 C2796 1.403 . S
C2796 C2795 1.403 . S
C2796 C2797 1.404 1_545 S
C2796 C2799 1.539 . S
C2797 C2793 1.408 . S
C2797 C2796 1.404 1_565 S
C2797 H2809 0.930 . S
C2798 C2794 1.524 1_545 S
C2798 H2810 0.956 . S
C2798 H2811 0.961 . S
C2798 H2812 0.961 1_545 S
C2799 C2796 1.539 . S
C2799 H2813 0.958 . S
C2799 H2814 0.961 . S
C2799 H2815 0.960 . S
H2800 C2784 0.931 . S
H2801 C2789 0.929 . S
H2802 C2790 0.960 . S
H2803 C2790 0.962 . S
H2804 C2790 0.960 . S
H2805 C2791 0.961 . S
H2806 C2791 0.961 . S
H2807 C2791 0.961 . S
H2808 C2792 0.931 . S
H2809 C2797 0.930 . S
H2810 C2798 0.956 . S
H2811 C2798 0.961 . S
H2812 C2798 0.961 1_565 S
H2813 C2799 0.958 . S
H2814 C2799 0.961 . S
H2815 C2799 0.960 . S
C2816 C2817 1.391 . S
C2816 C2818 1.394 . S
C2816 H2832 0.931 . S
C2817 C2816 1.391 . S
C2817 C2821 1.376 . S
C2818 C2816 1.394 . S
C2818 C2819 1.369 . S
C2818 C2822 1.531 . S
C2819 C2818 1.369 . S
C2819 C2820 1.410 . S
C2819 C2827 1.503 . S
C2820 C2819 1.410 . S
C2820 C2821 1.392 . S
C2820 C2823 1.511 . S
C2821 C2817 1.376 . S
C2821 C2820 1.392 . S
C2821 H2833 0.929 . S
C2822 C2818 1.531 . S
C2822 H2834 0.960 . S
C2822 H2835 0.962 . S
C2822 H2836 0.960 . S
C2823 C2820 1.511 . S
C2823 H2837 0.961 . S
C2823 H2838 0.961 . S
C2823 H2839 0.961 . S
C2824 C2825 1.370 . S
C2824 C2826 1.363 . S
C2824 H2840 0.931 . S
C2825 C2824 1.370 . S
C2825 C2829 1.408 . S
C2826 C2824 1.363 . S
C2826 C2827 1.370 . S
C2826 C2830 1.524 . S
C2827 C2819 1.503 . S
C2827 C2826 1.370 . S
C2827 C2828 1.403 . S
C2828 C2827 1.403 . S
C2828 C2829 1.404 . S
C2828 C2831 1.539 . S
C2829 C2825 1.408 . S
C2829 C2828 1.404 . S
C2829 H2841 0.930 . S
C2830 C2826 1.524 . S
C2830 H2842 0.956 . S
C2830 H2843 0.961 . S
C2830 H2844 0.961 . S
C2831 C2828 1.539 . S
C2831 H2845 0.958 . S
C2831 H2846 0.961 . S
C2831 H2847 0.960 . S
H2832 C2816 0.931 . S
H2833 C2821 0.929 . S
H2834 C2822 0.960 . S
H2835 C2822 0.962 . S
H2836 C2822 0.960 . S
H2837 C2823 0.961 . S
H2838 C2823 0.961 . S
H2839 C2823 0.961 . S
H2840 C2824 0.931 . S
H2841 C2829 0.930 . S
H2842 C2830 0.956 . S
H2843 C2830 0.961 . S
H2844 C2830 0.961 . S
H2845 C2831 0.958 . S
H2846 C2831 0.961 . S
H2847 C2831 0.960 . S
C2848 C2849 1.391 . S
C2848 C2850 1.394 . S
C2848 H2864 0.931 . S
C2849 C2848 1.391 . S
C2849 C2853 1.376 . S
C2850 C2848 1.394 . S
C2850 C2851 1.369 . S
C2850 C2854 1.531 . S
C2851 C2850 1.369 . S
C2851 C2852 1.410 . S
C2851 C2859 1.503 . S
C2852 C2851 1.410 . S
C2852 C2853 1.392 . S
C2852 C2855 1.511 . S
C2853 C2849 1.376 . S
C2853 C2852 1.392 . S
C2853 H2865 0.929 . S
C2854 C2850 1.531 . S
C2854 H2866 0.960 . S
C2854 H2867 0.962 . S
C2854 H2868 0.960 . S
C2855 C2852 1.511 . S
C2855 H2869 0.961 . S
C2855 H2870 0.961 . S
C2855 H2871 0.961 . S
C2856 C2857 1.370 . S
C2856 C2858 1.363 . S
C2856 H2872 0.931 . S
C2857 C2856 1.370 . S
C2857 C2861 1.408 . S
C2858 C2856 1.363 . S
C2858 C2859 1.370 . S
C2858 C2862 1.524 . S
C2859 C2851 1.503 . S
C2859 C2858 1.370 . S
C2859 C2860 1.403 . S
C2860 C2859 1.403 . S
C2860 C2861 1.404 . S
C2860 C2863 1.539 . S
C2861 C2857 1.408 . S
C2861 C2860 1.404 . S
C2861 H2873 0.930 . S
C2862 C2858 1.524 . S
C2862 H2874 0.956 . S
C2862 H2875 0.961 . S
C2862 H2876 0.961 . S
C2863 C2860 1.539 . S
C2863 H2877 0.958 . S
C2863 H2878 0.961 . S
C2863 H2879 0.960 . S
H2864 C2848 0.931 . S
H2865 C2853 0.929 . S
H2866 C2854 0.960 . S
H2867 C2854 0.962 . S
H2868 C2854 0.960 . S
H2869 C2855 0.961 . S
H2870 C2855 0.961 . S
H2871 C2855 0.961 . S
H2872 C2856 0.931 . S
H2873 C2861 0.930 . S
H2874 C2862 0.956 . S
H2875 C2862 0.961 . S
H2876 C2862 0.961 . S
H2877 C2863 0.958 . S
H2878 C2863 0.961 . S
H2879 C2863 0.960 . S
C2880 C2881 1.391 . S
C2880 C2882 1.394 . S
C2880 H2896 0.931 . S
C2881 C2880 1.391 . S
C2881 C2885 1.376 . S
C2882 C2880 1.394 . S
C2882 C2883 1.369 . S
C2882 C2886 1.531 . S
C2883 C2882 1.369 . S
C2883 C2884 1.410 . S
C2883 C2891 1.503 . S
C2884 C2883 1.410 . S
C2884 C2885 1.392 . S
C2884 C2887 1.511 . S
C2885 C2881 1.376 . S
C2885 C2884 1.392 . S
C2885 H2897 0.929 . S
C2886 C2882 1.531 . S
C2886 H2898 0.960 . S
C2886 H2899 0.962 . S
C2886 H2900 0.960 . S
C2887 C2884 1.511 . S
C2887 H2901 0.961 . S
C2887 H2902 0.961 . S
C2887 H2903 0.961 . S
C2888 C2889 1.370 . S
C2888 C2890 1.363 . S
C2888 H2904 0.931 . S
C2889 C2888 1.370 . S
C2889 C2893 1.408 . S
C2890 C2888 1.363 . S
C2890 C2891 1.370 . S
C2890 C2894 1.524 . S
C2891 C2883 1.503 . S
C2891 C2890 1.370 . S
C2891 C2892 1.403 . S
C2892 C2891 1.403 . S
C2892 C2893 1.404 . S
C2892 C2895 1.539 . S
C2893 C2889 1.408 . S
C2893 C2892 1.404 . S
C2893 H2905 0.930 . S
C2894 C2890 1.524 . S
C2894 H2906 0.956 . S
C2894 H2907 0.961 . S
C2894 H2908 0.961 . S
C2895 C2892 1.539 . S
C2895 H2909 0.958 . S
C2895 H2910 0.961 . S
C2895 H2911 0.960 . S
H2896 C2880 0.931 . S
H2897 C2885 0.929 . S
H2898 C2886 0.960 . S
H2899 C2886 0.962 . S
H2900 C2886 0.960 . S
H2901 C2887 0.961 . S
H2902 C2887 0.961 . S
H2903 C2887 0.961 . S
H2904 C2888 0.931 . S
H2905 C2893 0.930 . S
H2906 C2894 0.956 . S
H2907 C2894 0.961 . S
H2908 C2894 0.961 . S
H2909 C2895 0.958 . S
H2910 C2895 0.961 . S
H2911 C2895 0.960 . S
C2912 C2913 1.391 . S
C2912 C2914 1.394 . S
C2912 H2928 0.931 . S
C2913 C2912 1.391 . S
C2913 C2917 1.376 . S
C2914 C2912 1.394 . S
C2914 C2915 1.369 1_545 S
C2914 C2918 1.531 1_545 S
C2915 C2914 1.369 1_565 S
C2915 C2916 1.410 1_565 S
C2915 C2923 1.502 . S
C2916 C2915 1.410 1_545 S
C2916 C2917 1.392 . S
C2916 C2919 1.511 . S
C2917 C2913 1.376 . S
C2917 C2916 1.392 . S
C2917 H2929 0.929 . S
C2918 C2914 1.531 1_565 S
C2918 H2930 0.960 . S
C2918 H2931 0.962 . S
C2918 H2932 0.989 . S
C2919 C2916 1.511 . S
C2919 H2933 0.961 . S
C2919 H2934 0.961 1_545 S
C2919 H2935 0.961 . S
C2920 C2921 1.370 . S
C2920 C2922 1.363 . S
C2920 H2936 0.931 . S
C2921 C2920 1.370 . S
C2921 C2925 1.408 . S
C2922 C2920 1.363 . S
C2922 C2923 1.370 . S
C2922 C2926 1.524 . S
C2923 C2915 1.502 . S
C2923 C2922 1.370 . S
C2923 C2924 1.403 . S
C2924 C2923 1.403 . S
C2924 C2925 1.404 . S
C2924 C2927 1.539 . S
C2925 C2921 1.408 . S
C2925 C2924 1.404 . S
C2925 H2937 0.930 . S
C2926 C2922 1.524 . S
C2926 H2938 0.956 . S
C2926 H2939 0.961 . S
C2926 H2940 0.961 . S
C2927 C2924 1.539 . S
C2927 H2941 0.958 . S
C2927 H2942 0.961 . S
C2927 H2943 0.960 . S
H2928 C2912 0.931 . S
H2929 C2917 0.929 . S
H2930 C2918 0.960 . S
H2931 C2918 0.962 . S
H2932 C2918 0.989 . S
H2933 C2919 0.961 . S
H2934 C2919 0.961 1_565 S
H2935 C2919 0.961 . S
H2936 C2920 0.931 . S
H2937 C2925 0.930 . S
H2938 C2926 0.956 . S
H2939 C2926 0.961 . S
H2940 C2926 0.961 . S
H2941 C2927 0.958 . S
H2942 C2927 0.961 . S
H2943 C2927 0.960 . S
C2944 C2945 1.391 . S
C2944 C2946 1.394 . S
C2944 H2960 0.931 . S
C2945 C2944 1.391 . S
C2945 C2949 1.376 . S
C2946 C2944 1.394 . S
C2946 C2947 1.369 . S
C2946 C2950 1.531 . S
C2947 C2946 1.369 . S
C2947 C2948 1.410 . S
C2947 C2955 1.503 . S
C2948 C2947 1.410 . S
C2948 C2949 1.392 . S
C2948 C2951 1.511 . S
C2949 C2945 1.376 . S
C2949 C2948 1.392 . S
C2949 H2961 0.929 . S
C2950 C2946 1.531 . S
C2950 H2962 0.960 . S
C2950 H2963 0.962 . S
C2950 H2964 0.960 . S
C2951 C2948 1.511 . S
C2951 H2965 0.961 . S
C2951 H2966 0.961 . S
C2951 H2967 0.961 . S
C2952 C2953 1.370 . S
C2952 C2954 1.363 . S
C2952 H2968 0.931 . S
C2953 C2952 1.370 . S
C2953 C2957 1.408 . S
C2954 C2952 1.363 . S
C2954 C2955 1.370 1_565 S
C2954 C2958 1.524 1_565 S
C2955 C2947 1.503 . S
C2955 C2954 1.370 1_545 S
C2955 C2956 1.403 1_545 S
C2956 C2955 1.403 1_565 S
C2956 C2957 1.404 . S
C2956 C2959 1.539 1_565 S
C2957 C2953 1.408 . S
C2957 C2956 1.404 . S
C2957 H2969 0.930 . S
C2958 C2954 1.524 1_545 S
C2958 H2970 0.956 . S
C2958 H2971 0.961 . S
C2958 H2972 0.959 1_545 S
C2959 C2956 1.539 1_545 S
C2959 H2973 0.958 . S
C2959 H2974 0.961 1_545 S
C2959 H2975 0.960 . S
H2960 C2944 0.931 . S
H2961 C2949 0.929 . S
H2962 C2950 0.960 . S
H2963 C2950 0.962 . S
H2964 C2950 0.960 . S
H2965 C2951 0.961 . S
H2966 C2951 0.961 . S
H2967 C2951 0.961 . S
H2968 C2952 0.931 . S
H2969 C2957 0.930 . S
H2970 C2958 0.956 . S
H2971 C2958 0.961 . S
H2972 C2958 0.959 1_565 S
H2973 C2959 0.958 . S
H2974 C2959 0.961 1_565 S
H2975 C2959 0.960 . S
C2976 C2977 1.391 . S
C2976 C2978 1.394 . S
C2976 H2992 0.931 . S
C2977 C2976 1.391 . S
C2977 C2981 1.376 . S
C2978 C2976 1.394 . S
C2978 C2979 1.369 . S
C2978 C2982 1.531 . S
C2979 C2978 1.369 . S
C2979 C2980 1.410 . S
C2979 C2987 1.503 . S
C2980 C2979 1.410 . S
C2980 C2981 1.392 . S
C2980 C2983 1.511 . S
C2981 C2977 1.376 . S
C2981 C2980 1.392 . S
C2981 H2993 0.929 . S
C2982 C2978 1.531 . S
C2982 H2994 0.960 . S
C2982 H2995 0.962 . S
C2982 H2996 0.960 . S
C2983 C2980 1.511 . S
C2983 H2997 0.961 . S
C2983 H2998 0.961 . S
C2983 H2999 0.961 . S
C2984 C2985 1.370 . S
C2984 C2986 1.363 . S
C2984 H3000 0.931 . S
C2985 C2984 1.370 . S
C2985 C2989 1.408 . S
C2986 C2984 1.363 . S
C2986 C2987 1.370 . S
C2986 C2990 1.524 . S
C2987 C2979 1.503 . S
C2987 C2986 1.370 . S
C2987 C2988 1.403 . S
C2988 C2987 1.403 . S
C2988 C2989 1.404 . S
C2988 C2991 1.539 . S
C2989 C2985 1.408 . S
C2989 C2988 1.404 . S
C2989 H3001 0.930 . S
C2990 C2986 1.524 . S
C2990 H3002 0.956 . S
C2990 H3003 0.961 . S
C2990 H3004 0.961 . S
C2991 C2988 1.539 . S
C2991 H3005 0.958 . S
C2991 H3006 0.961 . S
C2991 H3007 0.960 . S
H2992 C2976 0.931 . S
H2993 C2981 0.929 . S
H2994 C2982 0.960 . S
H2995 C2982 0.962 . S
H2996 C2982 0.960 . S
H2997 C2983 0.961 . S
H2998 C2983 0.961 . S
H2999 C2983 0.961 . S
H3000 C2984 0.931 . S
H3001 C2989 0.930 . S
H3002 C2990 0.956 . S
H3003 C2990 0.961 . S
H3004 C2990 0.961 . S
H3005 C2991 0.958 . S
H3006 C2991 0.961 . S
H3007 C2991 0.960 . S
C3008 C3009 1.391 . S
C3008 C3010 1.394 . S
C3008 H3024 0.931 . S
C3009 C3008 1.391 . S
C3009 C3013 1.376 . S
C3010 C3008 1.394 . S
C3010 C3011 1.369 . S
C3010 C3014 1.531 . S
C3011 C3010 1.369 . S
C3011 C3012 1.410 . S
C3011 C3019 1.503 . S
C3012 C3011 1.410 . S
C3012 C3013 1.392 . S
C3012 C3015 1.511 . S
C3013 C3009 1.376 . S
C3013 C3012 1.392 . S
C3013 H3025 0.929 . S
C3014 C3010 1.531 . S
C3014 H3026 0.960 . S
C3014 H3027 0.962 . S
C3014 H3028 0.960 . S
C3015 C3012 1.511 . S
C3015 H3029 0.961 . S
C3015 H3030 0.961 . S
C3015 H3031 0.961 . S
C3016 C3017 1.370 . S
C3016 C3018 1.363 . S
C3016 H3032 0.931 . S
C3017 C3016 1.370 . S
C3017 C3021 1.408 . S
C3018 C3016 1.363 . S
C3018 C3019 1.370 . S
C3018 C3022 1.524 . S
C3019 C3011 1.503 . S
C3019 C3018 1.370 . S
C3019 C3020 1.403 . S
C3020 C3019 1.403 . S
C3020 C3021 1.404 . S
C3020 C3023 1.539 . S
C3021 C3017 1.408 . S
C3021 C3020 1.404 . S
C3021 H3033 0.930 . S
C3022 C3018 1.524 . S
C3022 H3034 0.956 . S
C3022 H3035 0.961 . S
C3022 H3036 0.961 . S
C3023 C3020 1.539 . S
C3023 H3037 0.958 . S
C3023 H3038 0.961 . S
C3023 H3039 0.960 . S
H3024 C3008 0.931 . S
H3025 C3013 0.929 . S
H3026 C3014 0.960 . S
H3027 C3014 0.962 . S
H3028 C3014 0.960 . S
H3029 C3015 0.961 . S
H3030 C3015 0.961 . S
H3031 C3015 0.961 . S
H3032 C3016 0.931 . S
H3033 C3021 0.930 . S
H3034 C3022 0.956 . S
H3035 C3022 0.961 . S
H3036 C3022 0.961 . S
H3037 C3023 0.958 . S
H3038 C3023 0.961 . S
H3039 C3023 0.960 . S
C3040 C3041 1.391 . S
C3040 C3042 1.394 . S
C3040 H3056 0.931 . S
C3041 C3040 1.391 . S
C3041 C3045 1.376 . S
C3042 C3040 1.394 . S
C3042 C3043 1.369 . S
C3042 C3046 1.531 . S
C3043 C3042 1.369 . S
C3043 C3044 1.410 . S
C3043 C3051 1.503 . S
C3044 C3043 1.410 . S
C3044 C3045 1.392 . S
C3044 C3047 1.511 . S
C3045 C3041 1.376 . S
C3045 C3044 1.392 . S
C3045 H3057 0.929 . S
C3046 C3042 1.531 . S
C3046 H3058 0.960 . S
C3046 H3059 0.962 . S
C3046 H3060 0.960 . S
C3047 C3044 1.511 . S
C3047 H3061 0.961 . S
C3047 H3062 0.961 . S
C3047 H3063 0.961 . S
C3048 C3049 1.370 . S
C3048 C3050 1.363 . S
C3048 H3064 0.931 . S
C3049 C3048 1.370 . S
C3049 C3053 1.408 . S
C3050 C3048 1.363 . S
C3050 C3051 1.370 . S
C3050 C3054 1.524 . S
C3051 C3043 1.503 . S
C3051 C3050 1.370 . S
C3051 C3052 1.403 . S
C3052 C3051 1.403 . S
C3052 C3053 1.404 . S
C3052 C3055 1.539 . S
C3053 C3049 1.408 . S
C3053 C3052 1.404 . S
C3053 H3065 0.930 . S
C3054 C3050 1.524 . S
C3054 H3066 0.956 . S
C3054 H3067 0.961 . S
C3054 H3068 0.961 . S
C3055 C3052 1.539 . S
C3055 H3069 0.958 . S
C3055 H3070 0.961 . S
C3055 H3071 0.960 . S
H3056 C3040 0.931 . S
H3057 C3045 0.929 . S
H3058 C3046 0.960 . S
H3059 C3046 0.962 . S
H3060 C3046 0.960 . S
H3061 C3047 0.961 . S
H3062 C3047 0.961 . S
H3063 C3047 0.961 . S
H3064 C3048 0.931 . S
H3065 C3053 0.930 . S
H3066 C3054 0.956 . S
H3067 C3054 0.961 . S
H3068 C3054 0.961 . S
H3069 C3055 0.958 . S
H3070 C3055 0.961 . S
H3071 C3055 0.960 . S
C3072 C3073 1.391 . S
C3072 C3074 1.394 . S
C3072 H3088 0.931 . S
C3073 C3072 1.391 . S
C3073 C3077 1.376 . S
C3074 C3072 1.394 . S
C3074 C3075 1.369 1_455 S
C3074 C3078 1.531 . S
C3075 C3074 1.369 1_655 S
C3075 C3076 1.415 . S
C3075 C3083 1.503 . S
C3076 C3075 1.415 . S
C3076 C3077 1.374 1_655 S
C3076 C3079 1.524 . S
C3077 C3073 1.376 . S
C3077 C3076 1.374 1_455 S
C3077 H3089 0.929 . S
C3078 C3074 1.531 . S
C3078 H3090 0.960 1_455 S
C3078 H3091 0.962 . S
C3078 H3092 0.960 . S
C3079 C3076 1.524 . S
C3079 H3093 0.961 . S
C3079 H3094 0.961 . S
C3079 H3095 0.961 . S
C3080 C3081 1.370 . S
C3080 C3082 1.363 . S
C3080 H3096 0.931 . S
C3081 C3080 1.370 . S
C3081 C3085 1.408 . S
C3082 C3080 1.363 . S
C3082 C3083 1.370 . S
C3082 C3086 1.524 . S
C3083 C3075 1.503 . S
C3083 C3082 1.370 . S
C3083 C3084 1.403 . S
C3084 C3083 1.403 . S
C3084 C3085 1.404 . S
C3084 C3087 1.539 . S
C3085 C3081 1.408 . S
C3085 C3084 1.404 . S
C3085 H3097 0.930 . S
C3086 C3082 1.524 . S
C3086 H3098 0.956 . S
C3086 H3099 0.961 . S
C3086 H3100 0.961 . S
C3087 C3084 1.539 . S
C3087 H3101 0.958 . S
C3087 H3102 0.961 . S
C3087 H3103 0.960 . S
H3088 C3072 0.931 . S
H3089 C3077 0.929 . S
H3090 C3078 0.960 1_655 S
H3091 C3078 0.962 . S
H3092 C3078 0.960 . S
H3093 C3079 0.961 . S
H3094 C3079 0.961 . S
H3095 C3079 0.961 . S
H3096 C3080 0.931 . S
H3097 C3085 0.930 . S
H3098 C3086 0.956 . S
H3099 C3086 0.961 . S
H3100 C3086 0.961 . S
H3101 C3087 0.958 . S
H3102 C3087 0.961 . S
H3103 C3087 0.960 . S
C3104 C3105 1.391 . S
C3104 C3106 1.394 . S
C3104 H3120 0.931 . S
C3105 C3104 1.391 . S
C3105 C3109 1.376 . S
C3106 C3104 1.394 . S
C3106 C3107 1.369 . S
C3106 C3110 1.531 . S
C3107 C3106 1.369 . S
C3107 C3108 1.410 . S
C3107 C3115 1.503 . S
C3108 C3107 1.410 . S
C3108 C3109 1.392 . S
C3108 C3111 1.511 . S
C3109 C3105 1.376 . S
C3109 C3108 1.392 . S
C3109 H3121 0.929 . S
C3110 C3106 1.531 . S
C3110 H3122 0.960 . S
C3110 H3123 0.962 . S
C3110 H3124 0.960 . S
C3111 C3108 1.511 . S
C3111 H3125 0.961 . S
C3111 H3126 0.961 . S
C3111 H3127 0.961 . S
C3112 C3113 1.370 . S
C3112 C3114 1.363 . S
C3112 H3128 0.931 . S
C3113 C3112 1.370 . S
C3113 C3117 1.408 . S
C3114 C3112 1.363 . S
C3114 C3115 1.370 . S
C3114 C3118 1.524 . S
C3115 C3107 1.503 . S
C3115 C3114 1.370 . S
C3115 C3116 1.403 . S
C3116 C3115 1.403 . S
C3116 C3117 1.404 . S
C3116 C3119 1.539 . S
C3117 C3113 1.408 . S
C3117 C3116 1.404 . S
C3117 H3129 0.930 . S
C3118 C3114 1.524 . S
C3118 H3130 0.956 . S
C3118 H3131 0.961 . S
C3118 H3132 0.961 . S
C3119 C3116 1.539 . S
C3119 H3133 0.958 . S
C3119 H3134 0.961 . S
C3119 H3135 0.960 . S
H3120 C3104 0.931 . S
H3121 C3109 0.929 . S
H3122 C3110 0.960 . S
H3123 C3110 0.962 . S
H3124 C3110 0.960 . S
H3125 C3111 0.961 . S
H3126 C3111 0.961 . S
H3127 C3111 0.961 . S
H3128 C3112 0.931 . S
H3129 C3117 0.930 . S
H3130 C3118 0.956 . S
H3131 C3118 0.961 . S
H3132 C3118 0.961 . S
H3133 C3119 0.958 . S
H3134 C3119 0.961 . S
H3135 C3119 0.960 . S
C3136 C3137 1.391 . S
C3136 C3138 1.388 . S
C3136 H3152 0.931 . S
C3137 C3136 1.391 . S
C3137 C3141 1.376 . S
C3138 C3136 1.388 . S
C3138 C3139 1.371 1_455 S
C3138 C3142 1.535 1_455 S
C3139 C3138 1.371 1_655 S
C3139 C3140 1.410 1_655 S
C3139 C3147 1.503 . S
C3140 C3139 1.410 1_455 S
C3140 C3141 1.392 . S
C3140 C3143 1.511 . S
C3141 C3137 1.376 . S
C3141 C3140 1.392 . S
C3141 H3153 0.929 . S
C3142 C3138 1.535 1_655 S
C3142 H3154 0.960 . S
C3142 H3155 0.962 . S
C3142 H3156 0.960 . S
C3143 C3140 1.511 . S
C3143 H3157 0.961 . S
C3143 H3158 0.961 1_455 S
C3143 H3159 0.961 . S
C3144 C3145 1.370 . S
C3144 C3146 1.363 . S
C3144 H3160 0.931 . S
C3145 C3144 1.370 . S
C3145 C3149 1.408 . S
C3146 C3144 1.363 . S
C3146 C3147 1.370 . S
C3146 C3150 1.524 . S
C3147 C3139 1.503 . S
C3147 C3146 1.370 . S
C3147 C3148 1.403 . S
C3148 C3147 1.403 . S
C3148 C3149 1.404 . S
C3148 C3151 1.539 . S
C3149 C3145 1.408 . S
C3149 C3148 1.404 . S
C3149 H3161 0.930 . S
C3150 C3146 1.524 . S
C3150 H3162 0.956 . S
C3150 H3163 0.961 . S
C3150 H3164 0.961 . S
C3151 C3148 1.539 . S
C3151 H3165 0.958 . S
C3151 H3166 0.961 . S
C3151 H3167 0.960 . S
H3152 C3136 0.931 . S
H3153 C3141 0.929 . S
H3154 C3142 0.960 . S
H3155 C3142 0.962 . S
H3156 C3142 0.960 . S
H3157 C3143 0.961 . S
H3158 C3143 0.961 1_655 S
H3159 C3143 0.961 . S
H3160 C3144 0.931 . S
H3161 C3149 0.930 . S
H3162 C3150 0.956 . S
H3163 C3150 0.961 . S
H3164 C3150 0.961 . S
H3165 C3151 0.958 . S
H3166 C3151 0.961 . S
H3167 C3151 0.960 . S
C3168 C3169 1.391 . S
C3168 C3170 1.394 . S
C3168 H3184 0.931 . S
C3169 C3168 1.391 . S
C3169 C3173 1.376 . S
C3170 C3168 1.394 . S
C3170 C3171 1.369 . S
C3170 C3174 1.531 . S
C3171 C3170 1.369 . S
C3171 C3172 1.410 . S
C3171 C3179 1.503 . S
C3172 C3171 1.410 . S
C3172 C3173 1.392 . S
C3172 C3175 1.511 . S
C3173 C3169 1.376 . S
C3173 C3172 1.392 . S
C3173 H3185 0.929 . S
C3174 C3170 1.531 . S
C3174 H3186 0.960 . S
C3174 H3187 0.962 . S
C3174 H3188 0.960 . S
C3175 C3172 1.511 . S
C3175 H3189 0.961 . S
C3175 H3190 0.961 . S
C3175 H3191 0.961 . S
C3176 C3177 1.370 . S
C3176 C3178 1.363 . S
C3176 H3192 0.931 . S
C3177 C3176 1.370 . S
C3177 C3181 1.408 . S
C3178 C3176 1.363 . S
C3178 C3179 1.370 . S
C3178 C3182 1.524 . S
C3179 C3171 1.503 . S
C3179 C3178 1.370 . S
C3179 C3180 1.403 . S
C3180 C3179 1.403 . S
C3180 C3181 1.404 . S
C3180 C3183 1.539 . S
C3181 C3177 1.408 . S
C3181 C3180 1.404 . S
C3181 H3193 0.930 . S
C3182 C3178 1.524 . S
C3182 H3194 0.956 . S
C3182 H3195 0.961 . S
C3182 H3196 0.961 . S
C3183 C3180 1.539 . S
C3183 H3197 0.958 . S
C3183 H3198 0.961 . S
C3183 H3199 0.960 . S
H3184 C3168 0.931 . S
H3185 C3173 0.929 . S
H3186 C3174 0.960 . S
H3187 C3174 0.962 . S
H3188 C3174 0.960 . S
H3189 C3175 0.961 . S
H3190 C3175 0.961 . S
H3191 C3175 0.961 . S
H3192 C3176 0.931 . S
H3193 C3181 0.930 . S
H3194 C3182 0.956 . S
H3195 C3182 0.961 . S
H3196 C3182 0.961 . S
H3197 C3183 0.958 . S
H3198 C3183 0.961 . S
H3199 C3183 0.960 . S
C3200 C3201 1.391 . S
C3200 C3202 1.394 . S
C3200 H3216 0.931 . S
C3201 C3200 1.391 . S
C3201 C3205 1.376 . S
C3202 C3200 1.394 . S
C3202 C3203 1.369 . S
C3202 C3206 1.531 . S
C3203 C3202 1.369 . S
C3203 C3204 1.410 . S
C3203 C3211 1.503 . S
C3204 C3203 1.410 . S
C3204 C3205 1.392 . S
C3204 C3207 1.511 . S
C3205 C3201 1.376 . S
C3205 C3204 1.392 . S
C3205 H3217 0.929 . S
C3206 C3202 1.531 . S
C3206 H3218 0.960 . S
C3206 H3219 0.962 . S
C3206 H3220 0.960 . S
C3207 C3204 1.511 . S
C3207 H3221 0.961 . S
C3207 H3222 0.961 . S
C3207 H3223 0.961 . S
C3208 C3209 1.370 . S
C3208 C3210 1.363 . S
C3208 H3224 0.931 . S
C3209 C3208 1.370 . S
C3209 C3213 1.408 . S
C3210 C3208 1.363 . S
C3210 C3211 1.370 . S
C3210 C3214 1.524 . S
C3211 C3203 1.503 . S
C3211 C3210 1.370 . S
C3211 C3212 1.403 . S
C3212 C3211 1.403 . S
C3212 C3213 1.404 . S
C3212 C3215 1.539 . S
C3213 C3209 1.408 . S
C3213 C3212 1.404 . S
C3213 H3225 0.930 . S
C3214 C3210 1.524 . S
C3214 H3226 0.956 . S
C3214 H3227 0.961 . S
C3214 H3228 0.961 . S
C3215 C3212 1.539 . S
C3215 H3229 0.958 . S
C3215 H3230 0.961 . S
C3215 H3231 0.960 . S
H3216 C3200 0.931 . S
H3217 C3205 0.929 . S
H3218 C3206 0.960 . S
H3219 C3206 0.962 . S
H3220 C3206 0.960 . S
H3221 C3207 0.961 . S
H3222 C3207 0.961 . S
H3223 C3207 0.961 . S
H3224 C3208 0.931 . S
H3225 C3213 0.930 . S
H3226 C3214 0.956 . S
H3227 C3214 0.961 . S
H3228 C3214 0.961 . S
H3229 C3215 0.958 . S
H3230 C3215 0.961 . S
H3231 C3215 0.960 . S
C3232 C3233 1.391 . S
C3232 C3234 1.394 . S
C3232 H3248 0.931 . S
C3233 C3232 1.391 . S
C3233 C3237 1.376 . S
C3234 C3232 1.394 . S
C3234 C3235 1.369 . S
C3234 C3238 1.531 . S
C3235 C3234 1.369 . S
C3235 C3236 1.410 . S
C3235 C3243 1.503 . S
C3236 C3235 1.410 . S
C3236 C3237 1.392 . S
C3236 C3239 1.511 . S
C3237 C3233 1.376 . S
C3237 C3236 1.392 . S
C3237 H3249 0.929 . S
C3238 C3234 1.531 . S
C3238 H3250 0.960 . S
C3238 H3251 0.962 . S
C3238 H3252 0.960 . S
C3239 C3236 1.511 . S
C3239 H3253 0.961 . S
C3239 H3254 0.961 . S
C3239 H3255 0.961 . S
C3240 C3241 1.370 . S
C3240 C3242 1.363 . S
C3240 H3256 0.931 . S
C3241 C3240 1.370 . S
C3241 C3245 1.408 . S
C3242 C3240 1.363 . S
C3242 C3243 1.370 . S
C3242 C3246 1.524 . S
C3243 C3235 1.503 . S
C3243 C3242 1.370 . S
C3243 C3244 1.403 . S
C3244 C3243 1.403 . S
C3244 C3245 1.404 . S
C3244 C3247 1.539 . S
C3245 C3241 1.408 . S
C3245 C3244 1.404 . S
C3245 H3257 0.930 . S
C3246 C3242 1.524 . S
C3246 H3258 0.956 . S
C3246 H3259 0.961 . S
C3246 H3260 0.961 . S
C3247 C3244 1.539 . S
C3247 H3261 0.958 . S
C3247 H3262 0.961 . S
C3247 H3263 0.960 . S
H3248 C3232 0.931 . S
H3249 C3237 0.929 . S
H3250 C3238 0.960 . S
H3251 C3238 0.962 . S
H3252 C3238 0.960 . S
H3253 C3239 0.961 . S
H3254 C3239 0.961 . S
H3255 C3239 0.961 . S
H3256 C3240 0.931 . S
H3257 C3245 0.930 . S
H3258 C3246 0.956 . S
H3259 C3246 0.961 . S
H3260 C3246 0.961 . S
H3261 C3247 0.958 . S
H3262 C3247 0.961 . S
H3263 C3247 0.960 . S
C3264 C3265 1.391 . S
C3264 C3266 1.394 . S
C3264 H3280 0.931 . S
C3265 C3264 1.391 . S
C3265 C3269 1.376 . S
C3266 C3264 1.394 . S
C3266 C3267 1.369 . S
C3266 C3270 1.531 . S
C3267 C3266 1.369 . S
C3267 C3268 1.410 . S
C3267 C3275 1.503 . S
C3268 C3267 1.410 . S
C3268 C3269 1.392 . S
C3268 C3271 1.511 . S
C3269 C3265 1.376 . S
C3269 C3268 1.392 . S
C3269 H3281 0.929 . S
C3270 C3266 1.531 . S
C3270 H3282 0.960 . S
C3270 H3283 0.962 . S
C3270 H3284 0.960 . S
C3271 C3268 1.511 . S
C3271 H3285 0.961 . S
C3271 H3286 0.961 . S
C3271 H3287 0.961 . S
C3272 C3273 1.370 . S
C3272 C3274 1.363 . S
C3272 H3288 0.931 . S
C3273 C3272 1.370 . S
C3273 C3277 1.408 . S
C3274 C3272 1.363 . S
C3274 C3275 1.370 1_554 S
C3274 C3278 1.524 1_554 S
C3275 C3267 1.503 . S
C3275 C3274 1.370 1_556 S
C3275 C3276 1.403 1_556 S
C3276 C3275 1.403 1_554 S
C3276 C3277 1.404 . S
C3276 C3279 1.539 . S
C3277 C3273 1.408 . S
C3277 C3276 1.404 . S
C3277 H3289 0.930 . S
C3278 C3274 1.524 1_556 S
C3278 H3290 0.956 . S
C3278 H3291 0.961 . S
C3278 H3292 0.961 . S
C3279 C3276 1.539 . S
C3279 H3293 0.958 . S
C3279 H3294 0.961 . S
C3279 H3295 0.960 1_554 S
H3280 C3264 0.931 . S
H3281 C3269 0.929 . S
H3282 C3270 0.960 . S
H3283 C3270 0.962 . S
H3284 C3270 0.960 . S
H3285 C3271 0.961 . S
H3286 C3271 0.961 . S
H3287 C3271 0.961 . S
H3288 C3272 0.931 . S
H3289 C3277 0.930 . S
H3290 C3278 0.956 . S
H3291 C3278 0.961 . S
H3292 C3278 0.961 . S
H3293 C3279 0.958 . S
H3294 C3279 0.961 . S
H3295 C3279 0.960 1_556 S
C3296 C3297 1.391 . S
C3296 C3298 1.394 . S
C3296 H3312 0.931 . S
C3297 C3296 1.391 . S
C3297 C3301 1.376 . S
C3298 C3296 1.394 . S
C3298 C3299 1.369 . S
C3298 C3302 1.531 . S
C3299 C3298 1.369 . S
C3299 C3300 1.410 . S
C3299 C3307 1.503 . S
C3300 C3299 1.410 . S
C3300 C3301 1.392 . S
C3300 C3303 1.511 . S
C3301 C3297 1.376 . S
C3301 C3300 1.392 . S
C3301 H3313 0.929 . S
C3302 C3298 1.531 . S
C3302 H3314 0.960 . S
C3302 H3315 0.962 . S
C3302 H3316 0.960 . S
C3303 C3300 1.511 . S
C3303 H3317 0.961 . S
C3303 H3318 0.961 . S
C3303 H3319 0.961 . S
C3304 C3305 1.370 . S
C3304 C3306 1.363 . S
C3304 H3320 0.931 . S
C3305 C3304 1.370 . S
C3305 C3309 1.408 . S
C3306 C3304 1.363 . S
C3306 C3307 1.370 . S
C3306 C3310 1.524 . S
C3307 C3299 1.503 . S
C3307 C3306 1.370 . S
C3307 C3308 1.403 . S
C3308 C3307 1.403 . S
C3308 C3309 1.404 . S
C3308 C3311 1.539 . S
C3309 C3305 1.408 . S
C3309 C3308 1.404 . S
C3309 H3321 0.930 . S
C3310 C3306 1.524 . S
C3310 H3322 0.956 . S
C3310 H3323 0.961 . S
C3310 H3324 0.961 . S
C3311 C3308 1.539 . S
C3311 H3325 0.958 . S
C3311 H3326 0.961 . S
C3311 H3327 0.960 . S
H3312 C3296 0.931 . S
H3313 C3301 0.929 . S
H3314 C3302 0.960 . S
H3315 C3302 0.962 . S
H3316 C3302 0.960 . S
H3317 C3303 0.961 . S
H3318 C3303 0.961 . S
H3319 C3303 0.961 . S
H3320 C3304 0.931 . S
H3321 C3309 0.930 . S
H3322 C3310 0.956 . S
H3323 C3310 0.961 . S
H3324 C3310 0.961 . S
H3325 C3311 0.958 . S
H3326 C3311 0.961 . S
H3327 C3311 0.960 . S
C3328 C3329 1.391 . S
C3328 C3330 1.394 . S
C3328 H3344 0.931 . S
C3329 C3328 1.391 . S
C3329 C3333 1.376 . S
C3330 C3328 1.394 . S
C3330 C3331 1.369 . S
C3330 C3334 1.531 . S
C3331 C3330 1.369 . S
C3331 C3332 1.410 . S
C3331 C3339 1.503 . S
C3332 C3331 1.410 . S
C3332 C3333 1.392 . S
C3332 C3335 1.511 . S
C3333 C3329 1.376 . S
C3333 C3332 1.392 . S
C3333 H3345 0.929 . S
C3334 C3330 1.531 . S
C3334 H3346 0.960 . S
C3334 H3347 0.962 . S
C3334 H3348 0.960 . S
C3335 C3332 1.511 . S
C3335 H3349 0.961 . S
C3335 H3350 0.961 . S
C3335 H3351 0.961 . S
C3336 C3337 1.370 . S
C3336 C3338 1.363 . S
C3336 H3352 0.931 . S
C3337 C3336 1.370 . S
C3337 C3341 1.408 . S
C3338 C3336 1.363 . S
C3338 C3339 1.370 . S
C3338 C3342 1.524 . S
C3339 C3331 1.503 . S
C3339 C3338 1.370 . S
C3339 C3340 1.403 . S
C3340 C3339 1.403 . S
C3340 C3341 1.404 . S
C3340 C3343 1.539 . S
C3341 C3337 1.408 . S
C3341 C3340 1.404 . S
C3341 H3353 0.930 . S
C3342 C3338 1.524 . S
C3342 H3354 0.956 . S
C3342 H3355 0.961 . S
C3342 H3356 0.961 . S
C3343 C3340 1.539 . S
C3343 H3357 0.958 . S
C3343 H3358 0.961 . S
C3343 H3359 0.960 . S
H3344 C3328 0.931 . S
H3345 C3333 0.929 . S
H3346 C3334 0.960 . S
H3347 C3334 0.962 . S
H3348 C3334 0.960 . S
H3349 C3335 0.961 . S
H3350 C3335 0.961 . S
H3351 C3335 0.961 . S
H3352 C3336 0.931 . S
H3353 C3341 0.930 . S
H3354 C3342 0.956 . S
H3355 C3342 0.961 . S
H3356 C3342 0.961 . S
H3357 C3343 0.958 . S
H3358 C3343 0.961 . S
H3359 C3343 0.960 . S
C3360 C3361 1.391 . S
C3360 C3362 1.394 . S
C3360 H3376 0.931 . S
C3361 C3360 1.391 . S
C3361 C3365 1.376 . S
C3362 C3360 1.394 . S
C3362 C3363 1.369 . S
C3362 C3366 1.531 . S
C3363 C3362 1.369 . S
C3363 C3364 1.410 . S
C3363 C3371 1.503 . S
C3364 C3363 1.410 . S
C3364 C3365 1.392 . S
C3364 C3367 1.511 . S
C3365 C3361 1.376 . S
C3365 C3364 1.392 . S
C3365 H3377 0.929 . S
C3366 C3362 1.531 . S
C3366 H3378 0.960 . S
C3366 H3379 0.962 . S
C3366 H3380 0.960 . S
C3367 C3364 1.511 . S
C3367 H3381 0.961 . S
C3367 H3382 0.961 . S
C3367 H3383 0.961 . S
C3368 C3369 1.370 . S
C3368 C3370 1.363 . S
C3368 H3384 0.931 . S
C3369 C3368 1.370 . S
C3369 C3373 1.408 . S
C3370 C3368 1.363 . S
C3370 C3371 1.370 . S
C3370 C3374 1.524 . S
C3371 C3363 1.503 . S
C3371 C3370 1.370 . S
C3371 C3372 1.403 . S
C3372 C3371 1.403 . S
C3372 C3373 1.404 . S
C3372 C3375 1.539 . S
C3373 C3369 1.408 . S
C3373 C3372 1.404 . S
C3373 H3385 0.930 . S
C3374 C3370 1.524 . S
C3374 H3386 0.956 . S
C3374 H3387 0.961 . S
C3374 H3388 0.961 . S
C3375 C3372 1.539 . S
C3375 H3389 0.958 . S
C3375 H3390 0.961 . S
C3375 H3391 0.960 . S
H3376 C3360 0.931 . S
H3377 C3365 0.929 . S
H3378 C3366 0.960 . S
H3379 C3366 0.962 . S
H3380 C3366 0.960 . S
H3381 C3367 0.961 . S
H3382 C3367 0.961 . S
H3383 C3367 0.961 . S
H3384 C3368 0.931 . S
H3385 C3373 0.930 . S
H3386 C3374 0.956 . S
H3387 C3374 0.961 . S
H3388 C3374 0.961 . S
H3389 C3375 0.958 . S
H3390 C3375 0.961 . S
H3391 C3375 0.960 . S
C3392 C3393 1.391 . S
C3392 C3394 1.394 . S
C3392 H3408 0.931 . S
C3393 C3392 1.391 . S
C3393 C3397 1.376 . S
C3394 C3392 1.394 . S
C3394 C3395 1.369 . S
C3394 C3398 1.531 . S
C3395 C3394 1.369 . S
C3395 C3396 1.410 . S
C3395 C3403 1.503 . S
C3396 C3395 1.410 . S
C3396 C3397 1.392 . S
C3396 C3399 1.511 . S
C3397 C3393 1.376 . S
C3397 C3396 1.392 . S
C3397 H3409 0.929 . S
C3398 C3394 1.531 . S
C3398 H3410 0.960 . S
C3398 H3411 0.962 . S
C3398 H3412 0.960 . S
C3399 C3396 1.511 . S
C3399 H3413 0.961 . S
C3399 H3414 0.961 . S
C3399 H3415 0.961 . S
C3400 C3401 1.370 . S
C3400 C3402 1.369 . S
C3400 H3416 0.931 . S
C3401 C3400 1.370 . S
C3401 C3405 1.408 . S
C3402 C3400 1.369 . S
C3402 C3403 1.369 1_556 S
C3402 C3406 1.520 1_556 S
C3403 C3395 1.503 . S
C3403 C3402 1.369 1_554 S
C3403 C3404 1.403 1_554 S
C3404 C3403 1.403 1_556 S
C3404 C3405 1.404 . S
C3404 C3407 1.539 . S
C3405 C3401 1.408 . S
C3405 C3404 1.404 . S
C3405 H3417 0.930 . S
C3406 C3402 1.520 1_554 S
C3406 H3418 0.956 . S
C3406 H3419 0.961 . S
C3406 H3420 0.961 . S
C3407 C3404 1.539 . S
C3407 H3421 0.958 . S
C3407 H3422 0.961 . S
C3407 H3423 0.960 1_556 S
H3408 C3392 0.931 . S
H3409 C3397 0.929 . S
H3410 C3398 0.960 . S
H3411 C3398 0.962 . S
H3412 C3398 0.960 . S
H3413 C3399 0.961 . S
H3414 C3399 0.961 . S
H3415 C3399 0.961 . S
H3416 C3400 0.931 . S
H3417 C3405 0.930 . S
H3418 C3406 0.956 . S
H3419 C3406 0.961 . S
H3420 C3406 0.961 . S
H3421 C3407 0.958 . S
H3422 C3407 0.961 . S
H3423 C3407 0.960 1_554 S
C3424 C3425 1.391 . S
C3424 C3426 1.394 . S
C3424 H3440 0.931 . S
C3425 C3424 1.391 . S
C3425 C3429 1.376 . S
C3426 C3424 1.394 . S
C3426 C3427 1.369 . S
C3426 C3430 1.531 . S
C3427 C3426 1.369 . S
C3427 C3428 1.410 . S
C3427 C3435 1.503 . S
C3428 C3427 1.410 . S
C3428 C3429 1.392 . S
C3428 C3431 1.511 . S
C3429 C3425 1.376 . S
C3429 C3428 1.392 . S
C3429 H3441 0.929 . S
C3430 C3426 1.531 . S
C3430 H3442 0.960 . S
C3430 H3443 0.962 . S
C3430 H3444 0.960 . S
C3431 C3428 1.511 . S
C3431 H3445 0.961 . S
C3431 H3446 0.961 . S
C3431 H3447 0.961 . S
C3432 C3433 1.370 . S
C3432 C3434 1.363 . S
C3432 H3448 0.931 . S
C3433 C3432 1.370 . S
C3433 C3437 1.408 . S
C3434 C3432 1.363 . S
C3434 C3435 1.370 . S
C3434 C3438 1.524 . S
C3435 C3427 1.503 . S
C3435 C3434 1.370 . S
C3435 C3436 1.403 . S
C3436 C3435 1.403 . S
C3436 C3437 1.404 . S
C3436 C3439 1.539 . S
C3437 C3433 1.408 . S
C3437 C3436 1.404 . S
C3437 H3449 0.930 . S
C3438 C3434 1.524 . S
C3438 H3450 0.956 . S
C3438 H3451 0.961 . S
C3438 H3452 0.961 . S
C3439 C3436 1.539 . S
C3439 H3453 0.958 . S
C3439 H3454 0.961 . S
C3439 H3455 0.960 . S
H3440 C3424 0.931 . S
H3441 C3429 0.929 . S
H3442 C3430 0.960 . S
H3443 C3430 0.962 . S
H3444 C3430 0.960 . S
H3445 C3431 0.961 . S
H3446 C3431 0.961 . S
H3447 C3431 0.961 . S
H3448 C3432 0.931 . S
H3449 C3437 0.930 . S
H3450 C3438 0.956 . S
H3451 C3438 0.961 . S
H3452 C3438 0.961 . S
H3453 C3439 0.958 . S
H3454 C3439 0.961 . S
H3455 C3439 0.960 . S
C3456 C3457 1.391 . S
C3456 C3458 1.394 . S
C3456 H3472 0.931 . S
C3457 C3456 1.391 . S
C3457 C3461 1.376 . S
C3458 C3456 1.394 . S
C3458 C3459 1.369 . S
C3458 C3462 1.531 . S
C3459 C3458 1.369 . S
C3459 C3460 1.410 . S
C3459 C3467 1.503 . S
C3460 C3459 1.410 . S
C3460 C3461 1.392 . S
C3460 C3463 1.511 . S
C3461 C3457 1.376 . S
C3461 C3460 1.392 . S
C3461 H3473 0.929 . S
C3462 C3458 1.531 . S
C3462 H3474 0.960 . S
C3462 H3475 0.962 . S
C3462 H3476 0.960 . S
C3463 C3460 1.511 . S
C3463 H3477 0.961 . S
C3463 H3478 0.961 . S
C3463 H3479 0.961 . S
C3464 C3465 1.370 . S
C3464 C3466 1.363 . S
C3464 H3480 0.931 . S
C3465 C3464 1.370 . S
C3465 C3469 1.408 . S
C3466 C3464 1.363 . S
C3466 C3467 1.370 . S
C3466 C3470 1.524 . S
C3467 C3459 1.503 . S
C3467 C3466 1.370 . S
C3467 C3468 1.403 . S
C3468 C3467 1.403 . S
C3468 C3469 1.404 . S
C3468 C3471 1.539 . S
C3469 C3465 1.408 . S
C3469 C3468 1.404 . S
C3469 H3481 0.930 . S
C3470 C3466 1.524 . S
C3470 H3482 0.956 . S
C3470 H3483 0.961 . S
C3470 H3484 0.961 . S
C3471 C3468 1.539 . S
C3471 H3485 0.958 . S
C3471 H3486 0.961 . S
C3471 H3487 0.960 . S
H3472 C3456 0.931 . S
H3473 C3461 0.929 . S
H3474 C3462 0.960 . S
H3475 C3462 0.962 . S
H3476 C3462 0.960 . S
H3477 C3463 0.961 . S
H3478 C3463 0.961 . S
H3479 C3463 0.961 . S
H3480 C3464 0.931 . S
H3481 C3469 0.930 . S
H3482 C3470 0.956 . S
H3483 C3470 0.961 . S
H3484 C3470 0.961 . S
H3485 C3471 0.958 . S
H3486 C3471 0.961 . S
H3487 C3471 0.960 . S
C3488 C3489 1.391 . S
C3488 C3490 1.394 . S
C3488 H3504 0.931 . S
C3489 C3488 1.391 . S
C3489 C3493 1.376 . S
C3490 C3488 1.394 . S
C3490 C3491 1.369 . S
C3490 C3494 1.531 . S
C3491 C3490 1.369 . S
C3491 C3492 1.410 . S
C3491 C3499 1.503 . S
C3492 C3491 1.410 . S
C3492 C3493 1.392 . S
C3492 C3495 1.511 . S
C3493 C3489 1.376 . S
C3493 C3492 1.392 . S
C3493 H3505 0.929 . S
C3494 C3490 1.531 . S
C3494 H3506 0.960 . S
C3494 H3507 0.962 . S
C3494 H3508 0.960 . S
C3495 C3492 1.511 . S
C3495 H3509 0.961 . S
C3495 H3510 0.961 . S
C3495 H3511 0.961 . S
C3496 C3497 1.370 . S
C3496 C3498 1.363 . S
C3496 H3512 0.931 . S
C3497 C3496 1.370 . S
C3497 C3501 1.408 . S
C3498 C3496 1.363 . S
C3498 C3499 1.370 . S
C3498 C3502 1.524 . S
C3499 C3491 1.503 . S
C3499 C3498 1.370 . S
C3499 C3500 1.403 . S
C3500 C3499 1.403 . S
C3500 C3501 1.404 . S
C3500 C3503 1.539 . S
C3501 C3497 1.408 . S
C3501 C3500 1.404 . S
C3501 H3513 0.930 . S
C3502 C3498 1.524 . S
C3502 H3514 0.956 . S
C3502 H3515 0.961 . S
C3502 H3516 0.961 . S
C3503 C3500 1.539 . S
C3503 H3517 0.958 . S
C3503 H3518 0.961 . S
C3503 H3519 0.960 . S
H3504 C3488 0.931 . S
H3505 C3493 0.929 . S
H3506 C3494 0.960 . S
H3507 C3494 0.962 . S
H3508 C3494 0.960 . S
H3509 C3495 0.961 . S
H3510 C3495 0.961 . S
H3511 C3495 0.961 . S
H3512 C3496 0.931 . S
H3513 C3501 0.930 . S
H3514 C3502 0.956 . S
H3515 C3502 0.961 . S
H3516 C3502 0.961 . S
H3517 C3503 0.958 . S
H3518 C3503 0.961 . S
H3519 C3503 0.960 . S
C3520 C3521 1.391 . S
C3520 C3522 1.394 . S
C3520 H3536 0.931 . S
C3521 C3520 1.391 . S
C3521 C3525 1.376 . S
C3522 C3520 1.394 . S
C3522 C3523 1.369 . S
C3522 C3526 1.531 . S
C3523 C3522 1.369 . S
C3523 C3524 1.410 . S
C3523 C3531 1.503 . S
C3524 C3523 1.410 . S
C3524 C3525 1.392 . S
C3524 C3527 1.511 . S
C3525 C3521 1.376 . S
C3525 C3524 1.392 . S
C3525 H3537 0.929 . S
C3526 C3522 1.531 . S
C3526 H3538 0.960 . S
C3526 H3539 0.962 . S
C3526 H3540 0.960 . S
C3527 C3524 1.511 . S
C3527 H3541 0.961 . S
C3527 H3542 0.961 . S
C3527 H3543 0.961 . S
C3528 C3529 1.370 . S
C3528 C3530 1.363 . S
C3528 H3544 0.931 . S
C3529 C3528 1.370 . S
C3529 C3533 1.408 . S
C3530 C3528 1.363 . S
C3530 C3531 1.370 . S
C3530 C3534 1.524 . S
C3531 C3523 1.503 . S
C3531 C3530 1.370 . S
C3531 C3532 1.403 . S
C3532 C3531 1.403 . S
C3532 C3533 1.404 . S
C3532 C3535 1.539 . S
C3533 C3529 1.408 . S
C3533 C3532 1.404 . S
C3533 H3545 0.930 . S
C3534 C3530 1.524 . S
C3534 H3546 0.956 . S
C3534 H3547 0.961 . S
C3534 H3548 0.961 . S
C3535 C3532 1.539 . S
C3535 H3549 0.958 . S
C3535 H3550 0.961 . S
C3535 H3551 0.960 . S
H3536 C3520 0.931 . S
H3537 C3525 0.929 . S
H3538 C3526 0.960 . S
H3539 C3526 0.962 . S
H3540 C3526 0.960 . S
H3541 C3527 0.961 . S
H3542 C3527 0.961 . S
H3543 C3527 0.961 . S
H3544 C3528 0.931 . S
H3545 C3533 0.930 . S
H3546 C3534 0.956 . S
H3547 C3534 0.961 . S
H3548 C3534 0.961 . S
H3549 C3535 0.958 . S
H3550 C3535 0.961 . S
H3551 C3535 0.960 . S
C3552 C3553 1.391 . S
C3552 C3554 1.394 . S
C3552 H3568 0.931 . S
C3553 C3552 1.391 . S
C3553 C3557 1.376 . S
C3554 C3552 1.394 . S
C3554 C3555 1.369 . S
C3554 C3558 1.531 . S
C3555 C3554 1.369 . S
C3555 C3556 1.410 . S
C3555 C3563 1.503 . S
C3556 C3555 1.410 . S
C3556 C3557 1.392 . S
C3556 C3559 1.511 . S
C3557 C3553 1.376 . S
C3557 C3556 1.392 . S
C3557 H3569 0.929 . S
C3558 C3554 1.531 . S
C3558 H3570 0.960 . S
C3558 H3571 0.962 . S
C3558 H3572 0.960 . S
C3559 C3556 1.511 . S
C3559 H3573 0.961 . S
C3559 H3574 0.961 . S
C3559 H3575 0.961 . S
C3560 C3561 1.370 . S
C3560 C3562 1.363 . S
C3560 H3576 0.931 . S
C3561 C3560 1.370 . S
C3561 C3565 1.408 . S
C3562 C3560 1.363 . S
C3562 C3563 1.370 1_545 S
C3562 C3566 1.524 1_545 S
C3563 C3555 1.503 . S
C3563 C3562 1.370 1_565 S
C3563 C3564 1.403 1_565 S
C3564 C3563 1.403 1_545 S
C3564 C3565 1.404 . S
C3564 C3567 1.539 1_545 S
C3565 C3561 1.408 . S
C3565 C3564 1.404 . S
C3565 H3577 0.930 . S
C3566 C3562 1.524 1_565 S
C3566 H3578 0.956 . S
C3566 H3579 0.961 . S
C3566 H3580 0.961 1_565 S
C3567 C3564 1.539 1_565 S
C3567 H3581 0.958 . S
C3567 H3582 0.961 1_565 S
C3567 H3583 0.960 . S
H3568 C3552 0.931 . S
H3569 C3557 0.929 . S
H3570 C3558 0.960 . S
H3571 C3558 0.962 . S
H3572 C3558 0.960 . S
H3573 C3559 0.961 . S
H3574 C3559 0.961 . S
H3575 C3559 0.961 . S
H3576 C3560 0.931 . S
H3577 C3565 0.930 . S
H3578 C3566 0.956 . S
H3579 C3566 0.961 . S
H3580 C3566 0.961 1_545 S
H3581 C3567 0.958 . S
H3582 C3567 0.961 1_545 S
H3583 C3567 0.960 . S
C3584 C3585 1.391 . S
C3584 C3586 1.394 . S
C3584 H3600 0.931 . S
C3585 C3584 1.391 . S
C3585 C3589 1.376 . S
C3586 C3584 1.394 . S
C3586 C3587 1.369 . S
C3586 C3590 1.531 . S
C3587 C3586 1.369 . S
C3587 C3588 1.410 . S
C3587 C3595 1.503 . S
C3588 C3587 1.410 . S
C3588 C3589 1.392 . S
C3588 C3591 1.511 . S
C3589 C3585 1.376 . S
C3589 C3588 1.392 . S
C3589 H3601 0.929 . S
C3590 C3586 1.531 . S
C3590 H3602 0.960 . S
C3590 H3603 0.962 . S
C3590 H3604 0.960 . S
C3591 C3588 1.511 . S
C3591 H3605 0.961 . S
C3591 H3606 0.961 . S
C3591 H3607 0.961 . S
C3592 C3593 1.370 . S
C3592 C3594 1.363 . S
C3592 H3608 0.931 . S
C3593 C3592 1.370 . S
C3593 C3597 1.408 . S
C3594 C3592 1.363 . S
C3594 C3595 1.370 . S
C3594 C3598 1.524 . S
C3595 C3587 1.503 . S
C3595 C3594 1.370 . S
C3595 C3596 1.403 . S
C3596 C3595 1.403 . S
C3596 C3597 1.404 . S
C3596 C3599 1.539 . S
C3597 C3593 1.408 . S
C3597 C3596 1.404 . S
C3597 H3609 0.930 . S
C3598 C3594 1.524 . S
C3598 H3610 0.956 . S
C3598 H3611 0.961 . S
C3598 H3612 0.961 . S
C3599 C3596 1.539 . S
C3599 H3613 0.958 . S
C3599 H3614 0.961 . S
C3599 H3615 0.960 . S
H3600 C3584 0.931 . S
H3601 C3589 0.929 . S
H3602 C3590 0.960 . S
H3603 C3590 0.962 . S
H3604 C3590 0.960 . S
H3605 C3591 0.961 . S
H3606 C3591 0.961 . S
H3607 C3591 0.961 . S
H3608 C3592 0.931 . S
H3609 C3597 0.930 . S
H3610 C3598 0.956 . S
H3611 C3598 0.961 . S
H3612 C3598 0.961 . S
H3613 C3599 0.958 . S
H3614 C3599 0.961 . S
H3615 C3599 0.960 . S
C3616 C3617 1.391 . S
C3616 C3618 1.394 . S
C3616 H3632 0.931 . S
C3617 C3616 1.391 . S
C3617 C3621 1.376 . S
C3618 C3616 1.394 . S
C3618 C3619 1.369 . S
C3618 C3622 1.531 . S
C3619 C3618 1.369 . S
C3619 C3620 1.410 . S
C3619 C3627 1.503 . S
C3620 C3619 1.410 . S
C3620 C3621 1.392 . S
C3620 C3623 1.511 . S
C3621 C3617 1.376 . S
C3621 C3620 1.392 . S
C3621 H3633 0.929 . S
C3622 C3618 1.531 . S
C3622 H3634 0.960 . S
C3622 H3635 0.962 . S
C3622 H3636 0.960 . S
C3623 C3620 1.511 . S
C3623 H3637 0.961 . S
C3623 H3638 0.961 . S
C3623 H3639 0.961 . S
C3624 C3625 1.370 . S
C3624 C3626 1.363 . S
C3624 H3640 0.931 . S
C3625 C3624 1.370 . S
C3625 C3629 1.408 . S
C3626 C3624 1.363 . S
C3626 C3627 1.370 . S
C3626 C3630 1.524 . S
C3627 C3619 1.503 . S
C3627 C3626 1.370 . S
C3627 C3628 1.403 . S
C3628 C3627 1.403 . S
C3628 C3629 1.404 . S
C3628 C3631 1.539 . S
C3629 C3625 1.408 . S
C3629 C3628 1.404 . S
C3629 H3641 0.930 . S
C3630 C3626 1.524 . S
C3630 H3642 0.956 . S
C3630 H3643 0.961 . S
C3630 H3644 0.961 . S
C3631 C3628 1.539 . S
C3631 H3645 0.958 . S
C3631 H3646 0.961 . S
C3631 H3647 0.960 . S
H3632 C3616 0.931 . S
H3633 C3621 0.929 . S
H3634 C3622 0.960 . S
H3635 C3622 0.962 . S
H3636 C3622 0.960 . S
H3637 C3623 0.961 . S
H3638 C3623 0.961 . S
H3639 C3623 0.961 . S
H3640 C3624 0.931 . S
H3641 C3629 0.930 . S
H3642 C3630 0.956 . S
H3643 C3630 0.961 . S
H3644 C3630 0.961 . S
H3645 C3631 0.958 . S
H3646 C3631 0.961 . S
H3647 C3631 0.960 . S
C3648 C3649 1.391 . S
C3648 C3650 1.394 . S
C3648 H3664 0.931 . S
C3649 C3648 1.391 . S
C3649 C3653 1.376 . S
C3650 C3648 1.394 . S
C3650 C3651 1.369 . S
C3650 C3654 1.531 . S
C3651 C3650 1.369 . S
C3651 C3652 1.410 . S
C3651 C3659 1.503 . S
C3652 C3651 1.410 . S
C3652 C3653 1.392 . S
C3652 C3655 1.511 . S
C3653 C3649 1.376 . S
C3653 C3652 1.392 . S
C3653 H3665 0.929 . S
C3654 C3650 1.531 . S
C3654 H3666 0.960 . S
C3654 H3667 0.962 . S
C3654 H3668 0.960 . S
C3655 C3652 1.511 . S
C3655 H3669 0.961 . S
C3655 H3670 0.961 . S
C3655 H3671 0.961 . S
C3656 C3657 1.370 . S
C3656 C3658 1.363 . S
C3656 H3672 0.931 . S
C3657 C3656 1.370 . S
C3657 C3661 1.408 . S
C3658 C3656 1.363 . S
C3658 C3659 1.370 . S
C3658 C3662 1.524 . S
C3659 C3651 1.503 . S
C3659 C3658 1.370 . S
C3659 C3660 1.403 . S
C3660 C3659 1.403 . S
C3660 C3661 1.404 . S
C3660 C3663 1.539 . S
C3661 C3657 1.408 . S
C3661 C3660 1.404 . S
C3661 H3673 0.930 . S
C3662 C3658 1.524 . S
C3662 H3674 0.956 . S
C3662 H3675 0.961 . S
C3662 H3676 0.961 . S
C3663 C3660 1.539 . S
C3663 H3677 0.958 . S
C3663 H3678 0.961 . S
C3663 H3679 0.960 . S
H3664 C3648 0.931 . S
H3665 C3653 0.929 . S
H3666 C3654 0.960 . S
H3667 C3654 0.962 . S
H3668 C3654 0.960 . S
H3669 C3655 0.961 . S
H3670 C3655 0.961 . S
H3671 C3655 0.961 . S
H3672 C3656 0.931 . S
H3673 C3661 0.930 . S
H3674 C3662 0.956 . S
H3675 C3662 0.961 . S
H3676 C3662 0.961 . S
H3677 C3663 0.958 . S
H3678 C3663 0.961 . S
H3679 C3663 0.960 . S
C3680 C3681 1.391 . S
C3680 C3682 1.394 . S
C3680 H3696 0.931 . S
C3681 C3680 1.391 . S
C3681 C3685 1.376 . S
C3682 C3680 1.394 . S
C3682 C3683 1.369 1_565 S
C3682 C3686 1.528 1_565 S
C3683 C3682 1.369 1_545 S
C3683 C3684 1.410 1_545 S
C3683 C3691 1.503 . S
C3684 C3683 1.410 1_565 S
C3684 C3685 1.392 . S
C3684 C3687 1.511 1_565 S
C3685 C3681 1.376 . S
C3685 C3684 1.392 . S
C3685 H3697 0.929 . S
C3686 C3682 1.528 1_545 S
C3686 H3698 0.967 . S
C3686 H3699 0.962 . S
C3686 H3700 0.956 1_545 S
C3687 C3684 1.511 1_545 S
C3687 H3701 0.961 . S
C3687 H3702 0.961 . S
C3687 H3703 0.961 . S
C3688 C3689 1.370 . S
C3688 C3690 1.363 . S
C3688 H3704 0.931 . S
C3689 C3688 1.370 . S
C3689 C3693 1.408 . S
C3690 C3688 1.363 . S
C3690 C3691 1.370 . S
C3690 C3694 1.524 . S
C3691 C3683 1.503 . S
C3691 C3690 1.370 . S
C3691 C3692 1.403 . S
C3692 C3691 1.403 . S
C3692 C3693 1.404 . S
C3692 C3695 1.539 . S
C3693 C3689 1.408 . S
C3693 C3692 1.404 . S
C3693 H3705 0.930 . S
C3694 C3690 1.524 . S
C3694 H3706 0.956 . S
C3694 H3707 0.961 . S
C3694 H3708 0.961 . S
C3695 C3692 1.539 . S
C3695 H3709 0.958 . S
C3695 H3710 0.961 . S
C3695 H3711 0.960 . S
H3696 C3680 0.931 . S
H3697 C3685 0.929 . S
H3698 C3686 0.967 . S
H3699 C3686 0.962 . S
H3700 C3686 0.956 1_565 S
H3701 C3687 0.961 . S
H3702 C3687 0.961 . S
H3703 C3687 0.961 . S
H3704 C3688 0.931 . S
H3705 C3693 0.930 . S
H3706 C3694 0.956 . S
H3707 C3694 0.961 . S
H3708 C3694 0.961 . S
H3709 C3695 0.958 . S
H3710 C3695 0.961 . S
H3711 C3695 0.960 . S
C3712 C3713 1.391 . S
C3712 C3714 1.394 . S
C3712 H3728 0.931 . S
C3713 C3712 1.391 . S
C3713 C3717 1.376 . S
C3714 C3712 1.394 . S
C3714 C3715 1.369 . S
C3714 C3718 1.531 . S
C3715 C3714 1.369 . S
C3715 C3716 1.410 . S
C3715 C3723 1.503 . S
C3716 C3715 1.410 . S
C3716 C3717 1.392 . S
C3716 C3719 1.511 . S
C3717 C3713 1.376 . S
C3717 C3716 1.392 . S
C3717 H3729 0.929 . S
C3718 C3714 1.531 . S
C3718 H3730 0.960 . S
C3718 H3731 0.962 . S
C3718 H3732 0.960 . S
C3719 C3716 1.511 . S
C3719 H3733 0.961 . S
C3719 H3734 0.961 . S
C3719 H3735 0.961 . S
C3720 C3721 1.370 . S
C3720 C3722 1.363 . S
C3720 H3736 0.931 . S
C3721 C3720 1.370 . S
C3721 C3725 1.408 . S
C3722 C3720 1.363 . S
C3722 C3723 1.370 1_545 S
C3722 C3726 1.524 1_545 S
C3723 C3715 1.503 . S
C3723 C3722 1.370 1_565 S
C3723 C3724 1.403 1_565 S
C3724 C3723 1.403 1_545 S
C3724 C3725 1.404 . S
C3724 C3727 1.539 1_545 S
C3725 C3721 1.408 . S
C3725 C3724 1.404 . S
C3725 H3737 0.930 . S
C3726 C3722 1.524 1_565 S
C3726 H3738 0.956 . S
C3726 H3739 0.961 . S
C3726 H3740 0.961 1_565 S
C3727 C3724 1.539 1_565 S
C3727 H3741 0.958 . S
C3727 H3742 0.961 1_565 S
C3727 H3743 0.960 . S
H3728 C3712 0.931 . S
H3729 C3717 0.929 . S
H3730 C3718 0.960 . S
H3731 C3718 0.962 . S
H3732 C3718 0.960 . S
H3733 C3719 0.961 . S
H3734 C3719 0.961 . S
H3735 C3719 0.961 . S
H3736 C3720 0.931 . S
H3737 C3725 0.930 . S
H3738 C3726 0.956 . S
H3739 C3726 0.961 . S
H3740 C3726 0.961 1_545 S
H3741 C3727 0.958 . S
H3742 C3727 0.961 1_545 S
H3743 C3727 0.960 . S
C673 C588 1.337 . S
C681 C11 1.345 . S
C705 C23 1.404 . S
C713 C219 1.380 . S
C737 C39 1.355 . S
C745 C560 1.367 . S
C769 C51 1.386 . S
C777 C247 1.359 . S
C801 C625 1.351 . S
C809 C61 1.408 . S
C833 C70 1.377 . S
C841 C294 1.381 . S
C865 C89 1.413 . S
C873 C653 1.376 . S
C897 C98 1.374 . S
C905 C266 1.368 . S
C929 C42 1.371 . S
C937 C658 1.383 . S
C961 C5 1.415 . S
C969 C350 1.400 . S
C993 C373 1.340 . S
C1001 C14 1.383 . S
C1025 C33 1.397 . S
C1033 C336 1.399 . S
C1057 C79 1.374 . S
C1065 C345 1.346 . S
C1089 C95 1.355 . S
C1097 C667 1.318 . S
C1121 C107 1.394 . S
C1129 C359 1.372 . S
C1153 C67 1.326 . S
C1161 C364 1.336 . S
C1185 C546 1.334 . S
C1193 C112 1.349 . S
C1217 C126 1.425 . S
C1225 C275 1.402 . S
C1249 C121 1.350 . S
C1257 C616 1.352 . S
C1281 C303 1.385 . S
C1289 C140 1.389 . S
C1313 C308 1.364 . S
C1321 C154 1.378 . S
C1345 C574 1.358 . S
C1353 C177 1.371 . S
C1377 C597 1.311 . S
C1385 C182 1.365 . S
C1409 C569 1.318 . S
C1417 C205 1.372 . S
C1441 C473 1.399 . S
C1449 C221 1.385 . S
C1473 C229 1.365 . S
C1481 C9 1.352 . S
C1505 C249 1.366 . S
C1513 C445 1.370 . S
C1537 C37 1.368 . S
C1545 C257 1.389 . S
C1569 C271 1.418 . S
C1577 C495 1.410 . S
C1601 C84 1.295 . S
C1609 C291 1.303 . S
C1633 C299 1.388 . S
C1641 C523 1.390 . S
C1665 C56 1.338 . S
C1673 C319 1.326 . S
C1697 C543 1.314 . S
C1705 C263 1.307 . S
C1729 C215 1.428 . S
C1737 C145 1.435 . S
C1761 C159 1.363 . S
C1769 C235 1.351 . S
C1793 C131 1.456 . S
C1801 C243 1.484 . S
C1825 C137 1.400 . S
C1833 C285 1.407 . S
C1857 C305 1.361 . S
C1865 C537 1.351 . S
C1889 C151 1.362 . S
C1897 C313 1.361 . S
C1921 C277 1.314 . S
C1929 C165 1.309 . S
C1953 C333 1.280 . S
C1961 C420 1.296 . S
C1985 C341 1.340 . S
C1993 C65 1.317 . S
C2017 C327 1.333 . S
C2025 C501 1.338 . S
C2049 C355 1.389 . S
C2057 C93 1.358 . S
C2081 C375 1.300 . S
C2089 C109 1.318 . S
C2113 C448 1.361 . S
C2121 C383 1.380 . S
C2145 C397 1.426 . S
C2153 C467 1.419 . S
C2177 C417 1.366 . S
C2185 C439 1.370 . S
C2209 C431 1.357 . S
C2217 C252 1.344 . S
C2241 C443 1.392 . S
C2249 C555 1.365 . S
C2273 C224 1.391 . S
C2281 C459 1.393 . S
C2305 C471 1.395 . S
C2313 C583 1.372 . S
C2337 C481 1.383 . S
C2345 C289 1.370 . S
C2369 C630 1.370 . S
C2377 C490 1.359 . S
C2401 C509 1.403 . S
C2409 C317 1.392 . S
C2433 C602 1.398 . S
C2441 C518 1.387 . S
C2465 C322 1.399 . S
C2473 C462 1.393 . S
C2497 C406 1.384 . S
C2505 C425 1.406 . S
C2529 C434 1.394 . S
C2537 C387 1.368 . S
C2561 C401 1.399 . S
C2569 C453 1.443 . S
C2593 C499 1.359 . S
C2601 C392 1.357 . S
C2625 C331 1.354 . S
C2633 C515 1.352 . S
C2657 C527 1.365 . S
C2665 C415 1.353 . S
C2689 C487 1.317 . S
C2697 C378 1.309 . S
C2721 C532 1.378 . S
C2729 C210 1.376 . S
C2753 C191 1.406 . S
C2761 C611 1.379 . S
C2785 C280 1.369 . S
C2793 C541 1.379 . S
C2817 C639 1.324 . S
C2825 C196 1.358 . S
C2849 C644 1.380 . S
C2857 C168 1.375 . S
C2881 C163 1.364 . S
C2889 C238 1.356 . S
C2913 C135 1.404 . S
C2921 C261 1.375 . S
C2945 C233 1.372 . S
C2953 C149 1.388 . S
C2977 C557 1.369 . S
C2985 C53 1.367 . S
C3009 C429 1.375 . S
C3017 C565 1.376 . S
C3041 C585 1.314 . S
C3049 C25 1.344 . S
C3073 C593 1.359 . S
C3081 C457 1.347 . S
C3105 C75 1.410 . S
C3113 C607 1.406 . S
C3137 C627 1.329 . S
C3145 C504 1.345 . S
C3169 C635 1.394 . S
C3177 C103 1.397 . S
C3201 C476 1.307 . S
C3209 C655 1.302 . S
C3233 C599 1.250 . S
C3241 C123 1.267 . S
C3265 C201 1.421 . S
C3273 C551 1.442 . S
C3297 C173 1.363 . S
C3305 C571 1.369 . S
C3329 C579 1.398 . S
C3337 C193 1.409 . S
C3361 C621 1.446 . S
C3369 C187 1.450 . S
C3393 C117 1.332 . S
C3401 C641 1.345 . S
C3425 C207 1.357 . S
C3433 C649 1.362 . S
C3457 C613 1.356 . S
C3465 C179 1.357 . S
C3489 C0 1.304 . S
C3497 C669 1.295 . S
C3521 C403 1.297 . S
C3529 C485 1.271 . S
C3553 C81 1.371 . S
C3561 C663 1.368 . S
C3585 C513 1.376 . S
C3593 C411 1.405 . S
C3617 C529 1.316 . S
C3625 C389 1.308 . S
C3649 C369 1.354 . S
C3657 C28 1.350 . S
C3681 C347 1.344 . S
C3689 C47 1.351 . S
C3713 C19 1.375 . S
C3721 C361 1.370 . S
