# Generated by pormake.
# Topology ukh, (4)-cn, num edge types: 1
# Building blocks:
#     Node 0, Type 0, BuildingBlock: GALJAG_clean_sbu_0, # of connection points: 4
#     Node 1, Type 0, BuildingBlock: GALJAG_clean_sbu_0, # of connection points: 4
#     Node 2, Type 0, BuildingBlock: GALJAG_clean_sbu_0, # of connection points: 4
#     Node 3, Type 0, BuildingBlock: GALJAG_clean_sbu_0, # of connection points: 4
#     Node 4, Type 0, BuildingBlock: GALJAG_clean_sbu_0, # of connection points: 4
#     Node 5, Type 0, BuildingBlock: GALJAG_clean_sbu_0, # of connection points: 4
#     Node 6, Type 0, BuildingBlock: GALJAG_clean_sbu_0, # of connection points: 4
#     Node 7, Type 0, BuildingBlock: GALJAG_clean_sbu_0, # of connection points: 4
#     Node 8, Type 0, BuildingBlock: GALJAG_clean_sbu_0, # of connection points: 4
#     Node 9, Type 0, BuildingBlock: GALJAG_clean_sbu_0, # of connection points: 4
#     Node 10, Type 0, BuildingBlock: GALJAG_clean_sbu_0, # of connection points: 4
#     Node 11, Type 0, BuildingBlock: GALJAG_clean_sbu_0, # of connection points: 4
#     Edge 12, Type (0, 0), BuildingBlock: CIFDUS_clean_linker_0, # of connection points: 2
#     Edge 13, Type (0, 0), BuildingBlock: CIFDUS_clean_linker_0, # of connection points: 2
#     Edge 14, Type (0, 0), BuildingBlock: CIFDUS_clean_linker_0, # of connection points: 2
#     Edge 15, Type (0, 0), BuildingBlock: CIFDUS_clean_linker_0, # of connection points: 2
#     Edge 16, Type (0, 0), BuildingBlock: CIFDUS_clean_linker_0, # of connection points: 2
#     Edge 17, Type (0, 0), BuildingBlock: CIFDUS_clean_linker_0, # of connection points: 2
#     Edge 18, Type (0, 0), BuildingBlock: CIFDUS_clean_linker_0, # of connection points: 2
#     Edge 19, Type (0, 0), BuildingBlock: CIFDUS_clean_linker_0, # of connection points: 2
#     Edge 20, Type (0, 0), BuildingBlock: CIFDUS_clean_linker_0, # of connection points: 2
#     Edge 21, Type (0, 0), BuildingBlock: CIFDUS_clean_linker_0, # of connection points: 2
#     Edge 22, Type (0, 0), BuildingBlock: CIFDUS_clean_linker_0, # of connection points: 2
#     Edge 23, Type (0, 0), BuildingBlock: CIFDUS_clean_linker_0, # of connection points: 2
#     Edge 24, Type (0, 0), BuildingBlock: CIFDUS_clean_linker_0, # of connection points: 2
#     Edge 25, Type (0, 0), BuildingBlock: CIFDUS_clean_linker_0, # of connection points: 2
#     Edge 26, Type (0, 0), BuildingBlock: CIFDUS_clean_linker_0, # of connection points: 2
#     Edge 27, Type (0, 0), BuildingBlock: CIFDUS_clean_linker_0, # of connection points: 2
#     Edge 28, Type (0, 0), BuildingBlock: CIFDUS_clean_linker_0, # of connection points: 2
#     Edge 29, Type (0, 0), BuildingBlock: CIFDUS_clean_linker_0, # of connection points: 2
#     Edge 30, Type (0, 0), BuildingBlock: CIFDUS_clean_linker_0, # of connection points: 2
#     Edge 31, Type (0, 0), BuildingBlock: CIFDUS_clean_linker_0, # of connection points: 2
#     Edge 32, Type (0, 0), BuildingBlock: CIFDUS_clean_linker_0, # of connection points: 2
#     Edge 33, Type (0, 0), BuildingBlock: CIFDUS_clean_linker_0, # of connection points: 2
#     Edge 34, Type (0, 0), BuildingBlock: CIFDUS_clean_linker_0, # of connection points: 2
#     Edge 35, Type (0, 0), BuildingBlock: CIFDUS_clean_linker_0, # of connection points: 2
# Relax obj value: 0.072
# Max RMSD: 0.081
# Mean RMSD: 0.081
data_MOF--net-ukh--node1-GALJAG_clean_sbu_0--edge1-CIFDUS_clean_linker_0
_symmetry_space_group_name_H-M    P1
_symmetry_Int_Tables_number       1
_symmetry_cell_setting            triclinic
loop_
_symmetry_equiv_pos_as_xyz
'x, y, z'
_cell_length_a     27.394135
_cell_length_b     27.405341
_cell_length_c     59.17949
_cell_angle_alpha  89.897019
_cell_angle_beta   89.980522
_cell_angle_gamma 120.07908
loop_
_atom_site_label
_atom_site_type_symbol
_atom_site_fract_x
_atom_site_fract_y
_atom_site_fract_z
_atom_type_partial_charge
In0 In 0.33999 0.22809 0.05823 0.0
O1 O 0.43004 0.30139 0.05208 0.0
O2 O 0.3664 0.32128 0.05996 0.0
C3 C 0.33854 0.14392 0.03365 0.0
C4 C 0.34662 0.20334 0.10194 0.0
C5 C 0.2469 0.223 0.04056 0.0
O6 O 0.366 0.19496 0.0276 0.0
O7 O 0.31462 0.13594 0.05259 0.0
O8 O 0.25449 0.22372 0.06166 0.0
O9 O 0.28618 0.22521 0.0287 0.0
C10 C 0.41755 0.33943 0.05529 0.0
O11 O 0.30052 0.19152 0.09263 0.0
O12 O 0.38929 0.22761 0.08921 0.0
In13 In 0.09367 0.31729 0.38985 0.0
O14 O 0.06543 0.28349 0.42562 0.0
O15 O 0.14732 0.35542 0.42126 0.0
C16 C 0.01957 0.22805 0.36544 0.0
C17 C 0.05307 0.38886 0.3858 0.0
C18 C 0.18483 0.3181 0.37225 0.0
O19 O 0.02218 0.22581 0.38674 0.0
O20 O 0.05455 0.27474 0.35672 0.0
O21 O 0.16734 0.34982 0.36462 0.0
O22 O 0.1575 0.28799 0.38892 0.0
C23 C 0.1109 0.3201 0.4347 0.0
O24 O 0.10535 0.40621 0.38419 0.0
O25 O 0.02288 0.33684 0.38945 0.0
In26 In 0.78616 0.10011 0.72853 0.0
O27 O 0.70844 0.10862 0.72031 0.0
O28 O 0.69577 0.02891 0.73093 0.0
C29 C 0.87517 0.18861 0.70828 0.0
C30 C 0.80288 0.12831 0.77251 0.0
C31 C 0.79652 0.01713 0.70907 0.0
O32 O 0.82603 0.166 0.70003 0.0
O33 O 0.87839 0.16811 0.72689 0.0
O34 O 0.7989 0.02387 0.73026 0.0
O35 O 0.78966 0.05253 0.69794 0.0
C36 C 0.67366 0.05735 0.72463 0.0
O37 O 0.81466 0.0933 0.76387 0.0
O38 O 0.78183 0.14851 0.759 0.0
In39 In 0.68092 0.78558 0.06359 0.0
O40 O 0.71433 0.80794 0.09959 0.0
O41 O 0.62753 0.78047 0.09391 0.0
C42 C 0.77161 0.79074 0.04355 0.0
C43 C 0.60305 0.67567 0.05744 0.0
C44 C 0.69111 0.88166 0.04614 0.0
O45 O 0.76608 0.78914 0.0648 0.0
O46 O 0.73157 0.78976 0.03264 0.0
O47 O 0.65986 0.83412 0.03711 0.0
O48 O 0.71486 0.87989 0.06409 0.0
C49 C 0.66757 0.79759 0.1079 0.0
O50 O 0.59236 0.71474 0.05339 0.0
O51 O 0.6524 0.69228 0.0644 0.0
In52 In 0.90754 0.68373 0.39388 0.0
O53 O 0.91939 0.72113 0.42927 0.0
O54 O 0.86456 0.63254 0.4253 0.0
C55 C 0.98078 0.77056 0.36798 0.0
C56 C 0.95425 0.61781 0.38996 0.0
C57 C 0.81276 0.67919 0.37837 0.0
O58 O 0.98256 0.77324 0.38936 0.0
O59 O 0.94206 0.72477 0.36003 0.0
O60 O 0.83023 0.6478 0.37041 0.0
O61 O 0.84195 0.71072 0.39433 0.0
C62 C 0.88611 0.67429 0.43854 0.0
O63 O 0.90305 0.6 0.38497 0.0
O64 O 0.98081 0.66798 0.39695 0.0
In65 In 0.23273 0.91571 0.72581 0.0
O66 O 0.31247 0.9099 0.71924 0.0
O67 O 0.32245 0.98899 0.72892 0.0
C68 C 0.15147 0.82772 0.70237 0.0
C69 C 0.21033 0.88404 0.76958 0.0
C70 C 0.21991 0.99734 0.70612 0.0
O71 O 0.20274 0.85249 0.69649 0.0
O72 O 0.142 0.84559 0.72051 0.0
O73 O 0.21884 0.99143 0.72734 0.0
O74 O 0.22712 0.96212 0.6951 0.0
C75 C 0.34605 0.96139 0.72345 0.0
O76 O 0.19772 0.91806 0.76054 0.0
O77 O 0.23438 0.86612 0.75655 0.0
In78 In 0.78289 0.68468 0.6117 0.0
O79 O 0.82285 0.73531 0.57968 0.0
O80 O 0.79033 0.64679 0.57831 0.0
C81 C 0.78699 0.77516 0.63153 0.0
C82 C 0.67211 0.60392 0.61249 0.0
C83 C 0.86481 0.68051 0.63593 0.0
O84 O 0.78461 0.76884 0.61035 0.0
O85 O 0.78677 0.73572 0.64259 0.0
O86 O 0.81399 0.65633 0.6423 0.0
O87 O 0.87358 0.70418 0.61691 0.0
C88 C 0.81489 0.69349 0.56799 0.0
O89 O 0.71123 0.59261 0.61474 0.0
O90 O 0.68887 0.65551 0.60971 0.0
In91 In 0.08737 0.78073 0.94225 0.0
O92 O 0.0978 0.70259 0.94552 0.0
O93 O 0.01618 0.68987 0.93883 0.0
C94 C 0.17703 0.85934 0.96607 0.0
C95 C 0.11201 0.81098 0.89841 0.0
C96 C 0.00514 0.79009 0.96336 0.0
O97 O 0.14972 0.80814 0.9719 0.0
O98 O 0.16087 0.87008 0.94776 0.0
O99 O 0.01078 0.793 0.94214 0.0
O100 O 0.04097 0.78264 0.97382 0.0
C101 C 0.04612 0.66769 0.94233 0.0
O102 O 0.07947 0.82127 0.90995 0.0
O103 O 0.13224 0.78499 0.90896 0.0
In104 In 0.32261 0.10027 0.27669 0.0
O105 O 0.41377 0.11973 0.28206 0.0
O106 O 0.35053 0.03491 0.27564 0.0
C107 C 0.32183 0.19237 0.29269 0.0
C108 C 0.31708 0.11137 0.23164 0.0
C109 C 0.23954 0.02408 0.30346 0.0
O110 O 0.35279 0.17509 0.30118 0.0
O111 O 0.29378 0.16488 0.27576 0.0
O112 O 0.23572 0.02204 0.28215 0.0
O113 O 0.28505 0.06406 0.31103 0.0
C114 C 0.40183 0.06907 0.27961 0.0
O115 O 0.27518 0.07622 0.24317 0.0
O116 O 0.36187 0.1402 0.24282 0.0
In117 In 0.22778 0.32352 0.60596 0.0
O118 O 0.23507 0.30077 0.56945 0.0
O119 O 0.19949 0.35316 0.57522 0.0
C120 C 0.21802 0.23121 0.62656 0.0
C121 C 0.33647 0.40724 0.61088 0.0
C122 C 0.13426 0.31456 0.62519 0.0
O123 O 0.21205 0.23329 0.60547 0.0
O124 O 0.2289 0.2755 0.63707 0.0
O125 O 0.18305 0.34736 0.63298 0.0
O126 O 0.13337 0.28812 0.60763 0.0
C127 C 0.21337 0.32788 0.56108 0.0
O128 O 0.29585 0.4167 0.61205 0.0
O129 O 0.32189 0.35643 0.60753 0.0
In130 In 0.92191 0.2299 0.94487 0.0
O131 O 0.93404 0.19337 0.91242 0.0
O132 O 0.88072 0.2292 0.9112 0.0
C133 C 1.00393 0.21878 0.96513 0.0
C134 C 0.9613 0.34261 0.94591 0.0
C135 C 0.82964 0.14541 0.96561 0.0
O136 O 0.99758 0.21669 0.94396 0.0
O137 O 0.96855 0.22598 0.9761 0.0
O138 O 0.85947 0.19299 0.97475 0.0
O139 O 0.84487 0.14183 0.94593 0.0
C140 C 0.90217 0.2043 0.9007 0.0
O141 O 0.90959 0.30707 0.94873 0.0
O142 O 0.99196 0.32119 0.94263 0.0
In143 In 0.6691 0.88961 0.28263 0.0
O144 O 0.72117 0.91197 0.25036 0.0
O145 O 0.63343 0.85174 0.24816 0.0
C146 C 0.75478 0.96752 0.30772 0.0
C147 C 0.5896 0.92088 0.28386 0.0
C148 C 0.66606 0.79664 0.30014 0.0
O149 O 0.75601 0.96817 0.28638 0.0
O150 O 0.71031 0.92797 0.31628 0.0
O151 O 0.64091 0.8194 0.30941 0.0
O152 O 0.68984 0.81901 0.28174 0.0
C153 C 0.68024 0.8788 0.23802 0.0
O154 O 0.57731 0.8701 0.2862 0.0
O155 O 0.64138 0.95514 0.28103 0.0
H156 H 0.62345 0.58865 0.05679 0.0
H157 H 0.48862 0.62645 0.05287 0.0
H158 H 0.41922 0.52553 0.05155 0.0
H159 H 0.3969 0.42649 0.05291 0.0
H160 H 0.53226 0.38922 0.05546 0.0
H161 H 0.60153 0.49006 0.05586 0.0
C162 C 0.57887 0.57481 0.05555 0.0
C163 C 0.56113 0.61494 0.05509 0.0
C164 C 0.53938 0.51685 0.05462 0.0
C165 C 0.50331 0.59639 0.05325 0.0
C166 C 0.46365 0.53871 0.05257 0.0
C167 C 0.44159 0.44049 0.05348 0.0
C168 C 0.45945 0.40045 0.05432 0.0
C169 C 0.48118 0.49855 0.05347 0.0
C170 C 0.51745 0.41917 0.05482 0.0
C171 C 0.55706 0.47682 0.0551 0.0
H172 H 0.10573 0.50369 0.38919 0.0
H173 H 0.94305 0.35544 0.37874 0.0
H174 H 0.89824 0.413 0.37807 0.0
H175 H 0.90425 0.50504 0.38199 0.0
H176 H 0.06604 0.65311 0.39406 0.0
H177 H 0.11191 0.59641 0.39253 0.0
C178 C 0.0606 0.4842 0.38657 0.0
C179 C 0.02783 0.42545 0.38404 0.0
C180 C 0.03474 0.51752 0.38662 0.0
C181 C 0.96927 0.40063 0.38083 0.0
C182 C 0.9435 0.43348 0.38044 0.0
C183 C 0.94956 0.52488 0.38415 0.0
C184 C 0.98158 0.58311 0.38817 0.0
C185 C 0.97566 0.49189 0.38357 0.0
C186 C 0.0403 0.60823 0.39103 0.0
C187 C 0.06666 0.57586 0.39015 0.0
H188 H 0.40806 0.90904 0.72114 0.0
H189 H 0.42341 0.07345 0.72352 0.0
H190 H 0.52614 0.11819 0.72288 0.0
H191 H 0.61216 0.11064 0.72284 0.0
H192 H 0.59628 0.94589 0.72249 0.0
H193 H 0.49376 0.90148 0.72103 0.0
C194 C 0.43395 0.95464 0.72139 0.0
C195 C 0.40818 0.98783 0.72237 0.0
C196 C 0.49308 0.98013 0.72142 0.0
C197 C 0.44225 0.0469 0.72285 0.0
C198 C 0.50103 0.07258 0.72245 0.0
C199 C 0.58617 0.06508 0.72229 0.0
C200 C 0.61175 0.03166 0.72276 0.0
C201 C 0.52699 0.03964 0.72191 0.0
C202 C 0.57759 0.9726 0.72223 0.0
C203 C 0.51891 0.9471 0.72138 0.0
H204 H 0.58209 0.62052 0.61281 0.0
H205 H 0.62601 0.48969 0.61337 0.0
H206 H 0.52608 0.4177 0.61344 0.0
H207 H 0.42656 0.39188 0.61259 0.0
H208 H 0.38164 0.52192 0.61258 0.0
H209 H 0.48176 0.5944 0.61319 0.0
C210 C 0.56976 0.57623 0.61297 0.0
C211 C 0.61147 0.56047 0.61298 0.0
C212 C 0.51214 0.53502 0.61314 0.0
C213 C 0.59481 0.50295 0.61333 0.0
C214 C 0.53767 0.46177 0.61336 0.0
C215 C 0.43859 0.43609 0.6128 0.0
C216 C 0.39669 0.45152 0.61246 0.0
C217 C 0.49604 0.47732 0.61317 0.0
C218 C 0.41305 0.50896 0.61285 0.0
C219 C 0.47028 0.55037 0.61314 0.0
H220 H 0.90462 0.401 0.94453 0.0
H221 H 0.07194 0.42327 0.94756 0.0
H222 H 0.11312 0.52543 0.94702 0.0
H223 H 0.10203 0.609 0.94523 0.0
H224 H 0.93501 0.58712 0.94098 0.0
H225 H 0.89357 0.48486 0.9424 0.0
C226 C 0.95004 0.42828 0.94517 0.0
C227 C 0.98508 0.40451 0.94613 0.0
C228 C 0.97364 0.48726 0.94455 0.0
C229 C 0.04394 0.44043 0.94678 0.0
C230 C 0.06761 0.49894 0.94647 0.0
C231 C 0.05659 0.58182 0.94463 0.0
C232 C 0.02175 0.6057 0.94301 0.0
C233 C 0.03294 0.5229 0.94527 0.0
C234 C 0.96288 0.56987 0.94217 0.0
C235 C 0.93906 0.51131 0.94302 0.0
H236 H 0.38214 0.96164 0.2807 0.0
H237 H 0.51653 0.1351 0.282 0.0
H238 H 0.58634 0.10439 0.28363 0.0
H239 H 0.60915 0.02826 0.28409 0.0
H240 H 0.4747 0.85479 0.28367 0.0
H241 H 0.40485 0.8855 0.28236 0.0
C242 C 0.42672 0.99275 0.28136 0.0
C243 C 0.44415 0.05062 0.28113 0.0
C244 C 0.46654 0.97476 0.28245 0.0
C245 C 0.50203 0.09035 0.28215 0.0
C246 C 0.54194 0.0728 0.28305 0.0
C247 C 0.56454 0.99714 0.28376 0.0
C248 C 0.54713 0.93928 0.2839 0.0
C249 C 0.52468 0.01513 0.28313 0.0
C250 C 0.4892 0.89954 0.28359 0.0
C251 C 0.44926 0.91709 0.2828 0.0
H252 H 0.40313 0.17594 0.20296 0.0
H253 H 0.22248 0.06695 0.20546 0.0
H254 H 0.21555 0.08576 0.16554 0.0
H255 H 0.26067 0.13509 0.13011 0.0
H256 H 0.4416 0.24192 0.12743 0.0
H257 H 0.44856 0.22211 0.16721 0.0
C258 C 0.36227 0.15613 0.19474 0.0
C259 C 0.31338 0.12028 0.20717 0.0
C260 C 0.35863 0.16694 0.17177 0.0
C261 C 0.26077 0.09468 0.19626 0.0
C262 C 0.25675 0.10554 0.17345 0.0
C263 C 0.3016 0.15398 0.13825 0.0
C264 C 0.35051 0.19016 0.12589 0.0
C265 C 0.30535 0.14193 0.16107 0.0
C266 C 0.40331 0.21394 0.13659 0.0
C267 C 0.40733 0.20268 0.15933 0.0
H268 H 0.20647 0.33681 0.45471 0.0
H269 H 0.03834 0.30379 0.46898 0.0
H270 H 0.05639 0.30649 0.50967 0.0
H271 H 0.12024 0.31773 0.54114 0.0
H272 H 0.28383 0.3386 0.52675 0.0
H273 H 0.26775 0.34118 0.48611 0.0
C274 C 0.174 0.33038 0.46682 0.0
C275 C 0.12146 0.32078 0.45909 0.0
C276 C 0.18398 0.32977 0.49006 0.0
C277 C 0.0791 0.31134 0.47472 0.0
C278 C 0.08946 0.31298 0.49791 0.0
C279 C 0.15228 0.323 0.52902 0.0
C280 C 0.20335 0.32867 0.53671 0.0
C281 C 0.14174 0.32214 0.50577 0.0
C282 C 0.24429 0.33432 0.52104 0.0
C283 C 0.23511 0.33586 0.49788 0.0
H284 H 0.86397 0.10514 0.80209 0.0
H285 H 0.76982 0.1921 0.79629 0.0
H286 H 0.79233 0.22366 0.83549 0.0
H287 H 0.83935 0.22687 0.8714 0.0
H288 H 0.93543 0.14167 0.87657 0.0
H289 H 0.91181 0.10936 0.83762 0.0
C290 C 0.84817 0.1308 0.80944 0.0
C291 C 0.81512 0.14608 0.79637 0.0
C292 C 0.86188 0.14935 0.83184 0.0
C293 C 0.79532 0.17973 0.80604 0.0
C294 C 0.80822 0.19783 0.82844 0.0
C295 C 0.8552 0.20135 0.86396 0.0
C296 C 0.88909 0.18671 0.87685 0.0
C297 C 0.84162 0.18304 0.84148 0.0
C298 C 0.90938 0.15367 0.86699 0.0
C299 C 0.89579 0.13503 0.84473 0.0
H300 H 0.74999 0.85748 0.13846 0.0
H301 H 0.56919 0.75892 0.13116 0.0
H302 H 0.55702 0.77558 0.17079 0.0
H303 H 0.59781 0.81827 0.20751 0.0
H304 H 0.77855 0.9197 0.21443 0.0
H305 H 0.79071 0.90217 0.17493 0.0
C306 C 0.70797 0.83946 0.1456 0.0
C307 C 0.66057 0.80676 0.13198 0.0
C308 C 0.70128 0.85 0.16828 0.0
C309 C 0.60633 0.7842 0.14134 0.0
C310 C 0.59934 0.79373 0.16398 0.0
C311 C 0.63983 0.83663 0.20034 0.0
C312 C 0.68719 0.87013 0.21386 0.0
C313 C 0.6465 0.82665 0.17759 0.0
C314 C 0.74139 0.89386 0.20434 0.0
C315 C 0.7484 0.88371 0.18178 0.0
H316 H 0.79562 0.60955 0.53856 0.0
H317 H 0.87633 0.79058 0.54404 0.0
H318 H 0.9075 0.80085 0.50477 0.0
H319 H 0.91053 0.7584 0.4686 0.0
H320 H 0.82746 0.5773 0.46281 0.0
H321 H 0.79885 0.5671 0.50242 0.0
C322 C 0.8201 0.65122 0.53116 0.0
C323 C 0.83359 0.69919 0.54419 0.0
C324 C 0.83758 0.65684 0.5085 0.0
C325 C 0.86525 0.75293 0.53435 0.0
C326 C 0.88318 0.75888 0.5119 0.0
C327 C 0.88648 0.71674 0.47606 0.0
C328 C 0.87126 0.66871 0.4628 0.0
C329 C 0.86947 0.71114 0.49879 0.0
C330 C 0.83971 0.61498 0.47266 0.0
C331 C 0.82327 0.60908 0.49531 0.0
H332 H 0.17435 0.78755 0.86912 0.0
H333 H 0.08034 0.87486 0.87411 0.0
H334 H 0.10302 0.90572 0.83489 0.0
H335 H 0.14938 0.90798 0.7991 0.0
H336 H 0.24191 0.81932 0.79363 0.0
H337 H 0.22008 0.78902 0.83303 0.0
C338 C 0.15887 0.81333 0.8616 0.0
C339 C 0.12576 0.82891 0.87453 0.0
C340 C 0.17183 0.83074 0.83894 0.0
C341 C 0.10586 0.8622 0.86454 0.0
C342 C 0.11884 0.87995 0.8421 0.0
C343 C 0.16486 0.88211 0.80655 0.0
C344 C 0.19731 0.86604 0.79348 0.0
C345 C 0.15179 0.8645 0.82915 0.0
C346 C 0.21682 0.83227 0.80333 0.0
C347 C 0.20436 0.81493 0.82587 0.0
H348 H 0.2518 0.96799 0.95487 0.0
H349 H 0.19193 0.85244 0.01125 0.0
H350 H 0.24307 0.9308 0.03743 0.0
H351 H 0.29359 0.03315 0.04448 0.0
H352 H 0.35444 0.14859 0.98807 0.0
H353 H 0.31503 0.06939 0.96174 0.0
C354 C 0.25098 0.95989 0.97285 0.0
C355 C 0.21756 0.90461 0.98114 0.0
C356 C 0.28028 0.00522 0.98782 0.0
C357 C 0.21727 0.8946 0.00444 0.0
C358 C 0.24622 0.93947 0.01945 0.0
C359 C 0.2993 0.0409 0.02643 0.0
C360 C 0.32627 0.09664 0.01824 0.0
C361 C 0.2762 0.99511 0.01137 0.0
C362 C 0.33381 0.1061 0.99482 0.0
C363 C 0.31091 0.0608 0.97974 0.0
H364 H 0.21089 0.32967 0.3276 0.0
H365 H 0.25341 0.28503 0.39151 0.0
H366 H 0.30958 0.25111 0.37221 0.0
H367 H 0.33369 0.22039 0.33706 0.0
H368 H 0.28226 0.25556 0.27313 0.0
H369 H 0.24349 0.30761 0.29234 0.0
C370 C 0.23385 0.31403 0.33727 0.0
C371 C 0.2281 0.30977 0.3609 0.0
C372 C 0.26396 0.29221 0.32598 0.0
C373 C 0.25722 0.28857 0.37328 0.0
C374 C 0.28912 0.26895 0.36224 0.0
C375 C 0.3155 0.24091 0.32732 0.0
C376 C 0.31076 0.23417 0.30375 0.0
C377 C 0.29098 0.26852 0.33857 0.0
C378 C 0.28628 0.26017 0.29133 0.0
C379 C 0.26385 0.28968 0.30231 0.0
H380 H 0.88745 0.20595 0.66293 0.0
H381 H 0.97859 0.25997 0.7258 0.0
H382 H 0.06768 0.31174 0.70524 0.0
H383 H 0.12051 0.33027 0.66959 0.0
H384 H 0.02949 0.26906 0.60699 0.0
H385 H 0.9399 0.23229 0.62707 0.0
C386 C 0.92669 0.23033 0.67208 0.0
C387 C 0.92652 0.2291 0.69582 0.0
C388 C 0.97801 0.25818 0.66015 0.0
C389 C 0.97773 0.26022 0.70749 0.0
C390 C 0.02872 0.28962 0.69575 0.0
C391 C 0.08107 0.31008 0.66032 0.0
C392 C 0.08154 0.30215 0.63689 0.0
C393 C 0.02957 0.28723 0.6721 0.0
C394 C 0.03014 0.27539 0.62508 0.0
C395 C 0.97888 0.25421 0.63655 0.0
H396 H 0.67444 0.90025 0.00233 0.0
H397 H 0.7431 0.98543 0.06551 0.0
H398 H 0.78519 0.07666 0.04643 0.0
H399 H 0.81407 0.13121 0.01106 0.0
H400 H 0.75055 0.04552 0.94758 0.0
H401 H 0.69429 0.95609 0.96742 0.0
C402 C 0.69741 0.93885 0.01198 0.0
C403 C 0.70601 0.93605 0.03525 0.0
C404 C 0.72301 0.99126 1.00077 0.0
C405 C 0.73619 0.98644 0.04753 0.0
C406 C 0.76046 0.03868 0.03662 0.0
C407 C 0.78674 0.09322 1.00163 0.0
C408 C 0.78677 0.09491 0.9779 0.0
C409 C 0.7559 0.04153 0.01312 0.0
C410 C 0.75149 0.04525 0.96588 0.0
C411 C 0.71948 0.994 0.97721 0.0
H412 H 0.66124 0.77532 0.3451 0.0
H413 H 0.69796 0.72695 0.28084 0.0
H414 H 0.73829 0.67622 0.29999 0.0
H415 H 0.77748 0.65972 0.33471 0.0
H416 H 0.74869 0.71641 0.39861 0.0
H417 H 0.69032 0.74879 0.3801 0.0
C418 C 0.67649 0.7522 0.33534 0.0
C419 C 0.67688 0.75504 0.31162 0.0
C420 C 0.70186 0.7252 0.34646 0.0
C421 C 0.69741 0.72549 0.29914 0.0
C422 C 0.72077 0.69674 0.31008 0.0
C423 C 0.75698 0.67761 0.34462 0.0
C424 C 0.76748 0.68592 0.36794 0.0
C425 C 0.72539 0.69833 0.3337 0.0
C426 C 0.74134 0.70983 0.38059 0.0
C427 C 0.70817 0.72859 0.37 0.0
H428 H 0.04224 0.75697 0.71393 0.0
H429 H 0.15642 0.81192 0.65714 0.0
H430 H 0.07673 0.76435 0.63121 0.0
H431 H 0.97437 0.71926 0.62457 0.0
H432 H 0.86035 0.66368 0.68144 0.0
H433 H 0.94008 0.69849 0.70743 0.0
C434 C 0.04969 0.75742 0.69591 0.0
C435 C 0.10503 0.78851 0.68743 0.0
C436 C 1.00365 0.73031 0.6811 0.0
C437 C 0.1142 0.78833 0.66408 0.0
C438 C 0.0686 0.76147 0.64923 0.0
C439 C 0.96697 0.71365 0.64264 0.0
C440 C 0.91161 0.68965 0.65108 0.0
C441 C 0.01309 0.73414 0.65751 0.0
C442 C 0.90256 0.68214 0.67451 0.0
C443 C 0.94818 0.70239 0.6894 0.0
H444 H 0.02605 0.22297 0.01009 0.0
H445 H 0.08661 0.20744 0.94466 0.0
H446 H 0.16648 0.20638 0.9624 0.0
H447 H 0.22037 0.21242 0.99623 0.0
H448 H 0.16067 0.22779 0.06183 0.0
H449 H 0.07898 0.22627 0.04427 0.0
C450 C 0.05662 0.21911 0.99974 0.0
C451 C 0.05056 0.21546 0.9761 0.0
C452 C 0.10258 0.21868 0.01005 0.0
C453 C 0.09038 0.21037 0.96289 0.0
C454 C 0.1361 0.20984 0.97301 0.0
C455 C 0.18945 0.21535 0.00671 0.0
C456 C 0.19661 0.22048 0.03027 0.0
C457 C 0.14282 0.21441 0.99653 0.0
C458 C 0.15606 0.2239 0.04364 0.0
C459 C 0.10943 0.22307 0.03361 0.0
H460 H 0.85147 0.05879 0.29321 0.0
H461 H 0.76225 0.97113 0.35366 0.0
H462 H 0.83788 0.04239 0.37697 0.0
H463 H 0.92795 0.13154 0.3802 0.0
H464 H 0.01568 0.22014 0.31966 0.0
H465 H 0.94237 0.14645 0.29641 0.0
C466 C 0.8487 0.05521 0.31148 0.0
C467 C 0.80131 0.00995 0.32169 0.0
C468 C 0.89212 0.09649 0.32478 0.0
C469 C 0.79827 0.00577 0.34539 0.0
C470 C 0.8415 0.04645 0.35874 0.0
C471 C 0.93119 0.13438 0.36193 0.0
C472 C 0.97704 0.18117 0.35167 0.0
C473 C 0.88844 0.09223 0.34863 0.0
C474 C 0.98065 0.18454 0.32797 0.0
C475 C 0.93873 0.14249 0.31464 0.0
H476 H 0.79737 0.79874 0.67633 0.0
H477 H 0.78303 0.86272 0.61147 0.0
H478 H 0.78646 0.9442 0.62982 0.0
H479 H 0.79169 0.9961 0.66425 0.0
H480 H 0.80576 0.9323 0.72918 0.0
H481 H 0.80462 0.85185 0.71079 0.0
C482 C 0.79503 0.83055 0.66622 0.0
C483 C 0.78974 0.82468 0.6426 0.0
C484 C 0.79708 0.87724 0.67687 0.0
C485 C 0.787 0.86628 0.62969 0.0
C486 C 0.78898 0.91285 0.64016 0.0
C487 C 0.79475 0.96472 0.67438 0.0
C488 C 0.79872 0.97003 0.69803 0.0
C489 C 0.79379 0.9186 0.66373 0.0
C490 C 0.80271 0.92912 0.71094 0.0
C491 C 0.80194 0.8831 0.70044 0.0
H492 H 0.79288 0.79939 0.99862 0.0
H493 H 0.85952 0.78564 0.06287 0.0
H494 H 0.93848 0.78537 0.04367 0.0
H495 H 0.98724 0.78695 0.00856 0.0
H496 H 0.92032 0.80079 0.94437 0.0
H497 H 0.84272 0.80328 0.96366 0.0
C498 C 0.82475 0.79646 0.00844 0.0
C499 C 0.82032 0.79236 0.03212 0.0
C500 C 0.86986 0.7963 0.9973 0.0
C501 C 0.86201 0.78881 0.04461 0.0
C502 C 0.9071 0.78859 0.03365 0.0
C503 C 0.95574 0.79067 0.9988 0.0
C504 C 0.95937 0.79351 0.97508 0.0
C505 C 0.91125 0.792 0.00999 0.0
C506 C 0.9184 0.79848 0.96265 0.0
C507 C 0.87401 0.79985 0.97366 0.0
H508 H 0.07678 0.86619 0.38031 0.0
H509 H 0.97755 0.776 0.32221 0.0
H510 H 0.048 0.84706 0.29709 0.0
H511 H 0.13945 0.93317 0.29146 0.0
H512 H 0.23961 0.02273 0.34946 0.0
H513 H 0.16734 0.95377 0.37469 0.0
C514 C 0.07044 0.8624 0.36216 0.0
C515 C 0.02212 0.8159 0.35315 0.0
C516 C 0.11147 0.90315 0.34775 0.0
C517 C 0.01452 0.81137 0.32959 0.0
C518 C 0.0548 0.85194 0.31518 0.0
C519 C 0.14534 0.93765 0.30962 0.0
C520 C 0.19485 0.98282 0.31855 0.0
C521 C 0.10372 0.89771 0.32405 0.0
C522 C 0.20189 0.98817 0.34213 0.0
C523 C 0.16058 0.94878 0.35659 0.0
H524 H 0.21093 0.0102 0.66124 0.0
H525 H 0.21944 0.08725 0.72574 0.0
H526 H 0.2182 0.16598 0.70673 0.0
H527 H 0.21828 0.2144 0.67171 0.0
H528 H 0.2088 0.13664 0.60727 0.0
H529 H 0.20669 0.05642 0.62637 0.0
C530 C 0.21227 0.04411 0.67115 0.0
C531 C 0.2156 0.04314 0.69485 0.0
C532 C 0.21155 0.08908 0.66012 0.0
C533 C 0.21691 0.08711 0.70747 0.0
C534 C 0.21634 0.13216 0.69661 0.0
C535 C 0.21558 0.1798 0.66185 0.0
C536 C 0.21407 0.18155 0.63811 0.0
C537 C 0.21425 0.13383 0.67294 0.0
C538 C 0.21012 0.13628 0.62556 0.0
C539 C 0.20899 0.09047 0.63646 0.0
loop_
_geom_bond_atom_site_label_1
_geom_bond_atom_site_label_2
_geom_bond_distance
_geom_bond_site_symmetry_2
_ccdc_geom_bond_type
In0 O1 2.294 . S
In0 O2 2.326 . S
In0 O6 2.266 . S
In0 O7 2.326 . S
In0 O8 2.266 . S
In0 O9 2.326 . S
In0 O11 2.294 . S
In0 O12 2.326 . S
O1 In0 2.294 . S
O1 C10 1.240 . S
O2 In0 2.326 . S
O2 C10 1.252 . S
C3 O6 1.252 . S
C3 O7 1.260 . S
C4 O11 1.240 . S
C4 O12 1.252 . S
C5 O8 1.252 . S
C5 O9 1.260 . S
O6 In0 2.266 . S
O6 C3 1.252 . S
O7 In0 2.326 . S
O7 C3 1.260 . S
O8 In0 2.266 . S
O8 C5 1.252 . S
O9 In0 2.326 . S
O9 C5 1.260 . S
C10 O1 1.240 . S
C10 O2 1.252 . S
O11 In0 2.294 . S
O11 C4 1.240 . S
O12 In0 2.326 . S
O12 C4 1.252 . S
In13 O14 2.294 . S
In13 O15 2.326 . S
In13 O19 2.266 . S
In13 O20 2.326 . S
In13 O21 2.266 . S
In13 O22 2.326 . S
In13 O24 2.294 . S
In13 O25 2.326 . S
O14 In13 2.294 . S
O14 C23 1.240 . S
O15 In13 2.326 . S
O15 C23 1.252 . S
C16 O19 1.252 . S
C16 O20 1.260 . S
C17 O24 1.240 . S
C17 O25 1.252 . S
C18 O21 1.252 . S
C18 O22 1.260 . S
O19 In13 2.266 . S
O19 C16 1.252 . S
O20 In13 2.326 . S
O20 C16 1.260 . S
O21 In13 2.266 . S
O21 C18 1.252 . S
O22 In13 2.326 . S
O22 C18 1.260 . S
C23 O14 1.240 . S
C23 O15 1.252 . S
O24 In13 2.294 . S
O24 C17 1.240 . S
O25 In13 2.326 . S
O25 C17 1.252 . S
In26 O27 2.294 . S
In26 O28 2.326 . S
In26 O32 2.266 . S
In26 O33 2.326 . S
In26 O34 2.266 . S
In26 O35 2.326 . S
In26 O37 2.294 . S
In26 O38 2.326 . S
O27 In26 2.294 . S
O27 C36 1.240 . S
O28 In26 2.326 . S
O28 C36 1.252 . S
C29 O32 1.252 . S
C29 O33 1.260 . S
C30 O37 1.240 . S
C30 O38 1.252 . S
C31 O34 1.252 . S
C31 O35 1.260 . S
O32 In26 2.266 . S
O32 C29 1.252 . S
O33 In26 2.326 . S
O33 C29 1.260 . S
O34 In26 2.266 . S
O34 C31 1.252 . S
O35 In26 2.326 . S
O35 C31 1.260 . S
C36 O27 1.240 . S
C36 O28 1.252 . S
O37 In26 2.294 . S
O37 C30 1.240 . S
O38 In26 2.326 . S
O38 C30 1.252 . S
In39 O40 2.294 . S
In39 O41 2.326 . S
In39 O45 2.266 . S
In39 O46 2.326 . S
In39 O47 2.266 . S
In39 O48 2.326 . S
In39 O50 2.294 . S
In39 O51 2.326 . S
O40 In39 2.294 . S
O40 C49 1.240 . S
O41 In39 2.326 . S
O41 C49 1.252 . S
C42 O45 1.252 . S
C42 O46 1.260 . S
C43 O50 1.240 . S
C43 O51 1.252 . S
C44 O47 1.252 . S
C44 O48 1.260 . S
O45 In39 2.266 . S
O45 C42 1.252 . S
O46 In39 2.326 . S
O46 C42 1.260 . S
O47 In39 2.266 . S
O47 C44 1.252 . S
O48 In39 2.326 . S
O48 C44 1.260 . S
C49 O40 1.240 . S
C49 O41 1.252 . S
O50 In39 2.294 . S
O50 C43 1.240 . S
O51 In39 2.326 . S
O51 C43 1.252 . S
In52 O53 2.294 . S
In52 O54 2.326 . S
In52 O58 2.266 . S
In52 O59 2.326 . S
In52 O60 2.266 . S
In52 O61 2.326 . S
In52 O63 2.294 . S
In52 O64 2.326 . S
O53 In52 2.294 . S
O53 C62 1.240 . S
O54 In52 2.326 . S
O54 C62 1.252 . S
C55 O58 1.252 . S
C55 O59 1.260 . S
C56 O63 1.240 . S
C56 O64 1.252 . S
C57 O60 1.252 . S
C57 O61 1.260 . S
O58 In52 2.266 . S
O58 C55 1.252 . S
O59 In52 2.326 . S
O59 C55 1.260 . S
O60 In52 2.266 . S
O60 C57 1.252 . S
O61 In52 2.326 . S
O61 C57 1.260 . S
C62 O53 1.240 . S
C62 O54 1.252 . S
O63 In52 2.294 . S
O63 C56 1.240 . S
O64 In52 2.326 . S
O64 C56 1.252 . S
In65 O66 2.294 . S
In65 O67 2.326 . S
In65 O71 2.266 . S
In65 O72 2.326 . S
In65 O73 2.266 . S
In65 O74 2.326 . S
In65 O76 2.294 . S
In65 O77 2.326 . S
O66 In65 2.294 . S
O66 C75 1.240 . S
O67 In65 2.326 . S
O67 C75 1.252 . S
C68 O71 1.252 . S
C68 O72 1.260 . S
C69 O76 1.240 . S
C69 O77 1.252 . S
C70 O73 1.252 . S
C70 O74 1.260 . S
O71 In65 2.266 . S
O71 C68 1.252 . S
O72 In65 2.326 . S
O72 C68 1.260 . S
O73 In65 2.266 . S
O73 C70 1.252 . S
O74 In65 2.326 . S
O74 C70 1.260 . S
C75 O66 1.240 . S
C75 O67 1.252 . S
O76 In65 2.294 . S
O76 C69 1.240 . S
O77 In65 2.326 . S
O77 C69 1.252 . S
In78 O79 2.294 . S
In78 O80 2.326 . S
In78 O84 2.266 . S
In78 O85 2.326 . S
In78 O86 2.266 . S
In78 O87 2.326 . S
In78 O89 2.294 . S
In78 O90 2.326 . S
O79 In78 2.294 . S
O79 C88 1.240 . S
O80 In78 2.326 . S
O80 C88 1.252 . S
C81 O84 1.252 . S
C81 O85 1.260 . S
C82 O89 1.240 . S
C82 O90 1.252 . S
C83 O86 1.252 . S
C83 O87 1.260 . S
O84 In78 2.266 . S
O84 C81 1.252 . S
O85 In78 2.326 . S
O85 C81 1.260 . S
O86 In78 2.266 . S
O86 C83 1.252 . S
O87 In78 2.326 . S
O87 C83 1.260 . S
C88 O79 1.240 . S
C88 O80 1.252 . S
O89 In78 2.294 . S
O89 C82 1.240 . S
O90 In78 2.326 . S
O90 C82 1.252 . S
In91 O92 2.294 . S
In91 O93 2.326 . S
In91 O97 2.266 . S
In91 O98 2.326 . S
In91 O99 2.266 . S
In91 O100 2.326 . S
In91 O102 2.294 . S
In91 O103 2.326 . S
O92 In91 2.294 . S
O92 C101 1.240 . S
O93 In91 2.326 . S
O93 C101 1.252 . S
C94 O97 1.252 . S
C94 O98 1.260 . S
C95 O102 1.240 . S
C95 O103 1.252 . S
C96 O99 1.252 . S
C96 O100 1.260 . S
O97 In91 2.266 . S
O97 C94 1.252 . S
O98 In91 2.326 . S
O98 C94 1.260 . S
O99 In91 2.266 . S
O99 C96 1.252 . S
O100 In91 2.326 . S
O100 C96 1.260 . S
C101 O92 1.240 . S
C101 O93 1.252 . S
O102 In91 2.294 . S
O102 C95 1.240 . S
O103 In91 2.326 . S
O103 C95 1.252 . S
In104 O105 2.294 . S
In104 O106 2.326 . S
In104 O110 2.266 . S
In104 O111 2.326 . S
In104 O112 2.266 . S
In104 O113 2.326 . S
In104 O115 2.294 . S
In104 O116 2.326 . S
O105 In104 2.294 . S
O105 C114 1.240 . S
O106 In104 2.326 . S
O106 C114 1.252 . S
C107 O110 1.252 . S
C107 O111 1.260 . S
C108 O115 1.240 . S
C108 O116 1.252 . S
C109 O112 1.252 . S
C109 O113 1.260 . S
O110 In104 2.266 . S
O110 C107 1.252 . S
O111 In104 2.326 . S
O111 C107 1.260 . S
O112 In104 2.266 . S
O112 C109 1.252 . S
O113 In104 2.326 . S
O113 C109 1.260 . S
C114 O105 1.240 . S
C114 O106 1.252 . S
O115 In104 2.294 . S
O115 C108 1.240 . S
O116 In104 2.326 . S
O116 C108 1.252 . S
In117 O118 2.294 . S
In117 O119 2.326 . S
In117 O123 2.266 . S
In117 O124 2.326 . S
In117 O125 2.266 . S
In117 O126 2.326 . S
In117 O128 2.294 . S
In117 O129 2.326 . S
O118 In117 2.294 . S
O118 C127 1.240 . S
O119 In117 2.326 . S
O119 C127 1.252 . S
C120 O123 1.252 . S
C120 O124 1.260 . S
C121 O128 1.240 . S
C121 O129 1.252 . S
C122 O125 1.252 . S
C122 O126 1.260 . S
O123 In117 2.266 . S
O123 C120 1.252 . S
O124 In117 2.326 . S
O124 C120 1.260 . S
O125 In117 2.266 . S
O125 C122 1.252 . S
O126 In117 2.326 . S
O126 C122 1.260 . S
C127 O118 1.240 . S
C127 O119 1.252 . S
O128 In117 2.294 . S
O128 C121 1.240 . S
O129 In117 2.326 . S
O129 C121 1.252 . S
In130 O131 2.294 . S
In130 O132 2.326 . S
In130 O136 2.266 . S
In130 O137 2.326 . S
In130 O138 2.266 . S
In130 O139 2.326 . S
In130 O141 2.294 . S
In130 O142 2.326 . S
O131 In130 2.294 . S
O131 C140 1.240 . S
O132 In130 2.326 . S
O132 C140 1.252 . S
C133 O136 1.252 . S
C133 O137 1.260 . S
C134 O141 1.240 . S
C134 O142 1.252 . S
C135 O138 1.252 . S
C135 O139 1.260 . S
O136 In130 2.266 . S
O136 C133 1.252 . S
O137 In130 2.326 . S
O137 C133 1.260 . S
O138 In130 2.266 . S
O138 C135 1.252 . S
O139 In130 2.326 . S
O139 C135 1.260 . S
C140 O131 1.240 . S
C140 O132 1.252 . S
O141 In130 2.294 . S
O141 C134 1.240 . S
O142 In130 2.326 . S
O142 C134 1.252 . S
In143 O144 2.294 . S
In143 O145 2.326 . S
In143 O149 2.266 . S
In143 O150 2.326 . S
In143 O151 2.266 . S
In143 O152 2.326 . S
In143 O154 2.294 . S
In143 O155 2.326 . S
O144 In143 2.294 . S
O144 C153 1.240 . S
O145 In143 2.326 . S
O145 C153 1.252 . S
C146 O149 1.252 . S
C146 O150 1.260 . S
C147 O154 1.240 . S
C147 O155 1.252 . S
C148 O151 1.252 . S
C148 O152 1.260 . S
O149 In143 2.266 . S
O149 C146 1.252 . S
O150 In143 2.326 . S
O150 C146 1.260 . S
O151 In143 2.266 . S
O151 C148 1.252 . S
O152 In143 2.326 . S
O152 C148 1.260 . S
C153 O144 1.240 . S
C153 O145 1.252 . S
O154 In143 2.294 . S
O154 C147 1.240 . S
O155 In143 2.326 . S
O155 C147 1.252 . S
H156 C162 0.930 . S
H157 C165 0.930 . S
H158 C166 0.930 . S
H159 C167 0.930 . S
H160 C170 0.930 . S
H161 C171 0.930 . S
C162 H156 0.930 . S
C162 C163 1.355 . S
C162 C164 1.415 . S
C163 C162 1.355 . S
C163 C165 1.419 . S
C164 C162 1.415 . S
C164 C169 1.425 . S
C164 C171 1.409 . S
C165 H157 0.930 . S
C165 C163 1.419 . S
C165 C166 1.362 . S
C166 H158 0.930 . S
C166 C165 1.362 . S
C166 C169 1.409 . S
C167 H159 0.930 . S
C167 C168 1.355 . S
C167 C169 1.415 . S
C168 C167 1.355 . S
C168 C170 1.419 . S
C169 C164 1.425 . S
C169 C166 1.409 . S
C169 C167 1.415 . S
C170 H160 0.930 . S
C170 C168 1.419 . S
C170 C171 1.362 . S
C171 H161 0.930 . S
C171 C164 1.409 . S
C171 C170 1.362 . S
H172 C178 0.930 . S
H173 C181 0.930 . S
H174 C182 0.930 . S
H175 C183 0.930 . S
H176 C186 0.930 . S
H177 C187 0.930 . S
C178 H172 0.930 . S
C178 C179 1.355 . S
C178 C180 1.415 . S
C179 C178 1.355 . S
C179 C181 1.419 1_455 S
C180 C178 1.415 . S
C180 C185 1.425 1_455 S
C180 C187 1.409 . S
C181 H173 0.930 . S
C181 C179 1.419 1_655 S
C181 C182 1.362 . S
C182 H174 0.930 . S
C182 C181 1.362 . S
C182 C185 1.409 . S
C183 H175 0.930 . S
C183 C184 1.355 . S
C183 C185 1.415 . S
C184 C183 1.355 . S
C184 C186 1.419 1_655 S
C185 C180 1.425 1_655 S
C185 C182 1.409 . S
C185 C183 1.415 . S
C186 H176 0.930 . S
C186 C184 1.419 1_455 S
C186 C187 1.362 . S
C187 H177 0.930 . S
C187 C180 1.409 . S
C187 C186 1.362 . S
H188 C194 0.930 . S
H189 C197 0.930 . S
H190 C198 0.930 . S
H191 C199 0.930 . S
H192 C202 0.930 . S
H193 C203 0.930 . S
C194 H188 0.930 . S
C194 C195 1.355 . S
C194 C196 1.415 . S
C195 C194 1.355 . S
C195 C197 1.419 1_565 S
C196 C194 1.415 . S
C196 C201 1.425 1_565 S
C196 C203 1.409 . S
C197 H189 0.930 . S
C197 C195 1.419 1_545 S
C197 C198 1.362 . S
C198 H190 0.930 . S
C198 C197 1.362 . S
C198 C201 1.409 . S
C199 H191 0.930 . S
C199 C200 1.355 . S
C199 C201 1.415 . S
C200 C199 1.355 . S
C200 C202 1.419 1_545 S
C201 C196 1.425 1_545 S
C201 C198 1.409 . S
C201 C199 1.415 . S
C202 H192 0.930 . S
C202 C200 1.419 1_565 S
C202 C203 1.362 . S
C203 H193 0.930 . S
C203 C196 1.409 . S
C203 C202 1.362 . S
H204 C210 0.930 . S
H205 C213 0.930 . S
H206 C214 0.930 . S
H207 C215 0.930 . S
H208 C218 0.930 . S
H209 C219 0.930 . S
C210 H204 0.930 . S
C210 C211 1.355 . S
C210 C212 1.415 . S
C211 C210 1.355 . S
C211 C213 1.419 . S
C212 C210 1.415 . S
C212 C217 1.425 . S
C212 C219 1.409 . S
C213 H205 0.930 . S
C213 C211 1.419 . S
C213 C214 1.362 . S
C214 H206 0.930 . S
C214 C213 1.362 . S
C214 C217 1.409 . S
C215 H207 0.930 . S
C215 C216 1.355 . S
C215 C217 1.415 . S
C216 C215 1.355 . S
C216 C218 1.419 . S
C217 C212 1.425 . S
C217 C214 1.409 . S
C217 C215 1.415 . S
C218 H208 0.930 . S
C218 C216 1.419 . S
C218 C219 1.362 . S
C219 H209 0.930 . S
C219 C212 1.409 . S
C219 C218 1.362 . S
H220 C226 0.930 . S
H221 C229 0.930 . S
H222 C230 0.930 . S
H223 C231 0.930 . S
H224 C234 0.930 . S
H225 C235 0.930 . S
C226 H220 0.930 . S
C226 C227 1.355 . S
C226 C228 1.415 . S
C227 C226 1.355 . S
C227 C229 1.419 1_655 S
C228 C226 1.415 . S
C228 C233 1.425 1_655 S
C228 C235 1.409 . S
C229 H221 0.930 . S
C229 C227 1.419 1_455 S
C229 C230 1.362 . S
C230 H222 0.930 . S
C230 C229 1.362 . S
C230 C233 1.409 . S
C231 H223 0.930 . S
C231 C232 1.355 . S
C231 C233 1.415 . S
C232 C231 1.355 . S
C232 C234 1.419 1_455 S
C233 C228 1.425 1_455 S
C233 C230 1.409 . S
C233 C231 1.415 . S
C234 H224 0.930 . S
C234 C232 1.419 1_655 S
C234 C235 1.362 . S
C235 H225 0.930 . S
C235 C228 1.409 . S
C235 C234 1.362 . S
H236 C242 0.930 1_565 S
H237 C245 0.930 . S
H238 C246 0.930 . S
H239 C247 0.930 1_545 S
H240 C250 0.930 . S
H241 C251 0.930 . S
C242 H236 0.930 1_545 S
C242 C243 1.355 . S
C242 C244 1.415 1_545 S
C243 C242 1.355 . S
C243 C245 1.419 . S
C244 C242 1.415 1_565 S
C244 C249 1.425 1_565 S
C244 C251 1.409 . S
C245 H237 0.930 . S
C245 C243 1.419 . S
C245 C246 1.362 . S
C246 H238 0.930 . S
C246 C245 1.362 . S
C246 C249 1.409 . S
C247 H239 0.930 1_565 S
C247 C248 1.355 . S
C247 C249 1.415 1_565 S
C248 C247 1.355 . S
C248 C250 1.419 . S
C249 C244 1.425 1_545 S
C249 C246 1.409 . S
C249 C247 1.415 1_545 S
C250 H240 0.930 . S
C250 C248 1.419 . S
C250 C251 1.362 . S
C251 H241 0.930 . S
C251 C244 1.409 . S
C251 C250 1.362 . S
H252 C258 0.930 . S
H253 C261 0.930 . S
H254 C262 0.930 . S
H255 C263 0.930 . S
H256 C266 0.930 . S
H257 C267 0.930 . S
C258 H252 0.930 . S
C258 C259 1.355 . S
C258 C260 1.415 . S
C259 C258 1.355 . S
C259 C261 1.419 . S
C260 C258 1.415 . S
C260 C265 1.425 . S
C260 C267 1.409 . S
C261 H253 0.930 . S
C261 C259 1.419 . S
C261 C262 1.362 . S
C262 H254 0.930 . S
C262 C261 1.362 . S
C262 C265 1.409 . S
C263 H255 0.930 . S
C263 C264 1.355 . S
C263 C265 1.415 . S
C264 C263 1.355 . S
C264 C266 1.419 . S
C265 C260 1.425 . S
C265 C262 1.409 . S
C265 C263 1.415 . S
C266 H256 0.930 . S
C266 C264 1.419 . S
C266 C267 1.362 . S
C267 H257 0.930 . S
C267 C260 1.409 . S
C267 C266 1.362 . S
H268 C274 0.930 . S
H269 C277 0.930 . S
H270 C278 0.930 . S
H271 C279 0.930 . S
H272 C282 0.930 . S
H273 C283 0.930 . S
C274 H268 0.930 . S
C274 C275 1.355 . S
C274 C276 1.415 . S
C275 C274 1.355 . S
C275 C277 1.419 . S
C276 C274 1.415 . S
C276 C281 1.425 . S
C276 C283 1.409 . S
C277 H269 0.930 . S
C277 C275 1.419 . S
C277 C278 1.362 . S
C278 H270 0.930 . S
C278 C277 1.362 . S
C278 C281 1.409 . S
C279 H271 0.930 . S
C279 C280 1.355 . S
C279 C281 1.415 . S
C280 C279 1.355 . S
C280 C282 1.419 . S
C281 C276 1.425 . S
C281 C278 1.409 . S
C281 C279 1.415 . S
C282 H272 0.930 . S
C282 C280 1.419 . S
C282 C283 1.362 . S
C283 H273 0.930 . S
C283 C276 1.409 . S
C283 C282 1.362 . S
H284 C290 0.930 . S
H285 C293 0.930 . S
H286 C294 0.930 . S
H287 C295 0.930 . S
H288 C298 0.930 . S
H289 C299 0.930 . S
C290 H284 0.930 . S
C290 C291 1.355 . S
C290 C292 1.415 . S
C291 C290 1.355 . S
C291 C293 1.419 . S
C292 C290 1.415 . S
C292 C297 1.425 . S
C292 C299 1.409 . S
C293 H285 0.930 . S
C293 C291 1.419 . S
C293 C294 1.362 . S
C294 H286 0.930 . S
C294 C293 1.362 . S
C294 C297 1.409 . S
C295 H287 0.930 . S
C295 C296 1.355 . S
C295 C297 1.415 . S
C296 C295 1.355 . S
C296 C298 1.419 . S
C297 C292 1.425 . S
C297 C294 1.409 . S
C297 C295 1.415 . S
C298 H288 0.930 . S
C298 C296 1.419 . S
C298 C299 1.362 . S
C299 H289 0.930 . S
C299 C292 1.409 . S
C299 C298 1.362 . S
H300 C306 0.930 . S
H301 C309 0.930 . S
H302 C310 0.930 . S
H303 C311 0.930 . S
H304 C314 0.930 . S
H305 C315 0.930 . S
C306 H300 0.930 . S
C306 C307 1.355 . S
C306 C308 1.415 . S
C307 C306 1.355 . S
C307 C309 1.419 . S
C308 C306 1.415 . S
C308 C313 1.425 . S
C308 C315 1.409 . S
C309 H301 0.930 . S
C309 C307 1.419 . S
C309 C310 1.362 . S
C310 H302 0.930 . S
C310 C309 1.362 . S
C310 C313 1.409 . S
C311 H303 0.930 . S
C311 C312 1.355 . S
C311 C313 1.415 . S
C312 C311 1.355 . S
C312 C314 1.419 . S
C313 C308 1.425 . S
C313 C310 1.409 . S
C313 C311 1.415 . S
C314 H304 0.930 . S
C314 C312 1.419 . S
C314 C315 1.362 . S
C315 H305 0.930 . S
C315 C308 1.409 . S
C315 C314 1.362 . S
H316 C322 0.930 . S
H317 C325 0.930 . S
H318 C326 0.930 . S
H319 C327 0.930 . S
H320 C330 0.930 . S
H321 C331 0.930 . S
C322 H316 0.930 . S
C322 C323 1.355 . S
C322 C324 1.415 . S
C323 C322 1.355 . S
C323 C325 1.419 . S
C324 C322 1.415 . S
C324 C329 1.425 . S
C324 C331 1.409 . S
C325 H317 0.930 . S
C325 C323 1.419 . S
C325 C326 1.362 . S
C326 H318 0.930 . S
C326 C325 1.362 . S
C326 C329 1.409 . S
C327 H319 0.930 . S
C327 C328 1.355 . S
C327 C329 1.415 . S
C328 C327 1.355 . S
C328 C330 1.419 . S
C329 C324 1.425 . S
C329 C326 1.409 . S
C329 C327 1.415 . S
C330 H320 0.930 . S
C330 C328 1.419 . S
C330 C331 1.362 . S
C331 H321 0.930 . S
C331 C324 1.409 . S
C331 C330 1.362 . S
H332 C338 0.930 . S
H333 C341 0.930 . S
H334 C342 0.930 . S
H335 C343 0.930 . S
H336 C346 0.930 . S
H337 C347 0.930 . S
C338 H332 0.930 . S
C338 C339 1.355 . S
C338 C340 1.415 . S
C339 C338 1.355 . S
C339 C341 1.419 . S
C340 C338 1.415 . S
C340 C345 1.425 . S
C340 C347 1.409 . S
C341 H333 0.930 . S
C341 C339 1.419 . S
C341 C342 1.362 . S
C342 H334 0.930 . S
C342 C341 1.362 . S
C342 C345 1.409 . S
C343 H335 0.930 . S
C343 C344 1.355 . S
C343 C345 1.415 . S
C344 C343 1.355 . S
C344 C346 1.419 . S
C345 C340 1.425 . S
C345 C342 1.409 . S
C345 C343 1.415 . S
C346 H336 0.930 . S
C346 C344 1.419 . S
C346 C347 1.362 . S
C347 H337 0.930 . S
C347 C340 1.409 . S
C347 C346 1.362 . S
H348 C354 0.930 . S
H349 C357 0.930 . S
H350 C358 0.930 . S
H351 C359 0.930 . S
H352 C362 0.930 . S
H353 C363 0.930 . S
C354 H348 0.930 . S
C354 C355 1.355 . S
C354 C356 1.409 1_565 S
C355 C354 1.355 . S
C355 C357 1.419 . S
C356 C354 1.409 1_545 S
C356 C361 1.419 1_546 S
C356 C363 1.418 . S
C357 H349 0.930 . S
C357 C355 1.419 . S
C357 C358 1.362 1_556 S
C358 H350 0.930 . S
C358 C357 1.362 1_554 S
C358 C361 1.418 . S
C359 H351 0.930 . S
C359 C360 1.355 . S
C359 C361 1.409 1_545 S
C360 C359 1.355 . S
C360 C362 1.419 . S
C361 C356 1.419 1_564 S
C361 C358 1.418 . S
C361 C359 1.409 1_565 S
C362 H352 0.930 . S
C362 C360 1.419 . S
C362 C363 1.362 1_554 S
C363 H353 0.930 . S
C363 C356 1.418 . S
C363 C362 1.362 1_556 S
H364 C370 0.930 . S
H365 C373 0.930 . S
H366 C374 0.930 . S
H367 C375 0.930 . S
H368 C378 0.930 . S
H369 C379 0.930 . S
C370 H364 0.930 . S
C370 C371 1.355 . S
C370 C372 1.415 . S
C371 C370 1.355 . S
C371 C373 1.419 . S
C372 C370 1.415 . S
C372 C377 1.425 . S
C372 C379 1.409 . S
C373 H365 0.930 . S
C373 C371 1.419 . S
C373 C374 1.362 . S
C374 H366 0.930 . S
C374 C373 1.362 . S
C374 C377 1.409 . S
C375 H367 0.930 . S
C375 C376 1.355 . S
C375 C377 1.415 . S
C376 C375 1.355 . S
C376 C378 1.419 . S
C377 C372 1.425 . S
C377 C374 1.409 . S
C377 C375 1.415 . S
C378 H368 0.930 . S
C378 C376 1.419 . S
C378 C379 1.362 . S
C379 H369 0.930 . S
C379 C372 1.409 . S
C379 C378 1.362 . S
H380 C386 0.930 . S
H381 C389 0.930 . S
H382 C390 0.930 1_455 S
H383 C391 0.930 . S
H384 C394 0.930 . S
H385 C395 0.930 1_655 S
C386 H380 0.930 . S
C386 C387 1.355 . S
C386 C388 1.415 . S
C387 C386 1.355 . S
C387 C389 1.419 . S
C388 C386 1.415 . S
C388 C393 1.425 1_655 S
C388 C395 1.409 1_655 S
C389 H381 0.930 . S
C389 C387 1.419 . S
C389 C390 1.362 . S
C390 H382 0.930 1_655 S
C390 C389 1.362 . S
C390 C393 1.409 1_655 S
C391 H383 0.930 . S
C391 C392 1.355 . S
C391 C393 1.415 . S
C392 C391 1.355 . S
C392 C394 1.419 . S
C393 C388 1.425 1_455 S
C393 C390 1.409 1_455 S
C393 C391 1.415 . S
C394 H384 0.930 . S
C394 C392 1.419 . S
C394 C395 1.362 . S
C395 H385 0.930 1_455 S
C395 C388 1.409 1_455 S
C395 C394 1.362 . S
H396 C402 0.930 . S
H397 C405 0.930 . S
H398 C406 0.930 . S
H399 C407 0.930 . S
H400 C410 0.930 . S
H401 C411 0.930 . S
C402 H396 0.930 . S
C402 C403 1.355 . S
C402 C404 1.417 . S
C403 C402 1.355 . S
C403 C405 1.419 . S
C404 C402 1.417 . S
C404 C409 1.425 1_564 S
C404 C411 1.407 1_564 S
C405 H397 0.930 . S
C405 C403 1.419 . S
C405 C406 1.362 . S
C406 H398 0.930 . S
C406 C405 1.362 . S
C406 C409 1.407 1_564 S
C407 H399 0.930 . S
C407 C408 1.355 . S
C407 C409 1.417 . S
C408 C407 1.355 . S
C408 C410 1.419 . S
C409 C404 1.425 1_546 S
C409 C406 1.407 1_546 S
C409 C407 1.417 . S
C410 H400 0.930 . S
C410 C408 1.419 . S
C410 C411 1.362 . S
C411 H401 0.930 . S
C411 C404 1.407 1_546 S
C411 C410 1.362 . S
H412 C418 0.930 . S
H413 C421 0.930 . S
H414 C422 0.930 . S
H415 C423 0.930 . S
H416 C426 0.930 . S
H417 C427 0.930 . S
C418 H412 0.930 . S
C418 C419 1.355 . S
C418 C420 1.415 . S
C419 C418 1.355 . S
C419 C421 1.419 . S
C420 C418 1.415 . S
C420 C425 1.425 . S
C420 C427 1.409 . S
C421 H413 0.930 . S
C421 C419 1.419 . S
C421 C422 1.362 . S
C422 H414 0.930 . S
C422 C421 1.362 . S
C422 C425 1.409 . S
C423 H415 0.930 . S
C423 C424 1.355 . S
C423 C425 1.415 . S
C424 C423 1.355 . S
C424 C426 1.419 . S
C425 C420 1.425 . S
C425 C422 1.409 . S
C425 C423 1.415 . S
C426 H416 0.930 . S
C426 C424 1.419 . S
C426 C427 1.362 . S
C427 H417 0.930 . S
C427 C420 1.409 . S
C427 C426 1.362 . S
H428 C434 0.930 . S
H429 C437 0.930 . S
H430 C438 0.930 . S
H431 C439 0.930 . S
H432 C442 0.930 . S
H433 C443 0.930 . S
C434 H428 0.930 . S
C434 C435 1.355 . S
C434 C436 1.415 1_455 S
C435 C434 1.355 . S
C435 C437 1.419 . S
C436 C434 1.415 1_655 S
C436 C441 1.425 1_655 S
C436 C443 1.409 . S
C437 H429 0.930 . S
C437 C435 1.419 . S
C437 C438 1.362 . S
C438 H430 0.930 . S
C438 C437 1.362 . S
C438 C441 1.409 . S
C439 H431 0.930 . S
C439 C440 1.355 . S
C439 C441 1.415 1_655 S
C440 C439 1.355 . S
C440 C442 1.419 . S
C441 C436 1.425 1_455 S
C441 C438 1.409 . S
C441 C439 1.415 1_455 S
C442 H432 0.930 . S
C442 C440 1.419 . S
C442 C443 1.362 . S
C443 H433 0.930 . S
C443 C436 1.409 . S
C443 C442 1.362 . S
H444 C450 0.930 1_554 S
H445 C453 0.930 . S
H446 C454 0.930 . S
H447 C455 0.930 1_556 S
H448 C458 0.930 . S
H449 C459 0.930 . S
C450 H444 0.930 1_556 S
C450 C451 1.355 . S
C450 C452 1.415 1_556 S
C451 C450 1.355 . S
C451 C453 1.419 . S
C452 C450 1.415 1_554 S
C452 C457 1.425 1_554 S
C452 C459 1.409 . S
C453 H445 0.930 . S
C453 C451 1.419 . S
C453 C454 1.362 . S
C454 H446 0.930 . S
C454 C453 1.362 . S
C454 C457 1.409 . S
C455 H447 0.930 1_554 S
C455 C456 1.355 . S
C455 C457 1.415 1_554 S
C456 C455 1.355 . S
C456 C458 1.419 . S
C457 C452 1.425 1_556 S
C457 C454 1.409 . S
C457 C455 1.415 1_556 S
C458 H448 0.930 . S
C458 C456 1.419 . S
C458 C459 1.362 . S
C459 H449 0.930 . S
C459 C452 1.409 . S
C459 C458 1.362 . S
H460 C466 0.930 . S
H461 C469 0.930 . S
H462 C470 0.930 . S
H463 C471 0.930 . S
H464 C474 0.930 1_455 S
H465 C475 0.930 . S
C466 H460 0.930 . S
C466 C467 1.355 . S
C466 C468 1.415 . S
C467 C466 1.355 . S
C467 C469 1.419 . S
C468 C466 1.415 . S
C468 C473 1.425 . S
C468 C475 1.409 . S
C469 H461 0.930 . S
C469 C467 1.419 . S
C469 C470 1.362 . S
C470 H462 0.930 . S
C470 C469 1.362 . S
C470 C473 1.409 . S
C471 H463 0.930 . S
C471 C472 1.355 . S
C471 C473 1.415 . S
C472 C471 1.355 . S
C472 C474 1.419 . S
C473 C468 1.425 . S
C473 C470 1.409 . S
C473 C471 1.415 . S
C474 H464 0.930 1_655 S
C474 C472 1.419 . S
C474 C475 1.362 . S
C475 H465 0.930 . S
C475 C468 1.409 . S
C475 C474 1.362 . S
H476 C482 0.930 . S
H477 C485 0.930 . S
H478 C486 0.930 . S
H479 C487 0.930 . S
H480 C490 0.930 . S
H481 C491 0.930 . S
C482 H476 0.930 . S
C482 C483 1.355 . S
C482 C484 1.415 . S
C483 C482 1.355 . S
C483 C485 1.419 . S
C484 C482 1.415 . S
C484 C489 1.425 . S
C484 C491 1.409 . S
C485 H477 0.930 . S
C485 C483 1.419 . S
C485 C486 1.362 . S
C486 H478 0.930 . S
C486 C485 1.362 . S
C486 C489 1.409 . S
C487 H479 0.930 . S
C487 C488 1.355 . S
C487 C489 1.415 . S
C488 C487 1.355 . S
C488 C490 1.419 . S
C489 C484 1.425 . S
C489 C486 1.409 . S
C489 C487 1.415 . S
C490 H480 0.930 . S
C490 C488 1.419 . S
C490 C491 1.362 . S
C491 H481 0.930 . S
C491 C484 1.409 . S
C491 C490 1.362 . S
H492 C498 0.930 1_556 S
H493 C501 0.930 . S
H494 C502 0.930 . S
H495 C503 0.930 1_554 S
H496 C506 0.930 . S
H497 C507 0.930 . S
C498 H492 0.930 1_554 S
C498 C499 1.355 . S
C498 C500 1.415 1_554 S
C499 C498 1.355 . S
C499 C501 1.419 . S
C500 C498 1.415 1_556 S
C500 C505 1.425 1_556 S
C500 C507 1.409 . S
C501 H493 0.930 . S
C501 C499 1.419 . S
C501 C502 1.362 . S
C502 H494 0.930 . S
C502 C501 1.362 . S
C502 C505 1.409 . S
C503 H495 0.930 1_556 S
C503 C504 1.355 . S
C503 C505 1.415 1_556 S
C504 C503 1.355 . S
C504 C506 1.419 . S
C505 C500 1.425 1_554 S
C505 C502 1.409 . S
C505 C503 1.415 1_554 S
C506 H496 0.930 . S
C506 C504 1.419 . S
C506 C507 1.362 . S
C507 H497 0.930 . S
C507 C500 1.409 . S
C507 C506 1.362 . S
H508 C514 0.930 . S
H509 C517 0.930 1_655 S
H510 C518 0.930 . S
H511 C519 0.930 . S
H512 C522 0.930 . S
H513 C523 0.930 . S
C514 H508 0.930 . S
C514 C515 1.355 . S
C514 C516 1.415 . S
C515 C514 1.355 . S
C515 C517 1.419 . S
C516 C514 1.415 . S
C516 C521 1.425 . S
C516 C523 1.409 . S
C517 H509 0.930 1_455 S
C517 C515 1.419 . S
C517 C518 1.362 . S
C518 H510 0.930 . S
C518 C517 1.362 . S
C518 C521 1.409 . S
C519 H511 0.930 . S
C519 C520 1.355 . S
C519 C521 1.415 . S
C520 C519 1.355 . S
C520 C522 1.419 . S
C521 C516 1.425 . S
C521 C518 1.409 . S
C521 C519 1.415 . S
C522 H512 0.930 . S
C522 C520 1.419 . S
C522 C523 1.362 . S
C523 H513 0.930 . S
C523 C516 1.409 . S
C523 C522 1.362 . S
H524 C530 0.930 . S
H525 C533 0.930 . S
H526 C534 0.930 . S
H527 C535 0.930 . S
H528 C538 0.930 . S
H529 C539 0.930 . S
C530 H524 0.930 . S
C530 C531 1.355 . S
C530 C532 1.415 . S
C531 C530 1.355 . S
C531 C533 1.419 . S
C532 C530 1.415 . S
C532 C537 1.425 . S
C532 C539 1.409 . S
C533 H525 0.930 . S
C533 C531 1.419 . S
C533 C534 1.362 . S
C534 H526 0.930 . S
C534 C533 1.362 . S
C534 C537 1.409 . S
C535 H527 0.930 . S
C535 C536 1.355 . S
C535 C537 1.415 . S
C536 C535 1.355 . S
C536 C538 1.419 . S
C537 C532 1.425 . S
C537 C534 1.409 . S
C537 C535 1.415 . S
C538 H528 0.930 . S
C538 C536 1.419 . S
C538 C539 1.362 . S
C539 H529 0.930 . S
C539 C532 1.409 . S
C539 C538 1.362 . S
C163 C43 1.586 . S
C168 C10 1.586 . S
C179 C17 1.541 . S
C184 C56 1.542 . S
C195 C75 1.548 . S
C200 C36 1.546 . S
C211 C82 1.587 . S
C216 C121 1.588 . S
C227 C134 1.542 . S
C232 C101 1.542 . S
C243 C114 1.580 . S
C248 C147 1.581 . S
C259 C108 1.629 . S
C264 C4 1.642 . S
C275 C23 1.634 . S
C280 C127 1.637 . S
C291 C30 1.640 . S
C296 C140 1.631 . S
C307 C49 1.638 . S
C312 C153 1.633 . S
C323 C88 1.630 . S
C328 C62 1.641 . S
C339 C95 1.633 . S
C344 C69 1.637 . S
C355 C94 1.326 . S
C360 C3 1.287 . S
C371 C18 1.323 . S
C376 C107 1.290 . S
C387 C29 1.286 . S
C392 C122 1.327 . S
C403 C44 1.287 . S
C408 C135 1.327 . S
C419 C148 1.291 . S
C424 C57 1.322 . S
C435 C68 1.324 . S
C440 C83 1.290 . S
C451 C133 1.415 1_455 S
C456 C5 1.418 . S
C467 C146 1.413 1_545 S
C472 C16 1.409 1_655 S
C483 C81 1.418 . S
C488 C31 1.415 1_565 S
C499 C42 1.419 . S
C504 C96 1.412 1_655 S
C515 C55 1.410 1_455 S
C520 C109 1.417 1_565 S
C531 C70 1.418 1_545 S
C536 C120 1.410 . S
