# Generated by pormake.
# Topology umz, (4)-cn, num edge types: 1
# Building blocks:
#     Node 0, Type 0, BuildingBlock: QUQFOY_clean_sbu_3, # of connection points: 4
#     Node 1, Type 0, BuildingBlock: QUQFOY_clean_sbu_3, # of connection points: 4
#     Node 2, Type 0, BuildingBlock: QUQFOY_clean_sbu_3, # of connection points: 4
#     Node 3, Type 0, BuildingBlock: QUQFOY_clean_sbu_3, # of connection points: 4
#     Node 4, Type 0, BuildingBlock: QUQFOY_clean_sbu_3, # of connection points: 4
#     Node 5, Type 0, BuildingBlock: QUQFOY_clean_sbu_3, # of connection points: 4
#     Node 6, Type 0, BuildingBlock: QUQFOY_clean_sbu_3, # of connection points: 4
#     Node 7, Type 0, BuildingBlock: QUQFOY_clean_sbu_3, # of connection points: 4
#     Node 8, Type 0, BuildingBlock: QUQFOY_clean_sbu_3, # of connection points: 4
#     Node 9, Type 0, BuildingBlock: QUQFOY_clean_sbu_3, # of connection points: 4
#     Node 10, Type 0, BuildingBlock: QUQFOY_clean_sbu_3, # of connection points: 4
#     Node 11, Type 0, BuildingBlock: QUQFOY_clean_sbu_3, # of connection points: 4
#     Node 12, Type 0, BuildingBlock: QUQFOY_clean_sbu_3, # of connection points: 4
#     Node 13, Type 0, BuildingBlock: QUQFOY_clean_sbu_3, # of connection points: 4
#     Node 14, Type 0, BuildingBlock: QUQFOY_clean_sbu_3, # of connection points: 4
#     Node 15, Type 0, BuildingBlock: QUQFOY_clean_sbu_3, # of connection points: 4
#     Edge 16, Type (0, 0), BuildingBlock: XIVTED_clean_linker_0, # of connection points: 2
#     Edge 17, Type (0, 0), BuildingBlock: XIVTED_clean_linker_0, # of connection points: 2
#     Edge 18, Type (0, 0), BuildingBlock: XIVTED_clean_linker_0, # of connection points: 2
#     Edge 19, Type (0, 0), BuildingBlock: XIVTED_clean_linker_0, # of connection points: 2
#     Edge 20, Type (0, 0), BuildingBlock: XIVTED_clean_linker_0, # of connection points: 2
#     Edge 21, Type (0, 0), BuildingBlock: XIVTED_clean_linker_0, # of connection points: 2
#     Edge 22, Type (0, 0), BuildingBlock: XIVTED_clean_linker_0, # of connection points: 2
#     Edge 23, Type (0, 0), BuildingBlock: XIVTED_clean_linker_0, # of connection points: 2
#     Edge 24, Type (0, 0), BuildingBlock: XIVTED_clean_linker_0, # of connection points: 2
#     Edge 25, Type (0, 0), BuildingBlock: XIVTED_clean_linker_0, # of connection points: 2
#     Edge 26, Type (0, 0), BuildingBlock: XIVTED_clean_linker_0, # of connection points: 2
#     Edge 27, Type (0, 0), BuildingBlock: XIVTED_clean_linker_0, # of connection points: 2
#     Edge 28, Type (0, 0), BuildingBlock: XIVTED_clean_linker_0, # of connection points: 2
#     Edge 29, Type (0, 0), BuildingBlock: XIVTED_clean_linker_0, # of connection points: 2
#     Edge 30, Type (0, 0), BuildingBlock: XIVTED_clean_linker_0, # of connection points: 2
#     Edge 31, Type (0, 0), BuildingBlock: XIVTED_clean_linker_0, # of connection points: 2
#     Edge 32, Type (0, 0), BuildingBlock: XIVTED_clean_linker_0, # of connection points: 2
#     Edge 33, Type (0, 0), BuildingBlock: XIVTED_clean_linker_0, # of connection points: 2
#     Edge 34, Type (0, 0), BuildingBlock: XIVTED_clean_linker_0, # of connection points: 2
#     Edge 35, Type (0, 0), BuildingBlock: XIVTED_clean_linker_0, # of connection points: 2
#     Edge 36, Type (0, 0), BuildingBlock: XIVTED_clean_linker_0, # of connection points: 2
#     Edge 37, Type (0, 0), BuildingBlock: XIVTED_clean_linker_0, # of connection points: 2
#     Edge 38, Type (0, 0), BuildingBlock: XIVTED_clean_linker_0, # of connection points: 2
#     Edge 39, Type (0, 0), BuildingBlock: XIVTED_clean_linker_0, # of connection points: 2
#     Edge 40, Type (0, 0), BuildingBlock: XIVTED_clean_linker_0, # of connection points: 2
#     Edge 41, Type (0, 0), BuildingBlock: XIVTED_clean_linker_0, # of connection points: 2
#     Edge 42, Type (0, 0), BuildingBlock: XIVTED_clean_linker_0, # of connection points: 2
#     Edge 43, Type (0, 0), BuildingBlock: XIVTED_clean_linker_0, # of connection points: 2
#     Edge 44, Type (0, 0), BuildingBlock: XIVTED_clean_linker_0, # of connection points: 2
#     Edge 45, Type (0, 0), BuildingBlock: XIVTED_clean_linker_0, # of connection points: 2
#     Edge 46, Type (0, 0), BuildingBlock: XIVTED_clean_linker_0, # of connection points: 2
#     Edge 47, Type (0, 0), BuildingBlock: XIVTED_clean_linker_0, # of connection points: 2
# Relax obj value: 0.249
# Max RMSD: 0.161
# Mean RMSD: 0.161
data_MOF--net-umz--node1-QUQFOY_clean_sbu_3--edge1-XIVTED_clean_linker_0
_symmetry_space_group_name_H-M    P1
_symmetry_Int_Tables_number       1
_symmetry_cell_setting            triclinic
loop_
_symmetry_equiv_pos_as_xyz
'x, y, z'
_cell_length_a     62.363078
_cell_length_b     61.969624
_cell_length_c     23.12897
_cell_angle_alpha  90.052602
_cell_angle_beta   90.610288
_cell_angle_gamma 90.357881
loop_
_atom_site_label
_atom_site_type_symbol
_atom_site_fract_x
_atom_site_fract_y
_atom_site_fract_z
_atom_type_partial_charge
C0 C 0.9327 0.58065 0.04789 0.0
O1 O 0.93391 0.5648 0.01323 0.0
Cd2 Cd 0.96501 0.55871 0.95404 0.0
O3 O 0.94674 0.59563 0.04684 0.0
Cd4 Cd 0.97885 0.6065 -0.00765 0.0
C5 C 0.00334 0.56515 0.06141 0.0
O6 O 0.97479 0.58943 0.89758 0.0
O7 O 0.00678 0.59935 0.9242 0.0
O8 O 0.96639 0.64177 0.96204 0.0
C9 C -0.00542 0.59132 0.88545 0.0
O10 O -0.00681 0.55278 0.0264 0.0
C11 C 0.97941 0.65241 -0.00626 0.0
O12 O 0.00058 0.58554 0.06037 0.0
O13 O -0.00795 0.6417 0.02613 0.0
C14 C 0.88288 0.94211 0.55721 0.0
O15 O 0.89836 0.94303 0.522 0.0
Cd16 Cd 0.90368 0.97346 0.4584 0.0
O17 O 0.86791 0.95596 0.55455 0.0
Cd18 Cd 0.85618 -0.01312 0.49516 0.0
C19 C 0.89716 0.01297 0.5621 0.0
O20 O 0.87263 0.98104 0.4007 0.0
O21 O 0.86184 0.01328 0.42085 0.0
O22 O 0.82166 0.96933 0.48066 0.0
C23 C 0.87013 0.00052 0.38465 0.0
O24 O 0.90931 0.00282 0.52757 0.0
C25 C 0.81062 -0.01478 0.49777 0.0
O26 O 0.87694 0.00965 0.56187 0.0
O27 O 0.82084 0.00186 0.51526 0.0
C28 C 0.5229 0.88152 0.04499 0.0
O29 O 0.52178 0.89716 0.00966 0.0
Cd30 Cd 0.49082 0.90302 0.94816 0.0
O31 O 0.50882 0.86656 0.04358 0.0
Cd32 Cd 0.4769 0.85537 -0.0133 0.0
C33 C 0.45185 0.89676 0.052 0.0
O34 O 0.48161 0.87196 0.89192 0.0
O35 O 0.44942 0.86223 0.91509 0.0
O36 O 0.48951 0.81987 0.95968 0.0
C37 C 0.46192 0.87014 0.8776 0.0
O38 O 0.46216 0.909 0.01764 0.0
C39 C 0.47637 0.80954 -0.00905 0.0
O40 O 0.45473 0.8764 0.05198 0.0
O41 O 0.46351 0.82054 0.02122 0.0
C42 C 0.57948 0.5253 0.57672 0.0
O43 O 0.56468 0.52596 0.53861 0.0
Cd44 Cd 0.55848 0.49654 0.47183 0.0
O45 O 0.59365 0.51062 0.57493 0.0
Cd46 Cd 0.6048 0.48046 0.51236 0.0
C47 C 0.56228 0.45522 0.57168 0.0
O48 O 0.58953 0.48842 0.41659 0.0
O49 O 0.59859 0.45544 0.43482 0.0
O50 O 0.63988 0.4969 0.50237 0.0
C51 C 0.5914 0.46908 0.39883 0.0
O52 O 0.55089 0.46656 0.53731 0.0
C53 C 0.65036 0.48041 0.51841 0.0
O54 O 0.58264 0.45747 0.57378 0.0
O55 O 0.63956 0.46394 0.53377 0.0
C56 C 0.93604 0.88673 0.92194 0.0
O57 O 0.93772 0.90211 0.95809 0.0
Cd58 Cd 0.96882 0.90715 0.01964 0.0
O59 O 0.94963 0.87148 0.92231 0.0
Cd60 Cd -0.01864 0.85942 0.97829 0.0
C61 C 0.00728 0.90105 0.91454 0.0
O62 O 0.97704 0.87549 0.07374 0.0
O63 O 0.009 0.86551 0.05026 0.0
O64 O 0.96766 0.82415 0.00486 0.0
C65 C -0.00334 0.87327 0.08814 0.0
O66 O -0.00263 0.91319 0.94972 0.0
C67 C -0.01935 0.81353 0.97416 0.0
O68 O 0.00396 0.88071 0.91373 0.0
O69 O -0.00618 0.82427 0.94377 0.0
C70 C 0.57821 0.93805 0.40532 0.0
O71 O 0.56281 0.93984 0.44049 0.0
Cd72 Cd 0.55746 0.9726 0.49514 0.0
O73 O 0.59317 0.95211 0.40485 0.0
Cd74 Cd 0.60499 -0.0153 0.45798 0.0
C75 C 0.5649 0.00797 0.38199 0.0
O76 O 0.58793 0.9826 0.55314 0.0
O77 O 0.59903 0.01387 0.52386 0.0
O78 O 0.63965 0.96856 0.47855 0.0
C79 C 0.59064 0.00262 0.56349 0.0
O80 O 0.55232 -0.00082 0.41824 0.0
C81 C 0.65056 -0.01606 0.45723 0.0
O82 O 0.58507 0.00474 0.38455 0.0
O83 O 0.6402 -0.00053 0.43467 0.0
C84 C 0.52424 0.57584 0.9419 0.0
O85 O 0.52221 0.56008 0.97652 0.0
Cd86 Cd 0.49075 0.555 0.03523 0.0
O87 O 0.51071 0.59113 0.94209 0.0
Cd88 Cd 0.47848 0.60258 -0.00546 0.0
C89 C 0.45267 0.56113 0.92779 0.0
O90 O 0.48218 0.58642 0.09047 0.0
O91 O 0.45047 0.59667 0.06349 0.0
O92 O 0.49099 0.6384 0.02152 0.0
C93 C 0.46249 0.5889 0.10275 0.0
O94 O 0.46235 0.54873 0.96326 0.0
C95 C 0.47816 0.64838 -0.01188 0.0
O96 O 0.45619 0.58142 0.92805 0.0
O97 O 0.46566 0.63703 0.95657 0.0
C98 C 0.88013 0.52644 0.41075 0.0
O99 O 0.89543 0.52678 0.44743 0.0
Cd100 Cd 0.90231 0.4963 0.51 0.0
O101 O 0.86599 0.51158 0.41255 0.0
Cd102 Cd 0.85554 0.48052 0.47299 0.0
C103 C 0.89669 0.45662 0.40567 0.0
O104 O 0.87243 0.48634 0.56814 0.0
O105 O 0.86302 0.45375 0.54483 0.0
O106 O 0.82117 0.49706 0.49039 0.0
C107 C 0.87085 0.46655 0.58238 0.0
O108 O 0.90859 0.46744 0.44039 0.0
C109 C 0.80996 0.48109 0.47313 0.0
O110 O 0.87634 0.45879 0.40564 0.0
O111 O 0.82 0.46482 0.45386 0.0
C112 C 0.02626 0.38451 0.91867 0.0
O113 O 0.02569 0.40032 0.95359 0.0
Cd114 Cd -0.00532 0.40718 0.0128 0.0
O115 O 0.01172 0.37005 0.91986 0.0
Cd116 Cd 0.97957 0.36017 0.97516 0.0
C117 C 0.95601 0.40195 0.90609 0.0
O118 O -0.01649 0.37715 0.0703 0.0
O119 O 0.95147 0.36815 0.04146 0.0
O120 O -0.00821 0.32524 0.00791 0.0
C121 C 0.96356 0.37569 0.08115 0.0
O122 O 0.9666 0.41399 0.94098 0.0
C123 C 0.97877 0.31429 0.97702 0.0
O124 O 0.9582 0.38148 0.90689 0.0
O125 O 0.96621 0.32466 0.94359 0.0
C126 C 0.07897 0.02733 0.42545 0.0
O127 O 0.0634 0.02595 0.46026 0.0
Cd128 Cd 0.05766 -0.00535 0.52053 0.0
O129 O 0.09384 0.01336 0.42677 0.0
Cd130 Cd 0.10485 0.98121 0.48244 0.0
C131 C 0.06344 0.95579 0.41507 0.0
O132 O 0.08853 -0.01446 0.57732 0.0
O133 O 0.09819 0.95335 0.55255 0.0
O134 O 0.14028 -0.00591 0.51067 0.0
C135 C 0.09048 0.96572 0.59069 0.0
O136 O 0.05131 0.96596 0.4496 0.0
C137 C 0.15042 0.98089 0.47926 0.0
O138 O 0.08369 0.95885 0.41584 0.0
O139 O 0.13935 0.96796 0.44819 0.0
C140 C 0.44444 0.1003 0.86235 0.0
O141 O 0.43879 0.09801 0.91445 0.0
Cd142 Cd 0.47585 0.10355 0.94727 0.0
O143 O 0.46376 0.10563 0.85325 0.0
Cd144 Cd 0.48779 0.11328 0.94348 0.0
C145 C 0.5116 0.08455 0.86481 0.0
O146 O 0.48137 0.09087 0.03764 0.0
O147 O 0.51377 0.0966 0.00943 0.0
O148 O 0.46894 0.14598 0.97258 0.0
C149 C 0.50133 0.08886 0.04731 0.0
O150 O 0.49542 0.07645 0.88957 0.0
C151 C 0.48533 0.15816 0.96917 0.0
O152 O 0.51566 0.10431 0.87417 0.0
O153 O 0.50272 0.14947 0.95338 0.0
C154 C 0.37845 0.43816 0.43049 0.0
O155 O 0.39367 0.43849 0.46743 0.0
Cd156 Cd 0.39995 0.46873 0.53142 0.0
O157 O 0.36391 0.45248 0.43178 0.0
Cd158 Cd 0.35298 0.48376 0.49048 0.0
C159 C 0.39516 0.50879 0.42832 0.0
O160 O 0.36905 0.47791 0.58576 0.0
O161 O 0.36024 0.51063 0.56329 0.0
O162 O 0.31766 0.47072 0.51611 0.0
C163 C 0.36763 0.49761 0.60074 0.0
O164 O 0.40688 0.49794 0.46307 0.0
C165 C 0.30741 0.48457 0.48651 0.0
O166 O 0.37483 0.50633 0.42721 0.0
O167 O 0.31837 0.49789 0.45702 0.0
C168 C 0.02623 0.0822 0.06017 0.0
O169 O 0.02546 0.06676 0.02403 0.0
Cd170 Cd -0.00543 0.06055 0.96213 0.0
O171 O 0.01199 0.09681 0.05893 0.0
Cd172 Cd -0.01971 0.10741 0.00092 0.0
C173 C 0.95552 0.06544 0.06574 0.0
O174 O -0.01532 0.09119 0.90531 0.0
O175 O 0.95254 0.09991 0.93094 0.0
O176 O -0.00687 0.14264 0.97163 0.0
C177 C 0.96487 0.09276 0.89216 0.0
O178 O 0.96603 0.05353 0.03129 0.0
C179 C 0.97984 0.15331 0.00125 0.0
O180 O 0.95811 0.08589 0.066 0.0
O181 O 0.96693 0.14264 0.03261 0.0
C182 C 0.38511 0.0257 0.52623 0.0
O183 O 0.40049 0.02187 0.49222 0.0
Cd184 Cd 0.40421 -0.01077 0.4373 0.0
O185 O 0.36913 0.01284 0.5288 0.0
Cd186 Cd 0.35619 0.97915 0.48184 0.0
C187 C 0.39714 0.95336 0.54976 0.0
O188 O 0.37169 0.98174 0.38621 0.0
O189 O 0.36067 0.95014 0.41252 0.0
O190 O 0.32101 -0.00763 0.45438 0.0
C191 C 0.36869 0.96199 0.37354 0.0
O192 O 0.40945 0.96202 0.51261 0.0
C193 C 0.31067 0.9802 0.48842 0.0
O194 O 0.37711 0.95743 0.55002 0.0
O195 O 0.32153 0.9677 0.52082 0.0
C196 C 0.43608 0.39035 0.06536 0.0
O197 O 0.4371 0.40571 0.02914 0.0
Cd198 Cd 0.46782 0.41058 0.96725 0.0
O199 O 0.45002 0.37545 0.0649 0.0
Cd200 Cd 0.48126 0.36374 0.00902 0.0
C201 C 0.50721 0.40589 0.07161 0.0
O202 O 0.47559 0.37883 0.91186 0.0
O203 O 0.50751 0.36813 0.93496 0.0
O204 O 0.46527 0.32815 -0.00182 0.0
C205 C 0.49494 0.37581 0.89696 0.0
O206 O 0.49702 0.4179 0.0362 0.0
C207 C 0.48108 0.31808 0.01998 0.0
O208 O 0.50388 0.38557 0.07284 0.0
O209 O 0.4969 0.32936 0.03791 0.0
C210 C 0.07812 0.43714 0.55504 0.0
O211 O 0.06228 0.43744 0.52008 0.0
Cd212 Cd 0.05491 0.46822 0.45893 0.0
O213 O 0.09238 0.45189 0.55309 0.0
Cd214 Cd 0.10174 0.48415 0.49615 0.0
C215 C 0.06013 0.5077 0.56351 0.0
O216 O 0.08467 0.47913 0.40136 0.0
O217 O 0.09332 0.51174 0.42691 0.0
O218 O 0.13678 0.47234 0.46554 0.0
C219 C 0.08579 0.49909 0.38849 0.0
O220 O 0.04817 0.49679 0.52913 0.0
C221 C 0.14733 0.48574 0.49631 0.0
O222 O 0.08048 0.50569 0.56293 0.0
O223 O 0.13669 0.49836 0.52838 0.0
H224 H -0.00888 0.68036 0.08016 0.0
H225 H -0.0074 0.78571 0.88855 0.0
H226 H 0.96939 0.6783 0.90251 0.0
H227 H 0.9693 0.78749 0.06345 0.0
H228 H -0.00743 0.74602 0.89302 0.0
H229 H -0.00834 0.72001 0.07527 0.0
C230 C -0.01343 0.68827 0.04016 0.0
C231 C -0.01992 0.67616 -0.00824 0.0
C232 C -0.01251 0.75521 0.93026 0.0
C233 C -0.01884 0.7211 -0.01441 0.0
C234 C -0.01244 0.77773 0.92784 0.0
C235 C -0.01918 0.78977 0.97559 0.0
C236 C -0.01873 0.74482 0.98135 0.0
C237 C 0.97443 0.77873 0.02555 0.0
C238 C -0.01318 0.71078 0.03749 0.0
C239 C 0.97431 0.68712 0.9409 0.0
N240 N 0.97501 0.75684 0.02739 0.0
N241 N 0.97518 0.70902 0.93891 0.0
H242 H 0.67777 0.01801 0.43928 0.0
H243 H 0.78462 0.94994 0.48381 0.0
H244 H 0.67712 0.95044 0.48436 0.0
H245 H 0.78287 0.01916 0.50384 0.0
H246 H 0.74555 0.94948 0.47327 0.0
H247 H 0.71685 0.0184 0.4508 0.0
C248 C 0.68587 0.00323 0.4512 0.0
C249 C 0.67421 -0.01584 0.46091 0.0
C250 C 0.75372 0.96474 0.48027 0.0
C251 C 0.7188 -0.0155 0.47408 0.0
C252 C 0.776 0.96503 0.48622 0.0
C253 C 0.78697 -0.01537 0.49479 0.0
C254 C 0.74238 -0.01578 0.48195 0.0
C255 C 0.77501 0.0037 0.49758 0.0
C256 C 0.70812 0.0035 0.45813 0.0
C257 C 0.68549 0.9655 0.47659 0.0
N258 N 0.75334 0.00304 0.49071 0.0
N259 N 0.70718 0.96611 0.48248 0.0
H260 H 0.4643 0.78277 0.07877 0.0
H261 H 0.4666 0.67464 0.89835 0.0
H262 H 0.48742 0.78247 0.90362 0.0
H263 H 0.48804 0.67592 0.07631 0.0
H264 H 0.46578 0.71431 0.89871 0.0
H265 H 0.46447 0.74309 0.07816 0.0
C266 C 0.46928 0.77434 0.04019 0.0
C267 C 0.47596 0.78579 -0.00873 0.0
C268 C 0.47064 0.7058 0.93754 0.0
C269 C 0.47573 0.74081 -0.01005 0.0
C270 C 0.47105 0.68328 0.93745 0.0
C271 C 0.47751 0.67212 -0.01272 0.0
C272 C 0.47611 0.71706 -0.01171 0.0
C273 C 0.48314 0.684 0.03689 0.0
C274 C 0.46946 0.75181 0.03997 0.0
C275 C 0.48232 0.77417 0.94233 0.0
N276 N 0.48211 0.70588 0.03637 0.0
N277 N 0.48187 0.75225 0.94267 0.0
H278 H 0.67706 0.44552 0.52578 0.0
H279 H 0.78429 0.51553 0.49524 0.0
H280 H 0.67745 0.51471 0.50446 0.0
H281 H 0.782 0.44692 0.4632 0.0
H282 H 0.74551 0.51528 0.50864 0.0
H283 H 0.71609 0.44546 0.51419 0.0
C284 C 0.68537 0.4607 0.51919 0.0
C285 C 0.67401 0.48015 0.51601 0.0
C286 C 0.75347 0.50029 0.49844 0.0
C287 C 0.71851 0.48017 0.50262 0.0
C288 C 0.7756 0.50042 0.49079 0.0
C289 C 0.78636 0.48122 0.47794 0.0
C290 C 0.74201 0.48079 0.49395 0.0
C291 C 0.7743 0.4621 0.47275 0.0
C292 C 0.70759 0.46063 0.51219 0.0
C293 C 0.68556 0.49934 0.50706 0.0
N294 N 0.75275 0.46234 0.48111 0.0
N295 N 0.70717 0.49887 0.50076 0.0
H296 H -0.01143 0.28968 0.07076 0.0
H297 H -0.00922 0.17836 0.90963 0.0
H298 H 0.96739 0.28515 0.89296 0.0
H299 H 0.9671 0.18202 0.08393 0.0
H300 H -0.01075 0.21783 0.90312 0.0
H301 H -0.01234 0.25017 0.07738 0.0
C302 C -0.01621 0.28034 0.03311 0.0
C303 C 0.97806 0.29058 0.98119 0.0
C304 C -0.01564 0.20992 0.94265 0.0
C305 C 0.97738 0.24567 -0.0117 0.0
C306 C -0.01465 0.1875 0.94658 0.0
C307 C 0.97908 0.17702 -0.00254 0.0
C308 C 0.97765 0.22191 -0.00953 0.0
C309 C 0.97202 0.18955 0.04395 0.0
C310 C -0.01684 0.2579 0.03707 0.0
C311 C 0.97186 0.2778 0.93377 0.0
N312 N 0.97175 0.21144 0.03965 0.0
N313 N 0.97195 0.25592 0.93819 0.0
H314 H 0.28407 0.97006 0.57783 0.0
H315 H 0.17699 0.96821 0.39257 0.0
H316 H 0.28373 -0.01002 0.39913 0.0
H317 H 0.17737 -0.00767 0.56763 0.0
H318 H 0.21641 0.96793 0.395 0.0
H319 H 0.24461 0.97009 0.57604 0.0
C320 C 0.27567 0.97436 0.53829 0.0
C321 C 0.28705 0.98014 0.48864 0.0
C322 C 0.20777 0.97326 0.43276 0.0
C323 C 0.24234 0.9797 0.48601 0.0
C324 C 0.18539 0.97335 0.4315 0.0
C325 C 0.17403 0.98041 0.47987 0.0
C326 C 0.21873 0.97968 0.48327 0.0
C327 C 0.1856 -0.01306 0.5293 0.0
C328 C 0.25328 0.97444 0.53738 0.0
C329 C 0.27549 -0.01439 0.43844 0.0
N330 N 0.20737 -0.01377 0.52998 0.0
N331 N 0.25372 -0.01495 0.43818 0.0
H332 H 0.44956 0.18242 -0.01228 0.0
H333 H 0.5152 0.29189 0.04383 0.0
H334 H 0.51861 0.18676 0.98153 0.0
H335 H 0.44788 0.29013 -0.00143 0.0
H336 H 0.51609 0.25249 0.03732 0.0
H337 H 0.44814 0.2212 0.00721 0.0
C338 C 0.46442 0.19152 -0.00931 0.0
C339 C 0.48423 0.18141 0.98259 0.0
C340 C 0.50111 0.26075 0.02913 0.0
C341 C 0.48272 0.22566 0.00522 0.0
C342 C 0.50056 0.2832 0.03309 0.0
C343 C 0.48146 0.29428 0.02131 0.0
C344 C 0.48239 0.24931 0.01381 0.0
C345 C 0.46298 0.28223 0.00758 0.0
C346 C 0.46359 0.21363 0.00171 0.0
C347 C 0.50299 0.19395 -0.01296 0.0
N348 N 0.46391 0.26038 0.00408 0.0
N349 N 0.50178 0.21544 -0.00194 0.0
H350 H 0.28161 0.47301 0.5754 0.0
H351 H 0.17257 0.47621 0.4047 0.0
H352 H 0.27976 0.4982 0.4016 0.0
H353 H 0.17552 0.49729 0.58243 0.0
H354 H 0.21189 0.47722 0.40154 0.0
H355 H 0.24234 0.47471 0.57821 0.0
C356 C 0.2729 0.4788 0.53778 0.0
C357 C 0.28383 0.48545 0.48813 0.0
C358 C 0.20386 0.48169 0.44104 0.0
C359 C 0.23919 0.48708 0.49088 0.0
C360 C 0.18153 0.481 0.44304 0.0
C361 C 0.1709 0.48667 0.49395 0.0
C362 C 0.21557 0.48743 0.49081 0.0
C363 C 0.18318 0.49289 0.54235 0.0
C364 C 0.2506 0.47989 0.53961 0.0
C365 C 0.27187 0.49299 0.44069 0.0
N366 N 0.20496 0.49282 0.53989 0.0
N367 N 0.25008 0.49334 0.4429 0.0
H368 H 0.03621 0.59284 0.85097 0.0
H369 H 0.01727 0.51425 0.58075 0.0
H370 H 0.97397 0.56803 0.80009 0.0
H371 H 0.07983 0.53422 0.64329 0.0
H372 H 0.00082 0.53672 0.65446 0.0
H373 H 0.05197 0.57452 0.7686 0.0
C374 C 0.02581 0.58365 0.8222 0.0
C375 C 0.00375 0.58182 0.83268 0.0
C376 C 0.01814 0.53626 0.65189 0.0
C377 C 0.02177 0.56069 0.73824 0.0
C378 C 0.02758 0.52344 0.60974 0.0
C379 C 0.05002 0.52222 0.60598 0.0
C380 C 0.03119 0.548 0.69059 0.0
C381 C 0.06249 0.53456 0.6447 0.0
C382 C 0.03485 0.57315 0.77519 0.0
C383 C -0.00893 0.5698 0.79374 0.0
N384 N 0.0529 0.54686 0.68551 0.0
N385 N 0.00029 0.55957 0.74838 0.0
H386 H 0.94915 0.02226 0.08494 0.0
H387 H 0.8667 0.04127 0.34188 0.0
H388 H 0.92814 0.08509 0.14114 0.0
H389 H 0.89514 0.97946 0.30553 0.0
H390 H 0.88536 0.05663 0.25951 0.0
H391 H 0.92603 0.00561 0.15701 0.0
C392 C 0.93959 0.03258 0.11217 0.0
C393 C 0.94071 0.05516 0.10718 0.0
C394 C 0.88745 0.03968 0.26925 0.0
C395 C 0.91418 0.03611 0.18973 0.0
C396 C 0.87675 0.03086 0.31624 0.0
C397 C 0.87954 0.00908 0.33095 0.0
C398 C 0.90108 0.02666 0.23654 0.0
C399 C 0.89262 -0.00365 0.29585 0.0
C400 C 0.92641 0.02303 0.15336 0.0
C401 C 0.92791 0.06765 0.14362 0.0
N402 N 0.90305 0.00538 0.25043 0.0
N403 N 0.91523 0.05795 0.18345 0.0
H404 H 0.48363 0.89178 0.79254 0.0
H405 H 0.3761 0.92974 0.63212 0.0
H406 H 0.42017 0.87099 0.84143 0.0
H407 H 0.43955 0.94432 0.5694 0.0
H408 H 0.3921 0.90755 0.70808 0.0
H409 H 0.468 0.91041 0.70896 0.0
C410 C 0.46645 0.89097 0.78542 0.0
C411 C 0.45318 0.87992 0.82417 0.0
C412 C 0.40252 0.9155 0.67749 0.0
C413 C 0.43518 0.90129 0.72908 0.0
C414 C 0.39339 0.92822 0.63412 0.0
C415 C 0.40648 0.939 0.59439 0.0
C416 C 0.42494 0.91365 0.68149 0.0
C417 C 0.4288 0.93634 0.59909 0.0
C418 C 0.45753 0.90163 0.73777 0.0
C419 C 0.43101 0.8794 0.81286 0.0
N420 N 0.43732 0.92405 0.64205 0.0
N421 N 0.42272 0.89006 0.76662 0.0
H422 H 0.53574 0.38547 0.14323 0.0
H423 H 0.56726 0.49189 0.31983 0.0
H424 H 0.51344 0.44888 0.0952 0.0
H425 H 0.59503 0.42926 0.35073 0.0
H426 H 0.54911 0.47731 0.23354 0.0
H427 H 0.55908 0.40189 0.21626 0.0
C428 C 0.53582 0.40286 0.14784 0.0
C429 C 0.52247 0.41578 0.11334 0.0
C430 C 0.55937 0.46685 0.25893 0.0
C431 C 0.54913 0.43476 0.19725 0.0
C432 C 0.56976 0.47518 0.30805 0.0
C433 C 0.58246 0.4617 0.34282 0.0
C434 C 0.56169 0.44491 0.24485 0.0
C435 C 0.58518 0.44018 0.32557 0.0
C436 C 0.54921 0.41226 0.1895 0.0
C437 C 0.5234 0.43827 0.12099 0.0
N438 N 0.57473 0.43243 0.27819 0.0
N439 N 0.53636 0.44704 0.16253 0.0
H440 H 0.08379 0.92985 0.337 0.0
H441 H 0.97542 0.89502 0.17342 0.0
H442 H 0.02075 0.94797 0.39458 0.0
H443 H 0.03823 0.87262 0.12582 0.0
H444 H -0.00858 0.91293 0.25796 0.0
H445 H 0.06717 0.90729 0.26225 0.0
C446 C 0.06646 0.92901 0.33417 0.0
C447 C 0.05367 0.94096 0.37193 0.0
C448 C 0.00166 0.90395 0.22924 0.0
C449 C 0.0345 0.91521 0.2862 0.0
C450 C -0.00747 0.8937 0.18104 0.0
C451 C 0.00554 0.88247 0.14229 0.0
C452 C 0.02396 0.90301 0.23853 0.0
C453 C 0.02761 0.88124 0.15432 0.0
C454 C 0.05696 0.9161 0.29148 0.0
C455 C 0.03127 0.93913 0.36631 0.0
N456 N 0.03613 0.89153 0.2011 0.0
N457 N 0.02241 0.92663 0.32399 0.0
H458 H 0.50696 0.0417 0.83883 0.0
H459 H 0.59876 0.04347 0.60096 0.0
H460 H 0.54642 0.0974 0.80206 0.0
H461 H 0.56221 -0.0137 0.64264 0.0
H462 H 0.58124 0.06265 0.67907 0.0
H463 H 0.52816 0.02051 0.77137 0.0
C464 C 0.52014 0.04946 0.81673 0.0
C465 C 0.52485 0.0714 0.82582 0.0
C466 C 0.57713 0.04587 0.67158 0.0
C467 C 0.54917 0.04721 0.74855 0.0
C468 C 0.58715 0.03488 0.62695 0.0
C469 C 0.5818 0.01329 0.61502 0.0
C470 C 0.56149 0.03528 0.70444 0.0
C471 C 0.56677 0.00294 0.65036 0.0
C472 C 0.53226 0.03733 0.7783 0.0
C473 C 0.54216 0.08057 0.7962 0.0
N474 N 0.55696 0.01411 0.6932 0.0
N475 N 0.55361 0.06846 0.75868 0.0
H476 H 0.43815 0.51599 0.41358 0.0
H477 H 0.421 0.59169 0.13764 0.0
H478 H 0.37603 0.53504 0.34765 0.0
H479 H 0.48261 0.56658 0.19016 0.0
H480 H 0.40487 0.57478 0.22186 0.0
H481 H 0.45512 0.53806 0.33954 0.0
C482 C 0.42804 0.52493 0.38385 0.0
C483 C 0.40558 0.52349 0.38662 0.0
C484 C 0.42194 0.57306 0.21524 0.0
C485 C 0.425 0.5488 0.30161 0.0
C486 C 0.43119 0.58274 0.16716 0.0
C487 C 0.45317 0.58037 0.15658 0.0
C488 C 0.43473 0.56088 0.25313 0.0
C489 C 0.46558 0.56872 0.19654 0.0
C490 C 0.43778 0.53751 0.3415 0.0
C491 C 0.39338 0.53554 0.34699 0.0
N492 N 0.45616 0.55927 0.24291 0.0
N493 N 0.40326 0.54759 0.30596 0.0
H494 H 0.95002 0.44508 0.8861 0.0
H495 H 0.86832 0.42538 0.62255 0.0
H496 H 0.92891 0.38208 0.82811 0.0
H497 H 0.89542 0.48784 0.66416 0.0
H498 H 0.88715 0.41003 0.70536 0.0
H499 H 0.92717 0.46156 0.81229 0.0
C500 C 0.94051 0.43468 0.85807 0.0
C501 C 0.9415 0.41211 0.86316 0.0
C502 C 0.88892 0.42712 0.69669 0.0
C503 C 0.91527 0.43097 0.7786 0.0
C504 C 0.87813 0.43593 0.64942 0.0
C505 C 0.88046 0.45791 0.63612 0.0
C506 C 0.9022 0.44033 0.73109 0.0
C507 C 0.89324 0.4708 0.67276 0.0
C508 C 0.92748 0.44414 0.81589 0.0
C509 C 0.92877 0.39952 0.82564 0.0
N510 N 0.90378 0.46177 0.71845 0.0
N511 N 0.91624 0.40913 0.78488 0.0
H512 H 0.92174 0.37414 0.1137 0.0
H513 H 0.93957 0.44961 0.39055 0.0
H514 H -0.01614 0.39792 0.16914 0.0
H515 H 0.87726 0.43083 0.32367 0.0
H516 H 0.95632 0.42769 0.31621 0.0
H517 H 0.90563 0.39159 0.19684 0.0
C518 C 0.93204 0.38294 0.14362 0.0
C519 C 0.95418 0.38473 0.13421 0.0
C520 C 0.93899 0.42827 0.31798 0.0
C521 C 0.93574 0.40485 0.22959 0.0
C522 C 0.92937 0.44077 0.36049 0.0
C523 C 0.90692 0.4422 0.36318 0.0
C524 C 0.9261 0.41706 0.27781 0.0
C525 C 0.8946 0.43032 0.32312 0.0
C526 C 0.92279 0.39292 0.19109 0.0
C527 C 0.96672 0.3962 0.17464 0.0
N528 N 0.90436 0.41833 0.28194 0.0
N529 N 0.95729 0.40596 0.22045 0.0
H530 H 0.01587 0.94402 0.89836 0.0
H531 H 0.0915 0.92388 0.62693 0.0
H532 H 0.03238 0.88081 0.83446 0.0
H533 H 0.06839 -0.01323 0.67579 0.0
H534 H 0.07354 0.90831 0.71027 0.0
H535 H 0.03848 0.96024 0.8245 0.0
C536 C 0.02435 0.93352 0.86907 0.0
C537 C 0.02207 0.91098 0.87242 0.0
C538 C 0.07248 0.92553 0.70302 0.0
C539 C 0.048 0.92953 0.78766 0.0
C540 C 0.08277 0.93447 0.65546 0.0
C541 C 0.08129 0.95666 0.6441 0.0
C542 C 0.06059 0.93885 0.73964 0.0
C543 C 0.06987 0.96957 0.68279 0.0
C544 C 0.03724 0.94283 0.82683 0.0
C545 C 0.03353 0.89824 0.83334 0.0
N546 N 0.05983 0.96045 0.7287 0.0
N547 N 0.04592 0.90771 0.79246 0.0
H548 H 0.58628 0.02921 0.29587 0.0
H549 H 0.47925 0.0698 0.13614 0.0
H550 H 0.5226 0.01703 0.36048 0.0
H551 H 0.5433 0.08264 0.07552 0.0
H552 H 0.49462 0.05101 0.21994 0.0
H553 H 0.57063 0.04967 0.21607 0.0
C554 C 0.56901 0.03091 0.29348 0.0
C555 C 0.55575 0.02132 0.33494 0.0
C556 C 0.50528 0.058 0.18832 0.0
C557 C 0.53769 0.04468 0.24339 0.0
C558 C 0.49651 0.0687 0.14053 0.0
C559 C 0.51001 0.07775 0.0988 0.0
C560 C 0.52768 0.05634 0.19423 0.0
C561 C 0.53228 0.07588 0.10658 0.0
C562 C 0.56007 0.04259 0.24781 0.0
C563 C 0.53347 0.0241 0.32951 0.0
N564 N 0.54039 0.06537 0.15324 0.0
N565 N 0.52514 0.03546 0.28447 0.0
H566 H 0.38976 0.47511 0.68419 0.0
H567 H 0.42681 0.58237 0.85045 0.0
H568 H 0.36768 0.539 0.64054 0.0
H569 H 0.44451 0.51834 0.90614 0.0
H570 H 0.40379 0.56643 0.77578 0.0
H571 H 0.40851 0.4902 0.76874 0.0
C572 C 0.38868 0.49225 0.6927 0.0
C573 C 0.3773 0.50584 0.65504 0.0
C574 C 0.4126 0.55585 0.80455 0.0
C575 C 0.39878 0.52322 0.75119 0.0
C576 C 0.42579 0.56495 0.84718 0.0
C577 C 0.43773 0.55169 0.88444 0.0
C578 C 0.41142 0.5333 0.79876 0.0
C579 C 0.43566 0.52921 0.87828 0.0
C580 C 0.39941 0.50087 0.74088 0.0
C581 C 0.3764 0.52794 0.66815 0.0
N582 N 0.42288 0.52072 0.83597 0.0
N583 N 0.38713 0.53594 0.71484 0.0
H584 H 0.87697 0.03833 0.64195 0.0
H585 H -0.01408 0.07215 0.80435 0.0
H586 H 0.93985 0.02132 0.58071 0.0
H587 H 0.92316 0.09339 0.85603 0.0
H588 H 0.96965 0.05519 0.7187 0.0
H589 H 0.89383 0.06037 0.71747 0.0
C590 C 0.89431 0.03933 0.64408 0.0
C591 C 0.90699 0.0278 0.60515 0.0
C592 C 0.95948 0.06371 0.74859 0.0
C593 C 0.92642 0.05292 0.69178 0.0
C594 C 0.96876 0.07341 0.79742 0.0
C595 C 0.95585 0.08403 0.8376 0.0
C596 C 0.93713 0.0646 0.74013 0.0
C597 C 0.93372 0.08522 0.82643 0.0
C598 C 0.90394 0.05194 0.68724 0.0
C599 C 0.9294 0.02982 0.60992 0.0
N600 N 0.92505 0.07548 0.77902 0.0
N601 N 0.93839 0.04198 0.65272 0.0
H602 H 0.36814 0.91961 0.34074 0.0
H603 H 0.443 0.93959 0.06717 0.0
H604 H 0.38988 0.98258 0.28619 0.0
H605 H 0.42691 0.87633 0.1326 0.0
H606 H 0.42024 0.95565 0.14043 0.0
H607 H 0.38608 0.90363 0.25786 0.0
C608 C 0.37654 0.93011 0.31103 0.0
C609 C 0.37768 0.95245 0.32063 0.0
C610 C 0.4216 0.93825 0.13859 0.0
C611 C 0.3983 0.93425 0.22582 0.0
C612 C 0.43459 0.92904 0.0967 0.0
C613 C 0.43702 0.90655 0.09394 0.0
C614 C 0.41092 0.92491 0.17809 0.0
C615 C 0.42563 0.89374 0.13329 0.0
C616 C 0.38681 0.92096 0.26379 0.0
C617 C 0.3887 0.96527 0.28061 0.0
N618 N 0.41316 0.90311 0.17391 0.0
N619 N 0.3987 0.95596 0.23513 0.0
H620 H 0.53496 0.36951 0.85468 0.0
H621 H 0.51912 0.44961 0.58746 0.0
H622 H 0.4747 0.40005 0.81324 0.0
H623 H 0.58067 0.42685 0.64823 0.0
H624 H 0.50162 0.42727 0.66014 0.0
H625 H 0.55068 0.38588 0.76927 0.0
C626 C 0.52495 0.37953 0.82729 0.0
C627 C 0.50353 0.38364 0.84149 0.0
C628 C 0.51893 0.42705 0.65727 0.0
C629 C 0.52154 0.40256 0.74356 0.0
C630 C 0.52898 0.43978 0.6157 0.0
C631 C 0.55146 0.44029 0.61204 0.0
C632 C 0.53143 0.41467 0.69537 0.0
C633 C 0.56333 0.42712 0.64972 0.0
C634 C 0.53398 0.38891 0.77852 0.0
C635 C 0.4913 0.39656 0.80404 0.0
N636 N 0.55317 0.41495 0.68998 0.0
N637 N 0.50055 0.40574 0.75697 0.0
H638 H 0.06391 0.4773 0.30248 0.0
H639 H 0.02895 0.58593 0.14122 0.0
H640 H 0.0856 0.54096 0.35283 0.0
H641 H 0.01066 0.52226 0.08179 0.0
H642 H 0.0511 0.56948 0.21658 0.0
H643 H 0.04565 0.49314 0.21848 0.0
C644 C 0.06498 0.49456 0.2956 0.0
C645 C 0.07615 0.50785 0.3349 0.0
C646 C 0.04233 0.5591 0.18684 0.0
C647 C 0.05526 0.52607 0.23933 0.0
C648 C 0.02966 0.5685 0.14379 0.0
C649 C 0.01781 0.55549 0.10526 0.0
C650 C 0.0431 0.53651 0.19168 0.0
C651 C 0.01945 0.53296 0.11062 0.0
C652 C 0.05455 0.5036 0.24773 0.0
C653 C 0.07705 0.53011 0.32388 0.0
N654 N 0.03174 0.5242 0.15325 0.0
N655 N 0.06663 0.53852 0.27739 0.0
H656 H 0.85577 0.52415 0.31168 0.0
H657 H 0.93209 0.60617 0.14461 0.0
H658 H 0.9061 0.5618 0.39347 0.0
H659 H 0.8991 0.55243 0.06369 0.0
H660 H 0.91334 0.59843 0.23448 0.0
H661 H 0.86254 0.54297 0.22088 0.0
C662 C 0.8679 0.53673 0.31104 0.0
C663 C 0.88069 0.5411 0.36014 0.0
C664 C 0.90989 0.58864 0.19667 0.0
C665 C 0.88844 0.56266 0.25616 0.0
C666 C 0.92049 0.59309 0.14515 0.0
C667 C 0.91751 0.57963 0.09671 0.0
C668 C 0.89607 0.57074 0.19968 0.0
C669 C 0.90217 0.56301 0.10015 0.0
C670 C 0.87179 0.54739 0.25903 0.0
C671 C 0.89608 0.55767 0.35655 0.0
N672 N 0.89224 0.55884 0.15103 0.0
N673 N 0.89971 0.56766 0.30522 0.0
H674 H 0.85528 0.93919 0.64849 0.0
H675 H 0.9023 0.91462 0.91005 0.0
H676 H 0.91312 0.91122 0.58094 0.0
H677 H 0.93544 0.86374 0.82078 0.0
H678 H 0.88328 0.92329 0.82064 0.0
H679 H 0.86168 0.92048 0.73981 0.0
C680 C 0.86918 0.92888 0.65249 0.0
C681 C 0.88399 0.92723 0.60731 0.0
C682 C 0.89412 0.90972 0.82086 0.0
C683 C 0.89169 0.90623 0.71245 0.0
C684 C 0.90512 0.90485 0.87205 0.0
C685 C 0.92069 0.8886 0.87287 0.0
C686 C 0.89889 0.8984 0.76991 0.0
C687 C 0.92367 0.87649 0.8222 0.0
C688 C 0.87294 0.91839 0.70499 0.0
C689 C 0.90148 0.91332 0.61485 0.0
N690 N 0.91327 0.88199 0.77246 0.0
N691 N 0.90499 0.90358 0.66671 0.0
H692 H 0.55818 0.90786 0.05792 0.0
H693 H 0.55025 0.90383 0.39373 0.0
H694 H 0.522 0.85838 0.14568 0.0
H695 H 0.60233 0.93623 0.30728 0.0
H696 H 0.54244 0.88379 0.30488 0.0
H697 H 0.57751 0.91549 0.14813 0.0
C698 C 0.55462 0.89827 0.09581 0.0
C699 C 0.53818 0.88272 0.0944 0.0
C700 C 0.55589 0.89493 0.30572 0.0
C701 C 0.55993 0.89168 0.19816 0.0
C702 C 0.56036 0.90638 0.35653 0.0
C703 C 0.5767 0.92206 0.35773 0.0
C704 C 0.56757 0.89949 0.2555 0.0
C705 C 0.58939 0.92452 0.30825 0.0
C706 C 0.56568 0.90263 0.14737 0.0
C707 C 0.5344 0.87068 0.1448 0.0
N708 N 0.58424 0.91375 0.25878 0.0
N709 N 0.54482 0.87575 0.19494 0.0
H710 H 0.55445 0.56106 0.59265 0.0
H711 H 0.55718 0.54706 0.92871 0.0
H712 H 0.60121 0.52112 0.67952 0.0
H713 H 0.52655 0.60121 0.84529 0.0
H714 H 0.57667 0.53993 0.83971 0.0
H715 H 0.54698 0.57875 0.68464 0.0
C716 C 0.56346 0.5563 0.63081 0.0
C717 C 0.57822 0.53933 0.62846 0.0
C718 C 0.56603 0.55366 0.84125 0.0
C719 C 0.56946 0.55923 0.73417 0.0
C720 C 0.55489 0.55774 0.89215 0.0
C721 C 0.53989 0.57451 0.89424 0.0
C722 C 0.56184 0.56618 0.79181 0.0
C723 C 0.53775 0.58793 0.84557 0.0
C724 C 0.5592 0.56642 0.68339 0.0
C725 C 0.58954 0.53398 0.67929 0.0
N726 N 0.54822 0.58318 0.79597 0.0
N727 N 0.58459 0.54357 0.73027 0.0
H728 H 0.1036 0.43837 0.65219 0.0
H729 H 0.02608 0.35861 0.82266 0.0
H730 H 0.0518 0.40207 0.57273 0.0
H731 H 0.06047 0.4119 0.90151 0.0
H732 H 0.04479 0.36553 0.73228 0.0
H733 H 0.09701 0.41962 0.7432 0.0
C734 C 0.0912 0.42606 0.65332 0.0
C735 C 0.07792 0.42212 0.6049 0.0
C736 C 0.04855 0.3754 0.76976 0.0
C737 C 0.07037 0.40066 0.70914 0.0
C738 C 0.03796 0.37142 0.82157 0.0
C739 C 0.04135 0.38501 0.86956 0.0
C740 C 0.06278 0.39294 0.76601 0.0
C741 C 0.05707 0.40124 0.86541 0.0
C742 C 0.08741 0.41546 0.70547 0.0
C743 C 0.06221 0.40588 0.60912 0.0
N744 N 0.06699 0.40495 0.81425 0.0
N745 N 0.05867 0.39596 0.66059 0.0
H746 H 0.06096 0.05564 0.07499 0.0
H747 H 0.05185 0.06173 0.41122 0.0
H748 H 0.02522 0.1056 0.16056 0.0
H749 H 0.10302 0.02765 0.32712 0.0
H750 H 0.04468 0.08107 0.32114 0.0
H751 H 0.07959 0.04808 0.16613 0.0
C752 C 0.05736 0.06535 0.11258 0.0
C753 C 0.04122 0.08102 0.11026 0.0
C754 C 0.05778 0.0697 0.32272 0.0
C755 C 0.06218 0.07215 0.21508 0.0
C756 C 0.06189 0.05864 0.37423 0.0
C757 C 0.07781 0.04275 0.37655 0.0
C758 C 0.06941 0.06454 0.27289 0.0
C759 C 0.09042 0.03959 0.32727 0.0
C760 C 0.06801 0.06102 0.1647 0.0
C761 C 0.03737 0.0932 0.16035 0.0
N762 N 0.08564 0.05001 0.27714 0.0
N763 N 0.04741 0.08819 0.21098 0.0
H764 H 0.35891 0.03501 0.61769 0.0
H765 H 0.40528 0.0797 0.86377 0.0
H766 H 0.41697 0.05616 0.53437 0.0
H767 H 0.45071 0.10944 0.74869 0.0
H768 H 0.38506 0.0664 0.78024 0.0
H769 H 0.36751 0.0584 0.69949 0.0
C770 C 0.37335 0.04478 0.61626 0.0
C771 C 0.38752 0.04317 0.56963 0.0
C772 C 0.39906 0.07631 0.77279 0.0
C773 C 0.39795 0.06949 0.66436 0.0
C774 C 0.4107 0.08386 0.82083 0.0
C775 C 0.42988 0.09538 0.81318 0.0
C776 C 0.40671 0.08042 0.71672 0.0
C777 C 0.43618 0.10031 0.75665 0.0
C778 C 0.37844 0.05798 0.66356 0.0
C779 C 0.40578 0.0565 0.56981 0.0
N780 N 0.4248 0.09257 0.71075 0.0
N781 N 0.41059 0.06883 0.61675 0.0
H782 H 0.40245 0.41825 0.07959 0.0
H783 H 0.40463 0.40321 0.41526 0.0
H784 H 0.43503 0.36512 0.16237 0.0
H785 H 0.35624 0.44105 0.3281 0.0
H786 H 0.41313 0.3861 0.32319 0.0
H787 H 0.38249 0.42429 0.16846 0.0
C788 C 0.40512 0.40759 0.11601 0.0
C789 C 0.42072 0.3914 0.11375 0.0
C790 C 0.40033 0.3978 0.3244 0.0
C791 C 0.39818 0.39845 0.21595 0.0
C792 C 0.39545 0.40757 0.37705 0.0
C793 C 0.37996 0.42387 0.37932 0.0
C794 C 0.38994 0.4047 0.2735 0.0
C795 C 0.36847 0.42873 0.32841 0.0
C796 C 0.39369 0.41103 0.16679 0.0
C797 C 0.42335 0.37797 0.16224 0.0
N798 N 0.37403 0.41956 0.27737 0.0
N799 N 0.41254 0.38208 0.21169 0.0
loop_
_geom_bond_atom_site_label_1
_geom_bond_atom_site_label_2
_geom_bond_distance
_geom_bond_site_symmetry_2
_ccdc_geom_bond_type
C0 O1 1.306 . S
C0 O3 1.160 . S
O1 C0 1.306 . S
O1 Cd2 2.228 1_655 S
Cd2 O1 2.228 1_455 S
Cd2 O6 2.273 . S
Cd2 O10 2.277 . S
O3 C0 1.160 . S
O3 Cd4 2.203 1_655 S
Cd4 O3 2.203 1_455 S
Cd4 O6 2.411 . S
Cd4 O7 2.333 . S
Cd4 O8 2.352 1_455 S
Cd4 O12 2.277 . S
Cd4 O13 2.356 . S
C5 O10 1.209 . S
C5 O12 1.226 . S
O6 Cd2 2.273 . S
O6 Cd4 2.411 . S
O6 C9 1.320 . S
O7 Cd4 2.333 . S
O7 C9 1.214 . S
O8 Cd4 2.352 1_655 S
O8 C11 1.258 1_655 S
C9 O6 1.320 . S
C9 O7 1.214 . S
O10 Cd2 2.277 . S
O10 C5 1.209 . S
C11 O8 1.258 1_455 S
C11 O13 1.282 . S
O12 Cd4 2.277 . S
O12 C5 1.226 . S
O13 Cd4 2.356 . S
O13 C11 1.282 . S
C14 O15 1.306 . S
C14 O17 1.160 . S
O15 C14 1.306 . S
O15 Cd16 2.228 1_565 S
Cd16 O15 2.228 1_545 S
Cd16 O20 2.273 . S
Cd16 O24 2.277 . S
O17 C14 1.160 . S
O17 Cd18 2.203 1_565 S
Cd18 O17 2.203 1_545 S
Cd18 O20 2.411 . S
Cd18 O21 2.333 . S
Cd18 O22 2.352 1_545 S
Cd18 O26 2.277 . S
Cd18 O27 2.356 . S
C19 O24 1.209 . S
C19 O26 1.226 . S
O20 Cd16 2.273 . S
O20 Cd18 2.411 . S
O20 C23 1.320 . S
O21 Cd18 2.333 . S
O21 C23 1.214 . S
O22 Cd18 2.352 1_565 S
O22 C25 1.258 1_565 S
C23 O20 1.320 . S
C23 O21 1.214 . S
O24 Cd16 2.277 . S
O24 C19 1.209 . S
C25 O22 1.258 1_545 S
C25 O27 1.282 . S
O26 Cd18 2.277 . S
O26 C19 1.226 . S
O27 Cd18 2.356 . S
O27 C25 1.282 . S
C28 O29 1.306 . S
C28 O31 1.160 . S
O29 C28 1.306 . S
O29 Cd30 2.228 . S
Cd30 O29 2.228 . S
Cd30 O34 2.273 . S
Cd30 O38 2.277 . S
O31 C28 1.160 . S
O31 Cd32 2.203 . S
Cd32 O31 2.203 . S
Cd32 O34 2.411 . S
Cd32 O35 2.333 . S
Cd32 O36 2.352 . S
Cd32 O40 2.277 . S
Cd32 O41 2.356 . S
C33 O38 1.209 . S
C33 O40 1.226 . S
O34 Cd30 2.273 . S
O34 Cd32 2.411 . S
O34 C37 1.320 . S
O35 Cd32 2.333 . S
O35 C37 1.214 . S
O36 Cd32 2.352 . S
O36 C39 1.258 . S
C37 O34 1.320 . S
C37 O35 1.214 . S
O38 Cd30 2.277 . S
O38 C33 1.209 . S
C39 O36 1.258 . S
C39 O41 1.282 . S
O40 Cd32 2.277 . S
O40 C33 1.226 . S
O41 Cd32 2.356 . S
O41 C39 1.282 . S
C42 O43 1.306 . S
C42 O45 1.160 . S
O43 C42 1.306 . S
O43 Cd44 2.228 . S
Cd44 O43 2.228 . S
Cd44 O48 2.273 . S
Cd44 O52 2.277 . S
O45 C42 1.160 . S
O45 Cd46 2.203 . S
Cd46 O45 2.203 . S
Cd46 O48 2.411 . S
Cd46 O49 2.333 . S
Cd46 O50 2.352 . S
Cd46 O54 2.277 . S
Cd46 O55 2.356 . S
C47 O52 1.209 . S
C47 O54 1.226 . S
O48 Cd44 2.273 . S
O48 Cd46 2.411 . S
O48 C51 1.320 . S
O49 Cd46 2.333 . S
O49 C51 1.214 . S
O50 Cd46 2.352 . S
O50 C53 1.258 . S
C51 O48 1.320 . S
C51 O49 1.214 . S
O52 Cd44 2.277 . S
O52 C47 1.209 . S
C53 O50 1.258 . S
C53 O55 1.282 . S
O54 Cd46 2.277 . S
O54 C47 1.226 . S
O55 Cd46 2.356 . S
O55 C53 1.282 . S
C56 O57 1.306 . S
C56 O59 1.160 . S
O57 C56 1.306 . S
O57 Cd58 2.228 1_655 S
Cd58 O57 2.228 1_455 S
Cd58 O62 2.273 . S
Cd58 O66 2.277 . S
O59 C56 1.160 . S
O59 Cd60 2.203 1_655 S
Cd60 O59 2.203 1_455 S
Cd60 O62 2.411 . S
Cd60 O63 2.333 . S
Cd60 O64 2.352 1_455 S
Cd60 O68 2.277 . S
Cd60 O69 2.356 . S
C61 O66 1.209 . S
C61 O68 1.226 . S
O62 Cd58 2.273 . S
O62 Cd60 2.411 . S
O62 C65 1.320 . S
O63 Cd60 2.333 . S
O63 C65 1.214 . S
O64 Cd60 2.352 1_655 S
O64 C67 1.258 1_655 S
C65 O62 1.320 . S
C65 O63 1.214 . S
O66 Cd58 2.277 . S
O66 C61 1.209 . S
C67 O64 1.258 1_455 S
C67 O69 1.282 . S
O68 Cd60 2.277 . S
O68 C61 1.226 . S
O69 Cd60 2.356 . S
O69 C67 1.282 . S
C70 O71 1.306 . S
C70 O73 1.160 . S
O71 C70 1.306 . S
O71 Cd72 2.228 1_565 S
Cd72 O71 2.228 1_545 S
Cd72 O76 2.273 . S
Cd72 O80 2.277 . S
O73 C70 1.160 . S
O73 Cd74 2.203 1_565 S
Cd74 O73 2.203 1_545 S
Cd74 O76 2.411 . S
Cd74 O77 2.333 . S
Cd74 O78 2.352 1_545 S
Cd74 O82 2.277 . S
Cd74 O83 2.356 . S
C75 O80 1.209 . S
C75 O82 1.226 . S
O76 Cd72 2.273 . S
O76 Cd74 2.411 . S
O76 C79 1.320 . S
O77 Cd74 2.333 . S
O77 C79 1.214 . S
O78 Cd74 2.352 1_565 S
O78 C81 1.258 1_565 S
C79 O76 1.320 . S
C79 O77 1.214 . S
O80 Cd72 2.277 . S
O80 C75 1.209 . S
C81 O78 1.258 1_545 S
C81 O83 1.282 . S
O82 Cd74 2.277 . S
O82 C75 1.226 . S
O83 Cd74 2.356 . S
O83 C81 1.282 . S
C84 O85 1.306 . S
C84 O87 1.160 . S
O85 C84 1.306 . S
O85 Cd86 2.228 . S
Cd86 O85 2.228 . S
Cd86 O90 2.273 . S
Cd86 O94 2.277 . S
O87 C84 1.160 . S
O87 Cd88 2.203 . S
Cd88 O87 2.203 . S
Cd88 O90 2.411 . S
Cd88 O91 2.333 . S
Cd88 O92 2.352 . S
Cd88 O96 2.277 . S
Cd88 O97 2.356 . S
C89 O94 1.209 . S
C89 O96 1.226 . S
O90 Cd86 2.273 . S
O90 Cd88 2.411 . S
O90 C93 1.320 . S
O91 Cd88 2.333 . S
O91 C93 1.214 . S
O92 Cd88 2.352 . S
O92 C95 1.258 . S
C93 O90 1.320 . S
C93 O91 1.214 . S
O94 Cd86 2.277 . S
O94 C89 1.209 . S
C95 O92 1.258 . S
C95 O97 1.282 . S
O96 Cd88 2.277 . S
O96 C89 1.226 . S
O97 Cd88 2.356 . S
O97 C95 1.282 . S
C98 O99 1.306 . S
C98 O101 1.160 . S
O99 C98 1.306 . S
O99 Cd100 2.228 . S
Cd100 O99 2.228 . S
Cd100 O104 2.273 . S
Cd100 O108 2.277 . S
O101 C98 1.160 . S
O101 Cd102 2.203 . S
Cd102 O101 2.203 . S
Cd102 O104 2.411 . S
Cd102 O105 2.333 . S
Cd102 O106 2.352 . S
Cd102 O110 2.277 . S
Cd102 O111 2.356 . S
C103 O108 1.209 . S
C103 O110 1.226 . S
O104 Cd100 2.273 . S
O104 Cd102 2.411 . S
O104 C107 1.320 . S
O105 Cd102 2.333 . S
O105 C107 1.214 . S
O106 Cd102 2.352 . S
O106 C109 1.258 . S
C107 O104 1.320 . S
C107 O105 1.214 . S
O108 Cd100 2.277 . S
O108 C103 1.209 . S
C109 O106 1.258 . S
C109 O111 1.282 . S
O110 Cd102 2.277 . S
O110 C103 1.226 . S
O111 Cd102 2.356 . S
O111 C109 1.282 . S
C112 O113 1.306 . S
C112 O115 1.160 . S
O113 C112 1.306 . S
O113 Cd114 2.228 1_455 S
Cd114 O113 2.228 1_655 S
Cd114 O118 2.273 . S
Cd114 O122 2.277 . S
O115 C112 1.160 . S
O115 Cd116 2.203 1_455 S
Cd116 O115 2.203 1_655 S
Cd116 O118 2.411 . S
Cd116 O119 2.333 . S
Cd116 O120 2.352 1_655 S
Cd116 O124 2.277 . S
Cd116 O125 2.356 . S
C117 O122 1.209 . S
C117 O124 1.226 . S
O118 Cd114 2.273 . S
O118 Cd116 2.411 . S
O118 C121 1.320 . S
O119 Cd116 2.333 . S
O119 C121 1.214 . S
O120 Cd116 2.352 1_455 S
O120 C123 1.258 1_455 S
C121 O118 1.320 . S
C121 O119 1.214 . S
O122 Cd114 2.277 . S
O122 C117 1.209 . S
C123 O120 1.258 1_655 S
C123 O125 1.282 . S
O124 Cd116 2.277 . S
O124 C117 1.226 . S
O125 Cd116 2.356 . S
O125 C123 1.282 . S
C126 O127 1.306 . S
C126 O129 1.160 . S
O127 C126 1.306 . S
O127 Cd128 2.228 1_545 S
Cd128 O127 2.228 1_565 S
Cd128 O132 2.273 . S
Cd128 O136 2.277 . S
O129 C126 1.160 . S
O129 Cd130 2.203 1_545 S
Cd130 O129 2.203 1_565 S
Cd130 O132 2.411 . S
Cd130 O133 2.333 . S
Cd130 O134 2.352 1_565 S
Cd130 O138 2.277 . S
Cd130 O139 2.356 . S
C131 O136 1.209 . S
C131 O138 1.226 . S
O132 Cd128 2.273 . S
O132 Cd130 2.411 . S
O132 C135 1.320 . S
O133 Cd130 2.333 . S
O133 C135 1.214 . S
O134 Cd130 2.352 1_545 S
O134 C137 1.258 1_545 S
C135 O132 1.320 . S
C135 O133 1.214 . S
O136 Cd128 2.277 . S
O136 C131 1.209 . S
C137 O134 1.258 1_565 S
C137 O139 1.282 . S
O138 Cd130 2.277 . S
O138 C131 1.226 . S
O139 Cd130 2.356 . S
O139 C137 1.282 . S
C140 O141 1.306 . S
C140 O143 1.160 . S
O141 C140 1.306 . S
O141 Cd142 2.228 . S
Cd142 O141 2.228 . S
Cd142 O146 2.273 . S
Cd142 O150 2.277 . S
O143 C140 1.160 . S
O143 Cd144 2.203 . S
Cd144 O143 2.203 . S
Cd144 O146 2.411 . S
Cd144 O147 2.333 . S
Cd144 O148 2.352 . S
Cd144 O152 2.277 . S
Cd144 O153 2.356 . S
C145 O150 1.209 . S
C145 O152 1.226 . S
O146 Cd142 2.273 . S
O146 Cd144 2.411 . S
O146 C149 1.320 . S
O147 Cd144 2.333 . S
O147 C149 1.214 . S
O148 Cd144 2.352 . S
O148 C151 1.258 . S
C149 O146 1.320 . S
C149 O147 1.214 . S
O150 Cd142 2.277 . S
O150 C145 1.209 . S
C151 O148 1.258 . S
C151 O153 1.282 . S
O152 Cd144 2.277 . S
O152 C145 1.226 . S
O153 Cd144 2.356 . S
O153 C151 1.282 . S
C154 O155 1.306 . S
C154 O157 1.160 . S
O155 C154 1.306 . S
O155 Cd156 2.228 . S
Cd156 O155 2.228 . S
Cd156 O160 2.273 . S
Cd156 O164 2.277 . S
O157 C154 1.160 . S
O157 Cd158 2.203 . S
Cd158 O157 2.203 . S
Cd158 O160 2.411 . S
Cd158 O161 2.333 . S
Cd158 O162 2.352 . S
Cd158 O166 2.277 . S
Cd158 O167 2.356 . S
C159 O164 1.209 . S
C159 O166 1.226 . S
O160 Cd156 2.273 . S
O160 Cd158 2.411 . S
O160 C163 1.320 . S
O161 Cd158 2.333 . S
O161 C163 1.214 . S
O162 Cd158 2.352 . S
O162 C165 1.258 . S
C163 O160 1.320 . S
C163 O161 1.214 . S
O164 Cd156 2.277 . S
O164 C159 1.209 . S
C165 O162 1.258 . S
C165 O167 1.282 . S
O166 Cd158 2.277 . S
O166 C159 1.226 . S
O167 Cd158 2.356 . S
O167 C165 1.282 . S
C168 O169 1.306 . S
C168 O171 1.160 . S
O169 C168 1.306 . S
O169 Cd170 2.228 1_455 S
Cd170 O169 2.228 1_655 S
Cd170 O174 2.273 . S
Cd170 O178 2.277 . S
O171 C168 1.160 . S
O171 Cd172 2.203 1_455 S
Cd172 O171 2.203 1_655 S
Cd172 O174 2.411 . S
Cd172 O175 2.333 . S
Cd172 O176 2.352 1_655 S
Cd172 O180 2.277 . S
Cd172 O181 2.356 . S
C173 O178 1.209 . S
C173 O180 1.226 . S
O174 Cd170 2.273 . S
O174 Cd172 2.411 . S
O174 C177 1.320 . S
O175 Cd172 2.333 . S
O175 C177 1.214 . S
O176 Cd172 2.352 1_455 S
O176 C179 1.258 1_455 S
C177 O174 1.320 . S
C177 O175 1.214 . S
O178 Cd170 2.277 . S
O178 C173 1.209 . S
C179 O176 1.258 1_655 S
C179 O181 1.282 . S
O180 Cd172 2.277 . S
O180 C173 1.226 . S
O181 Cd172 2.356 . S
O181 C179 1.282 . S
C182 O183 1.306 . S
C182 O185 1.160 . S
O183 C182 1.306 . S
O183 Cd184 2.228 1_545 S
Cd184 O183 2.228 1_565 S
Cd184 O188 2.273 . S
Cd184 O192 2.277 . S
O185 C182 1.160 . S
O185 Cd186 2.203 1_545 S
Cd186 O185 2.203 1_565 S
Cd186 O188 2.411 . S
Cd186 O189 2.333 . S
Cd186 O190 2.352 1_565 S
Cd186 O194 2.277 . S
Cd186 O195 2.356 . S
C187 O192 1.209 . S
C187 O194 1.226 . S
O188 Cd184 2.273 . S
O188 Cd186 2.411 . S
O188 C191 1.320 . S
O189 Cd186 2.333 . S
O189 C191 1.214 . S
O190 Cd186 2.352 1_545 S
O190 C193 1.258 1_545 S
C191 O188 1.320 . S
C191 O189 1.214 . S
O192 Cd184 2.277 . S
O192 C187 1.209 . S
C193 O190 1.258 1_565 S
C193 O195 1.282 . S
O194 Cd186 2.277 . S
O194 C187 1.226 . S
O195 Cd186 2.356 . S
O195 C193 1.282 . S
C196 O197 1.306 . S
C196 O199 1.160 . S
O197 C196 1.306 . S
O197 Cd198 2.228 . S
Cd198 O197 2.228 . S
Cd198 O202 2.273 . S
Cd198 O206 2.277 . S
O199 C196 1.160 . S
O199 Cd200 2.203 . S
Cd200 O199 2.203 . S
Cd200 O202 2.411 . S
Cd200 O203 2.333 . S
Cd200 O204 2.352 . S
Cd200 O208 2.277 . S
Cd200 O209 2.356 . S
C201 O206 1.209 . S
C201 O208 1.226 . S
O202 Cd198 2.273 . S
O202 Cd200 2.411 . S
O202 C205 1.320 . S
O203 Cd200 2.333 . S
O203 C205 1.214 . S
O204 Cd200 2.352 . S
O204 C207 1.258 . S
C205 O202 1.320 . S
C205 O203 1.214 . S
O206 Cd198 2.277 . S
O206 C201 1.209 . S
C207 O204 1.258 . S
C207 O209 1.282 . S
O208 Cd200 2.277 . S
O208 C201 1.226 . S
O209 Cd200 2.356 . S
O209 C207 1.282 . S
C210 O211 1.306 . S
C210 O213 1.160 . S
O211 C210 1.306 . S
O211 Cd212 2.228 . S
Cd212 O211 2.228 . S
Cd212 O216 2.273 . S
Cd212 O220 2.277 . S
O213 C210 1.160 . S
O213 Cd214 2.203 . S
Cd214 O213 2.203 . S
Cd214 O216 2.411 . S
Cd214 O217 2.333 . S
Cd214 O218 2.352 . S
Cd214 O222 2.277 . S
Cd214 O223 2.356 . S
C215 O220 1.209 . S
C215 O222 1.226 . S
O216 Cd212 2.273 . S
O216 Cd214 2.411 . S
O216 C219 1.320 . S
O217 Cd214 2.333 . S
O217 C219 1.214 . S
O218 Cd214 2.352 . S
O218 C221 1.258 . S
C219 O216 1.320 . S
C219 O217 1.214 . S
O220 Cd212 2.277 . S
O220 C215 1.209 . S
C221 O218 1.258 . S
C221 O223 1.282 . S
O222 Cd214 2.277 . S
O222 C215 1.226 . S
O223 Cd214 2.356 . S
O223 C221 1.282 . S
H224 C230 0.930 . S
H225 C234 0.930 . S
H226 C239 0.929 1_556 S
H227 C237 0.929 1_554 S
H228 C232 0.929 . S
H229 C238 0.929 . S
C230 H224 0.930 . S
C230 C231 1.367 . S
C230 C238 1.378 . S
C231 C230 1.367 . S
C231 C239 1.433 1_455 S
C232 H228 0.929 . S
C232 C234 1.378 . S
C232 C236 1.350 1_655 S
C233 C236 1.463 1_554 S
C233 C238 1.350 . S
C233 N241 1.427 1_454 S
C234 H225 0.930 . S
C234 C232 1.378 . S
C234 C235 1.367 1_655 S
C235 C234 1.367 1_455 S
C235 C237 1.433 . S
C236 C232 1.350 1_455 S
C236 C233 1.463 1_556 S
C236 N240 1.427 1_556 S
C237 H227 0.929 1_556 S
C237 C235 1.433 . S
C237 N240 1.384 1_556 S
C238 H229 0.929 . S
C238 C230 1.378 . S
C238 C233 1.350 . S
C239 H226 0.929 1_554 S
C239 C231 1.433 1_655 S
C239 N241 1.384 1_554 S
N240 C236 1.427 1_554 S
N240 C237 1.384 1_554 S
N241 C233 1.427 1_656 S
N241 C239 1.384 1_556 S
H242 C248 0.930 . S
H243 C252 0.930 . S
H244 C257 0.929 . S
H245 C255 0.929 . S
H246 C250 0.929 . S
H247 C256 0.929 . S
C248 H242 0.930 . S
C248 C249 1.367 . S
C248 C256 1.378 . S
C249 C248 1.367 . S
C249 C257 1.433 1_545 S
C250 H246 0.929 . S
C250 C252 1.378 . S
C250 C254 1.350 1_565 S
C251 C254 1.463 . S
C251 C256 1.350 . S
C251 N259 1.427 1_545 S
C252 H243 0.930 . S
C252 C250 1.378 . S
C252 C253 1.367 1_565 S
C253 C252 1.367 1_545 S
C253 C255 1.433 . S
C254 C250 1.350 1_545 S
C254 C251 1.463 . S
C254 N258 1.427 . S
C255 H245 0.929 . S
C255 C253 1.433 . S
C255 N258 1.384 . S
C256 H247 0.929 . S
C256 C248 1.378 . S
C256 C251 1.350 . S
C257 H244 0.929 . S
C257 C249 1.433 1_565 S
C257 N259 1.384 . S
N258 C254 1.427 . S
N258 C255 1.384 . S
N259 C251 1.427 1_565 S
N259 C257 1.384 . S
H260 C266 0.930 . S
H261 C270 0.930 . S
H262 C275 0.929 1_556 S
H263 C273 0.929 1_554 S
H264 C268 0.929 . S
H265 C274 0.929 . S
C266 H260 0.930 . S
C266 C267 1.367 . S
C266 C274 1.378 . S
C267 C266 1.367 . S
C267 C275 1.433 . S
C268 H264 0.929 . S
C268 C270 1.378 . S
C268 C272 1.350 . S
C269 C272 1.463 1_554 S
C269 C274 1.350 . S
C269 N277 1.427 1_554 S
C270 H261 0.930 . S
C270 C268 1.378 . S
C270 C271 1.367 . S
C271 C270 1.367 . S
C271 C273 1.433 . S
C272 C268 1.350 . S
C272 C269 1.463 1_556 S
C272 N276 1.427 1_556 S
C273 H263 0.929 1_556 S
C273 C271 1.433 . S
C273 N276 1.384 1_556 S
C274 H265 0.929 . S
C274 C266 1.378 . S
C274 C269 1.350 . S
C275 H262 0.929 1_554 S
C275 C267 1.433 . S
C275 N277 1.384 1_554 S
N276 C272 1.427 1_554 S
N276 C273 1.384 1_554 S
N277 C269 1.427 1_556 S
N277 C275 1.384 1_556 S
H278 C284 0.930 . S
H279 C288 0.930 . S
H280 C293 0.929 . S
H281 C291 0.929 . S
H282 C286 0.929 . S
H283 C292 0.929 . S
C284 H278 0.930 . S
C284 C285 1.367 . S
C284 C292 1.378 . S
C285 C284 1.367 . S
C285 C293 1.433 . S
C286 H282 0.929 . S
C286 C288 1.378 . S
C286 C290 1.350 . S
C287 C290 1.463 . S
C287 C292 1.350 . S
C287 N295 1.427 . S
C288 H279 0.930 . S
C288 C286 1.378 . S
C288 C289 1.367 . S
C289 C288 1.367 . S
C289 C291 1.433 . S
C290 C286 1.350 . S
C290 C287 1.463 . S
C290 N294 1.427 . S
C291 H281 0.929 . S
C291 C289 1.433 . S
C291 N294 1.384 . S
C292 H283 0.929 . S
C292 C284 1.378 . S
C292 C287 1.350 . S
C293 H280 0.929 . S
C293 C285 1.433 . S
C293 N295 1.384 . S
N294 C290 1.427 . S
N294 C291 1.384 . S
N295 C287 1.427 . S
N295 C293 1.384 . S
H296 C302 0.930 1_554 S
H297 C306 0.930 1_556 S
H298 C311 0.929 . S
H299 C309 0.929 . S
H300 C304 0.929 . S
H301 C310 0.929 . S
C302 H296 0.930 1_556 S
C302 C303 1.367 . S
C302 C310 1.378 1_556 S
C303 C302 1.367 . S
C303 C311 1.433 1_655 S
C304 H300 0.929 . S
C304 C306 1.378 1_556 S
C304 C308 1.350 1_456 S
C305 C308 1.463 1_556 S
C305 C310 1.350 1_556 S
C305 N313 1.427 1_655 S
C306 H297 0.930 1_554 S
C306 C304 1.378 1_554 S
C306 C307 1.367 1_455 S
C307 C306 1.367 1_655 S
C307 C309 1.433 . S
C308 C304 1.350 1_654 S
C308 C305 1.463 1_554 S
C308 N312 1.427 . S
C309 H299 0.929 . S
C309 C307 1.433 . S
C309 N312 1.384 . S
C310 H301 0.929 . S
C310 C302 1.378 1_554 S
C310 C305 1.350 1_554 S
C311 H298 0.929 . S
C311 C303 1.433 1_455 S
C311 N313 1.384 . S
N312 C308 1.427 . S
N312 C309 1.384 . S
N313 C305 1.427 1_455 S
N313 C311 1.384 . S
H314 C320 0.930 . S
H315 C324 0.931 . S
H316 C329 0.930 . S
H317 C327 0.929 . S
H318 C322 0.929 . S
H319 C328 0.929 . S
C320 H314 0.930 . S
C320 C321 1.367 . S
C320 C328 1.378 . S
C321 C320 1.367 . S
C321 C329 1.433 1_565 S
C322 H318 0.929 . S
C322 C324 1.378 . S
C322 C326 1.350 1_545 S
C323 C326 1.463 . S
C323 C328 1.350 . S
C323 N331 1.427 1_565 S
C324 H315 0.931 . S
C324 C322 1.378 . S
C324 C325 1.367 1_545 S
C325 C324 1.367 1_565 S
C325 C327 1.433 . S
C326 C322 1.350 1_565 S
C326 C323 1.463 . S
C326 N330 1.427 . S
C327 H317 0.929 . S
C327 C325 1.433 . S
C327 N330 1.384 . S
C328 H319 0.929 . S
C328 C320 1.378 . S
C328 C323 1.350 . S
C329 H316 0.930 . S
C329 C321 1.433 1_545 S
C329 N331 1.384 . S
N330 C326 1.427 . S
N330 C327 1.384 . S
N331 C323 1.427 1_545 S
N331 C329 1.384 . S
H332 C338 0.930 . S
H333 C342 0.930 . S
H334 C347 0.929 . S
H335 C345 0.929 . S
H336 C340 0.929 . S
H337 C346 0.929 . S
C338 H332 0.930 . S
C338 C339 1.367 . S
C338 C346 1.378 . S
C339 C338 1.367 . S
C339 C347 1.433 . S
C340 H336 0.929 . S
C340 C342 1.378 . S
C340 C344 1.350 . S
C341 C344 1.463 1_556 S
C341 C346 1.350 . S
C341 N349 1.427 1_556 S
C342 H333 0.930 . S
C342 C340 1.378 . S
C342 C343 1.367 . S
C343 C342 1.367 . S
C343 C345 1.433 . S
C344 C340 1.350 . S
C344 C341 1.463 1_554 S
C344 N348 1.427 1_554 S
C345 H335 0.929 . S
C345 C343 1.433 . S
C345 N348 1.384 1_554 S
C346 H337 0.929 . S
C346 C338 1.378 . S
C346 C341 1.350 . S
C347 H334 0.929 . S
C347 C339 1.433 . S
C347 N349 1.384 1_556 S
N348 C344 1.427 1_556 S
N348 C345 1.384 1_556 S
N349 C341 1.427 1_554 S
N349 C347 1.384 1_554 S
H350 C356 0.930 . S
H351 C360 0.930 . S
H352 C365 0.929 . S
H353 C363 0.929 . S
H354 C358 0.929 . S
H355 C364 0.929 . S
C356 H350 0.930 . S
C356 C357 1.367 . S
C356 C364 1.378 . S
C357 C356 1.367 . S
C357 C365 1.433 . S
C358 H354 0.929 . S
C358 C360 1.378 . S
C358 C362 1.350 . S
C359 C362 1.463 . S
C359 C364 1.350 . S
C359 N367 1.427 . S
C360 H351 0.930 . S
C360 C358 1.378 . S
C360 C361 1.367 . S
C361 C360 1.367 . S
C361 C363 1.433 . S
C362 C358 1.350 . S
C362 C359 1.463 . S
C362 N366 1.427 . S
C363 H353 0.929 . S
C363 C361 1.433 . S
C363 N366 1.384 . S
C364 H355 0.929 . S
C364 C356 1.378 . S
C364 C359 1.350 . S
C365 H352 0.929 . S
C365 C357 1.433 . S
C365 N367 1.384 . S
N366 C362 1.427 . S
N366 C363 1.384 . S
N367 C359 1.427 . S
N367 C365 1.384 . S
H368 C374 0.930 . S
H369 C378 0.930 . S
H370 C383 0.929 . S
H371 C381 0.929 . S
H372 C376 0.929 . S
H373 C382 0.929 . S
C374 H368 0.930 . S
C374 C375 1.367 . S
C374 C382 1.378 . S
C375 C374 1.367 . S
C375 C383 1.433 . S
C376 H372 0.929 . S
C376 C378 1.378 . S
C376 C380 1.350 . S
C377 C380 1.463 . S
C377 C382 1.350 . S
C377 N385 1.427 . S
C378 H369 0.930 . S
C378 C376 1.378 . S
C378 C379 1.367 . S
C379 C378 1.367 . S
C379 C381 1.433 . S
C380 C376 1.350 . S
C380 C377 1.463 . S
C380 N384 1.427 . S
C381 H371 0.929 . S
C381 C379 1.433 . S
C381 N384 1.384 . S
C382 H373 0.929 . S
C382 C374 1.378 . S
C382 C377 1.350 . S
C383 H370 0.929 . S
C383 C375 1.433 . S
C383 N385 1.384 . S
N384 C380 1.427 . S
N384 C381 1.384 . S
N385 C377 1.427 . S
N385 C383 1.384 . S
H386 C392 0.930 . S
H387 C396 0.930 . S
H388 C401 0.929 . S
H389 C399 0.929 . S
H390 C394 0.929 . S
H391 C400 0.929 . S
C392 H386 0.930 . S
C392 C393 1.367 . S
C392 C400 1.378 . S
C393 C392 1.367 . S
C393 C401 1.433 . S
C394 H390 0.929 . S
C394 C396 1.378 . S
C394 C398 1.350 . S
C395 C398 1.463 . S
C395 C400 1.350 . S
C395 N403 1.427 . S
C396 H387 0.930 . S
C396 C394 1.378 . S
C396 C397 1.367 . S
C397 C396 1.367 . S
C397 C399 1.433 . S
C398 C394 1.350 . S
C398 C395 1.463 . S
C398 N402 1.427 . S
C399 H389 0.929 . S
C399 C397 1.433 . S
C399 N402 1.384 . S
C400 H391 0.929 . S
C400 C392 1.378 . S
C400 C395 1.350 . S
C401 H388 0.929 . S
C401 C393 1.433 . S
C401 N403 1.384 . S
N402 C398 1.427 . S
N402 C399 1.384 . S
N403 C395 1.427 . S
N403 C401 1.384 . S
H404 C410 0.930 . S
H405 C414 0.930 . S
H406 C419 0.929 . S
H407 C417 0.929 . S
H408 C412 0.929 . S
H409 C418 0.929 . S
C410 H404 0.930 . S
C410 C411 1.367 . S
C410 C418 1.378 . S
C411 C410 1.367 . S
C411 C419 1.433 . S
C412 H408 0.929 . S
C412 C414 1.378 . S
C412 C416 1.350 . S
C413 C416 1.463 . S
C413 C418 1.350 . S
C413 N421 1.427 . S
C414 H405 0.930 . S
C414 C412 1.378 . S
C414 C415 1.367 . S
C415 C414 1.367 . S
C415 C417 1.433 . S
C416 C412 1.350 . S
C416 C413 1.463 . S
C416 N420 1.427 . S
C417 H407 0.929 . S
C417 C415 1.433 . S
C417 N420 1.384 . S
C418 H409 0.929 . S
C418 C410 1.378 . S
C418 C413 1.350 . S
C419 H406 0.929 . S
C419 C411 1.433 . S
C419 N421 1.384 . S
N420 C416 1.427 . S
N420 C417 1.384 . S
N421 C413 1.427 . S
N421 C419 1.384 . S
H422 C428 0.930 . S
H423 C432 0.930 . S
H424 C437 0.929 . S
H425 C435 0.929 . S
H426 C430 0.929 . S
H427 C436 0.929 . S
C428 H422 0.930 . S
C428 C429 1.367 . S
C428 C436 1.378 . S
C429 C428 1.367 . S
C429 C437 1.433 . S
C430 H426 0.929 . S
C430 C432 1.378 . S
C430 C434 1.350 . S
C431 C434 1.463 . S
C431 C436 1.350 . S
C431 N439 1.427 . S
C432 H423 0.930 . S
C432 C430 1.378 . S
C432 C433 1.367 . S
C433 C432 1.367 . S
C433 C435 1.433 . S
C434 C430 1.350 . S
C434 C431 1.463 . S
C434 N438 1.427 . S
C435 H425 0.929 . S
C435 C433 1.433 . S
C435 N438 1.384 . S
C436 H427 0.929 . S
C436 C428 1.378 . S
C436 C431 1.350 . S
C437 H424 0.929 . S
C437 C429 1.433 . S
C437 N439 1.384 . S
N438 C434 1.427 . S
N438 C435 1.384 . S
N439 C431 1.427 . S
N439 C437 1.384 . S
H440 C446 0.930 . S
H441 C450 0.930 . S
H442 C455 0.929 . S
H443 C453 0.929 1_556 S
H444 C448 0.929 . S
H445 C454 0.929 . S
C446 H440 0.930 . S
C446 C447 1.367 . S
C446 C454 1.378 . S
C447 C446 1.367 . S
C447 C455 1.433 . S
C448 H444 0.929 . S
C448 C450 1.378 . S
C448 C452 1.350 . S
C449 C452 1.463 . S
C449 C454 1.350 . S
C449 N457 1.427 . S
C450 H441 0.930 . S
C450 C448 1.378 . S
C450 C451 1.367 . S
C451 C450 1.367 . S
C451 C453 1.433 . S
C452 C448 1.350 . S
C452 C449 1.463 . S
C452 N456 1.427 . S
C453 H443 0.929 1_554 S
C453 C451 1.433 . S
C453 N456 1.384 . S
C454 H445 0.929 . S
C454 C446 1.378 . S
C454 C449 1.350 . S
C455 H442 0.929 . S
C455 C447 1.433 . S
C455 N457 1.384 . S
N456 C452 1.427 . S
N456 C453 1.384 . S
N457 C449 1.427 . S
N457 C455 1.384 . S
H458 C464 0.930 . S
H459 C468 0.930 . S
H460 C473 0.929 . S
H461 C471 0.929 . S
H462 C466 0.929 . S
H463 C472 0.929 . S
C464 H458 0.930 . S
C464 C465 1.367 . S
C464 C472 1.378 . S
C465 C464 1.367 . S
C465 C473 1.433 . S
C466 H462 0.929 . S
C466 C468 1.378 . S
C466 C470 1.350 . S
C467 C470 1.463 . S
C467 C472 1.350 . S
C467 N475 1.427 . S
C468 H459 0.930 . S
C468 C466 1.378 . S
C468 C469 1.367 . S
C469 C468 1.367 . S
C469 C471 1.433 . S
C470 C466 1.350 . S
C470 C467 1.463 . S
C470 N474 1.427 . S
C471 H461 0.929 . S
C471 C469 1.433 . S
C471 N474 1.384 . S
C472 H463 0.929 . S
C472 C464 1.378 . S
C472 C467 1.350 . S
C473 H460 0.929 . S
C473 C465 1.433 . S
C473 N475 1.384 . S
N474 C470 1.427 . S
N474 C471 1.384 . S
N475 C467 1.427 . S
N475 C473 1.384 . S
H476 C482 0.930 . S
H477 C486 0.930 1_556 S
H478 C491 0.929 . S
H479 C489 0.929 . S
H480 C484 0.929 . S
H481 C490 0.929 . S
C482 H476 0.930 . S
C482 C483 1.367 . S
C482 C490 1.378 . S
C483 C482 1.367 . S
C483 C491 1.433 . S
C484 H480 0.929 . S
C484 C486 1.378 . S
C484 C488 1.350 . S
C485 C488 1.463 . S
C485 C490 1.350 . S
C485 N493 1.427 . S
C486 H477 0.930 1_554 S
C486 C484 1.378 . S
C486 C487 1.367 . S
C487 C486 1.367 . S
C487 C489 1.433 . S
C488 C484 1.350 . S
C488 C485 1.463 . S
C488 N492 1.427 . S
C489 H479 0.929 . S
C489 C487 1.433 . S
C489 N492 1.384 . S
C490 H481 0.929 . S
C490 C482 1.378 . S
C490 C485 1.350 . S
C491 H478 0.929 . S
C491 C483 1.433 . S
C491 N493 1.384 . S
N492 C488 1.427 . S
N492 C489 1.384 . S
N493 C485 1.427 . S
N493 C491 1.384 . S
H494 C500 0.930 . S
H495 C504 0.930 . S
H496 C509 0.929 . S
H497 C507 0.929 . S
H498 C502 0.929 . S
H499 C508 0.929 . S
C500 H494 0.930 . S
C500 C501 1.367 . S
C500 C508 1.378 . S
C501 C500 1.367 . S
C501 C509 1.433 . S
C502 H498 0.929 . S
C502 C504 1.378 . S
C502 C506 1.350 . S
C503 C506 1.463 . S
C503 C508 1.350 . S
C503 N511 1.427 . S
C504 H495 0.930 . S
C504 C502 1.378 . S
C504 C505 1.367 . S
C505 C504 1.367 . S
C505 C507 1.433 . S
C506 C502 1.350 . S
C506 C503 1.463 . S
C506 N510 1.427 . S
C507 H497 0.929 . S
C507 C505 1.433 . S
C507 N510 1.384 . S
C508 H499 0.929 . S
C508 C500 1.378 . S
C508 C503 1.350 . S
C509 H496 0.929 . S
C509 C501 1.433 . S
C509 N511 1.384 . S
N510 C506 1.427 . S
N510 C507 1.384 . S
N511 C503 1.427 . S
N511 C509 1.384 . S
H512 C518 0.930 . S
H513 C522 0.930 . S
H514 C527 0.929 . S
H515 C525 0.929 . S
H516 C520 0.929 . S
H517 C526 0.929 . S
C518 H512 0.930 . S
C518 C519 1.367 . S
C518 C526 1.378 . S
C519 C518 1.367 . S
C519 C527 1.433 . S
C520 H516 0.929 . S
C520 C522 1.378 . S
C520 C524 1.350 . S
C521 C524 1.463 . S
C521 C526 1.350 . S
C521 N529 1.427 . S
C522 H513 0.930 . S
C522 C520 1.378 . S
C522 C523 1.367 . S
C523 C522 1.367 . S
C523 C525 1.433 . S
C524 C520 1.350 . S
C524 C521 1.463 . S
C524 N528 1.427 . S
C525 H515 0.929 . S
C525 C523 1.433 . S
C525 N528 1.384 . S
C526 H517 0.929 . S
C526 C518 1.378 . S
C526 C521 1.350 . S
C527 H514 0.929 . S
C527 C519 1.433 . S
C527 N529 1.384 . S
N528 C524 1.427 . S
N528 C525 1.384 . S
N529 C521 1.427 . S
N529 C527 1.384 . S
H530 C536 0.930 . S
H531 C540 0.930 . S
H532 C545 0.929 . S
H533 C543 0.929 . S
H534 C538 0.929 . S
H535 C544 0.929 . S
C536 H530 0.930 . S
C536 C537 1.367 . S
C536 C544 1.378 . S
C537 C536 1.367 . S
C537 C545 1.433 . S
C538 H534 0.929 . S
C538 C540 1.378 . S
C538 C542 1.350 . S
C539 C542 1.463 . S
C539 C544 1.350 . S
C539 N547 1.427 . S
C540 H531 0.930 . S
C540 C538 1.378 . S
C540 C541 1.367 . S
C541 C540 1.367 . S
C541 C543 1.433 . S
C542 C538 1.350 . S
C542 C539 1.463 . S
C542 N546 1.427 . S
C543 H533 0.929 . S
C543 C541 1.433 . S
C543 N546 1.384 . S
C544 H535 0.929 . S
C544 C536 1.378 . S
C544 C539 1.350 . S
C545 H532 0.929 . S
C545 C537 1.433 . S
C545 N547 1.384 . S
N546 C542 1.427 . S
N546 C543 1.384 . S
N547 C539 1.427 . S
N547 C545 1.384 . S
H548 C554 0.930 . S
H549 C558 0.930 . S
H550 C563 0.929 . S
H551 C561 0.929 1_556 S
H552 C556 0.929 . S
H553 C562 0.929 . S
C554 H548 0.930 . S
C554 C555 1.367 . S
C554 C562 1.378 . S
C555 C554 1.367 . S
C555 C563 1.433 . S
C556 H552 0.929 . S
C556 C558 1.378 . S
C556 C560 1.350 . S
C557 C560 1.463 . S
C557 C562 1.350 . S
C557 N565 1.427 . S
C558 H549 0.930 . S
C558 C556 1.378 . S
C558 C559 1.367 . S
C559 C558 1.367 . S
C559 C561 1.433 . S
C560 C556 1.350 . S
C560 C557 1.463 . S
C560 N564 1.427 . S
C561 H551 0.929 1_554 S
C561 C559 1.433 . S
C561 N564 1.384 . S
C562 H553 0.929 . S
C562 C554 1.378 . S
C562 C557 1.350 . S
C563 H550 0.929 . S
C563 C555 1.433 . S
C563 N565 1.384 . S
N564 C560 1.427 . S
N564 C561 1.384 . S
N565 C557 1.427 . S
N565 C563 1.384 . S
H566 C572 0.930 . S
H567 C576 0.930 . S
H568 C581 0.929 . S
H569 C579 0.929 . S
H570 C574 0.929 . S
H571 C580 0.929 . S
C572 H566 0.930 . S
C572 C573 1.367 . S
C572 C580 1.378 . S
C573 C572 1.367 . S
C573 C581 1.433 . S
C574 H570 0.929 . S
C574 C576 1.378 . S
C574 C578 1.350 . S
C575 C578 1.463 . S
C575 C580 1.350 . S
C575 N583 1.427 . S
C576 H567 0.930 . S
C576 C574 1.378 . S
C576 C577 1.367 . S
C577 C576 1.367 . S
C577 C579 1.433 . S
C578 C574 1.350 . S
C578 C575 1.463 . S
C578 N582 1.427 . S
C579 H569 0.929 . S
C579 C577 1.433 . S
C579 N582 1.384 . S
C580 H571 0.929 . S
C580 C572 1.378 . S
C580 C575 1.350 . S
C581 H568 0.929 . S
C581 C573 1.433 . S
C581 N583 1.384 . S
N582 C578 1.427 . S
N582 C579 1.384 . S
N583 C575 1.427 . S
N583 C581 1.384 . S
H584 C590 0.930 . S
H585 C594 0.930 1_554 S
H586 C599 0.929 . S
H587 C597 0.929 . S
H588 C592 0.929 . S
H589 C598 0.929 . S
C590 H584 0.930 . S
C590 C591 1.367 . S
C590 C598 1.378 . S
C591 C590 1.367 . S
C591 C599 1.433 . S
C592 H588 0.929 . S
C592 C594 1.378 . S
C592 C596 1.350 . S
C593 C596 1.463 . S
C593 C598 1.350 . S
C593 N601 1.427 . S
C594 H585 0.930 1_556 S
C594 C592 1.378 . S
C594 C595 1.367 . S
C595 C594 1.367 . S
C595 C597 1.433 . S
C596 C592 1.350 . S
C596 C593 1.463 . S
C596 N600 1.427 . S
C597 H587 0.929 . S
C597 C595 1.433 . S
C597 N600 1.384 . S
C598 H589 0.929 . S
C598 C590 1.378 . S
C598 C593 1.350 . S
C599 H586 0.929 . S
C599 C591 1.433 . S
C599 N601 1.384 . S
N600 C596 1.427 . S
N600 C597 1.384 . S
N601 C593 1.427 . S
N601 C599 1.384 . S
H602 C608 0.930 . S
H603 C612 0.930 . S
H604 C617 0.929 . S
H605 C615 0.929 . S
H606 C610 0.929 . S
H607 C616 0.929 . S
C608 H602 0.930 . S
C608 C609 1.367 . S
C608 C616 1.378 . S
C609 C608 1.367 . S
C609 C617 1.433 . S
C610 H606 0.929 . S
C610 C612 1.378 . S
C610 C614 1.350 . S
C611 C614 1.463 . S
C611 C616 1.350 . S
C611 N619 1.427 . S
C612 H603 0.930 . S
C612 C610 1.378 . S
C612 C613 1.367 . S
C613 C612 1.367 . S
C613 C615 1.433 . S
C614 C610 1.350 . S
C614 C611 1.463 . S
C614 N618 1.427 . S
C615 H605 0.929 . S
C615 C613 1.433 . S
C615 N618 1.384 . S
C616 H607 0.929 . S
C616 C608 1.378 . S
C616 C611 1.350 . S
C617 H604 0.929 . S
C617 C609 1.433 . S
C617 N619 1.384 . S
N618 C614 1.427 . S
N618 C615 1.384 . S
N619 C611 1.427 . S
N619 C617 1.384 . S
H620 C626 0.930 1_554 S
H621 C630 0.930 . S
H622 C635 0.929 . S
H623 C633 0.929 . S
H624 C628 0.929 . S
H625 C634 0.929 . S
C626 H620 0.930 1_556 S
C626 C627 1.367 . S
C626 C634 1.378 . S
C627 C626 1.367 . S
C627 C635 1.433 . S
C628 H624 0.929 . S
C628 C630 1.378 . S
C628 C632 1.350 . S
C629 C632 1.463 . S
C629 C634 1.350 . S
C629 N637 1.427 . S
C630 H621 0.930 . S
C630 C628 1.378 . S
C630 C631 1.367 . S
C631 C630 1.367 . S
C631 C633 1.433 . S
C632 C628 1.350 . S
C632 C629 1.463 . S
C632 N636 1.427 . S
C633 H623 0.929 . S
C633 C631 1.433 . S
C633 N636 1.384 . S
C634 H625 0.929 . S
C634 C626 1.378 . S
C634 C629 1.350 . S
C635 H622 0.929 . S
C635 C627 1.433 . S
C635 N637 1.384 . S
N636 C632 1.427 . S
N636 C633 1.384 . S
N637 C629 1.427 . S
N637 C635 1.384 . S
H638 C644 0.930 . S
H639 C648 0.930 . S
H640 C653 0.929 . S
H641 C651 0.929 . S
H642 C646 0.929 . S
H643 C652 0.929 . S
C644 H638 0.930 . S
C644 C645 1.367 . S
C644 C652 1.378 . S
C645 C644 1.367 . S
C645 C653 1.433 . S
C646 H642 0.929 . S
C646 C648 1.378 . S
C646 C650 1.350 . S
C647 C650 1.463 . S
C647 C652 1.350 . S
C647 N655 1.427 . S
C648 H639 0.930 . S
C648 C646 1.378 . S
C648 C649 1.367 . S
C649 C648 1.367 . S
C649 C651 1.433 . S
C650 C646 1.350 . S
C650 C647 1.463 . S
C650 N654 1.427 . S
C651 H641 0.929 . S
C651 C649 1.433 . S
C651 N654 1.384 . S
C652 H643 0.929 . S
C652 C644 1.378 . S
C652 C647 1.350 . S
C653 H640 0.929 . S
C653 C645 1.433 . S
C653 N655 1.384 . S
N654 C650 1.427 . S
N654 C651 1.384 . S
N655 C647 1.427 . S
N655 C653 1.384 . S
H656 C662 0.930 . S
H657 C666 0.930 . S
H658 C671 0.929 . S
H659 C669 0.929 . S
H660 C664 0.929 . S
H661 C670 0.929 . S
C662 H656 0.930 . S
C662 C663 1.367 . S
C662 C670 1.378 . S
C663 C662 1.367 . S
C663 C671 1.433 . S
C664 H660 0.929 . S
C664 C666 1.378 . S
C664 C668 1.350 . S
C665 C668 1.463 . S
C665 C670 1.350 . S
C665 N673 1.427 . S
C666 H657 0.930 . S
C666 C664 1.378 . S
C666 C667 1.367 . S
C667 C666 1.367 . S
C667 C669 1.433 . S
C668 C664 1.350 . S
C668 C665 1.463 . S
C668 N672 1.427 . S
C669 H659 0.929 . S
C669 C667 1.433 . S
C669 N672 1.384 . S
C670 H661 0.929 . S
C670 C662 1.378 . S
C670 C665 1.350 . S
C671 H658 0.929 . S
C671 C663 1.433 . S
C671 N673 1.384 . S
N672 C668 1.427 . S
N672 C669 1.384 . S
N673 C665 1.427 . S
N673 C671 1.384 . S
H674 C680 0.930 . S
H675 C684 0.930 . S
H676 C689 0.929 . S
H677 C687 0.929 . S
H678 C682 0.929 . S
H679 C688 0.929 . S
C680 H674 0.930 . S
C680 C681 1.367 . S
C680 C688 1.378 . S
C681 C680 1.367 . S
C681 C689 1.433 . S
C682 H678 0.929 . S
C682 C684 1.378 . S
C682 C686 1.350 . S
C683 C686 1.463 . S
C683 C688 1.350 . S
C683 N691 1.427 . S
C684 H675 0.930 . S
C684 C682 1.378 . S
C684 C685 1.367 . S
C685 C684 1.367 . S
C685 C687 1.433 . S
C686 C682 1.350 . S
C686 C683 1.463 . S
C686 N690 1.427 . S
C687 H677 0.929 . S
C687 C685 1.433 . S
C687 N690 1.384 . S
C688 H679 0.929 . S
C688 C680 1.378 . S
C688 C683 1.350 . S
C689 H676 0.929 . S
C689 C681 1.433 . S
C689 N691 1.384 . S
N690 C686 1.427 . S
N690 C687 1.384 . S
N691 C683 1.427 . S
N691 C689 1.384 . S
H692 C698 0.930 . S
H693 C702 0.930 . S
H694 C707 0.929 . S
H695 C705 0.929 . S
H696 C700 0.929 . S
H697 C706 0.929 . S
C698 H692 0.930 . S
C698 C699 1.367 . S
C698 C706 1.378 . S
C699 C698 1.367 . S
C699 C707 1.433 . S
C700 H696 0.929 . S
C700 C702 1.378 . S
C700 C704 1.350 . S
C701 C704 1.463 . S
C701 C706 1.350 . S
C701 N709 1.427 . S
C702 H693 0.930 . S
C702 C700 1.378 . S
C702 C703 1.367 . S
C703 C702 1.367 . S
C703 C705 1.433 . S
C704 C700 1.350 . S
C704 C701 1.463 . S
C704 N708 1.427 . S
C705 H695 0.929 . S
C705 C703 1.433 . S
C705 N708 1.384 . S
C706 H697 0.929 . S
C706 C698 1.378 . S
C706 C701 1.350 . S
C707 H694 0.929 . S
C707 C699 1.433 . S
C707 N709 1.384 . S
N708 C704 1.427 . S
N708 C705 1.384 . S
N709 C701 1.427 . S
N709 C707 1.384 . S
H710 C716 0.930 . S
H711 C720 0.930 . S
H712 C725 0.929 . S
H713 C723 0.929 . S
H714 C718 0.929 . S
H715 C724 0.929 . S
C716 H710 0.930 . S
C716 C717 1.367 . S
C716 C724 1.378 . S
C717 C716 1.367 . S
C717 C725 1.433 . S
C718 H714 0.929 . S
C718 C720 1.378 . S
C718 C722 1.350 . S
C719 C722 1.463 . S
C719 C724 1.350 . S
C719 N727 1.427 . S
C720 H711 0.930 . S
C720 C718 1.378 . S
C720 C721 1.367 . S
C721 C720 1.367 . S
C721 C723 1.433 . S
C722 C718 1.350 . S
C722 C719 1.463 . S
C722 N726 1.427 . S
C723 H713 0.929 . S
C723 C721 1.433 . S
C723 N726 1.384 . S
C724 H715 0.929 . S
C724 C716 1.378 . S
C724 C719 1.350 . S
C725 H712 0.929 . S
C725 C717 1.433 . S
C725 N727 1.384 . S
N726 C722 1.427 . S
N726 C723 1.384 . S
N727 C719 1.427 . S
N727 C725 1.384 . S
H728 C734 0.930 . S
H729 C738 0.930 . S
H730 C743 0.929 . S
H731 C741 0.929 . S
H732 C736 0.929 . S
H733 C742 0.929 . S
C734 H728 0.930 . S
C734 C735 1.367 . S
C734 C742 1.378 . S
C735 C734 1.367 . S
C735 C743 1.433 . S
C736 H732 0.929 . S
C736 C738 1.378 . S
C736 C740 1.350 . S
C737 C740 1.463 . S
C737 C742 1.350 . S
C737 N745 1.427 . S
C738 H729 0.930 . S
C738 C736 1.378 . S
C738 C739 1.367 . S
C739 C738 1.367 . S
C739 C741 1.433 . S
C740 C736 1.350 . S
C740 C737 1.463 . S
C740 N744 1.427 . S
C741 H731 0.929 . S
C741 C739 1.433 . S
C741 N744 1.384 . S
C742 H733 0.929 . S
C742 C734 1.378 . S
C742 C737 1.350 . S
C743 H730 0.929 . S
C743 C735 1.433 . S
C743 N745 1.384 . S
N744 C740 1.427 . S
N744 C741 1.384 . S
N745 C737 1.427 . S
N745 C743 1.384 . S
H746 C752 0.930 . S
H747 C756 0.930 . S
H748 C761 0.929 . S
H749 C759 0.929 . S
H750 C754 0.929 . S
H751 C760 0.929 . S
C752 H746 0.930 . S
C752 C753 1.367 . S
C752 C760 1.378 . S
C753 C752 1.367 . S
C753 C761 1.433 . S
C754 H750 0.929 . S
C754 C756 1.378 . S
C754 C758 1.350 . S
C755 C758 1.463 . S
C755 C760 1.350 . S
C755 N763 1.427 . S
C756 H747 0.930 . S
C756 C754 1.378 . S
C756 C757 1.367 . S
C757 C756 1.367 . S
C757 C759 1.433 . S
C758 C754 1.350 . S
C758 C755 1.463 . S
C758 N762 1.427 . S
C759 H749 0.929 . S
C759 C757 1.433 . S
C759 N762 1.384 . S
C760 H751 0.929 . S
C760 C752 1.378 . S
C760 C755 1.350 . S
C761 H748 0.929 . S
C761 C753 1.433 . S
C761 N763 1.384 . S
N762 C758 1.427 . S
N762 C759 1.384 . S
N763 C755 1.427 . S
N763 C761 1.384 . S
H764 C770 0.930 . S
H765 C774 0.930 . S
H766 C779 0.929 . S
H767 C777 0.929 . S
H768 C772 0.929 . S
H769 C778 0.929 . S
C770 H764 0.930 . S
C770 C771 1.367 . S
C770 C778 1.378 . S
C771 C770 1.367 . S
C771 C779 1.433 . S
C772 H768 0.929 . S
C772 C774 1.378 . S
C772 C776 1.350 . S
C773 C776 1.463 . S
C773 C778 1.350 . S
C773 N781 1.427 . S
C774 H765 0.930 . S
C774 C772 1.378 . S
C774 C775 1.367 . S
C775 C774 1.367 . S
C775 C777 1.433 . S
C776 C772 1.350 . S
C776 C773 1.463 . S
C776 N780 1.427 . S
C777 H767 0.929 . S
C777 C775 1.433 . S
C777 N780 1.384 . S
C778 H769 0.929 . S
C778 C770 1.378 . S
C778 C773 1.350 . S
C779 H766 0.929 . S
C779 C771 1.433 . S
C779 N781 1.384 . S
N780 C776 1.427 . S
N780 C777 1.384 . S
N781 C773 1.427 . S
N781 C779 1.384 . S
H782 C788 0.930 . S
H783 C792 0.930 . S
H784 C797 0.929 . S
H785 C795 0.929 . S
H786 C790 0.929 . S
H787 C796 0.929 . S
C788 H782 0.930 . S
C788 C789 1.367 . S
C788 C796 1.378 . S
C789 C788 1.367 . S
C789 C797 1.433 . S
C790 H786 0.929 . S
C790 C792 1.378 . S
C790 C794 1.350 . S
C791 C794 1.463 . S
C791 C796 1.350 . S
C791 N799 1.427 . S
C792 H783 0.930 . S
C792 C790 1.378 . S
C792 C793 1.367 . S
C793 C792 1.367 . S
C793 C795 1.433 . S
C794 C790 1.350 . S
C794 C791 1.463 . S
C794 N798 1.427 . S
C795 H785 0.929 . S
C795 C793 1.433 . S
C795 N798 1.384 . S
C796 H787 0.929 . S
C796 C788 1.378 . S
C796 C791 1.350 . S
C797 H784 0.929 . S
C797 C789 1.433 . S
C797 N799 1.384 . S
N798 C794 1.427 . S
N798 C795 1.384 . S
N799 C791 1.427 . S
N799 C797 1.384 . S
C231 C11 1.083 . S
C235 C67 1.087 . S
C249 C81 1.077 . S
C253 C25 1.088 . S
C267 C39 1.084 . S
C271 C95 1.086 . S
C285 C53 1.079 . S
C289 C109 1.089 . S
C303 C123 1.080 . S
C307 C179 1.083 . S
C321 C193 1.084 . S
C325 C137 1.086 . S
C339 C151 1.089 . S
C343 C207 1.080 . S
C357 C165 1.080 . S
C361 C221 1.084 . S
C375 C9 1.475 1_556 S
C379 C215 1.465 . S
C393 C173 1.465 . S
C397 C23 1.475 . S
C411 C37 1.476 1_556 S
C415 C187 1.471 . S
C429 C201 1.470 . S
C433 C51 1.476 . S
C447 C131 1.471 . S
C451 C65 1.476 1_554 S
C465 C145 1.465 . S
C469 C79 1.475 . S
C483 C159 1.467 . S
C487 C93 1.475 1_554 S
C501 C117 1.465 . S
C505 C107 1.475 . S
C519 C121 1.475 1_554 S
C523 C103 1.465 . S
C537 C61 1.466 . S
C541 C135 1.475 . S
C555 C75 1.468 . S
C559 C149 1.476 1_554 S
C573 C163 1.476 . S
C577 C89 1.471 . S
C591 C19 1.470 . S
C595 C177 1.476 1_556 S
C609 C191 1.475 . S
C613 C33 1.466 . S
C627 C205 1.475 1_556 S
C631 C47 1.466 . S
C645 C219 1.477 . S
C649 C5 1.471 . S
C663 C98 1.088 . S
C667 C0 1.080 . S
C681 C14 1.073 . S
C685 C56 1.095 . S
C699 C28 1.083 . S
C703 C70 1.087 . S
C717 C42 1.078 . S
C721 C84 1.092 . S
C735 C210 1.091 . S
C739 C112 1.077 . S
C753 C168 1.080 . S
C757 C126 1.090 . S
C771 C182 1.074 . S
C775 C140 1.095 . S
C789 C196 1.089 . S
C793 C154 1.081 . S
