# Generated by pormake.
# Topology wjs, (5)-cn, num edge types: 1
# Building blocks:
#     Node 0, Type 0, BuildingBlock: XOMCOT_clean_sbu_1, # of connection points: 5
#     Node 1, Type 0, BuildingBlock: XOMCOT_clean_sbu_1, # of connection points: 5
#     Node 2, Type 0, BuildingBlock: XOMCOT_clean_sbu_1, # of connection points: 5
#     Node 3, Type 0, BuildingBlock: XOMCOT_clean_sbu_1, # of connection points: 5
#     Node 4, Type 0, BuildingBlock: XOMCOT_clean_sbu_1, # of connection points: 5
#     Node 5, Type 0, BuildingBlock: XOMCOT_clean_sbu_1, # of connection points: 5
#     Node 6, Type 0, BuildingBlock: XOMCOT_clean_sbu_1, # of connection points: 5
#     Node 7, Type 0, BuildingBlock: XOMCOT_clean_sbu_1, # of connection points: 5
#     Node 8, Type 0, BuildingBlock: XOMCOT_clean_sbu_1, # of connection points: 5
#     Node 9, Type 0, BuildingBlock: XOMCOT_clean_sbu_1, # of connection points: 5
#     Node 10, Type 0, BuildingBlock: XOMCOT_clean_sbu_1, # of connection points: 5
#     Node 11, Type 0, BuildingBlock: XOMCOT_clean_sbu_1, # of connection points: 5
#     Edge 12, Type (0, 0), BuildingBlock: MIFKUJ_clean_linker_0, # of connection points: 2
#     Edge 13, Type (0, 0), BuildingBlock: MIFKUJ_clean_linker_0, # of connection points: 2
#     Edge 14, Type (0, 0), BuildingBlock: MIFKUJ_clean_linker_0, # of connection points: 2
#     Edge 15, Type (0, 0), BuildingBlock: MIFKUJ_clean_linker_0, # of connection points: 2
#     Edge 16, Type (0, 0), BuildingBlock: MIFKUJ_clean_linker_0, # of connection points: 2
#     Edge 17, Type (0, 0), BuildingBlock: MIFKUJ_clean_linker_0, # of connection points: 2
#     Edge 18, Type (0, 0), BuildingBlock: MIFKUJ_clean_linker_0, # of connection points: 2
#     Edge 19, Type (0, 0), BuildingBlock: MIFKUJ_clean_linker_0, # of connection points: 2
#     Edge 20, Type (0, 0), BuildingBlock: MIFKUJ_clean_linker_0, # of connection points: 2
#     Edge 21, Type (0, 0), BuildingBlock: MIFKUJ_clean_linker_0, # of connection points: 2
#     Edge 22, Type (0, 0), BuildingBlock: MIFKUJ_clean_linker_0, # of connection points: 2
#     Edge 23, Type (0, 0), BuildingBlock: MIFKUJ_clean_linker_0, # of connection points: 2
#     Edge 24, Type (0, 0), BuildingBlock: MIFKUJ_clean_linker_0, # of connection points: 2
#     Edge 25, Type (0, 0), BuildingBlock: MIFKUJ_clean_linker_0, # of connection points: 2
#     Edge 26, Type (0, 0), BuildingBlock: MIFKUJ_clean_linker_0, # of connection points: 2
#     Edge 27, Type (0, 0), BuildingBlock: MIFKUJ_clean_linker_0, # of connection points: 2
#     Edge 28, Type (0, 0), BuildingBlock: MIFKUJ_clean_linker_0, # of connection points: 2
#     Edge 29, Type (0, 0), BuildingBlock: MIFKUJ_clean_linker_0, # of connection points: 2
#     Edge 30, Type (0, 0), BuildingBlock: MIFKUJ_clean_linker_0, # of connection points: 2
#     Edge 31, Type (0, 0), BuildingBlock: MIFKUJ_clean_linker_0, # of connection points: 2
#     Edge 32, Type (0, 0), BuildingBlock: MIFKUJ_clean_linker_0, # of connection points: 2
#     Edge 33, Type (0, 0), BuildingBlock: MIFKUJ_clean_linker_0, # of connection points: 2
#     Edge 34, Type (0, 0), BuildingBlock: MIFKUJ_clean_linker_0, # of connection points: 2
#     Edge 35, Type (0, 0), BuildingBlock: MIFKUJ_clean_linker_0, # of connection points: 2
#     Edge 36, Type (0, 0), BuildingBlock: MIFKUJ_clean_linker_0, # of connection points: 2
#     Edge 37, Type (0, 0), BuildingBlock: MIFKUJ_clean_linker_0, # of connection points: 2
#     Edge 38, Type (0, 0), BuildingBlock: MIFKUJ_clean_linker_0, # of connection points: 2
#     Edge 39, Type (0, 0), BuildingBlock: MIFKUJ_clean_linker_0, # of connection points: 2
#     Edge 40, Type (0, 0), BuildingBlock: MIFKUJ_clean_linker_0, # of connection points: 2
#     Edge 41, Type (0, 0), BuildingBlock: MIFKUJ_clean_linker_0, # of connection points: 2
# Relax obj value: 0.369
# Max RMSD: 0.266
# Mean RMSD: 0.266
data_MOF--net-wjs--node1-XOMCOT_clean_sbu_1--edge1-MIFKUJ_clean_linker_0
_symmetry_space_group_name_H-M    P1
_symmetry_Int_Tables_number       1
_symmetry_cell_setting            triclinic
loop_
_symmetry_equiv_pos_as_xyz
'x, y, z'
_cell_length_a     39.082213
_cell_length_b     39.113048
_cell_length_c     87.141368
_cell_angle_alpha  90.007483
_cell_angle_beta   89.980536
_cell_angle_gamma 119.98117
loop_
_atom_site_label
_atom_site_type_symbol
_atom_site_fract_x
_atom_site_fract_y
_atom_site_fract_z
_atom_type_partial_charge
C0 C 0.27045 0.35422 0.0331 0.0
C1 C 0.28077 0.3337 0.0431 0.0
N2 N 0.26462 0.29627 0.03801 0.0
N3 N 0.24789 0.32974 0.02184 0.0
C4 C 0.24475 0.29462 0.02513 0.0
H5 H 0.27851 0.38493 0.034 0.0
Co6 Co 0.22544 0.34396 0.00637 0.0
C7 C 0.18386 0.27291 0.98728 0.0
O8 O 0.15114 0.27451 0.98829 0.0
N9 N 0.20273 0.35922 0.9909 0.0
C10 C 0.1867 0.37524 0.96856 0.0
C11 C 0.21115 0.36414 0.97572 0.0
C12 C 0.17327 0.36735 0.99264 0.0
N13 N 0.16273 0.3767 0.9793 0.0
O14 O 0.17563 0.31437 0.01657 0.0
H15 H 0.23338 0.35965 0.9702 0.0
H16 H 0.15979 0.36701 0.00348 0.0
O17 O 0.21475 0.29812 0.99438 0.0
C18 C 0.16808 0.3312 0.02748 0.0
O19 O 0.19256 0.36868 0.03034 0.0
N20 N 0.2755 0.37345 0.99732 0.0
C21 C 0.35573 0.41961 0.99076 0.0
C22 C 0.33664 0.37846 0.9895 0.0
C23 C 0.29662 0.35589 0.99292 0.0
C24 C 0.29301 0.41357 0.99784 0.0
C25 C 0.33327 0.43739 0.99446 0.0
H26 H 0.28365 0.32424 0.99307 0.0
H27 H 0.2762 0.42706 0.00173 0.0
H28 H 0.22743 0.2681 0.01845 0.0
H29 H 0.29891 0.34541 0.05326 0.0
H30 H 0.18611 0.38112 0.95646 0.0
H31 H 0.353 0.36369 0.98663 0.0
H32 H 0.34715 0.46913 0.99567 0.0
C33 C 0.92755 0.28765 0.20082 0.0
C34 C 0.95941 0.29561 0.20991 0.0
N35 N 0.97182 0.27016 0.20614 0.0
N36 N 0.92028 0.25768 0.19127 0.0
C37 C 0.94747 0.24735 0.19485 0.0
H38 H 0.91057 0.30258 0.20118 0.0
Co39 Co 0.87981 0.23588 0.1771 0.0
C40 C 0.90367 0.19475 0.15499 0.0
O41 O 0.86855 0.163 0.15571 0.0
N42 N 0.83824 0.21395 0.16294 0.0
C43 C 0.80091 0.20073 0.14201 0.0
C44 C 0.83823 0.22375 0.14805 0.0
C45 C 0.8009 0.18484 0.16561 0.0
N46 N 0.77788 0.17616 0.15312 0.0
O47 O 0.8602 0.18596 0.18714 0.0
H48 H 0.86369 0.24623 0.14196 0.0
H49 H 0.79018 0.17048 0.17656 0.0
O50 O 0.91169 0.22448 0.1634 0.0
C51 C 0.83985 0.18219 0.1991 0.0
O52 O 0.83228 0.21045 0.20258 0.0
N53 N 0.89923 0.28583 0.1682 0.0
C54 C 0.93122 0.36555 0.1614 0.0
C55 C 0.95333 0.34675 0.15911 0.0
C56 C 0.93687 0.30687 0.16263 0.0
C57 C 0.87658 0.30311 0.16982 0.0
C58 C 0.89194 0.34305 0.16633 0.0
H59 H 0.95554 0.29388 0.16188 0.0
H60 H 0.8472 0.28633 0.17462 0.0
H61 H 0.94941 0.22367 0.18926 0.0
H62 H 0.97192 0.31779 0.21882 0.0
H63 H 0.79149 0.20164 0.13041 0.0
H64 H 0.98378 0.36322 0.15533 0.0
H65 H 0.87415 0.35672 0.16841 0.0
C66 C 0.64019 0.92865 0.36035 0.0
C67 C 0.66457 0.9635 0.36781 0.0
N68 N 0.70224 0.97484 0.36406 0.0
N69 N 0.66244 0.91839 0.35185 0.0
C70 C 0.70005 0.94692 0.35437 0.0
H71 H 0.60836 0.9115 0.36126 0.0
Co72 Co 0.64451 0.87301 0.34033 0.0
C73 C 0.71039 0.89499 0.31865 0.0
O74 O 0.71173 0.86276 0.32159 0.0
N75 N 0.62595 0.82687 0.32894 0.0
C76 C 0.6071 0.78251 0.31025 0.0
C77 C 0.6212 0.8217 0.31363 0.0
C78 C 0.61385 0.79054 0.33463 0.0
N79 N 0.6026 0.76291 0.32352 0.0
O80 O 0.67865 0.86042 0.35178 0.0
H81 H 0.62767 0.84497 0.30546 0.0
H82 H 0.61266 0.78441 0.34675 0.0
O83 O 0.68526 0.90153 0.32532 0.0
C84 C 0.6648 0.8457 0.3649 0.0
O85 O 0.62952 0.83939 0.36867 0.0
N86 N 0.6101 0.88527 0.32998 0.0
C87 C 0.55633 0.90944 0.32213 0.0
C88 C 0.5964 0.93252 0.3182 0.0
C89 C 0.62288 0.91997 0.32227 0.0
C90 C 0.57099 0.8612 0.33301 0.0
C91 C 0.54349 0.8726 0.32909 0.0
H92 H 0.65399 0.93983 0.32033 0.0
H93 H 0.56145 0.83419 0.33939 0.0
H94 H 0.72532 0.94688 0.34931 0.0
H95 H 0.65532 0.97853 0.37579 0.0
H96 H 0.60112 0.76973 0.29888 0.0
H97 H 0.60787 0.96147 0.31311 0.0
H98 H 0.51279 0.85363 0.33218 0.0
C99 C 0.70868 0.65313 0.53056 0.0
C100 C 0.70042 0.6802 0.53705 0.0
N101 N 0.72852 0.71647 0.53259 0.0
N102 N 0.74147 0.67229 0.52185 0.0
C103 C 0.7532 0.71093 0.52346 0.0
H104 H 0.69192 0.62146 0.53208 0.0
Co105 Co 0.76457 0.64883 0.51063 0.0
C106 C 0.80715 0.71181 0.4872 0.0
O107 O 0.84234 0.71957 0.49176 0.0
N108 N 0.78784 0.62519 0.49958 0.0
C109 C 0.80698 0.59927 0.48113 0.0
C110 C 0.78488 0.61685 0.48445 0.0
C111 C 0.81164 0.61243 0.50522 0.0
N112 N 0.82391 0.59672 0.49423 0.0
O113 O 0.81379 0.68279 0.52054 0.0
H114 H 0.76776 0.62317 0.47637 0.0
H115 H 0.81938 0.61406 0.51721 0.0
O116 O 0.77635 0.6859 0.49414 0.0
C117 C 0.81438 0.67179 0.53424 0.0
O118 O 0.78352 0.63927 0.53924 0.0
N119 N 0.71527 0.61457 0.50178 0.0
C120 C 0.63511 0.56472 0.49633 0.0
C121 C 0.65355 0.60452 0.4921 0.0
C122 C 0.69361 0.62902 0.49498 0.0
C123 C 0.69844 0.57535 0.50509 0.0
C124 C 0.6582 0.54966 0.50232 0.0
H125 H 0.70606 0.66029 0.49314 0.0
H126 H 0.71561 0.56448 0.51087 0.0
H127 H 0.7793 0.7345 0.51806 0.0
H128 H 0.67627 0.67385 0.54479 0.0
H129 H 0.81073 0.58963 0.46993 0.0
H130 H 0.63657 0.61717 0.4875 0.0
H131 H 0.64478 0.5191 0.50588 0.0
C132 C 0.06855 0.71242 0.69192 0.0
C133 C 0.03404 0.70263 0.69954 0.0
N134 N 0.02543 0.7315 0.6971 0.0
N135 N 0.08125 0.74704 0.68455 0.0
C136 C 0.05447 0.75804 0.68799 0.0
H137 H 0.08378 0.69573 0.69195 0.0
Co138 Co 0.12736 0.77462 0.67314 0.0
C139 C 0.10582 0.81703 0.65046 0.0
O140 O 0.13894 0.85039 0.65265 0.0
N141 N 0.17362 0.80215 0.66181 0.0
C142 C 0.21743 0.82608 0.64289 0.0
C143 C 0.17893 0.79941 0.64666 0.0
C144 C 0.20921 0.83016 0.66704 0.0
N145 N 0.23643 0.84553 0.65573 0.0
O146 O 0.13995 0.82183 0.68431 0.0
H147 H 0.15611 0.77966 0.63882 0.0
H148 H 0.21476 0.83976 0.67887 0.0
O149 O 0.09874 0.78632 0.65803 0.0
C150 C 0.14733 0.8211 0.69849 0.0
O151 O 0.14663 0.78967 0.7042 0.0
N152 N 0.11548 0.72777 0.66298 0.0
C153 C 0.09296 0.65058 0.65459 0.0
C154 C 0.06965 0.66724 0.65057 0.0
C155 C 0.08135 0.70587 0.65492 0.0
C156 C 0.13969 0.713 0.66622 0.0
C157 C 0.1291 0.67448 0.66205 0.0
H158 H 0.06134 0.71684 0.65281 0.0
H159 H 0.16626 0.73047 0.67285 0.0
H160 H 0.05653 0.78526 0.68405 0.0
H161 H 0.01733 0.677 0.70675 0.0
H162 H 0.23037 0.8306 0.63157 0.0
H163 H 0.04116 0.64976 0.64512 0.0
H164 H 0.1482 0.66298 0.66525 0.0
C165 C 0.36925 0.07869 0.86641 0.0
C166 C 0.34671 0.04852 0.87643 0.0
N167 N 0.30839 0.03424 0.87287 0.0
N168 N 0.34518 0.08326 0.8566 0.0
C169 C 0.30829 0.05575 0.86079 0.0
H170 H 0.40106 0.09708 0.86658 0.0
Co171 Co 0.36066 0.12402 0.84267 0.0
C172 C 0.29224 0.09484 0.82191 0.0
O173 O 0.29079 0.12743 0.82376 0.0
N174 N 0.37684 0.16562 0.82895 0.0
C175 C 0.3923 0.20351 0.8082 0.0
C176 C 0.37945 0.16581 0.8135 0.0
C177 C 0.38893 0.20332 0.83279 0.0
N178 N 0.39826 0.227 0.82041 0.0
O179 O 0.32762 0.13975 0.8531 0.0
H180 H 0.37219 0.14015 0.80654 0.0
H181 H 0.39017 0.21314 0.84447 0.0
O182 O 0.31795 0.09012 0.82911 0.0
C183 C 0.34208 0.15733 0.86575 0.0
O184 O 0.37774 0.16491 0.86958 0.0
N185 N 0.39415 0.1091 0.83328 0.0
C186 C 0.44815 0.08579 0.82475 0.0
C187 C 0.4075 0.06056 0.82253 0.0
C188 C 0.38092 0.07263 0.82699 0.0
C189 C 0.43357 0.13468 0.83496 0.0
C190 C 0.46118 0.12366 0.83071 0.0
H191 H 0.34973 0.05162 0.82625 0.0
H192 H 0.44351 0.16311 0.84027 0.0
H193 H 0.28186 0.053 0.85561 0.0
H194 H 0.35762 0.0383 0.88575 0.0
H195 H 0.39715 0.21291 0.79633 0.0
H196 H 0.39608 0.03075 0.81833 0.0
H197 H 0.4923 0.14404 0.83259 0.0
C198 C 0.6419 0.71053 0.78196 0.0
C199 C 0.66488 0.70209 0.77251 0.0
N200 N 0.70314 0.72803 0.77552 0.0
N201 N 0.6656 0.74136 0.79099 0.0
C202 C 0.70268 0.75147 0.7868 0.0
H203 H 0.60999 0.69591 0.78197 0.0
Co204 Co 0.64962 0.7672 0.80445 0.0
C205 C 0.71794 0.80637 0.82542 0.0
O206 O 0.72178 0.84108 0.82251 0.0
N207 N 0.63316 0.79326 0.81775 0.0
C208 C 0.61809 0.81694 0.83823 0.0
C209 C 0.63092 0.79184 0.83322 0.0
C210 C 0.62084 0.81853 0.81362 0.0
N211 N 0.61178 0.83363 0.82584 0.0
O212 O 0.68327 0.81556 0.79396 0.0
H213 H 0.63841 0.77395 0.84038 0.0
H214 H 0.61925 0.82635 0.80186 0.0
O215 O 0.69134 0.77578 0.81857 0.0
C216 C 0.66812 0.81843 0.78144 0.0
O217 O 0.63247 0.79007 0.77779 0.0
N218 N 0.61524 0.71911 0.81387 0.0
C219 C 0.5603 0.64199 0.82215 0.0
C220 C 0.60084 0.65668 0.82433 0.0
C221 C 0.62787 0.69522 0.81999 0.0
C222 C 0.57593 0.70599 0.81222 0.0
C223 C 0.54785 0.66744 0.81634 0.0
H224 H 0.65891 0.70473 0.82053 0.0
H225 H 0.56643 0.72492 0.80698 0.0
H226 H 0.72877 0.77607 0.79175 0.0
H227 H 0.65418 0.67958 0.7637 0.0
H228 H 0.61348 0.82224 0.85004 0.0
H229 H 0.61183 0.63776 0.82836 0.0
H230 H 0.51682 0.65723 0.81445 0.0
C231 C 0.93146 0.64452 0.94598 0.0
C232 C 0.96375 0.66965 0.93732 0.0
N233 N 0.97848 0.70637 0.943 0.0
N234 N 0.92593 0.66542 0.95702 0.0
C235 C 0.95509 0.70303 0.95496 0.0
H236 H 0.91245 0.6132 0.94411 0.0
Co237 Co 0.88309 0.64511 0.97013 0.0
C238 C 0.9073 0.7086 0.99323 0.0
O239 O 0.87477 0.71007 0.99113 0.0
N240 N 0.83921 0.62402 0.98302 0.0
C241 C 0.79812 0.60081 0.00288 0.0
C242 C 0.83684 0.61656 0.99822 0.0
C243 C 0.80183 0.61234 0.97869 0.0
N244 N 0.77628 0.59846 0.99054 0.0
O245 O 0.86664 0.67876 0.96074 0.0
H246 H 0.86167 0.62234 0.00545 0.0
H247 H 0.79322 0.61328 0.96699 0.0
O248 O 0.91353 0.68483 0.98533 0.0
C249 C 0.84981 0.66542 0.94787 0.0
O250 O 0.84435 0.63105 0.94324 0.0
N251 N 0.89917 0.6112 0.9784 0.0
C252 C 0.92837 0.56016 0.98341 0.0
C253 C 0.95089 0.60019 0.98727 0.0
C254 C 0.93593 0.6253 0.98455 0.0
C255 C 0.8758 0.57193 0.97543 0.0
C256 C 0.88979 0.5457 0.97795 0.0
H257 H 0.95531 0.65647 0.98625 0.0
H258 H 0.84719 0.56135 0.97016 0.0
H259 H 0.95801 0.72771 0.96162 0.0
H260 H 0.97524 0.66168 0.92748 0.0
H261 H 0.78704 0.59226 0.01445 0.0
H262 H 0.98076 0.61248 0.99157 0.0
H263 H 0.87164 0.51504 0.97466 0.0
C264 C 0.29114 0.92721 0.1149 0.0
C265 C 0.30238 0.95916 0.10538 0.0
N266 N 0.28122 0.97648 0.10921 0.0
N267 N 0.26303 0.92454 0.12459 0.0
C268 C 0.25758 0.95492 0.12087 0.0
H269 H 0.30218 0.90678 0.11463 0.0
Co270 Co 0.2362 0.88474 0.13869 0.0
C271 C 0.19483 0.91514 0.15765 0.0
O272 O 0.16087 0.88246 0.15579 0.0
N273 N 0.20926 0.8441 0.1527 0.0
C274 C 0.187 0.80753 0.17381 0.0
C275 C 0.21268 0.84461 0.16814 0.0
C276 C 0.18168 0.80671 0.14927 0.0
N277 N 0.16742 0.78397 0.16187 0.0
O278 O 0.18851 0.86832 0.12736 0.0
H279 H 0.23249 0.8703 0.17482 0.0
H280 H 0.17259 0.79599 0.13771 0.0
O281 O 0.22583 0.91913 0.15117 0.0
C282 C 0.18564 0.84922 0.11515 0.0
O283 O 0.21394 0.8415 0.1119 0.0
N284 N 0.28375 0.90065 0.14905 0.0
C285 C 0.36098 0.92633 0.15852 0.0
C286 C 0.34483 0.95121 0.15964 0.0
C287 C 0.30625 0.93791 0.15477 0.0
C288 C 0.29813 0.87533 0.14854 0.0
C289 C 0.33667 0.88749 0.15332 0.0
H290 H 0.29569 0.95866 0.15462 0.0
H291 H 0.28023 0.84619 0.14369 0.0
H292 H 0.23569 0.96028 0.12621 0.0
H293 H 0.32423 0.9688 0.09633 0.0
H294 H 0.18271 0.7987 0.18574 0.0
H295 H 0.36263 0.98167 0.16322 0.0
H296 H 0.34782 0.8672 0.15234 0.0
C297 C 0.35292 0.28338 0.28997 0.0
C298 C 0.3306 0.29332 0.28079 0.0
N299 N 0.29241 0.26516 0.28231 0.0
N300 N 0.32879 0.24942 0.29737 0.0
C301 C 0.29216 0.23889 0.2924 0.0
H302 H 0.38475 0.29948 0.29093 0.0
Co303 Co 0.34373 0.2218 0.31037 0.0
C304 C 0.27059 0.17311 0.32825 0.0
O305 O 0.27243 0.14075 0.32633 0.0
N306 N 0.3594 0.19432 0.32324 0.0
C307 C 0.37329 0.16805 0.34319 0.0
C308 C 0.35877 0.19216 0.3387 0.0
C309 C 0.37492 0.17207 0.31862 0.0
N310 N 0.38345 0.15547 0.33049 0.0
O311 O 0.31624 0.17645 0.29748 0.0
H312 H 0.34825 0.20697 0.34621 0.0
H313 H 0.37929 0.16761 0.30671 0.0
O314 O 0.29676 0.20547 0.32234 0.0
C315 C 0.334 0.17831 0.28499 0.0
O316 O 0.36922 0.20906 0.28263 0.0
N317 N 0.37197 0.26727 0.32233 0.0
C318 C 0.41772 0.34421 0.33315 0.0
C319 C 0.37776 0.32138 0.33725 0.0
C320 C 0.35521 0.28312 0.33156 0.0
C321 C 0.41145 0.28756 0.31937 0.0
C322 C 0.43492 0.32626 0.32458 0.0
H323 H 0.32397 0.26759 0.33396 0.0
H324 H 0.42413 0.27468 0.31192 0.0
H325 H 0.26584 0.21231 0.29605 0.0
H326 H 0.34171 0.31867 0.27326 0.0
H327 H 0.37641 0.1607 0.35488 0.0
H328 H 0.36342 0.33364 0.34414 0.0
H329 H 0.46552 0.3427 0.321 0.0
C330 C 0.06716 0.35023 0.45068 0.0
C331 C 0.03847 0.32908 0.43997 0.0
N332 N 0.02779 0.29068 0.44137 0.0
N333 N 0.07423 0.32523 0.45889 0.0
C334 C 0.04992 0.2892 0.45297 0.0
H335 H 0.08247 0.3819 0.45222 0.0
Co336 Co 0.11347 0.3399 0.47343 0.0
C337 C 0.08782 0.26812 0.49183 0.0
O338 O 0.12269 0.27112 0.49038 0.0
N339 N 0.15365 0.35545 0.48782 0.0
C340 C 0.18946 0.37134 0.50918 0.0
C341 C 0.15225 0.35817 0.50324 0.0
C342 C 0.19166 0.36702 0.48467 0.0
N343 N 0.21399 0.37653 0.49743 0.0
O344 O 0.1339 0.31222 0.46195 0.0
H345 H 0.12586 0.35092 0.50973 0.0
H346 H 0.203 0.36909 0.47318 0.0
O347 O 0.08071 0.29297 0.48523 0.0
C348 C 0.14998 0.32722 0.44912 0.0
O349 O 0.15495 0.36196 0.44536 0.0
N350 N 0.09297 0.36756 0.48404 0.0
C351 C 0.05859 0.41168 0.49336 0.0
C352 C 0.03725 0.37039 0.49398 0.0
C353 C 0.05484 0.34885 0.48919 0.0
C354 C 0.115 0.40776 0.48416 0.0
C355 C 0.0984 0.43053 0.48891 0.0
H356 H 0.03661 0.31716 0.48861 0.0
H357 H 0.14485 0.4222 0.47972 0.0
H358 H 0.04968 0.26272 0.45673 0.0
H359 H 0.02648 0.34116 0.4318 0.0
H360 H 0.19774 0.37625 0.52117 0.0
H361 H 0.00648 0.3548 0.4974 0.0
H362 H 0.11569 0.4624 0.48816 0.0
C363 C 0.70984 0.07805 0.61786 0.0
C364 C 0.69939 0.04589 0.60856 0.0
N365 N 0.72461 0.03243 0.6112 0.0
N366 N 0.74129 0.0846 0.62639 0.0
C367 C 0.7495 0.05635 0.62215 0.0
H368 H 0.69648 0.0965 0.61794 0.0
Co369 Co 0.7711 0.1274 0.63902 0.0
C370 C 0.80913 0.09489 0.6592 0.0
O371 O 0.84468 0.12402 0.65596 0.0
N372 N 0.80104 0.17068 0.65148 0.0
C373 C 0.82823 0.21143 0.67117 0.0
C374 C 0.80171 0.17324 0.66692 0.0
C375 C 0.82677 0.20746 0.64659 0.0
N376 N 0.84396 0.23292 0.65834 0.0
O377 O 0.81738 0.13802 0.62761 0.0
H378 H 0.7839 0.14895 0.67457 0.0
H379 H 0.833 0.21528 0.63461 0.0
O380 O 0.77896 0.0937 0.65306 0.0
C381 C 0.81874 0.15218 0.61431 0.0
O382 O 0.79096 0.16016 0.61045 0.0
N383 N 0.72509 0.11765 0.64936 0.0
C384 C 0.64986 0.1003 0.65865 0.0
C385 C 0.6635 0.07392 0.66161 0.0
C386 C 0.70106 0.08295 0.65673 0.0
C387 C 0.71318 0.14457 0.64702 0.0
C388 C 0.67555 0.13648 0.65158 0.0
H389 H 0.70942 0.0607 0.65793 0.0
H390 H 0.73217 0.17151 0.64083 0.0
H391 H 0.7742 0.05435 0.62669 0.0
H392 H 0.6763 0.03466 0.59998 0.0
H393 H 0.83482 0.22258 0.6828 0.0
H394 H 0.64429 0.04522 0.66664 0.0
H395 H 0.66606 0.15756 0.64903 0.0
H396 H 0.26631 0.23609 0.02354 0.0
H397 H 0.27077 0.18186 0.03548 0.0
H398 H 0.2729 0.23005 0.08027 0.0
H399 H 0.26928 0.28473 0.06832 0.0
H400 H 0.32525 0.20723 0.07917 0.0
H401 H 0.18878 0.14925 0.06563 0.0
H402 H 0.13191 0.13122 0.04858 0.0
H403 H 0.1668 0.06405 0.02024 0.0
H404 H 0.22425 0.08217 0.037 0.0
H405 H 0.27099 0.03273 0.12279 0.0
H406 H 0.27039 0.08845 0.11018 0.0
H407 H 0.292 0.05075 0.06651 0.0
H408 H 0.29275 0.99505 0.07909 0.0
H409 H 0.22843 0.06768 0.06683 0.0
H410 H 0.3649 0.12589 0.08177 0.0
H411 H 0.41939 0.1431 0.09999 0.0
H412 H 0.38072 0.20892 0.12725 0.0
H413 H 0.3256 0.19159 0.1093 0.0
C414 C 0.26751 0.23491 0.03593 0.0
C415 C 0.26731 0.26446 0.04502 0.0
C416 C 0.27003 0.20396 0.04274 0.0
C417 C 0.27161 0.2016 0.05879 0.0
C418 C 0.27176 0.23131 0.06787 0.0
C419 C 0.26974 0.26252 0.06105 0.0
C420 C 0.27327 0.16827 0.06611 0.0
C421 C 0.30377 0.17673 0.0766 0.0
C422 C 0.24563 0.12845 0.06257 0.0
C423 C 0.21105 0.11741 0.05249 0.0
C424 C 0.18451 0.1309 0.05569 0.0
C425 C 0.15214 0.12062 0.04609 0.0
C426 C 0.14581 0.09659 0.03331 0.0
C427 C 0.17178 0.08271 0.03013 0.0
C428 C 0.20424 0.09296 0.03968 0.0
C429 C 0.27558 0.03639 0.11051 0.0
C430 C 0.28197 0.00973 0.10189 0.0
C431 C 0.27543 0.06823 0.10335 0.0
C432 C 0.2813 0.07363 0.08745 0.0
C433 C 0.28751 0.04699 0.07881 0.0
C434 C 0.28821 0.01545 0.086 0.0
C435 C 0.28027 0.1068 0.07983 0.0
C436 C 0.24989 0.09824 0.06932 0.0
C437 C 0.30764 0.14647 0.0835 0.0
C438 C 0.34089 0.1571 0.09427 0.0
C439 C 0.3678 0.14374 0.09172 0.0
C440 C 0.39884 0.15357 0.10199 0.0
C441 C 0.40345 0.177 0.11479 0.0
C442 C 0.37708 0.19073 0.11733 0.0
C443 C 0.34595 0.18094 0.10711 0.0
H444 H 0.42751 0.18459 0.12272 0.0
H445 H 0.12072 0.08866 0.02589 0.0
H446 H 0.28418 0.32663 0.27319 0.0
H447 H 0.22742 0.32348 0.26003 0.0
H448 H 0.16803 0.19633 0.26084 0.0
H449 H 0.22517 0.19924 0.27373 0.0
H450 H 0.16401 0.22779 0.23223 0.0
H451 H 0.13933 0.23894 0.28529 0.0
H452 H 0.1556 0.26772 0.31127 0.0
H453 H 0.17331 0.37792 0.29363 0.0
H454 H 0.15772 0.34997 0.2675 0.0
H455 H 0.9769 0.20423 0.21032 0.0
H456 H 0.03038 0.19984 0.2231 0.0
H457 H 0.09268 0.32591 0.23024 0.0
H458 H 0.03911 0.33024 0.21769 0.0
H459 H 0.09249 0.28984 0.25559 0.0
H460 H 0.12019 0.28046 0.20245 0.0
H461 H 0.10561 0.25285 0.17627 0.0
H462 H 0.08395 0.141 0.19361 0.0
H463 H 0.09784 0.16778 0.21994 0.0
C464 C 0.25919 0.29802 0.27044 0.0
C465 C 0.25903 0.26321 0.27453 0.0
C466 C 0.22672 0.29625 0.26303 0.0
C467 C 0.19354 0.25964 0.25956 0.0
C468 C 0.19344 0.2248 0.26342 0.0
C469 C 0.22587 0.22654 0.27091 0.0
C470 C 0.15891 0.25798 0.25199 0.0
C471 C 0.14789 0.2408 0.23739 0.0
C472 C 0.13853 0.27559 0.25869 0.0
C473 C 0.14769 0.29244 0.27441 0.0
C474 C 0.147 0.26941 0.28693 0.0
C475 C 0.15605 0.28556 0.30169 0.0
C476 C 0.16557 0.32465 0.30409 0.0
C477 C 0.16597 0.34765 0.29175 0.0
C478 C 0.15699 0.33165 0.27696 0.0
C479 C 0.00224 0.231 0.21447 0.0
C480 C 0.00387 0.26758 0.21305 0.0
C481 C 0.03275 0.22848 0.22177 0.0
C482 C 0.06569 0.2626 0.22753 0.0
C483 C 0.06748 0.29917 0.22595 0.0
C484 C 0.03686 0.30163 0.21881 0.0
C485 C 0.09789 0.26035 0.23562 0.0
C486 C 0.1084 0.27668 0.25039 0.0
C487 C 0.1179 0.24213 0.22902 0.0
C488 C 0.10957 0.22599 0.21319 0.0
C489 C 0.11197 0.24987 0.2007 0.0
C490 C 0.10389 0.23439 0.18583 0.0
C491 C 0.09373 0.19516 0.18328 0.0
C492 C 0.09174 0.17136 0.1956 0.0
C493 C 0.09972 0.18667 0.2105 0.0
H494 H 0.0875 0.18323 0.17176 0.0
H495 H 0.17256 0.3371 0.31552 0.0
H496 H 0.00379 0.29413 0.41248 0.0
H497 H 0.951 0.24021 0.39801 0.0
H498 H 0.93526 0.15923 0.43455 0.0
H499 H 0.98682 0.21333 0.44942 0.0
H500 H 0.93809 0.17051 0.38671 0.0
H501 H 0.83722 0.09573 0.43889 0.0
H502 H 0.82558 0.11304 0.46485 0.0
H503 H 0.86743 0.23237 0.45029 0.0
H504 H 0.87881 0.21563 0.42421 0.0
H505 H 0.77425 0.98148 0.36771 0.0
H506 H 0.8328 0.03681 0.37914 0.0
H507 H 0.76858 0.0989 0.38566 0.0
H508 H 0.70997 0.04379 0.37412 0.0
H509 H 0.80604 0.09871 0.41134 0.0
H510 H 0.83781 0.12655 0.35809 0.0
H511 H 0.84828 0.11219 0.33151 0.0
H512 H 0.94206 0.09318 0.34654 0.0
H513 H 0.93171 0.10673 0.37327 0.0
C514 C 0.98897 0.26495 0.41752 0.0
C515 C -0.00092 0.25826 0.43226 0.0
C516 C 0.95913 0.23406 0.40913 0.0
C517 C 0.93891 0.19589 0.41531 0.0
C518 C 0.95021 0.18864 0.42968 0.0
C519 C 0.97989 0.21958 0.43812 0.0
C520 C 0.90439 0.16432 0.40713 0.0
C521 C 0.90922 0.15466 0.39208 0.0
C522 C 0.86664 0.14425 0.41408 0.0
C523 C 0.85922 0.15449 0.42965 0.0
C524 C 0.84377 0.12561 0.44122 0.0
C525 C 0.83725 0.13533 0.45596 0.0
C526 C 0.84589 0.17381 0.45923 0.0
C527 C 0.86089 0.20261 0.44776 0.0
C528 C 0.86741 0.19303 0.433 0.0
C529 C 0.77274 0.00716 0.37133 0.0
C530 C 0.7374 0.00822 0.37004 0.0
C531 C 0.80622 0.03872 0.37789 0.0
C532 C 0.80503 0.07197 0.38319 0.0
C533 C 0.77002 0.07339 0.3817 0.0
C534 C 0.73654 0.04185 0.37516 0.0
C535 C 0.83969 0.10456 0.39092 0.0
C536 C 0.8349 0.11439 0.40594 0.0
C537 C 0.87724 0.12517 0.38382 0.0
C538 C 0.88367 0.11724 0.36772 0.0
C539 C 0.86043 0.11896 0.35576 0.0
C540 C 0.86637 0.11101 0.34065 0.0
C541 C 0.89572 0.10167 0.33734 0.0
C542 C 0.91928 0.10035 0.34912 0.0
C543 C 0.91339 0.10817 0.36426 0.0
H544 H 0.90027 0.09554 0.32564 0.0
H545 H 0.84087 0.18129 0.47065 0.0
H546 H 0.66968 0.73254 0.53632 0.0
H547 H 0.67496 0.7925 0.54747 0.0
H548 H 0.80111 0.84293 0.55156 0.0
H549 H 0.79587 0.78296 0.54021 0.0
H550 H 0.7615 0.84148 0.57925 0.0
H551 H 0.77424 0.88918 0.52768 0.0
H552 H 0.7575 0.88673 0.50027 0.0
H553 H 0.64119 0.86339 0.51223 0.0
H554 H 0.65749 0.86635 0.53975 0.0
H555 H 0.78916 0.02389 0.60782 0.0
H556 H 0.79329 0.9727 0.59351 0.0
H557 H 0.67064 0.92079 0.58084 0.0
H558 H 0.66577 0.97126 0.59559 0.0
H559 H 0.71474 0.92705 0.55641 0.0
H560 H 0.70188 0.87903 0.60815 0.0
H561 H 0.71922 0.88301 0.63555 0.0
H562 H 0.83495 0.90473 0.62352 0.0
H563 H 0.81848 0.90143 0.59602 0.0
C564 C 0.69853 0.75669 0.53942 0.0
C565 C 0.73234 0.75324 0.53751 0.0
C566 C 0.70157 0.79093 0.54567 0.0
C567 C 0.73843 0.82208 0.55028 0.0
C568 C 0.77245 0.8192 0.548 0.0
C569 C 0.76947 0.78514 0.54148 0.0
C570 C 0.74055 0.85582 0.55875 0.0
C571 C 0.75205 0.86078 0.57421 0.0
C572 C 0.72719 0.88011 0.55223 0.0
C573 C 0.71697 0.87764 0.53574 0.0
C574 C 0.74501 0.88326 0.52446 0.0
C575 C 0.73566 0.88195 0.50891 0.0
C576 C 0.69822 0.87463 0.5045 0.0
C577 C 0.67016 0.86898 0.51566 0.0
C578 C 0.67951 0.8707 0.53123 0.0
C579 C 0.76278 0.00131 0.60225 0.0
C580 C 0.727 0.00172 0.60296 0.0
C581 C 0.76534 0.97217 0.59395 0.0
C582 C 0.73232 0.94297 0.58609 0.0
C583 C 0.69658 0.94324 0.58674 0.0
C584 C 0.69388 0.97219 0.59515 0.0
C585 C 0.73516 0.91245 0.57703 0.0
C586 C 0.72452 0.90804 0.56146 0.0
C587 C 0.74917 0.88852 0.58349 0.0
C588 C 0.75908 0.89039 0.60002 0.0
C589 C 0.73114 0.88497 0.61134 0.0
C590 C 0.74079 0.88705 0.62689 0.0
C591 C 0.7782 0.89422 0.63127 0.0
C592 C 0.80601 0.89924 0.62011 0.0
C593 C 0.79652 0.89724 0.60454 0.0
H594 H 0.78559 0.89577 0.64331 0.0
H595 H 0.69099 0.87342 0.49245 0.0
H596 H 0.02708 0.79788 0.70698 0.0
H597 H 0.97403 0.80189 0.7204 0.0
H598 H 0.89842 0.67595 0.71548 0.0
H599 H 0.95167 0.67185 0.70246 0.0
H600 H 0.9014 0.78561 0.71395 0.0
H601 H 0.84278 0.63656 0.74646 0.0
H602 H 0.86855 0.59513 0.75682 0.0
H603 H 0.98435 0.69697 0.76054 0.0
H604 H 0.95918 0.73909 0.75043 0.0
H605 H 0.70872 0.66944 0.7614 0.0
H606 H 0.7656 0.67506 0.74757 0.0
H607 H 0.83207 0.79923 0.75837 0.0
H608 H 0.77475 0.7941 0.7718 0.0
H609 H 0.83816 0.69635 0.75832 0.0
H610 H 0.89926 0.84645 0.72856 0.0
H611 H 0.87658 0.89145 0.71934 0.0
H612 H 0.76027 0.79286 0.71192 0.0
H613 H 0.78237 0.74724 0.72091 0.0
C614 C 0.99895 0.77119 0.70864 0.0
C615 C 0.99346 0.73448 0.70384 0.0
C616 C 0.96872 0.77349 0.71631 0.0
C617 C 0.93252 0.73912 0.71922 0.0
C618 C 0.92645 0.70273 0.71373 0.0
C619 C 0.95679 0.70037 0.70628 0.0
C620 C 0.90141 0.74085 0.72837 0.0
C621 C 0.88792 0.76649 0.72378 0.0
C622 C 0.88383 0.71594 0.74122 0.0
C623 C 0.89912 0.69091 0.74755 0.0
C624 C 0.8737 0.65014 0.74956 0.0
C625 C 0.88821 0.62653 0.75538 0.0
C626 C 0.92808 0.64338 0.75929 0.0
C627 C 0.9535 0.68392 0.75745 0.0
C628 C 0.93913 0.70767 0.75167 0.0
C629 C 0.73525 0.69803 0.7607 0.0
C630 C 0.73711 0.73131 0.76768 0.0
C631 C 0.76783 0.70116 0.75288 0.0
C632 C 0.80292 0.73762 0.75182 0.0
C633 C 0.8051 0.7709 0.75888 0.0
C634 C 0.77244 0.7678 0.76671 0.0
C635 C 0.83735 0.74019 0.74363 0.0
C636 C 0.85169 0.71553 0.74851 0.0
C637 C 0.85606 0.76651 0.73125 0.0
C638 C 0.8424 0.79348 0.72558 0.0
C639 C 0.86887 0.83437 0.72491 0.0
C640 C 0.85612 0.85999 0.71972 0.0
C641 C 0.81698 0.84505 0.71509 0.0
C642 C 0.79055 0.80442 0.71557 0.0
C643 C 0.80316 0.77867 0.72073 0.0
H644 H 0.80717 0.86496 0.7111 0.0
H645 H 0.93926 0.62504 0.76377 0.0
H646 H 0.2377 0.98227 0.86066 0.0
H647 H 0.18061 0.93022 0.87418 0.0
H648 H 0.2451 0.96671 0.91687 0.0
H649 H 0.30256 0.01816 0.90327 0.0
H650 H 0.20964 0.8914 0.91538 0.0
H651 H 0.16601 0.98434 0.90894 0.0
H652 H 0.15344 0.03191 0.895 0.0
H653 H 0.07273 0.9395 0.86504 0.0
H654 H 0.0854 0.89159 0.87865 0.0
H655 H 0.03309 0.76911 0.95901 0.0
H656 H 0.08936 0.8292 0.94841 0.0
H657 H 0.05215 0.78421 0.90258 0.0
H658 H 0.99638 0.72408 0.91313 0.0
H659 H 0.07339 0.8671 0.90789 0.0
H660 H 0.12157 0.77511 0.91557 0.0
H661 H 0.13472 0.73042 0.93124 0.0
H662 H 0.20706 0.82598 0.96168 0.0
H663 H 0.19384 0.87112 0.9463 0.0
C664 C 0.23951 0.97934 0.87295 0.0
C665 C 0.27455 0.00414 0.88091 0.0
C666 C 0.20683 0.94974 0.8807 0.0
C667 C 0.20826 0.94489 0.89662 0.0
C668 C 0.24325 0.96981 0.9046 0.0
C669 C 0.27611 -0.00091 0.89681 0.0
C670 C 0.1739 0.91266 0.90478 0.0
C671 C 0.18 0.88664 0.91395 0.0
C672 C 0.13506 0.90605 0.90287 0.0
C673 C 0.12708 0.93457 0.89468 0.0
C674 C 0.14595 0.97433 0.89927 0.0
C675 C 0.13873 0.00131 0.89145 0.0
C676 C 0.11243 0.98877 0.8791 0.0
C677 C 0.09317 0.94919 0.87458 0.0
C678 C 0.10033 0.92211 0.88235 0.0
C679 C 0.03693 0.7723 0.94669 0.0
C680 C 0.01073 0.74201 0.93687 0.0
C681 C 0.06897 0.80643 0.94067 0.0
C682 C 0.07476 0.81092 0.92474 0.0
C683 C 0.04805 0.78117 0.91491 0.0
C684 C 0.0165 0.74681 0.92093 0.0
C685 C 0.10938 0.84603 0.91824 0.0
C686 C 0.10322 0.8724 0.90941 0.0
C687 C 0.14821 0.85343 0.92072 0.0
C688 C 0.15633 0.82635 0.9299 0.0
C689 C 0.13997 0.7865 0.92569 0.0
C690 C 0.1475 0.76111 0.93449 0.0
C691 C 0.17161 0.77532 0.94747 0.0
C692 C 0.18833 0.81499 0.95164 0.0
C693 C 0.18085 0.84049 0.94288 0.0
H694 H 0.17741 0.75562 0.95428 0.0
H695 H 0.10686 0.00969 0.87307 0.0
H696 H 0.73808 0.62263 0.97132 0.0
H697 H 0.66672 0.5963 0.96957 0.0
H698 H 0.64824 0.5156 0.00658 0.0
H699 H 0.71959 0.54154 0.00826 0.0
H700 H 0.59963 0.47993 0.98093 0.0
H701 H 0.63999 0.59522 0.01355 0.0
H702 H 0.67975 0.66642 0.01918 0.0
H703 H 0.63381 0.6927 0.97891 0.0
H704 H 0.59404 0.62162 0.97298 0.0
H705 H 0.40753 0.40531 0.00599 0.0
H706 H 0.47926 0.44037 0.00398 0.0
H707 H 0.47483 0.52141 0.97152 0.0
H708 H 0.40229 0.48652 0.97383 0.0
H709 H 0.53555 0.55995 0.99081 0.0
H710 H 0.49037 0.44758 0.95903 0.0
H711 H 0.45153 0.37754 0.95157 0.0
H712 H 0.5078 0.3467 0.98691 0.0
H713 H 0.54658 0.41651 0.99475 0.0
C714 C 0.7188 0.59918 0.97905 0.0
C715 C 0.73442 0.58402 0.98991 0.0
C716 C 0.67809 0.5844 0.97811 0.0
C717 C 0.65227 0.55412 0.98798 0.0
C718 C 0.66775 0.53902 0.99886 0.0
C719 C 0.70847 0.55402 0.99989 0.0
C720 C 0.60898 0.53739 0.98682 0.0
C721 C 0.58552 0.49727 0.98324 0.0
C722 C 0.59088 0.56056 0.98908 0.0
C723 C 0.6143 0.60318 0.99277 0.0
C724 C 0.63854 0.61621 0.00586 0.0
C725 C 0.66103 0.65653 0.00911 0.0
C726 C 0.65936 0.68407 0.99939 0.0
C727 C 0.63508 0.67133 0.98642 0.0
C728 C 0.61251 0.63104 0.98313 0.0
C729 C 0.4218 0.43054 0.99838 0.0
C730 C 0.39939 0.44282 0.98984 0.0
C731 C 0.46281 0.45054 0.99722 0.0
C732 C 0.48241 0.48289 0.98729 0.0
C733 C 0.46027 0.49627 0.97915 0.0
C734 C 0.41896 0.4764 0.98046 0.0
C735 C 0.52593 0.50198 0.98546 0.0
C736 C 0.54952 0.54257 0.98837 0.0
C737 C 0.54431 0.47938 0.98226 0.0
C738 C 0.52121 0.4373 0.97755 0.0
C739 C 0.49428 0.42584 0.96529 0.0
C740 C 0.47229 0.38618 0.96098 0.0
C741 C 0.47714 0.35768 0.96878 0.0
C742 C 0.50406 0.36881 0.98088 0.0
C743 C 0.5261 0.40844 0.98525 0.0
H744 H 0.46009 0.32699 0.96542 0.0
H745 H 0.67682 0.71528 0.00192 0.0
H746 H 0.90561 0.41056 0.1465 0.0
H747 H 0.9386 0.48318 0.14578 0.0
H748 H 0.03283 0.4904 0.17388 0.0
H749 H 0.00046 0.4185 0.17453 0.0
H750 H 0.00011 0.5377 0.18404 0.0
H751 H 0.04763 0.50525 0.13765 0.0
H752 H 0.03999 0.47453 0.11224 0.0
H753 H 0.98571 0.53885 0.09493 0.0
H754 H 0.99236 0.5694 0.12034 0.0
H755 H 0.16474 0.72822 0.18085 0.0
H756 H 0.11663 0.65763 0.18036 0.0
H757 H 0.0544 0.67652 0.14337 0.0
H758 H 0.10346 0.74697 0.14352 0.0
H759 H 0.06012 0.61617 0.13689 0.0
H760 H 0.01688 0.65379 0.18127 0.0
H761 H 0.02222 0.68558 0.20628 0.0
H762 H 0.06314 0.61302 0.22708 0.0
H763 H 0.05859 0.58115 0.20215 0.0
C764 C 0.93341 0.42781 0.15246 0.0
C765 C 0.95074 0.40907 0.16044 0.0
C766 C 0.95218 0.4691 0.15202 0.0
C767 C 0.98811 0.49196 0.15977 0.0
C768 C 0.00512 0.47321 0.16784 0.0
C769 C 0.98677 0.4322 0.16809 0.0
C770 C 0.00838 0.53554 0.15972 0.0
C771 C 0.01338 0.55499 0.17376 0.0
C772 C 0.02425 0.55788 0.14618 0.0
C773 C 0.01986 0.53907 0.13098 0.0
C774 C 0.03355 0.51241 0.1285 0.0
C775 C 0.02951 0.49512 0.11407 0.0
C776 C 0.01218 0.50457 0.102 0.0
C777 C 0.99896 0.53142 0.10431 0.0
C778 C 0.00283 0.5487 0.11872 0.0
C779 C 0.14049 0.71728 0.17277 0.0
C780 C 0.13775 0.74291 0.16224 0.0
C781 C 0.11289 0.67699 0.17252 0.0
C782 C 0.08139 0.66173 0.16199 0.0
C783 C 0.07836 0.68751 0.1516 0.0
C784 C 0.10637 0.7277 0.15168 0.0
C785 C 0.05299 0.61864 0.16135 0.0
C786 C 0.04633 0.59918 0.14718 0.0
C787 C 0.03497 0.59629 0.17474 0.0
C788 C 0.03762 0.61525 0.1898 0.0
C789 C 0.02726 0.64478 0.19116 0.0
C790 C 0.03012 0.66279 0.20532 0.0
C791 C 0.04307 0.65137 0.21825 0.0
C792 C 0.05312 0.62184 0.21705 0.0
C793 C 0.05034 0.60375 0.20291 0.0
H794 H 0.04527 0.66536 0.22921 0.0
H795 H 0.00916 0.49121 0.09084 0.0
H796 H 0.42819 0.15094 0.30764 0.0
H797 H 0.45193 0.10415 0.30551 0.0
H798 H 0.39852 0.05314 0.3491 0.0
H799 H 0.37415 0.09965 0.35125 0.0
H800 H 0.47352 0.06583 0.34672 0.0
H801 H 0.35553 0.00595 0.31617 0.0
H802 H 0.3108 0.00441 0.29589 0.0
H803 H 0.39949 0.02857 0.26184 0.0
H804 H 0.44502 0.03087 0.28195 0.0
H805 H 0.50089 0.90308 0.34283 0.0
H806 H 0.46517 0.93927 0.34302 0.0
H807 H 0.51732 0.99236 0.29953 0.0
H808 H 0.55214 0.9549 0.29892 0.0
H809 H 0.44058 0.97663 0.30182 0.0
H810 H 0.55941 0.04031 0.33177 0.0
H811 H 0.60604 0.04394 0.35163 0.0
H812 H 0.51772 0.01521 0.38633 0.0
H813 H 0.47032 0.01075 0.36662 0.0
C814 C 0.42108 0.12956 0.31672 0.0
C815 C 0.39893 0.1289 0.32957 0.0
C816 C 0.43476 0.10285 0.31548 0.0
C817 C 0.42646 0.07478 0.32703 0.0
C818 C 0.40512 0.07451 0.34003 0.0
C819 C 0.39138 0.10125 0.34128 0.0
C820 C 0.44066 0.04616 0.32562 0.0
C821 C 0.46576 0.04585 0.33704 0.0
C822 C 0.43138 0.02089 0.31275 0.0
C823 C 0.40383 0.01892 0.3006 0.0
C824 C 0.36561 0.0112 0.30437 0.0
C825 C 0.34009 0.01016 0.2929 0.0
C826 C 0.35233 0.01649 0.27759 0.0
C827 C 0.39007 0.02372 0.27371 0.0
C828 C 0.41573 0.02485 0.28514 0.0
C829 C 0.50387 0.92139 0.33304 0.0
C830 C 0.52969 0.92627 0.3209 0.0
C831 C 0.48369 0.94243 0.33326 0.0
C832 C 0.48924 0.9691 0.32145 0.0
C833 C 0.51286 0.97212 0.30882 0.0
C834 C 0.53296 0.95092 0.30854 0.0
C835 C 0.47321 0.99621 0.32298 0.0
C836 C 0.448 0.99638 0.31156 0.0
C837 C 0.48259 0.02164 0.33579 0.0
C838 C 0.51119 0.02479 0.3477 0.0
C839 C 0.54984 0.03448 0.34362 0.0
C840 C 0.57642 0.03672 0.35485 0.0
C841 C 0.56482 0.02971 0.37023 0.0
C842 C 0.52664 0.02057 0.37441 0.0
C843 C 0.49991 0.01819 0.36322 0.0
H844 H 0.58544 0.03145 0.3789 0.0
H845 H 0.33255 0.01573 0.26873 0.0
H846 H 0.26746 0.43199 0.51645 0.0
H847 H 0.33923 0.45894 0.5161 0.0
H848 H 0.32612 0.3786 0.47968 0.0
H849 H 0.2544 0.35192 0.47987 0.0
H850 H 0.38197 0.38846 0.50513 0.0
H851 H 0.35151 0.46152 0.46815 0.0
H852 H 0.3204 0.49983 0.45977 0.0
H853 H 0.38516 0.58742 0.49412 0.0
H854 H 0.4162 0.54926 0.50287 0.0
H855 H 0.58738 0.4913 0.48388 0.0
H856 H 0.51472 0.45408 0.48369 0.0
H857 H 0.51289 0.54734 0.50955 0.0
H858 H 0.58482 0.58476 0.50928 0.0
H859 H 0.46296 0.5272 0.48764 0.0
H860 H 0.49212 0.45593 0.52557 0.0
H861 H 0.52222 0.418 0.53552 0.0
H862 H 0.46026 0.3283 0.50157 0.0
H863 H 0.43018 0.36598 0.49128 0.0
C864 C 0.27991 0.41977 0.50854 0.0
C865 C 0.25559 0.39015 0.49811 0.0
C866 C 0.32077 0.43518 0.50832 0.0
C867 C 0.33778 0.42075 0.49783 0.0
C868 C 0.31342 0.39001 0.48786 0.0
C869 C 0.27264 0.37508 0.4879 0.0
C870 C 0.38118 0.43968 0.49659 0.0
C871 C 0.39983 0.41863 0.50113 0.0
C872 C 0.40419 0.47915 0.49161 0.0
C873 C 0.38586 0.50233 0.48627 0.0
C874 C 0.35885 0.48877 0.47401 0.0
C875 C 0.34128 0.51049 0.46917 0.0
C876 C 0.35072 0.54599 0.47643 0.0
C877 C 0.37784 0.55989 0.48852 0.0
C878 C 0.39545 0.53824 0.49342 0.0
C879 C 0.57124 0.5036 0.48952 0.0
C880 C 0.5915 0.54099 0.49643 0.0
C881 C 0.52984 0.48234 0.48948 0.0
C882 C 0.50826 0.49783 0.49667 0.0
C883 C 0.52875 0.53488 0.50381 0.0
C884 C 0.56985 0.55626 0.50364 0.0
C885 C 0.46438 0.47643 0.49653 0.0
C886 C 0.44542 0.49699 0.49162 0.0
C887 C 0.44123 0.43668 0.50138 0.0
C888 C 0.45927 0.41399 0.50755 0.0
C889 C 0.48517 0.42827 0.52015 0.0
C890 C 0.50218 0.4068 0.52586 0.0
C891 C 0.49326 0.37083 0.51915 0.0
C892 C 0.46721 0.35621 0.50674 0.0
C893 C 0.45015 0.3776 0.50096 0.0
H894 H 0.50645 0.35424 0.5236 0.0
H895 H 0.33709 0.56277 0.47267 0.0
H896 H 0.8548 0.28251 0.63469 0.0
H897 H 0.90356 0.35263 0.63303 0.0
H898 H 0.94735 0.34795 0.67795 0.0
H899 H 0.89878 0.27762 0.67966 0.0
H900 H 0.93575 0.40975 0.67528 0.0
H901 H -0.00021 0.35442 0.64574 0.0
H902 H 0.00497 0.31338 0.62541 0.0
H903 H 0.98556 0.38055 0.59106 0.0
H904 H 0.97967 0.42165 0.6112 0.0
H905 H 0.09821 0.60023 0.67493 0.0
H906 H 0.0629 0.52836 0.67411 0.0
H907 H 0.0141 0.53064 0.63 0.0
H908 H 0.05067 0.6029 0.63043 0.0
H909 H 0.03062 0.46978 0.6322 0.0
H910 H 0.96261 0.52198 0.6614 0.0
H911 H 0.95653 0.56315 0.68144 0.0
H912 H 0.98193 0.50112 0.71616 0.0
H913 H 0.98881 0.45998 0.69628 0.0
C914 C 0.87511 0.29619 0.64414 0.0
C915 C 0.87288 0.27433 0.65731 0.0
C916 C 0.90299 0.33634 0.64317 0.0
C917 C 0.92941 0.35542 0.65529 0.0
C918 C 0.92725 0.33378 0.66846 0.0
C919 C 0.89933 0.29362 0.66945 0.0
C920 C 0.95819 0.39832 0.65449 0.0
C921 C 0.95696 0.42275 0.666 0.0
C922 C 0.98511 0.4154 0.64215 0.0
C923 C 0.98894 0.39091 0.63 0.0
C924 C 0.99633 0.36026 0.63386 0.0
C925 C -0.00056 0.33701 0.62236 0.0
C926 C 0.99551 0.34429 0.60695 0.0
C927 C 0.98856 0.37492 0.603 0.0
C928 C 0.98537 0.39823 0.61445 0.0
C929 C 0.08106 0.58563 0.6648 0.0
C930 C 0.07702 0.60741 0.65279 0.0
C931 C 0.06056 0.54446 0.66443 0.0
C932 C 0.03528 0.52421 0.65214 0.0
C933 C 0.03327 0.54573 0.63964 0.0
C934 C 0.05392 0.587 0.63997 0.0
C935 C 0.00826 0.48097 0.65304 0.0
C936 C 0.00963 0.4566 0.64154 0.0
C937 C 0.98126 0.46383 0.66535 0.0
C938 C 0.97663 0.48818 0.67734 0.0
C939 C 0.96718 0.51731 0.6733 0.0
C940 C 0.96356 0.54062 0.68463 0.0
C941 C 0.96894 0.53482 0.70006 0.0
C942 C 0.97784 0.50561 0.7042 0.0
C943 C 0.98159 0.48228 0.69291 0.0
H944 H 0.96614 0.55291 0.70881 0.0
H945 H 0.99792 0.32625 0.59807 0.0
H946 H 0.62593 0.88919 0.84732 0.0
H947 H 0.60581 0.93919 0.8464 0.0
H948 H 0.54939 0.89361 0.80269 0.0
H949 H 0.56965 0.84385 0.80352 0.0
H950 H 0.58957 0.97201 0.80218 0.0
H951 H 0.49585 0.87185 0.83606 0.0
H952 H 0.4746 0.82729 0.85843 0.0
H953 H 0.53142 0.92698 0.8887 0.0
H954 H 0.55347 0.97213 0.86647 0.0
H955 H 0.45022 0.04035 0.80119 0.0
H956 H 0.48772 0.00561 0.80037 0.0
H957 H 0.54572 0.0617 0.84272 0.0
H958 H 0.50779 0.09577 0.8438 0.0
H959 H 0.51015 0.98252 0.84438 0.0
H960 H 0.59655 0.08293 0.80952 0.0
H961 H 0.61605 0.12562 0.78664 0.0
H962 H 0.57068 0.02372 0.75745 0.0
H963 H 0.55011 0.98031 0.78014 0.0
C964 C 0.60895 0.88965 0.83759 0.0
C965 C 0.59924 0.86251 0.82552 0.0
C966 C 0.59759 0.91829 0.83705 0.0
C967 C 0.57582 0.91991 0.82453 0.0
C968 C 0.56633 0.89302 0.81242 0.0
C969 C 0.57792 0.86459 0.81291 0.0
C970 C 0.56225 0.94914 0.82412 0.0
C971 C 0.57186 0.97412 0.81132 0.0
C972 C 0.53996 0.95243 0.83622 0.0
C973 C 0.52668 0.92533 0.8496 0.0
C974 C 0.50408 0.88425 0.84748 0.0
C975 C 0.49185 0.85889 0.86013 0.0
C976 C 0.50176 0.87428 0.87497 0.0
C977 C 0.52383 0.91509 0.87719 0.0
C978 C 0.53619 0.94058 0.86458 0.0
C979 C 0.47146 0.04576 0.81019 0.0
C980 C 0.47587 0.07063 0.8226 0.0
C981 C 0.49309 0.02615 0.80964 0.0
C982 C 0.51952 0.03112 0.82149 0.0
C983 C 0.52552 0.05753 0.83346 0.0
C984 C 0.50402 0.07722 0.83399 0.0
C985 C 0.53718 0.00534 0.82238 0.0
C986 C 0.52819 0.98081 0.83528 0.0
C987 C 0.55961 0.00223 0.81027 0.0
C988 C 0.57133 0.0283 0.79657 0.0
C989 C 0.59023 0.06955 0.79823 0.0
C990 C 0.60158 0.09391 0.78528 0.0
C991 C 0.59448 0.0774 0.7706 0.0
C992 C 0.57606 0.03648 0.76883 0.0
C993 C 0.56454 0.01199 0.78174 0.0
H994 H 0.60337 0.09631 0.76059 0.0
H995 H 0.49225 0.8546 0.88476 0.0
H996 H 0.43916 0.28002 0.84268 0.0
H997 H 0.45785 0.34955 0.84329 0.0
H998 H 0.40435 0.33774 0.79886 0.0
H999 H 0.38555 0.26789 0.79819 0.0
H1000 H 0.47503 0.40311 0.80038 0.0
H1001 H 0.35882 0.34359 0.83142 0.0
H1002 H 0.3152 0.30144 0.85216 0.0
H1003 H 0.40248 0.37262 0.88568 0.0
H1004 H 0.44692 0.41486 0.86513 0.0
H1005 H 0.50057 0.59338 0.80289 0.0
H1006 H 0.46299 0.52133 0.80343 0.0
H1007 H 0.52018 0.52145 0.84576 0.0
H1008 H 0.55729 0.5937 0.84551 0.0
H1009 H 0.44111 0.46103 0.84448 0.0
H1010 H 0.55924 0.51526 0.81335 0.0
H1011 H 0.60363 0.55725 0.79275 0.0
H1012 H 0.51212 0.495 0.75945 0.0
H1013 H 0.46695 0.45304 0.77992 0.0
C1014 C 0.43105 0.29209 0.8331 0.0
C1015 C 0.41062 0.26838 0.82043 0.0
C1016 C 0.44172 0.33184 0.83347 0.0
C1017 C 0.43182 0.34863 0.82126 0.0
C1018 C 0.41209 0.32528 0.80845 0.0
C1019 C 0.40155 0.28547 0.80804 0.0
C1020 C 0.44317 0.39087 0.82173 0.0
C1021 C 0.46691 0.41559 0.80987 0.0
C1022 C 0.43321 0.40728 0.83428 0.0
C1023 C 0.40634 0.38224 0.84671 0.0
C1024 C 0.36884 0.35012 0.84321 0.0
C1025 C 0.34395 0.32622 0.85493 0.0
C1026 C 0.35609 0.3343 0.87023 0.0
C1027 C 0.39312 0.36638 0.87383 0.0
C1028 C 0.41816 0.39034 0.86214 0.0
C1029 C 0.50421 0.57818 0.81259 0.0
C1030 C 0.53218 0.5992 0.82409 0.0
C1031 C 0.48292 0.53699 0.81281 0.0
C1032 C 0.48936 0.51615 0.82449 0.0
C1033 C 0.51495 0.53704 0.83661 0.0
C1034 C 0.5363 0.57825 0.8364 0.0
C1035 C 0.47302 0.47303 0.82319 0.0
C1036 C 0.44859 0.44828 0.8349 0.0
C1037 C 0.48231 0.45648 0.81052 0.0
C1038 C 0.50959 0.48133 0.79818 0.0
C1039 C 0.5485 0.51073 0.80165 0.0
C1040 C 0.57381 0.5345 0.79 0.0
C1041 C 0.56067 0.52887 0.77481 0.0
C1042 C 0.52223 0.49937 0.77123 0.0
C1043 C 0.49676 0.47559 0.78285 0.0
H1044 H 0.5803 0.54731 0.7658 0.0
H1045 H 0.33679 0.31574 0.87929 0.0
H1046 H 0.00061 0.57971 0.97217 0.0
H1047 H 0.03169 0.53912 0.97108 0.0
H1048 H 0.92962 0.44318 0.99276 0.0
H1049 H 0.89811 0.48415 0.99402 0.0
H1050 H 0.00497 0.45875 0.00491 0.0
H1051 H 0.93813 0.43431 0.95675 0.0
H1052 H 0.91803 0.45264 0.93273 0.0
H1053 H 0.03915 0.5179 0.91825 0.0
H1054 H 0.06007 0.50047 0.9423 0.0
H1055 H 0.09038 0.33937 0.99194 0.0
H1056 H 0.04122 0.36071 0.99142 0.0
H1057 H 0.11854 0.45932 0.96262 0.0
H1058 H 0.16683 0.43663 0.96259 0.0
H1059 H 0.04565 0.43281 0.95425 0.0
H1060 H 0.11355 0.46545 0.00321 0.0
H1061 H 0.13585 0.44896 0.02714 0.0
H1062 H 0.01535 0.37113 0.0403 0.0
H1063 H 0.99232 0.38674 0.01633 0.0
C1064 C 0.98489 0.55016 0.9769 0.0
C1065 C 0.94704 0.53518 0.9833 0.0
C1066 C 0.00257 0.5269 0.97614 0.0
C1067 C 0.98281 0.48811 0.98173 0.0
C1068 C 0.94524 0.47307 0.98836 0.0
C1069 C 0.92727 0.49636 0.98901 0.0
C1070 C 0.00188 0.46372 0.98041 0.0
C1071 C 0.01317 0.45225 0.99385 0.0
C1072 C 0.01317 0.45606 0.96596 0.0
C1073 C 0.00068 0.46626 0.95139 0.0
C1074 C 0.96052 0.45279 0.94849 0.0
C1075 C 0.94897 0.46299 0.93486 0.0
C1076 C 0.9773 0.48647 0.92398 0.0
C1077 C 0.01724 0.49972 0.92669 0.0
C1078 C 0.02895 0.48964 0.94031 0.0
C1079 C 0.09644 0.36526 0.98534 0.0
C1080 C 0.13233 0.38668 0.97741 0.0
C1081 C 0.06853 0.37755 0.9851 0.0
C1082 C 0.07663 0.41225 0.97734 0.0
C1083 C 0.11171 0.43256 0.96877 0.0
C1084 C 0.13925 0.41969 0.96872 0.0
C1085 C 0.04972 0.42862 0.97876 0.0
C1086 C 0.03697 0.43866 0.96533 0.0
C1087 C 0.03744 0.43529 0.99324 0.0
C1088 C 0.05123 0.42696 0.0079 0.0
C1089 C 0.09181 0.44473 0.01119 0.0
C1090 C 0.10458 0.43552 0.02475 0.0
C1091 C 0.07703 0.40891 0.03521 0.0
C1092 C 0.03664 0.39167 0.03217 0.0
C1093 C 0.02371 0.40071 0.01861 0.0
H1094 H 0.08698 0.40167 0.04567 0.0
H1095 H 0.96831 0.49434 0.91343 0.0
H1096 H 0.40903 0.97887 0.18048 0.0
H1097 H 0.48127 0.01611 0.18045 0.0
H1098 H 0.48286 0.94809 0.14178 0.0
H1099 H 0.41092 0.91192 0.14131 0.0
H1100 H 0.54347 0.00289 0.18217 0.0
H1101 H 0.54862 0.01126 0.11585 0.0
H1102 H 0.50544 0.00649 0.09431 0.0
H1103 H 0.44341 0.0454 0.12371 0.0
H1104 H 0.4866 0.051 0.14534 0.0
H1105 H 0.74481 0.10023 0.16148 0.0
H1106 H 0.67408 0.05168 0.16232 0.0
H1107 H 0.64799 0.13963 0.14496 0.0
H1108 H 0.71898 0.18712 0.14316 0.0
H1109 H 0.59903 0.07427 0.13321 0.0
H1110 H 0.64447 0.11407 0.18508 0.0
H1111 H 0.68807 0.12451 0.2072 0.0
H1112 H 0.64828 0.00046 0.20861 0.0
H1113 H 0.60481 0.98935 0.18638 0.0
C1114 C 0.42476 0.97149 0.17209 0.0
C1115 C 0.40411 0.94278 0.16076 0.0
C1116 C 0.46605 0.99258 0.17217 0.0
C1117 C 0.48735 0.98533 0.16093 0.0
C1118 C 0.46692 0.95448 0.15043 0.0
C1119 C 0.4257 0.93355 0.15028 0.0
C1120 C 0.53036 0.01263 0.15913 0.0
C1121 C 0.55573 0.01841 0.17147 0.0
C1122 C 0.54616 0.03358 0.14527 0.0
C1123 C 0.52056 0.0311 0.13224 0.0
C1124 C 0.52587 0.01895 0.11769 0.0
C1125 C 0.50139 0.01609 0.10547 0.0
C1126 C 0.47161 0.0255 0.10766 0.0
C1127 C 0.46639 0.03798 0.12205 0.0
C1128 C 0.49084 0.04099 0.13429 0.0
C1129 C 0.72374 0.10872 0.15766 0.0
C1130 C 0.73684 0.1471 0.1523 0.0
C1131 C 0.68344 0.08123 0.15826 0.0
C1132 C 0.65553 0.09225 0.15412 0.0
C1133 C 0.66885 0.13039 0.14827 0.0
C1134 C 0.70925 0.1575 0.14724 0.0
C1135 C 0.61256 0.06454 0.15622 0.0
C1136 C 0.58703 0.05866 0.14392 0.0
C1137 C 0.59659 0.04448 0.17028 0.0
C1138 C 0.62159 0.05092 0.184 0.0
C1139 C 0.64506 0.08903 0.1901 0.0
C1140 C 0.66978 0.09507 0.20265 0.0
C1141 C 0.67098 0.06317 0.20929 0.0
C1142 C 0.64731 0.02513 0.20345 0.0
C1143 C 0.6226 0.01894 0.19089 0.0
H1144 H 0.69018 0.06791 0.21897 0.0
H1145 H 0.45265 0.02319 0.09819 0.0
H1146 H 0.56029 0.70357 0.30324 0.0
H1147 H 0.53494 0.63319 0.30712 0.0
H1148 H 0.58648 0.65656 0.35232 0.0
H1149 H 0.61315 0.72708 0.34844 0.0
H1150 H 0.57314 0.58981 0.31424 0.0
H1151 H 0.51538 0.5818 0.3755 0.0
H1152 H 0.49345 0.618 0.3923 0.0
H1153 H 0.45647 0.65709 0.35288 0.0
H1154 H 0.47766 0.62069 0.33589 0.0
H1155 H 0.49634 0.39178 0.34058 0.0
H1156 H 0.53328 0.46409 0.34175 0.0
H1157 H 0.42591 0.46668 0.33328 0.0
H1158 H 0.38912 0.39511 0.33174 0.0
H1159 H 0.47211 0.52139 0.35475 0.0
H1160 H 0.48605 0.47712 0.30413 0.0
H1161 H 0.50501 0.44027 0.28638 0.0
H1162 H 0.62466 0.50513 0.30257 0.0
H1163 H 0.60624 0.54198 0.32058 0.0
C1164 C 0.56686 0.69402 0.31392 0.0
C1165 C 0.58854 0.72131 0.32556 0.0
C1166 C 0.55226 0.65368 0.31612 0.0
C1167 C 0.55865 0.63976 0.33003 0.0
C1168 C 0.58092 0.66677 0.34155 0.0
C1169 C 0.59586 0.70713 0.33933 0.0
C1170 C 0.5405 0.59681 0.3327 0.0
C1171 C 0.55132 0.57487 0.32317 0.0
C1172 C 0.51196 0.57741 0.34433 0.0
C1173 C 0.49856 0.59893 0.35443 0.0
C1174 C 0.50247 0.59804 0.37044 0.0
C1175 C 0.49017 0.61859 0.37999 0.0
C1176 C 0.47373 0.63996 0.37366 0.0
C1177 C 0.46938 0.64068 0.35777 0.0
C1178 C 0.48158 0.62014 0.34817 0.0
C1179 C 0.48057 0.40775 0.33908 0.0
C1180 C 0.43972 0.3875 0.33604 0.0
C1181 C 0.50169 0.44902 0.33981 0.0
C1182 C 0.48232 0.47068 0.3375 0.0
C1183 C 0.44137 0.45052 0.3352 0.0
C1184 C 0.42033 0.40945 0.3344 0.0
C1185 C 0.50463 0.51427 0.33625 0.0
C1186 C 0.49456 0.5364 0.34602 0.0
C1187 C 0.53357 0.53379 0.32474 0.0
C1188 C 0.54469 0.51197 0.3138 0.0
C1189 C 0.51634 0.48332 0.30397 0.0
C1190 C 0.52699 0.46246 0.29386 0.0
C1191 C 0.56599 0.47028 0.29338 0.0
C1192 C 0.59445 0.49906 0.30298 0.0
C1193 C 0.58392 0.51994 0.31314 0.0
H1194 H 0.57418 0.4541 0.28554 0.0
H1195 H 0.46426 0.65587 0.38107 0.0
H1196 H 0.88354 0.61957 0.51477 0.0
H1197 H 0.9269 0.59151 0.518 0.0
H1198 H 0.86596 0.50944 0.48123 0.0
H1199 H 0.82242 0.53708 0.47805 0.0
H1200 H 0.87697 0.47437 0.50744 0.0
H1201 H 0.95343 0.58976 0.47486 0.0
H1202 H 0.98643 0.66112 0.46939 0.0
H1203 H 0.05945 0.68509 0.50928 0.0
H1204 H 0.0264 0.61388 0.51513 0.0
H1205 H 0.99003 0.39711 0.48013 0.0
H1206 H 0.95393 0.43226 0.48372 0.0
H1207 H 0.04342 0.51236 0.51521 0.0
H1208 H 0.08053 0.47743 0.51126 0.0
H1209 H 0.02101 0.55185 0.49712 0.0
H1210 H 0.95305 0.43913 0.52857 0.0
H1211 H 0.92067 0.36885 0.53579 0.0
H1212 H 0.83222 0.34074 0.50123 0.0
H1213 H 0.8644 0.41078 0.49363 0.0
C1214 C 0.87926 0.59537 0.50745 0.0
C1215 C 0.84958 0.58049 0.49614 0.0
C1216 C 0.90419 0.57957 0.50925 0.0
C1217 C 0.89968 0.54851 0.49981 0.0
C1218 C 0.8699 0.53343 0.48862 0.0
C1219 C 0.84525 0.54941 0.48673 0.0
C1220 C 0.92577 0.53136 0.50148 0.0
C1221 C 0.90843 0.49118 0.50511 0.0
C1222 C 0.96708 0.55385 0.49916 0.0
C1223 C 0.98716 0.59656 0.49552 0.0
C1224 C 0.9763 0.61028 0.48253 0.0
C1225 C 0.99504 0.65069 0.47935 0.0
C1226 C 0.02492 0.67764 0.48901 0.0
C1227 C 0.03624 0.6642 0.50183 0.0
C1228 C 0.01752 0.62383 0.50508 0.0
C1229 C 0.0019 0.42202 0.48792 0.0
C1230 C 0.03771 0.43415 0.49564 0.0
C1231 C 0.9812 0.44208 0.49 0.0
C1232 C 0.99535 0.47432 0.50007 0.0
C1233 C 0.03173 0.4873 0.5075 0.0
C1234 C 0.05286 0.4674 0.50526 0.0
C1235 C 0.97192 0.4943 0.50248 0.0
C1236 C 0.98969 0.53503 0.4997 0.0
C1237 C 0.93102 0.47247 0.5059 0.0
C1238 C 0.9113 0.43025 0.51048 0.0
C1239 C 0.92683 0.41794 0.52244 0.0
C1240 C 0.9085 0.37814 0.52661 0.0
C1241 C 0.87444 0.35034 0.51896 0.0
C1242 C 0.85861 0.36231 0.50714 0.0
C1243 C 0.87685 0.40208 0.50292 0.0
H1244 H 0.86029 0.31954 0.5222 0.0
H1245 H 0.03937 0.70892 0.48654 0.0
H1246 H 0.2832 0.86675 0.68107 0.0
H1247 H 0.35227 0.91896 0.68291 0.0
H1248 H 0.35078 0.94767 0.63521 0.0
H1249 H 0.28179 0.89586 0.63331 0.0
H1250 H 0.413 0.94028 0.64128 0.0
H1251 H 0.34974 0.00437 0.66397 0.0
H1252 H 0.30726 0.01526 0.68182 0.0
H1253 H 0.381 0.02222 0.71956 0.0
H1254 H 0.42267 0.00905 0.7021 0.0
H1255 H 0.60023 0.10736 0.63862 0.0
H1256 H 0.52819 0.07329 0.63985 0.0
H1257 H 0.53114 0.0281 0.68466 0.0
H1258 H 0.60348 0.06248 0.68358 0.0
H1259 H 0.46827 0.04768 0.68001 0.0
H1260 H 0.52451 0.97365 0.65706 0.0
H1261 H 0.56832 0.96566 0.63885 0.0
H1262 H 0.50786 0.98244 0.60101 0.0
H1263 H 0.46414 0.99128 0.61904 0.0
C1264 C 0.29737 0.88448 0.67102 0.0
C1265 C 0.27692 0.87689 0.65701 0.0
C1266 C 0.33689 0.91435 0.6721 0.0
C1267 C 0.35663 0.93738 0.65922 0.0
C1268 C 0.33617 0.93018 0.64529 0.0
C1269 C 0.29675 0.90035 0.64419 0.0
C1270 C 0.3992 0.96749 0.65998 0.0
C1271 C 0.42484 0.96406 0.64963 0.0
C1272 C 0.41484 0.99819 0.67105 0.0
C1273 C 0.38907 0.00503 0.68169 0.0
C1274 C 0.35647 0.00732 0.67611 0.0
C1275 C 0.33245 0.01384 0.68618 0.0
C1276 C 0.34114 0.01895 0.70185 0.0
C1277 C 0.37394 0.01764 0.70746 0.0
C1278 C 0.39767 0.01046 0.69748 0.0
C1279 C 0.5857 0.09139 0.64898 0.0
C1280 C 0.60748 0.0873 0.66096 0.0
C1281 C 0.54451 0.0718 0.64963 0.0
C1282 C 0.52446 0.04788 0.66227 0.0
C1283 C 0.54615 0.04644 0.67481 0.0
C1284 C 0.5874 0.06584 0.67414 0.0
C1285 C 0.48143 0.02008 0.66138 0.0
C1286 C 0.45597 0.02388 0.67169 0.0
C1287 C 0.46568 0.98973 0.65025 0.0
C1288 C 0.49135 0.98354 0.6394 0.0
C1289 C 0.52075 0.97592 0.64486 0.0
C1290 C 0.54555 0.97122 0.63457 0.0
C1291 C 0.54095 0.97364 0.61878 0.0
C1292 C 0.51143 0.98064 0.61325 0.0
C1293 C 0.48664 0.98549 0.6235 0.0
H1294 H 0.56019 0.97002 0.61083 0.0
H1295 H 0.32263 0.02418 0.70962 0.0
H1296 H 0.36287 0.18574 0.89472 0.0
H1297 H 0.32319 0.19575 0.91376 0.0
H1298 H 0.22858 0.15935 0.88102 0.0
H1299 H 0.26826 0.14868 0.86169 0.0
H1300 H 0.24825 0.23046 0.89977 0.0
H1301 H 0.21602 0.09656 0.90465 0.0
H1302 H 0.23171 0.04304 0.9062 0.0
H1303 H 0.29171 0.08924 0.94898 0.0
H1304 H 0.27797 0.14417 0.94735 0.0
H1305 H 0.13606 0.237 0.96253 0.0
H1306 H 0.14998 0.20611 0.94079 0.0
H1307 H 0.25461 0.22162 0.96371 0.0
H1308 H 0.24082 0.25224 0.98547 0.0
H1309 H 0.21602 0.15106 0.94757 0.0
H1310 H 0.26179 0.29002 0.93982 0.0
H1311 H 0.25255 0.34785 0.93826 0.0
H1312 H 0.17018 0.2935 0.90126 0.0
H1313 H 0.17837 0.23495 0.90282 0.0
C1314 C 0.33376 0.18007 0.89145 0.0
C1315 C 0.31862 0.16617 0.8767 0.0
C1316 C 0.31111 0.18577 0.90239 0.0
C1317 C 0.27289 0.17788 0.89883 0.0
C1318 C 0.25804 0.16546 0.88395 0.0
C1319 C 0.28066 0.15932 0.87297 0.0
C1320 C 0.2486 0.18164 0.91101 0.0
C1321 C 0.24016 0.21243 0.91006 0.0
C1322 C 0.23884 0.15848 0.92452 0.0
C1323 C 0.24611 0.12472 0.92582 0.0
C1324 C 0.23282 0.09553 0.91434 0.0
C1325 C 0.24137 0.06491 0.91523 0.0
C1326 C 0.26251 0.0626 0.92772 0.0
C1327 C 0.27527 0.09103 0.93932 0.0
C1328 C 0.26719 0.122 0.93839 0.0
C1329 C 0.16147 0.23292 0.96311 0.0
C1330 C 0.18767 0.24754 0.97562 0.0
C1331 C 0.16945 0.2154 0.95065 0.0
C1332 C 0.20361 0.2121 0.95056 0.0
C1333 C 0.22813 0.22397 0.96353 0.0
C1334 C 0.22034 0.24168 0.97592 0.0
C1335 C 0.21636 0.20037 0.93645 0.0
C1336 C 0.22292 0.16826 0.93709 0.0
C1337 C 0.22468 0.22248 0.9227 0.0
C1338 C 0.22027 0.25791 0.92157 0.0
C1339 C 0.24147 0.29028 0.93143 0.0
C1340 C 0.23645 0.32319 0.93055 0.0
C1341 C 0.2107 0.3243 0.9197 0.0
C1342 C 0.19003 0.29255 0.90968 0.0
C1343 C 0.19483 0.25948 0.91057 0.0
H1344 H 0.20684 0.3498 0.91903 0.0
H1345 H 0.26905 0.03884 0.92842 0.0
H1346 H 0.10732 0.34391 0.03371 0.0
H1347 H 0.05749 0.31249 0.0539 0.0
H1348 H 0.10765 0.23958 0.06601 0.0
H1349 H 0.15517 0.26878 0.04495 0.0
H1350 H 0.03524 0.1994 0.07142 0.0
H1351 H 0.13259 0.33291 0.08464 0.0
H1352 H 0.1715 0.40494 0.08066 0.0
H1353 H 0.06491 0.41123 0.08004 0.0
H1354 H 0.02535 0.33915 0.08386 0.0
H1355 H 0.98323 0.24455 0.15408 0.0
H1356 H 0.02688 0.26028 0.13191 0.0
H1357 H 0.92891 0.17455 0.10484 0.0
H1358 H 0.88566 0.15752 0.12719 0.0
H1359 H 0.02601 0.29314 0.10717 0.0
H1360 H 0.95987 0.14429 0.07422 0.0
H1361 H 0.92836 0.07306 0.07981 0.0
H1362 H 0.98585 0.09864 0.12371 0.0
H1363 H 0.01809 0.16997 0.1183 0.0
C1364 C 0.10684 0.32043 0.04048 0.0
C1365 C 0.13475 0.30855 0.03789 0.0
C1366 C 0.07873 0.30278 0.05212 0.0
C1367 C 0.07951 0.2745 0.06189 0.0
C1368 C 0.10637 0.26137 0.05874 0.0
C1369 C 0.13354 0.27802 0.04672 0.0
C1370 C 0.05438 0.26054 0.07594 0.0
C1371 C 0.0332 0.21992 0.07922 0.0
C1372 C 0.05226 0.28721 0.0864 0.0
C1373 C 0.07603 0.33064 0.08442 0.0
C1374 C 0.11747 0.34967 0.08362 0.0
C1375 C 0.13963 0.39048 0.08139 0.0
C1376 C 0.12068 0.41263 0.08008 0.0
C1377 C 0.07954 0.39403 0.08106 0.0
C1378 C 0.05724 0.35321 0.08327 0.0
C1379 C 0.97126 0.22843 0.14349 0.0
C1380 C 0.93109 0.19973 0.14238 0.0
C1381 C 0.99616 0.23759 0.13078 0.0
C1382 C 0.98134 0.21866 0.11663 0.0
C1383 C 0.94139 0.1891 0.11565 0.0
C1384 C 0.91662 0.17939 0.12846 0.0
C1385 C 0.00699 0.23197 0.10272 0.0
C1386 C 0.02808 0.27254 0.09941 0.0
C1387 C 0.01011 0.20535 0.09257 0.0
C1388 C 0.99105 0.16249 0.0959 0.0
C1389 C 0.96588 0.13471 0.08504 0.0
C1390 C 0.94788 0.09432 0.08818 0.0
C1391 C 0.95499 0.08134 0.10213 0.0
C1392 C 0.98023 0.10873 0.11294 0.0
C1393 C 0.99833 0.14915 0.10985 0.0
H1394 H 0.94101 0.05006 0.10454 0.0
H1395 H 0.13788 0.44421 0.07831 0.0
H1396 H 0.77699 0.9669 0.31841 0.0
H1397 H 0.80357 0.01229 0.29652 0.0
H1398 H 0.71294 0.92419 0.2674 0.0
H1399 H 0.68832 0.87822 0.28905 0.0
H1400 H 0.77335 0.96328 0.25077 0.0
H1401 H 0.70339 0.99856 0.28614 0.0
H1402 H 0.68716 0.01552 0.31133 0.0
H1403 H 0.80172 0.11959 0.31335 0.0
H1404 H 0.81902 0.10276 0.28832 0.0
H1405 H 0.77538 0.15185 0.21756 0.0
H1406 H 0.75438 0.09868 0.23627 0.0
H1407 H 0.85182 0.0825 0.22298 0.0
H1408 H 0.87199 0.13488 0.20376 0.0
H1409 H 0.7868 0.0944 0.26048 0.0
H1410 H 0.83182 0.98953 0.23031 0.0
H1411 H 0.83446 0.96706 0.2041 0.0
H1412 H 0.74554 0.99383 0.18947 0.0
H1413 H 0.74197 0.01593 0.21561 0.0
C1414 C 0.76376 0.95703 0.30718 0.0
C1415 C 0.73097 0.91925 0.30526 0.0
C1416 C 0.77857 0.983 0.29473 0.0
C1417 C 0.75967 0.97208 0.28035 0.0
C1418 C 0.72809 0.93343 0.27833 0.0
C1419 C 0.71396 0.90718 0.29068 0.0
C1420 C 0.77046 0.00166 0.26783 0.0
C1421 C 0.7765 0.99203 0.25291 0.0
C1422 C 0.77308 0.03868 0.27043 0.0
C1423 C 0.76267 0.04916 0.28543 0.0
C1424 C 0.72524 0.0249 0.29201 0.0
C1425 C 0.71587 0.03445 0.30627 0.0
C1426 C 0.74349 0.06848 0.31398 0.0
C1427 C 0.78047 0.09311 0.30741 0.0
C1428 C 0.79008 0.08358 0.29319 0.0
C1429 C 0.79203 0.13659 0.2185 0.0
C1430 C 0.82532 0.14745 0.20924 0.0
C1431 C 0.78009 0.10628 0.22924 0.0
C1432 C 0.80143 0.08643 0.2311 0.0
C1433 C 0.83439 0.09682 0.22163 0.0
C1434 C 0.84597 0.12678 0.21066 0.0
C1435 C 0.79008 0.05622 0.24341 0.0
C1436 C 0.78392 0.06576 0.25832 0.0
C1437 C 0.78528 0.0184 0.24061 0.0
C1438 C 0.787 0.00481 0.22489 0.0
C1439 C 0.81275 0.9905 0.22151 0.0
C1440 C 0.81442 0.97784 0.20666 0.0
C1441 C 0.79029 0.97915 0.19511 0.0
C1442 C 0.76433 0.99298 0.1984 0.0
C1443 C 0.76252 0.00563 0.21323 0.0
H1444 H 0.79165 0.96936 0.18363 0.0
H1445 H 0.73619 0.07583 0.32502 0.0
H1446 H 0.74515 0.87606 0.36654 0.0
H1447 H 0.78154 0.86328 0.38662 0.0
H1448 H 0.6711 0.78043 0.40806 0.0
H1449 H 0.63512 0.79403 0.3885 0.0
H1450 H 0.71888 0.8255 0.42895 0.0
H1451 H 0.7294 0.75277 0.38588 0.0
H1452 H 0.74837 0.74544 0.35961 0.0
H1453 H 0.86984 0.82833 0.36971 0.0
H1454 H 0.85147 0.8365 0.396 0.0
H1455 H 0.74026 0.68745 0.47048 0.0
H1456 H 0.7295 0.72034 0.44899 0.0
H1457 H 0.85186 0.81179 0.45025 0.0
H1458 H 0.86294 0.77902 0.47231 0.0
H1459 H 0.81333 0.7783 0.41879 0.0
H1460 H 0.79831 0.83754 0.46482 0.0
H1461 H 0.77386 0.83304 0.49124 0.0
H1462 H 0.6542 0.76679 0.47521 0.0
H1463 H 0.67791 0.76975 0.44875 0.0
C1464 C 0.72879 0.8549 0.37549 0.0
C1465 C 0.68733 0.83611 0.376 0.0
C1466 C 0.74956 0.84761 0.38696 0.0
C1467 C 0.7291 0.82087 0.3989 0.0
C1468 C 0.68766 0.80151 0.39911 0.0
C1469 C 0.66707 0.80919 0.38786 0.0
C1470 C 0.75006 0.81291 0.41144 0.0
C1471 C 0.73962 0.81532 0.42667 0.0
C1472 C 0.77797 0.80058 0.40859 0.0
C1473 C 0.78901 0.79564 0.39282 0.0
C1474 C 0.76011 0.76967 0.38245 0.0
C1475 C 0.77076 0.76532 0.36757 0.0
C1476 C 0.81027 0.78651 0.36297 0.0
C1477 C 0.83924 0.81201 0.37327 0.0
C1478 C 0.82873 0.8165 0.38816 0.0
C1479 C 0.76495 0.71471 0.46639 0.0
C1480 C 0.80223 0.73116 0.47343 0.0
C1481 C 0.7588 0.73325 0.45394 0.0
C1482 C 0.78976 0.76864 0.44816 0.0
C1483 C 0.8276 0.78445 0.45461 0.0
C1484 C 0.83381 0.76583 0.46722 0.0
C1485 C 0.7809 0.78963 0.43606 0.0
C1486 C 0.79355 0.78969 0.421 0.0
C1487 C 0.75438 0.80355 0.439 0.0
C1488 C 0.73996 0.80371 0.45478 0.0
C1489 C 0.76678 0.82186 0.46692 0.0
C1490 C 0.75304 0.8195 0.48192 0.0
C1491 C 0.7125 0.79957 0.48491 0.0
C1492 C 0.6856 0.78218 0.47288 0.0
C1493 C 0.69918 0.78418 0.45788 0.0
H1494 H 0.70192 0.79761 0.49654 0.0
H1495 H 0.81846 0.7831 0.35145 0.0
H1496 H 0.88485 0.7395 0.52804 0.0
H1497 H 0.93932 0.7774 0.5461 0.0
H1498 H 0.87353 0.69422 0.58199 0.0
H1499 H 0.81954 0.6567 0.56426 0.0
H1500 H 0.90539 0.76976 0.59188 0.0
H1501 H 0.94648 0.68988 0.56314 0.0
H1502 H 0.96328 0.66743 0.53931 0.0
H1503 H 0.05639 0.78568 0.53023 0.0
H1504 H 0.03972 0.80894 0.55389 0.0
H1505 H 0.02849 0.76093 0.64785 0.0
H1506 H 0.98408 0.75017 0.62643 0.0
H1507 H 0.07602 0.85269 0.60344 0.0
H1508 H 0.12096 0.86384 0.62502 0.0
H1509 H 0.03785 0.78403 0.58463 0.0
H1510 H 0.00269 0.86024 0.61672 0.0
H1511 H 0.98476 0.88009 0.64091 0.0
H1512 H 0.87958 0.76664 0.64409 0.0
H1513 H 0.89714 0.74586 0.62004 0.0
C1514 C 0.88213 0.7294 0.53979 0.0
C1515 C 0.84793 0.69506 0.54471 0.0
C1516 C 0.91321 0.75103 0.55007 0.0
C1517 C 0.91041 0.7386 0.56539 0.0
C1518 C 0.87622 0.7045 0.57026 0.0
C1519 C 0.84542 0.68293 0.56005 0.0
C1520 C 0.94296 0.76015 0.57653 0.0
C1521 C 0.93439 0.77297 0.59029 0.0
C1522 C 0.98113 0.76533 0.57425 0.0
C1523 C 0.99153 0.75124 0.56017 0.0
C1524 C 0.97035 0.71115 0.556 0.0
C1525 C 0.97987 0.69826 0.54253 0.0
C1526 C 0.01079 0.72515 0.53323 0.0
C1527 C 0.03238 0.76492 0.53742 0.0
C1528 C 0.02291 0.77797 0.55086 0.0
C1529 C 0.03922 0.78146 0.63832 0.0
C1530 C 0.07821 0.81325 0.63811 0.0
C1531 C 0.01376 0.77533 0.6261 0.0
C1532 C 0.02672 0.80074 0.61339 0.0
C1533 C 0.06548 0.83283 0.61318 0.0
C1534 C 0.09097 0.83929 0.62554 0.0
C1535 C -0.0003 0.79229 0.60019 0.0
C1536 C 0.00925 0.78188 0.58606 0.0
C1537 C 0.96225 0.78901 0.60215 0.0
C1538 C 0.95136 0.80144 0.61659 0.0
C1539 C 0.97586 0.83942 0.62263 0.0
C1540 C 0.96574 0.85086 0.63631 0.0
C1541 C 0.93108 0.82463 0.64404 0.0
C1542 C 0.90642 0.78693 0.63809 0.0
C1543 C 0.91641 0.77533 0.62441 0.0
H1544 H 0.9233 0.83354 0.65463 0.0
H1545 H 0.01805 0.71516 0.5228 0.0
H1546 H 0.20227 0.89904 0.69539 0.0
H1547 H 0.22209 0.95027 0.71529 0.0
H1548 H 0.1286 0.86696 0.74465 0.0
H1549 H 0.10976 0.81565 0.72507 0.0
H1550 H 0.14089 0.9465 0.74569 0.0
H1551 H 0.20744 0.8722 0.7503 0.0
H1552 H 0.24705 0.84322 0.74116 0.0
H1553 H 0.34475 0.95893 0.73227 0.0
H1554 H 0.30515 0.98877 0.74078 0.0
H1555 H 0.27597 0.01887 0.81887 0.0
H1556 H 0.24556 0.97496 0.79699 0.0
H1557 H 0.22807 0.06368 0.77479 0.0
H1558 H 0.2576 0.10741 0.79688 0.0
H1559 H 0.27058 0.98334 0.76908 0.0
H1560 H 0.15047 0.0195 0.74964 0.0
H1561 H 0.10561 0.04006 0.7609 0.0
H1562 H 0.10803 0.98801 0.80397 0.0
H1563 H 0.15246 0.9667 0.79293 0.0
C1564 C 0.18548 0.89217 0.70596 0.0
C1565 C 0.15469 0.85368 0.70884 0.0
C1566 C 0.19678 0.92127 0.71728 0.0
C1567 C 0.17677 0.91227 0.73142 0.0
C1568 C 0.14421 0.8745 0.7338 0.0
C1569 C 0.13364 0.84525 0.72268 0.0
C1570 C 0.19249 0.94026 0.74443 0.0
C1571 C 0.16944 0.95504 0.75073 0.0
C1572 C 0.22914 0.95024 0.75124 0.0
C1573 C 0.25306 0.93267 0.74592 0.0
C1574 C 0.23713 0.8915 0.74613 0.0
C1575 C 0.25958 0.87493 0.74106 0.0
C1576 C 0.29828 0.89928 0.73599 0.0
C1577 C 0.31461 0.94023 0.73602 0.0
C1578 C 0.29215 0.95698 0.74093 0.0
C1579 C 0.26515 0.02883 0.80942 0.0
C1580 C 0.26923 0.06662 0.80959 0.0
C1581 C 0.24792 0.00376 0.79688 0.0
C1582 C 0.23456 0.01596 0.78419 0.0
C1583 C 0.23764 0.05333 0.78451 0.0
C1584 C 0.25452 0.07831 0.79715 0.0
C1585 C 0.21916 0.99013 0.77043 0.0
C1586 C 0.24232 0.97559 0.76395 0.0
C1587 C 0.18209 0.97953 0.76375 0.0
C1588 C 0.15516 0.99194 0.7705 0.0
C1589 C 0.14134 0.01237 0.76151 0.0
C1590 C 0.116 0.02416 0.76785 0.0
C1591 C 0.1041 0.01548 0.78316 0.0
C1592 C 0.11741 0.99487 0.79214 0.0
C1593 C 0.14272 0.98298 0.78585 0.0
H1594 H 0.0845 0.02465 0.78805 0.0
H1595 H 0.31571 0.88643 0.73213 0.0
H1596 H 0.76351 0.8607 0.8474 0.0
H1597 H 0.78968 0.84805 0.87103 0.0
H1598 H 0.74471 0.72733 0.857 0.0
H1599 H 0.71957 0.73979 0.83338 0.0
H1600 H 0.7208 0.73685 0.88706 0.0
H1601 H 0.83859 0.78749 0.8549 0.0
H1602 H 0.89248 0.8384 0.83919 0.0
H1603 H 0.93109 0.91836 0.87742 0.0
H1604 H 0.87702 0.86806 0.89329 0.0
H1605 H 0.80139 0.63728 0.92322 0.0
H1606 H 0.78188 0.67304 0.90585 0.0
H1607 H 0.84872 0.77923 0.93246 0.0
H1608 H 0.86878 0.74321 0.95011 0.0
H1609 H 0.86188 0.79121 0.90071 0.0
H1610 H 0.75286 0.73697 0.93438 0.0
H1611 H 0.70052 0.68605 0.95061 0.0
H1612 H 0.64513 0.61512 0.91078 0.0
H1613 H 0.69749 0.66526 0.89432 0.0
C1614 C 0.75982 0.83166 0.84923 0.0
C1615 C 0.73888 0.80107 0.83858 0.0
C1616 C 0.77464 0.82448 0.86276 0.0
C1617 C 0.76859 0.78661 0.86582 0.0
C1618 C 0.74919 0.75661 0.85493 0.0
C1619 C 0.7348 0.76382 0.84142 0.0
C1620 C 0.781 0.77717 0.88053 0.0
C1621 C 0.75162 0.74875 0.89008 0.0
C1622 C 0.82114 0.79403 0.88478 0.0
C1623 C 0.85343 0.82425 0.87521 0.0
C1624 C 0.85829 0.81608 0.8599 0.0
C1625 C 0.88894 0.84479 0.85098 0.0
C1626 C 0.9151 0.88165 0.85728 0.0
C1627 C 0.91073 0.88984 0.87254 0.0
C1628 C 0.8801 0.86125 0.8815 0.0
C1629 C 0.81185 0.66818 0.9255 0.0
C1630 C 0.8366 0.68742 0.93806 0.0
C1631 C 0.8005 0.68856 0.91557 0.0
C1632 C 0.8135 0.72867 0.91795 0.0
C1633 C 0.83824 0.7482 0.93048 0.0
C1634 C 0.84949 0.7276 0.94057 0.0
C1635 C 0.80168 0.74959 0.90685 0.0
C1636 C 0.83101 0.78015 0.89798 0.0
C1637 C 0.76141 0.73502 0.9033 0.0
C1638 C 0.72927 0.70493 0.9131 0.0
C1639 C 0.72964 0.71043 0.92907 0.0
C1640 C 0.69996 0.6817 0.93833 0.0
C1641 C 0.66955 0.64737 0.93173 0.0
C1642 C 0.6687 0.64175 0.91587 0.0
C1643 C 0.69835 0.67037 0.90657 0.0
H1644 H 0.64662 0.62513 0.93892 0.0
H1645 H 0.93883 0.90382 0.85037 0.0
H1646 H 0.89607 0.74883 0.01682 0.0
H1647 H 0.93702 0.77594 0.03991 0.0
H1648 H 0.01887 0.74197 0.02237 0.0
H1649 H 0.97922 0.71614 0.99924 0.0
H1650 H 0.98936 0.71414 0.05294 0.0
H1651 H 0.04566 0.83349 0.02169 0.0
H1652 H 0.04252 0.88573 0.00699 0.0
H1653 H -2e-05 0.91738 0.0469 0.0
H1654 H 0.00234 0.86489 0.06178 0.0
H1655 H 0.17005 0.80327 0.08985 0.0
H1656 H 0.11523 0.78154 0.07204 0.0
H1657 H 0.06862 0.84212 0.09862 0.0
H1658 H 0.12418 0.86452 0.11664 0.0
H1659 H 0.06804 0.85537 0.06759 0.0
H1660 H 0.0225 0.74479 0.10017 0.0
H1661 H 0.02554 0.69336 0.11545 0.0
H1662 H 0.0441 0.64394 0.07445 0.0
H1663 H 0.04201 0.69556 0.05892 0.0
C1664 C 0.92312 0.74772 0.01778 0.0
C1665 C 0.93398 0.72965 0.00627 0.0
C1666 C 0.94636 0.76308 0.03099 0.0
C1667 C 0.98062 0.76042 0.0329 0.0
C1668 C 0.99222 0.7438 0.02119 0.0
C1669 C 0.96941 0.72895 0.00797 0.0
C1670 C 0.00409 0.77349 0.04723 0.0
C1671 C 0.00664 0.745 0.05616 0.0
C1672 C 0.0252 0.81355 0.05175 0.0
C1673 C 0.02363 0.84491 0.04278 0.0
C1674 C 0.0352 0.85128 0.02728 0.0
C1675 C 0.03367 0.88101 0.01893 0.0
C1676 C 0.02091 0.90476 0.02599 0.0
C1677 C 0.00976 0.89889 0.04143 0.0
C1678 C 0.01119 0.86917 0.04983 0.0
C1679 C 0.14816 0.81195 0.09201 0.0
C1680 C 0.15143 0.83554 0.1047 0.0
C1681 C 0.11667 0.79931 0.08182 0.0
C1682 C 0.08753 0.80975 0.08411 0.0
C1683 C 0.09071 0.83358 0.0967 0.0
C1684 C 0.12234 0.84622 0.10699 0.0
C1685 C 0.05459 0.79614 0.07296 0.0
C1686 C 0.05011 0.82439 0.06463 0.0
C1687 C 0.03125 0.75571 0.06909 0.0
C1688 C 0.03228 0.72427 0.07836 0.0
C1689 C 0.02752 0.72315 0.0944 0.0
C1690 C 0.02906 0.69393 0.10312 0.0
C1691 C 0.03503 0.66541 0.09593 0.0
C1692 C 0.03946 0.66605 0.08 0.0
C1693 C 0.03807 0.69528 0.07123 0.0
H1694 H 0.03618 0.64279 0.1027 0.0
H1695 H 0.01978 0.92778 0.01951 0.0
H1696 H 0.25519 0.99068 0.1605 0.0
H1697 H 0.27063 0.03349 0.18285 0.0
H1698 H 0.16128 0.9483 0.2042 0.0
H1699 H 0.1455 0.90499 0.18178 0.0
H1700 H 0.18498 0.03087 0.20993 0.0
H1701 H 0.2359 0.94162 0.21327 0.0
H1702 H 0.27077 0.90886 0.20276 0.0
H1703 H 0.37719 0.02098 0.19861 0.0
H1704 H 0.34272 0.05454 0.20883 0.0
H1705 H 0.25882 0.11413 0.28447 0.0
H1706 H 0.22783 0.06616 0.26359 0.0
H1707 H 0.33571 0.12662 0.23737 0.0
H1708 H 0.36683 0.17389 0.25811 0.0
H1709 H 0.30633 0.04948 0.23577 0.0
H1710 H 0.25633 0.13956 0.23067 0.0
H1711 H 0.22145 0.17448 0.2388 0.0
H1712 H 0.11457 0.06365 0.24499 0.0
H1713 H 0.14899 0.02803 0.23716 0.0
C1714 C 0.23403 0.98131 0.16982 0.0
C1715 C 0.19949 0.94414 0.16952 0.0
C1716 C 0.24286 0.00586 0.18255 0.0
C1717 C 0.21743 0.99365 0.19526 0.0
C1718 C 0.18131 0.9581 0.1945 0.0
C1719 C 0.17236 0.93343 0.18169 0.0
C1720 C 0.231 0.01592 0.20983 0.0
C1721 C 0.21109 0.03448 0.21577 0.0
C1722 C 0.26534 0.02084 0.21728 0.0
C1723 C 0.28664 0.00062 0.21174 0.0
C1724 C 0.2667 0.95932 0.21007 0.0
C1725 C 0.28638 0.94061 0.20415 0.0
C1726 C 0.32616 0.96283 0.20002 0.0
C1727 C 0.34637 0.00382 0.20183 0.0
C1728 C 0.32679 0.0227 0.2077 0.0
C1729 C 0.27594 0.11696 0.27429 0.0
C1730 C 0.31524 0.14787 0.27293 0.0
C1731 C 0.25815 0.08968 0.26234 0.0
C1732 C 0.27935 0.09304 0.24885 0.0
C1733 C 0.31877 0.12341 0.24766 0.0
C1734 C 0.3365 0.15052 0.25954 0.0
C1735 C 0.26088 0.06542 0.23579 0.0
C1736 C 0.27989 0.0456 0.23011 0.0
C1737 C 0.22588 0.05965 0.22857 0.0
C1738 C 0.20537 0.0811 0.23351 0.0
C1739 C 0.22551 0.12261 0.23393 0.0
C1740 C 0.2058 0.14254 0.23845 0.0
C1741 C 0.16584 0.12128 0.24243 0.0
C1742 C 0.14554 0.08007 0.24193 0.0
C1743 C 0.16513 0.05999 0.23746 0.0
H1744 H 0.15053 0.1367 0.24582 0.0
H1745 H 0.34132 0.94828 0.19544 0.0
H1746 H 0.16666 0.34377 0.41883 0.0
H1747 H 0.17587 0.30412 0.39947 0.0
H1748 H 0.16094 0.2187 0.43396 0.0
H1749 H 0.15106 0.2582 0.45356 0.0
H1750 H 0.2273 0.24223 0.41352 0.0
H1751 H 0.08867 0.19313 0.41147 0.0
H1752 H 0.02779 0.19725 0.41019 0.0
H1753 H 0.06283 0.25394 0.36624 0.0
H1754 H 0.12433 0.25096 0.36737 0.0
H1755 H 0.23764 0.12617 0.35346 0.0
H1756 H 0.20471 0.13878 0.37489 0.0
H1757 H 0.20996 0.23676 0.35013 0.0
H1758 H 0.24308 0.22458 0.3288 0.0
H1759 H 0.1398 0.19395 0.36784 0.0
H1760 H 0.28201 0.25579 0.37242 0.0
H1761 H 0.34444 0.25453 0.37284 0.0
H1762 H 0.30346 0.17657 0.4117 0.0
H1763 H 0.24036 0.17675 0.41129 0.0
C1764 C 0.16552 0.31668 0.42238 0.0
C1765 C 0.15815 0.30413 0.43775 0.0
C1766 C 0.17053 0.29392 0.41126 0.0
C1767 C 0.16858 0.25828 0.41526 0.0
C1768 C 0.16229 0.24604 0.43065 0.0
C1769 C 0.15671 0.26862 0.44181 0.0
C1770 C 0.17382 0.23454 0.40322 0.0
C1771 C 0.2076 0.2307 0.40373 0.0
C1772 C 0.14845 0.22027 0.39032 0.0
C1773 C 0.11134 0.22203 0.38956 0.0
C1774 C 0.08361 0.2068 0.40159 0.0
C1775 C 0.04894 0.20889 0.40088 0.0
C1776 C 0.04148 0.22586 0.38815 0.0
C1777 C 0.06866 0.2408 0.3761 0.0
C1778 C 0.10343 0.23889 0.37676 0.0
C1779 C 0.23067 0.14961 0.3524 0.0
C1780 C 0.24322 0.17465 0.33955 0.0
C1781 C 0.21198 0.15685 0.36466 0.0
C1782 C 0.20526 0.18893 0.36413 0.0
C1783 C 0.21481 0.21184 0.35075 0.0
C1784 C 0.23391 0.20496 0.33862 0.0
C1785 C 0.19349 0.20217 0.37809 0.0
C1786 C 0.15876 0.20439 0.37786 0.0
C1787 C 0.21809 0.21528 0.39122 0.0
C1788 C 0.25631 0.21587 0.39171 0.0
C1789 C 0.2862 0.23814 0.38098 0.0
C1790 C 0.3217 0.23764 0.38122 0.0
C1791 C 0.32787 0.21538 0.39226 0.0
C1792 C 0.29859 0.19371 0.40313 0.0
C1793 C 0.26294 0.19398 0.4029 0.0
H1794 H 0.35537 0.21501 0.39243 0.0
H1795 H 0.01461 0.22737 0.38759 0.0
H1796 H 0.81641 0.1627 0.58367 0.0
H1797 H 0.86451 0.17013 0.56432 0.0
H1798 H 0.93705 0.15977 0.5992 0.0
H1799 H 0.88827 0.15175 0.61887 0.0
H1800 H 0.97855 0.22471 0.57861 0.0
H1801 H 0.89528 0.08567 0.57588 0.0
H1802 H 0.83284 0.0224 0.57482 0.0
H1803 H 0.8025 0.05695 0.53252 0.0
H1804 H 0.86508 0.12056 0.53327 0.0
H1805 H 0.10354 0.23695 0.51714 0.0
H1806 H 0.05951 0.20501 0.53902 0.0
H1807 H 0.96497 0.2089 0.51508 0.0
H1808 H 0.00878 0.24103 0.49325 0.0
H1809 H 0.93979 0.13862 0.53252 0.0
H1810 H 0.01883 0.28094 0.53754 0.0
H1811 H 0.08195 0.34386 0.53823 0.0
H1812 H 0.1197 0.30269 0.5768 0.0
H1813 H 0.05703 0.23913 0.57613 0.0
C1814 C 0.84252 0.16193 0.5873 0.0
C1815 C 0.84861 0.15677 0.60283 0.0
C1816 C 0.86987 0.16591 0.57618 0.0
C1817 C 0.9041 0.16507 0.5803 0.0
C1818 C 0.91064 0.16025 0.5958 0.0
C1819 C 0.88283 0.15569 0.60699 0.0
C1820 C 0.93336 0.17099 0.56826 0.0
C1821 C 0.97055 0.20532 0.56873 0.0
C1822 C 0.92256 0.14606 0.55525 0.0
C1823 C 0.88476 0.108 0.55469 0.0
C1824 C 0.87518 0.07992 0.5664 0.0
C1825 C 0.83975 0.04394 0.56585 0.0
C1826 C 0.81351 0.03569 0.55368 0.0
C1827 C 0.82282 0.06338 0.54196 0.0
C1828 C 0.85836 0.09935 0.54241 0.0
C1829 C 0.07308 0.23001 0.51637 0.0
C1830 C 0.05965 0.24178 0.50355 0.0
C1831 C 0.04804 0.21192 0.5289 0.0
C1832 C 0.00916 0.205 0.5287 0.0
C1833 C 0.99487 0.214 0.51544 0.0
C1834 C 0.01998 0.2325 0.50302 0.0
C1835 C 0.98464 0.1926 0.54279 0.0
C1836 C 0.94823 0.15735 0.54261 0.0
C1837 C 0.99616 0.21668 0.55607 0.0
C1838 C 0.03351 0.2551 0.55666 0.0
C1839 C 0.04073 0.28517 0.54609 0.0
C1840 C 0.07641 0.32096 0.54648 0.0
C1841 C 0.10488 0.32722 0.55752 0.0
C1842 C 0.09766 0.29775 0.56823 0.0
C1843 C 0.06208 0.26183 0.56784 0.0
H1844 H 0.13248 0.35495 0.55781 0.0
H1845 H 0.78605 0.0078 0.5533 0.0
H1846 H 0.86313 0.09748 0.68015 0.0
H1847 H 0.84941 0.05416 0.70252 0.0
H1848 H 0.72769 0.98503 0.68852 0.0
H1849 H 0.74122 0.02688 0.66606 0.0
H1850 H 0.74131 0.01755 0.71934 0.0
H1851 H 0.77912 0.94545 0.68471 0.0
H1852 H 0.82359 0.93541 0.66762 0.0
H1853 H 0.9063 0.96392 0.70451 0.0
H1854 H 0.86261 0.97483 0.72178 0.0
H1855 H 0.6372 0.83895 0.75776 0.0
H1856 H 0.67177 0.892 0.73932 0.0
H1857 H 0.7821 0.92743 0.76244 0.0
H1858 H 0.74734 0.87372 0.78115 0.0
H1859 H 0.78649 0.922 0.73043 0.0
H1860 H 0.74327 0.98432 0.76607 0.0
H1861 H 0.69659 0.99069 0.78322 0.0
H1862 H 0.6233 0.97957 0.74469 0.0
H1863 H 0.66912 0.97236 0.72732 0.0
C1864 C 0.83363 0.0726 0.68169 0.0
C1865 C 0.80305 0.06617 0.67149 0.0
C1866 C 0.82587 0.04797 0.69448 0.0
C1867 C 0.78744 0.01677 0.69722 0.0
C1868 C 0.75744 0.00925 0.68667 0.0
C1869 C 0.76523 0.0334 0.67387 0.0
C1870 C 0.77718 0.99342 0.71157 0.0
C1871 C 0.75116 0.99663 0.72179 0.0
C1872 C 0.79119 0.96721 0.71496 0.0
C1873 C 0.81794 0.96175 0.70446 0.0
C1874 C 0.80709 0.95025 0.68912 0.0
C1875 C 0.83206 0.9442 0.67942 0.0
C1876 C 0.86783 0.94919 0.68496 0.0
C1877 C 0.87867 0.96023 0.70022 0.0
C1878 C 0.85382 0.96637 0.70996 0.0
C1879 C 0.66879 0.85809 0.75903 0.0
C1880 C 0.68956 0.85222 0.77093 0.0
C1881 C 0.68849 0.88854 0.7485 0.0
C1882 C 0.72941 0.9139 0.74961 0.0
C1883 C 0.75045 0.90825 0.76146 0.0
C1884 C 0.73058 0.87777 0.77215 0.0
C1885 C 0.74964 0.94528 0.73794 0.0
C1886 C 0.77747 0.94367 0.72823 0.0
C1887 C 0.73731 0.97306 0.73498 0.0
C1888 C 0.70964 0.97759 0.74538 0.0
C1889 C 0.71706 0.98292 0.76125 0.0
C1890 C 0.69074 0.98672 0.77102 0.0
C1891 C 0.65697 0.9855 0.76506 0.0
C1892 C 0.64947 0.98051 0.7493 0.0
C1893 C 0.67565 0.97661 0.73948 0.0
H1894 H 0.63664 0.98846 0.77264 0.0
H1895 H 0.88707 0.94438 0.67744 0.0
loop_
_geom_bond_atom_site_label_1
_geom_bond_atom_site_label_2
_geom_bond_distance
_geom_bond_site_symmetry_2
_ccdc_geom_bond_type
C0 C1 1.351 . S
C0 N3 1.368 . S
C0 H5 0.931 . S
C1 C0 1.351 . S
C1 N2 1.373 . S
C1 H29 0.930 . S
N2 C1 1.373 . S
N2 C4 1.340 . S
N3 C0 1.368 . S
N3 C4 1.321 . S
N3 Co6 2.135 . S
C4 N2 1.340 . S
C4 N3 1.321 . S
C4 H28 0.930 . S
H5 C0 0.931 . S
Co6 N3 2.135 . S
Co6 N9 2.121 1_554 S
Co6 O14 2.055 . S
Co6 O17 2.039 1_554 S
Co6 N20 2.140 . S
C7 O8 1.227 . S
C7 O17 1.265 . S
O8 C7 1.227 . S
N9 Co6 2.121 1_556 S
N9 C11 1.375 . S
N9 C12 1.313 . S
C10 C11 1.338 . S
C10 N13 1.377 . S
C10 H30 0.930 . S
C11 N9 1.375 . S
C11 C10 1.338 . S
C11 H15 0.931 . S
C12 N9 1.313 . S
C12 N13 1.344 . S
C12 H16 0.930 1_556 S
N13 C10 1.377 . S
N13 C12 1.344 . S
O14 Co6 2.055 . S
O14 C18 1.253 . S
H15 C11 0.931 . S
H16 C12 0.930 1_554 S
O17 Co6 2.039 1_556 S
O17 C7 1.265 . S
C18 O14 1.253 . S
C18 O19 1.227 . S
O19 C18 1.227 . S
N20 Co6 2.140 . S
N20 C23 1.346 . S
N20 C24 1.345 . S
C21 C22 1.387 . S
C21 C25 1.391 . S
C22 C21 1.387 . S
C22 C23 1.369 . S
C22 H31 0.929 . S
C23 N20 1.346 . S
C23 C22 1.369 . S
C23 H26 0.928 . S
C24 N20 1.345 . S
C24 C25 1.371 . S
C24 H27 0.931 . S
C25 C21 1.391 . S
C25 C24 1.371 . S
C25 H32 0.930 . S
H26 C23 0.928 . S
H27 C24 0.931 . S
H28 C4 0.930 . S
H29 C1 0.930 . S
H30 C10 0.930 . S
H31 C22 0.929 . S
H32 C25 0.930 . S
C33 C34 1.351 1_655 S
C33 N36 1.368 . S
C33 H38 0.931 . S
C34 C33 1.351 1_455 S
C34 N35 1.373 . S
C34 H62 0.930 . S
N35 C34 1.373 . S
N35 C37 1.340 . S
N36 C33 1.368 . S
N36 C37 1.321 1_655 S
N36 Co39 2.135 . S
C37 N35 1.340 . S
C37 N36 1.321 1_455 S
C37 H61 0.930 . S
H38 C33 0.931 . S
Co39 N36 2.135 . S
Co39 N42 2.121 . S
Co39 O47 2.055 . S
Co39 O50 2.039 . S
Co39 N53 2.140 . S
C40 O41 1.227 . S
C40 O50 1.265 . S
O41 C40 1.227 . S
N42 Co39 2.121 . S
N42 C44 1.375 . S
N42 C45 1.313 . S
C43 C44 1.338 . S
C43 N46 1.377 . S
C43 H63 0.930 . S
C44 N42 1.375 . S
C44 C43 1.338 . S
C44 H48 0.931 . S
C45 N42 1.313 . S
C45 N46 1.344 . S
C45 H49 0.930 . S
N46 C43 1.377 . S
N46 C45 1.344 . S
O47 Co39 2.055 . S
O47 C51 1.253 . S
H48 C44 0.931 . S
H49 C45 0.930 . S
O50 Co39 2.039 . S
O50 C40 1.265 . S
C51 O47 1.253 . S
C51 O52 1.227 . S
O52 C51 1.227 . S
N53 Co39 2.140 . S
N53 C56 1.346 . S
N53 C57 1.345 . S
C54 C55 1.387 . S
C54 C58 1.391 . S
C55 C54 1.387 . S
C55 C56 1.369 . S
C55 H64 0.929 1_655 S
C56 N53 1.346 . S
C56 C55 1.369 . S
C56 H59 0.928 . S
C57 N53 1.345 . S
C57 C58 1.371 . S
C57 H60 0.931 . S
C58 C54 1.391 . S
C58 C57 1.371 . S
C58 H65 0.930 . S
H59 C56 0.928 . S
H60 C57 0.931 . S
H61 C37 0.930 . S
H62 C34 0.930 . S
H63 C43 0.930 . S
H64 C55 0.929 1_455 S
H65 C58 0.930 . S
C66 C67 1.351 1_565 S
C66 N69 1.368 . S
C66 H71 0.931 . S
C67 C66 1.351 1_545 S
C67 N68 1.373 . S
C67 H95 0.930 . S
N68 C67 1.373 . S
N68 C70 1.340 . S
N69 C66 1.368 . S
N69 C70 1.321 1_565 S
N69 Co72 2.135 . S
C70 N68 1.340 . S
C70 N69 1.321 1_545 S
C70 H94 0.930 . S
H71 C66 0.931 . S
Co72 N69 2.135 . S
Co72 N75 2.121 . S
Co72 O80 2.055 . S
Co72 O83 2.039 . S
Co72 N86 2.140 . S
C73 O74 1.227 . S
C73 O83 1.265 . S
O74 C73 1.227 . S
N75 Co72 2.121 . S
N75 C77 1.375 . S
N75 C78 1.313 . S
C76 C77 1.338 . S
C76 N79 1.377 . S
C76 H96 0.930 . S
C77 N75 1.375 . S
C77 C76 1.338 . S
C77 H81 0.931 . S
C78 N75 1.313 . S
C78 N79 1.344 . S
C78 H82 0.930 . S
N79 C76 1.377 . S
N79 C78 1.344 . S
O80 Co72 2.055 . S
O80 C84 1.253 . S
H81 C77 0.931 . S
H82 C78 0.930 . S
O83 Co72 2.039 . S
O83 C73 1.265 . S
C84 O80 1.253 . S
C84 O85 1.227 . S
O85 C84 1.227 . S
N86 Co72 2.140 . S
N86 C89 1.346 . S
N86 C90 1.345 . S
C87 C88 1.387 . S
C87 C91 1.391 . S
C88 C87 1.387 . S
C88 C89 1.369 . S
C88 H97 0.929 1_565 S
C89 N86 1.346 . S
C89 C88 1.369 . S
C89 H92 0.928 . S
C90 N86 1.345 . S
C90 C91 1.371 . S
C90 H93 0.931 . S
C91 C87 1.391 . S
C91 C90 1.371 . S
C91 H98 0.930 . S
H92 C89 0.928 . S
H93 C90 0.931 . S
H94 C70 0.930 . S
H95 C67 0.930 . S
H96 C76 0.930 . S
H97 C88 0.929 1_545 S
H98 C91 0.930 . S
C99 C100 1.351 . S
C99 N102 1.368 . S
C99 H104 0.931 . S
C100 C99 1.351 . S
C100 N101 1.373 . S
C100 H128 0.930 . S
N101 C100 1.373 . S
N101 C103 1.340 . S
N102 C99 1.368 . S
N102 C103 1.321 . S
N102 Co105 2.135 . S
C103 N101 1.340 . S
C103 N102 1.321 . S
C103 H127 0.930 . S
H104 C99 0.931 . S
Co105 N102 2.135 . S
Co105 N108 2.121 . S
Co105 O113 2.055 . S
Co105 O116 2.039 . S
Co105 N119 2.140 . S
C106 O107 1.227 . S
C106 O116 1.265 . S
O107 C106 1.227 . S
N108 Co105 2.121 . S
N108 C110 1.375 . S
N108 C111 1.313 . S
C109 C110 1.338 . S
C109 N112 1.377 . S
C109 H129 0.930 . S
C110 N108 1.375 . S
C110 C109 1.338 . S
C110 H114 0.931 . S
C111 N108 1.313 . S
C111 N112 1.344 . S
C111 H115 0.930 . S
N112 C109 1.377 . S
N112 C111 1.344 . S
O113 Co105 2.055 . S
O113 C117 1.253 . S
H114 C110 0.931 . S
H115 C111 0.930 . S
O116 Co105 2.039 . S
O116 C106 1.265 . S
C117 O113 1.253 . S
C117 O118 1.227 . S
O118 C117 1.227 . S
N119 Co105 2.140 . S
N119 C122 1.346 . S
N119 C123 1.345 . S
C120 C121 1.387 . S
C120 C124 1.391 . S
C121 C120 1.387 . S
C121 C122 1.369 . S
C121 H130 0.929 . S
C122 N119 1.346 . S
C122 C121 1.369 . S
C122 H125 0.928 . S
C123 N119 1.345 . S
C123 C124 1.371 . S
C123 H126 0.931 . S
C124 C120 1.391 . S
C124 C123 1.371 . S
C124 H131 0.930 . S
H125 C122 0.928 . S
H126 C123 0.931 . S
H127 C103 0.930 . S
H128 C100 0.930 . S
H129 C109 0.930 . S
H130 C121 0.929 . S
H131 C124 0.930 . S
C132 C133 1.351 1_455 S
C132 N135 1.368 . S
C132 H137 0.931 . S
C133 C132 1.351 1_655 S
C133 N134 1.373 . S
C133 H161 0.930 . S
N134 C133 1.373 . S
N134 C136 1.340 . S
N135 C132 1.368 . S
N135 C136 1.321 1_455 S
N135 Co138 2.135 . S
C136 N134 1.340 . S
C136 N135 1.321 1_655 S
C136 H160 0.930 . S
H137 C132 0.931 . S
Co138 N135 2.135 . S
Co138 N141 2.121 . S
Co138 O146 2.055 . S
Co138 O149 2.039 . S
Co138 N152 2.140 . S
C139 O140 1.227 . S
C139 O149 1.265 . S
O140 C139 1.227 . S
N141 Co138 2.121 . S
N141 C143 1.375 . S
N141 C144 1.313 . S
C142 C143 1.338 . S
C142 N145 1.377 . S
C142 H162 0.930 . S
C143 N141 1.375 . S
C143 C142 1.338 . S
C143 H147 0.931 . S
C144 N141 1.313 . S
C144 N145 1.344 . S
C144 H148 0.930 . S
N145 C142 1.377 . S
N145 C144 1.344 . S
O146 Co138 2.055 . S
O146 C150 1.253 . S
H147 C143 0.931 . S
H148 C144 0.930 . S
O149 Co138 2.039 . S
O149 C139 1.265 . S
C150 O146 1.253 . S
C150 O151 1.227 . S
O151 C150 1.227 . S
N152 Co138 2.140 . S
N152 C155 1.346 . S
N152 C156 1.345 . S
C153 C154 1.387 . S
C153 C157 1.391 . S
C154 C153 1.387 . S
C154 C155 1.369 . S
C154 H163 0.929 1_455 S
C155 N152 1.346 . S
C155 C154 1.369 . S
C155 H158 0.928 . S
C156 N152 1.345 . S
C156 C157 1.371 . S
C156 H159 0.931 . S
C157 C153 1.391 . S
C157 C156 1.371 . S
C157 H164 0.930 . S
H158 C155 0.928 . S
H159 C156 0.931 . S
H160 C136 0.930 . S
H161 C133 0.930 . S
H162 C142 0.930 . S
H163 C154 0.929 1_655 S
H164 C157 0.930 . S
C165 C166 1.351 1_545 S
C165 N168 1.368 . S
C165 H170 0.931 . S
C166 C165 1.351 1_565 S
C166 N167 1.373 . S
C166 H194 0.930 . S
N167 C166 1.373 . S
N167 C169 1.340 . S
N168 C165 1.368 . S
N168 C169 1.321 1_545 S
N168 Co171 2.135 . S
C169 N167 1.340 . S
C169 N168 1.321 1_565 S
C169 H193 0.930 . S
H170 C165 0.931 . S
Co171 N168 2.135 . S
Co171 N174 2.121 . S
Co171 O179 2.055 . S
Co171 O182 2.039 . S
Co171 N185 2.140 . S
C172 O173 1.227 . S
C172 O182 1.265 . S
O173 C172 1.227 . S
N174 Co171 2.121 . S
N174 C176 1.375 . S
N174 C177 1.313 . S
C175 C176 1.338 . S
C175 N178 1.377 . S
C175 H195 0.930 . S
C176 N174 1.375 . S
C176 C175 1.338 . S
C176 H180 0.931 . S
C177 N174 1.313 . S
C177 N178 1.344 . S
C177 H181 0.930 . S
N178 C175 1.377 . S
N178 C177 1.344 . S
O179 Co171 2.055 . S
O179 C183 1.253 . S
H180 C176 0.931 . S
H181 C177 0.930 . S
O182 Co171 2.039 . S
O182 C172 1.265 . S
C183 O179 1.253 . S
C183 O184 1.227 . S
O184 C183 1.227 . S
N185 Co171 2.140 . S
N185 C188 1.346 . S
N185 C189 1.345 . S
C186 C187 1.387 . S
C186 C190 1.391 . S
C187 C186 1.387 . S
C187 C188 1.369 . S
C187 H196 0.929 1_545 S
C188 N185 1.346 . S
C188 C187 1.369 . S
C188 H191 0.928 . S
C189 N185 1.345 . S
C189 C190 1.371 . S
C189 H192 0.931 . S
C190 C186 1.391 . S
C190 C189 1.371 . S
C190 H197 0.930 . S
H191 C188 0.928 . S
H192 C189 0.931 . S
H193 C169 0.930 . S
H194 C166 0.930 . S
H195 C175 0.930 . S
H196 C187 0.929 1_565 S
H197 C190 0.930 . S
C198 C199 1.351 . S
C198 N201 1.368 . S
C198 H203 0.931 . S
C199 C198 1.351 . S
C199 N200 1.373 . S
C199 H227 0.930 . S
N200 C199 1.373 . S
N200 C202 1.340 . S
N201 C198 1.368 . S
N201 C202 1.321 . S
N201 Co204 2.135 . S
C202 N200 1.340 . S
C202 N201 1.321 . S
C202 H226 0.930 . S
H203 C198 0.931 . S
Co204 N201 2.135 . S
Co204 N207 2.121 . S
Co204 O212 2.055 . S
Co204 O215 2.039 . S
Co204 N218 2.140 . S
C205 O206 1.227 . S
C205 O215 1.265 . S
O206 C205 1.227 . S
N207 Co204 2.121 . S
N207 C209 1.375 . S
N207 C210 1.313 . S
C208 C209 1.338 . S
C208 N211 1.377 . S
C208 H228 0.930 . S
C209 N207 1.375 . S
C209 C208 1.338 . S
C209 H213 0.931 . S
C210 N207 1.313 . S
C210 N211 1.344 . S
C210 H214 0.930 . S
N211 C208 1.377 . S
N211 C210 1.344 . S
O212 Co204 2.055 . S
O212 C216 1.253 . S
H213 C209 0.931 . S
H214 C210 0.930 . S
O215 Co204 2.039 . S
O215 C205 1.265 . S
C216 O212 1.253 . S
C216 O217 1.227 . S
O217 C216 1.227 . S
N218 Co204 2.140 . S
N218 C221 1.346 . S
N218 C222 1.345 . S
C219 C220 1.387 . S
C219 C223 1.391 . S
C220 C219 1.387 . S
C220 C221 1.369 . S
C220 H229 0.929 . S
C221 N218 1.346 . S
C221 C220 1.369 . S
C221 H224 0.928 . S
C222 N218 1.345 . S
C222 C223 1.371 . S
C222 H225 0.931 . S
C223 C219 1.391 . S
C223 C222 1.371 . S
C223 H230 0.930 . S
H224 C221 0.928 . S
H225 C222 0.931 . S
H226 C202 0.930 . S
H227 C199 0.930 . S
H228 C208 0.930 . S
H229 C220 0.929 . S
H230 C223 0.930 . S
C231 C232 1.351 1_655 S
C231 N234 1.368 . S
C231 H236 0.931 . S
C232 C231 1.351 1_455 S
C232 N233 1.373 . S
C232 H260 0.930 . S
N233 C232 1.373 . S
N233 C235 1.340 . S
N234 C231 1.368 . S
N234 C235 1.321 1_655 S
N234 Co237 2.135 . S
C235 N233 1.340 . S
C235 N234 1.321 1_455 S
C235 H259 0.930 . S
H236 C231 0.931 . S
Co237 N234 2.135 . S
Co237 N240 2.121 . S
Co237 O245 2.055 . S
Co237 O248 2.039 . S
Co237 N251 2.140 . S
C238 O239 1.235 . S
C238 O248 1.307 . S
O239 C238 1.235 . S
N240 Co237 2.121 . S
N240 C242 1.307 1_556 S
N240 C243 1.313 . S
C241 C242 1.363 . S
C241 N244 1.377 1_554 S
C241 H261 0.930 . S
C242 N240 1.307 1_554 S
C242 C241 1.363 . S
C242 H246 0.972 . S
C243 N240 1.313 . S
C243 N244 1.344 . S
C243 H247 0.930 . S
N244 C241 1.377 1_556 S
N244 C243 1.344 . S
O245 Co237 2.055 . S
O245 C249 1.253 . S
H246 C242 0.972 . S
H247 C243 0.930 . S
O248 Co237 2.039 . S
O248 C238 1.307 . S
C249 O245 1.253 . S
C249 O250 1.227 . S
O250 C249 1.227 . S
N251 Co237 2.140 . S
N251 C254 1.346 . S
N251 C255 1.345 . S
C252 C253 1.387 . S
C252 C256 1.391 . S
C253 C252 1.387 . S
C253 C254 1.369 . S
C253 H262 0.929 1_655 S
C254 N251 1.346 . S
C254 C253 1.369 . S
C254 H257 0.928 . S
C255 N251 1.345 . S
C255 C256 1.371 . S
C255 H258 0.931 . S
C256 C252 1.391 . S
C256 C255 1.371 . S
C256 H263 0.930 . S
H257 C254 0.928 . S
H258 C255 0.931 . S
H259 C235 0.930 . S
H260 C232 0.930 . S
H261 C241 0.930 . S
H262 C253 0.929 1_455 S
H263 C256 0.930 . S
C264 C265 1.351 1_565 S
C264 N267 1.368 . S
C264 H269 0.931 . S
C265 C264 1.351 1_545 S
C265 N266 1.373 . S
C265 H293 0.930 . S
N266 C265 1.373 . S
N266 C268 1.340 . S
N267 C264 1.368 . S
N267 C268 1.321 1_565 S
N267 Co270 2.135 . S
C268 N266 1.340 . S
C268 N267 1.321 1_545 S
C268 H292 0.930 . S
H269 C264 0.931 . S
Co270 N267 2.135 . S
Co270 N273 2.121 . S
Co270 O278 2.055 . S
Co270 O281 2.039 . S
Co270 N284 2.140 . S
C271 O272 1.227 . S
C271 O281 1.265 . S
O272 C271 1.227 . S
N273 Co270 2.121 . S
N273 C275 1.375 . S
N273 C276 1.313 . S
C274 C275 1.338 . S
C274 N277 1.377 . S
C274 H294 0.930 . S
C275 N273 1.375 . S
C275 C274 1.338 . S
C275 H279 0.931 . S
C276 N273 1.313 . S
C276 N277 1.344 . S
C276 H280 0.930 . S
N277 C274 1.377 . S
N277 C276 1.344 . S
O278 Co270 2.055 . S
O278 C282 1.253 . S
H279 C275 0.931 . S
H280 C276 0.930 . S
O281 Co270 2.039 . S
O281 C271 1.265 . S
C282 O278 1.253 . S
C282 O283 1.227 . S
O283 C282 1.227 . S
N284 Co270 2.140 . S
N284 C287 1.346 . S
N284 C288 1.345 . S
C285 C286 1.387 . S
C285 C289 1.391 . S
C286 C285 1.387 . S
C286 C287 1.369 . S
C286 H295 0.929 1_565 S
C287 N284 1.346 . S
C287 C286 1.369 . S
C287 H290 0.928 . S
C288 N284 1.345 . S
C288 C289 1.371 . S
C288 H291 0.931 . S
C289 C285 1.391 . S
C289 C288 1.371 . S
C289 H296 0.930 . S
H290 C287 0.928 . S
H291 C288 0.931 . S
H292 C268 0.930 . S
H293 C265 0.930 . S
H294 C274 0.930 . S
H295 C286 0.929 1_545 S
H296 C289 0.930 . S
C297 C298 1.351 . S
C297 N300 1.368 . S
C297 H302 0.931 . S
C298 C297 1.351 . S
C298 N299 1.373 . S
C298 H326 0.930 . S
N299 C298 1.373 . S
N299 C301 1.340 . S
N300 C297 1.368 . S
N300 C301 1.321 . S
N300 Co303 2.135 . S
C301 N299 1.340 . S
C301 N300 1.321 . S
C301 H325 0.930 . S
H302 C297 0.931 . S
Co303 N300 2.135 . S
Co303 N306 2.121 . S
Co303 O311 2.055 . S
Co303 O314 2.039 . S
Co303 N317 2.140 . S
C304 O305 1.227 . S
C304 O314 1.265 . S
O305 C304 1.227 . S
N306 Co303 2.121 . S
N306 C308 1.375 . S
N306 C309 1.313 . S
C307 C308 1.338 . S
C307 N310 1.377 . S
C307 H327 0.930 . S
C308 N306 1.375 . S
C308 C307 1.338 . S
C308 H312 0.931 . S
C309 N306 1.313 . S
C309 N310 1.344 . S
C309 H313 0.930 . S
N310 C307 1.377 . S
N310 C309 1.344 . S
O311 Co303 2.055 . S
O311 C315 1.253 . S
H312 C308 0.931 . S
H313 C309 0.930 . S
O314 Co303 2.039 . S
O314 C304 1.265 . S
C315 O311 1.253 . S
C315 O316 1.227 . S
O316 C315 1.227 . S
N317 Co303 2.140 . S
N317 C320 1.346 . S
N317 C321 1.345 . S
C318 C319 1.387 . S
C318 C322 1.391 . S
C319 C318 1.387 . S
C319 C320 1.369 . S
C319 H328 0.929 . S
C320 N317 1.346 . S
C320 C319 1.369 . S
C320 H323 0.928 . S
C321 N317 1.345 . S
C321 C322 1.371 . S
C321 H324 0.931 . S
C322 C318 1.391 . S
C322 C321 1.371 . S
C322 H329 0.930 . S
H323 C320 0.928 . S
H324 C321 0.931 . S
H325 C301 0.930 . S
H326 C298 0.930 . S
H327 C307 0.930 . S
H328 C319 0.929 . S
H329 C322 0.930 . S
C330 C331 1.351 1_455 S
C330 N333 1.368 . S
C330 H335 0.931 . S
C331 C330 1.351 1_655 S
C331 N332 1.373 . S
C331 H359 0.930 . S
N332 C331 1.373 . S
N332 C334 1.340 . S
N333 C330 1.368 . S
N333 C334 1.321 1_455 S
N333 Co336 2.135 . S
C334 N332 1.340 . S
C334 N333 1.321 1_655 S
C334 H358 0.930 . S
H335 C330 0.931 . S
Co336 N333 2.135 . S
Co336 N339 2.121 . S
Co336 O344 2.055 . S
Co336 O347 2.039 . S
Co336 N350 2.140 . S
C337 O338 1.227 . S
C337 O347 1.265 . S
O338 C337 1.227 . S
N339 Co336 2.121 . S
N339 C341 1.375 . S
N339 C342 1.313 . S
C340 C341 1.338 . S
C340 N343 1.377 . S
C340 H360 0.930 . S
C341 N339 1.375 . S
C341 C340 1.338 . S
C341 H345 0.931 . S
C342 N339 1.313 . S
C342 N343 1.344 . S
C342 H346 0.930 . S
N343 C340 1.377 . S
N343 C342 1.344 . S
O344 Co336 2.055 . S
O344 C348 1.253 . S
H345 C341 0.931 . S
H346 C342 0.930 . S
O347 Co336 2.039 . S
O347 C337 1.265 . S
C348 O344 1.253 . S
C348 O349 1.227 . S
O349 C348 1.227 . S
N350 Co336 2.140 . S
N350 C353 1.346 . S
N350 C354 1.345 . S
C351 C352 1.387 . S
C351 C355 1.391 . S
C352 C351 1.387 . S
C352 C353 1.369 . S
C352 H361 0.929 1_455 S
C353 N350 1.346 . S
C353 C352 1.369 . S
C353 H356 0.928 . S
C354 N350 1.345 . S
C354 C355 1.371 . S
C354 H357 0.931 . S
C355 C351 1.391 . S
C355 C354 1.371 . S
C355 H362 0.930 . S
H356 C353 0.928 . S
H357 C354 0.931 . S
H358 C334 0.930 . S
H359 C331 0.930 . S
H360 C340 0.930 . S
H361 C352 0.929 1_655 S
H362 C355 0.930 . S
C363 C364 1.351 1_545 S
C363 N366 1.368 . S
C363 H368 0.931 . S
C364 C363 1.351 1_565 S
C364 N365 1.373 . S
C364 H392 0.930 . S
N365 C364 1.373 . S
N365 C367 1.340 . S
N366 C363 1.368 . S
N366 C367 1.321 1_545 S
N366 Co369 2.135 . S
C367 N365 1.340 . S
C367 N366 1.321 1_565 S
C367 H391 0.930 . S
H368 C363 0.931 . S
Co369 N366 2.135 . S
Co369 N372 2.121 . S
Co369 O377 2.055 . S
Co369 O380 2.039 . S
Co369 N383 2.140 . S
C370 O371 1.227 . S
C370 O380 1.265 . S
O371 C370 1.227 . S
N372 Co369 2.121 . S
N372 C374 1.375 . S
N372 C375 1.313 . S
C373 C374 1.338 . S
C373 N376 1.377 . S
C373 H393 0.930 . S
C374 N372 1.375 . S
C374 C373 1.338 . S
C374 H378 0.931 . S
C375 N372 1.313 . S
C375 N376 1.344 . S
C375 H379 0.930 . S
N376 C373 1.377 . S
N376 C375 1.344 . S
O377 Co369 2.055 . S
O377 C381 1.253 . S
H378 C374 0.931 . S
H379 C375 0.930 . S
O380 Co369 2.039 . S
O380 C370 1.265 . S
C381 O377 1.253 . S
C381 O382 1.227 . S
O382 C381 1.227 . S
N383 Co369 2.140 . S
N383 C386 1.346 . S
N383 C387 1.345 . S
C384 C385 1.387 . S
C384 C388 1.391 . S
C385 C384 1.387 . S
C385 C386 1.369 . S
C385 H394 0.929 1_545 S
C386 N383 1.346 . S
C386 C385 1.369 . S
C386 H389 0.928 . S
C387 N383 1.345 . S
C387 C388 1.371 . S
C387 H390 0.931 . S
C388 C384 1.391 . S
C388 C387 1.371 . S
C388 H395 0.930 . S
H389 C386 0.928 . S
H390 C387 0.931 . S
H391 C367 0.930 . S
H392 C364 0.930 . S
H393 C373 0.930 . S
H394 C385 0.929 1_565 S
H395 C388 0.930 . S
H396 C414 0.951 . S
H397 C416 0.951 . S
H398 C418 0.950 . S
H399 C419 0.950 . S
H400 C421 0.950 . S
H401 C424 0.950 . S
H402 C425 0.950 . S
H403 C427 0.950 . S
H404 C428 0.950 . S
H405 C429 0.951 . S
H406 C431 0.951 . S
H407 C433 0.950 . S
H408 C434 0.950 1_565 S
H409 C436 0.950 . S
H410 C439 0.950 . S
H411 C440 0.950 . S
H412 C442 0.950 . S
H413 C443 0.950 . S
C414 H396 0.951 . S
C414 C415 1.366 . S
C414 C416 1.388 . S
C415 C414 1.366 . S
C415 C419 1.385 . S
C416 H397 0.951 . S
C416 C414 1.388 . S
C416 C417 1.366 . S
C417 C416 1.366 . S
C417 C418 1.414 . S
C417 C420 1.499 . S
C418 H398 0.950 . S
C418 C417 1.414 . S
C418 C419 1.374 . S
C419 H399 0.950 . S
C419 C415 1.385 . S
C419 C418 1.374 . S
C420 C417 1.499 . S
C420 C421 1.373 . S
C420 C422 1.389 . S
C421 H400 0.950 . S
C421 C420 1.373 . S
C421 C437 1.377 . S
C422 C420 1.389 . S
C422 C423 1.524 . S
C422 C436 1.377 . S
C423 C422 1.524 . S
C423 C424 1.397 . S
C423 C428 1.363 . S
C424 H401 0.950 . S
C424 C423 1.397 . S
C424 C425 1.334 . S
C425 H402 0.950 . S
C425 C424 1.334 . S
C425 C426 1.287 . S
C426 C425 1.287 . S
C426 C427 1.524 . S
C426 H445 0.913 . S
C427 H403 0.950 . S
C427 C426 1.524 . S
C427 C428 1.415 . S
C428 H404 0.950 . S
C428 C423 1.363 . S
C428 C427 1.415 . S
C429 H405 0.951 . S
C429 C430 1.366 . S
C429 C431 1.388 . S
C430 C429 1.366 . S
C430 C434 1.385 . S
C431 H406 0.951 . S
C431 C429 1.388 . S
C431 C432 1.366 . S
C432 C431 1.366 . S
C432 C433 1.414 . S
C432 C435 1.499 . S
C433 H407 0.950 . S
C433 C432 1.414 . S
C433 C434 1.374 . S
C434 H408 0.950 1_545 S
C434 C430 1.385 . S
C434 C433 1.374 . S
C435 C432 1.499 . S
C435 C436 1.373 . S
C435 C437 1.389 . S
C436 H409 0.950 . S
C436 C422 1.377 . S
C436 C435 1.373 . S
C437 C421 1.377 . S
C437 C435 1.389 . S
C437 C438 1.524 . S
C438 C437 1.524 . S
C438 C439 1.397 . S
C438 C443 1.363 . S
C439 H410 0.950 . S
C439 C438 1.397 . S
C439 C440 1.334 . S
C440 H411 0.950 . S
C440 C439 1.334 . S
C440 C441 1.287 . S
C441 C440 1.287 . S
C441 C442 1.524 . S
C441 H444 0.999 . S
C442 H412 0.950 . S
C442 C441 1.524 . S
C442 C443 1.415 . S
C443 H413 0.950 . S
C443 C438 1.363 . S
C443 C442 1.415 . S
H444 C441 0.999 . S
H445 C426 0.913 . S
H446 C464 0.951 . S
H447 C466 0.951 . S
H448 C468 0.950 . S
H449 C469 0.950 . S
H450 C471 0.950 . S
H451 C474 0.950 . S
H452 C475 0.950 . S
H453 C477 0.950 . S
H454 C478 0.950 . S
H455 C479 0.951 . S
H456 C481 0.951 . S
H457 C483 0.950 . S
H458 C484 0.950 . S
H459 C486 0.950 . S
H460 C489 0.950 . S
H461 C490 0.950 . S
H462 C492 0.950 . S
H463 C493 0.950 . S
C464 H446 0.951 . S
C464 C465 1.366 . S
C464 C466 1.388 . S
C465 C464 1.366 . S
C465 C469 1.385 . S
C466 H447 0.951 . S
C466 C464 1.388 . S
C466 C467 1.366 . S
C467 C466 1.366 . S
C467 C468 1.414 . S
C467 C470 1.499 . S
C468 H448 0.950 . S
C468 C467 1.414 . S
C468 C469 1.374 . S
C469 H449 0.950 . S
C469 C465 1.385 . S
C469 C468 1.374 . S
C470 C467 1.499 . S
C470 C471 1.373 . S
C470 C472 1.389 . S
C471 H450 0.950 . S
C471 C470 1.373 . S
C471 C487 1.377 . S
C472 C470 1.389 . S
C472 C473 1.524 . S
C472 C486 1.377 . S
C473 C472 1.524 . S
C473 C474 1.397 . S
C473 C478 1.363 . S
C474 H451 0.950 . S
C474 C473 1.397 . S
C474 C475 1.334 . S
C475 H452 0.950 . S
C475 C474 1.334 . S
C475 C476 1.287 . S
C476 C475 1.287 . S
C476 C477 1.524 . S
C476 H495 0.913 . S
C477 H453 0.950 . S
C477 C476 1.524 . S
C477 C478 1.415 . S
C478 H454 0.950 . S
C478 C473 1.363 . S
C478 C477 1.415 . S
C479 H455 0.951 . S
C479 C480 1.366 . S
C479 C481 1.388 . S
C480 C479 1.366 . S
C480 C484 1.385 . S
C481 H456 0.951 . S
C481 C479 1.388 . S
C481 C482 1.366 . S
C482 C481 1.366 . S
C482 C483 1.414 . S
C482 C485 1.499 . S
C483 H457 0.950 . S
C483 C482 1.414 . S
C483 C484 1.374 . S
C484 H458 0.950 . S
C484 C480 1.385 . S
C484 C483 1.374 . S
C485 C482 1.499 . S
C485 C486 1.373 . S
C485 C487 1.389 . S
C486 H459 0.950 . S
C486 C472 1.377 . S
C486 C485 1.373 . S
C487 C471 1.377 . S
C487 C485 1.389 . S
C487 C488 1.524 . S
C488 C487 1.524 . S
C488 C489 1.397 . S
C488 C493 1.363 . S
C489 H460 0.950 . S
C489 C488 1.397 . S
C489 C490 1.334 . S
C490 H461 0.950 . S
C490 C489 1.334 . S
C490 C491 1.287 . S
C491 C490 1.287 . S
C491 C492 1.524 . S
C491 H494 0.999 . S
C492 H462 0.950 . S
C492 C491 1.524 . S
C492 C493 1.415 . S
C493 H463 0.950 . S
C493 C488 1.363 . S
C493 C492 1.415 . S
H494 C491 0.999 . S
H495 C476 0.913 . S
H496 C514 0.951 . S
H497 C516 0.951 . S
H498 C518 0.950 . S
H499 C519 0.950 1_455 S
H500 C521 0.950 . S
H501 C524 0.950 . S
H502 C525 0.950 . S
H503 C527 0.950 . S
H504 C528 0.950 . S
H505 C529 0.951 . S
H506 C531 0.951 . S
H507 C533 0.950 . S
H508 C534 0.950 . S
H509 C536 0.950 . S
H510 C539 0.950 . S
H511 C540 0.950 . S
H512 C542 0.950 . S
H513 C543 0.950 . S
C514 H496 0.951 . S
C514 C515 1.366 . S
C514 C516 1.388 . S
C515 C514 1.366 . S
C515 C519 1.385 . S
C516 H497 0.951 . S
C516 C514 1.388 . S
C516 C517 1.366 . S
C517 C516 1.366 . S
C517 C518 1.414 . S
C517 C520 1.499 . S
C518 H498 0.950 . S
C518 C517 1.414 . S
C518 C519 1.374 . S
C519 H499 0.950 1_655 S
C519 C515 1.385 . S
C519 C518 1.374 . S
C520 C517 1.499 . S
C520 C521 1.373 . S
C520 C522 1.389 . S
C521 H500 0.950 . S
C521 C520 1.373 . S
C521 C537 1.377 . S
C522 C520 1.389 . S
C522 C523 1.524 . S
C522 C536 1.377 . S
C523 C522 1.524 . S
C523 C524 1.397 . S
C523 C528 1.363 . S
C524 H501 0.950 . S
C524 C523 1.397 . S
C524 C525 1.334 . S
C525 H502 0.950 . S
C525 C524 1.334 . S
C525 C526 1.287 . S
C526 C525 1.287 . S
C526 C527 1.524 . S
C526 H545 0.913 . S
C527 H503 0.950 . S
C527 C526 1.524 . S
C527 C528 1.415 . S
C528 H504 0.950 . S
C528 C523 1.363 . S
C528 C527 1.415 . S
C529 H505 0.951 . S
C529 C530 1.366 . S
C529 C531 1.388 . S
C530 C529 1.366 . S
C530 C534 1.385 . S
C531 H506 0.951 . S
C531 C529 1.388 . S
C531 C532 1.366 . S
C532 C531 1.366 . S
C532 C533 1.414 . S
C532 C535 1.499 . S
C533 H507 0.950 . S
C533 C532 1.414 . S
C533 C534 1.374 . S
C534 H508 0.950 . S
C534 C530 1.385 . S
C534 C533 1.374 . S
C535 C532 1.499 . S
C535 C536 1.373 . S
C535 C537 1.389 . S
C536 H509 0.950 . S
C536 C522 1.377 . S
C536 C535 1.373 . S
C537 C521 1.377 . S
C537 C535 1.389 . S
C537 C538 1.524 . S
C538 C537 1.524 . S
C538 C539 1.397 . S
C538 C543 1.363 . S
C539 H510 0.950 . S
C539 C538 1.397 . S
C539 C540 1.334 . S
C540 H511 0.950 . S
C540 C539 1.334 . S
C540 C541 1.287 . S
C541 C540 1.287 . S
C541 C542 1.524 . S
C541 H544 0.999 . S
C542 H512 0.950 . S
C542 C541 1.524 . S
C542 C543 1.415 . S
C543 H513 0.950 . S
C543 C538 1.363 . S
C543 C542 1.415 . S
H544 C541 0.999 . S
H545 C526 0.913 . S
H546 C564 0.951 . S
H547 C566 0.951 . S
H548 C568 0.950 . S
H549 C569 0.950 . S
H550 C571 0.950 . S
H551 C574 0.950 . S
H552 C575 0.950 . S
H553 C577 0.950 . S
H554 C578 0.950 . S
H555 C579 0.951 . S
H556 C581 0.951 . S
H557 C583 0.950 . S
H558 C584 0.950 . S
H559 C586 0.950 . S
H560 C589 0.950 . S
H561 C590 0.950 . S
H562 C592 0.950 . S
H563 C593 0.950 . S
C564 H546 0.951 . S
C564 C565 1.366 . S
C564 C566 1.388 . S
C565 C564 1.366 . S
C565 C569 1.385 . S
C566 H547 0.951 . S
C566 C564 1.388 . S
C566 C567 1.366 . S
C567 C566 1.366 . S
C567 C568 1.414 . S
C567 C570 1.499 . S
C568 H548 0.950 . S
C568 C567 1.414 . S
C568 C569 1.374 . S
C569 H549 0.950 . S
C569 C565 1.385 . S
C569 C568 1.374 . S
C570 C567 1.499 . S
C570 C571 1.373 . S
C570 C572 1.389 . S
C571 H550 0.950 . S
C571 C570 1.373 . S
C571 C587 1.377 . S
C572 C570 1.389 . S
C572 C573 1.524 . S
C572 C586 1.377 . S
C573 C572 1.524 . S
C573 C574 1.397 . S
C573 C578 1.363 . S
C574 H551 0.950 . S
C574 C573 1.397 . S
C574 C575 1.334 . S
C575 H552 0.950 . S
C575 C574 1.334 . S
C575 C576 1.287 . S
C576 C575 1.287 . S
C576 C577 1.524 . S
C576 H595 0.913 . S
C577 H553 0.950 . S
C577 C576 1.524 . S
C577 C578 1.415 . S
C578 H554 0.950 . S
C578 C573 1.363 . S
C578 C577 1.415 . S
C579 H555 0.951 . S
C579 C580 1.366 . S
C579 C581 1.388 . S
C580 C579 1.366 . S
C580 C584 1.385 . S
C581 H556 0.951 . S
C581 C579 1.388 . S
C581 C582 1.366 . S
C582 C581 1.366 . S
C582 C583 1.414 . S
C582 C585 1.499 . S
C583 H557 0.950 . S
C583 C582 1.414 . S
C583 C584 1.374 . S
C584 H558 0.950 . S
C584 C580 1.385 . S
C584 C583 1.374 . S
C585 C582 1.499 . S
C585 C586 1.373 . S
C585 C587 1.389 . S
C586 H559 0.950 . S
C586 C572 1.377 . S
C586 C585 1.373 . S
C587 C571 1.377 . S
C587 C585 1.389 . S
C587 C588 1.524 . S
C588 C587 1.524 . S
C588 C589 1.397 . S
C588 C593 1.363 . S
C589 H560 0.950 . S
C589 C588 1.397 . S
C589 C590 1.334 . S
C590 H561 0.950 . S
C590 C589 1.334 . S
C590 C591 1.287 . S
C591 C590 1.287 . S
C591 C592 1.524 . S
C591 H594 0.999 . S
C592 H562 0.950 . S
C592 C591 1.524 . S
C592 C593 1.415 . S
C593 H563 0.950 . S
C593 C588 1.363 . S
C593 C592 1.415 . S
H594 C591 0.999 . S
H595 C576 0.913 . S
H596 C614 0.951 1_455 S
H597 C616 0.951 . S
H598 C618 0.950 . S
H599 C619 0.950 . S
H600 C621 0.950 . S
H601 C624 0.950 . S
H602 C625 0.950 . S
H603 C627 0.950 . S
H604 C628 0.950 . S
H605 C629 0.951 . S
H606 C631 0.951 . S
H607 C633 0.950 . S
H608 C634 0.950 . S
H609 C636 0.950 . S
H610 C639 0.950 . S
H611 C640 0.950 . S
H612 C642 0.950 . S
H613 C643 0.950 . S
C614 H596 0.951 1_655 S
C614 C615 1.366 . S
C614 C616 1.388 . S
C615 C614 1.366 . S
C615 C619 1.385 . S
C616 H597 0.951 . S
C616 C614 1.388 . S
C616 C617 1.366 . S
C617 C616 1.366 . S
C617 C618 1.414 . S
C617 C620 1.499 . S
C618 H598 0.950 . S
C618 C617 1.414 . S
C618 C619 1.374 . S
C619 H599 0.950 . S
C619 C615 1.385 . S
C619 C618 1.374 . S
C620 C617 1.499 . S
C620 C621 1.373 . S
C620 C622 1.389 . S
C621 H600 0.950 . S
C621 C620 1.373 . S
C621 C637 1.377 . S
C622 C620 1.389 . S
C622 C623 1.524 . S
C622 C636 1.377 . S
C623 C622 1.524 . S
C623 C624 1.397 . S
C623 C628 1.363 . S
C624 H601 0.950 . S
C624 C623 1.397 . S
C624 C625 1.334 . S
C625 H602 0.950 . S
C625 C624 1.334 . S
C625 C626 1.287 . S
C626 C625 1.287 . S
C626 C627 1.524 . S
C626 H645 0.913 . S
C627 H603 0.950 . S
C627 C626 1.524 . S
C627 C628 1.415 . S
C628 H604 0.950 . S
C628 C623 1.363 . S
C628 C627 1.415 . S
C629 H605 0.951 . S
C629 C630 1.366 . S
C629 C631 1.388 . S
C630 C629 1.366 . S
C630 C634 1.385 . S
C631 H606 0.951 . S
C631 C629 1.388 . S
C631 C632 1.366 . S
C632 C631 1.366 . S
C632 C633 1.414 . S
C632 C635 1.499 . S
C633 H607 0.950 . S
C633 C632 1.414 . S
C633 C634 1.374 . S
C634 H608 0.950 . S
C634 C630 1.385 . S
C634 C633 1.374 . S
C635 C632 1.499 . S
C635 C636 1.373 . S
C635 C637 1.389 . S
C636 H609 0.950 . S
C636 C622 1.377 . S
C636 C635 1.373 . S
C637 C621 1.377 . S
C637 C635 1.389 . S
C637 C638 1.524 . S
C638 C637 1.524 . S
C638 C639 1.397 . S
C638 C643 1.363 . S
C639 H610 0.950 . S
C639 C638 1.397 . S
C639 C640 1.334 . S
C640 H611 0.950 . S
C640 C639 1.334 . S
C640 C641 1.287 . S
C641 C640 1.287 . S
C641 C642 1.524 . S
C641 H644 0.999 . S
C642 H612 0.950 . S
C642 C641 1.524 . S
C642 C643 1.415 . S
C643 H613 0.950 . S
C643 C638 1.363 . S
C643 C642 1.415 . S
H644 C641 0.999 . S
H645 C626 0.913 . S
H646 C664 0.951 . S
H647 C666 0.951 . S
H648 C668 0.950 . S
H649 C669 0.950 . S
H650 C671 0.950 . S
H651 C674 0.950 . S
H652 C675 0.950 1_545 S
H653 C677 0.950 . S
H654 C678 0.950 . S
H655 C679 0.951 . S
H656 C681 0.951 . S
H657 C683 0.950 . S
H658 C684 0.950 1_655 S
H659 C686 0.950 . S
H660 C689 0.950 . S
H661 C690 0.950 . S
H662 C692 0.950 . S
H663 C693 0.950 . S
C664 H646 0.951 . S
C664 C665 1.366 . S
C664 C666 1.388 . S
C665 C664 1.366 . S
C665 C669 1.385 . S
C666 H647 0.951 . S
C666 C664 1.388 . S
C666 C667 1.366 . S
C667 C666 1.366 . S
C667 C668 1.414 . S
C667 C670 1.499 . S
C668 H648 0.950 . S
C668 C667 1.414 . S
C668 C669 1.374 . S
C669 H649 0.950 . S
C669 C665 1.385 . S
C669 C668 1.374 . S
C670 C667 1.499 . S
C670 C671 1.373 . S
C670 C672 1.389 . S
C671 H650 0.950 . S
C671 C670 1.373 . S
C671 C687 1.377 . S
C672 C670 1.389 . S
C672 C673 1.524 . S
C672 C686 1.377 . S
C673 C672 1.524 . S
C673 C674 1.397 . S
C673 C678 1.363 . S
C674 H651 0.950 . S
C674 C673 1.397 . S
C674 C675 1.334 . S
C675 H652 0.950 1_565 S
C675 C674 1.334 . S
C675 C676 1.287 . S
C676 C675 1.287 . S
C676 C677 1.524 . S
C676 H695 0.913 1_565 S
C677 H653 0.950 . S
C677 C676 1.524 . S
C677 C678 1.415 . S
C678 H654 0.950 . S
C678 C673 1.363 . S
C678 C677 1.415 . S
C679 H655 0.951 . S
C679 C680 1.366 . S
C679 C681 1.388 . S
C680 C679 1.366 . S
C680 C684 1.385 . S
C681 H656 0.951 . S
C681 C679 1.388 . S
C681 C682 1.366 . S
C682 C681 1.366 . S
C682 C683 1.414 . S
C682 C685 1.499 . S
C683 H657 0.950 . S
C683 C682 1.414 . S
C683 C684 1.374 . S
C684 H658 0.950 1_455 S
C684 C680 1.385 . S
C684 C683 1.374 . S
C685 C682 1.499 . S
C685 C686 1.373 . S
C685 C687 1.389 . S
C686 H659 0.950 . S
C686 C672 1.377 . S
C686 C685 1.373 . S
C687 C671 1.377 . S
C687 C685 1.389 . S
C687 C688 1.524 . S
C688 C687 1.524 . S
C688 C689 1.397 . S
C688 C693 1.363 . S
C689 H660 0.950 . S
C689 C688 1.397 . S
C689 C690 1.334 . S
C690 H661 0.950 . S
C690 C689 1.334 . S
C690 C691 1.287 . S
C691 C690 1.287 . S
C691 C692 1.524 . S
C691 H694 0.999 . S
C692 H662 0.950 . S
C692 C691 1.524 . S
C692 C693 1.415 . S
C693 H663 0.950 . S
C693 C688 1.363 . S
C693 C692 1.415 . S
H694 C691 0.999 . S
H695 C676 0.913 1_545 S
H696 C714 0.952 . S
H697 C716 0.960 . S
H698 C718 0.950 . S
H699 C719 0.950 . S
H700 C721 0.950 . S
H701 C724 0.950 . S
H702 C725 0.950 . S
H703 C727 0.950 . S
H704 C728 0.950 . S
H705 C729 0.951 . S
H706 C731 0.952 1_556 S
H707 C733 0.950 . S
H708 C734 0.950 . S
H709 C736 0.950 . S
H710 C739 0.950 . S
H711 C740 0.950 . S
H712 C742 0.950 . S
H713 C743 0.950 . S
C714 H696 0.952 . S
C714 C715 1.366 . S
C714 C716 1.384 1_556 S
C715 C714 1.366 . S
C715 C719 1.385 . S
C716 H697 0.960 . S
C716 C714 1.384 1_554 S
C716 C717 1.359 1_554 S
C717 C716 1.359 1_556 S
C717 C718 1.435 . S
C717 C720 1.492 1_556 S
C718 H698 0.950 . S
C718 C717 1.435 . S
C718 C719 1.374 . S
C719 H699 0.950 . S
C719 C715 1.385 . S
C719 C718 1.374 . S
C720 C717 1.492 1_554 S
C720 C721 1.338 1_554 S
C720 C722 1.428 . S
C721 H700 0.950 . S
C721 C720 1.338 1_556 S
C721 C737 1.377 . S
C722 C720 1.428 . S
C722 C723 1.524 . S
C722 C736 1.377 . S
C723 C722 1.524 . S
C723 C724 1.397 . S
C723 C728 1.363 . S
C724 H701 0.950 . S
C724 C723 1.397 . S
C724 C725 1.334 . S
C725 H702 0.950 . S
C725 C724 1.334 . S
C725 C726 1.287 . S
C726 C725 1.287 . S
C726 C727 1.524 . S
C726 H745 0.913 . S
C727 H703 0.950 . S
C727 C726 1.524 . S
C727 C728 1.415 . S
C728 H704 0.950 . S
C728 C723 1.363 . S
C728 C727 1.415 . S
C729 H705 0.951 . S
C729 C730 1.366 . S
C729 C731 1.388 . S
C730 C729 1.366 . S
C730 C734 1.385 . S
C731 H706 0.952 1_554 S
C731 C729 1.388 . S
C731 C732 1.366 . S
C732 C731 1.366 . S
C732 C733 1.414 . S
C732 C735 1.499 . S
C733 H707 0.950 . S
C733 C732 1.414 . S
C733 C734 1.374 . S
C734 H708 0.950 . S
C734 C730 1.385 . S
C734 C733 1.374 . S
C735 C732 1.499 . S
C735 C736 1.373 . S
C735 C737 1.389 1_554 S
C736 H709 0.950 . S
C736 C722 1.377 . S
C736 C735 1.373 . S
C737 C721 1.377 . S
C737 C735 1.389 1_556 S
C737 C738 1.524 . S
C738 C737 1.524 . S
C738 C739 1.397 . S
C738 C743 1.363 . S
C739 H710 0.950 . S
C739 C738 1.397 . S
C739 C740 1.334 . S
C740 H711 0.950 . S
C740 C739 1.334 . S
C740 C741 1.287 . S
C741 C740 1.287 . S
C741 C742 1.524 . S
C741 H744 0.999 . S
C742 H712 0.950 . S
C742 C741 1.524 . S
C742 C743 1.415 . S
C743 H713 0.950 . S
C743 C738 1.363 . S
C743 C742 1.415 . S
H744 C741 0.999 . S
H745 C726 0.913 . S
H746 C764 0.951 . S
H747 C766 0.951 . S
H748 C768 0.950 . S
H749 C769 0.950 . S
H750 C771 0.950 . S
H751 C774 0.950 . S
H752 C775 0.950 . S
H753 C777 0.950 . S
H754 C778 0.950 . S
H755 C779 0.951 . S
H756 C781 0.951 . S
H757 C783 0.950 . S
H758 C784 0.950 . S
H759 C786 0.950 . S
H760 C789 0.950 . S
H761 C790 0.950 . S
H762 C792 0.950 . S
H763 C793 0.950 . S
C764 H746 0.951 . S
C764 C765 1.366 . S
C764 C766 1.388 . S
C765 C764 1.366 . S
C765 C769 1.385 1_655 S
C766 H747 0.951 . S
C766 C764 1.388 . S
C766 C767 1.366 1_655 S
C767 C766 1.366 1_455 S
C767 C768 1.414 . S
C767 C770 1.499 . S
C768 H748 0.950 . S
C768 C767 1.414 . S
C768 C769 1.374 . S
C769 H749 0.950 . S
C769 C765 1.385 1_455 S
C769 C768 1.374 . S
C770 C767 1.499 . S
C770 C771 1.373 . S
C770 C772 1.389 . S
C771 H750 0.950 . S
C771 C770 1.373 . S
C771 C787 1.377 . S
C772 C770 1.389 . S
C772 C773 1.524 . S
C772 C786 1.377 . S
C773 C772 1.524 . S
C773 C774 1.397 . S
C773 C778 1.363 1_455 S
C774 H751 0.950 . S
C774 C773 1.397 . S
C774 C775 1.334 . S
C775 H752 0.950 . S
C775 C774 1.334 . S
C775 C776 1.287 1_455 S
C776 C775 1.287 1_655 S
C776 C777 1.524 . S
C776 H795 0.913 . S
C777 H753 0.950 . S
C777 C776 1.524 . S
C777 C778 1.415 . S
C778 H754 0.950 . S
C778 C773 1.363 1_655 S
C778 C777 1.415 . S
C779 H755 0.951 . S
C779 C780 1.366 . S
C779 C781 1.388 . S
C780 C779 1.366 . S
C780 C784 1.385 . S
C781 H756 0.951 . S
C781 C779 1.388 . S
C781 C782 1.366 . S
C782 C781 1.366 . S
C782 C783 1.414 . S
C782 C785 1.499 . S
C783 H757 0.950 . S
C783 C782 1.414 . S
C783 C784 1.374 . S
C784 H758 0.950 . S
C784 C780 1.385 . S
C784 C783 1.374 . S
C785 C782 1.499 . S
C785 C786 1.373 . S
C785 C787 1.389 . S
C786 H759 0.950 . S
C786 C772 1.377 . S
C786 C785 1.373 . S
C787 C771 1.377 . S
C787 C785 1.389 . S
C787 C788 1.524 . S
C788 C787 1.524 . S
C788 C789 1.397 . S
C788 C793 1.363 . S
C789 H760 0.950 . S
C789 C788 1.397 . S
C789 C790 1.334 . S
C790 H761 0.950 . S
C790 C789 1.334 . S
C790 C791 1.287 . S
C791 C790 1.287 . S
C791 C792 1.524 . S
C791 H794 0.999 . S
C792 H762 0.950 . S
C792 C791 1.524 . S
C792 C793 1.415 . S
C793 H763 0.950 . S
C793 C788 1.363 . S
C793 C792 1.415 . S
H794 C791 0.999 . S
H795 C776 0.913 . S
H796 C814 0.951 . S
H797 C816 0.951 . S
H798 C818 0.950 . S
H799 C819 0.950 . S
H800 C821 0.950 . S
H801 C824 0.950 . S
H802 C825 0.950 . S
H803 C827 0.950 . S
H804 C828 0.950 . S
H805 C829 0.951 . S
H806 C831 0.951 . S
H807 C833 0.950 . S
H808 C834 0.950 . S
H809 C836 0.950 . S
H810 C839 0.950 . S
H811 C840 0.950 . S
H812 C842 0.950 . S
H813 C843 0.950 . S
C814 H796 0.951 . S
C814 C815 1.366 . S
C814 C816 1.388 . S
C815 C814 1.366 . S
C815 C819 1.385 . S
C816 H797 0.951 . S
C816 C814 1.388 . S
C816 C817 1.366 . S
C817 C816 1.366 . S
C817 C818 1.414 . S
C817 C820 1.499 . S
C818 H798 0.950 . S
C818 C817 1.414 . S
C818 C819 1.374 . S
C819 H799 0.950 . S
C819 C815 1.385 . S
C819 C818 1.374 . S
C820 C817 1.499 . S
C820 C821 1.373 . S
C820 C822 1.389 . S
C821 H800 0.950 . S
C821 C820 1.373 . S
C821 C837 1.377 . S
C822 C820 1.389 . S
C822 C823 1.524 . S
C822 C836 1.377 . S
C823 C822 1.524 . S
C823 C824 1.397 . S
C823 C828 1.363 . S
C824 H801 0.950 . S
C824 C823 1.397 . S
C824 C825 1.334 . S
C825 H802 0.950 . S
C825 C824 1.334 . S
C825 C826 1.287 . S
C826 C825 1.287 . S
C826 C827 1.524 . S
C826 H845 0.913 1_545 S
C827 H803 0.950 . S
C827 C826 1.524 . S
C827 C828 1.415 . S
C828 H804 0.950 . S
C828 C823 1.363 . S
C828 C827 1.415 . S
C829 H805 0.951 . S
C829 C830 1.366 . S
C829 C831 1.388 1_565 S
C830 C829 1.366 . S
C830 C834 1.385 . S
C831 H806 0.951 . S
C831 C829 1.388 1_545 S
C831 C832 1.366 . S
C832 C831 1.366 . S
C832 C833 1.414 . S
C832 C835 1.499 . S
C833 H807 0.950 . S
C833 C832 1.414 . S
C833 C834 1.374 1_545 S
C834 H808 0.950 . S
C834 C830 1.385 . S
C834 C833 1.374 1_565 S
C835 C832 1.499 . S
C835 C836 1.373 . S
C835 C837 1.389 . S
C836 H809 0.950 . S
C836 C822 1.377 . S
C836 C835 1.373 . S
C837 C821 1.377 . S
C837 C835 1.389 . S
C837 C838 1.524 . S
C838 C837 1.524 . S
C838 C839 1.397 . S
C838 C843 1.363 . S
C839 H810 0.950 . S
C839 C838 1.397 . S
C839 C840 1.334 . S
C840 H811 0.950 . S
C840 C839 1.334 . S
C840 C841 1.287 . S
C841 C840 1.287 . S
C841 C842 1.524 . S
C841 H844 0.999 . S
C842 H812 0.950 . S
C842 C841 1.524 . S
C842 C843 1.415 . S
C843 H813 0.950 . S
C843 C838 1.363 . S
C843 C842 1.415 . S
H844 C841 0.999 . S
H845 C826 0.913 1_565 S
H846 C864 0.951 . S
H847 C866 0.951 . S
H848 C868 0.950 . S
H849 C869 0.950 . S
H850 C871 0.950 . S
H851 C874 0.950 . S
H852 C875 0.950 . S
H853 C877 0.950 . S
H854 C878 0.950 . S
H855 C879 0.951 . S
H856 C881 0.951 . S
H857 C883 0.950 . S
H858 C884 0.950 . S
H859 C886 0.950 . S
H860 C889 0.950 . S
H861 C890 0.950 . S
H862 C892 0.950 . S
H863 C893 0.950 . S
C864 H846 0.951 . S
C864 C865 1.366 . S
C864 C866 1.388 . S
C865 C864 1.366 . S
C865 C869 1.385 . S
C866 H847 0.951 . S
C866 C864 1.388 . S
C866 C867 1.366 . S
C867 C866 1.366 . S
C867 C868 1.414 . S
C867 C870 1.499 . S
C868 H848 0.950 . S
C868 C867 1.414 . S
C868 C869 1.374 . S
C869 H849 0.950 . S
C869 C865 1.385 . S
C869 C868 1.374 . S
C870 C867 1.499 . S
C870 C871 1.373 . S
C870 C872 1.389 . S
C871 H850 0.950 . S
C871 C870 1.373 . S
C871 C887 1.377 . S
C872 C870 1.389 . S
C872 C873 1.524 . S
C872 C886 1.377 . S
C873 C872 1.524 . S
C873 C874 1.397 . S
C873 C878 1.363 . S
C874 H851 0.950 . S
C874 C873 1.397 . S
C874 C875 1.334 . S
C875 H852 0.950 . S
C875 C874 1.334 . S
C875 C876 1.287 . S
C876 C875 1.287 . S
C876 C877 1.524 . S
C876 H895 0.913 . S
C877 H853 0.950 . S
C877 C876 1.524 . S
C877 C878 1.415 . S
C878 H854 0.950 . S
C878 C873 1.363 . S
C878 C877 1.415 . S
C879 H855 0.951 . S
C879 C880 1.366 . S
C879 C881 1.388 . S
C880 C879 1.366 . S
C880 C884 1.385 . S
C881 H856 0.951 . S
C881 C879 1.388 . S
C881 C882 1.366 . S
C882 C881 1.366 . S
C882 C883 1.414 . S
C882 C885 1.499 . S
C883 H857 0.950 . S
C883 C882 1.414 . S
C883 C884 1.374 . S
C884 H858 0.950 . S
C884 C880 1.385 . S
C884 C883 1.374 . S
C885 C882 1.499 . S
C885 C886 1.373 . S
C885 C887 1.389 . S
C886 H859 0.950 . S
C886 C872 1.377 . S
C886 C885 1.373 . S
C887 C871 1.377 . S
C887 C885 1.389 . S
C887 C888 1.524 . S
C888 C887 1.524 . S
C888 C889 1.397 . S
C888 C893 1.363 . S
C889 H860 0.950 . S
C889 C888 1.397 . S
C889 C890 1.334 . S
C890 H861 0.950 . S
C890 C889 1.334 . S
C890 C891 1.287 . S
C891 C890 1.287 . S
C891 C892 1.524 . S
C891 H894 0.999 . S
C892 H862 0.950 . S
C892 C891 1.524 . S
C892 C893 1.415 . S
C893 H863 0.950 . S
C893 C888 1.363 . S
C893 C892 1.415 . S
H894 C891 0.999 . S
H895 C876 0.913 . S
H896 C914 0.951 . S
H897 C916 0.951 . S
H898 C918 0.950 . S
H899 C919 0.950 . S
H900 C921 0.950 . S
H901 C924 0.950 . S
H902 C925 0.950 . S
H903 C927 0.950 . S
H904 C928 0.950 . S
H905 C929 0.951 . S
H906 C931 0.951 . S
H907 C933 0.950 . S
H908 C934 0.950 . S
H909 C936 0.950 . S
H910 C939 0.950 . S
H911 C940 0.950 . S
H912 C942 0.950 . S
H913 C943 0.950 . S
C914 H896 0.951 . S
C914 C915 1.366 . S
C914 C916 1.388 . S
C915 C914 1.366 . S
C915 C919 1.385 . S
C916 H897 0.951 . S
C916 C914 1.388 . S
C916 C917 1.366 . S
C917 C916 1.366 . S
C917 C918 1.414 . S
C917 C920 1.499 . S
C918 H898 0.950 . S
C918 C917 1.414 . S
C918 C919 1.374 . S
C919 H899 0.950 . S
C919 C915 1.385 . S
C919 C918 1.374 . S
C920 C917 1.499 . S
C920 C921 1.373 . S
C920 C922 1.389 . S
C921 H900 0.950 . S
C921 C920 1.373 . S
C921 C937 1.377 . S
C922 C920 1.389 . S
C922 C923 1.524 . S
C922 C936 1.377 . S
C923 C922 1.524 . S
C923 C924 1.397 . S
C923 C928 1.363 . S
C924 H901 0.950 . S
C924 C923 1.397 . S
C924 C925 1.334 . S
C925 H902 0.950 . S
C925 C924 1.334 . S
C925 C926 1.287 1_655 S
C926 C925 1.287 1_455 S
C926 C927 1.524 . S
C926 H945 0.913 . S
C927 H903 0.950 . S
C927 C926 1.524 . S
C927 C928 1.415 1_455 S
C928 H904 0.950 . S
C928 C923 1.363 . S
C928 C927 1.415 1_655 S
C929 H905 0.951 . S
C929 C930 1.366 1_655 S
C929 C931 1.388 . S
C930 C929 1.366 1_455 S
C930 C934 1.385 . S
C931 H906 0.951 . S
C931 C929 1.388 . S
C931 C932 1.366 . S
C932 C931 1.366 . S
C932 C933 1.414 . S
C932 C935 1.499 . S
C933 H907 0.950 . S
C933 C932 1.414 . S
C933 C934 1.374 1_655 S
C934 H908 0.950 . S
C934 C930 1.385 . S
C934 C933 1.374 1_455 S
C935 C932 1.499 . S
C935 C936 1.373 . S
C935 C937 1.389 . S
C936 H909 0.950 . S
C936 C922 1.377 . S
C936 C935 1.373 . S
C937 C921 1.377 . S
C937 C935 1.389 . S
C937 C938 1.524 . S
C938 C937 1.524 . S
C938 C939 1.397 . S
C938 C943 1.363 . S
C939 H910 0.950 . S
C939 C938 1.397 . S
C939 C940 1.334 . S
C940 H911 0.950 . S
C940 C939 1.334 . S
C940 C941 1.287 . S
C941 C940 1.287 . S
C941 C942 1.524 . S
C941 H944 0.999 . S
C942 H912 0.950 . S
C942 C941 1.524 . S
C942 C943 1.415 . S
C943 H913 0.950 . S
C943 C938 1.363 . S
C943 C942 1.415 . S
H944 C941 0.999 . S
H945 C926 0.913 . S
H946 C964 0.951 . S
H947 C966 0.951 . S
H948 C968 0.950 . S
H949 C969 0.950 . S
H950 C971 0.950 . S
H951 C974 0.950 . S
H952 C975 0.950 . S
H953 C977 0.950 . S
H954 C978 0.950 . S
H955 C979 0.951 . S
H956 C981 0.951 . S
H957 C983 0.950 . S
H958 C984 0.950 . S
H959 C986 0.950 . S
H960 C989 0.950 1_545 S
H961 C990 0.950 . S
H962 C992 0.950 . S
H963 C993 0.950 . S
C964 H946 0.951 . S
C964 C965 1.366 . S
C964 C966 1.388 . S
C965 C964 1.366 . S
C965 C969 1.385 . S
C966 H947 0.951 . S
C966 C964 1.388 . S
C966 C967 1.366 . S
C967 C966 1.366 . S
C967 C968 1.414 . S
C967 C970 1.499 . S
C968 H948 0.950 . S
C968 C967 1.414 . S
C968 C969 1.374 . S
C969 H949 0.950 . S
C969 C965 1.385 . S
C969 C968 1.374 . S
C970 C967 1.499 . S
C970 C971 1.373 . S
C970 C972 1.389 . S
C971 H950 0.950 . S
C971 C970 1.373 . S
C971 C987 1.377 . S
C972 C970 1.389 . S
C972 C973 1.524 . S
C972 C986 1.377 . S
C973 C972 1.524 . S
C973 C974 1.397 . S
C973 C978 1.363 . S
C974 H951 0.950 . S
C974 C973 1.397 . S
C974 C975 1.334 . S
C975 H952 0.950 . S
C975 C974 1.334 . S
C975 C976 1.287 . S
C976 C975 1.287 . S
C976 C977 1.524 . S
C976 H995 0.913 . S
C977 H953 0.950 . S
C977 C976 1.524 . S
C977 C978 1.415 . S
C978 H954 0.950 . S
C978 C973 1.363 . S
C978 C977 1.415 . S
C979 H955 0.951 . S
C979 C980 1.366 1_565 S
C979 C981 1.388 . S
C980 C979 1.366 1_545 S
C980 C984 1.385 . S
C981 H956 0.951 . S
C981 C979 1.388 . S
C981 C982 1.366 . S
C982 C981 1.366 . S
C982 C983 1.414 1_565 S
C982 C985 1.499 . S
C983 H957 0.950 . S
C983 C982 1.414 1_545 S
C983 C984 1.374 . S
C984 H958 0.950 . S
C984 C980 1.385 . S
C984 C983 1.374 . S
C985 C982 1.499 . S
C985 C986 1.373 . S
C985 C987 1.389 . S
C986 H959 0.950 . S
C986 C972 1.377 . S
C986 C985 1.373 . S
C987 C971 1.377 . S
C987 C985 1.389 . S
C987 C988 1.524 . S
C988 C987 1.524 . S
C988 C989 1.397 . S
C988 C993 1.363 . S
C989 H960 0.950 1_565 S
C989 C988 1.397 . S
C989 C990 1.334 1_565 S
C990 H961 0.950 . S
C990 C989 1.334 1_545 S
C990 C991 1.287 1_545 S
C991 C990 1.287 1_565 S
C991 C992 1.524 . S
C991 H994 0.999 . S
C992 H962 0.950 . S
C992 C991 1.524 . S
C992 C993 1.415 . S
C993 H963 0.950 . S
C993 C988 1.363 . S
C993 C992 1.415 . S
H994 C991 0.999 . S
H995 C976 0.913 . S
H996 C1014 0.951 . S
H997 C1016 0.951 . S
H998 C1018 0.950 . S
H999 C1019 0.950 . S
H1000 C1021 0.950 . S
H1001 C1024 0.950 . S
H1002 C1025 0.950 . S
H1003 C1027 0.950 . S
H1004 C1028 0.950 . S
H1005 C1029 0.951 . S
H1006 C1031 0.951 . S
H1007 C1033 0.950 . S
H1008 C1034 0.950 . S
H1009 C1036 0.950 . S
H1010 C1039 0.950 . S
H1011 C1040 0.950 . S
H1012 C1042 0.950 . S
H1013 C1043 0.950 . S
C1014 H996 0.951 . S
C1014 C1015 1.366 . S
C1014 C1016 1.388 . S
C1015 C1014 1.366 . S
C1015 C1019 1.385 . S
C1016 H997 0.951 . S
C1016 C1014 1.388 . S
C1016 C1017 1.366 . S
C1017 C1016 1.366 . S
C1017 C1018 1.414 . S
C1017 C1020 1.499 . S
C1018 H998 0.950 . S
C1018 C1017 1.414 . S
C1018 C1019 1.374 . S
C1019 H999 0.950 . S
C1019 C1015 1.385 . S
C1019 C1018 1.374 . S
C1020 C1017 1.499 . S
C1020 C1021 1.373 . S
C1020 C1022 1.389 . S
C1021 H1000 0.950 . S
C1021 C1020 1.373 . S
C1021 C1037 1.377 . S
C1022 C1020 1.389 . S
C1022 C1023 1.524 . S
C1022 C1036 1.377 . S
C1023 C1022 1.524 . S
C1023 C1024 1.397 . S
C1023 C1028 1.363 . S
C1024 H1001 0.950 . S
C1024 C1023 1.397 . S
C1024 C1025 1.334 . S
C1025 H1002 0.950 . S
C1025 C1024 1.334 . S
C1025 C1026 1.287 . S
C1026 C1025 1.287 . S
C1026 C1027 1.524 . S
C1026 H1045 0.913 . S
C1027 H1003 0.950 . S
C1027 C1026 1.524 . S
C1027 C1028 1.415 . S
C1028 H1004 0.950 . S
C1028 C1023 1.363 . S
C1028 C1027 1.415 . S
C1029 H1005 0.951 . S
C1029 C1030 1.366 . S
C1029 C1031 1.388 . S
C1030 C1029 1.366 . S
C1030 C1034 1.385 . S
C1031 H1006 0.951 . S
C1031 C1029 1.388 . S
C1031 C1032 1.366 . S
C1032 C1031 1.366 . S
C1032 C1033 1.414 . S
C1032 C1035 1.499 . S
C1033 H1007 0.950 . S
C1033 C1032 1.414 . S
C1033 C1034 1.374 . S
C1034 H1008 0.950 . S
C1034 C1030 1.385 . S
C1034 C1033 1.374 . S
C1035 C1032 1.499 . S
C1035 C1036 1.373 . S
C1035 C1037 1.389 . S
C1036 H1009 0.950 . S
C1036 C1022 1.377 . S
C1036 C1035 1.373 . S
C1037 C1021 1.377 . S
C1037 C1035 1.389 . S
C1037 C1038 1.524 . S
C1038 C1037 1.524 . S
C1038 C1039 1.397 . S
C1038 C1043 1.363 . S
C1039 H1010 0.950 . S
C1039 C1038 1.397 . S
C1039 C1040 1.334 . S
C1040 H1011 0.950 . S
C1040 C1039 1.334 . S
C1040 C1041 1.287 . S
C1041 C1040 1.287 . S
C1041 C1042 1.524 . S
C1041 H1044 0.999 . S
C1042 H1012 0.950 . S
C1042 C1041 1.524 . S
C1042 C1043 1.415 . S
C1043 H1013 0.950 . S
C1043 C1038 1.363 . S
C1043 C1042 1.415 . S
H1044 C1041 0.999 . S
H1045 C1026 0.913 . S
H1046 C1064 0.951 . S
H1047 C1066 0.951 . S
H1048 C1068 0.950 . S
H1049 C1069 0.950 . S
H1050 C1071 0.950 . S
H1051 C1074 0.950 . S
H1052 C1075 0.950 . S
H1053 C1077 0.950 . S
H1054 C1078 0.950 . S
H1055 C1079 0.951 . S
H1056 C1081 0.951 . S
H1057 C1083 0.950 . S
H1058 C1084 0.950 . S
H1059 C1086 0.950 . S
H1060 C1089 0.950 . S
H1061 C1090 0.950 . S
H1062 C1092 0.950 1_655 S
H1063 C1093 0.950 1_656 S
C1064 H1046 0.951 . S
C1064 C1065 1.366 1_455 S
C1064 C1066 1.388 . S
C1065 C1064 1.366 1_655 S
C1065 C1069 1.385 . S
C1066 H1047 0.951 . S
C1066 C1064 1.388 . S
C1066 C1067 1.366 . S
C1067 C1066 1.366 . S
C1067 C1068 1.414 1_455 S
C1067 C1070 1.499 . S
C1068 H1048 0.950 . S
C1068 C1067 1.414 1_655 S
C1068 C1069 1.374 . S
C1069 H1049 0.950 . S
C1069 C1065 1.385 . S
C1069 C1068 1.374 . S
C1070 C1067 1.499 . S
C1070 C1071 1.373 . S
C1070 C1072 1.389 . S
C1071 H1050 0.950 . S
C1071 C1070 1.373 . S
C1071 C1087 1.377 . S
C1072 C1070 1.389 . S
C1072 C1073 1.524 . S
C1072 C1086 1.377 . S
C1073 C1072 1.524 . S
C1073 C1074 1.397 . S
C1073 C1078 1.363 . S
C1074 H1051 0.950 . S
C1074 C1073 1.397 . S
C1074 C1075 1.334 . S
C1075 H1052 0.950 . S
C1075 C1074 1.334 . S
C1075 C1076 1.287 . S
C1076 C1075 1.287 . S
C1076 C1077 1.524 . S
C1076 H1095 0.913 . S
C1077 H1053 0.950 . S
C1077 C1076 1.524 . S
C1077 C1078 1.415 . S
C1078 H1054 0.950 . S
C1078 C1073 1.363 . S
C1078 C1077 1.415 . S
C1079 H1055 0.951 . S
C1079 C1080 1.366 . S
C1079 C1081 1.388 . S
C1080 C1079 1.366 . S
C1080 C1084 1.385 . S
C1081 H1056 0.951 . S
C1081 C1079 1.388 . S
C1081 C1082 1.366 . S
C1082 C1081 1.366 . S
C1082 C1083 1.414 . S
C1082 C1085 1.499 . S
C1083 H1057 0.950 . S
C1083 C1082 1.414 . S
C1083 C1084 1.374 . S
C1084 H1058 0.950 . S
C1084 C1080 1.385 . S
C1084 C1083 1.374 . S
C1085 C1082 1.499 . S
C1085 C1086 1.373 . S
C1085 C1087 1.389 . S
C1086 H1059 0.950 . S
C1086 C1072 1.377 . S
C1086 C1085 1.373 . S
C1087 C1071 1.377 . S
C1087 C1085 1.389 . S
C1087 C1088 1.524 1_556 S
C1088 C1087 1.524 1_554 S
C1088 C1089 1.397 . S
C1088 C1093 1.363 . S
C1089 H1060 0.950 . S
C1089 C1088 1.397 . S
C1089 C1090 1.334 . S
C1090 H1061 0.950 . S
C1090 C1089 1.334 . S
C1090 C1091 1.287 . S
C1091 C1090 1.287 . S
C1091 C1092 1.524 . S
C1091 H1094 0.999 . S
C1092 H1062 0.950 1_455 S
C1092 C1091 1.524 . S
C1092 C1093 1.415 . S
C1093 H1063 0.950 1_454 S
C1093 C1088 1.363 . S
C1093 C1092 1.415 . S
H1094 C1091 0.999 . S
H1095 C1076 0.913 . S
H1096 C1114 0.951 . S
H1097 C1116 0.951 . S
H1098 C1118 0.950 . S
H1099 C1119 0.950 . S
H1100 C1121 0.950 . S
H1101 C1124 0.950 . S
H1102 C1125 0.950 . S
H1103 C1127 0.950 . S
H1104 C1128 0.950 . S
H1105 C1129 0.951 . S
H1106 C1131 0.951 . S
H1107 C1133 0.950 . S
H1108 C1134 0.950 . S
H1109 C1136 0.950 . S
H1110 C1139 0.950 . S
H1111 C1140 0.950 . S
H1112 C1142 0.950 . S
H1113 C1143 0.950 1_565 S
C1114 H1096 0.951 . S
C1114 C1115 1.366 1_545 S
C1114 C1116 1.388 . S
C1115 C1114 1.366 1_565 S
C1115 C1119 1.385 . S
C1116 H1097 0.951 . S
C1116 C1114 1.388 . S
C1116 C1117 1.366 . S
C1117 C1116 1.366 . S
C1117 C1118 1.414 1_545 S
C1117 C1120 1.499 . S
C1118 H1098 0.950 . S
C1118 C1117 1.414 1_565 S
C1118 C1119 1.374 . S
C1119 H1099 0.950 . S
C1119 C1115 1.385 . S
C1119 C1118 1.374 . S
C1120 C1117 1.499 . S
C1120 C1121 1.373 . S
C1120 C1122 1.389 . S
C1121 H1100 0.950 . S
C1121 C1120 1.373 . S
C1121 C1137 1.377 . S
C1122 C1120 1.389 . S
C1122 C1123 1.524 . S
C1122 C1136 1.377 . S
C1123 C1122 1.524 . S
C1123 C1124 1.397 . S
C1123 C1128 1.363 . S
C1124 H1101 0.950 . S
C1124 C1123 1.397 . S
C1124 C1125 1.334 . S
C1125 H1102 0.950 . S
C1125 C1124 1.334 . S
C1125 C1126 1.287 . S
C1126 C1125 1.287 . S
C1126 C1127 1.524 . S
C1126 H1145 0.913 . S
C1127 H1103 0.950 . S
C1127 C1126 1.524 . S
C1127 C1128 1.415 . S
C1128 H1104 0.950 . S
C1128 C1123 1.363 . S
C1128 C1127 1.415 . S
C1129 H1105 0.951 . S
C1129 C1130 1.366 . S
C1129 C1131 1.388 . S
C1130 C1129 1.366 . S
C1130 C1134 1.385 . S
C1131 H1106 0.951 . S
C1131 C1129 1.388 . S
C1131 C1132 1.366 . S
C1132 C1131 1.366 . S
C1132 C1133 1.414 . S
C1132 C1135 1.499 . S
C1133 H1107 0.950 . S
C1133 C1132 1.414 . S
C1133 C1134 1.374 . S
C1134 H1108 0.950 . S
C1134 C1130 1.385 . S
C1134 C1133 1.374 . S
C1135 C1132 1.499 . S
C1135 C1136 1.373 . S
C1135 C1137 1.389 . S
C1136 H1109 0.950 . S
C1136 C1122 1.377 . S
C1136 C1135 1.373 . S
C1137 C1121 1.377 . S
C1137 C1135 1.389 . S
C1137 C1138 1.524 . S
C1138 C1137 1.524 . S
C1138 C1139 1.397 . S
C1138 C1143 1.363 . S
C1139 H1110 0.950 . S
C1139 C1138 1.397 . S
C1139 C1140 1.334 . S
C1140 H1111 0.950 . S
C1140 C1139 1.334 . S
C1140 C1141 1.287 . S
C1141 C1140 1.287 . S
C1141 C1142 1.524 1_545 S
C1141 H1144 0.999 . S
C1142 H1112 0.950 . S
C1142 C1141 1.524 1_565 S
C1142 C1143 1.415 1_565 S
C1143 H1113 0.950 1_545 S
C1143 C1138 1.363 . S
C1143 C1142 1.415 1_545 S
H1144 C1141 0.999 . S
H1145 C1126 0.913 . S
H1146 C1164 0.951 . S
H1147 C1166 0.951 . S
H1148 C1168 0.950 . S
H1149 C1169 0.950 . S
H1150 C1171 0.950 . S
H1151 C1174 0.950 . S
H1152 C1175 0.950 . S
H1153 C1177 0.950 . S
H1154 C1178 0.950 . S
H1155 C1179 0.951 . S
H1156 C1181 0.951 . S
H1157 C1183 0.950 . S
H1158 C1184 0.950 . S
H1159 C1186 0.950 . S
H1160 C1189 0.950 . S
H1161 C1190 0.950 . S
H1162 C1192 0.950 . S
H1163 C1193 0.950 . S
C1164 H1146 0.951 . S
C1164 C1165 1.366 . S
C1164 C1166 1.388 . S
C1165 C1164 1.366 . S
C1165 C1169 1.385 . S
C1166 H1147 0.951 . S
C1166 C1164 1.388 . S
C1166 C1167 1.366 . S
C1167 C1166 1.366 . S
C1167 C1168 1.414 . S
C1167 C1170 1.499 . S
C1168 H1148 0.950 . S
C1168 C1167 1.414 . S
C1168 C1169 1.374 . S
C1169 H1149 0.950 . S
C1169 C1165 1.385 . S
C1169 C1168 1.374 . S
C1170 C1167 1.499 . S
C1170 C1171 1.373 . S
C1170 C1172 1.389 . S
C1171 H1150 0.950 . S
C1171 C1170 1.373 . S
C1171 C1187 1.377 . S
C1172 C1170 1.389 . S
C1172 C1173 1.524 . S
C1172 C1186 1.377 . S
C1173 C1172 1.524 . S
C1173 C1174 1.397 . S
C1173 C1178 1.363 . S
C1174 H1151 0.950 . S
C1174 C1173 1.397 . S
C1174 C1175 1.334 . S
C1175 H1152 0.950 . S
C1175 C1174 1.334 . S
C1175 C1176 1.287 . S
C1176 C1175 1.287 . S
C1176 C1177 1.524 . S
C1176 H1195 0.913 . S
C1177 H1153 0.950 . S
C1177 C1176 1.524 . S
C1177 C1178 1.415 . S
C1178 H1154 0.950 . S
C1178 C1173 1.363 . S
C1178 C1177 1.415 . S
C1179 H1155 0.951 . S
C1179 C1180 1.366 . S
C1179 C1181 1.388 . S
C1180 C1179 1.366 . S
C1180 C1184 1.385 . S
C1181 H1156 0.951 . S
C1181 C1179 1.388 . S
C1181 C1182 1.366 . S
C1182 C1181 1.366 . S
C1182 C1183 1.414 . S
C1182 C1185 1.499 . S
C1183 H1157 0.950 . S
C1183 C1182 1.414 . S
C1183 C1184 1.374 . S
C1184 H1158 0.950 . S
C1184 C1180 1.385 . S
C1184 C1183 1.374 . S
C1185 C1182 1.499 . S
C1185 C1186 1.373 . S
C1185 C1187 1.389 . S
C1186 H1159 0.950 . S
C1186 C1172 1.377 . S
C1186 C1185 1.373 . S
C1187 C1171 1.377 . S
C1187 C1185 1.389 . S
C1187 C1188 1.524 . S
C1188 C1187 1.524 . S
C1188 C1189 1.397 . S
C1188 C1193 1.363 . S
C1189 H1160 0.950 . S
C1189 C1188 1.397 . S
C1189 C1190 1.334 . S
C1190 H1161 0.950 . S
C1190 C1189 1.334 . S
C1190 C1191 1.287 . S
C1191 C1190 1.287 . S
C1191 C1192 1.524 . S
C1191 H1194 0.999 . S
C1192 H1162 0.950 . S
C1192 C1191 1.524 . S
C1192 C1193 1.415 . S
C1193 H1163 0.950 . S
C1193 C1188 1.363 . S
C1193 C1192 1.415 . S
H1194 C1191 0.999 . S
H1195 C1176 0.913 . S
H1196 C1214 0.951 . S
H1197 C1216 0.951 . S
H1198 C1218 0.950 . S
H1199 C1219 0.950 . S
H1200 C1221 0.950 . S
H1201 C1224 0.950 . S
H1202 C1225 0.950 . S
H1203 C1227 0.950 1_455 S
H1204 C1228 0.962 . S
H1205 C1229 0.951 . S
H1206 C1231 0.951 . S
H1207 C1233 0.950 . S
H1208 C1234 0.950 . S
H1209 C1236 0.950 . S
H1210 C1239 0.950 . S
H1211 C1240 0.950 . S
H1212 C1242 0.950 . S
H1213 C1243 0.950 . S
C1214 H1196 0.951 . S
C1214 C1215 1.366 . S
C1214 C1216 1.388 . S
C1215 C1214 1.366 . S
C1215 C1219 1.385 . S
C1216 H1197 0.951 . S
C1216 C1214 1.388 . S
C1216 C1217 1.366 . S
C1217 C1216 1.366 . S
C1217 C1218 1.414 . S
C1217 C1220 1.499 . S
C1218 H1198 0.950 . S
C1218 C1217 1.414 . S
C1218 C1219 1.374 . S
C1219 H1199 0.950 . S
C1219 C1215 1.385 . S
C1219 C1218 1.374 . S
C1220 C1217 1.499 . S
C1220 C1221 1.373 . S
C1220 C1222 1.389 . S
C1221 H1200 0.950 . S
C1221 C1220 1.373 . S
C1221 C1237 1.377 . S
C1222 C1220 1.389 . S
C1222 C1223 1.524 . S
C1222 C1236 1.377 . S
C1223 C1222 1.524 . S
C1223 C1224 1.397 . S
C1223 C1228 1.363 . S
C1224 H1201 0.950 . S
C1224 C1223 1.397 . S
C1224 C1225 1.334 . S
C1225 H1202 0.950 . S
C1225 C1224 1.334 . S
C1225 C1226 1.287 . S
C1226 C1225 1.287 . S
C1226 C1227 1.524 . S
C1226 H1245 0.913 . S
C1227 H1203 0.950 1_655 S
C1227 C1226 1.524 . S
C1227 C1228 1.415 . S
C1228 H1204 0.962 . S
C1228 C1223 1.363 . S
C1228 C1227 1.415 . S
C1229 H1205 0.951 . S
C1229 C1230 1.366 1_655 S
C1229 C1231 1.388 . S
C1230 C1229 1.366 1_455 S
C1230 C1234 1.385 . S
C1231 H1206 0.951 . S
C1231 C1229 1.388 . S
C1231 C1232 1.366 . S
C1232 C1231 1.366 . S
C1232 C1233 1.414 1_655 S
C1232 C1235 1.499 . S
C1233 H1207 0.950 . S
C1233 C1232 1.414 1_455 S
C1233 C1234 1.374 . S
C1234 H1208 0.950 . S
C1234 C1230 1.385 . S
C1234 C1233 1.374 . S
C1235 C1232 1.499 . S
C1235 C1236 1.373 . S
C1235 C1237 1.389 . S
C1236 H1209 0.950 . S
C1236 C1222 1.377 . S
C1236 C1235 1.373 . S
C1237 C1221 1.377 . S
C1237 C1235 1.389 . S
C1237 C1238 1.524 . S
C1238 C1237 1.524 . S
C1238 C1239 1.397 . S
C1238 C1243 1.363 . S
C1239 H1210 0.950 . S
C1239 C1238 1.397 . S
C1239 C1240 1.334 . S
C1240 H1211 0.950 . S
C1240 C1239 1.334 . S
C1240 C1241 1.287 . S
C1241 C1240 1.287 . S
C1241 C1242 1.524 . S
C1241 H1244 0.999 . S
C1242 H1212 0.950 . S
C1242 C1241 1.524 . S
C1242 C1243 1.415 . S
C1243 H1213 0.950 . S
C1243 C1238 1.363 . S
C1243 C1242 1.415 . S
H1244 C1241 0.999 . S
H1245 C1226 0.913 . S
H1246 C1264 0.951 . S
H1247 C1266 0.951 . S
H1248 C1268 0.950 . S
H1249 C1269 0.950 . S
H1250 C1271 0.950 . S
H1251 C1274 0.950 . S
H1252 C1275 0.950 . S
H1253 C1277 0.950 . S
H1254 C1278 0.950 . S
H1255 C1279 0.951 . S
H1256 C1281 0.951 . S
H1257 C1283 0.950 . S
H1258 C1284 0.950 . S
H1259 C1286 0.950 . S
H1260 C1289 0.950 . S
H1261 C1290 0.950 . S
H1262 C1292 0.950 . S
H1263 C1293 0.950 . S
C1264 H1246 0.951 . S
C1264 C1265 1.366 . S
C1264 C1266 1.388 . S
C1265 C1264 1.366 . S
C1265 C1269 1.385 . S
C1266 H1247 0.951 . S
C1266 C1264 1.388 . S
C1266 C1267 1.366 . S
C1267 C1266 1.366 . S
C1267 C1268 1.414 . S
C1267 C1270 1.499 . S
C1268 H1248 0.950 . S
C1268 C1267 1.414 . S
C1268 C1269 1.374 . S
C1269 H1249 0.950 . S
C1269 C1265 1.385 . S
C1269 C1268 1.374 . S
C1270 C1267 1.499 . S
C1270 C1271 1.373 . S
C1270 C1272 1.389 . S
C1271 H1250 0.950 . S
C1271 C1270 1.373 . S
C1271 C1287 1.377 . S
C1272 C1270 1.389 . S
C1272 C1273 1.524 . S
C1272 C1286 1.377 . S
C1273 C1272 1.524 . S
C1273 C1274 1.397 . S
C1273 C1278 1.363 . S
C1274 H1251 0.950 . S
C1274 C1273 1.397 . S
C1274 C1275 1.334 . S
C1275 H1252 0.950 . S
C1275 C1274 1.334 . S
C1275 C1276 1.287 . S
C1276 C1275 1.287 . S
C1276 C1277 1.524 . S
C1276 H1295 0.913 . S
C1277 H1253 0.950 . S
C1277 C1276 1.524 . S
C1277 C1278 1.415 . S
C1278 H1254 0.950 . S
C1278 C1273 1.363 . S
C1278 C1277 1.415 . S
C1279 H1255 0.951 . S
C1279 C1280 1.366 . S
C1279 C1281 1.388 . S
C1280 C1279 1.366 . S
C1280 C1284 1.385 1_545 S
C1281 H1256 0.951 . S
C1281 C1279 1.388 . S
C1281 C1282 1.366 1_545 S
C1282 C1281 1.366 1_565 S
C1282 C1283 1.414 . S
C1282 C1285 1.499 . S
C1283 H1257 0.950 . S
C1283 C1282 1.414 . S
C1283 C1284 1.374 . S
C1284 H1258 0.950 . S
C1284 C1280 1.385 1_565 S
C1284 C1283 1.374 . S
C1285 C1282 1.499 . S
C1285 C1286 1.373 . S
C1285 C1287 1.389 . S
C1286 H1259 0.950 . S
C1286 C1272 1.377 . S
C1286 C1285 1.373 . S
C1287 C1271 1.377 . S
C1287 C1285 1.389 . S
C1287 C1288 1.524 . S
C1288 C1287 1.524 . S
C1288 C1289 1.397 . S
C1288 C1293 1.363 . S
C1289 H1260 0.950 . S
C1289 C1288 1.397 . S
C1289 C1290 1.334 . S
C1290 H1261 0.950 . S
C1290 C1289 1.334 . S
C1290 C1291 1.287 . S
C1291 C1290 1.287 . S
C1291 C1292 1.524 . S
C1291 H1294 0.999 . S
C1292 H1262 0.950 . S
C1292 C1291 1.524 . S
C1292 C1293 1.415 . S
C1293 H1263 0.950 . S
C1293 C1288 1.363 . S
C1293 C1292 1.415 . S
H1294 C1291 0.999 . S
H1295 C1276 0.913 . S
H1296 C1314 0.951 . S
H1297 C1316 0.951 . S
H1298 C1318 0.950 . S
H1299 C1319 0.950 . S
H1300 C1321 0.950 . S
H1301 C1324 0.950 . S
H1302 C1325 0.950 . S
H1303 C1327 0.950 . S
H1304 C1328 0.950 . S
H1305 C1329 0.951 . S
H1306 C1331 0.951 . S
H1307 C1333 0.950 . S
H1308 C1334 0.950 . S
H1309 C1336 0.950 . S
H1310 C1339 0.950 . S
H1311 C1340 0.950 . S
H1312 C1342 0.950 . S
H1313 C1343 0.950 . S
C1314 H1296 0.951 . S
C1314 C1315 1.366 . S
C1314 C1316 1.388 . S
C1315 C1314 1.366 . S
C1315 C1319 1.385 . S
C1316 H1297 0.951 . S
C1316 C1314 1.388 . S
C1316 C1317 1.366 . S
C1317 C1316 1.366 . S
C1317 C1318 1.414 . S
C1317 C1320 1.499 . S
C1318 H1298 0.950 . S
C1318 C1317 1.414 . S
C1318 C1319 1.374 . S
C1319 H1299 0.950 . S
C1319 C1315 1.385 . S
C1319 C1318 1.374 . S
C1320 C1317 1.499 . S
C1320 C1321 1.373 . S
C1320 C1322 1.389 . S
C1321 H1300 0.950 . S
C1321 C1320 1.373 . S
C1321 C1337 1.377 . S
C1322 C1320 1.389 . S
C1322 C1323 1.524 . S
C1322 C1336 1.377 . S
C1323 C1322 1.524 . S
C1323 C1324 1.397 . S
C1323 C1328 1.363 . S
C1324 H1301 0.950 . S
C1324 C1323 1.397 . S
C1324 C1325 1.334 . S
C1325 H1302 0.950 . S
C1325 C1324 1.334 . S
C1325 C1326 1.287 . S
C1326 C1325 1.287 . S
C1326 C1327 1.524 . S
C1326 H1345 0.913 . S
C1327 H1303 0.950 . S
C1327 C1326 1.524 . S
C1327 C1328 1.415 . S
C1328 H1304 0.950 . S
C1328 C1323 1.363 . S
C1328 C1327 1.415 . S
C1329 H1305 0.951 . S
C1329 C1330 1.366 . S
C1329 C1331 1.388 . S
C1330 C1329 1.366 . S
C1330 C1334 1.385 . S
C1331 H1306 0.951 . S
C1331 C1329 1.388 . S
C1331 C1332 1.366 . S
C1332 C1331 1.366 . S
C1332 C1333 1.414 . S
C1332 C1335 1.499 . S
C1333 H1307 0.950 . S
C1333 C1332 1.414 . S
C1333 C1334 1.374 . S
C1334 H1308 0.950 . S
C1334 C1330 1.385 . S
C1334 C1333 1.374 . S
C1335 C1332 1.499 . S
C1335 C1336 1.373 . S
C1335 C1337 1.389 . S
C1336 H1309 0.950 . S
C1336 C1322 1.377 . S
C1336 C1335 1.373 . S
C1337 C1321 1.377 . S
C1337 C1335 1.389 . S
C1337 C1338 1.524 . S
C1338 C1337 1.524 . S
C1338 C1339 1.397 . S
C1338 C1343 1.363 . S
C1339 H1310 0.950 . S
C1339 C1338 1.397 . S
C1339 C1340 1.334 . S
C1340 H1311 0.950 . S
C1340 C1339 1.334 . S
C1340 C1341 1.287 . S
C1341 C1340 1.287 . S
C1341 C1342 1.524 . S
C1341 H1344 0.999 . S
C1342 H1312 0.950 . S
C1342 C1341 1.524 . S
C1342 C1343 1.415 . S
C1343 H1313 0.950 . S
C1343 C1338 1.363 . S
C1343 C1342 1.415 . S
H1344 C1341 0.999 . S
H1345 C1326 0.913 . S
H1346 C1364 0.951 . S
H1347 C1366 0.951 . S
H1348 C1368 0.950 . S
H1349 C1369 0.950 . S
H1350 C1371 0.950 . S
H1351 C1374 0.950 . S
H1352 C1375 0.950 . S
H1353 C1377 0.950 . S
H1354 C1378 0.950 . S
H1355 C1379 0.951 . S
H1356 C1381 0.951 . S
H1357 C1383 0.950 . S
H1358 C1384 0.950 . S
H1359 C1386 0.950 . S
H1360 C1389 0.950 . S
H1361 C1390 0.950 . S
H1362 C1392 0.950 . S
H1363 C1393 0.950 . S
C1364 H1346 0.951 . S
C1364 C1365 1.366 . S
C1364 C1366 1.388 . S
C1365 C1364 1.366 . S
C1365 C1369 1.385 . S
C1366 H1347 0.951 . S
C1366 C1364 1.388 . S
C1366 C1367 1.366 . S
C1367 C1366 1.366 . S
C1367 C1368 1.414 . S
C1367 C1370 1.499 . S
C1368 H1348 0.950 . S
C1368 C1367 1.414 . S
C1368 C1369 1.374 . S
C1369 H1349 0.950 . S
C1369 C1365 1.385 . S
C1369 C1368 1.374 . S
C1370 C1367 1.499 . S
C1370 C1371 1.373 . S
C1370 C1372 1.389 . S
C1371 H1350 0.950 . S
C1371 C1370 1.373 . S
C1371 C1387 1.377 . S
C1372 C1370 1.389 . S
C1372 C1373 1.524 . S
C1372 C1386 1.377 . S
C1373 C1372 1.524 . S
C1373 C1374 1.397 . S
C1373 C1378 1.363 . S
C1374 H1351 0.950 . S
C1374 C1373 1.397 . S
C1374 C1375 1.334 . S
C1375 H1352 0.950 . S
C1375 C1374 1.334 . S
C1375 C1376 1.287 . S
C1376 C1375 1.287 . S
C1376 C1377 1.524 . S
C1376 H1395 0.913 . S
C1377 H1353 0.950 . S
C1377 C1376 1.524 . S
C1377 C1378 1.415 . S
C1378 H1354 0.950 . S
C1378 C1373 1.363 . S
C1378 C1377 1.415 . S
C1379 H1355 0.951 . S
C1379 C1380 1.366 . S
C1379 C1381 1.388 1_655 S
C1380 C1379 1.366 . S
C1380 C1384 1.385 . S
C1381 H1356 0.951 . S
C1381 C1379 1.388 1_455 S
C1381 C1382 1.366 . S
C1382 C1381 1.366 . S
C1382 C1383 1.414 1_455 S
C1382 C1385 1.499 . S
C1383 H1357 0.950 . S
C1383 C1382 1.414 1_655 S
C1383 C1384 1.374 . S
C1384 H1358 0.950 . S
C1384 C1380 1.385 . S
C1384 C1383 1.374 . S
C1385 C1382 1.499 . S
C1385 C1386 1.373 . S
C1385 C1387 1.389 . S
C1386 H1359 0.950 . S
C1386 C1372 1.377 . S
C1386 C1385 1.373 . S
C1387 C1371 1.377 . S
C1387 C1385 1.389 . S
C1387 C1388 1.524 . S
C1388 C1387 1.524 . S
C1388 C1389 1.397 1_455 S
C1388 C1393 1.363 . S
C1389 H1360 0.950 . S
C1389 C1388 1.397 1_655 S
C1389 C1390 1.334 . S
C1390 H1361 0.950 . S
C1390 C1389 1.334 . S
C1390 C1391 1.287 . S
C1391 C1390 1.287 . S
C1391 C1392 1.524 1_655 S
C1391 H1394 0.999 . S
C1392 H1362 0.950 . S
C1392 C1391 1.524 1_455 S
C1392 C1393 1.415 . S
C1393 H1363 0.950 . S
C1393 C1388 1.363 . S
C1393 C1392 1.415 . S
H1394 C1391 0.999 . S
H1395 C1376 0.913 . S
H1396 C1414 0.951 . S
H1397 C1416 0.951 . S
H1398 C1418 0.950 . S
H1399 C1419 0.950 . S
H1400 C1421 0.950 . S
H1401 C1424 0.950 . S
H1402 C1425 0.950 . S
H1403 C1427 0.950 . S
H1404 C1428 0.950 . S
H1405 C1429 0.951 . S
H1406 C1431 0.951 . S
H1407 C1433 0.950 . S
H1408 C1434 0.950 . S
H1409 C1436 0.950 . S
H1410 C1439 0.950 . S
H1411 C1440 0.950 . S
H1412 C1442 0.950 . S
H1413 C1443 0.950 1_565 S
C1414 H1396 0.951 . S
C1414 C1415 1.366 . S
C1414 C1416 1.388 1_565 S
C1415 C1414 1.366 . S
C1415 C1419 1.385 . S
C1416 H1397 0.951 . S
C1416 C1414 1.388 1_545 S
C1416 C1417 1.366 . S
C1417 C1416 1.366 . S
C1417 C1418 1.414 1_545 S
C1417 C1420 1.499 . S
C1418 H1398 0.950 . S
C1418 C1417 1.414 1_565 S
C1418 C1419 1.374 . S
C1419 H1399 0.950 . S
C1419 C1415 1.385 . S
C1419 C1418 1.374 . S
C1420 C1417 1.499 . S
C1420 C1421 1.373 . S
C1420 C1422 1.389 . S
C1421 H1400 0.950 . S
C1421 C1420 1.373 . S
C1421 C1437 1.377 . S
C1422 C1420 1.389 . S
C1422 C1423 1.524 . S
C1422 C1436 1.377 . S
C1423 C1422 1.524 . S
C1423 C1424 1.397 . S
C1423 C1428 1.363 . S
C1424 H1401 0.950 . S
C1424 C1423 1.397 . S
C1424 C1425 1.334 . S
C1425 H1402 0.950 . S
C1425 C1424 1.334 . S
C1425 C1426 1.287 . S
C1426 C1425 1.287 . S
C1426 C1427 1.524 . S
C1426 H1445 0.913 . S
C1427 H1403 0.950 . S
C1427 C1426 1.524 . S
C1427 C1428 1.415 . S
C1428 H1404 0.950 . S
C1428 C1423 1.363 . S
C1428 C1427 1.415 . S
C1429 H1405 0.951 . S
C1429 C1430 1.366 . S
C1429 C1431 1.388 . S
C1430 C1429 1.366 . S
C1430 C1434 1.385 . S
C1431 H1406 0.951 . S
C1431 C1429 1.388 . S
C1431 C1432 1.366 . S
C1432 C1431 1.366 . S
C1432 C1433 1.414 . S
C1432 C1435 1.499 . S
C1433 H1407 0.950 . S
C1433 C1432 1.414 . S
C1433 C1434 1.374 . S
C1434 H1408 0.950 . S
C1434 C1430 1.385 . S
C1434 C1433 1.374 . S
C1435 C1432 1.499 . S
C1435 C1436 1.373 . S
C1435 C1437 1.389 . S
C1436 H1409 0.950 . S
C1436 C1422 1.377 . S
C1436 C1435 1.373 . S
C1437 C1421 1.377 . S
C1437 C1435 1.389 . S
C1437 C1438 1.524 . S
C1438 C1437 1.524 . S
C1438 C1439 1.397 . S
C1438 C1443 1.363 . S
C1439 H1410 0.950 . S
C1439 C1438 1.397 . S
C1439 C1440 1.334 . S
C1440 H1411 0.950 . S
C1440 C1439 1.334 . S
C1440 C1441 1.287 1_545 S
C1441 C1440 1.287 1_565 S
C1441 C1442 1.524 . S
C1441 H1444 0.999 . S
C1442 H1412 0.950 . S
C1442 C1441 1.524 . S
C1442 C1443 1.415 1_565 S
C1443 H1413 0.950 1_545 S
C1443 C1438 1.363 . S
C1443 C1442 1.415 1_545 S
H1444 C1441 0.999 . S
H1445 C1426 0.913 . S
H1446 C1464 0.951 . S
H1447 C1466 0.951 . S
H1448 C1468 0.950 . S
H1449 C1469 0.950 . S
H1450 C1471 0.950 . S
H1451 C1474 0.950 . S
H1452 C1475 0.950 . S
H1453 C1477 0.950 . S
H1454 C1478 0.950 . S
H1455 C1479 0.951 . S
H1456 C1481 0.951 . S
H1457 C1483 0.950 . S
H1458 C1484 0.950 . S
H1459 C1486 0.950 . S
H1460 C1489 0.950 . S
H1461 C1490 0.950 . S
H1462 C1492 0.950 . S
H1463 C1493 0.950 . S
C1464 H1446 0.951 . S
C1464 C1465 1.366 . S
C1464 C1466 1.388 . S
C1465 C1464 1.366 . S
C1465 C1469 1.385 . S
C1466 H1447 0.951 . S
C1466 C1464 1.388 . S
C1466 C1467 1.366 . S
C1467 C1466 1.366 . S
C1467 C1468 1.414 . S
C1467 C1470 1.499 . S
C1468 H1448 0.950 . S
C1468 C1467 1.414 . S
C1468 C1469 1.374 . S
C1469 H1449 0.950 . S
C1469 C1465 1.385 . S
C1469 C1468 1.374 . S
C1470 C1467 1.499 . S
C1470 C1471 1.373 . S
C1470 C1472 1.389 . S
C1471 H1450 0.950 . S
C1471 C1470 1.373 . S
C1471 C1487 1.377 . S
C1472 C1470 1.389 . S
C1472 C1473 1.524 . S
C1472 C1486 1.377 . S
C1473 C1472 1.524 . S
C1473 C1474 1.397 . S
C1473 C1478 1.363 . S
C1474 H1451 0.950 . S
C1474 C1473 1.397 . S
C1474 C1475 1.334 . S
C1475 H1452 0.950 . S
C1475 C1474 1.334 . S
C1475 C1476 1.287 . S
C1476 C1475 1.287 . S
C1476 C1477 1.524 . S
C1476 H1495 0.913 . S
C1477 H1453 0.950 . S
C1477 C1476 1.524 . S
C1477 C1478 1.415 . S
C1478 H1454 0.950 . S
C1478 C1473 1.363 . S
C1478 C1477 1.415 . S
C1479 H1455 0.951 . S
C1479 C1480 1.366 . S
C1479 C1481 1.388 . S
C1480 C1479 1.366 . S
C1480 C1484 1.385 . S
C1481 H1456 0.951 . S
C1481 C1479 1.388 . S
C1481 C1482 1.366 . S
C1482 C1481 1.366 . S
C1482 C1483 1.414 . S
C1482 C1485 1.499 . S
C1483 H1457 0.950 . S
C1483 C1482 1.414 . S
C1483 C1484 1.374 . S
C1484 H1458 0.950 . S
C1484 C1480 1.385 . S
C1484 C1483 1.374 . S
C1485 C1482 1.499 . S
C1485 C1486 1.373 . S
C1485 C1487 1.389 . S
C1486 H1459 0.950 . S
C1486 C1472 1.377 . S
C1486 C1485 1.373 . S
C1487 C1471 1.377 . S
C1487 C1485 1.389 . S
C1487 C1488 1.524 . S
C1488 C1487 1.524 . S
C1488 C1489 1.397 . S
C1488 C1493 1.363 . S
C1489 H1460 0.950 . S
C1489 C1488 1.397 . S
C1489 C1490 1.334 . S
C1490 H1461 0.950 . S
C1490 C1489 1.334 . S
C1490 C1491 1.287 . S
C1491 C1490 1.287 . S
C1491 C1492 1.524 . S
C1491 H1494 0.999 . S
C1492 H1462 0.950 . S
C1492 C1491 1.524 . S
C1492 C1493 1.415 . S
C1493 H1463 0.950 . S
C1493 C1488 1.363 . S
C1493 C1492 1.415 . S
H1494 C1491 0.999 . S
H1495 C1476 0.913 . S
H1496 C1514 0.951 . S
H1497 C1516 0.951 . S
H1498 C1518 0.950 . S
H1499 C1519 0.950 . S
H1500 C1521 0.950 . S
H1501 C1524 0.950 . S
H1502 C1525 0.950 . S
H1503 C1527 0.973 . S
H1504 C1528 0.950 1_455 S
H1505 C1529 0.951 . S
H1506 C1531 0.951 . S
H1507 C1533 0.950 . S
H1508 C1534 0.950 . S
H1509 C1536 0.950 . S
H1510 C1539 0.950 . S
H1511 C1540 0.950 . S
H1512 C1542 0.950 . S
H1513 C1543 0.950 . S
C1514 H1496 0.951 . S
C1514 C1515 1.366 . S
C1514 C1516 1.388 . S
C1515 C1514 1.366 . S
C1515 C1519 1.385 . S
C1516 H1497 0.951 . S
C1516 C1514 1.388 . S
C1516 C1517 1.366 . S
C1517 C1516 1.366 . S
C1517 C1518 1.414 . S
C1517 C1520 1.499 . S
C1518 H1498 0.950 . S
C1518 C1517 1.414 . S
C1518 C1519 1.374 . S
C1519 H1499 0.950 . S
C1519 C1515 1.385 . S
C1519 C1518 1.374 . S
C1520 C1517 1.499 . S
C1520 C1521 1.373 . S
C1520 C1522 1.389 . S
C1521 H1500 0.950 . S
C1521 C1520 1.373 . S
C1521 C1537 1.377 . S
C1522 C1520 1.389 . S
C1522 C1523 1.524 . S
C1522 C1536 1.377 . S
C1523 C1522 1.524 . S
C1523 C1524 1.397 . S
C1523 C1528 1.363 . S
C1524 H1501 0.950 . S
C1524 C1523 1.397 . S
C1524 C1525 1.334 . S
C1525 H1502 0.950 . S
C1525 C1524 1.334 . S
C1525 C1526 1.287 . S
C1526 C1525 1.287 . S
C1526 C1527 1.515 1_655 S
C1526 H1545 0.913 . S
C1527 H1503 0.973 . S
C1527 C1526 1.515 1_455 S
C1527 C1528 1.398 1_455 S
C1528 H1504 0.950 1_655 S
C1528 C1523 1.363 . S
C1528 C1527 1.398 1_655 S
C1529 H1505 0.951 . S
C1529 C1530 1.366 1_655 S
C1529 C1531 1.388 . S
C1530 C1529 1.366 1_455 S
C1530 C1534 1.385 . S
C1531 H1506 0.951 . S
C1531 C1529 1.388 . S
C1531 C1532 1.366 . S
C1532 C1531 1.366 . S
C1532 C1533 1.414 1_655 S
C1532 C1535 1.499 . S
C1533 H1507 0.950 . S
C1533 C1532 1.414 1_455 S
C1533 C1534 1.374 . S
C1534 H1508 0.950 . S
C1534 C1530 1.385 . S
C1534 C1533 1.374 . S
C1535 C1532 1.499 . S
C1535 C1536 1.373 . S
C1535 C1537 1.389 . S
C1536 H1509 0.950 . S
C1536 C1522 1.377 . S
C1536 C1535 1.373 . S
C1537 C1521 1.377 . S
C1537 C1535 1.389 . S
C1537 C1538 1.524 . S
C1538 C1537 1.524 . S
C1538 C1539 1.397 . S
C1538 C1543 1.363 . S
C1539 H1510 0.950 . S
C1539 C1538 1.397 . S
C1539 C1540 1.334 . S
C1540 H1511 0.950 . S
C1540 C1539 1.334 . S
C1540 C1541 1.287 . S
C1541 C1540 1.287 . S
C1541 C1542 1.524 . S
C1541 H1544 0.999 . S
C1542 H1512 0.950 . S
C1542 C1541 1.524 . S
C1542 C1543 1.415 . S
C1543 H1513 0.950 . S
C1543 C1538 1.363 . S
C1543 C1542 1.415 . S
H1544 C1541 0.999 . S
H1545 C1526 0.913 . S
H1546 C1564 0.951 . S
H1547 C1566 0.951 . S
H1548 C1568 0.950 . S
H1549 C1569 0.950 . S
H1550 C1571 0.950 . S
H1551 C1574 0.950 . S
H1552 C1575 0.950 . S
H1553 C1577 0.950 . S
H1554 C1578 0.950 . S
H1555 C1579 0.951 . S
H1556 C1581 0.951 . S
H1557 C1583 0.950 . S
H1558 C1584 0.950 . S
H1559 C1586 0.950 . S
H1560 C1589 0.950 . S
H1561 C1590 0.950 . S
H1562 C1592 0.950 . S
H1563 C1593 0.950 . S
C1564 H1546 0.951 . S
C1564 C1565 1.366 . S
C1564 C1566 1.388 . S
C1565 C1564 1.366 . S
C1565 C1569 1.385 . S
C1566 H1547 0.951 . S
C1566 C1564 1.388 . S
C1566 C1567 1.366 . S
C1567 C1566 1.366 . S
C1567 C1568 1.414 . S
C1567 C1570 1.499 . S
C1568 H1548 0.950 . S
C1568 C1567 1.414 . S
C1568 C1569 1.374 . S
C1569 H1549 0.950 . S
C1569 C1565 1.385 . S
C1569 C1568 1.374 . S
C1570 C1567 1.499 . S
C1570 C1571 1.373 . S
C1570 C1572 1.389 . S
C1571 H1550 0.950 . S
C1571 C1570 1.373 . S
C1571 C1587 1.377 . S
C1572 C1570 1.389 . S
C1572 C1573 1.524 . S
C1572 C1586 1.377 . S
C1573 C1572 1.524 . S
C1573 C1574 1.397 . S
C1573 C1578 1.363 . S
C1574 H1551 0.950 . S
C1574 C1573 1.397 . S
C1574 C1575 1.334 . S
C1575 H1552 0.950 . S
C1575 C1574 1.334 . S
C1575 C1576 1.287 . S
C1576 C1575 1.287 . S
C1576 C1577 1.524 . S
C1576 H1595 0.913 . S
C1577 H1553 0.950 . S
C1577 C1576 1.524 . S
C1577 C1578 1.415 . S
C1578 H1554 0.950 . S
C1578 C1573 1.363 . S
C1578 C1577 1.415 . S
C1579 H1555 0.951 . S
C1579 C1580 1.366 . S
C1579 C1581 1.388 1_545 S
C1580 C1579 1.366 . S
C1580 C1584 1.385 . S
C1581 H1556 0.951 . S
C1581 C1579 1.388 1_565 S
C1581 C1582 1.366 . S
C1582 C1581 1.366 . S
C1582 C1583 1.414 1_565 S
C1582 C1585 1.499 . S
C1583 H1557 0.950 . S
C1583 C1582 1.414 1_545 S
C1583 C1584 1.374 . S
C1584 H1558 0.950 . S
C1584 C1580 1.385 . S
C1584 C1583 1.374 . S
C1585 C1582 1.499 . S
C1585 C1586 1.373 . S
C1585 C1587 1.389 . S
C1586 H1559 0.950 . S
C1586 C1572 1.377 . S
C1586 C1585 1.373 . S
C1587 C1571 1.377 . S
C1587 C1585 1.389 . S
C1587 C1588 1.524 . S
C1588 C1587 1.524 . S
C1588 C1589 1.397 1_565 S
C1588 C1593 1.363 . S
C1589 H1560 0.950 . S
C1589 C1588 1.397 1_545 S
C1589 C1590 1.334 . S
C1590 H1561 0.950 . S
C1590 C1589 1.334 . S
C1590 C1591 1.287 . S
C1591 C1590 1.287 . S
C1591 C1592 1.524 1_545 S
C1591 H1594 0.999 . S
C1592 H1562 0.950 . S
C1592 C1591 1.524 1_565 S
C1592 C1593 1.415 . S
C1593 H1563 0.950 . S
C1593 C1588 1.363 . S
C1593 C1592 1.415 . S
H1594 C1591 0.999 . S
H1595 C1576 0.913 . S
H1596 C1614 0.951 . S
H1597 C1616 0.951 . S
H1598 C1618 0.950 . S
H1599 C1619 0.950 . S
H1600 C1621 0.950 . S
H1601 C1624 0.950 . S
H1602 C1625 0.950 . S
H1603 C1627 0.950 . S
H1604 C1628 0.950 . S
H1605 C1629 0.951 . S
H1606 C1631 0.951 . S
H1607 C1633 0.950 . S
H1608 C1634 0.950 . S
H1609 C1636 0.950 . S
H1610 C1639 0.950 . S
H1611 C1640 0.950 . S
H1612 C1642 0.950 . S
H1613 C1643 0.950 . S
C1614 H1596 0.951 . S
C1614 C1615 1.366 . S
C1614 C1616 1.388 . S
C1615 C1614 1.366 . S
C1615 C1619 1.385 . S
C1616 H1597 0.951 . S
C1616 C1614 1.388 . S
C1616 C1617 1.366 . S
C1617 C1616 1.366 . S
C1617 C1618 1.414 . S
C1617 C1620 1.499 . S
C1618 H1598 0.950 . S
C1618 C1617 1.414 . S
C1618 C1619 1.374 . S
C1619 H1599 0.950 . S
C1619 C1615 1.385 . S
C1619 C1618 1.374 . S
C1620 C1617 1.499 . S
C1620 C1621 1.373 . S
C1620 C1622 1.389 . S
C1621 H1600 0.950 . S
C1621 C1620 1.373 . S
C1621 C1637 1.377 . S
C1622 C1620 1.389 . S
C1622 C1623 1.524 . S
C1622 C1636 1.377 . S
C1623 C1622 1.524 . S
C1623 C1624 1.397 . S
C1623 C1628 1.363 . S
C1624 H1601 0.950 . S
C1624 C1623 1.397 . S
C1624 C1625 1.334 . S
C1625 H1602 0.950 . S
C1625 C1624 1.334 . S
C1625 C1626 1.287 . S
C1626 C1625 1.287 . S
C1626 C1627 1.524 . S
C1626 H1645 0.913 . S
C1627 H1603 0.950 . S
C1627 C1626 1.524 . S
C1627 C1628 1.415 . S
C1628 H1604 0.950 . S
C1628 C1623 1.363 . S
C1628 C1627 1.415 . S
C1629 H1605 0.951 . S
C1629 C1630 1.366 . S
C1629 C1631 1.388 . S
C1630 C1629 1.366 . S
C1630 C1634 1.385 . S
C1631 H1606 0.951 . S
C1631 C1629 1.388 . S
C1631 C1632 1.366 . S
C1632 C1631 1.366 . S
C1632 C1633 1.414 . S
C1632 C1635 1.499 . S
C1633 H1607 0.950 . S
C1633 C1632 1.414 . S
C1633 C1634 1.374 . S
C1634 H1608 0.950 . S
C1634 C1630 1.385 . S
C1634 C1633 1.374 . S
C1635 C1632 1.499 . S
C1635 C1636 1.373 . S
C1635 C1637 1.389 . S
C1636 H1609 0.950 . S
C1636 C1622 1.377 . S
C1636 C1635 1.373 . S
C1637 C1621 1.377 . S
C1637 C1635 1.389 . S
C1637 C1638 1.524 . S
C1638 C1637 1.524 . S
C1638 C1639 1.397 . S
C1638 C1643 1.363 . S
C1639 H1610 0.950 . S
C1639 C1638 1.397 . S
C1639 C1640 1.334 . S
C1640 H1611 0.950 . S
C1640 C1639 1.334 . S
C1640 C1641 1.287 . S
C1641 C1640 1.287 . S
C1641 C1642 1.524 . S
C1641 H1644 0.999 . S
C1642 H1612 0.950 . S
C1642 C1641 1.524 . S
C1642 C1643 1.415 . S
C1643 H1613 0.950 . S
C1643 C1638 1.363 . S
C1643 C1642 1.415 . S
H1644 C1641 0.999 . S
H1645 C1626 0.913 . S
H1646 C1664 0.951 . S
H1647 C1666 0.951 . S
H1648 C1668 0.950 . S
H1649 C1669 0.950 1_456 S
H1650 C1671 0.950 . S
H1651 C1674 0.950 . S
H1652 C1675 0.950 . S
H1653 C1677 0.950 . S
H1654 C1678 0.950 . S
H1655 C1679 0.951 . S
H1656 C1681 0.951 . S
H1657 C1683 0.950 . S
H1658 C1684 0.950 . S
H1659 C1686 0.950 . S
H1660 C1689 0.950 . S
H1661 C1690 0.950 . S
H1662 C1692 0.950 . S
H1663 C1693 0.950 . S
C1664 H1646 0.951 . S
C1664 C1665 1.366 . S
C1664 C1666 1.388 . S
C1665 C1664 1.366 . S
C1665 C1669 1.385 . S
C1666 H1647 0.951 . S
C1666 C1664 1.388 . S
C1666 C1667 1.366 1_655 S
C1667 C1666 1.366 1_455 S
C1667 C1668 1.414 . S
C1667 C1670 1.499 . S
C1668 H1648 0.950 . S
C1668 C1667 1.414 . S
C1668 C1669 1.374 1_455 S
C1669 H1649 0.950 1_654 S
C1669 C1665 1.385 . S
C1669 C1668 1.374 1_655 S
C1670 C1667 1.499 . S
C1670 C1671 1.373 . S
C1670 C1672 1.389 . S
C1671 H1650 0.950 . S
C1671 C1670 1.373 . S
C1671 C1687 1.377 . S
C1672 C1670 1.389 . S
C1672 C1673 1.524 . S
C1672 C1686 1.377 . S
C1673 C1672 1.524 . S
C1673 C1674 1.397 . S
C1673 C1678 1.363 . S
C1674 H1651 0.950 . S
C1674 C1673 1.397 . S
C1674 C1675 1.334 . S
C1675 H1652 0.950 . S
C1675 C1674 1.334 . S
C1675 C1676 1.287 . S
C1676 C1675 1.287 . S
C1676 C1677 1.524 . S
C1676 H1695 0.913 . S
C1677 H1653 0.950 . S
C1677 C1676 1.524 . S
C1677 C1678 1.415 . S
C1678 H1654 0.950 . S
C1678 C1673 1.363 . S
C1678 C1677 1.415 . S
C1679 H1655 0.951 . S
C1679 C1680 1.366 . S
C1679 C1681 1.388 . S
C1680 C1679 1.366 . S
C1680 C1684 1.385 . S
C1681 H1656 0.951 . S
C1681 C1679 1.388 . S
C1681 C1682 1.366 . S
C1682 C1681 1.366 . S
C1682 C1683 1.414 . S
C1682 C1685 1.499 . S
C1683 H1657 0.950 . S
C1683 C1682 1.414 . S
C1683 C1684 1.374 . S
C1684 H1658 0.950 . S
C1684 C1680 1.385 . S
C1684 C1683 1.374 . S
C1685 C1682 1.499 . S
C1685 C1686 1.373 . S
C1685 C1687 1.389 . S
C1686 H1659 0.950 . S
C1686 C1672 1.377 . S
C1686 C1685 1.373 . S
C1687 C1671 1.377 . S
C1687 C1685 1.389 . S
C1687 C1688 1.524 . S
C1688 C1687 1.524 . S
C1688 C1689 1.397 . S
C1688 C1693 1.363 . S
C1689 H1660 0.950 . S
C1689 C1688 1.397 . S
C1689 C1690 1.334 . S
C1690 H1661 0.950 . S
C1690 C1689 1.334 . S
C1690 C1691 1.287 . S
C1691 C1690 1.287 . S
C1691 C1692 1.524 . S
C1691 H1694 0.999 . S
C1692 H1662 0.950 . S
C1692 C1691 1.524 . S
C1692 C1693 1.415 . S
C1693 H1663 0.950 . S
C1693 C1688 1.363 . S
C1693 C1692 1.415 . S
H1694 C1691 0.999 . S
H1695 C1676 0.913 . S
H1696 C1714 0.951 . S
H1697 C1716 0.951 . S
H1698 C1718 0.950 . S
H1699 C1719 0.950 . S
H1700 C1721 0.950 . S
H1701 C1724 0.950 . S
H1702 C1725 0.950 . S
H1703 C1727 0.950 . S
H1704 C1728 0.950 . S
H1705 C1729 0.951 . S
H1706 C1731 0.951 . S
H1707 C1733 0.950 . S
H1708 C1734 0.950 . S
H1709 C1736 0.950 . S
H1710 C1739 0.950 . S
H1711 C1740 0.950 . S
H1712 C1742 0.950 . S
H1713 C1743 0.950 1_565 S
C1714 H1696 0.951 . S
C1714 C1715 1.366 1_545 S
C1714 C1716 1.388 . S
C1715 C1714 1.366 1_565 S
C1715 C1719 1.385 . S
C1716 H1697 0.951 . S
C1716 C1714 1.388 . S
C1716 C1717 1.366 . S
C1717 C1716 1.366 . S
C1717 C1718 1.414 1_545 S
C1717 C1720 1.499 . S
C1718 H1698 0.950 . S
C1718 C1717 1.414 1_565 S
C1718 C1719 1.374 . S
C1719 H1699 0.950 . S
C1719 C1715 1.385 . S
C1719 C1718 1.374 . S
C1720 C1717 1.499 . S
C1720 C1721 1.373 . S
C1720 C1722 1.389 . S
C1721 H1700 0.950 . S
C1721 C1720 1.373 . S
C1721 C1737 1.377 . S
C1722 C1720 1.389 . S
C1722 C1723 1.524 . S
C1722 C1736 1.377 . S
C1723 C1722 1.524 . S
C1723 C1724 1.397 . S
C1723 C1728 1.363 . S
C1724 H1701 0.950 . S
C1724 C1723 1.397 . S
C1724 C1725 1.334 . S
C1725 H1702 0.950 . S
C1725 C1724 1.334 . S
C1725 C1726 1.287 . S
C1726 C1725 1.287 . S
C1726 C1727 1.524 . S
C1726 H1745 0.913 . S
C1727 H1703 0.950 . S
C1727 C1726 1.524 . S
C1727 C1728 1.415 . S
C1728 H1704 0.950 . S
C1728 C1723 1.363 . S
C1728 C1727 1.415 . S
C1729 H1705 0.951 . S
C1729 C1730 1.366 . S
C1729 C1731 1.388 . S
C1730 C1729 1.366 . S
C1730 C1734 1.385 . S
C1731 H1706 0.951 . S
C1731 C1729 1.388 . S
C1731 C1732 1.366 . S
C1732 C1731 1.366 . S
C1732 C1733 1.414 . S
C1732 C1735 1.499 . S
C1733 H1707 0.950 . S
C1733 C1732 1.414 . S
C1733 C1734 1.374 . S
C1734 H1708 0.950 . S
C1734 C1730 1.385 . S
C1734 C1733 1.374 . S
C1735 C1732 1.499 . S
C1735 C1736 1.373 . S
C1735 C1737 1.389 . S
C1736 H1709 0.950 . S
C1736 C1722 1.377 . S
C1736 C1735 1.373 . S
C1737 C1721 1.377 . S
C1737 C1735 1.389 . S
C1737 C1738 1.524 . S
C1738 C1737 1.524 . S
C1738 C1739 1.397 . S
C1738 C1743 1.363 . S
C1739 H1710 0.950 . S
C1739 C1738 1.397 . S
C1739 C1740 1.334 . S
C1740 H1711 0.950 . S
C1740 C1739 1.334 . S
C1740 C1741 1.287 . S
C1741 C1740 1.287 . S
C1741 C1742 1.524 1_545 S
C1741 H1744 0.999 . S
C1742 H1712 0.950 . S
C1742 C1741 1.524 1_565 S
C1742 C1743 1.415 1_565 S
C1743 H1713 0.950 1_545 S
C1743 C1738 1.363 . S
C1743 C1742 1.415 1_545 S
H1744 C1741 0.999 . S
H1745 C1726 0.913 . S
H1746 C1764 0.951 . S
H1747 C1766 0.951 . S
H1748 C1768 0.950 . S
H1749 C1769 0.950 . S
H1750 C1771 0.950 . S
H1751 C1774 0.950 . S
H1752 C1775 0.950 . S
H1753 C1777 0.950 . S
H1754 C1778 0.950 . S
H1755 C1779 0.951 . S
H1756 C1781 0.951 . S
H1757 C1783 0.950 . S
H1758 C1784 0.950 . S
H1759 C1786 0.950 . S
H1760 C1789 0.950 . S
H1761 C1790 0.950 . S
H1762 C1792 0.950 . S
H1763 C1793 0.950 . S
C1764 H1746 0.951 . S
C1764 C1765 1.366 . S
C1764 C1766 1.388 . S
C1765 C1764 1.366 . S
C1765 C1769 1.385 . S
C1766 H1747 0.951 . S
C1766 C1764 1.388 . S
C1766 C1767 1.366 . S
C1767 C1766 1.366 . S
C1767 C1768 1.414 . S
C1767 C1770 1.499 . S
C1768 H1748 0.950 . S
C1768 C1767 1.414 . S
C1768 C1769 1.374 . S
C1769 H1749 0.950 . S
C1769 C1765 1.385 . S
C1769 C1768 1.374 . S
C1770 C1767 1.499 . S
C1770 C1771 1.373 . S
C1770 C1772 1.389 . S
C1771 H1750 0.950 . S
C1771 C1770 1.373 . S
C1771 C1787 1.377 . S
C1772 C1770 1.389 . S
C1772 C1773 1.524 . S
C1772 C1786 1.377 . S
C1773 C1772 1.524 . S
C1773 C1774 1.397 . S
C1773 C1778 1.363 . S
C1774 H1751 0.950 . S
C1774 C1773 1.397 . S
C1774 C1775 1.334 . S
C1775 H1752 0.950 . S
C1775 C1774 1.334 . S
C1775 C1776 1.287 . S
C1776 C1775 1.287 . S
C1776 C1777 1.524 . S
C1776 H1795 0.913 . S
C1777 H1753 0.950 . S
C1777 C1776 1.524 . S
C1777 C1778 1.415 . S
C1778 H1754 0.950 . S
C1778 C1773 1.363 . S
C1778 C1777 1.415 . S
C1779 H1755 0.951 . S
C1779 C1780 1.366 . S
C1779 C1781 1.388 . S
C1780 C1779 1.366 . S
C1780 C1784 1.385 . S
C1781 H1756 0.951 . S
C1781 C1779 1.388 . S
C1781 C1782 1.366 . S
C1782 C1781 1.366 . S
C1782 C1783 1.414 . S
C1782 C1785 1.499 . S
C1783 H1757 0.950 . S
C1783 C1782 1.414 . S
C1783 C1784 1.374 . S
C1784 H1758 0.950 . S
C1784 C1780 1.385 . S
C1784 C1783 1.374 . S
C1785 C1782 1.499 . S
C1785 C1786 1.373 . S
C1785 C1787 1.389 . S
C1786 H1759 0.950 . S
C1786 C1772 1.377 . S
C1786 C1785 1.373 . S
C1787 C1771 1.377 . S
C1787 C1785 1.389 . S
C1787 C1788 1.524 . S
C1788 C1787 1.524 . S
C1788 C1789 1.397 . S
C1788 C1793 1.363 . S
C1789 H1760 0.950 . S
C1789 C1788 1.397 . S
C1789 C1790 1.334 . S
C1790 H1761 0.950 . S
C1790 C1789 1.334 . S
C1790 C1791 1.287 . S
C1791 C1790 1.287 . S
C1791 C1792 1.524 . S
C1791 H1794 0.999 . S
C1792 H1762 0.950 . S
C1792 C1791 1.524 . S
C1792 C1793 1.415 . S
C1793 H1763 0.950 . S
C1793 C1788 1.363 . S
C1793 C1792 1.415 . S
H1794 C1791 0.999 . S
H1795 C1776 0.913 . S
H1796 C1814 0.951 . S
H1797 C1816 0.951 . S
H1798 C1818 0.950 . S
H1799 C1819 0.950 . S
H1800 C1821 0.950 . S
H1801 C1824 0.950 . S
H1802 C1825 0.950 . S
H1803 C1827 0.950 . S
H1804 C1828 0.950 . S
H1805 C1829 0.951 . S
H1806 C1831 0.951 . S
H1807 C1833 0.950 . S
H1808 C1834 0.936 1_655 S
H1809 C1836 0.950 . S
H1810 C1839 0.950 . S
H1811 C1840 0.950 . S
H1812 C1842 0.950 . S
H1813 C1843 0.950 . S
C1814 H1796 0.951 . S
C1814 C1815 1.366 . S
C1814 C1816 1.388 . S
C1815 C1814 1.366 . S
C1815 C1819 1.385 . S
C1816 H1797 0.951 . S
C1816 C1814 1.388 . S
C1816 C1817 1.366 . S
C1817 C1816 1.366 . S
C1817 C1818 1.414 . S
C1817 C1820 1.499 . S
C1818 H1798 0.950 . S
C1818 C1817 1.414 . S
C1818 C1819 1.374 . S
C1819 H1799 0.950 . S
C1819 C1815 1.385 . S
C1819 C1818 1.374 . S
C1820 C1817 1.499 . S
C1820 C1821 1.373 . S
C1820 C1822 1.389 . S
C1821 H1800 0.950 . S
C1821 C1820 1.373 . S
C1821 C1837 1.377 . S
C1822 C1820 1.389 . S
C1822 C1823 1.524 . S
C1822 C1836 1.377 . S
C1823 C1822 1.524 . S
C1823 C1824 1.397 . S
C1823 C1828 1.363 . S
C1824 H1801 0.950 . S
C1824 C1823 1.397 . S
C1824 C1825 1.334 . S
C1825 H1802 0.950 . S
C1825 C1824 1.334 . S
C1825 C1826 1.287 . S
C1826 C1825 1.287 . S
C1826 C1827 1.524 . S
C1826 H1845 0.913 . S
C1827 H1803 0.950 . S
C1827 C1826 1.524 . S
C1827 C1828 1.415 . S
C1828 H1804 0.950 . S
C1828 C1823 1.363 . S
C1828 C1827 1.415 . S
C1829 H1805 0.951 . S
C1829 C1830 1.366 . S
C1829 C1831 1.388 . S
C1830 C1829 1.366 . S
C1830 C1834 1.415 . S
C1831 H1806 0.951 . S
C1831 C1829 1.388 . S
C1831 C1832 1.366 1_455 S
C1832 C1831 1.366 1_655 S
C1832 C1833 1.414 . S
C1832 C1835 1.499 . S
C1833 H1807 0.950 . S
C1833 C1832 1.414 . S
C1833 C1834 1.358 1_655 S
C1834 H1808 0.936 1_455 S
C1834 C1830 1.415 . S
C1834 C1833 1.358 1_455 S
C1835 C1832 1.499 . S
C1835 C1836 1.373 . S
C1835 C1837 1.389 . S
C1836 H1809 0.950 . S
C1836 C1822 1.377 . S
C1836 C1835 1.373 . S
C1837 C1821 1.377 . S
C1837 C1835 1.389 . S
C1837 C1838 1.524 1_655 S
C1838 C1837 1.524 1_455 S
C1838 C1839 1.397 . S
C1838 C1843 1.363 . S
C1839 H1810 0.950 . S
C1839 C1838 1.397 . S
C1839 C1840 1.334 . S
C1840 H1811 0.950 . S
C1840 C1839 1.334 . S
C1840 C1841 1.287 . S
C1841 C1840 1.287 . S
C1841 C1842 1.524 . S
C1841 H1844 0.999 . S
C1842 H1812 0.950 . S
C1842 C1841 1.524 . S
C1842 C1843 1.415 . S
C1843 H1813 0.950 . S
C1843 C1838 1.363 . S
C1843 C1842 1.415 . S
H1844 C1841 0.999 . S
H1845 C1826 0.913 . S
H1846 C1864 0.951 . S
H1847 C1866 0.951 . S
H1848 C1868 0.950 . S
H1849 C1869 0.950 . S
H1850 C1871 0.950 . S
H1851 C1874 0.950 . S
H1852 C1875 0.950 . S
H1853 C1877 0.950 . S
H1854 C1878 0.950 . S
H1855 C1879 0.951 . S
H1856 C1881 0.951 . S
H1857 C1883 0.950 . S
H1858 C1884 0.950 . S
H1859 C1886 0.950 . S
H1860 C1889 0.950 . S
H1861 C1890 0.950 . S
H1862 C1892 0.950 . S
H1863 C1893 0.950 . S
C1864 H1846 0.951 . S
C1864 C1865 1.366 . S
C1864 C1866 1.388 . S
C1865 C1864 1.366 . S
C1865 C1869 1.385 1_545 S
C1866 H1847 0.951 . S
C1866 C1864 1.388 . S
C1866 C1867 1.366 1_545 S
C1867 C1866 1.366 1_565 S
C1867 C1868 1.414 . S
C1867 C1870 1.499 . S
C1868 H1848 0.950 . S
C1868 C1867 1.414 . S
C1868 C1869 1.374 . S
C1869 H1849 0.950 . S
C1869 C1865 1.385 1_565 S
C1869 C1868 1.374 . S
C1870 C1867 1.499 . S
C1870 C1871 1.373 . S
C1870 C1872 1.389 . S
C1871 H1850 0.950 . S
C1871 C1870 1.373 . S
C1871 C1887 1.377 . S
C1872 C1870 1.389 . S
C1872 C1873 1.524 . S
C1872 C1886 1.377 . S
C1873 C1872 1.524 . S
C1873 C1874 1.397 . S
C1873 C1878 1.363 . S
C1874 H1851 0.950 . S
C1874 C1873 1.397 . S
C1874 C1875 1.334 . S
C1875 H1852 0.950 . S
C1875 C1874 1.334 . S
C1875 C1876 1.287 . S
C1876 C1875 1.287 . S
C1876 C1877 1.524 1_565 S
C1876 H1895 0.913 1_565 S
C1877 H1853 0.950 . S
C1877 C1876 1.524 1_545 S
C1877 C1878 1.415 1_545 S
C1878 H1854 0.950 . S
C1878 C1873 1.363 . S
C1878 C1877 1.415 1_565 S
C1879 H1855 0.951 . S
C1879 C1880 1.366 . S
C1879 C1881 1.388 . S
C1880 C1879 1.366 . S
C1880 C1884 1.385 . S
C1881 H1856 0.951 . S
C1881 C1879 1.388 . S
C1881 C1882 1.366 . S
C1882 C1881 1.366 . S
C1882 C1883 1.414 . S
C1882 C1885 1.499 . S
C1883 H1857 0.950 . S
C1883 C1882 1.414 . S
C1883 C1884 1.374 . S
C1884 H1858 0.950 . S
C1884 C1880 1.385 . S
C1884 C1883 1.374 . S
C1885 C1882 1.499 . S
C1885 C1886 1.373 . S
C1885 C1887 1.389 . S
C1886 H1859 0.950 . S
C1886 C1872 1.377 . S
C1886 C1885 1.373 . S
C1887 C1871 1.377 . S
C1887 C1885 1.389 . S
C1887 C1888 1.524 . S
C1888 C1887 1.524 . S
C1888 C1889 1.397 . S
C1888 C1893 1.363 . S
C1889 H1860 0.950 . S
C1889 C1888 1.397 . S
C1889 C1890 1.334 . S
C1890 H1861 0.950 . S
C1890 C1889 1.334 . S
C1890 C1891 1.287 . S
C1891 C1890 1.287 . S
C1891 C1892 1.524 . S
C1891 H1894 0.999 . S
C1892 H1862 0.950 . S
C1892 C1891 1.524 . S
C1892 C1893 1.415 . S
C1893 H1863 0.950 . S
C1893 C1888 1.363 . S
C1893 C1892 1.415 . S
H1894 C1891 0.999 . S
H1895 C1876 0.913 1_545 S
C415 N2 0.678 . S
C430 N266 0.676 . S
C465 N299 0.675 . S
C480 N35 0.675 . S
C515 N332 0.676 . S
C530 N68 0.675 . S
C565 N101 0.675 . S
C580 N365 0.675 . S
C615 N134 0.677 . S
C630 N200 0.679 . S
C665 N167 0.678 . S
C680 N233 0.676 . S
C715 N244 1.886 . S
C730 C21 1.871 . S
C765 C54 1.871 . S
C780 N277 1.885 . S
C815 N310 1.885 . S
C830 C87 1.871 . S
C865 N343 1.885 . S
C880 C120 1.871 . S
C915 N376 1.886 . S
C930 C153 1.871 . S
C965 N211 1.885 . S
C980 C186 1.871 . S
C1015 N178 1.886 . S
C1030 C219 1.871 . S
C1065 C252 1.871 . S
C1080 N13 1.885 . S
C1115 C285 1.871 . S
C1130 N46 1.886 . S
C1165 N79 1.885 . S
C1180 C318 1.871 . S
C1215 N112 1.886 . S
C1230 C351 1.871 . S
C1265 N145 1.886 . S
C1280 C384 1.871 . S
C1315 C183 0.782 . S
C1330 C7 0.775 . S
C1365 C18 0.781 . S
C1380 C40 0.774 . S
C1415 C73 0.776 . S
C1430 C51 0.781 . S
C1465 C84 0.781 . S
C1480 C106 0.776 . S
C1515 C117 0.781 . S
C1530 C139 0.775 . S
C1565 C150 0.781 . S
C1580 C172 0.774 . S
C1615 C205 0.774 . S
C1630 C249 0.781 . S
C1665 C238 0.725 1_554 S
C1680 C282 0.781 . S
C1715 C271 0.777 . S
C1730 C315 0.782 . S
C1765 C348 0.782 . S
C1780 C304 0.776 . S
C1815 C381 0.782 . S
C1830 C337 0.775 . S
C1865 C370 0.774 . S
C1880 C216 0.781 . S
