# Generated by pormake.
# Topology fcn, (5)-cn, num edge types: 1
# Building blocks:
#     Node 0, Type 0, BuildingBlock: BEQFEK_clean_sbu_0, # of connection points: 5
#     Node 1, Type 0, BuildingBlock: BEQFEK_clean_sbu_0, # of connection points: 5
#     Node 2, Type 0, BuildingBlock: BEQFEK_clean_sbu_0, # of connection points: 5
#     Node 3, Type 0, BuildingBlock: BEQFEK_clean_sbu_0, # of connection points: 5
#     Node 4, Type 0, BuildingBlock: BEQFEK_clean_sbu_0, # of connection points: 5
#     Node 5, Type 0, BuildingBlock: BEQFEK_clean_sbu_0, # of connection points: 5
#     Node 6, Type 0, BuildingBlock: BEQFEK_clean_sbu_0, # of connection points: 5
#     Node 7, Type 0, BuildingBlock: BEQFEK_clean_sbu_0, # of connection points: 5
#     Node 8, Type 0, BuildingBlock: BEQFEK_clean_sbu_0, # of connection points: 5
#     Node 9, Type 0, BuildingBlock: BEQFEK_clean_sbu_0, # of connection points: 5
#     Node 10, Type 0, BuildingBlock: BEQFEK_clean_sbu_0, # of connection points: 5
#     Node 11, Type 0, BuildingBlock: BEQFEK_clean_sbu_0, # of connection points: 5
#     Node 12, Type 0, BuildingBlock: BEQFEK_clean_sbu_0, # of connection points: 5
#     Node 13, Type 0, BuildingBlock: BEQFEK_clean_sbu_0, # of connection points: 5
#     Node 14, Type 0, BuildingBlock: BEQFEK_clean_sbu_0, # of connection points: 5
#     Node 15, Type 0, BuildingBlock: BEQFEK_clean_sbu_0, # of connection points: 5
#     Node 16, Type 0, BuildingBlock: BEQFEK_clean_sbu_0, # of connection points: 5
#     Node 17, Type 0, BuildingBlock: BEQFEK_clean_sbu_0, # of connection points: 5
#     Node 18, Type 0, BuildingBlock: BEQFEK_clean_sbu_0, # of connection points: 5
#     Node 19, Type 0, BuildingBlock: BEQFEK_clean_sbu_0, # of connection points: 5
#     Node 20, Type 0, BuildingBlock: BEQFEK_clean_sbu_0, # of connection points: 5
#     Node 21, Type 0, BuildingBlock: BEQFEK_clean_sbu_0, # of connection points: 5
#     Node 22, Type 0, BuildingBlock: BEQFEK_clean_sbu_0, # of connection points: 5
#     Node 23, Type 0, BuildingBlock: BEQFEK_clean_sbu_0, # of connection points: 5
#     Node 24, Type 0, BuildingBlock: BEQFEK_clean_sbu_0, # of connection points: 5
#     Node 25, Type 0, BuildingBlock: BEQFEK_clean_sbu_0, # of connection points: 5
#     Node 26, Type 0, BuildingBlock: BEQFEK_clean_sbu_0, # of connection points: 5
#     Node 27, Type 0, BuildingBlock: BEQFEK_clean_sbu_0, # of connection points: 5
#     Node 28, Type 0, BuildingBlock: BEQFEK_clean_sbu_0, # of connection points: 5
#     Node 29, Type 0, BuildingBlock: BEQFEK_clean_sbu_0, # of connection points: 5
#     Node 30, Type 0, BuildingBlock: BEQFEK_clean_sbu_0, # of connection points: 5
#     Node 31, Type 0, BuildingBlock: BEQFEK_clean_sbu_0, # of connection points: 5
#     Node 32, Type 0, BuildingBlock: BEQFEK_clean_sbu_0, # of connection points: 5
#     Node 33, Type 0, BuildingBlock: BEQFEK_clean_sbu_0, # of connection points: 5
#     Node 34, Type 0, BuildingBlock: BEQFEK_clean_sbu_0, # of connection points: 5
#     Node 35, Type 0, BuildingBlock: BEQFEK_clean_sbu_0, # of connection points: 5
#     Node 36, Type 0, BuildingBlock: BEQFEK_clean_sbu_0, # of connection points: 5
#     Node 37, Type 0, BuildingBlock: BEQFEK_clean_sbu_0, # of connection points: 5
#     Node 38, Type 0, BuildingBlock: BEQFEK_clean_sbu_0, # of connection points: 5
#     Node 39, Type 0, BuildingBlock: BEQFEK_clean_sbu_0, # of connection points: 5
#     Node 40, Type 0, BuildingBlock: BEQFEK_clean_sbu_0, # of connection points: 5
#     Node 41, Type 0, BuildingBlock: BEQFEK_clean_sbu_0, # of connection points: 5
#     Node 42, Type 0, BuildingBlock: BEQFEK_clean_sbu_0, # of connection points: 5
#     Node 43, Type 0, BuildingBlock: BEQFEK_clean_sbu_0, # of connection points: 5
#     Node 44, Type 0, BuildingBlock: BEQFEK_clean_sbu_0, # of connection points: 5
#     Node 45, Type 0, BuildingBlock: BEQFEK_clean_sbu_0, # of connection points: 5
#     Node 46, Type 0, BuildingBlock: BEQFEK_clean_sbu_0, # of connection points: 5
#     Node 47, Type 0, BuildingBlock: BEQFEK_clean_sbu_0, # of connection points: 5
#     Edge 48, Type (0, 0), BuildingBlock: CIFDUS_clean_linker_0, # of connection points: 2
#     Edge 49, Type (0, 0), BuildingBlock: CIFDUS_clean_linker_0, # of connection points: 2
#     Edge 50, Type (0, 0), BuildingBlock: CIFDUS_clean_linker_0, # of connection points: 2
#     Edge 51, Type (0, 0), BuildingBlock: CIFDUS_clean_linker_0, # of connection points: 2
#     Edge 52, Type (0, 0), BuildingBlock: CIFDUS_clean_linker_0, # of connection points: 2
#     Edge 53, Type (0, 0), BuildingBlock: CIFDUS_clean_linker_0, # of connection points: 2
#     Edge 54, Type (0, 0), BuildingBlock: CIFDUS_clean_linker_0, # of connection points: 2
#     Edge 55, Type (0, 0), BuildingBlock: CIFDUS_clean_linker_0, # of connection points: 2
#     Edge 56, Type (0, 0), BuildingBlock: CIFDUS_clean_linker_0, # of connection points: 2
#     Edge 57, Type (0, 0), BuildingBlock: CIFDUS_clean_linker_0, # of connection points: 2
#     Edge 58, Type (0, 0), BuildingBlock: CIFDUS_clean_linker_0, # of connection points: 2
#     Edge 59, Type (0, 0), BuildingBlock: CIFDUS_clean_linker_0, # of connection points: 2
#     Edge 60, Type (0, 0), BuildingBlock: CIFDUS_clean_linker_0, # of connection points: 2
#     Edge 61, Type (0, 0), BuildingBlock: CIFDUS_clean_linker_0, # of connection points: 2
#     Edge 62, Type (0, 0), BuildingBlock: CIFDUS_clean_linker_0, # of connection points: 2
#     Edge 63, Type (0, 0), BuildingBlock: CIFDUS_clean_linker_0, # of connection points: 2
#     Edge 64, Type (0, 0), BuildingBlock: CIFDUS_clean_linker_0, # of connection points: 2
#     Edge 65, Type (0, 0), BuildingBlock: CIFDUS_clean_linker_0, # of connection points: 2
#     Edge 66, Type (0, 0), BuildingBlock: CIFDUS_clean_linker_0, # of connection points: 2
#     Edge 67, Type (0, 0), BuildingBlock: CIFDUS_clean_linker_0, # of connection points: 2
#     Edge 68, Type (0, 0), BuildingBlock: CIFDUS_clean_linker_0, # of connection points: 2
#     Edge 69, Type (0, 0), BuildingBlock: CIFDUS_clean_linker_0, # of connection points: 2
#     Edge 70, Type (0, 0), BuildingBlock: CIFDUS_clean_linker_0, # of connection points: 2
#     Edge 71, Type (0, 0), BuildingBlock: CIFDUS_clean_linker_0, # of connection points: 2
#     Edge 72, Type (0, 0), BuildingBlock: CIFDUS_clean_linker_0, # of connection points: 2
#     Edge 73, Type (0, 0), BuildingBlock: CIFDUS_clean_linker_0, # of connection points: 2
#     Edge 74, Type (0, 0), BuildingBlock: CIFDUS_clean_linker_0, # of connection points: 2
#     Edge 75, Type (0, 0), BuildingBlock: CIFDUS_clean_linker_0, # of connection points: 2
#     Edge 76, Type (0, 0), BuildingBlock: CIFDUS_clean_linker_0, # of connection points: 2
#     Edge 77, Type (0, 0), BuildingBlock: CIFDUS_clean_linker_0, # of connection points: 2
#     Edge 78, Type (0, 0), BuildingBlock: CIFDUS_clean_linker_0, # of connection points: 2
#     Edge 79, Type (0, 0), BuildingBlock: CIFDUS_clean_linker_0, # of connection points: 2
#     Edge 80, Type (0, 0), BuildingBlock: CIFDUS_clean_linker_0, # of connection points: 2
#     Edge 81, Type (0, 0), BuildingBlock: CIFDUS_clean_linker_0, # of connection points: 2
#     Edge 82, Type (0, 0), BuildingBlock: CIFDUS_clean_linker_0, # of connection points: 2
#     Edge 83, Type (0, 0), BuildingBlock: CIFDUS_clean_linker_0, # of connection points: 2
#     Edge 84, Type (0, 0), BuildingBlock: CIFDUS_clean_linker_0, # of connection points: 2
#     Edge 85, Type (0, 0), BuildingBlock: CIFDUS_clean_linker_0, # of connection points: 2
#     Edge 86, Type (0, 0), BuildingBlock: CIFDUS_clean_linker_0, # of connection points: 2
#     Edge 87, Type (0, 0), BuildingBlock: CIFDUS_clean_linker_0, # of connection points: 2
#     Edge 88, Type (0, 0), BuildingBlock: CIFDUS_clean_linker_0, # of connection points: 2
#     Edge 89, Type (0, 0), BuildingBlock: CIFDUS_clean_linker_0, # of connection points: 2
#     Edge 90, Type (0, 0), BuildingBlock: CIFDUS_clean_linker_0, # of connection points: 2
#     Edge 91, Type (0, 0), BuildingBlock: CIFDUS_clean_linker_0, # of connection points: 2
#     Edge 92, Type (0, 0), BuildingBlock: CIFDUS_clean_linker_0, # of connection points: 2
#     Edge 93, Type (0, 0), BuildingBlock: CIFDUS_clean_linker_0, # of connection points: 2
#     Edge 94, Type (0, 0), BuildingBlock: CIFDUS_clean_linker_0, # of connection points: 2
#     Edge 95, Type (0, 0), BuildingBlock: CIFDUS_clean_linker_0, # of connection points: 2
#     Edge 96, Type (0, 0), BuildingBlock: CIFDUS_clean_linker_0, # of connection points: 2
#     Edge 97, Type (0, 0), BuildingBlock: CIFDUS_clean_linker_0, # of connection points: 2
#     Edge 98, Type (0, 0), BuildingBlock: CIFDUS_clean_linker_0, # of connection points: 2
#     Edge 99, Type (0, 0), BuildingBlock: CIFDUS_clean_linker_0, # of connection points: 2
#     Edge 100, Type (0, 0), BuildingBlock: CIFDUS_clean_linker_0, # of connection points: 2
#     Edge 101, Type (0, 0), BuildingBlock: CIFDUS_clean_linker_0, # of connection points: 2
#     Edge 102, Type (0, 0), BuildingBlock: CIFDUS_clean_linker_0, # of connection points: 2
#     Edge 103, Type (0, 0), BuildingBlock: CIFDUS_clean_linker_0, # of connection points: 2
#     Edge 104, Type (0, 0), BuildingBlock: CIFDUS_clean_linker_0, # of connection points: 2
#     Edge 105, Type (0, 0), BuildingBlock: CIFDUS_clean_linker_0, # of connection points: 2
#     Edge 106, Type (0, 0), BuildingBlock: CIFDUS_clean_linker_0, # of connection points: 2
#     Edge 107, Type (0, 0), BuildingBlock: CIFDUS_clean_linker_0, # of connection points: 2
#     Edge 108, Type (0, 0), BuildingBlock: CIFDUS_clean_linker_0, # of connection points: 2
#     Edge 109, Type (0, 0), BuildingBlock: CIFDUS_clean_linker_0, # of connection points: 2
#     Edge 110, Type (0, 0), BuildingBlock: CIFDUS_clean_linker_0, # of connection points: 2
#     Edge 111, Type (0, 0), BuildingBlock: CIFDUS_clean_linker_0, # of connection points: 2
#     Edge 112, Type (0, 0), BuildingBlock: CIFDUS_clean_linker_0, # of connection points: 2
#     Edge 113, Type (0, 0), BuildingBlock: CIFDUS_clean_linker_0, # of connection points: 2
#     Edge 114, Type (0, 0), BuildingBlock: CIFDUS_clean_linker_0, # of connection points: 2
#     Edge 115, Type (0, 0), BuildingBlock: CIFDUS_clean_linker_0, # of connection points: 2
#     Edge 116, Type (0, 0), BuildingBlock: CIFDUS_clean_linker_0, # of connection points: 2
#     Edge 117, Type (0, 0), BuildingBlock: CIFDUS_clean_linker_0, # of connection points: 2
#     Edge 118, Type (0, 0), BuildingBlock: CIFDUS_clean_linker_0, # of connection points: 2
#     Edge 119, Type (0, 0), BuildingBlock: CIFDUS_clean_linker_0, # of connection points: 2
#     Edge 120, Type (0, 0), BuildingBlock: CIFDUS_clean_linker_0, # of connection points: 2
#     Edge 121, Type (0, 0), BuildingBlock: CIFDUS_clean_linker_0, # of connection points: 2
#     Edge 122, Type (0, 0), BuildingBlock: CIFDUS_clean_linker_0, # of connection points: 2
#     Edge 123, Type (0, 0), BuildingBlock: CIFDUS_clean_linker_0, # of connection points: 2
#     Edge 124, Type (0, 0), BuildingBlock: CIFDUS_clean_linker_0, # of connection points: 2
#     Edge 125, Type (0, 0), BuildingBlock: CIFDUS_clean_linker_0, # of connection points: 2
#     Edge 126, Type (0, 0), BuildingBlock: CIFDUS_clean_linker_0, # of connection points: 2
#     Edge 127, Type (0, 0), BuildingBlock: CIFDUS_clean_linker_0, # of connection points: 2
#     Edge 128, Type (0, 0), BuildingBlock: CIFDUS_clean_linker_0, # of connection points: 2
#     Edge 129, Type (0, 0), BuildingBlock: CIFDUS_clean_linker_0, # of connection points: 2
#     Edge 130, Type (0, 0), BuildingBlock: CIFDUS_clean_linker_0, # of connection points: 2
#     Edge 131, Type (0, 0), BuildingBlock: CIFDUS_clean_linker_0, # of connection points: 2
#     Edge 132, Type (0, 0), BuildingBlock: CIFDUS_clean_linker_0, # of connection points: 2
#     Edge 133, Type (0, 0), BuildingBlock: CIFDUS_clean_linker_0, # of connection points: 2
#     Edge 134, Type (0, 0), BuildingBlock: CIFDUS_clean_linker_0, # of connection points: 2
#     Edge 135, Type (0, 0), BuildingBlock: CIFDUS_clean_linker_0, # of connection points: 2
#     Edge 136, Type (0, 0), BuildingBlock: CIFDUS_clean_linker_0, # of connection points: 2
#     Edge 137, Type (0, 0), BuildingBlock: CIFDUS_clean_linker_0, # of connection points: 2
#     Edge 138, Type (0, 0), BuildingBlock: CIFDUS_clean_linker_0, # of connection points: 2
#     Edge 139, Type (0, 0), BuildingBlock: CIFDUS_clean_linker_0, # of connection points: 2
#     Edge 140, Type (0, 0), BuildingBlock: CIFDUS_clean_linker_0, # of connection points: 2
#     Edge 141, Type (0, 0), BuildingBlock: CIFDUS_clean_linker_0, # of connection points: 2
#     Edge 142, Type (0, 0), BuildingBlock: CIFDUS_clean_linker_0, # of connection points: 2
#     Edge 143, Type (0, 0), BuildingBlock: CIFDUS_clean_linker_0, # of connection points: 2
#     Edge 144, Type (0, 0), BuildingBlock: CIFDUS_clean_linker_0, # of connection points: 2
#     Edge 145, Type (0, 0), BuildingBlock: CIFDUS_clean_linker_0, # of connection points: 2
#     Edge 146, Type (0, 0), BuildingBlock: CIFDUS_clean_linker_0, # of connection points: 2
#     Edge 147, Type (0, 0), BuildingBlock: CIFDUS_clean_linker_0, # of connection points: 2
#     Edge 148, Type (0, 0), BuildingBlock: CIFDUS_clean_linker_0, # of connection points: 2
#     Edge 149, Type (0, 0), BuildingBlock: CIFDUS_clean_linker_0, # of connection points: 2
#     Edge 150, Type (0, 0), BuildingBlock: CIFDUS_clean_linker_0, # of connection points: 2
#     Edge 151, Type (0, 0), BuildingBlock: CIFDUS_clean_linker_0, # of connection points: 2
#     Edge 152, Type (0, 0), BuildingBlock: CIFDUS_clean_linker_0, # of connection points: 2
#     Edge 153, Type (0, 0), BuildingBlock: CIFDUS_clean_linker_0, # of connection points: 2
#     Edge 154, Type (0, 0), BuildingBlock: CIFDUS_clean_linker_0, # of connection points: 2
#     Edge 155, Type (0, 0), BuildingBlock: CIFDUS_clean_linker_0, # of connection points: 2
#     Edge 156, Type (0, 0), BuildingBlock: CIFDUS_clean_linker_0, # of connection points: 2
#     Edge 157, Type (0, 0), BuildingBlock: CIFDUS_clean_linker_0, # of connection points: 2
#     Edge 158, Type (0, 0), BuildingBlock: CIFDUS_clean_linker_0, # of connection points: 2
#     Edge 159, Type (0, 0), BuildingBlock: CIFDUS_clean_linker_0, # of connection points: 2
#     Edge 160, Type (0, 0), BuildingBlock: CIFDUS_clean_linker_0, # of connection points: 2
#     Edge 161, Type (0, 0), BuildingBlock: CIFDUS_clean_linker_0, # of connection points: 2
#     Edge 162, Type (0, 0), BuildingBlock: CIFDUS_clean_linker_0, # of connection points: 2
#     Edge 163, Type (0, 0), BuildingBlock: CIFDUS_clean_linker_0, # of connection points: 2
#     Edge 164, Type (0, 0), BuildingBlock: CIFDUS_clean_linker_0, # of connection points: 2
#     Edge 165, Type (0, 0), BuildingBlock: CIFDUS_clean_linker_0, # of connection points: 2
#     Edge 166, Type (0, 0), BuildingBlock: CIFDUS_clean_linker_0, # of connection points: 2
#     Edge 167, Type (0, 0), BuildingBlock: CIFDUS_clean_linker_0, # of connection points: 2
# Relax obj value: 0.504
# Max RMSD: 0.189
# Mean RMSD: 0.189
data_MOF--net-fcn--node1-BEQFEK_clean_sbu_0--edge1-CIFDUS_clean_linker_0
_symmetry_space_group_name_H-M    P1
_symmetry_Int_Tables_number       1
_symmetry_cell_setting            triclinic
loop_
_symmetry_equiv_pos_as_xyz
'x, y, z'
_cell_length_a     65.127534
_cell_length_b     65.123037
_cell_length_c     65.1185
_cell_angle_alpha  89.979267
_cell_angle_beta   89.923356
_cell_angle_gamma 89.974056
loop_
_atom_site_label
_atom_site_type_symbol
_atom_site_fract_x
_atom_site_fract_y
_atom_site_fract_z
_atom_type_partial_charge
Co0 Co 0.06796 0.17524 0.30757 0.0
Co1 Co 0.09977 0.14865 0.28217 0.0
C2 C 0.09885 0.1477 0.32818 0.0
O3 O 0.08364 0.16005 0.32952 0.0
O4 O 0.10628 0.14232 0.31092 0.0
C5 C 0.04739 0.2106 0.33039 0.0
O6 O 0.06499 0.21803 0.33681 0.0
C7 C 0.13894 0.13262 0.26341 0.0
C8 C 0.12552 0.11347 0.23891 0.0
C9 C 0.14417 0.11967 0.24705 0.0
N10 N 0.11827 0.13397 0.26442 0.0
N11 N 0.11048 0.12229 0.24982 0.0
C12 C 0.153 0.14425 0.27732 0.0
H13 H 0.14434 0.15613 0.28597 0.0
H14 H 0.16548 0.15157 0.26829 0.0
H15 H 0.16 0.13347 0.28849 0.0
C16 C 0.08547 0.2075 0.27958 0.0
N17 N 0.08602 0.1886 0.28812 0.0
N18 N 0.0996 0.1774 0.27802 0.0
C19 C 0.10809 0.18876 0.26299 0.0
C20 C 0.0996 0.2083 0.26357 0.0
C21 C 0.07013 0.22372 0.28505 0.0
H22 H 0.05455 0.2169 0.28587 0.0
H23 H 0.07403 0.23007 0.30032 0.0
H24 H 0.07017 0.23657 0.27387 0.0
O25 O 0.04992 0.15619 0.29218 0.0
O26 O 0.07247 0.13858 0.27383 0.0
H27 H 0.1134 0.16572 0.24009 0.0
H28 H 0.12275 0.19067 0.23293 0.0
C29 C 0.12079 0.17988 0.24594 0.0
H30 H 0.13617 0.17583 0.25194 0.0
H31 H 0.09482 0.12049 0.24707 0.0
O32 O 0.04704 0.19444 0.31943 0.0
C33 C 0.05405 0.14276 0.27868 0.0
Co34 Co 0.07163 0.81962 0.55728 0.0
Co35 Co 0.0965 0.85432 0.53502 0.0
C36 C 0.09776 0.84874 0.58081 0.0
O37 O 0.08546 0.83352 0.58098 0.0
O38 O 0.10317 0.85736 0.56417 0.0
C39 C 0.03768 0.79751 0.57859 0.0
O40 O 0.0304 0.81508 0.58534 0.0
C41 C 0.10946 0.8968 0.52527 0.0
C42 C 0.12906 0.89137 0.49809 0.0
C43 C 0.12198 0.90669 0.51105 0.0
N44 N 0.10919 0.87661 0.52078 0.0
N45 N 0.12095 0.87352 0.50452 0.0
C46 C 0.09877 0.90609 0.54339 0.0
H47 H 0.09442 0.89413 0.55465 0.0
H48 H 0.08449 0.91377 0.53822 0.0
H49 H 0.10872 0.91778 0.55077 0.0
C50 C 0.03834 0.83826 0.53104 0.0
N51 N 0.05719 0.83861 0.53971 0.0
N52 N 0.06777 0.85372 0.53136 0.0
C53 C 0.05599 0.86365 0.51763 0.0
C54 C 0.03685 0.85437 0.51708 0.0
C55 C 0.0231 0.8213 0.53391 0.0
H56 H 0.01502 0.82354 0.54872 0.0
H57 H 0.01146 0.82119 0.52148 0.0
H58 H 0.03113 0.80628 0.53436 0.0
O59 O 0.09195 0.8044 0.54057 0.0
O60 O 0.10806 0.8288 0.52308 0.0
H61 H 0.0527 0.8832 0.49066 0.0
H62 H 0.06888 0.89302 0.51071 0.0
C63 C 0.06418 0.87893 0.50246 0.0
H64 H 0.07786 0.87244 0.49466 0.0
H65 H 0.12361 0.85916 0.49792 0.0
O66 O 0.05368 0.79723 0.56744 0.0
C67 C 0.10493 0.80994 0.52709 0.0
Co68 Co 0.42777 0.81667 0.80271 0.0
Co69 Co 0.39344 0.8413 0.7801 0.0
C70 C 0.3967 0.84279 0.82552 0.0
O71 O 0.41249 0.83112 0.82613 0.0
O72 O 0.38849 0.84788 0.80864 0.0
C73 C 0.44472 0.78099 0.82447 0.0
O74 O 0.42564 0.77617 0.82892 0.0
C75 C 0.35379 0.86018 0.76954 0.0
C76 C 0.36018 0.87127 0.73806 0.0
C77 C 0.34534 0.87108 0.7533 0.0
N78 N 0.37282 0.85426 0.76407 0.0
N79 N 0.3765 0.8609 0.74525 0.0
C80 C 0.345 0.8571 0.79056 0.0
H81 H 0.3533 0.86713 0.80153 0.0
H82 H 0.34742 0.84095 0.79545 0.0
H83 H 0.32847 0.86102 0.79133 0.0
C84 C 0.40932 0.78336 0.77597 0.0
N85 N 0.40902 0.80218 0.78477 0.0
N86 N 0.3936 0.81262 0.77686 0.0
C87 C 0.38309 0.80063 0.76379 0.0
C88 C 0.39267 0.78166 0.76269 0.0
C89 C 0.4266 0.76834 0.77803 0.0
H90 H 0.44137 0.77657 0.77998 0.0
H91 H 0.42386 0.7586 0.79173 0.0
H92 H 0.42758 0.75806 0.76449 0.0
O93 O 0.4445 0.83581 0.78532 0.0
O94 O 0.41948 0.85227 0.76933 0.0
H95 H 0.37315 0.81869 0.73827 0.0
H96 H 0.35832 0.79567 0.74207 0.0
C97 C 0.36639 0.80836 0.75002 0.0
H98 H 0.35508 0.81722 0.75916 0.0
H99 H 0.39032 0.85866 0.73744 0.0
O100 O 0.44839 0.79724 0.8143 0.0
C101 C 0.4385 0.84886 0.77206 0.0
Co102 Co 0.42772 0.18505 0.05267 0.0
Co103 Co 0.40607 0.14821 0.03108 0.0
C104 C 0.40207 0.1547 0.07623 0.0
O105 O 0.41283 0.17106 0.07607 0.0
O106 O 0.39854 0.14477 0.05987 0.0
C107 C 0.45987 0.20651 0.0761 0.0
O108 O 0.46634 0.18844 0.08231 0.0
C109 C 0.39571 0.1053 0.02083 0.0
C110 C 0.37523 0.11007 0.99421 0.0
C111 C 0.38342 0.09504 0.0068 0.0
N112 N 0.3948 0.12551 0.01663 0.0
N113 N 0.38254 0.12822 0.00071 0.0
C114 C 0.40719 0.09628 0.03857 0.0
H115 H 0.41119 0.1083 0.04992 0.0
H116 H 0.42166 0.08928 0.03294 0.0
H117 H 0.39792 0.08403 0.04598 0.0
C118 C 0.46241 0.16898 0.02683 0.0
N119 N 0.444 0.16651 0.03613 0.0
N120 N 0.43475 0.15056 0.02781 0.0
C121 C 0.44692 0.14227 0.01331 0.0
C122 C 0.46495 0.1536 0.01215 0.0
C123 C 0.47585 0.18739 0.02971 0.0
H124 H 0.46642 0.20157 0.02922 0.0
H125 H 0.48326 0.18647 0.04499 0.0
H126 H 0.48814 0.18822 0.01793 0.0
O127 O 0.40829 0.19926 0.03389 0.0
O128 O 0.39353 0.17276 0.01854 0.0
H129 H 0.42527 0.13314 0.99035 0.0
H130 H 0.45079 0.1238 0.98558 0.0
C131 C 0.43936 0.12709 0.99774 0.0
H132 H 0.43548 0.11251 0.00557 0.0
H133 H 0.37891 0.1425 0.99443 0.0
O134 O 0.44457 0.20771 0.06408 0.0
C135 C 0.39591 0.19203 0.02063 0.0
Co136 Co 0.07575 0.82155 0.19104 0.0
Co137 Co 0.10924 0.84646 0.21498 0.0
C138 C 0.10749 0.84678 0.16882 0.0
O139 O 0.09193 0.83485 0.16773 0.0
O140 O 0.11475 0.85239 0.18602 0.0
C141 C 0.0561 0.78626 0.16981 0.0
O142 O 0.07453 0.78018 0.1643 0.0
C143 C 0.15081 0.85976 0.22606 0.0
C144 C 0.1453 0.87669 0.25496 0.0
C145 C 0.1606 0.87088 0.24135 0.0
N146 N 0.13067 0.85895 0.23053 0.0
N147 N 0.12746 0.86916 0.24777 0.0
C148 C 0.15981 0.85161 0.20655 0.0
H149 H 0.15751 0.86325 0.19434 0.0
H150 H 0.15172 0.83735 0.20191 0.0
H151 H 0.1765 0.84868 0.20783 0.0
C152 C 0.09304 0.78833 0.21878 0.0
N153 N 0.09361 0.8072 0.21005 0.0
N154 N 0.10846 0.81778 0.21884 0.0
C155 C 0.11816 0.80591 0.23267 0.0
C156 C 0.10887 0.7868 0.23304 0.0
C157 C 0.07626 0.77299 0.21553 0.0
H158 H 0.06131 0.78095 0.21377 0.0
H159 H 0.0795 0.76417 0.20134 0.0
H160 H 0.07531 0.76194 0.22847 0.0
O161 O 0.05939 0.842 0.207 0.0
O162 O 0.0831 0.85797 0.22546 0.0
H163 H 0.12707 0.82688 0.25633 0.0
H164 H 0.13865 0.80189 0.25877 0.0
C165 C 0.1337 0.81381 0.24767 0.0
H166 H 0.14739 0.81931 0.23918 0.0
H167 H 0.11309 0.87101 0.25462 0.0
O168 O 0.05409 0.80271 0.18013 0.0
C169 C 0.06439 0.85483 0.22085 0.0
Co170 Co 0.43192 0.81679 0.4442 0.0
Co171 Co 0.40343 0.84818 0.46746 0.0
C172 C 0.40838 0.84931 0.42171 0.0
O173 O 0.42058 0.83397 0.4209 0.0
O174 O 0.4008 0.85551 0.43857 0.0
C175 C 0.46961 0.80104 0.42428 0.0
O176 O 0.47409 0.82014 0.41958 0.0
C177 C 0.38491 0.88771 0.48072 0.0
C178 C 0.36788 0.87771 0.50835 0.0
C179 C 0.37213 0.89475 0.49635 0.0
N180 N 0.38815 0.86748 0.48358 0.0
N181 N 0.37783 0.86164 0.50006 0.0
C182 C 0.39276 0.89942 0.46255 0.0
H183 H 0.38824 0.89136 0.44829 0.0
H184 H 0.40979 0.89987 0.46304 0.0
H185 H 0.38653 0.91524 0.46191 0.0
C186 C 0.46105 0.83258 0.47639 0.0
N187 N 0.44335 0.83377 0.46564 0.0
N188 N 0.43142 0.84756 0.47448 0.0
C189 C 0.4412 0.85586 0.49063 0.0
C190 C 0.46032 0.84665 0.49244 0.0
C191 C 0.47742 0.81686 0.47273 0.0
H192 H 0.47034 0.80157 0.47032 0.0
H193 H 0.48611 0.82109 0.45872 0.0
H194 H 0.48847 0.81605 0.48564 0.0
O195 O 0.41085 0.79857 0.45704 0.0
O196 O 0.39207 0.82106 0.47443 0.0
H197 H 0.41795 0.86094 0.51324 0.0
H198 H 0.44139 0.87449 0.51844 0.0
C199 C 0.43088 0.86942 0.50611 0.0
H200 H 0.4246 0.88316 0.49827 0.0
H201 H 0.37756 0.84662 0.50565 0.0
O202 O 0.45301 0.79713 0.4338 0.0
C203 C 0.39638 0.80266 0.46954 0.0
Co204 Co 0.4312 0.17327 0.7017 0.0
Co205 Co 0.39633 0.1482 0.72386 0.0
C206 C 0.39986 0.14937 0.67797 0.0
O207 O 0.41608 0.16041 0.67775 0.0
O208 O 0.39141 0.14384 0.69466 0.0
C209 C 0.45327 0.20605 0.67825 0.0
O210 O 0.43671 0.20903 0.66714 0.0
C211 C 0.35451 0.1343 0.73582 0.0
C212 C 0.36229 0.11293 0.76102 0.0
C213 C 0.346 0.12037 0.7496 0.0
N214 N 0.37494 0.13491 0.73897 0.0
N215 N 0.3794 0.12218 0.75413 0.0
C216 C 0.3437 0.14587 0.71919 0.0
H217 H 0.35475 0.15144 0.70751 0.0
H218 H 0.3359 0.15942 0.72596 0.0
H219 H 0.33185 0.13603 0.7119 0.0
C220 C 0.41347 0.20603 0.72853 0.0
N221 N 0.4126 0.18724 0.71987 0.0
N222 N 0.39811 0.17655 0.72913 0.0
C223 C 0.3894 0.18804 0.7439 0.0
C224 C 0.39878 0.20719 0.74401 0.0
C225 C 0.42938 0.2218 0.72345 0.0
H226 H 0.44489 0.21534 0.72626 0.0
H227 H 0.42822 0.22578 0.70695 0.0
H228 H 0.42734 0.23601 0.73263 0.0
O229 O 0.44677 0.15277 0.71844 0.0
O230 O 0.42181 0.13527 0.73345 0.0
H231 H 0.38187 0.16496 0.76609 0.0
H232 H 0.37267 0.1901 0.77286 0.0
C233 C 0.37528 0.17939 0.75992 0.0
H234 H 0.36031 0.1757 0.75274 0.0
H235 H 0.39423 0.11945 0.75953 0.0
O236 O 0.45316 0.19243 0.69224 0.0
C237 C 0.4408 0.13877 0.73072 0.0
Co238 Co 0.06717 0.18515 0.94462 0.0
Co239 Co 0.09239 0.15131 0.96786 0.0
C240 C 0.0938 0.15537 0.92207 0.0
O241 O 0.08156 0.17065 0.92161 0.0
O242 O 0.09911 0.14698 0.93885 0.0
C243 C 0.03284 0.20523 0.92214 0.0
O244 O 0.026 0.18712 0.91651 0.0
C245 C 0.11135 0.11131 0.97836 0.0
C246 C 0.12225 0.11758 0.00988 0.0
C247 C 0.12198 0.10266 0.99474 0.0
N248 N 0.10558 0.13043 0.98373 0.0
N249 N 0.11218 0.13405 0.00256 0.0
C250 C 0.10846 0.10264 0.95727 0.0
H251 H 0.09211 0.10414 0.95272 0.0
H252 H 0.11341 0.08642 0.95616 0.0
H253 H 0.11773 0.11175 0.94624 0.0
C254 C 0.03443 0.16757 0.9721 0.0
N255 N 0.05301 0.1666 0.9629 0.0
N256 N 0.06359 0.15161 0.97145 0.0
C257 C 0.05195 0.14217 0.98568 0.0
C258 C 0.03308 0.15206 0.9868 0.0
C259 C 0.01934 0.1846 0.96878 0.0
H260 H 0.02747 0.19955 0.96823 0.0
H261 H 0.01155 0.18222 0.95386 0.0
H262 H 0.00738 0.18497 0.98092 0.0
O263 O 0.0869 0.20146 0.96083 0.0
O264 O 0.10335 0.17756 0.97863 0.0
H265 H 0.0707 0.13459 0.01148 0.0
H266 H 0.04794 0.1191 0.0095 0.0
C267 C 0.06024 0.12674 0.00059 0.0
H268 H 0.06906 0.11485 0.99219 0.0
H269 H 0.11003 0.1479 0.01033 0.0
O270 O 0.04879 0.20658 0.93325 0.0
C271 C 0.09994 0.19631 0.97436 0.0
Co272 Co 0.30064 0.06592 0.17219 0.0
Co273 Co 0.27956 0.10083 0.14667 0.0
C274 C 0.3252 0.09592 0.14717 0.0
O275 O 0.32469 0.08043 0.15915 0.0
O276 O 0.30887 0.1047 0.14118 0.0
C277 C 0.32103 0.04586 0.20759 0.0
O278 O 0.32517 0.06418 0.21493 0.0
C279 C 0.27084 0.14291 0.13269 0.0
C280 C 0.2408 0.13905 0.11744 0.0
C281 C 0.2555 0.15359 0.12243 0.0
N282 N 0.26526 0.12306 0.13394 0.0
N283 N 0.2474 0.12083 0.12461 0.0
C284 C 0.29104 0.1509 0.14016 0.0
H285 H 0.29356 0.14597 0.15627 0.0
H286 H 0.29221 0.16782 0.13888 0.0
H287 H 0.30344 0.14404 0.1307 0.0
C288 C 0.27157 0.08331 0.20393 0.0
N289 N 0.28199 0.08445 0.18596 0.0
N290 N 0.27476 0.10009 0.17535 0.0
C291 C 0.2604 0.10987 0.18651 0.0
C292 C 0.25752 0.09943 0.20486 0.0
C293 C 0.27242 0.06525 0.21811 0.0
H294 H 0.27508 0.05095 0.20925 0.0
H295 H 0.28537 0.06733 0.22895 0.0
H296 H 0.25806 0.06379 0.22719 0.0
O297 O 0.28501 0.05037 0.15126 0.0
O298 O 0.2684 0.07497 0.13449 0.0
H299 H 0.23742 0.12203 0.16642 0.0
H300 H 0.2384 0.13442 0.19122 0.0
C301 C 0.24777 0.12747 0.17878 0.0
H302 H 0.25801 0.13947 0.17246 0.0
H303 H 0.23959 0.1069 0.12335 0.0
O304 O 0.31123 0.04417 0.19082 0.0
C305 C 0.27217 0.05603 0.1377 0.0
Co306 Co 0.19027 0.05046 0.42722 0.0
Co307 Co 0.15336 0.02851 0.40528 0.0
C308 C 0.15996 0.07339 0.4005 0.0
O309 O 0.17623 0.07331 0.41146 0.0
O310 O 0.14983 0.05709 0.39705 0.0
C311 C 0.21279 0.07323 0.46003 0.0
O312 O 0.19517 0.07994 0.46722 0.0
C313 C 0.11256 0.01735 0.38802 0.0
C314 C 0.11872 0.98521 0.37894 0.0
C315 C 0.10389 1.00042 0.37834 0.0
N316 N 0.13171 0.01227 0.39396 0.0
N317 N 0.13518 0.99302 0.38856 0.0
C318 C 0.10378 0.0385 0.38994 0.0
H319 H 0.10686 0.04457 0.40556 0.0
H320 H 0.08707 0.03875 0.38676 0.0
H321 H 0.11161 0.04876 0.3788 0.0
C322 C 0.17293 0.02576 0.46214 0.0
N323 N 0.17126 0.03443 0.44336 0.0
N324 N 0.15502 0.02663 0.43418 0.0
C325 C 0.14543 0.01358 0.44699 0.0
C326 C 0.1566 0.01224 0.4651 0.0
C327 C 0.19129 0.02814 0.47575 0.0
H328 H 0.20556 0.02754 0.46644 0.0
H329 H 0.19052 0.04329 0.48343 0.0
H330 H 0.19181 0.01621 0.4879 0.0
O331 O 0.20479 0.03137 0.40849 0.0
O332 O 0.17845 0.01594 0.39366 0.0
H333 H 0.13484 0.98712 0.43075 0.0
H334 H 0.1203 0.99262 0.45358 0.0
C335 C 0.1284 0.99962 0.44037 0.0
H336 H 0.11707 0.00838 0.43119 0.0
H337 H 0.149 0.98531 0.39107 0.0
O338 O 0.21309 0.06171 0.44428 0.0
C339 C 0.19769 0.01795 0.39625 0.0
Co340 Co 0.20033 0.93099 0.68062 0.0
Co341 Co 0.21949 0.89344 0.65698 0.0
C342 C 0.17491 0.90393 0.65355 0.0
O343 O 0.17611 0.91967 0.66517 0.0
O344 O 0.19052 0.89302 0.64928 0.0
C345 C 0.17757 0.95421 0.71263 0.0
O346 O 0.16599 0.93796 0.71562 0.0
C347 C 0.22753 0.85031 0.6436 0.0
C348 C 0.25668 0.85474 0.62679 0.0
C349 C 0.24237 0.83998 0.63219 0.0
N350 N 0.23297 0.87024 0.64488 0.0
N351 N 0.2504 0.87269 0.63475 0.0
C352 C 0.20808 0.84167 0.65227 0.0
H353 H 0.19683 0.85406 0.65537 0.0
H354 H 0.21145 0.8338 0.66699 0.0
H355 H 0.20142 0.83021 0.64156 0.0
C356 C 0.22165 0.90953 0.71518 0.0
N357 N 0.21432 0.90993 0.69581 0.0
N358 N 0.22167 0.89393 0.68581 0.0
C359 C 0.23352 0.88276 0.69848 0.0
C360 C 0.23387 0.89218 0.71759 0.0
C361 C 0.21946 0.92684 0.73013 0.0
H362 H 0.22335 0.94156 0.72249 0.0
H363 H 0.20327 0.92767 0.73534 0.0
H364 H 0.2294 0.92467 0.74379 0.0
O365 O 0.22037 0.94447 0.6619 0.0
O366 O 0.23414 0.91771 0.64605 0.0
H367 H 0.25719 0.87188 0.67838 0.0
H368 H 0.25783 0.86029 0.70348 0.0
C369 C 0.24759 0.86605 0.69119 0.0
H370 H 0.2383 0.85305 0.68542 0.0
H371 H 0.25801 0.8867 0.63317 0.0
O372 O 0.19169 0.95364 0.69916 0.0
C373 C 0.23329 0.93695 0.64931 0.0
Co374 Co 0.31935 0.94747 0.9245 0.0
Co375 Co 0.35346 0.97112 0.89957 0.0
C376 C 0.35196 0.92542 0.89947 0.0
O377 O 0.33569 0.92441 0.91051 0.0
O378 O 0.35974 0.94253 0.89432 0.0
C379 C 0.30072 0.92496 0.95988 0.0
O380 O 0.31925 0.91855 0.96463 0.0
C381 C 0.39381 0.98757 0.88465 0.0
C382 C 0.38234 0.01177 0.86387 0.0
C383 C 0.40032 0.00292 0.87104 0.0
N384 N 0.37311 0.9878 0.88537 0.0
N385 N 0.36648 0.00221 0.87277 0.0
C386 C 0.40659 0.97323 0.89721 0.0
H387 H 0.39698 0.96536 0.90891 0.0
H388 H 0.41915 0.98177 0.90491 0.0
H389 H 0.41346 0.96141 0.88704 0.0
C390 C 0.3365 0.97495 0.95747 0.0
N391 N 0.33763 0.96616 0.9387 0.0
N392 N 0.35218 0.97552 0.92812 0.0
C393 C 0.36076 0.99027 0.93972 0.0
C394 C 0.35127 0.9903 0.9588 0.0
C395 C 0.32007 0.97051 0.97295 0.0
H396 H 0.3049 0.96983 0.96529 0.0
H397 H 0.32323 0.95544 0.98018 0.0
H398 H 0.31964 0.98216 0.98535 0.0
O399 O 0.30227 0.96465 0.90528 0.0
O400 O 0.32721 0.98043 0.88851 0.0
H401 H 0.36808 0.01266 0.91672 0.0
H402 H 0.37664 0.01965 0.94198 0.0
C403 C 0.37458 0.00664 0.93124 0.0
H404 H 0.38983 0.99989 0.9279 0.0
H405 H 0.35107 0.00557 0.87013 0.0
O406 O 0.29823 0.93611 0.94403 0.0
C407 C 0.30825 0.97783 0.89213 0.0
Co408 Co 0.31243 0.93157 0.32093 0.0
Co409 Co 0.28882 0.89742 0.3453 0.0
C410 C 0.3349 0.89836 0.34305 0.0
O411 O 0.33586 0.91452 0.332 0.0
O412 O 0.31786 0.8911 0.34913 0.0
C413 C 0.3331 0.95357 0.28652 0.0
O414 O 0.33902 0.93584 0.27893 0.0
C415 C 0.27727 0.85544 0.35747 0.0
C416 C 0.24901 0.86116 0.37543 0.0
C417 C 0.26194 0.84567 0.36866 0.0
N418 N 0.27337 0.87573 0.3575 0.0
N419 N 0.25654 0.87904 0.36836 0.0
C420 C 0.29623 0.84621 0.3483 0.0
H421 H 0.3098 0.8523 0.35653 0.0
H422 H 0.29757 0.85095 0.33198 0.0
H423 H 0.29651 0.82926 0.34957 0.0
C424 C 0.28248 0.91732 0.28859 0.0
N425 N 0.29228 0.91508 0.30675 0.0
N426 N 0.28324 0.9002 0.31709 0.0
C427 C 0.26786 0.8923 0.30586 0.0
C428 C 0.26686 0.90279 0.28735 0.0
C429 C 0.28654 0.93434 0.27368 0.0
H430 H 0.28782 0.94914 0.28201 0.0
H431 H 0.30126 0.93132 0.26571 0.0
H432 H 0.27433 0.93548 0.26187 0.0
O433 O 0.29801 0.94704 0.34298 0.0
O434 O 0.27986 0.92297 0.35884 0.0
H435 H 0.24519 0.8846 0.32835 0.0
H436 H 0.23962 0.87441 0.30339 0.0
C437 C 0.25212 0.87779 0.31437 0.0
H438 H 0.2597 0.86318 0.31868 0.0
H439 H 0.25017 0.89352 0.37092 0.0
O440 O 0.32278 0.95406 0.30308 0.0
C441 C 0.2848 0.94169 0.35635 0.0
Co442 Co 0.32548 0.04915 0.57445 0.0
Co443 Co 0.35756 0.02476 0.601 0.0
C444 C 0.35744 0.07072 0.59962 0.0
O445 O 0.34213 0.07197 0.58744 0.0
O446 O 0.3641 0.05353 0.60598 0.0
C447 C 0.30609 0.07084 0.53864 0.0
O448 O 0.3243 0.07545 0.53128 0.0
C449 C 0.39642 0.01255 0.62124 0.0
C450 C 0.3882 0.9816 0.63253 0.0
C451 C 0.40385 0.99598 0.63247 0.0
N452 N 0.37725 0.00804 0.61495 0.0
N453 N 0.37247 0.98953 0.62178 0.0
C454 C 0.40628 0.03309 0.6182 0.0
H455 H 0.40589 0.03718 0.60166 0.0
H456 H 0.42226 0.03354 0.62395 0.0
H457 H 0.39729 0.04483 0.62665 0.0
C458 C 0.343 0.02022 0.54247 0.0
N459 N 0.34302 0.02912 0.56123 0.0
N460 N 0.35733 0.0202 0.57244 0.0
C461 C 0.36733 0.00617 0.56108 0.0
C462 C 0.35864 0.00566 0.54169 0.0
C463 C 0.32716 0.02407 0.5263 0.0
H464 H 0.31194 0.02664 0.53352 0.0
H465 H 0.33146 0.03802 0.51755 0.0
H466 H 0.32618 0.01109 0.51533 0.0
O467 O 0.30799 0.0347 0.59495 0.0
O468 O 0.33072 0.01618 0.61217 0.0
H469 H 0.37513 0.98081 0.58035 0.0
H470 H 0.39049 0.9824 0.55741 0.0
C471 C 0.38287 0.99152 0.5696 0.0
H472 H 0.3947 1.00017 0.57823 0.0
H473 H 0.35832 0.98244 0.61934 0.0
O474 O 0.30457 0.06076 0.55529 0.0
C475 C 0.31227 0.02131 0.60849 0.0
Co476 Co 0.19313 0.07055 0.82136 0.0
Co477 Co 0.21511 0.10194 0.85086 0.0
C478 C 0.16906 0.09698 0.84957 0.0
O479 O 0.16914 0.08297 0.83592 0.0
O480 O 0.18557 0.10489 0.85629 0.0
C481 C 0.17255 0.03637 0.80323 0.0
O482 O 0.16646 0.03334 0.82223 0.0
C483 C 0.22549 0.14388 0.86458 0.0
C484 C 0.25075 0.13806 0.8864 0.0
C485 C 0.2394 0.1537 0.87747 0.0
N486 N 0.22874 0.12348 0.86566 0.0
N487 N 0.24375 0.12012 0.87888 0.0
C488 C 0.20875 0.15355 0.85213 0.0
H489 H 0.19616 0.14246 0.84941 0.0
H490 H 0.21489 0.15827 0.83697 0.0
H491 H 0.20267 0.1674 0.86001 0.0
C492 C 0.21917 0.09297 0.79105 0.0
N493 N 0.21096 0.09102 0.80998 0.0
N494 N 0.2202 0.104 0.82243 0.0
C495 C 0.23463 0.11443 0.81191 0.0
C496 C 0.23422 0.10808 0.79159 0.0
C497 C 0.21443 0.07897 0.77349 0.0
H498 H 0.21949 0.06317 0.77739 0.0
H499 H 0.19759 0.07858 0.77097 0.0
H500 H 0.22223 0.08403 0.75919 0.0
O501 O 0.20915 0.05271 0.84032 0.0
O502 O 0.22576 0.07488 0.86028 0.0
H503 H 0.25593 0.11968 0.83653 0.0
H504 H 0.26503 0.12824 0.81189 0.0
C505 C 0.25127 0.12687 0.82184 0.0
H506 H 0.24548 0.14254 0.825 0.0
H507 H 0.2494 0.10559 0.88258 0.0
O508 O 0.18347 0.05203 0.79916 0.0
C509 C 0.22185 0.05652 0.85469 0.0
Co510 Co 0.17815 0.94898 0.06145 0.0
Co511 Co 0.14182 0.96954 0.08584 0.0
C512 C 0.14817 0.92419 0.08705 0.0
O513 O 0.16405 0.92451 0.07546 0.0
O514 O 0.13897 0.94057 0.09211 0.0
C515 C 0.19697 0.92876 0.0256 0.0
O516 O 0.1781 0.92377 0.02054 0.0
C517 C 0.09925 0.97862 0.09926 0.0
C518 C 0.10455 0.0057 0.11899 0.0
C519 C 0.08936 0.99254 0.11207 0.0
N520 N 0.11936 0.98343 0.09866 0.0
N521 N 0.12236 0.99963 0.11049 0.0
C522 C 0.09002 0.96043 0.0887 0.0
H523 H 0.1021 0.94974 0.08336 0.0
H524 H 0.08126 0.96561 0.07507 0.0
H525 H 0.07922 0.9524 0.09919 0.0
C526 C 0.15937 0.97577 0.0285 0.0
N527 N 0.15863 0.96618 0.04693 0.0
N528 N 0.14272 0.97341 0.0572 0.0
C529 C 0.13257 0.98709 0.04554 0.0
C530 C 0.14264 0.98897 0.02688 0.0
C531 C 0.17728 0.97485 0.0141 0.0
H532 H 0.1918 0.97336 0.02286 0.0
H533 H 0.17558 0.9613 0.00397 0.0
H534 H 0.17805 0.98869 0.00419 0.0
O535 O 0.19308 0.96723 0.08132 0.0
O536 O 0.16688 0.98192 0.09738 0.0
H537 H 0.12228 0.00963 0.06716 0.0
H538 H 0.11105 0.01248 0.04207 0.0
C539 C 0.11627 0.00118 0.05367 0.0
H540 H 0.10287 0.99198 0.05862 0.0
H541 H 0.13664 0.00641 0.113 0.0
O542 O 0.20005 0.93873 0.04212 0.0
C543 C 0.18608 0.98017 0.09426 0.0
Co544 Co 0.17304 0.30359 0.0675 0.0
Co545 Co 0.15152 0.28241 0.1049 0.0
C546 C 0.14826 0.32762 0.09805 0.0
O547 O 0.15871 0.32713 0.08149 0.0
O548 O 0.14465 0.31145 0.10829 0.0
C549 C 0.20466 0.32694 0.04508 0.0
O550 O 0.21087 0.33409 0.06288 0.0
C551 C 0.14214 0.27182 0.14814 0.0
C552 C 0.12049 0.24609 0.1436 0.0
C553 C 0.12969 0.25801 0.15859 0.0
N554 N 0.14036 0.26813 0.12788 0.0
N555 N 0.1274 0.25274 0.12533 0.0
C556 C 0.15457 0.28893 0.15707 0.0
H557 H 0.1582 0.30059 0.14518 0.0
H558 H 0.16925 0.2827 0.16304 0.0
H559 H 0.14621 0.29615 0.17006 0.0
C560 C 0.20745 0.27748 0.08291 0.0
N561 N 0.18927 0.28702 0.08588 0.0
N562 N 0.18009 0.27858 0.10184 0.0
C563 C 0.19205 0.26359 0.10953 0.0
C564 C 0.20987 0.26233 0.09782 0.0
C565 C 0.2207 0.28061 0.06437 0.0
H566 H 0.21125 0.27938 0.05027 0.0
H567 H 0.22741 0.29622 0.06492 0.0
H568 H 0.2335 0.26938 0.06371 0.0
O569 O 0.15313 0.285 0.0539 0.0
O570 O 0.1383 0.27005 0.08063 0.0
H571 H 0.16968 0.24121 0.1185 0.0
H572 H 0.19525 0.23495 0.12672 0.0
C573 C 0.18428 0.24772 0.12433 0.0
H574 H 0.18122 0.25508 0.13934 0.0
H575 H 0.12304 0.2469 0.11108 0.0
O576 O 0.18969 0.31447 0.04439 0.0
C577 C 0.14055 0.27202 0.06133 0.0
Co578 Co 0.678 0.20142 0.93162 0.0
Co579 Co 0.65587 0.2215 0.894 0.0
C580 C 0.65283 0.17658 0.90211 0.0
O581 O 0.66361 0.17762 0.91841 0.0
O582 O 0.64873 0.19243 0.89149 0.0
C583 C 0.70913 0.17852 0.95586 0.0
O584 O 0.71588 0.16993 0.9389 0.0
C585 C 0.64021 0.22979 0.8521 0.0
C586 C 0.6265 0.26051 0.85684 0.0
C587 C 0.62874 0.24499 0.84253 0.0
N588 N 0.64436 0.23605 0.87136 0.0
N589 N 0.63627 0.25448 0.87397 0.0
C590 C 0.64547 0.20901 0.84391 0.0
H591 H 0.65987 0.20336 0.85106 0.0
H592 H 0.64708 0.20933 0.82695 0.0
H593 H 0.63293 0.19818 0.8479 0.0
C594 C 0.71292 0.22528 0.91336 0.0
N595 N 0.694 0.21692 0.91223 0.0
N596 N 0.68464 0.2244 0.89593 0.0
C597 C 0.69737 0.23719 0.88591 0.0
C598 C 0.71576 0.23836 0.89665 0.0
C599 C 0.72689 0.22288 0.93143 0.0
H600 H 0.71812 0.22525 0.94585 0.0
H601 H 0.73307 0.20702 0.93157 0.0
H602 H 0.74001 0.23372 0.93077 0.0
O603 O 0.65842 0.22035 0.94505 0.0
O604 O 0.64332 0.23475 0.91828 0.0
H605 H 0.67914 0.26215 0.8749 0.0
H606 H 0.70337 0.25958 0.86181 0.0
C607 C 0.69049 0.25099 0.86883 0.0
H608 H 0.6829 0.24169 0.85677 0.0
H609 H 0.6369 0.26273 0.88768 0.0
O610 O 0.69451 0.1914 0.9551 0.0
C611 C 0.64582 0.23321 0.93757 0.0
Co612 Co 0.05231 0.43014 0.18531 0.0
Co613 Co 0.02887 0.40523 0.15131 0.0
C614 C 0.07488 0.40309 0.15622 0.0
O615 O 0.07552 0.41547 0.17138 0.0
O616 O 0.05802 0.39809 0.1478 0.0
C617 C 0.07549 0.46318 0.207 0.0
O618 O 0.08384 0.46883 0.18952 0.0
C619 C 0.01786 0.3938 0.10872 0.0
C620 C 0.99157 0.37306 0.11416 0.0
C621 C 0.00357 0.3815 0.09875 0.0
N622 N 0.01431 0.39273 0.12908 0.0
N623 N 0.99861 0.38024 0.13218 0.0
C624 C 0.03539 0.40527 0.09926 0.0
H625 H 0.04679 0.4097 0.11108 0.0
H626 H 0.02965 0.41947 0.09185 0.0
H627 H 0.04282 0.39574 0.08722 0.0
C628 C 0.02826 0.46439 0.16524 0.0
N629 N 0.03512 0.44479 0.16607 0.0
N630 N 0.02565 0.43408 0.15174 0.0
C631 C 0.01266 0.44639 0.14142 0.0
C632 C 0.01415 0.46609 0.14931 0.0
C633 C 0.0337 0.48072 0.18043 0.0
H634 H 0.033 0.47439 0.19623 0.0
H635 H 0.04959 0.48598 0.17742 0.0
H636 H 0.02333 0.49418 0.17922 0.0
O637 O 0.03524 0.41028 0.20096 0.0
O638 O 0.01721 0.39396 0.17712 0.0
H639 H 0.99002 0.42412 0.13262 0.0
H640 H 0.98379 0.44994 0.12508 0.0
C641 C 0.99652 0.43877 0.12691 0.0
H642 H 0.00351 0.4361 0.11164 0.0
H643 H 0.99273 0.37657 0.14663 0.0
O644 O 0.06287 0.44832 0.20743 0.0
C645 C 0.02157 0.39732 0.19587 0.0
Co646 Co 0.82257 0.80613 0.43128 0.0
Co647 Co 0.8518 0.7848 0.39926 0.0
C648 C 0.85159 0.83003 0.40374 0.0
O649 O 0.83845 0.82982 0.41835 0.0
O650 O 0.85775 0.81362 0.39528 0.0
C651 C 0.78435 0.82575 0.4463 0.0
O652 O 0.77931 0.82874 0.42701 0.0
C653 C 0.87141 0.7745 0.35971 0.0
C654 C 0.8859 0.74469 0.36709 0.0
C655 C 0.88335 0.75886 0.35144 0.0
N656 N 0.867 0.76962 0.37931 0.0
N657 N 0.87583 0.75187 0.38364 0.0
C658 C 0.8654 0.7944 0.34989 0.0
H659 H 0.8487 0.79704 0.35204 0.0
H660 H 0.86939 0.79492 0.33336 0.0
H661 H 0.87359 0.8071 0.35774 0.0
C662 C 0.79294 0.77742 0.41071 0.0
N663 N 0.81089 0.78785 0.41126 0.0
N664 N 0.82314 0.78032 0.39699 0.0
C665 C 0.81304 0.76591 0.38625 0.0
C666 C 0.7937 0.76322 0.39475 0.0
C667 C 0.77736 0.77778 0.42765 0.0
H668 H 0.78485 0.78128 0.44251 0.0
H669 H 0.76582 0.78985 0.42432 0.0
H670 H 0.76916 0.76289 0.42888 0.0
O671 O 0.84039 0.78915 0.44904 0.0
O672 O 0.86165 0.77491 0.42645 0.0
H673 H 0.83414 0.74239 0.37716 0.0
H674 H 0.81105 0.7434 0.36185 0.0
C675 C 0.8227 0.75278 0.37001 0.0
H676 H 0.83063 0.76265 0.35866 0.0
H677 H 0.87493 0.74462 0.3979 0.0
O678 O 0.80135 0.81716 0.45056 0.0
C679 C 0.85544 0.77747 0.4448 0.0
Co680 Co 0.9456 0.07273 0.18485 0.0
Co681 Co 0.96553 0.0962 0.1477 0.0
C682 C 0.92047 0.09857 0.15634 0.0
O683 O 0.92142 0.08727 0.17231 0.0
O684 O 0.93637 0.10294 0.14593 0.0
C685 C 0.92431 0.03954 0.20763 0.0
O686 O 0.91649 0.03318 0.19017 0.0
C687 C 0.97414 0.10773 0.10438 0.0
C688 C 0.00094 0.12808 0.10864 0.0
C689 C 0.98796 0.12014 0.0938 0.0
N690 N 0.9789 0.10832 0.1245 0.0
N691 N 0.99491 0.12054 0.12687 0.0
C692 C 0.95614 0.09638 0.09577 0.0
H693 H 0.94475 0.093 0.10797 0.0
H694 H 0.96142 0.08157 0.08923 0.0
H695 H 0.94886 0.10542 0.08328 0.0
C696 C 0.97067 0.03889 0.16616 0.0
N697 N 0.96155 0.0575 0.16505 0.0
N698 N 0.96933 0.06751 0.14924 0.0
C699 C 0.98337 0.05567 0.13977 0.0
C700 C 0.98467 0.03704 0.15008 0.0
C701 C 0.96822 0.02437 0.18382 0.0
H702 H 0.96949 0.03288 0.19852 0.0
H703 H 0.95278 0.01729 0.18306 0.0
H704 H 0.97973 0.01183 0.18342 0.0
O705 O 0.96437 0.09241 0.19855 0.0
O706 O 0.97872 0.1084 0.17214 0.0
H707 H 0.00553 0.07809 0.1304 0.0
H708 H 0.01082 0.05283 0.12068 0.0
C709 C 0.99841 0.06386 0.12436 0.0
H710 H 0.99018 0.06769 0.10999 0.0
H711 H 0.00165 0.12389 0.141 0.0
O712 O 0.9361 0.05507 0.20788 0.0
C713 C 0.97711 0.10536 0.19138 0.0
Co714 Co 0.32472 0.69438 0.56428 0.0
Co715 Co 0.34754 0.71568 0.60095 0.0
C716 C 0.35151 0.67077 0.59416 0.0
O717 O 0.34038 0.67126 0.57802 0.0
O718 O 0.3553 0.68689 0.60445 0.0
C719 C 0.29044 0.67254 0.54386 0.0
O720 O 0.28361 0.66744 0.56215 0.0
C721 C 0.36479 0.72663 0.64178 0.0
C722 C 0.37506 0.75839 0.6355 0.0
C723 C 0.37479 0.74335 0.65051 0.0
N724 N 0.35946 0.73169 0.62245 0.0
N725 N 0.36562 0.75069 0.61888 0.0
C726 C 0.36183 0.70569 0.65076 0.0
H727 H 0.34557 0.70096 0.64888 0.0
H728 H 0.36624 0.70507 0.66717 0.0
H729 H 0.37142 0.69455 0.64212 0.0
C730 C 0.29075 0.72033 0.58177 0.0
N731 N 0.30918 0.71092 0.58343 0.0
N732 N 0.31866 0.71835 0.59968 0.0
C733 C 0.30632 0.73186 0.60931 0.0
C734 C 0.28826 0.73388 0.59817 0.0
C735 C 0.27716 0.71874 0.5633 0.0
H736 H 0.2866 0.71801 0.54913 0.0
H737 H 0.26797 0.70447 0.56444 0.0
H738 H 0.26624 0.73176 0.56227 0.0
O739 O 0.34362 0.71295 0.54925 0.0
O740 O 0.35909 0.72788 0.57554 0.0
H741 H 0.32355 0.75769 0.61986 0.0
H742 H 0.30039 0.75317 0.63424 0.0
C743 C 0.31341 0.74562 0.6263 0.0
H744 H 0.32218 0.73657 0.63772 0.0
H745 H 0.36361 0.75834 0.60495 0.0
O746 O 0.30682 0.68302 0.54222 0.0
C747 C 0.35629 0.726 0.5563 0.0
Co748 Co 0.04844 0.5807 0.31566 0.0
Co749 Co 0.02632 0.6103 0.34672 0.0
C750 C 0.0719 0.60612 0.34622 0.0
O751 O 0.07178 0.59403 0.3308 0.0
O752 O 0.05537 0.61303 0.35399 0.0
C753 C 0.07068 0.54468 0.29745 0.0
O754 O 0.07713 0.53903 0.3157 0.0
C755 C 0.00949 0.62555 0.38638 0.0
C756 C 0.98791 0.64911 0.375 0.0
C757 C 0.99492 0.63988 0.39286 0.0
N758 N 0.01064 0.62627 0.36573 0.0
N759 N 0.9979 0.64059 0.35912 0.0
C760 C 0.02129 0.61054 0.39914 0.0
H761 H 0.02793 0.59827 0.38934 0.0
H762 H 0.01122 0.60367 0.41107 0.0
H763 H 0.03407 0.61867 0.40692 0.0
C764 C 0.01836 0.55121 0.33391 0.0
N765 N 0.02808 0.56951 0.33374 0.0
N766 N 0.01843 0.58215 0.34632 0.0
C767 C 0.00232 0.57229 0.35479 0.0
C768 C 0.00189 0.55231 0.34744 0.0
C769 C 0.02372 0.53365 0.32009 0.0
H770 H 0.02412 0.53901 0.30392 0.0
H771 H 0.03921 0.52793 0.32414 0.0
H772 H 0.01269 0.52077 0.32162 0.0
O773 O 0.03428 0.60051 0.2976 0.0
O774 O 0.02056 0.62266 0.31952 0.0
H775 H 0.98284 0.59831 0.36058 0.0
H776 H 0.97101 0.57398 0.36614 0.0
C777 C 0.98562 0.58271 0.36675 0.0
H778 H 0.99034 0.58396 0.38304 0.0
H779 H 0.99569 0.64427 0.34369 0.0
O780 O 0.05925 0.56038 0.29555 0.0
C781 C 0.02401 0.61668 0.30127 0.0
Co782 Co 0.44723 0.42648 0.81523 0.0
Co783 Co 0.46651 0.40222 0.85229 0.0
C784 C 0.42114 0.40279 0.84519 0.0
O785 O 0.42247 0.41348 0.82881 0.0
O786 O 0.43697 0.39783 0.85539 0.0
C787 C 0.42595 0.46064 0.79529 0.0
O788 O 0.41843 0.46448 0.81362 0.0
C789 C 0.47599 0.392 0.89559 0.0
C790 C 0.49993 0.36831 0.89144 0.0
C791 C 0.48878 0.37867 0.90631 0.0
N792 N 0.47957 0.38962 0.87536 0.0
N793 N 0.49385 0.37539 0.87303 0.0
C794 C 0.45983 0.40588 0.90423 0.0
H795 H 0.46699 0.42051 0.90916 0.0
H796 H 0.45246 0.3987 0.91784 0.0
H797 H 0.4481 0.4095 0.89245 0.0
C798 C 0.47508 0.45878 0.83265 0.0
N799 N 0.46491 0.44076 0.83435 0.0
N800 N 0.47284 0.43038 0.84982 0.0
C801 C 0.48825 0.44126 0.85826 0.0
C802 C 0.49014 0.45975 0.84779 0.0
C803 C 0.47197 0.47378 0.8155 0.0
H804 H 0.45647 0.48064 0.81692 0.0
H805 H 0.48333 0.48644 0.81591 0.0
H806 H 0.47294 0.46569 0.80054 0.0
O807 O 0.46425 0.40519 0.8011 0.0
O808 O 0.47748 0.38841 0.82763 0.0
H809 H 0.50826 0.41674 0.8673 0.0
H810 H 0.51763 0.4417 0.87428 0.0
C811 C 0.50363 0.43217 0.87278 0.0
H812 H 0.49652 0.43052 0.88815 0.0
H813 H 0.49939 0.37041 0.85884 0.0
O814 O 0.43797 0.44543 0.79289 0.0
C815 C 0.47582 0.39118 0.80835 0.0
Co816 Co 0.56565 0.67943 0.80288 0.0
Co817 Co 0.60206 0.65428 0.7836 0.0
C818 C 0.59611 0.65565 0.82871 0.0
O819 O 0.57972 0.66633 0.82726 0.0
O820 O 0.60628 0.65027 0.81295 0.0
C821 C 0.54752 0.71489 0.82363 0.0
O822 O 0.56639 0.71936 0.82918 0.0
C823 C 0.64369 0.63873 0.77322 0.0
C824 C 0.63669 0.6209 0.7452 0.0
C825 C 0.65249 0.62615 0.75837 0.0
N826 N 0.62357 0.64076 0.7689 0.0
N827 N 0.61956 0.63006 0.75214 0.0
C828 C 0.65359 0.64743 0.79202 0.0
H829 H 0.64971 0.66397 0.79338 0.0
H830 H 0.67048 0.64534 0.79186 0.0
H831 H 0.64723 0.63958 0.80575 0.0
C832 C 0.5833 0.71091 0.7742 0.0
N833 N 0.58462 0.69304 0.78467 0.0
N834 N 0.60029 0.68249 0.77737 0.0
C835 C 0.60966 0.69337 0.76252 0.0
C836 C 0.5992 0.71177 0.75991 0.0
C837 C 0.5658 0.7257 0.77613 0.0
H838 H 0.55105 0.71721 0.77671 0.0
H839 H 0.56751 0.73443 0.79062 0.0
H840 H 0.5655 0.73692 0.76332 0.0
O841 O 0.55047 0.65857 0.78654 0.0
O842 O 0.57665 0.64088 0.77394 0.0
H843 H 0.61899 0.67122 0.74017 0.0
H844 H 0.63134 0.69569 0.73706 0.0
C845 C 0.62562 0.68449 0.7485 0.0
H846 H 0.63878 0.67896 0.75774 0.0
H847 H 0.60504 0.62888 0.7455 0.0
O848 O 0.54424 0.69893 0.8129 0.0
C849 C 0.55743 0.64401 0.77551 0.0
Co850 Co 0.57217 0.31949 0.05518 0.0
Co851 Co 0.59629 0.35349 0.03124 0.0
C852 C 0.59859 0.34937 0.07724 0.0
O853 O 0.58659 0.33396 0.07816 0.0
O854 O 0.60327 0.35766 0.06022 0.0
C855 C 0.53944 0.29833 0.07893 0.0
O856 O 0.53341 0.31615 0.0862 0.0
C857 C 0.60558 0.39612 0.01971 0.0
C858 C 0.62904 0.39165 0.99557 0.0
C859 C 0.61848 0.40663 0.00639 0.0
N860 N 0.60833 0.37586 0.01676 0.0
N861 N 0.6224 0.37331 0.00235 0.0
C862 C 0.59187 0.40503 0.03587 0.0
H863 H 0.58781 0.39327 0.0475 0.0
H864 H 0.57747 0.41059 0.02869 0.0
H865 H 0.59947 0.41832 0.04335 0.0
C866 C 0.53834 0.33638 0.02872 0.0
N867 N 0.55718 0.33777 0.03729 0.0
N868 N 0.56762 0.35209 0.02749 0.0
C869 C 0.55596 0.36009 0.01243 0.0
C870 C 0.53687 0.35062 0.01283 0.0
C871 C 0.52301 0.32007 0.03393 0.0
H872 H 0.53045 0.30475 0.03321 0.0
H873 H 0.51745 0.32254 0.04982 0.0
H874 H 0.50956 0.32042 0.02351 0.0
O875 O 0.59218 0.30395 0.03818 0.0
O876 O 0.60815 0.32796 0.01995 0.0
H877 H 0.57981 0.36684 0.99066 0.0
H878 H 0.55454 0.37266 0.98142 0.0
C879 C 0.56451 0.37278 0.99518 0.0
H880 H 0.56625 0.38887 1.00038 0.0
H881 H 0.62761 0.35903 0.99727 0.0
O882 O 0.55444 0.29743 0.06649 0.0
C883 C 0.605 0.3092 0.02439 0.0
Co884 Co 0.92951 0.32052 0.30319 0.0
Co885 Co 0.89232 0.34191 0.28126 0.0
C886 C 0.89643 0.34402 0.32645 0.0
O887 O 0.91332 0.33395 0.32651 0.0
O888 O 0.88708 0.34823 0.30988 0.0
C889 C 0.95208 0.2871 0.32495 0.0
O890 O 0.93429 0.27901 0.32996 0.0
C891 C 0.85224 0.35996 0.26914 0.0
C892 C 0.85918 0.36806 0.23687 0.0
C893 C 0.84428 0.36971 0.25193 0.0
N894 N 0.87113 0.353 0.26439 0.0
N895 N 0.87505 0.35777 0.24505 0.0
C896 C 0.84313 0.35903 0.29021 0.0
H897 H 0.85132 0.37006 0.30027 0.0
H898 H 0.84539 0.34343 0.29672 0.0
H899 H 0.82658 0.36299 0.29013 0.0
C900 C 0.91345 0.28558 0.27711 0.0
N901 N 0.91172 0.30436 0.28581 0.0
N902 N 0.89516 0.3133 0.27837 0.0
C903 C 0.88529 0.30025 0.26585 0.0
C904 C 0.89657 0.28227 0.26442 0.0
C905 C 0.93205 0.27219 0.27882 0.0
H906 H 0.94606 0.28174 0.28032 0.0
H907 H 0.93057 0.26243 0.29269 0.0
H908 H 0.93357 0.26188 0.26534 0.0
O909 O 0.9439 0.34093 0.28542 0.0
O910 O 0.91713 0.35517 0.27026 0.0
H911 H 0.87274 0.31553 0.23968 0.0
H912 H 0.85909 0.29261 0.24679 0.0
C913 C 0.86728 0.30622 0.25286 0.0
H914 H 0.85636 0.31552 0.26204 0.0
H915 H 0.88887 0.35452 0.23761 0.0
O916 O 0.95257 0.30365 0.31458 0.0
C917 C 0.93642 0.35348 0.27246 0.0
Co918 Co 0.92521 0.68259 0.55261 0.0
Co919 Co 0.89817 0.64792 0.53325 0.0
C920 C 0.90068 0.65345 0.57861 0.0
O921 O 0.9124 0.66907 0.5773 0.0
O922 O 0.89429 0.64416 0.56274 0.0
C923 C 0.96066 0.70333 0.57232 0.0
O924 O 0.96805 0.68529 0.57748 0.0
C925 C 0.88492 0.60563 0.52525 0.0
C926 C 0.86557 0.60945 0.49766 0.0
C927 C 0.87304 0.59487 0.51123 0.0
N928 N 0.88465 0.6256 0.52002 0.0
N929 N 0.8729 0.62782 0.50364 0.0
C930 C 0.89542 0.59756 0.54402 0.0
H931 H 0.91128 0.60374 0.54486 0.0
H932 H 0.89566 0.58056 0.54453 0.0
H933 H 0.88702 0.60314 0.55775 0.0
C934 C 0.95563 0.6646 0.52325 0.0
N935 N 0.93803 0.66353 0.53422 0.0
N936 N 0.92664 0.64856 0.52678 0.0
C937 C 0.93691 0.63921 0.51147 0.0
C938 C 0.9555 0.64918 0.50845 0.0
C939 C 0.97016 0.68238 0.52414 0.0
H940 H 0.96146 0.69691 0.52594 0.0
H941 H 0.9803 0.68054 0.53768 0.0
H942 H 0.97992 0.68328 0.51019 0.0
O943 O 0.9048 0.69785 0.53634 0.0
O944 O 0.8849 0.67363 0.52303 0.0
H945 H 0.91449 0.62917 0.48965 0.0
H946 H 0.93929 0.61697 0.48677 0.0
C947 C 0.92792 0.62288 0.49801 0.0
H948 H 0.92272 0.60987 0.50763 0.0
H949 H 0.87005 0.64184 0.49643 0.0
O950 O 0.94403 0.70449 0.56223 0.0
C951 C 0.88974 0.69246 0.5252 0.0
Co952 Co 0.56763 0.31623 0.69322 0.0
Co953 Co 0.59663 0.34588 0.71802 0.0
C954 C 0.59524 0.3464 0.67198 0.0
O955 O 0.5812 0.33275 0.67083 0.0
O956 O 0.60231 0.3525 0.68913 0.0
C957 C 0.53446 0.29746 0.67155 0.0
O958 O 0.53028 0.31666 0.66694 0.0
C959 C 0.6347 0.36348 0.73652 0.0
C960 C 0.6207 0.38351 0.76003 0.0
C961 C 0.63954 0.37685 0.75263 0.0
N962 N 0.61409 0.3622 0.73508 0.0
N963 N 0.60591 0.37447 0.74898 0.0
C964 C 0.64896 0.35139 0.72316 0.0
H965 H 0.64034 0.33971 0.71424 0.0
H966 H 0.66089 0.34374 0.73261 0.0
H967 H 0.65667 0.36192 0.7122 0.0
C968 C 0.59045 0.28554 0.71867 0.0
N969 N 0.58759 0.30491 0.71182 0.0
N970 N 0.59961 0.31736 0.72231 0.0
C971 C 0.61024 0.30638 0.73622 0.0
C972 C 0.60517 0.28584 0.73406 0.0
C973 C 0.57793 0.26751 0.712 0.0
H974 H 0.57869 0.26607 0.69504 0.0
H975 H 0.58345 0.25308 0.71921 0.0
H976 H 0.56164 0.2701 0.71631 0.0
O977 O 0.54752 0.3333 0.70888 0.0
O978 O 0.56858 0.35339 0.72647 0.0
H979 H 0.62267 0.30508 0.76707 0.0
H980 H 0.63828 0.31807 0.74855 0.0
C981 C 0.62224 0.3155 0.7536 0.0
H982 H 0.61539 0.33027 0.75844 0.0
H983 H 0.59017 0.37636 0.75128 0.0
O984 O 0.55069 0.29352 0.68167 0.0
C985 C 0.55058 0.34742 0.72199 0.0
Co986 Co 0.9217 0.32001 0.94938 0.0
Co987 Co 0.89667 0.35553 0.96978 0.0
C988 C 0.89719 0.35011 0.92434 0.0
O989 O 0.90795 0.33377 0.92537 0.0
O990 O 0.89216 0.36002 0.94038 0.0
C991 C 0.9547 0.29837 0.92626 0.0
O992 O 0.96057 0.31593 0.91826 0.0
C993 C 0.88463 0.39692 0.98571 0.0
C994 C 0.85924 0.38754 0.00621 0.0
C995 C 0.87039 0.40446 0.99982 0.0
N996 N 0.88215 0.37643 0.98436 0.0
N997 N 0.86668 0.3711 0.99636 0.0
C998 C 0.90086 0.40859 0.97441 0.0
H999 H 0.91241 0.39794 0.96776 0.0
H1000 H 0.90843 0.41976 0.98481 0.0
H1001 H 0.89363 0.41728 0.96167 0.0
C1002 C 0.95418 0.33759 0.97661 0.0
N1003 N 0.93582 0.33908 0.96711 0.0
N1004 N 0.92509 0.35383 0.97598 0.0
C1005 C 0.93613 0.36189 0.99149 0.0
C1006 C 0.95507 0.35212 0.99224 0.0
C1007 C 0.96946 0.32092 0.97247 0.0
H1008 H 0.97501 0.32231 0.95645 0.0
H1009 H 0.98287 0.32187 0.98291 0.0
H1010 H 0.96193 0.30573 0.97417 0.0
O1011 O 0.90197 0.30443 0.96673 0.0
O1012 O 0.88418 0.33004 0.98009 0.0
H1013 H 0.93535 0.37315 0.0229 0.0
H1014 H 0.9283 0.39142 0.00355 0.0
C1015 C 0.92713 0.37507 0.00812 0.0
H1016 H 0.91081 0.37112 0.01065 0.0
H1017 H 0.86134 0.35612 0.99817 0.0
O1018 O 0.93991 0.2979 0.93898 0.0
C1019 C 0.8879 0.31097 0.97859 0.0
Co1020 Co 0.93031 0.69079 0.19396 0.0
Co1021 Co 0.89742 0.66193 0.21498 0.0
C1022 C 0.90107 0.66479 0.16935 0.0
O1023 O 0.91632 0.6771 0.16987 0.0
O1024 O 0.89262 0.65825 0.18566 0.0
C1025 C 0.94879 0.72737 0.17354 0.0
O1026 O 0.9303 0.73277 0.16756 0.0
C1027 C 0.85592 0.64761 0.22741 0.0
C1028 C 0.86387 0.62518 0.25158 0.0
C1029 C 0.84738 0.63391 0.2414 0.0
N1030 N 0.87649 0.64711 0.22946 0.0
N1031 N 0.88109 0.63355 0.24384 0.0
C1032 C 0.84485 0.66012 0.21161 0.0
H1033 H 0.83882 0.67435 0.21875 0.0
H1034 H 0.83165 0.65137 0.20536 0.0
H1035 H 0.8554 0.66461 0.19902 0.0
C1036 C 0.91087 0.72075 0.22308 0.0
N1037 N 0.9112 0.70252 0.21318 0.0
N1038 N 0.89754 0.69026 0.2218 0.0
C1039 C 0.88802 0.70034 0.23713 0.0
C1040 C 0.89588 0.72007 0.23825 0.0
C1041 C 0.92627 0.7375 0.21991 0.0
H1042 H 0.9419 0.73084 0.21867 0.0
H1043 H 0.92273 0.74563 0.20538 0.0
H1044 H 0.92589 0.74886 0.2326 0.0
O1045 O 0.94704 0.67072 0.2094 0.0
O1046 O 0.92405 0.64952 0.22307 0.0
H1047 H 0.88155 0.67544 0.25772 0.0
H1048 H 0.87231 0.69993 0.26665 0.0
C1049 C 0.87459 0.69019 0.25287 0.0
H1050 H 0.85937 0.68703 0.24606 0.0
H1051 H 0.89603 0.63007 0.24847 0.0
O1052 O 0.95116 0.71112 0.18409 0.0
C1053 C 0.94257 0.65504 0.22015 0.0
Co1054 Co 0.57406 0.68304 0.45102 0.0
Co1055 Co 0.59736 0.64604 0.47118 0.0
C1056 C 0.60051 0.65359 0.42639 0.0
O1057 O 0.58928 0.66967 0.42725 0.0
O1058 O 0.60466 0.64323 0.44235 0.0
C1059 C 0.53837 0.70003 0.43042 0.0
O1060 O 0.53367 0.6807 0.42706 0.0
C1061 C 0.61128 0.60381 0.48016 0.0
C1062 C 0.62588 0.60808 0.51049 0.0
C1063 C 0.62169 0.59347 0.49563 0.0
N1064 N 0.60932 0.62361 0.48577 0.0
N1065 N 0.61816 0.62604 0.50385 0.0
C1066 C 0.60455 0.59566 0.45977 0.0
H1067 H 0.58862 0.60076 0.45652 0.0
H1068 H 0.6056 0.5787 0.45897 0.0
H1069 H 0.61456 0.60224 0.44764 0.0
C1070 C 0.54117 0.6655 0.47818 0.0
N1071 N 0.55905 0.66366 0.46773 0.0
N1072 N 0.56859 0.64707 0.47428 0.0
C1073 C 0.5567 0.63734 0.48809 0.0
C1074 C 0.53906 0.64881 0.49138 0.0
C1075 C 0.52867 0.6848 0.47887 0.0
H1076 H 0.53863 0.69839 0.47638 0.0
H1077 H 0.51698 0.68427 0.46651 0.0
H1078 H 0.5205 0.68641 0.49375 0.0
O1079 O 0.59336 0.69789 0.46941 0.0
O1080 O 0.60895 0.67128 0.48389 0.0
H1081 H 0.57562 0.62467 0.51176 0.0
H1082 H 0.55073 0.6127 0.5096 0.0
C1083 C 0.56367 0.61949 0.50081 0.0
H1084 H 0.5703 0.60752 0.49071 0.0
H1085 H 0.61893 0.63999 0.51169 0.0
O1086 O 0.55492 0.70427 0.43985 0.0
C1087 C 0.60615 0.69059 0.48226 0.0
Co1088 Co 0.80113 0.57326 0.6824 0.0
Co1089 Co 0.78167 0.6067 0.65373 0.0
C1090 C 0.82697 0.59874 0.65426 0.0
O1091 O 0.82588 0.58421 0.66737 0.0
O1092 O 0.81108 0.60812 0.64798 0.0
C1093 C 0.82679 0.54504 0.70653 0.0
O1094 O 0.8418 0.54928 0.69373 0.0
C1095 C 0.77307 0.64721 0.63459 0.0
C1096 C 0.74631 0.63913 0.61538 0.0
C1097 C 0.75943 0.65513 0.6202 0.0
N1098 N 0.76817 0.62741 0.63799 0.0
N1099 N 0.75214 0.62276 0.62647 0.0
C1100 C 0.7911 0.65782 0.64406 0.0
H1101 H 0.8024 0.64651 0.64985 0.0
H1102 H 0.78579 0.66717 0.65727 0.0
H1103 H 0.79848 0.66824 0.63275 0.0
C1104 C 0.77678 0.5972 0.71313 0.0
N1105 N 0.78499 0.59503 0.69422 0.0
N1106 N 0.77711 0.60918 0.68211 0.0
C1107 C 0.76374 0.62075 0.69281 0.0
C1108 C 0.76309 0.61363 0.71292 0.0
C1109 C 0.78027 0.58242 0.73036 0.0
H1110 H 0.77382 0.56723 0.72613 0.0
H1111 H 0.797 0.58046 0.73284 0.0
H1112 H 0.77299 0.58783 0.74481 0.0
O1113 O 0.78321 0.55638 0.6641 0.0
O1114 O 0.76936 0.58066 0.64472 0.0
H1115 H 0.74144 0.62795 0.66977 0.0
H1116 H 0.73725 0.64119 0.6937 0.0
C1117 C 0.74914 0.63554 0.68291 0.0
H1118 H 0.75789 0.64884 0.6769 0.0
H1119 H 0.74534 0.60827 0.62592 0.0
O1120 O 0.80954 0.55395 0.70444 0.0
C1121 C 0.7709 0.56194 0.64999 0.0
Co1122 Co 0.68064 0.55789 0.93064 0.0
Co1123 Co 0.6477 0.53694 0.90214 0.0
C1124 C 0.65227 0.58269 0.90429 0.0
O1125 O 0.66756 0.58207 0.91651 0.0
O1126 O 0.64348 0.56643 0.89808 0.0
C1127 C 0.7165 0.57722 0.94671 0.0
O1128 O 0.71914 0.58197 0.92727 0.0
C1129 C 0.60568 0.525 0.8899 0.0
C1130 C 0.61208 0.50134 0.86644 0.0
C1131 C 0.59618 0.51133 0.8765 0.0
N1132 N 0.62616 0.52292 0.88793 0.0
N1133 N 0.62985 0.50884 0.87379 0.0
C1134 C 0.59568 0.54049 0.90363 0.0
H1135 H 0.59161 0.53316 0.91845 0.0
H1136 H 0.58141 0.54649 0.89649 0.0
H1137 H 0.60635 0.55333 0.90691 0.0
C1138 C 0.66071 0.53064 0.96112 0.0
N1139 N 0.66087 0.53989 0.9426 0.0
N1140 N 0.64771 0.53049 0.93048 0.0
C1141 C 0.63898 0.51482 0.94078 0.0
C1142 C 0.64678 0.51448 0.96064 0.0
C1143 C 0.6755 0.53554 0.97798 0.0
H1144 H 0.69115 0.53067 0.97329 0.0
H1145 H 0.67579 0.55237 0.98058 0.0
H1146 H 0.67123 0.52763 0.99247 0.0
O1147 O 0.69731 0.54123 0.91123 0.0
O1148 O 0.67417 0.52791 0.88997 0.0
H1149 H 0.63365 0.49471 0.91521 0.0
H1150 H 0.62722 0.48356 0.9396 0.0
C1151 C 0.62707 0.49798 0.93056 0.0
H1152 H 0.61091 0.50291 0.92863 0.0
H1153 H 0.64452 0.50426 0.86924 0.0
O1154 O 0.70036 0.56754 0.95196 0.0
C1155 C 0.6927 0.5303 0.89571 0.0
Co1156 Co 0.69859 0.43706 0.17568 0.0
Co1157 Co 0.72152 0.40349 0.14921 0.0
C1158 C 0.67573 0.40861 0.14772 0.0
O1159 O 0.67548 0.4234 0.16058 0.0
O1160 O 0.69239 0.4001 0.14208 0.0
C1161 C 0.67661 0.45666 0.21096 0.0
O1162 O 0.67047 0.43849 0.21719 0.0
C1163 C 0.73368 0.36234 0.13254 0.0
C1164 C 0.76251 0.37072 0.11673 0.0
C1165 C 0.74952 0.35434 0.12058 0.0
N1166 N 0.73729 0.38252 0.13559 0.0
N1167 N 0.75457 0.38732 0.12608 0.0
C1168 C 0.71497 0.35128 0.14001 0.0
H1169 H 0.70271 0.36227 0.14426 0.0
H1170 H 0.71892 0.34217 0.15384 0.0
H1171 H 0.70933 0.34052 0.12806 0.0
C1172 C 0.72375 0.41613 0.20852 0.0
N1173 N 0.71605 0.41735 0.18927 0.0
N1174 N 0.7245 0.40271 0.17807 0.0
C1175 C 0.73714 0.39146 0.18989 0.0
C1176 C 0.73694 0.3994 0.2096 0.0
C1177 C 0.72063 0.43202 0.22482 0.0
H1178 H 0.71948 0.44749 0.2178 0.0
H1179 H 0.70618 0.42866 0.23317 0.0
H1180 H 0.73336 0.43184 0.23613 0.0
O1181 O 0.71536 0.4536 0.15645 0.0
O1182 O 0.7329 0.43005 0.13917 0.0
H1183 H 0.76126 0.38241 0.16945 0.0
H1184 H 0.76179 0.36924 0.19381 0.0
C1185 C 0.75162 0.37555 0.1817 0.0
H1186 H 0.74267 0.36279 0.17496 0.0
H1187 H 0.7609 0.40203 0.12581 0.0
O1188 O 0.68763 0.45824 0.19492 0.0
C1189 C 0.72885 0.44873 0.14322 0.0
Co1190 Co 0.82004 0.43958 0.4333 0.0
Co1191 Co 0.85119 0.46571 0.40724 0.0
C1192 C 0.85305 0.41964 0.4082 0.0
O1193 O 0.83759 0.4175 0.4201 0.0
O1194 O 0.85908 0.43722 0.40237 0.0
C1195 C 0.80387 0.41663 0.46902 0.0
O1196 O 0.82296 0.41168 0.47328 0.0
C1197 C 0.89172 0.48233 0.39546 0.0
C1198 C 0.88292 0.50526 0.37204 0.0
C1199 C 0.89971 0.49675 0.38192 0.0
N1200 N 0.87113 0.48247 0.39372 0.0
N1201 N 0.86601 0.49617 0.37966 0.0
C1202 C 0.9034 0.46777 0.40887 0.0
H1203 H 0.8934 0.45502 0.4141 0.0
H1204 H 0.90911 0.476 0.42262 0.0
H1205 H 0.9169 0.46161 0.40046 0.0
C1206 C 0.83438 0.4699 0.46518 0.0
N1207 N 0.83632 0.46051 0.44674 0.0
N1208 N 0.8496 0.47099 0.43559 0.0
C1209 C 0.85645 0.48718 0.44641 0.0
C1210 C 0.84731 0.48689 0.46564 0.0
C1211 C 0.81882 0.46424 0.48112 0.0
H1212 H 0.80359 0.46207 0.47383 0.0
H1213 H 0.82347 0.44962 0.48844 0.0
H1214 H 0.81762 0.47606 0.49332 0.0
O1215 O 0.80203 0.45368 0.41285 0.0
O1216 O 0.82427 0.47294 0.39558 0.0
H1217 H 0.86105 0.50874 0.42191 0.0
H1218 H 0.86729 0.51885 0.44676 0.0
C1219 C 0.86782 0.5049 0.43703 0.0
H1220 H 0.8841 0.50057 0.43476 0.0
H1221 H 0.85094 0.49926 0.37517 0.0
O1222 O 0.80008 0.42736 0.45316 0.0
C1223 C 0.80598 0.46713 0.39922 0.0
Co1224 Co 0.7963 0.43113 0.82282 0.0
Co1225 Co 0.77856 0.39992 0.85516 0.0
C1226 C 0.82391 0.40532 0.84891 0.0
O1227 O 0.82216 0.41943 0.83539 0.0
O1228 O 0.80833 0.39703 0.85723 0.0
C1229 C 0.81847 0.4572 0.79206 0.0
O1230 O 0.83628 0.45119 0.79936 0.0
C1231 C 0.77014 0.35972 0.87508 0.0
C1232 C 0.74303 0.36775 0.89386 0.0
C1233 C 0.75582 0.35154 0.8887 0.0
N1234 N 0.76571 0.37973 0.87218 0.0
N1235 N 0.74961 0.38441 0.88362 0.0
C1236 C 0.78799 0.34895 0.86535 0.0
H1237 H 0.7832 0.34254 0.85032 0.0
H1238 H 0.7935 0.33622 0.87525 0.0
H1239 H 0.80073 0.35981 0.86252 0.0
C1240 C 0.76703 0.40855 0.79618 0.0
N1241 N 0.7777 0.41035 0.81384 0.0
N1242 N 0.77026 0.39733 0.82741 0.0
C1243 C 0.75487 0.38663 0.81874 0.0
C1244 C 0.75207 0.39351 0.79872 0.0
C1245 C 0.7688 0.4234 0.77872 0.0
H1246 H 0.76484 0.43903 0.78424 0.0
H1247 H 0.78493 0.42373 0.77321 0.0
H1248 H 0.75854 0.41933 0.76579 0.0
O1249 O 0.78146 0.44885 0.84259 0.0
O1250 O 0.7697 0.42704 0.86601 0.0
H1251 H 0.73336 0.37938 0.84253 0.0
H1252 H 0.7307 0.3637 0.8197 0.0
C1253 C 0.7418 0.37144 0.83003 0.0
H1254 H 0.75173 0.35956 0.83701 0.0
H1255 H 0.74295 0.39897 0.88426 0.0
O1256 O 0.80197 0.45003 0.79963 0.0
C1257 C 0.77162 0.4452 0.85907 0.0
Co1258 Co 0.82272 0.55759 0.07134 0.0
Co1259 Co 0.85903 0.54019 0.09805 0.0
C1260 C 0.84876 0.5848 0.09829 0.0
O1261 O 0.83359 0.58269 0.08602 0.0
O1262 O 0.85953 0.56959 0.1041 0.0
C1263 C 0.80098 0.57685 0.03563 0.0
O1264 O 0.81782 0.58682 0.03074 0.0
C1265 C 0.90034 0.53144 0.11651 0.0
C1266 C 0.89274 0.50302 0.13347 0.0
C1267 C 0.90844 0.5168 0.12978 0.0
N1268 N 0.88061 0.52649 0.11268 0.0
N1269 N 0.87632 0.50944 0.12284 0.0
C1270 C 0.91082 0.55023 0.10852 0.0
H1271 H 0.89968 0.5606 0.10087 0.0
H1272 H 0.92276 0.54569 0.09724 0.0
H1273 H 0.91861 0.55837 0.1213 0.0
C1274 C 0.84496 0.53236 0.04009 0.0
N1275 N 0.84437 0.54226 0.0583 0.0
N1276 N 0.8602 0.53628 0.06938 0.0
C1277 C 0.87167 0.52313 0.05838 0.0
C1278 C 0.86225 0.51979 0.03956 0.0
C1279 C 0.82725 0.53166 0.02547 0.0
H1280 H 0.81266 0.52996 0.03413 0.0
H1281 H 0.82662 0.54633 0.01684 0.0
H1282 H 0.82875 0.5189 0.01429 0.0
O1283 O 0.8079 0.53892 0.09034 0.0
O1284 O 0.83386 0.52639 0.10823 0.0
H1285 H 0.88341 0.50037 0.07899 0.0
H1286 H 0.8973 0.5022 0.05498 0.0
C1287 C 0.88922 0.5111 0.06708 0.0
H1288 H 0.90028 0.52174 0.07437 0.0
H1289 H 0.86203 0.50223 0.12274 0.0
O1290 O 0.80089 0.56513 0.05125 0.0
C1291 C 0.81483 0.52682 0.10398 0.0
Co1292 Co 0.70159 0.56628 0.32856 0.0
Co1293 Co 0.72285 0.60065 0.3548 0.0
C1294 C 0.67727 0.59684 0.35367 0.0
O1295 O 0.67782 0.58074 0.34248 0.0
O1296 O 0.69359 0.60601 0.35908 0.0
C1297 C 0.67921 0.54625 0.29382 0.0
O1298 O 0.67205 0.56422 0.2881 0.0
C1299 C 0.73923 0.64141 0.36859 0.0
C1300 C 0.75993 0.6307 0.39322 0.0
C1301 C 0.75341 0.64824 0.38313 0.0
N1302 N 0.73797 0.62078 0.36994 0.0
N1303 N 0.75014 0.61465 0.38494 0.0
C1304 C 0.72763 0.65387 0.3532 0.0
H1305 H 0.72082 0.6438 0.34127 0.0
H1306 H 0.73789 0.66542 0.34598 0.0
H1307 H 0.71499 0.66214 0.36111 0.0
C1308 C 0.72961 0.58442 0.29669 0.0
N1309 N 0.72028 0.58517 0.31522 0.0
N1310 N 0.72927 0.59948 0.3264 0.0
C1311 C 0.74458 0.60808 0.31543 0.0
C1312 C 0.74513 0.59908 0.29613 0.0
C1313 C 0.72512 0.56863 0.28063 0.0
H1314 H 0.72547 0.55309 0.2876 0.0
H1315 H 0.70952 0.57134 0.27445 0.0
H1316 H 0.73616 0.56937 0.26767 0.0
O1317 O 0.7179 0.54958 0.34838 0.0
O1318 O 0.73179 0.57437 0.36686 0.0
H1319 H 0.76404 0.61693 0.34059 0.0
H1320 H 0.77557 0.62037 0.31577 0.0
C1321 C 0.76098 0.62145 0.3245 0.0
H1322 H 0.75582 0.63765 0.32413 0.0
H1323 H 0.75202 0.59942 0.38944 0.0
O1324 O 0.69099 0.54496 0.30932 0.0
C1325 C 0.72959 0.55541 0.36286 0.0
Co1326 Co 0.68746 0.44355 0.57412 0.0
Co1327 Co 0.65383 0.46666 0.60013 0.0
C1328 C 0.65673 0.42098 0.60052 0.0
O1329 O 0.6723 0.42067 0.58858 0.0
O1330 O 0.64832 0.43772 0.60598 0.0
C1331 C 0.70313 0.42125 0.53815 0.0
O1332 O 0.68383 0.41701 0.53409 0.0
C1333 C 0.61352 0.47975 0.61701 0.0
C1334 C 0.62247 0.5082 0.6332 0.0
C1335 C 0.60589 0.49554 0.62922 0.0
N1336 N 0.6337 0.48307 0.61392 0.0
N1337 N 0.63889 0.5001 0.62366 0.0
C1338 C 0.60248 0.46098 0.60971 0.0
H1339 H 0.60544 0.45875 0.59307 0.0
H1340 H 0.58574 0.46185 0.61265 0.0
H1341 H 0.60873 0.44738 0.61784 0.0
C1342 C 0.67031 0.47239 0.54238 0.0
N1343 N 0.66914 0.46266 0.56068 0.0
N1344 N 0.65433 0.4712 0.57153 0.0
C1345 C 0.64527 0.48605 0.56038 0.0
C1346 C 0.65508 0.48738 0.5415 0.0
C1347 C 0.68727 0.46929 0.52714 0.0
H1348 H 0.70212 0.46744 0.53525 0.0
H1349 H 0.68418 0.45513 0.51824 0.0
H1350 H 0.68834 0.48221 0.51611 0.0
O1351 O 0.70465 0.45921 0.59387 0.0
O1352 O 0.68054 0.47594 0.6112 0.0
H1353 H 0.6381 0.51008 0.58157 0.0
H1354 H 0.62462 0.51221 0.55755 0.0
C1355 C 0.63042 0.50126 0.5692 0.0
H1356 H 0.61719 0.49298 0.57596 0.0
H1357 H 0.65374 0.50611 0.62395 0.0
O1358 O 0.70746 0.43169 0.55406 0.0
C1359 C 0.69935 0.47212 0.60754 0.0
Co1360 Co 0.68429 0.80684 0.56839 0.0
Co1361 Co 0.65934 0.7823 0.60162 0.0
C1362 C 0.65918 0.82847 0.6001 0.0
O1363 O 0.67125 0.82997 0.58471 0.0
O1364 O 0.65347 0.81116 0.60697 0.0
C1365 C 0.7187 0.8297 0.54952 0.0
O1366 O 0.72312 0.83644 0.56801 0.0
C1367 C 0.6473 0.77034 0.64367 0.0
C1368 C 0.62659 0.74422 0.63745 0.0
C1369 C 0.63461 0.75605 0.6532 0.0
N1370 N 0.64678 0.76699 0.62327 0.0
N1371 N 0.63438 0.75134 0.6197 0.0
C1372 C 0.65877 0.78762 0.65355 0.0
H1373 H 0.66384 0.79894 0.64196 0.0
H1374 H 0.6727 0.78158 0.66123 0.0
H1375 H 0.64904 0.79517 0.66535 0.0
C1376 C 0.71792 0.78018 0.58626 0.0
N1377 N 0.69866 0.788 0.58629 0.0
N1378 N 0.68794 0.77845 0.6006 0.0
C1379 C 0.69993 0.76467 0.6102 0.0
C1380 C 0.71941 0.76555 0.60173 0.0
C1381 C 0.73392 0.78492 0.57046 0.0
H1382 H 0.7268 0.78572 0.55502 0.0
H1383 H 0.74091 0.80002 0.57399 0.0
H1384 H 0.74631 0.77322 0.5704 0.0
O1385 O 0.66369 0.79092 0.55199 0.0
O1386 O 0.64766 0.77226 0.5756 0.0
H1387 H 0.67772 0.74172 0.61824 0.0
H1388 H 0.70326 0.736 0.62708 0.0
C1389 C 0.69198 0.7485 0.62455 0.0
H1390 H 0.68841 0.7556 0.63957 0.0
H1391 H 0.63103 0.74569 0.60509 0.0
O1392 O 0.70334 0.81795 0.54703 0.0
C1393 C 0.65075 0.77709 0.55693 0.0
Co1394 Co 0.1759 0.70131 0.43248 0.0
Co1395 Co 0.15335 0.72276 0.39554 0.0
C1396 C 0.14863 0.67797 0.40336 0.0
O1397 O 0.15983 0.67835 0.41942 0.0
O1398 O 0.14513 0.69405 0.39288 0.0
C1399 C 0.20836 0.67752 0.45386 0.0
O1400 O 0.21413 0.67031 0.43592 0.0
C1401 C 0.13663 0.73259 0.35419 0.0
C1402 C 0.12552 0.76422 0.35964 0.0
C1403 C 0.1263 0.74886 0.34497 0.0
N1404 N 0.14163 0.73819 0.37346 0.0
N1405 N 0.13499 0.75712 0.37652 0.0
C1406 C 0.14007 0.71149 0.34578 0.0
H1407 H 0.15608 0.70659 0.34899 0.0
H1408 H 0.13695 0.71069 0.32907 0.0
H1409 H 0.12968 0.7006 0.35378 0.0
C1410 C 0.2105 0.72549 0.41436 0.0
N1411 N 0.19173 0.71684 0.41287 0.0
N1412 N 0.18225 0.72486 0.39688 0.0
C1413 C 0.19477 0.73829 0.38743 0.0
C1414 C 0.21307 0.73947 0.39835 0.0
C1415 C 0.2245 0.72263 0.43236 0.0
H1416 H 0.21567 0.72418 0.44686 0.0
H1417 H 0.23111 0.70697 0.43179 0.0
H1418 H 0.23742 0.73371 0.43223 0.0
O1419 O 0.15743 0.72083 0.44684 0.0
O1420 O 0.14205 0.73583 0.42049 0.0
H1421 H 0.17704 0.76427 0.37808 0.0
H1422 H 0.20038 0.76112 0.36364 0.0
C1423 C 0.18757 0.75283 0.37111 0.0
H1424 H 0.17909 0.74419 0.35917 0.0
H1425 H 0.13659 0.7651 0.39032 0.0
O1426 O 0.19338 0.69 0.45493 0.0
C1427 C 0.14502 0.73412 0.43971 0.0
Co1428 Co 0.55683 0.92104 0.68625 0.0
Co1429 Co 0.53225 0.89733 0.65261 0.0
C1430 C 0.5783 0.89846 0.65238 0.0
O1431 O 0.57972 0.90947 0.66855 0.0
O1432 O 0.56102 0.89259 0.64557 0.0
C1433 C 0.57914 0.955 0.70698 0.0
O1434 O 0.58434 0.96225 0.68888 0.0
C1435 C 0.51993 0.88604 0.61092 0.0
C1436 C 0.49137 0.86856 0.61645 0.0
C1437 C 0.5044 0.87537 0.60106 0.0
N1438 N 0.51614 0.88569 0.6312 0.0
N1439 N 0.49911 0.87515 0.63443 0.0
C1440 C 0.539 0.89495 0.60171 0.0
H1441 H 0.55166 0.88373 0.6037 0.0
H1442 H 0.54327 0.90925 0.60993 0.0
H1443 H 0.53737 0.89805 0.58508 0.0
C1444 C 0.52873 0.95493 0.67094 0.0
N1445 N 0.53713 0.93595 0.66978 0.0
N1446 N 0.52788 0.92581 0.65491 0.0
C1447 C 0.51398 0.93804 0.64581 0.0
C1448 C 0.51416 0.95694 0.65549 0.0
C1449 C 0.53285 0.97002 0.68773 0.0
H1450 H 0.53506 0.96187 0.70252 0.0
H1451 H 0.54707 0.97864 0.68406 0.0
H1452 H 0.5201 0.98123 0.68925 0.0
O1453 O 0.5418 0.89962 0.70231 0.0
O1454 O 0.523 0.88437 0.67843 0.0
H1455 H 0.49039 0.9173 0.63615 0.0
H1456 H 0.4874 0.94291 0.62615 0.0
C1457 C 0.49875 0.93086 0.63014 0.0
H1458 H 0.50701 0.92632 0.61597 0.0
H1459 H 0.49276 0.87247 0.6489 0.0
O1460 O 0.56843 0.93875 0.7082 0.0
C1461 C 0.52807 0.88675 0.69713 0.0
Co1462 Co 0.31996 0.30745 0.93412 0.0
Co1463 Co 0.34547 0.28463 0.90054 0.0
C1464 C 0.34522 0.33067 0.90358 0.0
O1465 O 0.3332 0.33099 0.91905 0.0
O1466 O 0.35088 0.31386 0.89551 0.0
C1467 C 0.2852 0.32927 0.95381 0.0
O1468 O 0.27861 0.33455 0.9355 0.0
C1469 C 0.3565 0.27257 0.85848 0.0
C1470 C 0.37974 0.24853 0.86429 0.0
C1471 C 0.36972 0.259 0.84872 0.0
N1472 N 0.35853 0.27007 0.87888 0.0
N1473 N 0.37251 0.25575 0.88224 0.0
C1474 C 0.34293 0.28838 0.84876 0.0
H1475 H 0.33921 0.30076 0.85982 0.0
H1476 H 0.3283 0.28112 0.84397 0.0
H1477 H 0.35042 0.29493 0.83491 0.0
C1478 C 0.28818 0.27777 0.91845 0.0
N1479 N 0.30614 0.28801 0.91641 0.0
N1480 N 0.31707 0.27895 0.90197 0.0
C1481 C 0.30652 0.26287 0.89438 0.0
C1482 C 0.28773 0.26165 0.90439 0.0
C1483 C 0.27296 0.28167 0.93524 0.0
H1484 H 0.28102 0.28272 0.9502 0.0
H1485 H 0.26518 0.29651 0.93232 0.0
H1486 H 0.26105 0.26953 0.93599 0.0
O1487 O 0.34069 0.29203 0.95034 0.0
O1488 O 0.35775 0.27468 0.92644 0.0
H1489 H 0.33118 0.24199 0.88804 0.0
H1490 H 0.30648 0.23239 0.88049 0.0
C1491 C 0.31612 0.24637 0.88147 0.0
H1492 H 0.31862 0.25228 0.86572 0.0
H1493 H 0.37716 0.25095 0.89679 0.0
O1494 O 0.30134 0.31848 0.95559 0.0
C1495 C 0.35431 0.279 0.94519 0.0
Co1496 Co 0.4491 0.56777 0.68001 0.0
Co1497 Co 0.47195 0.59898 0.65095 0.0
C1498 C 0.42612 0.59584 0.65129 0.0
O1499 O 0.42582 0.58223 0.66542 0.0
O1500 O 0.44287 0.60324 0.64453 0.0
C1501 C 0.42875 0.52908 0.69379 0.0
O1502 O 0.42426 0.52503 0.67456 0.0
C1503 C 0.48767 0.61799 0.6125 0.0
C1504 C 0.51106 0.63889 0.62529 0.0
C1505 C 0.50261 0.63234 0.60688 0.0
N1506 N 0.48773 0.61616 0.63311 0.0
N1507 N 0.50157 0.62891 0.64061 0.0
C1508 C 0.4742 0.60535 0.59887 0.0
H1509 H 0.46708 0.59259 0.60767 0.0
H1510 H 0.48321 0.59904 0.58584 0.0
H1511 H 0.46175 0.61516 0.59263 0.0
C1512 C 0.47968 0.53937 0.6597 0.0
N1513 N 0.46985 0.55762 0.66124 0.0
N1514 N 0.47888 0.57082 0.64876 0.0
C1515 C 0.49435 0.56136 0.63879 0.0
C1516 C 0.49516 0.54108 0.6451 0.0
C1517 C 0.47587 0.52132 0.6734 0.0
H1518 H 0.47307 0.52659 0.68935 0.0
H1519 H 0.4621 0.51299 0.66791 0.0
H1520 H 0.48899 0.51046 0.67323 0.0
O1521 O 0.46254 0.58667 0.69977 0.0
O1522 O 0.47904 0.60809 0.67903 0.0
H1523 H 0.51487 0.58666 0.63384 0.0
H1524 H 0.5241 0.56266 0.62368 0.0
C1525 C 0.51022 0.57223 0.62614 0.0
H1526 H 0.50364 0.57602 0.61093 0.0
H1527 H 0.5048 0.63055 0.65621 0.0
O1528 O 0.43832 0.5455 0.69822 0.0
C1529 C 0.4743 0.60198 0.69695 0.0
Co1530 Co 0.81928 0.19721 0.07158 0.0
Co1531 Co 0.84727 0.21964 0.10365 0.0
C1532 C 0.84629 0.17371 0.10018 0.0
O1533 O 0.83307 0.17365 0.08578 0.0
O1534 O 0.85301 0.19034 0.10781 0.0
C1535 C 0.78298 0.17655 0.05239 0.0
O1536 O 0.7752 0.17231 0.07052 0.0
C1537 C 0.86592 0.23117 0.14376 0.0
C1538 C 0.88274 0.25919 0.13467 0.0
C1539 C 0.879 0.24635 0.15123 0.0
N1540 N 0.8622 0.23501 0.12376 0.0
N1541 N 0.87231 0.2518 0.11851 0.0
C1542 C 0.85771 0.21292 0.15507 0.0
H1543 H 0.85273 0.20081 0.14429 0.0
H1544 H 0.84408 0.21762 0.16416 0.0
H1545 H 0.86946 0.2067 0.16572 0.0
C1546 C 0.78859 0.22633 0.09075 0.0
N1547 N 0.80689 0.21651 0.09047 0.0
N1548 N 0.81869 0.22465 0.10476 0.0
C1549 C 0.80815 0.23923 0.11493 0.0
C1550 C 0.78869 0.2408 0.1065 0.0
C1551 C 0.77234 0.2238 0.07473 0.0
H1552 H 0.77951 0.22122 0.05949 0.0
H1553 H 0.76283 0.21023 0.07861 0.0
H1554 H 0.7621 0.23739 0.07403 0.0
O1555 O 0.83908 0.21207 0.05405 0.0
O1556 O 0.85737 0.22966 0.0767 0.0
H1557 H 0.83007 0.26257 0.1221 0.0
H1558 H 0.80642 0.26479 0.13635 0.0
C1559 C 0.81773 0.2538 0.12991 0.0
H1560 H 0.82469 0.24497 0.14267 0.0
H1561 H 0.87227 0.25811 0.10378 0.0
O1562 O 0.7998 0.18629 0.05097 0.0
C1563 C 0.85296 0.22506 0.05825 0.0
Co1564 Co 0.55777 0.07073 0.81902 0.0
Co1565 Co 0.53622 0.09655 0.85368 0.0
C1566 C 0.58167 0.09765 0.84754 0.0
O1567 O 0.58146 0.08514 0.83248 0.0
O1568 O 0.56528 0.10322 0.85652 0.0
C1569 C 0.57793 0.03497 0.79898 0.0
O1570 O 0.58224 0.02753 0.81724 0.0
C1571 C 0.52729 0.11182 0.89552 0.0
C1572 C 0.49721 0.12683 0.89092 0.0
C1573 C 0.5119 0.12258 0.9057 0.0
N1574 N 0.52177 0.10966 0.87572 0.0
N1575 N 0.50386 0.11881 0.87307 0.0
C1576 C 0.54752 0.10483 0.90388 0.0
H1577 H 0.54988 0.08836 0.90018 0.0
H1578 H 0.54879 0.10735 0.92065 0.0
H1579 H 0.55993 0.11359 0.89618 0.0
C1580 C 0.52985 0.03892 0.8375 0.0
N1581 N 0.54001 0.05701 0.83833 0.0
N1582 N 0.53273 0.06771 0.8539 0.0
C1583 C 0.51872 0.05643 0.86401 0.0
C1584 C 0.51607 0.03792 0.85383 0.0
C1585 C 0.53023 0.02488 0.8193 0.0
H1586 H 0.53253 0.03384 0.80499 0.0
H1587 H 0.54318 0.01395 0.82098 0.0
H1588 H 0.51583 0.01585 0.81812 0.0
O1589 O 0.54116 0.09056 0.80331 0.0
O1590 O 0.52427 0.10751 0.82765 0.0
H1591 H 0.49501 0.0765 0.87478 0.0
H1592 H 0.49606 0.05215 0.88803 0.0
C1593 C 0.50542 0.06452 0.88096 0.0
H1594 H 0.51517 0.07144 0.89302 0.0
H1595 H 0.4961 0.11948 0.85908 0.0
O1596 O 0.56836 0.05189 0.79744 0.0
C1597 C 0.52805 0.10392 0.8088 0.0
Co1598 Co 0.95679 0.92471 0.31809 0.0
Co1599 Co 0.97725 0.90038 0.35409 0.0
C1600 C 0.93221 0.89806 0.34711 0.0
O1601 O 0.9331 0.90964 0.33131 0.0
O1602 O 0.94822 0.8932 0.35711 0.0
C1603 C 0.93404 0.95862 0.29825 0.0
O1604 O 0.92824 0.96467 0.3166 0.0
C1605 C 0.98628 0.88257 0.39497 0.0
C1606 C 0.01789 0.87124 0.38988 0.0
C1607 C 0.00226 0.87194 0.40429 0.0
N1608 N 0.99229 0.88784 0.37589 0.0
N1609 N 0.0112 0.88105 0.37301 0.0
C1610 C 0.96506 0.88608 0.40308 0.0
H1611 H 0.9603 0.90214 0.39988 0.0
H1612 H 0.9639 0.88282 0.41974 0.0
H1613 H 0.95426 0.8758 0.39486 0.0
C1614 C 0.981 0.95862 0.33831 0.0
N1615 N 0.97279 0.93956 0.33806 0.0
N1616 N 0.98003 0.92926 0.3539 0.0
C1617 C 0.99222 0.94156 0.36511 0.0
C1618 C 0.99334 0.96061 0.35565 0.0
C1619 C 0.97921 0.97368 0.32103 0.0
H1620 H 0.96473 0.98246 0.32285 0.0
H1621 H 0.99211 0.9848 0.32105 0.0
H1622 H 0.97874 0.96547 0.30612 0.0
O1623 O 0.97551 0.90597 0.30286 0.0
O1624 O 0.9901 0.88939 0.32868 0.0
H1625 H 0.01299 0.94687 0.39065 0.0
H1626 H 0.99567 0.92548 0.39357 0.0
C1627 C 0.0053 0.93409 0.38248 0.0
H1628 H 0.01723 0.92356 0.37638 0.0
H1629 H 0.01944 0.88285 0.35938 0.0
O1630 O 0.94559 0.943 0.29637 0.0
C1631 C 0.98846 0.89296 0.30953 0.0
H1632 H 0.05451 0.13954 0.23778 0.0
H1633 H 0.01607 0.12894 0.29062 0.0
H1634 H 0.98826 0.11686 0.26816 0.0
H1635 H 0.97529 0.10899 0.23326 0.0
H1636 H 0.0135 0.12277 0.18074 0.0
H1637 H 0.04084 0.13433 0.20332 0.0
C1638 C 0.04009 0.13437 0.24438 0.0
C1639 C 0.0374 0.1346 0.26576 0.0
C1640 C 0.02407 0.12833 0.23141 0.0
C1641 C 0.01849 0.12857 0.27416 0.0
C1642 C 0.00262 0.12178 0.26133 0.0
C1643 C 0.98952 0.11472 0.22678 0.0
C1644 C 0.99232 0.11492 0.20531 0.0
C1645 C 0.00525 0.1216 0.2399 0.0
C1646 C 0.01082 0.12253 0.19716 0.0
C1647 C 0.02658 0.12901 0.21006 0.0
H1648 H 0.14139 0.73248 0.48155 0.0
H1649 H 0.12842 0.77093 0.42908 0.0
H1650 H 0.11654 0.79823 0.45164 0.0
H1651 H 0.11003 0.8115 0.48618 0.0
H1652 H 0.11989 0.77254 0.53874 0.0
H1653 H 0.13309 0.74525 0.51633 0.0
C1654 C 0.13583 0.74678 0.47507 0.0
C1655 C 0.13584 0.7496 0.45363 0.0
C1656 C 0.12874 0.76245 0.48816 0.0
C1657 C 0.12847 0.76822 0.44549 0.0
C1658 C 0.12181 0.78395 0.45838 0.0
C1659 C 0.11534 0.79712 0.49271 0.0
C1660 C 0.11443 0.79409 0.51403 0.0
C1661 C 0.12203 0.7813 0.47972 0.0
C1662 C 0.12073 0.77522 0.52234 0.0
C1663 C 0.12815 0.75962 0.50954 0.0
H1664 H 0.48714 0.88492 0.6966 0.0
H1665 H 0.53937 0.86945 0.73403 0.0
H1666 H 0.51633 0.85645 0.76107 0.0
H1667 H 0.48087 0.84956 0.77384 0.0
H1668 H 0.42938 0.86879 0.73665 0.0
H1669 H 0.45256 0.88052 0.71001 0.0
C1670 C 0.49349 0.87845 0.71059 0.0
C1671 C 0.51486 0.87762 0.71317 0.0
C1672 C 0.48023 0.87196 0.72626 0.0
C1673 C 0.52292 0.86991 0.73163 0.0
C1674 C 0.50975 0.86261 0.74709 0.0
C1675 C 0.47476 0.8565 0.76 0.0
C1676 C 0.45332 0.85815 0.75735 0.0
C1677 C 0.48831 0.86362 0.7446 0.0
C1678 C 0.44573 0.86731 0.73929 0.0
C1679 C 0.45899 0.87394 0.72388 0.0
H1680 H 0.39114 0.23383 0.0228 0.0
H1681 H 0.37941 0.18142 0.98387 0.0
H1682 H 0.36709 0.20393 0.9568 0.0
H1683 H 0.36008 0.23833 0.94373 0.0
H1684 H 0.36852 0.2909 0.98295 0.0
H1685 H 0.38198 0.26859 0.01024 0.0
C1686 C 0.38572 0.22735 0.00846 0.0
C1687 C 0.38625 0.20593 0.00543 0.0
C1688 C 0.37837 0.24043 0.99288 0.0
C1689 C 0.37906 0.1978 0.98676 0.0
C1690 C 0.37215 0.21067 0.97114 0.0
C1691 C 0.36513 0.24491 0.95817 0.0
C1692 C 0.3638 0.26619 0.96125 0.0
C1693 C 0.37194 0.23197 0.97395 0.0
C1694 C 0.36971 0.27453 0.98022 0.0
C1695 C 0.37728 0.26178 0.99581 0.0
H1696 H 0.06551 0.85858 0.26188 0.0
H1697 H 0.02663 0.86972 0.20958 0.0
H1698 H 0.9993 0.88236 0.23237 0.0
H1699 H 0.98661 0.89014 0.26749 0.0
H1700 H 0.0251 0.87567 0.3195 0.0
H1701 H 0.05223 0.86413 0.29656 0.0
C1702 C 0.05113 0.86402 0.25546 0.0
C1703 C 0.0482 0.86369 0.2341 0.0
C1704 C 0.0353 0.87038 0.26866 0.0
C1705 C 0.02928 0.87012 0.22599 0.0
C1706 C 0.01366 0.87723 0.23902 0.0
C1707 C 0.00087 0.8843 0.27378 0.0
C1708 C 0.00374 0.88384 0.29524 0.0
C1709 C 0.01647 0.87736 0.26043 0.0
C1710 C 0.02232 0.87611 0.30311 0.0
C1711 C 0.03797 0.86963 0.28999 0.0
H1712 H 0.36079 0.72398 0.51434 0.0
H1713 H 0.37286 0.76268 0.56685 0.0
H1714 H 0.38488 0.7899 0.5444 0.0
H1715 H 0.39134 0.80325 0.51013 0.0
H1716 H 0.38289 0.7645 0.45722 0.0
H1717 H 0.36987 0.73681 0.47947 0.0
C1718 C 0.36623 0.73831 0.52084 0.0
C1719 C 0.36583 0.74124 0.5423 0.0
C1720 C 0.37349 0.75398 0.50776 0.0
C1721 C 0.37307 0.75987 0.55046 0.0
C1722 C 0.37983 0.77556 0.53762 0.0
C1723 C 0.38641 0.7888 0.50343 0.0
C1724 C 0.38752 0.78601 0.48209 0.0
C1725 C 0.37988 0.77288 0.5163 0.0
C1726 C 0.38182 0.76703 0.47362 0.0
C1727 C 0.3745 0.75123 0.48635 0.0
H1728 H 0.48195 0.14658 0.73508 0.0
H1729 H 0.43312 0.10774 0.75772 0.0
H1730 H 0.45562 0.09445 0.78435 0.0
H1731 H 0.48861 0.09489 0.80243 0.0
H1732 H 0.53829 0.13181 0.77924 0.0
H1733 H 0.51602 0.14507 0.75179 0.0
C1734 C 0.47632 0.13497 0.74562 0.0
C1735 C 0.45575 0.12834 0.74441 0.0
C1736 C 0.48938 0.12736 0.76107 0.0
C1737 C 0.44879 0.11327 0.75827 0.0
C1738 C 0.46162 0.1057 0.77363 0.0
C1739 C 0.49441 0.10598 0.79141 0.0
C1740 C 0.51474 0.11284 0.79296 0.0
C1741 C 0.48177 0.11293 0.77543 0.0
C1742 C 0.52249 0.12669 0.7784 0.0
C1743 C 0.50981 0.13413 0.76269 0.0
H1744 H 0.10424 0.19523 0.01529 0.0
H1745 H 0.11482 0.23372 0.9625 0.0
H1746 H 0.12791 0.26112 0.98482 0.0
H1747 H 0.13637 0.27389 0.01955 0.0
H1748 H 0.1228 0.23582 0.0722 0.0
H1749 H 0.11045 0.20869 0.04977 0.0
C1750 C 0.10965 0.20955 0.00869 0.0
C1751 C 0.10905 0.21239 0.98734 0.0
C1752 C 0.11629 0.22541 0.02162 0.0
C1753 C 0.11545 0.23119 0.97893 0.0
C1754 C 0.1228 0.24684 0.99168 0.0
C1755 C 0.13052 0.25974 0.02611 0.0
C1756 C 0.13058 0.25694 0.04755 0.0
C1757 C 0.12323 0.24414 0.01308 0.0
C1758 C 0.12284 0.23852 0.05579 0.0
C1759 C 0.11591 0.22287 0.04296 0.0
H1760 H 0.2314 0.05729 0.13145 0.0
H1761 H 0.2845 0.01892 0.12233 0.0
H1762 H 0.26271 0.99173 0.10797 0.0
H1763 H 0.22814 0.97876 0.09848 0.0
H1764 H 0.17516 0.01669 0.11109 0.0
H1765 H 0.1972 0.04387 0.12384 0.0
C1766 C 0.23821 0.04307 0.12604 0.0
C1767 C 0.25951 0.04022 0.1275 0.0
C1768 C 0.22553 0.02726 0.11872 0.0
C1769 C 0.26812 0.0215 0.12108 0.0
C1770 C 0.25566 0.00594 0.11298 0.0
C1771 C 0.22144 0.99291 0.10416 0.0
C1772 C 0.19997 0.99555 0.10381 0.0
C1773 C 0.23427 0.00858 0.11186 0.0
C1774 C 0.19158 0.01403 0.11131 0.0
C1775 C 0.20419 0.02974 0.11849 0.0
H1776 H 0.23965 0.01947 0.39295 0.0
H1777 H 0.18712 0.98141 0.37915 0.0
H1778 H 0.20966 0.95406 0.36747 0.0
H1779 H 0.24405 0.9406 0.36138 0.0
H1780 H 0.29688 0.979 0.37174 0.0
H1781 H 0.27453 0.00645 0.3849 0.0
C1782 C 0.23316 0.00525 0.38723 0.0
C1783 C 0.21169 0.00255 0.38699 0.0
C1784 C 0.24626 0.98952 0.38024 0.0
C1785 C 0.20354 0.98404 0.37942 0.0
C1786 C 0.21642 0.96827 0.37287 0.0
C1787 C 0.2507 0.95487 0.36683 0.0
C1788 C 0.27205 0.95767 0.36611 0.0
C1789 C 0.23776 0.97076 0.3734 0.0
C1790 C 0.28046 0.97646 0.3725 0.0
C1791 C 0.26769 0.99215 0.37987 0.0
H1792 H 0.31248 0.98069 0.61508 0.0
H1793 H 0.27429 0.03438 0.6213 0.0
H1794 H 0.24611 0.01301 0.63453 0.0
H1795 H 0.23246 0.97873 0.64408 0.0
H1796 H 0.27042 0.92518 0.63449 0.0
H1797 H 0.29843 0.94678 0.62254 0.0
C1798 C 0.29805 0.98774 0.61957 0.0
C1799 C 0.29553 0.00907 0.61767 0.0
C1800 C 0.2818 0.97533 0.62628 0.0
C1801 C 0.2766 0.01798 0.62291 0.0
C1802 C 0.26051 0.00577 0.63037 0.0
C1803 C 0.24682 0.97182 0.63923 0.0
C1804 C 0.24929 0.95034 0.6402 0.0
C1805 C 0.26291 0.98437 0.63203 0.0
C1806 C 0.26797 0.94161 0.63376 0.0
C1807 C 0.2841 0.95397 0.62705 0.0
H1808 H 0.26177 0.05788 0.86443 0.0
H1809 H 0.21001 0.01681 0.86263 0.0
H1810 H 0.23189 0.98834 0.87433 0.0
H1811 H 0.26644 0.97515 0.88465 0.0
H1812 H 0.31794 0.01691 0.88284 0.0
H1813 H 0.29564 0.0448 0.87277 0.0
C1814 C 0.25522 0.04275 0.86685 0.0
C1815 C 0.2343 0.0395 0.86308 0.0
C1816 C 0.26799 0.02643 0.87263 0.0
C1817 C 0.2261 0.01969 0.86568 0.0
C1818 C 0.23862 0.00342 0.87226 0.0
C1819 C 0.27272 0.99031 0.88185 0.0
C1820 C 0.29394 0.99373 0.88425 0.0
C1821 C 0.2597 0.00656 0.87566 0.0
C1822 C 0.30182 0.01356 0.88065 0.0
C1823 C 0.28902 0.0297 0.8751 0.0
H1824 H 0.6094 0.31022 0.98341 0.0
H1825 H 0.62006 0.27188 0.03627 0.0
H1826 H 0.63327 0.24447 0.014 0.0
H1827 H 0.64173 0.23162 0.97932 0.0
H1828 H 0.62817 0.26945 0.92655 0.0
H1829 H 0.61576 0.29669 0.94893 0.0
C1830 C 0.61486 0.29594 0.99004 0.0
C1831 C 0.61422 0.29313 0.0114 0.0
C1832 C 0.62159 0.28007 0.97713 0.0
C1833 C 0.62069 0.27438 0.01984 0.0
C1834 C 0.62813 0.25873 0.00711 0.0
C1835 C 0.63589 0.24575 0.97272 0.0
C1836 C 0.63595 0.24846 0.95126 0.0
C1837 C 0.62857 0.26138 0.98571 0.0
C1838 C 0.62821 0.26685 0.94297 0.0
C1839 C 0.62125 0.28254 0.95577 0.0
H1840 H 0.98054 0.39343 0.19608 0.0
H1841 H 0.03439 0.38099 0.23234 0.0
H1842 H 0.01287 0.36666 0.25983 0.0
H1843 H 0.97844 0.35744 0.27328 0.0
H1844 H 0.92482 0.37314 0.23753 0.0
H1845 H 0.94648 0.38672 0.2104 0.0
C1846 C 0.98754 0.38739 0.20995 0.0
C1847 C 0.00895 0.38781 0.2121 0.0
C1848 C 0.97507 0.38001 0.22591 0.0
C1849 C 0.01789 0.38055 0.23033 0.0
C1850 C 0.00559 0.37246 0.24604 0.0
C1851 C 0.97151 0.36403 0.25966 0.0
C1852 C 0.94998 0.36411 0.25752 0.0
C1853 C 0.98412 0.37213 0.24402 0.0
C1854 C 0.9413 0.37285 0.23974 0.0
C1855 C 0.95368 0.38053 0.22407 0.0
H1856 H 0.90743 0.7252 0.50717 0.0
H1857 H 0.84925 0.69443 0.51423 0.0
H1858 H 0.83303 0.71955 0.49131 0.0
H1859 H 0.83598 0.74921 0.46779 0.0
H1860 H 0.89513 0.77696 0.45751 0.0
H1861 H 0.91054 0.7542 0.48327 0.0
C1862 C 0.89113 0.72419 0.50391 0.0
C1863 C 0.87944 0.70821 0.51256 0.0
C1864 C 0.8822 0.7381 0.49009 0.0
C1865 C 0.85848 0.7067 0.50781 0.0
C1866 C 0.84925 0.72102 0.49471 0.0
C1867 C 0.85219 0.75036 0.47147 0.0
C1868 C 0.86445 0.76482 0.46116 0.0
C1869 C 0.86102 0.73664 0.48558 0.0
C1870 C 0.88549 0.76599 0.46549 0.0
C1871 C 0.89425 0.75298 0.48014 0.0
H1872 H 0.00064 0.59853 0.27266 0.0
H1873 H 0.02223 0.65762 0.29301 0.0
H1874 H 0.00057 0.67468 0.26734 0.0
H1875 H 0.97321 0.67273 0.24139 0.0
H1876 H 0.94793 0.61386 0.22494 0.0
H1877 H 0.97333 0.59657 0.24668 0.0
C1878 C 0.00086 0.61512 0.27112 0.0
C1879 C 0.01316 0.62689 0.28434 0.0
C1880 C 0.98757 0.62475 0.25717 0.0
C1881 C 0.01297 0.64836 0.28277 0.0
C1882 C 0.00056 0.65806 0.26819 0.0
C1883 C 0.97357 0.65609 0.24233 0.0
C1884 C 0.959 0.64448 0.23148 0.0
C1885 C 0.98748 0.64642 0.25562 0.0
C1886 C 0.95914 0.623 0.23313 0.0
C1887 C 0.9736 0.61317 0.24556 0.0
H1888 H 0.47365 0.38682 0.76638 0.0
H1889 H 0.50999 0.37003 0.81929 0.0
H1890 H 0.53597 0.35514 0.7971 0.0
H1891 H 0.54963 0.34869 0.76285 0.0
H1892 H 0.51322 0.36259 0.70949 0.0
H1893 H 0.486 0.37684 0.73159 0.0
C1894 C 0.48713 0.37968 0.77302 0.0
C1895 C 0.48985 0.37973 0.79451 0.0
C1896 C 0.50211 0.37083 0.7601 0.0
C1897 C 0.50737 0.37023 0.80286 0.0
C1898 C 0.52237 0.36179 0.79018 0.0
C1899 C 0.53568 0.35482 0.75609 0.0
C1900 C 0.53345 0.35501 0.73468 0.0
C1901 C 0.52008 0.36235 0.76883 0.0
C1902 C 0.51522 0.36249 0.726 0.0
C1903 C 0.49973 0.37061 0.73862 0.0
H1904 H 0.51367 0.59495 0.70486 0.0
H1905 H 0.46067 0.62708 0.72787 0.0
H1906 H 0.48151 0.64205 0.75562 0.0
H1907 H 0.51555 0.64743 0.77178 0.0
H1908 H 0.5679 0.61371 0.74869 0.0
H1909 H 0.54652 0.59768 0.72276 0.0
C1910 C 0.50673 0.60516 0.71608 0.0
C1911 C 0.4859 0.61021 0.71439 0.0
C1912 C 0.51867 0.61334 0.73196 0.0
C1913 C 0.4768 0.62317 0.72898 0.0
C1914 C 0.4887 0.63168 0.74476 0.0
C1915 C 0.52221 0.63635 0.76128 0.0
C1916 C 0.54342 0.63203 0.76212 0.0
C1917 C 0.50976 0.62707 0.74624 0.0
C1918 C 0.55171 0.61751 0.74841 0.0
C1919 C 0.53951 0.60834 0.73347 0.0
H1920 H 0.85195 0.26589 0.05608 0.0
H1921 H 0.87128 0.21227 0.0226 0.0
H1922 H 0.88326 0.23406 0.99413 0.0
H1923 H 0.88854 0.26876 0.97922 0.0
H1924 H 0.86585 0.32162 0.01237 0.0
H1925 H 0.85444 0.29972 0.04021 0.0
C1926 C 0.859 0.25905 0.0426 0.0
C1927 C 0.86131 0.23769 0.04151 0.0
C1928 C 0.8649 0.27151 0.02611 0.0
C1929 C 0.86975 0.22879 0.02379 0.0
C1930 C 0.87645 0.24122 0.00753 0.0
C1931 C 0.88084 0.27543 0.9924 0.0
C1932 C 0.87816 0.29688 0.99361 0.0
C1933 C 0.87408 0.26265 0.00851 0.0
C1934 C 0.86807 0.30522 0.01083 0.0
C1935 C 0.86166 0.29272 0.02694 0.0
H1936 H 0.61213 0.73228 0.47972 0.0
H1937 H 0.62224 0.67991 0.51916 0.0
H1938 H 0.63566 0.70223 0.54586 0.0
H1939 H 0.64409 0.73646 0.55847 0.0
H1940 H 0.63718 0.78896 0.51878 0.0
H1941 H 0.62279 0.76686 0.49181 0.0
C1942 C 0.61741 0.72578 0.49411 0.0
C1943 C 0.61613 0.70441 0.49737 0.0
C1944 C 0.62547 0.73874 0.50945 0.0
C1945 C 0.62316 0.69623 0.51609 0.0
C1946 C 0.63073 0.709 0.53148 0.0
C1947 C 0.63924 0.7431 0.54397 0.0
C1948 C 0.64129 0.76433 0.54072 0.0
C1949 C 0.63179 0.73026 0.52841 0.0
C1950 C 0.63553 0.77266 0.52168 0.0
C1951 C 0.62738 0.76002 0.50627 0.0
H1952 H 0.69579 0.51227 0.61534 0.0
H1953 H 0.73835 0.46184 0.62005 0.0
H1954 H 0.76453 0.48507 0.63417 0.0
H1955 H 0.77525 0.52026 0.64473 0.0
H1956 H 0.7328 0.57051 0.63625 0.0
H1957 H 0.70673 0.54688 0.62392 0.0
C1958 C 0.71073 0.50631 0.61969 0.0
C1959 C 0.71506 0.48536 0.61707 0.0
C1960 C 0.72579 0.51981 0.62691 0.0
C1961 C 0.73465 0.47792 0.62216 0.0
C1962 C 0.7496 0.4912 0.63016 0.0
C1963 C 0.76031 0.52596 0.64008 0.0
C1964 C 0.75601 0.54712 0.64136 0.0
C1965 C 0.74537 0.51225 0.6325 0.0
C1966 C 0.73663 0.55435 0.6352 0.0
C1967 C 0.72162 0.54084 0.62827 0.0
H1968 H 0.74988 0.47517 0.84056 0.0
H1969 H 0.76756 0.45233 0.9001 0.0
H1970 H 0.74646 0.47871 0.91675 0.0
H1971 H 0.72097 0.50655 0.91423 0.0
H1972 H 0.69962 0.52597 0.85472 0.0
H1973 H 0.72424 0.50282 0.83804 0.0
C1974 C 0.74933 0.47623 0.85718 0.0
C1975 C 0.76038 0.46207 0.86916 0.0
C1976 C 0.73643 0.49076 0.86656 0.0
C1977 C 0.75921 0.46318 0.89064 0.0
C1978 C 0.74715 0.47821 0.90012 0.0
C1979 C 0.72203 0.50592 0.89761 0.0
C1980 C 0.70883 0.51807 0.88563 0.0
C1981 C 0.73544 0.49186 0.88823 0.0
C1982 C 0.70981 0.51681 0.86415 0.0
C1983 C 0.72381 0.50357 0.85466 0.0
H1984 H 0.76988 0.4483 0.13859 0.0
H1985 H 0.71651 0.48611 0.12874 0.0
H1986 H 0.73834 0.51397 0.11574 0.0
H1987 H 0.7729 0.52753 0.10741 0.0
H1988 H 0.82612 0.49024 0.1205 0.0
H1989 H 0.80416 0.46243 0.1323 0.0
C1990 C 0.76306 0.46258 0.13337 0.0
C1991 C 0.74167 0.46509 0.1342 0.0
C1992 C 0.77572 0.47873 0.1268 0.0
C1993 C 0.73298 0.48383 0.12799 0.0
C1994 C 0.74545 0.49975 0.12066 0.0
C1995 C 0.77966 0.51337 0.113 0.0
C1996 C 0.80116 0.51105 0.11309 0.0
C1997 C 0.76689 0.49741 0.12009 0.0
C1998 C 0.80967 0.49261 0.12047 0.0
C1999 C 0.79711 0.47657 0.12707 0.0
H2000 H 0.8031 0.50753 0.40282 0.0
H2001 H 0.77091 0.4551 0.37876 0.0
H2002 H 0.74339 0.47775 0.36595 0.0
H2003 H 0.72944 0.51307 0.36072 0.0
H2004 H 0.7616 0.56434 0.38794 0.0
H2005 H 0.78792 0.5415 0.4007 0.0
C2006 C 0.79008 0.50109 0.39466 0.0
C2007 C 0.78915 0.47988 0.3912 0.0
C2008 C 0.77423 0.51399 0.38812 0.0
C2009 C 0.77199 0.47151 0.38124 0.0
C2010 C 0.75629 0.48444 0.37402 0.0
C2011 C 0.74205 0.51918 0.36969 0.0
C2012 C 0.74348 0.54053 0.37317 0.0
C2013 C 0.75732 0.5058 0.37728 0.0
C2014 C 0.75992 0.54809 0.38495 0.0
C2015 C 0.77516 0.53503 0.3922 0.0
H2016 H 0.09404 0.25014 0.17781 0.0
H2017 H 0.15874 0.25837 0.18897 0.0
H2018 H 0.1543 0.24687 0.22443 0.0
H2019 H 0.13284 0.22931 0.25037 0.0
H2020 H 0.06863 0.21934 0.23817 0.0
H2021 H 0.07184 0.23698 0.20519 0.0
C2022 C 0.10707 0.24981 0.18817 0.0
C2023 C 0.12666 0.25509 0.18085 0.0
C2024 C 0.10445 0.24275 0.20833 0.0
C2025 C 0.14345 0.25471 0.19435 0.0
C2026 C 0.14094 0.2479 0.21457 0.0
C2027 C 0.1195 0.23165 0.2407 0.0
C2028 C 0.10053 0.22326 0.24658 0.0
C2029 C 0.12165 0.24122 0.22149 0.0
C2030 C 0.08329 0.226 0.23398 0.0
C2031 C 0.08519 0.23585 0.21505 0.0
H2032 H 0.99308 0.89046 0.4406 0.0
H2033 H 0.01606 0.83418 0.41442 0.0
H2034 H 0.0252 0.82164 0.44857 0.0
H2035 H 0.0317 0.82916 0.4849 0.0
H2036 H 0.01081 0.88623 0.51084 0.0
H2037 H 0.99506 0.89578 0.47803 0.0
C2038 C 0.99932 0.87514 0.44251 0.0
C2039 C 0.00373 0.86314 0.42512 0.0
C2040 C 0.00497 0.86825 0.46217 0.0
C2041 C 0.01252 0.84362 0.42766 0.0
C2042 C 0.01777 0.83647 0.44715 0.0
C2043 C 0.02293 0.84326 0.48351 0.0
C2044 C 0.0221 0.85691 0.50013 0.0
C2045 C 0.01474 0.84895 0.46442 0.0
C2046 C 0.01126 0.87542 0.4982 0.0
C2047 C 0.00252 0.88097 0.4794 0.0
H2048 H 0.35682 0.73483 0.68736 0.0
H2049 H 0.41196 0.75902 0.65982 0.0
H2050 H 0.42432 0.76998 0.69346 0.0
H2051 H 0.41699 0.77728 0.72968 0.0
H2052 H 0.3612 0.75488 0.75714 0.0
H2053 H 0.35171 0.73806 0.72481 0.0
C2054 C 0.37186 0.7418 0.68889 0.0
C2055 C 0.38358 0.74598 0.67123 0.0
C2056 C 0.37865 0.74849 0.70827 0.0
C2057 C 0.40273 0.75565 0.67327 0.0
C2058 C 0.40978 0.76195 0.69247 0.0
C2059 C 0.40316 0.76803 0.72871 0.0
C2060 C 0.38987 0.76703 0.74563 0.0
C2061 C 0.39756 0.75908 0.70995 0.0
C2062 C 0.37172 0.75553 0.74425 0.0
C2063 C 0.36622 0.74614 0.72574 0.0
H2064 H 0.49057 0.12333 0.9998 0.0
H2065 H 0.46871 0.18358 0.98348 0.0
H2066 H 0.48401 0.18024 0.94934 0.0
H2067 H 0.49883 0.15806 0.9226 0.0
H2068 H 0.51832 0.09674 0.9381 0.0
H2069 H 0.50897 0.10254 0.974 0.0
C2070 C 0.48982 0.13593 0.98892 0.0
C2071 C 0.47876 0.15372 0.99409 0.0
C2072 C 0.49794 0.13354 0.96906 0.0
C2073 C 0.47748 0.16989 0.97989 0.0
C2074 C 0.48597 0.16786 0.96029 0.0
C2075 C 0.50142 0.14616 0.93398 0.0
C2076 C 0.50955 0.12714 0.92782 0.0
C2077 C 0.49551 0.14944 0.95446 0.0
C2078 C 0.51266 0.11172 0.94258 0.0
C2079 C 0.50708 0.11495 0.96307 0.0
H2080 H 0.14482 0.74052 0.30837 0.0
H2081 H 0.08855 0.76283 0.33519 0.0
H2082 H 0.07613 0.77313 0.30135 0.0
H2083 H 0.08374 0.78086 0.26525 0.0
H2084 H 0.14076 0.76063 0.23866 0.0
H2085 H 0.15024 0.74382 0.27099 0.0
C2086 C 0.12954 0.7469 0.30665 0.0
C2087 C 0.11752 0.75078 0.32416 0.0
C2088 C 0.12272 0.75326 0.28716 0.0
C2089 C 0.09802 0.75969 0.32186 0.0
C2090 C 0.09093 0.76562 0.30254 0.0
C2091 C 0.09783 0.77203 0.26638 0.0
C2092 C 0.11147 0.77168 0.24971 0.0
C2093 C 0.10346 0.76318 0.28521 0.0
C2094 C 0.12996 0.76074 0.25132 0.0
C2095 C 0.13546 0.75138 0.26985 0.0
H2096 H 0.48054 0.87935 0.50767 0.0
H2097 H 0.46755 0.81553 0.51914 0.0
H2098 H 0.48232 0.81833 0.55356 0.0
H2099 H 0.49478 0.8401 0.58178 0.0
H2100 H 0.50496 0.90462 0.57117 0.0
H2101 H 0.49556 0.90053 0.53508 0.0
C2102 C 0.48151 0.86599 0.5176 0.0
C2103 C 0.47322 0.84726 0.51101 0.0
C2104 C 0.48926 0.86796 0.53758 0.0
C2105 C 0.47419 0.83002 0.5239 0.0
C2106 C 0.48238 0.83169 0.54363 0.0
C2107 C 0.49525 0.85314 0.57141 0.0
C2108 C 0.50097 0.87251 0.57889 0.0
C2109 C 0.48931 0.85075 0.55085 0.0
C2110 C 0.50129 0.88942 0.56552 0.0
C2111 C 0.49569 0.88713 0.54496 0.0
H2112 H 0.40513 0.25024 0.8293 0.0
H2113 H 0.34016 0.25745 0.81883 0.0
H2114 H 0.34424 0.24531 0.78364 0.0
H2115 H 0.36553 0.22795 0.75758 0.0
H2116 H 0.42995 0.21842 0.76916 0.0
H2117 H 0.42703 0.23646 0.80193 0.0
C2118 C 0.39195 0.24948 0.81916 0.0
C2119 C 0.37243 0.25487 0.82659 0.0
C2120 C 0.39434 0.24198 0.79914 0.0
C2121 C 0.35543 0.25386 0.81337 0.0
C2122 C 0.35772 0.24667 0.79329 0.0
C2123 C 0.37897 0.23038 0.76711 0.0
C2124 C 0.39789 0.222 0.76111 0.0
C2125 C 0.37699 0.2401 0.78623 0.0
C2126 C 0.41527 0.225 0.77346 0.0
C2127 C 0.41355 0.23508 0.79227 0.0
H2128 H 0.00946 0.12026 0.99966 0.0
H2129 H 0.02746 0.18201 0.01503 0.0
H2130 H 0.01214 0.17835 0.04909 0.0
H2131 H 0.99855 0.1559 0.07602 0.0
H2132 H 0.98292 0.09319 0.06173 0.0
H2133 H 0.9921 0.09885 0.0258 0.0
C2134 C 0.00943 0.13304 0.01034 0.0
C2135 C 0.01941 0.15139 0.00493 0.0
C2136 C 0.0013 0.13051 0.03019 0.0
C2137 C 0.01958 0.16785 0.01882 0.0
C2138 C 0.01106 0.16567 0.03837 0.0
C2139 C 0.99681 0.14358 0.06494 0.0
C2140 C 0.98998 0.12419 0.07153 0.0
C2141 C 0.00263 0.14681 0.04446 0.0
C2142 C 0.98773 0.10837 0.05704 0.0
C2143 C 0.99322 0.11155 0.0365 0.0
H2144 H 0.21919 0.09444 0.19132 0.0
H2145 H 0.25355 0.10741 0.24619 0.0
H2146 H 0.22134 0.11432 0.26491 0.0
H2147 H 0.18336 0.11845 0.26464 0.0
H2148 H 0.15054 0.10777 0.2079 0.0
H2149 H 0.18218 0.09822 0.19104 0.0
C2150 C 0.21959 0.09868 0.20744 0.0
C2151 C 0.23856 0.10065 0.21738 0.0
C2152 C 0.20129 0.10328 0.21769 0.0
C2153 C 0.23901 0.10584 0.23828 0.0
C2154 C 0.22064 0.10994 0.24888 0.0
C2155 C 0.18308 0.11444 0.24854 0.0
C2156 C 0.16435 0.11425 0.23763 0.0
C2157 C 0.20164 0.10917 0.23858 0.0
C2158 C 0.16453 0.10815 0.21687 0.0
C2159 C 0.18269 0.10265 0.20708 0.0
H2160 H 0.15797 0.92275 0.49861 0.0
H2161 H 0.09689 0.94012 0.51751 0.0
H2162 H 0.10407 0.9758 0.50882 0.0
H2163 H 0.12594 0.00108 0.49095 0.0
H2164 H 0.18548 0.98257 0.46878 0.0
H2165 H 0.181 0.94863 0.48403 0.0
C2166 C 0.14634 0.93442 0.50114 0.0
C2167 C 0.12699 0.92876 0.50886 0.0
C2168 C 0.15035 0.95479 0.49547 0.0
C2169 C 0.11208 0.94403 0.5121 0.0
C2170 C 0.1161 0.96447 0.50688 0.0
C2171 C 0.1381 0.98973 0.49004 0.0
C2172 C 0.15602 0.99425 0.47892 0.0
C2173 C 0.13496 0.9699 0.49796 0.0
C2174 C 0.17169 0.97949 0.47758 0.0
C2175 C 0.169 0.96 0.48604 0.0
H2176 H 0.30846 0.85374 0.76202 0.0
H2177 H 0.33668 0.90905 0.73907 0.0
H2178 H 0.30302 0.92273 0.72975 0.0
H2179 H 0.26658 0.91638 0.7231 0.0
H2180 H 0.23855 0.86032 0.74408 0.0
H2181 H 0.27092 0.84976 0.76012 0.0
C2182 C 0.30711 0.86911 0.75576 0.0
C2183 C 0.32489 0.88051 0.7514 0.0
C2184 C 0.28775 0.87667 0.7501 0.0
C2185 C 0.3231 0.90007 0.74254 0.0
C2186 C 0.3039 0.90788 0.73723 0.0
C2187 C 0.26742 0.90228 0.73196 0.0
C2188 C 0.2504 0.88914 0.73265 0.0
C2189 C 0.28623 0.896 0.74026 0.0
C2190 C 0.25155 0.87068 0.74368 0.0
C2191 C 0.27009 0.86457 0.75256 0.0
H2192 H 0.34736 0.07716 0.99805 0.0
H2193 H 0.41114 0.06347 0.00927 0.0
H2194 H 0.40563 0.02787 0.99888 0.0
H2195 H 0.38387 0.00237 0.98124 0.0
H2196 H 0.32084 0.01718 0.96776 0.0
H2197 H 0.32462 0.05041 0.98472 0.0
C2198 C 0.35994 0.06624 0.9986 0.0
C2199 C 0.37959 0.07286 0.00443 0.0
C2200 C 0.35675 0.046 0.99211 0.0
C2201 C 0.39578 0.05865 0.0052 0.0
C2202 C 0.39268 0.03833 0.99902 0.0
C2203 C 0.37086 0.01268 0.9827 0.0
C2204 C 0.3521 0.00745 0.97351 0.0
C2205 C 0.3734 0.03206 0.99176 0.0
C2206 C 0.33531 0.02087 0.97507 0.0
C2207 C 0.33755 0.03994 0.98452 0.0
H2208 H 0.25409 0.87077 0.2646 0.0
H2209 H 0.23944 0.93336 0.2801 0.0
H2210 H 0.20548 0.92965 0.26449 0.0
H2211 H 0.17829 0.90692 0.25138 0.0
H2212 H 0.19202 0.84331 0.23928 0.0
H2213 H 0.22791 0.84895 0.24845 0.0
C2214 C 0.24362 0.88373 0.2639 0.0
C2215 C 0.24915 0.90232 0.27326 0.0
C2216 C 0.22384 0.88113 0.25582 0.0
C2217 C 0.23553 0.91901 0.27266 0.0
C2218 C 0.21604 0.91678 0.26401 0.0
C2219 C 0.1893 0.89445 0.25037 0.0
C2220 C 0.18271 0.87487 0.2442 0.0
C2221 C 0.20975 0.89767 0.25632 0.0
C2222 C 0.19693 0.85869 0.24323 0.0
C2223 C 0.21739 0.86185 0.24874 0.0
H2224 H 0.33276 0.97455 0.53346 0.0
H2225 H 0.3921 0.99908 0.51779 0.0
H2226 H 0.40107 0.96708 0.5001 0.0
H2227 H 0.39379 0.93054 0.49395 0.0
H2228 H 0.33457 0.90582 0.51032 0.0
H2229 H 0.32376 0.93939 0.5231 0.0
C2230 C 0.34734 0.97306 0.5255 0.0
C2231 C 0.36173 0.98902 0.52666 0.0
C2232 C 0.35252 0.95447 0.51592 0.0
C2233 C 0.38077 0.98695 0.51679 0.0
C2234 C 0.38594 0.96862 0.5069 0.0
C2235 C 0.37825 0.93269 0.49954 0.0
C2236 C 0.36489 0.9158 0.50092 0.0
C2237 C 0.37221 0.95202 0.50701 0.0
C2238 C 0.34511 0.91864 0.50907 0.0
C2239 C 0.33891 0.93781 0.51637 0.0
H2240 H 0.26308 0.08137 0.779 0.0
H2241 H 0.24296 0.14398 0.7725 0.0
H2242 H 0.2755 0.15308 0.7559 0.0
H2243 H 0.31153 0.14427 0.74876 0.0
H2244 H 0.3323 0.08202 0.75767 0.0
H2245 H 0.29777 0.07165 0.76789 0.0
C2246 C 0.26561 0.09678 0.7732 0.0
C2247 C 0.25075 0.11197 0.77662 0.0
C2248 C 0.28465 0.10203 0.76457 0.0
C2249 C 0.25422 0.13206 0.76966 0.0
C2250 C 0.27288 0.13728 0.76042 0.0
C2251 C 0.30834 0.12832 0.75223 0.0
C2252 C 0.32441 0.11392 0.75237 0.0
C2253 C 0.28852 0.12256 0.75856 0.0
C2254 C 0.32016 0.0934 0.75755 0.0
C2255 C 0.30043 0.08745 0.76338 0.0
H2256 H 0.16621 0.02275 0.02497 0.0
H2257 H 0.11204 0.995 0.99937 0.0
H2258 H 0.10167 0.02805 0.98464 0.0
H2259 H 0.10525 0.06571 0.98439 0.0
H2260 H 0.15894 0.09353 0.01123 0.0
H2261 H 0.17227 0.05967 0.02036 0.0
C2262 C 0.15261 0.02386 0.01542 0.0
C2263 C 0.14 0.0066 0.01292 0.0
C2264 C 0.14644 0.04302 0.00771 0.0
C2265 C 0.12208 0.00814 0.00109 0.0
C2266 C 0.11605 0.02707 0.99294 0.0
C2267 C 0.12024 0.0643 0.99146 0.0
C2268 C 0.13124 0.08205 0.99689 0.0
C2269 C 0.12769 0.04477 0.99687 0.0
C2270 C 0.15024 0.08004 0.00687 0.0
C2271 C 0.15787 0.0607 0.01209 0.0
H2272 H 0.24242 0.17266 0.08811 0.0
H2273 H 0.26182 0.18424 0.15029 0.0
H2274 H 0.2529 0.22049 0.14665 0.0
H2275 H 0.23506 0.24774 0.12737 0.0
H2276 H 0.21292 0.23523 0.06635 0.0
H2277 H 0.22777 0.20078 0.06764 0.0
C2278 C 0.24507 0.18327 0.10068 0.0
C2279 C 0.25313 0.17592 0.11927 0.0
C2280 C 0.23934 0.20395 0.09865 0.0
C2281 C 0.25627 0.18967 0.13559 0.0
C2282 C 0.25093 0.21036 0.1336 0.0
C2283 C 0.23411 0.23761 0.11418 0.0
C2284 C 0.22314 0.24395 0.09674 0.0
C2285 C 0.24193 0.21754 0.1154 0.0
C2286 C 0.22162 0.23073 0.07979 0.0
C2287 C 0.22986 0.21095 0.08064 0.0
H2288 H 0.72084 0.26909 0.92374 0.0
H2289 H 0.74205 0.24664 0.86527 0.0
H2290 H 0.75882 0.27962 0.85834 0.0
H2291 H 0.76218 0.31622 0.86666 0.0
H2292 H 0.7408 0.33864 0.92527 0.0
H2293 H 0.72921 0.30422 0.93444 0.0
C2294 C 0.72981 0.27123 0.90985 0.0
C2295 C 0.73033 0.25562 0.89501 0.0
C2296 C 0.73896 0.2903 0.90585 0.0
C2297 C 0.74163 0.25853 0.87689 0.0
C2298 C 0.75101 0.27742 0.87288 0.0
C2299 C 0.75583 0.3135 0.88178 0.0
C2300 C 0.75252 0.33002 0.89531 0.0
C2301 C 0.74908 0.29366 0.88692 0.0
C2302 C 0.74345 0.3262 0.91454 0.0
C2303 C 0.73682 0.30653 0.91981 0.0
H2304 H 0.98515 0.4817 0.17439 0.0
H2305 H 0.0102 0.48672 0.11341 0.0
H2306 H 0.98046 0.50698 0.10249 0.0
H2307 H 0.94457 0.51731 0.10882 0.0
H2308 H 0.91868 0.50968 0.16926 0.0
H2309 H 0.95147 0.49678 0.18206 0.0
C2310 C 0.98441 0.48799 0.15898 0.0
C2311 C 0.99976 0.48298 0.14472 0.0
C2312 C 0.96691 0.49889 0.15266 0.0
C2313 C 0.99855 0.49067 0.12462 0.0
C2314 C 0.98147 0.50206 0.11836 0.0
C2315 C 0.94641 0.51362 0.12495 0.0
C2316 C 0.92935 0.51449 0.13813 0.0
C2317 C 0.96513 0.50547 0.132 0.0
C2318 C 0.93169 0.50911 0.15888 0.0
C2319 C 0.95038 0.50164 0.16617 0.0
H2320 H 0.73598 0.68693 0.3784 0.0
H2321 H 0.79183 0.65578 0.39623 0.0
H2322 H 0.80825 0.68841 0.40293 0.0
H2323 H 0.80753 0.72559 0.40294 0.0
H2324 H 0.75335 0.75803 0.38353 0.0
H2325 H 0.73536 0.72513 0.37836 0.0
C2326 C 0.75182 0.68726 0.38336 0.0
C2327 C 0.76267 0.66878 0.38649 0.0
C2328 C 0.76143 0.70631 0.38706 0.0
C2329 C 0.78302 0.66966 0.39369 0.0
C2330 C 0.79251 0.68834 0.39752 0.0
C2331 C 0.79178 0.72542 0.39751 0.0
C2332 C 0.78179 0.74398 0.39328 0.0
C2333 C 0.78193 0.70669 0.39417 0.0
C2334 C 0.76128 0.74376 0.38674 0.0
C2335 C 0.75111 0.72501 0.3837 0.0
H2336 H 0.99546 0.01339 0.11776 0.0
H2337 H 0.01408 0.0307 0.17879 0.0
H2338 H 0.04785 0.01534 0.17317 0.0
H2339 H 0.07362 0.00235 0.14899 0.0
H2340 H 0.05593 0.98778 0.08691 0.0
H2341 H 0.02033 0.9964 0.09477 0.0
C2342 C 0.00675 0.0131 0.12999 0.0
C2343 C 0.00237 0.02294 0.14867 0.0
C2344 C 0.02642 0.00506 0.1263 0.0
C2345 C 0.01707 0.02288 0.16441 0.0
C2346 C 0.03646 0.01437 0.16109 0.0
C2347 C 0.06187 0.00069 0.13731 0.0
C2348 C 0.06738 0.99431 0.11745 0.0
C2349 C 0.04155 0.00625 0.1418 0.0
C2350 C 0.05207 0.99218 0.10244 0.0
C2351 C 0.0317 0.99737 0.10687 0.0
H2352 H 0.26179 0.74545 0.6283 0.0
H2353 H 0.2867 0.76426 0.56993 0.0
H2354 H 0.2718 0.7984 0.57418 0.0
H2355 H 0.25632 0.82416 0.5967 0.0
H2356 H 0.23358 0.80643 0.65632 0.0
H2357 H 0.24268 0.77069 0.6494 0.0
C2358 C 0.26338 0.75692 0.61631 0.0
C2359 C 0.27511 0.7524 0.59876 0.0
C2360 C 0.25541 0.77679 0.61925 0.0
C2361 C 0.27741 0.76734 0.58339 0.0
C2362 C 0.26911 0.78692 0.58594 0.0
C2363 C 0.25301 0.81239 0.60802 0.0
C2364 C 0.24422 0.81794 0.62694 0.0
C2365 C 0.25878 0.79202 0.60414 0.0
C2366 C 0.23995 0.80256 0.64147 0.0
C2367 C 0.24539 0.78212 0.63761 0.0
H2368 H 0.91813 0.50491 0.34573 0.0
H2369 H 0.92913 0.50386 0.41099 0.0
H2370 H 0.96312 0.51879 0.40574 0.0
H2371 H 0.98814 0.53566 0.3828 0.0
H2372 H 0.97671 0.53757 0.3177 0.0
H2373 H 0.94459 0.51863 0.32252 0.0
C2374 C 0.92814 0.50767 0.35875 0.0
C2375 C 0.92124 0.50311 0.37869 0.0
C2376 C 0.94754 0.5165 0.3556 0.0
C2377 C 0.93427 0.50675 0.39546 0.0
C2378 C 0.95363 0.51553 0.39247 0.0
C2379 C 0.97877 0.53145 0.3697 0.0
C2380 C 0.9847 0.53775 0.34994 0.0
C2381 C 0.96022 0.52088 0.37266 0.0
C2382 C 0.9725 0.53253 0.333 0.0
C2383 C 0.95408 0.52191 0.33578 0.0
H2384 H 0.50423 0.48113 0.88049 0.0
H2385 H 0.5173 0.46758 0.81705 0.0
H2386 H 0.55057 0.48469 0.81987 0.0
H2387 H 0.57746 0.49982 0.8414 0.0
H2388 H 0.56552 0.51086 0.90563 0.0
H2389 H 0.53038 0.49872 0.9015 0.0
C2390 C 0.51423 0.48242 0.86721 0.0
C2391 C 0.5083 0.47339 0.84854 0.0
C2392 C 0.53364 0.49165 0.86916 0.0
C2393 C 0.5214 0.4748 0.83146 0.0
C2394 C 0.54051 0.48435 0.83314 0.0
C2395 C 0.56706 0.49985 0.85443 0.0
C2396 C 0.57409 0.50654 0.87372 0.0
C2397 C 0.54702 0.49229 0.85207 0.0
C2398 C 0.56046 0.50641 0.89047 0.0
C2399 C 0.54037 0.49919 0.88818 0.0
H2400 H 0.63143 0.73477 0.74751 0.0
H2401 H 0.57028 0.71642 0.73036 0.0
H2402 H 0.57517 0.73102 0.69612 0.0
H2403 H 0.59847 0.74459 0.66981 0.0
H2404 H 0.66082 0.75979 0.68608 0.0
H2405 H 0.65389 0.75109 0.72178 0.0
C2406 C 0.61905 0.73455 0.73638 0.0
C2407 C 0.6005 0.72476 0.74136 0.0
C2408 C 0.62232 0.74214 0.71646 0.0
C2409 C 0.58457 0.72421 0.72689 0.0
C2410 C 0.58746 0.7323 0.70725 0.0
C2411 C 0.61046 0.74626 0.68124 0.0
C2412 C 0.63004 0.75311 0.67528 0.0
C2413 C 0.60653 0.74061 0.70166 0.0
C2414 C 0.64543 0.75519 0.69024 0.0
C2415 C 0.64155 0.74994 0.71069 0.0
H2416 H 0.51592 0.38348 0.99869 0.0
H2417 H 0.52609 0.31902 0.98787 0.0
H2418 H 0.50912 0.32164 0.95451 0.0
H2419 H 0.49649 0.34334 0.92644 0.0
H2420 H 0.48871 0.40837 0.93621 0.0
H2421 H 0.49935 0.40452 0.97191 0.0
C2422 C 0.51375 0.36993 0.98924 0.0
C2423 C 0.522 0.35107 0.99569 0.0
C2424 C 0.50472 0.37176 0.96975 0.0
C2425 C 0.5195 0.33361 0.98333 0.0
C2426 C 0.51007 0.33518 0.96415 0.0
C2427 C 0.49676 0.3566 0.93652 0.0
C2428 C 0.4917 0.37608 0.9287 0.0
C2429 C 0.5034 0.35433 0.95688 0.0
C2430 C 0.49207 0.39314 0.9419 0.0
C2431 C 0.49841 0.39098 0.9623 0.0
H2432 H 0.92081 0.28002 0.23112 0.0
H2433 H 0.86704 0.25341 0.25888 0.0
H2434 H 0.85757 0.23765 0.22606 0.0
H2435 H 0.86161 0.23693 0.18863 0.0
H2436 H 0.91545 0.26384 0.16082 0.0
H2437 H 0.92781 0.27428 0.19453 0.0
C2438 C 0.90751 0.27004 0.2301 0.0
C2439 C 0.89466 0.26767 0.24724 0.0
C2440 C 0.90191 0.26162 0.2111 0.0
C2441 C 0.87721 0.25515 0.24581 0.0
C2442 C 0.87169 0.24641 0.22702 0.0
C2443 C 0.87643 0.24428 0.18988 0.0
C2444 C 0.88758 0.24948 0.1721 0.0
C2445 C 0.88347 0.25029 0.20937 0.0
C2446 C 0.90644 0.25978 0.17422 0.0
C2447 C 0.91358 0.26572 0.1935 0.0
H2448 H 0.94089 0.65771 0.47109 0.0
H2449 H 0.9962 0.64001 0.50255 0.0
H2450 H 0.01405 0.63613 0.46939 0.0
H2451 H 0.01299 0.63642 0.43131 0.0
H2452 H 0.95627 0.65247 0.40085 0.0
H2453 H 0.93995 0.6585 0.43377 0.0
C2454 C 0.95689 0.65305 0.47064 0.0
C2455 C 0.96724 0.64887 0.48902 0.0
C2456 C 0.9667 0.65043 0.45171 0.0
C2457 C 0.988 0.64319 0.48844 0.0
C2458 C 0.9981 0.64088 0.46953 0.0
C2459 C 0.99699 0.64084 0.43183 0.0
C2460 C 0.98583 0.64353 0.41348 0.0
C2461 C 0.98746 0.64409 0.45101 0.0
C2462 C 0.9653 0.65019 0.41462 0.0
C2463 C 0.95586 0.65363 0.43348 0.0
H2464 H 0.64885 0.24213 0.80622 0.0
H2465 H 0.58883 0.25025 0.83286 0.0
H2466 H 0.57473 0.25922 0.79925 0.0
H2467 H 0.58101 0.27099 0.76399 0.0
H2468 H 0.64176 0.26668 0.73834 0.0
H2469 H 0.65405 0.24942 0.76942 0.0
C2470 C 0.63256 0.24514 0.80442 0.0
C2471 C 0.6198 0.24546 0.82179 0.0
C2472 C 0.62478 0.25111 0.78519 0.0
C2473 C 0.59884 0.2499 0.81955 0.0
C2474 C 0.59082 0.25509 0.80039 0.0
C2475 C 0.59669 0.26542 0.76497 0.0
C2476 C 0.61047 0.26973 0.749 0.0
C2477 C 0.60382 0.2566 0.78329 0.0
C2478 C 0.63091 0.26312 0.75045 0.0
C2479 C 0.63796 0.25352 0.7683 0.0
H2480 H 0.97587 0.38504 0.0064 0.0
H2481 H 0.96447 0.321 0.01839 0.0
H2482 H 0.98094 0.32401 0.05198 0.0
H2483 H 0.99416 0.34599 0.07965 0.0
H2484 H 0.00408 0.41044 0.06826 0.0
H2485 H 0.99294 0.4062 0.03275 0.0
C2486 C 0.97761 0.37166 0.01619 0.0
C2487 C 0.96922 0.3528 0.00997 0.0
C2488 C 0.98659 0.37368 0.03569 0.0
C2489 C 0.97118 0.33557 0.02276 0.0
C2490 C 0.98036 0.33736 0.04206 0.0
C2491 C 0.99424 0.359 0.06924 0.0
C2492 C 1.00011 0.37845 0.07651 0.0
C2493 C 0.98745 0.3565 0.04894 0.0
C2494 C 1.00014 0.39522 0.06295 0.0
C2495 C 0.99351 0.39284 0.04267 0.0
H2496 H 0.92228 0.72732 0.26917 0.0
H2497 H 0.86199 0.74251 0.24682 0.0
H2498 H 0.85341 0.75859 0.27976 0.0
H2499 H 0.86141 0.76342 0.31633 0.0
H2500 H 0.92105 0.74628 0.33925 0.0
H2501 H 0.93165 0.73575 0.30477 0.0
C2502 C 0.90757 0.73484 0.27138 0.0
C2503 C 0.89284 0.73413 0.2557 0.0
C2504 C 0.90255 0.74331 0.29056 0.0
C2505 C 0.87359 0.74328 0.25871 0.0
C2506 C 0.86864 0.75225 0.27757 0.0
C2507 C 0.87697 0.75812 0.31359 0.0
C2508 C 0.89058 0.75593 0.33016 0.0
C2509 C 0.88276 0.75171 0.29382 0.0
C2510 C 0.9104 0.7482 0.32663 0.0
C2511 C 0.91644 0.74216 0.30695 0.0
H2512 H 0.55403 0.65672 0.52861 0.0
H2513 H 0.49838 0.63963 0.49748 0.0
H2514 H 0.48121 0.63412 0.53077 0.0
H2515 H 0.48322 0.63217 0.56871 0.0
H2516 H 0.54058 0.64688 0.59868 0.0
H2517 H 0.55576 0.65565 0.56589 0.0
C2518 C 0.53805 0.65199 0.52919 0.0
C2519 C 0.52741 0.64843 0.51085 0.0
C2520 C 0.52869 0.64827 0.54816 0.0
C2521 C 0.50675 0.64245 0.51155 0.0
C2522 C 0.49706 0.63918 0.53054 0.0
C2523 C 0.49912 0.63685 0.56814 0.0
C2524 C 0.51078 0.63824 0.58633 0.0
C2525 C 0.50807 0.64155 0.54898 0.0
C2526 C 0.53113 0.64546 0.58508 0.0
C2527 C 0.53994 0.65049 0.56628 0.0
H2528 H 0.68669 0.65014 0.75828 0.0
H2529 H 0.66601 0.58774 0.7508 0.0
H2530 H 0.70014 0.57746 0.73906 0.0
H2531 H 0.73409 0.58731 0.72612 0.0
H2532 H 0.75443 0.64994 0.73165 0.0
H2533 H 0.72247 0.65908 0.74941 0.0
C2534 C 0.68992 0.63418 0.75479 0.0
C2535 C 0.67401 0.61964 0.75556 0.0
C2536 C 0.70947 0.62851 0.74752 0.0
C2537 C 0.67813 0.59913 0.75036 0.0
C2538 C 0.69759 0.59327 0.7436 0.0
C2539 C 0.73176 0.60278 0.73187 0.0
C2540 C 0.74645 0.61796 0.72774 0.0
C2541 C 0.71316 0.60796 0.74144 0.0
C2542 C 0.74324 0.63805 0.73484 0.0
C2543 C 0.72494 0.64327 0.74481 0.0
H2544 H 0.61263 0.49856 0.97794 0.0
H2545 H 0.67813 0.49032 0.97365 0.0
H2546 H 0.67528 0.45661 0.98992 0.0
H2547 H 0.65361 0.42768 0.0007 0.0
H2548 H 0.58792 0.43527 0.00365 0.0
H2549 H 0.59128 0.47102 0.9928 0.0
C2550 C 0.62627 0.48955 0.98117 0.0
C2551 C 0.64554 0.4968 0.97476 0.0
C2552 C 0.62441 0.46997 0.99 0.0
C2553 C 0.66318 0.48509 0.97875 0.0
C2554 C 0.66152 0.46573 0.98781 0.0
C2555 C 0.64009 0.43732 0.99931 0.0
C2556 C 0.62058 0.42894 0.00305 0.0
C2557 C 0.64214 0.45774 0.99278 0.0
C2558 C 0.60314 0.44149 0.00126 0.0
C2559 C 0.60504 0.46188 0.99484 0.0
H2560 H 0.80578 0.35521 0.25874 0.0
H2561 H 0.83928 0.40837 0.23801 0.0
H2562 H 0.8074 0.42451 0.22662 0.0
H2563 H 0.77109 0.4209 0.21742 0.0
H2564 H 0.73797 0.36659 0.23522 0.0
H2565 H 0.76827 0.35363 0.25343 0.0
C2566 C 0.80591 0.3706 0.25237 0.0
C2567 C 0.8247 0.3807 0.24927 0.0
C2568 C 0.78757 0.37948 0.24524 0.0
C2569 C 0.82489 0.4004 0.24051 0.0
C2570 C 0.8067 0.40959 0.23397 0.0
C2571 C 0.77038 0.40663 0.22601 0.0
C2572 C 0.75246 0.39477 0.22534 0.0
C2573 C 0.78808 0.39895 0.23554 0.0
C2574 C 0.75164 0.37603 0.23593 0.0
C2575 C 0.76901 0.36855 0.24609 0.0
H2576 H 0.83796 0.57429 0.50346 0.0
H2577 H 0.90304 0.56577 0.51189 0.0
H2578 H 0.89994 0.5297 0.50214 0.0
H2579 H 0.87955 0.50216 0.48633 0.0
H2580 H 0.81499 0.51137 0.47551 0.0
H2581 H 0.81681 0.54535 0.49146 0.0
C2582 C 0.85134 0.56435 0.50359 0.0
C2583 C 0.87062 0.5725 0.50871 0.0
C2584 C 0.84949 0.54376 0.49747 0.0
C2585 C 0.88794 0.55965 0.50861 0.0
C2586 C 0.88621 0.53909 0.50279 0.0
C2587 C 0.8658 0.51141 0.48816 0.0
C2588 C 0.84715 0.50437 0.48004 0.0
C2589 C 0.86717 0.53116 0.49663 0.0
C2590 C 0.82942 0.51644 0.48204 0.0
C2591 C 0.83053 0.53595 0.49089 0.0
H2592 H 0.67958 0.37468 0.73716 0.0
H2593 H 0.64463 0.39109 0.79128 0.0
H2594 H 0.67601 0.39883 0.80944 0.0
H2595 H 0.71327 0.39987 0.81087 0.0
H2596 H 0.74913 0.38107 0.75858 0.0
H2597 H 0.71749 0.37514 0.73883 0.0
C2598 C 0.67868 0.37942 0.75301 0.0
C2599 C 0.65947 0.38175 0.76279 0.0
C2600 C 0.69701 0.38349 0.76376 0.0
C2601 C 0.65901 0.38902 0.78317 0.0
C2602 C 0.67701 0.39343 0.79372 0.0
C2603 C 0.71413 0.39431 0.79519 0.0
C2604 C 0.73335 0.39062 0.78621 0.0
C2605 C 0.69605 0.39052 0.78427 0.0
C2606 C 0.73438 0.38392 0.76576 0.0
C2607 C 0.71633 0.38048 0.75455 0.0
H2608 H 0.87567 0.44271 0.98207 0.0
H2609 H 0.86013 0.41231 0.03902 0.0
H2610 H 0.85534 0.44523 0.05569 0.0
H2611 H 0.85568 0.48239 0.05455 0.0
H2612 H 0.87228 0.51405 0.99894 0.0
H2613 H 0.87649 0.48089 0.98114 0.0
C2614 C 0.87162 0.4433 0.99818 0.0
C2615 C 0.86848 0.42501 0.00929 0.0
C2616 C 0.86894 0.46246 0.00786 0.0
C2617 C 0.86258 0.42611 0.03004 0.0
C2618 C 0.85986 0.44493 0.03966 0.0
C2619 C 0.86034 0.48199 0.03854 0.0
C2620 C 0.86397 0.50038 0.02804 0.0
C2621 C 0.86298 0.46313 0.02875 0.0
C2622 C 0.86956 0.49989 0.00724 0.0
C2623 C 0.87201 0.481 0.99717 0.0
H2624 H 0.75724 0.63338 0.27624 0.0
H2625 H 0.7719 0.56938 0.28418 0.0
H2626 H 0.80424 0.57416 0.26561 0.0
H2627 H 0.83012 0.59748 0.25104 0.0
H2628 H 0.81606 0.66184 0.2444 0.0
H2629 H 0.78168 0.65604 0.25818 0.0
C2630 C 0.76733 0.62043 0.27335 0.0
C2631 C 0.76222 0.60104 0.28129 0.0
C2632 C 0.78608 0.62343 0.26308 0.0
C2633 C 0.77541 0.58435 0.27783 0.0
C2634 C 0.79398 0.58714 0.26743 0.0
C2635 C 0.81936 0.61015 0.25227 0.0
C2636 C 0.82557 0.63002 0.24652 0.0
C2637 C 0.79974 0.60674 0.26056 0.0
C2638 C 0.81154 0.64633 0.24821 0.0
C2639 C 0.79193 0.64305 0.25635 0.0
H2640 H 0.6235 0.49966 0.5175 0.0
H2641 H 0.68454 0.51627 0.53667 0.0
H2642 H 0.68044 0.55033 0.52139 0.0
H2643 H 0.65763 0.57683 0.50729 0.0
H2644 H 0.5958 0.56103 0.48997 0.0
H2645 H 0.60199 0.52521 0.49953 0.0
C2646 C 0.63606 0.5106 0.5177 0.0
C2647 C 0.65433 0.50557 0.52797 0.0
C2648 C 0.63331 0.53035 0.50947 0.0
C2649 C 0.67047 0.51981 0.52853 0.0
C2650 C 0.66803 0.53933 0.52002 0.0
C2651 C 0.64571 0.56539 0.50519 0.0
C2652 C 0.62641 0.57141 0.49772 0.0
C2653 C 0.64926 0.545 0.51115 0.0
C2654 C 0.61095 0.55661 0.4952 0.0
C2655 C 0.61442 0.53619 0.5009 0.0
H2656 H 0.76484 0.69171 0.64001 0.0
H2657 H 0.74908 0.66543 0.58133 0.0
H2658 H 0.73923 0.69923 0.56853 0.0
H2659 H 0.72947 0.73483 0.57614 0.0
H2660 H 0.7432 0.76058 0.63539 0.0
H2661 H 0.76028 0.72869 0.64568 0.0
C2662 C 0.76006 0.69347 0.62419 0.0
C2663 C 0.7577 0.67609 0.61164 0.0
C2664 C 0.75399 0.71292 0.61708 0.0
C2665 C 0.75086 0.6786 0.59133 0.0
C2666 C 0.74523 0.69791 0.58399 0.0
C2667 C 0.73704 0.73367 0.59093 0.0
C2668 C 0.73538 0.74989 0.60496 0.0
C2669 C 0.74596 0.71502 0.59699 0.0
C2670 C 0.74466 0.74825 0.62432 0.0
C2671 C 0.75415 0.72995 0.63026 0.0
H2672 H 0.23757 0.75221 0.36719 0.0
H2673 H 0.21811 0.76762 0.42854 0.0
H2674 H 0.23434 0.80127 0.4256 0.0
H2675 H 0.24952 0.82797 0.40386 0.0
H2676 H 0.26516 0.81415 0.34102 0.0
H2677 H 0.25509 0.77837 0.34612 0.0
C2678 C 0.23739 0.76283 0.38002 0.0
C2679 C 0.22685 0.75749 0.39807 0.0
C2680 C 0.2458 0.78256 0.3778 0.0
C2681 C 0.22646 0.7713 0.41462 0.0
C2682 C 0.23548 0.79064 0.41284 0.0
C2683 C 0.25105 0.817 0.39141 0.0
C2684 C 0.2585 0.82354 0.37226 0.0
C2685 C 0.2445 0.79669 0.39424 0.0
C2686 C 0.26019 0.80931 0.35614 0.0
C2687 C 0.25416 0.78891 0.35897 0.0
H2688 H 0.48076 0.96211 0.6791 0.0
H2689 H 0.51104 0.98491 0.62495 0.0
H2690 H 0.4793 0.00178 0.61388 0.0
H2691 H 0.44169 0.00417 0.61658 0.0
H2692 H 0.41109 0.9798 0.67002 0.0
H2693 H 0.44406 0.96914 0.68438 0.0
C2694 C 0.48053 0.97157 0.66537 0.0
C2695 C 0.49809 0.97262 0.65294 0.0
C2696 C 0.46203 0.98039 0.65873 0.0
C2697 C 0.49768 0.98433 0.63486 0.0
C2698 C 0.47948 0.99367 0.62841 0.0
C2699 C 0.44234 0.99732 0.63174 0.0
C2700 C 0.42405 0.99299 0.64236 0.0
C2701 C 0.46134 0.991 0.63976 0.0
C2702 C 0.42502 0.98329 0.6616 0.0
C2703 C 0.44385 0.97721 0.66982 0.0
H2704 H 0.26614 0.24662 0.87237 0.0
H2705 H 0.2806 0.23511 0.93585 0.0
H2706 H 0.26484 0.20107 0.93362 0.0
H2707 H 0.25082 0.17311 0.9124 0.0
H2708 H 0.23827 0.18409 0.84831 0.0
H2709 H 0.24912 0.21969 0.85196 0.0
C2710 C 0.26525 0.23682 0.88582 0.0
C2711 C 0.27422 0.24336 0.9043 0.0
C2712 C 0.25673 0.21705 0.88421 0.0
C2713 C 0.2734 0.2305 0.92159 0.0
C2714 C 0.26464 0.21095 0.92023 0.0
C2715 C 0.25015 0.18341 0.89932 0.0
C2716 C 0.24343 0.17597 0.88019 0.0
C2717 C 0.25684 0.20383 0.90145 0.0
C2718 C 0.24276 0.18946 0.86336 0.0
C2719 C 0.24922 0.20983 0.86537 0.0
H2720 H 0.57071 0.4956 0.60676 0.0
H2721 H 0.59423 0.50564 0.66775 0.0
H2722 H 0.56059 0.5179 0.67911 0.0
H2723 H 0.52576 0.52972 0.67052 0.0
H2724 H 0.50289 0.52186 0.60906 0.0
H2725 H 0.53469 0.50433 0.59906 0.0
C2726 C 0.56823 0.49982 0.62268 0.0
C2727 C 0.58477 0.49947 0.6365 0.0
C2728 C 0.54896 0.50735 0.62894 0.0
C2729 C 0.58162 0.50569 0.65691 0.0
C2730 C 0.56243 0.51274 0.66339 0.0
C2731 C 0.52758 0.52354 0.65516 0.0
C2732 C 0.51207 0.52668 0.64058 0.0
C2733 C 0.54615 0.51416 0.64941 0.0
C2734 C 0.51464 0.51924 0.62053 0.0
C2735 C 0.53285 0.50941 0.6148 0.0
H2736 H 0.74349 0.31813 0.1412 0.0
H2737 H 0.76469 0.34307 0.08359 0.0
H2738 H 0.77593 0.30904 0.07266 0.0
H2739 H 0.78363 0.2731 0.08121 0.0
H2740 H 0.76416 0.24839 0.13935 0.0
H2741 H 0.7478 0.28117 0.14818 0.0
C2742 C 0.74991 0.31601 0.126 0.0
C2743 C 0.75311 0.33311 0.11318 0.0
C2744 C 0.75674 0.2964 0.11996 0.0
C2745 C 0.76211 0.33015 0.09377 0.0
C2746 C 0.76855 0.3107 0.0875 0.0
C2747 C 0.77518 0.27478 0.09549 0.0
C2748 C 0.77475 0.25844 0.10953 0.0
C2749 C 0.76647 0.29382 0.10068 0.0
C2750 C 0.76432 0.26078 0.12824 0.0
C2751 C 0.75518 0.27955 0.13334 0.0
H2752 H 0.43866 0.98355 0.87376 0.0
H2753 H 0.40911 0.03985 0.85436 0.0
H2754 H 0.44193 0.05403 0.84468 0.0
H2755 H 0.47909 0.05197 0.8438 0.0
H2756 H 0.50998 0.99796 0.86597 0.0
H2757 H 0.47661 0.9813 0.87242 0.0
C2758 C 0.43927 0.99902 0.86786 0.0
C2759 C 0.42112 0.01061 0.86533 0.0
C2760 C 0.45851 0.0075 0.86262 0.0
C2761 C 0.4226 0.0304 0.85666 0.0
C2762 C 0.44144 0.03866 0.85107 0.0
C2763 C 0.47845 0.03643 0.84981 0.0
C2764 C 0.49673 0.02613 0.8545 0.0
C2765 C 0.45946 0.02749 0.85422 0.0
C2766 C 0.49595 0.00605 0.86221 0.0
C2767 C 0.47691 0.99667 0.86605 0.0
H2768 H 0.02705 0.96616 0.33258 0.0
H2769 H 0.99713 0.9871 0.38768 0.0
H2770 H 0.02871 0.00448 0.39856 0.0
H2771 H 0.0663 0.00848 0.39489 0.0
H2772 H 0.09628 0.98548 0.34052 0.0
H2773 H 0.06331 0.97428 0.32668 0.0
C2774 C 0.02731 0.97521 0.34656 0.0
C2775 C 0.00992 0.97561 0.35927 0.0
C2776 C 0.04566 0.98447 0.35298 0.0
C2777 C 0.01039 0.98689 0.37761 0.0
C2778 C 0.02848 0.99661 0.3839 0.0
C2779 C 0.06544 0.0017 0.37971 0.0
C2780 C 0.08359 0.99791 0.36864 0.0
C2781 C 0.04645 0.9948 0.37209 0.0
C2782 C 0.08244 0.98855 0.34926 0.0
C2783 C 0.06363 0.9821 0.34137 0.0
H2784 H 0.1213 0.08808 0.4 0.0
H2785 H 0.18242 0.10038 0.37779 0.0
H2786 H 0.16886 0.12658 0.35437 0.0
H2787 H 0.13898 0.14216 0.33699 0.0
H2788 H 0.07805 0.13108 0.36041 0.0
H2789 H 0.09213 0.10838 0.38691 0.0
C2790 C 0.13167 0.09693 0.3904 0.0
C2791 C 0.15277 0.09232 0.39041 0.0
C2792 C 0.12376 0.11197 0.37713 0.0
C2793 C 0.16615 0.10383 0.37806 0.0
C2794 C 0.15836 0.11864 0.36457 0.0
C2795 C 0.12888 0.13514 0.34824 0.0
C2796 C 0.10753 0.13804 0.34672 0.0
C2797 C 0.13712 0.12229 0.36348 0.0
C2798 C 0.09454 0.12907 0.36139 0.0
C2799 C 0.10257 0.11599 0.37641 0.0
H2800 H 0.15851 0.86611 0.65251 0.0
H2801 H 0.14808 0.92841 0.63281 0.0
H2802 H 0.12056 0.91675 0.60993 0.0
H2803 H 0.10369 0.88817 0.59183 0.0
H2804 H 0.11368 0.82592 0.61201 0.0
H2805 H 0.13699 0.83819 0.63886 0.0
C2806 C 0.14981 0.87714 0.64357 0.0
C2807 C 0.15533 0.89801 0.64404 0.0
C2808 C 0.13415 0.8703 0.63051 0.0
C2809 C 0.14397 0.9123 0.63265 0.0
C2810 C 0.1284 0.9056 0.61948 0.0
C2811 C 0.1106 0.87737 0.60246 0.0
C2812 C 0.1073 0.85619 0.59988 0.0
C2813 C 0.12396 0.88455 0.61772 0.0
C2814 C 0.11604 0.84229 0.6138 0.0
C2815 C 0.12947 0.84929 0.629 0.0
H2816 H 0.41361 0.8663 0.85559 0.0
H2817 H 0.35701 0.83832 0.83618 0.0
H2818 H 0.33767 0.85938 0.86049 0.0
H2819 H 0.3363 0.89011 0.88273 0.0
H2820 H 0.39288 0.91972 0.89993 0.0
H2821 H 0.41265 0.89375 0.88159 0.0
C2822 C 0.39717 0.8643 0.85733 0.0
C2823 C 0.38675 0.85075 0.84427 0.0
C2824 C 0.38602 0.87712 0.87077 0.0
C2825 C 0.36534 0.84862 0.84624 0.0
C2826 C 0.35424 0.86078 0.86001 0.0
C2827 C 0.35295 0.89043 0.88296 0.0
C2828 C 0.3631 0.90684 0.89254 0.0
C2829 C 0.36429 0.87576 0.87172 0.0
C2830 C 0.38471 0.90726 0.89252 0.0
C2831 C 0.39606 0.89245 0.88197 0.0
H2832 H 0.39893 0.1155 0.08919 0.0
H2833 H 0.38191 0.17747 0.10504 0.0
H2834 H 0.35787 0.16443 0.13096 0.0
H2835 H 0.33808 0.13526 0.14497 0.0
H2836 H 0.35569 0.07334 0.12965 0.0
H2837 H 0.38351 0.08642 0.10789 0.0
C2838 C 0.39034 0.12613 0.09873 0.0
C2839 C 0.39195 0.14738 0.09515 0.0
C2840 C 0.37659 0.1185 0.1135 0.0
C2841 C 0.38093 0.16106 0.10763 0.0
C2842 C 0.36707 0.15359 0.12229 0.0
C2843 C 0.34834 0.12468 0.13721 0.0
C2844 C 0.34478 0.10341 0.13861 0.0
C2845 C 0.36422 0.13234 0.12475 0.0
C2846 C 0.35825 0.08976 0.12879 0.0
C2847 C 0.37401 0.09725 0.11624 0.0
H2848 H 0.09077 0.8639 0.13427 0.0
H2849 H 0.14836 0.84717 0.16203 0.0
H2850 H 0.16709 0.86719 0.13646 0.0
H2851 H 0.16666 0.89422 0.10982 0.0
H2852 H 0.10895 0.91191 0.08291 0.0
H2853 H 0.09087 0.88663 0.10388 0.0
C2854 C 0.10742 0.86416 0.13427 0.0
C2855 C 0.11816 0.85443 0.15022 0.0
C2856 C 0.11813 0.8761 0.11967 0.0
C2857 C 0.13975 0.85497 0.15015 0.0
C2858 C 0.15049 0.86639 0.13549 0.0
C2859 C 0.15027 0.89192 0.10803 0.0
C2860 C 0.13915 0.90487 0.09488 0.0
C2861 C 0.13982 0.87775 0.12069 0.0
C2862 C 0.11782 0.90207 0.09298 0.0
C2863 C 0.10743 0.88771 0.10507 0.0
H2864 H 0.367 0.91354 0.3647 0.0
H2865 H 0.3434 0.85827 0.33726 0.0
H2866 H 0.3678 0.83754 0.35682 0.0
H2867 H 0.39087 0.83484 0.38671 0.0
H2868 H 0.41216 0.89006 0.41613 0.0
H2869 H 0.39421 0.91108 0.39079 0.0
C2870 C 0.36784 0.89705 0.36246 0.0
C2871 C 0.35351 0.88737 0.34967 0.0
C2872 C 0.38134 0.88517 0.37444 0.0
C2873 C 0.35435 0.86596 0.34711 0.0
C2874 C 0.3682 0.85411 0.35839 0.0
C2875 C 0.39216 0.85144 0.38702 0.0
C2876 C 0.4027 0.86095 0.40318 0.0
C2877 C 0.38107 0.86345 0.37286 0.0
C2878 C 0.40403 0.88248 0.40376 0.0
C2879 C 0.39368 0.8945 0.38936 0.0
H2880 H 0.34101 0.10463 0.61761 0.0
H2881 H 0.39827 0.07726 0.59894 0.0
H2882 H 0.4174 0.10262 0.61883 0.0
H2883 H 0.41748 0.12836 0.64654 0.0
H2884 H 0.36002 0.1534 0.66768 0.0
H2885 H 0.34141 0.13376 0.64174 0.0
C2886 C 0.35767 0.10475 0.61738 0.0
C2887 C 0.36827 0.08916 0.60696 0.0
C2888 C 0.36855 0.11888 0.62957 0.0
C2889 C 0.38985 0.08915 0.60699 0.0
C2890 C 0.40079 0.10358 0.61842 0.0
C2891 C 0.40099 0.13003 0.64488 0.0
C2892 C 0.3901 0.14225 0.65887 0.0
C2893 C 0.39029 0.11794 0.63053 0.0
C2894 C 0.36867 0.14404 0.65697 0.0
C2895 C 0.35801 0.13271 0.64224 0.0
H2896 H 0.09764 0.1159 0.91031 0.0
H2897 H 0.11205 0.17784 0.892 0.0
H2898 H 0.13534 0.16481 0.86543 0.0
H2899 H 0.15545 0.13589 0.85147 0.0
H2900 H 0.14019 0.07392 0.86888 0.0
H2901 H 0.11304 0.08675 0.89166 0.0
C2902 C 0.10551 0.12647 0.90011 0.0
C2903 C 0.10344 0.14774 0.90312 0.0
C2904 C 0.11877 0.11885 0.88492 0.0
C2905 C 0.11345 0.1614 0.88982 0.0
C2906 C 0.12686 0.15395 0.87478 0.0
C2907 C 0.14572 0.12524 0.85983 0.0
C2908 C 0.14972 0.10407 0.85874 0.0
C2909 C 0.13021 0.13274 0.87277 0.0
C2910 C 0.13717 0.09027 0.86949 0.0
C2911 C 0.12182 0.09762 0.8826 0.0
H2912 H 0.14594 0.34157 0.13699 0.0
H2913 H 0.12816 0.35603 0.07492 0.0
H2914 H 0.105 0.38286 0.08761 0.0
H2915 H 0.08627 0.39836 0.11668 0.0
H2916 H 0.1051 0.38502 0.17868 0.0
H2917 H 0.13174 0.36173 0.16577 0.0
C2918 C 0.13737 0.35099 0.12626 0.0
C2919 C 0.1385 0.34679 0.1051 0.0
C2920 C 0.1242 0.36638 0.13368 0.0
C2921 C 0.12753 0.3591 0.09126 0.0
C2922 C 0.11418 0.37429 0.09853 0.0
C2923 C 0.09658 0.39071 0.1273 0.0
C2924 C 0.0937 0.39313 0.14857 0.0
C2925 C 0.11186 0.37751 0.11974 0.0
C2926 C 0.10715 0.38337 0.16225 0.0
C2927 C 0.12224 0.36996 0.15487 0.0
H2928 H 0.59539 0.10156 0.88629 0.0
H2929 H 0.61009 0.11656 0.82353 0.0
H2930 H 0.6359 0.1413 0.83523 0.0
H2931 H 0.64978 0.16244 0.86335 0.0
H2932 H 0.63549 0.14707 0.92615 0.0
H2933 H 0.61408 0.11842 0.9145 0.0
C2934 C 0.60468 0.10988 0.87523 0.0
C2935 C 0.60083 0.10754 0.85414 0.0
C2936 C 0.61926 0.12413 0.8821 0.0
C2937 C 0.61297 0.11812 0.83984 0.0
C2938 C 0.62752 0.1324 0.84654 0.0
C2939 C 0.6423 0.1525 0.87445 0.0
C2940 C 0.64383 0.15694 0.89552 0.0
C2941 C 0.63012 0.13613 0.86762 0.0
C2942 C 0.63443 0.14389 0.90986 0.0
C2943 C 0.62212 0.12763 0.90319 0.0
H2944 H 0.91851 0.8956 0.38617 0.0
H2945 H 0.90191 0.88112 0.32378 0.0
H2946 H 0.87259 0.86095 0.33614 0.0
H2947 H 0.85525 0.84336 0.36486 0.0
H2948 H 0.87136 0.85837 0.42721 0.0
H2949 H 0.89705 0.88296 0.41478 0.0
C2950 C 0.90819 0.88834 0.37531 0.0
C2951 C 0.91244 0.88949 0.35413 0.0
C2952 C 0.89136 0.87695 0.38254 0.0
C2953 C 0.89889 0.88036 0.34013 0.0
C2954 C 0.88223 0.86878 0.34721 0.0
C2955 C 0.86392 0.85259 0.37568 0.0
C2956 C 0.86154 0.84914 0.39688 0.0
C2957 C 0.87877 0.86642 0.36839 0.0
C2958 C 0.87281 0.86101 0.41084 0.0
C2959 C 0.88767 0.87483 0.40372 0.0
H2960 H 0.85121 0.16227 0.13967 0.0
H2961 H 0.86196 0.1424 0.07746 0.0
H2962 H 0.8843 0.11478 0.08991 0.0
H2963 H 0.90489 0.10023 0.11813 0.0
H2964 H 0.89338 0.11937 0.18043 0.0
H2965 H 0.86681 0.1432 0.16843 0.0
C2966 C 0.85807 0.15154 0.12893 0.0
C2967 C 0.85526 0.15439 0.10771 0.0
C2968 C 0.87079 0.13575 0.13622 0.0
C2969 C 0.86394 0.14038 0.09386 0.0
C2970 C 0.87681 0.12473 0.10097 0.0
C2971 C 0.89609 0.10921 0.12908 0.0
C2972 C 0.90108 0.10829 0.15006 0.0
C2973 C 0.88095 0.12281 0.12205 0.0
C2974 C 0.88965 0.11982 0.16422 0.0
C2975 C 0.87464 0.13356 0.15734 0.0
H2976 H 0.35313 0.65507 0.63251 0.0
H2977 H 0.37355 0.64436 0.57046 0.0
H2978 H 0.39737 0.61787 0.58263 0.0
H2979 H 0.41581 0.60173 0.61159 0.0
H2980 H 0.39414 0.61105 0.67343 0.0
H2981 H 0.36705 0.6339 0.66074 0.0
C2982 C 0.36241 0.64648 0.62164 0.0
C2983 C 0.36178 0.65166 0.60066 0.0
C2984 C 0.3759 0.63122 0.62875 0.0
C2985 C 0.37375 0.6405 0.58664 0.0
C2986 C 0.38747 0.6255 0.59363 0.0
C2987 C 0.40473 0.60831 0.62217 0.0
C2988 C 0.40693 0.60488 0.64339 0.0
C2989 C 0.38918 0.62128 0.61473 0.0
C2990 C 0.39259 0.6134 0.65703 0.0
C2991 C 0.37725 0.6266 0.64979 0.0
H2992 H 0.14728 0.66176 0.36536 0.0
H2993 H 0.12567 0.65257 0.42724 0.0
H2994 H 0.10101 0.62689 0.41506 0.0
H2995 H 0.08215 0.6115 0.38603 0.0
H2996 H 0.10478 0.6196 0.32433 0.0
H2997 H 0.13286 0.64103 0.33718 0.0
C2998 C 0.13756 0.65365 0.3762 0.0
C2999 C 0.13804 0.65904 0.39709 0.0
C3000 C 0.12355 0.63893 0.36907 0.0
C3001 C 0.12554 0.6485 0.4111 0.0
C3002 C 0.11135 0.63399 0.40411 0.0
C3003 C 0.09361 0.61752 0.37551 0.0
C3004 C 0.09139 0.61426 0.35429 0.0
C3005 C 0.10969 0.62972 0.38304 0.0
C3006 C 0.10629 0.62192 0.34073 0.0
C3007 C 0.12221 0.63429 0.34806 0.0
H3008 H 0.35011 0.34145 0.86378 0.0
H3009 H 0.36191 0.36202 0.92554 0.0
H3010 H 0.38497 0.38871 0.91241 0.0
H3011 H 0.40583 0.40218 0.88373 0.0
H3012 H 0.39299 0.38265 0.82186 0.0
H3013 H 0.3659 0.35979 0.83454 0.0
C3014 C 0.35731 0.35219 0.87428 0.0
C3015 C 0.35454 0.34973 0.89559 0.0
C3016 C 0.37043 0.36751 0.86659 0.0
C3017 C 0.36378 0.36372 0.9091 0.0
C3018 C 0.37709 0.37884 0.90159 0.0
C3019 C 0.39662 0.39338 0.87301 0.0
C3020 C 0.4014 0.39393 0.85193 0.0
C3021 C 0.38112 0.38033 0.88044 0.0
C3022 C 0.38944 0.38255 0.83812 0.0
C3023 C 0.37412 0.36933 0.8454 0.0
H3024 H 0.61316 0.59577 0.90102 0.0
H3025 H 0.67557 0.6127 0.88696 0.0
H3026 H 0.66327 0.63972 0.86384 0.0
H3027 H 0.63482 0.65399 0.8433 0.0
H3028 H 0.57239 0.63772 0.85806 0.0
H3029 H 0.58453 0.61523 0.88566 0.0
C3030 C 0.62401 0.60585 0.89336 0.0
C3031 C 0.6452 0.60225 0.89544 0.0
C3032 C 0.6168 0.62126 0.88013 0.0
C3033 C 0.6592 0.61533 0.8856 0.0
C3034 C 0.65216 0.63062 0.87226 0.0
C3035 C 0.6239 0.64598 0.85302 0.0
C3036 C 0.60279 0.64724 0.84862 0.0
C3037 C 0.63102 0.63309 0.86875 0.0
C3038 C 0.58869 0.63699 0.86128 0.0
C3039 C 0.59565 0.62399 0.8769 0.0
H3040 H 0.66234 0.36953 0.1458 0.0
H3041 H 0.64683 0.43135 0.12805 0.0
H3042 H 0.61931 0.41832 0.10593 0.0
H3043 H 0.60325 0.38901 0.08815 0.0
H3044 H 0.61759 0.32725 0.10713 0.0
H3045 H 0.64181 0.34051 0.13268 0.0
C3046 C 0.65256 0.38011 0.13744 0.0
C3047 C 0.65658 0.4013 0.13828 0.0
C3048 C 0.63673 0.3725 0.12497 0.0
C3049 C 0.64386 0.41499 0.1276 0.0
C3050 C 0.62827 0.40753 0.11488 0.0
C3051 C 0.61129 0.37853 0.0983 0.0
C3052 C 0.60887 0.35723 0.09577 0.0
C3053 C 0.62506 0.38628 0.11294 0.0
C3054 C 0.6192 0.34371 0.10896 0.0
C3055 C 0.63316 0.35129 0.1234 0.0
H3056 H 0.91394 0.36539 0.35785 0.0
H3057 H 0.85676 0.33945 0.3372 0.0
H3058 H 0.83814 0.35783 0.36407 0.0
H3059 H 0.83741 0.38588 0.3894 0.0
H3060 H 0.89416 0.41447 0.40753 0.0
H3061 H 0.91362 0.39043 0.38628 0.0
C3062 C 0.89753 0.3633 0.35975 0.0
C3063 C 0.88671 0.35114 0.34566 0.0
C3064 C 0.88677 0.37466 0.37472 0.0
C3065 C 0.86537 0.34879 0.34794 0.0
C3066 C 0.85469 0.35937 0.36323 0.0
C3067 C 0.85406 0.38629 0.38921 0.0
C3068 C 0.86437 0.4018 0.39999 0.0
C3069 C 0.8651 0.37302 0.37616 0.0
C3070 C 0.88594 0.40257 0.39933 0.0
C3071 C 0.89707 0.38891 0.38708 0.0
H3072 H 0.84195 0.63706 0.65196 0.0
H3073 H 0.85544 0.57439 0.63564 0.0
H3074 H 0.88266 0.5861 0.61234 0.0
H3075 H 0.89795 0.6145 0.59242 0.0
H3076 H 0.88448 0.67714 0.60894 0.0
H3077 H 0.86221 0.66521 0.63685 0.0
C3078 C 0.85133 0.62599 0.64375 0.0
C3079 C 0.84673 0.60495 0.64525 0.0
C3080 C 0.86674 0.63288 0.63036 0.0
C3081 C 0.85888 0.59064 0.63472 0.0
C3082 C 0.87427 0.59736 0.62129 0.0
C3083 C 0.89053 0.62548 0.60252 0.0
C3084 C 0.89251 0.64662 0.59857 0.0
C3085 C 0.87766 0.61847 0.61833 0.0
C3086 C 0.88316 0.6608 0.61181 0.0
C3087 C 0.8703 0.65397 0.6276 0.0
H3088 H 0.6171 0.40919 0.60288 0.0
H3089 H 0.67845 0.39069 0.61932 0.0
H3090 H 0.66455 0.36381 0.64173 0.0
H3091 H 0.63483 0.34929 0.66036 0.0
H3092 H 0.5735 0.36657 0.64267 0.0
H3093 H 0.5874 0.39011 0.61674 0.0
C3094 C 0.62737 0.39887 0.61098 0.0
C3095 C 0.64872 0.40191 0.60968 0.0
C3096 C 0.61925 0.38345 0.62369 0.0
C3097 C 0.66197 0.38849 0.62006 0.0
C3098 C 0.65402 0.37328 0.63299 0.0
C3099 C 0.62457 0.35781 0.65037 0.0
C3100 C 0.60324 0.35639 0.65335 0.0
C3101 C 0.63269 0.37113 0.63547 0.0
C3102 C 0.58997 0.36739 0.64046 0.0
C3103 C 0.59792 0.38095 0.62579 0.0
H3104 H 0.89394 0.38925 0.91088 0.0
H3105 H 0.88076 0.32665 0.89395 0.0
H3106 H 0.85902 0.33869 0.86574 0.0
H3107 H 0.83911 0.36696 0.8503 0.0
H3108 H 0.85274 0.42954 0.86673 0.0
H3109 H 0.87947 0.41768 0.89041 0.0
C3110 C 0.88674 0.37828 0.90062 0.0
C3111 C 0.88863 0.35712 0.90458 0.0
C3112 C 0.87433 0.38534 0.88446 0.0
C3113 C 0.87947 0.343 0.89115 0.0
C3114 C 0.86695 0.34989 0.87513 0.0
C3115 C 0.84853 0.37798 0.8585 0.0
C3116 C 0.84407 0.39905 0.85691 0.0
C3117 C 0.86361 0.371 0.87222 0.0
C3118 C 0.85615 0.41327 0.86759 0.0
C3119 C 0.87121 0.40647 0.88132 0.0
H3120 H 0.8861 0.60243 0.09886 0.0
H3121 H 0.82333 0.61178 0.11761 0.0
H3122 H 0.83393 0.64049 0.13954 0.0
H3123 H 0.86187 0.65854 0.1576 0.0
H3124 H 0.92455 0.64972 0.13821 0.0
H3125 H 0.9132 0.62548 0.1118 0.0
C3126 C 0.87471 0.6112 0.1073 0.0
C3127 C 0.85403 0.60502 0.10688 0.0
C3128 C 0.88095 0.62761 0.11979 0.0
C3129 C 0.83931 0.6164 0.11772 0.0
C3130 C 0.8454 0.63267 0.13035 0.0
C3131 C 0.87294 0.6518 0.14711 0.0
C3132 C 0.89401 0.65569 0.14987 0.0
C3133 C 0.86628 0.63781 0.13213 0.0
C3134 C 0.90826 0.64701 0.13624 0.0
C3135 C 0.90178 0.63299 0.12132 0.0
H3136 H 0.60249 0.61523 0.41096 0.0
H3137 H 0.62175 0.67746 0.39937 0.0
H3138 H 0.64609 0.66528 0.37332 0.0
H3139 H 0.66556 0.63642 0.35825 0.0
H3140 H 0.64557 0.57425 0.36909 0.0
H3141 H 0.61756 0.58686 0.39086 0.0
C3142 C 0.61162 0.62614 0.40227 0.0
C3143 C 0.61053 0.64717 0.4071 0.0
C3144 C 0.62557 0.61898 0.38743 0.0
C3145 C 0.62228 0.66123 0.39577 0.0
C3146 C 0.63633 0.65423 0.38105 0.0
C3147 C 0.65472 0.62569 0.36497 0.0
C3148 C 0.6577 0.60444 0.36232 0.0
C3149 C 0.63867 0.63308 0.37739 0.0
C3150 C 0.64352 0.59066 0.3709 0.0
C3151 C 0.62762 0.59787 0.38346 0.0
H3152 H 0.63542 0.85973 0.58596 0.0
H3153 H 0.66551 0.83667 0.64008 0.0
H3154 H 0.64501 0.85939 0.66177 0.0
H3155 H 0.61403 0.88096 0.66569 0.0
H3156 H 0.58312 0.90293 0.61156 0.0
H3157 H 0.60834 0.88596 0.58962 0.0
C3158 C 0.638 0.86036 0.6024 0.0
C3159 C 0.65186 0.84662 0.61146 0.0
C3160 C 0.62563 0.87301 0.61487 0.0
C3161 C 0.65485 0.84718 0.63283 0.0
C3162 C 0.64303 0.86006 0.64526 0.0
C3163 C 0.61327 0.88252 0.64912 0.0
C3164 C 0.59657 0.89276 0.64019 0.0
C3165 C 0.62767 0.87233 0.63655 0.0
C3166 C 0.59563 0.89465 0.61871 0.0
C3167 C 0.61007 0.885 0.60615 0.0
H3168 H 0.9573 0.24612 0.33147 0.0
H3169 H 0.99065 0.30316 0.32723 0.0
H3170 H 0.02315 0.28474 0.33084 0.0
H3171 H 0.04231 0.25208 0.3325 0.0
H3172 H 0.00891 0.19495 0.33382 0.0
H3173 H 0.97636 0.21363 0.33428 0.0
C3174 C 0.97166 0.25454 0.33166 0.0
C3175 C 0.97153 0.27599 0.32912 0.0
C3176 C 0.99036 0.24377 0.33313 0.0
C3177 C 0.99032 0.28664 0.32909 0.0
C3178 C 0.00893 0.2761 0.33115 0.0
C3179 C 0.0279 0.24377 0.33328 0.0
C3180 C 0.02801 0.22218 0.33325 0.0
C3181 C 0.00918 0.25463 0.33282 0.0
C3182 C 0.00921 0.21159 0.33385 0.0
C3183 C 0.99059 0.22226 0.33407 0.0
H3184 H 0.99639 0.79275 0.58179 0.0
H3185 H 0.05332 0.75895 0.58091 0.0
H3186 H 0.03446 0.72651 0.58099 0.0
H3187 H 0.00177 0.70779 0.57822 0.0
H3188 H 0.94496 0.7418 0.57617 0.0
H3189 H 0.96367 0.77399 0.58043 0.0
C3190 C 0.00462 0.77827 0.58203 0.0
C3191 C 0.02616 0.7782 0.58142 0.0
C3192 C 0.99367 0.75968 0.58133 0.0
C3193 C 0.03669 0.75934 0.58135 0.0
C3194 C 0.02593 0.7408 0.58135 0.0
C3195 C 0.9935 0.72223 0.57901 0.0
C3196 C 0.97205 0.72243 0.57685 0.0
C3197 C 0.00441 0.74077 0.58086 0.0
C3198 C 0.96152 0.74127 0.57767 0.0
C3199 C 0.97219 0.75969 0.58012 0.0
H3200 H 0.50672 0.70669 0.82641 0.0
H3201 H 0.55046 0.75635 0.82844 0.0
H3202 H 0.52243 0.78129 0.83006 0.0
H3203 H 0.48545 0.78905 0.82825 0.0
H3204 H 0.44168 0.73936 0.82786 0.0
H3205 H 0.4697 0.71437 0.82849 0.0
C3206 C 0.51008 0.72297 0.82742 0.0
C3207 C 0.53061 0.72969 0.82712 0.0
C3208 C 0.49388 0.73721 0.8286 0.0
C3209 C 0.53479 0.75079 0.82869 0.0
C3210 C 0.51876 0.76506 0.82952 0.0
C3211 C 0.48207 0.77274 0.82857 0.0
C3212 C 0.46154 0.76606 0.82785 0.0
C3213 C 0.49826 0.75846 0.8291 0.0
C3214 C 0.45735 0.7449 0.82848 0.0
C3215 C 0.47337 0.7306 0.82871 0.0
H3216 H 0.49815 0.29498 0.08324 0.0
H3217 H 0.554 0.25946 0.0823 0.0
H3218 H 0.53419 0.22762 0.08394 0.0
H3219 H 0.50093 0.20985 0.08218 0.0
H3220 H 0.44513 0.24539 0.07953 0.0
H3221 H 0.46482 0.27717 0.08293 0.0
C3222 C 0.50592 0.28026 0.08383 0.0
C3223 C 0.52744 0.2795 0.08276 0.0
C3224 C 0.4944 0.26201 0.08394 0.0
C3225 C 0.5374 0.26036 0.08311 0.0
C3226 C 0.52609 0.24217 0.084 0.0
C3227 C 0.4931 0.22455 0.08275 0.0
C3228 C 0.47165 0.22532 0.08067 0.0
C3229 C 0.50458 0.24278 0.08392 0.0
C3230 C 0.46167 0.24446 0.08106 0.0
C3231 C 0.47291 0.26262 0.08297 0.0
H3232 H 0.98889 0.7165 0.16989 0.0
H3233 H 0.94862 0.76907 0.16959 0.0
H3234 H 0.97829 0.79204 0.16747 0.0
H3235 H 0.01582 0.79719 0.16797 0.0
H3236 H 0.05599 0.74453 0.16639 0.0
H3237 H 0.02627 0.72159 0.16675 0.0
C3238 C 0.98663 0.73298 0.16918 0.0
C3239 C 0.96661 0.74109 0.17007 0.0
C3240 C 0.00375 0.74607 0.16765 0.0
C3241 C 0.96387 0.76246 0.16888 0.0
C3242 C 0.98084 0.7756 0.16776 0.0
C3243 C 0.01804 0.78069 0.16746 0.0
C3244 C 0.03809 0.77257 0.16727 0.0
C3245 C 0.00086 0.76758 0.16746 0.0
C3246 C 0.04074 0.75118 0.16644 0.0
C3247 C 0.02374 0.73804 0.16678 0.0
H3248 H 0.54563 0.741 0.42598 0.0
H3249 H 0.49704 0.69598 0.4255 0.0
H3250 H 0.47149 0.72324 0.42233 0.0
H3251 H 0.46278 0.75998 0.42224 0.0
H3252 H 0.51126 0.80507 0.42139 0.0
H3253 H 0.53699 0.77772 0.42228 0.0
C3254 C 0.52945 0.73717 0.42498 0.0
C3255 C 0.52325 0.71649 0.42615 0.0
C3256 C 0.51481 0.75294 0.42296 0.0
C3257 C 0.50225 0.71174 0.4246 0.0
C3258 C 0.48761 0.72734 0.42288 0.0
C3259 C 0.47899 0.76381 0.422 0.0
C3260 C 0.48509 0.78453 0.4219 0.0
C3261 C 0.49369 0.748 0.42241 0.0
C3262 C 0.50614 0.78925 0.42139 0.0
C3263 C 0.52087 0.77361 0.42204 0.0
H3264 H 0.53439 0.25831 0.68631 0.0
H3265 H 0.49935 0.30016 0.64874 0.0
H3266 H 0.4717 0.27497 0.64614 0.0
H3267 H 0.45626 0.24209 0.65683 0.0
H3268 H 0.49101 0.20101 0.69555 0.0
H3269 H 0.51988 0.22479 0.69531 0.0
C3270 C 0.52084 0.26185 0.67731 0.0
C3271 C 0.51896 0.28118 0.66783 0.0
C3272 C 0.5048 0.24745 0.67622 0.0
C3273 C 0.50122 0.28545 0.65628 0.0
C3274 C 0.48534 0.27106 0.65483 0.0
C3275 C 0.47023 0.23823 0.66501 0.0
C3276 C 0.47135 0.21981 0.67629 0.0
C3277 C 0.48677 0.25216 0.66509 0.0
C3278 C 0.48961 0.21511 0.68685 0.0
C3279 C 0.50617 0.22872 0.68673 0.0
H3280 H 0.9914 0.20906 0.92099 0.0
H3281 H 0.04757 0.2436 0.91543 0.0
H3282 H 0.02809 0.27566 0.91377 0.0
H3283 H 0.99527 0.2941 0.91732 0.0
H3284 H 0.93948 0.25961 0.92632 0.0
H3285 H 0.95846 0.22741 0.92309 0.0
C3286 C 0.99929 0.22359 0.91897 0.0
C3287 C 0.02083 0.22403 0.91822 0.0
C3288 C 0.98804 0.24202 0.91888 0.0
C3289 C 0.03096 0.24295 0.91603 0.0
C3290 C 0.01984 0.26128 0.91514 0.0
C3291 C 0.98727 0.27952 0.91821 0.0
C3292 C 0.96605 0.27919 0.92204 0.0
C3293 C 0.9984 0.26105 0.91706 0.0
C3294 C 0.95586 0.26021 0.92347 0.0
C3295 C 0.9667 0.2418 0.92163 0.0
H3296 H 0.32877 0.04241 0.24856 0.0
H3297 H 0.32491 0.00702 0.1927 0.0
H3298 H 0.3308 0.97541 0.21196 0.0
H3299 H 0.33422 0.95747 0.24501 0.0
H3300 H 0.33542 0.99258 0.30111 0.0
H3301 H 0.33368 0.02455 0.28151 0.0
C3302 C 0.3295 0.0278 0.24059 0.0
C3303 C 0.32636 0.02707 0.21925 0.0
C3304 C 0.33237 0.00958 0.25184 0.0
C3305 C 0.32715 0.008 0.20916 0.0
C3306 C 0.33054 0.98989 0.22015 0.0
C3307 C 0.33453 0.97214 0.25288 0.0
C3308 C 0.33504 0.97269 0.27444 0.0
C3309 C 0.33279 0.99045 0.24154 0.0
C3310 C 0.33504 0.9918 0.2845 0.0
C3311 C 0.33398 0.01007 0.27331 0.0
H3312 H 0.21722 0.07901 0.50114 0.0
H3313 H 0.25171 0.0738 0.44482 0.0
H3314 H 0.2839 0.07485 0.46406 0.0
H3315 H 0.30221 0.07423 0.49714 0.0
H3316 H 0.26749 0.07647 0.55353 0.0
H3317 H 0.23557 0.07976 0.53413 0.0
C3318 C 0.2318 0.07849 0.49308 0.0
C3319 C 0.23209 0.0764 0.4716 0.0
C3320 C 0.25025 0.0784 0.50431 0.0
C3321 C 0.25109 0.07538 0.46137 0.0
C3322 C 0.26951 0.07594 0.47236 0.0
C3323 C 0.28768 0.0758 0.50515 0.0
C3324 C 0.28722 0.07515 0.52672 0.0
C3325 C 0.26928 0.07701 0.49387 0.0
C3326 C 0.26824 0.07687 0.53691 0.0
C3327 C 0.24997 0.07873 0.52583 0.0
H3328 H 0.15642 0.95777 0.74875 0.0
H3329 H 0.19555 0.99154 0.70718 0.0
H3330 H 0.1961 0.02052 0.73081 0.0
H3331 H 0.18756 0.0354 0.76424 0.0
H3332 H 0.14942 0.00145 0.80654 0.0
H3333 H 0.14625 0.97361 0.78162 0.0
C3334 C 0.16486 0.97156 0.74476 0.0
C3335 C 0.17602 0.97239 0.72625 0.0
C3336 C 0.16539 0.98815 0.7586 0.0
C3337 C 0.18693 0.99039 0.72137 0.0
C3338 C 0.18727 0.00701 0.73488 0.0
C3339 C 0.17836 0.02203 0.76796 0.0
C3340 C 0.16885 0.02051 0.78731 0.0
C3341 C 0.17687 0.00592 0.7537 0.0
C3342 C 0.15699 0.00302 0.79181 0.0
C3343 C 0.1552 0.98705 0.77757 0.0
H3344 H 0.25975 0.9246 0.95159 0.0
H3345 H 0.30304 0.92044 0.00147 0.0
H3346 H 0.27483 0.92082 0.0263 0.0
H3347 H 0.23781 0.92443 0.03395 0.0
H3348 H 0.19449 0.92638 0.98395 0.0
H3349 H 0.22263 0.92466 0.95914 0.0
C3350 C 0.26298 0.92354 0.96789 0.0
C3351 C 0.28348 0.92259 0.97465 0.0
C3352 C 0.24664 0.92348 0.9821 0.0
C3353 C 0.28741 0.92107 0.99582 0.0
C3354 C 0.27127 0.92141 0.01006 0.0
C3355 C 0.23455 0.9243 0.01762 0.0
C3356 C 0.21407 0.92567 0.01082 0.0
C3357 C 0.25083 0.92294 0.00339 0.0
C3358 C 0.21008 0.92526 0.98961 0.0
C3359 C 0.22619 0.92438 0.9754 0.0
H3360 H 0.24365 0.33107 0.95663 0.0
H3361 H 0.29899 0.33565 0.99258 0.0
H3362 H 0.27871 0.33784 0.02411 0.0
H3363 H 0.24539 0.33511 0.04169 0.0
H3364 H 0.1903 0.32719 0.00592 0.0
H3365 H 0.21018 0.3298 0.97416 0.0
C3366 C 0.2512 0.33296 0.97135 0.0
C3367 C 0.27273 0.33328 0.97233 0.0
C3368 C 0.23946 0.33342 0.98947 0.0
C3369 C 0.2824 0.33535 0.9915 0.0
C3370 C 0.27082 0.33656 0.00952 0.0
C3371 C 0.23773 0.33435 0.02693 0.0
C3372 C 0.21644 0.33101 0.02611 0.0
C3373 C 0.24936 0.33513 0.00874 0.0
C3374 C 0.20671 0.3297 0.0069 0.0
C3375 C 0.21806 0.33117 0.98875 0.0
H3376 H 0.74166 0.177 0.04688 0.0
H3377 H 0.79892 0.16696 0.01515 0.0
H3378 H 0.78077 0.16426 0.98245 0.0
H3379 H 0.74901 0.16814 0.96244 0.0
H3380 H 0.6922 0.18133 0.99388 0.0
H3381 H 0.70963 0.17927 0.02701 0.0
C3382 C 0.75006 0.17381 0.03284 0.0
C3383 C 0.77153 0.17213 0.03337 0.0
C3384 C 0.7396 0.17305 0.01398 0.0
C3385 C 0.78234 0.16835 0.01505 0.0
C3386 C 0.77199 0.16685 0.99636 0.0
C3387 C 0.74042 0.1702 0.97657 0.0
C3388 C 0.7194 0.1749 0.97574 0.0
C3389 C 0.75068 0.16968 0.99555 0.0
C3390 C 0.70846 0.17781 0.99415 0.0
C3391 C 0.7184 0.17664 0.0131 0.0
H3392 H 0.08027 0.50445 0.20997 0.0
H3393 H 0.07635 0.44925 0.24628 0.0
H3394 H 0.07685 0.46957 0.27786 0.0
H3395 H 0.07532 0.50324 0.29507 0.0
H3396 H 0.07569 0.55841 0.25845 0.0
H3397 H 0.0798 0.53806 0.22719 0.0
C3398 C 0.07993 0.49691 0.22482 0.0
C3399 C 0.07841 0.47543 0.22585 0.0
C3400 C 0.0794 0.50874 0.24288 0.0
C3401 C 0.07754 0.46581 0.24516 0.0
C3402 C 0.07778 0.47741 0.2632 0.0
C3403 C 0.07665 0.51076 0.28026 0.0
C3404 C 0.07526 0.53225 0.27903 0.0
C3405 C 0.07826 0.49892 0.26226 0.0
C3406 C 0.07665 0.54185 0.25974 0.0
C3407 C 0.07899 0.53023 0.24186 0.0
H3408 H 0.71023 0.82869 0.50867 0.0
H3409 H 0.75983 0.83731 0.55164 0.0
H3410 H 0.78453 0.83787 0.52333 0.0
H3411 H 0.79228 0.83325 0.48657 0.0
H3412 H 0.74257 0.82616 0.44345 0.0
H3413 H 0.71767 0.82784 0.47155 0.0
C3414 C 0.72643 0.83093 0.5118 0.0
C3415 C 0.7332 0.8328 0.53224 0.0
C3416 C 0.74053 0.83141 0.49542 0.0
C3417 C 0.7542 0.8359 0.53605 0.0
C3418 C 0.76836 0.8361 0.51988 0.0
C3419 C 0.77597 0.8323 0.48332 0.0
C3420 C 0.76928 0.82942 0.46297 0.0
C3421 C 0.76174 0.83347 0.49954 0.0
C3422 C 0.74812 0.82845 0.45896 0.0
C3423 C 0.73387 0.82929 0.47504 0.0
H3424 H 0.92175 0.99809 0.21073 0.0
H3425 H 0.92301 0.0535 0.24689 0.0
H3426 H 0.92389 0.03323 0.2785 0.0
H3427 H 0.92737 0.99974 0.29573 0.0
H3428 H 0.92956 0.94452 0.25926 0.0
H3429 H 0.92416 0.96458 0.228 0.0
C3430 C 0.92181 0.00567 0.22556 0.0
C3431 C 0.92218 0.02721 0.22654 0.0
C3432 C 0.92314 0.99392 0.24363 0.0
C3433 C 0.92269 0.0369 0.24581 0.0
C3434 C 0.92325 0.02533 0.26387 0.0
C3435 C 0.92633 0.99211 0.28096 0.0
C3436 C 0.92881 0.97072 0.27977 0.0
C3437 C 0.92393 0.00382 0.26296 0.0
C3438 C 0.92776 0.96102 0.26052 0.0
C3439 C 0.92468 0.97247 0.24265 0.0
H3440 H 0.24884 0.67143 0.54156 0.0
H3441 H 0.30363 0.66715 0.50459 0.0
H3442 H 0.28285 0.66602 0.47335 0.0
H3443 H 0.24923 0.66932 0.45639 0.0
H3444 H 0.19476 0.67695 0.49334 0.0
H3445 H 0.21515 0.67358 0.52465 0.0
C3446 C 0.25617 0.66985 0.52668 0.0
C3447 C 0.27771 0.66925 0.52536 0.0
C3448 C 0.24415 0.67001 0.50874 0.0
C3449 C 0.28706 0.66762 0.50597 0.0
C3450 C 0.27519 0.66703 0.48811 0.0
C3451 C 0.24181 0.66989 0.47131 0.0
C3452 C 0.22053 0.67331 0.47257 0.0
C3453 C 0.25374 0.66865 0.48927 0.0
C3454 C 0.21115 0.67437 0.49199 0.0
C3455 C 0.22279 0.67246 0.5099 0.0
H3456 H 0.42735 0.45323 0.75416 0.0
H3457 H 0.41865 0.50167 0.79848 0.0
H3458 H 0.41788 0.52711 0.77089 0.0
H3459 H 0.42197 0.53584 0.73432 0.0
H3460 H 0.42865 0.48739 0.68971 0.0
H3461 H 0.42771 0.4617 0.71716 0.0
C3462 C 0.42508 0.46934 0.75772 0.0
C3463 C 0.42322 0.47558 0.77834 0.0
C3464 C 0.42434 0.48388 0.74173 0.0
C3465 C 0.42006 0.49646 0.78275 0.0
C3466 C 0.41972 0.51103 0.76698 0.0
C3467 C 0.42299 0.51963 0.73062 0.0
C3468 C 0.42551 0.51351 0.71005 0.0
C3469 C 0.42218 0.50496 0.74645 0.0
C3470 C 0.4266 0.49247 0.70542 0.0
C3471 C 0.4262 0.47779 0.72112 0.0
H3472 H 0.79676 0.52776 0.72952 0.0
H3473 H 0.86214 0.52566 0.71887 0.0
H3474 H 0.86552 0.49819 0.74435 0.0
H3475 H 0.84968 0.4746 0.76967 0.0
H3476 H 0.78397 0.47654 0.77876 0.0
H3477 H 0.78104 0.50411 0.75382 0.0
C3478 C 0.81181 0.5214 0.73279 0.0
C3479 C 0.82918 0.52885 0.72236 0.0
C3480 C 0.81358 0.50546 0.74715 0.0
C3481 C 0.8485 0.52024 0.72671 0.0
C3482 C 0.85044 0.50451 0.74127 0.0
C3483 C 0.83473 0.48104 0.76615 0.0
C3484 C 0.81711 0.47346 0.77616 0.0
C3485 C 0.83306 0.49694 0.75157 0.0
C3486 C 0.79783 0.48196 0.77132 0.0
C3487 C 0.7961 0.49782 0.75707 0.0
H3488 H 0.79728 0.59444 0.99763 0.0
H3489 H 0.76331 0.56024 0.0432 0.0
H3490 H 0.73383 0.55848 0.02031 0.0
H3491 H 0.71824 0.56484 0.98666 0.0
H3492 H 0.75228 0.59832 0.94064 0.0
H3493 H 0.78096 0.60227 0.96441 0.0
C3494 C 0.78337 0.58678 0.00264 0.0
C3495 C 0.78263 0.57742 0.02211 0.0
C3496 C 0.76643 0.5856 0.98926 0.0
C3497 C 0.76443 0.56751 0.02828 0.0
C3498 C 0.7475 0.56647 0.01518 0.0
C3499 C 0.73184 0.57319 0.98187 0.0
C3500 C 0.73308 0.58119 0.96183 0.0
C3501 C 0.74842 0.5752 0.99553 0.0
C3502 C 0.75088 0.59193 0.95593 0.0
C3503 C 0.76735 0.59418 0.96952 0.0
H3504 H 0.6728 0.54399 0.2526 0.0
H3505 H 0.67786 0.50672 0.3071 0.0
H3506 H 0.67512 0.47553 0.28643 0.0
H3507 H 0.67412 0.45877 0.25256 0.0
H3508 H 0.67235 0.49604 0.19788 0.0
H3509 H 0.67078 0.5272 0.21877 0.0
C3510 C 0.67296 0.52903 0.25994 0.0
C3511 C 0.67547 0.52765 0.28133 0.0
C3512 C 0.67209 0.51113 0.24787 0.0
C3513 C 0.676 0.50817 0.29063 0.0
C3514 C 0.67444 0.49033 0.27883 0.0
C3515 C 0.67301 0.47371 0.24527 0.0
C3516 C 0.67324 0.47513 0.22374 0.0
C3517 C 0.67287 0.4916 0.25739 0.0
C3518 C 0.6722 0.49459 0.21445 0.0
C3519 C 0.67134 0.5124 0.22639 0.0
H3520 H 0.76278 0.41449 0.46213 0.0
H3521 H 0.80793 0.41226 0.51049 0.0
H3522 H 0.78063 0.41245 0.53629 0.0
H3523 H 0.74398 0.41622 0.54512 0.0
H3524 H 0.69879 0.41689 0.49676 0.0
H3525 H 0.72599 0.41419 0.47099 0.0
C3526 C 0.76662 0.41375 0.47832 0.0
C3527 C 0.78735 0.41351 0.48438 0.0
C3528 C 0.75083 0.41373 0.49308 0.0
C3529 C 0.7921 0.41237 0.5054 0.0
C3530 C 0.77649 0.41262 0.52018 0.0
C3531 C 0.7401 0.41553 0.52894 0.0
C3532 C 0.71942 0.41693 0.52285 0.0
C3533 C 0.75582 0.41375 0.5142 0.0
C3534 C 0.71458 0.41578 0.50186 0.0
C3535 C 0.73014 0.41435 0.4871 0.0
H3536 H 0.5841 0.9963 0.71049 0.0
H3537 H 0.58192 0.94045 0.74601 0.0
H3538 H 0.58358 0.96024 0.77783 0.0
H3539 H 0.58244 0.99354 0.79561 0.0
H3540 H 0.58198 0.0494 0.76 0.0
H3541 H 0.58472 0.02959 0.72829 0.0
C3542 C 0.58439 0.98848 0.72519 0.0
C3543 C 0.58291 0.96697 0.7259 0.0
C3544 C 0.58468 0.99999 0.74346 0.0
C3545 C 0.58299 0.95702 0.74508 0.0
C3546 C 0.5839 0.96832 0.76328 0.0
C3547 C 0.58329 0.00136 0.78093 0.0
C3548 C 0.58198 0.02289 0.78016 0.0
C3549 C 0.58427 0.98984 0.76268 0.0
C3550 C 0.58285 0.03282 0.76099 0.0
C3551 C 0.58441 0.0215 0.74284 0.0
loop_
_geom_bond_atom_site_label_1
_geom_bond_atom_site_label_2
_geom_bond_distance
_geom_bond_site_symmetry_2
_ccdc_geom_bond_type
Co0 O3 1.970 . S
Co0 N17 1.989 . S
Co0 O25 1.967 . S
Co0 O32 1.920 . S
Co1 O4 1.966 . S
Co1 N10 2.022 . S
Co1 N18 1.993 . S
Co1 O26 1.941 . S
C2 O3 1.258 . S
C2 O4 1.263 . S
O3 Co0 1.970 . S
O3 C2 1.258 . S
O4 Co1 1.966 . S
O4 C2 1.263 . S
C5 O6 1.235 . S
C5 O32 1.289 . S
O6 C5 1.235 . S
C7 C9 1.400 . S
C7 N10 1.351 . S
C7 C12 1.501 . S
C8 C9 1.387 . S
C8 N11 1.341 . S
C9 C7 1.400 . S
C9 C8 1.387 . S
N10 Co1 2.022 . S
N10 C7 1.351 . S
N10 N11 1.365 . S
N11 C8 1.341 . S
N11 N10 1.365 . S
N11 H31 0.862 . S
C12 C7 1.501 . S
C12 H13 0.961 . S
C12 H14 0.961 . S
C12 H15 0.960 . S
H13 C12 0.961 . S
H14 C12 0.961 . S
H15 C12 0.960 . S
C16 N17 1.342 . S
C16 C20 1.401 . S
C16 C21 1.499 . S
N17 Co0 1.989 . S
N17 C16 1.342 . S
N17 N18 1.388 . S
N18 Co1 1.993 . S
N18 N17 1.388 . S
N18 C19 1.346 . S
C19 N18 1.346 . S
C19 C20 1.396 . S
C19 C29 1.510 . S
C20 C16 1.401 . S
C20 C19 1.396 . S
C21 C16 1.499 . S
C21 H22 0.959 . S
C21 H23 0.960 . S
C21 H24 0.961 . S
H22 C21 0.959 . S
H23 C21 0.960 . S
H24 C21 0.961 . S
O25 Co0 1.967 . S
O25 C33 1.258 . S
O26 Co1 1.941 . S
O26 C33 1.266 . S
H27 C29 0.959 . S
H28 C29 0.961 . S
C29 C19 1.510 . S
C29 H27 0.959 . S
C29 H28 0.961 . S
C29 H30 0.960 . S
H30 C29 0.960 . S
H31 N11 0.862 . S
O32 Co0 1.920 . S
O32 C5 1.289 . S
C33 O25 1.258 . S
C33 O26 1.266 . S
Co34 O37 1.970 . S
Co34 N51 1.989 . S
Co34 O59 1.967 . S
Co34 O66 1.920 . S
Co35 O38 1.966 . S
Co35 N44 2.022 . S
Co35 N52 1.993 . S
Co35 O60 1.941 . S
C36 O37 1.258 . S
C36 O38 1.263 . S
O37 Co34 1.970 . S
O37 C36 1.258 . S
O38 Co35 1.966 . S
O38 C36 1.263 . S
C39 O40 1.235 . S
C39 O66 1.289 . S
O40 C39 1.235 . S
C41 C43 1.400 . S
C41 N44 1.351 . S
C41 C46 1.501 . S
C42 C43 1.387 . S
C42 N45 1.341 . S
C43 C41 1.400 . S
C43 C42 1.387 . S
N44 Co35 2.022 . S
N44 C41 1.351 . S
N44 N45 1.365 . S
N45 C42 1.341 . S
N45 N44 1.365 . S
N45 H65 0.862 . S
C46 C41 1.501 . S
C46 H47 0.961 . S
C46 H48 0.961 . S
C46 H49 0.960 . S
H47 C46 0.961 . S
H48 C46 0.961 . S
H49 C46 0.960 . S
C50 N51 1.342 . S
C50 C54 1.401 . S
C50 C55 1.499 . S
N51 Co34 1.989 . S
N51 C50 1.342 . S
N51 N52 1.388 . S
N52 Co35 1.993 . S
N52 N51 1.388 . S
N52 C53 1.346 . S
C53 N52 1.346 . S
C53 C54 1.396 . S
C53 C63 1.510 . S
C54 C50 1.401 . S
C54 C53 1.396 . S
C55 C50 1.499 . S
C55 H56 0.959 . S
C55 H57 0.960 1_455 S
C55 H58 0.961 . S
H56 C55 0.959 . S
H57 C55 0.960 1_655 S
H58 C55 0.961 . S
O59 Co34 1.967 . S
O59 C67 1.258 . S
O60 Co35 1.941 . S
O60 C67 1.266 . S
H61 C63 0.959 . S
H62 C63 0.961 . S
C63 C53 1.510 . S
C63 H61 0.959 . S
C63 H62 0.961 . S
C63 H64 0.960 . S
H64 C63 0.960 . S
H65 N45 0.862 . S
O66 Co34 1.920 . S
O66 C39 1.289 . S
C67 O59 1.258 . S
C67 O60 1.266 . S
Co68 O71 1.970 . S
Co68 N85 1.989 . S
Co68 O93 1.967 . S
Co68 O100 1.920 . S
Co69 O72 1.966 . S
Co69 N78 2.022 . S
Co69 N86 1.993 . S
Co69 O94 1.941 . S
C70 O71 1.258 . S
C70 O72 1.263 . S
O71 Co68 1.970 . S
O71 C70 1.258 . S
O72 Co69 1.966 . S
O72 C70 1.263 . S
C73 O74 1.235 . S
C73 O100 1.289 . S
O74 C73 1.235 . S
C75 C77 1.400 . S
C75 N78 1.351 . S
C75 C80 1.501 . S
C76 C77 1.387 . S
C76 N79 1.341 . S
C77 C75 1.400 . S
C77 C76 1.387 . S
N78 Co69 2.022 . S
N78 C75 1.351 . S
N78 N79 1.365 . S
N79 C76 1.341 . S
N79 N78 1.365 . S
N79 H99 0.862 . S
C80 C75 1.501 . S
C80 H81 0.961 . S
C80 H82 0.961 . S
C80 H83 0.960 . S
H81 C80 0.961 . S
H82 C80 0.961 . S
H83 C80 0.960 . S
C84 N85 1.342 . S
C84 C88 1.401 . S
C84 C89 1.499 . S
N85 Co68 1.989 . S
N85 C84 1.342 . S
N85 N86 1.388 . S
N86 Co69 1.993 . S
N86 N85 1.388 . S
N86 C87 1.346 . S
C87 N86 1.346 . S
C87 C88 1.396 . S
C87 C97 1.510 . S
C88 C84 1.401 . S
C88 C87 1.396 . S
C89 C84 1.499 . S
C89 H90 0.959 . S
C89 H91 0.960 . S
C89 H92 0.961 . S
H90 C89 0.959 . S
H91 C89 0.960 . S
H92 C89 0.961 . S
O93 Co68 1.967 . S
O93 C101 1.258 . S
O94 Co69 1.941 . S
O94 C101 1.266 . S
H95 C97 0.959 . S
H96 C97 0.961 . S
C97 C87 1.510 . S
C97 H95 0.959 . S
C97 H96 0.961 . S
C97 H98 0.960 . S
H98 C97 0.960 . S
H99 N79 0.862 . S
O100 Co68 1.920 . S
O100 C73 1.289 . S
C101 O93 1.258 . S
C101 O94 1.266 . S
Co102 O105 1.970 . S
Co102 N119 1.989 . S
Co102 O127 1.967 . S
Co102 O134 1.920 . S
Co103 O106 1.966 . S
Co103 N112 2.022 . S
Co103 N120 1.993 . S
Co103 O128 1.941 . S
C104 O105 1.258 . S
C104 O106 1.263 . S
O105 Co102 1.970 . S
O105 C104 1.258 . S
O106 Co103 1.966 . S
O106 C104 1.263 . S
C107 O108 1.235 . S
C107 O134 1.289 . S
O108 C107 1.235 . S
C109 C111 1.400 . S
C109 N112 1.351 . S
C109 C114 1.501 . S
C110 C111 1.387 . S
C110 N113 1.341 . S
C111 C109 1.400 . S
C111 C110 1.387 . S
N112 Co103 2.022 . S
N112 C109 1.351 . S
N112 N113 1.365 . S
N113 C110 1.341 . S
N113 N112 1.365 . S
N113 H133 0.862 1_554 S
C114 C109 1.501 . S
C114 H115 0.961 . S
C114 H116 0.961 . S
C114 H117 0.960 . S
H115 C114 0.961 . S
H116 C114 0.961 . S
H117 C114 0.960 . S
C118 N119 1.342 . S
C118 C122 1.401 . S
C118 C123 1.499 . S
N119 Co102 1.989 . S
N119 C118 1.342 . S
N119 N120 1.388 . S
N120 Co103 1.993 . S
N120 N119 1.388 . S
N120 C121 1.346 . S
C121 N120 1.346 . S
C121 C122 1.396 . S
C121 C131 1.510 . S
C122 C118 1.401 . S
C122 C121 1.396 . S
C123 C118 1.499 . S
C123 H124 0.959 . S
C123 H125 0.960 . S
C123 H126 0.961 . S
H124 C123 0.959 . S
H125 C123 0.960 . S
H126 C123 0.961 . S
O127 Co102 1.967 . S
O127 C135 1.258 . S
O128 Co103 1.941 . S
O128 C135 1.266 . S
H129 C131 0.959 1_556 S
H130 C131 0.961 . S
C131 C121 1.510 . S
C131 H129 0.959 1_554 S
C131 H130 0.961 . S
C131 H132 0.960 . S
H132 C131 0.960 . S
H133 N113 0.862 1_556 S
O134 Co102 1.920 . S
O134 C107 1.289 . S
C135 O127 1.258 . S
C135 O128 1.266 . S
Co136 O139 1.970 . S
Co136 N153 1.989 . S
Co136 O161 1.967 . S
Co136 O168 1.920 . S
Co137 O140 1.966 . S
Co137 N146 2.022 . S
Co137 N154 1.993 . S
Co137 O162 1.941 . S
C138 O139 1.258 . S
C138 O140 1.263 . S
O139 Co136 1.970 . S
O139 C138 1.258 . S
O140 Co137 1.966 . S
O140 C138 1.263 . S
C141 O142 1.235 . S
C141 O168 1.289 . S
O142 C141 1.235 . S
C143 C145 1.400 . S
C143 N146 1.351 . S
C143 C148 1.501 . S
C144 C145 1.387 . S
C144 N147 1.341 . S
C145 C143 1.400 . S
C145 C144 1.387 . S
N146 Co137 2.022 . S
N146 C143 1.351 . S
N146 N147 1.365 . S
N147 C144 1.341 . S
N147 N146 1.365 . S
N147 H167 0.862 . S
C148 C143 1.501 . S
C148 H149 0.961 . S
C148 H150 0.961 . S
C148 H151 0.960 . S
H149 C148 0.961 . S
H150 C148 0.961 . S
H151 C148 0.960 . S
C152 N153 1.342 . S
C152 C156 1.401 . S
C152 C157 1.499 . S
N153 Co136 1.989 . S
N153 C152 1.342 . S
N153 N154 1.388 . S
N154 Co137 1.993 . S
N154 N153 1.388 . S
N154 C155 1.346 . S
C155 N154 1.346 . S
C155 C156 1.396 . S
C155 C165 1.510 . S
C156 C152 1.401 . S
C156 C155 1.396 . S
C157 C152 1.499 . S
C157 H158 0.959 . S
C157 H159 0.960 . S
C157 H160 0.961 . S
H158 C157 0.959 . S
H159 C157 0.960 . S
H160 C157 0.961 . S
O161 Co136 1.967 . S
O161 C169 1.258 . S
O162 Co137 1.941 . S
O162 C169 1.266 . S
H163 C165 0.959 . S
H164 C165 0.961 . S
C165 C155 1.510 . S
C165 H163 0.959 . S
C165 H164 0.961 . S
C165 H166 0.960 . S
H166 C165 0.960 . S
H167 N147 0.862 . S
O168 Co136 1.920 . S
O168 C141 1.289 . S
C169 O161 1.258 . S
C169 O162 1.266 . S
Co170 O173 1.970 . S
Co170 N187 1.989 . S
Co170 O195 1.967 . S
Co170 O202 1.920 . S
Co171 O174 1.966 . S
Co171 N180 2.022 . S
Co171 N188 1.993 . S
Co171 O196 1.941 . S
C172 O173 1.258 . S
C172 O174 1.263 . S
O173 Co170 1.970 . S
O173 C172 1.258 . S
O174 Co171 1.966 . S
O174 C172 1.263 . S
C175 O176 1.235 . S
C175 O202 1.289 . S
O176 C175 1.235 . S
C177 C179 1.400 . S
C177 N180 1.351 . S
C177 C182 1.501 . S
C178 C179 1.387 . S
C178 N181 1.341 . S
C179 C177 1.400 . S
C179 C178 1.387 . S
N180 Co171 2.022 . S
N180 C177 1.351 . S
N180 N181 1.365 . S
N181 C178 1.341 . S
N181 N180 1.365 . S
N181 H201 0.862 . S
C182 C177 1.501 . S
C182 H183 0.961 . S
C182 H184 0.961 . S
C182 H185 0.960 . S
H183 C182 0.961 . S
H184 C182 0.961 . S
H185 C182 0.960 . S
C186 N187 1.342 . S
C186 C190 1.401 . S
C186 C191 1.499 . S
N187 Co170 1.989 . S
N187 C186 1.342 . S
N187 N188 1.388 . S
N188 Co171 1.993 . S
N188 N187 1.388 . S
N188 C189 1.346 . S
C189 N188 1.346 . S
C189 C190 1.396 . S
C189 C199 1.510 . S
C190 C186 1.401 . S
C190 C189 1.396 . S
C191 C186 1.499 . S
C191 H192 0.959 . S
C191 H193 0.960 . S
C191 H194 0.961 . S
H192 C191 0.959 . S
H193 C191 0.960 . S
H194 C191 0.961 . S
O195 Co170 1.967 . S
O195 C203 1.258 . S
O196 Co171 1.941 . S
O196 C203 1.266 . S
H197 C199 0.959 . S
H198 C199 0.961 . S
C199 C189 1.510 . S
C199 H197 0.959 . S
C199 H198 0.961 . S
C199 H200 0.960 . S
H200 C199 0.960 . S
H201 N181 0.862 . S
O202 Co170 1.920 . S
O202 C175 1.289 . S
C203 O195 1.258 . S
C203 O196 1.266 . S
Co204 O207 1.970 . S
Co204 N221 1.989 . S
Co204 O229 1.967 . S
Co204 O236 1.920 . S
Co205 O208 1.966 . S
Co205 N214 2.022 . S
Co205 N222 1.993 . S
Co205 O230 1.941 . S
C206 O207 1.258 . S
C206 O208 1.263 . S
O207 Co204 1.970 . S
O207 C206 1.258 . S
O208 Co205 1.966 . S
O208 C206 1.263 . S
C209 O210 1.235 . S
C209 O236 1.289 . S
O210 C209 1.235 . S
C211 C213 1.400 . S
C211 N214 1.351 . S
C211 C216 1.501 . S
C212 C213 1.387 . S
C212 N215 1.341 . S
C213 C211 1.400 . S
C213 C212 1.387 . S
N214 Co205 2.022 . S
N214 C211 1.351 . S
N214 N215 1.365 . S
N215 C212 1.341 . S
N215 N214 1.365 . S
N215 H235 0.862 . S
C216 C211 1.501 . S
C216 H217 0.961 . S
C216 H218 0.961 . S
C216 H219 0.960 . S
H217 C216 0.961 . S
H218 C216 0.961 . S
H219 C216 0.960 . S
C220 N221 1.342 . S
C220 C224 1.401 . S
C220 C225 1.499 . S
N221 Co204 1.989 . S
N221 C220 1.342 . S
N221 N222 1.388 . S
N222 Co205 1.993 . S
N222 N221 1.388 . S
N222 C223 1.346 . S
C223 N222 1.346 . S
C223 C224 1.396 . S
C223 C233 1.510 . S
C224 C220 1.401 . S
C224 C223 1.396 . S
C225 C220 1.499 . S
C225 H226 0.959 . S
C225 H227 0.960 . S
C225 H228 0.961 . S
H226 C225 0.959 . S
H227 C225 0.960 . S
H228 C225 0.961 . S
O229 Co204 1.967 . S
O229 C237 1.258 . S
O230 Co205 1.941 . S
O230 C237 1.266 . S
H231 C233 0.959 . S
H232 C233 0.961 . S
C233 C223 1.510 . S
C233 H231 0.959 . S
C233 H232 0.961 . S
C233 H234 0.960 . S
H234 C233 0.960 . S
H235 N215 0.862 . S
O236 Co204 1.920 . S
O236 C209 1.289 . S
C237 O229 1.258 . S
C237 O230 1.266 . S
Co238 O241 1.970 . S
Co238 N255 1.989 . S
Co238 O263 1.967 . S
Co238 O270 1.920 . S
Co239 O242 1.966 . S
Co239 N248 2.022 . S
Co239 N256 1.993 . S
Co239 O264 1.941 . S
C240 O241 1.258 . S
C240 O242 1.263 . S
O241 Co238 1.970 . S
O241 C240 1.258 . S
O242 Co239 1.966 . S
O242 C240 1.263 . S
C243 O244 1.235 . S
C243 O270 1.289 . S
O244 C243 1.235 . S
C245 C247 1.400 . S
C245 N248 1.351 . S
C245 C250 1.501 . S
C246 C247 1.387 . S
C246 N249 1.341 . S
C247 C245 1.400 . S
C247 C246 1.387 . S
N248 Co239 2.022 . S
N248 C245 1.351 . S
N248 N249 1.365 . S
N249 C246 1.341 . S
N249 N248 1.365 . S
N249 H269 0.862 1_556 S
C250 C245 1.501 . S
C250 H251 0.961 . S
C250 H252 0.961 . S
C250 H253 0.960 . S
H251 C250 0.961 . S
H252 C250 0.961 . S
H253 C250 0.960 . S
C254 N255 1.342 . S
C254 C258 1.401 . S
C254 C259 1.499 . S
N255 Co238 1.989 . S
N255 C254 1.342 . S
N255 N256 1.388 . S
N256 Co239 1.993 . S
N256 N255 1.388 . S
N256 C257 1.346 . S
C257 N256 1.346 . S
C257 C258 1.396 . S
C257 C267 1.510 . S
C258 C254 1.401 . S
C258 C257 1.396 . S
C259 C254 1.499 . S
C259 H260 0.959 . S
C259 H261 0.960 1_455 S
C259 H262 0.961 . S
H260 C259 0.959 . S
H261 C259 0.960 1_655 S
H262 C259 0.961 . S
O263 Co238 1.967 . S
O263 C271 1.258 . S
O264 Co239 1.941 . S
O264 C271 1.266 . S
H265 C267 0.959 1_554 S
H266 C267 0.961 . S
C267 C257 1.510 . S
C267 H265 0.959 1_556 S
C267 H266 0.961 . S
C267 H268 0.960 . S
H268 C267 0.960 . S
H269 N249 0.862 1_554 S
O270 Co238 1.920 . S
O270 C243 1.289 . S
C271 O263 1.258 . S
C271 O264 1.266 . S
Co272 O275 1.970 . S
Co272 N289 1.989 . S
Co272 O297 1.967 . S
Co272 O304 1.920 . S
Co273 O276 1.966 . S
Co273 N282 2.022 . S
Co273 N290 1.993 . S
Co273 O298 1.941 . S
C274 O275 1.258 . S
C274 O276 1.263 . S
O275 Co272 1.970 . S
O275 C274 1.258 . S
O276 Co273 1.966 . S
O276 C274 1.263 . S
C277 O278 1.235 . S
C277 O304 1.289 . S
O278 C277 1.235 . S
C279 C281 1.400 . S
C279 N282 1.351 . S
C279 C284 1.501 . S
C280 C281 1.387 . S
C280 N283 1.341 . S
C281 C279 1.400 . S
C281 C280 1.387 . S
N282 Co273 2.022 . S
N282 C279 1.351 . S
N282 N283 1.365 . S
N283 C280 1.341 . S
N283 N282 1.365 . S
N283 H303 0.862 . S
C284 C279 1.501 . S
C284 H285 0.961 . S
C284 H286 0.961 . S
C284 H287 0.960 . S
H285 C284 0.961 . S
H286 C284 0.961 . S
H287 C284 0.960 . S
C288 N289 1.342 . S
C288 C292 1.401 . S
C288 C293 1.499 . S
N289 Co272 1.989 . S
N289 C288 1.342 . S
N289 N290 1.388 . S
N290 Co273 1.993 . S
N290 N289 1.388 . S
N290 C291 1.346 . S
C291 N290 1.346 . S
C291 C292 1.396 . S
C291 C301 1.510 . S
C292 C288 1.401 . S
C292 C291 1.396 . S
C293 C288 1.499 . S
C293 H294 0.959 . S
C293 H295 0.960 . S
C293 H296 0.961 . S
H294 C293 0.959 . S
H295 C293 0.960 . S
H296 C293 0.961 . S
O297 Co272 1.967 . S
O297 C305 1.258 . S
O298 Co273 1.941 . S
O298 C305 1.266 . S
H299 C301 0.959 . S
H300 C301 0.961 . S
C301 C291 1.510 . S
C301 H299 0.959 . S
C301 H300 0.961 . S
C301 H302 0.960 . S
H302 C301 0.960 . S
H303 N283 0.862 . S
O304 Co272 1.920 . S
O304 C277 1.289 . S
C305 O297 1.258 . S
C305 O298 1.266 . S
Co306 O309 1.970 . S
Co306 N323 1.989 . S
Co306 O331 1.967 . S
Co306 O338 1.920 . S
Co307 O310 1.966 . S
Co307 N316 2.022 . S
Co307 N324 1.993 . S
Co307 O332 1.941 . S
C308 O309 1.258 . S
C308 O310 1.263 . S
O309 Co306 1.970 . S
O309 C308 1.258 . S
O310 Co307 1.966 . S
O310 C308 1.263 . S
C311 O312 1.235 . S
C311 O338 1.289 . S
O312 C311 1.235 . S
C313 C315 1.400 . S
C313 N316 1.351 . S
C313 C318 1.501 . S
C314 C315 1.387 . S
C314 N317 1.341 . S
C315 C313 1.400 . S
C315 C314 1.387 . S
N316 Co307 2.022 . S
N316 C313 1.351 . S
N316 N317 1.365 . S
N317 C314 1.341 . S
N317 N316 1.365 . S
N317 H337 0.862 1_545 S
C318 C313 1.501 . S
C318 H319 0.961 . S
C318 H320 0.961 . S
C318 H321 0.960 . S
H319 C318 0.961 . S
H320 C318 0.961 . S
H321 C318 0.960 . S
C322 N323 1.342 . S
C322 C326 1.401 . S
C322 C327 1.499 . S
N323 Co306 1.989 . S
N323 C322 1.342 . S
N323 N324 1.388 . S
N324 Co307 1.993 . S
N324 N323 1.388 . S
N324 C325 1.346 . S
C325 N324 1.346 . S
C325 C326 1.396 . S
C325 C335 1.510 . S
C326 C322 1.401 . S
C326 C325 1.396 . S
C327 C322 1.499 . S
C327 H328 0.959 . S
C327 H329 0.960 . S
C327 H330 0.961 . S
H328 C327 0.959 . S
H329 C327 0.960 . S
H330 C327 0.961 . S
O331 Co306 1.967 . S
O331 C339 1.258 . S
O332 Co307 1.941 . S
O332 C339 1.266 . S
H333 C335 0.959 1_565 S
H334 C335 0.961 . S
C335 C325 1.510 . S
C335 H333 0.959 1_545 S
C335 H334 0.961 . S
C335 H336 0.960 . S
H336 C335 0.960 . S
H337 N317 0.862 1_565 S
O338 Co306 1.920 . S
O338 C311 1.289 . S
C339 O331 1.258 . S
C339 O332 1.266 . S
Co340 O343 1.970 . S
Co340 N357 1.989 . S
Co340 O365 1.967 . S
Co340 O372 1.920 . S
Co341 O344 1.966 . S
Co341 N350 2.022 . S
Co341 N358 1.993 . S
Co341 O366 1.941 . S
C342 O343 1.258 . S
C342 O344 1.263 . S
O343 Co340 1.970 . S
O343 C342 1.258 . S
O344 Co341 1.966 . S
O344 C342 1.263 . S
C345 O346 1.235 . S
C345 O372 1.289 . S
O346 C345 1.235 . S
C347 C349 1.400 . S
C347 N350 1.351 . S
C347 C352 1.501 . S
C348 C349 1.387 . S
C348 N351 1.341 . S
C349 C347 1.400 . S
C349 C348 1.387 . S
N350 Co341 2.022 . S
N350 C347 1.351 . S
N350 N351 1.365 . S
N351 C348 1.341 . S
N351 N350 1.365 . S
N351 H371 0.862 . S
C352 C347 1.501 . S
C352 H353 0.961 . S
C352 H354 0.961 . S
C352 H355 0.960 . S
H353 C352 0.961 . S
H354 C352 0.961 . S
H355 C352 0.960 . S
C356 N357 1.342 . S
C356 C360 1.401 . S
C356 C361 1.499 . S
N357 Co340 1.989 . S
N357 C356 1.342 . S
N357 N358 1.388 . S
N358 Co341 1.993 . S
N358 N357 1.388 . S
N358 C359 1.346 . S
C359 N358 1.346 . S
C359 C360 1.396 . S
C359 C369 1.510 . S
C360 C356 1.401 . S
C360 C359 1.396 . S
C361 C356 1.499 . S
C361 H362 0.959 . S
C361 H363 0.960 . S
C361 H364 0.961 . S
H362 C361 0.959 . S
H363 C361 0.960 . S
H364 C361 0.961 . S
O365 Co340 1.967 . S
O365 C373 1.258 . S
O366 Co341 1.941 . S
O366 C373 1.266 . S
H367 C369 0.959 . S
H368 C369 0.961 . S
C369 C359 1.510 . S
C369 H367 0.959 . S
C369 H368 0.961 . S
C369 H370 0.960 . S
H370 C369 0.960 . S
H371 N351 0.862 . S
O372 Co340 1.920 . S
O372 C345 1.289 . S
C373 O365 1.258 . S
C373 O366 1.266 . S
Co374 O377 1.970 . S
Co374 N391 1.989 . S
Co374 O399 1.967 . S
Co374 O406 1.920 . S
Co375 O378 1.966 . S
Co375 N384 2.022 . S
Co375 N392 1.993 . S
Co375 O400 1.941 . S
C376 O377 1.258 . S
C376 O378 1.263 . S
O377 Co374 1.970 . S
O377 C376 1.258 . S
O378 Co375 1.966 . S
O378 C376 1.263 . S
C379 O380 1.235 . S
C379 O406 1.289 . S
O380 C379 1.235 . S
C381 C383 1.400 . S
C381 N384 1.351 . S
C381 C386 1.501 . S
C382 C383 1.387 . S
C382 N385 1.341 . S
C383 C381 1.400 . S
C383 C382 1.387 . S
N384 Co375 2.022 . S
N384 C381 1.351 . S
N384 N385 1.365 . S
N385 C382 1.341 . S
N385 N384 1.365 . S
N385 H405 0.862 1_565 S
C386 C381 1.501 . S
C386 H387 0.961 . S
C386 H388 0.961 . S
C386 H389 0.960 . S
H387 C386 0.961 . S
H388 C386 0.961 . S
H389 C386 0.960 . S
C390 N391 1.342 . S
C390 C394 1.401 . S
C390 C395 1.499 . S
N391 Co374 1.989 . S
N391 C390 1.342 . S
N391 N392 1.388 . S
N392 Co375 1.993 . S
N392 N391 1.388 . S
N392 C393 1.346 . S
C393 N392 1.346 . S
C393 C394 1.396 . S
C393 C403 1.510 . S
C394 C390 1.401 . S
C394 C393 1.396 . S
C395 C390 1.499 . S
C395 H396 0.959 . S
C395 H397 0.960 1_556 S
C395 H398 0.961 . S
H396 C395 0.959 . S
H397 C395 0.960 1_554 S
H398 C395 0.961 . S
O399 Co374 1.967 . S
O399 C407 1.258 . S
O400 Co375 1.941 . S
O400 C407 1.266 . S
H401 C403 0.959 1_545 S
H402 C403 0.961 . S
C403 C393 1.510 . S
C403 H401 0.959 1_565 S
C403 H402 0.961 . S
C403 H404 0.960 . S
H404 C403 0.960 . S
H405 N385 0.862 1_545 S
O406 Co374 1.920 . S
O406 C379 1.289 . S
C407 O399 1.258 . S
C407 O400 1.266 . S
Co408 O411 1.970 . S
Co408 N425 1.989 . S
Co408 O433 1.967 . S
Co408 O440 1.920 . S
Co409 O412 1.966 . S
Co409 N418 2.022 . S
Co409 N426 1.993 . S
Co409 O434 1.941 . S
C410 O411 1.258 . S
C410 O412 1.263 . S
O411 Co408 1.970 . S
O411 C410 1.258 . S
O412 Co409 1.966 . S
O412 C410 1.263 . S
C413 O414 1.235 . S
C413 O440 1.289 . S
O414 C413 1.235 . S
C415 C417 1.400 . S
C415 N418 1.351 . S
C415 C420 1.501 . S
C416 C417 1.387 . S
C416 N419 1.341 . S
C417 C415 1.400 . S
C417 C416 1.387 . S
N418 Co409 2.022 . S
N418 C415 1.351 . S
N418 N419 1.365 . S
N419 C416 1.341 . S
N419 N418 1.365 . S
N419 H439 0.862 . S
C420 C415 1.501 . S
C420 H421 0.961 . S
C420 H422 0.961 . S
C420 H423 0.960 . S
H421 C420 0.961 . S
H422 C420 0.961 . S
H423 C420 0.960 . S
C424 N425 1.342 . S
C424 C428 1.401 . S
C424 C429 1.499 . S
N425 Co408 1.989 . S
N425 C424 1.342 . S
N425 N426 1.388 . S
N426 Co409 1.993 . S
N426 N425 1.388 . S
N426 C427 1.346 . S
C427 N426 1.346 . S
C427 C428 1.396 . S
C427 C437 1.510 . S
C428 C424 1.401 . S
C428 C427 1.396 . S
C429 C424 1.499 . S
C429 H430 0.959 . S
C429 H431 0.960 . S
C429 H432 0.961 . S
H430 C429 0.959 . S
H431 C429 0.960 . S
H432 C429 0.961 . S
O433 Co408 1.967 . S
O433 C441 1.258 . S
O434 Co409 1.941 . S
O434 C441 1.266 . S
H435 C437 0.959 . S
H436 C437 0.961 . S
C437 C427 1.510 . S
C437 H435 0.959 . S
C437 H436 0.961 . S
C437 H438 0.960 . S
H438 C437 0.960 . S
H439 N419 0.862 . S
O440 Co408 1.920 . S
O440 C413 1.289 . S
C441 O433 1.258 . S
C441 O434 1.266 . S
Co442 O445 1.970 . S
Co442 N459 1.989 . S
Co442 O467 1.967 . S
Co442 O474 1.920 . S
Co443 O446 1.966 . S
Co443 N452 2.022 . S
Co443 N460 1.993 . S
Co443 O468 1.941 . S
C444 O445 1.258 . S
C444 O446 1.263 . S
O445 Co442 1.970 . S
O445 C444 1.258 . S
O446 Co443 1.966 . S
O446 C444 1.263 . S
C447 O448 1.235 . S
C447 O474 1.289 . S
O448 C447 1.235 . S
C449 C451 1.400 . S
C449 N452 1.351 . S
C449 C454 1.501 . S
C450 C451 1.387 . S
C450 N453 1.341 . S
C451 C449 1.400 . S
C451 C450 1.387 . S
N452 Co443 2.022 . S
N452 C449 1.351 . S
N452 N453 1.365 . S
N453 C450 1.341 . S
N453 N452 1.365 . S
N453 H473 0.862 1_545 S
C454 C449 1.501 . S
C454 H455 0.961 . S
C454 H456 0.961 . S
C454 H457 0.960 . S
H455 C454 0.961 . S
H456 C454 0.961 . S
H457 C454 0.960 . S
C458 N459 1.342 . S
C458 C462 1.401 . S
C458 C463 1.499 . S
N459 Co442 1.989 . S
N459 C458 1.342 . S
N459 N460 1.388 . S
N460 Co443 1.993 . S
N460 N459 1.388 . S
N460 C461 1.346 . S
C461 N460 1.346 . S
C461 C462 1.396 . S
C461 C471 1.510 . S
C462 C458 1.401 . S
C462 C461 1.396 . S
C463 C458 1.499 . S
C463 H464 0.959 . S
C463 H465 0.960 . S
C463 H466 0.961 . S
H464 C463 0.959 . S
H465 C463 0.960 . S
H466 C463 0.961 . S
O467 Co442 1.967 . S
O467 C475 1.258 . S
O468 Co443 1.941 . S
O468 C475 1.266 . S
H469 C471 0.959 1_565 S
H470 C471 0.961 . S
C471 C461 1.510 . S
C471 H469 0.959 1_545 S
C471 H470 0.961 . S
C471 H472 0.960 . S
H472 C471 0.960 . S
H473 N453 0.862 1_565 S
O474 Co442 1.920 . S
O474 C447 1.289 . S
C475 O467 1.258 . S
C475 O468 1.266 . S
Co476 O479 1.970 . S
Co476 N493 1.989 . S
Co476 O501 1.967 . S
Co476 O508 1.920 . S
Co477 O480 1.966 . S
Co477 N486 2.022 . S
Co477 N494 1.993 . S
Co477 O502 1.941 . S
C478 O479 1.258 . S
C478 O480 1.263 . S
O479 Co476 1.970 . S
O479 C478 1.258 . S
O480 Co477 1.966 . S
O480 C478 1.263 . S
C481 O482 1.235 . S
C481 O508 1.289 . S
O482 C481 1.235 . S
C483 C485 1.400 . S
C483 N486 1.351 . S
C483 C488 1.501 . S
C484 C485 1.387 . S
C484 N487 1.341 . S
C485 C483 1.400 . S
C485 C484 1.387 . S
N486 Co477 2.022 . S
N486 C483 1.351 . S
N486 N487 1.365 . S
N487 C484 1.341 . S
N487 N486 1.365 . S
N487 H507 0.862 . S
C488 C483 1.501 . S
C488 H489 0.961 . S
C488 H490 0.961 . S
C488 H491 0.960 . S
H489 C488 0.961 . S
H490 C488 0.961 . S
H491 C488 0.960 . S
C492 N493 1.342 . S
C492 C496 1.401 . S
C492 C497 1.499 . S
N493 Co476 1.989 . S
N493 C492 1.342 . S
N493 N494 1.388 . S
N494 Co477 1.993 . S
N494 N493 1.388 . S
N494 C495 1.346 . S
C495 N494 1.346 . S
C495 C496 1.396 . S
C495 C505 1.510 . S
C496 C492 1.401 . S
C496 C495 1.396 . S
C497 C492 1.499 . S
C497 H498 0.959 . S
C497 H499 0.960 . S
C497 H500 0.961 . S
H498 C497 0.959 . S
H499 C497 0.960 . S
H500 C497 0.961 . S
O501 Co476 1.967 . S
O501 C509 1.258 . S
O502 Co477 1.941 . S
O502 C509 1.266 . S
H503 C505 0.959 . S
H504 C505 0.961 . S
C505 C495 1.510 . S
C505 H503 0.959 . S
C505 H504 0.961 . S
C505 H506 0.960 . S
H506 C505 0.960 . S
H507 N487 0.862 . S
O508 Co476 1.920 . S
O508 C481 1.289 . S
C509 O501 1.258 . S
C509 O502 1.266 . S
Co510 O513 1.970 . S
Co510 N527 1.989 . S
Co510 O535 1.967 . S
Co510 O542 1.920 . S
Co511 O514 1.966 . S
Co511 N520 2.022 . S
Co511 N528 1.993 . S
Co511 O536 1.941 . S
C512 O513 1.258 . S
C512 O514 1.263 . S
O513 Co510 1.970 . S
O513 C512 1.258 . S
O514 Co511 1.966 . S
O514 C512 1.263 . S
C515 O516 1.235 . S
C515 O542 1.289 . S
O516 C515 1.235 . S
C517 C519 1.400 . S
C517 N520 1.351 . S
C517 C522 1.501 . S
C518 C519 1.387 . S
C518 N521 1.341 . S
C519 C517 1.400 . S
C519 C518 1.387 . S
N520 Co511 2.022 . S
N520 C517 1.351 . S
N520 N521 1.365 . S
N521 C518 1.341 . S
N521 N520 1.365 . S
N521 H541 0.862 1_565 S
C522 C517 1.501 . S
C522 H523 0.961 . S
C522 H524 0.961 . S
C522 H525 0.960 . S
H523 C522 0.961 . S
H524 C522 0.961 . S
H525 C522 0.960 . S
C526 N527 1.342 . S
C526 C530 1.401 . S
C526 C531 1.499 . S
N527 Co510 1.989 . S
N527 C526 1.342 . S
N527 N528 1.388 . S
N528 Co511 1.993 . S
N528 N527 1.388 . S
N528 C529 1.346 . S
C529 N528 1.346 . S
C529 C530 1.396 . S
C529 C539 1.510 . S
C530 C526 1.401 . S
C530 C529 1.396 . S
C531 C526 1.499 . S
C531 H532 0.959 . S
C531 H533 0.960 1_554 S
C531 H534 0.961 . S
H532 C531 0.959 . S
H533 C531 0.960 1_556 S
H534 C531 0.961 . S
O535 Co510 1.967 . S
O535 C543 1.258 . S
O536 Co511 1.941 . S
O536 C543 1.266 . S
H537 C539 0.959 1_545 S
H538 C539 0.961 . S
C539 C529 1.510 . S
C539 H537 0.959 1_565 S
C539 H538 0.961 . S
C539 H540 0.960 . S
H540 C539 0.960 . S
H541 N521 0.862 1_545 S
O542 Co510 1.920 . S
O542 C515 1.289 . S
C543 O535 1.258 . S
C543 O536 1.266 . S
Co544 O547 1.970 . S
Co544 N561 1.989 . S
Co544 O569 1.967 . S
Co544 O576 1.920 . S
Co545 O548 1.966 . S
Co545 N554 2.022 . S
Co545 N562 1.993 . S
Co545 O570 1.941 . S
C546 O547 1.258 . S
C546 O548 1.263 . S
O547 Co544 1.970 . S
O547 C546 1.258 . S
O548 Co545 1.966 . S
O548 C546 1.263 . S
C549 O550 1.235 . S
C549 O576 1.289 . S
O550 C549 1.235 . S
C551 C553 1.400 . S
C551 N554 1.351 . S
C551 C556 1.501 . S
C552 C553 1.387 . S
C552 N555 1.341 . S
C553 C551 1.400 . S
C553 C552 1.387 . S
N554 Co545 2.022 . S
N554 C551 1.351 . S
N554 N555 1.365 . S
N555 C552 1.341 . S
N555 N554 1.365 . S
N555 H575 0.862 . S
C556 C551 1.501 . S
C556 H557 0.961 . S
C556 H558 0.961 . S
C556 H559 0.960 . S
H557 C556 0.961 . S
H558 C556 0.961 . S
H559 C556 0.960 . S
C560 N561 1.342 . S
C560 C564 1.401 . S
C560 C565 1.499 . S
N561 Co544 1.989 . S
N561 C560 1.342 . S
N561 N562 1.388 . S
N562 Co545 1.993 . S
N562 N561 1.388 . S
N562 C563 1.346 . S
C563 N562 1.346 . S
C563 C564 1.396 . S
C563 C573 1.510 . S
C564 C560 1.401 . S
C564 C563 1.396 . S
C565 C560 1.499 . S
C565 H566 0.959 . S
C565 H567 0.960 . S
C565 H568 0.961 . S
H566 C565 0.959 . S
H567 C565 0.960 . S
H568 C565 0.961 . S
O569 Co544 1.967 . S
O569 C577 1.258 . S
O570 Co545 1.941 . S
O570 C577 1.266 . S
H571 C573 0.959 . S
H572 C573 0.961 . S
C573 C563 1.510 . S
C573 H571 0.959 . S
C573 H572 0.961 . S
C573 H574 0.960 . S
H574 C573 0.960 . S
H575 N555 0.862 . S
O576 Co544 1.920 . S
O576 C549 1.289 . S
C577 O569 1.258 . S
C577 O570 1.266 . S
Co578 O581 1.970 . S
Co578 N595 1.989 . S
Co578 O603 1.967 . S
Co578 O610 1.920 . S
Co579 O582 1.966 . S
Co579 N588 2.022 . S
Co579 N596 1.993 . S
Co579 O604 1.941 . S
C580 O581 1.258 . S
C580 O582 1.263 . S
O581 Co578 1.970 . S
O581 C580 1.258 . S
O582 Co579 1.966 . S
O582 C580 1.263 . S
C583 O584 1.235 . S
C583 O610 1.289 . S
O584 C583 1.235 . S
C585 C587 1.400 . S
C585 N588 1.351 . S
C585 C590 1.501 . S
C586 C587 1.387 . S
C586 N589 1.341 . S
C587 C585 1.400 . S
C587 C586 1.387 . S
N588 Co579 2.022 . S
N588 C585 1.351 . S
N588 N589 1.365 . S
N589 C586 1.341 . S
N589 N588 1.365 . S
N589 H609 0.862 . S
C590 C585 1.501 . S
C590 H591 0.961 . S
C590 H592 0.961 . S
C590 H593 0.960 . S
H591 C590 0.961 . S
H592 C590 0.961 . S
H593 C590 0.960 . S
C594 N595 1.342 . S
C594 C598 1.401 . S
C594 C599 1.499 . S
N595 Co578 1.989 . S
N595 C594 1.342 . S
N595 N596 1.388 . S
N596 Co579 1.993 . S
N596 N595 1.388 . S
N596 C597 1.346 . S
C597 N596 1.346 . S
C597 C598 1.396 . S
C597 C607 1.510 . S
C598 C594 1.401 . S
C598 C597 1.396 . S
C599 C594 1.499 . S
C599 H600 0.959 . S
C599 H601 0.960 . S
C599 H602 0.961 . S
H600 C599 0.959 . S
H601 C599 0.960 . S
H602 C599 0.961 . S
O603 Co578 1.967 . S
O603 C611 1.258 . S
O604 Co579 1.941 . S
O604 C611 1.266 . S
H605 C607 0.959 . S
H606 C607 0.961 . S
C607 C597 1.510 . S
C607 H605 0.959 . S
C607 H606 0.961 . S
C607 H608 0.960 . S
H608 C607 0.960 . S
H609 N589 0.862 . S
O610 Co578 1.920 . S
O610 C583 1.289 . S
C611 O603 1.258 . S
C611 O604 1.266 . S
Co612 O615 1.970 . S
Co612 N629 1.989 . S
Co612 O637 1.967 . S
Co612 O644 1.920 . S
Co613 O616 1.966 . S
Co613 N622 2.022 . S
Co613 N630 1.993 . S
Co613 O638 1.941 . S
C614 O615 1.258 . S
C614 O616 1.263 . S
O615 Co612 1.970 . S
O615 C614 1.258 . S
O616 Co613 1.966 . S
O616 C614 1.263 . S
C617 O618 1.235 . S
C617 O644 1.289 . S
O618 C617 1.235 . S
C619 C621 1.400 . S
C619 N622 1.351 . S
C619 C624 1.501 . S
C620 C621 1.387 . S
C620 N623 1.341 . S
C621 C619 1.400 . S
C621 C620 1.387 . S
N622 Co613 2.022 . S
N622 C619 1.351 . S
N622 N623 1.365 . S
N623 C620 1.341 . S
N623 N622 1.365 . S
N623 H643 0.862 1_455 S
C624 C619 1.501 . S
C624 H625 0.961 . S
C624 H626 0.961 . S
C624 H627 0.960 . S
H625 C624 0.961 . S
H626 C624 0.961 . S
H627 C624 0.960 . S
C628 N629 1.342 . S
C628 C632 1.401 . S
C628 C633 1.499 . S
N629 Co612 1.989 . S
N629 C628 1.342 . S
N629 N630 1.388 . S
N630 Co613 1.993 . S
N630 N629 1.388 . S
N630 C631 1.346 . S
C631 N630 1.346 . S
C631 C632 1.396 . S
C631 C641 1.510 . S
C632 C628 1.401 . S
C632 C631 1.396 . S
C633 C628 1.499 . S
C633 H634 0.959 . S
C633 H635 0.960 . S
C633 H636 0.961 . S
H634 C633 0.959 . S
H635 C633 0.960 . S
H636 C633 0.961 . S
O637 Co612 1.967 . S
O637 C645 1.258 . S
O638 Co613 1.941 . S
O638 C645 1.266 . S
H639 C641 0.959 1_655 S
H640 C641 0.961 . S
C641 C631 1.510 . S
C641 H639 0.959 1_455 S
C641 H640 0.961 . S
C641 H642 0.960 . S
H642 C641 0.960 . S
H643 N623 0.862 1_655 S
O644 Co612 1.920 . S
O644 C617 1.289 . S
C645 O637 1.258 . S
C645 O638 1.266 . S
Co646 O649 1.970 . S
Co646 N663 1.989 . S
Co646 O671 1.967 . S
Co646 O678 1.920 . S
Co647 O650 1.966 . S
Co647 N656 2.022 . S
Co647 N664 1.993 . S
Co647 O672 1.941 . S
C648 O649 1.258 . S
C648 O650 1.263 . S
O649 Co646 1.970 . S
O649 C648 1.258 . S
O650 Co647 1.966 . S
O650 C648 1.263 . S
C651 O652 1.235 . S
C651 O678 1.289 . S
O652 C651 1.235 . S
C653 C655 1.400 . S
C653 N656 1.351 . S
C653 C658 1.501 . S
C654 C655 1.387 . S
C654 N657 1.341 . S
C655 C653 1.400 . S
C655 C654 1.387 . S
N656 Co647 2.022 . S
N656 C653 1.351 . S
N656 N657 1.365 . S
N657 C654 1.341 . S
N657 N656 1.365 . S
N657 H677 0.862 . S
C658 C653 1.501 . S
C658 H659 0.961 . S
C658 H660 0.961 . S
C658 H661 0.960 . S
H659 C658 0.961 . S
H660 C658 0.961 . S
H661 C658 0.960 . S
C662 N663 1.342 . S
C662 C666 1.401 . S
C662 C667 1.499 . S
N663 Co646 1.989 . S
N663 C662 1.342 . S
N663 N664 1.388 . S
N664 Co647 1.993 . S
N664 N663 1.388 . S
N664 C665 1.346 . S
C665 N664 1.346 . S
C665 C666 1.396 . S
C665 C675 1.510 . S
C666 C662 1.401 . S
C666 C665 1.396 . S
C667 C662 1.499 . S
C667 H668 0.959 . S
C667 H669 0.960 . S
C667 H670 0.961 . S
H668 C667 0.959 . S
H669 C667 0.960 . S
H670 C667 0.961 . S
O671 Co646 1.967 . S
O671 C679 1.258 . S
O672 Co647 1.941 . S
O672 C679 1.266 . S
H673 C675 0.959 . S
H674 C675 0.961 . S
C675 C665 1.510 . S
C675 H673 0.959 . S
C675 H674 0.961 . S
C675 H676 0.960 . S
H676 C675 0.960 . S
H677 N657 0.862 . S
O678 Co646 1.920 . S
O678 C651 1.289 . S
C679 O671 1.258 . S
C679 O672 1.266 . S
Co680 O683 1.970 . S
Co680 N697 1.989 . S
Co680 O705 1.967 . S
Co680 O712 1.920 . S
Co681 O684 1.966 . S
Co681 N690 2.022 . S
Co681 N698 1.993 . S
Co681 O706 1.941 . S
C682 O683 1.258 . S
C682 O684 1.263 . S
O683 Co680 1.970 . S
O683 C682 1.258 . S
O684 Co681 1.966 . S
O684 C682 1.263 . S
C685 O686 1.235 . S
C685 O712 1.289 . S
O686 C685 1.235 . S
C687 C689 1.400 . S
C687 N690 1.351 . S
C687 C692 1.501 . S
C688 C689 1.387 . S
C688 N691 1.341 . S
C689 C687 1.400 . S
C689 C688 1.387 . S
N690 Co681 2.022 . S
N690 C687 1.351 . S
N690 N691 1.365 . S
N691 C688 1.341 . S
N691 N690 1.365 . S
N691 H711 0.862 1_655 S
C692 C687 1.501 . S
C692 H693 0.961 . S
C692 H694 0.961 . S
C692 H695 0.960 . S
H693 C692 0.961 . S
H694 C692 0.961 . S
H695 C692 0.960 . S
C696 N697 1.342 . S
C696 C700 1.401 . S
C696 C701 1.499 . S
N697 Co680 1.989 . S
N697 C696 1.342 . S
N697 N698 1.388 . S
N698 Co681 1.993 . S
N698 N697 1.388 . S
N698 C699 1.346 . S
C699 N698 1.346 . S
C699 C700 1.396 . S
C699 C709 1.510 . S
C700 C696 1.401 . S
C700 C699 1.396 . S
C701 C696 1.499 . S
C701 H702 0.959 . S
C701 H703 0.960 1_545 S
C701 H704 0.961 . S
H702 C701 0.959 . S
H703 C701 0.960 1_565 S
H704 C701 0.961 . S
O705 Co680 1.967 . S
O705 C713 1.258 . S
O706 Co681 1.941 . S
O706 C713 1.266 . S
H707 C709 0.959 1_455 S
H708 C709 0.961 . S
C709 C699 1.510 . S
C709 H707 0.959 1_655 S
C709 H708 0.961 . S
C709 H710 0.960 . S
H710 C709 0.960 . S
H711 N691 0.862 1_455 S
O712 Co680 1.920 . S
O712 C685 1.289 . S
C713 O705 1.258 . S
C713 O706 1.266 . S
Co714 O717 1.970 . S
Co714 N731 1.989 . S
Co714 O739 1.967 . S
Co714 O746 1.920 . S
Co715 O718 1.966 . S
Co715 N724 2.022 . S
Co715 N732 1.993 . S
Co715 O740 1.941 . S
C716 O717 1.258 . S
C716 O718 1.263 . S
O717 Co714 1.970 . S
O717 C716 1.258 . S
O718 Co715 1.966 . S
O718 C716 1.263 . S
C719 O720 1.235 . S
C719 O746 1.289 . S
O720 C719 1.235 . S
C721 C723 1.400 . S
C721 N724 1.351 . S
C721 C726 1.501 . S
C722 C723 1.387 . S
C722 N725 1.341 . S
C723 C721 1.400 . S
C723 C722 1.387 . S
N724 Co715 2.022 . S
N724 C721 1.351 . S
N724 N725 1.365 . S
N725 C722 1.341 . S
N725 N724 1.365 . S
N725 H745 0.862 . S
C726 C721 1.501 . S
C726 H727 0.961 . S
C726 H728 0.961 . S
C726 H729 0.960 . S
H727 C726 0.961 . S
H728 C726 0.961 . S
H729 C726 0.960 . S
C730 N731 1.342 . S
C730 C734 1.401 . S
C730 C735 1.499 . S
N731 Co714 1.989 . S
N731 C730 1.342 . S
N731 N732 1.388 . S
N732 Co715 1.993 . S
N732 N731 1.388 . S
N732 C733 1.346 . S
C733 N732 1.346 . S
C733 C734 1.396 . S
C733 C743 1.510 . S
C734 C730 1.401 . S
C734 C733 1.396 . S
C735 C730 1.499 . S
C735 H736 0.959 . S
C735 H737 0.960 . S
C735 H738 0.961 . S
H736 C735 0.959 . S
H737 C735 0.960 . S
H738 C735 0.961 . S
O739 Co714 1.967 . S
O739 C747 1.258 . S
O740 Co715 1.941 . S
O740 C747 1.266 . S
H741 C743 0.959 . S
H742 C743 0.961 . S
C743 C733 1.510 . S
C743 H741 0.959 . S
C743 H742 0.961 . S
C743 H744 0.960 . S
H744 C743 0.960 . S
H745 N725 0.862 . S
O746 Co714 1.920 . S
O746 C719 1.289 . S
C747 O739 1.258 . S
C747 O740 1.266 . S
Co748 O751 1.970 . S
Co748 N765 1.989 . S
Co748 O773 1.967 . S
Co748 O780 1.920 . S
Co749 O752 1.966 . S
Co749 N758 2.022 . S
Co749 N766 1.993 . S
Co749 O774 1.941 . S
C750 O751 1.258 . S
C750 O752 1.263 . S
O751 Co748 1.970 . S
O751 C750 1.258 . S
O752 Co749 1.966 . S
O752 C750 1.263 . S
C753 O754 1.235 . S
C753 O780 1.289 . S
O754 C753 1.235 . S
C755 C757 1.400 . S
C755 N758 1.351 . S
C755 C760 1.501 . S
C756 C757 1.387 . S
C756 N759 1.341 . S
C757 C755 1.400 . S
C757 C756 1.387 . S
N758 Co749 2.022 . S
N758 C755 1.351 . S
N758 N759 1.365 . S
N759 C756 1.341 . S
N759 N758 1.365 . S
N759 H779 0.862 1_455 S
C760 C755 1.501 . S
C760 H761 0.961 . S
C760 H762 0.961 . S
C760 H763 0.960 . S
H761 C760 0.961 . S
H762 C760 0.961 . S
H763 C760 0.960 . S
C764 N765 1.342 . S
C764 C768 1.401 . S
C764 C769 1.499 . S
N765 Co748 1.989 . S
N765 C764 1.342 . S
N765 N766 1.388 . S
N766 Co749 1.993 . S
N766 N765 1.388 . S
N766 C767 1.346 . S
C767 N766 1.346 . S
C767 C768 1.396 . S
C767 C777 1.510 . S
C768 C764 1.401 . S
C768 C767 1.396 . S
C769 C764 1.499 . S
C769 H770 0.959 . S
C769 H771 0.960 . S
C769 H772 0.961 . S
H770 C769 0.959 . S
H771 C769 0.960 . S
H772 C769 0.961 . S
O773 Co748 1.967 . S
O773 C781 1.258 . S
O774 Co749 1.941 . S
O774 C781 1.266 . S
H775 C777 0.959 1_655 S
H776 C777 0.961 . S
C777 C767 1.510 . S
C777 H775 0.959 1_455 S
C777 H776 0.961 . S
C777 H778 0.960 . S
H778 C777 0.960 . S
H779 N759 0.862 1_655 S
O780 Co748 1.920 . S
O780 C753 1.289 . S
C781 O773 1.258 . S
C781 O774 1.266 . S
Co782 O785 1.970 . S
Co782 N799 1.989 . S
Co782 O807 1.967 . S
Co782 O814 1.920 . S
Co783 O786 1.966 . S
Co783 N792 2.022 . S
Co783 N800 1.993 . S
Co783 O808 1.941 . S
C784 O785 1.258 . S
C784 O786 1.263 . S
O785 Co782 1.970 . S
O785 C784 1.258 . S
O786 Co783 1.966 . S
O786 C784 1.263 . S
C787 O788 1.235 . S
C787 O814 1.289 . S
O788 C787 1.235 . S
C789 C791 1.400 . S
C789 N792 1.351 . S
C789 C794 1.501 . S
C790 C791 1.387 . S
C790 N793 1.341 . S
C791 C789 1.400 . S
C791 C790 1.387 . S
N792 Co783 2.022 . S
N792 C789 1.351 . S
N792 N793 1.365 . S
N793 C790 1.341 . S
N793 N792 1.365 . S
N793 H813 0.862 . S
C794 C789 1.501 . S
C794 H795 0.961 . S
C794 H796 0.961 . S
C794 H797 0.960 . S
H795 C794 0.961 . S
H796 C794 0.961 . S
H797 C794 0.960 . S
C798 N799 1.342 . S
C798 C802 1.401 . S
C798 C803 1.499 . S
N799 Co782 1.989 . S
N799 C798 1.342 . S
N799 N800 1.388 . S
N800 Co783 1.993 . S
N800 N799 1.388 . S
N800 C801 1.346 . S
C801 N800 1.346 . S
C801 C802 1.396 . S
C801 C811 1.510 . S
C802 C798 1.401 . S
C802 C801 1.396 . S
C803 C798 1.499 . S
C803 H804 0.959 . S
C803 H805 0.960 . S
C803 H806 0.961 . S
H804 C803 0.959 . S
H805 C803 0.960 . S
H806 C803 0.961 . S
O807 Co782 1.967 . S
O807 C815 1.258 . S
O808 Co783 1.941 . S
O808 C815 1.266 . S
H809 C811 0.959 . S
H810 C811 0.961 . S
C811 C801 1.510 . S
C811 H809 0.959 . S
C811 H810 0.961 . S
C811 H812 0.960 . S
H812 C811 0.960 . S
H813 N793 0.862 . S
O814 Co782 1.920 . S
O814 C787 1.289 . S
C815 O807 1.258 . S
C815 O808 1.266 . S
Co816 O819 1.970 . S
Co816 N833 1.989 . S
Co816 O841 1.967 . S
Co816 O848 1.920 . S
Co817 O820 1.966 . S
Co817 N826 2.022 . S
Co817 N834 1.993 . S
Co817 O842 1.941 . S
C818 O819 1.258 . S
C818 O820 1.263 . S
O819 Co816 1.970 . S
O819 C818 1.258 . S
O820 Co817 1.966 . S
O820 C818 1.263 . S
C821 O822 1.235 . S
C821 O848 1.289 . S
O822 C821 1.235 . S
C823 C825 1.400 . S
C823 N826 1.351 . S
C823 C828 1.501 . S
C824 C825 1.387 . S
C824 N827 1.341 . S
C825 C823 1.400 . S
C825 C824 1.387 . S
N826 Co817 2.022 . S
N826 C823 1.351 . S
N826 N827 1.365 . S
N827 C824 1.341 . S
N827 N826 1.365 . S
N827 H847 0.862 . S
C828 C823 1.501 . S
C828 H829 0.961 . S
C828 H830 0.961 . S
C828 H831 0.960 . S
H829 C828 0.961 . S
H830 C828 0.961 . S
H831 C828 0.960 . S
C832 N833 1.342 . S
C832 C836 1.401 . S
C832 C837 1.499 . S
N833 Co816 1.989 . S
N833 C832 1.342 . S
N833 N834 1.388 . S
N834 Co817 1.993 . S
N834 N833 1.388 . S
N834 C835 1.346 . S
C835 N834 1.346 . S
C835 C836 1.396 . S
C835 C845 1.510 . S
C836 C832 1.401 . S
C836 C835 1.396 . S
C837 C832 1.499 . S
C837 H838 0.959 . S
C837 H839 0.960 . S
C837 H840 0.961 . S
H838 C837 0.959 . S
H839 C837 0.960 . S
H840 C837 0.961 . S
O841 Co816 1.967 . S
O841 C849 1.258 . S
O842 Co817 1.941 . S
O842 C849 1.266 . S
H843 C845 0.959 . S
H844 C845 0.961 . S
C845 C835 1.510 . S
C845 H843 0.959 . S
C845 H844 0.961 . S
C845 H846 0.960 . S
H846 C845 0.960 . S
H847 N827 0.862 . S
O848 Co816 1.920 . S
O848 C821 1.289 . S
C849 O841 1.258 . S
C849 O842 1.266 . S
Co850 O853 1.970 . S
Co850 N867 1.989 . S
Co850 O875 1.967 . S
Co850 O882 1.920 . S
Co851 O854 1.966 . S
Co851 N860 2.022 . S
Co851 N868 1.993 . S
Co851 O876 1.941 . S
C852 O853 1.258 . S
C852 O854 1.263 . S
O853 Co850 1.970 . S
O853 C852 1.258 . S
O854 Co851 1.966 . S
O854 C852 1.263 . S
C855 O856 1.235 . S
C855 O882 1.289 . S
O856 C855 1.235 . S
C857 C859 1.400 . S
C857 N860 1.351 . S
C857 C862 1.501 . S
C858 C859 1.387 . S
C858 N861 1.341 . S
C859 C857 1.400 . S
C859 C858 1.387 . S
N860 Co851 2.022 . S
N860 C857 1.351 . S
N860 N861 1.365 . S
N861 C858 1.341 . S
N861 N860 1.365 . S
N861 H881 0.862 1_554 S
C862 C857 1.501 . S
C862 H863 0.961 . S
C862 H864 0.961 . S
C862 H865 0.960 . S
H863 C862 0.961 . S
H864 C862 0.961 . S
H865 C862 0.960 . S
C866 N867 1.342 . S
C866 C870 1.401 . S
C866 C871 1.499 . S
N867 Co850 1.989 . S
N867 C866 1.342 . S
N867 N868 1.388 . S
N868 Co851 1.993 . S
N868 N867 1.388 . S
N868 C869 1.346 . S
C869 N868 1.346 . S
C869 C870 1.396 . S
C869 C879 1.510 . S
C870 C866 1.401 . S
C870 C869 1.396 . S
C871 C866 1.499 . S
C871 H872 0.959 . S
C871 H873 0.960 . S
C871 H874 0.961 . S
H872 C871 0.959 . S
H873 C871 0.960 . S
H874 C871 0.961 . S
O875 Co850 1.967 . S
O875 C883 1.258 . S
O876 Co851 1.941 . S
O876 C883 1.266 . S
H877 C879 0.959 1_556 S
H878 C879 0.961 . S
C879 C869 1.510 . S
C879 H877 0.959 1_554 S
C879 H878 0.961 . S
C879 H880 0.960 . S
H880 C879 0.960 . S
H881 N861 0.862 1_556 S
O882 Co850 1.920 . S
O882 C855 1.289 . S
C883 O875 1.258 . S
C883 O876 1.266 . S
Co884 O887 1.970 . S
Co884 N901 1.989 . S
Co884 O909 1.967 . S
Co884 O916 1.920 . S
Co885 O888 1.966 . S
Co885 N894 2.022 . S
Co885 N902 1.993 . S
Co885 O910 1.941 . S
C886 O887 1.258 . S
C886 O888 1.263 . S
O887 Co884 1.970 . S
O887 C886 1.258 . S
O888 Co885 1.966 . S
O888 C886 1.263 . S
C889 O890 1.235 . S
C889 O916 1.289 . S
O890 C889 1.235 . S
C891 C893 1.400 . S
C891 N894 1.351 . S
C891 C896 1.501 . S
C892 C893 1.387 . S
C892 N895 1.341 . S
C893 C891 1.400 . S
C893 C892 1.387 . S
N894 Co885 2.022 . S
N894 C891 1.351 . S
N894 N895 1.365 . S
N895 C892 1.341 . S
N895 N894 1.365 . S
N895 H915 0.862 . S
C896 C891 1.501 . S
C896 H897 0.961 . S
C896 H898 0.961 . S
C896 H899 0.960 . S
H897 C896 0.961 . S
H898 C896 0.961 . S
H899 C896 0.960 . S
C900 N901 1.342 . S
C900 C904 1.401 . S
C900 C905 1.499 . S
N901 Co884 1.989 . S
N901 C900 1.342 . S
N901 N902 1.388 . S
N902 Co885 1.993 . S
N902 N901 1.388 . S
N902 C903 1.346 . S
C903 N902 1.346 . S
C903 C904 1.396 . S
C903 C913 1.510 . S
C904 C900 1.401 . S
C904 C903 1.396 . S
C905 C900 1.499 . S
C905 H906 0.959 . S
C905 H907 0.960 . S
C905 H908 0.961 . S
H906 C905 0.959 . S
H907 C905 0.960 . S
H908 C905 0.961 . S
O909 Co884 1.967 . S
O909 C917 1.258 . S
O910 Co885 1.941 . S
O910 C917 1.266 . S
H911 C913 0.959 . S
H912 C913 0.961 . S
C913 C903 1.510 . S
C913 H911 0.959 . S
C913 H912 0.961 . S
C913 H914 0.960 . S
H914 C913 0.960 . S
H915 N895 0.862 . S
O916 Co884 1.920 . S
O916 C889 1.289 . S
C917 O909 1.258 . S
C917 O910 1.266 . S
Co918 O921 1.970 . S
Co918 N935 1.989 . S
Co918 O943 1.967 . S
Co918 O950 1.920 . S
Co919 O922 1.966 . S
Co919 N928 2.022 . S
Co919 N936 1.993 . S
Co919 O944 1.941 . S
C920 O921 1.258 . S
C920 O922 1.263 . S
O921 Co918 1.970 . S
O921 C920 1.258 . S
O922 Co919 1.966 . S
O922 C920 1.263 . S
C923 O924 1.235 . S
C923 O950 1.289 . S
O924 C923 1.235 . S
C925 C927 1.400 . S
C925 N928 1.351 . S
C925 C930 1.501 . S
C926 C927 1.387 . S
C926 N929 1.341 . S
C927 C925 1.400 . S
C927 C926 1.387 . S
N928 Co919 2.022 . S
N928 C925 1.351 . S
N928 N929 1.365 . S
N929 C926 1.341 . S
N929 N928 1.365 . S
N929 H949 0.862 . S
C930 C925 1.501 . S
C930 H931 0.961 . S
C930 H932 0.961 . S
C930 H933 0.960 . S
H931 C930 0.961 . S
H932 C930 0.961 . S
H933 C930 0.960 . S
C934 N935 1.342 . S
C934 C938 1.401 . S
C934 C939 1.499 . S
N935 Co918 1.989 . S
N935 C934 1.342 . S
N935 N936 1.388 . S
N936 Co919 1.993 . S
N936 N935 1.388 . S
N936 C937 1.346 . S
C937 N936 1.346 . S
C937 C938 1.396 . S
C937 C947 1.510 . S
C938 C934 1.401 . S
C938 C937 1.396 . S
C939 C934 1.499 . S
C939 H940 0.959 . S
C939 H941 0.960 1_655 S
C939 H942 0.961 . S
H940 C939 0.959 . S
H941 C939 0.960 1_455 S
H942 C939 0.961 . S
O943 Co918 1.967 . S
O943 C951 1.258 . S
O944 Co919 1.941 . S
O944 C951 1.266 . S
H945 C947 0.959 . S
H946 C947 0.961 . S
C947 C937 1.510 . S
C947 H945 0.959 . S
C947 H946 0.961 . S
C947 H948 0.960 . S
H948 C947 0.960 . S
H949 N929 0.862 . S
O950 Co918 1.920 . S
O950 C923 1.289 . S
C951 O943 1.258 . S
C951 O944 1.266 . S
Co952 O955 1.970 . S
Co952 N969 1.989 . S
Co952 O977 1.967 . S
Co952 O984 1.920 . S
Co953 O956 1.966 . S
Co953 N962 2.022 . S
Co953 N970 1.993 . S
Co953 O978 1.941 . S
C954 O955 1.258 . S
C954 O956 1.263 . S
O955 Co952 1.970 . S
O955 C954 1.258 . S
O956 Co953 1.966 . S
O956 C954 1.263 . S
C957 O958 1.235 . S
C957 O984 1.289 . S
O958 C957 1.235 . S
C959 C961 1.400 . S
C959 N962 1.351 . S
C959 C964 1.501 . S
C960 C961 1.387 . S
C960 N963 1.341 . S
C961 C959 1.400 . S
C961 C960 1.387 . S
N962 Co953 2.022 . S
N962 C959 1.351 . S
N962 N963 1.365 . S
N963 C960 1.341 . S
N963 N962 1.365 . S
N963 H983 0.862 . S
C964 C959 1.501 . S
C964 H965 0.961 . S
C964 H966 0.961 . S
C964 H967 0.960 . S
H965 C964 0.961 . S
H966 C964 0.961 . S
H967 C964 0.960 . S
C968 N969 1.342 . S
C968 C972 1.401 . S
C968 C973 1.499 . S
N969 Co952 1.989 . S
N969 C968 1.342 . S
N969 N970 1.388 . S
N970 Co953 1.993 . S
N970 N969 1.388 . S
N970 C971 1.346 . S
C971 N970 1.346 . S
C971 C972 1.396 . S
C971 C981 1.510 . S
C972 C968 1.401 . S
C972 C971 1.396 . S
C973 C968 1.499 . S
C973 H974 0.959 . S
C973 H975 0.960 . S
C973 H976 0.961 . S
H974 C973 0.959 . S
H975 C973 0.960 . S
H976 C973 0.961 . S
O977 Co952 1.967 . S
O977 C985 1.258 . S
O978 Co953 1.941 . S
O978 C985 1.266 . S
H979 C981 0.959 . S
H980 C981 0.961 . S
C981 C971 1.510 . S
C981 H979 0.959 . S
C981 H980 0.961 . S
C981 H982 0.960 . S
H982 C981 0.960 . S
H983 N963 0.862 . S
O984 Co952 1.920 . S
O984 C957 1.289 . S
C985 O977 1.258 . S
C985 O978 1.266 . S
Co986 O989 1.970 . S
Co986 N1003 1.989 . S
Co986 O1011 1.967 . S
Co986 O1018 1.920 . S
Co987 O990 1.966 . S
Co987 N996 2.022 . S
Co987 N1004 1.993 . S
Co987 O1012 1.941 . S
C988 O989 1.258 . S
C988 O990 1.263 . S
O989 Co986 1.970 . S
O989 C988 1.258 . S
O990 Co987 1.966 . S
O990 C988 1.263 . S
C991 O992 1.235 . S
C991 O1018 1.289 . S
O992 C991 1.235 . S
C993 C995 1.400 . S
C993 N996 1.351 . S
C993 C998 1.501 . S
C994 C995 1.387 . S
C994 N997 1.341 . S
C995 C993 1.400 . S
C995 C994 1.387 . S
N996 Co987 2.022 . S
N996 C993 1.351 . S
N996 N997 1.365 . S
N997 C994 1.341 . S
N997 N996 1.365 . S
N997 H1017 0.862 1_556 S
C998 C993 1.501 . S
C998 H999 0.961 . S
C998 H1000 0.961 . S
C998 H1001 0.960 . S
H999 C998 0.961 . S
H1000 C998 0.961 . S
H1001 C998 0.960 . S
C1002 N1003 1.342 . S
C1002 C1006 1.401 . S
C1002 C1007 1.499 . S
N1003 Co986 1.989 . S
N1003 C1002 1.342 . S
N1003 N1004 1.388 . S
N1004 Co987 1.993 . S
N1004 N1003 1.388 . S
N1004 C1005 1.346 . S
C1005 N1004 1.346 . S
C1005 C1006 1.396 . S
C1005 C1015 1.510 . S
C1006 C1002 1.401 . S
C1006 C1005 1.396 . S
C1007 C1002 1.499 . S
C1007 H1008 0.959 . S
C1007 H1009 0.960 1_655 S
C1007 H1010 0.961 . S
H1008 C1007 0.959 . S
H1009 C1007 0.960 1_455 S
H1010 C1007 0.961 . S
O1011 Co986 1.967 . S
O1011 C1019 1.258 . S
O1012 Co987 1.941 . S
O1012 C1019 1.266 . S
H1013 C1015 0.959 1_554 S
H1014 C1015 0.961 . S
C1015 C1005 1.510 . S
C1015 H1013 0.959 1_556 S
C1015 H1014 0.961 . S
C1015 H1016 0.960 . S
H1016 C1015 0.960 . S
H1017 N997 0.862 1_554 S
O1018 Co986 1.920 . S
O1018 C991 1.289 . S
C1019 O1011 1.258 . S
C1019 O1012 1.266 . S
Co1020 O1023 1.970 . S
Co1020 N1037 1.989 . S
Co1020 O1045 1.967 . S
Co1020 O1052 1.920 . S
Co1021 O1024 1.966 . S
Co1021 N1030 2.022 . S
Co1021 N1038 1.993 . S
Co1021 O1046 1.941 . S
C1022 O1023 1.258 . S
C1022 O1024 1.263 . S
O1023 Co1020 1.970 . S
O1023 C1022 1.258 . S
O1024 Co1021 1.966 . S
O1024 C1022 1.263 . S
C1025 O1026 1.235 . S
C1025 O1052 1.289 . S
O1026 C1025 1.235 . S
C1027 C1029 1.400 . S
C1027 N1030 1.351 . S
C1027 C1032 1.501 . S
C1028 C1029 1.387 . S
C1028 N1031 1.341 . S
C1029 C1027 1.400 . S
C1029 C1028 1.387 . S
N1030 Co1021 2.022 . S
N1030 C1027 1.351 . S
N1030 N1031 1.365 . S
N1031 C1028 1.341 . S
N1031 N1030 1.365 . S
N1031 H1051 0.862 . S
C1032 C1027 1.501 . S
C1032 H1033 0.961 . S
C1032 H1034 0.961 . S
C1032 H1035 0.960 . S
H1033 C1032 0.961 . S
H1034 C1032 0.961 . S
H1035 C1032 0.960 . S
C1036 N1037 1.342 . S
C1036 C1040 1.401 . S
C1036 C1041 1.499 . S
N1037 Co1020 1.989 . S
N1037 C1036 1.342 . S
N1037 N1038 1.388 . S
N1038 Co1021 1.993 . S
N1038 N1037 1.388 . S
N1038 C1039 1.346 . S
C1039 N1038 1.346 . S
C1039 C1040 1.396 . S
C1039 C1049 1.510 . S
C1040 C1036 1.401 . S
C1040 C1039 1.396 . S
C1041 C1036 1.499 . S
C1041 H1042 0.959 . S
C1041 H1043 0.960 . S
C1041 H1044 0.961 . S
H1042 C1041 0.959 . S
H1043 C1041 0.960 . S
H1044 C1041 0.961 . S
O1045 Co1020 1.967 . S
O1045 C1053 1.258 . S
O1046 Co1021 1.941 . S
O1046 C1053 1.266 . S
H1047 C1049 0.959 . S
H1048 C1049 0.961 . S
C1049 C1039 1.510 . S
C1049 H1047 0.959 . S
C1049 H1048 0.961 . S
C1049 H1050 0.960 . S
H1050 C1049 0.960 . S
H1051 N1031 0.862 . S
O1052 Co1020 1.920 . S
O1052 C1025 1.289 . S
C1053 O1045 1.258 . S
C1053 O1046 1.266 . S
Co1054 O1057 1.970 . S
Co1054 N1071 1.989 . S
Co1054 O1079 1.967 . S
Co1054 O1086 1.920 . S
Co1055 O1058 1.966 . S
Co1055 N1064 2.022 . S
Co1055 N1072 1.993 . S
Co1055 O1080 1.941 . S
C1056 O1057 1.258 . S
C1056 O1058 1.263 . S
O1057 Co1054 1.970 . S
O1057 C1056 1.258 . S
O1058 Co1055 1.966 . S
O1058 C1056 1.263 . S
C1059 O1060 1.235 . S
C1059 O1086 1.289 . S
O1060 C1059 1.235 . S
C1061 C1063 1.400 . S
C1061 N1064 1.351 . S
C1061 C1066 1.501 . S
C1062 C1063 1.387 . S
C1062 N1065 1.341 . S
C1063 C1061 1.400 . S
C1063 C1062 1.387 . S
N1064 Co1055 2.022 . S
N1064 C1061 1.351 . S
N1064 N1065 1.365 . S
N1065 C1062 1.341 . S
N1065 N1064 1.365 . S
N1065 H1085 0.862 . S
C1066 C1061 1.501 . S
C1066 H1067 0.961 . S
C1066 H1068 0.961 . S
C1066 H1069 0.960 . S
H1067 C1066 0.961 . S
H1068 C1066 0.961 . S
H1069 C1066 0.960 . S
C1070 N1071 1.342 . S
C1070 C1074 1.401 . S
C1070 C1075 1.499 . S
N1071 Co1054 1.989 . S
N1071 C1070 1.342 . S
N1071 N1072 1.388 . S
N1072 Co1055 1.993 . S
N1072 N1071 1.388 . S
N1072 C1073 1.346 . S
C1073 N1072 1.346 . S
C1073 C1074 1.396 . S
C1073 C1083 1.510 . S
C1074 C1070 1.401 . S
C1074 C1073 1.396 . S
C1075 C1070 1.499 . S
C1075 H1076 0.959 . S
C1075 H1077 0.960 . S
C1075 H1078 0.961 . S
H1076 C1075 0.959 . S
H1077 C1075 0.960 . S
H1078 C1075 0.961 . S
O1079 Co1054 1.967 . S
O1079 C1087 1.258 . S
O1080 Co1055 1.941 . S
O1080 C1087 1.266 . S
H1081 C1083 0.959 . S
H1082 C1083 0.961 . S
C1083 C1073 1.510 . S
C1083 H1081 0.959 . S
C1083 H1082 0.961 . S
C1083 H1084 0.960 . S
H1084 C1083 0.960 . S
H1085 N1065 0.862 . S
O1086 Co1054 1.920 . S
O1086 C1059 1.289 . S
C1087 O1079 1.258 . S
C1087 O1080 1.266 . S
Co1088 O1091 1.970 . S
Co1088 N1105 1.989 . S
Co1088 O1113 1.967 . S
Co1088 O1120 1.920 . S
Co1089 O1092 1.966 . S
Co1089 N1098 2.022 . S
Co1089 N1106 1.993 . S
Co1089 O1114 1.941 . S
C1090 O1091 1.258 . S
C1090 O1092 1.263 . S
O1091 Co1088 1.970 . S
O1091 C1090 1.258 . S
O1092 Co1089 1.966 . S
O1092 C1090 1.263 . S
C1093 O1094 1.235 . S
C1093 O1120 1.289 . S
O1094 C1093 1.235 . S
C1095 C1097 1.400 . S
C1095 N1098 1.351 . S
C1095 C1100 1.501 . S
C1096 C1097 1.387 . S
C1096 N1099 1.341 . S
C1097 C1095 1.400 . S
C1097 C1096 1.387 . S
N1098 Co1089 2.022 . S
N1098 C1095 1.351 . S
N1098 N1099 1.365 . S
N1099 C1096 1.341 . S
N1099 N1098 1.365 . S
N1099 H1119 0.862 . S
C1100 C1095 1.501 . S
C1100 H1101 0.961 . S
C1100 H1102 0.961 . S
C1100 H1103 0.960 . S
H1101 C1100 0.961 . S
H1102 C1100 0.961 . S
H1103 C1100 0.960 . S
C1104 N1105 1.342 . S
C1104 C1108 1.401 . S
C1104 C1109 1.499 . S
N1105 Co1088 1.989 . S
N1105 C1104 1.342 . S
N1105 N1106 1.388 . S
N1106 Co1089 1.993 . S
N1106 N1105 1.388 . S
N1106 C1107 1.346 . S
C1107 N1106 1.346 . S
C1107 C1108 1.396 . S
C1107 C1117 1.510 . S
C1108 C1104 1.401 . S
C1108 C1107 1.396 . S
C1109 C1104 1.499 . S
C1109 H1110 0.959 . S
C1109 H1111 0.960 . S
C1109 H1112 0.961 . S
H1110 C1109 0.959 . S
H1111 C1109 0.960 . S
H1112 C1109 0.961 . S
O1113 Co1088 1.967 . S
O1113 C1121 1.258 . S
O1114 Co1089 1.941 . S
O1114 C1121 1.266 . S
H1115 C1117 0.959 . S
H1116 C1117 0.961 . S
C1117 C1107 1.510 . S
C1117 H1115 0.959 . S
C1117 H1116 0.961 . S
C1117 H1118 0.960 . S
H1118 C1117 0.960 . S
H1119 N1099 0.862 . S
O1120 Co1088 1.920 . S
O1120 C1093 1.289 . S
C1121 O1113 1.258 . S
C1121 O1114 1.266 . S
Co1122 O1125 1.970 . S
Co1122 N1139 1.989 . S
Co1122 O1147 1.967 . S
Co1122 O1154 1.920 . S
Co1123 O1126 1.966 . S
Co1123 N1132 2.022 . S
Co1123 N1140 1.993 . S
Co1123 O1148 1.941 . S
C1124 O1125 1.258 . S
C1124 O1126 1.263 . S
O1125 Co1122 1.970 . S
O1125 C1124 1.258 . S
O1126 Co1123 1.966 . S
O1126 C1124 1.263 . S
C1127 O1128 1.235 . S
C1127 O1154 1.289 . S
O1128 C1127 1.235 . S
C1129 C1131 1.400 . S
C1129 N1132 1.351 . S
C1129 C1134 1.501 . S
C1130 C1131 1.387 . S
C1130 N1133 1.341 . S
C1131 C1129 1.400 . S
C1131 C1130 1.387 . S
N1132 Co1123 2.022 . S
N1132 C1129 1.351 . S
N1132 N1133 1.365 . S
N1133 C1130 1.341 . S
N1133 N1132 1.365 . S
N1133 H1153 0.862 . S
C1134 C1129 1.501 . S
C1134 H1135 0.961 . S
C1134 H1136 0.961 . S
C1134 H1137 0.960 . S
H1135 C1134 0.961 . S
H1136 C1134 0.961 . S
H1137 C1134 0.960 . S
C1138 N1139 1.342 . S
C1138 C1142 1.401 . S
C1138 C1143 1.499 . S
N1139 Co1122 1.989 . S
N1139 C1138 1.342 . S
N1139 N1140 1.388 . S
N1140 Co1123 1.993 . S
N1140 N1139 1.388 . S
N1140 C1141 1.346 . S
C1141 N1140 1.346 . S
C1141 C1142 1.396 . S
C1141 C1151 1.510 . S
C1142 C1138 1.401 . S
C1142 C1141 1.396 . S
C1143 C1138 1.499 . S
C1143 H1144 0.959 . S
C1143 H1145 0.960 1_556 S
C1143 H1146 0.961 . S
H1144 C1143 0.959 . S
H1145 C1143 0.960 1_554 S
H1146 C1143 0.961 . S
O1147 Co1122 1.967 . S
O1147 C1155 1.258 . S
O1148 Co1123 1.941 . S
O1148 C1155 1.266 . S
H1149 C1151 0.959 . S
H1150 C1151 0.961 . S
C1151 C1141 1.510 . S
C1151 H1149 0.959 . S
C1151 H1150 0.961 . S
C1151 H1152 0.960 . S
H1152 C1151 0.960 . S
H1153 N1133 0.862 . S
O1154 Co1122 1.920 . S
O1154 C1127 1.289 . S
C1155 O1147 1.258 . S
C1155 O1148 1.266 . S
Co1156 O1159 1.970 . S
Co1156 N1173 1.989 . S
Co1156 O1181 1.967 . S
Co1156 O1188 1.920 . S
Co1157 O1160 1.966 . S
Co1157 N1166 2.022 . S
Co1157 N1174 1.993 . S
Co1157 O1182 1.941 . S
C1158 O1159 1.258 . S
C1158 O1160 1.263 . S
O1159 Co1156 1.970 . S
O1159 C1158 1.258 . S
O1160 Co1157 1.966 . S
O1160 C1158 1.263 . S
C1161 O1162 1.235 . S
C1161 O1188 1.289 . S
O1162 C1161 1.235 . S
C1163 C1165 1.400 . S
C1163 N1166 1.351 . S
C1163 C1168 1.501 . S
C1164 C1165 1.387 . S
C1164 N1167 1.341 . S
C1165 C1163 1.400 . S
C1165 C1164 1.387 . S
N1166 Co1157 2.022 . S
N1166 C1163 1.351 . S
N1166 N1167 1.365 . S
N1167 C1164 1.341 . S
N1167 N1166 1.365 . S
N1167 H1187 0.862 . S
C1168 C1163 1.501 . S
C1168 H1169 0.961 . S
C1168 H1170 0.961 . S
C1168 H1171 0.960 . S
H1169 C1168 0.961 . S
H1170 C1168 0.961 . S
H1171 C1168 0.960 . S
C1172 N1173 1.342 . S
C1172 C1176 1.401 . S
C1172 C1177 1.499 . S
N1173 Co1156 1.989 . S
N1173 C1172 1.342 . S
N1173 N1174 1.388 . S
N1174 Co1157 1.993 . S
N1174 N1173 1.388 . S
N1174 C1175 1.346 . S
C1175 N1174 1.346 . S
C1175 C1176 1.396 . S
C1175 C1185 1.510 . S
C1176 C1172 1.401 . S
C1176 C1175 1.396 . S
C1177 C1172 1.499 . S
C1177 H1178 0.959 . S
C1177 H1179 0.960 . S
C1177 H1180 0.961 . S
H1178 C1177 0.959 . S
H1179 C1177 0.960 . S
H1180 C1177 0.961 . S
O1181 Co1156 1.967 . S
O1181 C1189 1.258 . S
O1182 Co1157 1.941 . S
O1182 C1189 1.266 . S
H1183 C1185 0.959 . S
H1184 C1185 0.961 . S
C1185 C1175 1.510 . S
C1185 H1183 0.959 . S
C1185 H1184 0.961 . S
C1185 H1186 0.960 . S
H1186 C1185 0.960 . S
H1187 N1167 0.862 . S
O1188 Co1156 1.920 . S
O1188 C1161 1.289 . S
C1189 O1181 1.258 . S
C1189 O1182 1.266 . S
Co1190 O1193 1.970 . S
Co1190 N1207 1.989 . S
Co1190 O1215 1.967 . S
Co1190 O1222 1.920 . S
Co1191 O1194 1.966 . S
Co1191 N1200 2.022 . S
Co1191 N1208 1.993 . S
Co1191 O1216 1.941 . S
C1192 O1193 1.258 . S
C1192 O1194 1.263 . S
O1193 Co1190 1.970 . S
O1193 C1192 1.258 . S
O1194 Co1191 1.966 . S
O1194 C1192 1.263 . S
C1195 O1196 1.235 . S
C1195 O1222 1.289 . S
O1196 C1195 1.235 . S
C1197 C1199 1.400 . S
C1197 N1200 1.351 . S
C1197 C1202 1.501 . S
C1198 C1199 1.387 . S
C1198 N1201 1.341 . S
C1199 C1197 1.400 . S
C1199 C1198 1.387 . S
N1200 Co1191 2.022 . S
N1200 C1197 1.351 . S
N1200 N1201 1.365 . S
N1201 C1198 1.341 . S
N1201 N1200 1.365 . S
N1201 H1221 0.862 . S
C1202 C1197 1.501 . S
C1202 H1203 0.961 . S
C1202 H1204 0.961 . S
C1202 H1205 0.960 . S
H1203 C1202 0.961 . S
H1204 C1202 0.961 . S
H1205 C1202 0.960 . S
C1206 N1207 1.342 . S
C1206 C1210 1.401 . S
C1206 C1211 1.499 . S
N1207 Co1190 1.989 . S
N1207 C1206 1.342 . S
N1207 N1208 1.388 . S
N1208 Co1191 1.993 . S
N1208 N1207 1.388 . S
N1208 C1209 1.346 . S
C1209 N1208 1.346 . S
C1209 C1210 1.396 . S
C1209 C1219 1.510 . S
C1210 C1206 1.401 . S
C1210 C1209 1.396 . S
C1211 C1206 1.499 . S
C1211 H1212 0.959 . S
C1211 H1213 0.960 . S
C1211 H1214 0.961 . S
H1212 C1211 0.959 . S
H1213 C1211 0.960 . S
H1214 C1211 0.961 . S
O1215 Co1190 1.967 . S
O1215 C1223 1.258 . S
O1216 Co1191 1.941 . S
O1216 C1223 1.266 . S
H1217 C1219 0.959 . S
H1218 C1219 0.961 . S
C1219 C1209 1.510 . S
C1219 H1217 0.959 . S
C1219 H1218 0.961 . S
C1219 H1220 0.960 . S
H1220 C1219 0.960 . S
H1221 N1201 0.862 . S
O1222 Co1190 1.920 . S
O1222 C1195 1.289 . S
C1223 O1215 1.258 . S
C1223 O1216 1.266 . S
Co1224 O1227 1.970 . S
Co1224 N1241 1.989 . S
Co1224 O1249 1.967 . S
Co1224 O1256 1.920 . S
Co1225 O1228 1.966 . S
Co1225 N1234 2.022 . S
Co1225 N1242 1.993 . S
Co1225 O1250 1.941 . S
C1226 O1227 1.258 . S
C1226 O1228 1.263 . S
O1227 Co1224 1.970 . S
O1227 C1226 1.258 . S
O1228 Co1225 1.966 . S
O1228 C1226 1.263 . S
C1229 O1230 1.235 . S
C1229 O1256 1.289 . S
O1230 C1229 1.235 . S
C1231 C1233 1.400 . S
C1231 N1234 1.351 . S
C1231 C1236 1.501 . S
C1232 C1233 1.387 . S
C1232 N1235 1.341 . S
C1233 C1231 1.400 . S
C1233 C1232 1.387 . S
N1234 Co1225 2.022 . S
N1234 C1231 1.351 . S
N1234 N1235 1.365 . S
N1235 C1232 1.341 . S
N1235 N1234 1.365 . S
N1235 H1255 0.862 . S
C1236 C1231 1.501 . S
C1236 H1237 0.961 . S
C1236 H1238 0.961 . S
C1236 H1239 0.960 . S
H1237 C1236 0.961 . S
H1238 C1236 0.961 . S
H1239 C1236 0.960 . S
C1240 N1241 1.342 . S
C1240 C1244 1.401 . S
C1240 C1245 1.499 . S
N1241 Co1224 1.989 . S
N1241 C1240 1.342 . S
N1241 N1242 1.388 . S
N1242 Co1225 1.993 . S
N1242 N1241 1.388 . S
N1242 C1243 1.346 . S
C1243 N1242 1.346 . S
C1243 C1244 1.396 . S
C1243 C1253 1.510 . S
C1244 C1240 1.401 . S
C1244 C1243 1.396 . S
C1245 C1240 1.499 . S
C1245 H1246 0.959 . S
C1245 H1247 0.960 . S
C1245 H1248 0.961 . S
H1246 C1245 0.959 . S
H1247 C1245 0.960 . S
H1248 C1245 0.961 . S
O1249 Co1224 1.967 . S
O1249 C1257 1.258 . S
O1250 Co1225 1.941 . S
O1250 C1257 1.266 . S
H1251 C1253 0.959 . S
H1252 C1253 0.961 . S
C1253 C1243 1.510 . S
C1253 H1251 0.959 . S
C1253 H1252 0.961 . S
C1253 H1254 0.960 . S
H1254 C1253 0.960 . S
H1255 N1235 0.862 . S
O1256 Co1224 1.920 . S
O1256 C1229 1.289 . S
C1257 O1249 1.258 . S
C1257 O1250 1.266 . S
Co1258 O1261 1.970 . S
Co1258 N1275 1.989 . S
Co1258 O1283 1.967 . S
Co1258 O1290 1.920 . S
Co1259 O1262 1.966 . S
Co1259 N1268 2.022 . S
Co1259 N1276 1.993 . S
Co1259 O1284 1.941 . S
C1260 O1261 1.258 . S
C1260 O1262 1.263 . S
O1261 Co1258 1.970 . S
O1261 C1260 1.258 . S
O1262 Co1259 1.966 . S
O1262 C1260 1.263 . S
C1263 O1264 1.235 . S
C1263 O1290 1.289 . S
O1264 C1263 1.235 . S
C1265 C1267 1.400 . S
C1265 N1268 1.351 . S
C1265 C1270 1.501 . S
C1266 C1267 1.387 . S
C1266 N1269 1.341 . S
C1267 C1265 1.400 . S
C1267 C1266 1.387 . S
N1268 Co1259 2.022 . S
N1268 C1265 1.351 . S
N1268 N1269 1.365 . S
N1269 C1266 1.341 . S
N1269 N1268 1.365 . S
N1269 H1289 0.862 . S
C1270 C1265 1.501 . S
C1270 H1271 0.961 . S
C1270 H1272 0.961 . S
C1270 H1273 0.960 . S
H1271 C1270 0.961 . S
H1272 C1270 0.961 . S
H1273 C1270 0.960 . S
C1274 N1275 1.342 . S
C1274 C1278 1.401 . S
C1274 C1279 1.499 . S
N1275 Co1258 1.989 . S
N1275 C1274 1.342 . S
N1275 N1276 1.388 . S
N1276 Co1259 1.993 . S
N1276 N1275 1.388 . S
N1276 C1277 1.346 . S
C1277 N1276 1.346 . S
C1277 C1278 1.396 . S
C1277 C1287 1.510 . S
C1278 C1274 1.401 . S
C1278 C1277 1.396 . S
C1279 C1274 1.499 . S
C1279 H1280 0.959 . S
C1279 H1281 0.960 1_554 S
C1279 H1282 0.961 . S
H1280 C1279 0.959 . S
H1281 C1279 0.960 1_556 S
H1282 C1279 0.961 . S
O1283 Co1258 1.967 . S
O1283 C1291 1.258 . S
O1284 Co1259 1.941 . S
O1284 C1291 1.266 . S
H1285 C1287 0.959 . S
H1286 C1287 0.961 . S
C1287 C1277 1.510 . S
C1287 H1285 0.959 . S
C1287 H1286 0.961 . S
C1287 H1288 0.960 . S
H1288 C1287 0.960 . S
H1289 N1269 0.862 . S
O1290 Co1258 1.920 . S
O1290 C1263 1.289 . S
C1291 O1283 1.258 . S
C1291 O1284 1.266 . S
Co1292 O1295 1.970 . S
Co1292 N1309 1.989 . S
Co1292 O1317 1.967 . S
Co1292 O1324 1.920 . S
Co1293 O1296 1.966 . S
Co1293 N1302 2.022 . S
Co1293 N1310 1.993 . S
Co1293 O1318 1.941 . S
C1294 O1295 1.258 . S
C1294 O1296 1.263 . S
O1295 Co1292 1.970 . S
O1295 C1294 1.258 . S
O1296 Co1293 1.966 . S
O1296 C1294 1.263 . S
C1297 O1298 1.235 . S
C1297 O1324 1.289 . S
O1298 C1297 1.235 . S
C1299 C1301 1.400 . S
C1299 N1302 1.351 . S
C1299 C1304 1.501 . S
C1300 C1301 1.387 . S
C1300 N1303 1.341 . S
C1301 C1299 1.400 . S
C1301 C1300 1.387 . S
N1302 Co1293 2.022 . S
N1302 C1299 1.351 . S
N1302 N1303 1.365 . S
N1303 C1300 1.341 . S
N1303 N1302 1.365 . S
N1303 H1323 0.862 . S
C1304 C1299 1.501 . S
C1304 H1305 0.961 . S
C1304 H1306 0.961 . S
C1304 H1307 0.960 . S
H1305 C1304 0.961 . S
H1306 C1304 0.961 . S
H1307 C1304 0.960 . S
C1308 N1309 1.342 . S
C1308 C1312 1.401 . S
C1308 C1313 1.499 . S
N1309 Co1292 1.989 . S
N1309 C1308 1.342 . S
N1309 N1310 1.388 . S
N1310 Co1293 1.993 . S
N1310 N1309 1.388 . S
N1310 C1311 1.346 . S
C1311 N1310 1.346 . S
C1311 C1312 1.396 . S
C1311 C1321 1.510 . S
C1312 C1308 1.401 . S
C1312 C1311 1.396 . S
C1313 C1308 1.499 . S
C1313 H1314 0.959 . S
C1313 H1315 0.960 . S
C1313 H1316 0.961 . S
H1314 C1313 0.959 . S
H1315 C1313 0.960 . S
H1316 C1313 0.961 . S
O1317 Co1292 1.967 . S
O1317 C1325 1.258 . S
O1318 Co1293 1.941 . S
O1318 C1325 1.266 . S
H1319 C1321 0.959 . S
H1320 C1321 0.961 . S
C1321 C1311 1.510 . S
C1321 H1319 0.959 . S
C1321 H1320 0.961 . S
C1321 H1322 0.960 . S
H1322 C1321 0.960 . S
H1323 N1303 0.862 . S
O1324 Co1292 1.920 . S
O1324 C1297 1.289 . S
C1325 O1317 1.258 . S
C1325 O1318 1.266 . S
Co1326 O1329 1.970 . S
Co1326 N1343 1.989 . S
Co1326 O1351 1.967 . S
Co1326 O1358 1.920 . S
Co1327 O1330 1.966 . S
Co1327 N1336 2.022 . S
Co1327 N1344 1.993 . S
Co1327 O1352 1.941 . S
C1328 O1329 1.258 . S
C1328 O1330 1.263 . S
O1329 Co1326 1.970 . S
O1329 C1328 1.258 . S
O1330 Co1327 1.966 . S
O1330 C1328 1.263 . S
C1331 O1332 1.235 . S
C1331 O1358 1.289 . S
O1332 C1331 1.235 . S
C1333 C1335 1.400 . S
C1333 N1336 1.351 . S
C1333 C1338 1.501 . S
C1334 C1335 1.387 . S
C1334 N1337 1.341 . S
C1335 C1333 1.400 . S
C1335 C1334 1.387 . S
N1336 Co1327 2.022 . S
N1336 C1333 1.351 . S
N1336 N1337 1.365 . S
N1337 C1334 1.341 . S
N1337 N1336 1.365 . S
N1337 H1357 0.862 . S
C1338 C1333 1.501 . S
C1338 H1339 0.961 . S
C1338 H1340 0.961 . S
C1338 H1341 0.960 . S
H1339 C1338 0.961 . S
H1340 C1338 0.961 . S
H1341 C1338 0.960 . S
C1342 N1343 1.342 . S
C1342 C1346 1.401 . S
C1342 C1347 1.499 . S
N1343 Co1326 1.989 . S
N1343 C1342 1.342 . S
N1343 N1344 1.388 . S
N1344 Co1327 1.993 . S
N1344 N1343 1.388 . S
N1344 C1345 1.346 . S
C1345 N1344 1.346 . S
C1345 C1346 1.396 . S
C1345 C1355 1.510 . S
C1346 C1342 1.401 . S
C1346 C1345 1.396 . S
C1347 C1342 1.499 . S
C1347 H1348 0.959 . S
C1347 H1349 0.960 . S
C1347 H1350 0.961 . S
H1348 C1347 0.959 . S
H1349 C1347 0.960 . S
H1350 C1347 0.961 . S
O1351 Co1326 1.967 . S
O1351 C1359 1.258 . S
O1352 Co1327 1.941 . S
O1352 C1359 1.266 . S
H1353 C1355 0.959 . S
H1354 C1355 0.961 . S
C1355 C1345 1.510 . S
C1355 H1353 0.959 . S
C1355 H1354 0.961 . S
C1355 H1356 0.960 . S
H1356 C1355 0.960 . S
H1357 N1337 0.862 . S
O1358 Co1326 1.920 . S
O1358 C1331 1.289 . S
C1359 O1351 1.258 . S
C1359 O1352 1.266 . S
Co1360 O1363 1.970 . S
Co1360 N1377 1.989 . S
Co1360 O1385 1.967 . S
Co1360 O1392 1.920 . S
Co1361 O1364 1.966 . S
Co1361 N1370 2.022 . S
Co1361 N1378 1.993 . S
Co1361 O1386 1.941 . S
C1362 O1363 1.258 . S
C1362 O1364 1.263 . S
O1363 Co1360 1.970 . S
O1363 C1362 1.258 . S
O1364 Co1361 1.966 . S
O1364 C1362 1.263 . S
C1365 O1366 1.235 . S
C1365 O1392 1.289 . S
O1366 C1365 1.235 . S
C1367 C1369 1.400 . S
C1367 N1370 1.351 . S
C1367 C1372 1.501 . S
C1368 C1369 1.387 . S
C1368 N1371 1.341 . S
C1369 C1367 1.400 . S
C1369 C1368 1.387 . S
N1370 Co1361 2.022 . S
N1370 C1367 1.351 . S
N1370 N1371 1.365 . S
N1371 C1368 1.341 . S
N1371 N1370 1.365 . S
N1371 H1391 0.862 . S
C1372 C1367 1.501 . S
C1372 H1373 0.961 . S
C1372 H1374 0.961 . S
C1372 H1375 0.960 . S
H1373 C1372 0.961 . S
H1374 C1372 0.961 . S
H1375 C1372 0.960 . S
C1376 N1377 1.342 . S
C1376 C1380 1.401 . S
C1376 C1381 1.499 . S
N1377 Co1360 1.989 . S
N1377 C1376 1.342 . S
N1377 N1378 1.388 . S
N1378 Co1361 1.993 . S
N1378 N1377 1.388 . S
N1378 C1379 1.346 . S
C1379 N1378 1.346 . S
C1379 C1380 1.396 . S
C1379 C1389 1.510 . S
C1380 C1376 1.401 . S
C1380 C1379 1.396 . S
C1381 C1376 1.499 . S
C1381 H1382 0.959 . S
C1381 H1383 0.960 . S
C1381 H1384 0.961 . S
H1382 C1381 0.959 . S
H1383 C1381 0.960 . S
H1384 C1381 0.961 . S
O1385 Co1360 1.967 . S
O1385 C1393 1.258 . S
O1386 Co1361 1.941 . S
O1386 C1393 1.266 . S
H1387 C1389 0.959 . S
H1388 C1389 0.961 . S
C1389 C1379 1.510 . S
C1389 H1387 0.959 . S
C1389 H1388 0.961 . S
C1389 H1390 0.960 . S
H1390 C1389 0.960 . S
H1391 N1371 0.862 . S
O1392 Co1360 1.920 . S
O1392 C1365 1.289 . S
C1393 O1385 1.258 . S
C1393 O1386 1.266 . S
Co1394 O1397 1.970 . S
Co1394 N1411 1.989 . S
Co1394 O1419 1.967 . S
Co1394 O1426 1.920 . S
Co1395 O1398 1.966 . S
Co1395 N1404 2.022 . S
Co1395 N1412 1.993 . S
Co1395 O1420 1.941 . S
C1396 O1397 1.258 . S
C1396 O1398 1.263 . S
O1397 Co1394 1.970 . S
O1397 C1396 1.258 . S
O1398 Co1395 1.966 . S
O1398 C1396 1.263 . S
C1399 O1400 1.235 . S
C1399 O1426 1.289 . S
O1400 C1399 1.235 . S
C1401 C1403 1.400 . S
C1401 N1404 1.351 . S
C1401 C1406 1.501 . S
C1402 C1403 1.387 . S
C1402 N1405 1.341 . S
C1403 C1401 1.400 . S
C1403 C1402 1.387 . S
N1404 Co1395 2.022 . S
N1404 C1401 1.351 . S
N1404 N1405 1.365 . S
N1405 C1402 1.341 . S
N1405 N1404 1.365 . S
N1405 H1425 0.862 . S
C1406 C1401 1.501 . S
C1406 H1407 0.961 . S
C1406 H1408 0.961 . S
C1406 H1409 0.960 . S
H1407 C1406 0.961 . S
H1408 C1406 0.961 . S
H1409 C1406 0.960 . S
C1410 N1411 1.342 . S
C1410 C1414 1.401 . S
C1410 C1415 1.499 . S
N1411 Co1394 1.989 . S
N1411 C1410 1.342 . S
N1411 N1412 1.388 . S
N1412 Co1395 1.993 . S
N1412 N1411 1.388 . S
N1412 C1413 1.346 . S
C1413 N1412 1.346 . S
C1413 C1414 1.396 . S
C1413 C1423 1.510 . S
C1414 C1410 1.401 . S
C1414 C1413 1.396 . S
C1415 C1410 1.499 . S
C1415 H1416 0.959 . S
C1415 H1417 0.960 . S
C1415 H1418 0.961 . S
H1416 C1415 0.959 . S
H1417 C1415 0.960 . S
H1418 C1415 0.961 . S
O1419 Co1394 1.967 . S
O1419 C1427 1.258 . S
O1420 Co1395 1.941 . S
O1420 C1427 1.266 . S
H1421 C1423 0.959 . S
H1422 C1423 0.961 . S
C1423 C1413 1.510 . S
C1423 H1421 0.959 . S
C1423 H1422 0.961 . S
C1423 H1424 0.960 . S
H1424 C1423 0.960 . S
H1425 N1405 0.862 . S
O1426 Co1394 1.920 . S
O1426 C1399 1.289 . S
C1427 O1419 1.258 . S
C1427 O1420 1.266 . S
Co1428 O1431 1.970 . S
Co1428 N1445 1.989 . S
Co1428 O1453 1.967 . S
Co1428 O1460 1.920 . S
Co1429 O1432 1.966 . S
Co1429 N1438 2.022 . S
Co1429 N1446 1.993 . S
Co1429 O1454 1.941 . S
C1430 O1431 1.258 . S
C1430 O1432 1.263 . S
O1431 Co1428 1.970 . S
O1431 C1430 1.258 . S
O1432 Co1429 1.966 . S
O1432 C1430 1.263 . S
C1433 O1434 1.235 . S
C1433 O1460 1.289 . S
O1434 C1433 1.235 . S
C1435 C1437 1.400 . S
C1435 N1438 1.351 . S
C1435 C1440 1.501 . S
C1436 C1437 1.387 . S
C1436 N1439 1.341 . S
C1437 C1435 1.400 . S
C1437 C1436 1.387 . S
N1438 Co1429 2.022 . S
N1438 C1435 1.351 . S
N1438 N1439 1.365 . S
N1439 C1436 1.341 . S
N1439 N1438 1.365 . S
N1439 H1459 0.862 . S
C1440 C1435 1.501 . S
C1440 H1441 0.961 . S
C1440 H1442 0.961 . S
C1440 H1443 0.960 . S
H1441 C1440 0.961 . S
H1442 C1440 0.961 . S
H1443 C1440 0.960 . S
C1444 N1445 1.342 . S
C1444 C1448 1.401 . S
C1444 C1449 1.499 . S
N1445 Co1428 1.989 . S
N1445 C1444 1.342 . S
N1445 N1446 1.388 . S
N1446 Co1429 1.993 . S
N1446 N1445 1.388 . S
N1446 C1447 1.346 . S
C1447 N1446 1.346 . S
C1447 C1448 1.396 . S
C1447 C1457 1.510 . S
C1448 C1444 1.401 . S
C1448 C1447 1.396 . S
C1449 C1444 1.499 . S
C1449 H1450 0.959 . S
C1449 H1451 0.960 1_565 S
C1449 H1452 0.961 . S
H1450 C1449 0.959 . S
H1451 C1449 0.960 1_545 S
H1452 C1449 0.961 . S
O1453 Co1428 1.967 . S
O1453 C1461 1.258 . S
O1454 Co1429 1.941 . S
O1454 C1461 1.266 . S
H1455 C1457 0.959 . S
H1456 C1457 0.961 . S
C1457 C1447 1.510 . S
C1457 H1455 0.959 . S
C1457 H1456 0.961 . S
C1457 H1458 0.960 . S
H1458 C1457 0.960 . S
H1459 N1439 0.862 . S
O1460 Co1428 1.920 . S
O1460 C1433 1.289 . S
C1461 O1453 1.258 . S
C1461 O1454 1.266 . S
Co1462 O1465 1.970 . S
Co1462 N1479 1.989 . S
Co1462 O1487 1.967 . S
Co1462 O1494 1.920 . S
Co1463 O1466 1.966 . S
Co1463 N1472 2.022 . S
Co1463 N1480 1.993 . S
Co1463 O1488 1.941 . S
C1464 O1465 1.258 . S
C1464 O1466 1.263 . S
O1465 Co1462 1.970 . S
O1465 C1464 1.258 . S
O1466 Co1463 1.966 . S
O1466 C1464 1.263 . S
C1467 O1468 1.235 . S
C1467 O1494 1.289 . S
O1468 C1467 1.235 . S
C1469 C1471 1.400 . S
C1469 N1472 1.351 . S
C1469 C1474 1.501 . S
C1470 C1471 1.387 . S
C1470 N1473 1.341 . S
C1471 C1469 1.400 . S
C1471 C1470 1.387 . S
N1472 Co1463 2.022 . S
N1472 C1469 1.351 . S
N1472 N1473 1.365 . S
N1473 C1470 1.341 . S
N1473 N1472 1.365 . S
N1473 H1493 0.862 . S
C1474 C1469 1.501 . S
C1474 H1475 0.961 . S
C1474 H1476 0.961 . S
C1474 H1477 0.960 . S
H1475 C1474 0.961 . S
H1476 C1474 0.961 . S
H1477 C1474 0.960 . S
C1478 N1479 1.342 . S
C1478 C1482 1.401 . S
C1478 C1483 1.499 . S
N1479 Co1462 1.989 . S
N1479 C1478 1.342 . S
N1479 N1480 1.388 . S
N1480 Co1463 1.993 . S
N1480 N1479 1.388 . S
N1480 C1481 1.346 . S
C1481 N1480 1.346 . S
C1481 C1482 1.396 . S
C1481 C1491 1.510 . S
C1482 C1478 1.401 . S
C1482 C1481 1.396 . S
C1483 C1478 1.499 . S
C1483 H1484 0.959 . S
C1483 H1485 0.960 . S
C1483 H1486 0.961 . S
H1484 C1483 0.959 . S
H1485 C1483 0.960 . S
H1486 C1483 0.961 . S
O1487 Co1462 1.967 . S
O1487 C1495 1.258 . S
O1488 Co1463 1.941 . S
O1488 C1495 1.266 . S
H1489 C1491 0.959 . S
H1490 C1491 0.961 . S
C1491 C1481 1.510 . S
C1491 H1489 0.959 . S
C1491 H1490 0.961 . S
C1491 H1492 0.960 . S
H1492 C1491 0.960 . S
H1493 N1473 0.862 . S
O1494 Co1462 1.920 . S
O1494 C1467 1.289 . S
C1495 O1487 1.258 . S
C1495 O1488 1.266 . S
Co1496 O1499 1.970 . S
Co1496 N1513 1.989 . S
Co1496 O1521 1.967 . S
Co1496 O1528 1.920 . S
Co1497 O1500 1.966 . S
Co1497 N1506 2.022 . S
Co1497 N1514 1.993 . S
Co1497 O1522 1.941 . S
C1498 O1499 1.258 . S
C1498 O1500 1.263 . S
O1499 Co1496 1.970 . S
O1499 C1498 1.258 . S
O1500 Co1497 1.966 . S
O1500 C1498 1.263 . S
C1501 O1502 1.235 . S
C1501 O1528 1.289 . S
O1502 C1501 1.235 . S
C1503 C1505 1.400 . S
C1503 N1506 1.351 . S
C1503 C1508 1.501 . S
C1504 C1505 1.387 . S
C1504 N1507 1.341 . S
C1505 C1503 1.400 . S
C1505 C1504 1.387 . S
N1506 Co1497 2.022 . S
N1506 C1503 1.351 . S
N1506 N1507 1.365 . S
N1507 C1504 1.341 . S
N1507 N1506 1.365 . S
N1507 H1527 0.862 . S
C1508 C1503 1.501 . S
C1508 H1509 0.961 . S
C1508 H1510 0.961 . S
C1508 H1511 0.960 . S
H1509 C1508 0.961 . S
H1510 C1508 0.961 . S
H1511 C1508 0.960 . S
C1512 N1513 1.342 . S
C1512 C1516 1.401 . S
C1512 C1517 1.499 . S
N1513 Co1496 1.989 . S
N1513 C1512 1.342 . S
N1513 N1514 1.388 . S
N1514 Co1497 1.993 . S
N1514 N1513 1.388 . S
N1514 C1515 1.346 . S
C1515 N1514 1.346 . S
C1515 C1516 1.396 . S
C1515 C1525 1.510 . S
C1516 C1512 1.401 . S
C1516 C1515 1.396 . S
C1517 C1512 1.499 . S
C1517 H1518 0.959 . S
C1517 H1519 0.960 . S
C1517 H1520 0.961 . S
H1518 C1517 0.959 . S
H1519 C1517 0.960 . S
H1520 C1517 0.961 . S
O1521 Co1496 1.967 . S
O1521 C1529 1.258 . S
O1522 Co1497 1.941 . S
O1522 C1529 1.266 . S
H1523 C1525 0.959 . S
H1524 C1525 0.961 . S
C1525 C1515 1.510 . S
C1525 H1523 0.959 . S
C1525 H1524 0.961 . S
C1525 H1526 0.960 . S
H1526 C1525 0.960 . S
H1527 N1507 0.862 . S
O1528 Co1496 1.920 . S
O1528 C1501 1.289 . S
C1529 O1521 1.258 . S
C1529 O1522 1.266 . S
Co1530 O1533 1.970 . S
Co1530 N1547 1.989 . S
Co1530 O1555 1.967 . S
Co1530 O1562 1.920 . S
Co1531 O1534 1.966 . S
Co1531 N1540 2.022 . S
Co1531 N1548 1.993 . S
Co1531 O1556 1.941 . S
C1532 O1533 1.258 . S
C1532 O1534 1.263 . S
O1533 Co1530 1.970 . S
O1533 C1532 1.258 . S
O1534 Co1531 1.966 . S
O1534 C1532 1.263 . S
C1535 O1536 1.235 . S
C1535 O1562 1.289 . S
O1536 C1535 1.235 . S
C1537 C1539 1.400 . S
C1537 N1540 1.351 . S
C1537 C1542 1.501 . S
C1538 C1539 1.387 . S
C1538 N1541 1.341 . S
C1539 C1537 1.400 . S
C1539 C1538 1.387 . S
N1540 Co1531 2.022 . S
N1540 C1537 1.351 . S
N1540 N1541 1.365 . S
N1541 C1538 1.341 . S
N1541 N1540 1.365 . S
N1541 H1561 0.862 . S
C1542 C1537 1.501 . S
C1542 H1543 0.961 . S
C1542 H1544 0.961 . S
C1542 H1545 0.960 . S
H1543 C1542 0.961 . S
H1544 C1542 0.961 . S
H1545 C1542 0.960 . S
C1546 N1547 1.342 . S
C1546 C1550 1.401 . S
C1546 C1551 1.499 . S
N1547 Co1530 1.989 . S
N1547 C1546 1.342 . S
N1547 N1548 1.388 . S
N1548 Co1531 1.993 . S
N1548 N1547 1.388 . S
N1548 C1549 1.346 . S
C1549 N1548 1.346 . S
C1549 C1550 1.396 . S
C1549 C1559 1.510 . S
C1550 C1546 1.401 . S
C1550 C1549 1.396 . S
C1551 C1546 1.499 . S
C1551 H1552 0.959 . S
C1551 H1553 0.960 . S
C1551 H1554 0.961 . S
H1552 C1551 0.959 . S
H1553 C1551 0.960 . S
H1554 C1551 0.961 . S
O1555 Co1530 1.967 . S
O1555 C1563 1.258 . S
O1556 Co1531 1.941 . S
O1556 C1563 1.266 . S
H1557 C1559 0.959 . S
H1558 C1559 0.961 . S
C1559 C1549 1.510 . S
C1559 H1557 0.959 . S
C1559 H1558 0.961 . S
C1559 H1560 0.960 . S
H1560 C1559 0.960 . S
H1561 N1541 0.862 . S
O1562 Co1530 1.920 . S
O1562 C1535 1.289 . S
C1563 O1555 1.258 . S
C1563 O1556 1.266 . S
Co1564 O1567 1.970 . S
Co1564 N1581 1.989 . S
Co1564 O1589 1.967 . S
Co1564 O1596 1.920 . S
Co1565 O1568 1.966 . S
Co1565 N1574 2.022 . S
Co1565 N1582 1.993 . S
Co1565 O1590 1.941 . S
C1566 O1567 1.258 . S
C1566 O1568 1.263 . S
O1567 Co1564 1.970 . S
O1567 C1566 1.258 . S
O1568 Co1565 1.966 . S
O1568 C1566 1.263 . S
C1569 O1570 1.235 . S
C1569 O1596 1.289 . S
O1570 C1569 1.235 . S
C1571 C1573 1.400 . S
C1571 N1574 1.351 . S
C1571 C1576 1.501 . S
C1572 C1573 1.387 . S
C1572 N1575 1.341 . S
C1573 C1571 1.400 . S
C1573 C1572 1.387 . S
N1574 Co1565 2.022 . S
N1574 C1571 1.351 . S
N1574 N1575 1.365 . S
N1575 C1572 1.341 . S
N1575 N1574 1.365 . S
N1575 H1595 0.862 . S
C1576 C1571 1.501 . S
C1576 H1577 0.961 . S
C1576 H1578 0.961 . S
C1576 H1579 0.960 . S
H1577 C1576 0.961 . S
H1578 C1576 0.961 . S
H1579 C1576 0.960 . S
C1580 N1581 1.342 . S
C1580 C1584 1.401 . S
C1580 C1585 1.499 . S
N1581 Co1564 1.989 . S
N1581 C1580 1.342 . S
N1581 N1582 1.388 . S
N1582 Co1565 1.993 . S
N1582 N1581 1.388 . S
N1582 C1583 1.346 . S
C1583 N1582 1.346 . S
C1583 C1584 1.396 . S
C1583 C1593 1.510 . S
C1584 C1580 1.401 . S
C1584 C1583 1.396 . S
C1585 C1580 1.499 . S
C1585 H1586 0.959 . S
C1585 H1587 0.960 1_545 S
C1585 H1588 0.961 . S
H1586 C1585 0.959 . S
H1587 C1585 0.960 1_565 S
H1588 C1585 0.961 . S
O1589 Co1564 1.967 . S
O1589 C1597 1.258 . S
O1590 Co1565 1.941 . S
O1590 C1597 1.266 . S
H1591 C1593 0.959 . S
H1592 C1593 0.961 . S
C1593 C1583 1.510 . S
C1593 H1591 0.959 . S
C1593 H1592 0.961 . S
C1593 H1594 0.960 . S
H1594 C1593 0.960 . S
H1595 N1575 0.862 . S
O1596 Co1564 1.920 . S
O1596 C1569 1.289 . S
C1597 O1589 1.258 . S
C1597 O1590 1.266 . S
Co1598 O1601 1.970 . S
Co1598 N1615 1.989 . S
Co1598 O1623 1.967 . S
Co1598 O1630 1.920 . S
Co1599 O1602 1.966 . S
Co1599 N1608 2.022 . S
Co1599 N1616 1.993 . S
Co1599 O1624 1.941 . S
C1600 O1601 1.258 . S
C1600 O1602 1.263 . S
O1601 Co1598 1.970 . S
O1601 C1600 1.258 . S
O1602 Co1599 1.966 . S
O1602 C1600 1.263 . S
C1603 O1604 1.235 . S
C1603 O1630 1.289 . S
O1604 C1603 1.235 . S
C1605 C1607 1.400 . S
C1605 N1608 1.351 . S
C1605 C1610 1.501 . S
C1606 C1607 1.387 . S
C1606 N1609 1.341 . S
C1607 C1605 1.400 . S
C1607 C1606 1.387 . S
N1608 Co1599 2.022 . S
N1608 C1605 1.351 . S
N1608 N1609 1.365 . S
N1609 C1606 1.341 . S
N1609 N1608 1.365 . S
N1609 H1629 0.862 1_655 S
C1610 C1605 1.501 . S
C1610 H1611 0.961 . S
C1610 H1612 0.961 . S
C1610 H1613 0.960 . S
H1611 C1610 0.961 . S
H1612 C1610 0.961 . S
H1613 C1610 0.960 . S
C1614 N1615 1.342 . S
C1614 C1618 1.401 . S
C1614 C1619 1.499 . S
N1615 Co1598 1.989 . S
N1615 C1614 1.342 . S
N1615 N1616 1.388 . S
N1616 Co1599 1.993 . S
N1616 N1615 1.388 . S
N1616 C1617 1.346 . S
C1617 N1616 1.346 . S
C1617 C1618 1.396 . S
C1617 C1627 1.510 . S
C1618 C1614 1.401 . S
C1618 C1617 1.396 . S
C1619 C1614 1.499 . S
C1619 H1620 0.959 . S
C1619 H1621 0.960 1_565 S
C1619 H1622 0.961 . S
H1620 C1619 0.959 . S
H1621 C1619 0.960 1_545 S
H1622 C1619 0.961 . S
O1623 Co1598 1.967 . S
O1623 C1631 1.258 . S
O1624 Co1599 1.941 . S
O1624 C1631 1.266 . S
H1625 C1627 0.959 1_455 S
H1626 C1627 0.961 . S
C1627 C1617 1.510 . S
C1627 H1625 0.959 1_655 S
C1627 H1626 0.961 . S
C1627 H1628 0.960 . S
H1628 C1627 0.960 . S
H1629 N1609 0.862 1_455 S
O1630 Co1598 1.920 . S
O1630 C1603 1.289 . S
C1631 O1623 1.258 . S
C1631 O1624 1.266 . S
H1632 C1638 0.930 . S
H1633 C1641 0.930 . S
H1634 C1642 0.930 1_655 S
H1635 C1643 0.930 . S
H1636 C1646 0.930 . S
H1637 C1647 0.930 . S
C1638 H1632 0.930 . S
C1638 C1639 1.355 . S
C1638 C1640 1.415 . S
C1639 C1638 1.355 . S
C1639 C1641 1.419 . S
C1640 C1638 1.415 . S
C1640 C1645 1.425 . S
C1640 C1647 1.409 . S
C1641 H1633 0.930 . S
C1641 C1639 1.419 . S
C1641 C1642 1.362 . S
C1642 H1634 0.930 1_455 S
C1642 C1641 1.362 . S
C1642 C1645 1.409 . S
C1643 H1635 0.930 . S
C1643 C1644 1.355 . S
C1643 C1645 1.415 1_655 S
C1644 C1643 1.355 . S
C1644 C1646 1.419 1_655 S
C1645 C1640 1.425 . S
C1645 C1642 1.409 . S
C1645 C1643 1.415 1_455 S
C1646 H1636 0.930 . S
C1646 C1644 1.419 1_455 S
C1646 C1647 1.362 . S
C1647 H1637 0.930 . S
C1647 C1640 1.409 . S
C1647 C1646 1.362 . S
H1648 C1654 0.930 . S
H1649 C1657 0.930 . S
H1650 C1658 0.930 . S
H1651 C1659 0.930 . S
H1652 C1662 0.930 . S
H1653 C1663 0.930 . S
C1654 H1648 0.930 . S
C1654 C1655 1.355 . S
C1654 C1656 1.415 . S
C1655 C1654 1.355 . S
C1655 C1657 1.419 . S
C1656 C1654 1.415 . S
C1656 C1661 1.425 . S
C1656 C1663 1.409 . S
C1657 H1649 0.930 . S
C1657 C1655 1.419 . S
C1657 C1658 1.362 . S
C1658 H1650 0.930 . S
C1658 C1657 1.362 . S
C1658 C1661 1.409 . S
C1659 H1651 0.930 . S
C1659 C1660 1.355 . S
C1659 C1661 1.415 . S
C1660 C1659 1.355 . S
C1660 C1662 1.419 . S
C1661 C1656 1.425 . S
C1661 C1658 1.409 . S
C1661 C1659 1.415 . S
C1662 H1652 0.930 . S
C1662 C1660 1.419 . S
C1662 C1663 1.362 . S
C1663 H1653 0.930 . S
C1663 C1656 1.409 . S
C1663 C1662 1.362 . S
H1664 C1670 0.930 . S
H1665 C1673 0.930 . S
H1666 C1674 0.930 . S
H1667 C1675 0.930 . S
H1668 C1678 0.930 . S
H1669 C1679 0.930 . S
C1670 H1664 0.930 . S
C1670 C1671 1.355 . S
C1670 C1672 1.415 . S
C1671 C1670 1.355 . S
C1671 C1673 1.419 . S
C1672 C1670 1.415 . S
C1672 C1677 1.425 . S
C1672 C1679 1.409 . S
C1673 H1665 0.930 . S
C1673 C1671 1.419 . S
C1673 C1674 1.362 . S
C1674 H1666 0.930 . S
C1674 C1673 1.362 . S
C1674 C1677 1.409 . S
C1675 H1667 0.930 . S
C1675 C1676 1.355 . S
C1675 C1677 1.415 . S
C1676 C1675 1.355 . S
C1676 C1678 1.419 . S
C1677 C1672 1.425 . S
C1677 C1674 1.409 . S
C1677 C1675 1.415 . S
C1678 H1668 0.930 . S
C1678 C1676 1.419 . S
C1678 C1679 1.362 . S
C1679 H1669 0.930 . S
C1679 C1672 1.409 . S
C1679 C1678 1.362 . S
H1680 C1686 0.930 . S
H1681 C1689 0.930 . S
H1682 C1690 0.930 . S
H1683 C1691 0.930 . S
H1684 C1694 0.930 . S
H1685 C1695 0.930 1_554 S
C1686 H1680 0.930 . S
C1686 C1687 1.355 . S
C1686 C1688 1.415 1_554 S
C1687 C1686 1.355 . S
C1687 C1689 1.419 1_554 S
C1688 C1686 1.415 1_556 S
C1688 C1693 1.425 . S
C1688 C1695 1.409 . S
C1689 H1681 0.930 . S
C1689 C1687 1.419 1_556 S
C1689 C1690 1.362 . S
C1690 H1682 0.930 . S
C1690 C1689 1.362 . S
C1690 C1693 1.409 . S
C1691 H1683 0.930 . S
C1691 C1692 1.355 . S
C1691 C1693 1.415 . S
C1692 C1691 1.355 . S
C1692 C1694 1.419 . S
C1693 C1688 1.425 . S
C1693 C1690 1.409 . S
C1693 C1691 1.415 . S
C1694 H1684 0.930 . S
C1694 C1692 1.419 . S
C1694 C1695 1.362 . S
C1695 H1685 0.930 1_556 S
C1695 C1688 1.409 . S
C1695 C1694 1.362 . S
H1696 C1702 0.930 . S
H1697 C1705 0.930 . S
H1698 C1706 0.938 . S
H1699 C1707 0.930 . S
H1700 C1710 0.930 . S
H1701 C1711 0.930 . S
C1702 H1696 0.930 . S
C1702 C1703 1.355 . S
C1702 C1704 1.415 . S
C1703 C1702 1.355 . S
C1703 C1705 1.419 . S
C1704 C1702 1.415 . S
C1704 C1709 1.425 . S
C1704 C1711 1.409 . S
C1705 H1697 0.930 . S
C1705 C1703 1.419 . S
C1705 C1706 1.362 . S
C1706 H1698 0.938 . S
C1706 C1705 1.362 . S
C1706 C1709 1.409 . S
C1707 H1699 0.930 . S
C1707 C1708 1.355 . S
C1707 C1709 1.415 1_655 S
C1708 C1707 1.355 . S
C1708 C1710 1.419 1_655 S
C1709 C1704 1.425 . S
C1709 C1706 1.409 . S
C1709 C1707 1.415 1_455 S
C1710 H1700 0.930 . S
C1710 C1708 1.419 1_455 S
C1710 C1711 1.362 . S
C1711 H1701 0.930 . S
C1711 C1704 1.409 . S
C1711 C1710 1.362 . S
H1712 C1718 0.930 . S
H1713 C1721 0.930 . S
H1714 C1722 0.930 . S
H1715 C1723 0.930 . S
H1716 C1726 0.930 . S
H1717 C1727 0.930 . S
C1718 H1712 0.930 . S
C1718 C1719 1.355 . S
C1718 C1720 1.415 . S
C1719 C1718 1.355 . S
C1719 C1721 1.419 . S
C1720 C1718 1.415 . S
C1720 C1725 1.425 . S
C1720 C1727 1.409 . S
C1721 H1713 0.930 . S
C1721 C1719 1.419 . S
C1721 C1722 1.362 . S
C1722 H1714 0.930 . S
C1722 C1721 1.362 . S
C1722 C1725 1.409 . S
C1723 H1715 0.930 . S
C1723 C1724 1.355 . S
C1723 C1725 1.415 . S
C1724 C1723 1.355 . S
C1724 C1726 1.419 . S
C1725 C1720 1.425 . S
C1725 C1722 1.409 . S
C1725 C1723 1.415 . S
C1726 H1716 0.930 . S
C1726 C1724 1.419 . S
C1726 C1727 1.362 . S
C1727 H1717 0.930 . S
C1727 C1720 1.409 . S
C1727 C1726 1.362 . S
H1728 C1734 0.930 . S
H1729 C1737 0.930 . S
H1730 C1738 0.930 . S
H1731 C1739 0.930 . S
H1732 C1742 0.930 . S
H1733 C1743 0.930 . S
C1734 H1728 0.930 . S
C1734 C1735 1.355 . S
C1734 C1736 1.415 . S
C1735 C1734 1.355 . S
C1735 C1737 1.419 . S
C1736 C1734 1.415 . S
C1736 C1741 1.425 . S
C1736 C1743 1.409 . S
C1737 H1729 0.930 . S
C1737 C1735 1.419 . S
C1737 C1738 1.362 . S
C1738 H1730 0.930 . S
C1738 C1737 1.362 . S
C1738 C1741 1.409 . S
C1739 H1731 0.930 . S
C1739 C1740 1.355 . S
C1739 C1741 1.415 . S
C1740 C1739 1.355 . S
C1740 C1742 1.419 . S
C1741 C1736 1.425 . S
C1741 C1738 1.409 . S
C1741 C1739 1.415 . S
C1742 H1732 0.930 . S
C1742 C1740 1.419 . S
C1742 C1743 1.362 . S
C1743 H1733 0.930 . S
C1743 C1736 1.409 . S
C1743 C1742 1.362 . S
H1744 C1750 0.929 . S
H1745 C1753 0.930 1_556 S
H1746 C1754 0.930 . S
H1747 C1755 0.930 . S
H1748 C1758 0.930 . S
H1749 C1759 0.930 . S
C1750 H1744 0.929 . S
C1750 C1751 1.355 1_554 S
C1750 C1752 1.415 . S
C1751 C1750 1.355 1_556 S
C1751 C1753 1.419 1_556 S
C1752 C1750 1.415 . S
C1752 C1757 1.425 . S
C1752 C1759 1.409 . S
C1753 H1745 0.930 1_554 S
C1753 C1751 1.419 1_554 S
C1753 C1754 1.362 . S
C1754 H1746 0.930 . S
C1754 C1753 1.362 . S
C1754 C1757 1.409 . S
C1755 H1747 0.930 . S
C1755 C1756 1.355 . S
C1755 C1757 1.415 . S
C1756 C1755 1.355 . S
C1756 C1758 1.419 . S
C1757 C1752 1.425 . S
C1757 C1754 1.409 . S
C1757 C1755 1.415 . S
C1758 H1748 0.930 . S
C1758 C1756 1.419 . S
C1758 C1759 1.362 . S
C1759 H1749 0.930 . S
C1759 C1752 1.409 . S
C1759 C1758 1.362 . S
H1760 C1766 0.930 . S
H1761 C1769 0.930 . S
H1762 C1770 0.930 1_565 S
H1763 C1771 0.930 . S
H1764 C1774 0.930 . S
H1765 C1775 0.930 . S
C1766 H1760 0.930 . S
C1766 C1767 1.355 . S
C1766 C1768 1.415 . S
C1767 C1766 1.355 . S
C1767 C1769 1.419 . S
C1768 C1766 1.415 . S
C1768 C1773 1.425 . S
C1768 C1775 1.409 . S
C1769 H1761 0.930 . S
C1769 C1767 1.419 . S
C1769 C1770 1.362 . S
C1770 H1762 0.930 1_545 S
C1770 C1769 1.362 . S
C1770 C1773 1.409 . S
C1771 H1763 0.930 . S
C1771 C1772 1.355 . S
C1771 C1773 1.415 1_565 S
C1772 C1771 1.355 . S
C1772 C1774 1.419 1_565 S
C1773 C1768 1.425 . S
C1773 C1770 1.409 . S
C1773 C1771 1.415 1_545 S
C1774 H1764 0.930 . S
C1774 C1772 1.419 1_545 S
C1774 C1775 1.362 . S
C1775 H1765 0.930 . S
C1775 C1768 1.409 . S
C1775 C1774 1.362 . S
H1776 C1782 0.930 . S
H1777 C1785 0.930 . S
H1778 C1786 0.930 . S
H1779 C1787 0.930 . S
H1780 C1790 0.930 . S
H1781 C1791 0.930 1_545 S
C1782 H1776 0.930 . S
C1782 C1783 1.355 . S
C1782 C1784 1.415 1_545 S
C1783 C1782 1.355 . S
C1783 C1785 1.419 1_545 S
C1784 C1782 1.415 1_565 S
C1784 C1789 1.425 . S
C1784 C1791 1.409 . S
C1785 H1777 0.930 . S
C1785 C1783 1.419 1_565 S
C1785 C1786 1.362 . S
C1786 H1778 0.930 . S
C1786 C1785 1.362 . S
C1786 C1789 1.409 . S
C1787 H1779 0.930 . S
C1787 C1788 1.355 . S
C1787 C1789 1.415 . S
C1788 C1787 1.355 . S
C1788 C1790 1.419 . S
C1789 C1784 1.425 . S
C1789 C1786 1.409 . S
C1789 C1787 1.415 . S
C1790 H1780 0.930 . S
C1790 C1788 1.419 . S
C1790 C1791 1.362 . S
C1791 H1781 0.930 1_565 S
C1791 C1784 1.409 . S
C1791 C1790 1.362 . S
H1792 C1798 0.930 . S
H1793 C1801 0.930 . S
H1794 C1802 0.930 . S
H1795 C1803 0.930 . S
H1796 C1806 0.930 . S
H1797 C1807 0.930 . S
C1798 H1792 0.930 . S
C1798 C1799 1.355 1_565 S
C1798 C1800 1.415 . S
C1799 C1798 1.355 1_545 S
C1799 C1801 1.419 . S
C1800 C1798 1.415 . S
C1800 C1805 1.425 . S
C1800 C1807 1.409 . S
C1801 H1793 0.930 . S
C1801 C1799 1.419 . S
C1801 C1802 1.362 . S
C1802 H1794 0.930 . S
C1802 C1801 1.362 . S
C1802 C1805 1.409 1_545 S
C1803 H1795 0.930 . S
C1803 C1804 1.355 . S
C1803 C1805 1.415 . S
C1804 C1803 1.355 . S
C1804 C1806 1.419 . S
C1805 C1800 1.425 . S
C1805 C1802 1.409 1_565 S
C1805 C1803 1.415 . S
C1806 H1796 0.930 . S
C1806 C1804 1.419 . S
C1806 C1807 1.362 . S
C1807 H1797 0.930 . S
C1807 C1800 1.409 . S
C1807 C1806 1.362 . S
H1808 C1814 0.930 . S
H1809 C1817 0.930 . S
H1810 C1818 0.930 1_565 S
H1811 C1819 0.930 . S
H1812 C1822 0.930 . S
H1813 C1823 0.930 . S
C1814 H1808 0.930 . S
C1814 C1815 1.355 . S
C1814 C1816 1.415 . S
C1815 C1814 1.355 . S
C1815 C1817 1.419 . S
C1816 C1814 1.415 . S
C1816 C1821 1.425 . S
C1816 C1823 1.409 . S
C1817 H1809 0.930 . S
C1817 C1815 1.419 . S
C1817 C1818 1.362 . S
C1818 H1810 0.930 1_545 S
C1818 C1817 1.362 . S
C1818 C1821 1.409 . S
C1819 H1811 0.930 . S
C1819 C1820 1.355 . S
C1819 C1821 1.415 1_565 S
C1820 C1819 1.355 . S
C1820 C1822 1.419 1_565 S
C1821 C1816 1.425 . S
C1821 C1818 1.409 . S
C1821 C1819 1.415 1_545 S
C1822 H1812 0.930 . S
C1822 C1820 1.419 1_545 S
C1822 C1823 1.362 . S
C1823 H1813 0.930 . S
C1823 C1816 1.409 . S
C1823 C1822 1.362 . S
H1824 C1830 0.930 . S
H1825 C1833 0.930 . S
H1826 C1834 0.930 . S
H1827 C1835 0.930 . S
H1828 C1838 0.930 . S
H1829 C1839 0.930 . S
C1830 H1824 0.930 . S
C1830 C1831 1.355 1_556 S
C1830 C1832 1.415 . S
C1831 C1830 1.355 1_554 S
C1831 C1833 1.419 . S
C1832 C1830 1.415 . S
C1832 C1837 1.425 . S
C1832 C1839 1.409 . S
C1833 H1825 0.930 . S
C1833 C1831 1.419 . S
C1833 C1834 1.362 . S
C1834 H1826 0.930 . S
C1834 C1833 1.362 . S
C1834 C1837 1.409 1_554 S
C1835 H1827 0.930 . S
C1835 C1836 1.355 . S
C1835 C1837 1.415 . S
C1836 C1835 1.355 . S
C1836 C1838 1.419 . S
C1837 C1832 1.425 . S
C1837 C1834 1.409 1_556 S
C1837 C1835 1.415 . S
C1838 H1828 0.930 . S
C1838 C1836 1.419 . S
C1838 C1839 1.362 . S
C1839 H1829 0.930 . S
C1839 C1832 1.409 . S
C1839 C1838 1.362 . S
H1840 C1846 0.930 . S
H1841 C1849 0.930 . S
H1842 C1850 0.930 . S
H1843 C1851 0.930 . S
H1844 C1854 0.930 . S
H1845 C1855 0.930 . S
C1846 H1840 0.930 . S
C1846 C1847 1.355 1_655 S
C1846 C1848 1.415 . S
C1847 C1846 1.355 1_455 S
C1847 C1849 1.419 . S
C1848 C1846 1.415 . S
C1848 C1853 1.425 . S
C1848 C1855 1.409 . S
C1849 H1841 0.930 . S
C1849 C1847 1.419 . S
C1849 C1850 1.362 . S
C1850 H1842 0.930 . S
C1850 C1849 1.362 . S
C1850 C1853 1.409 1_455 S
C1851 H1843 0.930 . S
C1851 C1852 1.355 . S
C1851 C1853 1.415 . S
C1852 C1851 1.355 . S
C1852 C1854 1.419 . S
C1853 C1848 1.425 . S
C1853 C1850 1.409 1_655 S
C1853 C1851 1.415 . S
C1854 H1844 0.930 . S
C1854 C1852 1.419 . S
C1854 C1855 1.362 . S
C1855 H1845 0.930 . S
C1855 C1848 1.409 . S
C1855 C1854 1.362 . S
H1856 C1862 0.930 . S
H1857 C1865 0.930 . S
H1858 C1866 0.930 . S
H1859 C1867 0.930 . S
H1860 C1870 0.930 . S
H1861 C1871 0.930 . S
C1862 H1856 0.930 . S
C1862 C1863 1.355 . S
C1862 C1864 1.415 . S
C1863 C1862 1.355 . S
C1863 C1865 1.419 . S
C1864 C1862 1.415 . S
C1864 C1869 1.425 . S
C1864 C1871 1.409 . S
C1865 H1857 0.930 . S
C1865 C1863 1.419 . S
C1865 C1866 1.362 . S
C1866 H1858 0.930 . S
C1866 C1865 1.362 . S
C1866 C1869 1.409 . S
C1867 H1859 0.930 . S
C1867 C1868 1.355 . S
C1867 C1869 1.415 . S
C1868 C1867 1.355 . S
C1868 C1870 1.419 . S
C1869 C1864 1.425 . S
C1869 C1866 1.409 . S
C1869 C1867 1.415 . S
C1870 H1860 0.930 . S
C1870 C1868 1.419 . S
C1870 C1871 1.362 . S
C1871 H1861 0.930 . S
C1871 C1864 1.409 . S
C1871 C1870 1.362 . S
H1872 C1878 0.930 . S
H1873 C1881 0.930 . S
H1874 C1882 0.930 . S
H1875 C1883 0.930 . S
H1876 C1886 0.930 . S
H1877 C1887 0.930 . S
C1878 H1872 0.930 . S
C1878 C1879 1.355 1_655 S
C1878 C1880 1.415 . S
C1879 C1878 1.355 1_455 S
C1879 C1881 1.419 . S
C1880 C1878 1.415 . S
C1880 C1885 1.425 . S
C1880 C1887 1.409 . S
C1881 H1873 0.930 . S
C1881 C1879 1.419 . S
C1881 C1882 1.362 1_455 S
C1882 H1874 0.930 . S
C1882 C1881 1.362 1_655 S
C1882 C1885 1.409 . S
C1883 H1875 0.930 . S
C1883 C1884 1.355 . S
C1883 C1885 1.415 . S
C1884 C1883 1.355 . S
C1884 C1886 1.419 . S
C1885 C1880 1.425 . S
C1885 C1882 1.409 . S
C1885 C1883 1.415 . S
C1886 H1876 0.930 . S
C1886 C1884 1.419 . S
C1886 C1887 1.362 . S
C1887 H1877 0.930 . S
C1887 C1880 1.409 . S
C1887 C1886 1.362 . S
H1888 C1894 0.930 . S
H1889 C1897 0.930 . S
H1890 C1898 0.930 . S
H1891 C1899 0.930 . S
H1892 C1902 0.930 . S
H1893 C1903 0.930 . S
C1894 H1888 0.930 . S
C1894 C1895 1.355 . S
C1894 C1896 1.415 . S
C1895 C1894 1.355 . S
C1895 C1897 1.419 . S
C1896 C1894 1.415 . S
C1896 C1901 1.425 . S
C1896 C1903 1.409 . S
C1897 H1889 0.930 . S
C1897 C1895 1.419 . S
C1897 C1898 1.362 . S
C1898 H1890 0.930 . S
C1898 C1897 1.362 . S
C1898 C1901 1.409 . S
C1899 H1891 0.930 . S
C1899 C1900 1.355 . S
C1899 C1901 1.415 . S
C1900 C1899 1.355 . S
C1900 C1902 1.419 . S
C1901 C1896 1.425 . S
C1901 C1898 1.409 . S
C1901 C1899 1.415 . S
C1902 H1892 0.930 . S
C1902 C1900 1.419 . S
C1902 C1903 1.362 . S
C1903 H1893 0.930 . S
C1903 C1896 1.409 . S
C1903 C1902 1.362 . S
H1904 C1910 0.930 . S
H1905 C1913 0.930 . S
H1906 C1914 0.930 . S
H1907 C1915 0.930 . S
H1908 C1918 0.930 . S
H1909 C1919 0.930 . S
C1910 H1904 0.930 . S
C1910 C1911 1.355 . S
C1910 C1912 1.415 . S
C1911 C1910 1.355 . S
C1911 C1913 1.419 . S
C1912 C1910 1.415 . S
C1912 C1917 1.425 . S
C1912 C1919 1.409 . S
C1913 H1905 0.930 . S
C1913 C1911 1.419 . S
C1913 C1914 1.362 . S
C1914 H1906 0.930 . S
C1914 C1913 1.362 . S
C1914 C1917 1.409 . S
C1915 H1907 0.930 . S
C1915 C1916 1.355 . S
C1915 C1917 1.415 . S
C1916 C1915 1.355 . S
C1916 C1918 1.419 . S
C1917 C1912 1.425 . S
C1917 C1914 1.409 . S
C1917 C1915 1.415 . S
C1918 H1908 0.930 . S
C1918 C1916 1.419 . S
C1918 C1919 1.362 . S
C1919 H1909 0.930 . S
C1919 C1912 1.409 . S
C1919 C1918 1.362 . S
H1920 C1926 0.930 . S
H1921 C1929 0.930 . S
H1922 C1930 0.914 1_556 S
H1923 C1931 0.930 . S
H1924 C1934 0.930 . S
H1925 C1935 0.930 . S
C1926 H1920 0.930 . S
C1926 C1927 1.355 . S
C1926 C1928 1.415 . S
C1927 C1926 1.355 . S
C1927 C1929 1.419 . S
C1928 C1926 1.415 . S
C1928 C1933 1.425 . S
C1928 C1935 1.409 . S
C1929 H1921 0.930 . S
C1929 C1927 1.419 . S
C1929 C1930 1.362 . S
C1930 H1922 0.914 1_554 S
C1930 C1929 1.362 . S
C1930 C1933 1.409 . S
C1931 H1923 0.930 . S
C1931 C1932 1.355 . S
C1931 C1933 1.415 1_556 S
C1932 C1931 1.355 . S
C1932 C1934 1.419 1_556 S
C1933 C1928 1.425 . S
C1933 C1930 1.409 . S
C1933 C1931 1.415 1_554 S
C1934 H1924 0.930 . S
C1934 C1932 1.419 1_554 S
C1934 C1935 1.362 . S
C1935 H1925 0.930 . S
C1935 C1928 1.409 . S
C1935 C1934 1.362 . S
H1936 C1942 0.930 . S
H1937 C1945 0.930 . S
H1938 C1946 0.930 . S
H1939 C1947 0.930 . S
H1940 C1950 0.930 . S
H1941 C1951 0.930 . S
C1942 H1936 0.930 . S
C1942 C1943 1.355 . S
C1942 C1944 1.415 . S
C1943 C1942 1.355 . S
C1943 C1945 1.419 . S
C1944 C1942 1.415 . S
C1944 C1949 1.425 . S
C1944 C1951 1.409 . S
C1945 H1937 0.930 . S
C1945 C1943 1.419 . S
C1945 C1946 1.362 . S
C1946 H1938 0.930 . S
C1946 C1945 1.362 . S
C1946 C1949 1.409 . S
C1947 H1939 0.930 . S
C1947 C1948 1.355 . S
C1947 C1949 1.415 . S
C1948 C1947 1.355 . S
C1948 C1950 1.419 . S
C1949 C1944 1.425 . S
C1949 C1946 1.409 . S
C1949 C1947 1.415 . S
C1950 H1940 0.930 . S
C1950 C1948 1.419 . S
C1950 C1951 1.362 . S
C1951 H1941 0.930 . S
C1951 C1944 1.409 . S
C1951 C1950 1.362 . S
H1952 C1958 0.930 . S
H1953 C1961 0.930 . S
H1954 C1962 0.930 . S
H1955 C1963 0.930 . S
H1956 C1966 0.930 . S
H1957 C1967 0.930 . S
C1958 H1952 0.930 . S
C1958 C1959 1.355 . S
C1958 C1960 1.415 . S
C1959 C1958 1.355 . S
C1959 C1961 1.419 . S
C1960 C1958 1.415 . S
C1960 C1965 1.425 . S
C1960 C1967 1.409 . S
C1961 H1953 0.930 . S
C1961 C1959 1.419 . S
C1961 C1962 1.362 . S
C1962 H1954 0.930 . S
C1962 C1961 1.362 . S
C1962 C1965 1.409 . S
C1963 H1955 0.930 . S
C1963 C1964 1.355 . S
C1963 C1965 1.415 . S
C1964 C1963 1.355 . S
C1964 C1966 1.419 . S
C1965 C1960 1.425 . S
C1965 C1962 1.409 . S
C1965 C1963 1.415 . S
C1966 H1956 0.930 . S
C1966 C1964 1.419 . S
C1966 C1967 1.362 . S
C1967 H1957 0.930 . S
C1967 C1960 1.409 . S
C1967 C1966 1.362 . S
H1968 C1974 0.930 . S
H1969 C1977 0.930 . S
H1970 C1978 0.930 . S
H1971 C1979 0.930 . S
H1972 C1982 0.930 . S
H1973 C1983 0.930 . S
C1974 H1968 0.930 . S
C1974 C1975 1.355 . S
C1974 C1976 1.415 . S
C1975 C1974 1.355 . S
C1975 C1977 1.419 . S
C1976 C1974 1.415 . S
C1976 C1981 1.425 . S
C1976 C1983 1.409 . S
C1977 H1969 0.930 . S
C1977 C1975 1.419 . S
C1977 C1978 1.362 . S
C1978 H1970 0.930 . S
C1978 C1977 1.362 . S
C1978 C1981 1.409 . S
C1979 H1971 0.930 . S
C1979 C1980 1.355 . S
C1979 C1981 1.415 . S
C1980 C1979 1.355 . S
C1980 C1982 1.419 . S
C1981 C1976 1.425 . S
C1981 C1978 1.409 . S
C1981 C1979 1.415 . S
C1982 H1972 0.930 . S
C1982 C1980 1.419 . S
C1982 C1983 1.362 . S
C1983 H1973 0.930 . S
C1983 C1976 1.409 . S
C1983 C1982 1.362 . S
H1984 C1990 0.930 . S
H1985 C1993 0.930 . S
H1986 C1994 0.930 . S
H1987 C1995 0.930 . S
H1988 C1998 0.930 . S
H1989 C1999 0.930 . S
C1990 H1984 0.930 . S
C1990 C1991 1.355 . S
C1990 C1992 1.415 . S
C1991 C1990 1.355 . S
C1991 C1993 1.419 . S
C1992 C1990 1.415 . S
C1992 C1997 1.425 . S
C1992 C1999 1.409 . S
C1993 H1985 0.930 . S
C1993 C1991 1.419 . S
C1993 C1994 1.362 . S
C1994 H1986 0.930 . S
C1994 C1993 1.362 . S
C1994 C1997 1.409 . S
C1995 H1987 0.930 . S
C1995 C1996 1.355 . S
C1995 C1997 1.415 . S
C1996 C1995 1.355 . S
C1996 C1998 1.419 . S
C1997 C1992 1.425 . S
C1997 C1994 1.409 . S
C1997 C1995 1.415 . S
C1998 H1988 0.930 . S
C1998 C1996 1.419 . S
C1998 C1999 1.362 . S
C1999 H1989 0.930 . S
C1999 C1992 1.409 . S
C1999 C1998 1.362 . S
H2000 C2006 0.930 . S
H2001 C2009 0.930 . S
H2002 C2010 0.930 . S
H2003 C2011 0.930 . S
H2004 C2014 0.930 . S
H2005 C2015 0.930 . S
C2006 H2000 0.930 . S
C2006 C2007 1.355 . S
C2006 C2008 1.415 . S
C2007 C2006 1.355 . S
C2007 C2009 1.419 . S
C2008 C2006 1.415 . S
C2008 C2013 1.425 . S
C2008 C2015 1.409 . S
C2009 H2001 0.930 . S
C2009 C2007 1.419 . S
C2009 C2010 1.362 . S
C2010 H2002 0.930 . S
C2010 C2009 1.362 . S
C2010 C2013 1.409 . S
C2011 H2003 0.930 . S
C2011 C2012 1.355 . S
C2011 C2013 1.415 . S
C2012 C2011 1.355 . S
C2012 C2014 1.419 . S
C2013 C2008 1.425 . S
C2013 C2010 1.409 . S
C2013 C2011 1.415 . S
C2014 H2004 0.930 . S
C2014 C2012 1.419 . S
C2014 C2015 1.362 . S
C2015 H2005 0.930 . S
C2015 C2008 1.409 . S
C2015 C2014 1.362 . S
H2016 C2022 0.930 . S
H2017 C2025 0.930 . S
H2018 C2026 0.930 . S
H2019 C2027 0.930 . S
H2020 C2030 0.930 . S
H2021 C2031 0.930 . S
C2022 H2016 0.930 . S
C2022 C2023 1.355 . S
C2022 C2024 1.415 . S
C2023 C2022 1.355 . S
C2023 C2025 1.419 . S
C2024 C2022 1.415 . S
C2024 C2029 1.425 . S
C2024 C2031 1.409 . S
C2025 H2017 0.930 . S
C2025 C2023 1.419 . S
C2025 C2026 1.362 . S
C2026 H2018 0.930 . S
C2026 C2025 1.362 . S
C2026 C2029 1.409 . S
C2027 H2019 0.930 . S
C2027 C2028 1.355 . S
C2027 C2029 1.415 . S
C2028 C2027 1.355 . S
C2028 C2030 1.419 . S
C2029 C2024 1.425 . S
C2029 C2026 1.409 . S
C2029 C2027 1.415 . S
C2030 H2020 0.930 . S
C2030 C2028 1.419 . S
C2030 C2031 1.362 . S
C2031 H2021 0.930 . S
C2031 C2024 1.409 . S
C2031 C2030 1.362 . S
H2032 C2038 0.930 1_455 S
H2033 C2041 0.930 . S
H2034 C2042 0.930 . S
H2035 C2043 0.930 . S
H2036 C2046 0.930 . S
H2037 C2047 0.930 . S
C2038 H2032 0.930 1_655 S
C2038 C2039 1.355 . S
C2038 C2040 1.415 1_655 S
C2039 C2038 1.355 . S
C2039 C2041 1.419 . S
C2040 C2038 1.415 1_455 S
C2040 C2045 1.425 1_455 S
C2040 C2047 1.409 . S
C2041 H2033 0.930 . S
C2041 C2039 1.419 . S
C2041 C2042 1.362 . S
C2042 H2034 0.930 . S
C2042 C2041 1.362 . S
C2042 C2045 1.409 . S
C2043 H2035 0.930 . S
C2043 C2044 1.355 1_655 S
C2043 C2045 1.415 . S
C2044 C2043 1.355 1_455 S
C2044 C2046 1.419 . S
C2045 C2040 1.425 1_655 S
C2045 C2042 1.409 . S
C2045 C2043 1.415 . S
C2046 H2036 0.930 . S
C2046 C2044 1.419 . S
C2046 C2047 1.362 . S
C2047 H2037 0.930 . S
C2047 C2040 1.409 . S
C2047 C2046 1.362 . S
H2048 C2054 0.930 . S
H2049 C2057 0.930 . S
H2050 C2058 0.930 . S
H2051 C2059 0.930 . S
H2052 C2062 0.930 . S
H2053 C2063 0.930 . S
C2054 H2048 0.930 . S
C2054 C2055 1.355 . S
C2054 C2056 1.415 . S
C2055 C2054 1.355 . S
C2055 C2057 1.419 . S
C2056 C2054 1.415 . S
C2056 C2061 1.425 . S
C2056 C2063 1.409 . S
C2057 H2049 0.930 . S
C2057 C2055 1.419 . S
C2057 C2058 1.362 . S
C2058 H2050 0.930 . S
C2058 C2057 1.362 . S
C2058 C2061 1.409 . S
C2059 H2051 0.930 . S
C2059 C2060 1.355 . S
C2059 C2061 1.415 . S
C2060 C2059 1.355 . S
C2060 C2062 1.419 . S
C2061 C2056 1.425 . S
C2061 C2058 1.409 . S
C2061 C2059 1.415 . S
C2062 H2052 0.930 . S
C2062 C2060 1.419 . S
C2062 C2063 1.362 . S
C2063 H2053 0.930 . S
C2063 C2056 1.409 . S
C2063 C2062 1.362 . S
H2064 C2070 0.930 1_554 S
H2065 C2073 0.930 . S
H2066 C2074 0.930 . S
H2067 C2075 0.930 . S
H2068 C2078 0.930 . S
H2069 C2079 0.930 . S
C2070 H2064 0.930 1_556 S
C2070 C2071 1.355 1_556 S
C2070 C2072 1.415 . S
C2071 C2070 1.355 1_554 S
C2071 C2073 1.419 1_554 S
C2072 C2070 1.415 . S
C2072 C2077 1.425 . S
C2072 C2079 1.409 . S
C2073 H2065 0.930 . S
C2073 C2071 1.419 1_556 S
C2073 C2074 1.362 . S
C2074 H2066 0.930 . S
C2074 C2073 1.362 . S
C2074 C2077 1.409 . S
C2075 H2067 0.930 . S
C2075 C2076 1.355 . S
C2075 C2077 1.415 . S
C2076 C2075 1.355 . S
C2076 C2078 1.419 . S
C2077 C2072 1.425 . S
C2077 C2074 1.409 . S
C2077 C2075 1.415 . S
C2078 H2068 0.930 . S
C2078 C2076 1.419 . S
C2078 C2079 1.362 . S
C2079 H2069 0.930 . S
C2079 C2072 1.409 . S
C2079 C2078 1.362 . S
H2080 C2086 0.930 . S
H2081 C2089 0.930 . S
H2082 C2090 0.930 . S
H2083 C2091 0.930 . S
H2084 C2094 0.930 . S
H2085 C2095 0.930 . S
C2086 H2080 0.930 . S
C2086 C2087 1.355 . S
C2086 C2088 1.415 . S
C2087 C2086 1.355 . S
C2087 C2089 1.419 . S
C2088 C2086 1.415 . S
C2088 C2093 1.425 . S
C2088 C2095 1.409 . S
C2089 H2081 0.930 . S
C2089 C2087 1.419 . S
C2089 C2090 1.362 . S
C2090 H2082 0.930 . S
C2090 C2089 1.362 . S
C2090 C2093 1.409 . S
C2091 H2083 0.930 . S
C2091 C2092 1.355 . S
C2091 C2093 1.415 . S
C2092 C2091 1.355 . S
C2092 C2094 1.419 . S
C2093 C2088 1.425 . S
C2093 C2090 1.409 . S
C2093 C2091 1.415 . S
C2094 H2084 0.930 . S
C2094 C2092 1.419 . S
C2094 C2095 1.362 . S
C2095 H2085 0.930 . S
C2095 C2088 1.409 . S
C2095 C2094 1.362 . S
H2096 C2102 0.930 . S
H2097 C2105 0.930 . S
H2098 C2106 0.930 . S
H2099 C2107 0.930 . S
H2100 C2110 0.930 . S
H2101 C2111 0.930 . S
C2102 H2096 0.930 . S
C2102 C2103 1.355 . S
C2102 C2104 1.415 . S
C2103 C2102 1.355 . S
C2103 C2105 1.419 . S
C2104 C2102 1.415 . S
C2104 C2109 1.425 . S
C2104 C2111 1.409 . S
C2105 H2097 0.930 . S
C2105 C2103 1.419 . S
C2105 C2106 1.362 . S
C2106 H2098 0.930 . S
C2106 C2105 1.362 . S
C2106 C2109 1.409 . S
C2107 H2099 0.930 . S
C2107 C2108 1.355 . S
C2107 C2109 1.415 . S
C2108 C2107 1.355 . S
C2108 C2110 1.419 . S
C2109 C2104 1.425 . S
C2109 C2106 1.409 . S
C2109 C2107 1.415 . S
C2110 H2100 0.930 . S
C2110 C2108 1.419 . S
C2110 C2111 1.362 . S
C2111 H2101 0.930 . S
C2111 C2104 1.409 . S
C2111 C2110 1.362 . S
H2112 C2118 0.930 . S
H2113 C2121 0.930 . S
H2114 C2122 0.930 . S
H2115 C2123 0.930 . S
H2116 C2126 0.930 . S
H2117 C2127 0.930 . S
C2118 H2112 0.930 . S
C2118 C2119 1.355 . S
C2118 C2120 1.415 . S
C2119 C2118 1.355 . S
C2119 C2121 1.419 . S
C2120 C2118 1.415 . S
C2120 C2125 1.425 . S
C2120 C2127 1.409 . S
C2121 H2113 0.930 . S
C2121 C2119 1.419 . S
C2121 C2122 1.362 . S
C2122 H2114 0.930 . S
C2122 C2121 1.362 . S
C2122 C2125 1.409 . S
C2123 H2115 0.930 . S
C2123 C2124 1.355 . S
C2123 C2125 1.415 . S
C2124 C2123 1.355 . S
C2124 C2126 1.419 . S
C2125 C2120 1.425 . S
C2125 C2122 1.409 . S
C2125 C2123 1.415 . S
C2126 H2116 0.930 . S
C2126 C2124 1.419 . S
C2126 C2127 1.362 . S
C2127 H2117 0.930 . S
C2127 C2120 1.409 . S
C2127 C2126 1.362 . S
H2128 C2134 0.907 1_556 S
H2129 C2137 0.930 . S
H2130 C2138 0.930 . S
H2131 C2139 0.930 1_455 S
H2132 C2142 0.930 . S
H2133 C2143 0.930 . S
C2134 H2128 0.907 1_554 S
C2134 C2135 1.350 1_654 S
C2134 C2136 1.441 . S
C2135 C2134 1.350 1_456 S
C2135 C2137 1.419 1_556 S
C2136 C2134 1.441 . S
C2136 C2141 1.425 1_655 S
C2136 C2143 1.409 . S
C2137 H2129 0.930 . S
C2137 C2135 1.419 1_554 S
C2137 C2138 1.362 . S
C2138 H2130 0.930 . S
C2138 C2137 1.362 . S
C2138 C2141 1.409 . S
C2139 H2131 0.930 1_655 S
C2139 C2140 1.355 . S
C2139 C2141 1.415 1_655 S
C2140 C2139 1.355 . S
C2140 C2142 1.419 . S
C2141 C2136 1.425 1_455 S
C2141 C2138 1.409 . S
C2141 C2139 1.415 1_455 S
C2142 H2132 0.930 . S
C2142 C2140 1.419 . S
C2142 C2143 1.362 . S
C2143 H2133 0.930 . S
C2143 C2136 1.409 . S
C2143 C2142 1.362 . S
H2144 C2150 0.930 . S
H2145 C2153 0.930 . S
H2146 C2154 0.930 . S
H2147 C2155 0.930 . S
H2148 C2158 0.930 . S
H2149 C2159 0.930 . S
C2150 H2144 0.930 . S
C2150 C2151 1.355 . S
C2150 C2152 1.415 . S
C2151 C2150 1.355 . S
C2151 C2153 1.419 . S
C2152 C2150 1.415 . S
C2152 C2157 1.425 . S
C2152 C2159 1.409 . S
C2153 H2145 0.930 . S
C2153 C2151 1.419 . S
C2153 C2154 1.362 . S
C2154 H2146 0.930 . S
C2154 C2153 1.362 . S
C2154 C2157 1.409 . S
C2155 H2147 0.930 . S
C2155 C2156 1.355 . S
C2155 C2157 1.415 . S
C2156 C2155 1.355 . S
C2156 C2158 1.419 . S
C2157 C2152 1.425 . S
C2157 C2154 1.409 . S
C2157 C2155 1.415 . S
C2158 H2148 0.930 . S
C2158 C2156 1.419 . S
C2158 C2159 1.362 . S
C2159 H2149 0.930 . S
C2159 C2152 1.409 . S
C2159 C2158 1.362 . S
H2160 C2166 0.930 . S
H2161 C2169 0.930 . S
H2162 C2170 0.930 . S
H2163 C2171 0.930 1_545 S
H2164 C2174 0.930 . S
H2165 C2175 0.930 . S
C2166 H2160 0.930 . S
C2166 C2167 1.355 . S
C2166 C2168 1.415 . S
C2167 C2166 1.355 . S
C2167 C2169 1.419 . S
C2168 C2166 1.415 . S
C2168 C2173 1.425 . S
C2168 C2175 1.409 . S
C2169 H2161 0.930 . S
C2169 C2167 1.419 . S
C2169 C2170 1.362 . S
C2170 H2162 0.930 . S
C2170 C2169 1.362 . S
C2170 C2173 1.409 . S
C2171 H2163 0.930 1_565 S
C2171 C2172 1.355 1_565 S
C2171 C2173 1.415 . S
C2172 C2171 1.355 1_545 S
C2172 C2174 1.419 1_545 S
C2173 C2168 1.425 . S
C2173 C2170 1.409 . S
C2173 C2171 1.415 . S
C2174 H2164 0.930 . S
C2174 C2172 1.419 1_565 S
C2174 C2175 1.362 . S
C2175 H2165 0.930 . S
C2175 C2168 1.409 . S
C2175 C2174 1.362 . S
H2176 C2182 0.930 . S
H2177 C2185 0.930 . S
H2178 C2186 0.930 . S
H2179 C2187 0.930 . S
H2180 C2190 0.930 . S
H2181 C2191 0.930 . S
C2182 H2176 0.930 . S
C2182 C2183 1.355 . S
C2182 C2184 1.415 . S
C2183 C2182 1.355 . S
C2183 C2185 1.419 . S
C2184 C2182 1.415 . S
C2184 C2189 1.425 . S
C2184 C2191 1.409 . S
C2185 H2177 0.930 . S
C2185 C2183 1.419 . S
C2185 C2186 1.362 . S
C2186 H2178 0.930 . S
C2186 C2185 1.362 . S
C2186 C2189 1.409 . S
C2187 H2179 0.930 . S
C2187 C2188 1.355 . S
C2187 C2189 1.415 . S
C2188 C2187 1.355 . S
C2188 C2190 1.419 . S
C2189 C2184 1.425 . S
C2189 C2186 1.409 . S
C2189 C2187 1.415 . S
C2190 H2180 0.930 . S
C2190 C2188 1.419 . S
C2190 C2191 1.362 . S
C2191 H2181 0.930 . S
C2191 C2184 1.409 . S
C2191 C2190 1.362 . S
H2192 C2198 0.930 1_556 S
H2193 C2201 0.930 . S
H2194 C2202 0.930 . S
H2195 C2203 0.923 1_565 S
H2196 C2206 0.930 . S
H2197 C2207 0.930 . S
C2198 H2192 0.930 1_554 S
C2198 C2199 1.355 . S
C2198 C2200 1.415 1_554 S
C2199 C2198 1.355 . S
C2199 C2201 1.419 . S
C2200 C2198 1.415 1_556 S
C2200 C2205 1.425 1_556 S
C2200 C2207 1.409 . S
C2201 H2193 0.930 . S
C2201 C2199 1.419 . S
C2201 C2202 1.362 . S
C2202 H2194 0.930 . S
C2202 C2201 1.362 . S
C2202 C2205 1.409 . S
C2203 H2195 0.923 1_545 S
C2203 C2204 1.353 1_544 S
C2203 C2205 1.422 . S
C2204 C2203 1.353 1_566 S
C2204 C2206 1.419 1_565 S
C2205 C2200 1.425 1_554 S
C2205 C2202 1.409 . S
C2205 C2203 1.422 . S
C2206 H2196 0.930 . S
C2206 C2204 1.419 1_545 S
C2206 C2207 1.362 . S
C2207 H2197 0.930 . S
C2207 C2200 1.409 . S
C2207 C2206 1.362 . S
H2208 C2214 0.930 . S
H2209 C2217 0.930 . S
H2210 C2218 0.930 . S
H2211 C2219 0.930 . S
H2212 C2222 0.930 . S
H2213 C2223 0.930 . S
C2214 H2208 0.930 . S
C2214 C2215 1.355 . S
C2214 C2216 1.415 . S
C2215 C2214 1.355 . S
C2215 C2217 1.419 . S
C2216 C2214 1.415 . S
C2216 C2221 1.425 . S
C2216 C2223 1.409 . S
C2217 H2209 0.930 . S
C2217 C2215 1.419 . S
C2217 C2218 1.362 . S
C2218 H2210 0.930 . S
C2218 C2217 1.362 . S
C2218 C2221 1.409 . S
C2219 H2211 0.930 . S
C2219 C2220 1.355 . S
C2219 C2221 1.415 . S
C2220 C2219 1.355 . S
C2220 C2222 1.419 . S
C2221 C2216 1.425 . S
C2221 C2218 1.409 . S
C2221 C2219 1.415 . S
C2222 H2212 0.930 . S
C2222 C2220 1.419 . S
C2222 C2223 1.362 . S
C2223 H2213 0.930 . S
C2223 C2216 1.409 . S
C2223 C2222 1.362 . S
H2224 C2230 0.930 . S
H2225 C2233 0.930 . S
H2226 C2234 0.930 . S
H2227 C2235 0.930 . S
H2228 C2238 0.930 . S
H2229 C2239 0.930 . S
C2230 H2224 0.930 . S
C2230 C2231 1.355 1_565 S
C2230 C2232 1.415 . S
C2231 C2230 1.355 1_545 S
C2231 C2233 1.419 . S
C2232 C2230 1.415 . S
C2232 C2237 1.425 . S
C2232 C2239 1.409 . S
C2233 H2225 0.930 . S
C2233 C2231 1.419 . S
C2233 C2234 1.362 1_545 S
C2234 H2226 0.930 . S
C2234 C2233 1.362 1_565 S
C2234 C2237 1.409 . S
C2235 H2227 0.930 . S
C2235 C2236 1.355 . S
C2235 C2237 1.415 . S
C2236 C2235 1.355 . S
C2236 C2238 1.419 . S
C2237 C2232 1.425 . S
C2237 C2234 1.409 . S
C2237 C2235 1.415 . S
C2238 H2228 0.930 . S
C2238 C2236 1.419 . S
C2238 C2239 1.362 . S
C2239 H2229 0.930 . S
C2239 C2232 1.409 . S
C2239 C2238 1.362 . S
H2240 C2246 0.930 . S
H2241 C2249 0.930 . S
H2242 C2250 0.930 . S
H2243 C2251 0.930 . S
H2244 C2254 0.930 . S
H2245 C2255 0.930 . S
C2246 H2240 0.930 . S
C2246 C2247 1.355 . S
C2246 C2248 1.415 . S
C2247 C2246 1.355 . S
C2247 C2249 1.419 . S
C2248 C2246 1.415 . S
C2248 C2253 1.425 . S
C2248 C2255 1.409 . S
C2249 H2241 0.930 . S
C2249 C2247 1.419 . S
C2249 C2250 1.362 . S
C2250 H2242 0.930 . S
C2250 C2249 1.362 . S
C2250 C2253 1.409 . S
C2251 H2243 0.930 . S
C2251 C2252 1.355 . S
C2251 C2253 1.415 . S
C2252 C2251 1.355 . S
C2252 C2254 1.419 . S
C2253 C2248 1.425 . S
C2253 C2250 1.409 . S
C2253 C2251 1.415 . S
C2254 H2244 0.930 . S
C2254 C2252 1.419 . S
C2254 C2255 1.362 . S
C2255 H2245 0.930 . S
C2255 C2248 1.409 . S
C2255 C2254 1.362 . S
H2256 C2262 0.930 . S
H2257 C2265 0.930 . S
H2258 C2266 0.930 . S
H2259 C2267 0.930 . S
H2260 C2270 0.930 . S
H2261 C2271 0.930 . S
C2262 H2256 0.930 . S
C2262 C2263 1.355 1_545 S
C2262 C2264 1.415 . S
C2263 C2262 1.355 1_565 S
C2263 C2265 1.419 1_554 S
C2264 C2262 1.415 . S
C2264 C2269 1.425 1_554 S
C2264 C2271 1.409 . S
C2265 H2257 0.930 . S
C2265 C2263 1.419 1_556 S
C2265 C2266 1.362 1_565 S
C2266 H2258 0.930 . S
C2266 C2265 1.362 1_545 S
C2266 C2269 1.409 . S
C2267 H2259 0.930 . S
C2267 C2268 1.355 . S
C2267 C2269 1.415 . S
C2268 C2267 1.355 . S
C2268 C2270 1.419 . S
C2269 C2264 1.425 1_556 S
C2269 C2266 1.409 . S
C2269 C2267 1.415 . S
C2270 H2260 0.930 . S
C2270 C2268 1.419 . S
C2270 C2271 1.362 1_556 S
C2271 H2261 0.930 . S
C2271 C2264 1.409 . S
C2271 C2270 1.362 1_554 S
H2272 C2278 0.930 . S
H2273 C2281 0.930 . S
H2274 C2282 0.930 . S
H2275 C2283 0.930 . S
H2276 C2286 0.930 . S
H2277 C2287 0.930 . S
C2278 H2272 0.930 . S
C2278 C2279 1.355 . S
C2278 C2280 1.415 . S
C2279 C2278 1.355 . S
C2279 C2281 1.419 . S
C2280 C2278 1.415 . S
C2280 C2285 1.425 . S
C2280 C2287 1.409 . S
C2281 H2273 0.930 . S
C2281 C2279 1.419 . S
C2281 C2282 1.362 . S
C2282 H2274 0.930 . S
C2282 C2281 1.362 . S
C2282 C2285 1.409 . S
C2283 H2275 0.930 . S
C2283 C2284 1.355 . S
C2283 C2285 1.415 . S
C2284 C2283 1.355 . S
C2284 C2286 1.419 . S
C2285 C2280 1.425 . S
C2285 C2282 1.409 . S
C2285 C2283 1.415 . S
C2286 H2276 0.930 . S
C2286 C2284 1.419 . S
C2286 C2287 1.362 . S
C2287 H2277 0.930 . S
C2287 C2280 1.409 . S
C2287 C2286 1.362 . S
H2288 C2294 0.930 . S
H2289 C2297 0.930 . S
H2290 C2298 0.930 . S
H2291 C2299 0.930 . S
H2292 C2302 0.930 . S
H2293 C2303 0.930 . S
C2294 H2288 0.930 . S
C2294 C2295 1.355 . S
C2294 C2296 1.415 . S
C2295 C2294 1.355 . S
C2295 C2297 1.419 . S
C2296 C2294 1.415 . S
C2296 C2301 1.425 . S
C2296 C2303 1.409 . S
C2297 H2289 0.930 . S
C2297 C2295 1.419 . S
C2297 C2298 1.362 . S
C2298 H2290 0.930 . S
C2298 C2297 1.362 . S
C2298 C2301 1.409 . S
C2299 H2291 0.930 . S
C2299 C2300 1.355 . S
C2299 C2301 1.415 . S
C2300 C2299 1.355 . S
C2300 C2302 1.419 . S
C2301 C2296 1.425 . S
C2301 C2298 1.409 . S
C2301 C2299 1.415 . S
C2302 H2292 0.930 . S
C2302 C2300 1.419 . S
C2302 C2303 1.362 . S
C2303 H2293 0.930 . S
C2303 C2296 1.409 . S
C2303 C2302 1.362 . S
H2304 C2310 0.930 . S
H2305 C2313 0.930 . S
H2306 C2314 0.930 . S
H2307 C2315 0.930 . S
H2308 C2318 0.930 . S
H2309 C2319 0.930 . S
C2310 H2304 0.930 . S
C2310 C2311 1.355 1_655 S
C2310 C2312 1.415 . S
C2311 C2310 1.355 1_455 S
C2311 C2313 1.419 . S
C2312 C2310 1.415 . S
C2312 C2317 1.425 . S
C2312 C2319 1.409 . S
C2313 H2305 0.930 . S
C2313 C2311 1.419 . S
C2313 C2314 1.362 1_455 S
C2314 H2306 0.930 . S
C2314 C2313 1.362 1_655 S
C2314 C2317 1.409 . S
C2315 H2307 0.930 . S
C2315 C2316 1.355 . S
C2315 C2317 1.415 . S
C2316 C2315 1.355 . S
C2316 C2318 1.419 . S
C2317 C2312 1.425 . S
C2317 C2314 1.409 . S
C2317 C2315 1.415 . S
C2318 H2308 0.930 . S
C2318 C2316 1.419 . S
C2318 C2319 1.362 . S
C2319 H2309 0.930 . S
C2319 C2312 1.409 . S
C2319 C2318 1.362 . S
H2320 C2326 0.930 . S
H2321 C2329 0.930 . S
H2322 C2330 0.930 . S
H2323 C2331 0.930 . S
H2324 C2334 0.930 . S
H2325 C2335 0.930 . S
C2326 H2320 0.930 . S
C2326 C2327 1.355 . S
C2326 C2328 1.415 . S
C2327 C2326 1.355 . S
C2327 C2329 1.419 . S
C2328 C2326 1.415 . S
C2328 C2333 1.425 . S
C2328 C2335 1.409 . S
C2329 H2321 0.930 . S
C2329 C2327 1.419 . S
C2329 C2330 1.362 . S
C2330 H2322 0.930 . S
C2330 C2329 1.362 . S
C2330 C2333 1.409 . S
C2331 H2323 0.930 . S
C2331 C2332 1.355 . S
C2331 C2333 1.415 . S
C2332 C2331 1.355 . S
C2332 C2334 1.419 . S
C2333 C2328 1.425 . S
C2333 C2330 1.409 . S
C2333 C2331 1.415 . S
C2334 H2324 0.930 . S
C2334 C2332 1.419 . S
C2334 C2335 1.362 . S
C2335 H2325 0.930 . S
C2335 C2328 1.409 . S
C2335 C2334 1.362 . S
H2336 C2342 0.930 1_655 S
H2337 C2345 0.930 . S
H2338 C2346 0.930 . S
H2339 C2347 0.930 1_545 S
H2340 C2350 0.930 . S
H2341 C2351 0.930 . S
C2342 H2336 0.930 1_455 S
C2342 C2343 1.355 1_465 S
C2342 C2344 1.415 . S
C2343 C2342 1.355 1_645 S
C2343 C2345 1.419 1_655 S
C2344 C2342 1.415 . S
C2344 C2349 1.425 1_565 S
C2344 C2351 1.409 . S
C2345 H2337 0.930 . S
C2345 C2343 1.419 1_455 S
C2345 C2346 1.362 . S
C2346 H2338 0.930 . S
C2346 C2345 1.362 . S
C2346 C2349 1.409 . S
C2347 H2339 0.930 1_565 S
C2347 C2348 1.355 . S
C2347 C2349 1.415 1_565 S
C2348 C2347 1.355 . S
C2348 C2350 1.419 . S
C2349 C2344 1.425 1_545 S
C2349 C2346 1.409 . S
C2349 C2347 1.415 1_545 S
C2350 H2340 0.930 . S
C2350 C2348 1.419 . S
C2350 C2351 1.362 . S
C2351 H2341 0.930 . S
C2351 C2344 1.409 . S
C2351 C2350 1.362 . S
H2352 C2358 0.930 . S
H2353 C2361 0.930 . S
H2354 C2362 0.930 . S
H2355 C2363 0.930 . S
H2356 C2366 0.930 . S
H2357 C2367 0.930 . S
C2358 H2352 0.930 . S
C2358 C2359 1.355 . S
C2358 C2360 1.415 . S
C2359 C2358 1.355 . S
C2359 C2361 1.419 . S
C2360 C2358 1.415 . S
C2360 C2365 1.425 . S
C2360 C2367 1.409 . S
C2361 H2353 0.930 . S
C2361 C2359 1.419 . S
C2361 C2362 1.362 . S
C2362 H2354 0.930 . S
C2362 C2361 1.362 . S
C2362 C2365 1.409 . S
C2363 H2355 0.930 . S
C2363 C2364 1.355 . S
C2363 C2365 1.415 . S
C2364 C2363 1.355 . S
C2364 C2366 1.419 . S
C2365 C2360 1.425 . S
C2365 C2362 1.409 . S
C2365 C2363 1.415 . S
C2366 H2356 0.930 . S
C2366 C2364 1.419 . S
C2366 C2367 1.362 . S
C2367 H2357 0.930 . S
C2367 C2360 1.409 . S
C2367 C2366 1.362 . S
H2368 C2374 0.930 . S
H2369 C2377 0.930 . S
H2370 C2378 0.930 . S
H2371 C2379 0.930 1_455 S
H2372 C2382 0.930 . S
H2373 C2383 0.930 . S
C2374 H2368 0.930 . S
C2374 C2375 1.355 . S
C2374 C2376 1.415 . S
C2375 C2374 1.355 . S
C2375 C2377 1.419 . S
C2376 C2374 1.415 . S
C2376 C2381 1.425 . S
C2376 C2383 1.409 . S
C2377 H2369 0.930 . S
C2377 C2375 1.419 . S
C2377 C2378 1.362 . S
C2378 H2370 0.930 . S
C2378 C2377 1.362 . S
C2378 C2381 1.409 . S
C2379 H2371 0.930 1_655 S
C2379 C2380 1.355 1_655 S
C2379 C2381 1.415 . S
C2380 C2379 1.355 1_455 S
C2380 C2382 1.419 1_455 S
C2381 C2376 1.425 . S
C2381 C2378 1.409 . S
C2381 C2379 1.415 . S
C2382 H2372 0.930 . S
C2382 C2380 1.419 1_655 S
C2382 C2383 1.362 . S
C2383 H2373 0.930 . S
C2383 C2376 1.409 . S
C2383 C2382 1.362 . S
H2384 C2390 0.930 . S
H2385 C2393 0.930 . S
H2386 C2394 0.930 . S
H2387 C2395 0.930 . S
H2388 C2398 0.930 . S
H2389 C2399 0.930 . S
C2390 H2384 0.930 . S
C2390 C2391 1.355 . S
C2390 C2392 1.415 . S
C2391 C2390 1.355 . S
C2391 C2393 1.419 . S
C2392 C2390 1.415 . S
C2392 C2397 1.425 . S
C2392 C2399 1.409 . S
C2393 H2385 0.930 . S
C2393 C2391 1.419 . S
C2393 C2394 1.362 . S
C2394 H2386 0.930 . S
C2394 C2393 1.362 . S
C2394 C2397 1.409 . S
C2395 H2387 0.930 . S
C2395 C2396 1.355 . S
C2395 C2397 1.415 . S
C2396 C2395 1.355 . S
C2396 C2398 1.419 . S
C2397 C2392 1.425 . S
C2397 C2394 1.409 . S
C2397 C2395 1.415 . S
C2398 H2388 0.930 . S
C2398 C2396 1.419 . S
C2398 C2399 1.362 . S
C2399 H2389 0.930 . S
C2399 C2392 1.409 . S
C2399 C2398 1.362 . S
H2400 C2406 0.930 . S
H2401 C2409 0.930 . S
H2402 C2410 0.930 . S
H2403 C2411 0.930 . S
H2404 C2414 0.930 . S
H2405 C2415 0.930 . S
C2406 H2400 0.930 . S
C2406 C2407 1.355 . S
C2406 C2408 1.415 . S
C2407 C2406 1.355 . S
C2407 C2409 1.419 . S
C2408 C2406 1.415 . S
C2408 C2413 1.425 . S
C2408 C2415 1.409 . S
C2409 H2401 0.930 . S
C2409 C2407 1.419 . S
C2409 C2410 1.362 . S
C2410 H2402 0.930 . S
C2410 C2409 1.362 . S
C2410 C2413 1.409 . S
C2411 H2403 0.930 . S
C2411 C2412 1.355 . S
C2411 C2413 1.415 . S
C2412 C2411 1.355 . S
C2412 C2414 1.419 . S
C2413 C2408 1.425 . S
C2413 C2410 1.409 . S
C2413 C2411 1.415 . S
C2414 H2404 0.930 . S
C2414 C2412 1.419 . S
C2414 C2415 1.362 . S
C2415 H2405 0.930 . S
C2415 C2408 1.409 . S
C2415 C2414 1.362 . S
H2416 C2422 0.906 1_554 S
H2417 C2425 0.930 . S
H2418 C2426 0.930 . S
H2419 C2427 0.930 . S
H2420 C2430 0.930 . S
H2421 C2431 0.930 . S
C2422 H2416 0.906 1_556 S
C2422 C2423 1.349 1_556 S
C2422 C2424 1.444 . S
C2423 C2422 1.349 1_554 S
C2423 C2425 1.419 1_554 S
C2424 C2422 1.444 . S
C2424 C2429 1.425 . S
C2424 C2431 1.409 . S
C2425 H2417 0.930 . S
C2425 C2423 1.419 1_556 S
C2425 C2426 1.362 . S
C2426 H2418 0.930 . S
C2426 C2425 1.362 . S
C2426 C2429 1.409 . S
C2427 H2419 0.930 . S
C2427 C2428 1.355 . S
C2427 C2429 1.415 . S
C2428 C2427 1.355 . S
C2428 C2430 1.419 . S
C2429 C2424 1.425 . S
C2429 C2426 1.409 . S
C2429 C2427 1.415 . S
C2430 H2420 0.930 . S
C2430 C2428 1.419 . S
C2430 C2431 1.362 . S
C2431 H2421 0.930 . S
C2431 C2424 1.409 . S
C2431 C2430 1.362 . S
H2432 C2438 0.930 . S
H2433 C2441 0.930 . S
H2434 C2442 0.930 . S
H2435 C2443 0.930 . S
H2436 C2446 0.930 . S
H2437 C2447 0.930 . S
C2438 H2432 0.930 . S
C2438 C2439 1.355 . S
C2438 C2440 1.415 . S
C2439 C2438 1.355 . S
C2439 C2441 1.419 . S
C2440 C2438 1.415 . S
C2440 C2445 1.425 . S
C2440 C2447 1.409 . S
C2441 H2433 0.930 . S
C2441 C2439 1.419 . S
C2441 C2442 1.362 . S
C2442 H2434 0.930 . S
C2442 C2441 1.362 . S
C2442 C2445 1.409 . S
C2443 H2435 0.930 . S
C2443 C2444 1.355 . S
C2443 C2445 1.415 . S
C2444 C2443 1.355 . S
C2444 C2446 1.419 . S
C2445 C2440 1.425 . S
C2445 C2442 1.409 . S
C2445 C2443 1.415 . S
C2446 H2436 0.930 . S
C2446 C2444 1.419 . S
C2446 C2447 1.362 . S
C2447 H2437 0.930 . S
C2447 C2440 1.409 . S
C2447 C2446 1.362 . S
H2448 C2454 0.930 . S
H2449 C2457 0.930 . S
H2450 C2458 0.930 . S
H2451 C2459 0.930 . S
H2452 C2462 0.930 . S
H2453 C2463 0.930 . S
C2454 H2448 0.930 . S
C2454 C2455 1.355 . S
C2454 C2456 1.415 . S
C2455 C2454 1.355 . S
C2455 C2457 1.419 1_655 S
C2456 C2454 1.415 . S
C2456 C2461 1.425 1_655 S
C2456 C2463 1.409 . S
C2457 H2449 0.930 . S
C2457 C2455 1.419 1_455 S
C2457 C2458 1.362 . S
C2458 H2450 0.930 . S
C2458 C2457 1.362 . S
C2458 C2461 1.409 . S
C2459 H2451 0.930 . S
C2459 C2460 1.355 . S
C2459 C2461 1.415 . S
C2460 C2459 1.355 . S
C2460 C2462 1.419 1_455 S
C2461 C2456 1.425 1_455 S
C2461 C2458 1.409 . S
C2461 C2459 1.415 . S
C2462 H2452 0.930 . S
C2462 C2460 1.419 1_655 S
C2462 C2463 1.362 . S
C2463 H2453 0.930 . S
C2463 C2456 1.409 . S
C2463 C2462 1.362 . S
H2464 C2470 0.930 . S
H2465 C2473 0.930 . S
H2466 C2474 0.930 . S
H2467 C2475 0.930 . S
H2468 C2478 0.930 . S
H2469 C2479 0.930 . S
C2470 H2464 0.930 . S
C2470 C2471 1.355 . S
C2470 C2472 1.415 . S
C2471 C2470 1.355 . S
C2471 C2473 1.419 . S
C2472 C2470 1.415 . S
C2472 C2477 1.425 . S
C2472 C2479 1.409 . S
C2473 H2465 0.930 . S
C2473 C2471 1.419 . S
C2473 C2474 1.362 . S
C2474 H2466 0.930 . S
C2474 C2473 1.362 . S
C2474 C2477 1.409 . S
C2475 H2467 0.930 . S
C2475 C2476 1.355 . S
C2475 C2477 1.415 . S
C2476 C2475 1.355 . S
C2476 C2478 1.419 . S
C2477 C2472 1.425 . S
C2477 C2474 1.409 . S
C2477 C2475 1.415 . S
C2478 H2468 0.930 . S
C2478 C2476 1.419 . S
C2478 C2479 1.362 . S
C2479 H2469 0.930 . S
C2479 C2472 1.409 . S
C2479 C2478 1.362 . S
H2480 C2486 0.913 1_556 S
H2481 C2489 0.930 1_556 S
H2482 C2490 0.930 . S
H2483 C2491 0.930 . S
H2484 C2494 0.930 . S
H2485 C2495 0.930 1_655 S
C2486 H2480 0.913 1_554 S
C2486 C2487 1.355 1_554 S
C2486 C2488 1.420 . S
C2487 C2486 1.355 1_556 S
C2487 C2489 1.419 1_556 S
C2488 C2486 1.420 . S
C2488 C2493 1.421 1_655 S
C2488 C2495 1.408 1_655 S
C2489 H2481 0.930 1_554 S
C2489 C2487 1.419 1_554 S
C2489 C2490 1.362 1_655 S
C2490 H2482 0.930 . S
C2490 C2489 1.362 1_455 S
C2490 C2493 1.409 . S
C2491 H2483 0.930 . S
C2491 C2492 1.355 . S
C2491 C2493 1.415 . S
C2492 C2491 1.355 . S
C2492 C2494 1.419 . S
C2493 C2488 1.421 1_455 S
C2493 C2490 1.409 . S
C2493 C2491 1.415 . S
C2494 H2484 0.930 . S
C2494 C2492 1.419 . S
C2494 C2495 1.362 . S
C2495 H2485 0.930 1_455 S
C2495 C2488 1.408 1_455 S
C2495 C2494 1.362 . S
H2496 C2502 0.930 . S
H2497 C2505 0.930 . S
H2498 C2506 0.930 . S
H2499 C2507 0.930 . S
H2500 C2510 0.930 . S
H2501 C2511 0.930 . S
C2502 H2496 0.930 . S
C2502 C2503 1.355 . S
C2502 C2504 1.415 . S
C2503 C2502 1.355 . S
C2503 C2505 1.419 . S
C2504 C2502 1.415 . S
C2504 C2509 1.425 . S
C2504 C2511 1.409 . S
C2505 H2497 0.930 . S
C2505 C2503 1.419 . S
C2505 C2506 1.362 . S
C2506 H2498 0.930 . S
C2506 C2505 1.362 . S
C2506 C2509 1.409 . S
C2507 H2499 0.930 . S
C2507 C2508 1.355 . S
C2507 C2509 1.415 . S
C2508 C2507 1.355 . S
C2508 C2510 1.419 . S
C2509 C2504 1.425 . S
C2509 C2506 1.409 . S
C2509 C2507 1.415 . S
C2510 H2500 0.930 . S
C2510 C2508 1.419 . S
C2510 C2511 1.362 . S
C2511 H2501 0.930 . S
C2511 C2504 1.409 . S
C2511 C2510 1.362 . S
H2512 C2518 0.930 . S
H2513 C2521 0.930 . S
H2514 C2522 0.930 . S
H2515 C2523 0.930 . S
H2516 C2526 0.930 . S
H2517 C2527 0.930 . S
C2518 H2512 0.930 . S
C2518 C2519 1.355 . S
C2518 C2520 1.415 . S
C2519 C2518 1.355 . S
C2519 C2521 1.419 . S
C2520 C2518 1.415 . S
C2520 C2525 1.425 . S
C2520 C2527 1.409 . S
C2521 H2513 0.930 . S
C2521 C2519 1.419 . S
C2521 C2522 1.362 . S
C2522 H2514 0.930 . S
C2522 C2521 1.362 . S
C2522 C2525 1.409 . S
C2523 H2515 0.930 . S
C2523 C2524 1.355 . S
C2523 C2525 1.415 . S
C2524 C2523 1.355 . S
C2524 C2526 1.419 . S
C2525 C2520 1.425 . S
C2525 C2522 1.409 . S
C2525 C2523 1.415 . S
C2526 H2516 0.930 . S
C2526 C2524 1.419 . S
C2526 C2527 1.362 . S
C2527 H2517 0.930 . S
C2527 C2520 1.409 . S
C2527 C2526 1.362 . S
H2528 C2534 0.930 . S
H2529 C2537 0.930 . S
H2530 C2538 0.930 . S
H2531 C2539 0.930 . S
H2532 C2542 0.930 . S
H2533 C2543 0.930 . S
C2534 H2528 0.930 . S
C2534 C2535 1.355 . S
C2534 C2536 1.415 . S
C2535 C2534 1.355 . S
C2535 C2537 1.419 . S
C2536 C2534 1.415 . S
C2536 C2541 1.425 . S
C2536 C2543 1.409 . S
C2537 H2529 0.930 . S
C2537 C2535 1.419 . S
C2537 C2538 1.362 . S
C2538 H2530 0.930 . S
C2538 C2537 1.362 . S
C2538 C2541 1.409 . S
C2539 H2531 0.930 . S
C2539 C2540 1.355 . S
C2539 C2541 1.415 . S
C2540 C2539 1.355 . S
C2540 C2542 1.419 . S
C2541 C2536 1.425 . S
C2541 C2538 1.409 . S
C2541 C2539 1.415 . S
C2542 H2532 0.930 . S
C2542 C2540 1.419 . S
C2542 C2543 1.362 . S
C2543 H2533 0.930 . S
C2543 C2536 1.409 . S
C2543 C2542 1.362 . S
H2544 C2550 0.930 . S
H2545 C2553 0.930 . S
H2546 C2554 0.930 . S
H2547 C2555 0.930 1_556 S
H2548 C2558 0.930 . S
H2549 C2559 0.930 . S
C2550 H2544 0.930 . S
C2550 C2551 1.355 1_554 S
C2550 C2552 1.415 . S
C2551 C2550 1.355 1_556 S
C2551 C2553 1.419 . S
C2552 C2550 1.415 . S
C2552 C2557 1.425 1_554 S
C2552 C2559 1.409 . S
C2553 H2545 0.930 . S
C2553 C2551 1.419 . S
C2553 C2554 1.362 . S
C2554 H2546 0.930 . S
C2554 C2553 1.362 . S
C2554 C2557 1.409 . S
C2555 H2547 0.930 1_554 S
C2555 C2556 1.355 . S
C2555 C2557 1.415 1_554 S
C2556 C2555 1.355 . S
C2556 C2558 1.419 . S
C2557 C2552 1.425 1_556 S
C2557 C2554 1.409 . S
C2557 C2555 1.415 1_556 S
C2558 H2548 0.930 . S
C2558 C2556 1.419 . S
C2558 C2559 1.362 . S
C2559 H2549 0.930 . S
C2559 C2552 1.409 . S
C2559 C2558 1.362 . S
H2560 C2566 0.930 . S
H2561 C2569 0.930 . S
H2562 C2570 0.930 . S
H2563 C2571 0.930 . S
H2564 C2574 0.930 . S
H2565 C2575 0.930 . S
C2566 H2560 0.930 . S
C2566 C2567 1.355 . S
C2566 C2568 1.415 . S
C2567 C2566 1.355 . S
C2567 C2569 1.419 . S
C2568 C2566 1.415 . S
C2568 C2573 1.425 . S
C2568 C2575 1.409 . S
C2569 H2561 0.930 . S
C2569 C2567 1.419 . S
C2569 C2570 1.362 . S
C2570 H2562 0.930 . S
C2570 C2569 1.362 . S
C2570 C2573 1.409 . S
C2571 H2563 0.930 . S
C2571 C2572 1.355 . S
C2571 C2573 1.415 . S
C2572 C2571 1.355 . S
C2572 C2574 1.419 . S
C2573 C2568 1.425 . S
C2573 C2570 1.409 . S
C2573 C2571 1.415 . S
C2574 H2564 0.930 . S
C2574 C2572 1.419 . S
C2574 C2575 1.362 . S
C2575 H2565 0.930 . S
C2575 C2568 1.409 . S
C2575 C2574 1.362 . S
H2576 C2582 0.930 . S
H2577 C2585 0.930 . S
H2578 C2586 0.930 . S
H2579 C2587 0.930 . S
H2580 C2590 0.930 . S
H2581 C2591 0.930 . S
C2582 H2576 0.930 . S
C2582 C2583 1.355 . S
C2582 C2584 1.415 . S
C2583 C2582 1.355 . S
C2583 C2585 1.419 . S
C2584 C2582 1.415 . S
C2584 C2589 1.425 . S
C2584 C2591 1.409 . S
C2585 H2577 0.930 . S
C2585 C2583 1.419 . S
C2585 C2586 1.362 . S
C2586 H2578 0.930 . S
C2586 C2585 1.362 . S
C2586 C2589 1.409 . S
C2587 H2579 0.930 . S
C2587 C2588 1.355 . S
C2587 C2589 1.415 . S
C2588 C2587 1.355 . S
C2588 C2590 1.419 . S
C2589 C2584 1.425 . S
C2589 C2586 1.409 . S
C2589 C2587 1.415 . S
C2590 H2580 0.930 . S
C2590 C2588 1.419 . S
C2590 C2591 1.362 . S
C2591 H2581 0.930 . S
C2591 C2584 1.409 . S
C2591 C2590 1.362 . S
H2592 C2598 0.930 . S
H2593 C2601 0.930 . S
H2594 C2602 0.930 . S
H2595 C2603 0.930 . S
H2596 C2606 0.930 . S
H2597 C2607 0.930 . S
C2598 H2592 0.930 . S
C2598 C2599 1.355 . S
C2598 C2600 1.415 . S
C2599 C2598 1.355 . S
C2599 C2601 1.419 . S
C2600 C2598 1.415 . S
C2600 C2605 1.425 . S
C2600 C2607 1.409 . S
C2601 H2593 0.930 . S
C2601 C2599 1.419 . S
C2601 C2602 1.362 . S
C2602 H2594 0.930 . S
C2602 C2601 1.362 . S
C2602 C2605 1.409 . S
C2603 H2595 0.930 . S
C2603 C2604 1.355 . S
C2603 C2605 1.415 . S
C2604 C2603 1.355 . S
C2604 C2606 1.419 . S
C2605 C2600 1.425 . S
C2605 C2602 1.409 . S
C2605 C2603 1.415 . S
C2606 H2596 0.930 . S
C2606 C2604 1.419 . S
C2606 C2607 1.362 . S
C2607 H2597 0.930 . S
C2607 C2600 1.409 . S
C2607 C2606 1.362 . S
H2608 C2614 0.930 . S
H2609 C2617 0.952 . S
H2610 C2618 0.930 . S
H2611 C2619 0.930 . S
H2612 C2622 0.930 . S
H2613 C2623 0.930 . S
C2614 H2608 0.930 . S
C2614 C2615 1.355 . S
C2614 C2616 1.415 . S
C2615 C2614 1.355 . S
C2615 C2617 1.363 1_556 S
C2616 C2614 1.415 . S
C2616 C2621 1.425 1_556 S
C2616 C2623 1.409 . S
C2617 H2609 0.952 . S
C2617 C2615 1.363 1_554 S
C2617 C2618 1.398 . S
C2618 H2610 0.930 . S
C2618 C2617 1.398 . S
C2618 C2621 1.409 . S
C2619 H2611 0.930 . S
C2619 C2620 1.355 . S
C2619 C2621 1.415 . S
C2620 C2619 1.355 . S
C2620 C2622 1.419 1_554 S
C2621 C2616 1.425 1_554 S
C2621 C2618 1.409 . S
C2621 C2619 1.415 . S
C2622 H2612 0.930 . S
C2622 C2620 1.419 1_556 S
C2622 C2623 1.362 . S
C2623 H2613 0.930 . S
C2623 C2616 1.409 . S
C2623 C2622 1.362 . S
H2624 C2630 0.930 . S
H2625 C2633 0.930 . S
H2626 C2634 0.930 . S
H2627 C2635 0.930 . S
H2628 C2638 0.930 . S
H2629 C2639 0.930 . S
C2630 H2624 0.930 . S
C2630 C2631 1.355 . S
C2630 C2632 1.415 . S
C2631 C2630 1.355 . S
C2631 C2633 1.419 . S
C2632 C2630 1.415 . S
C2632 C2637 1.425 . S
C2632 C2639 1.409 . S
C2633 H2625 0.930 . S
C2633 C2631 1.419 . S
C2633 C2634 1.362 . S
C2634 H2626 0.930 . S
C2634 C2633 1.362 . S
C2634 C2637 1.409 . S
C2635 H2627 0.930 . S
C2635 C2636 1.355 . S
C2635 C2637 1.415 . S
C2636 C2635 1.355 . S
C2636 C2638 1.419 . S
C2637 C2632 1.425 . S
C2637 C2634 1.409 . S
C2637 C2635 1.415 . S
C2638 H2628 0.930 . S
C2638 C2636 1.419 . S
C2638 C2639 1.362 . S
C2639 H2629 0.930 . S
C2639 C2632 1.409 . S
C2639 C2638 1.362 . S
H2640 C2646 0.930 . S
H2641 C2649 0.930 . S
H2642 C2650 0.930 . S
H2643 C2651 0.930 . S
H2644 C2654 0.930 . S
H2645 C2655 0.930 . S
C2646 H2640 0.930 . S
C2646 C2647 1.355 . S
C2646 C2648 1.415 . S
C2647 C2646 1.355 . S
C2647 C2649 1.419 . S
C2648 C2646 1.415 . S
C2648 C2653 1.425 . S
C2648 C2655 1.409 . S
C2649 H2641 0.930 . S
C2649 C2647 1.419 . S
C2649 C2650 1.362 . S
C2650 H2642 0.930 . S
C2650 C2649 1.362 . S
C2650 C2653 1.409 . S
C2651 H2643 0.930 . S
C2651 C2652 1.355 . S
C2651 C2653 1.415 . S
C2652 C2651 1.355 . S
C2652 C2654 1.419 . S
C2653 C2648 1.425 . S
C2653 C2650 1.409 . S
C2653 C2651 1.415 . S
C2654 H2644 0.930 . S
C2654 C2652 1.419 . S
C2654 C2655 1.362 . S
C2655 H2645 0.930 . S
C2655 C2648 1.409 . S
C2655 C2654 1.362 . S
H2656 C2662 0.930 . S
H2657 C2665 0.930 . S
H2658 C2666 0.930 . S
H2659 C2667 0.930 . S
H2660 C2670 0.930 . S
H2661 C2671 0.930 . S
C2662 H2656 0.930 . S
C2662 C2663 1.355 . S
C2662 C2664 1.415 . S
C2663 C2662 1.355 . S
C2663 C2665 1.419 . S
C2664 C2662 1.415 . S
C2664 C2669 1.425 . S
C2664 C2671 1.409 . S
C2665 H2657 0.930 . S
C2665 C2663 1.419 . S
C2665 C2666 1.362 . S
C2666 H2658 0.930 . S
C2666 C2665 1.362 . S
C2666 C2669 1.409 . S
C2667 H2659 0.930 . S
C2667 C2668 1.355 . S
C2667 C2669 1.415 . S
C2668 C2667 1.355 . S
C2668 C2670 1.419 . S
C2669 C2664 1.425 . S
C2669 C2666 1.409 . S
C2669 C2667 1.415 . S
C2670 H2660 0.930 . S
C2670 C2668 1.419 . S
C2670 C2671 1.362 . S
C2671 H2661 0.930 . S
C2671 C2664 1.409 . S
C2671 C2670 1.362 . S
H2672 C2678 0.930 . S
H2673 C2681 0.930 . S
H2674 C2682 0.930 . S
H2675 C2683 0.930 . S
H2676 C2686 0.930 . S
H2677 C2687 0.930 . S
C2678 H2672 0.930 . S
C2678 C2679 1.355 . S
C2678 C2680 1.415 . S
C2679 C2678 1.355 . S
C2679 C2681 1.419 . S
C2680 C2678 1.415 . S
C2680 C2685 1.425 . S
C2680 C2687 1.409 . S
C2681 H2673 0.930 . S
C2681 C2679 1.419 . S
C2681 C2682 1.362 . S
C2682 H2674 0.930 . S
C2682 C2681 1.362 . S
C2682 C2685 1.409 . S
C2683 H2675 0.930 . S
C2683 C2684 1.355 . S
C2683 C2685 1.415 . S
C2684 C2683 1.355 . S
C2684 C2686 1.419 . S
C2685 C2680 1.425 . S
C2685 C2682 1.409 . S
C2685 C2683 1.415 . S
C2686 H2676 0.930 . S
C2686 C2684 1.419 . S
C2686 C2687 1.362 . S
C2687 H2677 0.930 . S
C2687 C2680 1.409 . S
C2687 C2686 1.362 . S
H2688 C2694 0.930 . S
H2689 C2697 0.930 . S
H2690 C2698 0.930 . S
H2691 C2699 0.930 . S
H2692 C2702 0.930 . S
H2693 C2703 0.930 1_565 S
C2694 H2688 0.930 . S
C2694 C2695 1.355 . S
C2694 C2696 1.437 . S
C2695 C2694 1.355 . S
C2695 C2697 1.419 . S
C2696 C2694 1.437 . S
C2696 C2701 1.407 1_565 S
C2696 C2703 1.406 1_565 S
C2697 H2689 0.930 . S
C2697 C2695 1.419 . S
C2697 C2698 1.362 1_565 S
C2698 H2690 0.930 . S
C2698 C2697 1.362 1_545 S
C2698 C2701 1.409 . S
C2699 H2691 0.930 . S
C2699 C2700 1.355 . S
C2699 C2701 1.415 . S
C2700 C2699 1.355 . S
C2700 C2702 1.419 . S
C2701 C2696 1.407 1_545 S
C2701 C2698 1.409 . S
C2701 C2699 1.415 . S
C2702 H2692 0.930 . S
C2702 C2700 1.419 . S
C2702 C2703 1.362 . S
C2703 H2693 0.930 1_545 S
C2703 C2696 1.406 1_545 S
C2703 C2702 1.362 . S
H2704 C2710 0.930 . S
H2705 C2713 0.930 . S
H2706 C2714 0.930 . S
H2707 C2715 0.930 . S
H2708 C2718 0.930 . S
H2709 C2719 0.930 . S
C2710 H2704 0.930 . S
C2710 C2711 1.355 . S
C2710 C2712 1.415 . S
C2711 C2710 1.355 . S
C2711 C2713 1.419 . S
C2712 C2710 1.415 . S
C2712 C2717 1.425 . S
C2712 C2719 1.409 . S
C2713 H2705 0.930 . S
C2713 C2711 1.419 . S
C2713 C2714 1.362 . S
C2714 H2706 0.930 . S
C2714 C2713 1.362 . S
C2714 C2717 1.409 . S
C2715 H2707 0.930 . S
C2715 C2716 1.355 . S
C2715 C2717 1.415 . S
C2716 C2715 1.355 . S
C2716 C2718 1.419 . S
C2717 C2712 1.425 . S
C2717 C2714 1.409 . S
C2717 C2715 1.415 . S
C2718 H2708 0.930 . S
C2718 C2716 1.419 . S
C2718 C2719 1.362 . S
C2719 H2709 0.930 . S
C2719 C2712 1.409 . S
C2719 C2718 1.362 . S
H2720 C2726 0.930 . S
H2721 C2729 0.930 . S
H2722 C2730 0.930 . S
H2723 C2731 0.930 . S
H2724 C2734 0.930 . S
H2725 C2735 0.930 . S
C2726 H2720 0.930 . S
C2726 C2727 1.355 . S
C2726 C2728 1.415 . S
C2727 C2726 1.355 . S
C2727 C2729 1.419 . S
C2728 C2726 1.415 . S
C2728 C2733 1.425 . S
C2728 C2735 1.409 . S
C2729 H2721 0.930 . S
C2729 C2727 1.419 . S
C2729 C2730 1.362 . S
C2730 H2722 0.930 . S
C2730 C2729 1.362 . S
C2730 C2733 1.409 . S
C2731 H2723 0.930 . S
C2731 C2732 1.355 . S
C2731 C2733 1.415 . S
C2732 C2731 1.355 . S
C2732 C2734 1.419 . S
C2733 C2728 1.425 . S
C2733 C2730 1.409 . S
C2733 C2731 1.415 . S
C2734 H2724 0.930 . S
C2734 C2732 1.419 . S
C2734 C2735 1.362 . S
C2735 H2725 0.930 . S
C2735 C2728 1.409 . S
C2735 C2734 1.362 . S
H2736 C2742 0.930 . S
H2737 C2745 0.930 . S
H2738 C2746 0.930 . S
H2739 C2747 0.930 . S
H2740 C2750 0.930 . S
H2741 C2751 0.930 . S
C2742 H2736 0.930 . S
C2742 C2743 1.355 . S
C2742 C2744 1.415 . S
C2743 C2742 1.355 . S
C2743 C2745 1.419 . S
C2744 C2742 1.415 . S
C2744 C2749 1.425 . S
C2744 C2751 1.409 . S
C2745 H2737 0.930 . S
C2745 C2743 1.419 . S
C2745 C2746 1.362 . S
C2746 H2738 0.930 . S
C2746 C2745 1.362 . S
C2746 C2749 1.409 . S
C2747 H2739 0.930 . S
C2747 C2748 1.355 . S
C2747 C2749 1.415 . S
C2748 C2747 1.355 . S
C2748 C2750 1.419 . S
C2749 C2744 1.425 . S
C2749 C2746 1.409 . S
C2749 C2747 1.415 . S
C2750 H2740 0.930 . S
C2750 C2748 1.419 . S
C2750 C2751 1.362 . S
C2751 H2741 0.930 . S
C2751 C2744 1.409 . S
C2751 C2750 1.362 . S
H2752 C2758 0.930 . S
H2753 C2761 0.942 . S
H2754 C2762 0.930 . S
H2755 C2763 0.930 . S
H2756 C2766 0.930 . S
H2757 C2767 0.930 . S
C2758 H2752 0.930 . S
C2758 C2759 1.355 . S
C2758 C2760 1.415 . S
C2759 C2758 1.355 . S
C2759 C2761 1.388 1_565 S
C2760 C2758 1.415 . S
C2760 C2765 1.425 1_565 S
C2760 C2767 1.409 . S
C2761 H2753 0.942 . S
C2761 C2759 1.388 1_545 S
C2761 C2762 1.383 . S
C2762 H2754 0.930 . S
C2762 C2761 1.383 . S
C2762 C2765 1.409 . S
C2763 H2755 0.930 . S
C2763 C2764 1.355 . S
C2763 C2765 1.415 . S
C2764 C2763 1.355 . S
C2764 C2766 1.419 1_545 S
C2765 C2760 1.425 1_545 S
C2765 C2762 1.409 . S
C2765 C2763 1.415 . S
C2766 H2756 0.930 . S
C2766 C2764 1.419 1_565 S
C2766 C2767 1.362 . S
C2767 H2757 0.930 . S
C2767 C2760 1.409 . S
C2767 C2766 1.362 . S
H2768 C2774 0.930 . S
H2769 C2777 0.914 1_655 S
H2770 C2778 0.930 . S
H2771 C2779 0.930 . S
H2772 C2782 0.930 . S
H2773 C2783 0.930 . S
C2774 H2768 0.930 . S
C2774 C2775 1.355 1_455 S
C2774 C2776 1.415 1_565 S
C2775 C2774 1.355 1_655 S
C2775 C2777 1.414 1_655 S
C2776 C2774 1.415 1_545 S
C2776 C2781 1.425 . S
C2776 C2783 1.409 . S
C2777 H2769 0.914 1_455 S
C2777 C2775 1.414 1_455 S
C2777 C2778 1.383 . S
C2778 H2770 0.930 . S
C2778 C2777 1.383 . S
C2778 C2781 1.409 1_565 S
C2779 H2771 0.930 . S
C2779 C2780 1.355 . S
C2779 C2781 1.415 . S
C2780 C2779 1.355 . S
C2780 C2782 1.419 . S
C2781 C2776 1.425 . S
C2781 C2778 1.409 1_545 S
C2781 C2779 1.415 . S
C2782 H2772 0.930 . S
C2782 C2780 1.419 . S
C2782 C2783 1.362 . S
C2783 H2773 0.930 . S
C2783 C2776 1.409 . S
C2783 C2782 1.362 . S
H2784 C2790 0.930 . S
H2785 C2793 0.930 . S
H2786 C2794 0.930 . S
H2787 C2795 0.930 . S
H2788 C2798 0.930 . S
H2789 C2799 0.930 . S
C2790 H2784 0.930 . S
C2790 C2791 1.355 . S
C2790 C2792 1.415 . S
C2791 C2790 1.355 . S
C2791 C2793 1.419 . S
C2792 C2790 1.415 . S
C2792 C2797 1.425 . S
C2792 C2799 1.409 . S
C2793 H2785 0.930 . S
C2793 C2791 1.419 . S
C2793 C2794 1.362 . S
C2794 H2786 0.930 . S
C2794 C2793 1.362 . S
C2794 C2797 1.409 . S
C2795 H2787 0.930 . S
C2795 C2796 1.355 . S
C2795 C2797 1.415 . S
C2796 C2795 1.355 . S
C2796 C2798 1.419 . S
C2797 C2792 1.425 . S
C2797 C2794 1.409 . S
C2797 C2795 1.415 . S
C2798 H2788 0.930 . S
C2798 C2796 1.419 . S
C2798 C2799 1.362 . S
C2799 H2789 0.930 . S
C2799 C2792 1.409 . S
C2799 C2798 1.362 . S
H2800 C2806 0.930 . S
H2801 C2809 0.930 . S
H2802 C2810 0.930 . S
H2803 C2811 0.930 . S
H2804 C2814 0.930 . S
H2805 C2815 0.930 . S
C2806 H2800 0.930 . S
C2806 C2807 1.355 . S
C2806 C2808 1.415 . S
C2807 C2806 1.355 . S
C2807 C2809 1.419 . S
C2808 C2806 1.415 . S
C2808 C2813 1.425 . S
C2808 C2815 1.409 . S
C2809 H2801 0.930 . S
C2809 C2807 1.419 . S
C2809 C2810 1.362 . S
C2810 H2802 0.930 . S
C2810 C2809 1.362 . S
C2810 C2813 1.409 . S
C2811 H2803 0.930 . S
C2811 C2812 1.355 . S
C2811 C2813 1.415 . S
C2812 C2811 1.355 . S
C2812 C2814 1.419 . S
C2813 C2808 1.425 . S
C2813 C2810 1.409 . S
C2813 C2811 1.415 . S
C2814 H2804 0.930 . S
C2814 C2812 1.419 . S
C2814 C2815 1.362 . S
C2815 H2805 0.930 . S
C2815 C2808 1.409 . S
C2815 C2814 1.362 . S
H2816 C2822 0.930 . S
H2817 C2825 0.930 . S
H2818 C2826 0.930 . S
H2819 C2827 0.930 . S
H2820 C2830 0.930 . S
H2821 C2831 0.930 . S
C2822 H2816 0.930 . S
C2822 C2823 1.355 . S
C2822 C2824 1.415 . S
C2823 C2822 1.355 . S
C2823 C2825 1.419 . S
C2824 C2822 1.415 . S
C2824 C2829 1.425 . S
C2824 C2831 1.409 . S
C2825 H2817 0.930 . S
C2825 C2823 1.419 . S
C2825 C2826 1.362 . S
C2826 H2818 0.930 . S
C2826 C2825 1.362 . S
C2826 C2829 1.409 . S
C2827 H2819 0.930 . S
C2827 C2828 1.355 . S
C2827 C2829 1.415 . S
C2828 C2827 1.355 . S
C2828 C2830 1.419 . S
C2829 C2824 1.425 . S
C2829 C2826 1.409 . S
C2829 C2827 1.415 . S
C2830 H2820 0.930 . S
C2830 C2828 1.419 . S
C2830 C2831 1.362 . S
C2831 H2821 0.930 . S
C2831 C2824 1.409 . S
C2831 C2830 1.362 . S
H2832 C2838 0.930 . S
H2833 C2841 0.930 . S
H2834 C2842 0.930 . S
H2835 C2843 0.930 . S
H2836 C2846 0.930 . S
H2837 C2847 0.930 . S
C2838 H2832 0.930 . S
C2838 C2839 1.355 . S
C2838 C2840 1.415 . S
C2839 C2838 1.355 . S
C2839 C2841 1.419 . S
C2840 C2838 1.415 . S
C2840 C2845 1.425 . S
C2840 C2847 1.409 . S
C2841 H2833 0.930 . S
C2841 C2839 1.419 . S
C2841 C2842 1.362 . S
C2842 H2834 0.930 . S
C2842 C2841 1.362 . S
C2842 C2845 1.409 . S
C2843 H2835 0.930 . S
C2843 C2844 1.355 . S
C2843 C2845 1.415 . S
C2844 C2843 1.355 . S
C2844 C2846 1.419 . S
C2845 C2840 1.425 . S
C2845 C2842 1.409 . S
C2845 C2843 1.415 . S
C2846 H2836 0.930 . S
C2846 C2844 1.419 . S
C2846 C2847 1.362 . S
C2847 H2837 0.930 . S
C2847 C2840 1.409 . S
C2847 C2846 1.362 . S
H2848 C2854 0.930 . S
H2849 C2857 0.930 . S
H2850 C2858 0.930 . S
H2851 C2859 0.930 . S
H2852 C2862 0.930 . S
H2853 C2863 0.930 . S
C2854 H2848 0.930 . S
C2854 C2855 1.355 . S
C2854 C2856 1.415 . S
C2855 C2854 1.355 . S
C2855 C2857 1.419 . S
C2856 C2854 1.415 . S
C2856 C2861 1.425 . S
C2856 C2863 1.409 . S
C2857 H2849 0.930 . S
C2857 C2855 1.419 . S
C2857 C2858 1.362 . S
C2858 H2850 0.930 . S
C2858 C2857 1.362 . S
C2858 C2861 1.409 . S
C2859 H2851 0.930 . S
C2859 C2860 1.355 . S
C2859 C2861 1.415 . S
C2860 C2859 1.355 . S
C2860 C2862 1.419 . S
C2861 C2856 1.425 . S
C2861 C2858 1.409 . S
C2861 C2859 1.415 . S
C2862 H2852 0.930 . S
C2862 C2860 1.419 . S
C2862 C2863 1.362 . S
C2863 H2853 0.930 . S
C2863 C2856 1.409 . S
C2863 C2862 1.362 . S
H2864 C2870 0.930 . S
H2865 C2873 0.930 . S
H2866 C2874 0.930 . S
H2867 C2875 0.930 . S
H2868 C2878 0.930 . S
H2869 C2879 0.930 . S
C2870 H2864 0.930 . S
C2870 C2871 1.355 . S
C2870 C2872 1.415 . S
C2871 C2870 1.355 . S
C2871 C2873 1.419 . S
C2872 C2870 1.415 . S
C2872 C2877 1.425 . S
C2872 C2879 1.409 . S
C2873 H2865 0.930 . S
C2873 C2871 1.419 . S
C2873 C2874 1.362 . S
C2874 H2866 0.930 . S
C2874 C2873 1.362 . S
C2874 C2877 1.409 . S
C2875 H2867 0.930 . S
C2875 C2876 1.355 . S
C2875 C2877 1.415 . S
C2876 C2875 1.355 . S
C2876 C2878 1.419 . S
C2877 C2872 1.425 . S
C2877 C2874 1.409 . S
C2877 C2875 1.415 . S
C2878 H2868 0.930 . S
C2878 C2876 1.419 . S
C2878 C2879 1.362 . S
C2879 H2869 0.930 . S
C2879 C2872 1.409 . S
C2879 C2878 1.362 . S
H2880 C2886 0.930 . S
H2881 C2889 0.930 . S
H2882 C2890 0.930 . S
H2883 C2891 0.930 . S
H2884 C2894 0.930 . S
H2885 C2895 0.930 . S
C2886 H2880 0.930 . S
C2886 C2887 1.355 . S
C2886 C2888 1.415 . S
C2887 C2886 1.355 . S
C2887 C2889 1.419 . S
C2888 C2886 1.415 . S
C2888 C2893 1.425 . S
C2888 C2895 1.409 . S
C2889 H2881 0.930 . S
C2889 C2887 1.419 . S
C2889 C2890 1.362 . S
C2890 H2882 0.930 . S
C2890 C2889 1.362 . S
C2890 C2893 1.409 . S
C2891 H2883 0.930 . S
C2891 C2892 1.355 . S
C2891 C2893 1.415 . S
C2892 C2891 1.355 . S
C2892 C2894 1.419 . S
C2893 C2888 1.425 . S
C2893 C2890 1.409 . S
C2893 C2891 1.415 . S
C2894 H2884 0.930 . S
C2894 C2892 1.419 . S
C2894 C2895 1.362 . S
C2895 H2885 0.930 . S
C2895 C2888 1.409 . S
C2895 C2894 1.362 . S
H2896 C2902 0.930 . S
H2897 C2905 0.930 . S
H2898 C2906 0.930 . S
H2899 C2907 0.930 . S
H2900 C2910 0.930 . S
H2901 C2911 0.930 . S
C2902 H2896 0.930 . S
C2902 C2903 1.355 . S
C2902 C2904 1.415 . S
C2903 C2902 1.355 . S
C2903 C2905 1.419 . S
C2904 C2902 1.415 . S
C2904 C2909 1.425 . S
C2904 C2911 1.409 . S
C2905 H2897 0.930 . S
C2905 C2903 1.419 . S
C2905 C2906 1.362 . S
C2906 H2898 0.930 . S
C2906 C2905 1.362 . S
C2906 C2909 1.409 . S
C2907 H2899 0.930 . S
C2907 C2908 1.355 . S
C2907 C2909 1.415 . S
C2908 C2907 1.355 . S
C2908 C2910 1.419 . S
C2909 C2904 1.425 . S
C2909 C2906 1.409 . S
C2909 C2907 1.415 . S
C2910 H2900 0.930 . S
C2910 C2908 1.419 . S
C2910 C2911 1.362 . S
C2911 H2901 0.930 . S
C2911 C2904 1.409 . S
C2911 C2910 1.362 . S
H2912 C2918 0.930 . S
H2913 C2921 0.930 . S
H2914 C2922 0.930 . S
H2915 C2923 0.930 . S
H2916 C2926 0.930 . S
H2917 C2927 0.930 . S
C2918 H2912 0.930 . S
C2918 C2919 1.355 . S
C2918 C2920 1.415 . S
C2919 C2918 1.355 . S
C2919 C2921 1.419 . S
C2920 C2918 1.415 . S
C2920 C2925 1.425 . S
C2920 C2927 1.409 . S
C2921 H2913 0.930 . S
C2921 C2919 1.419 . S
C2921 C2922 1.362 . S
C2922 H2914 0.930 . S
C2922 C2921 1.362 . S
C2922 C2925 1.409 . S
C2923 H2915 0.930 . S
C2923 C2924 1.355 . S
C2923 C2925 1.415 . S
C2924 C2923 1.355 . S
C2924 C2926 1.419 . S
C2925 C2920 1.425 . S
C2925 C2922 1.409 . S
C2925 C2923 1.415 . S
C2926 H2916 0.930 . S
C2926 C2924 1.419 . S
C2926 C2927 1.362 . S
C2927 H2917 0.930 . S
C2927 C2920 1.409 . S
C2927 C2926 1.362 . S
H2928 C2934 0.930 . S
H2929 C2937 0.930 . S
H2930 C2938 0.930 . S
H2931 C2939 0.930 . S
H2932 C2942 0.930 . S
H2933 C2943 0.930 . S
C2934 H2928 0.930 . S
C2934 C2935 1.355 . S
C2934 C2936 1.415 . S
C2935 C2934 1.355 . S
C2935 C2937 1.419 . S
C2936 C2934 1.415 . S
C2936 C2941 1.425 . S
C2936 C2943 1.409 . S
C2937 H2929 0.930 . S
C2937 C2935 1.419 . S
C2937 C2938 1.362 . S
C2938 H2930 0.930 . S
C2938 C2937 1.362 . S
C2938 C2941 1.409 . S
C2939 H2931 0.930 . S
C2939 C2940 1.355 . S
C2939 C2941 1.415 . S
C2940 C2939 1.355 . S
C2940 C2942 1.419 . S
C2941 C2936 1.425 . S
C2941 C2938 1.409 . S
C2941 C2939 1.415 . S
C2942 H2932 0.930 . S
C2942 C2940 1.419 . S
C2942 C2943 1.362 . S
C2943 H2933 0.930 . S
C2943 C2936 1.409 . S
C2943 C2942 1.362 . S
H2944 C2950 0.930 . S
H2945 C2953 0.930 . S
H2946 C2954 0.930 . S
H2947 C2955 0.930 . S
H2948 C2958 0.930 . S
H2949 C2959 0.930 . S
C2950 H2944 0.930 . S
C2950 C2951 1.355 . S
C2950 C2952 1.415 . S
C2951 C2950 1.355 . S
C2951 C2953 1.419 . S
C2952 C2950 1.415 . S
C2952 C2957 1.425 . S
C2952 C2959 1.409 . S
C2953 H2945 0.930 . S
C2953 C2951 1.419 . S
C2953 C2954 1.362 . S
C2954 H2946 0.930 . S
C2954 C2953 1.362 . S
C2954 C2957 1.409 . S
C2955 H2947 0.930 . S
C2955 C2956 1.355 . S
C2955 C2957 1.415 . S
C2956 C2955 1.355 . S
C2956 C2958 1.419 . S
C2957 C2952 1.425 . S
C2957 C2954 1.409 . S
C2957 C2955 1.415 . S
C2958 H2948 0.930 . S
C2958 C2956 1.419 . S
C2958 C2959 1.362 . S
C2959 H2949 0.930 . S
C2959 C2952 1.409 . S
C2959 C2958 1.362 . S
H2960 C2966 0.930 . S
H2961 C2969 0.930 . S
H2962 C2970 0.930 . S
H2963 C2971 0.930 . S
H2964 C2974 0.930 . S
H2965 C2975 0.930 . S
C2966 H2960 0.930 . S
C2966 C2967 1.355 . S
C2966 C2968 1.415 . S
C2967 C2966 1.355 . S
C2967 C2969 1.419 . S
C2968 C2966 1.415 . S
C2968 C2973 1.425 . S
C2968 C2975 1.409 . S
C2969 H2961 0.930 . S
C2969 C2967 1.419 . S
C2969 C2970 1.362 . S
C2970 H2962 0.930 . S
C2970 C2969 1.362 . S
C2970 C2973 1.409 . S
C2971 H2963 0.930 . S
C2971 C2972 1.355 . S
C2971 C2973 1.415 . S
C2972 C2971 1.355 . S
C2972 C2974 1.419 . S
C2973 C2968 1.425 . S
C2973 C2970 1.409 . S
C2973 C2971 1.415 . S
C2974 H2964 0.930 . S
C2974 C2972 1.419 . S
C2974 C2975 1.362 . S
C2975 H2965 0.930 . S
C2975 C2968 1.409 . S
C2975 C2974 1.362 . S
H2976 C2982 0.930 . S
H2977 C2985 0.930 . S
H2978 C2986 0.930 . S
H2979 C2987 0.930 . S
H2980 C2990 0.930 . S
H2981 C2991 0.930 . S
C2982 H2976 0.930 . S
C2982 C2983 1.355 . S
C2982 C2984 1.415 . S
C2983 C2982 1.355 . S
C2983 C2985 1.419 . S
C2984 C2982 1.415 . S
C2984 C2989 1.425 . S
C2984 C2991 1.409 . S
C2985 H2977 0.930 . S
C2985 C2983 1.419 . S
C2985 C2986 1.362 . S
C2986 H2978 0.930 . S
C2986 C2985 1.362 . S
C2986 C2989 1.409 . S
C2987 H2979 0.930 . S
C2987 C2988 1.355 . S
C2987 C2989 1.415 . S
C2988 C2987 1.355 . S
C2988 C2990 1.419 . S
C2989 C2984 1.425 . S
C2989 C2986 1.409 . S
C2989 C2987 1.415 . S
C2990 H2980 0.930 . S
C2990 C2988 1.419 . S
C2990 C2991 1.362 . S
C2991 H2981 0.930 . S
C2991 C2984 1.409 . S
C2991 C2990 1.362 . S
H2992 C2998 0.930 . S
H2993 C3001 0.930 . S
H2994 C3002 0.930 . S
H2995 C3003 0.930 . S
H2996 C3006 0.930 . S
H2997 C3007 0.930 . S
C2998 H2992 0.930 . S
C2998 C2999 1.355 . S
C2998 C3000 1.415 . S
C2999 C2998 1.355 . S
C2999 C3001 1.419 . S
C3000 C2998 1.415 . S
C3000 C3005 1.425 . S
C3000 C3007 1.409 . S
C3001 H2993 0.930 . S
C3001 C2999 1.419 . S
C3001 C3002 1.362 . S
C3002 H2994 0.930 . S
C3002 C3001 1.362 . S
C3002 C3005 1.409 . S
C3003 H2995 0.930 . S
C3003 C3004 1.355 . S
C3003 C3005 1.415 . S
C3004 C3003 1.355 . S
C3004 C3006 1.419 . S
C3005 C3000 1.425 . S
C3005 C3002 1.409 . S
C3005 C3003 1.415 . S
C3006 H2996 0.930 . S
C3006 C3004 1.419 . S
C3006 C3007 1.362 . S
C3007 H2997 0.930 . S
C3007 C3000 1.409 . S
C3007 C3006 1.362 . S
H3008 C3014 0.930 . S
H3009 C3017 0.930 . S
H3010 C3018 0.930 . S
H3011 C3019 0.930 . S
H3012 C3022 0.930 . S
H3013 C3023 0.930 . S
C3014 H3008 0.930 . S
C3014 C3015 1.355 . S
C3014 C3016 1.415 . S
C3015 C3014 1.355 . S
C3015 C3017 1.419 . S
C3016 C3014 1.415 . S
C3016 C3021 1.425 . S
C3016 C3023 1.409 . S
C3017 H3009 0.930 . S
C3017 C3015 1.419 . S
C3017 C3018 1.362 . S
C3018 H3010 0.930 . S
C3018 C3017 1.362 . S
C3018 C3021 1.409 . S
C3019 H3011 0.930 . S
C3019 C3020 1.355 . S
C3019 C3021 1.415 . S
C3020 C3019 1.355 . S
C3020 C3022 1.419 . S
C3021 C3016 1.425 . S
C3021 C3018 1.409 . S
C3021 C3019 1.415 . S
C3022 H3012 0.930 . S
C3022 C3020 1.419 . S
C3022 C3023 1.362 . S
C3023 H3013 0.930 . S
C3023 C3016 1.409 . S
C3023 C3022 1.362 . S
H3024 C3030 0.930 . S
H3025 C3033 0.930 . S
H3026 C3034 0.930 . S
H3027 C3035 0.930 . S
H3028 C3038 0.930 . S
H3029 C3039 0.930 . S
C3030 H3024 0.930 . S
C3030 C3031 1.355 . S
C3030 C3032 1.415 . S
C3031 C3030 1.355 . S
C3031 C3033 1.419 . S
C3032 C3030 1.415 . S
C3032 C3037 1.425 . S
C3032 C3039 1.409 . S
C3033 H3025 0.930 . S
C3033 C3031 1.419 . S
C3033 C3034 1.362 . S
C3034 H3026 0.930 . S
C3034 C3033 1.362 . S
C3034 C3037 1.409 . S
C3035 H3027 0.930 . S
C3035 C3036 1.355 . S
C3035 C3037 1.415 . S
C3036 C3035 1.355 . S
C3036 C3038 1.419 . S
C3037 C3032 1.425 . S
C3037 C3034 1.409 . S
C3037 C3035 1.415 . S
C3038 H3028 0.930 . S
C3038 C3036 1.419 . S
C3038 C3039 1.362 . S
C3039 H3029 0.930 . S
C3039 C3032 1.409 . S
C3039 C3038 1.362 . S
H3040 C3046 0.930 . S
H3041 C3049 0.930 . S
H3042 C3050 0.930 . S
H3043 C3051 0.930 . S
H3044 C3054 0.930 . S
H3045 C3055 0.930 . S
C3046 H3040 0.930 . S
C3046 C3047 1.355 . S
C3046 C3048 1.415 . S
C3047 C3046 1.355 . S
C3047 C3049 1.419 . S
C3048 C3046 1.415 . S
C3048 C3053 1.425 . S
C3048 C3055 1.409 . S
C3049 H3041 0.930 . S
C3049 C3047 1.419 . S
C3049 C3050 1.362 . S
C3050 H3042 0.930 . S
C3050 C3049 1.362 . S
C3050 C3053 1.409 . S
C3051 H3043 0.930 . S
C3051 C3052 1.355 . S
C3051 C3053 1.415 . S
C3052 C3051 1.355 . S
C3052 C3054 1.419 . S
C3053 C3048 1.425 . S
C3053 C3050 1.409 . S
C3053 C3051 1.415 . S
C3054 H3044 0.930 . S
C3054 C3052 1.419 . S
C3054 C3055 1.362 . S
C3055 H3045 0.930 . S
C3055 C3048 1.409 . S
C3055 C3054 1.362 . S
H3056 C3062 0.930 . S
H3057 C3065 0.930 . S
H3058 C3066 0.930 . S
H3059 C3067 0.930 . S
H3060 C3070 0.930 . S
H3061 C3071 0.930 . S
C3062 H3056 0.930 . S
C3062 C3063 1.355 . S
C3062 C3064 1.415 . S
C3063 C3062 1.355 . S
C3063 C3065 1.419 . S
C3064 C3062 1.415 . S
C3064 C3069 1.425 . S
C3064 C3071 1.409 . S
C3065 H3057 0.930 . S
C3065 C3063 1.419 . S
C3065 C3066 1.362 . S
C3066 H3058 0.930 . S
C3066 C3065 1.362 . S
C3066 C3069 1.409 . S
C3067 H3059 0.930 . S
C3067 C3068 1.355 . S
C3067 C3069 1.415 . S
C3068 C3067 1.355 . S
C3068 C3070 1.419 . S
C3069 C3064 1.425 . S
C3069 C3066 1.409 . S
C3069 C3067 1.415 . S
C3070 H3060 0.930 . S
C3070 C3068 1.419 . S
C3070 C3071 1.362 . S
C3071 H3061 0.930 . S
C3071 C3064 1.409 . S
C3071 C3070 1.362 . S
H3072 C3078 0.930 . S
H3073 C3081 0.930 . S
H3074 C3082 0.930 . S
H3075 C3083 0.930 . S
H3076 C3086 0.930 . S
H3077 C3087 0.930 . S
C3078 H3072 0.930 . S
C3078 C3079 1.355 . S
C3078 C3080 1.415 . S
C3079 C3078 1.355 . S
C3079 C3081 1.419 . S
C3080 C3078 1.415 . S
C3080 C3085 1.425 . S
C3080 C3087 1.409 . S
C3081 H3073 0.930 . S
C3081 C3079 1.419 . S
C3081 C3082 1.362 . S
C3082 H3074 0.930 . S
C3082 C3081 1.362 . S
C3082 C3085 1.409 . S
C3083 H3075 0.930 . S
C3083 C3084 1.355 . S
C3083 C3085 1.415 . S
C3084 C3083 1.355 . S
C3084 C3086 1.419 . S
C3085 C3080 1.425 . S
C3085 C3082 1.409 . S
C3085 C3083 1.415 . S
C3086 H3076 0.930 . S
C3086 C3084 1.419 . S
C3086 C3087 1.362 . S
C3087 H3077 0.930 . S
C3087 C3080 1.409 . S
C3087 C3086 1.362 . S
H3088 C3094 0.930 . S
H3089 C3097 0.930 . S
H3090 C3098 0.930 . S
H3091 C3099 0.930 . S
H3092 C3102 0.930 . S
H3093 C3103 0.930 . S
C3094 H3088 0.930 . S
C3094 C3095 1.355 . S
C3094 C3096 1.415 . S
C3095 C3094 1.355 . S
C3095 C3097 1.419 . S
C3096 C3094 1.415 . S
C3096 C3101 1.425 . S
C3096 C3103 1.409 . S
C3097 H3089 0.930 . S
C3097 C3095 1.419 . S
C3097 C3098 1.362 . S
C3098 H3090 0.930 . S
C3098 C3097 1.362 . S
C3098 C3101 1.409 . S
C3099 H3091 0.930 . S
C3099 C3100 1.355 . S
C3099 C3101 1.415 . S
C3100 C3099 1.355 . S
C3100 C3102 1.419 . S
C3101 C3096 1.425 . S
C3101 C3098 1.409 . S
C3101 C3099 1.415 . S
C3102 H3092 0.930 . S
C3102 C3100 1.419 . S
C3102 C3103 1.362 . S
C3103 H3093 0.930 . S
C3103 C3096 1.409 . S
C3103 C3102 1.362 . S
H3104 C3110 0.930 . S
H3105 C3113 0.930 . S
H3106 C3114 0.930 . S
H3107 C3115 0.930 . S
H3108 C3118 0.930 . S
H3109 C3119 0.930 . S
C3110 H3104 0.930 . S
C3110 C3111 1.355 . S
C3110 C3112 1.415 . S
C3111 C3110 1.355 . S
C3111 C3113 1.419 . S
C3112 C3110 1.415 . S
C3112 C3117 1.425 . S
C3112 C3119 1.409 . S
C3113 H3105 0.930 . S
C3113 C3111 1.419 . S
C3113 C3114 1.362 . S
C3114 H3106 0.930 . S
C3114 C3113 1.362 . S
C3114 C3117 1.409 . S
C3115 H3107 0.930 . S
C3115 C3116 1.355 . S
C3115 C3117 1.415 . S
C3116 C3115 1.355 . S
C3116 C3118 1.419 . S
C3117 C3112 1.425 . S
C3117 C3114 1.409 . S
C3117 C3115 1.415 . S
C3118 H3108 0.930 . S
C3118 C3116 1.419 . S
C3118 C3119 1.362 . S
C3119 H3109 0.930 . S
C3119 C3112 1.409 . S
C3119 C3118 1.362 . S
H3120 C3126 0.930 . S
H3121 C3129 0.930 . S
H3122 C3130 0.930 . S
H3123 C3131 0.930 . S
H3124 C3134 0.930 . S
H3125 C3135 0.930 . S
C3126 H3120 0.930 . S
C3126 C3127 1.355 . S
C3126 C3128 1.415 . S
C3127 C3126 1.355 . S
C3127 C3129 1.419 . S
C3128 C3126 1.415 . S
C3128 C3133 1.425 . S
C3128 C3135 1.409 . S
C3129 H3121 0.930 . S
C3129 C3127 1.419 . S
C3129 C3130 1.362 . S
C3130 H3122 0.930 . S
C3130 C3129 1.362 . S
C3130 C3133 1.409 . S
C3131 H3123 0.930 . S
C3131 C3132 1.355 . S
C3131 C3133 1.415 . S
C3132 C3131 1.355 . S
C3132 C3134 1.419 . S
C3133 C3128 1.425 . S
C3133 C3130 1.409 . S
C3133 C3131 1.415 . S
C3134 H3124 0.930 . S
C3134 C3132 1.419 . S
C3134 C3135 1.362 . S
C3135 H3125 0.930 . S
C3135 C3128 1.409 . S
C3135 C3134 1.362 . S
H3136 C3142 0.930 . S
H3137 C3145 0.930 . S
H3138 C3146 0.930 . S
H3139 C3147 0.930 . S
H3140 C3150 0.930 . S
H3141 C3151 0.930 . S
C3142 H3136 0.930 . S
C3142 C3143 1.355 . S
C3142 C3144 1.415 . S
C3143 C3142 1.355 . S
C3143 C3145 1.419 . S
C3144 C3142 1.415 . S
C3144 C3149 1.425 . S
C3144 C3151 1.409 . S
C3145 H3137 0.930 . S
C3145 C3143 1.419 . S
C3145 C3146 1.362 . S
C3146 H3138 0.930 . S
C3146 C3145 1.362 . S
C3146 C3149 1.409 . S
C3147 H3139 0.930 . S
C3147 C3148 1.355 . S
C3147 C3149 1.415 . S
C3148 C3147 1.355 . S
C3148 C3150 1.419 . S
C3149 C3144 1.425 . S
C3149 C3146 1.409 . S
C3149 C3147 1.415 . S
C3150 H3140 0.930 . S
C3150 C3148 1.419 . S
C3150 C3151 1.362 . S
C3151 H3141 0.930 . S
C3151 C3144 1.409 . S
C3151 C3150 1.362 . S
H3152 C3158 0.930 . S
H3153 C3161 0.930 . S
H3154 C3162 0.930 . S
H3155 C3163 0.930 . S
H3156 C3166 0.930 . S
H3157 C3167 0.930 . S
C3158 H3152 0.930 . S
C3158 C3159 1.355 . S
C3158 C3160 1.415 . S
C3159 C3158 1.355 . S
C3159 C3161 1.419 . S
C3160 C3158 1.415 . S
C3160 C3165 1.425 . S
C3160 C3167 1.409 . S
C3161 H3153 0.930 . S
C3161 C3159 1.419 . S
C3161 C3162 1.362 . S
C3162 H3154 0.930 . S
C3162 C3161 1.362 . S
C3162 C3165 1.409 . S
C3163 H3155 0.930 . S
C3163 C3164 1.355 . S
C3163 C3165 1.415 . S
C3164 C3163 1.355 . S
C3164 C3166 1.419 . S
C3165 C3160 1.425 . S
C3165 C3162 1.409 . S
C3165 C3163 1.415 . S
C3166 H3156 0.930 . S
C3166 C3164 1.419 . S
C3166 C3167 1.362 . S
C3167 H3157 0.930 . S
C3167 C3160 1.409 . S
C3167 C3166 1.362 . S
H3168 C3174 0.930 . S
H3169 C3177 0.930 . S
H3170 C3178 0.933 1_455 S
H3171 C3179 0.930 . S
H3172 C3182 0.930 . S
H3173 C3183 0.933 1_655 S
C3174 H3168 0.930 . S
C3174 C3175 1.355 . S
C3174 C3176 1.415 . S
C3175 C3174 1.355 . S
C3175 C3177 1.419 . S
C3176 C3174 1.415 . S
C3176 C3181 1.425 1_655 S
C3176 C3183 1.410 1_655 S
C3177 H3169 0.930 . S
C3177 C3175 1.419 . S
C3177 C3178 1.359 . S
C3178 H3170 0.933 1_655 S
C3178 C3177 1.359 . S
C3178 C3181 1.410 1_655 S
C3179 H3171 0.930 . S
C3179 C3180 1.355 . S
C3179 C3181 1.415 . S
C3180 C3179 1.355 . S
C3180 C3182 1.419 . S
C3181 C3176 1.425 1_455 S
C3181 C3178 1.410 1_455 S
C3181 C3179 1.415 . S
C3182 H3172 0.930 . S
C3182 C3180 1.419 . S
C3182 C3183 1.359 . S
C3183 H3173 0.933 1_455 S
C3183 C3176 1.410 1_455 S
C3183 C3182 1.359 . S
H3184 C3190 0.930 1_655 S
H3185 C3193 0.930 . S
H3186 C3194 0.930 . S
H3187 C3195 0.930 1_455 S
H3188 C3198 0.930 . S
H3189 C3199 0.930 . S
C3190 H3184 0.930 1_455 S
C3190 C3191 1.355 . S
C3190 C3192 1.415 1_455 S
C3191 C3190 1.355 . S
C3191 C3193 1.419 . S
C3192 C3190 1.415 1_655 S
C3192 C3197 1.425 1_655 S
C3192 C3199 1.409 . S
C3193 H3185 0.930 . S
C3193 C3191 1.419 . S
C3193 C3194 1.362 . S
C3194 H3186 0.930 . S
C3194 C3193 1.362 . S
C3194 C3197 1.409 . S
C3195 H3187 0.930 1_655 S
C3195 C3196 1.355 . S
C3195 C3197 1.415 1_655 S
C3196 C3195 1.355 . S
C3196 C3198 1.419 . S
C3197 C3192 1.425 1_455 S
C3197 C3194 1.409 . S
C3197 C3195 1.415 1_455 S
C3198 H3188 0.930 . S
C3198 C3196 1.419 . S
C3198 C3199 1.362 . S
C3199 H3189 0.930 . S
C3199 C3192 1.409 . S
C3199 C3198 1.362 . S
H3200 C3206 0.930 . S
H3201 C3209 0.930 . S
H3202 C3210 0.930 . S
H3203 C3211 0.930 . S
H3204 C3214 0.930 . S
H3205 C3215 0.930 . S
C3206 H3200 0.930 . S
C3206 C3207 1.355 . S
C3206 C3208 1.415 . S
C3207 C3206 1.355 . S
C3207 C3209 1.419 . S
C3208 C3206 1.415 . S
C3208 C3213 1.425 . S
C3208 C3215 1.409 . S
C3209 H3201 0.930 . S
C3209 C3207 1.419 . S
C3209 C3210 1.362 . S
C3210 H3202 0.930 . S
C3210 C3209 1.362 . S
C3210 C3213 1.409 . S
C3211 H3203 0.930 . S
C3211 C3212 1.355 . S
C3211 C3213 1.415 . S
C3212 C3211 1.355 . S
C3212 C3214 1.419 . S
C3213 C3208 1.425 . S
C3213 C3210 1.409 . S
C3213 C3211 1.415 . S
C3214 H3204 0.930 . S
C3214 C3212 1.419 . S
C3214 C3215 1.362 . S
C3215 H3205 0.930 . S
C3215 C3208 1.409 . S
C3215 C3214 1.362 . S
H3216 C3222 0.930 . S
H3217 C3225 0.930 . S
H3218 C3226 0.930 . S
H3219 C3227 0.930 . S
H3220 C3230 0.930 . S
H3221 C3231 0.930 . S
C3222 H3216 0.930 . S
C3222 C3223 1.355 . S
C3222 C3224 1.415 . S
C3223 C3222 1.355 . S
C3223 C3225 1.419 . S
C3224 C3222 1.415 . S
C3224 C3229 1.425 . S
C3224 C3231 1.409 . S
C3225 H3217 0.930 . S
C3225 C3223 1.419 . S
C3225 C3226 1.362 . S
C3226 H3218 0.930 . S
C3226 C3225 1.362 . S
C3226 C3229 1.409 . S
C3227 H3219 0.930 . S
C3227 C3228 1.355 . S
C3227 C3229 1.415 . S
C3228 C3227 1.355 . S
C3228 C3230 1.419 . S
C3229 C3224 1.425 . S
C3229 C3226 1.409 . S
C3229 C3227 1.415 . S
C3230 H3220 0.930 . S
C3230 C3228 1.419 . S
C3230 C3231 1.362 . S
C3231 H3221 0.930 . S
C3231 C3224 1.409 . S
C3231 C3230 1.362 . S
H3232 C3238 0.930 . S
H3233 C3241 0.930 . S
H3234 C3242 0.930 . S
H3235 C3243 0.930 . S
H3236 C3246 0.930 . S
H3237 C3247 0.930 . S
C3238 H3232 0.930 . S
C3238 C3239 1.355 . S
C3238 C3240 1.386 1_655 S
C3239 C3238 1.355 . S
C3239 C3241 1.419 . S
C3240 C3238 1.386 1_455 S
C3240 C3245 1.423 1_455 S
C3240 C3247 1.440 . S
C3241 H3233 0.930 . S
C3241 C3239 1.419 . S
C3241 C3242 1.362 . S
C3242 H3234 0.930 . S
C3242 C3241 1.362 . S
C3242 C3245 1.440 . S
C3243 H3235 0.930 . S
C3243 C3244 1.355 . S
C3243 C3245 1.386 1_455 S
C3244 C3243 1.355 . S
C3244 C3246 1.419 . S
C3245 C3240 1.423 1_655 S
C3245 C3242 1.440 . S
C3245 C3243 1.386 1_655 S
C3246 H3236 0.930 . S
C3246 C3244 1.419 . S
C3246 C3247 1.362 . S
C3247 H3237 0.930 . S
C3247 C3240 1.440 . S
C3247 C3246 1.362 . S
H3248 C3254 0.930 . S
H3249 C3257 0.930 . S
H3250 C3258 0.930 . S
H3251 C3259 0.930 . S
H3252 C3262 0.930 . S
H3253 C3263 0.930 . S
C3254 H3248 0.930 . S
C3254 C3255 1.355 . S
C3254 C3256 1.415 . S
C3255 C3254 1.355 . S
C3255 C3257 1.419 . S
C3256 C3254 1.415 . S
C3256 C3261 1.425 . S
C3256 C3263 1.409 . S
C3257 H3249 0.930 . S
C3257 C3255 1.419 . S
C3257 C3258 1.362 . S
C3258 H3250 0.930 . S
C3258 C3257 1.362 . S
C3258 C3261 1.409 . S
C3259 H3251 0.930 . S
C3259 C3260 1.355 . S
C3259 C3261 1.415 . S
C3260 C3259 1.355 . S
C3260 C3262 1.419 . S
C3261 C3256 1.425 . S
C3261 C3258 1.409 . S
C3261 C3259 1.415 . S
C3262 H3252 0.930 . S
C3262 C3260 1.419 . S
C3262 C3263 1.362 . S
C3263 H3253 0.930 . S
C3263 C3256 1.409 . S
C3263 C3262 1.362 . S
H3264 C3270 0.930 . S
H3265 C3273 0.930 . S
H3266 C3274 0.930 . S
H3267 C3275 0.930 . S
H3268 C3278 0.930 . S
H3269 C3279 0.930 . S
C3270 H3264 0.930 . S
C3270 C3271 1.355 . S
C3270 C3272 1.415 . S
C3271 C3270 1.355 . S
C3271 C3273 1.419 . S
C3272 C3270 1.415 . S
C3272 C3277 1.425 . S
C3272 C3279 1.409 . S
C3273 H3265 0.930 . S
C3273 C3271 1.419 . S
C3273 C3274 1.362 . S
C3274 H3266 0.930 . S
C3274 C3273 1.362 . S
C3274 C3277 1.409 . S
C3275 H3267 0.930 . S
C3275 C3276 1.355 . S
C3275 C3277 1.415 . S
C3276 C3275 1.355 . S
C3276 C3278 1.419 . S
C3277 C3272 1.425 . S
C3277 C3274 1.409 . S
C3277 C3275 1.415 . S
C3278 H3268 0.930 . S
C3278 C3276 1.419 . S
C3278 C3279 1.362 . S
C3279 H3269 0.930 . S
C3279 C3272 1.409 . S
C3279 C3278 1.362 . S
H3280 C3286 0.930 . S
H3281 C3289 0.930 . S
H3282 C3290 0.930 . S
H3283 C3291 0.930 . S
H3284 C3294 0.930 . S
H3285 C3295 0.930 . S
C3286 H3280 0.930 . S
C3286 C3287 1.355 1_655 S
C3286 C3288 1.415 . S
C3287 C3286 1.355 1_455 S
C3287 C3289 1.419 . S
C3288 C3286 1.415 . S
C3288 C3293 1.425 1_655 S
C3288 C3295 1.409 . S
C3289 H3281 0.930 . S
C3289 C3287 1.419 . S
C3289 C3290 1.362 . S
C3290 H3282 0.930 . S
C3290 C3289 1.362 . S
C3290 C3293 1.409 . S
C3291 H3283 0.930 . S
C3291 C3292 1.355 1_455 S
C3291 C3293 1.415 . S
C3292 C3291 1.355 1_655 S
C3292 C3294 1.419 . S
C3293 C3288 1.425 1_455 S
C3293 C3290 1.409 . S
C3293 C3291 1.415 . S
C3294 H3284 0.930 . S
C3294 C3292 1.419 . S
C3294 C3295 1.362 . S
C3295 H3285 0.930 . S
C3295 C3288 1.409 . S
C3295 C3294 1.362 . S
H3296 C3302 0.930 . S
H3297 C3305 0.930 . S
H3298 C3306 0.965 . S
H3299 C3307 0.930 . S
H3300 C3310 0.930 . S
H3301 C3311 0.965 . S
C3302 H3296 0.930 . S
C3302 C3303 1.355 . S
C3302 C3304 1.415 . S
C3303 C3302 1.355 . S
C3303 C3305 1.419 . S
C3304 C3302 1.415 . S
C3304 C3309 1.425 1_545 S
C3304 C3311 1.425 . S
C3305 H3297 0.930 . S
C3305 C3303 1.419 . S
C3305 C3306 1.313 1_545 S
C3306 H3298 0.965 . S
C3306 C3305 1.313 1_565 S
C3306 C3309 1.425 . S
C3307 H3299 0.930 . S
C3307 C3308 1.355 . S
C3307 C3309 1.415 . S
C3308 C3307 1.355 . S
C3308 C3310 1.419 . S
C3309 C3304 1.425 1_565 S
C3309 C3306 1.425 . S
C3309 C3307 1.415 . S
C3310 H3300 0.930 . S
C3310 C3308 1.419 . S
C3310 C3311 1.313 1_565 S
C3311 H3301 0.965 . S
C3311 C3304 1.425 . S
C3311 C3310 1.313 1_545 S
H3312 C3318 0.930 . S
H3313 C3321 0.930 . S
H3314 C3322 0.930 . S
H3315 C3323 0.930 . S
H3316 C3326 0.930 . S
H3317 C3327 0.930 . S
C3318 H3312 0.930 . S
C3318 C3319 1.355 . S
C3318 C3320 1.415 . S
C3319 C3318 1.355 . S
C3319 C3321 1.419 . S
C3320 C3318 1.415 . S
C3320 C3325 1.425 . S
C3320 C3327 1.409 . S
C3321 H3313 0.930 . S
C3321 C3319 1.419 . S
C3321 C3322 1.362 . S
C3322 H3314 0.930 . S
C3322 C3321 1.362 . S
C3322 C3325 1.409 . S
C3323 H3315 0.930 . S
C3323 C3324 1.355 . S
C3323 C3325 1.415 . S
C3324 C3323 1.355 . S
C3324 C3326 1.419 . S
C3325 C3320 1.425 . S
C3325 C3322 1.409 . S
C3325 C3323 1.415 . S
C3326 H3316 0.930 . S
C3326 C3324 1.419 . S
C3326 C3327 1.362 . S
C3327 H3317 0.930 . S
C3327 C3320 1.409 . S
C3327 C3326 1.362 . S
H3328 C3334 0.930 . S
H3329 C3337 0.930 . S
H3330 C3338 0.930 . S
H3331 C3339 0.930 . S
H3332 C3342 0.930 . S
H3333 C3343 0.930 . S
C3334 H3328 0.930 . S
C3334 C3335 1.355 . S
C3334 C3336 1.415 . S
C3335 C3334 1.355 . S
C3335 C3337 1.419 . S
C3336 C3334 1.415 . S
C3336 C3341 1.425 1_565 S
C3336 C3343 1.409 1_565 S
C3337 H3329 0.930 . S
C3337 C3335 1.419 . S
C3337 C3338 1.362 . S
C3338 H3330 0.930 . S
C3338 C3337 1.362 . S
C3338 C3341 1.409 1_565 S
C3339 H3331 0.930 . S
C3339 C3340 1.355 . S
C3339 C3341 1.415 . S
C3340 C3339 1.355 . S
C3340 C3342 1.419 . S
C3341 C3336 1.425 1_545 S
C3341 C3338 1.409 1_545 S
C3341 C3339 1.415 . S
C3342 H3332 0.930 . S
C3342 C3340 1.419 . S
C3342 C3343 1.362 . S
C3343 H3333 0.930 . S
C3343 C3336 1.409 1_545 S
C3343 C3342 1.362 . S
H3344 C3350 0.930 . S
H3345 C3353 0.930 . S
H3346 C3354 0.930 . S
H3347 C3355 0.930 . S
H3348 C3358 0.930 . S
H3349 C3359 0.930 . S
C3350 H3344 0.930 . S
C3350 C3351 1.355 . S
C3350 C3352 1.415 . S
C3351 C3350 1.355 . S
C3351 C3353 1.419 1_556 S
C3352 C3350 1.415 . S
C3352 C3357 1.425 1_556 S
C3352 C3359 1.409 . S
C3353 H3345 0.930 . S
C3353 C3351 1.419 1_554 S
C3353 C3354 1.362 . S
C3354 H3346 0.930 . S
C3354 C3353 1.362 . S
C3354 C3357 1.409 . S
C3355 H3347 0.930 . S
C3355 C3356 1.355 . S
C3355 C3357 1.415 . S
C3356 C3355 1.355 . S
C3356 C3358 1.419 1_554 S
C3357 C3352 1.425 1_554 S
C3357 C3354 1.409 . S
C3357 C3355 1.415 . S
C3358 H3348 0.930 . S
C3358 C3356 1.419 1_556 S
C3358 C3359 1.362 . S
C3359 H3349 0.930 . S
C3359 C3352 1.409 . S
C3359 C3358 1.362 . S
H3360 C3366 0.930 . S
H3361 C3369 0.930 . S
H3362 C3370 0.948 . S
H3363 C3371 0.930 . S
H3364 C3374 0.930 . S
H3365 C3375 0.948 . S
C3366 H3360 0.930 . S
C3366 C3367 1.355 . S
C3366 C3368 1.415 . S
C3367 C3366 1.355 . S
C3367 C3369 1.419 . S
C3368 C3366 1.415 . S
C3368 C3373 1.425 1_556 S
C3368 C3375 1.418 . S
C3369 H3361 0.930 . S
C3369 C3367 1.419 . S
C3369 C3370 1.337 1_556 S
C3370 H3362 0.948 . S
C3370 C3369 1.337 1_554 S
C3370 C3373 1.418 . S
C3371 H3363 0.930 . S
C3371 C3372 1.355 . S
C3371 C3373 1.415 . S
C3372 C3371 1.355 . S
C3372 C3374 1.419 . S
C3373 C3368 1.425 1_554 S
C3373 C3370 1.418 . S
C3373 C3371 1.415 . S
C3374 H3364 0.930 . S
C3374 C3372 1.419 . S
C3374 C3375 1.337 1_554 S
C3375 H3365 0.948 . S
C3375 C3368 1.418 . S
C3375 C3374 1.337 1_556 S
H3376 C3382 0.930 . S
H3377 C3385 0.930 . S
H3378 C3386 0.967 . S
H3379 C3387 0.930 . S
H3380 C3390 0.930 . S
H3381 C3391 0.967 . S
C3382 H3376 0.930 . S
C3382 C3383 1.355 . S
C3382 C3384 1.415 . S
C3383 C3382 1.355 . S
C3383 C3385 1.419 . S
C3384 C3382 1.415 . S
C3384 C3389 1.425 1_554 S
C3384 C3391 1.426 . S
C3385 H3377 0.930 . S
C3385 C3383 1.419 . S
C3385 C3386 1.311 1_554 S
C3386 H3378 0.967 . S
C3386 C3385 1.311 1_556 S
C3386 C3389 1.426 . S
C3387 H3379 0.930 . S
C3387 C3388 1.355 . S
C3387 C3389 1.415 . S
C3388 C3387 1.355 . S
C3388 C3390 1.419 . S
C3389 C3384 1.425 1_556 S
C3389 C3386 1.426 . S
C3389 C3387 1.415 . S
C3390 H3380 0.930 . S
C3390 C3388 1.419 . S
C3390 C3391 1.311 1_556 S
C3391 H3381 0.967 . S
C3391 C3384 1.426 . S
C3391 C3390 1.311 1_554 S
H3392 C3398 0.930 . S
H3393 C3401 0.930 . S
H3394 C3402 0.930 . S
H3395 C3403 0.930 . S
H3396 C3406 0.930 . S
H3397 C3407 0.930 . S
C3398 H3392 0.930 . S
C3398 C3399 1.355 . S
C3398 C3400 1.415 . S
C3399 C3398 1.355 . S
C3399 C3401 1.419 . S
C3400 C3398 1.415 . S
C3400 C3405 1.425 . S
C3400 C3407 1.409 . S
C3401 H3393 0.930 . S
C3401 C3399 1.419 . S
C3401 C3402 1.362 . S
C3402 H3394 0.930 . S
C3402 C3401 1.362 . S
C3402 C3405 1.409 . S
C3403 H3395 0.930 . S
C3403 C3404 1.355 . S
C3403 C3405 1.415 . S
C3404 C3403 1.355 . S
C3404 C3406 1.419 . S
C3405 C3400 1.425 . S
C3405 C3402 1.409 . S
C3405 C3403 1.415 . S
C3406 H3396 0.930 . S
C3406 C3404 1.419 . S
C3406 C3407 1.362 . S
C3407 H3397 0.930 . S
C3407 C3400 1.409 . S
C3407 C3406 1.362 . S
H3408 C3414 0.930 . S
H3409 C3417 0.930 . S
H3410 C3418 0.930 . S
H3411 C3419 0.930 . S
H3412 C3422 0.930 . S
H3413 C3423 0.930 . S
C3414 H3408 0.930 . S
C3414 C3415 1.355 . S
C3414 C3416 1.415 . S
C3415 C3414 1.355 . S
C3415 C3417 1.419 . S
C3416 C3414 1.415 . S
C3416 C3421 1.425 . S
C3416 C3423 1.409 . S
C3417 H3409 0.930 . S
C3417 C3415 1.419 . S
C3417 C3418 1.362 . S
C3418 H3410 0.930 . S
C3418 C3417 1.362 . S
C3418 C3421 1.409 . S
C3419 H3411 0.930 . S
C3419 C3420 1.355 . S
C3419 C3421 1.415 . S
C3420 C3419 1.355 . S
C3420 C3422 1.419 . S
C3421 C3416 1.425 . S
C3421 C3418 1.409 . S
C3421 C3419 1.415 . S
C3422 H3412 0.930 . S
C3422 C3420 1.419 . S
C3422 C3423 1.362 . S
C3423 H3413 0.930 . S
C3423 C3416 1.409 . S
C3423 C3422 1.362 . S
H3424 C3430 0.930 . S
H3425 C3433 0.930 . S
H3426 C3434 0.930 . S
H3427 C3435 0.930 . S
H3428 C3438 0.930 . S
H3429 C3439 0.930 . S
C3430 H3424 0.930 . S
C3430 C3431 1.355 1_565 S
C3430 C3432 1.415 . S
C3431 C3430 1.355 1_545 S
C3431 C3433 1.419 . S
C3432 C3430 1.415 . S
C3432 C3437 1.425 1_565 S
C3432 C3439 1.409 . S
C3433 H3425 0.930 . S
C3433 C3431 1.419 . S
C3433 C3434 1.362 . S
C3434 H3426 0.930 . S
C3434 C3433 1.362 . S
C3434 C3437 1.409 . S
C3435 H3427 0.930 . S
C3435 C3436 1.355 1_545 S
C3435 C3437 1.415 . S
C3436 C3435 1.355 1_565 S
C3436 C3438 1.419 . S
C3437 C3432 1.425 1_545 S
C3437 C3434 1.409 . S
C3437 C3435 1.415 . S
C3438 H3428 0.930 . S
C3438 C3436 1.419 . S
C3438 C3439 1.362 . S
C3439 H3429 0.930 . S
C3439 C3432 1.409 . S
C3439 C3438 1.362 . S
H3440 C3446 0.930 . S
H3441 C3449 0.930 . S
H3442 C3450 0.930 . S
H3443 C3451 0.930 . S
H3444 C3454 0.930 . S
H3445 C3455 0.930 . S
C3446 H3440 0.930 . S
C3446 C3447 1.355 . S
C3446 C3448 1.415 . S
C3447 C3446 1.355 . S
C3447 C3449 1.419 . S
C3448 C3446 1.415 . S
C3448 C3453 1.425 . S
C3448 C3455 1.409 . S
C3449 H3441 0.930 . S
C3449 C3447 1.419 . S
C3449 C3450 1.362 . S
C3450 H3442 0.930 . S
C3450 C3449 1.362 . S
C3450 C3453 1.409 . S
C3451 H3443 0.930 . S
C3451 C3452 1.355 . S
C3451 C3453 1.415 . S
C3452 C3451 1.355 . S
C3452 C3454 1.419 . S
C3453 C3448 1.425 . S
C3453 C3450 1.409 . S
C3453 C3451 1.415 . S
C3454 H3444 0.930 . S
C3454 C3452 1.419 . S
C3454 C3455 1.362 . S
C3455 H3445 0.930 . S
C3455 C3448 1.409 . S
C3455 C3454 1.362 . S
H3456 C3462 0.930 . S
H3457 C3465 0.930 . S
H3458 C3466 0.930 . S
H3459 C3467 0.930 . S
H3460 C3470 0.930 . S
H3461 C3471 0.930 . S
C3462 H3456 0.930 . S
C3462 C3463 1.355 . S
C3462 C3464 1.415 . S
C3463 C3462 1.355 . S
C3463 C3465 1.419 . S
C3464 C3462 1.415 . S
C3464 C3469 1.425 . S
C3464 C3471 1.409 . S
C3465 H3457 0.930 . S
C3465 C3463 1.419 . S
C3465 C3466 1.362 . S
C3466 H3458 0.930 . S
C3466 C3465 1.362 . S
C3466 C3469 1.409 . S
C3467 H3459 0.930 . S
C3467 C3468 1.355 . S
C3467 C3469 1.415 . S
C3468 C3467 1.355 . S
C3468 C3470 1.419 . S
C3469 C3464 1.425 . S
C3469 C3466 1.409 . S
C3469 C3467 1.415 . S
C3470 H3460 0.930 . S
C3470 C3468 1.419 . S
C3470 C3471 1.362 . S
C3471 H3461 0.930 . S
C3471 C3464 1.409 . S
C3471 C3470 1.362 . S
H3472 C3478 0.930 . S
H3473 C3481 0.930 . S
H3474 C3482 0.930 . S
H3475 C3483 0.930 . S
H3476 C3486 0.930 . S
H3477 C3487 0.930 . S
C3478 H3472 0.930 . S
C3478 C3479 1.355 . S
C3478 C3480 1.415 . S
C3479 C3478 1.355 . S
C3479 C3481 1.419 . S
C3480 C3478 1.415 . S
C3480 C3485 1.425 . S
C3480 C3487 1.409 . S
C3481 H3473 0.930 . S
C3481 C3479 1.419 . S
C3481 C3482 1.362 . S
C3482 H3474 0.930 . S
C3482 C3481 1.362 . S
C3482 C3485 1.409 . S
C3483 H3475 0.930 . S
C3483 C3484 1.355 . S
C3483 C3485 1.415 . S
C3484 C3483 1.355 . S
C3484 C3486 1.419 . S
C3485 C3480 1.425 . S
C3485 C3482 1.409 . S
C3485 C3483 1.415 . S
C3486 H3476 0.930 . S
C3486 C3484 1.419 . S
C3486 C3487 1.362 . S
C3487 H3477 0.930 . S
C3487 C3480 1.409 . S
C3487 C3486 1.362 . S
H3488 C3494 0.930 . S
H3489 C3497 0.930 . S
H3490 C3498 0.930 . S
H3491 C3499 0.930 . S
H3492 C3502 0.930 . S
H3493 C3503 0.930 . S
C3494 H3488 0.930 . S
C3494 C3495 1.355 . S
C3494 C3496 1.415 1_554 S
C3495 C3494 1.355 . S
C3495 C3497 1.419 . S
C3496 C3494 1.415 1_556 S
C3496 C3501 1.425 1_556 S
C3496 C3503 1.409 . S
C3497 H3489 0.930 . S
C3497 C3495 1.419 . S
C3497 C3498 1.362 . S
C3498 H3490 0.930 . S
C3498 C3497 1.362 . S
C3498 C3501 1.409 . S
C3499 H3491 0.930 . S
C3499 C3500 1.355 . S
C3499 C3501 1.415 1_556 S
C3500 C3499 1.355 . S
C3500 C3502 1.419 . S
C3501 C3496 1.425 1_554 S
C3501 C3498 1.409 . S
C3501 C3499 1.415 1_554 S
C3502 H3492 0.930 . S
C3502 C3500 1.419 . S
C3502 C3503 1.362 . S
C3503 H3493 0.930 . S
C3503 C3496 1.409 . S
C3503 C3502 1.362 . S
H3504 C3510 0.930 . S
H3505 C3513 0.930 . S
H3506 C3514 0.930 . S
H3507 C3515 0.930 . S
H3508 C3518 0.930 . S
H3509 C3519 0.930 . S
C3510 H3504 0.930 . S
C3510 C3511 1.355 . S
C3510 C3512 1.415 . S
C3511 C3510 1.355 . S
C3511 C3513 1.419 . S
C3512 C3510 1.415 . S
C3512 C3517 1.425 . S
C3512 C3519 1.409 . S
C3513 H3505 0.930 . S
C3513 C3511 1.419 . S
C3513 C3514 1.362 . S
C3514 H3506 0.930 . S
C3514 C3513 1.362 . S
C3514 C3517 1.409 . S
C3515 H3507 0.930 . S
C3515 C3516 1.355 . S
C3515 C3517 1.415 . S
C3516 C3515 1.355 . S
C3516 C3518 1.419 . S
C3517 C3512 1.425 . S
C3517 C3514 1.409 . S
C3517 C3515 1.415 . S
C3518 H3508 0.930 . S
C3518 C3516 1.419 . S
C3518 C3519 1.362 . S
C3519 H3509 0.930 . S
C3519 C3512 1.409 . S
C3519 C3518 1.362 . S
H3520 C3526 0.930 . S
H3521 C3529 0.930 . S
H3522 C3530 0.930 . S
H3523 C3531 0.930 . S
H3524 C3534 0.930 . S
H3525 C3535 0.930 . S
C3526 H3520 0.930 . S
C3526 C3527 1.355 . S
C3526 C3528 1.415 . S
C3527 C3526 1.355 . S
C3527 C3529 1.419 . S
C3528 C3526 1.415 . S
C3528 C3533 1.425 . S
C3528 C3535 1.409 . S
C3529 H3521 0.930 . S
C3529 C3527 1.419 . S
C3529 C3530 1.362 . S
C3530 H3522 0.930 . S
C3530 C3529 1.362 . S
C3530 C3533 1.409 . S
C3531 H3523 0.930 . S
C3531 C3532 1.355 . S
C3531 C3533 1.415 . S
C3532 C3531 1.355 . S
C3532 C3534 1.419 . S
C3533 C3528 1.425 . S
C3533 C3530 1.409 . S
C3533 C3531 1.415 . S
C3534 H3524 0.930 . S
C3534 C3532 1.419 . S
C3534 C3535 1.362 . S
C3535 H3525 0.930 . S
C3535 C3528 1.409 . S
C3535 C3534 1.362 . S
H3536 C3542 0.930 . S
H3537 C3545 0.930 . S
H3538 C3546 0.930 . S
H3539 C3547 0.930 . S
H3540 C3550 0.930 . S
H3541 C3551 0.930 . S
C3542 H3536 0.930 . S
C3542 C3543 1.355 1_545 S
C3542 C3544 1.415 . S
C3543 C3542 1.355 1_565 S
C3543 C3545 1.419 . S
C3544 C3542 1.415 . S
C3544 C3549 1.425 1_545 S
C3544 C3551 1.409 . S
C3545 H3537 0.930 . S
C3545 C3543 1.419 . S
C3545 C3546 1.362 . S
C3546 H3538 0.930 . S
C3546 C3545 1.362 . S
C3546 C3549 1.409 . S
C3547 H3539 0.930 . S
C3547 C3548 1.355 1_565 S
C3547 C3549 1.415 . S
C3548 C3547 1.355 1_545 S
C3548 C3550 1.419 . S
C3549 C3544 1.425 1_565 S
C3549 C3546 1.409 . S
C3549 C3547 1.415 . S
C3550 H3540 0.930 . S
C3550 C3548 1.419 . S
C3550 C3551 1.362 . S
C3551 H3541 0.930 . S
C3551 C3544 1.409 . S
C3551 C3550 1.362 . S
C1639 C33 2.502 . S
C1644 C713 2.493 . S
C1655 C1427 2.511 . S
C1660 C67 2.520 . S
C1671 C1461 2.519 . S
C1676 C101 2.503 . S
C1687 C135 2.495 . S
C1692 C1495 2.512 . S
C1703 C169 2.515 . S
C1708 C1631 2.497 . S
C1719 C747 2.493 . S
C1724 C203 2.500 . S
C1735 C237 2.507 . S
C1740 C1597 2.520 . S
C1751 C271 2.495 . S
C1756 C577 2.496 . S
C1767 C305 2.504 . S
C1772 C543 2.493 . S
C1783 C339 2.498 . S
C1788 C441 2.515 . S
C1799 C475 2.508 . S
C1804 C373 2.493 . S
C1815 C509 2.507 . S
C1820 C407 2.493 . S
C1831 C883 2.506 . S
C1836 C611 2.493 . S
C1847 C645 2.519 . S
C1852 C917 2.504 . S
C1863 C951 2.519 . S
C1868 C679 2.513 . S
C1879 C781 2.519 . S
C1884 C1053 2.514 . S
C1895 C815 2.512 . S
C1900 C985 2.519 . S
C1911 C1529 2.505 . S
C1916 C849 2.493 . S
C1927 C1563 2.499 . S
C1932 C1019 2.493 . S
C1943 C1087 2.495 . S
C1948 C1393 2.512 . S
C1959 C1359 2.501 . S
C1964 C1121 2.493 . S
C1975 C1257 2.517 . S
C1980 C1155 2.517 . S
C1991 C1189 2.520 . S
C1996 C1291 2.508 . S
C2007 C1223 2.508 . S
C2012 C1325 2.493 . S
C2023 C553 1.063 . S
C2028 C20 1.006 . S
C2039 C1607 1.020 . S
C2044 C54 1.033 . S
C2055 C723 0.959 . S
C2060 C88 1.062 . S
C2071 C122 1.028 . S
C2076 C1573 1.007 . S
C2087 C1403 0.954 . S
C2092 C156 1.064 . S
C2103 C190 1.008 . S
C2108 C1437 1.053 . S
C2119 C1471 1.051 . S
C2124 C224 1.016 . S
C2135 C258 1.007 . S
C2140 C689 1.056 . S
C2151 C292 1.071 . S
C2156 C9 0.924 . S
C2167 C43 1.025 . S
C2172 C326 1.031 . S
C2183 C77 0.932 . S
C2188 C360 1.071 . S
C2199 C111 1.063 . S
C2204 C394 1.006 . S
C2215 C428 1.006 . S
C2220 C145 1.057 . S
C2231 C462 1.043 . S
C2236 C179 1.000 . S
C2247 C496 1.073 . S
C2252 C213 0.925 . S
C2263 C530 1.065 . S
C2268 C247 0.952 . S
C2279 C281 1.060 . S
C2284 C564 1.005 . S
C2295 C598 1.065 . S
C2300 C1233 0.950 . S
C2311 C632 1.057 . S
C2316 C1267 0.970 . S
C2327 C1301 0.932 . S
C2332 C666 1.066 . S
C2343 C700 1.008 . S
C2348 C519 1.061 . S
C2359 C734 1.008 . S
C2364 C349 1.052 . S
C2375 C1199 1.054 . S
C2380 C768 1.014 . S
C2391 C802 1.044 . S
C2396 C1131 0.974 . S
C2407 C836 1.006 . S
C2412 C1369 1.059 . S
C2423 C870 1.018 . S
C2428 C791 1.028 . S
C2439 C904 1.070 . S
C2444 C1539 0.936 . S
C2455 C938 1.073 . S
C2460 C757 0.924 . S
C2471 C587 0.944 . S
C2476 C972 1.068 . S
C2487 C1006 1.049 . S
C2492 C621 0.964 . S
C2503 C1040 1.072 . S
C2508 C655 0.929 . S
C2519 C1074 1.072 . S
C2524 C1505 0.924 . S
C2535 C825 0.927 . S
C2540 C1108 1.069 . S
C2551 C1142 1.008 . S
C2556 C859 1.061 . S
C2567 C893 0.927 . S
C2572 C1176 1.073 . S
C2583 C927 1.053 . S
C2588 C1210 1.008 . S
C2599 C961 0.934 . S
C2604 C1244 1.065 . S
C2615 C995 0.930 . S
C2620 C1278 1.067 . S
C2631 C1312 1.009 . S
C2636 C1029 1.050 . S
C2647 C1346 1.012 . S
C2652 C1063 1.042 . S
C2663 C1097 0.937 . S
C2668 C1380 1.070 . S
C2679 C1414 1.011 . S
C2684 C417 1.044 . S
C2695 C1448 1.053 . S
C2700 C451 0.980 . S
C2711 C1482 1.033 . S
C2716 C485 0.997 . S
C2727 C1335 0.923 . S
C2732 C1516 1.072 . S
C2743 C1165 0.965 . S
C2748 C1550 1.060 . S
C2759 C383 0.941 . S
C2764 C1584 1.061 . S
C2775 C1618 1.028 . S
C2780 C315 1.030 . S
C2791 C308 1.816 . S
C2796 C2 1.813 . S
C2807 C342 1.820 . S
C2812 C36 1.789 . S
C2823 C70 1.789 . S
C2828 C376 1.776 . S
C2839 C104 1.776 . S
C2844 C274 1.809 . S
C2855 C138 1.790 . S
C2860 C512 1.775 . S
C2871 C410 1.796 . S
C2876 C172 1.774 . S
C2887 C444 1.806 . S
C2892 C206 1.775 . S
C2903 C240 1.774 . S
C2908 C478 1.796 . S
C2919 C546 1.781 . S
C2924 C614 1.816 . S
C2935 C1566 1.778 . S
C2940 C580 1.813 . S
C2951 C1600 1.774 . S
C2956 C648 1.804 . S
C2967 C1532 1.821 . S
C2972 C682 1.804 . S
C2983 C716 1.774 . S
C2988 C1498 1.796 . S
C2999 C1396 1.815 . S
C3004 C750 1.814 . S
C3015 C1464 1.822 . S
C3020 C784 1.797 . S
C3031 C1124 1.780 . S
C3036 C818 1.814 . S
C3047 C1158 1.817 . S
C3052 C852 1.783 . S
C3063 C886 1.790 . S
C3068 C1192 1.775 . S
C3079 C1090 1.822 . S
C3084 C920 1.796 . S
C3095 C1328 1.807 . S
C3100 C954 1.820 . S
C3111 C988 1.783 . S
C3116 C1226 1.817 . S
C3127 C1260 1.803 . S
C3132 C1022 1.821 . S
C3143 C1056 1.787 . S
C3148 C1294 1.819 . S
C3159 C1362 1.798 . S
C3164 C1430 1.774 . S
C3175 C889 1.420 . S
C3180 C5 1.424 . S
C3191 C39 1.418 . S
C3196 C923 1.426 . S
C3207 C821 1.428 . S
C3212 C73 1.429 . S
C3223 C855 1.431 . S
C3228 C107 1.415 . S
C3239 C1025 1.419 . S
C3244 C141 1.436 . S
C3255 C1059 1.430 . S
C3260 C175 1.427 . S
C3271 C957 1.436 . S
C3276 C209 1.413 . S
C3287 C243 1.431 . S
C3292 C991 1.415 . S
C3303 C277 1.429 . S
C3308 C413 1.416 . S
C3319 C311 1.426 . S
C3324 C447 1.419 . S
C3335 C345 1.414 . S
C3340 C481 1.434 . S
C3351 C379 1.423 . S
C3356 C515 1.434 . S
C3367 C1467 1.431 . S
C3372 C549 1.415 . S
C3383 C1535 1.429 . S
C3388 C583 1.416 . S
C3399 C617 1.434 . S
C3404 C753 1.413 . S
C3415 C1365 1.434 . S
C3420 C651 1.423 . S
C3431 C685 1.427 . S
C3436 C1603 1.417 . S
C3447 C719 1.430 . S
C3452 C1399 1.415 . S
C3463 C787 1.418 . S
C3468 C1501 1.437 . S
C3479 C1093 1.438 . S
C3484 C1229 1.414 . S
C3495 C1263 1.415 . S
C3500 C1127 1.431 . S
C3511 C1297 1.428 . S
C3516 C1161 1.417 . S
C3527 C1195 1.416 . S
C3532 C1331 1.438 . S
C3543 C1433 1.429 . S
C3548 C1569 1.416 . S
