# Generated by pormake.
# Topology uog, (4)-cn, num edge types: 1
# Building blocks:
#     Node 0, Type 0, BuildingBlock: KUFVIS_clean_sbu_0, # of connection points: 4
#     Node 1, Type 0, BuildingBlock: KUFVIS_clean_sbu_0, # of connection points: 4
#     Node 2, Type 0, BuildingBlock: KUFVIS_clean_sbu_0, # of connection points: 4
#     Node 3, Type 0, BuildingBlock: KUFVIS_clean_sbu_0, # of connection points: 4
#     Node 4, Type 0, BuildingBlock: KUFVIS_clean_sbu_0, # of connection points: 4
#     Node 5, Type 0, BuildingBlock: KUFVIS_clean_sbu_0, # of connection points: 4
#     Edge 6, Type (0, 0), BuildingBlock: UVAHIK_clean_linker_0, # of connection points: 2
#     Edge 7, Type (0, 0), BuildingBlock: UVAHIK_clean_linker_0, # of connection points: 2
#     Edge 8, Type (0, 0), BuildingBlock: UVAHIK_clean_linker_0, # of connection points: 2
#     Edge 9, Type (0, 0), BuildingBlock: UVAHIK_clean_linker_0, # of connection points: 2
#     Edge 10, Type (0, 0), BuildingBlock: UVAHIK_clean_linker_0, # of connection points: 2
#     Edge 11, Type (0, 0), BuildingBlock: UVAHIK_clean_linker_0, # of connection points: 2
#     Edge 12, Type (0, 0), BuildingBlock: UVAHIK_clean_linker_0, # of connection points: 2
#     Edge 13, Type (0, 0), BuildingBlock: UVAHIK_clean_linker_0, # of connection points: 2
#     Edge 14, Type (0, 0), BuildingBlock: UVAHIK_clean_linker_0, # of connection points: 2
#     Edge 15, Type (0, 0), BuildingBlock: UVAHIK_clean_linker_0, # of connection points: 2
#     Edge 16, Type (0, 0), BuildingBlock: UVAHIK_clean_linker_0, # of connection points: 2
#     Edge 17, Type (0, 0), BuildingBlock: UVAHIK_clean_linker_0, # of connection points: 2
# Relax obj value: 0.109
# Max RMSD: 0.207
# Mean RMSD: 0.206
data_MOF--net-uog--node1-KUFVIS_clean_sbu_0--edge1-UVAHIK_clean_linker_0
_symmetry_space_group_name_H-M    P1
_symmetry_Int_Tables_number       1
_symmetry_cell_setting            triclinic
loop_
_symmetry_equiv_pos_as_xyz
'x, y, z'
_cell_length_a     36.723906
_cell_length_b     36.70112
_cell_length_c     53.914196
_cell_angle_alpha  90.033992
_cell_angle_beta   89.898081
_cell_angle_gamma 120.02466
loop_
_atom_site_label
_atom_site_type_symbol
_atom_site_fract_x
_atom_site_fract_y
_atom_site_fract_z
_atom_type_partial_charge
Mn0 Mn 0.60941 0.30135 0.14728 0.0
Mn1 Mn 0.69525 0.39814 0.14562 0.0
C2 C 0.63558 0.33315 0.10965 0.0
C3 C 0.58305 0.22903 0.15028 0.0
C4 C 0.60783 0.38141 0.15946 0.0
O5 O 0.63336 0.3098 0.18194 0.0
O6 O 0.69513 0.37004 0.17719 0.0
C7 C 0.76224 0.37581 0.14313 0.0
N8 N 0.74284 0.39582 0.13327 0.0
C9 C 0.79206 0.42256 0.09935 0.0
C10 C 0.81276 0.4025 0.10924 0.0
C11 C 0.79773 0.37896 0.13119 0.0
C12 C 0.7571 0.41864 0.11219 0.0
H13 H 0.75064 0.3575 0.15993 0.0
C14 C 0.66941 0.33765 0.18981 0.0
O15 O 0.56038 0.24558 0.15685 0.0
O16 O 0.62049 0.25441 0.14194 0.0
N17 N 0.69932 0.42831 0.11581 0.0
C18 C 0.67392 0.44302 0.10773 0.0
C19 C 0.68347 0.46566 0.08539 0.0
C20 C 0.71912 0.47314 0.07168 0.0
C21 C 0.74498 0.458 0.08047 0.0
C22 C 0.73407 0.4359 0.10295 0.0
H23 H 0.64641 0.43728 0.11813 0.0
O24 O 0.59738 0.30179 0.11133 0.0
O25 O 0.65759 0.344 0.12994 0.0
O26 O 0.58766 0.34206 0.15458 0.0
O27 O 0.64785 0.40416 0.15804 0.0
C28 C 0.78057 0.46307 0.0675 0.0
C29 C 0.8041 0.44538 0.07694 0.0
H30 H 0.83993 0.40455 0.09997 0.0
H31 H 0.81338 0.36317 0.13885 0.0
H32 H 0.6633 0.47716 0.0787 0.0
H33 H 0.72612 0.49023 0.05432 0.0
H34 H 0.78971 0.47993 0.05004 0.0
H35 H 0.83099 0.44892 0.06659 0.0
Mn36 Mn 0.31102 0.60444 0.48461 0.0
Mn37 Mn 0.30404 0.69223 0.49059 0.0
C38 C 0.30606 0.63743 0.44974 0.0
C39 C 0.35603 0.57664 0.48361 0.0
C40 C 0.23015 0.60385 0.49898 0.0
O41 O 0.327 0.62156 0.52019 0.0
O42 O 0.32886 0.68372 0.52142 0.0
C43 C 0.39481 0.75544 0.49173 0.0
N44 N 0.35618 0.74032 0.48125 0.0
C45 C 0.38361 0.79604 0.45102 0.0
C46 C 0.42363 0.81241 0.46162 0.0
C47 C 0.42925 0.79197 0.48203 0.0
C48 C 0.35041 0.75973 0.4616 0.0
H49 H 0.39931 0.73969 0.50734 0.0
C50 C 0.33487 0.65535 0.53122 0.0
O51 O 0.31665 0.55327 0.48978 0.0
O52 O 0.3685 0.61529 0.47769 0.0
N53 N 0.28106 0.70472 0.46215 0.0
C54 C 0.24093 0.68373 0.45333 0.0
C55 C 0.23036 0.69935 0.43244 0.0
C56 C 0.26101 0.73652 0.42098 0.0
C57 C 0.30194 0.7579 0.4306 0.0
C58 C 0.31056 0.74102 0.45158 0.0
H59 H 0.21723 0.65508 0.462 0.0
O60 O 0.29819 0.59884 0.44859 0.0
O61 O 0.31831 0.65611 0.47111 0.0
O62 O 0.24866 0.58337 0.49293 0.0
O63 O 0.24882 0.64407 0.49973 0.0
C64 C 0.33473 0.79483 0.41989 0.0
C65 C 0.37554 0.81386 0.43008 0.0
H66 H 0.45034 0.84042 0.45409 0.0
H67 H 0.46009 0.80427 0.49022 0.0
H68 H 0.19869 0.68266 0.42514 0.0
H69 H 0.25284 0.74822 0.40472 0.0
H70 H 0.32903 0.80854 0.40362 0.0
H71 H 0.4006 0.84194 0.4215 0.0
Mn72 Mn 0.70025 0.29455 0.81836 0.0
Mn73 Mn 0.70715 0.38952 0.82295 0.0
C74 C 0.71024 0.32558 0.85657 0.0
C75 C 0.65571 0.22186 0.81531 0.0
C76 C 0.779 0.37738 0.80496 0.0
O77 O 0.67987 0.30245 0.7852 0.0
O78 O 0.67752 0.36181 0.7916 0.0
C79 C 0.61679 0.36158 0.8289 0.0
N80 N 0.65699 0.38357 0.83749 0.0
C81 C 0.63514 0.40725 0.87317 0.0
C82 C 0.59354 0.38511 0.86461 0.0
C83 C 0.58433 0.3621 0.84242 0.0
C84 C 0.66619 0.40573 0.85885 0.0
H85 H 0.60959 0.34374 0.81189 0.0
C86 C 0.67043 0.32989 0.77839 0.0
O87 O 0.69417 0.23969 0.80707 0.0
O88 O 0.64374 0.2461 0.82548 0.0
N89 N 0.73478 0.42005 0.85236 0.0
C90 C 0.77614 0.4379 0.8587 0.0
C91 C 0.79032 0.46101 0.88083 0.0
C92 C 0.762 0.46591 0.89606 0.0
C93 C 0.71976 0.44783 0.88896 0.0
C94 C 0.70747 0.42534 0.86663 0.0
H95 H 0.79809 0.43431 0.84708 0.0
O96 O 0.71774 0.29492 0.85323 0.0
O97 O 0.69524 0.33586 0.83768 0.0
O98 O 0.76132 0.33764 0.80866 0.0
O99 O 0.76051 0.39864 0.80855 0.0
C100 C 0.68918 0.45051 0.9034 0.0
C101 C 0.64688 0.43014 0.89555 0.0
H102 H 0.56837 0.38526 0.87505 0.0
H103 H 0.55227 0.34475 0.83577 0.0
H104 H 0.82299 0.4749 0.88616 0.0
H105 H 0.77298 0.48341 0.91323 0.0
H106 H 0.69774 0.46767 0.92076 0.0
H107 H 0.62355 0.43191 0.90701 0.0
Mn108 Mn 0.40608 0.7111 0.1507 0.0
Mn109 Mn 0.31896 0.61572 0.15597 0.0
C110 C 0.37266 0.67471 0.11547 0.0
C111 C 0.43459 0.78389 0.15113 0.0
C112 C 0.4076 0.63129 0.16397 0.0
O113 O 0.38908 0.70806 0.1866 0.0
O114 O 0.32632 0.64826 0.18698 0.0
C115 C 0.25403 0.64095 0.15743 0.0
N116 N 0.27023 0.61852 0.1467 0.0
C117 C 0.21476 0.58936 0.11641 0.0
C118 C 0.1973 0.61191 0.12725 0.0
C119 C 0.21707 0.63786 0.14782 0.0
C120 C 0.25143 0.59338 0.12694 0.0
H121 H 0.26926 0.6611 0.17317 0.0
C122 C 0.35482 0.68206 0.19727 0.0
O123 O 0.45748 0.76707 0.15652 0.0
O124 O 0.39572 0.75849 0.14522 0.0
N125 N 0.30789 0.58129 0.12713 0.0
C126 C 0.33029 0.56392 0.11783 0.0
C127 C 0.31568 0.53839 0.09662 0.0
C128 C 0.27811 0.53076 0.08528 0.0
C129 C 0.25537 0.54863 0.09532 0.0
C130 C 0.2713 0.57354 0.11661 0.0
H131 H 0.35925 0.56973 0.12641 0.0
O132 O 0.41121 0.70556 0.11439 0.0
O133 O 0.35438 0.66716 0.13705 0.0
O134 O 0.42747 0.66997 0.15744 0.0
O135 O 0.3675 0.60933 0.16531 0.0
C136 C 0.21806 0.54349 0.0847 0.0
C137 C 0.19777 0.56384 0.09524 0.0
H138 H 0.16898 0.60988 0.11977 0.0
H139 H 0.20392 0.65555 0.15619 0.0
H140 H 0.33344 0.52476 0.08896 0.0
H141 H 0.26718 0.51141 0.06877 0.0
H142 H 0.20505 0.52448 0.0682 0.0
H143 H 0.16946 0.56016 0.08668 0.0
Mn144 Mn 0.70112 0.4045 0.47933 0.0
Mn145 Mn 0.70465 0.31433 0.48082 0.0
C146 C 0.71162 0.37826 0.44322 0.0
C147 C 0.65801 0.43447 0.47886 0.0
C148 C 0.77887 0.3995 0.49487 0.0
O149 O 0.67914 0.38116 0.51325 0.0
O150 O 0.67755 0.31923 0.5118 0.0
C151 C 0.61297 0.25525 0.47767 0.0
N152 N 0.65244 0.26989 0.46846 0.0
C153 C 0.62594 0.22024 0.43479 0.0
C154 C 0.58503 0.20439 0.44403 0.0
C155 C 0.57853 0.22203 0.46554 0.0
C156 C 0.65904 0.25329 0.44772 0.0
H157 H 0.60778 0.26891 0.49409 0.0
C158 C 0.67017 0.34593 0.52265 0.0
O159 O 0.69632 0.45541 0.48725 0.0
O160 O 0.64562 0.3971 0.47034 0.0
N161 N 0.72949 0.3044 0.45224 0.0
C162 C 0.77084 0.32349 0.44562 0.0
C163 C 0.78265 0.30978 0.42435 0.0
C164 C 0.75194 0.27629 0.41028 0.0
C165 C 0.70974 0.25644 0.4178 0.0
C166 C 0.69989 0.27122 0.4393 0.0
H167 H 0.7946 0.34929 0.45631 0.0
O168 O 0.71999 0.417 0.44436 0.0
O169 O 0.6951 0.35526 0.46293 0.0
O170 O 0.76147 0.42163 0.49035 0.0
O171 O 0.75975 0.35935 0.49279 0.0
C172 C 0.67698 0.22293 0.40463 0.0
C173 C 0.6351 0.20492 0.41309 0.0
H174 H 0.55837 0.17888 0.43468 0.0
H175 H 0.54703 0.21014 0.47271 0.0
H176 H 0.81532 0.32513 0.41874 0.0
H177 H 0.76111 0.26609 0.39374 0.0
H178 H 0.6836 0.21102 0.38786 0.0
H179 H 0.61014 0.17941 0.40268 0.0
Mn180 Mn 0.30642 0.70652 0.82667 0.0
Mn181 Mn 0.2963 0.61031 0.83272 0.0
C182 C 0.29422 0.67611 0.86521 0.0
C183 C 0.35262 0.77884 0.82305 0.0
C184 C 0.22649 0.62445 0.81348 0.0
O185 O 0.3274 0.69726 0.79407 0.0
O186 O 0.32647 0.63646 0.80118 0.0
C187 C 0.38614 0.6364 0.839 0.0
N188 N 0.34582 0.61536 0.84755 0.0
C189 C 0.36637 0.5913 0.88354 0.0
C190 C 0.40807 0.61245 0.87503 0.0
C191 C 0.418 0.63519 0.8527 0.0
C192 C 0.33594 0.59353 0.86906 0.0
H193 H 0.39389 0.654 0.82188 0.0
C194 C 0.33528 0.66855 0.78767 0.0
O195 O 0.31447 0.7617 0.81447 0.0
O196 O 0.36326 0.75419 0.83402 0.0
N197 N 0.26801 0.58091 0.86232 0.0
C198 C 0.22669 0.56404 0.86856 0.0
C199 C 0.21183 0.54131 0.89078 0.0
C200 C 0.23945 0.53569 0.90619 0.0
C201 C 0.28166 0.55273 0.89918 0.0
C202 C 0.29464 0.57495 0.87677 0.0
H203 H 0.20528 0.56816 0.85679 0.0
O204 O 0.28792 0.70739 0.8612 0.0
O205 O 0.30937 0.66481 0.8468 0.0
O206 O 0.24537 0.66444 0.81644 0.0
O207 O 0.24361 0.60221 0.81805 0.0
C208 C 0.31157 0.54926 0.91377 0.0
C209 C 0.35392 0.56866 0.90601 0.0
H210 H 0.43277 0.61173 0.8856 0.0
H211 H 0.45015 0.65178 0.84609 0.0
H212 H 0.17919 0.52822 0.89605 0.0
H213 H 0.22796 0.51846 0.92342 0.0
H214 H 0.30245 0.53222 0.93117 0.0
H215 H 0.37674 0.56631 0.91759 0.0
C216 C 0.52487 0.15424 0.1558 0.0
C217 C 0.56768 0.18342 0.1522 0.0
C218 C 0.51082 0.11104 0.15664 0.0
C219 C 0.54385 0.0336 0.13905 0.0
H220 H 0.45217 0.95912 0.18234 0.0
C221 C 0.49448 0.85833 0.15427 0.0
C222 C 0.45116 0.8298 0.15221 0.0
C223 C 0.5095 0.90172 0.15506 0.0
C224 C 0.47773 0.97958 0.17009 0.0
H225 H 0.62953 0.19041 0.14746 0.0
H226 H 0.60545 0.1157 0.14972 0.0
H227 H 0.47653 0.03437 0.18247 0.0
H228 H 0.38959 0.82426 0.14973 0.0
H229 H 0.41578 0.89968 0.15139 0.0
H230 H 0.5453 0.97869 0.127 0.0
C231 C 0.58234 0.12571 0.15111 0.0
C232 C 0.49156 0.02267 0.17005 0.0
C233 C 0.59623 0.16868 0.14998 0.0
C234 C 0.42319 0.84543 0.15125 0.0
C235 C 0.43812 0.88861 0.15236 0.0
C236 C 0.53032 0.9906 0.13931 0.0
C237 C 0.53941 0.09621 0.15416 0.0
C238 C 0.52471 0.05027 0.15444 0.0
C239 C 0.4814 0.91723 0.15418 0.0
C240 C 0.49697 0.96312 0.15473 0.0
H241 H 0.50213 0.1647 0.15749 0.0
H242 H 0.47746 0.08928 0.15871 0.0
H243 H 0.56888 0.05363 0.1264 0.0
H244 H 0.51675 0.84719 0.15506 0.0
H245 H 0.54304 0.92313 0.15659 0.0
C246 C 0.42973 0.59049 0.4831 0.0
C247 C 0.38641 0.56128 0.48396 0.0
C248 C 0.45919 0.57709 0.48332 0.0
C249 C 0.47167 0.48463 0.49738 0.0
H250 H 0.57409 0.54744 0.45892 0.0
C251 C 0.58522 0.42293 0.47622 0.0
C252 C 0.62842 0.45077 0.47989 0.0
C253 C 0.55642 0.43712 0.47757 0.0
C254 C 0.54585 0.52988 0.46994 0.0
H255 H 0.33996 0.49498 0.48572 0.0
H256 H 0.39145 0.47119 0.48524 0.0
H257 H 0.52146 0.56935 0.45881 0.0
H258 H 0.67532 0.51549 0.4877 0.0
H259 H 0.6247 0.54068 0.48955 0.0
H260 H 0.4958 0.44438 0.50777 0.0
C261 C 0.40274 0.50467 0.48499 0.0
C262 C 0.51562 0.54244 0.46996 0.0
C263 C 0.37314 0.5182 0.48511 0.0
C264 C 0.64225 0.49334 0.48478 0.0
C265 C 0.61335 0.50772 0.48577 0.0
C266 C 0.50168 0.47178 0.49707 0.0
C267 C 0.44623 0.53399 0.48403 0.0
C268 C 0.47811 0.52006 0.48374 0.0
C269 C 0.5701 0.47962 0.48233 0.0
C270 C 0.53907 0.49428 0.48336 0.0
H271 H 0.44107 0.62399 0.48251 0.0
H272 H 0.49224 0.60073 0.48319 0.0
H273 H 0.44368 0.46703 0.50857 0.0
H274 H 0.57345 0.38988 0.47249 0.0
H275 H 0.52339 0.41485 0.47457 0.0
C276 C 0.84291 0.44466 0.79235 0.0
C277 C 0.82425 0.40154 0.79808 0.0
C278 C 0.88632 0.4694 0.78925 0.0
C279 C 0.98452 0.46726 0.77855 0.0
H280 H 0.03517 0.57121 0.81626 0.0
C281 C 0.16026 0.5573 0.80369 0.0
C282 C 0.18158 0.60147 0.80583 0.0
C283 C 0.11722 0.53462 0.79883 0.0
C284 C 0.02166 0.5428 0.80518 0.0
H285 H 0.83679 0.35032 0.80369 0.0
H286 H 0.91296 0.39378 0.79817 0.0
H287 H 0.95902 0.52754 0.81464 0.0
H288 H 0.17419 0.6564 0.80342 0.0
H289 H 0.0989 0.6167 0.79442 0.0
H290 H 0.04722 0.48241 0.76919 0.0
C291 C 0.89367 0.40825 0.79609 0.0
C292 C 0.97791 0.51763 0.80433 0.0
C293 C 0.85003 0.38335 0.79929 0.0
C294 C 0.15884 0.62246 0.80203 0.0
C295 C 0.11559 0.59964 0.79703 0.0
C296 C 0.02835 0.49262 0.77924 0.0
C297 C 0.91234 0.45177 0.7917 0.0
C298 C 0.95883 0.47933 0.79127 0.0
C299 C 0.09412 0.55534 0.79578 0.0
C300 C 0.04752 0.53043 0.79289 0.0
H301 H 0.82415 0.4598 0.79097 0.0
H302 H 0.89965 0.50265 0.7854 0.0
H303 H 0.97072 0.4382 0.76806 0.0
H304 H 0.17651 0.53984 0.80649 0.0
H305 H 0.10183 0.5006 0.79841 0.0
C306 C 0.16366 0.60379 0.50945 0.0
C307 C 0.18402 0.5809 0.50376 0.0
C308 C 0.11999 0.58372 0.5114 0.0
C309 C 0.02373 0.48244 0.52134 0.0
H310 H 0.97095 0.53403 0.48416 0.0
C311 C 0.84492 0.39731 0.50314 0.0
C312 C 0.82449 0.42098 0.50095 0.0
C313 C 0.88847 0.41707 0.50606 0.0
C314 C 0.98503 0.51955 0.49507 0.0
H315 H 0.17391 0.51829 0.49676 0.0
H316 H 0.09711 0.48301 0.5005 0.0
H317 H 0.04718 0.56678 0.48445 0.0
H318 H 0.83416 0.48431 0.50135 0.0
H319 H 0.91016 0.51885 0.50726 0.0
H320 H 0.96165 0.43544 0.53225 0.0
C321 C 0.11543 0.51672 0.50331 0.0
C322 C 0.02882 0.53824 0.4951 0.0
C323 C 0.1594 0.53694 0.50114 0.0
C324 C 0.84875 0.46503 0.50283 0.0
C325 C 0.89245 0.48486 0.50599 0.0
C326 C 0.97985 0.46392 0.52155 0.0
C327 C 0.09529 0.54012 0.50793 0.0
C328 C 0.04867 0.51985 0.50814 0.0
C329 C 0.913 0.46115 0.50717 0.0
C330 C 0.95985 0.48209 0.50827 0.0
H331 H 0.18132 0.63762 0.5118 0.0
H332 H 0.10545 0.6025 0.51539 0.0
H333 H 0.03818 0.46782 0.53178 0.0
H334 H 0.82751 0.3633 0.50178 0.0
H335 H 0.90297 0.39765 0.50653 0.0
C336 C 0.42671 0.83807 0.82238 0.0
C337 C 0.38362 0.82409 0.81994 0.0
C338 C 0.45662 0.88062 0.81979 0.0
C339 C 0.47106 0.98333 0.7973 0.0
H340 H 0.57073 0.02844 0.83859 0.0
C341 C 0.58254 0.16084 0.81504 0.0
C342 C 0.626 0.17615 0.81303 0.0
C343 C 0.55388 0.11775 0.8137 0.0
C344 C 0.5433 0.01616 0.82674 0.0
H345 H 0.33799 0.84372 0.81279 0.0
H346 H 0.39009 0.91854 0.80931 0.0
H347 H 0.51816 0.95409 0.84129 0.0
H348 H 0.67355 0.15837 0.80783 0.0
H349 H 0.62318 0.08244 0.80616 0.0
H350 H 0.4958 0.0463 0.78368 0.0
C351 C 0.401 0.89647 0.81254 0.0
C352 C 0.5131 0.97344 0.82819 0.0
C353 C 0.37102 0.85361 0.8147 0.0
C354 C 0.64024 0.14744 0.80943 0.0
C355 C 0.61149 0.10409 0.80855 0.0
C356 C 0.50099 0.02624 0.79617 0.0
C357 C 0.44428 0.91061 0.81517 0.0
C358 C 0.4765 0.95632 0.81348 0.0
C359 C 0.56803 0.08889 0.81073 0.0
C360 C 0.53738 0.04306 0.81089 0.0
H361 H 0.43749 0.816 0.82607 0.0
H362 H 0.48952 0.88984 0.82128 0.0
H363 H 0.44383 0.97137 0.78533 0.0
H364 H 0.57056 0.1822 0.8177 0.0
H365 H 0.52062 0.1069 0.81563 0.0
C366 C 0.41375 0.57291 0.18357 0.0
C367 C 0.43138 0.60924 0.1687 0.0
C368 C 0.4335 0.54898 0.18587 0.0
C369 C 0.53388 0.54983 0.17292 0.0
H370 H 0.46101 0.42869 0.1751 0.0
C371 C 0.54414 0.38944 0.15552 0.0
C372 C 0.58424 0.40321 0.1655 0.0
C373 C 0.52469 0.41368 0.1584 0.0
C374 C 0.4819 0.46241 0.17428 0.0
H375 H 0.48405 0.64947 0.14498 0.0
H376 H 0.51795 0.60708 0.14829 0.0
H377 H 0.43036 0.4739 0.17464 0.0
H378 H 0.63427 0.4517 0.18762 0.0
H379 H 0.5997 0.49283 0.19365 0.0
H380 H 0.58532 0.53831 0.17106 0.0
C381 C 0.48937 0.5975 0.15874 0.0
C382 C 0.46429 0.48851 0.17443 0.0
C383 C 0.4699 0.62185 0.15677 0.0
C384 C 0.60352 0.44051 0.17948 0.0
C385 C 0.58382 0.46432 0.18272 0.0
C386 C 0.55146 0.52373 0.17243 0.0
C387 C 0.47105 0.56032 0.173 0.0
C388 C 0.49002 0.53262 0.17368 0.0
C389 C 0.54465 0.45189 0.17167 0.0
C390 C 0.52574 0.47961 0.17305 0.0
H391 H 0.38426 0.56258 0.1932 0.0
H392 H 0.41896 0.52128 0.19756 0.0
H393 H 0.55482 0.58357 0.17265 0.0
H394 H 0.5287 0.36103 0.14445 0.0
H395 H 0.49477 0.40321 0.14936 0.0
C396 C 0.74886 0.35466 0.89586 0.0
C397 C 0.71256 0.34181 0.88162 0.0
C398 C 0.74956 0.36559 0.92071 0.0
C399 C 0.6984 0.39572 0.96804 0.0
H400 H 0.71786 0.32349 0.01182 0.0
C401 C 0.63338 0.35821 0.06728 0.0
C402 C 0.65429 0.34784 0.08514 0.0
C403 C 0.64862 0.36733 0.04302 0.0
C404 C 0.71349 0.34493 0.00011 0.0
H405 H 0.64788 0.32772 0.88202 0.0
H406 H 0.6493 0.3479 0.92548 0.0
H407 H 0.73108 0.32361 0.96777 0.0
H408 H 0.70593 0.3367 0.09187 0.0
H409 H 0.73449 0.35538 0.05006 0.0
H410 H 0.6808 0.41718 0.00033 0.0
C411 C 0.67756 0.35077 0.91726 0.0
C412 C 0.72089 0.34474 0.9748 0.0
C413 C 0.67675 0.33938 0.8925 0.0
C414 C 0.69036 0.34632 0.07852 0.0
C415 C 0.70615 0.35624 0.05444 0.0
C416 C 0.6918 0.39663 -0.00649 0.0
C417 C 0.7138 0.36343 0.9316 0.0
C418 C 0.71229 0.36921 0.95852 0.0
C419 C 0.68495 0.36593 0.0362 0.0
C420 C 0.69801 0.37021 0.00977 0.0
H421 H 0.77642 0.35566 0.88783 0.0
H422 H 0.77763 0.37479 0.93157 0.0
H423 H 0.69181 0.41501 0.95572 0.0
H424 H 0.60476 0.35838 0.07199 0.0
H425 H 0.63076 0.37358 0.02943 0.0
C426 C 0.31027 0.66496 0.23554 0.0
C427 C 0.34803 0.69148 0.22298 0.0
C428 C 0.30513 0.67262 0.26031 0.0
C429 C 0.36835 0.71688 0.31529 0.0
H430 H 0.26325 0.6957 0.34496 0.0
C431 C 0.34621 0.69499 0.4197 0.0
C432 C 0.30835 0.65945 0.4267 0.0
C433 C 0.35072 0.712 0.396 0.0
C434 C 0.29285 0.70182 0.33694 0.0
H435 H 0.40912 0.74826 0.22626 0.0
H436 H 0.40009 0.7612 0.26948 0.0
H437 H 0.27132 0.70058 0.29984 0.0
H438 H 0.24584 0.61306 0.41484 0.0
H439 H 0.25387 0.64157 0.37311 0.0
H440 H 0.38916 0.71536 0.3519 0.0
C441 C 0.37467 0.73437 0.26017 0.0
C442 C 0.29744 0.70466 0.31116 0.0
C443 C 0.37978 0.72684 0.23542 0.0
C444 C 0.27496 0.64115 0.40986 0.0
C445 C 0.27952 0.6578 0.38608 0.0
C446 C 0.36365 0.71365 0.34096 0.0
C447 C 0.33767 0.70686 0.27299 0.0
C448 C 0.3348 0.71095 0.30011 0.0
C449 C 0.31788 0.69273 0.37864 0.0
C450 C 0.32537 0.70468 0.35206 0.0
H451 H 0.28501 0.63769 0.22647 0.0
H452 H 0.27643 0.65063 0.26983 0.0
H453 H 0.39735 0.72128 0.30728 0.0
H454 H 0.37281 0.70862 0.43222 0.0
H455 H 0.38052 0.73914 0.39096 0.0
C456 C 0.6413 0.35467 0.74443 0.0
C457 C 0.65181 0.32518 0.75347 0.0
C458 C 0.62784 0.35229 0.71995 0.0
C459 C 0.59489 0.2846 0.66332 0.0
H460 H 0.65786 0.39159 0.62937 0.0
C461 C 0.64882 0.30281 0.56166 0.0
C462 C 0.65151 0.33646 0.54779 0.0
C463 C 0.63573 0.29727 0.58641 0.0
C464 C 0.63924 0.36154 0.63855 0.0
H465 H 0.65371 0.26847 0.74431 0.0
H466 H 0.63152 0.26511 0.70175 0.0
H467 H 0.65761 0.38973 0.67431 0.0
H468 H 0.63914 0.38853 0.54839 0.0
H469 H 0.61636 0.3787 0.59142 0.0
H470 H 0.5786 0.25636 0.62725 0.0
C471 C 0.63303 0.28973 0.71353 0.0
C472 C 0.639 0.36048 0.66438 0.0
C473 C 0.64628 0.29198 0.73795 0.0
C474 C 0.63826 0.36275 0.55867 0.0
C475 C 0.62513 0.35715 0.58333 0.0
C476 C 0.59534 0.28565 0.63741 0.0
C477 C 0.62473 0.32047 0.70404 0.0
C478 C 0.61794 0.3219 0.67705 0.0
C479 C 0.62498 0.32519 0.59766 0.0
C480 C 0.61853 0.32405 0.62481 0.0
H481 H 0.64463 0.3803 0.75599 0.0
H482 H 0.62105 0.37608 0.71327 0.0
H483 H 0.57775 0.25444 0.67258 0.0
H484 H 0.65855 0.28185 0.55379 0.0
H485 H 0.63624 0.27253 0.59708 0.0
C486 C 0.32488 0.66096 0.90196 0.0
C487 C 0.29027 0.66004 0.89046 0.0
C488 C 0.32244 0.64916 0.92676 0.0
C489 C 0.27791 0.65584 0.9838 0.0
H490 H 0.31386 0.58005 0.00919 0.0
C491 C 0.31361 0.65792 0.08685 0.0
C492 C 0.35004 0.65638 0.09237 0.0
C493 C 0.29514 0.64589 0.06348 0.0
C494 C 0.30389 0.60146 0.00242 0.0
H495 H 0.22705 0.64883 0.8957 0.0
H496 H 0.22301 0.62904 0.93955 0.0
H497 H 0.30341 0.58293 0.96463 0.0
H498 H 0.397 0.64286 0.07801 0.0
H499 H 0.36638 0.62392 0.03674 0.0
H500 H 0.28171 0.67733 0.02087 0.0
C501 C 0.25134 0.63729 0.9291 0.0
C502 C 0.29764 0.60279 0.97697 0.0
C503 C 0.25365 0.6486 0.9042 0.0
C504 C 0.36818 0.64317 0.07421 0.0
C505 C 0.35028 0.63191 0.05067 0.0
C506 C 0.28498 0.6552 0.00914 0.0
C507 C 0.28578 0.63761 0.94056 0.0
C508 C 0.28563 0.63076 0.96747 0.0
C509 C 0.31397 0.63395 0.04482 0.0
C510 C 0.29928 0.6289 0.01871 0.0
H511 H 0.35405 0.67158 0.8919 0.0
H512 H 0.34976 0.65067 0.93543 0.0
H513 H 0.26904 0.67797 0.97681 0.0
H514 H 0.30012 0.66964 0.10037 0.0
H515 H 0.26691 0.64732 0.05983 0.0
C516 C 0.68048 0.33033 0.40735 0.0
C517 C 0.71608 0.36178 0.41947 0.0
C518 C 0.68348 0.31972 0.38287 0.0
C519 C 0.74413 0.37182 0.32787 0.0
H520 H 0.6769 0.26199 0.29775 0.0
C521 C 0.7239 0.35697 0.22281 0.0
C522 C 0.68195 0.33251 0.21499 0.0
C523 C 0.73511 0.35409 0.24714 0.0
C524 C 0.69593 0.29283 0.30592 0.0
H525 H 0.7824 0.40705 0.41612 0.0
H526 H 0.78807 0.38807 0.37338 0.0
H527 H 0.68422 0.26796 0.3429 0.0
H528 H 0.61928 0.28432 0.22624 0.0
H529 H 0.63855 0.28038 0.2688 0.0
H530 H 0.75416 0.39715 0.29134 0.0
C531 C 0.75792 0.37138 0.3827 0.0
C532 C 0.70015 0.29621 0.33171 0.0
C533 C 0.75479 0.38216 0.40708 0.0
C534 C 0.65186 0.30377 0.23169 0.0
C535 C 0.663 0.30117 0.25606 0.0
C536 C 0.73984 0.36848 0.3022 0.0
C537 C 0.72203 0.34098 0.37009 0.0
C538 C 0.72332 0.33591 0.34294 0.0
C539 C 0.70456 0.327 0.26422 0.0
C540 C 0.71469 0.32912 0.29097 0.0
H541 H 0.65007 0.31529 0.41645 0.0
H542 H 0.6551 0.29673 0.37353 0.0
H543 H 0.76162 0.40296 0.33593 0.0
H544 H 0.74801 0.37886 0.21027 0.0
H545 H 0.76755 0.37388 0.25275 0.0
C546 C 0.36048 0.63975 0.75366 0.0
C547 C 0.35377 0.6718 0.76281 0.0
C548 C 0.37319 0.64079 0.7291 0.0
C549 C 0.41057 0.70803 0.67232 0.0
H550 H 0.33828 0.60265 0.6387 0.0
C551 C 0.35686 0.69594 0.57113 0.0
C552 C 0.35118 0.66143 0.55686 0.0
C553 C 0.36915 0.69956 0.59593 0.0
C554 C 0.35942 0.63213 0.64779 0.0
H555 H 0.35821 0.73163 0.75384 0.0
H556 H 0.37915 0.73279 0.71116 0.0
H557 H 0.33993 0.60462 0.68366 0.0
H558 H 0.35664 0.60509 0.55706 0.0
H559 H 0.37794 0.61155 0.60022 0.0
H560 H 0.42814 0.73584 0.63618 0.0
C561 C 0.37514 0.70708 0.72289 0.0
C562 C 0.36048 0.63325 0.67361 0.0
C563 C 0.3626 0.70614 0.74738 0.0
C564 C 0.36004 0.63177 0.56758 0.0
C565 C 0.3723 0.63541 0.59232 0.0
C566 C 0.40932 0.70694 0.64643 0.0
C567 C 0.37939 0.67385 0.71325 0.0
C568 C 0.38501 0.67146 0.68618 0.0
C569 C 0.37603 0.66878 0.60689 0.0
C570 C 0.38277 0.6692 0.63396 0.0
H571 H 0.35453 0.61313 0.76515 0.0
H572 H 0.37685 0.61503 0.72229 0.0
H573 H 0.43035 0.73782 0.6815 0.0
H574 H 0.35059 0.7195 0.56342 0.0
H575 H 0.37139 0.72543 0.6068 0.0
loop_
_geom_bond_atom_site_label_1
_geom_bond_atom_site_label_2
_geom_bond_distance
_geom_bond_site_symmetry_2
_ccdc_geom_bond_type
Mn0 O5 2.095 . S
Mn0 O15 2.162 . S
Mn0 O16 2.297 . S
Mn0 O24 2.385 . S
Mn0 O25 2.209 . S
Mn0 O26 2.094 . S
Mn1 O6 2.121 . S
Mn1 N8 2.257 . S
Mn1 N17 2.282 . S
Mn1 O25 2.215 . S
Mn1 O27 2.117 . S
C2 O24 1.234 . S
C2 O25 1.283 . S
C3 O15 1.281 . S
C3 O16 1.236 . S
C4 O26 1.240 . S
C4 O27 1.264 . S
O5 Mn0 2.095 . S
O5 C14 1.250 . S
O6 Mn1 2.121 . S
O6 C14 1.258 . S
C7 N8 1.326 . S
C7 C11 1.460 . S
C7 H13 0.929 . S
N8 Mn1 2.257 . S
N8 C7 1.326 . S
N8 C12 1.362 . S
C9 C10 1.258 . S
C9 C12 1.431 . S
C9 C29 1.449 . S
C10 C9 1.258 . S
C10 C11 1.477 . S
C10 H30 0.931 . S
C11 C7 1.460 . S
C11 C10 1.477 . S
C11 H31 0.930 . S
C12 N8 1.362 . S
C12 C9 1.431 . S
C12 C22 1.476 . S
H13 C7 0.929 . S
C14 O5 1.250 . S
C14 O6 1.258 . S
O15 Mn0 2.162 . S
O15 C3 1.281 . S
O16 Mn0 2.297 . S
O16 C3 1.236 . S
N17 Mn1 2.282 . S
N17 C18 1.328 . S
N17 C22 1.318 . S
C18 N17 1.328 . S
C18 C19 1.457 . S
C18 H23 0.929 . S
C19 C18 1.457 . S
C19 C20 1.291 . S
C19 H32 0.931 . S
C20 C19 1.291 . S
C20 C21 1.373 . S
C20 H33 0.929 . S
C21 C20 1.373 . S
C21 C22 1.396 . S
C21 C28 1.403 . S
C22 C12 1.476 . S
C22 N17 1.318 . S
C22 C21 1.396 . S
H23 C18 0.929 . S
O24 Mn0 2.385 . S
O24 C2 1.234 . S
O25 Mn0 2.209 . S
O25 Mn1 2.215 . S
O25 C2 1.283 . S
O26 Mn0 2.094 . S
O26 C4 1.240 . S
O27 Mn1 2.117 . S
O27 C4 1.264 . S
C28 C21 1.403 . S
C28 C29 1.399 . S
C28 H34 0.929 . S
C29 C9 1.449 . S
C29 C28 1.399 . S
C29 H35 0.930 . S
H30 C10 0.931 . S
H31 C11 0.930 . S
H32 C19 0.931 . S
H33 C20 0.929 . S
H34 C28 0.929 . S
H35 C29 0.930 . S
Mn36 O41 2.095 . S
Mn36 O51 2.162 . S
Mn36 O52 2.297 . S
Mn36 O60 2.385 . S
Mn36 O61 2.209 . S
Mn36 O62 2.094 . S
Mn37 O42 2.121 . S
Mn37 N44 2.257 . S
Mn37 N53 2.282 . S
Mn37 O61 2.215 . S
Mn37 O63 2.117 . S
C38 O60 1.234 . S
C38 O61 1.283 . S
C39 O51 1.281 . S
C39 O52 1.236 . S
C40 O62 1.240 . S
C40 O63 1.264 . S
O41 Mn36 2.095 . S
O41 C50 1.250 . S
O42 Mn37 2.121 . S
O42 C50 1.258 . S
C43 N44 1.326 . S
C43 C47 1.460 . S
C43 H49 0.929 . S
N44 Mn37 2.257 . S
N44 C43 1.326 . S
N44 C48 1.362 . S
C45 C46 1.258 . S
C45 C48 1.431 . S
C45 C65 1.449 . S
C46 C45 1.258 . S
C46 C47 1.477 . S
C46 H66 0.931 . S
C47 C43 1.460 . S
C47 C46 1.477 . S
C47 H67 0.930 . S
C48 N44 1.362 . S
C48 C45 1.431 . S
C48 C58 1.476 . S
H49 C43 0.929 . S
C50 O41 1.250 . S
C50 O42 1.258 . S
O51 Mn36 2.162 . S
O51 C39 1.281 . S
O52 Mn36 2.297 . S
O52 C39 1.236 . S
N53 Mn37 2.282 . S
N53 C54 1.328 . S
N53 C58 1.318 . S
C54 N53 1.328 . S
C54 C55 1.457 . S
C54 H59 0.929 . S
C55 C54 1.457 . S
C55 C56 1.291 . S
C55 H68 0.931 . S
C56 C55 1.291 . S
C56 C57 1.373 . S
C56 H69 0.929 . S
C57 C56 1.373 . S
C57 C58 1.396 . S
C57 C64 1.403 . S
C58 C48 1.476 . S
C58 N53 1.318 . S
C58 C57 1.396 . S
H59 C54 0.929 . S
O60 Mn36 2.385 . S
O60 C38 1.234 . S
O61 Mn36 2.209 . S
O61 Mn37 2.215 . S
O61 C38 1.283 . S
O62 Mn36 2.094 . S
O62 C40 1.240 . S
O63 Mn37 2.117 . S
O63 C40 1.264 . S
C64 C57 1.403 . S
C64 C65 1.399 . S
C64 H70 0.929 . S
C65 C45 1.449 . S
C65 C64 1.399 . S
C65 H71 0.930 . S
H66 C46 0.931 . S
H67 C47 0.930 . S
H68 C55 0.931 . S
H69 C56 0.929 . S
H70 C64 0.929 . S
H71 C65 0.930 . S
Mn72 O77 2.095 . S
Mn72 O87 2.162 . S
Mn72 O88 2.297 . S
Mn72 O96 2.385 . S
Mn72 O97 2.209 . S
Mn72 O98 2.094 . S
Mn73 O78 2.121 . S
Mn73 N80 2.257 . S
Mn73 N89 2.282 . S
Mn73 O97 2.215 . S
Mn73 O99 2.117 . S
C74 O96 1.234 . S
C74 O97 1.283 . S
C75 O87 1.281 . S
C75 O88 1.236 . S
C76 O98 1.240 . S
C76 O99 1.264 . S
O77 Mn72 2.095 . S
O77 C86 1.250 . S
O78 Mn73 2.121 . S
O78 C86 1.258 . S
C79 N80 1.326 . S
C79 C83 1.460 . S
C79 H85 0.929 . S
N80 Mn73 2.257 . S
N80 C79 1.326 . S
N80 C84 1.362 . S
C81 C82 1.258 . S
C81 C84 1.431 . S
C81 C101 1.449 . S
C82 C81 1.258 . S
C82 C83 1.477 . S
C82 H102 0.931 . S
C83 C79 1.460 . S
C83 C82 1.477 . S
C83 H103 0.930 . S
C84 N80 1.362 . S
C84 C81 1.431 . S
C84 C94 1.476 . S
H85 C79 0.929 . S
C86 O77 1.250 . S
C86 O78 1.258 . S
O87 Mn72 2.162 . S
O87 C75 1.281 . S
O88 Mn72 2.297 . S
O88 C75 1.236 . S
N89 Mn73 2.282 . S
N89 C90 1.328 . S
N89 C94 1.318 . S
C90 N89 1.328 . S
C90 C91 1.457 . S
C90 H95 0.929 . S
C91 C90 1.457 . S
C91 C92 1.291 . S
C91 H104 0.931 . S
C92 C91 1.291 . S
C92 C93 1.373 . S
C92 H105 0.929 . S
C93 C92 1.373 . S
C93 C94 1.396 . S
C93 C100 1.403 . S
C94 C84 1.476 . S
C94 N89 1.318 . S
C94 C93 1.396 . S
H95 C90 0.929 . S
O96 Mn72 2.385 . S
O96 C74 1.234 . S
O97 Mn72 2.209 . S
O97 Mn73 2.215 . S
O97 C74 1.283 . S
O98 Mn72 2.094 . S
O98 C76 1.240 . S
O99 Mn73 2.117 . S
O99 C76 1.264 . S
C100 C93 1.403 . S
C100 C101 1.399 . S
C100 H106 0.929 . S
C101 C81 1.449 . S
C101 C100 1.399 . S
C101 H107 0.930 . S
H102 C82 0.931 . S
H103 C83 0.930 . S
H104 C91 0.931 . S
H105 C92 0.929 . S
H106 C100 0.929 . S
H107 C101 0.930 . S
Mn108 O113 2.095 . S
Mn108 O123 2.162 . S
Mn108 O124 2.297 . S
Mn108 O132 2.385 . S
Mn108 O133 2.209 . S
Mn108 O134 2.094 . S
Mn109 O114 2.121 . S
Mn109 N116 2.257 . S
Mn109 N125 2.282 . S
Mn109 O133 2.215 . S
Mn109 O135 2.117 . S
C110 O132 1.234 . S
C110 O133 1.283 . S
C111 O123 1.281 . S
C111 O124 1.236 . S
C112 O134 1.240 . S
C112 O135 1.264 . S
O113 Mn108 2.095 . S
O113 C122 1.250 . S
O114 Mn109 2.121 . S
O114 C122 1.258 . S
C115 N116 1.326 . S
C115 C119 1.460 . S
C115 H121 0.929 . S
N116 Mn109 2.257 . S
N116 C115 1.326 . S
N116 C120 1.362 . S
C117 C118 1.258 . S
C117 C120 1.431 . S
C117 C137 1.449 . S
C118 C117 1.258 . S
C118 C119 1.477 . S
C118 H138 0.931 . S
C119 C115 1.460 . S
C119 C118 1.477 . S
C119 H139 0.930 . S
C120 N116 1.362 . S
C120 C117 1.431 . S
C120 C130 1.476 . S
H121 C115 0.929 . S
C122 O113 1.250 . S
C122 O114 1.258 . S
O123 Mn108 2.162 . S
O123 C111 1.281 . S
O124 Mn108 2.297 . S
O124 C111 1.236 . S
N125 Mn109 2.282 . S
N125 C126 1.328 . S
N125 C130 1.318 . S
C126 N125 1.328 . S
C126 C127 1.457 . S
C126 H131 0.929 . S
C127 C126 1.457 . S
C127 C128 1.291 . S
C127 H140 0.931 . S
C128 C127 1.291 . S
C128 C129 1.373 . S
C128 H141 0.929 . S
C129 C128 1.373 . S
C129 C130 1.396 . S
C129 C136 1.403 . S
C130 C120 1.476 . S
C130 N125 1.318 . S
C130 C129 1.396 . S
H131 C126 0.929 . S
O132 Mn108 2.385 . S
O132 C110 1.234 . S
O133 Mn108 2.209 . S
O133 Mn109 2.215 . S
O133 C110 1.283 . S
O134 Mn108 2.094 . S
O134 C112 1.240 . S
O135 Mn109 2.117 . S
O135 C112 1.264 . S
C136 C129 1.403 . S
C136 C137 1.399 . S
C136 H142 0.929 . S
C137 C117 1.449 . S
C137 C136 1.399 . S
C137 H143 0.930 . S
H138 C118 0.931 . S
H139 C119 0.930 . S
H140 C127 0.931 . S
H141 C128 0.929 . S
H142 C136 0.929 . S
H143 C137 0.930 . S
Mn144 O149 2.095 . S
Mn144 O159 2.162 . S
Mn144 O160 2.297 . S
Mn144 O168 2.385 . S
Mn144 O169 2.209 . S
Mn144 O170 2.094 . S
Mn145 O150 2.121 . S
Mn145 N152 2.257 . S
Mn145 N161 2.282 . S
Mn145 O169 2.215 . S
Mn145 O171 2.117 . S
C146 O168 1.234 . S
C146 O169 1.283 . S
C147 O159 1.281 . S
C147 O160 1.236 . S
C148 O170 1.240 . S
C148 O171 1.264 . S
O149 Mn144 2.095 . S
O149 C158 1.250 . S
O150 Mn145 2.121 . S
O150 C158 1.258 . S
C151 N152 1.326 . S
C151 C155 1.460 . S
C151 H157 0.929 . S
N152 Mn145 2.257 . S
N152 C151 1.326 . S
N152 C156 1.362 . S
C153 C154 1.258 . S
C153 C156 1.431 . S
C153 C173 1.449 . S
C154 C153 1.258 . S
C154 C155 1.477 . S
C154 H174 0.931 . S
C155 C151 1.460 . S
C155 C154 1.477 . S
C155 H175 0.930 . S
C156 N152 1.362 . S
C156 C153 1.431 . S
C156 C166 1.476 . S
H157 C151 0.929 . S
C158 O149 1.250 . S
C158 O150 1.258 . S
O159 Mn144 2.162 . S
O159 C147 1.281 . S
O160 Mn144 2.297 . S
O160 C147 1.236 . S
N161 Mn145 2.282 . S
N161 C162 1.328 . S
N161 C166 1.318 . S
C162 N161 1.328 . S
C162 C163 1.457 . S
C162 H167 0.929 . S
C163 C162 1.457 . S
C163 C164 1.291 . S
C163 H176 0.931 . S
C164 C163 1.291 . S
C164 C165 1.373 . S
C164 H177 0.929 . S
C165 C164 1.373 . S
C165 C166 1.396 . S
C165 C172 1.403 . S
C166 C156 1.476 . S
C166 N161 1.318 . S
C166 C165 1.396 . S
H167 C162 0.929 . S
O168 Mn144 2.385 . S
O168 C146 1.234 . S
O169 Mn144 2.209 . S
O169 Mn145 2.215 . S
O169 C146 1.283 . S
O170 Mn144 2.094 . S
O170 C148 1.240 . S
O171 Mn145 2.117 . S
O171 C148 1.264 . S
C172 C165 1.403 . S
C172 C173 1.399 . S
C172 H178 0.929 . S
C173 C153 1.449 . S
C173 C172 1.399 . S
C173 H179 0.930 . S
H174 C154 0.931 . S
H175 C155 0.930 . S
H176 C163 0.931 . S
H177 C164 0.929 . S
H178 C172 0.929 . S
H179 C173 0.930 . S
Mn180 O185 2.095 . S
Mn180 O195 2.162 . S
Mn180 O196 2.297 . S
Mn180 O204 2.385 . S
Mn180 O205 2.209 . S
Mn180 O206 2.094 . S
Mn181 O186 2.121 . S
Mn181 N188 2.257 . S
Mn181 N197 2.282 . S
Mn181 O205 2.215 . S
Mn181 O207 2.117 . S
C182 O204 1.234 . S
C182 O205 1.283 . S
C183 O195 1.281 . S
C183 O196 1.236 . S
C184 O206 1.240 . S
C184 O207 1.264 . S
O185 Mn180 2.095 . S
O185 C194 1.250 . S
O186 Mn181 2.121 . S
O186 C194 1.258 . S
C187 N188 1.326 . S
C187 C191 1.460 . S
C187 H193 0.929 . S
N188 Mn181 2.257 . S
N188 C187 1.326 . S
N188 C192 1.362 . S
C189 C190 1.258 . S
C189 C192 1.431 . S
C189 C209 1.449 . S
C190 C189 1.258 . S
C190 C191 1.477 . S
C190 H210 0.931 . S
C191 C187 1.460 . S
C191 C190 1.477 . S
C191 H211 0.930 . S
C192 N188 1.362 . S
C192 C189 1.431 . S
C192 C202 1.476 . S
H193 C187 0.929 . S
C194 O185 1.250 . S
C194 O186 1.258 . S
O195 Mn180 2.162 . S
O195 C183 1.281 . S
O196 Mn180 2.297 . S
O196 C183 1.236 . S
N197 Mn181 2.282 . S
N197 C198 1.328 . S
N197 C202 1.318 . S
C198 N197 1.328 . S
C198 C199 1.457 . S
C198 H203 0.929 . S
C199 C198 1.457 . S
C199 C200 1.291 . S
C199 H212 0.931 . S
C200 C199 1.291 . S
C200 C201 1.373 . S
C200 H213 0.929 . S
C201 C200 1.373 . S
C201 C202 1.396 . S
C201 C208 1.403 . S
C202 C192 1.476 . S
C202 N197 1.318 . S
C202 C201 1.396 . S
H203 C198 0.929 . S
O204 Mn180 2.385 . S
O204 C182 1.234 . S
O205 Mn180 2.209 . S
O205 Mn181 2.215 . S
O205 C182 1.283 . S
O206 Mn180 2.094 . S
O206 C184 1.240 . S
O207 Mn181 2.117 . S
O207 C184 1.264 . S
C208 C201 1.403 . S
C208 C209 1.399 . S
C208 H214 0.929 . S
C209 C189 1.449 . S
C209 C208 1.399 . S
C209 H215 0.930 . S
H210 C190 0.931 . S
H211 C191 0.930 . S
H212 C199 0.931 . S
H213 C200 0.929 . S
H214 C208 0.929 . S
H215 C209 0.930 . S
C216 C217 1.349 . S
C216 C218 1.327 . S
C216 H241 0.950 . S
C217 C216 1.349 . S
C217 C233 1.349 . S
C218 C216 1.327 . S
C218 C237 1.429 . S
C218 H242 0.950 . S
C219 C236 1.574 1_545 S
C219 C238 1.368 . S
C219 H243 0.949 . S
H220 C224 0.949 . S
C221 C222 1.349 . S
C221 C223 1.327 . S
C221 H244 0.950 . S
C222 C221 1.349 . S
C222 C234 1.349 . S
C223 C221 1.327 . S
C223 C239 1.429 . S
C223 H245 0.950 . S
C224 H220 0.949 . S
C224 C232 1.574 1_565 S
C224 C240 1.368 . S
H225 C233 0.950 . S
H226 C231 0.950 . S
H227 C232 0.949 . S
H228 C234 0.950 . S
H229 C235 0.950 . S
H230 C236 0.949 . S
C231 H226 0.950 . S
C231 C233 1.327 . S
C231 C237 1.429 . S
C232 C224 1.574 1_545 S
C232 H227 0.949 . S
C232 C238 1.368 . S
C233 C217 1.349 . S
C233 H225 0.950 . S
C233 C231 1.327 . S
C234 C222 1.349 . S
C234 H228 0.950 . S
C234 C235 1.327 . S
C235 H229 0.950 . S
C235 C234 1.327 . S
C235 C239 1.429 . S
C236 C219 1.574 1_565 S
C236 H230 0.949 . S
C236 C240 1.368 . S
C237 C218 1.429 . S
C237 C231 1.429 . S
C237 C238 1.523 . S
C238 C219 1.368 . S
C238 C232 1.368 . S
C238 C237 1.523 . S
C239 C223 1.429 . S
C239 C235 1.429 . S
C239 C240 1.523 . S
C240 C224 1.368 . S
C240 C236 1.368 . S
C240 C239 1.523 . S
H241 C216 0.950 . S
H242 C218 0.950 . S
H243 C219 0.949 . S
H244 C221 0.950 . S
H245 C223 0.950 . S
C246 C247 1.349 . S
C246 C248 1.327 . S
C246 H271 0.950 . S
C247 C246 1.349 . S
C247 C263 1.349 . S
C248 C246 1.327 . S
C248 C267 1.429 . S
C248 H272 0.950 . S
C249 C266 1.574 . S
C249 C268 1.368 . S
C249 H273 0.949 . S
H250 C254 0.949 . S
C251 C252 1.349 . S
C251 C253 1.327 . S
C251 H274 0.950 . S
C252 C251 1.349 . S
C252 C264 1.349 . S
C253 C251 1.327 . S
C253 C269 1.429 . S
C253 H275 0.950 . S
C254 H250 0.949 . S
C254 C262 1.574 . S
C254 C270 1.368 . S
H255 C263 0.950 . S
H256 C261 0.950 . S
H257 C262 0.949 . S
H258 C264 0.950 . S
H259 C265 0.950 . S
H260 C266 0.949 . S
C261 H256 0.950 . S
C261 C263 1.327 . S
C261 C267 1.429 . S
C262 C254 1.574 . S
C262 H257 0.949 . S
C262 C268 1.368 . S
C263 C247 1.349 . S
C263 H255 0.950 . S
C263 C261 1.327 . S
C264 C252 1.349 . S
C264 H258 0.950 . S
C264 C265 1.327 . S
C265 H259 0.950 . S
C265 C264 1.327 . S
C265 C269 1.429 . S
C266 C249 1.574 . S
C266 H260 0.949 . S
C266 C270 1.368 . S
C267 C248 1.429 . S
C267 C261 1.429 . S
C267 C268 1.523 . S
C268 C249 1.368 . S
C268 C262 1.368 . S
C268 C267 1.523 . S
C269 C253 1.429 . S
C269 C265 1.429 . S
C269 C270 1.523 . S
C270 C254 1.368 . S
C270 C266 1.368 . S
C270 C269 1.523 . S
H271 C246 0.950 . S
H272 C248 0.950 . S
H273 C249 0.949 . S
H274 C251 0.950 . S
H275 C253 0.950 . S
C276 C277 1.349 . S
C276 C278 1.327 . S
C276 H301 0.950 . S
C277 C276 1.349 . S
C277 C293 1.349 . S
C278 C276 1.327 . S
C278 C297 1.429 . S
C278 H302 0.950 . S
C279 C296 1.574 1_655 S
C279 C298 1.368 . S
C279 H303 0.949 . S
H280 C284 0.949 . S
C281 C282 1.349 . S
C281 C283 1.327 . S
C281 H304 0.950 . S
C282 C281 1.349 . S
C282 C294 1.349 . S
C283 C281 1.327 . S
C283 C299 1.429 . S
C283 H305 0.950 . S
C284 H280 0.949 . S
C284 C292 1.574 1_455 S
C284 C300 1.368 . S
H285 C293 0.950 . S
H286 C291 0.950 . S
H287 C292 0.949 . S
H288 C294 0.950 . S
H289 C295 0.950 . S
H290 C296 0.949 . S
C291 H286 0.950 . S
C291 C293 1.327 . S
C291 C297 1.429 . S
C292 C284 1.574 1_655 S
C292 H287 0.949 . S
C292 C298 1.368 . S
C293 C277 1.349 . S
C293 H285 0.950 . S
C293 C291 1.327 . S
C294 C282 1.349 . S
C294 H288 0.950 . S
C294 C295 1.327 . S
C295 H289 0.950 . S
C295 C294 1.327 . S
C295 C299 1.429 . S
C296 C279 1.574 1_455 S
C296 H290 0.949 . S
C296 C300 1.368 . S
C297 C278 1.429 . S
C297 C291 1.429 . S
C297 C298 1.523 . S
C298 C279 1.368 . S
C298 C292 1.368 . S
C298 C297 1.523 . S
C299 C283 1.429 . S
C299 C295 1.429 . S
C299 C300 1.523 . S
C300 C284 1.368 . S
C300 C296 1.368 . S
C300 C299 1.523 . S
H301 C276 0.950 . S
H302 C278 0.950 . S
H303 C279 0.949 . S
H304 C281 0.950 . S
H305 C283 0.950 . S
C306 C307 1.349 . S
C306 C308 1.327 . S
C306 H331 0.950 . S
C307 C306 1.349 . S
C307 C323 1.349 . S
C308 C306 1.327 . S
C308 C327 1.429 . S
C308 H332 0.950 . S
C309 C326 1.574 1_455 S
C309 C328 1.368 . S
C309 H333 0.949 . S
H310 C314 0.949 . S
C311 C312 1.349 . S
C311 C313 1.327 . S
C311 H334 0.950 . S
C312 C311 1.349 . S
C312 C324 1.349 . S
C313 C311 1.327 . S
C313 C329 1.429 . S
C313 H335 0.950 . S
C314 H310 0.949 . S
C314 C322 1.574 1_655 S
C314 C330 1.368 . S
H315 C323 0.950 . S
H316 C321 0.950 . S
H317 C322 0.949 . S
H318 C324 0.950 . S
H319 C325 0.950 . S
H320 C326 0.949 . S
C321 H316 0.950 . S
C321 C323 1.327 . S
C321 C327 1.429 . S
C322 C314 1.574 1_455 S
C322 H317 0.949 . S
C322 C328 1.368 . S
C323 C307 1.349 . S
C323 H315 0.950 . S
C323 C321 1.327 . S
C324 C312 1.349 . S
C324 H318 0.950 . S
C324 C325 1.327 . S
C325 H319 0.950 . S
C325 C324 1.327 . S
C325 C329 1.429 . S
C326 C309 1.574 1_655 S
C326 H320 0.949 . S
C326 C330 1.368 . S
C327 C308 1.429 . S
C327 C321 1.429 . S
C327 C328 1.523 . S
C328 C309 1.368 . S
C328 C322 1.368 . S
C328 C327 1.523 . S
C329 C313 1.429 . S
C329 C325 1.429 . S
C329 C330 1.523 . S
C330 C314 1.368 . S
C330 C326 1.368 . S
C330 C329 1.523 . S
H331 C306 0.950 . S
H332 C308 0.950 . S
H333 C309 0.949 . S
H334 C311 0.950 . S
H335 C313 0.950 . S
C336 C337 1.349 . S
C336 C338 1.327 . S
C336 H361 0.950 . S
C337 C336 1.349 . S
C337 C353 1.349 . S
C338 C336 1.327 . S
C338 C357 1.429 . S
C338 H362 0.950 . S
C339 C356 1.574 1_565 S
C339 C358 1.368 . S
C339 H363 0.949 . S
H340 C344 0.949 . S
C341 C342 1.349 . S
C341 C343 1.327 . S
C341 H364 0.950 . S
C342 C341 1.349 . S
C342 C354 1.349 . S
C343 C341 1.327 . S
C343 C359 1.429 . S
C343 H365 0.950 . S
C344 H340 0.949 . S
C344 C352 1.574 1_545 S
C344 C360 1.368 . S
H345 C353 0.950 . S
H346 C351 0.950 . S
H347 C352 0.949 . S
H348 C354 0.950 . S
H349 C355 0.950 . S
H350 C356 0.949 . S
C351 H346 0.950 . S
C351 C353 1.327 . S
C351 C357 1.429 . S
C352 C344 1.574 1_565 S
C352 H347 0.949 . S
C352 C358 1.368 . S
C353 C337 1.349 . S
C353 H345 0.950 . S
C353 C351 1.327 . S
C354 C342 1.349 . S
C354 H348 0.950 . S
C354 C355 1.327 . S
C355 H349 0.950 . S
C355 C354 1.327 . S
C355 C359 1.429 . S
C356 C339 1.574 1_545 S
C356 H350 0.949 . S
C356 C360 1.368 . S
C357 C338 1.429 . S
C357 C351 1.429 . S
C357 C358 1.523 . S
C358 C339 1.368 . S
C358 C352 1.368 . S
C358 C357 1.523 . S
C359 C343 1.429 . S
C359 C355 1.429 . S
C359 C360 1.523 . S
C360 C344 1.368 . S
C360 C356 1.368 . S
C360 C359 1.523 . S
H361 C336 0.950 . S
H362 C338 0.950 . S
H363 C339 0.949 . S
H364 C341 0.950 . S
H365 C343 0.950 . S
C366 C367 1.349 . S
C366 C368 1.327 . S
C366 H391 0.950 . S
C367 C366 1.349 . S
C367 C383 1.349 . S
C368 C366 1.327 . S
C368 C387 1.429 . S
C368 H392 0.950 . S
C369 C386 1.574 . S
C369 C388 1.368 . S
C369 H393 0.949 . S
H370 C374 0.949 . S
C371 C372 1.349 . S
C371 C373 1.327 . S
C371 H394 0.950 . S
C372 C371 1.349 . S
C372 C384 1.349 . S
C373 C371 1.327 . S
C373 C389 1.429 . S
C373 H395 0.950 . S
C374 H370 0.949 . S
C374 C382 1.574 . S
C374 C390 1.368 . S
H375 C383 0.950 . S
H376 C381 0.950 . S
H377 C382 0.949 . S
H378 C384 0.950 . S
H379 C385 0.950 . S
H380 C386 0.949 . S
C381 H376 0.950 . S
C381 C383 1.327 . S
C381 C387 1.429 . S
C382 C374 1.574 . S
C382 H377 0.949 . S
C382 C388 1.368 . S
C383 C367 1.349 . S
C383 H375 0.950 . S
C383 C381 1.327 . S
C384 C372 1.349 . S
C384 H378 0.950 . S
C384 C385 1.327 . S
C385 H379 0.950 . S
C385 C384 1.327 . S
C385 C389 1.429 . S
C386 C369 1.574 . S
C386 H380 0.949 . S
C386 C390 1.368 . S
C387 C368 1.429 . S
C387 C381 1.429 . S
C387 C388 1.523 . S
C388 C369 1.368 . S
C388 C382 1.368 . S
C388 C387 1.523 . S
C389 C373 1.429 . S
C389 C385 1.429 . S
C389 C390 1.523 . S
C390 C374 1.368 . S
C390 C386 1.368 . S
C390 C389 1.523 . S
H391 C366 0.950 . S
H392 C368 0.950 . S
H393 C369 0.949 . S
H394 C371 0.950 . S
H395 C373 0.950 . S
C396 C397 1.349 . S
C396 C398 1.327 . S
C396 H421 0.950 . S
C397 C396 1.349 . S
C397 C413 1.349 . S
C398 C396 1.327 . S
C398 C417 1.429 . S
C398 H422 0.950 . S
C399 C416 1.574 1_556 S
C399 C418 1.368 . S
C399 H423 0.949 . S
H400 C404 0.949 . S
C401 C402 1.349 . S
C401 C403 1.327 . S
C401 H424 0.950 . S
C402 C401 1.349 . S
C402 C414 1.349 . S
C403 C401 1.327 . S
C403 C419 1.429 . S
C403 H425 0.950 . S
C404 H400 0.949 . S
C404 C412 1.574 1_554 S
C404 C420 1.368 . S
H405 C413 0.950 . S
H406 C411 0.950 . S
H407 C412 0.949 . S
H408 C414 0.950 . S
H409 C415 0.950 . S
H410 C416 0.949 . S
C411 H406 0.950 . S
C411 C413 1.327 . S
C411 C417 1.429 . S
C412 C404 1.574 1_556 S
C412 H407 0.949 . S
C412 C418 1.368 . S
C413 C397 1.349 . S
C413 H405 0.950 . S
C413 C411 1.327 . S
C414 C402 1.349 . S
C414 H408 0.950 . S
C414 C415 1.327 . S
C415 H409 0.950 . S
C415 C414 1.327 . S
C415 C419 1.429 . S
C416 C399 1.574 1_554 S
C416 H410 0.949 . S
C416 C420 1.368 . S
C417 C398 1.429 . S
C417 C411 1.429 . S
C417 C418 1.523 . S
C418 C399 1.368 . S
C418 C412 1.368 . S
C418 C417 1.523 . S
C419 C403 1.429 . S
C419 C415 1.429 . S
C419 C420 1.523 . S
C420 C404 1.368 . S
C420 C416 1.368 . S
C420 C419 1.523 . S
H421 C396 0.950 . S
H422 C398 0.950 . S
H423 C399 0.949 . S
H424 C401 0.950 . S
H425 C403 0.950 . S
C426 C427 1.349 . S
C426 C428 1.327 . S
C426 H451 0.950 . S
C427 C426 1.349 . S
C427 C443 1.349 . S
C428 C426 1.327 . S
C428 C447 1.429 . S
C428 H452 0.950 . S
C429 C446 1.574 . S
C429 C448 1.368 . S
C429 H453 0.949 . S
H430 C434 0.949 . S
C431 C432 1.349 . S
C431 C433 1.327 . S
C431 H454 0.950 . S
C432 C431 1.349 . S
C432 C444 1.349 . S
C433 C431 1.327 . S
C433 C449 1.429 . S
C433 H455 0.950 . S
C434 H430 0.949 . S
C434 C442 1.574 . S
C434 C450 1.368 . S
H435 C443 0.950 . S
H436 C441 0.950 . S
H437 C442 0.949 . S
H438 C444 0.950 . S
H439 C445 0.950 . S
H440 C446 0.949 . S
C441 H436 0.950 . S
C441 C443 1.327 . S
C441 C447 1.429 . S
C442 C434 1.574 . S
C442 H437 0.949 . S
C442 C448 1.368 . S
C443 C427 1.349 . S
C443 H435 0.950 . S
C443 C441 1.327 . S
C444 C432 1.349 . S
C444 H438 0.950 . S
C444 C445 1.327 . S
C445 H439 0.950 . S
C445 C444 1.327 . S
C445 C449 1.429 . S
C446 C429 1.574 . S
C446 H440 0.949 . S
C446 C450 1.368 . S
C447 C428 1.429 . S
C447 C441 1.429 . S
C447 C448 1.523 . S
C448 C429 1.368 . S
C448 C442 1.368 . S
C448 C447 1.523 . S
C449 C433 1.429 . S
C449 C445 1.429 . S
C449 C450 1.523 . S
C450 C434 1.368 . S
C450 C446 1.368 . S
C450 C449 1.523 . S
H451 C426 0.950 . S
H452 C428 0.950 . S
H453 C429 0.949 . S
H454 C431 0.950 . S
H455 C433 0.950 . S
C456 C457 1.349 . S
C456 C458 1.327 . S
C456 H481 0.950 . S
C457 C456 1.349 . S
C457 C473 1.349 . S
C458 C456 1.327 . S
C458 C477 1.429 . S
C458 H482 0.950 . S
C459 C476 1.574 . S
C459 C478 1.368 . S
C459 H483 0.949 . S
H460 C464 0.949 . S
C461 C462 1.349 . S
C461 C463 1.327 . S
C461 H484 0.950 . S
C462 C461 1.349 . S
C462 C474 1.349 . S
C463 C461 1.327 . S
C463 C479 1.429 . S
C463 H485 0.950 . S
C464 H460 0.949 . S
C464 C472 1.574 . S
C464 C480 1.368 . S
H465 C473 0.950 . S
H466 C471 0.950 . S
H467 C472 0.949 . S
H468 C474 0.950 . S
H469 C475 0.950 . S
H470 C476 0.949 . S
C471 H466 0.950 . S
C471 C473 1.327 . S
C471 C477 1.429 . S
C472 C464 1.574 . S
C472 H467 0.949 . S
C472 C478 1.368 . S
C473 C457 1.349 . S
C473 H465 0.950 . S
C473 C471 1.327 . S
C474 C462 1.349 . S
C474 H468 0.950 . S
C474 C475 1.327 . S
C475 H469 0.950 . S
C475 C474 1.327 . S
C475 C479 1.429 . S
C476 C459 1.574 . S
C476 H470 0.949 . S
C476 C480 1.368 . S
C477 C458 1.429 . S
C477 C471 1.429 . S
C477 C478 1.523 . S
C478 C459 1.368 . S
C478 C472 1.368 . S
C478 C477 1.523 . S
C479 C463 1.429 . S
C479 C475 1.429 . S
C479 C480 1.523 . S
C480 C464 1.368 . S
C480 C476 1.368 . S
C480 C479 1.523 . S
H481 C456 0.950 . S
H482 C458 0.950 . S
H483 C459 0.949 . S
H484 C461 0.950 . S
H485 C463 0.950 . S
C486 C487 1.349 . S
C486 C488 1.327 . S
C486 H511 0.950 . S
C487 C486 1.349 . S
C487 C503 1.349 . S
C488 C486 1.327 . S
C488 C507 1.429 . S
C488 H512 0.950 . S
C489 C506 1.574 1_556 S
C489 C508 1.368 . S
C489 H513 0.949 . S
H490 C494 0.949 . S
C491 C492 1.349 . S
C491 C493 1.327 . S
C491 H514 0.950 . S
C492 C491 1.349 . S
C492 C504 1.349 . S
C493 C491 1.327 . S
C493 C509 1.429 . S
C493 H515 0.950 . S
C494 H490 0.949 . S
C494 C502 1.574 1_554 S
C494 C510 1.368 . S
H495 C503 0.950 . S
H496 C501 0.950 . S
H497 C502 0.949 . S
H498 C504 0.950 . S
H499 C505 0.950 . S
H500 C506 0.949 . S
C501 H496 0.950 . S
C501 C503 1.327 . S
C501 C507 1.429 . S
C502 C494 1.574 1_556 S
C502 H497 0.949 . S
C502 C508 1.368 . S
C503 C487 1.349 . S
C503 H495 0.950 . S
C503 C501 1.327 . S
C504 C492 1.349 . S
C504 H498 0.950 . S
C504 C505 1.327 . S
C505 H499 0.950 . S
C505 C504 1.327 . S
C505 C509 1.429 . S
C506 C489 1.574 1_554 S
C506 H500 0.949 . S
C506 C510 1.368 . S
C507 C488 1.429 . S
C507 C501 1.429 . S
C507 C508 1.523 . S
C508 C489 1.368 . S
C508 C502 1.368 . S
C508 C507 1.523 . S
C509 C493 1.429 . S
C509 C505 1.429 . S
C509 C510 1.523 . S
C510 C494 1.368 . S
C510 C506 1.368 . S
C510 C509 1.523 . S
H511 C486 0.950 . S
H512 C488 0.950 . S
H513 C489 0.949 . S
H514 C491 0.950 . S
H515 C493 0.950 . S
C516 C517 1.349 . S
C516 C518 1.327 . S
C516 H541 0.950 . S
C517 C516 1.349 . S
C517 C533 1.349 . S
C518 C516 1.327 . S
C518 C537 1.429 . S
C518 H542 0.950 . S
C519 C536 1.574 . S
C519 C538 1.368 . S
C519 H543 0.949 . S
H520 C524 0.949 . S
C521 C522 1.349 . S
C521 C523 1.327 . S
C521 H544 0.950 . S
C522 C521 1.349 . S
C522 C534 1.349 . S
C523 C521 1.327 . S
C523 C539 1.429 . S
C523 H545 0.950 . S
C524 H520 0.949 . S
C524 C532 1.574 . S
C524 C540 1.368 . S
H525 C533 0.950 . S
H526 C531 0.950 . S
H527 C532 0.949 . S
H528 C534 0.950 . S
H529 C535 0.950 . S
H530 C536 0.949 . S
C531 H526 0.950 . S
C531 C533 1.327 . S
C531 C537 1.429 . S
C532 C524 1.574 . S
C532 H527 0.949 . S
C532 C538 1.368 . S
C533 C517 1.349 . S
C533 H525 0.950 . S
C533 C531 1.327 . S
C534 C522 1.349 . S
C534 H528 0.950 . S
C534 C535 1.327 . S
C535 H529 0.950 . S
C535 C534 1.327 . S
C535 C539 1.429 . S
C536 C519 1.574 . S
C536 H530 0.949 . S
C536 C540 1.368 . S
C537 C518 1.429 . S
C537 C531 1.429 . S
C537 C538 1.523 . S
C538 C519 1.368 . S
C538 C532 1.368 . S
C538 C537 1.523 . S
C539 C523 1.429 . S
C539 C535 1.429 . S
C539 C540 1.523 . S
C540 C524 1.368 . S
C540 C536 1.368 . S
C540 C539 1.523 . S
H541 C516 0.950 . S
H542 C518 0.950 . S
H543 C519 0.949 . S
H544 C521 0.950 . S
H545 C523 0.950 . S
C546 C547 1.349 . S
C546 C548 1.327 . S
C546 H571 0.950 . S
C547 C546 1.349 . S
C547 C563 1.349 . S
C548 C546 1.327 . S
C548 C567 1.429 . S
C548 H572 0.950 . S
C549 C566 1.574 . S
C549 C568 1.368 . S
C549 H573 0.949 . S
H550 C554 0.949 . S
C551 C552 1.349 . S
C551 C553 1.327 . S
C551 H574 0.950 . S
C552 C551 1.349 . S
C552 C564 1.349 . S
C553 C551 1.327 . S
C553 C569 1.429 . S
C553 H575 0.950 . S
C554 H550 0.949 . S
C554 C562 1.574 . S
C554 C570 1.368 . S
H555 C563 0.950 . S
H556 C561 0.950 . S
H557 C562 0.949 . S
H558 C564 0.950 . S
H559 C565 0.950 . S
H560 C566 0.949 . S
C561 H556 0.950 . S
C561 C563 1.327 . S
C561 C567 1.429 . S
C562 C554 1.574 . S
C562 H557 0.949 . S
C562 C568 1.368 . S
C563 C547 1.349 . S
C563 H555 0.950 . S
C563 C561 1.327 . S
C564 C552 1.349 . S
C564 H558 0.950 . S
C564 C565 1.327 . S
C565 H559 0.950 . S
C565 C564 1.327 . S
C565 C569 1.429 . S
C566 C549 1.574 . S
C566 H560 0.949 . S
C566 C570 1.368 . S
C567 C548 1.429 . S
C567 C561 1.429 . S
C567 C568 1.523 . S
C568 C549 1.368 . S
C568 C562 1.368 . S
C568 C567 1.523 . S
C569 C553 1.429 . S
C569 C565 1.429 . S
C569 C570 1.523 . S
C570 C554 1.368 . S
C570 C566 1.368 . S
C570 C569 1.523 . S
H571 C546 0.950 . S
H572 C548 0.950 . S
H573 C549 0.949 . S
H574 C551 0.950 . S
H575 C553 0.950 . S
C217 C3 1.418 . S
C222 C111 1.418 . S
C247 C39 1.400 . S
C252 C147 1.400 . S
C277 C76 1.393 . S
C282 C184 1.393 . S
C307 C40 1.375 . S
C312 C148 1.375 . S
C337 C183 1.400 . S
C342 C75 1.400 . S
C367 C112 1.393 . S
C372 C4 1.393 . S
C397 C74 0.999 . S
C402 C2 0.999 . S
C427 C122 1.048 . S
C432 C38 1.019 . S
C457 C86 1.070 . S
C462 C158 1.070 . S
C487 C182 0.999 . S
C492 C110 0.999 . S
C517 C146 1.019 . S
C522 C14 1.048 . S
C547 C194 1.070 . S
C552 C50 1.071 . S
