# Generated by pormake.
# Topology zfj, (5)-cn, num edge types: 1
# Building blocks:
#     Node 0, Type 0, BuildingBlock: XOMCOT_clean_sbu_1, # of connection points: 5
#     Node 1, Type 0, BuildingBlock: XOMCOT_clean_sbu_1, # of connection points: 5
#     Node 2, Type 0, BuildingBlock: XOMCOT_clean_sbu_1, # of connection points: 5
#     Node 3, Type 0, BuildingBlock: XOMCOT_clean_sbu_1, # of connection points: 5
#     Node 4, Type 0, BuildingBlock: XOMCOT_clean_sbu_1, # of connection points: 5
#     Node 5, Type 0, BuildingBlock: XOMCOT_clean_sbu_1, # of connection points: 5
#     Node 6, Type 0, BuildingBlock: XOMCOT_clean_sbu_1, # of connection points: 5
#     Node 7, Type 0, BuildingBlock: XOMCOT_clean_sbu_1, # of connection points: 5
#     Node 8, Type 0, BuildingBlock: XOMCOT_clean_sbu_1, # of connection points: 5
#     Node 9, Type 0, BuildingBlock: XOMCOT_clean_sbu_1, # of connection points: 5
#     Node 10, Type 0, BuildingBlock: XOMCOT_clean_sbu_1, # of connection points: 5
#     Node 11, Type 0, BuildingBlock: XOMCOT_clean_sbu_1, # of connection points: 5
#     Node 12, Type 0, BuildingBlock: XOMCOT_clean_sbu_1, # of connection points: 5
#     Node 13, Type 0, BuildingBlock: XOMCOT_clean_sbu_1, # of connection points: 5
#     Node 14, Type 0, BuildingBlock: XOMCOT_clean_sbu_1, # of connection points: 5
#     Node 15, Type 0, BuildingBlock: XOMCOT_clean_sbu_1, # of connection points: 5
#     Edge 16, Type (0, 0), BuildingBlock: ZUJKAS_clean_linker_0, # of connection points: 2
#     Edge 17, Type (0, 0), BuildingBlock: ZUJKAS_clean_linker_0, # of connection points: 2
#     Edge 18, Type (0, 0), BuildingBlock: ZUJKAS_clean_linker_0, # of connection points: 2
#     Edge 19, Type (0, 0), BuildingBlock: ZUJKAS_clean_linker_0, # of connection points: 2
#     Edge 20, Type (0, 0), BuildingBlock: ZUJKAS_clean_linker_0, # of connection points: 2
#     Edge 21, Type (0, 0), BuildingBlock: ZUJKAS_clean_linker_0, # of connection points: 2
#     Edge 22, Type (0, 0), BuildingBlock: ZUJKAS_clean_linker_0, # of connection points: 2
#     Edge 23, Type (0, 0), BuildingBlock: ZUJKAS_clean_linker_0, # of connection points: 2
#     Edge 24, Type (0, 0), BuildingBlock: ZUJKAS_clean_linker_0, # of connection points: 2
#     Edge 25, Type (0, 0), BuildingBlock: ZUJKAS_clean_linker_0, # of connection points: 2
#     Edge 26, Type (0, 0), BuildingBlock: ZUJKAS_clean_linker_0, # of connection points: 2
#     Edge 27, Type (0, 0), BuildingBlock: ZUJKAS_clean_linker_0, # of connection points: 2
#     Edge 28, Type (0, 0), BuildingBlock: ZUJKAS_clean_linker_0, # of connection points: 2
#     Edge 29, Type (0, 0), BuildingBlock: ZUJKAS_clean_linker_0, # of connection points: 2
#     Edge 30, Type (0, 0), BuildingBlock: ZUJKAS_clean_linker_0, # of connection points: 2
#     Edge 31, Type (0, 0), BuildingBlock: ZUJKAS_clean_linker_0, # of connection points: 2
#     Edge 32, Type (0, 0), BuildingBlock: ZUJKAS_clean_linker_0, # of connection points: 2
#     Edge 33, Type (0, 0), BuildingBlock: ZUJKAS_clean_linker_0, # of connection points: 2
#     Edge 34, Type (0, 0), BuildingBlock: ZUJKAS_clean_linker_0, # of connection points: 2
#     Edge 35, Type (0, 0), BuildingBlock: ZUJKAS_clean_linker_0, # of connection points: 2
#     Edge 36, Type (0, 0), BuildingBlock: ZUJKAS_clean_linker_0, # of connection points: 2
#     Edge 37, Type (0, 0), BuildingBlock: ZUJKAS_clean_linker_0, # of connection points: 2
#     Edge 38, Type (0, 0), BuildingBlock: ZUJKAS_clean_linker_0, # of connection points: 2
#     Edge 39, Type (0, 0), BuildingBlock: ZUJKAS_clean_linker_0, # of connection points: 2
#     Edge 40, Type (0, 0), BuildingBlock: ZUJKAS_clean_linker_0, # of connection points: 2
#     Edge 41, Type (0, 0), BuildingBlock: ZUJKAS_clean_linker_0, # of connection points: 2
#     Edge 42, Type (0, 0), BuildingBlock: ZUJKAS_clean_linker_0, # of connection points: 2
#     Edge 43, Type (0, 0), BuildingBlock: ZUJKAS_clean_linker_0, # of connection points: 2
#     Edge 44, Type (0, 0), BuildingBlock: ZUJKAS_clean_linker_0, # of connection points: 2
#     Edge 45, Type (0, 0), BuildingBlock: ZUJKAS_clean_linker_0, # of connection points: 2
#     Edge 46, Type (0, 0), BuildingBlock: ZUJKAS_clean_linker_0, # of connection points: 2
#     Edge 47, Type (0, 0), BuildingBlock: ZUJKAS_clean_linker_0, # of connection points: 2
#     Edge 48, Type (0, 0), BuildingBlock: ZUJKAS_clean_linker_0, # of connection points: 2
#     Edge 49, Type (0, 0), BuildingBlock: ZUJKAS_clean_linker_0, # of connection points: 2
#     Edge 50, Type (0, 0), BuildingBlock: ZUJKAS_clean_linker_0, # of connection points: 2
#     Edge 51, Type (0, 0), BuildingBlock: ZUJKAS_clean_linker_0, # of connection points: 2
#     Edge 52, Type (0, 0), BuildingBlock: ZUJKAS_clean_linker_0, # of connection points: 2
#     Edge 53, Type (0, 0), BuildingBlock: ZUJKAS_clean_linker_0, # of connection points: 2
#     Edge 54, Type (0, 0), BuildingBlock: ZUJKAS_clean_linker_0, # of connection points: 2
#     Edge 55, Type (0, 0), BuildingBlock: ZUJKAS_clean_linker_0, # of connection points: 2
# Relax obj value: 0.170
# Max RMSD: 0.146
# Mean RMSD: 0.146
data_MOF--net-zfj--node1-XOMCOT_clean_sbu_1--edge1-ZUJKAS_clean_linker_0
_symmetry_space_group_name_H-M    P1
_symmetry_Int_Tables_number       1
_symmetry_cell_setting            triclinic
loop_
_symmetry_equiv_pos_as_xyz
'x, y, z'
_cell_length_a     44.057383
_cell_length_b     44.019167
_cell_length_c     65.333434
_cell_angle_alpha  90.059598
_cell_angle_beta   90.017525
_cell_angle_gamma 89.984967
loop_
_atom_site_label
_atom_site_type_symbol
_atom_site_fract_x
_atom_site_fract_y
_atom_site_fract_z
_atom_type_partial_charge
C0 C 0.47859 0.2405 0.17328 0.0
C1 C 0.47916 0.27139 0.17631 0.0
N2 N 0.47424 0.2851 0.15818 0.0
N3 N 0.47323 0.23467 0.15338 0.0
C4 C 0.47073 0.2623 0.14449 0.0
H5 H 0.48184 0.22325 0.18486 0.0
Co6 Co 0.4698 0.19543 0.14335 0.0
C7 C 0.45902 0.19961 0.09922 0.0
O8 O 0.47921 0.1778 0.09725 0.0
N9 N 0.46543 0.1547 0.13387 0.0
C10 C 0.44241 0.11411 0.12057 0.0
C11 C 0.43954 0.14437 0.12515 0.0
C12 C 0.48337 0.12969 0.135 0.0
N13 N 0.46997 0.10488 0.1268 0.0
O14 O 0.42998 0.1933 0.15498 0.0
H15 H 0.41959 0.15809 0.12236 0.0
H16 H 0.50566 0.12921 0.14181 0.0
O17 O 0.45313 0.21039 0.11703 0.0
C18 C 0.42997 0.17674 0.17095 0.0
O19 O 0.45517 0.16292 0.17635 0.0
N20 N 0.51018 0.19801 0.13417 0.0
C21 C 0.57268 0.20542 0.12869 0.0
C22 C 0.55189 0.22127 0.11641 0.0
C23 C 0.52075 0.21774 0.11967 0.0
C24 C 0.53007 0.1835 0.14677 0.0
C25 C 0.56132 0.18621 0.14399 0.0
H26 H 0.50544 0.23209 0.11118 0.0
H27 H 0.52157 0.17052 0.15959 0.0
H28 H 0.46611 0.26571 0.12839 0.0
H29 H 0.48339 0.28287 0.19068 0.0
H30 H 0.4252 0.09974 0.11377 0.0
H31 H 0.55956 0.23744 0.10506 0.0
H32 H 0.57641 0.17385 0.15408 0.0
C33 C 0.26409 0.51624 0.66419 0.0
C34 C 0.23307 0.5175 0.66551 0.0
N35 N 0.22144 0.49555 0.65348 0.0
N36 N 0.27211 0.49356 0.65141 0.0
C37 C 0.24559 0.48138 0.64499 0.0
H38 H 0.2799 0.53065 0.67232 0.0
Co39 Co 0.31225 0.4826 0.64646 0.0
C40 C 0.31584 0.46615 0.60298 0.0
O41 O 0.3417 0.48103 0.60255 0.0
N42 N 0.35318 0.47082 0.64211 0.0
C43 C 0.39205 0.43988 0.6355 0.0
C44 C 0.36115 0.4419 0.63762 0.0
C45 C 0.38004 0.48585 0.6429 0.0
N46 N 0.40395 0.46758 0.6388 0.0
O47 O 0.30573 0.44471 0.66031 0.0
H48 H 0.34535 0.42329 0.63576 0.0
H49 H 0.38242 0.50973 0.64607 0.0
O50 O 0.30083 0.46469 0.61976 0.0
C51 C 0.30414 0.44813 0.67965 0.0
O52 O 0.30542 0.47571 0.68729 0.0
N53 N 0.31827 0.5213 0.63496 0.0
C54 C 0.31682 0.58384 0.6276 0.0
C55 C 0.30179 0.56355 0.61448 0.0
C56 C 0.30233 0.53241 0.61862 0.0
C57 C 0.33285 0.54077 0.64785 0.0
C58 C 0.33318 0.57192 0.64416 0.0
H59 H 0.28776 0.51783 0.60969 0.0
H60 H 0.34262 0.53225 0.66191 0.0
H61 H 0.244 0.46209 0.63477 0.0
H62 H 0.22005 0.5335 0.67454 0.0
H63 H 0.40478 0.41945 0.63212 0.0
H64 H 0.28781 0.57175 0.60202 0.0
H65 H 0.34489 0.58665 0.65485 0.0
C66 C 0.98042 0.24929 0.17215 0.0
C67 C 0.98499 0.21939 0.17727 0.0
N68 N 0.00326 0.2067 0.1631 0.0
N69 N 0.99573 0.25561 0.15482 0.0
C70 C 0.00973 0.22928 0.14975 0.0
H71 H 0.96576 0.26512 0.18006 0.0
Co72 Co 0.99368 0.29321 0.14153 0.0
C73 C 0.00485 0.26643 0.09928 0.0
O74 O 0.97597 0.26609 0.09451 0.0
N75 N 0.99219 0.33165 0.1286 0.0
C76 C 0.98445 0.36899 0.10622 0.0
C77 C 0.98536 0.33809 0.1089 0.0
C78 C 0.99546 0.35925 0.13753 0.0
N79 N 0.99073 0.38232 0.12425 0.0
O80 O 0.0327 0.30308 0.15295 0.0
H81 H 0.98004 0.32173 0.09722 0.0
H82 H 0.99997 0.36249 0.15364 0.0
O83 O 0.01376 0.27646 0.11671 0.0
C84 C 0.02849 0.3117 0.17138 0.0
O85 O 1.00038 0.31471 0.17782 0.0
N86 N 0.95331 0.28393 0.13274 0.0
C87 C 0.89142 0.27163 0.127 0.0
C88 C 0.91316 0.24862 0.12488 0.0
C89 C 0.9438 0.25508 0.12816 0.0
C90 C 0.93217 0.30628 0.13558 0.0
C91 C 0.90134 0.30083 0.13234 0.0
H92 H 0.95987 0.23668 0.12684 0.0
H93 H 0.93884 0.32841 0.1411 0.0
H94 H 0.02343 0.22639 0.13616 0.0
H95 H 0.97422 0.2075 0.18981 0.0
H96 H 0.97925 0.38072 0.0921 0.0
H97 H 0.90655 0.22549 0.12139 0.0
H98 H 0.8854 0.3193 0.13441 0.0
C99 C 0.2561 0.99358 0.67625 0.0
C100 C 0.28582 0.99976 0.68118 0.0
N101 N 0.29804 0.01636 0.66597 0.0
N102 N 0.24946 0.00629 0.65803 0.0
C103 C 0.27539 0.0204 0.65226 0.0
H104 H 0.24069 0.97949 0.68494 0.0
Co105 Co 0.21237 1.00092 0.64442 0.0
C106 C 0.2388 0.01441 0.60237 0.0
O107 O 0.24226 0.98576 0.59744 0.0
N108 N 0.17438 0.99616 0.63098 0.0
C109 C 0.13891 0.98566 0.60773 0.0
C110 C 0.16951 0.98704 0.61151 0.0
C111 C 0.14606 1.00001 0.63872 0.0
N112 N 0.12401 0.99388 0.62485 0.0
O113 O 0.19934 0.03925 0.65514 0.0
H114 H 0.18686 0.98052 0.60079 0.0
H115 H 0.14164 0.00706 0.65427 0.0
O116 O 0.22769 0.02199 0.61975 0.0
C117 C 0.18915 0.03604 0.67326 0.0
O118 O 0.18735 0.00843 0.6808 0.0
N119 N 0.22502 0.96132 0.63599 0.0
C120 C 0.24174 0.90073 0.62931 0.0
C121 C 0.26308 0.92411 0.62746 0.0
C122 C 0.25442 0.95409 0.63121 0.0
C123 C 0.20444 0.93849 0.63889 0.0
C124 C 0.21209 0.90821 0.63517 0.0
H125 H 0.27148 0.9715 0.62978 0.0
H126 H 0.18202 0.94347 0.64467 0.0
H127 H 0.27814 0.03212 0.63784 0.0
H128 H 0.29801 0.99108 0.69432 0.0
H129 H 0.12855 0.97814 0.5936 0.0
H130 H 0.28633 0.91932 0.62315 0.0
H131 H 0.1952 0.8907 0.6376 0.0
C132 C 0.51623 0.25605 0.83237 0.0
C133 C 0.51191 0.2262 0.82698 0.0
N134 N 0.49425 0.21296 0.84125 0.0
N135 N 0.50133 0.26183 0.84995 0.0
C136 C 0.48777 0.23521 0.85488 0.0
H137 H 0.53072 0.27213 0.82458 0.0
Co138 Co 0.50444 0.29889 0.86394 0.0
C139 C 0.49092 0.27141 0.90568 0.0
O140 O 0.51951 0.2695 0.91107 0.0
N141 N 0.50713 0.33676 0.8776 0.0
C142 C 0.51619 0.37257 0.90084 0.0
C143 C 0.51526 0.34192 0.89722 0.0
C144 C 0.50329 0.36492 0.86962 0.0
N145 N 0.50862 0.38723 0.88349 0.0
O146 O 0.46591 0.31035 0.85277 0.0
H147 H 0.52169 0.32481 0.90811 0.0
H148 H 0.49709 0.36895 0.85386 0.0
O149 O 0.48333 0.28218 0.88821 0.0
C150 C 0.46894 0.31903 0.83428 0.0
O151 O 0.49651 0.32168 0.82682 0.0
N152 N 0.54416 0.28781 0.87289 0.0
C153 C 0.60503 0.27295 0.87991 0.0
C154 C 0.58235 0.25084 0.8815 0.0
C155 C 0.55223 0.25858 0.87759 0.0
C156 C 0.56631 0.30923 0.8704 0.0
C157 C 0.59673 0.30249 0.8743 0.0
H158 H 0.53536 0.24093 0.87874 0.0
H159 H 0.56071 0.33159 0.86474 0.0
H160 H 0.4748 0.23176 0.86873 0.0
H161 H 0.52273 0.21466 0.81429 0.0
H162 H 0.52318 0.3831 0.91505 0.0
H163 H 0.58782 0.22765 0.88563 0.0
H164 H 0.61373 0.31996 0.87211 0.0
C165 C 0.22873 0.49768 0.32874 0.0
C166 C 0.25932 0.49873 0.32478 0.0
N167 N 0.27452 0.49296 0.3423 0.0
N168 N 0.22438 0.4911 0.34862 0.0
C169 C 0.25263 0.48821 0.35651 0.0
H170 H 0.21071 0.50166 0.31783 0.0
Co171 Co 0.18606 0.48817 0.36038 0.0
C172 C 0.19571 0.47861 0.40428 0.0
O173 O 0.1747 0.49936 0.40719 0.0
N174 N 0.14646 0.4843 0.37174 0.0
C175 C 0.1074 0.46188 0.38732 0.0
C176 C 0.13737 0.45917 0.38196 0.0
C177 C 0.12091 0.5014 0.37034 0.0
N178 N 0.09708 0.4884 0.37995 0.0
O179 O 0.18161 0.44862 0.3483 0.0
H180 H 0.15161 0.43969 0.38505 0.0
H181 H 0.11921 0.52254 0.3621 0.0
O182 O 0.2035 0.47116 0.38602 0.0
C183 C 0.16529 0.45236 0.33235 0.0
O184 O 0.15465 0.4797 0.32859 0.0
N185 N 0.19033 0.52856 0.36963 0.0
C186 C 0.19911 0.59096 0.37506 0.0
C187 C 0.21646 0.56987 0.38608 0.0
C188 C 0.21227 0.53881 0.38276 0.0
C189 C 0.17429 0.54881 0.35817 0.0
C190 C 0.17773 0.58003 0.36096 0.0
H191 H 0.22774 0.5233 0.3901 0.0
H192 H 0.15975 0.5407 0.34602 0.0
H193 H 0.257 0.48346 0.37246 0.0
H194 H 0.26936 0.5034 0.31002 0.0
H195 H 0.09385 0.44506 0.39523 0.0
H196 H 0.23425 0.57726 0.39638 0.0
H197 H 0.1643 0.59543 0.35175 0.0
C198 C 0.99158 0.25288 0.83841 0.0
C199 C 0.98964 0.28393 0.83774 0.0
N200 N 0.00955 0.29548 0.8513 0.0
N201 N 0.01275 0.24464 0.85224 0.0
C202 C 0.02324 0.27117 0.86002 0.0
H203 H 0.97842 0.23717 0.82929 0.0
Co204 Co 0.02253 0.20388 0.85673 0.0
C205 C 0.04017 0.19821 0.89987 0.0
O206 O 0.02443 0.17286 0.90007 0.0
N207 N 0.03281 0.16216 0.86041 0.0
C208 C 0.06232 0.12171 0.8656 0.0
C209 C 0.06151 0.1528 0.86417 0.0
C210 C 0.01667 0.1359 0.85944 0.0
N211 N 0.03406 0.111 0.86266 0.0
O212 O 0.06036 0.20939 0.84268 0.0
H213 H 0.08082 0.16773 0.86592 0.0
H214 H 0.99261 0.13468 0.8567 0.0
O215 O 0.04144 0.21398 0.88339 0.0
C216 C 0.05681 0.20986 0.82332 0.0
O217 O 0.02918 0.20823 0.81586 0.0
N218 N 0.98402 0.19897 0.86854 0.0
C219 C 0.92192 0.20164 0.87696 0.0
C220 C 0.943 0.21564 0.89002 0.0
C221 C 0.97392 0.21452 0.88535 0.0
C222 C 0.96378 0.18556 0.85563 0.0
C223 C 0.9328 0.18583 0.85983 0.0
H224 H 0.98919 0.22824 0.89436 0.0
H225 H 0.9716 0.17606 0.8413 0.0
H226 H 0.04084 0.2727 0.87154 0.0
H227 H 0.97443 0.29705 0.82819 0.0
H228 H 0.08239 0.1081 0.86825 0.0
H229 H 0.93559 0.22921 0.90292 0.0
H230 H 0.91743 0.17491 0.84918 0.0
C231 C 0.25408 1.00143 0.33405 0.0
C232 C 0.2243 0.00631 0.32874 0.0
N233 N 0.21087 0.02242 0.34378 0.0
N234 N 0.25958 0.01435 0.35237 0.0
C235 C 0.23292 0.02735 0.35782 0.0
H236 H 0.27045 0.9882 0.32551 0.0
Co237 Co 0.29663 0.01054 0.36604 0.0
C238 C 0.2704 0.0221 0.40843 0.0
O239 O 0.27015 0.99341 0.41375 0.0
N240 N 0.33495 0.00705 0.37938 0.0
C241 C 0.37145 0.99621 0.40187 0.0
C242 C 0.34071 0.998 0.39877 0.0
C243 C 0.36296 0.01057 0.37106 0.0
N244 N 0.38551 0.00403 0.38441 0.0
O245 O 0.30765 0.04971 0.35592 0.0
H246 H 0.32401 0.99158 0.40989 0.0
H247 H 0.36691 0.01655 0.35527 0.0
O248 O 0.28003 0.03031 0.39081 0.0
C249 C 0.31924 0.0482 0.3381 0.0
O250 O 0.32363 0.02135 0.3298 0.0
N251 N 0.28582 0.97045 0.37403 0.0
C252 C 0.27108 0.90908 0.3792 0.0
C253 C 0.24931 0.93177 0.38246 0.0
C254 C 0.25696 0.9622 0.37944 0.0
C255 C 0.30691 0.94846 0.3701 0.0
C256 C 0.30023 0.91777 0.37296 0.0
H257 H 0.23955 0.97912 0.38166 0.0
H258 H 0.32889 0.9545 0.36401 0.0
H259 H 0.2294 0.03914 0.37216 0.0
H260 H 0.21301 0.9972 0.31536 0.0
H261 H 0.38256 0.9893 0.41589 0.0
H262 H 0.22643 0.92611 0.38716 0.0
H263 H 0.31742 0.90094 0.3695 0.0
C264 C 0.49033 0.75168 0.83402 0.0
C265 C 0.48618 0.72087 0.83433 0.0
N266 N 0.50325 0.70909 0.8495 0.0
N267 N 0.51012 0.75966 0.84878 0.0
C268 C 0.51775 0.73318 0.858 0.0
H269 H 0.47924 0.76746 0.82378 0.0
Co270 Co 0.51972 0.80041 0.85325 0.0
C271 C 0.53572 0.80677 0.89665 0.0
O272 O 0.51982 0.83204 0.89633 0.0
N273 N 0.52972 0.84208 0.85681 0.0
C274 C 0.55888 0.88257 0.86252 0.0
C275 C 0.55817 0.85149 0.86128 0.0
C276 C 0.51364 0.86827 0.85508 0.0
N277 N 0.53082 0.89321 0.85867 0.0
O278 O 0.558 0.7948 0.8398 0.0
H279 H 0.57735 0.83658 0.8637 0.0
H280 H 0.4898 0.8694 0.85151 0.0
O281 O 0.5381 0.79089 0.88024 0.0
C282 C 0.55573 0.79493 0.82036 0.0
O283 O 0.52866 0.7972 0.8121 0.0
N284 N 0.4808 0.80524 0.86471 0.0
C285 C 0.4189 0.80253 0.87389 0.0
C286 C 0.44041 0.78918 0.88688 0.0
C287 C 0.47107 0.78997 0.88171 0.0
C288 C 0.46016 0.81812 0.85183 0.0
C289 C 0.42918 0.81753 0.85628 0.0
H290 H 0.48643 0.77637 0.8907 0.0
H291 H 0.46763 0.82724 0.83731 0.0
H292 H 0.53295 0.73172 0.87098 0.0
H293 H 0.47171 0.70818 0.82403 0.0
H294 H 0.57873 0.89627 0.86569 0.0
H295 H 0.43354 0.77689 0.90046 0.0
H296 H 0.41336 0.82703 0.84533 0.0
C297 C 0.73561 0.49022 0.34087 0.0
C298 C 0.76655 0.48722 0.3405 0.0
N299 N 0.77839 0.50377 0.35594 0.0
N300 N 0.72765 0.50875 0.35636 0.0
C301 C 0.75418 0.51677 0.3653 0.0
H302 H 0.71978 0.47936 0.33055 0.0
Co303 Co 0.68724 0.5179 0.36192 0.0
C304 C 0.68325 0.53344 0.40558 0.0
O305 O 0.65827 0.51714 0.40605 0.0
N306 N 0.64588 0.52775 0.36663 0.0
C307 C 0.60598 0.55695 0.37399 0.0
C308 C 0.63698 0.55592 0.37236 0.0
C309 C 0.61944 0.51227 0.36436 0.0
N310 N 0.59493 0.52948 0.36895 0.0
O311 O 0.69197 0.55631 0.34852 0.0
H312 H 0.65221 0.57472 0.37522 0.0
H313 H 0.61781 0.48893 0.35949 0.0
O314 O 0.69825 0.53572 0.38882 0.0
C315 C 0.68842 0.55287 0.3293 0.0
O316 O 0.68281 0.52547 0.32226 0.0
N317 N 0.68323 0.4787 0.37303 0.0
C318 C 0.68993 0.41618 0.37917 0.0
C319 C 0.70325 0.43709 0.39266 0.0
C320 C 0.70011 0.46822 0.38913 0.0
C321 C 0.6699 0.45865 0.35992 0.0
C322 C 0.67232 0.42738 0.36296 0.0
H323 H 0.71367 0.48347 0.39826 0.0
H324 H 0.65939 0.46687 0.34604 0.0
H325 H 0.75563 0.53132 0.37861 0.0
H326 H 0.77922 0.47392 0.3295 0.0
H327 H 0.59254 0.57664 0.37806 0.0
H328 H 0.71805 0.42956 0.40489 0.0
H329 H 0.66186 0.41216 0.352 0.0
C330 C 0.00925 0.74867 0.83767 0.0
C331 C 0.00474 0.77861 0.83268 0.0
N332 N 0.98867 0.79187 0.84778 0.0
N333 N 0.996 0.7428 0.85582 0.0
C334 C 0.98325 0.76952 0.86152 0.0
H335 H 0.02289 0.73262 0.82917 0.0
Co336 Co 1.00059 0.70548 0.8693 0.0
C337 C 0.98817 0.73099 0.91178 0.0
O338 O 0.01697 0.73257 0.91662 0.0
N339 N 0.00494 0.6671 0.88247 0.0
C340 C 0.01625 0.6308 0.90497 0.0
C341 C 0.01439 0.66154 0.90178 0.0
C342 C 0.00136 0.639 0.87425 0.0
N343 N 0.00807 0.61647 0.88763 0.0
O344 O 0.9622 0.693 0.85812 0.0
H345 H 0.02112 0.67842 0.91275 0.0
H346 H 0.99438 0.63502 0.85865 0.0
O347 O 0.97972 0.72104 0.89422 0.0
C348 C 0.96712 0.6828 0.84013 0.0
O349 O 0.99544 0.68065 0.83397 0.0
N350 N 0.04018 0.71749 0.87772 0.0
C351 C 0.10113 0.73416 0.88239 0.0
C352 C 0.07785 0.75521 0.88587 0.0
C353 C 0.04769 0.74666 0.88298 0.0
C354 C 0.06272 0.69705 0.87363 0.0
C355 C 0.09321 0.70471 0.87621 0.0
H356 H 0.0304 0.76363 0.8853 0.0
H357 H 0.05727 0.6749 0.86751 0.0
H358 H 0.97184 0.77299 0.87599 0.0
H359 H 0.01448 0.7902 0.81964 0.0
H360 H 0.02432 0.62 0.9188 0.0
H361 H 0.08283 0.77826 0.8906 0.0
H362 H 0.11044 0.68803 0.87252 0.0
C363 C 0.74945 0.02582 0.33386 0.0
C364 C 0.71848 0.02836 0.33322 0.0
N365 N 0.70678 0.0141 0.34968 0.0
N366 N 0.7576 0.00984 0.35053 0.0
C367 C 0.7311 0.00283 0.35992 0.0
H368 H 0.7652 0.03557 0.32302 0.0
Co369 Co 0.79846 0.00383 0.35675 0.0
C370 C 0.8027 0.99358 0.40089 0.0
O371 O 0.82564 0.01268 0.40045 0.0
N372 N 0.84038 0.99713 0.3621 0.0
C373 C 0.88161 0.9707 0.3707 0.0
C374 C 0.85062 0.97012 0.36912 0.0
C375 C 0.86608 0.0136 0.35912 0.0
N376 N 0.89144 0.99808 0.36444 0.0
O377 O 0.79659 0.96398 0.345 0.0
H378 H 0.83634 0.9509 0.3728 0.0
H379 H 0.86655 0.03639 0.35314 0.0
O380 O 0.78845 0.98742 0.38425 0.0
C381 C 0.80056 0.96433 0.32569 0.0
O382 O 0.80408 0.99066 0.31655 0.0
N383 N 0.79954 0.04421 0.36652 0.0
C384 C 0.79154 0.10656 0.37297 0.0
C385 C 0.77755 0.08526 0.38578 0.0
C386 C 0.78123 0.0543 0.38202 0.0
C387 C 0.81282 0.06463 0.35366 0.0
C388 C 0.80969 0.09587 0.35684 0.0
H389 H 0.76746 0.03872 0.39072 0.0
H390 H 0.82423 0.0567 0.34003 0.0
H391 H 0.72973 0.9906 0.37424 0.0
H392 H 0.70564 0.03988 0.32144 0.0
H393 H 0.89585 0.952 0.37554 0.0
H394 H 0.76211 0.09237 0.39776 0.0
H395 H 0.82036 0.11146 0.34625 0.0
C396 C 0.48695 0.7467 0.162 0.0
C397 C 0.48743 0.7778 0.16318 0.0
N398 N 0.50535 0.78837 0.14809 0.0
N399 N 0.50462 0.73754 0.14634 0.0
C400 C 0.51545 0.76349 0.138 0.0
H401 H 0.47433 0.73161 0.17189 0.0
Co402 Co 0.51044 0.69667 0.14007 0.0
C403 C 0.5205 0.69353 0.09582 0.0
O404 O 0.50127 0.67069 0.09583 0.0
N405 N 0.5171 0.65486 0.13446 0.0
C406 C 0.54295 0.61365 0.12493 0.0
C407 C 0.54378 0.64465 0.12687 0.0
C408 C 0.50069 0.62917 0.13754 0.0
N409 N 0.51584 0.60389 0.13166 0.0
O410 O 0.55013 0.69843 0.15209 0.0
H411 H 0.56289 0.65895 0.123 0.0
H412 H 0.47818 0.62858 0.14397 0.0
O413 O 0.52686 0.70705 0.1127 0.0
C414 C 0.54807 0.69671 0.1715 0.0
O415 O 0.52108 0.69403 0.17983 0.0
N416 N 0.47012 0.69571 0.13034 0.0
C417 C 0.40765 0.70399 0.12487 0.0
C418 C 0.42857 0.71814 0.11183 0.0
C419 C 0.45965 0.71431 0.11511 0.0
C420 C 0.45006 0.68226 0.14336 0.0
C421 C 0.41879 0.68545 0.14063 0.0
H422 H 0.47503 0.72822 0.10635 0.0
H423 H 0.45832 0.6708 0.15687 0.0
H424 H 0.53055 0.76418 0.12495 0.0
H425 H 0.47496 0.79164 0.174 0.0
H426 H 0.56124 0.59931 0.11952 0.0
H427 H 0.42111 0.73383 0.1001 0.0
H428 H 0.40355 0.67459 0.15136 0.0
C429 C 0.76752 0.49131 0.67011 0.0
C430 C 0.73671 0.48968 0.67289 0.0
N431 N 0.72315 0.50588 0.65798 0.0
N432 N 0.77349 0.50849 0.65356 0.0
C433 C 0.746 0.51705 0.6464 0.0
H434 H 0.78458 0.48025 0.67938 0.0
Co435 Co 0.81286 0.51557 0.64489 0.0
C436 C 0.81008 0.53691 0.60235 0.0
O437 O 0.83375 0.5194 0.59902 0.0
N438 N 0.85356 0.52318 0.63712 0.0
C439 C 0.89419 0.5503 0.62834 0.0
C440 C 0.86364 0.55127 0.63222 0.0
C441 C 0.87887 0.50567 0.63667 0.0
N442 N 0.90378 0.52161 0.63116 0.0
O443 O 0.81376 0.55183 0.66125 0.0
H444 H 0.84957 0.57139 0.63165 0.0
H445 H 0.87946 0.48187 0.64049 0.0
O446 O 0.7983 0.53799 0.62033 0.0
C447 C 0.82523 0.5445 0.67848 0.0
O448 O 0.83431 0.51628 0.68094 0.0
N449 N 0.81145 0.47808 0.63103 0.0
C450 C 0.79935 0.41763 0.62073 0.0
C451 C 0.78536 0.44147 0.61011 0.0
C452 C 0.79119 0.47148 0.61577 0.0
C453 C 0.82521 0.45511 0.64148 0.0
C454 C 0.82002 0.42478 0.63632 0.0
H455 H 0.77735 0.48893 0.60894 0.0
H456 H 0.8384 0.46022 0.655 0.0
H457 H 0.74275 0.53112 0.63302 0.0
H458 H 0.72517 0.47682 0.68466 0.0
H459 H 0.90846 0.56948 0.6245 0.0
H460 H 0.76876 0.43695 0.59826 0.0
H461 H 0.83035 0.4071 0.64551 0.0
C462 C 0.0249 0.74562 0.17384 0.0
C463 C 0.02829 0.71468 0.17409 0.0
N464 N 0.00989 0.70258 0.15975 0.0
N465 N 0.00431 0.75329 0.15952 0.0
C466 C 0.99543 0.72658 0.15116 0.0
H467 H 0.03694 0.76167 0.18339 0.0
Co468 Co 0.99463 0.79368 0.15407 0.0
C469 C 0.97678 0.79714 0.11086 0.0
O470 O 0.99342 0.82188 0.10985 0.0
N471 N 0.98438 0.83502 0.1494 0.0
C472 C 0.9545 0.87466 0.1427 0.0
C473 C 0.95576 0.84371 0.1447 0.0
C474 C 0.99998 0.86158 0.1505 0.0
N475 N 0.98234 0.88596 0.14631 0.0
O476 O 0.95674 0.78907 0.16822 0.0
H477 H 0.93681 0.82838 0.14272 0.0
H478 H 0.02377 0.86336 0.15414 0.0
O479 O 0.97534 0.78235 0.12774 0.0
C480 C 0.95917 0.78965 0.18765 0.0
O481 O 0.98638 0.79111 0.19581 0.0
N482 N 0.0332 0.79775 0.14197 0.0
C483 C 0.09518 0.79352 0.13307 0.0
C484 C 0.0736 0.77897 0.12069 0.0
C485 C 0.04281 0.78088 0.12561 0.0
C486 C 0.05391 0.81184 0.15421 0.0
C487 C 0.08486 0.81068 0.14979 0.0
H488 H 0.02721 0.7667 0.11719 0.0
H489 H 0.04655 0.82239 0.16832 0.0
H490 H 0.97929 0.72486 0.13874 0.0
H491 H 0.04313 0.70216 0.18423 0.0
H492 H 0.9344 0.88785 0.13926 0.0
H493 H 0.08053 0.7644 0.10816 0.0
H494 H 0.10064 0.82201 0.15996 0.0
C495 C 0.76003 0.02438 0.66794 0.0
C496 C 0.79108 0.02402 0.66922 0.0
N497 N 0.80192 0.00614 0.65416 0.0
N498 N 0.75106 0.00677 0.65219 0.0
C499 C 0.77714 0.99598 0.64394 0.0
H500 H 0.74479 0.03684 0.67784 0.0
Co501 Co 0.70999 1.00149 0.64637 0.0
C502 C 0.70481 0.9906 0.60234 0.0
O503 O 0.68214 0.01001 0.60296 0.0
N504 N 0.66779 0.99542 0.64152 0.0
C505 C 0.62594 0.96981 0.63304 0.0
C506 C 0.65698 0.96883 0.6341 0.0
C507 C 0.64236 0.01187 0.6455 0.0
N508 N 0.61669 0.9969 0.64021 0.0
O509 O 0.71133 0.96202 0.65854 0.0
H510 H 0.67092 0.94961 0.62983 0.0
H511 H 0.64224 0.03419 0.65228 0.0
O512 O 0.71923 0.98429 0.6189 0.0
C513 C 0.70782 0.96353 0.67786 0.0
O514 O 0.70494 0.99047 0.68634 0.0
N515 N 0.70948 0.04161 0.63611 0.0
C516 C 0.717 0.10341 0.62765 0.0
C517 C 0.73146 0.08132 0.61569 0.0
C518 C 0.72806 0.05068 0.62048 0.0
C519 C 0.69607 0.06287 0.64831 0.0
C520 C 0.69889 0.09387 0.64408 0.0
H521 H 0.74191 0.03453 0.61229 0.0
H522 H 0.68487 0.05592 0.66224 0.0
H523 H 0.77794 0.98078 0.63092 0.0
H524 H 0.80468 0.03644 0.6802 0.0
H525 H 0.61122 0.9516 0.62798 0.0
H526 H 0.74625 0.08767 0.60317 0.0
H527 H 0.68851 0.11022 0.65431 0.0
H528 H 0.43242 0.25565 0.09284 0.0
H529 H 0.41489 0.27628 0.05982 0.0
H530 H 0.4368 0.19111 0.03059 0.0
H531 H 0.45359 0.17059 0.06304 0.0
H532 H 0.45089 0.28413 0.02715 0.0
H533 H 0.35798 0.20928 1.00295 0.0
H534 H 0.37024 0.21146 0.02932 0.0
H535 H 0.38886 0.18614 0.01154 0.0
C536 C 0.43267 0.24121 0.07941 0.0
C537 C 0.44454 0.2116 0.08048 0.0
C538 C 0.42267 0.25297 0.06059 0.0
C539 C 0.4239 0.23505 0.04275 0.0
C540 C 0.43466 0.20514 0.04414 0.0
H541 H 0.48947 0.22336 0.93106 0.0
H542 H 0.4614 0.21955 0.96319 0.0
C543 C 0.44472 0.19355 0.06274 0.0
C544 C 0.41864 0.24814 0.0221 0.0
H545 H 0.39264 0.22636 0.97508 0.0
C546 C 0.43713 0.2724 0.01588 0.0
C547 C 0.40048 0.23308 0.00735 0.0
C548 C 0.37804 0.20877 0.01326 0.0
C549 C 0.44079 0.27939 0.99506 0.0
C550 C 0.42553 0.26169 0.98019 0.0
C551 C 0.40454 0.2397 0.98651 0.0
C552 C 0.43626 0.26124 0.95874 0.0
C553 C 0.46329 0.30358 0.98895 0.0
C554 C 0.4303 0.28525 0.94518 0.0
C555 C 0.44604 0.28717 0.92655 0.0
C556 C 0.46813 0.26533 0.92158 0.0
C557 C 0.47241 0.24033 0.93455 0.0
C558 C 0.45642 0.23817 0.95288 0.0
H559 H 0.47301 0.3156 1.0024 0.0
H560 H 0.48214 0.29316 0.9801 0.0
H561 H 0.45206 0.32052 0.97892 0.0
H562 H 0.41487 0.3033 0.94952 0.0
H563 H 0.44276 0.3069 0.9169 0.0
H564 H 0.22411 0.51429 0.43141 0.0
H565 H 0.24375 0.50004 0.46497 0.0
H566 H 0.22281 0.40605 0.45247 0.0
H567 H 0.20395 0.42042 0.41826 0.0
H568 H 0.20829 0.47515 0.49432 0.0
H569 H 0.30694 0.39984 0.47833 0.0
H570 H 0.29049 0.42404 0.45899 0.0
H571 H 0.2716 0.38964 0.46639 0.0
C572 C 0.22455 0.49047 0.43561 0.0
C573 C 0.21286 0.46837 0.4223 0.0
C574 C 0.23557 0.48236 0.45482 0.0
C575 C 0.23472 0.45199 0.46131 0.0
C576 C 0.22414 0.42956 0.4477 0.0
H577 H 0.25975 0.44022 0.59576 0.0
H578 H 0.23713 0.42865 0.56226 0.0
C579 C 0.21345 0.43771 0.42818 0.0
C580 C 0.24279 0.44497 0.4829 0.0
H581 H 0.2958 0.41 0.51287 0.0
C582 C 0.22722 0.46062 0.49843 0.0
C583 C 0.26737 0.42589 0.48821 0.0
C584 C 0.28529 0.40899 0.47216 0.0
C585 C 0.23668 0.45935 0.51892 0.0
C586 C 0.26191 0.44102 0.52421 0.0
C587 C 0.27638 0.42391 0.50883 0.0
C588 C 0.27636 0.443 0.54477 0.0
C589 C 0.22084 0.47935 0.5344 0.0
C590 C 0.30642 0.45322 0.54616 0.0
C591 C 0.31947 0.4593 0.56516 0.0
C592 C 0.30273 0.45551 0.58332 0.0
C593 C 0.27314 0.44366 0.58206 0.0
C594 C 0.26013 0.43724 0.56291 0.0
H595 H 0.2059 0.49645 0.52699 0.0
H596 H 0.20651 0.46507 0.5445 0.0
H597 H 0.23759 0.49154 0.54409 0.0
H598 H 0.31948 0.45778 0.53245 0.0
H599 H 0.34243 0.46808 0.56549 0.0
H600 H 0.05922 0.25616 0.90982 0.0
H601 H 0.07268 0.27497 0.94412 0.0
H602 H 0.06086 0.18469 0.96849 0.0
H603 H 0.04844 0.16586 0.93465 0.0
H604 H 0.0358 0.27576 0.97589 0.0
H605 H 0.13507 0.20855 0.99902 0.0
H606 H 0.12308 0.21096 0.97263 0.0
H607 H 0.1065 0.18322 0.98962 0.0
C608 C 0.06038 0.24025 0.92243 0.0
C609 C 0.05265 0.20955 0.91952 0.0
C610 C 0.06802 0.25101 0.94202 0.0
C611 C 0.06837 0.23117 0.95892 0.0
C612 C 0.06175 0.20035 0.95573 0.0
H613 H 0.00389 0.2178 0.07431 0.0
H614 H 0.02905 0.21321 0.0411 0.0
C615 C 0.05421 0.18966 0.93631 0.0
C616 C 0.07127 0.24269 0.98027 0.0
H617 H 0.09963 0.22222 0.02699 0.0
C618 C 0.05058 0.26487 0.98695 0.0
C619 C 0.09065 0.2287 0.99481 0.0
C620 C 0.11528 0.20679 0.98854 0.0
C621 C 0.04669 0.27115 0.00786 0.0
C622 C 0.06387 0.25481 0.02245 0.0
C623 C 0.08631 0.23453 0.01576 0.0
C624 C 0.05484 0.25473 0.04427 0.0
C625 C 0.02251 0.2934 0.0144 0.0
C626 C 0.06215 0.27892 0.05743 0.0
C627 C 0.04815 0.28127 0.07667 0.0
C628 C 0.02643 0.25968 0.0827 0.0
C629 C 0.02079 0.23453 0.07005 0.0
C630 C 0.03507 0.23194 0.05108 0.0
H631 H 0.01163 0.30489 1.00116 0.0
H632 H 0.00471 0.28136 0.02328 0.0
H633 H 0.03256 0.31095 0.02456 0.0
H634 H 0.07723 0.2968 0.05233 0.0
H635 H 0.05236 0.30117 0.08601 0.0
H636 H 0.22022 0.05613 0.41702 0.0
H637 H 0.20983 0.08182 0.44976 0.0
H638 H 0.3006 0.06035 0.4701 0.0
H639 H 0.31097 0.03583 0.43746 0.0
H640 H 0.20746 0.05118 0.4831 0.0
H641 H 0.29197 0.13985 0.49756 0.0
H642 H 0.28496 0.1255 0.47207 0.0
H643 H 0.31187 0.10691 0.48877 0.0
C644 C 0.23826 0.05836 0.4282 0.0
C645 C 0.26648 0.04451 0.42481 0.0
C646 C 0.23234 0.07287 0.4469 0.0
C647 C 0.25455 0.07352 0.46241 0.0
C648 C 0.28336 0.06124 0.4583 0.0
H649 H 0.28413 0.01534 0.57471 0.0
H650 H 0.2845 0.04266 0.54224 0.0
C651 C 0.28926 0.04696 0.43967 0.0
C652 C 0.24636 0.08083 0.48396 0.0
H653 H 0.27847 0.1079 0.52793 0.0
C654 C 0.22221 0.06466 0.49281 0.0
C655 C 0.26534 0.0986 0.49674 0.0
C656 C 0.28974 0.11892 0.48816 0.0
C657 C 0.21887 0.06278 0.51412 0.0
C658 C 0.24017 0.07757 0.5269 0.0
C659 C 0.26234 0.09633 0.5181 0.0
C660 C 0.24363 0.06825 0.54855 0.0
C661 C 0.19446 0.04248 0.52283 0.0
C662 C 0.22137 0.07482 0.56331 0.0
C663 C 0.22134 0.05936 0.58209 0.0
C664 C 0.24335 0.03701 0.58606 0.0
C665 C 0.26693 0.03246 0.57196 0.0
C666 C 0.26719 0.04811 0.55344 0.0
H667 H 0.18045 0.03165 0.51071 0.0
H668 H 0.20488 0.02432 0.5323 0.0
H669 H 0.17926 0.05598 0.53287 0.0
H670 H 0.20301 0.09032 0.55979 0.0
H671 H 0.20275 0.06301 0.59266 0.0
H672 H 0.51808 0.82671 0.93403 0.0
H673 H 0.53058 0.80611 0.96723 0.0
H674 H 0.58928 0.73979 0.93889 0.0
H675 H 0.57529 0.7596 0.90495 0.0
H676 H 0.55824 0.71298 0.96598 0.0
H677 H 0.59973 0.8155 0.00429 0.0
H678 H 0.56325 0.82455 0.99398 0.0
H679 H 0.59397 0.8144 0.97695 0.0
C680 C 0.53404 0.80801 0.93472 0.0
C681 C 0.54586 0.79494 0.91676 0.0
C682 C 0.5415 0.79644 0.95388 0.0
C683 C 0.56175 0.77201 0.9558 0.0
C684 C 0.57393 0.75895 0.93789 0.0
H685 H 0.57329 0.72475 0.08731 0.0
H686 H 0.59143 0.74087 0.05334 0.0
C687 C 0.56595 0.77025 0.91851 0.0
C688 C 0.56722 0.7586 0.97643 0.0
H689 H 0.57267 0.77912 0.02673 0.0
C690 C 0.56221 0.72738 0.97919 0.0
C691 C 0.57359 0.77685 0.99382 0.0
C692 C 0.58331 0.80959 0.992 0.0
C693 C 0.56037 0.71465 0.99885 0.0
C694 C 0.56211 0.73388 0.01624 0.0
C695 C 0.57024 0.76443 0.01349 0.0
C696 C 0.55231 0.72354 0.03693 0.0
C697 C 0.55592 0.68078 1.00066 0.0
C698 C 0.52402 0.70929 0.03917 0.0
C699 C 0.51402 0.6997 0.05831 0.0
C700 C 0.53159 0.70494 0.07591 0.0
C701 C 0.55938 0.72033 0.07396 0.0
C702 C 0.56975 0.72943 0.05457 0.0
H703 H 0.56791 0.66868 0.9881 0.0
H704 H 0.56434 0.67194 0.01552 0.0
H705 H 0.53141 0.67539 0.99919 0.0
H706 H 0.50936 0.70577 0.02607 0.0
H707 H 0.49219 0.68849 0.05934 0.0
H708 H 0.65057 0.54646 0.43956 0.0
H709 H 0.66949 0.55908 0.47358 0.0
H710 H 0.76116 0.55964 0.45042 0.0
H711 H 0.74217 0.54749 0.41603 0.0
H712 H 0.70625 0.52136 0.49469 0.0
H713 H 0.76112 0.63413 0.48754 0.0
H714 H 0.73508 0.61952 0.46858 0.0
H715 H 0.77391 0.60692 0.46895 0.0
C716 C 0.67474 0.54985 0.44159 0.0
C717 C 0.69492 0.54581 0.42514 0.0
C718 C 0.6855 0.55712 0.46106 0.0
C719 C 0.71671 0.56047 0.4646 0.0
C720 C 0.73692 0.55777 0.44801 0.0
H721 H 0.83607 0.55052 0.56601 0.0
H722 H 0.81056 0.56146 0.53378 0.0
C723 C 0.72607 0.55071 0.42837 0.0
C724 C 0.728 0.56317 0.48597 0.0
H725 H 0.77227 0.60584 0.51792 0.0
C726 C 0.72032 0.54008 0.49985 0.0
C727 C 0.74642 0.58755 0.49268 0.0
C728 C 0.75442 0.61361 0.47873 0.0
C729 C 0.73143 0.54002 0.51998 0.0
C730 C 0.75032 0.56409 0.52662 0.0
C731 C 0.75753 0.58757 0.51288 0.0
C732 C 0.76555 0.56322 0.54691 0.0
C733 C 0.72405 0.51334 0.53362 0.0
C734 C 0.74887 0.56203 0.56527 0.0
C735 C 0.76349 0.55564 0.58387 0.0
C736 C 0.79495 0.5504 0.58429 0.0
C737 C 0.81173 0.55408 0.56615 0.0
C738 C 0.7972 0.56046 0.54768 0.0
H739 H 0.71427 0.494 0.52489 0.0
H740 H 0.74468 0.50526 0.54174 0.0
H741 H 0.70719 0.52046 0.54529 0.0
H742 H 0.72444 0.56466 0.56506 0.0
H743 H 0.74996 0.553 0.59759 0.0
H744 H 0.96725 0.82893 0.076 0.0
H745 H 0.94983 0.81018 0.04314 0.0
H746 H 0.93592 0.72121 0.06911 0.0
H747 H 0.95415 0.73995 0.10244 0.0
H748 H 0.96932 0.71867 0.0349 0.0
H749 H 0.86969 0.78952 0.01801 0.0
H750 H 0.90048 0.81344 0.02577 0.0
H751 H 0.88503 0.7862 0.04356 0.0
C752 C 0.96005 0.80545 0.07492 0.0
C753 C 0.96226 0.78589 0.09185 0.0
C754 C 0.94966 0.79484 0.05609 0.0
C755 C 0.94089 0.76442 0.05366 0.0
C756 C 0.94218 0.74489 0.07068 0.0
H757 H 0.94609 0.69194 0.92739 0.0
H758 H 0.92393 0.69544 0.96192 0.0
C759 C 0.95257 0.7556 0.0897 0.0
C760 C 0.93449 0.75281 0.0327 0.0
H761 H 0.90018 0.77409 0.98803 0.0
C762 C 0.95341 0.72999 0.02478 0.0
C763 C 0.91359 0.7674 0.01947 0.0
C764 C 0.89085 0.79026 0.02726 0.0
C765 C 0.95422 0.72364 0.00371 0.0
C766 C 0.93546 0.74044 0.99025 0.0
C767 C 0.91467 0.76137 0.99835 0.0
C768 C 0.94138 0.74053 0.96791 0.0
C769 C 0.97703 0.7009 0.99577 0.0
C770 C 0.95698 0.76533 0.9595 0.0
C771 C 0.9696 0.76331 0.93997 0.0
C772 C 0.96637 0.73669 0.92836 0.0
C773 C 0.9483 0.71294 0.93593 0.0
C774 C 0.93594 0.7148 0.95569 0.0
H775 H 0.99126 0.69117 0.00818 0.0
H776 H 0.96495 0.68202 0.98799 0.0
H777 H 0.99215 0.71181 0.98434 0.0
H778 H 0.96151 0.78534 0.96869 0.0
H779 H 0.98381 0.78171 0.93453 0.0
H780 H 0.816 0.01753 0.43792 0.0
H781 H 0.80002 1.00032 0.47138 0.0
H782 H 0.75062 0.92626 0.44371 0.0
H783 H 0.76578 0.94445 0.40954 0.0
H784 H 0.71784 0.94996 0.47232 0.0
H785 H 0.83024 0.93402 0.50648 0.0
H786 H 0.82918 0.97162 0.49616 0.0
H787 H 0.82543 0.9393 0.47927 0.0
C788 C 0.80197 0.99736 0.43883 0.0
C789 C 0.79241 0.98216 0.42103 0.0
C790 C 0.79312 0.9873 0.4581 0.0
C791 C 0.77508 0.96125 0.46025 0.0
C792 C 0.76503 0.94611 0.44249 0.0
H793 H 0.74345 0.94286 0.59327 0.0
H794 H 0.75891 0.9255 0.55893 0.0
C795 C 0.77359 0.95654 0.42299 0.0
C796 C 0.76498 0.95204 0.48109 0.0
H797 H 0.79024 0.95122 0.5305 0.0
C798 C 0.73377 0.94937 0.48497 0.0
C799 C 0.78557 0.94992 0.49772 0.0
C800 C 0.81947 0.94848 0.49459 0.0
C801 C 0.72258 0.94814 0.50508 0.0
C802 C 0.74305 0.95096 0.52174 0.0
C803 C 0.77435 0.95006 0.51783 0.0
C804 C 0.73251 0.9593 0.54267 0.0
C805 C 0.68882 0.94482 0.50818 0.0
C806 C 0.71316 0.98435 0.54502 0.0
C807 C 0.70415 0.99393 0.56438 0.0
C808 C 0.71481 0.97925 0.58208 0.0
C809 C 0.73476 0.95452 0.5799 0.0
C810 C 0.7435 0.94457 0.56031 0.0
H811 H 0.67886 0.92996 0.49617 0.0
H812 H 0.68335 0.93511 0.52342 0.0
H813 H 0.67785 0.96742 0.50677 0.0
H814 H 0.70544 0.99709 0.53184 0.0
H815 H 0.6892 0.01342 0.56541 0.0
H816 H 0.51098 0.83411 0.17528 0.0
H817 H 0.51301 0.88852 0.16772 0.0
H818 H 0.51347 0.8688 0.10309 0.0
H819 H 0.51145 0.81405 0.11061 0.0
H820 H 0.55733 0.92459 0.13615 0.0
H821 H 0.43257 0.92186 0.12166 0.0
H822 H 0.4506 0.89436 0.13817 0.0
H823 H 0.45647 0.89253 0.11107 0.0
C824 C 0.51189 0.84135 0.15947 0.0
C825 C 0.51077 0.8199 0.14352 0.0
C826 C 0.51325 0.87238 0.15519 0.0
C827 C 0.51331 0.88255 0.13488 0.0
C828 C 0.51355 0.86126 0.11887 0.0
H829 H 0.46138 0.06441 0.09639 0.0
H830 H 0.47611 0.01083 0.09622 0.0
C831 C 0.51249 0.83008 0.12316 0.0
C832 C 0.51006 0.9154 0.1307 0.0
H833 H 0.45633 0.9694 0.12144 0.0
C834 C 0.53537 0.93449 0.1327 0.0
C835 C 0.48138 0.92806 0.12623 0.0
C836 C 0.45354 0.90833 0.12417 0.0
C837 C 0.53265 0.96617 0.13045 0.0
C838 C 0.50367 0.97901 0.12669 0.0
C839 C 0.47854 0.95966 0.1243 0.0
C840 C 0.49837 0.01237 0.12576 0.0
C841 C 0.56087 0.98543 0.13193 0.0
C842 C 0.50634 0.03131 0.14226 0.0
C843 C 0.49823 0.06208 0.14222 0.0
C844 C 0.48143 0.07427 0.12591 0.0
C845 C 0.47409 0.05549 0.10923 0.0
C846 C 0.48256 0.02491 0.10912 0.0
H847 H 0.58149 0.97217 0.1279 0.0
H848 H 0.5595 0.00553 0.12171 0.0
H849 H 0.56357 0.99351 0.14792 0.0
H850 H 0.51775 0.02209 0.15555 0.0
H851 H 0.50379 0.07597 0.15538 0.0
H852 H 0.69351 0.51227 0.62176 0.0
H853 H 0.63835 0.51118 0.61651 0.0
H854 H 0.62483 0.50453 0.68172 0.0
H855 H 0.67964 0.50573 0.68705 0.0
H856 H 0.5961 0.45887 0.65909 0.0
H857 H 0.57006 0.57362 0.62822 0.0
H858 H 0.60037 0.55348 0.61571 0.0
H859 H 0.60476 0.56526 0.64185 0.0
C860 C 0.67873 0.51126 0.63498 0.0
C861 C 0.69091 0.50879 0.65481 0.0
C862 C 0.64724 0.51066 0.63196 0.0
C863 C 0.62753 0.50789 0.64875 0.0
C864 C 0.63965 0.50662 0.66857 0.0
H865 H 0.43168 0.51295 0.65996 0.0
H866 H 0.48612 0.52405 0.66093 0.0
C867 C 0.67098 0.50714 0.67157 0.0
C868 C 0.59447 0.50356 0.64578 0.0
H869 H 0.52972 0.53791 0.62866 0.0
C870 C 0.58158 0.47614 0.65242 0.0
C871 C 0.57563 0.52623 0.63721 0.0
C872 C 0.58824 0.55644 0.63046 0.0
C873 C 0.55035 0.47072 0.65073 0.0
C874 C 0.53152 0.49316 0.64186 0.0
C875 C 0.54431 0.52069 0.6353 0.0
C876 C 0.49841 0.48838 0.63971 0.0
C877 C 0.53764 0.44123 0.65882 0.0
C878 C 0.4873 0.46515 0.62707 0.0
C879 C 0.45627 0.45877 0.62647 0.0
C880 C 0.4357 0.4756 0.63843 0.0
C881 C 0.44683 0.49967 0.65047 0.0
C882 C 0.47793 0.50602 0.65108 0.0
H883 H 0.55383 0.42959 0.66923 0.0
H884 H 0.51606 0.44519 0.6672 0.0
H885 H 0.53281 0.42578 0.64579 0.0
H886 H 0.50272 0.45162 0.61792 0.0
H887 H 0.44841 0.44055 0.61669 0.0
H888 H 0.02565 0.41237 0.15181 0.0
H889 H 0.02714 0.46755 0.15763 0.0
H890 H 0.95768 0.48013 0.11196 0.0
H891 H 0.956 0.42524 0.10611 0.0
H892 H 0.03518 0.51419 0.12022 0.0
H893 H 0.93194 0.52658 0.16879 0.0
H894 H 0.95406 0.49198 0.16845 0.0
H895 H 0.93066 0.5015 0.14696 0.0
C896 C 0.0105 0.4269 0.14319 0.0
C897 C 0.99084 0.41449 0.12843 0.0
C898 C 0.01145 0.45834 0.14646 0.0
C899 C 0.99245 0.47776 0.13524 0.0
C900 C 0.97244 0.46545 0.12078 0.0
H901 H 0.96241 0.67408 0.14106 0.0
H902 H 0.95796 0.61971 0.13346 0.0
C903 C 0.97168 0.43412 0.11737 0.0
C904 C 0.99424 0.51107 0.138 0.0
H905 H 0.95785 0.57145 0.15979 0.0
C906 C 0.01837 0.52678 0.1289 0.0
C907 C 0.97194 0.5273 0.14902 0.0
C908 C 0.94564 0.51116 0.15899 0.0
C909 C 0.02083 0.55849 0.13056 0.0
C910 C 0.99899 0.57478 0.14211 0.0
C911 C 0.97459 0.559 0.15096 0.0
C912 C 0.00189 0.60792 0.14599 0.0
C913 C 0.04652 0.57425 0.11959 0.0
C914 C 0.02792 0.61935 0.15563 0.0
C915 C 0.03067 0.65032 0.15975 0.0
C916 C 0.00721 0.67071 0.15466 0.0
C917 C 0.98105 0.6592 0.14501 0.0
C918 C 0.97838 0.62808 0.14078 0.0
H919 H 0.05478 0.5606 0.1064 0.0
H920 H 0.03952 0.59698 0.11393 0.0
H921 H 0.06581 0.57725 0.13033 0.0
H922 H 0.04608 0.60422 0.16021 0.0
H923 H 0.05135 0.65819 0.16692 0.0
H924 H 0.84696 0.00205 0.68204 0.0
H925 H 0.90132 0.99749 0.67537 0.0
H926 H 0.88353 0.99195 0.61058 0.0
H927 H 0.82877 0.99694 0.6172 0.0
H928 H 0.93508 0.95122 0.65406 0.0
H929 H 0.94343 0.06474 0.61709 0.0
H930 H 0.91119 0.05371 0.63244 0.0
H931 H 0.91534 0.03923 0.6069 0.0
C932 C 0.85458 0.99985 0.66636 0.0
C933 C 0.83358 1.00022 0.65012 0.0
C934 C 0.88565 0.99708 0.66259 0.0
C935 C 0.89652 0.99485 0.64248 0.0
C936 C 0.87563 0.99408 0.62621 0.0
H937 H 0.08102 0.99944 0.59525 0.0
H938 H 0.02613 0.99817 0.59949 0.0
C939 C 0.84437 0.99665 0.63 0.0
C940 C 0.92979 0.99417 0.63878 0.0
H941 H 0.98841 0.03609 0.61949 0.0
C942 C 0.94677 0.96969 0.64643 0.0
C943 C 0.94498 0.01835 0.62888 0.0
C944 C 0.92796 0.04567 0.62095 0.0
C945 C 0.97852 0.96862 0.64431 0.0
C946 C 0.99382 0.99309 0.63474 0.0
C947 C 0.97674 0.01741 0.6269 0.0
C948 C 0.02745 0.99378 0.63245 0.0
C949 C 0.99528 0.941 0.65201 0.0
C950 C 0.04667 0.99227 0.64959 0.0
C951 C 0.0783 0.99262 0.64721 0.0
C952 C 0.0914 0.99474 0.6276 0.0
C953 C 0.07196 0.99709 0.61054 0.0
C954 C 0.04043 0.99661 0.61294 0.0
H955 H 0.97998 0.92106 0.65347 0.0
H956 H 0.01432 0.93489 0.64167 0.0
H957 H 0.00477 0.94595 0.66739 0.0
H958 H 0.03723 0.99085 0.66486 0.0
H959 H 0.09238 0.99071 0.6607 0.0
H960 H 0.46014 0.66624 0.84287 0.0
H961 H 0.46327 0.61231 0.85018 0.0
H962 H 0.55151 0.62514 0.8774 0.0
H963 H 0.54918 0.67955 0.86919 0.0
H964 H 0.55027 0.57605 0.8517 0.0
H965 H 0.45221 0.5704 0.90429 0.0
H966 H 0.44198 0.58698 0.88021 0.0
H967 H 0.46896 0.60596 0.89653 0.0
C968 C 0.4804 0.65778 0.85028 0.0
C969 C 0.50455 0.6774 0.85527 0.0
C970 C 0.48192 0.62684 0.85474 0.0
C971 C 0.50737 0.61467 0.86465 0.0
C972 C 0.53153 0.63409 0.86985 0.0
H973 H 0.50451 0.43082 0.9129 0.0
H974 H 0.50654 0.48551 0.90835 0.0
C975 C 0.53008 0.66521 0.86529 0.0
C976 C 0.50887 0.58148 0.86882 0.0
H977 H 0.46908 0.52302 0.89022 0.0
C978 C 0.53271 0.56446 0.86031 0.0
C979 C 0.48616 0.56637 0.88026 0.0
C980 C 0.46108 0.58343 0.89102 0.0
C981 C 0.53397 0.53268 0.86242 0.0
C982 C 0.51032 0.51741 0.87291 0.0
C983 C 0.48697 0.53458 0.88189 0.0
C984 C 0.5097 0.48377 0.87533 0.0
C985 C 0.56086 0.5159 0.85366 0.0
C986 C 0.51034 0.46431 0.85826 0.0
C987 C 0.50973 0.43269 0.86083 0.0
C988 C 0.50806 0.41984 0.88053 0.0
C989 C 0.50653 0.43957 0.89751 0.0
C990 C 0.50744 0.47104 0.89493 0.0
H991 H 0.58073 0.53116 0.85168 0.0
H992 H 0.56763 0.49662 0.86361 0.0
H993 H 0.55476 0.50676 0.83837 0.0
H994 H 0.51122 0.47354 0.84292 0.0
H995 H 0.51097 0.41844 0.84736 0.0
H996 H 0.82364 0.46497 0.34516 0.0
H997 H 0.87718 0.46934 0.35295 0.0
H998 H 0.86004 0.55093 0.38764 0.0
H999 H 0.806 0.54767 0.37895 0.0
H1000 H 0.91018 0.55664 0.3634 0.0
H1001 H 0.91726 0.44904 0.40642 0.0
H1002 H 0.90162 0.44281 0.38145 0.0
H1003 H 0.88144 0.46614 0.3996 0.0
C1004 C 0.83098 0.48411 0.35427 0.0
C1005 C 0.81017 0.50604 0.36133 0.0
C1006 C 0.86176 0.4863 0.35898 0.0
C1007 C 0.8726 0.51008 0.37124 0.0
C1008 C 0.85212 0.5322 0.37829 0.0
H1009 H 0.05957 0.48637 0.41234 0.0
H1010 H 0.00513 0.49757 0.4126 0.0
C1011 C 0.82116 0.53017 0.37343 0.0
C1012 C 0.90549 0.51179 0.37616 0.0
H1013 H 0.96442 0.46843 0.39321 0.0
C1014 C 0.92204 0.53758 0.37023 0.0
C1015 C 0.92092 0.48722 0.38547 0.0
C1016 C 0.9043 0.45991 0.3938 0.0
C1017 C 0.9538 0.53878 0.37239 0.0
C1018 C 0.96947 0.51314 0.38015 0.0
C1019 C 0.95264 0.488 0.387 0.0
C1020 C 0.00321 0.51107 0.38074 0.0
C1021 C 0.9701 0.56754 0.36637 0.0
C1022 C 0.02057 0.51555 0.36292 0.0
C1023 C 0.05183 0.50977 0.36294 0.0
C1024 C 0.06609 0.49861 0.38061 0.0
C1025 C 0.04896 0.49486 0.39853 0.0
C1026 C 0.0179 0.50125 0.39865 0.0
H1027 H 0.9551 0.58768 0.36806 0.0
H1028 H 0.99082 0.57116 0.37574 0.0
H1029 H 0.9768 0.56603 0.35003 0.0
H1030 H 0.00978 0.52217 0.34872 0.0
H1031 H 0.06453 0.51234 0.34886 0.0
H1032 H 0.0621 0.06379 0.88158 0.0
H1033 H 0.04859 0.01012 0.8796 0.0
H1034 H 0.97113 0.03225 0.8422 0.0
H1035 H 0.9848 0.08614 0.84369 0.0
H1036 H 0.96135 0.98712 0.87613 0.0
H1037 H 0.05834 0.96069 0.82467 0.0
H1038 H 0.0676 0.98168 0.84746 0.0
H1039 H 0.04411 0.99882 0.82821 0.0
C1040 C 0.04228 0.05739 0.87281 0.0
C1041 C 0.0248 0.07945 0.86258 0.0
C1042 C 0.0345 0.02664 0.87181 0.0
C1043 C 0.00905 0.01721 0.8606 0.0
C1044 C 0.99088 0.03911 0.85094 0.0
H1045 H 0.98034 0.833 0.81763 0.0
H1046 H 0.98124 0.88832 0.82099 0.0
C1047 C 0.99871 0.06995 0.85187 0.0
C1048 C 0.00232 0.98436 0.8583 0.0
H1049 H 0.03052 0.91899 0.83757 0.0
C1050 C 0.97634 0.97218 0.86764 0.0
C1051 C 0.02179 0.96504 0.84704 0.0
C1052 C 0.04942 0.97713 0.83611 0.0
C1053 C 0.9697 0.94094 0.86638 0.0
C1054 C 0.98966 0.92149 0.85558 0.0
C1055 C 0.01529 0.93388 0.84592 0.0
C1056 C 0.98474 0.88816 0.85402 0.0
C1057 C 0.94129 0.92903 0.87641 0.0
C1058 C 0.98577 0.86963 0.8715 0.0
C1059 C 0.98531 0.83791 0.8696 0.0
C1060 C 0.98408 0.82417 0.85015 0.0
C1061 C 0.98165 0.84287 0.83279 0.0
C1062 C 0.98208 0.87449 0.83469 0.0
H1063 H 0.92479 0.94752 0.87964 0.0
H1064 H 0.93013 0.91168 0.86662 0.0
H1065 H 0.94737 0.91813 0.89116 0.0
H1066 H 0.98839 0.87964 0.88655 0.0
H1067 H 0.98765 0.82421 0.88326 0.0
H1068 H 0.42747 0.96776 0.40235 0.0
H1069 H 0.48244 0.9689 0.39739 0.0
H1070 H 0.47225 0.04048 0.35294 0.0
H1071 H 0.41704 0.03976 0.35804 0.0
H1072 H 0.51648 0.96105 0.35955 0.0
H1073 H 0.53437 0.07382 0.39599 0.0
H1074 H 0.50027 0.05178 0.39983 0.0
H1075 H 0.50572 0.07231 0.37639 0.0
C1076 C 0.43688 0.98393 0.39163 0.0
C1077 C 0.41785 0.00391 0.38075 0.0
C1078 C 0.46831 0.98439 0.38871 0.0
C1079 C 0.48145 0.00501 0.37501 0.0
C1080 C 0.46257 0.02464 0.3638 0.0
H1081 H 0.66223 0.05311 0.33822 0.0
H1082 H 0.60823 0.04897 0.3451 0.0
C1083 C 0.43103 0.02405 0.3666 0.0
C1084 C 0.51494 0.00595 0.37253 0.0
H1085 H 0.57699 0.05096 0.38031 0.0
C1086 C 0.5298 0.98063 0.36414 0.0
C1087 C 0.53218 0.03148 0.37862 0.0
C1088 C 0.51747 0.05886 0.38837 0.0
C1089 C 0.56141 0.98051 0.36109 0.0
C1090 C 0.57871 0.00614 0.36709 0.0
C1091 C 0.56379 0.03129 0.37576 0.0
C1092 C 0.61199 0.00822 0.36339 0.0
C1093 C 0.57579 0.95338 0.35081 0.0
C1094 C 0.63242 0.98695 0.37167 0.0
C1095 C 0.6636 0.989 0.36749 0.0
C1096 C 0.67495 0.01248 0.35505 0.0
C1097 C 0.65443 0.03424 0.3474 0.0
C1098 C 0.62342 0.03209 0.35149 0.0
H1099 H 0.55873 0.93926 0.34265 0.0
H1100 H 0.5934 0.9606 0.33968 0.0
H1101 H 0.58681 0.93894 0.36257 0.0
H1102 H 0.62425 0.96873 0.38133 0.0
H1103 H 0.67868 0.97191 0.37367 0.0
H1104 H 0.48801 0.18054 0.87642 0.0
H1105 H 0.48738 0.12509 0.87955 0.0
H1106 H 0.48876 0.11662 0.81383 0.0
H1107 H 0.48908 0.17199 0.81056 0.0
H1108 H 0.44863 0.07635 0.86186 0.0
H1109 H 0.56836 0.07491 0.83488 0.0
H1110 H 0.54993 0.10913 0.84372 0.0
H1111 H 0.54189 0.0945 0.81862 0.0
C1112 C 0.48737 0.16693 0.86262 0.0
C1113 C 0.48895 0.18072 0.84322 0.0
C1114 C 0.48714 0.13522 0.86445 0.0
C1115 C 0.4885 0.1168 0.84692 0.0
C1116 C 0.48815 0.13046 0.82754 0.0
H1117 H 0.48439 0.91839 0.83698 0.0
H1118 H 0.47145 0.97246 0.8348 0.0
C1119 C 0.4884 0.16209 0.82571 0.0
C1120 C 0.49294 0.08351 0.84887 0.0
H1121 H 0.54508 0.02746 0.84053 0.0
C1122 C 0.46965 0.06558 0.85718 0.0
C1123 C 0.52054 0.06964 0.84296 0.0
C1124 C 0.54677 0.08797 0.83469 0.0
C1125 C 0.47321 0.03398 0.85953 0.0
C1126 C 0.50069 0.0201 0.85334 0.0
C1127 C 0.52397 0.03813 0.84515 0.0
C1128 C 0.50649 0.98707 0.85583 0.0
C1129 C 0.44789 0.01577 0.86903 0.0
C1130 C 0.53046 0.97734 0.86833 0.0
C1131 C 0.53789 0.94656 0.8696 0.0
C1132 C 0.52166 0.92473 0.85827 0.0
C1133 C 0.49716 0.93448 0.84608 0.0
C1134 C 0.48971 0.96539 0.84482 0.0
H1135 H 0.43096 0.03054 0.87678 0.0
H1136 H 0.43603 0.00273 0.85688 0.0
H1137 H 0.45703 0.99929 0.88032 0.0
H1138 H 0.54369 0.99367 0.87697 0.0
H1139 H 0.5565 0.9399 0.87943 0.0
H1140 H 0.31729 0.51654 0.31667 0.0
H1141 H 0.37179 0.51779 0.3217 0.0
H1142 H 0.36145 0.47351 0.38009 0.0
H1143 H 0.30672 0.47063 0.37478 0.0
H1144 H 0.40267 0.5468 0.3505 0.0
H1145 H 0.42908 0.42385 0.35522 0.0
H1146 H 0.39287 0.43787 0.34641 0.0
H1147 H 0.40099 0.43599 0.37337 0.0
C1148 C 0.32634 0.50642 0.33044 0.0
C1149 C 0.30714 0.4933 0.34524 0.0
C1150 C 0.35772 0.50739 0.33334 0.0
C1151 C 0.37087 0.4954 0.35114 0.0
C1152 C 0.35195 0.48233 0.36601 0.0
H1153 H 0.54984 0.54979 0.39334 0.0
H1154 H 0.49554 0.53975 0.38973 0.0
C1155 C 0.32047 0.4811 0.36305 0.0
C1156 C 0.40416 0.49826 0.35444 0.0
H1157 H 0.46903 0.45798 0.36394 0.0
C1158 C 0.41715 0.52733 0.35339 0.0
C1159 C 0.42317 0.47283 0.35794 0.0
C1160 C 0.41091 0.44084 0.35811 0.0
C1161 C 0.44847 0.53177 0.35586 0.0
C1162 C 0.46734 0.50651 0.3601 0.0
C1163 C 0.45449 0.47735 0.36093 0.0
C1164 C 0.5005 0.51011 0.3635 0.0
C1165 C 0.46108 0.56345 0.35343 0.0
C1166 C 0.52151 0.49558 0.3506 0.0
C1167 C 0.55268 0.50105 0.3528 0.0
C1168 C 0.5633 0.52124 0.36787 0.0
C1169 C 0.54227 0.53465 0.38131 0.0
C1170 C 0.51124 0.52896 0.37924 0.0
H1171 H 0.44544 0.57828 0.34459 0.0
H1172 H 0.46419 0.57381 0.36878 0.0
H1173 H 0.48343 0.56307 0.34557 0.0
H1174 H 0.51374 0.48079 0.33842 0.0
H1175 H 0.56833 0.49048 0.3422 0.0
H1176 H 0.02078 0.32233 0.88796 0.0
H1177 H 0.02192 0.37731 0.89491 0.0
H1178 H 0.01044 0.39528 0.83049 0.0
H1179 H 0.00868 0.34076 0.82364 0.0
H1180 H 0.05764 0.42474 0.88165 0.0
H1181 H 0.9396 0.44122 0.85461 0.0
H1182 H 0.95553 0.40406 0.8591 0.0
H1183 H 0.96339 0.42394 0.83562 0.0
C1184 C 0.01885 0.33811 0.87533 0.0
C1185 C 0.01416 0.32735 0.85532 0.0
C1186 C 0.01938 0.36946 0.87929 0.0
C1187 C 0.01536 0.39044 0.86328 0.0
C1188 C 0.01254 0.3796 0.84317 0.0
H1189 H 0.01104 0.58685 0.85093 0.0
H1190 H 0.013 0.53192 0.84539 0.0
C1191 C 0.01168 0.34844 0.83926 0.0
C1192 C 0.01355 0.42363 0.86746 0.0
H1193 H 0.9687 0.48612 0.86009 0.0
C1194 C 0.03811 0.43812 0.87708 0.0
C1195 C 0.98797 0.44112 0.86156 0.0
C1196 C 0.96 0.42676 0.85234 0.0
C1197 C 0.0381 0.46969 0.88046 0.0
C1198 C 0.01282 0.48716 0.87416 0.0
C1199 C 0.98817 0.47269 0.86472 0.0
C1200 C 0.01128 0.52046 0.87754 0.0
C1201 C 0.06537 0.4843 0.89037 0.0
C1202 C 0.00899 0.53219 0.89742 0.0
C1203 C 0.00745 0.56355 0.90066 0.0
C1204 C 0.00829 0.58399 0.88407 0.0
C1205 C 0.01008 0.57202 0.8641 0.0
C1206 C 0.01142 0.54057 0.86088 0.0
H1207 H 0.08528 0.46881 0.89065 0.0
H1208 H 0.07172 0.50546 0.88219 0.0
H1209 H 0.05968 0.49047 0.90639 0.0
H1210 H 0.00821 0.51703 0.91047 0.0
H1211 H 0.0054 0.57168 0.91622 0.0
H1212 H 0.91582 0.03911 0.33792 0.0
H1213 H 0.96991 0.05118 0.33369 0.0
H1214 H 0.99218 0.99019 0.38299 0.0
H1215 H 0.93845 0.9785 0.38762 0.0
H1216 H 0.01942 0.06747 0.37159 0.0
H1217 H 0.03521 0.96463 0.32292 0.0
H1218 H 0.99952 0.98481 0.32403 0.0
H1219 H 0.01125 0.96179 0.34521 0.0
C1220 C 0.93215 0.02873 0.34812 0.0
C1221 C 0.92277 0.00756 0.36297 0.0
C1222 C 0.96303 0.03558 0.34564 0.0
C1223 C 0.98492 0.02144 0.35799 0.0
C1224 C 0.97558 1.00124 0.37328 0.0
H1225 H 0.17785 0.02759 0.37877 0.0
H1226 H 0.12266 0.03178 0.38148 0.0
C1227 C 0.94486 0.99441 0.37578 0.0
C1228 C 0.01774 0.02597 0.35422 0.0
H1229 H 0.07925 0.99116 0.33283 0.0
C1230 C 0.03255 0.05102 0.36296 0.0
C1231 C 0.03465 0.00448 0.34291 0.0
C1232 C 0.01952 0.9774 0.33309 0.0
C1233 C 0.06416 0.05477 0.36103 0.0
C1234 C 0.08128 0.03266 0.35029 0.0
C1235 C 0.06618 0.00808 0.34109 0.0
C1236 C 0.11493 0.03388 0.34879 0.0
C1237 C 0.07892 0.08236 0.37043 0.0
C1238 C 0.12905 0.03369 0.32954 0.0
C1239 C 0.1606 0.03124 0.32795 0.0
C1240 C 0.17878 0.0287 0.34558 0.0
C1241 C 0.16466 0.02995 0.36489 0.0
C1242 C 0.13305 0.03237 0.36647 0.0
H1243 H 0.06228 0.10098 0.37286 0.0
H1244 H 0.08855 0.07613 0.38555 0.0
H1245 H 0.09768 0.0909 0.36065 0.0
H1246 H 0.11556 0.03479 0.3157 0.0
H1247 H 0.17074 0.03073 0.31287 0.0
H1248 H 0.4924 0.31452 0.12384 0.0
H1249 H 0.49516 0.36968 0.1188 0.0
H1250 H 0.45701 0.38377 0.17886 0.0
H1251 H 0.45474 0.32885 0.18406 0.0
H1252 H 0.45274 0.41509 0.11894 0.0
H1253 H 0.53424 0.43266 0.18258 0.0
H1254 H 0.52501 0.39543 0.17286 0.0
H1255 H 0.49987 0.41427 0.19049 0.0
C1256 C 0.48439 0.32941 0.13587 0.0
C1257 C 0.47374 0.31737 0.15445 0.0
C1258 C 0.48604 0.36091 0.13302 0.0
C1259 C 0.47697 0.38089 0.14865 0.0
C1260 C 0.46502 0.36886 0.16683 0.0
H1261 H 0.47971 0.57873 0.16067 0.0
H1262 H 0.46701 0.52467 0.16433 0.0
C1263 C 0.46367 0.33746 0.16977 0.0
C1264 C 0.48042 0.41428 0.14612 0.0
H1265 H 0.51366 0.477 0.16737 0.0
C1266 C 0.4661 0.42861 0.1295 0.0
C1267 C 0.49795 0.43194 0.15989 0.0
C1268 C 0.51539 0.41779 0.17734 0.0
C1269 C 0.46862 0.46012 0.12642 0.0
C1270 C 0.48598 0.47768 0.14026 0.0
C1271 C 0.5001 0.46346 0.15692 0.0
C1272 C 0.49126 0.51061 0.13713 0.0
C1273 C 0.45255 0.47448 0.10849 0.0
C1274 C 0.50899 0.52054 0.12063 0.0
C1275 C 0.51638 0.55125 0.1186 0.0
C1276 C 0.50612 0.57268 0.133 0.0
C1277 C 0.48766 0.5628 0.14924 0.0
C1278 C 0.48052 0.53196 0.15138 0.0
H1279 H 0.4348 0.45931 0.10204 0.0
H1280 H 0.44187 0.49632 0.11306 0.0
H1281 H 0.46932 0.47936 0.09626 0.0
H1282 H 0.51782 0.50439 0.10961 0.0
H1283 H 0.5304 0.55822 0.10584 0.0
H1284 H 0.17737 0.50031 0.68184 0.0
H1285 H 0.12275 0.49641 0.6762 0.0
H1286 H 0.13857 0.47327 0.61292 0.0
H1287 H 0.19362 0.47689 0.61863 0.0
H1288 H 0.0932 0.53391 0.6494 0.0
H1289 H 0.07179 0.41292 0.62985 0.0
H1290 H 0.10618 0.42548 0.64233 0.0
H1291 H 0.1013 0.43104 0.6153 0.0
C1292 C 0.16923 0.49404 0.66678 0.0
C1293 C 0.18967 0.48923 0.6506 0.0
C1294 C 0.13804 0.49166 0.6636 0.0
C1295 C 0.12657 0.48446 0.64417 0.0
C1296 C 0.14694 0.47834 0.62813 0.0
H1297 H 0.94736 0.54185 0.6056 0.0
H1298 H 0.00153 0.52983 0.607 0.0
C1299 C 0.17832 0.48049 0.63137 0.0
C1300 C 0.09346 0.48682 0.64044 0.0
H1301 H 0.03035 0.4471 0.62593 0.0
C1302 C 0.07948 0.5149 0.64428 0.0
C1303 C 0.0756 0.46194 0.63389 0.0
C1304 C 0.08934 0.43103 0.63025 0.0
C1305 C 0.04817 0.51885 0.64179 0.0
C1306 C 0.03034 0.4942 0.63483 0.0
C1307 C 0.04418 0.466 0.63107 0.0
C1308 C 0.99721 0.49761 0.6318 0.0
C1309 C 0.03433 0.54927 0.64703 0.0
C1310 C 0.97671 0.48239 0.64464 0.0
C1311 C 0.94567 0.48917 0.64382 0.0
C1312 C 0.93479 0.51135 0.63018 0.0
C1313 C 0.95521 0.52515 0.61654 0.0
C1314 C 0.9861 0.51823 0.61727 0.0
H1315 H 0.04974 0.56327 0.65666 0.0
H1316 H 0.02977 0.56199 0.6327 0.0
H1317 H 0.01249 0.54637 0.65528 0.0
H1318 H 0.98488 0.46637 0.65595 0.0
H1319 H 0.93049 0.47827 0.65456 0.0
H1320 H 0.95664 0.9308 0.12394 0.0
H1321 H 0.96723 0.9851 0.12604 0.0
H1322 H 0.0376 0.96793 0.17041 0.0
H1323 H 0.02691 0.91331 0.16853 0.0
H1324 H 0.96172 0.01896 0.16224 0.0
H1325 H 0.07783 0.02766 0.12945 0.0
H1326 H 0.05367 0.99509 0.12523 0.0
H1327 H 0.07287 0.99976 0.14927 0.0
C1328 C 0.97443 0.93848 0.13413 0.0
C1329 C 0.99072 0.91768 0.14622 0.0
C1330 C 0.98059 0.96954 0.1352 0.0
C1331 C 0.00331 0.98055 0.14827 0.0
C1332 C 0.02031 0.95986 0.15995 0.0
H1333 H 0.00872 0.16591 0.19382 0.0
H1334 H 0.01205 0.11066 0.19046 0.0
C1335 C 0.01415 0.92865 0.15888 0.0
C1336 C 0.00724 0.01383 0.15079 0.0
H1337 H 0.05684 0.07262 0.1437 0.0
C1338 C 0.98254 0.03068 0.15822 0.0
C1339 C 0.03435 0.02905 0.14538 0.0
C1340 C 0.06118 0.0121 0.13673 0.0
C1341 C 0.98418 0.06232 0.16043 0.0
C1342 C 0.0114 0.07754 0.15532 0.0
C1343 C 0.03611 0.0608 0.14777 0.0
C1344 C 0.01398 0.11097 0.1574 0.0
C1345 C 0.95653 0.07932 0.16788 0.0
C1346 C 0.01522 0.12947 0.13994 0.0
C1347 C 0.01322 0.16112 0.1418 0.0
C1348 C 0.00998 0.17473 0.16119 0.0
C1349 C 0.01061 0.15611 0.17867 0.0
C1350 C 0.01262 0.12456 0.17679 0.0
H1351 H 0.93569 0.06517 0.16712 0.0
H1352 H 0.96005 0.08624 0.18404 0.0
H1353 H 0.95286 0.10022 0.15869 0.0
H1354 H 0.01626 0.11937 0.12483 0.0
H1355 H 0.01261 0.17472 0.12802 0.0
H1356 H 0.33819 0.03062 0.69574 0.0
H1357 H 0.39322 0.03647 0.69208 0.0
H1358 H 0.38512 0.02161 0.62703 0.0
H1359 H 0.33014 0.01653 0.63061 0.0
H1360 H 0.43187 0.99477 0.68012 0.0
H1361 H 0.44244 0.09179 0.62697 0.0
H1362 H 0.40715 0.08255 0.63951 0.0
H1363 H 0.41848 0.06268 0.61663 0.0
C1364 C 0.34816 0.02914 0.68063 0.0
C1365 C 0.32983 0.02328 0.66346 0.0
C1366 C 0.37959 0.0325 0.67854 0.0
C1367 C 0.39343 0.02993 0.65924 0.0
C1368 C 0.37504 0.02464 0.642 0.0
H1369 H 0.5697 0.98317 0.61537 0.0
H1370 H 0.51603 0.99498 0.62093 0.0
C1371 C 0.34355 0.02164 0.64406 0.0
C1372 C 0.42716 0.02994 0.65742 0.0
H1373 H 0.4865 0.05959 0.63018 0.0
C1374 C 0.4438 0.00936 0.66945 0.0
C1375 C 0.4429 0.04896 0.6435 0.0
C1376 C 0.42683 0.07295 0.63109 0.0
C1377 C 0.4754 0.00647 0.6674 0.0
C1378 C 0.49085 0.02459 0.65294 0.0
C1379 C 0.4745 0.04569 0.64123 0.0
C1380 C 0.52365 0.02019 0.64886 0.0
C1381 C 0.49207 0.98328 0.68015 0.0
C1382 C 0.54574 0.03099 0.66256 0.0
C1383 C 0.57653 0.02436 0.65937 0.0
C1384 C 0.58558 0.00653 0.64256 0.0
C1385 C 0.56338 0.9966 0.62859 0.0
C1386 C 0.53276 0.00348 0.63167 0.0
H1387 H 0.47645 0.96948 0.68972 0.0
H1388 H 0.50524 0.9678 0.67008 0.0
H1389 H 0.50843 0.99501 0.69037 0.0
H1390 H 0.53909 0.04394 0.67593 0.0
H1391 H 0.59307 0.03213 0.67045 0.0
H1392 H 0.84438 0.29342 0.15016 0.0
H1393 H 0.79052 0.28111 0.14716 0.0
H1394 H 0.80989 0.22146 0.09647 0.0
H1395 H 0.8639 0.2342 0.09895 0.0
H1396 H 0.751 0.28673 0.11064 0.0
H1397 H 0.76333 0.16885 0.14045 0.0
H1398 H 0.79175 0.19774 0.14469 0.0
H1399 H 0.78832 0.18012 0.12003 0.0
C1400 C 0.83723 0.27807 0.13813 0.0
C1401 C 0.85852 0.26482 0.12477 0.0
C1402 C 0.80645 0.27093 0.13654 0.0
C1403 C 0.79638 0.25023 0.12172 0.0
C1404 C 0.81737 0.23723 0.10817 0.0
H1405 H 0.60551 0.2127 0.0933 0.0
H1406 H 0.65994 0.22316 0.09008 0.0
C1407 C 0.84819 0.24446 0.10967 0.0
C1408 C 0.76389 0.24204 0.12075 0.0
H1409 H 0.7141 0.18474 0.13126 0.0
C1410 C 0.74288 0.26438 0.11497 0.0
C1411 C 0.75354 0.21292 0.12659 0.0
C1412 C 0.77528 0.18847 0.13343 0.0
C1413 C 0.71159 0.25841 0.11503 0.0
C1414 C 0.70123 0.22934 0.12096 0.0
C1415 C 0.72226 0.20692 0.12658 0.0
C1416 C 0.66852 0.22239 0.12266 0.0
C1417 C 0.68973 0.28343 0.10939 0.0
C1418 C 0.65556 0.21816 0.14203 0.0
C1419 C 0.62454 0.21245 0.14395 0.0
C1420 C 0.60589 0.21056 0.1265 0.0
C1421 C 0.61913 0.21439 0.10706 0.0
C1422 C 0.6502 0.22027 0.10517 0.0
H1423 H 0.70118 0.30583 0.1081 0.0
H1424 H 0.67903 0.27804 0.09444 0.0
H1425 H 0.67136 0.28516 0.12097 0.0
H1426 H 0.66939 0.21983 0.1557 0.0
H1427 H 0.6151 0.21022 0.15918 0.0
H1428 H 0.31404 0.61797 0.59235 0.0
H1429 H 0.30214 0.67219 0.58943 0.0
H1430 H 0.29785 0.67924 0.65521 0.0
H1431 H 0.30823 0.62517 0.65827 0.0
H1432 H 0.24865 0.70428 0.63645 0.0
H1433 H 0.35533 0.74625 0.601 0.0
H1434 H 0.33702 0.71574 0.58751 0.0
H1435 H 0.35236 0.70916 0.6126 0.0
C1436 C 0.31065 0.63111 0.60619 0.0
C1437 C 0.31236 0.61719 0.62555 0.0
C1438 C 0.30416 0.66214 0.60449 0.0
C1439 C 0.29949 0.67979 0.62212 0.0
C1440 C 0.30157 0.66606 0.64142 0.0
H1441 H 0.29297 0.87222 0.64294 0.0
H1442 H 0.3064 0.81859 0.63924 0.0
C1443 C 0.30787 0.63514 0.64313 0.0
C1444 C 0.29082 0.71223 0.62071 0.0
H1445 H 0.31568 0.78199 0.60526 0.0
C1446 C 0.26324 0.72128 0.62957 0.0
C1447 C 0.31004 0.73432 0.61185 0.0
C1448 C 0.34047 0.72604 0.60284 0.0
C1449 C 0.25451 0.75189 0.63011 0.0
C1450 C 0.27358 0.77399 0.62108 0.0
C1451 C 0.30102 0.76493 0.612 0.0
C1452 C 0.26617 0.80678 0.62197 0.0
C1453 C 0.2255 0.76038 0.641 0.0
C1454 C 0.23939 0.818 0.61314 0.0
C1455 C 0.23158 0.84861 0.61531 0.0
C1456 C 0.25065 0.86858 0.62613 0.0
C1457 C 0.27795 0.85745 0.63437 0.0
C1458 C 0.28563 0.82682 0.6323 0.0
H1459 H 0.2175 0.74193 0.65127 0.0
H1460 H 0.22857 0.78134 0.65024 0.0
H1461 H 0.20747 0.76471 0.62951 0.0
H1462 H 0.22438 0.80303 0.60472 0.0
H1463 H 0.21064 0.85667 0.60853 0.0
H1464 H 0.88948 0.20301 0.91293 0.0
H1465 H 0.83553 0.21505 0.91724 0.0
H1466 H 0.82572 0.22294 0.85178 0.0
H1467 H 0.87951 0.21248 0.84738 0.0
H1468 H 0.80128 0.271 0.8723 0.0
H1469 H 0.76153 0.16188 0.90565 0.0
H1470 H 0.79237 0.17979 0.91901 0.0
H1471 H 0.79808 0.16581 0.89346 0.0
C1472 C 0.87579 0.20727 0.89947 0.0
C1473 C 0.88882 0.2065 0.8798 0.0
C1474 C 0.84493 0.21384 0.90195 0.0
C1475 C 0.82658 0.21949 0.8848 0.0
C1476 C 0.83945 0.21846 0.8652 0.0
H1477 H 0.63487 0.22313 0.86535 0.0
H1478 H 0.68875 0.211 0.86884 0.0
C1479 C 0.8702 0.21211 0.86271 0.0
C1480 C 0.79422 0.22785 0.88704 0.0
H1481 H 0.72525 0.20114 0.90254 0.0
C1482 C 0.78464 0.25581 0.87901 0.0
C1483 C 0.77264 0.20785 0.89567 0.0
C1484 C 0.78151 0.17703 0.9038 0.0
C1485 C 0.75394 0.26411 0.87896 0.0
C1486 C 0.73233 0.24419 0.88766 0.0
C1487 C 0.74195 0.21644 0.89604 0.0
C1488 C 0.69943 0.25083 0.8869 0.0
C1489 C 0.74482 0.29354 0.86881 0.0
C1490 C 0.6875 0.27697 0.89623 0.0
C1491 C 0.65673 0.28406 0.89415 0.0
C1492 C 0.63735 0.26486 0.88297 0.0
C1493 C 0.6492 0.2382 0.87422 0.0
C1494 C 0.67997 0.23127 0.87616 0.0
H1495 H 0.76304 0.3025 0.85873 0.0
H1496 H 0.72392 0.29051 0.85952 0.0
H1497 H 0.74012 0.31085 0.88075 0.0
H1498 H 0.70204 0.29203 0.90493 0.0
H1499 H 0.64809 0.30451 0.9013 0.0
H1500 H 0.3049 0.86354 0.39635 0.0
H1501 H 0.29255 0.80935 0.39795 0.0
H1502 H 0.20695 0.82676 0.36814 0.0
H1503 H 0.21912 0.88087 0.36642 0.0
H1504 H 0.20255 0.78704 0.40171 0.0
H1505 H 0.29408 0.75278 0.34789 0.0
H1506 H 0.30658 0.77433 0.36968 0.0
H1507 H 0.28227 0.79177 0.35099 0.0
C1508 C 0.28349 0.85579 0.39009 0.0
C1509 C 0.26305 0.87647 0.38118 0.0
C1510 C 0.27648 0.82486 0.39102 0.0
C1511 C 0.24903 0.81405 0.38291 0.0
C1512 C 0.22826 0.83469 0.37448 0.0
H1513 H 0.20181 0.63329 0.34453 0.0
H1514 H 0.21285 0.68743 0.34766 0.0
C1515 C 0.23521 0.86561 0.37358 0.0
C1516 C 0.24211 0.78116 0.38278 0.0
H1517 H 0.26561 0.71331 0.36305 0.0
C1518 C 0.21634 0.77085 0.39332 0.0
C1519 C 0.26 0.76025 0.3716 0.0
C1520 C 0.28714 0.77027 0.35923 0.0
C1521 C 0.20796 0.74008 0.39299 0.0
C1522 C 0.2261 0.71913 0.38204 0.0
C1523 C 0.25188 0.72945 0.37154 0.0
C1524 C 0.21816 0.68653 0.38057 0.0
C1525 C 0.17935 0.7304 0.40386 0.0
C1526 C 0.21752 0.66808 0.39807 0.0
C1527 C 0.21091 0.63711 0.39636 0.0
C1528 C 0.20496 0.62405 0.3771 0.0
C1529 C 0.20566 0.64269 0.35963 0.0
C1530 C 0.21223 0.67359 0.36136 0.0
H1531 H 0.16445 0.75007 0.40745 0.0
H1532 H 0.16634 0.71389 0.39446 0.0
H1533 H 0.18548 0.71916 0.41848 0.0
H1534 H 0.22253 0.67754 0.413 0.0
H1535 H 0.21045 0.62339 0.41011 0.0
H1536 H 0.14856 0.70096 0.89772 0.0
H1537 H 0.2023 0.715 0.8984 0.0
H1538 H 0.18063 0.80188 0.87173 0.0
H1539 H 0.12702 0.78787 0.8705 0.0
H1540 H 0.23639 0.73251 0.86197 0.0
H1541 H 0.23578 0.82193 0.92222 0.0
H1542 H 0.20613 0.79375 0.92001 0.0
H1543 H 0.20735 0.8252 0.90257 0.0
C1544 C 0.15521 0.72306 0.89199 0.0
C1545 C 0.13347 0.74329 0.88407 0.0
C1546 C 0.18586 0.7311 0.89253 0.0
C1547 C 0.19525 0.75958 0.88535 0.0
C1548 C 0.17367 0.78002 0.87771 0.0
H1549 H 0.3723 0.843 0.86779 0.0
H1550 H 0.31771 0.83311 0.87071 0.0
C1551 C 0.14304 0.77197 0.87707 0.0
C1552 C 0.22787 0.7671 0.88454 0.0
H1553 H 0.2817 0.81481 0.904 0.0
C1554 C 0.24638 0.75039 0.87121 0.0
C1555 C 0.24057 0.79069 0.89646 0.0
C1556 C 0.22156 0.80887 0.91126 0.0
C1557 C 0.27739 0.7568 0.86933 0.0
C1558 C 0.29029 0.78004 0.88152 0.0
C1559 C 0.27171 0.79696 0.89474 0.0
C1560 C 0.32317 0.78669 0.88091 0.0
C1561 C 0.29592 0.73901 0.85401 0.0
C1562 C 0.34418 0.7641 0.88617 0.0
C1563 C 0.37522 0.76952 0.8843 0.0
C1564 C 0.38593 0.79784 0.87742 0.0
C1565 C 0.36478 0.82084 0.87289 0.0
C1566 C 0.33364 0.81531 0.87467 0.0
H1567 H 0.28135 0.72847 0.84207 0.0
H1568 H 0.31297 0.75372 0.84639 0.0
H1569 H 0.30813 0.72049 0.86205 0.0
H1570 H 0.33654 0.74203 0.89136 0.0
H1571 H 0.39075 0.75111 0.88764 0.0
H1572 H 0.78596 0.13992 0.40827 0.0
H1573 H 0.76765 0.19226 0.41164 0.0
H1574 H 0.76257 0.19982 0.34594 0.0
H1575 H 0.77978 0.14737 0.34241 0.0
H1576 H 0.7901 0.2477 0.39627 0.0
H1577 H 0.67632 0.22105 0.36467 0.0
H1578 H 0.70258 0.19196 0.37279 0.0
H1579 H 0.70698 0.20984 0.34822 0.0
C1580 C 0.78096 0.15275 0.39454 0.0
C1581 C 0.78417 0.13938 0.37507 0.0
C1582 C 0.77063 0.18266 0.3965 0.0
C1583 C 0.76318 0.19964 0.37905 0.0
C1584 C 0.76763 0.18686 0.3596 0.0
H1585 H 0.70244 0.37741 0.34757 0.0
H1586 H 0.71866 0.32457 0.34949 0.0
C1587 C 0.7779 0.15699 0.35762 0.0
C1588 C 0.75026 0.23055 0.38109 0.0
H1589 H 0.68859 0.27352 0.3683 0.0
C1590 C 0.76779 0.25334 0.39037 0.0
C1591 C 0.72103 0.23771 0.3735 0.0
C1592 C 0.70048 0.21381 0.36442 0.0
C1593 C 0.75736 0.28346 0.39146 0.0
C1594 C 0.72853 0.29075 0.38329 0.0
C1595 C 0.71071 0.26781 0.3745 0.0
C1596 C 0.71724 0.32239 0.38254 0.0
C1597 C 0.77767 0.30749 0.40062 0.0
C1598 C 0.71043 0.33846 0.40051 0.0
C1599 C 0.70073 0.36871 0.39949 0.0
C1600 C 0.69762 0.38332 0.38044 0.0
C1601 C 0.70391 0.36679 0.36248 0.0
C1602 C 0.71348 0.33662 0.36353 0.0
H1603 H 0.80122 0.29913 0.40296 0.0
H1604 H 0.77839 0.32788 0.39064 0.0
H1605 H 0.76844 0.31454 0.4157 0.0
H1606 H 0.71274 0.32765 0.41532 0.0
H1607 H 0.6958 0.38069 0.41359 0.0
H1608 H 0.36833 0.71519 0.15633 0.0
H1609 H 0.31536 0.73094 0.15419 0.0
H1610 H 0.31987 0.72764 0.0883 0.0
H1611 H 0.3728 0.71076 0.09029 0.0
H1612 H 0.29438 0.7837 0.13501 0.0
H1613 H 0.24183 0.68027 0.10117 0.0
H1614 H 0.27908 0.6799 0.1127 0.0
H1615 H 0.27384 0.69551 0.08757 0.0
C1616 C 0.35792 0.71703 0.14137 0.0
C1617 C 0.37478 0.71142 0.12347 0.0
C1618 C 0.3277 0.72635 0.14018 0.0
C1619 C 0.31362 0.73022 0.12111 0.0
C1620 C 0.33017 0.72435 0.10319 0.0
H1621 H 0.12654 0.78937 0.09677 0.0
H1622 H 0.18021 0.77626 0.09204 0.0
C1623 C 0.36048 0.71496 0.10435 0.0
C1624 C 0.28206 0.74175 0.12018 0.0
H1625 H 0.20972 0.72241 0.10667 0.0
C1626 C 0.27588 0.77036 0.12874 0.0
C1627 C 0.25805 0.72439 0.11183 0.0
C1628 C 0.26333 0.6932 0.10292 0.0
C1629 C 0.24622 0.78187 0.1295 0.0
C1630 C 0.22208 0.76411 0.12175 0.0
C1631 C 0.22833 0.73595 0.11258 0.0
C1632 C 0.19002 0.77336 0.12442 0.0
C1633 C 0.24092 0.81288 0.13869 0.0
C1634 C 0.17782 0.77587 0.14416 0.0
C1635 C 0.14727 0.7831 0.14692 0.0
C1636 C 0.12818 0.78797 0.12996 0.0
C1637 C 0.14056 0.78563 0.11015 0.0
C1638 C 0.1712 0.77825 0.10741 0.0
H1639 H 0.26191 0.82687 0.1385 0.0
H1640 H 0.22276 0.82524 0.13035 0.0
H1641 H 0.23371 0.81026 0.15486 0.0
H1642 H 0.19181 0.77149 0.15748 0.0
H1643 H 0.13843 0.78387 0.16237 0.0
H1644 H 0.67662 0.15081 0.62835 0.0
H1645 H 0.68772 0.20498 0.62362 0.0
H1646 H 0.7825 0.18388 0.61515 0.0
H1647 H 0.77163 0.13002 0.61974 0.0
H1648 H 0.72491 0.2409 0.64666 0.0
H1649 H 0.7662 0.23862 0.56664 0.0
H1650 H 0.74582 0.20727 0.57795 0.0
H1651 H 0.78579 0.21202 0.58269 0.0
C1652 C 0.69977 0.15777 0.62536 0.0
C1653 C 0.72318 0.13613 0.62418 0.0
C1654 C 0.70606 0.18865 0.62259 0.0
C1655 C 0.73583 0.19837 0.61858 0.0
C1656 C 0.75923 0.17682 0.61757 0.0
H1657 H 0.83499 0.36667 0.61888 0.0
H1658 H 0.81803 0.31365 0.61712 0.0
C1659 C 0.75296 0.14602 0.62023 0.0
C1660 C 0.74293 0.23115 0.61673 0.0
H1661 H 0.77804 0.2833 0.58612 0.0
C1662 C 0.73615 0.25027 0.63332 0.0
C1663 C 0.75764 0.2433 0.5993 0.0
C1664 C 0.76402 0.22429 0.58055 0.0
C1665 C 0.74464 0.28097 0.63324 0.0
C1666 C 0.76005 0.29286 0.61605 0.0
C1667 C 0.76635 0.27397 0.5993 0.0
C1668 C 0.77028 0.32481 0.61546 0.0
C1669 C 0.73791 0.3003 0.65179 0.0
C1670 C 0.74903 0.34846 0.61462 0.0
C1671 C 0.75861 0.37865 0.61561 0.0
C1672 C 0.78965 0.38571 0.61744 0.0
C1673 C 0.81095 0.36192 0.61762 0.0
C1674 C 0.80132 0.33169 0.61653 0.0
H1675 H 0.73085 0.28642 0.66516 0.0
H1676 H 0.75812 0.31394 0.65612 0.0
H1677 H 0.71923 0.31632 0.64812 0.0
H1678 H 0.72498 0.34353 0.61365 0.0
H1679 H 0.74159 0.39641 0.61573 0.0
H1680 H 0.36861 0.05709 0.31463 0.0
H1681 H 0.37609 0.09668 0.28898 0.0
H1682 H 0.29197 0.13898 0.30712 0.0
H1683 H 0.28476 0.09944 0.3334 0.0
H1684 H 0.29883 0.11994 0.26336 0.0
H1685 H 0.39438 0.19064 0.29092 0.0
H1686 H 0.39996 0.15069 0.29512 0.0
H1687 H 0.36952 0.17004 0.30803 0.0
C1688 C 0.35221 0.07538 0.31359 0.0
C1689 C 0.32625 0.07544 0.32599 0.0
C1690 C 0.35652 0.09801 0.29898 0.0
C1691 C 0.3347 0.12086 0.29627 0.0
C1692 C 0.30921 0.1217 0.30917 0.0
H1693 H 0.39842 0.22261 0.18924 0.0
H1694 H 0.36507 0.21716 0.21928 0.0
C1695 C 0.30521 0.09929 0.32419 0.0
C1696 C 0.33722 0.14085 0.27816 0.0
H1697 H 0.38919 0.18568 0.25413 0.0
C1698 C 0.31795 0.13521 0.26148 0.0
C1699 C 0.36196 0.16093 0.27579 0.0
C1700 C 0.3825 0.16871 0.29349 0.0
C1701 C 0.32476 0.14657 0.24193 0.0
C1702 C 0.35145 0.16386 0.23912 0.0
C1703 C 0.36879 0.17225 0.25625 0.0
C1704 C 0.36514 0.16801 0.21861 0.0
C1705 C 0.30451 0.13829 0.22419 0.0
C1706 C 0.37557 0.14224 0.20808 0.0
C1707 C 0.39479 0.14533 0.19127 0.0
C1708 C 0.40351 0.17422 0.18448 0.0
C1709 C 0.39136 0.20012 0.19399 0.0
C1710 C 0.37252 0.19703 0.21117 0.0
H1711 H 0.28082 0.13428 0.22936 0.0
H1712 H 0.30452 0.15638 0.21236 0.0
H1713 H 0.31292 0.11698 0.21708 0.0
H1714 H 0.37074 0.11966 0.2138 0.0
H1715 H 0.40434 0.12509 0.18433 0.0
H1716 H 0.40994 0.33356 0.8445 0.0
H1717 H 0.36829 0.3455 0.82058 0.0
H1718 H 0.42765 0.3274 0.76954 0.0
H1719 H 0.46893 0.31593 0.79301 0.0
H1720 H 0.37444 0.3932 0.79015 0.0
H1721 H 0.34791 0.28249 0.75412 0.0
H1722 H 0.36598 0.28571 0.77889 0.0
H1723 H 0.38787 0.29015 0.75586 0.0
C1724 C 0.41384 0.33175 0.82817 0.0
C1725 C 0.44271 0.3241 0.8206 0.0
C1726 C 0.3901 0.33846 0.81457 0.0
C1727 C 0.3948 0.33679 0.7933 0.0
C1728 C 0.42334 0.3282 0.78586 0.0
H1729 H 0.34279 0.39993 0.67756 0.0
H1730 H 0.35814 0.36827 0.70665 0.0
C1731 C 0.44703 0.32201 0.79933 0.0
C1732 C 0.37162 0.34758 0.77859 0.0
H1733 H 0.33507 0.32714 0.73456 0.0
C1734 C 0.36508 0.37871 0.77828 0.0
C1735 C 0.35987 0.32858 0.76303 0.0
C1736 C 0.36552 0.2948 0.76304 0.0
C1737 C 0.34893 0.3918 0.76201 0.0
C1738 C 0.3381 0.37298 0.74595 0.0
C1739 C 0.34329 0.34153 0.74685 0.0
C1740 C 0.32403 0.38614 0.72729 0.0
C1741 C 0.34563 0.42596 0.76152 0.0
C1742 C 0.29852 0.40509 0.72882 0.0
C1743 C 0.29015 0.4235 0.71236 0.0
C1744 C 0.30648 0.42244 0.69393 0.0
C1745 C 0.32967 0.40087 0.69157 0.0
C1746 C 0.33852 0.38292 0.70822 0.0
H1747 H 0.3612 0.43737 0.77248 0.0
H1748 H 0.3503 0.43496 0.74596 0.0
H1749 H 0.32207 0.43221 0.76577 0.0
H1750 H 0.28646 0.40728 0.74318 0.0
H1751 H 0.27214 0.43998 0.71448 0.0
H1752 H 0.19925 0.40097 0.32374 0.0
H1753 H 0.19203 0.36649 0.29424 0.0
H1754 H 0.11108 0.41556 0.27742 0.0
H1755 H 0.11801 0.44953 0.30637 0.0
H1756 H 0.13885 0.32943 0.28135 0.0
H1757 H 0.16686 0.4196 0.22581 0.0
H1758 H 0.17819 0.42135 0.2524 0.0
H1759 H 0.14055 0.43271 0.24484 0.0
C1760 C 0.17968 0.40392 0.31391 0.0
C1761 C 0.15935 0.4281 0.31721 0.0
C1762 C 0.17572 0.38443 0.29702 0.0
C1763 C 0.1515 0.38909 0.28335 0.0
C1764 C 0.13037 0.41208 0.28745 0.0
H1765 H 0.02354 0.31598 0.21245 0.0
H1766 H 0.0625 0.32763 0.23731 0.0
C1767 C 0.13429 0.43138 0.3041 0.0
C1768 C 0.14743 0.3706 0.26457 0.0
H1769 H 0.13154 0.3808 0.21393 0.0
C1770 C 0.13818 0.34027 0.26646 0.0
C1771 C 0.14732 0.38443 0.24502 0.0
C1772 C 0.1591 0.41624 0.24183 0.0
C1773 C 0.12552 0.32466 0.24972 0.0
C1774 C 0.12147 0.34006 0.23087 0.0
C1775 C 0.13412 0.36907 0.22842 0.0
C1776 C 0.09922 0.3294 0.21534 0.0
C1777 C 0.115 0.29239 0.25274 0.0
C1778 C 0.10657 0.32714 0.19442 0.0
C1779 C 0.08392 0.3206 0.17988 0.0
C1780 C 0.05359 0.31688 0.18608 0.0
C1781 C 0.0466 0.31883 0.20704 0.0
C1782 C 0.06904 0.32506 0.22142 0.0
H1783 H 0.13008 0.28026 0.26365 0.0
H1784 H 0.09183 0.29252 0.2594 0.0
H1785 H 0.11446 0.27965 0.23806 0.0
H1786 H 0.12966 0.33092 0.18934 0.0
H1787 H 0.08996 0.31928 0.16383 0.0
H1788 H 0.10658 0.17339 0.82694 0.0
H1789 H 0.13878 0.15649 0.79862 0.0
H1790 H 0.09616 0.22203 0.7588 0.0
H1791 H 0.06308 0.23788 0.78685 0.0
H1792 H 0.08929 0.16782 0.74419 0.0
H1793 H 0.21029 0.17984 0.76447 0.0
H1794 H 0.18995 0.16088 0.78448 0.0
H1795 H 0.1807 0.19966 0.7782 0.0
C1796 C 0.10508 0.18505 0.81238 0.0
C1797 C 0.08241 0.20687 0.809 0.0
C1798 C 0.12355 0.17544 0.79616 0.0
C1799 C 0.12003 0.18803 0.7765 0.0
C1800 C 0.09932 0.21194 0.77377 0.0
H1801 H 0.19735 0.09733 0.66612 0.0
H1802 H 0.18297 0.13957 0.68899 0.0
C1803 C 0.08051 0.22107 0.78982 0.0
C1804 C 0.13333 0.17265 0.75831 0.0
H1805 H 0.1981 0.13975 0.73988 0.0
C1806 C 0.11326 0.1625 0.74301 0.0
C1807 C 0.16459 0.16559 0.75663 0.0
C1808 C 0.18763 0.17737 0.77174 0.0
C1809 C 0.12322 0.14399 0.72691 0.0
C1810 C 0.15395 0.13515 0.72611 0.0
C1811 C 0.17448 0.14661 0.74061 0.0
C1812 C 0.16375 0.11047 0.71228 0.0
C1813 C 0.10053 0.13252 0.71143 0.0
C1814 C 0.15749 0.08044 0.71785 0.0
C1815 C 0.16549 0.05655 0.70496 0.0
C1816 C 0.17993 0.06214 0.68614 0.0
C1817 C 0.18613 0.09235 0.68047 0.0
C1818 C 0.17815 0.11642 0.69354 0.0
H1819 H 0.07894 0.14555 0.71195 0.0
H1820 H 0.11009 0.1339 0.69573 0.0
H1821 H 0.0954 0.1083 0.71463 0.0
H1822 H 0.14624 0.0755 0.73222 0.0
H1823 H 0.1603 0.03362 0.70983 0.0
H1824 H 0.69322 0.90555 0.66559 0.0
H1825 H 0.67771 0.86331 0.68784 0.0
H1826 H 0.6968 0.91802 0.74109 0.0
H1827 H 0.71248 0.9599 0.71915 0.0
H1828 H 0.71238 0.85426 0.74537 0.0
H1829 H 0.59475 0.87484 0.71711 0.0
H1830 H 0.62323 0.86648 0.69823 0.0
H1831 H 0.6252 0.90132 0.71247 0.0
C1832 C 0.6948 0.90824 0.68203 0.0
C1833 C 0.70363 0.93616 0.69064 0.0
C1834 C 0.68584 0.88417 0.69471 0.0
C1835 C 0.68574 0.88774 0.7161 0.0
C1836 C 0.69668 0.9148 0.72464 0.0
H1837 H 0.60803 0.82666 0.82728 0.0
H1838 H 0.64456 0.84248 0.80114 0.0
C1839 C 0.70545 0.9388 0.71206 0.0
C1840 C 0.67084 0.86529 0.72967 0.0
H1841 H 0.60063 0.84119 0.74429 0.0
C1842 C 0.688 0.85089 0.74497 0.0
C1843 C 0.63903 0.86113 0.72916 0.0
C1844 C 0.61931 0.87684 0.71349 0.0
C1845 C 0.67405 0.83289 0.76006 0.0
C1846 C 0.64207 0.82985 0.76008 0.0
C1847 C 0.62515 0.84336 0.74428 0.0
C1848 C 0.62501 0.81496 0.77696 0.0
C1849 C 0.69369 0.81756 0.77589 0.0
C1850 C 0.60223 0.79376 0.77229 0.0
C1851 C 0.58101 0.78532 0.78707 0.0
C1852 C 0.58244 0.79751 0.80691 0.0
C1853 C 0.60674 0.8166 0.81217 0.0
C1854 C 0.6277 0.82556 0.79721 0.0
H1855 H 0.71673 0.81284 0.76976 0.0
H1856 H 0.69629 0.83288 0.78928 0.0
H1857 H 0.68348 0.79589 0.78118 0.0
H1858 H 0.59966 0.78525 0.75681 0.0
H1859 H 0.56244 0.77055 0.78267 0.0
H1860 H 0.59734 0.65936 0.16864 0.0
H1861 H 0.63239 0.64727 0.19679 0.0
H1862 H 0.5932 0.71925 0.23302 0.0
H1863 H 0.55743 0.73035 0.20536 0.0
H1864 H 0.67502 0.67617 0.223 0.0
H1865 H 0.56989 0.64312 0.26449 0.0
H1866 H 0.56992 0.65232 0.23763 0.0
H1867 H 0.57095 0.68208 0.25651 0.0
C1868 C 0.59704 0.67321 0.18236 0.0
C1869 C 0.57473 0.69562 0.185 0.0
C1870 C 0.61693 0.66626 0.19844 0.0
C1871 C 0.61483 0.68188 0.21719 0.0
C1872 C 0.59472 0.70647 0.21889 0.0
H1873 H 0.67122 0.61182 0.33681 0.0
H1874 H 0.65921 0.65042 0.31083 0.0
C1875 C 0.57449 0.71294 0.20305 0.0
C1876 C 0.63034 0.66989 0.23567 0.0
H1877 H 0.61587 0.63648 0.2818 0.0
C1878 C 0.66214 0.66776 0.23595 0.0
C1879 C 0.61349 0.65884 0.25258 0.0
C1880 C 0.57919 0.6589 0.25281 0.0
C1881 C 0.67747 0.6544 0.25257 0.0
C1882 C 0.66052 0.64267 0.26917 0.0
C1883 C 0.62886 0.64585 0.26919 0.0
C1884 C 0.6742 0.62308 0.28517 0.0
C1885 C 0.71163 0.65256 0.25207 0.0
C1886 C 0.68722 0.5953 0.27942 0.0
C1887 C 0.69378 0.57333 0.29412 0.0
C1888 C 0.68751 0.57867 0.31491 0.0
C1889 C 0.67649 0.60725 0.32091 0.0
C1890 C 0.66959 0.62924 0.30609 0.0
H1891 H 0.72147 0.67105 0.2426 0.0
H1892 H 0.7214 0.65386 0.26772 0.0
H1893 H 0.7185 0.63059 0.24513 0.0
H1894 H 0.69036 0.5897 0.26341 0.0
H1895 H 0.70234 0.55149 0.28908 0.0
H1896 H 0.8482 0.53225 0.71598 0.0
H1897 H 0.8564 0.56659 0.74432 0.0
H1898 H 0.81849 0.64044 0.70929 0.0
H1899 H 0.81058 0.6057 0.68014 0.0
H1900 H 0.87082 0.6566 0.72694 0.0
H1901 H 0.80149 0.60272 0.78649 0.0
H1902 H 0.8247 0.57413 0.77487 0.0
H1903 H 0.79669 0.59381 0.75967 0.0
C1904 C 0.84121 0.5557 0.7142 0.0
C1905 C 0.82868 0.56619 0.69571 0.0
C1906 C 0.84558 0.5753 0.73065 0.0
C1907 C 0.83723 0.60596 0.72926 0.0
C1908 C 0.82462 0.61673 0.71084 0.0
H1909 H 0.9052 0.69339 0.84309 0.0
H1910 H 0.86654 0.68223 0.81674 0.0
C1911 C 0.82021 0.59692 0.69419 0.0
C1912 C 0.84516 0.62666 0.74646 0.0
H1913 H 0.84926 0.62655 0.79868 0.0
C1914 C 0.86528 0.65068 0.74261 0.0
C1915 C 0.8374 0.61973 0.76699 0.0
C1916 C 0.81357 0.59639 0.77218 0.0
C1917 C 0.88055 0.66533 0.7587 0.0
C1918 C 0.87609 0.6552 0.77904 0.0
C1919 C 0.85327 0.63383 0.78305 0.0
C1920 C 0.89841 0.66231 0.79538 0.0
C1921 C 0.90274 0.6903 0.75364 0.0
C1922 C 0.92872 0.65376 0.79242 0.0
C1923 C 0.95048 0.65982 0.80728 0.0
C1924 C 0.94257 0.67445 0.82567 0.0
C1925 C 0.91197 0.68213 0.82907 0.0
C1926 C 0.88996 0.67595 0.81401 0.0
H1927 H 0.89545 0.70292 0.73976 0.0
H1928 H 0.90517 0.70658 0.76653 0.0
H1929 H 0.92528 0.68015 0.75036 0.0
H1930 H 0.93562 0.64229 0.7785 0.0
H1931 H 0.97371 0.65318 0.80419 0.0
H1932 H 0.90786 0.82267 0.17995 0.0
H1933 H 0.87168 0.84107 0.20569 0.0
H1934 H 0.91466 0.78499 0.25139 0.0
H1935 H 0.95159 0.76766 0.22598 0.0
H1936 H 0.83035 0.81864 0.23422 0.0
H1937 H 0.93058 0.86971 0.27283 0.0
H1938 H 0.93288 0.85264 0.2478 0.0
H1939 H 0.93241 0.82917 0.27034 0.0
C1940 C 0.90898 0.81364 0.19535 0.0
C1941 C 0.93267 0.79406 0.2011 0.0
C1942 C 0.88838 0.82421 0.21006 0.0
C1943 C 0.89104 0.81506 0.2306 0.0
C1944 C 0.91272 0.79301 0.23578 0.0
H1945 H 0.82066 0.90881 0.33913 0.0
H1946 H 0.83765 0.86628 0.31758 0.0
C1947 C 0.93365 0.78296 0.22123 0.0
C1948 C 0.87376 0.8311 0.24686 0.0
H1949 H 0.88327 0.87747 0.28833 0.0
C1950 C 0.84189 0.8313 0.24616 0.0
C1951 C 0.88885 0.84777 0.26241 0.0
C1952 C 0.92304 0.85014 0.26335 0.0
C1953 C 0.82477 0.84801 0.26044 0.0
C1954 C 0.83994 0.86504 0.2757 0.0
C1955 C 0.87169 0.86405 0.27679 0.0
C1956 C 0.82401 0.88717 0.28904 0.0
C1957 C 0.79062 0.84767 0.25895 0.0
C1958 C 0.81022 0.91267 0.28018 0.0
C1959 C 0.80086 0.93695 0.29237 0.0
C1960 C 0.80499 0.93621 0.3137 0.0
C1961 C 0.81699 0.90987 0.32275 0.0
C1962 C 0.82673 0.88562 0.31046 0.0
H1963 H 0.78237 0.82694 0.25097 0.0
H1964 H 0.78003 0.84885 0.27435 0.0
H1965 H 0.783 0.86771 0.25002 0.0
H1966 H 0.80845 0.91467 0.26369 0.0
H1967 H 0.79163 0.95695 0.28498 0.0
loop_
_geom_bond_atom_site_label_1
_geom_bond_atom_site_label_2
_geom_bond_distance
_geom_bond_site_symmetry_2
_ccdc_geom_bond_type
C0 C1 1.351 . S
C0 N3 1.368 . S
C0 H5 0.931 . S
C1 C0 1.351 . S
C1 N2 1.373 . S
C1 H29 0.930 . S
N2 C1 1.373 . S
N2 C4 1.340 . S
N3 C0 1.368 . S
N3 C4 1.321 . S
N3 Co6 2.135 . S
C4 N2 1.340 . S
C4 N3 1.321 . S
C4 H28 0.930 . S
H5 C0 0.931 . S
Co6 N3 2.135 . S
Co6 N9 2.121 . S
Co6 O14 2.055 . S
Co6 O17 2.039 . S
Co6 N20 2.140 . S
C7 O8 1.227 . S
C7 O17 1.265 . S
O8 C7 1.227 . S
N9 Co6 2.121 . S
N9 C11 1.375 . S
N9 C12 1.313 . S
C10 C11 1.338 . S
C10 N13 1.377 . S
C10 H30 0.930 . S
C11 N9 1.375 . S
C11 C10 1.338 . S
C11 H15 0.931 . S
C12 N9 1.313 . S
C12 N13 1.344 . S
C12 H16 0.930 . S
N13 C10 1.377 . S
N13 C12 1.344 . S
O14 Co6 2.055 . S
O14 C18 1.253 . S
H15 C11 0.931 . S
H16 C12 0.930 . S
O17 Co6 2.039 . S
O17 C7 1.265 . S
C18 O14 1.253 . S
C18 O19 1.227 . S
O19 C18 1.227 . S
N20 Co6 2.140 . S
N20 C23 1.346 . S
N20 C24 1.345 . S
C21 C22 1.387 . S
C21 C25 1.391 . S
C22 C21 1.387 . S
C22 C23 1.369 . S
C22 H31 0.929 . S
C23 N20 1.346 . S
C23 C22 1.369 . S
C23 H26 0.928 . S
C24 N20 1.345 . S
C24 C25 1.371 . S
C24 H27 0.931 . S
C25 C21 1.391 . S
C25 C24 1.371 . S
C25 H32 0.930 . S
H26 C23 0.928 . S
H27 C24 0.931 . S
H28 C4 0.930 . S
H29 C1 0.930 . S
H30 C10 0.930 . S
H31 C22 0.929 . S
H32 C25 0.930 . S
C33 C34 1.351 . S
C33 N36 1.368 . S
C33 H38 0.931 . S
C34 C33 1.351 . S
C34 N35 1.373 . S
C34 H62 0.930 . S
N35 C34 1.373 . S
N35 C37 1.340 . S
N36 C33 1.368 . S
N36 C37 1.321 . S
N36 Co39 2.135 . S
C37 N35 1.340 . S
C37 N36 1.321 . S
C37 H61 0.930 . S
H38 C33 0.931 . S
Co39 N36 2.135 . S
Co39 N42 2.121 . S
Co39 O47 2.055 . S
Co39 O50 2.039 . S
Co39 N53 2.140 . S
C40 O41 1.227 . S
C40 O50 1.265 . S
O41 C40 1.227 . S
N42 Co39 2.121 . S
N42 C44 1.375 . S
N42 C45 1.313 . S
C43 C44 1.338 . S
C43 N46 1.377 . S
C43 H63 0.930 . S
C44 N42 1.375 . S
C44 C43 1.338 . S
C44 H48 0.931 . S
C45 N42 1.313 . S
C45 N46 1.344 . S
C45 H49 0.930 . S
N46 C43 1.377 . S
N46 C45 1.344 . S
O47 Co39 2.055 . S
O47 C51 1.253 . S
H48 C44 0.931 . S
H49 C45 0.930 . S
O50 Co39 2.039 . S
O50 C40 1.265 . S
C51 O47 1.253 . S
C51 O52 1.227 . S
O52 C51 1.227 . S
N53 Co39 2.140 . S
N53 C56 1.346 . S
N53 C57 1.345 . S
C54 C55 1.387 . S
C54 C58 1.391 . S
C55 C54 1.387 . S
C55 C56 1.369 . S
C55 H64 0.929 . S
C56 N53 1.346 . S
C56 C55 1.369 . S
C56 H59 0.928 . S
C57 N53 1.345 . S
C57 C58 1.371 . S
C57 H60 0.931 . S
C58 C54 1.391 . S
C58 C57 1.371 . S
C58 H65 0.930 . S
H59 C56 0.928 . S
H60 C57 0.931 . S
H61 C37 0.930 . S
H62 C34 0.930 . S
H63 C43 0.930 . S
H64 C55 0.929 . S
H65 C58 0.930 . S
C66 C67 1.351 . S
C66 N69 1.368 . S
C66 H71 0.931 . S
C67 C66 1.351 . S
C67 N68 1.373 . S
C67 H95 0.930 . S
N68 C67 1.373 . S
N68 C70 1.340 . S
N69 C66 1.368 . S
N69 C70 1.321 . S
N69 Co72 2.135 . S
C70 N68 1.340 . S
C70 N69 1.321 . S
C70 H94 0.930 . S
H71 C66 0.931 . S
Co72 N69 2.135 . S
Co72 N75 2.121 . S
Co72 O80 2.055 . S
Co72 O83 2.039 . S
Co72 N86 2.140 1_455 S
C73 O74 1.227 1_455 S
C73 O83 1.265 . S
O74 C73 1.227 1_655 S
N75 Co72 2.121 . S
N75 C77 1.375 1_455 S
N75 C78 1.313 . S
C76 C77 1.338 . S
C76 N79 1.377 1_655 S
C76 H96 0.930 . S
C77 N75 1.375 1_655 S
C77 C76 1.338 . S
C77 H81 0.931 . S
C78 N75 1.313 . S
C78 N79 1.344 . S
C78 H82 0.930 . S
N79 C76 1.377 1_455 S
N79 C78 1.344 . S
O80 Co72 2.055 . S
O80 C84 1.253 . S
H81 C77 0.931 . S
H82 C78 0.930 . S
O83 Co72 2.039 . S
O83 C73 1.265 . S
C84 O80 1.253 . S
C84 O85 1.227 . S
O85 C84 1.227 . S
N86 Co72 2.140 1_655 S
N86 C89 1.346 . S
N86 C90 1.345 . S
C87 C88 1.387 . S
C87 C91 1.391 . S
C88 C87 1.387 . S
C88 C89 1.369 . S
C88 H97 0.929 . S
C89 N86 1.346 . S
C89 C88 1.369 . S
C89 H92 0.928 . S
C90 N86 1.345 . S
C90 C91 1.371 . S
C90 H93 0.931 . S
C91 C87 1.391 . S
C91 C90 1.371 . S
C91 H98 0.930 . S
H92 C89 0.928 . S
H93 C90 0.931 . S
H94 C70 0.930 . S
H95 C67 0.930 . S
H96 C76 0.930 . S
H97 C88 0.929 . S
H98 C91 0.930 . S
C99 C100 1.351 . S
C99 N102 1.368 . S
C99 H104 0.931 . S
C100 C99 1.351 . S
C100 N101 1.373 . S
C100 H128 0.930 . S
N101 C100 1.373 . S
N101 C103 1.340 . S
N102 C99 1.368 . S
N102 C103 1.321 . S
N102 Co105 2.135 . S
C103 N101 1.340 . S
C103 N102 1.321 . S
C103 H127 0.930 . S
H104 C99 0.931 . S
Co105 N102 2.135 . S
Co105 N108 2.121 . S
Co105 O113 2.055 . S
Co105 O116 2.039 . S
Co105 N119 2.140 1_545 S
C106 O107 1.227 1_545 S
C106 O116 1.265 . S
O107 C106 1.227 1_565 S
N108 Co105 2.121 . S
N108 C110 1.375 1_545 S
N108 C111 1.313 . S
C109 C110 1.338 . S
C109 N112 1.377 1_565 S
C109 H129 0.930 . S
C110 N108 1.375 1_565 S
C110 C109 1.338 . S
C110 H114 0.931 . S
C111 N108 1.313 . S
C111 N112 1.344 . S
C111 H115 0.930 . S
N112 C109 1.377 1_545 S
N112 C111 1.344 . S
O113 Co105 2.055 . S
O113 C117 1.253 . S
H114 C110 0.931 . S
H115 C111 0.930 . S
O116 Co105 2.039 . S
O116 C106 1.265 . S
C117 O113 1.253 . S
C117 O118 1.227 . S
O118 C117 1.227 . S
N119 Co105 2.140 1_565 S
N119 C122 1.346 . S
N119 C123 1.345 . S
C120 C121 1.387 . S
C120 C124 1.391 . S
C121 C120 1.387 . S
C121 C122 1.369 . S
C121 H130 0.929 . S
C122 N119 1.346 . S
C122 C121 1.369 . S
C122 H125 0.928 . S
C123 N119 1.345 . S
C123 C124 1.371 . S
C123 H126 0.931 . S
C124 C120 1.391 . S
C124 C123 1.371 . S
C124 H131 0.930 . S
H125 C122 0.928 . S
H126 C123 0.931 . S
H127 C103 0.930 . S
H128 C100 0.930 . S
H129 C109 0.930 . S
H130 C121 0.929 . S
H131 C124 0.930 . S
C132 C133 1.351 . S
C132 N135 1.368 . S
C132 H137 0.931 . S
C133 C132 1.351 . S
C133 N134 1.373 . S
C133 H161 0.930 . S
N134 C133 1.373 . S
N134 C136 1.340 . S
N135 C132 1.368 . S
N135 C136 1.321 . S
N135 Co138 2.135 . S
C136 N134 1.340 . S
C136 N135 1.321 . S
C136 H160 0.930 . S
H137 C132 0.931 . S
Co138 N135 2.135 . S
Co138 N141 2.121 . S
Co138 O146 2.055 . S
Co138 O149 2.039 . S
Co138 N152 2.140 . S
C139 O140 1.227 . S
C139 O149 1.265 . S
O140 C139 1.227 . S
N141 Co138 2.121 . S
N141 C143 1.375 . S
N141 C144 1.313 . S
C142 C143 1.338 . S
C142 N145 1.377 . S
C142 H162 0.930 . S
C143 N141 1.375 . S
C143 C142 1.338 . S
C143 H147 0.931 . S
C144 N141 1.313 . S
C144 N145 1.344 . S
C144 H148 0.930 . S
N145 C142 1.377 . S
N145 C144 1.344 . S
O146 Co138 2.055 . S
O146 C150 1.253 . S
H147 C143 0.931 . S
H148 C144 0.930 . S
O149 Co138 2.039 . S
O149 C139 1.265 . S
C150 O146 1.253 . S
C150 O151 1.227 . S
O151 C150 1.227 . S
N152 Co138 2.140 . S
N152 C155 1.346 . S
N152 C156 1.345 . S
C153 C154 1.387 . S
C153 C157 1.391 . S
C154 C153 1.387 . S
C154 C155 1.369 . S
C154 H163 0.929 . S
C155 N152 1.346 . S
C155 C154 1.369 . S
C155 H158 0.928 . S
C156 N152 1.345 . S
C156 C157 1.371 . S
C156 H159 0.931 . S
C157 C153 1.391 . S
C157 C156 1.371 . S
C157 H164 0.930 . S
H158 C155 0.928 . S
H159 C156 0.931 . S
H160 C136 0.930 . S
H161 C133 0.930 . S
H162 C142 0.930 . S
H163 C154 0.929 . S
H164 C157 0.930 . S
C165 C166 1.351 . S
C165 N168 1.368 . S
C165 H170 0.931 . S
C166 C165 1.351 . S
C166 N167 1.373 . S
C166 H194 0.930 . S
N167 C166 1.373 . S
N167 C169 1.340 . S
N168 C165 1.368 . S
N168 C169 1.321 . S
N168 Co171 2.135 . S
C169 N167 1.340 . S
C169 N168 1.321 . S
C169 H193 0.930 . S
H170 C165 0.931 . S
Co171 N168 2.135 . S
Co171 N174 2.121 . S
Co171 O179 2.055 . S
Co171 O182 2.039 . S
Co171 N185 2.140 . S
C172 O173 1.227 . S
C172 O182 1.265 . S
O173 C172 1.227 . S
N174 Co171 2.121 . S
N174 C176 1.375 . S
N174 C177 1.313 . S
C175 C176 1.338 . S
C175 N178 1.377 . S
C175 H195 0.930 . S
C176 N174 1.375 . S
C176 C175 1.338 . S
C176 H180 0.931 . S
C177 N174 1.313 . S
C177 N178 1.344 . S
C177 H181 0.930 . S
N178 C175 1.377 . S
N178 C177 1.344 . S
O179 Co171 2.055 . S
O179 C183 1.253 . S
H180 C176 0.931 . S
H181 C177 0.930 . S
O182 Co171 2.039 . S
O182 C172 1.265 . S
C183 O179 1.253 . S
C183 O184 1.227 . S
O184 C183 1.227 . S
N185 Co171 2.140 . S
N185 C188 1.346 . S
N185 C189 1.345 . S
C186 C187 1.387 . S
C186 C190 1.391 . S
C187 C186 1.387 . S
C187 C188 1.369 . S
C187 H196 0.929 . S
C188 N185 1.346 . S
C188 C187 1.369 . S
C188 H191 0.928 . S
C189 N185 1.345 . S
C189 C190 1.371 . S
C189 H192 0.931 . S
C190 C186 1.391 . S
C190 C189 1.371 . S
C190 H197 0.930 . S
H191 C188 0.928 . S
H192 C189 0.931 . S
H193 C169 0.930 . S
H194 C166 0.930 . S
H195 C175 0.930 . S
H196 C187 0.929 . S
H197 C190 0.930 . S
C198 C199 1.351 . S
C198 N201 1.368 . S
C198 H203 0.931 . S
C199 C198 1.351 . S
C199 N200 1.373 . S
C199 H227 0.930 . S
N200 C199 1.373 . S
N200 C202 1.340 . S
N201 C198 1.368 . S
N201 C202 1.321 . S
N201 Co204 2.135 . S
C202 N200 1.340 . S
C202 N201 1.321 . S
C202 H226 0.930 . S
H203 C198 0.931 . S
Co204 N201 2.135 . S
Co204 N207 2.121 . S
Co204 O212 2.055 . S
Co204 O215 2.039 . S
Co204 N218 2.140 1_455 S
C205 O206 1.227 1_455 S
C205 O215 1.265 . S
O206 C205 1.227 1_655 S
N207 Co204 2.121 . S
N207 C209 1.375 1_455 S
N207 C210 1.313 . S
C208 C209 1.338 . S
C208 N211 1.377 1_655 S
C208 H228 0.930 . S
C209 N207 1.375 1_655 S
C209 C208 1.338 . S
C209 H213 0.931 . S
C210 N207 1.313 . S
C210 N211 1.344 . S
C210 H214 0.930 . S
N211 C208 1.377 1_455 S
N211 C210 1.344 . S
O212 Co204 2.055 . S
O212 C216 1.253 . S
H213 C209 0.931 . S
H214 C210 0.930 . S
O215 Co204 2.039 . S
O215 C205 1.265 . S
C216 O212 1.253 . S
C216 O217 1.227 . S
O217 C216 1.227 . S
N218 Co204 2.140 1_655 S
N218 C221 1.346 . S
N218 C222 1.345 . S
C219 C220 1.387 . S
C219 C223 1.391 . S
C220 C219 1.387 . S
C220 C221 1.369 . S
C220 H229 0.929 . S
C221 N218 1.346 . S
C221 C220 1.369 . S
C221 H224 0.928 . S
C222 N218 1.345 . S
C222 C223 1.371 . S
C222 H225 0.931 . S
C223 C219 1.391 . S
C223 C222 1.371 . S
C223 H230 0.930 . S
H224 C221 0.928 . S
H225 C222 0.931 . S
H226 C202 0.930 . S
H227 C199 0.930 . S
H228 C208 0.930 . S
H229 C220 0.929 . S
H230 C223 0.930 . S
C231 C232 1.351 . S
C231 N234 1.368 . S
C231 H236 0.931 . S
C232 C231 1.351 . S
C232 N233 1.373 . S
C232 H260 0.930 . S
N233 C232 1.373 . S
N233 C235 1.340 . S
N234 C231 1.368 . S
N234 C235 1.321 . S
N234 Co237 2.135 . S
C235 N233 1.340 . S
C235 N234 1.321 . S
C235 H259 0.930 . S
H236 C231 0.931 . S
Co237 N234 2.135 . S
Co237 N240 2.121 . S
Co237 O245 2.055 . S
Co237 O248 2.039 . S
Co237 N251 2.140 1_545 S
C238 O239 1.227 1_545 S
C238 O248 1.265 . S
O239 C238 1.227 1_565 S
N240 Co237 2.121 . S
N240 C242 1.375 1_545 S
N240 C243 1.313 . S
C241 C242 1.338 . S
C241 N244 1.377 1_565 S
C241 H261 0.930 . S
C242 N240 1.375 1_565 S
C242 C241 1.338 . S
C242 H246 0.931 . S
C243 N240 1.313 . S
C243 N244 1.344 . S
C243 H247 0.930 . S
N244 C241 1.377 1_545 S
N244 C243 1.344 . S
O245 Co237 2.055 . S
O245 C249 1.253 . S
H246 C242 0.931 . S
H247 C243 0.930 . S
O248 Co237 2.039 . S
O248 C238 1.265 . S
C249 O245 1.253 . S
C249 O250 1.227 . S
O250 C249 1.227 . S
N251 Co237 2.140 1_565 S
N251 C254 1.346 . S
N251 C255 1.345 . S
C252 C253 1.387 . S
C252 C256 1.391 . S
C253 C252 1.387 . S
C253 C254 1.369 . S
C253 H262 0.929 . S
C254 N251 1.346 . S
C254 C253 1.369 . S
C254 H257 0.928 . S
C255 N251 1.345 . S
C255 C256 1.371 . S
C255 H258 0.931 . S
C256 C252 1.391 . S
C256 C255 1.371 . S
C256 H263 0.930 . S
H257 C254 0.928 . S
H258 C255 0.931 . S
H259 C235 0.930 . S
H260 C232 0.930 . S
H261 C241 0.930 . S
H262 C253 0.929 . S
H263 C256 0.930 . S
C264 C265 1.351 . S
C264 N267 1.368 . S
C264 H269 0.931 . S
C265 C264 1.351 . S
C265 N266 1.373 . S
C265 H293 0.930 . S
N266 C265 1.373 . S
N266 C268 1.340 . S
N267 C264 1.368 . S
N267 C268 1.321 . S
N267 Co270 2.135 . S
C268 N266 1.340 . S
C268 N267 1.321 . S
C268 H292 0.930 . S
H269 C264 0.931 . S
Co270 N267 2.135 . S
Co270 N273 2.121 . S
Co270 O278 2.055 . S
Co270 O281 2.039 . S
Co270 N284 2.140 . S
C271 O272 1.227 . S
C271 O281 1.265 . S
O272 C271 1.227 . S
N273 Co270 2.121 . S
N273 C275 1.375 . S
N273 C276 1.313 . S
C274 C275 1.338 . S
C274 N277 1.377 . S
C274 H294 0.930 . S
C275 N273 1.375 . S
C275 C274 1.338 . S
C275 H279 0.931 . S
C276 N273 1.313 . S
C276 N277 1.344 . S
C276 H280 0.930 . S
N277 C274 1.377 . S
N277 C276 1.344 . S
O278 Co270 2.055 . S
O278 C282 1.253 . S
H279 C275 0.931 . S
H280 C276 0.930 . S
O281 Co270 2.039 . S
O281 C271 1.265 . S
C282 O278 1.253 . S
C282 O283 1.227 . S
O283 C282 1.227 . S
N284 Co270 2.140 . S
N284 C287 1.346 . S
N284 C288 1.345 . S
C285 C286 1.387 . S
C285 C289 1.391 . S
C286 C285 1.387 . S
C286 C287 1.369 . S
C286 H295 0.929 . S
C287 N284 1.346 . S
C287 C286 1.369 . S
C287 H290 0.928 . S
C288 N284 1.345 . S
C288 C289 1.371 . S
C288 H291 0.931 . S
C289 C285 1.391 . S
C289 C288 1.371 . S
C289 H296 0.930 . S
H290 C287 0.928 . S
H291 C288 0.931 . S
H292 C268 0.930 . S
H293 C265 0.930 . S
H294 C274 0.930 . S
H295 C286 0.929 . S
H296 C289 0.930 . S
C297 C298 1.351 . S
C297 N300 1.368 . S
C297 H302 0.931 . S
C298 C297 1.351 . S
C298 N299 1.373 . S
C298 H326 0.930 . S
N299 C298 1.373 . S
N299 C301 1.340 . S
N300 C297 1.368 . S
N300 C301 1.321 . S
N300 Co303 2.135 . S
C301 N299 1.340 . S
C301 N300 1.321 . S
C301 H325 0.930 . S
H302 C297 0.931 . S
Co303 N300 2.135 . S
Co303 N306 2.121 . S
Co303 O311 2.055 . S
Co303 O314 2.039 . S
Co303 N317 2.140 . S
C304 O305 1.227 . S
C304 O314 1.265 . S
O305 C304 1.227 . S
N306 Co303 2.121 . S
N306 C308 1.375 . S
N306 C309 1.313 . S
C307 C308 1.338 . S
C307 N310 1.377 . S
C307 H327 0.930 . S
C308 N306 1.375 . S
C308 C307 1.338 . S
C308 H312 0.931 . S
C309 N306 1.313 . S
C309 N310 1.344 . S
C309 H313 0.930 . S
N310 C307 1.377 . S
N310 C309 1.344 . S
O311 Co303 2.055 . S
O311 C315 1.253 . S
H312 C308 0.931 . S
H313 C309 0.930 . S
O314 Co303 2.039 . S
O314 C304 1.265 . S
C315 O311 1.253 . S
C315 O316 1.227 . S
O316 C315 1.227 . S
N317 Co303 2.140 . S
N317 C320 1.346 . S
N317 C321 1.345 . S
C318 C319 1.387 . S
C318 C322 1.391 . S
C319 C318 1.387 . S
C319 C320 1.369 . S
C319 H328 0.929 . S
C320 N317 1.346 . S
C320 C319 1.369 . S
C320 H323 0.928 . S
C321 N317 1.345 . S
C321 C322 1.371 . S
C321 H324 0.931 . S
C322 C318 1.391 . S
C322 C321 1.371 . S
C322 H329 0.930 . S
H323 C320 0.928 . S
H324 C321 0.931 . S
H325 C301 0.930 . S
H326 C298 0.930 . S
H327 C307 0.930 . S
H328 C319 0.929 . S
H329 C322 0.930 . S
C330 C331 1.351 . S
C330 N333 1.368 . S
C330 H335 0.931 . S
C331 C330 1.351 . S
C331 N332 1.373 . S
C331 H359 0.930 . S
N332 C331 1.373 . S
N332 C334 1.340 . S
N333 C330 1.368 . S
N333 C334 1.321 . S
N333 Co336 2.135 . S
C334 N332 1.340 . S
C334 N333 1.321 . S
C334 H358 0.930 . S
H335 C330 0.931 . S
Co336 N333 2.135 . S
Co336 N339 2.121 . S
Co336 O344 2.055 . S
Co336 O347 2.039 . S
Co336 N350 2.140 1_655 S
C337 O338 1.227 1_655 S
C337 O347 1.265 . S
O338 C337 1.227 1_455 S
N339 Co336 2.121 . S
N339 C341 1.375 1_655 S
N339 C342 1.313 . S
C340 C341 1.338 . S
C340 N343 1.377 1_455 S
C340 H360 0.930 . S
C341 N339 1.375 1_455 S
C341 C340 1.338 . S
C341 H345 0.931 . S
C342 N339 1.313 . S
C342 N343 1.344 . S
C342 H346 0.930 . S
N343 C340 1.377 1_655 S
N343 C342 1.344 . S
O344 Co336 2.055 . S
O344 C348 1.253 . S
H345 C341 0.931 . S
H346 C342 0.930 . S
O347 Co336 2.039 . S
O347 C337 1.265 . S
C348 O344 1.253 . S
C348 O349 1.227 . S
O349 C348 1.227 . S
N350 Co336 2.140 1_455 S
N350 C353 1.346 . S
N350 C354 1.345 . S
C351 C352 1.387 . S
C351 C355 1.391 . S
C352 C351 1.387 . S
C352 C353 1.369 . S
C352 H361 0.929 . S
C353 N350 1.346 . S
C353 C352 1.369 . S
C353 H356 0.928 . S
C354 N350 1.345 . S
C354 C355 1.371 . S
C354 H357 0.931 . S
C355 C351 1.391 . S
C355 C354 1.371 . S
C355 H362 0.930 . S
H356 C353 0.928 . S
H357 C354 0.931 . S
H358 C334 0.930 . S
H359 C331 0.930 . S
H360 C340 0.930 . S
H361 C352 0.929 . S
H362 C355 0.930 . S
C363 C364 1.351 . S
C363 N366 1.368 . S
C363 H368 0.931 . S
C364 C363 1.351 . S
C364 N365 1.373 . S
C364 H392 0.930 . S
N365 C364 1.373 . S
N365 C367 1.340 . S
N366 C363 1.368 . S
N366 C367 1.321 . S
N366 Co369 2.135 . S
C367 N365 1.340 . S
C367 N366 1.321 . S
C367 H391 0.930 . S
H368 C363 0.931 . S
Co369 N366 2.135 . S
Co369 N372 2.121 . S
Co369 O377 2.055 . S
Co369 O380 2.039 . S
Co369 N383 2.140 1_565 S
C370 O371 1.227 1_565 S
C370 O380 1.265 . S
O371 C370 1.227 1_545 S
N372 Co369 2.121 . S
N372 C374 1.375 1_565 S
N372 C375 1.313 . S
C373 C374 1.338 . S
C373 N376 1.377 1_545 S
C373 H393 0.930 . S
C374 N372 1.375 1_545 S
C374 C373 1.338 . S
C374 H378 0.931 . S
C375 N372 1.313 . S
C375 N376 1.344 . S
C375 H379 0.930 . S
N376 C373 1.377 1_565 S
N376 C375 1.344 . S
O377 Co369 2.055 . S
O377 C381 1.253 . S
H378 C374 0.931 . S
H379 C375 0.930 . S
O380 Co369 2.039 . S
O380 C370 1.265 . S
C381 O377 1.253 . S
C381 O382 1.227 . S
O382 C381 1.227 . S
N383 Co369 2.140 1_545 S
N383 C386 1.346 . S
N383 C387 1.345 . S
C384 C385 1.387 . S
C384 C388 1.391 . S
C385 C384 1.387 . S
C385 C386 1.369 . S
C385 H394 0.929 . S
C386 N383 1.346 . S
C386 C385 1.369 . S
C386 H389 0.928 . S
C387 N383 1.345 . S
C387 C388 1.371 . S
C387 H390 0.931 . S
C388 C384 1.391 . S
C388 C387 1.371 . S
C388 H395 0.930 . S
H389 C386 0.928 . S
H390 C387 0.931 . S
H391 C367 0.930 . S
H392 C364 0.930 . S
H393 C373 0.930 . S
H394 C385 0.929 . S
H395 C388 0.930 . S
C396 C397 1.351 . S
C396 N399 1.368 . S
C396 H401 0.931 . S
C397 C396 1.351 . S
C397 N398 1.373 . S
C397 H425 0.930 . S
N398 C397 1.373 . S
N398 C400 1.340 . S
N399 C396 1.368 . S
N399 C400 1.321 . S
N399 Co402 2.135 . S
C400 N398 1.340 . S
C400 N399 1.321 . S
C400 H424 0.930 . S
H401 C396 0.931 . S
Co402 N399 2.135 . S
Co402 N405 2.121 . S
Co402 O410 2.055 . S
Co402 O413 2.039 . S
Co402 N416 2.140 . S
C403 O404 1.227 . S
C403 O413 1.265 . S
O404 C403 1.227 . S
N405 Co402 2.121 . S
N405 C407 1.375 . S
N405 C408 1.313 . S
C406 C407 1.338 . S
C406 N409 1.377 . S
C406 H426 0.930 . S
C407 N405 1.375 . S
C407 C406 1.338 . S
C407 H411 0.931 . S
C408 N405 1.313 . S
C408 N409 1.344 . S
C408 H412 0.930 . S
N409 C406 1.377 . S
N409 C408 1.344 . S
O410 Co402 2.055 . S
O410 C414 1.253 . S
H411 C407 0.931 . S
H412 C408 0.930 . S
O413 Co402 2.039 . S
O413 C403 1.265 . S
C414 O410 1.253 . S
C414 O415 1.227 . S
O415 C414 1.227 . S
N416 Co402 2.140 . S
N416 C419 1.346 . S
N416 C420 1.345 . S
C417 C418 1.387 . S
C417 C421 1.391 . S
C418 C417 1.387 . S
C418 C419 1.369 . S
C418 H427 0.929 . S
C419 N416 1.346 . S
C419 C418 1.369 . S
C419 H422 0.928 . S
C420 N416 1.345 . S
C420 C421 1.371 . S
C420 H423 0.931 . S
C421 C417 1.391 . S
C421 C420 1.371 . S
C421 H428 0.930 . S
H422 C419 0.928 . S
H423 C420 0.931 . S
H424 C400 0.930 . S
H425 C397 0.930 . S
H426 C406 0.930 . S
H427 C418 0.929 . S
H428 C421 0.930 . S
C429 C430 1.351 . S
C429 N432 1.368 . S
C429 H434 0.931 . S
C430 C429 1.351 . S
C430 N431 1.373 . S
C430 H458 0.930 . S
N431 C430 1.373 . S
N431 C433 1.340 . S
N432 C429 1.368 . S
N432 C433 1.321 . S
N432 Co435 2.135 . S
C433 N431 1.340 . S
C433 N432 1.321 . S
C433 H457 0.930 . S
H434 C429 0.931 . S
Co435 N432 2.135 . S
Co435 N438 2.121 . S
Co435 O443 2.055 . S
Co435 O446 2.039 . S
Co435 N449 2.140 . S
C436 O437 1.227 . S
C436 O446 1.265 . S
O437 C436 1.227 . S
N438 Co435 2.121 . S
N438 C440 1.375 . S
N438 C441 1.313 . S
C439 C440 1.338 . S
C439 N442 1.377 . S
C439 H459 0.930 . S
C440 N438 1.375 . S
C440 C439 1.338 . S
C440 H444 0.931 . S
C441 N438 1.313 . S
C441 N442 1.344 . S
C441 H445 0.930 . S
N442 C439 1.377 . S
N442 C441 1.344 . S
O443 Co435 2.055 . S
O443 C447 1.253 . S
H444 C440 0.931 . S
H445 C441 0.930 . S
O446 Co435 2.039 . S
O446 C436 1.265 . S
C447 O443 1.253 . S
C447 O448 1.227 . S
O448 C447 1.227 . S
N449 Co435 2.140 . S
N449 C452 1.346 . S
N449 C453 1.345 . S
C450 C451 1.387 . S
C450 C454 1.391 . S
C451 C450 1.387 . S
C451 C452 1.369 . S
C451 H460 0.929 . S
C452 N449 1.346 . S
C452 C451 1.369 . S
C452 H455 0.928 . S
C453 N449 1.345 . S
C453 C454 1.371 . S
C453 H456 0.931 . S
C454 C450 1.391 . S
C454 C453 1.371 . S
C454 H461 0.930 . S
H455 C452 0.928 . S
H456 C453 0.931 . S
H457 C433 0.930 . S
H458 C430 0.930 . S
H459 C439 0.930 . S
H460 C451 0.929 . S
H461 C454 0.930 . S
C462 C463 1.351 . S
C462 N465 1.368 . S
C462 H467 0.931 . S
C463 C462 1.351 . S
C463 N464 1.373 . S
C463 H491 0.930 . S
N464 C463 1.373 . S
N464 C466 1.340 . S
N465 C462 1.368 . S
N465 C466 1.321 . S
N465 Co468 2.135 . S
C466 N464 1.340 . S
C466 N465 1.321 . S
C466 H490 0.930 . S
H467 C462 0.931 . S
Co468 N465 2.135 . S
Co468 N471 2.121 . S
Co468 O476 2.055 . S
Co468 O479 2.039 . S
Co468 N482 2.140 1_655 S
C469 O470 1.227 1_655 S
C469 O479 1.265 . S
O470 C469 1.227 1_455 S
N471 Co468 2.121 . S
N471 C473 1.375 1_655 S
N471 C474 1.313 . S
C472 C473 1.338 . S
C472 N475 1.377 1_455 S
C472 H492 0.930 . S
C473 N471 1.375 1_455 S
C473 C472 1.338 . S
C473 H477 0.931 . S
C474 N471 1.313 . S
C474 N475 1.344 . S
C474 H478 0.930 . S
N475 C472 1.377 1_655 S
N475 C474 1.344 . S
O476 Co468 2.055 . S
O476 C480 1.253 . S
H477 C473 0.931 . S
H478 C474 0.930 . S
O479 Co468 2.039 . S
O479 C469 1.265 . S
C480 O476 1.253 . S
C480 O481 1.227 . S
O481 C480 1.227 . S
N482 Co468 2.140 1_455 S
N482 C485 1.346 . S
N482 C486 1.345 . S
C483 C484 1.387 . S
C483 C487 1.391 . S
C484 C483 1.387 . S
C484 C485 1.369 . S
C484 H493 0.929 . S
C485 N482 1.346 . S
C485 C484 1.369 . S
C485 H488 0.928 . S
C486 N482 1.345 . S
C486 C487 1.371 . S
C486 H489 0.931 . S
C487 C483 1.391 . S
C487 C486 1.371 . S
C487 H494 0.930 . S
H488 C485 0.928 . S
H489 C486 0.931 . S
H490 C466 0.930 . S
H491 C463 0.930 . S
H492 C472 0.930 . S
H493 C484 0.929 . S
H494 C487 0.930 . S
C495 C496 1.351 . S
C495 N498 1.368 . S
C495 H500 0.931 . S
C496 C495 1.351 . S
C496 N497 1.373 . S
C496 H524 0.930 . S
N497 C496 1.373 . S
N497 C499 1.340 . S
N498 C495 1.368 . S
N498 C499 1.321 . S
N498 Co501 2.135 . S
C499 N497 1.340 . S
C499 N498 1.321 . S
C499 H523 0.930 . S
H500 C495 0.931 . S
Co501 N498 2.135 . S
Co501 N504 2.121 . S
Co501 O509 2.055 . S
Co501 O512 2.039 . S
Co501 N515 2.140 1_565 S
C502 O503 1.227 1_565 S
C502 O512 1.265 . S
O503 C502 1.227 1_545 S
N504 Co501 2.121 . S
N504 C506 1.375 1_565 S
N504 C507 1.313 . S
C505 C506 1.338 . S
C505 N508 1.377 1_545 S
C505 H525 0.930 . S
C506 N504 1.375 1_545 S
C506 C505 1.338 . S
C506 H510 0.931 . S
C507 N504 1.313 . S
C507 N508 1.344 . S
C507 H511 0.930 . S
N508 C505 1.377 1_565 S
N508 C507 1.344 . S
O509 Co501 2.055 . S
O509 C513 1.253 . S
H510 C506 0.931 . S
H511 C507 0.930 . S
O512 Co501 2.039 . S
O512 C502 1.265 . S
C513 O509 1.253 . S
C513 O514 1.227 . S
O514 C513 1.227 . S
N515 Co501 2.140 1_545 S
N515 C518 1.346 . S
N515 C519 1.345 . S
C516 C517 1.387 . S
C516 C520 1.391 . S
C517 C516 1.387 . S
C517 C518 1.369 . S
C517 H526 0.929 . S
C518 N515 1.346 . S
C518 C517 1.369 . S
C518 H521 0.928 . S
C519 N515 1.345 . S
C519 C520 1.371 . S
C519 H522 0.931 . S
C520 C516 1.391 . S
C520 C519 1.371 . S
C520 H527 0.930 . S
H521 C518 0.928 . S
H522 C519 0.931 . S
H523 C499 0.930 . S
H524 C496 0.930 . S
H525 C505 0.930 . S
H526 C517 0.929 . S
H527 C520 0.930 . S
H528 C536 0.929 . S
H529 C538 0.930 . S
H530 C540 0.930 . S
H531 C543 0.929 . S
H532 C546 0.930 . S
H533 C548 0.960 . S
H534 C548 0.960 . S
H535 C548 0.960 . S
C536 H528 0.929 . S
C536 C537 1.377 . S
C536 C538 1.384 . S
C537 C536 1.377 . S
C537 C543 1.390 . S
C538 H529 0.930 . S
C538 C536 1.384 . S
C538 C539 1.372 . S
C539 C538 1.372 . S
C539 C540 1.400 . S
C539 C544 1.490 . S
C540 H530 0.930 . S
C540 C539 1.400 . S
C540 C543 1.386 . S
H541 C557 0.930 . S
H542 C558 0.931 . S
C543 H531 0.929 . S
C543 C537 1.390 . S
C543 C540 1.386 . S
C544 C539 1.490 . S
C544 C546 1.395 . S
C544 C547 1.403 . S
H545 C551 0.930 . S
C546 H532 0.930 . S
C546 C544 1.395 . S
C546 C549 1.403 1_554 S
C547 C544 1.403 . S
C547 C548 1.524 . S
C547 C551 1.400 1_554 S
C548 H533 0.960 . S
C548 H534 0.960 . S
C548 H535 0.960 . S
C548 C547 1.524 . S
C549 C546 1.403 1_556 S
C549 C550 1.392 . S
C549 C553 1.495 . S
C550 C549 1.392 . S
C550 C551 1.385 . S
C550 C552 1.478 . S
C551 H545 0.930 . S
C551 C547 1.400 1_556 S
C551 C550 1.385 . S
C552 C550 1.478 . S
C552 C554 1.381 . S
C552 C558 1.383 . S
C553 C549 1.495 . S
C553 H559 0.959 . S
C553 H560 0.961 . S
C553 H561 0.960 . S
C554 C552 1.381 . S
C554 C555 1.394 . S
C554 H562 0.930 . S
C555 C554 1.394 . S
C555 C556 1.383 . S
C555 H563 0.929 . S
C556 C555 1.383 . S
C556 C557 1.377 . S
C557 H541 0.930 . S
C557 C556 1.377 . S
C557 C558 1.379 . S
C558 H542 0.931 . S
C558 C552 1.383 . S
C558 C557 1.379 . S
H559 C553 0.959 . S
H560 C553 0.961 . S
H561 C553 0.960 . S
H562 C554 0.930 . S
H563 C555 0.929 . S
H564 C572 0.929 . S
H565 C574 0.930 . S
H566 C576 0.930 . S
H567 C579 0.929 . S
H568 C582 0.930 . S
H569 C584 0.960 . S
H570 C584 0.960 . S
H571 C584 0.960 . S
C572 H564 0.929 . S
C572 C573 1.377 . S
C572 C574 1.384 . S
C573 C572 1.377 . S
C573 C579 1.390 . S
C574 H565 0.930 . S
C574 C572 1.384 . S
C574 C575 1.372 . S
C575 C574 1.372 . S
C575 C576 1.400 . S
C575 C580 1.490 . S
C576 H566 0.930 . S
C576 C575 1.400 . S
C576 C579 1.386 . S
H577 C593 0.930 . S
H578 C594 0.931 . S
C579 H567 0.929 . S
C579 C573 1.390 . S
C579 C576 1.386 . S
C580 C575 1.490 . S
C580 C582 1.395 . S
C580 C583 1.403 . S
H581 C587 0.930 . S
C582 H568 0.930 . S
C582 C580 1.395 . S
C582 C585 1.403 . S
C583 C580 1.403 . S
C583 C584 1.524 . S
C583 C587 1.400 . S
C584 H569 0.960 . S
C584 H570 0.960 . S
C584 H571 0.960 . S
C584 C583 1.524 . S
C585 C582 1.403 . S
C585 C586 1.392 . S
C585 C589 1.495 . S
C586 C585 1.392 . S
C586 C587 1.385 . S
C586 C588 1.478 . S
C587 H581 0.930 . S
C587 C583 1.400 . S
C587 C586 1.385 . S
C588 C586 1.478 . S
C588 C590 1.381 . S
C588 C594 1.383 . S
C589 C585 1.495 . S
C589 H595 0.959 . S
C589 H596 0.961 . S
C589 H597 0.960 . S
C590 C588 1.381 . S
C590 C591 1.394 . S
C590 H598 0.930 . S
C591 C590 1.394 . S
C591 C592 1.383 . S
C591 H599 0.929 . S
C592 C591 1.383 . S
C592 C593 1.377 . S
C593 H577 0.930 . S
C593 C592 1.377 . S
C593 C594 1.379 . S
C594 H578 0.931 . S
C594 C588 1.383 . S
C594 C593 1.379 . S
H595 C589 0.959 . S
H596 C589 0.961 . S
H597 C589 0.960 . S
H598 C590 0.930 . S
H599 C591 0.929 . S
H600 C608 0.929 . S
H601 C610 0.930 . S
H602 C612 0.930 . S
H603 C615 0.929 . S
H604 C618 0.930 . S
H605 C620 0.960 . S
H606 C620 0.960 . S
H607 C620 0.960 . S
C608 H600 0.929 . S
C608 C609 1.377 . S
C608 C610 1.384 . S
C609 C608 1.377 . S
C609 C615 1.390 . S
C610 H601 0.930 . S
C610 C608 1.384 . S
C610 C611 1.372 . S
C611 C610 1.372 . S
C611 C612 1.400 . S
C611 C616 1.490 . S
C612 H602 0.930 . S
C612 C611 1.400 . S
C612 C615 1.386 . S
H613 C629 0.930 . S
H614 C630 0.931 . S
C615 H603 0.929 . S
C615 C609 1.390 . S
C615 C612 1.386 . S
C616 C611 1.490 . S
C616 C618 1.395 1_455 S
C616 C619 1.403 . S
H617 C623 0.930 . S
C618 H604 0.930 . S
C618 C616 1.395 1_655 S
C618 C621 1.403 1_556 S
C619 C616 1.403 . S
C619 C620 1.524 . S
C619 C623 1.400 1_556 S
C620 H605 0.960 . S
C620 H606 0.960 . S
C620 H607 0.960 . S
C620 C619 1.524 . S
C621 C618 1.403 1_554 S
C621 C622 1.392 1_655 S
C621 C625 1.495 . S
C622 C621 1.392 1_455 S
C622 C623 1.385 . S
C622 C624 1.478 . S
C623 H617 0.930 . S
C623 C619 1.400 1_554 S
C623 C622 1.385 . S
C624 C622 1.478 . S
C624 C626 1.381 . S
C624 C630 1.383 . S
C625 C621 1.495 . S
C625 H631 0.959 . S
C625 H632 0.961 . S
C625 H633 0.960 . S
C626 C624 1.381 . S
C626 C627 1.394 . S
C626 H634 0.930 . S
C627 C626 1.394 . S
C627 C628 1.383 . S
C627 H635 0.929 . S
C628 C627 1.383 . S
C628 C629 1.377 . S
C629 H613 0.930 . S
C629 C628 1.377 . S
C629 C630 1.379 . S
C630 H614 0.931 . S
C630 C624 1.383 . S
C630 C629 1.379 . S
H631 C625 0.959 . S
H632 C625 0.961 . S
H633 C625 0.960 . S
H634 C626 0.930 . S
H635 C627 0.929 . S
H636 C644 0.929 . S
H637 C646 0.930 . S
H638 C648 0.930 . S
H639 C651 0.929 . S
H640 C654 0.930 . S
H641 C656 0.960 . S
H642 C656 0.960 . S
H643 C656 0.960 . S
C644 H636 0.929 . S
C644 C645 1.377 . S
C644 C646 1.384 . S
C645 C644 1.377 . S
C645 C651 1.390 . S
C646 H637 0.930 . S
C646 C644 1.384 . S
C646 C647 1.372 . S
C647 C646 1.372 . S
C647 C648 1.400 . S
C647 C652 1.490 . S
C648 H638 0.930 . S
C648 C647 1.400 . S
C648 C651 1.386 . S
H649 C665 0.930 . S
H650 C666 0.931 . S
C651 H639 0.929 . S
C651 C645 1.390 . S
C651 C648 1.386 . S
C652 C647 1.490 . S
C652 C654 1.395 1_545 S
C652 C655 1.403 . S
H653 C659 0.930 . S
C654 H640 0.930 . S
C654 C652 1.395 1_565 S
C654 C657 1.403 . S
C655 C652 1.403 . S
C655 C656 1.524 . S
C655 C659 1.400 . S
C656 H641 0.960 . S
C656 H642 0.960 . S
C656 H643 0.960 . S
C656 C655 1.524 . S
C657 C654 1.403 . S
C657 C658 1.392 1_565 S
C657 C661 1.495 . S
C658 C657 1.392 1_545 S
C658 C659 1.385 . S
C658 C660 1.478 . S
C659 H653 0.930 . S
C659 C655 1.400 . S
C659 C658 1.385 . S
C660 C658 1.478 . S
C660 C662 1.381 . S
C660 C666 1.383 . S
C661 C657 1.495 . S
C661 H667 0.959 . S
C661 H668 0.961 . S
C661 H669 0.960 . S
C662 C660 1.381 . S
C662 C663 1.394 . S
C662 H670 0.930 . S
C663 C662 1.394 . S
C663 C664 1.383 . S
C663 H671 0.929 . S
C664 C663 1.383 . S
C664 C665 1.377 . S
C665 H649 0.930 . S
C665 C664 1.377 . S
C665 C666 1.379 . S
C666 H650 0.931 . S
C666 C660 1.383 . S
C666 C665 1.379 . S
H667 C661 0.959 . S
H668 C661 0.961 . S
H669 C661 0.960 . S
H670 C662 0.930 . S
H671 C663 0.929 . S
H672 C680 0.929 . S
H673 C682 0.930 . S
H674 C684 0.930 . S
H675 C687 0.929 . S
H676 C690 0.930 . S
H677 C692 0.960 . S
H678 C692 0.960 . S
H679 C692 0.960 . S
C680 H672 0.929 . S
C680 C681 1.377 . S
C680 C682 1.384 . S
C681 C680 1.377 . S
C681 C687 1.390 . S
C682 H673 0.930 . S
C682 C680 1.384 . S
C682 C683 1.372 . S
C683 C682 1.372 . S
C683 C684 1.400 . S
C683 C688 1.490 . S
C684 H674 0.930 . S
C684 C683 1.400 . S
C684 C687 1.386 . S
H685 C701 0.930 . S
H686 C702 0.931 . S
C687 H675 0.929 . S
C687 C681 1.390 . S
C687 C684 1.386 . S
C688 C683 1.490 . S
C688 C690 1.395 . S
C688 C691 1.403 . S
H689 C695 0.930 . S
C690 H676 0.930 . S
C690 C688 1.395 . S
C690 C693 1.403 1_556 S
C691 C688 1.403 . S
C691 C692 1.524 . S
C691 C695 1.400 1_556 S
C692 H677 0.960 . S
C692 H678 0.960 . S
C692 H679 0.960 . S
C692 C691 1.524 . S
C693 C690 1.403 1_554 S
C693 C694 1.392 . S
C693 C697 1.495 . S
C694 C693 1.392 . S
C694 C695 1.385 . S
C694 C696 1.478 . S
C695 H689 0.930 . S
C695 C691 1.400 1_554 S
C695 C694 1.385 . S
C696 C694 1.478 . S
C696 C698 1.381 . S
C696 C702 1.383 . S
C697 C693 1.495 . S
C697 H703 0.959 . S
C697 H704 0.961 . S
C697 H705 0.960 . S
C698 C696 1.381 . S
C698 C699 1.394 . S
C698 H706 0.930 . S
C699 C698 1.394 . S
C699 C700 1.383 . S
C699 H707 0.929 . S
C700 C699 1.383 . S
C700 C701 1.377 . S
C701 H685 0.930 . S
C701 C700 1.377 . S
C701 C702 1.379 . S
C702 H686 0.931 . S
C702 C696 1.383 . S
C702 C701 1.379 . S
H703 C697 0.959 . S
H704 C697 0.961 . S
H705 C697 0.960 . S
H706 C698 0.930 . S
H707 C699 0.929 . S
H708 C716 0.929 . S
H709 C718 0.930 . S
H710 C720 0.930 . S
H711 C723 0.929 . S
H712 C726 0.930 . S
H713 C728 0.960 . S
H714 C728 0.960 . S
H715 C728 0.960 . S
C716 H708 0.929 . S
C716 C717 1.377 . S
C716 C718 1.384 . S
C717 C716 1.377 . S
C717 C723 1.390 . S
C718 H709 0.930 . S
C718 C716 1.384 . S
C718 C719 1.372 . S
C719 C718 1.372 . S
C719 C720 1.400 . S
C719 C724 1.490 . S
C720 H710 0.930 . S
C720 C719 1.400 . S
C720 C723 1.386 . S
H721 C737 0.930 . S
H722 C738 0.931 . S
C723 H711 0.929 . S
C723 C717 1.390 . S
C723 C720 1.386 . S
C724 C719 1.490 . S
C724 C726 1.395 . S
C724 C727 1.403 . S
H725 C731 0.930 . S
C726 H712 0.930 . S
C726 C724 1.395 . S
C726 C729 1.403 . S
C727 C724 1.403 . S
C727 C728 1.524 . S
C727 C731 1.400 . S
C728 H713 0.960 . S
C728 H714 0.960 . S
C728 H715 0.960 . S
C728 C727 1.524 . S
C729 C726 1.403 . S
C729 C730 1.392 . S
C729 C733 1.495 . S
C730 C729 1.392 . S
C730 C731 1.385 . S
C730 C732 1.478 . S
C731 H725 0.930 . S
C731 C727 1.400 . S
C731 C730 1.385 . S
C732 C730 1.478 . S
C732 C734 1.381 . S
C732 C738 1.383 . S
C733 C729 1.495 . S
C733 H739 0.959 . S
C733 H740 0.961 . S
C733 H741 0.960 . S
C734 C732 1.381 . S
C734 C735 1.394 . S
C734 H742 0.930 . S
C735 C734 1.394 . S
C735 C736 1.383 . S
C735 H743 0.929 . S
C736 C735 1.383 . S
C736 C737 1.377 . S
C737 H721 0.930 . S
C737 C736 1.377 . S
C737 C738 1.379 . S
C738 H722 0.931 . S
C738 C732 1.383 . S
C738 C737 1.379 . S
H739 C733 0.959 . S
H740 C733 0.961 . S
H741 C733 0.960 . S
H742 C734 0.930 . S
H743 C735 0.929 . S
H744 C752 0.929 1_455 S
H745 C754 0.930 1_455 S
H746 C756 0.930 . S
H747 C759 0.929 . S
H748 C762 0.930 . S
H749 C764 0.960 . S
H750 C764 0.960 . S
H751 C764 0.960 . S
C752 H744 0.929 1_655 S
C752 C753 1.377 . S
C752 C754 1.384 . S
C753 C752 1.377 . S
C753 C759 1.390 . S
C754 H745 0.930 1_655 S
C754 C752 1.384 . S
C754 C755 1.372 . S
C755 C754 1.372 . S
C755 C756 1.400 . S
C755 C760 1.490 . S
C756 H746 0.930 . S
C756 C755 1.400 . S
C756 C759 1.386 . S
H757 C773 0.930 . S
H758 C774 0.931 . S
C759 H747 0.929 . S
C759 C753 1.390 . S
C759 C756 1.386 . S
C760 C755 1.490 . S
C760 C762 1.395 1_655 S
C760 C763 1.403 . S
H761 C767 0.930 . S
C762 H748 0.930 . S
C762 C760 1.395 1_455 S
C762 C765 1.403 1_554 S
C763 C760 1.403 . S
C763 C764 1.524 . S
C763 C767 1.400 1_554 S
C764 H749 0.960 . S
C764 H750 0.960 . S
C764 H751 0.960 . S
C764 C763 1.524 . S
C765 C762 1.403 1_556 S
C765 C766 1.392 1_455 S
C765 C769 1.495 . S
C766 C765 1.392 1_655 S
C766 C767 1.385 . S
C766 C768 1.478 . S
C767 H761 0.930 . S
C767 C763 1.400 1_556 S
C767 C766 1.385 . S
C768 C766 1.478 . S
C768 C770 1.381 . S
C768 C774 1.383 . S
C769 C765 1.495 . S
C769 H775 0.959 . S
C769 H776 0.961 . S
C769 H777 0.960 . S
C770 C768 1.381 . S
C770 C771 1.394 . S
C770 H778 0.930 1_655 S
C771 C770 1.394 . S
C771 C772 1.383 . S
C771 H779 0.929 1_655 S
C772 C771 1.383 . S
C772 C773 1.377 . S
C773 H757 0.930 . S
C773 C772 1.377 . S
C773 C774 1.379 . S
C774 H758 0.931 . S
C774 C768 1.383 . S
C774 C773 1.379 . S
H775 C769 0.959 . S
H776 C769 0.961 . S
H777 C769 0.960 . S
H778 C770 0.930 1_455 S
H779 C771 0.929 1_455 S
H780 C788 0.929 . S
H781 C790 0.930 . S
H782 C792 0.930 . S
H783 C795 0.929 . S
H784 C798 0.930 . S
H785 C800 0.960 . S
H786 C800 0.960 . S
H787 C800 0.960 . S
C788 H780 0.929 . S
C788 C789 1.377 1_545 S
C788 C790 1.384 . S
C789 C788 1.377 1_565 S
C789 C795 1.390 . S
C790 H781 0.930 . S
C790 C788 1.384 . S
C790 C791 1.372 1_545 S
C791 C790 1.372 1_565 S
C791 C792 1.400 . S
C791 C796 1.490 . S
C792 H782 0.930 . S
C792 C791 1.400 . S
C792 C795 1.386 . S
H793 C809 0.930 . S
H794 C810 0.931 . S
C795 H783 0.929 . S
C795 C789 1.390 . S
C795 C792 1.386 . S
C796 C791 1.490 . S
C796 C798 1.395 1_565 S
C796 C799 1.403 . S
H797 C803 0.930 . S
C798 H784 0.930 . S
C798 C796 1.395 1_545 S
C798 C801 1.403 . S
C799 C796 1.403 . S
C799 C800 1.524 . S
C799 C803 1.400 . S
C800 H785 0.960 . S
C800 H786 0.960 . S
C800 H787 0.960 . S
C800 C799 1.524 . S
C801 C798 1.403 . S
C801 C802 1.392 1_545 S
C801 C805 1.495 . S
C802 C801 1.392 1_565 S
C802 C803 1.385 . S
C802 C804 1.478 . S
C803 H797 0.930 . S
C803 C799 1.400 . S
C803 C802 1.385 . S
C804 C802 1.478 . S
C804 C806 1.381 1_565 S
C804 C810 1.383 . S
C805 C801 1.495 . S
C805 H811 0.959 . S
C805 H812 0.961 . S
C805 H813 0.960 . S
C806 C804 1.381 1_545 S
C806 C807 1.394 . S
C806 H814 0.930 . S
C807 C806 1.394 . S
C807 C808 1.383 1_545 S
C807 H815 0.929 . S
C808 C807 1.383 1_565 S
C808 C809 1.377 . S
C809 H793 0.930 . S
C809 C808 1.377 . S
C809 C810 1.379 . S
C810 H794 0.931 . S
C810 C804 1.383 . S
C810 C809 1.379 . S
H811 C805 0.959 . S
H812 C805 0.961 . S
H813 C805 0.960 . S
H814 C806 0.930 . S
H815 C807 0.929 . S
H816 C824 0.929 . S
H817 C826 0.930 . S
H818 C828 0.930 . S
H819 C831 0.929 . S
H820 C834 0.930 . S
H821 C836 0.960 . S
H822 C836 0.960 . S
H823 C836 0.960 . S
C824 H816 0.929 . S
C824 C825 1.377 . S
C824 C826 1.384 . S
C825 C824 1.377 . S
C825 C831 1.390 . S
C826 H817 0.930 . S
C826 C824 1.384 . S
C826 C827 1.372 . S
C827 C826 1.372 . S
C827 C828 1.400 . S
C827 C832 1.490 . S
C828 H818 0.930 . S
C828 C827 1.400 . S
C828 C831 1.386 . S
H829 C845 0.930 . S
H830 C846 0.931 . S
C831 H819 0.929 . S
C831 C825 1.390 . S
C831 C828 1.386 . S
C832 C827 1.490 . S
C832 C834 1.395 . S
C832 C835 1.403 . S
H833 C839 0.930 . S
C834 H820 0.930 . S
C834 C832 1.395 . S
C834 C837 1.403 . S
C835 C832 1.403 . S
C835 C836 1.524 . S
C835 C839 1.400 . S
C836 H821 0.960 . S
C836 H822 0.960 . S
C836 H823 0.960 . S
C836 C835 1.524 . S
C837 C834 1.403 . S
C837 C838 1.392 1_565 S
C837 C841 1.495 1_565 S
C838 C837 1.392 1_545 S
C838 C839 1.385 1_545 S
C838 C840 1.478 . S
C839 H833 0.930 . S
C839 C835 1.400 . S
C839 C838 1.385 1_565 S
C840 C838 1.478 . S
C840 C842 1.381 . S
C840 C846 1.383 . S
C841 C837 1.495 1_545 S
C841 H847 0.959 1_545 S
C841 H848 0.961 . S
C841 H849 0.960 . S
C842 C840 1.381 . S
C842 C843 1.394 . S
C842 H850 0.930 . S
C843 C842 1.394 . S
C843 C844 1.383 . S
C843 H851 0.929 . S
C844 C843 1.383 . S
C844 C845 1.377 . S
C845 H829 0.930 . S
C845 C844 1.377 . S
C845 C846 1.379 . S
C846 H830 0.931 . S
C846 C840 1.383 . S
C846 C845 1.379 . S
H847 C841 0.959 1_565 S
H848 C841 0.961 . S
H849 C841 0.960 . S
H850 C842 0.930 . S
H851 C843 0.929 . S
H852 C860 0.929 . S
H853 C862 0.930 . S
H854 C864 0.930 . S
H855 C867 0.929 . S
H856 C870 0.930 . S
H857 C872 0.960 . S
H858 C872 0.960 . S
H859 C872 0.960 . S
C860 H852 0.929 . S
C860 C861 1.377 . S
C860 C862 1.384 . S
C861 C860 1.377 . S
C861 C867 1.390 . S
C862 H853 0.930 . S
C862 C860 1.384 . S
C862 C863 1.372 . S
C863 C862 1.372 . S
C863 C864 1.400 . S
C863 C868 1.490 . S
C864 H854 0.930 . S
C864 C863 1.400 . S
C864 C867 1.386 . S
H865 C881 0.930 . S
H866 C882 0.931 . S
C867 H855 0.929 . S
C867 C861 1.390 . S
C867 C864 1.386 . S
C868 C863 1.490 . S
C868 C870 1.395 . S
C868 C871 1.403 . S
H869 C875 0.930 . S
C870 H856 0.930 . S
C870 C868 1.395 . S
C870 C873 1.403 . S
C871 C868 1.403 . S
C871 C872 1.524 . S
C871 C875 1.400 . S
C872 H857 0.960 . S
C872 H858 0.960 . S
C872 H859 0.960 . S
C872 C871 1.524 . S
C873 C870 1.403 . S
C873 C874 1.392 . S
C873 C877 1.495 . S
C874 C873 1.392 . S
C874 C875 1.385 . S
C874 C876 1.478 . S
C875 H869 0.930 . S
C875 C871 1.400 . S
C875 C874 1.385 . S
C876 C874 1.478 . S
C876 C878 1.381 . S
C876 C882 1.383 . S
C877 C873 1.495 . S
C877 H883 0.959 . S
C877 H884 0.961 . S
C877 H885 0.960 . S
C878 C876 1.381 . S
C878 C879 1.394 . S
C878 H886 0.930 . S
C879 C878 1.394 . S
C879 C880 1.383 . S
C879 H887 0.929 . S
C880 C879 1.383 . S
C880 C881 1.377 . S
C881 H865 0.930 . S
C881 C880 1.377 . S
C881 C882 1.379 . S
C882 H866 0.931 . S
C882 C876 1.383 . S
C882 C881 1.379 . S
H883 C877 0.959 . S
H884 C877 0.961 . S
H885 C877 0.960 . S
H886 C878 0.930 . S
H887 C879 0.929 . S
H888 C896 0.929 . S
H889 C898 0.930 . S
H890 C900 0.930 . S
H891 C903 0.929 . S
H892 C906 0.930 . S
H893 C908 0.960 . S
H894 C908 0.960 . S
H895 C908 0.960 . S
C896 H888 0.929 . S
C896 C897 1.377 . S
C896 C898 1.384 . S
C897 C896 1.377 . S
C897 C903 1.390 1_455 S
C898 H889 0.930 . S
C898 C896 1.384 . S
C898 C899 1.372 1_455 S
C899 C898 1.372 1_655 S
C899 C900 1.400 . S
C899 C904 1.490 . S
C900 H890 0.930 . S
C900 C899 1.400 . S
C900 C903 1.386 . S
H901 C917 0.930 . S
H902 C918 0.931 . S
C903 H891 0.929 . S
C903 C897 1.390 1_655 S
C903 C900 1.386 . S
C904 C899 1.490 . S
C904 C906 1.395 1_655 S
C904 C907 1.403 . S
H905 C911 0.930 . S
C906 H892 0.930 . S
C906 C904 1.395 1_455 S
C906 C909 1.403 . S
C907 C904 1.403 . S
C907 C908 1.524 . S
C907 C911 1.400 . S
C908 H893 0.960 . S
C908 H894 0.960 . S
C908 H895 0.960 . S
C908 C907 1.524 . S
C909 C906 1.403 . S
C909 C910 1.392 1_455 S
C909 C913 1.495 . S
C910 C909 1.392 1_655 S
C910 C911 1.385 . S
C910 C912 1.478 . S
C911 H905 0.930 . S
C911 C907 1.400 . S
C911 C910 1.385 . S
C912 C910 1.478 . S
C912 C914 1.381 1_655 S
C912 C918 1.383 . S
C913 C909 1.495 . S
C913 H919 0.959 . S
C913 H920 0.961 . S
C913 H921 0.960 . S
C914 C912 1.381 1_455 S
C914 C915 1.394 . S
C914 H922 0.930 . S
C915 C914 1.394 . S
C915 C916 1.383 1_455 S
C915 H923 0.929 . S
C916 C915 1.383 1_655 S
C916 C917 1.377 . S
C917 H901 0.930 . S
C917 C916 1.377 . S
C917 C918 1.379 . S
C918 H902 0.931 . S
C918 C912 1.383 . S
C918 C917 1.379 . S
H919 C913 0.959 . S
H920 C913 0.961 . S
H921 C913 0.960 . S
H922 C914 0.930 . S
H923 C915 0.929 . S
H924 C932 0.929 . S
H925 C934 0.930 . S
H926 C936 0.930 1_545 S
H927 C939 0.936 . S
H928 C942 0.930 . S
H929 C944 0.960 . S
H930 C944 0.960 . S
H931 C944 0.960 . S
C932 H924 0.929 . S
C932 C933 1.377 . S
C932 C934 1.384 . S
C933 C932 1.377 . S
C933 C939 1.390 . S
C934 H925 0.930 . S
C934 C932 1.384 . S
C934 C935 1.372 . S
C935 C934 1.372 . S
C935 C936 1.400 . S
C935 C940 1.490 . S
C936 H926 0.930 1_565 S
C936 C935 1.400 . S
C936 C939 1.386 . S
H937 C953 0.930 . S
H938 C954 0.931 . S
C939 H927 0.936 . S
C939 C933 1.390 . S
C939 C936 1.386 . S
C940 C935 1.490 . S
C940 C942 1.395 . S
C940 C943 1.403 1_565 S
H941 C947 0.930 . S
C942 H928 0.930 . S
C942 C940 1.395 . S
C942 C945 1.403 . S
C943 C940 1.403 1_545 S
C943 C944 1.524 . S
C943 C947 1.400 . S
C944 H929 0.960 . S
C944 H930 0.960 . S
C944 H931 0.960 . S
C944 C943 1.524 . S
C945 C942 1.403 . S
C945 C946 1.392 1_655 S
C945 C949 1.495 1_655 S
C946 C945 1.392 1_455 S
C946 C947 1.385 1_465 S
C946 C948 1.478 . S
C947 H941 0.930 . S
C947 C943 1.400 . S
C947 C946 1.385 1_645 S
C948 C946 1.478 . S
C948 C950 1.381 . S
C948 C954 1.383 1_565 S
C949 C945 1.495 1_455 S
C949 H955 0.959 1_455 S
C949 H956 0.961 . S
C949 H957 0.960 . S
C950 C948 1.381 . S
C950 C951 1.394 . S
C950 H958 0.930 . S
C951 C950 1.394 . S
C951 C952 1.383 1_565 S
C951 H959 0.929 . S
C952 C951 1.383 1_545 S
C952 C953 1.377 . S
C953 H937 0.930 . S
C953 C952 1.377 . S
C953 C954 1.379 . S
C954 H938 0.931 . S
C954 C948 1.383 1_545 S
C954 C953 1.379 . S
H955 C949 0.959 1_655 S
H956 C949 0.961 . S
H957 C949 0.960 . S
H958 C950 0.930 . S
H959 C951 0.929 . S
H960 C968 0.929 . S
H961 C970 0.930 . S
H962 C972 0.930 . S
H963 C975 0.929 . S
H964 C978 0.930 . S
H965 C980 0.960 . S
H966 C980 0.960 . S
H967 C980 0.960 . S
C968 H960 0.929 . S
C968 C969 1.377 . S
C968 C970 1.384 . S
C969 C968 1.377 . S
C969 C975 1.390 . S
C970 H961 0.930 . S
C970 C968 1.384 . S
C970 C971 1.372 . S
C971 C970 1.372 . S
C971 C972 1.400 . S
C971 C976 1.490 . S
C972 H962 0.930 . S
C972 C971 1.400 . S
C972 C975 1.386 . S
H973 C989 0.930 . S
H974 C990 0.931 . S
C975 H963 0.929 . S
C975 C969 1.390 . S
C975 C972 1.386 . S
C976 C971 1.490 . S
C976 C978 1.395 . S
C976 C979 1.403 . S
H977 C983 0.930 . S
C978 H964 0.930 . S
C978 C976 1.395 . S
C978 C981 1.403 . S
C979 C976 1.403 . S
C979 C980 1.524 . S
C979 C983 1.400 . S
C980 H965 0.960 . S
C980 H966 0.960 . S
C980 H967 0.960 . S
C980 C979 1.524 . S
C981 C978 1.403 . S
C981 C982 1.392 . S
C981 C985 1.495 . S
C982 C981 1.392 . S
C982 C983 1.385 . S
C982 C984 1.478 . S
C983 H977 0.930 . S
C983 C979 1.400 . S
C983 C982 1.385 . S
C984 C982 1.478 . S
C984 C986 1.381 . S
C984 C990 1.383 . S
C985 C981 1.495 . S
C985 H991 0.959 . S
C985 H992 0.961 . S
C985 H993 0.960 . S
C986 C984 1.381 . S
C986 C987 1.394 . S
C986 H994 0.930 . S
C987 C986 1.394 . S
C987 C988 1.383 . S
C987 H995 0.929 . S
C988 C987 1.383 . S
C988 C989 1.377 . S
C989 H973 0.930 . S
C989 C988 1.377 . S
C989 C990 1.379 . S
C990 H974 0.931 . S
C990 C984 1.383 . S
C990 C989 1.379 . S
H991 C985 0.959 . S
H992 C985 0.961 . S
H993 C985 0.960 . S
H994 C986 0.930 . S
H995 C987 0.929 . S
H996 C1004 0.929 . S
H997 C1006 0.930 . S
H998 C1008 0.930 . S
H999 C1011 0.929 . S
H1000 C1014 0.930 . S
H1001 C1016 0.960 . S
H1002 C1016 0.960 . S
H1003 C1016 0.960 . S
C1004 H996 0.929 . S
C1004 C1005 1.377 . S
C1004 C1006 1.384 . S
C1005 C1004 1.377 . S
C1005 C1011 1.390 . S
C1006 H997 0.930 . S
C1006 C1004 1.384 . S
C1006 C1007 1.372 . S
C1007 C1006 1.372 . S
C1007 C1008 1.400 . S
C1007 C1012 1.490 . S
C1008 H998 0.930 . S
C1008 C1007 1.400 . S
C1008 C1011 1.386 . S
H1009 C1025 0.930 . S
H1010 C1026 0.931 . S
C1011 H999 0.929 . S
C1011 C1005 1.390 . S
C1011 C1008 1.386 . S
C1012 C1007 1.490 . S
C1012 C1014 1.395 . S
C1012 C1015 1.403 . S
H1013 C1019 0.930 1_455 S
C1014 H1000 0.930 . S
C1014 C1012 1.395 . S
C1014 C1017 1.403 . S
C1015 C1012 1.403 . S
C1015 C1016 1.524 . S
C1015 C1019 1.400 . S
C1016 H1001 0.960 . S
C1016 H1002 0.960 . S
C1016 H1003 0.960 . S
C1016 C1015 1.524 . S
C1017 C1014 1.403 . S
C1017 C1018 1.392 1_655 S
C1017 C1021 1.495 1_655 S
C1018 C1017 1.392 1_455 S
C1018 C1019 1.385 1_455 S
C1018 C1020 1.478 . S
C1019 H1013 0.930 1_655 S
C1019 C1015 1.400 . S
C1019 C1018 1.385 1_655 S
C1020 C1018 1.478 . S
C1020 C1022 1.381 . S
C1020 C1026 1.383 . S
C1021 C1017 1.495 1_455 S
C1021 H1027 0.959 1_455 S
C1021 H1028 0.961 . S
C1021 H1029 0.960 . S
C1022 C1020 1.381 . S
C1022 C1023 1.394 . S
C1022 H1030 0.930 . S
C1023 C1022 1.394 . S
C1023 C1024 1.383 . S
C1023 H1031 0.929 . S
C1024 C1023 1.383 . S
C1024 C1025 1.377 . S
C1025 H1009 0.930 . S
C1025 C1024 1.377 . S
C1025 C1026 1.379 . S
C1026 H1010 0.931 . S
C1026 C1020 1.383 . S
C1026 C1025 1.379 . S
H1027 C1021 0.959 1_655 S
H1028 C1021 0.961 . S
H1029 C1021 0.960 . S
H1030 C1022 0.930 . S
H1031 C1023 0.929 . S
H1032 C1040 0.929 . S
H1033 C1042 0.930 . S
H1034 C1044 0.930 . S
H1035 C1047 0.929 . S
H1036 C1050 0.930 1_545 S
H1037 C1052 0.960 . S
H1038 C1052 0.960 1_545 S
H1039 C1052 0.960 1_545 S
C1040 H1032 0.929 . S
C1040 C1041 1.377 . S
C1040 C1042 1.384 . S
C1041 C1040 1.377 . S
C1041 C1047 1.390 1_455 S
C1042 H1033 0.930 . S
C1042 C1040 1.384 . S
C1042 C1043 1.372 1_455 S
C1043 C1042 1.372 1_655 S
C1043 C1044 1.400 . S
C1043 C1048 1.490 . S
C1044 H1034 0.930 . S
C1044 C1043 1.400 . S
C1044 C1047 1.386 . S
H1045 C1061 0.930 . S
H1046 C1062 0.931 . S
C1047 H1035 0.929 . S
C1047 C1041 1.390 1_655 S
C1047 C1044 1.386 . S
C1048 C1043 1.490 . S
C1048 C1050 1.395 1_545 S
C1048 C1051 1.403 1_645 S
H1049 C1055 0.930 . S
C1050 H1036 0.930 1_565 S
C1050 C1048 1.395 1_565 S
C1050 C1053 1.403 . S
C1051 C1048 1.403 1_465 S
C1051 C1052 1.524 . S
C1051 C1055 1.400 . S
C1052 H1037 0.960 . S
C1052 H1038 0.960 1_565 S
C1052 H1039 0.960 1_565 S
C1052 C1051 1.524 . S
C1053 C1050 1.403 . S
C1053 C1054 1.392 . S
C1053 C1057 1.495 . S
C1054 C1053 1.392 . S
C1054 C1055 1.385 1_655 S
C1054 C1056 1.478 . S
C1055 H1049 0.930 . S
C1055 C1051 1.400 . S
C1055 C1054 1.385 1_455 S
C1056 C1054 1.478 . S
C1056 C1058 1.381 . S
C1056 C1062 1.383 . S
C1057 C1053 1.495 . S
C1057 H1063 0.959 . S
C1057 H1064 0.961 . S
C1057 H1065 0.960 . S
C1058 C1056 1.381 . S
C1058 C1059 1.394 . S
C1058 H1066 0.930 1_655 S
C1059 C1058 1.394 . S
C1059 C1060 1.383 . S
C1059 H1067 0.924 1_655 S
C1060 C1059 1.383 . S
C1060 C1061 1.377 . S
C1061 H1045 0.930 . S
C1061 C1060 1.377 . S
C1061 C1062 1.379 . S
C1062 H1046 0.931 . S
C1062 C1056 1.383 . S
C1062 C1061 1.379 . S
H1063 C1057 0.959 . S
H1064 C1057 0.961 . S
H1065 C1057 0.960 . S
H1066 C1058 0.930 1_455 S
H1067 C1059 0.924 1_455 S
H1068 C1076 0.929 . S
H1069 C1078 0.930 . S
H1070 C1080 0.930 . S
H1071 C1083 0.929 . S
H1072 C1086 0.930 . S
H1073 C1088 0.960 . S
H1074 C1088 0.960 . S
H1075 C1088 0.960 . S
C1076 H1068 0.929 . S
C1076 C1077 1.377 1_565 S
C1076 C1078 1.384 . S
C1077 C1076 1.377 1_545 S
C1077 C1083 1.390 . S
C1078 H1069 0.930 . S
C1078 C1076 1.384 . S
C1078 C1079 1.372 . S
C1079 C1078 1.372 . S
C1079 C1080 1.400 1_565 S
C1079 C1084 1.490 . S
C1080 H1070 0.930 . S
C1080 C1079 1.400 1_545 S
C1080 C1083 1.386 . S
H1081 C1097 0.952 . S
H1082 C1098 0.931 . S
C1083 H1071 0.929 . S
C1083 C1077 1.390 . S
C1083 C1080 1.386 . S
C1084 C1079 1.490 . S
C1084 C1086 1.395 . S
C1084 C1087 1.403 1_565 S
H1085 C1091 0.930 . S
C1086 H1072 0.930 . S
C1086 C1084 1.395 . S
C1086 C1089 1.403 . S
C1087 C1084 1.403 1_545 S
C1087 C1088 1.524 . S
C1087 C1091 1.400 . S
C1088 H1073 0.960 . S
C1088 H1074 0.960 . S
C1088 H1075 0.960 . S
C1088 C1087 1.524 . S
C1089 C1086 1.403 . S
C1089 C1090 1.392 . S
C1089 C1093 1.495 . S
C1090 C1089 1.392 . S
C1090 C1091 1.385 1_565 S
C1090 C1092 1.478 . S
C1091 H1085 0.930 . S
C1091 C1087 1.400 . S
C1091 C1090 1.385 1_545 S
C1092 C1090 1.478 . S
C1092 C1094 1.381 . S
C1092 C1098 1.383 1_565 S
C1093 C1089 1.495 . S
C1093 H1099 0.959 . S
C1093 H1100 0.961 . S
C1093 H1101 0.960 . S
C1094 C1092 1.381 . S
C1094 C1095 1.394 . S
C1094 H1102 0.930 . S
C1095 C1094 1.394 . S
C1095 C1096 1.383 . S
C1095 H1103 0.929 . S
C1096 C1095 1.383 . S
C1096 C1097 1.354 1_565 S
C1097 H1081 0.952 . S
C1097 C1096 1.354 1_545 S
C1097 C1098 1.381 . S
C1098 H1082 0.931 . S
C1098 C1092 1.383 1_545 S
C1098 C1097 1.381 . S
H1099 C1093 0.959 . S
H1100 C1093 0.961 . S
H1101 C1093 0.960 . S
H1102 C1094 0.930 . S
H1103 C1095 0.929 . S
H1104 C1112 0.929 . S
H1105 C1114 0.930 . S
H1106 C1116 0.930 . S
H1107 C1119 0.929 . S
H1108 C1122 0.930 . S
H1109 C1124 0.960 . S
H1110 C1124 0.960 . S
H1111 C1124 0.960 . S
C1112 H1104 0.929 . S
C1112 C1113 1.377 . S
C1112 C1114 1.384 . S
C1113 C1112 1.377 . S
C1113 C1119 1.390 . S
C1114 H1105 0.930 . S
C1114 C1112 1.384 . S
C1114 C1115 1.372 . S
C1115 C1114 1.372 . S
C1115 C1116 1.400 . S
C1115 C1120 1.490 . S
C1116 H1106 0.930 . S
C1116 C1115 1.400 . S
C1116 C1119 1.386 . S
H1117 C1133 0.930 . S
H1118 C1134 0.931 . S
C1119 H1107 0.929 . S
C1119 C1113 1.390 . S
C1119 C1116 1.386 . S
C1120 C1115 1.490 . S
C1120 C1122 1.395 . S
C1120 C1123 1.403 . S
H1121 C1127 0.930 1_565 S
C1122 H1108 0.930 . S
C1122 C1120 1.395 . S
C1122 C1125 1.403 . S
C1123 C1120 1.403 . S
C1123 C1124 1.524 . S
C1123 C1127 1.400 . S
C1124 H1109 0.960 . S
C1124 H1110 0.960 . S
C1124 H1111 0.960 . S
C1124 C1123 1.524 . S
C1125 C1122 1.403 . S
C1125 C1126 1.392 1_545 S
C1125 C1129 1.501 . S
C1126 C1125 1.392 1_565 S
C1126 C1127 1.385 1_565 S
C1126 C1128 1.478 . S
C1127 H1121 0.930 1_545 S
C1127 C1123 1.400 . S
C1127 C1126 1.385 1_545 S
C1128 C1126 1.478 . S
C1128 C1130 1.381 . S
C1128 C1134 1.383 . S
C1129 C1125 1.501 . S
C1129 H1135 0.970 . S
C1129 H1136 0.952 1_545 S
C1129 H1137 0.953 1_545 S
C1130 C1128 1.381 . S
C1130 C1131 1.394 . S
C1130 H1138 0.930 . S
C1131 C1130 1.394 . S
C1131 C1132 1.383 . S
C1131 H1139 0.929 . S
C1132 C1131 1.383 . S
C1132 C1133 1.377 . S
C1133 H1117 0.930 . S
C1133 C1132 1.377 . S
C1133 C1134 1.379 . S
C1134 H1118 0.931 . S
C1134 C1128 1.383 . S
C1134 C1133 1.379 . S
H1135 C1129 0.970 . S
H1136 C1129 0.952 1_565 S
H1137 C1129 0.953 1_565 S
H1138 C1130 0.930 . S
H1139 C1131 0.929 . S
H1140 C1148 0.929 . S
H1141 C1150 0.930 . S
H1142 C1152 0.930 . S
H1143 C1155 0.929 . S
H1144 C1158 0.930 . S
H1145 C1160 0.960 . S
H1146 C1160 0.960 . S
H1147 C1160 0.960 . S
C1148 H1140 0.929 . S
C1148 C1149 1.377 . S
C1148 C1150 1.384 . S
C1149 C1148 1.377 . S
C1149 C1155 1.390 . S
C1150 H1141 0.930 . S
C1150 C1148 1.384 . S
C1150 C1151 1.372 . S
C1151 C1150 1.372 . S
C1151 C1152 1.400 . S
C1151 C1156 1.490 . S
C1152 H1142 0.930 . S
C1152 C1151 1.400 . S
C1152 C1155 1.386 . S
H1153 C1169 0.930 . S
H1154 C1170 0.931 . S
C1155 H1143 0.929 . S
C1155 C1149 1.390 . S
C1155 C1152 1.386 . S
C1156 C1151 1.490 . S
C1156 C1158 1.395 . S
C1156 C1159 1.403 . S
H1157 C1163 0.930 . S
C1158 H1144 0.930 . S
C1158 C1156 1.395 . S
C1158 C1161 1.403 . S
C1159 C1156 1.403 . S
C1159 C1160 1.524 . S
C1159 C1163 1.400 . S
C1160 H1145 0.960 . S
C1160 H1146 0.960 . S
C1160 H1147 0.960 . S
C1160 C1159 1.524 . S
C1161 C1158 1.403 . S
C1161 C1162 1.392 . S
C1161 C1165 1.495 . S
C1162 C1161 1.392 . S
C1162 C1163 1.385 . S
C1162 C1164 1.478 . S
C1163 H1157 0.930 . S
C1163 C1159 1.400 . S
C1163 C1162 1.385 . S
C1164 C1162 1.478 . S
C1164 C1166 1.381 . S
C1164 C1170 1.383 . S
C1165 C1161 1.495 . S
C1165 H1171 0.959 . S
C1165 H1172 0.961 . S
C1165 H1173 0.960 . S
C1166 C1164 1.381 . S
C1166 C1167 1.394 . S
C1166 H1174 0.930 . S
C1167 C1166 1.394 . S
C1167 C1168 1.383 . S
C1167 H1175 0.929 . S
C1168 C1167 1.383 . S
C1168 C1169 1.377 . S
C1169 H1153 0.930 . S
C1169 C1168 1.377 . S
C1169 C1170 1.379 . S
C1170 H1154 0.931 . S
C1170 C1164 1.383 . S
C1170 C1169 1.379 . S
H1171 C1165 0.959 . S
H1172 C1165 0.961 . S
H1173 C1165 0.960 . S
H1174 C1166 0.930 . S
H1175 C1167 0.929 . S
H1176 C1184 0.929 . S
H1177 C1186 0.930 . S
H1178 C1188 0.930 . S
H1179 C1191 0.929 . S
H1180 C1194 0.930 . S
H1181 C1196 0.960 . S
H1182 C1196 0.960 . S
H1183 C1196 0.960 . S
C1184 H1176 0.929 . S
C1184 C1185 1.377 . S
C1184 C1186 1.384 . S
C1185 C1184 1.377 . S
C1185 C1191 1.390 . S
C1186 H1177 0.930 . S
C1186 C1184 1.384 . S
C1186 C1187 1.372 . S
C1187 C1186 1.372 . S
C1187 C1188 1.400 . S
C1187 C1192 1.490 . S
C1188 H1178 0.930 . S
C1188 C1187 1.400 . S
C1188 C1191 1.386 . S
H1189 C1205 0.930 . S
H1190 C1206 0.931 . S
C1191 H1179 0.929 . S
C1191 C1185 1.390 . S
C1191 C1188 1.386 . S
C1192 C1187 1.490 . S
C1192 C1194 1.395 . S
C1192 C1195 1.403 1_455 S
H1193 C1199 0.930 . S
C1194 H1180 0.930 . S
C1194 C1192 1.395 . S
C1194 C1197 1.403 . S
C1195 C1192 1.403 1_655 S
C1195 C1196 1.524 . S
C1195 C1199 1.400 . S
C1196 H1181 0.960 . S
C1196 H1182 0.960 . S
C1196 H1183 0.960 . S
C1196 C1195 1.524 . S
C1197 C1194 1.403 . S
C1197 C1198 1.392 . S
C1197 C1201 1.495 . S
C1198 C1197 1.392 . S
C1198 C1199 1.385 1_455 S
C1198 C1200 1.478 . S
C1199 H1193 0.930 . S
C1199 C1195 1.400 . S
C1199 C1198 1.385 1_655 S
C1200 C1198 1.478 . S
C1200 C1202 1.381 1_455 S
C1200 C1206 1.383 . S
C1201 C1197 1.495 . S
C1201 H1207 0.959 . S
C1201 H1208 0.961 . S
C1201 H1209 0.960 . S
C1202 C1200 1.381 1_655 S
C1202 C1203 1.394 . S
C1202 H1210 0.930 . S
C1203 C1202 1.394 . S
C1203 C1204 1.383 . S
C1203 H1211 0.929 . S
C1204 C1203 1.383 . S
C1204 C1205 1.377 1_655 S
C1205 H1189 0.930 . S
C1205 C1204 1.377 1_455 S
C1205 C1206 1.379 . S
C1206 H1190 0.931 . S
C1206 C1200 1.383 . S
C1206 C1205 1.379 . S
H1207 C1201 0.959 . S
H1208 C1201 0.961 . S
H1209 C1201 0.960 . S
H1210 C1202 0.930 . S
H1211 C1203 0.929 . S
H1212 C1220 0.929 . S
H1213 C1222 0.930 . S
H1214 C1224 0.930 . S
H1215 C1227 0.929 . S
H1216 C1230 0.930 1_655 S
H1217 C1232 0.960 . S
H1218 C1232 0.960 1_655 S
H1219 C1232 0.960 1_655 S
C1220 H1212 0.929 . S
C1220 C1221 1.377 1_545 S
C1220 C1222 1.384 . S
C1221 C1220 1.377 1_565 S
C1221 C1227 1.390 . S
C1222 H1213 0.930 . S
C1222 C1220 1.384 . S
C1222 C1223 1.372 . S
C1223 C1222 1.372 . S
C1223 C1224 1.400 1_545 S
C1223 C1228 1.490 . S
C1224 H1214 0.930 . S
C1224 C1223 1.400 1_565 S
C1224 C1227 1.386 . S
H1225 C1241 0.930 . S
H1226 C1242 0.931 . S
C1227 H1215 0.929 . S
C1227 C1221 1.390 . S
C1227 C1224 1.386 . S
C1228 C1223 1.490 . S
C1228 C1230 1.395 1_655 S
C1228 C1231 1.403 1_645 S
H1229 C1235 0.930 . S
C1230 H1216 0.930 1_455 S
C1230 C1228 1.395 1_455 S
C1230 C1233 1.403 . S
C1231 C1228 1.403 1_465 S
C1231 C1232 1.524 . S
C1231 C1235 1.400 . S
C1232 H1217 0.960 . S
C1232 H1218 0.960 1_455 S
C1232 H1219 0.960 1_455 S
C1232 C1231 1.524 . S
C1233 C1230 1.403 . S
C1233 C1234 1.392 . S
C1233 C1237 1.495 . S
C1234 C1233 1.392 . S
C1234 C1235 1.385 1_545 S
C1234 C1236 1.478 . S
C1235 H1229 0.930 . S
C1235 C1231 1.400 . S
C1235 C1234 1.385 1_565 S
C1236 C1234 1.478 . S
C1236 C1238 1.381 . S
C1236 C1242 1.383 . S
C1237 C1233 1.495 . S
C1237 H1243 0.959 . S
C1237 H1244 0.961 . S
C1237 H1245 0.960 . S
C1238 C1236 1.381 . S
C1238 C1239 1.394 . S
C1238 H1246 0.930 . S
C1239 C1238 1.394 . S
C1239 C1240 1.383 . S
C1239 H1247 0.929 . S
C1240 C1239 1.383 . S
C1240 C1241 1.377 . S
C1241 H1225 0.930 . S
C1241 C1240 1.377 . S
C1241 C1242 1.379 . S
C1242 H1226 0.931 . S
C1242 C1236 1.383 . S
C1242 C1241 1.379 . S
H1243 C1237 0.959 . S
H1244 C1237 0.961 . S
H1245 C1237 0.960 . S
H1246 C1238 0.930 . S
H1247 C1239 0.929 . S
H1248 C1256 0.929 . S
H1249 C1258 0.930 . S
H1250 C1260 0.930 . S
H1251 C1263 0.929 . S
H1252 C1266 0.930 . S
H1253 C1268 0.960 . S
H1254 C1268 0.960 . S
H1255 C1268 0.960 . S
C1256 H1248 0.929 . S
C1256 C1257 1.377 . S
C1256 C1258 1.384 . S
C1257 C1256 1.377 . S
C1257 C1263 1.390 . S
C1258 H1249 0.930 . S
C1258 C1256 1.384 . S
C1258 C1259 1.372 . S
C1259 C1258 1.372 . S
C1259 C1260 1.400 . S
C1259 C1264 1.490 . S
C1260 H1250 0.930 . S
C1260 C1259 1.400 . S
C1260 C1263 1.386 . S
H1261 C1277 0.930 . S
H1262 C1278 0.931 . S
C1263 H1251 0.929 . S
C1263 C1257 1.390 . S
C1263 C1260 1.386 . S
C1264 C1259 1.490 . S
C1264 C1266 1.395 . S
C1264 C1267 1.403 . S
H1265 C1271 0.930 . S
C1266 H1252 0.930 . S
C1266 C1264 1.395 . S
C1266 C1269 1.403 . S
C1267 C1264 1.403 . S
C1267 C1268 1.524 . S
C1267 C1271 1.400 . S
C1268 H1253 0.960 . S
C1268 H1254 0.960 . S
C1268 H1255 0.960 . S
C1268 C1267 1.524 . S
C1269 C1266 1.403 . S
C1269 C1270 1.392 . S
C1269 C1273 1.495 . S
C1270 C1269 1.392 . S
C1270 C1271 1.385 . S
C1270 C1272 1.478 . S
C1271 H1265 0.930 . S
C1271 C1267 1.400 . S
C1271 C1270 1.385 . S
C1272 C1270 1.478 . S
C1272 C1274 1.381 . S
C1272 C1278 1.383 . S
C1273 C1269 1.495 . S
C1273 H1279 0.959 . S
C1273 H1280 0.961 . S
C1273 H1281 0.960 . S
C1274 C1272 1.381 . S
C1274 C1275 1.394 . S
C1274 H1282 0.930 . S
C1275 C1274 1.394 . S
C1275 C1276 1.383 . S
C1275 H1283 0.929 . S
C1276 C1275 1.383 . S
C1276 C1277 1.377 . S
C1277 H1261 0.930 . S
C1277 C1276 1.377 . S
C1277 C1278 1.379 . S
C1278 H1262 0.931 . S
C1278 C1272 1.383 . S
C1278 C1277 1.379 . S
H1279 C1273 0.959 . S
H1280 C1273 0.961 . S
H1281 C1273 0.960 . S
H1282 C1274 0.930 . S
H1283 C1275 0.929 . S
H1284 C1292 0.929 . S
H1285 C1294 0.930 . S
H1286 C1296 0.930 . S
H1287 C1299 0.929 . S
H1288 C1302 0.930 . S
H1289 C1304 0.960 . S
H1290 C1304 0.960 . S
H1291 C1304 0.960 . S
C1292 H1284 0.929 . S
C1292 C1293 1.377 . S
C1292 C1294 1.384 . S
C1293 C1292 1.377 . S
C1293 C1299 1.390 . S
C1294 H1285 0.930 . S
C1294 C1292 1.384 . S
C1294 C1295 1.372 . S
C1295 C1294 1.372 . S
C1295 C1296 1.400 . S
C1295 C1300 1.490 . S
C1296 H1286 0.930 . S
C1296 C1295 1.400 . S
C1296 C1299 1.386 . S
H1297 C1313 0.930 . S
H1298 C1314 0.931 . S
C1299 H1287 0.929 . S
C1299 C1293 1.390 . S
C1299 C1296 1.386 . S
C1300 C1295 1.490 . S
C1300 C1302 1.395 . S
C1300 C1303 1.403 . S
H1301 C1307 0.930 1_655 S
C1302 H1288 0.930 . S
C1302 C1300 1.395 . S
C1302 C1305 1.403 . S
C1303 C1300 1.403 . S
C1303 C1304 1.524 . S
C1303 C1307 1.400 . S
C1304 H1289 0.960 . S
C1304 H1290 0.960 . S
C1304 H1291 0.960 . S
C1304 C1303 1.524 . S
C1305 C1302 1.403 . S
C1305 C1306 1.392 1_455 S
C1305 C1309 1.495 . S
C1306 C1305 1.392 1_655 S
C1306 C1307 1.385 1_655 S
C1306 C1308 1.478 . S
C1307 H1301 0.930 1_455 S
C1307 C1303 1.400 . S
C1307 C1306 1.385 1_455 S
C1308 C1306 1.478 . S
C1308 C1310 1.381 . S
C1308 C1314 1.383 . S
C1309 C1305 1.495 . S
C1309 H1315 0.959 . S
C1309 H1316 0.961 1_455 S
C1309 H1317 0.960 1_455 S
C1310 C1308 1.381 . S
C1310 C1311 1.394 . S
C1310 H1318 0.930 . S
C1311 C1310 1.394 . S
C1311 C1312 1.383 . S
C1311 H1319 0.929 . S
C1312 C1311 1.383 . S
C1312 C1313 1.377 . S
C1313 H1297 0.930 . S
C1313 C1312 1.377 . S
C1313 C1314 1.379 . S
C1314 H1298 0.931 . S
C1314 C1308 1.383 . S
C1314 C1313 1.379 . S
H1315 C1309 0.959 . S
H1316 C1309 0.961 1_655 S
H1317 C1309 0.960 1_655 S
H1318 C1310 0.930 . S
H1319 C1311 0.929 . S
H1320 C1328 0.929 . S
H1321 C1330 0.931 . S
H1322 C1332 0.930 . S
H1323 C1335 0.929 . S
H1324 C1338 0.930 . S
H1325 C1340 0.960 1_545 S
H1326 C1340 0.960 . S
H1327 C1340 0.960 . S
C1328 H1320 0.929 . S
C1328 C1329 1.377 . S
C1328 C1330 1.382 1_655 S
C1329 C1328 1.377 . S
C1329 C1335 1.390 . S
C1330 H1321 0.931 . S
C1330 C1328 1.382 1_455 S
C1330 C1331 1.373 . S
C1331 C1330 1.373 . S
C1331 C1332 1.400 . S
C1331 C1336 1.490 . S
C1332 H1322 0.930 . S
C1332 C1331 1.400 . S
C1332 C1335 1.386 1_455 S
H1333 C1349 0.930 . S
H1334 C1350 0.931 . S
C1335 H1323 0.929 . S
C1335 C1329 1.390 . S
C1335 C1332 1.386 1_655 S
C1336 C1331 1.490 . S
C1336 C1338 1.395 1_465 S
C1336 C1339 1.403 1_565 S
H1337 C1343 0.930 . S
C1338 H1324 0.930 . S
C1338 C1336 1.395 1_645 S
C1338 C1341 1.403 . S
C1339 C1336 1.403 1_545 S
C1339 C1340 1.524 1_545 S
C1339 C1343 1.400 . S
C1340 H1325 0.960 1_565 S
C1340 H1326 0.960 . S
C1340 H1327 0.960 . S
C1340 C1339 1.524 1_565 S
C1341 C1338 1.403 . S
C1341 C1342 1.392 1_655 S
C1341 C1345 1.495 . S
C1342 C1341 1.392 1_455 S
C1342 C1343 1.385 . S
C1342 C1344 1.478 . S
C1343 H1337 0.930 . S
C1343 C1339 1.400 . S
C1343 C1342 1.385 . S
C1344 C1342 1.478 . S
C1344 C1346 1.381 . S
C1344 C1350 1.383 . S
C1345 C1341 1.495 . S
C1345 H1351 0.959 . S
C1345 H1352 0.961 . S
C1345 H1353 0.960 . S
C1346 C1344 1.381 . S
C1346 C1347 1.394 . S
C1346 H1354 0.930 . S
C1347 C1346 1.394 . S
C1347 C1348 1.383 . S
C1347 H1355 0.929 . S
C1348 C1347 1.383 . S
C1348 C1349 1.377 . S
C1349 H1333 0.930 . S
C1349 C1348 1.377 . S
C1349 C1350 1.379 . S
C1350 H1334 0.931 . S
C1350 C1344 1.383 . S
C1350 C1349 1.379 . S
H1351 C1345 0.959 . S
H1352 C1345 0.961 . S
H1353 C1345 0.960 . S
H1354 C1346 0.930 . S
H1355 C1347 0.929 . S
H1356 C1364 0.929 . S
H1357 C1366 0.930 . S
H1358 C1368 0.930 . S
H1359 C1371 0.929 . S
H1360 C1374 0.930 . S
H1361 C1376 0.960 . S
H1362 C1376 0.960 . S
H1363 C1376 0.960 . S
C1364 H1356 0.929 . S
C1364 C1365 1.377 . S
C1364 C1366 1.384 . S
C1365 C1364 1.377 . S
C1365 C1371 1.390 . S
C1366 H1357 0.930 . S
C1366 C1364 1.384 . S
C1366 C1367 1.372 . S
C1367 C1366 1.372 . S
C1367 C1368 1.400 . S
C1367 C1372 1.490 . S
C1368 H1358 0.930 . S
C1368 C1367 1.400 . S
C1368 C1371 1.386 . S
H1369 C1385 0.930 . S
H1370 C1386 0.931 . S
C1371 H1359 0.929 . S
C1371 C1365 1.390 . S
C1371 C1368 1.386 . S
C1372 C1367 1.490 . S
C1372 C1374 1.395 1_545 S
C1372 C1375 1.403 . S
H1373 C1379 0.930 . S
C1374 H1360 0.930 . S
C1374 C1372 1.395 1_565 S
C1374 C1377 1.403 . S
C1375 C1372 1.403 . S
C1375 C1376 1.524 . S
C1375 C1379 1.400 . S
C1376 H1361 0.960 . S
C1376 H1362 0.960 . S
C1376 H1363 0.960 . S
C1376 C1375 1.524 . S
C1377 C1374 1.403 . S
C1377 C1378 1.392 1_565 S
C1377 C1381 1.495 . S
C1378 C1377 1.392 1_545 S
C1378 C1379 1.385 . S
C1378 C1380 1.478 1_545 S
C1379 H1373 0.930 . S
C1379 C1375 1.400 . S
C1379 C1378 1.385 . S
C1380 C1378 1.478 1_565 S
C1380 C1382 1.381 1_565 S
C1380 C1386 1.383 . S
C1381 C1377 1.495 . S
C1381 H1387 0.959 . S
C1381 H1388 0.961 . S
C1381 H1389 0.960 . S
C1382 C1380 1.381 1_545 S
C1382 C1383 1.394 . S
C1382 H1390 0.930 . S
C1383 C1382 1.394 . S
C1383 C1384 1.383 1_545 S
C1383 H1391 0.929 . S
C1384 C1383 1.383 1_565 S
C1384 C1385 1.377 . S
C1385 H1369 0.930 . S
C1385 C1384 1.377 . S
C1385 C1386 1.379 . S
C1386 H1370 0.931 . S
C1386 C1380 1.383 . S
C1386 C1385 1.379 . S
H1387 C1381 0.959 . S
H1388 C1381 0.961 . S
H1389 C1381 0.960 . S
H1390 C1382 0.930 . S
H1391 C1383 0.929 . S
H1392 C1400 0.929 . S
H1393 C1402 0.930 . S
H1394 C1404 0.930 . S
H1395 C1407 0.929 . S
H1396 C1410 0.930 . S
H1397 C1412 0.960 . S
H1398 C1412 0.960 . S
H1399 C1412 0.960 . S
C1400 H1392 0.929 . S
C1400 C1401 1.377 . S
C1400 C1402 1.384 . S
C1401 C1400 1.377 . S
C1401 C1407 1.390 . S
C1402 H1393 0.930 . S
C1402 C1400 1.384 . S
C1402 C1403 1.372 . S
C1403 C1402 1.372 . S
C1403 C1404 1.400 . S
C1403 C1408 1.490 . S
C1404 H1394 0.930 . S
C1404 C1403 1.400 . S
C1404 C1407 1.386 . S
H1405 C1421 0.930 . S
H1406 C1422 0.931 . S
C1407 H1395 0.929 . S
C1407 C1401 1.390 . S
C1407 C1404 1.386 . S
C1408 C1403 1.490 . S
C1408 C1410 1.395 . S
C1408 C1411 1.403 . S
H1409 C1415 0.930 . S
C1410 H1396 0.930 . S
C1410 C1408 1.395 . S
C1410 C1413 1.403 . S
C1411 C1408 1.403 . S
C1411 C1412 1.524 . S
C1411 C1415 1.400 . S
C1412 H1397 0.960 . S
C1412 H1398 0.960 . S
C1412 H1399 0.960 . S
C1412 C1411 1.524 . S
C1413 C1410 1.403 . S
C1413 C1414 1.392 . S
C1413 C1417 1.495 . S
C1414 C1413 1.392 . S
C1414 C1415 1.385 . S
C1414 C1416 1.478 . S
C1415 H1409 0.930 . S
C1415 C1411 1.400 . S
C1415 C1414 1.385 . S
C1416 C1414 1.478 . S
C1416 C1418 1.381 . S
C1416 C1422 1.383 . S
C1417 C1413 1.495 . S
C1417 H1423 0.959 . S
C1417 H1424 0.961 . S
C1417 H1425 0.960 . S
C1418 C1416 1.381 . S
C1418 C1419 1.394 . S
C1418 H1426 0.930 . S
C1419 C1418 1.394 . S
C1419 C1420 1.383 . S
C1419 H1427 0.929 . S
C1420 C1419 1.383 . S
C1420 C1421 1.377 . S
C1421 H1405 0.930 . S
C1421 C1420 1.377 . S
C1421 C1422 1.379 . S
C1422 H1406 0.931 . S
C1422 C1416 1.383 . S
C1422 C1421 1.379 . S
H1423 C1417 0.959 . S
H1424 C1417 0.961 . S
H1425 C1417 0.960 . S
H1426 C1418 0.930 . S
H1427 C1419 0.929 . S
H1428 C1436 0.929 . S
H1429 C1438 0.930 . S
H1430 C1440 0.930 . S
H1431 C1443 0.929 . S
H1432 C1446 0.930 . S
H1433 C1448 0.960 . S
H1434 C1448 0.960 . S
H1435 C1448 0.960 . S
C1436 H1428 0.929 . S
C1436 C1437 1.377 . S
C1436 C1438 1.384 . S
C1437 C1436 1.377 . S
C1437 C1443 1.390 . S
C1438 H1429 0.930 . S
C1438 C1436 1.384 . S
C1438 C1439 1.372 . S
C1439 C1438 1.372 . S
C1439 C1440 1.400 . S
C1439 C1444 1.490 . S
C1440 H1430 0.930 . S
C1440 C1439 1.400 . S
C1440 C1443 1.386 . S
H1441 C1457 0.930 . S
H1442 C1458 0.931 . S
C1443 H1431 0.929 . S
C1443 C1437 1.390 . S
C1443 C1440 1.386 . S
C1444 C1439 1.490 . S
C1444 C1446 1.395 . S
C1444 C1447 1.403 . S
H1445 C1451 0.930 . S
C1446 H1432 0.930 . S
C1446 C1444 1.395 . S
C1446 C1449 1.403 . S
C1447 C1444 1.403 . S
C1447 C1448 1.524 . S
C1447 C1451 1.400 . S
C1448 H1433 0.960 . S
C1448 H1434 0.960 . S
C1448 H1435 0.960 . S
C1448 C1447 1.524 . S
C1449 C1446 1.403 . S
C1449 C1450 1.392 . S
C1449 C1453 1.495 . S
C1450 C1449 1.392 . S
C1450 C1451 1.385 . S
C1450 C1452 1.478 . S
C1451 H1445 0.930 . S
C1451 C1447 1.400 . S
C1451 C1450 1.385 . S
C1452 C1450 1.478 . S
C1452 C1454 1.381 . S
C1452 C1458 1.383 . S
C1453 C1449 1.495 . S
C1453 H1459 0.959 . S
C1453 H1460 0.961 . S
C1453 H1461 0.960 . S
C1454 C1452 1.381 . S
C1454 C1455 1.394 . S
C1454 H1462 0.930 . S
C1455 C1454 1.394 . S
C1455 C1456 1.383 . S
C1455 H1463 0.929 . S
C1456 C1455 1.383 . S
C1456 C1457 1.377 . S
C1457 H1441 0.930 . S
C1457 C1456 1.377 . S
C1457 C1458 1.379 . S
C1458 H1442 0.931 . S
C1458 C1452 1.383 . S
C1458 C1457 1.379 . S
H1459 C1453 0.959 . S
H1460 C1453 0.961 . S
H1461 C1453 0.960 . S
H1462 C1454 0.930 . S
H1463 C1455 0.929 . S
H1464 C1472 0.929 . S
H1465 C1474 0.930 . S
H1466 C1476 0.930 . S
H1467 C1479 0.929 . S
H1468 C1482 0.930 . S
H1469 C1484 0.960 . S
H1470 C1484 0.960 . S
H1471 C1484 0.960 . S
C1472 H1464 0.929 . S
C1472 C1473 1.377 . S
C1472 C1474 1.384 . S
C1473 C1472 1.377 . S
C1473 C1479 1.390 . S
C1474 H1465 0.930 . S
C1474 C1472 1.384 . S
C1474 C1475 1.372 . S
C1475 C1474 1.372 . S
C1475 C1476 1.400 . S
C1475 C1480 1.490 . S
C1476 H1466 0.930 . S
C1476 C1475 1.400 . S
C1476 C1479 1.386 . S
H1477 C1493 0.930 . S
H1478 C1494 0.931 . S
C1479 H1467 0.929 . S
C1479 C1473 1.390 . S
C1479 C1476 1.386 . S
C1480 C1475 1.490 . S
C1480 C1482 1.395 . S
C1480 C1483 1.403 . S
H1481 C1487 0.930 . S
C1482 H1468 0.930 . S
C1482 C1480 1.395 . S
C1482 C1485 1.403 . S
C1483 C1480 1.403 . S
C1483 C1484 1.524 . S
C1483 C1487 1.400 . S
C1484 H1469 0.960 . S
C1484 H1470 0.960 . S
C1484 H1471 0.960 . S
C1484 C1483 1.524 . S
C1485 C1482 1.403 . S
C1485 C1486 1.392 . S
C1485 C1489 1.495 . S
C1486 C1485 1.392 . S
C1486 C1487 1.385 . S
C1486 C1488 1.478 . S
C1487 H1481 0.930 . S
C1487 C1483 1.400 . S
C1487 C1486 1.385 . S
C1488 C1486 1.478 . S
C1488 C1490 1.381 . S
C1488 C1494 1.383 . S
C1489 C1485 1.495 . S
C1489 H1495 0.959 . S
C1489 H1496 0.961 . S
C1489 H1497 0.960 . S
C1490 C1488 1.381 . S
C1490 C1491 1.394 . S
C1490 H1498 0.930 . S
C1491 C1490 1.394 . S
C1491 C1492 1.383 . S
C1491 H1499 0.929 . S
C1492 C1491 1.383 . S
C1492 C1493 1.377 . S
C1493 H1477 0.930 . S
C1493 C1492 1.377 . S
C1493 C1494 1.379 . S
C1494 H1478 0.931 . S
C1494 C1488 1.383 . S
C1494 C1493 1.379 . S
H1495 C1489 0.959 . S
H1496 C1489 0.961 . S
H1497 C1489 0.960 . S
H1498 C1490 0.930 . S
H1499 C1491 0.929 . S
H1500 C1508 0.929 . S
H1501 C1510 0.930 . S
H1502 C1512 0.930 . S
H1503 C1515 0.929 . S
H1504 C1518 0.930 . S
H1505 C1520 0.960 . S
H1506 C1520 0.960 . S
H1507 C1520 0.960 . S
C1508 H1500 0.929 . S
C1508 C1509 1.377 . S
C1508 C1510 1.384 . S
C1509 C1508 1.377 . S
C1509 C1515 1.390 . S
C1510 H1501 0.930 . S
C1510 C1508 1.384 . S
C1510 C1511 1.372 . S
C1511 C1510 1.372 . S
C1511 C1512 1.400 . S
C1511 C1516 1.490 . S
C1512 H1502 0.930 . S
C1512 C1511 1.400 . S
C1512 C1515 1.386 . S
H1513 C1529 0.930 . S
H1514 C1530 0.931 . S
C1515 H1503 0.929 . S
C1515 C1509 1.390 . S
C1515 C1512 1.386 . S
C1516 C1511 1.490 . S
C1516 C1518 1.395 . S
C1516 C1519 1.403 . S
H1517 C1523 0.930 . S
C1518 H1504 0.930 . S
C1518 C1516 1.395 . S
C1518 C1521 1.403 . S
C1519 C1516 1.403 . S
C1519 C1520 1.524 . S
C1519 C1523 1.400 . S
C1520 H1505 0.960 . S
C1520 H1506 0.960 . S
C1520 H1507 0.960 . S
C1520 C1519 1.524 . S
C1521 C1518 1.403 . S
C1521 C1522 1.392 . S
C1521 C1525 1.495 . S
C1522 C1521 1.392 . S
C1522 C1523 1.385 . S
C1522 C1524 1.478 . S
C1523 H1517 0.930 . S
C1523 C1519 1.400 . S
C1523 C1522 1.385 . S
C1524 C1522 1.478 . S
C1524 C1526 1.381 . S
C1524 C1530 1.383 . S
C1525 C1521 1.495 . S
C1525 H1531 0.959 . S
C1525 H1532 0.961 . S
C1525 H1533 0.960 . S
C1526 C1524 1.381 . S
C1526 C1527 1.394 . S
C1526 H1534 0.930 . S
C1527 C1526 1.394 . S
C1527 C1528 1.383 . S
C1527 H1535 0.929 . S
C1528 C1527 1.383 . S
C1528 C1529 1.377 . S
C1529 H1513 0.930 . S
C1529 C1528 1.377 . S
C1529 C1530 1.379 . S
C1530 H1514 0.931 . S
C1530 C1524 1.383 . S
C1530 C1529 1.379 . S
H1531 C1525 0.959 . S
H1532 C1525 0.961 . S
H1533 C1525 0.960 . S
H1534 C1526 0.930 . S
H1535 C1527 0.929 . S
H1536 C1544 0.929 . S
H1537 C1546 0.930 . S
H1538 C1548 0.930 . S
H1539 C1551 0.929 . S
H1540 C1554 0.930 . S
H1541 C1556 0.960 . S
H1542 C1556 0.960 . S
H1543 C1556 0.960 . S
C1544 H1536 0.929 . S
C1544 C1545 1.377 . S
C1544 C1546 1.384 . S
C1545 C1544 1.377 . S
C1545 C1551 1.390 . S
C1546 H1537 0.930 . S
C1546 C1544 1.384 . S
C1546 C1547 1.372 . S
C1547 C1546 1.372 . S
C1547 C1548 1.400 . S
C1547 C1552 1.490 . S
C1548 H1538 0.930 . S
C1548 C1547 1.400 . S
C1548 C1551 1.386 . S
H1549 C1565 0.930 . S
H1550 C1566 0.931 . S
C1551 H1539 0.929 . S
C1551 C1545 1.390 . S
C1551 C1548 1.386 . S
C1552 C1547 1.490 . S
C1552 C1554 1.395 . S
C1552 C1555 1.403 . S
H1553 C1559 0.930 . S
C1554 H1540 0.930 . S
C1554 C1552 1.395 . S
C1554 C1557 1.403 . S
C1555 C1552 1.403 . S
C1555 C1556 1.524 . S
C1555 C1559 1.400 . S
C1556 H1541 0.960 . S
C1556 H1542 0.960 . S
C1556 H1543 0.960 . S
C1556 C1555 1.524 . S
C1557 C1554 1.403 . S
C1557 C1558 1.392 . S
C1557 C1561 1.495 . S
C1558 C1557 1.392 . S
C1558 C1559 1.385 . S
C1558 C1560 1.478 . S
C1559 H1553 0.930 . S
C1559 C1555 1.400 . S
C1559 C1558 1.385 . S
C1560 C1558 1.478 . S
C1560 C1562 1.381 . S
C1560 C1566 1.383 . S
C1561 C1557 1.495 . S
C1561 H1567 0.959 . S
C1561 H1568 0.961 . S
C1561 H1569 0.960 . S
C1562 C1560 1.381 . S
C1562 C1563 1.394 . S
C1562 H1570 0.930 . S
C1563 C1562 1.394 . S
C1563 C1564 1.383 . S
C1563 H1571 0.929 . S
C1564 C1563 1.383 . S
C1564 C1565 1.377 . S
C1565 H1549 0.930 . S
C1565 C1564 1.377 . S
C1565 C1566 1.379 . S
C1566 H1550 0.931 . S
C1566 C1560 1.383 . S
C1566 C1565 1.379 . S
H1567 C1561 0.959 . S
H1568 C1561 0.961 . S
H1569 C1561 0.960 . S
H1570 C1562 0.930 . S
H1571 C1563 0.929 . S
H1572 C1580 0.929 . S
H1573 C1582 0.930 . S
H1574 C1584 0.930 . S
H1575 C1587 0.929 . S
H1576 C1590 0.930 . S
H1577 C1592 0.960 . S
H1578 C1592 0.960 . S
H1579 C1592 0.960 . S
C1580 H1572 0.929 . S
C1580 C1581 1.377 . S
C1580 C1582 1.384 . S
C1581 C1580 1.377 . S
C1581 C1587 1.390 . S
C1582 H1573 0.930 . S
C1582 C1580 1.384 . S
C1582 C1583 1.372 . S
C1583 C1582 1.372 . S
C1583 C1584 1.400 . S
C1583 C1588 1.490 . S
C1584 H1574 0.930 . S
C1584 C1583 1.400 . S
C1584 C1587 1.386 . S
H1585 C1601 0.930 . S
H1586 C1602 0.931 . S
C1587 H1575 0.929 . S
C1587 C1581 1.390 . S
C1587 C1584 1.386 . S
C1588 C1583 1.490 . S
C1588 C1590 1.395 . S
C1588 C1591 1.403 . S
H1589 C1595 0.930 . S
C1590 H1576 0.930 . S
C1590 C1588 1.395 . S
C1590 C1593 1.403 . S
C1591 C1588 1.403 . S
C1591 C1592 1.524 . S
C1591 C1595 1.400 . S
C1592 H1577 0.960 . S
C1592 H1578 0.960 . S
C1592 H1579 0.960 . S
C1592 C1591 1.524 . S
C1593 C1590 1.403 . S
C1593 C1594 1.392 . S
C1593 C1597 1.495 . S
C1594 C1593 1.392 . S
C1594 C1595 1.385 . S
C1594 C1596 1.478 . S
C1595 H1589 0.930 . S
C1595 C1591 1.400 . S
C1595 C1594 1.385 . S
C1596 C1594 1.478 . S
C1596 C1598 1.381 . S
C1596 C1602 1.383 . S
C1597 C1593 1.495 . S
C1597 H1603 0.959 . S
C1597 H1604 0.961 . S
C1597 H1605 0.960 . S
C1598 C1596 1.381 . S
C1598 C1599 1.394 . S
C1598 H1606 0.930 . S
C1599 C1598 1.394 . S
C1599 C1600 1.383 . S
C1599 H1607 0.929 . S
C1600 C1599 1.383 . S
C1600 C1601 1.377 . S
C1601 H1585 0.930 . S
C1601 C1600 1.377 . S
C1601 C1602 1.379 . S
C1602 H1586 0.931 . S
C1602 C1596 1.383 . S
C1602 C1601 1.379 . S
H1603 C1597 0.959 . S
H1604 C1597 0.961 . S
H1605 C1597 0.960 . S
H1606 C1598 0.930 . S
H1607 C1599 0.929 . S
H1608 C1616 0.929 . S
H1609 C1618 0.930 . S
H1610 C1620 0.930 . S
H1611 C1623 0.929 . S
H1612 C1626 0.930 . S
H1613 C1628 0.960 . S
H1614 C1628 0.960 . S
H1615 C1628 0.960 . S
C1616 H1608 0.929 . S
C1616 C1617 1.377 . S
C1616 C1618 1.384 . S
C1617 C1616 1.377 . S
C1617 C1623 1.390 . S
C1618 H1609 0.930 . S
C1618 C1616 1.384 . S
C1618 C1619 1.372 . S
C1619 C1618 1.372 . S
C1619 C1620 1.400 . S
C1619 C1624 1.490 . S
C1620 H1610 0.930 . S
C1620 C1619 1.400 . S
C1620 C1623 1.386 . S
H1621 C1637 0.930 . S
H1622 C1638 0.931 . S
C1623 H1611 0.929 . S
C1623 C1617 1.390 . S
C1623 C1620 1.386 . S
C1624 C1619 1.490 . S
C1624 C1626 1.395 . S
C1624 C1627 1.403 . S
H1625 C1631 0.930 . S
C1626 H1612 0.930 . S
C1626 C1624 1.395 . S
C1626 C1629 1.403 . S
C1627 C1624 1.403 . S
C1627 C1628 1.524 . S
C1627 C1631 1.400 . S
C1628 H1613 0.960 . S
C1628 H1614 0.960 . S
C1628 H1615 0.960 . S
C1628 C1627 1.524 . S
C1629 C1626 1.403 . S
C1629 C1630 1.392 . S
C1629 C1633 1.495 . S
C1630 C1629 1.392 . S
C1630 C1631 1.385 . S
C1630 C1632 1.478 . S
C1631 H1625 0.930 . S
C1631 C1627 1.400 . S
C1631 C1630 1.385 . S
C1632 C1630 1.478 . S
C1632 C1634 1.381 . S
C1632 C1638 1.383 . S
C1633 C1629 1.495 . S
C1633 H1639 0.959 . S
C1633 H1640 0.961 . S
C1633 H1641 0.960 . S
C1634 C1632 1.381 . S
C1634 C1635 1.394 . S
C1634 H1642 0.930 . S
C1635 C1634 1.394 . S
C1635 C1636 1.383 . S
C1635 H1643 0.929 . S
C1636 C1635 1.383 . S
C1636 C1637 1.377 . S
C1637 H1621 0.930 . S
C1637 C1636 1.377 . S
C1637 C1638 1.379 . S
C1638 H1622 0.931 . S
C1638 C1632 1.383 . S
C1638 C1637 1.379 . S
H1639 C1633 0.959 . S
H1640 C1633 0.961 . S
H1641 C1633 0.960 . S
H1642 C1634 0.930 . S
H1643 C1635 0.929 . S
H1644 C1652 0.929 . S
H1645 C1654 0.930 . S
H1646 C1656 0.930 . S
H1647 C1659 0.929 . S
H1648 C1662 0.930 . S
H1649 C1664 0.960 . S
H1650 C1664 0.960 . S
H1651 C1664 0.960 . S
C1652 H1644 0.929 . S
C1652 C1653 1.377 . S
C1652 C1654 1.384 . S
C1653 C1652 1.377 . S
C1653 C1659 1.390 . S
C1654 H1645 0.930 . S
C1654 C1652 1.384 . S
C1654 C1655 1.372 . S
C1655 C1654 1.372 . S
C1655 C1656 1.400 . S
C1655 C1660 1.490 . S
C1656 H1646 0.930 . S
C1656 C1655 1.400 . S
C1656 C1659 1.386 . S
H1657 C1673 0.930 . S
H1658 C1674 0.931 . S
C1659 H1647 0.929 . S
C1659 C1653 1.390 . S
C1659 C1656 1.386 . S
C1660 C1655 1.490 . S
C1660 C1662 1.395 . S
C1660 C1663 1.403 . S
H1661 C1667 0.930 . S
C1662 H1648 0.930 . S
C1662 C1660 1.395 . S
C1662 C1665 1.403 . S
C1663 C1660 1.403 . S
C1663 C1664 1.524 . S
C1663 C1667 1.400 . S
C1664 H1649 0.960 . S
C1664 H1650 0.960 . S
C1664 H1651 0.960 . S
C1664 C1663 1.524 . S
C1665 C1662 1.403 . S
C1665 C1666 1.392 . S
C1665 C1669 1.495 . S
C1666 C1665 1.392 . S
C1666 C1667 1.385 . S
C1666 C1668 1.478 . S
C1667 H1661 0.930 . S
C1667 C1663 1.400 . S
C1667 C1666 1.385 . S
C1668 C1666 1.478 . S
C1668 C1670 1.381 . S
C1668 C1674 1.383 . S
C1669 C1665 1.495 . S
C1669 H1675 0.959 . S
C1669 H1676 0.961 . S
C1669 H1677 0.960 . S
C1670 C1668 1.381 . S
C1670 C1671 1.394 . S
C1670 H1678 0.930 . S
C1671 C1670 1.394 . S
C1671 C1672 1.383 . S
C1671 H1679 0.929 . S
C1672 C1671 1.383 . S
C1672 C1673 1.377 . S
C1673 H1657 0.930 . S
C1673 C1672 1.377 . S
C1673 C1674 1.379 . S
C1674 H1658 0.931 . S
C1674 C1668 1.383 . S
C1674 C1673 1.379 . S
H1675 C1669 0.959 . S
H1676 C1669 0.961 . S
H1677 C1669 0.960 . S
H1678 C1670 0.930 . S
H1679 C1671 0.929 . S
H1680 C1688 0.929 . S
H1681 C1690 0.930 . S
H1682 C1692 0.930 . S
H1683 C1695 0.929 . S
H1684 C1698 0.930 . S
H1685 C1700 0.960 . S
H1686 C1700 0.960 . S
H1687 C1700 0.960 . S
C1688 H1680 0.929 . S
C1688 C1689 1.377 . S
C1688 C1690 1.384 . S
C1689 C1688 1.377 . S
C1689 C1695 1.390 . S
C1690 H1681 0.930 . S
C1690 C1688 1.384 . S
C1690 C1691 1.372 . S
C1691 C1690 1.372 . S
C1691 C1692 1.400 . S
C1691 C1696 1.490 . S
C1692 H1682 0.930 . S
C1692 C1691 1.400 . S
C1692 C1695 1.386 . S
H1693 C1709 0.930 . S
H1694 C1710 0.931 . S
C1695 H1683 0.929 . S
C1695 C1689 1.390 . S
C1695 C1692 1.386 . S
C1696 C1691 1.490 . S
C1696 C1698 1.395 . S
C1696 C1699 1.403 . S
H1697 C1703 0.930 . S
C1698 H1684 0.930 . S
C1698 C1696 1.395 . S
C1698 C1701 1.403 . S
C1699 C1696 1.403 . S
C1699 C1700 1.524 . S
C1699 C1703 1.400 . S
C1700 H1685 0.960 . S
C1700 H1686 0.960 . S
C1700 H1687 0.960 . S
C1700 C1699 1.524 . S
C1701 C1698 1.403 . S
C1701 C1702 1.392 . S
C1701 C1705 1.495 . S
C1702 C1701 1.392 . S
C1702 C1703 1.385 . S
C1702 C1704 1.478 . S
C1703 H1697 0.930 . S
C1703 C1699 1.400 . S
C1703 C1702 1.385 . S
C1704 C1702 1.478 . S
C1704 C1706 1.381 . S
C1704 C1710 1.383 . S
C1705 C1701 1.495 . S
C1705 H1711 0.959 . S
C1705 H1712 0.961 . S
C1705 H1713 0.960 . S
C1706 C1704 1.381 . S
C1706 C1707 1.394 . S
C1706 H1714 0.930 . S
C1707 C1706 1.394 . S
C1707 C1708 1.383 . S
C1707 H1715 0.929 . S
C1708 C1707 1.383 . S
C1708 C1709 1.377 . S
C1709 H1693 0.930 . S
C1709 C1708 1.377 . S
C1709 C1710 1.379 . S
C1710 H1694 0.931 . S
C1710 C1704 1.383 . S
C1710 C1709 1.379 . S
H1711 C1705 0.959 . S
H1712 C1705 0.961 . S
H1713 C1705 0.960 . S
H1714 C1706 0.930 . S
H1715 C1707 0.929 . S
H1716 C1724 0.929 . S
H1717 C1726 0.930 . S
H1718 C1728 0.930 . S
H1719 C1731 0.929 . S
H1720 C1734 0.930 . S
H1721 C1736 0.960 . S
H1722 C1736 0.960 . S
H1723 C1736 0.960 . S
C1724 H1716 0.929 . S
C1724 C1725 1.377 . S
C1724 C1726 1.384 . S
C1725 C1724 1.377 . S
C1725 C1731 1.390 . S
C1726 H1717 0.930 . S
C1726 C1724 1.384 . S
C1726 C1727 1.372 . S
C1727 C1726 1.372 . S
C1727 C1728 1.400 . S
C1727 C1732 1.490 . S
C1728 H1718 0.930 . S
C1728 C1727 1.400 . S
C1728 C1731 1.386 . S
H1729 C1745 0.930 . S
H1730 C1746 0.931 . S
C1731 H1719 0.929 . S
C1731 C1725 1.390 . S
C1731 C1728 1.386 . S
C1732 C1727 1.490 . S
C1732 C1734 1.395 . S
C1732 C1735 1.403 . S
H1733 C1739 0.930 . S
C1734 H1720 0.930 . S
C1734 C1732 1.395 . S
C1734 C1737 1.403 . S
C1735 C1732 1.403 . S
C1735 C1736 1.524 . S
C1735 C1739 1.400 . S
C1736 H1721 0.960 . S
C1736 H1722 0.960 . S
C1736 H1723 0.960 . S
C1736 C1735 1.524 . S
C1737 C1734 1.403 . S
C1737 C1738 1.392 . S
C1737 C1741 1.495 . S
C1738 C1737 1.392 . S
C1738 C1739 1.385 . S
C1738 C1740 1.478 . S
C1739 H1733 0.930 . S
C1739 C1735 1.400 . S
C1739 C1738 1.385 . S
C1740 C1738 1.478 . S
C1740 C1742 1.381 . S
C1740 C1746 1.383 . S
C1741 C1737 1.495 . S
C1741 H1747 0.959 . S
C1741 H1748 0.961 . S
C1741 H1749 0.960 . S
C1742 C1740 1.381 . S
C1742 C1743 1.394 . S
C1742 H1750 0.930 . S
C1743 C1742 1.394 . S
C1743 C1744 1.383 . S
C1743 H1751 0.929 . S
C1744 C1743 1.383 . S
C1744 C1745 1.377 . S
C1745 H1729 0.930 . S
C1745 C1744 1.377 . S
C1745 C1746 1.379 . S
C1746 H1730 0.931 . S
C1746 C1740 1.383 . S
C1746 C1745 1.379 . S
H1747 C1741 0.959 . S
H1748 C1741 0.961 . S
H1749 C1741 0.960 . S
H1750 C1742 0.930 . S
H1751 C1743 0.929 . S
H1752 C1760 0.929 . S
H1753 C1762 0.930 . S
H1754 C1764 0.930 . S
H1755 C1767 0.929 . S
H1756 C1770 0.930 . S
H1757 C1772 0.960 . S
H1758 C1772 0.960 . S
H1759 C1772 0.960 . S
C1760 H1752 0.929 . S
C1760 C1761 1.377 . S
C1760 C1762 1.384 . S
C1761 C1760 1.377 . S
C1761 C1767 1.390 . S
C1762 H1753 0.930 . S
C1762 C1760 1.384 . S
C1762 C1763 1.372 . S
C1763 C1762 1.372 . S
C1763 C1764 1.400 . S
C1763 C1768 1.490 . S
C1764 H1754 0.930 . S
C1764 C1763 1.400 . S
C1764 C1767 1.386 . S
H1765 C1781 0.930 . S
H1766 C1782 0.931 . S
C1767 H1755 0.929 . S
C1767 C1761 1.390 . S
C1767 C1764 1.386 . S
C1768 C1763 1.490 . S
C1768 C1770 1.395 . S
C1768 C1771 1.403 . S
H1769 C1775 0.930 . S
C1770 H1756 0.930 . S
C1770 C1768 1.395 . S
C1770 C1773 1.403 . S
C1771 C1768 1.403 . S
C1771 C1772 1.524 . S
C1771 C1775 1.400 . S
C1772 H1757 0.960 . S
C1772 H1758 0.960 . S
C1772 H1759 0.960 . S
C1772 C1771 1.524 . S
C1773 C1770 1.403 . S
C1773 C1774 1.392 . S
C1773 C1777 1.495 . S
C1774 C1773 1.392 . S
C1774 C1775 1.385 . S
C1774 C1776 1.478 . S
C1775 H1769 0.930 . S
C1775 C1771 1.400 . S
C1775 C1774 1.385 . S
C1776 C1774 1.478 . S
C1776 C1778 1.381 . S
C1776 C1782 1.383 . S
C1777 C1773 1.495 . S
C1777 H1783 0.959 . S
C1777 H1784 0.961 . S
C1777 H1785 0.960 . S
C1778 C1776 1.381 . S
C1778 C1779 1.394 . S
C1778 H1786 0.930 . S
C1779 C1778 1.394 . S
C1779 C1780 1.383 . S
C1779 H1787 0.929 . S
C1780 C1779 1.383 . S
C1780 C1781 1.377 . S
C1781 H1765 0.930 . S
C1781 C1780 1.377 . S
C1781 C1782 1.379 . S
C1782 H1766 0.931 . S
C1782 C1776 1.383 . S
C1782 C1781 1.379 . S
H1783 C1777 0.959 . S
H1784 C1777 0.961 . S
H1785 C1777 0.960 . S
H1786 C1778 0.930 . S
H1787 C1779 0.929 . S
H1788 C1796 0.929 . S
H1789 C1798 0.930 . S
H1790 C1800 0.930 . S
H1791 C1803 0.929 . S
H1792 C1806 0.930 . S
H1793 C1808 0.960 . S
H1794 C1808 0.960 . S
H1795 C1808 0.960 . S
C1796 H1788 0.929 . S
C1796 C1797 1.377 . S
C1796 C1798 1.384 . S
C1797 C1796 1.377 . S
C1797 C1803 1.390 . S
C1798 H1789 0.930 . S
C1798 C1796 1.384 . S
C1798 C1799 1.372 . S
C1799 C1798 1.372 . S
C1799 C1800 1.400 . S
C1799 C1804 1.490 . S
C1800 H1790 0.930 . S
C1800 C1799 1.400 . S
C1800 C1803 1.386 . S
H1801 C1817 0.930 . S
H1802 C1818 0.931 . S
C1803 H1791 0.929 . S
C1803 C1797 1.390 . S
C1803 C1800 1.386 . S
C1804 C1799 1.490 . S
C1804 C1806 1.395 . S
C1804 C1807 1.403 . S
H1805 C1811 0.930 . S
C1806 H1792 0.930 . S
C1806 C1804 1.395 . S
C1806 C1809 1.403 . S
C1807 C1804 1.403 . S
C1807 C1808 1.524 . S
C1807 C1811 1.400 . S
C1808 H1793 0.960 . S
C1808 H1794 0.960 . S
C1808 H1795 0.960 . S
C1808 C1807 1.524 . S
C1809 C1806 1.403 . S
C1809 C1810 1.392 . S
C1809 C1813 1.495 . S
C1810 C1809 1.392 . S
C1810 C1811 1.385 . S
C1810 C1812 1.478 . S
C1811 H1805 0.930 . S
C1811 C1807 1.400 . S
C1811 C1810 1.385 . S
C1812 C1810 1.478 . S
C1812 C1814 1.381 . S
C1812 C1818 1.383 . S
C1813 C1809 1.495 . S
C1813 H1819 0.959 . S
C1813 H1820 0.961 . S
C1813 H1821 0.960 . S
C1814 C1812 1.381 . S
C1814 C1815 1.394 . S
C1814 H1822 0.930 . S
C1815 C1814 1.394 . S
C1815 C1816 1.383 . S
C1815 H1823 0.929 . S
C1816 C1815 1.383 . S
C1816 C1817 1.377 . S
C1817 H1801 0.930 . S
C1817 C1816 1.377 . S
C1817 C1818 1.379 . S
C1818 H1802 0.931 . S
C1818 C1812 1.383 . S
C1818 C1817 1.379 . S
H1819 C1813 0.959 . S
H1820 C1813 0.961 . S
H1821 C1813 0.960 . S
H1822 C1814 0.930 . S
H1823 C1815 0.929 . S
H1824 C1832 0.929 . S
H1825 C1834 0.930 . S
H1826 C1836 0.930 . S
H1827 C1839 0.929 . S
H1828 C1842 0.930 . S
H1829 C1844 0.960 . S
H1830 C1844 0.960 . S
H1831 C1844 0.960 . S
C1832 H1824 0.929 . S
C1832 C1833 1.377 . S
C1832 C1834 1.384 . S
C1833 C1832 1.377 . S
C1833 C1839 1.390 . S
C1834 H1825 0.930 . S
C1834 C1832 1.384 . S
C1834 C1835 1.372 . S
C1835 C1834 1.372 . S
C1835 C1836 1.400 . S
C1835 C1840 1.490 . S
C1836 H1826 0.930 . S
C1836 C1835 1.400 . S
C1836 C1839 1.386 . S
H1837 C1853 0.930 . S
H1838 C1854 0.931 . S
C1839 H1827 0.929 . S
C1839 C1833 1.390 . S
C1839 C1836 1.386 . S
C1840 C1835 1.490 . S
C1840 C1842 1.395 . S
C1840 C1843 1.403 . S
H1841 C1847 0.930 . S
C1842 H1828 0.930 . S
C1842 C1840 1.395 . S
C1842 C1845 1.403 . S
C1843 C1840 1.403 . S
C1843 C1844 1.524 . S
C1843 C1847 1.400 . S
C1844 H1829 0.960 . S
C1844 H1830 0.960 . S
C1844 H1831 0.960 . S
C1844 C1843 1.524 . S
C1845 C1842 1.403 . S
C1845 C1846 1.392 . S
C1845 C1849 1.495 . S
C1846 C1845 1.392 . S
C1846 C1847 1.385 . S
C1846 C1848 1.478 . S
C1847 H1841 0.930 . S
C1847 C1843 1.400 . S
C1847 C1846 1.385 . S
C1848 C1846 1.478 . S
C1848 C1850 1.381 . S
C1848 C1854 1.383 . S
C1849 C1845 1.495 . S
C1849 H1855 0.959 . S
C1849 H1856 0.961 . S
C1849 H1857 0.960 . S
C1850 C1848 1.381 . S
C1850 C1851 1.394 . S
C1850 H1858 0.930 . S
C1851 C1850 1.394 . S
C1851 C1852 1.383 . S
C1851 H1859 0.929 . S
C1852 C1851 1.383 . S
C1852 C1853 1.377 . S
C1853 H1837 0.930 . S
C1853 C1852 1.377 . S
C1853 C1854 1.379 . S
C1854 H1838 0.931 . S
C1854 C1848 1.383 . S
C1854 C1853 1.379 . S
H1855 C1849 0.959 . S
H1856 C1849 0.961 . S
H1857 C1849 0.960 . S
H1858 C1850 0.930 . S
H1859 C1851 0.929 . S
H1860 C1868 0.929 . S
H1861 C1870 0.930 . S
H1862 C1872 0.930 . S
H1863 C1875 0.929 . S
H1864 C1878 0.930 . S
H1865 C1880 0.960 . S
H1866 C1880 0.960 . S
H1867 C1880 0.960 . S
C1868 H1860 0.929 . S
C1868 C1869 1.377 . S
C1868 C1870 1.384 . S
C1869 C1868 1.377 . S
C1869 C1875 1.390 . S
C1870 H1861 0.930 . S
C1870 C1868 1.384 . S
C1870 C1871 1.372 . S
C1871 C1870 1.372 . S
C1871 C1872 1.400 . S
C1871 C1876 1.490 . S
C1872 H1862 0.930 . S
C1872 C1871 1.400 . S
C1872 C1875 1.386 . S
H1873 C1889 0.930 . S
H1874 C1890 0.931 . S
C1875 H1863 0.929 . S
C1875 C1869 1.390 . S
C1875 C1872 1.386 . S
C1876 C1871 1.490 . S
C1876 C1878 1.395 . S
C1876 C1879 1.403 . S
H1877 C1883 0.930 . S
C1878 H1864 0.930 . S
C1878 C1876 1.395 . S
C1878 C1881 1.403 . S
C1879 C1876 1.403 . S
C1879 C1880 1.524 . S
C1879 C1883 1.400 . S
C1880 H1865 0.960 . S
C1880 H1866 0.960 . S
C1880 H1867 0.960 . S
C1880 C1879 1.524 . S
C1881 C1878 1.403 . S
C1881 C1882 1.392 . S
C1881 C1885 1.495 . S
C1882 C1881 1.392 . S
C1882 C1883 1.385 . S
C1882 C1884 1.478 . S
C1883 H1877 0.930 . S
C1883 C1879 1.400 . S
C1883 C1882 1.385 . S
C1884 C1882 1.478 . S
C1884 C1886 1.381 . S
C1884 C1890 1.383 . S
C1885 C1881 1.495 . S
C1885 H1891 0.959 . S
C1885 H1892 0.961 . S
C1885 H1893 0.960 . S
C1886 C1884 1.381 . S
C1886 C1887 1.394 . S
C1886 H1894 0.930 . S
C1887 C1886 1.394 . S
C1887 C1888 1.383 . S
C1887 H1895 0.929 . S
C1888 C1887 1.383 . S
C1888 C1889 1.377 . S
C1889 H1873 0.930 . S
C1889 C1888 1.377 . S
C1889 C1890 1.379 . S
C1890 H1874 0.931 . S
C1890 C1884 1.383 . S
C1890 C1889 1.379 . S
H1891 C1885 0.959 . S
H1892 C1885 0.961 . S
H1893 C1885 0.960 . S
H1894 C1886 0.930 . S
H1895 C1887 0.929 . S
H1896 C1904 0.929 . S
H1897 C1906 0.930 . S
H1898 C1908 0.930 . S
H1899 C1911 0.929 . S
H1900 C1914 0.930 . S
H1901 C1916 0.960 . S
H1902 C1916 0.960 . S
H1903 C1916 0.960 . S
C1904 H1896 0.929 . S
C1904 C1905 1.377 . S
C1904 C1906 1.384 . S
C1905 C1904 1.377 . S
C1905 C1911 1.390 . S
C1906 H1897 0.930 . S
C1906 C1904 1.384 . S
C1906 C1907 1.372 . S
C1907 C1906 1.372 . S
C1907 C1908 1.400 . S
C1907 C1912 1.490 . S
C1908 H1898 0.930 . S
C1908 C1907 1.400 . S
C1908 C1911 1.386 . S
H1909 C1925 0.930 . S
H1910 C1926 0.931 . S
C1911 H1899 0.929 . S
C1911 C1905 1.390 . S
C1911 C1908 1.386 . S
C1912 C1907 1.490 . S
C1912 C1914 1.395 . S
C1912 C1915 1.403 . S
H1913 C1919 0.930 . S
C1914 H1900 0.930 . S
C1914 C1912 1.395 . S
C1914 C1917 1.403 . S
C1915 C1912 1.403 . S
C1915 C1916 1.524 . S
C1915 C1919 1.400 . S
C1916 H1901 0.960 . S
C1916 H1902 0.960 . S
C1916 H1903 0.960 . S
C1916 C1915 1.524 . S
C1917 C1914 1.403 . S
C1917 C1918 1.392 . S
C1917 C1921 1.495 . S
C1918 C1917 1.392 . S
C1918 C1919 1.385 . S
C1918 C1920 1.478 . S
C1919 H1913 0.930 . S
C1919 C1915 1.400 . S
C1919 C1918 1.385 . S
C1920 C1918 1.478 . S
C1920 C1922 1.381 . S
C1920 C1926 1.383 . S
C1921 C1917 1.495 . S
C1921 H1927 0.959 . S
C1921 H1928 0.961 . S
C1921 H1929 0.960 . S
C1922 C1920 1.381 . S
C1922 C1923 1.394 . S
C1922 H1930 0.930 . S
C1923 C1922 1.394 . S
C1923 C1924 1.383 . S
C1923 H1931 0.929 . S
C1924 C1923 1.383 . S
C1924 C1925 1.377 . S
C1925 H1909 0.930 . S
C1925 C1924 1.377 . S
C1925 C1926 1.379 . S
C1926 H1910 0.931 . S
C1926 C1920 1.383 . S
C1926 C1925 1.379 . S
H1927 C1921 0.959 . S
H1928 C1921 0.961 . S
H1929 C1921 0.960 . S
H1930 C1922 0.930 . S
H1931 C1923 0.929 . S
H1932 C1940 0.929 . S
H1933 C1942 0.930 . S
H1934 C1944 0.930 . S
H1935 C1947 0.929 . S
H1936 C1950 0.930 . S
H1937 C1952 0.960 . S
H1938 C1952 0.960 . S
H1939 C1952 0.960 . S
C1940 H1932 0.929 . S
C1940 C1941 1.377 . S
C1940 C1942 1.384 . S
C1941 C1940 1.377 . S
C1941 C1947 1.390 . S
C1942 H1933 0.930 . S
C1942 C1940 1.384 . S
C1942 C1943 1.372 . S
C1943 C1942 1.372 . S
C1943 C1944 1.400 . S
C1943 C1948 1.490 . S
C1944 H1934 0.930 . S
C1944 C1943 1.400 . S
C1944 C1947 1.386 . S
H1945 C1961 0.930 . S
H1946 C1962 0.931 . S
C1947 H1935 0.929 . S
C1947 C1941 1.390 . S
C1947 C1944 1.386 . S
C1948 C1943 1.490 . S
C1948 C1950 1.395 . S
C1948 C1951 1.403 . S
H1949 C1955 0.930 . S
C1950 H1936 0.930 . S
C1950 C1948 1.395 . S
C1950 C1953 1.403 . S
C1951 C1948 1.403 . S
C1951 C1952 1.524 . S
C1951 C1955 1.400 . S
C1952 H1937 0.960 . S
C1952 H1938 0.960 . S
C1952 H1939 0.960 . S
C1952 C1951 1.524 . S
C1953 C1950 1.403 . S
C1953 C1954 1.392 . S
C1953 C1957 1.495 . S
C1954 C1953 1.392 . S
C1954 C1955 1.385 . S
C1954 C1956 1.478 . S
C1955 H1949 0.930 . S
C1955 C1951 1.400 . S
C1955 C1954 1.385 . S
C1956 C1954 1.478 . S
C1956 C1958 1.381 . S
C1956 C1962 1.383 . S
C1957 C1953 1.495 . S
C1957 H1963 0.959 . S
C1957 H1964 0.961 . S
C1957 H1965 0.960 . S
C1958 C1956 1.381 . S
C1958 C1959 1.394 . S
C1958 H1966 0.930 . S
C1959 C1958 1.394 . S
C1959 C1960 1.383 . S
C1959 H1967 0.929 . S
C1960 C1959 1.383 . S
C1960 C1961 1.377 . S
C1961 H1945 0.930 . S
C1961 C1960 1.377 . S
C1961 C1962 1.379 . S
C1962 H1946 0.931 . S
C1962 C1956 1.383 . S
C1962 C1961 1.379 . S
H1963 C1957 0.959 . S
H1964 C1957 0.961 . S
H1965 C1957 0.960 . S
H1966 C1958 0.930 . S
H1967 C1959 0.929 . S
C537 C7 1.390 . S
C556 C139 1.381 . S
C573 C172 1.388 . S
C592 C40 1.367 . S
C609 C205 1.388 . S
C628 C73 1.366 . S
C645 C238 1.388 . S
C664 C106 1.367 . S
C681 C271 1.382 . S
C700 C403 1.394 . S
C717 C304 1.390 . S
C736 C436 1.372 . S
C753 C469 1.388 . S
C772 C337 1.366 . S
C789 C370 1.386 . S
C808 C502 1.372 . S
C825 N398 1.196 . S
C844 N13 1.187 . S
C861 N431 1.202 . S
C880 N46 1.202 . S
C897 N79 1.200 . S
C916 N464 1.205 . S
C933 N497 1.195 . S
C952 N112 1.183 . S
C969 N266 1.197 . S
C988 N145 1.196 . S
C1005 N299 1.201 . S
C1024 N178 1.213 . S
C1041 N211 1.197 . S
C1060 N332 1.211 . S
C1077 N244 1.192 . S
C1096 N365 1.185 . S
C1113 N134 1.198 . S
C1132 N277 1.173 . S
C1149 N167 1.195 . S
C1168 N310 1.194 . S
C1185 N200 1.200 . S
C1204 N343 1.173 . S
C1221 N376 1.200 . S
C1240 N233 1.199 . S
C1257 N2 1.198 . S
C1276 N409 1.173 . S
C1293 N35 1.195 . S
C1312 N442 1.181 . S
C1329 N475 1.192 . S
C1348 N68 1.203 . S
C1365 N101 1.197 . S
C1384 N508 1.212 . S
C1401 C87 1.246 . S
C1420 C21 1.244 . S
C1437 C54 1.242 . S
C1456 C120 1.245 . S
C1473 C219 1.242 . S
C1492 C153 1.248 . S
C1509 C252 1.244 . S
C1528 C186 1.234 . S
C1545 C351 1.243 . S
C1564 C285 1.251 . S
C1581 C384 1.242 . S
C1600 C318 1.244 . S
C1617 C417 1.246 . S
C1636 C483 1.247 . S
C1653 C516 1.243 . S
C1672 C450 1.250 . S
C1689 C249 1.089 . S
C1708 C18 1.081 . S
C1725 C150 1.095 . S
C1744 C51 1.071 . S
C1761 C183 1.094 . S
C1780 C84 1.113 . S
C1797 C216 1.091 . S
C1816 C117 1.069 . S
C1833 C513 1.090 . S
C1852 C282 1.113 . S
C1869 C414 1.090 . S
C1888 C315 1.110 . S
C1905 C447 1.090 . S
C1924 C348 1.111 . S
C1941 C480 1.089 . S
C1960 C381 1.115 . S
