# Generated by pormake.
# Topology uke, (4)-cn, num edge types: 1
# Building blocks:
#     Node 0, Type 0, BuildingBlock: ICAMEG_clean_sbu_1, # of connection points: 4
#     Node 1, Type 0, BuildingBlock: ICAMEG_clean_sbu_1, # of connection points: 4
#     Node 2, Type 0, BuildingBlock: ICAMEG_clean_sbu_1, # of connection points: 4
#     Node 3, Type 0, BuildingBlock: ICAMEG_clean_sbu_1, # of connection points: 4
#     Node 4, Type 0, BuildingBlock: ICAMEG_clean_sbu_1, # of connection points: 4
#     Node 5, Type 0, BuildingBlock: ICAMEG_clean_sbu_1, # of connection points: 4
#     Node 6, Type 0, BuildingBlock: ICAMEG_clean_sbu_1, # of connection points: 4
#     Node 7, Type 0, BuildingBlock: ICAMEG_clean_sbu_1, # of connection points: 4
#     Node 8, Type 0, BuildingBlock: ICAMEG_clean_sbu_1, # of connection points: 4
#     Node 9, Type 0, BuildingBlock: ICAMEG_clean_sbu_1, # of connection points: 4
#     Node 10, Type 0, BuildingBlock: ICAMEG_clean_sbu_1, # of connection points: 4
#     Node 11, Type 0, BuildingBlock: ICAMEG_clean_sbu_1, # of connection points: 4
#     Node 12, Type 0, BuildingBlock: ICAMEG_clean_sbu_1, # of connection points: 4
#     Node 13, Type 0, BuildingBlock: ICAMEG_clean_sbu_1, # of connection points: 4
#     Node 14, Type 0, BuildingBlock: ICAMEG_clean_sbu_1, # of connection points: 4
#     Node 15, Type 0, BuildingBlock: ICAMEG_clean_sbu_1, # of connection points: 4
#     Node 16, Type 0, BuildingBlock: ICAMEG_clean_sbu_1, # of connection points: 4
#     Node 17, Type 0, BuildingBlock: ICAMEG_clean_sbu_1, # of connection points: 4
#     Node 18, Type 0, BuildingBlock: ICAMEG_clean_sbu_1, # of connection points: 4
#     Node 19, Type 0, BuildingBlock: ICAMEG_clean_sbu_1, # of connection points: 4
#     Node 20, Type 0, BuildingBlock: ICAMEG_clean_sbu_1, # of connection points: 4
#     Node 21, Type 0, BuildingBlock: ICAMEG_clean_sbu_1, # of connection points: 4
#     Node 22, Type 0, BuildingBlock: ICAMEG_clean_sbu_1, # of connection points: 4
#     Node 23, Type 0, BuildingBlock: ICAMEG_clean_sbu_1, # of connection points: 4
#     Node 24, Type 0, BuildingBlock: ICAMEG_clean_sbu_1, # of connection points: 4
#     Node 25, Type 0, BuildingBlock: ICAMEG_clean_sbu_1, # of connection points: 4
#     Node 26, Type 0, BuildingBlock: ICAMEG_clean_sbu_1, # of connection points: 4
#     Node 27, Type 0, BuildingBlock: ICAMEG_clean_sbu_1, # of connection points: 4
#     Node 28, Type 0, BuildingBlock: ICAMEG_clean_sbu_1, # of connection points: 4
#     Node 29, Type 0, BuildingBlock: ICAMEG_clean_sbu_1, # of connection points: 4
#     Node 30, Type 0, BuildingBlock: ICAMEG_clean_sbu_1, # of connection points: 4
#     Node 31, Type 0, BuildingBlock: ICAMEG_clean_sbu_1, # of connection points: 4
#     Edge 32, Type (0, 0), BuildingBlock: XIVTED_clean_linker_0, # of connection points: 2
#     Edge 33, Type (0, 0), BuildingBlock: XIVTED_clean_linker_0, # of connection points: 2
#     Edge 34, Type (0, 0), BuildingBlock: XIVTED_clean_linker_0, # of connection points: 2
#     Edge 35, Type (0, 0), BuildingBlock: XIVTED_clean_linker_0, # of connection points: 2
#     Edge 36, Type (0, 0), BuildingBlock: XIVTED_clean_linker_0, # of connection points: 2
#     Edge 37, Type (0, 0), BuildingBlock: XIVTED_clean_linker_0, # of connection points: 2
#     Edge 38, Type (0, 0), BuildingBlock: XIVTED_clean_linker_0, # of connection points: 2
#     Edge 39, Type (0, 0), BuildingBlock: XIVTED_clean_linker_0, # of connection points: 2
#     Edge 40, Type (0, 0), BuildingBlock: XIVTED_clean_linker_0, # of connection points: 2
#     Edge 41, Type (0, 0), BuildingBlock: XIVTED_clean_linker_0, # of connection points: 2
#     Edge 42, Type (0, 0), BuildingBlock: XIVTED_clean_linker_0, # of connection points: 2
#     Edge 43, Type (0, 0), BuildingBlock: XIVTED_clean_linker_0, # of connection points: 2
#     Edge 44, Type (0, 0), BuildingBlock: XIVTED_clean_linker_0, # of connection points: 2
#     Edge 45, Type (0, 0), BuildingBlock: XIVTED_clean_linker_0, # of connection points: 2
#     Edge 46, Type (0, 0), BuildingBlock: XIVTED_clean_linker_0, # of connection points: 2
#     Edge 47, Type (0, 0), BuildingBlock: XIVTED_clean_linker_0, # of connection points: 2
#     Edge 48, Type (0, 0), BuildingBlock: XIVTED_clean_linker_0, # of connection points: 2
#     Edge 49, Type (0, 0), BuildingBlock: XIVTED_clean_linker_0, # of connection points: 2
#     Edge 50, Type (0, 0), BuildingBlock: XIVTED_clean_linker_0, # of connection points: 2
#     Edge 51, Type (0, 0), BuildingBlock: XIVTED_clean_linker_0, # of connection points: 2
#     Edge 52, Type (0, 0), BuildingBlock: XIVTED_clean_linker_0, # of connection points: 2
#     Edge 53, Type (0, 0), BuildingBlock: XIVTED_clean_linker_0, # of connection points: 2
#     Edge 54, Type (0, 0), BuildingBlock: XIVTED_clean_linker_0, # of connection points: 2
#     Edge 55, Type (0, 0), BuildingBlock: XIVTED_clean_linker_0, # of connection points: 2
#     Edge 56, Type (0, 0), BuildingBlock: XIVTED_clean_linker_0, # of connection points: 2
#     Edge 57, Type (0, 0), BuildingBlock: XIVTED_clean_linker_0, # of connection points: 2
#     Edge 58, Type (0, 0), BuildingBlock: XIVTED_clean_linker_0, # of connection points: 2
#     Edge 59, Type (0, 0), BuildingBlock: XIVTED_clean_linker_0, # of connection points: 2
#     Edge 60, Type (0, 0), BuildingBlock: XIVTED_clean_linker_0, # of connection points: 2
#     Edge 61, Type (0, 0), BuildingBlock: XIVTED_clean_linker_0, # of connection points: 2
#     Edge 62, Type (0, 0), BuildingBlock: XIVTED_clean_linker_0, # of connection points: 2
#     Edge 63, Type (0, 0), BuildingBlock: XIVTED_clean_linker_0, # of connection points: 2
#     Edge 64, Type (0, 0), BuildingBlock: XIVTED_clean_linker_0, # of connection points: 2
#     Edge 65, Type (0, 0), BuildingBlock: XIVTED_clean_linker_0, # of connection points: 2
#     Edge 66, Type (0, 0), BuildingBlock: XIVTED_clean_linker_0, # of connection points: 2
#     Edge 67, Type (0, 0), BuildingBlock: XIVTED_clean_linker_0, # of connection points: 2
#     Edge 68, Type (0, 0), BuildingBlock: XIVTED_clean_linker_0, # of connection points: 2
#     Edge 69, Type (0, 0), BuildingBlock: XIVTED_clean_linker_0, # of connection points: 2
#     Edge 70, Type (0, 0), BuildingBlock: XIVTED_clean_linker_0, # of connection points: 2
#     Edge 71, Type (0, 0), BuildingBlock: XIVTED_clean_linker_0, # of connection points: 2
#     Edge 72, Type (0, 0), BuildingBlock: XIVTED_clean_linker_0, # of connection points: 2
#     Edge 73, Type (0, 0), BuildingBlock: XIVTED_clean_linker_0, # of connection points: 2
#     Edge 74, Type (0, 0), BuildingBlock: XIVTED_clean_linker_0, # of connection points: 2
#     Edge 75, Type (0, 0), BuildingBlock: XIVTED_clean_linker_0, # of connection points: 2
#     Edge 76, Type (0, 0), BuildingBlock: XIVTED_clean_linker_0, # of connection points: 2
#     Edge 77, Type (0, 0), BuildingBlock: XIVTED_clean_linker_0, # of connection points: 2
#     Edge 78, Type (0, 0), BuildingBlock: XIVTED_clean_linker_0, # of connection points: 2
#     Edge 79, Type (0, 0), BuildingBlock: XIVTED_clean_linker_0, # of connection points: 2
#     Edge 80, Type (0, 0), BuildingBlock: XIVTED_clean_linker_0, # of connection points: 2
#     Edge 81, Type (0, 0), BuildingBlock: XIVTED_clean_linker_0, # of connection points: 2
#     Edge 82, Type (0, 0), BuildingBlock: XIVTED_clean_linker_0, # of connection points: 2
#     Edge 83, Type (0, 0), BuildingBlock: XIVTED_clean_linker_0, # of connection points: 2
#     Edge 84, Type (0, 0), BuildingBlock: XIVTED_clean_linker_0, # of connection points: 2
#     Edge 85, Type (0, 0), BuildingBlock: XIVTED_clean_linker_0, # of connection points: 2
#     Edge 86, Type (0, 0), BuildingBlock: XIVTED_clean_linker_0, # of connection points: 2
#     Edge 87, Type (0, 0), BuildingBlock: XIVTED_clean_linker_0, # of connection points: 2
#     Edge 88, Type (0, 0), BuildingBlock: XIVTED_clean_linker_0, # of connection points: 2
#     Edge 89, Type (0, 0), BuildingBlock: XIVTED_clean_linker_0, # of connection points: 2
#     Edge 90, Type (0, 0), BuildingBlock: XIVTED_clean_linker_0, # of connection points: 2
#     Edge 91, Type (0, 0), BuildingBlock: XIVTED_clean_linker_0, # of connection points: 2
#     Edge 92, Type (0, 0), BuildingBlock: XIVTED_clean_linker_0, # of connection points: 2
#     Edge 93, Type (0, 0), BuildingBlock: XIVTED_clean_linker_0, # of connection points: 2
#     Edge 94, Type (0, 0), BuildingBlock: XIVTED_clean_linker_0, # of connection points: 2
#     Edge 95, Type (0, 0), BuildingBlock: XIVTED_clean_linker_0, # of connection points: 2
# Relax obj value: 0.041
# Max RMSD: 0.111
# Mean RMSD: 0.111
data_MOF--net-uke--node1-ICAMEG_clean_sbu_1--edge1-XIVTED_clean_linker_0
_symmetry_space_group_name_H-M    P1
_symmetry_Int_Tables_number       1
_symmetry_cell_setting            triclinic
loop_
_symmetry_equiv_pos_as_xyz
'x, y, z'
_cell_length_a     20.29136
_cell_length_b     120.76333
_cell_length_c     57.99865
_cell_angle_alpha  90.00492
_cell_angle_beta   90.013203
_cell_angle_gamma 90.001347
loop_
_atom_site_label
_atom_site_type_symbol
_atom_site_fract_x
_atom_site_fract_y
_atom_site_fract_z
_atom_type_partial_charge
Co0 Co 0.16088 0.05628 0.25658 0.0
Co1 Co 0.00839 0.04386 0.25128 0.0
O2 O 0.06801 0.05481 0.26467 0.0
C3 C 0.10606 0.07842 0.2485 0.0
O4 O 0.05623 0.0735 0.23834 0.0
C5 C 1.00049 0.0401 0.30131 0.0
O6 O 0.06517 0.03993 0.30114 0.0
O7 O 0.07231 0.03169 0.25694 0.0
O8 O 0.17156 0.0399 0.25538 0.0
H9 H 0.9465 0.01151 0.20124 0.0
H10 H 0.10877 0.06802 0.29755 0.0
O11 O 0.15242 0.07273 0.25732 0.0
H12 H 0.28201 0.04321 0.32732 0.0
H13 H 0.38678 0.07329 0.26239 0.0
H14 H 0.25008 0.04523 0.22325 0.0
H15 H 0.25763 0.04397 0.28569 0.0
H16 H 0.26951 0.07102 0.27258 0.0
O17 O 0.9688 0.04142 0.28253 0.0
H18 H 0.02177 0.02548 0.21765 0.0
H19 H 0.86595 0.03878 0.25792 0.0
H20 H 0.36727 0.04715 0.21266 0.0
H21 H 0.13182 0.06758 0.33931 0.0
H22 H 0.43645 0.06126 0.2323 0.0
H23 H 0.21885 0.05507 0.35444 0.0
O24 O 0.13919 0.05646 0.22318 0.0
H25 H 0.87633 0.0776 0.27219 0.0
H26 H 0.92973 0.05099 0.21046 0.0
H27 H 0.85253 0.06629 0.2025 0.0
H28 H 0.82532 0.07973 0.23351 0.0
H29 H 0.95372 0.06223 0.27935 0.0
H30 H 0.78904 0.0249 0.24209 0.0
H31 H 0.82919 0.01116 0.21346 0.0
O32 O 0.04736 0.04608 0.21989 0.0
C33 C 0.13509 0.03132 0.25644 0.0
C34 C 0.92834 0.01748 0.21362 0.0
C35 C 0.84 0.02499 0.23657 0.0
N36 N 0.94809 0.03301 0.23852 0.0
C37 C 0.97068 0.02544 0.22291 0.0
C38 C 0.88378 0.03281 0.2455 0.0
C39 C 0.86255 0.01728 0.22051 0.0
C40 C 0.14718 0.06265 0.30399 0.0
N41 N 0.18202 0.05607 0.2892 0.0
C42 C 0.15982 0.06239 0.32766 0.0
C43 C 0.20858 0.05536 0.33614 0.0
C44 C 0.244 0.0487 0.32094 0.0
C45 C 0.2299 0.04915 0.29738 0.0
C46 C 0.35718 0.06709 0.25374 0.0
C47 C 0.27999 0.05134 0.23196 0.0
C48 C 0.29074 0.06579 0.25941 0.0
N49 N 0.25318 0.05794 0.24864 0.0
C50 C 0.34626 0.05241 0.22585 0.0
C51 C 0.38502 0.06034 0.23686 0.0
C52 C 0.09549 0.05149 0.21124 0.0
C53 C 0.88763 0.07178 0.25856 0.0
C54 C 0.91826 0.05682 0.22403 0.0
C55 C 0.8744 0.06545 0.21943 0.0
C56 C 0.85912 0.07298 0.23684 0.0
N57 N 0.94596 0.05569 0.24538 0.0
C58 C 0.93119 0.06303 0.26254 0.0
Co59 Co 0.08997 0.1831 0.25573 0.0
Co60 Co 0.24238 0.19552 0.25025 0.0
O61 O 0.18285 0.1846 0.26379 0.0
C62 C 0.14486 0.16093 0.24796 0.0
O63 O 0.19468 0.16582 0.23773 0.0
C64 C 0.25054 0.19937 0.30027 0.0
O65 O 0.18586 0.19955 0.30014 0.0
O66 O 0.17844 0.20769 0.25584 0.0
O67 O 0.07919 0.19948 0.25432 0.0
H68 H 0.30389 0.22776 0.19988 0.0
H69 H 0.14215 0.1715 0.29686 0.0
O70 O 0.09849 0.16665 0.25668 0.0
H71 H 0.96872 0.19637 0.32627 0.0
H72 H 0.86417 0.16607 0.26167 0.0
H73 H 1.00077 0.19402 0.22221 0.0
H74 H 0.99313 0.19548 0.28465 0.0
H75 H 0.98138 0.1684 0.2719 0.0
O76 O 0.28211 0.19802 0.28148 0.0
H77 H 0.22878 0.2138 0.21642 0.0
H78 H 0.38481 0.20064 0.25682 0.0
H79 H 0.88362 0.19204 0.21159 0.0
H80 H 0.11907 0.17207 0.33861 0.0
H81 H 0.8145 0.17798 0.23138 0.0
H82 H 0.03194 0.1846 0.35356 0.0
O83 O 0.11169 0.1828 0.22234 0.0
H84 H 0.3747 0.16184 0.27146 0.0
H85 H 0.32102 0.18831 0.2095 0.0
H86 H 0.39832 0.17301 0.20168 0.0
H87 H 0.42568 0.15965 0.2328 0.0
H88 H 0.29719 0.17721 0.27848 0.0
H89 H 0.46155 0.21451 0.24085 0.0
H90 H 0.42122 0.22817 0.2121 0.0
O91 O 0.20335 0.1932 0.21889 0.0
C92 C 0.11565 0.20806 0.25535 0.0
C93 C 0.32213 0.22182 0.21232 0.0
C94 C 0.41059 0.2144 0.23534 0.0
N95 N 0.30257 0.20635 0.23737 0.0
C96 C 0.27988 0.21387 0.22168 0.0
C97 C 0.3669 0.20658 0.24435 0.0
C98 C 0.38793 0.22206 0.21921 0.0
C99 C 0.1037 0.17689 0.30322 0.0
N100 N 0.06882 0.18341 0.28833 0.0
C101 C 0.09105 0.17721 0.32688 0.0
C102 C 0.04223 0.18426 0.33526 0.0
C103 C 0.00677 0.19087 0.31996 0.0
C104 C 0.02089 0.19035 0.29641 0.0
C105 C 0.89374 0.17224 0.25296 0.0
C106 C 0.97088 0.18793 0.231 0.0
C107 C 0.96015 0.17358 0.25864 0.0
N108 N 0.99769 0.1814 0.24779 0.0
C109 C 0.90464 0.18683 0.22487 0.0
C110 C 0.8659 0.17893 0.23597 0.0
C111 C 0.15536 0.18773 0.21033 0.0
C112 C 0.36333 0.16763 0.25778 0.0
C113 C 0.33254 0.18252 0.22312 0.0
C114 C 0.37646 0.17388 0.2186 0.0
C115 C 0.39183 0.16639 0.23608 0.0
N116 N 0.30486 0.18368 0.24446 0.0
C117 C 0.31971 0.17638 0.26169 0.0
Co118 Co 0.16323 0.18309 0.99363 0.0
Co119 Co 0.01133 0.19565 0.99941 0.0
O120 O 0.07013 0.18461 0.98586 0.0
C121 C 0.10881 0.16093 0.00185 0.0
O122 O 0.05902 0.16578 0.01218 0.0
C123 C 0.00141 0.19934 0.94938 0.0
O124 O 0.0661 0.19945 0.94919 0.0
O125 O 0.07539 0.20776 0.99335 0.0
O126 O 0.17427 0.19943 0.99483 0.0
H127 H 0.9523 0.22814 0.04947 0.0
H128 H 0.10973 0.1714 0.95282 0.0
O129 O 0.15464 0.16667 0.99288 0.0
H130 H 0.28273 0.19611 0.92253 0.0
H131 H 0.38874 0.166 0.98705 0.0
H132 H 0.25348 0.19407 0.02673 0.0
H133 H 0.25947 0.19535 0.96423 0.0
H134 H 0.27126 0.16832 0.97723 0.0
O135 O 0.97056 0.19806 0.96833 0.0
H136 H 0.02653 0.21408 0.03283 0.0
H137 H 0.86879 0.20084 0.99337 0.0
H138 H 0.37092 0.19209 0.03695 0.0
H139 H 0.13167 0.17184 0.91099 0.0
H140 H 0.43937 0.17797 0.01704 0.0
H141 H 0.21858 0.18429 0.89559 0.0
O142 O 0.14242 0.1829 0.02712 0.0
H143 H 0.87728 0.162 0.97939 0.0
H144 H 0.934 0.18868 0.04065 0.0
H145 H 0.8565 0.17347 0.04908 0.0
H146 H 0.8276 0.16001 0.01831 0.0
H147 H 0.95503 0.17726 0.97176 0.0
H148 H 0.79291 0.21482 0.00943 0.0
H149 H 0.83455 0.22857 0.03777 0.0
O150 O 0.05141 0.19346 0.03063 0.0
C151 C 0.13819 0.20804 0.99374 0.0
C152 C 0.9335 0.22216 0.03721 0.0
C153 C 0.84407 0.21469 0.01472 0.0
N154 N 0.95184 0.20658 0.01235 0.0
C155 C 0.97524 0.21416 0.0278 0.0
C156 C 0.88727 0.20681 0.00565 0.0
C157 C 0.86746 0.22241 0.03062 0.0
C158 C 0.14807 0.17676 0.94626 0.0
N159 N 0.18347 0.1833 0.96095 0.0
C160 C 0.16009 0.177 0.92256 0.0
C161 C 0.20879 0.18401 0.91393 0.0
C162 C 0.24477 0.19065 0.92903 0.0
C163 C 0.23129 0.1902 0.95262 0.0
C164 C 0.35946 0.1722 0.99581 0.0
C165 C 0.28307 0.18795 0.0179 0.0
C166 C 0.29289 0.17354 0.99036 0.0
N167 N 0.25572 0.18138 0.00127 0.0
C168 C 0.34948 0.18685 0.0238 0.0
C169 C 0.38784 0.17892 0.01264 0.0
C170 C 0.0994 0.18798 0.03916 0.0
C171 C 0.88932 0.16783 0.99292 0.0
C172 C 0.92182 0.18283 0.02718 0.0
C173 C 0.87778 0.17426 0.03204 0.0
C174 C 0.86155 0.16671 0.01477 0.0
N175 N 0.94877 0.18389 0.0057 0.0
C176 C 0.93309 0.17652 0.98867 0.0
Co177 Co 0.08975 0.05616 0.99456 0.0
Co178 Co 0.24246 0.04391 0.00072 0.0
O179 O 0.18292 0.05474 0.98685 0.0
C180 C 0.14314 0.07841 0.00235 0.0
O181 O 0.19305 0.07364 0.01277 0.0
C182 C 0.25198 0.03991 0.9508 0.0
O183 O 0.18731 0.03969 0.95072 0.0
O184 O 0.17908 0.03165 0.9951 0.0
O185 O 0.07964 0.0398 0.99611 0.0
H186 H 0.30383 0.01189 0.05174 0.0
H187 H 0.14262 0.06772 0.95349 0.0
O188 O 0.0975 0.0726 0.99345 0.0
H189 H 0.97102 0.04258 0.92373 0.0
H190 H 0.86337 0.07289 0.98759 0.0
H191 H 1.0001 0.04522 0.02789 0.0
H192 H 0.99423 0.04359 0.96542 0.0
H193 H 0.98095 0.07068 0.97781 0.0
O194 O 0.28305 0.04134 0.96966 0.0
H195 H 0.22864 0.02572 0.03475 0.0
H196 H 0.38521 0.0389 0.99468 0.0
H197 H 0.88259 0.04709 0.03808 0.0
H198 H 0.12072 0.06703 0.91167 0.0
H199 H 0.8134 0.06101 0.01786 0.0
H200 H 0.03452 0.05436 0.89654 0.0
O201 O 0.11052 0.05657 0.02802 0.0
H202 H 0.37428 0.07763 0.97949 0.0
H203 H 0.31975 0.05132 0.04164 0.0
H204 H 0.3964 0.06671 0.04951 0.0
H205 H 0.42419 0.07999 0.01829 0.0
H206 H 0.2974 0.06218 0.97242 0.0
H207 H 0.46203 0.02517 0.01109 0.0
H208 H 0.42147 0.01156 0.03991 0.0
O209 O 0.2025 0.04628 0.03191 0.0
C210 C 0.1163 0.03125 0.99537 0.0
C211 C 0.32216 0.01781 0.03927 0.0
C212 C 0.41093 0.02525 0.01644 0.0
N213 N 0.30269 0.03318 0.01394 0.0
C214 C 0.27987 0.02568 0.02967 0.0
C215 C 0.36719 0.03299 0.00718 0.0
C216 C 0.38814 0.01762 0.03261 0.0
C217 C 0.10457 0.06227 0.94705 0.0
N218 N 0.06954 0.05575 0.96188 0.0
C219 C 0.09258 0.06188 0.92335 0.0
C220 C 0.04428 0.05475 0.91487 0.0
C221 C 0.00867 0.04814 0.93011 0.0
C222 C 0.02211 0.04873 0.9537 0.0
C223 C 0.89297 0.06678 0.99649 0.0
C224 C 0.97019 0.05125 0.01892 0.0
C225 C 0.95959 0.06551 0.99106 0.0
N226 N 0.99717 0.05777 0.00214 0.0
C227 C 0.90374 0.05229 0.02481 0.0
C228 C 0.86496 0.06011 0.01347 0.0
C229 C 0.15402 0.05171 0.04024 0.0
C230 C 0.36272 0.07188 0.99321 0.0
C231 C 0.33146 0.05708 0.02798 0.0
C232 C 0.37501 0.06577 0.03253 0.0
C233 C 0.39062 0.07321 0.01499 0.0
N234 N 0.30437 0.05582 0.00656 0.0
C235 C 0.31945 0.06308 0.98928 0.0
Co236 Co 0.83669 0.93321 0.74431 0.0
Co237 Co 0.98902 0.94566 0.75002 0.0
O238 O 0.92993 0.93461 0.73668 0.0
C239 C 0.891 0.91115 0.75361 0.0
O240 O 0.94041 0.91614 0.76387 0.0
C241 C 0.99899 0.94908 0.69993 0.0
O242 O 0.9343 0.94919 0.69971 0.0
O243 O 0.92533 0.95778 0.74369 0.0
O244 O 0.82597 0.94959 0.74482 0.0
H245 H 0.04886 0.97835 0.79938 0.0
H246 H 0.89058 0.92109 0.70412 0.0
O247 O 0.84517 0.91677 0.74428 0.0
H248 H 0.71863 0.9456 0.67241 0.0
H249 H 0.61112 0.91613 0.73794 0.0
H250 H 0.74597 0.94456 0.7767 0.0
H251 H 0.7413 0.94525 0.71419 0.0
H252 H 0.72882 0.91831 0.72831 0.0
O253 O 0.02984 0.94789 0.71891 0.0
H254 H 0.97428 0.96425 0.78304 0.0
H255 H 0.13171 0.9507 0.74391 0.0
H256 H 0.62831 0.94272 0.78671 0.0
H257 H 0.86924 0.92111 0.66224 0.0
H258 H 0.56007 0.92842 0.76726 0.0
H259 H 0.78286 0.93347 0.64613 0.0
O260 O 0.85686 0.93332 0.77783 0.0
H261 H 0.12193 0.91178 0.73074 0.0
H262 H 0.06616 0.93882 0.7914 0.0
H263 H 0.1431 0.92358 0.80018 0.0
H264 H 0.1715 0.90994 0.76971 0.0
H265 H 0.04476 0.92709 0.72276 0.0
H266 H 0.20793 0.96471 0.75969 0.0
H267 H 0.16663 0.97863 0.7877 0.0
O268 O 0.94889 0.94364 0.78126 0.0
C269 C 0.86253 0.95815 0.74375 0.0
C270 C 0.06752 0.9723 0.78727 0.0
C271 C 0.15677 0.96465 0.76496 0.0
N272 N 0.04879 0.9566 0.76274 0.0
C273 C 0.02558 0.96427 0.77803 0.0
C274 C 0.11337 0.95675 0.75606 0.0
C275 C 0.13357 0.97246 0.78068 0.0
C276 C 0.85247 0.9264 0.69725 0.0
N277 N 0.81702 0.93312 0.71158 0.0
C278 C 0.84079 0.92642 0.67352 0.0
C279 C 0.79239 0.93336 0.66449 0.0
C280 C 0.75637 0.94018 0.67923 0.0
C281 C 0.7695 0.93996 0.70286 0.0
C282 C 0.6403 0.9224 0.7465 0.0
C283 C 0.71647 0.93836 0.76807 0.0
C284 C 0.70699 0.92367 0.74115 0.0
N285 N 0.74405 0.93162 0.7518 0.0
C286 C 0.64994 0.93734 0.77385 0.0
C287 C 0.61169 0.92931 0.76295 0.0
C288 C 0.90026 0.93834 0.78982 0.0
C289 C 0.1101 0.9177 0.74413 0.0
C290 C 0.07815 0.9329 0.77807 0.0
C291 C 0.12186 0.9243 0.78312 0.0
C292 C 0.13781 0.91665 0.76601 0.0
N293 N 0.05124 0.93387 0.75656 0.0
C294 C 0.06667 0.92641 0.73969 0.0
Co295 Co 0.91657 0.80645 0.74342 0.0
Co296 Co 0.762 0.79472 0.7499 0.0
O297 O 0.82295 0.80532 0.73601 0.0
C298 C 0.86364 0.82853 0.75361 0.0
O299 O 0.8134 0.82355 0.76337 0.0
C300 C 0.75467 0.7903 0.69991 0.0
O301 O 0.81936 0.79035 0.69986 0.0
O302 O 0.82549 0.78226 0.74565 0.0
O303 O 0.9256 0.79012 0.74299 0.0
H304 H 0.69596 0.76372 0.80284 0.0
H305 H 0.86197 0.81917 0.70412 0.0
O306 O 0.90949 0.82291 0.74431 0.0
H307 H 0.03094 0.79471 0.67035 0.0
H308 H 0.14325 0.82311 0.73702 0.0
H309 H 0.00769 0.79443 0.77463 0.0
H310 H 0.00986 0.79459 0.71223 0.0
H311 H 0.02502 0.82132 0.72781 0.0
O312 O 0.72332 0.79171 0.71871 0.0
H313 H 0.77265 0.77723 0.78557 0.0
H314 H 0.61969 0.78961 0.74274 0.0
H315 H 0.12583 0.79587 0.7842 0.0
H316 H 0.88172 0.8196 0.66216 0.0
H317 H 0.19445 0.81029 0.76533 0.0
H318 H 0.96661 0.80729 0.64501 0.0
O319 O 0.89813 0.80591 0.7771 0.0
H320 H 0.63474 0.82841 0.72529 0.0
H321 H 0.68011 0.80264 0.78928 0.0
H322 H 0.60377 0.81826 0.79539 0.0
H323 H 0.58061 0.83127 0.76323 0.0
H324 H 0.71122 0.81274 0.72001 0.0
H325 H 0.54146 0.77618 0.7594 0.0
H326 H 0.57945 0.76314 0.78974 0.0
O327 O 0.79943 0.79764 0.78119 0.0
C328 C 0.88812 0.78168 0.74393 0.0
C329 C 0.67877 0.76938 0.78968 0.0
C330 C 0.59208 0.77636 0.76528 0.0
N331 N 0.70053 0.78425 0.7633 0.0
C332 C 0.72191 0.77707 0.7799 0.0
C333 C 0.63663 0.78393 0.75587 0.0
C334 C 0.61342 0.76905 0.78231 0.0
C335 C 0.89942 0.81386 0.6968 0.0
N336 N 0.93496 0.80691 0.71061 0.0
C337 C 0.9102 0.81411 0.67303 0.0
C338 C 0.95778 0.80719 0.66341 0.0
C339 C 0.99386 0.80012 0.67762 0.0
C340 C 0.98164 0.80008 0.70132 0.0
C341 C 0.1139 0.81678 0.74533 0.0
C342 C 0.03732 0.80069 0.76625 0.0
C343 C 0.04691 0.81574 0.74022 0.0
N344 N 0.00964 0.80772 0.75055 0.0
C345 C 0.10415 0.80148 0.77178 0.0
C346 C 0.1426 0.80958 0.76121 0.0
C347 C 0.85153 0.80203 0.78948 0.0
C348 C 0.64433 0.82279 0.73942 0.0
C349 C 0.67049 0.80829 0.77524 0.0
C350 C 0.62707 0.8171 0.77878 0.0
C351 C 0.61405 0.8244 0.76072 0.0
N352 N 0.7 0.80677 0.7543 0.0
C353 C 0.68739 0.81387 0.7365 0.0
Co354 Co 0.8393 0.80675 0.00735 0.0
Co355 Co 0.99362 0.7949 0.00121 0.0
O356 O 0.93271 0.80554 0.01498 0.0
C357 C 0.8932 0.82877 0.99731 0.0
O358 O 0.94355 0.82375 0.98771 0.0
C359 C 0.9989 0.79035 0.05114 0.0
O360 O 0.93422 0.79043 0.05082 0.0
O361 O 0.92954 0.78249 0.00509 0.0
O362 O 0.82969 0.79044 0.00774 0.0
H363 H 0.06013 0.76395 0.94819 0.0
H364 H 0.89367 0.8194 0.0468 0.0
O365 O 0.84697 0.82319 0.00648 0.0
H366 H 0.72321 0.7951 0.08014 0.0
H367 H 0.61307 0.82363 0.01322 0.0
H368 H 0.74838 0.79483 0.97591 0.0
H369 H 0.74493 0.795 0.0383 0.0
H370 H 0.73104 0.82172 0.02271 0.0
O371 O 0.03115 0.79178 0.03253 0.0
H372 H 0.98341 0.7775 0.96531 0.0
H373 H 0.13547 0.78962 0.00887 0.0
H374 H 0.63049 0.79638 0.96605 0.0
H375 H 0.8733 0.81982 0.08873 0.0
H376 H 0.562 0.81087 0.98477 0.0
H377 H 0.78767 0.80758 0.10566 0.0
O378 O 0.85839 0.80619 0.97371 0.0
H379 H 0.12148 0.8284 0.02659 0.0
H380 H 0.07682 0.80283 0.96218 0.0
H381 H 0.1539 0.81838 0.95648 0.0
H382 H 0.17671 0.83129 0.98886 0.0
H383 H 0.04428 0.8128 0.03146 0.0
H384 H 0.21372 0.77614 0.99235 0.0
H385 H 0.17621 0.76321 0.96172 0.0
O386 O 0.95717 0.79791 0.96981 0.0
C387 C 0.86687 0.78197 0.00674 0.0
C388 C 0.07712 0.76956 0.96147 0.0
C389 C 0.1633 0.77639 0.98628 0.0
N390 N 0.05509 0.78439 0.98794 0.0
C391 C 0.03396 0.77727 0.97118 0.0
C392 C 0.11874 0.78399 0.99561 0.0
C393 C 0.14222 0.76915 0.96909 0.0
C394 C 0.85588 0.81413 0.05402 0.0
N395 N 0.82029 0.80723 0.04011 0.0
C396 C 0.84476 0.81437 0.07778 0.0
C397 C 0.79677 0.80749 0.08727 0.0
C398 C 0.76061 0.80048 0.07297 0.0
C399 C 0.77319 0.80044 0.04929 0.0
C400 C 0.64237 0.81727 0.00498 0.0
C401 C 0.7188 0.80111 0.98423 0.0
C402 C 0.70921 0.81617 0.01025 0.0
N403 N 0.74642 0.80812 0.99999 0.0
C404 C 0.65212 0.80197 0.97853 0.0
C405 C 0.61374 0.81011 0.98902 0.0
C406 C 0.90523 0.80232 0.96143 0.0
C407 C 0.11206 0.82281 0.01237 0.0
C408 C 0.0863 0.80843 0.97631 0.0
C409 C 0.13014 0.8172 0.97301 0.0
C410 C 0.14295 0.82444 0.99118 0.0
N411 N 0.05619 0.80689 0.99714 0.0
C412 C 0.06859 0.81394 0.01505 0.0
Co413 Co 0.90985 0.93323 0.00638 0.0
Co414 Co 0.75779 0.9458 0.00084 0.0
O415 O 0.81687 0.93477 0.01425 0.0
C416 C 0.85435 0.91123 0.99758 0.0
O417 O 0.80482 0.91625 0.98746 0.0
C418 C 0.75009 0.94953 0.05086 0.0
O419 O 0.81477 0.94961 0.05069 0.0
O420 O 0.82221 0.95789 0.00654 0.0
O421 O 0.92125 0.94959 0.00556 0.0
H422 H 0.69749 0.97823 0.95081 0.0
H423 H 0.85636 0.92136 0.04695 0.0
O424 O 0.90067 0.91681 0.00671 0.0
H425 H 0.0301 0.9458 0.0777 0.0
H426 H 0.13484 0.91591 0.01234 0.0
H427 H 1.00018 0.94433 0.97349 0.0
H428 H 0.00654 0.94528 0.03599 0.0
H429 H 0.01751 0.91828 0.02232 0.0
O430 O 0.7183 0.94828 0.03209 0.0
H431 H 0.77206 0.96414 0.96719 0.0
H432 H 0.61561 0.95107 0.00749 0.0
H433 H 0.11747 0.9423 0.96311 0.0
H434 H 0.87856 0.92156 0.08877 0.0
H435 H 0.18561 0.928 0.9826 0.0
H436 H 0.96584 0.93388 0.1044 0.0
O437 O 0.88884 0.93323 0.97293 0.0
H438 H 0.62423 0.91221 0.02169 0.0
H439 H 0.67878 0.93879 0.96002 0.0
H440 H 0.60087 0.92359 0.95203 0.0
H441 H 0.57309 0.91017 0.98301 0.0
H442 H 0.70233 0.92748 0.02887 0.0
H443 H 0.53941 0.96507 0.99168 0.0
H444 H 0.58023 0.97875 0.96306 0.0
O445 O 0.79669 0.94351 0.96947 0.0
C446 C 0.88502 0.95819 0.00643 0.0
C447 C 0.67905 0.97228 0.9632 0.0
C448 C 0.59035 0.96491 0.98616 0.0
N449 N 0.69802 0.95673 0.98808 0.0
C450 C 0.72098 0.96426 0.97246 0.0
C451 C 0.63373 0.95701 0.99507 0.0
C452 C 0.61328 0.97258 0.9701 0.0
C453 C 0.89486 0.92665 0.0536 0.0
N454 N 0.93032 0.93325 0.03904 0.0
C455 C 0.90703 0.92677 0.07731 0.0
C456 C 0.95594 0.9337 0.08607 0.0
C457 C 0.99198 0.94039 0.0711 0.0
C458 C 0.97834 0.94007 0.0475 0.0
C459 C 0.1057 0.92218 0.00376 0.0
C460 C 0.02965 0.93813 0.98214 0.0
C461 C 0.03922 0.92355 0.00931 0.0
N462 N 0.00223 0.9315 0.99863 0.0
C463 C 0.09597 0.937 0.97615 0.0
C464 C 0.13416 0.92897 0.98708 0.0
C465 C 0.84507 0.93814 0.96093 0.0
C466 C 0.63579 0.91802 0.00807 0.0
C467 C 0.66706 0.93297 0.97357 0.0
C468 C 0.6228 0.92439 0.96896 0.0
C469 C 0.60719 0.91687 0.98635 0.0
N470 N 0.69483 0.93405 0.99493 0.0
C471 C 0.67975 0.92671 0.01207 0.0
Co472 Co 0.16069 0.55635 0.75618 0.0
Co473 Co 0.00826 0.54395 0.75047 0.0
O474 O 0.06755 0.55493 0.76396 0.0
C475 C 0.10656 0.57848 0.74759 0.0
O476 O 0.05699 0.57355 0.73729 0.0
C477 C 0.99802 0.54042 0.80054 0.0
O478 O 0.0627 0.54022 0.8008 0.0
O479 O 0.0718 0.53178 0.75667 0.0
O480 O 0.17115 0.53996 0.75519 0.0
H481 H 0.9479 0.51142 0.70073 0.0
H482 H 0.10765 0.56822 0.79684 0.0
O483 O 0.15248 0.5728 0.7567 0.0
H484 H 0.27972 0.54342 0.82747 0.0
H485 H 0.38666 0.57328 0.76258 0.0
H486 H 0.25065 0.54518 0.72327 0.0
H487 H 0.25641 0.54406 0.78575 0.0
H488 H 0.26909 0.57108 0.77239 0.0
O489 O 0.96735 0.54167 0.78154 0.0
H490 H 0.02271 0.52543 0.71725 0.0
H491 H 0.86547 0.53896 0.7565 0.0
H492 H 0.36816 0.54703 0.71306 0.0
H493 H 0.12964 0.56789 0.83867 0.0
H494 H 0.43699 0.56116 0.73278 0.0
H495 H 0.21609 0.5554 0.85424 0.0
O496 O 0.13995 0.55646 0.7227 0.0
H497 H 0.87593 0.57784 0.77015 0.0
H498 H 0.93124 0.55094 0.70917 0.0
H499 H 0.85457 0.56624 0.70057 0.0
H500 H 0.82641 0.57982 0.7312 0.0
H501 H 0.95282 0.56247 0.77795 0.0
H502 H 0.78901 0.52504 0.74055 0.0
H503 H 0.8301 0.51117 0.71238 0.0
O504 O 0.0484 0.54603 0.71925 0.0
C505 C 0.1346 0.5314 0.75631 0.0
C506 C 0.92933 0.51745 0.71291 0.0
C507 C 0.84019 0.52508 0.73529 0.0
N508 N 0.94831 0.53307 0.73762 0.0
C509 C 0.97141 0.52543 0.72225 0.0
C510 C 0.88371 0.53293 0.74429 0.0
C511 C 0.86327 0.5173 0.71948 0.0
C512 C 0.14579 0.56284 0.80347 0.0
N513 N 0.18091 0.55621 0.78887 0.0
C514 C 0.15784 0.56266 0.82717 0.0
C515 C 0.20628 0.55563 0.8359 0.0
C516 C 0.24197 0.5489 0.82089 0.0
C517 C 0.22846 0.54929 0.79729 0.0
C518 C 0.35722 0.56708 0.7539 0.0
C519 C 0.28041 0.5513 0.73202 0.0
C520 C 0.29061 0.56581 0.75935 0.0
N521 N 0.25323 0.55795 0.74854 0.0
C522 C 0.34686 0.55233 0.72613 0.0
C523 C 0.38543 0.56027 0.73718 0.0
C524 C 0.09665 0.55143 0.7107 0.0
C525 C 0.88765 0.57196 0.75669 0.0
C526 C 0.91935 0.55683 0.72257 0.0
C527 C 0.8758 0.56546 0.71762 0.0
C528 C 0.85997 0.57307 0.73482 0.0
N529 N 0.94623 0.55578 0.74407 0.0
C530 C 0.93093 0.56321 0.76103 0.0
Co531 Co 0.08911 0.68301 0.75598 0.0
Co532 Co 0.2402 0.69591 0.75092 0.0
O533 O 0.1819 0.68469 0.76411 0.0
C534 C 0.14547 0.66098 0.74763 0.0
O535 O 0.19508 0.66598 0.73751 0.0
C536 C 0.24999 0.69931 0.80113 0.0
O537 O 0.1853 0.6993 0.80146 0.0
O538 O 0.17518 0.70784 0.75721 0.0
O539 O 0.07687 0.69935 0.755 0.0
H540 H 0.2976 0.72878 0.70176 0.0
H541 H 0.14231 0.6713 0.79681 0.0
O542 O 0.09892 0.66659 0.75653 0.0
H543 H 0.96652 0.69552 0.82685 0.0
H544 H 0.86471 0.66542 0.76149 0.0
H545 H 0.99899 0.69393 0.72276 0.0
H546 H 0.99111 0.69497 0.78522 0.0
H547 H 0.98173 0.66796 0.77176 0.0
O548 O 0.28062 0.69821 0.7821 0.0
H549 H 0.22414 0.71449 0.71794 0.0
H550 H 0.38235 0.70132 0.75727 0.0
H551 H 0.88201 0.69174 0.71209 0.0
H552 H 0.11905 0.67153 0.83856 0.0
H553 H 0.81405 0.67741 0.73152 0.0
H554 H 0.03072 0.68373 0.85383 0.0
O555 O 0.11085 0.68297 0.72256 0.0
H556 H 0.37608 0.66238 0.77029 0.0
H557 H 0.31855 0.68932 0.70963 0.0
H558 H 0.3971 0.6743 0.70094 0.0
H559 H 0.4264 0.66071 0.73141 0.0
H560 H 0.29729 0.67746 0.77818 0.0
H561 H 0.45746 0.71553 0.74165 0.0
H562 H 0.4152 0.72936 0.71362 0.0
O563 O 0.20074 0.69381 0.71956 0.0
C564 C 0.11236 0.70803 0.75651 0.0
C565 C 0.31667 0.72277 0.71389 0.0
C566 C 0.40636 0.71534 0.73631 0.0
N567 N 0.2991 0.70701 0.73834 0.0
C568 C 0.27536 0.71464 0.72304 0.0
C569 C 0.36359 0.70733 0.74512 0.0
C570 C 0.38262 0.7231 0.72057 0.0
C571 C 0.10337 0.67654 0.80331 0.0
N572 N 0.06793 0.68307 0.78859 0.0
C573 C 0.0906 0.67668 0.82697 0.0
C574 C 0.04111 0.68354 0.83553 0.0
C575 C 0.0051 0.69016 0.8204 0.0
C576 C 0.01934 0.68983 0.79685 0.0
C577 C 0.89377 0.67172 0.75293 0.0
C578 C 0.96961 0.68772 0.73138 0.0
C579 C 0.96008 0.67317 0.75864 0.0
N580 N 0.99697 0.68114 0.74799 0.0
C581 C 0.90346 0.6865 0.72523 0.0
C582 C 0.86538 0.67844 0.73612 0.0
C583 C 0.15362 0.68823 0.71075 0.0
C584 C 0.36386 0.66827 0.75689 0.0
C585 C 0.33091 0.68341 0.72296 0.0
C586 C 0.37554 0.67494 0.71796 0.0
C587 C 0.39199 0.66733 0.73506 0.0
N588 N 0.3036 0.68429 0.74443 0.0
C589 C 0.31951 0.67686 0.76129 0.0
Co590 Co 0.16826 0.68317 0.49379 0.0
Co591 Co 0.01674 0.69588 0.49942 0.0
O592 O 0.07535 0.68483 0.48585 0.0
C593 C 0.1119 0.66113 0.50176 0.0
O594 O 0.06263 0.66614 0.51207 0.0
C595 C 0.00719 0.69962 0.44934 0.0
O596 O 0.07189 0.6997 0.44914 0.0
O597 O 0.08138 0.70792 0.49354 0.0
O598 O 0.18016 0.69954 0.4951 0.0
H599 H 0.95838 0.72835 0.54963 0.0
H600 H 0.11473 0.67162 0.45281 0.0
O601 O 0.15859 0.66674 0.49293 0.0
H602 H 0.28942 0.69612 0.42297 0.0
H603 H 0.39282 0.66571 0.48752 0.0
H604 H 0.25871 0.69399 0.52706 0.0
H605 H 0.26552 0.69534 0.46463 0.0
H606 H 0.27558 0.66824 0.47753 0.0
O607 O 0.97634 0.69837 0.4683 0.0
H608 H 0.03225 0.71422 0.53301 0.0
H609 H 0.87445 0.70123 0.49323 0.0
H610 H 0.3759 0.69181 0.53745 0.0
H611 H 0.13728 0.67208 0.41102 0.0
H612 H 0.44377 0.67759 0.51761 0.0
H613 H 0.22504 0.68443 0.39585 0.0
O614 O 0.147 0.68296 0.52724 0.0
H615 H 0.88198 0.66238 0.47893 0.0
H616 H 0.93856 0.68891 0.54047 0.0
H617 H 0.86054 0.67375 0.54866 0.0
H618 H 0.83173 0.66036 0.51775 0.0
H619 H 0.96023 0.67759 0.47154 0.0
H620 H 0.79894 0.71526 0.50928 0.0
H621 H 0.84079 0.72892 0.53777 0.0
O622 O 0.05627 0.69358 0.53071 0.0
C623 C 0.14421 0.70818 0.49402 0.0
C624 C 0.93949 0.72241 0.53731 0.0
C625 C 0.85003 0.71508 0.51463 0.0
N626 N 0.95751 0.70684 0.51236 0.0
C627 C 0.98103 0.71437 0.5279 0.0
C628 C 0.89303 0.70716 0.50558 0.0
C629 C 0.87354 0.72274 0.53062 0.0
C630 C 0.15344 0.67692 0.44635 0.0
N631 N 0.18896 0.6834 0.46114 0.0
C632 C 0.1658 0.67719 0.42267 0.0
C633 C 0.21498 0.68413 0.41417 0.0
C634 C 0.25109 0.6907 0.42937 0.0
C635 C 0.23725 0.69024 0.45294 0.0
C636 C 0.36379 0.67196 0.49625 0.0
C637 C 0.28805 0.68783 0.51826 0.0
C638 C 0.29737 0.67341 0.4907 0.0
N639 N 0.26053 0.68131 0.50157 0.0
C640 C 0.35432 0.68661 0.52426 0.0
C641 C 0.39236 0.67862 0.51313 0.0
C642 C 0.10392 0.68803 0.53927 0.0
C643 C 0.89398 0.66818 0.49252 0.0
C644 C 0.9264 0.6831 0.52694 0.0
C645 C 0.88208 0.67455 0.53167 0.0
C646 C 0.86589 0.66704 0.51431 0.0
N647 N 0.95368 0.68417 0.50551 0.0
C648 C 0.93802 0.67684 0.4884 0.0
Co649 Co 0.08902 0.55643 0.49401 0.0
Co650 Co 0.24112 0.54395 0.50008 0.0
O651 O 0.18211 0.55488 0.48629 0.0
C652 C 0.14431 0.57853 0.50202 0.0
O653 O 0.19355 0.57357 0.51245 0.0
C654 C 0.25096 0.54009 0.45012 0.0
O655 O 0.18627 0.53994 0.44992 0.0
O656 O 0.17721 0.53181 0.49426 0.0
O657 O 0.07797 0.54004 0.49539 0.0
H658 H 0.30073 0.51171 0.55072 0.0
H659 H 0.14252 0.56802 0.45309 0.0
O660 O 0.09794 0.57288 0.49311 0.0
H661 H 0.96955 0.54323 0.42303 0.0
H662 H 0.86374 0.57358 0.48722 0.0
H663 H 0.99859 0.54553 0.52715 0.0
H664 H 0.9929 0.54408 0.46473 0.0
H665 H 0.98124 0.5712 0.47747 0.0
O666 O 0.28182 0.54143 0.46905 0.0
H667 H 0.22627 0.52568 0.53385 0.0
H668 H 0.38373 0.53881 0.49412 0.0
H669 H 0.88115 0.54756 0.53731 0.0
H670 H 0.12051 0.56749 0.41126 0.0
H671 H 0.81291 0.56167 0.51728 0.0
H672 H 0.0336 0.555 0.39599 0.0
O673 O 0.10971 0.55671 0.52748 0.0
H674 H 0.37433 0.5776 0.47935 0.0
H675 H 0.3185 0.55116 0.54114 0.0
H676 H 0.39559 0.56647 0.54926 0.0
H677 H 0.42401 0.57981 0.51822 0.0
H678 H 0.29701 0.56224 0.47204 0.0
H679 H 0.45984 0.52493 0.51043 0.0
H680 H 0.41846 0.51128 0.53901 0.0
O681 O 0.20116 0.54629 0.53126 0.0
C682 C 0.1144 0.53145 0.49454 0.0
C683 C 0.31942 0.51764 0.53836 0.0
C684 C 0.4087 0.52505 0.51572 0.0
N685 N 0.3008 0.53312 0.51322 0.0
C686 C 0.27754 0.5256 0.52881 0.0
C687 C 0.36536 0.53288 0.50652 0.0
C688 C 0.38545 0.5174 0.53176 0.0
C689 C 0.10418 0.56265 0.44658 0.0
N690 N 0.06883 0.55613 0.46133 0.0
C691 C 0.09213 0.56235 0.42288 0.0
C692 C 0.04343 0.55532 0.41432 0.0
C693 C 0.0075 0.54871 0.42948 0.0
C694 C 0.02102 0.54921 0.45307 0.0
C695 C 0.89293 0.56739 0.49604 0.0
C696 C 0.96909 0.55164 0.51826 0.0
C697 C 0.95949 0.56602 0.49062 0.0
N698 N 0.99654 0.55817 0.5016 0.0
C699 C 0.90268 0.55278 0.52413 0.0
C700 C 0.86443 0.5607 0.5129 0.0
C701 C 0.15296 0.55176 0.53964 0.0
C702 C 0.36249 0.57182 0.49299 0.0
C703 C 0.3305 0.55695 0.52756 0.0
C704 C 0.3743 0.56559 0.53225 0.0
C705 C 0.39026 0.57306 0.51482 0.0
N706 N 0.30352 0.55578 0.5061 0.0
C707 C 0.31898 0.56307 0.48892 0.0
Co708 Co 0.83631 0.43353 0.2437 0.0
Co709 Co 0.98913 0.44577 0.2495 0.0
O710 O 0.92932 0.43494 0.23576 0.0
C711 C 0.89 0.41126 0.25117 0.0
O712 O 0.93995 0.41603 0.26156 0.0
C713 C 0.99834 0.4497 0.19952 0.0
O714 O 0.93367 0.44997 0.19949 0.0
O715 O 0.92581 0.45803 0.24388 0.0
O716 O 0.82628 0.44992 0.24538 0.0
H717 H 0.05134 0.47784 0.30026 0.0
H718 H 0.88822 0.42202 0.20242 0.0
O719 O 0.84404 0.41708 0.24246 0.0
H720 H 0.71617 0.44724 0.17327 0.0
H721 H 0.60976 0.41682 0.23723 0.0
H722 H 0.74738 0.44444 0.27731 0.0
H723 H 0.74026 0.44616 0.2149 0.0
H724 H 0.72715 0.41904 0.22717 0.0
O725 O 0.02948 0.44828 0.21837 0.0
H726 H 0.97585 0.46401 0.28345 0.0
H727 H 0.13188 0.45072 0.24326 0.0
H728 H 0.63007 0.44258 0.28778 0.0
H729 H 0.86546 0.42278 0.16066 0.0
H730 H 0.56043 0.42868 0.26767 0.0
H731 H 0.77902 0.43549 0.14584 0.0
O732 O 0.85778 0.43308 0.27711 0.0
H733 H 0.12035 0.41198 0.22829 0.0
H734 H 0.06677 0.43839 0.29036 0.0
H735 H 0.14332 0.42298 0.29822 0.0
H736 H 0.17062 0.40965 0.26704 0.0
H737 H 0.04359 0.42744 0.22124 0.0
H738 H 0.20901 0.46446 0.2595 0.0
H739 H 0.16887 0.47812 0.28829 0.0
O740 O 0.94949 0.44346 0.28078 0.0
C741 C 0.86304 0.45846 0.24443 0.0
C742 C 0.06949 0.4719 0.28781 0.0
C743 C 0.15796 0.4644 0.2649 0.0
N744 N 0.04961 0.4565 0.26259 0.0
C745 C 0.02703 0.46403 0.2783 0.0
C746 C 0.11405 0.45666 0.25575 0.0
C747 C 0.13541 0.47206 0.28106 0.0
C748 C 0.85008 0.42748 0.19612 0.0
N749 N 0.81541 0.43399 0.21108 0.0
C750 C 0.8376 0.42792 0.17245 0.0
C751 C 0.78917 0.43506 0.16414 0.0
C752 C 0.75392 0.44166 0.17952 0.0
C753 C 0.76785 0.44103 0.20307 0.0
C754 C 0.63956 0.42292 0.24608 0.0
C755 C 0.71727 0.43843 0.26839 0.0
C756 C 0.70607 0.4242 0.24049 0.0
N757 N 0.74389 0.43193 0.25151 0.0
C758 C 0.65094 0.43739 0.27443 0.0
C759 C 0.61191 0.42958 0.26316 0.0
C760 C 0.90133 0.43799 0.28923 0.0
C761 C 0.109 0.41775 0.242 0.0
C762 C 0.07827 0.43261 0.27672 0.0
C763 C 0.12176 0.42391 0.28126 0.0
C764 C 0.1371 0.41644 0.26375 0.0
N765 N 0.05098 0.43385 0.25533 0.0
C766 C 0.0658 0.42656 0.23807 0.0
Co767 Co 0.91307 0.30638 0.24428 0.0
Co768 Co 0.76044 0.29405 0.24983 0.0
O769 O 0.82016 0.30493 0.23622 0.0
C770 C 0.85903 0.32865 0.25166 0.0
O771 O 0.80899 0.32387 0.26199 0.0
C772 C 0.75172 0.29017 0.19983 0.0
O773 O 0.8164 0.28993 0.1999 0.0
O774 O 0.82401 0.28183 0.24419 0.0
O775 O 0.92336 0.28999 0.24594 0.0
H776 H 0.69846 0.26188 0.30032 0.0
H777 H 0.86136 0.31787 0.20295 0.0
O778 O 0.90513 0.32283 0.24305 0.0
H779 H 0.03414 0.29275 0.174 0.0
H780 H 0.13944 0.32318 0.23816 0.0
H781 H 0.0018 0.2955 0.27801 0.0
H782 H 0.00964 0.29381 0.21559 0.0
H783 H 0.0222 0.32092 0.22792 0.0
O784 O 0.72036 0.29157 0.21864 0.0
H785 H 0.77382 0.27577 0.28367 0.0
H786 H 0.61782 0.28904 0.24342 0.0
H787 H 0.11896 0.29742 0.28866 0.0
H788 H 0.88454 0.31713 0.16122 0.0
H789 H 0.1886 0.31134 0.26867 0.0
H790 H 0.97134 0.30447 0.1465 0.0
O791 O 0.89124 0.30681 0.27765 0.0
H792 H 0.62871 0.32781 0.22871 0.0
H793 H 0.6824 0.30133 0.29067 0.0
H794 H 0.6055 0.31669 0.29855 0.0
H795 H 0.57813 0.33005 0.26742 0.0
H796 H 0.70583 0.31239 0.22163 0.0
H797 H 0.54083 0.27524 0.25949 0.0
H798 H 0.58102 0.26156 0.28823 0.0
O799 O 0.79984 0.29634 0.28116 0.0
C800 C 0.88678 0.28143 0.24484 0.0
C801 C 0.68029 0.26783 0.28789 0.0
C802 C 0.59184 0.27531 0.26495 0.0
N803 N 0.70006 0.28328 0.26279 0.0
C804 C 0.72267 0.27574 0.27847 0.0
C805 C 0.63567 0.2831 0.25588 0.0
C806 C 0.61442 0.26764 0.28108 0.0
C807 C 0.89966 0.31243 0.19669 0.0
N808 N 0.9343 0.30593 0.21169 0.0
C809 C 0.91237 0.31201 0.17304 0.0
C810 C 0.96101 0.30489 0.16479 0.0
C811 C 0.99623 0.29831 0.1802 0.0
C812 C 0.98206 0.29893 0.20373 0.0
C813 C 0.10964 0.31707 0.24696 0.0
C814 C 0.03192 0.30153 0.26914 0.0
C815 C 0.04321 0.31576 0.24127 0.0
N816 N 0.00538 0.30802 0.25223 0.0
C817 C 0.09817 0.3026 0.27529 0.0
C818 C 0.1372 0.31042 0.26408 0.0
C819 C 0.84775 0.30185 0.2897 0.0
C820 C 0.64009 0.32202 0.24239 0.0
C821 C 0.67088 0.30713 0.27705 0.0
C822 C 0.62718 0.31579 0.2816 0.0
C823 C 0.61181 0.32328 0.26413 0.0
N824 N 0.69834 0.30594 0.25568 0.0
C825 C 0.68349 0.31324 0.23846 0.0
Co826 Co 0.83896 0.30631 0.50622 0.0
Co827 Co 0.99148 0.29392 0.50091 0.0
O828 O 0.93192 0.30489 0.51424 0.0
C829 C 0.89362 0.32845 0.49788 0.0
O830 O 0.94329 0.3235 0.48768 0.0
C831 C 1.00034 0.29034 0.55101 0.0
O832 O 0.93565 0.29014 0.551 0.0
O833 O 0.92777 0.28175 0.50686 0.0
O834 O 0.8284 0.28992 0.50518 0.0
H835 H 0.05298 0.26142 0.45124 0.0
H836 H 0.89128 0.31817 0.54703 0.0
O837 O 0.84733 0.32278 0.50679 0.0
H838 H 0.71851 0.29337 0.57718 0.0
H839 H 0.61301 0.3233 0.51206 0.0
H840 H 0.74954 0.29517 0.47308 0.0
H841 H 0.74259 0.29404 0.53552 0.0
H842 H 0.73038 0.32107 0.52216 0.0
O843 O 0.03161 0.29161 0.53214 0.0
H844 H 0.97781 0.27543 0.46756 0.0
H845 H 0.13407 0.2889 0.5074 0.0
H846 H 0.63223 0.29704 0.46259 0.0
H847 H 0.86853 0.31781 0.58881 0.0
H848 H 0.56314 0.31119 0.48214 0.0
H849 H 0.78173 0.30532 0.60414 0.0
O850 O 0.86036 0.30643 0.47279 0.0
H851 H 0.12342 0.32778 0.52111 0.0
H852 H 0.06951 0.30093 0.45987 0.0
H853 H 0.14641 0.31623 0.45156 0.0
H854 H 0.17388 0.32978 0.48232 0.0
H855 H 0.04631 0.31241 0.52862 0.0
H856 H 0.21088 0.27498 0.49165 0.0
H857 H 0.17045 0.26114 0.46329 0.0
O858 O 0.95206 0.29603 0.46954 0.0
C859 C 0.86498 0.28136 0.50637 0.0
C860 C 0.07125 0.26744 0.46351 0.0
C861 C 0.15985 0.27504 0.48622 0.0
N862 N 0.05171 0.28304 0.48821 0.0
C863 C 0.02897 0.27542 0.47274 0.0
C864 C 0.11612 0.28289 0.4951 0.0
C865 C 0.13714 0.26728 0.4703 0.0
C866 C 0.85298 0.31279 0.55355 0.0
N867 N 0.81809 0.30617 0.53885 0.0
C868 C 0.84051 0.31259 0.57723 0.0
C869 C 0.79187 0.30557 0.58582 0.0
C870 C 0.75641 0.29886 0.57071 0.0
C871 C 0.77034 0.29926 0.54714 0.0
C872 C 0.64257 0.31709 0.50345 0.0
C873 C 0.71967 0.3013 0.48176 0.0
C874 C 0.70907 0.3158 0.50907 0.0
N875 N 0.74658 0.30794 0.49835 0.0
C876 C 0.65333 0.30234 0.4757 0.0
C877 C 0.61462 0.31029 0.48667 0.0
C878 C 0.9039 0.30142 0.46087 0.0
C879 C 0.11201 0.32191 0.50759 0.0
C880 C 0.08109 0.30681 0.47333 0.0
C881 C 0.12478 0.31544 0.46853 0.0
C882 C 0.14021 0.32304 0.48581 0.0
N883 N 0.05369 0.30575 0.49474 0.0
C884 C 0.06862 0.31316 0.51177 0.0
Co885 Co 0.91152 0.43315 0.50563 0.0
Co886 Co 0.75895 0.44557 0.50066 0.0
O887 O 0.81871 0.43457 0.51383 0.0
C888 C 0.85676 0.41101 0.49739 0.0
O889 O 0.8069 0.41594 0.48727 0.0
C890 C 0.75084 0.44908 0.5508 0.0
O891 O 0.81552 0.44928 0.55067 0.0
O892 O 0.82276 0.45772 0.50658 0.0
O893 O 0.92206 0.44955 0.5046 0.0
H894 H 0.69674 0.47812 0.45127 0.0
H895 H 0.85993 0.42129 0.54653 0.0
O896 O 0.90319 0.41669 0.5062 0.0
H897 H 0.03331 0.44607 0.57636 0.0
H898 H 0.1376 0.41618 0.51096 0.0
H899 H 1.00031 0.44431 0.47232 0.0
H900 H 0.00846 0.44541 0.53475 0.0
H901 H 0.02042 0.41839 0.52131 0.0
O902 O 0.71927 0.44784 0.53197 0.0
H903 H 0.77215 0.46409 0.4674 0.0
H904 H 0.61646 0.45057 0.5074 0.0
H905 H 0.11742 0.44245 0.46157 0.0
H906 H 0.88346 0.42163 0.58826 0.0
H907 H 0.18689 0.42829 0.48095 0.0
H908 H 0.97057 0.43411 0.60342 0.0
O909 O 0.88951 0.43304 0.47224 0.0
H910 H 0.62733 0.41167 0.52087 0.0
H911 H 0.68035 0.4386 0.4597 0.0
H912 H 0.60336 0.4233 0.45142 0.0
H913 H 0.57635 0.40971 0.48214 0.0
H914 H 0.70451 0.42704 0.52835 0.0
H915 H 0.53942 0.4645 0.49185 0.0
H916 H 0.57943 0.47838 0.4635 0.0
O917 O 0.79793 0.44349 0.46921 0.0
C918 C 0.88554 0.45811 0.50594 0.0
C919 C 0.67865 0.47209 0.46353 0.0
C920 C 0.59037 0.46446 0.48634 0.0
N921 N 0.69855 0.45645 0.48812 0.0
C922 C 0.72106 0.4641 0.47266 0.0
C923 C 0.63423 0.4566 0.49511 0.0
C924 C 0.61285 0.47224 0.47043 0.0
C925 C 0.89836 0.42666 0.55298 0.0
N926 N 0.93298 0.43328 0.53821 0.0
C927 C 0.91128 0.42685 0.57663 0.0
C928 C 0.96009 0.43387 0.58513 0.0
C929 C 0.99527 0.44059 0.56995 0.0
C930 C 0.9809 0.4402 0.54642 0.0
C931 C 0.10788 0.42239 0.50242 0.0
C932 C 0.03035 0.43818 0.48093 0.0
C933 C 0.04148 0.42367 0.50818 0.0
N934 N 0.00375 0.43153 0.49756 0.0
C935 C 0.09657 0.43714 0.47472 0.0
C936 C 0.1355 0.42919 0.48559 0.0
C937 C 0.84585 0.43809 0.46043 0.0
C938 C 0.63855 0.41756 0.50736 0.0
C939 C 0.66896 0.43271 0.47314 0.0
C940 C 0.62522 0.42408 0.46837 0.0
C941 C 0.61005 0.41646 0.48562 0.0
N942 N 0.69666 0.43374 0.49452 0.0
C943 C 0.68198 0.42631 0.51153 0.0
Co944 Co 0.65946 0.05628 0.75702 0.0
Co945 Co 0.50689 0.04398 0.75078 0.0
O946 O 0.56632 0.05481 0.76472 0.0
C947 C 0.60536 0.07849 0.74934 0.0
O948 O 0.55567 0.07365 0.73892 0.0
C949 C 0.49744 0.03991 0.80068 0.0
O950 O 0.56212 0.03971 0.80075 0.0
O951 O 0.57041 0.03174 0.7563 0.0
O952 O 0.66984 0.03991 0.75537 0.0
H953 H 0.44582 0.01202 0.69956 0.0
H954 H 0.60641 0.06778 0.79814 0.0
O955 O 0.65133 0.07272 0.75819 0.0
H956 H 0.77829 0.04266 0.82779 0.0
H957 H 0.88551 0.07312 0.76411 0.0
H958 H 0.74938 0.04541 0.72367 0.0
H959 H 0.7551 0.04371 0.7861 0.0
H960 H 0.76793 0.07084 0.77384 0.0
O961 O 0.46635 0.04136 0.78182 0.0
H962 H 0.52088 0.02584 0.71664 0.0
H963 H 0.36418 0.03894 0.75678 0.0
H964 H 0.86689 0.04734 0.71353 0.0
H965 H 0.62828 0.06704 0.83996 0.0
H966 H 0.93578 0.06128 0.73382 0.0
H967 H 0.71462 0.05439 0.85503 0.0
O968 O 0.63876 0.0567 0.72356 0.0
H969 H 0.37479 0.07764 0.77226 0.0
H970 H 0.42954 0.05144 0.70991 0.0
H971 H 0.3528 0.06683 0.70215 0.0
H972 H 0.32492 0.08006 0.73347 0.0
H973 H 0.45174 0.06219 0.77921 0.0
H974 H 0.28748 0.0252 0.74028 0.0
H975 H 0.32818 0.01165 0.71138 0.0
O976 O 0.54682 0.04641 0.7196 0.0
C977 C 0.6332 0.03135 0.75602 0.0
C978 C 0.42743 0.01791 0.71206 0.0
C979 C 0.33859 0.0253 0.73494 0.0
N980 N 0.44676 0.03326 0.73749 0.0
C981 C 0.46964 0.02579 0.72172 0.0
C982 C 0.38225 0.03305 0.74425 0.0
C983 C 0.36145 0.0177 0.71873 0.0
C984 C 0.64452 0.06234 0.80456 0.0
N985 N 0.67965 0.05584 0.7897 0.0
C986 C 0.65649 0.06192 0.82826 0.0
C987 C 0.70487 0.0548 0.83671 0.0
C988 C 0.74058 0.04822 0.82143 0.0
C989 C 0.72715 0.04883 0.79785 0.0
C990 C 0.85604 0.067 0.75518 0.0
C991 C 0.77916 0.05145 0.73267 0.0
C992 C 0.78943 0.06569 0.76058 0.0
N993 N 0.75202 0.05794 0.74946 0.0
C994 C 0.84561 0.05252 0.72681 0.0
C995 C 0.88422 0.06035 0.73819 0.0
C996 C 0.5953 0.05185 0.71131 0.0
C997 C 0.38639 0.07191 0.75849 0.0
C998 C 0.41777 0.05718 0.72361 0.0
C999 C 0.37418 0.06586 0.71913 0.0
C1000 C 0.35851 0.07328 0.73671 0.0
N1001 N 0.44485 0.05589 0.74503 0.0
C1002 C 0.4297 0.06312 0.76236 0.0
Co1003 Co 0.5919 0.18309 0.75599 0.0
Co1004 Co 0.74343 0.19572 0.7498 0.0
O1005 O 0.6849 0.18476 0.76374 0.0
C1006 C 0.64728 0.16093 0.74864 0.0
O1007 O 0.69684 0.16577 0.73817 0.0
C1008 C 0.75333 0.19972 0.79973 0.0
O1009 O 0.68864 0.19985 0.79992 0.0
O1010 O 0.67908 0.20783 0.7555 0.0
O1011 O 0.58038 0.19943 0.75418 0.0
H1012 H 0.80171 0.22787 0.69871 0.0
H1013 H 0.64553 0.17181 0.79728 0.0
O1014 O 0.60105 0.16667 0.75736 0.0
H1015 H 0.47162 0.19663 0.82651 0.0
H1016 H 0.36692 0.16585 0.76304 0.0
H1017 H 0.5015 0.1937 0.72244 0.0
H1018 H 0.49517 0.19553 0.78486 0.0
H1019 H 0.48426 0.16837 0.77287 0.0
O1020 O 0.78417 0.19836 0.7808 0.0
H1021 H 0.72781 0.21388 0.71579 0.0
H1022 H 0.88583 0.20105 0.75568 0.0
H1023 H 0.38421 0.19152 0.71219 0.0
H1024 H 0.62332 0.17259 0.83907 0.0
H1025 H 0.3161 0.17751 0.73256 0.0
H1026 H 0.53595 0.18511 0.85393 0.0
O1027 O 0.61287 0.18262 0.72255 0.0
H1028 H 0.87822 0.1623 0.77087 0.0
H1029 H 0.82089 0.18849 0.70879 0.0
H1030 H 0.8987 0.17327 0.70083 0.0
H1031 H 0.9279 0.16006 0.73202 0.0
H1032 H 0.80016 0.17757 0.77803 0.0
H1033 H 0.96138 0.21496 0.73919 0.0
H1034 H 0.91944 0.22847 0.71042 0.0
O1035 O 0.70337 0.19326 0.71864 0.0
C1036 C 0.61627 0.20808 0.75504 0.0
C1037 C 0.82065 0.222 0.71116 0.0
C1038 C 0.91023 0.21476 0.7339 0.0
N1039 N 0.80266 0.20659 0.73652 0.0
C1040 C 0.77909 0.21403 0.72082 0.0
C1041 C 0.86721 0.20692 0.74321 0.0
C1042 C 0.88667 0.22234 0.71776 0.0
C1043 C 0.60699 0.17719 0.80361 0.0
N1044 N 0.57149 0.18357 0.78865 0.0
C1045 C 0.59482 0.17763 0.82729 0.0
C1046 C 0.54586 0.18467 0.83562 0.0
C1047 C 0.50978 0.19114 0.82025 0.0
C1048 C 0.52342 0.1905 0.79668 0.0
C1049 C 0.39605 0.172 0.75407 0.0
C1050 C 0.47206 0.18763 0.73147 0.0
C1051 C 0.46253 0.17345 0.75954 0.0
N1052 N 0.4995 0.18124 0.74836 0.0
C1053 C 0.40573 0.18642 0.72555 0.0
C1054 C 0.36756 0.17854 0.73697 0.0
C1055 C 0.65567 0.18764 0.71032 0.0
C1056 C 0.86604 0.16803 0.75716 0.0
C1057 C 0.8332 0.18276 0.72243 0.0
C1058 C 0.87741 0.17417 0.71784 0.0
C1059 C 0.89382 0.16676 0.73535 0.0
N1060 N 0.80624 0.18395 0.74388 0.0
C1061 C 0.82211 0.17672 0.76114 0.0
Co1062 Co 0.66307 0.183 0.49396 0.0
Co1063 Co 0.51049 0.1954 0.49919 0.0
O1064 O 0.57022 0.18446 0.48582 0.0
C1065 C 0.60816 0.16086 0.50198 0.0
O1066 O 0.55839 0.16579 0.51215 0.0
C1067 C 0.5025 0.19915 0.44915 0.0
O1068 O 0.56719 0.19933 0.4493 0.0
O1069 O 0.57434 0.20757 0.49354 0.0
O1070 O 0.67369 0.19939 0.49519 0.0
H1071 H 0.44832 0.22773 0.54921 0.0
H1072 H 0.61117 0.17126 0.45295 0.0
O1073 O 0.65462 0.16654 0.49321 0.0
H1074 H 0.78438 0.19611 0.42331 0.0
H1075 H 0.889 0.166 0.48828 0.0
H1076 H 0.75215 0.19405 0.52735 0.0
H1077 H 0.75984 0.19534 0.46493 0.0
H1078 H 0.77176 0.16827 0.47802 0.0
O1079 O 0.47089 0.19782 0.46793 0.0
H1080 H 0.52372 0.21378 0.53281 0.0
H1081 H 0.368 0.20043 0.49253 0.0
H1082 H 0.86931 0.19214 0.538 0.0
H1083 H 0.63439 0.17171 0.41121 0.0
H1084 H 0.93856 0.17803 0.5184 0.0
H1085 H 0.72141 0.18423 0.39614 0.0
O1086 O 0.64129 0.18281 0.52736 0.0
H1087 H 0.37874 0.16162 0.47824 0.0
H1088 H 0.43184 0.18825 0.53998 0.0
H1089 H 0.35477 0.17292 0.54792 0.0
H1090 H 0.32772 0.15948 0.5169 0.0
H1091 H 0.456 0.17701 0.4711 0.0
H1092 H 0.29097 0.2143 0.50835 0.0
H1093 H 0.331 0.22804 0.53698 0.0
O1094 O 0.54943 0.19318 0.53059 0.0
C1095 C 0.63713 0.20796 0.4941 0.0
C1096 C 0.43021 0.22175 0.53683 0.0
C1097 C 0.34193 0.21422 0.51387 0.0
N1098 N 0.4501 0.20623 0.51193 0.0
C1099 C 0.47262 0.21381 0.52755 0.0
C1100 C 0.38578 0.20641 0.50494 0.0
C1101 C 0.36442 0.22193 0.52993 0.0
C1102 C 0.64957 0.17664 0.44654 0.0
N1103 N 0.68432 0.18322 0.46136 0.0
C1104 C 0.6623 0.1769 0.42288 0.0
C1105 C 0.71106 0.18394 0.41444 0.0
C1106 C 0.74638 0.19061 0.42967 0.0
C1107 C 0.73219 0.19015 0.45321 0.0
C1108 C 0.85937 0.1722 0.49691 0.0
C1109 C 0.78209 0.18794 0.51865 0.0
C1110 C 0.79294 0.1735 0.49121 0.0
N1111 N 0.75534 0.18135 0.50195 0.0
C1112 C 0.84834 0.18687 0.52479 0.0
C1113 C 0.88715 0.17895 0.5138 0.0
C1114 C 0.59753 0.18778 0.53927 0.0
C1115 C 0.38997 0.16744 0.49187 0.0
C1116 C 0.42043 0.18242 0.52641 0.0
C1117 C 0.37665 0.17377 0.531 0.0
C1118 C 0.36145 0.16624 0.51358 0.0
N1119 N 0.44814 0.18355 0.50507 0.0
C1120 C 0.43345 0.1762 0.4879 0.0
Co1121 Co 0.58933 0.05614 0.49503 0.0
Co1122 Co 0.74162 0.04367 0.50033 0.0
O1123 O 0.68212 0.05462 0.48689 0.0
C1124 C 0.64458 0.0783 0.50276 0.0
O1125 O 0.69436 0.07339 0.51297 0.0
C1126 C 0.74944 0.03986 0.45031 0.0
O1127 O 0.68476 0.03969 0.45049 0.0
O1128 O 0.67754 0.03152 0.49473 0.0
O1129 O 0.57841 0.03976 0.49643 0.0
H1130 H 0.80319 0.01136 0.55051 0.0
H1131 H 0.64131 0.06775 0.45387 0.0
O1132 O 0.59803 0.0726 0.49409 0.0
H1133 H 0.46745 0.04292 0.42457 0.0
H1134 H 0.36365 0.07324 0.48927 0.0
H1135 H 0.50024 0.04522 0.52858 0.0
H1136 H 0.49217 0.04379 0.46617 0.0
H1137 H 0.48079 0.07089 0.47897 0.0
O1138 O 0.78115 0.04119 0.46908 0.0
H1139 H 0.72807 0.02534 0.53405 0.0
H1140 H 0.88399 0.03853 0.49368 0.0
H1141 H 0.38318 0.04723 0.53927 0.0
H1142 H 0.61793 0.06719 0.41214 0.0
H1143 H 0.31406 0.06132 0.51955 0.0
H1144 H 0.53059 0.05468 0.39724 0.0
O1145 O 0.61128 0.05641 0.52841 0.0
H1146 H 0.87413 0.07734 0.47924 0.0
H1147 H 0.82044 0.05082 0.5411 0.0
H1148 H 0.89789 0.0661 0.54897 0.0
H1149 H 0.92524 0.07948 0.5179 0.0
H1150 H 0.79649 0.06199 0.47217 0.0
H1151 H 0.96074 0.02464 0.50956 0.0
H1152 H 0.92047 0.01095 0.53826 0.0
O1153 O 0.70272 0.04594 0.53171 0.0
C1154 C 0.61476 0.03117 0.49534 0.0
C1155 C 0.8214 0.01731 0.53809 0.0
C1156 C 0.9098 0.02475 0.51509 0.0
N1157 N 0.8018 0.03281 0.51313 0.0
C1158 C 0.77915 0.02527 0.52878 0.0
C1159 C 0.86611 0.03259 0.50613 0.0
C1160 C 0.88718 0.01708 0.53119 0.0
C1161 C 0.60277 0.06237 0.44754 0.0
N1162 N 0.56794 0.05585 0.46244 0.0
C1163 C 0.58995 0.06205 0.42388 0.0
C1164 C 0.54101 0.05502 0.41553 0.0
C1165 C 0.50559 0.04841 0.43085 0.0
C1166 C 0.51988 0.04893 0.45439 0.0
C1167 C 0.39322 0.06705 0.49795 0.0
C1168 C 0.47036 0.05133 0.51982 0.0
C1169 C 0.45959 0.0657 0.49223 0.0
N1170 N 0.49712 0.05786 0.50304 0.0
C1171 C 0.40416 0.05244 0.526 0.0
C1172 C 0.36542 0.06036 0.51494 0.0
C1173 C 0.65486 0.05141 0.54035 0.0
C1174 C 0.86276 0.07154 0.49289 0.0
C1175 C 0.83197 0.05662 0.5275 0.0
C1176 C 0.87597 0.06525 0.53205 0.0
C1177 C 0.89134 0.07275 0.5146 0.0
N1178 N 0.80421 0.05548 0.50616 0.0
C1179 C 0.81907 0.0628 0.48896 0.0
Co1180 Co 0.3399 0.93317 0.24473 0.0
Co1181 Co 0.49211 0.9457 0.24998 0.0
O1182 O 0.43278 0.93467 0.2367 0.0
C1183 C 0.39532 0.9111 0.25328 0.0
O1184 O 0.44499 0.9161 0.26338 0.0
C1185 C 0.49969 0.94936 0.19994 0.0
O1186 O 0.435 0.94947 0.20014 0.0
O1187 O 0.42785 0.9578 0.24423 0.0
O1188 O 0.32873 0.94954 0.24562 0.0
H1189 H 0.55319 0.97819 0.29971 0.0
H1190 H 0.39262 0.92128 0.20404 0.0
O1191 O 0.34886 0.91672 0.24432 0.0
H1192 H 0.21887 0.94583 0.17365 0.0
H1193 H 0.11457 0.91593 0.23907 0.0
H1194 H 0.25014 0.94428 0.27779 0.0
H1195 H 0.24302 0.94527 0.21532 0.0
H1196 H 0.23183 0.91826 0.22893 0.0
O1197 O 0.53151 0.9481 0.2187 0.0
H1198 H 0.47829 0.96412 0.28346 0.0
H1199 H 0.63438 0.95087 0.24325 0.0
H1200 H 0.13293 0.9423 0.28832 0.0
H1201 H 0.36982 0.92152 0.16225 0.0
H1202 H 0.06433 0.92804 0.2689 0.0
H1203 H 0.28253 0.93389 0.14681 0.0
O1204 O 0.36135 0.93314 0.27816 0.0
H1205 H 0.62506 0.91201 0.22932 0.0
H1206 H 0.57109 0.93871 0.29083 0.0
H1207 H 0.64875 0.92348 0.2989 0.0
H1208 H 0.67624 0.91001 0.268 0.0
H1209 H 0.54721 0.9273 0.22205 0.0
H1210 H 0.71092 0.96486 0.25893 0.0
H1211 H 0.67046 0.97862 0.28744 0.0
O1212 O 0.45328 0.9435 0.28138 0.0
C1213 C 0.36506 0.95813 0.24458 0.0
C1214 C 0.57149 0.97221 0.28738 0.0
C1215 C 0.65999 0.96474 0.26446 0.0
N1216 N 0.55213 0.95662 0.26263 0.0
C1217 C 0.52936 0.9642 0.27818 0.0
C1218 C 0.61642 0.95685 0.25562 0.0
C1219 C 0.63725 0.97245 0.28046 0.0
C1220 C 0.35411 0.9266 0.19746 0.0
N1221 N 0.31898 0.93321 0.2121 0.0
C1222 C 0.34161 0.92674 0.17378 0.0
C1223 C 0.2927 0.93369 0.16513 0.0
C1224 C 0.25699 0.9404 0.18017 0.0
C1225 C 0.27096 0.94006 0.20375 0.0
C1226 C 0.14392 0.92219 0.24762 0.0
C1227 C 0.22048 0.9381 0.26916 0.0
C1228 C 0.21035 0.92353 0.24199 0.0
N1229 N 0.2476 0.93146 0.25263 0.0
C1230 C 0.1542 0.937 0.27524 0.0
C1231 C 0.11576 0.92899 0.26436 0.0
C1232 C 0.40508 0.93813 0.29005 0.0
C1233 C 0.61363 0.91785 0.2429 0.0
C1234 C 0.58268 0.93287 0.27731 0.0
C1235 C 0.6268 0.92428 0.28197 0.0
C1236 C 0.64225 0.91672 0.26462 0.0
N1237 N 0.55489 0.93393 0.25595 0.0
C1238 C 0.56981 0.92656 0.23885 0.0
Co1239 Co 0.41025 0.80645 0.24337 0.0
Co1240 Co 0.25548 0.79485 0.25019 0.0
O1241 O 0.31661 0.80534 0.23606 0.0
C1242 C 0.35748 0.82858 0.25317 0.0
O1243 O 0.30737 0.82361 0.26306 0.0
C1244 C 0.24879 0.79015 0.20037 0.0
O1245 O 0.31347 0.79008 0.20059 0.0
O1246 O 0.31869 0.78233 0.24626 0.0
O1247 O 0.41902 0.79009 0.24329 0.0
H1248 H 0.18856 0.76417 0.30379 0.0
H1249 H 0.35562 0.81901 0.20385 0.0
O1250 O 0.40336 0.82293 0.24395 0.0
H1251 H 0.52375 0.79427 0.17046 0.0
H1252 H 0.6371 0.82299 0.23647 0.0
H1253 H 0.50139 0.79454 0.27477 0.0
H1254 H 0.50309 0.79439 0.21237 0.0
H1255 H 0.5188 0.8212 0.22738 0.0
O1256 O 0.21693 0.79171 0.21902 0.0
H1257 H 0.26562 0.77754 0.28626 0.0
H1258 H 0.11312 0.7898 0.24308 0.0
H1259 H 0.6196 0.79599 0.28423 0.0
H1260 H 0.37493 0.8192 0.16185 0.0
H1261 H 0.68829 0.81029 0.26502 0.0
H1262 H 0.45939 0.80674 0.1449 0.0
O1263 O 0.39199 0.80606 0.27706 0.0
H1264 H 0.12882 0.82848 0.22481 0.0
H1265 H 0.17402 0.80306 0.28942 0.0
H1266 H 0.09804 0.81875 0.29519 0.0
H1267 H 0.07497 0.83159 0.26272 0.0
H1268 H 0.20492 0.81274 0.21987 0.0
H1269 H 0.03451 0.7765 0.26001 0.0
H1270 H 0.07208 0.7636 0.29066 0.0
O1271 O 0.29303 0.7979 0.28143 0.0
C1272 C 0.38129 0.78169 0.24451 0.0
C1273 C 0.17155 0.76977 0.29051 0.0
C1274 C 0.08511 0.77669 0.26591 0.0
N1275 N 0.19374 0.78449 0.2638 0.0
C1276 C 0.2149 0.77738 0.28057 0.0
C1277 C 0.12987 0.78418 0.25635 0.0
C1278 C 0.10622 0.76945 0.28311 0.0
C1279 C 0.39291 0.81364 0.19662 0.0
N1280 N 0.42845 0.80674 0.21055 0.0
C1281 C 0.40344 0.81375 0.17282 0.0
C1282 C 0.45076 0.80675 0.16331 0.0
C1283 C 0.48687 0.79974 0.17764 0.0
C1284 C 0.47489 0.79984 0.20136 0.0
C1285 C 0.60772 0.81671 0.24493 0.0
C1286 C 0.53106 0.80075 0.26623 0.0
C1287 C 0.5407 0.81567 0.23988 0.0
N1288 N 0.50338 0.80772 0.25041 0.0
C1289 C 0.59792 0.80154 0.27171 0.0
C1290 C 0.63641 0.80958 0.26094 0.0
C1291 C 0.34541 0.80227 0.28956 0.0
C1292 C 0.13836 0.82293 0.23908 0.0
C1293 C 0.16441 0.80863 0.27525 0.0
C1294 C 0.1212 0.81748 0.27859 0.0
C1295 C 0.10824 0.82468 0.26036 0.0
N1296 N 0.19375 0.80696 0.25432 0.0
C1297 C 0.1812 0.81397 0.23635 0.0
Co1298 Co 0.34293 0.8062 0.50757 0.0
Co1299 Co 0.49807 0.7948 0.50032 0.0
O1300 O 0.43682 0.80522 0.5146 0.0
C1301 C 0.39444 0.82839 0.49751 0.0
O1302 O 0.44449 0.82348 0.48748 0.0
C1303 C 0.50695 0.79021 0.55018 0.0
O1304 O 0.44227 0.79009 0.55035 0.0
O1305 O 0.4356 0.7822 0.50462 0.0
O1306 O 0.33498 0.78983 0.50776 0.0
H1307 H 0.56475 0.7641 0.4467 0.0
H1308 H 0.39791 0.81889 0.54685 0.0
O1309 O 0.34903 0.82269 0.50689 0.0
H1310 H 0.23168 0.79399 0.58088 0.0
H1311 H 0.11547 0.82244 0.51508 0.0
H1312 H 0.25157 0.79413 0.47653 0.0
H1313 H 0.25145 0.79406 0.53891 0.0
H1314 H 0.23408 0.82083 0.5238 0.0
O1315 O 0.53786 0.79177 0.53134 0.0
H1316 H 0.4876 0.77739 0.46444 0.0
H1317 H 0.64093 0.78997 0.50688 0.0
H1318 H 0.13306 0.79539 0.46743 0.0
H1319 H 0.37944 0.81914 0.58889 0.0
H1320 H 0.06417 0.80963 0.48677 0.0
H1321 H 0.29594 0.8066 0.60616 0.0
O1322 O 0.36032 0.80581 0.47382 0.0
H1323 H 0.62359 0.82868 0.52493 0.0
H1324 H 0.57799 0.80303 0.46072 0.0
H1325 H 0.65287 0.81884 0.45454 0.0
H1326 H 0.67612 0.83179 0.4868 0.0
H1327 H 0.54856 0.81282 0.53029 0.0
H1328 H 0.71964 0.77675 0.48972 0.0
H1329 H 0.6817 0.76373 0.45934 0.0
O1330 O 0.45942 0.79773 0.4692 0.0
C1331 C 0.37307 0.78147 0.50654 0.0
C1332 C 0.58192 0.76976 0.45987 0.0
C1333 C 0.66884 0.77685 0.48404 0.0
N1334 N 0.55988 0.7845 0.48654 0.0
C1335 C 0.53852 0.77732 0.46993 0.0
C1336 C 0.62402 0.78429 0.49373 0.0
C1337 C 0.64752 0.76955 0.46699 0.0
C1338 C 0.36104 0.81349 0.55423 0.0
N1339 N 0.32554 0.80651 0.54044 0.0
C1340 C 0.35099 0.81364 0.57805 0.0
C1341 C 0.3042 0.80658 0.58773 0.0
C1342 C 0.26815 0.7995 0.57355 0.0
C1343 C 0.27963 0.79956 0.54981 0.0
C1344 C 0.14494 0.81619 0.50657 0.0
C1345 C 0.22183 0.8003 0.48512 0.0
C1346 C 0.21214 0.81525 0.5114 0.0
N1347 N 0.24957 0.80734 0.50081 0.0
C1348 C 0.15479 0.801 0.47985 0.0
C1349 C 0.11618 0.809 0.49069 0.0
C1350 C 0.40672 0.80205 0.4612 0.0
C1351 C 0.61396 0.82308 0.51075 0.0
C1352 C 0.58769 0.80865 0.47481 0.0
C1353 C 0.63027 0.81757 0.47123 0.0
C1354 C 0.64334 0.82483 0.48935 0.0
N1355 N 0.55904 0.80699 0.49585 0.0
C1356 C 0.57173 0.81406 0.51371 0.0
Co1357 Co 0.40966 0.93298 0.50679 0.0
Co1358 Co 0.25775 0.9455 0.50044 0.0
O1359 O 0.31637 0.9345 0.51422 0.0
C1360 C 0.35468 0.91089 0.49809 0.0
O1361 O 0.30544 0.91587 0.4877 0.0
C1362 C 0.2474 0.94923 0.55041 0.0
O1363 O 0.31208 0.94934 0.55067 0.0
O1364 O 0.3217 0.95761 0.5065 0.0
O1365 O 0.42089 0.94936 0.5058 0.0
H1366 H 0.19937 0.97788 0.45002 0.0
H1367 H 0.35492 0.92118 0.54726 0.0
O1368 O 0.40068 0.91653 0.50729 0.0
H1369 H 0.52716 0.94579 0.57848 0.0
H1370 H 0.63464 0.91575 0.51399 0.0
H1371 H 0.50106 0.94401 0.47418 0.0
H1372 H 0.50502 0.94516 0.53668 0.0
H1373 H 0.5169 0.91811 0.52341 0.0
O1374 O 0.21666 0.94796 0.53143 0.0
H1375 H 0.27336 0.96384 0.46686 0.0
H1376 H 0.11517 0.9507 0.50622 0.0
H1377 H 0.61876 0.942 0.46437 0.0
H1378 H 0.37571 0.9215 0.58917 0.0
H1379 H 0.68636 0.92779 0.48435 0.0
H1380 H 0.46224 0.9339 0.60503 0.0
O1381 O 0.38988 0.93286 0.47326 0.0
H1382 H 0.12366 0.91186 0.52055 0.0
H1383 H 0.18091 0.93843 0.45916 0.0
H1384 H 0.10363 0.92319 0.45073 0.0
H1385 H 0.07448 0.90978 0.48157 0.0
H1386 H 0.20117 0.92716 0.52817 0.0
H1387 H 0.03952 0.96466 0.48994 0.0
H1388 H 0.08151 0.97835 0.46156 0.0
O1389 O 0.29821 0.94322 0.46931 0.0
C1390 C 0.3845 0.95795 0.50655 0.0
C1391 C 0.18041 0.97193 0.46229 0.0
C1392 C 0.09072 0.96452 0.48473 0.0
N1393 N 0.19843 0.95639 0.4873 0.0
C1394 C 0.22202 0.96393 0.47182 0.0
C1395 C 0.1338 0.95665 0.49391 0.0
C1396 C 0.11431 0.9722 0.4688 0.0
C1397 C 0.3931 0.92652 0.55402 0.0
N1398 N 0.42893 0.9331 0.53954 0.0
C1399 C 0.40446 0.9267 0.57777 0.0
C1400 C 0.45295 0.93367 0.58666 0.0
C1401 C 0.48936 0.94035 0.57177 0.0
C1402 C 0.47653 0.93997 0.54813 0.0
C1403 C 0.60573 0.92199 0.50521 0.0
C1404 C 0.53028 0.93785 0.48305 0.0
C1405 C 0.53903 0.92335 0.51043 0.0
N1406 N 0.50234 0.93125 0.49948 0.0
C1407 C 0.59684 0.93673 0.47738 0.0
C1408 C 0.63473 0.92875 0.48858 0.0
C1409 C 0.34678 0.9378 0.46102 0.0
C1410 C 0.13581 0.91767 0.50699 0.0
C1411 C 0.1686 0.93261 0.47265 0.0
C1412 C 0.1247 0.92401 0.46779 0.0
C1413 C 0.10832 0.9165 0.48511 0.0
N1414 N 0.19529 0.93371 0.49417 0.0
C1415 C 0.17944 0.92638 0.51124 0.0
Co1416 Co 0.66103 0.55684 0.25649 0.0
Co1417 Co 0.50866 0.54442 0.25059 0.0
O1418 O 0.56792 0.55536 0.26427 0.0
C1419 C 0.60634 0.57897 0.24823 0.0
O1420 O 0.55682 0.57403 0.23792 0.0
C1421 C 0.49907 0.5406 0.30058 0.0
O1422 O 0.56376 0.54047 0.30075 0.0
O1423 O 0.57244 0.53226 0.25642 0.0
O1424 O 0.6718 0.54045 0.25528 0.0
H1425 H 0.44835 0.51213 0.20017 0.0
H1426 H 0.60787 0.56856 0.2973 0.0
O1427 O 0.65249 0.57329 0.25722 0.0
H1428 H 0.78046 0.54376 0.32757 0.0
H1429 H 0.88667 0.57388 0.26303 0.0
H1430 H 0.75114 0.54582 0.22342 0.0
H1431 H 0.75702 0.54451 0.28587 0.0
H1432 H 0.76917 0.57159 0.27285 0.0
O1433 O 0.46814 0.54194 0.28166 0.0
H1434 H 0.52308 0.5261 0.2169 0.0
H1435 H 0.36603 0.53933 0.25669 0.0
H1436 H 0.86859 0.54776 0.2132 0.0
H1437 H 0.62998 0.56813 0.33913 0.0
H1438 H 0.93718 0.56188 0.23307 0.0
H1439 H 0.71669 0.55563 0.35451 0.0
O1440 O 0.64023 0.55705 0.22302 0.0
H1441 H 0.37601 0.57814 0.27128 0.0
H1442 H 0.43105 0.55161 0.20957 0.0
H1443 H 0.35406 0.56692 0.20145 0.0
H1444 H 0.32603 0.58031 0.23244 0.0
H1445 H 0.45323 0.56276 0.27859 0.0
H1446 H 0.28966 0.52545 0.24052 0.0
H1447 H 0.3307 0.51175 0.21198 0.0
O1448 O 0.54841 0.54671 0.21937 0.0
C1449 C 0.63524 0.53188 0.25618 0.0
C1450 C 0.42981 0.51809 0.21252 0.0
C1451 C 0.34077 0.52555 0.23519 0.0
N1452 N 0.44876 0.53359 0.23755 0.0
C1453 C 0.47183 0.52604 0.22198 0.0
C1454 C 0.38425 0.53338 0.24431 0.0
C1455 C 0.36383 0.51787 0.21917 0.0
C1456 C 0.64612 0.56319 0.30386 0.0
N1457 N 0.68132 0.55662 0.28916 0.0
C1458 C 0.65823 0.56294 0.32756 0.0
C1459 C 0.70682 0.55592 0.33618 0.0
C1460 C 0.74259 0.54925 0.32108 0.0
C1461 C 0.72902 0.54969 0.29748 0.0
C1462 C 0.85734 0.56768 0.25428 0.0
C1463 C 0.78079 0.55193 0.23224 0.0
C1464 C 0.79076 0.56636 0.25974 0.0
N1465 N 0.75352 0.55851 0.24885 0.0
C1466 C 0.84721 0.55301 0.22633 0.0
C1467 C 0.88565 0.56094 0.23748 0.0
C1468 C 0.59672 0.55213 0.21092 0.0
C1469 C 0.38768 0.57234 0.25765 0.0
C1470 C 0.41922 0.55742 0.22313 0.0
C1471 C 0.37548 0.56606 0.21844 0.0
C1472 C 0.35974 0.57356 0.23585 0.0
N1473 N 0.44637 0.55626 0.24457 0.0
C1474 C 0.43113 0.56358 0.26172 0.0
Co1475 Co 0.58754 0.68358 0.25652 0.0
Co1476 Co 0.73918 0.6963 0.25156 0.0
O1477 O 0.68036 0.68515 0.26467 0.0
C1478 C 0.64333 0.66152 0.24807 0.0
O1479 O 0.69299 0.66651 0.23796 0.0
C1480 C 0.74849 0.69967 0.30177 0.0
O1481 O 0.6838 0.69974 0.30194 0.0
O1482 O 0.67462 0.70831 0.25783 0.0
O1483 O 0.5759 0.69995 0.25564 0.0
H1484 H 0.79817 0.72916 0.20259 0.0
H1485 H 0.64027 0.67175 0.29728 0.0
O1486 O 0.59682 0.66714 0.25697 0.0
H1487 H 0.46547 0.69613 0.32746 0.0
H1488 H 0.36253 0.66621 0.26193 0.0
H1489 H 0.49781 0.69463 0.22336 0.0
H1490 H 0.49001 0.6956 0.28583 0.0
H1491 H 0.47965 0.66861 0.2722 0.0
O1492 O 0.77942 0.69853 0.2828 0.0
H1493 H 0.72406 0.71493 0.21865 0.0
H1494 H 0.88149 0.70155 0.25805 0.0
H1495 H 0.38073 0.69258 0.2127 0.0
H1496 H 0.61707 0.67196 0.33904 0.0
H1497 H 0.31227 0.67829 0.23205 0.0
H1498 H 0.52925 0.68425 0.35438 0.0
O1499 O 0.60932 0.68356 0.2231 0.0
H1500 H 0.87351 0.6626 0.27094 0.0
H1501 H 0.81753 0.68965 0.21033 0.0
H1502 H 0.89546 0.67454 0.20165 0.0
H1503 H 0.92398 0.66089 0.23209 0.0
H1504 H 0.79535 0.67777 0.27882 0.0
H1505 H 0.95725 0.71569 0.24256 0.0
H1506 H 0.91571 0.7296 0.21455 0.0
O1507 O 0.69982 0.69427 0.22017 0.0
C1508 C 0.61181 0.70857 0.25715 0.0
C1509 C 0.81693 0.72312 0.21471 0.0
C1510 C 0.90619 0.71557 0.23717 0.0
N1511 N 0.7986 0.70735 0.23907 0.0
C1512 C 0.77525 0.71501 0.22379 0.0
C1513 C 0.86305 0.70759 0.24591 0.0
C1514 C 0.88285 0.72337 0.22145 0.0
C1515 C 0.60154 0.67703 0.30381 0.0
N1516 N 0.56634 0.68361 0.28913 0.0
C1517 C 0.58881 0.67715 0.32748 0.0
C1518 C 0.5396 0.68406 0.33608 0.0
C1519 C 0.50383 0.69073 0.32099 0.0
C1520 C 0.51802 0.69042 0.29743 0.0
C1521 C 0.39181 0.67248 0.25341 0.0
C1522 C 0.46821 0.68844 0.23195 0.0
C1523 C 0.45818 0.67386 0.25912 0.0
N1524 N 0.49534 0.68181 0.24852 0.0
C1525 C 0.40201 0.6873 0.2258 0.0
C1526 C 0.36364 0.67926 0.23665 0.0
C1527 C 0.6524 0.68877 0.21133 0.0
C1528 C 0.86163 0.66851 0.25755 0.0
C1529 C 0.82956 0.68372 0.22365 0.0
C1530 C 0.87383 0.6752 0.21865 0.0
C1531 C 0.88985 0.66755 0.23574 0.0
N1532 N 0.80216 0.68462 0.2451 0.0
C1533 C 0.81765 0.67715 0.26195 0.0
Co1534 Co 0.66445 0.68357 0.99423 0.0
Co1535 Co 0.51319 0.69634 1.00023 0.0
O1536 O 0.57124 0.68518 0.98669 0.0
C1537 C 0.60918 0.66155 0.0032 0.0
O1538 O 0.55985 0.66653 0.01353 0.0
C1539 C 0.50218 0.69982 0.9501 0.0
O1540 O 0.56686 0.69986 0.94966 0.0
O1541 O 0.57778 0.70834 0.99387 0.0
O1542 O 0.67636 0.6999 0.99502 0.0
H1543 H 0.45658 0.72903 0.05005 0.0
H1544 H 0.60934 0.67175 0.95385 0.0
O1545 O 0.65501 0.66716 0.99389 0.0
H1546 H 0.78304 0.696 0.92248 0.0
H1547 H 0.8889 0.66611 0.98744 0.0
H1548 H 0.75602 0.6946 0.02681 0.0
H1549 H 0.76068 0.69552 0.96426 0.0
H1550 H 0.77133 0.66856 0.97788 0.0
O1551 O 0.47188 0.69869 0.9692 0.0
H1552 H 0.52982 0.71481 0.03344 0.0
H1553 H 0.37082 0.70172 0.99439 0.0
H1554 H 0.87358 0.6925 0.03675 0.0
H1555 H 0.63035 0.67191 0.91196 0.0
H1556 H 0.94084 0.67817 0.017 0.0
H1557 H 0.71761 0.68413 0.89602 0.0
O1558 O 0.6444 0.68356 0.02777 0.0
H1559 H 0.37738 0.66279 0.98094 0.0
H1560 H 0.43608 0.68961 0.04169 0.0
H1561 H 0.35801 0.67453 0.05047 0.0
H1562 H 0.32813 0.661 0.01996 0.0
H1563 H 0.45569 0.67793 0.97295 0.0
H1564 H 0.29593 0.71585 0.01043 0.0
H1565 H 0.3387 0.72961 0.03854 0.0
O1566 O 0.55361 0.69416 0.03142 0.0
C1567 C 0.64063 0.70855 0.99397 0.0
C1568 C 0.4373 0.72305 0.03788 0.0
C1569 C 0.34715 0.71567 0.01562 0.0
N1570 N 0.45446 0.70738 0.01315 0.0
C1571 C 0.47848 0.71496 0.02849 0.0
C1572 C 0.38981 0.7077 0.00657 0.0
C1573 C 0.37118 0.72338 0.0314 0.0
C1574 C 0.64783 0.677 0.94706 0.0
N1575 N 0.68392 0.68358 0.96149 0.0
C1576 C 0.65932 0.6771 0.92332 0.0
C1577 C 0.70822 0.68397 0.91438 0.0
C1578 C 0.74491 0.69064 0.92922 0.0
C1579 C 0.73194 0.69035 0.95286 0.0
C1580 C 0.86015 0.6724 0.99613 0.0
C1581 C 0.78509 0.68839 0.01804 0.0
C1582 C 0.79354 0.67381 0.99082 0.0
N1583 N 0.75702 0.68177 0.00165 0.0
C1584 C 0.85157 0.68722 0.02379 0.0
C1585 C 0.88926 0.67917 0.01271 0.0
C1586 C 0.6016 0.68866 0.03988 0.0
C1587 C 0.38986 0.66865 0.99435 0.0
C1588 C 0.42346 0.68373 0.02834 0.0
C1589 C 0.37911 0.67523 0.0334 0.0
C1590 C 0.36232 0.66764 0.01626 0.0
N1591 N 0.45017 0.68468 0.00679 0.0
C1592 C 0.43395 0.67727 0.9899 0.0
Co1593 Co 0.58594 0.55693 0.99426 0.0
Co1594 Co 0.73833 0.54449 0.99989 0.0
O1595 O 0.67915 0.55553 0.98654 0.0
C1596 C 0.63987 0.57901 0.00341 0.0
O1597 O 0.68957 0.57407 0.01361 0.0
C1598 C 0.74831 0.54101 0.9498 0.0
O1599 O 0.68362 0.54091 0.94954 0.0
O1600 O 0.67459 0.53235 0.99365 0.0
O1601 O 0.57535 0.54057 0.99486 0.0
H1602 H 0.79845 0.51187 0.0494 0.0
H1603 H 0.63948 0.56899 0.95394 0.0
O1604 O 0.59419 0.57335 0.99411 0.0
H1605 H 0.4673 0.54443 0.92255 0.0
H1606 H 0.36011 0.57393 0.98801 0.0
H1607 H 0.49561 0.5456 0.02681 0.0
H1608 H 0.49029 0.54484 0.9643 0.0
H1609 H 0.47775 0.57177 0.97827 0.0
O1610 O 0.77907 0.54222 0.96879 0.0
H1611 H 0.72377 0.52593 0.03301 0.0
H1612 H 0.88101 0.53944 0.99374 0.0
H1613 H 0.37802 0.54741 0.03693 0.0
H1614 H 0.61781 0.5689 0.91208 0.0
H1615 H 0.30945 0.56166 0.01746 0.0
H1616 H 0.5313 0.55653 0.89613 0.0
O1617 O 0.60639 0.55687 0.02777 0.0
H1618 H 0.87109 0.57835 0.98038 0.0
H1619 H 0.81568 0.55138 0.0412 0.0
H1620 H 0.89266 0.56663 0.04986 0.0
H1621 H 0.92088 0.58024 0.01931 0.0
H1622 H 0.79388 0.56303 0.97252 0.0
H1623 H 0.95733 0.52547 0.00956 0.0
H1624 H 0.91618 0.51158 0.03767 0.0
O1625 O 0.69837 0.54654 0.03114 0.0
C1626 C 0.61179 0.532 0.99378 0.0
C1627 C 0.81704 0.5179 0.03724 0.0
C1628 C 0.90619 0.52553 0.01485 0.0
N1629 N 0.79818 0.53357 0.01264 0.0
C1630 C 0.77504 0.52591 0.02797 0.0
C1631 C 0.86273 0.53341 0.00593 0.0
C1632 C 0.88307 0.51774 0.03063 0.0
C1633 C 0.60133 0.56366 0.94714 0.0
N1634 N 0.566 0.55697 0.96155 0.0
C1635 C 0.58946 0.56362 0.92342 0.0
C1636 C 0.54099 0.55666 0.91448 0.0
C1637 C 0.50509 0.54986 0.92929 0.0
C1638 C 0.51841 0.55011 0.95291 0.0
C1639 C 0.38944 0.56767 0.99658 0.0
C1640 C 0.46597 0.55178 0.01817 0.0
C1641 C 0.4561 0.56643 0.99117 0.0
N1642 N 0.49334 0.55851 0.00183 0.0
C1643 C 0.39947 0.55278 0.02401 0.0
C1644 C 0.36104 0.56079 0.0131 0.0
C1645 C 0.64989 0.55186 0.03973 0.0
C1646 C 0.85933 0.57245 0.99381 0.0
C1647 C 0.82759 0.55728 0.02783 0.0
C1648 C 0.87132 0.56589 0.03282 0.0
C1649 C 0.88717 0.57352 0.01567 0.0
N1650 N 0.80056 0.55628 0.00634 0.0
C1651 C 0.81588 0.56373 0.98943 0.0
Co1652 Co 0.339 0.43325 0.74524 0.0
Co1653 Co 0.49143 0.44575 0.74998 0.0
O1654 O 0.43177 0.43469 0.73697 0.0
C1655 C 0.39409 0.41119 0.75389 0.0
O1656 O 0.44392 0.41619 0.76389 0.0
C1657 C 0.49909 0.44915 0.69978 0.0
O1658 O 0.4344 0.44929 0.69994 0.0
O1659 O 0.42732 0.45786 0.74402 0.0
O1660 O 0.32817 0.44963 0.74602 0.0
H1661 H 0.55342 0.47844 0.799 0.0
H1662 H 0.39066 0.42126 0.70452 0.0
O1663 O 0.34763 0.41681 0.74495 0.0
H1664 H 0.2167 0.44583 0.67436 0.0
H1665 H 0.11322 0.41614 0.74029 0.0
H1666 H 0.25013 0.44449 0.77842 0.0
H1667 H 0.24174 0.44535 0.71596 0.0
H1668 H 0.23032 0.41838 0.72984 0.0
O1669 O 0.53078 0.44798 0.7186 0.0
H1670 H 0.47817 0.46433 0.7831 0.0
H1671 H 0.63375 0.45083 0.74301 0.0
H1672 H 0.1331 0.4426 0.78926 0.0
H1673 H 0.36695 0.42142 0.6628 0.0
H1674 H 0.06383 0.42834 0.77013 0.0
H1675 H 0.27955 0.4338 0.64747 0.0
O1676 O 0.36113 0.43328 0.77861 0.0
H1677 H 0.6235 0.41189 0.72991 0.0
H1678 H 0.57063 0.43893 0.79089 0.0
H1679 H 0.64803 0.42369 0.79921 0.0
H1680 H 0.67496 0.41005 0.76858 0.0
H1681 H 0.54592 0.42719 0.72239 0.0
H1682 H 0.71062 0.46485 0.75834 0.0
H1683 H 0.67059 0.47876 0.78661 0.0
O1684 O 0.45282 0.44372 0.78149 0.0
C1685 C 0.36453 0.45821 0.74463 0.0
C1686 C 0.57153 0.4724 0.78677 0.0
C1687 C 0.65973 0.46478 0.76392 0.0
N1688 N 0.55173 0.4567 0.76235 0.0
C1689 C 0.5292 0.46436 0.77777 0.0
C1690 C 0.61597 0.45687 0.75528 0.0
C1691 C 0.63724 0.47258 0.77978 0.0
C1692 C 0.35211 0.42659 0.698 0.0
N1693 N 0.31742 0.43325 0.71266 0.0
C1694 C 0.33909 0.42667 0.67435 0.0
C1695 C 0.29012 0.43363 0.66575 0.0
C1696 C 0.25487 0.44039 0.68083 0.0
C1697 C 0.26934 0.4401 0.70437 0.0
C1698 C 0.14286 0.4224 0.74871 0.0
C1699 C 0.22017 0.43831 0.76992 0.0
C1700 C 0.20921 0.42369 0.7429 0.0
N1701 N 0.24683 0.43162 0.75338 0.0
C1702 C 0.154 0.43726 0.77617 0.0
C1703 C 0.11518 0.42925 0.76545 0.0
C1704 C 0.40493 0.43834 0.79035 0.0
C1705 C 0.61231 0.4178 0.74338 0.0
C1706 C 0.58199 0.43301 0.77749 0.0
C1707 C 0.62596 0.42441 0.78229 0.0
C1708 C 0.64109 0.41676 0.76509 0.0
N1709 N 0.55403 0.43397 0.75614 0.0
C1710 C 0.56865 0.42651 0.73919 0.0
Co1711 Co 0.41449 0.30667 0.74461 0.0
Co1712 Co 0.26305 0.29387 0.74968 0.0
O1713 O 0.32162 0.30507 0.73659 0.0
C1714 C 0.35831 0.32865 0.75351 0.0
O1715 O 0.30883 0.32359 0.76357 0.0
C1716 C 0.25456 0.29051 0.6995 0.0
O1717 O 0.31925 0.29049 0.69952 0.0
O1718 O 0.32787 0.2819 0.74349 0.0
O1719 O 0.42645 0.29032 0.74524 0.0
H1720 H 0.20445 0.26101 0.79872 0.0
H1721 H 0.36098 0.31861 0.70412 0.0
O1722 O 0.40483 0.3231 0.74444 0.0
H1723 H 0.53585 0.29443 0.67329 0.0
H1724 H 0.63904 0.3242 0.73912 0.0
H1725 H 0.50488 0.29556 0.77746 0.0
H1726 H 0.51187 0.29481 0.71497 0.0
H1727 H 0.52184 0.32176 0.72899 0.0
O1728 O 0.22317 0.2916 0.7184 0.0
H1729 H 0.27836 0.27528 0.78269 0.0
H1730 H 0.12096 0.28851 0.74305 0.0
H1731 H 0.62205 0.29764 0.78797 0.0
H1732 H 0.38361 0.31855 0.66232 0.0
H1733 H 0.68995 0.31204 0.76873 0.0
H1734 H 0.47146 0.30636 0.64666 0.0
O1735 O 0.39314 0.30656 0.77805 0.0
H1736 H 0.12804 0.32748 0.73016 0.0
H1737 H 0.18431 0.30048 0.79084 0.0
H1738 H 0.10596 0.31554 0.79945 0.0
H1739 H 0.07731 0.32917 0.76897 0.0
H1740 H 0.2066 0.31235 0.72235 0.0
H1741 H 0.04541 0.27433 0.75851 0.0
H1742 H 0.08704 0.26048 0.78663 0.0
O1743 O 0.30223 0.29595 0.7811 0.0
C1744 C 0.39069 0.28167 0.74389 0.0
C1745 C 0.18565 0.26703 0.78656 0.0
C1746 C 0.09642 0.27449 0.76396 0.0
N1747 N 0.20381 0.28279 0.76215 0.0
C1748 C 0.22721 0.27516 0.77749 0.0
C1749 C 0.13943 0.28249 0.75524 0.0
C1750 C 0.1198 0.26673 0.77974 0.0
C1751 C 0.39973 0.31337 0.69745 0.0
N1752 N 0.43526 0.30676 0.71197 0.0
C1753 C 0.41213 0.31334 0.67376 0.0
C1754 C 0.46136 0.30648 0.66498 0.0
C1755 C 0.49748 0.29978 0.67991 0.0
C1756 C 0.4836 0.30001 0.70349 0.0
C1757 C 0.61001 0.31787 0.74759 0.0
C1758 C 0.53423 0.3018 0.76892 0.0
C1759 C 0.5436 0.31647 0.74196 0.0
N1760 N 0.50674 0.30847 0.7525 0.0
C1761 C 0.60049 0.30296 0.77498 0.0
C1762 C 0.63854 0.31105 0.7642 0.0
C1763 C 0.34995 0.30141 0.78987 0.0
C1764 C 0.13998 0.32158 0.74356 0.0
C1765 C 0.17221 0.3064 0.77751 0.0
C1766 C 0.1277 0.31489 0.78247 0.0
C1767 C 0.11161 0.32253 0.76535 0.0
N1768 N 0.19976 0.30551 0.75608 0.0
C1769 C 0.18419 0.31296 0.73921 0.0
Co1770 Co 0.33821 0.30654 0.00663 0.0
Co1771 Co 0.49018 0.29397 0.00111 0.0
O1772 O 0.43113 0.30499 0.0146 0.0
C1773 C 0.39309 0.32867 0.99859 0.0
O1774 O 0.44296 0.3238 0.98836 0.0
C1775 C 0.49858 0.2902 0.05115 0.0
O1776 O 0.43389 0.29009 0.05108 0.0
O1777 O 0.42586 0.28186 0.00682 0.0
O1778 O 0.32702 0.2902 0.00535 0.0
H1779 H 0.55035 0.26161 0.95087 0.0
H1780 H 0.39111 0.31818 0.04761 0.0
O1781 O 0.34699 0.32295 0.00746 0.0
H1782 H 0.21728 0.2935 0.07743 0.0
H1783 H 0.1128 0.32371 0.01274 0.0
H1784 H 0.24846 0.29562 0.97329 0.0
H1785 H 0.24128 0.29429 0.03577 0.0
H1786 H 0.23006 0.32133 0.02284 0.0
O1787 O 0.53004 0.29148 0.03233 0.0
H1788 H 0.47579 0.27566 0.96739 0.0
H1789 H 0.63246 0.28872 0.00762 0.0
H1790 H 0.13125 0.29765 0.96279 0.0
H1791 H 0.36846 0.3177 0.08939 0.0
H1792 H 0.0626 0.31178 0.98259 0.0
H1793 H 0.28113 0.30526 0.10455 0.0
O1794 O 0.35966 0.30676 0.97321 0.0
H1795 H 0.62385 0.32755 0.02196 0.0
H1796 H 0.56877 0.30103 0.96024 0.0
H1797 H 0.64662 0.31624 0.95224 0.0
H1798 H 0.67469 0.32962 0.98324 0.0
H1799 H 0.5458 0.31228 0.02915 0.0
H1800 H 0.70865 0.27476 0.99167 0.0
H1801 H 0.66772 0.2611 0.96302 0.0
O1802 O 0.45098 0.29627 0.96976 0.0
C1803 C 0.36305 0.28159 0.00637 0.0
C1804 C 0.56884 0.26754 0.96327 0.0
C1805 C 0.65766 0.27491 0.9862 0.0
N1806 N 0.54993 0.28307 0.98826 0.0
C1807 C 0.52691 0.27554 0.97262 0.0
C1808 C 0.61428 0.28279 0.99519 0.0
C1809 C 0.63467 0.26726 0.97011 0.0
C1810 C 0.35259 0.31283 0.05406 0.0
N1811 N 0.31737 0.30631 0.03927 0.0
C1812 C 0.34017 0.31256 0.07774 0.0
C1813 C 0.29123 0.30557 0.08623 0.0
C1814 C 0.25542 0.29896 0.07103 0.0
C1815 C 0.26931 0.29942 0.04746 0.0
C1816 C 0.14216 0.31751 0.00403 0.0
C1817 C 0.21878 0.30174 0.98207 0.0
C1818 C 0.2086 0.31614 0.00964 0.0
N1819 N 0.24588 0.30828 0.99879 0.0
C1820 C 0.1525 0.30287 0.97601 0.0
C1821 C 0.11403 0.31081 0.98711 0.0
C1822 C 0.40306 0.30176 0.96119 0.0
C1823 C 0.61217 0.32175 0.00833 0.0
C1824 C 0.5806 0.30684 0.9738 0.0
C1825 C 0.62483 0.31542 0.96918 0.0
C1826 C 0.64059 0.32292 0.98659 0.0
N1827 N 0.55301 0.30574 0.99517 0.0
C1828 C 0.56824 0.31306 0.01233 0.0
Co1829 Co 0.41522 0.43335 0.00722 0.0
Co1830 Co 0.26285 0.44576 0.00129 0.0
O1831 O 0.3221 0.43482 0.01496 0.0
C1832 C 0.36114 0.4112 0.99896 0.0
O1833 O 0.31141 0.41606 0.98861 0.0
C1834 C 0.25356 0.44958 0.05131 0.0
O1835 O 0.31825 0.44975 0.05136 0.0
O1836 O 0.32665 0.45794 0.00706 0.0
O1837 O 0.42584 0.4497 0.00597 0.0
H1838 H 0.20224 0.47799 0.95075 0.0
H1839 H 0.36193 0.42166 0.04805 0.0
O1840 O 0.40693 0.41693 0.008 0.0
H1841 H 0.53425 0.44651 0.07833 0.0
H1842 H 0.64107 0.4164 0.01391 0.0
H1843 H 0.50528 0.44437 0.97413 0.0
H1844 H 0.51111 0.4457 0.03662 0.0
H1845 H 0.52352 0.41866 0.02368 0.0
O1846 O 0.22242 0.44825 0.03242 0.0
H1847 H 0.27708 0.46404 0.96751 0.0
H1848 H 0.12028 0.45087 0.00749 0.0
H1849 H 0.62278 0.44246 0.96396 0.0
H1850 H 0.38373 0.42215 0.08989 0.0
H1851 H 0.6915 0.42839 0.98392 0.0
H1852 H 0.4703 0.43468 0.10528 0.0
O1853 O 0.39447 0.43312 0.97374 0.0
H1854 H 0.13017 0.41206 0.02205 0.0
H1855 H 0.18516 0.43857 0.9603 0.0
H1856 H 0.10805 0.42326 0.95222 0.0
H1857 H 0.08004 0.40988 0.98324 0.0
H1858 H 0.20748 0.42743 0.02933 0.0
H1859 H 0.04381 0.46472 0.9913 0.0
H1860 H 0.08467 0.47838 0.96265 0.0
O1861 O 0.30262 0.44346 0.97004 0.0
C1862 C 0.38946 0.45828 0.00681 0.0
C1863 C 0.18378 0.47205 0.96315 0.0
C1864 C 0.09489 0.46462 0.98594 0.0
N1865 N 0.2029 0.45658 0.98826 0.0
C1866 C 0.22587 0.46411 0.97263 0.0
C1867 C 0.13843 0.4568 0.99507 0.0
C1868 C 0.11784 0.47228 0.96986 0.0
C1869 C 0.40013 0.42704 0.0546 0.0
N1870 N 0.4354 0.4336 0.03991 0.0
C1871 C 0.41206 0.42732 0.07832 0.0
C1872 C 0.46057 0.43437 0.08694 0.0
C1873 C 0.49644 0.44102 0.07183 0.0
C1874 C 0.48304 0.44054 0.04823 0.0
C1875 C 0.61168 0.42258 0.00513 0.0
C1876 C 0.53498 0.43828 0.98299 0.0
C1877 C 0.54507 0.42388 0.01055 0.0
N1878 N 0.50775 0.4317 0.99962 0.0
C1879 C 0.60143 0.43721 0.97711 0.0
C1880 C 0.63994 0.42931 0.9883 0.0
C1881 C 0.35101 0.43805 0.96161 0.0
C1882 C 0.14183 0.41785 0.00841 0.0
C1883 C 0.17334 0.43276 0.97387 0.0
C1884 C 0.12954 0.42413 0.96921 0.0
C1885 C 0.1138 0.41663 0.98662 0.0
N1886 N 0.20054 0.43392 0.9953 0.0
C1887 C 0.18534 0.4266 0.01246 0.0
H1888 H 0.11018 0.06898 0.06647 0.0
H1889 H 0.06653 0.03496 0.18095 0.0
H1890 H 0.18079 0.03536 0.07118 0.0
H1891 H 0.13973 0.06847 0.18424 0.0
H1892 H 0.08226 0.03517 0.139 0.0
H1893 H 0.09596 0.06924 0.10861 0.0
C1894 C 0.12259 0.06167 0.0764 0.0
C1895 C 0.14687 0.05215 0.06548 0.0
C1896 C 0.09463 0.04247 0.14898 0.0
C1897 C 0.12922 0.05231 0.11314 0.0
C1898 C 0.08532 0.04239 0.17279 0.0
C1899 C 0.10203 0.05171 0.18597 0.0
C1900 C 0.11896 0.05204 0.13827 0.0
C1901 C 0.12667 0.0611 0.17462 0.0
C1902 C 0.11471 0.06184 0.10031 0.0
C1903 C 0.16242 0.04289 0.07902 0.0
N1904 N 0.13383 0.06108 0.15131 0.0
N1905 N 0.15251 0.04314 0.10218 0.0
H1906 H 0.07192 0.20459 0.06941 0.0
H1907 H 0.11221 0.17049 0.18387 0.0
H1908 H 0.14332 0.17097 0.06621 0.0
H1909 H 0.18349 0.20408 0.1795 0.0
H1910 H 0.09937 0.17025 0.14168 0.0
H1911 H 0.08758 0.20438 0.11135 0.0
C1912 C 0.09038 0.19714 0.07758 0.0
C1913 C 0.10651 0.18778 0.06443 0.0
C1914 C 0.11799 0.17763 0.15006 0.0
C1915 C 0.12335 0.18746 0.11214 0.0
C1916 C 0.12506 0.17779 0.17401 0.0
C1917 C 0.14908 0.18731 0.18505 0.0
C1918 C 0.13307 0.18716 0.1373 0.0
C1919 C 0.16527 0.19656 0.17158 0.0
C1920 C 0.09964 0.19706 0.10139 0.0
C1921 C 0.1307 0.17836 0.0758 0.0
N1922 N 0.15613 0.19632 0.14838 0.0
N1923 N 0.13779 0.17839 0.09912 0.0
H1924 H 0.88799 0.92092 0.93443 0.0
H1925 H 0.92856 0.95497 0.81995 0.0
H1926 H 0.81738 0.95455 0.93021 0.0
H1927 H 0.85562 0.92144 0.81693 0.0
H1928 H 0.9132 0.95481 0.86192 0.0
H1929 H 0.90068 0.92071 0.89224 0.0
C1930 C 0.87529 0.92824 0.9246 0.0
C1931 C 0.85147 0.93776 0.93567 0.0
C1932 C 0.90073 0.9475 0.85199 0.0
C1933 C 0.8673 0.93764 0.88794 0.0
C1934 C 0.90981 0.94756 0.82816 0.0
C1935 C 0.89315 0.9382 0.81507 0.0
C1936 C 0.87671 0.93793 0.86277 0.0
C1937 C 0.86862 0.92883 0.82649 0.0
C1938 C 0.88227 0.9281 0.90066 0.0
C1939 C 0.83545 0.94704 0.92224 0.0
N1940 N 0.86174 0.92887 0.84981 0.0
N1941 N 0.84448 0.94681 0.89904 0.0
H1942 H 0.00176 0.79962 0.9288 0.0
H1943 H 0.75539 0.79933 0.82223 0.0
H1944 H 0.79341 0.80607 0.93607 0.0
H1945 H 0.96357 0.80586 0.8147 0.0
H1946 H 0.7685 0.7999 0.86407 0.0
H1947 H 0.98885 0.80002 0.88692 0.0
C1948 C 0.95334 0.80115 0.92163 0.0
C1949 C 0.89861 0.80284 0.93603 0.0
C1950 C 0.81118 0.80126 0.85323 0.0
C1951 C 0.88353 0.80318 0.88809 0.0
C1952 C 0.80383 0.80091 0.82933 0.0
C1953 C 0.85843 0.80259 0.81486 0.0
C1954 C 0.87375 0.80311 0.86279 0.0
C1955 C 0.92002 0.80458 0.82514 0.0
C1956 C 0.9461 0.80141 0.89771 0.0
C1957 C 0.83706 0.80478 0.92569 0.0
N1958 N 0.92609 0.80471 0.84848 0.0
N1959 N 0.83111 0.80481 0.90235 0.0
H1960 H 0.06831 0.53486 0.68046 0.0
H1961 H 0.10944 0.569 0.56604 0.0
H1962 H 0.1408 0.56842 0.68368 0.0
H1963 H 0.18001 0.53536 0.57043 0.0
H1964 H 0.09611 0.56921 0.60822 0.0
H1965 H 0.08351 0.53509 0.6385 0.0
C1966 C 0.08692 0.54229 0.67229 0.0
C1967 C 0.10353 0.55163 0.68544 0.0
C1968 C 0.11465 0.56183 0.59984 0.0
C1969 C 0.11979 0.55198 0.63774 0.0
C1970 C 0.12199 0.56168 0.5759 0.0
C1971 C 0.14601 0.55216 0.56489 0.0
C1972 C 0.12947 0.55228 0.61259 0.0
C1973 C 0.16181 0.54288 0.57835 0.0
C1974 C 0.09589 0.54239 0.64847 0.0
C1975 C 0.12786 0.56104 0.67408 0.0
N1976 N 0.15245 0.54312 0.60153 0.0
N1977 N 0.13468 0.56103 0.65076 0.0
H1978 H 0.18152 0.70493 0.68077 0.0
H1979 H 0.14687 0.6708 0.56588 0.0
H1980 H 0.11178 0.6712 0.68333 0.0
H1981 H 0.07587 0.70442 0.57 0.0
H1982 H 0.15852 0.67057 0.60812 0.0
H1983 H 0.16812 0.70474 0.63873 0.0
C1984 C 0.16387 0.69747 0.67244 0.0
C1985 C 0.14753 0.68807 0.68544 0.0
C1986 C 0.14028 0.67796 0.59967 0.0
C1987 C 0.13333 0.68777 0.63761 0.0
C1988 C 0.13391 0.67812 0.57569 0.0
C1989 C 0.11023 0.68764 0.56456 0.0
C1990 C 0.12483 0.68749 0.61238 0.0
C1991 C 0.09385 0.6969 0.57798 0.0
C1992 C 0.15592 0.6974 0.64856 0.0
C1993 C 0.12447 0.67863 0.67386 0.0
N1994 N 0.10225 0.69665 0.60122 0.0
N1995 N 0.11865 0.67867 0.6505 0.0
H1996 H 0.81679 0.45469 0.4303 0.0
H1997 H 0.85813 0.42071 0.31558 0.0
H1998 H 0.88949 0.42115 0.4332 0.0
H1999 H 0.92845 0.45436 0.32012 0.0
H2000 H 0.84473 0.42046 0.35775 0.0
H2001 H 0.83181 0.45453 0.3883 0.0
C2002 C 0.83534 0.44727 0.42205 0.0
C2003 C 0.8521 0.43792 0.43513 0.0
C2004 C 0.86323 0.42786 0.34941 0.0
C2005 C 0.8682 0.43765 0.38738 0.0
C2006 C 0.87065 0.42803 0.32547 0.0
C2007 C 0.89462 0.43756 0.31449 0.0
C2008 C 0.8779 0.43739 0.36221 0.0
C2009 C 0.91031 0.44683 0.32801 0.0
C2010 C 0.84424 0.44722 0.39821 0.0
C2011 C 0.8764 0.42854 0.42366 0.0
N2012 N 0.90086 0.44657 0.35119 0.0
N2013 N 0.88315 0.42859 0.40033 0.0
H2014 H 0.89046 0.3191 0.31623 0.0
H2015 H 0.93284 0.28489 0.43057 0.0
H2016 H 0.82081 0.28541 0.32043 0.0
H2017 H 0.85967 0.3184 0.43385 0.0
H2018 H 0.91746 0.28512 0.38859 0.0
H2019 H 0.90384 0.31927 0.3584 0.0
C2020 C 0.87807 0.31176 0.32605 0.0
C2021 C 0.85431 0.30223 0.31497 0.0
C2022 C 0.90498 0.29241 0.39857 0.0
C2023 C 0.87101 0.30231 0.3627 0.0
C2024 C 0.91409 0.29231 0.42241 0.0
C2025 C 0.89731 0.30163 0.43558 0.0
C2026 C 0.88081 0.30199 0.38786 0.0
C2027 C 0.87277 0.31103 0.42423 0.0
C2028 C 0.88548 0.31188 0.34999 0.0
C2029 C 0.83878 0.29293 0.32839 0.0
N2030 N 0.86583 0.31102 0.40091 0.0
N2031 N 0.84822 0.29314 0.35158 0.0
H2032 H 0.63953 0.06909 0.68507 0.0
H2033 H 0.68359 0.03492 0.57075 0.0
H2034 H 0.56863 0.03549 0.68039 0.0
H2035 H 0.611 0.06846 0.56726 0.0
H2036 H 0.66773 0.0352 0.61269 0.0
H2037 H 0.6542 0.0693 0.64294 0.0
C2038 C 0.62714 0.06178 0.67515 0.0
C2039 C 0.60263 0.05227 0.68608 0.0
C2040 C 0.65554 0.04249 0.60267 0.0
C2041 C 0.62082 0.05238 0.63843 0.0
C2042 C 0.66492 0.04237 0.57886 0.0
C2043 C 0.64839 0.05168 0.56563 0.0
C2044 C 0.63131 0.05208 0.61332 0.0
C2045 C 0.62392 0.0611 0.57692 0.0
C2046 C 0.63529 0.06192 0.65125 0.0
C2047 C 0.58714 0.043 0.67254 0.0
N2048 N 0.61666 0.06111 0.60023 0.0
N2049 N 0.59731 0.04323 0.6494 0.0
H2050 H 0.61335 0.17026 0.68406 0.0
H2051 H 0.56756 0.20425 0.56957 0.0
H2052 H 0.6809 0.20406 0.67939 0.0
H2053 H 0.64254 0.17085 0.5663 0.0
H2054 H 0.58309 0.20405 0.61152 0.0
H2055 H 0.59918 0.16998 0.64191 0.0
C2056 C 0.6251 0.1776 0.67414 0.0
C2057 C 0.64851 0.18719 0.68508 0.0
C2058 C 0.59589 0.19678 0.60155 0.0
C2059 C 0.63092 0.18699 0.6374 0.0
C2060 C 0.58671 0.19685 0.57773 0.0
C2061 C 0.60398 0.18756 0.56456 0.0
C2062 C 0.62069 0.18724 0.61226 0.0
C2063 C 0.62904 0.1782 0.57591 0.0
C2064 C 0.61725 0.17741 0.65022 0.0
C2065 C 0.66322 0.19649 0.67154 0.0
N2066 N 0.6361 0.17823 0.59923 0.0
N2067 N 0.65336 0.19621 0.64838 0.0
H2068 H 0.39057 0.92057 0.43471 0.0
H2069 H 0.43423 0.95467 0.32029 0.0
H2070 H 0.32077 0.95424 0.4302 0.0
H2071 H 0.36087 0.92117 0.31709 0.0
H2072 H 0.41879 0.95446 0.36226 0.0
H2073 H 0.40488 0.92037 0.39258 0.0
C2074 C 0.37841 0.9279 0.42483 0.0
C2075 C 0.35429 0.93743 0.4358 0.0
C2076 C 0.40632 0.94717 0.35229 0.0
C2077 C 0.37199 0.93732 0.38815 0.0
C2078 C 0.41545 0.94725 0.32847 0.0
C2079 C 0.39861 0.93792 0.31532 0.0
C2080 C 0.38204 0.9376 0.36302 0.0
C2081 C 0.37402 0.92853 0.32669 0.0
C2082 C 0.38632 0.92776 0.40092 0.0
C2083 C 0.33901 0.94672 0.42232 0.0
N2084 N 0.36703 0.92856 0.35 0.0
N2085 N 0.34892 0.94649 0.39916 0.0
H2086 H 0.50156 0.7995 0.42792 0.0
H2087 H 0.25023 0.79959 0.32271 0.0
H2088 H 0.29344 0.80576 0.4366 0.0
H2089 H 0.45821 0.80608 0.31432 0.0
H2090 H 0.26499 0.80003 0.36453 0.0
H2091 H 0.48652 0.80006 0.38615 0.0
C2092 C 0.45274 0.80102 0.42109 0.0
C2093 C 0.39872 0.80262 0.43585 0.0
C2094 C 0.30725 0.80141 0.35349 0.0
C2095 C 0.38119 0.80314 0.38802 0.0
C2096 C 0.29895 0.80114 0.32962 0.0
C2097 C 0.35304 0.80283 0.31492 0.0
C2098 C 0.37024 0.8032 0.36278 0.0
C2099 C 0.41502 0.80478 0.32494 0.0
C2100 C 0.44427 0.80137 0.39723 0.0
C2101 C 0.33658 0.80454 0.42592 0.0
N2102 N 0.422 0.80483 0.34824 0.0
N2103 N 0.32944 0.80467 0.40263 0.0
H2104 H 0.67867 0.53527 0.06985 0.0
H2105 H 0.63993 0.56935 0.18443 0.0
H2106 H 0.6057 0.5688 0.06688 0.0
H2107 H 0.56916 0.53572 0.1802 0.0
H2108 H 0.65228 0.56957 0.14221 0.0
H2109 H 0.66425 0.53548 0.11185 0.0
C2110 C 0.66009 0.54269 0.07809 0.0
C2111 C 0.64314 0.55203 0.065 0.0
C2112 C 0.63393 0.56219 0.15064 0.0
C2113 C 0.62781 0.55236 0.11274 0.0
C2114 C 0.62715 0.56203 0.17459 0.0
C2115 C 0.60335 0.55251 0.18567 0.0
C2116 C 0.61876 0.55265 0.13792 0.0
C2117 C 0.58722 0.54324 0.17224 0.0
C2118 C 0.65157 0.54277 0.10193 0.0
C2119 C 0.61888 0.56142 0.07643 0.0
N2120 N 0.59603 0.54348 0.14903 0.0
N2121 N 0.61253 0.5614 0.09977 0.0
H2122 H 0.68088 0.70548 0.18141 0.0
H2123 H 0.64465 0.67144 0.06645 0.0
H2124 H 0.60996 0.67182 0.18384 0.0
H2125 H 0.57457 0.70511 0.07061 0.0
H2126 H 0.6567 0.67121 0.10867 0.0
H2127 H 0.66739 0.70535 0.13936 0.0
C2128 C 0.66296 0.69804 0.17305 0.0
C2129 C 0.64632 0.68865 0.18602 0.0
C2130 C 0.63861 0.67861 0.10023 0.0
C2131 C 0.63202 0.68841 0.13819 0.0
C2132 C 0.63201 0.67878 0.07626 0.0
C2133 C 0.60845 0.68831 0.06516 0.0
C2134 C 0.62348 0.68815 0.11296 0.0
C2135 C 0.59247 0.69759 0.07859 0.0
C2136 C 0.65496 0.69801 0.14917 0.0
C2137 C 0.6229 0.67924 0.1744 0.0
N2138 N 0.60105 0.69733 0.10181 0.0
N2139 N 0.61704 0.67931 0.15104 0.0
H2140 H 0.43428 0.45494 0.82045 0.0
H2141 H 0.39461 0.42084 0.93514 0.0
H2142 H 0.36192 0.42138 0.81763 0.0
H2143 H 0.32397 0.45447 0.93085 0.0
H2144 H 0.40788 0.42065 0.89296 0.0
H2145 H 0.42 0.45476 0.86249 0.0
C2146 C 0.41594 0.44751 0.82872 0.0
C2147 C 0.39904 0.43817 0.81566 0.0
C2148 C 0.38938 0.42804 0.90136 0.0
C2149 C 0.38384 0.43786 0.86344 0.0
C2150 C 0.38204 0.42817 0.9253 0.0
C2151 C 0.35796 0.43768 0.93635 0.0
C2152 C 0.37452 0.43758 0.88862 0.0
C2153 C 0.34218 0.44696 0.9229 0.0
C2154 C 0.40748 0.44745 0.85259 0.0
C2155 C 0.37507 0.42877 0.82715 0.0
N2156 N 0.35153 0.44674 0.89971 0.0
N2157 N 0.36875 0.4288 0.85049 0.0
H2158 H 0.32156 0.28476 0.81999 0.0
H2159 H 0.36012 0.31897 0.93459 0.0
H2160 H 0.3929 0.31839 0.81712 0.0
H2161 H 0.43057 0.28532 0.93051 0.0
H2162 H 0.34748 0.31914 0.89239 0.0
H2163 H 0.33599 0.28497 0.86201 0.0
C2164 C 0.33975 0.29221 0.82825 0.0
C2165 C 0.35627 0.30157 0.81517 0.0
C2166 C 0.36583 0.31176 0.90084 0.0
C2167 C 0.37165 0.30189 0.86295 0.0
C2168 C 0.3728 0.31163 0.92479 0.0
C2169 C 0.3966 0.30212 0.93591 0.0
C2170 C 0.3808 0.3022 0.88815 0.0
C2171 C 0.41255 0.29283 0.92251 0.0
C2172 C 0.3483 0.29229 0.85211 0.0
C2173 C 0.38004 0.31099 0.82665 0.0
N2174 N 0.40355 0.29305 0.8993 0.0
N2175 N 0.38643 0.31096 0.84999 0.0
H2176 H 0.42224 0.97872 0.24609 0.0
H2177 H 0.07768 0.01075 0.25473 0.0
H2178 H 0.23256 0.96245 0.24435 0.0
H2179 H 0.2675 0.02697 0.25654 0.0
H2180 H 0.13361 0.99293 0.25122 0.0
H2181 H 0.36619 -0.00347 0.24947 0.0
C2182 C 0.36886 0.97888 0.24624 0.0
C2183 C 0.33215 0.96905 0.24494 0.0
C2184 C 0.16296 0.0004 0.25246 0.0
C2185 C 0.26771 0.98941 0.24903 0.0
C2186 C 0.13105 0.01057 0.25457 0.0
C2187 C 0.16784 0.0204 0.25594 0.0
C2188 C 0.23213 3e-05 0.2517 0.0
C2189 C 0.23695 0.01964 0.25552 0.0
C2190 C 0.33688 0.98905 0.24827 0.0
C2191 C 0.26304 0.96979 0.24532 0.0
N2192 N 0.26678 0.00964 0.25339 0.0
N2193 N 0.23312 0.97979 0.24739 0.0
H2194 H 0.82908 0.26086 0.24603 0.0
H2195 H 0.17313 0.22864 0.25424 0.0
H2196 H 0.01913 0.27702 0.24513 0.0
H2197 H 0.98321 0.21243 0.25519 0.0
H2198 H 0.11737 0.24648 0.25126 0.0
H2199 H 0.88474 0.243 0.24911 0.0
C2200 C 0.88244 0.26067 0.24632 0.0
C2201 C 0.91938 0.27049 0.24531 0.0
C2202 C 0.08794 0.23902 0.25219 0.0
C2203 C 0.98336 0.25006 0.24901 0.0
C2204 C 0.11976 0.22882 0.25398 0.0
C2205 C 0.08291 0.21899 0.25497 0.0
C2206 C 0.01878 0.23941 0.25136 0.0
C2207 C 0.0138 0.21977 0.25446 0.0
C2208 C 0.9142 0.25046 0.24817 0.0
C2209 C 0.98847 0.2697 0.24586 0.0
N2210 N 0.98405 0.22979 0.25264 0.0
N2211 N 0.01815 0.25967 0.24772 0.0
H2212 H 0.27079 0.21213 0.99266 0.0
H2213 H 0.23042 0.27751 0.00727 0.0
H2214 H 0.08229 0.22872 0.99621 0.0
H2215 H 0.41889 0.2609 0.00383 0.0
H2216 H 0.17552 0.2597 0.00355 0.0
H2217 H 0.32566 0.22994 0.99629 0.0
C2218 C 0.24078 0.21952 0.99405 0.0
C2219 C 0.17163 0.2189 0.99414 0.0
C2220 C 0.22887 0.25995 0.00368 0.0
C2221 C 0.23458 0.23936 0.9985 0.0
C2222 C 0.26041 0.27012 0.00588 0.0
C2223 C 0.32957 0.27073 0.00586 0.0
C2224 C 0.26659 0.25028 0.00139 0.0
C2225 C 0.36554 0.26085 0.00398 0.0
C2226 C 0.27231 0.2297 0.9962 0.0
C2227 C 0.13564 0.22879 0.996 0.0
N2228 N 0.33357 0.25103 0.00175 0.0
N2229 N 0.16759 0.23861 0.99819 0.0
H2230 H 0.17367 0.01067 0.99768 0.0
H2231 H 0.8283 0.97881 0.0047 0.0
H2232 H 0.984 0.02691 0.99467 0.0
H2233 H 0.01757 0.96242 0.00721 0.0
H2234 H 0.88484 -0.00343 0.00162 0.0
H2235 H 0.11743 0.99287 0.00105 0.0
C2236 C 0.12029 0.0105 0.99756 0.0
C2237 C 0.0836 0.02032 0.99588 0.0
C2238 C 0.91395 0.98908 0.00292 0.0
C2239 C 0.019 -1e-05 0.99994 0.0
C2240 C 0.88168 0.97893 0.00478 0.0
C2241 C 0.91814 0.96908 0.00621 0.0
C2242 C 0.98316 0.98939 0.00247 0.0
C2243 C 0.98729 0.96978 0.00613 0.0
C2244 C 0.08821 0.00034 0.99958 0.0
C2245 C 0.01448 0.01958 0.99593 0.0
N2246 N 0.0175 0.97976 0.00423 0.0
N2247 N 0.9845 0.0096 0.99798 0.0
H2248 H 0.57556 0.01081 0.75338 0.0
H2249 H 0.92 0.97872 0.74553 0.0
H2250 H 0.76552 0.02695 0.75647 0.0
H2251 H 0.73017 0.96252 0.74268 0.0
H2252 H 0.86406 -0.00347 0.74881 0.0
H2253 H 0.63139 0.99301 0.74951 0.0
C2254 C 0.62893 0.01062 0.75342 0.0
C2255 C 0.6658 0.02042 0.75527 0.0
C2256 C 0.8347 0.98907 0.74738 0.0
C2257 C 0.72998 6e-05 0.75062 0.0
C2258 C 0.86663 0.9789 0.7454 0.0
C2259 C 0.82983 0.96908 0.74386 0.0
C2260 C 0.76551 0.98945 0.74784 0.0
C2261 C 0.76072 0.96985 0.74387 0.0
C2262 C 0.66079 0.00045 0.7511 0.0
C2263 C 0.73491 0.01964 0.75509 0.0
N2264 N 0.73086 0.97985 0.74591 0.0
N2265 N 0.76469 0.00965 0.75276 0.0
H2266 H 0.97946 0.71199 0.7579 0.0
H2267 H 0.01933 0.77711 0.73909 0.0
H2268 H 0.16731 0.72875 0.75371 0.0
H2269 H 0.83103 0.76119 0.74986 0.0
H2270 H 0.07339 0.75927 0.74275 0.0
H2271 H 0.92389 0.72978 0.75418 0.0
C2272 C 0.00916 0.71941 0.75637 0.0
C2273 C 0.07835 0.71885 0.75613 0.0
C2274 C 0.02024 0.75966 0.74427 0.0
C2275 C 0.01465 0.73925 0.75162 0.0
C2276 C 0.98911 0.76986 0.74208 0.0
C2277 C 0.9203 0.77069 0.74421 0.0
C2278 C 0.98254 0.75016 0.74861 0.0
C2279 C 0.88412 0.76096 0.74806 0.0
C2280 C 0.97724 0.72957 0.75418 0.0
C2281 C 0.11396 0.72876 0.75405 0.0
N2282 N 0.91574 0.75109 0.7502 0.0
N2283 N 0.08167 0.73854 0.75178 0.0
H2284 H 0.77328 0.71251 0.9913 0.0
H2285 H 0.73558 0.77754 0.01174 0.0
H2286 H 0.5859 0.72926 0.99767 0.0
H2287 H 0.92312 0.76147 0.00033 0.0
H2288 H 0.68081 0.75977 0.00787 0.0
H2289 H 0.82921 0.73025 0.99495 0.0
C2290 C 0.74374 0.71992 0.99329 0.0
C2291 C 0.67459 0.71937 0.99419 0.0
C2292 C 0.73394 0.76011 0.00626 0.0
C2293 C 0.73875 0.73972 0.99862 0.0
C2294 C 0.76548 0.77027 0.00857 0.0
C2295 C 0.83429 0.77103 0.00633 0.0
C2296 C 0.77124 0.75059 0.00168 0.0
C2297 C 0.87006 0.76128 0.00223 0.0
C2298 C 0.77588 0.73005 0.99544 0.0
C2299 C 0.6392 0.72927 0.99683 0.0
N2300 N 0.83804 0.75146 0.99997 0.0
N2301 N 0.67174 0.73903 0.99905 0.0
H2302 H 0.07715 0.51082 0.75466 0.0
H2303 H 0.42175 0.47881 0.74591 0.0
H2304 H 0.26698 0.52704 0.75669 0.0
H2305 H 0.23206 0.46253 0.74457 0.0
H2306 H 0.36569 0.49661 0.74933 0.0
H2307 H 0.1331 0.49301 0.75121 0.0
C2308 C 0.13052 0.51065 0.75457 0.0
C2309 C 0.16731 0.52047 0.75596 0.0
C2310 C 0.33639 0.48914 0.74821 0.0
C2311 C 0.23163 0.5001 0.75179 0.0
C2312 C 0.36837 0.47896 0.74615 0.0
C2313 C 0.33167 0.46913 0.74496 0.0
C2314 C 0.26722 0.48949 0.74909 0.0
C2315 C 0.26255 0.46987 0.74546 0.0
C2316 C 0.16245 0.50047 0.75249 0.0
C2317 C 0.23642 0.51971 0.75564 0.0
N2318 N 0.23264 0.47986 0.74754 0.0
N2319 N 0.26627 0.50971 0.75353 0.0
H2320 H 0.43201 0.76113 0.50068 0.0
H2321 H 0.08776 0.72877 0.49682 0.0
H2322 H 0.24217 0.77659 0.51108 0.0
H2323 H 0.27692 0.71242 0.49291 0.0
H2324 H 0.14429 0.74649 0.50049 0.0
H2325 H 0.37674 0.74321 0.49706 0.0
C2326 C 0.37889 0.76076 0.5024 0.0
C2327 C 0.3418 0.77041 0.50617 0.0
C2328 C 0.17343 0.73903 0.49877 0.0
C2329 C 0.27832 0.74996 0.50178 0.0
C2330 C 0.14114 0.7289 0.49655 0.0
C2331 C 0.17753 0.71906 0.49456 0.0
C2332 C 0.24265 0.73936 0.49895 0.0
C2333 C 0.2467 0.71977 0.49442 0.0
C2334 C 0.34736 0.75053 0.50024 0.0
C2335 C 0.27301 0.76941 0.50814 0.0
N2336 N 0.27699 0.72974 0.49663 0.0
N2337 N 0.2436 0.7594 0.50583 0.0
H2338 H 0.82787 0.47868 0.50476 0.0
H2339 H 0.17188 0.51089 0.49612 0.0
H2340 H 0.01792 0.46252 0.50588 0.0
H2341 H 0.98193 0.52707 0.49449 0.0
H2342 H 0.11614 0.49306 0.4995 0.0
H2343 H 0.88351 0.49653 0.5015 0.0
C2344 C 0.88124 0.47887 0.5045 0.0
C2345 C 0.91817 0.46906 0.50559 0.0
C2346 C 0.0867 0.50051 0.49833 0.0
C2347 C 0.98214 0.48947 0.50166 0.0
C2348 C 0.1185 0.5107 0.4963 0.0
C2349 C 0.08164 0.52052 0.49501 0.0
C2350 C 0.01753 0.50012 0.49908 0.0
C2351 C 0.01253 0.51974 0.49544 0.0
C2352 C 0.91298 0.48907 0.50254 0.0
C2353 C 0.98726 0.46985 0.50507 0.0
N2354 N 0.98279 0.50973 0.49749 0.0
N2355 N 0.01693 0.47987 0.50309 0.0
H2356 H 0.57751 0.51133 0.25464 0.0
H2357 H 0.92112 0.47899 0.24624 0.0
H2358 H 0.76764 0.52745 0.25643 0.0
H2359 H 0.73077 0.46294 0.24448 0.0
H2360 H 0.86576 0.49686 0.24974 0.0
H2361 H 0.63305 0.49348 0.25137 0.0
C2362 C 0.63088 0.51113 0.25452 0.0
C2363 C 0.66786 0.52094 0.25581 0.0
C2364 C 0.83617 0.48942 0.24852 0.0
C2365 C 0.73174 0.50051 0.25186 0.0
C2366 C 0.86775 0.47921 0.24642 0.0
C2367 C 0.83065 0.46943 0.24505 0.0
C2368 C 0.76701 0.48986 0.24925 0.0
C2369 C 0.76157 0.47025 0.24549 0.0
C2370 C 0.66258 0.50093 0.25256 0.0
C2371 C 0.73696 0.52013 0.25547 0.0
N2372 N 0.73206 0.48028 0.2476 0.0
N2373 N 0.7666 0.51011 0.25347 0.0
H2374 H 0.92283 0.26081 0.505 0.0
H2375 H 0.5793 0.22851 0.49564 0.0
H2376 H 0.73262 0.27691 0.50633 0.0
H2377 H 0.7695 0.2124 0.49431 0.0
H2378 H 0.63474 0.24636 0.49925 0.0
H2379 H 0.86739 0.24295 0.50152 0.0
C2380 C 0.86947 0.26061 0.50474 0.0
C2381 C 0.83243 0.27041 0.50596 0.0
C2382 C 0.6643 0.23891 0.4981 0.0
C2383 C 0.76868 0.24998 0.50176 0.0
C2384 C 0.63266 0.22871 0.49593 0.0
C2385 C 0.66969 0.21891 0.49466 0.0
C2386 C 0.73344 0.23933 0.49902 0.0
C2387 C 0.73877 0.21971 0.49524 0.0
C2388 C 0.83783 0.2504 0.50265 0.0
C2389 C 0.76335 0.2696 0.50543 0.0
N2390 N 0.76834 0.22974 0.49743 0.0
N2391 N 0.73378 0.25957 0.50332 0.0
H2392 H 0.52347 0.27765 0.74297 0.0
H2393 H 0.48355 0.21213 0.75542 0.0
H2394 H 0.33521 0.26094 0.74542 0.0
H2395 H 0.67196 0.22878 0.75277 0.0
H2396 H 0.42862 0.22995 0.7519 0.0
H2397 H 0.57857 0.25982 0.74598 0.0
C2398 C 0.49358 0.27024 0.74399 0.0
C2399 C 0.42441 0.27083 0.74396 0.0
C2400 C 0.48196 0.22971 0.75215 0.0
C2401 C 0.4876 0.25034 0.7476 0.0
C2402 C 0.51352 0.21953 0.75423 0.0
C2403 C 0.58267 0.21893 0.75441 0.0
C2404 C 0.51965 0.2394 0.75019 0.0
C2405 C 0.61861 0.22883 0.75278 0.0
C2406 C 0.52522 0.26004 0.74578 0.0
C2407 C 0.38856 0.26091 0.74533 0.0
N2408 N 0.58663 0.23866 0.75068 0.0
N2409 N 0.42061 0.25108 0.74718 0.0
H2410 H 0.67201 0.01058 0.49698 0.0
H2411 H 0.32731 0.97854 0.50485 0.0
H2412 H 0.48229 0.02684 0.49539 0.0
H2413 H 0.51699 0.96229 0.50725 0.0
H2414 H 0.38339 -0.00365 0.50172 0.0
H2415 H 0.61599 0.99277 0.50038 0.0
C2416 C 0.61863 0.01042 0.49718 0.0
C2417 C 0.5819 0.02025 0.49588 0.0
C2418 C 0.41269 0.98888 0.50302 0.0
C2419 C 0.5175 -0.00012 0.49997 0.0
C2420 C 0.38069 0.9787 0.5049 0.0
C2421 C 0.41739 0.96888 0.50631 0.0
C2422 C 0.48188 0.98925 0.50252 0.0
C2423 C 0.48651 0.96963 0.50619 0.0
C2424 C 0.58667 0.00024 0.49922 0.0
C2425 C 0.51279 0.0195 0.49634 0.0
N2426 N 0.51645 0.97963 0.50426 0.0
N2427 N 0.48291 0.0095 0.49839 0.0
H2428 H 0.66805 0.72921 0.25496 0.0
H2429 H 0.32298 0.76129 0.25016 0.0
H2430 H 0.4791 0.71275 0.25813 0.0
H2431 H 0.51257 0.77696 0.24061 0.0
H2432 H 0.37878 0.74343 0.254 0.0
H2433 H 0.61124 0.74692 0.25143 0.0
C2434 C 0.61467 0.72931 0.25511 0.0
C2435 C 0.57841 0.71945 0.25683 0.0
C2436 C 0.40801 0.75079 0.25097 0.0
C2437 C 0.513 0.73972 0.25258 0.0
C2438 C 0.37617 0.76099 0.24868 0.0
C2439 C 0.41302 0.77067 0.24507 0.0
C2440 C 0.47712 0.7503 0.24971 0.0
C2441 C 0.48192 0.76975 0.24341 0.0
C2442 C 0.58222 0.73943 0.25296 0.0
C2443 C 0.50923 0.72012 0.25682 0.0
N2444 N 0.51163 0.75977 0.24583 0.0
N2445 N 0.47881 0.73008 0.25468 0.0
H2446 H 0.52188 0.46251 0.00812 0.0
H2447 H 0.47941 0.52777 0.99199 0.0
H2448 H 0.33287 0.47888 0.00365 0.0
H2449 H 0.6684 0.51139 0.99657 0.0
H2450 H 0.42511 0.5099 0.99564 0.0
H2451 H 0.57618 0.48035 0.00413 0.0
C2452 C 0.49165 0.46986 0.00645 0.0
C2453 C 0.42252 0.46917 0.00622 0.0
C2454 C 0.47844 0.51021 0.99576 0.0
C2455 C 0.48482 0.48966 0.00144 0.0
C2456 C 0.50965 0.52041 0.9936 0.0
C2457 C 0.57876 0.52111 0.994 0.0
C2458 C 0.51647 0.50059 0.9984 0.0
C2459 C 0.61507 0.51127 0.99613 0.0
C2460 C 0.52285 0.48005 0.0041 0.0
C2461 C 0.38621 0.479 0.00398 0.0
N2462 N 0.58343 0.50142 0.99834 0.0
N2463 N 0.41785 0.48884 0.00161 0.0
H2464 H 0.24402 0.14592 0.2413 0.0
H2465 H 0.00693 0.09341 0.24161 0.0
H2466 H 0.03576 0.14831 0.25577 0.0
H2467 H 0.21517 0.09107 0.25619 0.0
H2468 H 0.01649 0.11365 0.24178 0.0
H2469 H 0.23448 0.12569 0.24174 0.0
C2470 C 0.19637 0.14219 0.24456 0.0
C2471 C 0.14063 0.14877 0.24855 0.0
C2472 C 0.05994 0.10867 0.24501 0.0
C2473 C 0.12932 0.12575 0.24884 0.0
C2474 C 0.05457 0.09716 0.24483 0.0
C2475 C 0.1103 0.09059 0.24893 0.0
C2476 C 0.12163 0.1136 0.24892 0.0
C2477 C 0.17088 0.09584 0.25308 0.0
C2478 C 0.19102 0.13067 0.24489 0.0
C2479 C 0.08006 0.14353 0.25275 0.0
N2480 N 0.17504 0.10705 0.25282 0.0
N2481 N 0.07591 0.13231 0.25263 0.0
H2482 H 0.21875 0.14856 0.99396 0.0
H2483 H 0.03295 0.09071 0.99426 0.0
H2484 H 0.01093 0.14569 0.00886 0.0
H2485 H 0.24073 0.0937 0.00916 0.0
H2486 H 0.02398 0.11089 0.994 0.0
H2487 H 0.22747 0.1284 0.9939 0.0
C2488 C 0.17487 0.14368 0.99712 0.0
C2489 C 0.11395 0.14878 0.00143 0.0
C2490 C 0.07145 0.10711 0.99735 0.0
C2491 C 0.12374 0.12576 0.00127 0.0
C2492 C 0.07676 0.09562 0.99738 0.0
C2493 C 0.13775 0.09056 0.00175 0.0
C2494 C 0.12769 0.11357 0.00134 0.0
C2495 C 0.19278 0.09729 0.00581 0.0
C2496 C 0.18004 0.13219 0.99721 0.0
C2497 C 0.05883 0.14207 0.00556 0.0
N2498 N 0.18653 0.10849 0.00538 0.0
N2499 N 0.06495 0.13087 0.00525 0.0
H2500 H 0.78212 0.89848 0.74581 0.0
H2501 H 0.97334 0.84114 0.74686 0.0
H2502 H 0.98983 0.89618 0.76132 0.0
H2503 H 0.76471 0.84354 0.76066 0.0
H2504 H 0.98054 0.86134 0.74712 0.0
H2505 H 0.77515 0.87829 0.74614 0.0
C2506 C 0.82633 0.89372 0.74921 0.0
C2507 C 0.88672 0.89898 0.75354 0.0
C2508 C 0.93329 0.85743 0.75015 0.0
C2509 C 0.87897 0.87594 0.75382 0.0
C2510 C 0.92901 0.84593 0.74989 0.0
C2511 C 0.86827 0.84069 0.75374 0.0
C2512 C 0.87626 0.86373 0.75391 0.0
C2513 C 0.81251 0.84727 0.75771 0.0
C2514 C 0.82216 0.88221 0.74952 0.0
C2515 C 0.94231 0.89243 0.75798 0.0
N2516 N 0.81774 0.85848 0.75753 0.0
N2517 N 0.9372 0.88121 0.75786 0.0
H2518 H 0.75529 0.89632 0.9898 0.0
H2519 H 0.99233 0.84373 0.99015 0.0
H2520 H 0.96325 0.89852 0.00499 0.0
H2521 H 0.78356 0.84141 0.00377 0.0
H2522 H 0.98267 0.86396 0.98995 0.0
H2523 H 0.76477 0.87608 0.98935 0.0
C2524 C 0.80286 0.89254 0.99301 0.0
C2525 C 0.85851 0.89907 0.99751 0.0
C2526 C 0.93911 0.85899 0.99301 0.0
C2527 C 0.86976 0.87607 0.99678 0.0
C2528 C 0.94453 0.84748 0.99303 0.0
C2529 C 0.88871 0.84093 0.99705 0.0
C2530 C 0.87729 0.86392 0.99664 0.0
C2531 C 0.82792 0.84618 0.00076 0.0
C2532 C 0.80818 0.88103 0.99283 0.0
C2533 C 0.919 0.89378 0.00161 0.0
N2534 N 0.82374 0.85739 0.00035 0.0
N2535 N 0.92311 0.88258 0.00102 0.0
H2536 H 0.00783 0.59349 0.74024 0.0
H2537 H 0.24491 0.64603 0.74068 0.0
H2538 H 0.21575 0.5911 0.75535 0.0
H2539 H 0.03648 0.6483 0.75495 0.0
H2540 H 0.2355 0.62578 0.74075 0.0
H2541 H 0.01762 0.61372 0.7403 0.0
C2542 C 0.05546 0.59722 0.74355 0.0
C2543 C 0.11101 0.59064 0.74786 0.0
C2544 C 0.19198 0.63074 0.74392 0.0
C2545 C 0.12262 0.61365 0.7477 0.0
C2546 C 0.19726 0.64226 0.7438 0.0
C2547 C 0.14144 0.64881 0.74787 0.0
C2548 C 0.13028 0.6258 0.74773 0.0
C2549 C 0.08086 0.64354 0.75188 0.0
C2550 C 0.06096 0.60874 0.74365 0.0
C2551 C 0.17159 0.59588 0.75209 0.0
N2552 N 0.07679 0.63233 0.75156 0.0
N2553 N 0.17589 0.60709 0.75177 0.0
H2554 H 0.01153 0.64635 0.50852 0.0
H2555 H 0.24437 0.59335 0.50885 0.0
H2556 H 0.2199 0.64824 0.49391 0.0
H2557 H 0.03619 0.59138 0.49394 0.0
H2558 H 0.23631 0.61359 0.50839 0.0
H2559 H 0.01941 0.6261 0.50817 0.0
C2560 C 0.05885 0.6425 0.50525 0.0
C2561 C 0.11512 0.64895 0.5012 0.0
C2562 C 0.19254 0.6087 0.50515 0.0
C2563 C 0.12453 0.62591 0.50103 0.0
C2564 C 0.19704 0.59718 0.50549 0.0
C2565 C 0.14089 0.59071 0.50139 0.0
C2566 C 0.13128 0.61375 0.50108 0.0
C2567 C 0.08077 0.59607 0.49706 0.0
C2568 C 0.06326 0.63098 0.50497 0.0
C2569 C 0.17523 0.64357 0.49699 0.0
N2570 N 0.07743 0.60729 0.49717 0.0
N2571 N 0.17846 0.63235 0.49717 0.0
H2572 H 0.96865 0.34109 0.2434 0.0
H2573 H 0.78039 0.39881 0.24285 0.0
H2574 H 0.76057 0.34384 0.25792 0.0
H2575 H 0.98829 0.39607 0.25773 0.0
H2576 H 0.77235 0.37862 0.24249 0.0
H2577 H 0.9766 0.36127 0.24277 0.0
C2578 C 0.92455 0.34594 0.24635 0.0
C2579 C 0.86381 0.34081 0.25076 0.0
C2580 C 0.81965 0.38245 0.24584 0.0
C2581 C 0.87268 0.36385 0.24992 0.0
C2582 C 0.82443 0.39395 0.24593 0.0
C2583 C 0.88515 0.3991 0.25037 0.0
C2584 C 0.87617 0.37605 0.24983 0.0
C2585 C 0.94051 0.39242 0.25435 0.0
C2586 C 0.92927 0.35745 0.2461 0.0
C2587 C 0.80837 0.34749 0.25457 0.0
N2588 N 0.93477 0.38121 0.25388 0.0
N2589 N 0.81406 0.3587 0.25395 0.0
H2590 H 0.99301 0.34338 0.49085 0.0
H2591 H 0.75725 0.39606 0.49071 0.0
H2592 H 0.78484 0.34118 0.50561 0.0
H2593 H 0.96568 0.3983 0.50502 0.0
H2594 H 0.76629 0.37582 0.49111 0.0
H2595 H 0.98394 0.36362 0.49098 0.0
C2596 C 0.94547 0.34715 0.4941 0.0
C2597 C 0.88962 0.34062 0.49826 0.0
C2598 C 0.8099 0.38077 0.49422 0.0
C2599 C 0.87886 0.36365 0.49821 0.0
C2600 C 0.80484 0.39229 0.49391 0.0
C2601 C 0.86076 0.39884 0.49788 0.0
C2602 C 0.8715 0.37581 0.49812 0.0
C2603 C 0.92124 0.39355 0.50201 0.0
C2604 C 0.94039 0.35867 0.49426 0.0
C2605 C 0.82921 0.34592 0.50245 0.0
N2606 N 0.92511 0.38233 0.50187 0.0
N2607 N 0.82533 0.35714 0.50217 0.0
H2608 H 0.50695 0.0936 0.74245 0.0
H2609 H 0.74602 0.14582 0.74201 0.0
H2610 H 0.71492 0.09098 0.7573 0.0
H2611 H 0.53801 0.14842 0.75678 0.0
H2612 H 0.73579 0.12559 0.74262 0.0
H2613 H 0.51744 0.11382 0.74269 0.0
C2614 C 0.55473 0.09728 0.74576 0.0
C2615 C 0.61011 0.09064 0.7499 0.0
C2616 C 0.69256 0.13062 0.7458 0.0
C2617 C 0.62251 0.11364 0.74996 0.0
C2618 C 0.6983 0.14213 0.74537 0.0
C2619 C 0.64282 0.14877 0.74939 0.0
C2620 C 0.63072 0.12577 0.74986 0.0
C2621 C 0.58213 0.14359 0.75373 0.0
C2622 C 0.56062 0.10879 0.74597 0.0
C2623 C 0.67089 0.09581 0.75416 0.0
N2624 N 0.57759 0.13239 0.75369 0.0
N2625 N 0.67558 0.10702 0.75391 0.0
H2626 H 0.50865 0.14593 0.5088 0.0
H2627 H 0.74423 0.09324 0.50926 0.0
H2628 H 0.71695 0.14813 0.49425 0.0
H2629 H 0.53585 0.09101 0.49487 0.0
H2630 H 0.73532 0.11348 0.50867 0.0
H2631 H 0.51765 0.1257 0.5086 0.0
C2632 C 0.5562 0.14215 0.50557 0.0
C2633 C 0.61211 0.14869 0.5015 0.0
C2634 C 0.69169 0.10853 0.50557 0.0
C2635 C 0.62279 0.12566 0.50148 0.0
C2636 C 0.69668 0.09701 0.50599 0.0
C2637 C 0.64072 0.09047 0.50208 0.0
C2638 C 0.63014 0.1135 0.5016 0.0
C2639 C 0.5803 0.09576 0.49785 0.0
C2640 C 0.56124 0.13063 0.50538 0.0
C2641 C 0.67253 0.14339 0.49734 0.0
N2642 N 0.5765 0.10697 0.49788 0.0
N2643 N 0.67638 0.13217 0.4976 0.0
H2644 H 0.49479 0.89619 0.26047 0.0
H2645 H 0.25851 0.84354 0.26043 0.0
H2646 H 0.28652 0.89836 0.24582 0.0
H2647 H 0.46685 0.84124 0.24604 0.0
H2648 H 0.26798 0.86377 0.26048 0.0
H2649 H 0.4857 0.87595 0.26052 0.0
C2650 C 0.44723 0.89241 0.25729 0.0
C2651 C 0.39137 0.89893 0.25308 0.0
C2652 C 0.3115 0.85881 0.25727 0.0
C2653 C 0.38058 0.87591 0.25335 0.0
C2654 C 0.30619 0.8473 0.25733 0.0
C2655 C 0.36194 0.84074 0.25317 0.0
C2656 C 0.37316 0.86376 0.25341 0.0
C2657 C 0.42255 0.84601 0.24918 0.0
C2658 C 0.44214 0.88089 0.25724 0.0
C2659 C 0.33092 0.89363 0.249 0.0
N2660 N 0.42665 0.85722 0.24953 0.0
N2661 N 0.32703 0.88241 0.24938 0.0
H2662 H 0.25566 0.89594 0.4905 0.0
H2663 H 0.49294 0.84344 0.49028 0.0
H2664 H 0.4635 0.8982 0.50581 0.0
H2665 H 0.28471 0.84096 0.50474 0.0
H2666 H 0.48294 0.86366 0.49042 0.0
H2667 H 0.26518 0.8757 0.49026 0.0
C2668 C 0.30321 0.89218 0.49379 0.0
C2669 C 0.35884 0.89872 0.49824 0.0
C2670 C 0.43956 0.85866 0.4936 0.0
C2671 C 0.37011 0.87571 0.49773 0.0
C2672 C 0.44517 0.84715 0.49343 0.0
C2673 C 0.3896 0.84055 0.49756 0.0
C2674 C 0.3778 0.86356 0.49753 0.0
C2675 C 0.32887 0.84577 0.50162 0.0
C2676 C 0.30854 0.88066 0.49373 0.0
C2677 C 0.41929 0.89344 0.50245 0.0
N2678 N 0.32448 0.85698 0.50137 0.0
N2679 N 0.42342 0.88223 0.50195 0.0
H2680 H 0.74298 0.6466 0.24121 0.0
H2681 H 0.50715 0.59391 0.24106 0.0
H2682 H 0.53455 0.64878 0.25554 0.0
H2683 H 0.71519 0.59167 0.25604 0.0
H2684 H 0.51638 0.61415 0.24116 0.0
H2685 H 0.73399 0.62635 0.24145 0.0
C2686 C 0.69541 0.64282 0.24438 0.0
C2687 C 0.63947 0.64934 0.24841 0.0
C2688 C 0.55987 0.6092 0.24449 0.0
C2689 C 0.6288 0.62632 0.24847 0.0
C2690 C 0.55469 0.59768 0.24436 0.0
C2691 C 0.61045 0.59114 0.2486 0.0
C2692 C 0.62141 0.61416 0.2485 0.0
C2693 C 0.67088 0.59642 0.25283 0.0
C2694 C 0.69038 0.63129 0.2446 0.0
C2695 C 0.57901 0.64404 0.25249 0.0
N2696 N 0.67488 0.60764 0.25253 0.0
N2697 N 0.57518 0.63283 0.25227 0.0
H2698 H 0.7186 0.64901 0.99566 0.0
H2699 H 0.53005 0.59149 0.99605 0.0
H2700 H 0.51075 0.64648 0.01077 0.0
H2701 H 0.7381 0.59413 0.01078 0.0
H2702 H 0.52198 0.61167 0.9963 0.0
H2703 H 0.72644 0.62884 0.99602 0.0
C2704 C 0.67453 0.6442 0.99897 0.0
C2705 C 0.61384 0.6494 0.00317 0.0
C2706 C 0.5693 0.60782 0.99953 0.0
C2707 C 0.62262 0.62637 0.0035 0.0
C2708 C 0.5741 0.59632 0.99926 0.0
C2709 C 0.63493 0.59116 0.00338 0.0
C2710 C 0.6259 0.61418 0.00356 0.0
C2711 C 0.69028 0.5978 0.0076 0.0
C2712 C 0.67921 0.63271 0.9993 0.0
C2713 C 0.55847 0.64278 0.00752 0.0
N2714 N 0.68454 0.60901 0.00743 0.0
N2715 N 0.56408 0.63157 0.00742 0.0
H2716 H 0.49366 0.3963 0.76093 0.0
H2717 H 0.25857 0.34349 0.7609 0.0
H2718 H 0.28518 0.39844 0.74664 0.0
H2719 H 0.46682 0.34146 0.74615 0.0
H2720 H 0.26728 0.36374 0.76104 0.0
H2721 H 0.48473 0.37606 0.7609 0.0
C2722 C 0.44609 0.39251 0.75782 0.0
C2723 C 0.39013 0.39902 0.75372 0.0
C2724 C 0.31092 0.35883 0.75773 0.0
C2725 C 0.37951 0.376 0.75389 0.0
C2726 C 0.30604 0.34731 0.75772 0.0
C2727 C 0.36201 0.34082 0.75344 0.0
C2728 C 0.37236 0.36385 0.75382 0.0
C2729 C 0.42234 0.34616 0.74938 0.0
C2730 C 0.44108 0.38099 0.75772 0.0
C2731 C 0.32964 0.39371 0.74973 0.0
N2732 N 0.42602 0.35738 0.7498 0.0
N2733 N 0.32584 0.3825 0.75005 0.0
H2734 H 0.47088 0.39877 0.0069 0.0
H2735 H 0.2833 0.34111 0.00627 0.0
H2736 H 0.26313 0.39603 0.99175 0.0
H2737 H 0.49145 0.34384 0.99182 0.0
H2738 H 0.27511 0.36128 0.00642 0.0
H2739 H 0.47923 0.3786 0.00684 0.0
C2740 C 0.42694 0.39392 0.00365 0.0
C2741 C 0.36614 0.39905 0.99932 0.0
C2742 C 0.3225 0.35745 0.00319 0.0
C2743 C 0.37549 0.37603 0.99935 0.0
C2744 C 0.32736 0.34596 0.00322 0.0
C2745 C 0.38823 0.34082 0.99902 0.0
C2746 C 0.37905 0.36384 0.99929 0.0
C2747 C 0.44359 0.34749 0.99504 0.0
C2748 C 0.4319 0.38242 0.0035 0.0
C2749 C 0.31094 0.39238 0.99508 0.0
N2750 N 0.43777 0.3587 0.9954 0.0
N2751 N 0.31684 0.38118 0.99534 0.0
H2752 H 0.05162 0.03885 0.34495 0.0
H2753 H 0.6983 0.03868 0.40665 0.0
H2754 H 0.86688 0.03954 0.308 0.0
H2755 H 0.88305 0.03934 0.4436 0.0
H2756 H 0.75921 0.03808 0.37034 0.0
H2757 H 0.9907 0.03813 0.38125 0.0
C2758 C 0.99825 0.03879 0.34445 0.0
C2759 C 0.96433 0.03926 0.32338 0.0
C2760 C 0.78643 0.03832 0.38639 0.0
C2761 C 0.89424 0.03847 0.36492 0.0
C2762 C 0.75167 0.03864 0.40715 0.0
C2763 C 0.78559 0.03907 0.42823 0.0
C2764 C 0.85568 0.03843 0.38667 0.0
C2765 C 0.8548 0.03904 0.42778 0.0
C2766 C 0.96348 0.0384 0.3652 0.0
C2767 C 0.89512 0.0392 0.32382 0.0
N2768 N 0.88751 0.03875 0.40734 0.0
N2769 N 0.86241 0.03884 0.34425 0.0
H2770 H 0.1997 0.20056 0.34396 0.0
H2771 H 0.5534 0.20039 0.40547 0.0
H2772 H 0.3842 0.19987 0.30689 0.0
H2773 H 0.36886 0.1997 0.44251 0.0
H2774 H 0.49228 0.2011 0.3692 0.0
H2775 H 0.26085 0.20116 0.38023 0.0
C2776 C 0.25307 0.2006 0.34342 0.0
C2777 C 0.28685 0.20016 0.32233 0.0
C2778 C 0.46515 0.20083 0.38526 0.0
C2779 C 0.35721 0.2008 0.36384 0.0
C2780 C 0.50004 0.20044 0.406 0.0
C2781 C 0.46623 0.19998 0.42708 0.0
C2782 C 0.39591 0.20076 0.38557 0.0
C2783 C 0.39702 0.20004 0.42667 0.0
C2784 C 0.28797 0.20091 0.36416 0.0
C2785 C 0.35606 0.20019 0.32274 0.0
N2786 N 0.3642 0.2004 0.40626 0.0
N2787 N 0.3889 0.20048 0.34315 0.0
H2788 H 0.8872 0.20039 0.80562 0.0
H2789 H 0.86753 0.20009 0.94351 0.0
H2790 H 0.70439 0.20082 0.84372 0.0
H2791 H 0.05033 0.20048 0.9054 0.0
H2792 H 0.80699 0.20087 0.90716 0.0
H2793 H 0.94774 0.20096 0.84199 0.0
C2794 C 0.85974 0.20065 0.82163 0.0
C2795 C 0.79054 0.20055 0.8216 0.0
C2796 C 0.86034 0.20083 0.90674 0.0
C2797 C 0.85971 0.20116 0.86336 0.0
C2798 C 0.89499 0.20038 0.9275 0.0
C2799 C 0.96418 0.20021 0.92752 0.0
C2800 C 0.89501 0.20108 0.88579 0.0
C2801 C 0.99704 0.20061 0.90624 0.0
C2802 C 0.89439 0.20097 0.8424 0.0
C2803 C 0.75769 0.2009 0.84289 0.0
N2804 N 0.96215 0.20099 0.88624 0.0
N2805 N 0.79257 0.20115 0.8629 0.0
H2806 H 0.38578 0.03928 0.94466 0.0
H2807 H 0.36365 0.03927 0.80682 0.0
H2808 H 0.20232 0.03868 0.90693 0.0
H2809 H 0.54713 0.03868 0.84454 0.0
H2810 H 0.30375 0.03858 0.8433 0.0
H2811 H 0.4457 0.03859 0.90818 0.0
C2812 C 0.35805 0.03896 0.92871 0.0
C2813 C 0.28886 0.03904 0.92887 0.0
C2814 C 0.35711 0.03855 0.84361 0.0
C2815 C 0.35729 0.03829 0.88699 0.0
C2816 C 0.39139 0.03895 0.82277 0.0
C2817 C 0.46057 0.03904 0.82261 0.0
C2818 C 0.39216 0.03829 0.86449 0.0
C2819 C 0.49381 0.03861 0.84382 0.0
C2820 C 0.39234 0.03856 0.90787 0.0
C2821 C 0.25563 0.03861 0.90766 0.0
N2822 N 0.4593 0.03829 0.86389 0.0
N2823 N 0.29015 0.03829 0.88759 0.0
H2824 H 0.11349 0.94986 0.55621 0.0
H2825 H 0.13285 0.94977 0.6941 0.0
H2826 H 0.29617 0.95027 0.59442 0.0
H2827 H 0.9501 0.95006 0.65593 0.0
H2828 H 0.19344 0.95043 0.65777 0.0
H2829 H 0.05282 0.95042 0.59254 0.0
C2830 C 0.1409 0.95011 0.57223 0.0
C2831 C 0.21008 0.95001 0.57225 0.0
C2832 C 0.14009 0.95039 0.65733 0.0
C2833 C 0.14079 0.95062 0.61396 0.0
C2834 C 0.10541 0.95001 0.67808 0.0
C2835 C 0.03623 0.94985 0.67807 0.0
C2836 C 0.10545 0.95058 0.63636 0.0
C2837 C 0.00339 0.95018 0.65678 0.0
C2838 C 0.10617 0.95043 0.59299 0.0
C2839 C 0.24287 0.95035 0.59356 0.0
N2840 N 0.0383 0.9505 0.63679 0.0
N2841 N 0.20793 0.95061 0.61354 0.0
H2842 H 0.62099 0.78915 0.69391 0.0
H2843 H 0.64085 0.78955 0.55606 0.0
H2844 H 0.804 0.78921 0.65593 0.0
H2845 H 0.45809 0.78871 0.59414 0.0
H2846 H 0.70146 0.78877 0.59239 0.0
H2847 H 0.56069 0.78833 0.65754 0.0
C2848 C 0.64857 0.78894 0.67793 0.0
C2849 C 0.71775 0.78926 0.678 0.0
C2850 C 0.64811 0.78871 0.59281 0.0
C2851 C 0.64878 0.78837 0.63621 0.0
C2852 C 0.6134 0.78915 0.57205 0.0
C2853 C 0.54419 0.7892 0.57203 0.0
C2854 C 0.61347 0.78836 0.61376 0.0
C2855 C 0.51139 0.78866 0.59331 0.0
C2856 C 0.61403 0.78847 0.65715 0.0
C2857 C 0.75072 0.78896 0.65673 0.0
N2858 N 0.54631 0.7883 0.6133 0.0
N2859 N 0.71593 0.78857 0.6367 0.0
H2860 H 0.30009 0.78851 0.15679 0.0
H2861 H 0.94715 0.78904 0.09472 0.0
H2862 H 0.11519 0.78952 0.19358 0.0
H2863 H 0.13229 0.78928 0.05803 0.0
H2864 H 0.00771 0.78814 0.13111 0.0
H2865 H 0.23932 0.78771 0.12046 0.0
C2866 C 0.24672 0.78849 0.15726 0.0
C2867 C 0.21272 0.7891 0.17829 0.0
C2868 C 0.03508 0.78834 0.11509 0.0
C2869 C 0.14278 0.78823 0.1367 0.0
C2870 C 1.00051 0.78883 0.09429 0.0
C2871 C 0.03466 0.78925 0.07327 0.0
C2872 C 0.10434 0.78827 0.1149 0.0
C2873 C 0.10385 0.78899 0.0738 0.0
C2874 C 0.21203 0.78806 0.13649 0.0
C2875 C 0.14351 0.78908 0.17779 0.0
N2876 N 0.13635 0.78855 0.09427 0.0
N2877 N 0.11087 0.78869 0.15734 0.0
H2878 H 0.8014 0.95064 0.09449 0.0
H2879 H 0.44833 0.95054 0.15632 0.0
H2880 H 0.61652 0.95014 0.0576 0.0
H2881 H 0.63324 0.94997 0.19319 0.0
H2882 H 0.50909 0.95125 0.11999 0.0
H2883 H 0.74062 0.95125 0.13082 0.0
C2884 C 0.74803 0.95072 0.09401 0.0
C2885 C 0.71402 0.95033 0.07295 0.0
C2886 C 0.53638 0.95101 0.13603 0.0
C2887 C 0.6441 0.95099 0.11452 0.0
C2888 C 0.5017 0.95062 0.1568 0.0
C2889 C 0.53573 0.95019 0.17785 0.0
C2890 C 0.60562 0.95096 0.13628 0.0
C2891 C 0.60492 0.95028 0.17738 0.0
C2892 C 0.71334 0.95105 0.11478 0.0
C2893 C 0.64482 0.95042 0.07342 0.0
N2894 N 0.63754 0.95063 0.15693 0.0
N2895 N 0.61219 0.95071 0.09386 0.0
H2896 H 0.86409 0.53992 0.80622 0.0
H2897 H 0.88219 0.54024 0.94412 0.0
H2898 H 0.04646 0.53944 0.84461 0.0
H2899 H 0.6998 0.53999 0.90574 0.0
H2900 H 0.94312 0.53949 0.90787 0.0
H2901 H 0.80312 0.53947 0.84249 0.0
C2902 C 0.89137 0.53968 0.82227 0.0
C2903 C 0.96056 0.53972 0.82236 0.0
C2904 C 0.88978 0.53956 0.90736 0.0
C2905 C 0.89089 0.53925 0.864 0.0
C2906 C 0.8549 0.53999 0.92807 0.0
C2907 C 0.78571 0.54018 0.92798 0.0
C2908 C 0.85533 0.53935 0.88636 0.0
C2909 C 0.75308 0.53984 0.90665 0.0
C2910 C 0.85646 0.53943 0.84299 0.0
C2911 C 0.99317 0.5394 0.8437 0.0
N2912 N 0.78818 0.53947 0.88671 0.0
N2913 N 0.95804 0.53921 0.86365 0.0
H2914 H 0.38394 0.70016 0.80667 0.0
H2915 H 0.36808 0.70041 0.94466 0.0
H2916 H 0.20206 0.70024 0.84532 0.0
H2917 H 0.54974 0.70072 0.9059 0.0
H2918 H 0.30644 0.70087 0.9085 0.0
H2919 H 0.44534 0.70088 0.84284 0.0
C2920 C 0.35684 0.70037 0.82276 0.0
C2921 C 0.28765 0.70013 0.82293 0.0
C2922 C 0.35978 0.70088 0.90789 0.0
C2923 C 0.35787 0.70093 0.86449 0.0
C2924 C 0.39507 0.70062 0.92855 0.0
C2925 C 0.46427 0.70053 0.92833 0.0
C2926 C 0.39382 0.70102 0.88681 0.0
C2927 C 0.49647 0.70081 0.90692 0.0
C2928 C 0.39201 0.70078 0.84342 0.0
C2929 C 0.25533 0.70042 0.84433 0.0
N2930 N 0.46098 0.70101 0.88703 0.0
N2931 N 0.29071 0.70078 0.86423 0.0
H2932 H 0.05607 0.70078 0.40535 0.0
H2933 H 0.69953 0.70066 0.34578 0.0
H2934 H 0.87326 0.70018 0.44343 0.0
H2935 H 0.88239 0.70029 0.30771 0.0
H2936 H 0.76229 0.70128 0.38173 0.0
H2937 H 0.99327 0.7014 0.36941 0.0
C2938 C 0.00274 0.70084 0.40618 0.0
C2939 C 0.96993 0.70042 0.42746 0.0
C2940 C 0.7887 0.7011 0.36551 0.0
C2941 C 0.89765 0.70109 0.38633 0.0
C2942 C 0.75286 0.70076 0.34496 0.0
C2943 C 0.7857 0.70042 0.32367 0.0
C2944 C 0.85793 0.70108 0.36481 0.0
C2945 C 0.85493 0.70053 0.32371 0.0
C2946 C 0.96688 0.70117 0.38563 0.0
C2947 C 0.90069 0.70048 0.42743 0.0
N2948 N 0.88868 0.70083 0.34394 0.0
N2949 N 0.86692 0.70079 0.4072 0.0
H2950 H 0.36524 0.53983 0.30642 0.0
H2951 H 0.38482 0.53946 0.44428 0.0
H2952 H 0.54805 0.5394 0.34455 0.0
H2953 H 0.20205 0.53903 0.40612 0.0
H2954 H 0.44541 0.53892 0.40794 0.0
H2955 H 0.3047 0.53903 0.34274 0.0
C2956 C 0.39271 0.53953 0.32243 0.0
C2957 C 0.46189 0.53969 0.32243 0.0
C2958 C 0.39206 0.5389 0.4075 0.0
C2959 C 0.39272 0.53881 0.36413 0.0
C2960 C 0.35737 0.53921 0.42826 0.0
C2961 C 0.28818 0.5393 0.42826 0.0
C2962 C 0.3574 0.53872 0.38654 0.0
C2963 C 0.25535 0.53895 0.40697 0.0
C2964 C 0.35805 0.53907 0.34318 0.0
C2965 C 0.49475 0.53927 0.34371 0.0
N2966 N 0.29026 0.53872 0.38697 0.0
N2967 N 0.45986 0.53889 0.3637 0.0
H2968 H 0.94843 0.45102 0.15569 0.0
H2969 H 0.30345 0.45077 0.09514 0.0
H2970 H 0.13216 0.4501 0.19323 0.0
H2971 H 0.11974 0.45017 0.05756 0.0
H2972 H 0.24154 0.45146 0.13124 0.0
H2973 H 0.01034 0.45164 0.11958 0.0
C2974 C 0.00179 0.45101 0.15636 0.0
C2975 C 0.03512 0.4505 0.17755 0.0
C2976 C 0.21476 0.45121 0.1151 0.0
C2977 C 0.10636 0.45117 0.13622 0.0
C2978 C 0.2501 0.45084 0.09446 0.0
C2979 C 0.21677 0.45041 0.07327 0.0
C2980 C 0.14552 0.45115 0.11459 0.0
C2981 C 0.14755 0.45048 0.07348 0.0
C2982 C 0.03713 0.45134 0.13572 0.0
C2983 C 0.10434 0.45047 0.17732 0.0
N2984 N 0.11427 0.45082 0.0938 0.0
N2985 N 0.13761 0.45078 0.15699 0.0
H2986 H 0.80218 0.28882 0.1561 0.0
H2987 H 0.44801 0.28911 0.0949 0.0
H2988 H 0.61797 0.28978 0.19332 0.0
H2989 H 0.63228 0.28954 0.05767 0.0
H2990 H 0.50939 0.28845 0.13112 0.0
H2991 H 0.74074 0.28818 0.11989 0.0
C2992 C 0.74881 0.28884 0.15668 0.0
C2993 C 0.7152 0.28936 0.1778 0.0
C2994 C 0.53641 0.28865 0.11503 0.0
C2995 C 0.64451 0.28867 0.13636 0.0
C2996 C 0.50137 0.289 0.09432 0.0
C2997 C 0.53502 0.28938 0.07319 0.0
C2998 C 0.60565 0.28868 0.11465 0.0
C2999 C 0.60423 0.28927 0.07354 0.0
C3000 C 0.71375 0.28849 0.13598 0.0
C3001 C 0.64599 0.2894 0.17746 0.0
N3002 N 0.63721 0.28895 0.09393 0.0
N3003 N 0.61299 0.28908 0.15707 0.0
H3004 H 0.95019 0.28915 0.59481 0.0
H3005 H 0.30481 0.28962 0.65569 0.0
H3006 H 0.13412 0.29 0.55742 0.0
H3007 H 0.12083 0.28977 0.6931 0.0
H3008 H 0.24318 0.28899 0.61952 0.0
H3009 H 0.01189 0.2886 0.63098 0.0
C3010 C 0.00354 0.28916 0.59418 0.0
C3011 C 0.037 0.28962 0.57303 0.0
C3012 C 0.21628 0.28912 0.63564 0.0
C3013 C 0.108 0.28904 0.61442 0.0
C3014 C 0.25146 0.28946 0.65632 0.0
C3015 C 0.21797 0.28975 0.67748 0.0
C3016 C 0.14703 0.28907 0.63608 0.0
C3017 C 0.14876 0.28957 0.6772 0.0
C3018 C 0.03876 0.28887 0.61486 0.0
C3019 C 0.10621 0.28966 0.57331 0.0
N3020 N 0.11564 0.28926 0.65684 0.0
N3021 N 0.13937 0.2894 0.59367 0.0
H3022 H 0.44809 0.4501 0.65607 0.0
H3023 H 0.8017 0.45023 0.5945 0.0
H3024 H 0.63272 0.4497 0.6931 0.0
H3025 H 0.61715 0.44949 0.55744 0.0
H3026 H 0.7406 0.45081 0.63078 0.0
H3027 H 0.50912 0.45065 0.61977 0.0
C3028 C 0.50145 0.45019 0.65659 0.0
C3029 C 0.53531 0.44986 0.67768 0.0
C3030 C 0.71345 0.45055 0.61471 0.0
C3031 C 0.60554 0.45044 0.63614 0.0
C3032 C 0.74833 0.45024 0.59397 0.0
C3033 C 0.71453 0.44981 0.57287 0.0
C3034 C 0.64421 0.45043 0.6144 0.0
C3035 C 0.64531 0.4498 0.57329 0.0
C3036 C 0.53629 0.45048 0.63584 0.0
C3037 C 0.60451 0.44994 0.67726 0.0
N3038 N 0.61249 0.45009 0.5937 0.0
N3039 N 0.63729 0.4502 0.65683 0.0
loop_
_geom_bond_atom_site_label_1
_geom_bond_atom_site_label_2
_geom_bond_distance
_geom_bond_site_symmetry_2
_ccdc_geom_bond_type
Co0 O2 2.143 . S
Co0 O8 2.074 . S
Co0 O11 2.093 . S
Co0 O24 2.097 . S
Co0 N41 2.151 . S
Co0 N49 2.214 . S
Co1 O2 2.169 . S
Co1 O7 2.070 . S
Co1 O17 2.050 1_455 S
Co1 O32 2.041 . S
Co1 N36 2.134 1_455 S
Co1 N57 2.246 1_455 S
O2 Co0 2.143 . S
O2 Co1 2.169 . S
C3 O4 1.278 . S
C3 O11 1.224 . S
O4 C3 1.278 . S
C5 O6 1.245 1_655 S
C5 O17 1.232 . S
O6 C5 1.245 1_455 S
O7 Co1 2.070 . S
O7 C33 1.269 . S
O8 Co0 2.074 . S
O8 C33 1.257 . S
H9 C34 0.930 . S
H10 C40 0.930 . S
O11 Co0 2.093 . S
O11 C3 1.224 . S
H12 C44 0.929 . S
H13 C46 0.930 . S
H14 C47 0.930 . S
H15 C45 0.929 . S
H16 C48 0.928 . S
O17 Co1 2.050 1_655 S
O17 C5 1.232 . S
H18 C37 0.929 . S
H19 C38 0.929 . S
H20 C50 0.931 . S
H21 C42 0.929 . S
H22 C51 0.930 . S
H23 C43 0.931 . S
O24 Co0 2.097 . S
O24 C52 1.214 . S
H25 C53 0.929 . S
H26 C54 0.929 . S
H27 C55 0.930 . S
H28 C56 0.929 . S
H29 C58 0.930 . S
H30 C35 0.930 . S
H31 C39 0.930 . S
O32 Co1 2.041 . S
O32 C52 1.234 . S
C33 O7 1.269 . S
C33 O8 1.257 . S
C34 H9 0.930 . S
C34 C37 1.388 . S
C34 C39 1.418 . S
C35 H30 0.930 . S
C35 C38 1.404 . S
C35 C39 1.353 . S
N36 Co1 2.134 1_655 S
N36 C37 1.397 . S
N36 C38 1.334 . S
C37 H18 0.929 . S
C37 C34 1.388 . S
C37 N36 1.397 . S
C38 H19 0.929 . S
C38 C35 1.404 . S
C38 N36 1.334 . S
C39 H31 0.930 . S
C39 C34 1.418 . S
C39 C35 1.353 . S
C40 H10 0.930 . S
C40 N41 1.330 . S
C40 C42 1.446 . S
N41 Co0 2.151 . S
N41 C40 1.330 . S
N41 C45 1.418 . S
C42 H21 0.929 . S
C42 C40 1.446 . S
C42 C43 1.332 . S
C43 H23 0.931 . S
C43 C42 1.332 . S
C43 C44 1.267 . S
C44 H12 0.929 . S
C44 C43 1.267 . S
C44 C45 1.251 . S
C45 H15 0.929 . S
C45 N41 1.418 . S
C45 C44 1.251 . S
C46 H13 0.930 . S
C46 C48 1.406 . S
C46 C51 1.261 . S
C47 H14 0.930 . S
C47 N49 1.325 . S
C47 C50 1.357 . S
C48 H16 0.928 . S
C48 C46 1.406 . S
C48 N49 1.261 . S
N49 Co0 2.214 . S
N49 C47 1.325 . S
N49 C48 1.261 . S
C50 H20 0.931 . S
C50 C47 1.357 . S
C50 C51 1.312 . S
C51 H22 0.930 . S
C51 C46 1.261 . S
C51 C50 1.312 . S
C52 O24 1.214 . S
C52 O32 1.234 . S
C53 H25 0.929 . S
C53 C56 1.391 . S
C53 C58 1.391 . S
C54 H26 0.929 . S
C54 C55 1.390 . S
C54 N57 1.391 . S
C55 H27 0.930 . S
C55 C54 1.390 . S
C55 C56 1.392 . S
C56 H28 0.929 . S
C56 C53 1.391 . S
C56 C55 1.392 . S
N57 Co1 2.246 1_655 S
N57 C54 1.391 . S
N57 C58 1.388 . S
C58 H29 0.930 . S
C58 C53 1.391 . S
C58 N57 1.388 . S
Co59 O61 2.143 . S
Co59 O67 2.074 . S
Co59 O70 2.093 . S
Co59 O83 2.097 . S
Co59 N100 2.151 . S
Co59 N108 2.214 1_455 S
Co60 O61 2.160 . S
Co60 O66 2.058 . S
Co60 O76 2.057 . S
Co60 O91 2.037 . S
Co60 N95 2.145 . S
Co60 N116 2.257 . S
O61 Co59 2.143 . S
O61 Co60 2.160 . S
C62 O63 1.278 . S
C62 O70 1.224 . S
O63 C62 1.278 . S
C64 O65 1.245 . S
C64 O76 1.232 . S
O65 C64 1.245 . S
O66 Co60 2.058 . S
O66 C92 1.269 . S
O67 Co59 2.074 . S
O67 C92 1.257 . S
H68 C93 0.930 . S
H69 C99 0.930 . S
O70 Co59 2.093 . S
O70 C62 1.224 . S
H71 C103 0.929 . S
H72 C105 0.930 . S
H73 C106 0.930 1_455 S
H74 C104 0.929 . S
H75 C107 0.928 . S
O76 Co60 2.057 . S
O76 C64 1.232 . S
H77 C96 0.929 . S
H78 C97 0.929 . S
H79 C109 0.931 . S
H80 C101 0.929 . S
H81 C110 0.930 . S
H82 C102 0.931 . S
O83 Co59 2.097 . S
O83 C111 1.214 . S
H84 C112 0.929 . S
H85 C113 0.929 . S
H86 C114 0.930 . S
H87 C115 0.929 . S
H88 C117 0.930 . S
H89 C94 0.930 . S
H90 C98 0.930 . S
O91 Co60 2.037 . S
O91 C111 1.234 . S
C92 O66 1.269 . S
C92 O67 1.257 . S
C93 H68 0.930 . S
C93 C96 1.388 . S
C93 C98 1.418 . S
C94 H89 0.930 . S
C94 C97 1.404 . S
C94 C98 1.353 . S
N95 Co60 2.145 . S
N95 C96 1.397 . S
N95 C97 1.334 . S
C96 H77 0.929 . S
C96 C93 1.388 . S
C96 N95 1.397 . S
C97 H78 0.929 . S
C97 C94 1.404 . S
C97 N95 1.334 . S
C98 H90 0.930 . S
C98 C93 1.418 . S
C98 C94 1.353 . S
C99 H69 0.930 . S
C99 N100 1.330 . S
C99 C101 1.446 . S
N100 Co59 2.151 . S
N100 C99 1.330 . S
N100 C104 1.418 1_455 S
C101 H80 0.929 . S
C101 C99 1.446 . S
C101 C102 1.332 1_455 S
C102 H82 0.931 . S
C102 C101 1.332 1_655 S
C102 C103 1.267 . S
C103 H71 0.929 . S
C103 C102 1.267 . S
C103 C104 1.251 . S
C104 H74 0.929 . S
C104 N100 1.418 1_655 S
C104 C103 1.251 . S
C105 H72 0.930 . S
C105 C107 1.406 . S
C105 C110 1.261 . S
C106 H73 0.930 1_655 S
C106 N108 1.325 . S
C106 C109 1.357 . S
C107 H75 0.928 . S
C107 C105 1.406 . S
C107 N108 1.261 . S
N108 Co59 2.214 1_655 S
N108 C106 1.325 . S
N108 C107 1.261 . S
C109 H79 0.931 . S
C109 C106 1.357 . S
C109 C110 1.312 . S
C110 H81 0.930 . S
C110 C105 1.261 . S
C110 C109 1.312 . S
C111 O83 1.214 . S
C111 O91 1.234 . S
C112 H84 0.929 . S
C112 C115 1.391 . S
C112 C117 1.391 . S
C113 H85 0.929 . S
C113 C114 1.390 . S
C113 N116 1.391 . S
C114 H86 0.930 . S
C114 C113 1.390 . S
C114 C115 1.392 . S
C115 H87 0.929 . S
C115 C112 1.391 . S
C115 C114 1.392 . S
N116 Co60 2.257 . S
N116 C113 1.391 . S
N116 C117 1.388 . S
C117 H88 0.930 . S
C117 C112 1.391 . S
C117 N116 1.388 . S
Co118 O120 2.143 1_554 S
Co118 O126 2.074 . S
Co118 O129 2.093 . S
Co118 O142 2.097 . S
Co118 N159 2.151 1_554 S
Co118 N167 2.214 . S
Co119 O120 2.160 1_554 S
Co119 O125 2.058 1_554 S
Co119 O135 2.057 1_454 S
Co119 O150 2.037 . S
Co119 N154 2.145 1_455 S
Co119 N175 2.257 1_455 S
O120 Co118 2.143 1_556 S
O120 Co119 2.160 1_556 S
C121 O122 1.278 1_554 S
C121 O129 1.224 . S
O122 C121 1.278 1_556 S
C123 O124 1.245 1_655 S
C123 O135 1.232 . S
O124 C123 1.245 1_455 S
O125 Co119 2.058 1_556 S
O125 C151 1.269 . S
O126 Co118 2.074 . S
O126 C151 1.257 1_554 S
H127 C152 0.930 . S
H128 C158 0.930 . S
O129 Co118 2.093 . S
O129 C121 1.224 . S
H130 C162 0.929 . S
H131 C164 0.930 . S
H132 C165 0.930 . S
H133 C163 0.929 . S
H134 C166 0.928 . S
O135 Co119 2.057 1_656 S
O135 C123 1.232 . S
H136 C155 0.929 . S
H137 C156 0.929 . S
H138 C168 0.931 . S
H139 C160 0.929 . S
H140 C169 0.930 . S
H141 C161 0.931 . S
O142 Co118 2.097 . S
O142 C170 1.214 . S
H143 C171 0.929 1_556 S
H144 C172 0.929 . S
H145 C173 0.930 . S
H146 C174 0.929 . S
H147 C176 0.930 . S
H148 C153 0.930 1_556 S
H149 C157 0.930 . S
O150 Co119 2.037 . S
O150 C170 1.234 . S
C151 O125 1.269 . S
C151 O126 1.257 1_556 S
C152 H127 0.930 . S
C152 C155 1.388 . S
C152 C157 1.418 . S
C153 H148 0.930 1_554 S
C153 C156 1.404 1_554 S
C153 C157 1.353 . S
N154 Co119 2.145 1_655 S
N154 C155 1.397 . S
N154 C156 1.334 1_554 S
C155 H136 0.929 . S
C155 C152 1.388 . S
C155 N154 1.397 . S
C156 H137 0.929 . S
C156 C153 1.404 1_556 S
C156 N154 1.334 1_556 S
C157 H149 0.930 . S
C157 C152 1.418 . S
C157 C153 1.353 . S
C158 H128 0.930 . S
C158 N159 1.330 . S
C158 C160 1.446 . S
N159 Co118 2.151 1_556 S
N159 C158 1.330 . S
N159 C163 1.418 . S
C160 H139 0.929 . S
C160 C158 1.446 . S
C160 C161 1.332 . S
C161 H141 0.931 . S
C161 C160 1.332 . S
C161 C162 1.267 . S
C162 H130 0.929 . S
C162 C161 1.267 . S
C162 C163 1.251 . S
C163 H133 0.929 . S
C163 N159 1.418 . S
C163 C162 1.251 . S
C164 H131 0.930 . S
C164 C166 1.406 . S
C164 C169 1.261 . S
C165 H132 0.930 . S
C165 N167 1.325 . S
C165 C168 1.357 . S
C166 H134 0.928 . S
C166 C164 1.406 . S
C166 N167 1.261 . S
N167 Co118 2.214 . S
N167 C165 1.325 . S
N167 C166 1.261 . S
C168 H138 0.931 . S
C168 C165 1.357 . S
C168 C169 1.312 . S
C169 H140 0.930 . S
C169 C164 1.261 . S
C169 C168 1.312 . S
C170 O142 1.214 . S
C170 O150 1.234 . S
C171 H143 0.929 1_554 S
C171 C174 1.391 . S
C171 C176 1.391 1_554 S
C172 H144 0.929 . S
C172 C173 1.390 . S
C172 N175 1.391 . S
C173 H145 0.930 . S
C173 C172 1.390 . S
C173 C174 1.392 . S
C174 H146 0.929 . S
C174 C171 1.391 . S
C174 C173 1.392 . S
N175 Co119 2.257 1_655 S
N175 C172 1.391 . S
N175 C176 1.388 1_554 S
C176 H147 0.930 . S
C176 C171 1.391 1_556 S
C176 N175 1.388 1_556 S
Co177 O179 2.143 1_554 S
Co177 O185 2.074 . S
Co177 O188 2.093 . S
Co177 O201 2.097 . S
Co177 N218 2.151 1_554 S
Co177 N226 2.210 1_455 S
Co178 O179 2.160 1_554 S
Co178 O184 2.058 1_554 S
Co178 O194 2.057 1_554 S
Co178 O209 2.037 . S
Co178 N213 2.145 . S
Co178 N234 2.257 . S
O179 Co177 2.143 1_556 S
O179 Co178 2.160 1_556 S
C180 O181 1.278 1_554 S
C180 O188 1.224 . S
O181 C180 1.278 1_556 S
C182 O183 1.245 . S
C182 O194 1.232 . S
O183 C182 1.245 . S
O184 Co178 2.058 1_556 S
O184 C210 1.269 . S
O185 Co177 2.074 . S
O185 C210 1.257 1_554 S
H186 C211 0.930 . S
H187 C217 0.930 . S
O188 Co177 2.093 . S
O188 C180 1.224 . S
H189 C221 0.929 . S
H190 C223 0.930 . S
H191 C224 0.930 1_455 S
H192 C222 0.929 . S
H193 C225 0.928 . S
O194 Co178 2.057 1_556 S
O194 C182 1.232 . S
H195 C214 0.929 . S
H196 C215 0.929 . S
H197 C227 0.931 . S
H198 C219 0.929 . S
H199 C228 0.930 . S
H200 C220 0.931 . S
O201 Co177 2.097 . S
O201 C229 1.214 . S
H202 C230 0.929 1_556 S
H203 C231 0.929 . S
H204 C232 0.930 . S
H205 C233 0.929 . S
H206 C235 0.930 . S
H207 C212 0.930 1_556 S
H208 C216 0.930 . S
O209 Co178 2.037 . S
O209 C229 1.234 . S
C210 O184 1.269 . S
C210 O185 1.257 1_556 S
C211 H186 0.930 . S
C211 C214 1.388 . S
C211 C216 1.418 . S
C212 H207 0.930 1_554 S
C212 C215 1.404 1_554 S
C212 C216 1.353 . S
N213 Co178 2.145 . S
N213 C214 1.397 . S
N213 C215 1.334 1_554 S
C214 H195 0.929 . S
C214 C211 1.388 . S
C214 N213 1.397 . S
C215 H196 0.929 . S
C215 C212 1.404 1_556 S
C215 N213 1.334 1_556 S
C216 H208 0.930 . S
C216 C211 1.418 . S
C216 C212 1.353 . S
C217 H187 0.930 . S
C217 N218 1.330 . S
C217 C219 1.446 . S
N218 Co177 2.151 1_556 S
N218 C217 1.330 . S
N218 C222 1.418 1_455 S
C219 H198 0.929 . S
C219 C217 1.446 . S
C219 C220 1.332 1_455 S
C220 H200 0.931 . S
C220 C219 1.332 1_655 S
C220 C221 1.267 . S
C221 H189 0.929 . S
C221 C220 1.267 . S
C221 C222 1.251 . S
C222 H192 0.929 . S
C222 N218 1.418 1_655 S
C222 C221 1.251 . S
C223 H190 0.930 . S
C223 C225 1.406 . S
C223 C228 1.261 . S
C224 H191 0.930 1_655 S
C224 N226 1.326 . S
C224 C227 1.357 . S
C225 H193 0.928 . S
C225 C223 1.406 . S
C225 N226 1.264 . S
N226 Co177 2.210 1_655 S
N226 C224 1.326 . S
N226 C225 1.264 . S
C227 H197 0.931 . S
C227 C224 1.357 . S
C227 C228 1.312 . S
C228 H199 0.930 . S
C228 C223 1.261 . S
C228 C227 1.312 . S
C229 O201 1.214 . S
C229 O209 1.234 . S
C230 H202 0.929 1_554 S
C230 C233 1.391 . S
C230 C235 1.391 1_554 S
C231 H203 0.929 . S
C231 C232 1.390 . S
C231 N234 1.391 . S
C232 H204 0.930 . S
C232 C231 1.390 . S
C232 C233 1.392 . S
C233 H205 0.929 . S
C233 C230 1.391 . S
C233 C232 1.392 . S
N234 Co178 2.257 . S
N234 C231 1.391 . S
N234 C235 1.388 1_554 S
C235 H206 0.930 . S
C235 C230 1.391 1_556 S
C235 N234 1.388 1_556 S
Co236 O238 2.143 . S
Co236 O244 2.074 . S
Co236 O247 2.093 . S
Co236 O260 2.097 . S
Co236 N277 2.151 . S
Co236 N285 2.214 . S
Co237 O238 2.169 . S
Co237 O243 2.070 . S
Co237 O253 2.050 1_655 S
Co237 O268 2.041 . S
Co237 N272 2.134 1_655 S
Co237 N293 2.246 1_655 S
O238 Co236 2.143 . S
O238 Co237 2.169 . S
C239 O240 1.278 . S
C239 O247 1.224 . S
O240 C239 1.278 . S
C241 O242 1.245 1_455 S
C241 O253 1.232 . S
O242 C241 1.245 1_655 S
O243 Co237 2.070 . S
O243 C269 1.269 . S
O244 Co236 2.074 . S
O244 C269 1.257 . S
H245 C270 0.930 . S
H246 C276 0.930 . S
O247 Co236 2.093 . S
O247 C239 1.224 . S
H248 C280 0.929 . S
H249 C282 0.930 . S
H250 C283 0.930 . S
H251 C281 0.929 . S
H252 C284 0.928 . S
O253 Co237 2.050 1_455 S
O253 C241 1.232 . S
H254 C273 0.929 . S
H255 C274 0.929 . S
H256 C286 0.931 . S
H257 C278 0.929 . S
H258 C287 0.930 . S
H259 C279 0.931 . S
O260 Co236 2.097 . S
O260 C288 1.214 . S
H261 C289 0.929 . S
H262 C290 0.929 . S
H263 C291 0.930 . S
H264 C292 0.929 . S
H265 C294 0.930 . S
H266 C271 0.930 . S
H267 C275 0.930 . S
O268 Co237 2.041 . S
O268 C288 1.234 . S
C269 O243 1.269 . S
C269 O244 1.257 . S
C270 H245 0.930 . S
C270 C273 1.388 . S
C270 C275 1.418 . S
C271 H266 0.930 . S
C271 C274 1.404 . S
C271 C275 1.353 . S
N272 Co237 2.134 1_455 S
N272 C273 1.397 . S
N272 C274 1.334 . S
C273 H254 0.929 . S
C273 C270 1.388 . S
C273 N272 1.397 . S
C274 H255 0.929 . S
C274 C271 1.404 . S
C274 N272 1.334 . S
C275 H267 0.930 . S
C275 C270 1.418 . S
C275 C271 1.353 . S
C276 H246 0.930 . S
C276 N277 1.330 . S
C276 C278 1.446 . S
N277 Co236 2.151 . S
N277 C276 1.330 . S
N277 C281 1.418 . S
C278 H257 0.929 . S
C278 C276 1.446 . S
C278 C279 1.332 . S
C279 H259 0.931 . S
C279 C278 1.332 . S
C279 C280 1.267 . S
C280 H248 0.929 . S
C280 C279 1.267 . S
C280 C281 1.251 . S
C281 H251 0.929 . S
C281 N277 1.418 . S
C281 C280 1.251 . S
C282 H249 0.930 . S
C282 C284 1.406 . S
C282 C287 1.261 . S
C283 H250 0.930 . S
C283 N285 1.325 . S
C283 C286 1.357 . S
C284 H252 0.928 . S
C284 C282 1.406 . S
C284 N285 1.261 . S
N285 Co236 2.214 . S
N285 C283 1.325 . S
N285 C284 1.261 . S
C286 H256 0.931 . S
C286 C283 1.357 . S
C286 C287 1.312 . S
C287 H258 0.930 . S
C287 C282 1.261 . S
C287 C286 1.312 . S
C288 O260 1.214 . S
C288 O268 1.234 . S
C289 H261 0.929 . S
C289 C292 1.391 . S
C289 C294 1.391 . S
C290 H262 0.929 . S
C290 C291 1.390 . S
C290 N293 1.391 . S
C291 H263 0.930 . S
C291 C290 1.390 . S
C291 C292 1.392 . S
C292 H264 0.929 . S
C292 C289 1.391 . S
C292 C291 1.392 . S
N293 Co237 2.246 1_455 S
N293 C290 1.391 . S
N293 C294 1.388 . S
C294 H265 0.930 . S
C294 C289 1.391 . S
C294 N293 1.388 . S
Co295 O297 2.143 . S
Co295 O303 2.074 . S
Co295 O306 2.093 . S
Co295 O319 2.097 . S
Co295 N336 2.151 . S
Co295 N344 2.214 1_655 S
Co296 O297 2.160 . S
Co296 O302 2.058 . S
Co296 O312 2.057 . S
Co296 O327 2.037 . S
Co296 N331 2.145 . S
Co296 N352 2.257 . S
O297 Co295 2.143 . S
O297 Co296 2.160 . S
C298 O299 1.278 . S
C298 O306 1.224 . S
O299 C298 1.278 . S
C300 O301 1.245 . S
C300 O312 1.232 . S
O301 C300 1.245 . S
O302 Co296 2.058 . S
O302 C328 1.269 . S
O303 Co295 2.074 . S
O303 C328 1.257 . S
H304 C329 0.930 . S
H305 C335 0.930 . S
O306 Co295 2.093 . S
O306 C298 1.224 . S
H307 C339 0.929 . S
H308 C341 0.930 . S
H309 C342 0.930 1_655 S
H310 C340 0.929 . S
H311 C343 0.928 . S
O312 Co296 2.057 . S
O312 C300 1.232 . S
H313 C332 0.929 . S
H314 C333 0.929 . S
H315 C345 0.931 . S
H316 C337 0.929 . S
H317 C346 0.930 . S
H318 C338 0.931 . S
O319 Co295 2.097 . S
O319 C347 1.214 . S
H320 C348 0.929 . S
H321 C349 0.929 . S
H322 C350 0.930 . S
H323 C351 0.929 . S
H324 C353 0.930 . S
H325 C330 0.930 . S
H326 C334 0.930 . S
O327 Co296 2.037 . S
O327 C347 1.234 . S
C328 O302 1.269 . S
C328 O303 1.257 . S
C329 H304 0.930 . S
C329 C332 1.388 . S
C329 C334 1.418 . S
C330 H325 0.930 . S
C330 C333 1.404 . S
C330 C334 1.353 . S
N331 Co296 2.145 . S
N331 C332 1.397 . S
N331 C333 1.334 . S
C332 H313 0.929 . S
C332 C329 1.388 . S
C332 N331 1.397 . S
C333 H314 0.929 . S
C333 C330 1.404 . S
C333 N331 1.334 . S
C334 H326 0.930 . S
C334 C329 1.418 . S
C334 C330 1.353 . S
C335 H305 0.930 . S
C335 N336 1.330 . S
C335 C337 1.446 . S
N336 Co295 2.151 . S
N336 C335 1.330 . S
N336 C340 1.418 1_655 S
C337 H316 0.929 . S
C337 C335 1.446 . S
C337 C338 1.332 1_655 S
C338 H318 0.931 . S
C338 C337 1.332 1_455 S
C338 C339 1.267 . S
C339 H307 0.929 . S
C339 C338 1.267 . S
C339 C340 1.251 . S
C340 H310 0.929 . S
C340 N336 1.418 1_455 S
C340 C339 1.251 . S
C341 H308 0.930 . S
C341 C343 1.406 . S
C341 C346 1.261 . S
C342 H309 0.930 1_455 S
C342 N344 1.325 . S
C342 C345 1.357 . S
C343 H311 0.928 . S
C343 C341 1.406 . S
C343 N344 1.261 . S
N344 Co295 2.214 1_455 S
N344 C342 1.325 . S
N344 C343 1.261 . S
C345 H315 0.931 . S
C345 C342 1.357 . S
C345 C346 1.312 . S
C346 H317 0.930 . S
C346 C341 1.261 . S
C346 C345 1.312 . S
C347 O319 1.214 . S
C347 O327 1.234 . S
C348 H320 0.929 . S
C348 C351 1.391 . S
C348 C353 1.391 . S
C349 H321 0.929 . S
C349 C350 1.390 . S
C349 N352 1.391 . S
C350 H322 0.930 . S
C350 C349 1.390 . S
C350 C351 1.392 . S
C351 H323 0.929 . S
C351 C348 1.391 . S
C351 C350 1.392 . S
N352 Co296 2.257 . S
N352 C349 1.391 . S
N352 C353 1.388 . S
C353 H324 0.930 . S
C353 C348 1.391 . S
C353 N352 1.388 . S
Co354 O356 2.143 1_556 S
Co354 O362 2.074 . S
Co354 O365 2.093 . S
Co354 O378 2.097 . S
Co354 N395 2.151 1_556 S
Co354 N403 2.214 . S
Co355 O356 2.160 1_556 S
Co355 O361 2.058 1_556 S
Co355 O371 2.057 1_656 S
Co355 O386 2.037 . S
Co355 N390 2.145 1_655 S
Co355 N411 2.257 1_655 S
O356 Co354 2.143 1_554 S
O356 Co355 2.160 1_554 S
C357 O358 1.278 1_556 S
C357 O365 1.224 . S
O358 C357 1.278 1_554 S
C359 O360 1.245 1_455 S
C359 O371 1.232 . S
O360 C359 1.245 1_655 S
O361 Co355 2.058 1_554 S
O361 C387 1.269 . S
O362 Co354 2.074 . S
O362 C387 1.257 1_556 S
H363 C388 0.930 . S
H364 C394 0.930 . S
O365 Co354 2.093 . S
O365 C357 1.224 . S
H366 C398 0.929 . S
H367 C400 0.930 . S
H368 C401 0.930 . S
H369 C399 0.929 . S
H370 C402 0.928 . S
O371 Co355 2.057 1_454 S
O371 C359 1.232 . S
H372 C391 0.929 . S
H373 C392 0.929 . S
H374 C404 0.931 . S
H375 C396 0.929 . S
H376 C405 0.930 . S
H377 C397 0.931 . S
O378 Co354 2.097 . S
O378 C406 1.214 . S
H379 C407 0.929 1_554 S
H380 C408 0.929 . S
H381 C409 0.930 . S
H382 C410 0.929 . S
H383 C412 0.930 . S
H384 C389 0.930 1_554 S
H385 C393 0.930 . S
O386 Co355 2.037 . S
O386 C406 1.234 . S
C387 O361 1.269 . S
C387 O362 1.257 1_554 S
C388 H363 0.930 . S
C388 C391 1.388 . S
C388 C393 1.418 . S
C389 H384 0.930 1_556 S
C389 C392 1.404 1_556 S
C389 C393 1.353 . S
N390 Co355 2.145 1_455 S
N390 C391 1.397 . S
N390 C392 1.334 1_556 S
C391 H372 0.929 . S
C391 C388 1.388 . S
C391 N390 1.397 . S
C392 H373 0.929 . S
C392 C389 1.404 1_554 S
C392 N390 1.334 1_554 S
C393 H385 0.930 . S
C393 C388 1.418 . S
C393 C389 1.353 . S
C394 H364 0.930 . S
C394 N395 1.330 . S
C394 C396 1.446 . S
N395 Co354 2.151 1_554 S
N395 C394 1.330 . S
N395 C399 1.418 . S
C396 H375 0.929 . S
C396 C394 1.446 . S
C396 C397 1.332 . S
C397 H377 0.931 . S
C397 C396 1.332 . S
C397 C398 1.267 . S
C398 H366 0.929 . S
C398 C397 1.267 . S
C398 C399 1.251 . S
C399 H369 0.929 . S
C399 N395 1.418 . S
C399 C398 1.251 . S
C400 H367 0.930 . S
C400 C402 1.406 . S
C400 C405 1.261 . S
C401 H368 0.930 . S
C401 N403 1.325 . S
C401 C404 1.357 . S
C402 H370 0.928 . S
C402 C400 1.406 . S
C402 N403 1.261 . S
N403 Co354 2.214 . S
N403 C401 1.325 . S
N403 C402 1.261 . S
C404 H374 0.931 . S
C404 C401 1.357 . S
C404 C405 1.312 . S
C405 H376 0.930 . S
C405 C400 1.261 . S
C405 C404 1.312 . S
C406 O378 1.214 . S
C406 O386 1.234 . S
C407 H379 0.929 1_556 S
C407 C410 1.391 . S
C407 C412 1.391 1_556 S
C408 H380 0.929 . S
C408 C409 1.390 . S
C408 N411 1.391 . S
C409 H381 0.930 . S
C409 C408 1.390 . S
C409 C410 1.392 . S
C410 H382 0.929 . S
C410 C407 1.391 . S
C410 C409 1.392 . S
N411 Co355 2.257 1_455 S
N411 C408 1.391 . S
N411 C412 1.388 1_556 S
C412 H383 0.930 . S
C412 C407 1.391 1_554 S
C412 N411 1.388 1_554 S
Co413 O415 2.143 1_556 S
Co413 O421 2.074 . S
Co413 O424 2.093 . S
Co413 O437 2.097 . S
Co413 N454 2.151 1_556 S
Co413 N462 2.210 1_655 S
Co414 O415 2.160 1_556 S
Co414 O420 2.058 1_556 S
Co414 O430 2.057 1_556 S
Co414 O445 2.037 . S
Co414 N449 2.145 . S
Co414 N470 2.257 . S
O415 Co413 2.143 1_554 S
O415 Co414 2.160 1_554 S
C416 O417 1.278 1_556 S
C416 O424 1.224 . S
O417 C416 1.278 1_554 S
C418 O419 1.245 . S
C418 O430 1.232 . S
O419 C418 1.245 . S
O420 Co414 2.058 1_554 S
O420 C446 1.269 . S
O421 Co413 2.074 . S
O421 C446 1.257 1_556 S
H422 C447 0.930 . S
H423 C453 0.930 . S
O424 Co413 2.093 . S
O424 C416 1.224 . S
H425 C457 0.929 . S
H426 C459 0.930 . S
H427 C460 0.930 1_655 S
H428 C458 0.929 . S
H429 C461 0.928 . S
O430 Co414 2.057 1_554 S
O430 C418 1.232 . S
H431 C450 0.929 . S
H432 C451 0.929 . S
H433 C463 0.931 . S
H434 C455 0.929 . S
H435 C464 0.930 . S
H436 C456 0.931 . S
O437 Co413 2.097 . S
O437 C465 1.214 . S
H438 C466 0.929 1_554 S
H439 C467 0.929 . S
H440 C468 0.930 . S
H441 C469 0.929 . S
H442 C471 0.930 . S
H443 C448 0.930 1_554 S
H444 C452 0.930 . S
O445 Co414 2.037 . S
O445 C465 1.234 . S
C446 O420 1.269 . S
C446 O421 1.257 1_554 S
C447 H422 0.930 . S
C447 C450 1.388 . S
C447 C452 1.418 . S
C448 H443 0.930 1_556 S
C448 C451 1.404 1_556 S
C448 C452 1.353 . S
N449 Co414 2.145 . S
N449 C450 1.397 . S
N449 C451 1.334 1_556 S
C450 H431 0.929 . S
C450 C447 1.388 . S
C450 N449 1.397 . S
C451 H432 0.929 . S
C451 C448 1.404 1_554 S
C451 N449 1.334 1_554 S
C452 H444 0.930 . S
C452 C447 1.418 . S
C452 C448 1.353 . S
C453 H423 0.930 . S
C453 N454 1.330 . S
C453 C455 1.446 . S
N454 Co413 2.151 1_554 S
N454 C453 1.330 . S
N454 C458 1.418 1_655 S
C455 H434 0.929 . S
C455 C453 1.446 . S
C455 C456 1.332 1_655 S
C456 H436 0.931 . S
C456 C455 1.332 1_455 S
C456 C457 1.267 . S
C457 H425 0.929 . S
C457 C456 1.267 . S
C457 C458 1.251 . S
C458 H428 0.929 . S
C458 N454 1.418 1_455 S
C458 C457 1.251 . S
C459 H426 0.930 . S
C459 C461 1.406 . S
C459 C464 1.261 . S
C460 H427 0.930 1_455 S
C460 N462 1.326 . S
C460 C463 1.357 . S
C461 H429 0.928 . S
C461 C459 1.406 . S
C461 N462 1.264 . S
N462 Co413 2.210 1_455 S
N462 C460 1.326 . S
N462 C461 1.264 . S
C463 H433 0.931 . S
C463 C460 1.357 . S
C463 C464 1.312 . S
C464 H435 0.930 . S
C464 C459 1.261 . S
C464 C463 1.312 . S
C465 O437 1.214 . S
C465 O445 1.234 . S
C466 H438 0.929 1_556 S
C466 C469 1.391 . S
C466 C471 1.391 1_556 S
C467 H439 0.929 . S
C467 C468 1.390 . S
C467 N470 1.391 . S
C468 H440 0.930 . S
C468 C467 1.390 . S
C468 C469 1.392 . S
C469 H441 0.929 . S
C469 C466 1.391 . S
C469 C468 1.392 . S
N470 Co414 2.257 . S
N470 C467 1.391 . S
N470 C471 1.388 1_556 S
C471 H442 0.930 . S
C471 C466 1.391 1_554 S
C471 N470 1.388 1_554 S
Co472 O474 2.143 . S
Co472 O480 2.074 . S
Co472 O483 2.093 . S
Co472 O496 2.097 . S
Co472 N513 2.151 . S
Co472 N521 2.214 . S
Co473 O474 2.166 . S
Co473 O479 2.066 . S
Co473 O489 2.053 1_455 S
Co473 O504 2.040 . S
Co473 N508 2.138 1_455 S
Co473 N529 2.250 1_455 S
O474 Co472 2.143 . S
O474 Co473 2.166 . S
C475 O476 1.278 . S
C475 O483 1.224 . S
O476 C475 1.278 . S
C477 O478 1.245 1_655 S
C477 O489 1.232 . S
O478 C477 1.245 1_455 S
O479 Co473 2.066 . S
O479 C505 1.269 . S
O480 Co472 2.074 . S
O480 C505 1.257 . S
H481 C506 0.930 . S
H482 C512 0.930 . S
O483 Co472 2.093 . S
O483 C475 1.224 . S
H484 C516 0.929 . S
H485 C518 0.930 . S
H486 C519 0.930 . S
H487 C517 0.929 . S
H488 C520 0.928 . S
O489 Co473 2.053 1_655 S
O489 C477 1.232 . S
H490 C509 0.929 . S
H491 C510 0.929 . S
H492 C522 0.931 . S
H493 C514 0.929 . S
H494 C523 0.930 . S
H495 C515 0.931 . S
O496 Co472 2.097 . S
O496 C524 1.214 . S
H497 C525 0.929 . S
H498 C526 0.929 . S
H499 C527 0.930 . S
H500 C528 0.929 . S
H501 C530 0.930 . S
H502 C507 0.930 . S
H503 C511 0.930 . S
O504 Co473 2.040 . S
O504 C524 1.234 . S
C505 O479 1.269 . S
C505 O480 1.257 . S
C506 H481 0.930 . S
C506 C509 1.388 . S
C506 C511 1.418 . S
C507 H502 0.930 . S
C507 C510 1.404 . S
C507 C511 1.353 . S
N508 Co473 2.138 1_655 S
N508 C509 1.397 . S
N508 C510 1.334 . S
C509 H490 0.929 . S
C509 C506 1.388 . S
C509 N508 1.397 . S
C510 H491 0.929 . S
C510 C507 1.404 . S
C510 N508 1.334 . S
C511 H503 0.930 . S
C511 C506 1.418 . S
C511 C507 1.353 . S
C512 H482 0.930 . S
C512 N513 1.330 . S
C512 C514 1.446 . S
N513 Co472 2.151 . S
N513 C512 1.330 . S
N513 C517 1.418 . S
C514 H493 0.929 . S
C514 C512 1.446 . S
C514 C515 1.332 . S
C515 H495 0.931 . S
C515 C514 1.332 . S
C515 C516 1.267 . S
C516 H484 0.929 . S
C516 C515 1.267 . S
C516 C517 1.251 . S
C517 H487 0.929 . S
C517 N513 1.418 . S
C517 C516 1.251 . S
C518 H485 0.930 . S
C518 C520 1.406 . S
C518 C523 1.261 . S
C519 H486 0.930 . S
C519 N521 1.325 . S
C519 C522 1.357 . S
C520 H488 0.928 . S
C520 C518 1.406 . S
C520 N521 1.261 . S
N521 Co472 2.214 . S
N521 C519 1.325 . S
N521 C520 1.261 . S
C522 H492 0.931 . S
C522 C519 1.357 . S
C522 C523 1.312 . S
C523 H494 0.930 . S
C523 C518 1.261 . S
C523 C522 1.312 . S
C524 O496 1.214 . S
C524 O504 1.234 . S
C525 H497 0.929 . S
C525 C528 1.391 . S
C525 C530 1.391 . S
C526 H498 0.929 . S
C526 C527 1.390 . S
C526 N529 1.391 . S
C527 H499 0.930 . S
C527 C526 1.390 . S
C527 C528 1.392 . S
C528 H500 0.929 . S
C528 C525 1.391 . S
C528 C527 1.392 . S
N529 Co473 2.250 1_655 S
N529 C526 1.391 . S
N529 C530 1.388 . S
C530 H501 0.930 . S
C530 C525 1.391 . S
C530 N529 1.388 . S
Co531 O533 2.143 . S
Co531 O539 2.074 . S
Co531 O542 2.093 . S
Co531 O555 2.097 . S
Co531 N572 2.151 . S
Co531 N580 2.199 1_455 S
Co532 O533 2.160 . S
Co532 O538 2.058 . S
Co532 O548 2.057 . S
Co532 O563 2.037 . S
Co532 N567 2.145 . S
Co532 N588 2.257 . S
O533 Co531 2.143 . S
O533 Co532 2.160 . S
C534 O535 1.278 . S
C534 O542 1.224 . S
O535 C534 1.278 . S
C536 O537 1.245 . S
C536 O548 1.232 . S
O537 C536 1.245 . S
O538 Co532 2.058 . S
O538 C564 1.269 . S
O539 Co531 2.074 . S
O539 C564 1.257 . S
H540 C565 0.930 . S
H541 C571 0.930 . S
O542 Co531 2.093 . S
O542 C534 1.224 . S
H543 C575 0.929 . S
H544 C577 0.930 . S
H545 C578 0.930 1_455 S
H546 C576 0.929 . S
H547 C579 0.928 . S
O548 Co532 2.057 . S
O548 C536 1.232 . S
H549 C568 0.929 . S
H550 C569 0.929 . S
H551 C581 0.931 . S
H552 C573 0.929 . S
H553 C582 0.930 . S
H554 C574 0.931 . S
O555 Co531 2.097 . S
O555 C583 1.214 . S
H556 C584 0.929 . S
H557 C585 0.929 . S
H558 C586 0.930 . S
H559 C587 0.929 . S
H560 C589 0.930 . S
H561 C566 0.930 . S
H562 C570 0.930 . S
O563 Co532 2.037 . S
O563 C583 1.234 . S
C564 O538 1.269 . S
C564 O539 1.257 . S
C565 H540 0.930 . S
C565 C568 1.388 . S
C565 C570 1.418 . S
C566 H561 0.930 . S
C566 C569 1.404 . S
C566 C570 1.353 . S
N567 Co532 2.145 . S
N567 C568 1.397 . S
N567 C569 1.334 . S
C568 H549 0.929 . S
C568 C565 1.388 . S
C568 N567 1.397 . S
C569 H550 0.929 . S
C569 C566 1.404 . S
C569 N567 1.334 . S
C570 H562 0.930 . S
C570 C565 1.418 . S
C570 C566 1.353 . S
C571 H541 0.930 . S
C571 N572 1.330 . S
C571 C573 1.446 . S
N572 Co531 2.151 . S
N572 C571 1.330 . S
N572 C576 1.418 1_455 S
C573 H552 0.929 . S
C573 C571 1.446 . S
C573 C574 1.332 1_455 S
C574 H554 0.931 . S
C574 C573 1.332 1_655 S
C574 C575 1.267 . S
C575 H543 0.929 . S
C575 C574 1.267 . S
C575 C576 1.251 . S
C576 H546 0.929 . S
C576 N572 1.418 1_655 S
C576 C575 1.251 . S
C577 H544 0.930 . S
C577 C579 1.406 . S
C577 C582 1.261 . S
C578 H545 0.930 1_655 S
C578 N580 1.328 . S
C578 C581 1.357 . S
C579 H547 0.928 . S
C579 C577 1.406 . S
C579 N580 1.274 . S
N580 Co531 2.199 1_655 S
N580 C578 1.328 . S
N580 C579 1.274 . S
C581 H551 0.931 . S
C581 C578 1.357 . S
C581 C582 1.312 . S
C582 H553 0.930 . S
C582 C577 1.261 . S
C582 C581 1.312 . S
C583 O555 1.214 . S
C583 O563 1.234 . S
C584 H556 0.929 . S
C584 C587 1.391 . S
C584 C589 1.391 . S
C585 H557 0.929 . S
C585 C586 1.390 . S
C585 N588 1.391 . S
C586 H558 0.930 . S
C586 C585 1.390 . S
C586 C587 1.392 . S
C587 H559 0.929 . S
C587 C584 1.391 . S
C587 C586 1.392 . S
N588 Co532 2.257 . S
N588 C585 1.391 . S
N588 C589 1.388 . S
C589 H560 0.930 . S
C589 C584 1.391 . S
C589 N588 1.388 . S
Co590 O592 2.143 . S
Co590 O598 2.074 . S
Co590 O601 2.093 . S
Co590 O614 2.097 . S
Co590 N631 2.151 . S
Co590 N639 2.214 . S
Co591 O592 2.166 . S
Co591 O597 2.066 . S
Co591 O607 2.052 1_455 S
Co591 O622 2.040 . S
Co591 N626 2.137 1_455 S
Co591 N647 2.249 1_455 S
O592 Co590 2.143 . S
O592 Co591 2.166 . S
C593 O594 1.278 . S
C593 O601 1.224 . S
O594 C593 1.278 . S
C595 O596 1.245 1_655 S
C595 O607 1.232 . S
O596 C595 1.245 1_455 S
O597 Co591 2.066 . S
O597 C623 1.269 . S
O598 Co590 2.074 . S
O598 C623 1.257 . S
H599 C624 0.930 . S
H600 C630 0.930 . S
O601 Co590 2.093 . S
O601 C593 1.224 . S
H602 C634 0.929 . S
H603 C636 0.930 . S
H604 C637 0.930 . S
H605 C635 0.929 . S
H606 C638 0.928 . S
O607 Co591 2.052 1_655 S
O607 C595 1.232 . S
H608 C627 0.929 . S
H609 C628 0.929 . S
H610 C640 0.931 . S
H611 C632 0.929 . S
H612 C641 0.930 . S
H613 C633 0.931 . S
O614 Co590 2.097 . S
O614 C642 1.214 . S
H615 C643 0.929 . S
H616 C644 0.929 . S
H617 C645 0.930 . S
H618 C646 0.929 . S
H619 C648 0.930 . S
H620 C625 0.930 . S
H621 C629 0.930 . S
O622 Co591 2.040 . S
O622 C642 1.234 . S
C623 O597 1.269 . S
C623 O598 1.257 . S
C624 H599 0.930 . S
C624 C627 1.388 . S
C624 C629 1.418 . S
C625 H620 0.930 . S
C625 C628 1.404 . S
C625 C629 1.353 . S
N626 Co591 2.137 1_655 S
N626 C627 1.397 . S
N626 C628 1.334 . S
C627 H608 0.929 . S
C627 C624 1.388 . S
C627 N626 1.397 . S
C628 H609 0.929 . S
C628 C625 1.404 . S
C628 N626 1.334 . S
C629 H621 0.930 . S
C629 C624 1.418 . S
C629 C625 1.353 . S
C630 H600 0.930 . S
C630 N631 1.330 . S
C630 C632 1.446 . S
N631 Co590 2.151 . S
N631 C630 1.330 . S
N631 C635 1.418 . S
C632 H611 0.929 . S
C632 C630 1.446 . S
C632 C633 1.332 . S
C633 H613 0.931 . S
C633 C632 1.332 . S
C633 C634 1.267 . S
C634 H602 0.929 . S
C634 C633 1.267 . S
C634 C635 1.251 . S
C635 H605 0.929 . S
C635 N631 1.418 . S
C635 C634 1.251 . S
C636 H603 0.930 . S
C636 C638 1.406 . S
C636 C641 1.261 . S
C637 H604 0.930 . S
C637 N639 1.325 . S
C637 C640 1.357 . S
C638 H606 0.928 . S
C638 C636 1.406 . S
C638 N639 1.261 . S
N639 Co590 2.214 . S
N639 C637 1.325 . S
N639 C638 1.261 . S
C640 H610 0.931 . S
C640 C637 1.357 . S
C640 C641 1.312 . S
C641 H612 0.930 . S
C641 C636 1.261 . S
C641 C640 1.312 . S
C642 O614 1.214 . S
C642 O622 1.234 . S
C643 H615 0.929 . S
C643 C646 1.391 . S
C643 C648 1.391 . S
C644 H616 0.929 . S
C644 C645 1.390 . S
C644 N647 1.391 . S
C645 H617 0.930 . S
C645 C644 1.390 . S
C645 C646 1.392 . S
C646 H618 0.929 . S
C646 C643 1.391 . S
C646 C645 1.392 . S
N647 Co591 2.249 1_655 S
N647 C644 1.391 . S
N647 C648 1.388 . S
C648 H619 0.930 . S
C648 C643 1.391 . S
C648 N647 1.388 . S
Co649 O651 2.143 . S
Co649 O657 2.074 . S
Co649 O660 2.093 . S
Co649 O673 2.097 . S
Co649 N690 2.151 . S
Co649 N698 2.210 1_455 S
Co650 O651 2.160 . S
Co650 O656 2.058 . S
Co650 O666 2.057 . S
Co650 O681 2.037 . S
Co650 N685 2.145 . S
Co650 N706 2.257 . S
O651 Co649 2.143 . S
O651 Co650 2.160 . S
C652 O653 1.278 . S
C652 O660 1.224 . S
O653 C652 1.278 . S
C654 O655 1.245 . S
C654 O666 1.232 . S
O655 C654 1.245 . S
O656 Co650 2.058 . S
O656 C682 1.269 . S
O657 Co649 2.074 . S
O657 C682 1.257 . S
H658 C683 0.930 . S
H659 C689 0.930 . S
O660 Co649 2.093 . S
O660 C652 1.224 . S
H661 C693 0.929 . S
H662 C695 0.930 . S
H663 C696 0.930 1_455 S
H664 C694 0.929 . S
H665 C697 0.928 . S
O666 Co650 2.057 . S
O666 C654 1.232 . S
H667 C686 0.929 . S
H668 C687 0.929 . S
H669 C699 0.931 . S
H670 C691 0.929 . S
H671 C700 0.930 . S
H672 C692 0.931 . S
O673 Co649 2.097 . S
O673 C701 1.214 . S
H674 C702 0.929 . S
H675 C703 0.929 . S
H676 C704 0.930 . S
H677 C705 0.929 . S
H678 C707 0.930 . S
H679 C684 0.930 . S
H680 C688 0.930 . S
O681 Co650 2.037 . S
O681 C701 1.234 . S
C682 O656 1.269 . S
C682 O657 1.257 . S
C683 H658 0.930 . S
C683 C686 1.388 . S
C683 C688 1.418 . S
C684 H679 0.930 . S
C684 C687 1.404 . S
C684 C688 1.353 . S
N685 Co650 2.145 . S
N685 C686 1.397 . S
N685 C687 1.334 . S
C686 H667 0.929 . S
C686 C683 1.388 . S
C686 N685 1.397 . S
C687 H668 0.929 . S
C687 C684 1.404 . S
C687 N685 1.334 . S
C688 H680 0.930 . S
C688 C683 1.418 . S
C688 C684 1.353 . S
C689 H659 0.930 . S
C689 N690 1.330 . S
C689 C691 1.446 . S
N690 Co649 2.151 . S
N690 C689 1.330 . S
N690 C694 1.418 1_455 S
C691 H670 0.929 . S
C691 C689 1.446 . S
C691 C692 1.332 1_455 S
C692 H672 0.931 . S
C692 C691 1.332 1_655 S
C692 C693 1.267 . S
C693 H661 0.929 . S
C693 C692 1.267 . S
C693 C694 1.251 . S
C694 H664 0.929 . S
C694 N690 1.418 1_655 S
C694 C693 1.251 . S
C695 H662 0.930 . S
C695 C697 1.406 . S
C695 C700 1.261 . S
C696 H663 0.930 1_655 S
C696 N698 1.326 . S
C696 C699 1.357 . S
C697 H665 0.928 . S
C697 C695 1.406 . S
C697 N698 1.265 . S
N698 Co649 2.210 1_655 S
N698 C696 1.326 . S
N698 C697 1.265 . S
C699 H669 0.931 . S
C699 C696 1.357 . S
C699 C700 1.312 . S
C700 H671 0.930 . S
C700 C695 1.261 . S
C700 C699 1.312 . S
C701 O673 1.214 . S
C701 O681 1.234 . S
C702 H674 0.929 . S
C702 C705 1.391 . S
C702 C707 1.391 . S
C703 H675 0.929 . S
C703 C704 1.390 . S
C703 N706 1.391 . S
C704 H676 0.930 . S
C704 C703 1.390 . S
C704 C705 1.392 . S
C705 H677 0.929 . S
C705 C702 1.391 . S
C705 C704 1.392 . S
N706 Co650 2.257 . S
N706 C703 1.391 . S
N706 C707 1.388 . S
C707 H678 0.930 . S
C707 C702 1.391 . S
C707 N706 1.388 . S
Co708 O710 2.143 . S
Co708 O716 2.074 . S
Co708 O719 2.093 . S
Co708 O732 2.097 . S
Co708 N749 2.151 . S
Co708 N757 2.214 . S
Co709 O710 2.166 . S
Co709 O715 2.066 . S
Co709 O725 2.053 1_655 S
Co709 O740 2.040 . S
Co709 N744 2.138 1_655 S
Co709 N765 2.250 1_655 S
O710 Co708 2.143 . S
O710 Co709 2.166 . S
C711 O712 1.278 . S
C711 O719 1.224 . S
O712 C711 1.278 . S
C713 O714 1.245 1_455 S
C713 O725 1.232 . S
O714 C713 1.245 1_655 S
O715 Co709 2.066 . S
O715 C741 1.269 . S
O716 Co708 2.074 . S
O716 C741 1.257 . S
H717 C742 0.930 . S
H718 C748 0.930 . S
O719 Co708 2.093 . S
O719 C711 1.224 . S
H720 C752 0.929 . S
H721 C754 0.930 . S
H722 C755 0.930 . S
H723 C753 0.929 . S
H724 C756 0.928 . S
O725 Co709 2.053 1_455 S
O725 C713 1.232 . S
H726 C745 0.929 . S
H727 C746 0.929 . S
H728 C758 0.931 . S
H729 C750 0.929 . S
H730 C759 0.930 . S
H731 C751 0.931 . S
O732 Co708 2.097 . S
O732 C760 1.214 . S
H733 C761 0.929 . S
H734 C762 0.929 . S
H735 C763 0.930 . S
H736 C764 0.929 . S
H737 C766 0.930 . S
H738 C743 0.930 . S
H739 C747 0.930 . S
O740 Co709 2.040 . S
O740 C760 1.234 . S
C741 O715 1.269 . S
C741 O716 1.257 . S
C742 H717 0.930 . S
C742 C745 1.388 . S
C742 C747 1.418 . S
C743 H738 0.930 . S
C743 C746 1.404 . S
C743 C747 1.353 . S
N744 Co709 2.138 1_455 S
N744 C745 1.397 . S
N744 C746 1.334 . S
C745 H726 0.929 . S
C745 C742 1.388 . S
C745 N744 1.397 . S
C746 H727 0.929 . S
C746 C743 1.404 . S
C746 N744 1.334 . S
C747 H739 0.930 . S
C747 C742 1.418 . S
C747 C743 1.353 . S
C748 H718 0.930 . S
C748 N749 1.330 . S
C748 C750 1.446 . S
N749 Co708 2.151 . S
N749 C748 1.330 . S
N749 C753 1.418 . S
C750 H729 0.929 . S
C750 C748 1.446 . S
C750 C751 1.332 . S
C751 H731 0.931 . S
C751 C750 1.332 . S
C751 C752 1.267 . S
C752 H720 0.929 . S
C752 C751 1.267 . S
C752 C753 1.251 . S
C753 H723 0.929 . S
C753 N749 1.418 . S
C753 C752 1.251 . S
C754 H721 0.930 . S
C754 C756 1.406 . S
C754 C759 1.261 . S
C755 H722 0.930 . S
C755 N757 1.325 . S
C755 C758 1.357 . S
C756 H724 0.928 . S
C756 C754 1.406 . S
C756 N757 1.261 . S
N757 Co708 2.214 . S
N757 C755 1.325 . S
N757 C756 1.261 . S
C758 H728 0.931 . S
C758 C755 1.357 . S
C758 C759 1.312 . S
C759 H730 0.930 . S
C759 C754 1.261 . S
C759 C758 1.312 . S
C760 O732 1.214 . S
C760 O740 1.234 . S
C761 H733 0.929 . S
C761 C764 1.391 . S
C761 C766 1.391 . S
C762 H734 0.929 . S
C762 C763 1.390 . S
C762 N765 1.391 . S
C763 H735 0.930 . S
C763 C762 1.390 . S
C763 C764 1.392 . S
C764 H736 0.929 . S
C764 C761 1.391 . S
C764 C763 1.392 . S
N765 Co709 2.250 1_455 S
N765 C762 1.391 . S
N765 C766 1.388 . S
C766 H737 0.930 . S
C766 C761 1.391 . S
C766 N765 1.388 . S
Co767 O769 2.143 . S
Co767 O775 2.074 . S
Co767 O778 2.093 . S
Co767 O791 2.097 . S
Co767 N808 2.151 . S
Co767 N816 2.199 1_655 S
Co768 O769 2.160 . S
Co768 O774 2.058 . S
Co768 O784 2.057 . S
Co768 O799 2.037 . S
Co768 N803 2.145 . S
Co768 N824 2.257 . S
O769 Co767 2.143 . S
O769 Co768 2.160 . S
C770 O771 1.278 . S
C770 O778 1.224 . S
O771 C770 1.278 . S
C772 O773 1.245 . S
C772 O784 1.232 . S
O773 C772 1.245 . S
O774 Co768 2.058 . S
O774 C800 1.269 . S
O775 Co767 2.074 . S
O775 C800 1.257 . S
H776 C801 0.930 . S
H777 C807 0.930 . S
O778 Co767 2.093 . S
O778 C770 1.224 . S
H779 C811 0.929 . S
H780 C813 0.930 . S
H781 C814 0.930 1_655 S
H782 C812 0.929 . S
H783 C815 0.928 . S
O784 Co768 2.057 . S
O784 C772 1.232 . S
H785 C804 0.929 . S
H786 C805 0.929 . S
H787 C817 0.931 . S
H788 C809 0.929 . S
H789 C818 0.930 . S
H790 C810 0.931 . S
O791 Co767 2.097 . S
O791 C819 1.214 . S
H792 C820 0.929 . S
H793 C821 0.929 . S
H794 C822 0.930 . S
H795 C823 0.929 . S
H796 C825 0.930 . S
H797 C802 0.930 . S
H798 C806 0.930 . S
O799 Co768 2.037 . S
O799 C819 1.234 . S
C800 O774 1.269 . S
C800 O775 1.257 . S
C801 H776 0.930 . S
C801 C804 1.388 . S
C801 C806 1.418 . S
C802 H797 0.930 . S
C802 C805 1.404 . S
C802 C806 1.353 . S
N803 Co768 2.145 . S
N803 C804 1.397 . S
N803 C805 1.334 . S
C804 H785 0.929 . S
C804 C801 1.388 . S
C804 N803 1.397 . S
C805 H786 0.929 . S
C805 C802 1.404 . S
C805 N803 1.334 . S
C806 H798 0.930 . S
C806 C801 1.418 . S
C806 C802 1.353 . S
C807 H777 0.930 . S
C807 N808 1.330 . S
C807 C809 1.446 . S
N808 Co767 2.151 . S
N808 C807 1.330 . S
N808 C812 1.418 1_655 S
C809 H788 0.929 . S
C809 C807 1.446 . S
C809 C810 1.332 1_655 S
C810 H790 0.931 . S
C810 C809 1.332 1_455 S
C810 C811 1.267 . S
C811 H779 0.929 . S
C811 C810 1.267 . S
C811 C812 1.251 . S
C812 H782 0.929 . S
C812 N808 1.418 1_455 S
C812 C811 1.251 . S
C813 H780 0.930 . S
C813 C815 1.406 . S
C813 C818 1.261 . S
C814 H781 0.930 1_455 S
C814 N816 1.328 . S
C814 C817 1.357 . S
C815 H783 0.928 . S
C815 C813 1.406 . S
C815 N816 1.274 . S
N816 Co767 2.199 1_455 S
N816 C814 1.328 . S
N816 C815 1.274 . S
C817 H787 0.931 . S
C817 C814 1.357 . S
C817 C818 1.312 . S
C818 H789 0.930 . S
C818 C813 1.261 . S
C818 C817 1.312 . S
C819 O791 1.214 . S
C819 O799 1.234 . S
C820 H792 0.929 . S
C820 C823 1.391 . S
C820 C825 1.391 . S
C821 H793 0.929 . S
C821 C822 1.390 . S
C821 N824 1.391 . S
C822 H794 0.930 . S
C822 C821 1.390 . S
C822 C823 1.392 . S
C823 H795 0.929 . S
C823 C820 1.391 . S
C823 C822 1.392 . S
N824 Co768 2.257 . S
N824 C821 1.391 . S
N824 C825 1.388 . S
C825 H796 0.930 . S
C825 C820 1.391 . S
C825 N824 1.388 . S
Co826 O828 2.143 . S
Co826 O834 2.074 . S
Co826 O837 2.093 . S
Co826 O850 2.097 . S
Co826 N867 2.151 . S
Co826 N875 2.214 . S
Co827 O828 2.166 . S
Co827 O833 2.066 . S
Co827 O843 2.052 1_655 S
Co827 O858 2.040 . S
Co827 N862 2.137 1_655 S
Co827 N883 2.249 1_655 S
O828 Co826 2.143 . S
O828 Co827 2.166 . S
C829 O830 1.278 . S
C829 O837 1.224 . S
O830 C829 1.278 . S
C831 O832 1.245 1_455 S
C831 O843 1.232 . S
O832 C831 1.245 1_655 S
O833 Co827 2.066 . S
O833 C859 1.269 . S
O834 Co826 2.074 . S
O834 C859 1.257 . S
H835 C860 0.930 . S
H836 C866 0.930 . S
O837 Co826 2.093 . S
O837 C829 1.224 . S
H838 C870 0.929 . S
H839 C872 0.930 . S
H840 C873 0.930 . S
H841 C871 0.929 . S
H842 C874 0.928 . S
O843 Co827 2.052 1_455 S
O843 C831 1.232 . S
H844 C863 0.929 . S
H845 C864 0.929 . S
H846 C876 0.931 . S
H847 C868 0.929 . S
H848 C877 0.930 . S
H849 C869 0.931 . S
O850 Co826 2.097 . S
O850 C878 1.214 . S
H851 C879 0.929 . S
H852 C880 0.929 . S
H853 C881 0.930 . S
H854 C882 0.929 . S
H855 C884 0.930 . S
H856 C861 0.930 . S
H857 C865 0.930 . S
O858 Co827 2.040 . S
O858 C878 1.234 . S
C859 O833 1.269 . S
C859 O834 1.257 . S
C860 H835 0.930 . S
C860 C863 1.388 . S
C860 C865 1.418 . S
C861 H856 0.930 . S
C861 C864 1.404 . S
C861 C865 1.353 . S
N862 Co827 2.137 1_455 S
N862 C863 1.397 . S
N862 C864 1.334 . S
C863 H844 0.929 . S
C863 C860 1.388 . S
C863 N862 1.397 . S
C864 H845 0.929 . S
C864 C861 1.404 . S
C864 N862 1.334 . S
C865 H857 0.930 . S
C865 C860 1.418 . S
C865 C861 1.353 . S
C866 H836 0.930 . S
C866 N867 1.330 . S
C866 C868 1.446 . S
N867 Co826 2.151 . S
N867 C866 1.330 . S
N867 C871 1.418 . S
C868 H847 0.929 . S
C868 C866 1.446 . S
C868 C869 1.332 . S
C869 H849 0.931 . S
C869 C868 1.332 . S
C869 C870 1.267 . S
C870 H838 0.929 . S
C870 C869 1.267 . S
C870 C871 1.251 . S
C871 H841 0.929 . S
C871 N867 1.418 . S
C871 C870 1.251 . S
C872 H839 0.930 . S
C872 C874 1.406 . S
C872 C877 1.261 . S
C873 H840 0.930 . S
C873 N875 1.325 . S
C873 C876 1.357 . S
C874 H842 0.928 . S
C874 C872 1.406 . S
C874 N875 1.261 . S
N875 Co826 2.214 . S
N875 C873 1.325 . S
N875 C874 1.261 . S
C876 H846 0.931 . S
C876 C873 1.357 . S
C876 C877 1.312 . S
C877 H848 0.930 . S
C877 C872 1.261 . S
C877 C876 1.312 . S
C878 O850 1.214 . S
C878 O858 1.234 . S
C879 H851 0.929 . S
C879 C882 1.391 . S
C879 C884 1.391 . S
C880 H852 0.929 . S
C880 C881 1.390 . S
C880 N883 1.391 . S
C881 H853 0.930 . S
C881 C880 1.390 . S
C881 C882 1.392 . S
C882 H854 0.929 . S
C882 C879 1.391 . S
C882 C881 1.392 . S
N883 Co827 2.249 1_455 S
N883 C880 1.391 . S
N883 C884 1.388 . S
C884 H855 0.930 . S
C884 C879 1.391 . S
C884 N883 1.388 . S
Co885 O887 2.143 . S
Co885 O893 2.074 . S
Co885 O896 2.093 . S
Co885 O909 2.097 . S
Co885 N926 2.151 . S
Co885 N934 2.210 1_655 S
Co886 O887 2.160 . S
Co886 O892 2.058 . S
Co886 O902 2.057 . S
Co886 O917 2.037 . S
Co886 N921 2.145 . S
Co886 N942 2.257 . S
O887 Co885 2.143 . S
O887 Co886 2.160 . S
C888 O889 1.278 . S
C888 O896 1.224 . S
O889 C888 1.278 . S
C890 O891 1.245 . S
C890 O902 1.232 . S
O891 C890 1.245 . S
O892 Co886 2.058 . S
O892 C918 1.269 . S
O893 Co885 2.074 . S
O893 C918 1.257 . S
H894 C919 0.930 . S
H895 C925 0.930 . S
O896 Co885 2.093 . S
O896 C888 1.224 . S
H897 C929 0.929 . S
H898 C931 0.930 . S
H899 C932 0.930 1_655 S
H900 C930 0.929 . S
H901 C933 0.928 . S
O902 Co886 2.057 . S
O902 C890 1.232 . S
H903 C922 0.929 . S
H904 C923 0.929 . S
H905 C935 0.931 . S
H906 C927 0.929 . S
H907 C936 0.930 . S
H908 C928 0.931 . S
O909 Co885 2.097 . S
O909 C937 1.214 . S
H910 C938 0.929 . S
H911 C939 0.929 . S
H912 C940 0.930 . S
H913 C941 0.929 . S
H914 C943 0.930 . S
H915 C920 0.930 . S
H916 C924 0.930 . S
O917 Co886 2.037 . S
O917 C937 1.234 . S
C918 O892 1.269 . S
C918 O893 1.257 . S
C919 H894 0.930 . S
C919 C922 1.388 . S
C919 C924 1.418 . S
C920 H915 0.930 . S
C920 C923 1.404 . S
C920 C924 1.353 . S
N921 Co886 2.145 . S
N921 C922 1.397 . S
N921 C923 1.334 . S
C922 H903 0.929 . S
C922 C919 1.388 . S
C922 N921 1.397 . S
C923 H904 0.929 . S
C923 C920 1.404 . S
C923 N921 1.334 . S
C924 H916 0.930 . S
C924 C919 1.418 . S
C924 C920 1.353 . S
C925 H895 0.930 . S
C925 N926 1.330 . S
C925 C927 1.446 . S
N926 Co885 2.151 . S
N926 C925 1.330 . S
N926 C930 1.418 1_655 S
C927 H906 0.929 . S
C927 C925 1.446 . S
C927 C928 1.332 1_655 S
C928 H908 0.931 . S
C928 C927 1.332 1_455 S
C928 C929 1.267 . S
C929 H897 0.929 . S
C929 C928 1.267 . S
C929 C930 1.251 . S
C930 H900 0.929 . S
C930 N926 1.418 1_455 S
C930 C929 1.251 . S
C931 H898 0.930 . S
C931 C933 1.406 . S
C931 C936 1.261 . S
C932 H899 0.930 1_455 S
C932 N934 1.326 . S
C932 C935 1.357 . S
C933 H901 0.928 . S
C933 C931 1.406 . S
C933 N934 1.265 . S
N934 Co885 2.210 1_455 S
N934 C932 1.326 . S
N934 C933 1.265 . S
C935 H905 0.931 . S
C935 C932 1.357 . S
C935 C936 1.312 . S
C936 H907 0.930 . S
C936 C931 1.261 . S
C936 C935 1.312 . S
C937 O909 1.214 . S
C937 O917 1.234 . S
C938 H910 0.929 . S
C938 C941 1.391 . S
C938 C943 1.391 . S
C939 H911 0.929 . S
C939 C940 1.390 . S
C939 N942 1.391 . S
C940 H912 0.930 . S
C940 C939 1.390 . S
C940 C941 1.392 . S
C941 H913 0.929 . S
C941 C938 1.391 . S
C941 C940 1.392 . S
N942 Co886 2.257 . S
N942 C939 1.391 . S
N942 C943 1.388 . S
C943 H914 0.930 . S
C943 C938 1.391 . S
C943 N942 1.388 . S
Co944 O946 2.143 . S
Co944 O952 2.074 . S
Co944 O955 2.093 . S
Co944 O968 2.097 . S
Co944 N985 2.151 . S
Co944 N993 2.214 . S
Co945 O946 2.160 . S
Co945 O951 2.058 . S
Co945 O961 2.057 . S
Co945 O976 2.037 . S
Co945 N980 2.145 . S
Co945 N1001 2.257 . S
O946 Co944 2.143 . S
O946 Co945 2.160 . S
C947 O948 1.278 . S
C947 O955 1.224 . S
O948 C947 1.278 . S
C949 O950 1.245 . S
C949 O961 1.232 . S
O950 C949 1.245 . S
O951 Co945 2.058 . S
O951 C977 1.269 . S
O952 Co944 2.074 . S
O952 C977 1.257 . S
H953 C978 0.930 . S
H954 C984 0.930 . S
O955 Co944 2.093 . S
O955 C947 1.224 . S
H956 C988 0.929 . S
H957 C990 0.930 . S
H958 C991 0.930 . S
H959 C989 0.929 . S
H960 C992 0.928 . S
O961 Co945 2.057 . S
O961 C949 1.232 . S
H962 C981 0.929 . S
H963 C982 0.929 . S
H964 C994 0.931 . S
H965 C986 0.929 . S
H966 C995 0.930 . S
H967 C987 0.931 . S
O968 Co944 2.097 . S
O968 C996 1.214 . S
H969 C997 0.929 . S
H970 C998 0.929 . S
H971 C999 0.930 . S
H972 C1000 0.929 . S
H973 C1002 0.930 . S
H974 C979 0.930 . S
H975 C983 0.930 . S
O976 Co945 2.037 . S
O976 C996 1.234 . S
C977 O951 1.269 . S
C977 O952 1.257 . S
C978 H953 0.930 . S
C978 C981 1.388 . S
C978 C983 1.418 . S
C979 H974 0.930 . S
C979 C982 1.404 . S
C979 C983 1.353 . S
N980 Co945 2.145 . S
N980 C981 1.397 . S
N980 C982 1.334 . S
C981 H962 0.929 . S
C981 C978 1.388 . S
C981 N980 1.397 . S
C982 H963 0.929 . S
C982 C979 1.404 . S
C982 N980 1.334 . S
C983 H975 0.930 . S
C983 C978 1.418 . S
C983 C979 1.353 . S
C984 H954 0.930 . S
C984 N985 1.330 . S
C984 C986 1.446 . S
N985 Co944 2.151 . S
N985 C984 1.330 . S
N985 C989 1.418 . S
C986 H965 0.929 . S
C986 C984 1.446 . S
C986 C987 1.332 . S
C987 H967 0.931 . S
C987 C986 1.332 . S
C987 C988 1.267 . S
C988 H956 0.929 . S
C988 C987 1.267 . S
C988 C989 1.251 . S
C989 H959 0.929 . S
C989 N985 1.418 . S
C989 C988 1.251 . S
C990 H957 0.930 . S
C990 C992 1.406 . S
C990 C995 1.261 . S
C991 H958 0.930 . S
C991 N993 1.325 . S
C991 C994 1.357 . S
C992 H960 0.928 . S
C992 C990 1.406 . S
C992 N993 1.261 . S
N993 Co944 2.214 . S
N993 C991 1.325 . S
N993 C992 1.261 . S
C994 H964 0.931 . S
C994 C991 1.357 . S
C994 C995 1.312 . S
C995 H966 0.930 . S
C995 C990 1.261 . S
C995 C994 1.312 . S
C996 O968 1.214 . S
C996 O976 1.234 . S
C997 H969 0.929 . S
C997 C1000 1.391 . S
C997 C1002 1.391 . S
C998 H970 0.929 . S
C998 C999 1.390 . S
C998 N1001 1.391 . S
C999 H971 0.930 . S
C999 C998 1.390 . S
C999 C1000 1.392 . S
C1000 H972 0.929 . S
C1000 C997 1.391 . S
C1000 C999 1.392 . S
N1001 Co945 2.257 . S
N1001 C998 1.391 . S
N1001 C1002 1.388 . S
C1002 H973 0.930 . S
C1002 C997 1.391 . S
C1002 N1001 1.388 . S
Co1003 O1005 2.143 . S
Co1003 O1011 2.074 . S
Co1003 O1014 2.093 . S
Co1003 O1027 2.097 . S
Co1003 N1044 2.151 . S
Co1003 N1052 2.214 . S
Co1004 O1005 2.160 . S
Co1004 O1010 2.058 . S
Co1004 O1020 2.057 . S
Co1004 O1035 2.037 . S
Co1004 N1039 2.145 . S
Co1004 N1060 2.257 . S
O1005 Co1003 2.143 . S
O1005 Co1004 2.160 . S
C1006 O1007 1.278 . S
C1006 O1014 1.224 . S
O1007 C1006 1.278 . S
C1008 O1009 1.245 . S
C1008 O1020 1.232 . S
O1009 C1008 1.245 . S
O1010 Co1004 2.058 . S
O1010 C1036 1.269 . S
O1011 Co1003 2.074 . S
O1011 C1036 1.257 . S
H1012 C1037 0.930 . S
H1013 C1043 0.930 . S
O1014 Co1003 2.093 . S
O1014 C1006 1.224 . S
H1015 C1047 0.929 . S
H1016 C1049 0.930 . S
H1017 C1050 0.930 . S
H1018 C1048 0.929 . S
H1019 C1051 0.928 . S
O1020 Co1004 2.057 . S
O1020 C1008 1.232 . S
H1021 C1040 0.929 . S
H1022 C1041 0.929 . S
H1023 C1053 0.931 . S
H1024 C1045 0.929 . S
H1025 C1054 0.930 . S
H1026 C1046 0.931 . S
O1027 Co1003 2.097 . S
O1027 C1055 1.214 . S
H1028 C1056 0.929 . S
H1029 C1057 0.929 . S
H1030 C1058 0.930 . S
H1031 C1059 0.929 . S
H1032 C1061 0.930 . S
H1033 C1038 0.930 . S
H1034 C1042 0.930 . S
O1035 Co1004 2.037 . S
O1035 C1055 1.234 . S
C1036 O1010 1.269 . S
C1036 O1011 1.257 . S
C1037 H1012 0.930 . S
C1037 C1040 1.388 . S
C1037 C1042 1.418 . S
C1038 H1033 0.930 . S
C1038 C1041 1.404 . S
C1038 C1042 1.353 . S
N1039 Co1004 2.145 . S
N1039 C1040 1.397 . S
N1039 C1041 1.334 . S
C1040 H1021 0.929 . S
C1040 C1037 1.388 . S
C1040 N1039 1.397 . S
C1041 H1022 0.929 . S
C1041 C1038 1.404 . S
C1041 N1039 1.334 . S
C1042 H1034 0.930 . S
C1042 C1037 1.418 . S
C1042 C1038 1.353 . S
C1043 H1013 0.930 . S
C1043 N1044 1.330 . S
C1043 C1045 1.446 . S
N1044 Co1003 2.151 . S
N1044 C1043 1.330 . S
N1044 C1048 1.418 . S
C1045 H1024 0.929 . S
C1045 C1043 1.446 . S
C1045 C1046 1.332 . S
C1046 H1026 0.931 . S
C1046 C1045 1.332 . S
C1046 C1047 1.267 . S
C1047 H1015 0.929 . S
C1047 C1046 1.267 . S
C1047 C1048 1.251 . S
C1048 H1018 0.929 . S
C1048 N1044 1.418 . S
C1048 C1047 1.251 . S
C1049 H1016 0.930 . S
C1049 C1051 1.406 . S
C1049 C1054 1.261 . S
C1050 H1017 0.930 . S
C1050 N1052 1.325 . S
C1050 C1053 1.357 . S
C1051 H1019 0.928 . S
C1051 C1049 1.406 . S
C1051 N1052 1.261 . S
N1052 Co1003 2.214 . S
N1052 C1050 1.325 . S
N1052 C1051 1.261 . S
C1053 H1023 0.931 . S
C1053 C1050 1.357 . S
C1053 C1054 1.312 . S
C1054 H1025 0.930 . S
C1054 C1049 1.261 . S
C1054 C1053 1.312 . S
C1055 O1027 1.214 . S
C1055 O1035 1.234 . S
C1056 H1028 0.929 . S
C1056 C1059 1.391 . S
C1056 C1061 1.391 . S
C1057 H1029 0.929 . S
C1057 C1058 1.390 . S
C1057 N1060 1.391 . S
C1058 H1030 0.930 . S
C1058 C1057 1.390 . S
C1058 C1059 1.392 . S
C1059 H1031 0.929 . S
C1059 C1056 1.391 . S
C1059 C1058 1.392 . S
N1060 Co1004 2.257 . S
N1060 C1057 1.391 . S
N1060 C1061 1.388 . S
C1061 H1032 0.930 . S
C1061 C1056 1.391 . S
C1061 N1060 1.388 . S
Co1062 O1064 2.143 . S
Co1062 O1070 2.074 . S
Co1062 O1073 2.093 . S
Co1062 O1086 2.097 . S
Co1062 N1103 2.151 . S
Co1062 N1111 2.214 . S
Co1063 O1064 2.160 . S
Co1063 O1069 2.058 . S
Co1063 O1079 2.057 . S
Co1063 O1094 2.037 . S
Co1063 N1098 2.145 . S
Co1063 N1119 2.257 . S
O1064 Co1062 2.143 . S
O1064 Co1063 2.160 . S
C1065 O1066 1.278 . S
C1065 O1073 1.224 . S
O1066 C1065 1.278 . S
C1067 O1068 1.245 . S
C1067 O1079 1.232 . S
O1068 C1067 1.245 . S
O1069 Co1063 2.058 . S
O1069 C1095 1.269 . S
O1070 Co1062 2.074 . S
O1070 C1095 1.257 . S
H1071 C1096 0.930 . S
H1072 C1102 0.930 . S
O1073 Co1062 2.093 . S
O1073 C1065 1.224 . S
H1074 C1106 0.929 . S
H1075 C1108 0.930 . S
H1076 C1109 0.930 . S
H1077 C1107 0.929 . S
H1078 C1110 0.928 . S
O1079 Co1063 2.057 . S
O1079 C1067 1.232 . S
H1080 C1099 0.929 . S
H1081 C1100 0.929 . S
H1082 C1112 0.931 . S
H1083 C1104 0.929 . S
H1084 C1113 0.930 . S
H1085 C1105 0.931 . S
O1086 Co1062 2.097 . S
O1086 C1114 1.214 . S
H1087 C1115 0.929 . S
H1088 C1116 0.929 . S
H1089 C1117 0.930 . S
H1090 C1118 0.929 . S
H1091 C1120 0.930 . S
H1092 C1097 0.930 . S
H1093 C1101 0.930 . S
O1094 Co1063 2.037 . S
O1094 C1114 1.234 . S
C1095 O1069 1.269 . S
C1095 O1070 1.257 . S
C1096 H1071 0.930 . S
C1096 C1099 1.388 . S
C1096 C1101 1.418 . S
C1097 H1092 0.930 . S
C1097 C1100 1.404 . S
C1097 C1101 1.353 . S
N1098 Co1063 2.145 . S
N1098 C1099 1.397 . S
N1098 C1100 1.334 . S
C1099 H1080 0.929 . S
C1099 C1096 1.388 . S
C1099 N1098 1.397 . S
C1100 H1081 0.929 . S
C1100 C1097 1.404 . S
C1100 N1098 1.334 . S
C1101 H1093 0.930 . S
C1101 C1096 1.418 . S
C1101 C1097 1.353 . S
C1102 H1072 0.930 . S
C1102 N1103 1.330 . S
C1102 C1104 1.446 . S
N1103 Co1062 2.151 . S
N1103 C1102 1.330 . S
N1103 C1107 1.418 . S
C1104 H1083 0.929 . S
C1104 C1102 1.446 . S
C1104 C1105 1.332 . S
C1105 H1085 0.931 . S
C1105 C1104 1.332 . S
C1105 C1106 1.267 . S
C1106 H1074 0.929 . S
C1106 C1105 1.267 . S
C1106 C1107 1.251 . S
C1107 H1077 0.929 . S
C1107 N1103 1.418 . S
C1107 C1106 1.251 . S
C1108 H1075 0.930 . S
C1108 C1110 1.406 . S
C1108 C1113 1.261 . S
C1109 H1076 0.930 . S
C1109 N1111 1.325 . S
C1109 C1112 1.357 . S
C1110 H1078 0.928 . S
C1110 C1108 1.406 . S
C1110 N1111 1.261 . S
N1111 Co1062 2.214 . S
N1111 C1109 1.325 . S
N1111 C1110 1.261 . S
C1112 H1082 0.931 . S
C1112 C1109 1.357 . S
C1112 C1113 1.312 . S
C1113 H1084 0.930 . S
C1113 C1108 1.261 . S
C1113 C1112 1.312 . S
C1114 O1086 1.214 . S
C1114 O1094 1.234 . S
C1115 H1087 0.929 . S
C1115 C1118 1.391 . S
C1115 C1120 1.391 . S
C1116 H1088 0.929 . S
C1116 C1117 1.390 . S
C1116 N1119 1.391 . S
C1117 H1089 0.930 . S
C1117 C1116 1.390 . S
C1117 C1118 1.392 . S
C1118 H1090 0.929 . S
C1118 C1115 1.391 . S
C1118 C1117 1.392 . S
N1119 Co1063 2.257 . S
N1119 C1116 1.391 . S
N1119 C1120 1.388 . S
C1120 H1091 0.930 . S
C1120 C1115 1.391 . S
C1120 N1119 1.388 . S
Co1121 O1123 2.143 . S
Co1121 O1129 2.074 . S
Co1121 O1132 2.093 . S
Co1121 O1145 2.097 . S
Co1121 N1162 2.151 . S
Co1121 N1170 2.214 . S
Co1122 O1123 2.160 . S
Co1122 O1128 2.058 . S
Co1122 O1138 2.057 . S
Co1122 O1153 2.037 . S
Co1122 N1157 2.145 . S
Co1122 N1178 2.257 . S
O1123 Co1121 2.143 . S
O1123 Co1122 2.160 . S
C1124 O1125 1.278 . S
C1124 O1132 1.224 . S
O1125 C1124 1.278 . S
C1126 O1127 1.245 . S
C1126 O1138 1.232 . S
O1127 C1126 1.245 . S
O1128 Co1122 2.058 . S
O1128 C1154 1.269 . S
O1129 Co1121 2.074 . S
O1129 C1154 1.257 . S
H1130 C1155 0.930 . S
H1131 C1161 0.930 . S
O1132 Co1121 2.093 . S
O1132 C1124 1.224 . S
H1133 C1165 0.929 . S
H1134 C1167 0.930 . S
H1135 C1168 0.930 . S
H1136 C1166 0.929 . S
H1137 C1169 0.928 . S
O1138 Co1122 2.057 . S
O1138 C1126 1.232 . S
H1139 C1158 0.929 . S
H1140 C1159 0.929 . S
H1141 C1171 0.931 . S
H1142 C1163 0.929 . S
H1143 C1172 0.930 . S
H1144 C1164 0.931 . S
O1145 Co1121 2.097 . S
O1145 C1173 1.214 . S
H1146 C1174 0.929 . S
H1147 C1175 0.929 . S
H1148 C1176 0.930 . S
H1149 C1177 0.929 . S
H1150 C1179 0.930 . S
H1151 C1156 0.930 . S
H1152 C1160 0.930 . S
O1153 Co1122 2.037 . S
O1153 C1173 1.234 . S
C1154 O1128 1.269 . S
C1154 O1129 1.257 . S
C1155 H1130 0.930 . S
C1155 C1158 1.388 . S
C1155 C1160 1.418 . S
C1156 H1151 0.930 . S
C1156 C1159 1.404 . S
C1156 C1160 1.353 . S
N1157 Co1122 2.145 . S
N1157 C1158 1.397 . S
N1157 C1159 1.334 . S
C1158 H1139 0.929 . S
C1158 C1155 1.388 . S
C1158 N1157 1.397 . S
C1159 H1140 0.929 . S
C1159 C1156 1.404 . S
C1159 N1157 1.334 . S
C1160 H1152 0.930 . S
C1160 C1155 1.418 . S
C1160 C1156 1.353 . S
C1161 H1131 0.930 . S
C1161 N1162 1.330 . S
C1161 C1163 1.446 . S
N1162 Co1121 2.151 . S
N1162 C1161 1.330 . S
N1162 C1166 1.418 . S
C1163 H1142 0.929 . S
C1163 C1161 1.446 . S
C1163 C1164 1.332 . S
C1164 H1144 0.931 . S
C1164 C1163 1.332 . S
C1164 C1165 1.267 . S
C1165 H1133 0.929 . S
C1165 C1164 1.267 . S
C1165 C1166 1.251 . S
C1166 H1136 0.929 . S
C1166 N1162 1.418 . S
C1166 C1165 1.251 . S
C1167 H1134 0.930 . S
C1167 C1169 1.406 . S
C1167 C1172 1.261 . S
C1168 H1135 0.930 . S
C1168 N1170 1.325 . S
C1168 C1171 1.357 . S
C1169 H1137 0.928 . S
C1169 C1167 1.406 . S
C1169 N1170 1.261 . S
N1170 Co1121 2.214 . S
N1170 C1168 1.325 . S
N1170 C1169 1.261 . S
C1171 H1141 0.931 . S
C1171 C1168 1.357 . S
C1171 C1172 1.312 . S
C1172 H1143 0.930 . S
C1172 C1167 1.261 . S
C1172 C1171 1.312 . S
C1173 O1145 1.214 . S
C1173 O1153 1.234 . S
C1174 H1146 0.929 . S
C1174 C1177 1.391 . S
C1174 C1179 1.391 . S
C1175 H1147 0.929 . S
C1175 C1176 1.390 . S
C1175 N1178 1.391 . S
C1176 H1148 0.930 . S
C1176 C1175 1.390 . S
C1176 C1177 1.392 . S
C1177 H1149 0.929 . S
C1177 C1174 1.391 . S
C1177 C1176 1.392 . S
N1178 Co1122 2.257 . S
N1178 C1175 1.391 . S
N1178 C1179 1.388 . S
C1179 H1150 0.930 . S
C1179 C1174 1.391 . S
C1179 N1178 1.388 . S
Co1180 O1182 2.143 . S
Co1180 O1188 2.074 . S
Co1180 O1191 2.093 . S
Co1180 O1204 2.097 . S
Co1180 N1221 2.151 . S
Co1180 N1229 2.214 . S
Co1181 O1182 2.160 . S
Co1181 O1187 2.058 . S
Co1181 O1197 2.057 . S
Co1181 O1212 2.037 . S
Co1181 N1216 2.145 . S
Co1181 N1237 2.257 . S
O1182 Co1180 2.143 . S
O1182 Co1181 2.160 . S
C1183 O1184 1.278 . S
C1183 O1191 1.224 . S
O1184 C1183 1.278 . S
C1185 O1186 1.245 . S
C1185 O1197 1.232 . S
O1186 C1185 1.245 . S
O1187 Co1181 2.058 . S
O1187 C1213 1.269 . S
O1188 Co1180 2.074 . S
O1188 C1213 1.257 . S
H1189 C1214 0.930 . S
H1190 C1220 0.930 . S
O1191 Co1180 2.093 . S
O1191 C1183 1.224 . S
H1192 C1224 0.929 . S
H1193 C1226 0.930 . S
H1194 C1227 0.930 . S
H1195 C1225 0.929 . S
H1196 C1228 0.928 . S
O1197 Co1181 2.057 . S
O1197 C1185 1.232 . S
H1198 C1217 0.929 . S
H1199 C1218 0.929 . S
H1200 C1230 0.931 . S
H1201 C1222 0.929 . S
H1202 C1231 0.930 . S
H1203 C1223 0.931 . S
O1204 Co1180 2.097 . S
O1204 C1232 1.214 . S
H1205 C1233 0.929 . S
H1206 C1234 0.929 . S
H1207 C1235 0.930 . S
H1208 C1236 0.929 . S
H1209 C1238 0.930 . S
H1210 C1215 0.930 . S
H1211 C1219 0.930 . S
O1212 Co1181 2.037 . S
O1212 C1232 1.234 . S
C1213 O1187 1.269 . S
C1213 O1188 1.257 . S
C1214 H1189 0.930 . S
C1214 C1217 1.388 . S
C1214 C1219 1.418 . S
C1215 H1210 0.930 . S
C1215 C1218 1.404 . S
C1215 C1219 1.353 . S
N1216 Co1181 2.145 . S
N1216 C1217 1.397 . S
N1216 C1218 1.334 . S
C1217 H1198 0.929 . S
C1217 C1214 1.388 . S
C1217 N1216 1.397 . S
C1218 H1199 0.929 . S
C1218 C1215 1.404 . S
C1218 N1216 1.334 . S
C1219 H1211 0.930 . S
C1219 C1214 1.418 . S
C1219 C1215 1.353 . S
C1220 H1190 0.930 . S
C1220 N1221 1.330 . S
C1220 C1222 1.446 . S
N1221 Co1180 2.151 . S
N1221 C1220 1.330 . S
N1221 C1225 1.418 . S
C1222 H1201 0.929 . S
C1222 C1220 1.446 . S
C1222 C1223 1.332 . S
C1223 H1203 0.931 . S
C1223 C1222 1.332 . S
C1223 C1224 1.267 . S
C1224 H1192 0.929 . S
C1224 C1223 1.267 . S
C1224 C1225 1.251 . S
C1225 H1195 0.929 . S
C1225 N1221 1.418 . S
C1225 C1224 1.251 . S
C1226 H1193 0.930 . S
C1226 C1228 1.406 . S
C1226 C1231 1.261 . S
C1227 H1194 0.930 . S
C1227 N1229 1.325 . S
C1227 C1230 1.357 . S
C1228 H1196 0.928 . S
C1228 C1226 1.406 . S
C1228 N1229 1.261 . S
N1229 Co1180 2.214 . S
N1229 C1227 1.325 . S
N1229 C1228 1.261 . S
C1230 H1200 0.931 . S
C1230 C1227 1.357 . S
C1230 C1231 1.312 . S
C1231 H1202 0.930 . S
C1231 C1226 1.261 . S
C1231 C1230 1.312 . S
C1232 O1204 1.214 . S
C1232 O1212 1.234 . S
C1233 H1205 0.929 . S
C1233 C1236 1.391 . S
C1233 C1238 1.391 . S
C1234 H1206 0.929 . S
C1234 C1235 1.390 . S
C1234 N1237 1.391 . S
C1235 H1207 0.930 . S
C1235 C1234 1.390 . S
C1235 C1236 1.392 . S
C1236 H1208 0.929 . S
C1236 C1233 1.391 . S
C1236 C1235 1.392 . S
N1237 Co1181 2.257 . S
N1237 C1234 1.391 . S
N1237 C1238 1.388 . S
C1238 H1209 0.930 . S
C1238 C1233 1.391 . S
C1238 N1237 1.388 . S
Co1239 O1241 2.143 . S
Co1239 O1247 2.074 . S
Co1239 O1250 2.093 . S
Co1239 O1263 2.097 . S
Co1239 N1280 2.151 . S
Co1239 N1288 2.214 . S
Co1240 O1241 2.160 . S
Co1240 O1246 2.058 . S
Co1240 O1256 2.057 . S
Co1240 O1271 2.037 . S
Co1240 N1275 2.145 . S
Co1240 N1296 2.257 . S
O1241 Co1239 2.143 . S
O1241 Co1240 2.160 . S
C1242 O1243 1.278 . S
C1242 O1250 1.224 . S
O1243 C1242 1.278 . S
C1244 O1245 1.245 . S
C1244 O1256 1.232 . S
O1245 C1244 1.245 . S
O1246 Co1240 2.058 . S
O1246 C1272 1.269 . S
O1247 Co1239 2.074 . S
O1247 C1272 1.257 . S
H1248 C1273 0.930 . S
H1249 C1279 0.930 . S
O1250 Co1239 2.093 . S
O1250 C1242 1.224 . S
H1251 C1283 0.929 . S
H1252 C1285 0.930 . S
H1253 C1286 0.930 . S
H1254 C1284 0.929 . S
H1255 C1287 0.928 . S
O1256 Co1240 2.057 . S
O1256 C1244 1.232 . S
H1257 C1276 0.929 . S
H1258 C1277 0.929 . S
H1259 C1289 0.931 . S
H1260 C1281 0.929 . S
H1261 C1290 0.930 . S
H1262 C1282 0.931 . S
O1263 Co1239 2.097 . S
O1263 C1291 1.214 . S
H1264 C1292 0.929 . S
H1265 C1293 0.929 . S
H1266 C1294 0.930 . S
H1267 C1295 0.929 . S
H1268 C1297 0.930 . S
H1269 C1274 0.930 . S
H1270 C1278 0.930 . S
O1271 Co1240 2.037 . S
O1271 C1291 1.234 . S
C1272 O1246 1.269 . S
C1272 O1247 1.257 . S
C1273 H1248 0.930 . S
C1273 C1276 1.388 . S
C1273 C1278 1.418 . S
C1274 H1269 0.930 . S
C1274 C1277 1.404 . S
C1274 C1278 1.353 . S
N1275 Co1240 2.145 . S
N1275 C1276 1.397 . S
N1275 C1277 1.334 . S
C1276 H1257 0.929 . S
C1276 C1273 1.388 . S
C1276 N1275 1.397 . S
C1277 H1258 0.929 . S
C1277 C1274 1.404 . S
C1277 N1275 1.334 . S
C1278 H1270 0.930 . S
C1278 C1273 1.418 . S
C1278 C1274 1.353 . S
C1279 H1249 0.930 . S
C1279 N1280 1.330 . S
C1279 C1281 1.446 . S
N1280 Co1239 2.151 . S
N1280 C1279 1.330 . S
N1280 C1284 1.418 . S
C1281 H1260 0.929 . S
C1281 C1279 1.446 . S
C1281 C1282 1.332 . S
C1282 H1262 0.931 . S
C1282 C1281 1.332 . S
C1282 C1283 1.267 . S
C1283 H1251 0.929 . S
C1283 C1282 1.267 . S
C1283 C1284 1.251 . S
C1284 H1254 0.929 . S
C1284 N1280 1.418 . S
C1284 C1283 1.251 . S
C1285 H1252 0.930 . S
C1285 C1287 1.406 . S
C1285 C1290 1.261 . S
C1286 H1253 0.930 . S
C1286 N1288 1.325 . S
C1286 C1289 1.357 . S
C1287 H1255 0.928 . S
C1287 C1285 1.406 . S
C1287 N1288 1.261 . S
N1288 Co1239 2.214 . S
N1288 C1286 1.325 . S
N1288 C1287 1.261 . S
C1289 H1259 0.931 . S
C1289 C1286 1.357 . S
C1289 C1290 1.312 . S
C1290 H1261 0.930 . S
C1290 C1285 1.261 . S
C1290 C1289 1.312 . S
C1291 O1263 1.214 . S
C1291 O1271 1.234 . S
C1292 H1264 0.929 . S
C1292 C1295 1.391 . S
C1292 C1297 1.391 . S
C1293 H1265 0.929 . S
C1293 C1294 1.390 . S
C1293 N1296 1.391 . S
C1294 H1266 0.930 . S
C1294 C1293 1.390 . S
C1294 C1295 1.392 . S
C1295 H1267 0.929 . S
C1295 C1292 1.391 . S
C1295 C1294 1.392 . S
N1296 Co1240 2.257 . S
N1296 C1293 1.391 . S
N1296 C1297 1.388 . S
C1297 H1268 0.930 . S
C1297 C1292 1.391 . S
C1297 N1296 1.388 . S
Co1298 O1300 2.143 . S
Co1298 O1306 2.074 . S
Co1298 O1309 2.093 . S
Co1298 O1322 2.097 . S
Co1298 N1339 2.151 . S
Co1298 N1347 2.214 . S
Co1299 O1300 2.160 . S
Co1299 O1305 2.058 . S
Co1299 O1315 2.057 . S
Co1299 O1330 2.037 . S
Co1299 N1334 2.145 . S
Co1299 N1355 2.257 . S
O1300 Co1298 2.143 . S
O1300 Co1299 2.160 . S
C1301 O1302 1.278 . S
C1301 O1309 1.224 . S
O1302 C1301 1.278 . S
C1303 O1304 1.245 . S
C1303 O1315 1.232 . S
O1304 C1303 1.245 . S
O1305 Co1299 2.058 . S
O1305 C1331 1.269 . S
O1306 Co1298 2.074 . S
O1306 C1331 1.257 . S
H1307 C1332 0.930 . S
H1308 C1338 0.930 . S
O1309 Co1298 2.093 . S
O1309 C1301 1.224 . S
H1310 C1342 0.929 . S
H1311 C1344 0.930 . S
H1312 C1345 0.930 . S
H1313 C1343 0.929 . S
H1314 C1346 0.928 . S
O1315 Co1299 2.057 . S
O1315 C1303 1.232 . S
H1316 C1335 0.929 . S
H1317 C1336 0.929 . S
H1318 C1348 0.931 . S
H1319 C1340 0.929 . S
H1320 C1349 0.930 . S
H1321 C1341 0.931 . S
O1322 Co1298 2.097 . S
O1322 C1350 1.214 . S
H1323 C1351 0.929 . S
H1324 C1352 0.929 . S
H1325 C1353 0.930 . S
H1326 C1354 0.929 . S
H1327 C1356 0.930 . S
H1328 C1333 0.930 . S
H1329 C1337 0.930 . S
O1330 Co1299 2.037 . S
O1330 C1350 1.234 . S
C1331 O1305 1.269 . S
C1331 O1306 1.257 . S
C1332 H1307 0.930 . S
C1332 C1335 1.388 . S
C1332 C1337 1.418 . S
C1333 H1328 0.930 . S
C1333 C1336 1.404 . S
C1333 C1337 1.353 . S
N1334 Co1299 2.145 . S
N1334 C1335 1.397 . S
N1334 C1336 1.334 . S
C1335 H1316 0.929 . S
C1335 C1332 1.388 . S
C1335 N1334 1.397 . S
C1336 H1317 0.929 . S
C1336 C1333 1.404 . S
C1336 N1334 1.334 . S
C1337 H1329 0.930 . S
C1337 C1332 1.418 . S
C1337 C1333 1.353 . S
C1338 H1308 0.930 . S
C1338 N1339 1.330 . S
C1338 C1340 1.446 . S
N1339 Co1298 2.151 . S
N1339 C1338 1.330 . S
N1339 C1343 1.418 . S
C1340 H1319 0.929 . S
C1340 C1338 1.446 . S
C1340 C1341 1.332 . S
C1341 H1321 0.931 . S
C1341 C1340 1.332 . S
C1341 C1342 1.267 . S
C1342 H1310 0.929 . S
C1342 C1341 1.267 . S
C1342 C1343 1.251 . S
C1343 H1313 0.929 . S
C1343 N1339 1.418 . S
C1343 C1342 1.251 . S
C1344 H1311 0.930 . S
C1344 C1346 1.406 . S
C1344 C1349 1.261 . S
C1345 H1312 0.930 . S
C1345 N1347 1.325 . S
C1345 C1348 1.357 . S
C1346 H1314 0.928 . S
C1346 C1344 1.406 . S
C1346 N1347 1.261 . S
N1347 Co1298 2.214 . S
N1347 C1345 1.325 . S
N1347 C1346 1.261 . S
C1348 H1318 0.931 . S
C1348 C1345 1.357 . S
C1348 C1349 1.312 . S
C1349 H1320 0.930 . S
C1349 C1344 1.261 . S
C1349 C1348 1.312 . S
C1350 O1322 1.214 . S
C1350 O1330 1.234 . S
C1351 H1323 0.929 . S
C1351 C1354 1.391 . S
C1351 C1356 1.391 . S
C1352 H1324 0.929 . S
C1352 C1353 1.390 . S
C1352 N1355 1.391 . S
C1353 H1325 0.930 . S
C1353 C1352 1.390 . S
C1353 C1354 1.392 . S
C1354 H1326 0.929 . S
C1354 C1351 1.391 . S
C1354 C1353 1.392 . S
N1355 Co1299 2.257 . S
N1355 C1352 1.391 . S
N1355 C1356 1.388 . S
C1356 H1327 0.930 . S
C1356 C1351 1.391 . S
C1356 N1355 1.388 . S
Co1357 O1359 2.143 . S
Co1357 O1365 2.074 . S
Co1357 O1368 2.093 . S
Co1357 O1381 2.097 . S
Co1357 N1398 2.151 . S
Co1357 N1406 2.214 . S
Co1358 O1359 2.160 . S
Co1358 O1364 2.058 . S
Co1358 O1374 2.057 . S
Co1358 O1389 2.037 . S
Co1358 N1393 2.145 . S
Co1358 N1414 2.257 . S
O1359 Co1357 2.143 . S
O1359 Co1358 2.160 . S
C1360 O1361 1.278 . S
C1360 O1368 1.224 . S
O1361 C1360 1.278 . S
C1362 O1363 1.245 . S
C1362 O1374 1.232 . S
O1363 C1362 1.245 . S
O1364 Co1358 2.058 . S
O1364 C1390 1.269 . S
O1365 Co1357 2.074 . S
O1365 C1390 1.257 . S
H1366 C1391 0.930 . S
H1367 C1397 0.930 . S
O1368 Co1357 2.093 . S
O1368 C1360 1.224 . S
H1369 C1401 0.929 . S
H1370 C1403 0.930 . S
H1371 C1404 0.930 . S
H1372 C1402 0.929 . S
H1373 C1405 0.928 . S
O1374 Co1358 2.057 . S
O1374 C1362 1.232 . S
H1375 C1394 0.929 . S
H1376 C1395 0.929 . S
H1377 C1407 0.931 . S
H1378 C1399 0.929 . S
H1379 C1408 0.930 . S
H1380 C1400 0.931 . S
O1381 Co1357 2.097 . S
O1381 C1409 1.214 . S
H1382 C1410 0.929 . S
H1383 C1411 0.929 . S
H1384 C1412 0.930 . S
H1385 C1413 0.929 . S
H1386 C1415 0.930 . S
H1387 C1392 0.930 . S
H1388 C1396 0.930 . S
O1389 Co1358 2.037 . S
O1389 C1409 1.234 . S
C1390 O1364 1.269 . S
C1390 O1365 1.257 . S
C1391 H1366 0.930 . S
C1391 C1394 1.388 . S
C1391 C1396 1.418 . S
C1392 H1387 0.930 . S
C1392 C1395 1.404 . S
C1392 C1396 1.353 . S
N1393 Co1358 2.145 . S
N1393 C1394 1.397 . S
N1393 C1395 1.334 . S
C1394 H1375 0.929 . S
C1394 C1391 1.388 . S
C1394 N1393 1.397 . S
C1395 H1376 0.929 . S
C1395 C1392 1.404 . S
C1395 N1393 1.334 . S
C1396 H1388 0.930 . S
C1396 C1391 1.418 . S
C1396 C1392 1.353 . S
C1397 H1367 0.930 . S
C1397 N1398 1.330 . S
C1397 C1399 1.446 . S
N1398 Co1357 2.151 . S
N1398 C1397 1.330 . S
N1398 C1402 1.418 . S
C1399 H1378 0.929 . S
C1399 C1397 1.446 . S
C1399 C1400 1.332 . S
C1400 H1380 0.931 . S
C1400 C1399 1.332 . S
C1400 C1401 1.267 . S
C1401 H1369 0.929 . S
C1401 C1400 1.267 . S
C1401 C1402 1.251 . S
C1402 H1372 0.929 . S
C1402 N1398 1.418 . S
C1402 C1401 1.251 . S
C1403 H1370 0.930 . S
C1403 C1405 1.406 . S
C1403 C1408 1.261 . S
C1404 H1371 0.930 . S
C1404 N1406 1.325 . S
C1404 C1407 1.357 . S
C1405 H1373 0.928 . S
C1405 C1403 1.406 . S
C1405 N1406 1.261 . S
N1406 Co1357 2.214 . S
N1406 C1404 1.325 . S
N1406 C1405 1.261 . S
C1407 H1377 0.931 . S
C1407 C1404 1.357 . S
C1407 C1408 1.312 . S
C1408 H1379 0.930 . S
C1408 C1403 1.261 . S
C1408 C1407 1.312 . S
C1409 O1381 1.214 . S
C1409 O1389 1.234 . S
C1410 H1382 0.929 . S
C1410 C1413 1.391 . S
C1410 C1415 1.391 . S
C1411 H1383 0.929 . S
C1411 C1412 1.390 . S
C1411 N1414 1.391 . S
C1412 H1384 0.930 . S
C1412 C1411 1.390 . S
C1412 C1413 1.392 . S
C1413 H1385 0.929 . S
C1413 C1410 1.391 . S
C1413 C1412 1.392 . S
N1414 Co1358 2.257 . S
N1414 C1411 1.391 . S
N1414 C1415 1.388 . S
C1415 H1386 0.930 . S
C1415 C1410 1.391 . S
C1415 N1414 1.388 . S
Co1416 O1418 2.143 . S
Co1416 O1424 2.074 . S
Co1416 O1427 2.093 . S
Co1416 O1440 2.097 . S
Co1416 N1457 2.151 . S
Co1416 N1465 2.214 . S
Co1417 O1418 2.160 . S
Co1417 O1423 2.058 . S
Co1417 O1433 2.057 . S
Co1417 O1448 2.037 . S
Co1417 N1452 2.145 . S
Co1417 N1473 2.257 . S
O1418 Co1416 2.143 . S
O1418 Co1417 2.160 . S
C1419 O1420 1.278 . S
C1419 O1427 1.224 . S
O1420 C1419 1.278 . S
C1421 O1422 1.245 . S
C1421 O1433 1.232 . S
O1422 C1421 1.245 . S
O1423 Co1417 2.058 . S
O1423 C1449 1.269 . S
O1424 Co1416 2.074 . S
O1424 C1449 1.257 . S
H1425 C1450 0.930 . S
H1426 C1456 0.930 . S
O1427 Co1416 2.093 . S
O1427 C1419 1.224 . S
H1428 C1460 0.929 . S
H1429 C1462 0.930 . S
H1430 C1463 0.930 . S
H1431 C1461 0.929 . S
H1432 C1464 0.928 . S
O1433 Co1417 2.057 . S
O1433 C1421 1.232 . S
H1434 C1453 0.929 . S
H1435 C1454 0.929 . S
H1436 C1466 0.931 . S
H1437 C1458 0.929 . S
H1438 C1467 0.930 . S
H1439 C1459 0.931 . S
O1440 Co1416 2.097 . S
O1440 C1468 1.214 . S
H1441 C1469 0.929 . S
H1442 C1470 0.929 . S
H1443 C1471 0.930 . S
H1444 C1472 0.929 . S
H1445 C1474 0.930 . S
H1446 C1451 0.930 . S
H1447 C1455 0.930 . S
O1448 Co1417 2.037 . S
O1448 C1468 1.234 . S
C1449 O1423 1.269 . S
C1449 O1424 1.257 . S
C1450 H1425 0.930 . S
C1450 C1453 1.388 . S
C1450 C1455 1.418 . S
C1451 H1446 0.930 . S
C1451 C1454 1.404 . S
C1451 C1455 1.353 . S
N1452 Co1417 2.145 . S
N1452 C1453 1.397 . S
N1452 C1454 1.334 . S
C1453 H1434 0.929 . S
C1453 C1450 1.388 . S
C1453 N1452 1.397 . S
C1454 H1435 0.929 . S
C1454 C1451 1.404 . S
C1454 N1452 1.334 . S
C1455 H1447 0.930 . S
C1455 C1450 1.418 . S
C1455 C1451 1.353 . S
C1456 H1426 0.930 . S
C1456 N1457 1.330 . S
C1456 C1458 1.446 . S
N1457 Co1416 2.151 . S
N1457 C1456 1.330 . S
N1457 C1461 1.418 . S
C1458 H1437 0.929 . S
C1458 C1456 1.446 . S
C1458 C1459 1.332 . S
C1459 H1439 0.931 . S
C1459 C1458 1.332 . S
C1459 C1460 1.267 . S
C1460 H1428 0.929 . S
C1460 C1459 1.267 . S
C1460 C1461 1.251 . S
C1461 H1431 0.929 . S
C1461 N1457 1.418 . S
C1461 C1460 1.251 . S
C1462 H1429 0.930 . S
C1462 C1464 1.406 . S
C1462 C1467 1.261 . S
C1463 H1430 0.930 . S
C1463 N1465 1.325 . S
C1463 C1466 1.357 . S
C1464 H1432 0.928 . S
C1464 C1462 1.406 . S
C1464 N1465 1.261 . S
N1465 Co1416 2.214 . S
N1465 C1463 1.325 . S
N1465 C1464 1.261 . S
C1466 H1436 0.931 . S
C1466 C1463 1.357 . S
C1466 C1467 1.312 . S
C1467 H1438 0.930 . S
C1467 C1462 1.261 . S
C1467 C1466 1.312 . S
C1468 O1440 1.214 . S
C1468 O1448 1.234 . S
C1469 H1441 0.929 . S
C1469 C1472 1.391 . S
C1469 C1474 1.391 . S
C1470 H1442 0.929 . S
C1470 C1471 1.390 . S
C1470 N1473 1.391 . S
C1471 H1443 0.930 . S
C1471 C1470 1.390 . S
C1471 C1472 1.392 . S
C1472 H1444 0.929 . S
C1472 C1469 1.391 . S
C1472 C1471 1.392 . S
N1473 Co1417 2.257 . S
N1473 C1470 1.391 . S
N1473 C1474 1.388 . S
C1474 H1445 0.930 . S
C1474 C1469 1.391 . S
C1474 N1473 1.388 . S
Co1475 O1477 2.143 . S
Co1475 O1483 2.074 . S
Co1475 O1486 2.093 . S
Co1475 O1499 2.097 . S
Co1475 N1516 2.151 . S
Co1475 N1524 2.214 . S
Co1476 O1477 2.160 . S
Co1476 O1482 2.058 . S
Co1476 O1492 2.057 . S
Co1476 O1507 2.037 . S
Co1476 N1511 2.145 . S
Co1476 N1532 2.257 . S
O1477 Co1475 2.143 . S
O1477 Co1476 2.160 . S
C1478 O1479 1.278 . S
C1478 O1486 1.224 . S
O1479 C1478 1.278 . S
C1480 O1481 1.245 . S
C1480 O1492 1.232 . S
O1481 C1480 1.245 . S
O1482 Co1476 2.058 . S
O1482 C1508 1.269 . S
O1483 Co1475 2.074 . S
O1483 C1508 1.257 . S
H1484 C1509 0.930 . S
H1485 C1515 0.930 . S
O1486 Co1475 2.093 . S
O1486 C1478 1.224 . S
H1487 C1519 0.929 . S
H1488 C1521 0.930 . S
H1489 C1522 0.930 . S
H1490 C1520 0.929 . S
H1491 C1523 0.928 . S
O1492 Co1476 2.057 . S
O1492 C1480 1.232 . S
H1493 C1512 0.929 . S
H1494 C1513 0.929 . S
H1495 C1525 0.931 . S
H1496 C1517 0.929 . S
H1497 C1526 0.930 . S
H1498 C1518 0.931 . S
O1499 Co1475 2.097 . S
O1499 C1527 1.214 . S
H1500 C1528 0.929 . S
H1501 C1529 0.929 . S
H1502 C1530 0.930 . S
H1503 C1531 0.929 . S
H1504 C1533 0.930 . S
H1505 C1510 0.930 . S
H1506 C1514 0.930 . S
O1507 Co1476 2.037 . S
O1507 C1527 1.234 . S
C1508 O1482 1.269 . S
C1508 O1483 1.257 . S
C1509 H1484 0.930 . S
C1509 C1512 1.388 . S
C1509 C1514 1.418 . S
C1510 H1505 0.930 . S
C1510 C1513 1.404 . S
C1510 C1514 1.353 . S
N1511 Co1476 2.145 . S
N1511 C1512 1.397 . S
N1511 C1513 1.334 . S
C1512 H1493 0.929 . S
C1512 C1509 1.388 . S
C1512 N1511 1.397 . S
C1513 H1494 0.929 . S
C1513 C1510 1.404 . S
C1513 N1511 1.334 . S
C1514 H1506 0.930 . S
C1514 C1509 1.418 . S
C1514 C1510 1.353 . S
C1515 H1485 0.930 . S
C1515 N1516 1.330 . S
C1515 C1517 1.446 . S
N1516 Co1475 2.151 . S
N1516 C1515 1.330 . S
N1516 C1520 1.418 . S
C1517 H1496 0.929 . S
C1517 C1515 1.446 . S
C1517 C1518 1.332 . S
C1518 H1498 0.931 . S
C1518 C1517 1.332 . S
C1518 C1519 1.267 . S
C1519 H1487 0.929 . S
C1519 C1518 1.267 . S
C1519 C1520 1.251 . S
C1520 H1490 0.929 . S
C1520 N1516 1.418 . S
C1520 C1519 1.251 . S
C1521 H1488 0.930 . S
C1521 C1523 1.406 . S
C1521 C1526 1.261 . S
C1522 H1489 0.930 . S
C1522 N1524 1.325 . S
C1522 C1525 1.357 . S
C1523 H1491 0.928 . S
C1523 C1521 1.406 . S
C1523 N1524 1.261 . S
N1524 Co1475 2.214 . S
N1524 C1522 1.325 . S
N1524 C1523 1.261 . S
C1525 H1495 0.931 . S
C1525 C1522 1.357 . S
C1525 C1526 1.312 . S
C1526 H1497 0.930 . S
C1526 C1521 1.261 . S
C1526 C1525 1.312 . S
C1527 O1499 1.214 . S
C1527 O1507 1.234 . S
C1528 H1500 0.929 . S
C1528 C1531 1.391 . S
C1528 C1533 1.391 . S
C1529 H1501 0.929 . S
C1529 C1530 1.390 . S
C1529 N1532 1.391 . S
C1530 H1502 0.930 . S
C1530 C1529 1.390 . S
C1530 C1531 1.392 . S
C1531 H1503 0.929 . S
C1531 C1528 1.391 . S
C1531 C1530 1.392 . S
N1532 Co1476 2.257 . S
N1532 C1529 1.391 . S
N1532 C1533 1.388 . S
C1533 H1504 0.930 . S
C1533 C1528 1.391 . S
C1533 N1532 1.388 . S
Co1534 O1536 2.143 1_554 S
Co1534 O1542 2.074 . S
Co1534 O1545 2.093 . S
Co1534 O1558 2.097 . S
Co1534 N1575 2.151 1_554 S
Co1534 N1583 2.214 . S
Co1535 O1536 2.160 1_554 S
Co1535 O1541 2.058 1_554 S
Co1535 O1551 2.057 1_554 S
Co1535 O1566 2.037 . S
Co1535 N1570 2.145 . S
Co1535 N1591 2.257 . S
O1536 Co1534 2.143 1_556 S
O1536 Co1535 2.160 1_556 S
C1537 O1538 1.278 1_554 S
C1537 O1545 1.224 . S
O1538 C1537 1.278 1_556 S
C1539 O1540 1.245 . S
C1539 O1551 1.232 . S
O1540 C1539 1.245 . S
O1541 Co1535 2.058 1_556 S
O1541 C1567 1.269 . S
O1542 Co1534 2.074 . S
O1542 C1567 1.257 1_554 S
H1543 C1568 0.930 . S
H1544 C1574 0.930 . S
O1545 Co1534 2.093 . S
O1545 C1537 1.224 . S
H1546 C1578 0.929 . S
H1547 C1580 0.930 . S
H1548 C1581 0.930 . S
H1549 C1579 0.929 . S
H1550 C1582 0.928 . S
O1551 Co1535 2.057 1_556 S
O1551 C1539 1.232 . S
H1552 C1571 0.929 . S
H1553 C1572 0.929 . S
H1554 C1584 0.931 . S
H1555 C1576 0.929 . S
H1556 C1585 0.930 . S
H1557 C1577 0.931 . S
O1558 Co1534 2.097 . S
O1558 C1586 1.214 . S
H1559 C1587 0.929 1_556 S
H1560 C1588 0.929 . S
H1561 C1589 0.930 . S
H1562 C1590 0.929 . S
H1563 C1592 0.930 . S
H1564 C1569 0.930 1_556 S
H1565 C1573 0.930 . S
O1566 Co1535 2.037 . S
O1566 C1586 1.234 . S
C1567 O1541 1.269 . S
C1567 O1542 1.257 1_556 S
C1568 H1543 0.930 . S
C1568 C1571 1.388 . S
C1568 C1573 1.418 . S
C1569 H1564 0.930 1_554 S
C1569 C1572 1.404 1_554 S
C1569 C1573 1.353 . S
N1570 Co1535 2.145 . S
N1570 C1571 1.397 . S
N1570 C1572 1.334 1_554 S
C1571 H1552 0.929 . S
C1571 C1568 1.388 . S
C1571 N1570 1.397 . S
C1572 H1553 0.929 . S
C1572 C1569 1.404 1_556 S
C1572 N1570 1.334 1_556 S
C1573 H1565 0.930 . S
C1573 C1568 1.418 . S
C1573 C1569 1.353 . S
C1574 H1544 0.930 . S
C1574 N1575 1.330 . S
C1574 C1576 1.446 . S
N1575 Co1534 2.151 1_556 S
N1575 C1574 1.330 . S
N1575 C1579 1.418 . S
C1576 H1555 0.929 . S
C1576 C1574 1.446 . S
C1576 C1577 1.332 . S
C1577 H1557 0.931 . S
C1577 C1576 1.332 . S
C1577 C1578 1.267 . S
C1578 H1546 0.929 . S
C1578 C1577 1.267 . S
C1578 C1579 1.251 . S
C1579 H1549 0.929 . S
C1579 N1575 1.418 . S
C1579 C1578 1.251 . S
C1580 H1547 0.930 . S
C1580 C1582 1.406 . S
C1580 C1585 1.261 . S
C1581 H1548 0.930 . S
C1581 N1583 1.325 . S
C1581 C1584 1.357 . S
C1582 H1550 0.928 . S
C1582 C1580 1.406 . S
C1582 N1583 1.261 . S
N1583 Co1534 2.214 . S
N1583 C1581 1.325 . S
N1583 C1582 1.261 . S
C1584 H1554 0.931 . S
C1584 C1581 1.357 . S
C1584 C1585 1.312 . S
C1585 H1556 0.930 . S
C1585 C1580 1.261 . S
C1585 C1584 1.312 . S
C1586 O1558 1.214 . S
C1586 O1566 1.234 . S
C1587 H1559 0.929 1_554 S
C1587 C1590 1.391 . S
C1587 C1592 1.391 1_554 S
C1588 H1560 0.929 . S
C1588 C1589 1.390 . S
C1588 N1591 1.391 . S
C1589 H1561 0.930 . S
C1589 C1588 1.390 . S
C1589 C1590 1.392 . S
C1590 H1562 0.929 . S
C1590 C1587 1.391 . S
C1590 C1589 1.392 . S
N1591 Co1535 2.257 . S
N1591 C1588 1.391 . S
N1591 C1592 1.388 1_554 S
C1592 H1563 0.930 . S
C1592 C1587 1.391 1_556 S
C1592 N1591 1.388 1_556 S
Co1593 O1595 2.143 1_554 S
Co1593 O1601 2.074 . S
Co1593 O1604 2.093 . S
Co1593 O1617 2.097 . S
Co1593 N1634 2.151 1_554 S
Co1593 N1642 2.214 . S
Co1594 O1595 2.160 1_554 S
Co1594 O1600 2.058 1_554 S
Co1594 O1610 2.057 1_554 S
Co1594 O1625 2.037 . S
Co1594 N1629 2.145 . S
Co1594 N1650 2.257 . S
O1595 Co1593 2.143 1_556 S
O1595 Co1594 2.160 1_556 S
C1596 O1597 1.278 1_554 S
C1596 O1604 1.224 . S
O1597 C1596 1.278 1_556 S
C1598 O1599 1.245 . S
C1598 O1610 1.232 . S
O1599 C1598 1.245 . S
O1600 Co1594 2.058 1_556 S
O1600 C1626 1.269 . S
O1601 Co1593 2.074 . S
O1601 C1626 1.257 1_554 S
H1602 C1627 0.930 . S
H1603 C1633 0.930 . S
O1604 Co1593 2.093 . S
O1604 C1596 1.224 . S
H1605 C1637 0.929 . S
H1606 C1639 0.930 . S
H1607 C1640 0.930 . S
H1608 C1638 0.929 . S
H1609 C1641 0.928 . S
O1610 Co1594 2.057 1_556 S
O1610 C1598 1.232 . S
H1611 C1630 0.929 . S
H1612 C1631 0.929 . S
H1613 C1643 0.931 . S
H1614 C1635 0.929 . S
H1615 C1644 0.930 . S
H1616 C1636 0.931 . S
O1617 Co1593 2.097 . S
O1617 C1645 1.214 . S
H1618 C1646 0.929 1_556 S
H1619 C1647 0.929 . S
H1620 C1648 0.930 . S
H1621 C1649 0.929 . S
H1622 C1651 0.930 . S
H1623 C1628 0.930 1_556 S
H1624 C1632 0.930 . S
O1625 Co1594 2.037 . S
O1625 C1645 1.234 . S
C1626 O1600 1.269 . S
C1626 O1601 1.257 1_556 S
C1627 H1602 0.930 . S
C1627 C1630 1.388 . S
C1627 C1632 1.418 . S
C1628 H1623 0.930 1_554 S
C1628 C1631 1.404 1_554 S
C1628 C1632 1.353 . S
N1629 Co1594 2.145 . S
N1629 C1630 1.397 . S
N1629 C1631 1.334 1_554 S
C1630 H1611 0.929 . S
C1630 C1627 1.388 . S
C1630 N1629 1.397 . S
C1631 H1612 0.929 . S
C1631 C1628 1.404 1_556 S
C1631 N1629 1.334 1_556 S
C1632 H1624 0.930 . S
C1632 C1627 1.418 . S
C1632 C1628 1.353 . S
C1633 H1603 0.930 . S
C1633 N1634 1.330 . S
C1633 C1635 1.446 . S
N1634 Co1593 2.151 1_556 S
N1634 C1633 1.330 . S
N1634 C1638 1.418 . S
C1635 H1614 0.929 . S
C1635 C1633 1.446 . S
C1635 C1636 1.332 . S
C1636 H1616 0.931 . S
C1636 C1635 1.332 . S
C1636 C1637 1.267 . S
C1637 H1605 0.929 . S
C1637 C1636 1.267 . S
C1637 C1638 1.251 . S
C1638 H1608 0.929 . S
C1638 N1634 1.418 . S
C1638 C1637 1.251 . S
C1639 H1606 0.930 . S
C1639 C1641 1.406 . S
C1639 C1644 1.261 . S
C1640 H1607 0.930 . S
C1640 N1642 1.325 . S
C1640 C1643 1.357 . S
C1641 H1609 0.928 . S
C1641 C1639 1.406 . S
C1641 N1642 1.261 . S
N1642 Co1593 2.214 . S
N1642 C1640 1.325 . S
N1642 C1641 1.261 . S
C1643 H1613 0.931 . S
C1643 C1640 1.357 . S
C1643 C1644 1.312 . S
C1644 H1615 0.930 . S
C1644 C1639 1.261 . S
C1644 C1643 1.312 . S
C1645 O1617 1.214 . S
C1645 O1625 1.234 . S
C1646 H1618 0.929 1_554 S
C1646 C1649 1.391 . S
C1646 C1651 1.391 1_554 S
C1647 H1619 0.929 . S
C1647 C1648 1.390 . S
C1647 N1650 1.391 . S
C1648 H1620 0.930 . S
C1648 C1647 1.390 . S
C1648 C1649 1.392 . S
C1649 H1621 0.929 . S
C1649 C1646 1.391 . S
C1649 C1648 1.392 . S
N1650 Co1594 2.257 . S
N1650 C1647 1.391 . S
N1650 C1651 1.388 1_554 S
C1651 H1622 0.930 . S
C1651 C1646 1.391 1_556 S
C1651 N1650 1.388 1_556 S
Co1652 O1654 2.143 . S
Co1652 O1660 2.074 . S
Co1652 O1663 2.093 . S
Co1652 O1676 2.097 . S
Co1652 N1693 2.151 . S
Co1652 N1701 2.214 . S
Co1653 O1654 2.160 . S
Co1653 O1659 2.058 . S
Co1653 O1669 2.057 . S
Co1653 O1684 2.037 . S
Co1653 N1688 2.145 . S
Co1653 N1709 2.257 . S
O1654 Co1652 2.143 . S
O1654 Co1653 2.160 . S
C1655 O1656 1.278 . S
C1655 O1663 1.224 . S
O1656 C1655 1.278 . S
C1657 O1658 1.245 . S
C1657 O1669 1.232 . S
O1658 C1657 1.245 . S
O1659 Co1653 2.058 . S
O1659 C1685 1.269 . S
O1660 Co1652 2.074 . S
O1660 C1685 1.257 . S
H1661 C1686 0.930 . S
H1662 C1692 0.930 . S
O1663 Co1652 2.093 . S
O1663 C1655 1.224 . S
H1664 C1696 0.929 . S
H1665 C1698 0.930 . S
H1666 C1699 0.930 . S
H1667 C1697 0.929 . S
H1668 C1700 0.928 . S
O1669 Co1653 2.057 . S
O1669 C1657 1.232 . S
H1670 C1689 0.929 . S
H1671 C1690 0.929 . S
H1672 C1702 0.931 . S
H1673 C1694 0.929 . S
H1674 C1703 0.930 . S
H1675 C1695 0.931 . S
O1676 Co1652 2.097 . S
O1676 C1704 1.214 . S
H1677 C1705 0.929 . S
H1678 C1706 0.929 . S
H1679 C1707 0.930 . S
H1680 C1708 0.929 . S
H1681 C1710 0.930 . S
H1682 C1687 0.930 . S
H1683 C1691 0.930 . S
O1684 Co1653 2.037 . S
O1684 C1704 1.234 . S
C1685 O1659 1.269 . S
C1685 O1660 1.257 . S
C1686 H1661 0.930 . S
C1686 C1689 1.388 . S
C1686 C1691 1.418 . S
C1687 H1682 0.930 . S
C1687 C1690 1.404 . S
C1687 C1691 1.353 . S
N1688 Co1653 2.145 . S
N1688 C1689 1.397 . S
N1688 C1690 1.334 . S
C1689 H1670 0.929 . S
C1689 C1686 1.388 . S
C1689 N1688 1.397 . S
C1690 H1671 0.929 . S
C1690 C1687 1.404 . S
C1690 N1688 1.334 . S
C1691 H1683 0.930 . S
C1691 C1686 1.418 . S
C1691 C1687 1.353 . S
C1692 H1662 0.930 . S
C1692 N1693 1.330 . S
C1692 C1694 1.446 . S
N1693 Co1652 2.151 . S
N1693 C1692 1.330 . S
N1693 C1697 1.418 . S
C1694 H1673 0.929 . S
C1694 C1692 1.446 . S
C1694 C1695 1.332 . S
C1695 H1675 0.931 . S
C1695 C1694 1.332 . S
C1695 C1696 1.267 . S
C1696 H1664 0.929 . S
C1696 C1695 1.267 . S
C1696 C1697 1.251 . S
C1697 H1667 0.929 . S
C1697 N1693 1.418 . S
C1697 C1696 1.251 . S
C1698 H1665 0.930 . S
C1698 C1700 1.406 . S
C1698 C1703 1.261 . S
C1699 H1666 0.930 . S
C1699 N1701 1.325 . S
C1699 C1702 1.357 . S
C1700 H1668 0.928 . S
C1700 C1698 1.406 . S
C1700 N1701 1.261 . S
N1701 Co1652 2.214 . S
N1701 C1699 1.325 . S
N1701 C1700 1.261 . S
C1702 H1672 0.931 . S
C1702 C1699 1.357 . S
C1702 C1703 1.312 . S
C1703 H1674 0.930 . S
C1703 C1698 1.261 . S
C1703 C1702 1.312 . S
C1704 O1676 1.214 . S
C1704 O1684 1.234 . S
C1705 H1677 0.929 . S
C1705 C1708 1.391 . S
C1705 C1710 1.391 . S
C1706 H1678 0.929 . S
C1706 C1707 1.390 . S
C1706 N1709 1.391 . S
C1707 H1679 0.930 . S
C1707 C1706 1.390 . S
C1707 C1708 1.392 . S
C1708 H1680 0.929 . S
C1708 C1705 1.391 . S
C1708 C1707 1.392 . S
N1709 Co1653 2.257 . S
N1709 C1706 1.391 . S
N1709 C1710 1.388 . S
C1710 H1681 0.930 . S
C1710 C1705 1.391 . S
C1710 N1709 1.388 . S
Co1711 O1713 2.143 . S
Co1711 O1719 2.074 . S
Co1711 O1722 2.093 . S
Co1711 O1735 2.097 . S
Co1711 N1752 2.151 . S
Co1711 N1760 2.214 . S
Co1712 O1713 2.160 . S
Co1712 O1718 2.058 . S
Co1712 O1728 2.057 . S
Co1712 O1743 2.037 . S
Co1712 N1747 2.145 . S
Co1712 N1768 2.257 . S
O1713 Co1711 2.143 . S
O1713 Co1712 2.160 . S
C1714 O1715 1.278 . S
C1714 O1722 1.224 . S
O1715 C1714 1.278 . S
C1716 O1717 1.245 . S
C1716 O1728 1.232 . S
O1717 C1716 1.245 . S
O1718 Co1712 2.058 . S
O1718 C1744 1.269 . S
O1719 Co1711 2.074 . S
O1719 C1744 1.257 . S
H1720 C1745 0.930 . S
H1721 C1751 0.930 . S
O1722 Co1711 2.093 . S
O1722 C1714 1.224 . S
H1723 C1755 0.929 . S
H1724 C1757 0.930 . S
H1725 C1758 0.930 . S
H1726 C1756 0.929 . S
H1727 C1759 0.928 . S
O1728 Co1712 2.057 . S
O1728 C1716 1.232 . S
H1729 C1748 0.929 . S
H1730 C1749 0.929 . S
H1731 C1761 0.931 . S
H1732 C1753 0.929 . S
H1733 C1762 0.930 . S
H1734 C1754 0.931 . S
O1735 Co1711 2.097 . S
O1735 C1763 1.214 . S
H1736 C1764 0.929 . S
H1737 C1765 0.929 . S
H1738 C1766 0.930 . S
H1739 C1767 0.929 . S
H1740 C1769 0.930 . S
H1741 C1746 0.930 . S
H1742 C1750 0.930 . S
O1743 Co1712 2.037 . S
O1743 C1763 1.234 . S
C1744 O1718 1.269 . S
C1744 O1719 1.257 . S
C1745 H1720 0.930 . S
C1745 C1748 1.388 . S
C1745 C1750 1.418 . S
C1746 H1741 0.930 . S
C1746 C1749 1.404 . S
C1746 C1750 1.353 . S
N1747 Co1712 2.145 . S
N1747 C1748 1.397 . S
N1747 C1749 1.334 . S
C1748 H1729 0.929 . S
C1748 C1745 1.388 . S
C1748 N1747 1.397 . S
C1749 H1730 0.929 . S
C1749 C1746 1.404 . S
C1749 N1747 1.334 . S
C1750 H1742 0.930 . S
C1750 C1745 1.418 . S
C1750 C1746 1.353 . S
C1751 H1721 0.930 . S
C1751 N1752 1.330 . S
C1751 C1753 1.446 . S
N1752 Co1711 2.151 . S
N1752 C1751 1.330 . S
N1752 C1756 1.418 . S
C1753 H1732 0.929 . S
C1753 C1751 1.446 . S
C1753 C1754 1.332 . S
C1754 H1734 0.931 . S
C1754 C1753 1.332 . S
C1754 C1755 1.267 . S
C1755 H1723 0.929 . S
C1755 C1754 1.267 . S
C1755 C1756 1.251 . S
C1756 H1726 0.929 . S
C1756 N1752 1.418 . S
C1756 C1755 1.251 . S
C1757 H1724 0.930 . S
C1757 C1759 1.406 . S
C1757 C1762 1.261 . S
C1758 H1725 0.930 . S
C1758 N1760 1.325 . S
C1758 C1761 1.357 . S
C1759 H1727 0.928 . S
C1759 C1757 1.406 . S
C1759 N1760 1.261 . S
N1760 Co1711 2.214 . S
N1760 C1758 1.325 . S
N1760 C1759 1.261 . S
C1761 H1731 0.931 . S
C1761 C1758 1.357 . S
C1761 C1762 1.312 . S
C1762 H1733 0.930 . S
C1762 C1757 1.261 . S
C1762 C1761 1.312 . S
C1763 O1735 1.214 . S
C1763 O1743 1.234 . S
C1764 H1736 0.929 . S
C1764 C1767 1.391 . S
C1764 C1769 1.391 . S
C1765 H1737 0.929 . S
C1765 C1766 1.390 . S
C1765 N1768 1.391 . S
C1766 H1738 0.930 . S
C1766 C1765 1.390 . S
C1766 C1767 1.392 . S
C1767 H1739 0.929 . S
C1767 C1764 1.391 . S
C1767 C1766 1.392 . S
N1768 Co1712 2.257 . S
N1768 C1765 1.391 . S
N1768 C1769 1.388 . S
C1769 H1740 0.930 . S
C1769 C1764 1.391 . S
C1769 N1768 1.388 . S
Co1770 O1772 2.143 1_556 S
Co1770 O1778 2.074 . S
Co1770 O1781 2.093 . S
Co1770 O1794 2.097 . S
Co1770 N1811 2.151 1_556 S
Co1770 N1819 2.214 . S
Co1771 O1772 2.160 1_556 S
Co1771 O1777 2.058 1_556 S
Co1771 O1787 2.057 1_556 S
Co1771 O1802 2.037 . S
Co1771 N1806 2.145 . S
Co1771 N1827 2.257 . S
O1772 Co1770 2.143 1_554 S
O1772 Co1771 2.160 1_554 S
C1773 O1774 1.278 1_556 S
C1773 O1781 1.224 . S
O1774 C1773 1.278 1_554 S
C1775 O1776 1.245 . S
C1775 O1787 1.232 . S
O1776 C1775 1.245 . S
O1777 Co1771 2.058 1_554 S
O1777 C1803 1.269 . S
O1778 Co1770 2.074 . S
O1778 C1803 1.257 1_556 S
H1779 C1804 0.930 . S
H1780 C1810 0.930 . S
O1781 Co1770 2.093 . S
O1781 C1773 1.224 . S
H1782 C1814 0.929 . S
H1783 C1816 0.930 . S
H1784 C1817 0.930 . S
H1785 C1815 0.929 . S
H1786 C1818 0.928 . S
O1787 Co1771 2.057 1_554 S
O1787 C1775 1.232 . S
H1788 C1807 0.929 . S
H1789 C1808 0.929 . S
H1790 C1820 0.931 . S
H1791 C1812 0.929 . S
H1792 C1821 0.930 . S
H1793 C1813 0.931 . S
O1794 Co1770 2.097 . S
O1794 C1822 1.214 . S
H1795 C1823 0.929 1_554 S
H1796 C1824 0.929 . S
H1797 C1825 0.930 . S
H1798 C1826 0.929 . S
H1799 C1828 0.930 . S
H1800 C1805 0.930 1_554 S
H1801 C1809 0.930 . S
O1802 Co1771 2.037 . S
O1802 C1822 1.234 . S
C1803 O1777 1.269 . S
C1803 O1778 1.257 1_554 S
C1804 H1779 0.930 . S
C1804 C1807 1.388 . S
C1804 C1809 1.418 . S
C1805 H1800 0.930 1_556 S
C1805 C1808 1.404 1_556 S
C1805 C1809 1.353 . S
N1806 Co1771 2.145 . S
N1806 C1807 1.397 . S
N1806 C1808 1.334 1_556 S
C1807 H1788 0.929 . S
C1807 C1804 1.388 . S
C1807 N1806 1.397 . S
C1808 H1789 0.929 . S
C1808 C1805 1.404 1_554 S
C1808 N1806 1.334 1_554 S
C1809 H1801 0.930 . S
C1809 C1804 1.418 . S
C1809 C1805 1.353 . S
C1810 H1780 0.930 . S
C1810 N1811 1.330 . S
C1810 C1812 1.446 . S
N1811 Co1770 2.151 1_554 S
N1811 C1810 1.330 . S
N1811 C1815 1.418 . S
C1812 H1791 0.929 . S
C1812 C1810 1.446 . S
C1812 C1813 1.332 . S
C1813 H1793 0.931 . S
C1813 C1812 1.332 . S
C1813 C1814 1.267 . S
C1814 H1782 0.929 . S
C1814 C1813 1.267 . S
C1814 C1815 1.251 . S
C1815 H1785 0.929 . S
C1815 N1811 1.418 . S
C1815 C1814 1.251 . S
C1816 H1783 0.930 . S
C1816 C1818 1.406 . S
C1816 C1821 1.261 . S
C1817 H1784 0.930 . S
C1817 N1819 1.325 . S
C1817 C1820 1.357 . S
C1818 H1786 0.928 . S
C1818 C1816 1.406 . S
C1818 N1819 1.261 . S
N1819 Co1770 2.214 . S
N1819 C1817 1.325 . S
N1819 C1818 1.261 . S
C1820 H1790 0.931 . S
C1820 C1817 1.357 . S
C1820 C1821 1.312 . S
C1821 H1792 0.930 . S
C1821 C1816 1.261 . S
C1821 C1820 1.312 . S
C1822 O1794 1.214 . S
C1822 O1802 1.234 . S
C1823 H1795 0.929 1_556 S
C1823 C1826 1.391 . S
C1823 C1828 1.391 1_556 S
C1824 H1796 0.929 . S
C1824 C1825 1.390 . S
C1824 N1827 1.391 . S
C1825 H1797 0.930 . S
C1825 C1824 1.390 . S
C1825 C1826 1.392 . S
C1826 H1798 0.929 . S
C1826 C1823 1.391 . S
C1826 C1825 1.392 . S
N1827 Co1771 2.257 . S
N1827 C1824 1.391 . S
N1827 C1828 1.388 1_556 S
C1828 H1799 0.930 . S
C1828 C1823 1.391 1_554 S
C1828 N1827 1.388 1_554 S
Co1829 O1831 2.143 1_556 S
Co1829 O1837 2.074 . S
Co1829 O1840 2.093 . S
Co1829 O1853 2.097 . S
Co1829 N1870 2.151 1_556 S
Co1829 N1878 2.214 . S
Co1830 O1831 2.160 1_556 S
Co1830 O1836 2.058 1_556 S
Co1830 O1846 2.057 1_556 S
Co1830 O1861 2.037 . S
Co1830 N1865 2.145 . S
Co1830 N1886 2.257 . S
O1831 Co1829 2.143 1_554 S
O1831 Co1830 2.160 1_554 S
C1832 O1833 1.278 1_556 S
C1832 O1840 1.224 . S
O1833 C1832 1.278 1_554 S
C1834 O1835 1.245 . S
C1834 O1846 1.232 . S
O1835 C1834 1.245 . S
O1836 Co1830 2.058 1_554 S
O1836 C1862 1.269 . S
O1837 Co1829 2.074 . S
O1837 C1862 1.257 1_556 S
H1838 C1863 0.930 . S
H1839 C1869 0.930 . S
O1840 Co1829 2.093 . S
O1840 C1832 1.224 . S
H1841 C1873 0.929 . S
H1842 C1875 0.930 . S
H1843 C1876 0.930 . S
H1844 C1874 0.929 . S
H1845 C1877 0.928 . S
O1846 Co1830 2.057 1_554 S
O1846 C1834 1.232 . S
H1847 C1866 0.929 . S
H1848 C1867 0.929 . S
H1849 C1879 0.931 . S
H1850 C1871 0.929 . S
H1851 C1880 0.930 . S
H1852 C1872 0.931 . S
O1853 Co1829 2.097 . S
O1853 C1881 1.214 . S
H1854 C1882 0.929 1_554 S
H1855 C1883 0.929 . S
H1856 C1884 0.930 . S
H1857 C1885 0.929 . S
H1858 C1887 0.930 . S
H1859 C1864 0.930 1_554 S
H1860 C1868 0.930 . S
O1861 Co1830 2.037 . S
O1861 C1881 1.234 . S
C1862 O1836 1.269 . S
C1862 O1837 1.257 1_554 S
C1863 H1838 0.930 . S
C1863 C1866 1.388 . S
C1863 C1868 1.418 . S
C1864 H1859 0.930 1_556 S
C1864 C1867 1.404 1_556 S
C1864 C1868 1.353 . S
N1865 Co1830 2.145 . S
N1865 C1866 1.397 . S
N1865 C1867 1.334 1_556 S
C1866 H1847 0.929 . S
C1866 C1863 1.388 . S
C1866 N1865 1.397 . S
C1867 H1848 0.929 . S
C1867 C1864 1.404 1_554 S
C1867 N1865 1.334 1_554 S
C1868 H1860 0.930 . S
C1868 C1863 1.418 . S
C1868 C1864 1.353 . S
C1869 H1839 0.930 . S
C1869 N1870 1.330 . S
C1869 C1871 1.446 . S
N1870 Co1829 2.151 1_554 S
N1870 C1869 1.330 . S
N1870 C1874 1.418 . S
C1871 H1850 0.929 . S
C1871 C1869 1.446 . S
C1871 C1872 1.332 . S
C1872 H1852 0.931 . S
C1872 C1871 1.332 . S
C1872 C1873 1.267 . S
C1873 H1841 0.929 . S
C1873 C1872 1.267 . S
C1873 C1874 1.251 . S
C1874 H1844 0.929 . S
C1874 N1870 1.418 . S
C1874 C1873 1.251 . S
C1875 H1842 0.930 . S
C1875 C1877 1.406 . S
C1875 C1880 1.261 . S
C1876 H1843 0.930 . S
C1876 N1878 1.325 . S
C1876 C1879 1.357 . S
C1877 H1845 0.928 . S
C1877 C1875 1.406 . S
C1877 N1878 1.261 . S
N1878 Co1829 2.214 . S
N1878 C1876 1.325 . S
N1878 C1877 1.261 . S
C1879 H1849 0.931 . S
C1879 C1876 1.357 . S
C1879 C1880 1.312 . S
C1880 H1851 0.930 . S
C1880 C1875 1.261 . S
C1880 C1879 1.312 . S
C1881 O1853 1.214 . S
C1881 O1861 1.234 . S
C1882 H1854 0.929 1_556 S
C1882 C1885 1.391 . S
C1882 C1887 1.391 1_556 S
C1883 H1855 0.929 . S
C1883 C1884 1.390 . S
C1883 N1886 1.391 . S
C1884 H1856 0.930 . S
C1884 C1883 1.390 . S
C1884 C1885 1.392 . S
C1885 H1857 0.929 . S
C1885 C1882 1.391 . S
C1885 C1884 1.392 . S
N1886 Co1830 2.257 . S
N1886 C1883 1.391 . S
N1886 C1887 1.388 1_556 S
C1887 H1858 0.930 . S
C1887 C1882 1.391 1_554 S
C1887 N1886 1.388 1_554 S
H1888 C1894 0.930 . S
H1889 C1898 0.930 . S
H1890 C1903 0.929 . S
H1891 C1901 0.929 . S
H1892 C1896 0.929 . S
H1893 C1902 0.929 . S
C1894 H1888 0.930 . S
C1894 C1895 1.367 . S
C1894 C1902 1.378 . S
C1895 C1894 1.367 . S
C1895 C1903 1.433 . S
C1896 H1892 0.929 . S
C1896 C1898 1.378 . S
C1896 C1900 1.350 . S
C1897 C1900 1.463 . S
C1897 C1902 1.350 . S
C1897 N1905 1.427 . S
C1898 H1889 0.930 . S
C1898 C1896 1.378 . S
C1898 C1899 1.367 . S
C1899 C1898 1.367 . S
C1899 C1901 1.433 . S
C1900 C1896 1.350 . S
C1900 C1897 1.463 . S
C1900 N1904 1.427 . S
C1901 H1891 0.929 . S
C1901 C1899 1.433 . S
C1901 N1904 1.384 . S
C1902 H1893 0.929 . S
C1902 C1894 1.378 . S
C1902 C1897 1.350 . S
C1903 H1890 0.929 . S
C1903 C1895 1.433 . S
C1903 N1905 1.384 . S
N1904 C1900 1.427 . S
N1904 C1901 1.384 . S
N1905 C1897 1.427 . S
N1905 C1903 1.384 . S
H1906 C1912 0.930 . S
H1907 C1916 0.930 . S
H1908 C1921 0.929 . S
H1909 C1919 0.929 . S
H1910 C1914 0.929 . S
H1911 C1920 0.929 . S
C1912 H1906 0.930 . S
C1912 C1913 1.367 . S
C1912 C1920 1.378 . S
C1913 C1912 1.367 . S
C1913 C1921 1.433 . S
C1914 H1910 0.929 . S
C1914 C1916 1.378 . S
C1914 C1918 1.350 . S
C1915 C1918 1.463 . S
C1915 C1920 1.350 . S
C1915 N1923 1.427 . S
C1916 H1907 0.930 . S
C1916 C1914 1.378 . S
C1916 C1917 1.367 . S
C1917 C1916 1.367 . S
C1917 C1919 1.433 . S
C1918 C1914 1.350 . S
C1918 C1915 1.463 . S
C1918 N1922 1.427 . S
C1919 H1909 0.929 . S
C1919 C1917 1.433 . S
C1919 N1922 1.384 . S
C1920 H1911 0.929 . S
C1920 C1912 1.378 . S
C1920 C1915 1.350 . S
C1921 H1908 0.929 . S
C1921 C1913 1.433 . S
C1921 N1923 1.384 . S
N1922 C1918 1.427 . S
N1922 C1919 1.384 . S
N1923 C1915 1.427 . S
N1923 C1921 1.384 . S
H1924 C1930 0.930 . S
H1925 C1934 0.930 . S
H1926 C1939 0.929 . S
H1927 C1937 0.929 . S
H1928 C1932 0.929 . S
H1929 C1938 0.929 . S
C1930 H1924 0.930 . S
C1930 C1931 1.367 . S
C1930 C1938 1.378 . S
C1931 C1930 1.367 . S
C1931 C1939 1.433 . S
C1932 H1928 0.929 . S
C1932 C1934 1.378 . S
C1932 C1936 1.350 . S
C1933 C1936 1.463 . S
C1933 C1938 1.350 . S
C1933 N1941 1.427 . S
C1934 H1925 0.930 . S
C1934 C1932 1.378 . S
C1934 C1935 1.367 . S
C1935 C1934 1.367 . S
C1935 C1937 1.433 . S
C1936 C1932 1.350 . S
C1936 C1933 1.463 . S
C1936 N1940 1.427 . S
C1937 H1927 0.929 . S
C1937 C1935 1.433 . S
C1937 N1940 1.384 . S
C1938 H1929 0.929 . S
C1938 C1930 1.378 . S
C1938 C1933 1.350 . S
C1939 H1926 0.929 . S
C1939 C1931 1.433 . S
C1939 N1941 1.384 . S
N1940 C1936 1.427 . S
N1940 C1937 1.384 . S
N1941 C1933 1.427 . S
N1941 C1939 1.384 . S
H1942 C1948 0.930 1_455 S
H1943 C1952 0.930 . S
H1944 C1957 0.929 . S
H1945 C1955 0.929 . S
H1946 C1950 0.929 . S
H1947 C1956 0.929 . S
C1948 H1942 0.930 1_655 S
C1948 C1949 1.367 . S
C1948 C1956 1.378 . S
C1949 C1948 1.367 . S
C1949 C1957 1.433 . S
C1950 H1946 0.929 . S
C1950 C1952 1.378 . S
C1950 C1954 1.350 . S
C1951 C1954 1.463 . S
C1951 C1956 1.350 . S
C1951 N1959 1.427 . S
C1952 H1943 0.930 . S
C1952 C1950 1.378 . S
C1952 C1953 1.367 . S
C1953 C1952 1.367 . S
C1953 C1955 1.433 . S
C1954 C1950 1.350 . S
C1954 C1951 1.463 . S
C1954 N1958 1.427 . S
C1955 H1945 0.929 . S
C1955 C1953 1.433 . S
C1955 N1958 1.384 . S
C1956 H1947 0.929 . S
C1956 C1948 1.378 . S
C1956 C1951 1.350 . S
C1957 H1944 0.929 . S
C1957 C1949 1.433 . S
C1957 N1959 1.384 . S
N1958 C1954 1.427 . S
N1958 C1955 1.384 . S
N1959 C1951 1.427 . S
N1959 C1957 1.384 . S
H1960 C1966 0.930 . S
H1961 C1970 0.930 . S
H1962 C1975 0.929 . S
H1963 C1973 0.929 . S
H1964 C1968 0.929 . S
H1965 C1974 0.929 . S
C1966 H1960 0.930 . S
C1966 C1967 1.367 . S
C1966 C1974 1.378 . S
C1967 C1966 1.367 . S
C1967 C1975 1.433 . S
C1968 H1964 0.929 . S
C1968 C1970 1.378 . S
C1968 C1972 1.350 . S
C1969 C1972 1.463 . S
C1969 C1974 1.350 . S
C1969 N1977 1.427 . S
C1970 H1961 0.930 . S
C1970 C1968 1.378 . S
C1970 C1971 1.367 . S
C1971 C1970 1.367 . S
C1971 C1973 1.433 . S
C1972 C1968 1.350 . S
C1972 C1969 1.463 . S
C1972 N1976 1.427 . S
C1973 H1963 0.929 . S
C1973 C1971 1.433 . S
C1973 N1976 1.384 . S
C1974 H1965 0.929 . S
C1974 C1966 1.378 . S
C1974 C1969 1.350 . S
C1975 H1962 0.929 . S
C1975 C1967 1.433 . S
C1975 N1977 1.384 . S
N1976 C1972 1.427 . S
N1976 C1973 1.384 . S
N1977 C1969 1.427 . S
N1977 C1975 1.384 . S
H1978 C1984 0.930 . S
H1979 C1988 0.930 . S
H1980 C1993 0.929 . S
H1981 C1991 0.929 . S
H1982 C1986 0.929 . S
H1983 C1992 0.929 . S
C1984 H1978 0.930 . S
C1984 C1985 1.367 . S
C1984 C1992 1.378 . S
C1985 C1984 1.367 . S
C1985 C1993 1.433 . S
C1986 H1982 0.929 . S
C1986 C1988 1.378 . S
C1986 C1990 1.350 . S
C1987 C1990 1.463 . S
C1987 C1992 1.350 . S
C1987 N1995 1.427 . S
C1988 H1979 0.930 . S
C1988 C1986 1.378 . S
C1988 C1989 1.367 . S
C1989 C1988 1.367 . S
C1989 C1991 1.433 . S
C1990 C1986 1.350 . S
C1990 C1987 1.463 . S
C1990 N1994 1.427 . S
C1991 H1981 0.929 . S
C1991 C1989 1.433 . S
C1991 N1994 1.384 . S
C1992 H1983 0.929 . S
C1992 C1984 1.378 . S
C1992 C1987 1.350 . S
C1993 H1980 0.929 . S
C1993 C1985 1.433 . S
C1993 N1995 1.384 . S
N1994 C1990 1.427 . S
N1994 C1991 1.384 . S
N1995 C1987 1.427 . S
N1995 C1993 1.384 . S
H1996 C2002 0.930 . S
H1997 C2006 0.930 . S
H1998 C2011 0.929 . S
H1999 C2009 0.929 . S
H2000 C2004 0.929 . S
H2001 C2010 0.929 . S
C2002 H1996 0.930 . S
C2002 C2003 1.367 . S
C2002 C2010 1.378 . S
C2003 C2002 1.367 . S
C2003 C2011 1.433 . S
C2004 H2000 0.929 . S
C2004 C2006 1.378 . S
C2004 C2008 1.350 . S
C2005 C2008 1.463 . S
C2005 C2010 1.350 . S
C2005 N2013 1.427 . S
C2006 H1997 0.930 . S
C2006 C2004 1.378 . S
C2006 C2007 1.367 . S
C2007 C2006 1.367 . S
C2007 C2009 1.433 . S
C2008 C2004 1.350 . S
C2008 C2005 1.463 . S
C2008 N2012 1.427 . S
C2009 H1999 0.929 . S
C2009 C2007 1.433 . S
C2009 N2012 1.384 . S
C2010 H2001 0.929 . S
C2010 C2002 1.378 . S
C2010 C2005 1.350 . S
C2011 H1998 0.929 . S
C2011 C2003 1.433 . S
C2011 N2013 1.384 . S
N2012 C2008 1.427 . S
N2012 C2009 1.384 . S
N2013 C2005 1.427 . S
N2013 C2011 1.384 . S
H2014 C2020 0.930 . S
H2015 C2024 0.930 . S
H2016 C2029 0.929 . S
H2017 C2027 0.929 . S
H2018 C2022 0.929 . S
H2019 C2028 0.929 . S
C2020 H2014 0.930 . S
C2020 C2021 1.367 . S
C2020 C2028 1.378 . S
C2021 C2020 1.367 . S
C2021 C2029 1.433 . S
C2022 H2018 0.929 . S
C2022 C2024 1.378 . S
C2022 C2026 1.350 . S
C2023 C2026 1.463 . S
C2023 C2028 1.350 . S
C2023 N2031 1.427 . S
C2024 H2015 0.930 . S
C2024 C2022 1.378 . S
C2024 C2025 1.367 . S
C2025 C2024 1.367 . S
C2025 C2027 1.433 . S
C2026 C2022 1.350 . S
C2026 C2023 1.463 . S
C2026 N2030 1.427 . S
C2027 H2017 0.929 . S
C2027 C2025 1.433 . S
C2027 N2030 1.384 . S
C2028 H2019 0.929 . S
C2028 C2020 1.378 . S
C2028 C2023 1.350 . S
C2029 H2016 0.929 . S
C2029 C2021 1.433 . S
C2029 N2031 1.384 . S
N2030 C2026 1.427 . S
N2030 C2027 1.384 . S
N2031 C2023 1.427 . S
N2031 C2029 1.384 . S
H2032 C2038 0.930 . S
H2033 C2042 0.930 . S
H2034 C2047 0.929 . S
H2035 C2045 0.929 . S
H2036 C2040 0.929 . S
H2037 C2046 0.929 . S
C2038 H2032 0.930 . S
C2038 C2039 1.367 . S
C2038 C2046 1.378 . S
C2039 C2038 1.367 . S
C2039 C2047 1.433 . S
C2040 H2036 0.929 . S
C2040 C2042 1.378 . S
C2040 C2044 1.350 . S
C2041 C2044 1.463 . S
C2041 C2046 1.350 . S
C2041 N2049 1.427 . S
C2042 H2033 0.930 . S
C2042 C2040 1.378 . S
C2042 C2043 1.367 . S
C2043 C2042 1.367 . S
C2043 C2045 1.433 . S
C2044 C2040 1.350 . S
C2044 C2041 1.463 . S
C2044 N2048 1.427 . S
C2045 H2035 0.929 . S
C2045 C2043 1.433 . S
C2045 N2048 1.384 . S
C2046 H2037 0.929 . S
C2046 C2038 1.378 . S
C2046 C2041 1.350 . S
C2047 H2034 0.929 . S
C2047 C2039 1.433 . S
C2047 N2049 1.384 . S
N2048 C2044 1.427 . S
N2048 C2045 1.384 . S
N2049 C2041 1.427 . S
N2049 C2047 1.384 . S
H2050 C2056 0.930 . S
H2051 C2060 0.930 . S
H2052 C2065 0.929 . S
H2053 C2063 0.929 . S
H2054 C2058 0.929 . S
H2055 C2064 0.929 . S
C2056 H2050 0.930 . S
C2056 C2057 1.367 . S
C2056 C2064 1.378 . S
C2057 C2056 1.367 . S
C2057 C2065 1.433 . S
C2058 H2054 0.929 . S
C2058 C2060 1.378 . S
C2058 C2062 1.350 . S
C2059 C2062 1.463 . S
C2059 C2064 1.350 . S
C2059 N2067 1.427 . S
C2060 H2051 0.930 . S
C2060 C2058 1.378 . S
C2060 C2061 1.367 . S
C2061 C2060 1.367 . S
C2061 C2063 1.433 . S
C2062 C2058 1.350 . S
C2062 C2059 1.463 . S
C2062 N2066 1.427 . S
C2063 H2053 0.929 . S
C2063 C2061 1.433 . S
C2063 N2066 1.384 . S
C2064 H2055 0.929 . S
C2064 C2056 1.378 . S
C2064 C2059 1.350 . S
C2065 H2052 0.929 . S
C2065 C2057 1.433 . S
C2065 N2067 1.384 . S
N2066 C2062 1.427 . S
N2066 C2063 1.384 . S
N2067 C2059 1.427 . S
N2067 C2065 1.384 . S
H2068 C2074 0.930 . S
H2069 C2078 0.930 . S
H2070 C2083 0.929 . S
H2071 C2081 0.929 . S
H2072 C2076 0.929 . S
H2073 C2082 0.929 . S
C2074 H2068 0.930 . S
C2074 C2075 1.367 . S
C2074 C2082 1.378 . S
C2075 C2074 1.367 . S
C2075 C2083 1.433 . S
C2076 H2072 0.929 . S
C2076 C2078 1.378 . S
C2076 C2080 1.350 . S
C2077 C2080 1.463 . S
C2077 C2082 1.350 . S
C2077 N2085 1.427 . S
C2078 H2069 0.930 . S
C2078 C2076 1.378 . S
C2078 C2079 1.367 . S
C2079 C2078 1.367 . S
C2079 C2081 1.433 . S
C2080 C2076 1.350 . S
C2080 C2077 1.463 . S
C2080 N2084 1.427 . S
C2081 H2071 0.929 . S
C2081 C2079 1.433 . S
C2081 N2084 1.384 . S
C2082 H2073 0.929 . S
C2082 C2074 1.378 . S
C2082 C2077 1.350 . S
C2083 H2070 0.929 . S
C2083 C2075 1.433 . S
C2083 N2085 1.384 . S
N2084 C2080 1.427 . S
N2084 C2081 1.384 . S
N2085 C2077 1.427 . S
N2085 C2083 1.384 . S
H2086 C2092 0.930 . S
H2087 C2096 0.930 . S
H2088 C2101 0.929 . S
H2089 C2099 0.929 . S
H2090 C2094 0.929 . S
H2091 C2100 0.929 . S
C2092 H2086 0.930 . S
C2092 C2093 1.367 . S
C2092 C2100 1.378 . S
C2093 C2092 1.367 . S
C2093 C2101 1.433 . S
C2094 H2090 0.929 . S
C2094 C2096 1.378 . S
C2094 C2098 1.350 . S
C2095 C2098 1.463 . S
C2095 C2100 1.350 . S
C2095 N2103 1.427 . S
C2096 H2087 0.930 . S
C2096 C2094 1.378 . S
C2096 C2097 1.367 . S
C2097 C2096 1.367 . S
C2097 C2099 1.433 . S
C2098 C2094 1.350 . S
C2098 C2095 1.463 . S
C2098 N2102 1.427 . S
C2099 H2089 0.929 . S
C2099 C2097 1.433 . S
C2099 N2102 1.384 . S
C2100 H2091 0.929 . S
C2100 C2092 1.378 . S
C2100 C2095 1.350 . S
C2101 H2088 0.929 . S
C2101 C2093 1.433 . S
C2101 N2103 1.384 . S
N2102 C2098 1.427 . S
N2102 C2099 1.384 . S
N2103 C2095 1.427 . S
N2103 C2101 1.384 . S
H2104 C2110 0.930 . S
H2105 C2114 0.930 . S
H2106 C2119 0.929 . S
H2107 C2117 0.929 . S
H2108 C2112 0.929 . S
H2109 C2118 0.929 . S
C2110 H2104 0.930 . S
C2110 C2111 1.367 . S
C2110 C2118 1.378 . S
C2111 C2110 1.367 . S
C2111 C2119 1.433 . S
C2112 H2108 0.929 . S
C2112 C2114 1.378 . S
C2112 C2116 1.350 . S
C2113 C2116 1.463 . S
C2113 C2118 1.350 . S
C2113 N2121 1.427 . S
C2114 H2105 0.930 . S
C2114 C2112 1.378 . S
C2114 C2115 1.367 . S
C2115 C2114 1.367 . S
C2115 C2117 1.433 . S
C2116 C2112 1.350 . S
C2116 C2113 1.463 . S
C2116 N2120 1.427 . S
C2117 H2107 0.929 . S
C2117 C2115 1.433 . S
C2117 N2120 1.384 . S
C2118 H2109 0.929 . S
C2118 C2110 1.378 . S
C2118 C2113 1.350 . S
C2119 H2106 0.929 . S
C2119 C2111 1.433 . S
C2119 N2121 1.384 . S
N2120 C2116 1.427 . S
N2120 C2117 1.384 . S
N2121 C2113 1.427 . S
N2121 C2119 1.384 . S
H2122 C2128 0.930 . S
H2123 C2132 0.930 . S
H2124 C2137 0.929 . S
H2125 C2135 0.929 . S
H2126 C2130 0.929 . S
H2127 C2136 0.929 . S
C2128 H2122 0.930 . S
C2128 C2129 1.367 . S
C2128 C2136 1.378 . S
C2129 C2128 1.367 . S
C2129 C2137 1.433 . S
C2130 H2126 0.929 . S
C2130 C2132 1.378 . S
C2130 C2134 1.350 . S
C2131 C2134 1.463 . S
C2131 C2136 1.350 . S
C2131 N2139 1.427 . S
C2132 H2123 0.930 . S
C2132 C2130 1.378 . S
C2132 C2133 1.367 . S
C2133 C2132 1.367 . S
C2133 C2135 1.433 . S
C2134 C2130 1.350 . S
C2134 C2131 1.463 . S
C2134 N2138 1.427 . S
C2135 H2125 0.929 . S
C2135 C2133 1.433 . S
C2135 N2138 1.384 . S
C2136 H2127 0.929 . S
C2136 C2128 1.378 . S
C2136 C2131 1.350 . S
C2137 H2124 0.929 . S
C2137 C2129 1.433 . S
C2137 N2139 1.384 . S
N2138 C2134 1.427 . S
N2138 C2135 1.384 . S
N2139 C2131 1.427 . S
N2139 C2137 1.384 . S
H2140 C2146 0.930 . S
H2141 C2150 0.930 . S
H2142 C2155 0.929 . S
H2143 C2153 0.929 . S
H2144 C2148 0.929 . S
H2145 C2154 0.929 . S
C2146 H2140 0.930 . S
C2146 C2147 1.367 . S
C2146 C2154 1.378 . S
C2147 C2146 1.367 . S
C2147 C2155 1.433 . S
C2148 H2144 0.929 . S
C2148 C2150 1.378 . S
C2148 C2152 1.350 . S
C2149 C2152 1.463 . S
C2149 C2154 1.350 . S
C2149 N2157 1.427 . S
C2150 H2141 0.930 . S
C2150 C2148 1.378 . S
C2150 C2151 1.367 . S
C2151 C2150 1.367 . S
C2151 C2153 1.433 . S
C2152 C2148 1.350 . S
C2152 C2149 1.463 . S
C2152 N2156 1.427 . S
C2153 H2143 0.929 . S
C2153 C2151 1.433 . S
C2153 N2156 1.384 . S
C2154 H2145 0.929 . S
C2154 C2146 1.378 . S
C2154 C2149 1.350 . S
C2155 H2142 0.929 . S
C2155 C2147 1.433 . S
C2155 N2157 1.384 . S
N2156 C2152 1.427 . S
N2156 C2153 1.384 . S
N2157 C2149 1.427 . S
N2157 C2155 1.384 . S
H2158 C2164 0.930 . S
H2159 C2168 0.930 . S
H2160 C2173 0.929 . S
H2161 C2171 0.929 . S
H2162 C2166 0.929 . S
H2163 C2172 0.929 . S
C2164 H2158 0.930 . S
C2164 C2165 1.367 . S
C2164 C2172 1.378 . S
C2165 C2164 1.367 . S
C2165 C2173 1.433 . S
C2166 H2162 0.929 . S
C2166 C2168 1.378 . S
C2166 C2170 1.350 . S
C2167 C2170 1.463 . S
C2167 C2172 1.350 . S
C2167 N2175 1.427 . S
C2168 H2159 0.930 . S
C2168 C2166 1.378 . S
C2168 C2169 1.367 . S
C2169 C2168 1.367 . S
C2169 C2171 1.433 . S
C2170 C2166 1.350 . S
C2170 C2167 1.463 . S
C2170 N2174 1.427 . S
C2171 H2161 0.929 . S
C2171 C2169 1.433 . S
C2171 N2174 1.384 . S
C2172 H2163 0.929 . S
C2172 C2164 1.378 . S
C2172 C2167 1.350 . S
C2173 H2160 0.929 . S
C2173 C2165 1.433 . S
C2173 N2175 1.384 . S
N2174 C2170 1.427 . S
N2174 C2171 1.384 . S
N2175 C2167 1.427 . S
N2175 C2173 1.384 . S
H2176 C2182 0.930 . S
H2177 C2186 0.930 . S
H2178 C2191 0.929 . S
H2179 C2189 0.929 . S
H2180 C2184 0.929 . S
H2181 C2190 0.929 . S
C2182 H2176 0.930 . S
C2182 C2183 1.367 . S
C2182 C2190 1.378 . S
C2183 C2182 1.367 . S
C2183 C2191 1.433 . S
C2184 H2180 0.929 . S
C2184 C2186 1.378 . S
C2184 C2188 1.350 . S
C2185 C2188 1.463 1_565 S
C2185 C2190 1.350 . S
C2185 N2193 1.427 . S
C2186 H2177 0.930 . S
C2186 C2184 1.378 . S
C2186 C2187 1.367 . S
C2187 C2186 1.367 . S
C2187 C2189 1.433 . S
C2188 C2184 1.350 . S
C2188 C2185 1.463 1_545 S
C2188 N2192 1.427 . S
C2189 H2179 0.929 . S
C2189 C2187 1.433 . S
C2189 N2192 1.384 . S
C2190 H2181 0.929 . S
C2190 C2182 1.378 . S
C2190 C2185 1.350 . S
C2191 H2178 0.929 . S
C2191 C2183 1.433 . S
C2191 N2193 1.384 . S
N2192 C2188 1.427 . S
N2192 C2189 1.384 . S
N2193 C2185 1.427 . S
N2193 C2191 1.384 . S
H2194 C2200 0.930 . S
H2195 C2204 0.930 . S
H2196 C2209 0.929 . S
H2197 C2207 0.929 . S
H2198 C2202 0.929 . S
H2199 C2208 0.929 . S
C2200 H2194 0.930 . S
C2200 C2201 1.367 . S
C2200 C2208 1.378 . S
C2201 C2200 1.367 . S
C2201 C2209 1.433 . S
C2202 H2198 0.929 . S
C2202 C2204 1.378 . S
C2202 C2206 1.350 . S
C2203 C2206 1.463 1_655 S
C2203 C2208 1.350 . S
C2203 N2211 1.427 . S
C2204 H2195 0.930 . S
C2204 C2202 1.378 . S
C2204 C2205 1.367 . S
C2205 C2204 1.367 . S
C2205 C2207 1.433 . S
C2206 C2202 1.350 . S
C2206 C2203 1.463 1_455 S
C2206 N2210 1.427 . S
C2207 H2197 0.929 . S
C2207 C2205 1.433 . S
C2207 N2210 1.384 . S
C2208 H2199 0.929 . S
C2208 C2200 1.378 . S
C2208 C2203 1.350 . S
C2209 H2196 0.929 . S
C2209 C2201 1.433 . S
C2209 N2211 1.384 . S
N2210 C2206 1.427 . S
N2210 C2207 1.384 . S
N2211 C2203 1.427 . S
N2211 C2209 1.384 . S
H2212 C2218 0.930 . S
H2213 C2222 0.930 . S
H2214 C2227 0.929 . S
H2215 C2225 0.929 . S
H2216 C2220 0.929 . S
H2217 C2226 0.929 . S
C2218 H2212 0.930 . S
C2218 C2219 1.367 1_554 S
C2218 C2226 1.378 . S
C2219 C2218 1.367 1_556 S
C2219 C2227 1.433 . S
C2220 H2216 0.929 . S
C2220 C2222 1.378 . S
C2220 C2224 1.349 . S
C2221 C2224 1.463 1_554 S
C2221 C2226 1.350 . S
C2221 N2229 1.427 1_554 S
C2222 H2213 0.930 . S
C2222 C2220 1.378 . S
C2222 C2223 1.367 1_556 S
C2223 C2222 1.367 1_554 S
C2223 C2225 1.433 . S
C2224 C2220 1.349 . S
C2224 C2221 1.463 1_556 S
C2224 N2228 1.428 1_556 S
C2225 H2215 0.929 . S
C2225 C2223 1.433 . S
C2225 N2228 1.384 . S
C2226 H2217 0.929 . S
C2226 C2218 1.378 . S
C2226 C2221 1.350 . S
C2227 H2214 0.929 . S
C2227 C2219 1.433 . S
C2227 N2229 1.384 . S
N2228 C2224 1.428 1_554 S
N2228 C2225 1.384 . S
N2229 C2221 1.427 1_556 S
N2229 C2227 1.384 . S
H2230 C2236 0.930 . S
H2231 C2240 0.930 . S
H2232 C2245 0.929 . S
H2233 C2243 0.929 . S
H2234 C2238 0.929 . S
H2235 C2244 0.929 . S
C2236 H2230 0.930 . S
C2236 C2237 1.367 . S
C2236 C2244 1.378 . S
C2237 C2236 1.367 . S
C2237 C2245 1.433 1_556 S
C2238 H2234 0.929 . S
C2238 C2240 1.378 . S
C2238 C2242 1.350 . S
C2239 C2242 1.463 1_446 S
C2239 C2244 1.350 . S
C2239 N2247 1.427 1_556 S
C2240 H2231 0.930 . S
C2240 C2238 1.378 . S
C2240 C2241 1.367 . S
C2241 C2240 1.367 . S
C2241 C2243 1.433 1_554 S
C2242 C2238 1.350 . S
C2242 C2239 1.463 1_664 S
C2242 N2246 1.427 1_554 S
C2243 H2233 0.929 . S
C2243 C2241 1.433 1_556 S
C2243 N2246 1.384 . S
C2244 H2235 0.929 . S
C2244 C2236 1.378 . S
C2244 C2239 1.350 . S
C2245 H2232 0.929 . S
C2245 C2237 1.433 1_554 S
C2245 N2247 1.384 . S
N2246 C2242 1.427 1_556 S
N2246 C2243 1.384 . S
N2247 C2239 1.427 1_554 S
N2247 C2245 1.384 . S
H2248 C2254 0.930 . S
H2249 C2258 0.930 . S
H2250 C2263 0.929 . S
H2251 C2261 0.929 . S
H2252 C2256 0.950 . S
H2253 C2262 0.951 . S
C2254 H2248 0.930 . S
C2254 C2255 1.367 . S
C2254 C2262 1.378 . S
C2255 C2254 1.367 . S
C2255 C2263 1.433 . S
C2256 H2252 0.950 . S
C2256 C2258 1.378 . S
C2256 C2260 1.350 . S
C2257 C2260 1.463 1_545 S
C2257 C2262 1.350 . S
C2257 N2265 1.427 . S
C2258 H2249 0.930 . S
C2258 C2256 1.378 . S
C2258 C2259 1.367 . S
C2259 C2258 1.367 . S
C2259 C2261 1.433 . S
C2260 C2256 1.350 . S
C2260 C2257 1.463 1_565 S
C2260 N2264 1.427 . S
C2261 H2251 0.929 . S
C2261 C2259 1.433 . S
C2261 N2264 1.384 . S
C2262 H2253 0.951 . S
C2262 C2254 1.378 . S
C2262 C2257 1.350 . S
C2263 H2250 0.929 . S
C2263 C2255 1.433 . S
C2263 N2265 1.384 . S
N2264 C2260 1.427 . S
N2264 C2261 1.384 . S
N2265 C2257 1.427 . S
N2265 C2263 1.384 . S
H2266 C2272 0.930 . S
H2267 C2276 0.930 . S
H2268 C2281 0.929 . S
H2269 C2279 0.929 . S
H2270 C2274 0.929 . S
H2271 C2280 0.929 . S
C2272 H2266 0.930 . S
C2272 C2273 1.367 . S
C2272 C2280 1.378 . S
C2273 C2272 1.367 . S
C2273 C2281 1.433 . S
C2274 H2270 0.929 . S
C2274 C2276 1.378 . S
C2274 C2278 1.350 . S
C2275 C2278 1.463 1_455 S
C2275 C2280 1.350 . S
C2275 N2283 1.427 . S
C2276 H2267 0.930 . S
C2276 C2274 1.378 . S
C2276 C2277 1.367 . S
C2277 C2276 1.367 . S
C2277 C2279 1.433 . S
C2278 C2274 1.350 . S
C2278 C2275 1.463 1_655 S
C2278 N2282 1.427 . S
C2279 H2269 0.929 . S
C2279 C2277 1.433 . S
C2279 N2282 1.384 . S
C2280 H2271 0.929 . S
C2280 C2272 1.378 . S
C2280 C2275 1.350 . S
C2281 H2268 0.929 . S
C2281 C2273 1.433 . S
C2281 N2283 1.384 . S
N2282 C2278 1.427 . S
N2282 C2279 1.384 . S
N2283 C2275 1.427 . S
N2283 C2281 1.384 . S
H2284 C2290 0.930 . S
H2285 C2294 0.930 . S
H2286 C2299 0.929 . S
H2287 C2297 0.929 . S
H2288 C2292 0.929 . S
H2289 C2298 0.929 . S
C2290 H2284 0.930 . S
C2290 C2291 1.367 1_554 S
C2290 C2298 1.378 . S
C2291 C2290 1.367 1_556 S
C2291 C2299 1.433 . S
C2292 H2288 0.929 . S
C2292 C2294 1.378 . S
C2292 C2296 1.363 . S
C2293 C2296 1.462 1_554 S
C2293 C2298 1.361 . S
C2293 N2301 1.416 1_554 S
C2294 H2285 0.930 . S
C2294 C2292 1.378 . S
C2294 C2295 1.367 1_556 S
C2295 C2294 1.367 1_554 S
C2295 C2297 1.433 . S
C2296 C2292 1.363 . S
C2296 C2293 1.462 1_556 S
C2296 N2300 1.414 1_556 S
C2297 H2287 0.929 . S
C2297 C2295 1.433 . S
C2297 N2300 1.384 . S
C2298 H2289 0.929 . S
C2298 C2290 1.378 . S
C2298 C2293 1.361 . S
C2299 H2286 0.929 . S
C2299 C2291 1.433 . S
C2299 N2301 1.384 . S
N2300 C2296 1.414 1_554 S
N2300 C2297 1.384 . S
N2301 C2293 1.416 1_556 S
N2301 C2299 1.384 . S
H2302 C2308 0.930 . S
H2303 C2312 0.930 . S
H2304 C2317 0.929 . S
H2305 C2315 0.929 . S
H2306 C2310 0.929 . S
H2307 C2316 0.929 . S
C2308 H2302 0.930 . S
C2308 C2309 1.367 . S
C2308 C2316 1.378 . S
C2309 C2308 1.367 . S
C2309 C2317 1.433 . S
C2310 H2306 0.929 . S
C2310 C2312 1.378 . S
C2310 C2314 1.350 . S
C2311 C2314 1.463 . S
C2311 C2316 1.350 . S
C2311 N2319 1.427 . S
C2312 H2303 0.930 . S
C2312 C2310 1.378 . S
C2312 C2313 1.367 . S
C2313 C2312 1.367 . S
C2313 C2315 1.433 . S
C2314 C2310 1.350 . S
C2314 C2311 1.463 . S
C2314 N2318 1.427 . S
C2315 H2305 0.929 . S
C2315 C2313 1.433 . S
C2315 N2318 1.384 . S
C2316 H2307 0.929 . S
C2316 C2308 1.378 . S
C2316 C2311 1.350 . S
C2317 H2304 0.929 . S
C2317 C2309 1.433 . S
C2317 N2319 1.384 . S
N2318 C2314 1.427 . S
N2318 C2315 1.384 . S
N2319 C2311 1.427 . S
N2319 C2317 1.384 . S
H2320 C2326 0.930 . S
H2321 C2330 0.930 . S
H2322 C2335 0.929 . S
H2323 C2333 0.929 . S
H2324 C2328 0.929 . S
H2325 C2334 0.929 . S
C2326 H2320 0.930 . S
C2326 C2327 1.367 . S
C2326 C2334 1.378 . S
C2327 C2326 1.367 . S
C2327 C2335 1.433 . S
C2328 H2324 0.929 . S
C2328 C2330 1.378 . S
C2328 C2332 1.350 . S
C2329 C2332 1.463 . S
C2329 C2334 1.350 . S
C2329 N2337 1.427 . S
C2330 H2321 0.930 . S
C2330 C2328 1.378 . S
C2330 C2331 1.367 . S
C2331 C2330 1.367 . S
C2331 C2333 1.433 . S
C2332 C2328 1.350 . S
C2332 C2329 1.463 . S
C2332 N2336 1.427 . S
C2333 H2323 0.929 . S
C2333 C2331 1.433 . S
C2333 N2336 1.384 . S
C2334 H2325 0.929 . S
C2334 C2326 1.378 . S
C2334 C2329 1.350 . S
C2335 H2322 0.929 . S
C2335 C2327 1.433 . S
C2335 N2337 1.384 . S
N2336 C2332 1.427 . S
N2336 C2333 1.384 . S
N2337 C2329 1.427 . S
N2337 C2335 1.384 . S
H2338 C2344 0.930 . S
H2339 C2348 0.930 . S
H2340 C2353 0.928 1_455 S
H2341 C2351 0.928 1_655 S
H2342 C2346 0.929 . S
H2343 C2352 0.929 . S
C2344 H2338 0.930 . S
C2344 C2345 1.367 . S
C2344 C2352 1.378 . S
C2345 C2344 1.367 . S
C2345 C2353 1.433 . S
C2346 H2342 0.929 . S
C2346 C2348 1.378 . S
C2346 C2350 1.350 . S
C2347 C2350 1.463 1_655 S
C2347 C2352 1.350 . S
C2347 N2355 1.427 1_655 S
C2348 H2339 0.930 . S
C2348 C2346 1.378 . S
C2348 C2349 1.367 . S
C2349 C2348 1.367 . S
C2349 C2351 1.433 . S
C2350 C2346 1.350 . S
C2350 C2347 1.463 1_455 S
C2350 N2354 1.427 1_455 S
C2351 H2341 0.928 1_455 S
C2351 C2349 1.433 . S
C2351 N2354 1.384 1_455 S
C2352 H2343 0.929 . S
C2352 C2344 1.378 . S
C2352 C2347 1.350 . S
C2353 H2340 0.928 1_655 S
C2353 C2345 1.433 . S
C2353 N2355 1.384 1_655 S
N2354 C2350 1.427 1_655 S
N2354 C2351 1.384 1_655 S
N2355 C2347 1.427 1_455 S
N2355 C2353 1.384 1_455 S
H2356 C2362 0.930 . S
H2357 C2366 0.930 . S
H2358 C2371 0.929 . S
H2359 C2369 0.929 . S
H2360 C2364 0.929 . S
H2361 C2370 0.929 . S
C2362 H2356 0.930 . S
C2362 C2363 1.367 . S
C2362 C2370 1.378 . S
C2363 C2362 1.367 . S
C2363 C2371 1.433 . S
C2364 H2360 0.929 . S
C2364 C2366 1.378 . S
C2364 C2368 1.350 . S
C2365 C2368 1.463 . S
C2365 C2370 1.350 . S
C2365 N2373 1.427 . S
C2366 H2357 0.930 . S
C2366 C2364 1.378 . S
C2366 C2367 1.367 . S
C2367 C2366 1.367 . S
C2367 C2369 1.433 . S
C2368 C2364 1.350 . S
C2368 C2365 1.463 . S
C2368 N2372 1.427 . S
C2369 H2359 0.929 . S
C2369 C2367 1.433 . S
C2369 N2372 1.384 . S
C2370 H2361 0.929 . S
C2370 C2362 1.378 . S
C2370 C2365 1.350 . S
C2371 H2358 0.929 . S
C2371 C2363 1.433 . S
C2371 N2373 1.384 . S
N2372 C2368 1.427 . S
N2372 C2369 1.384 . S
N2373 C2365 1.427 . S
N2373 C2371 1.384 . S
H2374 C2380 0.930 . S
H2375 C2384 0.930 . S
H2376 C2389 0.929 . S
H2377 C2387 0.929 . S
H2378 C2382 0.929 . S
H2379 C2388 0.929 . S
C2380 H2374 0.930 . S
C2380 C2381 1.367 . S
C2380 C2388 1.378 . S
C2381 C2380 1.367 . S
C2381 C2389 1.433 . S
C2382 H2378 0.929 . S
C2382 C2384 1.378 . S
C2382 C2386 1.350 . S
C2383 C2386 1.463 . S
C2383 C2388 1.350 . S
C2383 N2391 1.427 . S
C2384 H2375 0.930 . S
C2384 C2382 1.378 . S
C2384 C2385 1.367 . S
C2385 C2384 1.367 . S
C2385 C2387 1.433 . S
C2386 C2382 1.350 . S
C2386 C2383 1.463 . S
C2386 N2390 1.427 . S
C2387 H2377 0.929 . S
C2387 C2385 1.433 . S
C2387 N2390 1.384 . S
C2388 H2379 0.929 . S
C2388 C2380 1.378 . S
C2388 C2383 1.350 . S
C2389 H2376 0.929 . S
C2389 C2381 1.433 . S
C2389 N2391 1.384 . S
N2390 C2386 1.427 . S
N2390 C2387 1.384 . S
N2391 C2383 1.427 . S
N2391 C2389 1.384 . S
H2392 C2398 0.930 . S
H2393 C2402 0.930 . S
H2394 C2407 0.929 . S
H2395 C2405 0.929 . S
H2396 C2400 0.929 . S
H2397 C2406 0.929 . S
C2398 H2392 0.930 . S
C2398 C2399 1.367 . S
C2398 C2406 1.378 . S
C2399 C2398 1.367 . S
C2399 C2407 1.433 . S
C2400 H2396 0.929 . S
C2400 C2402 1.378 . S
C2400 C2404 1.350 . S
C2401 C2404 1.463 . S
C2401 C2406 1.350 . S
C2401 N2409 1.427 . S
C2402 H2393 0.930 . S
C2402 C2400 1.378 . S
C2402 C2403 1.367 . S
C2403 C2402 1.367 . S
C2403 C2405 1.433 . S
C2404 C2400 1.350 . S
C2404 C2401 1.463 . S
C2404 N2408 1.427 . S
C2405 H2395 0.929 . S
C2405 C2403 1.433 . S
C2405 N2408 1.384 . S
C2406 H2397 0.929 . S
C2406 C2398 1.378 . S
C2406 C2401 1.350 . S
C2407 H2394 0.929 . S
C2407 C2399 1.433 . S
C2407 N2409 1.384 . S
N2408 C2404 1.427 . S
N2408 C2405 1.384 . S
N2409 C2401 1.427 . S
N2409 C2407 1.384 . S
H2410 C2416 0.930 . S
H2411 C2420 0.930 . S
H2412 C2425 0.929 . S
H2413 C2423 0.929 . S
H2414 C2418 0.929 1_545 S
H2415 C2424 0.929 1_565 S
C2416 H2410 0.930 . S
C2416 C2417 1.367 . S
C2416 C2424 1.378 . S
C2417 C2416 1.367 . S
C2417 C2425 1.433 . S
C2418 H2414 0.929 1_565 S
C2418 C2420 1.378 . S
C2418 C2422 1.350 . S
C2419 C2422 1.463 1_545 S
C2419 C2424 1.350 . S
C2419 N2427 1.427 . S
C2420 H2411 0.930 . S
C2420 C2418 1.378 . S
C2420 C2421 1.367 . S
C2421 C2420 1.367 . S
C2421 C2423 1.433 . S
C2422 C2418 1.350 . S
C2422 C2419 1.463 1_565 S
C2422 N2426 1.427 . S
C2423 H2413 0.929 . S
C2423 C2421 1.433 . S
C2423 N2426 1.384 . S
C2424 H2415 0.929 1_545 S
C2424 C2416 1.378 . S
C2424 C2419 1.350 . S
C2425 H2412 0.929 . S
C2425 C2417 1.433 . S
C2425 N2427 1.384 . S
N2426 C2422 1.427 . S
N2426 C2423 1.384 . S
N2427 C2419 1.427 . S
N2427 C2425 1.384 . S
H2428 C2434 0.930 . S
H2429 C2438 0.930 . S
H2430 C2443 0.929 . S
H2431 C2441 0.929 . S
H2432 C2436 0.929 . S
H2433 C2442 0.929 . S
C2434 H2428 0.930 . S
C2434 C2435 1.367 . S
C2434 C2442 1.378 . S
C2435 C2434 1.367 . S
C2435 C2443 1.433 . S
C2436 H2432 0.929 . S
C2436 C2438 1.378 . S
C2436 C2440 1.350 . S
C2437 C2440 1.463 . S
C2437 C2442 1.350 . S
C2437 N2445 1.427 . S
C2438 H2429 0.930 . S
C2438 C2436 1.378 . S
C2438 C2439 1.367 . S
C2439 C2438 1.367 . S
C2439 C2441 1.433 . S
C2440 C2436 1.350 . S
C2440 C2437 1.463 . S
C2440 N2444 1.427 . S
C2441 H2431 0.929 . S
C2441 C2439 1.433 . S
C2441 N2444 1.384 . S
C2442 H2433 0.929 . S
C2442 C2434 1.378 . S
C2442 C2437 1.350 . S
C2443 H2430 0.929 . S
C2443 C2435 1.433 . S
C2443 N2445 1.384 . S
N2444 C2440 1.427 . S
N2444 C2441 1.384 . S
N2445 C2437 1.427 . S
N2445 C2443 1.384 . S
H2446 C2452 0.930 . S
H2447 C2456 0.930 . S
H2448 C2461 0.929 . S
H2449 C2459 0.929 . S
H2450 C2454 0.929 . S
H2451 C2460 0.929 . S
C2452 H2446 0.930 . S
C2452 C2453 1.367 1_556 S
C2452 C2460 1.378 . S
C2453 C2452 1.367 1_554 S
C2453 C2461 1.433 . S
C2454 H2450 0.929 . S
C2454 C2456 1.378 . S
C2454 C2458 1.350 1_554 S
C2455 C2458 1.462 1_554 S
C2455 C2460 1.350 1_554 S
C2455 N2463 1.427 . S
C2456 H2447 0.930 . S
C2456 C2454 1.378 . S
C2456 C2457 1.367 1_554 S
C2457 C2456 1.367 1_556 S
C2457 C2459 1.433 . S
C2458 C2454 1.350 1_556 S
C2458 C2455 1.462 1_556 S
C2458 N2462 1.427 . S
C2459 H2449 0.929 . S
C2459 C2457 1.433 . S
C2459 N2462 1.384 . S
C2460 H2451 0.929 . S
C2460 C2452 1.378 . S
C2460 C2455 1.350 1_556 S
C2461 H2448 0.929 . S
C2461 C2453 1.433 . S
C2461 N2463 1.384 . S
N2462 C2458 1.427 . S
N2462 C2459 1.384 . S
N2463 C2455 1.427 . S
N2463 C2461 1.384 . S
H2464 C2470 0.930 . S
H2465 C2474 0.930 . S
H2466 C2479 0.929 . S
H2467 C2477 0.929 . S
H2468 C2472 0.929 . S
H2469 C2478 0.929 . S
C2470 H2464 0.930 . S
C2470 C2471 1.367 . S
C2470 C2478 1.378 . S
C2471 C2470 1.367 . S
C2471 C2479 1.433 . S
C2472 H2468 0.929 . S
C2472 C2474 1.378 . S
C2472 C2476 1.350 . S
C2473 C2476 1.463 . S
C2473 C2478 1.350 . S
C2473 N2481 1.427 . S
C2474 H2465 0.930 . S
C2474 C2472 1.378 . S
C2474 C2475 1.367 . S
C2475 C2474 1.367 . S
C2475 C2477 1.433 . S
C2476 C2472 1.350 . S
C2476 C2473 1.463 . S
C2476 N2480 1.427 . S
C2477 H2467 0.929 . S
C2477 C2475 1.433 . S
C2477 N2480 1.384 . S
C2478 H2469 0.929 . S
C2478 C2470 1.378 . S
C2478 C2473 1.350 . S
C2479 H2466 0.929 . S
C2479 C2471 1.433 . S
C2479 N2481 1.384 . S
N2480 C2476 1.427 . S
N2480 C2477 1.384 . S
N2481 C2473 1.427 . S
N2481 C2479 1.384 . S
H2482 C2488 0.930 . S
H2483 C2492 0.929 1_554 S
H2484 C2497 0.927 1_554 S
H2485 C2495 0.929 . S
H2486 C2490 0.927 1_554 S
H2487 C2496 0.929 . S
C2488 H2482 0.930 . S
C2488 C2489 1.367 . S
C2488 C2496 1.378 . S
C2489 C2488 1.367 . S
C2489 C2497 1.435 . S
C2490 H2486 0.927 1_556 S
C2490 C2492 1.378 . S
C2490 C2494 1.351 . S
C2491 C2494 1.463 . S
C2491 C2496 1.350 . S
C2491 N2499 1.429 . S
C2492 H2483 0.929 1_556 S
C2492 C2490 1.378 . S
C2492 C2493 1.368 . S
C2493 C2492 1.368 . S
C2493 C2495 1.433 . S
C2494 C2490 1.351 . S
C2494 C2491 1.463 . S
C2494 N2498 1.427 . S
C2495 H2485 0.929 . S
C2495 C2493 1.433 . S
C2495 N2498 1.384 . S
C2496 H2487 0.929 . S
C2496 C2488 1.378 . S
C2496 C2491 1.350 . S
C2497 H2484 0.927 1_556 S
C2497 C2489 1.435 . S
C2497 N2499 1.384 . S
N2498 C2494 1.427 . S
N2498 C2495 1.384 . S
N2499 C2491 1.429 . S
N2499 C2497 1.384 . S
H2500 C2506 0.930 . S
H2501 C2510 0.930 . S
H2502 C2515 0.929 . S
H2503 C2513 0.929 . S
H2504 C2508 0.929 . S
H2505 C2514 0.929 . S
C2506 H2500 0.930 . S
C2506 C2507 1.367 . S
C2506 C2514 1.378 . S
C2507 C2506 1.367 . S
C2507 C2515 1.433 . S
C2508 H2504 0.929 . S
C2508 C2510 1.378 . S
C2508 C2512 1.350 . S
C2509 C2512 1.463 . S
C2509 C2514 1.350 . S
C2509 N2517 1.427 . S
C2510 H2501 0.930 . S
C2510 C2508 1.378 . S
C2510 C2511 1.367 . S
C2511 C2510 1.367 . S
C2511 C2513 1.433 . S
C2512 C2508 1.350 . S
C2512 C2509 1.463 . S
C2512 N2516 1.427 . S
C2513 H2503 0.929 . S
C2513 C2511 1.433 . S
C2513 N2516 1.384 . S
C2514 H2505 0.929 . S
C2514 C2506 1.378 . S
C2514 C2509 1.350 . S
C2515 H2502 0.929 . S
C2515 C2507 1.433 . S
C2515 N2517 1.384 . S
N2516 C2512 1.427 . S
N2516 C2513 1.384 . S
N2517 C2509 1.427 . S
N2517 C2515 1.384 . S
H2518 C2524 0.929 1_556 S
H2519 C2528 0.930 . S
H2520 C2533 0.929 . S
H2521 C2531 0.927 1_556 S
H2522 C2526 0.929 . S
H2523 C2532 0.927 1_556 S
C2524 H2518 0.929 1_554 S
C2524 C2525 1.368 . S
C2524 C2532 1.378 . S
C2525 C2524 1.368 . S
C2525 C2533 1.433 . S
C2526 H2522 0.929 . S
C2526 C2528 1.378 . S
C2526 C2530 1.350 . S
C2527 C2530 1.463 . S
C2527 C2532 1.352 . S
C2527 N2535 1.427 . S
C2528 H2519 0.930 . S
C2528 C2526 1.378 . S
C2528 C2529 1.367 . S
C2529 C2528 1.367 . S
C2529 C2531 1.435 . S
C2530 C2526 1.350 . S
C2530 C2527 1.463 . S
C2530 N2534 1.429 . S
C2531 H2521 0.927 1_554 S
C2531 C2529 1.435 . S
C2531 N2534 1.384 . S
C2532 H2523 0.927 1_554 S
C2532 C2524 1.378 . S
C2532 C2527 1.352 . S
C2533 H2520 0.929 . S
C2533 C2525 1.433 . S
C2533 N2535 1.384 . S
N2534 C2530 1.429 . S
N2534 C2531 1.384 . S
N2535 C2527 1.427 . S
N2535 C2533 1.384 . S
H2536 C2542 0.930 . S
H2537 C2546 0.930 . S
H2538 C2551 0.929 . S
H2539 C2549 0.929 . S
H2540 C2544 0.929 . S
H2541 C2550 0.929 . S
C2542 H2536 0.930 . S
C2542 C2543 1.367 . S
C2542 C2550 1.378 . S
C2543 C2542 1.367 . S
C2543 C2551 1.433 . S
C2544 H2540 0.929 . S
C2544 C2546 1.378 . S
C2544 C2548 1.350 . S
C2545 C2548 1.463 . S
C2545 C2550 1.350 . S
C2545 N2553 1.427 . S
C2546 H2537 0.930 . S
C2546 C2544 1.378 . S
C2546 C2547 1.367 . S
C2547 C2546 1.367 . S
C2547 C2549 1.433 . S
C2548 C2544 1.350 . S
C2548 C2545 1.463 . S
C2548 N2552 1.427 . S
C2549 H2539 0.929 . S
C2549 C2547 1.433 . S
C2549 N2552 1.384 . S
C2550 H2541 0.929 . S
C2550 C2542 1.378 . S
C2550 C2545 1.350 . S
C2551 H2538 0.929 . S
C2551 C2543 1.433 . S
C2551 N2553 1.384 . S
N2552 C2548 1.427 . S
N2552 C2549 1.384 . S
N2553 C2545 1.427 . S
N2553 C2551 1.384 . S
H2554 C2560 0.930 . S
H2555 C2564 0.930 . S
H2556 C2569 0.929 . S
H2557 C2567 0.929 . S
H2558 C2562 0.929 . S
H2559 C2568 0.929 . S
C2560 H2554 0.930 . S
C2560 C2561 1.367 . S
C2560 C2568 1.378 . S
C2561 C2560 1.367 . S
C2561 C2569 1.433 . S
C2562 H2558 0.929 . S
C2562 C2564 1.378 . S
C2562 C2566 1.350 . S
C2563 C2566 1.463 . S
C2563 C2568 1.350 . S
C2563 N2571 1.427 . S
C2564 H2555 0.930 . S
C2564 C2562 1.378 . S
C2564 C2565 1.367 . S
C2565 C2564 1.367 . S
C2565 C2567 1.433 . S
C2566 C2562 1.350 . S
C2566 C2563 1.463 . S
C2566 N2570 1.427 . S
C2567 H2557 0.929 . S
C2567 C2565 1.433 . S
C2567 N2570 1.384 . S
C2568 H2559 0.929 . S
C2568 C2560 1.378 . S
C2568 C2563 1.350 . S
C2569 H2556 0.929 . S
C2569 C2561 1.433 . S
C2569 N2571 1.384 . S
N2570 C2566 1.427 . S
N2570 C2567 1.384 . S
N2571 C2563 1.427 . S
N2571 C2569 1.384 . S
H2572 C2578 0.930 . S
H2573 C2582 0.930 . S
H2574 C2587 0.929 . S
H2575 C2585 0.929 . S
H2576 C2580 0.929 . S
H2577 C2586 0.929 . S
C2578 H2572 0.930 . S
C2578 C2579 1.367 . S
C2578 C2586 1.378 . S
C2579 C2578 1.367 . S
C2579 C2587 1.433 . S
C2580 H2576 0.929 . S
C2580 C2582 1.378 . S
C2580 C2584 1.350 . S
C2581 C2584 1.463 . S
C2581 C2586 1.350 . S
C2581 N2589 1.427 . S
C2582 H2573 0.930 . S
C2582 C2580 1.378 . S
C2582 C2583 1.367 . S
C2583 C2582 1.367 . S
C2583 C2585 1.433 . S
C2584 C2580 1.350 . S
C2584 C2581 1.463 . S
C2584 N2588 1.427 . S
C2585 H2575 0.929 . S
C2585 C2583 1.433 . S
C2585 N2588 1.384 . S
C2586 H2577 0.929 . S
C2586 C2578 1.378 . S
C2586 C2581 1.350 . S
C2587 H2574 0.929 . S
C2587 C2579 1.433 . S
C2587 N2589 1.384 . S
N2588 C2584 1.427 . S
N2588 C2585 1.384 . S
N2589 C2581 1.427 . S
N2589 C2587 1.384 . S
H2590 C2596 0.930 . S
H2591 C2600 0.930 . S
H2592 C2605 0.929 . S
H2593 C2603 0.929 . S
H2594 C2598 0.929 . S
H2595 C2604 0.929 . S
C2596 H2590 0.930 . S
C2596 C2597 1.367 . S
C2596 C2604 1.378 . S
C2597 C2596 1.367 . S
C2597 C2605 1.433 . S
C2598 H2594 0.929 . S
C2598 C2600 1.378 . S
C2598 C2602 1.350 . S
C2599 C2602 1.463 . S
C2599 C2604 1.350 . S
C2599 N2607 1.427 . S
C2600 H2591 0.930 . S
C2600 C2598 1.378 . S
C2600 C2601 1.367 . S
C2601 C2600 1.367 . S
C2601 C2603 1.433 . S
C2602 C2598 1.350 . S
C2602 C2599 1.463 . S
C2602 N2606 1.427 . S
C2603 H2593 0.929 . S
C2603 C2601 1.433 . S
C2603 N2606 1.384 . S
C2604 H2595 0.929 . S
C2604 C2596 1.378 . S
C2604 C2599 1.350 . S
C2605 H2592 0.929 . S
C2605 C2597 1.433 . S
C2605 N2607 1.384 . S
N2606 C2602 1.427 . S
N2606 C2603 1.384 . S
N2607 C2599 1.427 . S
N2607 C2605 1.384 . S
H2608 C2614 0.930 . S
H2609 C2618 0.930 . S
H2610 C2623 0.929 . S
H2611 C2621 0.929 . S
H2612 C2616 0.929 . S
H2613 C2622 0.929 . S
C2614 H2608 0.930 . S
C2614 C2615 1.367 . S
C2614 C2622 1.378 . S
C2615 C2614 1.367 . S
C2615 C2623 1.433 . S
C2616 H2612 0.929 . S
C2616 C2618 1.378 . S
C2616 C2620 1.350 . S
C2617 C2620 1.463 . S
C2617 C2622 1.350 . S
C2617 N2625 1.427 . S
C2618 H2609 0.930 . S
C2618 C2616 1.378 . S
C2618 C2619 1.367 . S
C2619 C2618 1.367 . S
C2619 C2621 1.433 . S
C2620 C2616 1.350 . S
C2620 C2617 1.463 . S
C2620 N2624 1.427 . S
C2621 H2611 0.929 . S
C2621 C2619 1.433 . S
C2621 N2624 1.384 . S
C2622 H2613 0.929 . S
C2622 C2614 1.378 . S
C2622 C2617 1.350 . S
C2623 H2610 0.929 . S
C2623 C2615 1.433 . S
C2623 N2625 1.384 . S
N2624 C2620 1.427 . S
N2624 C2621 1.384 . S
N2625 C2617 1.427 . S
N2625 C2623 1.384 . S
H2626 C2632 0.930 . S
H2627 C2636 0.930 . S
H2628 C2641 0.929 . S
H2629 C2639 0.929 . S
H2630 C2634 0.929 . S
H2631 C2640 0.929 . S
C2632 H2626 0.930 . S
C2632 C2633 1.367 . S
C2632 C2640 1.378 . S
C2633 C2632 1.367 . S
C2633 C2641 1.433 . S
C2634 H2630 0.929 . S
C2634 C2636 1.378 . S
C2634 C2638 1.350 . S
C2635 C2638 1.463 . S
C2635 C2640 1.350 . S
C2635 N2643 1.427 . S
C2636 H2627 0.930 . S
C2636 C2634 1.378 . S
C2636 C2637 1.367 . S
C2637 C2636 1.367 . S
C2637 C2639 1.433 . S
C2638 C2634 1.350 . S
C2638 C2635 1.463 . S
C2638 N2642 1.427 . S
C2639 H2629 0.929 . S
C2639 C2637 1.433 . S
C2639 N2642 1.384 . S
C2640 H2631 0.929 . S
C2640 C2632 1.378 . S
C2640 C2635 1.350 . S
C2641 H2628 0.929 . S
C2641 C2633 1.433 . S
C2641 N2643 1.384 . S
N2642 C2638 1.427 . S
N2642 C2639 1.384 . S
N2643 C2635 1.427 . S
N2643 C2641 1.384 . S
H2644 C2650 0.930 . S
H2645 C2654 0.930 . S
H2646 C2659 0.929 . S
H2647 C2657 0.929 . S
H2648 C2652 0.929 . S
H2649 C2658 0.929 . S
C2650 H2644 0.930 . S
C2650 C2651 1.367 . S
C2650 C2658 1.378 . S
C2651 C2650 1.367 . S
C2651 C2659 1.433 . S
C2652 H2648 0.929 . S
C2652 C2654 1.378 . S
C2652 C2656 1.350 . S
C2653 C2656 1.463 . S
C2653 C2658 1.350 . S
C2653 N2661 1.427 . S
C2654 H2645 0.930 . S
C2654 C2652 1.378 . S
C2654 C2655 1.367 . S
C2655 C2654 1.367 . S
C2655 C2657 1.433 . S
C2656 C2652 1.350 . S
C2656 C2653 1.463 . S
C2656 N2660 1.427 . S
C2657 H2647 0.929 . S
C2657 C2655 1.433 . S
C2657 N2660 1.384 . S
C2658 H2649 0.929 . S
C2658 C2650 1.378 . S
C2658 C2653 1.350 . S
C2659 H2646 0.929 . S
C2659 C2651 1.433 . S
C2659 N2661 1.384 . S
N2660 C2656 1.427 . S
N2660 C2657 1.384 . S
N2661 C2653 1.427 . S
N2661 C2659 1.384 . S
H2662 C2668 0.930 . S
H2663 C2672 0.930 . S
H2664 C2677 0.929 . S
H2665 C2675 0.929 . S
H2666 C2670 0.929 . S
H2667 C2676 0.929 . S
C2668 H2662 0.930 . S
C2668 C2669 1.367 . S
C2668 C2676 1.378 . S
C2669 C2668 1.367 . S
C2669 C2677 1.433 . S
C2670 H2666 0.929 . S
C2670 C2672 1.378 . S
C2670 C2674 1.350 . S
C2671 C2674 1.463 . S
C2671 C2676 1.350 . S
C2671 N2679 1.427 . S
C2672 H2663 0.930 . S
C2672 C2670 1.378 . S
C2672 C2673 1.367 . S
C2673 C2672 1.367 . S
C2673 C2675 1.433 . S
C2674 C2670 1.350 . S
C2674 C2671 1.463 . S
C2674 N2678 1.427 . S
C2675 H2665 0.929 . S
C2675 C2673 1.433 . S
C2675 N2678 1.384 . S
C2676 H2667 0.929 . S
C2676 C2668 1.378 . S
C2676 C2671 1.350 . S
C2677 H2664 0.929 . S
C2677 C2669 1.433 . S
C2677 N2679 1.384 . S
N2678 C2674 1.427 . S
N2678 C2675 1.384 . S
N2679 C2671 1.427 . S
N2679 C2677 1.384 . S
H2680 C2686 0.930 . S
H2681 C2690 0.930 . S
H2682 C2695 0.929 . S
H2683 C2693 0.929 . S
H2684 C2688 0.929 . S
H2685 C2694 0.929 . S
C2686 H2680 0.930 . S
C2686 C2687 1.367 . S
C2686 C2694 1.378 . S
C2687 C2686 1.367 . S
C2687 C2695 1.433 . S
C2688 H2684 0.929 . S
C2688 C2690 1.378 . S
C2688 C2692 1.350 . S
C2689 C2692 1.463 . S
C2689 C2694 1.350 . S
C2689 N2697 1.427 . S
C2690 H2681 0.930 . S
C2690 C2688 1.378 . S
C2690 C2691 1.367 . S
C2691 C2690 1.367 . S
C2691 C2693 1.433 . S
C2692 C2688 1.350 . S
C2692 C2689 1.463 . S
C2692 N2696 1.427 . S
C2693 H2683 0.929 . S
C2693 C2691 1.433 . S
C2693 N2696 1.384 . S
C2694 H2685 0.929 . S
C2694 C2686 1.378 . S
C2694 C2689 1.350 . S
C2695 H2682 0.929 . S
C2695 C2687 1.433 . S
C2695 N2697 1.384 . S
N2696 C2692 1.427 . S
N2696 C2693 1.384 . S
N2697 C2689 1.427 . S
N2697 C2695 1.384 . S
H2698 C2704 0.930 . S
H2699 C2708 0.930 . S
H2700 C2713 0.929 . S
H2701 C2711 0.929 . S
H2702 C2706 0.929 . S
H2703 C2712 0.929 . S
C2704 H2698 0.930 . S
C2704 C2705 1.367 . S
C2704 C2712 1.378 . S
C2705 C2704 1.367 . S
C2705 C2713 1.433 1_556 S
C2706 H2702 0.929 . S
C2706 C2708 1.378 . S
C2706 C2710 1.350 1_554 S
C2707 C2710 1.463 . S
C2707 C2712 1.350 . S
C2707 N2715 1.427 1_556 S
C2708 H2699 0.930 . S
C2708 C2706 1.378 . S
C2708 C2709 1.367 1_554 S
C2709 C2708 1.367 1_556 S
C2709 C2711 1.433 . S
C2710 C2706 1.350 1_556 S
C2710 C2707 1.463 . S
C2710 N2714 1.427 . S
C2711 H2701 0.929 . S
C2711 C2709 1.433 . S
C2711 N2714 1.384 . S
C2712 H2703 0.929 . S
C2712 C2704 1.378 . S
C2712 C2707 1.350 . S
C2713 H2700 0.929 . S
C2713 C2705 1.433 1_554 S
C2713 N2715 1.384 . S
N2714 C2710 1.427 . S
N2714 C2711 1.384 . S
N2715 C2707 1.427 1_554 S
N2715 C2713 1.384 . S
H2716 C2722 0.930 . S
H2717 C2726 0.930 . S
H2718 C2731 0.929 . S
H2719 C2729 0.929 . S
H2720 C2724 0.929 . S
H2721 C2730 0.929 . S
C2722 H2716 0.930 . S
C2722 C2723 1.367 . S
C2722 C2730 1.378 . S
C2723 C2722 1.367 . S
C2723 C2731 1.433 . S
C2724 H2720 0.929 . S
C2724 C2726 1.378 . S
C2724 C2728 1.350 . S
C2725 C2728 1.463 . S
C2725 C2730 1.350 . S
C2725 N2733 1.427 . S
C2726 H2717 0.930 . S
C2726 C2724 1.378 . S
C2726 C2727 1.367 . S
C2727 C2726 1.367 . S
C2727 C2729 1.433 . S
C2728 C2724 1.350 . S
C2728 C2725 1.463 . S
C2728 N2732 1.427 . S
C2729 H2719 0.929 . S
C2729 C2727 1.433 . S
C2729 N2732 1.384 . S
C2730 H2721 0.929 . S
C2730 C2722 1.378 . S
C2730 C2725 1.350 . S
C2731 H2718 0.929 . S
C2731 C2723 1.433 . S
C2731 N2733 1.384 . S
N2732 C2728 1.427 . S
N2732 C2729 1.384 . S
N2733 C2725 1.427 . S
N2733 C2731 1.384 . S
H2734 C2740 0.930 . S
H2735 C2744 0.930 . S
H2736 C2749 0.929 . S
H2737 C2747 0.929 . S
H2738 C2742 0.929 . S
H2739 C2748 0.929 . S
C2740 H2734 0.930 . S
C2740 C2741 1.367 . S
C2740 C2748 1.378 . S
C2741 C2740 1.367 . S
C2741 C2749 1.433 1_554 S
C2742 H2738 0.929 . S
C2742 C2744 1.378 . S
C2742 C2746 1.350 1_556 S
C2743 C2746 1.463 . S
C2743 C2748 1.350 . S
C2743 N2751 1.427 1_554 S
C2744 H2735 0.930 . S
C2744 C2742 1.378 . S
C2744 C2745 1.367 1_556 S
C2745 C2744 1.367 1_554 S
C2745 C2747 1.433 . S
C2746 C2742 1.350 1_554 S
C2746 C2743 1.463 . S
C2746 N2750 1.427 . S
C2747 H2737 0.929 . S
C2747 C2745 1.433 . S
C2747 N2750 1.384 . S
C2748 H2739 0.929 . S
C2748 C2740 1.378 . S
C2748 C2743 1.350 . S
C2749 H2736 0.929 . S
C2749 C2741 1.433 1_556 S
C2749 N2751 1.384 . S
N2750 C2746 1.427 . S
N2750 C2747 1.384 . S
N2751 C2743 1.427 1_556 S
N2751 C2749 1.384 . S
H2752 C2758 0.930 1_455 S
H2753 C2762 0.930 . S
H2754 C2767 0.929 . S
H2755 C2765 0.929 . S
H2756 C2760 0.929 . S
H2757 C2766 0.929 . S
C2758 H2752 0.930 1_655 S
C2758 C2759 1.367 . S
C2758 C2766 1.378 . S
C2759 C2758 1.367 . S
C2759 C2767 1.433 . S
C2760 H2756 0.929 . S
C2760 C2762 1.378 . S
C2760 C2764 1.350 . S
C2761 C2764 1.463 . S
C2761 C2766 1.350 . S
C2761 N2769 1.427 . S
C2762 H2753 0.930 . S
C2762 C2760 1.378 . S
C2762 C2763 1.367 . S
C2763 C2762 1.367 . S
C2763 C2765 1.433 . S
C2764 C2760 1.350 . S
C2764 C2761 1.463 . S
C2764 N2768 1.427 . S
C2765 H2755 0.929 . S
C2765 C2763 1.433 . S
C2765 N2768 1.384 . S
C2766 H2757 0.929 . S
C2766 C2758 1.378 . S
C2766 C2761 1.350 . S
C2767 H2754 0.929 . S
C2767 C2759 1.433 . S
C2767 N2769 1.384 . S
N2768 C2764 1.427 . S
N2768 C2765 1.384 . S
N2769 C2761 1.427 . S
N2769 C2767 1.384 . S
H2770 C2776 0.930 . S
H2771 C2780 0.930 . S
H2772 C2785 0.929 . S
H2773 C2783 0.929 . S
H2774 C2778 0.929 . S
H2775 C2784 0.929 . S
C2776 H2770 0.930 . S
C2776 C2777 1.367 . S
C2776 C2784 1.378 . S
C2777 C2776 1.367 . S
C2777 C2785 1.433 . S
C2778 H2774 0.929 . S
C2778 C2780 1.378 . S
C2778 C2782 1.350 . S
C2779 C2782 1.463 . S
C2779 C2784 1.350 . S
C2779 N2787 1.427 . S
C2780 H2771 0.930 . S
C2780 C2778 1.378 . S
C2780 C2781 1.367 . S
C2781 C2780 1.367 . S
C2781 C2783 1.433 . S
C2782 C2778 1.350 . S
C2782 C2779 1.463 . S
C2782 N2786 1.427 . S
C2783 H2773 0.929 . S
C2783 C2781 1.433 . S
C2783 N2786 1.384 . S
C2784 H2775 0.929 . S
C2784 C2776 1.378 . S
C2784 C2779 1.350 . S
C2785 H2772 0.929 . S
C2785 C2777 1.433 . S
C2785 N2787 1.384 . S
N2786 C2782 1.427 . S
N2786 C2783 1.384 . S
N2787 C2779 1.427 . S
N2787 C2785 1.384 . S
H2788 C2794 0.930 . S
H2789 C2798 0.930 . S
H2790 C2803 0.929 . S
H2791 C2801 0.929 . S
H2792 C2796 0.929 . S
H2793 C2802 0.929 . S
C2794 H2788 0.930 . S
C2794 C2795 1.367 . S
C2794 C2802 1.378 . S
C2795 C2794 1.367 . S
C2795 C2803 1.433 . S
C2796 H2792 0.929 . S
C2796 C2798 1.378 . S
C2796 C2800 1.350 . S
C2797 C2800 1.463 . S
C2797 C2802 1.350 . S
C2797 N2805 1.427 . S
C2798 H2789 0.930 . S
C2798 C2796 1.378 . S
C2798 C2799 1.367 . S
C2799 C2798 1.367 . S
C2799 C2801 1.433 . S
C2800 C2796 1.350 . S
C2800 C2797 1.463 . S
C2800 N2804 1.427 . S
C2801 H2791 0.929 . S
C2801 C2799 1.433 . S
C2801 N2804 1.384 . S
C2802 H2793 0.929 . S
C2802 C2794 1.378 . S
C2802 C2797 1.350 . S
C2803 H2790 0.929 . S
C2803 C2795 1.433 . S
C2803 N2805 1.384 . S
N2804 C2800 1.427 . S
N2804 C2801 1.384 . S
N2805 C2797 1.427 . S
N2805 C2803 1.384 . S
H2806 C2812 0.930 . S
H2807 C2816 0.930 . S
H2808 C2821 0.929 . S
H2809 C2819 0.929 . S
H2810 C2814 0.929 . S
H2811 C2820 0.929 . S
C2812 H2806 0.930 . S
C2812 C2813 1.367 . S
C2812 C2820 1.378 . S
C2813 C2812 1.367 . S
C2813 C2821 1.433 . S
C2814 H2810 0.929 . S
C2814 C2816 1.378 . S
C2814 C2818 1.350 . S
C2815 C2818 1.463 . S
C2815 C2820 1.350 . S
C2815 N2823 1.427 . S
C2816 H2807 0.930 . S
C2816 C2814 1.378 . S
C2816 C2817 1.367 . S
C2817 C2816 1.367 . S
C2817 C2819 1.433 . S
C2818 C2814 1.350 . S
C2818 C2815 1.463 . S
C2818 N2822 1.427 . S
C2819 H2809 0.929 . S
C2819 C2817 1.433 . S
C2819 N2822 1.384 . S
C2820 H2811 0.929 . S
C2820 C2812 1.378 . S
C2820 C2815 1.350 . S
C2821 H2808 0.929 . S
C2821 C2813 1.433 . S
C2821 N2823 1.384 . S
N2822 C2818 1.427 . S
N2822 C2819 1.384 . S
N2823 C2815 1.427 . S
N2823 C2821 1.384 . S
H2824 C2830 0.930 . S
H2825 C2834 0.930 . S
H2826 C2839 0.929 . S
H2827 C2837 0.929 . S
H2828 C2832 0.929 . S
H2829 C2838 0.929 . S
C2830 H2824 0.930 . S
C2830 C2831 1.367 . S
C2830 C2838 1.378 . S
C2831 C2830 1.367 . S
C2831 C2839 1.433 . S
C2832 H2828 0.929 . S
C2832 C2834 1.378 . S
C2832 C2836 1.350 . S
C2833 C2836 1.463 . S
C2833 C2838 1.350 . S
C2833 N2841 1.427 . S
C2834 H2825 0.930 . S
C2834 C2832 1.378 . S
C2834 C2835 1.367 . S
C2835 C2834 1.367 . S
C2835 C2837 1.433 . S
C2836 C2832 1.350 . S
C2836 C2833 1.463 . S
C2836 N2840 1.427 . S
C2837 H2827 0.929 . S
C2837 C2835 1.433 . S
C2837 N2840 1.384 . S
C2838 H2829 0.929 . S
C2838 C2830 1.378 . S
C2838 C2833 1.350 . S
C2839 H2826 0.929 . S
C2839 C2831 1.433 . S
C2839 N2841 1.384 . S
N2840 C2836 1.427 . S
N2840 C2837 1.384 . S
N2841 C2833 1.427 . S
N2841 C2839 1.384 . S
H2842 C2848 0.930 . S
H2843 C2852 0.930 . S
H2844 C2857 0.929 . S
H2845 C2855 0.929 . S
H2846 C2850 0.929 . S
H2847 C2856 0.929 . S
C2848 H2842 0.930 . S
C2848 C2849 1.367 . S
C2848 C2856 1.378 . S
C2849 C2848 1.367 . S
C2849 C2857 1.433 . S
C2850 H2846 0.929 . S
C2850 C2852 1.378 . S
C2850 C2854 1.350 . S
C2851 C2854 1.463 . S
C2851 C2856 1.350 . S
C2851 N2859 1.427 . S
C2852 H2843 0.930 . S
C2852 C2850 1.378 . S
C2852 C2853 1.367 . S
C2853 C2852 1.367 . S
C2853 C2855 1.433 . S
C2854 C2850 1.350 . S
C2854 C2851 1.463 . S
C2854 N2858 1.427 . S
C2855 H2845 0.929 . S
C2855 C2853 1.433 . S
C2855 N2858 1.384 . S
C2856 H2847 0.929 . S
C2856 C2848 1.378 . S
C2856 C2851 1.350 . S
C2857 H2844 0.929 . S
C2857 C2849 1.433 . S
C2857 N2859 1.384 . S
N2858 C2854 1.427 . S
N2858 C2855 1.384 . S
N2859 C2851 1.427 . S
N2859 C2857 1.384 . S
H2860 C2866 0.930 . S
H2861 C2870 0.930 1_655 S
H2862 C2875 0.929 . S
H2863 C2873 0.929 . S
H2864 C2868 0.929 . S
H2865 C2874 0.929 . S
C2866 H2860 0.930 . S
C2866 C2867 1.367 . S
C2866 C2874 1.378 . S
C2867 C2866 1.367 . S
C2867 C2875 1.433 . S
C2868 H2864 0.929 . S
C2868 C2870 1.378 . S
C2868 C2872 1.350 . S
C2869 C2872 1.463 . S
C2869 C2874 1.350 . S
C2869 N2877 1.427 . S
C2870 H2861 0.930 1_455 S
C2870 C2868 1.378 . S
C2870 C2871 1.367 . S
C2871 C2870 1.367 . S
C2871 C2873 1.433 . S
C2872 C2868 1.350 . S
C2872 C2869 1.463 . S
C2872 N2876 1.427 . S
C2873 H2863 0.929 . S
C2873 C2871 1.433 . S
C2873 N2876 1.384 . S
C2874 H2865 0.929 . S
C2874 C2866 1.378 . S
C2874 C2869 1.350 . S
C2875 H2862 0.929 . S
C2875 C2867 1.433 . S
C2875 N2877 1.384 . S
N2876 C2872 1.427 . S
N2876 C2873 1.384 . S
N2877 C2869 1.427 . S
N2877 C2875 1.384 . S
H2878 C2884 0.930 . S
H2879 C2888 0.930 . S
H2880 C2893 0.929 . S
H2881 C2891 0.929 . S
H2882 C2886 0.929 . S
H2883 C2892 0.929 . S
C2884 H2878 0.930 . S
C2884 C2885 1.367 . S
C2884 C2892 1.378 . S
C2885 C2884 1.367 . S
C2885 C2893 1.433 . S
C2886 H2882 0.929 . S
C2886 C2888 1.378 . S
C2886 C2890 1.350 . S
C2887 C2890 1.463 . S
C2887 C2892 1.350 . S
C2887 N2895 1.427 . S
C2888 H2879 0.930 . S
C2888 C2886 1.378 . S
C2888 C2889 1.367 . S
C2889 C2888 1.367 . S
C2889 C2891 1.433 . S
C2890 C2886 1.350 . S
C2890 C2887 1.463 . S
C2890 N2894 1.427 . S
C2891 H2881 0.929 . S
C2891 C2889 1.433 . S
C2891 N2894 1.384 . S
C2892 H2883 0.929 . S
C2892 C2884 1.378 . S
C2892 C2887 1.350 . S
C2893 H2880 0.929 . S
C2893 C2885 1.433 . S
C2893 N2895 1.384 . S
N2894 C2890 1.427 . S
N2894 C2891 1.384 . S
N2895 C2887 1.427 . S
N2895 C2893 1.384 . S
H2896 C2902 0.930 . S
H2897 C2906 0.930 . S
H2898 C2911 0.929 . S
H2899 C2909 0.929 . S
H2900 C2904 0.929 . S
H2901 C2910 0.929 . S
C2902 H2896 0.930 . S
C2902 C2903 1.367 . S
C2902 C2910 1.378 . S
C2903 C2902 1.367 . S
C2903 C2911 1.433 . S
C2904 H2900 0.929 . S
C2904 C2906 1.378 . S
C2904 C2908 1.350 . S
C2905 C2908 1.463 . S
C2905 C2910 1.350 . S
C2905 N2913 1.427 . S
C2906 H2897 0.930 . S
C2906 C2904 1.378 . S
C2906 C2907 1.367 . S
C2907 C2906 1.367 . S
C2907 C2909 1.433 . S
C2908 C2904 1.350 . S
C2908 C2905 1.463 . S
C2908 N2912 1.427 . S
C2909 H2899 0.929 . S
C2909 C2907 1.433 . S
C2909 N2912 1.384 . S
C2910 H2901 0.929 . S
C2910 C2902 1.378 . S
C2910 C2905 1.350 . S
C2911 H2898 0.929 . S
C2911 C2903 1.433 . S
C2911 N2913 1.384 . S
N2912 C2908 1.427 . S
N2912 C2909 1.384 . S
N2913 C2905 1.427 . S
N2913 C2911 1.384 . S
H2914 C2920 0.930 . S
H2915 C2924 0.930 . S
H2916 C2929 0.929 . S
H2917 C2927 0.929 . S
H2918 C2922 0.929 . S
H2919 C2928 0.929 . S
C2920 H2914 0.930 . S
C2920 C2921 1.367 . S
C2920 C2928 1.378 . S
C2921 C2920 1.367 . S
C2921 C2929 1.433 . S
C2922 H2918 0.929 . S
C2922 C2924 1.378 . S
C2922 C2926 1.350 . S
C2923 C2926 1.463 . S
C2923 C2928 1.350 . S
C2923 N2931 1.427 . S
C2924 H2915 0.930 . S
C2924 C2922 1.378 . S
C2924 C2925 1.367 . S
C2925 C2924 1.367 . S
C2925 C2927 1.433 . S
C2926 C2922 1.350 . S
C2926 C2923 1.463 . S
C2926 N2930 1.427 . S
C2927 H2917 0.929 . S
C2927 C2925 1.433 . S
C2927 N2930 1.384 . S
C2928 H2919 0.929 . S
C2928 C2920 1.378 . S
C2928 C2923 1.350 . S
C2929 H2916 0.929 . S
C2929 C2921 1.433 . S
C2929 N2931 1.384 . S
N2930 C2926 1.427 . S
N2930 C2927 1.384 . S
N2931 C2923 1.427 . S
N2931 C2929 1.384 . S
H2932 C2938 0.930 . S
H2933 C2942 0.930 . S
H2934 C2947 0.929 . S
H2935 C2945 0.929 . S
H2936 C2940 0.929 . S
H2937 C2946 0.929 . S
C2938 H2932 0.930 . S
C2938 C2939 1.367 . S
C2938 C2946 1.378 . S
C2939 C2938 1.367 . S
C2939 C2947 1.433 . S
C2940 H2936 0.929 . S
C2940 C2942 1.378 . S
C2940 C2944 1.350 . S
C2941 C2944 1.463 . S
C2941 C2946 1.350 . S
C2941 N2949 1.427 . S
C2942 H2933 0.930 . S
C2942 C2940 1.378 . S
C2942 C2943 1.367 . S
C2943 C2942 1.367 . S
C2943 C2945 1.433 . S
C2944 C2940 1.350 . S
C2944 C2941 1.463 . S
C2944 N2948 1.427 . S
C2945 H2935 0.929 . S
C2945 C2943 1.433 . S
C2945 N2948 1.384 . S
C2946 H2937 0.929 . S
C2946 C2938 1.378 . S
C2946 C2941 1.350 . S
C2947 H2934 0.929 . S
C2947 C2939 1.433 . S
C2947 N2949 1.384 . S
N2948 C2944 1.427 . S
N2948 C2945 1.384 . S
N2949 C2941 1.427 . S
N2949 C2947 1.384 . S
H2950 C2956 0.930 . S
H2951 C2960 0.930 . S
H2952 C2965 0.929 . S
H2953 C2963 0.929 . S
H2954 C2958 0.929 . S
H2955 C2964 0.929 . S
C2956 H2950 0.930 . S
C2956 C2957 1.367 . S
C2956 C2964 1.378 . S
C2957 C2956 1.367 . S
C2957 C2965 1.433 . S
C2958 H2954 0.929 . S
C2958 C2960 1.378 . S
C2958 C2962 1.350 . S
C2959 C2962 1.463 . S
C2959 C2964 1.350 . S
C2959 N2967 1.427 . S
C2960 H2951 0.930 . S
C2960 C2958 1.378 . S
C2960 C2961 1.367 . S
C2961 C2960 1.367 . S
C2961 C2963 1.433 . S
C2962 C2958 1.350 . S
C2962 C2959 1.463 . S
C2962 N2966 1.427 . S
C2963 H2953 0.929 . S
C2963 C2961 1.433 . S
C2963 N2966 1.384 . S
C2964 H2955 0.929 . S
C2964 C2956 1.378 . S
C2964 C2959 1.350 . S
C2965 H2952 0.929 . S
C2965 C2957 1.433 . S
C2965 N2967 1.384 . S
N2966 C2962 1.427 . S
N2966 C2963 1.384 . S
N2967 C2959 1.427 . S
N2967 C2965 1.384 . S
H2968 C2974 0.930 . S
H2969 C2978 0.930 . S
H2970 C2983 0.929 . S
H2971 C2981 0.929 . S
H2972 C2976 0.929 . S
H2973 C2982 0.929 . S
C2974 H2968 0.930 . S
C2974 C2975 1.367 . S
C2974 C2982 1.378 . S
C2975 C2974 1.367 . S
C2975 C2983 1.433 . S
C2976 H2972 0.929 . S
C2976 C2978 1.378 . S
C2976 C2980 1.350 . S
C2977 C2980 1.463 . S
C2977 C2982 1.350 . S
C2977 N2985 1.427 . S
C2978 H2969 0.930 . S
C2978 C2976 1.378 . S
C2978 C2979 1.367 . S
C2979 C2978 1.367 . S
C2979 C2981 1.433 . S
C2980 C2976 1.350 . S
C2980 C2977 1.463 . S
C2980 N2984 1.427 . S
C2981 H2971 0.929 . S
C2981 C2979 1.433 . S
C2981 N2984 1.384 . S
C2982 H2973 0.929 . S
C2982 C2974 1.378 . S
C2982 C2977 1.350 . S
C2983 H2970 0.929 . S
C2983 C2975 1.433 . S
C2983 N2985 1.384 . S
N2984 C2980 1.427 . S
N2984 C2981 1.384 . S
N2985 C2977 1.427 . S
N2985 C2983 1.384 . S
H2986 C2992 0.930 . S
H2987 C2996 0.930 . S
H2988 C3001 0.929 . S
H2989 C2999 0.929 . S
H2990 C2994 0.929 . S
H2991 C3000 0.929 . S
C2992 H2986 0.930 . S
C2992 C2993 1.367 . S
C2992 C3000 1.378 . S
C2993 C2992 1.367 . S
C2993 C3001 1.433 . S
C2994 H2990 0.929 . S
C2994 C2996 1.378 . S
C2994 C2998 1.350 . S
C2995 C2998 1.463 . S
C2995 C3000 1.350 . S
C2995 N3003 1.427 . S
C2996 H2987 0.930 . S
C2996 C2994 1.378 . S
C2996 C2997 1.367 . S
C2997 C2996 1.367 . S
C2997 C2999 1.433 . S
C2998 C2994 1.350 . S
C2998 C2995 1.463 . S
C2998 N3002 1.427 . S
C2999 H2989 0.929 . S
C2999 C2997 1.433 . S
C2999 N3002 1.384 . S
C3000 H2991 0.929 . S
C3000 C2992 1.378 . S
C3000 C2995 1.350 . S
C3001 H2988 0.929 . S
C3001 C2993 1.433 . S
C3001 N3003 1.384 . S
N3002 C2998 1.427 . S
N3002 C2999 1.384 . S
N3003 C2995 1.427 . S
N3003 C3001 1.384 . S
H3004 C3010 0.930 1_655 S
H3005 C3014 0.930 . S
H3006 C3019 0.929 . S
H3007 C3017 0.929 . S
H3008 C3012 0.929 . S
H3009 C3018 0.929 . S
C3010 H3004 0.930 1_455 S
C3010 C3011 1.367 . S
C3010 C3018 1.378 . S
C3011 C3010 1.367 . S
C3011 C3019 1.433 . S
C3012 H3008 0.929 . S
C3012 C3014 1.378 . S
C3012 C3016 1.350 . S
C3013 C3016 1.463 . S
C3013 C3018 1.350 . S
C3013 N3021 1.427 . S
C3014 H3005 0.930 . S
C3014 C3012 1.378 . S
C3014 C3015 1.367 . S
C3015 C3014 1.367 . S
C3015 C3017 1.433 . S
C3016 C3012 1.350 . S
C3016 C3013 1.463 . S
C3016 N3020 1.427 . S
C3017 H3007 0.929 . S
C3017 C3015 1.433 . S
C3017 N3020 1.384 . S
C3018 H3009 0.929 . S
C3018 C3010 1.378 . S
C3018 C3013 1.350 . S
C3019 H3006 0.929 . S
C3019 C3011 1.433 . S
C3019 N3021 1.384 . S
N3020 C3016 1.427 . S
N3020 C3017 1.384 . S
N3021 C3013 1.427 . S
N3021 C3019 1.384 . S
H3022 C3028 0.930 . S
H3023 C3032 0.930 . S
H3024 C3037 0.929 . S
H3025 C3035 0.929 . S
H3026 C3030 0.929 . S
H3027 C3036 0.929 . S
C3028 H3022 0.930 . S
C3028 C3029 1.367 . S
C3028 C3036 1.378 . S
C3029 C3028 1.367 . S
C3029 C3037 1.433 . S
C3030 H3026 0.929 . S
C3030 C3032 1.378 . S
C3030 C3034 1.350 . S
C3031 C3034 1.463 . S
C3031 C3036 1.350 . S
C3031 N3039 1.427 . S
C3032 H3023 0.930 . S
C3032 C3030 1.378 . S
C3032 C3033 1.367 . S
C3033 C3032 1.367 . S
C3033 C3035 1.433 . S
C3034 C3030 1.350 . S
C3034 C3031 1.463 . S
C3034 N3038 1.427 . S
C3035 H3025 0.929 . S
C3035 C3033 1.433 . S
C3035 N3038 1.384 . S
C3036 H3027 0.929 . S
C3036 C3028 1.378 . S
C3036 C3031 1.350 . S
C3037 H3024 0.929 . S
C3037 C3029 1.433 . S
C3037 N3039 1.384 . S
N3038 C3034 1.427 . S
N3038 C3035 1.384 . S
N3039 C3031 1.427 . S
N3039 C3037 1.384 . S
C1895 C229 1.269 . S
C1899 C52 1.275 . S
C1913 C170 1.279 . S
C1917 C111 1.275 . S
C1931 C465 1.274 . S
C1935 C288 1.279 . S
C1949 C406 1.279 . S
C1953 C347 1.278 . S
C1967 C524 1.279 . S
C1971 C701 1.275 . S
C1985 C583 1.279 . S
C1989 C642 1.274 . S
C2003 C937 1.274 . S
C2007 C760 1.269 . S
C2021 C819 1.271 . S
C2025 C878 1.276 . S
C2039 C996 1.270 . S
C2043 C1173 1.276 . S
C2057 C1055 1.272 . S
C2061 C1114 1.277 . S
C2075 C1409 1.272 . S
C2079 C1232 1.278 . S
C2093 C1350 1.278 . S
C2097 C1291 1.279 . S
C2111 C1645 1.271 . S
C2115 C1468 1.268 . S
C2129 C1527 1.279 . S
C2133 C1586 1.274 . S
C2147 C1704 1.270 . S
C2151 C1881 1.268 . S
C2165 C1763 1.276 . S
C2169 C1822 1.271 . S
C2183 C1213 1.432 . S
C2187 C33 1.432 . S
C2201 C800 1.432 . S
C2205 C92 1.432 . S
C2219 C151 1.430 . S
C2223 C1803 1.430 . S
C2237 C210 1.432 . S
C2241 C446 1.432 . S
C2255 C977 1.431 . S
C2259 C269 1.431 . S
C2273 C564 1.429 . S
C2277 C328 1.429 . S
C2291 C1567 1.429 . S
C2295 C387 1.429 . S
C2309 C505 1.432 . S
C2313 C1685 1.432 . S
C2327 C1331 1.429 . S
C2331 C623 1.429 . S
C2345 C918 1.430 . S
C2349 C682 1.430 . S
C2363 C1449 1.433 . S
C2367 C741 1.433 . S
C2381 C859 1.432 . S
C2385 C1095 1.432 . S
C2399 C1744 1.429 . S
C2403 C1036 1.429 . S
C2417 C1154 1.431 . S
C2421 C1390 1.431 . S
C2435 C1508 1.431 . S
C2439 C1272 1.431 . S
C2453 C1862 1.430 . S
C2457 C1626 1.430 . S
C2471 C62 1.461 . S
C2475 C3 1.459 . S
C2489 C121 1.462 1_556 S
C2493 C180 1.461 1_556 S
C2507 C239 1.458 . S
C2511 C298 1.464 . S
C2525 C416 1.459 1_554 S
C2529 C357 1.460 1_554 S
C2543 C475 1.458 . S
C2547 C534 1.461 . S
C2561 C593 1.457 . S
C2565 C652 1.463 . S
C2579 C770 1.457 . S
C2583 C711 1.464 . S
C2597 C829 1.462 . S
C2601 C888 1.458 . S
C2615 C947 1.457 . S
C2619 C1006 1.463 . S
C2633 C1065 1.456 . S
C2637 C1124 1.463 . S
C2651 C1183 1.461 . S
C2655 C1242 1.458 . S
C2669 C1360 1.464 . S
C2673 C1301 1.457 . S
C2687 C1478 1.457 . S
C2691 C1419 1.463 . S
C2705 C1537 1.464 1_556 S
C2709 C1596 1.460 1_556 S
C2723 C1655 1.464 . S
C2727 C1714 1.457 . S
C2741 C1832 1.465 1_554 S
C2745 C1773 1.458 1_554 S
C2759 C5 1.435 . S
C2763 C1126 1.434 . S
C2777 C64 1.437 . S
C2781 C1067 1.435 . S
C2795 C1008 1.440 . S
C2799 C123 1.441 . S
C2813 C182 1.439 . S
C2817 C949 1.440 . S
C2831 C1362 1.437 . S
C2835 C241 1.439 . S
C2849 C300 1.441 . S
C2853 C1303 1.440 . S
C2867 C1244 1.433 . S
C2871 C359 1.434 . S
C2885 C418 1.436 . S
C2889 C1185 1.438 . S
C2903 C477 1.438 . S
C2907 C1598 1.440 . S
C2921 C536 1.442 . S
C2925 C1539 1.443 . S
C2939 C595 1.437 . S
C2943 C1480 1.439 . S
C2957 C1421 1.438 . S
C2961 C654 1.440 . S
C2975 C713 1.437 . S
C2979 C1834 1.435 . S
C2993 C772 1.434 . S
C2997 C1775 1.435 . S
C3011 C831 1.434 . S
C3015 C1716 1.435 . S
C3029 C1657 1.436 . S
C3033 C890 1.437 . S
