# Generated by pormake.
# Topology wne, (6)-cn, num edge types: 1
# Building blocks:
#     Node 0, Type 0, BuildingBlock: BETDEL_clean_sbu_0, # of connection points: 6
#     Node 1, Type 0, BuildingBlock: BETDEL_clean_sbu_0, # of connection points: 6
#     Node 2, Type 0, BuildingBlock: BETDEL_clean_sbu_0, # of connection points: 6
#     Node 3, Type 0, BuildingBlock: BETDEL_clean_sbu_0, # of connection points: 6
#     Node 4, Type 0, BuildingBlock: BETDEL_clean_sbu_0, # of connection points: 6
#     Node 5, Type 0, BuildingBlock: BETDEL_clean_sbu_0, # of connection points: 6
#     Node 6, Type 0, BuildingBlock: BETDEL_clean_sbu_0, # of connection points: 6
#     Node 7, Type 0, BuildingBlock: BETDEL_clean_sbu_0, # of connection points: 6
#     Node 8, Type 0, BuildingBlock: BETDEL_clean_sbu_0, # of connection points: 6
#     Node 9, Type 0, BuildingBlock: BETDEL_clean_sbu_0, # of connection points: 6
#     Node 10, Type 0, BuildingBlock: BETDEL_clean_sbu_0, # of connection points: 6
#     Node 11, Type 0, BuildingBlock: BETDEL_clean_sbu_0, # of connection points: 6
#     Node 12, Type 0, BuildingBlock: BETDEL_clean_sbu_0, # of connection points: 6
#     Node 13, Type 0, BuildingBlock: BETDEL_clean_sbu_0, # of connection points: 6
#     Node 14, Type 0, BuildingBlock: BETDEL_clean_sbu_0, # of connection points: 6
#     Node 15, Type 0, BuildingBlock: BETDEL_clean_sbu_0, # of connection points: 6
#     Node 16, Type 0, BuildingBlock: BETDEL_clean_sbu_0, # of connection points: 6
#     Node 17, Type 0, BuildingBlock: BETDEL_clean_sbu_0, # of connection points: 6
#     Node 18, Type 0, BuildingBlock: BETDEL_clean_sbu_0, # of connection points: 6
#     Node 19, Type 0, BuildingBlock: BETDEL_clean_sbu_0, # of connection points: 6
#     Node 20, Type 0, BuildingBlock: BETDEL_clean_sbu_0, # of connection points: 6
#     Node 21, Type 0, BuildingBlock: BETDEL_clean_sbu_0, # of connection points: 6
#     Node 22, Type 0, BuildingBlock: BETDEL_clean_sbu_0, # of connection points: 6
#     Node 23, Type 0, BuildingBlock: BETDEL_clean_sbu_0, # of connection points: 6
#     Node 24, Type 0, BuildingBlock: BETDEL_clean_sbu_0, # of connection points: 6
#     Node 25, Type 0, BuildingBlock: BETDEL_clean_sbu_0, # of connection points: 6
#     Node 26, Type 0, BuildingBlock: BETDEL_clean_sbu_0, # of connection points: 6
#     Node 27, Type 0, BuildingBlock: BETDEL_clean_sbu_0, # of connection points: 6
#     Node 28, Type 0, BuildingBlock: BETDEL_clean_sbu_0, # of connection points: 6
#     Node 29, Type 0, BuildingBlock: BETDEL_clean_sbu_0, # of connection points: 6
#     Node 30, Type 0, BuildingBlock: BETDEL_clean_sbu_0, # of connection points: 6
#     Node 31, Type 0, BuildingBlock: BETDEL_clean_sbu_0, # of connection points: 6
#     Node 32, Type 0, BuildingBlock: BETDEL_clean_sbu_0, # of connection points: 6
#     Node 33, Type 0, BuildingBlock: BETDEL_clean_sbu_0, # of connection points: 6
#     Node 34, Type 0, BuildingBlock: BETDEL_clean_sbu_0, # of connection points: 6
#     Node 35, Type 0, BuildingBlock: BETDEL_clean_sbu_0, # of connection points: 6
#     Edge 36, Type (0, 0), BuildingBlock: EZIPEK_clean_linker_0, # of connection points: 2
#     Edge 37, Type (0, 0), BuildingBlock: EZIPEK_clean_linker_0, # of connection points: 2
#     Edge 38, Type (0, 0), BuildingBlock: EZIPEK_clean_linker_0, # of connection points: 2
#     Edge 39, Type (0, 0), BuildingBlock: EZIPEK_clean_linker_0, # of connection points: 2
#     Edge 40, Type (0, 0), BuildingBlock: EZIPEK_clean_linker_0, # of connection points: 2
#     Edge 41, Type (0, 0), BuildingBlock: EZIPEK_clean_linker_0, # of connection points: 2
#     Edge 42, Type (0, 0), BuildingBlock: EZIPEK_clean_linker_0, # of connection points: 2
#     Edge 43, Type (0, 0), BuildingBlock: EZIPEK_clean_linker_0, # of connection points: 2
#     Edge 44, Type (0, 0), BuildingBlock: EZIPEK_clean_linker_0, # of connection points: 2
#     Edge 45, Type (0, 0), BuildingBlock: EZIPEK_clean_linker_0, # of connection points: 2
#     Edge 46, Type (0, 0), BuildingBlock: EZIPEK_clean_linker_0, # of connection points: 2
#     Edge 47, Type (0, 0), BuildingBlock: EZIPEK_clean_linker_0, # of connection points: 2
#     Edge 48, Type (0, 0), BuildingBlock: EZIPEK_clean_linker_0, # of connection points: 2
#     Edge 49, Type (0, 0), BuildingBlock: EZIPEK_clean_linker_0, # of connection points: 2
#     Edge 50, Type (0, 0), BuildingBlock: EZIPEK_clean_linker_0, # of connection points: 2
#     Edge 51, Type (0, 0), BuildingBlock: EZIPEK_clean_linker_0, # of connection points: 2
#     Edge 52, Type (0, 0), BuildingBlock: EZIPEK_clean_linker_0, # of connection points: 2
#     Edge 53, Type (0, 0), BuildingBlock: EZIPEK_clean_linker_0, # of connection points: 2
#     Edge 54, Type (0, 0), BuildingBlock: EZIPEK_clean_linker_0, # of connection points: 2
#     Edge 55, Type (0, 0), BuildingBlock: EZIPEK_clean_linker_0, # of connection points: 2
#     Edge 56, Type (0, 0), BuildingBlock: EZIPEK_clean_linker_0, # of connection points: 2
#     Edge 57, Type (0, 0), BuildingBlock: EZIPEK_clean_linker_0, # of connection points: 2
#     Edge 58, Type (0, 0), BuildingBlock: EZIPEK_clean_linker_0, # of connection points: 2
#     Edge 59, Type (0, 0), BuildingBlock: EZIPEK_clean_linker_0, # of connection points: 2
#     Edge 60, Type (0, 0), BuildingBlock: EZIPEK_clean_linker_0, # of connection points: 2
#     Edge 61, Type (0, 0), BuildingBlock: EZIPEK_clean_linker_0, # of connection points: 2
#     Edge 62, Type (0, 0), BuildingBlock: EZIPEK_clean_linker_0, # of connection points: 2
#     Edge 63, Type (0, 0), BuildingBlock: EZIPEK_clean_linker_0, # of connection points: 2
#     Edge 64, Type (0, 0), BuildingBlock: EZIPEK_clean_linker_0, # of connection points: 2
#     Edge 65, Type (0, 0), BuildingBlock: EZIPEK_clean_linker_0, # of connection points: 2
#     Edge 66, Type (0, 0), BuildingBlock: EZIPEK_clean_linker_0, # of connection points: 2
#     Edge 67, Type (0, 0), BuildingBlock: EZIPEK_clean_linker_0, # of connection points: 2
#     Edge 68, Type (0, 0), BuildingBlock: EZIPEK_clean_linker_0, # of connection points: 2
#     Edge 69, Type (0, 0), BuildingBlock: EZIPEK_clean_linker_0, # of connection points: 2
#     Edge 70, Type (0, 0), BuildingBlock: EZIPEK_clean_linker_0, # of connection points: 2
#     Edge 71, Type (0, 0), BuildingBlock: EZIPEK_clean_linker_0, # of connection points: 2
#     Edge 72, Type (0, 0), BuildingBlock: EZIPEK_clean_linker_0, # of connection points: 2
#     Edge 73, Type (0, 0), BuildingBlock: EZIPEK_clean_linker_0, # of connection points: 2
#     Edge 74, Type (0, 0), BuildingBlock: EZIPEK_clean_linker_0, # of connection points: 2
#     Edge 75, Type (0, 0), BuildingBlock: EZIPEK_clean_linker_0, # of connection points: 2
#     Edge 76, Type (0, 0), BuildingBlock: EZIPEK_clean_linker_0, # of connection points: 2
#     Edge 77, Type (0, 0), BuildingBlock: EZIPEK_clean_linker_0, # of connection points: 2
#     Edge 78, Type (0, 0), BuildingBlock: EZIPEK_clean_linker_0, # of connection points: 2
#     Edge 79, Type (0, 0), BuildingBlock: EZIPEK_clean_linker_0, # of connection points: 2
#     Edge 80, Type (0, 0), BuildingBlock: EZIPEK_clean_linker_0, # of connection points: 2
#     Edge 81, Type (0, 0), BuildingBlock: EZIPEK_clean_linker_0, # of connection points: 2
#     Edge 82, Type (0, 0), BuildingBlock: EZIPEK_clean_linker_0, # of connection points: 2
#     Edge 83, Type (0, 0), BuildingBlock: EZIPEK_clean_linker_0, # of connection points: 2
#     Edge 84, Type (0, 0), BuildingBlock: EZIPEK_clean_linker_0, # of connection points: 2
#     Edge 85, Type (0, 0), BuildingBlock: EZIPEK_clean_linker_0, # of connection points: 2
#     Edge 86, Type (0, 0), BuildingBlock: EZIPEK_clean_linker_0, # of connection points: 2
#     Edge 87, Type (0, 0), BuildingBlock: EZIPEK_clean_linker_0, # of connection points: 2
#     Edge 88, Type (0, 0), BuildingBlock: EZIPEK_clean_linker_0, # of connection points: 2
#     Edge 89, Type (0, 0), BuildingBlock: EZIPEK_clean_linker_0, # of connection points: 2
#     Edge 90, Type (0, 0), BuildingBlock: EZIPEK_clean_linker_0, # of connection points: 2
#     Edge 91, Type (0, 0), BuildingBlock: EZIPEK_clean_linker_0, # of connection points: 2
#     Edge 92, Type (0, 0), BuildingBlock: EZIPEK_clean_linker_0, # of connection points: 2
#     Edge 93, Type (0, 0), BuildingBlock: EZIPEK_clean_linker_0, # of connection points: 2
#     Edge 94, Type (0, 0), BuildingBlock: EZIPEK_clean_linker_0, # of connection points: 2
#     Edge 95, Type (0, 0), BuildingBlock: EZIPEK_clean_linker_0, # of connection points: 2
#     Edge 96, Type (0, 0), BuildingBlock: EZIPEK_clean_linker_0, # of connection points: 2
#     Edge 97, Type (0, 0), BuildingBlock: EZIPEK_clean_linker_0, # of connection points: 2
#     Edge 98, Type (0, 0), BuildingBlock: EZIPEK_clean_linker_0, # of connection points: 2
#     Edge 99, Type (0, 0), BuildingBlock: EZIPEK_clean_linker_0, # of connection points: 2
#     Edge 100, Type (0, 0), BuildingBlock: EZIPEK_clean_linker_0, # of connection points: 2
#     Edge 101, Type (0, 0), BuildingBlock: EZIPEK_clean_linker_0, # of connection points: 2
#     Edge 102, Type (0, 0), BuildingBlock: EZIPEK_clean_linker_0, # of connection points: 2
#     Edge 103, Type (0, 0), BuildingBlock: EZIPEK_clean_linker_0, # of connection points: 2
#     Edge 104, Type (0, 0), BuildingBlock: EZIPEK_clean_linker_0, # of connection points: 2
#     Edge 105, Type (0, 0), BuildingBlock: EZIPEK_clean_linker_0, # of connection points: 2
#     Edge 106, Type (0, 0), BuildingBlock: EZIPEK_clean_linker_0, # of connection points: 2
#     Edge 107, Type (0, 0), BuildingBlock: EZIPEK_clean_linker_0, # of connection points: 2
#     Edge 108, Type (0, 0), BuildingBlock: EZIPEK_clean_linker_0, # of connection points: 2
#     Edge 109, Type (0, 0), BuildingBlock: EZIPEK_clean_linker_0, # of connection points: 2
#     Edge 110, Type (0, 0), BuildingBlock: EZIPEK_clean_linker_0, # of connection points: 2
#     Edge 111, Type (0, 0), BuildingBlock: EZIPEK_clean_linker_0, # of connection points: 2
#     Edge 112, Type (0, 0), BuildingBlock: EZIPEK_clean_linker_0, # of connection points: 2
#     Edge 113, Type (0, 0), BuildingBlock: EZIPEK_clean_linker_0, # of connection points: 2
#     Edge 114, Type (0, 0), BuildingBlock: EZIPEK_clean_linker_0, # of connection points: 2
#     Edge 115, Type (0, 0), BuildingBlock: EZIPEK_clean_linker_0, # of connection points: 2
#     Edge 116, Type (0, 0), BuildingBlock: EZIPEK_clean_linker_0, # of connection points: 2
#     Edge 117, Type (0, 0), BuildingBlock: EZIPEK_clean_linker_0, # of connection points: 2
#     Edge 118, Type (0, 0), BuildingBlock: EZIPEK_clean_linker_0, # of connection points: 2
#     Edge 119, Type (0, 0), BuildingBlock: EZIPEK_clean_linker_0, # of connection points: 2
#     Edge 120, Type (0, 0), BuildingBlock: EZIPEK_clean_linker_0, # of connection points: 2
#     Edge 121, Type (0, 0), BuildingBlock: EZIPEK_clean_linker_0, # of connection points: 2
#     Edge 122, Type (0, 0), BuildingBlock: EZIPEK_clean_linker_0, # of connection points: 2
#     Edge 123, Type (0, 0), BuildingBlock: EZIPEK_clean_linker_0, # of connection points: 2
#     Edge 124, Type (0, 0), BuildingBlock: EZIPEK_clean_linker_0, # of connection points: 2
#     Edge 125, Type (0, 0), BuildingBlock: EZIPEK_clean_linker_0, # of connection points: 2
#     Edge 126, Type (0, 0), BuildingBlock: EZIPEK_clean_linker_0, # of connection points: 2
#     Edge 127, Type (0, 0), BuildingBlock: EZIPEK_clean_linker_0, # of connection points: 2
#     Edge 128, Type (0, 0), BuildingBlock: EZIPEK_clean_linker_0, # of connection points: 2
#     Edge 129, Type (0, 0), BuildingBlock: EZIPEK_clean_linker_0, # of connection points: 2
#     Edge 130, Type (0, 0), BuildingBlock: EZIPEK_clean_linker_0, # of connection points: 2
#     Edge 131, Type (0, 0), BuildingBlock: EZIPEK_clean_linker_0, # of connection points: 2
#     Edge 132, Type (0, 0), BuildingBlock: EZIPEK_clean_linker_0, # of connection points: 2
#     Edge 133, Type (0, 0), BuildingBlock: EZIPEK_clean_linker_0, # of connection points: 2
#     Edge 134, Type (0, 0), BuildingBlock: EZIPEK_clean_linker_0, # of connection points: 2
#     Edge 135, Type (0, 0), BuildingBlock: EZIPEK_clean_linker_0, # of connection points: 2
#     Edge 136, Type (0, 0), BuildingBlock: EZIPEK_clean_linker_0, # of connection points: 2
#     Edge 137, Type (0, 0), BuildingBlock: EZIPEK_clean_linker_0, # of connection points: 2
#     Edge 138, Type (0, 0), BuildingBlock: EZIPEK_clean_linker_0, # of connection points: 2
#     Edge 139, Type (0, 0), BuildingBlock: EZIPEK_clean_linker_0, # of connection points: 2
#     Edge 140, Type (0, 0), BuildingBlock: EZIPEK_clean_linker_0, # of connection points: 2
#     Edge 141, Type (0, 0), BuildingBlock: EZIPEK_clean_linker_0, # of connection points: 2
#     Edge 142, Type (0, 0), BuildingBlock: EZIPEK_clean_linker_0, # of connection points: 2
#     Edge 143, Type (0, 0), BuildingBlock: EZIPEK_clean_linker_0, # of connection points: 2
# Relax obj value: 0.232
# Max RMSD: 0.201
# Mean RMSD: 0.201
data_MOF--net-wne--node1-BETDEL_clean_sbu_0--edge1-EZIPEK_clean_linker_0
_symmetry_space_group_name_H-M    P1
_symmetry_Int_Tables_number       1
_symmetry_cell_setting            triclinic
loop_
_symmetry_equiv_pos_as_xyz
'x, y, z'
_cell_length_a     53.653446
_cell_length_b     53.816503
_cell_length_c     24.900482
_cell_angle_alpha  90.044773
_cell_angle_beta   89.883249
_cell_angle_gamma 119.87704
loop_
_atom_site_label
_atom_site_type_symbol
_atom_site_fract_x
_atom_site_fract_y
_atom_site_fract_z
_atom_type_partial_charge
Dy0 Dy 0.24967 0.16564 0.0836 0.0
C1 C 0.31845 0.28409 0.11132 0.0
C2 C 0.23022 0.10911 0.05957 0.0
Dy3 Dy 0.28525 0.22777 0.09229 0.0
O4 O 0.23639 0.12031 0.10723 0.0
O5 O 0.23353 0.12866 0.02484 0.0
O6 O 0.21906 0.1563 0.15554 0.0
O7 O 0.24999 0.1976 0.13958 0.0
C8 C 0.2297 0.18266 0.17138 0.0
C9 C 0.29963 0.21038 1.00142 0.0
O10 O 0.30504 0.21383 0.15679 0.0
O11 O 0.2888 0.16928 0.12036 0.0
O12 O 0.32814 0.26714 0.09886 0.0
O13 O 0.29071 0.27021 0.11552 0.0
O14 O 0.29366 0.23079 1.00454 0.0
O15 O 0.29307 0.19694 0.04646 0.0
O16 O 0.22554 0.17822 0.02636 0.0
O17 O 0.24518 0.22422 0.05746 0.0
C18 C 0.30573 0.18966 0.15367 0.0
C19 C 0.226 0.20302 0.02744 0.0
Dy20 Dy 0.85776 0.08386 0.07888 0.0
C21 C 0.74404 0.02438 0.09964 0.0
C22 C 0.91524 0.12206 0.06042 0.0
Dy23 Dy 0.80151 0.05989 0.09431 0.0
O24 O 0.90138 0.12009 0.10428 0.0
O25 O 0.89804 0.10237 0.02725 0.0
O26 O 0.86041 0.05127 0.1342 0.0
O27 O 0.83234 0.06538 0.1555 0.0
C28 C 0.8406 0.04793 0.16806 0.0
C29 C 0.8128 0.09731 1.01385 0.0
O30 O 0.81418 0.0984 0.1467 0.0
O31 O 0.85646 0.123 0.10134 0.0
O32 O 0.76061 0.02424 0.06237 0.0
O33 O 0.75882 0.0434 0.13592 0.0
O34 O 0.79579 0.09273 0.05375 0.0
O35 O 0.82463 0.08155 0.01864 0.0
O36 O 0.84865 0.04711 0.02543 0.0
O37 O 0.80583 0.02176 0.06832 0.0
C38 C 0.83759 0.12284 0.13486 0.0
C39 C 0.82567 0.02242 0.03606 0.0
Dy40 Dy 0.94033 0.77583 0.08678 0.0
C41 C 0.99438 0.71592 0.10776 0.0
C42 C 0.90411 0.79696 0.06553 0.0
Dy43 Dy 0.96172 0.74073 0.10126 0.0
O44 O 0.90704 0.78763 0.1117 0.0
O45 O 0.9218 0.79584 0.03128 0.0
O46 O 0.97291 0.81085 0.1411 0.0
O47 O 0.95956 0.76891 0.16169 0.0
C48 C 0.97744 0.79475 0.17373 0.0
C49 C 0.92259 0.71656 0.02218 0.0
O50 O 0.92428 0.71719 0.15704 0.0
O51 O 0.90081 0.73655 0.11336 0.0
O52 O 0.99227 0.7288 0.06596 0.0
O53 O 0.97874 0.71641 0.14709 0.0
O54 O 0.92695 0.70324 0.06057 0.0
O55 O 0.94 0.74383 0.027 0.0
O56 O 0.9803 0.80432 0.04073 0.0
O57 O 1.00169 0.7799 0.07239 0.0
C58 C 0.9003 0.7173 0.14622 0.0
C59 C 1.00357 0.80223 0.04705 0.0
Dy60 Dy 0.17679 0.24365 0.4504 0.0
C61 C 0.29154 0.30382 0.41873 0.0
C62 C 0.11962 0.22382 0.47158 0.0
Dy63 Dy 0.23422 0.27819 0.43404 0.0
O64 O 0.13186 0.23192 0.42507 0.0
O65 O 0.13839 0.22575 0.50666 0.0
O66 O 0.17382 0.20783 0.398 0.0
O67 O 0.2026 0.24964 0.37575 0.0
C68 C 0.19437 0.22359 0.36484 0.0
C69 C 0.21942 0.30243 0.51353 0.0
O70 O 0.22161 0.30351 0.38133 0.0
O71 O 0.17661 0.28217 0.41823 0.0
O72 O 0.27887 0.3012 0.46397 0.0
O73 O 0.27292 0.29194 0.38046 0.0
O74 O 0.23605 0.31567 0.47339 0.0
O75 O 0.20976 0.27522 0.50879 0.0
O76 O 0.18754 0.21458 0.49595 0.0
O77 O 0.23481 0.24053 0.47146 0.0
C78 C 0.19657 0.30211 0.3879 0.0
C79 C 0.21346 0.21759 0.49389 0.0
Dy80 Dy 0.7846 0.93568 0.44936 0.0
C81 C 0.73248 0.99905 0.4236 0.0
C82 C 0.80291 0.89674 0.46912 0.0
Dy83 Dy 0.75201 0.96155 0.43464 0.0
O84 O 0.79475 0.9013 0.42298 0.0
O85 O 0.80175 0.91396 0.50435 0.0
O86 O 0.82044 0.96771 0.39498 0.0
O87 O 0.77875 0.95622 0.37563 0.0
C88 C 0.8047 0.97314 0.36299 0.0
C89 C 0.72507 0.92172 0.51118 0.0
O90 O 0.73258 0.92886 0.3696 0.0
O91 O 0.74355 0.89993 0.41883 0.0
O92 O 0.7166 0.97146 0.42222 0.0
O93 O 0.75922 1.0062 0.42776 0.0
O94 O 0.71296 0.92864 0.47422 0.0
O95 O 0.75278 0.93756 0.50761 0.0
O96 O 0.81545 0.97477 0.49481 0.0
O97 O 0.78941 0.99704 0.47825 0.0
C98 C 0.72828 0.90311 0.3812 0.0
C99 C 0.81278 0.99779 0.49661 0.0
Dy100 Dy 0.09105 0.85286 0.45376 0.0
C101 C 0.04242 0.74024 0.41401 0.0
C102 C 0.12649 0.91099 0.47193 0.0
Dy103 Dy 0.07239 0.7972 0.43455 0.0
O104 O 0.12156 0.89826 0.42581 0.0
O105 O 0.11121 0.89211 0.50816 0.0
O106 O 0.05399 0.85047 0.4046 0.0
O107 O 0.07365 0.82805 0.37705 0.0
C108 C 0.05318 0.83282 0.3682 0.0
C109 C 0.11048 0.81179 0.51517 0.0
O110 O 0.10886 0.81429 0.37599 0.0
O111 O 0.13152 0.85543 0.42452 0.0
O112 O 0.06609 0.75317 0.44055 0.0
O113 O 0.03491 0.75837 0.39756 0.0
O114 O 0.10894 0.79693 0.47336 0.0
O115 O 0.09178 0.82022 0.51113 0.0
O116 O 0.0531 0.84026 0.50658 0.0
O117 O 0.03475 0.79376 0.48204 0.0
C118 C 0.1325 0.8383 0.38821 0.0
C119 C 0.0319 0.81353 0.50833 0.0
Dy120 Dy 0.75228 0.79494 0.93894 0.0
C121 C 0.80395 0.90896 0.97265 0.0
C122 C 0.73047 0.73752 0.93264 0.0
Dy123 Dy 0.78443 0.85148 0.95418 0.0
O124 O 0.72349 0.75205 0.90063 0.0
O125 O 0.74966 0.75425 0.96643 0.0
O126 O 0.71394 0.78901 0.98147 0.0
O127 O 0.75404 0.81838 0.01465 0.0
C128 C 0.72652 0.80642 0.02054 0.0
C129 C 0.80351 0.83424 0.86501 0.0
O130 O 0.81152 0.84188 1.00796 0.0
O131 O 0.79481 0.79938 0.96438 0.0
O132 O 0.79267 0.89535 0.92838 0.0
O133 O 0.80554 0.89143 1.00634 0.0
O134 O 0.81981 0.85367 0.89934 0.0
O135 O 0.77776 0.82607 0.87787 0.0
O136 O 0.7284 0.80839 0.88305 0.0
O137 O 0.74321 0.84893 0.93237 0.0
C138 C 0.81352 0.81907 0.9972 0.0
C139 C 0.72604 0.83089 0.89627 0.0
Dy140 Dy 0.23527 0.96074 0.93672 0.0
C141 C 0.11477 0.89724 0.97775 0.0
C142 C 0.29029 0.99282 0.905 0.0
Dy143 Dy 0.17088 0.93361 0.94864 0.0
O144 O 0.27511 0.96528 0.89921 0.0
O145 O 0.27485 1.00298 0.92469 0.0
O146 O 0.25029 0.94656 1.00509 0.0
O147 O 0.20482 0.92837 0.99581 0.0
C148 C 0.22531 0.92697 0.02119 0.0
C149 C 0.18905 0.96743 0.85587 0.0
O150 O 0.18235 0.97263 0.99728 0.0
O151 O 0.23137 0.99547 0.97982 0.0
O152 O 0.1255 0.89907 0.93019 0.0
O153 O 0.13454 0.91612 1.00921 0.0
O154 O 0.16252 0.95326 0.87254 0.0
O155 O 0.20286 0.96209 0.89039 0.0
O156 O 0.21929 0.92184 0.88374 0.0
O157 O 0.17348 0.89663 0.91936 0.0
C158 C 0.20834 0.99541 0.9993 0.0
C159 C 0.19467 0.89766 0.89151 0.0
Dy160 Dy 0.06852 0.27126 0.92976 0.0
C161 C 0.12725 0.21525 0.97384 0.0
C162 C 0.03637 0.29676 0.91893 0.0
Dy163 Dy 0.09053 0.23602 0.95095 0.0
O164 O 0.04487 0.29164 0.96375 0.0
O165 O 0.04513 0.28769 0.87872 0.0
O166 O 0.1055 0.30979 0.96346 0.0
O167 O 0.09106 0.27061 1.00411 0.0
C168 C 0.10909 0.29787 1.0054 0.0
C169 C 0.05276 0.21694 0.86485 0.0
O170 O 0.05394 0.21239 1.00697 0.0
O171 O 0.02987 0.23139 0.96361 0.0
O172 O 0.11974 0.21878 0.9263 0.0
O173 O 0.11394 0.22221 1.0091 0.0
O174 O 0.05493 0.20045 0.90028 0.0
O175 O 0.07214 0.24228 0.87468 0.0
O176 O 0.10548 0.29174 0.87202 0.0
O177 O 0.12932 0.27405 0.91921 0.0
C178 C 0.02983 0.21222 0.99702 0.0
C179 C 0.12929 0.29079 0.88116 0.0
Dy180 Dy 0.80506 0.74687 0.59141 0.0
C181 C 0.9215 0.80228 0.5666 0.0
C182 C 0.74822 0.72341 0.61152 0.0
Dy183 Dy 0.86319 0.78101 0.5819 0.0
O184 O 0.7629 0.7105 0.61863 0.0
O185 O 0.76494 0.74981 0.59729 0.0
O186 O 0.78862 0.71756 0.52293 0.0
O187 O 0.83406 0.74476 0.52704 0.0
C188 C 0.81294 0.72393 0.50201 0.0
C189 C 0.84178 0.79718 0.66858 0.0
O190 O 0.85256 0.80672 0.52521 0.0
O191 O 0.80803 0.78792 0.56229 0.0
O192 O 0.90823 0.79551 0.61246 0.0
O193 O 0.90295 0.79822 0.52939 0.0
O194 O 0.86084 0.81447 0.63451 0.0
O195 O 0.83536 0.77198 0.6549 0.0
O196 O 0.81615 0.72075 0.64549 0.0
O197 O 0.86167 0.74117 0.61086 0.0
C198 C 0.82864 0.80751 0.53219 0.0
C199 C 0.84065 0.72101 0.63911 0.0
Dy200 Dy 0.28141 0.05931 0.58643 0.0
C201 C 0.22811 0.12138 0.55932 0.0
C202 C 0.31168 0.03238 0.60317 0.0
Dy203 Dy 0.24857 0.08454 0.57999 0.0
O204 O 0.32294 0.05978 0.59776 0.0
O205 O 0.28395 0.01986 0.60212 0.0
O206 O 0.2886 0.06202 0.49764 0.0
O207 O 0.28989 0.09667 0.53561 0.0
C208 C 0.29486 0.08831 0.49102 0.0
C209 C 0.22952 0.04455 0.66275 0.0
O210 O 0.22463 0.0494 0.51978 0.0
O211 O 0.23902 0.02163 0.56266 0.0
O212 O 0.23445 0.11595 0.60658 0.0
O213 O 0.23175 0.10569 0.52402 0.0
O214 O 0.21314 0.04965 0.63182 0.0
O215 O 0.25532 0.06242 0.65055 0.0
O216 O 0.30968 0.09672 0.63891 0.0
O217 O 0.28681 0.12169 0.61629 0.0
C218 C 0.22111 0.02382 0.52963 0.0
C219 C 0.30821 0.1205 0.6393 0.0
Dy220 Dy 0.9691 0.22481 0.59473 0.0
C221 C 0.90998 0.10911 0.55647 0.0
C222 C 0.99126 0.28051 0.62236 0.0
Dy223 Dy 0.94552 0.16637 0.57876 0.0
O224 O 0.96438 0.26275 0.61439 0.0
O225 O 1.00608 0.2676 0.61806 0.0
O226 O 0.96841 0.23399 0.50751 0.0
O227 O 0.93404 0.19696 0.53871 0.0
C228 C 0.94316 0.21287 0.49711 0.0
C229 C 0.98397 0.1856 0.66354 0.0
O230 O 0.98124 0.18145 0.51891 0.0
O231 O 1.0076 0.22207 0.56765 0.0
O232 O 0.91462 0.12064 0.60383 0.0
O233 O 0.92588 0.12871 0.52172 0.0
O234 O 0.98041 0.1657 0.62997 0.0
O235 O 0.96538 0.19282 0.65287 0.0
O236 O 0.9291 0.21112 0.64273 0.0
O237 O 0.90632 0.1649 0.61076 0.0
C238 C 1.00632 0.20351 0.53159 0.0
C239 C 0.90583 0.18583 0.63689 0.0
Dy240 Dy 0.91654 0.49903 0.41788 0.0
C241 C 0.98297 0.61894 0.43298 0.0
C242 C 0.89701 0.44224 0.39772 0.0
Dy243 Dy 0.95295 0.5618 0.41927 0.0
O244 O 0.90642 0.45488 0.44362 0.0
O245 O 0.89709 0.46037 0.36294 0.0
O246 O 0.88836 0.49206 0.49227 0.0
O247 O 0.91907 0.53283 0.47189 0.0
C248 C 0.89974 0.51879 0.50639 0.0
C249 C 0.96293 0.54021 0.32823 0.0
O250 O 0.9782 0.55053 0.47661 0.0
O251 O 0.95659 0.50314 0.45067 0.0
O252 O 0.99322 0.60401 0.41139 0.0
O253 O 0.95681 0.60267 0.44919 0.0
O254 O 0.95833 0.56163 0.33083 0.0
O255 O 0.95837 0.52904 0.37513 0.0
O256 O 0.89 0.50958 0.36305 0.0
O257 O 0.9127 0.55771 0.38446 0.0
C258 C 0.97706 0.52538 0.47583 0.0
C259 C 0.89115 0.53471 0.36264 0.0
Dy260 Dy 0.52846 0.41957 0.41081 0.0
C261 C 0.4128 0.36852 0.43181 0.0
C262 C 0.5865 0.4541 0.39283 0.0
Dy263 Dy 0.47039 0.39587 0.41737 0.0
O264 O 0.57404 0.44826 0.43951 0.0
O265 O 0.56737 0.44026 0.35608 0.0
O266 O 0.5283 0.385 0.46434 0.0
O267 O 0.49924 0.39846 0.4819 0.0
C268 C 0.50717 0.3808 0.49555 0.0
C269 C 0.48601 0.42604 0.3234 0.0
O270 O 0.48121 0.43416 0.46923 0.0
O271 O 0.52919 0.45754 0.4469 0.0
O272 O 0.42985 0.39508 0.44399 0.0
O273 O 0.42695 0.35689 0.41317 0.0
O274 O 0.46534 0.40012 0.32917 0.0
O275 O 0.50007 0.4332 0.36737 0.0
O276 O 0.51616 0.38393 0.35161 0.0
O277 O 0.47514 0.3576 0.39852 0.0
C278 C 0.50695 0.45741 0.46934 0.0
C279 C 0.49424 0.35877 0.3641 0.0
Dy280 Dy 0.61117 0.11333 0.40671 0.0
C281 C 0.67217 0.05856 0.44999 0.0
C282 C 0.57386 0.13293 0.38222 0.0
Dy283 Dy 0.63645 0.07919 0.42944 0.0
O284 O 0.57723 0.12465 0.42917 0.0
O285 O 0.59141 0.13113 0.34839 0.0
O286 O 0.64147 0.14841 0.46409 0.0
O287 O 0.62932 0.10684 0.48216 0.0
C288 C 0.6463 0.13241 0.49645 0.0
C289 C 0.59956 0.05442 0.34773 0.0
O290 O 0.59664 0.05458 0.47968 0.0
O291 O 0.57244 0.0726 0.43235 0.0
O292 O 0.66364 0.06115 0.40302 0.0
O293 O 0.66097 0.06699 0.48703 0.0
O294 O 0.60385 0.04126 0.38698 0.0
O295 O 0.61603 0.08184 0.35312 0.0
O296 O 0.65208 0.14236 0.36331 0.0
O297 O 0.67465 0.119 0.39704 0.0
C298 C 0.57249 0.05414 0.46679 0.0
C299 C 0.67566 0.14087 0.37112 0.0
Dy300 Dy 0.8381 0.57479 0.7815 0.0
C301 C 0.95867 0.63622 0.77273 0.0
C302 C 0.78169 0.55381 0.81102 0.0
Dy303 Dy 0.90099 0.60943 0.77953 0.0
O304 O 0.79205 0.56219 0.76305 0.0
O305 O 0.80206 0.5561 0.84258 0.0
O306 O 0.83052 0.54602 0.70721 0.0
O307 O 0.87149 0.57623 0.72788 0.0
C308 C 0.85741 0.55719 0.69351 0.0
C309 C 0.88095 0.62266 0.86916 0.0
O310 O 0.89101 0.63829 0.72853 0.0
O311 O 0.84169 0.61344 0.74258 0.0
O312 O 0.94253 0.63966 0.73813 0.0
O313 O 0.94349 0.61822 0.80963 0.0
O314 O 0.901 0.61608 0.86796 0.0
O315 O 0.86918 0.617 0.82267 0.0
O316 O 0.84999 0.54892 0.83556 0.0
O317 O 0.89282 0.56467 0.79214 0.0
C318 C 0.86502 0.63536 0.72256 0.0
C319 C 0.87227 0.54581 0.82363 0.0
Dy320 Dy 0.45288 0.27024 0.78109 0.0
C321 C 0.39014 0.32282 0.7458 0.0
C322 C 0.47669 0.23641 0.80242 0.0
Dy323 Dy 0.41758 0.29299 0.767 0.0
O324 O 0.47235 0.24341 0.75496 0.0
O325 O 0.46903 0.24879 0.83841 0.0
O326 O 0.48697 0.3054 0.72826 0.0
O327 O 0.44461 0.28822 0.7065 0.0
C328 C 0.4699 0.3067 0.69293 0.0
C329 C 0.40325 0.26571 0.8646 0.0
O330 O 0.39065 0.25292 0.71858 0.0
O331 O 0.41699 0.23161 0.74351 0.0
O332 O 0.37802 0.29513 0.74481 0.0
O333 O 0.4173 0.334 0.75474 0.0
O334 O 0.40743 0.29103 0.85494 0.0
O335 O 0.4105 0.25754 0.82216 0.0
O336 O 0.47649 0.30787 0.83602 0.0
O337 O 0.45951 0.33219 0.78872 0.0
C338 C 0.39473 0.23055 0.71939 0.0
C339 C 0.47828 0.3324 0.82291 0.0
Dy340 Dy 0.76019 0.18566 0.77688 0.0
C341 C 0.69793 0.07134 0.74731 0.0
C342 C 0.79881 0.24291 0.7961 0.0
Dy343 Dy 0.73421 0.12829 0.76089 0.0
O344 O 0.79394 0.23021 0.74989 0.0
O345 O 0.78195 0.22452 0.83159 0.0
O346 O 0.72755 0.18777 0.72108 0.0
O347 O 0.74273 0.16056 0.70042 0.0
C348 C 0.72545 0.16884 0.68635 0.0
C349 C 0.76993 0.13927 0.84431 0.0
O350 O 0.77049 0.14152 0.70273 0.0
O351 O 0.79762 0.18045 0.75509 0.0
O352 O 0.72551 0.08401 0.74213 0.0
O353 O 0.68984 0.08986 0.75674 0.0
O354 O 0.76367 0.12022 0.80778 0.0
O355 O 0.75494 0.15173 0.83712 0.0
O356 O 0.72142 0.17794 0.82327 0.0
O357 O 0.69679 0.13164 0.79359 0.0
C358 C 0.79591 0.16242 0.71786 0.0
C359 C 0.6972 0.15349 0.81852 0.0
Dy360 Dy 0.4184 0.12611 0.27283 0.0
C361 C 0.4723 0.24515 0.30392 0.0
C362 C 0.39064 0.0699 0.25068 0.0
Dy363 Dy 0.45225 0.18854 0.28008 0.0
O364 O 0.39218 0.08923 0.21778 0.0
O365 O 0.40429 0.08111 0.29472 0.0
O366 O 0.4101 0.12341 0.36141 0.0
O367 O 0.40933 0.15602 0.31893 0.0
C368 C 0.40226 0.14254 0.36386 0.0
C369 C 0.4713 0.17136 0.1902 0.0
O370 O 0.47842 0.17631 0.33297 0.0
O371 O 0.46254 0.13341 0.28945 0.0
O372 O 0.4628 0.23321 0.25752 0.0
O373 O 0.47161 0.22626 0.33761 0.0
O374 O 0.48112 0.19784 0.20469 0.0
O375 O 0.45205 0.15698 0.2241 0.0
O376 O 0.38951 0.13678 0.2234 0.0
O377 O 0.4118 0.18433 0.24828 0.0
C378 C 0.48124 0.15385 0.32114 0.0
C379 C 0.39068 0.162 0.22415 0.0
Dy380 Dy 0.90397 0.29728 0.26395 0.0
C381 C 0.78992 0.23266 0.30896 0.0
C382 C 0.95995 0.33758 0.25017 0.0
Dy383 Dy 0.84631 0.27149 0.28257 0.0
O384 O 0.94831 0.32447 0.29451 0.0
O385 O 0.94107 0.32779 0.21178 0.0
O386 O 0.91319 0.26586 0.29895 0.0
O387 O 0.88121 0.27239 0.33718 0.0
C388 C 0.89473 0.25779 0.33778 0.0
C389 C 0.86361 0.30825 0.19481 0.0
O390 O 0.85555 0.30526 0.34274 0.0
O391 O 0.89834 0.33276 0.30066 0.0
O392 O 0.79812 0.2549 0.27827 0.0
O393 O 0.81246 0.23221 0.32602 0.0
O394 O 0.84475 0.30575 0.23032 0.0
O395 O 0.87126 0.29021 0.20652 0.0
O396 O 0.89173 0.25738 0.21509 0.0
O397 O 0.84368 0.23561 0.23652 0.0
C398 C 0.87818 0.33039 0.33416 0.0
C399 C 0.86542 0.23466 0.21509 0.0
Dy400 Dy 0.73012 0.60869 0.28127 0.0
C401 C 0.79987 0.55731 0.30196 0.0
C402 C 0.69494 0.63099 0.27852 0.0
Dy403 Dy 0.76139 0.57554 0.28092 0.0
O404 O 0.72123 0.64416 0.2608 0.0
O405 O 0.68784 0.60573 0.29568 0.0
O406 O 0.74091 0.61898 0.36807 0.0
O407 O 0.77135 0.61792 0.31945 0.0
C408 C 0.76741 0.62513 0.36631 0.0
C409 C 0.72316 0.55784 0.19453 0.0
O410 O 0.72485 0.54824 0.33658 0.0
O411 O 0.69562 0.56431 0.30229 0.0
O412 O 0.79403 0.56323 0.25466 0.0
O413 O 0.78407 0.56064 0.33786 0.0
O414 O 0.73917 0.54682 0.20714 0.0
O415 O 0.72851 0.57605 0.23083 0.0
O416 O 0.76242 0.63235 0.2155 0.0
O417 O 0.79313 0.61588 0.24114 0.0
C418 C 0.69915 0.54553 0.33032 0.0
C419 C 0.78774 0.63353 0.21318 0.0
Dy420 Dy 0.47028 0.08289 0.91333 0.0
C421 C 0.58559 0.13718 0.88566 0.0
C422 C 0.41247 0.05335 0.91957 0.0
Dy423 Dy 0.52834 0.1132 0.91295 0.0
O424 O 0.42925 0.05327 0.95689 0.0
O425 O 0.42709 0.06972 0.88035 0.0
O426 O 0.46794 0.07402 0.82534 0.0
O427 O 0.49923 0.07147 0.86953 0.0
C428 C 0.4866 0.06568 0.82396 0.0
C429 C 0.50734 0.12471 1.00591 0.0
O430 O 0.52136 0.14315 0.86013 0.0
O431 O 0.47573 0.12566 0.89167 0.0
O432 O 0.57483 0.12816 0.93307 0.0
O433 O 0.56525 0.13474 0.85407 0.0
O434 O 0.53099 0.12375 1.00242 0.0
O435 O 0.49731 0.12183 0.959 0.0
O436 O 0.47891 0.05513 0.97004 0.0
O437 O 0.52469 0.07247 0.93937 0.0
C438 C 0.49786 0.14502 0.86409 0.0
C439 C 0.50267 0.05348 0.96707 0.0
Dy440 Dy 0.95198 0.39161 0.91741 0.0
C441 C 0.89322 0.4535 0.88462 0.0
C442 C 0.97942 0.36195 0.93763 0.0
Dy443 Dy 0.91463 0.41798 0.90892 0.0
O444 O 0.99202 0.38958 0.93405 0.0
O445 O 0.95191 0.35079 0.93351 0.0
O446 O 0.96306 0.39855 0.83025 0.0
O447 O 0.95785 0.42927 0.87073 0.0
C448 C 0.96644 0.42401 0.82613 0.0
C449 C 0.8977 0.38252 0.99898 0.0
O450 O 0.88986 0.3807 0.85387 0.0
O451 O 0.91107 0.35517 0.88446 0.0
O452 O 0.90282 0.45135 0.93114 0.0
O453 O 0.89471 0.4357 0.85101 0.0
O454 O 0.88606 0.39754 0.9839 0.0
O455 O 0.91725 0.3879 0.96518 0.0
O456 O 0.97442 0.42887 0.97548 0.0
O457 O 0.95372 0.45455 0.94253 0.0
C458 C 0.89045 0.35651 0.8579 0.0
C459 C 0.9735 0.45306 0.97108 0.0
Dy460 Dy 0.63282 0.55969 0.93718 0.0
C461 C 0.57119 0.44393 0.8962 0.0
C462 C 0.66846 0.61615 0.95133 0.0
Dy463 Dy 0.60567 0.5008 0.92481 0.0
O464 O 0.66301 0.60311 0.90569 0.0
O465 O 0.65442 0.59855 0.99016 0.0
O466 O 0.59855 0.56529 0.90129 0.0
O467 O 0.60632 0.53412 0.86698 0.0
C468 C 0.59089 0.54639 0.86386 0.0
C469 C 0.63544 0.51917 0.02113 0.0
O470 O 0.64629 0.50784 0.88526 0.0
O471 O 0.66824 0.55693 0.89363 0.0
O472 O 0.56967 0.45558 0.94063 0.0
O473 O 0.59257 0.46318 0.8681 0.0
O474 O 0.61137 0.49539 0.01508 0.0
O475 O 0.64301 0.52999 0.97538 0.0
O476 O 0.59716 0.54526 0.99827 0.0
O477 O 0.56906 0.50647 0.94678 0.0
C478 C 0.66888 0.53366 0.8785 0.0
C479 C 0.57144 0.52424 0.98484 0.0
Dy480 Dy 0.58355 0.83353 0.74936 0.0
C481 C 0.64269 0.95083 0.78328 0.0
C482 C 0.5637 0.77641 0.73049 0.0
Dy483 Dy 0.61696 0.89402 0.76028 0.0
O484 O 0.57009 0.78863 0.77729 0.0
O485 O 0.56732 0.79519 0.69401 0.0
O486 O 0.54941 0.83262 0.80512 0.0
O487 O 0.59189 0.86159 0.82073 0.0
C488 C 0.56658 0.85323 0.83686 0.0
C489 C 0.63061 0.87894 0.66415 0.0
O490 O 0.64533 0.88362 0.80991 0.0
O491 O 0.62298 0.83614 0.78329 0.0
O492 O 0.65594 0.93753 0.76783 0.0
O493 O 0.61548 0.93294 0.78802 0.0
O494 O 0.62564 0.89982 0.67166 0.0
O495 O 0.62458 0.86496 0.70801 0.0
O496 O 0.55753 0.84528 0.69543 0.0
O497 O 0.57421 0.88849 0.73677 0.0
C498 C 0.64405 0.85842 0.80764 0.0
C499 C 0.55509 0.86801 0.70593 0.0
Dy500 Dy 0.19623 0.75106 0.74642 0.0
C501 C 0.08119 0.69433 0.77203 0.0
C502 C 0.25388 0.78734 0.72585 0.0
Dy503 Dy 0.13852 0.72765 0.76014 0.0
O504 O 0.24214 0.78069 0.77305 0.0
O505 O 0.23432 0.77343 0.68998 0.0
O506 O 0.19617 0.71589 0.79822 0.0
O507 O 0.1693 0.73143 0.82006 0.0
C508 C 0.17618 0.71276 0.8316 0.0
C509 C 0.15341 0.7677 0.68268 0.0
O510 O 0.15026 0.76566 0.81232 0.0
O511 O 0.19648 0.78927 0.78068 0.0
O512 O 0.09441 0.70335 0.72687 0.0
O513 O 0.09925 0.70315 0.81165 0.0
O514 O 0.13608 0.76329 0.72219 0.0
O515 O 0.16359 0.75046 0.68713 0.0
O516 O 0.18633 0.71492 0.69121 0.0
O517 O 0.14148 0.68989 0.72775 0.0
C518 C 0.17554 0.78921 0.80809 0.0
C519 C 0.16222 0.69067 0.69778 0.0
Dy520 Dy 0.27563 0.44632 0.74897 0.0
C521 C 0.33041 0.38519 0.76996 0.0
C522 C 0.23847 0.46623 0.72484 0.0
Dy523 Dy 0.29812 0.41069 0.76171 0.0
O524 O 0.24649 0.46376 0.77266 0.0
O525 O 0.25177 0.45903 0.68994 0.0
O526 O 0.30882 0.48139 0.8015 0.0
O527 O 0.29595 0.43922 0.82141 0.0
C528 C 0.31381 0.46518 0.83315 0.0
C529 C 0.25777 0.38723 0.68436 0.0
O530 O 0.25936 0.38389 0.81162 0.0
O531 O 0.23804 0.41017 0.7896 0.0
O532 O 0.32243 0.39144 0.72569 0.0
O533 O 0.32104 0.39306 0.81104 0.0
O534 O 0.26136 0.37373 0.72364 0.0
O535 O 0.2759 0.41435 0.6894 0.0
O536 O 0.31618 0.47623 0.70559 0.0
O537 O 0.33657 0.44884 0.72575 0.0
C538 C 0.23658 0.38722 0.81095 0.0
C539 C 0.33873 0.47256 0.70612 0.0
Dy540 Dy 0.50958 0.91111 0.11521 0.0
C541 C 0.62275 0.96651 0.07335 0.0
C542 C 0.45209 0.88859 0.13938 0.0
Dy543 Dy 0.56603 0.9447 0.09112 0.0
O544 O 0.46375 0.89743 0.09262 0.0
O545 O 0.47176 0.89146 0.17316 0.0
O546 O 0.50715 0.8766 0.05827 0.0
O547 O 0.53204 0.91861 0.03586 0.0
C548 C 0.52446 0.89341 0.02138 0.0
C549 C 0.55631 0.97047 0.17494 0.0
O550 O 0.54953 0.96785 0.04066 0.0
O551 O 0.50955 0.95118 0.09347 0.0
O552 O 0.60592 0.97044 0.04155 0.0
O553 O 0.60872 0.95072 0.11366 0.0
O554 O 0.57255 0.98302 0.13417 0.0
O555 O 0.54513 0.94302 0.17008 0.0
O556 O 0.52284 0.88453 0.1626 0.0
O557 O 0.56416 0.90296 0.11341 0.0
C558 C 0.52658 0.9689 0.05656 0.0
C559 C 0.54603 0.88384 0.14784 0.0
Dy560 Dy 0.11789 0.59948 0.11214 0.0
C561 C 0.05348 0.65365 0.09373 0.0
C562 C 0.13873 0.56326 0.13232 0.0
Dy563 Dy 0.08291 0.62582 0.1091 0.0
O564 O 0.12932 0.56641 0.0864 0.0
O565 O 0.13781 0.58077 0.16743 0.0
O566 O 0.14752 0.62012 0.03923 0.0
O567 O 0.11751 0.63202 0.05714 0.0
C568 C 0.13761 0.63672 0.02495 0.0
C569 C 0.06809 0.59269 0.19905 0.0
O570 O 0.05472 0.58666 0.05829 0.0
O571 O 0.0791 0.56266 0.07771 0.0
O572 O 0.06785 0.65536 0.1363 0.0
O573 O 0.0551 0.63682 0.05836 0.0
O574 O 0.07411 0.61906 0.19715 0.0
O575 O 0.07509 0.58694 0.15326 0.0
O576 O 0.14314 0.63565 0.16915 0.0
O577 O 0.12606 0.66279 0.13043 0.0
C578 C 0.05713 0.56333 0.05637 0.0
C579 C 0.14506 0.66076 0.16093 0.0
Dy580 Dy 0.42613 0.52335 0.11504 0.0
C581 C 0.37737 0.40469 0.08135 0.0
C582 C 0.46183 0.579 0.14617 0.0
Dy583 Dy 0.40018 0.46058 0.10462 0.0
O584 O 0.45998 0.56908 0.0979 0.0
O585 O 0.44323 0.55864 0.17714 0.0
O586 O 0.40508 0.53247 0.04259 0.0
O587 O 0.39533 0.49141 0.05897 0.0
C588 C 0.38963 0.50598 0.02696 0.0
C589 C 0.43307 0.4787 0.1944 0.0
O590 O 0.43422 0.47566 0.04044 0.0
O591 O 0.46187 0.52023 0.07743 0.0
O592 O 0.40354 0.4212 0.09671 0.0
O593 O 0.36365 0.41874 0.07754 0.0
O594 O 0.40717 0.45723 0.19183 0.0
O595 O 0.43872 0.49206 0.14949 0.0
O596 O 0.38826 0.5094 0.17044 0.0
O597 O 0.36301 0.46257 0.14064 0.0
C598 C 0.45888 0.50002 0.04386 0.0
C599 C 0.36416 0.48443 0.16702 0.0
Dy600 Dy 0.08237 0.45857 0.60749 0.0
C601 C 0.13925 0.57757 0.6318 0.0
C602 C 0.04821 0.40159 0.59601 0.0
Dy603 Dy 0.11884 0.52092 0.6093 0.0
O604 O 0.03941 0.41887 0.61121 0.0
O605 O 0.07546 0.41535 0.58558 0.0
O606 O 0.07736 0.45872 0.69607 0.0
O607 O 0.07691 0.49116 0.65202 0.0
C608 C 0.07211 0.47968 0.69864 0.0
C609 C 0.13502 0.50155 0.51929 0.0
O610 O 0.14566 0.50996 0.66243 0.0
O611 O 0.12332 0.46223 0.63847 0.0
O612 O 0.1295 0.56548 0.5856 0.0
O613 O 0.1389 0.55894 0.66561 0.0
O614 O 0.14681 0.52811 0.53476 0.0
O615 O 0.11587 0.48735 0.55398 0.0
O616 O 0.05891 0.47062 0.54732 0.0
O617 O 0.07916 0.51737 0.57611 0.0
C618 C 0.14484 0.48502 0.66104 0.0
C619 C 0.0595 0.49549 0.54894 0.0
Dy620 Dy 0.56763 0.62793 0.60624 0.0
C621 C 0.45271 0.5645 0.64299 0.0
C622 C 0.62545 0.6619 0.59621 0.0
Dy623 Dy 0.50928 0.60381 0.6196 0.0
O624 O 0.60869 0.646 0.55805 0.0
O625 O 0.61069 0.65946 0.63881 0.0
O626 O 0.56984 0.59334 0.64907 0.0
O627 O 0.54219 0.60686 0.68025 0.0
C628 C 0.55209 0.58964 0.68733 0.0
C629 C 0.52874 0.64091 0.53287 0.0
O630 O 0.51985 0.63849 0.679 0.0
O631 O 0.56272 0.66508 0.63622 0.0
O632 O 0.46167 0.59017 0.62452 0.0
O633 O 0.47456 0.56082 0.64925 0.0
O634 O 0.50734 0.63635 0.56361 0.0
O635 O 0.53657 0.6231 0.54576 0.0
O636 O 0.55602 0.58975 0.55379 0.0
O637 O 0.50871 0.56656 0.57993 0.0
C638 C 0.54268 0.66347 0.66919 0.0
C639 C 0.5303 0.5666 0.55514 0.0
Dy640 Dy 0.40076 0.94127 0.60742 0.0
C641 C 0.46057 0.88528 0.6373 0.0
C642 C 0.37311 0.97131 0.59657 0.0
Dy643 Dy 0.42807 0.9102 0.61053 0.0
O644 O 0.37895 0.96356 0.64147 0.0
O645 O 0.38247 0.96287 0.55652 0.0
O646 O 0.40624 0.94972 0.69556 0.0
O647 O 0.4406 0.95229 0.65236 0.0
C648 C 0.43329 0.95808 0.69761 0.0
C649 C 0.39567 0.89815 0.51772 0.0
O650 O 0.39096 0.88152 0.66464 0.0
O651 O 0.36317 0.89952 0.63336 0.0
O652 O 0.45992 0.89556 0.59061 0.0
O653 O 0.44206 0.88709 0.66842 0.0
O654 O 0.42019 0.89899 0.52137 0.0
O655 O 0.38858 0.90147 0.56447 0.0
O656 O 0.43826 0.96873 0.55222 0.0
O657 O 0.4658 0.95088 0.58517 0.0
C658 C 0.36573 0.8801 0.66116 0.0
C659 C 0.46342 0.96993 0.55642 0.0
Dy660 Dy 0.13464 0.41165 0.2553 0.0
C661 C 0.2491 0.46085 0.22386 0.0
C662 C 0.07869 0.39624 0.27307 0.0
Dy663 Dy 0.19116 0.44169 0.23852 0.0
O664 O 0.0878 0.37925 0.25756 0.0
O665 O 0.10023 0.42163 0.2808 0.0
O666 O 0.12578 0.37256 0.21295 0.0
O667 O 0.15721 0.41198 0.1789 0.0
C668 C 0.14394 0.38434 0.17422 0.0
C669 C 0.17355 0.46067 0.32788 0.0
O670 O 0.18465 0.47061 0.18434 0.0
O671 O 0.13884 0.45135 0.21578 0.0
O672 O 0.23541 0.45295 0.26916 0.0
O673 O 0.23133 0.45912 0.18685 0.0
O674 O 0.19075 0.47658 0.29025 0.0
O675 O 0.16671 0.4353 0.31574 0.0
O676 O 0.14722 0.38773 0.31235 0.0
O677 O 0.1866 0.39975 0.2605 0.0
C678 C 0.16074 0.47146 0.18867 0.0
C679 C 0.16855 0.38361 0.29779 0.0
Dy680 Dy 0.61669 0.72842 0.27648 0.0
C681 C 0.56637 0.79257 0.22219 0.0
C682 C 0.63737 0.69343 0.29988 0.0
Dy683 Dy 0.58374 0.75432 0.25309 0.0
O684 O 0.63299 0.69956 0.252 0.0
O685 O 0.6303 0.70617 0.33601 0.0
O686 O 0.65569 0.76095 0.23576 0.0
O687 O 0.61593 0.75014 0.20053 0.0
C688 C 0.64349 0.76649 0.19672 0.0
C689 C 0.5633 0.71873 0.34202 0.0
O690 O 0.55474 0.71418 0.20835 0.0
O691 O 0.57681 0.69072 0.24349 0.0
O692 O 0.56649 0.78427 0.27106 0.0
O693 O 0.57461 0.77899 0.19012 0.0
O694 O 0.54751 0.72293 0.30785 0.0
O695 O 0.58911 0.73589 0.32897 0.0
O696 O 0.64129 0.7664 0.32943 0.0
O697 O 0.62367 0.79167 0.28493 0.0
C698 C 0.55553 0.69033 0.21628 0.0
C699 C 0.64232 0.79081 0.318 0.0
Dy700 Dy 0.30287 0.89199 0.24758 0.0
C701 C 0.23823 0.77264 0.2251 0.0
C702 C 0.33097 0.94915 0.25468 0.0
Dy703 Dy 0.27448 0.82936 0.24872 0.0
O704 O 0.33171 0.93492 0.21369 0.0
O705 O 0.31512 0.93241 0.29306 0.0
O706 O 0.29533 0.89176 0.15952 0.0
O707 O 0.26327 0.86 0.20597 0.0
C708 C 0.26895 0.87137 0.15913 0.0
C709 C 0.31221 0.84937 0.33561 0.0
O710 O 0.31258 0.84031 0.19521 0.0
O711 O 0.33981 0.88483 0.23288 0.0
O712 O 0.24116 0.78439 0.27194 0.0
O713 O 0.25589 0.79174 0.19112 0.0
O714 O 0.2952 0.82245 0.32429 0.0
O715 O 0.30695 0.86297 0.30045 0.0
O716 O 0.26491 0.88339 0.299 0.0
O717 O 0.23923 0.83446 0.28429 0.0
C718 C 0.33785 0.86344 0.2039 0.0
C719 C 0.24111 0.85822 0.30319 0.0
C720 C 0.24037 0.06811 0.06832 0.0
C721 C 0.22344 0.07929 0.04639 0.0
C722 C 0.19691 0.03554 0.99254 0.0
C723 C 0.21179 0.02322 0.01858 0.0
N724 N 0.24366 0.02578 0.08904 0.0
N725 N 0.18135 0.07073 0.99664 0.0
C726 C 0.23226 0.03891 0.05896 0.0
C727 C 0.20045 0.06214 1.01116 0.0
N728 N 0.26526 0.0857 0.09517 0.0
N729 N 0.18065 0.02282 0.94798 0.0
H730 H 0.18272 0.08967 1.01037 0.0
H731 H 0.16252 0.05765 0.97553 0.0
H732 H 0.17796 1.00382 0.9317 0.0
H733 H 0.17214 0.03263 0.92399 0.0
H734 H 0.27979 0.07931 0.10722 0.0
H735 H 0.27316 0.10758 0.1003 0.0
H736 H 0.25648 0.03522 0.12266 0.0
H737 H 0.23796 1.00436 0.08361 0.0
C738 C 0.98176 0.1962 0.04118 0.0
C739 C 1.00171 0.18888 0.01906 0.0
C740 C 0.96619 0.13771 0.03318 0.0
C741 C 0.94522 0.14509 0.04803 0.0
N742 N 0.93181 0.18153 0.0582 0.0
N743 N 1.01089 0.15144 0.98748 0.0
C744 C 0.95269 0.1744 0.05018 0.0
C745 C 0.99351 0.15931 1.0137 0.0
N746 N 0.99082 0.22395 0.05543 0.0
N747 N 0.96036 0.11006 0.0392 0.0
H748 H 0.0313 0.1658 0.97346 0.0
H749 H 1.00413 0.13043 0.97587 0.0
H750 H 0.94068 0.09366 0.05332 0.0
H751 H 0.97589 0.10394 0.03519 0.0
H752 H 0.97803 0.23017 0.07649 0.0
H753 H 1.0121 0.24031 0.05133 0.0
H754 H 0.93543 0.20234 0.05412 0.0
H755 H 0.91021 0.16637 0.06388 0.0
C756 C 0.83 0.7897 0.04824 0.0
C757 C 0.83715 0.81537 0.02023 0.0
C758 C 0.88857 0.83096 0.03049 0.0
C759 C 0.88114 0.80373 0.05191 0.0
N760 N 0.84447 0.75537 0.07395 0.0
N761 N 0.87357 0.85973 0.98028 0.0
C762 C 0.85177 0.78265 0.05923 0.0
C763 C 0.86655 0.83597 1.01056 0.0
N764 N 0.80245 0.77242 0.06586 0.0
N765 N 0.91666 0.85239 0.03071 0.0
H766 H 0.85853 0.86501 0.96649 0.0
H767 H 0.89421 0.87335 0.96577 0.0
H768 H 0.93332 0.84951 0.04496 0.0
H769 H 0.92319 0.87363 0.02136 0.0
H770 H 0.79648 0.75494 0.09118 0.0
H771 H 0.78612 0.7773 0.05991 0.0
H772 H 0.8234 0.73835 0.07408 0.0
H773 H 0.85953 0.74895 0.08123 0.0
C774 C 0.05438 0.23379 0.48775 0.0
C775 C 0.03373 0.20683 0.50923 0.0
C776 C 0.0685 0.18978 0.49887 0.0
C777 C 0.08999 0.21777 0.48401 0.0
N778 N 0.10469 0.26765 0.47113 0.0
N779 N 0.02213 0.15951 0.53993 0.0
C780 C 0.08326 0.2401 0.48 0.0
C781 C 0.04092 0.18478 0.51555 0.0
N782 N 0.04611 0.25309 0.47309 0.0
N783 N 0.07421 0.16773 0.49567 0.0
H784 H 1.00127 0.15396 0.55056 0.0
H785 H 0.02778 0.14456 0.55267 0.0
H786 H 0.09428 0.17069 0.48454 0.0
H787 H 0.05854 0.14625 0.49967 0.0
H788 H 0.05937 0.27194 0.45229 0.0
H789 H 0.02496 0.24883 0.47668 0.0
H790 H 0.1017 0.2853 0.47382 0.0
H791 H 0.12615 0.27328 0.46581 0.0
C792 C 0.79112 0.84489 0.46951 0.0
C793 C 0.81086 0.87422 0.48055 0.0
C794 C 0.84396 0.8604 0.52167 0.0
C795 C 0.82465 0.83109 0.50899 0.0
N796 N 0.78326 0.7966 0.45938 0.0
N797 N 0.85864 0.9104 0.50594 0.0
C798 C 0.79926 0.82375 0.47937 0.0
C799 C 0.83802 0.88209 0.50338 0.0
N800 N 0.76398 0.83693 0.45219 0.0
N801 N 0.86732 0.86764 0.55344 0.0
H802 H 0.85521 0.92684 0.49268 0.0
H803 H 0.87993 0.91748 0.51638 0.0
H804 H 0.87347 0.85308 0.56594 0.0
H805 H 0.87969 0.88788 0.57035 0.0
H806 H 0.74761 0.81568 0.44931 0.0
H807 H 0.75693 0.85151 0.44509 0.0
H808 H 0.76614 0.79052 0.43303 0.0
H809 H 0.78892 0.78082 0.46475 0.0
C810 C 0.14427 0.96232 0.50021 0.0
C811 C 0.15039 0.94079 0.48295 0.0
C812 C 0.2021 0.97638 0.48286 0.0
C813 C 0.19636 0.99691 0.50704 0.0
N814 N 0.16139 1.00849 0.54286 0.0
N815 N 0.18555 0.92628 0.46526 0.0
C816 C 0.16725 0.98978 0.51623 0.0
C817 C 0.17942 0.94759 0.47593 0.0
N818 N 0.11647 0.9567 0.50021 0.0
N819 N 0.22925 0.98464 0.46502 0.0
H820 H 0.16975 0.90487 0.46098 0.0
H821 H 0.2063 0.92932 0.46572 0.0
H822 H 0.24614 1.00571 0.46792 0.0
H823 H 0.2343 0.9715 0.44227 0.0
H824 H 0.11071 0.97234 0.50628 0.0
H825 H 0.09918 0.93677 0.48969 0.0
H826 H 0.14106 1.003 0.55727 0.0
H827 H 0.17707 0.02904 0.55388 0.0
C828 C 0.84314 0.98656 0.02277 0.0
C829 C 0.82197 0.99479 1.01418 0.0
C830 C 0.78874 0.94638 0.97998 0.0
C831 C 0.81049 0.93878 0.98527 0.0
N832 N 0.86017 0.95349 1.00145 0.0
N833 N 0.77748 0.98461 0.97192 0.0
C834 C 0.83821 0.95944 1.00368 0.0
C835 C 0.79563 0.97528 0.98895 0.0
N836 N 0.86738 1.00387 0.05148 0.0
N837 N 0.76104 0.92575 0.96925 0.0
H838 H 0.78226 1.00584 0.97591 0.0
H839 H 0.7593 0.97218 0.94868 0.0
H840 H 0.75472 0.9042 0.96393 0.0
H841 H 0.74377 0.92948 0.97093 0.0
H842 H 0.88159 0.99735 0.06496 0.0
H843 H 0.87238 0.02402 0.06551 0.0
H844 H 0.88157 0.96874 1.00851 0.0
H845 H 0.85743 0.93398 0.98761 0.0
C846 C 0.06089 0.86664 0.96754 0.0
C847 C 0.0864 0.8731 0.99558 0.0
C848 C 0.05802 0.83397 0.05882 0.0
C849 C 0.03249 0.82589 0.0283 0.0
N850 N 1.01276 0.8299 0.94358 0.0
N851 N 0.10993 0.85694 0.05744 0.0
C852 C 0.03478 0.84097 0.97983 0.0
C853 C 0.08518 0.85505 0.03814 0.0
N854 N 0.06138 0.88525 0.92971 0.0
N855 N 0.05677 0.82274 0.10865 0.0
H856 H 0.13029 0.87127 0.04246 0.0
H857 H 0.11004 0.84204 0.08401 0.0
H858 H 0.03791 0.80833 0.12808 0.0
H859 H 0.07449 0.83052 0.13411 0.0
H860 H 0.04282 0.88309 0.91199 0.0
H861 H 0.08001 0.90427 0.91977 0.0
H862 H 1.01436 0.83872 0.90563 0.0
H863 H 0.99435 0.80994 0.94836 0.0
C864 C 0.17674 0.1829 0.98065 0.0
C865 C 0.2025 0.2066 1.00088 0.0
C866 C 0.17929 0.2362 0.99893 0.0
C867 C 0.15272 0.21181 0.9848 0.0
N868 N 0.12529 0.16144 0.96514 0.0
N869 N 0.23104 0.25812 0.99791 0.0
C870 C 0.15127 0.18505 0.97604 0.0
C871 C 0.20461 0.234 1.00125 0.0
N872 N 0.1773 0.15958 0.96042 0.0
N873 N 0.18047 0.26154 1.01102 0.0
H874 H 0.24975 0.25719 0.99108 0.0
H875 H 0.23399 0.27865 0.99338 0.0
H876 H 0.16288 0.2647 1.0078 0.0
H877 H 0.19848 0.27888 0.028 0.0
H878 H 0.15978 0.14233 0.94222 0.0
H879 H 0.19637 0.15945 0.95352 0.0
H880 H 0.12187 0.14063 0.96475 0.0
H881 H 0.10644 0.1624 0.96081 0.0
C882 C 1.00208 0.82712 0.56836 0.0
C883 C 1.00331 0.80654 0.53409 0.0
C884 C 0.95 0.77994 0.53256 0.0
C885 C 0.94968 0.8037 0.55662 0.0
N886 N 0.97547 0.85043 0.59699 0.0
N887 N 0.9766 0.75943 0.49285 0.0
C888 C 0.97573 0.82736 0.57472 0.0
C889 C 0.97675 0.78173 0.51917 0.0
N890 N 0.02563 0.84518 0.59801 0.0
N891 N 0.92465 0.75481 0.52554 0.0
H892 H 0.99268 0.75425 0.49736 0.0
H893 H 0.95945 0.74484 0.46941 0.0
H894 H 0.90463 0.7523 0.53535 0.0
H895 H 0.92335 0.73557 0.51432 0.0
H896 H 0.0255 0.85916 0.62681 0.0
H897 H 0.04402 0.84322 0.5993 0.0
H898 H 0.99412 0.86966 0.60543 0.0
H899 H 0.95656 0.85109 0.60314 0.0
C900 C 0.24368 0.16639 0.50634 0.0
C901 C 0.22521 0.14683 0.54569 0.0
C902 C 0.204 0.17764 0.55979 0.0
C903 C 0.2185 0.19398 0.51331 0.0
N904 N 0.24866 0.19901 0.43591 0.0
N905 N 0.18547 0.13231 0.60682 0.0
C906 C 0.23749 0.18714 0.48488 0.0
C907 C 0.20472 0.15204 0.5717 0.0
N908 N 0.26797 0.16609 0.49075 0.0
N909 N 0.19088 0.18728 0.59435 0.0
H910 H 0.1854 0.11343 0.61655 0.0
H911 H 0.16812 0.13356 0.6226 0.0
H912 H 0.19181 0.20697 0.58966 0.0
H913 H 0.18219 0.17749 0.63108 0.0
H914 H 0.28367 0.18187 0.46631 0.0
H915 H 0.27428 0.15233 0.50742 0.0
H916 H 0.26007 0.19216 0.41204 0.0
H917 H 0.24365 0.2127 0.41524 0.0
C918 C 0.86563 0.0785 0.50207 0.0
C919 C 0.88508 0.08044 0.54253 0.0
C920 C 0.85436 0.02869 0.55955 0.0
C921 C 0.83759 0.02618 0.51346 0.0
N922 N 0.83295 0.04915 0.43299 0.0
N923 N 0.89989 0.05648 0.60586 0.0
C924 C 0.84479 0.05119 0.48252 0.0
C925 C 0.87998 0.05526 0.57028 0.0
N926 N 0.86592 0.10261 0.48385 0.0
N927 N 0.8452 1.00628 0.59456 0.0
H928 H 0.91887 0.07542 0.61446 0.0
H929 H 0.89879 0.03832 0.62311 0.0
H930 H 0.82593 0.98709 0.58966 0.0
H931 H 0.85508 1.00783 0.63134 0.0
H932 H 0.8502 0.10187 0.45828 0.0
H933 H 0.87949 0.12301 0.49922 0.0
H934 H 0.83983 0.06665 0.40727 0.0
H935 H 0.81917 0.02981 0.41425 0.0
C936 C 0.91261 0.40517 0.39365 0.0
C937 C 0.89097 0.41267 0.38528 0.0
C938 C 0.85921 0.3649 0.34738 0.0
C939 C 0.8805 0.35702 0.35778 0.0
N940 N 0.92395 0.36707 0.40378 0.0
N941 N 0.84168 0.39794 0.36502 0.0
C942 C 0.90612 0.37641 0.38495 0.0
C943 C 0.86368 0.39201 0.36531 0.0
N944 N 0.93991 0.42582 0.40701 0.0
N945 N 0.8353 0.34726 0.31815 0.0
H946 H 0.84417 0.41752 0.37772 0.0
H947 H 0.82042 0.38267 0.35685 0.0
H948 H 0.83013 0.32677 0.30614 0.0
H949 H 0.82133 0.35365 0.30276 0.0
H950 H 0.95725 0.42219 0.40777 0.0
H951 H 0.94598 0.44731 0.4123 0.0
H952 H 0.94148 0.37931 0.42859 0.0
H953 H 0.91951 0.34597 0.39906 0.0
C954 C 0.65637 0.52635 0.39099 0.0
C955 C 0.67294 0.52078 0.3536 0.0
C956 C 0.63499 0.4701 0.35062 0.0
C957 C 0.61688 0.47664 0.38204 0.0
N958 N 0.60893 0.51251 0.42482 0.0
N959 N 0.67711 0.48797 0.29325 0.0
C960 C 0.62727 0.50511 0.40086 0.0
C961 C 0.66216 0.49273 0.33254 0.0
N962 N 0.66861 0.552 0.41745 0.0
N963 N 0.62652 0.44217 0.33907 0.0
H964 H 0.6972 0.50378 0.27961 0.0
H965 H 0.66877 0.46893 0.2716 0.0
H966 H 0.60693 0.42511 0.352 0.0
H967 H 0.6399 0.43572 0.32102 0.0
H968 H 0.65864 0.55633 0.44914 0.0
H969 H 0.68994 0.56792 0.41135 0.0
H970 H 0.61458 0.53359 0.4337 0.0
H971 H 0.58718 0.49816 0.43107 0.0
C972 C 0.53461 0.17101 0.32863 0.0
C973 C 0.50568 0.15088 0.34243 0.0
C974 C 0.52145 0.11852 0.37894 0.0
C975 C 0.55056 0.13933 0.3683 0.0
N976 N 0.58538 0.18734 0.34146 0.0
N977 N 0.47254 0.10863 0.3917 0.0
C978 C 0.5573 0.16616 0.34551 0.0
C979 C 0.49945 0.1256 0.37095 0.0
N980 N 0.54039 0.19413 0.29736 0.0
N981 N 0.51451 0.09136 0.39387 0.0
H982 H 0.45606 0.11347 0.38764 0.0
H983 H 0.46739 0.09152 0.41754 0.0
H984 H 0.52972 0.08485 0.39846 0.0
H985 H 0.49344 0.07445 0.39642 0.0
H986 H 0.56044 0.20754 0.28027 0.0
H987 H 0.52465 0.19887 0.2853 0.0
H988 H 0.59167 0.20836 0.33078 0.0
H989 H 0.60247 0.18452 0.35312 0.0
C990 C 0.74946 0.56144 0.8745 0.0
C991 C 0.75241 0.54737 0.82873 0.0
C992 C 0.70026 0.52513 0.81277 0.0
C993 C 0.69716 0.53695 0.86168 0.0
N994 N 0.71842 0.55964 0.94639 0.0
N995 N 0.72966 0.51169 0.75947 0.0
C996 C 0.72163 0.55307 0.89474 0.0
C997 C 0.72751 0.52801 0.79925 0.0
N998 N 0.77304 0.58415 0.89694 0.0
N999 N 0.67758 0.51217 0.77818 0.0
H1000 H 0.74904 0.51279 0.74918 0.0
H1001 H 0.71189 0.49519 0.74022 0.0
H1002 H 0.65751 0.50995 0.78641 0.0
H1003 H 0.67937 0.50587 0.73947 0.0
H1004 H 0.77162 0.5968 0.92717 0.0
H1005 H 0.79367 0.59261 0.88109 0.0
H1006 H 0.73539 0.56881 0.97363 0.0
H1007 H 0.69846 0.55301 0.96398 0.0
C1008 C 0.51165 0.19714 0.86766 0.0
C1009 C 0.49646 0.16996 0.84225 0.0
C1010 C 0.46842 0.18628 0.79064 0.0
C1011 C 0.48459 0.21402 0.81388 0.0
N1012 N 0.52538 0.24748 0.86617 0.0
N1013 N 0.46532 0.14063 0.77132 0.0
C1014 C 0.50737 0.21994 0.84993 0.0
C1015 C 0.47648 0.16525 0.80097 0.0
N1016 N 0.52911 0.20082 0.9104 0.0
N1017 N 0.4441 0.1792 0.76181 0.0
H1018 H 0.47087 0.12484 0.77791 0.0
H1019 H 0.45292 0.13716 0.73703 0.0
H1020 H 0.43645 0.19329 0.75499 0.0
H1021 H 0.4298 0.15842 0.74914 0.0
H1022 H 0.53795 0.21893 0.9348 0.0
H1023 H 0.53324 0.18488 0.92385 0.0
H1024 H 0.54409 0.25365 0.88805 0.0
H1025 H 0.52306 0.2647 0.85357 0.0
C1026 C 0.85077 0.28283 0.79193 0.0
C1027 C 0.82182 0.27305 0.80772 0.0
C1028 C 0.83758 0.31862 0.85531 0.0
C1029 C 0.86617 0.32913 0.83636 0.0
N1030 N 0.89843 0.3235 0.77681 0.0
N1031 N 0.7869 0.28417 0.84426 0.0
C1032 C 0.87223 0.31189 0.80158 0.0
C1033 C 0.81502 0.29173 0.83638 0.0
N1034 N 0.85825 0.26402 0.77067 0.0
N1035 N 0.83207 0.3334 0.89375 0.0
H1036 H 0.7698 0.26494 0.83034 0.0
H1037 H 0.78054 0.29814 0.85977 0.0
H1038 H 0.84773 0.35294 0.90941 0.0
H1039 H 0.81244 0.32505 0.91372 0.0
H1040 H 0.87948 0.26921 0.764 0.0
H1041 H 0.84364 0.24237 0.76458 0.0
H1042 H 0.90319 0.31299 0.74683 0.0
H1043 H 0.91444 0.34479 0.78229 0.0
C1044 C 0.50664 0.29547 0.33585 0.0
C1045 C 0.47888 0.27482 0.31759 0.0
C1046 C 0.46446 0.31164 0.31771 0.0
C1047 C 0.49091 0.33136 0.34221 0.0
N1048 N 0.53669 0.34135 0.37879 0.0
N1049 N 0.42977 0.26202 0.29876 0.0
C1050 C 0.51201 0.3232 0.35201 0.0
C1051 C 0.4574 0.28261 0.31025 0.0
N1052 N 0.5282 0.2889 0.33606 0.0
N1053 N 0.44635 0.32091 0.30011 0.0
H1054 H 0.42339 0.24039 0.29434 0.0
H1055 H 0.41256 0.26583 0.2987 0.0
H1056 H 0.45115 0.34216 0.30374 0.0
H1057 H 0.42815 0.30841 0.27701 0.0
H1058 H 0.54968 0.30394 0.34292 0.0
H1059 H 0.52501 0.26882 0.32499 0.0
H1060 H 0.55094 0.3352 0.39364 0.0
H1061 H 0.5423 0.36222 0.38905 0.0
C1062 C 0.71009 0.17451 0.29996 0.0
C1063 C 0.70452 0.16517 0.35442 0.0
C1064 C 0.75306 0.20385 0.37876 0.0
C1065 C 0.75972 0.21106 0.32394 0.0
N1066 N 0.74586 0.20066 0.23099 0.0
N1067 N 0.72358 0.16844 0.44428 0.0
C1068 C 0.73848 0.19594 0.28411 0.0
C1069 C 0.72686 0.179 0.39329 0.0
N1070 N 0.68852 0.16243 0.26289 0.0
N1071 N 0.7712 0.22165 0.41756 0.0
H1072 H 0.70449 0.15184 0.45937 0.0
H1073 H 0.7406 0.17521 0.47118 0.0
H1074 H 0.79009 0.24066 0.40878 0.0
H1075 H 0.76595 0.21934 0.45826 0.0
H1076 H 0.69007 0.17077 0.22453 0.0
H1077 H 0.66842 0.14479 0.27113 0.0
H1078 H 0.73249 0.1881 0.20006 0.0
H1079 H 0.76634 0.21573 0.21768 0.0
C1080 C 0.81626 0.52611 0.3476 0.0
C1081 C 0.82256 0.54972 0.31365 0.0
C1082 C 0.87174 0.55819 0.30168 0.0
C1083 C 0.86658 0.53732 0.34147 0.0
N1084 N 0.83487 0.50458 0.40918 0.0
N1085 N 0.85817 0.59147 0.26543 0.0
C1086 C 0.83903 0.52195 0.36607 0.0
C1087 C 0.85075 0.56652 0.2921 0.0
N1088 N 0.7884 0.50708 0.36098 0.0
N1089 N 0.89663 0.56982 0.27249 0.0
H1090 H 0.8441 0.59927 0.25951 0.0
H1091 H 0.87918 0.60601 0.25391 0.0
H1092 H 0.91226 0.56393 0.27814 0.0
H1093 H 0.90044 0.58301 0.23928 0.0
H1094 H 0.78229 0.4879 0.38105 0.0
H1095 H 0.77105 0.50892 0.34721 0.0
H1096 H 0.81629 0.49567 0.43258 0.0
H1097 H 0.85083 0.50101 0.42466 0.0
C1098 C 0.64537 0.1384 0.80006 0.0
C1099 C 0.66924 0.15101 0.83563 0.0
C1100 C 0.63932 0.15928 0.90032 0.0
C1101 C 0.61463 0.14285 0.8679 0.0
N1102 N 0.59389 0.10957 0.79365 0.0
N1103 N 0.6871 0.16893 0.92455 0.0
C1104 C 0.61753 0.13043 0.81957 0.0
C1105 C 0.66579 0.16034 0.88715 0.0
N1106 N 0.64919 0.13486 0.74692 0.0
N1107 N 0.63781 0.17454 0.94282 0.0
H1108 H 0.70628 0.169 0.91736 0.0
H1109 H 0.68454 0.17318 0.96438 0.0
H1110 H 0.61913 0.17495 0.9528 0.0
H1111 H 0.65579 0.18903 0.96463 0.0
H1112 H 0.63273 0.12816 0.71873 0.0
H1113 H 0.66931 0.14189 0.72981 0.0
H1114 H 0.59538 0.0982 0.76105 0.0
H1115 H 0.57303 0.10089 0.80842 0.0
C1116 C 0.90217 0.52787 0.86803 0.0
C1117 C 0.87532 0.52153 0.84557 0.0
C1118 C 0.85864 0.4699 0.85524 0.0
C1119 C 0.8868 0.47662 0.87033 0.0
N1120 N 0.9367 0.51215 0.88316 0.0
N1121 N 0.8278 0.48596 0.8157 0.0
C1122 C 0.9089 0.50565 0.87474 0.0
C1123 C 0.85333 0.49237 0.8391 0.0
N1124 N 0.92085 0.55508 0.88517 0.0
N1125 N 0.83679 0.4421 0.85775 0.0
H1126 H 0.82253 0.50138 0.80439 0.0
H1127 H 0.8125 0.46539 0.80373 0.0
H1128 H 0.84005 0.42519 0.86838 0.0
H1129 H 0.81519 0.436 0.85342 0.0
H1130 H 0.93953 0.56046 0.90657 0.0
H1131 H 0.91601 0.57159 0.88363 0.0
H1132 H 0.95412 0.53292 0.88082 0.0
H1133 H 0.94279 0.49663 0.88727 0.0
C1134 C 0.53678 0.41175 0.82473 0.0
C1135 C 0.54853 0.41498 0.87696 0.0
C1136 C 0.51206 0.36478 0.89638 0.0
C1137 C 0.50297 0.36058 0.84181 0.0
N1138 N 0.51349 0.37952 0.75108 0.0
N1139 N 0.55049 0.39253 0.95945 0.0
C1140 C 0.51731 0.38389 0.80514 0.0
C1141 C 0.53709 0.39087 0.91191 0.0
N1142 N 0.54268 0.43525 0.79446 0.0
N1143 N 0.49607 0.34466 0.93416 0.0
H1144 H 0.56919 0.41089 0.97161 0.0
H1145 H 0.54477 0.37482 0.98403 0.0
H1146 H 0.4769 0.32601 0.92529 0.0
H1147 H 0.50017 0.34794 0.97519 0.0
H1148 H 0.5322 0.43383 0.75841 0.0
H1149 H 0.55518 0.45624 0.80799 0.0
H1150 H 0.5257 0.39531 0.7229 0.0
H1151 H 0.50085 0.35947 0.73417 0.0
C1152 C 0.5299 0.7264 0.69784 0.0
C1153 C 0.55699 0.74649 0.71946 0.0
C1154 C 0.5712 0.70951 0.71998 0.0
C1155 C 0.54568 0.69056 0.6919 0.0
N1156 N 0.50143 0.68189 0.64984 0.0
N1157 N 0.60502 0.75848 0.74546 0.0
C1158 C 0.52503 0.69911 0.68018 0.0
C1159 C 0.57801 0.73834 0.72946 0.0
N1160 N 0.5085 0.73315 0.69547 0.0
N1161 N 0.58859 0.69965 0.7389 0.0
H1162 H 0.61104 0.77984 0.75254 0.0
H1163 H 0.62221 0.75466 0.74736 0.0
H1164 H 0.58391 0.67852 0.73368 0.0
H1165 H 0.60598 0.71144 0.76428 0.0
H1166 H 0.48727 0.71839 0.68594 0.0
H1167 H 0.51138 0.75297 0.70766 0.0
H1168 H 0.48788 0.6886 0.6337 0.0
H1169 H 0.49618 0.66137 0.63775 0.0
C1170 C 0.30197 0.80436 0.68143 0.0
C1171 C 0.28388 0.81041 0.71395 0.0
C1172 C 0.32261 0.86057 0.72154 0.0
C1173 C 0.33921 0.85533 0.68362 0.0
N1174 N 0.34315 0.82291 0.62169 0.0
N1175 N 0.27531 0.84558 0.75781 0.0
C1176 C 0.32862 0.82733 0.66231 0.0
C1177 C 0.29382 0.83882 0.73259 0.0
N1178 N 0.294 0.77655 0.6698 0.0
N1179 N 0.33455 0.88632 0.74764 0.0
H1180 H 0.25384 0.8307 0.76543 0.0
H1181 H 0.28044 0.86651 0.76665 0.0
H1182 H 0.35563 0.90262 0.74077 0.0
H1183 H 0.32465 0.89047 0.77967 0.0
H1184 H 0.30754 0.77052 0.65104 0.0
H1185 H 0.27476 0.75922 0.68335 0.0
H1186 H 0.33477 0.80386 0.60007 0.0
H1187 H 0.3627 0.83901 0.60657 0.0
C1188 C 0.19673 0.4973 0.65462 0.0
C1189 C 0.16974 0.48271 0.68144 0.0
C1190 C 0.18757 0.45696 0.73652 0.0
C1191 C 0.21519 0.4729 0.71208 0.0
N1192 N 0.24755 0.51242 0.65595 0.0
N1193 N 0.1412 0.45295 0.75471 0.0
C1194 C 0.22018 0.49429 0.67346 0.0
C1195 C 0.16574 0.46386 0.72452 0.0
N1196 N 0.19966 0.51295 0.60945 0.0
N1197 N 0.18151 0.43407 0.76877 0.0
H1198 H 0.12485 0.4576 0.74703 0.0
H1199 H 0.13823 0.44155 0.79018 0.0
H1200 H 0.19645 0.4278 0.77823 0.0
H1201 H 0.16089 0.41963 0.78233 0.0
H1202 H 0.2176 0.52109 0.58441 0.0
H1203 H 0.18323 0.51591 0.59437 0.0
H1204 H 0.25305 0.53035 0.63221 0.0
H1205 H 0.26531 0.51119 0.66939 0.0
C1206 C 0.37555 0.84823 0.19663 0.0
C1207 C 0.36498 0.86665 0.18077 0.0
C1208 C 0.4118 0.8998 0.14041 0.0
C1209 C 0.42195 0.88066 0.15331 0.0
N1210 N 0.41185 0.83423 0.18489 0.0
N1211 N 0.37059 0.906 0.12604 0.0
C1212 C 0.40333 0.85414 0.17891 0.0
C1213 C 0.38239 0.89117 0.14898 0.0
N1214 N 0.35967 0.82586 0.23056 0.0
N1215 N 0.43057 0.92698 0.12309 0.0
H1216 H 0.34894 0.89988 0.13048 0.0
H1217 H 0.3814 0.92236 0.09813 0.0
H1218 H 0.45255 0.93482 0.11849 0.0
H1219 H 0.42491 0.94279 0.11875 0.0
H1220 H 0.36764 0.81389 0.249 0.0
H1221 H 0.33902 0.82036 0.24313 0.0
H1222 H 0.39821 0.81337 0.19802 0.0
H1223 H 0.43193 0.83778 0.17234 0.0
C1224 C 0.17284 0.54727 0.16537 0.0
C1225 C 0.14568 0.54029 0.14399 0.0
C1226 C 0.13292 0.48975 0.13814 0.0
C1227 C 0.15818 0.49595 0.1668 0.0
N1228 N 0.20137 0.53108 0.21271 0.0
N1229 N 0.09769 0.50399 0.11844 0.0
C1230 C 0.17811 0.52487 0.18136 0.0
C1231 C 0.12516 0.5113 0.13227 0.0
N1232 N 0.19399 0.57534 0.16888 0.0
N1233 N 0.1166 0.46333 0.11543 0.0
H1234 H 0.0906 0.5188 0.11579 0.0
H1235 H 0.0811 0.48284 0.11507 0.0
H1236 H 0.12222 0.44737 0.11739 0.0
H1237 H 0.09938 0.45833 0.08986 0.0
H1238 H 0.21526 0.5817 0.17824 0.0
H1239 H 0.19094 0.5923 0.15767 0.0
H1240 H 0.21393 0.55093 0.23096 0.0
H1241 H 0.20738 0.51619 0.22344 0.0
C1242 C 0.5209 0.63736 0.23201 0.0
C1243 C 0.53114 0.66194 0.19813 0.0
C1244 C 0.49273 0.63268 0.13378 0.0
C1245 C 0.48511 0.60767 0.1646 0.0
N1246 N 0.49862 0.58586 0.23526 0.0
N1247 N 0.53051 0.68035 0.10986 0.0
C1248 C 0.50103 0.60987 0.21153 0.0
C1249 C 0.51804 0.65892 0.14707 0.0
N1250 N 0.52907 0.64 0.28458 0.0
N1251 N 0.47546 0.63169 0.09264 0.0
H1252 H 0.55001 0.69908 0.11629 0.0
H1253 H 0.52326 0.67809 0.0704 0.0
H1254 H 0.4564 0.61317 0.08255 0.0
H1255 H 0.47852 0.64993 0.0723 0.0
H1256 H 0.51971 0.62303 0.31175 0.0
H1257 H 0.54248 0.65951 0.30297 0.0
H1258 H 0.51206 0.58674 0.26628 0.0
H1259 H 0.48587 0.56526 0.22006 0.0
C1260 C 0.13223 0.64435 0.64863 0.0
C1261 C 0.15846 0.66328 0.67481 0.0
C1262 C 0.17388 0.62732 0.66439 0.0
C1263 C 0.14615 0.60723 0.64551 0.0
N1264 N 0.09719 0.59521 0.62726 0.0
N1265 N 0.20342 0.67114 0.7131 0.0
C1266 C 0.12487 0.61538 0.63938 0.0
C1267 C 0.17924 0.65449 0.68371 0.0
N1268 N 0.11471 0.65431 0.63095 0.0
N1269 N 0.19545 0.62079 0.66245 0.0
H1270 H 0.20905 0.69137 0.72742 0.0
H1271 H 0.21701 0.66394 0.72702 0.0
H1272 H 0.19231 0.60109 0.64883 0.0
H1273 H 0.21694 0.63573 0.66959 0.0
H1274 H 0.09667 0.64229 0.60713 0.0
H1275 H 0.11991 0.67566 0.63506 0.0
H1276 H 0.08016 0.59932 0.62824 0.0
H1277 H 0.0906 0.57363 0.6213 0.0
C1278 C 0.41844 0.53058 0.71109 0.0
C1279 C 0.42279 0.54294 0.65935 0.0
C1280 C 0.37155 0.51051 0.63865 0.0
C1281 C 0.36782 0.49641 0.68902 0.0
N1282 N 0.39026 0.49062 0.76946 0.0
N1283 N 0.40468 0.54259 0.57082 0.0
C1284 C 0.39203 0.50556 0.72382 0.0
C1285 C 0.39958 0.5326 0.62245 0.0
N1286 N 0.43909 0.54385 0.74965 0.0
N1287 N 0.3485 0.50228 0.60543 0.0
H1288 H 0.42476 0.5586 0.55753 0.0
H1289 H 0.3897 0.53373 0.53999 0.0
H1290 H 0.32863 0.48399 0.61189 0.0
H1291 H 0.34874 0.51411 0.57218 0.0
H1292 H 0.436 0.53774 0.78988 0.0
H1293 H 0.45822 0.56299 0.74298 0.0
H1294 H 0.40834 0.4935 0.7903 0.0
H1295 H 0.37122 0.47488 0.78648 0.0
C1296 C 0.51828 0.8629 0.63506 0.0
C1297 C 0.52923 0.86982 0.6883 0.0
C1298 C 0.49704 0.88913 0.7057 0.0
C1299 C 0.48344 0.87891 0.65527 0.0
N1300 N 0.47773 0.85055 0.57622 0.0
N1301 N 0.52115 0.88088 0.77883 0.0
C1302 C 0.49303 0.8641 0.62117 0.0
C1303 C 0.5162 0.88026 0.72498 0.0
N1304 N 0.53262 0.85665 0.59684 0.0
N1305 N 0.49342 0.90885 0.73418 0.0
H1306 H 0.53327 0.87269 0.79546 0.0
H1307 H 0.51012 0.88603 0.80723 0.0
H1308 H 0.48198 0.91841 0.71993 0.0
H1309 H 0.5051 0.9186 0.76886 0.0
H1310 H 0.52708 0.85426 0.55633 0.0
H1311 H 0.55177 0.85678 0.60443 0.0
H1312 H 0.48225 0.83723 0.55274 0.0
H1313 H 0.45875 0.85016 0.56564 0.0
C1314 C 0.28985 0.44995 0.23165 0.0
C1315 C 0.27972 0.46861 0.21463 0.0
C1316 C 0.32573 0.49876 0.16832 0.0
C1317 C 0.33654 0.48116 0.18822 0.0
N1318 N 0.33101 0.44374 0.24837 0.0
N1319 N 0.29058 0.51432 0.17776 0.0
C1320 C 0.31922 0.45794 0.22296 0.0
C1321 C 0.29847 0.4941 0.18632 0.0
N1322 N 0.27111 0.42376 0.2531 0.0
N1323 N 0.34052 0.51885 0.12966 0.0
H1324 H 0.27106 0.51194 0.1911 0.0
H1325 H 0.30454 0.53462 0.1624 0.0
H1326 H 0.3603 0.52295 0.11446 0.0
H1327 H 0.33194 0.52969 0.10903 0.0
H1328 H 0.27658 0.40804 0.26061 0.0
H1329 H 0.24931 0.41652 0.25873 0.0
H1330 H 0.3204 0.42848 0.27825 0.0
H1331 H 0.35249 0.44929 0.24343 0.0
C1332 C 0.5449 0.81235 0.15668 0.0
C1333 C 0.55997 0.81553 0.20531 0.0
C1334 C 0.56288 0.8623 0.21931 0.0
C1335 C 0.55107 0.86048 0.16756 0.0
N1336 N 0.53739 0.83635 0.08188 0.0
N1337 N 0.58918 0.84716 0.27682 0.0
C1338 C 0.54407 0.8363 0.13469 0.0
C1339 C 0.57041 0.84141 0.23536 0.0
N1340 N 0.53025 0.78615 0.1324 0.0
N1341 N 0.56727 0.88417 0.25301 0.0
H1342 H 0.59698 0.83366 0.28794 0.0
H1343 H 0.59961 0.86687 0.29643 0.0
H1344 H 0.56326 0.90053 0.24181 0.0
H1345 H 0.57282 0.88484 0.29327 0.0
H1346 H 0.51671 0.78215 0.09963 0.0
H1347 H 0.52884 0.76764 0.14865 0.0
H1348 H 0.53482 0.82044 0.05488 0.0
H1349 H 0.53774 0.85388 0.06377 0.0
C1350 C 0.18572 0.73534 0.22151 0.0
C1351 C 0.21479 0.74325 0.21089 0.0
C1352 C 0.1985 0.69631 0.1685 0.0
C1353 C 0.16959 0.68771 0.1828 0.0
N1354 N 0.13672 0.69678 0.23371 0.0
N1355 N 0.24929 0.72957 0.18302 0.0
C1356 C 0.16357 0.70658 0.21265 0.0
C1357 C 0.22131 0.72322 0.18694 0.0
N1358 N 0.17894 0.75564 0.23711 0.0
N1359 N 0.20416 0.67963 0.13486 0.0
H1360 H 0.26648 0.74903 0.19588 0.0
H1361 H 0.25531 0.7147 0.17143 0.0
H1362 H 0.18829 0.65997 0.11999 0.0
H1363 H 0.22429 0.68638 0.11793 0.0
H1364 H 0.1579 0.75172 0.2397 0.0
H1365 H 0.19421 0.77721 0.24208 0.0
H1366 H 0.13177 0.70863 0.26038 0.0
H1367 H 0.12012 0.67568 0.22901 0.0
C1368 C 0.3177 0.15749 0.20611 0.0
C1369 C 0.32704 0.18494 0.18319 0.0
C1370 C 0.37577 0.19286 0.17652 0.0
C1371 C 0.36728 0.16643 0.20281 0.0
N1372 N 0.33028 0.12553 0.251 0.0
N1373 N 0.36708 0.23246 0.1671 0.0
C1374 C 0.33822 0.14914 0.2198 0.0
C1375 C 0.35671 0.20387 0.1749 0.0
N1376 N 0.28903 0.13931 0.21471 0.0
N1377 N 0.40197 0.20725 0.15178 0.0
H1378 H 0.35423 0.24186 0.16873 0.0
H1379 H 0.38901 0.24729 0.16555 0.0
H1380 H 0.41603 0.19912 0.14987 0.0
H1381 H 0.40817 0.22539 0.12814 0.0
H1382 H 0.28031 0.11762 0.22352 0.0
H1383 H 0.27378 0.14584 0.21105 0.0
H1384 H 0.31063 0.11466 0.27098 0.0
H1385 H 0.34382 0.11752 0.25935 0.0
C1386 C 0.84055 0.15483 0.21131 0.0
C1387 C 0.84271 0.15084 0.1558 0.0
C1388 C 0.86434 0.20273 0.14074 0.0
C1389 C 0.85944 0.20629 0.1952 0.0
N1390 N 0.83715 0.18411 0.28066 0.0
N1391 N 0.84874 0.17004 0.06616 0.0
C1392 C 0.84545 0.18181 0.22976 0.0
C1393 C 0.85261 0.17458 0.12008 0.0
N1394 N 0.83579 0.13365 0.24715 0.0
N1395 N 0.87926 0.22597 0.10806 0.0
H1396 H 0.8375 0.14957 0.05032 0.0
H1397 H 0.85299 0.18613 0.03832 0.0
H1398 H 0.88646 0.24697 0.12023 0.0
H1399 H 0.88628 0.22445 0.06978 0.0
H1400 H 0.83738 0.1368 0.28859 0.0
H1401 H 0.83324 0.11387 0.23588 0.0
H1402 H 0.82325 0.16632 0.30359 0.0
H1403 H 0.84331 0.20351 0.29983 0.0
C1404 C 0.8302 0.64685 0.15611 0.0
C1405 C 0.81263 0.65583 0.18248 0.0
C1406 C 0.85346 0.70459 0.18896 0.0
C1407 C 0.87166 0.69515 0.16625 0.0
N1408 N 0.87811 0.65601 0.13562 0.0
N1409 N 0.80482 0.69487 0.20508 0.0
C1410 C 0.86026 0.66594 0.15157 0.0
C1411 C 0.82339 0.68522 0.19336 0.0
N1412 N 0.81755 0.62002 0.13411 0.0
N1413 N 0.86532 0.73181 0.20902 0.0
H1414 H 0.78261 0.68163 0.20404 0.0
H1415 H 0.81104 0.71645 0.20899 0.0
H1416 H 0.88742 0.74613 0.20858 0.0
H1417 H 0.85386 0.73929 0.23095 0.0
H1418 H 0.82823 0.61267 0.10953 0.0
H1419 H 0.79535 0.60616 0.13589 0.0
H1420 H 0.8713 0.63446 0.12915 0.0
H1421 H 0.90033 0.66866 0.1344 0.0
C1422 C 0.17714 0.34242 0.2882 0.0
C1423 C 0.17318 0.36134 0.32231 0.0
C1424 C 0.18411 0.34106 0.4001 0.0
C1425 C 0.19107 0.32433 0.36528 0.0
N1426 N 0.19994 0.31392 0.27514 0.0
N1427 N 0.17856 0.38276 0.40982 0.0
C1428 C 0.18959 0.32667 0.30898 0.0
C1429 C 0.17802 0.36171 0.37812 0.0
N1430 N 0.16761 0.33835 0.23645 0.0
N1431 N 0.18349 0.33747 0.45433 0.0
H1432 H 0.17462 0.39865 0.39543 0.0
H1433 H 0.18545 0.38607 0.44959 0.0
H1434 H 0.19044 0.32471 0.47241 0.0
H1435 H 0.17468 0.34597 0.48096 0.0
H1436 H 0.16744 0.32287 0.21108 0.0
H1437 H 0.15656 0.34802 0.22115 0.0
H1438 H 0.20202 0.31755 0.23385 0.0
H1439 H 0.20916 0.30205 0.28856 0.0
C1440 C 0.65673 0.83725 0.36229 0.0
C1441 C 0.66524 0.81854 0.33916 0.0
C1442 C 0.71506 0.858 0.33352 0.0
C1443 C 0.70618 0.87678 0.35489 0.0
N1444 N 0.66813 0.88607 0.3798 0.0
N1445 N 0.7025 0.81051 0.30305 0.0
C1446 C 0.67683 0.86699 0.36594 0.0
C1447 C 0.69445 0.82869 0.3251 0.0
N1448 N 0.62963 0.82614 0.38315 0.0
N1449 N 0.7436 0.8683 0.32289 0.0
H1450 H 0.68992 0.78839 0.30538 0.0
H1451 H 0.72188 0.81719 0.28313 0.0
H1452 H 0.75869 0.89015 0.32367 0.0
H1453 H 0.75263 0.85551 0.31455 0.0
H1454 H 0.62277 0.83799 0.40547 0.0
H1455 H 0.61479 0.80422 0.38288 0.0
H1456 H 0.64666 0.88061 0.38344 0.0
H1457 H 0.68217 0.90804 0.38245 0.0
C1458 C 0.1903 0.84727 0.28871 0.0
C1459 C 0.21445 0.85655 0.3234 0.0
C1460 C 0.18471 0.85281 0.40025 0.0
C1461 C 0.16083 0.84508 0.3655 0.0
N1462 N 0.14331 0.84235 0.27538 0.0
N1463 N 0.23619 0.87423 0.40995 0.0
C1464 C 0.16428 0.84439 0.30929 0.0
C1465 C 0.21222 0.86164 0.37827 0.0
N1466 N 0.19199 0.84091 0.23618 0.0
N1467 N 0.18084 0.84955 0.45443 0.0
H1468 H 0.25659 0.87945 0.39637 0.0
H1469 H 0.23619 0.88167 0.44861 0.0
H1470 H 0.16093 0.84165 0.47227 0.0
H1471 H 0.19666 0.85152 0.48111 0.0
H1472 H 0.17413 0.83056 0.2112 0.0
H1473 H 0.21095 0.84442 0.21814 0.0
H1474 H 0.14597 0.84487 0.23392 0.0
H1475 H 0.12431 0.84109 0.28891 0.0
C1476 C 0.68541 0.84067 0.90675 0.0
C1477 C 0.7042 0.83653 0.87223 0.0
C1478 C 0.68436 0.84845 0.7946 0.0
C1479 C 0.66724 0.85461 0.82987 0.0
N1480 N 0.65501 0.8616 0.91962 0.0
N1481 N 0.72559 0.84181 0.78457 0.0
C1482 C 0.66911 0.85257 0.88603 0.0
C1483 C 0.70474 0.84176 0.81638 0.0
N1484 N 0.6818 0.83158 0.95879 0.0
N1485 N 0.68101 0.84881 0.74025 0.0
H1486 H 0.74103 0.83714 0.79892 0.0
H1487 H 0.7291 0.84876 0.74483 0.0
H1488 H 0.6679 0.85563 0.7225 0.0
H1489 H 0.69003 0.8409 0.71283 0.0
H1490 H 0.66638 0.83134 0.98456 0.0
H1491 H 0.69201 0.82115 0.9744 0.0
H1492 H 0.6583 0.86371 0.96097 0.0
H1493 H 0.6418 0.86934 0.9059 0.0
C1494 C 0.17453 0.81908 0.88466 0.0
C1495 C 0.18 0.81684 0.8297 0.0
C1496 C 0.19334 0.86721 0.81485 0.0
C1497 C 0.19029 0.87013 0.87041 0.0
N1498 N 0.17962 0.84963 0.95994 0.0
N1499 N 0.19663 0.83935 0.74272 0.0
C1500 C 0.18104 0.84621 0.90575 0.0
C1501 C 0.19021 0.84113 0.79507 0.0
N1502 N 0.16336 0.79536 0.91699 0.0
N1503 N 0.19698 0.88855 0.78023 0.0
H1504 H 0.19082 0.82006 0.72398 0.0
H1505 H 0.20871 0.85716 0.71842 0.0
H1506 H 0.19842 0.90772 0.79274 0.0
H1507 H 0.19574 0.88631 0.73863 0.0
H1508 H 0.15465 0.79435 0.95485 0.0
H1509 H 0.16145 0.77591 0.90534 0.0
H1510 H 0.17677 0.8343 0.98842 0.0
H1511 H 0.18368 0.86875 0.97777 0.0
C1512 C 0.15744 0.32729 0.80954 0.0
C1513 C 0.15716 0.31186 0.85558 0.0
C1514 C 0.2076 0.34636 0.87286 0.0
C1515 C 0.20822 0.36293 0.82824 0.0
N1516 N 0.18206 0.36953 0.75452 0.0
N1517 N 0.18709 0.29842 0.90639 0.0
C1518 C 0.1827 0.35358 0.79658 0.0
C1519 C 0.18363 0.31883 0.88047 0.0
N1520 N 0.13478 0.31491 0.77465 0.0
N1521 N 0.22944 0.35718 0.90946 0.0
H1522 H 0.1723 0.27663 0.90305 0.0
H1523 H 0.20676 0.30248 0.92218 0.0
H1524 H 0.24669 0.37808 0.90751 0.0
H1525 H 0.22846 0.34656 0.94513 0.0
H1526 H 0.13435 0.32332 0.73728 0.0
H1527 H 0.11784 0.29401 0.7797 0.0
H1528 H 0.1631 0.36654 0.73728 0.0
H1529 H 0.19994 0.38666 0.73746 0.0
C1530 C 0.86688 0.70654 0.70322 0.0
C1531 C 0.84546 0.69869 0.66328 0.0
C1532 C 0.84144 0.65145 0.6555 0.0
C1533 C 0.86111 0.65842 0.69856 0.0
N1534 N 0.88593 0.68972 0.77298 0.0
N1535 N 0.80813 0.6619 0.60883 0.0
C1536 C 0.87228 0.6853 0.72484 0.0
C1537 C 0.83134 0.67054 0.6418 0.0
N1538 N 0.88174 0.73416 0.72138 0.0
N1539 N 0.83299 0.62685 0.62683 0.0
H1540 H 0.80051 0.67544 0.59673 0.0
H1541 H 0.79517 0.64076 0.5965 0.0
H1542 H 0.8403 0.61259 0.6354 0.0
H1543 H 0.82094 0.62192 0.5917 0.0
H1544 H 0.89999 0.74179 0.7454 0.0
H1545 H 0.87681 0.74988 0.71013 0.0
H1546 H 0.892 0.70776 0.79679 0.0
H1547 H 0.88808 0.67375 0.79198 0.0
C1548 C 0.35821 0.16268 0.63525 0.0
C1549 C 0.33153 0.14719 0.66274 0.0
C1550 C 0.34844 0.18461 0.7309 0.0
C1551 C 0.37265 0.20235 0.69862 0.0
N1552 N 0.40028 0.20913 0.61814 0.0
N1553 N 0.29959 0.14544 0.73307 0.0
C1554 C 0.37753 0.19159 0.6502 0.0
C1555 C 0.32606 0.15885 0.70928 0.0
N1556 N 0.36522 0.14976 0.59542 0.0
N1557 N 0.34776 0.19117 0.78359 0.0
H1558 H 0.28274 0.12604 0.71938 0.0
H1559 H 0.29385 0.1548 0.76381 0.0
H1560 H 0.36524 0.20826 0.80215 0.0
H1561 H 0.33165 0.17764 0.81016 0.0
H1562 H 0.3855 0.15901 0.57775 0.0
H1563 H 0.35147 0.12882 0.58274 0.0
H1564 H 0.40334 0.20345 0.57974 0.0
H1565 H 0.41491 0.23032 0.62834 0.0
C1566 C 0.85611 0.17698 0.61996 0.0
C1567 C 0.87799 0.18084 0.65687 0.0
C1568 C 0.84379 0.1661 0.73035 0.0
C1569 C 0.82291 0.1659 0.69507 0.0
N1570 N 0.81061 0.17546 0.6073 0.0
N1571 N 0.894 0.18316 0.74813 0.0
C1572 C 0.82936 0.1724 0.63998 0.0
C1573 C 0.87233 0.17699 0.71243 0.0
N1574 N 0.86067 0.17734 0.56588 0.0
N1575 N 0.83587 0.15388 0.77984 0.0
H1576 H 0.91511 0.18995 0.73643 0.0
H1577 H 0.89147 0.18373 0.78954 0.0
H1578 H 0.81462 0.14329 0.79205 0.0
H1579 H 0.84948 0.15086 0.80543 0.0
H1580 H 0.84443 0.17142 0.53753 0.0
H1581 H 0.88019 0.18153 0.54925 0.0
H1582 H 0.81573 0.18347 0.56832 0.0
H1583 H 0.79074 0.17222 0.62042 0.0
C1584 C 0.99068 0.49736 0.53528 0.0
C1585 C 0.99967 0.52088 0.49969 0.0
C1586 C 0.04638 0.52363 0.48833 0.0
C1587 C 0.03718 0.49992 0.5236 0.0
N1588 N 0.99917 0.46072 0.57287 0.0
N1589 N 0.03668 0.55866 0.44617 0.0
C1590 C 1.00885 0.48564 0.54461 0.0
C1591 C 0.02778 0.53479 0.47741 0.0
N1592 N 0.96514 0.48721 0.56213 0.0
N1593 N 0.07255 0.53444 0.46353 0.0
H1594 H 0.02343 0.56684 0.43555 0.0
H1595 H 0.05761 0.57147 0.43251 0.0
H1596 H 0.0859 0.52569 0.46912 0.0
H1597 H 0.08037 0.55044 0.4345 0.0
H1598 H 0.95825 0.47194 0.59252 0.0
H1599 H 0.95192 0.49618 0.55757 0.0
H1600 H 0.9778 0.44755 0.58396 0.0
H1601 H 1.01197 0.45184 0.58211 0.0
C1602 C 0.52561 0.53556 0.47626 0.0
C1603 C 0.52536 0.53908 0.53249 0.0
C1604 C 0.50844 0.48784 0.54635 0.0
C1605 C 0.51111 0.48485 0.49059 0.0
N1606 N 0.52417 0.50595 0.40187 0.0
N1607 N 0.52084 0.51995 0.62185 0.0
C1608 C 0.52034 0.50877 0.45537 0.0
C1609 C 0.51774 0.51553 0.56772 0.0
N1610 N 0.52954 0.55739 0.4428 0.0
N1611 N 0.4972 0.46428 0.57907 0.0
H1612 H 0.52784 0.53991 0.63888 0.0
H1613 H 0.51907 0.50465 0.6495 0.0
H1614 H 0.49188 0.44387 0.56574 0.0
H1615 H 0.49124 0.46449 0.61882 0.0
H1616 H 0.52651 0.55514 0.40143 0.0
H1617 H 0.53381 0.57741 0.45677 0.0
H1618 H 0.53448 0.52322 0.37564 0.0
H1619 H 0.51827 0.48637 0.38376 0.0
C1620 C 0.53891 0.03425 0.54525 0.0
C1621 C 0.54454 0.03266 0.4903 0.0
C1622 C 0.49429 0.99504 0.47728 0.0
C1623 C 0.49003 0.99374 0.53346 0.0
N1624 N 0.51056 1.00888 0.62237 0.0
N1625 N 0.52901 1.00736 0.4062 0.0
C1626 C 0.51299 0.01237 0.56796 0.0
C1627 C 0.52252 0.01209 0.4567 0.0
N1628 N 0.55769 0.0572 0.57539 0.0
N1629 N 0.47169 0.9794 0.4436 0.0
H1630 H 0.5499 0.01785 0.3918 0.0
H1631 H 0.51461 0.99081 0.38145 0.0
H1632 H 0.45088 0.9656 0.45723 0.0
H1633 H 0.47315 0.98196 0.40203 0.0
H1634 H 0.55316 0.06082 0.6144 0.0
H1635 H 0.57635 0.07423 0.55942 0.0
H1636 H 0.5278 0.01991 0.6485 0.0
H1637 H 0.49207 0.99335 0.64129 0.0
C1638 C 0.51542 1.00874 0.06761 0.0
C1639 C 0.51941 0.98984 0.03338 0.0
C1640 C 0.51084 0.01171 0.95515 0.0
C1641 C 0.50457 0.02909 0.98967 0.0
N1642 N 0.4959 0.04041 0.07914 0.0
N1643 N 0.51353 0.96836 0.94592 0.0
C1644 C 0.50483 0.02608 0.04605 0.0
C1645 C 0.51494 0.98983 0.97752 0.0
N1646 N 0.5238 0.01173 0.11999 0.0
N1647 N 0.51373 0.01645 0.90104 0.0
H1648 H 0.51603 0.95163 0.96085 0.0
H1649 H 0.50702 0.96555 0.9059 0.0
H1650 H 0.51009 0.03146 0.88194 0.0
H1651 H 0.52181 1.00683 0.87538 0.0
H1652 H 0.52418 0.02718 0.14573 0.0
H1653 H 0.53359 1.00094 0.13589 0.0
H1654 H 0.49269 0.03647 0.12025 0.0
H1655 H 0.48944 0.05457 0.06518 0.0
C1656 C 1.01181 0.50433 0.95758 0.0
C1657 C 0.99655 0.4806 0.99322 0.0
C1658 C 0.01882 0.51223 0.07042 0.0
C1659 C 0.03381 0.53592 0.03482 0.0
N1660 N 0.04748 0.5546 0.94532 0.0
N1661 N 0.98228 0.46239 0.08302 0.0
C1662 C 0.03079 0.53205 0.97859 0.0
C1663 C 0.99944 0.4846 0.04952 0.0
N1664 N 1.00768 0.50041 0.90338 0.0
N1665 N 0.02373 0.51609 0.12444 0.0
H1666 H 0.96842 0.44166 0.06942 0.0
H1667 H 0.98029 0.4646 0.12407 0.0
H1668 H 0.03572 0.53618 0.14182 0.0
H1669 H 1.01706 0.49946 0.15204 0.0
H1670 H 1.01441 0.51691 0.87553 0.0
H1671 H 0.99649 0.48031 0.88577 0.0
H1672 H 0.04951 0.5528 0.90417 0.0
H1673 H 0.06077 0.57541 0.95923 0.0
C1674 C 0.50612 0.53306 1.00121 0.0
C1675 C 0.48558 0.50458 0.01657 0.0
C1676 C 0.52363 0.49246 0.02345 0.0
C1677 C 0.54424 0.52057 1.00733 0.0
N1678 N 0.55577 0.56816 0.98059 0.0
N1679 N 0.474 0.45506 0.01987 0.0
C1680 C 0.5357 0.54115 0.99634 0.0
C1681 C 0.49399 0.48356 0.021 0.0
N1682 N 0.49691 0.55217 0.9912 0.0
N1683 N 0.53261 0.47431 0.04194 0.0
H1684 H 0.45233 0.44741 1.01225 0.0
H1685 H 0.47942 0.43898 0.01886 0.0
H1686 H 0.55435 0.48058 0.04547 0.0
H1687 H 0.51877 0.45445 0.05914 0.0
H1688 H 0.51035 0.57405 0.98546 0.0
H1689 H 0.47511 0.54577 0.98836 0.0
H1690 H 0.55101 0.58333 0.96556 0.0
H1691 H 0.57774 0.57581 0.98325 0.0
C1692 C 0.32321 0.21862 0.91006 0.0
C1693 C 0.32588 0.21709 0.96651 0.0
C1694 C 0.37906 0.24014 0.95273 0.0
C1695 C 0.37648 0.24572 0.8979 0.0
N1696 N 0.34472 0.24248 0.82631 0.0
N1697 N 0.35838 0.23083 0.04206 0.0
C1698 C 0.34812 0.23539 0.8772 0.0
C1699 C 0.35435 0.22865 0.98791 0.0
N1700 N 0.29655 0.20376 0.88742 0.0
N1701 N 0.40532 0.24602 0.97159 0.0
H1702 H 0.34156 0.22306 0.06938 0.0
H1703 H 0.37855 0.2425 0.05972 0.0
H1704 H 0.42362 0.25474 0.94726 0.0
H1705 H 0.40835 0.23976 1.00948 0.0
H1706 H 0.29318 0.20139 0.84609 0.0
H1707 H 0.27805 0.19127 0.91012 0.0
H1708 H 0.32526 0.23938 0.81135 0.0
H1709 H 0.36183 0.2527 0.79985 0.0
C1710 C 0.77498 0.09188 0.9485 0.0
C1711 C 0.80456 0.1068 0.96276 0.0
C1712 C 0.8104 0.14795 0.90792 0.0
C1713 C 0.78042 0.13326 0.8963 0.0
N1714 N 0.73345 0.09405 0.91591 0.0
N1715 N 0.85144 0.14742 0.95019 0.0
C1716 C 0.76258 0.10612 0.92018 0.0
C1717 C 0.82259 0.13452 0.94076 0.0
N1718 N 0.75896 0.06338 0.96031 0.0
N1719 N 0.8269 0.175 0.88801 0.0
H1720 H 0.86034 0.13725 0.97224 0.0
H1721 H 0.8666 0.16729 0.93507 0.0
H1722 H 0.81795 0.18506 0.8658 0.0
H1723 H 0.84881 0.18787 0.89481 0.0
H1724 H 0.73781 0.05033 0.94784 0.0
H1725 H 0.76823 0.05218 0.97711 0.0
H1726 H 0.71885 0.0755 0.93617 0.0
H1727 H 0.72401 0.10445 0.8964 0.0
C1728 C 0.91551 0.67573 0.89068 0.0
C1729 C 0.88844 0.65025 0.89978 0.0
C1730 C 0.8804 0.67568 0.97522 0.0
C1731 C 0.90926 0.69895 0.97165 0.0
N1732 N 0.955 0.7198 0.92645 0.0
N1733 N 0.84552 0.62604 0.95299 0.0
C1734 C 0.92679 0.69883 0.92887 0.0
C1735 C 0.87083 0.65048 0.94228 0.0
N1736 N 0.93053 0.67811 0.84482 0.0
N1737 N 0.86215 0.67774 1.01089 0.0
H1738 H 0.83797 0.60766 0.92942 0.0
H1739 H 0.83295 0.62333 0.98678 0.0
H1740 H 0.86852 0.69596 0.03451 0.0
H1741 H 0.8403 0.66291 1.01354 0.0
H1742 H 0.94847 0.69711 0.83249 0.0
H1743 H 0.92339 0.66196 0.81609 0.0
H1744 H 0.9701 0.71865 0.90178 0.0
H1745 H 0.96381 0.73777 0.9512 0.0
C1746 C 0.25539 0.33416 0.58249 0.0
C1747 C 0.22635 0.31979 0.5651 0.0
C1748 C 0.219 0.35493 0.6177 0.0
C1749 C 0.24856 0.37004 0.63249 0.0
N1750 N 0.29603 0.37796 0.61602 0.0
N1751 N 0.17905 0.31322 0.57415 0.0
C1752 C 0.26702 0.36074 0.61083 0.0
C1753 C 0.2077 0.32934 0.58506 0.0
N1754 N 0.27154 0.32137 0.57409 0.0
N1755 N 0.20227 0.36624 0.63266 0.0
H1756 H 0.17075 0.29415 0.55233 0.0
H1757 H 0.16343 0.3175 0.58887 0.0
H1758 H 0.21129 0.38632 0.65097 0.0
H1759 H 0.18068 0.35752 0.62295 0.0
H1760 H 0.29223 0.3293 0.58914 0.0
H1761 H 0.26252 0.30076 0.5581 0.0
H1762 H 0.31098 0.37374 0.59762 0.0
H1763 H 0.30499 0.39824 0.63344 0.0
C1764 C 0.65496 0.87112 0.58179 0.0
C1765 C 0.65729 0.88538 0.63106 0.0
C1766 C 0.7085 0.92004 0.60889 0.0
C1767 C 0.70608 0.90605 0.55917 0.0
N1768 N 0.67928 0.86349 0.50616 0.0
N1769 N 0.68964 0.9171 0.69859 0.0
C1770 C 0.67998 0.87995 0.54854 0.0
C1771 C 0.68514 0.90786 0.64672 0.0
N1772 N 0.62861 0.8497 0.56578 0.0
N1773 N 0.7324 0.9458 0.61927 0.0
H1774 H 0.67372 0.90755 0.72758 0.0
H1775 H 0.70982 0.93143 0.71407 0.0
H1776 H 0.75045 0.95477 0.59453 0.0
H1777 H 0.73367 0.95896 0.6511 0.0
H1778 H 0.62452 0.84058 0.52763 0.0
H1779 H 0.61035 0.84213 0.59001 0.0
H1780 H 0.66201 0.84323 0.49788 0.0
H1781 H 0.69737 0.86904 0.48248 0.0
C1782 C 0.1487 0.81969 0.58436 0.0
C1783 C 0.11992 0.80308 0.56589 0.0
C1784 C 0.11715 0.76079 0.61146 0.0
C1785 C 0.14564 0.77749 0.63115 0.0
N1786 N 0.19104 0.82033 0.62179 0.0
N1787 N 0.07494 0.7592 0.57199 0.0
C1788 C 0.16208 0.80638 0.61375 0.0
C1789 C 0.1037 0.77399 0.58255 0.0
N1790 N 0.16273 0.84856 0.57596 0.0
N1791 N 0.10357 0.73178 0.61794 0.0
H1792 H 0.06457 0.76881 0.55299 0.0
H1793 H 0.061 0.73882 0.58695 0.0
H1794 H 0.11414 0.72177 0.63456 0.0
H1795 H 0.08366 0.7176 0.60134 0.0
H1796 H 0.18283 0.86261 0.59206 0.0
H1797 H 0.1528 0.85855 0.55662 0.0
H1798 H 0.20509 0.8406 0.60645 0.0
H1799 H 0.2011 0.81002 0.63945 0.0
C1800 C 0.67793 0.80705 0.1349 0.0
C1801 C 0.66133 0.77706 0.14588 0.0
C1802 C 0.695 0.76985 0.08892 0.0
C1803 C 0.70947 0.79908 0.07253 0.0
N1804 N 0.71312 0.84532 0.07742 0.0
N1805 N 0.6517 0.72945 0.12503 0.0
C1806 C 0.70049 0.81766 0.09503 0.0
C1807 C 0.66916 0.7584 0.12002 0.0
N1808 N 0.67256 0.8255 0.1636 0.0
N1809 N 0.70662 0.75311 0.07577 0.0
H1810 H 0.63253 0.72039 0.14679 0.0
H1811 H 0.65464 0.71457 0.10322 0.0
H1812 H 0.72616 0.76129 0.0554 0.0
H1813 H 0.69874 0.73232 0.09002 0.0
H1814 H 0.68575 0.84768 0.16248 0.0
H1815 H 0.65544 0.81836 0.1906 0.0
H1816 H 0.7056 0.85926 0.08717 0.0
H1817 H 0.73043 0.8538 0.05067 0.0
C1818 C 0.2224 0.90479 0.11227 0.0
C1819 C 0.22443 0.90322 0.05586 0.0
C1820 C 0.24493 0.87112 0.07111 0.0
C1821 C 0.24848 0.8777 0.12664 0.0
N1822 N 0.24539 0.90714 0.19691 0.0
N1823 N 0.24267 0.88766 0.98195 0.0
C1824 C 0.23795 0.89579 0.14672 0.0
C1825 C 0.23668 0.88673 0.03544 0.0
N1826 N 0.2071 0.91658 0.13293 0.0
N1827 N 0.25033 0.85051 0.05189 0.0
H1828 H 0.23722 0.89865 0.95437 0.0
H1829 H 0.25467 0.8791 0.96564 0.0
H1830 H 0.25663 0.83907 0.07692 0.0
H1831 H 0.24571 0.8429 1.01258 0.0
H1832 H 0.20284 0.91639 0.17383 0.0
H1833 H 0.19628 0.92377 0.1082 0.0
H1834 H 0.24044 0.92221 0.21213 0.0
H1835 H 0.25972 0.90439 0.22039 0.0
C1836 C 0.15802 0.35882 0.10287 0.0
C1837 C 0.13796 0.36636 0.12368 0.0
C1838 C 0.09884 0.32324 0.0798 0.0
C1839 C 0.11883 0.31688 0.05481 0.0
N1840 N 0.16839 0.33154 0.03698 0.0
N1841 N 0.09049 0.35997 0.11754 0.0
C1842 C 0.14876 0.33561 0.06476 0.0
C1843 C 0.10876 0.34976 0.10751 0.0
N1844 N 0.18575 0.37334 0.12049 0.0
N1845 N 0.07015 0.3038 0.07752 0.0
H1846 H 0.09774 0.38005 0.13488 0.0
H1847 H 0.06953 0.35037 0.10296 0.0
H1848 H 0.06215 0.2838 0.05947 0.0
H1849 H 0.05469 0.30617 0.09871 0.0
H1850 H 0.20082 0.36706 0.11191 0.0
H1851 H 0.19314 0.39095 0.14616 0.0
H1852 H 0.19039 0.34602 0.03752 0.0
H1853 H 0.16233 0.31414 1.01123 0.0
C1854 C 0.79878 0.70386 0.40851 0.0
C1855 C 0.81349 0.70529 0.45668 0.0
C1856 C 0.80475 0.65616 0.43818 0.0
C1857 C 0.78849 0.65409 0.39162 0.0
N1858 N 0.77903 0.68015 0.32371 0.0
N1859 N 0.83897 0.68691 0.50638 0.0
C1860 C 0.78858 0.6794 0.37397 0.0
C1861 C 0.81931 0.68273 0.46777 0.0
N1862 N 0.79346 0.7256 0.39687 0.0
N1863 N 0.80541 0.63243 0.45533 0.0
H1864 H 0.85007 0.70631 0.52692 0.0
H1865 H 0.84615 0.67251 0.51415 0.0
H1866 H 0.79596 0.61333 0.43348 0.0
H1867 H 0.81412 0.63132 0.49198 0.0
H1868 H 0.77944 0.72444 0.36685 0.0
H1869 H 0.80237 0.74454 0.41919 0.0
H1870 H 0.78063 0.69848 0.30633 0.0
H1871 H 0.77198 0.66299 0.29745 0.0
C1872 C 0.34141 0.13566 0.46117 0.0
C1873 C 0.31925 0.10678 0.45115 0.0
C1874 C 0.34853 0.10517 0.37534 0.0
C1875 C 0.37255 0.13237 0.38983 0.0
N1876 N 0.39129 0.17359 0.44729 0.0
N1877 N 0.29758 0.07053 0.38333 0.0
C1878 C 0.36859 0.14778 0.43254 0.0
C1879 C 0.32175 0.0935 0.40374 0.0
N1880 N 0.33585 0.15226 0.49501 0.0
N1881 N 0.3514 0.08968 0.33491 0.0
H1882 H 0.27733 0.06276 0.40075 0.0
H1883 H 0.29676 0.06145 0.34597 0.0
H1884 H 0.36801 0.09876 0.30708 0.0
H1885 H 0.33745 0.06784 0.32939 0.0
H1886 H 0.34983 0.17403 0.50103 0.0
H1887 H 0.31577 0.14509 0.51238 0.0
H1888 H 0.39152 0.18466 0.48173 0.0
H1889 H 0.41068 0.18327 0.42613 0.0
C1890 C 0.92056 0.21017 0.40606 0.0
C1891 C 0.92394 0.21882 0.46038 0.0
C1892 C 0.90274 0.24982 0.43841 0.0
C1893 C 0.89937 0.24122 0.38344 0.0
N1894 N 0.90033 0.20807 0.31854 0.0
N1895 N 0.91193 0.24183 0.53067 0.0
C1896 C 0.90665 0.21967 0.36883 0.0
C1897 C 0.91293 0.23697 0.47716 0.0
N1898 N 0.932 0.19377 0.3891 0.0
N1899 N 0.89817 0.27161 0.4536 0.0
H1900 H 0.91911 0.23303 0.55966 0.0
H1901 H 0.90136 0.25197 0.54662 0.0
H1902 H 0.88955 0.28075 0.42838 0.0
H1903 H 0.90449 0.28189 0.49061 0.0
H1904 H 0.93443 0.19011 0.34887 0.0
H1905 H 0.9407 0.18504 0.41544 0.0
H1906 H 0.90086 0.18966 0.3076 0.0
H1907 H 0.89245 0.2155 0.28841 0.0
C1908 C 0.03811 0.55823 0.27597 0.0
C1909 C 0.03935 0.57233 0.22675 0.0
C1910 C 0.98699 0.55531 0.23698 0.0
C1911 C 0.98652 0.54373 0.28858 0.0
N1912 N 1.00839 0.52338 0.34416 0.0
N1913 N 1.0128 0.57926 0.15588 0.0
C1914 C 1.01113 0.54192 0.30429 0.0
C1915 C 1.01302 0.56905 0.20586 0.0
N1916 N 0.06295 0.5611 0.29664 0.0
N1917 N 0.96236 0.55401 0.21849 0.0
H1918 H 0.0314 0.5926 0.13482 0.0
H1919 H 0.9942 0.57351 0.13407 0.0
H1920 H 0.94244 0.54127 0.23685 0.0
H1921 H 0.96147 0.56567 0.186 0.0
H1922 H 0.06445 0.55433 0.33506 0.0
H1923 H 0.08251 0.57178 0.27614 0.0
H1924 H 0.02468 0.51919 0.35492 0.0
H1925 H 0.98858 0.50928 0.36135 0.0
C1926 C 0.48339 0.44871 0.23486 0.0
C1927 C 0.47902 0.44617 0.2913 0.0
C1928 C 0.45461 0.47513 0.28248 0.0
C1929 C 0.45432 0.4731 0.22574 0.0
N1930 N 0.46667 0.45444 0.14798 0.0
N1931 N 0.4554 0.45375 0.36715 0.0
C1932 C 0.46865 0.45933 0.20191 0.0
C1933 C 0.46363 0.45892 0.31472 0.0
N1934 N 0.50158 0.44073 0.21239 0.0
N1935 N 0.44573 0.49235 0.30592 0.0
H1936 H 0.45999 0.44092 0.39117 0.0
H1937 H 0.44151 0.45962 0.38501 0.0
H1938 H 0.43896 0.50427 0.2834 0.0
H1939 H 0.448 0.49712 0.34681 0.0
H1940 H 0.50814 0.44469 0.17239 0.0
H1941 H 0.51229 0.4327 0.23522 0.0
H1942 H 0.47307 0.44116 0.12944 0.0
H1943 H 0.45667 0.46185 0.12221 0.0
C1944 C 0.60691 0.02671 0.274 0.0
C1945 C 0.58963 0.03742 0.2959 0.0
C1946 C 0.54764 0.99908 0.24703 0.0
C1947 C 0.56492 0.98807 0.22621 0.0
N1948 N 0.60953 0.98787 0.22908 0.0
N1949 N 0.54494 0.03725 0.29569 0.0
C1950 C 0.59417 1.001 0.24249 0.0
C1951 C 0.5603 0.02447 0.28018 0.0
N1952 N 0.63593 0.04192 0.28213 0.0
N1953 N 0.51886 0.98446 0.2365 0.0
H1954 H 0.55418 0.056 0.31858 0.0
H1955 H 0.52405 0.03065 0.28335 0.0
H1956 H 0.50944 0.96566 0.21374 0.0
H1957 H 0.50414 0.9896 0.25281 0.0
H1958 H 0.65051 0.03712 0.26399 0.0
H1959 H 0.64573 0.06135 0.30286 0.0
H1960 H 0.63019 0.9944 0.2428 0.0
H1961 H 0.60028 0.96843 0.20845 0.0
C1962 C 0.46355 0.01341 0.70463 0.0
C1963 C 0.45189 0.98574 0.72909 0.0
C1964 C 0.46184 1.01034 0.81703 0.0
C1965 C 0.47782 0.03802 0.79259 0.0
N1966 N 0.49755 0.06448 0.71089 0.0
N1967 N 0.44497 0.95929 0.81083 0.0
C1968 C 0.48013 0.03897 0.73572 0.0
C1969 C 0.45306 0.98479 0.78597 0.0
N1970 N 0.4567 0.01572 0.65289 0.0
N1971 N 0.45247 1.00799 0.86869 0.0
H1972 H 0.43812 0.94028 0.78947 0.0
H1973 H 0.44779 0.95776 0.85187 0.0
H1974 H 0.45548 0.0256 0.8909 0.0
H1975 H 0.43868 0.9884 0.88687 0.0
H1976 H 0.46247 0.03529 0.63468 0.0
H1977 H 0.44234 0.99808 0.63051 0.0
H1978 H 0.50204 0.06602 0.66987 0.0
H1979 H 0.5096 0.08351 0.73225 0.0
C1980 C 0.0223 0.47505 0.71972 0.0
C1981 C 0.04771 0.47515 0.7371 0.0
C1982 C 0.02177 0.45198 0.82154 0.0
C1983 C 0.9948 0.44587 0.79886 0.0
N1984 N 0.97002 0.45239 0.72482 0.0
N1985 N 0.07221 0.46654 0.80913 0.0
C1986 C 0.99535 0.45788 0.74763 0.0
C1987 C 0.04753 0.46471 0.78969 0.0
N1988 N 0.02405 0.49253 0.6786 0.0
N1989 N 0.02302 0.44626 0.87442 0.0
H1990 H 0.09212 0.47871 0.79035 0.0
H1991 H 0.07289 0.45534 0.84265 0.0
H1992 H 1.00503 0.43753 0.89879 0.0
H1993 H 0.04203 0.45285 0.89551 0.0
H1994 H 1.00696 0.49533 0.66704 0.0
H1995 H 0.0436 0.50729 0.66138 0.0
H1996 H 0.9684 0.45763 0.68521 0.0
H1997 H 0.95039 0.44111 0.74491 0.0
C1998 C 0.53982 0.5519 0.76117 0.0
C1999 C 0.55826 0.57988 0.7404 0.0
C2000 C 0.59869 0.5809 0.78952 0.0
C2001 C 0.58031 0.55373 0.81317 0.0
N2002 N 0.5321 0.51507 0.82712 0.0
N2003 N 0.60263 0.62402 0.75067 0.0
C2004 C 0.55042 0.5397 0.80053 0.0
C2005 C 0.58689 0.59523 0.75968 0.0
N2006 N 0.51221 0.53701 0.74314 0.0
N2007 N 0.62773 0.59301 0.79528 0.0
H2008 H 0.59385 0.6351 0.73141 0.0
H2009 H 0.62276 0.63713 0.76768 0.0
H2010 H 0.63702 0.58236 0.81432 0.0
H2011 H 0.64248 0.61195 0.7763 0.0
H2012 H 0.49827 0.51546 0.7516 0.0
H2013 H 0.5037 0.54635 0.71782 0.0
H2014 H 0.50982 0.50522 0.82464 0.0
H2015 H 0.53946 0.50512 0.85362 0.0
C2016 C 0.20634 0.18813 0.31683 0.0
C2017 C 0.20191 0.21225 0.31414 0.0
C2018 C 0.2116 0.21413 0.21565 0.0
C2019 C 0.22018 0.19306 0.22045 0.0
N2020 N 0.22972 0.1633 0.2792 0.0
N2021 N 0.19904 0.24718 0.25774 0.0
C2022 C 0.21844 0.1809 0.27198 0.0
C2023 C 0.20464 0.22519 0.26267 0.0
N2024 N 0.19844 0.17133 0.36175 0.0
N2025 N 0.20761 0.22185 0.16556 0.0
H2026 H 0.18843 0.25211 0.28724 0.0
H2027 H 0.20509 0.26065 0.22442 0.0
H2028 H 0.20994 0.21237 0.13098 0.0
H2029 H 0.19887 0.23497 0.15813 0.0
H2030 H 0.19754 0.15155 0.36305 0.0
H2031 H 0.19094 0.17588 0.39676 0.0
H2032 H 0.23245 0.1566 0.31689 0.0
H2033 H 0.23906 0.15773 0.24818 0.0
C2034 C 0.85211 0.03395 0.26003 0.0
C2035 C 0.83188 0.02932 0.21875 0.0
C2036 C 0.79675 0.98515 0.26667 0.0
C2037 C 0.81518 0.99185 0.31207 0.0
N2038 N 0.86058 0.02618 0.35265 0.0
N2039 N 0.78239 1.00283 0.19042 0.0
C2040 C 0.84302 0.01712 0.30873 0.0
C2041 C 0.80343 1.0058 0.22479 0.0
N2042 N 0.88014 0.05476 0.25328 0.0
N2043 N 0.77386 0.95812 0.26072 0.0
H2044 H 0.78624 0.01717 0.15943 0.0
H2045 H 0.76072 0.98793 0.19632 0.0
H2046 H 0.77028 0.9412 0.28583 0.0
H2047 H 0.76112 0.95144 0.22635 0.0
H2048 H 0.89671 0.05678 0.27795 0.0
H2049 H 0.88721 0.06894 0.22094 0.0
H2050 H 0.87929 0.04604 0.35479 0.0
H2051 H 0.85536 0.01547 0.38923 0.0
C2052 C 0.98658 0.79053 0.275 0.0
C2053 C 0.99622 0.80539 0.22484 0.0
C2054 C 0.04369 0.83729 0.26847 0.0
C2055 C 0.03365 0.82324 0.31866 0.0
N2056 N 0.99316 0.79014 0.37166 0.0
N2057 N 0.03253 0.8488 0.18104 0.0
C2058 C 1.00445 0.80084 0.32225 0.0
C2059 C 0.02427 0.83052 0.22385 0.0
N2060 N 0.95985 0.76688 0.2786 0.0
N2061 N 0.07218 0.85704 0.26274 0.0
H2062 H 0.02072 0.84479 0.14596 0.0
H2063 H 0.05071 0.86914 0.18154 0.0
H2064 H 0.08677 0.86337 0.29444 0.0
H2065 H 0.08177 0.86537 0.22569 0.0
H2066 H 0.95354 0.75228 0.31018 0.0
H2067 H 0.9439 0.76144 0.24991 0.0
H2068 H 0.97138 0.77639 0.37884 0.0
H2069 H 1.00531 0.79713 0.40655 0.0
C2070 C 0.8498 0.83398 0.7438 0.0
C2071 C 0.83243 0.80616 0.72053 0.0
C2072 C 0.79881 0.79572 0.79741 0.0
C2073 C 0.81353 0.82481 0.81485 0.0
N2074 N 0.85054 0.8731 0.79371 0.0
N2075 N 0.78621 0.76238 0.7239 0.0
C2076 C 0.83829 0.84434 0.78485 0.0
C2077 C 0.80576 0.78763 0.74696 0.0
N2078 N 0.87807 0.85016 0.72973 0.0
N2079 N 0.77915 0.77506 0.83047 0.0
H2080 H 0.78974 0.75495 0.68798 0.0
H2081 H 0.76524 0.75017 0.73815 0.0
H2082 H 0.77525 0.77962 0.86903 0.0
H2083 H 0.76972 0.75321 0.82241 0.0
H2084 H 0.89207 0.86942 0.74869 0.0
H2085 H 0.88861 0.84259 0.70533 0.0
H2086 H 0.86689 0.88832 0.76949 0.0
H2087 H 0.84217 0.88184 0.82074 0.0
C2088 C 0.18672 0.97726 0.75507 0.0
C2089 C 0.20039 0.98706 0.80603 0.0
C2090 C 0.23155 0.03509 0.7641 0.0
C2091 C 0.21927 0.0248 0.71244 0.0
N2092 N 0.18681 0.98437 0.6585 0.0
N2093 N 0.2384 0.02546 0.85643 0.0
C2094 C 0.19712 0.99546 0.70817 0.0
C2095 C 0.22374 0.01589 0.80938 0.0
N2096 N 0.16364 0.95018 0.75102 0.0
N2097 N 0.24912 0.06389 0.77128 0.0
H2098 H 0.23154 0.0138 0.8917 0.0
H2099 H 0.25813 0.04425 0.85984 0.0
H2100 H 0.25397 0.07869 0.74057 0.0
H2101 H 0.25637 0.07355 0.80857 0.0
H2102 H 0.1498 0.943 0.71825 0.0
H2103 H 0.15745 0.93497 0.78148 0.0
H2104 H 0.17368 0.96263 0.65067 0.0
H2105 H 0.19304 0.99675 0.62388 0.0
C2106 C 0.03216 0.20627 0.71354 0.0
C2107 C 1.00148 0.19244 0.71537 0.0
C2108 C 1.00425 0.19283 0.81516 0.0
C2109 C 0.03493 0.20703 0.81331 0.0
N2110 N 0.07764 0.22248 0.76028 0.0
N2111 N 0.95831 0.16776 0.7682 0.0
C2112 C 0.04871 0.21256 0.76225 0.0
C2113 C 0.98758 0.18458 0.76638 0.0
N2114 N 0.04567 0.21387 0.66485 0.0
N2115 N 0.99089 0.18759 0.86393 0.0
H2116 H 0.94553 0.16089 0.73388 0.0
H2117 H 0.94665 0.15854 0.80309 0.0
H2118 H 1.0018 0.19049 0.89986 0.0
H2119 H 0.96932 0.18137 0.86918 0.0
H2120 H 0.06764 0.22755 0.65982 0.0
H2121 H 0.03462 0.20726 0.62875 0.0
H2122 H 0.08899 0.22433 0.7252 0.0
H2123 H 0.09026 0.22672 0.79457 0.0
C2124 C 0.88233 0.56648 0.60152 0.0
C2125 C 0.86962 0.54816 0.64658 0.0
C2126 C 0.882 0.51382 0.60415 0.0
C2127 C 0.89078 0.53007 0.5555 0.0
N2128 N 0.89319 0.56991 0.50649 0.0
N2129 N 0.85427 0.50213 0.68686 0.0
C2130 C 0.8896 0.55606 0.55408 0.0
C2131 C 0.86842 0.52111 0.64642 0.0
N2132 N 0.88727 0.59393 0.60343 0.0
N2133 N 0.88813 0.49229 0.61176 0.0
H2134 H 0.84507 0.50703 0.71898 0.0
H2135 H 0.84974 0.48092 0.68624 0.0
H2136 H 0.89974 0.4875 0.58415 0.0
H2137 H 0.88487 0.48155 0.64814 0.0
H2138 H 0.8994 0.60933 0.57465 0.0
H2139 H 0.88134 0.60199 0.63607 0.0
H2140 H 0.88972 0.58717 0.50153 0.0
H2141 H 0.89619 0.562 0.47068 0.0
C2142 C 0.46809 0.34515 0.56046 0.0
C2143 C 0.49768 0.36217 0.54659 0.0
C2144 C 0.50811 0.33822 0.62147 0.0
C2145 C 0.47909 0.32494 0.64102 0.0
N2146 N 0.43253 0.32175 0.62985 0.0
N2147 N 0.54648 0.37905 0.57504 0.0
C2148 C 0.45943 0.33007 0.6107 0.0
C2149 C 0.51784 0.35993 0.58043 0.0
N2150 N 0.44767 0.34203 0.52457 0.0
N2151 N 0.52626 0.32904 0.63893 0.0
H2152 H 0.5545 0.39608 0.54797 0.0
H2153 H 0.5618 0.38003 0.60198 0.0
H2154 H 0.51964 0.311 0.66286 0.0
H2155 H 0.54674 0.33661 0.62282 0.0
H2156 H 0.42627 0.3259 0.528 0.0
H2157 H 0.45275 0.35327 0.48879 0.0
H2158 H 0.41861 0.32725 0.61106 0.0
H2159 H 0.42491 0.31215 0.66684 0.0
C2160 C 0.68802 0.1721 0.55401 0.0
C2161 C 0.6667 0.14249 0.54556 0.0
C2162 C 0.68951 0.13077 0.62073 0.0
C2163 C 0.70711 0.16011 0.63511 0.0
N2164 N 0.72092 0.20919 0.61507 0.0
N2165 N 0.64318 0.0954 0.5873 0.0
C2166 C 0.70527 0.18081 0.60214 0.0
C2167 C 0.66634 0.12236 0.58354 0.0
N2168 N 0.69376 0.19211 0.51495 0.0
N2169 N 0.69467 0.1104 0.64177 0.0
H2170 H 0.62416 0.08881 0.56663 0.0
H2171 H 0.6412 0.08102 0.61732 0.0
H2172 H 0.71198 0.11519 0.6666 0.0
H2173 H 0.68388 0.0892 0.6286 0.0
H2174 H 0.71102 0.21297 0.51692 0.0
H2175 H 0.68442 0.18758 0.47722 0.0
H2176 H 0.71709 0.22466 0.59801 0.0
H2177 H 0.73697 0.21724 0.64414 0.0
C2178 C 0.51007 0.17398 0.12381 0.0
C2179 C 0.48084 0.15996 0.14214 0.0
C2180 C 0.47058 0.12132 0.07598 0.0
C2181 C 0.49865 0.13694 0.05345 0.0
N2182 N 0.54338 0.18169 0.05075 0.0
N2183 N 0.43201 0.12343 0.12254 0.0
C2184 C 0.51788 0.16428 0.07597 0.0
C2185 C 0.46079 0.13446 0.11461 0.0
N2186 N 0.53097 0.19583 0.1532 0.0
N2187 N 0.45336 0.0933 0.06219 0.0
H2188 H 0.42368 0.13351 0.14627 0.0
H2189 H 0.41644 0.1064 0.10016 0.0
H2190 H 0.46006 0.08279 0.03572 0.0
H2191 H 0.43402 0.07986 0.0817 0.0
H2192 H 0.55282 0.20457 0.14519 0.0
H2193 H 0.52691 0.20326 0.18881 0.0
H2194 H 0.55681 0.20303 0.06152 0.0
H2195 H 0.54977 0.17578 0.01573 0.0
C2196 C 0.87168 0.31561 0.09222 0.0
C2197 C 0.87248 0.32724 0.14429 0.0
C2198 C 0.89245 0.37542 0.10128 0.0
C2199 C 0.8898 0.36345 0.04911 0.0
N2200 N 0.87199 0.32095 0.99513 0.0
N2201 N 0.88144 0.36862 0.19681 0.0
C2202 C 0.87841 0.33326 0.04484 0.0
C2203 C 0.88209 0.35723 0.14812 0.0
N2204 N 0.86386 0.28736 0.08741 0.0
N2205 N 0.90623 0.40458 0.1065 0.0
H2206 H 0.8766 0.35715 0.23254 0.0
H2207 H 0.88415 0.38903 0.20166 0.0
H2208 H 0.91393 0.41848 0.07373 0.0
H2209 H 0.91227 0.41521 0.14319 0.0
H2210 H 0.86718 0.27859 0.05268 0.0
H2211 H 0.85505 0.27266 0.1187 0.0
H2212 H 0.86059 0.29894 0.98845 0.0
H2213 H 0.87568 0.33285 0.96026 0.0
C2214 C 0.70084 0.53046 0.10569 0.0
C2215 C 0.70181 0.5494 0.14729 0.0
C2216 C 0.65788 0.54648 0.10753 0.0
C2217 C 0.65634 0.5269 0.06773 0.0
N2218 N 0.67425 0.49716 0.03312 0.0
N2219 N 0.6879 0.58479 0.16806 0.0
C2220 C 0.67726 0.51804 0.06817 0.0
C2221 C 0.68208 0.55991 0.14307 0.0
N2222 N 0.7241 0.52693 0.09772 0.0
N2223 N 0.63563 0.5518 0.11266 0.0
H2224 H 0.7069 0.59774 0.18839 0.0
H2225 H 0.67637 0.59527 0.16051 0.0
H2226 H 0.61734 0.54179 0.08865 0.0
H2227 H 0.63387 0.56344 0.14447 0.0
H2228 H 0.72603 0.5155 0.06582 0.0
H2229 H 0.74349 0.5389 0.11778 0.0
H2230 H 0.68631 0.4869 0.03508 0.0
H2231 H 0.65781 0.48819 1.00474 0.0
C2232 C 0.53036 0.84448 0.91286 0.0
C2233 C 0.55737 0.86296 0.88773 0.0
C2234 C 0.56119 0.90254 0.94498 0.0
C2235 C 0.53439 0.8841 0.97085 0.0
N2236 N 0.48953 0.83969 0.9637 0.0
N2237 N 0.60292 0.90663 0.90001 0.0
C2238 C 0.51799 0.8556 0.95059 0.0
C2239 C 0.57406 0.89107 0.90952 0.0
N2240 N 0.51761 0.81558 0.90488 0.0
N2241 N 0.5737 0.93157 0.94995 0.0
H2242 H 0.61428 0.89933 0.87759 0.0
H2243 H 0.61634 0.92518 0.9215 0.0
H2244 H 0.56373 0.94161 0.96833 0.0
H2245 H 0.59181 0.94586 0.92804 0.0
H2246 H 0.49959 0.80066 0.92612 0.0
H2247 H 0.52738 0.80615 0.8833 0.0
H2248 H 0.47559 0.82003 0.94604 0.0
H2249 H 0.47882 0.84783 0.98618 0.0
C2250 C 0.14275 0.64461 0.92289 0.0
C2251 C 0.14711 0.65639 0.97554 0.0
C2252 C 0.16897 0.70501 0.93412 0.0
C2253 C 0.16647 0.69339 0.88154 0.0
N2254 N 0.15455 0.65158 0.82781 0.0
N2255 N 0.17015 0.69864 0.03053 0.0
C2256 C 0.15451 0.66305 0.8767 0.0
C2257 C 0.16153 0.68683 0.9808 0.0
N2258 N 0.12625 0.6156 0.91661 0.0
N2259 N 0.1792 0.73373 0.94002 0.0
H2260 H 0.16664 0.68619 0.06453 0.0
H2261 H 0.18338 0.72047 0.03751 0.0
H2262 H 0.18816 0.74836 0.90862 0.0
H2263 H 0.17761 0.74295 0.97572 0.0
H2264 H 0.11916 0.60563 0.8795 0.0
H2265 H 0.11745 0.60151 0.94893 0.0
H2266 H 0.14962 0.63044 0.82232 0.0
H2267 H 0.16165 0.66376 0.79299 0.0
C2268 C 0.37986 0.50875 0.92699 0.0
C2269 C 0.36996 0.49523 0.97768 0.0
C2270 C 0.3234 0.46119 0.93414 0.0
C2271 C 0.33268 0.47596 0.88386 0.0
N2272 N 0.3684 0.51952 0.83938 0.0
N2273 N 0.3291 0.46317 0.03103 0.0
C2274 C 0.36037 0.50149 0.88255 0.0
C2275 C 0.34096 0.47245 0.98145 0.0
N2276 N 0.40849 0.5277 0.91996 0.0
N2277 N 0.29712 0.43699 0.93814 0.0
H2278 H 0.3403 0.47269 0.06595 0.0
H2279 H 0.30738 0.44882 0.0377 0.0
H2280 H 0.28103 0.43083 0.90952 0.0
H2281 H 0.29139 0.42272 0.97019 0.0
H2282 H 0.41766 0.53581 0.88256 0.0
H2283 H 0.42364 0.53297 0.95036 0.0
H2284 H 0.38634 0.54003 0.8398 0.0
H2285 H 0.35664 0.51515 0.80416 0.0
C2286 C 0.16007 0.50921 0.42699 0.0
C2287 C 0.14397 0.4904 0.46989 0.0
C2288 C 0.14241 0.45112 0.41466 0.0
C2289 C 0.16342 0.4708 0.37737 0.0
N2290 N 0.19842 0.5213 0.36354 0.0
N2291 N 0.12791 0.44337 0.50771 0.0
C2292 C 0.17412 0.50063 0.38806 0.0
C2293 C 0.1375 0.46135 0.46468 0.0
N2294 N 0.16128 0.53501 0.42124 0.0
N2295 N 0.12597 0.4227 0.4028 0.0
H2296 H 0.12667 0.45027 0.5459 0.0
H2297 H 0.12522 0.42279 0.50671 0.0
H2298 H 0.12592 0.41392 0.36575 0.0
H2299 H 0.10913 0.4085 0.42746 0.0
H2300 H 0.17106 0.54831 0.38822 0.0
H2301 H 0.14913 0.54116 0.44449 0.0
H2302 H 0.2075 0.54296 0.3732 0.0
H2303 H 0.21199 0.51702 0.34049 0.0
C2304 C 0.52514 0.67433 0.39671 0.0
C2305 C 0.55316 0.69947 0.39272 0.0
C2306 C 0.56541 0.68533 0.48018 0.0
C2307 C 0.53805 0.65989 0.4826 0.0
N2308 N 0.49404 0.62774 0.43805 0.0
N2309 N 0.59758 0.73121 0.43819 0.0
C2310 C 0.51849 0.65398 0.43969 0.0
C2311 C 0.57256 0.70548 0.43671 0.0
N2312 N 0.50417 0.66974 0.36046 0.0
N2313 N 0.58441 0.69062 0.52083 0.0
H2314 H 0.60027 0.74913 0.41726 0.0
H2315 H 0.61514 0.73573 0.46226 0.0
H2316 H 0.58166 0.67481 0.54787 0.0
H2317 H 0.60305 0.71001 0.52771 0.0
H2318 H 0.48255 0.65482 0.36635 0.0
H2319 H 0.50735 0.6816 0.32583 0.0
H2320 H 0.48057 0.61997 0.40479 0.0
H2321 H 0.48865 0.61234 0.46801 0.0
C2322 C 0.36529 0.85737 0.45101 0.0
C2323 C 0.37484 0.8856 0.47034 0.0
C2324 C 0.34099 0.88872 0.40644 0.0
C2325 C 0.33382 0.86182 0.38241 0.0
N2326 N 0.34601 0.82418 0.37635 0.0
N2327 N 0.37693 0.93062 0.45425 0.0
C2328 C 0.34784 0.84713 0.40333 0.0
C2329 C 0.36413 0.90193 0.44446 0.0
N2330 N 0.3722 0.83978 0.47882 0.0
N2331 N 0.32486 0.90127 0.39556 0.0
H2332 H 0.3949 0.94116 0.47891 0.0
H2333 H 0.37195 0.94426 0.433 0.0
H2334 H 0.30651 0.89165 0.37182 0.0
H2335 H 0.32759 0.91947 0.4156 0.0
H2336 H 0.3632 0.81801 0.47041 0.0
H2337 H 0.38477 0.84626 0.51342 0.0
H2338 H 0.35815 0.81465 0.38655 0.0
H2339 H 0.33513 0.81669 0.34022 0.0
C2340 C 0.33867 0.33281 0.14881 0.0
C2341 C 0.33501 0.31496 0.10447 0.0
C2342 C 0.36193 0.35633 0.04611 0.0
C2343 C 0.36297 0.37394 0.08893 0.0
N2344 N 0.3507 0.38008 0.17972 0.0
N2345 N 0.33835 0.30867 1.00879 0.0
C2346 C 0.35089 0.36254 0.14003 0.0
C2347 C 0.34549 0.32634 0.0525 0.0
N2348 N 0.33123 0.32137 0.1993 0.0
N2349 N 0.3768 0.36826 0.99969 0.0
H2350 H 0.3257 0.28648 1.01111 0.0
H2351 H 0.34275 0.3161 0.96939 0.0
H2352 H 0.38846 0.39035 0.99323 0.0
H2353 H 0.37943 0.35643 0.96933 0.0
H2354 H 0.33624 0.33364 0.23412 0.0
H2355 H 0.32206 0.29947 0.2069 0.0
H2356 H 0.33928 0.37254 0.21547 0.0
H2357 H 0.36044 0.40226 0.17575 0.0
C2358 C 0.66881 0.01189 0.08406 0.0
C2359 C 0.65402 0.98224 0.07192 0.0
C2360 C 0.69777 0.97981 0.08434 0.0
C2361 C 0.7129 1.00979 0.09337 0.0
N2362 N 0.71461 0.05552 0.08636 0.0
N2363 N 0.65449 0.93893 0.04994 0.0
C2364 C 0.69901 0.02625 0.08887 0.0
C2365 C 0.66857 0.96647 0.0687 0.0
N2366 N 0.65405 0.0261 0.09359 0.0
N2367 N 0.71105 0.96404 0.09243 0.0
H2368 H 0.63305 0.9288 0.03763 0.0
H2369 H 0.66463 0.92712 0.04187 0.0
H2370 H 0.73243 0.97313 0.10458 0.0
H2371 H 0.70032 0.94174 0.09154 0.0
H2372 H 0.66371 0.04679 0.10927 0.0
H2373 H 0.63181 0.0166 0.08998 0.0
H2374 H 0.7055 0.06813 0.07701 0.0
H2375 H 0.73698 0.06717 0.08807 0.0
C2376 C 0.0394 0.71436 0.10767 0.0
C2377 C 1.00905 0.69944 0.1062 0.0
C2378 C 1.00765 0.65426 0.08783 0.0
C2379 C 0.03808 0.66937 0.08808 0.0
N2380 N 0.08313 0.71376 0.08604 0.0
N2381 N 0.96391 0.65689 0.08617 0.0
C2382 C 0.05405 0.69949 0.09432 0.0
C2383 C 0.99299 0.66983 0.09382 0.0
N2384 N 0.05405 0.74251 0.12302 0.0
N2385 N 0.99287 0.62504 0.08415 0.0
H2386 H 0.95219 0.66737 0.09216 0.0
H2387 H 0.95158 0.63631 0.07071 0.0
H2388 H 1.00283 0.61305 0.07616 0.0
H2389 H 0.97089 0.61252 0.09128 0.0
H2390 H 0.0761 0.75387 0.12996 0.0
H2391 H 0.04378 0.75403 0.13308 0.0
H2392 H 0.09578 0.73599 0.08526 0.0
H2393 H 0.09431 0.7033 0.0748 0.0
C2394 C 0.36592 0.33274 0.46738 0.0
C2395 C 0.38166 0.35441 0.42955 0.0
C2396 C 0.33794 0.34181 0.37934 0.0
C2397 C 0.3228 0.31824 0.41459 0.0
N2398 N 0.32376 0.28674 0.48257 0.0
N2399 N 0.38439 0.37753 0.34486 0.0
C2400 C 0.33729 0.31226 0.45561 0.0
C2401 C 0.36823 0.35839 0.38398 0.0
N2402 N 0.37808 0.3324 0.5153 0.0
N2403 N 0.32352 0.34935 0.34368 0.0
H2404 H 0.40657 0.39096 0.34802 0.0
H2405 H 0.37603 0.37881 0.30789 0.0
H2406 H 0.30135 0.33766 0.33838 0.0
H2407 H 0.33339 0.36838 0.32182 0.0
H2408 H 0.3667 0.31821 0.54629 0.0
H2409 H 0.3986 0.34858 0.52613 0.0
H2410 H 0.33424 0.28048 0.50998 0.0
H2411 H 0.30298 0.27058 0.47302 0.0
C2412 C 0.70232 0.01055 0.4827 0.0
C2413 C 0.72141 0.0181 0.43833 0.0
C2414 C 0.71696 0.06026 0.4224 0.0
C2415 C 0.69286 0.04865 0.45726 0.0
N2416 N 0.66212 0.01267 0.52145 0.0
N2417 N 0.74804 0.05057 0.36627 0.0
C2418 C 0.68569 0.02411 0.48866 0.0
C2419 C 0.72957 0.04343 0.40881 0.0
N2420 N 0.70072 0.99111 0.51987 0.0
N2421 N 0.72758 0.08735 0.4025 0.0
H2422 H 0.75776 0.03868 0.35526 0.0
H2423 H 0.75223 0.06715 0.3397 0.0
H2424 H 0.71896 0.10029 0.41328 0.0
H2425 H 0.74648 0.09793 0.38018 0.0
H2426 H 0.6889 0.98667 0.55532 0.0
H2427 H 0.71378 0.98185 0.51839 0.0
H2428 H 0.6538 0.99258 0.53933 0.0
H2429 H 0.64985 0.02243 0.5285 0.0
C2430 C 1.01356 0.69671 0.46805 0.0
C2431 C 0.02347 0.70931 0.4168 0.0
C2432 C 1.00199 0.66223 0.37534 0.0
C2433 C 0.99623 0.64991 0.42755 0.0
N2434 N 0.99809 0.6548 0.52398 0.0
N2435 N 0.02889 0.70513 0.32173 0.0
C2436 C 1.00217 0.66692 0.47411 0.0
C2437 C 0.01799 0.6924 0.37024 0.0
N2438 N 1.01444 0.71321 0.51053 0.0
N2439 N 0.99119 0.64517 0.33094 0.0
H2440 H 0.03991 0.72731 0.31645 0.0
H2441 H 0.02855 0.69382 0.28751 0.0
H2442 H 0.97853 0.62292 0.33303 0.0
H2443 H 0.99239 0.65316 0.29236 0.0
H2444 H 1.00486 0.70483 0.54754 0.0
H2445 H 0.02242 0.73518 0.50719 0.0
H2446 H 1.00519 0.6667 0.55928 0.0
H2447 H 0.98961 0.63286 0.52999 0.0
C2448 C 0.66981 0.66259 0.95903 0.0
C2449 C 0.68482 0.64724 0.95544 0.0
C2450 C 0.7295 0.69093 0.93383 0.0
C2451 C 0.71465 0.70642 0.93889 0.0
N2452 N 0.67296 0.70866 0.96943 0.0
N2453 N 0.72904 0.64617 0.94937 0.0
C2454 C 0.68544 0.69278 0.95526 0.0
C2455 C 0.71479 0.66127 0.94598 0.0
N2456 N 0.64049 0.64827 0.96354 0.0
N2457 N 0.75727 0.70439 0.91567 0.0
H2458 H 0.71862 0.62434 0.95852 0.0
H2459 H 0.75131 0.65554 0.94771 0.0
H2460 H 0.76878 0.72622 0.90676 0.0
H2461 H 0.76834 0.69371 0.90577 0.0
H2462 H 0.62815 0.65817 0.95916 0.0
H2463 H 0.62819 0.6261 0.96808 0.0
H2464 H 0.65287 0.69993 0.98776 0.0
H2465 H 0.68361 0.73096 0.96757 0.0
C2466 C 0.33465 0.0201 0.95909 0.0
C2467 C 0.32154 1.00773 0.90912 0.0
C2468 C 0.36798 0.01934 0.8719 0.0
C2469 C 0.38127 0.03586 0.91849 0.0
N2470 N 0.37762 0.0561 1.00281 0.0
N2471 N 0.32554 0.99791 0.81595 0.0
C2472 C 0.36478 0.03737 0.96128 0.0
C2473 C 0.33812 1.00791 0.86486 0.0
N2474 N 0.31866 0.01425 1.00503 0.0
N2475 N 0.38368 0.01372 0.83554 0.0
H2476 H 0.30357 0.98941 0.80941 0.0
H2477 H 0.33725 1.00033 0.78099 0.0
H2478 H 0.40547 0.02067 0.84063 0.0
H2479 H 0.37449 0.99962 0.80343 0.0
H2480 H 0.32784 0.02063 0.04298 0.0
H2481 H 0.29656 1.0003 1.00648 0.0
H2482 H 0.36605 0.06001 0.032 0.0
H2483 H 0.39975 0.06978 1.00533 0.0
C2484 C 0.98612 0.32142 0.96554 0.0
C2485 C 0.99387 0.34515 0.93138 0.0
C2486 C 0.02863 0.33608 0.88472 0.0
C2487 C 0.01942 0.31122 0.91655 0.0
N2488 N 0.98411 0.27584 0.97633 0.0
N2489 N 1.01578 0.36956 0.84783 0.0
C2490 C 0.99646 0.3025 0.95362 0.0
C2491 C 1.01317 0.35097 0.88777 0.0
N2492 N 0.96972 0.31748 1.01027 0.0
N2493 N 0.05283 0.34645 0.85372 0.0
H2494 H 1.00386 0.38001 0.84656 0.0
H2495 H 0.02742 0.37212 0.81269 0.0
H2496 H 0.06514 0.33648 0.85031 0.0
H2497 H 0.06207 0.36636 0.83482 0.0
H2498 H 0.96594 0.30212 0.03944 0.0
H2499 H 0.96216 0.33131 0.0209 0.0
H2500 H 0.96571 0.26748 1.0002 0.0
H2501 H 0.99035 0.26088 0.96642 0.0
C2502 C 0.70365 0.71069 0.5592 0.0
C2503 C 0.71681 0.70814 0.60691 0.0
C2504 C 0.67057 0.66993 0.63825 0.0
C2505 C 0.65691 0.67616 0.596 0.0
N2506 N 0.66 0.70409 0.51787 0.0
N2507 N 0.71222 0.6879 0.69542 0.0
C2508 C 0.67328 0.69699 0.55677 0.0
C2509 C 0.70012 0.68849 0.64753 0.0
N2510 N 0.71983 0.72442 0.51495 0.0
N2511 N 0.65569 0.64535 0.66755 0.0
H2512 H 0.73389 0.70144 0.70415 0.0
H2513 H 0.70014 0.67586 0.72821 0.0
H2514 H 0.63439 0.63009 0.65929 0.0
H2515 H 0.66552 0.63847 0.69517 0.0
H2516 H 0.71087 0.72427 0.47777 0.0
H2517 H 0.74203 0.73316 0.51312 0.0
H2518 H 0.67104 0.72155 0.49224 0.0
H2519 H 0.63776 0.69374 0.51355 0.0
C2520 C 0.36601 0.01084 0.56213 0.0
C2521 C 0.35625 0.9857 0.59325 0.0
C2522 C 0.3197 0.99341 0.63533 0.0
C2523 C 0.32764 0.01699 0.60067 0.0
N2524 N 0.35247 0.04258 0.51975 0.0
N2525 N 0.31877 0.94851 0.64742 0.0
C2526 C 0.34914 0.02425 0.56072 0.0
C2527 C 0.33152 0.97555 0.62626 0.0
N2528 N 0.39179 0.02265 0.53577 0.0
N2529 N 0.30169 0.98859 0.67789 0.0
H2530 H 0.3259 0.93407 0.63913 0.0
H2531 H 0.29923 0.9393 0.66791 0.0
H2532 H 0.29352 1.00203 0.68744 0.0
H2533 H 0.29729 0.97298 0.70689 0.0
H2534 H 0.40102 0.04269 0.51735 0.0
H2535 H 0.40523 0.01384 0.53646 0.0
H2536 H 0.36615 0.04623 0.48724 0.0
H2537 H 0.33931 0.0515 0.51455 0.0
C2538 C 1.01145 0.35331 0.56633 0.0
C2539 C 0.03185 0.37084 0.6049 0.0
C2540 C 0.0215 0.32922 0.65994 0.0
C2541 C 1.00386 0.31152 0.61802 0.0
N2542 N 0.98525 0.3062 0.52738 0.0
N2543 N 0.05752 0.37688 0.68798 0.0
C2544 C 0.99936 0.32333 0.57031 0.0
C2545 C 0.03723 0.35923 0.65175 0.0
N2546 N 1.00373 0.36534 0.52592 0.0
N2547 N 0.02248 0.31733 0.70787 0.0
H2548 H 0.06827 0.39918 0.68516 0.0
H2549 H 0.06481 0.36953 0.71954 0.0
H2550 H 1.01111 0.29528 0.71493 0.0
H2551 H 0.03261 0.32922 0.74203 0.0
H2552 H 0.98655 0.35349 0.50013 0.0
H2553 H 1.01294 0.38744 0.5209 0.0
H2554 H 0.98429 0.3141 0.48974 0.0
H2555 H 0.97667 0.28412 0.52727 0.0
C2556 C 1.00511 0.67053 0.81506 0.0
C2557 C 0.98997 0.65126 0.77265 0.0
C2558 C 0.03449 0.65562 0.73868 0.0
C2559 C 0.0499 0.67799 0.77613 0.0
N2560 N 0.05003 0.71118 0.84212 0.0
N2561 N 0.98999 0.62747 0.69036 0.0
C2562 C 0.03537 0.68663 0.81256 0.0
C2563 C 1.00459 0.64457 0.73297 0.0
N2564 N 0.99079 0.67352 0.85782 0.0
N2565 N 0.04818 0.64406 0.71047 0.0
H2566 H 0.96775 0.6178 0.68606 0.0
H2567 H 1.00021 0.6246 0.65726 0.0
H2568 H 0.06984 0.65051 0.71594 0.0
H2569 H 0.03746 0.62601 0.68615 0.0
H2570 H 1.00119 0.68497 0.89229 0.0
H2571 H 0.96852 0.66258 0.86123 0.0
H2572 H 0.03981 0.71985 0.86465 0.0
H2573 H 0.07219 0.72468 0.83999 0.0
C2574 C 0.35382 0.33057 0.79439 0.0
C2575 C 0.37493 0.33888 0.75329 0.0
C2576 C 0.37217 0.38208 0.73709 0.0
C2577 C 0.34771 0.3711 0.771 0.0
N2578 N 0.31243 0.3327 0.82635 0.0
N2579 N 0.40256 0.37122 0.68169 0.0
C2580 C 0.33775 0.34481 0.79843 0.0
C2581 C 0.38377 0.36436 0.72364 0.0
N2582 N 0.35016 0.31032 0.83153 0.0
N2583 N 0.38473 0.40972 0.71901 0.0
H2584 H 0.41148 0.35866 0.67052 0.0
H2585 H 0.40732 0.38796 0.65513 0.0
H2586 H 0.37735 0.42367 0.72993 0.0
H2587 H 0.40415 0.4197 0.69814 0.0
H2588 H 0.33688 0.3056 0.86504 0.0
H2589 H 0.36283 0.30069 0.83274 0.0
H2590 H 0.30276 0.31192 0.84167 0.0
H2591 H 0.29979 0.34229 0.83045 0.0
C2592 C 0.67588 0.02185 0.71193 0.0
C2593 C 0.68011 0.04045 0.75536 0.0
C2594 C 0.65958 1.00009 0.81815 0.0
C2595 C 0.65424 0.9815 0.77425 0.0
N2596 N 0.64988 0.9734 0.67839 0.0
N2597 N 0.67206 0.04756 0.84856 0.0
C2598 C 0.66019 0.99198 0.72077 0.0
C2599 C 0.67046 0.02965 0.80806 0.0
N2600 N 0.68729 0.03268 0.66252 0.0
N2601 N 0.65558 0.98971 0.86944 0.0
H2602 H 0.68116 0.06961 0.84404 0.0
H2603 H 0.66248 0.04036 0.88601 0.0
H2604 H 0.64759 0.96808 0.87787 0.0
H2605 H 0.66218 1.00262 0.90353 0.0
H2606 H 0.68797 0.02016 0.63127 0.0
H2607 H 0.69794 0.05453 0.65378 0.0
H2608 H 0.65118 0.97997 0.63867 0.0
H2609 H 0.63725 0.95132 0.68324 0.0
C2610 C 0.34509 0.02434 0.24091 0.0
C2611 C 0.3755 0.03923 0.24149 0.0
C2612 C 0.37657 0.99477 0.25134 0.0
C2613 C 0.3462 0.98017 0.25555 0.0
N2614 N 0.30103 0.97979 0.25817 0.0
N2615 N 0.42089 0.0403 0.24467 0.0
C2616 C 0.33024 0.99456 0.2514 0.0
C2617 C 0.39147 0.02486 0.24551 0.0
N2618 N 0.33056 0.03864 0.23003 0.0
N2619 N 0.39096 0.97972 0.25286 0.0
H2620 H 0.43233 0.06213 0.23559 0.0
H2621 H 0.43417 0.03193 0.25372 0.0
H2622 H 0.38093 0.95789 0.26175 0.0
H2623 H 0.41268 0.9884 0.24407 0.0
H2624 H 0.30847 0.02865 0.22402 0.0
H2625 H 0.34077 0.0606 0.22278 0.0
H2626 H 0.28843 0.98944 0.26129 0.0
H2627 H 0.28927 0.95772 0.26434 0.0
C2628 C 1.00178 0.37731 0.2953 0.0
C2629 C 0.99002 0.36111 0.24759 0.0
C2630 C 0.03824 0.38211 0.21059 0.0
C2631 C 0.04928 0.39007 0.26318 0.0
N2632 N 0.04251 0.39809 0.3558 0.0
N2633 N 0.99761 0.35005 0.15648 0.0
C2634 C 0.03146 0.38908 0.30561 0.0
C2635 C 1.00826 0.36453 0.20355 0.0
N2636 N 0.98456 0.38163 0.32998 0.0
N2637 N 0.05646 0.392 0.16765 0.0
H2638 H 0.97583 0.33795 0.14784 0.0
H2639 H 1.01071 0.34916 0.12645 0.0
H2640 H 0.07839 0.40635 0.17235 0.0
H2641 H 0.04943 0.38879 0.12794 0.0
H2642 H 0.99232 0.39477 0.3637 0.0
H2643 H 0.96308 0.37475 0.32113 0.0
H2644 H 0.02974 0.3948 0.38959 0.0
H2645 H 0.06445 0.40757 0.36388 0.0
C2646 C 0.67662 0.68542 0.33114 0.0
C2647 C 0.64873 0.67435 0.30959 0.0
C2648 C 0.64978 0.63311 0.2722 0.0
C2649 C 0.67826 0.64486 0.29149 0.0
N2650 N 0.71424 0.67541 0.35589 0.0
N2651 N 0.60535 0.63457 0.2751 0.0
C2652 C 0.69037 0.66898 0.32616 0.0
C2653 C 0.63414 0.64701 0.28532 0.0
N2654 N 0.69056 0.71215 0.35355 0.0
N2655 N 0.6382 0.60952 0.23966 0.0
H2656 H 0.59345 0.64443 0.28544 0.0
H2657 H 0.5928 0.61363 0.26142 0.0
H2658 H 0.64872 0.59819 0.2305 0.0
H2659 H 0.61886 0.60206 0.21924 0.0
H2660 H 0.7123 0.72268 0.36349 0.0
H2661 H 0.68081 0.72451 0.35965 0.0
H2662 H 0.72235 0.69118 0.38548 0.0
H2663 H 0.724 0.66283 0.35538 0.0
loop_
_geom_bond_atom_site_label_1
_geom_bond_atom_site_label_2
_geom_bond_distance
_geom_bond_site_symmetry_2
_ccdc_geom_bond_type
Dy0 O4 2.398 . S
Dy0 O5 2.491 . S
Dy0 O6 2.403 . S
Dy0 O7 2.664 . S
Dy0 O11 2.326 . S
Dy0 O15 2.310 . S
Dy0 O16 2.351 . S
C1 O12 1.185 . S
C1 O13 1.355 . S
C2 O4 1.185 . S
C2 O5 1.355 . S
Dy3 O7 2.310 . S
Dy3 O10 2.351 . S
Dy3 O12 2.398 . S
Dy3 O13 2.491 . S
Dy3 O14 2.411 . S
Dy3 O15 2.664 . S
Dy3 O17 2.326 . S
O4 Dy0 2.398 . S
O4 C2 1.185 . S
O5 Dy0 2.491 . S
O5 C2 1.355 . S
O6 Dy0 2.403 . S
O6 C8 1.254 . S
O7 Dy0 2.664 . S
O7 Dy3 2.310 . S
O7 C8 1.268 . S
C8 O6 1.254 . S
C8 O7 1.268 . S
C9 O14 1.253 1_556 S
C9 O15 1.268 1_556 S
O10 Dy3 2.351 . S
O10 C18 1.249 . S
O11 Dy0 2.326 . S
O11 C18 1.267 . S
O12 C1 1.185 . S
O12 Dy3 2.398 . S
O13 C1 1.355 . S
O13 Dy3 2.491 . S
O14 Dy3 2.411 . S
O14 C9 1.253 1_554 S
O15 Dy0 2.310 . S
O15 Dy3 2.664 . S
O15 C9 1.268 1_554 S
O16 Dy0 2.351 . S
O16 C19 1.249 . S
O17 Dy3 2.326 . S
O17 C19 1.267 . S
C18 O10 1.249 . S
C18 O11 1.267 . S
C19 O16 1.249 . S
C19 O17 1.267 . S
Dy20 O24 2.398 . S
Dy20 O25 2.491 . S
Dy20 O26 2.403 . S
Dy20 O27 2.664 . S
Dy20 O31 2.326 . S
Dy20 O35 2.310 . S
Dy20 O36 2.351 . S
C21 O32 1.185 . S
C21 O33 1.355 . S
C22 O24 1.185 . S
C22 O25 1.355 . S
Dy23 O27 2.310 . S
Dy23 O30 2.351 . S
Dy23 O32 2.398 . S
Dy23 O33 2.491 . S
Dy23 O34 2.411 . S
Dy23 O35 2.664 . S
Dy23 O37 2.326 . S
O24 Dy20 2.398 . S
O24 C22 1.185 . S
O25 Dy20 2.491 . S
O25 C22 1.355 . S
O26 Dy20 2.403 . S
O26 C28 1.254 . S
O27 Dy20 2.664 . S
O27 Dy23 2.310 . S
O27 C28 1.268 . S
C28 O26 1.254 . S
C28 O27 1.268 . S
C29 O34 1.253 1_556 S
C29 O35 1.268 1_556 S
O30 Dy23 2.351 . S
O30 C38 1.249 . S
O31 Dy20 2.326 . S
O31 C38 1.267 . S
O32 C21 1.185 . S
O32 Dy23 2.398 . S
O33 C21 1.355 . S
O33 Dy23 2.491 . S
O34 Dy23 2.411 . S
O34 C29 1.253 1_554 S
O35 Dy20 2.310 . S
O35 Dy23 2.664 . S
O35 C29 1.268 1_554 S
O36 Dy20 2.351 . S
O36 C39 1.249 . S
O37 Dy23 2.326 . S
O37 C39 1.267 . S
C38 O30 1.249 . S
C38 O31 1.267 . S
C39 O36 1.249 . S
C39 O37 1.267 . S
Dy40 O44 2.398 . S
Dy40 O45 2.491 . S
Dy40 O46 2.403 . S
Dy40 O47 2.664 . S
Dy40 O51 2.326 . S
Dy40 O55 2.310 . S
Dy40 O56 2.351 . S
C41 O52 1.185 . S
C41 O53 1.355 . S
C42 O44 1.185 . S
C42 O45 1.355 . S
Dy43 O47 2.310 . S
Dy43 O50 2.351 . S
Dy43 O52 2.398 . S
Dy43 O53 2.491 . S
Dy43 O54 2.411 . S
Dy43 O55 2.664 . S
Dy43 O57 2.326 . S
O44 Dy40 2.398 . S
O44 C42 1.185 . S
O45 Dy40 2.491 . S
O45 C42 1.355 . S
O46 Dy40 2.403 . S
O46 C48 1.254 . S
O47 Dy40 2.664 . S
O47 Dy43 2.310 . S
O47 C48 1.268 . S
C48 O46 1.254 . S
C48 O47 1.268 . S
C49 O54 1.253 1_556 S
C49 O55 1.268 1_556 S
O50 Dy43 2.351 . S
O50 C58 1.249 . S
O51 Dy40 2.326 . S
O51 C58 1.267 . S
O52 C41 1.185 . S
O52 Dy43 2.398 . S
O53 C41 1.355 . S
O53 Dy43 2.491 . S
O54 Dy43 2.411 . S
O54 C49 1.253 1_554 S
O55 Dy40 2.310 . S
O55 Dy43 2.664 . S
O55 C49 1.268 1_554 S
O56 Dy40 2.351 . S
O56 C59 1.249 . S
O57 Dy43 2.326 . S
O57 C59 1.267 . S
C58 O50 1.249 . S
C58 O51 1.267 . S
C59 O56 1.249 . S
C59 O57 1.267 . S
Dy60 O64 2.398 . S
Dy60 O65 2.491 . S
Dy60 O66 2.403 . S
Dy60 O67 2.664 . S
Dy60 O71 2.326 . S
Dy60 O75 2.310 . S
Dy60 O76 2.351 . S
C61 O72 1.185 . S
C61 O73 1.355 . S
C62 O64 1.185 . S
C62 O65 1.355 . S
Dy63 O67 2.310 . S
Dy63 O70 2.351 . S
Dy63 O72 2.398 . S
Dy63 O73 2.491 . S
Dy63 O74 2.403 . S
Dy63 O75 2.664 . S
Dy63 O77 2.326 . S
O64 Dy60 2.398 . S
O64 C62 1.185 . S
O65 Dy60 2.491 . S
O65 C62 1.355 . S
O66 Dy60 2.403 . S
O66 C68 1.254 . S
O67 Dy60 2.664 . S
O67 Dy63 2.310 . S
O67 C68 1.268 . S
C68 O66 1.254 . S
C68 O67 1.268 . S
C69 O74 1.254 . S
C69 O75 1.268 . S
O70 Dy63 2.351 . S
O70 C78 1.249 . S
O71 Dy60 2.326 . S
O71 C78 1.267 . S
O72 C61 1.185 . S
O72 Dy63 2.398 . S
O73 C61 1.355 . S
O73 Dy63 2.491 . S
O74 Dy63 2.403 . S
O74 C69 1.254 . S
O75 Dy60 2.310 . S
O75 Dy63 2.664 . S
O75 C69 1.268 . S
O76 Dy60 2.351 . S
O76 C79 1.249 . S
O77 Dy63 2.326 . S
O77 C79 1.267 . S
C78 O70 1.249 . S
C78 O71 1.267 . S
C79 O76 1.249 . S
C79 O77 1.267 . S
Dy80 O84 2.398 . S
Dy80 O85 2.491 . S
Dy80 O86 2.403 . S
Dy80 O87 2.664 . S
Dy80 O91 2.326 . S
Dy80 O95 2.310 . S
Dy80 O96 2.351 . S
C81 O92 1.185 . S
C81 O93 1.355 . S
C82 O84 1.185 . S
C82 O85 1.355 . S
Dy83 O87 2.310 . S
Dy83 O90 2.351 . S
Dy83 O92 2.398 . S
Dy83 O93 2.491 . S
Dy83 O94 2.403 . S
Dy83 O95 2.664 . S
Dy83 O97 2.326 . S
O84 Dy80 2.398 . S
O84 C82 1.185 . S
O85 Dy80 2.491 . S
O85 C82 1.355 . S
O86 Dy80 2.403 . S
O86 C88 1.254 . S
O87 Dy80 2.664 . S
O87 Dy83 2.310 . S
O87 C88 1.268 . S
C88 O86 1.254 . S
C88 O87 1.268 . S
C89 O94 1.254 . S
C89 O95 1.268 . S
O90 Dy83 2.351 . S
O90 C98 1.249 . S
O91 Dy80 2.326 . S
O91 C98 1.267 . S
O92 C81 1.185 . S
O92 Dy83 2.398 . S
O93 C81 1.355 . S
O93 Dy83 2.491 . S
O94 Dy83 2.403 . S
O94 C89 1.254 . S
O95 Dy80 2.310 . S
O95 Dy83 2.664 . S
O95 C89 1.268 . S
O96 Dy80 2.351 . S
O96 C99 1.249 . S
O97 Dy83 2.326 . S
O97 C99 1.267 . S
C98 O90 1.249 . S
C98 O91 1.267 . S
C99 O96 1.249 . S
C99 O97 1.267 . S
Dy100 O104 2.398 . S
Dy100 O105 2.491 . S
Dy100 O106 2.403 . S
Dy100 O107 2.664 . S
Dy100 O111 2.326 . S
Dy100 O115 2.310 . S
Dy100 O116 2.351 . S
C101 O112 1.185 . S
C101 O113 1.355 . S
C102 O104 1.185 . S
C102 O105 1.355 . S
Dy103 O107 2.310 . S
Dy103 O110 2.351 . S
Dy103 O112 2.398 . S
Dy103 O113 2.491 . S
Dy103 O114 2.403 . S
Dy103 O115 2.664 . S
Dy103 O117 2.326 . S
O104 Dy100 2.398 . S
O104 C102 1.185 . S
O105 Dy100 2.491 . S
O105 C102 1.355 . S
O106 Dy100 2.403 . S
O106 C108 1.254 . S
O107 Dy100 2.664 . S
O107 Dy103 2.310 . S
O107 C108 1.268 . S
C108 O106 1.254 . S
C108 O107 1.268 . S
C109 O114 1.254 . S
C109 O115 1.268 . S
O110 Dy103 2.351 . S
O110 C118 1.249 . S
O111 Dy100 2.326 . S
O111 C118 1.267 . S
O112 C101 1.185 . S
O112 Dy103 2.398 . S
O113 C101 1.355 . S
O113 Dy103 2.491 . S
O114 Dy103 2.403 . S
O114 C109 1.254 . S
O115 Dy100 2.310 . S
O115 Dy103 2.664 . S
O115 C109 1.268 . S
O116 Dy100 2.351 . S
O116 C119 1.249 . S
O117 Dy103 2.326 . S
O117 C119 1.267 . S
C118 O110 1.249 . S
C118 O111 1.267 . S
C119 O116 1.249 . S
C119 O117 1.267 . S
Dy120 O124 2.398 . S
Dy120 O125 2.491 . S
Dy120 O126 2.411 . S
Dy120 O127 2.664 . S
Dy120 O131 2.326 . S
Dy120 O135 2.310 . S
Dy120 O136 2.351 . S
C121 O132 1.185 . S
C121 O133 1.355 . S
C122 O124 1.185 . S
C122 O125 1.355 . S
Dy123 O127 2.310 . S
Dy123 O130 2.351 . S
Dy123 O132 2.398 . S
Dy123 O133 2.491 . S
Dy123 O134 2.403 . S
Dy123 O135 2.664 . S
Dy123 O137 2.326 . S
O124 Dy120 2.398 . S
O124 C122 1.185 . S
O125 Dy120 2.491 . S
O125 C122 1.355 . S
O126 Dy120 2.411 . S
O126 C128 1.253 1_556 S
O127 Dy120 2.664 . S
O127 Dy123 2.310 . S
O127 C128 1.268 1_556 S
C128 O126 1.253 1_554 S
C128 O127 1.268 1_554 S
C129 O134 1.254 . S
C129 O135 1.268 . S
O130 Dy123 2.351 . S
O130 C138 1.249 . S
O131 Dy120 2.326 . S
O131 C138 1.267 . S
O132 C121 1.185 . S
O132 Dy123 2.398 . S
O133 C121 1.355 . S
O133 Dy123 2.491 . S
O134 Dy123 2.403 . S
O134 C129 1.254 . S
O135 Dy120 2.310 . S
O135 Dy123 2.664 . S
O135 C129 1.268 . S
O136 Dy120 2.351 . S
O136 C139 1.249 . S
O137 Dy123 2.326 . S
O137 C139 1.267 . S
C138 O130 1.249 . S
C138 O131 1.267 . S
C139 O136 1.249 . S
C139 O137 1.267 . S
Dy140 O144 2.398 . S
Dy140 O145 2.491 . S
Dy140 O146 2.411 . S
Dy140 O147 2.664 . S
Dy140 O151 2.326 . S
Dy140 O155 2.310 . S
Dy140 O156 2.351 . S
C141 O152 1.185 . S
C141 O153 1.355 . S
C142 O144 1.185 . S
C142 O145 1.355 . S
Dy143 O147 2.310 . S
Dy143 O150 2.351 . S
Dy143 O152 2.398 . S
Dy143 O153 2.491 . S
Dy143 O154 2.403 . S
Dy143 O155 2.664 . S
Dy143 O157 2.326 . S
O144 Dy140 2.398 . S
O144 C142 1.185 . S
O145 Dy140 2.491 . S
O145 C142 1.355 . S
O146 Dy140 2.411 . S
O146 C148 1.253 1_556 S
O147 Dy140 2.664 . S
O147 Dy143 2.310 . S
O147 C148 1.268 1_556 S
C148 O146 1.253 1_554 S
C148 O147 1.268 1_554 S
C149 O154 1.254 . S
C149 O155 1.268 . S
O150 Dy143 2.351 . S
O150 C158 1.249 . S
O151 Dy140 2.326 . S
O151 C158 1.267 . S
O152 C141 1.185 . S
O152 Dy143 2.398 . S
O153 C141 1.355 . S
O153 Dy143 2.491 . S
O154 Dy143 2.403 . S
O154 C149 1.254 . S
O155 Dy140 2.310 . S
O155 Dy143 2.664 . S
O155 C149 1.268 . S
O156 Dy140 2.351 . S
O156 C159 1.249 . S
O157 Dy143 2.326 . S
O157 C159 1.267 . S
C158 O150 1.249 . S
C158 O151 1.267 . S
C159 O156 1.249 . S
C159 O157 1.267 . S
Dy160 O164 2.398 . S
Dy160 O165 2.491 . S
Dy160 O166 2.411 . S
Dy160 O167 2.664 . S
Dy160 O171 2.326 . S
Dy160 O175 2.310 . S
Dy160 O176 2.351 . S
C161 O172 1.185 . S
C161 O173 1.355 . S
C162 O164 1.185 . S
C162 O165 1.355 . S
Dy163 O167 2.310 . S
Dy163 O170 2.351 . S
Dy163 O172 2.398 . S
Dy163 O173 2.491 . S
Dy163 O174 2.403 . S
Dy163 O175 2.664 . S
Dy163 O177 2.326 . S
O164 Dy160 2.398 . S
O164 C162 1.185 . S
O165 Dy160 2.491 . S
O165 C162 1.355 . S
O166 Dy160 2.411 . S
O166 C168 1.253 1_556 S
O167 Dy160 2.664 . S
O167 Dy163 2.310 . S
O167 C168 1.268 1_556 S
C168 O166 1.253 1_554 S
C168 O167 1.268 1_554 S
C169 O174 1.254 . S
C169 O175 1.268 . S
O170 Dy163 2.351 . S
O170 C178 1.249 . S
O171 Dy160 2.326 . S
O171 C178 1.267 . S
O172 C161 1.185 . S
O172 Dy163 2.398 . S
O173 C161 1.355 . S
O173 Dy163 2.491 . S
O174 Dy163 2.403 . S
O174 C169 1.254 . S
O175 Dy160 2.310 . S
O175 Dy163 2.664 . S
O175 C169 1.268 . S
O176 Dy160 2.351 . S
O176 C179 1.249 . S
O177 Dy163 2.326 . S
O177 C179 1.267 . S
C178 O170 1.249 . S
C178 O171 1.267 . S
C179 O176 1.249 . S
C179 O177 1.267 . S
Dy180 O184 2.398 . S
Dy180 O185 2.491 . S
Dy180 O186 2.403 . S
Dy180 O187 2.664 . S
Dy180 O191 2.326 . S
Dy180 O195 2.310 . S
Dy180 O196 2.351 . S
C181 O192 1.185 . S
C181 O193 1.355 . S
C182 O184 1.185 . S
C182 O185 1.355 . S
Dy183 O187 2.310 . S
Dy183 O190 2.351 . S
Dy183 O192 2.398 . S
Dy183 O193 2.491 . S
Dy183 O194 2.403 . S
Dy183 O195 2.664 . S
Dy183 O197 2.326 . S
O184 Dy180 2.398 . S
O184 C182 1.185 . S
O185 Dy180 2.491 . S
O185 C182 1.355 . S
O186 Dy180 2.403 . S
O186 C188 1.254 . S
O187 Dy180 2.664 . S
O187 Dy183 2.310 . S
O187 C188 1.268 . S
C188 O186 1.254 . S
C188 O187 1.268 . S
C189 O194 1.254 . S
C189 O195 1.268 . S
O190 Dy183 2.351 . S
O190 C198 1.249 . S
O191 Dy180 2.326 . S
O191 C198 1.267 . S
O192 C181 1.185 . S
O192 Dy183 2.398 . S
O193 C181 1.355 . S
O193 Dy183 2.491 . S
O194 Dy183 2.403 . S
O194 C189 1.254 . S
O195 Dy180 2.310 . S
O195 Dy183 2.664 . S
O195 C189 1.268 . S
O196 Dy180 2.351 . S
O196 C199 1.249 . S
O197 Dy183 2.326 . S
O197 C199 1.267 . S
C198 O190 1.249 . S
C198 O191 1.267 . S
C199 O196 1.249 . S
C199 O197 1.267 . S
Dy200 O204 2.398 . S
Dy200 O205 2.491 . S
Dy200 O206 2.403 . S
Dy200 O207 2.664 . S
Dy200 O211 2.326 . S
Dy200 O215 2.310 . S
Dy200 O216 2.351 . S
C201 O212 1.185 . S
C201 O213 1.355 . S
C202 O204 1.185 . S
C202 O205 1.355 . S
Dy203 O207 2.310 . S
Dy203 O210 2.351 . S
Dy203 O212 2.398 . S
Dy203 O213 2.491 . S
Dy203 O214 2.403 . S
Dy203 O215 2.664 . S
Dy203 O217 2.326 . S
O204 Dy200 2.398 . S
O204 C202 1.185 . S
O205 Dy200 2.491 . S
O205 C202 1.355 . S
O206 Dy200 2.403 . S
O206 C208 1.254 . S
O207 Dy200 2.664 . S
O207 Dy203 2.310 . S
O207 C208 1.268 . S
C208 O206 1.254 . S
C208 O207 1.268 . S
C209 O214 1.254 . S
C209 O215 1.268 . S
O210 Dy203 2.351 . S
O210 C218 1.249 . S
O211 Dy200 2.326 . S
O211 C218 1.267 . S
O212 C201 1.185 . S
O212 Dy203 2.398 . S
O213 C201 1.355 . S
O213 Dy203 2.491 . S
O214 Dy203 2.403 . S
O214 C209 1.254 . S
O215 Dy200 2.310 . S
O215 Dy203 2.664 . S
O215 C209 1.268 . S
O216 Dy200 2.351 . S
O216 C219 1.249 . S
O217 Dy203 2.326 . S
O217 C219 1.267 . S
C218 O210 1.249 . S
C218 O211 1.267 . S
C219 O216 1.249 . S
C219 O217 1.267 . S
Dy220 O224 2.398 . S
Dy220 O225 2.491 . S
Dy220 O226 2.403 . S
Dy220 O227 2.664 . S
Dy220 O231 2.326 . S
Dy220 O235 2.310 . S
Dy220 O236 2.351 . S
C221 O232 1.185 . S
C221 O233 1.355 . S
C222 O224 1.185 . S
C222 O225 1.355 . S
Dy223 O227 2.310 . S
Dy223 O230 2.351 . S
Dy223 O232 2.398 . S
Dy223 O233 2.491 . S
Dy223 O234 2.403 . S
Dy223 O235 2.664 . S
Dy223 O237 2.326 . S
O224 Dy220 2.398 . S
O224 C222 1.185 . S
O225 Dy220 2.491 . S
O225 C222 1.355 . S
O226 Dy220 2.403 . S
O226 C228 1.254 . S
O227 Dy220 2.664 . S
O227 Dy223 2.310 . S
O227 C228 1.268 . S
C228 O226 1.254 . S
C228 O227 1.268 . S
C229 O234 1.254 . S
C229 O235 1.268 . S
O230 Dy223 2.351 . S
O230 C238 1.249 . S
O231 Dy220 2.326 . S
O231 C238 1.267 . S
O232 C221 1.185 . S
O232 Dy223 2.398 . S
O233 C221 1.355 . S
O233 Dy223 2.491 . S
O234 Dy223 2.403 . S
O234 C229 1.254 . S
O235 Dy220 2.310 . S
O235 Dy223 2.664 . S
O235 C229 1.268 . S
O236 Dy220 2.351 . S
O236 C239 1.249 . S
O237 Dy223 2.326 . S
O237 C239 1.267 . S
C238 O230 1.249 . S
C238 O231 1.267 . S
C239 O236 1.249 . S
C239 O237 1.267 . S
Dy240 O244 2.398 . S
Dy240 O245 2.491 . S
Dy240 O246 2.403 . S
Dy240 O247 2.664 . S
Dy240 O251 2.326 . S
Dy240 O255 2.310 . S
Dy240 O256 2.351 . S
C241 O252 1.185 . S
C241 O253 1.355 . S
C242 O244 1.185 . S
C242 O245 1.355 . S
Dy243 O247 2.310 . S
Dy243 O250 2.351 . S
Dy243 O252 2.398 . S
Dy243 O253 2.491 . S
Dy243 O254 2.403 . S
Dy243 O255 2.664 . S
Dy243 O257 2.326 . S
O244 Dy240 2.398 . S
O244 C242 1.185 . S
O245 Dy240 2.491 . S
O245 C242 1.355 . S
O246 Dy240 2.403 . S
O246 C248 1.254 . S
O247 Dy240 2.664 . S
O247 Dy243 2.310 . S
O247 C248 1.268 . S
C248 O246 1.254 . S
C248 O247 1.268 . S
C249 O254 1.254 . S
C249 O255 1.268 . S
O250 Dy243 2.351 . S
O250 C258 1.249 . S
O251 Dy240 2.326 . S
O251 C258 1.267 . S
O252 C241 1.185 . S
O252 Dy243 2.398 . S
O253 C241 1.355 . S
O253 Dy243 2.491 . S
O254 Dy243 2.403 . S
O254 C249 1.254 . S
O255 Dy240 2.310 . S
O255 Dy243 2.664 . S
O255 C249 1.268 . S
O256 Dy240 2.351 . S
O256 C259 1.249 . S
O257 Dy243 2.326 . S
O257 C259 1.267 . S
C258 O250 1.249 . S
C258 O251 1.267 . S
C259 O256 1.249 . S
C259 O257 1.267 . S
Dy260 O264 2.398 . S
Dy260 O265 2.491 . S
Dy260 O266 2.403 . S
Dy260 O267 2.664 . S
Dy260 O271 2.326 . S
Dy260 O275 2.310 . S
Dy260 O276 2.351 . S
C261 O272 1.185 . S
C261 O273 1.355 . S
C262 O264 1.185 . S
C262 O265 1.355 . S
Dy263 O267 2.310 . S
Dy263 O270 2.351 . S
Dy263 O272 2.398 . S
Dy263 O273 2.491 . S
Dy263 O274 2.403 . S
Dy263 O275 2.664 . S
Dy263 O277 2.326 . S
O264 Dy260 2.398 . S
O264 C262 1.185 . S
O265 Dy260 2.491 . S
O265 C262 1.355 . S
O266 Dy260 2.403 . S
O266 C268 1.254 . S
O267 Dy260 2.664 . S
O267 Dy263 2.310 . S
O267 C268 1.268 . S
C268 O266 1.254 . S
C268 O267 1.268 . S
C269 O274 1.254 . S
C269 O275 1.268 . S
O270 Dy263 2.351 . S
O270 C278 1.249 . S
O271 Dy260 2.326 . S
O271 C278 1.267 . S
O272 C261 1.185 . S
O272 Dy263 2.398 . S
O273 C261 1.355 . S
O273 Dy263 2.491 . S
O274 Dy263 2.403 . S
O274 C269 1.254 . S
O275 Dy260 2.310 . S
O275 Dy263 2.664 . S
O275 C269 1.268 . S
O276 Dy260 2.351 . S
O276 C279 1.249 . S
O277 Dy263 2.326 . S
O277 C279 1.267 . S
C278 O270 1.249 . S
C278 O271 1.267 . S
C279 O276 1.249 . S
C279 O277 1.267 . S
Dy280 O284 2.398 . S
Dy280 O285 2.491 . S
Dy280 O286 2.403 . S
Dy280 O287 2.664 . S
Dy280 O291 2.326 . S
Dy280 O295 2.310 . S
Dy280 O296 2.351 . S
C281 O292 1.185 . S
C281 O293 1.355 . S
C282 O284 1.185 . S
C282 O285 1.355 . S
Dy283 O287 2.310 . S
Dy283 O290 2.351 . S
Dy283 O292 2.398 . S
Dy283 O293 2.491 . S
Dy283 O294 2.403 . S
Dy283 O295 2.664 . S
Dy283 O297 2.326 . S
O284 Dy280 2.398 . S
O284 C282 1.185 . S
O285 Dy280 2.491 . S
O285 C282 1.355 . S
O286 Dy280 2.403 . S
O286 C288 1.254 . S
O287 Dy280 2.664 . S
O287 Dy283 2.310 . S
O287 C288 1.268 . S
C288 O286 1.254 . S
C288 O287 1.268 . S
C289 O294 1.254 . S
C289 O295 1.268 . S
O290 Dy283 2.351 . S
O290 C298 1.249 . S
O291 Dy280 2.326 . S
O291 C298 1.267 . S
O292 C281 1.185 . S
O292 Dy283 2.398 . S
O293 C281 1.355 . S
O293 Dy283 2.491 . S
O294 Dy283 2.403 . S
O294 C289 1.254 . S
O295 Dy280 2.310 . S
O295 Dy283 2.664 . S
O295 C289 1.268 . S
O296 Dy280 2.351 . S
O296 C299 1.249 . S
O297 Dy283 2.326 . S
O297 C299 1.267 . S
C298 O290 1.249 . S
C298 O291 1.267 . S
C299 O296 1.249 . S
C299 O297 1.267 . S
Dy300 O304 2.398 . S
Dy300 O305 2.491 . S
Dy300 O306 2.403 . S
Dy300 O307 2.664 . S
Dy300 O311 2.326 . S
Dy300 O315 2.310 . S
Dy300 O316 2.351 . S
C301 O312 1.185 . S
C301 O313 1.355 . S
C302 O304 1.185 . S
C302 O305 1.355 . S
Dy303 O307 2.310 . S
Dy303 O310 2.351 . S
Dy303 O312 2.398 . S
Dy303 O313 2.491 . S
Dy303 O314 2.403 . S
Dy303 O315 2.664 . S
Dy303 O317 2.326 . S
O304 Dy300 2.398 . S
O304 C302 1.185 . S
O305 Dy300 2.491 . S
O305 C302 1.355 . S
O306 Dy300 2.403 . S
O306 C308 1.254 . S
O307 Dy300 2.664 . S
O307 Dy303 2.310 . S
O307 C308 1.268 . S
C308 O306 1.254 . S
C308 O307 1.268 . S
C309 O314 1.254 . S
C309 O315 1.268 . S
O310 Dy303 2.351 . S
O310 C318 1.249 . S
O311 Dy300 2.326 . S
O311 C318 1.267 . S
O312 C301 1.185 . S
O312 Dy303 2.398 . S
O313 C301 1.355 . S
O313 Dy303 2.491 . S
O314 Dy303 2.403 . S
O314 C309 1.254 . S
O315 Dy300 2.310 . S
O315 Dy303 2.664 . S
O315 C309 1.268 . S
O316 Dy300 2.351 . S
O316 C319 1.249 . S
O317 Dy303 2.326 . S
O317 C319 1.267 . S
C318 O310 1.249 . S
C318 O311 1.267 . S
C319 O316 1.249 . S
C319 O317 1.267 . S
Dy320 O324 2.398 . S
Dy320 O325 2.491 . S
Dy320 O326 2.403 . S
Dy320 O327 2.664 . S
Dy320 O331 2.326 . S
Dy320 O335 2.310 . S
Dy320 O336 2.351 . S
C321 O332 1.185 . S
C321 O333 1.355 . S
C322 O324 1.185 . S
C322 O325 1.355 . S
Dy323 O327 2.310 . S
Dy323 O330 2.351 . S
Dy323 O332 2.398 . S
Dy323 O333 2.491 . S
Dy323 O334 2.403 . S
Dy323 O335 2.664 . S
Dy323 O337 2.326 . S
O324 Dy320 2.398 . S
O324 C322 1.185 . S
O325 Dy320 2.491 . S
O325 C322 1.355 . S
O326 Dy320 2.403 . S
O326 C328 1.254 . S
O327 Dy320 2.664 . S
O327 Dy323 2.310 . S
O327 C328 1.268 . S
C328 O326 1.254 . S
C328 O327 1.268 . S
C329 O334 1.254 . S
C329 O335 1.268 . S
O330 Dy323 2.351 . S
O330 C338 1.249 . S
O331 Dy320 2.326 . S
O331 C338 1.267 . S
O332 C321 1.185 . S
O332 Dy323 2.398 . S
O333 C321 1.355 . S
O333 Dy323 2.491 . S
O334 Dy323 2.403 . S
O334 C329 1.254 . S
O335 Dy320 2.310 . S
O335 Dy323 2.664 . S
O335 C329 1.268 . S
O336 Dy320 2.351 . S
O336 C339 1.249 . S
O337 Dy323 2.326 . S
O337 C339 1.267 . S
C338 O330 1.249 . S
C338 O331 1.267 . S
C339 O336 1.249 . S
C339 O337 1.267 . S
Dy340 O344 2.398 . S
Dy340 O345 2.491 . S
Dy340 O346 2.403 . S
Dy340 O347 2.664 . S
Dy340 O351 2.326 . S
Dy340 O355 2.310 . S
Dy340 O356 2.351 . S
C341 O352 1.185 . S
C341 O353 1.355 . S
C342 O344 1.185 . S
C342 O345 1.355 . S
Dy343 O347 2.310 . S
Dy343 O350 2.351 . S
Dy343 O352 2.398 . S
Dy343 O353 2.491 . S
Dy343 O354 2.403 . S
Dy343 O355 2.664 . S
Dy343 O357 2.326 . S
O344 Dy340 2.398 . S
O344 C342 1.185 . S
O345 Dy340 2.491 . S
O345 C342 1.355 . S
O346 Dy340 2.403 . S
O346 C348 1.254 . S
O347 Dy340 2.664 . S
O347 Dy343 2.310 . S
O347 C348 1.268 . S
C348 O346 1.254 . S
C348 O347 1.268 . S
C349 O354 1.254 . S
C349 O355 1.268 . S
O350 Dy343 2.351 . S
O350 C358 1.249 . S
O351 Dy340 2.326 . S
O351 C358 1.267 . S
O352 C341 1.185 . S
O352 Dy343 2.398 . S
O353 C341 1.355 . S
O353 Dy343 2.491 . S
O354 Dy343 2.403 . S
O354 C349 1.254 . S
O355 Dy340 2.310 . S
O355 Dy343 2.664 . S
O355 C349 1.268 . S
O356 Dy340 2.351 . S
O356 C359 1.249 . S
O357 Dy343 2.326 . S
O357 C359 1.267 . S
C358 O350 1.249 . S
C358 O351 1.267 . S
C359 O356 1.249 . S
C359 O357 1.267 . S
Dy360 O364 2.398 . S
Dy360 O365 2.491 . S
Dy360 O366 2.403 . S
Dy360 O367 2.664 . S
Dy360 O371 2.326 . S
Dy360 O375 2.310 . S
Dy360 O376 2.351 . S
C361 O372 1.185 . S
C361 O373 1.355 . S
C362 O364 1.185 . S
C362 O365 1.355 . S
Dy363 O367 2.310 . S
Dy363 O370 2.351 . S
Dy363 O372 2.398 . S
Dy363 O373 2.491 . S
Dy363 O374 2.403 . S
Dy363 O375 2.664 . S
Dy363 O377 2.326 . S
O364 Dy360 2.398 . S
O364 C362 1.185 . S
O365 Dy360 2.491 . S
O365 C362 1.355 . S
O366 Dy360 2.403 . S
O366 C368 1.254 . S
O367 Dy360 2.664 . S
O367 Dy363 2.310 . S
O367 C368 1.268 . S
C368 O366 1.254 . S
C368 O367 1.268 . S
C369 O374 1.254 . S
C369 O375 1.268 . S
O370 Dy363 2.351 . S
O370 C378 1.249 . S
O371 Dy360 2.326 . S
O371 C378 1.267 . S
O372 C361 1.185 . S
O372 Dy363 2.398 . S
O373 C361 1.355 . S
O373 Dy363 2.491 . S
O374 Dy363 2.403 . S
O374 C369 1.254 . S
O375 Dy360 2.310 . S
O375 Dy363 2.664 . S
O375 C369 1.268 . S
O376 Dy360 2.351 . S
O376 C379 1.249 . S
O377 Dy363 2.326 . S
O377 C379 1.267 . S
C378 O370 1.249 . S
C378 O371 1.267 . S
C379 O376 1.249 . S
C379 O377 1.267 . S
Dy380 O384 2.398 . S
Dy380 O385 2.491 . S
Dy380 O386 2.403 . S
Dy380 O387 2.664 . S
Dy380 O391 2.326 . S
Dy380 O395 2.310 . S
Dy380 O396 2.351 . S
C381 O392 1.185 . S
C381 O393 1.355 . S
C382 O384 1.185 . S
C382 O385 1.355 . S
Dy383 O387 2.310 . S
Dy383 O390 2.351 . S
Dy383 O392 2.398 . S
Dy383 O393 2.491 . S
Dy383 O394 2.403 . S
Dy383 O395 2.664 . S
Dy383 O397 2.326 . S
O384 Dy380 2.398 . S
O384 C382 1.185 . S
O385 Dy380 2.491 . S
O385 C382 1.355 . S
O386 Dy380 2.403 . S
O386 C388 1.254 . S
O387 Dy380 2.664 . S
O387 Dy383 2.310 . S
O387 C388 1.268 . S
C388 O386 1.254 . S
C388 O387 1.268 . S
C389 O394 1.254 . S
C389 O395 1.268 . S
O390 Dy383 2.351 . S
O390 C398 1.249 . S
O391 Dy380 2.326 . S
O391 C398 1.267 . S
O392 C381 1.185 . S
O392 Dy383 2.398 . S
O393 C381 1.355 . S
O393 Dy383 2.491 . S
O394 Dy383 2.403 . S
O394 C389 1.254 . S
O395 Dy380 2.310 . S
O395 Dy383 2.664 . S
O395 C389 1.268 . S
O396 Dy380 2.351 . S
O396 C399 1.249 . S
O397 Dy383 2.326 . S
O397 C399 1.267 . S
C398 O390 1.249 . S
C398 O391 1.267 . S
C399 O396 1.249 . S
C399 O397 1.267 . S
Dy400 O404 2.398 . S
Dy400 O405 2.491 . S
Dy400 O406 2.403 . S
Dy400 O407 2.664 . S
Dy400 O411 2.326 . S
Dy400 O415 2.310 . S
Dy400 O416 2.351 . S
C401 O412 1.185 . S
C401 O413 1.355 . S
C402 O404 1.185 . S
C402 O405 1.355 . S
Dy403 O407 2.310 . S
Dy403 O410 2.351 . S
Dy403 O412 2.398 . S
Dy403 O413 2.491 . S
Dy403 O414 2.403 . S
Dy403 O415 2.664 . S
Dy403 O417 2.326 . S
O404 Dy400 2.398 . S
O404 C402 1.185 . S
O405 Dy400 2.491 . S
O405 C402 1.355 . S
O406 Dy400 2.403 . S
O406 C408 1.254 . S
O407 Dy400 2.664 . S
O407 Dy403 2.310 . S
O407 C408 1.268 . S
C408 O406 1.254 . S
C408 O407 1.268 . S
C409 O414 1.254 . S
C409 O415 1.268 . S
O410 Dy403 2.351 . S
O410 C418 1.249 . S
O411 Dy400 2.326 . S
O411 C418 1.267 . S
O412 C401 1.185 . S
O412 Dy403 2.398 . S
O413 C401 1.355 . S
O413 Dy403 2.491 . S
O414 Dy403 2.403 . S
O414 C409 1.254 . S
O415 Dy400 2.310 . S
O415 Dy403 2.664 . S
O415 C409 1.268 . S
O416 Dy400 2.351 . S
O416 C419 1.249 . S
O417 Dy403 2.326 . S
O417 C419 1.267 . S
C418 O410 1.249 . S
C418 O411 1.267 . S
C419 O416 1.249 . S
C419 O417 1.267 . S
Dy420 O424 2.398 . S
Dy420 O425 2.491 . S
Dy420 O426 2.403 . S
Dy420 O427 2.664 . S
Dy420 O431 2.326 . S
Dy420 O435 2.310 . S
Dy420 O436 2.351 . S
C421 O432 1.185 . S
C421 O433 1.355 . S
C422 O424 1.185 . S
C422 O425 1.355 . S
Dy423 O427 2.310 . S
Dy423 O430 2.351 . S
Dy423 O432 2.398 . S
Dy423 O433 2.491 . S
Dy423 O434 2.403 . S
Dy423 O435 2.664 . S
Dy423 O437 2.326 . S
O424 Dy420 2.398 . S
O424 C422 1.185 . S
O425 Dy420 2.491 . S
O425 C422 1.355 . S
O426 Dy420 2.403 . S
O426 C428 1.254 . S
O427 Dy420 2.664 . S
O427 Dy423 2.310 . S
O427 C428 1.268 . S
C428 O426 1.254 . S
C428 O427 1.268 . S
C429 O434 1.254 . S
C429 O435 1.268 . S
O430 Dy423 2.351 . S
O430 C438 1.249 . S
O431 Dy420 2.326 . S
O431 C438 1.267 . S
O432 C421 1.185 . S
O432 Dy423 2.398 . S
O433 C421 1.355 . S
O433 Dy423 2.491 . S
O434 Dy423 2.403 . S
O434 C429 1.254 . S
O435 Dy420 2.310 . S
O435 Dy423 2.664 . S
O435 C429 1.268 . S
O436 Dy420 2.351 . S
O436 C439 1.249 . S
O437 Dy423 2.326 . S
O437 C439 1.267 . S
C438 O430 1.249 . S
C438 O431 1.267 . S
C439 O436 1.249 . S
C439 O437 1.267 . S
Dy440 O444 2.398 . S
Dy440 O445 2.491 . S
Dy440 O446 2.403 . S
Dy440 O447 2.664 . S
Dy440 O451 2.326 . S
Dy440 O455 2.310 . S
Dy440 O456 2.351 . S
C441 O452 1.185 . S
C441 O453 1.355 . S
C442 O444 1.185 . S
C442 O445 1.355 . S
Dy443 O447 2.310 . S
Dy443 O450 2.351 . S
Dy443 O452 2.398 . S
Dy443 O453 2.491 . S
Dy443 O454 2.403 . S
Dy443 O455 2.664 . S
Dy443 O457 2.326 . S
O444 Dy440 2.398 . S
O444 C442 1.185 . S
O445 Dy440 2.491 . S
O445 C442 1.355 . S
O446 Dy440 2.403 . S
O446 C448 1.254 . S
O447 Dy440 2.664 . S
O447 Dy443 2.310 . S
O447 C448 1.268 . S
C448 O446 1.254 . S
C448 O447 1.268 . S
C449 O454 1.254 . S
C449 O455 1.268 . S
O450 Dy443 2.351 . S
O450 C458 1.249 . S
O451 Dy440 2.326 . S
O451 C458 1.267 . S
O452 C441 1.185 . S
O452 Dy443 2.398 . S
O453 C441 1.355 . S
O453 Dy443 2.491 . S
O454 Dy443 2.403 . S
O454 C449 1.254 . S
O455 Dy440 2.310 . S
O455 Dy443 2.664 . S
O455 C449 1.268 . S
O456 Dy440 2.351 . S
O456 C459 1.249 . S
O457 Dy443 2.326 . S
O457 C459 1.267 . S
C458 O450 1.249 . S
C458 O451 1.267 . S
C459 O456 1.249 . S
C459 O457 1.267 . S
Dy460 O464 2.398 . S
Dy460 O465 2.491 . S
Dy460 O466 2.403 . S
Dy460 O467 2.664 . S
Dy460 O471 2.326 . S
Dy460 O475 2.310 . S
Dy460 O476 2.351 . S
C461 O472 1.185 . S
C461 O473 1.355 . S
C462 O464 1.185 . S
C462 O465 1.355 . S
Dy463 O467 2.310 . S
Dy463 O470 2.351 . S
Dy463 O472 2.398 . S
Dy463 O473 2.491 . S
Dy463 O474 2.403 . S
Dy463 O475 2.664 . S
Dy463 O477 2.326 . S
O464 Dy460 2.398 . S
O464 C462 1.185 . S
O465 Dy460 2.491 . S
O465 C462 1.355 . S
O466 Dy460 2.403 . S
O466 C468 1.254 . S
O467 Dy460 2.664 . S
O467 Dy463 2.310 . S
O467 C468 1.268 . S
C468 O466 1.254 . S
C468 O467 1.268 . S
C469 O474 1.254 . S
C469 O475 1.268 . S
O470 Dy463 2.351 . S
O470 C478 1.249 . S
O471 Dy460 2.326 . S
O471 C478 1.267 . S
O472 C461 1.185 . S
O472 Dy463 2.398 . S
O473 C461 1.355 . S
O473 Dy463 2.491 . S
O474 Dy463 2.403 . S
O474 C469 1.254 . S
O475 Dy460 2.310 . S
O475 Dy463 2.664 . S
O475 C469 1.268 . S
O476 Dy460 2.351 . S
O476 C479 1.249 . S
O477 Dy463 2.326 . S
O477 C479 1.267 . S
C478 O470 1.249 . S
C478 O471 1.267 . S
C479 O476 1.249 . S
C479 O477 1.267 . S
Dy480 O484 2.398 . S
Dy480 O485 2.491 . S
Dy480 O486 2.403 . S
Dy480 O487 2.664 . S
Dy480 O491 2.326 . S
Dy480 O495 2.310 . S
Dy480 O496 2.351 . S
C481 O492 1.185 . S
C481 O493 1.355 . S
C482 O484 1.185 . S
C482 O485 1.355 . S
Dy483 O487 2.310 . S
Dy483 O490 2.351 . S
Dy483 O492 2.398 . S
Dy483 O493 2.491 . S
Dy483 O494 2.403 . S
Dy483 O495 2.664 . S
Dy483 O497 2.326 . S
O484 Dy480 2.398 . S
O484 C482 1.185 . S
O485 Dy480 2.491 . S
O485 C482 1.355 . S
O486 Dy480 2.403 . S
O486 C488 1.254 . S
O487 Dy480 2.664 . S
O487 Dy483 2.310 . S
O487 C488 1.268 . S
C488 O486 1.254 . S
C488 O487 1.268 . S
C489 O494 1.254 . S
C489 O495 1.268 . S
O490 Dy483 2.351 . S
O490 C498 1.249 . S
O491 Dy480 2.326 . S
O491 C498 1.267 . S
O492 C481 1.185 . S
O492 Dy483 2.398 . S
O493 C481 1.355 . S
O493 Dy483 2.491 . S
O494 Dy483 2.403 . S
O494 C489 1.254 . S
O495 Dy480 2.310 . S
O495 Dy483 2.664 . S
O495 C489 1.268 . S
O496 Dy480 2.351 . S
O496 C499 1.249 . S
O497 Dy483 2.326 . S
O497 C499 1.267 . S
C498 O490 1.249 . S
C498 O491 1.267 . S
C499 O496 1.249 . S
C499 O497 1.267 . S
Dy500 O504 2.398 . S
Dy500 O505 2.491 . S
Dy500 O506 2.403 . S
Dy500 O507 2.664 . S
Dy500 O511 2.326 . S
Dy500 O515 2.310 . S
Dy500 O516 2.351 . S
C501 O512 1.185 . S
C501 O513 1.355 . S
C502 O504 1.185 . S
C502 O505 1.355 . S
Dy503 O507 2.310 . S
Dy503 O510 2.351 . S
Dy503 O512 2.398 . S
Dy503 O513 2.491 . S
Dy503 O514 2.403 . S
Dy503 O515 2.664 . S
Dy503 O517 2.326 . S
O504 Dy500 2.398 . S
O504 C502 1.185 . S
O505 Dy500 2.491 . S
O505 C502 1.355 . S
O506 Dy500 2.403 . S
O506 C508 1.254 . S
O507 Dy500 2.664 . S
O507 Dy503 2.310 . S
O507 C508 1.268 . S
C508 O506 1.254 . S
C508 O507 1.268 . S
C509 O514 1.254 . S
C509 O515 1.268 . S
O510 Dy503 2.351 . S
O510 C518 1.249 . S
O511 Dy500 2.326 . S
O511 C518 1.267 . S
O512 C501 1.185 . S
O512 Dy503 2.398 . S
O513 C501 1.355 . S
O513 Dy503 2.491 . S
O514 Dy503 2.403 . S
O514 C509 1.254 . S
O515 Dy500 2.310 . S
O515 Dy503 2.664 . S
O515 C509 1.268 . S
O516 Dy500 2.351 . S
O516 C519 1.249 . S
O517 Dy503 2.326 . S
O517 C519 1.267 . S
C518 O510 1.249 . S
C518 O511 1.267 . S
C519 O516 1.249 . S
C519 O517 1.267 . S
Dy520 O524 2.398 . S
Dy520 O525 2.491 . S
Dy520 O526 2.403 . S
Dy520 O527 2.664 . S
Dy520 O531 2.326 . S
Dy520 O535 2.310 . S
Dy520 O536 2.351 . S
C521 O532 1.185 . S
C521 O533 1.355 . S
C522 O524 1.185 . S
C522 O525 1.355 . S
Dy523 O527 2.310 . S
Dy523 O530 2.351 . S
Dy523 O532 2.398 . S
Dy523 O533 2.491 . S
Dy523 O534 2.403 . S
Dy523 O535 2.664 . S
Dy523 O537 2.326 . S
O524 Dy520 2.398 . S
O524 C522 1.185 . S
O525 Dy520 2.491 . S
O525 C522 1.355 . S
O526 Dy520 2.403 . S
O526 C528 1.254 . S
O527 Dy520 2.664 . S
O527 Dy523 2.310 . S
O527 C528 1.268 . S
C528 O526 1.254 . S
C528 O527 1.268 . S
C529 O534 1.254 . S
C529 O535 1.268 . S
O530 Dy523 2.351 . S
O530 C538 1.249 . S
O531 Dy520 2.326 . S
O531 C538 1.267 . S
O532 C521 1.185 . S
O532 Dy523 2.398 . S
O533 C521 1.355 . S
O533 Dy523 2.491 . S
O534 Dy523 2.403 . S
O534 C529 1.254 . S
O535 Dy520 2.310 . S
O535 Dy523 2.664 . S
O535 C529 1.268 . S
O536 Dy520 2.351 . S
O536 C539 1.249 . S
O537 Dy523 2.326 . S
O537 C539 1.267 . S
C538 O530 1.249 . S
C538 O531 1.267 . S
C539 O536 1.249 . S
C539 O537 1.267 . S
Dy540 O544 2.398 . S
Dy540 O545 2.491 . S
Dy540 O546 2.403 . S
Dy540 O547 2.664 . S
Dy540 O551 2.326 . S
Dy540 O555 2.310 . S
Dy540 O556 2.351 . S
C541 O552 1.185 . S
C541 O553 1.355 . S
C542 O544 1.185 . S
C542 O545 1.355 . S
Dy543 O547 2.310 . S
Dy543 O550 2.351 . S
Dy543 O552 2.398 . S
Dy543 O553 2.491 . S
Dy543 O554 2.403 . S
Dy543 O555 2.664 . S
Dy543 O557 2.326 . S
O544 Dy540 2.398 . S
O544 C542 1.185 . S
O545 Dy540 2.491 . S
O545 C542 1.355 . S
O546 Dy540 2.403 . S
O546 C548 1.254 . S
O547 Dy540 2.664 . S
O547 Dy543 2.310 . S
O547 C548 1.268 . S
C548 O546 1.254 . S
C548 O547 1.268 . S
C549 O554 1.254 . S
C549 O555 1.268 . S
O550 Dy543 2.351 . S
O550 C558 1.249 . S
O551 Dy540 2.326 . S
O551 C558 1.267 . S
O552 C541 1.185 . S
O552 Dy543 2.398 . S
O553 C541 1.355 . S
O553 Dy543 2.491 . S
O554 Dy543 2.403 . S
O554 C549 1.254 . S
O555 Dy540 2.310 . S
O555 Dy543 2.664 . S
O555 C549 1.268 . S
O556 Dy540 2.351 . S
O556 C559 1.249 . S
O557 Dy543 2.326 . S
O557 C559 1.267 . S
C558 O550 1.249 . S
C558 O551 1.267 . S
C559 O556 1.249 . S
C559 O557 1.267 . S
Dy560 O564 2.398 . S
Dy560 O565 2.491 . S
Dy560 O566 2.403 . S
Dy560 O567 2.664 . S
Dy560 O571 2.326 . S
Dy560 O575 2.310 . S
Dy560 O576 2.351 . S
C561 O572 1.185 . S
C561 O573 1.355 . S
C562 O564 1.185 . S
C562 O565 1.355 . S
Dy563 O567 2.310 . S
Dy563 O570 2.351 . S
Dy563 O572 2.398 . S
Dy563 O573 2.491 . S
Dy563 O574 2.403 . S
Dy563 O575 2.664 . S
Dy563 O577 2.326 . S
O564 Dy560 2.398 . S
O564 C562 1.185 . S
O565 Dy560 2.491 . S
O565 C562 1.355 . S
O566 Dy560 2.403 . S
O566 C568 1.254 . S
O567 Dy560 2.664 . S
O567 Dy563 2.310 . S
O567 C568 1.268 . S
C568 O566 1.254 . S
C568 O567 1.268 . S
C569 O574 1.254 . S
C569 O575 1.268 . S
O570 Dy563 2.351 . S
O570 C578 1.249 . S
O571 Dy560 2.326 . S
O571 C578 1.267 . S
O572 C561 1.185 . S
O572 Dy563 2.398 . S
O573 C561 1.355 . S
O573 Dy563 2.491 . S
O574 Dy563 2.403 . S
O574 C569 1.254 . S
O575 Dy560 2.310 . S
O575 Dy563 2.664 . S
O575 C569 1.268 . S
O576 Dy560 2.351 . S
O576 C579 1.249 . S
O577 Dy563 2.326 . S
O577 C579 1.267 . S
C578 O570 1.249 . S
C578 O571 1.267 . S
C579 O576 1.249 . S
C579 O577 1.267 . S
Dy580 O584 2.398 . S
Dy580 O585 2.491 . S
Dy580 O586 2.403 . S
Dy580 O587 2.664 . S
Dy580 O591 2.326 . S
Dy580 O595 2.310 . S
Dy580 O596 2.351 . S
C581 O592 1.185 . S
C581 O593 1.355 . S
C582 O584 1.185 . S
C582 O585 1.355 . S
Dy583 O587 2.310 . S
Dy583 O590 2.351 . S
Dy583 O592 2.398 . S
Dy583 O593 2.491 . S
Dy583 O594 2.403 . S
Dy583 O595 2.664 . S
Dy583 O597 2.326 . S
O584 Dy580 2.398 . S
O584 C582 1.185 . S
O585 Dy580 2.491 . S
O585 C582 1.355 . S
O586 Dy580 2.403 . S
O586 C588 1.254 . S
O587 Dy580 2.664 . S
O587 Dy583 2.310 . S
O587 C588 1.268 . S
C588 O586 1.254 . S
C588 O587 1.268 . S
C589 O594 1.254 . S
C589 O595 1.268 . S
O590 Dy583 2.351 . S
O590 C598 1.249 . S
O591 Dy580 2.326 . S
O591 C598 1.267 . S
O592 C581 1.185 . S
O592 Dy583 2.398 . S
O593 C581 1.355 . S
O593 Dy583 2.491 . S
O594 Dy583 2.403 . S
O594 C589 1.254 . S
O595 Dy580 2.310 . S
O595 Dy583 2.664 . S
O595 C589 1.268 . S
O596 Dy580 2.351 . S
O596 C599 1.249 . S
O597 Dy583 2.326 . S
O597 C599 1.267 . S
C598 O590 1.249 . S
C598 O591 1.267 . S
C599 O596 1.249 . S
C599 O597 1.267 . S
Dy600 O604 2.398 . S
Dy600 O605 2.491 . S
Dy600 O606 2.403 . S
Dy600 O607 2.664 . S
Dy600 O611 2.326 . S
Dy600 O615 2.310 . S
Dy600 O616 2.351 . S
C601 O612 1.185 . S
C601 O613 1.355 . S
C602 O604 1.185 . S
C602 O605 1.355 . S
Dy603 O607 2.310 . S
Dy603 O610 2.351 . S
Dy603 O612 2.398 . S
Dy603 O613 2.491 . S
Dy603 O614 2.403 . S
Dy603 O615 2.664 . S
Dy603 O617 2.326 . S
O604 Dy600 2.398 . S
O604 C602 1.185 . S
O605 Dy600 2.491 . S
O605 C602 1.355 . S
O606 Dy600 2.403 . S
O606 C608 1.254 . S
O607 Dy600 2.664 . S
O607 Dy603 2.310 . S
O607 C608 1.268 . S
C608 O606 1.254 . S
C608 O607 1.268 . S
C609 O614 1.254 . S
C609 O615 1.268 . S
O610 Dy603 2.351 . S
O610 C618 1.249 . S
O611 Dy600 2.326 . S
O611 C618 1.267 . S
O612 C601 1.185 . S
O612 Dy603 2.398 . S
O613 C601 1.355 . S
O613 Dy603 2.491 . S
O614 Dy603 2.403 . S
O614 C609 1.254 . S
O615 Dy600 2.310 . S
O615 Dy603 2.664 . S
O615 C609 1.268 . S
O616 Dy600 2.351 . S
O616 C619 1.249 . S
O617 Dy603 2.326 . S
O617 C619 1.267 . S
C618 O610 1.249 . S
C618 O611 1.267 . S
C619 O616 1.249 . S
C619 O617 1.267 . S
Dy620 O624 2.398 . S
Dy620 O625 2.491 . S
Dy620 O626 2.403 . S
Dy620 O627 2.664 . S
Dy620 O631 2.326 . S
Dy620 O635 2.310 . S
Dy620 O636 2.351 . S
C621 O632 1.185 . S
C621 O633 1.355 . S
C622 O624 1.185 . S
C622 O625 1.355 . S
Dy623 O627 2.310 . S
Dy623 O630 2.351 . S
Dy623 O632 2.398 . S
Dy623 O633 2.491 . S
Dy623 O634 2.403 . S
Dy623 O635 2.664 . S
Dy623 O637 2.326 . S
O624 Dy620 2.398 . S
O624 C622 1.185 . S
O625 Dy620 2.491 . S
O625 C622 1.355 . S
O626 Dy620 2.403 . S
O626 C628 1.254 . S
O627 Dy620 2.664 . S
O627 Dy623 2.310 . S
O627 C628 1.268 . S
C628 O626 1.254 . S
C628 O627 1.268 . S
C629 O634 1.254 . S
C629 O635 1.268 . S
O630 Dy623 2.351 . S
O630 C638 1.249 . S
O631 Dy620 2.326 . S
O631 C638 1.267 . S
O632 C621 1.185 . S
O632 Dy623 2.398 . S
O633 C621 1.355 . S
O633 Dy623 2.491 . S
O634 Dy623 2.403 . S
O634 C629 1.254 . S
O635 Dy620 2.310 . S
O635 Dy623 2.664 . S
O635 C629 1.268 . S
O636 Dy620 2.351 . S
O636 C639 1.249 . S
O637 Dy623 2.326 . S
O637 C639 1.267 . S
C638 O630 1.249 . S
C638 O631 1.267 . S
C639 O636 1.249 . S
C639 O637 1.267 . S
Dy640 O644 2.398 . S
Dy640 O645 2.491 . S
Dy640 O646 2.403 . S
Dy640 O647 2.664 . S
Dy640 O651 2.326 . S
Dy640 O655 2.310 . S
Dy640 O656 2.351 . S
C641 O652 1.185 . S
C641 O653 1.355 . S
C642 O644 1.185 . S
C642 O645 1.355 . S
Dy643 O647 2.310 . S
Dy643 O650 2.351 . S
Dy643 O652 2.398 . S
Dy643 O653 2.491 . S
Dy643 O654 2.403 . S
Dy643 O655 2.664 . S
Dy643 O657 2.326 . S
O644 Dy640 2.398 . S
O644 C642 1.185 . S
O645 Dy640 2.491 . S
O645 C642 1.355 . S
O646 Dy640 2.403 . S
O646 C648 1.254 . S
O647 Dy640 2.664 . S
O647 Dy643 2.310 . S
O647 C648 1.268 . S
C648 O646 1.254 . S
C648 O647 1.268 . S
C649 O654 1.254 . S
C649 O655 1.268 . S
O650 Dy643 2.351 . S
O650 C658 1.249 . S
O651 Dy640 2.326 . S
O651 C658 1.267 . S
O652 C641 1.185 . S
O652 Dy643 2.398 . S
O653 C641 1.355 . S
O653 Dy643 2.491 . S
O654 Dy643 2.403 . S
O654 C649 1.254 . S
O655 Dy640 2.310 . S
O655 Dy643 2.664 . S
O655 C649 1.268 . S
O656 Dy640 2.351 . S
O656 C659 1.249 . S
O657 Dy643 2.326 . S
O657 C659 1.267 . S
C658 O650 1.249 . S
C658 O651 1.267 . S
C659 O656 1.249 . S
C659 O657 1.267 . S
Dy660 O664 2.398 . S
Dy660 O665 2.491 . S
Dy660 O666 2.403 . S
Dy660 O667 2.664 . S
Dy660 O671 2.326 . S
Dy660 O675 2.310 . S
Dy660 O676 2.351 . S
C661 O672 1.185 . S
C661 O673 1.355 . S
C662 O664 1.185 . S
C662 O665 1.355 . S
Dy663 O667 2.310 . S
Dy663 O670 2.351 . S
Dy663 O672 2.398 . S
Dy663 O673 2.491 . S
Dy663 O674 2.403 . S
Dy663 O675 2.664 . S
Dy663 O677 2.326 . S
O664 Dy660 2.398 . S
O664 C662 1.185 . S
O665 Dy660 2.491 . S
O665 C662 1.355 . S
O666 Dy660 2.403 . S
O666 C668 1.254 . S
O667 Dy660 2.664 . S
O667 Dy663 2.310 . S
O667 C668 1.268 . S
C668 O666 1.254 . S
C668 O667 1.268 . S
C669 O674 1.254 . S
C669 O675 1.268 . S
O670 Dy663 2.351 . S
O670 C678 1.249 . S
O671 Dy660 2.326 . S
O671 C678 1.267 . S
O672 C661 1.185 . S
O672 Dy663 2.398 . S
O673 C661 1.355 . S
O673 Dy663 2.491 . S
O674 Dy663 2.403 . S
O674 C669 1.254 . S
O675 Dy660 2.310 . S
O675 Dy663 2.664 . S
O675 C669 1.268 . S
O676 Dy660 2.351 . S
O676 C679 1.249 . S
O677 Dy663 2.326 . S
O677 C679 1.267 . S
C678 O670 1.249 . S
C678 O671 1.267 . S
C679 O676 1.249 . S
C679 O677 1.267 . S
Dy680 O684 2.398 . S
Dy680 O685 2.491 . S
Dy680 O686 2.403 . S
Dy680 O687 2.664 . S
Dy680 O691 2.326 . S
Dy680 O695 2.310 . S
Dy680 O696 2.351 . S
C681 O692 1.185 . S
C681 O693 1.355 . S
C682 O684 1.185 . S
C682 O685 1.355 . S
Dy683 O687 2.310 . S
Dy683 O690 2.351 . S
Dy683 O692 2.398 . S
Dy683 O693 2.491 . S
Dy683 O694 2.403 . S
Dy683 O695 2.664 . S
Dy683 O697 2.326 . S
O684 Dy680 2.398 . S
O684 C682 1.185 . S
O685 Dy680 2.491 . S
O685 C682 1.355 . S
O686 Dy680 2.403 . S
O686 C688 1.254 . S
O687 Dy680 2.664 . S
O687 Dy683 2.310 . S
O687 C688 1.268 . S
C688 O686 1.254 . S
C688 O687 1.268 . S
C689 O694 1.254 . S
C689 O695 1.268 . S
O690 Dy683 2.351 . S
O690 C698 1.249 . S
O691 Dy680 2.326 . S
O691 C698 1.267 . S
O692 C681 1.185 . S
O692 Dy683 2.398 . S
O693 C681 1.355 . S
O693 Dy683 2.491 . S
O694 Dy683 2.403 . S
O694 C689 1.254 . S
O695 Dy680 2.310 . S
O695 Dy683 2.664 . S
O695 C689 1.268 . S
O696 Dy680 2.351 . S
O696 C699 1.249 . S
O697 Dy683 2.326 . S
O697 C699 1.267 . S
C698 O690 1.249 . S
C698 O691 1.267 . S
C699 O696 1.249 . S
C699 O697 1.267 . S
Dy700 O704 2.398 . S
Dy700 O705 2.491 . S
Dy700 O706 2.403 . S
Dy700 O707 2.664 . S
Dy700 O711 2.326 . S
Dy700 O715 2.310 . S
Dy700 O716 2.351 . S
C701 O712 1.185 . S
C701 O713 1.355 . S
C702 O704 1.185 . S
C702 O705 1.355 . S
Dy703 O707 2.310 . S
Dy703 O710 2.351 . S
Dy703 O712 2.398 . S
Dy703 O713 2.491 . S
Dy703 O714 2.403 . S
Dy703 O715 2.664 . S
Dy703 O717 2.326 . S
O704 Dy700 2.398 . S
O704 C702 1.185 . S
O705 Dy700 2.491 . S
O705 C702 1.355 . S
O706 Dy700 2.403 . S
O706 C708 1.254 . S
O707 Dy700 2.664 . S
O707 Dy703 2.310 . S
O707 C708 1.268 . S
C708 O706 1.254 . S
C708 O707 1.268 . S
C709 O714 1.254 . S
C709 O715 1.268 . S
O710 Dy703 2.351 . S
O710 C718 1.249 . S
O711 Dy700 2.326 . S
O711 C718 1.267 . S
O712 C701 1.185 . S
O712 Dy703 2.398 . S
O713 C701 1.355 . S
O713 Dy703 2.491 . S
O714 Dy703 2.403 . S
O714 C709 1.254 . S
O715 Dy700 2.310 . S
O715 Dy703 2.664 . S
O715 C709 1.268 . S
O716 Dy700 2.351 . S
O716 C719 1.249 . S
O717 Dy703 2.326 . S
O717 C719 1.267 . S
C718 O710 1.249 . S
C718 O711 1.267 . S
C719 O716 1.249 . S
C719 O717 1.267 . S
C720 C721 1.363 . S
C720 C726 1.379 . S
C720 N728 1.356 . S
C721 C720 1.363 . S
C721 C727 1.363 1_554 S
C722 C723 1.363 . S
C722 C727 1.379 . S
C722 N729 1.356 . S
C723 C722 1.363 . S
C723 C726 1.363 1_556 S
N724 C726 1.356 . S
N724 H736 0.984 . S
N724 H737 0.985 1_545 S
N725 C727 1.356 . S
N725 H730 0.984 . S
N725 H731 0.985 . S
C726 C720 1.379 . S
C726 C723 1.363 1_554 S
C726 N724 1.356 . S
C727 C721 1.363 1_556 S
C727 C722 1.379 . S
C727 N725 1.356 . S
N728 C720 1.356 . S
N728 H734 0.984 . S
N728 H735 0.984 . S
N729 C722 1.356 . S
N729 H732 0.984 . S
N729 H733 0.985 . S
H730 N725 0.984 . S
H731 N725 0.985 . S
H732 N729 0.984 . S
H733 N729 0.985 . S
H734 N728 0.984 . S
H735 N728 0.984 . S
H736 N724 0.984 . S
H737 N724 0.985 1_565 S
C738 C739 1.363 1_554 S
C738 C744 1.379 . S
C738 N746 1.356 . S
C739 C738 1.363 1_556 S
C739 C745 1.363 . S
C740 C741 1.363 1_556 S
C740 C745 1.379 . S
C740 N747 1.356 . S
C741 C740 1.363 1_554 S
C741 C744 1.363 . S
N742 C744 1.356 . S
N742 H754 0.984 . S
N742 H755 0.985 . S
N743 C745 1.356 . S
N743 H748 0.984 . S
N743 H749 0.985 . S
C744 C738 1.379 . S
C744 C741 1.363 . S
C744 N742 1.356 . S
C745 C739 1.363 . S
C745 C740 1.379 . S
C745 N743 1.356 . S
N746 C738 1.356 . S
N746 H752 0.984 . S
N746 H753 0.984 1_655 S
N747 C740 1.356 . S
N747 H750 0.984 . S
N747 H751 0.985 . S
H748 N743 0.984 . S
H749 N743 0.985 . S
H750 N747 0.984 . S
H751 N747 0.985 . S
H752 N746 0.984 . S
H753 N746 0.984 1_455 S
H754 N742 0.984 . S
H755 N742 0.985 . S
C756 C757 1.363 1_554 S
C756 C762 1.379 . S
C756 N764 1.356 . S
C757 C756 1.363 1_556 S
C757 C763 1.363 . S
C758 C759 1.363 . S
C758 C763 1.379 1_554 S
C758 N765 1.356 . S
C759 C758 1.363 . S
C759 C762 1.363 . S
N760 C762 1.356 . S
N760 H772 0.984 . S
N760 H773 0.985 . S
N761 C763 1.356 . S
N761 H766 0.984 . S
N761 H767 0.985 . S
C762 C756 1.379 . S
C762 C759 1.363 . S
C762 N760 1.356 . S
C763 C757 1.363 . S
C763 C758 1.379 1_556 S
C763 N761 1.356 . S
N764 C756 1.356 . S
N764 H770 0.984 . S
N764 H771 0.984 . S
N765 C758 1.356 . S
N765 H768 0.984 . S
N765 H769 0.985 1_554 S
H766 N761 0.984 . S
H767 N761 0.985 . S
H768 N765 0.984 . S
H769 N765 0.985 1_556 S
H770 N764 0.984 . S
H771 N764 0.984 . S
H772 N760 0.984 . S
H773 N760 0.985 . S
C774 C775 1.363 . S
C774 C780 1.379 . S
C774 N782 1.356 . S
C775 C774 1.363 . S
C775 C781 1.363 . S
C776 C777 1.363 . S
C776 C781 1.379 . S
C776 N783 1.356 . S
C777 C776 1.363 . S
C777 C780 1.363 . S
N778 C780 1.356 . S
N778 H790 0.984 . S
N778 H791 0.985 . S
N779 C781 1.356 . S
N779 H784 0.984 1_455 S
N779 H785 0.985 . S
C780 C774 1.379 . S
C780 C777 1.363 . S
C780 N778 1.356 . S
C781 C775 1.363 . S
C781 C776 1.379 . S
C781 N779 1.356 . S
N782 C774 1.356 . S
N782 H788 0.984 . S
N782 H789 0.984 . S
N783 C776 1.356 . S
N783 H786 0.984 . S
N783 H787 0.985 . S
H784 N779 0.984 1_655 S
H785 N779 0.985 . S
H786 N783 0.984 . S
H787 N783 0.985 . S
H788 N782 0.984 . S
H789 N782 0.984 . S
H790 N778 0.984 . S
H791 N778 0.985 . S
C792 C793 1.363 . S
C792 C798 1.379 . S
C792 N800 1.356 . S
C793 C792 1.363 . S
C793 C799 1.363 . S
C794 C795 1.363 . S
C794 C799 1.379 . S
C794 N801 1.356 . S
C795 C794 1.363 . S
C795 C798 1.363 . S
N796 C798 1.356 . S
N796 H808 0.984 . S
N796 H809 0.985 . S
N797 C799 1.356 . S
N797 H802 0.984 . S
N797 H803 0.985 . S
C798 C792 1.379 . S
C798 C795 1.363 . S
C798 N796 1.356 . S
C799 C793 1.363 . S
C799 C794 1.379 . S
C799 N797 1.356 . S
N800 C792 1.356 . S
N800 H806 0.984 . S
N800 H807 0.984 . S
N801 C794 1.356 . S
N801 H804 0.984 . S
N801 H805 0.985 . S
H802 N797 0.984 . S
H803 N797 0.985 . S
H804 N801 0.984 . S
H805 N801 0.985 . S
H806 N800 0.984 . S
H807 N800 0.984 . S
H808 N796 0.984 . S
H809 N796 0.985 . S
C810 C811 1.363 . S
C810 C816 1.379 . S
C810 N818 1.356 . S
C811 C810 1.363 . S
C811 C817 1.363 . S
C812 C813 1.363 . S
C812 C817 1.379 . S
C812 N819 1.356 . S
C813 C812 1.363 . S
C813 C816 1.363 . S
N814 C816 1.336 1_545 S
N814 H826 1.000 . S
N814 H827 0.990 . S
N815 C817 1.356 . S
N815 H820 0.984 . S
N815 H821 0.985 . S
C816 C810 1.379 . S
C816 C813 1.363 . S
C816 N814 1.336 1_565 S
C817 C811 1.363 . S
C817 C812 1.379 . S
C817 N815 1.356 . S
N818 C810 1.356 . S
N818 H824 0.984 . S
N818 H825 0.984 . S
N819 C812 1.356 . S
N819 H822 0.984 . S
N819 H823 0.985 . S
H820 N815 0.984 . S
H821 N815 0.985 . S
H822 N819 0.984 . S
H823 N819 0.985 . S
H824 N818 0.984 . S
H825 N818 0.984 . S
H826 N814 1.000 . S
H827 N814 0.990 . S
C828 C829 1.363 . S
C828 C834 1.379 . S
C828 N836 1.356 . S
C829 C828 1.363 . S
C829 C835 1.363 1_554 S
C830 C831 1.363 . S
C830 C835 1.379 . S
C830 N837 1.356 . S
C831 C830 1.363 . S
C831 C834 1.363 1_556 S
N832 C834 1.356 . S
N832 H844 0.984 . S
N832 H845 0.985 1_554 S
N833 C835 1.356 . S
N833 H838 0.984 1_565 S
N833 H839 0.985 . S
C834 C828 1.379 . S
C834 C831 1.363 1_554 S
C834 N832 1.356 . S
C835 C829 1.363 1_556 S
C835 C830 1.379 . S
C835 N833 1.356 . S
N836 C828 1.356 . S
N836 H842 0.984 . S
N836 H843 0.984 . S
N837 C830 1.356 . S
N837 H840 0.984 . S
N837 H841 0.985 . S
H838 N833 0.984 1_545 S
H839 N833 0.985 . S
H840 N837 0.984 . S
H841 N837 0.985 . S
H842 N836 0.984 . S
H843 N836 0.984 . S
H844 N832 0.984 . S
H845 N832 0.985 1_556 S
C846 C847 1.363 . S
C846 C852 1.379 . S
C846 N854 1.356 . S
C847 C846 1.363 . S
C847 C853 1.359 1_556 S
C848 C849 1.363 . S
C848 C853 1.381 . S
C848 N855 1.356 . S
C849 C848 1.363 . S
C849 C852 1.363 1_554 S
N850 C852 1.356 1_655 S
N850 H862 0.984 . S
N850 H863 0.985 . S
N851 C853 1.357 . S
N851 H856 0.984 1_554 S
N851 H857 0.985 . S
C852 C846 1.379 . S
C852 C849 1.363 1_556 S
C852 N850 1.356 1_455 S
C853 C847 1.359 1_554 S
C853 C848 1.381 . S
C853 N851 1.357 . S
N854 C846 1.356 . S
N854 H860 0.984 . S
N854 H861 0.984 . S
N855 C848 1.356 . S
N855 H858 0.984 . S
N855 H859 0.985 . S
H856 N851 0.984 1_556 S
H857 N851 0.985 . S
H858 N855 0.984 . S
H859 N855 0.985 . S
H860 N854 0.984 . S
H861 N854 0.984 . S
H862 N850 0.984 . S
H863 N850 0.985 . S
C864 C865 1.363 1_556 S
C864 C870 1.379 . S
C864 N872 1.356 . S
C865 C864 1.363 1_554 S
C865 C871 1.363 . S
C866 C867 1.363 . S
C866 C871 1.379 1_556 S
C866 N873 1.356 1_556 S
C867 C866 1.363 . S
C867 C870 1.363 . S
N868 C870 1.356 . S
N868 H880 0.984 . S
N868 H881 0.985 . S
N869 C871 1.356 . S
N869 H874 0.984 . S
N869 H875 0.985 . S
C870 C864 1.379 . S
C870 C867 1.363 . S
C870 N868 1.356 . S
C871 C865 1.363 . S
C871 C866 1.379 1_554 S
C871 N869 1.356 . S
N872 C864 1.356 . S
N872 H878 0.984 . S
N872 H879 0.984 . S
N873 C866 1.356 1_554 S
N873 H876 0.984 1_554 S
N873 H877 0.985 . S
H874 N869 0.984 . S
H875 N869 0.985 . S
H876 N873 0.984 1_556 S
H877 N873 0.985 . S
H878 N872 0.984 . S
H879 N872 0.984 . S
H880 N868 0.984 . S
H881 N868 0.985 . S
C882 C883 1.363 . S
C882 C888 1.379 . S
C882 N890 1.356 1_655 S
C883 C882 1.363 . S
C883 C889 1.363 . S
C884 C885 1.363 . S
C884 C889 1.379 . S
C884 N891 1.356 . S
C885 C884 1.363 . S
C885 C888 1.363 . S
N886 C888 1.356 . S
N886 H898 0.984 . S
N886 H899 0.985 . S
N887 C889 1.356 . S
N887 H892 0.984 . S
N887 H893 0.985 . S
C888 C882 1.379 . S
C888 C885 1.363 . S
C888 N886 1.356 . S
C889 C883 1.363 . S
C889 C884 1.379 . S
C889 N887 1.356 . S
N890 C882 1.356 1_455 S
N890 H896 0.984 . S
N890 H897 0.984 . S
N891 C884 1.356 . S
N891 H894 0.984 . S
N891 H895 0.985 . S
H892 N887 0.984 . S
H893 N887 0.985 . S
H894 N891 0.984 . S
H895 N891 0.985 . S
H896 N890 0.984 . S
H897 N890 0.984 . S
H898 N886 0.984 . S
H899 N886 0.985 . S
C900 C901 1.363 . S
C900 C906 1.379 . S
C900 N908 1.356 . S
C901 C900 1.363 . S
C901 C907 1.363 . S
C902 C903 1.363 . S
C902 C907 1.379 . S
C902 N909 1.356 . S
C903 C902 1.363 . S
C903 C906 1.363 . S
N904 C906 1.356 . S
N904 H916 0.984 . S
N904 H917 0.985 . S
N905 C907 1.356 . S
N905 H910 0.984 . S
N905 H911 0.985 . S
C906 C900 1.379 . S
C906 C903 1.363 . S
C906 N904 1.356 . S
C907 C901 1.363 . S
C907 C902 1.379 . S
C907 N905 1.356 . S
N908 C900 1.356 . S
N908 H914 0.984 . S
N908 H915 0.984 . S
N909 C902 1.356 . S
N909 H912 0.984 . S
N909 H913 0.985 . S
H910 N905 0.984 . S
H911 N905 0.985 . S
H912 N909 0.984 . S
H913 N909 0.985 . S
H914 N908 0.984 . S
H915 N908 0.984 . S
H916 N904 0.984 . S
H917 N904 0.985 . S
C918 C919 1.363 . S
C918 C924 1.379 . S
C918 N926 1.356 . S
C919 C918 1.363 . S
C919 C925 1.363 . S
C920 C921 1.363 . S
C920 C925 1.379 . S
C920 N927 1.356 1_545 S
C921 C920 1.363 . S
C921 C924 1.363 . S
N922 C924 1.356 . S
N922 H934 0.984 . S
N922 H935 0.985 . S
N923 C925 1.356 . S
N923 H928 0.984 . S
N923 H929 0.985 . S
C924 C918 1.379 . S
C924 C921 1.363 . S
C924 N922 1.356 . S
C925 C919 1.363 . S
C925 C920 1.379 . S
C925 N923 1.356 . S
N926 C918 1.356 . S
N926 H932 0.984 . S
N926 H933 0.984 . S
N927 C920 1.356 1_565 S
N927 H930 0.984 . S
N927 H931 0.985 . S
H928 N923 0.984 . S
H929 N923 0.985 . S
H930 N927 0.984 . S
H931 N927 0.985 . S
H932 N926 0.984 . S
H933 N926 0.984 . S
H934 N922 0.984 . S
H935 N922 0.985 . S
C936 C937 1.363 . S
C936 C942 1.379 . S
C936 N944 1.356 . S
C937 C936 1.363 . S
C937 C943 1.363 . S
C938 C939 1.363 . S
C938 C943 1.379 . S
C938 N945 1.356 . S
C939 C938 1.363 . S
C939 C942 1.363 . S
N940 C942 1.356 . S
N940 H952 0.984 . S
N940 H953 0.985 . S
N941 C943 1.356 . S
N941 H946 0.984 . S
N941 H947 0.985 . S
C942 C936 1.379 . S
C942 C939 1.363 . S
C942 N940 1.356 . S
C943 C937 1.363 . S
C943 C938 1.379 . S
C943 N941 1.356 . S
N944 C936 1.356 . S
N944 H950 0.984 . S
N944 H951 0.984 . S
N945 C938 1.356 . S
N945 H948 0.984 . S
N945 H949 0.985 . S
H946 N941 0.984 . S
H947 N941 0.985 . S
H948 N945 0.984 . S
H949 N945 0.985 . S
H950 N944 0.984 . S
H951 N944 0.984 . S
H952 N940 0.984 . S
H953 N940 0.985 . S
C954 C955 1.363 . S
C954 C960 1.379 . S
C954 N962 1.356 . S
C955 C954 1.363 . S
C955 C961 1.363 . S
C956 C957 1.363 . S
C956 C961 1.379 . S
C956 N963 1.356 . S
C957 C956 1.363 . S
C957 C960 1.363 . S
N958 C960 1.356 . S
N958 H970 0.984 . S
N958 H971 0.985 . S
N959 C961 1.356 . S
N959 H964 0.984 . S
N959 H965 0.985 . S
C960 C954 1.379 . S
C960 C957 1.363 . S
C960 N958 1.356 . S
C961 C955 1.363 . S
C961 C956 1.379 . S
C961 N959 1.356 . S
N962 C954 1.356 . S
N962 H968 0.984 . S
N962 H969 0.984 . S
N963 C956 1.356 . S
N963 H966 0.984 . S
N963 H967 0.985 . S
H964 N959 0.984 . S
H965 N959 0.985 . S
H966 N963 0.984 . S
H967 N963 0.985 . S
H968 N962 0.984 . S
H969 N962 0.984 . S
H970 N958 0.984 . S
H971 N958 0.985 . S
C972 C973 1.363 . S
C972 C978 1.379 . S
C972 N980 1.356 . S
C973 C972 1.363 . S
C973 C979 1.363 . S
C974 C975 1.363 . S
C974 C979 1.379 . S
C974 N981 1.356 . S
C975 C974 1.363 . S
C975 C978 1.363 . S
N976 C978 1.356 . S
N976 H988 0.984 . S
N976 H989 0.985 . S
N977 C979 1.356 . S
N977 H982 0.984 . S
N977 H983 0.985 . S
C978 C972 1.379 . S
C978 C975 1.363 . S
C978 N976 1.356 . S
C979 C973 1.363 . S
C979 C974 1.379 . S
C979 N977 1.356 . S
N980 C972 1.356 . S
N980 H986 0.984 . S
N980 H987 0.984 . S
N981 C974 1.356 . S
N981 H984 0.984 . S
N981 H985 0.985 . S
H982 N977 0.984 . S
H983 N977 0.985 . S
H984 N981 0.984 . S
H985 N981 0.985 . S
H986 N980 0.984 . S
H987 N980 0.984 . S
H988 N976 0.984 . S
H989 N976 0.985 . S
C990 C991 1.363 . S
C990 C996 1.379 . S
C990 N998 1.356 . S
C991 C990 1.363 . S
C991 C997 1.363 . S
C992 C993 1.363 . S
C992 C997 1.379 . S
C992 N999 1.356 . S
C993 C992 1.363 . S
C993 C996 1.363 . S
N994 C996 1.356 . S
N994 H1006 0.984 . S
N994 H1007 0.985 . S
N995 C997 1.356 . S
N995 H1000 0.984 . S
N995 H1001 0.985 . S
C996 C990 1.379 . S
C996 C993 1.363 . S
C996 N994 1.356 . S
C997 C991 1.363 . S
C997 C992 1.379 . S
C997 N995 1.356 . S
N998 C990 1.356 . S
N998 H1004 0.984 . S
N998 H1005 0.984 . S
N999 C992 1.356 . S
N999 H1002 0.984 . S
N999 H1003 0.985 . S
H1000 N995 0.984 . S
H1001 N995 0.985 . S
H1002 N999 0.984 . S
H1003 N999 0.985 . S
H1004 N998 0.984 . S
H1005 N998 0.984 . S
H1006 N994 0.984 . S
H1007 N994 0.985 . S
C1008 C1009 1.363 . S
C1008 C1014 1.379 . S
C1008 N1016 1.356 . S
C1009 C1008 1.363 . S
C1009 C1015 1.363 . S
C1010 C1011 1.363 . S
C1010 C1015 1.379 . S
C1010 N1017 1.356 . S
C1011 C1010 1.363 . S
C1011 C1014 1.363 . S
N1012 C1014 1.356 . S
N1012 H1024 0.984 . S
N1012 H1025 0.985 . S
N1013 C1015 1.356 . S
N1013 H1018 0.984 . S
N1013 H1019 0.985 . S
C1014 C1008 1.379 . S
C1014 C1011 1.363 . S
C1014 N1012 1.356 . S
C1015 C1009 1.363 . S
C1015 C1010 1.379 . S
C1015 N1013 1.356 . S
N1016 C1008 1.356 . S
N1016 H1022 0.984 . S
N1016 H1023 0.984 . S
N1017 C1010 1.356 . S
N1017 H1020 0.984 . S
N1017 H1021 0.985 . S
H1018 N1013 0.984 . S
H1019 N1013 0.985 . S
H1020 N1017 0.984 . S
H1021 N1017 0.985 . S
H1022 N1016 0.984 . S
H1023 N1016 0.984 . S
H1024 N1012 0.984 . S
H1025 N1012 0.985 . S
C1026 C1027 1.363 . S
C1026 C1032 1.379 . S
C1026 N1034 1.356 . S
C1027 C1026 1.363 . S
C1027 C1033 1.363 . S
C1028 C1029 1.363 . S
C1028 C1033 1.379 . S
C1028 N1035 1.356 . S
C1029 C1028 1.363 . S
C1029 C1032 1.363 . S
N1030 C1032 1.356 . S
N1030 H1042 0.984 . S
N1030 H1043 0.985 . S
N1031 C1033 1.356 . S
N1031 H1036 0.984 . S
N1031 H1037 0.985 . S
C1032 C1026 1.379 . S
C1032 C1029 1.363 . S
C1032 N1030 1.356 . S
C1033 C1027 1.363 . S
C1033 C1028 1.379 . S
C1033 N1031 1.356 . S
N1034 C1026 1.356 . S
N1034 H1040 0.984 . S
N1034 H1041 0.984 . S
N1035 C1028 1.356 . S
N1035 H1038 0.984 . S
N1035 H1039 0.985 . S
H1036 N1031 0.984 . S
H1037 N1031 0.985 . S
H1038 N1035 0.984 . S
H1039 N1035 0.985 . S
H1040 N1034 0.984 . S
H1041 N1034 0.984 . S
H1042 N1030 0.984 . S
H1043 N1030 0.985 . S
C1044 C1045 1.363 . S
C1044 C1050 1.379 . S
C1044 N1052 1.356 . S
C1045 C1044 1.363 . S
C1045 C1051 1.363 . S
C1046 C1047 1.363 . S
C1046 C1051 1.379 . S
C1046 N1053 1.356 . S
C1047 C1046 1.363 . S
C1047 C1050 1.363 . S
N1048 C1050 1.356 . S
N1048 H1060 0.984 . S
N1048 H1061 0.985 . S
N1049 C1051 1.356 . S
N1049 H1054 0.984 . S
N1049 H1055 0.985 . S
C1050 C1044 1.379 . S
C1050 C1047 1.363 . S
C1050 N1048 1.356 . S
C1051 C1045 1.363 . S
C1051 C1046 1.379 . S
C1051 N1049 1.356 . S
N1052 C1044 1.356 . S
N1052 H1058 0.984 . S
N1052 H1059 0.984 . S
N1053 C1046 1.356 . S
N1053 H1056 0.984 . S
N1053 H1057 0.985 . S
H1054 N1049 0.984 . S
H1055 N1049 0.985 . S
H1056 N1053 0.984 . S
H1057 N1053 0.985 . S
H1058 N1052 0.984 . S
H1059 N1052 0.984 . S
H1060 N1048 0.984 . S
H1061 N1048 0.985 . S
C1062 C1063 1.363 . S
C1062 C1068 1.379 . S
C1062 N1070 1.356 . S
C1063 C1062 1.363 . S
C1063 C1069 1.363 . S
C1064 C1065 1.363 . S
C1064 C1069 1.379 . S
C1064 N1071 1.356 . S
C1065 C1064 1.363 . S
C1065 C1068 1.363 . S
N1066 C1068 1.356 . S
N1066 H1078 0.984 . S
N1066 H1079 0.985 . S
N1067 C1069 1.356 . S
N1067 H1072 0.984 . S
N1067 H1073 0.985 . S
C1068 C1062 1.379 . S
C1068 C1065 1.363 . S
C1068 N1066 1.356 . S
C1069 C1063 1.363 . S
C1069 C1064 1.379 . S
C1069 N1067 1.356 . S
N1070 C1062 1.356 . S
N1070 H1076 0.984 . S
N1070 H1077 0.984 . S
N1071 C1064 1.356 . S
N1071 H1074 0.984 . S
N1071 H1075 0.985 . S
H1072 N1067 0.984 . S
H1073 N1067 0.985 . S
H1074 N1071 0.984 . S
H1075 N1071 0.985 . S
H1076 N1070 0.984 . S
H1077 N1070 0.984 . S
H1078 N1066 0.984 . S
H1079 N1066 0.985 . S
C1080 C1081 1.363 . S
C1080 C1086 1.379 . S
C1080 N1088 1.356 . S
C1081 C1080 1.363 . S
C1081 C1087 1.363 . S
C1082 C1083 1.363 . S
C1082 C1087 1.379 . S
C1082 N1089 1.356 . S
C1083 C1082 1.363 . S
C1083 C1086 1.363 . S
N1084 C1086 1.356 . S
N1084 H1096 0.984 . S
N1084 H1097 0.985 . S
N1085 C1087 1.356 . S
N1085 H1090 0.984 . S
N1085 H1091 0.985 . S
C1086 C1080 1.379 . S
C1086 C1083 1.363 . S
C1086 N1084 1.356 . S
C1087 C1081 1.363 . S
C1087 C1082 1.379 . S
C1087 N1085 1.356 . S
N1088 C1080 1.356 . S
N1088 H1094 0.984 . S
N1088 H1095 0.984 . S
N1089 C1082 1.356 . S
N1089 H1092 0.984 . S
N1089 H1093 0.985 . S
H1090 N1085 0.984 . S
H1091 N1085 0.985 . S
H1092 N1089 0.984 . S
H1093 N1089 0.985 . S
H1094 N1088 0.984 . S
H1095 N1088 0.984 . S
H1096 N1084 0.984 . S
H1097 N1084 0.985 . S
C1098 C1099 1.363 . S
C1098 C1104 1.379 . S
C1098 N1106 1.356 . S
C1099 C1098 1.363 . S
C1099 C1105 1.363 . S
C1100 C1101 1.363 . S
C1100 C1105 1.379 . S
C1100 N1107 1.356 . S
C1101 C1100 1.363 . S
C1101 C1104 1.363 . S
N1102 C1104 1.356 . S
N1102 H1114 0.984 . S
N1102 H1115 0.985 . S
N1103 C1105 1.356 . S
N1103 H1108 0.984 . S
N1103 H1109 0.985 . S
C1104 C1098 1.379 . S
C1104 C1101 1.363 . S
C1104 N1102 1.356 . S
C1105 C1099 1.363 . S
C1105 C1100 1.379 . S
C1105 N1103 1.356 . S
N1106 C1098 1.356 . S
N1106 H1112 0.984 . S
N1106 H1113 0.984 . S
N1107 C1100 1.356 . S
N1107 H1110 0.984 . S
N1107 H1111 0.985 . S
H1108 N1103 0.984 . S
H1109 N1103 0.985 . S
H1110 N1107 0.984 . S
H1111 N1107 0.985 . S
H1112 N1106 0.984 . S
H1113 N1106 0.984 . S
H1114 N1102 0.984 . S
H1115 N1102 0.985 . S
C1116 C1117 1.363 . S
C1116 C1122 1.379 . S
C1116 N1124 1.356 . S
C1117 C1116 1.363 . S
C1117 C1123 1.363 . S
C1118 C1119 1.363 . S
C1118 C1123 1.379 . S
C1118 N1125 1.356 . S
C1119 C1118 1.363 . S
C1119 C1122 1.363 . S
N1120 C1122 1.356 . S
N1120 H1132 0.984 . S
N1120 H1133 0.985 . S
N1121 C1123 1.356 . S
N1121 H1126 0.984 . S
N1121 H1127 0.985 . S
C1122 C1116 1.379 . S
C1122 C1119 1.363 . S
C1122 N1120 1.356 . S
C1123 C1117 1.363 . S
C1123 C1118 1.379 . S
C1123 N1121 1.356 . S
N1124 C1116 1.356 . S
N1124 H1130 0.984 . S
N1124 H1131 0.984 . S
N1125 C1118 1.356 . S
N1125 H1128 0.984 . S
N1125 H1129 0.985 . S
H1126 N1121 0.984 . S
H1127 N1121 0.985 . S
H1128 N1125 0.984 . S
H1129 N1125 0.985 . S
H1130 N1124 0.984 . S
H1131 N1124 0.984 . S
H1132 N1120 0.984 . S
H1133 N1120 0.985 . S
C1134 C1135 1.363 . S
C1134 C1140 1.379 . S
C1134 N1142 1.356 . S
C1135 C1134 1.363 . S
C1135 C1141 1.363 . S
C1136 C1137 1.363 . S
C1136 C1141 1.379 . S
C1136 N1143 1.356 . S
C1137 C1136 1.363 . S
C1137 C1140 1.363 . S
N1138 C1140 1.356 . S
N1138 H1150 0.984 . S
N1138 H1151 0.985 . S
N1139 C1141 1.356 . S
N1139 H1144 0.984 . S
N1139 H1145 0.985 . S
C1140 C1134 1.379 . S
C1140 C1137 1.363 . S
C1140 N1138 1.356 . S
C1141 C1135 1.363 . S
C1141 C1136 1.379 . S
C1141 N1139 1.356 . S
N1142 C1134 1.356 . S
N1142 H1148 0.984 . S
N1142 H1149 0.984 . S
N1143 C1136 1.356 . S
N1143 H1146 0.984 . S
N1143 H1147 0.985 . S
H1144 N1139 0.984 . S
H1145 N1139 0.985 . S
H1146 N1143 0.984 . S
H1147 N1143 0.985 . S
H1148 N1142 0.984 . S
H1149 N1142 0.984 . S
H1150 N1138 0.984 . S
H1151 N1138 0.985 . S
C1152 C1153 1.363 . S
C1152 C1158 1.379 . S
C1152 N1160 1.356 . S
C1153 C1152 1.363 . S
C1153 C1159 1.363 . S
C1154 C1155 1.363 . S
C1154 C1159 1.379 . S
C1154 N1161 1.356 . S
C1155 C1154 1.363 . S
C1155 C1158 1.363 . S
N1156 C1158 1.356 . S
N1156 H1168 0.984 . S
N1156 H1169 0.985 . S
N1157 C1159 1.356 . S
N1157 H1162 0.984 . S
N1157 H1163 0.985 . S
C1158 C1152 1.379 . S
C1158 C1155 1.363 . S
C1158 N1156 1.356 . S
C1159 C1153 1.363 . S
C1159 C1154 1.379 . S
C1159 N1157 1.356 . S
N1160 C1152 1.356 . S
N1160 H1166 0.984 . S
N1160 H1167 0.984 . S
N1161 C1154 1.356 . S
N1161 H1164 0.984 . S
N1161 H1165 0.985 . S
H1162 N1157 0.984 . S
H1163 N1157 0.985 . S
H1164 N1161 0.984 . S
H1165 N1161 0.985 . S
H1166 N1160 0.984 . S
H1167 N1160 0.984 . S
H1168 N1156 0.984 . S
H1169 N1156 0.985 . S
C1170 C1171 1.363 . S
C1170 C1176 1.379 . S
C1170 N1178 1.356 . S
C1171 C1170 1.363 . S
C1171 C1177 1.363 . S
C1172 C1173 1.363 . S
C1172 C1177 1.379 . S
C1172 N1179 1.356 . S
C1173 C1172 1.363 . S
C1173 C1176 1.363 . S
N1174 C1176 1.356 . S
N1174 H1186 0.984 . S
N1174 H1187 0.985 . S
N1175 C1177 1.356 . S
N1175 H1180 0.984 . S
N1175 H1181 0.985 . S
C1176 C1170 1.379 . S
C1176 C1173 1.363 . S
C1176 N1174 1.356 . S
C1177 C1171 1.363 . S
C1177 C1172 1.379 . S
C1177 N1175 1.356 . S
N1178 C1170 1.356 . S
N1178 H1184 0.984 . S
N1178 H1185 0.984 . S
N1179 C1172 1.356 . S
N1179 H1182 0.984 . S
N1179 H1183 0.985 . S
H1180 N1175 0.984 . S
H1181 N1175 0.985 . S
H1182 N1179 0.984 . S
H1183 N1179 0.985 . S
H1184 N1178 0.984 . S
H1185 N1178 0.984 . S
H1186 N1174 0.984 . S
H1187 N1174 0.985 . S
C1188 C1189 1.363 . S
C1188 C1194 1.379 . S
C1188 N1196 1.356 . S
C1189 C1188 1.363 . S
C1189 C1195 1.363 . S
C1190 C1191 1.363 . S
C1190 C1195 1.379 . S
C1190 N1197 1.356 . S
C1191 C1190 1.363 . S
C1191 C1194 1.363 . S
N1192 C1194 1.356 . S
N1192 H1204 0.984 . S
N1192 H1205 0.985 . S
N1193 C1195 1.356 . S
N1193 H1198 0.984 . S
N1193 H1199 0.985 . S
C1194 C1188 1.379 . S
C1194 C1191 1.363 . S
C1194 N1192 1.356 . S
C1195 C1189 1.363 . S
C1195 C1190 1.379 . S
C1195 N1193 1.356 . S
N1196 C1188 1.356 . S
N1196 H1202 0.984 . S
N1196 H1203 0.984 . S
N1197 C1190 1.356 . S
N1197 H1200 0.984 . S
N1197 H1201 0.985 . S
H1198 N1193 0.984 . S
H1199 N1193 0.985 . S
H1200 N1197 0.984 . S
H1201 N1197 0.985 . S
H1202 N1196 0.984 . S
H1203 N1196 0.984 . S
H1204 N1192 0.984 . S
H1205 N1192 0.985 . S
C1206 C1207 1.363 . S
C1206 C1212 1.379 . S
C1206 N1214 1.356 . S
C1207 C1206 1.363 . S
C1207 C1213 1.363 . S
C1208 C1209 1.363 . S
C1208 C1213 1.379 . S
C1208 N1215 1.356 . S
C1209 C1208 1.363 . S
C1209 C1212 1.363 . S
N1210 C1212 1.356 . S
N1210 H1222 0.984 . S
N1210 H1223 0.985 . S
N1211 C1213 1.356 . S
N1211 H1216 0.984 . S
N1211 H1217 0.985 . S
C1212 C1206 1.379 . S
C1212 C1209 1.363 . S
C1212 N1210 1.356 . S
C1213 C1207 1.363 . S
C1213 C1208 1.379 . S
C1213 N1211 1.356 . S
N1214 C1206 1.356 . S
N1214 H1220 0.984 . S
N1214 H1221 0.984 . S
N1215 C1208 1.356 . S
N1215 H1218 0.984 . S
N1215 H1219 0.985 . S
H1216 N1211 0.984 . S
H1217 N1211 0.985 . S
H1218 N1215 0.984 . S
H1219 N1215 0.985 . S
H1220 N1214 0.984 . S
H1221 N1214 0.984 . S
H1222 N1210 0.984 . S
H1223 N1210 0.985 . S
C1224 C1225 1.363 . S
C1224 C1230 1.379 . S
C1224 N1232 1.356 . S
C1225 C1224 1.363 . S
C1225 C1231 1.363 . S
C1226 C1227 1.363 . S
C1226 C1231 1.379 . S
C1226 N1233 1.356 . S
C1227 C1226 1.363 . S
C1227 C1230 1.363 . S
N1228 C1230 1.356 . S
N1228 H1240 0.984 . S
N1228 H1241 0.985 . S
N1229 C1231 1.356 . S
N1229 H1234 0.984 . S
N1229 H1235 0.985 . S
C1230 C1224 1.379 . S
C1230 C1227 1.363 . S
C1230 N1228 1.356 . S
C1231 C1225 1.363 . S
C1231 C1226 1.379 . S
C1231 N1229 1.356 . S
N1232 C1224 1.356 . S
N1232 H1238 0.984 . S
N1232 H1239 0.984 . S
N1233 C1226 1.356 . S
N1233 H1236 0.984 . S
N1233 H1237 0.985 . S
H1234 N1229 0.984 . S
H1235 N1229 0.985 . S
H1236 N1233 0.984 . S
H1237 N1233 0.985 . S
H1238 N1232 0.984 . S
H1239 N1232 0.984 . S
H1240 N1228 0.984 . S
H1241 N1228 0.985 . S
C1242 C1243 1.363 . S
C1242 C1248 1.379 . S
C1242 N1250 1.356 . S
C1243 C1242 1.363 . S
C1243 C1249 1.363 . S
C1244 C1245 1.363 . S
C1244 C1249 1.379 . S
C1244 N1251 1.356 . S
C1245 C1244 1.363 . S
C1245 C1248 1.363 . S
N1246 C1248 1.356 . S
N1246 H1258 0.984 . S
N1246 H1259 0.985 . S
N1247 C1249 1.356 . S
N1247 H1252 0.984 . S
N1247 H1253 0.985 . S
C1248 C1242 1.379 . S
C1248 C1245 1.363 . S
C1248 N1246 1.356 . S
C1249 C1243 1.363 . S
C1249 C1244 1.379 . S
C1249 N1247 1.356 . S
N1250 C1242 1.356 . S
N1250 H1256 0.984 . S
N1250 H1257 0.984 . S
N1251 C1244 1.356 . S
N1251 H1254 0.984 . S
N1251 H1255 0.985 . S
H1252 N1247 0.984 . S
H1253 N1247 0.985 . S
H1254 N1251 0.984 . S
H1255 N1251 0.985 . S
H1256 N1250 0.984 . S
H1257 N1250 0.984 . S
H1258 N1246 0.984 . S
H1259 N1246 0.985 . S
C1260 C1261 1.363 . S
C1260 C1266 1.379 . S
C1260 N1268 1.356 . S
C1261 C1260 1.363 . S
C1261 C1267 1.363 . S
C1262 C1263 1.363 . S
C1262 C1267 1.379 . S
C1262 N1269 1.356 . S
C1263 C1262 1.363 . S
C1263 C1266 1.363 . S
N1264 C1266 1.356 . S
N1264 H1276 0.984 . S
N1264 H1277 0.985 . S
N1265 C1267 1.356 . S
N1265 H1270 0.984 . S
N1265 H1271 0.985 . S
C1266 C1260 1.379 . S
C1266 C1263 1.363 . S
C1266 N1264 1.356 . S
C1267 C1261 1.363 . S
C1267 C1262 1.379 . S
C1267 N1265 1.356 . S
N1268 C1260 1.356 . S
N1268 H1274 0.984 . S
N1268 H1275 0.984 . S
N1269 C1262 1.356 . S
N1269 H1272 0.984 . S
N1269 H1273 0.985 . S
H1270 N1265 0.984 . S
H1271 N1265 0.985 . S
H1272 N1269 0.984 . S
H1273 N1269 0.985 . S
H1274 N1268 0.984 . S
H1275 N1268 0.984 . S
H1276 N1264 0.984 . S
H1277 N1264 0.985 . S
C1278 C1279 1.363 . S
C1278 C1284 1.379 . S
C1278 N1286 1.356 . S
C1279 C1278 1.363 . S
C1279 C1285 1.363 . S
C1280 C1281 1.363 . S
C1280 C1285 1.379 . S
C1280 N1287 1.356 . S
C1281 C1280 1.363 . S
C1281 C1284 1.363 . S
N1282 C1284 1.356 . S
N1282 H1294 0.984 . S
N1282 H1295 0.985 . S
N1283 C1285 1.356 . S
N1283 H1288 0.984 . S
N1283 H1289 0.985 . S
C1284 C1278 1.379 . S
C1284 C1281 1.363 . S
C1284 N1282 1.356 . S
C1285 C1279 1.363 . S
C1285 C1280 1.379 . S
C1285 N1283 1.356 . S
N1286 C1278 1.356 . S
N1286 H1292 0.984 . S
N1286 H1293 0.984 . S
N1287 C1280 1.356 . S
N1287 H1290 0.984 . S
N1287 H1291 0.985 . S
H1288 N1283 0.984 . S
H1289 N1283 0.985 . S
H1290 N1287 0.984 . S
H1291 N1287 0.985 . S
H1292 N1286 0.984 . S
H1293 N1286 0.984 . S
H1294 N1282 0.984 . S
H1295 N1282 0.985 . S
C1296 C1297 1.363 . S
C1296 C1302 1.379 . S
C1296 N1304 1.356 . S
C1297 C1296 1.363 . S
C1297 C1303 1.363 . S
C1298 C1299 1.363 . S
C1298 C1303 1.379 . S
C1298 N1305 1.356 . S
C1299 C1298 1.363 . S
C1299 C1302 1.363 . S
N1300 C1302 1.356 . S
N1300 H1312 0.984 . S
N1300 H1313 0.985 . S
N1301 C1303 1.356 . S
N1301 H1306 0.984 . S
N1301 H1307 0.985 . S
C1302 C1296 1.379 . S
C1302 C1299 1.363 . S
C1302 N1300 1.356 . S
C1303 C1297 1.363 . S
C1303 C1298 1.379 . S
C1303 N1301 1.356 . S
N1304 C1296 1.356 . S
N1304 H1310 0.984 . S
N1304 H1311 0.984 . S
N1305 C1298 1.356 . S
N1305 H1308 0.984 . S
N1305 H1309 0.985 . S
H1306 N1301 0.984 . S
H1307 N1301 0.985 . S
H1308 N1305 0.984 . S
H1309 N1305 0.985 . S
H1310 N1304 0.984 . S
H1311 N1304 0.984 . S
H1312 N1300 0.984 . S
H1313 N1300 0.985 . S
C1314 C1315 1.363 . S
C1314 C1320 1.379 . S
C1314 N1322 1.356 . S
C1315 C1314 1.363 . S
C1315 C1321 1.363 . S
C1316 C1317 1.363 . S
C1316 C1321 1.379 . S
C1316 N1323 1.356 . S
C1317 C1316 1.363 . S
C1317 C1320 1.363 . S
N1318 C1320 1.356 . S
N1318 H1330 0.984 . S
N1318 H1331 0.985 . S
N1319 C1321 1.356 . S
N1319 H1324 0.984 . S
N1319 H1325 0.985 . S
C1320 C1314 1.379 . S
C1320 C1317 1.363 . S
C1320 N1318 1.356 . S
C1321 C1315 1.363 . S
C1321 C1316 1.379 . S
C1321 N1319 1.356 . S
N1322 C1314 1.356 . S
N1322 H1328 0.984 . S
N1322 H1329 0.984 . S
N1323 C1316 1.356 . S
N1323 H1326 0.984 . S
N1323 H1327 0.985 . S
H1324 N1319 0.984 . S
H1325 N1319 0.985 . S
H1326 N1323 0.984 . S
H1327 N1323 0.985 . S
H1328 N1322 0.984 . S
H1329 N1322 0.984 . S
H1330 N1318 0.984 . S
H1331 N1318 0.985 . S
C1332 C1333 1.363 . S
C1332 C1338 1.379 . S
C1332 N1340 1.356 . S
C1333 C1332 1.363 . S
C1333 C1339 1.363 . S
C1334 C1335 1.363 . S
C1334 C1339 1.379 . S
C1334 N1341 1.356 . S
C1335 C1334 1.363 . S
C1335 C1338 1.363 . S
N1336 C1338 1.356 . S
N1336 H1348 0.984 . S
N1336 H1349 0.985 . S
N1337 C1339 1.356 . S
N1337 H1342 0.984 . S
N1337 H1343 0.985 . S
C1338 C1332 1.379 . S
C1338 C1335 1.363 . S
C1338 N1336 1.356 . S
C1339 C1333 1.363 . S
C1339 C1334 1.379 . S
C1339 N1337 1.356 . S
N1340 C1332 1.356 . S
N1340 H1346 0.984 . S
N1340 H1347 0.984 . S
N1341 C1334 1.356 . S
N1341 H1344 0.984 . S
N1341 H1345 0.985 . S
H1342 N1337 0.984 . S
H1343 N1337 0.985 . S
H1344 N1341 0.984 . S
H1345 N1341 0.985 . S
H1346 N1340 0.984 . S
H1347 N1340 0.984 . S
H1348 N1336 0.984 . S
H1349 N1336 0.985 . S
C1350 C1351 1.363 . S
C1350 C1356 1.379 . S
C1350 N1358 1.356 . S
C1351 C1350 1.363 . S
C1351 C1357 1.363 . S
C1352 C1353 1.363 . S
C1352 C1357 1.379 . S
C1352 N1359 1.356 . S
C1353 C1352 1.363 . S
C1353 C1356 1.363 . S
N1354 C1356 1.356 . S
N1354 H1366 0.984 . S
N1354 H1367 0.985 . S
N1355 C1357 1.356 . S
N1355 H1360 0.984 . S
N1355 H1361 0.985 . S
C1356 C1350 1.379 . S
C1356 C1353 1.363 . S
C1356 N1354 1.356 . S
C1357 C1351 1.363 . S
C1357 C1352 1.379 . S
C1357 N1355 1.356 . S
N1358 C1350 1.356 . S
N1358 H1364 0.984 . S
N1358 H1365 0.984 . S
N1359 C1352 1.356 . S
N1359 H1362 0.984 . S
N1359 H1363 0.985 . S
H1360 N1355 0.984 . S
H1361 N1355 0.985 . S
H1362 N1359 0.984 . S
H1363 N1359 0.985 . S
H1364 N1358 0.984 . S
H1365 N1358 0.984 . S
H1366 N1354 0.984 . S
H1367 N1354 0.985 . S
C1368 C1369 1.363 . S
C1368 C1374 1.379 . S
C1368 N1376 1.356 . S
C1369 C1368 1.363 . S
C1369 C1375 1.363 . S
C1370 C1371 1.363 . S
C1370 C1375 1.379 . S
C1370 N1377 1.356 . S
C1371 C1370 1.363 . S
C1371 C1374 1.363 . S
N1372 C1374 1.356 . S
N1372 H1384 0.984 . S
N1372 H1385 0.985 . S
N1373 C1375 1.356 . S
N1373 H1378 0.984 . S
N1373 H1379 0.985 . S
C1374 C1368 1.379 . S
C1374 C1371 1.363 . S
C1374 N1372 1.356 . S
C1375 C1369 1.363 . S
C1375 C1370 1.379 . S
C1375 N1373 1.356 . S
N1376 C1368 1.356 . S
N1376 H1382 0.984 . S
N1376 H1383 0.984 . S
N1377 C1370 1.356 . S
N1377 H1380 0.984 . S
N1377 H1381 0.985 . S
H1378 N1373 0.984 . S
H1379 N1373 0.985 . S
H1380 N1377 0.984 . S
H1381 N1377 0.985 . S
H1382 N1376 0.984 . S
H1383 N1376 0.984 . S
H1384 N1372 0.984 . S
H1385 N1372 0.985 . S
C1386 C1387 1.363 . S
C1386 C1392 1.379 . S
C1386 N1394 1.356 . S
C1387 C1386 1.363 . S
C1387 C1393 1.363 . S
C1388 C1389 1.363 . S
C1388 C1393 1.379 . S
C1388 N1395 1.356 . S
C1389 C1388 1.363 . S
C1389 C1392 1.363 . S
N1390 C1392 1.356 . S
N1390 H1402 0.984 . S
N1390 H1403 0.985 . S
N1391 C1393 1.356 . S
N1391 H1396 0.984 . S
N1391 H1397 0.985 . S
C1392 C1386 1.379 . S
C1392 C1389 1.363 . S
C1392 N1390 1.356 . S
C1393 C1387 1.363 . S
C1393 C1388 1.379 . S
C1393 N1391 1.356 . S
N1394 C1386 1.356 . S
N1394 H1400 0.984 . S
N1394 H1401 0.984 . S
N1395 C1388 1.356 . S
N1395 H1398 0.984 . S
N1395 H1399 0.985 . S
H1396 N1391 0.984 . S
H1397 N1391 0.985 . S
H1398 N1395 0.984 . S
H1399 N1395 0.985 . S
H1400 N1394 0.984 . S
H1401 N1394 0.984 . S
H1402 N1390 0.984 . S
H1403 N1390 0.985 . S
C1404 C1405 1.363 . S
C1404 C1410 1.379 . S
C1404 N1412 1.356 . S
C1405 C1404 1.363 . S
C1405 C1411 1.363 . S
C1406 C1407 1.363 . S
C1406 C1411 1.379 . S
C1406 N1413 1.356 . S
C1407 C1406 1.363 . S
C1407 C1410 1.363 . S
N1408 C1410 1.356 . S
N1408 H1420 0.984 . S
N1408 H1421 0.985 . S
N1409 C1411 1.356 . S
N1409 H1414 0.984 . S
N1409 H1415 0.985 . S
C1410 C1404 1.379 . S
C1410 C1407 1.363 . S
C1410 N1408 1.356 . S
C1411 C1405 1.363 . S
C1411 C1406 1.379 . S
C1411 N1409 1.356 . S
N1412 C1404 1.356 . S
N1412 H1418 0.984 . S
N1412 H1419 0.984 . S
N1413 C1406 1.356 . S
N1413 H1416 0.984 . S
N1413 H1417 0.985 . S
H1414 N1409 0.984 . S
H1415 N1409 0.985 . S
H1416 N1413 0.984 . S
H1417 N1413 0.985 . S
H1418 N1412 0.984 . S
H1419 N1412 0.984 . S
H1420 N1408 0.984 . S
H1421 N1408 0.985 . S
C1422 C1423 1.363 . S
C1422 C1428 1.379 . S
C1422 N1430 1.356 . S
C1423 C1422 1.363 . S
C1423 C1429 1.363 . S
C1424 C1425 1.363 . S
C1424 C1429 1.379 . S
C1424 N1431 1.356 . S
C1425 C1424 1.363 . S
C1425 C1428 1.363 . S
N1426 C1428 1.356 . S
N1426 H1438 0.984 . S
N1426 H1439 0.985 . S
N1427 C1429 1.356 . S
N1427 H1432 0.984 . S
N1427 H1433 0.985 . S
C1428 C1422 1.379 . S
C1428 C1425 1.363 . S
C1428 N1426 1.356 . S
C1429 C1423 1.363 . S
C1429 C1424 1.379 . S
C1429 N1427 1.356 . S
N1430 C1422 1.356 . S
N1430 H1436 0.984 . S
N1430 H1437 0.984 . S
N1431 C1424 1.356 . S
N1431 H1434 0.984 . S
N1431 H1435 0.985 . S
H1432 N1427 0.984 . S
H1433 N1427 0.985 . S
H1434 N1431 0.984 . S
H1435 N1431 0.985 . S
H1436 N1430 0.984 . S
H1437 N1430 0.984 . S
H1438 N1426 0.984 . S
H1439 N1426 0.985 . S
C1440 C1441 1.363 . S
C1440 C1446 1.379 . S
C1440 N1448 1.356 . S
C1441 C1440 1.363 . S
C1441 C1447 1.363 . S
C1442 C1443 1.363 . S
C1442 C1447 1.379 . S
C1442 N1449 1.356 . S
C1443 C1442 1.363 . S
C1443 C1446 1.363 . S
N1444 C1446 1.356 . S
N1444 H1456 0.984 . S
N1444 H1457 0.985 . S
N1445 C1447 1.356 . S
N1445 H1450 0.984 . S
N1445 H1451 0.985 . S
C1446 C1440 1.379 . S
C1446 C1443 1.363 . S
C1446 N1444 1.356 . S
C1447 C1441 1.363 . S
C1447 C1442 1.379 . S
C1447 N1445 1.356 . S
N1448 C1440 1.356 . S
N1448 H1454 0.984 . S
N1448 H1455 0.984 . S
N1449 C1442 1.356 . S
N1449 H1452 0.984 . S
N1449 H1453 0.985 . S
H1450 N1445 0.984 . S
H1451 N1445 0.985 . S
H1452 N1449 0.984 . S
H1453 N1449 0.985 . S
H1454 N1448 0.984 . S
H1455 N1448 0.984 . S
H1456 N1444 0.984 . S
H1457 N1444 0.985 . S
C1458 C1459 1.363 . S
C1458 C1464 1.379 . S
C1458 N1466 1.356 . S
C1459 C1458 1.363 . S
C1459 C1465 1.363 . S
C1460 C1461 1.363 . S
C1460 C1465 1.379 . S
C1460 N1467 1.356 . S
C1461 C1460 1.363 . S
C1461 C1464 1.363 . S
N1462 C1464 1.356 . S
N1462 H1474 0.984 . S
N1462 H1475 0.985 . S
N1463 C1465 1.356 . S
N1463 H1468 0.984 . S
N1463 H1469 0.985 . S
C1464 C1458 1.379 . S
C1464 C1461 1.363 . S
C1464 N1462 1.356 . S
C1465 C1459 1.363 . S
C1465 C1460 1.379 . S
C1465 N1463 1.356 . S
N1466 C1458 1.356 . S
N1466 H1472 0.984 . S
N1466 H1473 0.984 . S
N1467 C1460 1.356 . S
N1467 H1470 0.984 . S
N1467 H1471 0.985 . S
H1468 N1463 0.984 . S
H1469 N1463 0.985 . S
H1470 N1467 0.984 . S
H1471 N1467 0.985 . S
H1472 N1466 0.984 . S
H1473 N1466 0.984 . S
H1474 N1462 0.984 . S
H1475 N1462 0.985 . S
C1476 C1477 1.363 . S
C1476 C1482 1.379 . S
C1476 N1484 1.356 . S
C1477 C1476 1.363 . S
C1477 C1483 1.363 . S
C1478 C1479 1.363 . S
C1478 C1483 1.379 . S
C1478 N1485 1.356 . S
C1479 C1478 1.363 . S
C1479 C1482 1.363 . S
N1480 C1482 1.356 . S
N1480 H1492 0.984 . S
N1480 H1493 0.985 . S
N1481 C1483 1.356 . S
N1481 H1486 0.984 . S
N1481 H1487 0.985 . S
C1482 C1476 1.379 . S
C1482 C1479 1.363 . S
C1482 N1480 1.356 . S
C1483 C1477 1.363 . S
C1483 C1478 1.379 . S
C1483 N1481 1.356 . S
N1484 C1476 1.356 . S
N1484 H1490 0.984 . S
N1484 H1491 0.984 . S
N1485 C1478 1.356 . S
N1485 H1488 0.984 . S
N1485 H1489 0.985 . S
H1486 N1481 0.984 . S
H1487 N1481 0.985 . S
H1488 N1485 0.984 . S
H1489 N1485 0.985 . S
H1490 N1484 0.984 . S
H1491 N1484 0.984 . S
H1492 N1480 0.984 . S
H1493 N1480 0.985 . S
C1494 C1495 1.363 . S
C1494 C1500 1.379 . S
C1494 N1502 1.356 . S
C1495 C1494 1.363 . S
C1495 C1501 1.363 . S
C1496 C1497 1.363 . S
C1496 C1501 1.379 . S
C1496 N1503 1.356 . S
C1497 C1496 1.363 . S
C1497 C1500 1.363 . S
N1498 C1500 1.356 . S
N1498 H1510 0.984 . S
N1498 H1511 0.985 . S
N1499 C1501 1.356 . S
N1499 H1504 0.984 . S
N1499 H1505 0.985 . S
C1500 C1494 1.379 . S
C1500 C1497 1.363 . S
C1500 N1498 1.356 . S
C1501 C1495 1.363 . S
C1501 C1496 1.379 . S
C1501 N1499 1.356 . S
N1502 C1494 1.356 . S
N1502 H1508 0.984 . S
N1502 H1509 0.984 . S
N1503 C1496 1.356 . S
N1503 H1506 0.984 . S
N1503 H1507 0.985 . S
H1504 N1499 0.984 . S
H1505 N1499 0.985 . S
H1506 N1503 0.984 . S
H1507 N1503 0.985 . S
H1508 N1502 0.984 . S
H1509 N1502 0.984 . S
H1510 N1498 0.984 . S
H1511 N1498 0.985 . S
C1512 C1513 1.363 . S
C1512 C1518 1.379 . S
C1512 N1520 1.356 . S
C1513 C1512 1.363 . S
C1513 C1519 1.363 . S
C1514 C1515 1.363 . S
C1514 C1519 1.379 . S
C1514 N1521 1.356 . S
C1515 C1514 1.363 . S
C1515 C1518 1.363 . S
N1516 C1518 1.356 . S
N1516 H1528 0.984 . S
N1516 H1529 0.985 . S
N1517 C1519 1.356 . S
N1517 H1522 0.984 . S
N1517 H1523 0.985 . S
C1518 C1512 1.379 . S
C1518 C1515 1.363 . S
C1518 N1516 1.356 . S
C1519 C1513 1.363 . S
C1519 C1514 1.379 . S
C1519 N1517 1.356 . S
N1520 C1512 1.356 . S
N1520 H1526 0.984 . S
N1520 H1527 0.984 . S
N1521 C1514 1.356 . S
N1521 H1524 0.984 . S
N1521 H1525 0.985 . S
H1522 N1517 0.984 . S
H1523 N1517 0.985 . S
H1524 N1521 0.984 . S
H1525 N1521 0.985 . S
H1526 N1520 0.984 . S
H1527 N1520 0.984 . S
H1528 N1516 0.984 . S
H1529 N1516 0.985 . S
C1530 C1531 1.363 . S
C1530 C1536 1.379 . S
C1530 N1538 1.356 . S
C1531 C1530 1.363 . S
C1531 C1537 1.363 . S
C1532 C1533 1.363 . S
C1532 C1537 1.379 . S
C1532 N1539 1.356 . S
C1533 C1532 1.363 . S
C1533 C1536 1.363 . S
N1534 C1536 1.356 . S
N1534 H1546 0.984 . S
N1534 H1547 0.985 . S
N1535 C1537 1.356 . S
N1535 H1540 0.984 . S
N1535 H1541 0.985 . S
C1536 C1530 1.379 . S
C1536 C1533 1.363 . S
C1536 N1534 1.356 . S
C1537 C1531 1.363 . S
C1537 C1532 1.379 . S
C1537 N1535 1.356 . S
N1538 C1530 1.356 . S
N1538 H1544 0.984 . S
N1538 H1545 0.984 . S
N1539 C1532 1.356 . S
N1539 H1542 0.984 . S
N1539 H1543 0.985 . S
H1540 N1535 0.984 . S
H1541 N1535 0.985 . S
H1542 N1539 0.984 . S
H1543 N1539 0.985 . S
H1544 N1538 0.984 . S
H1545 N1538 0.984 . S
H1546 N1534 0.984 . S
H1547 N1534 0.985 . S
C1548 C1549 1.363 . S
C1548 C1554 1.379 . S
C1548 N1556 1.356 . S
C1549 C1548 1.363 . S
C1549 C1555 1.363 . S
C1550 C1551 1.363 . S
C1550 C1555 1.379 . S
C1550 N1557 1.356 . S
C1551 C1550 1.363 . S
C1551 C1554 1.363 . S
N1552 C1554 1.356 . S
N1552 H1564 0.984 . S
N1552 H1565 0.985 . S
N1553 C1555 1.356 . S
N1553 H1558 0.984 . S
N1553 H1559 0.985 . S
C1554 C1548 1.379 . S
C1554 C1551 1.363 . S
C1554 N1552 1.356 . S
C1555 C1549 1.363 . S
C1555 C1550 1.379 . S
C1555 N1553 1.356 . S
N1556 C1548 1.356 . S
N1556 H1562 0.984 . S
N1556 H1563 0.984 . S
N1557 C1550 1.356 . S
N1557 H1560 0.984 . S
N1557 H1561 0.985 . S
H1558 N1553 0.984 . S
H1559 N1553 0.985 . S
H1560 N1557 0.984 . S
H1561 N1557 0.985 . S
H1562 N1556 0.984 . S
H1563 N1556 0.984 . S
H1564 N1552 0.984 . S
H1565 N1552 0.985 . S
C1566 C1567 1.363 . S
C1566 C1572 1.379 . S
C1566 N1574 1.356 . S
C1567 C1566 1.363 . S
C1567 C1573 1.363 . S
C1568 C1569 1.363 . S
C1568 C1573 1.379 . S
C1568 N1575 1.356 . S
C1569 C1568 1.363 . S
C1569 C1572 1.363 . S
N1570 C1572 1.356 . S
N1570 H1582 0.984 . S
N1570 H1583 0.985 . S
N1571 C1573 1.356 . S
N1571 H1576 0.984 . S
N1571 H1577 0.985 . S
C1572 C1566 1.379 . S
C1572 C1569 1.363 . S
C1572 N1570 1.356 . S
C1573 C1567 1.363 . S
C1573 C1568 1.379 . S
C1573 N1571 1.356 . S
N1574 C1566 1.356 . S
N1574 H1580 0.984 . S
N1574 H1581 0.984 . S
N1575 C1568 1.356 . S
N1575 H1578 0.984 . S
N1575 H1579 0.985 . S
H1576 N1571 0.984 . S
H1577 N1571 0.985 . S
H1578 N1575 0.984 . S
H1579 N1575 0.985 . S
H1580 N1574 0.984 . S
H1581 N1574 0.984 . S
H1582 N1570 0.984 . S
H1583 N1570 0.985 . S
C1584 C1585 1.363 . S
C1584 C1590 1.379 . S
C1584 N1592 1.356 . S
C1585 C1584 1.363 . S
C1585 C1591 1.363 1_655 S
C1586 C1587 1.363 . S
C1586 C1591 1.379 . S
C1586 N1593 1.356 . S
C1587 C1586 1.363 . S
C1587 C1590 1.363 1_455 S
N1588 C1590 1.356 . S
N1588 H1600 0.984 . S
N1588 H1601 0.985 1_655 S
N1589 C1591 1.356 . S
N1589 H1594 0.984 1_455 S
N1589 H1595 0.985 . S
C1590 C1584 1.379 . S
C1590 C1587 1.363 1_655 S
C1590 N1588 1.356 . S
C1591 C1585 1.363 1_455 S
C1591 C1586 1.379 . S
C1591 N1589 1.356 . S
N1592 C1584 1.356 . S
N1592 H1598 0.984 . S
N1592 H1599 0.984 . S
N1593 C1586 1.356 . S
N1593 H1596 0.984 . S
N1593 H1597 0.985 . S
H1594 N1589 0.984 1_655 S
H1595 N1589 0.985 . S
H1596 N1593 0.984 . S
H1597 N1593 0.985 . S
H1598 N1592 0.984 . S
H1599 N1592 0.984 . S
H1600 N1588 0.984 . S
H1601 N1588 0.985 1_455 S
C1602 C1603 1.363 . S
C1602 C1608 1.379 . S
C1602 N1610 1.356 . S
C1603 C1602 1.363 . S
C1603 C1609 1.363 . S
C1604 C1605 1.363 . S
C1604 C1609 1.379 . S
C1604 N1611 1.356 . S
C1605 C1604 1.363 . S
C1605 C1608 1.363 . S
N1606 C1608 1.356 . S
N1606 H1618 0.984 . S
N1606 H1619 0.985 . S
N1607 C1609 1.356 . S
N1607 H1612 0.984 . S
N1607 H1613 0.985 . S
C1608 C1602 1.379 . S
C1608 C1605 1.363 . S
C1608 N1606 1.356 . S
C1609 C1603 1.363 . S
C1609 C1604 1.379 . S
C1609 N1607 1.356 . S
N1610 C1602 1.356 . S
N1610 H1616 0.984 . S
N1610 H1617 0.984 . S
N1611 C1604 1.356 . S
N1611 H1614 0.984 . S
N1611 H1615 0.985 . S
H1612 N1607 0.984 . S
H1613 N1607 0.985 . S
H1614 N1611 0.984 . S
H1615 N1611 0.985 . S
H1616 N1610 0.984 . S
H1617 N1610 0.984 . S
H1618 N1606 0.984 . S
H1619 N1606 0.985 . S
C1620 C1621 1.363 . S
C1620 C1626 1.379 1_545 S
C1620 N1628 1.356 . S
C1621 C1620 1.363 . S
C1621 C1627 1.363 . S
C1622 C1623 1.363 . S
C1622 C1627 1.379 1_565 S
C1622 N1629 1.356 . S
C1623 C1622 1.363 . S
C1623 C1626 1.363 . S
N1624 C1626 1.356 . S
N1624 H1636 0.984 . S
N1624 H1637 0.985 . S
N1625 C1627 1.356 . S
N1625 H1630 0.984 . S
N1625 H1631 0.985 . S
C1626 C1620 1.379 1_565 S
C1626 C1623 1.363 . S
C1626 N1624 1.356 . S
C1627 C1621 1.363 . S
C1627 C1622 1.379 1_545 S
C1627 N1625 1.356 . S
N1628 C1620 1.356 . S
N1628 H1634 0.984 . S
N1628 H1635 0.984 . S
N1629 C1622 1.356 . S
N1629 H1632 0.984 . S
N1629 H1633 0.985 . S
H1630 N1625 0.984 . S
H1631 N1625 0.985 . S
H1632 N1629 0.984 . S
H1633 N1629 0.985 . S
H1634 N1628 0.984 . S
H1635 N1628 0.984 . S
H1636 N1624 0.984 . S
H1637 N1624 0.985 . S
C1638 C1639 1.363 1_545 S
C1638 C1644 1.379 . S
C1638 N1646 1.364 . S
C1639 C1638 1.363 1_565 S
C1639 C1645 1.363 1_554 S
C1640 C1641 1.363 1_565 S
C1640 C1645 1.379 . S
C1640 N1647 1.364 . S
C1641 C1640 1.363 1_545 S
C1641 C1644 1.363 1_556 S
N1642 C1644 1.356 . S
N1642 H1654 0.984 . S
N1642 H1655 0.985 . S
N1643 C1645 1.356 . S
N1643 H1648 0.984 . S
N1643 H1649 0.985 . S
C1644 C1638 1.379 . S
C1644 C1641 1.363 1_554 S
C1644 N1642 1.356 . S
C1645 C1639 1.363 1_556 S
C1645 C1640 1.379 . S
C1645 N1643 1.356 . S
N1646 C1638 1.364 . S
N1646 H1652 0.997 . S
N1646 H1653 0.964 1_545 S
N1647 C1640 1.364 . S
N1647 H1650 0.964 1_565 S
N1647 H1651 0.997 . S
H1648 N1643 0.984 . S
H1649 N1643 0.985 . S
H1650 N1647 0.964 1_545 S
H1651 N1647 0.997 . S
H1652 N1646 0.997 . S
H1653 N1646 0.964 1_565 S
H1654 N1642 0.984 . S
H1655 N1642 0.985 . S
C1656 C1657 1.363 . S
C1656 C1662 1.379 1_655 S
C1656 N1664 1.356 . S
C1657 C1656 1.363 . S
C1657 C1663 1.363 1_556 S
C1658 C1659 1.363 . S
C1658 C1663 1.379 1_455 S
C1658 N1665 1.356 . S
C1659 C1658 1.363 . S
C1659 C1662 1.363 1_554 S
N1660 C1662 1.356 . S
N1660 H1672 0.984 . S
N1660 H1673 0.985 . S
N1661 C1663 1.356 . S
N1661 H1666 0.984 . S
N1661 H1667 0.985 . S
C1662 C1656 1.379 1_455 S
C1662 C1659 1.363 1_556 S
C1662 N1660 1.356 . S
C1663 C1657 1.363 1_554 S
C1663 C1658 1.379 1_655 S
C1663 N1661 1.356 . S
N1664 C1656 1.356 . S
N1664 H1670 0.984 . S
N1664 H1671 0.984 . S
N1665 C1658 1.356 . S
N1665 H1668 0.984 . S
N1665 H1669 0.985 . S
H1666 N1661 0.984 . S
H1667 N1661 0.985 . S
H1668 N1665 0.984 . S
H1669 N1665 0.985 . S
H1670 N1664 0.984 . S
H1671 N1664 0.984 . S
H1672 N1660 0.984 . S
H1673 N1660 0.985 . S
C1674 C1675 1.363 1_556 S
C1674 C1680 1.379 . S
C1674 N1682 1.356 . S
C1675 C1674 1.363 1_554 S
C1675 C1681 1.363 . S
C1676 C1677 1.363 1_554 S
C1676 C1681 1.379 . S
C1676 N1683 1.356 . S
C1677 C1676 1.363 1_556 S
C1677 C1680 1.363 . S
N1678 C1680 1.356 . S
N1678 H1690 0.984 . S
N1678 H1691 0.985 . S
N1679 C1681 1.356 . S
N1679 H1684 0.984 . S
N1679 H1685 0.985 . S
C1680 C1674 1.379 . S
C1680 C1677 1.363 . S
C1680 N1678 1.356 . S
C1681 C1675 1.363 . S
C1681 C1676 1.379 . S
C1681 N1679 1.356 . S
N1682 C1674 1.356 . S
N1682 H1688 0.984 . S
N1682 H1689 0.984 1_556 S
N1683 C1676 1.356 . S
N1683 H1686 0.984 1_554 S
N1683 H1687 0.985 . S
H1684 N1679 0.984 . S
H1685 N1679 0.985 . S
H1686 N1683 0.984 1_556 S
H1687 N1683 0.985 . S
H1688 N1682 0.984 . S
H1689 N1682 0.984 1_554 S
H1690 N1678 0.984 . S
H1691 N1678 0.985 . S
C1692 C1693 1.363 . S
C1692 C1698 1.379 . S
C1692 N1700 1.356 . S
C1693 C1692 1.363 . S
C1693 C1699 1.363 . S
C1694 C1695 1.363 . S
C1694 C1699 1.379 . S
C1694 N1701 1.356 . S
C1695 C1694 1.363 . S
C1695 C1698 1.363 . S
N1696 C1698 1.356 . S
N1696 H1708 0.984 . S
N1696 H1709 0.985 . S
N1697 C1699 1.356 1_554 S
N1697 H1702 0.984 . S
N1697 H1703 0.985 . S
C1698 C1692 1.379 . S
C1698 C1695 1.363 . S
C1698 N1696 1.356 . S
C1699 C1693 1.363 . S
C1699 C1694 1.379 . S
C1699 N1697 1.356 1_556 S
N1700 C1692 1.356 . S
N1700 H1706 0.984 . S
N1700 H1707 0.984 . S
N1701 C1694 1.356 . S
N1701 H1704 0.984 . S
N1701 H1705 0.985 . S
H1702 N1697 0.984 . S
H1703 N1697 0.985 . S
H1704 N1701 0.984 . S
H1705 N1701 0.985 . S
H1706 N1700 0.984 . S
H1707 N1700 0.984 . S
H1708 N1696 0.984 . S
H1709 N1696 0.985 . S
C1710 C1711 1.363 . S
C1710 C1716 1.379 . S
C1710 N1718 1.356 . S
C1711 C1710 1.363 . S
C1711 C1717 1.363 . S
C1712 C1713 1.363 . S
C1712 C1717 1.379 . S
C1712 N1719 1.356 . S
C1713 C1712 1.363 . S
C1713 C1716 1.363 . S
N1714 C1716 1.356 . S
N1714 H1726 0.984 . S
N1714 H1727 0.985 . S
N1715 C1717 1.356 . S
N1715 H1720 0.984 . S
N1715 H1721 0.985 . S
C1716 C1710 1.379 . S
C1716 C1713 1.363 . S
C1716 N1714 1.356 . S
C1717 C1711 1.363 . S
C1717 C1712 1.379 . S
C1717 N1715 1.356 . S
N1718 C1710 1.356 . S
N1718 H1724 0.984 . S
N1718 H1725 0.984 . S
N1719 C1712 1.356 . S
N1719 H1722 0.984 . S
N1719 H1723 0.985 . S
H1720 N1715 0.984 . S
H1721 N1715 0.985 . S
H1722 N1719 0.984 . S
H1723 N1719 0.985 . S
H1724 N1718 0.984 . S
H1725 N1718 0.984 . S
H1726 N1714 0.984 . S
H1727 N1714 0.985 . S
C1728 C1729 1.363 . S
C1728 C1734 1.379 . S
C1728 N1736 1.356 . S
C1729 C1728 1.363 . S
C1729 C1735 1.363 . S
C1730 C1731 1.363 . S
C1730 C1735 1.379 . S
C1730 N1737 1.356 1_556 S
C1731 C1730 1.363 . S
C1731 C1734 1.363 . S
N1732 C1734 1.356 . S
N1732 H1744 0.984 . S
N1732 H1745 0.985 . S
N1733 C1735 1.356 . S
N1733 H1738 0.984 . S
N1733 H1739 0.985 . S
C1734 C1728 1.379 . S
C1734 C1731 1.363 . S
C1734 N1732 1.356 . S
C1735 C1729 1.363 . S
C1735 C1730 1.379 . S
C1735 N1733 1.356 . S
N1736 C1728 1.356 . S
N1736 H1742 0.984 . S
N1736 H1743 0.984 . S
N1737 C1730 1.356 1_554 S
N1737 H1740 0.984 . S
N1737 H1741 0.985 . S
H1738 N1733 0.984 . S
H1739 N1733 0.985 . S
H1740 N1737 0.984 . S
H1741 N1737 0.985 . S
H1742 N1736 0.984 . S
H1743 N1736 0.984 . S
H1744 N1732 0.984 . S
H1745 N1732 0.985 . S
C1746 C1747 1.363 . S
C1746 C1752 1.379 . S
C1746 N1754 1.356 . S
C1747 C1746 1.363 . S
C1747 C1753 1.363 . S
C1748 C1749 1.363 . S
C1748 C1753 1.379 . S
C1748 N1755 1.356 . S
C1749 C1748 1.363 . S
C1749 C1752 1.363 . S
N1750 C1752 1.356 . S
N1750 H1762 0.984 . S
N1750 H1763 0.985 . S
N1751 C1753 1.356 . S
N1751 H1756 0.984 . S
N1751 H1757 0.985 . S
C1752 C1746 1.379 . S
C1752 C1749 1.363 . S
C1752 N1750 1.356 . S
C1753 C1747 1.363 . S
C1753 C1748 1.379 . S
C1753 N1751 1.356 . S
N1754 C1746 1.356 . S
N1754 H1760 0.984 . S
N1754 H1761 0.984 . S
N1755 C1748 1.356 . S
N1755 H1758 0.984 . S
N1755 H1759 0.985 . S
H1756 N1751 0.984 . S
H1757 N1751 0.985 . S
H1758 N1755 0.984 . S
H1759 N1755 0.985 . S
H1760 N1754 0.984 . S
H1761 N1754 0.984 . S
H1762 N1750 0.984 . S
H1763 N1750 0.985 . S
C1764 C1765 1.363 . S
C1764 C1770 1.379 . S
C1764 N1772 1.356 . S
C1765 C1764 1.363 . S
C1765 C1771 1.363 . S
C1766 C1767 1.363 . S
C1766 C1771 1.379 . S
C1766 N1773 1.356 . S
C1767 C1766 1.363 . S
C1767 C1770 1.363 . S
N1768 C1770 1.356 . S
N1768 H1780 0.984 . S
N1768 H1781 0.985 . S
N1769 C1771 1.356 . S
N1769 H1774 0.984 . S
N1769 H1775 0.985 . S
C1770 C1764 1.379 . S
C1770 C1767 1.363 . S
C1770 N1768 1.356 . S
C1771 C1765 1.363 . S
C1771 C1766 1.379 . S
C1771 N1769 1.356 . S
N1772 C1764 1.356 . S
N1772 H1778 0.984 . S
N1772 H1779 0.984 . S
N1773 C1766 1.356 . S
N1773 H1776 0.984 . S
N1773 H1777 0.985 . S
H1774 N1769 0.984 . S
H1775 N1769 0.985 . S
H1776 N1773 0.984 . S
H1777 N1773 0.985 . S
H1778 N1772 0.984 . S
H1779 N1772 0.984 . S
H1780 N1768 0.984 . S
H1781 N1768 0.985 . S
C1782 C1783 1.363 . S
C1782 C1788 1.379 . S
C1782 N1790 1.356 . S
C1783 C1782 1.363 . S
C1783 C1789 1.363 . S
C1784 C1785 1.363 . S
C1784 C1789 1.379 . S
C1784 N1791 1.356 . S
C1785 C1784 1.363 . S
C1785 C1788 1.363 . S
N1786 C1788 1.356 . S
N1786 H1798 0.984 . S
N1786 H1799 0.985 . S
N1787 C1789 1.356 . S
N1787 H1792 0.984 . S
N1787 H1793 0.985 . S
C1788 C1782 1.379 . S
C1788 C1785 1.363 . S
C1788 N1786 1.356 . S
C1789 C1783 1.363 . S
C1789 C1784 1.379 . S
C1789 N1787 1.356 . S
N1790 C1782 1.356 . S
N1790 H1796 0.984 . S
N1790 H1797 0.984 . S
N1791 C1784 1.356 . S
N1791 H1794 0.984 . S
N1791 H1795 0.985 . S
H1792 N1787 0.984 . S
H1793 N1787 0.985 . S
H1794 N1791 0.984 . S
H1795 N1791 0.985 . S
H1796 N1790 0.984 . S
H1797 N1790 0.984 . S
H1798 N1786 0.984 . S
H1799 N1786 0.985 . S
C1800 C1801 1.363 . S
C1800 C1806 1.379 . S
C1800 N1808 1.356 . S
C1801 C1800 1.363 . S
C1801 C1807 1.363 . S
C1802 C1803 1.363 . S
C1802 C1807 1.379 . S
C1802 N1809 1.356 . S
C1803 C1802 1.363 . S
C1803 C1806 1.363 . S
N1804 C1806 1.356 . S
N1804 H1816 0.984 . S
N1804 H1817 0.985 . S
N1805 C1807 1.356 . S
N1805 H1810 0.984 . S
N1805 H1811 0.985 . S
C1806 C1800 1.379 . S
C1806 C1803 1.363 . S
C1806 N1804 1.356 . S
C1807 C1801 1.363 . S
C1807 C1802 1.379 . S
C1807 N1805 1.356 . S
N1808 C1800 1.356 . S
N1808 H1814 0.984 . S
N1808 H1815 0.984 . S
N1809 C1802 1.356 . S
N1809 H1812 0.984 . S
N1809 H1813 0.985 . S
H1810 N1805 0.984 . S
H1811 N1805 0.985 . S
H1812 N1809 0.984 . S
H1813 N1809 0.985 . S
H1814 N1808 0.984 . S
H1815 N1808 0.984 . S
H1816 N1804 0.984 . S
H1817 N1804 0.985 . S
C1818 C1819 1.363 . S
C1818 C1824 1.379 . S
C1818 N1826 1.356 . S
C1819 C1818 1.363 . S
C1819 C1825 1.363 . S
C1820 C1821 1.363 . S
C1820 C1825 1.379 . S
C1820 N1827 1.356 . S
C1821 C1820 1.363 . S
C1821 C1824 1.363 . S
N1822 C1824 1.356 . S
N1822 H1834 0.984 . S
N1822 H1835 0.985 . S
N1823 C1825 1.356 . S
N1823 H1828 0.984 1_554 S
N1823 H1829 0.985 1_554 S
C1824 C1818 1.379 . S
C1824 C1821 1.363 . S
C1824 N1822 1.356 . S
C1825 C1819 1.363 . S
C1825 C1820 1.379 . S
C1825 N1823 1.356 . S
N1826 C1818 1.356 . S
N1826 H1832 0.984 . S
N1826 H1833 0.984 . S
N1827 C1820 1.356 . S
N1827 H1830 0.984 . S
N1827 H1831 0.985 . S
H1828 N1823 0.984 1_556 S
H1829 N1823 0.985 1_556 S
H1830 N1827 0.984 . S
H1831 N1827 0.985 . S
H1832 N1826 0.984 . S
H1833 N1826 0.984 . S
H1834 N1822 0.984 . S
H1835 N1822 0.985 . S
C1836 C1837 1.363 . S
C1836 C1842 1.379 . S
C1836 N1844 1.356 . S
C1837 C1836 1.363 . S
C1837 C1843 1.363 . S
C1838 C1839 1.363 . S
C1838 C1843 1.379 . S
C1838 N1845 1.356 . S
C1839 C1838 1.363 . S
C1839 C1842 1.363 . S
N1840 C1842 1.356 . S
N1840 H1852 0.984 . S
N1840 H1853 0.985 . S
N1841 C1843 1.356 . S
N1841 H1846 0.984 . S
N1841 H1847 0.985 . S
C1842 C1836 1.379 . S
C1842 C1839 1.363 . S
C1842 N1840 1.356 . S
C1843 C1837 1.363 . S
C1843 C1838 1.379 . S
C1843 N1841 1.356 . S
N1844 C1836 1.356 . S
N1844 H1850 0.984 . S
N1844 H1851 0.984 . S
N1845 C1838 1.356 . S
N1845 H1848 0.984 . S
N1845 H1849 0.985 . S
H1846 N1841 0.984 . S
H1847 N1841 0.985 . S
H1848 N1845 0.984 . S
H1849 N1845 0.985 . S
H1850 N1844 0.984 . S
H1851 N1844 0.984 . S
H1852 N1840 0.984 . S
H1853 N1840 0.985 . S
C1854 C1855 1.363 . S
C1854 C1860 1.379 . S
C1854 N1862 1.356 . S
C1855 C1854 1.363 . S
C1855 C1861 1.363 . S
C1856 C1857 1.363 . S
C1856 C1861 1.379 . S
C1856 N1863 1.356 . S
C1857 C1856 1.363 . S
C1857 C1860 1.363 . S
N1858 C1860 1.356 . S
N1858 H1870 0.984 . S
N1858 H1871 0.985 . S
N1859 C1861 1.356 . S
N1859 H1864 0.984 . S
N1859 H1865 0.985 . S
C1860 C1854 1.379 . S
C1860 C1857 1.363 . S
C1860 N1858 1.356 . S
C1861 C1855 1.363 . S
C1861 C1856 1.379 . S
C1861 N1859 1.356 . S
N1862 C1854 1.356 . S
N1862 H1868 0.984 . S
N1862 H1869 0.984 . S
N1863 C1856 1.356 . S
N1863 H1866 0.984 . S
N1863 H1867 0.985 . S
H1864 N1859 0.984 . S
H1865 N1859 0.985 . S
H1866 N1863 0.984 . S
H1867 N1863 0.985 . S
H1868 N1862 0.984 . S
H1869 N1862 0.984 . S
H1870 N1858 0.984 . S
H1871 N1858 0.985 . S
C1872 C1873 1.363 . S
C1872 C1878 1.379 . S
C1872 N1880 1.356 . S
C1873 C1872 1.363 . S
C1873 C1879 1.363 . S
C1874 C1875 1.363 . S
C1874 C1879 1.379 . S
C1874 N1881 1.356 . S
C1875 C1874 1.363 . S
C1875 C1878 1.363 . S
N1876 C1878 1.356 . S
N1876 H1888 0.984 . S
N1876 H1889 0.985 . S
N1877 C1879 1.356 . S
N1877 H1882 0.984 . S
N1877 H1883 0.985 . S
C1878 C1872 1.379 . S
C1878 C1875 1.363 . S
C1878 N1876 1.356 . S
C1879 C1873 1.363 . S
C1879 C1874 1.379 . S
C1879 N1877 1.356 . S
N1880 C1872 1.356 . S
N1880 H1886 0.984 . S
N1880 H1887 0.984 . S
N1881 C1874 1.356 . S
N1881 H1884 0.984 . S
N1881 H1885 0.985 . S
H1882 N1877 0.984 . S
H1883 N1877 0.985 . S
H1884 N1881 0.984 . S
H1885 N1881 0.985 . S
H1886 N1880 0.984 . S
H1887 N1880 0.984 . S
H1888 N1876 0.984 . S
H1889 N1876 0.985 . S
C1890 C1891 1.363 . S
C1890 C1896 1.379 . S
C1890 N1898 1.356 . S
C1891 C1890 1.363 . S
C1891 C1897 1.363 . S
C1892 C1893 1.363 . S
C1892 C1897 1.379 . S
C1892 N1899 1.356 . S
C1893 C1892 1.363 . S
C1893 C1896 1.363 . S
N1894 C1896 1.356 . S
N1894 H1906 0.984 . S
N1894 H1907 0.985 . S
N1895 C1897 1.356 . S
N1895 H1900 0.984 . S
N1895 H1901 0.985 . S
C1896 C1890 1.379 . S
C1896 C1893 1.363 . S
C1896 N1894 1.356 . S
C1897 C1891 1.363 . S
C1897 C1892 1.379 . S
C1897 N1895 1.356 . S
N1898 C1890 1.356 . S
N1898 H1904 0.984 . S
N1898 H1905 0.984 . S
N1899 C1892 1.356 . S
N1899 H1902 0.984 . S
N1899 H1903 0.985 . S
H1900 N1895 0.984 . S
H1901 N1895 0.985 . S
H1902 N1899 0.984 . S
H1903 N1899 0.985 . S
H1904 N1898 0.984 . S
H1905 N1898 0.984 . S
H1906 N1894 0.984 . S
H1907 N1894 0.985 . S
C1908 C1909 1.363 . S
C1908 C1914 1.352 1_455 S
C1908 N1916 1.356 . S
C1909 C1908 1.363 . S
C1909 C1915 1.392 . S
C1910 C1911 1.363 . S
C1910 C1915 1.352 1_655 S
C1910 N1917 1.356 . S
C1911 C1910 1.363 . S
C1911 C1914 1.392 . S
N1912 C1914 1.364 . S
N1912 H1924 0.984 1_655 S
N1912 H1925 0.985 . S
N1913 C1915 1.364 . S
N1913 H1918 0.984 . S
N1913 H1919 0.985 1_455 S
C1914 C1908 1.352 1_655 S
C1914 C1911 1.392 . S
C1914 N1912 1.364 . S
C1915 C1909 1.392 . S
C1915 C1910 1.352 1_455 S
C1915 N1913 1.364 . S
N1916 C1908 1.356 . S
N1916 H1922 0.984 . S
N1916 H1923 0.984 . S
N1917 C1910 1.356 . S
N1917 H1920 0.984 . S
N1917 H1921 0.985 . S
H1918 N1913 0.984 . S
H1919 N1913 0.985 1_655 S
H1920 N1917 0.984 . S
H1921 N1917 0.985 . S
H1922 N1916 0.984 . S
H1923 N1916 0.984 . S
H1924 N1912 0.984 1_455 S
H1925 N1912 0.985 . S
C1926 C1927 1.363 . S
C1926 C1932 1.379 . S
C1926 N1934 1.356 . S
C1927 C1926 1.363 . S
C1927 C1933 1.363 . S
C1928 C1929 1.363 . S
C1928 C1933 1.379 . S
C1928 N1935 1.356 . S
C1929 C1928 1.363 . S
C1929 C1932 1.363 . S
N1930 C1932 1.356 . S
N1930 H1942 0.984 . S
N1930 H1943 0.985 . S
N1931 C1933 1.356 . S
N1931 H1936 0.984 . S
N1931 H1937 0.985 . S
C1932 C1926 1.379 . S
C1932 C1929 1.363 . S
C1932 N1930 1.356 . S
C1933 C1927 1.363 . S
C1933 C1928 1.379 . S
C1933 N1931 1.356 . S
N1934 C1926 1.356 . S
N1934 H1940 0.984 . S
N1934 H1941 0.984 . S
N1935 C1928 1.356 . S
N1935 H1938 0.984 . S
N1935 H1939 0.985 . S
H1936 N1931 0.984 . S
H1937 N1931 0.985 . S
H1938 N1935 0.984 . S
H1939 N1935 0.985 . S
H1940 N1934 0.984 . S
H1941 N1934 0.984 . S
H1942 N1930 0.984 . S
H1943 N1930 0.985 . S
C1944 C1945 1.363 . S
C1944 C1950 1.379 1_545 S
C1944 N1952 1.356 . S
C1945 C1944 1.363 . S
C1945 C1951 1.363 . S
C1946 C1947 1.363 . S
C1946 C1951 1.379 1_565 S
C1946 N1953 1.356 . S
C1947 C1946 1.363 . S
C1947 C1950 1.363 . S
N1948 C1950 1.356 . S
N1948 H1960 0.984 . S
N1948 H1961 0.985 . S
N1949 C1951 1.356 . S
N1949 H1954 0.984 . S
N1949 H1955 0.985 . S
C1950 C1944 1.379 1_565 S
C1950 C1947 1.363 . S
C1950 N1948 1.356 . S
C1951 C1945 1.363 . S
C1951 C1946 1.379 1_545 S
C1951 N1949 1.356 . S
N1952 C1944 1.356 . S
N1952 H1958 0.984 . S
N1952 H1959 0.984 . S
N1953 C1946 1.356 . S
N1953 H1956 0.984 . S
N1953 H1957 0.985 . S
H1954 N1949 0.984 . S
H1955 N1949 0.985 . S
H1956 N1953 0.984 . S
H1957 N1953 0.985 . S
H1958 N1952 0.984 . S
H1959 N1952 0.984 . S
H1960 N1948 0.984 . S
H1961 N1948 0.985 . S
C1962 C1963 1.385 . S
C1962 C1968 1.358 1_565 S
C1962 N1970 1.363 . S
C1963 C1962 1.385 . S
C1963 C1969 1.363 . S
C1964 C1965 1.385 . S
C1964 C1969 1.358 1_545 S
C1964 N1971 1.363 . S
C1965 C1964 1.385 . S
C1965 C1968 1.363 . S
N1966 C1968 1.356 . S
N1966 H1978 0.984 . S
N1966 H1979 0.985 . S
N1967 C1969 1.356 . S
N1967 H1972 0.984 . S
N1967 H1973 0.985 . S
C1968 C1962 1.358 1_545 S
C1968 C1965 1.363 . S
C1968 N1966 1.356 . S
C1969 C1963 1.363 . S
C1969 C1964 1.358 1_565 S
C1969 N1967 1.356 . S
N1970 C1962 1.363 . S
N1970 H1976 0.984 1_565 S
N1970 H1977 0.984 . S
N1971 C1964 1.363 . S
N1971 H1974 0.984 . S
N1971 H1975 0.985 1_545 S
H1972 N1967 0.984 . S
H1973 N1967 0.985 . S
H1974 N1971 0.984 . S
H1975 N1971 0.985 1_565 S
H1976 N1970 0.984 1_545 S
H1977 N1970 0.984 . S
H1978 N1966 0.984 . S
H1979 N1966 0.985 . S
C1980 C1981 1.363 . S
C1980 C1986 1.379 1_455 S
C1980 N1988 1.356 . S
C1981 C1980 1.363 . S
C1981 C1987 1.363 . S
C1982 C1983 1.363 . S
C1982 C1987 1.379 1_655 S
C1982 N1989 1.356 . S
C1983 C1982 1.363 . S
C1983 C1986 1.363 . S
N1984 C1986 1.356 . S
N1984 H1996 0.984 . S
N1984 H1997 0.985 . S
N1985 C1987 1.356 . S
N1985 H1990 0.984 . S
N1985 H1991 0.985 . S
C1986 C1980 1.379 1_655 S
C1986 C1983 1.363 . S
C1986 N1984 1.356 . S
C1987 C1981 1.363 . S
C1987 C1982 1.379 1_455 S
C1987 N1985 1.356 . S
N1988 C1980 1.356 . S
N1988 H1994 0.984 1_455 S
N1988 H1995 0.984 . S
N1989 C1982 1.356 . S
N1989 H1992 0.984 . S
N1989 H1993 0.985 1_655 S
H1990 N1985 0.984 . S
H1991 N1985 0.985 . S
H1992 N1989 0.984 . S
H1993 N1989 0.985 1_455 S
H1994 N1988 0.984 1_655 S
H1995 N1988 0.984 . S
H1996 N1984 0.984 . S
H1997 N1984 0.985 . S
C1998 C1999 1.363 . S
C1998 C2004 1.379 . S
C1998 N2006 1.356 . S
C1999 C1998 1.363 . S
C1999 C2005 1.363 . S
C2000 C2001 1.363 . S
C2000 C2005 1.379 . S
C2000 N2007 1.356 . S
C2001 C2000 1.363 . S
C2001 C2004 1.363 . S
N2002 C2004 1.356 . S
N2002 H2014 0.984 . S
N2002 H2015 0.985 . S
N2003 C2005 1.356 . S
N2003 H2008 0.984 . S
N2003 H2009 0.985 . S
C2004 C1998 1.379 . S
C2004 C2001 1.363 . S
C2004 N2002 1.356 . S
C2005 C1999 1.363 . S
C2005 C2000 1.379 . S
C2005 N2003 1.356 . S
N2006 C1998 1.356 . S
N2006 H2012 0.984 . S
N2006 H2013 0.984 . S
N2007 C2000 1.356 . S
N2007 H2010 0.984 . S
N2007 H2011 0.985 . S
H2008 N2003 0.984 . S
H2009 N2003 0.985 . S
H2010 N2007 0.984 . S
H2011 N2007 0.985 . S
H2012 N2006 0.984 . S
H2013 N2006 0.984 . S
H2014 N2002 0.984 . S
H2015 N2002 0.985 . S
C2016 C2017 1.363 . S
C2016 C2022 1.379 . S
C2016 N2024 1.356 . S
C2017 C2016 1.363 . S
C2017 C2023 1.363 . S
C2018 C2019 1.363 . S
C2018 C2023 1.379 . S
C2018 N2025 1.356 . S
C2019 C2018 1.363 . S
C2019 C2022 1.363 . S
N2020 C2022 1.356 . S
N2020 H2032 0.984 . S
N2020 H2033 0.985 . S
N2021 C2023 1.356 . S
N2021 H2026 0.984 . S
N2021 H2027 0.985 . S
C2022 C2016 1.379 . S
C2022 C2019 1.363 . S
C2022 N2020 1.356 . S
C2023 C2017 1.363 . S
C2023 C2018 1.379 . S
C2023 N2021 1.356 . S
N2024 C2016 1.356 . S
N2024 H2030 0.984 . S
N2024 H2031 0.984 . S
N2025 C2018 1.356 . S
N2025 H2028 0.984 . S
N2025 H2029 0.985 . S
H2026 N2021 0.984 . S
H2027 N2021 0.985 . S
H2028 N2025 0.984 . S
H2029 N2025 0.985 . S
H2030 N2024 0.984 . S
H2031 N2024 0.984 . S
H2032 N2020 0.984 . S
H2033 N2020 0.985 . S
C2034 C2035 1.363 . S
C2034 C2040 1.379 . S
C2034 N2042 1.356 . S
C2035 C2034 1.363 . S
C2035 C2041 1.363 1_545 S
C2036 C2037 1.363 . S
C2036 C2041 1.379 . S
C2036 N2043 1.356 . S
C2037 C2036 1.363 . S
C2037 C2040 1.363 1_565 S
N2038 C2040 1.356 . S
N2038 H2050 0.984 . S
N2038 H2051 0.985 1_545 S
N2039 C2041 1.356 . S
N2039 H2044 0.984 1_565 S
N2039 H2045 0.985 . S
C2040 C2034 1.379 . S
C2040 C2037 1.363 1_545 S
C2040 N2038 1.356 . S
C2041 C2035 1.363 1_565 S
C2041 C2036 1.379 . S
C2041 N2039 1.356 . S
N2042 C2034 1.356 . S
N2042 H2048 0.984 . S
N2042 H2049 0.984 . S
N2043 C2036 1.356 . S
N2043 H2046 0.984 . S
N2043 H2047 0.985 . S
H2044 N2039 0.984 1_545 S
H2045 N2039 0.985 . S
H2046 N2043 0.984 . S
H2047 N2043 0.985 . S
H2048 N2042 0.984 . S
H2049 N2042 0.984 . S
H2050 N2038 0.984 . S
H2051 N2038 0.985 1_565 S
C2052 C2053 1.363 . S
C2052 C2058 1.379 . S
C2052 N2060 1.356 . S
C2053 C2052 1.363 . S
C2053 C2059 1.363 1_655 S
C2054 C2055 1.363 . S
C2054 C2059 1.379 . S
C2054 N2061 1.356 . S
C2055 C2054 1.363 . S
C2055 C2058 1.363 1_455 S
N2056 C2058 1.356 . S
N2056 H2068 0.984 . S
N2056 H2069 0.985 1_655 S
N2057 C2059 1.356 . S
N2057 H2062 0.984 1_455 S
N2057 H2063 0.985 . S
C2058 C2052 1.379 . S
C2058 C2055 1.363 1_655 S
C2058 N2056 1.356 . S
C2059 C2053 1.363 1_455 S
C2059 C2054 1.379 . S
C2059 N2057 1.356 . S
N2060 C2052 1.356 . S
N2060 H2066 0.984 . S
N2060 H2067 0.984 . S
N2061 C2054 1.356 . S
N2061 H2064 0.984 . S
N2061 H2065 0.985 . S
H2062 N2057 0.984 1_655 S
H2063 N2057 0.985 . S
H2064 N2061 0.984 . S
H2065 N2061 0.985 . S
H2066 N2060 0.984 . S
H2067 N2060 0.984 . S
H2068 N2056 0.984 . S
H2069 N2056 0.985 1_455 S
C2070 C2071 1.363 . S
C2070 C2076 1.379 . S
C2070 N2078 1.356 . S
C2071 C2070 1.363 . S
C2071 C2077 1.363 . S
C2072 C2073 1.363 . S
C2072 C2077 1.379 . S
C2072 N2079 1.356 . S
C2073 C2072 1.363 . S
C2073 C2076 1.363 . S
N2074 C2076 1.356 . S
N2074 H2086 0.984 . S
N2074 H2087 0.985 . S
N2075 C2077 1.356 . S
N2075 H2080 0.984 . S
N2075 H2081 0.985 . S
C2076 C2070 1.379 . S
C2076 C2073 1.363 . S
C2076 N2074 1.356 . S
C2077 C2071 1.363 . S
C2077 C2072 1.379 . S
C2077 N2075 1.356 . S
N2078 C2070 1.356 . S
N2078 H2084 0.984 . S
N2078 H2085 0.984 . S
N2079 C2072 1.356 . S
N2079 H2082 0.984 . S
N2079 H2083 0.985 . S
H2080 N2075 0.984 . S
H2081 N2075 0.985 . S
H2082 N2079 0.984 . S
H2083 N2079 0.985 . S
H2084 N2078 0.984 . S
H2085 N2078 0.984 . S
H2086 N2074 0.984 . S
H2087 N2074 0.985 . S
C2088 C2089 1.363 . S
C2088 C2094 1.379 . S
C2088 N2096 1.356 . S
C2089 C2088 1.363 . S
C2089 C2095 1.363 1_565 S
C2090 C2091 1.363 . S
C2090 C2095 1.379 . S
C2090 N2097 1.356 . S
C2091 C2090 1.363 . S
C2091 C2094 1.363 1_545 S
N2092 C2094 1.356 . S
N2092 H2104 0.984 . S
N2092 H2105 0.985 1_565 S
N2093 C2095 1.356 . S
N2093 H2098 0.984 1_545 S
N2093 H2099 0.985 . S
C2094 C2088 1.379 . S
C2094 C2091 1.363 1_565 S
C2094 N2092 1.356 . S
C2095 C2089 1.363 1_545 S
C2095 C2090 1.379 . S
C2095 N2093 1.356 . S
N2096 C2088 1.356 . S
N2096 H2102 0.984 . S
N2096 H2103 0.984 . S
N2097 C2090 1.356 . S
N2097 H2100 0.984 . S
N2097 H2101 0.985 . S
H2098 N2093 0.984 1_565 S
H2099 N2093 0.985 . S
H2100 N2097 0.984 . S
H2101 N2097 0.985 . S
H2102 N2096 0.984 . S
H2103 N2096 0.984 . S
H2104 N2092 0.984 . S
H2105 N2092 0.985 1_545 S
C2106 C2107 1.363 1_455 S
C2106 C2112 1.379 . S
C2106 N2114 1.356 . S
C2107 C2106 1.363 1_655 S
C2107 C2113 1.363 . S
C2108 C2109 1.363 1_655 S
C2108 C2113 1.379 . S
C2108 N2115 1.356 . S
C2109 C2108 1.363 1_455 S
C2109 C2112 1.363 . S
N2110 C2112 1.356 . S
N2110 H2122 0.984 . S
N2110 H2123 0.985 . S
N2111 C2113 1.356 . S
N2111 H2116 0.984 . S
N2111 H2117 0.985 . S
C2112 C2106 1.379 . S
C2112 C2109 1.363 . S
C2112 N2110 1.356 . S
C2113 C2107 1.363 . S
C2113 C2108 1.379 . S
C2113 N2111 1.356 . S
N2114 C2106 1.356 . S
N2114 H2120 0.984 . S
N2114 H2121 0.984 1_455 S
N2115 C2108 1.356 . S
N2115 H2118 0.984 1_655 S
N2115 H2119 0.985 . S
H2116 N2111 0.984 . S
H2117 N2111 0.985 . S
H2118 N2115 0.984 1_455 S
H2119 N2115 0.985 . S
H2120 N2114 0.984 . S
H2121 N2114 0.984 1_655 S
H2122 N2110 0.984 . S
H2123 N2110 0.985 . S
C2124 C2125 1.363 . S
C2124 C2130 1.379 . S
C2124 N2132 1.356 . S
C2125 C2124 1.363 . S
C2125 C2131 1.363 . S
C2126 C2127 1.363 . S
C2126 C2131 1.379 . S
C2126 N2133 1.356 . S
C2127 C2126 1.363 . S
C2127 C2130 1.363 . S
N2128 C2130 1.356 . S
N2128 H2140 0.984 . S
N2128 H2141 0.985 . S
N2129 C2131 1.356 . S
N2129 H2134 0.984 . S
N2129 H2135 0.985 . S
C2130 C2124 1.379 . S
C2130 C2127 1.363 . S
C2130 N2128 1.356 . S
C2131 C2125 1.363 . S
C2131 C2126 1.379 . S
C2131 N2129 1.356 . S
N2132 C2124 1.356 . S
N2132 H2138 0.984 . S
N2132 H2139 0.984 . S
N2133 C2126 1.356 . S
N2133 H2136 0.984 . S
N2133 H2137 0.985 . S
H2134 N2129 0.984 . S
H2135 N2129 0.985 . S
H2136 N2133 0.984 . S
H2137 N2133 0.985 . S
H2138 N2132 0.984 . S
H2139 N2132 0.984 . S
H2140 N2128 0.984 . S
H2141 N2128 0.985 . S
C2142 C2143 1.363 . S
C2142 C2148 1.379 . S
C2142 N2150 1.356 . S
C2143 C2142 1.363 . S
C2143 C2149 1.363 . S
C2144 C2145 1.363 . S
C2144 C2149 1.379 . S
C2144 N2151 1.356 . S
C2145 C2144 1.363 . S
C2145 C2148 1.363 . S
N2146 C2148 1.356 . S
N2146 H2158 0.984 . S
N2146 H2159 0.985 . S
N2147 C2149 1.356 . S
N2147 H2152 0.984 . S
N2147 H2153 0.985 . S
C2148 C2142 1.379 . S
C2148 C2145 1.363 . S
C2148 N2146 1.356 . S
C2149 C2143 1.363 . S
C2149 C2144 1.379 . S
C2149 N2147 1.356 . S
N2150 C2142 1.356 . S
N2150 H2156 0.984 . S
N2150 H2157 0.984 . S
N2151 C2144 1.356 . S
N2151 H2154 0.984 . S
N2151 H2155 0.985 . S
H2152 N2147 0.984 . S
H2153 N2147 0.985 . S
H2154 N2151 0.984 . S
H2155 N2151 0.985 . S
H2156 N2150 0.984 . S
H2157 N2150 0.984 . S
H2158 N2146 0.984 . S
H2159 N2146 0.985 . S
C2160 C2161 1.363 . S
C2160 C2166 1.379 . S
C2160 N2168 1.356 . S
C2161 C2160 1.363 . S
C2161 C2167 1.363 . S
C2162 C2163 1.363 . S
C2162 C2167 1.379 . S
C2162 N2169 1.356 . S
C2163 C2162 1.363 . S
C2163 C2166 1.363 . S
N2164 C2166 1.356 . S
N2164 H2176 0.984 . S
N2164 H2177 0.985 . S
N2165 C2167 1.356 . S
N2165 H2170 0.984 . S
N2165 H2171 0.985 . S
C2166 C2160 1.379 . S
C2166 C2163 1.363 . S
C2166 N2164 1.356 . S
C2167 C2161 1.363 . S
C2167 C2162 1.379 . S
C2167 N2165 1.356 . S
N2168 C2160 1.356 . S
N2168 H2174 0.984 . S
N2168 H2175 0.984 . S
N2169 C2162 1.356 . S
N2169 H2172 0.984 . S
N2169 H2173 0.985 . S
H2170 N2165 0.984 . S
H2171 N2165 0.985 . S
H2172 N2169 0.984 . S
H2173 N2169 0.985 . S
H2174 N2168 0.984 . S
H2175 N2168 0.984 . S
H2176 N2164 0.984 . S
H2177 N2164 0.985 . S
C2178 C2179 1.363 . S
C2178 C2184 1.379 . S
C2178 N2186 1.356 . S
C2179 C2178 1.363 . S
C2179 C2185 1.363 . S
C2180 C2181 1.363 . S
C2180 C2185 1.379 . S
C2180 N2187 1.356 . S
C2181 C2180 1.363 . S
C2181 C2184 1.363 . S
N2182 C2184 1.356 . S
N2182 H2194 0.984 . S
N2182 H2195 0.985 1_554 S
N2183 C2185 1.356 . S
N2183 H2188 0.984 . S
N2183 H2189 0.985 . S
C2184 C2178 1.379 . S
C2184 C2181 1.363 . S
C2184 N2182 1.356 . S
C2185 C2179 1.363 . S
C2185 C2180 1.379 . S
C2185 N2183 1.356 . S
N2186 C2178 1.356 . S
N2186 H2192 0.984 . S
N2186 H2193 0.984 . S
N2187 C2180 1.356 . S
N2187 H2190 0.984 . S
N2187 H2191 0.985 . S
H2188 N2183 0.984 . S
H2189 N2183 0.985 . S
H2190 N2187 0.984 . S
H2191 N2187 0.985 . S
H2192 N2186 0.984 . S
H2193 N2186 0.984 . S
H2194 N2182 0.984 . S
H2195 N2182 0.985 1_556 S
C2196 C2197 1.363 . S
C2196 C2202 1.379 . S
C2196 N2204 1.356 . S
C2197 C2196 1.363 . S
C2197 C2203 1.363 . S
C2198 C2199 1.363 . S
C2198 C2203 1.379 . S
C2198 N2205 1.356 . S
C2199 C2198 1.363 . S
C2199 C2202 1.363 . S
N2200 C2202 1.356 1_556 S
N2200 H2212 0.984 . S
N2200 H2213 0.985 . S
N2201 C2203 1.356 . S
N2201 H2206 0.984 . S
N2201 H2207 0.985 . S
C2202 C2196 1.379 . S
C2202 C2199 1.363 . S
C2202 N2200 1.356 1_554 S
C2203 C2197 1.363 . S
C2203 C2198 1.379 . S
C2203 N2201 1.356 . S
N2204 C2196 1.356 . S
N2204 H2210 0.984 . S
N2204 H2211 0.984 . S
N2205 C2198 1.356 . S
N2205 H2208 0.984 . S
N2205 H2209 0.985 . S
H2206 N2201 0.984 . S
H2207 N2201 0.985 . S
H2208 N2205 0.984 . S
H2209 N2205 0.985 . S
H2210 N2204 0.984 . S
H2211 N2204 0.984 . S
H2212 N2200 0.984 . S
H2213 N2200 0.985 . S
C2214 C2215 1.363 . S
C2214 C2220 1.379 . S
C2214 N2222 1.356 . S
C2215 C2214 1.363 . S
C2215 C2221 1.363 . S
C2216 C2217 1.363 . S
C2216 C2221 1.379 . S
C2216 N2223 1.356 . S
C2217 C2216 1.363 . S
C2217 C2220 1.363 . S
N2218 C2220 1.356 . S
N2218 H2230 0.984 . S
N2218 H2231 0.985 1_554 S
N2219 C2221 1.356 . S
N2219 H2224 0.984 . S
N2219 H2225 0.985 . S
C2220 C2214 1.379 . S
C2220 C2217 1.363 . S
C2220 N2218 1.356 . S
C2221 C2215 1.363 . S
C2221 C2216 1.379 . S
C2221 N2219 1.356 . S
N2222 C2214 1.356 . S
N2222 H2228 0.984 . S
N2222 H2229 0.984 . S
N2223 C2216 1.356 . S
N2223 H2226 0.984 . S
N2223 H2227 0.985 . S
H2224 N2219 0.984 . S
H2225 N2219 0.985 . S
H2226 N2223 0.984 . S
H2227 N2223 0.985 . S
H2228 N2222 0.984 . S
H2229 N2222 0.984 . S
H2230 N2218 0.984 . S
H2231 N2218 0.985 1_556 S
C2232 C2233 1.363 . S
C2232 C2238 1.379 . S
C2232 N2240 1.356 . S
C2233 C2232 1.363 . S
C2233 C2239 1.363 . S
C2234 C2235 1.363 . S
C2234 C2239 1.379 . S
C2234 N2241 1.356 . S
C2235 C2234 1.363 . S
C2235 C2238 1.363 . S
N2236 C2238 1.356 . S
N2236 H2248 0.984 . S
N2236 H2249 0.985 1_556 S
N2237 C2239 1.356 . S
N2237 H2242 0.984 . S
N2237 H2243 0.985 . S
C2238 C2232 1.379 . S
C2238 C2235 1.363 . S
C2238 N2236 1.356 . S
C2239 C2233 1.363 . S
C2239 C2234 1.379 . S
C2239 N2237 1.356 . S
N2240 C2232 1.356 . S
N2240 H2246 0.984 . S
N2240 H2247 0.984 . S
N2241 C2234 1.356 . S
N2241 H2244 0.984 . S
N2241 H2245 0.985 . S
H2242 N2237 0.984 . S
H2243 N2237 0.985 . S
H2244 N2241 0.984 . S
H2245 N2241 0.985 . S
H2246 N2240 0.984 . S
H2247 N2240 0.984 . S
H2248 N2236 0.984 . S
H2249 N2236 0.985 1_554 S
C2250 C2251 1.363 . S
C2250 C2256 1.379 . S
C2250 N2258 1.356 . S
C2251 C2250 1.363 . S
C2251 C2257 1.363 . S
C2252 C2253 1.363 . S
C2252 C2257 1.379 . S
C2252 N2259 1.356 . S
C2253 C2252 1.363 . S
C2253 C2256 1.363 . S
N2254 C2256 1.356 . S
N2254 H2266 0.984 . S
N2254 H2267 0.985 . S
N2255 C2257 1.356 1_554 S
N2255 H2260 0.984 . S
N2255 H2261 0.985 . S
C2256 C2250 1.379 . S
C2256 C2253 1.363 . S
C2256 N2254 1.356 . S
C2257 C2251 1.363 . S
C2257 C2252 1.379 . S
C2257 N2255 1.356 1_556 S
N2258 C2250 1.356 . S
N2258 H2264 0.984 . S
N2258 H2265 0.984 . S
N2259 C2252 1.356 . S
N2259 H2262 0.984 . S
N2259 H2263 0.985 . S
H2260 N2255 0.984 . S
H2261 N2255 0.985 . S
H2262 N2259 0.984 . S
H2263 N2259 0.985 . S
H2264 N2258 0.984 . S
H2265 N2258 0.984 . S
H2266 N2254 0.984 . S
H2267 N2254 0.985 . S
C2268 C2269 1.363 . S
C2268 C2274 1.379 . S
C2268 N2276 1.356 . S
C2269 C2268 1.363 . S
C2269 C2275 1.363 . S
C2270 C2271 1.363 . S
C2270 C2275 1.379 . S
C2270 N2277 1.356 . S
C2271 C2270 1.363 . S
C2271 C2274 1.363 . S
N2272 C2274 1.356 . S
N2272 H2284 0.984 . S
N2272 H2285 0.985 . S
N2273 C2275 1.356 1_554 S
N2273 H2278 0.984 . S
N2273 H2279 0.985 . S
C2274 C2268 1.379 . S
C2274 C2271 1.363 . S
C2274 N2272 1.356 . S
C2275 C2269 1.363 . S
C2275 C2270 1.379 . S
C2275 N2273 1.356 1_556 S
N2276 C2268 1.356 . S
N2276 H2282 0.984 . S
N2276 H2283 0.984 . S
N2277 C2270 1.356 . S
N2277 H2280 0.984 . S
N2277 H2281 0.985 . S
H2278 N2273 0.984 . S
H2279 N2273 0.985 . S
H2280 N2277 0.984 . S
H2281 N2277 0.985 . S
H2282 N2276 0.984 . S
H2283 N2276 0.984 . S
H2284 N2272 0.984 . S
H2285 N2272 0.985 . S
C2286 C2287 1.363 . S
C2286 C2292 1.379 . S
C2286 N2294 1.356 . S
C2287 C2286 1.363 . S
C2287 C2293 1.363 . S
C2288 C2289 1.363 . S
C2288 C2293 1.379 . S
C2288 N2295 1.356 . S
C2289 C2288 1.363 . S
C2289 C2292 1.363 . S
N2290 C2292 1.356 . S
N2290 H2302 0.984 . S
N2290 H2303 0.985 . S
N2291 C2293 1.356 . S
N2291 H2296 0.984 . S
N2291 H2297 0.985 . S
C2292 C2286 1.379 . S
C2292 C2289 1.363 . S
C2292 N2290 1.356 . S
C2293 C2287 1.363 . S
C2293 C2288 1.379 . S
C2293 N2291 1.356 . S
N2294 C2286 1.356 . S
N2294 H2300 0.984 . S
N2294 H2301 0.984 . S
N2295 C2288 1.356 . S
N2295 H2298 0.984 . S
N2295 H2299 0.985 . S
H2296 N2291 0.984 . S
H2297 N2291 0.985 . S
H2298 N2295 0.984 . S
H2299 N2295 0.985 . S
H2300 N2294 0.984 . S
H2301 N2294 0.984 . S
H2302 N2290 0.984 . S
H2303 N2290 0.985 . S
C2304 C2305 1.363 . S
C2304 C2310 1.379 . S
C2304 N2312 1.356 . S
C2305 C2304 1.363 . S
C2305 C2311 1.363 . S
C2306 C2307 1.363 . S
C2306 C2311 1.379 . S
C2306 N2313 1.356 . S
C2307 C2306 1.363 . S
C2307 C2310 1.363 . S
N2308 C2310 1.356 . S
N2308 H2320 0.984 . S
N2308 H2321 0.985 . S
N2309 C2311 1.356 . S
N2309 H2314 0.984 . S
N2309 H2315 0.985 . S
C2310 C2304 1.379 . S
C2310 C2307 1.363 . S
C2310 N2308 1.356 . S
C2311 C2305 1.363 . S
C2311 C2306 1.379 . S
C2311 N2309 1.356 . S
N2312 C2304 1.356 . S
N2312 H2318 0.984 . S
N2312 H2319 0.984 . S
N2313 C2306 1.356 . S
N2313 H2316 0.984 . S
N2313 H2317 0.985 . S
H2314 N2309 0.984 . S
H2315 N2309 0.985 . S
H2316 N2313 0.984 . S
H2317 N2313 0.985 . S
H2318 N2312 0.984 . S
H2319 N2312 0.984 . S
H2320 N2308 0.984 . S
H2321 N2308 0.985 . S
C2322 C2323 1.363 . S
C2322 C2328 1.379 . S
C2322 N2330 1.356 . S
C2323 C2322 1.363 . S
C2323 C2329 1.363 . S
C2324 C2325 1.363 . S
C2324 C2329 1.379 . S
C2324 N2331 1.356 . S
C2325 C2324 1.363 . S
C2325 C2328 1.363 . S
N2326 C2328 1.356 . S
N2326 H2338 0.984 . S
N2326 H2339 0.985 . S
N2327 C2329 1.356 . S
N2327 H2332 0.984 . S
N2327 H2333 0.985 . S
C2328 C2322 1.379 . S
C2328 C2325 1.363 . S
C2328 N2326 1.356 . S
C2329 C2323 1.363 . S
C2329 C2324 1.379 . S
C2329 N2327 1.356 . S
N2330 C2322 1.356 . S
N2330 H2336 0.984 . S
N2330 H2337 0.984 . S
N2331 C2324 1.356 . S
N2331 H2334 0.984 . S
N2331 H2335 0.985 . S
H2332 N2327 0.984 . S
H2333 N2327 0.985 . S
H2334 N2331 0.984 . S
H2335 N2331 0.985 . S
H2336 N2330 0.984 . S
H2337 N2330 0.984 . S
H2338 N2326 0.984 . S
H2339 N2326 0.985 . S
C2340 C2341 1.363 . S
C2340 C2346 1.379 . S
C2340 N2348 1.356 . S
C2341 C2340 1.363 . S
C2341 C2347 1.363 . S
C2342 C2343 1.363 . S
C2342 C2347 1.379 . S
C2342 N2349 1.356 . S
C2343 C2342 1.363 . S
C2343 C2346 1.363 . S
N2344 C2346 1.356 . S
N2344 H2356 0.984 . S
N2344 H2357 0.985 . S
N2345 C2347 1.356 . S
N2345 H2350 0.984 . S
N2345 H2351 0.985 1_554 S
C2346 C2340 1.379 . S
C2346 C2343 1.363 . S
C2346 N2344 1.356 . S
C2347 C2341 1.363 . S
C2347 C2342 1.379 . S
C2347 N2345 1.356 . S
N2348 C2340 1.356 . S
N2348 H2354 0.984 . S
N2348 H2355 0.984 . S
N2349 C2342 1.356 . S
N2349 H2352 0.984 . S
N2349 H2353 0.985 1_554 S
H2350 N2345 0.984 . S
H2351 N2345 0.985 1_556 S
H2352 N2349 0.984 . S
H2353 N2349 0.985 1_556 S
H2354 N2348 0.984 . S
H2355 N2348 0.984 . S
H2356 N2344 0.984 . S
H2357 N2344 0.985 . S
C2358 C2359 1.363 . S
C2358 C2364 1.379 . S
C2358 N2366 1.356 . S
C2359 C2358 1.363 . S
C2359 C2365 1.363 . S
C2360 C2361 1.363 . S
C2360 C2365 1.379 . S
C2360 N2367 1.356 . S
C2361 C2360 1.363 . S
C2361 C2364 1.363 . S
N2362 C2364 1.356 1_545 S
N2362 H2374 0.984 . S
N2362 H2375 0.985 . S
N2363 C2365 1.356 . S
N2363 H2368 0.984 . S
N2363 H2369 0.994 . S
C2364 C2358 1.379 . S
C2364 C2361 1.363 . S
C2364 N2362 1.356 1_565 S
C2365 C2359 1.363 . S
C2365 C2360 1.379 . S
C2365 N2363 1.356 . S
N2366 C2358 1.356 . S
N2366 H2372 0.984 . S
N2366 H2373 0.984 . S
N2367 C2360 1.356 . S
N2367 H2370 0.984 . S
N2367 H2371 0.985 . S
H2368 N2363 0.984 . S
H2369 N2363 0.994 . S
H2370 N2367 0.984 . S
H2371 N2367 0.985 . S
H2372 N2366 0.984 . S
H2373 N2366 0.984 . S
H2374 N2362 0.984 . S
H2375 N2362 0.985 . S
C2376 C2377 1.363 . S
C2376 C2382 1.379 . S
C2376 N2384 1.356 . S
C2377 C2376 1.363 . S
C2377 C2383 1.363 . S
C2378 C2379 1.363 . S
C2378 C2383 1.388 . S
C2378 N2385 1.356 . S
C2379 C2378 1.363 . S
C2379 C2382 1.363 . S
N2380 C2382 1.356 . S
N2380 H2392 0.984 . S
N2380 H2393 0.985 . S
N2381 C2383 1.345 1_655 S
N2381 H2386 0.984 . S
N2381 H2387 0.985 . S
C2382 C2376 1.379 . S
C2382 C2379 1.363 . S
C2382 N2380 1.356 . S
C2383 C2377 1.363 . S
C2383 C2378 1.388 . S
C2383 N2381 1.345 1_455 S
N2384 C2376 1.356 . S
N2384 H2390 0.984 . S
N2384 H2391 0.984 . S
N2385 C2378 1.356 . S
N2385 H2388 0.984 . S
N2385 H2389 0.985 1_455 S
H2386 N2381 0.984 . S
H2387 N2381 0.985 . S
H2388 N2385 0.984 . S
H2389 N2385 0.985 1_655 S
H2390 N2384 0.984 . S
H2391 N2384 0.984 . S
H2392 N2380 0.984 . S
H2393 N2380 0.985 . S
C2394 C2395 1.363 . S
C2394 C2400 1.379 . S
C2394 N2402 1.356 . S
C2395 C2394 1.363 . S
C2395 C2401 1.363 . S
C2396 C2397 1.363 . S
C2396 C2401 1.379 . S
C2396 N2403 1.356 . S
C2397 C2396 1.363 . S
C2397 C2400 1.363 . S
N2398 C2400 1.356 . S
N2398 H2410 0.984 . S
N2398 H2411 0.985 . S
N2399 C2401 1.356 . S
N2399 H2404 0.984 . S
N2399 H2405 0.985 . S
C2400 C2394 1.379 . S
C2400 C2397 1.363 . S
C2400 N2398 1.356 . S
C2401 C2395 1.363 . S
C2401 C2396 1.379 . S
C2401 N2399 1.356 . S
N2402 C2394 1.356 . S
N2402 H2408 0.984 . S
N2402 H2409 0.984 . S
N2403 C2396 1.356 . S
N2403 H2406 0.984 . S
N2403 H2407 0.985 . S
H2404 N2399 0.984 . S
H2405 N2399 0.985 . S
H2406 N2403 0.984 . S
H2407 N2403 0.985 . S
H2408 N2402 0.984 . S
H2409 N2402 0.984 . S
H2410 N2398 0.984 . S
H2411 N2398 0.985 . S
C2412 C2413 1.363 . S
C2412 C2418 1.379 . S
C2412 N2420 1.356 1_545 S
C2413 C2412 1.363 . S
C2413 C2419 1.363 . S
C2414 C2415 1.363 . S
C2414 C2419 1.379 . S
C2414 N2421 1.356 . S
C2415 C2414 1.363 . S
C2415 C2418 1.363 . S
N2416 C2418 1.356 . S
N2416 H2428 0.984 . S
N2416 H2429 0.985 . S
N2417 C2419 1.356 . S
N2417 H2422 0.984 . S
N2417 H2423 0.985 . S
C2418 C2412 1.379 . S
C2418 C2415 1.363 . S
C2418 N2416 1.356 . S
C2419 C2413 1.363 . S
C2419 C2414 1.379 . S
C2419 N2417 1.356 . S
N2420 C2412 1.356 1_565 S
N2420 H2426 0.984 . S
N2420 H2427 0.984 . S
N2421 C2414 1.356 . S
N2421 H2424 0.984 . S
N2421 H2425 0.985 . S
H2422 N2417 0.984 . S
H2423 N2417 0.985 . S
H2424 N2421 0.984 . S
H2425 N2421 0.985 . S
H2426 N2420 0.984 . S
H2427 N2420 0.984 . S
H2428 N2416 0.984 . S
H2429 N2416 0.985 . S
C2430 C2431 1.363 . S
C2430 C2436 1.379 . S
C2430 N2438 1.356 1_655 S
C2431 C2430 1.363 . S
C2431 C2437 1.363 . S
C2432 C2433 1.363 . S
C2432 C2437 1.379 . S
C2432 N2439 1.356 . S
C2433 C2432 1.363 . S
C2433 C2436 1.363 . S
N2434 C2436 1.356 . S
N2434 H2446 0.984 . S
N2434 H2447 0.985 . S
N2435 C2437 1.356 . S
N2435 H2440 0.984 . S
N2435 H2441 0.985 . S
C2436 C2430 1.379 . S
C2436 C2433 1.363 . S
C2436 N2434 1.356 . S
C2437 C2431 1.363 . S
C2437 C2432 1.379 . S
C2437 N2435 1.356 . S
N2438 C2430 1.356 1_455 S
N2438 H2444 0.984 . S
N2438 H2445 0.984 . S
N2439 C2432 1.356 . S
N2439 H2442 0.984 . S
N2439 H2443 0.985 . S
H2440 N2435 0.984 . S
H2441 N2435 0.985 . S
H2442 N2439 0.984 . S
H2443 N2439 0.985 . S
H2444 N2438 0.984 . S
H2445 N2438 0.984 . S
H2446 N2434 0.984 . S
H2447 N2434 0.985 . S
C2448 C2449 1.363 . S
C2448 C2454 1.379 . S
C2448 N2456 1.356 . S
C2449 C2448 1.363 . S
C2449 C2455 1.363 . S
C2450 C2451 1.363 . S
C2450 C2455 1.379 . S
C2450 N2457 1.356 . S
C2451 C2450 1.363 . S
C2451 C2454 1.363 . S
N2452 C2454 1.356 . S
N2452 H2464 0.984 1_556 S
N2452 H2465 0.985 . S
N2453 C2455 1.356 . S
N2453 H2458 0.984 . S
N2453 H2459 0.985 . S
C2454 C2448 1.379 . S
C2454 C2451 1.363 . S
C2454 N2452 1.356 . S
C2455 C2449 1.363 . S
C2455 C2450 1.379 . S
C2455 N2453 1.356 . S
N2456 C2448 1.356 . S
N2456 H2462 0.984 1_556 S
N2456 H2463 0.984 . S
N2457 C2450 1.356 . S
N2457 H2460 0.984 . S
N2457 H2461 0.985 . S
H2458 N2453 0.984 . S
H2459 N2453 0.985 . S
H2460 N2457 0.984 . S
H2461 N2457 0.985 . S
H2462 N2456 0.984 1_554 S
H2463 N2456 0.984 . S
H2464 N2452 0.984 1_554 S
H2465 N2452 0.985 . S
C2466 C2467 1.363 . S
C2466 C2472 1.379 . S
C2466 N2474 1.356 . S
C2467 C2466 1.363 . S
C2467 C2473 1.363 . S
C2468 C2469 1.363 . S
C2468 C2473 1.379 . S
C2468 N2475 1.356 . S
C2469 C2468 1.363 . S
C2469 C2472 1.363 . S
N2470 C2472 1.356 . S
N2470 H2482 0.984 1_556 S
N2470 H2483 0.985 . S
N2471 C2473 1.356 1_565 S
N2471 H2476 0.984 . S
N2471 H2477 0.985 . S
C2472 C2466 1.379 . S
C2472 C2469 1.363 . S
C2472 N2470 1.356 . S
C2473 C2467 1.363 . S
C2473 C2468 1.379 . S
C2473 N2471 1.356 1_545 S
N2474 C2466 1.356 . S
N2474 H2480 0.984 1_556 S
N2474 H2481 0.984 . S
N2475 C2468 1.356 . S
N2475 H2478 0.984 . S
N2475 H2479 0.985 . S
H2476 N2471 0.984 . S
H2477 N2471 0.985 . S
H2478 N2475 0.984 . S
H2479 N2475 0.985 . S
H2480 N2474 0.984 1_554 S
H2481 N2474 0.984 . S
H2482 N2470 0.984 1_554 S
H2483 N2470 0.985 . S
C2484 C2485 1.363 . S
C2484 C2490 1.379 . S
C2484 N2492 1.356 . S
C2485 C2484 1.363 . S
C2485 C2491 1.363 . S
C2486 C2487 1.363 . S
C2486 C2491 1.379 . S
C2486 N2493 1.356 . S
C2487 C2486 1.363 . S
C2487 C2490 1.363 . S
N2488 C2490 1.356 1_455 S
N2488 H2500 0.984 1_556 S
N2488 H2501 0.985 . S
N2489 C2491 1.356 . S
N2489 H2494 0.984 . S
N2489 H2495 0.985 . S
C2490 C2484 1.379 . S
C2490 C2487 1.363 . S
C2490 N2488 1.356 1_655 S
C2491 C2485 1.363 . S
C2491 C2486 1.379 . S
C2491 N2489 1.356 . S
N2492 C2484 1.356 . S
N2492 H2498 0.984 1_556 S
N2492 H2499 0.984 . S
N2493 C2486 1.356 . S
N2493 H2496 0.984 . S
N2493 H2497 0.985 . S
H2494 N2489 0.984 . S
H2495 N2489 0.985 . S
H2496 N2493 0.984 . S
H2497 N2493 0.985 . S
H2498 N2492 0.984 1_554 S
H2499 N2492 0.984 . S
H2500 N2488 0.984 1_554 S
H2501 N2488 0.985 . S
C2502 C2503 1.363 . S
C2502 C2508 1.379 . S
C2502 N2510 1.356 . S
C2503 C2502 1.363 . S
C2503 C2509 1.363 . S
C2504 C2505 1.363 . S
C2504 C2509 1.379 . S
C2504 N2511 1.356 . S
C2505 C2504 1.363 . S
C2505 C2508 1.363 . S
N2506 C2508 1.356 . S
N2506 H2518 0.984 . S
N2506 H2519 0.985 . S
N2507 C2509 1.356 . S
N2507 H2512 0.984 . S
N2507 H2513 0.985 . S
C2508 C2502 1.379 . S
C2508 C2505 1.363 . S
C2508 N2506 1.356 . S
C2509 C2503 1.363 . S
C2509 C2504 1.379 . S
C2509 N2507 1.356 . S
N2510 C2502 1.356 . S
N2510 H2516 0.984 . S
N2510 H2517 0.984 . S
N2511 C2504 1.356 . S
N2511 H2514 0.984 . S
N2511 H2515 0.985 . S
H2512 N2507 0.984 . S
H2513 N2507 0.985 . S
H2514 N2511 0.984 . S
H2515 N2511 0.985 . S
H2516 N2510 0.984 . S
H2517 N2510 0.984 . S
H2518 N2506 0.984 . S
H2519 N2506 0.985 . S
C2520 C2521 1.363 . S
C2520 C2526 1.379 . S
C2520 N2528 1.356 . S
C2521 C2520 1.363 . S
C2521 C2527 1.363 . S
C2522 C2523 1.363 . S
C2522 C2527 1.379 . S
C2522 N2529 1.356 . S
C2523 C2522 1.363 . S
C2523 C2526 1.363 . S
N2524 C2526 1.356 1_545 S
N2524 H2536 0.984 . S
N2524 H2537 0.985 . S
N2525 C2527 1.356 . S
N2525 H2530 0.984 . S
N2525 H2531 0.985 . S
C2526 C2520 1.379 . S
C2526 C2523 1.363 . S
C2526 N2524 1.356 1_565 S
C2527 C2521 1.363 . S
C2527 C2522 1.379 . S
C2527 N2525 1.356 . S
N2528 C2520 1.356 . S
N2528 H2534 0.984 . S
N2528 H2535 0.984 . S
N2529 C2522 1.356 . S
N2529 H2532 0.984 . S
N2529 H2533 0.985 . S
H2530 N2525 0.984 . S
H2531 N2525 0.985 . S
H2532 N2529 0.984 . S
H2533 N2529 0.985 . S
H2534 N2528 0.984 . S
H2535 N2528 0.984 . S
H2536 N2524 0.984 . S
H2537 N2524 0.985 . S
C2538 C2539 1.363 . S
C2538 C2544 1.379 . S
C2538 N2546 1.356 . S
C2539 C2538 1.363 . S
C2539 C2545 1.363 . S
C2540 C2541 1.363 . S
C2540 C2545 1.379 . S
C2540 N2547 1.356 . S
C2541 C2540 1.363 . S
C2541 C2544 1.363 . S
N2542 C2544 1.356 1_655 S
N2542 H2554 0.984 . S
N2542 H2555 0.985 . S
N2543 C2545 1.356 . S
N2543 H2548 0.984 . S
N2543 H2549 0.985 . S
C2544 C2538 1.379 . S
C2544 C2541 1.363 . S
C2544 N2542 1.356 1_455 S
C2545 C2539 1.363 . S
C2545 C2540 1.379 . S
C2545 N2543 1.356 . S
N2546 C2538 1.356 . S
N2546 H2552 0.984 . S
N2546 H2553 0.984 . S
N2547 C2540 1.356 . S
N2547 H2550 0.984 . S
N2547 H2551 0.985 . S
H2548 N2543 0.984 . S
H2549 N2543 0.985 . S
H2550 N2547 0.984 . S
H2551 N2547 0.985 . S
H2552 N2546 0.984 . S
H2553 N2546 0.984 . S
H2554 N2542 0.984 . S
H2555 N2542 0.985 . S
C2556 C2557 1.363 . S
C2556 C2562 1.379 1_655 S
C2556 N2564 1.356 . S
C2557 C2556 1.363 . S
C2557 C2563 1.363 . S
C2558 C2559 1.363 . S
C2558 C2563 1.379 1_455 S
C2558 N2565 1.356 . S
C2559 C2558 1.363 . S
C2559 C2562 1.363 . S
N2560 C2562 1.356 . S
N2560 H2572 0.984 . S
N2560 H2573 0.985 . S
N2561 C2563 1.356 . S
N2561 H2566 0.984 . S
N2561 H2567 0.985 . S
C2562 C2556 1.379 1_455 S
C2562 C2559 1.363 . S
C2562 N2560 1.356 . S
C2563 C2557 1.363 . S
C2563 C2558 1.379 1_655 S
C2563 N2561 1.356 . S
N2564 C2556 1.356 . S
N2564 H2570 0.984 . S
N2564 H2571 0.984 . S
N2565 C2558 1.356 . S
N2565 H2568 0.984 . S
N2565 H2569 0.985 . S
H2566 N2561 0.984 . S
H2567 N2561 0.985 . S
H2568 N2565 0.984 . S
H2569 N2565 0.985 . S
H2570 N2564 0.984 . S
H2571 N2564 0.984 . S
H2572 N2560 0.984 . S
H2573 N2560 0.985 . S
C2574 C2575 1.363 . S
C2574 C2580 1.379 . S
C2574 N2582 1.356 . S
C2575 C2574 1.363 . S
C2575 C2581 1.363 . S
C2576 C2577 1.363 . S
C2576 C2581 1.379 . S
C2576 N2583 1.356 . S
C2577 C2576 1.363 . S
C2577 C2580 1.363 . S
N2578 C2580 1.356 . S
N2578 H2590 0.984 . S
N2578 H2591 0.985 . S
N2579 C2581 1.356 . S
N2579 H2584 0.984 . S
N2579 H2585 0.985 . S
C2580 C2574 1.379 . S
C2580 C2577 1.363 . S
C2580 N2578 1.356 . S
C2581 C2575 1.363 . S
C2581 C2576 1.379 . S
C2581 N2579 1.356 . S
N2582 C2574 1.356 . S
N2582 H2588 0.984 . S
N2582 H2589 0.984 . S
N2583 C2576 1.356 . S
N2583 H2586 0.984 . S
N2583 H2587 0.985 . S
H2584 N2579 0.984 . S
H2585 N2579 0.985 . S
H2586 N2583 0.984 . S
H2587 N2583 0.985 . S
H2588 N2582 0.984 . S
H2589 N2582 0.984 . S
H2590 N2578 0.984 . S
H2591 N2578 0.985 . S
C2592 C2593 1.363 . S
C2592 C2598 1.379 1_545 S
C2592 N2600 1.356 . S
C2593 C2592 1.363 . S
C2593 C2599 1.363 . S
C2594 C2595 1.363 . S
C2594 C2599 1.379 1_565 S
C2594 N2601 1.356 . S
C2595 C2594 1.363 . S
C2595 C2598 1.363 . S
N2596 C2598 1.356 . S
N2596 H2608 0.984 . S
N2596 H2609 0.985 . S
N2597 C2599 1.356 . S
N2597 H2602 0.984 . S
N2597 H2603 0.985 . S
C2598 C2592 1.379 1_565 S
C2598 C2595 1.363 . S
C2598 N2596 1.356 . S
C2599 C2593 1.363 . S
C2599 C2594 1.379 1_545 S
C2599 N2597 1.356 . S
N2600 C2592 1.356 . S
N2600 H2606 0.984 . S
N2600 H2607 0.984 . S
N2601 C2594 1.356 . S
N2601 H2604 0.984 . S
N2601 H2605 0.985 . S
H2602 N2597 0.984 . S
H2603 N2597 0.985 . S
H2604 N2601 0.984 . S
H2605 N2601 0.985 . S
H2606 N2600 0.984 . S
H2607 N2600 0.984 . S
H2608 N2596 0.984 . S
H2609 N2596 0.985 . S
C2610 C2611 1.363 . S
C2610 C2616 1.379 1_545 S
C2610 N2618 1.356 . S
C2611 C2610 1.363 . S
C2611 C2617 1.363 . S
C2612 C2613 1.363 . S
C2612 C2617 1.379 1_565 S
C2612 N2619 1.356 . S
C2613 C2612 1.363 . S
C2613 C2616 1.363 . S
N2614 C2616 1.356 . S
N2614 H2626 0.984 . S
N2614 H2627 0.985 . S
N2615 C2617 1.356 . S
N2615 H2620 0.984 . S
N2615 H2621 0.985 . S
C2616 C2610 1.379 1_565 S
C2616 C2613 1.363 . S
C2616 N2614 1.356 . S
C2617 C2611 1.363 . S
C2617 C2612 1.379 1_545 S
C2617 N2615 1.356 . S
N2618 C2610 1.356 . S
N2618 H2624 0.984 . S
N2618 H2625 0.984 . S
N2619 C2612 1.356 . S
N2619 H2622 0.984 . S
N2619 H2623 0.985 . S
H2620 N2615 0.984 . S
H2621 N2615 0.985 . S
H2622 N2619 0.984 . S
H2623 N2619 0.985 . S
H2624 N2618 0.984 . S
H2625 N2618 0.984 . S
H2626 N2614 0.984 . S
H2627 N2614 0.985 . S
C2628 C2629 1.363 . S
C2628 C2634 1.379 1_655 S
C2628 N2636 1.356 . S
C2629 C2628 1.363 . S
C2629 C2635 1.363 . S
C2630 C2631 1.363 . S
C2630 C2635 1.379 1_455 S
C2630 N2637 1.356 . S
C2631 C2630 1.363 . S
C2631 C2634 1.363 . S
N2632 C2634 1.356 . S
N2632 H2644 0.984 . S
N2632 H2645 0.985 . S
N2633 C2635 1.356 . S
N2633 H2638 0.984 . S
N2633 H2639 0.985 . S
C2634 C2628 1.379 1_455 S
C2634 C2631 1.363 . S
C2634 N2632 1.356 . S
C2635 C2629 1.363 . S
C2635 C2630 1.379 1_655 S
C2635 N2633 1.356 . S
N2636 C2628 1.356 . S
N2636 H2642 0.984 . S
N2636 H2643 0.984 . S
N2637 C2630 1.356 . S
N2637 H2640 0.984 . S
N2637 H2641 0.985 . S
H2638 N2633 0.984 . S
H2639 N2633 0.985 . S
H2640 N2637 0.984 . S
H2641 N2637 0.985 . S
H2642 N2636 0.984 . S
H2643 N2636 0.984 . S
H2644 N2632 0.984 . S
H2645 N2632 0.985 . S
C2646 C2647 1.363 . S
C2646 C2652 1.379 . S
C2646 N2654 1.356 . S
C2647 C2646 1.363 . S
C2647 C2653 1.363 . S
C2648 C2649 1.363 . S
C2648 C2653 1.379 . S
C2648 N2655 1.356 . S
C2649 C2648 1.363 . S
C2649 C2652 1.363 . S
N2650 C2652 1.356 . S
N2650 H2662 0.984 . S
N2650 H2663 0.985 . S
N2651 C2653 1.356 . S
N2651 H2656 0.984 . S
N2651 H2657 0.985 . S
C2652 C2646 1.379 . S
C2652 C2649 1.363 . S
C2652 N2650 1.356 . S
C2653 C2647 1.363 . S
C2653 C2648 1.379 . S
C2653 N2651 1.356 . S
N2654 C2646 1.356 . S
N2654 H2660 0.984 . S
N2654 H2661 0.984 . S
N2655 C2648 1.356 . S
N2655 H2658 0.984 . S
N2655 H2659 0.985 . S
H2656 N2651 0.984 . S
H2657 N2651 0.985 . S
H2658 N2655 0.984 . S
H2659 N2655 0.985 . S
H2660 N2654 0.984 . S
H2661 N2654 0.984 . S
H2662 N2650 0.984 . S
H2663 N2650 0.985 . S
C721 C2 1.790 . S
C723 C158 1.790 1_545 S
C739 C178 1.790 1_655 S
C741 C22 1.790 . S
C757 C138 1.790 . S
C759 C42 1.790 . S
C775 C238 1.790 1_455 S
C777 C62 1.790 . S
C793 C82 1.790 . S
C795 C198 1.790 . S
C811 C102 1.790 . S
C813 C218 1.790 1_565 S
C829 C39 1.790 1_565 S
C831 C121 1.790 . S
C847 C141 1.790 . S
C849 C59 1.790 1_455 S
C865 C19 1.790 . S
C867 C161 1.790 . S
C883 C119 1.790 1_655 S
C885 C181 1.790 . S
C901 C201 1.790 . S
C903 C79 1.790 . S
C919 C221 1.790 . S
C921 C99 1.790 1_545 S
C937 C242 1.790 . S
C939 C398 1.790 . S
C955 C418 1.790 . S
C957 C262 1.790 . S
C973 C378 1.790 . S
C975 C282 1.790 . S
C991 C302 1.790 . S
C993 C478 1.790 . S
C1009 C438 1.790 . S
C1011 C322 1.790 . S
C1027 C342 1.790 . S
C1029 C458 1.790 . S
C1045 C361 1.790 . S
C1047 C279 1.790 . S
C1063 C299 1.790 . S
C1065 C381 1.790 . S
C1081 C401 1.790 . S
C1083 C259 1.790 . S
C1099 C359 1.790 . S
C1101 C421 1.790 . S
C1117 C319 1.790 . S
C1119 C441 1.790 . S
C1135 C461 1.790 . S
C1137 C339 1.790 . S
C1153 C482 1.790 . S
C1155 C638 1.790 . S
C1171 C502 1.790 . S
C1173 C658 1.790 . S
C1189 C618 1.790 . S
C1191 C522 1.790 . S
C1207 C718 1.790 . S
C1209 C542 1.790 . S
C1225 C562 1.790 . S
C1227 C678 1.790 . S
C1243 C698 1.790 . S
C1245 C582 1.790 . S
C1261 C519 1.790 . S
C1263 C601 1.790 . S
C1279 C621 1.790 . S
C1281 C539 1.790 . S
C1297 C499 1.790 . S
C1299 C641 1.790 . S
C1315 C661 1.790 . S
C1317 C599 1.790 . S
C1333 C681 1.790 . S
C1335 C559 1.790 . S
C1351 C701 1.790 . S
C1353 C579 1.790 . S
C1369 C18 1.695 . S
C1371 C379 1.695 . S
C1387 C38 1.696 . S
C1389 C399 1.696 . S
C1405 C419 1.696 . S
C1407 C58 1.696 . S
C1423 C679 1.695 . S
C1425 C78 1.695 . S
C1441 C699 1.696 . S
C1443 C98 1.696 . S
C1459 C719 1.696 . S
C1461 C118 1.696 . S
C1477 C139 1.695 . S
C1479 C498 1.695 . S
C1495 C518 1.696 . S
C1497 C159 1.696 . S
C1513 C179 1.696 . S
C1515 C538 1.696 . S
C1531 C199 1.695 . S
C1533 C318 1.695 . S
C1549 C219 1.696 . S
C1551 C338 1.696 . S
C1567 C239 1.696 . S
C1569 C358 1.696 . S
C1585 C258 1.695 . S
C1587 C619 1.695 . S
C1603 C639 1.696 . S
C1605 C278 1.696 . S
C1621 C298 1.696 . S
C1623 C659 1.696 . S
C1639 C558 1.695 . S
C1641 C439 1.695 . S
C1657 C459 1.696 . S
C1659 C578 1.696 . S
C1675 C598 1.696 . S
C1677 C479 1.696 . S
C1693 C9 1.604 . S
C1695 C329 1.604 . S
C1711 C29 1.603 . S
C1713 C349 1.603 . S
C1729 C309 1.604 . S
C1731 C49 1.604 . S
C1747 C69 1.604 . S
C1749 C529 1.604 . S
C1765 C489 1.604 . S
C1767 C89 1.604 . S
C1783 C109 1.604 . S
C1785 C509 1.604 . S
C1801 C688 1.604 . S
C1803 C128 1.604 . S
C1819 C148 1.603 . S
C1821 C708 1.603 . S
C1837 C668 1.604 . S
C1839 C168 1.604 . S
C1855 C188 1.604 . S
C1857 C408 1.604 . S
C1873 C208 1.604 . S
C1875 C368 1.604 . S
C1891 C228 1.604 . S
C1893 C388 1.604 . S
C1909 C569 1.604 . S
C1911 C249 1.604 . S
C1927 C269 1.603 . S
C1929 C589 1.603 . S
C1945 C289 1.604 . S
C1947 C549 1.604 . S
C1963 C648 1.604 . S
C1965 C428 1.604 . S
C1981 C608 1.604 . S
C1983 C448 1.604 . S
C1999 C628 1.603 . S
C2001 C468 1.603 . S
C2017 C68 1.791 . S
C2019 C8 1.791 . S
C2035 C28 1.791 . S
C2037 C88 1.791 . S
C2053 C48 1.791 . S
C2055 C108 1.791 . S
C2071 C189 1.791 . S
C2073 C129 1.791 . S
C2089 C149 1.791 . S
C2091 C209 1.791 . S
C2107 C229 1.791 . S
C2109 C169 1.791 . S
C2125 C308 1.791 . S
C2127 C248 1.791 . S
C2143 C268 1.791 . S
C2145 C328 1.791 . S
C2161 C288 1.791 . S
C2163 C348 1.791 . S
C2179 C369 1.791 . S
C2181 C429 1.791 1_554 S
C2197 C389 1.791 . S
C2199 C449 1.791 1_554 S
C2215 C409 1.791 . S
C2217 C469 1.791 1_554 S
C2233 C488 1.791 . S
C2235 C548 1.791 1_556 S
C2251 C568 1.791 1_556 S
C2253 C508 1.791 . S
C2269 C588 1.791 1_556 S
C2271 C528 1.791 . S
C2287 C609 1.791 . S
C2289 C669 1.791 . S
C2305 C689 1.791 . S
C2307 C629 1.791 . S
C2323 C649 1.791 . S
C2325 C709 1.791 . S
C2341 C1 0.897 . S
C2343 C581 0.897 . S
C2359 C541 0.897 . S
C2361 C21 0.897 1_565 S
C2377 C41 0.897 1_455 S
C2379 C561 0.897 . S
C2395 C261 0.897 . S
C2397 C61 0.897 . S
C2413 C81 0.897 1_545 S
C2415 C281 0.897 . S
C2431 C101 0.897 1_655 S
C2433 C241 0.897 . S
C2449 C462 0.897 . S
C2451 C122 0.897 . S
C2467 C142 0.897 1_545 S
C2469 C422 0.897 . S
C2485 C442 0.897 . S
C2487 C162 0.897 1_655 S
C2503 C182 0.897 . S
C2505 C622 0.897 . S
C2521 C642 0.897 . S
C2523 C202 0.897 1_565 S
C2539 C602 0.897 . S
C2541 C222 0.897 1_455 S
C2557 C301 0.897 . S
C2559 C501 0.897 . S
C2575 C321 0.897 . S
C2577 C521 0.897 . S
C2593 C341 0.897 . S
C2595 C481 0.897 . S
C2611 C362 0.897 . S
C2613 C702 0.897 . S
C2629 C382 0.897 . S
C2631 C662 0.897 . S
C2647 C682 0.897 . S
C2649 C402 0.897 . S
