# Generated by pormake.
# Topology wgl, (5)-cn, num edge types: 1
# Building blocks:
#     Node 0, Type 0, BuildingBlock: XOMCOT_clean_sbu_0, # of connection points: 5
#     Node 1, Type 0, BuildingBlock: XOMCOT_clean_sbu_0, # of connection points: 5
#     Node 2, Type 0, BuildingBlock: XOMCOT_clean_sbu_0, # of connection points: 5
#     Node 3, Type 0, BuildingBlock: XOMCOT_clean_sbu_0, # of connection points: 5
#     Node 4, Type 0, BuildingBlock: XOMCOT_clean_sbu_0, # of connection points: 5
#     Node 5, Type 0, BuildingBlock: XOMCOT_clean_sbu_0, # of connection points: 5
#     Node 6, Type 0, BuildingBlock: XOMCOT_clean_sbu_0, # of connection points: 5
#     Node 7, Type 0, BuildingBlock: XOMCOT_clean_sbu_0, # of connection points: 5
#     Node 8, Type 0, BuildingBlock: XOMCOT_clean_sbu_0, # of connection points: 5
#     Node 9, Type 0, BuildingBlock: XOMCOT_clean_sbu_0, # of connection points: 5
#     Node 10, Type 0, BuildingBlock: XOMCOT_clean_sbu_0, # of connection points: 5
#     Node 11, Type 0, BuildingBlock: XOMCOT_clean_sbu_0, # of connection points: 5
#     Node 12, Type 0, BuildingBlock: XOMCOT_clean_sbu_0, # of connection points: 5
#     Node 13, Type 0, BuildingBlock: XOMCOT_clean_sbu_0, # of connection points: 5
#     Node 14, Type 0, BuildingBlock: XOMCOT_clean_sbu_0, # of connection points: 5
#     Node 15, Type 0, BuildingBlock: XOMCOT_clean_sbu_0, # of connection points: 5
#     Node 16, Type 0, BuildingBlock: XOMCOT_clean_sbu_0, # of connection points: 5
#     Node 17, Type 0, BuildingBlock: XOMCOT_clean_sbu_0, # of connection points: 5
#     Node 18, Type 0, BuildingBlock: XOMCOT_clean_sbu_0, # of connection points: 5
#     Node 19, Type 0, BuildingBlock: XOMCOT_clean_sbu_0, # of connection points: 5
#     Node 20, Type 0, BuildingBlock: XOMCOT_clean_sbu_0, # of connection points: 5
#     Node 21, Type 0, BuildingBlock: XOMCOT_clean_sbu_0, # of connection points: 5
#     Node 22, Type 0, BuildingBlock: XOMCOT_clean_sbu_0, # of connection points: 5
#     Node 23, Type 0, BuildingBlock: XOMCOT_clean_sbu_0, # of connection points: 5
#     Node 24, Type 0, BuildingBlock: XOMCOT_clean_sbu_0, # of connection points: 5
#     Node 25, Type 0, BuildingBlock: XOMCOT_clean_sbu_0, # of connection points: 5
#     Node 26, Type 0, BuildingBlock: XOMCOT_clean_sbu_0, # of connection points: 5
#     Node 27, Type 0, BuildingBlock: XOMCOT_clean_sbu_0, # of connection points: 5
#     Node 28, Type 0, BuildingBlock: XOMCOT_clean_sbu_0, # of connection points: 5
#     Node 29, Type 0, BuildingBlock: XOMCOT_clean_sbu_0, # of connection points: 5
#     Node 30, Type 0, BuildingBlock: XOMCOT_clean_sbu_0, # of connection points: 5
#     Node 31, Type 0, BuildingBlock: XOMCOT_clean_sbu_0, # of connection points: 5
#     Edge 32, Type (0, 0), BuildingBlock: AJUNOK_clean_linker_0, # of connection points: 2
#     Edge 33, Type (0, 0), BuildingBlock: AJUNOK_clean_linker_0, # of connection points: 2
#     Edge 34, Type (0, 0), BuildingBlock: AJUNOK_clean_linker_0, # of connection points: 2
#     Edge 35, Type (0, 0), BuildingBlock: AJUNOK_clean_linker_0, # of connection points: 2
#     Edge 36, Type (0, 0), BuildingBlock: AJUNOK_clean_linker_0, # of connection points: 2
#     Edge 37, Type (0, 0), BuildingBlock: AJUNOK_clean_linker_0, # of connection points: 2
#     Edge 38, Type (0, 0), BuildingBlock: AJUNOK_clean_linker_0, # of connection points: 2
#     Edge 39, Type (0, 0), BuildingBlock: AJUNOK_clean_linker_0, # of connection points: 2
#     Edge 40, Type (0, 0), BuildingBlock: AJUNOK_clean_linker_0, # of connection points: 2
#     Edge 41, Type (0, 0), BuildingBlock: AJUNOK_clean_linker_0, # of connection points: 2
#     Edge 42, Type (0, 0), BuildingBlock: AJUNOK_clean_linker_0, # of connection points: 2
#     Edge 43, Type (0, 0), BuildingBlock: AJUNOK_clean_linker_0, # of connection points: 2
#     Edge 44, Type (0, 0), BuildingBlock: AJUNOK_clean_linker_0, # of connection points: 2
#     Edge 45, Type (0, 0), BuildingBlock: AJUNOK_clean_linker_0, # of connection points: 2
#     Edge 46, Type (0, 0), BuildingBlock: AJUNOK_clean_linker_0, # of connection points: 2
#     Edge 47, Type (0, 0), BuildingBlock: AJUNOK_clean_linker_0, # of connection points: 2
#     Edge 48, Type (0, 0), BuildingBlock: AJUNOK_clean_linker_0, # of connection points: 2
#     Edge 49, Type (0, 0), BuildingBlock: AJUNOK_clean_linker_0, # of connection points: 2
#     Edge 50, Type (0, 0), BuildingBlock: AJUNOK_clean_linker_0, # of connection points: 2
#     Edge 51, Type (0, 0), BuildingBlock: AJUNOK_clean_linker_0, # of connection points: 2
#     Edge 52, Type (0, 0), BuildingBlock: AJUNOK_clean_linker_0, # of connection points: 2
#     Edge 53, Type (0, 0), BuildingBlock: AJUNOK_clean_linker_0, # of connection points: 2
#     Edge 54, Type (0, 0), BuildingBlock: AJUNOK_clean_linker_0, # of connection points: 2
#     Edge 55, Type (0, 0), BuildingBlock: AJUNOK_clean_linker_0, # of connection points: 2
#     Edge 56, Type (0, 0), BuildingBlock: AJUNOK_clean_linker_0, # of connection points: 2
#     Edge 57, Type (0, 0), BuildingBlock: AJUNOK_clean_linker_0, # of connection points: 2
#     Edge 58, Type (0, 0), BuildingBlock: AJUNOK_clean_linker_0, # of connection points: 2
#     Edge 59, Type (0, 0), BuildingBlock: AJUNOK_clean_linker_0, # of connection points: 2
#     Edge 60, Type (0, 0), BuildingBlock: AJUNOK_clean_linker_0, # of connection points: 2
#     Edge 61, Type (0, 0), BuildingBlock: AJUNOK_clean_linker_0, # of connection points: 2
#     Edge 62, Type (0, 0), BuildingBlock: AJUNOK_clean_linker_0, # of connection points: 2
#     Edge 63, Type (0, 0), BuildingBlock: AJUNOK_clean_linker_0, # of connection points: 2
#     Edge 64, Type (0, 0), BuildingBlock: AJUNOK_clean_linker_0, # of connection points: 2
#     Edge 65, Type (0, 0), BuildingBlock: AJUNOK_clean_linker_0, # of connection points: 2
#     Edge 66, Type (0, 0), BuildingBlock: AJUNOK_clean_linker_0, # of connection points: 2
#     Edge 67, Type (0, 0), BuildingBlock: AJUNOK_clean_linker_0, # of connection points: 2
#     Edge 68, Type (0, 0), BuildingBlock: AJUNOK_clean_linker_0, # of connection points: 2
#     Edge 69, Type (0, 0), BuildingBlock: AJUNOK_clean_linker_0, # of connection points: 2
#     Edge 70, Type (0, 0), BuildingBlock: AJUNOK_clean_linker_0, # of connection points: 2
#     Edge 71, Type (0, 0), BuildingBlock: AJUNOK_clean_linker_0, # of connection points: 2
#     Edge 72, Type (0, 0), BuildingBlock: AJUNOK_clean_linker_0, # of connection points: 2
#     Edge 73, Type (0, 0), BuildingBlock: AJUNOK_clean_linker_0, # of connection points: 2
#     Edge 74, Type (0, 0), BuildingBlock: AJUNOK_clean_linker_0, # of connection points: 2
#     Edge 75, Type (0, 0), BuildingBlock: AJUNOK_clean_linker_0, # of connection points: 2
#     Edge 76, Type (0, 0), BuildingBlock: AJUNOK_clean_linker_0, # of connection points: 2
#     Edge 77, Type (0, 0), BuildingBlock: AJUNOK_clean_linker_0, # of connection points: 2
#     Edge 78, Type (0, 0), BuildingBlock: AJUNOK_clean_linker_0, # of connection points: 2
#     Edge 79, Type (0, 0), BuildingBlock: AJUNOK_clean_linker_0, # of connection points: 2
#     Edge 80, Type (0, 0), BuildingBlock: AJUNOK_clean_linker_0, # of connection points: 2
#     Edge 81, Type (0, 0), BuildingBlock: AJUNOK_clean_linker_0, # of connection points: 2
#     Edge 82, Type (0, 0), BuildingBlock: AJUNOK_clean_linker_0, # of connection points: 2
#     Edge 83, Type (0, 0), BuildingBlock: AJUNOK_clean_linker_0, # of connection points: 2
#     Edge 84, Type (0, 0), BuildingBlock: AJUNOK_clean_linker_0, # of connection points: 2
#     Edge 85, Type (0, 0), BuildingBlock: AJUNOK_clean_linker_0, # of connection points: 2
#     Edge 86, Type (0, 0), BuildingBlock: AJUNOK_clean_linker_0, # of connection points: 2
#     Edge 87, Type (0, 0), BuildingBlock: AJUNOK_clean_linker_0, # of connection points: 2
#     Edge 88, Type (0, 0), BuildingBlock: AJUNOK_clean_linker_0, # of connection points: 2
#     Edge 89, Type (0, 0), BuildingBlock: AJUNOK_clean_linker_0, # of connection points: 2
#     Edge 90, Type (0, 0), BuildingBlock: AJUNOK_clean_linker_0, # of connection points: 2
#     Edge 91, Type (0, 0), BuildingBlock: AJUNOK_clean_linker_0, # of connection points: 2
#     Edge 92, Type (0, 0), BuildingBlock: AJUNOK_clean_linker_0, # of connection points: 2
#     Edge 93, Type (0, 0), BuildingBlock: AJUNOK_clean_linker_0, # of connection points: 2
#     Edge 94, Type (0, 0), BuildingBlock: AJUNOK_clean_linker_0, # of connection points: 2
#     Edge 95, Type (0, 0), BuildingBlock: AJUNOK_clean_linker_0, # of connection points: 2
#     Edge 96, Type (0, 0), BuildingBlock: AJUNOK_clean_linker_0, # of connection points: 2
#     Edge 97, Type (0, 0), BuildingBlock: AJUNOK_clean_linker_0, # of connection points: 2
#     Edge 98, Type (0, 0), BuildingBlock: AJUNOK_clean_linker_0, # of connection points: 2
#     Edge 99, Type (0, 0), BuildingBlock: AJUNOK_clean_linker_0, # of connection points: 2
#     Edge 100, Type (0, 0), BuildingBlock: AJUNOK_clean_linker_0, # of connection points: 2
#     Edge 101, Type (0, 0), BuildingBlock: AJUNOK_clean_linker_0, # of connection points: 2
#     Edge 102, Type (0, 0), BuildingBlock: AJUNOK_clean_linker_0, # of connection points: 2
#     Edge 103, Type (0, 0), BuildingBlock: AJUNOK_clean_linker_0, # of connection points: 2
#     Edge 104, Type (0, 0), BuildingBlock: AJUNOK_clean_linker_0, # of connection points: 2
#     Edge 105, Type (0, 0), BuildingBlock: AJUNOK_clean_linker_0, # of connection points: 2
#     Edge 106, Type (0, 0), BuildingBlock: AJUNOK_clean_linker_0, # of connection points: 2
#     Edge 107, Type (0, 0), BuildingBlock: AJUNOK_clean_linker_0, # of connection points: 2
#     Edge 108, Type (0, 0), BuildingBlock: AJUNOK_clean_linker_0, # of connection points: 2
#     Edge 109, Type (0, 0), BuildingBlock: AJUNOK_clean_linker_0, # of connection points: 2
#     Edge 110, Type (0, 0), BuildingBlock: AJUNOK_clean_linker_0, # of connection points: 2
#     Edge 111, Type (0, 0), BuildingBlock: AJUNOK_clean_linker_0, # of connection points: 2
# Relax obj value: 0.048
# Max RMSD: 0.092
# Mean RMSD: 0.092
data_MOF--net-wgl--node1-XOMCOT_clean_sbu_0--edge1-AJUNOK_clean_linker_0
_symmetry_space_group_name_H-M    P1
_symmetry_Int_Tables_number       1
_symmetry_cell_setting            triclinic
loop_
_symmetry_equiv_pos_as_xyz
'x, y, z'
_cell_length_a     44.266233
_cell_length_b     44.2444
_cell_length_c     38.498766
_cell_angle_alpha  89.865335
_cell_angle_beta   89.985101
_cell_angle_gamma 89.983218
loop_
_atom_site_label
_atom_site_type_symbol
_atom_site_fract_x
_atom_site_fract_y
_atom_site_fract_z
_atom_type_partial_charge
Co0 Co 0.28459 0.34264 0.16199 0.0
C1 C 0.32682 0.28938 0.16303 0.0
C2 C 0.28417 0.28061 0.1383 0.0
C3 C 0.30047 0.25427 0.13881 0.0
N4 N 0.30055 0.30262 0.1534 0.0
N5 N 0.32718 0.2598 0.15419 0.0
H6 H 0.34487 0.30085 0.17664 0.0
H7 H 0.26151 0.28342 0.12832 0.0
C8 C 0.27583 0.36089 0.08713 0.0
O9 O 0.29172 0.38559 0.09212 0.0
N10 N 0.266 0.38251 0.17016 0.0
C11 C 0.26788 0.39962 0.19911 0.0
C12 C 0.25037 0.42519 0.19509 0.0
C13 C 0.24566 0.39743 0.14987 0.0
N14 N 0.23656 0.42393 0.16395 0.0
C15 C 0.33637 0.38046 0.17202 0.0
C16 C 0.36852 0.36242 0.11402 0.0
C17 C 0.38111 0.38412 0.13616 0.0
C18 C 0.36472 0.3929 0.16555 0.0
C19 C 0.33972 0.35073 0.12129 0.0
N20 N 0.32355 0.3605 0.1495 0.0
H21 H 0.32525 0.38628 0.19586 0.0
H22 H 0.33046 0.33369 0.10427 0.0
H23 H 0.28048 0.39377 0.22221 0.0
H24 H 0.23702 0.38911 0.12552 0.0
O25 O 0.292 0.33683 0.21107 0.0
O26 O 0.25007 0.32353 0.18392 0.0
O27 O 0.27023 0.34299 0.1124 0.0
C28 C 0.26594 0.32334 0.21248 0.0
H29 H 0.29335 0.23263 0.1286 0.0
H30 H 0.24739 0.44295 0.21407 0.0
H31 H 0.38069 0.35474 0.09129 0.0
H32 H 0.37411 0.40884 0.18395 0.0
Co33 Co 0.9532 0.03598 0.40236 0.0
C34 C 1.01146 0.07115 0.40711 0.0
C35 C 0.99876 0.06155 0.35457 0.0
C36 C 0.02606 0.07598 0.35406 0.0
N37 N 0.9894 0.05806 0.38777 0.0
N38 N 0.0341 0.08184 0.38696 0.0
H39 H 1.01158 0.07218 0.43518 0.0
H40 H 0.98682 0.05434 0.33176 0.0
C41 C 0.92554 1.01958 0.33346 0.0
O42 O 0.8994 0.02886 0.34568 0.0
N43 N 0.91718 1.01281 0.41648 0.0
C44 C 0.89735 1.01939 0.44202 0.0
C45 C 0.87336 0.9996 0.44045 0.0
C46 C 0.9056 0.98756 0.40134 0.0
N47 N 0.87833 0.97975 0.4146 0.0
C48 C 0.91737 0.08774 0.4197 0.0
C49 C 0.9139 0.11315 0.35425 0.0
C50 C 0.90082 0.12849 0.38221 0.0
C51 C 0.90275 0.11538 0.41526 0.0
C52 C 0.92865 0.08559 0.35993 0.0
N53 N 0.92933 0.0724 0.39219 0.0
H54 H 0.92031 0.07964 0.44581 0.0
H55 H 0.93997 0.07555 0.33814 0.0
H56 H 0.89959 0.0374 0.4606 0.0
H57 H 0.91601 0.97605 0.37969 0.0
O58 O 0.96222 0.04463 0.45044 0.0
O59 O 0.97894 1.00454 0.42253 0.0
O60 O 0.94889 1.01998 0.35309 0.0
C61 C 0.97843 1.02025 0.45122 0.0
H62 H 0.03922 0.08164 0.33124 0.0
H63 H 0.8533 1.00028 0.45653 0.0
H64 H 0.91319 0.1225 0.32824 0.0
H65 H 0.89407 0.12698 0.43791 0.0
Co66 Co 0.26499 0.70391 0.65516 0.0
C67 C 0.2244 0.75788 0.65004 0.0
C68 C 0.26792 0.76411 0.62623 0.0
C69 C 0.25222 0.79071 0.62362 0.0
N70 N 0.25056 0.74356 0.64265 0.0
N71 N 0.22497 0.7867 0.6384 0.0
H72 H 0.2058 0.74777 0.66414 0.0
H73 H 0.29081 0.76015 0.61754 0.0
C74 C 0.27484 0.6781 0.58509 0.0
O75 O 0.26063 0.654 0.59666 0.0
N76 N 0.28254 0.6644 0.66739 0.0
C77 C 0.27804 0.64759 0.69627 0.0
C78 C 0.2964 0.62238 0.69512 0.0
C79 C 0.30537 0.64998 0.65059 0.0
N80 N 0.31334 0.6237 0.66604 0.0
C81 C 0.21129 0.6681 0.66477 0.0
C82 C 0.1829 0.68407 0.60336 0.0
C83 C 0.1686 0.6638 0.62592 0.0
C84 C 0.183 0.65602 0.65701 0.0
C85 C 0.21158 0.6953 0.61189 0.0
N86 N 0.22594 0.68652 0.64185 0.0
H87 H 0.2209 0.66319 0.68972 0.0
H88 H 0.22224 0.71116 0.59434 0.0
H89 H 0.26332 0.65353 0.71757 0.0
H90 H 0.31633 0.65848 0.62749 0.0
O91 O 0.2554 0.71204 0.70306 0.0
O92 O 0.29893 0.72353 0.67819 0.0
O93 O 0.28053 0.69989 0.60588 0.0
C94 C 0.28161 0.72493 0.70567 0.0
H95 H 0.26017 0.81151 0.6119 0.0
H96 H 0.29774 0.60488 0.71475 0.0
H97 H 0.17218 0.69091 0.57931 0.0
H98 H 0.17217 0.64105 0.67552 0.0
Co99 Co 0.58605 1.00856 0.90721 0.0
C100 C 0.53127 0.96875 0.90742 0.0
C101 C 0.52727 1.00795 0.87464 0.0
C102 C 0.50007 0.99322 0.87484 0.0
N103 N 0.54688 0.99267 0.89483 0.0
N104 N 0.50248 0.96882 0.89562 0.0
H105 H 0.54026 0.95259 0.92588 0.0
H106 H 0.53198 0.02928 0.86204 0.0
C107 C 0.61331 1.01814 0.83724 0.0
O108 O 0.6375 1.00467 0.84965 0.0
N109 N 0.62499 0.02742 0.91912 0.0
C110 C 0.64278 1.02274 0.94712 0.0
C111 C 0.66743 0.04183 0.94539 0.0
C112 C 0.63833 0.05096 0.90227 0.0
N113 N 0.66484 0.05934 0.91682 0.0
C114 C 0.62057 0.95472 0.92062 0.0
C115 C 0.60841 0.92578 0.8586 0.0
C116 C 0.62606 0.91091 0.88357 0.0
C117 C 0.63184 0.92569 0.91498 0.0
C118 C 0.59725 0.95483 0.86549 0.0
N119 N 0.60438 0.96953 0.89569 0.0
H120 H 0.62392 0.96465 0.94573 0.0
H121 H 0.58249 0.96533 0.84663 0.0
H122 H 0.63791 1.00747 0.96829 0.0
H123 H 0.62897 0.06193 0.8796 0.0
O124 O 0.57778 0.99991 0.9553 0.0
O125 O 0.56508 0.04252 0.9293 0.0
O126 O 0.5907 0.0231 0.85728 0.0
C127 C 0.56416 0.02574 0.95733 0.0
H128 H 0.47979 1.00023 0.86131 0.0
H129 H 0.68548 0.04318 0.96427 0.0
H130 H 0.60268 0.91479 0.83437 0.0
H131 H 0.64492 0.91479 0.93524 0.0
Co132 Co 0.31891 0.71199 0.36895 0.0
C133 C 0.34748 0.77362 0.37209 0.0
C134 C 0.36115 0.74437 0.41375 0.0
C135 C 0.37606 0.77142 0.41724 0.0
N136 N 0.34334 0.74556 0.38533 0.0
N137 N 0.36731 0.78973 0.39116 0.0
H138 H 0.3369 0.78217 0.3488 0.0
H139 H 0.36341 0.72495 0.43066 0.0
C140 C 0.29564 0.68218 0.43569 0.0
O141 O 0.29082 0.65669 0.4193 0.0
N142 N 0.2941 0.67839 0.35297 0.0
C143 C 0.30366 0.65327 0.33667 0.0
C144 C 0.28026 0.63273 0.33581 0.0
C145 C 0.26451 0.67339 0.36008 0.0
N146 N 0.25581 0.64499 0.35138 0.0
C147 C 0.37857 0.69494 0.35127 0.0
C148 C 0.3866 0.64773 0.39719 0.0
C149 C 0.41035 0.65578 0.37512 0.0
C150 C 0.40624 0.67992 0.35218 0.0
C151 C 0.35931 0.66347 0.39559 0.0
N152 N 0.35518 0.68665 0.3725 0.0
H153 H 0.37635 0.714 0.33395 0.0
H154 H 0.34231 0.65659 0.41329 0.0
H155 H 0.32656 0.64929 0.32805 0.0
H156 H 0.25065 0.68918 0.37441 0.0
O157 O 0.32447 0.72405 0.32129 0.0
O158 O 0.28724 0.74025 0.35448 0.0
O159 O 0.30668 0.70504 0.41954 0.0
C160 C 0.30084 0.74107 0.32434 0.0
H161 H 0.39189 0.77734 0.43754 0.0
H162 H 0.28195 0.60956 0.32704 0.0
H163 H 0.38894 0.62911 0.41532 0.0
H164 H 0.42433 0.68735 0.33525 0.0
Co165 Co 0.58424 0.06813 0.62266 0.0
C166 C 0.52099 0.09369 0.6254 0.0
C167 C 0.54665 0.10187 0.67164 0.0
C168 C 0.518 0.11257 0.67669 0.0
N169 N 0.54886 0.08994 0.63951 0.0
N170 N 0.50179 0.10735 0.64779 0.0
H171 H 0.51432 0.0856 0.6001 0.0
H172 H 0.56416 0.10176 0.69106 0.0
C173 C 0.61486 0.04745 0.68917 0.0
O174 O 0.64138 0.05262 0.675 0.0
N175 N 0.61962 0.04549 0.6069 0.0
C176 C 0.64362 0.05616 0.58912 0.0
C177 C 0.66642 0.03495 0.59014 0.0
C178 C 0.6278 1.01722 0.61702 0.0
N179 N 0.65661 1.01059 0.60797 0.0
C180 C 0.61183 0.12358 0.60093 0.0
C181 C 0.63537 0.14235 0.66355 0.0
C182 C 0.6399 0.1605 0.63414 0.0
C183 C 0.62728 0.15095 0.60273 0.0
C184 C 0.61896 0.11535 0.66082 0.0
N185 N 0.60832 0.10533 0.62942 0.0
H186 H 0.60311 0.1172 0.57595 0.0
H187 H 0.61469 0.1034 0.68451 0.0
H188 H 0.64543 0.07844 0.57792 0.0
H189 H 0.61415 1.00318 0.63392 0.0
O190 O 0.57253 0.07527 0.57497 0.0
O191 O 0.55815 0.03564 0.60529 0.0
O192 O 0.5907 0.05287 0.67196 0.0
C193 C 0.55722 0.05042 0.57592 0.0
H194 H 0.50951 0.1229 0.70023 0.0
H195 H 0.68915 0.03793 0.58032 0.0
H196 H 0.64473 0.14859 0.68849 0.0
H197 H 0.62953 0.16442 0.57935 0.0
Co198 Co 0.23185 0.33373 0.87209 0.0
C199 C 0.19027 0.27944 0.86999 0.0
C200 C 0.22729 0.27528 0.90555 0.0
C201 C 0.2125 0.24819 0.90459 0.0
N202 N 0.21301 0.29544 0.8848 0.0
N203 N 0.18938 0.25086 0.88232 0.0
H204 H 0.17615 0.28738 0.84904 0.0
H205 H 0.24835 0.2794 0.91893 0.0
C206 C 0.23094 0.33343 0.94881 0.0
O207 O 0.20252 0.3253 0.94568 0.0
N208 N 0.25284 0.3708 0.85998 0.0
C209 C 0.24504 0.39127 0.83566 0.0
C210 C 0.2651 0.41516 0.83714 0.0
C211 C 0.27747 0.38248 0.87591 0.0
N212 N 0.28552 0.40958 0.86245 0.0
C213 C 0.16999 0.35259 0.86441 0.0
C214 C 0.17159 0.39869 0.91266 0.0
C215 C 0.14471 0.39367 0.89421 0.0
C216 C 0.14422 0.37019 0.86983 0.0
C217 C 0.19711 0.38109 0.90573 0.0
N218 N 0.19581 0.35745 0.88293 0.0
H219 H 0.16948 0.33597 0.84409 0.0
H220 H 0.21802 0.38674 0.91859 0.0
H221 H 0.22566 0.38935 0.81871 0.0
H222 H 0.28921 0.37151 0.89712 0.0
O223 O 0.22303 0.32584 0.824 0.0
O224 O 0.26394 0.30968 0.85121 0.0
O225 O 0.247 0.33793 0.92158 0.0
C226 C 0.2474 0.30962 0.82308 0.0
H227 H 0.21904 0.22757 0.91782 0.0
H228 H 0.26402 0.43556 0.82163 0.0
H229 H 0.17319 0.41635 0.93197 0.0
H230 H 0.1244 0.36613 0.85401 0.0
Co231 Co 0.96244 0.98202 0.11695 0.0
C232 C 1.02126 0.94833 0.11205 0.0
C233 C 1.00467 0.95074 0.16427 0.0
C234 C 0.03163 0.93559 0.16471 0.0
N235 N 0.99776 0.95868 0.13128 0.0
N236 N 0.04197 0.93421 0.13201 0.0
H237 H 0.02361 0.95116 0.08429 0.0
H238 H 0.99156 0.95588 0.18699 0.0
C239 C 0.93222 0.99898 0.18376 0.0
O240 O 0.90659 0.99217 0.16841 0.0
N241 N 0.92766 1.00671 0.10337 0.0
C242 C 0.90347 0.99953 0.08377 0.0
C243 C 0.88262 1.02268 0.0858 0.0
C244 C 0.92155 0.03473 0.11575 0.0
N245 N 0.89371 0.04458 0.10653 0.0
C246 C 0.92762 0.92996 0.09684 0.0
C247 C 0.91904 0.90599 0.16239 0.0
C248 C 0.90791 0.89027 0.13377 0.0
C249 C 0.91248 0.90239 0.1006 0.0
C250 C 0.93436 0.93318 0.15747 0.0
N251 N 0.93761 0.94578 0.1251 0.0
H252 H 0.93161 0.93825 0.0709 0.0
H253 H 0.9439 0.94334 0.18018 0.0
H254 H 0.90028 0.97867 0.06989 0.0
H255 H 0.93667 0.0469 0.13278 0.0
O256 O 0.97194 0.97488 0.06862 0.0
O257 O 0.98912 1.01353 0.09875 0.0
O258 O 0.9571 0.99653 0.16684 0.0
C259 C 0.98856 0.99899 0.06926 0.0
H260 H 0.04331 0.92704 0.18741 0.0
H261 H 0.86022 1.02254 0.07453 0.0
H262 H 0.91641 0.89702 0.18843 0.0
H263 H 0.9042 0.8908 0.07774 0.0
Co264 Co 0.73195 0.71599 0.86467 0.0
C265 C 0.69055 0.77106 0.86769 0.0
C266 C 0.73463 0.77733 0.88972 0.0
C267 C 0.71968 0.80439 0.89102 0.0
N268 N 0.71646 0.75613 0.87561 0.0
N269 N 0.69214 0.80043 0.87721 0.0
H270 H 0.6714 0.7614 0.85446 0.0
H271 H 0.75769 0.77341 0.89786 0.0
C272 C 0.73653 0.72095 0.94158 0.0
O273 O 0.71009 0.73443 0.94095 0.0
N274 N 0.74993 0.67692 0.85456 0.0
C275 C 0.7371 0.65251 0.83997 0.0
C276 C 0.75658 0.62828 0.84359 0.0
C277 C 0.77711 0.66731 0.86635 0.0
N278 N 0.78179 0.63742 0.8605 0.0
C279 C 0.6693 0.69933 0.85864 0.0
C280 C 0.66826 0.65865 0.91312 0.0
C281 C 0.6424 0.66158 0.89238 0.0
C282 C 0.64304 0.68263 0.86511 0.0
C283 C 0.69426 0.67503 0.90504 0.0
N284 N 0.69448 0.69587 0.87878 0.0
H285 H 0.66975 0.71386 0.83614 0.0
H286 H 0.71453 0.66966 0.91898 0.0
H287 H 0.71459 0.65196 0.82905 0.0
H288 H 0.79275 0.68214 0.87942 0.0
O289 O 0.72206 0.7224 0.81646 0.0
O290 O 0.76511 0.73616 0.84067 0.0
O291 O 0.74916 0.71258 0.91329 0.0
C292 C 0.74771 0.73626 0.81327 0.0
H293 H 0.72845 0.82558 0.90078 0.0
H294 H 0.75175 0.60531 0.83578 0.0
H295 H 0.66893 0.64293 0.93469 0.0
H296 H 0.62395 0.68511 0.84774 0.0
Co297 Co 0.08485 0.97622 0.61631 0.0
C298 C 0.02488 0.94437 0.61274 0.0
C299 C 0.0442 0.94264 0.66369 0.0
C300 C 1.0172 0.92746 0.66441 0.0
N301 N 0.04941 0.9532 0.63127 0.0
N302 N 1.00515 0.92867 0.63248 0.0
H303 H 1.0212 0.94912 0.58554 0.0
H304 H 0.0586 0.94584 0.68582 0.0
C305 C 0.11517 0.99431 0.6834 0.0
O306 O 0.14118 0.9872 0.66908 0.0
N307 N 0.12006 0.99993 0.60154 0.0
C308 C 0.14184 0.99165 0.57897 0.0
C309 C 0.16507 1.01231 0.58037 0.0
C310 C 0.12978 0.02669 0.61472 0.0
N311 N 0.15782 0.03399 0.60345 0.0
C312 C 0.11773 0.92309 0.59559 0.0
C313 C 0.13189 0.90171 0.66099 0.0
C314 C 0.14158 0.88553 0.63205 0.0
C315 C 0.13397 0.89613 0.599 0.0
C316 C 0.11526 0.92818 0.65647 0.0
N317 N 0.10949 0.9397 0.62403 0.0
H318 H 0.11175 0.93036 0.56978 0.0
H319 H 0.107 0.93869 0.6796 0.0
H320 H 0.14171 0.97148 0.56335 0.0
H321 H 0.11782 0.03917 0.63458 0.0
O322 O 0.07443 0.96926 0.56812 0.0
O323 O 0.05841 1.00816 0.59865 0.0
O324 O 0.09057 0.99102 0.66612 0.0
C325 C 0.05825 0.99367 0.56914 0.0
H326 H 1.00672 0.91708 0.68688 0.0
H327 H 0.18637 1.01071 0.56665 0.0
H328 H 0.13688 0.89376 0.68701 0.0
H329 H 0.14095 0.88398 0.57595 0.0
Co330 Co 0.81554 0.33253 0.36823 0.0
C331 C 0.8444 0.27097 0.36723 0.0
C332 C 0.8403 0.28896 0.41866 0.0
C333 C 0.85139 0.26016 0.42117 0.0
N334 N 0.83548 0.29592 0.38492 0.0
N335 N 0.85391 0.24893 0.38895 0.0
H336 H 0.84304 0.26834 0.33936 0.0
H337 H 0.83565 0.30337 0.44048 0.0
C338 C 0.79749 0.36463 0.43378 0.0
O339 O 0.80696 0.38986 0.41933 0.0
N340 N 0.79433 0.36885 0.35236 0.0
C341 C 0.8045 0.39176 0.33234 0.0
C342 C 0.78391 0.41512 0.33344 0.0
C343 C 0.76687 0.3782 0.36375 0.0
N344 N 0.76042 0.40678 0.35361 0.0
C345 C 0.87049 0.3625 0.34903 0.0
C346 C 0.89205 0.37417 0.41493 0.0
C347 C 0.90902 0.38342 0.38623 0.0
C348 C 0.89823 0.37703 0.35298 0.0
C349 C 0.86465 0.35909 0.40981 0.0
N350 N 0.85316 0.3548 0.37712 0.0
H351 H 0.86309 0.35754 0.32301 0.0
H352 H 0.85324 0.3508 0.43251 0.0
H353 H 0.82583 0.39242 0.31893 0.0
H354 H 0.75327 0.36542 0.38195 0.0
O355 O 0.82359 0.32132 0.32064 0.0
O356 O 0.78266 0.30804 0.34954 0.0
O357 O 0.79936 0.33974 0.41698 0.0
C358 C 0.79814 0.30686 0.32071 0.0
H359 H 0.8568 0.24811 0.44488 0.0
H360 H 0.78673 0.43719 0.32166 0.0
H361 H 0.90008 0.37824 0.44108 0.0
H362 H 0.91089 0.38371 0.33013 0.0
Co363 Co 0.45883 0.06686 0.12432 0.0
C364 C 0.51917 0.09759 0.12408 0.0
C365 C 0.50493 0.08511 0.17539 0.0
C366 C 0.53365 0.0964 0.17744 0.0
N367 N 0.49571 0.08543 0.1419 0.0
N368 N 0.54252 0.10413 0.14529 0.0
H369 H 0.51989 0.10046 0.09619 0.0
H370 H 0.49221 0.07677 0.19724 0.0
C371 C 0.42715 0.04888 0.19061 0.0
O372 O 0.40203 0.06005 0.17761 0.0
N373 N 0.42217 0.04681 0.10751 0.0
C374 C 0.40222 0.05616 0.08326 0.0
C375 C 0.37807 0.03647 0.08264 0.0
C376 C 0.41047 1.02047 0.1197 0.0
N377 N 0.38302 1.01432 0.10606 0.0
C378 C 0.42747 0.12205 0.10823 0.0
C379 C 0.42071 0.14292 0.17533 0.0
C380 C 0.40901 0.16008 0.14792 0.0
C381 C 0.41304 0.14967 0.11398 0.0
C382 C 0.4356 0.1157 0.16832 0.0
N383 N 0.43718 0.10443 0.13523 0.0
H384 H 0.43132 0.11528 0.08176 0.0
H385 H 0.44596 0.10404 0.18979 0.0
H386 H 0.40449 0.07593 0.06711 0.0
H387 H 0.42101 1.00687 0.1397 0.0
O388 O 0.47041 0.07668 0.07705 0.0
O389 O 0.48306 0.03453 0.10403 0.0
O390 O 0.45134 0.04913 0.17235 0.0
C391 C 0.48499 0.05127 0.07613 0.0
H392 H 0.54731 0.09829 0.20067 0.0
H393 H 0.35812 0.03862 0.06656 0.0
H394 H 0.41869 0.15068 0.20189 0.0
H395 H 0.40472 0.16259 0.09204 0.0
Co396 Co 0.76139 0.34601 0.65265 0.0
C397 C 0.72113 0.29091 0.64765 0.0
C398 C 0.76522 0.28595 0.625 0.0
C399 C 0.75015 0.25922 0.62143 0.0
N400 N 0.74718 0.30593 0.64115 0.0
N401 N 0.72235 0.26218 0.63537 0.0
H402 H 0.70176 0.30093 0.66032 0.0
H403 H 0.78813 0.29051 0.61676 0.0
C404 C 0.76871 0.37117 0.58128 0.0
O405 O 0.75478 0.39555 0.59241 0.0
N406 N 0.77903 0.38586 0.66325 0.0
C407 C 0.77542 0.40346 0.6916 0.0
C408 C 0.79381 0.42865 0.68868 0.0
C409 C 0.80113 0.4 0.64481 0.0
N410 N 0.80965 0.42665 0.65887 0.0
C411 C 0.70744 0.37995 0.66536 0.0
C412 C 0.67696 0.36363 0.60552 0.0
C413 C 0.66222 0.3812 0.63042 0.0
C414 C 0.67777 0.38951 0.66047 0.0
C415 C 0.70677 0.35434 0.61153 0.0
N416 N 0.72192 0.363 0.64094 0.0
H417 H 0.71807 0.38483 0.68976 0.0
H418 H 0.7173 0.33932 0.59303 0.0
H419 H 0.76128 0.39816 0.71365 0.0
H420 H 0.81185 0.39052 0.62212 0.0
O421 O 0.75321 0.3381 0.70106 0.0
O422 O 0.79602 0.32652 0.67484 0.0
O423 O 0.77521 0.34983 0.60258 0.0
C424 C 0.77926 0.32485 0.70279 0.0
H425 H 0.75919 0.23891 0.60973 0.0
H426 H 0.79541 0.447 0.70713 0.0
H427 H 0.66519 0.35612 0.58244 0.0
H428 H 0.66662 0.40237 0.68069 0.0
Co429 Co 0.45575 1.00659 0.40744 0.0
C430 C 0.50645 0.96165 0.40501 0.0
C431 C 0.51304 1.00006 0.37151 0.0
C432 C 0.53782 0.98161 0.36873 0.0
N433 N 0.49322 0.98747 0.39384 0.0
N434 N 0.53364 0.95764 0.38969 0.0
H435 H 0.49667 0.94646 0.424 0.0
H436 H 0.50998 1.02162 0.35873 0.0
C437 C 0.42789 1.01806 0.33807 0.0
O438 O 0.40276 1.0068 0.3509 0.0
N439 N 0.41882 0.02843 0.42077 0.0
C440 C 0.40234 0.02601 0.45019 0.0
C441 C 0.37922 0.04694 0.44943 0.0
C442 C 0.40651 0.05248 0.40397 0.0
N443 N 0.38181 0.06358 0.4202 0.0
C444 C 0.41524 0.95689 0.42056 0.0
C445 C 0.4282 0.92517 0.36058 0.0
C446 C 0.40851 0.91255 0.38503 0.0
C447 C 0.4018 0.9288 0.41511 0.0
C448 C 0.44065 0.95372 0.36667 0.0
N449 N 0.43391 0.96947 0.39629 0.0
H450 H 0.41184 0.96755 0.44522 0.0
H451 H 0.45654 0.96274 0.34803 0.0
H452 H 0.40703 1.01079 0.47148 0.0
H453 H 0.41575 0.06242 0.38063 0.0
O454 O 0.46444 0.9973 0.45531 0.0
O455 O 0.47965 0.0388 0.42853 0.0
O456 O 0.45112 1.02136 0.35761 0.0
C457 C 0.47977 1.02221 0.45673 0.0
H458 H 0.55775 0.98571 0.3531 0.0
H459 H 0.36165 0.04927 0.46877 0.0
H460 H 0.43446 0.91276 0.33745 0.0
H461 H 0.38757 0.9191 0.43514 0.0
Co462 Co 0.78921 0.70422 0.15275 0.0
C463 C 0.8304 0.75836 0.1514 0.0
C464 C 0.78623 0.76616 0.1299 0.0
C465 C 0.80187 0.79282 0.12893 0.0
N466 N 0.80395 0.74457 0.14389 0.0
N467 N 0.82949 0.78787 0.14227 0.0
H468 H 0.84948 0.74733 0.16362 0.0
H469 H 0.76315 0.76278 0.12156 0.0
C470 C 0.77773 0.68594 0.07911 0.0
O471 O 0.79241 0.66062 0.08499 0.0
N472 N 0.77136 0.66414 0.16093 0.0
C473 C 0.77526 0.64526 0.18818 0.0
C474 C 0.7563 0.62068 0.18459 0.0
C475 C 0.74855 0.65137 0.14248 0.0
N476 N 0.73967 0.62438 0.15554 0.0
C477 C 0.84222 0.66739 0.15946 0.0
C478 C 0.87136 0.68662 0.0998 0.0
C479 C 0.88539 0.6652 0.1212 0.0
C480 C 0.87057 0.6557 0.15134 0.0
C481 C 0.84253 0.69742 0.10864 0.0
N482 N 0.8279 0.68716 0.13777 0.0
H483 H 0.83241 0.66128 0.18395 0.0
H484 H 0.83217 0.71439 0.09227 0.0
H485 H 0.78987 0.64937 0.21014 0.0
H486 H 0.73731 0.66233 0.12103 0.0
O487 O 0.79876 0.70893 0.20133 0.0
O488 O 0.75546 0.72245 0.17722 0.0
O489 O 0.77315 0.70457 0.10384 0.0
C490 C 0.77269 0.72204 0.20476 0.0
H491 H 0.79368 0.81428 0.11917 0.0
H492 H 0.75465 0.60173 0.2023 0.0
H493 H 0.88254 0.69492 0.07666 0.0
H494 H 0.88125 0.63989 0.16903 0.0
Co495 Co 0.08982 0.04035 0.89902 0.0
C496 C 0.03406 0.07888 0.90112 0.0
C497 C 0.04103 0.05841 0.85131 0.0
C498 C 1.01596 0.07633 0.84929 0.0
N499 N 0.0527 0.05991 0.88368 0.0
N500 N 1.01155 0.08908 0.88048 0.0
H501 H 0.03717 0.08568 0.92786 0.0
H502 H 0.05033 0.04609 0.82984 0.0
C503 C 0.11901 0.02339 0.83134 0.0
O504 O 0.14435 0.03465 0.84356 0.0
N505 N 0.12688 1.01943 0.91362 0.0
C506 C 0.14878 0.02871 0.93558 0.0
C507 C 0.17277 1.00887 0.93387 0.0
C508 C 0.13745 0.99295 0.90052 0.0
N509 N 0.16567 0.98652 0.91169 0.0
C510 C 0.1218 0.09491 0.91404 0.0
C511 C 0.12109 0.11932 0.84792 0.0
C512 C 0.13251 0.13659 0.87531 0.0
C513 C 0.13288 0.12398 0.90862 0.0
C514 C 0.10991 0.09023 0.85456 0.0
N515 N 0.11127 0.07775 0.88719 0.0
H516 H 0.12008 0.08714 0.94044 0.0
H517 H 0.09891 0.07856 0.83355 0.0
H518 H 0.14825 0.04875 0.9513 0.0
H519 H 0.12566 0.97968 0.88125 0.0
O520 O 0.08044 0.05018 0.94664 0.0
O521 O 0.06573 1.00834 0.92076 0.0
O522 O 0.09536 0.02313 0.85052 0.0
C523 C 0.06541 0.02516 0.94862 0.0
H524 H 1.002 0.07994 0.82655 0.0
H525 H 0.19438 1.0114 0.94671 0.0
H526 H 0.11953 0.1287 0.82197 0.0
H527 H 0.14098 0.13685 0.93065 0.0
Co528 Co 0.78846 0.84107 0.64709 0.0
C529 C 0.82917 0.78672 0.64461 0.0
C530 C 0.79246 0.78513 0.60815 0.0
C531 C 0.80824 0.75859 0.6059 0.0
N532 N 0.80557 0.80291 0.63214 0.0
N533 N 0.83123 0.75942 0.62883 0.0
H534 H 0.84358 0.79419 0.6656 0.0
H535 H 0.77207 0.79057 0.59404 0.0
C536 C 0.77846 0.87043 0.57837 0.0
O537 O 0.79184 0.8945 0.59108 0.0
N538 N 0.76847 0.87881 0.6615 0.0
C539 C 0.772 0.89477 0.69111 0.0
C540 C 0.75271 0.91931 0.69067 0.0
C541 C 0.74519 0.89285 0.64499 0.0
N542 N 0.73584 0.91806 0.6616 0.0
C543 C 0.84003 0.87928 0.66039 0.0
C544 C 0.87074 0.86605 0.59973 0.0
C545 C 0.88397 0.88548 0.6239 0.0
C546 C 0.86832 0.89218 0.65444 0.0
C547 C 0.84203 0.85413 0.60636 0.0
N548 N 0.82666 0.86122 0.63617 0.0
H549 H 0.82972 0.88278 0.68525 0.0
H550 H 0.83236 0.83872 0.58768 0.0
H551 H 0.78687 0.88881 0.71227 0.0
H552 H 0.73512 0.88501 0.62112 0.0
O553 O 0.79735 0.83068 0.69459 0.0
O554 O 0.75516 0.81832 0.66728 0.0
O555 O 0.7736 0.84753 0.59797 0.0
C556 C 0.7718 0.81631 0.69526 0.0
H557 H 0.80288 0.7398 0.58903 0.0
H558 H 0.75092 0.93658 0.71045 0.0
H559 H 0.88266 0.85978 0.57625 0.0
H560 H 0.87852 0.90617 0.67429 0.0
Co561 Co 0.45663 0.54174 0.90315 0.0
C562 C 0.51251 0.58036 0.90282 0.0
C563 C 0.51558 0.54046 0.87128 0.0
C564 C 0.54283 0.55498 0.87018 0.0
N565 N 0.49646 0.55635 0.89135 0.0
N566 N 0.54112 0.5798 0.89031 0.0
H567 H 0.50388 0.59715 0.92066 0.0
H568 H 0.51037 0.51905 0.85924 0.0
C569 C 0.43072 0.53382 0.83205 0.0
O570 O 0.40647 0.54792 0.84325 0.0
N571 N 0.41693 0.52417 0.9143 0.0
C572 C 0.39934 0.52832 0.94258 0.0
C573 C 0.37444 0.50957 0.9405 0.0
C574 C 0.40314 0.50139 0.89681 0.0
N575 N 0.37663 0.49287 0.91138 0.0
C576 C 0.42358 0.59593 0.9168 0.0
C577 C 0.43838 0.62636 0.85628 0.0
C578 C 0.42147 0.64126 0.88177 0.0
C579 C 0.41397 0.6256 0.91217 0.0
C580 C 0.44779 0.59649 0.86211 0.0
N581 N 0.43969 0.58132 0.89179 0.0
H582 H 0.41935 0.5854 0.94145 0.0
H583 H 0.46232 0.58587 0.84315 0.0
H584 H 0.40455 0.54288 0.96422 0.0
H585 H 0.4129 0.49019 0.87459 0.0
O586 O 0.46474 0.54946 0.95155 0.0
O587 O 0.476 0.50682 0.92482 0.0
O588 O 0.45235 0.5279 0.85312 0.0
C589 C 0.47736 0.52307 0.95313 0.0
H590 H 0.56256 0.54766 0.85587 0.0
H591 H 0.3562 0.50825 0.95918 0.0
H592 H 0.44523 0.63803 0.83281 0.0
H593 H 0.40136 0.63653 0.93275 0.0
Co594 Co 0.75327 0.20636 0.15187 0.0
C595 C 0.71316 0.26077 0.15924 0.0
C596 C 0.72861 0.2546 0.10694 0.0
C597 C 0.71192 0.28059 0.10814 0.0
N598 N 0.7297 0.24198 0.13891 0.0
N599 N 0.70234 0.28445 0.14089 0.0
H600 H 0.70989 0.25793 0.1869 0.0
H601 H 0.73909 0.24587 0.08392 0.0
C602 C 0.7669 0.17957 0.08224 0.0
O603 O 0.75753 0.15359 0.09493 0.0
N604 N 0.77822 0.17122 0.16461 0.0
C605 C 0.7763 0.15354 0.1932 0.0
C606 C 0.79821 0.13138 0.19165 0.0
C607 C 0.80272 0.16042 0.14737 0.0
N608 N 0.81465 0.13561 0.1626 0.0
C609 C 0.70527 0.16557 0.16906 0.0
C610 C 0.67468 0.16937 0.10661 0.0
C611 C 0.66187 0.15277 0.13385 0.0
C612 C 0.67766 0.15082 0.16529 0.0
C613 C 0.70224 0.1841 0.11162 0.0
N614 N 0.71774 0.18151 0.1423 0.0
H615 H 0.71557 0.16554 0.19429 0.0
H616 H 0.71066 0.19805 0.0908 0.0
H617 H 0.76054 0.1565 0.21428 0.0
H618 H 0.81204 0.17045 0.12412 0.0
O619 O 0.74511 0.21419 0.20017 0.0
O620 O 0.78409 0.23285 0.1715 0.0
O621 O 0.76793 0.20285 0.10196 0.0
C622 C 0.76882 0.23135 0.20053 0.0
H623 H 0.70759 0.29593 0.08675 0.0
H624 H 0.80124 0.11308 0.21004 0.0
H625 H 0.66329 0.17147 0.08183 0.0
H626 H 0.66812 0.13909 0.18746 0.0
Co627 Co 0.09059 0.50804 0.39417 0.0
C628 C 0.03842 0.4653 0.39393 0.0
C629 C 0.03152 0.50481 0.36222 0.0
C630 C 1.00534 0.48823 0.36227 0.0
N631 N 0.0522 0.4905 0.38197 0.0
N632 N 1.00978 0.46353 0.38206 0.0
H633 H 0.04865 0.44931 0.41171 0.0
H634 H 0.03493 0.52645 0.34971 0.0
C635 C 0.1179 0.51689 0.32461 0.0
O636 O 0.14203 0.50382 0.33767 0.0
N637 N 0.12857 0.52853 0.40596 0.0
C638 C 0.14526 0.5267 0.43531 0.0
C639 C 0.16829 0.54779 0.43383 0.0
C640 C 0.1409 0.55207 0.38825 0.0
N641 N 0.16551 0.56352 0.40402 0.0
C642 C 0.12761 0.45639 0.40878 0.0
C643 C 0.11324 0.42396 0.34963 0.0
C644 C 0.13066 0.41025 0.37553 0.0
C645 C 0.13812 0.42689 0.40514 0.0
C646 C 0.1029 0.45359 0.35444 0.0
N647 N 0.11039 0.46964 0.38364 0.0
H648 H 0.13182 0.46776 0.43289 0.0
H649 H 0.08787 0.46321 0.33525 0.0
H650 H 0.14059 0.51203 0.45712 0.0
H651 H 0.13156 0.56174 0.36482 0.0
O652 O 0.08252 0.49979 0.44222 0.0
O653 O 0.06841 0.5416 0.41532 0.0
O654 O 0.09498 0.52183 0.34416 0.0
C655 C 0.06819 0.52525 0.44371 0.0
H656 H 0.98444 0.49401 0.34925 0.0
H657 H 0.18571 0.55125 0.45314 0.0
H658 H 0.10644 0.41141 0.32681 0.0
H659 H 0.151 0.41668 0.42603 0.0
Co660 Co 0.81138 0.21299 0.86677 0.0
C661 C 0.84588 0.27162 0.86306 0.0
C662 C 0.84219 0.25483 0.91509 0.0
C663 C 0.8568 0.28212 0.91611 0.0
N664 N 0.83519 0.2479 0.88186 0.0
N665 N 0.859 0.29256 0.8835 0.0
H666 H 0.84376 0.27413 0.83525 0.0
H667 H 0.83662 0.24158 0.93759 0.0
C668 C 0.79256 0.18375 0.93362 0.0
O669 O 0.80023 0.15784 0.91948 0.0
N670 N 0.78632 0.17848 0.8522 0.0
C671 C 0.79356 0.15586 0.83024 0.0
C672 C 0.77212 0.13337 0.83274 0.0
C673 C 0.75929 0.16998 0.86598 0.0
N674 N 0.75079 0.14204 0.8556 0.0
C675 C 0.86241 0.17645 0.84831 0.0
C676 C 0.88642 0.16866 0.91391 0.0
C677 C 0.90207 0.15705 0.88541 0.0
C678 C 0.88963 0.16099 0.8523 0.0
C679 C 0.85912 0.18397 0.90877 0.0
N680 N 0.84671 0.18715 0.87628 0.0
H681 H 0.85477 0.18074 0.82223 0.0
H682 H 0.8489 0.19388 0.93127 0.0
H683 H 0.81351 0.15471 0.81435 0.0
H684 H 0.74745 0.18269 0.88572 0.0
O685 O 0.82051 0.22225 0.81891 0.0
O686 O 0.78132 0.24075 0.84689 0.0
O687 O 0.79526 0.20829 0.91605 0.0
C688 C 0.79719 0.23988 0.81826 0.0
H689 H 0.86435 0.29395 0.93911 0.0
H690 H 0.77306 0.11149 0.82026 0.0
H691 H 0.89574 0.16702 0.93986 0.0
H692 H 0.9012 0.15274 0.8294 0.0
Co693 Co 0.08279 0.56789 0.11326 0.0
C694 C 0.02734 0.60662 0.11212 0.0
C695 C 0.02884 0.5764 0.15586 0.0
C696 C 1.00147 0.59089 0.15596 0.0
N697 N 0.04522 0.58622 0.12853 0.0
N698 N 1.00053 0.60976 0.12855 0.0
H699 H 0.03296 0.61746 0.08774 0.0
H700 H 0.03535 0.55847 0.17339 0.0
C701 C 0.1144 0.55216 0.17899 0.0
O702 O 0.13877 0.56388 0.16486 0.0
N703 N 0.12005 0.54724 0.09871 0.0
C704 C 0.14342 0.55723 0.07926 0.0
C705 C 0.16699 0.53691 0.0818 0.0
C706 C 0.12945 0.51998 0.11105 0.0
N707 N 0.15832 0.51368 0.10217 0.0
C708 C 0.11518 0.62259 0.09767 0.0
C709 C 0.11793 0.64454 0.16471 0.0
C710 C 0.13272 0.66034 0.13816 0.0
C711 C 0.13032 0.64966 0.10411 0.0
C712 C 0.10256 0.61777 0.15694 0.0
N713 N 0.10354 0.60571 0.12422 0.0
H714 H 0.11265 0.61543 0.0711 0.0
H715 H 0.09002 0.60675 0.1774 0.0
H716 H 0.1443 0.57815 0.06504 0.0
H717 H 0.11636 0.50626 0.12885 0.0
O718 O 0.07276 0.57711 0.06586 0.0
O719 O 0.05921 0.53516 0.0929 0.0
O720 O 0.08954 0.55174 0.16198 0.0
C721 C 0.05794 0.5519 0.06491 0.0
H722 H 0.98292 0.58673 0.17369 0.0
H723 H 0.18934 0.53969 0.07082 0.0
H724 H 0.11815 0.65287 0.19114 0.0
H725 H 0.14058 0.66184 0.0827 0.0
Co726 Co 0.73004 0.82894 0.36842 0.0
C727 C 0.68902 0.7751 0.36948 0.0
C728 C 0.71628 0.77862 0.41546 0.0
C729 C 0.69883 0.75313 0.41818 0.0
N730 N 0.70994 0.79273 0.38522 0.0
N731 N 0.68182 0.75093 0.38938 0.0
H732 H 0.6796 0.77953 0.34404 0.0
H733 H 0.73315 0.78561 0.43399 0.0
C734 C 0.7451 0.86294 0.4326 0.0
O735 O 0.73467 0.88715 0.41678 0.0
N736 N 0.75241 0.86481 0.35254 0.0
C737 C 0.74369 0.88816 0.33223 0.0
C738 C 0.76512 0.91075 0.33411 0.0
C739 C 0.77994 0.8732 0.36487 0.0
N740 N 0.78779 0.90148 0.35491 0.0
C741 C 0.67678 0.86242 0.34936 0.0
C742 C 0.65174 0.86581 0.41497 0.0
C743 C 0.63659 0.87965 0.38722 0.0
C744 C 0.64923 0.87727 0.35395 0.0
C745 C 0.67936 0.85124 0.40918 0.0
N746 N 0.69261 0.85133 0.37701 0.0
H747 H 0.68494 0.85924 0.32325 0.0
H748 H 0.68972 0.83939 0.43062 0.0
H749 H 0.72293 0.88979 0.31789 0.0
H750 H 0.7927 0.85995 0.38344 0.0
O751 O 0.72187 0.81708 0.32129 0.0
O752 O 0.76255 0.80352 0.35069 0.0
O753 O 0.74506 0.83736 0.41711 0.0
C754 C 0.74666 0.8015 0.32219 0.0
H755 H 0.69934 0.73677 0.43914 0.0
H756 H 0.76347 0.93293 0.32231 0.0
H757 H 0.64205 0.86565 0.44081 0.0
H758 H 0.63794 0.88681 0.33151 0.0
Co759 Co 0.46452 0.47559 0.62126 0.0
C760 C 0.52143 0.43851 0.62037 0.0
C761 C 0.50662 0.44867 0.67205 0.0
C762 C 0.53248 0.4318 0.67422 0.0
N763 N 0.49935 0.45292 0.63832 0.0
N764 N 0.54172 0.42533 0.64182 0.0
H765 H 0.52289 0.43759 0.59235 0.0
H766 H 0.49429 0.45721 0.69403 0.0
C767 C 0.43424 0.49709 0.68664 0.0
O768 O 0.40845 0.48832 0.67304 0.0
N769 N 0.42988 0.49938 0.60485 0.0
C770 C 0.40673 0.49057 0.58444 0.0
C771 C 0.38414 0.51198 0.58596 0.0
C772 C 0.42156 0.52707 0.61668 0.0
N773 N 0.39329 0.5347 0.60667 0.0
C774 C 0.42932 0.42296 0.60486 0.0
C775 C 0.41918 0.40312 0.67188 0.0
C776 C 0.4073 0.38648 0.64427 0.0
C777 C 0.413 0.39637 0.61039 0.0
C778 C 0.4357 0.42942 0.66517 0.0
N779 N 0.43932 0.44017 0.632 0.0
H780 H 0.43425 0.42929 0.57843 0.0
H781 H 0.44583 0.44052 0.68703 0.0
H782 H 0.40523 0.46953 0.57061 0.0
H783 H 0.43464 0.54003 0.63513 0.0
O784 O 0.47481 0.46519 0.57396 0.0
O785 O 0.49176 0.50564 0.60094 0.0
O786 O 0.45882 0.49364 0.66945 0.0
C787 C 0.49174 0.48906 0.5729 0.0
H788 H 0.5442 0.42558 0.69786 0.0
H789 H 0.36189 0.51009 0.57452 0.0
H790 H 0.41621 0.39556 0.69845 0.0
H791 H 0.40473 0.38375 0.58826 0.0
Co792 Co 0.22812 0.21384 0.37655 0.0
C793 C 0.18757 0.26822 0.37243 0.0
C794 C 0.20004 0.25727 0.42479 0.0
C795 C 0.18293 0.28302 0.42531 0.0
N796 N 0.203 0.24765 0.39167 0.0
N797 N 0.17528 0.29008 0.39249 0.0
H798 H 0.18571 0.26768 0.34445 0.0
H799 H 0.21016 0.24705 0.44744 0.0
C800 C 0.24665 0.18762 0.44567 0.0
O801 O 0.23787 0.16064 0.43562 0.0
N802 N 0.25468 0.18045 0.36249 0.0
C803 C 0.25111 0.15987 0.33699 0.0
C804 C 0.27386 0.13864 0.33932 0.0
C805 C 0.28079 0.17224 0.37837 0.0
N806 N 0.29227 0.14607 0.36586 0.0
C807 C 0.18135 0.1719 0.35863 0.0
C808 C 0.15526 0.16631 0.42351 0.0
C809 C 0.1435 0.14946 0.39595 0.0
C810 C 0.15651 0.15292 0.36306 0.0
C811 C 0.18038 0.18499 0.41794 0.0
N812 N 0.19423 0.18647 0.3861 0.0
H813 H 0.18938 0.1757 0.33264 0.0
H814 H 0.18839 0.19827 0.43944 0.0
H815 H 0.23343 0.15985 0.31779 0.0
H816 H 0.29121 0.18518 0.39888 0.0
O817 O 0.21893 0.2229 0.32864 0.0
O818 O 0.25716 0.2426 0.35763 0.0
O819 O 0.24448 0.21033 0.42525 0.0
C820 C 0.24158 0.24153 0.32888 0.0
H821 H 0.17772 0.29642 0.44805 0.0
H822 H 0.27603 0.11865 0.32335 0.0
H823 H 0.14516 0.16508 0.44911 0.0
H824 H 0.14699 0.14171 0.3406 0.0
Co825 Co 0.57908 0.48155 0.12303 0.0
C826 C 0.52312 0.44313 0.12464 0.0
C827 C 0.52737 0.47233 0.16885 0.0
C828 C 0.49977 0.45849 0.17038 0.0
N829 N 0.54227 0.46277 0.14034 0.0
N830 N 0.49698 0.4403 0.14264 0.0
H831 H 0.52721 0.43288 0.09958 0.0
H832 H 0.5349 0.48982 0.18628 0.0
C833 C 0.61243 0.49517 0.1883 0.0
O834 O 0.63594 0.48302 0.17283 0.0
N835 N 0.61522 0.50306 0.1062 0.0
C836 C 0.63218 0.4986 0.07748 0.0
C837 C 0.65532 0.51957 0.07674 0.0
C838 C 0.62717 0.52831 0.12073 0.0
N839 N 0.65228 0.53817 0.10422 0.0
C840 C 0.61803 0.4311 0.10876 0.0
C841 C 0.6141 0.40412 0.1735 0.0
C842 C 0.63349 0.39183 0.14858 0.0
C843 C 0.63483 0.40518 0.11567 0.0
C844 C 0.5979 0.43047 0.16558 0.0
N845 N 0.60132 0.44461 0.13409 0.0
H846 H 0.61794 0.43974 0.08272 0.0
H847 H 0.58302 0.43979 0.18505 0.0
H848 H 0.62799 0.48191 0.05769 0.0
H849 H 0.61769 0.53961 0.14303 0.0
O850 O 0.56808 0.471 0.07631 0.0
O851 O 0.55407 0.51326 0.102 0.0
O852 O 0.58739 0.49782 0.17167 0.0
C853 C 0.55286 0.49592 0.07451 0.0
H854 H 0.48226 0.46276 0.1894 0.0
H855 H 0.67336 0.52048 0.05777 0.0
H856 H 0.61185 0.39377 0.19889 0.0
H857 H 0.64846 0.39534 0.09523 0.0
Co858 Co 0.31316 0.83176 0.87325 0.0
C859 C 0.35705 0.78018 0.87303 0.0
C860 C 0.33053 0.78184 0.91972 0.0
C861 C 0.34931 0.75733 0.92166 0.0
N862 N 0.33554 0.79658 0.88948 0.0
N863 N 0.36579 0.75618 0.89237 0.0
H864 H 0.36575 0.78524 0.8474 0.0
H865 H 0.3139 0.78777 0.93904 0.0
C866 C 0.29744 0.85795 0.94297 0.0
O867 O 0.30953 0.88385 0.9338 0.0
N868 N 0.28878 0.86645 0.85743 0.0
C869 C 0.28998 0.88108 0.82661 0.0
C870 C 0.26866 0.90387 0.82621 0.0
C871 C 0.26517 0.87957 0.87417 0.0
N872 N 0.25326 0.90309 0.85639 0.0
C873 C 0.35877 0.87662 0.8604 0.0
C874 C 0.38973 0.86968 0.92233 0.0
C875 C 0.40023 0.89049 0.89781 0.0
C876 C 0.3846 0.89382 0.86654 0.0
C877 C 0.36353 0.85305 0.91527 0.0
N878 N 0.34774 0.85729 0.885 0.0
H879 H 0.34832 0.87825 0.83532 0.0
H880 H 0.3559 0.83689 0.93438 0.0
H881 H 0.30493 0.87547 0.80538 0.0
H882 H 0.25634 0.87212 0.89875 0.0
O883 O 0.32482 0.82266 0.82621 0.0
O884 O 0.28409 0.80437 0.85193 0.0
O885 O 0.2954 0.83602 0.9215 0.0
C886 C 0.30161 0.80484 0.82458 0.0
H887 H 0.34991 0.74074 0.94238 0.0
H888 H 0.2645 0.91944 0.80502 0.0
H889 H 0.40156 0.86639 0.94667 0.0
H890 H 0.39261 0.9093 0.84672 0.0
Co891 Co 0.96886 0.56808 0.61361 0.0
C892 C 0.02668 0.60535 0.61318 0.0
C893 C 0.02577 0.56931 0.65039 0.0
C894 C 0.05406 0.58149 0.65043 0.0
N895 N 1.00794 0.58456 0.62788 0.0
N896 N 0.05483 0.60402 0.62703 0.0
H897 H 1.02102 0.61918 0.59097 0.0
H898 H 1.0195 0.5489 0.66405 0.0
C899 C 0.96565 0.56558 0.69081 0.0
O900 O 0.97376 0.59416 0.69083 0.0
N901 N 0.93098 0.54891 0.60068 0.0
C902 C 0.90925 0.55887 0.57902 0.0
C903 C 0.88469 0.53955 0.58144 0.0
C904 C 0.91945 0.5237 0.61566 0.0
N905 N 0.89116 0.51751 0.60465 0.0
C906 C 0.95471 0.63148 0.60938 0.0
C907 C 0.90464 0.62991 0.65221 0.0
C908 C 0.91247 0.65738 0.63629 0.0
C909 C 0.93793 0.65788 0.6146 0.0
C910 C 0.92179 0.60397 0.64593 0.0
N911 N 0.947 0.60504 0.62541 0.0
H912 H 0.97296 0.63205 0.59096 0.0
H913 H 0.91432 0.5828 0.65701 0.0
H914 H 0.91061 0.57939 0.56378 0.0
H915 H 0.93132 0.51033 0.63478 0.0
O916 O 0.97783 0.57756 0.56567 0.0
O917 O 0.99107 0.5352 0.59223 0.0
O918 O 0.96304 0.55143 0.66205 0.0
C919 C 0.99213 0.55196 0.56428 0.0
H920 H 0.0732 0.57337 0.66529 0.0
H921 H 0.86323 0.54238 0.56836 0.0
H922 H 0.88486 0.62824 0.66868 0.0
H923 H 0.944 0.67807 0.60027 0.0
Co924 Co 0.25626 0.84319 0.15955 0.0
C925 C 0.21474 0.78822 0.15703 0.0
C926 C 0.26005 0.78033 0.13951 0.0
C927 C 0.24479 0.75339 0.13875 0.0
N928 N 0.24144 0.80233 0.15102 0.0
N929 N 0.21645 0.75842 0.14978 0.0
H930 H 0.1946 0.79873 0.16697 0.0
H931 H 0.28346 0.78368 0.13245 0.0
C932 C 0.25546 0.83627 0.08322 0.0
O933 O 0.22864 0.82411 0.08748 0.0
N934 N 0.27286 0.88312 0.16757 0.0
C935 C 0.26208 0.90426 0.1894 0.0
C936 C 0.2784 0.93053 0.18477 0.0
C937 C 0.29575 0.89669 0.15016 0.0
N938 N 0.2994 0.92582 0.15991 0.0
C939 C 0.19378 0.85729 0.16899 0.0
C940 C 0.18696 0.89464 0.11188 0.0
C941 C 0.16155 0.88762 0.1321 0.0
C942 C 0.16549 0.86934 0.1615 0.0
C943 C 0.21508 0.88224 0.12062 0.0
N944 N 0.21774 0.86199 0.1474 0.0
H945 H 0.19629 0.84397 0.1923 0.0
H946 H 0.23463 0.88893 0.10569 0.0
H947 H 0.24314 0.90104 0.20678 0.0
H948 H 0.30873 0.8859 0.12985 0.0
O949 O 0.24898 0.8377 0.20863 0.0
O950 O 0.29116 0.82469 0.18192 0.0
O951 O 0.27067 0.84504 0.10964 0.0
C952 C 0.27514 0.82464 0.21042 0.0
H953 H 0.25368 0.73175 0.13053 0.0
H954 H 0.27488 0.95158 0.19846 0.0
H955 H 0.18516 0.90934 0.08945 0.0
H956 H 0.14684 0.86459 0.17891 0.0
Co957 Co 0.9537 0.50696 0.90139 0.0
C958 C 1.01182 0.4698 0.90248 0.0
C959 C 1.01212 0.5077 0.86781 0.0
C960 C 0.04018 0.4949 0.86735 0.0
N961 N 0.99374 0.49168 0.88896 0.0
N962 N 0.04023 0.47135 0.88945 0.0
H963 H 1.0054 0.45431 0.92283 0.0
H964 H 1.00594 0.52834 0.85451 0.0
C965 C 0.95403 0.50558 0.82442 0.0
O966 O 0.96298 0.47735 0.82712 0.0
N967 N 0.91462 0.52481 0.91267 0.0
C968 C 0.89866 0.52212 0.94237 0.0
C969 C 0.87358 0.54073 0.94044 0.0
C970 C 0.89885 0.54485 0.89306 0.0
N971 N 0.87379 0.55484 0.90937 0.0
C972 C 0.94201 0.44397 0.91088 0.0
C973 C 0.89697 0.43815 0.86166 0.0
C974 C 0.90686 0.4123 0.87956 0.0
C975 C 0.92927 0.4157 0.9049 0.0
C976 C 0.91032 0.46624 0.86869 0.0
N977 N 0.93382 0.46853 0.89164 0.0
H978 H 0.95796 0.44614 0.93177 0.0
H979 H 0.90199 0.48604 0.85529 0.0
H980 H 0.90499 0.50805 0.9642 0.0
H981 H 0.90581 0.55279 0.86771 0.0
O982 O 0.96245 0.4999 0.94979 0.0
O983 O 0.97425 0.54167 0.92123 0.0
O984 O 0.94881 0.52106 0.8518 0.0
C985 C 0.97595 0.5259 0.94989 0.0
H986 H 0.05927 0.50267 0.85219 0.0
H987 H 0.85652 0.54374 0.96029 0.0
H988 H 0.87931 0.43671 0.84229 0.0
H989 H 0.93653 0.39668 0.92061 0.0
Co990 Co 0.28622 0.20104 0.66277 0.0
C991 C 0.32823 0.25584 0.6607 0.0
C992 C 0.28441 0.26261 0.63822 0.0
C993 C 0.29947 0.28961 0.6374 0.0
N994 N 0.3022 0.24124 0.65276 0.0
N995 N 0.32686 0.28532 0.65153 0.0
H996 H 0.34743 0.24595 0.6736 0.0
H997 H 0.26154 0.25884 0.62934 0.0
C998 C 0.28962 0.20616 0.58643 0.0
O999 O 0.31686 0.21714 0.59133 0.0
N1000 N 0.26804 0.16192 0.67188 0.0
C1001 C 0.2767 0.14128 0.6956 0.0
C1002 C 0.25943 0.11556 0.69132 0.0
C1003 C 0.24548 0.14861 0.65371 0.0
N1004 N 0.23997 0.1201 0.66477 0.0
C1005 C 0.34779 0.18589 0.67631 0.0
C1006 C 0.35546 0.14442 0.62341 0.0
C1007 C 0.3797 0.1506 0.64566 0.0
C1008 C 0.37548 0.1714 0.67252 0.0
C1009 C 0.32781 0.15932 0.62839 0.0
N1010 N 0.3247 0.18093 0.65358 0.0
H1011 H 0.34485 0.20077 0.69817 0.0
H1012 H 0.30884 0.15299 0.61236 0.0
H1013 H 0.29478 0.14443 0.71413 0.0
H1014 H 0.23403 0.15912 0.63199 0.0
O1015 O 0.29194 0.20811 0.71174 0.0
O1016 O 0.25113 0.22139 0.6825 0.0
O1017 O 0.27366 0.19776 0.61244 0.0
C1018 C 0.26636 0.22233 0.71154 0.0
H1019 H 0.291 0.31085 0.62733 0.0
H1020 H 0.26126 0.095 0.70647 0.0
H1021 H 0.35758 0.12761 0.60314 0.0
H1022 H 0.39345 0.17625 0.69078 0.0
Co1023 Co 0.59238 0.53481 0.40476 0.0
C1024 C 0.53852 0.57505 0.39589 0.0
C1025 C 0.53428 0.5316 0.37142 0.0
C1026 C 0.50888 0.54804 0.3641 0.0
N1027 N 0.55295 0.54853 0.39096 0.0
N1028 N 0.51169 0.57533 0.37915 0.0
H1029 H 0.54766 0.59384 0.41045 0.0
H1030 H 0.53906 0.50884 0.3628 0.0
C1031 C 0.62127 0.52448 0.33566 0.0
O1032 O 0.64542 0.538 0.34799 0.0
N1033 N 0.63191 0.51813 0.41732 0.0
C1034 C 0.65323 0.52804 0.43963 0.0
C1035 C 0.67841 0.50977 0.43691 0.0
C1036 C 0.64405 0.49292 0.40297 0.0
N1037 N 0.67267 0.48777 0.41366 0.0
C1038 C 0.6197 0.59165 0.42088 0.0
C1039 C 0.6139 0.6185 0.35635 0.0
C1040 C 0.62601 0.63535 0.38377 0.0
C1041 C 0.62895 0.62145 0.41626 0.0
C1042 C 0.60471 0.58852 0.36219 0.0
N1043 N 0.60886 0.5749 0.39389 0.0
H1044 H 0.61985 0.58272 0.44685 0.0
H1045 H 0.59319 0.5768 0.34151 0.0
H1046 H 0.65129 0.54707 0.45681 0.0
H1047 H 0.63271 0.47949 0.3835 0.0
O1048 O 0.58255 0.54242 0.45279 0.0
O1049 O 0.57299 0.49952 0.42593 0.0
O1050 O 0.59829 0.52043 0.35528 0.0
C1051 C 0.57046 0.51581 0.45407 0.0
H1052 H 0.48967 0.54053 0.349 0.0
H1053 H 0.69955 0.51274 0.45062 0.0
H1054 H 0.61051 0.62874 0.33107 0.0
H1055 H 0.63783 0.63377 0.4383 0.0
C1056 C 0.2769 0.30307 0.27223 0.0
C1057 C 0.25751 0.30452 0.2432 0.0
C1058 C 0.27172 0.28268 0.29969 0.0
C1059 C 0.24701 0.26268 0.29925 0.0
H1060 H 0.2967 0.3174 0.27353 0.0
H1061 H 0.28742 0.28242 0.32126 0.0
S1062 S 0.1884 0.25839 0.23021 0.0
N1063 N 0.2118 0.28489 0.21654 0.0
N1064 N 0.20209 0.24664 0.26775 0.0
C1065 C 0.22702 0.26438 0.27074 0.0
C1066 C 0.23222 0.28526 0.2429 0.0
C1067 C 0.04016 0.98541 0.50795 0.0
C1068 C 0.0381 1.00173 0.53935 0.0
C1069 C 1.02045 0.99096 0.47996 0.0
C1070 C 0.99771 1.01308 0.48206 0.0
H1071 H 0.05718 0.96803 0.50487 0.0
H1072 H 0.02335 0.97802 0.45635 0.0
S1073 S 0.98173 0.0614 0.55889 0.0
N1074 N 1.01079 0.0405 0.57101 0.0
N1075 N 0.97384 0.051 0.51875 0.0
C1076 C 0.99521 0.02943 0.51343 0.0
C1077 C 1.01534 0.02378 0.54191 0.0
C1078 C 0.27216 0.76494 0.79264 0.0
C1079 C 0.29729 0.78429 0.79424 0.0
C1080 C 0.26801 0.74511 0.76455 0.0
C1081 C 0.28884 0.74362 0.73682 0.0
H1082 H 0.25537 0.76521 0.81311 0.0
H1083 H 0.2479 0.73117 0.76439 0.0
S1084 S 0.35942 0.78832 0.72922 0.0
N1085 N 0.34412 0.79977 0.76601 0.0
N1086 N 0.33616 0.76261 0.71351 0.0
C1087 C 0.31445 0.7623 0.73848 0.0
C1088 C 0.31868 0.78259 0.76703 0.0
C1089 C 0.50511 0.06254 0.01621 0.0
C1090 C 0.5052 0.04397 0.04613 0.0
C1091 C 0.52478 0.05722 0.98809 0.0
C1092 C 0.54557 0.03317 0.98867 0.0
H1093 H 0.48958 0.08139 0.01435 0.0
H1094 H 0.52329 0.07179 0.9655 0.0
S1095 S 0.55614 0.9787 0.06151 0.0
N1096 N 0.52868 1.00107 0.07484 0.0
N1097 N 0.56564 0.99113 0.02256 0.0
C1098 C 0.54623 1.01472 0.01871 0.0
C1099 C 0.52609 1.02007 0.04721 0.0
C1100 C 0.30421 0.78219 0.23749 0.0
C1101 C 0.28315 0.80573 0.24109 0.0
C1102 C 0.30909 0.76123 0.26431 0.0
C1103 C 0.29322 0.76285 0.29606 0.0
H1104 H 0.31645 0.77932 0.21336 0.0
H1105 H 0.32548 0.74347 0.25991 0.0
S1106 S 0.23695 0.82144 0.31964 0.0
N1107 N 0.24706 0.83023 0.27957 0.0
N1108 N 0.25654 0.79097 0.33005 0.0
C1109 C 0.27253 0.78665 0.30035 0.0
C1110 C 0.26746 0.80803 0.27291 0.0
C1111 C 0.51838 0.05418 0.4875 0.0
C1112 C 0.49843 0.02949 0.48796 0.0
C1113 C 0.53747 0.06028 0.51581 0.0
C1114 C 0.53754 0.04198 0.54595 0.0
H1115 H 0.51954 0.06881 0.46495 0.0
H1116 H 0.5523 0.07968 0.51396 0.0
S1117 S 0.48928 0.97469 0.56074 0.0
N1118 N 0.47974 0.98663 0.52159 0.0
N1119 N 0.51557 0.99824 0.5745 0.0
C1120 C 0.51765 1.01728 0.54686 0.0
C1121 C 0.49813 1.01103 0.51802 0.0
C1122 C 0.27547 0.24167 0.77177 0.0
C1123 C 0.25892 0.24332 0.7405 0.0
C1124 C 0.27239 0.26365 0.79784 0.0
C1125 C 0.25268 0.28833 0.79376 0.0
H1126 H 0.29132 0.22339 0.77605 0.0
H1127 H 0.28532 0.26103 0.82154 0.0
S1128 S 0.2046 0.30375 0.71654 0.0
N1129 N 0.22233 0.27203 0.7069 0.0
N1130 N 0.21646 0.31325 0.75567 0.0
C1131 C 0.23591 0.29024 0.76265 0.0
C1132 C 0.23898 0.26777 0.73616 0.0
C1133 C 0.02521 0.99495 0.97949 0.0
C1134 C 0.04688 1.01815 0.98012 0.0
C1135 C 1.00623 0.98944 1.00815 0.0
C1136 C 1.00804 1.00684 0.03882 0.0
H1137 H 1.02256 0.98113 0.95651 0.0
H1138 H 0.98999 0.97121 1.00618 0.0
S1139 S 0.06162 0.0698 0.05438 0.0
N1140 N 0.06941 0.05841 0.01458 0.0
N1141 N 0.03386 0.04792 0.0681 0.0
C1142 C 0.02974 0.02999 0.0399 0.0
C1143 C 0.04909 0.03564 1.01072 0.0
C1144 C 0.77891 0.77508 0.7819 0.0
C1145 C 0.75428 0.75503 0.78194 0.0
C1146 C 0.78385 0.79514 0.75413 0.0
C1147 C 0.76437 0.79614 0.72513 0.0
H1148 H 0.79431 0.77569 0.80374 0.0
H1149 H 0.80325 0.81 0.75551 0.0
S1150 S 0.69683 0.74788 0.71192 0.0
N1151 N 0.7103 0.73713 0.74998 0.0
N1152 N 0.71969 0.77479 0.69802 0.0
C1153 C 0.73973 0.7761 0.7247 0.0
C1154 C 0.73471 0.75558 0.75296 0.0
C1155 C 0.80749 0.28825 0.26008 0.0
C1156 C 0.78937 0.288 0.29028 0.0
C1157 C 0.80098 0.26973 0.23143 0.0
C1158 C 0.77612 0.24999 0.2317 0.0
H1159 H 0.82707 0.30286 0.25849 0.0
H1160 H 0.81557 0.27098 0.20887 0.0
S1161 S 0.72138 0.24055 0.30436 0.0
N1162 N 0.74537 0.26626 0.31852 0.0
N1163 N 0.73307 0.23143 0.26504 0.0
C1164 C 0.75774 0.2495 0.26175 0.0
C1165 C 0.76435 0.26849 0.29087 0.0
C1166 C 0.76795 0.30569 0.76302 0.0
C1167 C 0.78619 0.30461 0.73291 0.0
C1168 C 0.7711 0.28448 0.79014 0.0
C1169 C 0.79249 0.26103 0.78829 0.0
H1170 H 0.75072 0.32294 0.76557 0.0
H1171 H 0.75671 0.28659 0.81276 0.0
S1172 S 0.84565 0.24768 0.71491 0.0
N1173 N 0.82637 0.2779 0.70301 0.0
N1174 N 0.8323 0.23806 0.75341 0.0
C1175 C 0.81096 0.25974 0.75832 0.0
C1176 C 0.80787 0.28149 0.73087 0.0
C1177 C 0.7347 0.77911 0.26413 0.0
C1178 C 0.75417 0.78065 0.29308 0.0
C1179 C 0.74016 0.75923 0.23649 0.0
C1180 C 0.76538 0.73993 0.23644 0.0
H1181 H 0.71496 0.79352 0.26258 0.0
H1182 H 0.72478 0.75956 0.21461 0.0
S1183 S 0.82281 0.73397 0.30663 0.0
N1184 N 0.79926 0.76027 0.32044 0.0
N1185 N 0.80968 0.72294 0.26857 0.0
C1186 C 0.78481 0.74076 0.26553 0.0
C1187 C 0.7792 0.76109 0.29375 0.0
C1188 C 0.49559 0.53345 0.01384 0.0
C1189 C 0.49533 0.51436 0.98444 0.0
C1190 C 0.51432 0.52763 0.04265 0.0
C1191 C 0.53372 0.50249 0.04337 0.0
H1192 H 0.4814 0.55338 0.01455 0.0
H1193 H 0.51354 0.54299 0.06449 0.0
S1194 S 0.54174 0.44529 0.97311 0.0
N1195 N 0.51619 0.46915 0.95813 0.0
N1196 N 0.5513 0.45809 0.01181 0.0
C1197 C 0.53352 0.48306 0.01421 0.0
C1198 C 0.51437 0.48898 0.98495 0.0
C1199 C 1.00997 0.56223 0.50328 0.0
C1200 C 1.01124 0.54429 0.53364 0.0
C1201 C 0.02894 0.55661 0.47464 0.0
C1202 C 0.05011 0.53291 0.47522 0.0
H1203 H 0.99412 0.58082 0.50153 0.0
H1204 H 0.02665 0.57068 0.45173 0.0
S1205 S 0.06369 0.48023 0.54912 0.0
N1206 N 0.03619 0.50241 0.56275 0.0
N1207 N 0.07188 0.49196 0.50952 0.0
C1208 C 0.05193 0.5151 0.50567 0.0
C1209 C 0.0325 0.52072 0.53466 0.0
C1210 C 1.01592 0.52218 0.03739 0.0
C1211 C 0.0379 0.545 0.03489 0.0
C1212 C 0.99535 0.51695 1.01025 0.0
C1213 C 0.99582 0.53436 0.97949 0.0
H1214 H 1.01433 0.50842 0.06062 0.0
H1215 H 0.97907 0.49887 0.01338 0.0
S1216 S 0.0494 0.59647 0.95949 0.0
N1217 N 0.05916 0.58494 0.99871 0.0
N1218 N 1.02056 0.57508 0.94804 0.0
C1219 C 1.01765 0.55728 0.97667 0.0
C1220 C 0.03867 0.56256 1.00422 0.0
C1221 C 0.55054 0.52618 0.514 0.0
C1222 C 0.55181 0.50691 0.48482 0.0
C1223 C 0.53109 0.5204 0.54215 0.0
C1224 C 0.51186 0.49512 0.54243 0.0
H1225 H 0.56446 0.54629 0.51503 0.0
H1226 H 0.53106 0.53602 0.56377 0.0
S1227 S 0.50681 0.437 0.47291 0.0
N1228 N 0.53238 0.46109 0.45844 0.0
N1229 N 0.49591 0.45009 0.51103 0.0
C1230 C 0.51318 0.47537 0.51362 0.0
C1231 C 0.5331 0.48126 0.48499 0.0
C1232 C 0.34389 0.21008 0.17497 0.0
C1233 C 0.35066 0.23777 0.15877 0.0
C1234 C 0.36393 0.18559 0.17325 0.0
C1235 C 0.3911 0.18779 0.15452 0.0
H1236 H 0.3223 0.20704 0.18775 0.0
H1237 H 0.35732 0.16428 0.18489 0.0
S1238 S 0.42013 0.2561 0.10961 0.0
N1239 N 0.38712 0.26672 0.12553 0.0
N1240 N 0.4247 0.22044 0.12145 0.0
C1241 C 0.39875 0.21579 0.13953 0.0
C1242 C 0.37855 0.24089 0.14191 0.0
C1243 C 0.06264 0.12415 0.41258 0.0
C1244 C 0.06218 0.0955 0.39694 0.0
C1245 C 0.08959 0.14097 0.41432 0.0
C1246 C 0.11673 0.12956 0.40036 0.0
H1247 H 0.04173 0.13434 0.42128 0.0
H1248 H 0.08877 0.16372 0.42462 0.0
S1249 S 0.1278 0.05363 0.36186 0.0
N1250 N 0.09138 0.0551 0.371 0.0
N1251 N 0.142 0.08631 0.37454 0.0
C1252 C 0.11679 0.09999 0.38715 0.0
C1253 C 0.0895 0.08306 0.38536 0.0
C1254 C 0.18944 0.8622 0.65246 0.0
C1255 C 0.16114 0.85877 0.63645 0.0
C1256 C 0.20973 0.83802 0.65438 0.0
C1257 C 0.20212 0.80949 0.64109 0.0
H1258 H 0.19638 0.88404 0.66234 0.0
H1259 H 0.23187 0.84174 0.66553 0.0
S1260 S 0.13006 0.78822 0.59904 0.0
N1261 N 0.1259 0.82442 0.60851 0.0
N1262 N 0.16408 0.77863 0.61293 0.0
C1263 C 0.17342 0.80535 0.62648 0.0
C1264 C 0.15291 0.83014 0.62388 0.0
C1265 C 0.48161 0.91711 0.89792 0.0
C1266 C 0.47825 0.94831 0.90357 0.0
C1267 C 0.45633 0.89782 0.89818 0.0
C1268 C 0.42716 0.90929 0.90435 0.0
H1269 H 0.50352 0.90801 0.89107 0.0
H1270 H 0.45935 0.8742 0.89172 0.0
S1271 S 0.40721 0.98836 0.92543 0.0
N1272 N 0.44414 0.98905 0.91927 0.0
N1273 N 0.39677 0.95291 0.91948 0.0
C1274 C 0.42391 0.93998 0.91229 0.0
C1275 C 0.44946 0.95949 0.91203 0.0
C1276 C 0.41831 0.85727 0.38667 0.0
C1277 C 0.39782 0.88112 0.38168 0.0
C1278 C 0.40822 0.82731 0.38881 0.0
C1279 C 0.3774 0.82021 0.38543 0.0
H1280 H 0.44212 0.86194 0.39037 0.0
H1281 H 0.42452 0.80956 0.39373 0.0
S1282 S 0.315 0.8745 0.37033 0.0
N1283 N 0.3456 0.89584 0.37241 0.0
N1284 N 0.32666 0.8393 0.37558 0.0
C1285 C 0.35686 0.84377 0.37902 0.0
C1286 C 0.36707 0.87433 0.37745 0.0
C1287 C 0.42099 0.12027 0.67227 0.0
C1288 C 0.40911 0.13474 0.64278 0.0
C1289 C 0.45078 0.10981 0.67284 0.0
C1290 C 0.46998 0.11349 0.644 0.0
H1291 H 0.40747 0.11804 0.69561 0.0
H1292 H 0.45922 0.09964 0.69653 0.0
S1293 S 0.44897 0.14762 0.55937 0.0
N1294 N 0.41795 0.15033 0.58308 0.0
N1295 N 0.47433 0.13072 0.58424 0.0
C1296 C 0.45785 0.12621 0.61355 0.0
C1297 C 0.42731 0.13685 0.61293 0.0
C1298 C 0.14505 0.21962 0.89331 0.0
C1299 C 0.17016 0.22636 0.87252 0.0
C1300 C 0.13155 0.19101 0.89218 0.0
C1301 C 0.14287 0.16818 0.87031 0.0
H1302 H 0.13733 0.23585 0.91236 0.0
H1303 H 0.11319 0.18616 0.90997 0.0
S1304 S 0.20683 0.17585 0.80874 0.0
N1305 N 0.20463 0.20917 0.82788 0.0
N1306 N 0.17927 0.15518 0.82543 0.0
C1307 C 0.16665 0.17544 0.84758 0.0
C1308 C 0.18038 0.20461 0.84885 0.0
C1309 C 0.10587 0.88011 0.1267 0.0
C1310 C 0.13097 0.89957 0.124 0.0
C1311 C 0.07635 0.89141 0.1263 0.0
C1312 C 0.07086 0.92241 0.12243 0.0
H1313 H 0.10911 0.85612 0.13102 0.0
H1314 H 0.0577 0.87611 0.13105 0.0
S1315 S 0.12789 0.98269 0.11129 0.0
N1316 N 0.14797 0.95136 0.11515 0.0
N1317 N 0.09211 0.97223 0.11349 0.0
C1318 C 0.09539 0.94187 0.1171 0.0
C1319 C 0.12558 0.93051 0.11798 0.0
C1320 C 0.65034 0.82997 0.90125 0.0
C1321 C 0.67009 0.82397 0.87363 0.0
C1322 C 0.63473 0.85754 0.90323 0.0
C1323 C 0.63843 0.88007 0.87763 0.0
H1324 H 0.64851 0.81401 0.92252 0.0
H1325 H 0.62069 0.86181 0.92576 0.0
S1326 S 0.68677 0.87433 0.79922 0.0
N1327 N 0.69175 0.84179 0.81959 0.0
N1328 N 0.66233 0.89364 0.82289 0.0
C1329 C 0.6569 0.87353 0.84888 0.0
C1330 C 0.67285 0.84549 0.84704 0.0
C1331 C 0.96921 0.88678 0.62678 0.0
C1332 C 0.97577 0.9177 0.62333 0.0
C1333 C 0.93941 0.8762 0.62448 0.0
C1334 C 0.91527 0.89638 0.6195 0.0
H1335 H 0.98717 0.87094 0.63262 0.0
H1336 H 0.93505 0.85235 0.62856 0.0
S1337 S 0.92086 0.97933 0.6079 0.0
N1338 N 0.95619 0.96812 0.61316 0.0
N1339 N 0.89991 0.94844 0.60993 0.0
C1340 C 0.92167 0.92721 0.6149 0.0
C1341 C 0.95206 0.93784 0.61652 0.0
C1342 C 0.85939 0.16501 0.39575 0.0
C1343 C 0.88652 0.15873 0.37806 0.0
C1344 C 0.84786 0.19441 0.39738 0.0
C1345 C 0.86269 0.21855 0.38094 0.0
H1346 H 0.84759 0.14724 0.40961 0.0
H1347 H 0.8278 0.19862 0.41274 0.0
S1348 S 0.93319 0.21445 0.32966 0.0
N1349 N 0.92724 0.17931 0.34257 0.0
N1350 N 0.9047 0.2345 0.34505 0.0
C1351 C 0.88869 0.21252 0.36144 0.0
C1352 C 0.9008 0.18259 0.36009 0.0
C1353 C 0.59741 0.09782 0.14733 0.0
C1354 C 0.57216 0.11438 0.13619 0.0
C1355 C 0.62656 0.10972 0.14447 0.0
C1356 C 0.63144 0.13887 0.13086 0.0
H1357 H 0.59438 0.07591 0.15944 0.0
H1358 H 0.64533 0.09645 0.15419 0.0
S1359 S 0.5723 0.19078 0.09716 0.0
N1360 N 0.5535 0.1604 0.10967 0.0
N1361 N 0.60828 0.18358 0.10508 0.0
C1362 C 0.60633 0.15512 0.11821 0.0
C1363 C 0.57664 0.14268 0.12074 0.0
C1364 C 0.6991 0.218 0.60747 0.0
C1365 C 0.6995 0.23887 0.63499 0.0
C1366 C 0.67974 0.19312 0.60761 0.0
C1367 C 0.65932 0.18808 0.635 0.0
H1368 H 0.71427 0.22063 0.58562 0.0
H1369 H 0.68137 0.17732 0.58624 0.0
S1370 S 0.64944 0.23726 0.71225 0.0
N1371 N 0.67698 0.25348 0.69003 0.0
N1372 N 0.63925 0.20731 0.68955 0.0
C1373 C 0.65858 0.20934 0.66224 0.0
C1374 C 0.67879 0.23468 0.66229 0.0
C1375 C 0.58367 0.89249 0.36877 0.0
C1376 C 0.60769 0.89639 0.39239 0.0
C1377 C 0.55804 0.91114 0.36983 0.0
C1378 C 0.55534 0.93403 0.39477 0.0
H1379 H 0.58518 0.87566 0.34847 0.0
H1380 H 0.54092 0.90878 0.34993 0.0
S1381 S 0.61058 0.95303 0.46334 0.0
N1382 N 0.62624 0.92451 0.44234 0.0
N1383 N 0.57771 0.95912 0.44424 0.0
C1384 C 0.57823 0.93724 0.41957 0.0
C1385 C 0.60447 0.91844 0.41849 0.0
C1386 C 0.86479 0.86257 0.16053 0.0
C1387 C 0.89037 0.86213 0.13888 0.0
C1388 C 0.84595 0.83729 0.16332 0.0
C1389 C 0.8524 0.81055 0.14522 0.0
H1390 H 0.85853 0.88305 0.17413 0.0
H1391 H 0.82548 0.83894 0.17862 0.0
S1392 S 0.91785 0.7968 0.08765 0.0
N1393 N 0.9222 0.8321 0.10072 0.0
N1394 N 0.88669 0.78435 0.10653 0.0
C1395 C 0.87866 0.8092 0.12499 0.0
C1396 C 0.89767 0.83511 0.12162 0.0
C1397 C 0.98279 0.13454 0.86616 0.0
C1398 C 0.98746 0.10965 0.88816 0.0
C1399 C 0.95569 0.15072 0.86686 0.0
C1400 C 0.93204 0.14235 0.88934 0.0
H1401 H 0.99975 0.14053 0.84706 0.0
H1402 H 0.95277 0.16922 0.84868 0.0
S1403 S 0.93407 0.0798 0.95371 0.0
N1404 N 0.96742 0.07837 0.93448 0.0
N1405 N 0.91592 0.10852 0.93574 0.0
C1406 C 0.93715 0.11854 0.91298 0.0
C1407 C 0.96501 0.1022 0.91237 0.0
C1408 C 0.86074 0.68013 0.63513 0.0
C1409 C 0.8921 0.68418 0.6388 0.0
C1410 C 0.84104 0.70481 0.63357 0.0
C1411 C 0.85173 0.73471 0.6355 0.0
H1412 H 0.85132 0.65771 0.63199 0.0
H1413 H 0.81719 0.70044 0.62996 0.0
S1414 S 0.93139 0.75788 0.64821 0.0
N1415 N 0.93271 0.72057 0.64709 0.0
N1416 N 0.89548 0.76708 0.64322 0.0
C1417 C 0.8828 0.73923 0.6407 0.0
C1418 C 0.90302 0.71397 0.64239 0.0
C1419 C 0.58626 0.65162 0.8935 0.0
C1420 C 0.61613 0.64076 0.89666 0.0
C1421 C 0.56142 0.63177 0.89361 0.0
C1422 C 0.56564 0.60042 0.89673 0.0
H1423 H 0.5821 0.67556 0.89005 0.0
H1424 H 0.53896 0.64081 0.88951 0.0
S1425 S 0.63855 0.56043 0.90861 0.0
N1426 N 0.64798 0.59632 0.90441 0.0
N1427 N 0.60134 0.55961 0.90629 0.0
C1428 C 0.5951 0.58945 0.90183 0.0
C1429 C 0.62033 0.60945 0.90137 0.0
C1430 C 0.63837 0.33641 0.16086 0.0
C1431 C 0.65208 0.36477 0.15574 0.0
C1432 C 0.65554 0.30968 0.15933 0.0
C1433 C 0.68676 0.31078 0.15293 0.0
H1434 H 0.61405 0.33477 0.16348 0.0
H1435 H 0.64413 0.28806 0.16051 0.0
S1436 S 0.73368 0.37939 0.14269 0.0
N1437 N 0.69898 0.3924 0.14781 0.0
N1438 N 0.73103 0.34219 0.14502 0.0
C1439 C 0.70089 0.33902 0.15059 0.0
C1440 C 0.68358 0.36607 0.15199 0.0
C1441 C 0.95997 0.44981 0.40489 0.0
C1442 C 0.98732 0.44112 0.38934 0.0
C1443 C 0.93523 0.43008 0.40588 0.0
C1444 C 0.93693 0.40133 0.39057 0.0
H1445 H 0.95741 0.47249 0.415 0.0
H1446 H 0.91412 0.43802 0.41683 0.0
S1447 S 1.00423 0.36744 0.34861 0.0
N1448 N 1.01546 0.40154 0.36038 0.0
N1449 N 0.96868 0.36445 0.36135 0.0
C1450 C 0.9646 0.39194 0.37627 0.0
C1451 C 0.98993 0.41187 0.3759 0.0
C1452 C 0.91274 0.35647 0.87146 0.0
C1453 C 0.89355 0.38187 0.87352 0.0
C1454 C 0.90111 0.32701 0.87208 0.0
C1455 C 0.86993 0.32193 0.87421 0.0
H1456 H 0.93703 0.35938 0.87095 0.0
H1457 H 0.91657 0.30804 0.8727 0.0
S1458 S 0.80984 0.37988 0.87818 0.0
N1459 N 0.84152 0.39956 0.87631 0.0
N1460 N 0.81994 0.34395 0.87675 0.0
C1461 C 0.8504 0.34684 0.87426 0.0
C1462 C 0.86214 0.3769 0.87394 0.0
C1463 C 0.94173 0.67007 0.12167 0.0
C1464 C 0.91582 0.653 0.11367 0.0
C1465 C 0.97039 0.65633 0.12343 0.0
C1466 C 0.97383 0.62526 0.1171 0.0
H1467 H 0.93949 0.69359 0.12904 0.0
H1468 H 0.98953 0.66947 0.13224 0.0
S1469 S 0.91376 0.57166 0.09136 0.0
N1470 N 0.89593 0.60417 0.09647 0.0
N1471 N 0.94974 0.57857 0.09959 0.0
C1472 C 0.94848 0.6086 0.10667 0.0
C1473 C 0.91945 0.62243 0.10501 0.0
C1474 C 0.67099 0.70454 0.35632 0.0
C1475 C 0.66253 0.72577 0.38165 0.0
C1476 C 0.65743 0.67576 0.35526 0.0
C1477 C 0.63512 0.66749 0.3796 0.0
H1478 H 0.68969 0.70944 0.33906 0.0
H1479 H 0.6659 0.65924 0.33695 0.0
S1480 S 0.60207 0.71707 0.44724 0.0
N1481 N 0.6285 0.738 0.42877 0.0
N1482 N 0.60254 0.6844 0.42656 0.0
C1483 C 0.62487 0.68957 0.40304 0.0
C1484 C 0.63873 0.71859 0.40415 0.0
C1485 C 0.62001 0.41318 0.60736 0.0
C1486 C 0.6298 0.38852 0.62752 0.0
C1487 C 0.59018 0.42392 0.61004 0.0
C1488 C 0.56956 0.4104 0.63317 0.0
H1489 H 0.6359 0.42519 0.59097 0.0
H1490 H 0.5838 0.44407 0.5958 0.0
S1491 S 0.5833 0.34268 0.68774 0.0
N1492 N 0.616 0.34906 0.66838 0.0
N1493 N 0.56006 0.36912 0.67336 0.0
C1494 C 0.57867 0.38449 0.65151 0.0
C1495 C 0.60881 0.37359 0.64873 0.0
C1496 C 0.12627 0.35843 0.39958 0.0
C1497 C 0.13844 0.37779 0.37425 0.0
C1498 C 0.13689 0.32887 0.40348 0.0
C1499 C 0.16023 0.31758 0.38238 0.0
H1500 H 0.1093 0.36667 0.41751 0.0
H1501 H 0.12783 0.31513 0.42434 0.0
S1502 S 0.19794 0.35862 0.3103 0.0
N1503 N 0.17337 0.38321 0.32599 0.0
N1504 N 0.1938 0.32749 0.33363 0.0
C1505 C 0.17129 0.33609 0.35545 0.0
C1506 C 0.1603 0.36631 0.35137 0.0
C1507 C 0.4425 0.44328 0.13203 0.0
C1508 C 0.46917 0.42605 0.13247 0.0
C1509 C 0.41411 0.42946 0.13068 0.0
C1510 C 0.41126 0.39782 0.1298 0.0
H1511 H 0.44366 0.46761 0.13465 0.0
H1512 H 0.39416 0.4436 0.13211 0.0
S1513 S 0.47435 0.3427 0.12752 0.0
N1514 N 0.49125 0.37598 0.12939 0.0
N1515 N 0.43766 0.34968 0.1269 0.0
C1516 C 0.4378 0.38036 0.12781 0.0
C1517 C 0.46685 0.39457 0.12914 0.0
C1518 C 0.40677 0.72184 0.90824 0.0
C1519 C 0.38557 0.73166 0.88357 0.0
C1520 C 0.42023 0.69335 0.90576 0.0
C1521 C 0.41279 0.67351 0.87859 0.0
H1522 H 0.4114 0.73559 0.93087 0.0
H1523 H 0.43517 0.68604 0.92643 0.0
S1524 S 0.36087 0.68983 0.80538 0.0
N1525 N 0.35969 0.72067 0.82949 0.0
N1526 N 0.38495 0.66671 0.82475 0.0
C1527 C 0.39347 0.68397 0.85218 0.0
C1528 C 0.37983 0.7132 0.85469 0.0
C1529 C 0.13708 0.61853 0.61433 0.0
C1530 C 0.13895 0.65005 0.61772 0.0
C1531 C 0.1091 0.60386 0.61405 0.0
C1532 C 0.0819 0.62008 0.61754 0.0
H1533 H 0.15748 0.605 0.61372 0.0
H1534 H 0.10873 0.57939 0.61326 0.0
S1535 S 0.07452 0.70324 0.62391 0.0
N1536 N 0.11136 0.69739 0.62165 0.0
N1537 N 0.0585 0.66954 0.62165 0.0
C1538 C 0.08334 0.65177 0.6184 0.0
C1539 C 0.11198 0.66683 0.61848 0.0
C1540 C 0.14683 0.71451 0.12774 0.0
C1541 C 0.15163 0.68714 0.14569 0.0
C1542 C 0.1671 0.73876 0.13105 0.0
C1543 C 0.19303 0.73609 0.15182 0.0
H1544 H 0.12778 0.71681 0.11028 0.0
H1545 H 0.16345 0.75906 0.11585 0.0
S1546 S 0.2151 0.67012 0.20541 0.0
N1547 N 0.18338 0.65956 0.18637 0.0
N1548 N 0.22171 0.70495 0.19185 0.0
C1549 C 0.19747 0.70938 0.17082 0.0
C1550 C 0.17667 0.68494 0.16797 0.0
C1551 C 0.06287 0.42077 0.89757 0.0
C1552 C 0.06591 0.45235 0.89685 0.0
C1553 C 0.08845 0.40191 0.89817 0.0
C1554 C 0.11797 0.41398 0.89813 0.0
H1555 H 0.04067 0.41061 0.89587 0.0
H1556 H 0.08507 0.37767 0.89771 0.0
S1557 S 0.13762 0.49561 0.90023 0.0
N1558 N 0.10036 0.49496 0.9 0.0
N1559 N 0.14831 0.45989 0.89929 0.0
C1560 C 0.12111 0.44564 0.89925 0.0
C1561 C 0.09512 0.46471 0.89905 0.0
C1562 C 0.39559 0.33181 0.63348 0.0
C1563 C 0.3887 0.35913 0.6505 0.0
C1564 C 0.37632 0.30669 0.63603 0.0
C1565 C 0.34942 0.30831 0.65522 0.0
H1566 H 0.41559 0.33016 0.61737 0.0
H1567 H 0.38153 0.28647 0.62139 0.0
S1568 S 0.32174 0.3737 0.7059 0.0
N1569 N 0.35378 0.38557 0.68859 0.0
N1570 N 0.31747 0.33844 0.69274 0.0
C1571 C 0.34287 0.33496 0.67335 0.0
C1572 C 0.36257 0.36036 0.67119 0.0
C1573 C 0.45345 0.63154 0.40694 0.0
C1574 C 0.43883 0.63823 0.37534 0.0
C1575 C 0.4787 0.61238 0.40791 0.0
C1576 C 0.48976 0.5991 0.37738 0.0
H1577 H 0.44487 0.64061 0.43112 0.0
H1578 H 0.48866 0.60665 0.43275 0.0
S1579 S 0.46113 0.61096 0.28799 0.0
N1580 N 0.43837 0.63123 0.31268 0.0
N1581 N 0.48593 0.59549 0.31467 0.0
C1582 C 0.47625 0.60669 0.34557 0.0
C1583 C 0.45074 0.62622 0.3445 0.0
C1584 C 0.27658 0.36763 0.0224 0.0
C1585 C 0.26426 0.3535 0.05202 0.0
C1586 C 0.26639 0.36041 0.98889 0.0
C1587 C 0.24326 0.3391 0.98387 0.0
H1588 H 0.29436 0.38428 0.02504 0.0
H1589 H 0.27623 0.37211 0.96687 0.0
S1590 S 0.20394 0.2951 0.05253 0.0
N1591 N 0.22794 0.31671 0.07383 0.0
N1592 N 0.20892 0.30328 0.01109 0.0
C1593 C 0.23095 0.32462 0.01318 0.0
C1594 C 0.24141 0.33177 0.04718 0.0
C1595 C 0.90405 1.009 0.23877 0.0
C1596 C 0.93193 1.00487 0.22182 0.0
C1597 C 0.90232 1.01311 0.27475 0.0
C1598 C 0.92834 1.01266 0.29573 0.0
H1599 H 0.88316 1.00934 0.22412 0.0
H1600 H 0.88023 1.01679 0.2861 0.0
S1601 S 1.007 1.0009 0.26468 0.0
N1602 N 0.98637 1.00066 0.229 0.0
N1603 N 0.98292 1.00576 0.29691 0.0
C1604 C 0.95638 1.00763 0.27933 0.0
C1605 C 0.95824 1.00449 0.24237 0.0
C1606 C 0.27792 0.65456 0.52662 0.0
C1607 C 0.28223 0.68017 0.54756 0.0
C1608 C 0.28237 0.65571 0.49077 0.0
C1609 C 0.29133 0.68255 0.47396 0.0
H1610 H 0.27075 0.63328 0.53787 0.0
H1611 H 0.27854 0.63516 0.47619 0.0
S1612 S 0.30624 0.75612 0.51686 0.0
N1613 N 0.29644 0.73331 0.54895 0.0
N1614 N 0.30488 0.73547 0.48122 0.0
C1615 C 0.29616 0.70837 0.49453 0.0
C1616 C 0.29163 0.70718 0.53136 0.0
C1617 C 0.63965 0.02648 0.78061 0.0
C1618 C 0.61256 0.02646 0.79979 0.0
C1619 C 0.63998 0.03294 0.74498 0.0
C1620 C 0.61322 0.03954 0.72675 0.0
H1621 H 0.66097 1.02152 0.79318 0.0
H1622 H 0.66155 0.03273 0.73169 0.0
S1623 S 0.53597 0.04173 0.76458 0.0
N1624 N 0.55808 0.03323 0.7977 0.0
N1625 N 0.55858 0.04521 0.73071 0.0
C1626 C 0.58584 0.0394 0.74552 0.0
C1627 C 0.58556 0.03299 0.78199 0.0
C1628 C 0.75701 0.72346 0.03672 0.0
C1629 C 0.76771 0.69403 0.04354 0.0
C1630 C 0.74768 0.7321 1.00342 0.0
C1631 C 0.74918 0.71187 0.97546 0.0
H1632 H 0.75569 0.74009 0.05727 0.0
H1633 H 0.73915 0.75482 0.99951 0.0
S1634 S 0.77278 0.63146 0.97974 0.0
N1635 N 0.77747 0.64409 0.01968 0.0
N1636 N 0.76073 0.66067 0.95687 0.0
C1637 C 0.75986 0.68241 0.9817 0.0
C1638 C 0.7689 0.67341 0.0158 0.0
C1639 C 0.14278 1.01824 0.77259 0.0
C1640 C 0.11724 1.01461 0.79403 0.0
C1641 C 0.1416 1.01208 0.73693 0.0
C1642 C 0.11473 1.00242 0.72087 0.0
H1643 H 0.164 0.02607 0.78331 0.0
H1644 H 0.16202 1.01509 0.72179 0.0
S1645 S 0.04159 0.9882 0.76522 0.0
N1646 N 0.06459 0.99883 0.79661 0.0
N1647 N 0.06185 0.98952 0.72928 0.0
C1648 C 0.08893 0.99886 0.74185 0.0
C1649 C 0.09035 1.00426 0.77846 0.0
C1650 C 0.77719 0.39454 0.52306 0.0
C1651 C 0.77565 0.36838 0.54376 0.0
C1652 C 0.78379 0.39294 0.48756 0.0
C1653 C 0.78821 0.36499 0.47091 0.0
H1654 H 0.77351 0.41659 0.53439 0.0
H1655 H 0.78544 0.41392 0.47312 0.0
S1656 S 0.78166 0.28935 0.51248 0.0
N1657 N 0.7764 0.31346 0.54457 0.0
N1658 N 0.78718 0.31021 0.47744 0.0
C1659 C 0.78497 0.33846 0.49093 0.0
C1660 C 0.77911 0.3402 0.52742 0.0
C1661 C 0.40244 0.03652 0.28424 0.0
C1662 C 0.42885 0.02629 0.30077 0.0
C1663 C 0.4021 0.04329 0.24866 0.0
C1664 C 0.42807 0.03971 0.22788 0.0
H1665 H 0.38182 0.03959 0.299 0.0
H1666 H 0.38123 0.0516 0.23749 0.0
S1667 S 0.50237 1.01065 0.25827 0.0
N1668 N 0.48124 1.01133 0.2936 0.0
N1669 N 0.48059 0.02316 0.22653 0.0
C1670 C 0.4545 0.02866 0.24402 0.0
C1671 C 0.45491 1.02224 0.28047 0.0
C1672 C 0.75775 0.84262 0.5271 0.0
C1673 C 0.77001 0.86933 0.54109 0.0
C1674 C 0.75036 0.84051 0.49182 0.0
C1675 C 0.75466 0.86509 0.46921 0.0
H1676 H 0.7538 0.82307 0.54343 0.0
H1677 H 0.7406 0.81965 0.48242 0.0
S1678 S 0.78725 0.93968 0.49187 0.0
N1679 N 0.78699 0.9207 0.52885 0.0
N1680 N 0.77284 0.91658 0.46266 0.0
C1681 C 0.76707 0.89184 0.4826 0.0
C1682 C 0.77482 0.894 0.51849 0.0
C1683 C 0.40616 0.5227 0.77505 0.0
C1684 C 0.43271 0.52515 0.79488 0.0
C1685 C 0.40704 0.51406 0.74009 0.0
C1686 C 0.4346 0.5082 0.72309 0.0
H1687 H 0.38435 0.52711 0.78672 0.0
H1688 H 0.38578 0.51188 0.72638 0.0
S1689 S 0.51101 0.51576 0.76206 0.0
N1690 N 0.48759 0.52353 0.79419 0.0
N1691 N 0.48943 0.50843 0.72816 0.0
C1692 C 0.46149 0.5121 0.74213 0.0
C1693 C 0.46051 0.52026 0.77806 0.0
C1694 C 0.77264 0.15565 0.02388 0.0
C1695 C 0.77416 0.1818 0.04458 0.0
C1696 C 0.77791 0.1568 0.98806 0.0
C1697 C 0.78454 0.18422 0.9711 0.0
H1698 H 0.76738 0.1339 0.03534 0.0
H1699 H 0.77681 0.13586 0.97359 0.0
S1700 S 0.79106 0.25944 0.01306 0.0
N1701 N 0.78391 0.23595 0.04536 0.0
N1702 N 0.79129 0.23847 0.97769 0.0
C1703 C 0.78552 0.21071 0.99126 0.0
C1704 C 0.78111 0.20939 0.02805 0.0
C1705 C 0.09022 0.5345 0.27148 0.0
C1706 C 0.11746 0.52564 0.2874 0.0
C1707 C 0.0892 0.54233 0.23616 0.0
C1708 C 0.11543 0.54186 0.21553 0.0
H1709 H 0.06945 0.53534 0.28633 0.0
H1710 H 0.06782 0.5494 0.22519 0.0
S1711 S 0.1923 0.51931 0.24404 0.0
N1712 N 0.17128 0.51621 0.27927 0.0
N1713 N 0.16919 0.53087 0.21313 0.0
C1714 C 0.14273 0.53275 0.23095 0.0
C1715 C 0.14379 0.52465 0.2668 0.0
C1716 C 0.25837 0.17835 0.54276 0.0
C1717 C 0.27854 0.20193 0.5506 0.0
C1718 C 0.24864 0.17339 0.50856 0.0
C1719 C 0.25829 0.1922 0.48121 0.0
H1720 H 0.2504 0.16336 0.56308 0.0
H1721 H 0.23307 0.15501 0.50362 0.0
S1722 S 0.31104 0.25708 0.48816 0.0
N1723 N 0.30793 0.24416 0.52825 0.0
N1724 N 0.28937 0.23508 0.46421 0.0
C1725 C 0.2784 0.21587 0.48877 0.0
C1726 C 0.2886 0.22066 0.52341 0.0
C1727 C 0.59129 0.5126 0.28204 0.0
C1728 C 0.61955 0.51679 0.29817 0.0
C1729 C 0.58904 0.5065 0.24634 0.0
C1730 C 0.61498 0.504 0.22541 0.0
H1731 H 0.57063 0.51432 0.29701 0.0
H1732 H 0.56683 0.50319 0.23528 0.0
S1733 S 0.69442 0.51336 0.25484 0.0
N1734 N 0.67404 0.51829 0.29026 0.0
N1735 N 0.66991 0.50671 0.22349 0.0
C1736 C 0.64338 0.50828 0.24122 0.0
C1737 C 0.64564 0.5147 0.27746 0.0
C1738 C 0.30707 0.84719 1.00541 0.0
C1739 C 0.28652 0.85386 0.97865 0.0
C1740 C 0.29699 0.842 0.0395 0.0
C1741 C 0.26604 0.84307 0.04766 0.0
H1742 H 0.33101 0.84558 0.99981 0.0
H1743 H 0.31342 0.83647 0.05939 0.0
S1744 S 0.20377 0.86307 0.98718 0.0
N1745 N 0.23443 0.86351 0.96274 0.0
N1746 N 0.21527 0.85382 0.02661 0.0
C1747 C 0.24544 0.85061 0.02114 0.0
C1748 C 0.25575 0.85598 0.98661 0.0
C1749 C 0.96047 0.56633 0.75543 0.0
C1750 C 0.96048 0.54974 0.72426 0.0
C1751 C 0.95714 0.55199 0.78765 0.0
C1752 C 0.95393 0.52045 0.79001 0.0
H1753 H 0.96347 0.59063 0.7551 0.0
H1754 H 0.9581 0.5657 0.8109 0.0
S1755 S 0.94972 0.46675 0.71626 0.0
N1756 N 0.95508 0.50004 0.69788 0.0
N1757 N 0.94871 0.47319 0.75844 0.0
C1758 C 0.95278 0.50364 0.75909 0.0
C1759 C 0.95608 0.51825 0.72623 0.0
C1760 C 0.1903 0.43822 0.13079 0.0
C1761 C 0.21685 0.44656 0.14866 0.0
C1762 C 0.17093 0.46019 0.11606 0.0
C1763 C 0.17787 0.4912 0.11781 0.0
H1764 H 0.18428 0.41459 0.12864 0.0
H1765 H 0.15065 0.45292 0.10278 0.0
S1766 S 0.24452 0.52496 0.16122 0.0
N1767 N 0.24876 0.48821 0.16707 0.0
N1768 N 0.21282 0.52907 0.1391 0.0
C1769 C 0.20431 0.49976 0.13544 0.0
C1770 C 0.22366 0.47758 0.15091 0.0
C1771 C 0.82586 0.96859 0.39642 0.0
C1772 C 0.85617 0.9593 0.39987 0.0
C1773 C 0.80392 0.94973 0.38147 0.0
C1774 C 0.81111 0.92046 0.3698 0.0
H1775 H 0.81913 0.99093 0.40485 0.0
H1776 H 0.78096 0.95798 0.37944 0.0
S1777 S 0.88681 0.88476 0.3736 0.0
N1778 N 0.8921 0.91864 0.39057 0.0
N1779 N 0.85064 0.8829 0.36316 0.0
C1780 C 0.84117 0.91063 0.37351 0.0
C1781 C 0.86374 0.93012 0.38822 0.0
C1782 C 0.3607 0.60972 0.63494 0.0
C1783 C 0.33418 0.60113 0.65283 0.0
C1784 C 0.38039 0.58799 0.62052 0.0
C1785 C 0.37391 0.55694 0.62277 0.0
H1786 H 0.3663 0.63342 0.63216 0.0
H1787 H 0.40045 0.59546 0.60689 0.0
S1788 S 0.30809 0.5223 0.66709 0.0
N1789 N 0.30307 0.55901 0.67212 0.0
N1790 N 0.33989 0.51861 0.64509 0.0
C1791 C 0.3478 0.54805 0.64086 0.0
C1792 C 0.32801 0.57001 0.65586 0.0
C1793 C 0.67713 0.10772 0.88643 0.0
C1794 C 0.68664 0.08088 0.90314 0.0
C1795 C 0.69812 0.12817 0.87173 0.0
C1796 C 0.72932 0.12219 0.87252 0.0
H1797 H 0.65328 0.11296 0.88478 0.0
H1798 H 0.68992 0.1484 0.85897 0.0
S1799 S 0.76622 0.05562 0.9129 0.0
N1800 N 0.72979 0.04993 0.91945 0.0
N1801 N 0.76876 0.0881 0.8919 0.0
C1802 C 0.73911 0.09572 0.88934 0.0
C1803 C 0.71793 0.07516 0.90461 0.0
C1804 C 0.19632 0.58408 0.35587 0.0
C1805 C 0.18575 0.5862 0.39025 0.0
C1806 C 0.21811 0.6043 0.34288 0.0
C1807 C 0.22977 0.62793 0.36342 0.0
H1808 H 0.18857 0.56586 0.33938 0.0
H1809 H 0.22651 0.60098 0.31675 0.0
S1810 S 0.20625 0.64523 0.45405 0.0
N1811 N 0.18658 0.61485 0.44377 0.0
N1812 N 0.22662 0.65349 0.41937 0.0
C1813 C 0.21788 0.6313 0.39728 0.0
C1814 C 0.19619 0.61023 0.4107 0.0
C1815 C 0.70331 0.99415 0.63786 0.0
C1816 C 0.67557 0.98687 0.62203 0.0
C1817 C 0.72241 0.97162 0.65138 0.0
C1818 C 0.7149 0.94078 0.64906 0.0
H1819 H 0.71019 1.01755 0.63997 0.0
H1820 H 0.74361 0.97834 0.66305 0.0
S1821 S 0.64455 0.90977 0.61074 0.0
N1822 N 0.64117 0.94672 0.60564 0.0
N1823 N 0.67734 0.90424 0.63031 0.0
C1824 C 0.68714 0.93317 0.63345 0.0
C1825 C 0.66739 0.95623 0.62024 0.0
C1826 C 0.3376 0.45337 0.92181 0.0
C1827 C 0.35493 0.47091 0.89853 0.0
C1828 C 0.31553 0.4329 0.90991 0.0
C1829 C 0.3095 0.42941 0.87421 0.0
H1830 H 0.34113 0.45545 0.94952 0.0
H1831 H 0.30256 0.42024 0.92883 0.0
S1832 S 0.34882 0.46904 0.80227 0.0
N1833 N 0.36452 0.4828 0.83778 0.0
N1834 N 0.32347 0.44428 0.81568 0.0
C1835 C 0.32689 0.44642 0.85065 0.0
C1836 C 0.34948 0.46709 0.8627 0.0
C1837 C 0.85535 0.08499 0.09924 0.0
C1838 C 0.87675 0.07001 0.12023 0.0
C1839 C 0.83609 0.10735 0.11286 0.0
C1840 C 0.83705 0.11532 0.14824 0.0
H1841 H 0.85312 0.07896 0.07212 0.0
H1842 H 0.81946 0.11758 0.09589 0.0
S1843 S 0.88999 0.0847 0.21406 0.0
N1844 N 0.89852 0.06619 0.17817 0.0
N1845 N 0.8623 0.10797 0.20349 0.0
C1846 C 0.8589 0.10132 0.16929 0.0
C1847 C 0.87878 0.07881 0.15538 0.0
C1848 C 0.83509 0.57038 0.86651 0.0
C1849 C 0.85204 0.57648 0.8965 0.0
C1850 C 0.81276 0.59063 0.85467 0.0
C1851 C 0.80671 0.61816 0.87196 0.0
H1852 H 0.8387 0.54945 0.8526 0.0
H1853 H 0.80012 0.58455 0.83168 0.0
S1854 S 0.84841 0.64589 0.94975 0.0
N1855 N 0.8633 0.61238 0.94191 0.0
N1856 N 0.82232 0.651 0.91963 0.0
C1857 C 0.82482 0.62499 0.90125 0.0
C1858 C 0.84712 0.60399 0.91355 0.0
C1859 C 0.16996 0.08588 0.62402 0.0
C1860 C 0.17844 0.05554 0.61891 0.0
C1861 C 0.19021 0.10698 0.63866 0.0
C1862 C 0.2194 0.09832 0.64956 0.0
H1863 H 0.14769 0.09337 0.61618 0.0
H1864 H 0.18288 0.13014 0.64193 0.0
S1865 S 0.25216 1.02133 0.6428 0.0
N1866 N 0.21778 1.01786 0.6267 0.0
N1867 N 0.25555 0.05718 0.65393 0.0
C1868 C 0.2279 0.06795 0.6449 0.0
C1869 C 0.20752 0.04668 0.62968 0.0
C1870 C 0.72416 0.47601 0.39265 0.0
C1871 C 0.69425 0.46673 0.39903 0.0
C1872 C 0.74534 0.4565 0.37737 0.0
C1873 C 0.7377 0.42668 0.36811 0.0
H1874 H 0.73116 0.49877 0.39905 0.0
H1875 H 0.7681 0.46473 0.37331 0.0
S1876 S 0.66259 0.39096 0.37974 0.0
N1877 N 0.65816 0.42551 0.39515 0.0
N1878 N 0.69805 0.38881 0.36654 0.0
C1879 C 0.70795 0.41698 0.37454 0.0
C1880 C 0.68622 0.43701 0.38983 0.0
C1881 C 0.37095 0.96217 0.12591 0.0
C1882 C 0.36161 0.9919 0.11825 0.0
C1883 C 0.35043 0.94046 0.1388 0.0
C1884 C 0.32 0.94789 0.14533 0.0
H1885 H 0.39425 0.95568 0.12176 0.0
H1886 H 0.35854 0.91789 0.14444 0.0
S1887 S 0.28419 1.02254 0.12991 0.0
N1888 N 0.31977 0.02748 0.11838 0.0
N1889 N 0.28152 0.98693 0.14243 0.0
C1890 C 0.31044 0.97749 0.13771 0.0
C1891 C 0.33113 0.9994 0.12422 0.0
C1892 C 0.85029 0.46496 0.66668 0.0
C1893 C 0.83071 0.44869 0.6447 0.0
C1894 C 0.87032 0.48694 0.65341 0.0
C1895 C 0.87119 0.49406 0.61769 0.0
H1896 H 0.85024 0.46052 0.69434 0.0
H1897 H 0.88481 0.49892 0.67137 0.0
S1898 S 0.82493 0.45816 0.54903 0.0
N1899 N 0.81381 0.44139 0.58522 0.0
N1900 N 0.8512 0.4826 0.56062 0.0
C1901 C 0.85185 0.47796 0.59548 0.0
C1902 C 0.83176 0.45531 0.60887 0.0
C1903 C 0.33355 0.1087 0.35792 0.0
C1904 C 0.31664 0.12771 0.37991 0.0
C1905 C 0.35533 0.08859 0.37115 0.0
C1906 C 0.36111 0.08635 0.40707 0.0
H1907 H 0.32965 0.10909 0.33017 0.0
H1908 H 0.36705 0.07395 0.35314 0.0
S1909 S 0.32452 0.13217 0.47597 0.0
N1910 N 0.30812 0.14345 0.4397 0.0
N1911 N 0.34943 0.10635 0.46425 0.0
C1912 C 0.3451 0.10585 0.42932 0.0
C1913 C 0.32288 0.12637 0.41585 0.0
C1914 C 0.69947 0.58599 0.16471 0.0
C1915 C 0.71686 0.60394 0.14199 0.0
C1916 C 0.67805 0.56523 0.1522 0.0
C1917 C 0.67316 0.56115 0.11631 0.0
H1918 H 0.7024 0.588 0.19254 0.0
H1919 H 0.66567 0.55172 0.17084 0.0
S1920 S 0.712 0.60306 0.0456 0.0
N1921 N 0.72733 0.61636 0.08155 0.0
N1922 N 0.68677 0.57784 0.05822 0.0
C1923 C 0.69003 0.57926 0.09326 0.0
C1924 C 0.71184 0.60052 0.10599 0.0
C1925 C 0.18397 0.93418 0.9019 0.0
C1926 C 0.1867 0.96547 0.89634 0.0
C1927 C 0.2056 0.91383 0.88852 0.0
C1928 C 0.23034 0.92404 0.86853 0.0
H1929 H 0.1654 0.92554 0.9173 0.0
H1930 H 0.20294 0.88994 0.89383 0.0
S1931 S 0.247 1.00407 0.8465 0.0
N1932 N 0.21557 1.00573 0.86952 0.0
N1933 N 0.25594 0.96788 0.84422 0.0
C1934 C 0.23283 0.95534 0.86242 0.0
C1935 C 0.21109 0.97593 0.87639 0.0
loop_
_geom_bond_atom_site_label_1
_geom_bond_atom_site_label_2
_geom_bond_distance
_geom_bond_site_symmetry_2
_ccdc_geom_bond_type
Co0 N4 2.148 . S
Co0 N10 2.128 . S
Co0 N20 2.194 . S
Co0 O25 2.351 . S
Co0 O26 2.155 . S
Co0 O27 2.096 . S
C1 N4 1.301 . S
C1 N5 1.328 . S
C1 H6 0.930 . S
C2 C3 1.333 . S
C2 N4 1.317 . S
C2 H7 0.930 . S
C3 C2 1.333 . S
C3 N5 1.350 . S
C3 H29 0.931 . S
N4 Co0 2.148 . S
N4 C1 1.301 . S
N4 C2 1.317 . S
N5 C1 1.328 . S
N5 C3 1.350 . S
H6 C1 0.930 . S
H7 C2 0.930 . S
C8 O9 1.224 . S
C8 O27 1.247 . S
O9 C8 1.224 . S
N10 Co0 2.128 . S
N10 C11 1.355 . S
N10 C13 1.311 . S
C11 N10 1.355 . S
C11 C12 1.363 . S
C11 H23 0.929 . S
C12 C11 1.363 . S
C12 N14 1.375 . S
C12 H30 0.931 . S
C13 N10 1.311 . S
C13 N14 1.347 . S
C13 H24 0.929 . S
N14 C12 1.375 . S
N14 C13 1.347 . S
C15 C18 1.365 . S
C15 N20 1.328 . S
C15 H21 0.929 . S
C16 C17 1.362 . S
C16 C19 1.378 . S
C16 H31 0.929 . S
C17 C16 1.362 . S
C17 C18 1.366 . S
C18 C15 1.365 . S
C18 C17 1.366 . S
C18 H32 0.930 . S
C19 C16 1.378 . S
C19 N20 1.315 . S
C19 H22 0.930 . S
N20 Co0 2.194 . S
N20 C15 1.328 . S
N20 C19 1.315 . S
H21 C15 0.929 . S
H22 C19 0.930 . S
H23 C11 0.929 . S
H24 C13 0.929 . S
O25 Co0 2.351 . S
O25 C28 1.244 . S
O26 Co0 2.155 . S
O26 C28 1.240 . S
O27 Co0 2.096 . S
O27 C8 1.247 . S
C28 O25 1.244 . S
C28 O26 1.240 . S
H29 C3 0.931 . S
H30 C12 0.931 . S
H31 C16 0.929 . S
H32 C18 0.930 . S
Co33 N37 2.148 . S
Co33 N43 2.128 . S
Co33 N53 2.194 . S
Co33 O58 2.351 . S
Co33 O59 2.155 . S
Co33 O60 2.096 . S
C34 N37 1.301 . S
C34 N38 1.328 1_655 S
C34 H39 0.930 . S
C35 C36 1.333 1_655 S
C35 N37 1.317 . S
C35 H40 0.930 . S
C36 C35 1.333 1_455 S
C36 N38 1.350 . S
C36 H62 0.931 . S
N37 Co33 2.148 . S
N37 C34 1.301 . S
N37 C35 1.317 . S
N38 C34 1.328 1_455 S
N38 C36 1.350 . S
H39 C34 0.930 . S
H40 C35 0.930 . S
C41 O42 1.224 . S
C41 O60 1.247 . S
O42 C41 1.224 . S
N43 Co33 2.128 . S
N43 C44 1.355 . S
N43 C46 1.311 1_545 S
C44 N43 1.355 . S
C44 C45 1.363 . S
C44 H56 0.929 . S
C45 C44 1.363 . S
C45 N47 1.375 1_545 S
C45 H63 0.931 . S
C46 N43 1.311 1_565 S
C46 N47 1.347 . S
C46 H57 0.929 . S
N47 C45 1.375 1_565 S
N47 C46 1.347 . S
C48 C51 1.365 . S
C48 N53 1.328 . S
C48 H54 0.929 . S
C49 C50 1.362 . S
C49 C52 1.378 . S
C49 H64 0.929 . S
C50 C49 1.362 . S
C50 C51 1.366 . S
C51 C48 1.365 . S
C51 C50 1.366 . S
C51 H65 0.930 . S
C52 C49 1.378 . S
C52 N53 1.315 . S
C52 H55 0.930 . S
N53 Co33 2.194 . S
N53 C48 1.328 . S
N53 C52 1.315 . S
H54 C48 0.929 . S
H55 C52 0.930 . S
H56 C44 0.929 . S
H57 C46 0.929 . S
O58 Co33 2.351 . S
O58 C61 1.244 . S
O59 Co33 2.155 . S
O59 C61 1.240 . S
O60 Co33 2.096 . S
O60 C41 1.247 . S
C61 O58 1.244 . S
C61 O59 1.240 . S
H62 C36 0.931 . S
H63 C45 0.931 . S
H64 C49 0.929 . S
H65 C51 0.930 . S
Co66 N70 2.148 . S
Co66 N76 2.128 . S
Co66 N86 2.194 . S
Co66 O91 2.351 . S
Co66 O92 2.155 . S
Co66 O93 2.096 . S
C67 N70 1.301 . S
C67 N71 1.328 . S
C67 H72 0.930 . S
C68 C69 1.333 . S
C68 N70 1.317 . S
C68 H73 0.930 . S
C69 C68 1.333 . S
C69 N71 1.350 . S
C69 H95 0.931 . S
N70 Co66 2.148 . S
N70 C67 1.301 . S
N70 C68 1.317 . S
N71 C67 1.328 . S
N71 C69 1.350 . S
H72 C67 0.930 . S
H73 C68 0.930 . S
C74 O75 1.224 . S
C74 O93 1.247 . S
O75 C74 1.224 . S
N76 Co66 2.128 . S
N76 C77 1.355 . S
N76 C79 1.311 . S
C77 N76 1.355 . S
C77 C78 1.363 . S
C77 H89 0.929 . S
C78 C77 1.363 . S
C78 N80 1.375 . S
C78 H96 0.931 . S
C79 N76 1.311 . S
C79 N80 1.347 . S
C79 H90 0.929 . S
N80 C78 1.375 . S
N80 C79 1.347 . S
C81 C84 1.365 . S
C81 N86 1.328 . S
C81 H87 0.929 . S
C82 C83 1.362 . S
C82 C85 1.378 . S
C82 H97 0.929 . S
C83 C82 1.362 . S
C83 C84 1.366 . S
C84 C81 1.365 . S
C84 C83 1.366 . S
C84 H98 0.930 . S
C85 C82 1.378 . S
C85 N86 1.315 . S
C85 H88 0.930 . S
N86 Co66 2.194 . S
N86 C81 1.328 . S
N86 C85 1.315 . S
H87 C81 0.929 . S
H88 C85 0.930 . S
H89 C77 0.929 . S
H90 C79 0.929 . S
O91 Co66 2.351 . S
O91 C94 1.244 . S
O92 Co66 2.155 . S
O92 C94 1.240 . S
O93 Co66 2.096 . S
O93 C74 1.247 . S
C94 O91 1.244 . S
C94 O92 1.240 . S
H95 C69 0.931 . S
H96 C78 0.931 . S
H97 C82 0.929 . S
H98 C84 0.930 . S
Co99 N103 2.148 . S
Co99 N109 2.128 . S
Co99 N119 2.194 . S
Co99 O124 2.351 . S
Co99 O125 2.155 . S
Co99 O126 2.096 . S
C100 N103 1.301 . S
C100 N104 1.328 . S
C100 H105 0.930 . S
C101 C102 1.333 . S
C101 N103 1.317 . S
C101 H106 0.930 . S
C102 C101 1.333 . S
C102 N104 1.350 . S
C102 H128 0.931 . S
N103 Co99 2.148 . S
N103 C100 1.301 . S
N103 C101 1.317 . S
N104 C100 1.328 . S
N104 C102 1.350 . S
H105 C100 0.930 . S
H106 C101 0.930 . S
C107 O108 1.224 . S
C107 O126 1.247 . S
O108 C107 1.224 . S
N109 Co99 2.128 . S
N109 C110 1.355 . S
N109 C112 1.311 1_565 S
C110 N109 1.355 . S
C110 C111 1.363 . S
C110 H122 0.929 . S
C111 C110 1.363 . S
C111 N113 1.375 1_565 S
C111 H129 0.931 . S
C112 N109 1.311 1_545 S
C112 N113 1.347 . S
C112 H123 0.929 . S
N113 C111 1.375 1_545 S
N113 C112 1.347 . S
C114 C117 1.365 . S
C114 N119 1.328 . S
C114 H120 0.929 . S
C115 C116 1.362 . S
C115 C118 1.378 . S
C115 H130 0.929 . S
C116 C115 1.362 . S
C116 C117 1.366 . S
C117 C114 1.365 . S
C117 C116 1.366 . S
C117 H131 0.930 . S
C118 C115 1.378 . S
C118 N119 1.315 . S
C118 H121 0.930 . S
N119 Co99 2.194 . S
N119 C114 1.328 . S
N119 C118 1.315 . S
H120 C114 0.929 . S
H121 C118 0.930 . S
H122 C110 0.929 . S
H123 C112 0.929 . S
O124 Co99 2.351 . S
O124 C127 1.244 . S
O125 Co99 2.155 . S
O125 C127 1.240 . S
O126 Co99 2.096 . S
O126 C107 1.247 . S
C127 O124 1.244 . S
C127 O125 1.240 . S
H128 C102 0.931 . S
H129 C111 0.931 . S
H130 C115 0.929 . S
H131 C117 0.930 . S
Co132 N136 2.148 . S
Co132 N142 2.128 . S
Co132 N152 2.194 . S
Co132 O157 2.351 . S
Co132 O158 2.155 . S
Co132 O159 2.096 . S
C133 N136 1.301 . S
C133 N137 1.328 . S
C133 H138 0.930 . S
C134 C135 1.333 . S
C134 N136 1.317 . S
C134 H139 0.930 . S
C135 C134 1.333 . S
C135 N137 1.350 . S
C135 H161 0.931 . S
N136 Co132 2.148 . S
N136 C133 1.301 . S
N136 C134 1.317 . S
N137 C133 1.328 . S
N137 C135 1.350 . S
H138 C133 0.930 . S
H139 C134 0.930 . S
C140 O141 1.224 . S
C140 O159 1.247 . S
O141 C140 1.224 . S
N142 Co132 2.128 . S
N142 C143 1.355 . S
N142 C145 1.311 . S
C143 N142 1.355 . S
C143 C144 1.363 . S
C143 H155 0.929 . S
C144 C143 1.363 . S
C144 N146 1.375 . S
C144 H162 0.931 . S
C145 N142 1.311 . S
C145 N146 1.347 . S
C145 H156 0.929 . S
N146 C144 1.375 . S
N146 C145 1.347 . S
C147 C150 1.365 . S
C147 N152 1.328 . S
C147 H153 0.929 . S
C148 C149 1.362 . S
C148 C151 1.378 . S
C148 H163 0.929 . S
C149 C148 1.362 . S
C149 C150 1.366 . S
C150 C147 1.365 . S
C150 C149 1.366 . S
C150 H164 0.930 . S
C151 C148 1.378 . S
C151 N152 1.315 . S
C151 H154 0.930 . S
N152 Co132 2.194 . S
N152 C147 1.328 . S
N152 C151 1.315 . S
H153 C147 0.929 . S
H154 C151 0.930 . S
H155 C143 0.929 . S
H156 C145 0.929 . S
O157 Co132 2.351 . S
O157 C160 1.244 . S
O158 Co132 2.155 . S
O158 C160 1.240 . S
O159 Co132 2.096 . S
O159 C140 1.247 . S
C160 O157 1.244 . S
C160 O158 1.240 . S
H161 C135 0.931 . S
H162 C144 0.931 . S
H163 C148 0.929 . S
H164 C150 0.930 . S
Co165 N169 2.148 . S
Co165 N175 2.128 . S
Co165 N185 2.194 . S
Co165 O190 2.351 . S
Co165 O191 2.155 . S
Co165 O192 2.096 . S
C166 N169 1.301 . S
C166 N170 1.328 . S
C166 H171 0.930 . S
C167 C168 1.333 . S
C167 N169 1.317 . S
C167 H172 0.930 . S
C168 C167 1.333 . S
C168 N170 1.350 . S
C168 H194 0.931 . S
N169 Co165 2.148 . S
N169 C166 1.301 . S
N169 C167 1.317 . S
N170 C166 1.328 . S
N170 C168 1.350 . S
H171 C166 0.930 . S
H172 C167 0.930 . S
C173 O174 1.224 . S
C173 O192 1.247 . S
O174 C173 1.224 . S
N175 Co165 2.128 . S
N175 C176 1.355 . S
N175 C178 1.311 1_545 S
C176 N175 1.355 . S
C176 C177 1.363 . S
C176 H188 0.929 . S
C177 C176 1.363 . S
C177 N179 1.375 1_545 S
C177 H195 0.931 . S
C178 N175 1.311 1_565 S
C178 N179 1.347 . S
C178 H189 0.929 . S
N179 C177 1.375 1_565 S
N179 C178 1.347 . S
C180 C183 1.365 . S
C180 N185 1.328 . S
C180 H186 0.929 . S
C181 C182 1.362 . S
C181 C184 1.378 . S
C181 H196 0.929 . S
C182 C181 1.362 . S
C182 C183 1.366 . S
C183 C180 1.365 . S
C183 C182 1.366 . S
C183 H197 0.930 . S
C184 C181 1.378 . S
C184 N185 1.315 . S
C184 H187 0.930 . S
N185 Co165 2.194 . S
N185 C180 1.328 . S
N185 C184 1.315 . S
H186 C180 0.929 . S
H187 C184 0.930 . S
H188 C176 0.929 . S
H189 C178 0.929 . S
O190 Co165 2.351 . S
O190 C193 1.244 . S
O191 Co165 2.155 . S
O191 C193 1.240 . S
O192 Co165 2.096 . S
O192 C173 1.247 . S
C193 O190 1.244 . S
C193 O191 1.240 . S
H194 C168 0.931 . S
H195 C177 0.931 . S
H196 C181 0.929 . S
H197 C183 0.930 . S
Co198 N202 2.148 . S
Co198 N208 2.128 . S
Co198 N218 2.194 . S
Co198 O223 2.351 . S
Co198 O224 2.155 . S
Co198 O225 2.096 . S
C199 N202 1.301 . S
C199 N203 1.328 . S
C199 H204 0.930 . S
C200 C201 1.333 . S
C200 N202 1.317 . S
C200 H205 0.930 . S
C201 C200 1.333 . S
C201 N203 1.350 . S
C201 H227 0.931 . S
N202 Co198 2.148 . S
N202 C199 1.301 . S
N202 C200 1.317 . S
N203 C199 1.328 . S
N203 C201 1.350 . S
H204 C199 0.930 . S
H205 C200 0.930 . S
C206 O207 1.224 . S
C206 O225 1.247 . S
O207 C206 1.224 . S
N208 Co198 2.128 . S
N208 C209 1.355 . S
N208 C211 1.311 . S
C209 N208 1.355 . S
C209 C210 1.363 . S
C209 H221 0.929 . S
C210 C209 1.363 . S
C210 N212 1.375 . S
C210 H228 0.931 . S
C211 N208 1.311 . S
C211 N212 1.347 . S
C211 H222 0.929 . S
N212 C210 1.375 . S
N212 C211 1.347 . S
C213 C216 1.365 . S
C213 N218 1.328 . S
C213 H219 0.929 . S
C214 C215 1.362 . S
C214 C217 1.378 . S
C214 H229 0.929 . S
C215 C214 1.362 . S
C215 C216 1.366 . S
C216 C213 1.365 . S
C216 C215 1.366 . S
C216 H230 0.930 . S
C217 C214 1.378 . S
C217 N218 1.315 . S
C217 H220 0.930 . S
N218 Co198 2.194 . S
N218 C213 1.328 . S
N218 C217 1.315 . S
H219 C213 0.929 . S
H220 C217 0.930 . S
H221 C209 0.929 . S
H222 C211 0.929 . S
O223 Co198 2.351 . S
O223 C226 1.244 . S
O224 Co198 2.155 . S
O224 C226 1.240 . S
O225 Co198 2.096 . S
O225 C206 1.247 . S
C226 O223 1.244 . S
C226 O224 1.240 . S
H227 C201 0.931 . S
H228 C210 0.931 . S
H229 C214 0.929 . S
H230 C216 0.930 . S
Co231 N235 2.148 . S
Co231 N241 2.128 . S
Co231 N251 2.194 . S
Co231 O256 2.351 . S
Co231 O257 2.155 . S
Co231 O258 2.096 . S
C232 N235 1.301 . S
C232 N236 1.328 1_655 S
C232 H237 0.930 . S
C233 C234 1.333 1_655 S
C233 N235 1.317 . S
C233 H238 0.930 . S
C234 C233 1.333 1_455 S
C234 N236 1.350 . S
C234 H260 0.931 . S
N235 Co231 2.148 . S
N235 C232 1.301 . S
N235 C233 1.317 . S
N236 C232 1.328 1_455 S
N236 C234 1.350 . S
H237 C232 0.930 . S
H238 C233 0.930 . S
C239 O240 1.224 . S
C239 O258 1.247 . S
O240 C239 1.224 . S
N241 Co231 2.128 . S
N241 C242 1.355 . S
N241 C244 1.311 1_565 S
C242 N241 1.355 . S
C242 C243 1.363 . S
C242 H254 0.929 . S
C243 C242 1.363 . S
C243 N245 1.375 1_565 S
C243 H261 0.931 . S
C244 N241 1.311 1_545 S
C244 N245 1.347 . S
C244 H255 0.929 . S
N245 C243 1.375 1_545 S
N245 C244 1.347 . S
C246 C249 1.365 . S
C246 N251 1.328 . S
C246 H252 0.929 . S
C247 C248 1.362 . S
C247 C250 1.378 . S
C247 H262 0.929 . S
C248 C247 1.362 . S
C248 C249 1.366 . S
C249 C246 1.365 . S
C249 C248 1.366 . S
C249 H263 0.930 . S
C250 C247 1.378 . S
C250 N251 1.315 . S
C250 H253 0.930 . S
N251 Co231 2.194 . S
N251 C246 1.328 . S
N251 C250 1.315 . S
H252 C246 0.929 . S
H253 C250 0.930 . S
H254 C242 0.929 . S
H255 C244 0.929 . S
O256 Co231 2.351 . S
O256 C259 1.244 . S
O257 Co231 2.155 . S
O257 C259 1.240 . S
O258 Co231 2.096 . S
O258 C239 1.247 . S
C259 O256 1.244 . S
C259 O257 1.240 . S
H260 C234 0.931 . S
H261 C243 0.931 . S
H262 C247 0.929 . S
H263 C249 0.930 . S
Co264 N268 2.148 . S
Co264 N274 2.128 . S
Co264 N284 2.194 . S
Co264 O289 2.351 . S
Co264 O290 2.155 . S
Co264 O291 2.096 . S
C265 N268 1.301 . S
C265 N269 1.328 . S
C265 H270 0.930 . S
C266 C267 1.333 . S
C266 N268 1.317 . S
C266 H271 0.930 . S
C267 C266 1.333 . S
C267 N269 1.350 . S
C267 H293 0.931 . S
N268 Co264 2.148 . S
N268 C265 1.301 . S
N268 C266 1.317 . S
N269 C265 1.328 . S
N269 C267 1.350 . S
H270 C265 0.930 . S
H271 C266 0.930 . S
C272 O273 1.224 . S
C272 O291 1.247 . S
O273 C272 1.224 . S
N274 Co264 2.128 . S
N274 C275 1.355 . S
N274 C277 1.311 . S
C275 N274 1.355 . S
C275 C276 1.363 . S
C275 H287 0.929 . S
C276 C275 1.363 . S
C276 N278 1.375 . S
C276 H294 0.931 . S
C277 N274 1.311 . S
C277 N278 1.347 . S
C277 H288 0.929 . S
N278 C276 1.375 . S
N278 C277 1.347 . S
C279 C282 1.365 . S
C279 N284 1.328 . S
C279 H285 0.929 . S
C280 C281 1.362 . S
C280 C283 1.378 . S
C280 H295 0.929 . S
C281 C280 1.362 . S
C281 C282 1.366 . S
C282 C279 1.365 . S
C282 C281 1.366 . S
C282 H296 0.930 . S
C283 C280 1.378 . S
C283 N284 1.315 . S
C283 H286 0.930 . S
N284 Co264 2.194 . S
N284 C279 1.328 . S
N284 C283 1.315 . S
H285 C279 0.929 . S
H286 C283 0.930 . S
H287 C275 0.929 . S
H288 C277 0.929 . S
O289 Co264 2.351 . S
O289 C292 1.244 . S
O290 Co264 2.155 . S
O290 C292 1.240 . S
O291 Co264 2.096 . S
O291 C272 1.247 . S
C292 O289 1.244 . S
C292 O290 1.240 . S
H293 C267 0.931 . S
H294 C276 0.931 . S
H295 C280 0.929 . S
H296 C282 0.930 . S
Co297 N301 2.148 . S
Co297 N307 2.128 . S
Co297 N317 2.194 . S
Co297 O322 2.351 . S
Co297 O323 2.155 . S
Co297 O324 2.096 . S
C298 N301 1.301 . S
C298 N302 1.328 1_455 S
C298 H303 0.930 . S
C299 C300 1.333 1_455 S
C299 N301 1.317 . S
C299 H304 0.930 . S
C300 C299 1.333 1_655 S
C300 N302 1.350 . S
C300 H326 0.931 . S
N301 Co297 2.148 . S
N301 C298 1.301 . S
N301 C299 1.317 . S
N302 C298 1.328 1_655 S
N302 C300 1.350 . S
H303 C298 0.930 . S
H304 C299 0.930 . S
C305 O306 1.224 . S
C305 O324 1.247 . S
O306 C305 1.224 . S
N307 Co297 2.128 . S
N307 C308 1.355 . S
N307 C310 1.311 1_565 S
C308 N307 1.355 . S
C308 C309 1.363 . S
C308 H320 0.929 . S
C309 C308 1.363 . S
C309 N311 1.375 1_565 S
C309 H327 0.931 . S
C310 N307 1.311 1_545 S
C310 N311 1.347 . S
C310 H321 0.929 . S
N311 C309 1.375 1_545 S
N311 C310 1.347 . S
C312 C315 1.365 . S
C312 N317 1.328 . S
C312 H318 0.929 . S
C313 C314 1.362 . S
C313 C316 1.378 . S
C313 H328 0.929 . S
C314 C313 1.362 . S
C314 C315 1.366 . S
C315 C312 1.365 . S
C315 C314 1.366 . S
C315 H329 0.930 . S
C316 C313 1.378 . S
C316 N317 1.315 . S
C316 H319 0.930 . S
N317 Co297 2.194 . S
N317 C312 1.328 . S
N317 C316 1.315 . S
H318 C312 0.929 . S
H319 C316 0.930 . S
H320 C308 0.929 . S
H321 C310 0.929 . S
O322 Co297 2.351 . S
O322 C325 1.244 . S
O323 Co297 2.155 . S
O323 C325 1.240 . S
O324 Co297 2.096 . S
O324 C305 1.247 . S
C325 O322 1.244 . S
C325 O323 1.240 . S
H326 C300 0.931 . S
H327 C309 0.931 . S
H328 C313 0.929 . S
H329 C315 0.930 . S
Co330 N334 2.148 . S
Co330 N340 2.128 . S
Co330 N350 2.194 . S
Co330 O355 2.351 . S
Co330 O356 2.155 . S
Co330 O357 2.096 . S
C331 N334 1.301 . S
C331 N335 1.328 . S
C331 H336 0.930 . S
C332 C333 1.333 . S
C332 N334 1.317 . S
C332 H337 0.930 . S
C333 C332 1.333 . S
C333 N335 1.350 . S
C333 H359 0.931 . S
N334 Co330 2.148 . S
N334 C331 1.301 . S
N334 C332 1.317 . S
N335 C331 1.328 . S
N335 C333 1.350 . S
H336 C331 0.930 . S
H337 C332 0.930 . S
C338 O339 1.224 . S
C338 O357 1.247 . S
O339 C338 1.224 . S
N340 Co330 2.128 . S
N340 C341 1.355 . S
N340 C343 1.311 . S
C341 N340 1.355 . S
C341 C342 1.363 . S
C341 H353 0.929 . S
C342 C341 1.363 . S
C342 N344 1.375 . S
C342 H360 0.931 . S
C343 N340 1.311 . S
C343 N344 1.347 . S
C343 H354 0.929 . S
N344 C342 1.375 . S
N344 C343 1.347 . S
C345 C348 1.365 . S
C345 N350 1.328 . S
C345 H351 0.929 . S
C346 C347 1.362 . S
C346 C349 1.378 . S
C346 H361 0.929 . S
C347 C346 1.362 . S
C347 C348 1.366 . S
C348 C345 1.365 . S
C348 C347 1.366 . S
C348 H362 0.930 . S
C349 C346 1.378 . S
C349 N350 1.315 . S
C349 H352 0.930 . S
N350 Co330 2.194 . S
N350 C345 1.328 . S
N350 C349 1.315 . S
H351 C345 0.929 . S
H352 C349 0.930 . S
H353 C341 0.929 . S
H354 C343 0.929 . S
O355 Co330 2.351 . S
O355 C358 1.244 . S
O356 Co330 2.155 . S
O356 C358 1.240 . S
O357 Co330 2.096 . S
O357 C338 1.247 . S
C358 O355 1.244 . S
C358 O356 1.240 . S
H359 C333 0.931 . S
H360 C342 0.931 . S
H361 C346 0.929 . S
H362 C348 0.930 . S
Co363 N367 2.148 . S
Co363 N373 2.128 . S
Co363 N383 2.194 . S
Co363 O388 2.351 . S
Co363 O389 2.155 . S
Co363 O390 2.096 . S
C364 N367 1.301 . S
C364 N368 1.328 . S
C364 H369 0.930 . S
C365 C366 1.333 . S
C365 N367 1.317 . S
C365 H370 0.930 . S
C366 C365 1.333 . S
C366 N368 1.350 . S
C366 H392 0.931 . S
N367 Co363 2.148 . S
N367 C364 1.301 . S
N367 C365 1.317 . S
N368 C364 1.328 . S
N368 C366 1.350 . S
H369 C364 0.930 . S
H370 C365 0.930 . S
C371 O372 1.224 . S
C371 O390 1.247 . S
O372 C371 1.224 . S
N373 Co363 2.128 . S
N373 C374 1.355 . S
N373 C376 1.311 1_545 S
C374 N373 1.355 . S
C374 C375 1.363 . S
C374 H386 0.929 . S
C375 C374 1.363 . S
C375 N377 1.375 1_545 S
C375 H393 0.931 . S
C376 N373 1.311 1_565 S
C376 N377 1.347 . S
C376 H387 0.929 . S
N377 C375 1.375 1_565 S
N377 C376 1.347 . S
C378 C381 1.365 . S
C378 N383 1.328 . S
C378 H384 0.929 . S
C379 C380 1.362 . S
C379 C382 1.378 . S
C379 H394 0.929 . S
C380 C379 1.362 . S
C380 C381 1.366 . S
C381 C378 1.365 . S
C381 C380 1.366 . S
C381 H395 0.930 . S
C382 C379 1.378 . S
C382 N383 1.315 . S
C382 H385 0.930 . S
N383 Co363 2.194 . S
N383 C378 1.328 . S
N383 C382 1.315 . S
H384 C378 0.929 . S
H385 C382 0.930 . S
H386 C374 0.929 . S
H387 C376 0.929 . S
O388 Co363 2.351 . S
O388 C391 1.244 . S
O389 Co363 2.155 . S
O389 C391 1.240 . S
O390 Co363 2.096 . S
O390 C371 1.247 . S
C391 O388 1.244 . S
C391 O389 1.240 . S
H392 C366 0.931 . S
H393 C375 0.931 . S
H394 C379 0.929 . S
H395 C381 0.930 . S
Co396 N400 2.148 . S
Co396 N406 2.128 . S
Co396 N416 2.194 . S
Co396 O421 2.351 . S
Co396 O422 2.155 . S
Co396 O423 2.096 . S
C397 N400 1.301 . S
C397 N401 1.328 . S
C397 H402 0.930 . S
C398 C399 1.333 . S
C398 N400 1.317 . S
C398 H403 0.930 . S
C399 C398 1.333 . S
C399 N401 1.350 . S
C399 H425 0.931 . S
N400 Co396 2.148 . S
N400 C397 1.301 . S
N400 C398 1.317 . S
N401 C397 1.328 . S
N401 C399 1.350 . S
H402 C397 0.930 . S
H403 C398 0.930 . S
C404 O405 1.224 . S
C404 O423 1.247 . S
O405 C404 1.224 . S
N406 Co396 2.128 . S
N406 C407 1.355 . S
N406 C409 1.311 . S
C407 N406 1.355 . S
C407 C408 1.363 . S
C407 H419 0.929 . S
C408 C407 1.363 . S
C408 N410 1.375 . S
C408 H426 0.931 . S
C409 N406 1.311 . S
C409 N410 1.347 . S
C409 H420 0.929 . S
N410 C408 1.375 . S
N410 C409 1.347 . S
C411 C414 1.365 . S
C411 N416 1.328 . S
C411 H417 0.929 . S
C412 C413 1.362 . S
C412 C415 1.378 . S
C412 H427 0.929 . S
C413 C412 1.362 . S
C413 C414 1.366 . S
C414 C411 1.365 . S
C414 C413 1.366 . S
C414 H428 0.930 . S
C415 C412 1.378 . S
C415 N416 1.315 . S
C415 H418 0.930 . S
N416 Co396 2.194 . S
N416 C411 1.328 . S
N416 C415 1.315 . S
H417 C411 0.929 . S
H418 C415 0.930 . S
H419 C407 0.929 . S
H420 C409 0.929 . S
O421 Co396 2.351 . S
O421 C424 1.244 . S
O422 Co396 2.155 . S
O422 C424 1.240 . S
O423 Co396 2.096 . S
O423 C404 1.247 . S
C424 O421 1.244 . S
C424 O422 1.240 . S
H425 C399 0.931 . S
H426 C408 0.931 . S
H427 C412 0.929 . S
H428 C414 0.930 . S
Co429 N433 2.148 . S
Co429 N439 2.128 . S
Co429 N449 2.194 . S
Co429 O454 2.351 . S
Co429 O455 2.155 . S
Co429 O456 2.096 . S
C430 N433 1.301 . S
C430 N434 1.328 . S
C430 H435 0.930 . S
C431 C432 1.333 . S
C431 N433 1.317 . S
C431 H436 0.930 . S
C432 C431 1.333 . S
C432 N434 1.350 . S
C432 H458 0.931 . S
N433 Co429 2.148 . S
N433 C430 1.301 . S
N433 C431 1.317 . S
N434 C430 1.328 . S
N434 C432 1.350 . S
H435 C430 0.930 . S
H436 C431 0.930 . S
C437 O438 1.224 . S
C437 O456 1.247 . S
O438 C437 1.224 . S
N439 Co429 2.128 . S
N439 C440 1.355 . S
N439 C442 1.311 1_565 S
C440 N439 1.355 . S
C440 C441 1.363 . S
C440 H452 0.929 . S
C441 C440 1.363 . S
C441 N443 1.375 1_565 S
C441 H459 0.931 . S
C442 N439 1.311 1_545 S
C442 N443 1.347 . S
C442 H453 0.929 . S
N443 C441 1.375 1_545 S
N443 C442 1.347 . S
C444 C447 1.365 . S
C444 N449 1.328 . S
C444 H450 0.929 . S
C445 C446 1.362 . S
C445 C448 1.378 . S
C445 H460 0.929 . S
C446 C445 1.362 . S
C446 C447 1.366 . S
C447 C444 1.365 . S
C447 C446 1.366 . S
C447 H461 0.930 . S
C448 C445 1.378 . S
C448 N449 1.315 . S
C448 H451 0.930 . S
N449 Co429 2.194 . S
N449 C444 1.328 . S
N449 C448 1.315 . S
H450 C444 0.929 . S
H451 C448 0.930 . S
H452 C440 0.929 . S
H453 C442 0.929 . S
O454 Co429 2.351 . S
O454 C457 1.244 . S
O455 Co429 2.155 . S
O455 C457 1.240 . S
O456 Co429 2.096 . S
O456 C437 1.247 . S
C457 O454 1.244 . S
C457 O455 1.240 . S
H458 C432 0.931 . S
H459 C441 0.931 . S
H460 C445 0.929 . S
H461 C447 0.930 . S
Co462 N466 2.148 . S
Co462 N472 2.128 . S
Co462 N482 2.194 . S
Co462 O487 2.351 . S
Co462 O488 2.155 . S
Co462 O489 2.096 . S
C463 N466 1.301 . S
C463 N467 1.328 . S
C463 H468 0.930 . S
C464 C465 1.333 . S
C464 N466 1.317 . S
C464 H469 0.930 . S
C465 C464 1.333 . S
C465 N467 1.350 . S
C465 H491 0.931 . S
N466 Co462 2.148 . S
N466 C463 1.301 . S
N466 C464 1.317 . S
N467 C463 1.328 . S
N467 C465 1.350 . S
H468 C463 0.930 . S
H469 C464 0.930 . S
C470 O471 1.224 . S
C470 O489 1.247 . S
O471 C470 1.224 . S
N472 Co462 2.128 . S
N472 C473 1.355 . S
N472 C475 1.311 . S
C473 N472 1.355 . S
C473 C474 1.363 . S
C473 H485 0.929 . S
C474 C473 1.363 . S
C474 N476 1.375 . S
C474 H492 0.931 . S
C475 N472 1.311 . S
C475 N476 1.347 . S
C475 H486 0.929 . S
N476 C474 1.375 . S
N476 C475 1.347 . S
C477 C480 1.365 . S
C477 N482 1.328 . S
C477 H483 0.929 . S
C478 C479 1.362 . S
C478 C481 1.378 . S
C478 H493 0.929 . S
C479 C478 1.362 . S
C479 C480 1.366 . S
C480 C477 1.365 . S
C480 C479 1.366 . S
C480 H494 0.930 . S
C481 C478 1.378 . S
C481 N482 1.315 . S
C481 H484 0.930 . S
N482 Co462 2.194 . S
N482 C477 1.328 . S
N482 C481 1.315 . S
H483 C477 0.929 . S
H484 C481 0.930 . S
H485 C473 0.929 . S
H486 C475 0.929 . S
O487 Co462 2.351 . S
O487 C490 1.244 . S
O488 Co462 2.155 . S
O488 C490 1.240 . S
O489 Co462 2.096 . S
O489 C470 1.247 . S
C490 O487 1.244 . S
C490 O488 1.240 . S
H491 C465 0.931 . S
H492 C474 0.931 . S
H493 C478 0.929 . S
H494 C480 0.930 . S
Co495 N499 2.148 . S
Co495 N505 2.128 . S
Co495 N515 2.194 . S
Co495 O520 2.351 . S
Co495 O521 2.155 . S
Co495 O522 2.096 . S
C496 N499 1.301 . S
C496 N500 1.328 1_455 S
C496 H501 0.930 . S
C497 C498 1.333 1_455 S
C497 N499 1.317 . S
C497 H502 0.930 . S
C498 C497 1.333 1_655 S
C498 N500 1.350 . S
C498 H524 0.931 . S
N499 Co495 2.148 . S
N499 C496 1.301 . S
N499 C497 1.317 . S
N500 C496 1.328 1_655 S
N500 C498 1.350 . S
H501 C496 0.930 . S
H502 C497 0.930 . S
C503 O504 1.224 . S
C503 O522 1.247 . S
O504 C503 1.224 . S
N505 Co495 2.128 . S
N505 C506 1.355 . S
N505 C508 1.311 1_545 S
C506 N505 1.355 . S
C506 C507 1.363 . S
C506 H518 0.929 . S
C507 C506 1.363 . S
C507 N509 1.375 1_545 S
C507 H525 0.931 . S
C508 N505 1.311 1_565 S
C508 N509 1.347 . S
C508 H519 0.929 . S
N509 C507 1.375 1_565 S
N509 C508 1.347 . S
C510 C513 1.365 . S
C510 N515 1.328 . S
C510 H516 0.929 . S
C511 C512 1.362 . S
C511 C514 1.378 . S
C511 H526 0.929 . S
C512 C511 1.362 . S
C512 C513 1.366 . S
C513 C510 1.365 . S
C513 C512 1.366 . S
C513 H527 0.930 . S
C514 C511 1.378 . S
C514 N515 1.315 . S
C514 H517 0.930 . S
N515 Co495 2.194 . S
N515 C510 1.328 . S
N515 C514 1.315 . S
H516 C510 0.929 . S
H517 C514 0.930 . S
H518 C506 0.929 . S
H519 C508 0.929 . S
O520 Co495 2.351 . S
O520 C523 1.244 . S
O521 Co495 2.155 . S
O521 C523 1.240 . S
O522 Co495 2.096 . S
O522 C503 1.247 . S
C523 O520 1.244 . S
C523 O521 1.240 . S
H524 C498 0.931 . S
H525 C507 0.931 . S
H526 C511 0.929 . S
H527 C513 0.930 . S
Co528 N532 2.148 . S
Co528 N538 2.128 . S
Co528 N548 2.194 . S
Co528 O553 2.351 . S
Co528 O554 2.155 . S
Co528 O555 2.096 . S
C529 N532 1.301 . S
C529 N533 1.328 . S
C529 H534 0.930 . S
C530 C531 1.333 . S
C530 N532 1.317 . S
C530 H535 0.930 . S
C531 C530 1.333 . S
C531 N533 1.350 . S
C531 H557 0.931 . S
N532 Co528 2.148 . S
N532 C529 1.301 . S
N532 C530 1.317 . S
N533 C529 1.328 . S
N533 C531 1.350 . S
H534 C529 0.930 . S
H535 C530 0.930 . S
C536 O537 1.224 . S
C536 O555 1.247 . S
O537 C536 1.224 . S
N538 Co528 2.128 . S
N538 C539 1.355 . S
N538 C541 1.311 . S
C539 N538 1.355 . S
C539 C540 1.363 . S
C539 H551 0.929 . S
C540 C539 1.363 . S
C540 N542 1.375 . S
C540 H558 0.931 . S
C541 N538 1.311 . S
C541 N542 1.347 . S
C541 H552 0.929 . S
N542 C540 1.375 . S
N542 C541 1.347 . S
C543 C546 1.365 . S
C543 N548 1.328 . S
C543 H549 0.929 . S
C544 C545 1.362 . S
C544 C547 1.378 . S
C544 H559 0.929 . S
C545 C544 1.362 . S
C545 C546 1.366 . S
C546 C543 1.365 . S
C546 C545 1.366 . S
C546 H560 0.930 . S
C547 C544 1.378 . S
C547 N548 1.315 . S
C547 H550 0.930 . S
N548 Co528 2.194 . S
N548 C543 1.328 . S
N548 C547 1.315 . S
H549 C543 0.929 . S
H550 C547 0.930 . S
H551 C539 0.929 . S
H552 C541 0.929 . S
O553 Co528 2.351 . S
O553 C556 1.244 . S
O554 Co528 2.155 . S
O554 C556 1.240 . S
O555 Co528 2.096 . S
O555 C536 1.247 . S
C556 O553 1.244 . S
C556 O554 1.240 . S
H557 C531 0.931 . S
H558 C540 0.931 . S
H559 C544 0.929 . S
H560 C546 0.930 . S
Co561 N565 2.148 . S
Co561 N571 2.128 . S
Co561 N581 2.194 . S
Co561 O586 2.351 . S
Co561 O587 2.155 . S
Co561 O588 2.096 . S
C562 N565 1.301 . S
C562 N566 1.328 . S
C562 H567 0.930 . S
C563 C564 1.333 . S
C563 N565 1.317 . S
C563 H568 0.930 . S
C564 C563 1.333 . S
C564 N566 1.350 . S
C564 H590 0.931 . S
N565 Co561 2.148 . S
N565 C562 1.301 . S
N565 C563 1.317 . S
N566 C562 1.328 . S
N566 C564 1.350 . S
H567 C562 0.930 . S
H568 C563 0.930 . S
C569 O570 1.224 . S
C569 O588 1.247 . S
O570 C569 1.224 . S
N571 Co561 2.128 . S
N571 C572 1.355 . S
N571 C574 1.311 . S
C572 N571 1.355 . S
C572 C573 1.363 . S
C572 H584 0.929 . S
C573 C572 1.363 . S
C573 N575 1.375 . S
C573 H591 0.931 . S
C574 N571 1.311 . S
C574 N575 1.347 . S
C574 H585 0.929 . S
N575 C573 1.375 . S
N575 C574 1.347 . S
C576 C579 1.365 . S
C576 N581 1.328 . S
C576 H582 0.929 . S
C577 C578 1.362 . S
C577 C580 1.378 . S
C577 H592 0.929 . S
C578 C577 1.362 . S
C578 C579 1.366 . S
C579 C576 1.365 . S
C579 C578 1.366 . S
C579 H593 0.930 . S
C580 C577 1.378 . S
C580 N581 1.315 . S
C580 H583 0.930 . S
N581 Co561 2.194 . S
N581 C576 1.328 . S
N581 C580 1.315 . S
H582 C576 0.929 . S
H583 C580 0.930 . S
H584 C572 0.929 . S
H585 C574 0.929 . S
O586 Co561 2.351 . S
O586 C589 1.244 . S
O587 Co561 2.155 . S
O587 C589 1.240 . S
O588 Co561 2.096 . S
O588 C569 1.247 . S
C589 O586 1.244 . S
C589 O587 1.240 . S
H590 C564 0.931 . S
H591 C573 0.931 . S
H592 C577 0.929 . S
H593 C579 0.930 . S
Co594 N598 2.148 . S
Co594 N604 2.128 . S
Co594 N614 2.194 . S
Co594 O619 2.351 . S
Co594 O620 2.155 . S
Co594 O621 2.096 . S
C595 N598 1.301 . S
C595 N599 1.328 . S
C595 H600 0.930 . S
C596 C597 1.333 . S
C596 N598 1.317 . S
C596 H601 0.930 . S
C597 C596 1.333 . S
C597 N599 1.350 . S
C597 H623 0.931 . S
N598 Co594 2.148 . S
N598 C595 1.301 . S
N598 C596 1.317 . S
N599 C595 1.328 . S
N599 C597 1.350 . S
H600 C595 0.930 . S
H601 C596 0.930 . S
C602 O603 1.224 . S
C602 O621 1.247 . S
O603 C602 1.224 . S
N604 Co594 2.128 . S
N604 C605 1.355 . S
N604 C607 1.311 . S
C605 N604 1.355 . S
C605 C606 1.363 . S
C605 H617 0.929 . S
C606 C605 1.363 . S
C606 N608 1.375 . S
C606 H624 0.931 . S
C607 N604 1.311 . S
C607 N608 1.347 . S
C607 H618 0.929 . S
N608 C606 1.375 . S
N608 C607 1.347 . S
C609 C612 1.365 . S
C609 N614 1.328 . S
C609 H615 0.929 . S
C610 C611 1.362 . S
C610 C613 1.378 . S
C610 H625 0.929 . S
C611 C610 1.362 . S
C611 C612 1.366 . S
C612 C609 1.365 . S
C612 C611 1.366 . S
C612 H626 0.930 . S
C613 C610 1.378 . S
C613 N614 1.315 . S
C613 H616 0.930 . S
N614 Co594 2.194 . S
N614 C609 1.328 . S
N614 C613 1.315 . S
H615 C609 0.929 . S
H616 C613 0.930 . S
H617 C605 0.929 . S
H618 C607 0.929 . S
O619 Co594 2.351 . S
O619 C622 1.244 . S
O620 Co594 2.155 . S
O620 C622 1.240 . S
O621 Co594 2.096 . S
O621 C602 1.247 . S
C622 O619 1.244 . S
C622 O620 1.240 . S
H623 C597 0.931 . S
H624 C606 0.931 . S
H625 C610 0.929 . S
H626 C612 0.930 . S
Co627 N631 2.148 . S
Co627 N637 2.128 . S
Co627 N647 2.194 . S
Co627 O652 2.351 . S
Co627 O653 2.155 . S
Co627 O654 2.096 . S
C628 N631 1.301 . S
C628 N632 1.328 1_455 S
C628 H633 0.930 . S
C629 C630 1.333 1_455 S
C629 N631 1.317 . S
C629 H634 0.930 . S
C630 C629 1.333 1_655 S
C630 N632 1.350 . S
C630 H656 0.931 . S
N631 Co627 2.148 . S
N631 C628 1.301 . S
N631 C629 1.317 . S
N632 C628 1.328 1_655 S
N632 C630 1.350 . S
H633 C628 0.930 . S
H634 C629 0.930 . S
C635 O636 1.224 . S
C635 O654 1.247 . S
O636 C635 1.224 . S
N637 Co627 2.128 . S
N637 C638 1.355 . S
N637 C640 1.311 . S
C638 N637 1.355 . S
C638 C639 1.363 . S
C638 H650 0.929 . S
C639 C638 1.363 . S
C639 N641 1.375 . S
C639 H657 0.931 . S
C640 N637 1.311 . S
C640 N641 1.347 . S
C640 H651 0.929 . S
N641 C639 1.375 . S
N641 C640 1.347 . S
C642 C645 1.365 . S
C642 N647 1.328 . S
C642 H648 0.929 . S
C643 C644 1.362 . S
C643 C646 1.378 . S
C643 H658 0.929 . S
C644 C643 1.362 . S
C644 C645 1.366 . S
C645 C642 1.365 . S
C645 C644 1.366 . S
C645 H659 0.930 . S
C646 C643 1.378 . S
C646 N647 1.315 . S
C646 H649 0.930 . S
N647 Co627 2.194 . S
N647 C642 1.328 . S
N647 C646 1.315 . S
H648 C642 0.929 . S
H649 C646 0.930 . S
H650 C638 0.929 . S
H651 C640 0.929 . S
O652 Co627 2.351 . S
O652 C655 1.244 . S
O653 Co627 2.155 . S
O653 C655 1.240 . S
O654 Co627 2.096 . S
O654 C635 1.247 . S
C655 O652 1.244 . S
C655 O653 1.240 . S
H656 C630 0.931 . S
H657 C639 0.931 . S
H658 C643 0.929 . S
H659 C645 0.930 . S
Co660 N664 2.148 . S
Co660 N670 2.128 . S
Co660 N680 2.194 . S
Co660 O685 2.351 . S
Co660 O686 2.155 . S
Co660 O687 2.096 . S
C661 N664 1.301 . S
C661 N665 1.328 . S
C661 H666 0.930 . S
C662 C663 1.333 . S
C662 N664 1.317 . S
C662 H667 0.930 . S
C663 C662 1.333 . S
C663 N665 1.350 . S
C663 H689 0.931 . S
N664 Co660 2.148 . S
N664 C661 1.301 . S
N664 C662 1.317 . S
N665 C661 1.328 . S
N665 C663 1.350 . S
H666 C661 0.930 . S
H667 C662 0.930 . S
C668 O669 1.224 . S
C668 O687 1.247 . S
O669 C668 1.224 . S
N670 Co660 2.128 . S
N670 C671 1.355 . S
N670 C673 1.311 . S
C671 N670 1.355 . S
C671 C672 1.363 . S
C671 H683 0.929 . S
C672 C671 1.363 . S
C672 N674 1.375 . S
C672 H690 0.931 . S
C673 N670 1.311 . S
C673 N674 1.347 . S
C673 H684 0.929 . S
N674 C672 1.375 . S
N674 C673 1.347 . S
C675 C678 1.365 . S
C675 N680 1.328 . S
C675 H681 0.929 . S
C676 C677 1.362 . S
C676 C679 1.378 . S
C676 H691 0.929 . S
C677 C676 1.362 . S
C677 C678 1.366 . S
C678 C675 1.365 . S
C678 C677 1.366 . S
C678 H692 0.930 . S
C679 C676 1.378 . S
C679 N680 1.315 . S
C679 H682 0.930 . S
N680 Co660 2.194 . S
N680 C675 1.328 . S
N680 C679 1.315 . S
H681 C675 0.929 . S
H682 C679 0.930 . S
H683 C671 0.929 . S
H684 C673 0.929 . S
O685 Co660 2.351 . S
O685 C688 1.244 . S
O686 Co660 2.155 . S
O686 C688 1.240 . S
O687 Co660 2.096 . S
O687 C668 1.247 . S
C688 O685 1.244 . S
C688 O686 1.240 . S
H689 C663 0.931 . S
H690 C672 0.931 . S
H691 C676 0.929 . S
H692 C678 0.930 . S
Co693 N697 2.148 . S
Co693 N703 2.128 . S
Co693 N713 2.194 . S
Co693 O718 2.351 . S
Co693 O719 2.155 . S
Co693 O720 2.096 . S
C694 N697 1.301 . S
C694 N698 1.328 1_455 S
C694 H699 0.930 . S
C695 C696 1.333 1_455 S
C695 N697 1.317 . S
C695 H700 0.930 . S
C696 C695 1.333 1_655 S
C696 N698 1.350 . S
C696 H722 0.931 . S
N697 Co693 2.148 . S
N697 C694 1.301 . S
N697 C695 1.317 . S
N698 C694 1.328 1_655 S
N698 C696 1.350 . S
H699 C694 0.930 . S
H700 C695 0.930 . S
C701 O702 1.224 . S
C701 O720 1.247 . S
O702 C701 1.224 . S
N703 Co693 2.128 . S
N703 C704 1.355 . S
N703 C706 1.311 . S
C704 N703 1.355 . S
C704 C705 1.363 . S
C704 H716 0.929 . S
C705 C704 1.363 . S
C705 N707 1.375 . S
C705 H723 0.931 . S
C706 N703 1.311 . S
C706 N707 1.347 . S
C706 H717 0.929 . S
N707 C705 1.375 . S
N707 C706 1.347 . S
C708 C711 1.365 . S
C708 N713 1.328 . S
C708 H714 0.929 . S
C709 C710 1.362 . S
C709 C712 1.378 . S
C709 H724 0.929 . S
C710 C709 1.362 . S
C710 C711 1.366 . S
C711 C708 1.365 . S
C711 C710 1.366 . S
C711 H725 0.930 . S
C712 C709 1.378 . S
C712 N713 1.315 . S
C712 H715 0.930 . S
N713 Co693 2.194 . S
N713 C708 1.328 . S
N713 C712 1.315 . S
H714 C708 0.929 . S
H715 C712 0.930 . S
H716 C704 0.929 . S
H717 C706 0.929 . S
O718 Co693 2.351 . S
O718 C721 1.244 . S
O719 Co693 2.155 . S
O719 C721 1.240 . S
O720 Co693 2.096 . S
O720 C701 1.247 . S
C721 O718 1.244 . S
C721 O719 1.240 . S
H722 C696 0.931 . S
H723 C705 0.931 . S
H724 C709 0.929 . S
H725 C711 0.930 . S
Co726 N730 2.148 . S
Co726 N736 2.128 . S
Co726 N746 2.194 . S
Co726 O751 2.351 . S
Co726 O752 2.155 . S
Co726 O753 2.096 . S
C727 N730 1.301 . S
C727 N731 1.328 . S
C727 H732 0.930 . S
C728 C729 1.333 . S
C728 N730 1.317 . S
C728 H733 0.930 . S
C729 C728 1.333 . S
C729 N731 1.350 . S
C729 H755 0.931 . S
N730 Co726 2.148 . S
N730 C727 1.301 . S
N730 C728 1.317 . S
N731 C727 1.328 . S
N731 C729 1.350 . S
H732 C727 0.930 . S
H733 C728 0.930 . S
C734 O735 1.224 . S
C734 O753 1.247 . S
O735 C734 1.224 . S
N736 Co726 2.128 . S
N736 C737 1.355 . S
N736 C739 1.311 . S
C737 N736 1.355 . S
C737 C738 1.363 . S
C737 H749 0.929 . S
C738 C737 1.363 . S
C738 N740 1.375 . S
C738 H756 0.931 . S
C739 N736 1.311 . S
C739 N740 1.347 . S
C739 H750 0.929 . S
N740 C738 1.375 . S
N740 C739 1.347 . S
C741 C744 1.365 . S
C741 N746 1.328 . S
C741 H747 0.929 . S
C742 C743 1.362 . S
C742 C745 1.378 . S
C742 H757 0.929 . S
C743 C742 1.362 . S
C743 C744 1.366 . S
C744 C741 1.365 . S
C744 C743 1.366 . S
C744 H758 0.930 . S
C745 C742 1.378 . S
C745 N746 1.315 . S
C745 H748 0.930 . S
N746 Co726 2.194 . S
N746 C741 1.328 . S
N746 C745 1.315 . S
H747 C741 0.929 . S
H748 C745 0.930 . S
H749 C737 0.929 . S
H750 C739 0.929 . S
O751 Co726 2.351 . S
O751 C754 1.244 . S
O752 Co726 2.155 . S
O752 C754 1.240 . S
O753 Co726 2.096 . S
O753 C734 1.247 . S
C754 O751 1.244 . S
C754 O752 1.240 . S
H755 C729 0.931 . S
H756 C738 0.931 . S
H757 C742 0.929 . S
H758 C744 0.930 . S
Co759 N763 2.148 . S
Co759 N769 2.128 . S
Co759 N779 2.194 . S
Co759 O784 2.351 . S
Co759 O785 2.155 . S
Co759 O786 2.096 . S
C760 N763 1.301 . S
C760 N764 1.328 . S
C760 H765 0.930 . S
C761 C762 1.333 . S
C761 N763 1.317 . S
C761 H766 0.930 . S
C762 C761 1.333 . S
C762 N764 1.350 . S
C762 H788 0.931 . S
N763 Co759 2.148 . S
N763 C760 1.301 . S
N763 C761 1.317 . S
N764 C760 1.328 . S
N764 C762 1.350 . S
H765 C760 0.930 . S
H766 C761 0.930 . S
C767 O768 1.224 . S
C767 O786 1.247 . S
O768 C767 1.224 . S
N769 Co759 2.128 . S
N769 C770 1.355 . S
N769 C772 1.311 . S
C770 N769 1.355 . S
C770 C771 1.363 . S
C770 H782 0.929 . S
C771 C770 1.363 . S
C771 N773 1.375 . S
C771 H789 0.931 . S
C772 N769 1.311 . S
C772 N773 1.347 . S
C772 H783 0.929 . S
N773 C771 1.375 . S
N773 C772 1.347 . S
C774 C777 1.365 . S
C774 N779 1.328 . S
C774 H780 0.929 . S
C775 C776 1.362 . S
C775 C778 1.378 . S
C775 H790 0.929 . S
C776 C775 1.362 . S
C776 C777 1.366 . S
C777 C774 1.365 . S
C777 C776 1.366 . S
C777 H791 0.930 . S
C778 C775 1.378 . S
C778 N779 1.315 . S
C778 H781 0.930 . S
N779 Co759 2.194 . S
N779 C774 1.328 . S
N779 C778 1.315 . S
H780 C774 0.929 . S
H781 C778 0.930 . S
H782 C770 0.929 . S
H783 C772 0.929 . S
O784 Co759 2.351 . S
O784 C787 1.244 . S
O785 Co759 2.155 . S
O785 C787 1.240 . S
O786 Co759 2.096 . S
O786 C767 1.247 . S
C787 O784 1.244 . S
C787 O785 1.240 . S
H788 C762 0.931 . S
H789 C771 0.931 . S
H790 C775 0.929 . S
H791 C777 0.930 . S
Co792 N796 2.148 . S
Co792 N802 2.128 . S
Co792 N812 2.194 . S
Co792 O817 2.351 . S
Co792 O818 2.155 . S
Co792 O819 2.096 . S
C793 N796 1.301 . S
C793 N797 1.328 . S
C793 H798 0.930 . S
C794 C795 1.333 . S
C794 N796 1.317 . S
C794 H799 0.930 . S
C795 C794 1.333 . S
C795 N797 1.350 . S
C795 H821 0.931 . S
N796 Co792 2.148 . S
N796 C793 1.301 . S
N796 C794 1.317 . S
N797 C793 1.328 . S
N797 C795 1.350 . S
H798 C793 0.930 . S
H799 C794 0.930 . S
C800 O801 1.224 . S
C800 O819 1.247 . S
O801 C800 1.224 . S
N802 Co792 2.128 . S
N802 C803 1.355 . S
N802 C805 1.311 . S
C803 N802 1.355 . S
C803 C804 1.363 . S
C803 H815 0.929 . S
C804 C803 1.363 . S
C804 N806 1.375 . S
C804 H822 0.931 . S
C805 N802 1.311 . S
C805 N806 1.347 . S
C805 H816 0.929 . S
N806 C804 1.375 . S
N806 C805 1.347 . S
C807 C810 1.365 . S
C807 N812 1.328 . S
C807 H813 0.929 . S
C808 C809 1.362 . S
C808 C811 1.378 . S
C808 H823 0.929 . S
C809 C808 1.362 . S
C809 C810 1.366 . S
C810 C807 1.365 . S
C810 C809 1.366 . S
C810 H824 0.930 . S
C811 C808 1.378 . S
C811 N812 1.315 . S
C811 H814 0.930 . S
N812 Co792 2.194 . S
N812 C807 1.328 . S
N812 C811 1.315 . S
H813 C807 0.929 . S
H814 C811 0.930 . S
H815 C803 0.929 . S
H816 C805 0.929 . S
O817 Co792 2.351 . S
O817 C820 1.244 . S
O818 Co792 2.155 . S
O818 C820 1.240 . S
O819 Co792 2.096 . S
O819 C800 1.247 . S
C820 O817 1.244 . S
C820 O818 1.240 . S
H821 C795 0.931 . S
H822 C804 0.931 . S
H823 C808 0.929 . S
H824 C810 0.930 . S
Co825 N829 2.148 . S
Co825 N835 2.128 . S
Co825 N845 2.194 . S
Co825 O850 2.351 . S
Co825 O851 2.155 . S
Co825 O852 2.096 . S
C826 N829 1.301 . S
C826 N830 1.328 . S
C826 H831 0.930 . S
C827 C828 1.333 . S
C827 N829 1.317 . S
C827 H832 0.930 . S
C828 C827 1.333 . S
C828 N830 1.350 . S
C828 H854 0.931 . S
N829 Co825 2.148 . S
N829 C826 1.301 . S
N829 C827 1.317 . S
N830 C826 1.328 . S
N830 C828 1.350 . S
H831 C826 0.930 . S
H832 C827 0.930 . S
C833 O834 1.224 . S
C833 O852 1.247 . S
O834 C833 1.224 . S
N835 Co825 2.128 . S
N835 C836 1.355 . S
N835 C838 1.311 . S
C836 N835 1.355 . S
C836 C837 1.363 . S
C836 H848 0.929 . S
C837 C836 1.363 . S
C837 N839 1.375 . S
C837 H855 0.931 . S
C838 N835 1.311 . S
C838 N839 1.347 . S
C838 H849 0.929 . S
N839 C837 1.375 . S
N839 C838 1.347 . S
C840 C843 1.365 . S
C840 N845 1.328 . S
C840 H846 0.929 . S
C841 C842 1.362 . S
C841 C844 1.378 . S
C841 H856 0.929 . S
C842 C841 1.362 . S
C842 C843 1.366 . S
C843 C840 1.365 . S
C843 C842 1.366 . S
C843 H857 0.930 . S
C844 C841 1.378 . S
C844 N845 1.315 . S
C844 H847 0.930 . S
N845 Co825 2.194 . S
N845 C840 1.328 . S
N845 C844 1.315 . S
H846 C840 0.929 . S
H847 C844 0.930 . S
H848 C836 0.929 . S
H849 C838 0.929 . S
O850 Co825 2.351 . S
O850 C853 1.244 . S
O851 Co825 2.155 . S
O851 C853 1.240 . S
O852 Co825 2.096 . S
O852 C833 1.247 . S
C853 O850 1.244 . S
C853 O851 1.240 . S
H854 C828 0.931 . S
H855 C837 0.931 . S
H856 C841 0.929 . S
H857 C843 0.930 . S
Co858 N862 2.148 . S
Co858 N868 2.128 . S
Co858 N878 2.194 . S
Co858 O883 2.351 . S
Co858 O884 2.155 . S
Co858 O885 2.096 . S
C859 N862 1.301 . S
C859 N863 1.328 . S
C859 H864 0.930 . S
C860 C861 1.333 . S
C860 N862 1.317 . S
C860 H865 0.930 . S
C861 C860 1.333 . S
C861 N863 1.350 . S
C861 H887 0.931 . S
N862 Co858 2.148 . S
N862 C859 1.301 . S
N862 C860 1.317 . S
N863 C859 1.328 . S
N863 C861 1.350 . S
H864 C859 0.930 . S
H865 C860 0.930 . S
C866 O867 1.224 . S
C866 O885 1.247 . S
O867 C866 1.224 . S
N868 Co858 2.128 . S
N868 C869 1.355 . S
N868 C871 1.311 . S
C869 N868 1.355 . S
C869 C870 1.363 . S
C869 H881 0.929 . S
C870 C869 1.363 . S
C870 N872 1.375 . S
C870 H888 0.931 . S
C871 N868 1.311 . S
C871 N872 1.347 . S
C871 H882 0.929 . S
N872 C870 1.375 . S
N872 C871 1.347 . S
C873 C876 1.365 . S
C873 N878 1.328 . S
C873 H879 0.929 . S
C874 C875 1.362 . S
C874 C877 1.378 . S
C874 H889 0.929 . S
C875 C874 1.362 . S
C875 C876 1.366 . S
C876 C873 1.365 . S
C876 C875 1.366 . S
C876 H890 0.930 . S
C877 C874 1.378 . S
C877 N878 1.315 . S
C877 H880 0.930 . S
N878 Co858 2.194 . S
N878 C873 1.328 . S
N878 C877 1.315 . S
H879 C873 0.929 . S
H880 C877 0.930 . S
H881 C869 0.929 . S
H882 C871 0.929 . S
O883 Co858 2.351 . S
O883 C886 1.244 . S
O884 Co858 2.155 . S
O884 C886 1.240 . S
O885 Co858 2.096 . S
O885 C866 1.247 . S
C886 O883 1.244 . S
C886 O884 1.240 . S
H887 C861 0.931 . S
H888 C870 0.931 . S
H889 C874 0.929 . S
H890 C876 0.930 . S
Co891 N895 2.148 . S
Co891 N901 2.128 . S
Co891 N911 2.194 . S
Co891 O916 2.351 . S
Co891 O917 2.155 . S
Co891 O918 2.096 . S
C892 N895 1.301 . S
C892 N896 1.328 1_655 S
C892 H897 0.930 . S
C893 C894 1.333 1_655 S
C893 N895 1.317 . S
C893 H898 0.930 . S
C894 C893 1.333 1_455 S
C894 N896 1.350 . S
C894 H920 0.931 . S
N895 Co891 2.148 . S
N895 C892 1.301 . S
N895 C893 1.317 . S
N896 C892 1.328 1_455 S
N896 C894 1.350 . S
H897 C892 0.930 . S
H898 C893 0.930 . S
C899 O900 1.224 . S
C899 O918 1.247 . S
O900 C899 1.224 . S
N901 Co891 2.128 . S
N901 C902 1.355 . S
N901 C904 1.311 . S
C902 N901 1.355 . S
C902 C903 1.363 . S
C902 H914 0.929 . S
C903 C902 1.363 . S
C903 N905 1.375 . S
C903 H921 0.931 . S
C904 N901 1.311 . S
C904 N905 1.347 . S
C904 H915 0.929 . S
N905 C903 1.375 . S
N905 C904 1.347 . S
C906 C909 1.365 . S
C906 N911 1.328 . S
C906 H912 0.929 . S
C907 C908 1.362 . S
C907 C910 1.378 . S
C907 H922 0.929 . S
C908 C907 1.362 . S
C908 C909 1.366 . S
C909 C906 1.365 . S
C909 C908 1.366 . S
C909 H923 0.930 . S
C910 C907 1.378 . S
C910 N911 1.315 . S
C910 H913 0.930 . S
N911 Co891 2.194 . S
N911 C906 1.328 . S
N911 C910 1.315 . S
H912 C906 0.929 . S
H913 C910 0.930 . S
H914 C902 0.929 . S
H915 C904 0.929 . S
O916 Co891 2.351 . S
O916 C919 1.244 . S
O917 Co891 2.155 . S
O917 C919 1.240 . S
O918 Co891 2.096 . S
O918 C899 1.247 . S
C919 O916 1.244 . S
C919 O917 1.240 . S
H920 C894 0.931 . S
H921 C903 0.931 . S
H922 C907 0.929 . S
H923 C909 0.930 . S
Co924 N928 2.148 . S
Co924 N934 2.128 . S
Co924 N944 2.194 . S
Co924 O949 2.351 . S
Co924 O950 2.155 . S
Co924 O951 2.096 . S
C925 N928 1.301 . S
C925 N929 1.328 . S
C925 H930 0.930 . S
C926 C927 1.333 . S
C926 N928 1.317 . S
C926 H931 0.930 . S
C927 C926 1.333 . S
C927 N929 1.350 . S
C927 H953 0.931 . S
N928 Co924 2.148 . S
N928 C925 1.301 . S
N928 C926 1.317 . S
N929 C925 1.328 . S
N929 C927 1.350 . S
H930 C925 0.930 . S
H931 C926 0.930 . S
C932 O933 1.224 . S
C932 O951 1.247 . S
O933 C932 1.224 . S
N934 Co924 2.128 . S
N934 C935 1.355 . S
N934 C937 1.311 . S
C935 N934 1.355 . S
C935 C936 1.363 . S
C935 H947 0.929 . S
C936 C935 1.363 . S
C936 N938 1.375 . S
C936 H954 0.931 . S
C937 N934 1.311 . S
C937 N938 1.347 . S
C937 H948 0.929 . S
N938 C936 1.375 . S
N938 C937 1.347 . S
C939 C942 1.365 . S
C939 N944 1.328 . S
C939 H945 0.929 . S
C940 C941 1.362 . S
C940 C943 1.378 . S
C940 H955 0.929 . S
C941 C940 1.362 . S
C941 C942 1.366 . S
C942 C939 1.365 . S
C942 C941 1.366 . S
C942 H956 0.930 . S
C943 C940 1.378 . S
C943 N944 1.315 . S
C943 H946 0.930 . S
N944 Co924 2.194 . S
N944 C939 1.328 . S
N944 C943 1.315 . S
H945 C939 0.929 . S
H946 C943 0.930 . S
H947 C935 0.929 . S
H948 C937 0.929 . S
O949 Co924 2.351 . S
O949 C952 1.244 . S
O950 Co924 2.155 . S
O950 C952 1.240 . S
O951 Co924 2.096 . S
O951 C932 1.247 . S
C952 O949 1.244 . S
C952 O950 1.240 . S
H953 C927 0.931 . S
H954 C936 0.931 . S
H955 C940 0.929 . S
H956 C942 0.930 . S
Co957 N961 2.148 . S
Co957 N967 2.128 . S
Co957 N977 2.194 . S
Co957 O982 2.351 . S
Co957 O983 2.155 . S
Co957 O984 2.096 . S
C958 N961 1.301 . S
C958 N962 1.328 1_655 S
C958 H963 0.930 . S
C959 C960 1.333 1_655 S
C959 N961 1.317 . S
C959 H964 0.930 . S
C960 C959 1.333 1_455 S
C960 N962 1.350 . S
C960 H986 0.931 . S
N961 Co957 2.148 . S
N961 C958 1.301 . S
N961 C959 1.317 . S
N962 C958 1.328 1_455 S
N962 C960 1.350 . S
H963 C958 0.930 . S
H964 C959 0.930 . S
C965 O966 1.224 . S
C965 O984 1.247 . S
O966 C965 1.224 . S
N967 Co957 2.128 . S
N967 C968 1.355 . S
N967 C970 1.311 . S
C968 N967 1.355 . S
C968 C969 1.363 . S
C968 H980 0.929 . S
C969 C968 1.363 . S
C969 N971 1.375 . S
C969 H987 0.931 . S
C970 N967 1.311 . S
C970 N971 1.347 . S
C970 H981 0.929 . S
N971 C969 1.375 . S
N971 C970 1.347 . S
C972 C975 1.365 . S
C972 N977 1.328 . S
C972 H978 0.929 . S
C973 C974 1.362 . S
C973 C976 1.378 . S
C973 H988 0.929 . S
C974 C973 1.362 . S
C974 C975 1.366 . S
C975 C972 1.365 . S
C975 C974 1.366 . S
C975 H989 0.930 . S
C976 C973 1.378 . S
C976 N977 1.315 . S
C976 H979 0.930 . S
N977 Co957 2.194 . S
N977 C972 1.328 . S
N977 C976 1.315 . S
H978 C972 0.929 . S
H979 C976 0.930 . S
H980 C968 0.929 . S
H981 C970 0.929 . S
O982 Co957 2.351 . S
O982 C985 1.244 . S
O983 Co957 2.155 . S
O983 C985 1.240 . S
O984 Co957 2.096 . S
O984 C965 1.247 . S
C985 O982 1.244 . S
C985 O983 1.240 . S
H986 C960 0.931 . S
H987 C969 0.931 . S
H988 C973 0.929 . S
H989 C975 0.930 . S
Co990 N994 2.148 . S
Co990 N1000 2.128 . S
Co990 N1010 2.194 . S
Co990 O1015 2.351 . S
Co990 O1016 2.155 . S
Co990 O1017 2.096 . S
C991 N994 1.301 . S
C991 N995 1.328 . S
C991 H996 0.930 . S
C992 C993 1.333 . S
C992 N994 1.317 . S
C992 H997 0.930 . S
C993 C992 1.333 . S
C993 N995 1.350 . S
C993 H1019 0.931 . S
N994 Co990 2.148 . S
N994 C991 1.301 . S
N994 C992 1.317 . S
N995 C991 1.328 . S
N995 C993 1.350 . S
H996 C991 0.930 . S
H997 C992 0.930 . S
C998 O999 1.224 . S
C998 O1017 1.247 . S
O999 C998 1.224 . S
N1000 Co990 2.128 . S
N1000 C1001 1.355 . S
N1000 C1003 1.311 . S
C1001 N1000 1.355 . S
C1001 C1002 1.363 . S
C1001 H1013 0.929 . S
C1002 C1001 1.363 . S
C1002 N1004 1.375 . S
C1002 H1020 0.931 . S
C1003 N1000 1.311 . S
C1003 N1004 1.347 . S
C1003 H1014 0.929 . S
N1004 C1002 1.375 . S
N1004 C1003 1.347 . S
C1005 C1008 1.365 . S
C1005 N1010 1.328 . S
C1005 H1011 0.929 . S
C1006 C1007 1.362 . S
C1006 C1009 1.378 . S
C1006 H1021 0.929 . S
C1007 C1006 1.362 . S
C1007 C1008 1.366 . S
C1008 C1005 1.365 . S
C1008 C1007 1.366 . S
C1008 H1022 0.930 . S
C1009 C1006 1.378 . S
C1009 N1010 1.315 . S
C1009 H1012 0.930 . S
N1010 Co990 2.194 . S
N1010 C1005 1.328 . S
N1010 C1009 1.315 . S
H1011 C1005 0.929 . S
H1012 C1009 0.930 . S
H1013 C1001 0.929 . S
H1014 C1003 0.929 . S
O1015 Co990 2.351 . S
O1015 C1018 1.244 . S
O1016 Co990 2.155 . S
O1016 C1018 1.240 . S
O1017 Co990 2.096 . S
O1017 C998 1.247 . S
C1018 O1015 1.244 . S
C1018 O1016 1.240 . S
H1019 C993 0.931 . S
H1020 C1002 0.931 . S
H1021 C1006 0.929 . S
H1022 C1008 0.930 . S
Co1023 N1027 2.148 . S
Co1023 N1033 2.128 . S
Co1023 N1043 2.194 . S
Co1023 O1048 2.351 . S
Co1023 O1049 2.155 . S
Co1023 O1050 2.096 . S
C1024 N1027 1.301 . S
C1024 N1028 1.328 . S
C1024 H1029 0.930 . S
C1025 C1026 1.333 . S
C1025 N1027 1.317 . S
C1025 H1030 0.930 . S
C1026 C1025 1.333 . S
C1026 N1028 1.350 . S
C1026 H1052 0.931 . S
N1027 Co1023 2.148 . S
N1027 C1024 1.301 . S
N1027 C1025 1.317 . S
N1028 C1024 1.328 . S
N1028 C1026 1.350 . S
H1029 C1024 0.930 . S
H1030 C1025 0.930 . S
C1031 O1032 1.224 . S
C1031 O1050 1.247 . S
O1032 C1031 1.224 . S
N1033 Co1023 2.128 . S
N1033 C1034 1.355 . S
N1033 C1036 1.311 . S
C1034 N1033 1.355 . S
C1034 C1035 1.363 . S
C1034 H1046 0.929 . S
C1035 C1034 1.363 . S
C1035 N1037 1.375 . S
C1035 H1053 0.931 . S
C1036 N1033 1.311 . S
C1036 N1037 1.347 . S
C1036 H1047 0.929 . S
N1037 C1035 1.375 . S
N1037 C1036 1.347 . S
C1038 C1041 1.365 . S
C1038 N1043 1.328 . S
C1038 H1044 0.929 . S
C1039 C1040 1.362 . S
C1039 C1042 1.378 . S
C1039 H1054 0.929 . S
C1040 C1039 1.362 . S
C1040 C1041 1.366 . S
C1041 C1038 1.365 . S
C1041 C1040 1.366 . S
C1041 H1055 0.930 . S
C1042 C1039 1.378 . S
C1042 N1043 1.315 . S
C1042 H1045 0.930 . S
N1043 Co1023 2.194 . S
N1043 C1038 1.328 . S
N1043 C1042 1.315 . S
H1044 C1038 0.929 . S
H1045 C1042 0.930 . S
H1046 C1034 0.929 . S
H1047 C1036 0.929 . S
O1048 Co1023 2.351 . S
O1048 C1051 1.244 . S
O1049 Co1023 2.155 . S
O1049 C1051 1.240 . S
O1050 Co1023 2.096 . S
O1050 C1031 1.247 . S
C1051 O1048 1.244 . S
C1051 O1049 1.240 . S
H1052 C1026 0.931 . S
H1053 C1035 0.931 . S
H1054 C1039 0.929 . S
H1055 C1041 0.930 . S
C1056 C1057 1.369 . S
C1056 C1058 1.419 . S
C1056 H1060 0.930 . S
C1057 C1056 1.369 . S
C1057 C1066 1.429 . S
C1058 C1056 1.419 . S
C1058 C1059 1.363 . S
C1058 H1061 0.929 . S
C1059 C1058 1.363 . S
C1059 C1065 1.428 . S
H1060 C1056 0.930 . S
H1061 C1058 0.929 . S
S1062 N1063 1.613 . S
S1062 N1064 1.610 . S
N1063 S1062 1.613 . S
N1063 C1066 1.350 . S
N1064 S1062 1.610 . S
N1064 C1065 1.351 . S
C1065 C1059 1.428 . S
C1065 N1064 1.351 . S
C1065 C1066 1.434 . S
C1066 C1057 1.429 . S
C1066 N1063 1.350 . S
C1066 C1065 1.434 . S
C1067 C1068 1.369 . S
C1067 C1069 1.419 1_565 S
C1067 H1071 0.930 . S
C1068 C1067 1.369 . S
C1068 C1077 1.429 1_455 S
C1069 C1067 1.419 1_545 S
C1069 C1070 1.363 1_455 S
C1069 H1072 0.929 . S
C1070 C1069 1.363 1_655 S
C1070 C1076 1.428 . S
H1071 C1067 0.930 . S
H1072 C1069 0.929 . S
S1073 N1074 1.613 . S
S1073 N1075 1.610 1_565 S
N1074 S1073 1.613 . S
N1074 C1077 1.350 . S
N1075 S1073 1.610 1_545 S
N1075 C1076 1.351 . S
C1076 C1070 1.428 . S
C1076 N1075 1.351 . S
C1076 C1077 1.434 1_545 S
C1077 C1068 1.429 1_655 S
C1077 N1074 1.350 . S
C1077 C1076 1.434 1_565 S
C1078 C1079 1.369 . S
C1078 C1080 1.419 . S
C1078 H1082 0.930 . S
C1079 C1078 1.369 . S
C1079 C1088 1.429 . S
C1080 C1078 1.419 . S
C1080 C1081 1.363 . S
C1080 H1083 0.929 . S
C1081 C1080 1.363 . S
C1081 C1087 1.428 . S
H1082 C1078 0.930 . S
H1083 C1080 0.929 . S
S1084 N1085 1.613 . S
S1084 N1086 1.610 . S
N1085 S1084 1.613 . S
N1085 C1088 1.350 . S
N1086 S1084 1.610 . S
N1086 C1087 1.351 . S
C1087 C1081 1.428 . S
C1087 N1086 1.351 . S
C1087 C1088 1.434 . S
C1088 C1079 1.429 . S
C1088 N1085 1.350 . S
C1088 C1087 1.434 . S
C1089 C1090 1.369 1_565 S
C1089 C1091 1.419 1_554 S
C1089 H1093 0.931 . S
C1090 C1089 1.369 1_545 S
C1090 C1099 1.429 . S
C1091 C1089 1.419 1_556 S
C1091 C1092 1.363 . S
C1091 H1094 0.929 . S
C1092 C1091 1.363 . S
C1092 C1098 1.434 1_565 S
H1093 C1089 0.931 . S
H1094 C1091 0.929 . S
S1095 N1096 1.613 . S
S1095 N1097 1.610 . S
N1096 S1095 1.613 . S
N1096 C1099 1.350 . S
N1097 S1095 1.610 . S
N1097 C1098 1.350 1_554 S
C1098 C1092 1.434 1_545 S
C1098 N1097 1.350 1_556 S
C1098 C1099 1.429 1_556 S
C1099 C1090 1.429 . S
C1099 N1096 1.350 . S
C1099 C1098 1.429 1_554 S
C1100 C1101 1.369 . S
C1100 C1102 1.419 . S
C1100 H1104 0.930 . S
C1101 C1100 1.369 . S
C1101 C1110 1.429 . S
C1102 C1100 1.419 . S
C1102 C1103 1.363 . S
C1102 H1105 0.929 . S
C1103 C1102 1.363 . S
C1103 C1109 1.428 . S
H1104 C1100 0.930 . S
H1105 C1102 0.929 . S
S1106 N1107 1.613 . S
S1106 N1108 1.610 . S
N1107 S1106 1.613 . S
N1107 C1110 1.350 . S
N1108 S1106 1.610 . S
N1108 C1109 1.351 . S
C1109 C1103 1.428 . S
C1109 N1108 1.351 . S
C1109 C1110 1.434 . S
C1110 C1101 1.429 . S
C1110 N1107 1.350 . S
C1110 C1109 1.434 . S
C1111 C1112 1.369 . S
C1111 C1113 1.419 . S
C1111 H1115 0.930 . S
C1112 C1111 1.369 . S
C1112 C1121 1.429 1_565 S
C1113 C1111 1.419 . S
C1113 C1114 1.363 1_565 S
C1113 H1116 0.929 . S
C1114 C1113 1.363 1_545 S
C1114 C1120 1.428 . S
H1115 C1111 0.930 . S
H1116 C1113 0.929 . S
S1117 N1118 1.613 . S
S1117 N1119 1.610 . S
N1118 S1117 1.613 . S
N1118 C1121 1.350 . S
N1119 S1117 1.610 . S
N1119 C1120 1.351 . S
C1120 C1114 1.428 . S
C1120 N1119 1.351 . S
C1120 C1121 1.434 . S
C1121 C1112 1.429 1_545 S
C1121 N1118 1.350 . S
C1121 C1120 1.434 . S
C1122 C1123 1.369 . S
C1122 C1124 1.419 . S
C1122 H1126 0.930 . S
C1123 C1122 1.369 . S
C1123 C1132 1.429 . S
C1124 C1122 1.419 . S
C1124 C1125 1.363 . S
C1124 H1127 0.929 . S
C1125 C1124 1.363 . S
C1125 C1131 1.428 . S
H1126 C1122 0.930 . S
H1127 C1124 0.929 . S
S1128 N1129 1.613 . S
S1128 N1130 1.610 . S
N1129 S1128 1.613 . S
N1129 C1132 1.350 . S
N1130 S1128 1.610 . S
N1130 C1131 1.351 . S
C1131 C1125 1.428 . S
C1131 N1130 1.351 . S
C1131 C1132 1.434 . S
C1132 C1123 1.429 . S
C1132 N1129 1.350 . S
C1132 C1131 1.434 . S
C1133 C1134 1.369 1_665 S
C1133 C1135 1.419 . S
C1133 H1137 0.930 . S
C1134 C1133 1.369 1_445 S
C1134 C1143 1.429 1_556 S
C1135 C1133 1.419 . S
C1135 C1136 1.363 1_556 S
C1135 H1138 0.929 . S
C1136 C1135 1.363 1_554 S
C1136 C1142 1.428 1_665 S
H1137 C1133 0.930 . S
H1138 C1135 0.929 . S
S1139 N1140 1.613 . S
S1139 N1141 1.610 . S
N1140 S1139 1.613 . S
N1140 C1143 1.350 . S
N1141 S1139 1.610 . S
N1141 C1142 1.351 . S
C1142 C1136 1.428 1_445 S
C1142 N1141 1.351 . S
C1142 C1143 1.434 . S
C1143 C1134 1.429 1_554 S
C1143 N1140 1.350 . S
C1143 C1142 1.434 . S
C1144 C1145 1.369 . S
C1144 C1146 1.419 . S
C1144 H1148 0.930 . S
C1145 C1144 1.369 . S
C1145 C1154 1.429 . S
C1146 C1144 1.419 . S
C1146 C1147 1.363 . S
C1146 H1149 0.929 . S
C1147 C1146 1.363 . S
C1147 C1153 1.428 . S
H1148 C1144 0.930 . S
H1149 C1146 0.929 . S
S1150 N1151 1.613 . S
S1150 N1152 1.610 . S
N1151 S1150 1.613 . S
N1151 C1154 1.350 . S
N1152 S1150 1.610 . S
N1152 C1153 1.351 . S
C1153 C1147 1.428 . S
C1153 N1152 1.351 . S
C1153 C1154 1.434 . S
C1154 C1145 1.429 . S
C1154 N1151 1.350 . S
C1154 C1153 1.434 . S
C1155 C1156 1.369 . S
C1155 C1157 1.419 . S
C1155 H1159 0.930 . S
C1156 C1155 1.369 . S
C1156 C1165 1.429 . S
C1157 C1155 1.419 . S
C1157 C1158 1.363 . S
C1157 H1160 0.929 . S
C1158 C1157 1.363 . S
C1158 C1164 1.428 . S
H1159 C1155 0.930 . S
H1160 C1157 0.929 . S
S1161 N1162 1.613 . S
S1161 N1163 1.610 . S
N1162 S1161 1.613 . S
N1162 C1165 1.350 . S
N1163 S1161 1.610 . S
N1163 C1164 1.351 . S
C1164 C1158 1.428 . S
C1164 N1163 1.351 . S
C1164 C1165 1.434 . S
C1165 C1156 1.429 . S
C1165 N1162 1.350 . S
C1165 C1164 1.434 . S
C1166 C1167 1.369 . S
C1166 C1168 1.419 . S
C1166 H1170 0.930 . S
C1167 C1166 1.369 . S
C1167 C1176 1.429 . S
C1168 C1166 1.419 . S
C1168 C1169 1.363 . S
C1168 H1171 0.929 . S
C1169 C1168 1.363 . S
C1169 C1175 1.428 . S
H1170 C1166 0.930 . S
H1171 C1168 0.929 . S
S1172 N1173 1.613 . S
S1172 N1174 1.610 . S
N1173 S1172 1.613 . S
N1173 C1176 1.350 . S
N1174 S1172 1.610 . S
N1174 C1175 1.351 . S
C1175 C1169 1.428 . S
C1175 N1174 1.351 . S
C1175 C1176 1.434 . S
C1176 C1167 1.429 . S
C1176 N1173 1.350 . S
C1176 C1175 1.434 . S
C1177 C1178 1.369 . S
C1177 C1179 1.419 . S
C1177 H1181 0.930 . S
C1178 C1177 1.369 . S
C1178 C1187 1.429 . S
C1179 C1177 1.419 . S
C1179 C1180 1.363 . S
C1179 H1182 0.929 . S
C1180 C1179 1.363 . S
C1180 C1186 1.428 . S
H1181 C1177 0.930 . S
H1182 C1179 0.929 . S
S1183 N1184 1.613 . S
S1183 N1185 1.610 . S
N1184 S1183 1.613 . S
N1184 C1187 1.350 . S
N1185 S1183 1.610 . S
N1185 C1186 1.351 . S
C1186 C1180 1.428 . S
C1186 N1185 1.351 . S
C1186 C1187 1.434 . S
C1187 C1178 1.429 . S
C1187 N1184 1.350 . S
C1187 C1186 1.434 . S
C1188 C1189 1.379 . S
C1188 C1190 1.410 1_556 S
C1188 H1192 0.929 1_556 S
C1189 C1188 1.379 . S
C1189 C1198 1.429 . S
C1190 C1188 1.410 1_554 S
C1190 C1191 1.363 . S
C1190 H1193 0.929 . S
C1191 C1190 1.363 . S
C1191 C1197 1.401 1_554 S
H1192 C1188 0.929 1_554 S
H1193 C1190 0.929 . S
S1194 N1195 1.613 . S
S1194 N1196 1.610 . S
N1195 S1194 1.613 . S
N1195 C1198 1.350 . S
N1196 S1194 1.610 . S
N1196 C1197 1.356 . S
C1197 C1191 1.401 1_556 S
C1197 N1196 1.356 . S
C1197 C1198 1.460 . S
C1198 C1189 1.429 . S
C1198 N1195 1.350 . S
C1198 C1197 1.460 . S
C1199 C1200 1.357 1_455 S
C1199 C1201 1.430 . S
C1199 H1203 0.931 . S
C1200 C1199 1.357 1_655 S
C1200 C1209 1.429 . S
C1201 C1199 1.430 . S
C1201 C1202 1.363 . S
C1201 H1204 0.929 . S
C1202 C1201 1.363 . S
C1202 C1208 1.408 1_455 S
H1203 C1199 0.931 . S
H1204 C1201 0.929 . S
S1205 N1206 1.613 . S
S1205 N1207 1.610 . S
N1206 S1205 1.613 . S
N1206 C1209 1.350 . S
N1207 S1205 1.610 . S
N1207 C1208 1.354 . S
C1208 C1202 1.408 1_655 S
C1208 N1207 1.354 . S
C1208 C1209 1.454 . S
C1209 C1200 1.429 . S
C1209 N1206 1.350 . S
C1209 C1208 1.454 . S
C1210 C1211 1.369 1_655 S
C1210 C1212 1.419 . S
C1210 H1214 0.930 . S
C1211 C1210 1.369 1_455 S
C1211 C1220 1.429 1_554 S
C1212 C1210 1.419 . S
C1212 C1213 1.363 1_554 S
C1212 H1215 0.929 . S
C1213 C1212 1.363 1_556 S
C1213 C1219 1.428 1_655 S
H1214 C1210 0.930 . S
H1215 C1212 0.929 . S
S1216 N1217 1.613 . S
S1216 N1218 1.610 . S
N1217 S1216 1.613 . S
N1217 C1220 1.350 . S
N1218 S1216 1.610 . S
N1218 C1219 1.351 . S
C1219 C1213 1.428 1_455 S
C1219 N1218 1.351 . S
C1219 C1220 1.434 . S
C1220 C1211 1.429 1_556 S
C1220 N1217 1.350 . S
C1220 C1219 1.434 . S
C1221 C1222 1.369 . S
C1221 C1223 1.419 . S
C1221 H1225 0.930 . S
C1222 C1221 1.369 . S
C1222 C1231 1.429 . S
C1223 C1221 1.419 . S
C1223 C1224 1.363 . S
C1223 H1226 0.929 . S
C1224 C1223 1.363 . S
C1224 C1230 1.428 . S
H1225 C1221 0.930 . S
H1226 C1223 0.929 . S
S1227 N1228 1.613 . S
S1227 N1229 1.610 . S
N1228 S1227 1.613 . S
N1228 C1231 1.350 . S
N1229 S1227 1.610 . S
N1229 C1230 1.351 . S
C1230 C1224 1.428 . S
C1230 N1229 1.351 . S
C1230 C1231 1.434 . S
C1231 C1222 1.429 . S
C1231 N1228 1.350 . S
C1231 C1230 1.434 . S
C1232 C1233 1.369 . S
C1232 C1234 1.419 . S
C1232 H1236 0.930 . S
C1233 C1232 1.369 . S
C1233 C1242 1.429 . S
C1234 C1232 1.419 . S
C1234 C1235 1.363 . S
C1234 H1237 0.929 . S
C1235 C1234 1.363 . S
C1235 C1241 1.428 . S
H1236 C1232 0.930 . S
H1237 C1234 0.929 . S
S1238 N1239 1.613 . S
S1238 N1240 1.610 . S
N1239 S1238 1.613 . S
N1239 C1242 1.350 . S
N1240 S1238 1.610 . S
N1240 C1241 1.351 . S
C1241 C1235 1.428 . S
C1241 N1240 1.351 . S
C1241 C1242 1.434 . S
C1242 C1233 1.429 . S
C1242 N1239 1.350 . S
C1242 C1241 1.434 . S
C1243 C1244 1.369 . S
C1243 C1245 1.419 . S
C1243 H1247 0.930 . S
C1244 C1243 1.369 . S
C1244 C1253 1.429 . S
C1245 C1243 1.419 . S
C1245 C1246 1.363 . S
C1245 H1248 0.929 . S
C1246 C1245 1.363 . S
C1246 C1252 1.428 . S
H1247 C1243 0.930 . S
H1248 C1245 0.929 . S
S1249 N1250 1.613 . S
S1249 N1251 1.610 . S
N1250 S1249 1.613 . S
N1250 C1253 1.350 . S
N1251 S1249 1.610 . S
N1251 C1252 1.351 . S
C1252 C1246 1.428 . S
C1252 N1251 1.351 . S
C1252 C1253 1.434 . S
C1253 C1244 1.429 . S
C1253 N1250 1.350 . S
C1253 C1252 1.434 . S
C1254 C1255 1.369 . S
C1254 C1256 1.419 . S
C1254 H1258 0.930 . S
C1255 C1254 1.369 . S
C1255 C1264 1.429 . S
C1256 C1254 1.419 . S
C1256 C1257 1.363 . S
C1256 H1259 0.929 . S
C1257 C1256 1.363 . S
C1257 C1263 1.428 . S
H1258 C1254 0.930 . S
H1259 C1256 0.929 . S
S1260 N1261 1.613 . S
S1260 N1262 1.610 . S
N1261 S1260 1.613 . S
N1261 C1264 1.350 . S
N1262 S1260 1.610 . S
N1262 C1263 1.351 . S
C1263 C1257 1.428 . S
C1263 N1262 1.351 . S
C1263 C1264 1.434 . S
C1264 C1255 1.429 . S
C1264 N1261 1.350 . S
C1264 C1263 1.434 . S
C1265 C1266 1.369 . S
C1265 C1267 1.419 . S
C1265 H1269 0.930 . S
C1266 C1265 1.369 . S
C1266 C1275 1.429 . S
C1267 C1265 1.419 . S
C1267 C1268 1.363 . S
C1267 H1270 0.929 . S
C1268 C1267 1.363 . S
C1268 C1274 1.428 . S
H1269 C1265 0.930 . S
H1270 C1267 0.929 . S
S1271 N1272 1.613 . S
S1271 N1273 1.610 . S
N1272 S1271 1.613 . S
N1272 C1275 1.350 . S
N1273 S1271 1.610 . S
N1273 C1274 1.351 . S
C1274 C1268 1.428 . S
C1274 N1273 1.351 . S
C1274 C1275 1.434 . S
C1275 C1266 1.429 . S
C1275 N1272 1.350 . S
C1275 C1274 1.434 . S
C1276 C1277 1.369 . S
C1276 C1278 1.419 . S
C1276 H1280 0.930 . S
C1277 C1276 1.369 . S
C1277 C1286 1.429 . S
C1278 C1276 1.419 . S
C1278 C1279 1.363 . S
C1278 H1281 0.929 . S
C1279 C1278 1.363 . S
C1279 C1285 1.428 . S
H1280 C1276 0.930 . S
H1281 C1278 0.929 . S
S1282 N1283 1.613 . S
S1282 N1284 1.610 . S
N1283 S1282 1.613 . S
N1283 C1286 1.350 . S
N1284 S1282 1.610 . S
N1284 C1285 1.351 . S
C1285 C1279 1.428 . S
C1285 N1284 1.351 . S
C1285 C1286 1.434 . S
C1286 C1277 1.429 . S
C1286 N1283 1.350 . S
C1286 C1285 1.434 . S
C1287 C1288 1.369 . S
C1287 C1289 1.419 . S
C1287 H1291 0.930 . S
C1288 C1287 1.369 . S
C1288 C1297 1.429 . S
C1289 C1287 1.419 . S
C1289 C1290 1.363 . S
C1289 H1292 0.929 . S
C1290 C1289 1.363 . S
C1290 C1296 1.428 . S
H1291 C1287 0.930 . S
H1292 C1289 0.929 . S
S1293 N1294 1.613 . S
S1293 N1295 1.610 . S
N1294 S1293 1.613 . S
N1294 C1297 1.350 . S
N1295 S1293 1.610 . S
N1295 C1296 1.351 . S
C1296 C1290 1.428 . S
C1296 N1295 1.351 . S
C1296 C1297 1.434 . S
C1297 C1288 1.429 . S
C1297 N1294 1.350 . S
C1297 C1296 1.434 . S
C1298 C1299 1.369 . S
C1298 C1300 1.419 . S
C1298 H1302 0.930 . S
C1299 C1298 1.369 . S
C1299 C1308 1.429 . S
C1300 C1298 1.419 . S
C1300 C1301 1.363 . S
C1300 H1303 0.929 . S
C1301 C1300 1.363 . S
C1301 C1307 1.428 . S
H1302 C1298 0.930 . S
H1303 C1300 0.929 . S
S1304 N1305 1.613 . S
S1304 N1306 1.610 . S
N1305 S1304 1.613 . S
N1305 C1308 1.350 . S
N1306 S1304 1.610 . S
N1306 C1307 1.351 . S
C1307 C1301 1.428 . S
C1307 N1306 1.351 . S
C1307 C1308 1.434 . S
C1308 C1299 1.429 . S
C1308 N1305 1.350 . S
C1308 C1307 1.434 . S
C1309 C1310 1.369 . S
C1309 C1311 1.419 . S
C1309 H1313 0.930 . S
C1310 C1309 1.369 . S
C1310 C1319 1.429 . S
C1311 C1309 1.419 . S
C1311 C1312 1.363 . S
C1311 H1314 0.929 . S
C1312 C1311 1.363 . S
C1312 C1318 1.428 . S
H1313 C1309 0.930 . S
H1314 C1311 0.929 . S
S1315 N1316 1.613 . S
S1315 N1317 1.610 . S
N1316 S1315 1.613 . S
N1316 C1319 1.350 . S
N1317 S1315 1.610 . S
N1317 C1318 1.351 . S
C1318 C1312 1.428 . S
C1318 N1317 1.351 . S
C1318 C1319 1.434 . S
C1319 C1310 1.429 . S
C1319 N1316 1.350 . S
C1319 C1318 1.434 . S
C1320 C1321 1.369 . S
C1320 C1322 1.419 . S
C1320 H1324 0.930 . S
C1321 C1320 1.369 . S
C1321 C1330 1.429 . S
C1322 C1320 1.419 . S
C1322 C1323 1.363 . S
C1322 H1325 0.929 . S
C1323 C1322 1.363 . S
C1323 C1329 1.428 . S
H1324 C1320 0.930 . S
H1325 C1322 0.929 . S
S1326 N1327 1.613 . S
S1326 N1328 1.610 . S
N1327 S1326 1.613 . S
N1327 C1330 1.350 . S
N1328 S1326 1.610 . S
N1328 C1329 1.351 . S
C1329 C1323 1.428 . S
C1329 N1328 1.351 . S
C1329 C1330 1.434 . S
C1330 C1321 1.429 . S
C1330 N1327 1.350 . S
C1330 C1329 1.434 . S
C1331 C1332 1.369 . S
C1331 C1333 1.419 . S
C1331 H1335 0.930 . S
C1332 C1331 1.369 . S
C1332 C1341 1.429 . S
C1333 C1331 1.419 . S
C1333 C1334 1.363 . S
C1333 H1336 0.929 . S
C1334 C1333 1.363 . S
C1334 C1340 1.428 . S
H1335 C1331 0.930 . S
H1336 C1333 0.929 . S
S1337 N1338 1.613 . S
S1337 N1339 1.610 . S
N1338 S1337 1.613 . S
N1338 C1341 1.350 . S
N1339 S1337 1.610 . S
N1339 C1340 1.351 . S
C1340 C1334 1.428 . S
C1340 N1339 1.351 . S
C1340 C1341 1.434 . S
C1341 C1332 1.429 . S
C1341 N1338 1.350 . S
C1341 C1340 1.434 . S
C1342 C1343 1.369 . S
C1342 C1344 1.419 . S
C1342 H1346 0.930 . S
C1343 C1342 1.369 . S
C1343 C1352 1.429 . S
C1344 C1342 1.419 . S
C1344 C1345 1.363 . S
C1344 H1347 0.929 . S
C1345 C1344 1.363 . S
C1345 C1351 1.428 . S
H1346 C1342 0.930 . S
H1347 C1344 0.929 . S
S1348 N1349 1.613 . S
S1348 N1350 1.610 . S
N1349 S1348 1.613 . S
N1349 C1352 1.350 . S
N1350 S1348 1.610 . S
N1350 C1351 1.351 . S
C1351 C1345 1.428 . S
C1351 N1350 1.351 . S
C1351 C1352 1.434 . S
C1352 C1343 1.429 . S
C1352 N1349 1.350 . S
C1352 C1351 1.434 . S
C1353 C1354 1.369 . S
C1353 C1355 1.419 . S
C1353 H1357 0.930 . S
C1354 C1353 1.369 . S
C1354 C1363 1.429 . S
C1355 C1353 1.419 . S
C1355 C1356 1.363 . S
C1355 H1358 0.929 . S
C1356 C1355 1.363 . S
C1356 C1362 1.428 . S
H1357 C1353 0.930 . S
H1358 C1355 0.929 . S
S1359 N1360 1.613 . S
S1359 N1361 1.610 . S
N1360 S1359 1.613 . S
N1360 C1363 1.350 . S
N1361 S1359 1.610 . S
N1361 C1362 1.351 . S
C1362 C1356 1.428 . S
C1362 N1361 1.351 . S
C1362 C1363 1.434 . S
C1363 C1354 1.429 . S
C1363 N1360 1.350 . S
C1363 C1362 1.434 . S
C1364 C1365 1.369 . S
C1364 C1366 1.419 . S
C1364 H1368 0.930 . S
C1365 C1364 1.369 . S
C1365 C1374 1.429 . S
C1366 C1364 1.419 . S
C1366 C1367 1.363 . S
C1366 H1369 0.929 . S
C1367 C1366 1.363 . S
C1367 C1373 1.428 . S
H1368 C1364 0.930 . S
H1369 C1366 0.929 . S
S1370 N1371 1.613 . S
S1370 N1372 1.610 . S
N1371 S1370 1.613 . S
N1371 C1374 1.350 . S
N1372 S1370 1.610 . S
N1372 C1373 1.351 . S
C1373 C1367 1.428 . S
C1373 N1372 1.351 . S
C1373 C1374 1.434 . S
C1374 C1365 1.429 . S
C1374 N1371 1.350 . S
C1374 C1373 1.434 . S
C1375 C1376 1.369 . S
C1375 C1377 1.419 . S
C1375 H1379 0.930 . S
C1376 C1375 1.369 . S
C1376 C1385 1.429 . S
C1377 C1375 1.419 . S
C1377 C1378 1.363 . S
C1377 H1380 0.929 . S
C1378 C1377 1.363 . S
C1378 C1384 1.428 . S
H1379 C1375 0.930 . S
H1380 C1377 0.929 . S
S1381 N1382 1.613 . S
S1381 N1383 1.610 . S
N1382 S1381 1.613 . S
N1382 C1385 1.350 . S
N1383 S1381 1.610 . S
N1383 C1384 1.351 . S
C1384 C1378 1.428 . S
C1384 N1383 1.351 . S
C1384 C1385 1.434 . S
C1385 C1376 1.429 . S
C1385 N1382 1.350 . S
C1385 C1384 1.434 . S
C1386 C1387 1.369 . S
C1386 C1388 1.419 . S
C1386 H1390 0.930 . S
C1387 C1386 1.369 . S
C1387 C1396 1.429 . S
C1388 C1386 1.419 . S
C1388 C1389 1.363 . S
C1388 H1391 0.929 . S
C1389 C1388 1.363 . S
C1389 C1395 1.428 . S
H1390 C1386 0.930 . S
H1391 C1388 0.929 . S
S1392 N1393 1.613 . S
S1392 N1394 1.610 . S
N1393 S1392 1.613 . S
N1393 C1396 1.350 . S
N1394 S1392 1.610 . S
N1394 C1395 1.351 . S
C1395 C1389 1.428 . S
C1395 N1394 1.351 . S
C1395 C1396 1.434 . S
C1396 C1387 1.429 . S
C1396 N1393 1.350 . S
C1396 C1395 1.434 . S
C1397 C1398 1.369 . S
C1397 C1399 1.419 . S
C1397 H1401 0.930 . S
C1398 C1397 1.369 . S
C1398 C1407 1.429 . S
C1399 C1397 1.419 . S
C1399 C1400 1.363 . S
C1399 H1402 0.929 . S
C1400 C1399 1.363 . S
C1400 C1406 1.428 . S
H1401 C1397 0.930 . S
H1402 C1399 0.929 . S
S1403 N1404 1.613 . S
S1403 N1405 1.610 . S
N1404 S1403 1.613 . S
N1404 C1407 1.350 . S
N1405 S1403 1.610 . S
N1405 C1406 1.351 . S
C1406 C1400 1.428 . S
C1406 N1405 1.351 . S
C1406 C1407 1.434 . S
C1407 C1398 1.429 . S
C1407 N1404 1.350 . S
C1407 C1406 1.434 . S
C1408 C1409 1.369 . S
C1408 C1410 1.419 . S
C1408 H1412 0.930 . S
C1409 C1408 1.369 . S
C1409 C1418 1.429 . S
C1410 C1408 1.419 . S
C1410 C1411 1.363 . S
C1410 H1413 0.929 . S
C1411 C1410 1.363 . S
C1411 C1417 1.428 . S
H1412 C1408 0.930 . S
H1413 C1410 0.929 . S
S1414 N1415 1.613 . S
S1414 N1416 1.610 . S
N1415 S1414 1.613 . S
N1415 C1418 1.350 . S
N1416 S1414 1.610 . S
N1416 C1417 1.351 . S
C1417 C1411 1.428 . S
C1417 N1416 1.351 . S
C1417 C1418 1.434 . S
C1418 C1409 1.429 . S
C1418 N1415 1.350 . S
C1418 C1417 1.434 . S
C1419 C1420 1.369 . S
C1419 C1421 1.419 . S
C1419 H1423 0.930 . S
C1420 C1419 1.369 . S
C1420 C1429 1.429 . S
C1421 C1419 1.419 . S
C1421 C1422 1.363 . S
C1421 H1424 0.929 . S
C1422 C1421 1.363 . S
C1422 C1428 1.428 . S
H1423 C1419 0.930 . S
H1424 C1421 0.929 . S
S1425 N1426 1.613 . S
S1425 N1427 1.610 . S
N1426 S1425 1.613 . S
N1426 C1429 1.350 . S
N1427 S1425 1.610 . S
N1427 C1428 1.351 . S
C1428 C1422 1.428 . S
C1428 N1427 1.351 . S
C1428 C1429 1.434 . S
C1429 C1420 1.429 . S
C1429 N1426 1.350 . S
C1429 C1428 1.434 . S
C1430 C1431 1.369 . S
C1430 C1432 1.419 . S
C1430 H1434 0.930 . S
C1431 C1430 1.369 . S
C1431 C1440 1.429 . S
C1432 C1430 1.419 . S
C1432 C1433 1.363 . S
C1432 H1435 0.929 . S
C1433 C1432 1.363 . S
C1433 C1439 1.428 . S
H1434 C1430 0.930 . S
H1435 C1432 0.929 . S
S1436 N1437 1.613 . S
S1436 N1438 1.610 . S
N1437 S1436 1.613 . S
N1437 C1440 1.350 . S
N1438 S1436 1.610 . S
N1438 C1439 1.351 . S
C1439 C1433 1.428 . S
C1439 N1438 1.351 . S
C1439 C1440 1.434 . S
C1440 C1431 1.429 . S
C1440 N1437 1.350 . S
C1440 C1439 1.434 . S
C1441 C1442 1.369 . S
C1441 C1443 1.419 . S
C1441 H1445 0.930 . S
C1442 C1441 1.369 . S
C1442 C1451 1.429 . S
C1443 C1441 1.419 . S
C1443 C1444 1.363 . S
C1443 H1446 0.929 . S
C1444 C1443 1.363 . S
C1444 C1450 1.428 . S
H1445 C1441 0.930 . S
H1446 C1443 0.929 . S
S1447 N1448 1.613 . S
S1447 N1449 1.610 . S
N1448 S1447 1.613 . S
N1448 C1451 1.350 . S
N1449 S1447 1.610 . S
N1449 C1450 1.351 . S
C1450 C1444 1.428 . S
C1450 N1449 1.351 . S
C1450 C1451 1.434 . S
C1451 C1442 1.429 . S
C1451 N1448 1.350 . S
C1451 C1450 1.434 . S
C1452 C1453 1.369 . S
C1452 C1454 1.419 . S
C1452 H1456 0.930 . S
C1453 C1452 1.369 . S
C1453 C1462 1.429 . S
C1454 C1452 1.419 . S
C1454 C1455 1.363 . S
C1454 H1457 0.929 . S
C1455 C1454 1.363 . S
C1455 C1461 1.428 . S
H1456 C1452 0.930 . S
H1457 C1454 0.929 . S
S1458 N1459 1.613 . S
S1458 N1460 1.610 . S
N1459 S1458 1.613 . S
N1459 C1462 1.350 . S
N1460 S1458 1.610 . S
N1460 C1461 1.351 . S
C1461 C1455 1.428 . S
C1461 N1460 1.351 . S
C1461 C1462 1.434 . S
C1462 C1453 1.429 . S
C1462 N1459 1.350 . S
C1462 C1461 1.434 . S
C1463 C1464 1.369 . S
C1463 C1465 1.419 . S
C1463 H1467 0.930 . S
C1464 C1463 1.369 . S
C1464 C1473 1.429 . S
C1465 C1463 1.419 . S
C1465 C1466 1.363 . S
C1465 H1468 0.929 . S
C1466 C1465 1.363 . S
C1466 C1472 1.428 . S
H1467 C1463 0.930 . S
H1468 C1465 0.929 . S
S1469 N1470 1.613 . S
S1469 N1471 1.610 . S
N1470 S1469 1.613 . S
N1470 C1473 1.350 . S
N1471 S1469 1.610 . S
N1471 C1472 1.351 . S
C1472 C1466 1.428 . S
C1472 N1471 1.351 . S
C1472 C1473 1.434 . S
C1473 C1464 1.429 . S
C1473 N1470 1.350 . S
C1473 C1472 1.434 . S
C1474 C1475 1.369 . S
C1474 C1476 1.419 . S
C1474 H1478 0.930 . S
C1475 C1474 1.369 . S
C1475 C1484 1.429 . S
C1476 C1474 1.419 . S
C1476 C1477 1.363 . S
C1476 H1479 0.929 . S
C1477 C1476 1.363 . S
C1477 C1483 1.428 . S
H1478 C1474 0.930 . S
H1479 C1476 0.929 . S
S1480 N1481 1.613 . S
S1480 N1482 1.610 . S
N1481 S1480 1.613 . S
N1481 C1484 1.350 . S
N1482 S1480 1.610 . S
N1482 C1483 1.351 . S
C1483 C1477 1.428 . S
C1483 N1482 1.351 . S
C1483 C1484 1.434 . S
C1484 C1475 1.429 . S
C1484 N1481 1.350 . S
C1484 C1483 1.434 . S
C1485 C1486 1.369 . S
C1485 C1487 1.419 . S
C1485 H1489 0.930 . S
C1486 C1485 1.369 . S
C1486 C1495 1.429 . S
C1487 C1485 1.419 . S
C1487 C1488 1.363 . S
C1487 H1490 0.929 . S
C1488 C1487 1.363 . S
C1488 C1494 1.428 . S
H1489 C1485 0.930 . S
H1490 C1487 0.929 . S
S1491 N1492 1.613 . S
S1491 N1493 1.610 . S
N1492 S1491 1.613 . S
N1492 C1495 1.350 . S
N1493 S1491 1.610 . S
N1493 C1494 1.351 . S
C1494 C1488 1.428 . S
C1494 N1493 1.351 . S
C1494 C1495 1.434 . S
C1495 C1486 1.429 . S
C1495 N1492 1.350 . S
C1495 C1494 1.434 . S
C1496 C1497 1.369 . S
C1496 C1498 1.419 . S
C1496 H1500 0.930 . S
C1497 C1496 1.369 . S
C1497 C1506 1.429 . S
C1498 C1496 1.419 . S
C1498 C1499 1.363 . S
C1498 H1501 0.929 . S
C1499 C1498 1.363 . S
C1499 C1505 1.428 . S
H1500 C1496 0.930 . S
H1501 C1498 0.929 . S
S1502 N1503 1.613 . S
S1502 N1504 1.610 . S
N1503 S1502 1.613 . S
N1503 C1506 1.350 . S
N1504 S1502 1.610 . S
N1504 C1505 1.351 . S
C1505 C1499 1.428 . S
C1505 N1504 1.351 . S
C1505 C1506 1.434 . S
C1506 C1497 1.429 . S
C1506 N1503 1.350 . S
C1506 C1505 1.434 . S
C1507 C1508 1.369 . S
C1507 C1509 1.419 . S
C1507 H1511 0.930 . S
C1508 C1507 1.369 . S
C1508 C1517 1.429 . S
C1509 C1507 1.419 . S
C1509 C1510 1.363 . S
C1509 H1512 0.929 . S
C1510 C1509 1.363 . S
C1510 C1516 1.428 . S
H1511 C1507 0.930 . S
H1512 C1509 0.929 . S
S1513 N1514 1.613 . S
S1513 N1515 1.610 . S
N1514 S1513 1.613 . S
N1514 C1517 1.350 . S
N1515 S1513 1.610 . S
N1515 C1516 1.351 . S
C1516 C1510 1.428 . S
C1516 N1515 1.351 . S
C1516 C1517 1.434 . S
C1517 C1508 1.429 . S
C1517 N1514 1.350 . S
C1517 C1516 1.434 . S
C1518 C1519 1.369 . S
C1518 C1520 1.419 . S
C1518 H1522 0.930 . S
C1519 C1518 1.369 . S
C1519 C1528 1.429 . S
C1520 C1518 1.419 . S
C1520 C1521 1.363 . S
C1520 H1523 0.929 . S
C1521 C1520 1.363 . S
C1521 C1527 1.428 . S
H1522 C1518 0.930 . S
H1523 C1520 0.929 . S
S1524 N1525 1.613 . S
S1524 N1526 1.610 . S
N1525 S1524 1.613 . S
N1525 C1528 1.350 . S
N1526 S1524 1.610 . S
N1526 C1527 1.351 . S
C1527 C1521 1.428 . S
C1527 N1526 1.351 . S
C1527 C1528 1.434 . S
C1528 C1519 1.429 . S
C1528 N1525 1.350 . S
C1528 C1527 1.434 . S
C1529 C1530 1.369 . S
C1529 C1531 1.419 . S
C1529 H1533 0.930 . S
C1530 C1529 1.369 . S
C1530 C1539 1.429 . S
C1531 C1529 1.419 . S
C1531 C1532 1.363 . S
C1531 H1534 0.929 . S
C1532 C1531 1.363 . S
C1532 C1538 1.428 . S
H1533 C1529 0.930 . S
H1534 C1531 0.929 . S
S1535 N1536 1.613 . S
S1535 N1537 1.610 . S
N1536 S1535 1.613 . S
N1536 C1539 1.350 . S
N1537 S1535 1.610 . S
N1537 C1538 1.351 . S
C1538 C1532 1.428 . S
C1538 N1537 1.351 . S
C1538 C1539 1.434 . S
C1539 C1530 1.429 . S
C1539 N1536 1.350 . S
C1539 C1538 1.434 . S
C1540 C1541 1.369 . S
C1540 C1542 1.419 . S
C1540 H1544 0.930 . S
C1541 C1540 1.369 . S
C1541 C1550 1.429 . S
C1542 C1540 1.419 . S
C1542 C1543 1.363 . S
C1542 H1545 0.929 . S
C1543 C1542 1.363 . S
C1543 C1549 1.428 . S
H1544 C1540 0.930 . S
H1545 C1542 0.929 . S
S1546 N1547 1.613 . S
S1546 N1548 1.610 . S
N1547 S1546 1.613 . S
N1547 C1550 1.350 . S
N1548 S1546 1.610 . S
N1548 C1549 1.351 . S
C1549 C1543 1.428 . S
C1549 N1548 1.351 . S
C1549 C1550 1.434 . S
C1550 C1541 1.429 . S
C1550 N1547 1.350 . S
C1550 C1549 1.434 . S
C1551 C1552 1.369 . S
C1551 C1553 1.419 . S
C1551 H1555 0.930 . S
C1552 C1551 1.369 . S
C1552 C1561 1.429 . S
C1553 C1551 1.419 . S
C1553 C1554 1.363 . S
C1553 H1556 0.929 . S
C1554 C1553 1.363 . S
C1554 C1560 1.428 . S
H1555 C1551 0.930 . S
H1556 C1553 0.929 . S
S1557 N1558 1.613 . S
S1557 N1559 1.610 . S
N1558 S1557 1.613 . S
N1558 C1561 1.350 . S
N1559 S1557 1.610 . S
N1559 C1560 1.351 . S
C1560 C1554 1.428 . S
C1560 N1559 1.351 . S
C1560 C1561 1.434 . S
C1561 C1552 1.429 . S
C1561 N1558 1.350 . S
C1561 C1560 1.434 . S
C1562 C1563 1.369 . S
C1562 C1564 1.419 . S
C1562 H1566 0.930 . S
C1563 C1562 1.369 . S
C1563 C1572 1.429 . S
C1564 C1562 1.419 . S
C1564 C1565 1.363 . S
C1564 H1567 0.929 . S
C1565 C1564 1.363 . S
C1565 C1571 1.428 . S
H1566 C1562 0.930 . S
H1567 C1564 0.929 . S
S1568 N1569 1.613 . S
S1568 N1570 1.610 . S
N1569 S1568 1.613 . S
N1569 C1572 1.350 . S
N1570 S1568 1.610 . S
N1570 C1571 1.351 . S
C1571 C1565 1.428 . S
C1571 N1570 1.351 . S
C1571 C1572 1.434 . S
C1572 C1563 1.429 . S
C1572 N1569 1.350 . S
C1572 C1571 1.434 . S
C1573 C1574 1.369 . S
C1573 C1575 1.419 . S
C1573 H1577 0.930 . S
C1574 C1573 1.369 . S
C1574 C1583 1.429 . S
C1575 C1573 1.419 . S
C1575 C1576 1.363 . S
C1575 H1578 0.929 . S
C1576 C1575 1.363 . S
C1576 C1582 1.428 . S
H1577 C1573 0.930 . S
H1578 C1575 0.929 . S
S1579 N1580 1.613 . S
S1579 N1581 1.610 . S
N1580 S1579 1.613 . S
N1580 C1583 1.350 . S
N1581 S1579 1.610 . S
N1581 C1582 1.351 . S
C1582 C1576 1.428 . S
C1582 N1581 1.351 . S
C1582 C1583 1.434 . S
C1583 C1574 1.429 . S
C1583 N1580 1.350 . S
C1583 C1582 1.434 . S
C1584 C1585 1.369 . S
C1584 C1586 1.419 1_554 S
C1584 H1588 0.930 . S
C1585 C1584 1.369 . S
C1585 C1594 1.429 . S
C1586 C1584 1.419 1_556 S
C1586 C1587 1.363 . S
C1586 H1589 0.929 . S
C1587 C1586 1.363 . S
C1587 C1593 1.428 . S
H1588 C1584 0.930 . S
H1589 C1586 0.929 . S
S1590 N1591 1.613 1_556 S
S1590 N1592 1.610 . S
N1591 S1590 1.613 1_554 S
N1591 C1594 1.350 . S
N1592 S1590 1.610 . S
N1592 C1593 1.351 . S
C1593 C1587 1.428 . S
C1593 N1592 1.351 . S
C1593 C1594 1.434 1_556 S
C1594 C1585 1.429 . S
C1594 N1591 1.350 . S
C1594 C1593 1.434 1_554 S
C1595 C1596 1.371 . S
C1595 C1597 1.416 1_565 S
C1595 H1599 0.930 . S
C1596 C1595 1.371 . S
C1596 C1605 1.429 . S
C1597 C1595 1.416 1_545 S
C1597 C1598 1.363 . S
C1597 H1600 0.929 . S
C1598 C1597 1.363 . S
C1598 C1604 1.428 1_545 S
H1599 C1595 0.930 . S
H1600 C1597 0.929 . S
S1601 N1602 1.613 1_455 S
S1601 N1603 1.610 1_455 S
N1602 S1601 1.613 1_655 S
N1602 C1605 1.350 . S
N1603 S1601 1.610 1_655 S
N1603 C1604 1.351 . S
C1604 C1598 1.428 1_565 S
C1604 N1603 1.351 . S
C1604 C1605 1.434 . S
C1605 C1596 1.429 . S
C1605 N1602 1.350 . S
C1605 C1604 1.434 . S
C1606 C1607 1.369 . S
C1606 C1608 1.419 . S
C1606 H1610 0.930 . S
C1607 C1606 1.369 . S
C1607 C1616 1.429 . S
C1608 C1606 1.419 . S
C1608 C1609 1.363 . S
C1608 H1611 0.929 . S
C1609 C1608 1.363 . S
C1609 C1615 1.428 . S
H1610 C1606 0.930 . S
H1611 C1608 0.929 . S
S1612 N1613 1.613 . S
S1612 N1614 1.610 . S
N1613 S1612 1.613 . S
N1613 C1616 1.350 . S
N1614 S1612 1.610 . S
N1614 C1615 1.351 . S
C1615 C1609 1.428 . S
C1615 N1614 1.351 . S
C1615 C1616 1.434 . S
C1616 C1607 1.429 . S
C1616 N1613 1.350 . S
C1616 C1615 1.434 . S
C1617 C1618 1.369 . S
C1617 C1619 1.419 . S
C1617 H1621 0.930 . S
C1618 C1617 1.369 . S
C1618 C1627 1.429 1_565 S
C1619 C1617 1.419 . S
C1619 C1620 1.363 1_565 S
C1619 H1622 0.929 . S
C1620 C1619 1.363 1_545 S
C1620 C1626 1.428 . S
H1621 C1617 0.930 . S
H1622 C1619 0.929 . S
S1623 N1624 1.613 . S
S1623 N1625 1.610 . S
N1624 S1623 1.613 . S
N1624 C1627 1.350 . S
N1625 S1623 1.610 . S
N1625 C1626 1.351 . S
C1626 C1620 1.428 . S
C1626 N1625 1.351 . S
C1626 C1627 1.434 . S
C1627 C1618 1.429 1_545 S
C1627 N1624 1.350 . S
C1627 C1626 1.434 . S
C1628 C1629 1.369 . S
C1628 C1630 1.419 1_554 S
C1628 H1632 0.930 . S
C1629 C1628 1.369 . S
C1629 C1638 1.429 . S
C1630 C1628 1.419 1_556 S
C1630 C1631 1.363 . S
C1630 H1633 0.929 . S
C1631 C1630 1.363 . S
C1631 C1637 1.428 . S
H1632 C1628 0.930 . S
H1633 C1630 0.929 . S
S1634 N1635 1.613 . S
S1634 N1636 1.610 1_554 S
N1635 S1634 1.613 . S
N1635 C1638 1.350 . S
N1636 S1634 1.610 1_556 S
N1636 C1637 1.351 . S
C1637 C1631 1.428 . S
C1637 N1636 1.351 . S
C1637 C1638 1.434 1_556 S
C1638 C1629 1.429 . S
C1638 N1635 1.350 . S
C1638 C1637 1.434 1_554 S
C1639 C1640 1.369 1_565 S
C1639 C1641 1.419 . S
C1639 H1643 0.930 . S
C1640 C1639 1.369 1_545 S
C1640 C1649 1.429 . S
C1641 C1639 1.419 . S
C1641 C1642 1.363 . S
C1641 H1644 0.929 . S
C1642 C1641 1.363 . S
C1642 C1648 1.428 1_565 S
H1643 C1639 0.930 . S
H1644 C1641 0.929 . S
S1645 N1646 1.613 . S
S1645 N1647 1.610 . S
N1646 S1645 1.613 . S
N1646 C1649 1.350 . S
N1647 S1645 1.610 . S
N1647 C1648 1.351 . S
C1648 C1642 1.428 1_545 S
C1648 N1647 1.351 . S
C1648 C1649 1.434 . S
C1649 C1640 1.429 . S
C1649 N1646 1.350 . S
C1649 C1648 1.434 . S
C1650 C1651 1.369 . S
C1650 C1652 1.419 . S
C1650 H1654 0.930 . S
C1651 C1650 1.369 . S
C1651 C1660 1.429 . S
C1652 C1650 1.419 . S
C1652 C1653 1.363 . S
C1652 H1655 0.929 . S
C1653 C1652 1.363 . S
C1653 C1659 1.428 . S
H1654 C1650 0.930 . S
H1655 C1652 0.929 . S
S1656 N1657 1.613 . S
S1656 N1658 1.610 . S
N1657 S1656 1.613 . S
N1657 C1660 1.350 . S
N1658 S1656 1.610 . S
N1658 C1659 1.351 . S
C1659 C1653 1.428 . S
C1659 N1658 1.351 . S
C1659 C1660 1.434 . S
C1660 C1651 1.429 . S
C1660 N1657 1.350 . S
C1660 C1659 1.434 . S
C1661 C1662 1.369 . S
C1661 C1663 1.419 . S
C1661 H1665 0.930 . S
C1662 C1661 1.369 . S
C1662 C1671 1.429 1_565 S
C1663 C1661 1.419 . S
C1663 C1664 1.363 1_565 S
C1663 H1666 0.929 . S
C1664 C1663 1.363 1_545 S
C1664 C1670 1.428 . S
H1665 C1661 0.930 . S
H1666 C1663 0.929 . S
S1667 N1668 1.613 . S
S1667 N1669 1.610 . S
N1668 S1667 1.613 . S
N1668 C1671 1.350 . S
N1669 S1667 1.610 . S
N1669 C1670 1.351 . S
C1670 C1664 1.428 . S
C1670 N1669 1.351 . S
C1670 C1671 1.434 . S
C1671 C1662 1.429 1_545 S
C1671 N1668 1.350 . S
C1671 C1670 1.434 . S
C1672 C1673 1.369 . S
C1672 C1674 1.419 . S
C1672 H1676 0.930 . S
C1673 C1672 1.369 . S
C1673 C1682 1.429 . S
C1674 C1672 1.419 . S
C1674 C1675 1.363 . S
C1674 H1677 0.929 . S
C1675 C1674 1.363 . S
C1675 C1681 1.428 . S
H1676 C1672 0.930 . S
H1677 C1674 0.929 . S
S1678 N1679 1.613 . S
S1678 N1680 1.610 . S
N1679 S1678 1.613 . S
N1679 C1682 1.350 . S
N1680 S1678 1.610 . S
N1680 C1681 1.351 . S
C1681 C1675 1.428 . S
C1681 N1680 1.351 . S
C1681 C1682 1.434 . S
C1682 C1673 1.429 . S
C1682 N1679 1.350 . S
C1682 C1681 1.434 . S
C1683 C1684 1.369 . S
C1683 C1685 1.419 . S
C1683 H1687 0.930 . S
C1684 C1683 1.369 . S
C1684 C1693 1.429 . S
C1685 C1683 1.419 . S
C1685 C1686 1.363 . S
C1685 H1688 0.929 . S
C1686 C1685 1.363 . S
C1686 C1692 1.428 . S
H1687 C1683 0.930 . S
H1688 C1685 0.929 . S
S1689 N1690 1.613 . S
S1689 N1691 1.610 . S
N1690 S1689 1.613 . S
N1690 C1693 1.350 . S
N1691 S1689 1.610 . S
N1691 C1692 1.351 . S
C1692 C1686 1.428 . S
C1692 N1691 1.351 . S
C1692 C1693 1.434 . S
C1693 C1684 1.429 . S
C1693 N1690 1.350 . S
C1693 C1692 1.434 . S
C1694 C1695 1.369 . S
C1694 C1696 1.419 1_554 S
C1694 H1698 0.930 . S
C1695 C1694 1.369 . S
C1695 C1704 1.429 . S
C1696 C1694 1.419 1_556 S
C1696 C1697 1.363 . S
C1696 H1699 0.929 . S
C1697 C1696 1.363 . S
C1697 C1703 1.428 . S
H1698 C1694 0.930 . S
H1699 C1696 0.929 . S
S1700 N1701 1.609 1_556 S
S1700 N1702 1.615 . S
N1701 S1700 1.609 1_554 S
N1701 C1704 1.350 . S
N1702 S1700 1.615 . S
N1702 C1703 1.351 . S
C1703 C1697 1.428 . S
C1703 N1702 1.351 . S
C1703 C1704 1.434 1_556 S
C1704 C1695 1.429 . S
C1704 N1701 1.350 . S
C1704 C1703 1.434 1_554 S
C1705 C1706 1.369 . S
C1705 C1707 1.419 . S
C1705 H1709 0.930 . S
C1706 C1705 1.369 . S
C1706 C1715 1.429 . S
C1707 C1705 1.419 . S
C1707 C1708 1.363 . S
C1707 H1710 0.929 . S
C1708 C1707 1.363 . S
C1708 C1714 1.428 . S
H1709 C1705 0.930 . S
H1710 C1707 0.929 . S
S1711 N1712 1.613 . S
S1711 N1713 1.610 . S
N1712 S1711 1.613 . S
N1712 C1715 1.350 . S
N1713 S1711 1.610 . S
N1713 C1714 1.351 . S
C1714 C1708 1.428 . S
C1714 N1713 1.351 . S
C1714 C1715 1.434 . S
C1715 C1706 1.429 . S
C1715 N1712 1.350 . S
C1715 C1714 1.434 . S
C1716 C1717 1.369 . S
C1716 C1718 1.419 . S
C1716 H1720 0.930 . S
C1717 C1716 1.369 . S
C1717 C1726 1.429 . S
C1718 C1716 1.419 . S
C1718 C1719 1.363 . S
C1718 H1721 0.929 . S
C1719 C1718 1.363 . S
C1719 C1725 1.428 . S
H1720 C1716 0.930 . S
H1721 C1718 0.929 . S
S1722 N1723 1.613 . S
S1722 N1724 1.610 . S
N1723 S1722 1.613 . S
N1723 C1726 1.350 . S
N1724 S1722 1.610 . S
N1724 C1725 1.351 . S
C1725 C1719 1.428 . S
C1725 N1724 1.351 . S
C1725 C1726 1.434 . S
C1726 C1717 1.429 . S
C1726 N1723 1.350 . S
C1726 C1725 1.434 . S
C1727 C1728 1.369 . S
C1727 C1729 1.419 . S
C1727 H1731 0.930 . S
C1728 C1727 1.369 . S
C1728 C1737 1.429 . S
C1729 C1727 1.419 . S
C1729 C1730 1.363 . S
C1729 H1732 0.929 . S
C1730 C1729 1.363 . S
C1730 C1736 1.428 . S
H1731 C1727 0.930 . S
H1732 C1729 0.929 . S
S1733 N1734 1.613 . S
S1733 N1735 1.610 . S
N1734 S1733 1.613 . S
N1734 C1737 1.350 . S
N1735 S1733 1.610 . S
N1735 C1736 1.351 . S
C1736 C1730 1.428 . S
C1736 N1735 1.351 . S
C1736 C1737 1.434 . S
C1737 C1728 1.429 . S
C1737 N1734 1.350 . S
C1737 C1736 1.434 . S
C1738 C1739 1.369 . S
C1738 C1740 1.419 1_556 S
C1738 H1742 0.930 . S
C1739 C1738 1.369 . S
C1739 C1748 1.429 . S
C1740 C1738 1.419 1_554 S
C1740 C1741 1.363 . S
C1740 H1743 0.929 . S
C1741 C1740 1.363 . S
C1741 C1747 1.428 . S
H1742 C1738 0.930 . S
H1743 C1740 0.929 . S
S1744 N1745 1.613 . S
S1744 N1746 1.610 1_556 S
N1745 S1744 1.613 . S
N1745 C1748 1.350 . S
N1746 S1744 1.610 1_554 S
N1746 C1747 1.351 . S
C1747 C1741 1.428 . S
C1747 N1746 1.351 . S
C1747 C1748 1.434 1_554 S
C1748 C1739 1.429 . S
C1748 N1745 1.350 . S
C1748 C1747 1.434 1_556 S
C1749 C1750 1.369 . S
C1749 C1751 1.419 . S
C1749 H1753 0.930 . S
C1750 C1749 1.369 . S
C1750 C1759 1.429 . S
C1751 C1749 1.419 . S
C1751 C1752 1.363 . S
C1751 H1754 0.929 . S
C1752 C1751 1.363 . S
C1752 C1758 1.428 . S
H1753 C1749 0.930 . S
H1754 C1751 0.929 . S
S1755 N1756 1.613 . S
S1755 N1757 1.610 . S
N1756 S1755 1.613 . S
N1756 C1759 1.350 . S
N1757 S1755 1.610 . S
N1757 C1758 1.351 . S
C1758 C1752 1.428 . S
C1758 N1757 1.351 . S
C1758 C1759 1.434 . S
C1759 C1750 1.429 . S
C1759 N1756 1.350 . S
C1759 C1758 1.434 . S
C1760 C1761 1.369 . S
C1760 C1762 1.419 . S
C1760 H1764 0.930 . S
C1761 C1760 1.369 . S
C1761 C1770 1.429 . S
C1762 C1760 1.419 . S
C1762 C1763 1.363 . S
C1762 H1765 0.929 . S
C1763 C1762 1.363 . S
C1763 C1769 1.428 . S
H1764 C1760 0.930 . S
H1765 C1762 0.929 . S
S1766 N1767 1.613 . S
S1766 N1768 1.610 . S
N1767 S1766 1.613 . S
N1767 C1770 1.350 . S
N1768 S1766 1.610 . S
N1768 C1769 1.351 . S
C1769 C1763 1.428 . S
C1769 N1768 1.351 . S
C1769 C1770 1.434 . S
C1770 C1761 1.429 . S
C1770 N1767 1.350 . S
C1770 C1769 1.434 . S
C1771 C1772 1.369 . S
C1771 C1773 1.419 . S
C1771 H1775 0.930 . S
C1772 C1771 1.369 . S
C1772 C1781 1.429 . S
C1773 C1771 1.419 . S
C1773 C1774 1.363 . S
C1773 H1776 0.929 . S
C1774 C1773 1.363 . S
C1774 C1780 1.428 . S
H1775 C1771 0.930 . S
H1776 C1773 0.929 . S
S1777 N1778 1.613 . S
S1777 N1779 1.610 . S
N1778 S1777 1.613 . S
N1778 C1781 1.350 . S
N1779 S1777 1.610 . S
N1779 C1780 1.351 . S
C1780 C1774 1.428 . S
C1780 N1779 1.351 . S
C1780 C1781 1.434 . S
C1781 C1772 1.429 . S
C1781 N1778 1.350 . S
C1781 C1780 1.434 . S
C1782 C1783 1.369 . S
C1782 C1784 1.419 . S
C1782 H1786 0.930 . S
C1783 C1782 1.369 . S
C1783 C1792 1.429 . S
C1784 C1782 1.419 . S
C1784 C1785 1.363 . S
C1784 H1787 0.929 . S
C1785 C1784 1.363 . S
C1785 C1791 1.428 . S
H1786 C1782 0.930 . S
H1787 C1784 0.929 . S
S1788 N1789 1.613 . S
S1788 N1790 1.610 . S
N1789 S1788 1.613 . S
N1789 C1792 1.350 . S
N1790 S1788 1.610 . S
N1790 C1791 1.351 . S
C1791 C1785 1.428 . S
C1791 N1790 1.351 . S
C1791 C1792 1.434 . S
C1792 C1783 1.429 . S
C1792 N1789 1.350 . S
C1792 C1791 1.434 . S
C1793 C1794 1.369 . S
C1793 C1795 1.419 . S
C1793 H1797 0.930 . S
C1794 C1793 1.369 . S
C1794 C1803 1.429 . S
C1795 C1793 1.419 . S
C1795 C1796 1.363 . S
C1795 H1798 0.929 . S
C1796 C1795 1.363 . S
C1796 C1802 1.428 . S
H1797 C1793 0.930 . S
H1798 C1795 0.929 . S
S1799 N1800 1.613 . S
S1799 N1801 1.610 . S
N1800 S1799 1.613 . S
N1800 C1803 1.350 . S
N1801 S1799 1.610 . S
N1801 C1802 1.351 . S
C1802 C1796 1.428 . S
C1802 N1801 1.351 . S
C1802 C1803 1.434 . S
C1803 C1794 1.429 . S
C1803 N1800 1.350 . S
C1803 C1802 1.434 . S
C1804 C1805 1.369 . S
C1804 C1806 1.419 . S
C1804 H1808 0.930 . S
C1805 C1804 1.369 . S
C1805 C1814 1.429 . S
C1806 C1804 1.419 . S
C1806 C1807 1.363 . S
C1806 H1809 0.929 . S
C1807 C1806 1.363 . S
C1807 C1813 1.428 . S
H1808 C1804 0.930 . S
H1809 C1806 0.929 . S
S1810 N1811 1.613 . S
S1810 N1812 1.610 . S
N1811 S1810 1.613 . S
N1811 C1814 1.350 . S
N1812 S1810 1.610 . S
N1812 C1813 1.351 . S
C1813 C1807 1.428 . S
C1813 N1812 1.351 . S
C1813 C1814 1.434 . S
C1814 C1805 1.429 . S
C1814 N1811 1.350 . S
C1814 C1813 1.434 . S
C1815 C1816 1.369 . S
C1815 C1817 1.419 . S
C1815 H1819 0.930 . S
C1816 C1815 1.369 . S
C1816 C1825 1.429 . S
C1817 C1815 1.419 . S
C1817 C1818 1.363 . S
C1817 H1820 0.929 . S
C1818 C1817 1.363 . S
C1818 C1824 1.428 . S
H1819 C1815 0.930 . S
H1820 C1817 0.929 . S
S1821 N1822 1.613 . S
S1821 N1823 1.610 . S
N1822 S1821 1.613 . S
N1822 C1825 1.350 . S
N1823 S1821 1.610 . S
N1823 C1824 1.351 . S
C1824 C1818 1.428 . S
C1824 N1823 1.351 . S
C1824 C1825 1.434 . S
C1825 C1816 1.429 . S
C1825 N1822 1.350 . S
C1825 C1824 1.434 . S
C1826 C1827 1.369 . S
C1826 C1828 1.419 . S
C1826 H1830 0.930 . S
C1827 C1826 1.369 . S
C1827 C1836 1.429 . S
C1828 C1826 1.419 . S
C1828 C1829 1.363 . S
C1828 H1831 0.929 . S
C1829 C1828 1.363 . S
C1829 C1835 1.428 . S
H1830 C1826 0.930 . S
H1831 C1828 0.929 . S
S1832 N1833 1.613 . S
S1832 N1834 1.610 . S
N1833 S1832 1.613 . S
N1833 C1836 1.350 . S
N1834 S1832 1.610 . S
N1834 C1835 1.351 . S
C1835 C1829 1.428 . S
C1835 N1834 1.351 . S
C1835 C1836 1.434 . S
C1836 C1827 1.429 . S
C1836 N1833 1.350 . S
C1836 C1835 1.434 . S
C1837 C1838 1.369 . S
C1837 C1839 1.419 . S
C1837 H1841 0.930 . S
C1838 C1837 1.369 . S
C1838 C1847 1.429 . S
C1839 C1837 1.419 . S
C1839 C1840 1.363 . S
C1839 H1842 0.929 . S
C1840 C1839 1.363 . S
C1840 C1846 1.428 . S
H1841 C1837 0.930 . S
H1842 C1839 0.929 . S
S1843 N1844 1.613 . S
S1843 N1845 1.610 . S
N1844 S1843 1.613 . S
N1844 C1847 1.350 . S
N1845 S1843 1.610 . S
N1845 C1846 1.351 . S
C1846 C1840 1.428 . S
C1846 N1845 1.351 . S
C1846 C1847 1.434 . S
C1847 C1838 1.429 . S
C1847 N1844 1.350 . S
C1847 C1846 1.434 . S
C1848 C1849 1.369 . S
C1848 C1850 1.419 . S
C1848 H1852 0.930 . S
C1849 C1848 1.369 . S
C1849 C1858 1.429 . S
C1850 C1848 1.419 . S
C1850 C1851 1.363 . S
C1850 H1853 0.929 . S
C1851 C1850 1.363 . S
C1851 C1857 1.428 . S
H1852 C1848 0.930 . S
H1853 C1850 0.929 . S
S1854 N1855 1.613 . S
S1854 N1856 1.610 . S
N1855 S1854 1.613 . S
N1855 C1858 1.350 . S
N1856 S1854 1.610 . S
N1856 C1857 1.351 . S
C1857 C1851 1.428 . S
C1857 N1856 1.351 . S
C1857 C1858 1.434 . S
C1858 C1849 1.429 . S
C1858 N1855 1.350 . S
C1858 C1857 1.434 . S
C1859 C1860 1.369 . S
C1859 C1861 1.419 . S
C1859 H1863 0.930 . S
C1860 C1859 1.369 . S
C1860 C1869 1.429 . S
C1861 C1859 1.419 . S
C1861 C1862 1.363 . S
C1861 H1864 0.929 . S
C1862 C1861 1.363 . S
C1862 C1868 1.428 . S
H1863 C1859 0.930 . S
H1864 C1861 0.929 . S
S1865 N1866 1.613 . S
S1865 N1867 1.610 . S
N1866 S1865 1.613 . S
N1866 C1869 1.350 . S
N1867 S1865 1.610 . S
N1867 C1868 1.351 . S
C1868 C1862 1.428 . S
C1868 N1867 1.351 . S
C1868 C1869 1.434 . S
C1869 C1860 1.429 . S
C1869 N1866 1.350 . S
C1869 C1868 1.434 . S
C1870 C1871 1.369 . S
C1870 C1872 1.419 . S
C1870 H1874 0.930 . S
C1871 C1870 1.369 . S
C1871 C1880 1.429 . S
C1872 C1870 1.419 . S
C1872 C1873 1.363 . S
C1872 H1875 0.929 . S
C1873 C1872 1.363 . S
C1873 C1879 1.428 . S
H1874 C1870 0.930 . S
H1875 C1872 0.929 . S
S1876 N1877 1.613 . S
S1876 N1878 1.610 . S
N1877 S1876 1.613 . S
N1877 C1880 1.350 . S
N1878 S1876 1.610 . S
N1878 C1879 1.351 . S
C1879 C1873 1.428 . S
C1879 N1878 1.351 . S
C1879 C1880 1.434 . S
C1880 C1871 1.429 . S
C1880 N1877 1.350 . S
C1880 C1879 1.434 . S
C1881 C1882 1.369 . S
C1881 C1883 1.419 . S
C1881 H1885 0.930 . S
C1882 C1881 1.369 . S
C1882 C1891 1.429 . S
C1883 C1881 1.419 . S
C1883 C1884 1.363 . S
C1883 H1886 0.929 . S
C1884 C1883 1.363 . S
C1884 C1890 1.428 . S
H1885 C1881 0.930 . S
H1886 C1883 0.929 . S
S1887 N1888 1.613 . S
S1887 N1889 1.610 . S
N1888 S1887 1.613 . S
N1888 C1891 1.350 . S
N1889 S1887 1.610 . S
N1889 C1890 1.351 . S
C1890 C1884 1.428 . S
C1890 N1889 1.351 . S
C1890 C1891 1.434 . S
C1891 C1882 1.429 . S
C1891 N1888 1.350 . S
C1891 C1890 1.434 . S
C1892 C1893 1.369 . S
C1892 C1894 1.419 . S
C1892 H1896 0.930 . S
C1893 C1892 1.369 . S
C1893 C1902 1.429 . S
C1894 C1892 1.419 . S
C1894 C1895 1.363 . S
C1894 H1897 0.929 . S
C1895 C1894 1.363 . S
C1895 C1901 1.428 . S
H1896 C1892 0.930 . S
H1897 C1894 0.929 . S
S1898 N1899 1.613 . S
S1898 N1900 1.610 . S
N1899 S1898 1.613 . S
N1899 C1902 1.350 . S
N1900 S1898 1.610 . S
N1900 C1901 1.351 . S
C1901 C1895 1.428 . S
C1901 N1900 1.351 . S
C1901 C1902 1.434 . S
C1902 C1893 1.429 . S
C1902 N1899 1.350 . S
C1902 C1901 1.434 . S
C1903 C1904 1.369 . S
C1903 C1905 1.419 . S
C1903 H1907 0.930 . S
C1904 C1903 1.369 . S
C1904 C1913 1.429 . S
C1905 C1903 1.419 . S
C1905 C1906 1.363 . S
C1905 H1908 0.929 . S
C1906 C1905 1.363 . S
C1906 C1912 1.428 . S
H1907 C1903 0.930 . S
H1908 C1905 0.929 . S
S1909 N1910 1.613 . S
S1909 N1911 1.610 . S
N1910 S1909 1.613 . S
N1910 C1913 1.350 . S
N1911 S1909 1.610 . S
N1911 C1912 1.351 . S
C1912 C1906 1.428 . S
C1912 N1911 1.351 . S
C1912 C1913 1.434 . S
C1913 C1904 1.429 . S
C1913 N1910 1.350 . S
C1913 C1912 1.434 . S
C1914 C1915 1.369 . S
C1914 C1916 1.419 . S
C1914 H1918 0.930 . S
C1915 C1914 1.369 . S
C1915 C1924 1.429 . S
C1916 C1914 1.419 . S
C1916 C1917 1.363 . S
C1916 H1919 0.929 . S
C1917 C1916 1.363 . S
C1917 C1923 1.428 . S
H1918 C1914 0.930 . S
H1919 C1916 0.929 . S
S1920 N1921 1.613 . S
S1920 N1922 1.610 . S
N1921 S1920 1.613 . S
N1921 C1924 1.350 . S
N1922 S1920 1.610 . S
N1922 C1923 1.351 . S
C1923 C1917 1.428 . S
C1923 N1922 1.351 . S
C1923 C1924 1.434 . S
C1924 C1915 1.429 . S
C1924 N1921 1.350 . S
C1924 C1923 1.434 . S
C1925 C1926 1.369 . S
C1925 C1927 1.419 . S
C1925 H1929 0.930 . S
C1926 C1925 1.369 . S
C1926 C1935 1.429 . S
C1927 C1925 1.419 . S
C1927 C1928 1.363 . S
C1927 H1930 0.929 . S
C1928 C1927 1.363 . S
C1928 C1934 1.428 . S
H1929 C1925 0.930 . S
H1930 C1927 0.929 . S
S1931 N1932 1.613 . S
S1931 N1933 1.610 . S
N1932 S1931 1.613 . S
N1932 C1935 1.350 . S
N1933 S1931 1.610 . S
N1933 C1934 1.351 . S
C1934 C1928 1.428 . S
C1934 N1933 1.351 . S
C1934 C1935 1.434 . S
C1935 C1926 1.429 . S
C1935 N1932 1.350 . S
C1935 C1934 1.434 . S
C1057 C28 1.569 . S
C1059 C820 1.568 . S
C1068 C325 1.568 . S
C1070 C61 1.569 . S
C1079 C886 1.569 . S
C1081 C94 1.569 . S
C1090 C391 1.568 . S
C1092 C127 1.569 . S
C1101 C952 1.569 . S
C1103 C160 1.568 . S
C1112 C457 1.569 . S
C1114 C193 1.568 . S
C1123 C1018 1.568 . S
C1125 C226 1.569 . S
C1134 C523 1.569 . S
C1136 C259 1.568 . S
C1145 C292 1.569 . S
C1147 C556 1.569 . S
C1156 C358 1.568 . S
C1158 C622 1.569 . S
C1167 C424 1.569 . S
C1169 C688 1.569 . S
C1178 C754 1.569 . S
C1180 C490 1.568 . S
C1189 C589 1.568 . S
C1191 C853 1.569 . S
C1200 C919 1.569 . S
C1202 C655 1.568 . S
C1211 C721 1.569 . S
C1213 C985 1.569 . S
C1222 C1051 1.569 . S
C1224 C787 1.568 . S
C1233 N5 1.321 . S
C1235 C380 1.361 . S
C1244 N38 1.321 . S
C1246 C809 1.364 . S
C1255 C314 1.359 . S
C1257 N71 1.325 . S
C1266 N104 1.320 . S
C1268 C875 1.364 . S
C1277 C446 1.364 . S
C1279 N137 1.319 . S
C1288 C1007 1.359 . S
C1290 N170 1.327 . S
C1299 N203 1.321 . S
C1301 C512 1.364 . S
C1310 C941 1.364 . S
C1312 N236 1.319 . S
C1321 N269 1.317 . S
C1323 C116 1.364 . S
C1332 N302 1.317 . S
C1334 C545 1.364 . S
C1343 C50 1.359 . S
C1345 N335 1.324 . S
C1354 N368 1.328 . S
C1356 C611 1.359 . S
C1365 N401 1.325 . S
C1367 C182 1.361 . S
C1376 C743 1.361 . S
C1378 N434 1.325 . S
C1387 C248 1.362 . S
C1389 N467 1.321 . S
C1398 N500 1.318 . S
C1400 C677 1.364 . S
C1409 C908 1.358 . S
C1411 N533 1.327 . S
C1420 C281 1.364 . S
C1422 N566 1.321 . S
C1431 C842 1.364 . S
C1433 N599 1.318 . S
C1442 N632 1.318 . S
C1444 C347 1.363 . S
C1453 C974 1.364 . S
C1455 N665 1.321 . S
C1464 C479 1.364 . S
C1466 N698 1.319 . S
C1475 N731 1.321 . S
C1477 C1040 1.361 . S
C1486 C413 1.360 . S
C1488 N764 1.323 . S
C1497 C644 1.363 . S
C1499 N797 1.322 . S
C1508 N830 1.328 . S
C1510 C17 1.359 . S
C1519 N863 1.317 . S
C1521 C578 1.364 . S
C1530 C83 1.359 . S
C1532 N896 1.325 . S
C1541 C710 1.361 . S
C1543 N929 1.325 . S
C1552 N962 1.318 . S
C1554 C215 1.364 . S
C1563 C776 1.359 . S
C1565 N995 1.326 . S
C1574 C149 1.364 . S
C1576 N1028 1.319 . S
C1585 C8 1.165 . S
C1587 C206 1.168 . S
C1596 C239 1.165 . S
C1598 C41 1.168 . S
C1607 C74 1.169 . S
C1609 C140 1.165 . S
C1618 C107 1.171 . S
C1620 C173 1.163 . S
C1629 C470 1.166 . S
C1631 C272 1.165 . S
C1640 C503 1.163 . S
C1642 C305 1.170 . S
C1651 C404 1.168 . S
C1653 C338 1.166 . S
C1662 C437 1.171 . S
C1664 C371 1.163 . S
C1673 C536 1.162 . S
C1675 C734 1.168 . S
C1684 C569 1.162 . S
C1686 C767 1.170 . S
C1695 C602 1.165 . S
C1697 C668 1.168 . S
C1706 C635 1.162 . S
C1708 C701 1.169 . S
C1717 C998 1.169 . S
C1719 C800 1.166 . S
C1728 C1031 1.162 . S
C1730 C833 1.169 . S
C1739 C866 1.167 . S
C1741 C932 1.164 . S
C1750 C899 1.164 . S
C1752 C965 1.166 . S
C1761 N14 1.790 . S
C1763 N707 1.789 . S
C1772 N47 1.791 . S
C1774 N740 1.789 . S
C1783 N80 1.789 . S
C1785 N773 1.791 . S
C1794 N113 1.788 . S
C1796 N674 1.791 . S
C1805 N641 1.788 . S
C1807 N146 1.791 . S
C1816 N179 1.791 . S
C1818 N542 1.789 . S
C1827 N575 1.792 . S
C1829 N212 1.788 . S
C1838 N245 1.792 . S
C1840 N608 1.788 . S
C1849 N971 1.788 . S
C1851 N278 1.791 . S
C1860 N311 1.791 . S
C1862 N1004 1.789 . S
C1871 N1037 1.790 . S
C1873 N344 1.790 . S
C1882 N377 1.790 . S
C1884 N938 1.790 . S
C1893 N410 1.792 . S
C1895 N905 1.788 . S
C1904 N806 1.792 . S
C1906 N443 1.788 . S
C1915 N476 1.791 . S
C1917 N839 1.789 . S
C1926 N509 1.791 . S
C1928 N872 1.789 . S
