# Generated by pormake.
# Topology umc, (4)-cn, num edge types: 1
# Building blocks:
#     Node 0, Type 0, BuildingBlock: MUDLON_clean_sbu_0, # of connection points: 4
#     Node 1, Type 0, BuildingBlock: MUDLON_clean_sbu_0, # of connection points: 4
#     Node 2, Type 0, BuildingBlock: MUDLON_clean_sbu_0, # of connection points: 4
#     Node 3, Type 0, BuildingBlock: MUDLON_clean_sbu_0, # of connection points: 4
#     Node 4, Type 0, BuildingBlock: MUDLON_clean_sbu_0, # of connection points: 4
#     Node 5, Type 0, BuildingBlock: MUDLON_clean_sbu_0, # of connection points: 4
#     Node 6, Type 0, BuildingBlock: MUDLON_clean_sbu_0, # of connection points: 4
#     Node 7, Type 0, BuildingBlock: MUDLON_clean_sbu_0, # of connection points: 4
#     Node 8, Type 0, BuildingBlock: MUDLON_clean_sbu_0, # of connection points: 4
#     Node 9, Type 0, BuildingBlock: MUDLON_clean_sbu_0, # of connection points: 4
#     Node 10, Type 0, BuildingBlock: MUDLON_clean_sbu_0, # of connection points: 4
#     Node 11, Type 0, BuildingBlock: MUDLON_clean_sbu_0, # of connection points: 4
#     Node 12, Type 0, BuildingBlock: MUDLON_clean_sbu_0, # of connection points: 4
#     Node 13, Type 0, BuildingBlock: MUDLON_clean_sbu_0, # of connection points: 4
#     Node 14, Type 0, BuildingBlock: MUDLON_clean_sbu_0, # of connection points: 4
#     Node 15, Type 0, BuildingBlock: MUDLON_clean_sbu_0, # of connection points: 4
#     Edge 16, Type (0, 0), BuildingBlock: KIFKEQ_clean_linker_1, # of connection points: 2
#     Edge 17, Type (0, 0), BuildingBlock: KIFKEQ_clean_linker_1, # of connection points: 2
#     Edge 18, Type (0, 0), BuildingBlock: KIFKEQ_clean_linker_1, # of connection points: 2
#     Edge 19, Type (0, 0), BuildingBlock: KIFKEQ_clean_linker_1, # of connection points: 2
#     Edge 20, Type (0, 0), BuildingBlock: KIFKEQ_clean_linker_1, # of connection points: 2
#     Edge 21, Type (0, 0), BuildingBlock: KIFKEQ_clean_linker_1, # of connection points: 2
#     Edge 22, Type (0, 0), BuildingBlock: KIFKEQ_clean_linker_1, # of connection points: 2
#     Edge 23, Type (0, 0), BuildingBlock: KIFKEQ_clean_linker_1, # of connection points: 2
#     Edge 24, Type (0, 0), BuildingBlock: KIFKEQ_clean_linker_1, # of connection points: 2
#     Edge 25, Type (0, 0), BuildingBlock: KIFKEQ_clean_linker_1, # of connection points: 2
#     Edge 26, Type (0, 0), BuildingBlock: KIFKEQ_clean_linker_1, # of connection points: 2
#     Edge 27, Type (0, 0), BuildingBlock: KIFKEQ_clean_linker_1, # of connection points: 2
#     Edge 28, Type (0, 0), BuildingBlock: KIFKEQ_clean_linker_1, # of connection points: 2
#     Edge 29, Type (0, 0), BuildingBlock: KIFKEQ_clean_linker_1, # of connection points: 2
#     Edge 30, Type (0, 0), BuildingBlock: KIFKEQ_clean_linker_1, # of connection points: 2
#     Edge 31, Type (0, 0), BuildingBlock: KIFKEQ_clean_linker_1, # of connection points: 2
#     Edge 32, Type (0, 0), BuildingBlock: KIFKEQ_clean_linker_1, # of connection points: 2
#     Edge 33, Type (0, 0), BuildingBlock: KIFKEQ_clean_linker_1, # of connection points: 2
#     Edge 34, Type (0, 0), BuildingBlock: KIFKEQ_clean_linker_1, # of connection points: 2
#     Edge 35, Type (0, 0), BuildingBlock: KIFKEQ_clean_linker_1, # of connection points: 2
#     Edge 36, Type (0, 0), BuildingBlock: KIFKEQ_clean_linker_1, # of connection points: 2
#     Edge 37, Type (0, 0), BuildingBlock: KIFKEQ_clean_linker_1, # of connection points: 2
#     Edge 38, Type (0, 0), BuildingBlock: KIFKEQ_clean_linker_1, # of connection points: 2
#     Edge 39, Type (0, 0), BuildingBlock: KIFKEQ_clean_linker_1, # of connection points: 2
#     Edge 40, Type (0, 0), BuildingBlock: KIFKEQ_clean_linker_1, # of connection points: 2
#     Edge 41, Type (0, 0), BuildingBlock: KIFKEQ_clean_linker_1, # of connection points: 2
#     Edge 42, Type (0, 0), BuildingBlock: KIFKEQ_clean_linker_1, # of connection points: 2
#     Edge 43, Type (0, 0), BuildingBlock: KIFKEQ_clean_linker_1, # of connection points: 2
#     Edge 44, Type (0, 0), BuildingBlock: KIFKEQ_clean_linker_1, # of connection points: 2
#     Edge 45, Type (0, 0), BuildingBlock: KIFKEQ_clean_linker_1, # of connection points: 2
#     Edge 46, Type (0, 0), BuildingBlock: KIFKEQ_clean_linker_1, # of connection points: 2
#     Edge 47, Type (0, 0), BuildingBlock: KIFKEQ_clean_linker_1, # of connection points: 2
# Relax obj value: 0.000
# Max RMSD: 0.076
# Mean RMSD: 0.076
data_MOF--net-umc--node1-MUDLON_clean_sbu_0--edge1-KIFKEQ_clean_linker_1
_symmetry_space_group_name_H-M    P1
_symmetry_Int_Tables_number       1
_symmetry_cell_setting            triclinic
loop_
_symmetry_equiv_pos_as_xyz
'x, y, z'
_cell_length_a     59.466965
_cell_length_b     15.254573
_cell_length_c     61.186902
_cell_angle_alpha  90.13262
_cell_angle_beta   89.652972
_cell_angle_gamma 90.046933
loop_
_atom_site_label
_atom_site_type_symbol
_atom_site_fract_x
_atom_site_fract_y
_atom_site_fract_z
_atom_type_partial_charge
Mg0 Mg 0.38688 -0.00401 0.39609 0.0
C1 C 0.39323 0.93905 0.44082 0.0
O2 O 0.404 0.0138 0.43873 0.0
C3 C 0.38531 0.01613 0.34946 0.0
O4 O 0.39053 0.09259 0.35799 0.0
C5 C 0.34131 0.06104 0.40133 0.0
O6 O 0.33965 0.97526 0.40003 0.0
O7 O 0.36086 0.09523 0.40063 0.0
O8 O 0.38299 0.90809 0.42426 0.0
O9 O 0.4223 0.0353 0.39647 0.0
C10 C 0.43553 0.96996 0.39816 0.0
O11 O 0.42675 0.89106 0.3995 0.0
O12 O 0.38199 0.95194 0.36241 0.0
Mg13 Mg 0.65406 -0.0081 0.39861 0.0
C14 C 0.64658 0.06348 0.44292 0.0
O15 O 0.63142 0.00133 0.44102 0.0
C16 C 0.65651 0.97159 0.35201 0.0
O17 O 0.65057 0.89562 0.36035 0.0
C18 C 0.6992 0.92383 0.40328 0.0
O19 O 0.70109 0.00951 0.40198 0.0
O20 O 0.67954 0.8905 0.40282 0.0
O21 O 0.65913 0.08049 0.4265 0.0
O22 O 0.61844 0.95557 0.39873 0.0
C23 C 0.60546 0.02196 0.39792 0.0
O24 O 0.61458 0.10044 0.39722 0.0
O25 O 0.6599 0.03539 0.36509 0.0
Mg26 Mg 0.39008 -0.00596 0.13728 0.0
C27 C 0.39707 0.10295 0.0965 0.0
O28 O 0.41777 0.0768 0.09994 0.0
C29 C 0.38878 0.96782 0.18427 0.0
O30 O 0.39491 0.89261 0.17559 0.0
C31 C 0.34503 0.92414 0.13655 0.0
O32 O 0.34351 0.00782 0.14151 0.0
O33 O 0.36455 0.89211 0.13313 0.0
O34 O 0.3821 0.08611 0.1109 0.0
O35 O 0.42598 0.96149 0.13431 0.0
C36 C 0.43873 0.01719 0.14367 0.0
O37 O 0.4293 0.08198 0.15453 0.0
O38 O 0.38507 0.03208 0.17149 0.0
Mg39 Mg 0.65616 -0.00025 0.14034 0.0
C40 C 0.64903 0.86133 0.10371 0.0
O41 O 0.62874 0.85316 0.11209 0.0
C42 C 0.65772 0.02338 0.1871 0.0
O43 O 0.6522 0.0994 0.17861 0.0
C44 C 0.70161 0.06811 0.13912 0.0
O45 O 0.70315 0.98441 0.14394 0.0
O46 O 0.68208 0.10027 0.13613 0.0
O47 O 0.66345 0.90829 0.11364 0.0
O48 O 0.6206 0.03782 0.13955 0.0
C49 C 0.60801 0.04068 0.1228 0.0
O50 O 0.61702 0.0312 0.10328 0.0
O51 O 0.66106 0.95898 0.17416 0.0
Mg52 Mg 0.6551 0.98688 0.64117 0.0
C53 C 0.67519 0.06549 0.59981 0.0
O54 O 0.6893 0.00071 0.60294 0.0
C55 C 0.65348 0.96389 0.6879 0.0
O56 O 0.64909 0.88739 0.67895 0.0
C57 C 0.70085 0.91858 0.64501 0.0
O58 O 0.70175 -0.00074 0.65254 0.0
O59 O 0.68192 0.88904 0.63863 0.0
O60 O 0.66034 0.08131 0.61441 0.0
O61 O 0.62013 0.94194 0.6384 0.0
C62 C 0.60674 0.98494 0.62626 0.0
O63 O 0.6149 0.04797 0.61397 0.0
O64 O 0.6572 0.02883 0.67528 0.0
Mg65 Mg 0.38846 0.9818 0.63823 0.0
C66 C 0.39653 0.85416 0.60006 0.0
O67 O 0.41702 0.85341 0.60791 0.0
C68 C 0.38691 0.00804 0.68496 0.0
O69 O 0.39257 0.08334 0.67608 0.0
C70 C 0.34367 0.05192 0.63177 0.0
O71 O 0.34159 0.96616 0.63165 0.0
O72 O 0.36327 0.08455 0.63408 0.0
O73 O 0.3811 0.89293 0.61088 0.0
O74 O 0.42422 0.0162 0.63564 0.0
C75 C 0.43725 0.96038 0.64448 0.0
O76 O 0.42817 0.89333 0.65471 0.0
O77 O 0.38342 0.94292 0.6723 0.0
Mg78 Mg 0.64927 0.99038 0.89981 0.0
C79 C 0.65968 0.94859 0.94494 0.0
O80 O 0.66065 0.03436 0.9433 0.0
C81 C 0.64835 0.00845 0.85313 0.0
O82 O 0.64254 0.08424 0.86172 0.0
C83 C 0.695 0.05781 0.90366 0.0
O84 O 0.69689 0.97206 0.90455 0.0
O85 O 0.67542 0.09083 0.90178 0.0
O86 O 0.65523 0.90402 0.92785 0.0
O87 O 0.61406 0.02947 0.90303 0.0
C88 C 0.60099 0.96518 0.90708 0.0
O89 O 0.60988 0.88701 0.90954 0.0
O90 O 0.65263 0.94521 0.86606 0.0
Mg91 Mg 0.3831 0.98992 0.89712 0.0
C92 C 0.36403 0.05669 0.93968 0.0
O93 O 0.35255 0.98396 0.93702 0.0
C94 C 0.386 0.96878 0.85029 0.0
O95 O 0.39151 0.89328 0.85907 0.0
C96 C 0.33829 0.91492 0.89187 0.0
O97 O 0.337 -0.00513 0.88403 0.0
O98 O 0.35718 0.88853 0.89908 0.0
O99 O 0.37705 0.08186 0.9243 0.0
O100 O 0.4182 0.9511 0.90116 0.0
C101 C 0.43118 0.01643 0.90431 0.0
O102 O 0.42224 0.0951 0.90531 0.0
O103 O 0.38123 0.03241 0.86306 0.0
Mg104 Mg 0.88674 0.4862 0.39841 0.0
C105 C 0.86624 0.39723 0.43833 0.0
O106 O 0.84965 0.45056 0.43366 0.0
C107 C 0.88872 0.5097 0.35154 0.0
O108 O 0.8942 0.58522 0.36043 0.0
C109 C 0.84184 0.56384 0.39345 0.0
O110 O 0.84084 0.48905 0.3828 0.0
O111 O 0.86037 0.58529 0.40238 0.0
O112 O 0.88266 0.39094 0.42494 0.0
O113 O 0.92187 0.52684 0.40159 0.0
C114 C 0.93533 0.46394 0.39734 0.0
O115 O 0.92672 0.38778 0.39176 0.0
O116 O 0.88422 0.44566 0.3642 0.0
Mg117 Mg 0.15377 0.49848 0.3997 0.0
C118 C 0.17466 0.58546 0.43964 0.0
O119 O 0.19145 0.53395 0.43413 0.0
C120 C 0.15221 0.47835 0.35272 0.0
O121 O 0.14606 0.40289 0.3612 0.0
C122 C 0.19843 0.41959 0.3939 0.0
O123 O 0.19955 0.49492 0.38358 0.0
O124 O 0.17987 0.39818 0.40299 0.0
O125 O 0.15794 0.59142 0.42681 0.0
O126 O 0.11851 0.45879 0.40257 0.0
C127 C 0.10521 0.52243 0.39877 0.0
O128 O 0.11401 0.59899 0.39385 0.0
O129 O 0.15689 0.54116 0.36571 0.0
Mg130 Mg 0.88983 0.50012 0.13935 0.0
C131 C 0.89593 0.6199 0.1001 0.0
O132 O 0.91717 0.60414 0.1043 0.0
C133 C 0.88923 0.47056 0.18621 0.0
O134 O 0.89481 0.39548 0.1771 0.0
C135 C 0.84486 0.42879 0.13902 0.0
O136 O 0.84324 0.51169 0.14471 0.0
O137 O 0.86439 0.39789 0.13505 0.0
O138 O 0.88104 0.59358 0.11364 0.0
O139 O 0.92567 0.46863 0.1353 0.0
C140 C 0.93861 0.52266 0.14502 0.0
O141 O 0.92938 0.58553 0.15672 0.0
O142 O 0.88555 0.53588 0.17377 0.0
Mg143 Mg 0.15571 0.49894 0.14086 0.0
C144 C 0.14823 0.36136 0.10417 0.0
O145 O 0.12772 0.3562 0.11216 0.0
C146 C 0.15701 0.52467 0.1876 0.0
O147 O 0.15231 0.60099 0.17882 0.0
C148 C 0.20133 0.56639 0.13988 0.0
O149 O 0.20276 0.48331 0.14534 0.0
O150 O 0.18186 0.59839 0.13646 0.0
O151 O 0.16289 0.40617 0.11438 0.0
O152 O 0.1203 0.53864 0.13981 0.0
C153 C 0.10775 0.54329 0.12306 0.0
O154 O 0.11673 0.53456 0.1035 0.0
O155 O 0.16003 0.45933 0.17488 0.0
Mg156 Mg 0.15562 0.47878 0.64218 0.0
C157 C 0.14954 0.54412 0.59773 0.0
O158 O 0.13688 0.47376 0.59924 0.0
C159 C 0.15741 0.45403 0.68872 0.0
O160 O 0.15287 0.37764 0.67978 0.0
C161 C 0.20067 0.41168 0.63278 0.0
O162 O 0.20237 0.49727 0.63102 0.0
O163 O 0.18143 0.37886 0.63712 0.0
O164 O 0.1603 0.56915 0.61459 0.0
O165 O 0.12012 0.44089 0.64135 0.0
C166 C 0.10706 0.50707 0.64085 0.0
O167 O 0.11606 0.58579 0.6408 0.0
O168 O 0.1603 0.5196 0.6761 0.0
Mg169 Mg 0.88843 0.49001 0.64073 0.0
C170 C 0.89463 0.42588 0.59587 0.0
O171 O 0.90815 0.49362 0.59762 0.0
C172 C 0.88651 0.51085 0.68726 0.0
O173 O 0.89246 0.58646 0.67873 0.0
C174 C 0.84511 0.57208 0.62832 0.0
O175 O 0.84317 0.49222 0.62049 0.0
O176 O 0.86362 0.59463 0.63711 0.0
O177 O 0.88342 0.40214 0.61267 0.0
O178 O 0.92414 0.52491 0.6403 0.0
C179 C 0.93709 0.45843 0.63934 0.0
O180 O 0.92797 0.38 0.63851 0.0
O181 O 0.88288 0.44677 0.67432 0.0
Mg182 Mg 0.1502 0.48489 0.90058 0.0
C183 C 0.16401 0.44052 0.94525 0.0
O184 O 0.16825 0.52462 0.94325 0.0
C185 C 0.14889 0.50005 0.85378 0.0
O186 O 0.14251 0.57567 0.86207 0.0
C187 C 0.19569 0.55286 0.89839 0.0
O188 O 0.19717 0.46793 0.895 0.0
O189 O 0.17627 0.58579 0.90168 0.0
O190 O 0.1565 0.3991 0.9287 0.0
O191 O 0.11495 0.52349 0.90381 0.0
C192 C 0.10193 0.45899 0.9078 0.0
O193 O 0.11088 0.3809 0.9102 0.0
O194 O 0.15352 0.43799 0.86694 0.0
Mg195 Mg 0.88392 0.48437 0.89908 0.0
C196 C 0.87145 0.53404 0.94379 0.0
O197 O 0.86827 0.44893 0.94272 0.0
C198 C 0.88548 0.46418 0.85235 0.0
O199 O 0.89079 0.38814 0.86095 0.0
C200 C 0.83796 0.41872 0.90182 0.0
O201 O 0.83622 0.50458 0.90138 0.0
O202 O 0.85754 0.38486 0.9012 0.0
O203 O 0.87784 0.57412 0.92658 0.0
O204 O 0.91904 0.44501 0.90267 0.0
C205 C 0.93205 0.51005 0.90608 0.0
O206 O 0.92311 0.58861 0.90756 0.0
O207 O 0.8813 0.52799 0.86524 0.0
H208 H 0.42695 0.93901 0.46997 0.0
H209 H 0.35929 0.84429 0.46068 0.0
H210 H 0.42586 0.89166 0.50779 0.0
H211 H 0.35806 0.79653 0.49911 0.0
H212 H 0.35932 0.88536 0.57476 0.0
H213 H 0.3575 0.88001 0.53492 0.0
H214 H 0.42379 0.76524 0.53256 0.0
H215 H 0.4258 0.77156 0.57229 0.0
C216 C 0.41195 0.90631 0.47597 0.0
C217 C 0.39319 0.89551 0.46241 0.0
C218 C 0.41137 0.87857 0.49765 0.0
C219 C 0.39188 0.84015 0.50653 0.0
C220 C 0.3733 0.82611 0.49275 0.0
C221 C 0.37405 0.85276 0.47075 0.0
C222 C 0.37326 0.85668 0.5658 0.0
C223 C 0.3929 0.8305 0.57674 0.0
C224 C 0.37217 0.85334 0.54292 0.0
C225 C 0.39067 0.8237 0.53053 0.0
C226 C 0.40942 0.79002 0.54161 0.0
C227 C 0.41053 0.79339 0.56442 0.0
H228 H 0.64123 0.16653 0.58279 0.0
H229 H 0.70533 0.05017 0.56631 0.0
H230 H 0.63499 0.19879 0.5442 0.0
H231 H 0.69889 0.08006 0.52793 0.0
H232 H 0.68503 0.14164 0.45864 0.0
H233 H 0.69334 0.17501 0.49696 0.0
H234 H 0.62558 0.10076 0.51495 0.0
H235 H 0.61731 0.06952 0.47699 0.0
C236 C 0.65423 0.14975 0.57104 0.0
C237 C 0.6736 0.10432 0.57762 0.0
C238 C 0.65059 0.16764 0.54888 0.0
C239 C 0.66623 0.1406 0.53283 0.0
C240 C 0.68648 0.10233 0.53972 0.0
C241 C 0.69011 0.08451 0.56182 0.0
C242 C 0.67177 0.13506 0.47074 0.0
C243 C 0.65061 0.10187 0.46484 0.0
C244 C 0.67656 0.15348 0.49272 0.0
C245 C 0.66022 0.13968 0.50916 0.0
C246 C 0.63856 0.11308 0.50286 0.0
C247 C 0.63385 0.09433 0.48102 0.0
H248 H 0.35478 0.13767 0.08061 0.0
H249 H 0.42488 0.1334 0.06172 0.0
H250 H 0.34428 0.15593 0.04237 0.0
H251 H 0.41446 0.14799 0.02369 0.0
H252 H 0.39344 0.18175 0.95514 0.0
H253 H 0.39937 0.22282 0.99333 0.0
H254 H 0.34351 0.05801 1.01254 0.0
H255 H 0.33717 0.02012 0.97464 0.0
C256 C 0.36797 0.14224 0.06838 0.0
C257 C 0.39066 0.13261 0.07425 0.0
C258 C 0.36196 0.15196 0.04639 0.0
C259 C 0.37846 0.15177 0.02975 0.0
C260 C 0.40121 0.14905 0.0359 0.0
C261 C 0.40721 0.13994 0.05783 0.0
C262 C 0.38206 0.15636 0.96749 0.0
C263 C 0.36502 0.09666 0.96183 0.0
C264 C 0.38557 0.17923 0.98944 0.0
C265 C 0.37217 0.14275 1.00621 0.0
C266 C 0.35412 0.08826 1.00024 0.0
C267 C 0.35057 0.06579 0.97839 0.0
H268 H 0.68401 0.01296 0.9784 0.0
H269 H 0.64109 0.7958 0.96101 0.0
H270 H 0.68391 0.9655 1.01615 0.0
H271 H 0.64105 0.74699 0.9993 0.0
H272 H 0.6185 0.80928 0.07285 0.0
H273 H 0.62418 0.80665 0.03336 0.0
H274 H 0.69503 0.85595 0.0424 0.0
H275 H 0.68929 0.86068 0.08185 0.0
C276 C 0.6749 0.95375 0.98261 0.0
C277 C 0.66245 0.90841 0.96677 0.0
C278 C 0.67498 0.92599 1.0043 0.0
C279 C 0.66246 0.85231 1.01086 0.0
C280 C 0.65078 0.8043 0.99481 0.0
C281 C 0.65093 0.83174 0.97288 0.0
C282 C 0.63541 0.81713 0.06647 0.0
C283 C 0.65337 0.83691 0.08054 0.0
C284 C 0.63868 0.81532 0.04376 0.0
C285 C 0.65999 0.83285 0.03465 0.0
C286 C 0.6783 0.84418 0.04885 0.0
C287 C 0.67503 0.84646 0.0715 0.0
H288 H 0.92336 0.4301 0.56144 0.0
H289 H 0.85766 0.33616 0.58056 0.0
H290 H 0.91554 0.39408 0.52364 0.0
H291 H 0.84979 0.29837 0.54235 0.0
H292 H 0.83549 0.40918 0.47158 0.0
H293 H 0.84226 0.38791 0.51034 0.0
H294 H 0.9085 0.2871 0.49556 0.0
H295 H 0.90193 0.31055 0.45669 0.0
C296 C 0.90739 0.3997 0.5576 0.0
C297 C 0.89104 0.38682 0.57396 0.0
C298 C 0.90295 0.37825 0.53587 0.0
C299 C 0.88197 0.34365 0.52982 0.0
C300 C 0.86605 0.32575 0.5464 0.0
C301 C 0.8706 0.34671 0.56831 0.0
C302 C 0.85133 0.38052 0.47651 0.0
C303 C 0.86834 0.36332 0.46099 0.0
C304 C 0.85516 0.36775 0.49881 0.0
C305 C 0.87609 0.33724 0.50617 0.0
C306 C 0.89235 0.31248 0.4905 0.0
C307 C 0.88852 0.32538 0.46817 0.0
H308 H 0.18577 0.63796 0.58193 0.0
H309 H 0.12019 0.54068 0.56419 0.0
H310 H 0.19276 0.67894 0.5437 0.0
H311 H 0.12711 0.57997 0.52639 0.0
H312 H 0.13902 0.66875 0.45954 0.0
H313 H 0.13315 0.68944 0.49872 0.0
H314 H 0.20004 0.5917 0.51096 0.0
H315 H 0.20611 0.57315 0.4719 0.0
C316 C 0.17266 0.62743 0.57 0.0
C317 C 0.15252 0.58542 0.57601 0.0
C318 C 0.1767 0.6502 0.54808 0.0
C319 C 0.16056 0.6323 0.53187 0.0
C320 C 0.13986 0.59584 0.53833 0.0
C321 C 0.13594 0.57254 0.56006 0.0
C322 C 0.15271 0.65399 0.47053 0.0
C323 C 0.17289 0.6177 0.46255 0.0
C324 C 0.14929 0.66534 0.49304 0.0
C325 C 0.16595 0.64061 0.50809 0.0
C326 C 0.18684 0.61178 0.49993 0.0
C327 C 0.19027 0.60056 0.47745 0.0
H328 H 0.84703 0.48074 0.97873 0.0
H329 H 0.89308 0.68338 0.95797 0.0
H330 H 0.8501 0.53026 1.01625 0.0
H331 H 0.89599 0.73465 0.9959 0.0
H332 H 0.92367 0.66654 0.06629 0.0
H333 H 0.91419 0.67203 0.02775 0.0
H334 H 0.84394 0.63895 0.0441 0.0
H335 H 0.85351 0.63103 0.08276 0.0
C336 C 0.85742 0.53749 0.98215 0.0
C337 C 0.87 0.57754 0.96543 0.0
C338 C 0.85904 0.56652 1.00372 0.0
C339 C 0.87341 0.63628 1.00923 0.0
C340 C 0.88494 0.68015 0.99226 0.0
C341 C 0.88315 0.65131 0.97052 0.0
C342 C 0.90611 0.66256 0.06176 0.0
C343 C 0.88941 0.64636 0.07764 0.0
C344 C 0.90065 0.66631 0.03957 0.0
C345 C 0.87833 0.65425 0.03272 0.0
C346 C 0.86137 0.64656 0.04877 0.0
C347 C 0.86684 0.64258 0.07098 0.0
H348 H 0.18895 0.35171 0.08321 0.0
H349 H 0.11777 0.31639 0.07262 0.0
H350 H 0.1956 0.34416 0.04392 0.0
H351 H 0.12433 0.31161 0.0333 0.0
H352 H 0.14175 0.2957 0.96156 0.0
H353 H 0.14016 0.24875 0.99992 0.0
H354 H 0.18788 0.45148 1.01669 0.0
H355 H 0.18968 0.49653 0.97882 0.0
C356 C 0.17475 0.34059 0.07254 0.0
C357 C 0.15279 0.33607 0.08109 0.0
C358 C 0.17855 0.33681 0.04997 0.0
C359 C 0.16045 0.32928 0.03534 0.0
C360 C 0.1387 0.31717 0.044 0.0
C361 C 0.13492 0.32023 0.06663 0.0
C362 C 0.15231 0.32841 0.97342 0.0
C363 C 0.16572 0.40017 0.9672 0.0
C364 C 0.15126 0.3021 0.99542 0.0
C365 C 0.16382 0.34646 1.0115 0.0
C366 C 0.1782 0.41473 1.00486 0.0
C367 C 0.1791 0.44121 0.98307 0.0
H368 H 0.57996 0.87455 0.39062 0.0
H369 H 0.57473 0.1502 0.40597 0.0
H370 H 0.539 0.86357 0.39018 0.0
H371 H 0.53401 0.13884 0.40652 0.0
H372 H 0.46098 0.11162 0.38538 0.0
H373 H 0.50196 0.12307 0.38474 0.0
H374 H 0.50685 0.86334 0.41248 0.0
H375 H 0.46617 0.85089 0.41216 0.0
C376 C 0.57007 0.93255 0.39411 0.0
C377 C 0.58062 0.01318 0.39827 0.0
C378 C 0.54654 0.92634 0.39398 0.0
C379 C 0.53301 0.00041 0.39831 0.0
C380 C 0.54371 0.08074 0.40267 0.0
C381 C 0.56715 0.0871 0.40252 0.0
C382 C 0.47087 0.05723 0.39137 0.0
C383 C 0.46032 0.98032 0.39872 0.0
C384 C 0.49439 0.06375 0.3911 0.0
C385 C 0.50791 -0.00609 0.39848 0.0
C386 C 0.49718 0.91773 0.40619 0.0
C387 C 0.47376 0.91086 0.40617 0.0
H388 H 0.46472 0.91224 0.11676 0.0
H389 H 0.46917 0.12023 0.16456 0.0
H390 H 0.50561 0.91846 0.11153 0.0
H391 H 0.50957 0.12749 0.15909 0.0
H392 H 0.58394 0.05694 0.16086 0.0
H393 H 0.54342 0.04618 0.16598 0.0
H394 H 0.53492 0.01513 0.09634 0.0
H395 H 0.57563 0.02436 0.09122 0.0
C396 C 0.47439 0.95884 0.12622 0.0
C397 C 0.46362 0.01553 0.14111 0.0
C398 C 0.4978 0.96303 0.12309 0.0
C399 C 0.51094 0.02362 0.13488 0.0
C400 C 0.50011 0.07927 0.14993 0.0
C401 C 0.47683 0.07532 0.15299 0.0
C402 C 0.57347 0.04848 0.14659 0.0
C403 C 0.58313 0.04189 0.12561 0.0
C404 C 0.55016 0.04242 0.14953 0.0
C405 C 0.53582 0.02953 0.13159 0.0
C406 C 0.54545 0.02381 0.11057 0.0
C407 C 0.5688 0.03011 0.10761 0.0
H408 H 0.58261 0.89758 0.6578 0.0
H409 H 0.57478 0.04828 0.59869 0.0
H410 H 0.54189 0.89389 0.66251 0.0
H411 H 0.5341 0.0419 0.60287 0.0
H412 H 0.46313 0.09565 0.62831 0.0
H413 H 0.504 0.0991 0.62386 0.0
H414 H 0.5081 0.83554 0.64933 0.0
H415 H 0.46766 0.83377 0.65456 0.0
C416 C 0.57219 0.92848 0.64558 0.0
C417 C 0.58199 0.97322 0.62788 0.0
C418 C 0.54876 0.92637 0.64825 0.0
C419 C 0.53452 0.96815 0.63315 0.0
C420 C 0.54441 0.01068 0.61511 0.0
C421 C 0.5678 0.01351 0.61258 0.0
C422 C 0.47282 0.03877 0.63304 0.0
C423 C 0.46209 0.96471 0.64187 0.0
C424 C 0.49627 0.04031 0.63034 0.0
C425 C 0.50953 0.96746 0.6362 0.0
C426 C 0.49866 0.89353 0.64499 0.0
C427 C 0.47533 0.89238 0.64788 0.0
H428 H 0.5702 0.84422 0.9205 0.0
H429 H 0.57554 0.10803 0.89551 0.0
H430 H 0.52945 0.85581 0.92067 0.0
H431 H 0.53456 0.11891 0.89504 0.0
H432 H 0.46147 0.141 0.91643 0.0
H433 H 0.50216 0.12952 0.91796 0.0
H434 H 0.49802 0.85964 0.89671 0.0
H435 H 0.45703 0.87059 0.89582 0.0
C436 C 0.56267 0.90482 0.91498 0.0
C437 C 0.57618 0.97527 0.90798 0.0
C438 C 0.53923 0.91117 0.91492 0.0
C439 C 0.52859 0.98801 0.90773 0.0
C440 C 0.54212 0.059 0.90095 0.0
C441 C 0.56565 0.05279 0.90114 0.0
C442 C 0.46919 0.07896 0.91215 0.0
C443 C 0.45595 0.00665 0.90598 0.0
C444 C 0.49261 0.07263 0.91287 0.0
C445 C 0.50351 -0.00609 0.90732 0.0
C446 C 0.49024 0.92111 0.90136 0.0
C447 C 0.46672 0.92734 0.90076 0.0
H448 H 0.95993 0.60704 0.41094 0.0
H449 H 0.96707 0.34259 0.38649 0.0
H450 H 1.00087 0.62005 0.41289 0.0
H451 H 1.00769 0.35625 0.38785 0.0
H452 H 0.0802 0.3777 0.41059 0.0
H453 H 0.03921 0.36468 0.41181 0.0
H454 H 0.03314 0.63224 0.3896 0.0
H455 H 0.07379 0.64583 0.38897 0.0
C456 C 0.9702 0.55189 0.40591 0.0
C457 C 0.96016 0.4739 0.39855 0.0
C458 C 0.99369 0.55934 0.40694 0.0
C459 C 1.0077 0.48908 0.40055 0.0
C460 C 0.99755 0.41118 0.39327 0.0
C461 C 0.97416 0.40368 0.39232 0.0
C462 C 0.07008 0.43369 0.40604 0.0
C463 C 0.08034 0.51267 0.39966 0.0
C464 C 0.04656 0.42624 0.40664 0.0
C465 C 0.03275 0.4975 0.40081 0.0
C466 C 0.04311 0.57644 0.39456 0.0
C467 C 0.06653 0.58394 0.39403 0.0
H468 H 0.07525 0.53023 0.09148 0.0
H469 H 0.08383 0.55839 0.16121 0.0
H470 H 0.03451 0.52225 0.0967 0.0
H471 H 0.04333 0.54876 0.16641 0.0
H472 H 0.96935 0.6243 0.16589 0.0
H473 H 1.00968 0.63144 0.16002 0.0
H474 H 1.00502 0.42579 0.11162 0.0
H475 H 0.96418 0.41979 0.11723 0.0
C476 C 0.06848 0.53529 0.1079 0.0
C477 C 0.08288 0.54545 0.12591 0.0
C478 C 0.04511 0.52971 0.11091 0.0
C479 C 0.03557 0.53452 0.13198 0.0
C480 C 0.05 0.54579 0.14992 0.0
C481 C 0.0733 0.55118 0.14693 0.0
C482 C 0.97684 0.58014 0.15403 0.0
C483 C 0.96345 0.52131 0.14205 0.0
C484 C 1.00008 0.58402 0.15074 0.0
C485 C 1.0107 0.52918 0.13537 0.0
C486 C 0.99737 0.4697 0.12343 0.0
C487 C 0.97399 0.46564 0.12678 0.0
H488 H 0.96265 0.60202 0.65018 0.0
H489 H 0.96774 0.33399 0.62788 0.0
H490 H 1.00362 0.6122 0.651 0.0
H491 H 1.00848 0.34494 0.62774 0.0
H492 H 0.08132 0.36184 0.65009 0.0
H493 H 0.04033 0.35116 0.65017 0.0
H494 H 0.03595 0.62083 0.629 0.0
H495 H 0.07664 0.63215 0.62987 0.0
C496 C 0.97252 0.54564 0.64522 0.0
C497 C 0.96193 0.46723 0.63903 0.0
C498 C 0.99605 0.55143 0.64558 0.0
C499 C 1.00954 0.47926 0.63947 0.0
C500 C 0.9988 0.40133 0.63301 0.0
C501 C 0.97535 0.39527 0.63292 0.0
C502 C 0.07155 0.41863 0.64544 0.0
C503 C 0.08225 0.49783 0.64006 0.0
C504 C 0.04801 0.41257 0.64538 0.0
C505 C 0.03464 0.48529 0.63966 0.0
C506 C 0.04551 0.56397 0.63397 0.0
C507 C 0.06894 0.57027 0.6343 0.0
H508 H 0.07119 0.33716 0.92088 0.0
H509 H 0.07639 0.60219 0.89667 0.0
H510 H 0.03044 0.3486 0.92121 0.0
H511 H 0.03539 0.61295 0.89638 0.0
H512 H 0.96244 0.63395 0.91837 0.0
H513 H 1.00315 0.6224 0.91955 0.0
H514 H 0.99884 0.35368 0.89744 0.0
H515 H 0.95784 0.36468 0.89688 0.0
C516 C 0.06363 0.398 0.91556 0.0
C517 C 0.0771 0.46884 0.90874 0.0
C518 C 0.04018 0.40426 0.91559 0.0
C519 C 0.0295 0.48143 0.9087 0.0
C520 C 0.04299 0.55277 0.90207 0.0
C521 C 0.06652 0.54663 0.90215 0.0
C522 C 0.97013 0.57215 0.91382 0.0
C523 C 0.95684 0.50017 0.90751 0.0
C524 C 0.99356 0.56579 0.91434 0.0
C525 C 1.00442 0.48736 0.90845 0.0
C526 C 0.99109 0.4149 0.90234 0.0
C527 C 0.96757 0.42116 0.90194 0.0
H528 H 0.23889 0.44697 0.37407 0.0
H529 H 0.20477 0.26993 0.41821 0.0
H530 H 0.2732 0.36224 0.37746 0.0
H531 H 0.23951 0.18558 0.42202 0.0
H532 H 0.29797 0.003 0.40223 0.0
H533 H 0.26363 0.08889 0.40148 0.0
H534 H 0.30288 0.32734 0.40244 0.0
H535 H 0.33748 0.24081 0.40262 0.0
C536 C 0.23871 0.39001 0.3846 0.0
C537 C 0.21901 0.36519 0.39584 0.0
C538 C 0.25852 0.34178 0.3867 0.0
C539 C 0.25926 0.26735 0.40015 0.0
C540 C 0.23952 0.24214 0.41137 0.0
C541 C 0.2196 0.29051 0.40922 0.0
C542 C 0.29936 0.0738 0.40239 0.0
C543 C 0.32055 0.115 0.40235 0.0
C544 C 0.27958 0.12313 0.40212 0.0
C545 C 0.2804 0.21515 0.40184 0.0
C546 C 0.3016 0.25652 0.40231 0.0
C547 C 0.32146 0.20701 0.40255 0.0
H548 H 0.74261 0.98053 0.40402 0.0
H549 H 0.70268 0.74378 0.40406 0.0
H550 H 0.77679 0.89386 0.40276 0.0
H551 H 0.73715 0.65634 0.40338 0.0
H552 H 0.80131 0.53641 0.37414 0.0
H553 H 0.76697 0.62101 0.37819 0.0
H554 H 0.80067 0.79657 0.42282 0.0
H555 H 0.83541 0.71246 0.41834 0.0
C556 C 0.74109 0.90977 0.404 0.0
C557 C 0.71983 0.86914 0.40401 0.0
C558 C 0.76079 0.85996 0.40344 0.0
C559 C 0.75983 0.76798 0.40293 0.0
C560 C 0.73855 0.72712 0.40344 0.0
C561 C 0.71877 0.77715 0.40397 0.0
C562 C 0.80147 0.5931 0.38483 0.0
C563 C 0.82119 0.61777 0.39587 0.0
C564 C 0.78165 0.64123 0.38731 0.0
C565 C 0.78091 0.71542 0.40094 0.0
C566 C 0.80065 0.74027 0.41201 0.0
C567 C 0.82058 0.69203 0.40949 0.0
H568 H 0.20618 0.73688 0.12578 0.0
H569 H 0.24395 0.51571 0.14977 0.0
H570 H 0.24099 0.82174 0.12297 0.0
H571 H 0.27839 0.60062 0.14762 0.0
H572 H 0.34028 0.75046 0.12471 0.0
H573 H 0.30549 0.66472 0.12361 0.0
H574 H 0.26803 0.89119 0.14569 0.0
H575 H 0.30239 0.97668 0.14615 0.0
C576 C 0.22186 0.70649 0.13052 0.0
C577 C 0.22221 0.61956 0.13803 0.0
C578 C 0.24184 0.75516 0.12901 0.0
C579 C 0.26263 0.71817 0.13506 0.0
C580 C 0.26287 0.63102 0.14243 0.0
C581 C 0.24299 0.58244 0.14385 0.0
C582 C 0.32458 0.78182 0.12923 0.0
C583 C 0.32419 0.87041 0.13553 0.0
C584 C 0.30462 0.73266 0.1287 0.0
C585 C 0.28383 0.7709 0.13455 0.0
C586 C 0.28355 0.85968 0.14069 0.0
C587 C 0.3034 0.90866 0.14112 0.0
H588 H 0.70618 0.24119 0.12697 0.0
H589 H 0.74438 0.01612 0.14792 0.0
H590 H 0.74089 0.3271 0.12499 0.0
H591 H 0.77871 0.10192 0.1466 0.0
H592 H 0.84026 0.25743 0.12521 0.0
H593 H 0.80557 0.17132 0.12328 0.0
H594 H 0.768 0.39229 0.14846 0.0
H595 H 0.80226 0.47828 0.14975 0.0
C596 C 0.72193 0.21012 0.1312 0.0
C597 C 0.72243 0.12182 0.13764 0.0
C598 C 0.74185 0.25939 0.13017 0.0
C599 C 0.76272 0.2216 0.13564 0.0
C600 C 0.76312 0.13306 0.14189 0.0
C601 C 0.7433 0.08393 0.14283 0.0
C602 C 0.82456 0.2875 0.13024 0.0
C603 C 0.8241 0.37472 0.13764 0.0
C604 C 0.80466 0.23812 0.12923 0.0
C605 C 0.78386 0.27474 0.13569 0.0
C606 C 0.78352 0.36214 0.14296 0.0
C607 C 0.80331 0.41136 0.14388 0.0
H608 H 0.74368 0.98004 0.64794 0.0
H609 H 0.70594 0.74309 0.63577 0.0
H610 H 0.77862 0.90069 0.6427 0.0
H611 H 0.74112 0.66202 0.63144 0.0
H612 H 0.80679 0.55627 0.60452 0.0
H613 H 0.77223 0.64049 0.60802 0.0
H614 H 0.80281 0.79827 0.65859 0.0
H615 H 0.83771 0.71595 0.65435 0.0
C616 C 0.74283 0.91054 0.64437 0.0
C617 C 0.72197 0.86786 0.6423 0.0
C618 C 0.76297 0.86476 0.64148 0.0
C619 C 0.76287 0.7746 0.63669 0.0
C620 C 0.74194 0.73169 0.63475 0.0
C621 C 0.72173 0.77792 0.63739 0.0
C622 C 0.80621 0.60964 0.61622 0.0
C623 C 0.82502 0.62951 0.62914 0.0
C624 C 0.78627 0.65743 0.61841 0.0
C625 C 0.78449 0.72586 0.63377 0.0
C626 C 0.80353 0.74686 0.64638 0.0
C627 C 0.8236 0.6996 0.64399 0.0
H628 H 0.206 0.23803 0.64348 0.0
H629 H 0.24204 0.46229 0.61823 0.0
H630 H 0.24077 0.15294 0.64277 0.0
H631 H 0.27652 0.37698 0.61688 0.0
H632 H 0.33909 0.22844 0.64016 0.0
H633 H 0.30438 0.31435 0.63992 0.0
H634 H 0.26741 0.08519 0.61908 0.0
H635 H 0.30176 -0.00054 0.61999 0.0
C636 C 0.22127 0.2688 0.63752 0.0
C637 C 0.22122 0.35697 0.63097 0.0
C638 C 0.24123 0.22001 0.63703 0.0
C639 C 0.26159 0.25808 0.62984 0.0
C640 C 0.26135 0.34584 0.62292 0.0
C641 C 0.24147 0.39462 0.62354 0.0
C642 C 0.32355 0.19676 0.63542 0.0
C643 C 0.3232 0.10707 0.6302 0.0
C644 C 0.30363 0.24596 0.6352 0.0
C645 C 0.28296 0.20667 0.62961 0.0
C646 C 0.28283 0.11739 0.62393 0.0
C647 C 0.30264 0.06829 0.62429 0.0
H648 H 0.69989 0.23089 0.89225 0.0
H649 H 0.73667 0.00842 0.91685 0.0
H650 H 0.73455 0.31689 0.89173 0.0
H651 H 0.771 0.0947 0.91722 0.0
H652 H 0.83333 0.24233 0.89384 0.0
H653 H 0.79863 0.15654 0.89426 0.0
H654 H 0.76136 0.3873 0.91381 0.0
H655 H 0.79575 0.47305 0.91249 0.0
C656 C 0.71531 0.20076 0.89781 0.0
C657 C 0.71553 0.11282 0.9045 0.0
C658 C 0.73521 0.25006 0.8976 0.0
C659 C 0.75574 0.21283 0.90435 0.0
C660 C 0.75573 0.12525 0.91144 0.0
C661 C 0.73594 0.07586 0.9114 0.0
C662 C 0.81771 0.27445 0.89826 0.0
C663 C 0.8173 0.36448 0.90304 0.0
C664 C 0.79779 0.22528 0.89861 0.0
C665 C 0.77704 0.26484 0.90401 0.0
C666 C 0.77683 0.35473 0.90912 0.0
C667 C 0.79665 0.40389 0.90852 0.0
H668 H 0.23863 0.49728 0.89138 0.0
H669 H 0.19988 0.73042 0.90538 0.0
H670 H 0.2729 0.58382 0.89049 0.0
H671 H 0.23448 0.81731 0.90495 0.0
H672 H 0.29666 0.95502 0.87659 0.0
H673 H 0.26239 0.86878 0.8791 0.0
H674 H 0.29849 0.66575 0.91327 0.0
H675 H 0.3331 0.75182 0.91036 0.0
C676 C 0.23741 0.56709 0.89442 0.0
C677 C 0.21644 0.60697 0.89838 0.0
C678 C 0.25716 0.61666 0.89407 0.0
C679 C 0.25652 0.70756 0.89768 0.0
C680 C 0.23556 0.74753 0.90184 0.0
C681 C 0.21573 0.69777 0.90218 0.0
C682 C 0.29737 0.89193 0.88464 0.0
C683 C 0.31769 0.86025 0.89324 0.0
C684 C 0.27761 0.84275 0.88624 0.0
C685 C 0.27759 0.76048 0.89649 0.0
C686 C 0.29794 0.72853 0.90507 0.0
C687 C 0.31777 0.77788 0.90346 0.0
H688 H 0.3946 0.14138 0.31917 0.0
H689 H 0.37316 0.87174 0.32491 0.0
H690 H 0.39392 0.12955 0.2797 0.0
H691 H 0.37181 0.86047 0.28501 0.0
H692 H 0.39894 0.84395 0.21462 0.0
H693 H 0.39648 0.85453 0.25413 0.0
H694 H 0.37049 0.11793 0.24848 0.0
H695 H 0.37362 0.10809 0.20868 0.0
C696 C 0.38951 0.07952 0.31201 0.0
C697 C 0.38401 0.00729 0.32529 0.0
C698 C 0.38894 0.07305 0.28925 0.0
C699 C 0.38275 -0.00578 0.27902 0.0
C700 C 0.37695 0.92202 0.29229 0.0
C701 C 0.37761 0.92844 0.31518 0.0
C702 C 0.39264 0.90426 0.22174 0.0
C703 C 0.38659 0.97545 0.20841 0.0
C704 C 0.39105 0.90997 0.24449 0.0
C705 C 0.38325 0.98696 0.25464 0.0
C706 C 0.37687 0.05792 0.24129 0.0
C707 C 0.37857 0.0523 0.21845 0.0
H708 H 0.64798 0.14777 0.21766 0.0
H709 H 0.67137 0.88087 0.21122 0.0
H710 H 0.6494 0.13589 0.25714 0.0
H711 H 0.67348 0.86967 0.25103 0.0
H712 H 0.64707 0.84789 0.32133 0.0
H713 H 0.64905 0.86021 0.2819 0.0
H714 H 0.67328 0.12619 0.28821 0.0
H715 H 0.67062 0.11453 0.32803 0.0
C716 C 0.65365 0.08657 0.22466 0.0
C717 C 0.65945 0.015 0.21121 0.0
C718 C 0.65465 0.08009 0.2474 0.0
C719 C 0.66159 0.00194 0.2574 0.0
C720 C 0.66775 0.93059 0.24393 0.0
C721 C 0.66664 0.93698 0.22109 0.0
C722 C 0.6529 0.90914 0.31439 0.0
C723 C 0.65859 0.98047 0.32791 0.0
C724 C 0.65422 0.91588 0.29167 0.0
C725 C 0.66139 -0.00596 0.28173 0.0
C726 C 0.66741 0.06523 0.29526 0.0
C727 C 0.66598 0.05858 0.3181 0.0
H728 H 0.63714 0.13077 0.82283 0.0
H729 H 0.66339 0.86794 0.82866 0.0
H730 H 0.63954 0.12052 0.78334 0.0
H731 H 0.66638 0.85838 0.78881 0.0
H732 H 0.64328 0.83722 0.71759 0.0
H733 H 0.64311 0.84722 0.75715 0.0
H734 H 0.66509 0.11679 0.75302 0.0
H735 H 0.66466 0.10734 0.7131 0.0
C736 C 0.64358 0.07074 0.81569 0.0
C737 C 0.65001 -4e-05 0.82898 0.0
C738 C 0.64514 0.06524 0.79295 0.0
C739 C 0.65326 0.98887 0.78277 0.0
C740 C 0.65981 0.91796 0.79605 0.0
C741 C 0.65817 0.9234 0.81891 0.0
C742 C 0.64813 0.89881 0.72504 0.0
C743 C 0.6539 0.97171 0.7121 0.0
C744 C 0.64821 0.90423 0.74783 0.0
C745 C 0.65414 0.98265 0.7584 0.0
C746 C 0.66014 0.05555 0.74546 0.0
C747 C 0.65999 0.05018 0.72257 0.0
H748 H 0.39842 0.84591 0.82028 0.0
H749 H 0.37149 0.10811 0.82545 0.0
H750 H 0.39724 0.85499 0.78074 0.0
H751 H 0.36974 0.11648 0.78555 0.0
H752 H 0.39534 0.13632 0.71479 0.0
H753 H 0.39398 0.12755 0.75434 0.0
H754 H 0.37271 0.85721 0.7499 0.0
H755 H 0.37469 0.86542 0.70999 0.0
C756 C 0.39209 0.90555 0.81298 0.0
C757 C 0.38511 0.97651 0.82611 0.0
C758 C 0.39123 0.91037 0.79021 0.0
C759 C 0.38329 0.98621 0.77982 0.0
C760 C 0.3762 0.05728 0.79295 0.0
C761 C 0.37713 0.05253 0.81584 0.0
C762 C 0.39031 0.07483 0.72217 0.0
C763 C 0.38522 0.00133 0.70914 0.0
C764 C 0.38935 0.07012 0.74495 0.0
C765 C 0.38321 -0.00819 0.75544 0.0
C766 C 0.37781 0.91839 0.74241 0.0
C767 C 0.37883 0.92307 0.71952 0.0
H768 H 0.89849 0.34282 0.21582 0.0
H769 H 0.87652 0.61204 0.21146 0.0
H770 H 0.89722 0.35147 0.25542 0.0
H771 H 0.87464 0.62007 0.25136 0.0
H772 H 0.90042 0.63363 0.32165 0.0
H773 H 0.89925 0.6243 0.2821 0.0
H774 H 0.87294 0.3608 0.28669 0.0
H775 H 0.87469 0.36946 0.32659 0.0
C776 C 0.8932 0.40388 0.22331 0.0
C777 C 0.8877 0.47698 0.2104 0.0
C778 C 0.89229 0.40852 0.2461 0.0
C779 C 0.8858 0.48635 0.2567 0.0
C780 C 0.88001 0.55932 0.24379 0.0
C781 C 0.88099 0.55473 0.2209 0.0
C782 C 0.89435 0.57352 0.3143 0.0
C783 C 0.88771 0.50209 0.32736 0.0
C784 C 0.89349 0.56852 0.29152 0.0
C785 C 0.8859 0.49202 0.28108 0.0
C786 C 0.87913 0.4205 0.29414 0.0
C787 C 0.88005 0.42544 0.31702 0.0
H788 H 0.1686 0.61703 0.3286 0.0
H789 H 0.13985 0.3582 0.32213 0.0
H790 H 0.1718 0.62695 0.28879 0.0
H791 H 0.14245 0.36889 0.28264 0.0
H792 H 0.16738 0.37981 0.21244 0.0
H793 H 0.16801 0.36968 0.25234 0.0
H794 H 0.14882 0.64224 0.25715 0.0
H795 H 0.14883 0.65285 0.21761 0.0
C796 C 0.16286 0.56254 0.31871 0.0
C797 C 0.15395 0.48698 0.32859 0.0
C798 C 0.16463 0.56819 0.29588 0.0
C799 C 0.15745 0.49852 0.28241 0.0
C800 C 0.14856 0.42314 0.2924 0.0
C801 C 0.14688 0.41741 0.31513 0.0
C802 C 0.16342 0.43753 0.22205 0.0
C803 C 0.15801 0.51695 0.21178 0.0
C804 C 0.16366 0.43176 0.24493 0.0
C805 C 0.15843 0.50521 0.25806 0.0
C806 C 0.1533 0.58469 0.24769 0.0
C807 C 0.15313 0.5905 0.22491 0.0
H808 H 0.1666 0.36242 0.82996 0.0
H809 H 0.13633 0.61806 0.82294 0.0
H810 H 0.17088 0.3526 0.79022 0.0
H811 H 0.14001 0.60742 0.78354 0.0
H812 H 0.16652 0.59969 0.71397 0.0
H813 H 0.16631 0.60955 0.7539 0.0
H814 H 0.14899 0.33487 0.75793 0.0
H815 H 0.14985 0.32458 0.71839 0.0
C816 C 0.16074 0.41617 0.81997 0.0
C817 C 0.15111 0.49086 0.82968 0.0
C818 C 0.16314 0.41061 0.79717 0.0
C819 C 0.15588 0.47948 0.78357 0.0
C820 C 0.14622 0.55388 0.7934 0.0
C821 C 0.14392 0.55954 0.81608 0.0
C822 C 0.16282 0.54143 0.72342 0.0
C823 C 0.15814 0.46155 0.71293 0.0
C824 C 0.16257 0.54704 0.74632 0.0
C825 C 0.15756 0.47296 0.75924 0.0
C826 C 0.15325 0.39297 0.74865 0.0
C827 C 0.15357 0.38734 0.72586 0.0
H828 H 0.87326 0.36794 0.71173 0.0
H829 H 0.89564 0.63645 0.71755 0.0
H830 H 0.87104 0.35775 0.7516 0.0
H831 H 0.89405 0.62565 0.75703 0.0
H832 H 0.87157 0.60549 0.82791 0.0
H833 H 0.86966 0.61548 0.78806 0.0
H834 H 0.89541 0.3515 0.78251 0.0
H835 H 0.89672 0.34083 0.82203 0.0
C836 C 0.87773 0.42462 0.72147 0.0
C837 C 0.88467 0.50281 0.7114 0.0
C838 C 0.87656 0.41881 0.74434 0.0
C839 C 0.88237 0.49098 0.75763 0.0
C840 C 0.88907 0.56921 0.74744 0.0
C841 C 0.89017 0.57507 0.72469 0.0
C842 C 0.87677 0.54968 0.81815 0.0
C843 C 0.88433 0.47255 0.8282 0.0
C844 C 0.87575 0.55536 0.79529 0.0
C845 C 0.88235 0.48414 0.78198 0.0
C846 C 0.8898 0.40707 0.79214 0.0
C847 C 0.89074 0.40133 0.81489 0.0
loop_
_geom_bond_atom_site_label_1
_geom_bond_atom_site_label_2
_geom_bond_distance
_geom_bond_site_symmetry_2
_ccdc_geom_bond_type
Mg0 O7 2.141 . S
Mg0 O8 2.048 . S
Mg0 O9 2.048 . S
Mg0 O12 2.141 . S
C1 O2 1.313 . S
C1 O8 1.195 . S
O2 C1 1.313 . S
C3 O4 1.245 . S
C3 O12 1.289 . S
O4 C3 1.245 . S
C5 O6 1.245 . S
C5 O7 1.289 . S
O6 C5 1.245 . S
O7 Mg0 2.141 . S
O7 C5 1.289 . S
O8 Mg0 2.048 . S
O8 C1 1.195 . S
O9 Mg0 2.048 . S
O9 C10 1.195 . S
C10 O9 1.195 . S
C10 O11 1.313 . S
O11 C10 1.313 . S
O12 Mg0 2.141 . S
O12 C3 1.289 . S
Mg13 O20 2.141 . S
Mg13 O21 2.048 . S
Mg13 O22 2.048 . S
Mg13 O25 2.141 . S
C14 O15 1.313 . S
C14 O21 1.195 . S
O15 C14 1.313 . S
C16 O17 1.245 . S
C16 O25 1.289 . S
O17 C16 1.245 . S
C18 O19 1.245 . S
C18 O20 1.289 . S
O19 C18 1.245 . S
O20 Mg13 2.141 . S
O20 C18 1.289 . S
O21 Mg13 2.048 . S
O21 C14 1.195 . S
O22 Mg13 2.048 . S
O22 C23 1.195 . S
C23 O22 1.195 . S
C23 O24 1.313 . S
O24 C23 1.313 . S
O25 Mg13 2.141 . S
O25 C16 1.289 . S
Mg26 O33 2.141 . S
Mg26 O34 2.048 . S
Mg26 O35 2.048 . S
Mg26 O38 2.141 . S
C27 O28 1.313 . S
C27 O34 1.195 . S
O28 C27 1.313 . S
C29 O30 1.245 . S
C29 O38 1.289 . S
O30 C29 1.245 . S
C31 O32 1.245 . S
C31 O33 1.289 . S
O32 C31 1.245 . S
O33 Mg26 2.141 . S
O33 C31 1.289 . S
O34 Mg26 2.048 . S
O34 C27 1.195 . S
O35 Mg26 2.048 . S
O35 C36 1.195 . S
C36 O35 1.195 . S
C36 O37 1.313 . S
O37 C36 1.313 . S
O38 Mg26 2.141 . S
O38 C29 1.289 . S
Mg39 O46 2.141 . S
Mg39 O47 2.048 . S
Mg39 O48 2.048 . S
Mg39 O51 2.141 . S
C40 O41 1.313 . S
C40 O47 1.195 . S
O41 C40 1.313 . S
C42 O43 1.245 . S
C42 O51 1.289 . S
O43 C42 1.245 . S
C44 O45 1.245 . S
C44 O46 1.289 . S
O45 C44 1.245 . S
O46 Mg39 2.141 . S
O46 C44 1.289 . S
O47 Mg39 2.048 . S
O47 C40 1.195 . S
O48 Mg39 2.048 . S
O48 C49 1.195 . S
C49 O48 1.195 . S
C49 O50 1.313 . S
O50 C49 1.313 . S
O51 Mg39 2.141 . S
O51 C42 1.289 . S
Mg52 O59 2.141 . S
Mg52 O60 2.048 . S
Mg52 O61 2.048 . S
Mg52 O64 2.141 . S
C53 O54 1.313 . S
C53 O60 1.195 . S
O54 C53 1.313 . S
C55 O56 1.245 1_565 S
C55 O64 1.289 . S
O56 C55 1.245 1_545 S
C57 O58 1.245 . S
C57 O59 1.289 . S
O58 C57 1.245 . S
O59 Mg52 2.141 . S
O59 C57 1.289 . S
O60 Mg52 2.048 . S
O60 C53 1.195 . S
O61 Mg52 2.048 . S
O61 C62 1.195 . S
C62 O61 1.195 . S
C62 O63 1.313 1_565 S
O63 C62 1.313 1_545 S
O64 Mg52 2.141 . S
O64 C55 1.289 . S
Mg65 O72 2.141 . S
Mg65 O73 2.048 . S
Mg65 O74 2.048 . S
Mg65 O77 2.141 . S
C66 O67 1.313 . S
C66 O73 1.195 . S
O67 C66 1.313 . S
C68 O69 1.245 1_545 S
C68 O77 1.289 . S
O69 C68 1.245 1_565 S
C70 O71 1.245 . S
C70 O72 1.289 . S
O71 C70 1.245 . S
O72 Mg65 2.141 . S
O72 C70 1.289 . S
O73 Mg65 2.048 . S
O73 C66 1.195 . S
O74 Mg65 2.048 . S
O74 C75 1.195 . S
C75 O74 1.195 . S
C75 O76 1.313 1_545 S
O76 C75 1.313 1_565 S
O77 Mg65 2.141 . S
O77 C68 1.289 . S
Mg78 O85 2.141 . S
Mg78 O86 2.048 . S
Mg78 O87 2.048 . S
Mg78 O90 2.141 . S
C79 O80 1.313 . S
C79 O86 1.195 . S
O80 C79 1.313 . S
C81 O82 1.245 1_545 S
C81 O90 1.289 . S
O82 C81 1.245 1_565 S
C83 O84 1.245 . S
C83 O85 1.289 . S
O84 C83 1.245 . S
O85 Mg78 2.141 . S
O85 C83 1.289 . S
O86 Mg78 2.048 . S
O86 C79 1.195 . S
O87 Mg78 2.048 . S
O87 C88 1.195 . S
C88 O87 1.195 . S
C88 O89 1.313 1_545 S
O89 C88 1.313 1_565 S
O90 Mg78 2.141 . S
O90 C81 1.289 . S
Mg91 O98 2.141 . S
Mg91 O99 2.048 . S
Mg91 O100 2.048 . S
Mg91 O103 2.141 . S
C92 O93 1.313 . S
C92 O99 1.195 . S
O93 C92 1.313 . S
C94 O95 1.245 1_565 S
C94 O103 1.289 . S
O95 C94 1.245 1_545 S
C96 O97 1.245 . S
C96 O98 1.289 . S
O97 C96 1.245 . S
O98 Mg91 2.141 . S
O98 C96 1.289 . S
O99 Mg91 2.048 . S
O99 C92 1.195 . S
O100 Mg91 2.048 . S
O100 C101 1.195 . S
C101 O100 1.195 . S
C101 O102 1.313 1_565 S
O102 C101 1.313 1_545 S
O103 Mg91 2.141 . S
O103 C94 1.289 . S
Mg104 O111 2.141 . S
Mg104 O112 2.048 . S
Mg104 O113 2.048 . S
Mg104 O116 2.141 . S
C105 O106 1.313 . S
C105 O112 1.195 . S
O106 C105 1.313 . S
C107 O108 1.245 . S
C107 O116 1.289 . S
O108 C107 1.245 . S
C109 O110 1.245 . S
C109 O111 1.289 . S
O110 C109 1.245 . S
O111 Mg104 2.141 . S
O111 C109 1.289 . S
O112 Mg104 2.048 . S
O112 C105 1.195 . S
O113 Mg104 2.048 . S
O113 C114 1.195 . S
C114 O113 1.195 . S
C114 O115 1.313 . S
O115 C114 1.313 . S
O116 Mg104 2.141 . S
O116 C107 1.289 . S
Mg117 O124 2.141 . S
Mg117 O125 2.048 . S
Mg117 O126 2.048 . S
Mg117 O129 2.141 . S
C118 O119 1.313 . S
C118 O125 1.195 . S
O119 C118 1.313 . S
C120 O121 1.245 . S
C120 O129 1.289 . S
O121 C120 1.245 . S
C122 O123 1.245 . S
C122 O124 1.289 . S
O123 C122 1.245 . S
O124 Mg117 2.141 . S
O124 C122 1.289 . S
O125 Mg117 2.048 . S
O125 C118 1.195 . S
O126 Mg117 2.048 . S
O126 C127 1.195 . S
C127 O126 1.195 . S
C127 O128 1.313 . S
O128 C127 1.313 . S
O129 Mg117 2.141 . S
O129 C120 1.289 . S
Mg130 O137 2.141 . S
Mg130 O138 2.048 . S
Mg130 O139 2.048 . S
Mg130 O142 2.141 . S
C131 O132 1.313 . S
C131 O138 1.195 . S
O132 C131 1.313 . S
C133 O134 1.245 . S
C133 O142 1.289 . S
O134 C133 1.245 . S
C135 O136 1.245 . S
C135 O137 1.289 . S
O136 C135 1.245 . S
O137 Mg130 2.141 . S
O137 C135 1.289 . S
O138 Mg130 2.048 . S
O138 C131 1.195 . S
O139 Mg130 2.048 . S
O139 C140 1.195 . S
C140 O139 1.195 . S
C140 O141 1.313 . S
O141 C140 1.313 . S
O142 Mg130 2.141 . S
O142 C133 1.289 . S
Mg143 O150 2.141 . S
Mg143 O151 2.048 . S
Mg143 O152 2.048 . S
Mg143 O155 2.141 . S
C144 O145 1.313 . S
C144 O151 1.195 . S
O145 C144 1.313 . S
C146 O147 1.245 . S
C146 O155 1.289 . S
O147 C146 1.245 . S
C148 O149 1.245 . S
C148 O150 1.289 . S
O149 C148 1.245 . S
O150 Mg143 2.141 . S
O150 C148 1.289 . S
O151 Mg143 2.048 . S
O151 C144 1.195 . S
O152 Mg143 2.048 . S
O152 C153 1.195 . S
C153 O152 1.195 . S
C153 O154 1.313 . S
O154 C153 1.313 . S
O155 Mg143 2.141 . S
O155 C146 1.289 . S
Mg156 O163 2.141 . S
Mg156 O164 2.048 . S
Mg156 O165 2.048 . S
Mg156 O168 2.141 . S
C157 O158 1.313 . S
C157 O164 1.195 . S
O158 C157 1.313 . S
C159 O160 1.245 . S
C159 O168 1.289 . S
O160 C159 1.245 . S
C161 O162 1.245 . S
C161 O163 1.289 . S
O162 C161 1.245 . S
O163 Mg156 2.141 . S
O163 C161 1.289 . S
O164 Mg156 2.048 . S
O164 C157 1.195 . S
O165 Mg156 2.048 . S
O165 C166 1.195 . S
C166 O165 1.195 . S
C166 O167 1.313 . S
O167 C166 1.313 . S
O168 Mg156 2.141 . S
O168 C159 1.289 . S
Mg169 O176 2.141 . S
Mg169 O177 2.048 . S
Mg169 O178 2.048 . S
Mg169 O181 2.141 . S
C170 O171 1.313 . S
C170 O177 1.195 . S
O171 C170 1.313 . S
C172 O173 1.245 . S
C172 O181 1.289 . S
O173 C172 1.245 . S
C174 O175 1.245 . S
C174 O176 1.289 . S
O175 C174 1.245 . S
O176 Mg169 2.141 . S
O176 C174 1.289 . S
O177 Mg169 2.048 . S
O177 C170 1.195 . S
O178 Mg169 2.048 . S
O178 C179 1.195 . S
C179 O178 1.195 . S
C179 O180 1.313 . S
O180 C179 1.313 . S
O181 Mg169 2.141 . S
O181 C172 1.289 . S
Mg182 O189 2.141 . S
Mg182 O190 2.048 . S
Mg182 O191 2.048 . S
Mg182 O194 2.141 . S
C183 O184 1.313 . S
C183 O190 1.195 . S
O184 C183 1.313 . S
C185 O186 1.245 . S
C185 O194 1.289 . S
O186 C185 1.245 . S
C187 O188 1.245 . S
C187 O189 1.289 . S
O188 C187 1.245 . S
O189 Mg182 2.141 . S
O189 C187 1.289 . S
O190 Mg182 2.048 . S
O190 C183 1.195 . S
O191 Mg182 2.048 . S
O191 C192 1.195 . S
C192 O191 1.195 . S
C192 O193 1.313 . S
O193 C192 1.313 . S
O194 Mg182 2.141 . S
O194 C185 1.289 . S
Mg195 O202 2.141 . S
Mg195 O203 2.048 . S
Mg195 O204 2.048 . S
Mg195 O207 2.141 . S
C196 O197 1.313 . S
C196 O203 1.195 . S
O197 C196 1.313 . S
C198 O199 1.245 . S
C198 O207 1.289 . S
O199 C198 1.245 . S
C200 O201 1.245 . S
C200 O202 1.289 . S
O201 C200 1.245 . S
O202 Mg195 2.141 . S
O202 C200 1.289 . S
O203 Mg195 2.048 . S
O203 C196 1.195 . S
O204 Mg195 2.048 . S
O204 C205 1.195 . S
C205 O204 1.195 . S
C205 O206 1.313 . S
O206 C205 1.313 . S
O207 Mg195 2.141 . S
O207 C198 1.289 . S
H208 C216 0.950 . S
H209 C221 0.950 . S
H210 C218 0.950 . S
H211 C220 0.950 . S
H212 C222 0.950 . S
H213 C224 0.950 . S
H214 C226 0.950 . S
H215 C227 0.950 . S
C216 H208 0.950 . S
C216 C217 1.386 . S
C216 C218 1.391 . S
C217 C216 1.386 . S
C217 C221 1.393 . S
C218 H210 0.950 . S
C218 C216 1.391 . S
C218 C219 1.400 . S
C219 C218 1.400 . S
C219 C220 1.398 . S
C219 C225 1.491 . S
C220 H211 0.950 . S
C220 C219 1.398 . S
C220 C221 1.391 . S
C221 H209 0.950 . S
C221 C217 1.393 . S
C221 C220 1.391 . S
C222 H212 0.950 . S
C222 C223 1.386 . S
C222 C224 1.391 . S
C223 C222 1.386 . S
C223 C227 1.393 . S
C224 H213 0.950 . S
C224 C222 1.391 . S
C224 C225 1.400 . S
C225 C219 1.491 . S
C225 C224 1.400 . S
C225 C226 1.398 . S
C226 H214 0.950 . S
C226 C225 1.398 . S
C226 C227 1.391 . S
C227 H215 0.950 . S
C227 C223 1.393 . S
C227 C226 1.391 . S
H228 C236 0.950 . S
H229 C241 0.950 . S
H230 C238 0.950 . S
H231 C240 0.950 . S
H232 C242 0.950 . S
H233 C244 0.950 . S
H234 C246 0.950 . S
H235 C247 0.950 . S
C236 H228 0.950 . S
C236 C237 1.386 . S
C236 C238 1.391 . S
C237 C236 1.386 . S
C237 C241 1.393 . S
C238 H230 0.950 . S
C238 C236 1.391 . S
C238 C239 1.400 . S
C239 C238 1.400 . S
C239 C240 1.398 . S
C239 C245 1.491 . S
C240 H231 0.950 . S
C240 C239 1.398 . S
C240 C241 1.391 . S
C241 H229 0.950 . S
C241 C237 1.393 . S
C241 C240 1.391 . S
C242 H232 0.950 . S
C242 C243 1.386 . S
C242 C244 1.391 . S
C243 C242 1.386 . S
C243 C247 1.393 . S
C244 H233 0.950 . S
C244 C242 1.391 . S
C244 C245 1.400 . S
C245 C239 1.491 . S
C245 C244 1.400 . S
C245 C246 1.398 . S
C246 H234 0.950 . S
C246 C245 1.398 . S
C246 C247 1.391 . S
C247 H235 0.950 . S
C247 C243 1.393 . S
C247 C246 1.391 . S
H248 C256 0.950 1_545 S
H249 C261 0.950 . S
H250 C258 0.949 1_545 S
H251 C260 0.950 . S
H252 C262 0.950 . S
H253 C264 0.950 . S
H254 C266 0.950 . S
H255 C267 0.950 . S
C256 H248 0.950 1_565 S
C256 C257 1.386 . S
C256 C258 1.391 . S
C257 C256 1.386 . S
C257 C261 1.393 . S
C258 H250 0.949 1_565 S
C258 C256 1.391 . S
C258 C259 1.400 . S
C259 C258 1.400 . S
C259 C260 1.398 . S
C259 C265 1.491 1_554 S
C260 H251 0.950 . S
C260 C259 1.398 . S
C260 C261 1.391 . S
C261 H249 0.950 . S
C261 C257 1.393 . S
C261 C260 1.391 . S
C262 H252 0.950 . S
C262 C263 1.386 . S
C262 C264 1.391 . S
C263 C262 1.386 . S
C263 C267 1.393 . S
C264 H253 0.950 . S
C264 C262 1.391 . S
C264 C265 1.400 . S
C265 C259 1.491 1_556 S
C265 C264 1.400 . S
C265 C266 1.398 . S
C266 H254 0.950 . S
C266 C265 1.398 . S
C266 C267 1.391 . S
C267 H255 0.950 . S
C267 C263 1.393 . S
C267 C266 1.391 . S
H268 C276 0.950 . S
H269 C281 0.950 . S
H270 C278 0.950 . S
H271 C280 0.950 . S
H272 C282 0.950 . S
H273 C284 0.950 . S
H274 C286 0.950 . S
H275 C287 0.950 . S
C276 H268 0.950 . S
C276 C277 1.386 . S
C276 C278 1.391 . S
C277 C276 1.386 . S
C277 C281 1.393 . S
C278 H270 0.950 . S
C278 C276 1.391 . S
C278 C279 1.400 . S
C279 C278 1.400 . S
C279 C280 1.398 . S
C279 C285 1.491 1_556 S
C280 H271 0.950 . S
C280 C279 1.398 . S
C280 C281 1.391 . S
C281 H269 0.950 . S
C281 C277 1.393 . S
C281 C280 1.391 . S
C282 H272 0.950 . S
C282 C283 1.386 . S
C282 C284 1.391 . S
C283 C282 1.386 . S
C283 C287 1.393 . S
C284 H273 0.950 . S
C284 C282 1.391 . S
C284 C285 1.400 . S
C285 C279 1.491 1_554 S
C285 C284 1.400 . S
C285 C286 1.398 . S
C286 H274 0.950 . S
C286 C285 1.398 . S
C286 C287 1.391 . S
C287 H275 0.950 . S
C287 C283 1.393 . S
C287 C286 1.391 . S
H288 C296 0.950 . S
H289 C301 0.950 . S
H290 C298 0.950 . S
H291 C300 0.950 . S
H292 C302 0.950 . S
H293 C304 0.950 . S
H294 C306 0.950 . S
H295 C307 0.950 . S
C296 H288 0.950 . S
C296 C297 1.386 . S
C296 C298 1.391 . S
C297 C296 1.386 . S
C297 C301 1.393 . S
C298 H290 0.950 . S
C298 C296 1.391 . S
C298 C299 1.400 . S
C299 C298 1.400 . S
C299 C300 1.398 . S
C299 C305 1.491 . S
C300 H291 0.950 . S
C300 C299 1.398 . S
C300 C301 1.391 . S
C301 H289 0.950 . S
C301 C297 1.393 . S
C301 C300 1.391 . S
C302 H292 0.950 . S
C302 C303 1.386 . S
C302 C304 1.391 . S
C303 C302 1.386 . S
C303 C307 1.393 . S
C304 H293 0.950 . S
C304 C302 1.391 . S
C304 C305 1.400 . S
C305 C299 1.491 . S
C305 C304 1.400 . S
C305 C306 1.398 . S
C306 H294 0.950 . S
C306 C305 1.398 . S
C306 C307 1.391 . S
C307 H295 0.950 . S
C307 C303 1.393 . S
C307 C306 1.391 . S
H308 C316 0.950 . S
H309 C321 0.950 . S
H310 C318 0.950 . S
H311 C320 0.950 . S
H312 C322 0.950 . S
H313 C324 0.950 . S
H314 C326 0.950 . S
H315 C327 0.950 . S
C316 H308 0.950 . S
C316 C317 1.386 . S
C316 C318 1.391 . S
C317 C316 1.386 . S
C317 C321 1.393 . S
C318 H310 0.950 . S
C318 C316 1.391 . S
C318 C319 1.400 . S
C319 C318 1.400 . S
C319 C320 1.398 . S
C319 C325 1.491 . S
C320 H311 0.950 . S
C320 C319 1.398 . S
C320 C321 1.391 . S
C321 H309 0.950 . S
C321 C317 1.393 . S
C321 C320 1.391 . S
C322 H312 0.950 . S
C322 C323 1.386 . S
C322 C324 1.391 . S
C323 C322 1.386 . S
C323 C327 1.393 . S
C324 H313 0.950 . S
C324 C322 1.391 . S
C324 C325 1.400 . S
C325 C319 1.491 . S
C325 C324 1.400 . S
C325 C326 1.398 . S
C326 H314 0.950 . S
C326 C325 1.398 . S
C326 C327 1.391 . S
C327 H315 0.950 . S
C327 C323 1.393 . S
C327 C326 1.391 . S
H328 C336 0.950 . S
H329 C341 0.950 . S
H330 C338 0.950 . S
H331 C340 0.950 . S
H332 C342 0.950 . S
H333 C344 0.950 . S
H334 C346 0.950 . S
H335 C347 0.950 . S
C336 H328 0.950 . S
C336 C337 1.386 . S
C336 C338 1.391 . S
C337 C336 1.386 . S
C337 C341 1.393 . S
C338 H330 0.950 . S
C338 C336 1.391 . S
C338 C339 1.400 . S
C339 C338 1.400 . S
C339 C340 1.398 . S
C339 C345 1.491 1_556 S
C340 H331 0.950 . S
C340 C339 1.398 . S
C340 C341 1.391 . S
C341 H329 0.950 . S
C341 C337 1.393 . S
C341 C340 1.391 . S
C342 H332 0.950 . S
C342 C343 1.386 . S
C342 C344 1.391 . S
C343 C342 1.386 . S
C343 C347 1.393 . S
C344 H333 0.950 . S
C344 C342 1.391 . S
C344 C345 1.400 . S
C345 C339 1.491 1_554 S
C345 C344 1.400 . S
C345 C346 1.398 . S
C346 H334 0.950 . S
C346 C345 1.398 . S
C346 C347 1.391 . S
C347 H335 0.950 . S
C347 C343 1.393 . S
C347 C346 1.391 . S
H348 C356 0.950 . S
H349 C361 0.950 . S
H350 C358 0.950 . S
H351 C360 0.950 . S
H352 C362 0.950 . S
H353 C364 0.950 . S
H354 C366 0.950 . S
H355 C367 0.950 . S
C356 H348 0.950 . S
C356 C357 1.386 . S
C356 C358 1.391 . S
C357 C356 1.386 . S
C357 C361 1.393 . S
C358 H350 0.950 . S
C358 C356 1.391 . S
C358 C359 1.400 . S
C359 C358 1.400 . S
C359 C360 1.398 . S
C359 C365 1.491 1_554 S
C360 H351 0.950 . S
C360 C359 1.398 . S
C360 C361 1.391 . S
C361 H349 0.950 . S
C361 C357 1.393 . S
C361 C360 1.391 . S
C362 H352 0.950 . S
C362 C363 1.386 . S
C362 C364 1.391 . S
C363 C362 1.386 . S
C363 C367 1.393 . S
C364 H353 0.950 . S
C364 C362 1.391 . S
C364 C365 1.400 . S
C365 C359 1.491 1_556 S
C365 C364 1.400 . S
C365 C366 1.398 . S
C366 H354 0.950 . S
C366 C365 1.398 . S
C366 C367 1.391 . S
C367 H355 0.950 . S
C367 C363 1.393 . S
C367 C366 1.391 . S
H368 C376 0.950 . S
H369 C381 0.950 . S
H370 C378 0.950 . S
H371 C380 0.950 . S
H372 C382 0.950 . S
H373 C384 0.950 . S
H374 C386 0.950 . S
H375 C387 0.950 . S
C376 H368 0.950 . S
C376 C377 1.386 1_545 S
C376 C378 1.391 . S
C377 C376 1.386 1_565 S
C377 C381 1.393 . S
C378 H370 0.950 . S
C378 C376 1.391 . S
C378 C379 1.400 1_545 S
C379 C378 1.400 1_565 S
C379 C380 1.398 . S
C379 C385 1.491 1_565 S
C380 H371 0.950 . S
C380 C379 1.398 . S
C380 C381 1.391 . S
C381 H369 0.950 . S
C381 C377 1.393 . S
C381 C380 1.391 . S
C382 H372 0.950 . S
C382 C383 1.386 1_565 S
C382 C384 1.391 . S
C383 C382 1.386 1_545 S
C383 C387 1.393 . S
C384 H373 0.950 . S
C384 C382 1.391 . S
C384 C385 1.400 1_565 S
C385 C379 1.491 1_545 S
C385 C384 1.400 1_545 S
C385 C386 1.398 . S
C386 H374 0.950 . S
C386 C385 1.398 . S
C386 C387 1.391 . S
C387 H375 0.950 . S
C387 C383 1.393 . S
C387 C386 1.391 . S
H388 C396 0.950 . S
H389 C401 0.950 . S
H390 C398 0.950 . S
H391 C400 0.950 . S
H392 C402 0.950 . S
H393 C404 0.950 . S
H394 C406 0.950 . S
H395 C407 0.950 . S
C396 H388 0.950 . S
C396 C397 1.386 1_545 S
C396 C398 1.391 . S
C397 C396 1.386 1_565 S
C397 C401 1.393 . S
C398 H390 0.950 . S
C398 C396 1.391 . S
C398 C399 1.400 1_545 S
C399 C398 1.400 1_565 S
C399 C400 1.398 . S
C399 C405 1.491 1_565 S
C400 H391 0.950 . S
C400 C399 1.398 . S
C400 C401 1.391 . S
C401 H389 0.950 . S
C401 C397 1.393 . S
C401 C400 1.391 . S
C402 H392 0.950 . S
C402 C403 1.386 1_565 S
C402 C404 1.391 . S
C403 C402 1.386 1_545 S
C403 C407 1.393 . S
C404 H393 0.950 . S
C404 C402 1.391 . S
C404 C405 1.400 1_565 S
C405 C399 1.491 1_545 S
C405 C404 1.400 1_545 S
C405 C406 1.398 . S
C406 H394 0.950 . S
C406 C405 1.398 . S
C406 C407 1.391 . S
C407 H395 0.950 . S
C407 C403 1.393 . S
C407 C406 1.391 . S
H408 C416 0.950 . S
H409 C421 0.950 . S
H410 C418 0.950 . S
H411 C420 0.950 . S
H412 C422 0.950 . S
H413 C424 0.950 . S
H414 C426 0.950 . S
H415 C427 0.950 . S
C416 H408 0.950 . S
C416 C417 1.386 . S
C416 C418 1.391 . S
C417 C416 1.386 . S
C417 C421 1.393 1_565 S
C418 H410 0.950 . S
C418 C416 1.391 . S
C418 C419 1.400 . S
C419 C418 1.400 . S
C419 C420 1.398 1_565 S
C419 C425 1.491 1_565 S
C420 H411 0.950 . S
C420 C419 1.398 1_545 S
C420 C421 1.391 . S
C421 H409 0.950 . S
C421 C417 1.393 1_545 S
C421 C420 1.391 . S
C422 H412 0.950 . S
C422 C423 1.386 . S
C422 C424 1.391 . S
C423 C422 1.386 . S
C423 C427 1.393 1_545 S
C424 H413 0.950 . S
C424 C422 1.391 . S
C424 C425 1.400 . S
C425 C419 1.491 1_545 S
C425 C424 1.400 . S
C425 C426 1.398 1_545 S
C426 H414 0.950 . S
C426 C425 1.398 1_565 S
C426 C427 1.391 . S
C427 H415 0.950 . S
C427 C423 1.393 1_565 S
C427 C426 1.391 . S
H428 C436 0.950 . S
H429 C441 0.950 . S
H430 C438 0.950 . S
H431 C440 0.950 . S
H432 C442 0.950 . S
H433 C444 0.950 . S
H434 C446 0.950 . S
H435 C447 0.950 . S
C436 H428 0.950 . S
C436 C437 1.386 1_565 S
C436 C438 1.391 . S
C437 C436 1.386 1_545 S
C437 C441 1.393 . S
C438 H430 0.950 . S
C438 C436 1.391 . S
C438 C439 1.400 1_565 S
C439 C438 1.400 1_545 S
C439 C440 1.398 . S
C439 C445 1.491 1_545 S
C440 H431 0.950 . S
C440 C439 1.398 . S
C440 C441 1.391 . S
C441 H429 0.950 . S
C441 C437 1.393 . S
C441 C440 1.391 . S
C442 H432 0.950 . S
C442 C443 1.386 1_545 S
C442 C444 1.391 . S
C443 C442 1.386 1_565 S
C443 C447 1.393 . S
C444 H433 0.950 . S
C444 C442 1.391 . S
C444 C445 1.400 1_545 S
C445 C439 1.491 1_565 S
C445 C444 1.400 1_565 S
C445 C446 1.398 . S
C446 H434 0.950 . S
C446 C445 1.398 . S
C446 C447 1.391 . S
C447 H435 0.950 . S
C447 C443 1.393 . S
C447 C446 1.391 . S
H448 C456 0.950 . S
H449 C461 0.950 . S
H450 C458 0.950 . S
H451 C460 0.950 . S
H452 C462 0.950 . S
H453 C464 0.950 . S
H454 C466 0.950 . S
H455 C467 0.950 . S
C456 H448 0.950 . S
C456 C457 1.386 . S
C456 C458 1.391 . S
C457 C456 1.386 . S
C457 C461 1.393 . S
C458 H450 0.950 . S
C458 C456 1.391 . S
C458 C459 1.400 . S
C459 C458 1.400 . S
C459 C460 1.398 . S
C459 C465 1.491 1_655 S
C460 H451 0.950 . S
C460 C459 1.398 . S
C460 C461 1.391 . S
C461 H449 0.950 . S
C461 C457 1.393 . S
C461 C460 1.391 . S
C462 H452 0.950 . S
C462 C463 1.386 . S
C462 C464 1.391 . S
C463 C462 1.386 . S
C463 C467 1.393 . S
C464 H453 0.950 . S
C464 C462 1.391 . S
C464 C465 1.400 . S
C465 C459 1.491 1_455 S
C465 C464 1.400 . S
C465 C466 1.398 . S
C466 H454 0.950 . S
C466 C465 1.398 . S
C466 C467 1.391 . S
C467 H455 0.950 . S
C467 C463 1.393 . S
C467 C466 1.391 . S
H468 C476 0.950 . S
H469 C481 0.950 . S
H470 C478 0.950 . S
H471 C480 0.950 . S
H472 C482 0.950 . S
H473 C484 0.950 . S
H474 C486 0.950 . S
H475 C487 0.950 . S
C476 H468 0.950 . S
C476 C477 1.386 . S
C476 C478 1.391 . S
C477 C476 1.386 . S
C477 C481 1.393 . S
C478 H470 0.950 . S
C478 C476 1.391 . S
C478 C479 1.400 . S
C479 C478 1.400 . S
C479 C480 1.398 . S
C479 C485 1.491 1_455 S
C480 H471 0.950 . S
C480 C479 1.398 . S
C480 C481 1.391 . S
C481 H469 0.950 . S
C481 C477 1.393 . S
C481 C480 1.391 . S
C482 H472 0.950 . S
C482 C483 1.386 . S
C482 C484 1.391 . S
C483 C482 1.386 . S
C483 C487 1.393 . S
C484 H473 0.950 . S
C484 C482 1.391 . S
C484 C485 1.400 . S
C485 C479 1.491 1_655 S
C485 C484 1.400 . S
C485 C486 1.398 . S
C486 H474 0.950 . S
C486 C485 1.398 . S
C486 C487 1.391 . S
C487 H475 0.950 . S
C487 C483 1.393 . S
C487 C486 1.391 . S
H488 C496 0.950 . S
H489 C501 0.950 . S
H490 C498 0.950 . S
H491 C500 0.950 . S
H492 C502 0.950 . S
H493 C504 0.950 . S
H494 C506 0.950 . S
H495 C507 0.950 . S
C496 H488 0.950 . S
C496 C497 1.386 . S
C496 C498 1.391 . S
C497 C496 1.386 . S
C497 C501 1.393 . S
C498 H490 0.950 . S
C498 C496 1.391 . S
C498 C499 1.400 . S
C499 C498 1.400 . S
C499 C500 1.398 . S
C499 C505 1.491 1_655 S
C500 H491 0.950 . S
C500 C499 1.398 . S
C500 C501 1.391 . S
C501 H489 0.950 . S
C501 C497 1.393 . S
C501 C500 1.391 . S
C502 H492 0.950 . S
C502 C503 1.386 . S
C502 C504 1.391 . S
C503 C502 1.386 . S
C503 C507 1.393 . S
C504 H493 0.950 . S
C504 C502 1.391 . S
C504 C505 1.400 . S
C505 C499 1.491 1_455 S
C505 C504 1.400 . S
C505 C506 1.398 . S
C506 H494 0.950 . S
C506 C505 1.398 . S
C506 C507 1.391 . S
C507 H495 0.950 . S
C507 C503 1.393 . S
C507 C506 1.391 . S
H508 C516 0.950 . S
H509 C521 0.950 . S
H510 C518 0.950 . S
H511 C520 0.950 . S
H512 C522 0.950 . S
H513 C524 0.950 . S
H514 C526 0.950 . S
H515 C527 0.950 . S
C516 H508 0.950 . S
C516 C517 1.386 . S
C516 C518 1.391 . S
C517 C516 1.386 . S
C517 C521 1.393 . S
C518 H510 0.950 . S
C518 C516 1.391 . S
C518 C519 1.400 . S
C519 C518 1.400 . S
C519 C520 1.398 . S
C519 C525 1.491 1_455 S
C520 H511 0.950 . S
C520 C519 1.398 . S
C520 C521 1.391 . S
C521 H509 0.950 . S
C521 C517 1.393 . S
C521 C520 1.391 . S
C522 H512 0.950 . S
C522 C523 1.386 . S
C522 C524 1.391 . S
C523 C522 1.386 . S
C523 C527 1.393 . S
C524 H513 0.950 . S
C524 C522 1.391 . S
C524 C525 1.400 . S
C525 C519 1.491 1_655 S
C525 C524 1.400 . S
C525 C526 1.398 . S
C526 H514 0.950 . S
C526 C525 1.398 . S
C526 C527 1.391 . S
C527 H515 0.950 . S
C527 C523 1.393 . S
C527 C526 1.391 . S
H528 C536 0.950 . S
H529 C541 0.950 . S
H530 C538 0.950 . S
H531 C540 0.950 . S
H532 C542 0.950 . S
H533 C544 0.950 . S
H534 C546 0.950 . S
H535 C547 0.950 . S
C536 H528 0.950 . S
C536 C537 1.386 . S
C536 C538 1.391 . S
C537 C536 1.386 . S
C537 C541 1.393 . S
C538 H530 0.950 . S
C538 C536 1.391 . S
C538 C539 1.400 . S
C539 C538 1.400 . S
C539 C540 1.398 . S
C539 C545 1.491 . S
C540 H531 0.950 . S
C540 C539 1.398 . S
C540 C541 1.391 . S
C541 H529 0.950 . S
C541 C537 1.393 . S
C541 C540 1.391 . S
C542 H532 0.950 . S
C542 C543 1.386 . S
C542 C544 1.391 . S
C543 C542 1.386 . S
C543 C547 1.393 . S
C544 H533 0.950 . S
C544 C542 1.391 . S
C544 C545 1.400 . S
C545 C539 1.491 . S
C545 C544 1.400 . S
C545 C546 1.398 . S
C546 H534 0.950 . S
C546 C545 1.398 . S
C546 C547 1.391 . S
C547 H535 0.950 . S
C547 C543 1.393 . S
C547 C546 1.391 . S
H548 C556 0.950 . S
H549 C561 0.950 . S
H550 C558 0.950 . S
H551 C560 0.950 . S
H552 C562 0.950 . S
H553 C564 0.950 . S
H554 C566 0.950 . S
H555 C567 0.950 . S
C556 H548 0.950 . S
C556 C557 1.386 . S
C556 C558 1.391 . S
C557 C556 1.386 . S
C557 C561 1.393 . S
C558 H550 0.950 . S
C558 C556 1.391 . S
C558 C559 1.400 . S
C559 C558 1.400 . S
C559 C560 1.398 . S
C559 C565 1.491 . S
C560 H551 0.950 . S
C560 C559 1.398 . S
C560 C561 1.391 . S
C561 H549 0.950 . S
C561 C557 1.393 . S
C561 C560 1.391 . S
C562 H552 0.950 . S
C562 C563 1.386 . S
C562 C564 1.391 . S
C563 C562 1.386 . S
C563 C567 1.393 . S
C564 H553 0.950 . S
C564 C562 1.391 . S
C564 C565 1.400 . S
C565 C559 1.491 . S
C565 C564 1.400 . S
C565 C566 1.398 . S
C566 H554 0.950 . S
C566 C565 1.398 . S
C566 C567 1.391 . S
C567 H555 0.950 . S
C567 C563 1.393 . S
C567 C566 1.391 . S
H568 C576 0.950 . S
H569 C581 0.950 . S
H570 C578 0.950 . S
H571 C580 0.950 . S
H572 C582 0.950 . S
H573 C584 0.950 . S
H574 C586 0.950 . S
H575 C587 0.950 . S
C576 H568 0.950 . S
C576 C577 1.386 . S
C576 C578 1.391 . S
C577 C576 1.386 . S
C577 C581 1.393 . S
C578 H570 0.950 . S
C578 C576 1.391 . S
C578 C579 1.400 . S
C579 C578 1.400 . S
C579 C580 1.398 . S
C579 C585 1.491 . S
C580 H571 0.950 . S
C580 C579 1.398 . S
C580 C581 1.391 . S
C581 H569 0.950 . S
C581 C577 1.393 . S
C581 C580 1.391 . S
C582 H572 0.950 . S
C582 C583 1.386 . S
C582 C584 1.391 . S
C583 C582 1.386 . S
C583 C587 1.393 . S
C584 H573 0.950 . S
C584 C582 1.391 . S
C584 C585 1.400 . S
C585 C579 1.491 . S
C585 C584 1.400 . S
C585 C586 1.398 . S
C586 H574 0.950 . S
C586 C585 1.398 . S
C586 C587 1.391 . S
C587 H575 0.950 . S
C587 C583 1.393 . S
C587 C586 1.391 . S
H588 C596 0.950 . S
H589 C601 0.950 . S
H590 C598 0.950 . S
H591 C600 0.950 . S
H592 C602 0.950 . S
H593 C604 0.950 . S
H594 C606 0.950 . S
H595 C607 0.950 . S
C596 H588 0.950 . S
C596 C597 1.386 . S
C596 C598 1.391 . S
C597 C596 1.386 . S
C597 C601 1.393 . S
C598 H590 0.950 . S
C598 C596 1.391 . S
C598 C599 1.400 . S
C599 C598 1.400 . S
C599 C600 1.398 . S
C599 C605 1.491 . S
C600 H591 0.950 . S
C600 C599 1.398 . S
C600 C601 1.391 . S
C601 H589 0.950 . S
C601 C597 1.393 . S
C601 C600 1.391 . S
C602 H592 0.950 . S
C602 C603 1.386 . S
C602 C604 1.391 . S
C603 C602 1.386 . S
C603 C607 1.393 . S
C604 H593 0.950 . S
C604 C602 1.391 . S
C604 C605 1.400 . S
C605 C599 1.491 . S
C605 C604 1.400 . S
C605 C606 1.398 . S
C606 H594 0.950 . S
C606 C605 1.398 . S
C606 C607 1.391 . S
C607 H595 0.950 . S
C607 C603 1.393 . S
C607 C606 1.391 . S
H608 C616 0.950 . S
H609 C621 0.950 . S
H610 C618 0.950 . S
H611 C620 0.950 . S
H612 C622 0.950 . S
H613 C624 0.950 . S
H614 C626 0.950 . S
H615 C627 0.950 . S
C616 H608 0.950 . S
C616 C617 1.386 . S
C616 C618 1.391 . S
C617 C616 1.386 . S
C617 C621 1.393 . S
C618 H610 0.950 . S
C618 C616 1.391 . S
C618 C619 1.400 . S
C619 C618 1.400 . S
C619 C620 1.398 . S
C619 C625 1.491 . S
C620 H611 0.950 . S
C620 C619 1.398 . S
C620 C621 1.391 . S
C621 H609 0.950 . S
C621 C617 1.393 . S
C621 C620 1.391 . S
C622 H612 0.950 . S
C622 C623 1.386 . S
C622 C624 1.391 . S
C623 C622 1.386 . S
C623 C627 1.393 . S
C624 H613 0.950 . S
C624 C622 1.391 . S
C624 C625 1.400 . S
C625 C619 1.491 . S
C625 C624 1.400 . S
C625 C626 1.398 . S
C626 H614 0.950 . S
C626 C625 1.398 . S
C626 C627 1.391 . S
C627 H615 0.950 . S
C627 C623 1.393 . S
C627 C626 1.391 . S
H628 C636 0.950 . S
H629 C641 0.950 . S
H630 C638 0.950 . S
H631 C640 0.950 . S
H632 C642 0.950 . S
H633 C644 0.950 . S
H634 C646 0.950 . S
H635 C647 0.950 . S
C636 H628 0.950 . S
C636 C637 1.386 . S
C636 C638 1.391 . S
C637 C636 1.386 . S
C637 C641 1.393 . S
C638 H630 0.950 . S
C638 C636 1.391 . S
C638 C639 1.400 . S
C639 C638 1.400 . S
C639 C640 1.398 . S
C639 C645 1.491 . S
C640 H631 0.950 . S
C640 C639 1.398 . S
C640 C641 1.391 . S
C641 H629 0.950 . S
C641 C637 1.393 . S
C641 C640 1.391 . S
C642 H632 0.950 . S
C642 C643 1.386 . S
C642 C644 1.391 . S
C643 C642 1.386 . S
C643 C647 1.393 . S
C644 H633 0.950 . S
C644 C642 1.391 . S
C644 C645 1.400 . S
C645 C639 1.491 . S
C645 C644 1.400 . S
C645 C646 1.398 . S
C646 H634 0.950 . S
C646 C645 1.398 . S
C646 C647 1.391 . S
C647 H635 0.950 . S
C647 C643 1.393 . S
C647 C646 1.391 . S
H648 C656 0.950 . S
H649 C661 0.950 . S
H650 C658 0.950 . S
H651 C660 0.950 . S
H652 C662 0.950 . S
H653 C664 0.950 . S
H654 C666 0.950 . S
H655 C667 0.950 . S
C656 H648 0.950 . S
C656 C657 1.386 . S
C656 C658 1.391 . S
C657 C656 1.386 . S
C657 C661 1.393 . S
C658 H650 0.950 . S
C658 C656 1.391 . S
C658 C659 1.400 . S
C659 C658 1.400 . S
C659 C660 1.398 . S
C659 C665 1.491 . S
C660 H651 0.950 . S
C660 C659 1.398 . S
C660 C661 1.391 . S
C661 H649 0.950 . S
C661 C657 1.393 . S
C661 C660 1.391 . S
C662 H652 0.950 . S
C662 C663 1.386 . S
C662 C664 1.391 . S
C663 C662 1.386 . S
C663 C667 1.393 . S
C664 H653 0.950 . S
C664 C662 1.391 . S
C664 C665 1.400 . S
C665 C659 1.491 . S
C665 C664 1.400 . S
C665 C666 1.398 . S
C666 H654 0.950 . S
C666 C665 1.398 . S
C666 C667 1.391 . S
C667 H655 0.950 . S
C667 C663 1.393 . S
C667 C666 1.391 . S
H668 C676 0.950 . S
H669 C681 0.950 . S
H670 C678 0.950 . S
H671 C680 0.950 . S
H672 C682 0.950 . S
H673 C684 0.950 . S
H674 C686 0.950 . S
H675 C687 0.950 . S
C676 H668 0.950 . S
C676 C677 1.386 . S
C676 C678 1.391 . S
C677 C676 1.386 . S
C677 C681 1.393 . S
C678 H670 0.950 . S
C678 C676 1.391 . S
C678 C679 1.400 . S
C679 C678 1.400 . S
C679 C680 1.398 . S
C679 C685 1.491 . S
C680 H671 0.950 . S
C680 C679 1.398 . S
C680 C681 1.391 . S
C681 H669 0.950 . S
C681 C677 1.393 . S
C681 C680 1.391 . S
C682 H672 0.950 . S
C682 C683 1.386 . S
C682 C684 1.391 . S
C683 C682 1.386 . S
C683 C687 1.393 . S
C684 H673 0.950 . S
C684 C682 1.391 . S
C684 C685 1.400 . S
C685 C679 1.491 . S
C685 C684 1.400 . S
C685 C686 1.398 . S
C686 H674 0.950 . S
C686 C685 1.398 . S
C686 C687 1.391 . S
C687 H675 0.950 . S
C687 C683 1.393 . S
C687 C686 1.391 . S
H688 C696 0.950 . S
H689 C701 0.950 . S
H690 C698 0.950 . S
H691 C700 0.950 . S
H692 C702 0.950 . S
H693 C704 0.950 . S
H694 C706 0.950 . S
H695 C707 0.950 . S
C696 H688 0.950 . S
C696 C697 1.386 . S
C696 C698 1.391 . S
C697 C696 1.386 . S
C697 C701 1.393 1_545 S
C698 H690 0.950 . S
C698 C696 1.391 . S
C698 C699 1.400 . S
C699 C698 1.400 . S
C699 C700 1.398 1_545 S
C699 C705 1.491 1_545 S
C700 H691 0.950 . S
C700 C699 1.398 1_565 S
C700 C701 1.391 . S
C701 H689 0.950 . S
C701 C697 1.393 1_565 S
C701 C700 1.391 . S
C702 H692 0.950 . S
C702 C703 1.386 . S
C702 C704 1.391 . S
C703 C702 1.386 . S
C703 C707 1.393 1_565 S
C704 H693 0.950 . S
C704 C702 1.391 . S
C704 C705 1.400 . S
C705 C699 1.491 1_565 S
C705 C704 1.400 . S
C705 C706 1.398 1_565 S
C706 H694 0.950 . S
C706 C705 1.398 1_545 S
C706 C707 1.391 . S
C707 H695 0.950 . S
C707 C703 1.393 1_545 S
C707 C706 1.391 . S
H708 C716 0.950 . S
H709 C721 0.950 . S
H710 C718 0.950 . S
H711 C720 0.950 . S
H712 C722 0.950 . S
H713 C724 0.950 . S
H714 C726 0.950 . S
H715 C727 0.950 . S
C716 H708 0.950 . S
C716 C717 1.386 . S
C716 C718 1.391 . S
C717 C716 1.386 . S
C717 C721 1.393 1_545 S
C718 H710 0.950 . S
C718 C716 1.391 . S
C718 C719 1.400 . S
C719 C718 1.400 . S
C719 C720 1.398 1_545 S
C719 C725 1.491 1_545 S
C720 H711 0.950 . S
C720 C719 1.398 1_565 S
C720 C721 1.391 . S
C721 H709 0.950 . S
C721 C717 1.393 1_565 S
C721 C720 1.391 . S
C722 H712 0.950 . S
C722 C723 1.386 . S
C722 C724 1.391 . S
C723 C722 1.386 . S
C723 C727 1.393 1_565 S
C724 H713 0.950 . S
C724 C722 1.391 . S
C724 C725 1.400 . S
C725 C719 1.491 1_565 S
C725 C724 1.400 . S
C725 C726 1.398 1_565 S
C726 H714 0.950 . S
C726 C725 1.398 1_545 S
C726 C727 1.391 . S
C727 H715 0.950 . S
C727 C723 1.393 1_545 S
C727 C726 1.391 . S
H728 C736 0.950 1_565 S
H729 C741 0.950 . S
H730 C738 0.950 . S
H731 C740 0.950 . S
H732 C742 0.950 1_545 S
H733 C744 0.950 . S
H734 C746 0.950 . S
H735 C747 0.950 . S
C736 H728 0.950 1_545 S
C736 C737 1.386 . S
C736 C738 1.391 1_545 S
C737 C736 1.386 . S
C737 C741 1.393 . S
C738 H730 0.950 . S
C738 C736 1.391 1_565 S
C738 C739 1.400 1_565 S
C739 C738 1.400 1_545 S
C739 C740 1.398 . S
C739 C745 1.491 1_545 S
C740 H731 0.950 . S
C740 C739 1.398 . S
C740 C741 1.391 . S
C741 H729 0.950 . S
C741 C737 1.393 . S
C741 C740 1.391 . S
C742 H732 0.950 1_565 S
C742 C743 1.386 . S
C742 C744 1.391 1_565 S
C743 C742 1.386 . S
C743 C747 1.393 . S
C744 H733 0.950 . S
C744 C742 1.391 1_545 S
C744 C745 1.400 1_545 S
C745 C739 1.491 1_565 S
C745 C744 1.400 1_565 S
C745 C746 1.398 . S
C746 H734 0.950 . S
C746 C745 1.398 . S
C746 C747 1.391 . S
C747 H735 0.950 . S
C747 C743 1.393 . S
C747 C746 1.391 . S
H748 C756 0.950 1_545 S
H749 C761 0.950 . S
H750 C758 0.950 . S
H751 C760 0.950 . S
H752 C762 0.950 1_565 S
H753 C764 0.950 . S
H754 C766 0.950 . S
H755 C767 0.950 . S
C756 H748 0.950 1_565 S
C756 C757 1.386 . S
C756 C758 1.391 1_565 S
C757 C756 1.386 . S
C757 C761 1.393 . S
C758 H750 0.950 . S
C758 C756 1.391 1_545 S
C758 C759 1.400 1_545 S
C759 C758 1.400 1_565 S
C759 C760 1.398 . S
C759 C765 1.491 1_565 S
C760 H751 0.950 . S
C760 C759 1.398 . S
C760 C761 1.391 . S
C761 H749 0.950 . S
C761 C757 1.393 . S
C761 C760 1.391 . S
C762 H752 0.950 1_545 S
C762 C763 1.386 . S
C762 C764 1.391 1_545 S
C763 C762 1.386 . S
C763 C767 1.393 . S
C764 H753 0.950 . S
C764 C762 1.391 1_565 S
C764 C765 1.400 1_565 S
C765 C759 1.491 1_545 S
C765 C764 1.400 1_545 S
C765 C766 1.398 . S
C766 H754 0.950 . S
C766 C765 1.398 . S
C766 C767 1.391 . S
C767 H755 0.950 . S
C767 C763 1.393 . S
C767 C766 1.391 . S
H768 C776 0.950 . S
H769 C781 0.950 . S
H770 C778 0.950 . S
H771 C780 0.950 . S
H772 C782 0.950 . S
H773 C784 0.950 . S
H774 C786 0.950 . S
H775 C787 0.950 . S
C776 H768 0.950 . S
C776 C777 1.386 . S
C776 C778 1.391 . S
C777 C776 1.386 . S
C777 C781 1.393 . S
C778 H770 0.950 . S
C778 C776 1.391 . S
C778 C779 1.400 . S
C779 C778 1.400 . S
C779 C780 1.398 . S
C779 C785 1.491 . S
C780 H771 0.950 . S
C780 C779 1.398 . S
C780 C781 1.391 . S
C781 H769 0.950 . S
C781 C777 1.393 . S
C781 C780 1.391 . S
C782 H772 0.950 . S
C782 C783 1.386 . S
C782 C784 1.391 . S
C783 C782 1.386 . S
C783 C787 1.393 . S
C784 H773 0.950 . S
C784 C782 1.391 . S
C784 C785 1.400 . S
C785 C779 1.491 . S
C785 C784 1.400 . S
C785 C786 1.398 . S
C786 H774 0.950 . S
C786 C785 1.398 . S
C786 C787 1.391 . S
C787 H775 0.950 . S
C787 C783 1.393 . S
C787 C786 1.391 . S
H788 C796 0.950 . S
H789 C801 0.950 . S
H790 C798 0.950 . S
H791 C800 0.950 . S
H792 C802 0.950 . S
H793 C804 0.950 . S
H794 C806 0.950 . S
H795 C807 0.950 . S
C796 H788 0.950 . S
C796 C797 1.386 . S
C796 C798 1.391 . S
C797 C796 1.386 . S
C797 C801 1.393 . S
C798 H790 0.950 . S
C798 C796 1.391 . S
C798 C799 1.400 . S
C799 C798 1.400 . S
C799 C800 1.398 . S
C799 C805 1.491 . S
C800 H791 0.950 . S
C800 C799 1.398 . S
C800 C801 1.391 . S
C801 H789 0.950 . S
C801 C797 1.393 . S
C801 C800 1.391 . S
C802 H792 0.950 . S
C802 C803 1.386 . S
C802 C804 1.391 . S
C803 C802 1.386 . S
C803 C807 1.393 . S
C804 H793 0.950 . S
C804 C802 1.391 . S
C804 C805 1.400 . S
C805 C799 1.491 . S
C805 C804 1.400 . S
C805 C806 1.398 . S
C806 H794 0.950 . S
C806 C805 1.398 . S
C806 C807 1.391 . S
C807 H795 0.950 . S
C807 C803 1.393 . S
C807 C806 1.391 . S
H808 C816 0.950 . S
H809 C821 0.950 . S
H810 C818 0.950 . S
H811 C820 0.950 . S
H812 C822 0.950 . S
H813 C824 0.950 . S
H814 C826 0.950 . S
H815 C827 0.950 . S
C816 H808 0.950 . S
C816 C817 1.386 . S
C816 C818 1.391 . S
C817 C816 1.386 . S
C817 C821 1.393 . S
C818 H810 0.950 . S
C818 C816 1.391 . S
C818 C819 1.400 . S
C819 C818 1.400 . S
C819 C820 1.398 . S
C819 C825 1.491 . S
C820 H811 0.950 . S
C820 C819 1.398 . S
C820 C821 1.391 . S
C821 H809 0.950 . S
C821 C817 1.393 . S
C821 C820 1.391 . S
C822 H812 0.950 . S
C822 C823 1.386 . S
C822 C824 1.391 . S
C823 C822 1.386 . S
C823 C827 1.393 . S
C824 H813 0.950 . S
C824 C822 1.391 . S
C824 C825 1.400 . S
C825 C819 1.491 . S
C825 C824 1.400 . S
C825 C826 1.398 . S
C826 H814 0.950 . S
C826 C825 1.398 . S
C826 C827 1.391 . S
C827 H815 0.950 . S
C827 C823 1.393 . S
C827 C826 1.391 . S
H828 C836 0.950 . S
H829 C841 0.950 . S
H830 C838 0.950 . S
H831 C840 0.950 . S
H832 C842 0.950 . S
H833 C844 0.950 . S
H834 C846 0.950 . S
H835 C847 0.950 . S
C836 H828 0.950 . S
C836 C837 1.386 . S
C836 C838 1.391 . S
C837 C836 1.386 . S
C837 C841 1.393 . S
C838 H830 0.950 . S
C838 C836 1.391 . S
C838 C839 1.400 . S
C839 C838 1.400 . S
C839 C840 1.398 . S
C839 C845 1.491 . S
C840 H831 0.950 . S
C840 C839 1.398 . S
C840 C841 1.391 . S
C841 H829 0.950 . S
C841 C837 1.393 . S
C841 C840 1.391 . S
C842 H832 0.950 . S
C842 C843 1.386 . S
C842 C844 1.391 . S
C843 C842 1.386 . S
C843 C847 1.393 . S
C844 H833 0.950 . S
C844 C842 1.391 . S
C844 C845 1.400 . S
C845 C839 1.491 . S
C845 C844 1.400 . S
C845 C846 1.398 . S
C846 H834 0.950 . S
C846 C845 1.398 . S
C846 C847 1.391 . S
C847 H835 0.950 . S
C847 C843 1.393 . S
C847 C846 1.391 . S
C217 C1 1.522 . S
C223 C66 1.507 . S
C237 C53 1.507 . S
C243 C14 1.523 . S
C257 C27 1.523 . S
C263 C92 1.517 . S
C277 C79 1.519 . S
C283 C40 1.524 . S
C297 C170 1.511 . S
C303 C105 1.521 . S
C317 C157 1.510 . S
C323 C118 1.525 . S
C337 C196 1.519 . S
C343 C131 1.525 . S
C357 C144 1.525 . S
C363 C183 1.520 . S
C377 C23 1.509 . S
C383 C10 1.507 . S
C397 C36 1.512 . S
C403 C49 1.510 . S
C417 C62 1.530 . S
C423 C75 1.528 . S
C437 C88 1.528 . S
C443 C101 1.531 . S
C457 C114 1.518 . S
C463 C127 1.517 . S
C477 C153 1.511 . S
C483 C140 1.513 . S
C497 C179 1.530 . S
C503 C166 1.528 . S
C517 C192 1.529 . S
C523 C205 1.531 . S
C537 C122 1.503 . S
C543 C5 1.506 . S
C557 C18 1.501 . S
C563 C109 1.504 . S
C577 C148 1.502 . S
C583 C31 1.499 . S
C597 C44 1.498 . S
C603 C135 1.496 . S
C617 C57 1.529 . S
C623 C174 1.530 . S
C637 C161 1.527 . S
C643 C70 1.526 . S
C657 C83 1.528 . S
C663 C200 1.527 . S
C677 C187 1.526 . S
C683 C96 1.527 . S
C697 C3 1.534 . S
C703 C29 1.535 . S
C717 C42 1.535 . S
C723 C16 1.535 . S
C737 C81 1.517 . S
C743 C55 1.515 . S
C757 C94 1.517 . S
C763 C68 1.515 . S
C777 C133 1.532 . S
C783 C107 1.532 . S
C797 C120 1.532 . S
C803 C146 1.532 . S
C817 C185 1.511 . S
C823 C159 1.515 . S
C837 C172 1.499 . S
C843 C198 1.501 . S
