# Generated by pormake.
# Topology tfs, (6)-cn, num edge types: 1
# Building blocks:
#     Node 0, Type 0, BuildingBlock: CIFDUS_clean_sbu_1, # of connection points: 6
#     Node 1, Type 0, BuildingBlock: CIFDUS_clean_sbu_1, # of connection points: 6
#     Node 2, Type 0, BuildingBlock: CIFDUS_clean_sbu_1, # of connection points: 6
#     Node 3, Type 0, BuildingBlock: CIFDUS_clean_sbu_1, # of connection points: 6
#     Node 4, Type 0, BuildingBlock: CIFDUS_clean_sbu_1, # of connection points: 6
#     Node 5, Type 0, BuildingBlock: CIFDUS_clean_sbu_1, # of connection points: 6
#     Edge 6, Type (0, 0), BuildingBlock: FUNLAD_clean_linker_0, # of connection points: 2
#     Edge 7, Type (0, 0), BuildingBlock: FUNLAD_clean_linker_0, # of connection points: 2
#     Edge 8, Type (0, 0), BuildingBlock: FUNLAD_clean_linker_0, # of connection points: 2
#     Edge 9, Type (0, 0), BuildingBlock: FUNLAD_clean_linker_0, # of connection points: 2
#     Edge 10, Type (0, 0), BuildingBlock: FUNLAD_clean_linker_0, # of connection points: 2
#     Edge 11, Type (0, 0), BuildingBlock: FUNLAD_clean_linker_0, # of connection points: 2
#     Edge 12, Type (0, 0), BuildingBlock: FUNLAD_clean_linker_0, # of connection points: 2
#     Edge 13, Type (0, 0), BuildingBlock: FUNLAD_clean_linker_0, # of connection points: 2
#     Edge 14, Type (0, 0), BuildingBlock: FUNLAD_clean_linker_0, # of connection points: 2
#     Edge 15, Type (0, 0), BuildingBlock: FUNLAD_clean_linker_0, # of connection points: 2
#     Edge 16, Type (0, 0), BuildingBlock: FUNLAD_clean_linker_0, # of connection points: 2
#     Edge 17, Type (0, 0), BuildingBlock: FUNLAD_clean_linker_0, # of connection points: 2
#     Edge 18, Type (0, 0), BuildingBlock: FUNLAD_clean_linker_0, # of connection points: 2
#     Edge 19, Type (0, 0), BuildingBlock: FUNLAD_clean_linker_0, # of connection points: 2
#     Edge 20, Type (0, 0), BuildingBlock: FUNLAD_clean_linker_0, # of connection points: 2
#     Edge 21, Type (0, 0), BuildingBlock: FUNLAD_clean_linker_0, # of connection points: 2
#     Edge 22, Type (0, 0), BuildingBlock: FUNLAD_clean_linker_0, # of connection points: 2
#     Edge 23, Type (0, 0), BuildingBlock: FUNLAD_clean_linker_0, # of connection points: 2
# Relax obj value: 0.214
# Max RMSD: 0.172
# Mean RMSD: 0.172
data_MOF--net-tfs--node1-CIFDUS_clean_sbu_1--edge1-FUNLAD_clean_linker_0
_symmetry_space_group_name_H-M    P1
_symmetry_Int_Tables_number       1
_symmetry_cell_setting            triclinic
loop_
_symmetry_equiv_pos_as_xyz
'x, y, z'
_cell_length_a     48.823141
_cell_length_b     48.749563
_cell_length_c     18.382355
_cell_angle_alpha  90.053241
_cell_angle_beta   89.937448
_cell_angle_gamma 119.99812
loop_
_atom_site_label
_atom_site_type_symbol
_atom_site_fract_x
_atom_site_fract_y
_atom_site_fract_z
_atom_type_partial_charge
O0 O 0.2025 0.41489 0.88849 0.0
Mn1 Mn 0.20392 0.41977 0.00329 0.0
O2 O 0.16485 0.42515 0.84984 0.0
Mn3 Mn 0.15241 0.43036 0.94101 0.0
O4 O 0.20471 0.42394 0.11966 0.0
O5 O 0.2223 0.38858 0.00866 0.0
Mn6 Mn 0.25449 0.41399 0.06862 0.0
O7 O 0.24737 0.46253 0.99195 0.0
O8 O 0.23841 0.40873 0.16002 0.0
O9 O 0.15791 0.37804 0.01161 0.0
O10 O 0.12305 0.39388 0.98525 0.0
O11 O 0.26821 0.38993 0.02984 0.0
O12 O 0.28338 0.45521 0.04629 0.0
C13 C 0.17822 0.47212 1.00106 0.0
C14 C 0.18587 0.41761 0.83747 0.0
C15 C 0.2179 0.41689 0.17196 0.0
C16 C 0.24228 0.3785 0.99265 0.0
C17 C 0.27577 0.47283 0.01293 0.0
C18 C 0.12921 0.37286 0.0066 0.0
O19 O 0.18586 0.44992 0.99808 0.0
O20 O 0.15332 0.46681 0.96462 0.0
O21 O 0.79106 0.21032 0.88021 0.0
Mn22 Mn 0.78395 0.20793 0.99374 0.0
O23 O 0.74339 0.17814 0.82981 0.0
Mn24 Mn 0.72244 0.15968 0.9153 0.0
O25 O 0.77651 0.20439 0.10975 0.0
O26 O 0.83262 0.22622 0.00698 0.0
Mn27 Mn 0.83638 0.25266 0.08025 0.0
O28 O 0.78643 0.25206 0.98698 0.0
O29 O 0.8249 0.22669 0.15839 0.0
O30 O 0.7778 0.16119 0.99803 0.0
O31 O 0.72887 0.12857 0.95364 0.0
O32 O 0.87386 0.27273 0.03536 0.0
O33 O 0.81703 0.27714 0.07997 0.0
C34 C 0.70862 0.18666 0.98105 0.0
C35 C 0.77268 0.19853 0.82472 0.0
C36 C 0.79524 0.20886 0.16415 0.0
C37 C 0.86134 0.24907 0.99065 0.0
C38 C 0.79748 0.27486 0.03227 0.0
C39 C 0.75429 0.13318 0.98364 0.0
O40 O 0.73691 0.1905 0.97969 0.0
O41 O 0.6882 0.16346 0.94151 0.0
O42 O 0.58267 0.78986 0.8983 0.0
Mn43 Mn 0.57855 0.78313 0.01227 0.0
O44 O 0.57815 0.74496 0.85196 0.0
Mn45 Mn 0.57316 0.72446 0.93942 0.0
O46 O 0.57431 0.7752 0.12616 0.0
O47 O 0.60629 0.83237 0.02429 0.0
Mn48 Mn 0.58202 0.83833 0.08799 0.0
O49 O 0.53483 0.78321 0.00786 0.0
O50 O 0.57857 0.81907 0.17567 0.0
O51 O 0.62187 0.78179 0.01637 0.0
O52 O 0.60991 0.73263 0.9841 0.0
O53 O 0.6145 0.87745 0.07722 0.0
O54 O 0.5446 0.83048 0.0474 0.0
C55 C 0.53008 0.70503 0.99694 0.0
C56 C 0.58221 0.77271 0.84428 0.0
C57 C 0.57479 0.79152 0.1817 0.0
C58 C 0.62383 0.86344 0.03177 0.0
C59 C 0.5261 0.80378 0.01952 0.0
C60 C 0.62924 0.75986 0.00856 0.0
O61 O 0.55133 0.73512 0.99842 0.0
O62 O 0.53728 0.68731 0.95819 0.0
O63 O 0.79648 0.58441 0.87953 0.0
Mn64 Mn 0.79462 0.58018 0.99426 0.0
O65 O 0.83845 0.57944 0.84691 0.0
Mn66 Mn 0.84909 0.57143 0.93819 0.0
O67 O 0.79456 0.57653 0.11074 0.0
O68 O 0.77586 0.61097 0.99982 0.0
Mn69 Mn 0.74375 0.5853 0.05981 0.0
O70 O 0.75137 0.53683 0.98477 0.0
O71 O 0.75933 0.58955 0.15177 0.0
O72 O 0.84011 0.62244 0.99988 0.0
O73 O 0.87619 0.607 0.98956 0.0
O74 O 0.73033 0.61011 0.02434 0.0
O75 O 0.71474 0.54449 0.03491 0.0
C76 C 0.81816 0.52731 0.98835 0.0
C77 C 0.81582 0.58443 0.83132 0.0
C78 C 0.78066 0.58249 0.16342 0.0
C79 C 0.75622 0.62174 0.9869 0.0
C80 C 0.72268 0.52665 0.00363 0.0
C81 C 0.86907 0.62828 0.00153 0.0
O82 O 0.81345 0.55132 0.98721 0.0
O83 O 0.84452 0.53264 0.95925 0.0
O84 O 0.20565 0.79195 0.89434 0.0
Mn85 Mn 0.21397 0.79535 0.00776 0.0
O86 O 0.25135 0.82799 0.84186 0.0
Mn87 Mn 0.27247 0.84546 0.92766 0.0
O88 O 0.2231 0.79962 0.12133 0.0
O89 O 0.16515 0.77522 0.02127 0.0
Mn90 Mn 0.15806 0.7469 0.09077 0.0
O91 O 0.21162 0.75054 0.00536 0.0
O92 O 0.17746 0.76609 0.17614 0.0
O93 O 0.21742 0.84097 0.01082 0.0
O94 O 0.26542 0.87596 0.967 0.0
O95 O 0.11948 0.74133 0.07556 0.0
O96 O 0.16583 0.71585 0.05763 0.0
C97 C 0.29162 0.82263 0.98941 0.0
C98 C 0.22265 0.80599 0.83796 0.0
C99 C 0.20619 0.78759 0.17883 0.0
C100 C 0.13431 0.76331 0.02743 0.0
C101 C 0.19117 0.72213 0.02487 0.0
C102 C 0.23943 0.86965 0.99644 0.0
O103 O 0.26174 0.81455 0.99168 0.0
O104 O 0.30931 0.84631 0.94739 0.0
O105 O 0.41644 0.20594 0.89505 0.0
Mn106 Mn 0.41957 0.21364 0.00881 0.0
O107 O 0.43052 0.25272 0.84255 0.0
Mn108 Mn 0.42882 0.27167 0.92752 0.0
O109 O 0.42183 0.22003 0.12437 0.0
O110 O 0.39044 0.16514 0.02292 0.0
Mn111 Mn 0.41134 0.15739 0.09216 0.0
O112 O 0.46269 0.21313 0.00788 0.0
O113 O 0.39954 0.17096 0.17231 0.0
O114 O 0.37721 0.21649 0.00969 0.0
O115 O 0.38935 0.26285 0.95744 0.0
O116 O 0.39056 0.12092 0.04152 0.0
O117 O 0.45445 0.17478 0.08478 0.0
C118 C 0.46887 0.29239 0.99461 0.0
C119 C 0.42306 0.22381 0.83863 0.0
C120 C 0.40971 0.20051 0.17859 0.0
C121 C 0.38137 0.13632 1.00046 0.0
C122 C 0.47286 0.19792 0.04533 0.0
C123 C 0.36994 0.23748 0.98963 0.0
O124 O 0.4481 0.262 0.99632 0.0
O125 O 0.46253 0.30942 0.95123 0.0
C126 C 0.31846 0.22862 0.94225 0.0
C127 C 0.33825 0.23371 0.00239 0.0
C128 C 0.29486 0.23707 0.94477 0.0
C129 C 0.29081 0.2514 0.00738 0.0
C130 C 0.30893 0.25402 0.0694 0.0
C131 C 0.33253 0.24554 0.06678 0.0
C132 C 0.26985 0.26586 0.00902 0.0
C133 C 0.2611 0.27585 0.94905 0.0
C134 C 0.24681 0.29691 0.95168 0.0
C135 C 0.25357 0.31882 0.89505 0.0
C136 C 0.24665 0.34341 0.90228 0.0
C137 C 0.23209 0.34624 0.96555 0.0
H138 H 0.22226 0.28051 0.05483 0.0
C139 C 0.22144 0.32181 0.01759 0.0
C140 C 0.22893 0.29756 0.01116 0.0
H141 H 0.21081 0.32366 0.06779 0.0
H142 H 0.32279 0.2202 0.89133 0.0
H143 H 0.28083 0.23354 0.89649 0.0
H144 H 0.30634 0.26469 0.11874 0.0
H145 H 0.34801 0.25068 0.11322 0.0
H146 H 0.26471 0.27191 0.06223 0.0
H147 H 0.26842 0.27219 0.89591 0.0
H148 H 0.26684 0.31871 0.84788 0.0
H149 H 0.25589 0.36218 0.86207 0.0
C150 C 0.07613 0.34036 0.06075 0.0
C151 C 0.10073 0.34137 0.01867 0.0
C152 C 0.04481 0.31608 0.05165 0.0
C153 C 0.03716 0.29203 1.00036 0.0
C154 C 0.06182 0.29147 0.96186 0.0
C155 C 0.09341 0.31606 0.97075 0.0
C156 C 0.00318 0.26884 0.9859 0.0
C157 C 0.98557 0.27703 0.94416 0.0
C158 C 0.95002 0.26021 0.94132 0.0
C159 C 0.93049 0.23721 0.99269 0.0
C160 C 0.89847 0.2286 0.99993 0.0
C161 C 0.88533 0.24299 0.95676 0.0
H162 H 0.94979 0.28892 0.85173 0.0
C163 C 0.90381 0.26306 0.90022 0.0
C164 C 0.93565 0.27141 0.89236 0.0
H165 H 0.8947 0.27512 0.86721 0.0
H166 H 0.08081 0.3599 0.09659 0.0
H167 H 0.02628 0.31696 0.08223 0.0
H168 H 0.05648 0.27305 0.92214 0.0
H169 H 0.11158 0.31668 0.93576 0.0
H170 H 0.99236 0.2468 0.01611 0.0
H171 H 0.99808 0.29926 0.91443 0.0
H172 H 0.94025 0.22786 0.03175 0.0
H173 H 0.88518 0.2138 0.04548 0.0
C174 C 0.76732 0.09028 0.9589 0.0
C175 C 0.75394 0.10365 0.00474 0.0
C176 C 0.75572 0.05729 0.95916 0.0
C177 C 0.73014 0.03716 0.00443 0.0
C178 C 0.71866 0.05103 0.05386 0.0
C179 C 0.73051 0.08373 0.05437 0.0
C180 C 0.71155 0.00194 0.99522 0.0
C181 C 0.7228 0.98313 0.97201 0.0
C182 C 0.70115 0.94808 0.96786 0.0
C183 C 0.70637 0.92755 0.01178 0.0
C184 C 0.68203 0.89612 0.02305 0.0
C185 C 0.6524 0.88456 0.9893 0.0
H186 H 0.66842 0.95063 0.89276 0.0
C187 C 0.64903 0.9039 0.93756 0.0
C188 C 0.67295 0.93544 0.92766 0.0
H189 H 0.62628 0.89604 0.9121 0.0
H190 H 0.78462 0.10482 0.91833 0.0
H191 H 0.76493 0.04743 0.91979 0.0
H192 H 0.69895 0.03626 0.08926 0.0
H193 H 0.71904 0.09309 0.08877 0.0
H194 H 0.68673 0.99052 0.01075 0.0
H195 H 0.74793 0.99293 0.96238 0.0
H196 H 0.72795 0.93666 0.04316 0.0
H197 H 0.6851 0.8822 0.06478 0.0
C198 C 0.77861 0.67837 0.01477 0.0
C199 C 0.76691 0.65432 0.96167 0.0
C200 C 0.77188 0.70319 0.01115 0.0
C201 C 0.75372 0.70476 0.9535 0.0
C202 C 0.74606 0.68328 0.89547 0.0
C203 C 0.75224 0.65812 0.8999 0.0
C204 C 0.73976 0.7261 0.95485 0.0
C205 C 0.73123 0.73493 0.01701 0.0
C206 C 0.70993 0.74895 0.01958 0.0
C207 C 0.69113 0.74381 0.08185 0.0
C208 C 0.66702 0.75154 0.08227 0.0
C209 C 0.66155 0.76534 0.02106 0.0
H210 H 0.72062 0.77045 0.91223 0.0
C211 C 0.68213 0.77314 0.96124 0.0
C212 C 0.70613 0.76516 0.96048 0.0
H213 H 0.67793 0.78293 0.91243 0.0
H214 H 0.78946 0.67579 0.06376 0.0
H215 H 0.77925 0.71991 0.05572 0.0
H216 H 0.73257 0.68412 0.84962 0.0
H217 H 0.74232 0.63969 0.85888 0.0
H218 H 0.73219 0.73069 0.90304 0.0
H219 H 0.73652 0.72786 0.06873 0.0
H220 H 0.69351 0.73161 0.12854 0.0
H221 H 0.65093 0.74425 0.12813 0.0
C222 C 0.09875 0.78506 0.01565 0.0
C223 C 0.11432 0.77091 0.98118 0.0
C224 C 0.0674 0.77605 0.99772 0.0
C225 C 0.05089 0.75251 0.94488 0.0
C226 C 0.06808 0.74195 0.9033 0.0
C227 C 0.09944 0.75099 0.92138 0.0
C228 C 0.01554 0.73606 0.93675 0.0
C229 C 0.99565 0.73313 0.9918 0.0
C230 C 0.96055 0.71053 0.99182 0.0
C231 C 0.94459 0.70057 0.05907 0.0
C232 C 0.91302 0.6758 0.06283 0.0
C233 C 0.89637 0.66098 0.99919 0.0
H234 H 0.95383 0.70448 0.87478 0.0
C235 C 0.91139 0.67263 0.93168 0.0
C236 C 0.94302 0.69712 0.92785 0.0
H237 H 0.89935 0.66109 0.88171 0.0
H238 H 0.10939 0.80016 0.06261 0.0
H239 H 0.05563 0.786 0.02883 0.0
H240 H 0.05636 0.7243 0.86121 0.0
H241 H 0.11045 0.73911 0.89474 0.0
H242 H 0.00576 0.72242 0.88736 0.0
H243 H 0.00578 0.74496 0.04298 0.0
H244 H 0.95722 0.71056 0.10941 0.0
H245 H 0.90243 0.66676 0.11558 0.0
C246 C 0.22972 0.91174 0.94904 0.0
C247 C 0.23549 0.89751 0.00917 0.0
C248 C 0.23824 0.94388 0.9505 0.0
C249 C 0.25315 0.96272 0.01209 0.0
C250 C 0.25642 0.94769 0.07426 0.0
C251 C 0.24803 0.9156 0.07257 0.0
C252 C 0.26761 0.99817 0.01236 0.0
C253 C 0.27787 0.0165 0.95175 0.0
C254 C 0.29938 0.05178 0.95368 0.0
C255 C 0.32253 0.06625 0.89911 0.0
C256 C 0.34764 0.09744 0.9074 0.0
C257 C 0.34968 0.11518 0.96944 0.0
H258 H 0.28132 0.06095 0.05311 0.0
C259 C 0.32399 0.10231 0.01841 0.0
C260 C 0.29931 0.07082 0.01123 0.0
H261 H 0.32511 0.11511 0.06761 0.0
H262 H 0.22085 0.89862 0.89875 0.0
H263 H 0.23432 0.95408 0.90217 0.0
H264 H 0.26757 0.96135 0.12282 0.0
H265 H 0.25374 0.90564 0.11888 0.0
H266 H 0.27364 0.00973 0.06515 0.0
H267 H 0.27434 0.00513 0.8991 0.0
H268 H 0.32293 0.05246 0.8533 0.0
H269 H 0.36724 0.10633 0.86947 0.0
C270 C 0.224 0.69549 0.03711 0.0
C271 C 0.19646 0.69502 0.01264 0.0
C272 C 0.22525 0.66723 0.04103 0.0
C273 C 0.19888 0.63804 0.02049 0.0
C274 C 0.17212 0.63819 0.99284 0.0
C275 C 0.17089 0.66615 0.98917 0.0
C276 C 0.19656 0.60651 0.03161 0.0
C277 C 0.22068 0.6011 0.04552 0.0
C278 C 0.21476 0.56796 0.05265 0.0
C279 C 0.23465 0.55883 0.01774 0.0
C280 C 0.22517 0.52653 0.00976 0.0
C281 C 0.19602 0.50308 0.038 0.0
H282 H 0.17222 0.55079 0.11769 0.0
C283 C 0.17836 0.51255 0.08096 0.0
C284 C 0.18756 0.54456 0.08822 0.0
H285 H 0.15559 0.49499 0.10261 0.0
H286 H 0.24364 0.71719 0.05793 0.0
H287 H 0.24617 0.66818 0.06351 0.0
H288 H 0.15142 0.61627 0.9764 0.0
H289 H 0.14921 0.66495 0.97088 0.0
H290 H 0.17301 0.586 0.02584 0.0
H291 H 0.24491 0.62055 0.04547 0.0
H292 H 0.25604 0.57641 0.99092 0.0
H293 H 0.2389 0.51996 0.97502 0.0
C294 C 0.52831 0.22172 0.98992 0.0
C295 C 0.50696 0.20709 0.04792 0.0
C296 C 0.55907 0.22572 0.99297 0.0
C297 C 0.5687 0.21512 0.0541 0.0
C298 C 0.54785 0.2022 0.11283 0.0
C299 C 0.51772 0.19847 0.1101 0.0
C300 C 0.59808 0.21292 0.0568 0.0
C301 C 0.62623 0.2335 0.02666 0.0
C302 C 0.65413 0.22837 0.02935 0.0
C303 C 0.67754 0.24183 0.97517 0.0
C304 C 0.69993 0.232 0.96666 0.0
C305 C 0.69938 0.20864 0.01236 0.0
H306 H 0.64047 0.19876 0.12653 0.0
C307 C 0.6787 0.19822 0.07191 0.0
C308 C 0.65662 0.20831 0.0811 0.0
H309 H 0.6775 0.17991 0.10741 0.0
H310 H 0.52081 0.22862 0.94124 0.0
H311 H 0.57451 0.23544 0.94627 0.0
H312 H 0.55455 0.19395 0.16068 0.0
H313 H 0.50236 0.18775 0.15662 0.0
H314 H 0.5958 0.19268 0.0865 0.0
H315 H 0.62834 0.25344 0.99572 0.0
H316 H 0.67691 0.25794 0.93554 0.0
H317 H 0.71527 0.24 0.91942 0.0
C318 C 0.48773 0.66065 0.06474 0.0
C319 C 0.49838 0.69004 0.03065 0.0
C320 C 0.45546 0.639 0.07133 0.0
C321 C 0.43295 0.64619 0.04378 0.0
C322 C 0.44345 0.67694 0.01703 0.0
C323 C 0.47604 0.69867 0.00975 0.0
C324 C 0.3991 0.62079 0.03684 0.0
C325 C 0.39164 0.59179 0.0117 0.0
C326 C 0.35913 0.56398 0.00254 0.0
C327 C 0.35579 0.53874 0.95909 0.0
C328 C 0.32737 0.50994 0.95729 0.0
C329 C 0.30132 0.50558 0.99845 0.0
H330 H 0.33423 0.57889 0.07618 0.0
C331 C 0.3038 0.53119 0.03912 0.0
C332 C 0.33249 0.56026 0.04108 0.0
H333 H 0.28438 0.52804 0.07344 0.0
H334 H 0.50443 0.65325 0.08065 0.0
H335 H 0.44817 0.61587 0.09416 0.0
H336 H 0.42656 0.68322 0.99621 0.0
H337 H 0.48356 0.7208 0.98151 0.0
H338 H 0.38069 0.62656 0.04757 0.0
H339 H 0.41098 0.58811 0.99527 0.0
H340 H 0.3758 0.54074 0.92895 0.0
H341 H 0.32631 0.49037 0.92693 0.0
C342 C 0.80113 0.48012 0.06507 0.0
C343 C 0.79458 0.49432 0.00644 0.0
C344 C 0.7907 0.44761 0.0647 0.0
C345 C 0.77354 0.42845 0.00507 0.0
C346 C 0.76457 0.44227 0.94965 0.0
C347 C 0.77484 0.47482 0.95051 0.0
C348 C 0.76906 0.39592 0.99382 0.0
C349 C 0.77059 0.37818 0.0484 0.0
C350 C 0.77347 0.34908 0.03986 0.0
C351 C 0.77816 0.33598 0.10341 0.0
C352 C 0.78502 0.31145 0.10005 0.0
C353 C 0.78697 0.29872 0.033 0.0
H354 H 0.77043 0.34447 0.92175 0.0
C355 C 0.78047 0.31027 0.96908 0.0
C356 C 0.77408 0.33546 0.97229 0.0
H357 H 0.78164 0.30078 0.91661 0.0
H358 H 0.81721 0.49473 0.10756 0.0
H359 H 0.79884 0.43851 0.10807 0.0
H360 H 0.75151 0.42836 0.90287 0.0
H361 H 0.77029 0.48527 0.90337 0.0
H362 H 0.76629 0.3875 0.93822 0.0
H363 H 0.77148 0.3863 0.10379 0.0
H364 H 0.77762 0.34551 0.15633 0.0
H365 H 0.78932 0.30272 0.15046 0.0
C366 C 0.33498 0.8253 0.06288 0.0
C367 C 0.3064 0.8063 0.02596 0.0
C368 C 0.35718 0.81542 0.07136 0.0
C369 C 0.35142 0.78624 0.04273 0.0
C370 C 0.32141 0.7657 0.01292 0.0
C371 C 0.29918 0.77582 0.00374 0.0
C372 C 0.37747 0.77855 0.03775 0.0
C373 C 0.40699 0.80099 0.01782 0.0
C374 C 0.43512 0.79672 0.00853 0.0
C375 C 0.46131 0.8205 0.97093 0.0
C376 C 0.49003 0.82079 0.96894 0.0
C377 C 0.49355 0.79724 0.00426 0.0
H378 H 0.41848 0.75344 0.07103 0.0
C379 C 0.46699 0.77227 0.03859 0.0
C380 C 0.43793 0.77196 0.0407 0.0
H381 H 0.46931 0.75437 0.06832 0.0
H382 H 0.3414 0.84912 0.07948 0.0
H383 H 0.37965 0.83148 0.09659 0.0
H384 H 0.31618 0.74294 0.99112 0.0
H385 H 0.27784 0.76113 0.97296 0.0
H386 H 0.37176 0.75414 0.04453 0.0
H387 H 0.41085 0.82445 0.00515 0.0
H388 H 0.46004 0.83989 0.94551 0.0
H389 H 0.51018 0.8406 0.94313 0.0
C390 C 0.69517 0.46816 0.02959 0.0
C391 C 0.69716 0.49374 0.98976 0.0
C392 C 0.66642 0.43912 0.03332 0.0
C393 C 0.63926 0.43532 0.99705 0.0
C394 C 0.6422 0.46045 0.95387 0.0
C395 C 0.67061 0.48922 0.95058 0.0
C396 C 0.60672 0.40748 0.00747 0.0
C397 C 0.59915 0.37898 0.03618 0.0
C398 C 0.56525 0.35351 0.04382 0.0
C399 C 0.55528 0.322 0.0236 0.0
C400 C 0.5228 0.29965 0.01683 0.0
C401 C 0.49996 0.30842 0.03153 0.0
H402 H 0.54902 0.38475 0.08416 0.0
C403 C 0.51006 0.33879 0.0599 0.0
C404 C 0.54222 0.36104 0.066 0.0
H405 H 0.49303 0.34635 0.07105 0.0
H406 H 0.71507 0.47134 0.06203 0.0
H407 H 0.66514 0.42056 0.06785 0.0
H408 H 0.62189 0.45843 0.92517 0.0
H409 H 0.67128 0.50871 0.92071 0.0
H410 H 0.58739 0.41074 0.98898 0.0
H411 H 0.61755 0.37352 0.04956 0.0
H412 H 0.57251 0.31539 0.00726 0.0
H413 H 0.51579 0.27672 0.99326 0.0
C414 C 0.218 0.42224 0.72529 0.0
C415 C 0.18871 0.4099 0.76084 0.0
C416 C 0.21915 0.41891 0.64941 0.0
C417 C 0.19098 0.4028 0.60841 0.0
C418 C 0.16197 0.38876 0.64521 0.0
C419 C 0.16083 0.39257 0.72014 0.0
C420 C 0.19052 0.40048 0.52743 0.0
C421 C 0.21209 0.42359 0.48445 0.0
C422 C 0.21123 0.42291 0.40312 0.0
C423 C 0.23941 0.44263 0.36574 0.0
C424 C 0.2406 0.44208 0.28997 0.0
C425 C 0.21351 0.42219 0.24913 0.0
H426 H 0.16113 0.3889 0.38847 0.0
C427 C 0.18478 0.40346 0.28556 0.0
C428 C 0.18359 0.40381 0.36208 0.0
H429 H 0.16371 0.3875 0.25527 0.0
H430 H 0.23983 0.43566 0.75539 0.0
H431 H 0.242 0.42921 0.62301 0.0
H432 H 0.13996 0.37589 0.61543 0.0
H433 H 0.1379 0.38258 0.74623 0.0
H434 H 0.17057 0.37995 0.50298 0.0
H435 H 0.23174 0.44413 0.50988 0.0
H436 H 0.26099 0.45779 0.39537 0.0
H437 H 0.26317 0.4564 0.26314 0.0
C438 C 0.76844 0.2181 0.70377 0.0
C439 C 0.78478 0.20845 0.75036 0.0
C440 C 0.77355 0.21985 0.62882 0.0
C441 C 0.79471 0.21131 0.59864 0.0
C442 C 0.81294 0.20413 0.64592 0.0
C443 C 0.80797 0.20262 0.72139 0.0
C444 C 0.79755 0.20881 0.51849 0.0
C445 C 0.77357 0.20183 0.47153 0.0
C446 C 0.7759 0.19867 0.39143 0.0
C447 C 0.75661 0.20452 0.34444 0.0
C448 C 0.76041 0.20473 0.26869 0.0
C449 C 0.78348 0.19889 0.23896 0.0
H450 H 0.81129 0.18408 0.3949 0.0
C451 C 0.80087 0.19049 0.28569 0.0
C452 C 0.79706 0.19021 0.36098 0.0
H453 H 0.81878 0.1858 0.264 0.0
H454 H 0.75058 0.22293 0.7252 0.0
H455 H 0.76021 0.22708 0.59476 0.0
H456 H 0.82984 0.19801 0.62422 0.0
H457 H 0.82061 0.19482 0.75633 0.0
H458 H 0.81976 0.21171 0.49841 0.0
H459 H 0.75138 0.19888 0.49184 0.0
H460 H 0.73971 0.21057 0.36644 0.0
H461 H 0.74706 0.21176 0.23399 0.0
C462 C 0.60388 0.77719 0.72008 0.0
C463 C 0.58586 0.78413 0.76851 0.0
C464 C 0.602 0.78042 0.64511 0.0
C465 C 0.58161 0.79026 0.61657 0.0
C466 C 0.56547 0.79959 0.66532 0.0
C467 C 0.56752 0.79651 0.74082 0.0
C468 C 0.57645 0.79071 0.53669 0.0
C469 C 0.5803 0.77193 0.48821 0.0
C470 C 0.57508 0.77246 0.40838 0.0
C471 C 0.59151 0.76362 0.35922 0.0
C472 C 0.58954 0.76708 0.28381 0.0
C473 C 0.57095 0.77928 0.25671 0.0
H474 H 0.54008 0.78747 0.41577 0.0
C475 C 0.55257 0.78556 0.3055 0.0
C476 C 0.55441 0.78201 0.3803 0.0
H477 H 0.53771 0.79464 0.28581 0.0
H478 H 0.61856 0.76799 0.74022 0.0
H479 H 0.6161 0.77456 0.60993 0.0
H480 H 0.55005 0.80785 0.64489 0.0
H481 H 0.55323 0.80182 0.77695 0.0
H482 H 0.56843 0.80662 0.51795 0.0
H483 H 0.58836 0.75604 0.50684 0.0
H484 H 0.60713 0.75555 0.37931 0.0
H485 H 0.6041 0.76227 0.24739 0.0
C486 C 0.78408 0.57862 0.71756 0.0
C487 C 0.81329 0.59109 0.75348 0.0
C488 C 0.78302 0.58128 0.64143 0.0
C489 C 0.81121 0.59686 0.60022 0.0
C490 C 0.84018 0.61095 0.63716 0.0
C491 C 0.84124 0.60783 0.71246 0.0
C492 C 0.81166 0.59889 0.519 0.0
C493 C 0.78951 0.57611 0.47624 0.0
C494 C 0.78965 0.57684 0.39474 0.0
C495 C 0.76103 0.55737 0.35868 0.0
C496 C 0.75903 0.55799 0.28303 0.0
C497 C 0.78572 0.57767 0.24071 0.0
H498 H 0.83964 0.61055 0.37749 0.0
C499 C 0.81489 0.59614 0.27574 0.0
C500 C 0.81688 0.59579 0.35223 0.0
H501 H 0.83572 0.61189 0.24444 0.0
H502 H 0.76218 0.5657 0.74773 0.0
H503 H 0.76018 0.57099 0.61508 0.0
H504 H 0.86223 0.62349 0.60733 0.0
H505 H 0.86416 0.61804 0.73861 0.0
H506 H 0.83182 0.6191 0.4942 0.0
H507 H 0.76971 0.55586 0.50209 0.0
H508 H 0.73973 0.54231 0.38935 0.0
H509 H 0.73615 0.54375 0.25747 0.0
C510 C 0.21463 0.81774 0.29335 0.0
C511 C 0.21968 0.79638 0.25233 0.0
C512 C 0.21629 0.81785 0.36951 0.0
C513 C 0.22258 0.79616 0.40603 0.0
C514 C 0.22984 0.77644 0.36437 0.0
C515 C 0.22812 0.77634 0.28836 0.0
C516 C 0.22122 0.79285 0.48692 0.0
C517 C 0.20382 0.80065 0.53042 0.0
C518 C 0.20329 0.79783 0.61126 0.0
C519 C 0.19973 0.81988 0.65343 0.0
C520 C 0.20299 0.8205 0.72911 0.0
C521 C 0.20905 0.79855 0.76432 0.0
H522 H 0.20894 0.7564 0.61653 0.0
C523 C 0.21019 0.77493 0.72305 0.0
C524 C 0.20722 0.77446 0.64708 0.0
H525 H 0.21538 0.7581 0.74902 0.0
H526 H 0.20735 0.83289 0.26677 0.0
H527 H 0.21172 0.83428 0.39934 0.0
H528 H 0.23506 0.75972 0.39078 0.0
H529 H 0.23111 0.75894 0.258 0.0
H530 H 0.23446 0.78272 0.5111 0.0
H531 H 0.19061 0.81092 0.50686 0.0
H532 H 0.19634 0.83792 0.62747 0.0
H533 H 0.20275 0.83939 0.75975 0.0
C534 C 0.44706 0.2287 0.7175 0.0
C535 C 0.42151 0.2114 0.76478 0.0
C536 C 0.44357 0.22344 0.64259 0.0
C537 C 0.41416 0.20113 0.61317 0.0
C538 C 0.38932 0.182 0.66107 0.0
C539 C 0.39292 0.18715 0.73647 0.0
C540 C 0.40848 0.19796 0.53317 0.0
C541 C 0.42423 0.22224 0.48599 0.0
C542 C 0.41846 0.21955 0.40602 0.0
C543 C 0.44287 0.24001 0.35862 0.0
C544 C 0.43918 0.2361 0.28294 0.0
C545 C 0.41091 0.21172 0.25368 0.0
H546 H 0.36942 0.18167 0.4103 0.0
C547 C 0.38571 0.19296 0.30083 0.0
C548 C 0.38932 0.19692 0.37606 0.0
H549 H 0.36362 0.17402 0.27946 0.0
H550 H 0.46938 0.24746 0.73833 0.0
H551 H 0.46374 0.23756 0.60797 0.0
H552 H 0.36655 0.16426 0.63992 0.0
H553 H 0.37276 0.1738 0.77186 0.0
H554 H 0.38996 0.17519 0.51346 0.0
H555 H 0.44267 0.24499 0.50602 0.0
H556 H 0.46541 0.25802 0.38023 0.0
H557 H 0.45914 0.25052 0.24787 0.0
loop_
_geom_bond_atom_site_label_1
_geom_bond_atom_site_label_2
_geom_bond_distance
_geom_bond_site_symmetry_2
_ccdc_geom_bond_type
O0 Mn1 2.163 1_556 S
O0 C14 1.244 . S
Mn1 O0 2.163 1_554 S
Mn1 O4 2.160 . S
Mn1 O5 2.221 . S
Mn1 O7 2.163 . S
Mn1 O9 2.160 . S
Mn1 O19 2.221 1_554 S
O2 Mn3 2.087 . S
O2 C14 1.256 . S
Mn3 O2 2.087 . S
Mn3 O10 2.089 . S
Mn3 O19 2.290 . S
Mn3 O20 2.251 . S
O4 Mn1 2.160 . S
O4 C15 1.239 . S
O5 Mn1 2.221 . S
O5 Mn6 2.290 . S
O5 C16 1.271 1_554 S
Mn6 O5 2.290 . S
Mn6 O8 2.089 . S
Mn6 O11 2.251 . S
Mn6 O12 2.087 . S
O7 Mn1 2.163 . S
O7 C17 1.244 . S
O8 Mn6 2.089 . S
O8 C15 1.256 . S
O9 Mn1 2.160 . S
O9 C18 1.239 1_554 S
O10 Mn3 2.089 . S
O10 C18 1.256 . S
O11 Mn6 2.251 . S
O11 C16 1.237 1_554 S
O12 Mn6 2.087 . S
O12 C17 1.256 . S
C13 O19 1.278 . S
C13 O20 1.241 . S
C14 O0 1.244 . S
C14 O2 1.256 . S
C15 O4 1.239 . S
C15 O8 1.256 . S
C16 O5 1.271 1_556 S
C16 O11 1.237 1_556 S
C17 O7 1.244 . S
C17 O12 1.256 . S
C18 O9 1.239 1_556 S
C18 O10 1.256 . S
O19 Mn1 2.221 1_556 S
O19 Mn3 2.290 . S
O19 C13 1.278 . S
O20 Mn3 2.251 . S
O20 C13 1.241 . S
O21 Mn22 2.163 1_556 S
O21 C35 1.244 . S
Mn22 O21 2.163 1_554 S
Mn22 O25 2.160 . S
Mn22 O26 2.221 . S
Mn22 O28 2.163 . S
Mn22 O30 2.160 . S
Mn22 O40 2.221 1_554 S
O23 Mn24 2.087 . S
O23 C35 1.256 . S
Mn24 O23 2.087 . S
Mn24 O31 2.089 . S
Mn24 O40 2.290 . S
Mn24 O41 2.251 . S
O25 Mn22 2.160 . S
O25 C36 1.239 . S
O26 Mn22 2.221 . S
O26 Mn27 2.290 . S
O26 C37 1.271 1_554 S
Mn27 O26 2.290 . S
Mn27 O29 2.089 . S
Mn27 O32 2.251 . S
Mn27 O33 2.087 . S
O28 Mn22 2.163 . S
O28 C38 1.244 . S
O29 Mn27 2.089 . S
O29 C36 1.256 . S
O30 Mn22 2.160 . S
O30 C39 1.239 1_554 S
O31 Mn24 2.089 . S
O31 C39 1.256 . S
O32 Mn27 2.251 . S
O32 C37 1.237 1_554 S
O33 Mn27 2.087 . S
O33 C38 1.256 . S
C34 O40 1.278 . S
C34 O41 1.241 . S
C35 O21 1.244 . S
C35 O23 1.256 . S
C36 O25 1.239 . S
C36 O29 1.256 . S
C37 O26 1.271 1_556 S
C37 O32 1.237 1_556 S
C38 O28 1.244 . S
C38 O33 1.256 . S
C39 O30 1.239 1_556 S
C39 O31 1.256 . S
O40 Mn22 2.221 1_556 S
O40 Mn24 2.290 . S
O40 C34 1.278 . S
O41 Mn24 2.251 . S
O41 C34 1.241 . S
O42 Mn43 2.163 1_556 S
O42 C56 1.244 . S
Mn43 O42 2.163 1_554 S
Mn43 O46 2.160 . S
Mn43 O47 2.221 . S
Mn43 O49 2.163 . S
Mn43 O51 2.160 . S
Mn43 O61 2.221 1_554 S
O44 Mn45 2.087 . S
O44 C56 1.256 . S
Mn45 O44 2.087 . S
Mn45 O52 2.089 . S
Mn45 O61 2.290 . S
Mn45 O62 2.251 . S
O46 Mn43 2.160 . S
O46 C57 1.239 . S
O47 Mn43 2.221 . S
O47 Mn48 2.290 . S
O47 C58 1.271 1_554 S
Mn48 O47 2.290 . S
Mn48 O50 2.089 . S
Mn48 O53 2.251 . S
Mn48 O54 2.087 . S
O49 Mn43 2.163 . S
O49 C59 1.244 . S
O50 Mn48 2.089 . S
O50 C57 1.256 . S
O51 Mn43 2.160 . S
O51 C60 1.239 1_554 S
O52 Mn45 2.089 . S
O52 C60 1.256 . S
O53 Mn48 2.251 . S
O53 C58 1.237 1_554 S
O54 Mn48 2.087 . S
O54 C59 1.256 . S
C55 O61 1.278 . S
C55 O62 1.241 . S
C56 O42 1.244 . S
C56 O44 1.256 . S
C57 O46 1.239 . S
C57 O50 1.256 . S
C58 O47 1.271 1_556 S
C58 O53 1.237 1_556 S
C59 O49 1.244 . S
C59 O54 1.256 . S
C60 O51 1.239 1_556 S
C60 O52 1.256 . S
O61 Mn43 2.221 1_556 S
O61 Mn45 2.290 . S
O61 C55 1.278 . S
O62 Mn45 2.251 . S
O62 C55 1.241 . S
O63 Mn64 2.163 1_556 S
O63 C77 1.244 . S
Mn64 O63 2.163 1_554 S
Mn64 O67 2.160 . S
Mn64 O68 2.221 . S
Mn64 O70 2.163 . S
Mn64 O72 2.160 . S
Mn64 O82 2.221 1_554 S
O65 Mn66 2.087 . S
O65 C77 1.256 . S
Mn66 O65 2.087 . S
Mn66 O73 2.089 . S
Mn66 O82 2.290 . S
Mn66 O83 2.251 . S
O67 Mn64 2.160 . S
O67 C78 1.239 . S
O68 Mn64 2.221 . S
O68 Mn69 2.290 . S
O68 C79 1.271 1_554 S
Mn69 O68 2.290 . S
Mn69 O71 2.089 . S
Mn69 O74 2.251 . S
Mn69 O75 2.087 . S
O70 Mn64 2.163 . S
O70 C80 1.244 . S
O71 Mn69 2.089 . S
O71 C78 1.256 . S
O72 Mn64 2.160 . S
O72 C81 1.239 1_554 S
O73 Mn66 2.089 . S
O73 C81 1.256 . S
O74 Mn69 2.251 . S
O74 C79 1.237 1_554 S
O75 Mn69 2.087 . S
O75 C80 1.256 . S
C76 O82 1.278 . S
C76 O83 1.241 . S
C77 O63 1.244 . S
C77 O65 1.256 . S
C78 O67 1.239 . S
C78 O71 1.256 . S
C79 O68 1.271 1_556 S
C79 O74 1.237 1_556 S
C80 O70 1.244 . S
C80 O75 1.256 . S
C81 O72 1.239 1_556 S
C81 O73 1.256 . S
O82 Mn64 2.221 1_556 S
O82 Mn66 2.290 . S
O82 C76 1.278 . S
O83 Mn66 2.251 . S
O83 C76 1.241 . S
O84 Mn85 2.163 1_556 S
O84 C98 1.244 . S
Mn85 O84 2.163 1_554 S
Mn85 O88 2.160 . S
Mn85 O89 2.221 . S
Mn85 O91 2.163 . S
Mn85 O93 2.160 . S
Mn85 O103 2.221 1_554 S
O86 Mn87 2.087 . S
O86 C98 1.256 . S
Mn87 O86 2.087 . S
Mn87 O94 2.089 . S
Mn87 O103 2.290 . S
Mn87 O104 2.251 . S
O88 Mn85 2.160 . S
O88 C99 1.239 . S
O89 Mn85 2.221 . S
O89 Mn90 2.290 . S
O89 C100 1.271 1_554 S
Mn90 O89 2.290 . S
Mn90 O92 2.089 . S
Mn90 O95 2.251 . S
Mn90 O96 2.087 . S
O91 Mn85 2.163 . S
O91 C101 1.244 . S
O92 Mn90 2.089 . S
O92 C99 1.256 . S
O93 Mn85 2.160 . S
O93 C102 1.239 1_554 S
O94 Mn87 2.089 . S
O94 C102 1.256 . S
O95 Mn90 2.251 . S
O95 C100 1.237 1_554 S
O96 Mn90 2.087 . S
O96 C101 1.256 . S
C97 O103 1.278 . S
C97 O104 1.241 . S
C98 O84 1.244 . S
C98 O86 1.256 . S
C99 O88 1.239 . S
C99 O92 1.256 . S
C100 O89 1.271 1_556 S
C100 O95 1.237 1_556 S
C101 O91 1.244 . S
C101 O96 1.256 . S
C102 O93 1.239 1_556 S
C102 O94 1.256 . S
O103 Mn85 2.221 1_556 S
O103 Mn87 2.290 . S
O103 C97 1.278 . S
O104 Mn87 2.251 . S
O104 C97 1.241 . S
O105 Mn106 2.163 1_556 S
O105 C119 1.244 . S
Mn106 O105 2.163 1_554 S
Mn106 O109 2.160 . S
Mn106 O110 2.221 . S
Mn106 O112 2.163 . S
Mn106 O114 2.160 . S
Mn106 O124 2.221 1_554 S
O107 Mn108 2.087 . S
O107 C119 1.256 . S
Mn108 O107 2.087 . S
Mn108 O115 2.089 . S
Mn108 O124 2.290 . S
Mn108 O125 2.251 . S
O109 Mn106 2.160 . S
O109 C120 1.239 . S
O110 Mn106 2.221 . S
O110 Mn111 2.290 . S
O110 C121 1.271 1_554 S
Mn111 O110 2.290 . S
Mn111 O113 2.089 . S
Mn111 O116 2.251 . S
Mn111 O117 2.087 . S
O112 Mn106 2.163 . S
O112 C122 1.244 . S
O113 Mn111 2.089 . S
O113 C120 1.256 . S
O114 Mn106 2.160 . S
O114 C123 1.239 1_554 S
O115 Mn108 2.089 . S
O115 C123 1.256 . S
O116 Mn111 2.251 . S
O116 C121 1.237 1_554 S
O117 Mn111 2.087 . S
O117 C122 1.256 . S
C118 O124 1.278 . S
C118 O125 1.241 . S
C119 O105 1.244 . S
C119 O107 1.256 . S
C120 O109 1.239 . S
C120 O113 1.256 . S
C121 O110 1.271 1_556 S
C121 O116 1.237 1_556 S
C122 O112 1.244 . S
C122 O117 1.256 . S
C123 O114 1.239 1_556 S
C123 O115 1.256 . S
O124 Mn106 2.221 1_556 S
O124 Mn108 2.290 . S
O124 C118 1.278 . S
O125 Mn108 2.251 . S
O125 C118 1.241 . S
C126 C127 1.386 . S
C126 C128 1.383 . S
C126 H142 0.951 . S
C127 C126 1.386 . S
C127 C131 1.383 1_556 S
C128 C126 1.383 . S
C128 C129 1.402 1_556 S
C128 H143 0.951 . S
C129 C128 1.402 1_554 S
C129 C130 1.375 . S
C129 C132 1.481 . S
C130 C129 1.375 . S
C130 C131 1.367 . S
C130 H144 0.951 . S
C131 C127 1.383 1_554 S
C131 C130 1.367 . S
C131 H145 0.950 . S
C132 C129 1.481 . S
C132 C133 1.297 1_554 S
C132 H146 0.950 . S
C133 C132 1.297 1_556 S
C133 C134 1.479 . S
C133 H147 0.950 . S
C134 C133 1.479 . S
C134 C135 1.375 . S
C134 C140 1.404 1_556 S
C135 C134 1.375 . S
C135 C136 1.369 . S
C135 H148 0.950 . S
C136 C135 1.369 . S
C136 C137 1.392 . S
C136 H149 0.951 . S
C137 C136 1.392 . S
C137 C139 1.384 1_556 S
H138 C140 0.949 . S
C139 C137 1.384 1_554 S
C139 C140 1.385 . S
C139 H141 0.950 . S
C140 C134 1.404 1_554 S
C140 H138 0.949 . S
C140 C139 1.385 . S
H141 C139 0.950 . S
H142 C126 0.951 . S
H143 C128 0.951 . S
H144 C130 0.951 . S
H145 C131 0.950 . S
H146 C132 0.950 . S
H147 C133 0.950 . S
H148 C135 0.950 . S
H149 C136 0.951 . S
C150 C151 1.386 1_554 S
C150 C152 1.383 1_554 S
C150 H166 0.951 . S
C151 C150 1.386 1_556 S
C151 C155 1.383 . S
C152 C150 1.383 1_556 S
C152 C153 1.402 . S
C152 H167 0.951 1_556 S
C153 C152 1.402 . S
C153 C154 1.375 . S
C153 C156 1.481 . S
C154 C153 1.375 . S
C154 C155 1.367 . S
C154 H168 0.951 . S
C155 C151 1.383 . S
C155 C154 1.367 . S
C155 H169 0.950 . S
C156 C153 1.481 . S
C156 C157 1.297 1_455 S
C156 H170 0.950 1_455 S
C157 C156 1.297 1_655 S
C157 C158 1.479 . S
C157 H171 0.950 . S
C158 C157 1.479 . S
C158 C159 1.379 . S
C158 C164 1.404 . S
C159 C158 1.379 . S
C159 C160 1.368 1_556 S
C159 H172 0.947 1_556 S
C160 C159 1.368 1_554 S
C160 C161 1.392 1_554 S
C160 H173 0.951 . S
C161 C160 1.392 1_556 S
C161 C163 1.384 . S
H162 C164 0.949 . S
C163 C161 1.384 . S
C163 C164 1.385 . S
C163 H165 0.950 . S
C164 C158 1.404 . S
C164 H162 0.949 . S
C164 C163 1.385 . S
H165 C163 0.950 . S
H166 C150 0.951 . S
H167 C152 0.951 1_554 S
H168 C154 0.951 . S
H169 C155 0.950 . S
H170 C156 0.950 1_655 S
H171 C157 0.950 . S
H172 C159 0.947 1_554 S
H173 C160 0.951 . S
C174 C175 1.386 1_554 S
C174 C176 1.383 . S
C174 H190 0.951 . S
C175 C174 1.386 1_556 S
C175 C179 1.383 . S
C176 C174 1.383 . S
C176 C177 1.402 1_554 S
C176 H191 0.951 . S
C177 C176 1.402 1_556 S
C177 C178 1.375 . S
C177 C180 1.481 . S
C178 C177 1.375 . S
C178 C179 1.367 . S
C178 H192 0.951 . S
C179 C175 1.383 . S
C179 C178 1.367 . S
C179 H193 0.950 . S
C180 C177 1.481 . S
C180 C181 1.297 1_546 S
C180 H194 0.950 1_545 S
C181 C180 1.297 1_564 S
C181 C182 1.479 . S
C181 H195 0.950 . S
C182 C181 1.479 . S
C182 C183 1.375 . S
C182 C188 1.404 1_554 S
C183 C182 1.375 . S
C183 C184 1.369 . S
C183 H196 0.950 . S
C184 C183 1.369 . S
C184 C185 1.392 1_554 S
C184 H197 0.951 . S
C185 C184 1.392 1_556 S
C185 C187 1.384 . S
H186 C188 0.949 . S
C187 C185 1.384 . S
C187 C188 1.385 . S
C187 H189 0.950 . S
C188 C182 1.404 1_556 S
C188 H186 0.949 . S
C188 C187 1.385 . S
H189 C187 0.950 . S
H190 C174 0.951 . S
H191 C176 0.951 . S
H192 C178 0.951 . S
H193 C179 0.950 . S
H194 C180 0.950 1_565 S
H195 C181 0.950 . S
H196 C183 0.950 . S
H197 C184 0.951 . S
C198 C199 1.386 1_554 S
C198 C200 1.383 . S
C198 H214 0.951 . S
C199 C198 1.386 1_556 S
C199 C203 1.383 . S
C200 C198 1.383 . S
C200 C201 1.402 1_554 S
C200 H215 0.951 . S
C201 C200 1.402 1_556 S
C201 C202 1.375 . S
C201 C204 1.481 . S
C202 C201 1.375 . S
C202 C203 1.367 . S
C202 H216 0.951 . S
C203 C199 1.383 . S
C203 C202 1.367 . S
C203 H217 0.950 . S
C204 C201 1.481 . S
C204 C205 1.297 1_556 S
C204 H218 0.950 . S
C205 C204 1.297 1_554 S
C205 C206 1.479 . S
C205 H219 0.950 . S
C206 C205 1.479 . S
C206 C207 1.375 . S
C206 C212 1.404 1_554 S
C207 C206 1.375 . S
C207 C208 1.369 . S
C207 H220 0.950 . S
C208 C207 1.369 . S
C208 C209 1.392 1_554 S
C208 H221 0.951 . S
C209 C208 1.392 1_556 S
C209 C211 1.384 . S
H210 C212 0.949 . S
C211 C209 1.384 . S
C211 C212 1.385 . S
C211 H213 0.950 . S
C212 C206 1.404 1_556 S
C212 H210 0.949 . S
C212 C211 1.385 . S
H213 C211 0.950 . S
H214 C198 0.951 . S
H215 C200 0.951 . S
H216 C202 0.951 . S
H217 C203 0.950 . S
H218 C204 0.950 . S
H219 C205 0.950 . S
H220 C207 0.950 . S
H221 C208 0.951 . S
C222 C223 1.381 1_554 S
C222 C224 1.381 1_554 S
C222 H238 0.957 . S
C223 C222 1.381 1_556 S
C223 C227 1.383 . S
C224 C222 1.381 1_556 S
C224 C225 1.402 . S
C224 H239 0.951 1_556 S
C225 C224 1.402 . S
C225 C226 1.375 . S
C225 C228 1.481 . S
C226 C225 1.375 . S
C226 C227 1.367 . S
C226 H240 0.951 . S
C227 C223 1.383 . S
C227 C226 1.367 . S
C227 H241 0.950 . S
C228 C225 1.481 . S
C228 C229 1.297 1_455 S
C228 H242 0.950 . S
C229 C228 1.297 1_655 S
C229 C230 1.479 . S
C229 H243 0.950 1_655 S
C230 C229 1.479 . S
C230 C231 1.375 1_556 S
C230 C236 1.404 . S
C231 C230 1.375 1_554 S
C231 C232 1.369 . S
C231 H244 0.950 . S
C232 C231 1.369 . S
C232 C233 1.392 1_554 S
C232 H245 0.951 . S
C233 C232 1.392 1_556 S
C233 C235 1.384 . S
H234 C236 0.949 . S
C235 C233 1.384 . S
C235 C236 1.385 . S
C235 H237 0.950 . S
C236 C230 1.404 . S
C236 H234 0.949 . S
C236 C235 1.385 . S
H237 C235 0.950 . S
H238 C222 0.957 . S
H239 C224 0.951 1_554 S
H240 C226 0.951 . S
H241 C227 0.950 . S
H242 C228 0.950 . S
H243 C229 0.950 1_455 S
H244 C231 0.950 . S
H245 C232 0.951 . S
C246 C247 1.386 . S
C246 C248 1.383 . S
C246 H262 0.951 . S
C247 C246 1.386 . S
C247 C251 1.383 1_556 S
C248 C246 1.383 . S
C248 C249 1.402 1_556 S
C248 H263 0.951 . S
C249 C248 1.402 1_554 S
C249 C250 1.375 . S
C249 C252 1.481 . S
C250 C249 1.375 . S
C250 C251 1.367 . S
C250 H264 0.951 . S
C251 C247 1.383 1_554 S
C251 C250 1.367 . S
C251 H265 0.950 . S
C252 C249 1.481 . S
C252 C253 1.297 1_564 S
C252 H266 0.950 1_565 S
C253 C252 1.297 1_546 S
C253 C254 1.479 . S
C253 H267 0.950 . S
C254 C253 1.479 . S
C254 C255 1.375 . S
C254 C260 1.404 1_556 S
C255 C254 1.375 . S
C255 C256 1.369 . S
C255 H268 0.950 . S
C256 C255 1.369 . S
C256 C257 1.392 . S
C256 H269 0.951 . S
C257 C256 1.392 . S
C257 C259 1.384 1_556 S
H258 C260 0.949 . S
C259 C257 1.384 1_554 S
C259 C260 1.385 . S
C259 H261 0.950 . S
C260 C254 1.404 1_554 S
C260 H258 0.949 . S
C260 C259 1.385 . S
H261 C259 0.950 . S
H262 C246 0.951 . S
H263 C248 0.951 . S
H264 C250 0.951 . S
H265 C251 0.950 . S
H266 C252 0.950 1_545 S
H267 C253 0.950 . S
H268 C255 0.950 . S
H269 C256 0.951 . S
C270 C271 1.386 . S
C270 C272 1.383 . S
C270 H286 0.951 . S
C271 C270 1.386 . S
C271 C275 1.383 . S
C272 C270 1.383 . S
C272 C273 1.402 . S
C272 H287 0.951 . S
C273 C272 1.402 . S
C273 C274 1.375 . S
C273 C276 1.481 . S
C274 C273 1.375 . S
C274 C275 1.367 . S
C274 H288 0.951 . S
C275 C271 1.383 . S
C275 C274 1.367 . S
C275 H289 0.950 . S
C276 C273 1.481 . S
C276 C277 1.297 . S
C276 H290 0.950 . S
C277 C276 1.297 . S
C277 C278 1.479 . S
C277 H291 0.950 . S
C278 C277 1.479 . S
C278 C279 1.375 . S
C278 C284 1.404 . S
C279 C278 1.375 . S
C279 C280 1.369 . S
C279 H292 0.950 . S
C280 C279 1.369 . S
C280 C281 1.392 . S
C280 H293 0.951 . S
C281 C280 1.392 . S
C281 C283 1.384 . S
H282 C284 0.949 . S
C283 C281 1.384 . S
C283 C284 1.385 . S
C283 H285 0.950 . S
C284 C278 1.404 . S
C284 H282 0.949 . S
C284 C283 1.385 . S
H285 C283 0.950 . S
H286 C270 0.951 . S
H287 C272 0.951 . S
H288 C274 0.951 . S
H289 C275 0.950 . S
H290 C276 0.950 . S
H291 C277 0.950 . S
H292 C279 0.950 . S
H293 C280 0.951 . S
C294 C295 1.386 1_556 S
C294 C296 1.383 . S
C294 H310 0.951 . S
C295 C294 1.386 1_554 S
C295 C299 1.383 . S
C296 C294 1.383 . S
C296 C297 1.402 1_556 S
C296 H311 0.951 . S
C297 C296 1.402 1_554 S
C297 C298 1.375 . S
C297 C300 1.481 . S
C298 C297 1.375 . S
C298 C299 1.367 . S
C298 H312 0.951 . S
C299 C295 1.383 . S
C299 C298 1.367 . S
C299 H313 0.950 . S
C300 C297 1.481 . S
C300 C301 1.297 . S
C300 H314 0.950 . S
C301 C300 1.297 . S
C301 C302 1.479 . S
C301 H315 0.950 1_554 S
C302 C301 1.479 . S
C302 C303 1.375 1_554 S
C302 C308 1.404 . S
C303 C302 1.375 1_556 S
C303 C304 1.369 . S
C303 H316 0.950 . S
C304 C303 1.369 . S
C304 C305 1.392 1_556 S
C304 H317 0.951 . S
C305 C304 1.392 1_554 S
C305 C307 1.384 . S
H306 C308 0.949 . S
C307 C305 1.384 . S
C307 C308 1.385 . S
C307 H309 0.950 . S
C308 C302 1.404 . S
C308 H306 0.949 . S
C308 C307 1.385 . S
H309 C307 0.950 . S
H310 C294 0.951 . S
H311 C296 0.951 . S
H312 C298 0.951 . S
H313 C299 0.950 . S
H314 C300 0.950 . S
H315 C301 0.950 1_556 S
H316 C303 0.950 . S
H317 C304 0.951 . S
C318 C319 1.386 1_556 S
C318 C320 1.383 . S
C318 H334 0.951 . S
C319 C318 1.386 1_554 S
C319 C323 1.383 . S
C320 C318 1.383 . S
C320 C321 1.402 1_556 S
C320 H335 0.951 . S
C321 C320 1.402 1_554 S
C321 C322 1.375 . S
C321 C324 1.481 . S
C322 C321 1.375 . S
C322 C323 1.367 . S
C322 H336 0.951 . S
C323 C319 1.383 . S
C323 C322 1.367 . S
C323 H337 0.950 . S
C324 C321 1.481 . S
C324 C325 1.297 . S
C324 H338 0.950 . S
C325 C324 1.297 . S
C325 C326 1.479 . S
C325 H339 0.950 . S
C326 C325 1.479 . S
C326 C327 1.381 . S
C326 C332 1.404 . S
C327 C326 1.381 . S
C327 C328 1.368 1_554 S
C327 H340 0.945 1_554 S
C328 C327 1.368 1_556 S
C328 C329 1.392 1_556 S
C328 H341 0.951 . S
C329 C328 1.392 1_554 S
C329 C331 1.384 . S
H330 C332 0.949 . S
C331 C329 1.384 . S
C331 C332 1.385 . S
C331 H333 0.950 . S
C332 C326 1.404 . S
C332 H330 0.949 . S
C332 C331 1.385 . S
H333 C331 0.950 . S
H334 C318 0.951 . S
H335 C320 0.951 . S
H336 C322 0.951 . S
H337 C323 0.950 . S
H338 C324 0.950 . S
H339 C325 0.950 . S
H340 C327 0.945 1_556 S
H341 C328 0.951 . S
C342 C343 1.386 1_554 S
C342 C344 1.383 . S
C342 H358 0.951 . S
C343 C342 1.386 1_556 S
C343 C347 1.383 . S
C344 C342 1.383 . S
C344 C345 1.402 1_554 S
C344 H359 0.951 . S
C345 C344 1.402 1_556 S
C345 C346 1.375 . S
C345 C348 1.481 . S
C346 C345 1.375 . S
C346 C347 1.367 . S
C346 H360 0.951 . S
C347 C343 1.383 . S
C347 C346 1.367 . S
C347 H361 0.950 . S
C348 C345 1.481 . S
C348 C349 1.297 1_556 S
C348 H362 0.950 . S
C349 C348 1.297 1_554 S
C349 C350 1.479 . S
C349 H363 0.950 . S
C350 C349 1.479 . S
C350 C351 1.375 . S
C350 C356 1.404 1_554 S
C351 C350 1.375 . S
C351 C352 1.369 . S
C351 H364 0.950 . S
C352 C351 1.369 . S
C352 C353 1.392 . S
C352 H365 0.951 . S
C353 C352 1.392 . S
C353 C355 1.384 1_554 S
H354 C356 0.949 . S
C355 C353 1.384 1_556 S
C355 C356 1.385 . S
C355 H357 0.950 . S
C356 C350 1.404 1_556 S
C356 H354 0.949 . S
C356 C355 1.385 . S
H357 C355 0.950 . S
H358 C342 0.951 . S
H359 C344 0.951 . S
H360 C346 0.951 . S
H361 C347 0.950 . S
H362 C348 0.950 . S
H363 C349 0.950 . S
H364 C351 0.950 . S
H365 C352 0.951 . S
C366 C367 1.386 1_556 S
C366 C368 1.382 1_556 S
C366 H382 0.951 . S
C367 C366 1.386 1_554 S
C367 C371 1.383 . S
C368 C366 1.382 1_554 S
C368 C369 1.403 . S
C368 H383 0.950 1_554 S
C369 C368 1.403 . S
C369 C370 1.375 . S
C369 C372 1.481 . S
C370 C369 1.375 . S
C370 C371 1.367 . S
C370 H384 0.951 . S
C371 C367 1.383 . S
C371 C370 1.367 . S
C371 H385 0.950 . S
C372 C369 1.481 . S
C372 C373 1.297 . S
C372 H386 0.950 . S
C373 C372 1.297 . S
C373 C374 1.479 . S
C373 H387 0.950 . S
C374 C373 1.479 . S
C374 C375 1.375 . S
C374 C380 1.404 . S
C375 C374 1.375 . S
C375 C376 1.369 . S
C375 H388 0.950 1_554 S
C376 C375 1.369 . S
C376 C377 1.392 . S
C376 H389 0.951 1_554 S
C377 C376 1.392 . S
C377 C379 1.384 . S
H378 C380 0.949 . S
C379 C377 1.384 . S
C379 C380 1.385 . S
C379 H381 0.950 . S
C380 C374 1.404 . S
C380 H378 0.949 . S
C380 C379 1.385 . S
H381 C379 0.950 . S
H382 C366 0.951 . S
H383 C368 0.950 1_556 S
H384 C370 0.951 . S
H385 C371 0.950 . S
H386 C372 0.950 . S
H387 C373 0.950 . S
H388 C375 0.950 1_556 S
H389 C376 0.951 1_556 S
C390 C391 1.386 . S
C390 C392 1.383 . S
C390 H406 0.951 . S
C391 C390 1.386 . S
C391 C395 1.383 1_554 S
C392 C390 1.383 . S
C392 C393 1.402 . S
C392 H407 0.951 . S
C393 C392 1.402 . S
C393 C394 1.375 1_554 S
C393 C396 1.481 . S
C394 C393 1.375 1_556 S
C394 C395 1.367 . S
C394 H408 0.951 . S
C395 C391 1.383 1_556 S
C395 C394 1.367 . S
C395 H409 0.950 . S
C396 C393 1.481 . S
C396 C397 1.297 . S
C396 H410 0.950 1_554 S
C397 C396 1.297 . S
C397 C398 1.479 . S
C397 H411 0.950 . S
C398 C397 1.479 . S
C398 C399 1.375 . S
C398 C404 1.404 . S
C399 C398 1.375 . S
C399 C400 1.369 . S
C399 H412 0.950 . S
C400 C399 1.369 . S
C400 C401 1.392 . S
C400 H413 0.951 . S
C401 C400 1.392 . S
C401 C403 1.384 1_554 S
H402 C404 0.949 1_556 S
C403 C401 1.384 1_556 S
C403 C404 1.385 1_556 S
C403 H405 0.950 . S
C404 C398 1.404 . S
C404 H402 0.949 1_554 S
C404 C403 1.385 1_554 S
H405 C403 0.950 . S
H406 C390 0.951 . S
H407 C392 0.951 . S
H408 C394 0.951 . S
H409 C395 0.950 . S
H410 C396 0.950 1_556 S
H411 C397 0.950 . S
H412 C399 0.950 . S
H413 C400 0.951 . S
C414 C415 1.386 . S
C414 C416 1.383 . S
C414 H430 0.951 . S
C415 C414 1.386 . S
C415 C419 1.383 . S
C416 C414 1.383 . S
C416 C417 1.402 . S
C416 H431 0.951 . S
C417 C416 1.402 . S
C417 C418 1.375 . S
C417 C420 1.481 . S
C418 C417 1.375 . S
C418 C419 1.367 . S
C418 H432 0.951 . S
C419 C415 1.383 . S
C419 C418 1.367 . S
C419 H433 0.950 . S
C420 C417 1.481 . S
C420 C421 1.297 . S
C420 H434 0.950 . S
C421 C420 1.297 . S
C421 C422 1.479 . S
C421 H435 0.950 . S
C422 C421 1.479 . S
C422 C423 1.375 . S
C422 C428 1.404 . S
C423 C422 1.375 . S
C423 C424 1.369 . S
C423 H436 0.950 . S
C424 C423 1.369 . S
C424 C425 1.392 . S
C424 H437 0.951 . S
C425 C424 1.392 . S
C425 C427 1.384 . S
H426 C428 0.949 . S
C427 C425 1.384 . S
C427 C428 1.385 . S
C427 H429 0.950 . S
C428 C422 1.404 . S
C428 H426 0.949 . S
C428 C427 1.385 . S
H429 C427 0.950 . S
H430 C414 0.951 . S
H431 C416 0.951 . S
H432 C418 0.951 . S
H433 C419 0.950 . S
H434 C420 0.950 . S
H435 C421 0.950 . S
H436 C423 0.950 . S
H437 C424 0.951 . S
C438 C439 1.386 . S
C438 C440 1.383 . S
C438 H454 0.951 . S
C439 C438 1.386 . S
C439 C443 1.383 . S
C440 C438 1.383 . S
C440 C441 1.402 . S
C440 H455 0.951 . S
C441 C440 1.402 . S
C441 C442 1.375 . S
C441 C444 1.481 . S
C442 C441 1.375 . S
C442 C443 1.367 . S
C442 H456 0.951 . S
C443 C439 1.383 . S
C443 C442 1.367 . S
C443 H457 0.950 . S
C444 C441 1.481 . S
C444 C445 1.297 . S
C444 H458 0.950 . S
C445 C444 1.297 . S
C445 C446 1.479 . S
C445 H459 0.950 . S
C446 C445 1.479 . S
C446 C447 1.375 . S
C446 C452 1.404 . S
C447 C446 1.375 . S
C447 C448 1.369 . S
C447 H460 0.950 . S
C448 C447 1.369 . S
C448 C449 1.392 . S
C448 H461 0.951 . S
C449 C448 1.392 . S
C449 C451 1.384 . S
H450 C452 0.949 . S
C451 C449 1.384 . S
C451 C452 1.385 . S
C451 H453 0.950 . S
C452 C446 1.404 . S
C452 H450 0.949 . S
C452 C451 1.385 . S
H453 C451 0.950 . S
H454 C438 0.951 . S
H455 C440 0.951 . S
H456 C442 0.951 . S
H457 C443 0.950 . S
H458 C444 0.950 . S
H459 C445 0.950 . S
H460 C447 0.950 . S
H461 C448 0.951 . S
C462 C463 1.386 . S
C462 C464 1.383 . S
C462 H478 0.951 . S
C463 C462 1.386 . S
C463 C467 1.383 . S
C464 C462 1.383 . S
C464 C465 1.402 . S
C464 H479 0.951 . S
C465 C464 1.402 . S
C465 C466 1.375 . S
C465 C468 1.481 . S
C466 C465 1.375 . S
C466 C467 1.367 . S
C466 H480 0.951 . S
C467 C463 1.383 . S
C467 C466 1.367 . S
C467 H481 0.950 . S
C468 C465 1.481 . S
C468 C469 1.297 . S
C468 H482 0.950 . S
C469 C468 1.297 . S
C469 C470 1.479 . S
C469 H483 0.950 . S
C470 C469 1.479 . S
C470 C471 1.375 . S
C470 C476 1.404 . S
C471 C470 1.375 . S
C471 C472 1.369 . S
C471 H484 0.950 . S
C472 C471 1.369 . S
C472 C473 1.392 . S
C472 H485 0.951 . S
C473 C472 1.392 . S
C473 C475 1.384 . S
H474 C476 0.949 . S
C475 C473 1.384 . S
C475 C476 1.385 . S
C475 H477 0.950 . S
C476 C470 1.404 . S
C476 H474 0.949 . S
C476 C475 1.385 . S
H477 C475 0.950 . S
H478 C462 0.951 . S
H479 C464 0.951 . S
H480 C466 0.951 . S
H481 C467 0.950 . S
H482 C468 0.950 . S
H483 C469 0.950 . S
H484 C471 0.950 . S
H485 C472 0.951 . S
C486 C487 1.386 . S
C486 C488 1.383 . S
C486 H502 0.951 . S
C487 C486 1.386 . S
C487 C491 1.383 . S
C488 C486 1.383 . S
C488 C489 1.402 . S
C488 H503 0.951 . S
C489 C488 1.402 . S
C489 C490 1.375 . S
C489 C492 1.481 . S
C490 C489 1.375 . S
C490 C491 1.367 . S
C490 H504 0.951 . S
C491 C487 1.383 . S
C491 C490 1.367 . S
C491 H505 0.950 . S
C492 C489 1.481 . S
C492 C493 1.297 . S
C492 H506 0.950 . S
C493 C492 1.297 . S
C493 C494 1.479 . S
C493 H507 0.950 . S
C494 C493 1.479 . S
C494 C495 1.375 . S
C494 C500 1.404 . S
C495 C494 1.375 . S
C495 C496 1.369 . S
C495 H508 0.950 . S
C496 C495 1.369 . S
C496 C497 1.392 . S
C496 H509 0.951 . S
C497 C496 1.392 . S
C497 C499 1.384 . S
H498 C500 0.949 . S
C499 C497 1.384 . S
C499 C500 1.385 . S
C499 H501 0.950 . S
C500 C494 1.404 . S
C500 H498 0.949 . S
C500 C499 1.385 . S
H501 C499 0.950 . S
H502 C486 0.951 . S
H503 C488 0.951 . S
H504 C490 0.951 . S
H505 C491 0.950 . S
H506 C492 0.950 . S
H507 C493 0.950 . S
H508 C495 0.950 . S
H509 C496 0.951 . S
C510 C511 1.386 . S
C510 C512 1.383 . S
C510 H526 0.951 . S
C511 C510 1.386 . S
C511 C515 1.383 . S
C512 C510 1.383 . S
C512 C513 1.402 . S
C512 H527 0.951 . S
C513 C512 1.402 . S
C513 C514 1.375 . S
C513 C516 1.481 . S
C514 C513 1.375 . S
C514 C515 1.367 . S
C514 H528 0.951 . S
C515 C511 1.383 . S
C515 C514 1.367 . S
C515 H529 0.950 . S
C516 C513 1.481 . S
C516 C517 1.297 . S
C516 H530 0.950 . S
C517 C516 1.297 . S
C517 C518 1.479 . S
C517 H531 0.950 . S
C518 C517 1.479 . S
C518 C519 1.375 . S
C518 C524 1.404 . S
C519 C518 1.375 . S
C519 C520 1.369 . S
C519 H532 0.950 . S
C520 C519 1.369 . S
C520 C521 1.392 . S
C520 H533 0.951 . S
C521 C520 1.392 . S
C521 C523 1.384 . S
H522 C524 0.949 . S
C523 C521 1.384 . S
C523 C524 1.385 . S
C523 H525 0.950 . S
C524 C518 1.404 . S
C524 H522 0.949 . S
C524 C523 1.385 . S
H525 C523 0.950 . S
H526 C510 0.951 . S
H527 C512 0.951 . S
H528 C514 0.951 . S
H529 C515 0.950 . S
H530 C516 0.950 . S
H531 C517 0.950 . S
H532 C519 0.950 . S
H533 C520 0.951 . S
C534 C535 1.386 . S
C534 C536 1.383 . S
C534 H550 0.951 . S
C535 C534 1.386 . S
C535 C539 1.383 . S
C536 C534 1.383 . S
C536 C537 1.402 . S
C536 H551 0.951 . S
C537 C536 1.402 . S
C537 C538 1.375 . S
C537 C540 1.481 . S
C538 C537 1.375 . S
C538 C539 1.367 . S
C538 H552 0.951 . S
C539 C535 1.383 . S
C539 C538 1.367 . S
C539 H553 0.950 . S
C540 C537 1.481 . S
C540 C541 1.297 . S
C540 H554 0.950 . S
C541 C540 1.297 . S
C541 C542 1.479 . S
C541 H555 0.950 . S
C542 C541 1.479 . S
C542 C543 1.375 . S
C542 C548 1.404 . S
C543 C542 1.375 . S
C543 C544 1.369 . S
C543 H556 0.950 . S
C544 C543 1.369 . S
C544 C545 1.392 . S
C544 H557 0.951 . S
C545 C544 1.392 . S
C545 C547 1.384 . S
H546 C548 0.949 . S
C547 C545 1.384 . S
C547 C548 1.385 . S
C547 H549 0.950 . S
C548 C542 1.404 . S
C548 H546 0.949 . S
C548 C547 1.385 . S
H549 C547 0.950 . S
H550 C534 0.951 . S
H551 C536 0.951 . S
H552 C538 0.951 . S
H553 C539 0.950 . S
H554 C540 0.950 . S
H555 C541 0.950 . S
H556 C543 0.950 . S
H557 C544 0.951 . S
C127 C123 1.290 . S
C137 C16 1.143 . S
C151 C18 1.262 . S
C161 C37 1.082 . S
C175 C39 1.228 . S
C185 C58 0.967 . S
C199 C79 1.148 . S
C209 C60 1.331 . S
C223 C100 1.117 . S
C233 C81 1.291 . S
C247 C102 1.290 . S
C257 C121 1.144 . S
C271 C101 1.521 . S
C281 C13 1.445 1_554 S
C295 C122 1.537 . S
C305 C34 1.459 1_554 S
C319 C55 1.436 1_554 S
C329 C17 1.509 . S
C343 C76 1.374 . S
C353 C38 1.555 . S
C367 C97 1.438 1_554 S
C377 C59 1.512 . S
C391 C80 1.519 . S
C401 C118 1.419 1_554 S
C415 C14 1.466 . S
C425 C15 1.443 . S
C439 C35 1.499 . S
C449 C36 1.437 . S
C463 C56 1.457 . S
C473 C57 1.516 . S
C487 C77 1.471 . S
C497 C78 1.437 . S
C511 C99 1.456 . S
C521 C98 1.514 . S
C535 C119 1.499 . S
C545 C120 1.440 . S
