# Generated by pormake.
# Topology wir, (6)-cn, num edge types: 1
# Building blocks:
#     Node 0, Type 0, BuildingBlock: JUFBIX_clean_sbu_0, # of connection points: 6
#     Node 1, Type 0, BuildingBlock: JUFBIX_clean_sbu_0, # of connection points: 6
#     Node 2, Type 0, BuildingBlock: JUFBIX_clean_sbu_0, # of connection points: 6
#     Node 3, Type 0, BuildingBlock: JUFBIX_clean_sbu_0, # of connection points: 6
#     Node 4, Type 0, BuildingBlock: JUFBIX_clean_sbu_0, # of connection points: 6
#     Node 5, Type 0, BuildingBlock: JUFBIX_clean_sbu_0, # of connection points: 6
#     Node 6, Type 0, BuildingBlock: JUFBIX_clean_sbu_0, # of connection points: 6
#     Node 7, Type 0, BuildingBlock: JUFBIX_clean_sbu_0, # of connection points: 6
#     Node 8, Type 0, BuildingBlock: JUFBIX_clean_sbu_0, # of connection points: 6
#     Node 9, Type 0, BuildingBlock: JUFBIX_clean_sbu_0, # of connection points: 6
#     Node 10, Type 0, BuildingBlock: JUFBIX_clean_sbu_0, # of connection points: 6
#     Node 11, Type 0, BuildingBlock: JUFBIX_clean_sbu_0, # of connection points: 6
#     Node 12, Type 0, BuildingBlock: JUFBIX_clean_sbu_0, # of connection points: 6
#     Node 13, Type 0, BuildingBlock: JUFBIX_clean_sbu_0, # of connection points: 6
#     Node 14, Type 0, BuildingBlock: JUFBIX_clean_sbu_0, # of connection points: 6
#     Node 15, Type 0, BuildingBlock: JUFBIX_clean_sbu_0, # of connection points: 6
#     Node 16, Type 0, BuildingBlock: JUFBIX_clean_sbu_0, # of connection points: 6
#     Node 17, Type 0, BuildingBlock: JUFBIX_clean_sbu_0, # of connection points: 6
#     Node 18, Type 0, BuildingBlock: JUFBIX_clean_sbu_0, # of connection points: 6
#     Node 19, Type 0, BuildingBlock: JUFBIX_clean_sbu_0, # of connection points: 6
#     Node 20, Type 0, BuildingBlock: JUFBIX_clean_sbu_0, # of connection points: 6
#     Node 21, Type 0, BuildingBlock: JUFBIX_clean_sbu_0, # of connection points: 6
#     Node 22, Type 0, BuildingBlock: JUFBIX_clean_sbu_0, # of connection points: 6
#     Node 23, Type 0, BuildingBlock: JUFBIX_clean_sbu_0, # of connection points: 6
#     Node 24, Type 0, BuildingBlock: JUFBIX_clean_sbu_0, # of connection points: 6
#     Node 25, Type 0, BuildingBlock: JUFBIX_clean_sbu_0, # of connection points: 6
#     Node 26, Type 0, BuildingBlock: JUFBIX_clean_sbu_0, # of connection points: 6
#     Node 27, Type 0, BuildingBlock: JUFBIX_clean_sbu_0, # of connection points: 6
#     Node 28, Type 0, BuildingBlock: JUFBIX_clean_sbu_0, # of connection points: 6
#     Node 29, Type 0, BuildingBlock: JUFBIX_clean_sbu_0, # of connection points: 6
#     Node 30, Type 0, BuildingBlock: JUFBIX_clean_sbu_0, # of connection points: 6
#     Node 31, Type 0, BuildingBlock: JUFBIX_clean_sbu_0, # of connection points: 6
#     Edge 32, Type (0, 0), BuildingBlock: OJICUG_clean_linker_0, # of connection points: 2
#     Edge 33, Type (0, 0), BuildingBlock: OJICUG_clean_linker_0, # of connection points: 2
#     Edge 34, Type (0, 0), BuildingBlock: OJICUG_clean_linker_0, # of connection points: 2
#     Edge 35, Type (0, 0), BuildingBlock: OJICUG_clean_linker_0, # of connection points: 2
#     Edge 36, Type (0, 0), BuildingBlock: OJICUG_clean_linker_0, # of connection points: 2
#     Edge 37, Type (0, 0), BuildingBlock: OJICUG_clean_linker_0, # of connection points: 2
#     Edge 38, Type (0, 0), BuildingBlock: OJICUG_clean_linker_0, # of connection points: 2
#     Edge 39, Type (0, 0), BuildingBlock: OJICUG_clean_linker_0, # of connection points: 2
#     Edge 40, Type (0, 0), BuildingBlock: OJICUG_clean_linker_0, # of connection points: 2
#     Edge 41, Type (0, 0), BuildingBlock: OJICUG_clean_linker_0, # of connection points: 2
#     Edge 42, Type (0, 0), BuildingBlock: OJICUG_clean_linker_0, # of connection points: 2
#     Edge 43, Type (0, 0), BuildingBlock: OJICUG_clean_linker_0, # of connection points: 2
#     Edge 44, Type (0, 0), BuildingBlock: OJICUG_clean_linker_0, # of connection points: 2
#     Edge 45, Type (0, 0), BuildingBlock: OJICUG_clean_linker_0, # of connection points: 2
#     Edge 46, Type (0, 0), BuildingBlock: OJICUG_clean_linker_0, # of connection points: 2
#     Edge 47, Type (0, 0), BuildingBlock: OJICUG_clean_linker_0, # of connection points: 2
#     Edge 48, Type (0, 0), BuildingBlock: OJICUG_clean_linker_0, # of connection points: 2
#     Edge 49, Type (0, 0), BuildingBlock: OJICUG_clean_linker_0, # of connection points: 2
#     Edge 50, Type (0, 0), BuildingBlock: OJICUG_clean_linker_0, # of connection points: 2
#     Edge 51, Type (0, 0), BuildingBlock: OJICUG_clean_linker_0, # of connection points: 2
#     Edge 52, Type (0, 0), BuildingBlock: OJICUG_clean_linker_0, # of connection points: 2
#     Edge 53, Type (0, 0), BuildingBlock: OJICUG_clean_linker_0, # of connection points: 2
#     Edge 54, Type (0, 0), BuildingBlock: OJICUG_clean_linker_0, # of connection points: 2
#     Edge 55, Type (0, 0), BuildingBlock: OJICUG_clean_linker_0, # of connection points: 2
#     Edge 56, Type (0, 0), BuildingBlock: OJICUG_clean_linker_0, # of connection points: 2
#     Edge 57, Type (0, 0), BuildingBlock: OJICUG_clean_linker_0, # of connection points: 2
#     Edge 58, Type (0, 0), BuildingBlock: OJICUG_clean_linker_0, # of connection points: 2
#     Edge 59, Type (0, 0), BuildingBlock: OJICUG_clean_linker_0, # of connection points: 2
#     Edge 60, Type (0, 0), BuildingBlock: OJICUG_clean_linker_0, # of connection points: 2
#     Edge 61, Type (0, 0), BuildingBlock: OJICUG_clean_linker_0, # of connection points: 2
#     Edge 62, Type (0, 0), BuildingBlock: OJICUG_clean_linker_0, # of connection points: 2
#     Edge 63, Type (0, 0), BuildingBlock: OJICUG_clean_linker_0, # of connection points: 2
#     Edge 64, Type (0, 0), BuildingBlock: OJICUG_clean_linker_0, # of connection points: 2
#     Edge 65, Type (0, 0), BuildingBlock: OJICUG_clean_linker_0, # of connection points: 2
#     Edge 66, Type (0, 0), BuildingBlock: OJICUG_clean_linker_0, # of connection points: 2
#     Edge 67, Type (0, 0), BuildingBlock: OJICUG_clean_linker_0, # of connection points: 2
#     Edge 68, Type (0, 0), BuildingBlock: OJICUG_clean_linker_0, # of connection points: 2
#     Edge 69, Type (0, 0), BuildingBlock: OJICUG_clean_linker_0, # of connection points: 2
#     Edge 70, Type (0, 0), BuildingBlock: OJICUG_clean_linker_0, # of connection points: 2
#     Edge 71, Type (0, 0), BuildingBlock: OJICUG_clean_linker_0, # of connection points: 2
#     Edge 72, Type (0, 0), BuildingBlock: OJICUG_clean_linker_0, # of connection points: 2
#     Edge 73, Type (0, 0), BuildingBlock: OJICUG_clean_linker_0, # of connection points: 2
#     Edge 74, Type (0, 0), BuildingBlock: OJICUG_clean_linker_0, # of connection points: 2
#     Edge 75, Type (0, 0), BuildingBlock: OJICUG_clean_linker_0, # of connection points: 2
#     Edge 76, Type (0, 0), BuildingBlock: OJICUG_clean_linker_0, # of connection points: 2
#     Edge 77, Type (0, 0), BuildingBlock: OJICUG_clean_linker_0, # of connection points: 2
#     Edge 78, Type (0, 0), BuildingBlock: OJICUG_clean_linker_0, # of connection points: 2
#     Edge 79, Type (0, 0), BuildingBlock: OJICUG_clean_linker_0, # of connection points: 2
#     Edge 80, Type (0, 0), BuildingBlock: OJICUG_clean_linker_0, # of connection points: 2
#     Edge 81, Type (0, 0), BuildingBlock: OJICUG_clean_linker_0, # of connection points: 2
#     Edge 82, Type (0, 0), BuildingBlock: OJICUG_clean_linker_0, # of connection points: 2
#     Edge 83, Type (0, 0), BuildingBlock: OJICUG_clean_linker_0, # of connection points: 2
#     Edge 84, Type (0, 0), BuildingBlock: OJICUG_clean_linker_0, # of connection points: 2
#     Edge 85, Type (0, 0), BuildingBlock: OJICUG_clean_linker_0, # of connection points: 2
#     Edge 86, Type (0, 0), BuildingBlock: OJICUG_clean_linker_0, # of connection points: 2
#     Edge 87, Type (0, 0), BuildingBlock: OJICUG_clean_linker_0, # of connection points: 2
#     Edge 88, Type (0, 0), BuildingBlock: OJICUG_clean_linker_0, # of connection points: 2
#     Edge 89, Type (0, 0), BuildingBlock: OJICUG_clean_linker_0, # of connection points: 2
#     Edge 90, Type (0, 0), BuildingBlock: OJICUG_clean_linker_0, # of connection points: 2
#     Edge 91, Type (0, 0), BuildingBlock: OJICUG_clean_linker_0, # of connection points: 2
#     Edge 92, Type (0, 0), BuildingBlock: OJICUG_clean_linker_0, # of connection points: 2
#     Edge 93, Type (0, 0), BuildingBlock: OJICUG_clean_linker_0, # of connection points: 2
#     Edge 94, Type (0, 0), BuildingBlock: OJICUG_clean_linker_0, # of connection points: 2
#     Edge 95, Type (0, 0), BuildingBlock: OJICUG_clean_linker_0, # of connection points: 2
#     Edge 96, Type (0, 0), BuildingBlock: OJICUG_clean_linker_0, # of connection points: 2
#     Edge 97, Type (0, 0), BuildingBlock: OJICUG_clean_linker_0, # of connection points: 2
#     Edge 98, Type (0, 0), BuildingBlock: OJICUG_clean_linker_0, # of connection points: 2
#     Edge 99, Type (0, 0), BuildingBlock: OJICUG_clean_linker_0, # of connection points: 2
#     Edge 100, Type (0, 0), BuildingBlock: OJICUG_clean_linker_0, # of connection points: 2
#     Edge 101, Type (0, 0), BuildingBlock: OJICUG_clean_linker_0, # of connection points: 2
#     Edge 102, Type (0, 0), BuildingBlock: OJICUG_clean_linker_0, # of connection points: 2
#     Edge 103, Type (0, 0), BuildingBlock: OJICUG_clean_linker_0, # of connection points: 2
#     Edge 104, Type (0, 0), BuildingBlock: OJICUG_clean_linker_0, # of connection points: 2
#     Edge 105, Type (0, 0), BuildingBlock: OJICUG_clean_linker_0, # of connection points: 2
#     Edge 106, Type (0, 0), BuildingBlock: OJICUG_clean_linker_0, # of connection points: 2
#     Edge 107, Type (0, 0), BuildingBlock: OJICUG_clean_linker_0, # of connection points: 2
#     Edge 108, Type (0, 0), BuildingBlock: OJICUG_clean_linker_0, # of connection points: 2
#     Edge 109, Type (0, 0), BuildingBlock: OJICUG_clean_linker_0, # of connection points: 2
#     Edge 110, Type (0, 0), BuildingBlock: OJICUG_clean_linker_0, # of connection points: 2
#     Edge 111, Type (0, 0), BuildingBlock: OJICUG_clean_linker_0, # of connection points: 2
#     Edge 112, Type (0, 0), BuildingBlock: OJICUG_clean_linker_0, # of connection points: 2
#     Edge 113, Type (0, 0), BuildingBlock: OJICUG_clean_linker_0, # of connection points: 2
#     Edge 114, Type (0, 0), BuildingBlock: OJICUG_clean_linker_0, # of connection points: 2
#     Edge 115, Type (0, 0), BuildingBlock: OJICUG_clean_linker_0, # of connection points: 2
#     Edge 116, Type (0, 0), BuildingBlock: OJICUG_clean_linker_0, # of connection points: 2
#     Edge 117, Type (0, 0), BuildingBlock: OJICUG_clean_linker_0, # of connection points: 2
#     Edge 118, Type (0, 0), BuildingBlock: OJICUG_clean_linker_0, # of connection points: 2
#     Edge 119, Type (0, 0), BuildingBlock: OJICUG_clean_linker_0, # of connection points: 2
#     Edge 120, Type (0, 0), BuildingBlock: OJICUG_clean_linker_0, # of connection points: 2
#     Edge 121, Type (0, 0), BuildingBlock: OJICUG_clean_linker_0, # of connection points: 2
#     Edge 122, Type (0, 0), BuildingBlock: OJICUG_clean_linker_0, # of connection points: 2
#     Edge 123, Type (0, 0), BuildingBlock: OJICUG_clean_linker_0, # of connection points: 2
#     Edge 124, Type (0, 0), BuildingBlock: OJICUG_clean_linker_0, # of connection points: 2
#     Edge 125, Type (0, 0), BuildingBlock: OJICUG_clean_linker_0, # of connection points: 2
#     Edge 126, Type (0, 0), BuildingBlock: OJICUG_clean_linker_0, # of connection points: 2
#     Edge 127, Type (0, 0), BuildingBlock: OJICUG_clean_linker_0, # of connection points: 2
# Relax obj value: 0.685
# Max RMSD: 0.248
# Mean RMSD: 0.219
data_MOF--net-wir--node1-JUFBIX_clean_sbu_0--edge1-OJICUG_clean_linker_0
_symmetry_space_group_name_H-M    P1
_symmetry_Int_Tables_number       1
_symmetry_cell_setting            triclinic
loop_
_symmetry_equiv_pos_as_xyz
'x, y, z'
_cell_length_a     30.304538
_cell_length_b     26.512486
_cell_length_c     64.465521
_cell_angle_alpha  96.040559
_cell_angle_beta   90.133701
_cell_angle_gamma 89.96059
loop_
_atom_site_label
_atom_site_type_symbol
_atom_site_fract_x
_atom_site_fract_y
_atom_site_fract_z
_atom_type_partial_charge
Co0 Co 0.27967 0.19061 0.37308 0.0
C1 C 0.19425 0.22925 0.35978 0.0
Co2 Co 0.22359 0.14519 0.38092 0.0
C3 C 0.3315 0.23217 0.34337 0.0
C4 C 0.34045 0.27547 0.37286 0.0
N5 N 0.32491 0.23052 0.36396 0.0
N6 N 0.34729 0.2768 0.33881 0.0
C7 C 0.3535 0.30439 0.35734 0.0
H8 H 0.31704 0.20578 0.33139 0.0
H9 H 0.33646 0.28956 0.3891 0.0
C10 C 0.30688 0.11694 0.40046 0.0
N11 N 0.17752 0.10623 0.38772 0.0
C12 C 0.13654 0.12355 0.39174 0.0
C13 C 0.17386 0.05529 0.38509 0.0
N14 N 0.10689 0.08576 0.39117 0.0
C15 C 0.13025 1.04249 0.38733 0.0
C16 C 0.26013 0.10715 0.34246 0.0
O17 O 0.32163 0.15117 0.38952 0.0
O18 O 0.26599 0.10474 0.39756 0.0
O19 O 0.22997 0.09944 0.35534 0.0
O20 O 0.28704 0.14275 0.3478 0.0
O21 O 0.18139 0.18814 0.36652 0.0
H22 H 0.20069 1.0294 0.38076 0.0
H23 H 0.12861 0.16345 0.3947 0.0
O24 O 0.23622 0.23515 0.35894 0.0
O25 O 0.27168 0.23527 0.39657 0.0
O26 O 0.21461 0.19109 0.405 0.0
C27 C 0.23798 0.23099 0.40778 0.0
H28 H 0.36124 0.34447 0.35939 0.0
H29 H 0.11678 1.00449 0.38577 0.0
Co30 Co 0.20472 0.97753 0.6259 0.0
C31 C 0.16825 0.87776 0.61922 0.0
Co32 Co 0.24353 0.91958 0.64104 0.0
C33 C 0.14991 1.01294 0.59251 0.0
C34 C 0.16069 0.07329 0.61662 0.0
N35 N 0.17199 1.02467 0.61093 0.0
N36 N 0.12498 1.05178 0.58654 0.0
C37 C 0.13226 0.08989 0.60184 0.0
H38 H 0.15162 0.9759 0.58375 0.0
H39 H 0.17108 0.09483 0.63098 0.0
C40 C 0.28092 1.01348 0.65221 0.0
N41 N 0.27143 0.86671 0.6532 0.0
C42 C 0.24581 0.84001 0.66509 0.0
C43 C 0.29603 0.83076 0.64207 0.0
N44 N 0.24721 0.78995 0.65909 0.0
C45 C 0.28043 0.78347 0.64531 0.0
C46 C 0.27145 0.93184 0.60139 0.0
O47 O 0.24961 1.02972 0.64063 0.0
O48 O 0.28505 0.96597 0.65256 0.0
O49 O 0.27817 0.90628 0.61665 0.0
O50 O 0.24124 0.96497 0.60258 0.0
O51 O 0.20178 0.87046 0.63012 0.0
H52 H 0.31824 0.83768 0.62959 0.0
H53 H 0.22053 0.85701 0.67528 0.0
O54 O 0.16199 0.92285 0.61438 0.0
O55 O 0.16954 0.99109 0.64854 0.0
O56 O 0.20748 0.93708 0.66525 0.0
C57 C 0.17781 0.971 0.66506 0.0
H58 H 0.11695 0.12692 0.60283 0.0
H59 H 0.28854 0.74823 0.63606 0.0
Co60 Co 0.4635 0.92152 0.86239 0.0
C61 C 0.55561 0.89309 0.85639 0.0
Co62 Co 0.50852 0.98312 0.87313 0.0
C63 C 0.39211 0.86908 0.84208 0.0
C64 C 0.43371 0.81671 0.85596 0.0
N65 N 0.42729 0.86662 0.85476 0.0
N66 N 0.37726 0.82292 0.83449 0.0
C67 C 0.40289 0.78966 0.84349 0.0
H68 H 0.37926 0.90435 0.83751 0.0
H69 H 0.46098 0.80098 0.86404 0.0
C70 C 0.4168 1.0017 0.88568 0.0
N71 N 0.54043 1.04344 0.87647 0.0
C72 C 0.584 1.05344 0.87639 0.0
C73 C 0.52153 0.08738 0.87208 0.0
N74 N 0.59294 0.1025 0.87307 0.0
C75 C 0.5532 0.12274 0.86959 0.0
C76 C 0.47507 0.98481 0.83167 0.0
O77 O 0.41108 0.95935 0.87463 0.0
O78 O 0.45526 1.02137 0.88488 0.0
O79 O 0.49987 1.0032 0.84609 0.0
O80 O 0.45363 0.94511 0.83458 0.0
O81 O 0.56204 0.93975 0.86368 0.0
H82 H 0.48668 0.09299 0.86958 0.0
H83 H 0.60868 1.02556 0.87937 0.0
O84 O 0.51549 0.88018 0.85242 0.0
O85 O 0.47368 0.9013 0.88902 0.0
O86 O 0.51738 0.96571 0.90018 0.0
C87 C 0.49651 0.92569 0.90347 0.0
H88 H 0.40171 0.74883 0.84009 0.0
H89 H 0.54715 0.16196 0.86718 0.0
Co90 Co 0.51253 0.12434 0.13069 0.0
C91 C 0.42347 0.07976 0.13436 0.0
Co92 Co 0.46088 0.15668 0.11233 0.0
C93 C 0.53308 0.07504 0.16414 0.0
C94 C 0.57309 1.0466 0.13851 0.0
N95 N 0.55101 0.08861 0.14649 0.0
N96 N 0.53561 1.02479 0.16532 0.0
C97 C 0.56286 1.00693 0.14985 0.0
H98 H 0.51143 0.09972 0.17381 0.0
H99 H 0.58957 1.04245 0.12358 0.0
C100 C 0.54627 0.20774 0.11407 0.0
N101 N 0.42202 0.19126 0.09716 0.0
C102 C 0.39661 0.17306 0.08098 0.0
C103 C 0.41738 0.24218 0.09838 0.0
N104 N 0.37674 0.21064 0.0719 0.0
C105 C 0.38959 0.25422 0.08279 0.0
C106 C 0.46466 0.19917 0.15251 0.0
O107 O 0.55804 0.1715 0.12444 0.0
O108 O 0.50691 0.20698 0.10684 0.0
O109 O 0.4446 0.19736 0.13537 0.0
O110 O 0.49752 0.17051 0.15461 0.0
O111 O 0.41283 0.10879 0.12035 0.0
H112 H 0.43439 0.26893 0.10945 0.0
H113 H 0.39447 0.1332 0.07534 0.0
O114 O 0.46455 0.07745 0.13841 0.0
O115 O 0.52901 0.08101 0.10565 0.0
O116 O 0.47913 0.11475 0.08706 0.0
C117 C 0.51294 0.08635 0.08779 0.0
H118 H 0.57131 0.96749 0.14575 0.0
H119 H 0.38005 0.29195 0.07952 0.0
Co120 Co 0.27936 0.92117 0.22621 0.0
C121 C 0.19369 0.88242 0.23894 0.0
Co122 Co 0.22304 0.96601 0.21801 0.0
C123 C 0.3284 0.88014 0.25695 0.0
C124 C 0.34247 0.83837 0.22761 0.0
N125 N 0.32427 0.88218 0.23622 0.0
N126 N 0.34587 0.83652 0.26179 0.0
C127 C 0.35515 0.80981 0.24337 0.0
H128 H 0.31131 0.90519 0.26854 0.0
H129 H 0.34086 0.82468 0.21123 0.0
C130 C 0.30645 0.99467 0.19897 0.0
N131 N 0.17657 1.00383 0.21051 0.0
C132 C 0.13604 0.98512 0.20631 0.0
C133 C 0.17139 0.05458 0.21347 0.0
N134 N 0.1052 1.02173 0.20729 0.0
C135 C 0.12733 0.06578 0.21141 0.0
C136 C 0.25889 1.0055 0.25641 0.0
O137 O 0.32147 0.96081 0.21008 0.0
O138 O 0.26534 1.00614 0.20147 0.0
O139 O 0.22871 1.01296 0.24341 0.0
O140 O 0.28565 0.96965 0.25131 0.0
O141 O 0.18088 0.92371 0.23238 0.0
H142 H 0.19739 0.08131 0.2182 0.0
H143 H 0.12925 0.94497 0.20329 0.0
O144 O 0.23562 0.87645 0.23994 0.0
O145 O 0.27287 0.87578 0.20288 0.0
O146 O 0.21503 0.91855 0.19415 0.0
C147 C 0.23892 0.87892 0.19166 0.0
H148 H 0.36526 0.77043 0.24142 0.0
H149 H 0.1127 0.1032 0.21354 0.0
Co150 Co 0.51371 0.99024 0.46928 0.0
C151 C 0.42444 1.03463 0.46605 0.0
Co152 Co 0.46294 0.95774 0.48795 0.0
C153 C 0.53194 1.03765 0.43509 0.0
C154 C 0.56989 0.07077 0.46068 0.0
N155 N 0.55091 1.02644 0.45297 0.0
N156 N 0.53045 0.08788 0.43365 0.0
C157 C 0.55645 0.10887 0.44911 0.0
H158 H 0.51248 1.01071 0.42528 0.0
H159 H 0.58653 0.07713 0.47557 0.0
C160 C 0.54851 0.90659 0.48543 0.0
N161 N 0.42468 0.92367 0.50347 0.0
C162 C 0.39859 0.94231 0.51929 0.0
C163 C 0.42013 0.8728 0.50244 0.0
N164 N 0.37834 0.905 0.52831 0.0
C165 C 0.39169 0.86119 0.51777 0.0
C166 C 0.46448 0.91507 0.44782 0.0
O167 O 0.55955 0.9429 0.47496 0.0
O168 O 0.50952 0.90725 0.49307 0.0
O169 O 0.44539 0.9168 0.46514 0.0
O170 O 0.49711 0.94383 0.44546 0.0
O171 O 0.41433 1.00563 0.48012 0.0
H172 H 0.43738 0.8458 0.49159 0.0
H173 H 0.39605 0.98229 0.52466 0.0
O174 O 0.46543 1.03733 0.46201 0.0
O175 O 0.53192 1.03325 0.49439 0.0
O176 O 0.48252 0.99976 0.51317 0.0
C177 C 0.51668 1.02758 0.51237 0.0
H178 H 0.56208 0.14907 0.45293 0.0
H179 H 0.38199 0.82357 0.52107 0.0
Co180 Co 0.45583 0.1882 0.73845 0.0
C181 C 0.54883 0.21882 0.73846 0.0
Co182 Co 0.49802 0.13154 0.72214 0.0
C183 C 0.39114 0.23383 0.76631 0.0
C184 C 0.42567 0.28909 0.75058 0.0
N185 N 0.42232 0.23881 0.75185 0.0
N186 N 0.37511 0.27906 0.77431 0.0
C187 C 0.39652 0.314 0.76438 0.0
H188 H 0.38075 0.19768 0.771 0.0
H189 H 0.44865 0.3065 0.74067 0.0
C190 C 0.40572 0.10841 0.7169 0.0
N191 N 0.5291 0.07702 0.7095 0.0
C192 C 0.55539 1.04568 0.7193 0.0
C193 C 0.512 1.04741 0.69325 0.0
N194 N 0.55376 0.99705 0.71045 0.0
C195 C 0.52518 0.99853 0.69433 0.0
C196 C 0.48099 0.11444 0.76395 0.0
O197 O 0.40064 0.14997 0.72866 0.0
O198 O 0.44483 0.09141 0.71538 0.0
O199 O 0.50419 0.1014 0.74799 0.0
O200 O 0.45764 0.1542 0.76384 0.0
O201 O 0.55281 0.17514 0.7278 0.0
H202 H 0.48804 0.05968 0.68238 0.0
H203 H 0.57461 0.05793 0.73309 0.0
O204 O 0.51051 0.2292 0.74628 0.0
O205 O 0.45233 0.21954 0.71423 0.0
O206 O 0.48893 0.1588 0.69614 0.0
C207 C 0.46342 0.19699 0.69674 0.0
H208 H 0.39252 0.35469 0.76737 0.0
H209 H 0.51611 0.96688 0.68315 0.0
Co210 Co 0.20698 0.12974 0.97414 0.0
C211 C 0.16561 0.22722 0.98008 0.0
Co212 Co 0.24232 0.18913 0.95831 0.0
C213 C 0.1535 0.09383 1.00837 0.0
C214 C 0.16714 1.03247 0.98513 0.0
N215 N 0.17646 0.08191 0.99016 0.0
N216 N 0.12994 1.05431 1.0148 0.0
C217 C 0.13915 1.01564 1.00001 0.0
H218 H 0.15337 0.13154 1.01658 0.0
H219 H 0.17845 1.01039 0.97108 0.0
C220 C 0.28551 0.0969 0.94819 0.0
N221 N 0.26738 0.24125 0.94517 0.0
C222 C 0.26135 0.29021 0.95264 0.0
C223 C 0.27186 0.24184 0.92446 0.0
N224 N 0.25416 0.32012 0.93738 0.0
C225 C 0.26381 0.29036 0.91966 0.0
C226 C 0.27213 0.18164 0.99791 0.0
O227 O 0.25515 0.07941 0.95996 0.0
O228 O 0.2861 0.14435 0.94704 0.0
O229 O 0.2778 0.20688 0.98239 0.0
O230 O 0.24324 0.14696 0.99697 0.0
O231 O 0.19816 0.23551 0.96885 0.0
H232 H 0.27203 0.20828 0.91335 0.0
H233 H 0.25221 0.30152 0.96866 0.0
O234 O 0.16152 0.18218 0.98526 0.0
O235 O 0.17214 0.11242 0.9516 0.0
O236 O 0.2057 0.16911 0.93444 0.0
C237 C 0.17801 0.13305 0.93497 0.0
H238 H 0.12544 0.97786 0.99937 0.0
H239 H 0.2561 0.29996 0.90412 0.0
Co240 Co 0.91346 0.96101 0.72029 0.0
C241 C 0.83099 0.991 0.70061 0.0
Co242 Co 0.8569 0.91572 0.72754 0.0
C243 C 1.00076 0.9822 0.71034 0.0
C244 C 0.96401 1.05078 0.7172 0.0
N245 N 0.95984 0.99992 0.71405 0.0
N246 N 1.03085 1.01957 0.71168 0.0
C247 C 1.00789 0.06309 0.71562 0.0
H248 H 1.00831 0.94228 0.70704 0.0
H249 H 0.93729 0.07687 0.72149 0.0
C250 C 0.94206 0.87536 0.74079 0.0
N251 N 0.81115 0.87569 0.73625 0.0
C252 C 0.80369 0.87387 0.75678 0.0
C253 C 0.79615 0.83063 0.7272 0.0
N254 N 0.78796 0.82905 0.76117 0.0
C255 C 0.78258 0.80153 0.74256 0.0
C256 C 0.89881 0.87639 0.69282 0.0
O257 O 0.95513 0.91711 0.73468 0.0
O258 O 0.90001 0.86963 0.74136 0.0
O259 O 0.86473 0.87219 0.70378 0.0
O260 O 0.92279 0.91571 0.69607 0.0
O261 O 0.81555 0.95669 0.71134 0.0
H262 H 0.80083 0.81661 0.711 0.0
H263 H 0.81737 0.90038 0.76893 0.0
O264 O 0.872 1.0023 0.70365 0.0
O265 O 0.90655 1.00631 0.74596 0.0
O266 O 0.84943 0.96265 0.75306 0.0
C267 C 0.87596 0.99848 0.75859 0.0
H268 H 1.02181 0.10087 0.71761 0.0
H269 H 0.77501 0.76142 0.7404 0.0
Co270 Co 0.89104 0.18696 0.45959 0.0
C271 C 0.84872 0.0949 0.44996 0.0
Co272 Co 0.92767 0.12822 0.47523 0.0
C273 C 0.89362 0.2668 0.43565 0.0
C274 C 0.84004 0.27673 0.45695 0.0
N275 N 0.86606 0.24057 0.44686 0.0
N276 N 0.89098 0.31713 0.44092 0.0
C277 C 0.85585 0.32392 0.4536 0.0
H278 H 0.9206 0.24943 0.42666 0.0
H279 H 0.81621 0.27015 0.46881 0.0
C280 C 0.96784 0.22617 0.48096 0.0
N281 N 0.95843 0.0806 0.49075 0.0
C282 C 0.98075 0.09251 0.5091 0.0
C283 C 0.9685 1.03146 0.48547 0.0
N284 N 1.0047 1.05327 0.51541 0.0
C285 C 0.99646 1.01473 0.50041 0.0
C286 C 0.95522 0.13094 0.43588 0.0
O287 O 0.93434 0.23419 0.4702 0.0
O288 O 0.97318 0.18101 0.48589 0.0
O289 O 0.96182 0.11061 0.45249 0.0
O290 O 0.927 0.16645 0.43548 0.0
O291 O 0.87957 0.07796 0.46164 0.0
H292 H 0.95772 1.00962 0.47125 0.0
H293 H 0.98006 0.13002 0.51749 0.0
O294 O 0.84749 0.14223 0.44847 0.0
O295 O 0.8566 0.20367 0.48397 0.0
O296 O 0.89265 0.14502 0.4985 0.0
C297 C 0.86348 0.17929 0.49959 0.0
H298 H 0.84606 0.35961 0.46205 0.0
H299 H 1.01085 0.97725 0.4997 0.0
Co300 Co 0.62556 0.1248 0.22643 0.0
C301 C 0.71691 0.10801 0.2131 0.0
Co302 Co 0.67043 0.18601 0.23778 0.0
C303 C 0.55028 0.05481 0.22385 0.0
C304 C 0.61318 1.01984 0.2254 0.0
N305 N 0.59375 0.06452 0.22246 0.0
N306 N 0.54174 1.00535 0.22664 0.0
C307 C 0.58189 0.9844 0.22839 0.0
H308 H 0.52524 0.08329 0.22226 0.0
H309 H 0.64828 1.01367 0.22667 0.0
C310 C 0.57829 0.21373 0.24454 0.0
N311 N 0.70648 0.24078 0.24585 0.0
C312 C 0.74171 0.23802 0.25848 0.0
C313 C 0.69987 0.29077 0.24495 0.0
N314 N 0.75643 0.28404 0.2663 0.0
C315 C 0.73065 0.31755 0.25754 0.0
C316 C 0.63579 0.18501 0.19705 0.0
O317 O 0.57204 0.16717 0.23703 0.0
O318 O 0.61844 0.22668 0.24843 0.0
O319 O 0.6594 0.20816 0.21152 0.0
O320 O 0.61501 0.14473 0.19998 0.0
O321 O 0.72281 0.14926 0.2249 0.0
H322 H 0.67255 0.30668 0.23698 0.0
H323 H 0.75478 0.2026 0.2628 0.0
O324 O 0.67843 0.08826 0.21357 0.0
O325 O 0.63626 0.10158 0.25286 0.0
O326 O 0.6813 0.16018 0.26513 0.0
C327 C 0.66162 0.11882 0.26729 0.0
H328 H 0.58824 0.9448 0.23 0.0
H329 H 0.73174 0.35834 0.26115 0.0
Co330 Co 0.66951 0.95255 0.98759 0.0
C331 C 0.58414 0.90181 0.98616 0.0
Co332 Co 0.61779 0.98507 0.96937 0.0
C333 C 0.73553 0.93644 1.01806 0.0
C334 C 0.71339 0.8671 1.00126 0.0
N335 N 0.70876 0.918 1.00245 0.0
N336 N 0.75626 0.89901 1.02683 0.0
C337 C 0.74254 0.85528 1.01635 0.0
H338 H 0.73809 0.97636 1.02354 0.0
H339 H 0.6956 0.84024 0.99054 0.0
C340 C 0.70676 1.02962 0.96562 0.0
N341 N 0.57887 1.02089 0.95381 0.0
C342 C 0.59645 1.03461 0.93612 0.0
C343 C 0.55694 0.06287 0.96194 0.0
N344 N 0.594 0.08491 0.93508 0.0
C345 C 0.56704 0.1027 0.95068 0.0
C346 C 0.61795 1.02281 1.01234 0.0
O347 O 0.71734 1.00044 0.97956 0.0
O348 O 0.6657 1.03198 0.96151 0.0
O349 O 0.60182 1.02832 0.9945 0.0
O350 O 0.65168 0.99425 1.01299 0.0
O351 O 0.57237 0.93805 0.9758 0.0
H352 H 0.54074 0.06688 0.97694 0.0
H353 H 0.61792 1.01 0.92631 0.0
O354 O 0.62363 0.90226 0.99321 0.0
O355 O 0.68548 0.91197 0.96442 0.0
O356 O 0.63239 0.93891 0.94531 0.0
C357 C 0.66528 0.91021 0.94732 0.0
H358 H 0.75233 0.81762 1.01959 0.0
H359 H 0.55893 0.14218 0.95493 0.0
Co360 Co 0.9075 0.14298 0.88246 0.0
C361 C 0.82419 0.11463 0.90134 0.0
Co362 Co 0.85158 0.1879 0.87398 0.0
C363 C 0.99444 0.12247 0.89365 0.0
C364 C 0.95776 1.05373 0.88714 0.0
N365 N 0.95354 0.10462 0.88985 0.0
N366 N 1.02457 0.08512 0.89263 0.0
C367 C 1.00165 1.04152 0.88894 0.0
H368 H 1.002 0.16247 0.89649 0.0
H369 H 0.93116 1.02752 0.88277 0.0
C370 C 0.93698 0.22641 0.86125 0.0
N371 N 0.80665 0.22685 0.86409 0.0
C372 C 0.80239 0.22893 0.84339 0.0
C373 C 0.78823 0.27045 0.87277 0.0
N374 N 0.7846 0.27242 0.83861 0.0
C375 C 0.77525 0.29897 0.85705 0.0
C376 C 0.89229 0.2299 0.90875 0.0
O377 O 0.94978 0.18557 0.86822 0.0
O378 O 0.89508 0.23208 0.85998 0.0
O379 O 0.85876 0.23378 0.89729 0.0
O380 O 0.91556 0.1898 0.90642 0.0
O381 O 0.80946 0.14879 0.89032 0.0
H382 H 0.78989 0.28405 0.88917 0.0
H383 H 0.81964 0.20407 0.83178 0.0
O384 O 0.86516 0.10273 0.8988 0.0
O385 O 0.90206 0.09648 0.85711 0.0
O386 O 0.84491 0.13899 0.8489 0.0
C387 C 0.87206 0.10337 0.84399 0.0
H388 H 1.01563 1.00376 0.887 0.0
H389 H 0.76492 0.33828 0.85905 0.0
Co390 Co 0.67706 0.1545 0.6131 0.0
C391 C 0.59226 0.20575 0.61665 0.0
Co392 Co 0.62819 0.11986 0.63188 0.0
C393 C 0.74216 0.17308 0.5829 0.0
C394 C 0.71828 0.2418 0.59949 0.0
N395 N 0.71521 0.19077 0.59848 0.0
N396 N 0.76149 0.21103 0.57393 0.0
C397 C 0.74667 0.25441 0.58428 0.0
H398 H 0.74571 0.13321 0.57752 0.0
H399 H 0.69979 0.26814 0.61011 0.0
C400 C 0.71675 0.07651 0.63446 0.0
N401 N 0.59137 0.08022 0.64685 0.0
C402 C 0.61082 0.05803 0.66245 0.0
C403 C 0.56459 1.04368 0.63766 0.0
N404 N 0.60314 1.00765 0.66123 0.0
C405 C 0.5723 0.99897 0.64619 0.0
C406 C 0.62528 0.0861 0.58792 0.0
O407 O 0.72711 0.10841 0.62156 0.0
O408 O 0.67566 0.07089 0.63713 0.0
O409 O 0.60904 0.08135 0.60579 0.0
O410 O 0.66041 0.11241 0.5874 0.0
O411 O 0.58285 0.17047 0.62807 0.0
H412 H 0.54529 1.04702 0.62374 0.0
H413 H 0.63608 0.07682 0.67229 0.0
O414 O 0.62952 0.2032 0.60731 0.0
O415 O 0.69135 0.1956 0.63644 0.0
O416 O 0.64524 0.16071 0.65686 0.0
C417 C 0.67476 0.19331 0.65418 0.0
H418 H 0.75511 0.29229 0.58082 0.0
H419 H 0.5577 0.96258 0.64103 0.0
Co420 Co 0.62544 0.98168 0.37645 0.0
C421 C 0.7169 0.99916 0.38866 0.0
Co422 Co 0.67006 0.92123 0.3642 0.0
C423 C 0.54997 1.04977 0.37714 0.0
C424 C 0.61207 0.08711 0.3799 0.0
N425 N 0.59291 1.04145 0.38127 0.0
N426 N 0.5413 0.09899 0.37404 0.0
C427 C 0.58121 0.12148 0.37507 0.0
H428 H 0.52518 1.0203 0.37671 0.0
H429 H 0.64701 0.0949 0.3806 0.0
C430 C 0.57796 0.89341 0.35807 0.0
N431 N 0.70607 0.86713 0.35547 0.0
C432 C 0.74087 0.8705 0.34275 0.0
C433 C 0.70067 0.81707 0.35669 0.0
N434 N 0.75657 0.82473 0.33523 0.0
C435 C 0.73183 0.79079 0.34422 0.0
C436 C 0.6388 0.91952 0.40525 0.0
O437 O 0.57196 0.9394 0.36624 0.0
O438 O 0.61789 0.8807 0.3536 0.0
O439 O 0.66085 0.89718 0.39011 0.0
O440 O 0.61746 0.96004 0.40304 0.0
O441 O 0.72271 0.95788 0.3769 0.0
H442 H 0.67416 0.80071 0.36499 0.0
H443 H 0.7532 0.9061 0.33832 0.0
O444 O 0.67823 1.01824 0.38865 0.0
O445 O 0.63404 1.00651 0.35015 0.0
O446 O 0.67945 0.94901 0.33719 0.0
C447 C 0.65932 0.99042 0.33551 0.0
H448 H 0.58734 0.16132 0.37392 0.0
H449 H 0.73406 0.74999 0.34094 0.0
Co450 Co 0.88689 0.92202 0.14081 0.0
C451 C 0.84721 1.01638 0.14983 0.0
Co452 Co 0.92582 0.97877 0.1253 0.0
C453 C 0.85968 0.82394 0.14648 0.0
C454 C 0.84695 0.87457 0.1738 0.0
N455 N 0.85653 0.8734 0.15343 0.0
N456 N 0.86193 0.79468 0.16222 0.0
C457 C 0.84956 0.82585 0.17918 0.0
H458 H 0.87171 0.81111 0.13102 0.0
H459 H 0.84693 0.90859 0.18466 0.0
C460 C 0.96384 0.87872 0.12085 0.0
N461 N 0.9597 1.02471 0.10975 0.0
C462 C 0.98337 1.01217 0.09179 0.0
C463 C 0.96926 0.0741 0.11471 0.0
N464 N 1.00744 1.05139 0.08541 0.0
C465 C 0.998 0.09036 0.10003 0.0
C466 C 0.9513 0.9746 0.16514 0.0
O467 O 0.93001 0.87236 0.13162 0.0
O468 O 0.96966 0.92317 0.11516 0.0
O469 O 0.95951 0.99423 0.14847 0.0
O470 O 0.92167 0.94051 0.16547 0.0
O471 O 0.87925 1.03234 0.13863 0.0
H472 H 0.95715 0.0967 0.12847 0.0
H473 H 0.9833 0.97439 0.08364 0.0
O474 O 0.84441 0.96913 0.15076 0.0
O475 O 0.85356 0.90541 0.1162 0.0
O476 O 0.89069 0.96342 0.10173 0.0
C477 C 0.86096 0.92968 0.1006 0.0
H478 H 0.85306 0.81669 0.19509 0.0
H479 H 1.01176 0.1281 0.10061 0.0
Co480 Co 0.77741 0.68801 0.87369 0.0
C481 C 0.69219 0.7268 0.86049 0.0
Co482 Co 0.72123 0.64279 0.88164 0.0
C483 C 0.82904 0.72859 0.84363 0.0
C484 C 0.83874 0.77229 0.87297 0.0
N485 N 0.82274 0.72737 0.86427 0.0
N486 N 0.84522 0.77287 0.83887 0.0
C487 C 0.85187 0.80072 0.85731 0.0
H488 H 0.81422 0.70218 0.83176 0.0
H489 H 0.83508 0.78671 0.88919 0.0
C490 C 0.80446 0.6142 0.90107 0.0
N491 N 0.67482 0.60459 0.88871 0.0
C492 C 0.63423 0.62285 0.89305 0.0
C493 C 0.6702 0.55377 0.88599 0.0
N494 N 0.60389 0.5858 0.89258 0.0
C495 C 0.62641 0.542 0.88847 0.0
C496 C 0.75711 0.60439 0.84315 0.0
O497 O 0.81927 0.64848 0.89017 0.0
O498 O 0.76354 0.60208 0.89819 0.0
O499 O 0.72696 0.59679 0.85606 0.0
O500 O 0.78425 0.63975 0.84851 0.0
O501 O 0.67922 0.68586 0.86732 0.0
H502 H 0.69644 0.52728 0.88139 0.0
H503 H 0.62706 0.66292 0.89608 0.0
O504 O 0.73414 0.73252 0.85955 0.0
O505 O 0.76988 0.73319 0.89709 0.0
O506 O 0.71291 0.68907 0.90569 0.0
C507 C 0.73621 0.72905 0.90834 0.0
H508 H 0.86011 0.84067 0.8592 0.0
H509 H 0.61223 0.50435 0.88682 0.0
Co510 Co 0.70425 0.48315 0.12534 0.0
C511 C 0.66542 0.3842 0.11974 0.0
Co512 Co 0.74165 0.42502 0.14099 0.0
C513 C 0.64936 0.51768 0.09185 0.0
C514 C 0.66174 0.57911 0.11529 0.0
N515 N 0.67223 0.53009 0.11 0.0
N516 N 0.62465 0.55649 0.08569 0.0
C517 C 0.63297 0.59528 0.10056 0.0
H518 H 0.65022 0.48016 0.08348 0.0
H519 H 0.6728 0.60121 0.12941 0.0
C520 C 0.7825 0.51808 0.15054 0.0
N521 N 0.76831 0.37225 0.15365 0.0
C522 C 0.74166 0.34574 0.16516 0.0
C523 C 0.794 0.3363 0.1432 0.0
N524 N 0.74398 0.29553 0.15958 0.0
C525 C 0.77843 0.289 0.14649 0.0
C526 C 0.76878 0.43342 0.10094 0.0
O527 O 0.75136 0.53463 0.13893 0.0
O528 O 0.78445 0.47072 0.15184 0.0
O529 O 0.77564 0.40907 0.11654 0.0
O530 O 0.7394 0.46746 0.10194 0.0
O531 O 0.69889 0.37669 0.13062 0.0
H532 H 0.81721 0.34311 0.1311 0.0
H533 H 0.71525 0.3629 0.1746 0.0
O534 O 0.65973 0.42922 0.1147 0.0
O535 O 0.67009 0.49969 0.1482 0.0
O536 O 0.70621 0.44482 0.1652 0.0
C537 C 0.67754 0.47982 0.16485 0.0
H538 H 0.61808 0.63252 0.10133 0.0
H539 H 0.7877 0.25354 0.13771 0.0
Co540 Co 0.96509 0.42378 0.36161 0.0
C541 C 1.05718 0.3954 0.35525 0.0
Co542 Co 1.01015 0.48535 0.37236 0.0
C543 C 0.89328 0.37184 0.34145 0.0
C544 C 0.93525 0.31904 0.35488 0.0
N545 N 0.92874 0.36904 0.35393 0.0
N546 N 0.87833 0.32583 0.33373 0.0
C547 C 0.90418 0.2923 0.34244 0.0
H548 H 0.88029 0.40727 0.33711 0.0
H549 H 0.96271 0.30308 0.36273 0.0
C550 C 0.91886 0.50368 0.38529 0.0
N551 N 1.04218 0.54559 0.37586 0.0
C552 C 0.08572 0.55579 0.37616 0.0
C553 C 1.02333 0.58967 0.37161 0.0
N554 N 0.09465 0.60506 0.37317 0.0
C555 C 1.05499 0.62527 0.36952 0.0
C556 C 0.97496 0.48857 0.33124 0.0
O557 O 0.91292 0.46149 0.37415 0.0
O558 O 0.95732 0.52328 0.38447 0.0
O559 O 1.00048 0.50648 0.34548 0.0
O560 O 0.95449 0.4481 0.33399 0.0
O561 O 1.06357 0.44212 0.3625 0.0
H562 H 0.9885 0.59529 0.36906 0.0
H563 H 0.11035 0.52792 0.37923 0.0
O564 O 1.01702 0.38246 0.35134 0.0
O565 O 0.9757 0.40292 0.38808 0.0
O566 O 1.01964 0.46706 0.39927 0.0
C567 C 0.99881 0.42696 0.40249 0.0
H568 H 0.90298 0.25151 0.33885 0.0
H569 H 1.04892 0.66461 0.36732 0.0
Co570 Co 1.01339 0.61949 0.63101 0.0
C571 C 0.92369 0.57641 0.63473 0.0
Co572 Co 0.96211 0.6527 0.61273 0.0
C573 C 1.03319 0.5691 0.66428 0.0
C574 C 0.07297 0.54054 0.63859 0.0
N575 N 1.05133 0.58275 0.64668 0.0
N576 N 1.03527 0.51877 0.66535 0.0
C577 C 1.06238 0.50082 0.64983 0.0
H578 H 1.01176 0.59392 0.67402 0.0
H579 H 0.08947 0.53643 0.62367 0.0
C580 C 1.04809 0.70239 0.6144 0.0
N581 N 0.92364 0.68818 0.59771 0.0
C582 C 0.89813 0.67074 0.58145 0.0
C583 C 0.91953 0.73918 0.59916 0.0
N584 N 0.87873 0.70888 0.57254 0.0
C585 C 0.89198 0.75204 0.58362 0.0
C586 C 0.96651 0.69472 0.653 0.0
O587 O 1.05952 0.66607 0.62482 0.0
O588 O 1.00871 0.70217 0.60723 0.0
O589 O 0.94648 0.69342 0.63587 0.0
O590 O 0.999 0.6655 0.65506 0.0
O591 O 0.91341 0.60563 0.62075 0.0
H592 H 0.9368 0.76544 0.61033 0.0
H593 H 0.89564 0.63103 0.57562 0.0
O594 O 0.96476 0.57328 0.63868 0.0
O595 O 1.02942 0.57631 0.60585 0.0
O596 O 0.97984 0.61081 0.58735 0.0
C597 C 1.01356 0.58224 0.58799 0.0
H598 H 0.07059 0.46134 0.64566 0.0
H599 H 0.88293 0.79002 0.58049 0.0
Co600 Co 0.77636 0.42089 0.7264 0.0
C601 C 0.68928 0.38264 0.73825 0.0
Co602 Co 0.72062 0.4662 0.71801 0.0
C603 C 0.8238 0.37853 0.75734 0.0
C604 C 0.83927 0.33774 0.72797 0.0
N605 N 0.82037 0.38109 0.73663 0.0
N606 N 0.84179 0.33515 0.76211 0.0
C607 C 0.85184 0.30896 0.74368 0.0
H608 H 0.80614 0.40305 0.76891 0.0
H609 H 0.83844 0.32454 0.71152 0.0
C610 C 0.80515 0.49415 0.69957 0.0
N611 N 0.67515 0.50514 0.71028 0.0
C612 C 0.63412 0.48774 0.7064 0.0
C613 C 0.67123 0.55606 0.71324 0.0
N614 N 0.60417 0.52534 0.7077 0.0
C615 C 0.62739 0.56869 0.71156 0.0
C616 C 0.75565 0.50469 0.75677 0.0
O617 O 0.81968 0.4606 0.71095 0.0
O618 O 0.76397 0.50563 0.7017 0.0
O619 O 0.72619 0.51308 0.74354 0.0
O620 O 0.7819 0.46833 0.75177 0.0
O621 O 0.6773 0.42465 0.73208 0.0
H622 H 0.69794 0.58194 0.71782 0.0
H623 H 0.62629 0.44783 0.70345 0.0
O624 O 0.73116 0.37584 0.73932 0.0
O625 O 0.771 0.37672 0.70289 0.0
O626 O 0.71272 0.41861 0.69403 0.0
C627 C 0.73738 0.37956 0.69147 0.0
H628 H 0.86259 0.26981 0.74166 0.0
H629 H 0.61362 0.60653 0.7138 0.0
Co630 Co 1.01102 0.4862 0.9702 0.0
C631 C 0.92189 0.5308 0.96643 0.0
Co632 Co 0.9596 0.45335 0.9883 0.0
C633 C 1.03137 0.53523 0.93674 0.0
C634 C 0.06981 0.5655 0.96267 0.0
N635 N 1.04941 0.52241 0.95454 0.0
N636 N 1.03184 0.58561 0.93567 0.0
C637 C 1.05815 0.60475 0.95134 0.0
H638 H 1.01098 0.5096 0.92677 0.0
H639 H 0.08606 0.5704 0.97768 0.0
C640 C 1.04478 0.40215 0.98644 0.0
N641 N 0.92066 0.41885 1.00315 0.0
C642 C 0.89388 0.43756 1.01863 0.0
C643 C 0.916 0.36797 1.00206 0.0
N644 N 0.87308 0.40034 1.02743 0.0
C645 C 0.8868 0.35644 1.0171 0.0
C646 C 0.96278 0.41151 0.94799 0.0
O647 O 1.05646 0.43873 0.97627 0.0
O648 O 1.00547 0.40266 0.99363 0.0
O649 O 0.94292 0.41305 0.96511 0.0
O650 O 0.99563 0.44024 0.94603 0.0
O651 O 0.9115 0.50156 0.98036 0.0
H652 H 0.93375 0.34095 0.99142 0.0
H653 H 0.89132 0.47755 1.02399 0.0
O654 O 0.96298 0.53351 0.96253 0.0
O655 O 1.02799 0.52893 0.99559 0.0
O656 O 0.97829 0.49467 1.01394 0.0
C657 C 1.01232 0.52284 1.01345 0.0
H658 H 1.06492 0.64458 0.95555 0.0
H659 H 0.87693 0.31888 1.02041 0.0
Co660 Co 0.96285 0.69059 0.236 0.0
C661 C 1.056 0.71681 0.24053 0.0
Co662 Co 1.0063 0.63092 0.22214 0.0
C663 C 0.89532 0.74005 0.26075 0.0
C664 C 0.93328 0.79411 0.24599 0.0
N665 N 0.92843 0.74395 0.24712 0.0
N666 N 0.87992 0.78566 0.26871 0.0
C667 C 0.90336 0.81994 0.25927 0.0
H668 H 0.88351 0.70424 0.26521 0.0
H669 H 0.95827 0.81082 0.2369 0.0
C670 C 0.91343 0.61486 0.21202 0.0
N671 N 1.03796 0.57296 0.21335 0.0
C672 C 0.07041 0.55261 0.22428 0.0
C673 C 1.02059 0.53306 0.20148 0.0
N674 N 0.07405 0.5015 0.2198 0.0
C675 C 1.04071 0.48962 0.20612 0.0
C676 C 0.97756 0.61693 0.26304 0.0
O677 O 0.90855 0.65645 0.22364 0.0
O678 O 0.95181 0.59524 0.21183 0.0
O679 O 1.00242 0.60226 0.24795 0.0
O680 O 0.95639 0.65806 0.26206 0.0
O681 O 1.0612 0.67187 0.23107 0.0
H682 H 0.99387 0.53472 0.19048 0.0
H683 H 0.09119 0.57494 0.23543 0.0
O684 O 1.01658 0.72888 0.24631 0.0
O685 O 0.96919 0.71918 0.21099 0.0
O686 O 1.00945 0.65607 0.19611 0.0
C687 C 0.98903 0.6975 0.19507 0.0
H688 H 0.90073 0.86072 0.26252 0.0
H689 H 1.03382 0.45235 0.19823 0.0
Co690 Co 0.71063 0.63348 0.47353 0.0
C691 C 0.67053 0.73194 0.4794 0.0
Co692 Co 0.74751 0.69231 0.45825 0.0
C693 C 0.65706 0.59805 0.50755 0.0
C694 C 0.6682 0.53725 0.48372 0.0
N695 N 0.67903 0.58613 0.4891 0.0
N696 N 0.63268 0.55906 0.51382 0.0
C697 C 0.64026 0.52071 0.49866 0.0
H698 H 0.65832 0.63541 0.51606 0.0
H699 H 0.67852 0.51543 0.46943 0.0
C700 C 0.78901 0.59909 0.44813 0.0
N701 N 0.77483 0.7434 0.44551 0.0
C702 C 0.76945 0.79252 0.45277 0.0
C703 C 0.78156 0.74351 0.42492 0.0
N704 N 0.76396 0.82218 0.4373 0.0
C705 C 0.77521 0.7921 0.41988 0.0
C706 C 0.77578 0.68336 0.49797 0.0
O707 O 0.75792 0.58206 0.45958 0.0
O708 O 0.79069 0.64656 0.44727 0.0
O709 O 0.78234 0.70885 0.48262 0.0
O710 O 0.74641 0.64924 0.49668 0.0
O711 O 0.70376 0.73991 0.46851 0.0
H712 H 0.782 0.70979 0.4139 0.0
H713 H 0.75897 0.80425 0.46857 0.0
O714 O 0.66574 0.68686 0.48448 0.0
O715 O 0.67622 0.61748 0.45073 0.0
O716 O 0.71142 0.67372 0.43397 0.0
C717 C 0.68295 0.63836 0.43423 0.0
H718 H 0.62551 0.48343 0.49784 0.0
H719 H 0.76913 0.8015 0.40416 0.0
Co720 Co 0.41196 0.46531 0.22029 0.0
C721 C 0.32898 0.49442 0.2009 0.0
Co722 Co 0.35572 0.41982 0.22786 0.0
C723 C 0.4991 0.48772 0.21004 0.0
C724 C 0.46124 0.55561 0.21657 0.0
N725 N 0.45794 0.50463 0.21383 0.0
N726 N 0.52849 0.52579 0.21087 0.0
C727 C 0.50482 0.56884 0.21464 0.0
H728 H 0.50732 0.44791 0.20698 0.0
H729 H 0.43414 0.58122 0.22077 0.0
C730 C 0.44108 0.38037 0.24097 0.0
N731 N 0.31028 0.37962 0.23667 0.0
C732 C 0.30302 0.37777 0.2572 0.0
C733 C 0.29526 0.33456 0.22762 0.0
N734 N 0.28745 0.3329 0.26161 0.0
C735 C 0.28193 0.3054 0.243 0.0
C736 C 0.3973 0.3806 0.19294 0.0
O737 O 0.45401 0.42183 0.23454 0.0
O738 O 0.39909 0.37449 0.24171 0.0
O739 O 0.36362 0.3761 0.20414 0.0
O740 O 0.42111 0.42009 0.19604 0.0
O741 O 0.31399 0.46004 0.2117 0.0
H742 H 0.29983 0.32057 0.21141 0.0
H743 H 0.31683 0.40428 0.26932 0.0
O744 O 0.36991 0.50624 0.20381 0.0
O745 O 0.40535 0.51046 0.24595 0.0
O746 O 0.34834 0.46686 0.25332 0.0
C747 C 0.37507 0.50257 0.25873 0.0
H748 H 0.51804 0.60696 0.21626 0.0
H749 H 0.27453 0.26524 0.24085 0.0
Co750 Co 0.38646 0.68823 0.96005 0.0
C751 C 0.34419 0.59597 0.9505 0.0
Co752 Co 0.42294 0.62945 0.97575 0.0
C753 C 0.3886 0.76781 0.93596 0.0
C754 C 0.33558 0.77806 0.95755 0.0
N755 N 0.36119 0.74171 0.9473 0.0
N756 N 0.38646 0.81811 0.94137 0.0
C757 C 0.35166 0.82514 0.95423 0.0
H758 H 0.41525 0.75031 0.92678 0.0
H759 H 0.31195 0.77163 0.96952 0.0
C760 C 0.463 0.72756 0.98148 0.0
N761 N 0.45397 0.58208 0.99128 0.0
C762 C 0.47675 0.5944 1.00946 0.0
C763 C 0.4642 0.53295 0.98605 0.0
N764 N 0.50119 0.55547 1.01569 0.0
C765 C 0.49274 0.51665 1.00085 0.0
C766 C 0.45096 0.63242 0.93645 0.0
O767 O 0.42944 0.73577 0.97078 0.0
O768 O 0.46834 0.68234 0.98631 0.0
O769 O 0.4571 0.61182 0.95303 0.0
O770 O 0.42285 0.66805 0.93601 0.0
O771 O 0.37489 0.57907 0.96227 0.0
H772 H 0.45322 0.5109 0.97191 0.0
H773 H 0.47611 0.63199 1.01777 0.0
O774 O 0.34325 0.64323 0.94884 0.0
O775 O 0.35167 0.70449 0.98436 0.0
O776 O 0.3879 0.64623 0.99904 0.0
C777 C 0.35846 0.68018 1.00001 0.0
H778 H 0.34238 0.86083 0.96283 0.0
H779 H 0.50746 0.47933 1.00012 0.0
Co780 Co 0.12757 0.61964 0.72545 0.0
C781 C 0.21936 0.60423 0.7121 0.0
Co782 Co 0.17192 0.68078 0.73734 0.0
C783 C 1.05294 0.54927 0.72334 0.0
C784 C 0.11611 0.51432 0.72319 0.0
N785 N 0.09618 0.55916 0.72102 0.0
N786 N 1.04494 0.49963 0.72599 0.0
C787 C 0.08534 0.47864 0.72664 0.0
H788 H 1.02761 0.57783 0.72262 0.0
H789 H 0.1513 0.50814 0.7238 0.0
C790 C 0.07949 0.70797 0.7439 0.0
N791 N 0.20752 0.73566 0.74585 0.0
C792 C 0.24222 0.7332 0.75883 0.0
C793 C 0.20095 0.78558 0.74474 0.0
N794 N 0.25667 0.77937 0.76662 0.0
C795 C 0.23124 0.81264 0.75752 0.0
C796 C 0.13759 0.68102 0.69656 0.0
O797 O 0.07355 0.66148 0.73618 0.0
O798 O 0.11955 0.72092 0.74803 0.0
O799 O 0.16109 0.70381 0.71117 0.0
O800 O 0.11702 0.64046 0.69922 0.0
O801 O 0.22486 0.64489 0.72434 0.0
H802 H 0.17402 0.80128 0.73644 0.0
H803 H 0.2552 0.69792 0.76333 0.0
O804 O 0.18099 0.58406 0.71235 0.0
O805 O 0.13811 0.5952 0.75175 0.0
O806 O 0.1824 0.65384 0.76465 0.0
C807 C 0.16291 0.61212 0.76647 0.0
H808 H 0.09207 0.43896 0.7279 0.0
H809 H 0.23227 0.85346 0.76098 0.0
Co810 Co 0.17253 0.45377 0.4876 0.0
C811 C 0.08772 0.40185 0.48618 0.0
Co812 Co 0.12038 0.48598 0.46956 0.0
C813 C 0.24077 0.43814 0.51712 0.0
C814 C 0.21788 0.36866 0.50069 0.0
N815 N 0.21261 0.41949 0.50212 0.0
N816 N 0.26312 0.40088 0.52526 0.0
C817 C 0.24888 0.35708 0.515 0.0
H818 H 0.24345 0.47808 0.52255 0.0
H819 H 0.19961 0.34169 0.49023 0.0
C820 C 0.20895 0.53161 0.4657 0.0
N821 N 0.08082 0.52157 0.45425 0.0
C822 C 0.09785 0.53555 0.43649 0.0
C823 C 1.05873 0.5633 0.46252 0.0
N824 N 0.09495 0.58583 0.4355 0.0
C825 C 0.06822 0.60329 0.45124 0.0
C826 C 0.12049 0.52279 0.51267 0.0
O827 O 0.21973 0.50258 0.47965 0.0
O828 O 0.16785 0.53354 0.46158 0.0
O829 O 0.10445 0.52872 0.49485 0.0
O830 O 0.15448 0.49456 0.51323 0.0
O831 O 0.07551 0.43832 0.47604 0.0
H832 H 1.04287 0.56709 0.4776 0.0
H833 H 0.11927 0.5112 0.42655 0.0
O834 O 0.12732 0.40253 0.49312 0.0
O835 O 0.18864 0.41401 0.46424 0.0
O836 O 0.13485 0.44031 0.44538 0.0
C837 C 0.16814 0.41212 0.44721 0.0
H838 H 0.25968 0.31949 0.51785 0.0
H839 H 1.05995 0.64269 0.45559 0.0
Co840 Co 0.41031 0.6455 0.38268 0.0
C841 C 0.32684 0.61738 0.40163 0.0
Co842 Co 0.35438 0.69063 0.37424 0.0
C843 C 0.49713 0.62653 0.39438 0.0
C844 C 0.46211 0.55691 0.38707 0.0
N845 N 0.45667 0.60761 0.39023 0.0
N846 N 0.52818 0.59016 0.3931 0.0
C847 C 0.50628 0.54598 0.38891 0.0
H848 H 0.50373 0.6667 0.39747 0.0
H849 H 0.43623 0.53009 0.38226 0.0
C850 C 0.44004 0.72863 0.36133 0.0
N851 N 0.30958 0.72961 0.36417 0.0
C852 C 0.30555 0.73149 0.34343 0.0
C853 C 0.29145 0.77351 0.37272 0.0
N854 N 0.28821 0.77511 0.33852 0.0
C855 C 0.2789 0.80198 0.3569 0.0
C856 C 0.39481 0.73269 0.40892 0.0
O857 O 0.45264 0.68772 0.36829 0.0
O858 O 0.39814 0.73468 0.36021 0.0
O859 O 0.36131 0.73653 0.39746 0.0
O860 O 0.41827 0.69275 0.40653 0.0
O861 O 0.31215 0.65154 0.39058 0.0
H862 H 0.29308 0.78733 0.38909 0.0
H863 H 0.32266 0.70631 0.33189 0.0
O864 O 0.36785 0.60548 0.39913 0.0
O865 O 0.40472 0.59863 0.35739 0.0
O866 O 0.34775 0.6417 0.3493 0.0
C867 C 0.37458 0.60581 0.34435 0.0
H868 H 0.52115 0.50871 0.38653 0.0
H869 H 0.26888 0.84139 0.3588 0.0
Co870 Co 0.17191 0.65381 0.11406 0.0
C871 C 0.08522 0.70267 0.11717 0.0
Co872 Co 0.12244 0.61924 0.13275 0.0
C873 C 0.23519 0.6721 0.08288 0.0
C874 C 0.21126 0.74088 0.09941 0.0
N875 N 0.20865 0.68985 0.09863 0.0
N876 N 0.25388 0.71003 0.07364 0.0
C877 C 0.239 0.75343 0.08395 0.0
H878 H 0.23914 0.63217 0.0777 0.0
H879 H 0.19311 0.76725 0.11016 0.0
C880 C 0.21261 0.57748 0.13524 0.0
N881 N 0.08778 0.58012 0.1491 0.0
C882 C 0.10866 0.56618 0.16616 0.0
C883 C 0.06744 0.53702 0.14102 0.0
N884 N 0.10898 0.51549 0.16681 0.0
C885 C 0.08102 0.49718 0.15162 0.0
C886 C 0.11937 0.58323 0.08941 0.0
O887 O 0.22232 0.60791 0.12167 0.0
O888 O 0.17171 0.573 0.13885 0.0
O889 O 0.10397 0.57725 0.10735 0.0
O890 O 0.15339 0.61136 0.08875 0.0
O891 O 0.07508 0.66643 0.12794 0.0
H892 H 1.04919 0.53284 0.12652 0.0
H893 H 0.13009 0.59151 0.17571 0.0
O894 O 0.12382 0.70222 0.10913 0.0
O895 O 0.18826 0.69514 0.13693 0.0
O896 O 0.13901 0.66432 0.15693 0.0
C897 C 0.17016 0.69504 0.15443 0.0
H898 H 0.24721 0.7913 0.08039 0.0
H899 H 0.07314 0.4576 0.14752 0.0
Co900 Co 0.12112 0.48169 0.87679 0.0
C901 C 0.21207 0.49902 0.88969 0.0
Co902 Co 0.16534 0.41997 0.86587 0.0
C903 C 1.04569 0.55119 0.87811 0.0
C904 C 0.10845 0.58662 0.87724 0.0
N905 N 0.08912 0.54199 0.88031 0.0
N906 N 1.03702 0.6003 0.87476 0.0
C907 C 0.07716 0.62147 0.87342 0.0
H908 H 1.0207 0.5226 0.8795 0.0
H909 H 0.14353 0.59315 0.87637 0.0
C910 C 0.07371 0.39261 0.8589 0.0
N911 N 0.20064 0.36473 0.85884 0.0
C912 C 0.23671 0.3664 0.84691 0.0
C913 C 0.19395 0.31508 0.86061 0.0
N914 N 0.25186 0.31992 0.84021 0.0
C915 C 0.22562 0.28723 0.84906 0.0
C916 C 0.13206 0.42209 0.90677 0.0
O917 O 0.06753 0.43896 0.86663 0.0
O918 O 0.11375 0.37962 0.85499 0.0
O919 O 0.15407 0.39834 0.89199 0.0
O920 O 0.11167 0.46285 0.90391 0.0
O921 O 0.21757 0.4566 0.87873 0.0
H922 H 0.16618 0.30003 0.86849 0.0
H923 H 0.25008 0.40124 0.84218 0.0
O924 O 0.17379 0.51895 0.88896 0.0
O925 O 0.13131 0.50359 0.84994 0.0
O926 O 0.17716 0.44505 0.8384 0.0
C927 C 0.15737 0.48622 0.83581 0.0
H928 H 0.08342 0.66092 0.87152 0.0
H929 H 0.22701 0.24631 0.84607 0.0
Co930 Co 0.39353 0.42549 0.63891 0.0
C931 C 0.35077 0.51816 0.64764 0.0
Co932 Co 0.43142 0.48301 0.62417 0.0
C933 C 0.3631 0.32717 0.64082 0.0
C934 C 0.34277 0.37487 0.66799 0.0
N935 N 0.36271 0.37554 0.64949 0.0
N936 N 0.34894 0.29483 0.65401 0.0
C937 C 0.33397 0.32529 0.67078 0.0
H938 H 0.37918 0.31531 0.62615 0.0
H939 H 0.33941 0.40734 0.67953 0.0
C940 C 0.47289 0.3846 0.62104 0.0
N941 N 0.46592 0.53006 0.60973 0.0
C942 C 0.48829 0.5182 0.59139 0.0
C943 C 0.47746 0.57858 0.61545 0.0
N944 N 0.51349 0.55691 0.58547 0.0
C945 C 0.50618 0.59498 0.60078 0.0
C946 C 0.45293 0.47878 0.66484 0.0
O947 O 0.43925 0.37782 0.63185 0.0
O948 O 0.47652 0.42803 0.61408 0.0
O949 O 0.46336 0.49722 0.64814 0.0
O950 O 0.42309 0.44483 0.66477 0.0
O951 O 0.38383 0.5356 0.63751 0.0
H952 H 0.46677 0.60033 0.62969 0.0
H953 H 0.4864 0.48119 0.58262 0.0
O954 O 0.34796 0.47056 0.64736 0.0
O955 O 0.36469 0.40753 0.61312 0.0
O956 O 0.39818 0.46944 0.5998 0.0
C957 C 0.37092 0.4332 0.5979 0.0
H958 H 0.32403 0.31271 0.68551 0.0
H959 H 0.52143 0.63203 0.60182 0.0
C960 C 0.24504 0.32191 0.42032 0.0
C961 C 0.21912 0.2778 0.41819 0.0
H962 H 0.24732 0.40144 0.42974 0.0
C963 C 0.17349 0.28151 0.42205 0.0
H964 H 0.28008 0.32049 0.41704 0.0
C965 C 0.15459 0.32837 0.42877 0.0
C966 C 0.18115 0.37174 0.43165 0.0
H967 H 0.15241 0.24839 0.41986 0.0
H968 H 0.1201 0.33005 0.43322 0.0
C969 C 0.22614 0.36847 0.42685 0.0
C970 C 0.13641 1.03798 0.68559 0.0
C971 C 0.15173 0.98773 0.68339 0.0
H972 H 0.08479 0.08798 0.69668 0.0
C973 C 0.13434 0.95256 0.69582 0.0
H974 H 0.15055 0.06603 0.67647 0.0
C975 C 0.09691 0.96545 0.70771 0.0
C976 C 0.07668 1.01311 0.70681 0.0
H977 H 0.14643 0.91388 0.69458 0.0
H978 H 0.08146 0.93655 0.71589 0.0
C979 C 0.09892 1.05067 0.69726 0.0
C980 C 0.4477 0.93599 0.93273 0.0
C981 C 0.48698 0.91407 0.92446 0.0
H982 H 0.38215 0.92074 0.94286 0.0
C983 C 0.49807 0.86513 0.92867 0.0
H984 H 0.43925 0.97457 0.93019 0.0
C985 C 0.46567 0.83432 0.93587 0.0
C986 C 0.42227 0.85277 0.93926 0.0
H987 H 0.52887 0.84804 0.92303 0.0
H988 H 0.47407 0.7952 0.9373 0.0
C989 C 0.41462 0.90495 0.93948 0.0
C990 C 0.46966 1.0067 0.21155 0.0
C991 C 0.50339 0.97677 0.21867 0.0
H992 H 0.46009 0.05545 0.18759 0.0
C993 C 0.51434 0.93562 0.2039 0.0
H994 H 0.45045 1.03125 0.22258 0.0
C995 C 0.52371 0.94873 0.18386 0.0
C996 C 0.5099 0.99686 0.17896 0.0
H997 H 0.53028 0.90237 0.20888 0.0
H998 H 0.54591 0.92529 0.17388 0.0
C999 C 0.47631 1.02146 0.19159 0.0
C1000 C 0.17456 0.82643 0.17846 0.0
C1001 C 0.2203 0.83115 0.18192 0.0
H1002 H 0.1214 0.77648 0.16823 0.0
C1003 C 0.2467 0.78735 0.18019 0.0
H1004 H 0.1531 0.85927 0.18038 0.0
C1005 C 0.22817 0.74015 0.17434 0.0
C1006 C 0.18304 0.73586 0.16987 0.0
H1007 H 0.28186 0.78953 0.18325 0.0
H1008 H 0.24971 0.70744 0.17163 0.0
C1009 C 0.15604 0.77894 0.17246 0.0
C1010 C 0.50648 0.17003 0.39308 0.0
C1011 C 0.50026 0.1259 0.37914 0.0
H1012 H 0.53423 0.18724 0.42381 0.0
C1013 C 0.46685 0.09525 0.38603 0.0
H1014 H 0.52082 0.20357 0.3876 0.0
C1015 C 0.47186 0.08406 0.40666 0.0
C1016 C 0.50304 0.1126 0.41952 0.0
H1017 H 0.44995 0.0681 0.37506 0.0
H1018 H 0.45692 1.04986 0.41119 0.0
C1019 C 0.51433 0.16088 0.41384 0.0
C1020 C 0.35531 0.21964 0.67195 0.0
C1021 C 0.36962 0.24657 0.65583 0.0
H1022 H 0.37552 0.19271 0.69985 0.0
C1023 C 0.41312 0.23742 0.64817 0.0
H1024 H 0.32158 0.2233 0.67745 0.0
C1025 C 0.44424 0.21454 0.66029 0.0
C1026 C 0.43176 0.20185 0.67984 0.0
H1027 H 0.42502 0.25421 0.63468 0.0
H1028 H 0.47833 0.21222 0.65562 0.0
C1029 C 0.38661 0.20122 0.68481 0.0
C1030 C 0.13399 0.06619 0.91568 0.0
C1031 C 0.14975 0.11625 0.91731 0.0
H1032 H 0.08058 1.01679 0.90645 0.0
C1033 C 0.13024 0.15162 0.90555 0.0
H1034 H 0.14954 1.03797 0.92429 0.0
C1035 C 0.09087 0.13919 0.89505 0.0
C1036 C 0.07083 0.09173 0.89661 0.0
H1037 H 0.14246 0.19019 0.90636 0.0
H1038 H 0.07428 0.16824 0.88735 0.0
C1039 C 0.09456 1.05397 0.90541 0.0
C1040 C 0.96284 0.82491 0.67871 0.0
C1041 C 0.91713 0.82962 0.68217 0.0
H1042 H 1.0157 0.77531 0.66775 0.0
C1043 C 0.89037 0.78622 0.67951 0.0
H1044 H 0.9845 0.85746 0.68131 0.0
C1045 C 0.9086 0.73936 0.67295 0.0
C1046 C 0.95371 0.73512 0.66856 0.0
H1047 H 0.85521 0.78842 0.68245 0.0
H1048 H 0.88687 0.70697 0.66971 0.0
C1049 C 0.98106 0.77775 0.67189 0.0
C1050 C 1.00024 0.06511 0.41647 0.0
C1051 C 0.9833 0.11467 0.41811 0.0
H1052 H 1.05385 1.01681 0.40648 0.0
C1053 C 1.00111 0.15027 0.40597 0.0
H1054 H 0.98609 1.03671 0.42541 0.0
C1055 C 1.03985 0.1386 0.39488 0.0
C1056 C 1.06099 0.09161 0.39615 0.0
H1057 H 0.98803 0.18849 0.40681 0.0
H1058 H 1.05511 0.16785 0.38682 0.0
C1059 C 1.03899 1.05362 0.40557 0.0
C1060 C 0.66502 0.27885 0.16558 0.0
C1061 C 0.70834 0.26064 0.16168 0.0
H1062 H 0.60238 0.26419 0.17877 0.0
C1063 C 0.71609 0.20834 0.16077 0.0
H1064 H 0.65641 0.31811 0.16462 0.0
C1065 C 0.68328 0.17672 0.16733 0.0
C1066 C 0.64435 0.19813 0.17619 0.0
H1067 H 0.74843 0.19275 0.15694 0.0
H1068 H 0.69189 0.13786 0.16931 0.0
C1069 C 0.63298 0.24746 0.17268 0.0
C1070 C 0.66328 0.10321 0.88992 0.0
C1071 C 0.62986 0.13213 0.88197 0.0
H1072 H 0.67113 0.05515 0.91422 0.0
C1073 C 0.61663 0.17318 0.89632 0.0
H1074 H 0.68366 0.07872 0.87939 0.0
C1075 C 0.60587 0.16041 0.91626 0.0
C1076 C 0.62016 0.11297 0.92168 0.0
H1077 H 0.60039 0.20568 0.89084 0.0
H1078 H 0.58238 0.18337 0.92568 0.0
C1079 C 0.65504 0.08881 0.9098 0.0
C1080 C 0.9568 0.28043 0.9232 0.0
C1081 C 0.91125 0.27702 0.91898 0.0
H1082 H 1.0103 0.32863 0.9346 0.0
C1083 C 0.88567 0.32143 0.92071 0.0
H1084 H 0.97767 0.24709 0.92133 0.0
C1085 C 0.90476 0.36794 0.92733 0.0
C1086 C 0.94967 0.37092 0.93244 0.0
H1087 H 0.85073 0.32027 0.91709 0.0
H1088 H 0.88377 0.40114 0.92996 0.0
C1089 C 0.97591 0.32722 0.92989 0.0
C1090 C 0.59891 0.9262 0.67631 0.0
C1091 C 0.6214 0.97232 0.67461 0.0
H1092 H 0.55886 0.88921 0.69749 0.0
C1093 C 0.6457 0.99185 0.69249 0.0
H1094 H 0.58434 0.90465 0.66284 0.0
C1095 C 0.6305 0.98029 0.71197 0.0
C1096 C 0.58803 0.95909 0.71163 0.0
H1097 H 0.66887 1.02268 0.69207 0.0
H1098 H 0.64249 1.0029 0.72579 0.0
C1099 C 0.5845 0.91718 0.69634 0.0
C1100 C 0.64697 0.85488 0.42838 0.0
C1101 C 0.6515 0.90627 0.42575 0.0
H1102 H 0.68171 0.78677 0.43282 0.0
C1103 C 0.68901 0.93249 0.43412 0.0
H1104 H 0.61799 0.83408 0.42247 0.0
C1105 C 0.72648 0.90525 0.43911 0.0
C1106 C 0.72473 0.85233 0.43729 0.0
H1107 H 0.6925 0.9727 0.43284 0.0
H1108 H 0.75738 0.92486 0.44257 0.0
C1109 C 0.68386 0.8277 0.43363 0.0
C1110 C 1.03972 0.96604 0.2041 0.0
C1111 C 1.05897 1.01424 0.20323 0.0
H1112 H 0.98831 0.91509 0.19246 0.0
C1113 C 1.03417 1.05254 0.19534 0.0
H1114 H 1.05705 0.93637 0.21108 0.0
C1115 C 0.9943 1.04064 0.18538 0.0
C1116 C 0.97912 0.99035 0.18309 0.0
H1117 H 1.04746 0.09023 0.19482 0.0
H1118 H 0.97798 0.06946 0.17737 0.0
C1119 C 0.99991 0.95397 0.19389 0.0
C1120 C 0.65227 0.82591 0.92932 0.0
C1121 C 0.67834 0.86971 0.9318 0.0
H1122 H 0.65083 0.74574 0.92089 0.0
C1123 C 0.72322 0.86694 0.92674 0.0
H1124 H 0.61792 0.82722 0.934 0.0
C1125 C 0.7425 0.8205 0.9203 0.0
C1126 C 0.7171 0.77598 0.91858 0.0
H1127 H 0.74406 0.90026 0.92934 0.0
H1128 H 0.77744 0.81949 0.91677 0.0
C1129 C 0.67155 0.77918 0.92273 0.0
C1130 C 0.59571 0.47351 0.20713 0.0
C1131 C 0.57433 0.52033 0.20582 0.0
H1132 H 0.64682 0.42327 0.19471 0.0
C1133 C 0.59565 0.55804 0.19595 0.0
H1134 H 0.58093 0.44456 0.21552 0.0
C1135 C 0.63367 0.54618 0.18454 0.0
C1136 C 0.65049 0.49657 0.18289 0.0
H1137 H 0.58057 0.59473 0.19503 0.0
H1138 H 0.64717 0.57424 0.17524 0.0
C1139 C 0.6337 0.46146 0.19553 0.0
C1140 C 0.9179 0.40443 0.43887 0.0
C1141 C 0.92628 0.35238 0.43863 0.0
H1142 H 0.94121 0.47444 0.42944 0.0
C1143 C 0.96983 0.33468 0.435 0.0
H1144 H 0.88532 0.41968 0.44242 0.0
C1145 C 1.00154 0.366 0.42755 0.0
C1146 C 0.9897 0.41482 0.42346 0.0
H1147 H 0.97885 0.29573 0.4364 0.0
H1148 H 1.03239 0.34941 0.42171 0.0
C1149 C 0.95033 0.43603 0.43194 0.0
C1150 C 1.02342 0.44259 0.68383 0.0
C1151 C 1.00975 0.49094 0.67911 0.0
H1152 H 1.03135 0.39634 0.70878 0.0
C1153 C 0.97708 0.51596 0.69219 0.0
H1154 H 1.0448 0.41881 0.67355 0.0
C1155 C 0.97164 0.50135 0.71227 0.0
C1156 C 1.0058 0.47126 0.71889 0.0
H1157 H 0.96089 0.55016 0.68842 0.0
H1158 H 0.95329 0.52625 0.72352 0.0
C1159 C 1.0153 0.42978 0.70404 0.0
C1160 C 0.65795 0.27531 0.67321 0.0
C1161 C 0.68694 0.2341 0.66974 0.0
H1162 H 0.65159 0.3552 0.68183 0.0
C1163 C 0.7322 0.24126 0.67318 0.0
H1164 H 0.62306 0.27065 0.66979 0.0
C1165 C 0.74876 0.28949 0.67877 0.0
C1166 C 0.72023 0.33143 0.68145 0.0
H1167 H 0.75515 0.21008 0.66978 0.0
H1168 H 0.78405 0.29394 0.68099 0.0
C1169 C 0.67451 0.32385 0.67907 0.0
C1170 C 1.00816 0.67139 0.89618 0.0
C1171 C 0.99805 0.62887 0.88192 0.0
H1172 H 1.03983 0.68467 0.9262 0.0
C1173 C 0.96462 0.59924 0.88938 0.0
H1174 H 1.02341 0.70446 0.89073 0.0
C1175 C 0.97168 0.58613 0.90959 0.0
C1176 C 1.00499 0.61227 0.92197 0.0
H1177 H 0.94569 0.57357 0.87863 0.0
H1178 H 0.95622 0.55213 0.91402 0.0
C1179 C 1.01786 0.66018 0.91649 0.0
C1180 C 0.90006 0.71225 0.16132 0.0
C1181 C 0.90114 0.76516 0.16345 0.0
H1182 H 0.93457 0.64523 0.16765 0.0
C1183 C 0.94143 0.7906 0.16783 0.0
H1184 H 0.86963 0.69215 0.15728 0.0
C1185 C 0.97844 0.76407 0.17317 0.0
C1186 C 0.97459 0.7124 0.17518 0.0
H1187 H 0.94308 0.83159 0.16886 0.0
H1188 H 1.00695 0.78524 0.17942 0.0
C1189 C 0.93756 0.6856 0.1666 0.0
C1190 C 0.63996 0.57208 0.41409 0.0
C1191 C 0.65466 0.62258 0.41645 0.0
H1192 H 0.587 0.522 0.40488 0.0
C1193 C 0.63321 0.6589 0.40588 0.0
H1194 H 0.65687 0.54329 0.42188 0.0
C1195 C 0.59323 0.6465 0.39589 0.0
C1196 C 0.57448 0.59805 0.39679 0.0
H1197 H 0.64447 0.69791 0.40732 0.0
H1198 H 0.5754 0.67609 0.38909 0.0
C1199 C 0.59991 0.55987 0.40438 0.0
C1200 C 0.38837 0.29099 0.17897 0.0
C1201 C 0.41541 0.33408 0.18202 0.0
H1202 H 0.38448 0.21202 0.16867 0.0
C1203 C 0.46114 0.32913 0.17868 0.0
H1204 H 0.35318 0.29341 0.18182 0.0
C1205 C 0.47915 0.282 0.17166 0.0
C1206 C 0.45156 0.23967 0.16798 0.0
H1207 H 0.48298 0.36144 0.18159 0.0
H1208 H 0.51388 0.27939 0.16768 0.0
C1209 C 0.40637 0.24416 0.17216 0.0
C1210 C 0.49865 0.65224 0.90722 0.0
C1211 C 0.47956 0.61636 0.91884 0.0
H1212 H 0.55381 0.66964 0.88876 0.0
C1213 C 0.49586 0.56651 0.91704 0.0
H1214 H 0.48615 0.69073 0.90823 0.0
C1215 C 0.53498 0.55473 0.90647 0.0
C1216 C 0.55803 0.59271 0.89752 0.0
H1217 H 0.48082 0.53796 0.92561 0.0
H1218 H 0.54915 0.51752 0.90722 0.0
C1219 C 0.53776 0.6403 0.89646 0.0
C1220 C 0.13573 0.74434 0.67258 0.0
C1221 C 0.14628 0.6946 0.6758 0.0
H1222 H 0.1603 0.81465 0.66469 0.0
C1223 C 0.18464 0.67239 0.66666 0.0
H1224 H 0.10553 0.76165 0.67889 0.0
C1225 C 0.21788 0.70338 0.66006 0.0
C1226 C 0.21107 0.75586 0.66124 0.0
H1227 H 0.19252 0.63322 0.66842 0.0
H1228 H 0.24987 0.6871 0.65599 0.0
C1229 C 0.16817 0.7751 0.66544 0.0
C1230 C 0.15593 0.59056 0.41025 0.0
C1231 C 0.12079 0.61422 0.42211 0.0
H1232 H 0.18519 0.58137 0.38003 0.0
C1233 C 0.10626 0.66168 0.41682 0.0
H1234 H 0.17218 0.55694 0.41461 0.0
C1235 C 0.1173 0.67511 0.39702 0.0
C1236 C 0.13116 0.63459 0.38255 0.0
H1237 H 0.08251 0.68422 0.42625 0.0
H1238 H 0.1009 0.70766 0.39167 0.0
C1239 C 0.1645 0.6056 0.39051 0.0
C1240 C 0.40571 0.87039 0.4281 0.0
C1241 C 0.45092 0.87425 0.4325 0.0
H1242 H 0.35194 0.8217 0.41847 0.0
C1243 C 0.47783 0.83119 0.42938 0.0
H1244 H 0.38428 0.90309 0.43118 0.0
C1245 C 0.45918 0.78412 0.42279 0.0
C1246 C 0.41343 0.77982 0.41923 0.0
H1247 H 0.51252 0.8333 0.43353 0.0
H1248 H 0.48056 0.75128 0.42042 0.0
C1249 C 0.38708 0.8236 0.42157 0.0
C1250 C 0.11586 0.42885 0.20574 0.0
C1251 C 0.11506 0.47277 0.22015 0.0
H1252 H 0.10654 0.4123 0.1726 0.0
C1253 C 0.15247 0.50281 0.2177 0.0
H1254 H 0.09762 0.3955 0.20901 0.0
C1255 C 0.15872 0.5153 0.1973 0.0
C1256 C 0.13388 0.48799 0.18113 0.0
H1257 H 0.16433 0.52886 0.23056 0.0
H1258 H 0.17591 0.55001 0.19502 0.0
C1259 C 0.12085 0.43844 0.18478 0.0
C1260 C 0.13774 0.35849 0.93055 0.0
C1261 C 0.14395 0.4095 0.92753 0.0
H1262 H 0.1704 0.28872 0.93469 0.0
C1263 C 0.18267 0.43392 0.93547 0.0
H1264 H 0.10776 0.33905 0.92511 0.0
C1265 C 0.21947 0.40489 0.93996 0.0
C1266 C 0.21587 0.35207 0.93831 0.0
H1267 H 0.18753 0.47387 0.93402 0.0
H1268 H 0.25122 0.42302 0.94286 0.0
C1269 C 0.17398 0.32951 0.93535 0.0
C1270 C 0.49423 0.54566 0.68543 0.0
C1271 C 0.47868 0.49551 0.68336 0.0
H1272 H 0.54782 0.5947 0.69483 0.0
C1273 C 0.49814 0.45968 0.6949 0.0
H1274 H 0.4788 0.57409 0.67689 0.0
C1275 C 0.53758 0.4717 0.70541 0.0
C1276 C 0.55773 0.51919 0.70405 0.0
H1277 H 0.48614 0.42098 0.69369 0.0
H1278 H 0.55426 0.44224 0.71283 0.0
C1279 C 0.5338 0.55746 0.69567 0.0
C1280 C 0.11487 0.26204 0.35333 0.0
C1281 C 0.16058 0.2721 0.35608 0.0
H1282 H 1.04858 0.29032 0.35033 0.0
C1283 C 0.17214 0.32444 0.35763 0.0
H1284 H 0.10339 0.22319 0.35239 0.0
C1285 C 0.13982 0.36408 0.35692 0.0
C1286 C 0.09402 0.35376 0.35415 0.0
H1287 H 0.20635 0.33515 0.3602 0.0
H1288 H 0.15085 0.40312 0.35889 0.0
C1289 C 0.08287 0.30135 0.35215 0.0
C1290 C 1.06301 0.79571 0.60939 0.0
C1291 C 0.0789 0.74669 0.61241 0.0
H1292 H 0.07784 0.87558 0.6091 0.0
C1293 C 0.12462 0.74147 0.61524 0.0
H1294 H 1.02799 0.80162 0.60728 0.0
C1295 C 0.15311 0.78354 0.61577 0.0
C1296 C 0.13724 0.83316 0.6141 0.0
H1297 H 0.13848 0.7048 0.61755 0.0
H1298 H 0.18791 0.77728 0.61837 0.0
C1299 C 0.09168 0.83835 0.61035 0.0
C1300 C 0.58108 0.79911 0.85305 0.0
C1301 C 0.59235 0.85147 0.85521 0.0
H1302 H 0.60146 0.72089 0.85307 0.0
C1303 C 0.63814 0.86173 0.85798 0.0
H1304 H 0.54677 0.78817 0.85121 0.0
C1305 C 0.67037 0.82202 0.85857 0.0
C1306 C 0.65868 0.76973 0.85687 0.0
H1307 H 0.64921 0.90075 0.86006 0.0
H1308 H 0.7046 0.83261 0.86118 0.0
C1309 C 0.61299 0.75973 0.85411 0.0
C1310 C 0.56048 0.30154 0.10946 0.0
C1311 C 0.57668 0.25251 0.11226 0.0
H1312 H 0.57485 0.38167 0.10954 0.0
C1313 C 0.6224 0.24765 0.11518 0.0
H1314 H 0.52545 0.30718 0.1073 0.0
C1315 C 0.6506 0.28999 0.11599 0.0
C1316 C 0.63446 0.33958 0.11451 0.0
H1317 H 0.6365 0.21101 0.11735 0.0
H1318 H 0.68541 0.28391 0.11863 0.0
C1319 C 0.58889 0.34449 0.11067 0.0
C1320 C 0.08245 0.81039 0.24608 0.0
C1321 C 0.09307 0.75799 0.24227 0.0
H1322 H 0.10361 0.8887 0.24791 0.0
C1323 C 0.1385 0.74745 0.23848 0.0
H1324 H 1.04838 0.82155 0.24874 0.0
C1325 C 0.17107 0.78693 0.23857 0.0
C1326 C 0.16002 0.83934 0.24194 0.0
H1327 H 0.14903 0.70843 0.23512 0.0
H1328 H 0.20495 0.7762 0.23511 0.0
C1329 C 0.11465 0.84966 0.24563 0.0
C1330 C 0.56432 0.81282 0.49 0.0
C1331 C 0.57955 0.86212 0.48702 0.0
H1332 H 0.58008 0.73297 0.49 0.0
C1333 C 0.62503 0.8677 0.48375 0.0
H1334 H 0.52948 0.80658 0.49242 0.0
C1335 C 0.65389 0.82591 0.48283 0.0
C1336 C 0.63879 0.77603 0.48455 0.0
H1337 H 0.63848 0.90455 0.48145 0.0
H1338 H 0.68841 0.83283 0.48005 0.0
C1339 C 0.59343 0.77036 0.48867 0.0
C1340 C 0.60963 0.35088 0.74493 0.0
C1341 C 0.65475 0.33991 0.74067 0.0
H1342 H 0.54296 0.32372 0.74824 0.0
C1343 C 0.66467 0.28741 0.73619 0.0
H1344 H 0.59936 0.39006 0.74804 0.0
C1345 C 0.63141 0.24859 0.73566 0.0
C1346 C 0.58629 0.2597 0.74011 0.0
H1347 H 0.69823 0.2762 0.73223 0.0
H1348 H 0.6412 0.20955 0.73153 0.0
C1349 C 0.57672 0.31212 0.74498 0.0
C1350 C 0.08841 0.26537 0.98898 0.0
C1351 C 0.13404 0.27113 0.98563 0.0
H1352 H 1.0245 0.30179 0.99208 0.0
C1353 C 0.14967 0.32115 0.98479 0.0
H1354 H 0.07472 0.22785 0.98959 0.0
C1355 C 0.12109 0.36313 0.98573 0.0
C1356 C 0.07538 0.35749 0.98814 0.0
H1357 H 0.1844 0.32802 0.98261 0.0
H1358 H 0.13492 0.40015 0.98407 0.0
C1359 C 1.05955 0.308 0.99033 0.0
C1360 C 0.99662 0.73958 0.74216 0.0
C1361 C 1.04241 0.74965 0.7453 0.0
H1362 H 0.93013 0.76884 0.73889 0.0
C1363 C 1.05341 0.80214 0.748 0.0
H1364 H 0.98561 0.70058 0.73962 0.0
C1365 C 1.0214 0.84168 0.74716 0.0
C1366 C 0.9757 0.8319 0.74408 0.0
H1367 H 0.08765 0.81314 0.75014 0.0
H1368 H 1.0329 0.88056 0.74866 0.0
C1369 C 0.96427 0.77943 0.74178 0.0
C1370 C 1.0448 0.26523 0.48971 0.0
C1371 C 0.99915 0.27047 0.48614 0.0
H1372 H 0.10847 0.30214 0.49273 0.0
C1373 C 0.98318 0.32019 0.48477 0.0
H1374 H 1.0587 0.22793 0.49071 0.0
C1375 C 1.01155 0.36233 0.48548 0.0
C1376 C 1.05731 0.35716 0.48812 0.0
H1377 H 0.94835 0.32653 0.48227 0.0
H1378 H 0.99752 0.39907 0.48343 0.0
C1379 C 0.0734 0.30801 0.49079 0.0
C1380 C 0.49556 0.24514 0.24303 0.0
C1381 C 0.54136 0.25536 0.24589 0.0
H1382 H 0.42903 0.27422 0.23987 0.0
C1383 C 0.55246 0.3078 0.24823 0.0
H1384 H 0.48453 0.20611 0.24079 0.0
C1385 C 0.52045 0.34722 0.24727 0.0
C1386 C 0.47474 0.33726 0.24443 0.0
H1387 H 0.58674 0.31881 0.25015 0.0
H1388 H 0.53193 0.38609 0.24847 0.0
C1389 C 0.46322 0.28487 0.24254 0.0
C1390 C 0.56918 0.80825 0.99085 0.0
C1391 C 0.55339 0.85757 0.98827 0.0
H1392 H 0.55392 0.72836 0.99081 0.0
C1393 C 0.50761 0.86329 0.98591 0.0
H1394 H 0.60425 0.802 0.9926 0.0
C1395 C 0.47891 0.82146 0.98536 0.0
C1396 C 0.49458 0.77157 0.98659 0.0
H1397 H 0.49383 0.9002 0.98393 0.0
H1398 H 0.44407 0.82815 0.98305 0.0
C1399 C 0.54025 0.76581 0.98991 0.0
C1400 C 1.04812 0.2988 0.85467 0.0
C1401 C 1.0369 0.35117 0.85723 0.0
H1402 H 1.02764 0.22049 0.85401 0.0
C1403 C 0.99113 0.36148 0.85995 0.0
H1404 H 0.08242 0.28782 0.85285 0.0
C1405 C 0.95885 0.32175 0.8601 0.0
C1406 C 0.9705 0.26942 0.85801 0.0
H1407 H 0.98012 0.4005 0.86233 0.0
H1408 H 0.92463 0.33231 0.86271 0.0
C1409 C 1.01617 0.25939 0.85531 0.0
C1410 C 0.53324 0.32787 0.60133 0.0
C1411 C 0.5073 0.34227 0.61919 0.0
H1412 H 0.57974 0.27364 0.58614 0.0
C1413 C 0.51149 0.31213 0.63594 0.0
H1414 H 0.53133 0.34963 0.58806 0.0
C1415 C 0.53897 0.26907 0.63484 0.0
C1416 C 0.56309 0.25273 0.6168 0.0
H1417 H 0.49318 0.32192 0.65022 0.0
H1418 H 0.54213 0.24885 0.64849 0.0
C1419 C 0.56079 0.28381 0.60018 0.0
C1420 C 0.49532 0.86297 0.35958 0.0
C1421 C 0.54095 0.85216 0.35659 0.0
H1422 H 0.42866 0.83465 0.36274 0.0
C1423 C 0.55172 0.79967 0.35403 0.0
H1424 H 0.48465 0.90212 0.36199 0.0
C1425 C 0.51945 0.76064 0.35491 0.0
C1426 C 0.47389 0.77121 0.35785 0.0
H1427 H 0.58591 0.78835 0.35205 0.0
H1428 H 0.53058 0.72161 0.35359 0.0
C1429 C 0.46272 0.82366 0.35995 0.0
C1430 C 0.97998 0.78453 0.11961 0.0
C1431 C 0.99523 0.83376 0.11664 0.0
H1432 H 0.99511 0.70629 0.12249 0.0
C1433 C 1.04048 0.83833 0.11204 0.0
H1434 H 0.94549 0.77838 0.12274 0.0
C1435 C 0.06928 0.79567 0.11134 0.0
C1436 C 1.054 0.74711 0.11548 0.0
H1437 H 1.05399 0.87512 0.10974 0.0
H1438 H 0.104 0.80124 0.10837 0.0
C1439 C 1.00864 0.74251 0.11935 0.0
C1440 C 0.30664 0.33506 0.31863 0.0
C1441 C 0.33659 0.29489 0.31925 0.0
H1442 H 0.26539 0.37684 0.29947 0.0
C1443 C 0.34698 0.26468 0.30068 0.0
H1444 H 0.29677 0.35761 0.33284 0.0
C1445 C 0.3279 0.27446 0.2818 0.0
C1446 C 0.29799 0.31468 0.28117 0.0
H1447 H 0.3691 0.23265 0.30097 0.0
H1448 H 0.3378 0.2519 0.26759 0.0
C1449 C 0.28753 0.34482 0.29976 0.0
C1450 C 1.04918 0.09835 0.54492 0.0
C1451 C 1.03473 1.05297 0.53344 0.0
H1452 H 0.08873 0.13395 0.56999 0.0
C1453 C 1.05117 1.00714 0.53994 0.0
H1454 H 1.03829 0.13467 0.54061 0.0
C1455 C 0.08061 1.00671 0.55702 0.0
C1456 C 0.09502 1.05208 0.56849 0.0
H1457 H 1.04105 0.97107 0.53198 0.0
H1458 H 0.09151 0.9704 0.56135 0.0
C1459 C 0.07858 0.0979 0.56201 0.0
C1460 C 0.33986 0.84695 0.80273 0.0
C1461 C 0.34635 0.8121 0.81753 0.0
H1462 H 0.30679 0.86354 0.77482 0.0
C1463 C 0.32307 0.76614 0.81514 0.0
H1464 H 0.35796 0.88227 0.80372 0.0
C1465 C 0.2939 0.75535 0.79843 0.0
C1466 C 0.28743 0.79022 0.78363 0.0
H1467 H 0.32701 0.73876 0.82634 0.0
H1468 H 0.27582 0.72001 0.7974 0.0
C1469 C 0.31069 0.83618 0.78603 0.0
C1470 C 0.52604 0.08134 1.04851 0.0
C1471 C 0.53834 0.06747 0.06825 0.0
H1472 H 0.5413 0.07966 1.01591 0.0
C1473 C 0.5784 1.04054 0.06944 0.0
H1474 H 0.49603 0.10273 1.04681 0.0
C1475 C 0.60494 1.02782 0.05164 0.0
C1476 C 0.59264 1.04169 1.0319 0.0
H1477 H 0.58967 1.02955 0.08426 0.0
H1478 H 0.63495 1.00641 0.05334 0.0
C1479 C 0.55258 0.06864 1.03072 0.0
C1480 C 0.32378 0.83778 0.3186 0.0
C1481 C 0.2984 0.7937 0.31899 0.0
H1482 H 0.36098 0.88448 0.29982 0.0
C1483 C 0.29197 0.76181 0.30038 0.0
H1484 H 0.33057 0.86199 0.33284 0.0
C1485 C 0.31052 0.7737 0.28171 0.0
C1486 C 0.33587 0.81781 0.28131 0.0
H1487 H 0.27331 0.72701 0.30049 0.0
H1488 H 0.30371 0.74951 0.26747 0.0
C1489 C 0.34234 0.84966 0.29993 0.0
C1490 C 0.61138 0.08203 0.54847 0.0
C1491 C 0.59896 0.06875 0.56829 0.0
H1492 H 0.59565 0.08084 0.51581 0.0
C1493 C 0.558 1.04361 0.56949 0.0
H1494 H 0.64206 0.10203 0.5467 0.0
C1495 C 0.53082 1.03207 0.55172 0.0
C1496 C 0.5432 1.04532 0.5319 0.0
H1497 H 0.54652 1.03306 0.58432 0.0
H1498 H 0.50015 1.01205 0.55352 0.0
C1499 C 0.58417 0.07044 0.53067 0.0
C1500 C 0.33926 0.25487 0.80622 0.0
C1501 C 0.34338 0.28831 0.79076 0.0
H1502 H 0.30678 0.23919 0.83441 0.0
C1503 C 0.31647 0.33142 0.79167 0.0
H1504 H 0.35997 0.22155 0.80601 0.0
C1505 C 0.28644 0.34141 0.80783 0.0
C1506 C 0.28276 0.30864 0.82353 0.0
H1507 H 0.31826 0.35718 0.77974 0.0
H1508 H 0.26562 0.37456 0.80779 0.0
C1509 C 0.30906 0.26494 0.82248 0.0
C1510 C 0.08485 0.09869 1.04438 0.0
C1511 C 0.09944 1.05362 1.03272 0.0
H1512 H 1.04495 0.13386 0.06933 0.0
C1513 C 0.08251 1.00766 1.03895 0.0
H1514 H 0.09604 0.13514 1.04037 0.0
C1515 C 1.05262 1.00684 0.05587 0.0
C1516 C 1.03804 1.05193 0.06752 0.0
H1517 H 0.09253 0.9717 1.03087 0.0
H1518 H 1.04136 0.97042 0.05988 0.0
C1519 C 1.05497 0.09787 0.06129 0.0
C1520 C 0.80614 0.83172 0.81832 0.0
C1521 C 0.83501 0.79061 0.81917 0.0
H1522 H 0.76638 0.87441 0.79889 0.0
C1523 C 0.84492 0.75967 0.80072 0.0
H1524 H 0.79663 0.8549 0.83244 0.0
C1525 C 0.82652 0.76973 0.78172 0.0
C1526 C 0.79777 0.81094 0.78085 0.0
H1527 H 0.86619 0.72696 0.80119 0.0
H1528 H 0.8361 0.74655 0.76761 0.0
C1529 C 0.78768 0.84172 0.79934 0.0
C1530 C 0.8404 0.35069 0.30225 0.0
C1531 C 0.84711 0.31546 0.31688 0.0
H1532 H 0.80681 0.36798 0.27457 0.0
C1533 C 0.82374 0.26958 0.31443 0.0
H1534 H 0.85855 0.38597 0.3033 0.0
C1535 C 0.79424 0.25923 0.29783 0.0
C1536 C 0.78755 0.29445 0.28319 0.0
H1537 H 0.82784 0.24193 0.3255 0.0
H1538 H 0.77609 0.22394 0.29675 0.0
C1539 C 0.8109 0.34034 0.28565 0.0
C1540 C 0.83832 0.34777 0.80022 0.0
C1541 C 0.832 0.31605 0.78156 0.0
H1542 H 0.82647 0.35969 0.83313 0.0
C1543 C 0.80681 0.27181 0.78185 0.0
H1544 H 0.85682 0.38271 0.80018 0.0
C1545 C 0.78825 0.25965 0.80047 0.0
C1546 C 0.79455 0.29138 0.81914 0.0
H1547 H 0.80013 0.24776 0.76756 0.0
H1548 H 0.76973 0.22473 0.80051 0.0
C1549 C 0.81977 0.3356 0.81884 0.0
C1550 C 0.813 0.77004 0.31661 0.0
C1551 C 0.78801 0.81482 0.31857 0.0
H1552 H 0.86244 0.72602 0.29949 0.0
C1553 C 0.79351 0.84961 0.30369 0.0
H1554 H 0.80976 0.74278 0.32789 0.0
C1555 C 0.8235 0.84002 0.28736 0.0
C1556 C 0.84858 0.79533 0.28543 0.0
H1557 H 0.77403 0.88395 0.30437 0.0
H1558 H 0.82658 0.86725 0.27606 0.0
C1559 C 0.84303 0.76043 0.30026 0.0
C1560 C 0.57731 0.60167 0.06122 0.0
C1561 C 0.59386 0.55614 0.06793 0.0
H1562 H 0.53618 0.63762 1.0399 0.0
C1563 C 0.57874 0.51042 0.05697 0.0
H1564 H 0.58796 0.63794 0.0688 0.0
C1565 C 0.54854 0.51026 1.04016 0.0
C1566 C 0.53198 0.55579 1.03346 0.0
H1567 H 0.5897 0.47432 0.06149 0.0
H1568 H 0.5379 0.47398 1.03258 0.0
C1569 C 0.54711 0.60151 1.04442 0.0
C1570 C 1.02753 0.57907 0.54881 0.0
C1571 C 1.03938 0.56424 0.56845 0.0
H1572 H 1.04357 0.57919 0.51635 0.0
C1573 C 0.07954 0.53743 0.56961 0.0
H1574 H 0.9975 0.60046 0.54713 0.0
C1575 C 0.10656 0.52576 0.55188 0.0
C1576 C 0.09469 0.54062 0.53224 0.0
H1577 H 0.09052 0.52575 0.58436 0.0
H1578 H 0.13659 0.5044 0.55355 0.0
C1579 C 1.05454 0.56743 0.53109 0.0
C1580 C 0.10563 0.57885 1.04999 0.0
C1581 C 0.09326 0.56523 0.06976 0.0
H1582 H 0.09029 0.57763 1.01732 0.0
C1583 C 1.05267 0.53924 0.07082 0.0
H1584 H 0.13601 0.59951 1.04831 0.0
C1585 C 1.02585 0.52718 0.05293 0.0
C1586 C 1.03824 0.54081 1.03316 0.0
H1587 H 1.04121 0.5285 0.08563 0.0
H1588 H 0.99548 0.50651 0.05459 0.0
C1589 C 0.07881 0.56683 1.03211 0.0
C1590 C 0.55618 0.51228 0.5552 0.0
C1591 C 0.54328 0.55739 0.56734 0.0
H1592 H 0.59407 0.47691 0.52957 0.0
C1593 C 0.56102 0.60314 0.56134 0.0
H1594 H 0.54426 0.47599 0.55905 0.0
C1595 C 0.5901 0.60374 0.54414 0.0
C1596 C 0.603 0.55862 0.532 0.0
H1597 H 0.55219 0.63909 0.5698 0.0
H1598 H 0.60201 0.64004 0.5403 0.0
C1599 C 0.58528 0.51288 0.53801 0.0
C1600 C 0.37468 0.12078 0.42571 0.0
C1601 C 0.33576 0.09569 0.41784 0.0
H1602 H 0.43028 0.12411 0.44701 0.0
C1603 C 0.32418 1.05231 0.42796 0.0
H1604 H 0.3853 0.15473 0.41918 0.0
C1605 C 0.35087 1.03413 0.44417 0.0
C1606 C 0.39049 0.05867 0.45157 0.0
H1607 H 0.29457 1.03149 0.42307 0.0
H1608 H 0.34106 0.99953 0.45043 0.0
C1609 C 0.40082 0.1031 0.44206 0.0
C1610 C 0.32766 0.10501 0.69868 0.0
C1611 C 0.37083 0.08527 0.70113 0.0
H1612 H 0.26582 0.10031 0.6813 0.0
C1613 C 0.38342 1.04528 0.68607 0.0
H1614 H 0.31596 0.13581 0.70965 0.0
C1615 C 0.35539 1.02631 0.66955 0.0
C1616 C 0.31245 1.0455 0.6669 0.0
H1617 H 0.41559 1.02797 0.68692 0.0
H1618 H 0.36721 0.99472 0.65898 0.0
C1619 C 0.29902 0.08545 0.68195 0.0
C1620 C 0.36023 0.09067 0.92982 0.0
C1621 C 0.32007 0.06637 0.93429 0.0
H1622 H 0.42009 0.09132 0.91187 0.0
C1623 C 0.31193 1.01956 0.92211 0.0
H1624 H 0.36842 0.12691 0.93832 0.0
C1625 C 0.3422 0.99904 0.90623 0.0
C1626 C 0.38192 1.0244 0.90163 0.0
H1627 H 0.28143 0.99957 0.92427 0.0
H1628 H 0.3343 0.96306 0.89748 0.0
C1629 C 0.39014 0.07037 0.91417 0.0
C1630 C 0.32323 0.05987 0.1718 0.0
C1631 C 0.33532 1.01655 0.18186 0.0
H1632 H 0.33963 0.11328 0.14958 0.0
C1633 C 0.37464 0.9922 0.17419 0.0
H1634 H 0.29327 0.08009 0.17656 0.0
C1635 C 0.40071 1.01056 0.15804 0.0
C1636 C 0.38986 0.055 0.14862 0.0
H1637 H 0.38561 0.9583 0.18069 0.0
H1638 H 0.4305 0.99013 0.1532 0.0
C1639 C 0.34985 0.07875 0.15582 0.0
C1640 C 0.81731 1.05378 0.67196 0.0
C1641 C 0.80274 1.01355 0.68332 0.0
H1642 H 0.80382 0.10467 0.64827 0.0
C1643 C 0.76131 0.9926 0.67675 0.0
H1644 H 0.84889 0.07139 0.67585 0.0
C1645 C 0.73586 1.01101 0.66037 0.0
C1646 C 0.74953 1.052 0.64937 0.0
H1647 H 0.7482 0.96122 0.68429 0.0
H1648 H 0.70452 0.99303 0.65641 0.0
C1649 C 0.79139 0.07268 0.65562 0.0
C1650 C 0.82346 1.01819 0.42369 0.0
C1651 C 0.81421 0.06356 0.43661 0.0
H1652 H 0.80153 0.96273 0.39857 0.0
C1653 C 0.77283 0.08632 0.43322 0.0
H1654 H 0.85503 0.99969 0.42509 0.0
C1655 C 0.74269 0.06597 0.41773 0.0
C1656 C 0.75196 1.02154 0.40442 0.0
H1657 H 0.76394 0.12148 0.44236 0.0
H1658 H 0.71176 0.08572 0.41616 0.0
C1659 C 0.79289 0.99752 0.408 0.0
C1660 C 0.771 1.02612 0.16624 0.0
C1661 C 0.81311 1.04794 0.16351 0.0
H1662 H 0.70988 1.02582 0.18319 0.0
C1663 C 0.82335 0.09094 0.1777 0.0
H1664 H 0.76125 0.99257 0.15622 0.0
C1665 C 0.79309 0.11021 0.19379 0.0
C1666 C 0.75149 0.08693 0.19672 0.0
H1667 H 0.85548 0.10849 0.17698 0.0
H1668 H 0.80265 0.1432 0.20416 0.0
C1669 C 0.74128 1.04489 0.18221 0.0
C1670 C 0.77978 1.02958 0.94382 0.0
C1671 C 0.74055 1.05435 0.95149 0.0
H1672 H 0.83579 1.02747 0.92275 0.0
C1673 C 0.73066 0.09987 0.94268 0.0
H1674 H 0.78922 0.99425 0.94963 0.0
C1675 C 0.75679 0.11826 0.92657 0.0
C1676 C 0.79524 0.09287 0.9184 0.0
H1677 H 0.70145 0.12103 0.94789 0.0
H1678 H 0.74657 0.15298 0.92048 0.0
C1679 C 0.80649 1.0485 0.92791 0.0
C1680 C 0.87165 0.61835 0.92671 0.0
C1681 C 0.83332 0.59273 0.91841 0.0
H1682 H 0.92681 0.62179 0.94828 0.0
C1683 C 0.82222 0.54851 0.92806 0.0
H1684 H 0.88184 0.65296 0.92055 0.0
C1685 C 0.84891 0.53003 0.94419 0.0
C1686 C 0.888 0.55506 0.952 0.0
H1687 H 0.79305 0.52725 0.92284 0.0
H1688 H 0.83953 0.4948 0.95007 0.0
C1689 C 0.89775 0.60039 0.94302 0.0
C1690 C 0.80769 0.59619 0.1763 0.0
C1691 C 0.81656 0.54966 0.16407 0.0
H1692 H 0.82988 0.65308 0.20088 0.0
C1693 C 0.85715 0.52615 0.16826 0.0
H1694 H 0.77671 0.61542 0.17425 0.0
C1695 C 0.88674 0.54664 0.18388 0.0
C1696 C 0.87809 0.59239 0.19644 0.0
H1697 H 0.86581 0.49017 0.15969 0.0
H1698 H 0.91674 0.52582 0.18616 0.0
C1699 C 0.838 0.61728 0.19206 0.0
C1700 C 0.84398 0.50173 0.40559 0.0
C1701 C 0.88432 0.52627 0.40136 0.0
H1702 H 0.78289 0.50314 0.42341 0.0
C1703 C 0.8935 0.57125 0.41438 0.0
H1704 H 0.83534 0.46653 0.39643 0.0
C1705 C 0.86391 0.59146 0.43016 0.0
C1706 C 0.8231 0.5681 0.43421 0.0
H1707 H 0.92398 0.59147 0.41237 0.0
H1708 H 0.87284 0.62696 0.43904 0.0
C1709 C 0.81396 0.52226 0.42155 0.0
C1710 C 0.82283 0.55844 0.67213 0.0
C1711 C 0.83454 0.51544 0.68249 0.0
H1712 H 0.8398 0.61094 0.64962 0.0
C1713 C 0.87389 0.49071 0.67507 0.0
H1714 H 0.79287 0.57892 0.67667 0.0
C1715 C 0.90026 0.50835 0.65886 0.0
C1716 C 0.88978 0.55245 0.64913 0.0
H1717 H 0.88457 0.45698 0.68179 0.0
H1718 H 0.92996 0.48755 0.65417 0.0
C1719 C 0.84978 0.57663 0.6561 0.0
C1720 C 0.26057 0.49241 0.17621 0.0
C1721 C 0.30035 0.51618 0.18361 0.0
H1722 H 0.20481 0.49003 0.15511 0.0
C1723 C 0.31306 0.55851 0.17306 0.0
H1724 H 0.2491 0.45924 0.18307 0.0
C1725 C 0.28667 0.57688 0.15679 0.0
C1726 C 0.24632 0.55348 0.14979 0.0
H1727 H 0.34337 0.57828 0.17761 0.0
H1728 H 0.29737 0.61064 0.15015 0.0
C1729 C 0.23476 0.51024 0.15984 0.0
C1730 C 0.26857 0.58807 0.93345 0.0
C1731 C 0.30948 0.56468 0.93728 0.0
H1732 H 0.2078 0.58757 0.91613 0.0
C1733 C 0.31812 0.51829 0.92497 0.0
H1734 H 0.26013 0.62397 0.94214 0.0
C1735 C 0.28747 0.49724 0.90941 0.0
C1736 C 0.24706 0.52184 0.90536 0.0
H1737 H 0.34928 0.4992 0.92674 0.0
H1738 H 0.29564 0.46165 0.90044 0.0
C1739 C 0.23834 0.56733 0.91808 0.0
C1740 C 0.27467 0.52499 0.66466 0.0
C1741 C 0.31629 0.54806 0.66187 0.0
H1742 H 0.21382 0.52251 0.68174 0.0
C1743 C 0.32576 0.59095 0.67629 0.0
H1744 H 0.2654 0.49151 0.65449 0.0
C1745 C 0.29534 0.60888 0.69258 0.0
C1746 C 0.25424 0.58443 0.69552 0.0
H1747 H 0.35742 0.60954 0.67556 0.0
H1748 H 0.30438 0.64186 0.70307 0.0
C1749 C 0.24479 0.54249 0.6808 0.0
C1750 C 0.23258 0.60185 0.44261 0.0
C1751 C 0.24268 0.55656 0.45156 0.0
H1752 H 0.24844 0.6549 0.42037 0.0
C1753 C 0.28226 0.53223 0.4441 0.0
H1754 H 0.20315 0.62274 0.44768 0.0
C1755 C 0.30912 0.55132 0.42827 0.0
C1756 C 0.29771 0.59545 0.41862 0.0
H1757 H 0.29193 0.49712 0.45002 0.0
H1758 H 0.33869 0.5306 0.42328 0.0
C1759 C 0.25885 0.62039 0.42657 0.0
C1760 C 0.30018 0.06848 0.30965 0.0
C1761 C 0.26054 0.0798 0.32063 0.0
H1762 H 0.33098 1.03528 0.28125 0.0
C1763 C 0.22064 0.06781 0.30991 0.0
H1764 H 0.33157 0.07745 0.31722 0.0
C1765 C 0.2203 1.0459 0.28896 0.0
C1766 C 0.25985 1.03351 0.27811 0.0
H1767 H 0.18941 0.07647 0.31762 0.0
H1768 H 0.18883 1.03741 0.28138 0.0
C1769 C 0.29983 1.0446 0.28892 0.0
C1770 C 0.32674 0.88199 0.57906 0.0
C1771 C 0.29857 0.92407 0.58248 0.0
H1772 H 0.37439 0.84291 0.55886 0.0
C1773 C 0.29651 0.95919 0.56763 0.0
H1774 H 0.32887 0.85429 0.59023 0.0
C1775 C 0.32259 0.95275 0.54981 0.0
C1776 C 0.35078 0.91081 0.54641 0.0
H1777 H 0.27505 0.99202 0.56984 0.0
H1778 H 0.32051 0.98033 0.5386 0.0
C1779 C 0.35248 0.87527 0.56108 0.0
C1780 C 0.49259 1.02949 0.77802 0.0
C1781 C 0.47785 0.08038 0.78114 0.0
H1782 H 0.50177 0.95857 0.79113 0.0
C1783 C 0.45818 0.09699 0.8004 0.0
H1784 H 0.50749 1.01493 0.76334 0.0
C1785 C 0.45495 0.06449 0.81625 0.0
C1786 C 0.46998 1.0139 0.81318 0.0
H1787 H 0.44614 0.13554 0.80341 0.0
H1788 H 0.44161 0.07939 0.83124 0.0
C1789 C 0.48858 0.99667 0.79379 0.0
C1790 C 0.29655 0.15591 1.03197 0.0
C1791 C 0.2989 0.19069 1.01697 0.0
H1792 H 0.31942 0.13549 0.06129 0.0
C1793 C 0.32663 0.23309 1.02053 0.0
H1794 H 0.27544 0.12281 1.02973 0.0
C1795 C 0.35171 0.24034 1.03883 0.0
C1796 C 0.34969 0.20496 0.05359 0.0
H1797 H 0.32893 0.26049 1.00925 0.0
H1798 H 0.37339 0.27287 1.04122 0.0
C1799 C 0.32182 0.1629 1.05002 0.0
C1800 C 0.83383 1.03788 0.79064 0.0
C1801 C 0.87415 1.02657 0.78023 0.0
H1802 H 0.80125 0.07197 0.81844 0.0
C1803 C 0.91337 1.03974 0.79131 0.0
H1804 H 0.80293 1.02809 0.78275 0.0
C1805 C 0.9124 0.06268 0.81209 0.0
C1806 C 0.87219 0.075 0.82238 0.0
H1807 H 0.94506 1.03121 0.78403 0.0
H1808 H 0.9434 0.07195 0.81998 0.0
C1809 C 0.83286 0.06281 0.81119 0.0
C1810 C 0.78498 0.2392 0.54046 0.0
C1811 C 0.78884 0.20553 0.5558 0.0
H1812 H 0.8054 0.25698 0.51026 0.0
C1813 C 0.81808 0.16457 0.55279 0.0
H1814 H 0.76221 0.27081 0.54245 0.0
C1815 C 0.8426 0.15668 0.53458 0.0
C1816 C 0.83805 0.18943 0.51892 0.0
H1817 H 0.82183 0.13852 0.56453 0.0
H1818 H 0.86468 0.12437 0.53271 0.0
C1819 C 0.8093 0.23104 0.52204 0.0
C1820 C 0.66264 0.07647 0.32213 0.0
C1821 C 0.66605 1.02304 0.31805 0.0
H1822 H 0.66012 0.14885 0.30967 0.0
C1823 C 0.67274 1.00258 0.29733 0.0
H1824 H 0.65773 0.09377 0.33793 0.0
C1825 C 0.67321 1.03437 0.2811 0.0
C1826 C 0.6685 0.08763 0.28515 0.0
H1827 H 0.67544 0.96192 0.29354 0.0
H1828 H 0.67626 1.01706 0.26519 0.0
C1829 C 0.66439 0.10835 0.30597 0.0
C1830 C 0.80693 0.87797 0.07809 0.0
C1831 C 0.83496 0.92017 0.08136 0.0
H1832 H 0.75975 0.83797 0.05778 0.0
C1833 C 0.83785 0.9541 0.06608 0.0
H1834 H 0.80425 0.85117 0.08961 0.0
C1835 C 0.81242 0.94663 1.04806 0.0
C1836 C 0.78405 0.90487 1.04487 0.0
H1837 H 0.85927 0.98696 0.06814 0.0
H1838 H 0.81487 0.9735 1.03657 0.0
C1839 C 0.78182 0.87021 0.05988 0.0
C1840 C 0.79691 0.56584 0.81029 0.0
C1841 C 0.75732 0.57738 0.82126 0.0
H1842 H 0.82764 0.533 0.78182 0.0
C1843 C 0.71738 0.56626 0.81043 0.0
H1844 H 0.82833 0.57419 0.81792 0.0
C1845 C 0.717 0.54494 0.78938 0.0
C1846 C 0.75653 0.53231 0.77855 0.0
H1847 H 0.68618 0.57517 0.81813 0.0
H1848 H 0.68553 0.53706 0.78172 0.0
C1849 C 0.79651 0.54255 0.78947 0.0
C1850 C 0.81707 0.44863 1.04834 0.0
C1851 C 0.84525 0.40665 1.04537 0.0
H1852 H 0.77057 0.4898 0.06823 0.0
C1853 C 0.84745 0.37239 0.06054 0.0
H1854 H 0.81466 0.47517 1.03672 0.0
C1855 C 0.82249 0.38082 0.07872 0.0
C1856 C 0.79472 0.42331 0.08179 0.0
H1857 H 0.86938 0.34 0.05859 0.0
H1858 H 0.8251 0.35432 0.09036 0.0
C1859 C 0.79184 0.45678 0.06633 0.0
C1860 C 0.95819 0.57083 0.31674 0.0
C1861 C 0.96824 0.51857 0.31307 0.0
H1862 H 0.95209 0.64266 0.30407 0.0
C1863 C 0.97898 0.49884 0.29267 0.0
H1864 H 0.95036 0.5874 0.33238 0.0
C1865 C 0.98137 0.53092 0.2766 0.0
C1866 C 0.97227 0.58351 0.28034 0.0
H1867 H 0.98777 0.45921 0.28936 0.0
H1868 H 0.99105 0.5145 0.26118 0.0
C1869 C 0.95942 0.60269 0.30056 0.0
C1870 C 0.79877 0.65641 0.53205 0.0
C1871 C 0.80205 0.69151 0.51722 0.0
H1872 H 0.8206 0.6349 0.56138 0.0
C1873 C 0.83025 0.7334 0.52109 0.0
H1874 H 0.77726 0.6237 0.52956 0.0
C1875 C 0.85492 0.73981 0.53952 0.0
C1876 C 0.85201 0.7041 0.55411 0.0
H1877 H 0.83327 0.76104 0.50994 0.0
H1878 H 0.87699 0.77194 0.54215 0.0
C1879 C 0.82365 0.66255 0.55024 0.0
C1880 C 0.41374 0.56496 0.31214 0.0
C1881 C 0.37395 0.57746 0.32276 0.0
H1882 H 0.44523 0.53383 0.28373 0.0
C1883 C 0.33417 0.56596 0.31184 0.0
H1884 H 0.44505 0.57376 0.31982 0.0
C1885 C 0.33427 0.54155 0.29121 0.0
C1886 C 0.37416 0.53013 0.28047 0.0
H1887 H 0.30287 0.57535 0.31936 0.0
H1888 H 0.30305 0.5323 0.28353 0.0
C1889 C 0.41384 0.54253 0.29128 0.0
C1890 C 0.3364 0.65669 1.03473 0.0
C1891 C 0.3323 0.68974 1.01915 0.0
H1892 H 0.31462 0.63776 0.06441 0.0
C1893 C 0.3031 0.73096 1.02212 0.0
H1894 H 0.35876 0.62463 1.03295 0.0
C1895 C 0.27799 0.73851 1.04032 0.0
C1896 C 0.2815 0.70461 0.05559 0.0
H1897 H 0.29947 0.75709 1.01039 0.0
H1898 H 0.25501 0.76991 1.0422 0.0
C1899 C 0.31109 0.66396 0.05271 0.0
C1900 C 0.16858 0.60222 0.8053 0.0
C1901 C 0.16866 0.58071 0.78446 0.0
H1902 H 0.16448 0.58919 0.83757 0.0
C1903 C 0.16905 0.52707 0.78069 0.0
H1904 H 0.16783 0.64305 0.80888 0.0
C1905 C 0.16819 0.49591 0.79717 0.0
C1906 C 0.16548 0.51745 0.81796 0.0
H1907 H 0.16905 0.50901 0.76482 0.0
H1908 H 0.16733 0.45509 0.79357 0.0
C1909 C 0.16637 0.57108 0.82174 0.0
C1910 C 0.2927 0.37135 0.5574 0.0
C1911 C 0.29264 0.40679 0.54268 0.0
H1912 H 0.3175 0.35211 0.58664 0.0
C1913 C 0.32015 0.4494 0.54569 0.0
H1914 H 0.27141 0.33842 0.55546 0.0
C1915 C 0.34658 0.45719 0.56341 0.0
C1916 C 0.34551 0.42271 0.57853 0.0
H1917 H 0.32092 0.47685 0.53439 0.0
H1918 H 0.36703 0.49086 0.56548 0.0
C1919 C 0.31879 0.37938 0.57527 0.0
loop_
_geom_bond_atom_site_label_1
_geom_bond_atom_site_label_2
_geom_bond_distance
_geom_bond_site_symmetry_2
_ccdc_geom_bond_type
Co0 N5 2.057 . S
Co0 O17 2.021 . S
Co0 O20 2.062 . S
Co0 O24 2.117 . S
Co0 O25 2.020 . S
C1 O21 1.259 . S
C1 O24 1.258 . S
Co2 N11 2.057 . S
Co2 O18 2.117 . S
Co2 O19 2.020 . S
Co2 O21 2.021 . S
Co2 O26 2.062 . S
C3 N5 1.316 . S
C3 N6 1.347 . S
C3 H8 0.931 . S
C4 N5 1.375 . S
C4 C7 1.350 . S
C4 H9 0.930 . S
N5 Co0 2.057 . S
N5 C3 1.316 . S
N5 C4 1.375 . S
N6 C3 1.347 . S
N6 C7 1.373 . S
C7 C4 1.350 . S
C7 N6 1.373 . S
C7 H28 0.931 . S
H8 C3 0.931 . S
H9 C4 0.930 . S
C10 O17 1.259 . S
C10 O18 1.258 . S
N11 Co2 2.057 . S
N11 C12 1.316 . S
N11 C13 1.375 . S
C12 N11 1.316 . S
C12 N14 1.347 . S
C12 H23 0.931 . S
C13 N11 1.375 . S
C13 C15 1.350 . S
C13 H22 0.930 . S
N14 C12 1.347 . S
N14 C15 1.373 . S
C15 C13 1.350 . S
C15 N14 1.373 . S
C15 H29 0.931 . S
C16 O19 1.256 . S
C16 O20 1.255 . S
O17 Co0 2.021 . S
O17 C10 1.259 . S
O18 Co2 2.117 . S
O18 C10 1.258 . S
O19 Co2 2.020 . S
O19 C16 1.256 . S
O20 Co0 2.062 . S
O20 C16 1.255 . S
O21 C1 1.259 . S
O21 Co2 2.021 . S
H22 C13 0.930 . S
H23 C12 0.931 . S
O24 Co0 2.117 . S
O24 C1 1.258 . S
O25 Co0 2.020 . S
O25 C27 1.256 . S
O26 Co2 2.062 . S
O26 C27 1.255 . S
C27 O25 1.256 . S
C27 O26 1.255 . S
H28 C7 0.931 . S
H29 C15 0.931 . S
Co30 N35 2.057 . S
Co30 O47 2.021 . S
Co30 O50 2.062 . S
Co30 O54 2.117 . S
Co30 O55 2.020 . S
C31 O51 1.259 . S
C31 O54 1.258 . S
Co32 N41 2.057 . S
Co32 O48 2.117 . S
Co32 O49 2.020 . S
Co32 O51 2.021 . S
Co32 O56 2.062 . S
C33 N35 1.316 . S
C33 N36 1.347 . S
C33 H38 0.931 . S
C34 N35 1.375 . S
C34 C37 1.350 . S
C34 H39 0.930 . S
N35 Co30 2.057 . S
N35 C33 1.316 . S
N35 C34 1.375 . S
N36 C33 1.347 . S
N36 C37 1.373 . S
C37 C34 1.350 . S
C37 N36 1.373 . S
C37 H58 0.931 . S
H38 C33 0.931 . S
H39 C34 0.930 . S
C40 O47 1.259 . S
C40 O48 1.258 . S
N41 Co32 2.057 . S
N41 C42 1.316 . S
N41 C43 1.375 . S
C42 N41 1.316 . S
C42 N44 1.347 . S
C42 H53 0.931 . S
C43 N41 1.375 . S
C43 C45 1.350 . S
C43 H52 0.930 . S
N44 C42 1.347 . S
N44 C45 1.373 . S
C45 C43 1.350 . S
C45 N44 1.373 . S
C45 H59 0.931 . S
C46 O49 1.256 . S
C46 O50 1.255 . S
O47 Co30 2.021 . S
O47 C40 1.259 . S
O48 Co32 2.117 . S
O48 C40 1.258 . S
O49 Co32 2.020 . S
O49 C46 1.256 . S
O50 Co30 2.062 . S
O50 C46 1.255 . S
O51 C31 1.259 . S
O51 Co32 2.021 . S
H52 C43 0.930 . S
H53 C42 0.931 . S
O54 Co30 2.117 . S
O54 C31 1.258 . S
O55 Co30 2.020 . S
O55 C57 1.256 . S
O56 Co32 2.062 . S
O56 C57 1.255 . S
C57 O55 1.256 . S
C57 O56 1.255 . S
H58 C37 0.931 . S
H59 C45 0.931 . S
Co60 N65 2.057 . S
Co60 O77 2.021 . S
Co60 O80 2.062 . S
Co60 O84 2.117 . S
Co60 O85 2.020 . S
C61 O81 1.259 . S
C61 O84 1.258 . S
Co62 N71 2.057 . S
Co62 O78 2.117 . S
Co62 O79 2.020 . S
Co62 O81 2.021 . S
Co62 O86 2.062 . S
C63 N65 1.316 . S
C63 N66 1.347 . S
C63 H68 0.931 . S
C64 N65 1.375 . S
C64 C67 1.350 . S
C64 H69 0.930 . S
N65 Co60 2.057 . S
N65 C63 1.316 . S
N65 C64 1.375 . S
N66 C63 1.347 . S
N66 C67 1.373 . S
C67 C64 1.350 . S
C67 N66 1.373 . S
C67 H88 0.931 . S
H68 C63 0.931 . S
H69 C64 0.930 . S
C70 O77 1.259 . S
C70 O78 1.258 . S
N71 Co62 2.057 . S
N71 C72 1.316 . S
N71 C73 1.375 1_565 S
C72 N71 1.316 . S
C72 N74 1.340 1_565 S
C72 H83 0.931 . S
C73 N71 1.375 1_545 S
C73 C75 1.350 . S
C73 H82 0.930 . S
N74 C72 1.340 1_545 S
N74 C75 1.379 . S
C75 C73 1.350 . S
C75 N74 1.379 . S
C75 H89 0.931 . S
C76 O79 1.256 . S
C76 O80 1.255 . S
O77 Co60 2.021 . S
O77 C70 1.259 . S
O78 Co62 2.117 . S
O78 C70 1.258 . S
O79 Co62 2.020 . S
O79 C76 1.256 . S
O80 Co60 2.062 . S
O80 C76 1.255 . S
O81 C61 1.259 . S
O81 Co62 2.021 . S
H82 C73 0.930 . S
H83 C72 0.931 . S
O84 Co60 2.117 . S
O84 C61 1.258 . S
O85 Co60 2.020 . S
O85 C87 1.256 . S
O86 Co62 2.062 . S
O86 C87 1.255 . S
C87 O85 1.256 . S
C87 O86 1.255 . S
H88 C67 0.931 . S
H89 C75 0.931 . S
Co90 N95 2.057 . S
Co90 O107 2.021 . S
Co90 O110 2.062 . S
Co90 O114 2.117 . S
Co90 O115 2.020 . S
C91 O111 1.259 . S
C91 O114 1.258 . S
Co92 N101 2.057 . S
Co92 O108 2.117 . S
Co92 O109 2.020 . S
Co92 O111 2.021 . S
Co92 O116 2.062 . S
C93 N95 1.316 . S
C93 N96 1.347 . S
C93 H98 0.931 . S
C94 N95 1.375 . S
C94 C97 1.350 . S
C94 H99 0.930 1_545 S
N95 Co90 2.057 . S
N95 C93 1.316 . S
N95 C94 1.375 . S
N96 C93 1.347 . S
N96 C97 1.373 . S
C97 C94 1.350 . S
C97 N96 1.373 . S
C97 H118 0.931 1_545 S
H98 C93 0.931 . S
H99 C94 0.930 1_565 S
C100 O107 1.259 . S
C100 O108 1.258 . S
N101 Co92 2.057 . S
N101 C102 1.316 . S
N101 C103 1.375 . S
C102 N101 1.316 . S
C102 N104 1.347 . S
C102 H113 0.931 . S
C103 N101 1.375 . S
C103 C105 1.350 . S
C103 H112 0.930 . S
N104 C102 1.347 . S
N104 C105 1.373 . S
C105 C103 1.350 . S
C105 N104 1.373 . S
C105 H119 0.931 1_554 S
C106 O109 1.256 . S
C106 O110 1.255 . S
O107 Co90 2.021 . S
O107 C100 1.259 . S
O108 Co92 2.117 . S
O108 C100 1.258 . S
O109 Co92 2.020 . S
O109 C106 1.256 . S
O110 Co90 2.062 . S
O110 C106 1.255 . S
O111 C91 1.259 . S
O111 Co92 2.021 . S
H112 C103 0.930 . S
H113 C102 0.931 . S
O114 Co90 2.117 . S
O114 C91 1.258 . S
O115 Co90 2.020 . S
O115 C117 1.256 . S
O116 Co92 2.062 . S
O116 C117 1.255 . S
C117 O115 1.256 . S
C117 O116 1.255 . S
H118 C97 0.931 1_565 S
H119 C105 0.931 1_556 S
Co120 N125 2.057 . S
Co120 O137 2.021 . S
Co120 O140 2.062 . S
Co120 O144 2.117 . S
Co120 O145 2.020 . S
C121 O141 1.259 . S
C121 O144 1.258 . S
Co122 N131 2.057 . S
Co122 O138 2.117 . S
Co122 O139 2.020 . S
Co122 O141 2.021 . S
Co122 O146 2.062 . S
C123 N125 1.316 . S
C123 N126 1.347 . S
C123 H128 0.931 . S
C124 N125 1.375 . S
C124 C127 1.350 . S
C124 H129 0.930 . S
N125 Co120 2.057 . S
N125 C123 1.316 . S
N125 C124 1.375 . S
N126 C123 1.347 . S
N126 C127 1.373 . S
C127 C124 1.350 . S
C127 N126 1.373 . S
C127 H148 0.931 . S
H128 C123 0.931 . S
H129 C124 0.930 . S
C130 O137 1.259 . S
C130 O138 1.258 . S
N131 Co122 2.057 . S
N131 C132 1.316 . S
N131 C133 1.375 . S
C132 N131 1.316 . S
C132 N134 1.347 . S
C132 H143 0.931 . S
C133 N131 1.375 . S
C133 C135 1.350 . S
C133 H142 0.930 . S
N134 C132 1.347 . S
N134 C135 1.373 . S
C135 C133 1.350 . S
C135 N134 1.373 . S
C135 H149 0.931 . S
C136 O139 1.256 . S
C136 O140 1.255 . S
O137 Co120 2.021 . S
O137 C130 1.259 . S
O138 Co122 2.117 . S
O138 C130 1.258 . S
O139 Co122 2.020 . S
O139 C136 1.256 . S
O140 Co120 2.062 . S
O140 C136 1.255 . S
O141 C121 1.259 . S
O141 Co122 2.021 . S
H142 C133 0.930 . S
H143 C132 0.931 . S
O144 Co120 2.117 . S
O144 C121 1.258 . S
O145 Co120 2.020 . S
O145 C147 1.256 . S
O146 Co122 2.062 . S
O146 C147 1.255 . S
C147 O145 1.256 . S
C147 O146 1.255 . S
H148 C127 0.931 . S
H149 C135 0.931 . S
Co150 N155 2.057 . S
Co150 O167 2.021 . S
Co150 O170 2.062 . S
Co150 O174 2.117 . S
Co150 O175 2.020 . S
C151 O171 1.259 . S
C151 O174 1.258 . S
Co152 N161 2.057 . S
Co152 O168 2.117 . S
Co152 O169 2.020 . S
Co152 O171 2.021 . S
Co152 O176 2.062 . S
C153 N155 1.316 . S
C153 N156 1.347 . S
C153 H158 0.931 . S
C154 N155 1.375 . S
C154 C157 1.350 . S
C154 H159 0.930 1_565 S
N155 Co150 2.057 . S
N155 C153 1.316 . S
N155 C154 1.375 . S
N156 C153 1.347 . S
N156 C157 1.373 . S
C157 C154 1.350 . S
C157 N156 1.373 . S
C157 H178 0.931 1_565 S
H158 C153 0.931 . S
H159 C154 0.930 1_545 S
C160 O167 1.259 . S
C160 O168 1.258 . S
N161 Co152 2.057 . S
N161 C162 1.316 . S
N161 C163 1.375 . S
C162 N161 1.316 . S
C162 N164 1.347 . S
C162 H173 0.931 . S
C163 N161 1.375 . S
C163 C165 1.350 . S
C163 H172 0.930 . S
N164 C162 1.347 . S
N164 C165 1.373 . S
C165 C163 1.350 . S
C165 N164 1.373 . S
C165 H179 0.931 . S
C166 O169 1.256 . S
C166 O170 1.255 . S
O167 Co150 2.021 . S
O167 C160 1.259 . S
O168 Co152 2.117 . S
O168 C160 1.258 . S
O169 Co152 2.020 . S
O169 C166 1.256 . S
O170 Co150 2.062 . S
O170 C166 1.255 . S
O171 C151 1.259 . S
O171 Co152 2.021 . S
H172 C163 0.930 . S
H173 C162 0.931 . S
O174 Co150 2.117 . S
O174 C151 1.258 . S
O175 Co150 2.020 . S
O175 C177 1.256 . S
O176 Co152 2.062 . S
O176 C177 1.255 . S
C177 O175 1.256 . S
C177 O176 1.255 . S
H178 C157 0.931 1_545 S
H179 C165 0.931 . S
Co180 N185 2.057 . S
Co180 O197 2.021 . S
Co180 O200 2.062 . S
Co180 O204 2.117 . S
Co180 O205 2.020 . S
C181 O201 1.259 . S
C181 O204 1.258 . S
Co182 N191 2.057 . S
Co182 O198 2.117 . S
Co182 O199 2.020 . S
Co182 O201 2.021 . S
Co182 O206 2.062 . S
C183 N185 1.316 . S
C183 N186 1.347 . S
C183 H188 0.931 . S
C184 N185 1.375 . S
C184 C187 1.350 . S
C184 H189 0.930 . S
N185 Co180 2.057 . S
N185 C183 1.316 . S
N185 C184 1.375 . S
N186 C183 1.347 . S
N186 C187 1.373 . S
C187 C184 1.350 . S
C187 N186 1.373 . S
C187 H208 0.931 . S
H188 C183 0.931 . S
H189 C184 0.930 . S
C190 O197 1.259 . S
C190 O198 1.258 . S
N191 Co182 2.057 . S
N191 C192 1.316 . S
N191 C193 1.375 1_545 S
C192 N191 1.316 . S
C192 N194 1.340 1_545 S
C192 H203 0.931 . S
C193 N191 1.375 1_565 S
C193 C195 1.350 . S
C193 H202 0.930 . S
N194 C192 1.340 1_565 S
N194 C195 1.379 . S
C195 C193 1.350 . S
C195 N194 1.379 . S
C195 H209 0.931 . S
C196 O199 1.256 . S
C196 O200 1.255 . S
O197 Co180 2.021 . S
O197 C190 1.259 . S
O198 Co182 2.117 . S
O198 C190 1.258 . S
O199 Co182 2.020 . S
O199 C196 1.256 . S
O200 Co180 2.062 . S
O200 C196 1.255 . S
O201 C181 1.259 . S
O201 Co182 2.021 . S
H202 C193 0.930 . S
H203 C192 0.931 . S
O204 Co180 2.117 . S
O204 C181 1.258 . S
O205 Co180 2.020 . S
O205 C207 1.256 . S
O206 Co182 2.062 . S
O206 C207 1.255 . S
C207 O205 1.256 . S
C207 O206 1.255 . S
H208 C187 0.931 . S
H209 C195 0.931 . S
Co210 N215 2.057 . S
Co210 O227 2.021 . S
Co210 O230 2.062 . S
Co210 O234 2.117 . S
Co210 O235 2.020 . S
C211 O231 1.259 . S
C211 O234 1.258 . S
Co212 N221 2.057 . S
Co212 O228 2.117 . S
Co212 O229 2.020 . S
Co212 O231 2.021 . S
Co212 O236 2.062 . S
C213 N215 1.316 . S
C213 N216 1.347 . S
C213 H218 0.931 . S
C214 N215 1.375 . S
C214 C217 1.350 . S
C214 H219 0.930 . S
N215 Co210 2.057 . S
N215 C213 1.316 . S
N215 C214 1.375 . S
N216 C213 1.347 . S
N216 C217 1.373 . S
C217 C214 1.350 . S
C217 N216 1.373 . S
C217 H238 0.931 . S
H218 C213 0.931 . S
H219 C214 0.930 . S
C220 O227 1.259 . S
C220 O228 1.258 . S
N221 Co212 2.057 . S
N221 C222 1.316 . S
N221 C223 1.375 . S
C222 N221 1.316 . S
C222 N224 1.347 . S
C222 H233 0.931 . S
C223 N221 1.375 . S
C223 C225 1.350 . S
C223 H232 0.930 . S
N224 C222 1.347 . S
N224 C225 1.373 . S
C225 C223 1.350 . S
C225 N224 1.373 . S
C225 H239 0.931 . S
C226 O229 1.256 . S
C226 O230 1.255 . S
O227 Co210 2.021 . S
O227 C220 1.259 . S
O228 Co212 2.117 . S
O228 C220 1.258 . S
O229 Co212 2.020 . S
O229 C226 1.256 . S
O230 Co210 2.062 . S
O230 C226 1.255 . S
O231 C211 1.259 . S
O231 Co212 2.021 . S
H232 C223 0.930 . S
H233 C222 0.931 . S
O234 Co210 2.117 . S
O234 C211 1.258 . S
O235 Co210 2.020 . S
O235 C237 1.256 . S
O236 Co212 2.062 . S
O236 C237 1.255 . S
C237 O235 1.256 . S
C237 O236 1.255 . S
H238 C217 0.931 . S
H239 C225 0.931 . S
Co240 N245 2.057 . S
Co240 O257 2.021 . S
Co240 O260 2.062 . S
Co240 O264 2.117 . S
Co240 O265 2.020 . S
C241 O261 1.259 . S
C241 O264 1.258 . S
Co242 N251 2.057 . S
Co242 O258 2.117 . S
Co242 O259 2.020 . S
Co242 O261 2.021 . S
Co242 O266 2.062 . S
C243 N245 1.316 . S
C243 N246 1.347 . S
C243 H248 0.931 . S
C244 N245 1.375 . S
C244 C247 1.350 . S
C244 H249 0.930 . S
N245 Co240 2.057 . S
N245 C243 1.316 . S
N245 C244 1.375 . S
N246 C243 1.347 . S
N246 C247 1.373 . S
C247 C244 1.350 . S
C247 N246 1.373 . S
C247 H268 0.931 . S
H248 C243 0.931 . S
H249 C244 0.930 . S
C250 O257 1.259 . S
C250 O258 1.258 . S
N251 Co242 2.057 . S
N251 C252 1.316 . S
N251 C253 1.375 . S
C252 N251 1.316 . S
C252 N254 1.347 . S
C252 H263 0.931 . S
C253 N251 1.375 . S
C253 C255 1.350 . S
C253 H262 0.930 . S
N254 C252 1.347 . S
N254 C255 1.373 . S
C255 C253 1.350 . S
C255 N254 1.373 . S
C255 H269 0.931 . S
C256 O259 1.256 . S
C256 O260 1.255 . S
O257 Co240 2.021 . S
O257 C250 1.259 . S
O258 Co242 2.117 . S
O258 C250 1.258 . S
O259 Co242 2.020 . S
O259 C256 1.256 . S
O260 Co240 2.062 . S
O260 C256 1.255 . S
O261 C241 1.259 . S
O261 Co242 2.021 . S
H262 C253 0.930 . S
H263 C252 0.931 . S
O264 Co240 2.117 . S
O264 C241 1.258 . S
O265 Co240 2.020 . S
O265 C267 1.256 . S
O266 Co242 2.062 . S
O266 C267 1.255 . S
C267 O265 1.256 . S
C267 O266 1.255 . S
H268 C247 0.931 . S
H269 C255 0.931 . S
Co270 N275 2.057 . S
Co270 O287 2.021 . S
Co270 O290 2.062 . S
Co270 O294 2.117 . S
Co270 O295 2.020 . S
C271 O291 1.259 . S
C271 O294 1.258 . S
Co272 N281 2.057 . S
Co272 O288 2.117 . S
Co272 O289 2.020 . S
Co272 O291 2.021 . S
Co272 O296 2.062 . S
C273 N275 1.316 . S
C273 N276 1.347 . S
C273 H278 0.931 . S
C274 N275 1.375 . S
C274 C277 1.350 . S
C274 H279 0.930 . S
N275 Co270 2.057 . S
N275 C273 1.316 . S
N275 C274 1.375 . S
N276 C273 1.347 . S
N276 C277 1.373 . S
C277 C274 1.350 . S
C277 N276 1.373 . S
C277 H298 0.931 . S
H278 C273 0.931 . S
H279 C274 0.930 . S
C280 O287 1.259 . S
C280 O288 1.258 . S
N281 Co272 2.057 . S
N281 C282 1.316 . S
N281 C283 1.375 . S
C282 N281 1.316 . S
C282 N284 1.347 . S
C282 H293 0.931 . S
C283 N281 1.375 . S
C283 C285 1.350 . S
C283 H292 0.930 . S
N284 C282 1.347 . S
N284 C285 1.373 . S
C285 C283 1.350 . S
C285 N284 1.373 . S
C285 H299 0.931 . S
C286 O289 1.256 . S
C286 O290 1.255 . S
O287 Co270 2.021 . S
O287 C280 1.259 . S
O288 Co272 2.117 . S
O288 C280 1.258 . S
O289 Co272 2.020 . S
O289 C286 1.256 . S
O290 Co270 2.062 . S
O290 C286 1.255 . S
O291 C271 1.259 . S
O291 Co272 2.021 . S
H292 C283 0.930 . S
H293 C282 0.931 . S
O294 Co270 2.117 . S
O294 C271 1.258 . S
O295 Co270 2.020 . S
O295 C297 1.256 . S
O296 Co272 2.062 . S
O296 C297 1.255 . S
C297 O295 1.256 . S
C297 O296 1.255 . S
H298 C277 0.931 . S
H299 C285 0.931 . S
Co300 N305 2.057 . S
Co300 O317 2.021 . S
Co300 O320 2.062 . S
Co300 O324 2.117 . S
Co300 O325 2.020 . S
C301 O321 1.259 . S
C301 O324 1.258 . S
Co302 N311 2.057 . S
Co302 O318 2.117 . S
Co302 O319 2.020 . S
Co302 O321 2.021 . S
Co302 O326 2.062 . S
C303 N305 1.316 . S
C303 N306 1.340 1_545 S
C303 H308 0.931 . S
C304 N305 1.375 1_565 S
C304 C307 1.350 . S
C304 H309 0.930 . S
N305 Co300 2.057 . S
N305 C303 1.316 . S
N305 C304 1.375 1_545 S
N306 C303 1.340 1_565 S
N306 C307 1.379 . S
C307 C304 1.350 . S
C307 N306 1.379 . S
C307 H328 0.931 . S
H308 C303 0.931 . S
H309 C304 0.930 . S
C310 O317 1.259 . S
C310 O318 1.258 . S
N311 Co302 2.057 . S
N311 C312 1.316 . S
N311 C313 1.375 . S
C312 N311 1.316 . S
C312 N314 1.347 . S
C312 H323 0.931 . S
C313 N311 1.375 . S
C313 C315 1.350 . S
C313 H322 0.930 . S
N314 C312 1.347 . S
N314 C315 1.373 . S
C315 C313 1.350 . S
C315 N314 1.373 . S
C315 H329 0.931 . S
C316 O319 1.256 . S
C316 O320 1.255 . S
O317 Co300 2.021 . S
O317 C310 1.259 . S
O318 Co302 2.117 . S
O318 C310 1.258 . S
O319 Co302 2.020 . S
O319 C316 1.256 . S
O320 Co300 2.062 . S
O320 C316 1.255 . S
O321 C301 1.259 . S
O321 Co302 2.021 . S
H322 C313 0.930 . S
H323 C312 0.931 . S
O324 Co300 2.117 . S
O324 C301 1.258 . S
O325 Co300 2.020 . S
O325 C327 1.256 . S
O326 Co302 2.062 . S
O326 C327 1.255 . S
C327 O325 1.256 . S
C327 O326 1.255 . S
H328 C307 0.931 . S
H329 C315 0.931 . S
Co330 N335 2.057 . S
Co330 O347 2.021 . S
Co330 O350 2.062 . S
Co330 O354 2.117 . S
Co330 O355 2.020 . S
C331 O351 1.259 . S
C331 O354 1.258 . S
Co332 N341 2.057 . S
Co332 O348 2.117 . S
Co332 O349 2.020 . S
Co332 O351 2.021 . S
Co332 O356 2.062 . S
C333 N335 1.316 . S
C333 N336 1.347 . S
C333 H338 0.931 . S
C334 N335 1.375 . S
C334 C337 1.350 . S
C334 H339 0.930 . S
N335 Co330 2.057 . S
N335 C333 1.316 . S
N335 C334 1.375 . S
N336 C333 1.347 . S
N336 C337 1.373 . S
C337 C334 1.350 . S
C337 N336 1.373 . S
C337 H358 0.931 1_556 S
H338 C333 0.931 . S
H339 C334 0.930 . S
C340 O347 1.259 . S
C340 O348 1.258 . S
N341 Co332 2.057 . S
N341 C342 1.316 . S
N341 C343 1.375 . S
C342 N341 1.316 . S
C342 N344 1.347 . S
C342 H353 0.931 . S
C343 N341 1.375 . S
C343 C345 1.350 . S
C343 H352 0.930 1_565 S
N344 C342 1.347 . S
N344 C345 1.373 . S
C345 C343 1.350 . S
C345 N344 1.373 . S
C345 H359 0.931 1_565 S
C346 O349 1.256 . S
C346 O350 1.255 . S
O347 Co330 2.021 . S
O347 C340 1.259 . S
O348 Co332 2.117 . S
O348 C340 1.258 . S
O349 Co332 2.020 . S
O349 C346 1.256 . S
O350 Co330 2.062 . S
O350 C346 1.255 . S
O351 C331 1.259 . S
O351 Co332 2.021 . S
H352 C343 0.930 1_545 S
H353 C342 0.931 . S
O354 Co330 2.117 . S
O354 C331 1.258 . S
O355 Co330 2.020 . S
O355 C357 1.256 . S
O356 Co332 2.062 . S
O356 C357 1.255 . S
C357 O355 1.256 . S
C357 O356 1.255 . S
H358 C337 0.931 1_554 S
H359 C345 0.931 1_545 S
Co360 N365 2.057 . S
Co360 O377 2.021 . S
Co360 O380 2.062 . S
Co360 O384 2.117 . S
Co360 O385 2.020 . S
C361 O381 1.259 . S
C361 O384 1.258 . S
Co362 N371 2.057 . S
Co362 O378 2.117 . S
Co362 O379 2.020 . S
Co362 O381 2.021 . S
Co362 O386 2.062 . S
C363 N365 1.316 . S
C363 N366 1.347 . S
C363 H368 0.931 . S
C364 N365 1.375 . S
C364 C367 1.350 . S
C364 H369 0.930 . S
N365 Co360 2.057 . S
N365 C363 1.316 . S
N365 C364 1.375 . S
N366 C363 1.347 . S
N366 C367 1.373 . S
C367 C364 1.350 . S
C367 N366 1.373 . S
C367 H388 0.931 . S
H368 C363 0.931 . S
H369 C364 0.930 . S
C370 O377 1.259 . S
C370 O378 1.258 . S
N371 Co362 2.057 . S
N371 C372 1.316 . S
N371 C373 1.375 . S
C372 N371 1.316 . S
C372 N374 1.347 . S
C372 H383 0.931 . S
C373 N371 1.375 . S
C373 C375 1.350 . S
C373 H382 0.930 . S
N374 C372 1.347 . S
N374 C375 1.373 . S
C375 C373 1.350 . S
C375 N374 1.373 . S
C375 H389 0.931 . S
C376 O379 1.256 . S
C376 O380 1.255 . S
O377 Co360 2.021 . S
O377 C370 1.259 . S
O378 Co362 2.117 . S
O378 C370 1.258 . S
O379 Co362 2.020 . S
O379 C376 1.256 . S
O380 Co360 2.062 . S
O380 C376 1.255 . S
O381 C361 1.259 . S
O381 Co362 2.021 . S
H382 C373 0.930 . S
H383 C372 0.931 . S
O384 Co360 2.117 . S
O384 C361 1.258 . S
O385 Co360 2.020 . S
O385 C387 1.256 . S
O386 Co362 2.062 . S
O386 C387 1.255 . S
C387 O385 1.256 . S
C387 O386 1.255 . S
H388 C367 0.931 . S
H389 C375 0.931 . S
Co390 N395 2.057 . S
Co390 O407 2.021 . S
Co390 O410 2.062 . S
Co390 O414 2.117 . S
Co390 O415 2.020 . S
C391 O411 1.259 . S
C391 O414 1.258 . S
Co392 N401 2.057 . S
Co392 O408 2.117 . S
Co392 O409 2.020 . S
Co392 O411 2.021 . S
Co392 O416 2.062 . S
C393 N395 1.316 . S
C393 N396 1.347 . S
C393 H398 0.931 . S
C394 N395 1.375 . S
C394 C397 1.350 . S
C394 H399 0.930 . S
N395 Co390 2.057 . S
N395 C393 1.316 . S
N395 C394 1.375 . S
N396 C393 1.347 . S
N396 C397 1.373 . S
C397 C394 1.350 . S
C397 N396 1.373 . S
C397 H418 0.931 . S
H398 C393 0.931 . S
H399 C394 0.930 . S
C400 O407 1.259 . S
C400 O408 1.258 . S
N401 Co392 2.057 . S
N401 C402 1.316 . S
N401 C403 1.375 . S
C402 N401 1.316 . S
C402 N404 1.347 . S
C402 H413 0.931 . S
C403 N401 1.375 . S
C403 C405 1.350 . S
C403 H412 0.930 1_545 S
N404 C402 1.347 . S
N404 C405 1.373 . S
C405 C403 1.350 . S
C405 N404 1.373 . S
C405 H419 0.931 1_545 S
C406 O409 1.256 . S
C406 O410 1.255 . S
O407 Co390 2.021 . S
O407 C400 1.259 . S
O408 Co392 2.117 . S
O408 C400 1.258 . S
O409 Co392 2.020 . S
O409 C406 1.256 . S
O410 Co390 2.062 . S
O410 C406 1.255 . S
O411 C391 1.259 . S
O411 Co392 2.021 . S
H412 C403 0.930 1_565 S
H413 C402 0.931 . S
O414 Co390 2.117 . S
O414 C391 1.258 . S
O415 Co390 2.020 . S
O415 C417 1.256 . S
O416 Co392 2.062 . S
O416 C417 1.255 . S
C417 O415 1.256 . S
C417 O416 1.255 . S
H418 C397 0.931 . S
H419 C405 0.931 1_565 S
Co420 N425 2.057 . S
Co420 O437 2.021 . S
Co420 O440 2.062 . S
Co420 O444 2.117 . S
Co420 O445 2.020 . S
C421 O441 1.259 . S
C421 O444 1.258 . S
Co422 N431 2.057 . S
Co422 O438 2.117 . S
Co422 O439 2.020 . S
Co422 O441 2.021 . S
Co422 O446 2.062 . S
C423 N425 1.316 . S
C423 N426 1.340 1_565 S
C423 H428 0.931 . S
C424 N425 1.375 1_545 S
C424 C427 1.350 . S
C424 H429 0.930 . S
N425 Co420 2.057 . S
N425 C423 1.316 . S
N425 C424 1.375 1_565 S
N426 C423 1.340 1_545 S
N426 C427 1.379 . S
C427 C424 1.350 . S
C427 N426 1.379 . S
C427 H448 0.931 . S
H428 C423 0.931 . S
H429 C424 0.930 . S
C430 O437 1.259 . S
C430 O438 1.258 . S
N431 Co422 2.057 . S
N431 C432 1.316 . S
N431 C433 1.375 . S
C432 N431 1.316 . S
C432 N434 1.347 . S
C432 H443 0.931 . S
C433 N431 1.375 . S
C433 C435 1.350 . S
C433 H442 0.930 . S
N434 C432 1.347 . S
N434 C435 1.373 . S
C435 C433 1.350 . S
C435 N434 1.373 . S
C435 H449 0.931 . S
C436 O439 1.256 . S
C436 O440 1.255 . S
O437 Co420 2.021 . S
O437 C430 1.259 . S
O438 Co422 2.117 . S
O438 C430 1.258 . S
O439 Co422 2.020 . S
O439 C436 1.256 . S
O440 Co420 2.062 . S
O440 C436 1.255 . S
O441 C421 1.259 . S
O441 Co422 2.021 . S
H442 C433 0.930 . S
H443 C432 0.931 . S
O444 Co420 2.117 . S
O444 C421 1.258 . S
O445 Co420 2.020 . S
O445 C447 1.256 . S
O446 Co422 2.062 . S
O446 C447 1.255 . S
C447 O445 1.256 . S
C447 O446 1.255 . S
H448 C427 0.931 . S
H449 C435 0.931 . S
Co450 N455 2.057 . S
Co450 O467 2.021 . S
Co450 O470 2.062 . S
Co450 O474 2.117 . S
Co450 O475 2.020 . S
C451 O471 1.259 . S
C451 O474 1.258 . S
Co452 N461 2.057 . S
Co452 O468 2.117 . S
Co452 O469 2.020 . S
Co452 O471 2.021 . S
Co452 O476 2.062 . S
C453 N455 1.316 . S
C453 N456 1.347 . S
C453 H458 0.931 . S
C454 N455 1.375 . S
C454 C457 1.350 . S
C454 H459 0.930 . S
N455 Co450 2.057 . S
N455 C453 1.316 . S
N455 C454 1.375 . S
N456 C453 1.347 . S
N456 C457 1.373 . S
C457 C454 1.350 . S
C457 N456 1.373 . S
C457 H478 0.931 . S
H458 C453 0.931 . S
H459 C454 0.930 . S
C460 O467 1.259 . S
C460 O468 1.258 . S
N461 Co452 2.057 . S
N461 C462 1.316 . S
N461 C463 1.375 . S
C462 N461 1.316 . S
C462 N464 1.347 . S
C462 H473 0.931 . S
C463 N461 1.375 . S
C463 C465 1.350 . S
C463 H472 0.930 . S
N464 C462 1.347 . S
N464 C465 1.373 . S
C465 C463 1.350 . S
C465 N464 1.373 . S
C465 H479 0.931 . S
C466 O469 1.256 . S
C466 O470 1.255 . S
O467 Co450 2.021 . S
O467 C460 1.259 . S
O468 Co452 2.117 . S
O468 C460 1.258 . S
O469 Co452 2.020 . S
O469 C466 1.256 . S
O470 Co450 2.062 . S
O470 C466 1.255 . S
O471 C451 1.259 . S
O471 Co452 2.021 . S
H472 C463 0.930 . S
H473 C462 0.931 . S
O474 Co450 2.117 . S
O474 C451 1.258 . S
O475 Co450 2.020 . S
O475 C477 1.256 . S
O476 Co452 2.062 . S
O476 C477 1.255 . S
C477 O475 1.256 . S
C477 O476 1.255 . S
H478 C457 0.931 . S
H479 C465 0.931 . S
Co480 N485 2.057 . S
Co480 O497 2.021 . S
Co480 O500 2.062 . S
Co480 O504 2.117 . S
Co480 O505 2.020 . S
C481 O501 1.259 . S
C481 O504 1.258 . S
Co482 N491 2.057 . S
Co482 O498 2.117 . S
Co482 O499 2.020 . S
Co482 O501 2.021 . S
Co482 O506 2.062 . S
C483 N485 1.316 . S
C483 N486 1.347 . S
C483 H488 0.931 . S
C484 N485 1.375 . S
C484 C487 1.350 . S
C484 H489 0.930 . S
N485 Co480 2.057 . S
N485 C483 1.316 . S
N485 C484 1.375 . S
N486 C483 1.347 . S
N486 C487 1.373 . S
C487 C484 1.350 . S
C487 N486 1.373 . S
C487 H508 0.931 . S
H488 C483 0.931 . S
H489 C484 0.930 . S
C490 O497 1.259 . S
C490 O498 1.258 . S
N491 Co482 2.057 . S
N491 C492 1.316 . S
N491 C493 1.375 . S
C492 N491 1.316 . S
C492 N494 1.347 . S
C492 H503 0.931 . S
C493 N491 1.375 . S
C493 C495 1.350 . S
C493 H502 0.930 . S
N494 C492 1.347 . S
N494 C495 1.373 . S
C495 C493 1.350 . S
C495 N494 1.373 . S
C495 H509 0.931 . S
C496 O499 1.256 . S
C496 O500 1.255 . S
O497 Co480 2.021 . S
O497 C490 1.259 . S
O498 Co482 2.117 . S
O498 C490 1.258 . S
O499 Co482 2.020 . S
O499 C496 1.256 . S
O500 Co480 2.062 . S
O500 C496 1.255 . S
O501 C481 1.259 . S
O501 Co482 2.021 . S
H502 C493 0.930 . S
H503 C492 0.931 . S
O504 Co480 2.117 . S
O504 C481 1.258 . S
O505 Co480 2.020 . S
O505 C507 1.256 . S
O506 Co482 2.062 . S
O506 C507 1.255 . S
C507 O505 1.256 . S
C507 O506 1.255 . S
H508 C487 0.931 . S
H509 C495 0.931 . S
Co510 N515 2.057 . S
Co510 O527 2.021 . S
Co510 O530 2.062 . S
Co510 O534 2.117 . S
Co510 O535 2.020 . S
C511 O531 1.259 . S
C511 O534 1.258 . S
Co512 N521 2.057 . S
Co512 O528 2.117 . S
Co512 O529 2.020 . S
Co512 O531 2.021 . S
Co512 O536 2.062 . S
C513 N515 1.316 . S
C513 N516 1.347 . S
C513 H518 0.931 . S
C514 N515 1.375 . S
C514 C517 1.350 . S
C514 H519 0.930 . S
N515 Co510 2.057 . S
N515 C513 1.316 . S
N515 C514 1.375 . S
N516 C513 1.347 . S
N516 C517 1.373 . S
C517 C514 1.350 . S
C517 N516 1.373 . S
C517 H538 0.931 . S
H518 C513 0.931 . S
H519 C514 0.930 . S
C520 O527 1.259 . S
C520 O528 1.258 . S
N521 Co512 2.057 . S
N521 C522 1.316 . S
N521 C523 1.375 . S
C522 N521 1.316 . S
C522 N524 1.347 . S
C522 H533 0.931 . S
C523 N521 1.375 . S
C523 C525 1.350 . S
C523 H532 0.930 . S
N524 C522 1.347 . S
N524 C525 1.373 . S
C525 C523 1.350 . S
C525 N524 1.373 . S
C525 H539 0.931 . S
C526 O529 1.256 . S
C526 O530 1.255 . S
O527 Co510 2.021 . S
O527 C520 1.259 . S
O528 Co512 2.117 . S
O528 C520 1.258 . S
O529 Co512 2.020 . S
O529 C526 1.256 . S
O530 Co510 2.062 . S
O530 C526 1.255 . S
O531 C511 1.259 . S
O531 Co512 2.021 . S
H532 C523 0.930 . S
H533 C522 0.931 . S
O534 Co510 2.117 . S
O534 C511 1.258 . S
O535 Co510 2.020 . S
O535 C537 1.256 . S
O536 Co512 2.062 . S
O536 C537 1.255 . S
C537 O535 1.256 . S
C537 O536 1.255 . S
H538 C517 0.931 . S
H539 C525 0.931 . S
Co540 N545 2.057 . S
Co540 O557 2.021 . S
Co540 O560 2.062 . S
Co540 O564 2.117 . S
Co540 O565 2.020 . S
C541 O561 1.259 . S
C541 O564 1.258 . S
Co542 N551 2.057 . S
Co542 O558 2.117 . S
Co542 O559 2.020 . S
Co542 O561 2.021 . S
Co542 O566 2.062 . S
C543 N545 1.316 . S
C543 N546 1.347 . S
C543 H548 0.931 . S
C544 N545 1.375 . S
C544 C547 1.350 . S
C544 H549 0.930 . S
N545 Co540 2.057 . S
N545 C543 1.316 . S
N545 C544 1.375 . S
N546 C543 1.347 . S
N546 C547 1.373 . S
C547 C544 1.350 . S
C547 N546 1.373 . S
C547 H568 0.931 . S
H548 C543 0.931 . S
H549 C544 0.930 . S
C550 O557 1.259 . S
C550 O558 1.258 . S
N551 Co542 2.057 . S
N551 C552 1.316 . S
N551 C553 1.375 . S
C552 N551 1.316 . S
C552 N554 1.347 . S
C552 H563 0.931 . S
C553 N551 1.375 . S
C553 C555 1.350 . S
C553 H562 0.930 . S
N554 C552 1.347 . S
N554 C555 1.373 . S
C555 C553 1.350 . S
C555 N554 1.373 . S
C555 H569 0.931 . S
C556 O559 1.256 . S
C556 O560 1.255 . S
O557 Co540 2.021 . S
O557 C550 1.259 . S
O558 Co542 2.117 . S
O558 C550 1.258 . S
O559 Co542 2.020 . S
O559 C556 1.256 . S
O560 Co540 2.062 . S
O560 C556 1.255 . S
O561 C541 1.259 . S
O561 Co542 2.021 . S
H562 C553 0.930 . S
H563 C552 0.931 . S
O564 Co540 2.117 . S
O564 C541 1.258 . S
O565 Co540 2.020 . S
O565 C567 1.256 . S
O566 Co542 2.062 . S
O566 C567 1.255 . S
C567 O565 1.256 . S
C567 O566 1.255 . S
H568 C547 0.931 . S
H569 C555 0.931 . S
Co570 N575 2.057 . S
Co570 O587 2.021 . S
Co570 O590 2.062 . S
Co570 O594 2.117 . S
Co570 O595 2.020 . S
C571 O591 1.259 . S
C571 O594 1.258 . S
Co572 N581 2.057 . S
Co572 O588 2.117 . S
Co572 O589 2.020 . S
Co572 O591 2.021 . S
Co572 O596 2.062 . S
C573 N575 1.316 . S
C573 N576 1.347 . S
C573 H578 0.931 . S
C574 N575 1.375 . S
C574 C577 1.350 . S
C574 H579 0.930 . S
N575 Co570 2.057 . S
N575 C573 1.316 . S
N575 C574 1.375 . S
N576 C573 1.347 . S
N576 C577 1.373 . S
C577 C574 1.350 . S
C577 N576 1.373 . S
C577 H598 0.931 . S
H578 C573 0.931 . S
H579 C574 0.930 . S
C580 O587 1.259 . S
C580 O588 1.258 . S
N581 Co572 2.057 . S
N581 C582 1.316 . S
N581 C583 1.375 . S
C582 N581 1.316 . S
C582 N584 1.347 . S
C582 H593 0.931 . S
C583 N581 1.375 . S
C583 C585 1.350 . S
C583 H592 0.930 . S
N584 C582 1.347 . S
N584 C585 1.373 . S
C585 C583 1.350 . S
C585 N584 1.373 . S
C585 H599 0.931 . S
C586 O589 1.256 . S
C586 O590 1.255 . S
O587 Co570 2.021 . S
O587 C580 1.259 . S
O588 Co572 2.117 . S
O588 C580 1.258 . S
O589 Co572 2.020 . S
O589 C586 1.256 . S
O590 Co570 2.062 . S
O590 C586 1.255 . S
O591 C571 1.259 . S
O591 Co572 2.021 . S
H592 C583 0.930 . S
H593 C582 0.931 . S
O594 Co570 2.117 . S
O594 C571 1.258 . S
O595 Co570 2.020 . S
O595 C597 1.256 . S
O596 Co572 2.062 . S
O596 C597 1.255 . S
C597 O595 1.256 . S
C597 O596 1.255 . S
H598 C577 0.931 . S
H599 C585 0.931 . S
Co600 N605 2.057 . S
Co600 O617 2.021 . S
Co600 O620 2.062 . S
Co600 O624 2.117 . S
Co600 O625 2.020 . S
C601 O621 1.259 . S
C601 O624 1.258 . S
Co602 N611 2.057 . S
Co602 O618 2.117 . S
Co602 O619 2.020 . S
Co602 O621 2.021 . S
Co602 O626 2.062 . S
C603 N605 1.316 . S
C603 N606 1.347 . S
C603 H608 0.931 . S
C604 N605 1.375 . S
C604 C607 1.350 . S
C604 H609 0.930 . S
N605 Co600 2.057 . S
N605 C603 1.316 . S
N605 C604 1.375 . S
N606 C603 1.347 . S
N606 C607 1.373 . S
C607 C604 1.350 . S
C607 N606 1.373 . S
C607 H628 0.931 . S
H608 C603 0.931 . S
H609 C604 0.930 . S
C610 O617 1.259 . S
C610 O618 1.258 . S
N611 Co602 2.057 . S
N611 C612 1.316 . S
N611 C613 1.375 . S
C612 N611 1.316 . S
C612 N614 1.347 . S
C612 H623 0.931 . S
C613 N611 1.375 . S
C613 C615 1.350 . S
C613 H622 0.930 . S
N614 C612 1.347 . S
N614 C615 1.373 . S
C615 C613 1.350 . S
C615 N614 1.373 . S
C615 H629 0.931 . S
C616 O619 1.256 . S
C616 O620 1.255 . S
O617 Co600 2.021 . S
O617 C610 1.259 . S
O618 Co602 2.117 . S
O618 C610 1.258 . S
O619 Co602 2.020 . S
O619 C616 1.256 . S
O620 Co600 2.062 . S
O620 C616 1.255 . S
O621 C601 1.259 . S
O621 Co602 2.021 . S
H622 C613 0.930 . S
H623 C612 0.931 . S
O624 Co600 2.117 . S
O624 C601 1.258 . S
O625 Co600 2.020 . S
O625 C627 1.256 . S
O626 Co602 2.062 . S
O626 C627 1.255 . S
C627 O625 1.256 . S
C627 O626 1.255 . S
H628 C607 0.931 . S
H629 C615 0.931 . S
Co630 N635 2.057 . S
Co630 O647 2.021 . S
Co630 O650 2.062 . S
Co630 O654 2.117 . S
Co630 O655 2.020 . S
C631 O651 1.259 . S
C631 O654 1.258 . S
Co632 N641 2.057 . S
Co632 O648 2.117 . S
Co632 O649 2.020 . S
Co632 O651 2.021 . S
Co632 O656 2.062 . S
C633 N635 1.316 . S
C633 N636 1.347 . S
C633 H638 0.931 . S
C634 N635 1.375 . S
C634 C637 1.350 . S
C634 H639 0.930 . S
N635 Co630 2.057 . S
N635 C633 1.316 . S
N635 C634 1.375 . S
N636 C633 1.347 . S
N636 C637 1.373 . S
C637 C634 1.350 . S
C637 N636 1.373 . S
C637 H658 0.931 . S
H638 C633 0.931 . S
H639 C634 0.930 . S
C640 O647 1.259 . S
C640 O648 1.258 . S
N641 Co632 2.057 . S
N641 C642 1.316 . S
N641 C643 1.375 . S
C642 N641 1.316 . S
C642 N644 1.347 . S
C642 H653 0.931 . S
C643 N641 1.375 . S
C643 C645 1.350 . S
C643 H652 0.930 . S
N644 C642 1.347 . S
N644 C645 1.373 . S
C645 C643 1.350 . S
C645 N644 1.373 . S
C645 H659 0.931 1_556 S
C646 O649 1.256 . S
C646 O650 1.255 . S
O647 Co630 2.021 . S
O647 C640 1.259 . S
O648 Co632 2.117 . S
O648 C640 1.258 . S
O649 Co632 2.020 . S
O649 C646 1.256 . S
O650 Co630 2.062 . S
O650 C646 1.255 . S
O651 C631 1.259 . S
O651 Co632 2.021 . S
H652 C643 0.930 . S
H653 C642 0.931 . S
O654 Co630 2.117 . S
O654 C631 1.258 . S
O655 Co630 2.020 . S
O655 C657 1.256 . S
O656 Co632 2.062 . S
O656 C657 1.255 . S
C657 O655 1.256 . S
C657 O656 1.255 . S
H658 C637 0.931 . S
H659 C645 0.931 1_554 S
Co660 N665 2.057 . S
Co660 O677 2.021 . S
Co660 O680 2.062 . S
Co660 O684 2.117 . S
Co660 O685 2.020 . S
C661 O681 1.259 . S
C661 O684 1.258 . S
Co662 N671 2.057 . S
Co662 O678 2.117 . S
Co662 O679 2.020 . S
Co662 O681 2.021 . S
Co662 O686 2.062 . S
C663 N665 1.316 . S
C663 N666 1.347 . S
C663 H668 0.931 . S
C664 N665 1.375 . S
C664 C667 1.350 . S
C664 H669 0.930 . S
N665 Co660 2.057 . S
N665 C663 1.316 . S
N665 C664 1.375 . S
N666 C663 1.347 . S
N666 C667 1.373 . S
C667 C664 1.350 . S
C667 N666 1.373 . S
C667 H688 0.931 . S
H668 C663 0.931 . S
H669 C664 0.930 . S
C670 O677 1.259 . S
C670 O678 1.258 . S
N671 Co662 2.057 . S
N671 C672 1.316 . S
N671 C673 1.375 . S
C672 N671 1.316 . S
C672 N674 1.347 . S
C672 H683 0.931 . S
C673 N671 1.375 . S
C673 C675 1.350 . S
C673 H682 0.930 . S
N674 C672 1.347 . S
N674 C675 1.373 . S
C675 C673 1.350 . S
C675 N674 1.373 . S
C675 H689 0.931 . S
C676 O679 1.256 . S
C676 O680 1.255 . S
O677 Co660 2.021 . S
O677 C670 1.259 . S
O678 Co662 2.117 . S
O678 C670 1.258 . S
O679 Co662 2.020 . S
O679 C676 1.256 . S
O680 Co660 2.062 . S
O680 C676 1.255 . S
O681 C661 1.259 . S
O681 Co662 2.021 . S
H682 C673 0.930 . S
H683 C672 0.931 . S
O684 Co660 2.117 . S
O684 C661 1.258 . S
O685 Co660 2.020 . S
O685 C687 1.256 . S
O686 Co662 2.062 . S
O686 C687 1.255 . S
C687 O685 1.256 . S
C687 O686 1.255 . S
H688 C667 0.931 . S
H689 C675 0.931 . S
Co690 N695 2.057 . S
Co690 O707 2.021 . S
Co690 O710 2.062 . S
Co690 O714 2.117 . S
Co690 O715 2.020 . S
C691 O711 1.259 . S
C691 O714 1.258 . S
Co692 N701 2.057 . S
Co692 O708 2.117 . S
Co692 O709 2.020 . S
Co692 O711 2.021 . S
Co692 O716 2.062 . S
C693 N695 1.316 . S
C693 N696 1.347 . S
C693 H698 0.931 . S
C694 N695 1.375 . S
C694 C697 1.350 . S
C694 H699 0.930 . S
N695 Co690 2.057 . S
N695 C693 1.316 . S
N695 C694 1.375 . S
N696 C693 1.347 . S
N696 C697 1.373 . S
C697 C694 1.350 . S
C697 N696 1.373 . S
C697 H718 0.931 . S
H698 C693 0.931 . S
H699 C694 0.930 . S
C700 O707 1.259 . S
C700 O708 1.258 . S
N701 Co692 2.057 . S
N701 C702 1.316 . S
N701 C703 1.375 . S
C702 N701 1.316 . S
C702 N704 1.347 . S
C702 H713 0.931 . S
C703 N701 1.375 . S
C703 C705 1.350 . S
C703 H712 0.930 . S
N704 C702 1.347 . S
N704 C705 1.373 . S
C705 C703 1.350 . S
C705 N704 1.373 . S
C705 H719 0.931 . S
C706 O709 1.256 . S
C706 O710 1.255 . S
O707 Co690 2.021 . S
O707 C700 1.259 . S
O708 Co692 2.117 . S
O708 C700 1.258 . S
O709 Co692 2.020 . S
O709 C706 1.256 . S
O710 Co690 2.062 . S
O710 C706 1.255 . S
O711 C691 1.259 . S
O711 Co692 2.021 . S
H712 C703 0.930 . S
H713 C702 0.931 . S
O714 Co690 2.117 . S
O714 C691 1.258 . S
O715 Co690 2.020 . S
O715 C717 1.256 . S
O716 Co692 2.062 . S
O716 C717 1.255 . S
C717 O715 1.256 . S
C717 O716 1.255 . S
H718 C697 0.931 . S
H719 C705 0.931 . S
Co720 N725 2.057 . S
Co720 O737 2.021 . S
Co720 O740 2.062 . S
Co720 O744 2.117 . S
Co720 O745 2.020 . S
C721 O741 1.259 . S
C721 O744 1.258 . S
Co722 N731 2.057 . S
Co722 O738 2.117 . S
Co722 O739 2.020 . S
Co722 O741 2.021 . S
Co722 O746 2.062 . S
C723 N725 1.316 . S
C723 N726 1.347 . S
C723 H728 0.931 . S
C724 N725 1.375 . S
C724 C727 1.350 . S
C724 H729 0.930 . S
N725 Co720 2.057 . S
N725 C723 1.316 . S
N725 C724 1.375 . S
N726 C723 1.347 . S
N726 C727 1.373 . S
C727 C724 1.350 . S
C727 N726 1.373 . S
C727 H748 0.931 . S
H728 C723 0.931 . S
H729 C724 0.930 . S
C730 O737 1.259 . S
C730 O738 1.258 . S
N731 Co722 2.057 . S
N731 C732 1.316 . S
N731 C733 1.375 . S
C732 N731 1.316 . S
C732 N734 1.347 . S
C732 H743 0.931 . S
C733 N731 1.375 . S
C733 C735 1.350 . S
C733 H742 0.930 . S
N734 C732 1.347 . S
N734 C735 1.373 . S
C735 C733 1.350 . S
C735 N734 1.373 . S
C735 H749 0.931 . S
C736 O739 1.256 . S
C736 O740 1.255 . S
O737 Co720 2.021 . S
O737 C730 1.259 . S
O738 Co722 2.117 . S
O738 C730 1.258 . S
O739 Co722 2.020 . S
O739 C736 1.256 . S
O740 Co720 2.062 . S
O740 C736 1.255 . S
O741 C721 1.259 . S
O741 Co722 2.021 . S
H742 C733 0.930 . S
H743 C732 0.931 . S
O744 Co720 2.117 . S
O744 C721 1.258 . S
O745 Co720 2.020 . S
O745 C747 1.256 . S
O746 Co722 2.062 . S
O746 C747 1.255 . S
C747 O745 1.256 . S
C747 O746 1.255 . S
H748 C727 0.931 . S
H749 C735 0.931 . S
Co750 N755 2.057 . S
Co750 O767 2.021 . S
Co750 O770 2.062 . S
Co750 O774 2.117 . S
Co750 O775 2.020 . S
C751 O771 1.259 . S
C751 O774 1.258 . S
Co752 N761 2.057 . S
Co752 O768 2.117 . S
Co752 O769 2.020 . S
Co752 O771 2.021 . S
Co752 O776 2.062 . S
C753 N755 1.316 . S
C753 N756 1.347 . S
C753 H758 0.931 . S
C754 N755 1.375 . S
C754 C757 1.350 . S
C754 H759 0.930 . S
N755 Co750 2.057 . S
N755 C753 1.316 . S
N755 C754 1.375 . S
N756 C753 1.347 . S
N756 C757 1.373 . S
C757 C754 1.350 . S
C757 N756 1.373 . S
C757 H778 0.931 . S
H758 C753 0.931 . S
H759 C754 0.930 . S
C760 O767 1.259 . S
C760 O768 1.258 . S
N761 Co752 2.057 . S
N761 C762 1.316 . S
N761 C763 1.375 . S
C762 N761 1.316 . S
C762 N764 1.347 . S
C762 H773 0.931 . S
C763 N761 1.375 . S
C763 C765 1.350 . S
C763 H772 0.930 . S
N764 C762 1.347 . S
N764 C765 1.373 . S
C765 C763 1.350 . S
C765 N764 1.373 . S
C765 H779 0.931 . S
C766 O769 1.256 . S
C766 O770 1.255 . S
O767 Co750 2.021 . S
O767 C760 1.259 . S
O768 Co752 2.117 . S
O768 C760 1.258 . S
O769 Co752 2.020 . S
O769 C766 1.256 . S
O770 Co750 2.062 . S
O770 C766 1.255 . S
O771 C751 1.259 . S
O771 Co752 2.021 . S
H772 C763 0.930 . S
H773 C762 0.931 . S
O774 Co750 2.117 . S
O774 C751 1.258 . S
O775 Co750 2.020 . S
O775 C777 1.256 . S
O776 Co752 2.062 . S
O776 C777 1.255 . S
C777 O775 1.256 . S
C777 O776 1.255 . S
H778 C757 0.931 . S
H779 C765 0.931 . S
Co780 N785 2.057 . S
Co780 O797 2.021 . S
Co780 O800 2.062 . S
Co780 O804 2.117 . S
Co780 O805 2.020 . S
C781 O801 1.259 . S
C781 O804 1.258 . S
Co782 N791 2.057 . S
Co782 O798 2.117 . S
Co782 O799 2.020 . S
Co782 O801 2.021 . S
Co782 O806 2.062 . S
C783 N785 1.316 . S
C783 N786 1.347 . S
C783 H788 0.931 . S
C784 N785 1.375 . S
C784 C787 1.350 . S
C784 H789 0.930 . S
N785 Co780 2.057 . S
N785 C783 1.316 . S
N785 C784 1.375 . S
N786 C783 1.347 . S
N786 C787 1.373 . S
C787 C784 1.350 . S
C787 N786 1.373 . S
C787 H808 0.931 . S
H788 C783 0.931 . S
H789 C784 0.930 . S
C790 O797 1.259 . S
C790 O798 1.258 . S
N791 Co782 2.057 . S
N791 C792 1.316 . S
N791 C793 1.375 . S
C792 N791 1.316 . S
C792 N794 1.347 . S
C792 H803 0.931 . S
C793 N791 1.375 . S
C793 C795 1.350 . S
C793 H802 0.930 . S
N794 C792 1.347 . S
N794 C795 1.373 . S
C795 C793 1.350 . S
C795 N794 1.373 . S
C795 H809 0.931 . S
C796 O799 1.256 . S
C796 O800 1.255 . S
O797 Co780 2.021 . S
O797 C790 1.259 . S
O798 Co782 2.117 . S
O798 C790 1.258 . S
O799 Co782 2.020 . S
O799 C796 1.256 . S
O800 Co780 2.062 . S
O800 C796 1.255 . S
O801 C781 1.259 . S
O801 Co782 2.021 . S
H802 C793 0.930 . S
H803 C792 0.931 . S
O804 Co780 2.117 . S
O804 C781 1.258 . S
O805 Co780 2.020 . S
O805 C807 1.256 . S
O806 Co782 2.062 . S
O806 C807 1.255 . S
C807 O805 1.256 . S
C807 O806 1.255 . S
H808 C787 0.931 . S
H809 C795 0.931 . S
Co810 N815 2.057 . S
Co810 O827 2.021 . S
Co810 O830 2.062 . S
Co810 O834 2.117 . S
Co810 O835 2.020 . S
C811 O831 1.259 . S
C811 O834 1.258 . S
Co812 N821 2.057 . S
Co812 O828 2.117 . S
Co812 O829 2.020 . S
Co812 O831 2.021 . S
Co812 O836 2.062 . S
C813 N815 1.316 . S
C813 N816 1.347 . S
C813 H818 0.931 . S
C814 N815 1.375 . S
C814 C817 1.350 . S
C814 H819 0.930 . S
N815 Co810 2.057 . S
N815 C813 1.316 . S
N815 C814 1.375 . S
N816 C813 1.347 . S
N816 C817 1.373 . S
C817 C814 1.350 . S
C817 N816 1.373 . S
C817 H838 0.931 . S
H818 C813 0.931 . S
H819 C814 0.930 . S
C820 O827 1.259 . S
C820 O828 1.258 . S
N821 Co812 2.057 . S
N821 C822 1.316 . S
N821 C823 1.375 . S
C822 N821 1.316 . S
C822 N824 1.347 . S
C822 H833 0.931 . S
C823 N821 1.375 . S
C823 C825 1.350 . S
C823 H832 0.930 . S
N824 C822 1.347 . S
N824 C825 1.373 . S
C825 C823 1.350 . S
C825 N824 1.373 . S
C825 H839 0.931 . S
C826 O829 1.256 . S
C826 O830 1.255 . S
O827 Co810 2.021 . S
O827 C820 1.259 . S
O828 Co812 2.117 . S
O828 C820 1.258 . S
O829 Co812 2.020 . S
O829 C826 1.256 . S
O830 Co810 2.062 . S
O830 C826 1.255 . S
O831 C811 1.259 . S
O831 Co812 2.021 . S
H832 C823 0.930 . S
H833 C822 0.931 . S
O834 Co810 2.117 . S
O834 C811 1.258 . S
O835 Co810 2.020 . S
O835 C837 1.256 . S
O836 Co812 2.062 . S
O836 C837 1.255 . S
C837 O835 1.256 . S
C837 O836 1.255 . S
H838 C817 0.931 . S
H839 C825 0.931 . S
Co840 N845 2.057 . S
Co840 O857 2.021 . S
Co840 O860 2.062 . S
Co840 O864 2.117 . S
Co840 O865 2.020 . S
C841 O861 1.259 . S
C841 O864 1.258 . S
Co842 N851 2.057 . S
Co842 O858 2.117 . S
Co842 O859 2.020 . S
Co842 O861 2.021 . S
Co842 O866 2.062 . S
C843 N845 1.316 . S
C843 N846 1.347 . S
C843 H848 0.931 . S
C844 N845 1.375 . S
C844 C847 1.350 . S
C844 H849 0.930 . S
N845 Co840 2.057 . S
N845 C843 1.316 . S
N845 C844 1.375 . S
N846 C843 1.347 . S
N846 C847 1.373 . S
C847 C844 1.350 . S
C847 N846 1.373 . S
C847 H868 0.931 . S
H848 C843 0.931 . S
H849 C844 0.930 . S
C850 O857 1.259 . S
C850 O858 1.258 . S
N851 Co842 2.057 . S
N851 C852 1.316 . S
N851 C853 1.375 . S
C852 N851 1.316 . S
C852 N854 1.347 . S
C852 H863 0.931 . S
C853 N851 1.375 . S
C853 C855 1.350 . S
C853 H862 0.930 . S
N854 C852 1.347 . S
N854 C855 1.373 . S
C855 C853 1.350 . S
C855 N854 1.373 . S
C855 H869 0.931 . S
C856 O859 1.256 . S
C856 O860 1.255 . S
O857 Co840 2.021 . S
O857 C850 1.259 . S
O858 Co842 2.117 . S
O858 C850 1.258 . S
O859 Co842 2.020 . S
O859 C856 1.256 . S
O860 Co840 2.062 . S
O860 C856 1.255 . S
O861 C841 1.259 . S
O861 Co842 2.021 . S
H862 C853 0.930 . S
H863 C852 0.931 . S
O864 Co840 2.117 . S
O864 C841 1.258 . S
O865 Co840 2.020 . S
O865 C867 1.256 . S
O866 Co842 2.062 . S
O866 C867 1.255 . S
C867 O865 1.256 . S
C867 O866 1.255 . S
H868 C847 0.931 . S
H869 C855 0.931 . S
Co870 N875 2.057 . S
Co870 O887 2.021 . S
Co870 O890 2.062 . S
Co870 O894 2.117 . S
Co870 O895 2.020 . S
C871 O891 1.259 . S
C871 O894 1.258 . S
Co872 N881 2.057 . S
Co872 O888 2.117 . S
Co872 O889 2.020 . S
Co872 O891 2.021 . S
Co872 O896 2.062 . S
C873 N875 1.316 . S
C873 N876 1.347 . S
C873 H878 0.931 . S
C874 N875 1.375 . S
C874 C877 1.350 . S
C874 H879 0.930 . S
N875 Co870 2.057 . S
N875 C873 1.316 . S
N875 C874 1.375 . S
N876 C873 1.347 . S
N876 C877 1.373 . S
C877 C874 1.350 . S
C877 N876 1.373 . S
C877 H898 0.931 1_554 S
H878 C873 0.931 . S
H879 C874 0.930 . S
C880 O887 1.259 . S
C880 O888 1.258 . S
N881 Co872 2.057 . S
N881 C882 1.316 . S
N881 C883 1.375 . S
C882 N881 1.316 . S
C882 N884 1.347 . S
C882 H893 0.931 . S
C883 N881 1.375 . S
C883 C885 1.350 . S
C883 H892 0.930 . S
N884 C882 1.347 . S
N884 C885 1.373 . S
C885 C883 1.350 . S
C885 N884 1.373 . S
C885 H899 0.931 . S
C886 O889 1.256 . S
C886 O890 1.255 . S
O887 Co870 2.021 . S
O887 C880 1.259 . S
O888 Co872 2.117 . S
O888 C880 1.258 . S
O889 Co872 2.020 . S
O889 C886 1.256 . S
O890 Co870 2.062 . S
O890 C886 1.255 . S
O891 C871 1.259 . S
O891 Co872 2.021 . S
H892 C883 0.930 . S
H893 C882 0.931 . S
O894 Co870 2.117 . S
O894 C871 1.258 . S
O895 Co870 2.020 . S
O895 C897 1.256 . S
O896 Co872 2.062 . S
O896 C897 1.255 . S
C897 O895 1.256 . S
C897 O896 1.255 . S
H898 C877 0.931 1_556 S
H899 C885 0.931 . S
Co900 N905 2.057 . S
Co900 O917 2.021 . S
Co900 O920 2.062 . S
Co900 O924 2.117 . S
Co900 O925 2.020 . S
C901 O921 1.259 . S
C901 O924 1.258 . S
Co902 N911 2.057 . S
Co902 O918 2.117 . S
Co902 O919 2.020 . S
Co902 O921 2.021 . S
Co902 O926 2.062 . S
C903 N905 1.316 . S
C903 N906 1.347 . S
C903 H908 0.931 . S
C904 N905 1.375 . S
C904 C907 1.350 . S
C904 H909 0.930 . S
N905 Co900 2.057 . S
N905 C903 1.316 . S
N905 C904 1.375 . S
N906 C903 1.347 . S
N906 C907 1.373 . S
C907 C904 1.350 . S
C907 N906 1.373 . S
C907 H928 0.931 . S
H908 C903 0.931 . S
H909 C904 0.930 . S
C910 O917 1.259 . S
C910 O918 1.258 . S
N911 Co902 2.057 . S
N911 C912 1.316 . S
N911 C913 1.375 . S
C912 N911 1.316 . S
C912 N914 1.347 . S
C912 H923 0.931 . S
C913 N911 1.375 . S
C913 C915 1.350 . S
C913 H922 0.930 . S
N914 C912 1.347 . S
N914 C915 1.373 . S
C915 C913 1.350 . S
C915 N914 1.373 . S
C915 H929 0.931 . S
C916 O919 1.256 . S
C916 O920 1.255 . S
O917 Co900 2.021 . S
O917 C910 1.259 . S
O918 Co902 2.117 . S
O918 C910 1.258 . S
O919 Co902 2.020 . S
O919 C916 1.256 . S
O920 Co900 2.062 . S
O920 C916 1.255 . S
O921 C901 1.259 . S
O921 Co902 2.021 . S
H922 C913 0.930 . S
H923 C912 0.931 . S
O924 Co900 2.117 . S
O924 C901 1.258 . S
O925 Co900 2.020 . S
O925 C927 1.256 . S
O926 Co902 2.062 . S
O926 C927 1.255 . S
C927 O925 1.256 . S
C927 O926 1.255 . S
H928 C907 0.931 . S
H929 C915 0.931 . S
Co930 N935 2.057 . S
Co930 O947 2.021 . S
Co930 O950 2.062 . S
Co930 O954 2.117 . S
Co930 O955 2.020 . S
C931 O951 1.259 . S
C931 O954 1.258 . S
Co932 N941 2.057 . S
Co932 O948 2.117 . S
Co932 O949 2.020 . S
Co932 O951 2.021 . S
Co932 O956 2.062 . S
C933 N935 1.316 . S
C933 N936 1.347 . S
C933 H938 0.931 . S
C934 N935 1.375 . S
C934 C937 1.350 . S
C934 H939 0.930 . S
N935 Co930 2.057 . S
N935 C933 1.316 . S
N935 C934 1.375 . S
N936 C933 1.347 . S
N936 C937 1.373 . S
C937 C934 1.350 . S
C937 N936 1.373 . S
C937 H958 0.931 . S
H938 C933 0.931 . S
H939 C934 0.930 . S
C940 O947 1.259 . S
C940 O948 1.258 . S
N941 Co932 2.057 . S
N941 C942 1.316 . S
N941 C943 1.375 . S
C942 N941 1.316 . S
C942 N944 1.347 . S
C942 H953 0.931 . S
C943 N941 1.375 . S
C943 C945 1.350 . S
C943 H952 0.930 . S
N944 C942 1.347 . S
N944 C945 1.373 . S
C945 C943 1.350 . S
C945 N944 1.373 . S
C945 H959 0.931 . S
C946 O949 1.256 . S
C946 O950 1.255 . S
O947 Co930 2.021 . S
O947 C940 1.259 . S
O948 Co932 2.117 . S
O948 C940 1.258 . S
O949 Co932 2.020 . S
O949 C946 1.256 . S
O950 Co930 2.062 . S
O950 C946 1.255 . S
O951 C931 1.259 . S
O951 Co932 2.021 . S
H952 C943 0.930 . S
H953 C942 0.931 . S
O954 Co930 2.117 . S
O954 C931 1.258 . S
O955 Co930 2.020 . S
O955 C957 1.256 . S
O956 Co932 2.062 . S
O956 C957 1.255 . S
C957 O955 1.256 . S
C957 O956 1.255 . S
H958 C937 0.931 . S
H959 C945 0.931 . S
C960 C961 1.387 . S
C960 H964 0.950 . S
C960 C969 1.390 . S
C961 C960 1.387 . S
C961 C963 1.387 . S
H962 C969 0.950 . S
C963 C961 1.387 . S
C963 C965 1.390 . S
C963 H967 0.950 . S
H964 C960 0.950 . S
C965 C963 1.390 . S
C965 C966 1.387 . S
C965 H968 0.950 . S
C966 C965 1.387 . S
C966 C969 1.387 . S
H967 C963 0.950 . S
H968 C965 0.950 . S
C969 C960 1.390 . S
C969 H962 0.950 . S
C969 C966 1.387 . S
C970 C971 1.387 . S
C970 H974 0.950 . S
C970 C979 1.390 . S
C971 C970 1.387 . S
C971 C973 1.387 . S
H972 C979 0.950 . S
C973 C971 1.387 . S
C973 C975 1.390 . S
C973 H977 0.950 . S
H974 C970 0.950 . S
C975 C973 1.390 . S
C975 C976 1.387 1_455 S
C975 H978 0.950 1_455 S
C976 C975 1.387 1_655 S
C976 C979 1.387 1_655 S
H977 C973 0.950 . S
H978 C975 0.950 1_655 S
C979 C970 1.390 . S
C979 H972 0.950 . S
C979 C976 1.387 1_455 S
C980 C981 1.387 . S
C980 H984 0.950 . S
C980 C989 1.390 . S
C981 C980 1.387 . S
C981 C983 1.387 . S
H982 C989 0.950 . S
C983 C981 1.387 . S
C983 C985 1.390 . S
C983 H987 0.950 . S
H984 C980 0.950 . S
C985 C983 1.390 . S
C985 C986 1.387 . S
C985 H988 0.950 . S
C986 C985 1.387 . S
C986 C989 1.387 . S
H987 C983 0.950 . S
H988 C985 0.950 . S
C989 C980 1.390 . S
C989 H982 0.950 . S
C989 C986 1.387 . S
C990 C991 1.387 . S
C990 H994 0.950 . S
C990 C999 1.390 1_565 S
C991 C990 1.387 . S
C991 C993 1.387 1_565 S
H992 C999 0.950 . S
C993 C991 1.387 1_545 S
C993 C995 1.390 . S
C993 H997 0.950 1_545 S
H994 C990 0.950 . S
C995 C993 1.390 . S
C995 C996 1.387 . S
C995 H998 0.950 . S
C996 C995 1.387 . S
C996 C999 1.387 . S
H997 C993 0.950 1_565 S
H998 C995 0.950 . S
C999 C990 1.390 1_545 S
C999 H992 0.950 . S
C999 C996 1.387 . S
C1000 C1001 1.387 . S
C1000 H1004 0.950 . S
C1000 C1009 1.390 . S
C1001 C1000 1.387 . S
C1001 C1003 1.387 . S
H1002 C1009 0.950 . S
C1003 C1001 1.387 . S
C1003 C1005 1.390 . S
C1003 H1007 0.950 . S
H1004 C1000 0.950 . S
C1005 C1003 1.390 . S
C1005 C1006 1.387 . S
C1005 H1008 0.950 . S
C1006 C1005 1.387 . S
C1006 C1009 1.387 . S
H1007 C1003 0.950 . S
H1008 C1005 0.950 . S
C1009 C1000 1.390 . S
C1009 H1002 0.950 . S
C1009 C1006 1.387 . S
C1010 C1011 1.387 1_565 S
C1010 H1014 0.941 1_565 S
C1010 C1019 1.390 . S
C1011 C1010 1.387 1_545 S
C1011 C1013 1.387 . S
H1012 C1019 0.950 . S
C1013 C1011 1.387 . S
C1013 C1015 1.390 1_545 S
C1013 H1017 0.950 . S
H1014 C1010 0.941 1_545 S
C1015 C1013 1.390 1_565 S
C1015 C1016 1.387 . S
C1015 H1018 0.950 . S
C1016 C1015 1.387 . S
C1016 C1019 1.387 . S
H1017 C1013 0.950 . S
H1018 C1015 0.950 . S
C1019 C1010 1.390 . S
C1019 H1012 0.950 . S
C1019 C1016 1.387 . S
C1020 C1021 1.387 . S
C1020 H1024 0.950 . S
C1020 C1029 1.390 . S
C1021 C1020 1.387 . S
C1021 C1023 1.387 . S
H1022 C1029 0.950 . S
C1023 C1021 1.387 . S
C1023 C1025 1.390 . S
C1023 H1027 0.950 . S
H1024 C1020 0.950 . S
C1025 C1023 1.390 . S
C1025 C1026 1.387 . S
C1025 H1028 0.950 . S
C1026 C1025 1.387 . S
C1026 C1029 1.387 . S
H1027 C1023 0.950 . S
H1028 C1025 0.950 . S
C1029 C1020 1.390 . S
C1029 H1022 0.950 . S
C1029 C1026 1.387 . S
C1030 C1031 1.387 . S
C1030 H1034 0.950 . S
C1030 C1039 1.390 . S
C1031 C1030 1.387 . S
C1031 C1033 1.387 . S
H1032 C1039 0.950 . S
C1033 C1031 1.387 . S
C1033 C1035 1.390 . S
C1033 H1037 0.950 . S
H1034 C1030 0.950 . S
C1035 C1033 1.390 . S
C1035 C1036 1.387 1_455 S
C1035 H1038 0.950 1_455 S
C1036 C1035 1.387 1_655 S
C1036 C1039 1.387 1_655 S
H1037 C1033 0.950 . S
H1038 C1035 0.950 1_655 S
C1039 C1030 1.390 . S
C1039 H1032 0.950 . S
C1039 C1036 1.387 1_455 S
C1040 C1041 1.387 . S
C1040 H1044 0.950 . S
C1040 C1049 1.390 . S
C1041 C1040 1.387 . S
C1041 C1043 1.387 . S
H1042 C1049 0.950 . S
C1043 C1041 1.387 . S
C1043 C1045 1.390 . S
C1043 H1047 0.950 . S
H1044 C1040 0.950 . S
C1045 C1043 1.390 . S
C1045 C1046 1.387 . S
C1045 H1048 0.950 . S
C1046 C1045 1.387 . S
C1046 C1049 1.387 . S
H1047 C1043 0.950 . S
H1048 C1045 0.950 . S
C1049 C1040 1.390 . S
C1049 H1042 0.950 . S
C1049 C1046 1.387 . S
C1050 C1051 1.387 . S
C1050 H1054 0.950 . S
C1050 C1059 1.390 . S
C1051 C1050 1.387 . S
C1051 C1053 1.387 . S
H1052 C1059 0.950 . S
C1053 C1051 1.387 . S
C1053 C1055 1.390 1_655 S
C1053 H1057 0.950 . S
H1054 C1050 0.950 . S
C1055 C1053 1.390 1_455 S
C1055 C1056 1.387 . S
C1055 H1058 0.950 . S
C1056 C1055 1.387 . S
C1056 C1059 1.387 1_455 S
H1057 C1053 0.950 . S
H1058 C1055 0.950 . S
C1059 C1050 1.390 . S
C1059 H1052 0.950 . S
C1059 C1056 1.387 1_655 S
C1060 C1061 1.387 . S
C1060 H1064 0.950 . S
C1060 C1069 1.390 . S
C1061 C1060 1.387 . S
C1061 C1063 1.387 . S
H1062 C1069 0.950 . S
C1063 C1061 1.387 . S
C1063 C1065 1.390 . S
C1063 H1067 0.950 . S
H1064 C1060 0.950 . S
C1065 C1063 1.390 . S
C1065 C1066 1.387 . S
C1065 H1068 0.950 . S
C1066 C1065 1.387 . S
C1066 C1069 1.387 . S
H1067 C1063 0.950 . S
H1068 C1065 0.950 . S
C1069 C1060 1.390 . S
C1069 H1062 0.950 . S
C1069 C1066 1.387 . S
C1070 C1071 1.387 . S
C1070 H1074 0.950 . S
C1070 C1079 1.390 1_545 S
C1071 C1070 1.387 . S
C1071 C1073 1.387 1_545 S
H1072 C1079 0.950 . S
C1073 C1071 1.387 1_565 S
C1073 C1075 1.390 . S
C1073 H1077 0.950 . S
H1074 C1070 0.950 . S
C1075 C1073 1.390 . S
C1075 C1076 1.387 . S
C1075 H1078 0.950 . S
C1076 C1075 1.387 . S
C1076 C1079 1.387 . S
H1077 C1073 0.950 . S
H1078 C1075 0.950 . S
C1079 C1070 1.390 1_565 S
C1079 H1072 0.950 . S
C1079 C1076 1.387 . S
C1080 C1081 1.387 . S
C1080 H1084 0.950 . S
C1080 C1089 1.390 . S
C1081 C1080 1.387 . S
C1081 C1083 1.387 . S
H1082 C1089 0.950 . S
C1083 C1081 1.387 . S
C1083 C1085 1.390 . S
C1083 H1087 0.950 . S
H1084 C1080 0.950 . S
C1085 C1083 1.390 . S
C1085 C1086 1.387 . S
C1085 H1088 0.950 . S
C1086 C1085 1.387 . S
C1086 C1089 1.387 . S
H1087 C1083 0.950 . S
H1088 C1085 0.950 . S
C1089 C1080 1.390 . S
C1089 H1082 0.950 . S
C1089 C1086 1.387 . S
C1090 C1091 1.387 . S
C1090 H1094 0.950 . S
C1090 C1099 1.390 . S
C1091 C1090 1.387 . S
C1091 C1093 1.387 . S
H1092 C1099 0.950 1_565 S
C1093 C1091 1.387 . S
C1093 C1095 1.390 . S
C1093 H1097 0.950 . S
H1094 C1090 0.950 . S
C1095 C1093 1.390 . S
C1095 C1096 1.387 1_545 S
C1095 H1098 0.950 1_545 S
C1096 C1095 1.387 1_565 S
C1096 C1099 1.387 1_565 S
H1097 C1093 0.950 . S
H1098 C1095 0.950 1_565 S
C1099 C1090 1.390 . S
C1099 H1092 0.950 1_545 S
C1099 C1096 1.387 1_545 S
C1100 C1101 1.387 . S
C1100 H1104 0.950 . S
C1100 C1109 1.390 . S
C1101 C1100 1.387 . S
C1101 C1103 1.387 . S
H1102 C1109 0.950 . S
C1103 C1101 1.387 . S
C1103 C1105 1.390 . S
C1103 H1107 0.950 . S
H1104 C1100 0.950 . S
C1105 C1103 1.390 . S
C1105 C1106 1.387 . S
C1105 H1108 0.950 . S
C1106 C1105 1.387 . S
C1106 C1109 1.387 . S
H1107 C1103 0.950 . S
H1108 C1105 0.950 . S
C1109 C1100 1.390 . S
C1109 H1102 0.950 . S
C1109 C1106 1.387 . S
C1110 C1111 1.387 1_655 S
C1110 H1114 0.954 . S
C1110 C1119 1.390 . S
C1111 C1110 1.387 1_455 S
C1111 C1113 1.387 1_455 S
H1112 C1119 0.950 . S
C1113 C1111 1.387 1_655 S
C1113 C1115 1.390 . S
C1113 H1117 0.950 . S
H1114 C1110 0.954 . S
C1115 C1113 1.390 . S
C1115 C1116 1.387 . S
C1115 H1118 0.950 . S
C1116 C1115 1.387 . S
C1116 C1119 1.387 . S
H1117 C1113 0.950 . S
H1118 C1115 0.950 . S
C1119 C1110 1.390 . S
C1119 H1112 0.950 . S
C1119 C1116 1.387 . S
C1120 C1121 1.387 . S
C1120 H1124 0.950 . S
C1120 C1129 1.390 . S
C1121 C1120 1.387 . S
C1121 C1123 1.387 . S
H1122 C1129 0.950 . S
C1123 C1121 1.387 . S
C1123 C1125 1.390 . S
C1123 H1127 0.950 . S
H1124 C1120 0.950 . S
C1125 C1123 1.390 . S
C1125 C1126 1.387 . S
C1125 H1128 0.950 . S
C1126 C1125 1.387 . S
C1126 C1129 1.387 . S
H1127 C1123 0.950 . S
H1128 C1125 0.950 . S
C1129 C1120 1.390 . S
C1129 H1122 0.950 . S
C1129 C1126 1.387 . S
C1130 C1131 1.387 . S
C1130 H1134 0.950 . S
C1130 C1139 1.390 . S
C1131 C1130 1.387 . S
C1131 C1133 1.387 . S
H1132 C1139 0.950 . S
C1133 C1131 1.387 . S
C1133 C1135 1.390 . S
C1133 H1137 0.950 . S
H1134 C1130 0.950 . S
C1135 C1133 1.390 . S
C1135 C1136 1.387 . S
C1135 H1138 0.950 . S
C1136 C1135 1.387 . S
C1136 C1139 1.387 . S
H1137 C1133 0.950 . S
H1138 C1135 0.950 . S
C1139 C1130 1.390 . S
C1139 H1132 0.950 . S
C1139 C1136 1.387 . S
C1140 C1141 1.387 . S
C1140 H1144 0.950 . S
C1140 C1149 1.390 . S
C1141 C1140 1.387 . S
C1141 C1143 1.387 . S
H1142 C1149 0.950 . S
C1143 C1141 1.387 . S
C1143 C1145 1.390 . S
C1143 H1147 0.950 . S
H1144 C1140 0.950 . S
C1145 C1143 1.390 . S
C1145 C1146 1.387 . S
C1145 H1148 0.950 . S
C1146 C1145 1.387 . S
C1146 C1149 1.387 . S
H1147 C1143 0.950 . S
H1148 C1145 0.950 . S
C1149 C1140 1.390 . S
C1149 H1142 0.950 . S
C1149 C1146 1.387 . S
C1150 C1151 1.387 1_655 S
C1150 H1154 0.950 . S
C1150 C1159 1.390 1_655 S
C1151 C1150 1.387 1_455 S
C1151 C1153 1.390 . S
H1152 C1159 0.950 . S
C1153 C1151 1.390 . S
C1153 C1155 1.390 . S
C1153 H1157 0.950 . S
H1154 C1150 0.950 . S
C1155 C1153 1.390 . S
C1155 C1156 1.387 . S
C1155 H1158 0.950 . S
C1156 C1155 1.387 . S
C1156 C1159 1.387 . S
H1157 C1153 0.950 . S
H1158 C1155 0.950 . S
C1159 C1150 1.390 1_455 S
C1159 H1152 0.950 . S
C1159 C1156 1.387 . S
C1160 C1161 1.387 . S
C1160 H1164 0.950 . S
C1160 C1169 1.390 . S
C1161 C1160 1.387 . S
C1161 C1163 1.387 . S
H1162 C1169 0.950 . S
C1163 C1161 1.387 . S
C1163 C1165 1.390 . S
C1163 H1167 0.950 . S
H1164 C1160 0.950 . S
C1165 C1163 1.390 . S
C1165 C1166 1.387 . S
C1165 H1168 0.950 . S
C1166 C1165 1.387 . S
C1166 C1169 1.387 . S
H1167 C1163 0.950 . S
H1168 C1165 0.950 . S
C1169 C1160 1.390 . S
C1169 H1162 0.950 . S
C1169 C1166 1.387 . S
C1170 C1171 1.387 1_655 S
C1170 H1174 0.950 . S
C1170 C1179 1.390 . S
C1171 C1170 1.387 1_455 S
C1171 C1173 1.387 . S
H1172 C1179 0.950 . S
C1173 C1171 1.387 . S
C1173 C1175 1.390 . S
C1173 H1177 0.950 . S
H1174 C1170 0.950 . S
C1175 C1173 1.390 . S
C1175 C1176 1.389 . S
C1175 H1178 0.950 . S
C1176 C1175 1.389 . S
C1176 C1179 1.386 1_455 S
H1177 C1173 0.950 . S
H1178 C1175 0.950 . S
C1179 C1170 1.390 . S
C1179 H1172 0.950 . S
C1179 C1176 1.386 1_655 S
C1180 C1181 1.387 . S
C1180 H1184 0.950 . S
C1180 C1189 1.390 . S
C1181 C1180 1.387 . S
C1181 C1183 1.387 . S
H1182 C1189 0.950 . S
C1183 C1181 1.387 . S
C1183 C1185 1.390 . S
C1183 H1187 0.950 . S
H1184 C1180 0.950 . S
C1185 C1183 1.390 . S
C1185 C1186 1.387 . S
C1185 H1188 0.950 . S
C1186 C1185 1.387 . S
C1186 C1189 1.387 . S
H1187 C1183 0.950 . S
H1188 C1185 0.950 . S
C1189 C1180 1.390 . S
C1189 H1182 0.950 . S
C1189 C1186 1.387 . S
C1190 C1191 1.387 . S
C1190 H1194 0.950 . S
C1190 C1199 1.390 . S
C1191 C1190 1.387 . S
C1191 C1193 1.387 . S
H1192 C1199 0.950 . S
C1193 C1191 1.387 . S
C1193 C1195 1.390 . S
C1193 H1197 0.950 . S
H1194 C1190 0.950 . S
C1195 C1193 1.390 . S
C1195 C1196 1.387 . S
C1195 H1198 0.950 . S
C1196 C1195 1.387 . S
C1196 C1199 1.387 . S
H1197 C1193 0.950 . S
H1198 C1195 0.950 . S
C1199 C1190 1.390 . S
C1199 H1192 0.950 . S
C1199 C1196 1.387 . S
C1200 C1201 1.387 . S
C1200 H1204 0.950 . S
C1200 C1209 1.390 . S
C1201 C1200 1.387 . S
C1201 C1203 1.387 . S
H1202 C1209 0.950 . S
C1203 C1201 1.387 . S
C1203 C1205 1.390 . S
C1203 H1207 0.950 . S
H1204 C1200 0.950 . S
C1205 C1203 1.390 . S
C1205 C1206 1.387 . S
C1205 H1208 0.950 . S
C1206 C1205 1.387 . S
C1206 C1209 1.387 . S
H1207 C1203 0.950 . S
H1208 C1205 0.950 . S
C1209 C1200 1.390 . S
C1209 H1202 0.950 . S
C1209 C1206 1.387 . S
C1210 C1211 1.387 . S
C1210 H1214 0.950 . S
C1210 C1219 1.390 . S
C1211 C1210 1.387 . S
C1211 C1213 1.387 . S
H1212 C1219 0.950 . S
C1213 C1211 1.387 . S
C1213 C1215 1.390 . S
C1213 H1217 0.950 . S
H1214 C1210 0.950 . S
C1215 C1213 1.390 . S
C1215 C1216 1.387 . S
C1215 H1218 0.950 . S
C1216 C1215 1.387 . S
C1216 C1219 1.387 . S
H1217 C1213 0.950 . S
H1218 C1215 0.950 . S
C1219 C1210 1.390 . S
C1219 H1212 0.950 . S
C1219 C1216 1.387 . S
C1220 C1221 1.387 . S
C1220 H1224 0.950 . S
C1220 C1229 1.390 . S
C1221 C1220 1.387 . S
C1221 C1223 1.387 . S
H1222 C1229 0.950 . S
C1223 C1221 1.387 . S
C1223 C1225 1.390 . S
C1223 H1227 0.950 . S
H1224 C1220 0.950 . S
C1225 C1223 1.390 . S
C1225 C1226 1.387 . S
C1225 H1228 0.950 . S
C1226 C1225 1.387 . S
C1226 C1229 1.387 . S
H1227 C1223 0.950 . S
H1228 C1225 0.950 . S
C1229 C1220 1.390 . S
C1229 H1222 0.950 . S
C1229 C1226 1.387 . S
C1230 C1231 1.389 . S
C1230 H1234 0.950 . S
C1230 C1239 1.390 . S
C1231 C1230 1.389 . S
C1231 C1233 1.387 1_655 S
H1232 C1239 0.950 . S
C1233 C1231 1.387 1_455 S
C1233 C1235 1.385 1_455 S
C1233 H1237 0.956 . S
H1234 C1230 0.950 . S
C1235 C1233 1.385 1_655 S
C1235 C1236 1.387 . S
C1235 H1238 0.950 . S
C1236 C1235 1.387 . S
C1236 C1239 1.387 . S
H1237 C1233 0.956 . S
H1238 C1235 0.950 . S
C1239 C1230 1.390 . S
C1239 H1232 0.950 . S
C1239 C1236 1.387 . S
C1240 C1241 1.387 . S
C1240 H1244 0.950 . S
C1240 C1249 1.390 . S
C1241 C1240 1.387 . S
C1241 C1243 1.387 . S
H1242 C1249 0.950 . S
C1243 C1241 1.387 . S
C1243 C1245 1.390 . S
C1243 H1247 0.950 . S
H1244 C1240 0.950 . S
C1245 C1243 1.390 . S
C1245 C1246 1.387 . S
C1245 H1248 0.950 . S
C1246 C1245 1.387 . S
C1246 C1249 1.387 . S
H1247 C1243 0.950 . S
H1248 C1245 0.950 . S
C1249 C1240 1.390 . S
C1249 H1242 0.950 . S
C1249 C1246 1.387 . S
C1250 C1251 1.387 . S
C1250 H1254 0.953 . S
C1250 C1259 1.390 1_655 S
C1251 C1250 1.387 . S
C1251 C1253 1.387 . S
H1252 C1259 0.950 . S
C1253 C1251 1.387 . S
C1253 C1255 1.390 . S
C1253 H1257 0.950 . S
H1254 C1250 0.953 . S
C1255 C1253 1.390 . S
C1255 C1256 1.388 1_655 S
C1255 H1258 0.950 . S
C1256 C1255 1.388 1_455 S
C1256 C1259 1.387 . S
H1257 C1253 0.950 . S
H1258 C1255 0.950 . S
C1259 C1250 1.390 1_455 S
C1259 H1252 0.950 . S
C1259 C1256 1.387 . S
C1260 C1261 1.387 . S
C1260 H1264 0.950 . S
C1260 C1269 1.390 . S
C1261 C1260 1.387 . S
C1261 C1263 1.387 . S
H1262 C1269 0.950 . S
C1263 C1261 1.387 . S
C1263 C1265 1.390 . S
C1263 H1267 0.950 . S
H1264 C1260 0.950 . S
C1265 C1263 1.390 . S
C1265 C1266 1.387 . S
C1265 H1268 0.950 . S
C1266 C1265 1.387 . S
C1266 C1269 1.387 . S
H1267 C1263 0.950 . S
H1268 C1265 0.950 . S
C1269 C1260 1.390 . S
C1269 H1262 0.950 . S
C1269 C1266 1.387 . S
C1270 C1271 1.387 . S
C1270 H1274 0.950 . S
C1270 C1279 1.390 . S
C1271 C1270 1.387 . S
C1271 C1273 1.387 . S
H1272 C1279 0.950 . S
C1273 C1271 1.387 . S
C1273 C1275 1.390 . S
C1273 H1277 0.950 . S
H1274 C1270 0.950 . S
C1275 C1273 1.390 . S
C1275 C1276 1.387 . S
C1275 H1278 0.950 . S
C1276 C1275 1.387 . S
C1276 C1279 1.387 . S
H1277 C1273 0.950 . S
H1278 C1275 0.950 . S
C1279 C1270 1.390 . S
C1279 H1272 0.950 . S
C1279 C1276 1.387 . S
C1280 C1281 1.387 1_655 S
C1280 H1284 0.950 . S
C1280 C1289 1.390 . S
C1281 C1280 1.387 1_455 S
C1281 C1283 1.387 . S
H1282 C1289 0.950 . S
C1283 C1281 1.387 . S
C1283 C1285 1.390 . S
C1283 H1287 0.950 . S
H1284 C1280 0.950 . S
C1285 C1283 1.390 . S
C1285 C1286 1.387 1_455 S
C1285 H1288 0.950 . S
C1286 C1285 1.387 1_655 S
C1286 C1289 1.387 . S
H1287 C1283 0.950 . S
H1288 C1285 0.950 . S
C1289 C1280 1.390 . S
C1289 H1282 0.950 . S
C1289 C1286 1.387 . S
C1290 C1291 1.387 . S
C1290 H1294 0.950 . S
C1290 C1299 1.390 1_655 S
C1291 C1290 1.387 . S
C1291 C1293 1.387 . S
H1292 C1299 0.950 . S
C1293 C1291 1.387 . S
C1293 C1295 1.390 1_655 S
C1293 H1297 0.950 . S
H1294 C1290 0.950 . S
C1295 C1293 1.390 1_455 S
C1295 C1296 1.387 . S
C1295 H1298 0.950 . S
C1296 C1295 1.387 . S
C1296 C1299 1.387 . S
H1297 C1293 0.950 . S
H1298 C1295 0.950 . S
C1299 C1290 1.390 1_455 S
C1299 H1292 0.950 . S
C1299 C1296 1.387 . S
C1300 C1301 1.387 . S
C1300 H1304 0.950 . S
C1300 C1309 1.390 . S
C1301 C1300 1.387 . S
C1301 C1303 1.387 . S
H1302 C1309 0.950 . S
C1303 C1301 1.387 . S
C1303 C1305 1.390 . S
C1303 H1307 0.950 . S
H1304 C1300 0.950 . S
C1305 C1303 1.390 . S
C1305 C1306 1.387 . S
C1305 H1308 0.950 . S
C1306 C1305 1.387 . S
C1306 C1309 1.387 . S
H1307 C1303 0.950 . S
H1308 C1305 0.950 . S
C1309 C1300 1.390 . S
C1309 H1302 0.950 . S
C1309 C1306 1.387 . S
C1310 C1311 1.387 . S
C1310 H1314 0.950 . S
C1310 C1319 1.390 . S
C1311 C1310 1.387 . S
C1311 C1313 1.387 . S
H1312 C1319 0.950 . S
C1313 C1311 1.387 . S
C1313 C1315 1.390 . S
C1313 H1317 0.950 . S
H1314 C1310 0.950 . S
C1315 C1313 1.390 . S
C1315 C1316 1.387 . S
C1315 H1318 0.950 . S
C1316 C1315 1.387 . S
C1316 C1319 1.387 . S
H1317 C1313 0.950 . S
H1318 C1315 0.950 . S
C1319 C1310 1.390 . S
C1319 H1312 0.950 . S
C1319 C1316 1.387 . S
C1320 C1321 1.387 . S
C1320 H1324 0.950 . S
C1320 C1329 1.394 . S
C1321 C1320 1.387 . S
C1321 C1323 1.387 . S
H1322 C1329 0.949 1_455 S
C1323 C1321 1.387 . S
C1323 C1325 1.390 1_655 S
C1323 H1327 0.950 . S
H1324 C1320 0.950 . S
C1325 C1323 1.390 1_455 S
C1325 C1326 1.387 . S
C1325 H1328 0.950 . S
C1326 C1325 1.387 . S
C1326 C1329 1.384 1_455 S
H1327 C1323 0.950 . S
H1328 C1325 0.950 . S
C1329 C1320 1.394 . S
C1329 H1322 0.949 1_655 S
C1329 C1326 1.384 1_655 S
C1330 C1331 1.387 . S
C1330 H1334 0.950 . S
C1330 C1339 1.390 . S
C1331 C1330 1.387 . S
C1331 C1333 1.387 . S
H1332 C1339 0.950 . S
C1333 C1331 1.387 . S
C1333 C1335 1.390 . S
C1333 H1337 0.950 . S
H1334 C1330 0.950 . S
C1335 C1333 1.390 . S
C1335 C1336 1.387 . S
C1335 H1338 0.950 . S
C1336 C1335 1.387 . S
C1336 C1339 1.387 . S
H1337 C1333 0.950 . S
H1338 C1335 0.950 . S
C1339 C1330 1.390 . S
C1339 H1332 0.950 . S
C1339 C1336 1.387 . S
C1340 C1341 1.387 . S
C1340 H1344 0.950 . S
C1340 C1349 1.390 . S
C1341 C1340 1.387 . S
C1341 C1343 1.387 . S
H1342 C1349 0.950 . S
C1343 C1341 1.387 . S
C1343 C1345 1.390 . S
C1343 H1347 0.950 . S
H1344 C1340 0.950 . S
C1345 C1343 1.390 . S
C1345 C1346 1.387 . S
C1345 H1348 0.950 . S
C1346 C1345 1.387 . S
C1346 C1349 1.387 . S
H1347 C1343 0.950 . S
H1348 C1345 0.950 . S
C1349 C1340 1.390 . S
C1349 H1342 0.950 . S
C1349 C1346 1.387 . S
C1350 C1351 1.387 . S
C1350 H1354 0.950 . S
C1350 C1359 1.390 1_455 S
C1351 C1350 1.387 . S
C1351 C1353 1.387 . S
H1352 C1359 0.950 . S
C1353 C1351 1.387 . S
C1353 C1355 1.390 1_455 S
C1353 H1357 0.950 . S
H1354 C1350 0.950 . S
C1355 C1353 1.390 1_655 S
C1355 C1356 1.387 . S
C1355 H1358 0.950 . S
C1356 C1355 1.387 . S
C1356 C1359 1.387 . S
H1357 C1353 0.950 . S
H1358 C1355 0.950 . S
C1359 C1350 1.390 1_655 S
C1359 H1352 0.950 . S
C1359 C1356 1.387 . S
C1360 C1361 1.387 . S
C1360 H1364 0.950 . S
C1360 C1369 1.390 1_455 S
C1361 C1360 1.387 . S
C1361 C1363 1.387 . S
H1362 C1369 0.950 . S
C1363 C1361 1.387 . S
C1363 C1365 1.390 1_455 S
C1363 H1367 0.950 . S
H1364 C1360 0.950 . S
C1365 C1363 1.390 1_655 S
C1365 C1366 1.387 . S
C1365 H1368 0.950 . S
C1366 C1365 1.387 . S
C1366 C1369 1.387 . S
H1367 C1363 0.950 . S
H1368 C1365 0.950 . S
C1369 C1360 1.390 1_655 S
C1369 H1362 0.950 . S
C1369 C1366 1.387 . S
C1370 C1371 1.387 . S
C1370 H1374 0.950 . S
C1370 C1379 1.390 1_655 S
C1371 C1370 1.387 . S
C1371 C1373 1.387 . S
H1372 C1379 0.950 . S
C1373 C1371 1.387 . S
C1373 C1375 1.390 1_655 S
C1373 H1377 0.950 . S
H1374 C1370 0.950 . S
C1375 C1373 1.390 1_455 S
C1375 C1376 1.387 . S
C1375 H1378 0.950 . S
C1376 C1375 1.387 . S
C1376 C1379 1.387 . S
H1377 C1373 0.950 . S
H1378 C1375 0.950 . S
C1379 C1370 1.390 1_455 S
C1379 H1372 0.950 . S
C1379 C1376 1.387 . S
C1380 C1381 1.387 . S
C1380 H1384 0.950 . S
C1380 C1389 1.390 . S
C1381 C1380 1.387 . S
C1381 C1383 1.387 . S
H1382 C1389 0.950 . S
C1383 C1381 1.387 . S
C1383 C1385 1.390 . S
C1383 H1387 0.950 . S
H1384 C1380 0.950 . S
C1385 C1383 1.390 . S
C1385 C1386 1.387 . S
C1385 H1388 0.950 . S
C1386 C1385 1.387 . S
C1386 C1389 1.387 . S
H1387 C1383 0.950 . S
H1388 C1385 0.950 . S
C1389 C1380 1.390 . S
C1389 H1382 0.950 . S
C1389 C1386 1.387 . S
C1390 C1391 1.387 . S
C1390 H1394 0.950 . S
C1390 C1399 1.390 . S
C1391 C1390 1.387 . S
C1391 C1393 1.387 . S
H1392 C1399 0.950 . S
C1393 C1391 1.387 . S
C1393 C1395 1.390 . S
C1393 H1397 0.950 . S
H1394 C1390 0.950 . S
C1395 C1393 1.390 . S
C1395 C1396 1.387 . S
C1395 H1398 0.950 . S
C1396 C1395 1.387 . S
C1396 C1399 1.387 . S
H1397 C1393 0.950 . S
H1398 C1395 0.950 . S
C1399 C1390 1.390 . S
C1399 H1392 0.950 . S
C1399 C1396 1.387 . S
C1400 C1401 1.387 . S
C1400 H1404 0.950 . S
C1400 C1409 1.390 1_455 S
C1401 C1400 1.387 . S
C1401 C1403 1.387 . S
H1402 C1409 0.950 . S
C1403 C1401 1.387 . S
C1403 C1405 1.390 1_455 S
C1403 H1407 0.950 . S
H1404 C1400 0.950 . S
C1405 C1403 1.390 1_655 S
C1405 C1406 1.387 . S
C1405 H1408 0.950 . S
C1406 C1405 1.387 . S
C1406 C1409 1.387 . S
H1407 C1403 0.950 . S
H1408 C1405 0.950 . S
C1409 C1400 1.390 1_655 S
C1409 H1402 0.950 . S
C1409 C1406 1.387 . S
C1410 C1411 1.387 . S
C1410 H1414 0.950 . S
C1410 C1419 1.390 . S
C1411 C1410 1.387 . S
C1411 C1413 1.387 . S
H1412 C1419 0.950 . S
C1413 C1411 1.387 . S
C1413 C1415 1.390 . S
C1413 H1417 0.950 . S
H1414 C1410 0.950 . S
C1415 C1413 1.390 . S
C1415 C1416 1.387 . S
C1415 H1418 0.950 . S
C1416 C1415 1.387 . S
C1416 C1419 1.387 . S
H1417 C1413 0.950 . S
H1418 C1415 0.950 . S
C1419 C1410 1.390 . S
C1419 H1412 0.950 . S
C1419 C1416 1.387 . S
C1420 C1421 1.387 . S
C1420 H1424 0.950 . S
C1420 C1429 1.390 . S
C1421 C1420 1.387 . S
C1421 C1423 1.387 . S
H1422 C1429 0.950 . S
C1423 C1421 1.387 . S
C1423 C1425 1.390 . S
C1423 H1427 0.950 . S
H1424 C1420 0.950 . S
C1425 C1423 1.390 . S
C1425 C1426 1.387 . S
C1425 H1428 0.950 . S
C1426 C1425 1.387 . S
C1426 C1429 1.387 . S
H1427 C1423 0.950 . S
H1428 C1425 0.950 . S
C1429 C1420 1.390 . S
C1429 H1422 0.950 . S
C1429 C1426 1.387 . S
C1430 C1431 1.387 . S
C1430 H1434 0.950 . S
C1430 C1439 1.390 1_655 S
C1431 C1430 1.387 . S
C1431 C1433 1.387 . S
H1432 C1439 0.950 . S
C1433 C1431 1.387 . S
C1433 C1435 1.390 1_655 S
C1433 H1437 0.950 . S
H1434 C1430 0.950 . S
C1435 C1433 1.390 1_455 S
C1435 C1436 1.387 . S
C1435 H1438 0.950 . S
C1436 C1435 1.387 . S
C1436 C1439 1.387 . S
H1437 C1433 0.950 . S
H1438 C1435 0.950 . S
C1439 C1430 1.390 1_455 S
C1439 H1432 0.950 . S
C1439 C1436 1.387 . S
C1440 C1441 1.387 . S
C1440 H1444 0.950 . S
C1440 C1449 1.390 . S
C1441 C1440 1.387 . S
C1441 C1443 1.387 . S
H1442 C1449 0.950 . S
C1443 C1441 1.387 . S
C1443 C1445 1.390 . S
C1443 H1447 0.950 . S
H1444 C1440 0.950 . S
C1445 C1443 1.390 . S
C1445 C1446 1.387 . S
C1445 H1448 0.950 . S
C1446 C1445 1.387 . S
C1446 C1449 1.387 . S
H1447 C1443 0.950 . S
H1448 C1445 0.950 . S
C1449 C1440 1.390 . S
C1449 H1442 0.950 . S
C1449 C1446 1.387 . S
C1450 C1451 1.387 1_545 S
C1450 H1454 0.950 . S
C1450 C1459 1.390 1_655 S
C1451 C1450 1.387 1_565 S
C1451 C1453 1.387 . S
H1452 C1459 0.950 . S
C1453 C1451 1.387 . S
C1453 C1455 1.390 1_655 S
C1453 H1457 0.950 . S
H1454 C1450 0.950 . S
C1455 C1453 1.390 1_455 S
C1455 C1456 1.387 1_565 S
C1455 H1458 0.950 . S
C1456 C1455 1.387 1_545 S
C1456 C1459 1.387 . S
H1457 C1453 0.950 . S
H1458 C1455 0.950 . S
C1459 C1450 1.390 1_455 S
C1459 H1452 0.950 . S
C1459 C1456 1.387 . S
C1460 C1461 1.387 . S
C1460 H1464 0.950 . S
C1460 C1469 1.390 . S
C1461 C1460 1.387 . S
C1461 C1463 1.387 . S
H1462 C1469 0.950 . S
C1463 C1461 1.387 . S
C1463 C1465 1.390 . S
C1463 H1467 0.950 . S
H1464 C1460 0.950 . S
C1465 C1463 1.390 . S
C1465 C1466 1.387 . S
C1465 H1468 0.950 . S
C1466 C1465 1.387 . S
C1466 C1469 1.387 . S
H1467 C1463 0.950 . S
H1468 C1465 0.950 . S
C1469 C1460 1.390 . S
C1469 H1462 0.950 . S
C1469 C1466 1.387 . S
C1470 C1471 1.387 . S
C1470 H1474 0.950 . S
C1470 C1479 1.390 1_554 S
C1471 C1470 1.387 . S
C1471 C1473 1.387 1_545 S
H1472 C1479 0.950 . S
C1473 C1471 1.387 1_565 S
C1473 C1475 1.390 1_554 S
C1473 H1477 0.950 . S
H1474 C1470 0.950 . S
C1475 C1473 1.390 1_556 S
C1475 C1476 1.387 . S
C1475 H1478 0.950 . S
C1476 C1475 1.387 . S
C1476 C1479 1.387 1_565 S
H1477 C1473 0.950 . S
H1478 C1475 0.950 . S
C1479 C1470 1.390 1_556 S
C1479 H1472 0.950 . S
C1479 C1476 1.387 1_545 S
C1480 C1481 1.387 . S
C1480 H1484 0.950 . S
C1480 C1489 1.390 . S
C1481 C1480 1.387 . S
C1481 C1483 1.387 . S
H1482 C1489 0.950 . S
C1483 C1481 1.387 . S
C1483 C1485 1.390 . S
C1483 H1487 0.950 . S
H1484 C1480 0.950 . S
C1485 C1483 1.390 . S
C1485 C1486 1.387 . S
C1485 H1488 0.950 . S
C1486 C1485 1.387 . S
C1486 C1489 1.387 . S
H1487 C1483 0.950 . S
H1488 C1485 0.950 . S
C1489 C1480 1.390 . S
C1489 H1482 0.950 . S
C1489 C1486 1.387 . S
C1490 C1491 1.387 . S
C1490 H1494 0.950 . S
C1490 C1499 1.390 . S
C1491 C1490 1.387 . S
C1491 C1493 1.387 1_545 S
H1492 C1499 0.950 . S
C1493 C1491 1.387 1_565 S
C1493 C1495 1.390 . S
C1493 H1497 0.950 . S
H1494 C1490 0.950 . S
C1495 C1493 1.390 . S
C1495 C1496 1.387 . S
C1495 H1498 0.950 . S
C1496 C1495 1.387 . S
C1496 C1499 1.387 1_565 S
H1497 C1493 0.950 . S
H1498 C1495 0.950 . S
C1499 C1490 1.390 . S
C1499 H1492 0.950 . S
C1499 C1496 1.387 1_545 S
C1500 C1501 1.387 . S
C1500 H1504 0.950 . S
C1500 C1509 1.390 . S
C1501 C1500 1.387 . S
C1501 C1503 1.387 . S
H1502 C1509 0.950 . S
C1503 C1501 1.387 . S
C1503 C1505 1.390 . S
C1503 H1507 0.950 . S
H1504 C1500 0.950 . S
C1505 C1503 1.390 . S
C1505 C1506 1.387 . S
C1505 H1508 0.950 . S
C1506 C1505 1.387 . S
C1506 C1509 1.387 . S
H1507 C1503 0.950 . S
H1508 C1505 0.950 . S
C1509 C1500 1.390 . S
C1509 H1502 0.950 . S
C1509 C1506 1.387 . S
C1510 C1511 1.387 1_554 S
C1510 H1514 0.950 . S
C1510 C1519 1.390 . S
C1511 C1510 1.387 1_556 S
C1511 C1513 1.387 1_465 S
H1512 C1519 0.950 . S
C1513 C1511 1.387 1_645 S
C1513 C1515 1.390 . S
C1513 H1517 0.950 . S
H1514 C1510 0.950 . S
C1515 C1513 1.390 . S
C1515 C1516 1.387 1_556 S
C1515 H1518 0.950 . S
C1516 C1515 1.387 1_554 S
C1516 C1519 1.387 1_645 S
H1517 C1513 0.950 . S
H1518 C1515 0.950 . S
C1519 C1510 1.390 . S
C1519 H1512 0.950 . S
C1519 C1516 1.387 1_465 S
C1520 C1521 1.387 . S
C1520 H1524 0.950 . S
C1520 C1529 1.390 . S
C1521 C1520 1.387 . S
C1521 C1523 1.387 . S
H1522 C1529 0.950 . S
C1523 C1521 1.387 . S
C1523 C1525 1.390 . S
C1523 H1527 0.950 . S
H1524 C1520 0.950 . S
C1525 C1523 1.390 . S
C1525 C1526 1.387 . S
C1525 H1528 0.950 . S
C1526 C1525 1.387 . S
C1526 C1529 1.387 . S
H1527 C1523 0.950 . S
H1528 C1525 0.950 . S
C1529 C1520 1.390 . S
C1529 H1522 0.950 . S
C1529 C1526 1.387 . S
C1530 C1531 1.387 . S
C1530 H1534 0.950 . S
C1530 C1539 1.390 . S
C1531 C1530 1.387 . S
C1531 C1533 1.387 . S
H1532 C1539 0.950 . S
C1533 C1531 1.387 . S
C1533 C1535 1.390 . S
C1533 H1537 0.950 . S
H1534 C1530 0.950 . S
C1535 C1533 1.390 . S
C1535 C1536 1.387 . S
C1535 H1538 0.950 . S
C1536 C1535 1.387 . S
C1536 C1539 1.387 . S
H1537 C1533 0.950 . S
H1538 C1535 0.950 . S
C1539 C1530 1.390 . S
C1539 H1532 0.950 . S
C1539 C1536 1.387 . S
C1540 C1541 1.387 . S
C1540 H1544 0.950 . S
C1540 C1549 1.390 . S
C1541 C1540 1.387 . S
C1541 C1543 1.387 . S
H1542 C1549 0.950 . S
C1543 C1541 1.387 . S
C1543 C1545 1.390 . S
C1543 H1547 0.950 . S
H1544 C1540 0.950 . S
C1545 C1543 1.390 . S
C1545 C1546 1.387 . S
C1545 H1548 0.950 . S
C1546 C1545 1.387 . S
C1546 C1549 1.387 . S
H1547 C1543 0.950 . S
H1548 C1545 0.950 . S
C1549 C1540 1.390 . S
C1549 H1542 0.950 . S
C1549 C1546 1.387 . S
C1550 C1551 1.387 . S
C1550 H1554 0.950 . S
C1550 C1559 1.390 . S
C1551 C1550 1.387 . S
C1551 C1553 1.387 . S
H1552 C1559 0.950 . S
C1553 C1551 1.387 . S
C1553 C1555 1.390 . S
C1553 H1557 0.950 . S
H1554 C1550 0.950 . S
C1555 C1553 1.390 . S
C1555 C1556 1.387 . S
C1555 H1558 0.950 . S
C1556 C1555 1.387 . S
C1556 C1559 1.387 . S
H1557 C1553 0.950 . S
H1558 C1555 0.950 . S
C1559 C1550 1.390 . S
C1559 H1552 0.950 . S
C1559 C1556 1.387 . S
C1560 C1561 1.387 . S
C1560 H1564 0.950 . S
C1560 C1569 1.390 1_554 S
C1561 C1560 1.387 . S
C1561 C1563 1.387 . S
H1562 C1569 0.950 . S
C1563 C1561 1.387 . S
C1563 C1565 1.390 1_554 S
C1563 H1567 0.950 . S
H1564 C1560 0.950 . S
C1565 C1563 1.390 1_556 S
C1565 C1566 1.387 . S
C1565 H1568 0.950 . S
C1566 C1565 1.387 . S
C1566 C1569 1.387 . S
H1567 C1563 0.950 . S
H1568 C1565 0.950 . S
C1569 C1560 1.390 1_556 S
C1569 H1562 0.950 . S
C1569 C1566 1.387 . S
C1570 C1571 1.387 . S
C1570 H1574 0.950 . S
C1570 C1579 1.390 1_655 S
C1571 C1570 1.387 . S
C1571 C1573 1.387 . S
H1572 C1579 0.950 . S
C1573 C1571 1.387 . S
C1573 C1575 1.390 1_655 S
C1573 H1577 0.950 . S
H1574 C1570 0.950 . S
C1575 C1573 1.390 1_455 S
C1575 C1576 1.387 . S
C1575 H1578 0.950 . S
C1576 C1575 1.387 . S
C1576 C1579 1.387 . S
H1577 C1573 0.950 . S
H1578 C1575 0.950 . S
C1579 C1570 1.390 1_455 S
C1579 H1572 0.950 . S
C1579 C1576 1.387 . S
C1580 C1581 1.387 . S
C1580 H1584 0.950 . S
C1580 C1589 1.390 1_454 S
C1581 C1580 1.387 . S
C1581 C1583 1.387 . S
H1582 C1589 0.950 . S
C1583 C1581 1.387 . S
C1583 C1585 1.390 1_454 S
C1583 H1587 0.950 . S
H1584 C1580 0.950 . S
C1585 C1583 1.390 1_656 S
C1585 C1586 1.387 . S
C1585 H1588 0.950 . S
C1586 C1585 1.387 . S
C1586 C1589 1.387 . S
H1587 C1583 0.950 . S
H1588 C1585 0.950 . S
C1589 C1580 1.390 1_656 S
C1589 H1582 0.950 . S
C1589 C1586 1.387 . S
C1590 C1591 1.387 . S
C1590 H1594 0.950 . S
C1590 C1599 1.390 . S
C1591 C1590 1.387 . S
C1591 C1593 1.387 . S
H1592 C1599 0.950 . S
C1593 C1591 1.387 . S
C1593 C1595 1.390 . S
C1593 H1597 0.950 . S
H1594 C1590 0.950 . S
C1595 C1593 1.390 . S
C1595 C1596 1.387 . S
C1595 H1598 0.950 . S
C1596 C1595 1.387 . S
C1596 C1599 1.387 . S
H1597 C1593 0.950 . S
H1598 C1595 0.950 . S
C1599 C1590 1.390 . S
C1599 H1592 0.950 . S
C1599 C1596 1.387 . S
C1600 C1601 1.387 . S
C1600 H1604 0.950 . S
C1600 C1609 1.390 . S
C1601 C1600 1.387 . S
C1601 C1603 1.387 . S
H1602 C1609 0.950 . S
C1603 C1601 1.387 . S
C1603 C1605 1.390 1_545 S
C1603 H1607 0.950 1_545 S
H1604 C1600 0.950 . S
C1605 C1603 1.390 1_565 S
C1605 C1606 1.387 1_565 S
C1605 H1608 0.950 . S
C1606 C1605 1.387 1_545 S
C1606 C1609 1.387 . S
H1607 C1603 0.950 1_565 S
H1608 C1605 0.950 . S
C1609 C1600 1.390 . S
C1609 H1602 0.950 . S
C1609 C1606 1.387 . S
C1610 C1611 1.387 . S
C1610 H1614 0.950 . S
C1610 C1619 1.390 . S
C1611 C1610 1.387 . S
C1611 C1613 1.387 1_545 S
H1612 C1619 0.950 . S
C1613 C1611 1.387 1_565 S
C1613 C1615 1.390 . S
C1613 H1617 0.950 . S
H1614 C1610 0.950 . S
C1615 C1613 1.390 . S
C1615 C1616 1.387 . S
C1615 H1618 0.950 . S
C1616 C1615 1.387 . S
C1616 C1619 1.387 1_565 S
H1617 C1613 0.950 . S
H1618 C1615 0.950 . S
C1619 C1610 1.390 . S
C1619 H1612 0.950 . S
C1619 C1616 1.387 1_545 S
C1620 C1621 1.387 . S
C1620 H1624 0.950 . S
C1620 C1629 1.390 . S
C1621 C1620 1.387 . S
C1621 C1623 1.387 1_545 S
H1622 C1629 0.950 . S
C1623 C1621 1.387 1_565 S
C1623 C1625 1.390 . S
C1623 H1627 0.950 . S
H1624 C1620 0.950 . S
C1625 C1623 1.390 . S
C1625 C1626 1.387 . S
C1625 H1628 0.950 . S
C1626 C1625 1.387 . S
C1626 C1629 1.387 1_565 S
H1627 C1623 0.950 . S
H1628 C1625 0.950 . S
C1629 C1620 1.390 . S
C1629 H1622 0.950 . S
C1629 C1626 1.387 1_545 S
C1630 C1631 1.387 . S
C1630 H1634 0.950 1_565 S
C1630 C1639 1.390 1_565 S
C1631 C1630 1.387 . S
C1631 C1633 1.387 . S
H1632 C1639 0.950 . S
C1633 C1631 1.387 . S
C1633 C1635 1.390 . S
C1633 H1637 0.950 . S
H1634 C1630 0.950 1_545 S
C1635 C1633 1.390 . S
C1635 C1636 1.387 . S
C1635 H1638 0.950 . S
C1636 C1635 1.387 . S
C1636 C1639 1.387 1_565 S
H1637 C1633 0.950 . S
H1638 C1635 0.950 . S
C1639 C1630 1.390 1_545 S
C1639 H1632 0.950 . S
C1639 C1636 1.387 1_545 S
C1640 C1641 1.387 . S
C1640 H1644 0.950 . S
C1640 C1649 1.390 . S
C1641 C1640 1.387 . S
C1641 C1643 1.387 . S
H1642 C1649 0.950 . S
C1643 C1641 1.387 . S
C1643 C1645 1.391 . S
C1643 H1647 0.950 1_565 S
H1644 C1640 0.950 . S
C1645 C1643 1.391 . S
C1645 C1646 1.388 . S
C1645 H1648 0.948 1_565 S
C1646 C1645 1.388 . S
C1646 C1649 1.387 . S
H1647 C1643 0.950 1_545 S
H1648 C1645 0.948 1_545 S
C1649 C1640 1.390 . S
C1649 H1642 0.950 . S
C1649 C1646 1.387 . S
C1650 C1651 1.387 1_565 S
C1650 H1654 0.950 . S
C1650 C1659 1.390 . S
C1651 C1650 1.387 1_545 S
C1651 C1653 1.387 . S
H1652 C1659 0.950 . S
C1653 C1651 1.387 . S
C1653 C1655 1.390 . S
C1653 H1657 0.950 . S
H1654 C1650 0.950 . S
C1655 C1653 1.390 . S
C1655 C1656 1.387 1_545 S
C1655 H1658 0.950 . S
C1656 C1655 1.387 1_565 S
C1656 C1659 1.387 . S
H1657 C1653 0.950 . S
H1658 C1655 0.950 . S
C1659 C1650 1.390 . S
C1659 H1652 0.950 . S
C1659 C1656 1.387 . S
C1660 C1661 1.387 . S
C1660 H1664 0.950 . S
C1660 C1669 1.390 . S
C1661 C1660 1.387 . S
C1661 C1663 1.387 1_565 S
H1662 C1669 0.950 . S
C1663 C1661 1.387 1_545 S
C1663 C1665 1.390 . S
C1663 H1667 0.950 . S
H1664 C1660 0.950 . S
C1665 C1663 1.390 . S
C1665 C1666 1.387 . S
C1665 H1668 0.950 . S
C1666 C1665 1.387 . S
C1666 C1669 1.387 1_545 S
H1667 C1663 0.950 . S
H1668 C1665 0.950 . S
C1669 C1660 1.390 . S
C1669 H1662 0.950 . S
C1669 C1666 1.387 1_565 S
C1670 C1671 1.387 1_565 S
C1670 H1674 0.950 . S
C1670 C1679 1.390 1_565 S
C1671 C1670 1.387 1_545 S
C1671 C1673 1.387 . S
H1672 C1679 0.950 1_565 S
C1673 C1671 1.387 . S
C1673 C1675 1.390 . S
C1673 H1677 0.950 . S
H1674 C1670 0.950 . S
C1675 C1673 1.390 . S
C1675 C1676 1.387 . S
C1675 H1678 0.950 . S
C1676 C1675 1.387 . S
C1676 C1679 1.387 . S
H1677 C1673 0.950 . S
H1678 C1675 0.950 . S
C1679 C1670 1.390 1_545 S
C1679 H1672 0.950 1_545 S
C1679 C1676 1.387 . S
C1680 C1681 1.387 . S
C1680 H1684 0.950 . S
C1680 C1689 1.390 . S
C1681 C1680 1.387 . S
C1681 C1683 1.387 . S
H1682 C1689 0.950 . S
C1683 C1681 1.387 . S
C1683 C1685 1.390 . S
C1683 H1687 0.950 . S
H1684 C1680 0.950 . S
C1685 C1683 1.390 . S
C1685 C1686 1.387 . S
C1685 H1688 0.950 . S
C1686 C1685 1.387 . S
C1686 C1689 1.387 . S
H1687 C1683 0.950 . S
H1688 C1685 0.950 . S
C1689 C1680 1.390 . S
C1689 H1682 0.950 . S
C1689 C1686 1.387 . S
C1690 C1691 1.387 . S
C1690 H1694 0.950 . S
C1690 C1699 1.390 . S
C1691 C1690 1.387 . S
C1691 C1693 1.387 . S
H1692 C1699 0.950 . S
C1693 C1691 1.387 . S
C1693 C1695 1.390 . S
C1693 H1697 0.950 . S
H1694 C1690 0.950 . S
C1695 C1693 1.390 . S
C1695 C1696 1.387 . S
C1695 H1698 0.950 . S
C1696 C1695 1.387 . S
C1696 C1699 1.387 . S
H1697 C1693 0.950 . S
H1698 C1695 0.950 . S
C1699 C1690 1.390 . S
C1699 H1692 0.950 . S
C1699 C1696 1.387 . S
C1700 C1701 1.387 . S
C1700 H1704 0.950 . S
C1700 C1709 1.390 . S
C1701 C1700 1.387 . S
C1701 C1703 1.387 . S
H1702 C1709 0.950 . S
C1703 C1701 1.387 . S
C1703 C1705 1.390 . S
C1703 H1707 0.950 . S
H1704 C1700 0.950 . S
C1705 C1703 1.390 . S
C1705 C1706 1.387 . S
C1705 H1708 0.950 . S
C1706 C1705 1.387 . S
C1706 C1709 1.387 . S
H1707 C1703 0.950 . S
H1708 C1705 0.950 . S
C1709 C1700 1.390 . S
C1709 H1702 0.950 . S
C1709 C1706 1.387 . S
C1710 C1711 1.387 . S
C1710 H1714 0.950 . S
C1710 C1719 1.390 . S
C1711 C1710 1.387 . S
C1711 C1713 1.387 . S
H1712 C1719 0.950 . S
C1713 C1711 1.387 . S
C1713 C1715 1.390 . S
C1713 H1717 0.950 . S
H1714 C1710 0.950 . S
C1715 C1713 1.390 . S
C1715 C1716 1.387 . S
C1715 H1718 0.950 . S
C1716 C1715 1.387 . S
C1716 C1719 1.387 . S
H1717 C1713 0.950 . S
H1718 C1715 0.950 . S
C1719 C1710 1.390 . S
C1719 H1712 0.950 . S
C1719 C1716 1.387 . S
C1720 C1721 1.387 . S
C1720 H1724 0.950 . S
C1720 C1729 1.390 . S
C1721 C1720 1.387 . S
C1721 C1723 1.387 . S
H1722 C1729 0.950 . S
C1723 C1721 1.387 . S
C1723 C1725 1.390 . S
C1723 H1727 0.950 . S
H1724 C1720 0.950 . S
C1725 C1723 1.390 . S
C1725 C1726 1.387 . S
C1725 H1728 0.950 . S
C1726 C1725 1.387 . S
C1726 C1729 1.387 . S
H1727 C1723 0.950 . S
H1728 C1725 0.950 . S
C1729 C1720 1.390 . S
C1729 H1722 0.950 . S
C1729 C1726 1.387 . S
C1730 C1731 1.387 . S
C1730 H1734 0.950 . S
C1730 C1739 1.390 . S
C1731 C1730 1.387 . S
C1731 C1733 1.387 . S
H1732 C1739 0.950 . S
C1733 C1731 1.387 . S
C1733 C1735 1.390 . S
C1733 H1737 0.950 . S
H1734 C1730 0.950 . S
C1735 C1733 1.390 . S
C1735 C1736 1.387 . S
C1735 H1738 0.950 . S
C1736 C1735 1.387 . S
C1736 C1739 1.387 . S
H1737 C1733 0.950 . S
H1738 C1735 0.950 . S
C1739 C1730 1.390 . S
C1739 H1732 0.950 . S
C1739 C1736 1.387 . S
C1740 C1741 1.387 . S
C1740 H1744 0.950 . S
C1740 C1749 1.390 . S
C1741 C1740 1.387 . S
C1741 C1743 1.387 . S
H1742 C1749 0.950 . S
C1743 C1741 1.387 . S
C1743 C1745 1.390 . S
C1743 H1747 0.950 . S
H1744 C1740 0.950 . S
C1745 C1743 1.390 . S
C1745 C1746 1.387 . S
C1745 H1748 0.950 . S
C1746 C1745 1.387 . S
C1746 C1749 1.387 . S
H1747 C1743 0.950 . S
H1748 C1745 0.950 . S
C1749 C1740 1.390 . S
C1749 H1742 0.950 . S
C1749 C1746 1.387 . S
C1750 C1751 1.387 . S
C1750 H1754 0.950 . S
C1750 C1759 1.390 . S
C1751 C1750 1.387 . S
C1751 C1753 1.387 . S
H1752 C1759 0.950 . S
C1753 C1751 1.387 . S
C1753 C1755 1.390 . S
C1753 H1757 0.950 . S
H1754 C1750 0.950 . S
C1755 C1753 1.390 . S
C1755 C1756 1.387 . S
C1755 H1758 0.950 . S
C1756 C1755 1.387 . S
C1756 C1759 1.387 . S
H1757 C1753 0.950 . S
H1758 C1755 0.950 . S
C1759 C1750 1.390 . S
C1759 H1752 0.950 . S
C1759 C1756 1.387 . S
C1760 C1761 1.387 . S
C1760 H1764 0.950 . S
C1760 C1769 1.390 1_545 S
C1761 C1760 1.387 . S
C1761 C1763 1.387 . S
H1762 C1769 0.950 . S
C1763 C1761 1.387 . S
C1763 C1765 1.390 1_545 S
C1763 H1767 0.950 . S
H1764 C1760 0.950 . S
C1765 C1763 1.390 1_565 S
C1765 C1766 1.387 . S
C1765 H1768 0.950 . S
C1766 C1765 1.387 . S
C1766 C1769 1.387 . S
H1767 C1763 0.950 . S
H1768 C1765 0.950 . S
C1769 C1760 1.390 1_565 S
C1769 H1762 0.950 . S
C1769 C1766 1.387 . S
C1770 C1771 1.387 . S
C1770 H1774 0.950 . S
C1770 C1779 1.390 . S
C1771 C1770 1.387 . S
C1771 C1773 1.387 . S
H1772 C1779 0.950 . S
C1773 C1771 1.387 . S
C1773 C1775 1.390 . S
C1773 H1777 0.950 . S
H1774 C1770 0.950 . S
C1775 C1773 1.390 . S
C1775 C1776 1.387 . S
C1775 H1778 0.950 . S
C1776 C1775 1.387 . S
C1776 C1779 1.387 . S
H1777 C1773 0.950 . S
H1778 C1775 0.950 . S
C1779 C1770 1.390 . S
C1779 H1772 0.950 . S
C1779 C1776 1.387 . S
C1780 C1781 1.387 . S
C1780 H1784 0.950 . S
C1780 C1789 1.390 1_545 S
C1781 C1780 1.387 . S
C1781 C1783 1.387 . S
H1782 C1789 0.950 . S
C1783 C1781 1.387 . S
C1783 C1785 1.390 1_545 S
C1783 H1787 0.950 . S
H1784 C1780 0.950 . S
C1785 C1783 1.390 1_565 S
C1785 C1786 1.387 . S
C1785 H1788 0.950 . S
C1786 C1785 1.387 . S
C1786 C1789 1.387 . S
H1787 C1783 0.950 . S
H1788 C1785 0.950 . S
C1789 C1780 1.390 1_565 S
C1789 H1782 0.950 . S
C1789 C1786 1.387 . S
C1790 C1791 1.387 . S
C1790 H1794 0.950 . S
C1790 C1799 1.390 . S
C1791 C1790 1.387 . S
C1791 C1793 1.387 . S
H1792 C1799 0.950 . S
C1793 C1791 1.387 . S
C1793 C1795 1.390 . S
C1793 H1797 0.950 . S
H1794 C1790 0.950 . S
C1795 C1793 1.390 . S
C1795 C1796 1.387 . S
C1795 H1798 0.950 . S
C1796 C1795 1.387 . S
C1796 C1799 1.387 . S
H1797 C1793 0.950 . S
H1798 C1795 0.950 . S
C1799 C1790 1.390 . S
C1799 H1792 0.950 . S
C1799 C1796 1.387 . S
C1800 C1801 1.387 . S
C1800 H1804 0.950 . S
C1800 C1809 1.390 1_565 S
C1801 C1800 1.387 . S
C1801 C1803 1.387 . S
H1802 C1809 0.950 . S
C1803 C1801 1.387 . S
C1803 C1805 1.390 1_565 S
C1803 H1807 0.950 . S
H1804 C1800 0.950 . S
C1805 C1803 1.390 1_545 S
C1805 C1806 1.387 . S
C1805 H1808 0.950 . S
C1806 C1805 1.387 . S
C1806 C1809 1.387 . S
H1807 C1803 0.950 . S
H1808 C1805 0.950 . S
C1809 C1800 1.390 1_545 S
C1809 H1802 0.950 . S
C1809 C1806 1.387 . S
C1810 C1811 1.387 . S
C1810 H1814 0.950 . S
C1810 C1819 1.390 . S
C1811 C1810 1.387 . S
C1811 C1813 1.387 . S
H1812 C1819 0.950 . S
C1813 C1811 1.387 . S
C1813 C1815 1.390 . S
C1813 H1817 0.950 . S
H1814 C1810 0.950 . S
C1815 C1813 1.390 . S
C1815 C1816 1.387 . S
C1815 H1818 0.950 . S
C1816 C1815 1.387 . S
C1816 C1819 1.387 . S
H1817 C1813 0.950 . S
H1818 C1815 0.950 . S
C1819 C1810 1.390 . S
C1819 H1812 0.950 . S
C1819 C1816 1.387 . S
C1820 C1821 1.387 . S
C1820 H1824 0.950 . S
C1820 C1829 1.390 1_565 S
C1821 C1820 1.387 . S
C1821 C1823 1.387 . S
H1822 C1829 0.950 . S
C1823 C1821 1.387 . S
C1823 C1825 1.390 1_565 S
C1823 H1827 0.950 . S
H1824 C1820 0.950 . S
C1825 C1823 1.390 1_545 S
C1825 C1826 1.387 . S
C1825 H1828 0.950 . S
C1826 C1825 1.387 . S
C1826 C1829 1.387 . S
H1827 C1823 0.950 . S
H1828 C1825 0.950 . S
C1829 C1820 1.390 1_545 S
C1829 H1822 0.950 . S
C1829 C1826 1.387 . S
C1830 C1831 1.387 . S
C1830 H1834 0.950 . S
C1830 C1839 1.390 . S
C1831 C1830 1.387 . S
C1831 C1833 1.387 . S
H1832 C1839 0.950 1_556 S
C1833 C1831 1.387 . S
C1833 C1835 1.390 . S
C1833 H1837 0.950 . S
H1834 C1830 0.950 . S
C1835 C1833 1.390 . S
C1835 C1836 1.387 . S
C1835 H1838 0.950 . S
C1836 C1835 1.387 . S
C1836 C1839 1.387 . S
H1837 C1833 0.950 . S
H1838 C1835 0.950 . S
C1839 C1830 1.390 . S
C1839 H1832 0.950 1_554 S
C1839 C1836 1.387 . S
C1840 C1841 1.387 . S
C1840 H1844 0.950 . S
C1840 C1849 1.390 . S
C1841 C1840 1.387 . S
C1841 C1843 1.387 . S
H1842 C1849 0.950 . S
C1843 C1841 1.387 . S
C1843 C1845 1.390 . S
C1843 H1847 0.950 . S
H1844 C1840 0.950 . S
C1845 C1843 1.390 . S
C1845 C1846 1.387 . S
C1845 H1848 0.950 . S
C1846 C1845 1.387 . S
C1846 C1849 1.387 . S
H1847 C1843 0.950 . S
H1848 C1845 0.950 . S
C1849 C1840 1.390 . S
C1849 H1842 0.950 . S
C1849 C1846 1.387 . S
C1850 C1851 1.387 . S
C1850 H1854 0.950 . S
C1850 C1859 1.390 . S
C1851 C1850 1.387 . S
C1851 C1853 1.387 . S
H1852 C1859 0.950 . S
C1853 C1851 1.387 . S
C1853 C1855 1.390 . S
C1853 H1857 0.950 1_554 S
H1854 C1850 0.950 . S
C1855 C1853 1.390 . S
C1855 C1856 1.387 . S
C1855 H1858 0.950 . S
C1856 C1855 1.387 . S
C1856 C1859 1.387 . S
H1857 C1853 0.950 1_556 S
H1858 C1855 0.950 . S
C1859 C1850 1.390 . S
C1859 H1852 0.950 . S
C1859 C1856 1.387 . S
C1860 C1861 1.387 . S
C1860 H1864 0.950 . S
C1860 C1869 1.390 . S
C1861 C1860 1.387 . S
C1861 C1863 1.387 . S
H1862 C1869 0.950 . S
C1863 C1861 1.387 . S
C1863 C1865 1.390 . S
C1863 H1867 0.950 . S
H1864 C1860 0.950 . S
C1865 C1863 1.390 . S
C1865 C1866 1.387 . S
C1865 H1868 0.950 . S
C1866 C1865 1.387 . S
C1866 C1869 1.387 . S
H1867 C1863 0.950 . S
H1868 C1865 0.950 . S
C1869 C1860 1.390 . S
C1869 H1862 0.950 . S
C1869 C1866 1.387 . S
C1870 C1871 1.387 . S
C1870 H1874 0.950 . S
C1870 C1879 1.390 . S
C1871 C1870 1.387 . S
C1871 C1873 1.387 . S
H1872 C1879 0.950 . S
C1873 C1871 1.387 . S
C1873 C1875 1.390 . S
C1873 H1877 0.950 . S
H1874 C1870 0.950 . S
C1875 C1873 1.390 . S
C1875 C1876 1.387 . S
C1875 H1878 0.950 . S
C1876 C1875 1.387 . S
C1876 C1879 1.387 . S
H1877 C1873 0.950 . S
H1878 C1875 0.950 . S
C1879 C1870 1.390 . S
C1879 H1872 0.950 . S
C1879 C1876 1.387 . S
C1880 C1881 1.387 . S
C1880 H1884 0.950 . S
C1880 C1889 1.390 . S
C1881 C1880 1.387 . S
C1881 C1883 1.387 . S
H1882 C1889 0.950 . S
C1883 C1881 1.387 . S
C1883 C1885 1.390 . S
C1883 H1887 0.950 . S
H1884 C1880 0.950 . S
C1885 C1883 1.390 . S
C1885 C1886 1.387 . S
C1885 H1888 0.950 . S
C1886 C1885 1.387 . S
C1886 C1889 1.387 . S
H1887 C1883 0.950 . S
H1888 C1885 0.950 . S
C1889 C1880 1.390 . S
C1889 H1882 0.950 . S
C1889 C1886 1.387 . S
C1890 C1891 1.387 . S
C1890 H1894 0.950 . S
C1890 C1899 1.390 . S
C1891 C1890 1.387 . S
C1891 C1893 1.387 . S
H1892 C1899 0.950 . S
C1893 C1891 1.387 . S
C1893 C1895 1.390 . S
C1893 H1897 0.950 . S
H1894 C1890 0.950 . S
C1895 C1893 1.390 . S
C1895 C1896 1.387 . S
C1895 H1898 0.950 1_556 S
C1896 C1895 1.387 . S
C1896 C1899 1.387 . S
H1897 C1893 0.950 . S
H1898 C1895 0.950 1_554 S
C1899 C1890 1.390 . S
C1899 H1892 0.950 . S
C1899 C1896 1.387 . S
C1900 C1901 1.387 . S
C1900 H1904 0.950 . S
C1900 C1909 1.390 . S
C1901 C1900 1.387 . S
C1901 C1903 1.387 . S
H1902 C1909 0.950 . S
C1903 C1901 1.387 . S
C1903 C1905 1.390 . S
C1903 H1907 0.950 . S
H1904 C1900 0.950 . S
C1905 C1903 1.390 . S
C1905 C1906 1.387 . S
C1905 H1908 0.950 . S
C1906 C1905 1.387 . S
C1906 C1909 1.387 . S
H1907 C1903 0.950 . S
H1908 C1905 0.950 . S
C1909 C1900 1.390 . S
C1909 H1902 0.950 . S
C1909 C1906 1.387 . S
C1910 C1911 1.387 . S
C1910 H1914 0.950 . S
C1910 C1919 1.390 . S
C1911 C1910 1.387 . S
C1911 C1913 1.387 . S
H1912 C1919 0.950 . S
C1913 C1911 1.387 . S
C1913 C1915 1.390 . S
C1913 H1917 0.950 . S
H1914 C1910 0.950 . S
C1915 C1913 1.390 . S
C1915 C1916 1.387 . S
C1915 H1918 0.950 . S
C1916 C1915 1.387 . S
C1916 C1919 1.387 . S
H1917 C1913 0.950 . S
H1918 C1915 0.950 . S
C1919 C1910 1.390 . S
C1919 H1912 0.950 . S
C1919 C1916 1.387 . S
C961 C27 1.495 . S
C966 C837 1.451 . S
C971 C57 0.594 . S
C976 N246 0.595 . S
C981 C87 0.588 . S
C986 N756 0.599 . S
C991 N306 0.804 . S
C996 N96 0.908 . S
C1001 C147 1.495 . S
C1006 C897 1.454 . S
C1011 N426 0.813 . S
C1016 N156 0.915 . S
C1021 N936 0.599 . S
C1026 C207 0.589 . S
C1031 C237 0.590 . S
C1036 N366 0.589 . S
C1041 C256 1.495 . S
C1046 C586 1.451 . S
C1051 C286 0.587 . S
C1056 N14 0.586 . S
C1061 N524 0.604 . S
C1066 C316 0.592 . S
C1071 N74 0.811 . S
C1076 N344 0.914 . S
C1081 C376 1.495 . S
C1086 C646 1.453 . S
C1091 N404 0.907 . S
C1096 N194 0.803 . S
C1101 C436 0.591 . S
C1106 N704 0.601 . S
C1111 N134 0.595 . S
C1116 C466 0.593 . S
C1121 C357 1.453 . S
C1126 C507 1.495 . S
C1131 N726 0.587 . S
C1136 C537 0.589 . S
C1141 N276 0.600 . S
C1146 C567 0.588 . S
C1151 N576 0.913 1_455 S
C1156 N786 0.806 . S
C1161 C417 1.452 . S
C1166 C627 1.494 . S
C1171 N906 0.805 . S
C1176 N636 0.915 1_455 S
C1181 N456 0.602 . S
C1186 C687 0.591 . S
C1191 C717 0.591 . S
C1196 N846 0.589 . S
C1201 C736 1.494 . S
C1206 C106 1.451 . S
C1211 C766 0.594 . S
C1216 N494 0.595 . S
C1221 C796 0.592 . S
C1226 N44 0.604 . S
C1231 N824 0.913 1_655 S
C1236 N554 0.806 . S
C1241 C166 1.453 . S
C1246 C856 1.495 . S
C1251 N674 0.796 . S
C1256 N884 0.906 . S
C1261 C916 0.592 . S
C1266 N224 0.605 . S
C1271 C946 0.589 . S
C1276 N614 0.588 . S
C1281 C1 2.121 . S
C1286 C541 2.071 . S
C1291 C580 1.753 . S
C1296 C31 1.783 . S
C1301 C61 2.072 . S
C1306 C481 2.121 . S
C1311 C100 1.753 . S
C1316 C511 1.783 . S
C1321 C661 2.072 . S
C1326 C121 2.120 . S
C1331 C160 1.753 . S
C1336 C691 1.783 . S
C1341 C601 2.120 . S
C1346 C181 2.072 . S
C1351 C211 1.783 . S
C1356 C640 1.753 . S
C1361 C790 2.072 . S
C1366 C250 2.120 . S
C1371 C280 1.783 . S
C1376 C811 1.755 . S
C1381 C310 2.072 . S
C1386 C730 2.120 . S
C1391 C331 1.755 . S
C1396 C760 1.783 . S
C1401 C910 2.072 . S
C1406 C370 2.120 . S
C1411 C940 1.783 . S
C1416 C391 1.755 . S
C1421 C430 2.072 . S
C1426 C850 2.121 . S
C1431 C460 1.783 . S
C1436 C871 1.753 . S
C1441 N6 1.087 . S
C1446 N734 1.087 . S
C1451 N284 1.400 1_565 S
C1456 N36 1.400 1_545 S
C1461 N66 0.789 . S
C1466 N794 0.789 . S
C1471 C117 2.606 . S
C1476 C346 2.606 . S
C1481 N854 1.090 . S
C1486 N126 1.090 . S
C1491 C406 2.605 . S
C1496 C177 2.605 . S
C1501 N186 0.795 . S
C1506 N914 0.795 . S
C1511 N216 1.402 1_565 S
C1516 N464 1.402 1_545 S
C1521 N486 1.087 . S
C1526 N254 1.087 . S
C1531 N546 0.794 . S
C1536 N314 0.794 . S
C1541 N606 1.091 . S
C1546 N374 1.091 . S
C1551 N434 0.795 . S
C1556 N666 0.795 . S
C1561 N516 1.399 . S
C1566 N764 1.399 . S
C1571 C597 2.606 . S
C1576 C826 2.606 . S
C1581 C886 2.605 . S
C1586 C657 2.605 . S
C1591 N944 1.400 . S
C1596 N696 1.400 . S
C1601 C10 3.317 . S
C1606 C151 3.276 1_545 S
C1611 C190 2.645 . S
C1616 C40 2.672 . S
C1621 C220 2.671 . S
C1626 C70 2.645 . S
C1631 C130 3.317 . S
C1636 C91 3.275 1_565 S
C1641 C241 3.317 . S
C1646 C400 3.276 1_565 S
C1651 C271 2.671 . S
C1656 C421 2.644 . S
C1661 C451 2.671 . S
C1666 C301 2.645 . S
C1671 C340 3.276 1_545 S
C1676 C361 3.318 . S
C1681 C490 3.317 . S
C1686 C631 3.276 . S
C1691 C520 2.671 . S
C1696 C670 2.645 . S
C1701 C550 2.645 . S
C1706 C700 2.671 . S
C1711 C610 3.317 . S
C1716 C571 3.275 . S
C1721 C721 3.317 . S
C1726 C880 3.275 . S
C1731 C751 2.672 . S
C1736 C901 2.645 . S
C1741 C931 2.672 . S
C1746 C781 2.645 . S
C1751 C820 3.275 . S
C1756 C841 3.317 . S
C1761 C16 2.339 . S
C1766 C136 2.339 . S
C1771 C46 1.378 . S
C1776 N164 1.358 . S
C1781 C196 1.821 . S
C1786 C76 1.821 . S
C1791 C226 1.378 . S
C1796 N104 1.358 1_556 S
C1801 C267 2.340 . S
C1806 C387 2.340 . S
C1811 N396 1.357 . S
C1816 C297 1.378 . S
C1821 C447 1.820 . S
C1826 C327 1.820 . S
C1831 C477 1.377 . S
C1836 N336 1.356 1_554 S
C1841 C496 2.339 . S
C1846 C616 2.339 . S
C1851 N644 1.357 1_554 S
C1856 C526 1.377 . S
C1861 C556 1.820 . S
C1866 C676 1.820 . S
C1871 C706 1.378 . S
C1876 N584 1.358 . S
C1881 C867 2.339 . S
C1886 C747 2.339 . S
C1891 C777 1.378 . S
C1896 N876 1.358 1_556 S
C1901 C807 1.820 . S
C1906 C927 1.820 . S
C1911 N816 1.358 . S
C1916 C957 1.378 . S
