# Generated by pormake.
# Topology qtz-x, (6)-cn, num edge types: 1
# Building blocks:
#     Node 0, Type 0, BuildingBlock: BETGAK_clean_sbu_0, # of connection points: 6
#     Node 1, Type 0, BuildingBlock: BETGAK_clean_sbu_0, # of connection points: 6
#     Node 2, Type 0, BuildingBlock: BETGAK_clean_sbu_0, # of connection points: 6
#     Edge 3, Type (0, 0), BuildingBlock: CIFDUS_clean_linker_0, # of connection points: 2
#     Edge 4, Type (0, 0), BuildingBlock: CIFDUS_clean_linker_0, # of connection points: 2
#     Edge 5, Type (0, 0), BuildingBlock: CIFDUS_clean_linker_0, # of connection points: 2
#     Edge 6, Type (0, 0), BuildingBlock: CIFDUS_clean_linker_0, # of connection points: 2
#     Edge 7, Type (0, 0), BuildingBlock: CIFDUS_clean_linker_0, # of connection points: 2
#     Edge 8, Type (0, 0), BuildingBlock: CIFDUS_clean_linker_0, # of connection points: 2
#     Edge 9, Type (0, 0), BuildingBlock: CIFDUS_clean_linker_0, # of connection points: 2
#     Edge 10, Type (0, 0), BuildingBlock: CIFDUS_clean_linker_0, # of connection points: 2
#     Edge 11, Type (0, 0), BuildingBlock: CIFDUS_clean_linker_0, # of connection points: 2
# Relax obj value: 0.283
# Max RMSD: 0.284
# Mean RMSD: 0.256
data_MOF--net-qtz-x--node1-BETGAK_clean_sbu_0--edge1-CIFDUS_clean_linker_0
_symmetry_space_group_name_H-M    P1
_symmetry_Int_Tables_number       1
_symmetry_cell_setting            triclinic
loop_
_symmetry_equiv_pos_as_xyz
'x, y, z'
_cell_length_a     12.898048
_cell_length_b     12.796504
_cell_length_c     47.496784
_cell_angle_alpha  65.132858
_cell_angle_beta   116.65801
_cell_angle_gamma 121.60774
loop_
_atom_site_label
_atom_site_type_symbol
_atom_site_fract_x
_atom_site_fract_y
_atom_site_fract_z
_atom_type_partial_charge
La0 La 1.06917 0.64533 0.20947 0.0
La1 La 0.34208 0.81297 0.20095 0.0
C2 C 0.88953 0.46139 0.23159 0.0
C3 C 0.86958 0.40105 0.26417 0.0
C4 C 0.74643 0.34434 0.26699 0.0
C5 C 0.72634 0.2908 0.29765 0.0
C6 C 0.82989 0.29558 0.32607 0.0
C7 C 0.95303 0.35104 0.32324 0.0
C8 C 0.97239 0.40141 0.29263 0.0
C9 C 0.14581 0.89303 0.19747 0.0
C10 C 0.32035 0.70925 0.2718 0.0
C11 C 0.5323 0.00105 0.18559 0.0
C12 C 0.59108 0.03587 0.16057 0.0
C13 C 0.67188 -0.01751 0.16588 0.0
C14 C 0.71074 0.0002 0.14046 0.0
C15 C 0.66963 0.07157 0.10932 0.0
C16 C 0.59603 0.13174 0.10455 0.0
C17 C 0.55776 0.11468 0.12997 0.0
C18 C 0.26413 0.57254 0.20123 0.0
C19 C 1.09809 0.74357 0.13924 0.0
O20 O 0.89541 0.5764 0.21838 0.0
O21 O 0.97691 0.44968 0.22768 0.0
O22 O 1.02771 0.81332 0.18861 0.0
O23 O 0.21401 0.83109 0.21413 0.0
O24 O 0.19496 0.64896 0.25985 0.0
O25 O 0.39615 0.7838 0.25305 0.0
O26 O 0.54029 0.90289 0.20984 0.0
O27 O 0.41839 7e-05 0.17454 0.0
O28 O 0.37517 0.66187 0.19926 0.0
O29 O 0.20807 0.62335 0.20356 0.0
O30 O 0.21727 0.82132 0.15101 0.0
O31 O 1.02235 0.65773 0.15785 0.0
H32 H 0.66609 0.34263 0.24542 0.0
H33 H 0.63047 0.24882 0.29916 0.0
H34 H 1.03437 0.35486 0.34477 0.0
H35 H 1.0679 0.44087 0.29133 0.0
H36 H 0.7009 0.92263 0.18928 0.0
H37 H 0.76723 0.95249 0.14477 0.0
H38 H 0.56471 0.18889 0.08086 0.0
H39 H 0.49742 0.15889 0.12523 0.0
La40 La 0.94474 0.18249 0.57745 0.0
La41 La 0.81212 0.92176 0.5748 0.0
C42 C 1.03378 0.39326 0.58908 0.0
C43 C 1.05251 0.43302 0.61643 0.0
C44 C 0.17434 0.51594 0.63081 0.0
C45 C 0.19934 0.54277 0.65933 0.0
C46 C 1.10217 0.48857 0.67374 0.0
C47 C 0.97862 0.40946 0.65844 0.0
C48 C 0.9542 0.38098 0.63018 0.0
C49 C 1.08903 0.0954 0.57584 0.0
C50 C 0.91113 0.96815 0.64254 0.0
C51 C 0.72819 0.72146 0.55846 0.0
C52 C 0.65451 0.69355 0.52605 0.0
C53 C 0.55736 0.73551 0.50542 0.0
C54 C 0.49611 0.72029 0.47365 0.0
C55 C 0.53168 0.66444 0.46158 0.0
C56 C 0.62807 0.62138 0.48231 0.0
C57 C 0.68854 0.63537 0.5143 0.0
C58 C 0.6645 0.00646 0.57556 0.0
C59 C 0.84113 0.14355 0.50897 0.0
O60 O 1.10313 0.33513 0.59561 0.0
O61 O 0.91622 0.33796 0.57198 0.0
O62 O 1.09004 0.20647 0.5606 0.0
O63 O 1.01051 0.03678 0.5922 0.0
O64 O 0.91622 0.08247 0.62574 0.0
O65 O 0.89177 0.8887 0.62786 0.0
O66 O 0.67076 0.73812 0.57192 0.0
O67 O 0.84514 0.8074 0.56115 0.0
O68 O 0.65977 0.89349 0.58967 0.0
O69 O 0.74571 0.06667 0.55989 0.0
O70 O 0.81166 0.02219 0.5237 0.0
O71 O 0.88357 0.22652 0.52524 0.0
H72 H 0.25152 0.55636 0.62062 0.0
H73 H 0.296 0.60254 0.67061 0.0
H74 H 0.90093 0.36808 0.66848 0.0
H75 H 0.8593 0.31605 0.61961 0.0
H76 H 0.53072 0.78316 0.51352 0.0
H77 H 0.42368 0.75615 0.45816 0.0
H78 H 0.65708 0.57745 0.47371 0.0
H79 H 0.76395 0.60343 0.52962 0.0
La80 La 0.89369 0.90272 0.87943 0.0
La81 La 1.0703 0.7935 0.89996 0.0
C82 C 0.72192 0.95368 0.87482 0.0
C83 C 0.69381 -0.02909 0.89918 0.0
C84 C 0.75386 0.08987 0.90612 0.0
C85 C 0.73635 0.10358 0.93114 0.0
C86 C 0.65653 -0.00068 0.94915 0.0
C87 C 0.593 0.88158 0.94163 0.0
C88 C 0.61239 0.86722 0.91705 0.0
C89 C 0.12537 0.07333 0.87622 0.0
C90 C 1.03439 0.82444 0.95561 0.0
C91 C 0.2473 0.74613 0.90654 0.0
C92 C 0.28792 0.74411 0.88253 0.0
C93 C 0.3015 0.63697 0.88622 0.0
C94 C 0.31617 0.62308 0.86079 0.0
C95 C 0.31593 0.71568 0.83121 0.0
C96 C 0.31111 0.8268 0.82845 0.0
C97 C 0.29724 0.84096 0.85389 0.0
C98 C 0.83841 0.62374 0.90332 0.0
C99 C 0.93116 0.87135 0.82383 0.0
O100 O 0.82783 0.03904 0.86787 0.0
O101 O 0.70506 0.83936 0.87818 0.0
O102 O 1.02064 0.07964 0.85498 0.0
O103 O 1.09867 -0.02489 0.89895 0.0
O104 O 0.93659 0.84912 0.93314 0.0
O105 O 0.11295 0.81444 0.9473 0.0
O106 O 0.13466 0.65899 0.90876 0.0
O107 O 0.26365 0.85671 0.90603 0.0
O108 O 0.94318 0.61764 0.9247 0.0
O109 O 0.86519 0.72122 0.88044 0.0
O110 O 1.02872 0.8469 0.8465 0.0
O111 O 0.85156 0.8819 0.83176 0.0
H112 H 0.81664 0.17197 0.89272 0.0
H113 H 0.78505 0.19551 0.93644 0.0
H114 H 0.53092 0.80006 0.95533 0.0
H115 H 0.56578 0.77436 0.9125 0.0
H116 H 0.29497 0.56154 0.90819 0.0
H117 H 0.32158 0.5373 0.86371 0.0
H118 H 0.30905 0.89904 0.80585 0.0
H119 H 0.28646 0.92449 0.85034 0.0
H120 H 0.99434 0.00879 0.1848 0.0
H121 H 0.38736 0.0732 0.21343 0.0
H122 H 0.4558 0.28741 0.21605 0.0
H123 H 0.40723 0.45569 0.21199 0.0
H124 H 1.01675 0.39165 0.18659 0.0
H125 H 0.94487 0.17824 0.18192 0.0
C126 C 1.09508 0.06992 0.19152 0.0
C127 C 0.18556 0.02489 0.19832 0.0
C128 C 0.13464 0.19253 0.19431 0.0
C129 C 0.31554 0.10516 0.20753 0.0
C130 C 0.35503 0.22761 0.20939 0.0
C131 C 0.30621 0.39483 0.20559 0.0
C132 C 0.21763 0.43958 0.20004 0.0
C133 C 0.26589 0.27213 0.2031 0.0
C134 C 1.0872 0.35921 0.19167 0.0
C135 C 1.04609 0.2373 0.1887 0.0
H136 H 0.47199 0.86796 0.6036 0.0
H137 H 0.63722 0.2299 0.54098 0.0
H138 H 0.47438 0.28806 0.53555 0.0
H139 H 0.28276 0.23505 0.54811 0.0
H140 H 0.11851 0.8735 0.61101 0.0
H141 H 0.28203 0.81599 0.61662 0.0
C142 C 0.47259 0.95974 0.58874 0.0
C143 C 0.56722 0.04433 0.5726 0.0
C144 C 0.37799 -0.00775 0.58567 0.0
C145 C 0.56609 0.16285 0.5536 0.0
C146 C 0.47256 0.19598 0.55047 0.0
C147 C 0.28249 0.14346 0.56306 0.0
C148 C 0.1876 0.05861 0.57911 0.0
C149 C 0.37762 0.1113 0.56628 0.0
C150 C 0.18957 0.9406 0.59837 0.0
C151 C 0.28342 0.90776 0.60159 0.0
H152 H 0.34442 0.12552 0.92757 0.0
H153 H 0.19221 0.26493 0.82501 0.0
H154 H 0.39547 0.44912 0.82388 0.0
H155 H 0.61807 0.57388 0.85217 0.0
H156 H 0.77177 0.43214 0.9546 0.0
H157 H 0.56775 0.25067 0.95586 0.0
C158 C 0.35638 0.19568 0.90498 0.0
C159 C 0.25303 0.18089 0.87638 0.0
C160 C 0.47404 0.30278 0.90454 0.0
C161 C 0.26979 0.27397 0.84738 0.0
C162 C 0.3862 0.37968 0.84671 0.0
C163 C 0.60665 0.50305 0.87473 0.0
C164 C 0.71053 0.51692 0.90325 0.0
C165 C 0.48906 0.39588 0.87516 0.0
C166 C 0.69388 0.42383 0.93224 0.0
C167 C 0.57705 0.31902 0.93296 0.0
H168 H 0.83832 0.0637 1.00432 0.0
H169 H 0.4387 0.96468 0.95381 0.0
H170 H 0.41087 -0.00843 0.99764 0.0
H171 H 0.49615 0.02731 1.05185 0.0
H172 H 0.89325 0.11404 0.10451 0.0
H173 H 0.92554 0.10274 0.05894 0.0
C174 C 0.74528 0.04764 1.00316 0.0
C175 C 0.64046 0.01299 0.97603 0.0
C176 C 0.72907 0.05788 1.02908 0.0
C177 C 0.51992 -0.00942 0.97467 0.0
C178 C 0.50392 0.00496 0.99977 0.0
C179 C 0.59027 0.0459 1.05312 0.0
C180 C 0.69253 0.07287 0.08126 0.0
C181 C 0.60733 0.03697 1.02723 0.0
C182 C 0.81322 0.09325 0.08301 0.0
C183 C 0.83163 0.08684 1.05701 0.0
H184 H 0.7164 0.00926 0.46217 0.0
H185 H 0.9671 0.38425 0.47818 0.0
H186 H 0.9861 0.4628 0.42361 0.0
H187 H 0.93805 0.4256 0.37164 0.0
H188 H 0.67855 0.05658 0.35322 0.0
H189 H 0.65574 -0.02455 0.40805 0.0
C190 C 0.77409 0.10834 0.45357 0.0
C191 C 0.84015 0.19044 0.47442 0.0
C192 C 0.78353 0.15408 0.42167 0.0
C193 C 0.91426 0.31875 0.46275 0.0
C194 C 0.92591 0.364 0.4315 0.0
C195 C 0.87644 0.32747 0.37969 0.0
C196 C 0.81105 0.24686 0.35865 0.0
C197 C 0.86208 0.28252 0.41087 0.0
C198 C 0.72991 0.12031 0.36908 0.0
C199 C 0.71714 0.07396 0.40042 0.0
H200 H 1.00771 0.78145 0.79613 0.0
H201 H 0.81991 0.01777 0.77229 0.0
H202 H 0.79994 0.06903 0.71501 0.0
H203 H 0.83631 0.04953 0.67138 0.0
H204 H 1.00827 0.80209 0.69305 0.0
H205 H 1.03336 0.75205 0.75111 0.0
C206 C 0.96181 0.84359 0.77835 0.0
C207 C 0.91517 0.89546 0.78873 0.0
C208 C 0.94756 0.87058 0.74494 0.0
C209 C 0.8556 -0.02459 0.76519 0.0
C210 C 0.84448 0.00526 0.73233 0.0
C211 C 0.87901 -0.01578 0.68876 0.0
C212 C 0.92091 0.93021 0.67775 0.0
C213 C 0.89008 0.95369 0.72189 0.0
C214 C 0.97462 0.84467 0.7007 0.0
C215 C 0.9893 0.81639 0.73397 0.0
H216 H 0.88197 0.80505 0.986 0.0
H217 H 0.23903 0.79735 1.00536 0.0
H218 H 0.28885 0.77485 0.06266 0.0
H219 H 0.23407 0.757 0.10782 0.0
H220 H 0.8715 0.74292 0.09193 0.0
H221 H 0.8196 0.77154 1.0332 0.0
C222 C 0.97065 0.7986 1.00277 0.0
C223 C 1.05838 0.80707 0.99086 0.0
C224 C 0.99708 0.77998 1.03652 0.0
C225 C 0.17135 0.79548 1.01329 0.0
C226 C 0.19964 0.78113 1.04632 0.0
C227 C 0.14317 0.75946 0.09153 0.0
C228 C 1.05696 0.74832 0.10417 0.0
C229 C 0.11369 0.77352 0.0582 0.0
C230 C 0.93909 0.75033 0.08282 0.0
C231 C 0.90994 0.76744 1.04923 0.0
H232 H 0.19897 0.62494 0.3169 0.0
H233 H 0.57179 0.77764 0.3066 0.0
H234 H 0.66897 0.77294 0.36431 0.0
H235 H 0.64956 0.73064 0.41764 0.0
H236 H 0.27797 0.58148 0.428 0.0
H237 H 0.179 0.57809 0.37056 0.0
C238 C 0.30122 0.65532 0.32732 0.0
C239 C 0.3775 0.70064 0.30731 0.0
C240 C 0.35698 0.65313 0.36064 0.0
C241 C 0.51038 0.74233 0.32128 0.0
C242 C 0.56629 0.73955 0.35437 0.0
C243 C 0.54679 0.6958 0.4074 0.0
C244 C 0.47129 0.65595 0.4271 0.0
C245 C 0.49069 0.69568 0.37426 0.0
C246 C 0.33833 0.61335 0.41332 0.0
C247 C 0.28166 0.61121 0.38049 0.0
H248 H 0.16278 0.49721 0.81203 0.0
H249 H 0.43552 0.87769 0.78428 0.0
H250 H 0.38987 0.84206 0.73244 0.0
H251 H 0.26541 0.70598 0.69437 0.0
H252 H 1.00464 0.32006 0.72422 0.0
H253 H 1.05057 0.35624 0.77573 0.0
C254 C 0.21456 0.57147 0.79499 0.0
C255 C 0.30268 0.68974 0.80198 0.0
C256 C 0.18822 0.55026 0.76544 0.0
C257 C 0.36677 0.78597 0.77933 0.0
C258 C 0.34063 0.76573 0.74973 0.0
C259 C 0.22021 0.62888 0.71232 0.0
C260 C 0.1309 0.51081 0.70519 0.0
C261 C 0.25034 0.64871 0.7424 0.0
C262 C 1.07149 0.41295 0.72861 0.0
C263 C 1.09896 0.43288 0.75832 0.0
loop_
_geom_bond_atom_site_label_1
_geom_bond_atom_site_label_2
_geom_bond_distance
_geom_bond_site_symmetry_2
_ccdc_geom_bond_type
La0 C2 2.928 . S
La0 O20 2.521 . S
La0 O21 2.628 . S
La0 O22 2.554 . S
La0 O23 2.757 1_655 S
La0 O24 2.470 1_655 S
La0 O29 2.482 . S
La0 O31 2.503 . S
La1 C11 2.928 . S
La1 O23 2.482 . S
La1 O25 2.503 . S
La1 O26 2.521 . S
La1 O27 2.628 . S
La1 O28 2.554 . S
La1 O29 2.757 1_455 S
La1 O30 2.470 1_455 S
C2 La0 2.928 . S
C2 C3 1.503 . S
C2 O20 1.261 . S
C2 O21 1.243 . S
C3 C2 1.503 . S
C3 C4 1.394 . S
C3 C8 1.373 . S
C4 C3 1.394 . S
C4 C5 1.380 . S
C4 H32 0.930 . S
C5 C4 1.380 . S
C5 C6 1.376 . S
C5 H33 0.930 . S
C6 C5 1.376 . S
C6 C7 1.370 . S
C7 C6 1.370 . S
C7 C8 1.396 . S
C7 H34 0.929 . S
C8 C3 1.373 . S
C8 C7 1.396 . S
C8 H35 0.929 . S
C9 O22 1.240 . S
C9 O23 1.289 1_655 S
C10 O24 1.258 . S
C10 O25 1.256 . S
C11 La1 2.928 . S
C11 C12 1.503 . S
C11 O26 1.261 . S
C11 O27 1.243 . S
C12 C11 1.503 . S
C12 C13 1.394 . S
C12 C17 1.373 1_565 S
C13 C12 1.394 . S
C13 C14 1.380 . S
C13 H36 0.930 . S
C14 C13 1.380 . S
C14 C15 1.376 1_565 S
C14 H37 0.930 . S
C15 C14 1.376 1_545 S
C15 C16 1.370 . S
C16 C15 1.370 . S
C16 C17 1.396 . S
C16 H38 0.929 . S
C17 C12 1.373 1_545 S
C17 C16 1.396 . S
C17 H39 0.929 . S
C18 O28 1.240 . S
C18 O29 1.289 1_455 S
C19 O30 1.258 . S
C19 O31 1.256 . S
O20 La0 2.521 . S
O20 C2 1.261 . S
O21 La0 2.628 . S
O21 C2 1.243 . S
O22 La0 2.554 . S
O22 C9 1.240 . S
O23 La0 2.757 1_455 S
O23 La1 2.482 . S
O23 C9 1.289 1_455 S
O24 La0 2.470 1_455 S
O24 C10 1.258 . S
O25 La1 2.503 . S
O25 C10 1.256 . S
O26 La1 2.521 . S
O26 C11 1.261 . S
O27 La1 2.628 . S
O27 C11 1.243 . S
O28 La1 2.554 . S
O28 C18 1.240 . S
O29 La0 2.482 . S
O29 La1 2.757 1_655 S
O29 C18 1.289 1_655 S
O30 La1 2.470 1_655 S
O30 C19 1.258 . S
O31 La0 2.503 . S
O31 C19 1.256 . S
H32 C4 0.930 . S
H33 C5 0.930 . S
H34 C7 0.929 . S
H35 C8 0.929 . S
H36 C13 0.930 . S
H37 C14 0.930 . S
H38 C16 0.929 . S
H39 C17 0.929 . S
La40 C42 2.928 . S
La40 O60 2.521 1_655 S
La40 O61 2.628 . S
La40 O62 2.554 1_655 S
La40 O63 2.757 1_545 S
La40 O64 2.470 1_545 S
La40 O69 2.482 . S
La40 O71 2.503 . S
La41 C51 2.928 . S
La41 O63 2.482 . S
La41 O65 2.503 . S
La41 O66 2.521 . S
La41 O67 2.628 . S
La41 O68 2.554 . S
La41 O69 2.757 1_565 S
La41 O70 2.470 1_565 S
C42 La40 2.928 . S
C42 C43 1.503 1_655 S
C42 O60 1.261 1_655 S
C42 O61 1.243 . S
C43 C42 1.503 1_455 S
C43 C44 1.394 . S
C43 C48 1.373 1_455 S
C44 C43 1.394 . S
C44 C45 1.380 . S
C44 H72 0.930 . S
C45 C44 1.380 . S
C45 C46 1.376 . S
C45 H73 0.930 . S
C46 C45 1.376 . S
C46 C47 1.370 1_455 S
C47 C46 1.370 1_655 S
C47 C48 1.396 . S
C47 H74 0.929 . S
C48 C43 1.373 1_655 S
C48 C47 1.396 . S
C48 H75 0.929 . S
C49 O62 1.240 . S
C49 O63 1.289 1_445 S
C50 O64 1.258 . S
C50 O65 1.256 . S
C51 La41 2.928 . S
C51 C52 1.503 . S
C51 O66 1.261 . S
C51 O67 1.243 . S
C52 C51 1.503 . S
C52 C53 1.394 . S
C52 C57 1.373 . S
C53 C52 1.394 . S
C53 C54 1.380 . S
C53 H76 0.930 . S
C54 C53 1.380 . S
C54 C55 1.376 . S
C54 H77 0.930 . S
C55 C54 1.376 . S
C55 C56 1.370 . S
C56 C55 1.370 . S
C56 C57 1.396 . S
C56 H78 0.929 . S
C57 C52 1.373 . S
C57 C56 1.396 . S
C57 H79 0.929 . S
C58 O68 1.240 . S
C58 O69 1.289 1_565 S
C59 O70 1.258 . S
C59 O71 1.256 . S
O60 La40 2.521 1_455 S
O60 C42 1.261 1_455 S
O61 La40 2.628 . S
O61 C42 1.243 . S
O62 La40 2.554 1_455 S
O62 C49 1.240 . S
O63 La40 2.757 1_565 S
O63 La41 2.482 . S
O63 C49 1.289 1_665 S
O64 La40 2.470 1_565 S
O64 C50 1.258 . S
O65 La41 2.503 . S
O65 C50 1.256 . S
O66 La41 2.521 . S
O66 C51 1.261 . S
O67 La41 2.628 . S
O67 C51 1.243 . S
O68 La41 2.554 . S
O68 C58 1.240 . S
O69 La40 2.482 . S
O69 La41 2.757 1_545 S
O69 C58 1.289 1_545 S
O70 La41 2.470 1_545 S
O70 C59 1.258 . S
O71 La40 2.503 . S
O71 C59 1.256 . S
H72 C44 0.930 . S
H73 C45 0.930 . S
H74 C47 0.929 . S
H75 C48 0.929 . S
H76 C53 0.930 . S
H77 C54 0.930 . S
H78 C56 0.929 . S
H79 C57 0.929 . S
La80 C82 2.928 . S
La80 O100 2.521 . S
La80 O101 2.628 . S
La80 O102 2.554 1_655 S
La80 O103 2.757 1_655 S
La80 O104 2.466 1_655 S
La80 O109 2.482 1_545 S
La80 O111 2.503 . S
La81 C91 2.928 . S
La81 O103 2.482 1_565 S
La81 O105 2.503 . S
La81 O106 2.521 . S
La81 O107 2.628 . S
La81 O108 2.554 1_455 S
La81 O109 2.757 1_455 S
La81 O110 2.470 1_455 S
C82 La80 2.928 . S
C82 C83 1.503 . S
C82 O100 1.261 . S
C82 O101 1.243 . S
C83 C82 1.503 . S
C83 C84 1.394 . S
C83 C88 1.373 . S
C84 C83 1.394 . S
C84 C85 1.380 . S
C84 H112 0.930 . S
C85 C84 1.380 . S
C85 C86 1.376 . S
C85 H113 0.930 . S
C86 C85 1.376 . S
C86 C87 1.370 . S
C87 C86 1.370 . S
C87 C88 1.396 . S
C87 H114 0.929 . S
C88 C83 1.373 . S
C88 C87 1.396 . S
C88 H115 0.929 1_545 S
C89 O102 1.240 . S
C89 O103 1.289 . S
C90 O104 1.262 1_565 S
C90 O105 1.256 . S
C91 La81 2.928 . S
C91 C92 1.503 . S
C91 O106 1.261 . S
C91 O107 1.243 . S
C92 C91 1.503 . S
C92 C93 1.394 . S
C92 C97 1.373 . S
C93 C92 1.394 . S
C93 C94 1.380 . S
C93 H116 0.930 . S
C94 C93 1.380 . S
C94 C95 1.376 . S
C94 H117 0.930 . S
C95 C94 1.376 . S
C95 C96 1.370 . S
C96 C95 1.370 . S
C96 C97 1.396 . S
C96 H118 0.929 . S
C97 C92 1.373 . S
C97 C96 1.396 . S
C97 H119 0.929 . S
C98 O108 1.240 . S
C98 O109 1.289 . S
C99 O110 1.258 1_545 S
C99 O111 1.256 . S
O100 La80 2.521 . S
O100 C82 1.261 . S
O101 La80 2.628 . S
O101 C82 1.243 . S
O102 La80 2.554 1_455 S
O102 C89 1.240 . S
O103 La80 2.757 1_455 S
O103 La81 2.482 1_545 S
O103 C89 1.289 . S
O104 La80 2.466 1_455 S
O104 C90 1.262 1_545 S
O105 La81 2.503 . S
O105 C90 1.256 . S
O106 La81 2.521 . S
O106 C91 1.261 . S
O107 La81 2.628 . S
O107 C91 1.243 . S
O108 La81 2.554 1_655 S
O108 C98 1.240 . S
O109 La80 2.482 1_565 S
O109 La81 2.757 1_655 S
O109 C98 1.289 . S
O110 La81 2.470 1_655 S
O110 C99 1.258 1_565 S
O111 La80 2.503 . S
O111 C99 1.256 . S
H112 C84 0.930 . S
H113 C85 0.930 . S
H114 C87 0.929 . S
H115 C88 0.929 1_565 S
H116 C93 0.930 . S
H117 C94 0.930 . S
H118 C96 0.929 . S
H119 C97 0.929 . S
H120 C126 0.930 1_565 S
H121 C129 0.930 . S
H122 C130 0.930 . S
H123 C131 0.930 . S
H124 C134 0.930 . S
H125 C135 0.930 . S
C126 H120 0.930 1_545 S
C126 C127 1.355 1_655 S
C126 C128 1.415 . S
C127 C126 1.355 1_455 S
C127 C129 1.419 . S
C128 C126 1.415 . S
C128 C133 1.425 1_655 S
C128 C135 1.409 . S
C129 H121 0.930 . S
C129 C127 1.419 . S
C129 C130 1.362 . S
C130 H122 0.930 . S
C130 C129 1.362 . S
C130 C133 1.409 . S
C131 H123 0.930 . S
C131 C132 1.355 1_455 S
C131 C133 1.415 . S
C132 C131 1.355 1_655 S
C132 C134 1.419 . S
C133 C128 1.425 1_455 S
C133 C130 1.409 . S
C133 C131 1.415 . S
C134 H124 0.930 . S
C134 C132 1.419 . S
C134 C135 1.362 . S
C135 H125 0.930 . S
C135 C128 1.409 . S
C135 C134 1.362 . S
H136 C142 0.930 . S
H137 C145 0.930 . S
H138 C146 0.930 . S
H139 C147 0.930 . S
H140 C150 0.930 . S
H141 C151 0.930 . S
C142 H136 0.930 . S
C142 C143 1.355 1_545 S
C142 C144 1.415 . S
C143 C142 1.355 1_565 S
C143 C145 1.419 . S
C144 C142 1.415 . S
C144 C149 1.425 1_545 S
C144 C151 1.409 . S
C145 H137 0.930 . S
C145 C143 1.419 . S
C145 C146 1.362 . S
C146 H138 0.930 . S
C146 C145 1.362 . S
C146 C149 1.409 . S
C147 H139 0.930 . S
C147 C148 1.355 1_565 S
C147 C149 1.415 . S
C148 C147 1.355 1_545 S
C148 C150 1.419 . S
C149 C144 1.425 1_565 S
C149 C146 1.409 . S
C149 C147 1.415 . S
C150 H140 0.930 . S
C150 C148 1.419 . S
C150 C151 1.362 . S
C151 H141 0.930 . S
C151 C144 1.409 . S
C151 C150 1.362 . S
H152 C158 0.930 . S
H153 C161 0.930 . S
H154 C162 0.930 . S
H155 C163 0.930 . S
H156 C166 0.930 . S
H157 C167 0.930 . S
C158 H152 0.930 . S
C158 C159 1.355 . S
C158 C160 1.415 . S
C159 C158 1.355 . S
C159 C161 1.419 . S
C160 C158 1.415 . S
C160 C165 1.425 . S
C160 C167 1.409 . S
C161 H153 0.930 . S
C161 C159 1.419 . S
C161 C162 1.362 . S
C162 H154 0.930 . S
C162 C161 1.362 . S
C162 C165 1.409 . S
C163 H155 0.930 . S
C163 C164 1.355 . S
C163 C165 1.415 . S
C164 C163 1.355 . S
C164 C166 1.419 . S
C165 C160 1.425 . S
C165 C162 1.409 . S
C165 C163 1.415 . S
C166 H156 0.930 . S
C166 C164 1.419 . S
C166 C167 1.362 . S
C167 H157 0.930 . S
C167 C160 1.409 . S
C167 C166 1.362 . S
H168 C174 0.930 . S
H169 C177 0.930 . S
H170 C178 0.930 . S
H171 C179 0.930 . S
H172 C182 0.930 . S
H173 C183 0.930 . S
C174 H168 0.930 . S
C174 C175 1.355 . S
C174 C176 1.415 . S
C175 C174 1.355 . S
C175 C177 1.419 . S
C176 C174 1.415 . S
C176 C181 1.425 . S
C176 C183 1.409 1_556 S
C177 H169 0.930 . S
C177 C175 1.419 . S
C177 C178 1.362 . S
C178 H170 0.930 . S
C178 C177 1.362 . S
C178 C181 1.409 . S
C179 H171 0.930 . S
C179 C180 1.381 . S
C179 C181 1.415 . S
C180 C179 1.381 . S
C180 C182 1.414 1_556 S
C181 C176 1.425 . S
C181 C178 1.409 . S
C181 C179 1.415 . S
C182 H172 0.930 . S
C182 C180 1.414 1_554 S
C182 C183 1.362 . S
C183 H173 0.930 . S
C183 C176 1.409 1_554 S
C183 C182 1.362 . S
H184 C190 0.930 . S
H185 C193 0.930 . S
H186 C194 0.930 . S
H187 C195 0.930 . S
H188 C198 0.930 . S
H189 C199 0.930 . S
C190 H184 0.930 . S
C190 C191 1.355 . S
C190 C192 1.415 . S
C191 C190 1.355 . S
C191 C193 1.419 . S
C192 C190 1.415 . S
C192 C197 1.425 . S
C192 C199 1.409 . S
C193 H185 0.930 . S
C193 C191 1.419 . S
C193 C194 1.362 . S
C194 H186 0.930 . S
C194 C193 1.362 . S
C194 C197 1.409 . S
C195 H187 0.930 . S
C195 C196 1.355 . S
C195 C197 1.415 . S
C196 C195 1.355 . S
C196 C198 1.419 . S
C197 C192 1.425 . S
C197 C194 1.409 . S
C197 C195 1.415 . S
C198 H188 0.930 . S
C198 C196 1.419 . S
C198 C199 1.362 . S
C199 H189 0.930 . S
C199 C192 1.409 . S
C199 C198 1.362 . S
H200 C206 0.930 1_455 S
H201 C209 0.930 . S
H202 C210 0.930 . S
H203 C211 0.930 . S
H204 C214 0.930 . S
H205 C215 0.930 1_455 S
C206 H200 0.930 1_655 S
C206 C207 1.355 1_545 S
C206 C208 1.415 . S
C207 C206 1.355 1_565 S
C207 C209 1.421 . S
C208 C206 1.415 . S
C208 C213 1.425 1_545 S
C208 C215 1.409 . S
C209 H201 0.930 . S
C209 C207 1.421 . S
C209 C210 1.362 . S
C210 H202 0.930 . S
C210 C209 1.362 . S
C210 C213 1.409 . S
C211 H203 0.930 . S
C211 C212 1.355 . S
C211 C213 1.415 . S
C212 C211 1.355 . S
C212 C214 1.419 1_565 S
C213 C208 1.425 1_565 S
C213 C210 1.409 . S
C213 C211 1.415 . S
C214 H204 0.930 . S
C214 C212 1.419 1_545 S
C214 C215 1.362 . S
C215 H205 0.930 1_655 S
C215 C208 1.409 . S
C215 C214 1.362 . S
H216 C222 0.930 1_545 S
H217 C225 0.930 . S
H218 C226 0.930 . S
H219 C227 0.930 . S
H220 C230 0.930 1_455 S
H221 C231 0.930 1_545 S
C222 H216 0.930 1_565 S
C222 C223 1.355 1_455 S
C222 C224 1.415 1_455 S
C223 C222 1.355 1_655 S
C223 C225 1.419 . S
C224 C222 1.415 1_655 S
C224 C229 1.425 . S
C224 C231 1.409 1_656 S
C225 H217 0.930 . S
C225 C223 1.419 . S
C225 C226 1.362 . S
C226 H218 0.930 . S
C226 C225 1.362 . S
C226 C229 1.409 . S
C227 H219 0.930 . S
C227 C228 1.355 . S
C227 C229 1.415 1_554 S
C228 C227 1.355 . S
C228 C230 1.419 . S
C229 C224 1.425 . S
C229 C226 1.409 . S
C229 C227 1.415 1_556 S
C230 H220 0.930 1_655 S
C230 C228 1.419 . S
C230 C231 1.362 1_655 S
C231 H221 0.930 1_565 S
C231 C224 1.409 1_454 S
C231 C230 1.362 1_455 S
H232 C238 0.930 . S
H233 C241 0.930 . S
H234 C242 0.930 . S
H235 C243 0.930 . S
H236 C246 0.930 . S
H237 C247 0.930 . S
C238 H232 0.930 . S
C238 C239 1.355 . S
C238 C240 1.415 . S
C239 C238 1.355 . S
C239 C241 1.419 . S
C240 C238 1.415 . S
C240 C245 1.425 . S
C240 C247 1.409 . S
C241 H233 0.930 . S
C241 C239 1.419 . S
C241 C242 1.362 . S
C242 H234 0.930 . S
C242 C241 1.362 . S
C242 C245 1.409 . S
C243 H235 0.930 . S
C243 C244 1.355 . S
C243 C245 1.415 . S
C244 C243 1.355 . S
C244 C246 1.419 . S
C245 C240 1.425 . S
C245 C242 1.409 . S
C245 C243 1.415 . S
C246 H236 0.930 . S
C246 C244 1.419 . S
C246 C247 1.362 . S
C247 H237 0.930 . S
C247 C240 1.409 . S
C247 C246 1.362 . S
H248 C254 0.930 . S
H249 C257 0.930 . S
H250 C258 0.930 . S
H251 C259 0.930 . S
H252 C262 0.930 1_655 S
H253 C263 0.930 1_655 S
C254 H248 0.930 . S
C254 C255 1.355 . S
C254 C256 1.415 . S
C255 C254 1.355 . S
C255 C257 1.419 . S
C256 C254 1.415 . S
C256 C261 1.425 . S
C256 C263 1.409 . S
C257 H249 0.930 . S
C257 C255 1.419 . S
C257 C258 1.362 . S
C258 H250 0.930 . S
C258 C257 1.362 . S
C258 C261 1.409 . S
C259 H251 0.930 . S
C259 C260 1.355 . S
C259 C261 1.415 . S
C260 C259 1.355 . S
C260 C262 1.419 . S
C261 C256 1.425 . S
C261 C258 1.409 . S
C261 C259 1.415 . S
C262 H252 0.930 1_455 S
C262 C260 1.419 . S
C262 C263 1.362 . S
C263 H253 0.930 1_455 S
C263 C256 1.409 . S
C263 C262 1.362 . S
C127 C9 1.746 1_445 S
C132 C18 1.746 1_655 S
C143 C58 1.773 . S
C148 C49 1.773 . S
C159 C89 1.411 . S
C164 C98 1.411 . S
C175 C86 0.976 . S
C180 C15 0.997 1_556 S
C191 C59 2.090 . S
C196 C6 2.025 . S
C207 C99 2.554 1_565 S
C212 C50 2.571 . S
C223 C90 2.525 1_655 S
C228 C19 2.430 . S
C239 C10 1.943 . S
C244 C55 1.806 . S
C255 C95 1.050 . S
C260 C46 1.017 . S
