# Generated by pormake.
# Topology ukj, (4)-cn, num edge types: 1
# Building blocks:
#     Node 0, Type 0, BuildingBlock: NAWXER_clean_sbu_0, # of connection points: 4
#     Node 1, Type 0, BuildingBlock: NAWXER_clean_sbu_0, # of connection points: 4
#     Node 2, Type 0, BuildingBlock: NAWXER_clean_sbu_0, # of connection points: 4
#     Node 3, Type 0, BuildingBlock: NAWXER_clean_sbu_0, # of connection points: 4
#     Node 4, Type 0, BuildingBlock: NAWXER_clean_sbu_0, # of connection points: 4
#     Node 5, Type 0, BuildingBlock: NAWXER_clean_sbu_0, # of connection points: 4
#     Node 6, Type 0, BuildingBlock: NAWXER_clean_sbu_0, # of connection points: 4
#     Node 7, Type 0, BuildingBlock: NAWXER_clean_sbu_0, # of connection points: 4
#     Node 8, Type 0, BuildingBlock: NAWXER_clean_sbu_0, # of connection points: 4
#     Node 9, Type 0, BuildingBlock: NAWXER_clean_sbu_0, # of connection points: 4
#     Node 10, Type 0, BuildingBlock: NAWXER_clean_sbu_0, # of connection points: 4
#     Node 11, Type 0, BuildingBlock: NAWXER_clean_sbu_0, # of connection points: 4
#     Node 12, Type 0, BuildingBlock: NAWXER_clean_sbu_0, # of connection points: 4
#     Node 13, Type 0, BuildingBlock: NAWXER_clean_sbu_0, # of connection points: 4
#     Node 14, Type 0, BuildingBlock: NAWXER_clean_sbu_0, # of connection points: 4
#     Node 15, Type 0, BuildingBlock: NAWXER_clean_sbu_0, # of connection points: 4
#     Node 16, Type 0, BuildingBlock: NAWXER_clean_sbu_0, # of connection points: 4
#     Node 17, Type 0, BuildingBlock: NAWXER_clean_sbu_0, # of connection points: 4
#     Node 18, Type 0, BuildingBlock: NAWXER_clean_sbu_0, # of connection points: 4
#     Node 19, Type 0, BuildingBlock: NAWXER_clean_sbu_0, # of connection points: 4
#     Node 20, Type 0, BuildingBlock: NAWXER_clean_sbu_0, # of connection points: 4
#     Node 21, Type 0, BuildingBlock: NAWXER_clean_sbu_0, # of connection points: 4
#     Node 22, Type 0, BuildingBlock: NAWXER_clean_sbu_0, # of connection points: 4
#     Node 23, Type 0, BuildingBlock: NAWXER_clean_sbu_0, # of connection points: 4
#     Node 24, Type 0, BuildingBlock: NAWXER_clean_sbu_0, # of connection points: 4
#     Node 25, Type 0, BuildingBlock: NAWXER_clean_sbu_0, # of connection points: 4
#     Node 26, Type 0, BuildingBlock: NAWXER_clean_sbu_0, # of connection points: 4
#     Node 27, Type 0, BuildingBlock: NAWXER_clean_sbu_0, # of connection points: 4
#     Node 28, Type 0, BuildingBlock: NAWXER_clean_sbu_0, # of connection points: 4
#     Node 29, Type 0, BuildingBlock: NAWXER_clean_sbu_0, # of connection points: 4
#     Node 30, Type 0, BuildingBlock: NAWXER_clean_sbu_0, # of connection points: 4
#     Node 31, Type 0, BuildingBlock: NAWXER_clean_sbu_0, # of connection points: 4
#     Edge 32, Type (0, 0), BuildingBlock: OJICUG_clean_linker_0, # of connection points: 2
#     Edge 33, Type (0, 0), BuildingBlock: OJICUG_clean_linker_0, # of connection points: 2
#     Edge 34, Type (0, 0), BuildingBlock: OJICUG_clean_linker_0, # of connection points: 2
#     Edge 35, Type (0, 0), BuildingBlock: OJICUG_clean_linker_0, # of connection points: 2
#     Edge 36, Type (0, 0), BuildingBlock: OJICUG_clean_linker_0, # of connection points: 2
#     Edge 37, Type (0, 0), BuildingBlock: OJICUG_clean_linker_0, # of connection points: 2
#     Edge 38, Type (0, 0), BuildingBlock: OJICUG_clean_linker_0, # of connection points: 2
#     Edge 39, Type (0, 0), BuildingBlock: OJICUG_clean_linker_0, # of connection points: 2
#     Edge 40, Type (0, 0), BuildingBlock: OJICUG_clean_linker_0, # of connection points: 2
#     Edge 41, Type (0, 0), BuildingBlock: OJICUG_clean_linker_0, # of connection points: 2
#     Edge 42, Type (0, 0), BuildingBlock: OJICUG_clean_linker_0, # of connection points: 2
#     Edge 43, Type (0, 0), BuildingBlock: OJICUG_clean_linker_0, # of connection points: 2
#     Edge 44, Type (0, 0), BuildingBlock: OJICUG_clean_linker_0, # of connection points: 2
#     Edge 45, Type (0, 0), BuildingBlock: OJICUG_clean_linker_0, # of connection points: 2
#     Edge 46, Type (0, 0), BuildingBlock: OJICUG_clean_linker_0, # of connection points: 2
#     Edge 47, Type (0, 0), BuildingBlock: OJICUG_clean_linker_0, # of connection points: 2
#     Edge 48, Type (0, 0), BuildingBlock: OJICUG_clean_linker_0, # of connection points: 2
#     Edge 49, Type (0, 0), BuildingBlock: OJICUG_clean_linker_0, # of connection points: 2
#     Edge 50, Type (0, 0), BuildingBlock: OJICUG_clean_linker_0, # of connection points: 2
#     Edge 51, Type (0, 0), BuildingBlock: OJICUG_clean_linker_0, # of connection points: 2
#     Edge 52, Type (0, 0), BuildingBlock: OJICUG_clean_linker_0, # of connection points: 2
#     Edge 53, Type (0, 0), BuildingBlock: OJICUG_clean_linker_0, # of connection points: 2
#     Edge 54, Type (0, 0), BuildingBlock: OJICUG_clean_linker_0, # of connection points: 2
#     Edge 55, Type (0, 0), BuildingBlock: OJICUG_clean_linker_0, # of connection points: 2
#     Edge 56, Type (0, 0), BuildingBlock: OJICUG_clean_linker_0, # of connection points: 2
#     Edge 57, Type (0, 0), BuildingBlock: OJICUG_clean_linker_0, # of connection points: 2
#     Edge 58, Type (0, 0), BuildingBlock: OJICUG_clean_linker_0, # of connection points: 2
#     Edge 59, Type (0, 0), BuildingBlock: OJICUG_clean_linker_0, # of connection points: 2
#     Edge 60, Type (0, 0), BuildingBlock: OJICUG_clean_linker_0, # of connection points: 2
#     Edge 61, Type (0, 0), BuildingBlock: OJICUG_clean_linker_0, # of connection points: 2
#     Edge 62, Type (0, 0), BuildingBlock: OJICUG_clean_linker_0, # of connection points: 2
#     Edge 63, Type (0, 0), BuildingBlock: OJICUG_clean_linker_0, # of connection points: 2
#     Edge 64, Type (0, 0), BuildingBlock: OJICUG_clean_linker_0, # of connection points: 2
#     Edge 65, Type (0, 0), BuildingBlock: OJICUG_clean_linker_0, # of connection points: 2
#     Edge 66, Type (0, 0), BuildingBlock: OJICUG_clean_linker_0, # of connection points: 2
#     Edge 67, Type (0, 0), BuildingBlock: OJICUG_clean_linker_0, # of connection points: 2
#     Edge 68, Type (0, 0), BuildingBlock: OJICUG_clean_linker_0, # of connection points: 2
#     Edge 69, Type (0, 0), BuildingBlock: OJICUG_clean_linker_0, # of connection points: 2
#     Edge 70, Type (0, 0), BuildingBlock: OJICUG_clean_linker_0, # of connection points: 2
#     Edge 71, Type (0, 0), BuildingBlock: OJICUG_clean_linker_0, # of connection points: 2
#     Edge 72, Type (0, 0), BuildingBlock: OJICUG_clean_linker_0, # of connection points: 2
#     Edge 73, Type (0, 0), BuildingBlock: OJICUG_clean_linker_0, # of connection points: 2
#     Edge 74, Type (0, 0), BuildingBlock: OJICUG_clean_linker_0, # of connection points: 2
#     Edge 75, Type (0, 0), BuildingBlock: OJICUG_clean_linker_0, # of connection points: 2
#     Edge 76, Type (0, 0), BuildingBlock: OJICUG_clean_linker_0, # of connection points: 2
#     Edge 77, Type (0, 0), BuildingBlock: OJICUG_clean_linker_0, # of connection points: 2
#     Edge 78, Type (0, 0), BuildingBlock: OJICUG_clean_linker_0, # of connection points: 2
#     Edge 79, Type (0, 0), BuildingBlock: OJICUG_clean_linker_0, # of connection points: 2
#     Edge 80, Type (0, 0), BuildingBlock: OJICUG_clean_linker_0, # of connection points: 2
#     Edge 81, Type (0, 0), BuildingBlock: OJICUG_clean_linker_0, # of connection points: 2
#     Edge 82, Type (0, 0), BuildingBlock: OJICUG_clean_linker_0, # of connection points: 2
#     Edge 83, Type (0, 0), BuildingBlock: OJICUG_clean_linker_0, # of connection points: 2
#     Edge 84, Type (0, 0), BuildingBlock: OJICUG_clean_linker_0, # of connection points: 2
#     Edge 85, Type (0, 0), BuildingBlock: OJICUG_clean_linker_0, # of connection points: 2
#     Edge 86, Type (0, 0), BuildingBlock: OJICUG_clean_linker_0, # of connection points: 2
#     Edge 87, Type (0, 0), BuildingBlock: OJICUG_clean_linker_0, # of connection points: 2
#     Edge 88, Type (0, 0), BuildingBlock: OJICUG_clean_linker_0, # of connection points: 2
#     Edge 89, Type (0, 0), BuildingBlock: OJICUG_clean_linker_0, # of connection points: 2
#     Edge 90, Type (0, 0), BuildingBlock: OJICUG_clean_linker_0, # of connection points: 2
#     Edge 91, Type (0, 0), BuildingBlock: OJICUG_clean_linker_0, # of connection points: 2
#     Edge 92, Type (0, 0), BuildingBlock: OJICUG_clean_linker_0, # of connection points: 2
#     Edge 93, Type (0, 0), BuildingBlock: OJICUG_clean_linker_0, # of connection points: 2
#     Edge 94, Type (0, 0), BuildingBlock: OJICUG_clean_linker_0, # of connection points: 2
#     Edge 95, Type (0, 0), BuildingBlock: OJICUG_clean_linker_0, # of connection points: 2
# Relax obj value: 0.006
# Max RMSD: 0.183
# Mean RMSD: 0.183
data_MOF--net-ukj--node1-NAWXER_clean_sbu_0--edge1-OJICUG_clean_linker_0
_symmetry_space_group_name_H-M    P1
_symmetry_Int_Tables_number       1
_symmetry_cell_setting            triclinic
loop_
_symmetry_equiv_pos_as_xyz
'x, y, z'
_cell_length_a     25.085811
_cell_length_b     39.587322
_cell_length_c     42.427665
_cell_angle_alpha  89.99991
_cell_angle_beta   90.000105
_cell_angle_gamma 89.998864
loop_
_atom_site_label
_atom_site_type_symbol
_atom_site_fract_x
_atom_site_fract_y
_atom_site_fract_z
_atom_type_partial_charge
C0 C 0.14979 0.36901 0.3107 0.0
C1 C 0.14943 0.36706 0.19573 0.0
O2 O 0.17104 0.34218 0.2994 0.0
Zn3 Zn 0.18971 0.32177 0.254 0.0
O4 O 0.13351 0.39202 0.29215 0.0
Zn5 Zn 0.15137 0.36952 0.25312 0.0
O6 O 0.09906 0.32587 0.25355 0.0
O7 O 0.14995 0.28033 0.2545 0.0
O8 O 0.13354 0.391 0.21335 0.0
O9 O 0.17054 0.34071 0.20809 0.0
O10 O 0.26665 0.31954 0.25389 0.0
O11 O 0.23673 0.37183 0.25315 0.0
C12 C 0.10375 0.29355 0.25402 0.0
C13 C 0.27594 0.35107 0.25346 0.0
C14 C 0.11837 0.88408 0.31135 0.0
C15 C 0.11909 0.88597 0.19639 0.0
O16 O 0.09717 0.91093 0.30005 0.0
Zn17 Zn 0.07872 0.93135 0.25459 0.0
O18 O 0.13473 0.8611 0.29279 0.0
Zn19 Zn 0.11701 0.88361 0.25376 0.0
O20 O 0.16937 0.92724 0.25421 0.0
O21 O 0.11849 0.97278 0.25511 0.0
O22 O 0.13494 0.86206 0.21406 0.0
O23 O 0.09798 0.91236 0.20868 0.0
O24 O 1.00179 0.93365 0.25436 0.0
O25 O 0.03163 0.88134 0.25365 0.0
C26 C 0.16469 0.95956 0.25466 0.0
C27 C 0.99246 0.90212 0.25389 0.0
C28 C 0.14943 0.88342 0.9465 0.0
C29 C 0.14923 0.88566 0.06146 0.0
O30 O 0.17064 0.9103 0.95772 0.0
Zn31 Zn 0.18932 0.93085 1.00308 0.0
O32 O 0.13319 0.86047 0.96512 0.0
Zn33 Zn 0.15106 0.88309 0.00408 0.0
O34 O 0.09867 0.92671 0.00358 0.0
O35 O 0.14951 0.97226 1.0025 0.0
O36 O 0.13334 0.86168 0.04389 0.0
O37 O 0.17028 0.91201 0.04905 0.0
O38 O 0.26625 0.93316 1.00315 0.0
O39 O 0.23644 0.88084 0.00402 0.0
C40 C 0.10332 0.95903 1.00304 0.0
C41 C 0.2756 0.90163 0.00365 0.0
C42 C 0.16423 0.293 1.00274 0.0
C43 C 0.99207 0.35055 1.00339 0.0
O44 O 0.16894 0.32532 1.00311 0.0
Zn45 Zn 0.11665 0.36898 1.00347 0.0
O46 O 0.11802 0.27979 1.00234 0.0
Zn47 Zn 0.07828 0.32124 1.00277 0.0
O48 O 0.09677 0.34151 0.95727 0.0
O49 O 0.13438 0.39134 0.96437 0.0
O50 O 1.00135 0.31901 1.00301 0.0
O51 O 0.03128 0.3713 0.00358 0.0
O52 O 0.13463 0.39061 0.04314 0.0
O53 O 0.09762 0.34034 0.04861 0.0
C54 C 0.11801 0.3683 0.94588 0.0
C55 C 0.11878 0.36674 0.06085 0.0
C56 C 0.86811 0.63502 0.81142 0.0
C57 C 0.86781 0.63314 0.69644 0.0
O58 O 0.88399 0.61108 0.79379 0.0
Zn59 Zn 0.86618 0.63258 0.75403 0.0
O60 O 0.847 0.66138 0.79906 0.0
Zn61 Zn 0.82785 0.68034 0.75316 0.0
O62 O 0.75091 0.68258 0.75326 0.0
O63 O 0.78081 0.63028 0.75398 0.0
O64 O 0.84655 0.65996 0.70775 0.0
O65 O 0.88407 0.61012 0.71499 0.0
O66 O 0.9185 0.67624 0.75364 0.0
O67 O 0.86761 0.72178 0.75269 0.0
C68 C 0.74161 0.65105 0.75368 0.0
C69 C 0.91381 0.70856 0.75318 0.0
C70 C 0.85272 0.04282 0.75264 0.0
C71 C 0.02498 0.10024 0.75347 0.0
O72 O 0.89891 0.02959 0.75218 0.0
Zn73 Zn 0.93872 0.07101 0.75278 0.0
O74 O 0.84805 0.07514 0.75314 0.0
Zn75 Zn 0.90042 0.11876 0.75367 0.0
O76 O 0.88274 0.14133 0.71465 0.0
O77 O 0.92029 0.09151 0.70735 0.0
O78 O 0.9858 0.12102 0.75375 0.0
O79 O 0.01565 0.06871 0.75298 0.0
O80 O 0.91948 0.08992 0.7987 0.0
O81 O 0.88253 0.14023 0.79341 0.0
C82 C 0.89912 0.11838 0.69607 0.0
C83 C 0.89837 0.11629 0.81105 0.0
C84 C 0.86804 0.11855 0.06095 0.0
C85 C 0.86835 0.11636 0.94598 0.0
O86 O 0.88431 0.1415 0.04233 0.0
Zn87 Zn 0.86647 0.11889 1.00336 0.0
O88 O 0.84682 0.09168 0.04972 0.0
Zn89 Zn 0.82819 0.07114 0.00433 0.0
O90 O 0.86799 0.02972 0.00491 0.0
O91 O 0.91884 0.07527 0.00386 0.0
O92 O 0.84728 0.09001 0.95837 0.0
O93 O 0.88425 0.14032 0.96357 0.0
O94 O 0.7811 0.12116 1.00337 0.0
O95 O 0.75126 0.06885 0.00423 0.0
C96 C 0.91418 0.04295 0.00439 0.0
C97 C 0.74193 0.10038 0.00372 0.0
C98 C 0.89887 0.63538 0.94628 0.0
C99 C 0.89957 0.6339 0.06124 0.0
O100 O 0.88303 0.61152 0.96401 0.0
Zn101 Zn 0.90099 0.63318 0.00366 0.0
O102 O 0.92001 0.66179 0.95851 0.0
Zn103 Zn 0.93932 0.68092 0.00434 0.0
O104 O 0.01624 0.68319 0.00412 0.0
O105 O 0.98637 0.63088 0.00356 0.0
O106 O 0.9208 0.66069 0.04985 0.0
O107 O 0.88324 0.61084 0.04276 0.0
O108 O 0.84867 0.67684 0.00398 0.0
O109 O 0.89958 0.72237 0.00474 0.0
C110 C 0.02556 0.65165 0.00374 0.0
C111 C 0.85337 0.70916 0.00433 0.0
C112 C 0.10289 0.79253 0.75468 0.0
C113 C 0.27509 0.85004 0.7539 0.0
O114 O 0.09819 0.82485 0.75422 0.0
Zn115 Zn 0.15052 0.86849 0.75376 0.0
O116 O 0.14909 0.77931 0.75514 0.0
Zn117 Zn 0.18886 0.82076 0.7546 0.0
O118 O 0.17037 0.84118 0.80005 0.0
O119 O 0.13278 0.891 0.79279 0.0
O120 O 0.2658 0.8185 0.75439 0.0
O121 O 0.23588 0.8708 0.75365 0.0
O122 O 0.13258 0.89001 0.71404 0.0
O123 O 0.16959 0.83972 0.70869 0.0
C124 C 0.14915 0.86803 0.81135 0.0
C125 C 0.14846 0.8661 0.69639 0.0
C126 C 0.11805 0.38506 0.69572 0.0
C127 C 0.11769 0.38313 0.81069 0.0
O128 O 0.09697 0.41143 0.70807 0.0
Zn129 Zn 0.07782 0.43038 0.75398 0.0
O130 O 0.13389 0.36111 0.71334 0.0
Zn131 Zn 0.11608 0.38261 0.75311 0.0
O132 O 0.0307 0.38036 0.75315 0.0
O133 O 1.0009 0.43268 0.75387 0.0
O134 O 0.13393 0.36011 0.79214 0.0
O135 O 0.09648 0.40997 0.79939 0.0
O136 O 0.11761 0.4718 0.75447 0.0
O137 O 0.16846 0.42624 0.75353 0.0
C138 C 0.99154 0.40115 0.75345 0.0
C139 C 0.16381 0.45856 0.75399 0.0
C140 C 0.14891 0.3854 0.56086 0.0
C141 C 0.14967 0.38386 0.44589 0.0
O142 O 0.17005 0.41181 0.54862 0.0
Zn143 Zn 0.18936 0.43093 0.50278 0.0
O144 O 0.13309 0.36153 0.54314 0.0
Zn145 Zn 0.15106 0.38318 0.50348 0.0
O146 O 0.23644 0.3809 0.50358 0.0
O147 O 0.26628 0.43321 0.50302 0.0
O148 O 0.13333 0.36081 0.46438 0.0
O149 O 0.17088 0.41067 0.45727 0.0
O150 O 0.1496 0.47236 0.50236 0.0
O151 O 0.09871 0.42682 0.50313 0.0
C152 C 0.27561 0.40168 0.5034 0.0
C153 C 0.1034 0.45914 0.50277 0.0
C154 C 0.1182 0.86865 0.44649 0.0
C155 C 0.11844 0.86637 0.56146 0.0
O156 O 0.09695 0.84178 0.4577 0.0
Zn157 Zn 0.07826 0.82122 0.50306 0.0
O158 O 0.13448 0.89159 0.46512 0.0
Zn159 Zn 0.1166 0.86896 0.50407 0.0
O160 O 0.16892 0.82531 0.50354 0.0
O161 O 0.11803 0.77978 0.50246 0.0
O162 O 0.13437 0.89034 0.54389 0.0
O163 O 0.09735 0.84003 0.54904 0.0
O164 O 1.00132 0.81898 0.50314 0.0
O165 O 0.03124 0.87126 0.50402 0.0
C166 C 0.16424 0.79299 0.50299 0.0
C167 C 0.99203 0.85051 0.50365 0.0
C168 C 0.86833 0.13403 0.19609 0.0
C169 C 0.86907 0.13609 0.31106 0.0
O170 O 0.88469 0.11107 0.21467 0.0
Zn171 Zn 0.86698 0.13363 0.25368 0.0
O172 O 0.84714 0.16089 0.20737 0.0
Zn173 Zn 0.82868 0.18137 0.2528 0.0
O174 O 0.86847 0.2228 0.25222 0.0
O175 O 0.91934 0.17726 0.25317 0.0
O176 O 0.84795 0.16246 0.29872 0.0
O177 O 0.88489 0.11215 0.29342 0.0
O178 O 0.7816 0.13136 0.25376 0.0
O179 O 0.75175 0.18367 0.25301 0.0
C180 C 0.91467 0.20958 0.25267 0.0
C181 C 0.74242 0.15214 0.25348 0.0
C182 C 0.89972 0.61912 0.19643 0.0
C183 C 0.89941 0.61721 0.31141 0.0
O184 O 0.88346 0.64214 0.21498 0.0
Zn185 Zn 0.90133 0.61966 0.25402 0.0
O186 O 0.92096 0.59229 0.20774 0.0
Zn187 Zn 0.93965 0.5719 0.25315 0.0
O188 O 0.89986 0.53047 0.25266 0.0
O189 O 0.84899 0.57601 0.25361 0.0
O190 O 0.9205 0.59085 0.29905 0.0
O191 O 0.88353 0.64115 0.29379 0.0
O192 O 0.9867 0.62194 0.25397 0.0
O193 O 0.01658 0.56964 0.25325 0.0
C194 C 0.85366 0.54369 0.25315 0.0
C195 C 0.02589 0.60117 0.25366 0.0
C196 C 0.91432 0.5431 0.50436 0.0
C197 C 0.74209 0.60056 0.50375 0.0
O198 O 0.86812 0.52988 0.50476 0.0
Zn199 Zn 0.82835 0.57131 0.50436 0.0
O200 O 0.919 0.57543 0.504 0.0
Zn201 Zn 0.86665 0.61906 0.50366 0.0
O202 O 0.88437 0.64142 0.54277 0.0
O203 O 0.84684 0.59156 0.54986 0.0
O204 O 0.78127 0.62134 0.50356 0.0
O205 O 0.75142 0.56903 0.50413 0.0
O206 O 0.84764 0.59044 0.45852 0.0
O207 O 0.8846 0.64072 0.464 0.0
C208 C 0.86804 0.61837 0.56125 0.0
C209 C 0.86877 0.61685 0.44628 0.0
C210 C 0.02587 0.152 0.5037 0.0
C211 C 0.85361 0.20943 0.50435 0.0
O212 O 0.01653 0.18353 0.5042 0.0
Zn213 Zn 0.9396 0.18123 0.50431 0.0
O214 O 0.9867 0.13122 0.50336 0.0
Zn215 Zn 0.90133 0.13348 0.50334 0.0
O216 O 0.88354 0.11204 0.46357 0.0
O217 O 0.92048 0.16236 0.45834 0.0
O218 O 0.84895 0.17711 0.50383 0.0
O219 O 0.8998 0.22266 0.50487 0.0
O220 O 0.92094 0.16072 0.5497 0.0
O221 O 0.88347 0.11089 0.54231 0.0
C222 C 0.89941 0.136 0.44597 0.0
C223 C 0.89972 0.13384 0.56093 0.0
C224 C 0.64912 0.36832 0.81128 0.0
C225 C 0.64842 0.36641 0.69631 0.0
O226 O 0.67028 0.34146 0.79997 0.0
Zn227 Zn 0.68871 0.32102 0.75452 0.0
O228 O 0.63279 0.3913 0.79272 0.0
Zn229 Zn 0.65047 0.36878 0.75369 0.0
O230 O 0.59805 0.32518 0.75415 0.0
O231 O 0.64888 0.27962 0.75506 0.0
O232 O 0.63258 0.39033 0.71397 0.0
O233 O 0.66949 0.34002 0.70862 0.0
O234 O 0.76563 0.31868 0.75431 0.0
O235 O 0.73585 0.371 0.75358 0.0
C236 C 0.60269 0.29286 0.75461 0.0
C237 C 0.775 0.3502 0.75383 0.0
C238 C 0.61802 0.88532 0.69574 0.0
C239 C 0.61768 0.88337 0.81072 0.0
O240 O 0.59689 0.91167 0.7081 0.0
Zn241 Zn 0.5777 0.93059 0.75401 0.0
O242 O 0.63391 0.86137 0.71336 0.0
Zn243 Zn 0.61606 0.88285 0.75313 0.0
O244 O 0.5307 0.88051 0.75318 0.0
O245 O 0.50075 0.9328 0.75391 0.0
O246 O 0.63397 0.86037 0.79216 0.0
O247 O 0.59641 0.91019 0.79942 0.0
O248 O 0.61743 0.97205 0.75451 0.0
O249 O 0.66835 0.92652 0.75356 0.0
C250 C 0.49148 0.90126 0.75349 0.0
C251 C 0.66364 0.95884 0.75402 0.0
C252 C 0.64889 0.88564 0.56088 0.0
C253 C 0.6497 0.88406 0.44592 0.0
O254 O 0.67009 0.91203 0.54864 0.0
Zn255 Zn 0.68947 0.93111 0.5028 0.0
O256 O 0.63303 0.86177 0.54317 0.0
Zn257 Zn 0.65106 0.8834 0.50351 0.0
O258 O 0.73643 0.88103 0.50362 0.0
O259 O 0.7664 0.93331 0.50305 0.0
O260 O 0.6333 0.86103 0.46441 0.0
O261 O 0.67096 0.91085 0.45729 0.0
O262 O 0.64978 0.97259 0.50236 0.0
O263 O 0.59881 0.92708 0.50314 0.0
C264 C 0.77566 0.90177 0.50344 0.0
C265 C 0.60355 0.9594 0.50277 0.0
C266 C 0.61847 0.36668 0.56138 0.0
C267 C 0.61825 0.3689 0.44641 0.0
O268 O 0.59744 0.34033 0.54897 0.0
Zn269 Zn 0.57842 0.32147 0.503 0.0
O270 O 0.63437 0.39066 0.5438 0.0
Zn271 Zn 0.61666 0.36924 0.50399 0.0
O272 O 0.53128 0.37147 0.50394 0.0
O273 O 0.50149 0.31915 0.50308 0.0
O274 O 0.63449 0.39186 0.46503 0.0
O275 O 0.59706 0.34202 0.45764 0.0
O276 O 0.61826 0.28007 0.50243 0.0
O277 O 0.66907 0.32564 0.5035 0.0
C278 C 0.49213 0.35067 0.50358 0.0
C279 C 0.66444 0.29332 0.50296 0.0
C280 C 0.36898 0.63609 0.31081 0.0
C281 C 0.3683 0.63425 0.19585 0.0
O282 O 0.38483 0.61219 0.29313 0.0
Zn283 Zn 0.36692 0.63376 0.25344 0.0
O284 O 0.34786 0.66249 0.29852 0.0
Zn285 Zn 0.32862 0.6815 0.25262 0.0
O286 O 0.25169 0.68379 0.25283 0.0
O287 O 0.28154 0.63148 0.25354 0.0
O288 O 0.3471 0.66109 0.20715 0.0
O289 O 0.38465 0.61127 0.21441 0.0
O290 O 0.41928 0.67739 0.25301 0.0
O291 O 0.3684 0.72293 0.25211 0.0
C292 C 0.24236 0.65226 0.25329 0.0
C293 C 0.4146 0.70971 0.25256 0.0
C294 C 0.35375 0.04354 0.25314 0.0
C295 C 0.52595 0.10104 0.25361 0.0
O296 O 0.39996 0.03033 0.25267 0.0
Zn297 Zn 0.43972 0.07177 0.25309 0.0
O298 O 0.34906 0.07586 0.25356 0.0
Zn299 Zn 0.40139 0.11951 0.25391 0.0
O300 O 0.3835 0.14194 0.21486 0.0
O301 O 0.42102 0.09209 0.20765 0.0
O302 O 0.48676 0.12181 0.25389 0.0
O303 O 0.51664 0.06951 0.2532 0.0
O304 O 0.42058 0.09079 0.29898 0.0
O305 O 0.38357 0.14108 0.29364 0.0
C306 C 0.39976 0.11891 0.19633 0.0
C307 C 0.39948 0.11717 0.3113 0.0
C308 C 0.3683 0.1188 0.56115 0.0
C309 C 0.36899 0.11712 0.44618 0.0
O310 O 0.38464 0.14183 0.54265 0.0
Zn311 Zn 0.36692 0.11942 0.50356 0.0
O312 O 0.3471 0.09198 0.54978 0.0
Zn313 Zn 0.3286 0.07167 0.50431 0.0
O314 O 0.36836 0.03024 0.50477 0.0
O315 O 0.41926 0.07578 0.50394 0.0
O316 O 0.34786 0.09073 0.45846 0.0
O317 O 0.38484 0.14102 0.46386 0.0
O318 O 0.28154 0.12171 0.50349 0.0
O319 O 0.25167 0.0694 0.50411 0.0
C320 C 0.41457 0.04345 0.50434 0.0
C321 C 0.24236 0.10093 0.50371 0.0
C322 C 0.39947 0.63336 0.5607 0.0
C323 C 0.39916 0.6357 0.44573 0.0
O324 O 0.38321 0.61042 0.54207 0.0
Zn325 Zn 0.40105 0.63308 0.50311 0.0
O326 O 0.42068 0.66025 0.54949 0.0
Zn327 Zn 0.43932 0.68083 0.50413 0.0
O328 O 0.39952 0.72225 0.50475 0.0
O329 O 0.34867 0.6767 0.50366 0.0
O330 O 0.42023 0.66203 0.45815 0.0
O331 O 0.38329 0.6117 0.46329 0.0
O332 O 0.48643 0.63082 0.50315 0.0
O333 O 0.51625 0.68313 0.50404 0.0
C334 C 0.35333 0.70902 0.50422 0.0
C335 C 0.5256 0.6516 0.50353 0.0
C336 C 0.64982 0.86913 0.31073 0.0
C337 C 0.64948 0.86714 0.19576 0.0
O338 O 0.67103 0.84228 0.29944 0.0
Zn339 Zn 0.68969 0.82185 0.25404 0.0
O340 O 0.63357 0.89213 0.29217 0.0
Zn341 Zn 0.65141 0.86961 0.25314 0.0
O342 O 0.59904 0.82598 0.25358 0.0
O343 O 0.6499 0.78042 0.25455 0.0
O344 O 0.63362 0.89109 0.21337 0.0
O345 O 0.67056 0.84078 0.20812 0.0
O346 O 0.76662 0.81956 0.25394 0.0
O347 O 0.73678 0.87187 0.25319 0.0
C348 C 0.6037 0.79365 0.25405 0.0
C349 C 0.77595 0.85109 0.2535 0.0
C350 C 0.61833 0.38426 0.31126 0.0
C351 C 0.619 0.38615 0.1963 0.0
O352 O 0.5971 0.4111 0.29996 0.0
Zn353 Zn 0.5786 0.43151 0.25451 0.0
O354 O 0.63468 0.36128 0.2927 0.0
Zn355 Zn 0.61693 0.38378 0.25367 0.0
O356 O 0.66926 0.42742 0.25412 0.0
O357 O 0.61837 0.47295 0.25503 0.0
O358 O 0.63486 0.36224 0.21397 0.0
O359 O 0.59787 0.41253 0.2086 0.0
O360 O 0.50166 0.43378 0.25429 0.0
O361 O 0.53156 0.38148 0.25358 0.0
C362 C 0.66457 0.45974 0.25458 0.0
C363 C 0.49236 0.40224 0.25382 0.0
C364 C 0.64923 0.38586 0.06139 0.0
C365 C 0.64948 0.38365 0.94642 0.0
O366 O 0.67032 0.4122 0.04899 0.0
Zn367 Zn 0.68943 0.43104 1.00303 0.0
O368 O 0.63332 0.36189 0.04381 0.0
Zn369 Zn 0.6511 0.3833 0.00401 0.0
O370 O 0.73646 0.381 0.00396 0.0
O371 O 0.76637 0.43329 1.00311 0.0
O372 O 0.63321 0.3607 0.96504 0.0
O373 O 0.67073 0.41052 0.95765 0.0
O374 O 0.64965 0.47248 1.00245 0.0
O375 O 0.59878 0.42694 1.00351 0.0
C376 C 0.77566 0.40176 0.00361 0.0
C377 C 0.60345 0.45926 1.00297 0.0
C378 C 0.61882 0.86685 0.06088 0.0
C379 C 0.61801 0.86847 0.94591 0.0
O380 O 0.59768 0.84045 0.04862 0.0
Zn381 Zn 0.57836 0.82136 1.00277 0.0
O382 O 0.63463 0.89073 0.04317 0.0
Zn383 Zn 0.61666 0.86911 1.0035 0.0
O384 O 0.53128 0.87139 0.00361 0.0
O385 O 0.50144 0.81908 1.00302 0.0
O386 O 0.63436 0.89151 0.96441 0.0
O387 O 0.59682 0.84166 0.95728 0.0
O388 O 0.61812 0.77993 1.00232 0.0
O389 O 0.66901 0.82547 1.00312 0.0
C390 C 0.49211 0.85061 1.00341 0.0
C391 C 0.66433 0.79315 1.00273 0.0
C392 C 0.24143 0.15137 0.75364 0.0
C393 C 0.41359 0.20892 0.75316 0.0
O394 O 0.25072 0.18291 0.75324 0.0
Zn395 Zn 0.32765 0.18067 0.75312 0.0
O396 O 0.28063 0.13061 0.7539 0.0
Zn397 Zn 0.366 0.13293 0.75393 0.0
O398 O 0.38385 0.11137 0.79365 0.0
O399 O 0.34684 0.16165 0.799 0.0
O400 O 0.41829 0.1766 0.75358 0.0
O401 O 0.36738 0.22213 0.75269 0.0
O402 O 0.34637 0.16036 0.70767 0.0
O403 O 0.38392 0.11052 0.71487 0.0
C404 C 0.36796 0.13527 0.81131 0.0
C405 C 0.36766 0.13356 0.69634 0.0
C406 C 0.39854 0.61609 0.81081 0.0
C407 C 0.39925 0.61794 0.69584 0.0
O408 O 0.38269 0.63999 0.79313 0.0
Zn409 Zn 0.40061 0.61843 0.75343 0.0
O410 O 0.41966 0.5897 0.79852 0.0
Zn411 Zn 0.43891 0.57069 0.75261 0.0
O412 O 0.51584 0.5684 0.75284 0.0
O413 O 0.48598 0.62071 0.75354 0.0
O414 O 0.42045 0.5911 0.70715 0.0
O415 O 0.38289 0.64092 0.7144 0.0
O416 O 0.34825 0.5748 0.75299 0.0
O417 O 0.39912 0.52926 0.7521 0.0
C418 C 0.52516 0.59993 0.7533 0.0
C419 C 0.35292 0.54248 0.75254 0.0
C420 C 0.36815 0.61883 0.06071 0.0
C421 C 0.36844 0.61649 0.94573 0.0
O422 O 0.38441 0.64177 0.04207 0.0
Zn423 Zn 0.36657 0.61912 1.00312 0.0
O424 O 0.34695 0.59195 0.04949 0.0
Zn425 Zn 0.32831 0.57136 0.00414 0.0
O426 O 0.36813 0.52995 0.00476 0.0
O427 O 0.41897 0.5755 0.00367 0.0
O428 O 0.34739 0.59016 0.95816 0.0
O429 O 0.38432 0.64049 0.96329 0.0
O430 O 0.2812 0.62137 1.00316 0.0
O431 O 0.25138 0.56906 0.00405 0.0
C432 C 0.41432 0.54318 0.00423 0.0
C433 C 0.24204 0.60058 1.00353 0.0
C434 C 0.39947 0.13367 0.06114 0.0
C435 C 0.39879 0.13532 0.94617 0.0
O436 O 0.38313 0.11063 0.04264 0.0
Zn437 Zn 0.4009 0.13302 1.00355 0.0
O438 O 0.4207 0.16047 0.04977 0.0
Zn439 Zn 0.43923 0.18077 0.00429 0.0
O440 O 0.39948 0.22221 0.00473 0.0
O441 O 0.34858 0.17668 0.00392 0.0
O442 O 0.41993 0.16171 0.95844 0.0
O443 O 0.38295 0.11142 0.96386 0.0
O444 O 0.48627 0.13072 1.00348 0.0
O445 O 0.51616 0.18302 0.00408 0.0
C446 C 0.35327 0.209 0.00431 0.0
C447 C 0.52546 0.15149 0.0037 0.0
C448 C 0.13806 0.3375 0.14458 0.0
C449 C 0.14152 0.36805 0.16125 0.0
H450 H 0.12762 0.31333 0.10009 0.0
C451 C 0.13744 0.39869 0.14465 0.0
H452 H 0.14072 0.31347 0.1567 0.0
C453 C 0.13078 0.39862 0.1118 0.0
C454 C 0.12674 0.3679 0.09532 0.0
H455 H 0.1401 0.4226 0.15697 0.0
H456 H 0.12807 0.42246 0.09938 0.0
C457 C 0.13025 0.33743 0.11211 0.0
C458 C 0.13744 0.85404 0.11256 0.0
C459 C 0.14147 0.88468 0.09596 0.0
H460 H 0.12823 0.83027 0.15783 0.0
C461 C 0.13809 0.91523 0.11263 0.0
H462 H 0.14005 0.83014 0.10024 0.0
C463 C 0.1304 0.91531 0.14511 0.0
C464 C 0.12694 0.88484 0.1619 0.0
H465 H 0.14072 0.93927 0.10051 0.0
H466 H 0.12782 0.9394 0.15715 0.0
C467 C 0.13091 0.85412 0.14542 0.0
C468 C 0.87953 0.66459 0.86255 0.0
C469 C 0.87604 0.63403 0.84589 0.0
H470 H 0.89002 0.68877 0.90703 0.0
C471 C 0.88013 0.6034 0.8625 0.0
H472 H 0.87686 0.68862 0.85042 0.0
C473 C 0.88682 0.60348 0.89535 0.0
C474 C 0.89089 0.63421 0.91181 0.0
H475 H 0.87745 0.57949 0.85018 0.0
H476 H 0.88954 0.57964 0.90777 0.0
C477 C 0.88737 0.66468 0.89501 0.0
C478 C 0.88012 0.14806 0.89493 0.0
C479 C 0.87609 0.11739 0.91149 0.0
H480 H 0.8893 0.17191 0.84969 0.0
C481 C 0.87944 0.08687 0.89476 0.0
H482 H 0.87753 0.17195 0.90729 0.0
C483 C 0.88709 0.08685 0.86228 0.0
C484 C 0.89055 0.11736 0.84553 0.0
H485 H 0.87681 0.06282 0.90685 0.0
H486 H 0.88965 0.06279 0.8502 0.0
C487 C 0.88662 0.14804 0.86206 0.0
C488 C 0.13672 0.89793 0.64541 0.0
C489 C 0.14064 0.86722 0.6619 0.0
H490 H 0.12764 0.92189 0.60021 0.0
C491 C 0.13716 0.83674 0.64512 0.0
H492 H 0.13941 0.92178 0.65781 0.0
C493 C 0.12951 0.8368 0.61264 0.0
C494 C 0.12618 0.86735 0.59595 0.0
H495 H 0.13971 0.81265 0.65717 0.0
H496 H 0.12687 0.81277 0.60052 0.0
C497 C 0.13022 0.89799 0.61254 0.0
C498 C 0.1374 0.41471 0.61212 0.0
C499 C 0.14092 0.38424 0.59533 0.0
H500 H 0.12686 0.43866 0.65671 0.0
C501 C 0.13682 0.35352 0.61179 0.0
H502 H 0.14007 0.4388 0.6001 0.0
C503 C 0.1301 0.35343 0.64464 0.0
C504 C 0.12601 0.38407 0.66124 0.0
H505 H 0.13953 0.32967 0.59937 0.0
H506 H 0.12739 0.32953 0.65696 0.0
C507 C 0.12953 0.41463 0.64458 0.0
C508 C 0.88095 0.10433 0.36206 0.0
C509 C 0.87695 0.13502 0.34554 0.0
H510 H 0.89017 0.08042 0.40728 0.0
C511 C 0.88045 0.16552 0.36228 0.0
H512 H 0.87825 0.08046 0.34969 0.0
C513 C 0.88819 0.1655 0.39476 0.0
C514 C 0.8916 0.13498 0.41148 0.0
H515 H 0.87785 0.18959 0.35021 0.0
H516 H 0.89084 0.18955 0.40685 0.0
C517 C 0.88754 0.10431 0.39492 0.0
C518 C 0.88804 0.58764 0.36255 0.0
C519 C 0.8915 0.6182 0.34589 0.0
H520 H 0.87761 0.56346 0.40704 0.0
C521 C 0.88742 0.64883 0.36249 0.0
H522 H 0.89071 0.56361 0.35042 0.0
C523 C 0.88076 0.64875 0.39535 0.0
C524 C 0.87672 0.61802 0.41181 0.0
H525 H 0.89009 0.67274 0.35018 0.0
H526 H 0.87805 0.67259 0.40777 0.0
C527 C 0.88024 0.58756 0.39502 0.0
C528 C 0.62955 0.33713 0.61256 0.0
C529 C 0.6262 0.36767 0.59587 0.0
H530 H 0.63972 0.31297 0.65709 0.0
C531 C 0.63021 0.39832 0.61247 0.0
H532 H 0.62693 0.31309 0.60044 0.0
C533 C 0.63669 0.39825 0.64534 0.0
C534 C 0.64062 0.36754 0.66183 0.0
H535 H 0.62763 0.42222 0.60014 0.0
H536 H 0.63936 0.4221 0.65774 0.0
C537 C 0.63717 0.33706 0.64504 0.0
C538 C 0.63007 0.85369 0.64467 0.0
C539 C 0.62597 0.88433 0.66127 0.0
H540 H 0.63952 0.82992 0.59941 0.0
C541 C 0.62947 0.91488 0.6446 0.0
H542 H 0.62738 0.82978 0.65699 0.0
C543 C 0.63735 0.91496 0.61214 0.0
C544 C 0.64088 0.88449 0.59535 0.0
H545 H 0.6268 0.93891 0.65673 0.0
H546 H 0.64001 0.93905 0.60011 0.0
C547 C 0.63679 0.85377 0.61182 0.0
C548 C 0.38024 0.66541 0.3621 0.0
C549 C 0.37681 0.63494 0.34529 0.0
H550 H 0.39055 0.68933 0.40673 0.0
C551 C 0.38081 0.60421 0.36176 0.0
H552 H 0.37763 0.6895 0.35008 0.0
C553 C 0.38736 0.60412 0.39462 0.0
C554 C 0.39137 0.63475 0.41124 0.0
H555 H 0.37816 0.58038 0.34933 0.0
H556 H 0.39 0.5802 0.40692 0.0
C557 C 0.38794 0.66531 0.39458 0.0
C558 C 0.38092 0.1489 0.39518 0.0
C559 C 0.37692 0.11822 0.41171 0.0
H560 H 0.39017 0.17279 0.34996 0.0
C561 C 0.38045 0.08771 0.39497 0.0
H562 H 0.3782 0.17277 0.40755 0.0
C563 C 0.38821 0.08772 0.3625 0.0
C564 C 0.39162 0.11824 0.34578 0.0
H565 H 0.37786 0.06364 0.40704 0.0
H566 H 0.39088 0.06366 0.35042 0.0
C567 C 0.38754 0.14892 0.36232 0.0
C568 C 0.63748 0.89878 0.14468 0.0
C569 C 0.64158 0.86814 0.16127 0.0
H570 H 0.62808 0.92256 0.09942 0.0
C571 C 0.63813 0.83759 0.1446 0.0
H572 H 0.64013 0.92269 0.15701 0.0
C573 C 0.63032 0.83752 0.11213 0.0
C574 C 0.62678 0.86799 0.09535 0.0
H575 H 0.64081 0.81356 0.15672 0.0
H576 H 0.6277 0.81343 0.1001 0.0
C577 C 0.63081 0.89871 0.11183 0.0
C578 C 0.63739 0.35424 0.11247 0.0
C579 C 0.64142 0.38488 0.09588 0.0
H580 H 0.62816 0.33046 0.15774 0.0
C581 C 0.63801 0.41543 0.11256 0.0
H582 H 0.64002 0.33034 0.10015 0.0
C583 C 0.6303 0.4155 0.14503 0.0
C584 C 0.62684 0.38502 0.16182 0.0
H585 H 0.64064 0.43946 0.10043 0.0
H586 H 0.6277 0.43959 0.15707 0.0
C587 C 0.63084 0.35431 0.14534 0.0
C588 C 0.37936 0.16472 0.8625 0.0
C589 C 0.3759 0.13421 0.84578 0.0
H590 H 0.38985 0.1888 0.90704 0.0
C591 C 0.38003 0.10353 0.86232 0.0
H592 H 0.37666 0.18878 0.85043 0.0
C593 C 0.38674 0.10354 0.89517 0.0
C594 C 0.39079 0.13423 0.9117 0.0
H595 H 0.37736 0.07965 0.84996 0.0
H596 H 0.38949 0.07967 0.90754 0.0
C597 C 0.38722 0.16474 0.89497 0.0
C598 C 0.3873 0.58678 0.8621 0.0
C599 C 0.39072 0.61724 0.84529 0.0
H600 H 0.37703 0.56286 0.90673 0.0
C601 C 0.38673 0.64797 0.86175 0.0
H602 H 0.3899 0.56269 0.85008 0.0
C603 C 0.38022 0.64807 0.89462 0.0
C604 C 0.37622 0.61745 0.91124 0.0
H605 H 0.38938 0.67181 0.84932 0.0
H606 H 0.37758 0.67199 0.90692 0.0
C607 C 0.37963 0.58688 0.89459 0.0
C608 C 0.9587 0.2665 0.25257 0.0
C609 C 0.96299 0.23111 0.25291 0.0
H610 H 0.99961 0.3139 0.25268 0.0
C611 C 0.01403 0.21641 0.25367 0.0
H612 H 0.92003 0.27866 0.252 0.0
C613 C 0.05972 0.23662 0.25409 0.0
C614 C 0.05543 0.27201 0.25375 0.0
H615 H 0.01881 0.18922 0.25398 0.0
H616 H 0.09839 0.22447 0.25466 0.0
C617 C 1.00439 0.28671 0.25298 0.0
C618 C 0.26405 0.96639 0.25364 0.0
C619 C 0.21301 0.98109 0.25439 0.0
H620 H 0.34841 0.97446 0.25263 0.0
C621 C 0.20871 0.01648 0.25467 0.0
H622 H 0.26884 0.9392 0.25338 0.0
C623 C 0.2544 0.0367 0.25422 0.0
C624 C 0.30544 0.022 0.25346 0.0
H625 H 0.17004 0.02864 0.25523 0.0
H626 H 0.24961 0.06389 0.25447 0.0
C627 C 0.30974 0.98661 0.25319 0.0
C628 C 0.05925 0.01593 1.0029 0.0
C629 C 0.05499 0.98054 1.0033 0.0
H630 H 0.0183 0.06333 1.00296 0.0
C631 C 1.00396 0.96583 0.00413 0.0
H632 H 0.0979 0.0281 1.00228 0.0
C633 C 0.95825 0.98604 0.00455 0.0
C634 C 0.96251 0.02143 0.00414 0.0
H635 H 0.9992 0.93864 0.00449 0.0
H636 H 0.91959 0.97387 0.00517 0.0
C637 C 0.01354 0.03614 1.00331 0.0
C638 C 0.30927 0.26593 0.00422 0.0
C639 C 0.30496 0.23054 0.004 0.0
H640 H 0.26838 0.31334 0.00395 0.0
C641 C 0.25392 0.21584 1.0033 0.0
H642 H 0.34794 0.27808 0.00473 0.0
C643 C 0.20823 0.23606 1.00283 0.0
C644 C 0.21253 0.27145 1.00305 0.0
H645 H 0.24912 0.18865 1.00309 0.0
H646 H 0.16956 0.22391 1.00232 0.0
C647 C 0.26358 0.28615 0.00375 0.0
C648 C 0.95784 0.76548 0.75319 0.0
C649 C 0.96213 0.73009 0.75349 0.0
H650 H 0.99875 0.81288 0.75337 0.0
C651 C 0.01317 0.71539 0.75427 0.0
H652 H 0.91917 0.77764 0.75262 0.0
C653 C 0.05886 0.7356 0.75472 0.0
C654 C 0.05457 0.77099 0.75441 0.0
H655 H 0.01795 0.6882 0.75454 0.0
H656 H 0.09753 0.72345 0.75529 0.0
C657 C 1.00353 0.78569 0.75364 0.0
C658 C 0.70766 0.01577 0.75407 0.0
C659 C 0.71195 0.98038 0.75374 0.0
H660 H 0.74857 0.06318 0.75396 0.0
C661 C 0.76299 0.96568 0.75296 0.0
H662 H 0.66899 0.02792 0.75465 0.0
C663 C 0.80868 0.9859 0.75254 0.0
C664 C 0.8044 0.02129 0.75288 0.0
H665 H 0.76778 0.93849 0.75266 0.0
H666 H 0.84735 0.97374 0.75197 0.0
C667 C 0.75335 0.03599 0.75365 0.0
C668 C 0.70834 0.73622 1.00283 0.0
C669 C 0.71264 0.77161 1.00304 0.0
H670 H 0.74923 0.68881 1.00311 0.0
C671 C 0.76368 0.78631 0.00373 0.0
H672 H 0.66966 0.72407 1.00232 0.0
C673 C 0.80937 0.76609 0.00421 0.0
C674 C 0.80507 0.7307 0.004 0.0
H675 H 0.76847 0.8135 0.00393 0.0
H676 H 0.84804 0.77824 0.00472 0.0
C677 C 0.75402 0.716 1.00331 0.0
C678 C 0.25357 0.53567 0.75356 0.0
C679 C 0.3046 0.52096 0.75281 0.0
H680 H 0.16921 0.52764 0.75456 0.0
C681 C 0.30887 0.48557 0.75251 0.0
H682 H 0.2488 0.56286 0.75383 0.0
C683 C 0.26317 0.46536 0.75295 0.0
C684 C 0.21213 0.48008 0.7537 0.0
H685 H 0.34753 0.4734 0.75195 0.0
H686 H 0.26793 0.43817 0.75268 0.0
C687 C 0.20787 0.51547 0.754 0.0
C688 C 0.95835 0.48618 0.50424 0.0
C689 C 0.96264 0.52157 0.50404 0.0
H690 H 0.99926 0.43878 0.50396 0.0
C691 C 0.01368 0.53628 0.50336 0.0
H692 H 0.91968 0.47402 0.50474 0.0
C693 C 0.05937 0.51606 0.50289 0.0
C694 C 0.05508 0.48067 0.50308 0.0
H695 H 0.01846 0.56347 0.50317 0.0
H696 H 0.09804 0.52822 0.50239 0.0
C697 C 1.00404 0.46597 0.50376 0.0
C698 C 0.25396 0.71585 0.50316 0.0
C699 C 0.305 0.73055 0.504 0.0
H700 H 0.1696 0.72391 0.50215 0.0
C701 C 0.30928 0.76594 0.50444 0.0
H702 H 0.24919 0.68866 0.50278 0.0
C703 C 0.26359 0.78615 0.50406 0.0
C704 C 0.21255 0.77145 0.50322 0.0
H705 H 0.34795 0.77809 0.50507 0.0
H706 H 0.26837 0.81334 0.50444 0.0
C707 C 0.20827 0.73606 0.50278 0.0
C708 C 0.7543 0.53687 0.2542 0.0
C709 C 0.80534 0.52217 0.25344 0.0
H710 H 0.66994 0.52882 0.25519 0.0
C711 C 0.80962 0.48678 0.25313 0.0
H712 H 0.74953 0.56406 0.25447 0.0
C713 C 0.76393 0.46656 0.25356 0.0
C714 C 0.71289 0.48127 0.25431 0.0
H715 H 0.84829 0.47462 0.25256 0.0
H716 H 0.76871 0.43937 0.25328 0.0
C717 C 0.70861 0.51666 0.25463 0.0
C718 C 0.76381 0.28653 0.50406 0.0
C719 C 0.71278 0.27181 0.50323 0.0
H720 H 0.84818 0.2785 0.5051 0.0
C721 C 0.70854 0.23642 0.50284 0.0
H722 H 0.76856 0.31372 0.5044 0.0
C723 C 0.75425 0.21622 0.50326 0.0
C724 C 0.80527 0.23094 0.50409 0.0
H725 H 0.66989 0.22424 0.50222 0.0
H726 H 0.7495 0.18903 0.50292 0.0
C727 C 0.80952 0.26633 0.50448 0.0
C728 C 0.51294 0.21574 0.75421 0.0
C729 C 0.4619 0.23045 0.75347 0.0
H730 H 0.5973 0.22379 0.75519 0.0
C731 C 0.45763 0.26584 0.75319 0.0
H732 H 0.51772 0.18855 0.75447 0.0
C733 C 0.50333 0.28605 0.75362 0.0
C734 C 0.55436 0.27134 0.75435 0.0
H735 H 0.41896 0.278 0.75264 0.0
H736 H 0.49855 0.31324 0.75336 0.0
C737 C 0.55863 0.23595 0.75465 0.0
C738 C 0.45855 0.98652 0.50425 0.0
C739 C 0.46287 0.02191 0.50403 0.0
H740 H 0.4994 0.9391 0.50399 0.0
C741 C 0.51393 0.03659 0.50333 0.0
H742 H 0.41987 0.97438 0.50477 0.0
C743 C 0.5596 0.01635 0.50286 0.0
C744 C 0.55527 0.98096 0.50308 0.0
H745 H 0.51874 0.06378 0.50312 0.0
H746 H 0.59828 0.02849 0.50234 0.0
C747 C 0.50421 0.96629 0.50378 0.0
C748 C 0.50434 0.78684 0.25299 0.0
C749 C 0.55538 0.77213 0.25376 0.0
H750 H 0.41998 0.77879 0.25197 0.0
C751 C 0.55965 0.73674 0.25407 0.0
H752 H 0.49957 0.81403 0.25271 0.0
C753 C 0.51396 0.71653 0.25362 0.0
C754 C 0.46292 0.73124 0.25285 0.0
H755 H 0.59832 0.72458 0.25464 0.0
H756 H 0.51873 0.68934 0.2539 0.0
C757 C 0.45864 0.76663 0.25254 0.0
C758 C 0.55939 0.51618 1.00279 0.0
C759 C 0.55513 0.48079 1.00321 0.0
H760 H 0.51844 0.56357 1.00281 0.0
C761 C 0.5041 0.46607 0.00404 0.0
H762 H 0.59805 0.52834 1.00217 0.0
C763 C 0.4584 0.48628 0.00443 0.0
C764 C 0.46265 0.52167 0.004 0.0
H765 H 0.49934 0.43888 0.00441 0.0
H766 H 0.41974 0.47411 0.00505 0.0
C767 C 0.51368 0.53638 1.00318 0.0
C768 C 0.14543 0.40864 0.39178 0.0
C769 C 0.14565 0.37997 0.41137 0.0
H770 H 0.14545 0.42767 0.34447 0.0
C771 C 0.14436 0.34776 0.39758 0.0
H772 H 0.14609 0.43381 0.40181 0.0
C773 C 0.14499 0.34429 0.3648 0.0
C774 C 0.14566 0.37296 0.34521 0.0
H775 H 0.14462 0.32526 0.4121 0.0
H776 H 0.1453 0.31913 0.35477 0.0
C777 C 0.14482 0.40517 0.35899 0.0
C778 C 0.12371 0.84778 0.35953 0.0
C779 C 0.12235 0.88004 0.34586 0.0
H780 H 0.12282 0.81896 0.40224 0.0
C781 C 0.12246 0.90863 0.36556 0.0
H782 H 0.12354 0.82533 0.34493 0.0
C783 C 0.12306 0.90502 0.39833 0.0
C784 C 0.12231 0.87275 0.41199 0.0
H785 H 0.12173 0.93384 0.35563 0.0
H786 H 0.12235 0.92746 0.41294 0.0
C787 C 0.12307 0.84417 0.3923 0.0
C788 C 0.144 0.90432 0.85954 0.0
C789 C 0.14518 0.87206 0.84587 0.0
H790 H 0.14507 0.93314 0.90225 0.0
C791 C 0.14491 0.84347 0.86555 0.0
H792 H 0.1443 0.92677 0.84494 0.0
C793 C 0.14435 0.84707 0.89833 0.0
C794 C 0.14529 0.87934 0.912 0.0
H795 H 0.14549 0.81827 0.85561 0.0
H796 H 0.14493 0.82463 0.91293 0.0
C797 C 0.14467 0.90793 0.89231 0.0
C798 C 0.1228 0.34699 0.85899 0.0
C799 C 0.12185 0.3792 0.8452 0.0
H800 H 0.12168 0.31836 0.90181 0.0
C801 C 0.12248 0.40787 0.86479 0.0
H802 H 0.12222 0.32448 0.84446 0.0
C803 C 0.12317 0.4044 0.89757 0.0
C804 C 0.12199 0.3722 0.91136 0.0
H805 H 0.12208 0.43303 0.85476 0.0
H806 H 0.12287 0.42691 0.91209 0.0
C807 C 0.12226 0.34352 0.89177 0.0
C808 C 0.87254 0.65789 0.64236 0.0
C809 C 0.87197 0.62921 0.66193 0.0
H810 H 0.87286 0.67696 0.59506 0.0
C811 C 0.87296 0.59701 0.64813 0.0
H812 H 0.87211 0.68306 0.6524 0.0
C813 C 0.87239 0.59356 0.61535 0.0
C814 C 0.87206 0.62225 0.59577 0.0
H815 H 0.87241 0.5745 0.66265 0.0
H816 H 0.87184 0.5684 0.6053 0.0
C817 C 0.8732 0.65445 0.60958 0.0
C818 C 0.89482 0.09388 0.64186 0.0
C819 C 0.89522 0.12246 0.66156 0.0
H820 H 0.89482 0.07506 0.59447 0.0
C821 C 0.8943 0.15473 0.64791 0.0
H822 H 0.89522 0.06867 0.65179 0.0
C823 C 0.89508 0.15835 0.61514 0.0
C824 C 0.89555 0.12977 0.59543 0.0
H825 H 0.89471 0.17717 0.66252 0.0
H826 H 0.89566 0.18356 0.60521 0.0
C827 C 0.89437 0.0975 0.60909 0.0
C828 C 0.87261 0.15853 0.14187 0.0
C829 C 0.87229 0.12996 0.16158 0.0
H830 H 0.87262 0.17735 0.09449 0.0
C831 C 0.87339 0.09769 0.14792 0.0
H832 H 0.87208 0.18375 0.1518 0.0
C833 C 0.8727 0.09406 0.11515 0.0
C834 C 0.87214 0.12264 0.09545 0.0
H835 H 0.87304 0.07525 0.16254 0.0
H836 H 0.87225 0.06885 0.10523 0.0
C837 C 0.87315 0.15491 0.1091 0.0
C838 C 0.89432 0.59782 0.10957 0.0
C839 C 0.89554 0.63002 0.09577 0.0
H840 H 0.89532 0.56921 0.15239 0.0
C841 C 0.89526 0.6587 0.11534 0.0
H842 H 0.89462 0.57531 0.09506 0.0
C843 C 0.89466 0.65525 0.14813 0.0
C844 C 0.89558 0.62305 0.16192 0.0
H845 H 0.89587 0.68386 0.1053 0.0
H846 H 0.89525 0.67776 0.16264 0.0
C847 C 0.89495 0.59437 0.14235 0.0
C848 C 0.64476 0.40819 0.89225 0.0
C849 C 0.64533 0.3796 0.91192 0.0
H850 H 0.6444 0.42706 0.84488 0.0
C851 C 0.64432 0.34734 0.89825 0.0
H852 H 0.64521 0.4334 0.90219 0.0
C853 C 0.64485 0.34375 0.86547 0.0
C854 C 0.64516 0.37235 0.84579 0.0
H855 H 0.64486 0.32489 0.91284 0.0
H856 H 0.64538 0.31854 0.85552 0.0
C857 C 0.64406 0.4046 0.85947 0.0
C858 C 0.6231 0.9046 0.89761 0.0
C859 C 0.62199 0.87239 0.91138 0.0
H860 H 0.62195 0.93325 0.85481 0.0
C861 C 0.62233 0.84372 0.89179 0.0
H862 H 0.62275 0.9271 0.91214 0.0
C863 C 0.62287 0.8472 0.859 0.0
C864 C 0.62185 0.87942 0.84523 0.0
H865 H 0.6218 0.81855 0.90181 0.0
H866 H 0.62234 0.82471 0.84447 0.0
C867 C 0.62241 0.90808 0.86483 0.0
C868 C 0.64434 0.84793 0.39762 0.0
C869 C 0.64569 0.88014 0.41139 0.0
H870 H 0.64523 0.81927 0.35483 0.0
C871 C 0.64554 0.90881 0.39179 0.0
H872 H 0.64454 0.82544 0.41216 0.0
C873 C 0.64493 0.90532 0.359 0.0
C874 C 0.64571 0.8731 0.34524 0.0
H875 H 0.64625 0.93398 0.4018 0.0
H876 H 0.64561 0.92781 0.34446 0.0
C877 C 0.64497 0.84444 0.36484 0.0
C878 C 0.62299 0.34439 0.39222 0.0
C879 C 0.62234 0.37298 0.41191 0.0
H880 H 0.62333 0.32553 0.34486 0.0
C881 C 0.6232 0.40524 0.39823 0.0
H882 H 0.62266 0.31918 0.40217 0.0
C883 C 0.62258 0.40883 0.36546 0.0
C884 C 0.62234 0.38024 0.34577 0.0
H885 H 0.62259 0.42769 0.41283 0.0
H886 H 0.62193 0.43404 0.35551 0.0
C887 C 0.62361 0.34798 0.35945 0.0
C888 C 0.37253 0.6588 0.14164 0.0
C889 C 0.37229 0.63021 0.16134 0.0
H890 H 0.37253 0.67763 0.09426 0.0
C891 C 0.37352 0.59795 0.14767 0.0
H892 H 0.3719 0.68401 0.15158 0.0
C893 C 0.37289 0.59434 0.1149 0.0
C894 C 0.37225 0.62293 0.09521 0.0
H895 H 0.37324 0.5755 0.16227 0.0
H896 H 0.37254 0.56913 0.10496 0.0
C897 C 0.37313 0.65519 0.10887 0.0
C898 C 0.39504 0.09413 0.14224 0.0
C899 C 0.39559 0.12281 0.16181 0.0
H900 H 0.39473 0.07506 0.09495 0.0
C901 C 0.39455 0.15501 0.14801 0.0
H902 H 0.39551 0.06897 0.15229 0.0
C903 C 0.39509 0.15846 0.11523 0.0
C904 C 0.39545 0.12978 0.09566 0.0
H905 H 0.39506 0.17753 0.16253 0.0
H906 H 0.3956 0.18362 0.10519 0.0
C907 C 0.39436 0.09758 0.10946 0.0
C908 C 0.37232 0.15835 0.64226 0.0
C909 C 0.37189 0.12967 0.66183 0.0
H910 H 0.37263 0.17742 0.59496 0.0
C911 C 0.37317 0.09747 0.64803 0.0
H912 H 0.37167 0.18351 0.6523 0.0
C913 C 0.37273 0.09402 0.61525 0.0
C914 C 0.37225 0.12271 0.59567 0.0
H915 H 0.37277 0.07496 0.66254 0.0
H916 H 0.3724 0.06886 0.6052 0.0
C917 C 0.37311 0.15491 0.60947 0.0
C918 C 0.3951 0.59339 0.64163 0.0
C919 C 0.39528 0.62198 0.66133 0.0
H920 H 0.39516 0.57456 0.59425 0.0
C921 C 0.39401 0.65424 0.64766 0.0
H922 H 0.39576 0.56818 0.65157 0.0
C923 C 0.39466 0.65785 0.61489 0.0
C924 C 0.39536 0.62927 0.5952 0.0
H925 H 0.39424 0.67669 0.66226 0.0
H926 H 0.39498 0.68306 0.60496 0.0
C927 C 0.39452 0.597 0.60886 0.0
C928 C 0.34117 0.39908 0.25343 0.0
C929 C 0.33136 0.36408 0.25343 0.0
H930 H 0.39946 0.43861 0.25357 0.0
C931 C 0.37495 0.3418 0.25349 0.0
H932 H 0.30852 0.41699 0.2534 0.0
C933 C 0.42712 0.35424 0.25357 0.0
C934 C 0.43694 0.38925 0.25363 0.0
H935 H 0.36885 0.31472 0.25349 0.0
H936 H 0.45977 0.33634 0.25364 0.0
C937 C 0.39335 0.41152 0.25354 0.0
C938 C 0.87495 0.84175 0.25355 0.0
C939 C 0.8314 0.86405 0.25347 0.0
H940 H 0.95977 0.83623 0.25373 0.0
C941 C 0.84127 0.89905 0.25346 0.0
H942 H 0.8688 0.81467 0.25356 0.0
C943 C 0.89346 0.91146 0.25357 0.0
C944 C 0.93702 0.88915 0.25368 0.0
H945 H 0.80865 0.91698 0.2534 0.0
H946 H 0.89961 0.93854 0.25359 0.0
C947 C 0.92714 0.85415 0.25364 0.0
C948 C 0.34092 0.85367 0.00379 0.0
C949 C 0.33105 0.88867 0.00371 0.0
H950 H 0.39927 0.81419 0.00375 0.0
C951 C 0.3746 0.91097 0.0036 0.0
H952 H 0.30831 0.83574 0.00386 0.0
C953 C 0.42679 0.89857 0.00355 0.0
C954 C 0.43667 0.86357 0.00358 0.0
H955 H 0.36844 0.93805 1.00355 0.0
H956 H 0.45941 0.9165 1.00345 0.0
C957 C 0.39312 0.84127 0.00371 0.0
C958 C 0.89306 0.34129 0.00369 0.0
C959 C 0.93665 0.36356 0.00356 0.0
H960 H 0.80823 0.33584 0.00383 0.0
C961 C 0.92685 0.39857 1.00352 0.0
H962 H 0.89915 0.31421 0.00372 0.0
C963 C 0.87468 0.41102 0.00357 0.0
C964 C 0.83108 0.38875 0.00367 0.0
H965 H 0.95951 0.41647 1.00342 0.0
H966 H 0.86858 0.4381 1.00351 0.0
C967 C 0.84089 0.35374 0.00375 0.0
C968 C 0.67635 0.60305 0.75369 0.0
C969 C 0.68619 0.63806 0.7537 0.0
H970 H 0.61805 0.56354 0.75355 0.0
C971 C 0.64261 0.66034 0.75364 0.0
H972 H 0.70899 0.58514 0.75373 0.0
C973 C 0.59043 0.64791 0.75356 0.0
C974 C 0.58059 0.61291 0.7535 0.0
H975 H 0.64873 0.68742 0.75365 0.0
H976 H 0.55779 0.66583 0.75349 0.0
C977 C 0.62417 0.59063 0.75358 0.0
C978 C 0.12399 0.09094 0.75362 0.0
C979 C 0.08041 0.11323 0.75363 0.0
H980 H 0.20881 0.08546 0.75363 0.0
C981 C 0.09024 0.14823 0.75372 0.0
H982 H 0.11787 0.06386 0.75356 0.0
C983 C 0.14242 0.16066 0.75375 0.0
C984 C 0.186 0.13837 0.75371 0.0
H985 H 0.0576 0.16614 0.75373 0.0
H986 H 0.14854 0.18774 0.75379 0.0
C987 C 0.17617 0.10337 0.75367 0.0
C988 C 0.59073 0.10349 0.00365 0.0
C989 C 0.58089 0.1385 0.00359 0.0
H990 H 0.64905 0.06399 0.00374 0.0
C991 C 0.62446 0.16078 1.0035 0.0
H992 H 0.5581 0.08558 0.00372 0.0
C993 C 0.67665 0.14836 1.00349 0.0
C994 C 0.68649 0.11336 0.0036 0.0
H995 H 0.61834 0.18787 1.00345 0.0
H996 H 0.70928 0.16628 1.00344 0.0
C997 C 0.64292 0.09107 0.00367 0.0
C998 C 0.14303 0.59126 0.00359 0.0
C999 C 0.1866 0.61355 1.00347 0.0
H1000 H 0.05822 0.58575 0.00376 0.0
C1001 C 0.17674 0.64855 1.00336 0.0
H1002 H 0.14917 0.56417 0.00367 0.0
C1003 C 0.12455 0.66097 1.00343 0.0
C1004 C 0.08099 0.63867 0.00358 0.0
H1005 H 0.20936 0.66647 1.00327 0.0
H1006 H 0.11841 0.68805 1.00338 0.0
C1007 C 0.09084 0.60367 0.00364 0.0
C1008 C 0.42628 0.85323 0.7535 0.0
C1009 C 0.43607 0.88824 0.75347 0.0
H1010 H 0.36802 0.8137 0.75367 0.0
C1011 C 0.39247 0.91051 0.75352 0.0
H1012 H 0.45894 0.83534 0.75347 0.0
C1013 C 0.3403 0.89805 0.75362 0.0
C1014 C 0.33051 0.86305 0.7537 0.0
H1015 H 0.39855 0.93759 0.7535 0.0
H1016 H 0.30764 0.91595 0.75368 0.0
C1017 C 0.37411 0.84078 0.75362 0.0
C1018 C 0.87399 0.34082 0.75355 0.0
C1019 C 0.83045 0.36314 0.75363 0.0
H1020 H 0.9588 0.33527 0.75341 0.0
C1021 C 0.84036 0.39814 0.75356 0.0
H1022 H 0.86781 0.31374 0.75359 0.0
C1023 C 0.89256 0.41052 0.75347 0.0
C1024 C 0.93609 0.3882 0.75342 0.0
H1025 H 0.80775 0.41608 0.75361 0.0
H1026 H 0.89873 0.4376 0.75345 0.0
C1027 C 0.92619 0.35321 0.75344 0.0
C1028 C 0.34094 0.35372 0.50349 0.0
C1029 C 0.33105 0.38872 0.50355 0.0
H1030 H 0.39929 0.31424 0.50345 0.0
C1031 C 0.3746 0.41102 0.50369 0.0
H1032 H 0.30832 0.33579 0.50338 0.0
C1033 C 0.4268 0.39863 0.50375 0.0
C1034 C 0.43668 0.36363 0.50365 0.0
H1035 H 0.36844 0.4381 0.50375 0.0
H1036 H 0.45941 0.41656 0.50384 0.0
C1037 C 0.39313 0.34132 0.50353 0.0
C1038 C 0.89301 0.84127 0.50359 0.0
C1039 C 0.93662 0.86353 0.50372 0.0
H1040 H 0.80818 0.83584 0.50341 0.0
C1041 C 0.92684 0.89854 0.50383 0.0
H1042 H 0.89909 0.81418 0.5035 0.0
C1043 C 0.87467 0.911 0.50376 0.0
C1044 C 0.83106 0.88874 0.5036 0.0
H1045 H 0.9595 0.91643 0.50393 0.0
H1046 H 0.8686 0.93809 0.50382 0.0
C1047 C 0.84084 0.85373 0.50354 0.0
C1048 C 0.59123 0.14903 0.25369 0.0
C1049 C 0.58138 0.11403 0.25369 0.0
H1050 H 0.64955 0.18853 0.25361 0.0
C1051 C 0.62495 0.09174 0.2537 0.0
H1052 H 0.55859 0.16695 0.25368 0.0
C1053 C 0.67714 0.10416 0.25369 0.0
C1054 C 0.68699 0.13916 0.25363 0.0
H1055 H 0.61883 0.06466 0.25371 0.0
H1056 H 0.70977 0.08624 0.25367 0.0
C1057 C 0.64342 0.16145 0.25365 0.0
C1058 C 0.09117 0.64916 0.25368 0.0
C1059 C 0.08132 0.61415 0.25369 0.0
H1060 H 0.14949 0.68866 0.25354 0.0
C1061 C 0.12489 0.59186 0.25363 0.0
H1062 H 0.05854 0.66707 0.25372 0.0
C1063 C 0.17708 0.60428 0.25355 0.0
C1064 C 0.18693 0.63928 0.25349 0.0
H1065 H 0.11876 0.56478 0.25364 0.0
H1066 H 0.20971 0.58636 0.25349 0.0
C1067 C 0.14336 0.66157 0.25357 0.0
C1068 C 0.67679 0.64853 0.50363 0.0
C1069 C 0.68666 0.61353 0.50358 0.0
H1070 H 0.61844 0.68802 0.50366 0.0
C1071 C 0.6431 0.59123 0.50343 0.0
H1072 H 0.70941 0.66645 0.50375 0.0
C1073 C 0.59091 0.60364 0.50336 0.0
C1074 C 0.58104 0.63864 0.50346 0.0
H1075 H 0.64925 0.56415 0.50338 0.0
H1076 H 0.55829 0.58571 0.50327 0.0
C1077 C 0.62459 0.66094 0.50358 0.0
C1078 C 0.09117 0.10403 0.50352 0.0
C1079 C 0.08131 0.13903 0.50359 0.0
H1080 H 0.1495 0.06454 0.5035 0.0
C1081 C 0.12487 0.16133 0.50363 0.0
H1082 H 0.05854 0.08611 0.50349 0.0
C1083 C 0.17706 0.14891 0.50362 0.0
C1084 C 0.18692 0.11391 0.5036 0.0
H1085 H 0.11873 0.18841 0.50368 0.0
H1086 H 0.20969 0.16683 0.50368 0.0
C1087 C 0.14336 0.09162 0.50353 0.0
loop_
_geom_bond_atom_site_label_1
_geom_bond_atom_site_label_2
_geom_bond_distance
_geom_bond_site_symmetry_2
_ccdc_geom_bond_type
C0 O2 1.247 . S
C0 O4 1.258 . S
C1 O8 1.247 . S
C1 O9 1.258 . S
O2 C0 1.247 . S
O2 Zn3 2.028 . S
Zn3 O2 2.028 . S
Zn3 O7 2.035 . S
Zn3 O9 2.035 . S
Zn3 O10 2.028 . S
O4 C0 1.258 . S
O4 Zn5 2.035 . S
Zn5 O4 2.035 . S
Zn5 O6 2.028 . S
Zn5 O8 2.028 . S
Zn5 O11 2.035 . S
O6 Zn5 2.028 . S
O6 C12 1.247 . S
O7 Zn3 2.035 . S
O7 C12 1.258 . S
O8 C1 1.247 . S
O8 Zn5 2.028 . S
O9 C1 1.258 . S
O9 Zn3 2.035 . S
O10 Zn3 2.028 . S
O10 C13 1.247 . S
O11 Zn5 2.035 . S
O11 C13 1.258 . S
C12 O6 1.247 . S
C12 O7 1.258 . S
C13 O10 1.247 . S
C13 O11 1.258 . S
C14 O16 1.247 . S
C14 O18 1.258 . S
C15 O22 1.247 . S
C15 O23 1.258 . S
O16 C14 1.247 . S
O16 Zn17 2.028 . S
Zn17 O16 2.028 . S
Zn17 O21 2.035 . S
Zn17 O23 2.035 . S
Zn17 O24 2.028 1_455 S
O18 C14 1.258 . S
O18 Zn19 2.035 . S
Zn19 O18 2.035 . S
Zn19 O20 2.028 . S
Zn19 O22 2.028 . S
Zn19 O25 2.035 . S
O20 Zn19 2.028 . S
O20 C26 1.247 . S
O21 Zn17 2.035 . S
O21 C26 1.258 . S
O22 C15 1.247 . S
O22 Zn19 2.028 . S
O23 C15 1.258 . S
O23 Zn17 2.035 . S
O24 Zn17 2.028 1_655 S
O24 C27 1.247 . S
O25 Zn19 2.035 . S
O25 C27 1.258 1_455 S
C26 O20 1.247 . S
C26 O21 1.258 . S
C27 O24 1.247 . S
C27 O25 1.258 1_655 S
C28 O30 1.247 . S
C28 O32 1.258 . S
C29 O36 1.247 . S
C29 O37 1.258 . S
O30 C28 1.247 . S
O30 Zn31 2.028 . S
Zn31 O30 2.028 . S
Zn31 O35 2.035 . S
Zn31 O37 2.035 1_556 S
Zn31 O38 2.025 1_556 S
O32 C28 1.258 . S
O32 Zn33 2.035 1_556 S
Zn33 O32 2.035 1_554 S
Zn33 O34 2.028 1_554 S
Zn33 O36 2.028 . S
Zn33 O39 2.035 . S
O34 Zn33 2.028 1_556 S
O34 C40 1.247 . S
O35 Zn31 2.035 . S
O35 C40 1.258 . S
O36 C29 1.247 . S
O36 Zn33 2.028 . S
O37 C29 1.258 . S
O37 Zn31 2.035 1_554 S
O38 Zn31 2.025 1_554 S
O38 C41 1.248 . S
O39 Zn33 2.035 . S
O39 C41 1.258 . S
C40 O34 1.247 . S
C40 O35 1.258 . S
C41 O38 1.248 . S
C41 O39 1.258 . S
C42 O44 1.247 . S
C42 O46 1.258 . S
C43 O50 1.248 . S
C43 O51 1.258 1_655 S
O44 C42 1.247 . S
O44 Zn45 2.028 1_556 S
Zn45 O44 2.028 1_554 S
Zn45 O49 2.035 1_554 S
Zn45 O51 2.035 . S
Zn45 O52 2.028 . S
O46 C42 1.258 . S
O46 Zn47 2.035 . S
Zn47 O46 2.035 . S
Zn47 O48 2.028 . S
Zn47 O50 2.025 1_456 S
Zn47 O53 2.035 1_556 S
O48 Zn47 2.028 . S
O48 C54 1.247 . S
O49 Zn45 2.035 1_556 S
O49 C54 1.258 . S
O50 C43 1.248 . S
O50 Zn47 2.025 1_654 S
O51 C43 1.258 1_455 S
O51 Zn45 2.035 . S
O52 Zn45 2.028 . S
O52 C55 1.247 . S
O53 Zn47 2.035 1_554 S
O53 C55 1.258 . S
C54 O48 1.247 . S
C54 O49 1.258 . S
C55 O52 1.247 . S
C55 O53 1.258 . S
C56 O58 1.247 . S
C56 O60 1.258 . S
C57 O64 1.247 . S
C57 O65 1.258 . S
O58 C56 1.247 . S
O58 Zn59 2.028 . S
Zn59 O58 2.028 . S
Zn59 O63 2.035 . S
Zn59 O65 2.035 . S
Zn59 O66 2.028 . S
O60 C56 1.258 . S
O60 Zn61 2.035 . S
Zn61 O60 2.035 . S
Zn61 O62 2.028 . S
Zn61 O64 2.028 . S
Zn61 O67 2.035 . S
O62 Zn61 2.028 . S
O62 C68 1.247 . S
O63 Zn59 2.035 . S
O63 C68 1.258 . S
O64 C57 1.247 . S
O64 Zn61 2.028 . S
O65 C57 1.258 . S
O65 Zn59 2.035 . S
O66 Zn59 2.028 . S
O66 C69 1.247 . S
O67 Zn61 2.035 . S
O67 C69 1.258 . S
C68 O62 1.247 . S
C68 O63 1.258 . S
C69 O66 1.247 . S
C69 O67 1.258 . S
C70 O72 1.247 . S
C70 O74 1.258 . S
C71 O78 1.247 1_455 S
C71 O79 1.258 . S
O72 C70 1.247 . S
O72 Zn73 2.028 . S
Zn73 O72 2.028 . S
Zn73 O77 2.035 . S
Zn73 O79 2.035 1_655 S
Zn73 O80 2.028 . S
O74 C70 1.258 . S
O74 Zn75 2.035 . S
Zn75 O74 2.035 . S
Zn75 O76 2.028 . S
Zn75 O78 2.028 . S
Zn75 O81 2.035 . S
O76 Zn75 2.028 . S
O76 C82 1.247 . S
O77 Zn73 2.035 . S
O77 C82 1.258 . S
O78 C71 1.247 1_655 S
O78 Zn75 2.028 . S
O79 C71 1.258 . S
O79 Zn73 2.035 1_455 S
O80 Zn73 2.028 . S
O80 C83 1.247 . S
O81 Zn75 2.035 . S
O81 C83 1.258 . S
C82 O76 1.247 . S
C82 O77 1.258 . S
C83 O80 1.247 . S
C83 O81 1.258 . S
C84 O86 1.247 . S
C84 O88 1.258 . S
C85 O92 1.247 . S
C85 O93 1.258 . S
O86 C84 1.247 . S
O86 Zn87 2.028 1_554 S
Zn87 O86 2.028 1_556 S
Zn87 O91 2.035 1_556 S
Zn87 O93 2.035 . S
Zn87 O94 2.028 . S
O88 C84 1.258 . S
O88 Zn89 2.035 . S
Zn89 O88 2.035 . S
Zn89 O90 2.028 . S
Zn89 O92 2.028 1_554 S
Zn89 O95 2.034 1_554 S
O90 Zn89 2.028 . S
O90 C96 1.247 . S
O91 Zn87 2.035 1_554 S
O91 C96 1.258 . S
O92 C85 1.247 . S
O92 Zn89 2.028 1_556 S
O93 C85 1.258 . S
O93 Zn87 2.035 . S
O94 Zn87 2.028 . S
O94 C97 1.247 . S
O95 Zn89 2.034 1_556 S
O95 C97 1.259 . S
C96 O90 1.247 . S
C96 O91 1.258 . S
C97 O94 1.247 . S
C97 O95 1.259 . S
C98 O100 1.247 . S
C98 O102 1.258 . S
C99 O106 1.247 . S
C99 O107 1.258 . S
O100 C98 1.247 . S
O100 Zn101 2.028 . S
Zn101 O100 2.028 . S
Zn101 O105 2.035 . S
Zn101 O107 2.035 1_556 S
Zn101 O108 2.028 1_556 S
O102 C98 1.258 . S
O102 Zn103 2.035 1_556 S
Zn103 O102 2.035 1_554 S
Zn103 O104 2.025 1_654 S
Zn103 O106 2.028 . S
Zn103 O109 2.035 . S
O104 Zn103 2.025 1_456 S
O104 C110 1.248 . S
O105 Zn101 2.035 . S
O105 C110 1.258 1_655 S
O106 C99 1.247 . S
O106 Zn103 2.028 . S
O107 C99 1.258 . S
O107 Zn101 2.035 1_554 S
O108 Zn101 2.028 1_554 S
O108 C111 1.247 . S
O109 Zn103 2.035 . S
O109 C111 1.258 . S
C110 O104 1.248 . S
C110 O105 1.258 1_455 S
C111 O108 1.247 . S
C111 O109 1.258 . S
C112 O114 1.247 . S
C112 O116 1.258 . S
C113 O120 1.247 . S
C113 O121 1.258 . S
O114 C112 1.247 . S
O114 Zn115 2.028 . S
Zn115 O114 2.028 . S
Zn115 O119 2.035 . S
Zn115 O121 2.035 . S
Zn115 O122 2.028 . S
O116 C112 1.258 . S
O116 Zn117 2.035 . S
Zn117 O116 2.035 . S
Zn117 O118 2.028 . S
Zn117 O120 2.028 . S
Zn117 O123 2.035 . S
O118 Zn117 2.028 . S
O118 C124 1.247 . S
O119 Zn115 2.035 . S
O119 C124 1.258 . S
O120 C113 1.247 . S
O120 Zn117 2.028 . S
O121 C113 1.258 . S
O121 Zn115 2.035 . S
O122 Zn115 2.028 . S
O122 C125 1.247 . S
O123 Zn117 2.035 . S
O123 C125 1.258 . S
C124 O118 1.247 . S
C124 O119 1.258 . S
C125 O122 1.247 . S
C125 O123 1.258 . S
C126 O128 1.247 . S
C126 O130 1.258 . S
C127 O134 1.247 . S
C127 O135 1.258 . S
O128 C126 1.247 . S
O128 Zn129 2.028 . S
Zn129 O128 2.028 . S
Zn129 O133 2.035 1_455 S
Zn129 O135 2.035 . S
Zn129 O136 2.028 . S
O130 C126 1.258 . S
O130 Zn131 2.035 . S
Zn131 O130 2.035 . S
Zn131 O132 2.028 . S
Zn131 O134 2.028 . S
Zn131 O137 2.035 . S
O132 Zn131 2.028 . S
O132 C138 1.247 1_455 S
O133 Zn129 2.035 1_655 S
O133 C138 1.258 . S
O134 C127 1.247 . S
O134 Zn131 2.028 . S
O135 C127 1.258 . S
O135 Zn129 2.035 . S
O136 Zn129 2.028 . S
O136 C139 1.247 . S
O137 Zn131 2.035 . S
O137 C139 1.258 . S
C138 O132 1.247 1_655 S
C138 O133 1.258 . S
C139 O136 1.247 . S
C139 O137 1.258 . S
C140 O142 1.247 . S
C140 O144 1.258 . S
C141 O148 1.247 . S
C141 O149 1.258 . S
O142 C140 1.247 . S
O142 Zn143 2.028 . S
Zn143 O142 2.028 . S
Zn143 O147 2.035 . S
Zn143 O149 2.035 . S
Zn143 O150 2.028 . S
O144 C140 1.258 . S
O144 Zn145 2.035 . S
Zn145 O144 2.035 . S
Zn145 O146 2.028 . S
Zn145 O148 2.028 . S
Zn145 O151 2.035 . S
O146 Zn145 2.028 . S
O146 C152 1.247 . S
O147 Zn143 2.035 . S
O147 C152 1.258 . S
O148 C141 1.247 . S
O148 Zn145 2.028 . S
O149 C141 1.258 . S
O149 Zn143 2.035 . S
O150 Zn143 2.028 . S
O150 C153 1.247 . S
O151 Zn145 2.035 . S
O151 C153 1.258 . S
C152 O146 1.247 . S
C152 O147 1.258 . S
C153 O150 1.247 . S
C153 O151 1.258 . S
C154 O156 1.247 . S
C154 O158 1.258 . S
C155 O162 1.247 . S
C155 O163 1.258 . S
O156 C154 1.247 . S
O156 Zn157 2.028 . S
Zn157 O156 2.028 . S
Zn157 O161 2.035 . S
Zn157 O163 2.035 . S
Zn157 O164 2.028 1_455 S
O158 C154 1.258 . S
O158 Zn159 2.035 . S
Zn159 O158 2.035 . S
Zn159 O160 2.028 . S
Zn159 O162 2.028 . S
Zn159 O165 2.035 . S
O160 Zn159 2.028 . S
O160 C166 1.247 . S
O161 Zn157 2.035 . S
O161 C166 1.258 . S
O162 C155 1.247 . S
O162 Zn159 2.028 . S
O163 C155 1.258 . S
O163 Zn157 2.035 . S
O164 Zn157 2.028 1_655 S
O164 C167 1.247 . S
O165 Zn159 2.035 . S
O165 C167 1.258 1_455 S
C166 O160 1.247 . S
C166 O161 1.258 . S
C167 O164 1.247 . S
C167 O165 1.258 1_655 S
C168 O170 1.247 . S
C168 O172 1.258 . S
C169 O176 1.247 . S
C169 O177 1.258 . S
O170 C168 1.247 . S
O170 Zn171 2.028 . S
Zn171 O170 2.028 . S
Zn171 O175 2.035 . S
Zn171 O177 2.035 . S
Zn171 O178 2.028 . S
O172 C168 1.258 . S
O172 Zn173 2.035 . S
Zn173 O172 2.035 . S
Zn173 O174 2.028 . S
Zn173 O176 2.028 . S
Zn173 O179 2.035 . S
O174 Zn173 2.028 . S
O174 C180 1.247 . S
O175 Zn171 2.035 . S
O175 C180 1.258 . S
O176 C169 1.247 . S
O176 Zn173 2.028 . S
O177 C169 1.258 . S
O177 Zn171 2.035 . S
O178 Zn171 2.028 . S
O178 C181 1.247 . S
O179 Zn173 2.035 . S
O179 C181 1.258 . S
C180 O174 1.247 . S
C180 O175 1.258 . S
C181 O178 1.247 . S
C181 O179 1.258 . S
C182 O184 1.247 . S
C182 O186 1.258 . S
C183 O190 1.247 . S
C183 O191 1.258 . S
O184 C182 1.247 . S
O184 Zn185 2.028 . S
Zn185 O184 2.028 . S
Zn185 O189 2.035 . S
Zn185 O191 2.035 . S
Zn185 O192 2.028 . S
O186 C182 1.258 . S
O186 Zn187 2.035 . S
Zn187 O186 2.035 . S
Zn187 O188 2.028 . S
Zn187 O190 2.028 . S
Zn187 O193 2.035 1_655 S
O188 Zn187 2.028 . S
O188 C194 1.247 . S
O189 Zn185 2.035 . S
O189 C194 1.258 . S
O190 C183 1.247 . S
O190 Zn187 2.028 . S
O191 C183 1.258 . S
O191 Zn185 2.035 . S
O192 Zn185 2.028 . S
O192 C195 1.247 1_655 S
O193 Zn187 2.035 1_455 S
O193 C195 1.258 . S
C194 O188 1.247 . S
C194 O189 1.258 . S
C195 O192 1.247 1_455 S
C195 O193 1.258 . S
C196 O198 1.247 . S
C196 O200 1.258 . S
C197 O204 1.247 . S
C197 O205 1.258 . S
O198 C196 1.247 . S
O198 Zn199 2.028 . S
Zn199 O198 2.028 . S
Zn199 O203 2.035 . S
Zn199 O205 2.035 . S
Zn199 O206 2.028 . S
O200 C196 1.258 . S
O200 Zn201 2.035 . S
Zn201 O200 2.035 . S
Zn201 O202 2.028 . S
Zn201 O204 2.028 . S
Zn201 O207 2.035 . S
O202 Zn201 2.028 . S
O202 C208 1.247 . S
O203 Zn199 2.035 . S
O203 C208 1.258 . S
O204 C197 1.247 . S
O204 Zn201 2.028 . S
O205 C197 1.258 . S
O205 Zn199 2.035 . S
O206 Zn199 2.028 . S
O206 C209 1.247 . S
O207 Zn201 2.035 . S
O207 C209 1.258 . S
C208 O202 1.247 . S
C208 O203 1.258 . S
C209 O206 1.247 . S
C209 O207 1.258 . S
C210 O212 1.247 . S
C210 O214 1.258 1_455 S
C211 O218 1.247 . S
C211 O219 1.258 . S
O212 C210 1.247 . S
O212 Zn213 2.028 1_455 S
Zn213 O212 2.028 1_655 S
Zn213 O217 2.035 . S
Zn213 O219 2.035 . S
Zn213 O220 2.028 . S
O214 C210 1.258 1_655 S
O214 Zn215 2.035 . S
Zn215 O214 2.035 . S
Zn215 O216 2.028 . S
Zn215 O218 2.028 . S
Zn215 O221 2.035 . S
O216 Zn215 2.028 . S
O216 C222 1.247 . S
O217 Zn213 2.035 . S
O217 C222 1.258 . S
O218 C211 1.247 . S
O218 Zn215 2.028 . S
O219 C211 1.258 . S
O219 Zn213 2.035 . S
O220 Zn213 2.028 . S
O220 C223 1.247 . S
O221 Zn215 2.035 . S
O221 C223 1.258 . S
C222 O216 1.247 . S
C222 O217 1.258 . S
C223 O220 1.247 . S
C223 O221 1.258 . S
C224 O226 1.247 . S
C224 O228 1.258 . S
C225 O232 1.247 . S
C225 O233 1.258 . S
O226 C224 1.247 . S
O226 Zn227 2.028 . S
Zn227 O226 2.028 . S
Zn227 O231 2.035 . S
Zn227 O233 2.035 . S
Zn227 O234 2.028 . S
O228 C224 1.258 . S
O228 Zn229 2.035 . S
Zn229 O228 2.035 . S
Zn229 O230 2.028 . S
Zn229 O232 2.028 . S
Zn229 O235 2.035 . S
O230 Zn229 2.028 . S
O230 C236 1.247 . S
O231 Zn227 2.035 . S
O231 C236 1.258 . S
O232 C225 1.247 . S
O232 Zn229 2.028 . S
O233 C225 1.258 . S
O233 Zn227 2.035 . S
O234 Zn227 2.028 . S
O234 C237 1.247 . S
O235 Zn229 2.035 . S
O235 C237 1.258 . S
C236 O230 1.247 . S
C236 O231 1.258 . S
C237 O234 1.247 . S
C237 O235 1.258 . S
C238 O240 1.247 . S
C238 O242 1.258 . S
C239 O246 1.247 . S
C239 O247 1.258 . S
O240 C238 1.247 . S
O240 Zn241 2.028 . S
Zn241 O240 2.028 . S
Zn241 O245 2.035 . S
Zn241 O247 2.035 . S
Zn241 O248 2.028 . S
O242 C238 1.258 . S
O242 Zn243 2.035 . S
Zn243 O242 2.035 . S
Zn243 O244 2.028 . S
Zn243 O246 2.028 . S
Zn243 O249 2.035 . S
O244 Zn243 2.028 . S
O244 C250 1.247 . S
O245 Zn241 2.035 . S
O245 C250 1.258 . S
O246 C239 1.247 . S
O246 Zn243 2.028 . S
O247 C239 1.258 . S
O247 Zn241 2.035 . S
O248 Zn241 2.028 . S
O248 C251 1.247 . S
O249 Zn243 2.035 . S
O249 C251 1.258 . S
C250 O244 1.247 . S
C250 O245 1.258 . S
C251 O248 1.247 . S
C251 O249 1.258 . S
C252 O254 1.247 . S
C252 O256 1.258 . S
C253 O260 1.247 . S
C253 O261 1.258 . S
O254 C252 1.247 . S
O254 Zn255 2.028 . S
Zn255 O254 2.028 . S
Zn255 O259 2.035 . S
Zn255 O261 2.035 . S
Zn255 O262 2.028 . S
O256 C252 1.258 . S
O256 Zn257 2.035 . S
Zn257 O256 2.035 . S
Zn257 O258 2.028 . S
Zn257 O260 2.028 . S
Zn257 O263 2.035 . S
O258 Zn257 2.028 . S
O258 C264 1.247 . S
O259 Zn255 2.035 . S
O259 C264 1.258 . S
O260 C253 1.247 . S
O260 Zn257 2.028 . S
O261 C253 1.258 . S
O261 Zn255 2.035 . S
O262 Zn255 2.028 . S
O262 C265 1.247 . S
O263 Zn257 2.035 . S
O263 C265 1.258 . S
C264 O258 1.247 . S
C264 O259 1.258 . S
C265 O262 1.247 . S
C265 O263 1.258 . S
C266 O268 1.247 . S
C266 O270 1.258 . S
C267 O274 1.247 . S
C267 O275 1.258 . S
O268 C266 1.247 . S
O268 Zn269 2.028 . S
Zn269 O268 2.028 . S
Zn269 O273 2.035 . S
Zn269 O275 2.035 . S
Zn269 O276 2.028 . S
O270 C266 1.258 . S
O270 Zn271 2.035 . S
Zn271 O270 2.035 . S
Zn271 O272 2.028 . S
Zn271 O274 2.028 . S
Zn271 O277 2.035 . S
O272 Zn271 2.028 . S
O272 C278 1.247 . S
O273 Zn269 2.035 . S
O273 C278 1.258 . S
O274 C267 1.247 . S
O274 Zn271 2.028 . S
O275 C267 1.258 . S
O275 Zn269 2.035 . S
O276 Zn269 2.028 . S
O276 C279 1.247 . S
O277 Zn271 2.035 . S
O277 C279 1.258 . S
C278 O272 1.247 . S
C278 O273 1.258 . S
C279 O276 1.247 . S
C279 O277 1.258 . S
C280 O282 1.247 . S
C280 O284 1.258 . S
C281 O288 1.247 . S
C281 O289 1.258 . S
O282 C280 1.247 . S
O282 Zn283 2.028 . S
Zn283 O282 2.028 . S
Zn283 O287 2.035 . S
Zn283 O289 2.035 . S
Zn283 O290 2.028 . S
O284 C280 1.258 . S
O284 Zn285 2.035 . S
Zn285 O284 2.035 . S
Zn285 O286 2.028 . S
Zn285 O288 2.028 . S
Zn285 O291 2.035 . S
O286 Zn285 2.028 . S
O286 C292 1.247 . S
O287 Zn283 2.035 . S
O287 C292 1.258 . S
O288 C281 1.247 . S
O288 Zn285 2.028 . S
O289 C281 1.258 . S
O289 Zn283 2.035 . S
O290 Zn283 2.028 . S
O290 C293 1.247 . S
O291 Zn285 2.035 . S
O291 C293 1.258 . S
C292 O286 1.247 . S
C292 O287 1.258 . S
C293 O290 1.247 . S
C293 O291 1.258 . S
C294 O296 1.247 . S
C294 O298 1.258 . S
C295 O302 1.247 . S
C295 O303 1.258 . S
O296 C294 1.247 . S
O296 Zn297 2.028 . S
Zn297 O296 2.028 . S
Zn297 O301 2.035 . S
Zn297 O303 2.035 . S
Zn297 O304 2.028 . S
O298 C294 1.258 . S
O298 Zn299 2.035 . S
Zn299 O298 2.035 . S
Zn299 O300 2.028 . S
Zn299 O302 2.028 . S
Zn299 O305 2.035 . S
O300 Zn299 2.028 . S
O300 C306 1.247 . S
O301 Zn297 2.035 . S
O301 C306 1.258 . S
O302 C295 1.247 . S
O302 Zn299 2.028 . S
O303 C295 1.258 . S
O303 Zn297 2.035 . S
O304 Zn297 2.028 . S
O304 C307 1.247 . S
O305 Zn299 2.035 . S
O305 C307 1.258 . S
C306 O300 1.247 . S
C306 O301 1.258 . S
C307 O304 1.247 . S
C307 O305 1.258 . S
C308 O310 1.247 . S
C308 O312 1.258 . S
C309 O316 1.247 . S
C309 O317 1.258 . S
O310 C308 1.247 . S
O310 Zn311 2.028 . S
Zn311 O310 2.028 . S
Zn311 O315 2.035 . S
Zn311 O317 2.035 . S
Zn311 O318 2.028 . S
O312 C308 1.258 . S
O312 Zn313 2.035 . S
Zn313 O312 2.035 . S
Zn313 O314 2.028 . S
Zn313 O316 2.028 . S
Zn313 O319 2.035 . S
O314 Zn313 2.028 . S
O314 C320 1.247 . S
O315 Zn311 2.035 . S
O315 C320 1.258 . S
O316 C309 1.247 . S
O316 Zn313 2.028 . S
O317 C309 1.258 . S
O317 Zn311 2.035 . S
O318 Zn311 2.028 . S
O318 C321 1.247 . S
O319 Zn313 2.035 . S
O319 C321 1.258 . S
C320 O314 1.247 . S
C320 O315 1.258 . S
C321 O318 1.247 . S
C321 O319 1.258 . S
C322 O324 1.247 . S
C322 O326 1.258 . S
C323 O330 1.247 . S
C323 O331 1.258 . S
O324 C322 1.247 . S
O324 Zn325 2.028 . S
Zn325 O324 2.028 . S
Zn325 O329 2.035 . S
Zn325 O331 2.035 . S
Zn325 O332 2.028 . S
O326 C322 1.258 . S
O326 Zn327 2.035 . S
Zn327 O326 2.035 . S
Zn327 O328 2.028 . S
Zn327 O330 2.028 . S
Zn327 O333 2.035 . S
O328 Zn327 2.028 . S
O328 C334 1.247 . S
O329 Zn325 2.035 . S
O329 C334 1.258 . S
O330 C323 1.247 . S
O330 Zn327 2.028 . S
O331 C323 1.258 . S
O331 Zn325 2.035 . S
O332 Zn325 2.028 . S
O332 C335 1.247 . S
O333 Zn327 2.035 . S
O333 C335 1.258 . S
C334 O328 1.247 . S
C334 O329 1.258 . S
C335 O332 1.247 . S
C335 O333 1.258 . S
C336 O338 1.247 . S
C336 O340 1.258 . S
C337 O344 1.247 . S
C337 O345 1.258 . S
O338 C336 1.247 . S
O338 Zn339 2.028 . S
Zn339 O338 2.028 . S
Zn339 O343 2.035 . S
Zn339 O345 2.035 . S
Zn339 O346 2.028 . S
O340 C336 1.258 . S
O340 Zn341 2.035 . S
Zn341 O340 2.035 . S
Zn341 O342 2.028 . S
Zn341 O344 2.028 . S
Zn341 O347 2.035 . S
O342 Zn341 2.028 . S
O342 C348 1.247 . S
O343 Zn339 2.035 . S
O343 C348 1.258 . S
O344 C337 1.247 . S
O344 Zn341 2.028 . S
O345 C337 1.258 . S
O345 Zn339 2.035 . S
O346 Zn339 2.028 . S
O346 C349 1.247 . S
O347 Zn341 2.035 . S
O347 C349 1.258 . S
C348 O342 1.247 . S
C348 O343 1.258 . S
C349 O346 1.247 . S
C349 O347 1.258 . S
C350 O352 1.247 . S
C350 O354 1.258 . S
C351 O358 1.247 . S
C351 O359 1.258 . S
O352 C350 1.247 . S
O352 Zn353 2.028 . S
Zn353 O352 2.028 . S
Zn353 O357 2.035 . S
Zn353 O359 2.035 . S
Zn353 O360 2.028 . S
O354 C350 1.258 . S
O354 Zn355 2.035 . S
Zn355 O354 2.035 . S
Zn355 O356 2.028 . S
Zn355 O358 2.028 . S
Zn355 O361 2.035 . S
O356 Zn355 2.028 . S
O356 C362 1.247 . S
O357 Zn353 2.035 . S
O357 C362 1.258 . S
O358 C351 1.247 . S
O358 Zn355 2.028 . S
O359 C351 1.258 . S
O359 Zn353 2.035 . S
O360 Zn353 2.028 . S
O360 C363 1.247 . S
O361 Zn355 2.035 . S
O361 C363 1.258 . S
C362 O356 1.247 . S
C362 O357 1.258 . S
C363 O360 1.247 . S
C363 O361 1.258 . S
C364 O366 1.247 . S
C364 O368 1.258 . S
C365 O372 1.247 . S
C365 O373 1.258 . S
O366 C364 1.247 . S
O366 Zn367 2.028 1_554 S
Zn367 O366 2.028 1_556 S
Zn367 O371 2.034 1_556 S
Zn367 O373 2.035 . S
Zn367 O374 2.028 . S
O368 C364 1.258 . S
O368 Zn369 2.035 . S
Zn369 O368 2.035 . S
Zn369 O370 2.028 . S
Zn369 O372 2.028 1_554 S
Zn369 O375 2.035 1_554 S
O370 Zn369 2.028 . S
O370 C376 1.247 . S
O371 Zn367 2.034 1_554 S
O371 C376 1.259 . S
O372 C365 1.247 . S
O372 Zn369 2.028 1_556 S
O373 C365 1.258 . S
O373 Zn367 2.035 . S
O374 Zn367 2.028 . S
O374 C377 1.247 . S
O375 Zn369 2.035 1_556 S
O375 C377 1.258 . S
C376 O370 1.247 . S
C376 O371 1.259 . S
C377 O374 1.247 . S
C377 O375 1.258 . S
C378 O380 1.247 . S
C378 O382 1.258 . S
C379 O386 1.247 . S
C379 O387 1.258 . S
O380 C378 1.247 . S
O380 Zn381 2.028 1_554 S
Zn381 O380 2.028 1_556 S
Zn381 O385 2.034 1_556 S
Zn381 O387 2.035 . S
Zn381 O388 2.028 . S
O382 C378 1.258 . S
O382 Zn383 2.035 . S
Zn383 O382 2.035 . S
Zn383 O384 2.028 . S
Zn383 O386 2.028 1_554 S
Zn383 O389 2.035 1_554 S
O384 Zn383 2.028 . S
O384 C390 1.247 . S
O385 Zn381 2.034 1_554 S
O385 C390 1.259 . S
O386 C379 1.247 . S
O386 Zn383 2.028 1_556 S
O387 C379 1.258 . S
O387 Zn381 2.035 . S
O388 Zn381 2.028 . S
O388 C391 1.247 . S
O389 Zn383 2.035 1_556 S
O389 C391 1.258 . S
C390 O384 1.247 . S
C390 O385 1.259 . S
C391 O388 1.247 . S
C391 O389 1.258 . S
C392 O394 1.247 . S
C392 O396 1.258 . S
C393 O400 1.247 . S
C393 O401 1.258 . S
O394 C392 1.247 . S
O394 Zn395 2.028 . S
Zn395 O394 2.028 . S
Zn395 O399 2.035 . S
Zn395 O401 2.035 . S
Zn395 O402 2.028 . S
O396 C392 1.258 . S
O396 Zn397 2.035 . S
Zn397 O396 2.035 . S
Zn397 O398 2.028 . S
Zn397 O400 2.028 . S
Zn397 O403 2.035 . S
O398 Zn397 2.028 . S
O398 C404 1.247 . S
O399 Zn395 2.035 . S
O399 C404 1.258 . S
O400 C393 1.247 . S
O400 Zn397 2.028 . S
O401 C393 1.258 . S
O401 Zn395 2.035 . S
O402 Zn395 2.028 . S
O402 C405 1.247 . S
O403 Zn397 2.035 . S
O403 C405 1.258 . S
C404 O398 1.247 . S
C404 O399 1.258 . S
C405 O402 1.247 . S
C405 O403 1.258 . S
C406 O408 1.247 . S
C406 O410 1.258 . S
C407 O414 1.247 . S
C407 O415 1.258 . S
O408 C406 1.247 . S
O408 Zn409 2.028 . S
Zn409 O408 2.028 . S
Zn409 O413 2.035 . S
Zn409 O415 2.035 . S
Zn409 O416 2.028 . S
O410 C406 1.258 . S
O410 Zn411 2.035 . S
Zn411 O410 2.035 . S
Zn411 O412 2.028 . S
Zn411 O414 2.028 . S
Zn411 O417 2.035 . S
O412 Zn411 2.028 . S
O412 C418 1.247 . S
O413 Zn409 2.035 . S
O413 C418 1.258 . S
O414 C407 1.247 . S
O414 Zn411 2.028 . S
O415 C407 1.258 . S
O415 Zn409 2.035 . S
O416 Zn409 2.028 . S
O416 C419 1.247 . S
O417 Zn411 2.035 . S
O417 C419 1.258 . S
C418 O412 1.247 . S
C418 O413 1.258 . S
C419 O416 1.247 . S
C419 O417 1.258 . S
C420 O422 1.247 . S
C420 O424 1.258 . S
C421 O428 1.247 . S
C421 O429 1.258 . S
O422 C420 1.247 . S
O422 Zn423 2.028 1_554 S
Zn423 O422 2.028 1_556 S
Zn423 O427 2.035 1_556 S
Zn423 O429 2.035 . S
Zn423 O430 2.028 . S
O424 C420 1.258 . S
O424 Zn425 2.035 . S
Zn425 O424 2.035 . S
Zn425 O426 2.028 . S
Zn425 O428 2.028 1_554 S
Zn425 O431 2.034 1_554 S
O426 Zn425 2.028 . S
O426 C432 1.247 . S
O427 Zn423 2.035 1_554 S
O427 C432 1.258 . S
O428 C421 1.247 . S
O428 Zn425 2.028 1_556 S
O429 C421 1.258 . S
O429 Zn423 2.035 . S
O430 Zn423 2.028 . S
O430 C433 1.247 . S
O431 Zn425 2.034 1_556 S
O431 C433 1.259 . S
C432 O426 1.247 . S
C432 O427 1.258 . S
C433 O430 1.247 . S
C433 O431 1.259 . S
C434 O436 1.247 . S
C434 O438 1.258 . S
C435 O442 1.247 . S
C435 O443 1.258 . S
O436 C434 1.247 . S
O436 Zn437 2.028 1_554 S
Zn437 O436 2.028 1_556 S
Zn437 O441 2.035 1_556 S
Zn437 O443 2.035 . S
Zn437 O444 2.028 . S
O438 C434 1.258 . S
O438 Zn439 2.035 . S
Zn439 O438 2.035 . S
Zn439 O440 2.028 . S
Zn439 O442 2.028 1_554 S
Zn439 O445 2.034 1_554 S
O440 Zn439 2.028 . S
O440 C446 1.247 . S
O441 Zn437 2.035 1_554 S
O441 C446 1.258 . S
O442 C435 1.247 . S
O442 Zn439 2.028 1_556 S
O443 C435 1.258 . S
O443 Zn437 2.035 . S
O444 Zn437 2.028 . S
O444 C447 1.247 . S
O445 Zn439 2.034 1_556 S
O445 C447 1.259 . S
C446 O440 1.247 . S
C446 O441 1.258 . S
C447 O444 1.247 . S
C447 O445 1.259 . S
C448 C449 1.387 . S
C448 H452 0.950 . S
C448 C457 1.390 . S
C449 C448 1.387 . S
C449 C451 1.387 . S
H450 C457 0.950 . S
C451 C449 1.387 . S
C451 C453 1.390 . S
C451 H455 0.950 . S
H452 C448 0.950 . S
C453 C451 1.390 . S
C453 C454 1.387 . S
C453 H456 0.950 . S
C454 C453 1.387 . S
C454 C457 1.387 . S
H455 C451 0.950 . S
H456 C453 0.950 . S
C457 C448 1.390 . S
C457 H450 0.950 . S
C457 C454 1.387 . S
C458 C459 1.387 . S
C458 H462 0.950 . S
C458 C467 1.390 . S
C459 C458 1.387 . S
C459 C461 1.387 . S
H460 C467 0.950 . S
C461 C459 1.387 . S
C461 C463 1.390 . S
C461 H465 0.950 . S
H462 C458 0.950 . S
C463 C461 1.390 . S
C463 C464 1.387 . S
C463 H466 0.950 . S
C464 C463 1.387 . S
C464 C467 1.387 . S
H465 C461 0.950 . S
H466 C463 0.950 . S
C467 C458 1.390 . S
C467 H460 0.950 . S
C467 C464 1.387 . S
C468 C469 1.387 . S
C468 H472 0.950 . S
C468 C477 1.390 . S
C469 C468 1.387 . S
C469 C471 1.387 . S
H470 C477 0.950 . S
C471 C469 1.387 . S
C471 C473 1.390 . S
C471 H475 0.950 . S
H472 C468 0.950 . S
C473 C471 1.390 . S
C473 C474 1.387 . S
C473 H476 0.950 . S
C474 C473 1.387 . S
C474 C477 1.387 . S
H475 C471 0.950 . S
H476 C473 0.950 . S
C477 C468 1.390 . S
C477 H470 0.950 . S
C477 C474 1.387 . S
C478 C479 1.387 . S
C478 H482 0.950 . S
C478 C487 1.390 . S
C479 C478 1.387 . S
C479 C481 1.387 . S
H480 C487 0.950 . S
C481 C479 1.387 . S
C481 C483 1.390 . S
C481 H485 0.950 . S
H482 C478 0.950 . S
C483 C481 1.390 . S
C483 C484 1.387 . S
C483 H486 0.950 . S
C484 C483 1.387 . S
C484 C487 1.387 . S
H485 C481 0.950 . S
H486 C483 0.950 . S
C487 C478 1.390 . S
C487 H480 0.950 . S
C487 C484 1.387 . S
C488 C489 1.387 . S
C488 H492 0.950 . S
C488 C497 1.390 . S
C489 C488 1.387 . S
C489 C491 1.387 . S
H490 C497 0.950 . S
C491 C489 1.387 . S
C491 C493 1.390 . S
C491 H495 0.950 . S
H492 C488 0.950 . S
C493 C491 1.390 . S
C493 C494 1.387 . S
C493 H496 0.950 . S
C494 C493 1.387 . S
C494 C497 1.387 . S
H495 C491 0.950 . S
H496 C493 0.950 . S
C497 C488 1.390 . S
C497 H490 0.950 . S
C497 C494 1.387 . S
C498 C499 1.387 . S
C498 H502 0.950 . S
C498 C507 1.390 . S
C499 C498 1.387 . S
C499 C501 1.387 . S
H500 C507 0.950 . S
C501 C499 1.387 . S
C501 C503 1.390 . S
C501 H505 0.950 . S
H502 C498 0.950 . S
C503 C501 1.390 . S
C503 C504 1.387 . S
C503 H506 0.950 . S
C504 C503 1.387 . S
C504 C507 1.387 . S
H505 C501 0.950 . S
H506 C503 0.950 . S
C507 C498 1.390 . S
C507 H500 0.950 . S
C507 C504 1.387 . S
C508 C509 1.387 . S
C508 H512 0.950 . S
C508 C517 1.390 . S
C509 C508 1.387 . S
C509 C511 1.387 . S
H510 C517 0.950 . S
C511 C509 1.387 . S
C511 C513 1.390 . S
C511 H515 0.950 . S
H512 C508 0.950 . S
C513 C511 1.390 . S
C513 C514 1.387 . S
C513 H516 0.950 . S
C514 C513 1.387 . S
C514 C517 1.387 . S
H515 C511 0.950 . S
H516 C513 0.950 . S
C517 C508 1.390 . S
C517 H510 0.950 . S
C517 C514 1.387 . S
C518 C519 1.387 . S
C518 H522 0.950 . S
C518 C527 1.390 . S
C519 C518 1.387 . S
C519 C521 1.387 . S
H520 C527 0.950 . S
C521 C519 1.387 . S
C521 C523 1.390 . S
C521 H525 0.950 . S
H522 C518 0.950 . S
C523 C521 1.390 . S
C523 C524 1.387 . S
C523 H526 0.950 . S
C524 C523 1.387 . S
C524 C527 1.387 . S
H525 C521 0.950 . S
H526 C523 0.950 . S
C527 C518 1.390 . S
C527 H520 0.950 . S
C527 C524 1.387 . S
C528 C529 1.387 . S
C528 H532 0.950 . S
C528 C537 1.390 . S
C529 C528 1.387 . S
C529 C531 1.387 . S
H530 C537 0.950 . S
C531 C529 1.387 . S
C531 C533 1.390 . S
C531 H535 0.950 . S
H532 C528 0.950 . S
C533 C531 1.390 . S
C533 C534 1.387 . S
C533 H536 0.950 . S
C534 C533 1.387 . S
C534 C537 1.387 . S
H535 C531 0.950 . S
H536 C533 0.950 . S
C537 C528 1.390 . S
C537 H530 0.950 . S
C537 C534 1.387 . S
C538 C539 1.387 . S
C538 H542 0.950 . S
C538 C547 1.390 . S
C539 C538 1.387 . S
C539 C541 1.387 . S
H540 C547 0.950 . S
C541 C539 1.387 . S
C541 C543 1.390 . S
C541 H545 0.950 . S
H542 C538 0.950 . S
C543 C541 1.390 . S
C543 C544 1.387 . S
C543 H546 0.950 . S
C544 C543 1.387 . S
C544 C547 1.387 . S
H545 C541 0.950 . S
H546 C543 0.950 . S
C547 C538 1.390 . S
C547 H540 0.950 . S
C547 C544 1.387 . S
C548 C549 1.387 . S
C548 H552 0.950 . S
C548 C557 1.390 . S
C549 C548 1.387 . S
C549 C551 1.387 . S
H550 C557 0.950 . S
C551 C549 1.387 . S
C551 C553 1.390 . S
C551 H555 0.950 . S
H552 C548 0.950 . S
C553 C551 1.390 . S
C553 C554 1.387 . S
C553 H556 0.950 . S
C554 C553 1.387 . S
C554 C557 1.387 . S
H555 C551 0.950 . S
H556 C553 0.950 . S
C557 C548 1.390 . S
C557 H550 0.950 . S
C557 C554 1.387 . S
C558 C559 1.387 . S
C558 H562 0.950 . S
C558 C567 1.390 . S
C559 C558 1.387 . S
C559 C561 1.387 . S
H560 C567 0.950 . S
C561 C559 1.387 . S
C561 C563 1.390 . S
C561 H565 0.950 . S
H562 C558 0.950 . S
C563 C561 1.390 . S
C563 C564 1.387 . S
C563 H566 0.950 . S
C564 C563 1.387 . S
C564 C567 1.387 . S
H565 C561 0.950 . S
H566 C563 0.950 . S
C567 C558 1.390 . S
C567 H560 0.950 . S
C567 C564 1.387 . S
C568 C569 1.387 . S
C568 H572 0.950 . S
C568 C577 1.390 . S
C569 C568 1.387 . S
C569 C571 1.387 . S
H570 C577 0.950 . S
C571 C569 1.387 . S
C571 C573 1.390 . S
C571 H575 0.950 . S
H572 C568 0.950 . S
C573 C571 1.390 . S
C573 C574 1.387 . S
C573 H576 0.950 . S
C574 C573 1.387 . S
C574 C577 1.387 . S
H575 C571 0.950 . S
H576 C573 0.950 . S
C577 C568 1.390 . S
C577 H570 0.950 . S
C577 C574 1.387 . S
C578 C579 1.387 . S
C578 H582 0.950 . S
C578 C587 1.390 . S
C579 C578 1.387 . S
C579 C581 1.387 . S
H580 C587 0.950 . S
C581 C579 1.387 . S
C581 C583 1.390 . S
C581 H585 0.950 . S
H582 C578 0.950 . S
C583 C581 1.390 . S
C583 C584 1.387 . S
C583 H586 0.950 . S
C584 C583 1.387 . S
C584 C587 1.387 . S
H585 C581 0.950 . S
H586 C583 0.950 . S
C587 C578 1.390 . S
C587 H580 0.950 . S
C587 C584 1.387 . S
C588 C589 1.387 . S
C588 H592 0.950 . S
C588 C597 1.390 . S
C589 C588 1.387 . S
C589 C591 1.387 . S
H590 C597 0.950 . S
C591 C589 1.387 . S
C591 C593 1.390 . S
C591 H595 0.950 . S
H592 C588 0.950 . S
C593 C591 1.390 . S
C593 C594 1.387 . S
C593 H596 0.950 . S
C594 C593 1.387 . S
C594 C597 1.387 . S
H595 C591 0.950 . S
H596 C593 0.950 . S
C597 C588 1.390 . S
C597 H590 0.950 . S
C597 C594 1.387 . S
C598 C599 1.387 . S
C598 H602 0.950 . S
C598 C607 1.390 . S
C599 C598 1.387 . S
C599 C601 1.387 . S
H600 C607 0.950 . S
C601 C599 1.387 . S
C601 C603 1.390 . S
C601 H605 0.950 . S
H602 C598 0.950 . S
C603 C601 1.390 . S
C603 C604 1.387 . S
C603 H606 0.950 . S
C604 C603 1.387 . S
C604 C607 1.387 . S
H605 C601 0.950 . S
H606 C603 0.950 . S
C607 C598 1.390 . S
C607 H600 0.950 . S
C607 C604 1.387 . S
C608 C609 1.387 . S
C608 H612 0.950 . S
C608 C617 1.390 1_655 S
C609 C608 1.387 . S
C609 C611 1.387 . S
H610 C617 0.950 . S
C611 C609 1.387 . S
C611 C613 1.390 1_655 S
C611 H615 0.950 . S
H612 C608 0.950 . S
C613 C611 1.390 1_455 S
C613 C614 1.387 . S
C613 H616 0.950 . S
C614 C613 1.387 . S
C614 C617 1.387 . S
H615 C611 0.950 . S
H616 C613 0.950 . S
C617 C608 1.390 1_455 S
C617 H610 0.950 . S
C617 C614 1.387 . S
C618 C619 1.387 . S
C618 H622 0.950 . S
C618 C627 1.390 1_565 S
C619 C618 1.387 . S
C619 C621 1.387 . S
H620 C627 0.950 . S
C621 C619 1.387 . S
C621 C623 1.390 1_565 S
C621 H625 0.950 . S
H622 C618 0.950 . S
C623 C621 1.390 1_545 S
C623 C624 1.387 . S
C623 H626 0.950 . S
C624 C623 1.387 . S
C624 C627 1.387 . S
H625 C621 0.950 . S
H626 C623 0.950 . S
C627 C618 1.390 1_545 S
C627 H620 0.950 . S
C627 C624 1.387 . S
C628 C629 1.404 . S
C628 H632 0.950 . S
C628 C637 1.390 1_465 S
C629 C628 1.404 . S
C629 C631 1.371 1_556 S
H630 C637 0.950 . S
C631 C629 1.371 1_554 S
C631 C633 1.390 1_465 S
C631 H635 0.950 . S
H632 C628 0.950 . S
C633 C631 1.390 1_645 S
C633 C634 1.407 . S
C633 H636 0.950 . S
C634 C633 1.407 . S
C634 C637 1.367 1_554 S
H635 C631 0.950 . S
H636 C633 0.950 . S
C637 C628 1.390 1_645 S
C637 H630 0.950 . S
C637 C634 1.367 1_556 S
C638 C639 1.408 . S
C638 H642 0.950 . S
C638 C647 1.390 . S
C639 C638 1.408 . S
C639 C641 1.367 1_554 S
H640 C647 0.950 . S
C641 C639 1.367 1_556 S
C641 C643 1.390 . S
C641 H645 0.950 . S
H642 C638 0.950 . S
C643 C641 1.390 . S
C643 C644 1.404 . S
C643 H646 0.950 . S
C644 C643 1.404 . S
C644 C647 1.370 1_556 S
H645 C641 0.950 . S
H646 C643 0.950 . S
C647 C638 1.390 . S
C647 H640 0.950 . S
C647 C644 1.370 1_554 S
C648 C649 1.387 . S
C648 H652 0.950 . S
C648 C657 1.390 1_655 S
C649 C648 1.387 . S
C649 C651 1.387 . S
H650 C657 0.950 . S
C651 C649 1.387 . S
C651 C653 1.390 1_655 S
C651 H655 0.950 . S
H652 C648 0.950 . S
C653 C651 1.390 1_455 S
C653 C654 1.387 . S
C653 H656 0.950 . S
C654 C653 1.387 . S
C654 C657 1.387 . S
H655 C651 0.950 . S
H656 C653 0.950 . S
C657 C648 1.390 1_455 S
C657 H650 0.950 . S
C657 C654 1.387 . S
C658 C659 1.387 . S
C658 H662 0.950 . S
C658 C667 1.390 1_565 S
C659 C658 1.387 . S
C659 C661 1.387 . S
H660 C667 0.950 . S
C661 C659 1.387 . S
C661 C663 1.390 1_565 S
C661 H665 0.950 . S
H662 C658 0.950 . S
C663 C661 1.390 1_545 S
C663 C664 1.387 . S
C663 H666 0.950 . S
C664 C663 1.387 . S
C664 C667 1.387 . S
H665 C661 0.950 . S
H666 C663 0.950 . S
C667 C658 1.390 1_545 S
C667 H660 0.950 . S
C667 C664 1.387 . S
C668 C669 1.404 . S
C668 H672 0.950 . S
C668 C677 1.390 . S
C669 C668 1.404 . S
C669 C671 1.370 1_556 S
H670 C677 0.950 . S
C671 C669 1.370 1_554 S
C671 C673 1.390 . S
C671 H675 0.950 . S
H672 C668 0.950 . S
C673 C671 1.390 . S
C673 C674 1.408 . S
C673 H676 0.950 . S
C674 C673 1.408 . S
C674 C677 1.367 1_554 S
H675 C671 0.950 . S
H676 C673 0.950 . S
C677 C668 1.390 . S
C677 H670 0.950 . S
C677 C674 1.367 1_556 S
C678 C679 1.387 . S
C678 H682 0.950 . S
C678 C687 1.390 . S
C679 C678 1.387 . S
C679 C681 1.387 . S
H680 C687 0.950 . S
C681 C679 1.387 . S
C681 C683 1.390 . S
C681 H685 0.950 . S
H682 C678 0.950 . S
C683 C681 1.390 . S
C683 C684 1.387 . S
C683 H686 0.950 . S
C684 C683 1.387 . S
C684 C687 1.387 . S
H685 C681 0.950 . S
H686 C683 0.950 . S
C687 C678 1.390 . S
C687 H680 0.950 . S
C687 C684 1.387 . S
C688 C689 1.387 . S
C688 H692 0.950 . S
C688 C697 1.390 1_655 S
C689 C688 1.387 . S
C689 C691 1.387 . S
H690 C697 0.950 . S
C691 C689 1.387 . S
C691 C693 1.390 1_655 S
C691 H695 0.950 . S
H692 C688 0.950 . S
C693 C691 1.390 1_455 S
C693 C694 1.387 . S
C693 H696 0.950 . S
C694 C693 1.387 . S
C694 C697 1.387 . S
H695 C691 0.950 . S
H696 C693 0.950 . S
C697 C688 1.390 1_455 S
C697 H690 0.950 . S
C697 C694 1.387 . S
C698 C699 1.387 . S
C698 H702 0.950 . S
C698 C707 1.390 . S
C699 C698 1.387 . S
C699 C701 1.387 . S
H700 C707 0.950 . S
C701 C699 1.387 . S
C701 C703 1.390 . S
C701 H705 0.950 . S
H702 C698 0.950 . S
C703 C701 1.390 . S
C703 C704 1.387 . S
C703 H706 0.950 . S
C704 C703 1.387 . S
C704 C707 1.387 . S
H705 C701 0.950 . S
H706 C703 0.950 . S
C707 C698 1.390 . S
C707 H700 0.950 . S
C707 C704 1.387 . S
C708 C709 1.387 . S
C708 H712 0.950 . S
C708 C717 1.390 . S
C709 C708 1.387 . S
C709 C711 1.387 . S
H710 C717 0.950 . S
C711 C709 1.387 . S
C711 C713 1.390 . S
C711 H715 0.950 . S
H712 C708 0.950 . S
C713 C711 1.390 . S
C713 C714 1.387 . S
C713 H716 0.950 . S
C714 C713 1.387 . S
C714 C717 1.387 . S
H715 C711 0.950 . S
H716 C713 0.950 . S
C717 C708 1.390 . S
C717 H710 0.950 . S
C717 C714 1.387 . S
C718 C719 1.387 . S
C718 H722 0.950 . S
C718 C727 1.390 . S
C719 C718 1.387 . S
C719 C721 1.387 . S
H720 C727 0.950 . S
C721 C719 1.387 . S
C721 C723 1.390 . S
C721 H725 0.950 . S
H722 C718 0.950 . S
C723 C721 1.390 . S
C723 C724 1.387 . S
C723 H726 0.950 . S
C724 C723 1.387 . S
C724 C727 1.387 . S
H725 C721 0.950 . S
H726 C723 0.950 . S
C727 C718 1.390 . S
C727 H720 0.950 . S
C727 C724 1.387 . S
C728 C729 1.387 . S
C728 H732 0.950 . S
C728 C737 1.390 . S
C729 C728 1.387 . S
C729 C731 1.387 . S
H730 C737 0.950 . S
C731 C729 1.387 . S
C731 C733 1.390 . S
C731 H735 0.950 . S
H732 C728 0.950 . S
C733 C731 1.390 . S
C733 C734 1.387 . S
C733 H736 0.950 . S
C734 C733 1.387 . S
C734 C737 1.387 . S
H735 C731 0.950 . S
H736 C733 0.950 . S
C737 C728 1.390 . S
C737 H730 0.950 . S
C737 C734 1.387 . S
C738 C739 1.387 . S
C738 H742 0.950 . S
C738 C747 1.390 1_545 S
C739 C738 1.387 . S
C739 C741 1.387 . S
H740 C747 0.950 . S
C741 C739 1.387 . S
C741 C743 1.390 1_545 S
C741 H745 0.950 . S
H742 C738 0.950 . S
C743 C741 1.390 1_565 S
C743 C744 1.387 . S
C743 H746 0.950 . S
C744 C743 1.387 . S
C744 C747 1.387 . S
H745 C741 0.950 . S
H746 C743 0.950 . S
C747 C738 1.390 1_565 S
C747 H740 0.950 . S
C747 C744 1.387 . S
C748 C749 1.387 . S
C748 H752 0.950 . S
C748 C757 1.390 . S
C749 C748 1.387 . S
C749 C751 1.387 . S
H750 C757 0.950 . S
C751 C749 1.387 . S
C751 C753 1.390 . S
C751 H755 0.950 . S
H752 C748 0.950 . S
C753 C751 1.390 . S
C753 C754 1.387 . S
C753 H756 0.950 . S
C754 C753 1.387 . S
C754 C757 1.387 . S
H755 C751 0.950 . S
H756 C753 0.950 . S
C757 C748 1.390 . S
C757 H750 0.950 . S
C757 C754 1.387 . S
C758 C759 1.404 . S
C758 H762 0.950 . S
C758 C767 1.390 . S
C759 C758 1.404 . S
C759 C761 1.370 1_556 S
H760 C767 0.950 . S
C761 C759 1.370 1_554 S
C761 C763 1.390 . S
C761 H765 0.950 . S
H762 C758 0.950 . S
C763 C761 1.390 . S
C763 C764 1.408 . S
C763 H766 0.950 . S
C764 C763 1.408 . S
C764 C767 1.367 1_554 S
H765 C761 0.950 . S
H766 C763 0.950 . S
C767 C758 1.390 . S
C767 H760 0.950 . S
C767 C764 1.367 1_556 S
C768 C769 1.387 . S
C768 H772 0.950 . S
C768 C777 1.390 . S
C769 C768 1.387 . S
C769 C771 1.387 . S
H770 C777 0.950 . S
C771 C769 1.387 . S
C771 C773 1.390 . S
C771 H775 0.950 . S
H772 C768 0.950 . S
C773 C771 1.390 . S
C773 C774 1.387 . S
C773 H776 0.950 . S
C774 C773 1.387 . S
C774 C777 1.387 . S
H775 C771 0.950 . S
H776 C773 0.950 . S
C777 C768 1.390 . S
C777 H770 0.950 . S
C777 C774 1.387 . S
C778 C779 1.387 . S
C778 H782 0.950 . S
C778 C787 1.390 . S
C779 C778 1.387 . S
C779 C781 1.387 . S
H780 C787 0.950 . S
C781 C779 1.387 . S
C781 C783 1.390 . S
C781 H785 0.950 1_455 S
H782 C778 0.950 . S
C783 C781 1.390 . S
C783 C784 1.387 . S
C783 H786 0.950 1_455 S
C784 C783 1.387 . S
C784 C787 1.387 . S
H785 C781 0.950 1_655 S
H786 C783 0.950 1_655 S
C787 C778 1.390 . S
C787 H780 0.950 . S
C787 C784 1.387 . S
C788 C789 1.387 . S
C788 H792 0.950 . S
C788 C797 1.390 . S
C789 C788 1.387 . S
C789 C791 1.387 . S
H790 C797 0.950 . S
C791 C789 1.387 . S
C791 C793 1.390 . S
C791 H795 0.950 . S
H792 C788 0.950 . S
C793 C791 1.390 . S
C793 C794 1.387 . S
C793 H796 0.950 . S
C794 C793 1.387 . S
C794 C797 1.387 . S
H795 C791 0.950 . S
H796 C793 0.950 . S
C797 C788 1.390 . S
C797 H790 0.950 . S
C797 C794 1.387 . S
C798 C799 1.387 . S
C798 H802 0.950 1_455 S
C798 C807 1.390 . S
C799 C798 1.387 . S
C799 C801 1.387 . S
H800 C807 0.950 1_655 S
C801 C799 1.387 . S
C801 C803 1.390 . S
C801 H805 0.950 . S
H802 C798 0.950 1_655 S
C803 C801 1.390 . S
C803 C804 1.387 . S
C803 H806 0.950 . S
C804 C803 1.387 . S
C804 C807 1.387 . S
H805 C801 0.950 . S
H806 C803 0.950 . S
C807 C798 1.390 . S
C807 H800 0.950 1_455 S
C807 C804 1.387 . S
C808 C809 1.387 . S
C808 H812 0.950 . S
C808 C817 1.390 . S
C809 C808 1.387 . S
C809 C811 1.387 . S
H810 C817 0.950 . S
C811 C809 1.387 . S
C811 C813 1.390 . S
C811 H815 0.950 . S
H812 C808 0.950 . S
C813 C811 1.390 . S
C813 C814 1.387 . S
C813 H816 0.950 . S
C814 C813 1.387 . S
C814 C817 1.387 . S
H815 C811 0.950 . S
H816 C813 0.950 . S
C817 C808 1.390 . S
C817 H810 0.950 . S
C817 C814 1.387 . S
C818 C819 1.387 . S
C818 H822 0.950 . S
C818 C827 1.390 . S
C819 C818 1.387 . S
C819 C821 1.387 . S
H820 C827 0.950 . S
C821 C819 1.387 . S
C821 C823 1.390 . S
C821 H825 0.950 1_655 S
H822 C818 0.950 . S
C823 C821 1.390 . S
C823 C824 1.387 . S
C823 H826 0.950 1_655 S
C824 C823 1.387 . S
C824 C827 1.387 . S
H825 C821 0.950 1_455 S
H826 C823 0.950 1_455 S
C827 C818 1.390 . S
C827 H820 0.950 . S
C827 C824 1.387 . S
C828 C829 1.387 . S
C828 H832 0.950 . S
C828 C837 1.390 . S
C829 C828 1.387 . S
C829 C831 1.387 . S
H830 C837 0.950 . S
C831 C829 1.387 . S
C831 C833 1.390 . S
C831 H835 0.950 . S
H832 C828 0.950 . S
C833 C831 1.390 . S
C833 C834 1.387 . S
C833 H836 0.950 . S
C834 C833 1.387 . S
C834 C837 1.387 . S
H835 C831 0.950 . S
H836 C833 0.950 . S
C837 C828 1.390 . S
C837 H830 0.950 . S
C837 C834 1.387 . S
C838 C839 1.387 . S
C838 H842 0.950 . S
C838 C847 1.390 . S
C839 C838 1.387 . S
C839 C841 1.387 . S
H840 C847 0.950 . S
C841 C839 1.387 . S
C841 C843 1.390 . S
C841 H845 0.950 1_655 S
H842 C838 0.950 . S
C843 C841 1.390 . S
C843 C844 1.387 . S
C843 H846 0.950 1_655 S
C844 C843 1.387 . S
C844 C847 1.387 . S
H845 C841 0.950 1_455 S
H846 C843 0.950 1_455 S
C847 C838 1.390 . S
C847 H840 0.950 . S
C847 C844 1.387 . S
C848 C849 1.387 . S
C848 H852 0.950 . S
C848 C857 1.390 . S
C849 C848 1.387 . S
C849 C851 1.387 . S
H850 C857 0.950 . S
C851 C849 1.387 . S
C851 C853 1.390 . S
C851 H855 0.950 . S
H852 C848 0.950 . S
C853 C851 1.390 . S
C853 C854 1.387 . S
C853 H856 0.950 . S
C854 C853 1.387 . S
C854 C857 1.387 . S
H855 C851 0.950 . S
H856 C853 0.950 . S
C857 C848 1.390 . S
C857 H850 0.950 . S
C857 C854 1.387 . S
C858 C859 1.387 . S
C858 H862 0.950 . S
C858 C867 1.390 . S
C859 C858 1.387 . S
C859 C861 1.387 . S
H860 C867 0.950 . S
C861 C859 1.387 . S
C861 C863 1.390 . S
C861 H865 0.950 . S
H862 C858 0.950 . S
C863 C861 1.390 . S
C863 C864 1.387 . S
C863 H866 0.950 . S
C864 C863 1.387 . S
C864 C867 1.387 . S
H865 C861 0.950 . S
H866 C863 0.950 . S
C867 C858 1.390 . S
C867 H860 0.950 . S
C867 C864 1.387 . S
C868 C869 1.387 . S
C868 H872 0.950 . S
C868 C877 1.390 . S
C869 C868 1.387 . S
C869 C871 1.387 . S
H870 C877 0.950 . S
C871 C869 1.387 . S
C871 C873 1.390 . S
C871 H875 0.950 . S
H872 C868 0.950 . S
C873 C871 1.390 . S
C873 C874 1.387 . S
C873 H876 0.950 . S
C874 C873 1.387 . S
C874 C877 1.387 . S
H875 C871 0.950 . S
H876 C873 0.950 . S
C877 C868 1.390 . S
C877 H870 0.950 . S
C877 C874 1.387 . S
C878 C879 1.387 . S
C878 H882 0.950 . S
C878 C887 1.390 . S
C879 C878 1.387 . S
C879 C881 1.387 . S
H880 C887 0.950 . S
C881 C879 1.387 . S
C881 C883 1.390 . S
C881 H885 0.950 . S
H882 C878 0.950 . S
C883 C881 1.390 . S
C883 C884 1.387 . S
C883 H886 0.950 . S
C884 C883 1.387 . S
C884 C887 1.387 . S
H885 C881 0.950 . S
H886 C883 0.950 . S
C887 C878 1.390 . S
C887 H880 0.950 . S
C887 C884 1.387 . S
C888 C889 1.387 . S
C888 H892 0.950 . S
C888 C897 1.390 . S
C889 C888 1.387 . S
C889 C891 1.387 . S
H890 C897 0.950 . S
C891 C889 1.387 . S
C891 C893 1.390 . S
C891 H895 0.950 . S
H892 C888 0.950 . S
C893 C891 1.390 . S
C893 C894 1.387 . S
C893 H896 0.950 . S
C894 C893 1.387 . S
C894 C897 1.387 . S
H895 C891 0.950 . S
H896 C893 0.950 . S
C897 C888 1.390 . S
C897 H890 0.950 . S
C897 C894 1.387 . S
C898 C899 1.387 . S
C898 H902 0.950 . S
C898 C907 1.390 . S
C899 C898 1.387 . S
C899 C901 1.387 . S
H900 C907 0.950 . S
C901 C899 1.387 . S
C901 C903 1.390 . S
C901 H905 0.950 . S
H902 C898 0.950 . S
C903 C901 1.390 . S
C903 C904 1.387 . S
C903 H906 0.950 . S
C904 C903 1.387 . S
C904 C907 1.387 . S
H905 C901 0.950 . S
H906 C903 0.950 . S
C907 C898 1.390 . S
C907 H900 0.950 . S
C907 C904 1.387 . S
C908 C909 1.387 . S
C908 H912 0.950 . S
C908 C917 1.390 . S
C909 C908 1.387 . S
C909 C911 1.387 . S
H910 C917 0.950 . S
C911 C909 1.387 . S
C911 C913 1.390 . S
C911 H915 0.950 . S
H912 C908 0.950 . S
C913 C911 1.390 . S
C913 C914 1.387 . S
C913 H916 0.950 . S
C914 C913 1.387 . S
C914 C917 1.387 . S
H915 C911 0.950 . S
H916 C913 0.950 . S
C917 C908 1.390 . S
C917 H910 0.950 . S
C917 C914 1.387 . S
C918 C919 1.387 . S
C918 H922 0.950 . S
C918 C927 1.390 . S
C919 C918 1.387 . S
C919 C921 1.387 . S
H920 C927 0.950 . S
C921 C919 1.387 . S
C921 C923 1.390 . S
C921 H925 0.950 . S
H922 C918 0.950 . S
C923 C921 1.390 . S
C923 C924 1.387 . S
C923 H926 0.950 . S
C924 C923 1.387 . S
C924 C927 1.387 . S
H925 C921 0.950 . S
H926 C923 0.950 . S
C927 C918 1.390 . S
C927 H920 0.950 . S
C927 C924 1.387 . S
C928 C929 1.387 . S
C928 H932 0.950 . S
C928 C937 1.390 . S
C929 C928 1.387 . S
C929 C931 1.387 . S
H930 C937 0.950 . S
C931 C929 1.387 . S
C931 C933 1.390 . S
C931 H935 0.950 . S
H932 C928 0.950 . S
C933 C931 1.390 . S
C933 C934 1.387 . S
C933 H936 0.950 . S
C934 C933 1.387 . S
C934 C937 1.387 . S
H935 C931 0.950 . S
H936 C933 0.950 . S
C937 C928 1.390 . S
C937 H930 0.950 . S
C937 C934 1.387 . S
C938 C939 1.387 . S
C938 H942 0.950 . S
C938 C947 1.390 . S
C939 C938 1.387 . S
C939 C941 1.387 . S
H940 C947 0.950 . S
C941 C939 1.387 . S
C941 C943 1.390 . S
C941 H945 0.950 . S
H942 C938 0.950 . S
C943 C941 1.390 . S
C943 C944 1.387 . S
C943 H946 0.950 . S
C944 C943 1.387 . S
C944 C947 1.387 . S
H945 C941 0.950 . S
H946 C943 0.950 . S
C947 C938 1.390 . S
C947 H940 0.950 . S
C947 C944 1.387 . S
C948 C949 1.404 . S
C948 H952 0.950 . S
C948 C957 1.390 . S
C949 C948 1.404 . S
C949 C951 1.371 1_554 S
H950 C957 0.950 . S
C951 C949 1.371 1_556 S
C951 C953 1.390 . S
C951 H955 0.950 . S
H952 C948 0.950 . S
C953 C951 1.390 . S
C953 C954 1.371 1_556 S
C953 H956 0.950 . S
C954 C953 1.371 1_554 S
C954 C957 1.404 . S
H955 C951 0.950 . S
H956 C953 0.950 . S
C957 C948 1.390 . S
C957 H950 0.950 . S
C957 C954 1.404 . S
C958 C959 1.404 . S
C958 H962 0.950 . S
C958 C967 1.390 . S
C959 C958 1.404 . S
C959 C961 1.371 1_554 S
H960 C967 0.950 . S
C961 C959 1.371 1_556 S
C961 C963 1.390 . S
C961 H965 0.950 . S
H962 C958 0.950 . S
C963 C961 1.390 . S
C963 C964 1.371 1_556 S
C963 H966 0.950 . S
C964 C963 1.371 1_554 S
C964 C967 1.404 . S
H965 C961 0.950 . S
H966 C963 0.950 . S
C967 C958 1.390 . S
C967 H960 0.950 . S
C967 C964 1.404 . S
C968 C969 1.387 . S
C968 H972 0.950 . S
C968 C977 1.390 . S
C969 C968 1.387 . S
C969 C971 1.387 . S
H970 C977 0.950 . S
C971 C969 1.387 . S
C971 C973 1.390 . S
C971 H975 0.950 . S
H972 C968 0.950 . S
C973 C971 1.390 . S
C973 C974 1.387 . S
C973 H976 0.950 . S
C974 C973 1.387 . S
C974 C977 1.387 . S
H975 C971 0.950 . S
H976 C973 0.950 . S
C977 C968 1.390 . S
C977 H970 0.950 . S
C977 C974 1.387 . S
C978 C979 1.387 . S
C978 H982 0.950 . S
C978 C987 1.390 . S
C979 C978 1.387 . S
C979 C981 1.387 . S
H980 C987 0.950 . S
C981 C979 1.387 . S
C981 C983 1.390 . S
C981 H985 0.950 . S
H982 C978 0.950 . S
C983 C981 1.390 . S
C983 C984 1.387 . S
C983 H986 0.950 . S
C984 C983 1.387 . S
C984 C987 1.387 . S
H985 C981 0.950 . S
H986 C983 0.950 . S
C987 C978 1.390 . S
C987 H980 0.950 . S
C987 C984 1.387 . S
C988 C989 1.374 1_554 S
C988 H992 0.950 . S
C988 C997 1.390 . S
C989 C988 1.374 1_556 S
C989 C991 1.401 . S
H990 C997 0.950 . S
C991 C989 1.401 . S
C991 C993 1.390 . S
C991 H995 0.950 . S
H992 C988 0.950 . S
C993 C991 1.390 . S
C993 C994 1.401 . S
C993 H996 0.950 . S
C994 C993 1.401 . S
C994 C997 1.375 1_556 S
H995 C991 0.950 . S
H996 C993 0.950 . S
C997 C988 1.390 . S
C997 H990 0.950 . S
C997 C994 1.375 1_554 S
C998 C999 1.375 1_554 S
C998 H1002 0.950 . S
C998 C1007 1.390 . S
C999 C998 1.375 1_556 S
C999 C1001 1.400 . S
H1000 C1007 0.950 . S
C1001 C999 1.400 . S
C1001 C1003 1.390 . S
C1001 H1005 0.950 . S
H1002 C998 0.950 . S
C1003 C1001 1.390 . S
C1003 C1004 1.400 . S
C1003 H1006 0.950 . S
C1004 C1003 1.400 . S
C1004 C1007 1.375 1_556 S
H1005 C1001 0.950 . S
H1006 C1003 0.950 . S
C1007 C998 1.390 . S
C1007 H1000 0.950 . S
C1007 C1004 1.375 1_554 S
C1008 C1009 1.387 . S
C1008 H1012 0.950 . S
C1008 C1017 1.390 . S
C1009 C1008 1.387 . S
C1009 C1011 1.387 . S
H1010 C1017 0.950 . S
C1011 C1009 1.387 . S
C1011 C1013 1.390 . S
C1011 H1015 0.950 . S
H1012 C1008 0.950 . S
C1013 C1011 1.390 . S
C1013 C1014 1.387 . S
C1013 H1016 0.950 . S
C1014 C1013 1.387 . S
C1014 C1017 1.387 . S
H1015 C1011 0.950 . S
H1016 C1013 0.950 . S
C1017 C1008 1.390 . S
C1017 H1010 0.950 . S
C1017 C1014 1.387 . S
C1018 C1019 1.387 . S
C1018 H1022 0.950 . S
C1018 C1027 1.390 . S
C1019 C1018 1.387 . S
C1019 C1021 1.387 . S
H1020 C1027 0.950 . S
C1021 C1019 1.387 . S
C1021 C1023 1.390 . S
C1021 H1025 0.950 . S
H1022 C1018 0.950 . S
C1023 C1021 1.390 . S
C1023 C1024 1.387 . S
C1023 H1026 0.950 . S
C1024 C1023 1.387 . S
C1024 C1027 1.387 . S
H1025 C1021 0.950 . S
H1026 C1023 0.950 . S
C1027 C1018 1.390 . S
C1027 H1020 0.950 . S
C1027 C1024 1.387 . S
C1028 C1029 1.387 . S
C1028 H1032 0.950 . S
C1028 C1037 1.390 . S
C1029 C1028 1.387 . S
C1029 C1031 1.387 . S
H1030 C1037 0.950 . S
C1031 C1029 1.387 . S
C1031 C1033 1.390 . S
C1031 H1035 0.950 . S
H1032 C1028 0.950 . S
C1033 C1031 1.390 . S
C1033 C1034 1.387 . S
C1033 H1036 0.950 . S
C1034 C1033 1.387 . S
C1034 C1037 1.387 . S
H1035 C1031 0.950 . S
H1036 C1033 0.950 . S
C1037 C1028 1.390 . S
C1037 H1030 0.950 . S
C1037 C1034 1.387 . S
C1038 C1039 1.387 . S
C1038 H1042 0.950 . S
C1038 C1047 1.390 . S
C1039 C1038 1.387 . S
C1039 C1041 1.387 . S
H1040 C1047 0.950 . S
C1041 C1039 1.387 . S
C1041 C1043 1.390 . S
C1041 H1045 0.950 . S
H1042 C1038 0.950 . S
C1043 C1041 1.390 . S
C1043 C1044 1.387 . S
C1043 H1046 0.950 . S
C1044 C1043 1.387 . S
C1044 C1047 1.387 . S
H1045 C1041 0.950 . S
H1046 C1043 0.950 . S
C1047 C1038 1.390 . S
C1047 H1040 0.950 . S
C1047 C1044 1.387 . S
C1048 C1049 1.387 . S
C1048 H1052 0.950 . S
C1048 C1057 1.390 . S
C1049 C1048 1.387 . S
C1049 C1051 1.387 . S
H1050 C1057 0.950 . S
C1051 C1049 1.387 . S
C1051 C1053 1.390 . S
C1051 H1055 0.950 . S
H1052 C1048 0.950 . S
C1053 C1051 1.390 . S
C1053 C1054 1.387 . S
C1053 H1056 0.950 . S
C1054 C1053 1.387 . S
C1054 C1057 1.387 . S
H1055 C1051 0.950 . S
H1056 C1053 0.950 . S
C1057 C1048 1.390 . S
C1057 H1050 0.950 . S
C1057 C1054 1.387 . S
C1058 C1059 1.387 . S
C1058 H1062 0.950 . S
C1058 C1067 1.390 . S
C1059 C1058 1.387 . S
C1059 C1061 1.387 . S
H1060 C1067 0.950 . S
C1061 C1059 1.387 . S
C1061 C1063 1.390 . S
C1061 H1065 0.950 . S
H1062 C1058 0.950 . S
C1063 C1061 1.390 . S
C1063 C1064 1.387 . S
C1063 H1066 0.950 . S
C1064 C1063 1.387 . S
C1064 C1067 1.387 . S
H1065 C1061 0.950 . S
H1066 C1063 0.950 . S
C1067 C1058 1.390 . S
C1067 H1060 0.950 . S
C1067 C1064 1.387 . S
C1068 C1069 1.387 . S
C1068 H1072 0.950 . S
C1068 C1077 1.390 . S
C1069 C1068 1.387 . S
C1069 C1071 1.387 . S
H1070 C1077 0.950 . S
C1071 C1069 1.387 . S
C1071 C1073 1.390 . S
C1071 H1075 0.950 . S
H1072 C1068 0.950 . S
C1073 C1071 1.390 . S
C1073 C1074 1.387 . S
C1073 H1076 0.950 . S
C1074 C1073 1.387 . S
C1074 C1077 1.387 . S
H1075 C1071 0.950 . S
H1076 C1073 0.950 . S
C1077 C1068 1.390 . S
C1077 H1070 0.950 . S
C1077 C1074 1.387 . S
C1078 C1079 1.387 . S
C1078 H1082 0.950 . S
C1078 C1087 1.390 . S
C1079 C1078 1.387 . S
C1079 C1081 1.387 . S
H1080 C1087 0.950 . S
C1081 C1079 1.387 . S
C1081 C1083 1.390 . S
C1081 H1085 0.950 . S
H1082 C1078 0.950 . S
C1083 C1081 1.390 . S
C1083 C1084 1.387 . S
C1083 H1086 0.950 . S
C1084 C1083 1.387 . S
C1084 C1087 1.387 . S
H1085 C1081 0.950 . S
H1086 C1083 0.950 . S
C1087 C1078 1.390 . S
C1087 H1080 0.950 . S
C1087 C1084 1.387 . S
C449 C1 1.571 . S
C454 C55 1.571 . S
C459 C29 1.570 . S
C464 C15 1.570 . S
C469 C56 1.570 . S
C474 C98 1.570 . S
C479 C85 1.572 . S
C484 C83 1.572 . S
C489 C125 1.570 . S
C494 C155 1.570 . S
C499 C140 1.572 . S
C504 C126 1.572 . S
C509 C169 1.572 . S
C514 C222 1.571 . S
C519 C183 1.571 . S
C524 C209 1.571 . S
C529 C266 1.572 . S
C534 C225 1.571 . S
C539 C238 1.571 . S
C544 C252 1.571 . S
C549 C280 1.570 . S
C554 C323 1.571 . S
C559 C309 1.572 . S
C564 C307 1.572 . S
C569 C337 1.570 . S
C574 C378 1.571 . S
C579 C364 1.571 . S
C584 C351 1.570 . S
C589 C404 1.570 . S
C594 C435 1.571 . S
C599 C406 1.570 . S
C604 C421 1.571 . S
C609 C180 1.618 . S
C614 C12 1.621 . S
C619 C26 1.621 . S
C624 C294 1.618 . S
C629 C40 1.619 . S
C634 C96 1.617 . S
C639 C446 1.619 . S
C644 C42 1.622 . S
C649 C69 1.621 . S
C654 C112 1.621 . S
C659 C251 1.616 . S
C664 C70 1.616 . S
C669 C391 1.617 . S
C674 C111 1.619 . S
C679 C419 1.618 . S
C684 C139 1.616 . S
C689 C196 1.618 . S
C694 C153 1.618 . S
C699 C334 1.615 . S
C704 C166 1.618 . S
C709 C194 1.616 . S
C714 C362 1.618 . S
C719 C279 1.618 . S
C724 C211 1.620 . S
C729 C393 1.618 . S
C734 C236 1.618 . S
C739 C320 1.618 . S
C744 C265 1.618 . S
C749 C348 1.621 . S
C754 C293 1.621 . S
C759 C377 1.617 . S
C764 C432 1.617 . S
C769 C141 1.672 . S
C774 C0 1.673 . S
C779 C14 1.672 . S
C784 C154 1.672 . S
C789 C124 1.672 . S
C794 C28 1.672 . S
C799 C127 1.672 . S
C804 C54 1.673 . S
C809 C57 1.673 . S
C814 C208 1.672 . S
C819 C82 1.672 . S
C824 C223 1.673 . S
C829 C168 1.670 . S
C834 C84 1.670 . S
C839 C99 1.673 . S
C844 C182 1.672 . S
C849 C365 1.670 . S
C854 C224 1.672 . S
C859 C379 1.670 . S
C864 C239 1.670 . S
C869 C253 1.670 . S
C874 C336 1.672 . S
C879 C267 1.670 . S
C884 C350 1.672 . S
C889 C281 1.672 . S
C894 C420 1.670 . S
C899 C306 1.672 . S
C904 C434 1.672 . S
C909 C405 1.672 . S
C914 C308 1.670 . S
C919 C407 1.672 . S
C924 C322 1.670 . S
C929 C13 1.688 . S
C934 C363 1.688 . S
C939 C349 1.686 . S
C944 C27 1.686 . S
C949 C41 1.686 . S
C954 C390 1.689 . S
C959 C43 1.686 . S
C964 C376 1.689 . S
C969 C68 1.688 . S
C974 C418 1.688 . S
C979 C71 1.688 . S
C984 C392 1.686 . S
C989 C447 1.689 . S
C994 C97 1.689 . S
C999 C433 1.689 . S
C1004 C110 1.686 . S
C1009 C250 1.688 . S
C1014 C113 1.685 . S
C1019 C237 1.685 . S
C1024 C138 1.688 . S
C1029 C152 1.690 . S
C1034 C278 1.690 . S
C1039 C167 1.688 . S
C1044 C264 1.690 . S
C1049 C295 1.690 . S
C1054 C181 1.690 . S
C1059 C195 1.690 . S
C1064 C292 1.688 . S
C1069 C197 1.688 . S
C1074 C335 1.688 . S
C1079 C210 1.685 . S
C1084 C321 1.688 . S
