# Generated by pormake.
# Topology wjh, (4)-cn, num edge types: 1
# Building blocks:
#     Node 0, Type 0, BuildingBlock: ESEHIV_clean_sbu_0, # of connection points: 4
#     Node 1, Type 0, BuildingBlock: ESEHIV_clean_sbu_0, # of connection points: 4
#     Node 2, Type 0, BuildingBlock: ESEHIV_clean_sbu_0, # of connection points: 4
#     Node 3, Type 0, BuildingBlock: ESEHIV_clean_sbu_0, # of connection points: 4
#     Node 4, Type 0, BuildingBlock: ESEHIV_clean_sbu_0, # of connection points: 4
#     Node 5, Type 0, BuildingBlock: ESEHIV_clean_sbu_0, # of connection points: 4
#     Node 6, Type 0, BuildingBlock: ESEHIV_clean_sbu_0, # of connection points: 4
#     Node 7, Type 0, BuildingBlock: ESEHIV_clean_sbu_0, # of connection points: 4
#     Node 8, Type 0, BuildingBlock: ESEHIV_clean_sbu_0, # of connection points: 4
#     Node 9, Type 0, BuildingBlock: ESEHIV_clean_sbu_0, # of connection points: 4
#     Node 10, Type 0, BuildingBlock: ESEHIV_clean_sbu_0, # of connection points: 4
#     Node 11, Type 0, BuildingBlock: ESEHIV_clean_sbu_0, # of connection points: 4
#     Edge 12, Type (0, 0), BuildingBlock: AJUNOK_clean_linker_0, # of connection points: 2
#     Edge 13, Type (0, 0), BuildingBlock: AJUNOK_clean_linker_0, # of connection points: 2
#     Edge 14, Type (0, 0), BuildingBlock: AJUNOK_clean_linker_0, # of connection points: 2
#     Edge 15, Type (0, 0), BuildingBlock: AJUNOK_clean_linker_0, # of connection points: 2
#     Edge 16, Type (0, 0), BuildingBlock: AJUNOK_clean_linker_0, # of connection points: 2
#     Edge 17, Type (0, 0), BuildingBlock: AJUNOK_clean_linker_0, # of connection points: 2
#     Edge 18, Type (0, 0), BuildingBlock: AJUNOK_clean_linker_0, # of connection points: 2
#     Edge 19, Type (0, 0), BuildingBlock: AJUNOK_clean_linker_0, # of connection points: 2
#     Edge 20, Type (0, 0), BuildingBlock: AJUNOK_clean_linker_0, # of connection points: 2
#     Edge 21, Type (0, 0), BuildingBlock: AJUNOK_clean_linker_0, # of connection points: 2
#     Edge 22, Type (0, 0), BuildingBlock: AJUNOK_clean_linker_0, # of connection points: 2
#     Edge 23, Type (0, 0), BuildingBlock: AJUNOK_clean_linker_0, # of connection points: 2
#     Edge 24, Type (0, 0), BuildingBlock: AJUNOK_clean_linker_0, # of connection points: 2
#     Edge 25, Type (0, 0), BuildingBlock: AJUNOK_clean_linker_0, # of connection points: 2
#     Edge 26, Type (0, 0), BuildingBlock: AJUNOK_clean_linker_0, # of connection points: 2
#     Edge 27, Type (0, 0), BuildingBlock: AJUNOK_clean_linker_0, # of connection points: 2
#     Edge 28, Type (0, 0), BuildingBlock: AJUNOK_clean_linker_0, # of connection points: 2
#     Edge 29, Type (0, 0), BuildingBlock: AJUNOK_clean_linker_0, # of connection points: 2
#     Edge 30, Type (0, 0), BuildingBlock: AJUNOK_clean_linker_0, # of connection points: 2
#     Edge 31, Type (0, 0), BuildingBlock: AJUNOK_clean_linker_0, # of connection points: 2
#     Edge 32, Type (0, 0), BuildingBlock: AJUNOK_clean_linker_0, # of connection points: 2
#     Edge 33, Type (0, 0), BuildingBlock: AJUNOK_clean_linker_0, # of connection points: 2
#     Edge 34, Type (0, 0), BuildingBlock: AJUNOK_clean_linker_0, # of connection points: 2
#     Edge 35, Type (0, 0), BuildingBlock: AJUNOK_clean_linker_0, # of connection points: 2
# Relax obj value: 0.035
# Max RMSD: 0.094
# Mean RMSD: 0.094
data_MOF--net-wjh--node1-ESEHIV_clean_sbu_0--edge1-AJUNOK_clean_linker_0
_symmetry_space_group_name_H-M    P1
_symmetry_Int_Tables_number       1
_symmetry_cell_setting            triclinic
loop_
_symmetry_equiv_pos_as_xyz
'x, y, z'
_cell_length_a     52.450853
_cell_length_b     52.525935
_cell_length_c     21.373691
_cell_angle_alpha  89.957028
_cell_angle_beta   90.186308
_cell_angle_gamma 120.21575
loop_
_atom_site_label
_atom_site_type_symbol
_atom_site_fract_x
_atom_site_fract_y
_atom_site_fract_z
_atom_type_partial_charge
Cu0 Cu 0.5358 0.14934 0.09722 0.0
N1 N 0.50011 0.11361 0.10539 0.0
N2 N 0.46474 0.06604 0.1046 0.0
C3 C 0.49139 0.08654 0.08212 0.0
C4 C 0.4566 0.08083 0.14372 0.0
C5 C 0.47828 0.11003 0.14376 0.0
O6 O 0.55327 0.15344 1.01275 0.0
C7 C 0.5534 0.13592 0.21536 0.0
O8 O 0.53289 0.1088 0.20221 0.0
H9 H 0.50441 0.08172 0.05047 0.0
H10 H 0.47874 0.12736 0.17192 0.0
N11 N 0.52581 0.1788 0.09928 0.0
N12 N 0.52455 0.21941 0.12488 0.0
C13 C 0.5363 0.20223 0.13788 0.0
C14 C 0.50692 0.18125 0.0605 0.0
C15 C 0.50617 0.20634 0.07601 0.0
C16 C 0.55864 0.13578 0.98205 0.0
O17 O 0.5561 0.11246 1.01045 0.0
H18 H 0.55279 0.20697 0.17358 0.0
H19 H 0.49473 0.16594 1.02324 0.0
O20 O 0.56016 0.15584 0.17364 0.0
H21 H 0.43709 0.07113 0.17273 0.0
H22 H 0.49306 0.21432 0.05325 0.0
Cu23 Cu 0.39868 0.53484 0.24391 0.0
N24 N 0.39659 0.49833 0.24458 0.0
N25 N 0.41016 0.46423 0.243 0.0
C26 C 0.41934 0.49332 0.241 0.0
C27 C 0.38054 0.45053 0.24852 0.0
C28 C 0.37223 0.47159 0.24927 0.0
O29 O 0.4206 0.55428 0.16645 0.0
C30 C 0.41391 0.57109 0.35909 0.0
O31 O 0.39754 0.58171 0.3384 0.0
H32 H 0.44217 0.51074 0.23845 0.0
H33 H 0.35 0.46772 0.2532 0.0
N34 N 0.35968 0.52726 0.23766 0.0
N35 N 0.31585 0.52304 0.25719 0.0
C36 C 0.34229 0.52946 0.28118 0.0
C37 C 0.34301 0.51785 0.1854 0.0
C38 C 0.31614 0.51555 0.19705 0.0
C39 C 0.41315 0.56751 0.12641 0.0
O40 O 0.3923 0.57333 0.14091 0.0
H41 H 0.34875 0.53575 0.3293 0.0
H42 H 0.35013 0.51331 0.14148 0.0
O43 O 0.41795 0.55361 0.32438 0.0
H44 H 0.36591 0.42693 0.25142 0.0
H45 H 0.29816 0.50877 0.16405 0.0
Cu46 Cu 0.86383 0.39536 0.43838 0.0
N47 N 0.89925 0.39551 0.4471 0.0
N48 N 0.94734 0.41007 0.44522 0.0
C49 C 0.92557 0.41378 0.4207 0.0
C50 C 0.93386 0.38838 0.48803 0.0
C51 C 0.90434 0.37957 0.48916 0.0
O52 O 0.86604 0.41566 0.35771 0.0
C53 C 0.83764 0.41037 0.54313 0.0
O54 O 0.81354 0.39947 0.50894 0.0
H55 H 0.92852 0.42954 0.38484 0.0
H56 H 0.88787 0.36347 0.52025 0.0
N57 N 0.83375 0.35564 0.43461 0.0
N58 N 0.79346 0.3125 0.45746 0.0
C59 C 0.81231 0.34036 0.47675 0.0
C60 C 0.82902 0.3364 0.38825 0.0
C61 C 0.80413 0.30989 0.40197 0.0
C62 C 0.84617 0.40469 0.31489 0.0
O63 O 0.82063 0.38145 0.3282 0.0
H64 H 0.81096 0.34927 0.52128 0.0
H65 H 0.84242 0.34155 0.34663 0.0
O66 O 0.86095 0.41291 0.51847 0.0
H67 H 0.94474 0.38023 0.51832 0.0
H68 H 0.79429 0.29043 0.37265 0.0
Cu69 Cu 0.46957 0.86476 0.5803 0.0
N70 N 0.50653 0.89838 0.59006 0.0
N71 N 0.54268 0.94537 0.59321 0.0
C72 C 0.5156 0.92605 0.57063 0.0
C73 C 0.55086 0.92929 0.62818 0.0
C74 C 0.52856 0.9003 0.62594 0.0
O75 O 0.45271 0.86926 0.49971 0.0
C76 C 0.42897 0.83882 0.6859 0.0
O77 O 0.41649 0.81446 0.65265 0.0
H78 H 0.50207 0.93211 0.54323 0.0
H79 H 0.52791 0.882 0.65064 0.0
N80 N 0.47635 0.83296 0.57457 0.0
N81 N 0.47919 0.79294 0.59872 0.0
C82 C 0.47297 0.81352 0.61957 0.0
C83 C 0.48632 0.8252 0.52433 0.0
C84 C 0.48784 0.80044 0.53885 0.0
C85 C 0.44025 0.84884 0.45852 0.0
O86 O 0.43316 0.82186 0.47381 0.0
H87 H 0.46684 0.81498 0.66707 0.0
H88 H 0.49176 0.83659 0.4799 0.0
O89 O 0.44925 0.86233 0.66044 0.0
H90 H 0.57125 0.93804 0.65445 0.0
H91 H 0.49435 0.78862 0.50736 0.0
Cu92 Cu 0.62458 0.48408 0.75059 0.0
N93 N 0.62524 0.51995 0.75161 0.0
N94 N 0.61037 0.55301 0.75043 0.0
C95 C 0.6019 0.5241 0.7495 0.0
C96 C 0.64011 0.56752 0.75297 0.0
C97 C 0.64921 0.54708 0.754 0.0
O98 O 0.60409 0.46249 0.67412 0.0
C99 C 0.61715 0.47679 0.88061 0.0
O100 O 0.6398 0.50374 0.8784 0.0
H101 H 0.57928 0.50629 0.746 0.0
H102 H 0.67173 0.55166 0.75628 0.0
N103 N 0.66338 0.49135 0.7478 0.0
N104 N 0.70492 0.49141 0.77194 0.0
C105 C 0.67683 0.48239 0.78883 0.0
C106 C 0.68374 0.50665 0.70378 0.0
C107 C 0.70938 0.50677 0.71857 0.0
C108 C 0.61 0.47609 0.62176 0.0
O109 O 0.62886 0.50455 0.62117 0.0
H110 H 0.66621 0.46931 0.82994 0.0
H111 H 0.68036 0.51734 0.66403 0.0
O112 O 0.6063 0.46334 0.82894 0.0
H113 H 0.65424 0.59123 0.75449 0.0
H114 H 0.72989 0.51784 0.69284 0.0
Cu115 Cu 0.14767 0.61478 0.90683 0.0
N116 N 0.11291 0.61633 0.90762 0.0
N117 N 0.06503 0.60227 0.91161 0.0
C118 C 0.08509 0.59333 0.90959 0.0
C119 C 0.08091 0.63198 0.91127 0.0
C120 C 0.11041 0.64058 0.90864 0.0
O121 O 0.14536 0.59299 0.82919 0.0
C122 C 0.16834 0.59967 1.02285 0.0
O123 O 0.1956 0.6164 1.00363 0.0
H124 H 0.07979 0.57059 0.91129 0.0
H125 H 0.12877 0.66296 0.90817 0.0
N126 N 0.17896 0.65401 0.90246 0.0
N127 N 0.21699 0.69856 0.92649 0.0
C128 C 0.19744 0.67137 0.94795 0.0
C129 C 0.18659 0.67123 0.85121 0.0
C130 C 0.21027 0.69849 0.86558 0.0
C131 C 0.16575 0.60088 0.78831 0.0
O132 O 0.19231 0.6227 0.80141 0.0
H133 H 0.19673 0.6643 0.99568 0.0
H134 H 0.17565 0.66434 0.80629 0.0
O135 O 0.147 0.59544 0.98697 0.0
H136 H 0.07181 0.64646 0.91271 0.0
H137 H 0.22157 0.71693 0.83388 0.0
Cu138 Cu 0.85823 0.46024 0.93073 0.0
N139 N 0.89155 0.49794 0.9301 0.0
N140 N 0.93851 0.53447 0.92607 0.0
C141 C 0.92001 0.50498 0.92633 0.0
C142 C 0.92093 0.54631 0.9302 0.0
C143 C 0.89202 0.52376 0.93242 0.0
O144 O 0.85858 0.43966 1.0088 0.0
C145 C 0.83404 0.42736 0.81609 0.0
O146 O 0.80866 0.4183 0.84407 0.0
H147 H 0.92693 0.48875 0.92494 0.0
H148 H 0.87267 0.52601 0.93549 0.0
N149 N 0.82459 0.46384 0.93567 0.0
N150 N 0.787 0.47033 0.90871 0.0
C151 C 0.81378 0.47461 0.89235 0.0
C152 C 0.80428 0.45286 0.98134 0.0
C153 C 0.78116 0.4569 0.965 0.0
C154 C 0.86717 0.45432 0.06019 0.0
O155 O 0.87781 0.4829 0.05817 0.0
H156 H 0.82518 0.48481 0.84935 0.0
H157 H 0.80568 0.44168 1.02258 0.0
O158 O 0.85772 0.44257 0.8479 0.0
H159 H 0.92844 0.56965 0.93084 0.0
H160 H 0.76102 0.44938 0.9913 0.0
Cu161 Cu 0.39918 0.86053 0.07239 0.0
N162 N 0.39506 0.89382 0.06635 0.0
N163 N 0.40456 0.94043 0.06699 0.0
C164 C 0.41404 0.92178 0.08429 0.0
C165 C 0.37897 0.92353 0.03602 0.0
C166 C 0.37318 0.89492 0.03589 0.0
O167 O 0.42059 0.86223 0.15106 0.0
C168 C 0.40702 0.83503 0.95837 0.0
O169 O 0.3899 0.80973 0.98605 0.0
H170 H 0.43448 0.92832 0.10897 0.0
H171 H 0.35479 0.87633 1.01319 0.0
N172 N 0.36146 0.82728 0.0807 0.0
N173 N 0.31641 0.78923 0.06016 0.0
C174 C 0.33977 0.81409 0.03764 0.0
C175 C 0.35141 0.81019 0.13196 0.0
C176 C 0.32376 0.78674 0.11946 0.0
C177 C 0.41453 0.87096 0.20212 0.0
O178 O 0.39625 0.88115 0.1997 0.0
H179 H 0.34144 0.82209 0.99028 0.0
H180 H 0.36378 0.81391 0.17486 0.0
O181 O 0.41614 0.8587 0.99023 0.0
H182 H 0.3659 0.93136 1.01263 0.0
H183 H 0.31078 0.76849 0.15062 0.0
Cu184 Cu 0.55724 0.40896 0.25056 0.0
N185 N 0.51812 0.40032 0.24647 0.0
N186 N 0.47967 0.4076 0.2423 0.0
C187 C 0.50935 0.42034 0.24166 0.0
C188 C 0.46942 0.37843 0.24825 0.0
C189 C 0.4932 0.374 0.25063 0.0
O190 O 0.57413 0.43092 0.32864 0.0
C191 C 0.5658 0.41982 0.12104 0.0
O192 O 0.54079 0.39463 0.11954 0.0
H193 H 0.52455 0.44385 0.23993 0.0
H194 H 0.49238 0.35314 0.25615 0.0
N195 N 0.55974 0.37465 0.2552 0.0
N196 N 0.55432 0.33012 0.23853 0.0
C197 C 0.54557 0.34943 0.22186 0.0
C198 C 0.57823 0.37124 0.29344 0.0
C199 C 0.575 0.34392 0.28328 0.0
C200 C 0.5618 0.4182 0.37996 0.0
O201 O 0.53842 0.39171 0.37705 0.0
H202 H 0.52929 0.34531 0.1861 0.0
H203 H 0.59348 0.38781 0.32573 0.0
O204 O 0.57734 0.43059 0.17431 0.0
H205 H 0.44639 0.36154 0.25099 0.0
H206 H 0.58768 0.33535 0.30556 0.0
Cu207 Cu 0.15533 0.5444 0.40747 0.0
N208 N 0.12075 0.50755 0.4042 0.0
N209 N 0.07304 0.47254 0.40497 0.0
C210 C 0.09286 0.50146 0.41382 0.0
C211 C 0.08935 0.46013 0.38975 0.0
C212 C 0.11866 0.48169 0.38945 0.0
O213 O 0.15538 0.56474 0.48579 0.0
C214 C 0.14851 0.55088 0.27689 0.0
O215 O 0.13467 0.52201 0.27919 0.0
H216 H 0.08751 0.51791 0.42853 0.0
H217 H 0.13718 0.47885 0.37828 0.0
N218 N 0.18768 0.53876 0.41352 0.0
N219 N 0.22598 0.53317 0.38859 0.0
C220 C 0.20217 0.53412 0.36702 0.0
C221 C 0.2026 0.54054 0.46618 0.0
C222 C 0.22612 0.53703 0.45104 0.0
C223 C 0.14482 0.54967 0.53597 0.0
O224 O 0.13297 0.52093 0.53317 0.0
H225 H 0.19525 0.53145 0.31859 0.0
H226 H 0.19714 0.54478 0.51228 0.0
O227 O 0.15917 0.56556 0.32759 0.0
H228 H 0.08071 0.43709 0.37886 0.0
H229 H 0.24259 0.53815 0.48335 0.0
Cu230 Cu 0.60992 0.14834 0.59555 0.0
N231 N 0.6172 0.11761 0.58181 0.0
N232 N 0.60677 0.07108 0.57195 0.0
C233 C 0.60031 0.08969 0.60192 0.0
C234 C 0.62861 0.08782 0.53172 0.0
C235 C 0.63502 0.11659 0.53791 0.0
O236 O 0.5892 0.13944 0.67726 0.0
C237 C 0.59544 0.16621 0.476 0.0
O238 O 0.61655 0.19325 0.48771 0.0
H239 H 0.58211 0.0828 0.63414 0.0
H240 H 0.65012 0.13507 0.50941 0.0
N241 N 0.64636 0.18353 0.60298 0.0
N242 N 0.69006 0.22339 0.58264 0.0
C243 C 0.66716 0.19843 0.55915 0.0
C244 C 0.65721 0.19917 0.65611 0.0
C245 C 0.68395 0.22383 0.64363 0.0
C246 C 0.58531 0.15703 0.71197 0.0
O247 O 0.59168 0.18282 0.68932 0.0
H248 H 0.66533 0.19151 0.51086 0.0
H249 H 0.64655 0.19304 0.70118 0.0
O250 O 0.58772 0.14664 0.51881 0.0
H251 H 0.63829 0.07961 0.49846 0.0
H252 H 0.69797 0.24072 0.67683 0.0
Cu253 Cu 0.46661 0.6147 0.74496 0.0
N254 N 0.50447 0.61959 0.74344 0.0
N255 N 0.54133 0.6099 0.74372 0.0
C256 C 0.51177 0.59839 0.74357 0.0
C257 C 0.55295 0.63939 0.74309 0.0
C258 C 0.53017 0.6453 0.74316 0.0
O259 O 0.44655 0.59323 0.82265 0.0
C260 C 0.46173 0.60193 0.61423 0.0
O261 O 0.49057 0.61814 0.61785 0.0
H262 H 0.4957 0.57509 0.74288 0.0
H263 H 0.53216 0.66682 0.74335 0.0
N264 N 0.4701 0.65175 0.75244 0.0
N265 N 0.47221 0.69437 0.73103 0.0
C266 C 0.47209 0.67052 0.70705 0.0
C267 C 0.4693 0.66437 0.80661 0.0
C268 C 0.4706 0.69065 0.79358 0.0
C269 C 0.46174 0.59652 0.87229 0.0
O270 O 0.4906 0.61265 0.86944 0.0
H271 H 0.47261 0.66642 0.65757 0.0
H272 H 0.46747 0.65489 0.85245 0.0
O273 O 0.44648 0.59707 0.6642 0.0
H274 H 0.57628 0.65554 0.74356 0.0
H275 H 0.47039 0.70588 0.8274 0.0
C276 C 0.58 0.17278 0.30263 0.0
C277 C 0.56528 0.1434 0.28111 0.0
C278 C 0.58905 0.17983 0.36563 0.0
C279 C 0.58367 0.15787 0.41037 0.0
H280 H 0.58423 0.19053 0.27081 0.0
H281 H 0.60036 0.20281 0.37934 0.0
S282 S 0.54752 0.07757 0.37789 0.0
N283 N 0.5469 0.09221 0.30995 0.0
N284 N 0.56363 0.10543 0.42731 0.0
C285 C 0.56924 0.12843 0.38932 0.0
C286 C 0.56018 0.12125 0.32519 0.0
C287 C 0.41212 0.58607 0.47073 0.0
C288 C 0.42587 0.57784 0.4246 0.0
C289 C 0.42275 0.59235 0.53289 0.0
C290 C 0.44797 0.59126 0.55123 0.0
H291 H 0.39286 0.58763 0.45883 0.0
H292 H 0.41177 0.59912 0.56617 0.0
S293 S 0.49172 0.57012 0.44978 0.0
N294 N 0.46556 0.56799 0.40311 0.0
N295 N 0.48593 0.58054 0.5186 0.0
C296 C 0.4617 0.58273 0.50587 0.0
C297 C 0.45057 0.57581 0.44306 0.0
C298 C 0.8614 0.43063 0.71532 0.0
C299 C 0.83474 0.42262 0.74661 0.0
C300 C 0.8623 0.42712 0.64985 0.0
C301 C 0.83665 0.41578 0.61221 0.0
H302 H 0.88182 0.43962 0.74161 0.0
H303 H 0.88336 0.43328 0.62867 0.0
S304 S 0.76115 0.39207 0.67025 0.0
N305 N 0.78195 0.403 0.73368 0.0
N306 N 0.78375 0.39696 0.61208 0.0
C307 C 0.80993 0.40804 0.64288 0.0
C308 C 0.80895 0.41129 0.70942 0.0
C309 C 0.43805 0.86307 0.79324 0.0
C310 C 0.42224 0.83795 0.7548 0.0
C311 C 0.43329 0.86205 0.85861 0.0
C312 C 0.4127 0.8358 0.88897 0.0
H313 H 0.4545 0.88374 0.77284 0.0
H314 H 0.44603 0.88204 0.88557 0.0
S315 S 0.36445 0.76396 0.81002 0.0
N316 N 0.38424 0.78615 0.7528 0.0
N317 N 0.3756 0.78417 0.87413 0.0
C318 C 0.39656 0.81061 0.85093 0.0
C319 C 0.40123 0.8117 0.78453 0.0
C320 C 0.5667 0.42139 1.00326 0.0
C321 C 0.57978 0.43494 0.06082 0.0
C322 C 0.57892 0.43487 0.94557 0.0
C323 C 0.60478 0.46263 0.94255 0.0
H324 H 0.5467 0.40006 1.00245 0.0
H325 H 0.56782 0.42343 0.903 0.0
S326 S 0.64814 0.50751 0.07944 0.0
N327 N 0.62041 0.47775 0.11076 0.0
N328 N 0.64336 0.5031 1.00302 0.0
C329 C 0.61822 0.47642 0.99979 0.0
C330 C 0.60577 0.46262 0.05858 0.0
C331 C 0.17965 0.58951 0.19673 0.0
C332 C 0.15247 0.56515 0.21441 0.0
C333 C 0.18466 0.6003 0.13476 0.0
C334 C 0.16253 0.58752 0.08813 0.0
H335 H 0.19754 0.59964 0.23036 0.0
H336 H 0.2061 0.61888 0.12339 0.0
S337 S 0.08686 0.5242 0.11169 0.0
N338 N 0.10286 0.52913 0.18078 0.0
N339 N 0.11193 0.54968 0.0656 0.0
C340 C 0.13498 0.56368 0.10598 0.0
C341 C 0.13008 0.55245 0.16862 0.0
C342 C 0.53981 0.29702 0.1467 0.0
C343 C 0.54532 0.30166 0.21133 0.0
C344 C 0.53281 0.27004 0.1189 0.0
C345 C 0.53109 0.2467 0.15466 0.0
H346 H 0.54169 0.31463 0.11714 0.0
H347 H 0.5294 0.26767 0.06877 0.0
S348 S 0.53991 0.24634 0.32681 0.0
N349 N 0.54603 0.27974 0.31109 0.0
N350 N 0.53301 0.22919 0.2588 0.0
C351 C 0.53567 0.25075 0.21957 0.0
C352 C 0.54273 0.27817 0.24789 0.0
C353 C 0.2843 0.51393 0.34949 0.0
C354 C 0.29265 0.525 0.2886 0.0
C355 C 0.2621 0.51614 0.38117 0.0
C356 C 0.24765 0.52984 0.35346 0.0
H357 H 0.29487 0.50328 0.37252 0.0
H358 H 0.25618 0.50698 0.42778 0.0
S359 S 0.26353 0.56469 0.19636 0.0
N360 N 0.28588 0.55121 0.20252 0.0
N361 N 0.24474 0.55611 0.26237 0.0
C362 C 0.25611 0.54128 0.29262 0.0
C363 C 0.27848 0.53871 0.26017 0.0
C364 C 0.73207 0.23825 0.51088 0.0
C365 C 0.7153 0.24577 0.54966 0.0
C366 C 0.7576 0.26014 0.48106 0.0
C367 C 0.76708 0.29032 0.48845 0.0
H368 H 0.72575 0.21535 0.50484 0.0
H369 H 0.77027 0.25339 0.45283 0.0
S370 S 0.72808 0.32082 0.57871 0.0
N371 N 0.70835 0.28492 0.59027 0.0
N372 N 0.7556 0.32603 0.53299 0.0
C373 C 0.74972 0.2979 0.52553 0.0
C374 C 0.72402 0.27564 0.55637 0.0
C375 C 0.49567 0.75687 0.61743 0.0
C376 C 0.47692 0.76799 0.6324 0.0
C377 C 0.49371 0.73251 0.64905 0.0
C378 C 0.4732 0.71858 0.69731 0.0
H379 H 0.51229 0.76731 0.58156 0.0
H380 H 0.50874 0.72487 0.63667 0.0
S381 S 0.41705 0.73671 0.75071 0.0
N382 N 0.43544 0.76123 0.69574 0.0
N383 N 0.43258 0.71617 0.75616 0.0
C384 C 0.45404 0.72904 0.71221 0.0
C385 C 0.45571 0.75356 0.67958 0.0
C386 C 0.72767 0.48834 0.87073 0.0
C387 C 0.72599 0.48646 0.80514 0.0
C388 C 0.74804 0.48362 0.90393 0.0
C389 C 0.76737 0.47659 0.87291 0.0
H390 H 0.71334 0.49383 0.89649 0.0
H391 H 0.74872 0.4856 0.95439 0.0
S392 S 0.76998 0.46676 0.70144 0.0
N393 N 0.74439 0.47595 0.71031 0.0
N394 N 0.78224 0.46646 0.77252 0.0
C395 C 0.76566 0.47436 0.80718 0.0
C396 C 0.74506 0.47942 0.77339 0.0
C397 C 0.26876 0.73924 0.93061 0.0
C398 C 0.24126 0.72219 0.96003 0.0
C399 C 0.29303 0.76157 0.96305 0.0
C400 C 0.29069 0.76776 0.02613 0.0
H401 H 0.27173 0.73472 0.88261 0.0
H402 H 0.31399 0.77345 0.93914 0.0
S403 S 0.22258 0.73203 0.12196 0.0
N404 N 0.21248 0.71468 0.05407 0.0
N405 N 0.25795 0.75676 0.11498 0.0
C406 C 0.26303 0.75157 0.05537 0.0
C407 C 0.23837 0.72876 1.02238 0.0
C408 C 0.57453 0.17063 0.81828 0.0
C409 C 0.57728 0.15023 0.78005 0.0
C410 C 0.56882 0.16592 0.88298 0.0
C411 C 0.56567 0.14059 0.91316 0.0
H412 H 0.57702 0.1907 0.79825 0.0
H413 H 0.56692 0.18243 0.90953 0.0
S414 S 0.57042 0.07985 0.83485 0.0
N415 N 0.57602 0.10331 0.77787 0.0
N416 N 0.56543 0.0945 0.89863 0.0
C417 C 0.56822 0.11988 0.87547 0.0
C418 C 0.57394 0.12465 0.80942 0.0
C419 C 0.42229 0.58662 0.95162 0.0
C420 C 0.44785 0.58594 0.93501 0.0
C421 C 0.41154 0.58091 1.01347 0.0
C422 C 0.42561 0.57384 0.06138 0.0
H423 H 0.41109 0.59268 0.91717 0.0
H424 H 0.39197 0.58212 1.0237 0.0
S425 S 0.49221 0.56702 0.04083 0.0
N426 N 0.48629 0.5764 0.97084 0.0
N427 N 0.46585 0.56509 0.08611 0.0
C428 C 0.45067 0.57215 0.04468 0.0
C429 C 0.46183 0.57835 0.98194 0.0
C430 C 0.87999 0.45694 0.17486 0.0
C431 C 0.86305 0.44002 0.12316 0.0
C432 C 0.87486 0.4454 0.23616 0.0
C433 C 0.85207 0.41653 0.24908 0.0
H434 H 0.89734 0.47957 0.16808 0.0
H435 H 0.88847 0.45948 0.27389 0.0
S436 S 0.80185 0.3625 0.13037 0.0
N437 N 0.82313 0.39242 0.08928 0.0
N438 N 0.81306 0.37081 0.20366 0.0
C439 C 0.83525 0.39918 0.19758 0.0
C440 C 0.84085 0.41083 0.13502 0.0
C441 C 0.43178 0.87941 0.37794 0.0
C442 C 0.43557 0.85535 0.39222 0.0
C443 C 0.426 0.88476 0.31616 0.0
C444 C 0.42452 0.86681 0.26536 0.0
H445 H 0.43243 0.89376 0.41503 0.0
H446 H 0.42226 0.903 0.30827 0.0
S447 S 0.43505 0.80221 0.27634 0.0
N448 N 0.43876 0.81413 0.34913 0.0
N449 N 0.4286 0.82464 0.23382 0.0
C450 C 0.42944 0.8434 0.27859 0.0
C451 C 0.43473 0.83756 0.34163 0.0
C452 C 0.60809 0.47557 0.50407 0.0
C453 C 0.59698 0.46055 0.56124 0.0
C454 C 0.59675 0.46181 0.44603 0.0
C455 C 0.57359 0.43241 0.44227 0.0
H456 H 0.62595 0.49824 0.50385 0.0
H457 H 0.60623 0.47444 0.40377 0.0
S458 S 0.5363 0.38314 0.57797 0.0
N459 N 0.56129 0.41448 0.61008 0.0
N460 N 0.53983 0.38864 0.50167 0.0
C461 C 0.56215 0.4171 0.49914 0.0
C462 C 0.57386 0.43112 0.55829 0.0
C463 C 0.17384 0.59074 0.61318 0.0
C464 C 0.14844 0.56375 0.59869 0.0
C465 C 0.17926 0.60228 0.67448 0.0
C466 C 0.15931 0.5876 0.72393 0.0
H467 H 0.19018 0.60259 0.5774 0.0
H468 H 0.19936 0.62298 0.68302 0.0
S469 S 0.08839 0.51703 0.7095 0.0
N470 N 0.10252 0.52315 0.63843 0.0
N471 N 0.11233 0.54504 0.75264 0.0
C472 C 0.13337 0.56101 0.70946 0.0
C473 C 0.12807 0.54906 0.64729 0.0
C474 C 0.46504 0.0197 0.08478 0.0
C475 C 0.44929 0.03461 0.09353 0.0
C476 C 0.45035 0.98898 0.07666 0.0
C477 C 0.41932 0.97195 0.07663 0.0
H478 H 0.48892 0.03178 0.08526 0.0
H479 H 0.46341 0.97854 0.06968 0.0
S480 S 0.36777 1.00034 0.09717 0.0
N481 N 0.40088 0.03001 0.09987 0.0
N482 N 0.37339 0.97239 0.08736 0.0
C483 C 0.40334 0.98662 0.08532 0.0
C484 C 0.41827 0.01787 0.09316 0.0
C485 C 0.43686 0.41126 0.27789 0.0
C486 C 0.46248 0.42209 0.24126 0.0
C487 C 0.41997 0.42515 0.27823 0.0
C488 C 0.42801 0.45044 0.24193 0.0
H489 H 0.43006 0.39214 0.30735 0.0
H490 H 0.40068 0.41627 0.30788 0.0
S491 S 0.49156 0.48597 0.13328 0.0
N492 N 0.49406 0.45858 0.16475 0.0
N493 N 0.46231 0.48465 0.16531 0.0
C494 C 0.45333 0.46126 0.20431 0.0
C495 C 0.47055 0.4471 0.20399 0.0
C496 C 0.0261 0.42764 0.43143 0.0
C497 C 0.04134 0.45737 0.41283 0.0
C498 C 0.99552 0.4124 0.44051 0.0
C499 C 0.97866 0.42616 0.43193 0.0
H500 H 0.03792 0.41603 0.44019 0.0
H501 H 0.98502 0.38953 0.45454 0.0
S502 S 0.00761 0.50363 0.38144 0.0
N503 N 0.0369 0.4997 0.38304 0.0
N504 N 0.9797 0.47158 0.40354 0.0
C505 C 0.99351 0.45588 0.41277 0.0
C506 C 0.02474 0.47135 0.40266 0.0
C507 C 0.5714 0.99494 0.63973 0.0
C508 C 0.55851 0.97692 0.58687 0.0
C509 C 0.58695 0.02576 0.63462 0.0
C510 C 0.59079 0.03951 0.57628 0.0
H511 H 0.56905 0.98509 0.68541 0.0
H512 H 0.59636 0.03899 0.67629 0.0
S513 S 0.56126 1.00239 0.42404 0.0
N514 N 0.55026 0.97509 0.47472 0.0
N515 N 0.58009 0.03307 0.46495 0.0
C516 C 0.57811 0.02181 0.52312 0.0
C517 C 0.56177 0.99047 0.52849 0.0
C518 C 0.60105 0.59195 0.71259 0.0
C519 C 0.59197 0.56612 0.74757 0.0
C520 C 0.58417 0.6058 0.71088 0.0
C521 C 0.55756 0.59443 0.7442 0.0
H522 H 0.62135 0.60146 0.6861 0.0
H523 H 0.59197 0.62557 0.68307 0.0
S524 S 0.52505 0.52841 0.84644 0.0
N525 N 0.55522 0.53028 0.81823 0.0
N526 N 0.52354 0.55643 0.81541 0.0
C527 C 0.5482 0.5686 0.77947 0.0
C528 C 0.56539 0.55442 0.78105 0.0
C529 C 0.01741 0.59362 0.95285 0.0
C530 C 0.03335 0.58427 0.91598 0.0
C531 C 0.98657 0.57705 0.95646 0.0
C532 C 0.97034 0.55045 0.92327 0.0
H533 H 0.02893 0.61386 0.97949 0.0
H534 H 0.97531 0.58506 0.98578 0.0
S535 S 1.00139 0.51722 0.81673 0.0
N536 N 0.03055 0.54725 0.84371 0.0
N537 N 0.97253 0.51613 0.85024 0.0
C538 C 0.98598 0.54082 0.88612 0.0
C539 C 0.01747 0.55771 0.88253 0.0
loop_
_geom_bond_atom_site_label_1
_geom_bond_atom_site_label_2
_geom_bond_distance
_geom_bond_site_symmetry_2
_ccdc_geom_bond_type
Cu0 N1 1.999 . S
Cu0 O6 1.974 1_554 S
Cu0 N11 1.985 . S
Cu0 O20 1.959 . S
N1 Cu0 1.999 . S
N1 C3 1.263 . S
N1 C5 1.389 . S
N2 C3 1.358 . S
N2 C4 1.400 . S
C3 N1 1.263 . S
C3 N2 1.358 . S
C3 H9 0.930 . S
C4 N2 1.400 . S
C4 C5 1.351 . S
C4 H21 0.930 . S
C5 N1 1.389 . S
C5 C4 1.351 . S
C5 H10 0.930 . S
O6 Cu0 1.974 1_556 S
O6 C16 1.282 . S
C7 O8 1.261 . S
C7 O20 1.251 . S
O8 C7 1.261 . S
H9 C3 0.930 . S
H10 C5 0.930 . S
N11 Cu0 1.985 . S
N11 C13 1.335 . S
N11 C14 1.390 . S
N12 C13 1.345 . S
N12 C15 1.336 . S
C13 N11 1.335 . S
C13 N12 1.345 . S
C13 H18 0.930 . S
C14 N11 1.390 . S
C14 C15 1.346 . S
C14 H19 0.930 1_554 S
C15 N12 1.336 . S
C15 C14 1.346 . S
C15 H22 0.929 . S
C16 O6 1.282 . S
C16 O17 1.216 . S
O17 C16 1.216 . S
H18 C13 0.930 . S
H19 C14 0.930 1_556 S
O20 Cu0 1.959 . S
O20 C7 1.251 . S
H21 C4 0.930 . S
H22 C15 0.929 . S
Cu23 N24 1.999 . S
Cu23 O29 1.974 . S
Cu23 N34 1.985 . S
Cu23 O43 1.959 . S
N24 Cu23 1.999 . S
N24 C26 1.263 . S
N24 C28 1.389 . S
N25 C26 1.358 . S
N25 C27 1.400 . S
C26 N24 1.263 . S
C26 N25 1.358 . S
C26 H32 0.930 . S
C27 N25 1.400 . S
C27 C28 1.351 . S
C27 H44 0.930 . S
C28 N24 1.389 . S
C28 C27 1.351 . S
C28 H33 0.930 . S
O29 Cu23 1.974 . S
O29 C39 1.282 . S
C30 O31 1.261 . S
C30 O43 1.251 . S
O31 C30 1.261 . S
H32 C26 0.930 . S
H33 C28 0.930 . S
N34 Cu23 1.985 . S
N34 C36 1.335 . S
N34 C37 1.390 . S
N35 C36 1.345 . S
N35 C38 1.336 . S
C36 N34 1.335 . S
C36 N35 1.345 . S
C36 H41 0.930 . S
C37 N34 1.390 . S
C37 C38 1.346 . S
C37 H42 0.930 . S
C38 N35 1.336 . S
C38 C37 1.346 . S
C38 H45 0.929 . S
C39 O29 1.282 . S
C39 O40 1.216 . S
O40 C39 1.216 . S
H41 C36 0.930 . S
H42 C37 0.930 . S
O43 Cu23 1.959 . S
O43 C30 1.251 . S
H44 C27 0.930 . S
H45 C38 0.929 . S
Cu46 N47 1.999 . S
Cu46 O52 1.974 . S
Cu46 N57 1.985 . S
Cu46 O66 1.959 . S
N47 Cu46 1.999 . S
N47 C49 1.263 . S
N47 C51 1.389 . S
N48 C49 1.358 . S
N48 C50 1.400 . S
C49 N47 1.263 . S
C49 N48 1.358 . S
C49 H55 0.930 . S
C50 N48 1.400 . S
C50 C51 1.351 . S
C50 H67 0.930 . S
C51 N47 1.389 . S
C51 C50 1.351 . S
C51 H56 0.930 . S
O52 Cu46 1.974 . S
O52 C62 1.282 . S
C53 O54 1.261 . S
C53 O66 1.251 . S
O54 C53 1.261 . S
H55 C49 0.930 . S
H56 C51 0.930 . S
N57 Cu46 1.985 . S
N57 C59 1.335 . S
N57 C60 1.390 . S
N58 C59 1.345 . S
N58 C61 1.336 . S
C59 N57 1.335 . S
C59 N58 1.345 . S
C59 H64 0.930 . S
C60 N57 1.390 . S
C60 C61 1.346 . S
C60 H65 0.930 . S
C61 N58 1.336 . S
C61 C60 1.346 . S
C61 H68 0.929 . S
C62 O52 1.282 . S
C62 O63 1.216 . S
O63 C62 1.216 . S
H64 C59 0.930 . S
H65 C60 0.930 . S
O66 Cu46 1.959 . S
O66 C53 1.251 . S
H67 C50 0.930 . S
H68 C61 0.929 . S
Cu69 N70 1.999 . S
Cu69 O75 1.974 . S
Cu69 N80 1.985 . S
Cu69 O89 1.959 . S
N70 Cu69 1.999 . S
N70 C72 1.263 . S
N70 C74 1.389 . S
N71 C72 1.358 . S
N71 C73 1.400 . S
C72 N70 1.263 . S
C72 N71 1.358 . S
C72 H78 0.930 . S
C73 N71 1.400 . S
C73 C74 1.351 . S
C73 H90 0.930 . S
C74 N70 1.389 . S
C74 C73 1.351 . S
C74 H79 0.930 . S
O75 Cu69 1.974 . S
O75 C85 1.282 . S
C76 O77 1.261 . S
C76 O89 1.251 . S
O77 C76 1.261 . S
H78 C72 0.930 . S
H79 C74 0.930 . S
N80 Cu69 1.985 . S
N80 C82 1.335 . S
N80 C83 1.390 . S
N81 C82 1.345 . S
N81 C84 1.336 . S
C82 N80 1.335 . S
C82 N81 1.345 . S
C82 H87 0.930 . S
C83 N80 1.390 . S
C83 C84 1.346 . S
C83 H88 0.930 . S
C84 N81 1.336 . S
C84 C83 1.346 . S
C84 H91 0.929 . S
C85 O75 1.282 . S
C85 O86 1.216 . S
O86 C85 1.216 . S
H87 C82 0.930 . S
H88 C83 0.930 . S
O89 Cu69 1.959 . S
O89 C76 1.251 . S
H90 C73 0.930 . S
H91 C84 0.929 . S
Cu92 N93 1.999 . S
Cu92 O98 1.974 . S
Cu92 N103 1.985 . S
Cu92 O112 1.959 . S
N93 Cu92 1.999 . S
N93 C95 1.263 . S
N93 C97 1.389 . S
N94 C95 1.358 . S
N94 C96 1.400 . S
C95 N93 1.263 . S
C95 N94 1.358 . S
C95 H101 0.930 . S
C96 N94 1.400 . S
C96 C97 1.351 . S
C96 H113 0.930 . S
C97 N93 1.389 . S
C97 C96 1.351 . S
C97 H102 0.930 . S
O98 Cu92 1.974 . S
O98 C108 1.282 . S
C99 O100 1.261 . S
C99 O112 1.251 . S
O100 C99 1.261 . S
H101 C95 0.930 . S
H102 C97 0.930 . S
N103 Cu92 1.985 . S
N103 C105 1.335 . S
N103 C106 1.390 . S
N104 C105 1.345 . S
N104 C107 1.336 . S
C105 N103 1.335 . S
C105 N104 1.345 . S
C105 H110 0.930 . S
C106 N103 1.390 . S
C106 C107 1.346 . S
C106 H111 0.930 . S
C107 N104 1.336 . S
C107 C106 1.346 . S
C107 H114 0.929 . S
C108 O98 1.282 . S
C108 O109 1.216 . S
O109 C108 1.216 . S
H110 C105 0.930 . S
H111 C106 0.930 . S
O112 Cu92 1.959 . S
O112 C99 1.251 . S
H113 C96 0.930 . S
H114 C107 0.929 . S
Cu115 N116 1.999 . S
Cu115 O121 1.974 . S
Cu115 N126 1.985 . S
Cu115 O135 1.959 . S
N116 Cu115 1.999 . S
N116 C118 1.263 . S
N116 C120 1.389 . S
N117 C118 1.358 . S
N117 C119 1.400 . S
C118 N116 1.263 . S
C118 N117 1.358 . S
C118 H124 0.930 . S
C119 N117 1.400 . S
C119 C120 1.351 . S
C119 H136 0.930 . S
C120 N116 1.389 . S
C120 C119 1.351 . S
C120 H125 0.930 . S
O121 Cu115 1.974 . S
O121 C131 1.282 . S
C122 O123 1.261 1_554 S
C122 O135 1.251 1_554 S
O123 C122 1.261 1_556 S
H124 C118 0.930 . S
H125 C120 0.930 . S
N126 Cu115 1.985 . S
N126 C128 1.335 . S
N126 C129 1.390 . S
N127 C128 1.345 . S
N127 C130 1.336 . S
C128 N126 1.335 . S
C128 N127 1.345 . S
C128 H133 0.930 . S
C129 N126 1.390 . S
C129 C130 1.346 . S
C129 H134 0.930 . S
C130 N127 1.336 . S
C130 C129 1.346 . S
C130 H137 0.929 . S
C131 O121 1.282 . S
C131 O132 1.216 . S
O132 C131 1.216 . S
H133 C128 0.930 . S
H134 C129 0.930 . S
O135 Cu115 1.959 . S
O135 C122 1.251 1_556 S
H136 C119 0.930 . S
H137 C130 0.929 . S
Cu138 N139 1.999 . S
Cu138 O144 1.974 . S
Cu138 N149 1.985 . S
Cu138 O158 1.959 . S
N139 Cu138 1.999 . S
N139 C141 1.263 . S
N139 C143 1.389 . S
N140 C141 1.358 . S
N140 C142 1.400 . S
C141 N139 1.263 . S
C141 N140 1.358 . S
C141 H147 0.930 . S
C142 N140 1.400 . S
C142 C143 1.351 . S
C142 H159 0.930 . S
C143 N139 1.389 . S
C143 C142 1.351 . S
C143 H148 0.930 . S
O144 Cu138 1.974 . S
O144 C154 1.282 . S
C145 O146 1.261 . S
C145 O158 1.251 . S
O146 C145 1.261 . S
H147 C141 0.930 . S
H148 C143 0.930 . S
N149 Cu138 1.985 . S
N149 C151 1.335 . S
N149 C152 1.390 . S
N150 C151 1.345 . S
N150 C153 1.336 . S
C151 N149 1.335 . S
C151 N150 1.345 . S
C151 H156 0.930 . S
C152 N149 1.390 . S
C152 C153 1.346 . S
C152 H157 0.930 . S
C153 N150 1.336 . S
C153 C152 1.346 . S
C153 H160 0.929 . S
C154 O144 1.282 . S
C154 O155 1.216 . S
O155 C154 1.216 . S
H156 C151 0.930 . S
H157 C152 0.930 . S
O158 Cu138 1.959 . S
O158 C145 1.251 . S
H159 C142 0.930 . S
H160 C153 0.929 . S
Cu161 N162 1.999 . S
Cu161 O167 1.974 . S
Cu161 N172 1.985 . S
Cu161 O181 1.959 1_554 S
N162 Cu161 1.999 . S
N162 C164 1.263 . S
N162 C166 1.389 . S
N163 C164 1.358 . S
N163 C165 1.400 . S
C164 N162 1.263 . S
C164 N163 1.358 . S
C164 H170 0.930 . S
C165 N163 1.400 . S
C165 C166 1.351 . S
C165 H182 0.930 1_554 S
C166 N162 1.389 . S
C166 C165 1.351 . S
C166 H171 0.930 1_554 S
O167 Cu161 1.974 . S
O167 C177 1.282 . S
C168 O169 1.261 . S
C168 O181 1.251 . S
O169 C168 1.261 . S
H170 C164 0.930 . S
H171 C166 0.930 1_556 S
N172 Cu161 1.985 . S
N172 C174 1.335 . S
N172 C175 1.390 . S
N173 C174 1.345 . S
N173 C176 1.336 . S
C174 N172 1.335 . S
C174 N173 1.345 . S
C174 H179 0.930 1_554 S
C175 N172 1.390 . S
C175 C176 1.346 . S
C175 H180 0.930 . S
C176 N173 1.336 . S
C176 C175 1.346 . S
C176 H183 0.929 . S
C177 O167 1.282 . S
C177 O178 1.216 . S
O178 C177 1.216 . S
H179 C174 0.930 1_556 S
H180 C175 0.930 . S
O181 Cu161 1.959 1_556 S
O181 C168 1.251 . S
H182 C165 0.930 1_556 S
H183 C176 0.929 . S
Cu184 N185 1.999 . S
Cu184 O190 1.974 . S
Cu184 N195 1.985 . S
Cu184 O204 1.959 . S
N185 Cu184 1.999 . S
N185 C187 1.263 . S
N185 C189 1.389 . S
N186 C187 1.358 . S
N186 C188 1.400 . S
C187 N185 1.263 . S
C187 N186 1.358 . S
C187 H193 0.930 . S
C188 N186 1.400 . S
C188 C189 1.351 . S
C188 H205 0.930 . S
C189 N185 1.389 . S
C189 C188 1.351 . S
C189 H194 0.930 . S
O190 Cu184 1.974 . S
O190 C200 1.282 . S
C191 O192 1.261 . S
C191 O204 1.251 . S
O192 C191 1.261 . S
H193 C187 0.930 . S
H194 C189 0.930 . S
N195 Cu184 1.985 . S
N195 C197 1.335 . S
N195 C198 1.390 . S
N196 C197 1.345 . S
N196 C199 1.336 . S
C197 N195 1.335 . S
C197 N196 1.345 . S
C197 H202 0.930 . S
C198 N195 1.390 . S
C198 C199 1.346 . S
C198 H203 0.930 . S
C199 N196 1.336 . S
C199 C198 1.346 . S
C199 H206 0.929 . S
C200 O190 1.282 . S
C200 O201 1.216 . S
O201 C200 1.216 . S
H202 C197 0.930 . S
H203 C198 0.930 . S
O204 Cu184 1.959 . S
O204 C191 1.251 . S
H205 C188 0.930 . S
H206 C199 0.929 . S
Cu207 N208 1.999 . S
Cu207 O213 1.974 . S
Cu207 N218 1.985 . S
Cu207 O227 1.959 . S
N208 Cu207 1.999 . S
N208 C210 1.263 . S
N208 C212 1.389 . S
N209 C210 1.358 . S
N209 C211 1.400 . S
C210 N208 1.263 . S
C210 N209 1.358 . S
C210 H216 0.930 . S
C211 N209 1.400 . S
C211 C212 1.351 . S
C211 H228 0.930 . S
C212 N208 1.389 . S
C212 C211 1.351 . S
C212 H217 0.930 . S
O213 Cu207 1.974 . S
O213 C223 1.282 . S
C214 O215 1.261 . S
C214 O227 1.251 . S
O215 C214 1.261 . S
H216 C210 0.930 . S
H217 C212 0.930 . S
N218 Cu207 1.985 . S
N218 C220 1.335 . S
N218 C221 1.390 . S
N219 C220 1.345 . S
N219 C222 1.336 . S
C220 N218 1.335 . S
C220 N219 1.345 . S
C220 H225 0.930 . S
C221 N218 1.390 . S
C221 C222 1.346 . S
C221 H226 0.930 . S
C222 N219 1.336 . S
C222 C221 1.346 . S
C222 H229 0.929 . S
C223 O213 1.282 . S
C223 O224 1.216 . S
O224 C223 1.216 . S
H225 C220 0.930 . S
H226 C221 0.930 . S
O227 Cu207 1.959 . S
O227 C214 1.251 . S
H228 C211 0.930 . S
H229 C222 0.929 . S
Cu230 N231 1.999 . S
Cu230 O236 1.974 . S
Cu230 N241 1.985 . S
Cu230 O250 1.959 . S
N231 Cu230 1.999 . S
N231 C233 1.263 . S
N231 C235 1.389 . S
N232 C233 1.358 . S
N232 C234 1.400 . S
C233 N231 1.263 . S
C233 N232 1.358 . S
C233 H239 0.930 . S
C234 N232 1.400 . S
C234 C235 1.351 . S
C234 H251 0.930 . S
C235 N231 1.389 . S
C235 C234 1.351 . S
C235 H240 0.930 . S
O236 Cu230 1.974 . S
O236 C246 1.282 . S
C237 O238 1.261 . S
C237 O250 1.251 . S
O238 C237 1.261 . S
H239 C233 0.930 . S
H240 C235 0.930 . S
N241 Cu230 1.985 . S
N241 C243 1.335 . S
N241 C244 1.390 . S
N242 C243 1.345 . S
N242 C245 1.336 . S
C243 N241 1.335 . S
C243 N242 1.345 . S
C243 H248 0.930 . S
C244 N241 1.390 . S
C244 C245 1.346 . S
C244 H249 0.930 . S
C245 N242 1.336 . S
C245 C244 1.346 . S
C245 H252 0.929 . S
C246 O236 1.282 . S
C246 O247 1.216 . S
O247 C246 1.216 . S
H248 C243 0.930 . S
H249 C244 0.930 . S
O250 Cu230 1.959 . S
O250 C237 1.251 . S
H251 C234 0.930 . S
H252 C245 0.929 . S
Cu253 N254 1.999 . S
Cu253 O259 1.974 . S
Cu253 N264 1.985 . S
Cu253 O273 1.959 . S
N254 Cu253 1.999 . S
N254 C256 1.263 . S
N254 C258 1.389 . S
N255 C256 1.358 . S
N255 C257 1.400 . S
C256 N254 1.263 . S
C256 N255 1.358 . S
C256 H262 0.930 . S
C257 N255 1.400 . S
C257 C258 1.351 . S
C257 H274 0.930 . S
C258 N254 1.389 . S
C258 C257 1.351 . S
C258 H263 0.930 . S
O259 Cu253 1.974 . S
O259 C269 1.282 . S
C260 O261 1.261 . S
C260 O273 1.251 . S
O261 C260 1.261 . S
H262 C256 0.930 . S
H263 C258 0.930 . S
N264 Cu253 1.985 . S
N264 C266 1.335 . S
N264 C267 1.390 . S
N265 C266 1.345 . S
N265 C268 1.336 . S
C266 N264 1.335 . S
C266 N265 1.345 . S
C266 H271 0.930 . S
C267 N264 1.390 . S
C267 C268 1.346 . S
C267 H272 0.930 . S
C268 N265 1.336 . S
C268 C267 1.346 . S
C268 H275 0.929 . S
C269 O259 1.282 . S
C269 O270 1.216 . S
O270 C269 1.216 . S
H271 C266 0.930 . S
H272 C267 0.930 . S
O273 Cu253 1.959 . S
O273 C260 1.251 . S
H274 C257 0.930 . S
H275 C268 0.929 . S
C276 C277 1.369 . S
C276 C278 1.419 . S
C276 H280 0.930 . S
C277 C276 1.369 . S
C277 C286 1.429 . S
C278 C276 1.419 . S
C278 C279 1.363 . S
C278 H281 0.929 . S
C279 C278 1.363 . S
C279 C285 1.428 . S
H280 C276 0.930 . S
H281 C278 0.929 . S
S282 N283 1.613 . S
S282 N284 1.610 . S
N283 S282 1.613 . S
N283 C286 1.350 . S
N284 S282 1.610 . S
N284 C285 1.351 . S
C285 C279 1.428 . S
C285 N284 1.351 . S
C285 C286 1.434 . S
C286 C277 1.429 . S
C286 N283 1.350 . S
C286 C285 1.434 . S
C287 C288 1.369 . S
C287 C289 1.419 . S
C287 H291 0.930 . S
C288 C287 1.369 . S
C288 C297 1.429 . S
C289 C287 1.419 . S
C289 C290 1.363 . S
C289 H292 0.929 . S
C290 C289 1.363 . S
C290 C296 1.428 . S
H291 C287 0.930 . S
H292 C289 0.929 . S
S293 N294 1.613 . S
S293 N295 1.610 . S
N294 S293 1.613 . S
N294 C297 1.350 . S
N295 S293 1.610 . S
N295 C296 1.351 . S
C296 C290 1.428 . S
C296 N295 1.351 . S
C296 C297 1.434 . S
C297 C288 1.429 . S
C297 N294 1.350 . S
C297 C296 1.434 . S
C298 C299 1.369 . S
C298 C300 1.419 . S
C298 H302 0.930 . S
C299 C298 1.369 . S
C299 C308 1.429 . S
C300 C298 1.419 . S
C300 C301 1.363 . S
C300 H303 0.929 . S
C301 C300 1.363 . S
C301 C307 1.428 . S
H302 C298 0.930 . S
H303 C300 0.929 . S
S304 N305 1.613 . S
S304 N306 1.610 . S
N305 S304 1.613 . S
N305 C308 1.350 . S
N306 S304 1.610 . S
N306 C307 1.351 . S
C307 C301 1.428 . S
C307 N306 1.351 . S
C307 C308 1.434 . S
C308 C299 1.429 . S
C308 N305 1.350 . S
C308 C307 1.434 . S
C309 C310 1.369 . S
C309 C311 1.419 . S
C309 H313 0.930 . S
C310 C309 1.369 . S
C310 C319 1.429 . S
C311 C309 1.419 . S
C311 C312 1.363 . S
C311 H314 0.929 . S
C312 C311 1.363 . S
C312 C318 1.428 . S
H313 C309 0.930 . S
H314 C311 0.929 . S
S315 N316 1.613 . S
S315 N317 1.610 . S
N316 S315 1.613 . S
N316 C319 1.350 . S
N317 S315 1.610 . S
N317 C318 1.351 . S
C318 C312 1.428 . S
C318 N317 1.351 . S
C318 C319 1.434 . S
C319 C310 1.429 . S
C319 N316 1.350 . S
C319 C318 1.434 . S
C320 C321 1.369 . S
C320 C322 1.419 1_554 S
C320 H324 0.930 . S
C321 C320 1.369 . S
C321 C330 1.429 . S
C322 C320 1.419 1_556 S
C322 C323 1.363 . S
C322 H325 0.929 . S
C323 C322 1.363 . S
C323 C329 1.428 . S
H324 C320 0.930 . S
H325 C322 0.929 . S
S326 N327 1.613 1_556 S
S326 N328 1.610 . S
N327 S326 1.613 1_554 S
N327 C330 1.350 . S
N328 S326 1.610 . S
N328 C329 1.351 . S
C329 C323 1.428 . S
C329 N328 1.351 . S
C329 C330 1.434 1_556 S
C330 C321 1.429 . S
C330 N327 1.350 . S
C330 C329 1.434 1_554 S
C331 C332 1.369 . S
C331 C333 1.419 . S
C331 H335 0.930 . S
C332 C331 1.369 . S
C332 C341 1.429 . S
C333 C331 1.419 . S
C333 C334 1.363 . S
C333 H336 0.929 . S
C334 C333 1.363 . S
C334 C340 1.428 . S
H335 C331 0.930 . S
H336 C333 0.929 . S
S337 N338 1.613 . S
S337 N339 1.610 . S
N338 S337 1.613 . S
N338 C341 1.350 . S
N339 S337 1.610 . S
N339 C340 1.351 . S
C340 C334 1.428 . S
C340 N339 1.351 . S
C340 C341 1.434 . S
C341 C332 1.429 . S
C341 N338 1.350 . S
C341 C340 1.434 . S
C342 C343 1.369 . S
C342 C344 1.419 . S
C342 H346 0.930 . S
C343 C342 1.369 . S
C343 C352 1.429 . S
C344 C342 1.419 . S
C344 C345 1.363 . S
C344 H347 0.929 . S
C345 C344 1.363 . S
C345 C351 1.428 . S
H346 C342 0.930 . S
H347 C344 0.929 . S
S348 N349 1.613 . S
S348 N350 1.610 . S
N349 S348 1.613 . S
N349 C352 1.350 . S
N350 S348 1.610 . S
N350 C351 1.351 . S
C351 C345 1.428 . S
C351 N350 1.351 . S
C351 C352 1.434 . S
C352 C343 1.429 . S
C352 N349 1.350 . S
C352 C351 1.434 . S
C353 C354 1.369 . S
C353 C355 1.419 . S
C353 H357 0.930 . S
C354 C353 1.369 . S
C354 C363 1.429 . S
C355 C353 1.419 . S
C355 C356 1.363 . S
C355 H358 0.929 . S
C356 C355 1.363 . S
C356 C362 1.428 . S
H357 C353 0.930 . S
H358 C355 0.929 . S
S359 N360 1.613 . S
S359 N361 1.610 . S
N360 S359 1.613 . S
N360 C363 1.350 . S
N361 S359 1.610 . S
N361 C362 1.351 . S
C362 C356 1.428 . S
C362 N361 1.351 . S
C362 C363 1.434 . S
C363 C354 1.429 . S
C363 N360 1.350 . S
C363 C362 1.434 . S
C364 C365 1.369 . S
C364 C366 1.419 . S
C364 H368 0.930 . S
C365 C364 1.369 . S
C365 C374 1.429 . S
C366 C364 1.419 . S
C366 C367 1.363 . S
C366 H369 0.929 . S
C367 C366 1.363 . S
C367 C373 1.428 . S
H368 C364 0.930 . S
H369 C366 0.929 . S
S370 N371 1.613 . S
S370 N372 1.610 . S
N371 S370 1.613 . S
N371 C374 1.350 . S
N372 S370 1.610 . S
N372 C373 1.351 . S
C373 C367 1.428 . S
C373 N372 1.351 . S
C373 C374 1.434 . S
C374 C365 1.429 . S
C374 N371 1.350 . S
C374 C373 1.434 . S
C375 C376 1.369 . S
C375 C377 1.419 . S
C375 H379 0.930 . S
C376 C375 1.369 . S
C376 C385 1.429 . S
C377 C375 1.419 . S
C377 C378 1.363 . S
C377 H380 0.929 . S
C378 C377 1.363 . S
C378 C384 1.428 . S
H379 C375 0.930 . S
H380 C377 0.929 . S
S381 N382 1.613 . S
S381 N383 1.610 . S
N382 S381 1.613 . S
N382 C385 1.350 . S
N383 S381 1.610 . S
N383 C384 1.351 . S
C384 C378 1.428 . S
C384 N383 1.351 . S
C384 C385 1.434 . S
C385 C376 1.429 . S
C385 N382 1.350 . S
C385 C384 1.434 . S
C386 C387 1.369 . S
C386 C388 1.419 . S
C386 H390 0.930 . S
C387 C386 1.369 . S
C387 C396 1.429 . S
C388 C386 1.419 . S
C388 C389 1.363 . S
C388 H391 0.929 . S
C389 C388 1.363 . S
C389 C395 1.428 . S
H390 C386 0.930 . S
H391 C388 0.929 . S
S392 N393 1.613 . S
S392 N394 1.610 . S
N393 S392 1.613 . S
N393 C396 1.350 . S
N394 S392 1.610 . S
N394 C395 1.351 . S
C395 C389 1.428 . S
C395 N394 1.351 . S
C395 C396 1.434 . S
C396 C387 1.429 . S
C396 N393 1.350 . S
C396 C395 1.434 . S
C397 C398 1.369 . S
C397 C399 1.419 . S
C397 H401 0.930 . S
C398 C397 1.369 . S
C398 C407 1.429 . S
C399 C397 1.419 . S
C399 C400 1.363 . S
C399 H402 0.929 . S
C400 C399 1.363 . S
C400 C406 1.428 1_556 S
H401 C397 0.930 . S
H402 C399 0.929 . S
S403 N404 1.613 1_554 S
S403 N405 1.610 . S
N404 S403 1.613 1_556 S
N404 C407 1.350 . S
N405 S403 1.610 . S
N405 C406 1.351 . S
C406 C400 1.428 1_554 S
C406 N405 1.351 . S
C406 C407 1.434 1_554 S
C407 C398 1.429 . S
C407 N404 1.350 . S
C407 C406 1.434 1_556 S
C408 C409 1.369 . S
C408 C410 1.419 . S
C408 H412 0.930 . S
C409 C408 1.369 . S
C409 C418 1.429 . S
C410 C408 1.419 . S
C410 C411 1.363 . S
C410 H413 0.929 . S
C411 C410 1.363 . S
C411 C417 1.428 . S
H412 C408 0.930 . S
H413 C410 0.929 . S
S414 N415 1.613 . S
S414 N416 1.610 . S
N415 S414 1.613 . S
N415 C418 1.350 . S
N416 S414 1.610 . S
N416 C417 1.351 . S
C417 C411 1.428 . S
C417 N416 1.351 . S
C417 C418 1.434 . S
C418 C409 1.429 . S
C418 N415 1.350 . S
C418 C417 1.434 . S
C419 C420 1.369 . S
C419 C421 1.419 1_556 S
C419 H423 0.930 . S
C420 C419 1.369 . S
C420 C429 1.429 . S
C421 C419 1.419 1_554 S
C421 C422 1.363 . S
C421 H424 0.929 . S
C422 C421 1.363 . S
C422 C428 1.428 . S
H423 C419 0.930 . S
H424 C421 0.929 . S
S425 N426 1.613 . S
S425 N427 1.610 1_556 S
N426 S425 1.613 . S
N426 C429 1.350 . S
N427 S425 1.610 1_554 S
N427 C428 1.351 . S
C428 C422 1.428 . S
C428 N427 1.351 . S
C428 C429 1.434 1_554 S
C429 C420 1.429 . S
C429 N426 1.350 . S
C429 C428 1.434 1_556 S
C430 C431 1.369 . S
C430 C432 1.419 . S
C430 H434 0.930 . S
C431 C430 1.369 . S
C431 C440 1.429 . S
C432 C430 1.419 . S
C432 C433 1.363 . S
C432 H435 0.929 . S
C433 C432 1.363 . S
C433 C439 1.428 . S
H434 C430 0.930 . S
H435 C432 0.929 . S
S436 N437 1.613 . S
S436 N438 1.610 . S
N437 S436 1.613 . S
N437 C440 1.350 . S
N438 S436 1.610 . S
N438 C439 1.351 . S
C439 C433 1.428 . S
C439 N438 1.351 . S
C439 C440 1.434 . S
C440 C431 1.429 . S
C440 N437 1.350 . S
C440 C439 1.434 . S
C441 C442 1.369 . S
C441 C443 1.419 . S
C441 H445 0.930 . S
C442 C441 1.369 . S
C442 C451 1.429 . S
C443 C441 1.419 . S
C443 C444 1.363 . S
C443 H446 0.929 . S
C444 C443 1.363 . S
C444 C450 1.428 . S
H445 C441 0.930 . S
H446 C443 0.929 . S
S447 N448 1.613 . S
S447 N449 1.610 . S
N448 S447 1.613 . S
N448 C451 1.350 . S
N449 S447 1.610 . S
N449 C450 1.351 . S
C450 C444 1.428 . S
C450 N449 1.351 . S
C450 C451 1.434 . S
C451 C442 1.429 . S
C451 N448 1.350 . S
C451 C450 1.434 . S
C452 C453 1.369 . S
C452 C454 1.419 . S
C452 H456 0.930 . S
C453 C452 1.369 . S
C453 C462 1.429 . S
C454 C452 1.419 . S
C454 C455 1.363 . S
C454 H457 0.929 . S
C455 C454 1.363 . S
C455 C461 1.428 . S
H456 C452 0.930 . S
H457 C454 0.929 . S
S458 N459 1.613 . S
S458 N460 1.610 . S
N459 S458 1.613 . S
N459 C462 1.350 . S
N460 S458 1.610 . S
N460 C461 1.351 . S
C461 C455 1.428 . S
C461 N460 1.351 . S
C461 C462 1.434 . S
C462 C453 1.429 . S
C462 N459 1.350 . S
C462 C461 1.434 . S
C463 C464 1.369 . S
C463 C465 1.419 . S
C463 H467 0.930 . S
C464 C463 1.369 . S
C464 C473 1.429 . S
C465 C463 1.419 . S
C465 C466 1.363 . S
C465 H468 0.929 . S
C466 C465 1.363 . S
C466 C472 1.428 . S
H467 C463 0.930 . S
H468 C465 0.929 . S
S469 N470 1.613 . S
S469 N471 1.610 . S
N470 S469 1.613 . S
N470 C473 1.350 . S
N471 S469 1.610 . S
N471 C472 1.351 . S
C472 C466 1.428 . S
C472 N471 1.351 . S
C472 C473 1.434 . S
C473 C464 1.429 . S
C473 N470 1.350 . S
C473 C472 1.434 . S
C474 C475 1.369 . S
C474 C476 1.419 1_545 S
C474 H478 0.930 1_554 S
C475 C474 1.369 . S
C475 C484 1.429 . S
C476 C474 1.419 1_565 S
C476 C477 1.363 . S
C476 H479 0.929 . S
C477 C476 1.363 . S
C477 C483 1.428 . S
H478 C474 0.930 1_556 S
H479 C476 0.929 . S
S480 N481 1.613 . S
S480 N482 1.610 1_545 S
N481 S480 1.613 . S
N481 C484 1.350 . S
N482 S480 1.610 1_565 S
N482 C483 1.351 . S
C483 C477 1.428 . S
C483 N482 1.351 . S
C483 C484 1.434 1_565 S
C484 C475 1.429 . S
C484 N481 1.350 . S
C484 C483 1.434 1_545 S
C485 C486 1.369 . S
C485 C487 1.419 . S
C485 H489 0.930 . S
C486 C485 1.369 . S
C486 C495 1.429 . S
C487 C485 1.419 . S
C487 C488 1.363 . S
C487 H490 0.929 . S
C488 C487 1.363 . S
C488 C494 1.428 . S
H489 C485 0.930 . S
H490 C487 0.929 . S
S491 N492 1.613 . S
S491 N493 1.610 . S
N492 S491 1.613 . S
N492 C495 1.350 . S
N493 S491 1.610 . S
N493 C494 1.351 . S
C494 C488 1.428 . S
C494 N493 1.351 . S
C494 C495 1.434 . S
C495 C486 1.429 . S
C495 N492 1.350 . S
C495 C494 1.434 . S
C496 C497 1.369 . S
C496 C498 1.419 1_455 S
C496 H500 0.930 . S
C497 C496 1.369 . S
C497 C506 1.429 . S
C498 C496 1.419 1_655 S
C498 C499 1.363 . S
C498 H501 0.929 . S
C499 C498 1.363 . S
C499 C505 1.428 . S
H500 C496 0.930 . S
H501 C498 0.929 . S
S502 N503 1.613 1_655 S
S502 N504 1.610 . S
N503 S502 1.613 1_455 S
N503 C506 1.350 . S
N504 S502 1.610 . S
N504 C505 1.351 . S
C505 C499 1.428 . S
C505 N504 1.351 . S
C505 C506 1.434 1_655 S
C506 C497 1.429 . S
C506 N503 1.350 . S
C506 C505 1.434 1_455 S
C507 C508 1.369 . S
C507 C509 1.419 1_565 S
C507 H511 0.930 . S
C508 C507 1.369 . S
C508 C517 1.429 . S
C509 C507 1.419 1_545 S
C509 C510 1.363 . S
C509 H512 0.929 . S
C510 C509 1.363 . S
C510 C516 1.428 . S
H511 C507 0.930 . S
H512 C509 0.929 . S
S513 N514 1.613 1_545 S
S513 N515 1.610 . S
N514 S513 1.613 1_565 S
N514 C517 1.350 . S
N515 S513 1.610 . S
N515 C516 1.351 . S
C516 C510 1.428 . S
C516 N515 1.351 . S
C516 C517 1.434 1_545 S
C517 C508 1.429 . S
C517 N514 1.350 . S
C517 C516 1.434 1_565 S
C518 C519 1.369 . S
C518 C520 1.419 . S
C518 H522 0.930 . S
C519 C518 1.369 . S
C519 C528 1.429 . S
C520 C518 1.419 . S
C520 C521 1.363 . S
C520 H523 0.929 . S
C521 C520 1.363 . S
C521 C527 1.428 . S
H522 C518 0.930 . S
H523 C520 0.929 . S
S524 N525 1.613 . S
S524 N526 1.610 . S
N525 S524 1.613 . S
N525 C528 1.350 . S
N526 S524 1.610 . S
N526 C527 1.351 . S
C527 C521 1.428 . S
C527 N526 1.351 . S
C527 C528 1.434 . S
C528 C519 1.429 . S
C528 N525 1.350 . S
C528 C527 1.434 . S
C529 C530 1.369 . S
C529 C531 1.419 1_455 S
C529 H533 0.930 . S
C530 C529 1.369 . S
C530 C539 1.429 . S
C531 C529 1.419 1_655 S
C531 C532 1.363 . S
C531 H534 0.929 . S
C532 C531 1.363 . S
C532 C538 1.428 . S
H533 C529 0.930 . S
H534 C531 0.929 . S
S535 N536 1.613 1_655 S
S535 N537 1.610 . S
N536 S535 1.613 1_455 S
N536 C539 1.350 . S
N537 S535 1.610 . S
N537 C538 1.351 . S
C538 C532 1.428 . S
C538 N537 1.351 . S
C538 C539 1.434 1_655 S
C539 C530 1.429 . S
C539 N536 1.350 . S
C539 C538 1.434 1_455 S
C277 C7 1.257 . S
C279 C237 1.254 . S
C288 C30 1.253 . S
C290 C260 1.256 . S
C299 C145 1.257 . S
C301 C53 1.257 . S
C310 C76 1.257 . S
C312 C168 1.256 . S
C321 C191 1.253 . S
C323 C99 1.256 . S
C332 C214 1.254 . S
C334 C122 1.255 . S
C343 N196 1.689 . S
C345 N12 1.693 . S
C354 N35 1.693 . S
C356 N219 1.691 . S
C365 N242 1.688 . S
C367 N58 1.693 . S
C376 N81 1.694 . S
C378 N265 1.689 . S
C387 N104 1.688 . S
C389 N150 1.693 . S
C398 N127 1.690 . S
C400 N173 1.690 1_556 S
C409 C246 1.832 . S
C411 C16 1.832 . S
C420 C269 1.831 . S
C422 C39 1.832 . S
C431 C154 1.831 1_554 S
C433 C62 1.830 . S
C442 C85 1.829 . S
C444 C177 1.829 . S
C453 C108 1.832 . S
C455 C200 1.832 . S
C464 C223 1.830 . S
C466 C131 1.831 . S
C475 N2 1.657 . S
C477 N163 1.665 . S
C486 N186 1.658 . S
C488 N25 1.666 . S
C497 N209 1.669 . S
C499 N48 1.664 . S
C508 N71 1.663 . S
C510 N232 1.658 . S
C519 N94 1.662 . S
C521 N255 1.668 . S
C530 N117 1.664 . S
C532 N140 1.658 . S
