# Generated by pormake.
# Topology ske, (6)-cn, num edge types: 1
# Building blocks:
#     Node 0, Type 0, BuildingBlock: MIDCAF_clean_sbu_0, # of connection points: 6
#     Node 1, Type 0, BuildingBlock: MIDCAF_clean_sbu_0, # of connection points: 6
#     Node 2, Type 0, BuildingBlock: MIDCAF_clean_sbu_0, # of connection points: 6
#     Node 3, Type 0, BuildingBlock: MIDCAF_clean_sbu_0, # of connection points: 6
#     Node 4, Type 0, BuildingBlock: MIDCAF_clean_sbu_0, # of connection points: 6
#     Node 5, Type 0, BuildingBlock: MIDCAF_clean_sbu_0, # of connection points: 6
#     Node 6, Type 0, BuildingBlock: MIDCAF_clean_sbu_0, # of connection points: 6
#     Node 7, Type 0, BuildingBlock: MIDCAF_clean_sbu_0, # of connection points: 6
#     Edge 8, Type (0, 0), BuildingBlock: CIFDUS_clean_linker_0, # of connection points: 2
#     Edge 9, Type (0, 0), BuildingBlock: CIFDUS_clean_linker_0, # of connection points: 2
#     Edge 10, Type (0, 0), BuildingBlock: CIFDUS_clean_linker_0, # of connection points: 2
#     Edge 11, Type (0, 0), BuildingBlock: CIFDUS_clean_linker_0, # of connection points: 2
#     Edge 12, Type (0, 0), BuildingBlock: CIFDUS_clean_linker_0, # of connection points: 2
#     Edge 13, Type (0, 0), BuildingBlock: CIFDUS_clean_linker_0, # of connection points: 2
#     Edge 14, Type (0, 0), BuildingBlock: CIFDUS_clean_linker_0, # of connection points: 2
#     Edge 15, Type (0, 0), BuildingBlock: CIFDUS_clean_linker_0, # of connection points: 2
#     Edge 16, Type (0, 0), BuildingBlock: CIFDUS_clean_linker_0, # of connection points: 2
#     Edge 17, Type (0, 0), BuildingBlock: CIFDUS_clean_linker_0, # of connection points: 2
#     Edge 18, Type (0, 0), BuildingBlock: CIFDUS_clean_linker_0, # of connection points: 2
#     Edge 19, Type (0, 0), BuildingBlock: CIFDUS_clean_linker_0, # of connection points: 2
#     Edge 20, Type (0, 0), BuildingBlock: CIFDUS_clean_linker_0, # of connection points: 2
#     Edge 21, Type (0, 0), BuildingBlock: CIFDUS_clean_linker_0, # of connection points: 2
#     Edge 22, Type (0, 0), BuildingBlock: CIFDUS_clean_linker_0, # of connection points: 2
#     Edge 23, Type (0, 0), BuildingBlock: CIFDUS_clean_linker_0, # of connection points: 2
#     Edge 24, Type (0, 0), BuildingBlock: CIFDUS_clean_linker_0, # of connection points: 2
#     Edge 25, Type (0, 0), BuildingBlock: CIFDUS_clean_linker_0, # of connection points: 2
#     Edge 26, Type (0, 0), BuildingBlock: CIFDUS_clean_linker_0, # of connection points: 2
#     Edge 27, Type (0, 0), BuildingBlock: CIFDUS_clean_linker_0, # of connection points: 2
#     Edge 28, Type (0, 0), BuildingBlock: CIFDUS_clean_linker_0, # of connection points: 2
#     Edge 29, Type (0, 0), BuildingBlock: CIFDUS_clean_linker_0, # of connection points: 2
#     Edge 30, Type (0, 0), BuildingBlock: CIFDUS_clean_linker_0, # of connection points: 2
#     Edge 31, Type (0, 0), BuildingBlock: CIFDUS_clean_linker_0, # of connection points: 2
# Relax obj value: 0.101
# Max RMSD: 0.160
# Mean RMSD: 0.160
data_MOF--net-ske--node1-MIDCAF_clean_sbu_0--edge1-CIFDUS_clean_linker_0
_symmetry_space_group_name_H-M    P1
_symmetry_Int_Tables_number       1
_symmetry_cell_setting            triclinic
loop_
_symmetry_equiv_pos_as_xyz
'x, y, z'
_cell_length_a     52.62251
_cell_length_b     26.726539
_cell_length_c     13.614298
_cell_angle_alpha  90.173793
_cell_angle_beta   89.919814
_cell_angle_gamma 90.383051
loop_
_atom_site_label
_atom_site_type_symbol
_atom_site_fract_x
_atom_site_fract_y
_atom_site_fract_z
_atom_type_partial_charge
Zn0 Zn 0.16717 0.2007 0.46419 0.0
Zn1 Zn 0.11885 0.32164 0.62968 0.0
Zn2 Zn 0.14136 0.26692 0.54614 0.0
C3 C 0.08124 0.27566 0.54758 0.0
C4 C 0.14886 0.38082 0.52604 0.0
O5 O 0.17647 0.25355 0.63601 0.0
O6 O 0.1975 0.19771 0.54794 0.0
C7 C 0.11971 0.15673 0.49574 0.0
O8 O 0.09974 0.24401 0.55252 0.0
O9 O 0.08611 0.32142 0.56061 0.0
O10 O 0.14138 0.37942 0.61377 0.0
O11 O 0.14624 0.34114 0.47253 0.0
O12 O 0.14176 0.14617 0.46609 0.0
O13 O 0.11483 0.20118 0.52783 0.0
O14 O 0.15171 0.30099 0.4066 0.0
O15 O 0.17141 0.23651 0.33998 0.0
C16 C 0.16309 0.28052 0.3333 0.0
O17 O 0.15736 0.27577 0.69418 0.0
O18 O 0.12035 0.29293 0.76138 0.0
C19 C 0.19659 0.22726 0.62012 0.0
C20 C 0.14367 0.28342 0.77112 0.0
Zn21 Zn 0.84448 0.33063 0.54598 0.0
Zn22 Zn 0.89225 0.19241 0.67698 0.0
Zn23 Zn 0.87116 0.25824 0.58421 0.0
C24 C 0.93061 0.25005 0.58761 0.0
C25 C 0.86523 0.14295 0.53467 0.0
O26 O 0.83795 0.26958 0.68752 0.0
O27 O 0.81329 0.32771 0.62406 0.0
C28 C 0.8912 0.37166 0.55037 0.0
O29 O 0.9119 0.28031 0.57523 0.0
O30 O 0.92645 0.20732 0.62381 0.0
O31 O 0.87344 0.13592 0.62033 0.0
O32 O 0.86508 0.18759 0.4985 0.0
O33 O 0.86912 0.38492 0.57464 0.0
O34 O 0.89609 0.32447 0.54154 0.0
O35 O 0.85432 0.23191 0.4488 0.0
O36 O 0.84105 0.30707 0.40705 0.0
C37 C 0.84473 0.26169 0.38499 0.0
O38 O 0.85884 0.25396 0.74087 0.0
O39 O 0.88574 0.20412 0.8168 0.0
C40 C 0.81688 0.29424 0.68721 0.0
C41 C 0.86721 0.23364 0.82033 0.0
Zn42 Zn 0.11602 0.7215 0.31745 0.0
Zn43 Zn 0.16117 0.84416 0.47642 0.0
Zn44 Zn 0.13676 0.77889 0.4006 0.0
C45 C 0.15758 0.76813 0.61252 0.0
C46 C 0.11483 0.88798 0.4439 0.0
O47 O 0.151 0.77461 0.24968 0.0
O48 O 0.11399 0.75224 0.18742 0.0
C49 C 0.148 0.66638 0.41612 0.0
O50 O 0.1482 0.74459 0.53843 0.0
O51 O 0.16357 0.81368 0.60505 0.0
O52 O 0.13743 0.89981 0.46457 0.0
O53 O 0.10921 0.84224 0.42144 0.0
O54 O 0.14125 0.66814 0.32759 0.0
O55 O 0.14377 0.7048 0.47144 0.0
O56 O 0.09514 0.79665 0.40206 0.0
O57 O 0.08504 0.71685 0.39753 0.0
C58 C 0.07833 0.76147 0.41182 0.0
O59 O 0.17088 0.79405 0.30518 0.0
O60 O 0.19287 0.84403 0.40246 0.0
C61 C 0.13663 0.76658 0.1747 0.0
C62 C 0.19178 0.81738 0.32613 0.0
Zn63 Zn 0.89263 0.80514 0.25982 0.0
Zn64 Zn 0.84633 0.68183 0.38852 0.0
Zn65 Zn 0.8706 0.74738 0.33994 0.0
C66 C 0.85217 0.74938 0.54335 0.0
C67 C 0.88963 0.63566 0.36926 0.0
O68 O 0.85988 0.7468 0.18436 0.0
O69 O 0.89567 0.77897 0.12655 0.0
C70 C 0.86123 0.86223 0.3604 0.0
O71 O 0.85613 0.77997 0.47244 0.0
O72 O 0.85086 0.70299 0.52584 0.0
O73 O 0.86746 0.62456 0.3406 0.0
O74 O 0.89517 0.68221 0.38478 0.0
O75 O 0.86931 0.86124 0.27337 0.0
O76 O 0.86249 0.8218 0.41198 0.0
O77 O 0.9113 0.72711 0.35983 0.0
O78 O 0.92292 0.80564 0.34347 0.0
C79 C 0.92836 0.76171 0.36898 0.0
O80 O 0.83797 0.73261 0.23322 0.0
O81 O 0.81218 0.69558 0.33799 0.0
C82 C 0.87458 0.75776 0.11159 0.0
C83 C 0.81534 0.71797 0.25777 0.0
Zn84 Zn 0.58532 0.67489 0.06859 0.0
Zn85 Zn 0.65258 0.61842 0.91012 0.0
Zn86 Zn 0.62128 0.6677 0.98497 0.0
C87 C 0.63166 0.68282 0.76785 0.0
C88 C 0.61773 0.55084 -0.01083 0.0
O89 O 0.63315 0.68169 0.1335 0.0
O90 O 0.59991 0.63819 0.18525 0.0
C91 C 0.61197 0.76496 0.09917 0.0
O92 O 0.61784 0.69722 0.83966 0.0
O93 O 0.64765 0.64835 0.77989 0.0
O94 O 0.63781 0.5502 0.93812 0.0
O95 O 0.60858 0.59253 0.01702 0.0
O96 O 0.58922 0.75057 0.086 0.0
O97 O 0.63001 0.73347 0.08162 0.0
O98 O 0.5917 0.70352 0.89709 0.0
O99 O 0.5629 0.65211 0.95641 0.0
C100 C 0.56881 0.68624 0.89576 0.0
O101 O 0.65519 0.70053 0.05862 0.0
O102 O 0.68148 0.64856 0.98424 0.0
C103 C 0.6214 0.65826 0.20262 0.0
C104 C 0.67803 0.68561 0.0407 0.0
Zn105 Zn 0.35298 0.8619 0.90561 0.0
Zn106 Zn 0.41848 0.82282 0.09774 0.0
Zn107 Zn 0.38399 0.8267 0.00625 0.0
C108 C 0.43776 0.80932 0.92201 0.0
C109 C 0.40509 0.72489 0.0468 0.0
O110 O 0.34967 0.81373 0.09277 0.0
O111 O 0.32313 0.85183 -0.00714 0.0
C112 C 0.39149 0.93495 0.94895 0.0
O113 O 0.41485 0.79151 0.91956 0.0
O114 O 0.44338 0.84114 0.98831 0.0
O115 O 0.41497 0.74788 0.11848 0.0
O116 O 0.39708 0.75055 0.9729 0.0
O117 O 0.37171 0.92822 0.89759 0.0
O118 O 0.39964 0.89989 0.00308 0.0
O119 O 0.38888 0.78107 0.87082 0.0
O120 O 0.35643 0.81533 0.79427 0.0
C121 C 0.37468 0.78492 0.79387 0.0
O122 O 0.37412 0.81023 0.15904 0.0
O123 O 0.40555 0.85628 0.21896 0.0
C124 C 0.32712 0.82787 0.07101 0.0
C125 C 0.3859 0.8292 0.2334 0.0
Zn126 Zn 0.61069 0.09693 0.96525 0.0
Zn127 Zn 0.66385 0.22316 0.14148 0.0
Zn128 Zn 0.64043 0.15785 0.04783 0.0
C129 C 0.66342 0.14508 0.26731 0.0
C130 C 0.62126 0.27192 0.0959 0.0
O131 O 0.6579 0.14379 0.90313 0.0
O132 O 0.62737 0.09781 0.83661 0.0
C133 C 0.63206 0.04327 0.11481 0.0
O134 O 0.65167 0.12542 0.19328 0.0
O135 O 0.67091 0.18983 0.26311 0.0
O136 O 0.64082 0.2799 0.14683 0.0
O137 O 0.61749 0.22833 0.05679 0.0
O138 O 0.61718 0.03776 0.04323 0.0
O139 O 0.642 0.0865 0.13369 0.0
O140 O 0.60009 0.18839 0.03768 0.0
O141 O 0.57697 0.12635 0.97739 0.0
C142 C 0.57818 0.16992 0.01266 0.0
O143 O 0.6752 0.17526 0.95767 0.0
O144 O 0.69316 0.23123 0.05548 0.0
C145 C 0.64864 0.11953 0.82927 0.0
C146 C 0.69376 0.20541 0.97799 0.0
Zn147 Zn 0.41549 0.36815 0.91851 0.0
Zn148 Zn 0.34881 0.27362 0.06349 0.0
Zn149 Zn 0.38068 0.32298 0.97116 0.0
C150 C 0.35259 0.35038 0.18464 0.0
C151 C 0.39028 0.21299 0.05851 0.0
O152 O 0.3708 0.33926 0.8132 0.0
O153 O 0.4111 0.35259 0.77866 0.0
C154 C 0.39142 0.43623 0.0235 0.0
O155 O 0.36973 0.35923 0.11808 0.0
O156 O 0.33687 0.31529 0.17184 0.0
O157 O 0.36919 0.21501 0.10222 0.0
O158 O 0.39762 0.24953 0.00364 0.0
O159 O 0.40673 0.43553 0.95261 0.0
O160 O 0.3809 0.3953 0.05298 0.0
O161 O 0.41838 0.28034 0.97331 0.0
O162 O 0.44596 0.34247 0.98311 0.0
C163 C 0.44147 0.29621 0.98601 0.0
O164 O 0.34877 0.31398 0.86304 0.0
O165 O 0.3252 0.26396 0.955 0.0
C166 C 0.38856 0.34672 0.74907 0.0
C167 C 0.32858 0.28702 0.87537 0.0
H168 H 0.22611 0.31055 0.64069 0.0
H169 H 0.21994 0.15542 0.72337 0.0
H170 H 0.26224 0.15901 0.7971 0.0
H171 H 0.30063 0.20564 0.83794 0.0
H172 H 0.30795 0.36116 0.75996 0.0
H173 H 0.26614 0.35764 0.67921 0.0
C174 C 0.23394 0.27803 0.67696 0.0
C175 C 0.21977 0.23309 0.67959 0.0
C176 C 0.25874 0.28001 0.7163 0.0
C177 C 0.23033 0.19057 0.72301 0.0
C178 C 0.25459 0.19248 0.76382 0.0
C179 C 0.2933 0.23863 0.8016 0.0
C180 C 0.3075 0.28344 0.80371 0.0
C181 C 0.269 0.23677 0.76001 0.0
C182 C 0.29773 0.32588 0.75688 0.0
C183 C 0.27358 0.32408 0.71278 0.0
H184 H 0.7195 0.29064 0.95056 0.0
H185 H 0.71925 0.13496 0.86708 0.0
H186 H 0.75936 0.14757 0.77682 0.0
H187 H 0.79436 0.20423 0.72114 0.0
H188 H 0.79269 0.35996 0.80401 0.0
H189 H 0.75389 0.3457 0.89891 0.0
C190 C 0.72817 0.25938 0.91236 0.0
C191 C 0.7163 0.21209 0.91417 0.0
C192 C 0.75115 0.26683 0.86269 0.0
C193 C 0.72779 0.17193 0.86488 0.0
C194 C 0.75082 0.17907 0.81439 0.0
C195 C 0.78567 0.23459 0.76188 0.0
C196 C 0.79638 0.28295 0.75724 0.0
C197 C 0.76275 0.2264 0.81325 0.0
C198 C 0.7848 0.32245 0.80779 0.0
C199 C 0.76255 0.31438 0.86115 0.0
H200 H 0.28494 0.77137 0.0454 0.0
H201 H 0.32115 0.87545 0.24374 0.0
H202 H 0.28184 0.88218 0.33895 0.0
H203 H 0.23682 0.86362 0.35733 0.0
H204 H 0.2008 0.75358 0.17017 0.0
H205 H 0.24029 0.74493 0.07646 0.0
C206 C 0.28426 0.79435 0.11117 0.0
C207 C 0.30584 0.82209 0.13947 0.0
C208 C 0.26154 0.79821 0.16489 0.0
C209 C 0.30485 0.85282 0.22284 0.0
C210 C 0.28234 0.85714 0.2762 0.0
C211 C 0.23742 0.8377 0.29592 0.0
C212 C 0.21537 0.81117 0.26764 0.0
C213 C 0.26046 0.83094 0.2464 0.0
C214 C 0.21698 0.77661 0.18997 0.0
C215 C 0.23973 0.77093 0.13764 0.0
H216 H 0.72526 0.68604 0.96633 0.0
H217 H 0.68217 0.73742 0.21621 0.0
H218 H 0.72192 0.75792 0.30259 0.0
H219 H 0.76885 0.74963 0.31373 0.0
H220 H 0.81069 0.69665 0.06313 0.0
H221 H 0.77158 0.68944 0.96856 0.0
C222 C 0.72449 0.70234 0.03938 0.0
C223 C 0.70085 0.70847 0.08653 0.0
C224 C 0.74725 0.71385 0.0878 0.0
C225 C 0.70014 0.73116 0.17954 0.0
C226 C 0.72286 0.74281 0.22874 0.0
C227 C 0.76938 0.73774 0.2375 0.0
C228 C 0.7928 0.72428 0.19445 0.0
C229 C 0.74652 0.73252 0.18479 0.0
C230 C 0.79326 0.70876 0.09631 0.0
C231 C 0.77072 0.70381 0.04304 0.0
H232 H 0.0958 0.94176 0.59442 0.0
H233 H 0.09658 0.93082 0.27915 0.0
H234 H 0.09122 0.0213 0.26622 0.0
H235 H 0.10021 0.10281 0.34545 0.0
H236 H 0.10102 0.11376 0.66081 0.0
H237 H 0.09114 0.02445 0.67373 0.0
C238 C 0.09311 0.9589 0.52307 0.0
C239 C 0.09676 0.92978 0.43779 0.0
C240 C 0.0911 0.01133 0.51658 0.0
C241 C 0.0936 0.95234 0.34573 0.0
C242 C 0.09107 0.00435 0.33843 0.0
C243 C 0.09672 0.08613 0.41681 0.0
C244 C 0.10148 0.11462 0.50214 0.0
C245 C 0.09181 0.03437 0.42334 0.0
C246 C 0.09724 0.09268 0.59425 0.0
C247 C 0.09199 0.04134 0.60152 0.0
H248 H 0.9088 0.45657 0.63816 0.0
H249 H 0.90655 0.37828 0.36154 0.0
H250 H 0.91085 0.45752 0.27375 0.0
H251 H 0.90358 0.54917 0.27803 0.0
H252 H 0.90778 0.62758 0.55436 0.0
H253 H 0.91502 0.54863 0.63992 0.0
C254 C 0.9108 0.45666 0.55885 0.0
C255 C 0.90726 0.41152 0.50648 0.0
C256 C 0.91294 0.50269 0.50876 0.0
C257 C 0.90955 0.41228 0.40368 0.0
C258 C 0.91151 0.45785 0.3533 0.0
C259 C 0.90741 0.5492 0.3563 0.0
C260 C 0.90498 0.59418 0.40986 0.0
C261 C 0.91153 0.50342 0.40514 0.0
C262 C 0.90978 0.59365 0.51133 0.0
C263 C 0.91357 0.54828 0.56053 0.0
H264 H 0.86939 0.95144 0.27459 0.0
H265 H 0.83751 0.8854 0.53673 0.0
H266 H 0.83214 0.96938 0.60758 0.0
H267 H 0.84112 0.06035 0.60062 0.0
H268 H 0.87833 0.12219 0.34567 0.0
H269 H 0.87603 0.0409 0.26385 0.0
C270 C 0.86091 0.95498 0.34693 0.0
C271 C 0.85434 0.91187 0.40133 0.0
C272 C 0.85854 1.00284 0.38738 0.0
C273 C 0.84331 0.91774 0.49445 0.0
C274 C 0.84013 0.96576 0.53452 0.0
C275 C 0.84808 0.05614 0.52603 0.0
C276 C 0.85889 0.09773 0.47725 0.0
C277 C 0.84836 0.00842 0.48255 0.0
C278 C 0.86861 0.09162 0.38221 0.0
C279 C 0.86784 0.04482 0.33654 0.0
H280 H 0.15918 0.58447 0.30795 0.0
H281 H 0.15802 0.63862 0.60687 0.0
H282 H 0.1628 0.55296 0.6666 0.0
H283 H 0.1598 0.46324 0.63328 0.0
H284 H 0.15814 0.40901 0.33455 0.0
H285 H 0.16246 0.49483 0.2745 0.0
C286 C 0.16028 0.57784 0.38639 0.0
C287 C 0.15714 0.61778 0.45342 0.0
C288 C 0.16226 0.52857 0.41965 0.0
C289 C 0.15953 0.60853 0.5542 0.0
C290 C 0.16228 0.55953 0.58811 0.0
C291 C 0.16066 0.46992 0.55478 0.0
C292 C 0.15754 0.42983 0.48795 0.0
C293 C 0.16239 0.51925 0.52144 0.0
C294 C 0.15967 0.43915 0.38709 0.0
C295 C 0.16215 0.48826 0.35301 0.0
H296 H 0.60584 0.46938 0.88005 0.0
H297 H 0.60674 0.52545 0.17703 0.0
H298 H 0.60156 0.44027 0.24004 0.0
H299 H 0.60674 0.34997 0.20917 0.0
H300 H 0.60493 0.29389 0.91225 0.0
H301 H 0.59935 0.37886 0.85016 0.0
C302 C 0.60401 0.46289 0.95838 0.0
C303 C 0.60708 0.50308 0.02419 0.0
C304 C 0.60098 0.4139 -0.00621 0.0
C305 C 0.60446 0.49482 0.12538 0.0
C306 C 0.60167 0.44614 0.16131 0.0
C307 C 0.60396 0.35627 0.13123 0.0
C308 C 0.60676 0.31616 0.06506 0.0
C309 C 0.60129 0.40529 0.0962 0.0
C310 C 0.6029 0.32432 0.96441 0.0
C311 C 0.60011 0.37301 0.92884 0.0
H312 H 0.40582 0.98682 0.11019 0.0
H313 H 0.40132 0.99555 0.79477 0.0
H314 H 0.40825 0.08597 0.80166 0.0
H315 H 0.40483 0.16269 0.89862 0.0
H316 H 0.40267 0.15472 0.21424 0.0
H317 H 0.40968 0.06432 0.20722 0.0
C318 C 0.40734 0.00848 0.04312 0.0
C319 C 0.4029 0.98516 0.95224 0.0
C320 C 0.40976 0.06077 0.04819 0.0
C321 C 0.40453 0.01321 0.86547 0.0
C322 C 0.40836 0.06482 0.86947 0.0
C323 C 0.40716 0.14137 0.96571 0.0
C324 C 0.40345 0.16485 0.05669 0.0
C325 C 0.40948 0.08924 0.9606 0.0
C326 C 0.40568 0.13704 0.14348 0.0
C327 C 0.40941 0.08539 0.13934 0.0
H328 H 0.42624 0.49683 0.09837 0.0
H329 H 0.34642 0.48611 0.03307 0.0
H330 H 0.34351 0.57784 0.02976 0.0
H331 H 0.36555 0.66057 0.02287 0.0
H332 H 0.44606 0.66832 0.07945 0.0
H333 H 0.44728 0.57796 0.10446 0.0
C334 C 0.408 0.5148 0.08758 0.0
C335 C 0.38654 0.4853 0.06701 0.0
C336 C 0.407 0.56677 0.07893 0.0
C337 C 0.36304 0.50839 0.05134 0.0
C338 C 0.36158 0.5607 0.04676 0.0
C339 C 0.38332 0.64201 0.03909 0.0
C340 C 0.40584 0.67025 0.04673 0.0
C341 C 0.38373 0.5901 0.0556 0.0
C342 C 0.42868 0.64671 0.07126 0.0
C343 C 0.42931 0.59535 0.08684 0.0
H344 H 0.60217 0.9869 0.22837 0.0
H345 H 0.67705 0.99482 0.10283 0.0
H346 H 0.67945 0.90331 0.10004 0.0
H347 H 0.65536 0.82285 0.09358 0.0
H348 H 0.57884 0.81844 0.20809 0.0
H349 H 0.58193 0.90588 0.25543 0.0
C350 C 0.61956 0.96845 0.20582 0.0
C351 C 0.63933 0.99721 0.1657 0.0
C352 C 0.62002 0.91613 0.19853 0.0
C353 C 0.6617 0.97326 0.13527 0.0
C354 C 0.66279 0.92087 0.13141 0.0
C355 C 0.63966 0.84087 0.13096 0.0
C356 C 0.61662 0.81467 0.1442 0.0
C357 C 0.64131 0.89206 0.15632 0.0
C358 C 0.59652 0.83817 0.19415 0.0
C359 C 0.59828 0.88822 0.22188 0.0
H360 H 0.19452 0.25983 0.18274 0.0
H361 H 0.12958 0.34893 0.26357 0.0
H362 H 0.12042 0.36384 0.09084 0.0
H363 H 0.12568 0.33744 0.9211 0.0
H364 H 0.18687 0.23883 0.84041 0.0
H365 H 0.20266 0.24098 0.00938 0.0
C366 C 0.17877 0.28364 0.16235 0.0
C367 C 0.16268 0.30317 0.23539 0.0
C368 C 0.17252 0.28883 0.0633 0.0
C369 C 0.14247 0.3342 0.20869 0.0
C370 C 0.13693 0.34188 0.10994 0.0
C371 C 0.14255 0.3165 0.94036 0.0
C372 C 0.15486 0.28705 0.86942 0.0
C373 C 0.15095 0.31696 0.03733 0.0
C374 C 0.17709 0.26145 0.89418 0.0
C375 C 0.18602 0.26265 -0.00934 0.0
H376 H 0.83738 0.3218 0.22757 0.0
H377 H 0.84213 0.16692 0.30989 0.0
H378 H 0.84831 0.14297 0.13755 0.0
H379 H 0.85832 0.16886 0.96781 0.0
H380 H 0.84979 0.32337 0.88477 0.0
H381 H 0.83814 0.34509 0.05374 0.0
C382 C 0.83928 0.28264 0.20794 0.0
C383 C 0.84126 0.24605 0.28171 0.0
C384 C 0.84209 0.26952 0.10893 0.0
C385 C 0.84268 0.1956 0.25458 0.0
C386 C 0.84574 0.18207 0.15616 0.0
C387 C 0.8535 0.20711 0.98678 0.0
C388 C 0.85551 0.24485 0.91563 0.0
C389 C 0.8467 0.2191 0.08341 0.0
C390 C 0.8486 0.294 0.93929 0.0
C391 C 0.84206 0.30637 0.03569 0.0
H392 H 0.12174 0.7074 0.02655 0.0
H393 H 0.17438 0.826 0.10091 0.0
H394 H 0.19114 0.825 0.93315 0.0
H395 H 0.18646 0.79855 0.76301 0.0
H396 H 0.12787 0.69215 0.68363 0.0
H397 H 0.11865 0.6777 0.85711 0.0
C398 C 0.13688 0.73306 0.00584 0.0
C399 C 0.14694 0.76679 0.07508 0.0
C400 C 0.14557 0.73352 0.90913 0.0
C401 C 0.16667 0.79944 0.04847 0.0
C402 C 0.17616 0.79886 0.95291 0.0
C403 C 0.17206 0.77131 0.78387 0.0
C404 C 0.15778 0.74652 0.71117 0.0
C405 C 0.16526 0.76695 0.88235 0.0
C406 C 0.1394 0.71096 0.73845 0.0
C407 C 0.13374 0.70362 0.83745 0.0
H408 H 0.83656 0.69452 0.69597 0.0
H409 H 0.86897 0.83845 0.62207 0.0
H410 H 0.87655 0.85552 0.79636 0.0
H411 H 0.87861 0.8246 0.96637 0.0
H412 H 0.85297 0.67499 0.03261 0.0
H413 H 0.83854 0.66399 0.86289 0.0
C414 C 0.84504 0.72996 0.71779 0.0
C415 C 0.85216 0.76531 0.64651 0.0
C416 C 0.85098 0.73774 0.81615 0.0
C417 C 0.86288 0.81115 0.67583 0.0
C418 C 0.86763 0.82046 0.77515 0.0
C419 C 0.86978 0.78972 0.94309 0.0
C420 C 0.86612 0.75086 0.01082 0.0
C421 C 0.86254 0.78325 0.84524 0.0
C422 C 0.8551 0.70562 0.98121 0.0
C423 C 0.84704 0.69937 0.88466 0.0
H424 H 0.59022 0.68833 0.34514 0.0
H425 H 0.66845 0.6531 0.28321 0.0
H426 H 0.67979 0.67095 0.45456 0.0
H427 H 0.66606 0.68561 0.62344 0.0
H428 H 0.58727 0.71566 0.68699 0.0
H429 H 0.57749 0.71342 0.51144 0.0
C430 C 0.60971 0.68429 0.36978 0.0
C431 C 0.62849 0.66803 0.30407 0.0
C432 C 0.61589 0.69463 0.46729 0.0
C433 C 0.65381 0.66479 0.3342 0.0
C434 C 0.66023 0.6752 0.43143 0.0
C435 C 0.64685 0.69286 0.59848 0.0
C436 C 0.62724 0.69952 0.66721 0.0
C437 C 0.64126 0.68884 0.49883 0.0
C438 C 0.60258 0.71015 0.63499 0.0
C439 C 0.59695 0.70805 0.53496 0.0
H440 H 0.34476 0.75542 0.64324 0.0
H441 H 0.4229 0.78273 0.72151 0.0
H442 H 0.43345 0.79885 0.55055 0.0
H443 H 0.41871 0.82099 0.38518 0.0
H444 H 0.34088 0.79188 0.30384 0.0
H445 H 0.3316 0.76276 0.47026 0.0
C446 C 0.36433 0.76268 0.62208 0.0
C447 C 0.383 0.76823 0.69554 0.0
C448 C 0.36993 0.77458 0.52398 0.0
C449 C 0.40824 0.7775 0.66712 0.0
C450 C 0.41414 0.78817 0.56922 0.0
C451 C 0.39965 0.80861 0.404 0.0
C452 C 0.38007 0.81142 0.33384 0.0
C453 C 0.39481 0.78981 0.49842 0.0
C454 C 0.35588 0.79264 0.35788 0.0
C455 C 0.35072 0.7751 0.45255 0.0
H456 H 0.6926 0.17451 0.4188 0.0
H457 H 0.6388 0.05997 0.33266 0.0
H458 H 0.63437 0.03439 0.50401 0.0
H459 H 0.63895 0.05654 0.67802 0.0
H460 H 0.6844 0.18496 0.75947 0.0
H461 H 0.69937 0.19293 0.59115 0.0
C462 C 0.68018 0.14331 0.43698 0.0
C463 C 0.6657 0.11967 0.36302 0.0
C464 C 0.67611 0.13185 0.53569 0.0
C465 C 0.6502 0.07869 0.38773 0.0
C466 C 0.64739 0.06459 0.48604 0.0
C467 C 0.65249 0.08579 0.65928 0.0
C468 C 0.66103 0.11961 0.73199 0.0
C469 C 0.65917 0.0928 0.5607 0.0
C470 C 0.67845 0.15724 0.70642 0.0
C471 C 0.68657 0.16239 0.60946 0.0
H472 H 0.39573 0.36197 0.28717 0.0
H473 H 0.31453 0.37492 0.31267 0.0
H474 H 0.3178 0.37516 0.49237 0.0
H475 H 0.34386 0.36191 0.64339 0.0
H476 H 0.42474 0.34094 0.6092 0.0
H477 H 0.42136 0.35256 0.43411 0.0
C478 C 0.37886 0.36693 0.332 0.0
C479 C 0.35503 0.3694 0.28654 0.0
C480 C 0.38073 0.36369 0.43485 0.0
C481 C 0.33321 0.37399 0.34599 0.0
C482 C 0.33503 0.37315 0.44886 0.0
C483 C 0.36063 0.35957 0.5975 0.0
C484 C 0.38445 0.35033 0.64078 0.0
C485 C 0.35865 0.36601 0.4944 0.0
C486 C 0.40605 0.34801 0.57929 0.0
C487 C 0.40426 0.35494 0.47836 0.0
H488 H 0.04105 0.33665 0.51619 0.0
H489 H 0.06008 0.18135 0.55927 0.0
H490 H 0.01482 0.15999 0.56751 0.0
H491 H 0.97044 0.18655 0.57732 0.0
H492 H 0.95129 0.34229 0.54123 0.0
H493 H 0.99632 0.36246 0.51518 0.0
C494 C 0.03539 0.29792 0.52644 0.0
C495 C 0.0541 0.26058 0.5378 0.0
C496 C 0.00938 0.28623 0.53339 0.0
C497 C 0.04625 0.21072 0.54997 0.0
C498 C 0.02034 0.19862 0.55543 0.0
C499 C 0.97597 0.22504 0.56341 0.0
C500 C 0.95739 0.26307 0.56261 0.0
C501 C 1.00183 0.23627 0.5497 0.0
C502 C 0.96506 0.3124 0.54273 0.0
C503 C 0.99083 0.32388 0.52809 0.0
H504 H 0.96468 0.83126 0.40538 0.0
H505 H 0.95201 0.67138 0.40141 0.0
H506 H 0.99758 0.65818 0.42787 0.0
H507 H 0.04096 0.69204 0.43288 0.0
H508 H 0.05366 0.85186 0.4234 0.0
H509 H 0.00767 0.86518 0.4224 0.0
C510 C 0.97173 0.79334 0.41104 0.0
C511 C 0.95492 0.75221 0.39983 0.0
C512 C 0.99788 0.7862 0.42319 0.0
C513 C 0.96446 0.70358 0.40915 0.0
C514 C 0.99052 0.69612 0.42381 0.0
C515 C 0.03378 0.72998 0.43165 0.0
C516 C 0.05085 0.77103 0.42697 0.0
C517 C 0.00742 0.73716 0.42795 0.0
C518 C 0.04106 0.81971 0.42661 0.0
C519 C 0.01476 0.82724 0.42556 0.0
H520 H 0.52183 0.65323 0.84294 0.0
H521 H 0.56876 0.78597 0.85516 0.0
H522 H 0.53103 0.83836 0.84681 0.0
H523 H 0.48478 0.84528 0.87463 0.0
H524 H 0.43799 0.7123 0.8601 0.0
H525 H 0.4754 0.66148 0.82932 0.0
C526 C 0.52383 0.69362 0.83994 0.0
C527 C 0.54799 0.71564 0.85185 0.0
C528 C 0.50199 0.72358 0.8369 0.0
C529 C 0.55037 0.768 0.84659 0.0
C530 C 0.52874 0.79807 0.84306 0.0
C531 C 0.48272 0.80541 0.86144 0.0
C532 C 0.45871 0.78254 0.87203 0.0
C533 C 0.50443 0.77618 0.84416 0.0
C534 C 0.45624 0.73092 0.85344 0.0
C535 C 0.4777 0.70166 0.83635 0.0
H536 H 0.48489 0.31369 0.08668 0.0
H537 H 0.44767 0.20384 0.90346 0.0
H538 H 0.48668 0.15449 0.89786 0.0
H539 H 0.53221 0.14667 0.93352 0.0
H540 H 0.56895 0.25434 0.12339 0.0
H541 H 0.52954 0.30169 0.135 0.0
C542 C 0.48523 0.27852 0.04672 0.0
C543 C 0.46332 0.26204 -0.00367 0.0
C544 C 0.50786 0.251 0.04244 0.0
C545 C 0.46401 0.21652 0.94495 0.0
C546 C 0.48646 0.18881 0.94044 0.0
C547 C 0.53169 0.18047 0.97773 0.0
C548 C 0.55406 0.19824 0.02381 0.0
C549 C 0.50864 0.20631 0.98712 0.0
C550 C 0.55265 0.24143 0.08241 0.0
C551 C 0.52989 0.26794 0.09069 0.0
loop_
_geom_bond_atom_site_label_1
_geom_bond_atom_site_label_2
_geom_bond_distance
_geom_bond_site_symmetry_2
_ccdc_geom_bond_type
Zn0 O6 1.920 . S
Zn0 O12 1.898 . S
Zn0 O15 1.905 . S
Zn1 O9 1.905 . S
Zn1 O10 1.898 . S
Zn1 O18 1.920 . S
Zn2 O5 2.080 . S
Zn2 O8 2.114 . S
Zn2 O11 2.120 . S
Zn2 O13 2.120 . S
Zn2 O14 2.114 . S
Zn2 O17 2.080 . S
C3 O8 1.166 . S
C3 O9 1.182 . S
C4 O10 1.167 . S
C4 O11 1.299 . S
O5 Zn2 2.080 . S
O5 C19 1.305 . S
O6 Zn0 1.920 . S
O6 C19 1.234 . S
C7 O12 1.167 . S
C7 O13 1.299 . S
O8 Zn2 2.114 . S
O8 C3 1.166 . S
O9 Zn1 1.905 . S
O9 C3 1.182 . S
O10 Zn1 1.898 . S
O10 C4 1.167 . S
O11 Zn2 2.120 . S
O11 C4 1.299 . S
O12 Zn0 1.898 . S
O12 C7 1.167 . S
O13 Zn2 2.120 . S
O13 C7 1.299 . S
O14 Zn2 2.114 . S
O14 C16 1.166 . S
O15 Zn0 1.905 . S
O15 C16 1.182 . S
C16 O14 1.166 . S
C16 O15 1.182 . S
O17 Zn2 2.080 . S
O17 C20 1.305 . S
O18 Zn1 1.920 . S
O18 C20 1.234 . S
C19 O5 1.305 . S
C19 O6 1.234 . S
C20 O17 1.305 . S
C20 O18 1.234 . S
Zn21 O27 1.920 . S
Zn21 O33 1.898 . S
Zn21 O36 1.905 . S
Zn22 O30 1.905 . S
Zn22 O31 1.898 . S
Zn22 O39 1.920 . S
Zn23 O26 2.080 . S
Zn23 O29 2.114 . S
Zn23 O32 2.120 . S
Zn23 O34 2.120 . S
Zn23 O35 2.114 . S
Zn23 O38 2.080 . S
C24 O29 1.166 . S
C24 O30 1.182 . S
C25 O31 1.167 . S
C25 O32 1.299 . S
O26 Zn23 2.080 . S
O26 C40 1.305 . S
O27 Zn21 1.920 . S
O27 C40 1.234 . S
C28 O33 1.167 . S
C28 O34 1.299 . S
O29 Zn23 2.114 . S
O29 C24 1.166 . S
O30 Zn22 1.905 . S
O30 C24 1.182 . S
O31 Zn22 1.898 . S
O31 C25 1.167 . S
O32 Zn23 2.120 . S
O32 C25 1.299 . S
O33 Zn21 1.898 . S
O33 C28 1.167 . S
O34 Zn23 2.120 . S
O34 C28 1.299 . S
O35 Zn23 2.114 . S
O35 C37 1.166 . S
O36 Zn21 1.905 . S
O36 C37 1.182 . S
C37 O35 1.166 . S
C37 O36 1.182 . S
O38 Zn23 2.080 . S
O38 C41 1.305 . S
O39 Zn22 1.920 . S
O39 C41 1.234 . S
C40 O26 1.305 . S
C40 O27 1.234 . S
C41 O38 1.305 . S
C41 O39 1.234 . S
Zn42 O48 1.920 . S
Zn42 O54 1.898 . S
Zn42 O57 1.905 . S
Zn43 O51 1.905 . S
Zn43 O52 1.898 . S
Zn43 O60 1.920 . S
Zn44 O47 2.080 . S
Zn44 O50 2.114 . S
Zn44 O53 2.120 . S
Zn44 O55 2.120 . S
Zn44 O56 2.114 . S
Zn44 O59 2.080 . S
C45 O50 1.166 . S
C45 O51 1.182 . S
C46 O52 1.167 . S
C46 O53 1.299 . S
O47 Zn44 2.080 . S
O47 C61 1.305 . S
O48 Zn42 1.920 . S
O48 C61 1.234 . S
C49 O54 1.167 . S
C49 O55 1.299 . S
O50 Zn44 2.114 . S
O50 C45 1.166 . S
O51 Zn43 1.905 . S
O51 C45 1.182 . S
O52 Zn43 1.898 . S
O52 C46 1.167 . S
O53 Zn44 2.120 . S
O53 C46 1.299 . S
O54 Zn42 1.898 . S
O54 C49 1.167 . S
O55 Zn44 2.120 . S
O55 C49 1.299 . S
O56 Zn44 2.114 . S
O56 C58 1.166 . S
O57 Zn42 1.905 . S
O57 C58 1.182 . S
C58 O56 1.166 . S
C58 O57 1.182 . S
O59 Zn44 2.080 . S
O59 C62 1.305 . S
O60 Zn43 1.920 . S
O60 C62 1.234 . S
C61 O47 1.305 . S
C61 O48 1.234 . S
C62 O59 1.305 . S
C62 O60 1.234 . S
Zn63 O69 1.920 . S
Zn63 O75 1.898 . S
Zn63 O78 1.905 . S
Zn64 O72 1.905 . S
Zn64 O73 1.898 . S
Zn64 O81 1.920 . S
Zn65 O68 2.080 . S
Zn65 O71 2.114 . S
Zn65 O74 2.120 . S
Zn65 O76 2.120 . S
Zn65 O77 2.114 . S
Zn65 O80 2.080 . S
C66 O71 1.166 . S
C66 O72 1.182 . S
C67 O73 1.167 . S
C67 O74 1.299 . S
O68 Zn65 2.080 . S
O68 C82 1.305 . S
O69 Zn63 1.920 . S
O69 C82 1.234 . S
C70 O75 1.167 . S
C70 O76 1.299 . S
O71 Zn65 2.114 . S
O71 C66 1.166 . S
O72 Zn64 1.905 . S
O72 C66 1.182 . S
O73 Zn64 1.898 . S
O73 C67 1.167 . S
O74 Zn65 2.120 . S
O74 C67 1.299 . S
O75 Zn63 1.898 . S
O75 C70 1.167 . S
O76 Zn65 2.120 . S
O76 C70 1.299 . S
O77 Zn65 2.114 . S
O77 C79 1.166 . S
O78 Zn63 1.905 . S
O78 C79 1.182 . S
C79 O77 1.166 . S
C79 O78 1.182 . S
O80 Zn65 2.080 . S
O80 C83 1.305 . S
O81 Zn64 1.920 . S
O81 C83 1.234 . S
C82 O68 1.305 . S
C82 O69 1.234 . S
C83 O80 1.305 . S
C83 O81 1.234 . S
Zn84 O90 1.920 . S
Zn84 O96 1.898 . S
Zn84 O99 1.905 . S
Zn85 O93 1.905 . S
Zn85 O94 1.898 . S
Zn85 O102 1.920 1_556 S
Zn86 O89 2.080 . S
Zn86 O92 2.114 1_554 S
Zn86 O95 2.120 . S
Zn86 O97 2.120 . S
Zn86 O98 2.114 . S
Zn86 O101 2.080 . S
C87 O92 1.166 . S
C87 O93 1.182 . S
C88 O94 1.167 1_554 S
C88 O95 1.299 . S
O89 Zn86 2.080 . S
O89 C103 1.305 . S
O90 Zn84 1.920 . S
O90 C103 1.234 . S
C91 O96 1.167 . S
C91 O97 1.299 . S
O92 Zn86 2.114 1_556 S
O92 C87 1.166 . S
O93 Zn85 1.905 . S
O93 C87 1.182 . S
O94 Zn85 1.898 . S
O94 C88 1.167 1_556 S
O95 Zn86 2.120 . S
O95 C88 1.299 . S
O96 Zn84 1.898 . S
O96 C91 1.167 . S
O97 Zn86 2.120 . S
O97 C91 1.299 . S
O98 Zn86 2.114 . S
O98 C100 1.166 . S
O99 Zn84 1.905 . S
O99 C100 1.182 . S
C100 O98 1.166 . S
C100 O99 1.182 . S
O101 Zn86 2.080 . S
O101 C104 1.305 . S
O102 Zn85 1.920 1_554 S
O102 C104 1.234 . S
C103 O89 1.305 . S
C103 O90 1.234 . S
C104 O101 1.305 . S
C104 O102 1.234 . S
Zn105 O111 1.920 1_556 S
Zn105 O117 1.898 . S
Zn105 O120 1.905 . S
Zn106 O114 1.905 . S
Zn106 O115 1.898 . S
Zn106 O123 1.920 . S
Zn107 O110 2.080 . S
Zn107 O113 2.114 . S
Zn107 O116 2.120 . S
Zn107 O118 2.120 . S
Zn107 O119 2.114 1_554 S
Zn107 O122 2.080 . S
C108 O113 1.166 . S
C108 O114 1.182 . S
C109 O115 1.167 . S
C109 O116 1.299 . S
O110 Zn107 2.080 . S
O110 C124 1.305 . S
O111 Zn105 1.920 1_554 S
O111 C124 1.234 . S
C112 O117 1.167 1_554 S
C112 O118 1.299 . S
O113 Zn107 2.114 . S
O113 C108 1.166 . S
O114 Zn106 1.905 . S
O114 C108 1.182 . S
O115 Zn106 1.898 . S
O115 C109 1.167 . S
O116 Zn107 2.120 . S
O116 C109 1.299 . S
O117 Zn105 1.898 . S
O117 C112 1.167 1_556 S
O118 Zn107 2.120 . S
O118 C112 1.299 . S
O119 Zn107 2.114 1_556 S
O119 C121 1.166 . S
O120 Zn105 1.905 . S
O120 C121 1.182 . S
C121 O119 1.166 . S
C121 O120 1.182 . S
O122 Zn107 2.080 . S
O122 C125 1.305 . S
O123 Zn106 1.920 . S
O123 C125 1.234 . S
C124 O110 1.305 . S
C124 O111 1.234 . S
C125 O122 1.305 . S
C125 O123 1.234 . S
Zn126 O132 1.920 . S
Zn126 O138 1.898 . S
Zn126 O141 1.905 . S
Zn127 O135 1.905 . S
Zn127 O136 1.898 . S
Zn127 O144 1.920 1_554 S
Zn128 O131 2.080 . S
Zn128 O134 2.114 1_556 S
Zn128 O137 2.120 . S
Zn128 O139 2.120 . S
Zn128 O140 2.114 . S
Zn128 O143 2.080 . S
C129 O134 1.166 . S
C129 O135 1.182 . S
C130 O136 1.167 1_556 S
C130 O137 1.299 . S
O131 Zn128 2.080 . S
O131 C145 1.305 . S
O132 Zn126 1.920 . S
O132 C145 1.234 . S
C133 O138 1.167 . S
C133 O139 1.299 . S
O134 Zn128 2.114 1_554 S
O134 C129 1.166 . S
O135 Zn127 1.905 . S
O135 C129 1.182 . S
O136 Zn127 1.898 . S
O136 C130 1.167 1_554 S
O137 Zn128 2.120 . S
O137 C130 1.299 . S
O138 Zn126 1.898 . S
O138 C133 1.167 . S
O139 Zn128 2.120 . S
O139 C133 1.299 . S
O140 Zn128 2.114 . S
O140 C142 1.166 . S
O141 Zn126 1.905 . S
O141 C142 1.182 . S
C142 O140 1.166 . S
C142 O141 1.182 . S
O143 Zn128 2.080 . S
O143 C146 1.305 . S
O144 Zn127 1.920 1_556 S
O144 C146 1.234 . S
C145 O131 1.305 . S
C145 O132 1.234 . S
C146 O143 1.305 . S
C146 O144 1.234 . S
Zn147 O153 1.920 . S
Zn147 O159 1.898 . S
Zn147 O162 1.905 . S
Zn148 O156 1.905 . S
Zn148 O157 1.898 . S
Zn148 O165 1.920 1_554 S
Zn149 O152 2.080 . S
Zn149 O155 2.114 1_556 S
Zn149 O158 2.120 . S
Zn149 O160 2.120 . S
Zn149 O161 2.114 . S
Zn149 O164 2.080 . S
C150 O155 1.166 . S
C150 O156 1.182 . S
C151 O157 1.167 1_556 S
C151 O158 1.299 . S
O152 Zn149 2.080 . S
O152 C166 1.305 . S
O153 Zn147 1.920 . S
O153 C166 1.234 . S
C154 O159 1.167 . S
C154 O160 1.299 . S
O155 Zn149 2.114 1_554 S
O155 C150 1.166 . S
O156 Zn148 1.905 . S
O156 C150 1.182 . S
O157 Zn148 1.898 . S
O157 C151 1.167 1_554 S
O158 Zn149 2.120 . S
O158 C151 1.299 . S
O159 Zn147 1.898 . S
O159 C154 1.167 . S
O160 Zn149 2.120 . S
O160 C154 1.299 . S
O161 Zn149 2.114 . S
O161 C163 1.166 . S
O162 Zn147 1.905 . S
O162 C163 1.182 . S
C163 O161 1.166 . S
C163 O162 1.182 . S
O164 Zn149 2.080 . S
O164 C167 1.305 . S
O165 Zn148 1.920 1_556 S
O165 C167 1.234 . S
C166 O152 1.305 . S
C166 O153 1.234 . S
C167 O164 1.305 . S
C167 O165 1.234 . S
H168 C174 0.930 . S
H169 C177 0.930 . S
H170 C178 0.930 . S
H171 C179 0.930 . S
H172 C182 0.930 . S
H173 C183 0.930 . S
C174 H168 0.930 . S
C174 C175 1.355 . S
C174 C176 1.415 . S
C175 C174 1.355 . S
C175 C177 1.419 . S
C176 C174 1.415 . S
C176 C181 1.425 . S
C176 C183 1.409 . S
C177 H169 0.930 . S
C177 C175 1.419 . S
C177 C178 1.362 . S
C178 H170 0.930 . S
C178 C177 1.362 . S
C178 C181 1.409 . S
C179 H171 0.930 . S
C179 C180 1.355 . S
C179 C181 1.415 . S
C180 C179 1.355 . S
C180 C182 1.419 . S
C181 C176 1.425 . S
C181 C178 1.409 . S
C181 C179 1.415 . S
C182 H172 0.930 . S
C182 C180 1.419 . S
C182 C183 1.362 . S
C183 H173 0.930 . S
C183 C176 1.409 . S
C183 C182 1.362 . S
H184 C190 0.930 . S
H185 C193 0.930 . S
H186 C194 0.930 . S
H187 C195 0.930 . S
H188 C198 0.930 . S
H189 C199 0.930 . S
C190 H184 0.930 . S
C190 C191 1.355 . S
C190 C192 1.415 . S
C191 C190 1.355 . S
C191 C193 1.419 . S
C192 C190 1.415 . S
C192 C197 1.425 . S
C192 C199 1.409 . S
C193 H185 0.930 . S
C193 C191 1.419 . S
C193 C194 1.362 . S
C194 H186 0.930 . S
C194 C193 1.362 . S
C194 C197 1.409 . S
C195 H187 0.930 . S
C195 C196 1.355 . S
C195 C197 1.415 . S
C196 C195 1.355 . S
C196 C198 1.419 . S
C197 C192 1.425 . S
C197 C194 1.409 . S
C197 C195 1.415 . S
C198 H188 0.930 . S
C198 C196 1.419 . S
C198 C199 1.362 . S
C199 H189 0.930 . S
C199 C192 1.409 . S
C199 C198 1.362 . S
H200 C206 0.930 . S
H201 C209 0.930 . S
H202 C210 0.930 . S
H203 C211 0.930 . S
H204 C214 0.930 . S
H205 C215 0.930 . S
C206 H200 0.930 . S
C206 C207 1.355 . S
C206 C208 1.415 . S
C207 C206 1.355 . S
C207 C209 1.419 . S
C208 C206 1.415 . S
C208 C213 1.425 . S
C208 C215 1.409 . S
C209 H201 0.930 . S
C209 C207 1.419 . S
C209 C210 1.362 . S
C210 H202 0.930 . S
C210 C209 1.362 . S
C210 C213 1.409 . S
C211 H203 0.930 . S
C211 C212 1.355 . S
C211 C213 1.415 . S
C212 C211 1.355 . S
C212 C214 1.419 . S
C213 C208 1.425 . S
C213 C210 1.409 . S
C213 C211 1.415 . S
C214 H204 0.930 . S
C214 C212 1.419 . S
C214 C215 1.362 . S
C215 H205 0.930 . S
C215 C208 1.409 . S
C215 C214 1.362 . S
H216 C222 0.930 . S
H217 C225 0.930 . S
H218 C226 0.930 . S
H219 C227 0.930 . S
H220 C230 0.930 . S
H221 C231 0.930 . S
C222 H216 0.930 . S
C222 C223 1.355 . S
C222 C224 1.415 . S
C223 C222 1.355 . S
C223 C225 1.419 . S
C224 C222 1.415 . S
C224 C229 1.425 . S
C224 C231 1.409 . S
C225 H217 0.930 . S
C225 C223 1.419 . S
C225 C226 1.362 . S
C226 H218 0.930 . S
C226 C225 1.362 . S
C226 C229 1.409 . S
C227 H219 0.930 . S
C227 C228 1.355 . S
C227 C229 1.415 . S
C228 C227 1.355 . S
C228 C230 1.419 . S
C229 C224 1.425 . S
C229 C226 1.409 . S
C229 C227 1.415 . S
C230 H220 0.930 . S
C230 C228 1.419 . S
C230 C231 1.362 . S
C231 H221 0.930 . S
C231 C224 1.409 . S
C231 C230 1.362 . S
H232 C238 0.930 . S
H233 C241 0.930 . S
H234 C242 0.930 1_545 S
H235 C243 0.930 . S
H236 C246 0.930 . S
H237 C247 0.930 1_565 S
C238 H232 0.930 . S
C238 C239 1.355 . S
C238 C240 1.415 . S
C239 C238 1.355 . S
C239 C241 1.419 . S
C240 C238 1.415 . S
C240 C245 1.425 1_565 S
C240 C247 1.409 1_565 S
C241 H233 0.930 . S
C241 C239 1.419 . S
C241 C242 1.362 . S
C242 H234 0.930 1_565 S
C242 C241 1.362 . S
C242 C245 1.409 1_565 S
C243 H235 0.930 . S
C243 C244 1.355 . S
C243 C245 1.415 . S
C244 C243 1.355 . S
C244 C246 1.419 . S
C245 C240 1.425 1_545 S
C245 C242 1.409 1_545 S
C245 C243 1.415 . S
C246 H236 0.930 . S
C246 C244 1.419 . S
C246 C247 1.362 . S
C247 H237 0.930 1_545 S
C247 C240 1.409 1_545 S
C247 C246 1.362 . S
H248 C254 0.930 . S
H249 C257 0.930 . S
H250 C258 0.930 . S
H251 C259 0.930 . S
H252 C262 0.930 . S
H253 C263 0.930 . S
C254 H248 0.930 . S
C254 C255 1.355 . S
C254 C256 1.415 . S
C255 C254 1.355 . S
C255 C257 1.419 . S
C256 C254 1.415 . S
C256 C261 1.425 . S
C256 C263 1.409 . S
C257 H249 0.930 . S
C257 C255 1.419 . S
C257 C258 1.362 . S
C258 H250 0.930 . S
C258 C257 1.362 . S
C258 C261 1.409 . S
C259 H251 0.930 . S
C259 C260 1.355 . S
C259 C261 1.415 . S
C260 C259 1.355 . S
C260 C262 1.419 . S
C261 C256 1.425 . S
C261 C258 1.409 . S
C261 C259 1.415 . S
C262 H252 0.930 . S
C262 C260 1.419 . S
C262 C263 1.362 . S
C263 H253 0.930 . S
C263 C256 1.409 . S
C263 C262 1.362 . S
H264 C270 0.930 . S
H265 C273 0.930 . S
H266 C274 0.930 . S
H267 C275 0.930 . S
H268 C278 0.930 . S
H269 C279 0.930 . S
C270 H264 0.930 . S
C270 C271 1.355 . S
C270 C272 1.415 . S
C271 C270 1.355 . S
C271 C273 1.419 . S
C272 C270 1.415 . S
C272 C277 1.425 1_565 S
C272 C279 1.409 1_565 S
C273 H265 0.930 . S
C273 C271 1.419 . S
C273 C274 1.362 . S
C274 H266 0.930 . S
C274 C273 1.362 . S
C274 C277 1.409 1_565 S
C275 H267 0.930 . S
C275 C276 1.355 . S
C275 C277 1.415 . S
C276 C275 1.355 . S
C276 C278 1.419 . S
C277 C272 1.425 1_545 S
C277 C274 1.409 1_545 S
C277 C275 1.415 . S
C278 H268 0.930 . S
C278 C276 1.419 . S
C278 C279 1.362 . S
C279 H269 0.930 . S
C279 C272 1.409 1_545 S
C279 C278 1.362 . S
H280 C286 0.930 . S
H281 C289 0.930 . S
H282 C290 0.930 . S
H283 C291 0.930 . S
H284 C294 0.930 . S
H285 C295 0.930 . S
C286 H280 0.930 . S
C286 C287 1.355 . S
C286 C288 1.415 . S
C287 C286 1.355 . S
C287 C289 1.419 . S
C288 C286 1.415 . S
C288 C293 1.425 . S
C288 C295 1.409 . S
C289 H281 0.930 . S
C289 C287 1.419 . S
C289 C290 1.362 . S
C290 H282 0.930 . S
C290 C289 1.362 . S
C290 C293 1.409 . S
C291 H283 0.930 . S
C291 C292 1.355 . S
C291 C293 1.415 . S
C292 C291 1.355 . S
C292 C294 1.419 . S
C293 C288 1.425 . S
C293 C290 1.409 . S
C293 C291 1.415 . S
C294 H284 0.930 . S
C294 C292 1.419 . S
C294 C295 1.362 . S
C295 H285 0.930 . S
C295 C288 1.409 . S
C295 C294 1.362 . S
H296 C302 0.930 . S
H297 C305 0.930 . S
H298 C306 0.930 . S
H299 C307 0.930 . S
H300 C310 0.930 . S
H301 C311 0.930 . S
C302 H296 0.930 . S
C302 C303 1.355 1_556 S
C302 C304 1.415 . S
C303 C302 1.355 1_554 S
C303 C305 1.419 . S
C304 C302 1.415 . S
C304 C309 1.425 1_556 S
C304 C311 1.409 . S
C305 H297 0.930 . S
C305 C303 1.419 . S
C305 C306 1.362 . S
C306 H298 0.930 . S
C306 C305 1.362 . S
C306 C309 1.409 . S
C307 H299 0.930 . S
C307 C308 1.355 1_554 S
C307 C309 1.415 . S
C308 C307 1.355 1_556 S
C308 C310 1.419 . S
C309 C304 1.425 1_554 S
C309 C306 1.409 . S
C309 C307 1.415 . S
C310 H300 0.930 . S
C310 C308 1.419 . S
C310 C311 1.362 . S
C311 H301 0.930 . S
C311 C304 1.409 . S
C311 C310 1.362 . S
H312 C318 0.930 . S
H313 C321 0.930 . S
H314 C322 0.930 . S
H315 C323 0.930 . S
H316 C326 0.930 . S
H317 C327 0.930 . S
C318 H312 0.930 . S
C318 C319 1.355 . S
C318 C320 1.415 . S
C319 C318 1.355 . S
C319 C321 1.419 1_554 S
C320 C318 1.415 . S
C320 C325 1.425 1_564 S
C320 C327 1.409 1_565 S
C321 H313 0.930 . S
C321 C319 1.419 1_556 S
C321 C322 1.362 . S
C322 H314 0.930 . S
C322 C321 1.362 . S
C322 C325 1.409 1_565 S
C323 H315 0.930 . S
C323 C324 1.355 . S
C323 C325 1.415 . S
C324 C323 1.355 . S
C324 C326 1.419 1_556 S
C325 C320 1.425 1_546 S
C325 C322 1.409 1_545 S
C325 C323 1.415 . S
C326 H316 0.930 . S
C326 C324 1.419 1_554 S
C326 C327 1.362 . S
C327 H317 0.930 . S
C327 C320 1.409 1_545 S
C327 C326 1.362 . S
H328 C334 0.930 . S
H329 C337 0.930 . S
H330 C338 0.930 . S
H331 C339 0.930 . S
H332 C342 0.930 . S
H333 C343 0.930 . S
C334 H328 0.930 . S
C334 C335 1.355 1_554 S
C334 C336 1.415 . S
C335 C334 1.355 1_556 S
C335 C337 1.419 . S
C336 C334 1.415 . S
C336 C341 1.425 1_554 S
C336 C343 1.409 . S
C337 H329 0.930 . S
C337 C335 1.419 . S
C337 C338 1.362 . S
C338 H330 0.930 . S
C338 C337 1.362 . S
C338 C341 1.409 . S
C339 H331 0.930 . S
C339 C340 1.355 1_556 S
C339 C341 1.415 . S
C340 C339 1.355 1_554 S
C340 C342 1.419 . S
C341 C336 1.425 1_556 S
C341 C338 1.409 . S
C341 C339 1.415 . S
C342 H332 0.930 . S
C342 C340 1.419 . S
C342 C343 1.362 . S
C343 H333 0.930 . S
C343 C336 1.409 . S
C343 C342 1.362 . S
H344 C350 0.930 . S
H345 C353 0.930 . S
H346 C354 0.930 . S
H347 C355 0.930 . S
H348 C358 0.930 . S
H349 C359 0.930 . S
C350 H344 0.930 . S
C350 C351 1.355 . S
C350 C352 1.415 1_556 S
C351 C350 1.355 . S
C351 C353 1.419 . S
C352 C350 1.415 1_554 S
C352 C357 1.425 1_544 S
C352 C359 1.409 1_545 S
C353 H345 0.930 . S
C353 C351 1.419 . S
C353 C354 1.362 . S
C354 H346 0.930 . S
C354 C353 1.362 . S
C354 C357 1.409 1_545 S
C355 H347 0.930 . S
C355 C356 1.355 . S
C355 C357 1.415 1_554 S
C356 C355 1.355 . S
C356 C358 1.419 . S
C357 C352 1.425 1_566 S
C357 C354 1.409 1_565 S
C357 C355 1.415 1_556 S
C358 H348 0.930 . S
C358 C356 1.419 . S
C358 C359 1.362 . S
C359 H349 0.930 . S
C359 C352 1.409 1_565 S
C359 C358 1.362 . S
H360 C366 0.930 . S
H361 C369 0.930 . S
H362 C370 0.930 . S
H363 C371 0.930 . S
H364 C374 0.930 . S
H365 C375 0.930 . S
C366 H360 0.930 . S
C366 C367 1.355 . S
C366 C368 1.415 . S
C367 C366 1.355 . S
C367 C369 1.419 . S
C368 C366 1.415 . S
C368 C373 1.425 . S
C368 C375 1.409 . S
C369 H361 0.930 . S
C369 C367 1.419 . S
C369 C370 1.362 . S
C370 H362 0.930 . S
C370 C369 1.362 . S
C370 C373 1.409 . S
C371 H363 0.930 . S
C371 C372 1.355 . S
C371 C373 1.415 1_556 S
C372 C371 1.355 . S
C372 C374 1.419 . S
C373 C368 1.425 . S
C373 C370 1.409 . S
C373 C371 1.415 1_554 S
C374 H364 0.930 . S
C374 C372 1.419 . S
C374 C375 1.362 1_556 S
C375 H365 0.930 . S
C375 C368 1.409 . S
C375 C374 1.362 1_554 S
H376 C382 0.930 . S
H377 C385 0.930 . S
H378 C386 0.930 . S
H379 C387 0.930 . S
H380 C390 0.930 . S
H381 C391 0.930 . S
C382 H376 0.930 . S
C382 C383 1.355 . S
C382 C384 1.415 . S
C383 C382 1.355 . S
C383 C385 1.419 . S
C384 C382 1.415 . S
C384 C389 1.425 . S
C384 C391 1.409 . S
C385 H377 0.930 . S
C385 C383 1.419 . S
C385 C386 1.362 . S
C386 H378 0.930 . S
C386 C385 1.362 . S
C386 C389 1.409 . S
C387 H379 0.930 . S
C387 C388 1.355 . S
C387 C389 1.415 1_556 S
C388 C387 1.355 . S
C388 C390 1.419 . S
C389 C384 1.425 . S
C389 C386 1.409 . S
C389 C387 1.415 1_554 S
C390 H380 0.930 . S
C390 C388 1.419 . S
C390 C391 1.362 1_556 S
C391 H381 0.930 . S
C391 C384 1.409 . S
C391 C390 1.362 1_554 S
H392 C398 0.930 . S
H393 C401 0.930 . S
H394 C402 0.930 . S
H395 C403 0.930 . S
H396 C406 0.930 . S
H397 C407 0.930 . S
C398 H392 0.930 . S
C398 C399 1.355 . S
C398 C400 1.415 1_554 S
C399 C398 1.355 . S
C399 C401 1.419 . S
C400 C398 1.415 1_556 S
C400 C405 1.425 . S
C400 C407 1.409 . S
C401 H393 0.930 . S
C401 C399 1.419 . S
C401 C402 1.362 1_554 S
C402 H394 0.930 . S
C402 C401 1.362 1_556 S
C402 C405 1.409 . S
C403 H395 0.930 . S
C403 C404 1.355 . S
C403 C405 1.415 . S
C404 C403 1.355 . S
C404 C406 1.419 . S
C405 C400 1.425 . S
C405 C402 1.409 . S
C405 C403 1.415 . S
C406 H396 0.930 . S
C406 C404 1.419 . S
C406 C407 1.362 . S
C407 H397 0.930 . S
C407 C400 1.409 . S
C407 C406 1.362 . S
H408 C414 0.930 . S
H409 C417 0.930 . S
H410 C418 0.930 . S
H411 C419 0.930 . S
H412 C422 0.930 . S
H413 C423 0.930 . S
C414 H408 0.930 . S
C414 C415 1.355 . S
C414 C416 1.415 . S
C415 C414 1.355 . S
C415 C417 1.419 . S
C416 C414 1.415 . S
C416 C421 1.425 . S
C416 C423 1.409 . S
C417 H409 0.930 . S
C417 C415 1.419 . S
C417 C418 1.362 . S
C418 H410 0.930 . S
C418 C417 1.362 . S
C418 C421 1.409 . S
C419 H411 0.930 . S
C419 C420 1.355 . S
C419 C421 1.415 1_554 S
C420 C419 1.355 . S
C420 C422 1.419 . S
C421 C416 1.425 . S
C421 C418 1.409 . S
C421 C419 1.415 1_556 S
C422 H412 0.930 . S
C422 C420 1.419 . S
C422 C423 1.362 1_554 S
C423 H413 0.930 . S
C423 C416 1.409 . S
C423 C422 1.362 1_556 S
H424 C430 0.930 . S
H425 C433 0.930 . S
H426 C434 0.930 . S
H427 C435 0.930 . S
H428 C438 0.930 . S
H429 C439 0.930 . S
C430 H424 0.930 . S
C430 C431 1.355 . S
C430 C432 1.415 . S
C431 C430 1.355 . S
C431 C433 1.419 . S
C432 C430 1.415 . S
C432 C437 1.425 . S
C432 C439 1.409 . S
C433 H425 0.930 . S
C433 C431 1.419 . S
C433 C434 1.362 . S
C434 H426 0.930 . S
C434 C433 1.362 . S
C434 C437 1.409 . S
C435 H427 0.930 . S
C435 C436 1.355 . S
C435 C437 1.415 . S
C436 C435 1.355 . S
C436 C438 1.419 . S
C437 C432 1.425 . S
C437 C434 1.409 . S
C437 C435 1.415 . S
C438 H428 0.930 . S
C438 C436 1.419 . S
C438 C439 1.362 . S
C439 H429 0.930 . S
C439 C432 1.409 . S
C439 C438 1.362 . S
H440 C446 0.930 . S
H441 C449 0.930 . S
H442 C450 0.930 . S
H443 C451 0.930 . S
H444 C454 0.930 . S
H445 C455 0.930 . S
C446 H440 0.930 . S
C446 C447 1.355 . S
C446 C448 1.415 . S
C447 C446 1.355 . S
C447 C449 1.419 . S
C448 C446 1.415 . S
C448 C453 1.425 . S
C448 C455 1.409 . S
C449 H441 0.930 . S
C449 C447 1.419 . S
C449 C450 1.362 . S
C450 H442 0.930 . S
C450 C449 1.362 . S
C450 C453 1.409 . S
C451 H443 0.930 . S
C451 C452 1.355 . S
C451 C453 1.415 . S
C452 C451 1.355 . S
C452 C454 1.419 . S
C453 C448 1.425 . S
C453 C450 1.409 . S
C453 C451 1.415 . S
C454 H444 0.930 . S
C454 C452 1.419 . S
C454 C455 1.362 . S
C455 H445 0.930 . S
C455 C448 1.409 . S
C455 C454 1.362 . S
H456 C462 0.930 . S
H457 C465 0.930 . S
H458 C466 0.930 . S
H459 C467 0.930 . S
H460 C470 0.930 . S
H461 C471 0.930 . S
C462 H456 0.930 . S
C462 C463 1.355 . S
C462 C464 1.415 . S
C463 C462 1.355 . S
C463 C465 1.419 . S
C464 C462 1.415 . S
C464 C469 1.425 . S
C464 C471 1.409 . S
C465 H457 0.930 . S
C465 C463 1.419 . S
C465 C466 1.362 . S
C466 H458 0.930 . S
C466 C465 1.362 . S
C466 C469 1.409 . S
C467 H459 0.930 . S
C467 C468 1.355 . S
C467 C469 1.415 . S
C468 C467 1.355 . S
C468 C470 1.419 . S
C469 C464 1.425 . S
C469 C466 1.409 . S
C469 C467 1.415 . S
C470 H460 0.930 . S
C470 C468 1.419 . S
C470 C471 1.362 . S
C471 H461 0.930 . S
C471 C464 1.409 . S
C471 C470 1.362 . S
H472 C478 0.930 . S
H473 C481 0.930 . S
H474 C482 0.930 . S
H475 C483 0.930 . S
H476 C486 0.930 . S
H477 C487 0.930 . S
C478 H472 0.930 . S
C478 C479 1.355 . S
C478 C480 1.415 . S
C479 C478 1.355 . S
C479 C481 1.419 . S
C480 C478 1.415 . S
C480 C485 1.425 . S
C480 C487 1.409 . S
C481 H473 0.930 . S
C481 C479 1.419 . S
C481 C482 1.362 . S
C482 H474 0.930 . S
C482 C481 1.362 . S
C482 C485 1.409 . S
C483 H475 0.930 . S
C483 C484 1.355 . S
C483 C485 1.415 . S
C484 C483 1.355 . S
C484 C486 1.419 . S
C485 C480 1.425 . S
C485 C482 1.409 . S
C485 C483 1.415 . S
C486 H476 0.930 . S
C486 C484 1.419 . S
C486 C487 1.362 . S
C487 H477 0.930 . S
C487 C480 1.409 . S
C487 C486 1.362 . S
H488 C494 0.930 . S
H489 C497 0.930 . S
H490 C498 0.930 . S
H491 C499 0.930 . S
H492 C502 0.930 . S
H493 C503 0.930 . S
C494 H488 0.930 . S
C494 C495 1.355 . S
C494 C496 1.415 . S
C495 C494 1.355 . S
C495 C497 1.419 . S
C496 C494 1.415 . S
C496 C501 1.425 1_455 S
C496 C503 1.409 1_455 S
C497 H489 0.930 . S
C497 C495 1.419 . S
C497 C498 1.362 . S
C498 H490 0.930 . S
C498 C497 1.362 . S
C498 C501 1.409 1_455 S
C499 H491 0.930 . S
C499 C500 1.355 . S
C499 C501 1.415 . S
C500 C499 1.355 . S
C500 C502 1.419 . S
C501 C496 1.425 1_655 S
C501 C498 1.409 1_655 S
C501 C499 1.415 . S
C502 H492 0.930 . S
C502 C500 1.419 . S
C502 C503 1.362 . S
C503 H493 0.930 . S
C503 C496 1.409 1_655 S
C503 C502 1.362 . S
H504 C510 0.930 . S
H505 C513 0.930 . S
H506 C514 0.930 . S
H507 C515 0.930 . S
H508 C518 0.930 . S
H509 C519 0.930 . S
C510 H504 0.930 . S
C510 C511 1.355 . S
C510 C512 1.415 . S
C511 C510 1.355 . S
C511 C513 1.419 . S
C512 C510 1.415 . S
C512 C517 1.425 1_655 S
C512 C519 1.409 1_655 S
C513 H505 0.930 . S
C513 C511 1.419 . S
C513 C514 1.362 . S
C514 H506 0.930 . S
C514 C513 1.362 . S
C514 C517 1.409 1_655 S
C515 H507 0.930 . S
C515 C516 1.355 . S
C515 C517 1.415 . S
C516 C515 1.355 . S
C516 C518 1.419 . S
C517 C512 1.425 1_455 S
C517 C514 1.409 1_455 S
C517 C515 1.415 . S
C518 H508 0.930 . S
C518 C516 1.419 . S
C518 C519 1.362 . S
C519 H509 0.930 . S
C519 C512 1.409 1_455 S
C519 C518 1.362 . S
H520 C526 0.930 . S
H521 C529 0.930 . S
H522 C530 0.930 . S
H523 C531 0.930 . S
H524 C534 0.930 . S
H525 C535 0.930 . S
C526 H520 0.930 . S
C526 C527 1.355 . S
C526 C528 1.415 . S
C527 C526 1.355 . S
C527 C529 1.419 . S
C528 C526 1.415 . S
C528 C533 1.425 . S
C528 C535 1.409 . S
C529 H521 0.930 . S
C529 C527 1.419 . S
C529 C530 1.362 . S
C530 H522 0.930 . S
C530 C529 1.362 . S
C530 C533 1.409 . S
C531 H523 0.930 . S
C531 C532 1.355 . S
C531 C533 1.415 . S
C532 C531 1.355 . S
C532 C534 1.419 . S
C533 C528 1.425 . S
C533 C530 1.409 . S
C533 C531 1.415 . S
C534 H524 0.930 . S
C534 C532 1.419 . S
C534 C535 1.362 . S
C535 H525 0.930 . S
C535 C528 1.409 . S
C535 C534 1.362 . S
H536 C542 0.930 . S
H537 C545 0.930 . S
H538 C546 0.930 . S
H539 C547 0.930 . S
H540 C550 0.930 . S
H541 C551 0.930 . S
C542 H536 0.930 . S
C542 C543 1.355 . S
C542 C544 1.415 . S
C543 C542 1.355 . S
C543 C545 1.419 . S
C544 C542 1.415 . S
C544 C549 1.425 . S
C544 C551 1.409 . S
C545 H537 0.930 . S
C545 C543 1.419 . S
C545 C546 1.362 . S
C546 H538 0.930 . S
C546 C545 1.362 . S
C546 C549 1.409 . S
C547 H539 0.930 . S
C547 C548 1.355 . S
C547 C549 1.415 . S
C548 C547 1.355 . S
C548 C550 1.419 . S
C549 C544 1.425 . S
C549 C546 1.409 . S
C549 C547 1.415 . S
C550 H540 0.930 . S
C550 C548 1.419 . S
C550 C551 1.362 . S
C551 H541 0.930 . S
C551 C544 1.409 . S
C551 C550 1.362 . S
C175 C19 1.348 . S
C180 C167 1.361 . S
C191 C146 1.431 . S
C196 C40 1.384 . S
C207 C124 1.370 . S
C212 C62 1.346 . S
C223 C104 1.416 . S
C228 C83 1.439 . S
C239 C46 1.590 . S
C244 C7 1.527 . S
C255 C28 1.553 . S
C260 C67 1.483 . S
C271 C70 1.262 . S
C276 C25 1.202 . S
C287 C49 1.201 . S
C292 C4 1.163 . S
C303 C88 1.591 . S
C308 C130 1.494 . S
C319 C112 1.482 . S
C324 C151 1.578 . S
C335 C154 1.188 . S
C340 C109 1.165 . S
C351 C133 1.258 . S
C356 C91 1.196 . S
C367 C16 1.326 . S
C372 C20 1.344 . S
C383 C37 1.321 . S
C388 C41 1.346 . S
C399 C61 1.336 . S
C404 C45 1.284 . S
C415 C66 1.292 . S
C420 C82 1.340 . S
C431 C103 1.318 . S
C436 C87 1.257 . S
C447 C121 1.248 . S
C452 C125 1.309 . S
C463 C129 1.332 . S
C468 C145 1.338 . S
C479 C150 1.219 . S
C484 C166 1.270 . S
C495 C3 1.272 . S
C500 C24 1.251 . S
C511 C79 1.373 . S
C516 C58 1.380 . S
C527 C100 1.277 . S
C532 C108 1.251 . S
C543 C163 1.352 . S
C548 C142 1.382 . S
