# Generated by pormake.
# Topology acs-g, (3)-cn, num edge types: 1
# Building blocks:
#     Node 0, Type 0, BuildingBlock: OLANEW_clean_sbu_2, # of connection points: 3
#     Node 1, Type 0, BuildingBlock: OLANEW_clean_sbu_2, # of connection points: 3
#     Node 2, Type 0, BuildingBlock: OLANEW_clean_sbu_2, # of connection points: 3
#     Node 3, Type 0, BuildingBlock: OLANEW_clean_sbu_2, # of connection points: 3
#     Node 4, Type 0, BuildingBlock: OLANEW_clean_sbu_2, # of connection points: 3
#     Node 5, Type 0, BuildingBlock: OLANEW_clean_sbu_2, # of connection points: 3
#     Node 6, Type 0, BuildingBlock: OLANEW_clean_sbu_2, # of connection points: 3
#     Node 7, Type 0, BuildingBlock: OLANEW_clean_sbu_2, # of connection points: 3
#     Node 8, Type 0, BuildingBlock: OLANEW_clean_sbu_2, # of connection points: 3
#     Node 9, Type 0, BuildingBlock: OLANEW_clean_sbu_2, # of connection points: 3
#     Node 10, Type 0, BuildingBlock: OLANEW_clean_sbu_2, # of connection points: 3
#     Node 11, Type 0, BuildingBlock: OLANEW_clean_sbu_2, # of connection points: 3
#     Edge 12, Type (0, 0), BuildingBlock: TEMPAE_clean_linker_10, # of connection points: 2
#     Edge 13, Type (0, 0), BuildingBlock: TEMPAE_clean_linker_10, # of connection points: 2
#     Edge 14, Type (0, 0), BuildingBlock: TEMPAE_clean_linker_10, # of connection points: 2
#     Edge 15, Type (0, 0), BuildingBlock: TEMPAE_clean_linker_10, # of connection points: 2
#     Edge 16, Type (0, 0), BuildingBlock: TEMPAE_clean_linker_10, # of connection points: 2
#     Edge 17, Type (0, 0), BuildingBlock: TEMPAE_clean_linker_10, # of connection points: 2
#     Edge 18, Type (0, 0), BuildingBlock: TEMPAE_clean_linker_10, # of connection points: 2
#     Edge 19, Type (0, 0), BuildingBlock: TEMPAE_clean_linker_10, # of connection points: 2
#     Edge 20, Type (0, 0), BuildingBlock: TEMPAE_clean_linker_10, # of connection points: 2
#     Edge 21, Type (0, 0), BuildingBlock: TEMPAE_clean_linker_10, # of connection points: 2
#     Edge 22, Type (0, 0), BuildingBlock: TEMPAE_clean_linker_10, # of connection points: 2
#     Edge 23, Type (0, 0), BuildingBlock: TEMPAE_clean_linker_10, # of connection points: 2
#     Edge 24, Type (0, 0), BuildingBlock: TEMPAE_clean_linker_10, # of connection points: 2
#     Edge 25, Type (0, 0), BuildingBlock: TEMPAE_clean_linker_10, # of connection points: 2
#     Edge 26, Type (0, 0), BuildingBlock: TEMPAE_clean_linker_10, # of connection points: 2
#     Edge 27, Type (0, 0), BuildingBlock: TEMPAE_clean_linker_10, # of connection points: 2
#     Edge 28, Type (0, 0), BuildingBlock: TEMPAE_clean_linker_10, # of connection points: 2
#     Edge 29, Type (0, 0), BuildingBlock: TEMPAE_clean_linker_10, # of connection points: 2
# Relax obj value: 0.001
# Max RMSD: 0.043
# Mean RMSD: 0.043
data_MOF--net-acs-g--node1-OLANEW_clean_sbu_2--edge1-TEMPAE_clean_linker_10
_symmetry_space_group_name_H-M    P1
_symmetry_Int_Tables_number       1
_symmetry_cell_setting            triclinic
loop_
_symmetry_equiv_pos_as_xyz
'x, y, z'
_cell_length_a     55.407204
_cell_length_b     55.279718
_cell_length_c     47.970748
_cell_angle_alpha  89.964321
_cell_angle_beta   89.95682
_cell_angle_gamma 119.96225
loop_
_atom_site_label
_atom_site_type_symbol
_atom_site_fract_x
_atom_site_fract_y
_atom_site_fract_z
_atom_type_partial_charge
O0 O 0.38843 0.42136 0.18114 0.0
Cd1 Cd 0.35008 0.38056 0.15842 0.0
O2 O 0.36216 0.42815 0.21109 0.0
Cd3 Cd 0.32053 0.39582 0.19833 0.0
O4 O 0.27671 0.38236 0.20658 0.0
C5 C 0.27102 0.38465 0.23179 0.0
O6 O 0.29094 0.39298 0.25047 0.0
C7 C 0.38609 0.43488 0.20142 0.0
C8 C 0.35632 0.37989 0.10053 0.0
O9 O 0.34011 0.38769 0.11123 0.0
O10 O 0.36974 0.37266 0.11709 0.0
O11 O 0.93588 0.38596 0.67437 0.0
Cd12 Cd 0.92372 0.34321 0.64843 0.0
O13 O 0.95405 0.37624 0.71049 0.0
Cd14 Cd 0.93675 0.33247 0.69875 0.0
O15 O 0.90575 0.28911 0.70837 0.0
C16 C 0.88095 0.27956 0.69972 0.0
O17 O 0.87539 0.29535 0.68355 0.0
C18 C 0.94865 0.39308 0.69758 0.0
C19 C 0.9473 0.35501 0.59498 0.0
O20 O 0.92393 0.35374 0.59977 0.0
O21 O 0.95953 0.35066 0.61544 0.0
O22 O 0.54952 0.94792 0.17306 0.0
Cd23 Cd 0.58986 0.94945 0.15008 0.0
O24 O 0.5734 0.96597 0.21157 0.0
Cd25 Cd 0.60408 0.95354 0.20129 0.0
O26 O 0.61353 0.92004 0.20841 0.0
C27 C 0.59426 0.89912 0.22119 0.0
O28 O 0.57167 0.89979 0.22823 0.0
C29 C 0.55151 0.95837 0.19717 0.0
C30 C 0.59348 0.96154 0.09301 0.0
O31 O 0.58429 0.93647 0.10158 0.0
O32 O 0.6007 0.98082 0.11129 0.0
O33 O 0.59892 0.55842 0.6787 0.0
Cd34 Cd 0.64083 0.58833 0.6513 0.0
O35 O 0.6221 0.56093 0.71692 0.0
Cd36 Cd 0.66456 0.5875 0.70164 0.0
O37 O 0.70859 0.6005 0.70726 0.0
C38 C 0.71284 0.58318 0.72077 0.0
O39 O 0.69118 0.55973 0.72919 0.0
C40 C 0.5991 0.55174 0.70406 0.0
C41 C 0.62865 0.59691 0.59672 0.0
O42 O 0.63052 0.57538 0.60308 0.0
O43 O 0.63239 0.61433 0.61618 0.0
O44 O 0.05722 0.60706 0.17295 0.0
Cd45 Cd 0.06946 0.64965 0.1466 0.0
O46 O 0.03899 0.61709 0.20882 0.0
Cd47 Cd 0.05672 0.66073 0.19619 0.0
O48 O 0.08908 0.70434 0.20229 0.0
C49 C 0.09782 0.71109 0.22716 0.0
O50 O 0.08618 0.69218 0.24688 0.0
C51 C 0.04437 0.60012 0.19616 0.0
C52 C 0.04465 0.63751 0.0938 0.0
O53 O 0.06797 0.63852 0.098 0.0
O54 O 0.03304 0.6423 0.11455 0.0
O55 O 0.41284 0.0211 0.67829 0.0
Cd56 Cd 0.37121 0.01641 0.65531 0.0
O57 O 0.41243 0.04637 0.71367 0.0
Cd58 Cd 0.3789 0.05398 0.70109 0.0
O59 O 0.36347 0.08266 0.71037 0.0
C60 C 0.37972 0.10821 0.70444 0.0
O61 O 0.40313 0.11513 0.69132 0.0
C62 C 0.42297 0.03347 0.7013 0.0
C63 C 0.36868 0.00389 0.59843 0.0
O64 O 0.36261 0.98505 0.61701 0.0
O65 O 0.37614 0.02872 0.60659 0.0
O66 O 0.55216 0.60273 0.31687 0.0
Cd67 Cd 0.58235 0.64448 0.34434 0.0
O68 O 0.55514 0.62662 0.27896 0.0
Cd69 Cd 0.5819 0.66894 0.29462 0.0
O70 O 0.59526 0.71315 0.28866 0.0
C71 C 0.5921 0.71967 0.26404 0.0
O72 O 0.58245 0.70016 0.2448 0.0
C73 C 0.54566 0.60335 0.29154 0.0
C74 C 0.59138 0.63214 0.39869 0.0
O75 O 0.56985 0.63404 0.39267 0.0
O76 O 0.60856 0.63588 0.37899 0.0
O77 O 0.94006 0.54708 0.82475 0.0
Cd78 Cd 0.92969 0.57907 0.85055 0.0
O79 O 0.95963 0.575 0.78886 0.0
Cd80 Cd 0.94316 0.60208 0.80092 0.0
O81 O 0.90965 0.61121 0.79287 0.0
C82 C 0.90025 0.60627 0.76809 0.0
O83 O 0.91203 0.5977 0.74981 0.0
C84 C 0.95306 0.55238 0.80165 0.0
C85 C 0.95475 0.59195 0.90323 0.0
O86 O 0.93096 0.57007 0.89938 0.0
O87 O 0.96673 0.60777 0.88218 0.0
O88 O 0.3773 0.94134 0.31393 0.0
Cd89 Cd 0.3373 0.94 0.33742 0.0
O90 O 0.36832 0.95624 0.27484 0.0
Cd91 Cd 0.3249 0.94146 0.28597 0.0
O92 O 0.28169 0.90822 0.2801 0.0
C93 C 0.27915 0.88579 0.27003 0.0
O94 O 0.30185 0.88461 0.26486 0.0
C95 C 0.38441 0.95102 0.28933 0.0
C96 C 0.34625 0.95312 0.39424 0.0
O97 O 0.35685 0.97226 0.37561 0.0
O98 O 0.33161 0.92773 0.38615 0.0
O99 O 0.41353 0.39688 0.81205 0.0
Cd100 Cd 0.3715 0.35943 0.83408 0.0
O101 O 0.41885 0.37016 0.78141 0.0
Cd102 Cd 0.38437 0.32898 0.79269 0.0
O103 O 0.36719 0.28485 0.78211 0.0
C104 C 0.37848 0.27187 0.79277 0.0
O105 O 0.39817 0.28472 0.81147 0.0
C106 C 0.42676 0.39415 0.79175 0.0
C107 C 0.37073 0.3653 0.89201 0.0
O108 O 0.36466 0.37973 0.87552 0.0
O109 O 0.37734 0.3482 0.88122 0.0
O110 O 0.04843 0.44341 0.32361 0.0
Cd111 Cd 0.05795 0.41082 0.34942 0.0
O112 O 0.03082 0.41676 0.28659 0.0
Cd113 Cd 0.0463 0.3889 0.29892 0.0
O114 O 0.07854 0.37755 0.2926 0.0
C115 C 0.1008 0.39668 0.28153 0.0
O116 O 0.10247 0.42073 0.27581 0.0
C117 C 0.03662 0.43889 0.29993 0.0
C118 C 0.03342 0.39875 0.40244 0.0
O119 O 0.05739 0.42031 0.39823 0.0
O120 O 0.021 0.38288 0.38158 0.0
O121 O 0.59049 0.02449 0.80842 0.0
Cd122 Cd 0.6287 0.02167 0.83096 0.0
O123 O 0.61578 0.05475 0.77575 0.0
Cd124 Cd 0.65758 0.06374 0.78737 0.0
O125 O 0.70156 0.09185 0.77738 0.0
C126 C 0.71252 0.11702 0.78557 0.0
O127 O 0.69772 0.12417 0.80139 0.0
C128 C 0.59224 0.0389 0.78702 0.0
C129 C 0.61962 0.00951 0.888 0.0
O130 O 0.60736 0.99036 0.86965 0.0
O131 O 0.63607 0.03447 0.87954 0.0
C132 C 0.22273 0.37443 0.21959 0.0
C133 C 0.24352 0.38111 0.23967 0.0
C134 C 0.19785 0.37402 0.22642 0.0
C135 C 0.19374 0.38057 0.25393 0.0
C136 C 0.21411 0.3861 0.27455 0.0
C137 C 0.23869 0.38624 0.26719 0.0
C138 C 0.1765 0.36778 0.20391 0.0
C139 C 0.21058 0.39323 0.30411 0.0
C140 C 0.14925 0.41434 0.26413 0.0
C141 C 0.12435 0.39216 0.27459 0.0
C142 C 0.17182 0.41071 0.25717 0.0
C143 C 0.16948 0.38419 0.26061 0.0
C144 C 0.14436 0.36161 0.27102 0.0
C145 C 0.12209 0.36588 0.27797 0.0
C146 C 0.1983 0.43539 0.24631 0.0
C147 C 0.14108 0.33302 0.27486 0.0
H148 H 0.2262 0.37028 0.19832 0.0
H149 H 0.25454 0.39128 0.28292 0.0
H150 H 0.1555 0.35173 0.21117 0.0
H151 H 0.17558 0.38694 0.19912 0.0
H152 H 0.18146 0.36034 0.18439 0.0
H153 H 0.2272 0.39472 0.31816 0.0
H154 H 0.21106 0.41354 0.30438 0.0
H155 H 0.19007 0.37727 0.31254 0.0
H156 H 0.15124 0.43473 0.26145 0.0
H157 H 0.10289 0.3486 0.28594 0.0
H158 H 0.20344 0.43053 0.22546 0.0
H159 H 0.21592 0.43979 0.26037 0.0
H160 H 0.19665 0.45456 0.24459 0.0
H161 H 0.14488 0.32549 0.25481 0.0
H162 H 0.12 0.3175 0.28256 0.0
H163 H 0.15678 0.33413 0.28993 0.0
C164 C 0.75348 0.13247 0.75348 0.0
C165 C 0.74001 0.13871 0.77473 0.0
C166 C 0.77788 0.15361 0.74091 0.0
C167 C 0.78912 0.18159 0.74988 0.0
C168 C 0.7763 0.18779 0.77214 0.0
C169 C 0.75191 0.16631 0.78425 0.0
C170 C 0.79098 0.14616 0.71728 0.0
C171 C 0.78774 0.21732 0.78249 0.0
C172 C 0.86289 0.23816 0.73173 0.0
C173 C 0.85803 0.25261 0.7104 0.0
C174 C 0.84076 0.21436 0.74416 0.0
C175 C 0.81317 0.20474 0.73497 0.0
C176 C 0.8083 0.2185 0.71261 0.0
C177 C 0.83076 0.24227 0.70065 0.0
C178 C 0.8468 0.20023 0.7679 0.0
C179 C 0.7792 0.20878 0.70204 0.0
H180 H 0.74446 0.11121 0.74599 0.0
H181 H 0.74178 0.17132 0.80077 0.0
H182 H 0.78884 0.15547 0.6976 0.0
H183 H 0.81359 0.15494 0.72107 0.0
H184 H 0.78118 0.12322 0.71439 0.0
H185 H 0.77641 0.2184 0.80115 0.0
H186 H 0.81012 0.22664 0.7878 0.0
H187 H 0.78614 0.23034 0.76577 0.0
H188 H 0.88389 0.24595 0.73939 0.0
H189 H 0.8268 0.25316 0.68407 0.0
H190 H 0.8367 0.17743 0.76415 0.0
H191 H 0.83796 0.2032 0.78751 0.0
H192 H 0.8695 0.20868 0.7709 0.0
H193 H 0.76863 0.18622 0.69686 0.0
H194 H 0.77913 0.22051 0.68326 0.0
H195 H 0.76675 0.21149 0.7186 0.0
C196 C 0.6068 0.76898 0.27777 0.0
C197 C 0.5969 0.74796 0.25743 0.0
C198 C 0.60922 0.79507 0.27215 0.0
C199 C 0.60136 0.80015 0.24566 0.0
C200 C 0.59229 0.77936 0.22477 0.0
C201 C 0.59026 0.75359 0.23087 0.0
C202 C 0.61922 0.81683 0.29488 0.0
C203 C 0.58358 0.78388 0.19629 0.0
C204 C 0.57415 0.85077 0.24015 0.0
C205 C 0.59673 0.87426 0.22796 0.0
C206 C 0.57561 0.82676 0.24636 0.0
C207 C 0.60034 0.82617 0.2404 0.0
C208 C 0.62341 0.84994 0.22849 0.0
C209 C 0.62131 0.8737 0.22232 0.0
C210 C 0.55047 0.8018 0.25889 0.0
C211 C 0.65016 0.85012 0.22201 0.0
H212 H 0.61213 0.76488 0.29829 0.0
H213 H 0.58269 0.73755 0.21496 0.0
H214 H 0.63613 0.83713 0.28694 0.0
H215 H 0.60189 0.82007 0.3016 0.0
H216 H 0.627 0.81068 0.31337 0.0
H217 H 0.57882 0.76639 0.18179 0.0
H218 H 0.56476 0.78599 0.19826 0.0
H219 H 0.60025 0.80353 0.18696 0.0
H220 H 0.55507 0.85097 0.24462 0.0
H221 H 0.63889 0.8918 0.21301 0.0
H222 H 0.55619 0.79586 0.27887 0.0
H223 H 0.54299 0.78365 0.24465 0.0
H224 H 0.53304 0.80586 0.26284 0.0
H225 H 0.65805 0.8449 0.241 0.0
H226 H 0.66661 0.87067 0.21397 0.0
H227 H 0.64622 0.83392 0.2062 0.0
C228 C 0.76473 0.61526 0.72156 0.0
C229 C 0.74142 0.58911 0.72739 0.0
C230 C 0.79179 0.62089 0.72813 0.0
C231 C 0.79559 0.59979 0.7406 0.0
C232 C 0.77213 0.57341 0.74655 0.0
C233 C 0.74538 0.56844 0.73997 0.0
C234 C 0.8163 0.64932 0.72163 0.0
C235 C 0.77528 0.55028 0.75965 0.0
C236 C 0.8636 0.59946 0.73359 0.0
C237 C 0.87499 0.60755 0.76038 0.0
C238 C 0.8383 0.5979 0.72655 0.0
C239 C 0.82404 0.60475 0.74673 0.0
C240 C 0.836 0.61411 0.77343 0.0
C241 C 0.86131 0.61534 0.77998 0.0
C242 C 0.82622 0.58774 0.69788 0.0
C243 C 0.82152 0.62182 0.79543 0.0
H244 H 0.76184 0.63139 0.71197 0.0
H245 H 0.72753 0.54817 0.74454 0.0
H246 H 0.82852 0.65883 0.74085 0.0
H247 H 0.83039 0.64725 0.70659 0.0
H248 H 0.80979 0.66371 0.71269 0.0
H249 H 0.7549 0.53106 0.76324 0.0
H250 H 0.78813 0.54496 0.74598 0.0
H251 H 0.78628 0.55731 0.7799 0.0
H252 H 0.87405 0.59352 0.71824 0.0
H253 H 0.87002 0.62176 0.80067 0.0
H254 H 0.82078 0.60252 0.688 0.0
H255 H 0.80672 0.5673 0.69965 0.0
H256 H 0.84083 0.5852 0.68394 0.0
H257 H 0.81565 0.63682 0.78687 0.0
H258 H 0.83474 0.63119 0.81416 0.0
H259 H 0.80201 0.60289 0.80196 0.0
C260 C 0.24935 0.83642 0.25441 0.0
C261 C 0.2514 0.86143 0.26377 0.0
C262 C 0.22344 0.81305 0.24825 0.0
C263 C 0.19888 0.81467 0.25137 0.0
C264 C 0.20075 0.83988 0.26061 0.0
C265 C 0.22701 0.86297 0.26678 0.0
C266 C 0.22235 0.78651 0.23861 0.0
C267 C 0.17502 0.84241 0.26408 0.0
C268 C 0.13572 0.75878 0.21264 0.0
C269 C 0.12214 0.73882 0.23367 0.0
C270 C 0.16015 0.78413 0.21833 0.0
C271 C 0.1713 0.78958 0.24566 0.0
C272 C 0.15713 0.76996 0.26715 0.0
C273 C 0.13273 0.74489 0.26092 0.0
C274 C 0.17456 0.80462 0.19489 0.0
C275 C 0.16836 0.77494 0.29655 0.0
H276 H 0.26804 0.83499 0.25201 0.0
H277 H 0.22841 0.88224 0.2739 0.0
H278 H 0.20977 0.7693 0.25342 0.0
H279 H 0.21205 0.78023 0.21797 0.0
H280 H 0.24339 0.78879 0.23693 0.0
H281 H 0.18005 0.86367 0.27075 0.0
H282 H 0.16335 0.83739 0.24415 0.0
H283 H 0.16097 0.82712 0.27981 0.0
H284 H 0.12763 0.75434 0.19156 0.0
H285 H 0.12235 0.72969 0.27736 0.0
H286 H 0.19489 0.80606 0.1904 0.0
H287 H 0.17891 0.82577 0.20105 0.0
H288 H 0.16199 0.79844 0.17546 0.0
H289 H 0.18856 0.77528 0.29683 0.0
H290 H 0.15388 0.75856 0.31125 0.0
H291 H 0.17233 0.79555 0.30415 0.0
C292 C 0.38559 0.23062 0.79315 0.0
C293 C 0.37255 0.24443 0.78153 0.0
C294 C 0.38328 0.20661 0.78064 0.0
C295 C 0.36757 0.19613 0.75586 0.0
C296 C 0.35315 0.2091 0.74482 0.0
C297 C 0.35578 0.23309 0.7578 0.0
C298 C 0.39882 0.19329 0.79322 0.0
C299 C 0.33609 0.19848 0.71852 0.0
C300 C 0.39275 0.15835 0.70848 0.0
C301 C 0.37434 0.13028 0.7151 0.0
C302 C 0.39007 0.17988 0.72083 0.0
C303 C 0.36844 0.17325 0.74032 0.0
C304 C 0.34901 0.14492 0.74619 0.0
C305 C 0.35217 0.12375 0.7335 0.0
C306 C 0.41115 0.20982 0.71385 0.0
C307 C 0.32558 0.13702 0.76674 0.0
H308 H 0.3984 0.23907 0.81159 0.0
H309 H 0.34554 0.24355 0.7487 0.0
H310 H 0.38466 0.17052 0.79598 0.0
H311 H 0.41575 0.19603 0.77889 0.0
H312 H 0.40818 0.20252 0.81373 0.0
H313 H 0.32368 0.20884 0.7144 0.0
H314 H 0.35014 0.20236 0.7005 0.0
H315 H 0.32174 0.1756 0.71982 0.0
H316 H 0.40982 0.16362 0.69417 0.0
H317 H 0.3378 0.10211 0.7387 0.0
H318 H 0.42361 0.22043 0.73266 0.0
H319 H 0.40041 0.22127 0.7073 0.0
H320 H 0.42561 0.21142 0.69697 0.0
H321 H 0.33429 0.14352 0.78801 0.0
H322 H 0.31068 0.11419 0.76694 0.0
H323 H 0.31405 0.14809 0.76176 0.0
C324 C 0.40816 0.47622 0.23314 0.0
C325 C 0.41116 0.45861 0.21412 0.0
C326 C 0.43143 0.49885 0.2454 0.0
C327 C 0.45847 0.50395 0.23876 0.0
C328 C 0.46172 0.4861 0.21987 0.0
C329 C 0.43802 0.46371 0.20763 0.0
C330 C 0.42705 0.51757 0.26521 0.0
C331 C 0.49022 0.49075 0.2125 0.0
C332 C 0.51602 0.57866 0.2502 0.0
C333 C 0.52555 0.57728 0.27696 0.0
C334 C 0.49495 0.55474 0.23709 0.0
C335 C 0.48321 0.52867 0.25092 0.0
C336 C 0.4936 0.52684 0.27734 0.0
C337 C 0.51457 0.55119 0.29011 0.0
C338 C 0.48437 0.55764 0.20898 0.0
C339 C 0.4818 0.49934 0.29258 0.0
H340 H 0.38753 0.47253 0.23826 0.0
H341 H 0.44054 0.45012 0.1931 0.0
H342 H 0.43657 0.51819 0.28572 0.0
H343 H 0.43752 0.53923 0.25697 0.0
H344 H 0.40464 0.51053 0.26846 0.0
H345 H 0.48915 0.47435 0.19833 0.0
H346 H 0.50267 0.51136 0.20223 0.0
H347 H 0.5015 0.49105 0.23171 0.0
H348 H 0.52438 0.59865 0.23976 0.0
H349 H 0.52189 0.54985 0.31069 0.0
H350 H 0.46251 0.55299 0.21101 0.0
H351 H 0.48444 0.54238 0.19403 0.0
H352 H 0.49704 0.57896 0.20013 0.0
H353 H 0.46 0.49224 0.29891 0.0
H354 H 0.49401 0.50089 0.31154 0.0
H355 H 0.48136 0.48309 0.27867 0.0
C356 C 0.93999 0.43306 0.70289 0.0
C357 C 0.9548 0.41974 0.71089 0.0
C358 C 0.9427 0.45619 0.71768 0.0
C359 C 0.96114 0.46664 0.74066 0.0
C360 C 0.97733 0.45427 0.74786 0.0
C361 C 0.97373 0.43075 0.73309 0.0
C362 C 0.92475 0.46851 0.70956 0.0
C363 C -0.00227 0.46527 0.77177 0.0
C364 C 0.97676 0.53817 0.76603 0.0
C365 C 0.95793 0.53103 0.78827 0.0
C366 C 0.97911 0.51753 0.75117 0.0
C367 C 0.96174 0.48908 0.75832 0.0
C368 C 0.94336 0.48185 0.78133 0.0
C369 C 0.94191 0.50293 0.7962 0.0
C370 C -0.00052 0.52611 0.72725 0.0
C371 C 0.92418 0.45174 0.78939 0.0
H372 H 0.92523 0.42462 0.68585 0.0
H373 H 0.9854 0.42068 0.73925 0.0
H374 H 0.91019 0.46556 0.72684 0.0
H375 H 0.93786 0.4913 0.70597 0.0
H376 H 0.91238 0.45876 0.69044 0.0
H377 H 0.01103 0.4555 0.7726 0.0
H378 H 0.01135 0.48824 0.76999 0.0
H379 H 0.98623 0.46103 0.79176 0.0
H380 H 0.98935 0.55987 0.75992 0.0
H381 H 0.92721 0.49722 0.81326 0.0
H382 H 0.98794 0.51934 0.70727 0.0
H383 H 0.01216 0.51573 0.72898 0.0
H384 H 0.0137 0.54907 0.72644 0.0
H385 H 0.90947 0.44067 0.77208 0.0
H386 H 0.91193 0.44968 0.80848 0.0
H387 H 0.93633 0.44105 0.79301 0.0
C388 C 0.53221 0.97823 0.23167 0.0
C389 C 0.52785 0.96013 0.20933 0.0
C390 C 0.50976 0.97872 0.24472 0.0
C391 C 0.48226 0.96021 0.23562 0.0
C392 C 0.47776 0.94215 0.21283 0.0
C393 C 0.50065 0.94255 0.19976 0.0
C394 C 0.51545 -0.00126 0.2685 0.0
C395 C 0.44872 0.92179 0.2028 0.0
C396 C 0.42273 0.93959 0.28688 0.0
C397 C 0.41056 0.95486 0.27687 0.0
C398 C 0.44617 0.94126 0.27373 0.0
C399 C 0.45809 0.95911 0.25041 0.0
C400 C 0.44646 0.9753 0.24083 0.0
C401 C 0.42264 0.97273 0.25397 0.0
C402 C 0.45769 0.92331 0.28429 0.0
C403 C 0.45897 -0.00495 0.21646 0.0
H404 H 0.55321 0.99198 0.23905 0.0
H405 H 0.49714 0.92837 0.18264 0.0
H406 H 0.50545 0.01148 0.26441 0.0
H407 H 0.50626 0.9869 0.28802 0.0
H408 H 0.53809 0.013 0.27187 0.0
H409 H 0.44879 0.90939 0.18462 0.0
H410 H 0.43662 0.90721 0.21991 0.0
H411 H 0.43768 0.93311 0.19685 0.0
H412 H 0.41336 0.9256 0.30444 0.0
H413 H 0.41342 0.98472 0.24626 0.0
H414 H 0.47995 0.93656 0.28995 0.0
H415 H 0.45657 0.90893 0.26757 0.0
H416 H 0.44617 0.91072 0.3028 0.0
H417 H 0.48144 0.00967 0.2202 0.0
H418 H 0.44847 0.00741 0.21267 0.0
H419 H 0.45734 0.98311 0.1973 0.0
C420 C 0.45769 0.44608 0.78657 0.0
C421 C 0.45143 0.41888 0.77969 0.0
C422 C 0.48081 0.46948 0.77474 0.0
C423 C 0.49823 0.46556 0.75588 0.0
C424 C 0.49205 0.43817 0.74894 0.0
C425 C 0.4687 0.41522 0.76079 0.0
C426 C 0.48662 0.49838 0.78244 0.0
C427 C 0.51029 0.43307 0.72917 0.0
C428 C 0.54693 0.52167 0.70509 0.0
C429 C 0.57277 0.53178 0.71836 0.0
C430 C 0.52225 0.50095 0.71763 0.0
C431 C 0.52348 0.48993 0.74392 0.0
C432 C 0.54934 0.50075 0.75783 0.0
C433 C 0.57361 0.52159 0.74496 0.0
C434 C 0.495 0.49016 0.7023 0.0
C435 C 0.55159 0.48944 0.78579 0.0
H436 H 0.44438 0.44912 0.80101 0.0
H437 H 0.46413 0.39432 0.75539 0.0
H438 H 0.50729 0.51012 0.79264 0.0
H439 H 0.48739 0.5101 0.76336 0.0
H440 H 0.47061 0.49788 0.79676 0.0
H441 H 0.5025 0.41048 0.7258 0.0
H442 H 0.51143 0.44294 0.7087 0.0
H443 H 0.53181 0.44281 0.7375 0.0
H444 H 0.54603 0.52951 0.68464 0.0
H445 H 0.59342 0.52926 0.75547 0.0
H446 H 0.47906 0.49033 0.71618 0.0
H447 H 0.48717 0.4682 0.6959 0.0
H448 H 0.49714 0.50269 0.68338 0.0
H449 H 0.53664 0.48998 0.8008 0.0
H450 H 0.57289 0.50137 0.7947 0.0
H451 H 0.54611 0.46729 0.78352 0.0
C452 C 0.05311 0.56028 0.20223 0.0
C453 C 0.03802 0.57347 0.20967 0.0
C454 C 0.04998 0.53699 0.21705 0.0
C455 C 0.03079 0.52619 0.23946 0.0
C456 C 0.01441 0.5385 0.24613 0.0
C457 C 0.01848 0.56223 0.23138 0.0
C458 C 0.06819 0.52479 0.20954 0.0
C459 C -0.00679 0.52711 0.26938 0.0
C460 C 0.01418 0.45403 0.26381 0.0
C461 C 0.03223 0.46059 0.28663 0.0
C462 C 0.01234 0.47505 0.24911 0.0
C463 C 0.02946 0.50331 0.257 0.0
C464 C 0.047 0.50993 0.28059 0.0
C465 C 0.04793 0.48847 0.29529 0.0
C466 C -0.00718 0.4671 0.22455 0.0
C467 C 0.06591 0.53983 0.28944 0.0
H468 H 0.06836 0.56892 0.18558 0.0
H469 H 0.0066 0.57221 0.2371 0.0
H470 H 0.08198 0.52721 0.22736 0.0
H471 H 0.05518 0.50212 0.20532 0.0
H472 H 0.08139 0.53501 0.19096 0.0
H473 H 0.98003 0.53703 0.26989 0.0
H474 H 0.97953 0.50421 0.26708 0.0
H475 H 0.00402 0.53082 0.28972 0.0
H476 H 0.00183 0.4325 0.25714 0.0
H477 H 0.06202 0.49372 0.31281 0.0
H478 H 0.00506 0.47427 0.20496 0.0
H479 H 0.98017 0.47753 0.22595 0.0
H480 H 0.97857 0.44418 0.22319 0.0
H481 H 0.08131 0.55127 0.27271 0.0
H482 H 0.07739 0.54138 0.30896 0.0
H483 H 0.0537 0.55051 0.29268 0.0
C484 C 0.45972 0.04873 0.73812 0.0
C485 C 0.44719 0.03304 0.71401 0.0
C486 C 0.48278 0.04892 0.75038 0.0
C487 C 0.49358 0.03291 0.73838 0.0
C488 C 0.4809 0.01676 0.71426 0.0
C489 C 0.4579 0.01707 0.7023 0.0
C490 C 0.49583 0.06658 0.77599 0.0
C491 C 0.49178 -0.00067 0.70096 0.0
C492 C 0.56924 0.05564 0.75337 0.0
C493 C 0.56684 0.03718 0.77473 0.0
C494 C 0.54557 0.05432 0.74128 0.0
C495 C 0.51877 0.03393 0.75059 0.0
C496 C 0.51613 0.01509 0.772 0.0
C497 C 0.5402 0.01701 0.7839 0.0
C498 C 0.54928 0.07496 0.71869 0.0
C499 C 0.48787 0.99297 0.78236 0.0
H500 H 0.45166 0.06116 0.74736 0.0
H501 H 0.44832 0.00479 0.68377 0.0
H502 H 0.49609 0.0534 0.79329 0.0
H503 H 0.51778 0.08254 0.77153 0.0
H504 H 0.48456 0.07738 0.78309 0.0
H505 H 0.47899 0.98717 0.68285 0.0
H506 H 0.51353 0.01301 0.6938 0.0
H507 H 0.49211 0.98461 0.71648 0.0
H508 H 0.5897 0.07134 0.74615 0.0
H509 H 0.53812 0.00258 0.80028 0.0
H510 H 0.5398 0.08758 0.72535 0.0
H511 H 0.53837 0.06369 0.69945 0.0
H512 H 0.57155 0.08935 0.71359 0.0
H513 H 0.47646 0.00296 0.79115 0.0
H514 H 0.48935 0.97947 0.79864 0.0
H515 H 0.4753 0.97962 0.76476 0.0
C516 C 0.33675 0.37336 0.05243 0.0
C517 C 0.35912 0.37878 0.06996 0.0
C518 C 0.33869 0.37106 0.02345 0.0
C519 C 0.36394 0.37523 0.01165 0.0
C520 C 0.38683 0.3814 0.02924 0.0
C521 C 0.38398 0.38262 0.05824 0.0
C522 C 0.31354 0.36365 0.00552 0.0
C523 C 0.41437 0.38684 0.01743 0.0
C524 C 0.3629 0.34516 0.94002 0.0
C525 C 0.36967 0.36804 0.92259 0.0
C526 C 0.36067 0.34712 0.96901 0.0
C527 C 0.36629 0.37286 0.98092 0.0
C528 C 0.37383 0.39624 0.96343 0.0
C529 C 0.37495 0.3934 0.93442 0.0
C530 C 0.35178 0.32149 0.98683 0.0
C531 C 0.38083 0.42427 0.97536 0.0
H532 H 0.31742 0.37015 0.06148 0.0
H533 H 0.40137 0.38701 0.07175 0.0
H534 H 0.3185 0.38048 0.99014 0.0
H535 H 0.30777 0.34431 0.99359 0.0
H536 H 0.29525 0.36036 0.01801 0.0
H537 H 0.43052 0.39272 0.0338 0.0
H538 H 0.41168 0.36796 0.00656 0.0
H539 H 0.422 0.40389 0.00177 0.0
H540 H 0.35858 0.32546 0.93088 0.0
H541 H 0.3804 0.41119 0.92099 0.0
H542 H 0.33267 0.31669 -0.00133 0.0
H543 H 0.36821 0.32542 0.00228 0.0
H544 H 0.34753 0.3029 0.97427 0.0
H545 H 0.36238 0.42267 0.98615 0.0
H546 H 0.38769 0.44069 0.95906 0.0
H547 H 0.39763 0.4309 0.9911 0.0
C548 C 0.03144 0.41246 0.4518 0.0
C549 C 0.02055 0.39235 0.43057 0.0
C550 C 0.01947 0.4067 0.47854 0.0
C551 C -0.0037 0.38005 0.48434 0.0
C552 C 0.9853 0.35962 0.46304 0.0
C553 C -0.00258 0.36608 0.43636 0.0
C554 C 0.03156 0.42918 0.50056 0.0
C555 C 0.96085 0.33085 0.46849 0.0
C556 C 0.98204 0.35701 0.56022 0.0
C557 C 0.95978 0.36134 0.56668 0.0
C558 C -0.00606 0.36277 0.53345 0.0
C559 C 0.98364 0.37352 0.51274 0.0
C560 C 0.9613 0.37812 0.51918 0.0
C561 C 0.94951 0.37178 0.546 0.0
C562 C 0.01748 0.35723 0.5273 0.0
C563 C 0.94998 0.38992 0.4978 0.0
H564 H 0.04922 0.43285 0.44745 0.0
H565 H 0.98896 0.35039 0.42011 0.0
H566 H 0.01524 0.43346 0.50848 0.0
H567 H 0.03895 0.42199 0.51853 0.0
H568 H 0.04926 0.44899 0.49255 0.0
H569 H 0.95496 0.31723 0.44979 0.0
H570 H 0.96592 0.32069 0.48567 0.0
H571 H 0.94254 0.33244 0.47526 0.0
H572 H 0.99001 0.34883 0.57604 0.0
H573 H 0.93241 0.37531 0.55086 0.0
H574 H 0.03636 0.37689 0.52101 0.0
H575 H 0.01177 0.34247 0.50958 0.0
H576 H 0.02275 0.34834 0.54553 0.0
H577 H 0.96687 0.4105 0.49039 0.0
H578 H 0.93278 0.3926 0.50622 0.0
H579 H 0.94216 0.37594 0.47941 0.0
C580 C 0.63684 0.01751 0.93711 0.0
C581 C 0.61517 0.00286 0.91808 0.0
C582 C 0.63327 0.01062 0.9656 0.0
C583 C 0.60707 0.98927 0.9754 0.0
C584 C 0.5849 0.97491 0.9563 0.0
C585 C 0.58938 0.98153 0.92778 0.0
C586 C 0.6577 0.02581 0.98511 0.0
C587 C 0.5564 0.95269 0.966 0.0
C588 C 0.60281 0.9529 0.04414 0.0
C589 C 0.59622 0.96816 0.06291 0.0
C590 C 0.60675 0.95977 0.01566 0.0
C591 C 0.60298 0.98176 0.00558 0.0
C592 C 0.59558 -0.00326 0.02439 0.0
C593 C 0.59281 0.9901 0.05293 0.0
C594 C 0.61549 0.94388 -0.00354 0.0
C595 C 0.59045 0.01968 0.01437 0.0
H596 H 0.65687 0.03385 0.92959 0.0
H597 H 0.57253 0.97033 0.91309 0.0
H598 H 0.65269 0.03682 0.00143 0.0
H599 H 0.66202 0.01059 -0.00415 0.0
H600 H 0.67689 0.04131 0.97405 0.0
H601 H 0.54101 0.94456 0.94873 0.0
H602 H 0.55764 0.93499 0.97536 0.0
H603 H 0.54866 0.96125 0.98243 0.0
H604 H 0.6057 0.93609 0.05188 0.0
H605 H 0.58751 0.00178 0.06741 0.0
H606 H 0.63537 0.95859 0.98597 0.0
H607 H 0.59966 0.93333 0.97993 0.0
H608 H 0.61832 0.9279 0.00773 0.0
H609 H 0.60981 0.03695 0.00523 0.0
H610 H 0.58338 0.02828 0.03142 0.0
H611 H 0.57444 0.01164 -0.00231 0.0
C612 C 0.6134 0.58021 0.54788 0.0
C613 C 0.62261 0.60163 0.56773 0.0
C614 C 0.60775 0.58445 0.52031 0.0
C615 C 0.6118 0.61088 0.51228 0.0
C616 C 0.62117 0.63262 0.53221 0.0
C617 C 0.62627 0.62767 0.55973 0.0
C618 C 0.59743 0.56063 0.49979 0.0
C619 C 0.62607 0.66119 0.52439 0.0
C620 C 0.62256 0.63006 0.43528 0.0
C621 C 0.59643 0.62619 0.4276 0.0
C622 C 0.62786 0.62521 0.46276 0.0
C623 C 0.6064 0.61587 0.48298 0.0
C624 C 0.57986 0.61156 0.47527 0.0
C625 C 0.57526 0.61696 0.44773 0.0
C626 C 0.65653 0.63039 0.47023 0.0
C627 C 0.55633 0.60125 0.49611 0.0
H628 H 0.61039 0.55999 0.55392 0.0
H629 H 0.63349 0.64438 0.5749 0.0
H630 H 0.57715 0.55629 0.49094 0.0
H631 H 0.6123 0.56645 0.48217 0.0
H632 H 0.59477 0.54119 0.50948 0.0
H633 H 0.63361 0.67591 0.54227 0.0
H634 H 0.64167 0.6701 0.50734 0.0
H635 H 0.60651 0.65956 0.51648 0.0
H636 H 0.63906 0.6373 0.41988 0.0
H637 H 0.55498 0.6138 0.44194 0.0
H638 H 0.65512 0.61095 0.47839 0.0
H639 H 0.66557 0.64628 0.48699 0.0
H640 H 0.67096 0.63774 0.45211 0.0
H641 H 0.55232 0.58112 0.50522 0.0
H642 H 0.53673 0.59824 0.48662 0.0
H643 H 0.5622 0.61637 0.51351 0.0
C644 C 0.04129 0.62039 0.04483 0.0
C645 C 0.0315 0.63098 0.06583 0.0
C646 C 0.02889 0.61385 0.01832 0.0
C647 C 0.00641 0.61839 0.01252 0.0
C648 C -0.00342 0.6293 0.03355 0.0
C649 C 0.00911 0.63527 0.06 0.0
C650 C 0.03974 0.60192 -0.00342 0.0
C651 C 0.97288 0.63476 0.02807 0.0
C652 C -0.00893 0.62513 0.93649 0.0
C653 C 0.96797 0.59873 0.93116 0.0
C654 C 0.00364 0.63189 0.96292 0.0
C655 C -0.00689 0.61163 0.98445 0.0
C656 C 0.96991 0.58489 0.97915 0.0
C657 C 0.9575 0.57883 0.95264 0.0
C658 C 0.02812 0.66075 0.96785 0.0
C659 C 0.95828 0.56261 0.00144 0.0
H660 H 0.05851 0.61689 0.0492 0.0
H661 H 0.0015 0.64356 0.07607 0.0
H662 H 0.02271 0.58128 0.98956 0.0
H663 H 0.04711 0.61576 0.97804 0.0
H664 H 0.05716 0.59933 0.0045 0.0
H665 H 0.96802 0.64376 0.04648 0.0
H666 H 0.97817 0.64939 0.01027 0.0
H667 H 0.95388 0.61504 0.02222 0.0
H668 H -0.0008 0.64067 0.92005 0.0
H669 H 0.93973 0.55835 0.94867 0.0
H670 H 0.04663 0.6593 0.97406 0.0
H671 H 0.02339 0.67096 0.98524 0.0
H672 H 0.0335 0.67425 0.94907 0.0
H673 H 0.97475 0.55834 0.00888 0.0
H674 H 0.94037 0.54276 0.99388 0.0
H675 H 0.95137 0.56999 0.01964 0.0
C676 C 0.37525 0.98313 0.4336 0.0
C677 C 0.35038 0.96023 0.42422 0.0
C678 C 0.37934 0.99025 0.46201 0.0
C679 C 0.3576 0.97473 0.4813 0.0
C680 C 0.33231 0.95174 0.47181 0.0
C681 C 0.32921 0.94445 0.44345 0.0
C682 C 0.40695 0.01427 0.4714 0.0
C683 C 0.3083 0.93521 0.4915 0.0
C684 C 0.37242 0.97646 0.55896 0.0
C685 C 0.36662 -0.003 0.56844 0.0
C686 C 0.37031 0.96954 0.53054 0.0
C687 C 0.36114 0.98272 0.51133 0.0
C688 C 0.35498 0.00329 0.5209 0.0
C689 C 0.3583 0.01055 0.54928 0.0
C690 C 0.37802 0.94823 0.52105 0.0
C691 C 0.34429 0.01718 0.50129 0.0
H692 H 0.39172 -0.00478 0.41875 0.0
H693 H 0.30987 0.92688 0.43616 0.0
H694 H 0.40392 0.03107 0.48032 0.0
H695 H 0.41589 0.00721 0.4881 0.0
H696 H 0.42224 0.02319 0.45406 0.0
H697 H 0.28977 0.91844 0.48068 0.0
H698 H 0.31466 0.92557 0.50809 0.0
H699 H 0.30225 0.94934 0.50189 0.0
H700 H 0.37906 0.96612 0.57375 0.0
H701 H 0.35358 0.02627 0.55664 0.0
H702 H 0.39394 0.9572 0.50429 0.0
H703 H 0.3595 0.92978 0.5122 0.0
H704 H 0.38633 0.94113 0.53833 0.0
H705 H 0.35981 0.02848 0.48465 0.0
H706 H 0.33976 0.03221 0.51217 0.0
H707 H 0.32495 0.00113 0.49098 0.0
loop_
_geom_bond_atom_site_label_1
_geom_bond_atom_site_label_2
_geom_bond_distance
_geom_bond_site_symmetry_2
_ccdc_geom_bond_type
O0 Cd1 2.300 . S
O0 C7 1.275 . S
Cd1 O0 2.300 . S
Cd1 O9 2.381 . S
Cd1 O10 2.378 . S
O2 Cd3 2.385 . S
O2 C7 1.255 . S
Cd3 O2 2.385 . S
Cd3 O4 2.317 . S
O4 Cd3 2.317 . S
O4 C5 1.232 . S
C5 O4 1.232 . S
C5 O6 1.218 . S
O6 C5 1.218 . S
C7 O0 1.275 . S
C7 O2 1.255 . S
C8 O9 1.258 . S
C8 O10 1.256 . S
O9 Cd1 2.381 . S
O9 C8 1.258 . S
O10 Cd1 2.378 . S
O10 C8 1.256 . S
O11 Cd12 2.300 . S
O11 C18 1.275 . S
Cd12 O11 2.300 . S
Cd12 O20 2.381 . S
Cd12 O21 2.378 . S
O13 Cd14 2.385 . S
O13 C18 1.255 . S
Cd14 O13 2.385 . S
Cd14 O15 2.317 . S
O15 Cd14 2.317 . S
O15 C16 1.232 . S
C16 O15 1.232 . S
C16 O17 1.218 . S
O17 C16 1.218 . S
C18 O11 1.275 . S
C18 O13 1.255 . S
C19 O20 1.258 . S
C19 O21 1.256 . S
O20 Cd12 2.381 . S
O20 C19 1.258 . S
O21 Cd12 2.378 . S
O21 C19 1.256 . S
O22 Cd23 2.300 . S
O22 C29 1.275 . S
Cd23 O22 2.300 . S
Cd23 O31 2.381 . S
Cd23 O32 2.378 . S
O24 Cd25 2.385 . S
O24 C29 1.255 . S
Cd25 O24 2.385 . S
Cd25 O26 2.317 . S
O26 Cd25 2.317 . S
O26 C27 1.232 . S
C27 O26 1.232 . S
C27 O28 1.218 . S
O28 C27 1.218 . S
C29 O22 1.275 . S
C29 O24 1.255 . S
C30 O31 1.258 . S
C30 O32 1.256 . S
O31 Cd23 2.381 . S
O31 C30 1.258 . S
O32 Cd23 2.378 . S
O32 C30 1.256 . S
O33 Cd34 2.300 . S
O33 C40 1.275 . S
Cd34 O33 2.300 . S
Cd34 O42 2.381 . S
Cd34 O43 2.378 . S
O35 Cd36 2.385 . S
O35 C40 1.255 . S
Cd36 O35 2.385 . S
Cd36 O37 2.317 . S
O37 Cd36 2.317 . S
O37 C38 1.232 . S
C38 O37 1.232 . S
C38 O39 1.218 . S
O39 C38 1.218 . S
C40 O33 1.275 . S
C40 O35 1.255 . S
C41 O42 1.258 . S
C41 O43 1.256 . S
O42 Cd34 2.381 . S
O42 C41 1.258 . S
O43 Cd34 2.378 . S
O43 C41 1.256 . S
O44 Cd45 2.300 . S
O44 C51 1.275 . S
Cd45 O44 2.300 . S
Cd45 O53 2.381 . S
Cd45 O54 2.378 . S
O46 Cd47 2.385 . S
O46 C51 1.255 . S
Cd47 O46 2.385 . S
Cd47 O48 2.317 . S
O48 Cd47 2.317 . S
O48 C49 1.232 . S
C49 O48 1.232 . S
C49 O50 1.218 . S
O50 C49 1.218 . S
C51 O44 1.275 . S
C51 O46 1.255 . S
C52 O53 1.258 . S
C52 O54 1.256 . S
O53 Cd45 2.381 . S
O53 C52 1.258 . S
O54 Cd45 2.378 . S
O54 C52 1.256 . S
O55 Cd56 2.300 . S
O55 C62 1.275 . S
Cd56 O55 2.300 . S
Cd56 O64 2.381 . S
Cd56 O65 2.378 . S
O57 Cd58 2.385 . S
O57 C62 1.255 . S
Cd58 O57 2.385 . S
Cd58 O59 2.317 . S
O59 Cd58 2.317 . S
O59 C60 1.232 . S
C60 O59 1.232 . S
C60 O61 1.218 . S
O61 C60 1.218 . S
C62 O55 1.275 . S
C62 O57 1.255 . S
C63 O64 1.258 . S
C63 O65 1.256 . S
O64 Cd56 2.381 . S
O64 C63 1.258 . S
O65 Cd56 2.378 . S
O65 C63 1.256 . S
O66 Cd67 2.300 . S
O66 C73 1.275 . S
Cd67 O66 2.300 . S
Cd67 O75 2.381 . S
Cd67 O76 2.378 . S
O68 Cd69 2.385 . S
O68 C73 1.255 . S
Cd69 O68 2.385 . S
Cd69 O70 2.317 . S
O70 Cd69 2.317 . S
O70 C71 1.232 . S
C71 O70 1.232 . S
C71 O72 1.218 . S
O72 C71 1.218 . S
C73 O66 1.275 . S
C73 O68 1.255 . S
C74 O75 1.258 . S
C74 O76 1.256 . S
O75 Cd67 2.381 . S
O75 C74 1.258 . S
O76 Cd67 2.378 . S
O76 C74 1.256 . S
O77 Cd78 2.300 . S
O77 C84 1.275 . S
Cd78 O77 2.300 . S
Cd78 O86 2.381 . S
Cd78 O87 2.378 . S
O79 Cd80 2.385 . S
O79 C84 1.255 . S
Cd80 O79 2.385 . S
Cd80 O81 2.317 . S
O81 Cd80 2.317 . S
O81 C82 1.232 . S
C82 O81 1.232 . S
C82 O83 1.218 . S
O83 C82 1.218 . S
C84 O77 1.275 . S
C84 O79 1.255 . S
C85 O86 1.258 . S
C85 O87 1.256 . S
O86 Cd78 2.381 . S
O86 C85 1.258 . S
O87 Cd78 2.378 . S
O87 C85 1.256 . S
O88 Cd89 2.300 . S
O88 C95 1.275 . S
Cd89 O88 2.300 . S
Cd89 O97 2.381 . S
Cd89 O98 2.378 . S
O90 Cd91 2.385 . S
O90 C95 1.255 . S
Cd91 O90 2.385 . S
Cd91 O92 2.317 . S
O92 Cd91 2.317 . S
O92 C93 1.232 . S
C93 O92 1.232 . S
C93 O94 1.218 . S
O94 C93 1.218 . S
C95 O88 1.275 . S
C95 O90 1.255 . S
C96 O97 1.258 . S
C96 O98 1.256 . S
O97 Cd89 2.381 . S
O97 C96 1.258 . S
O98 Cd89 2.378 . S
O98 C96 1.256 . S
O99 Cd100 2.300 . S
O99 C106 1.275 . S
Cd100 O99 2.300 . S
Cd100 O108 2.381 . S
Cd100 O109 2.378 . S
O101 Cd102 2.385 . S
O101 C106 1.255 . S
Cd102 O101 2.385 . S
Cd102 O103 2.317 . S
O103 Cd102 2.317 . S
O103 C104 1.232 . S
C104 O103 1.232 . S
C104 O105 1.218 . S
O105 C104 1.218 . S
C106 O99 1.275 . S
C106 O101 1.255 . S
C107 O108 1.258 . S
C107 O109 1.256 . S
O108 Cd100 2.381 . S
O108 C107 1.258 . S
O109 Cd100 2.378 . S
O109 C107 1.256 . S
O110 Cd111 2.300 . S
O110 C117 1.275 . S
Cd111 O110 2.300 . S
Cd111 O119 2.381 . S
Cd111 O120 2.378 . S
O112 Cd113 2.385 . S
O112 C117 1.255 . S
Cd113 O112 2.385 . S
Cd113 O114 2.317 . S
O114 Cd113 2.317 . S
O114 C115 1.232 . S
C115 O114 1.232 . S
C115 O116 1.218 . S
O116 C115 1.218 . S
C117 O110 1.275 . S
C117 O112 1.255 . S
C118 O119 1.258 . S
C118 O120 1.256 . S
O119 Cd111 2.381 . S
O119 C118 1.258 . S
O120 Cd111 2.378 . S
O120 C118 1.256 . S
O121 Cd122 2.300 . S
O121 C128 1.275 . S
Cd122 O121 2.300 . S
Cd122 O130 2.381 . S
Cd122 O131 2.378 . S
O123 Cd124 2.385 . S
O123 C128 1.255 . S
Cd124 O123 2.385 . S
Cd124 O125 2.317 . S
O125 Cd124 2.317 . S
O125 C126 1.232 . S
C126 O125 1.232 . S
C126 O127 1.218 . S
O127 C126 1.218 . S
C128 O121 1.275 . S
C128 O123 1.255 . S
C129 O130 1.258 . S
C129 O131 1.256 . S
O130 Cd122 2.381 . S
O130 C129 1.258 . S
O131 Cd122 2.378 . S
O131 C129 1.256 . S
C132 C133 1.391 . S
C132 C134 1.394 . S
C132 H148 0.931 . S
C133 C132 1.391 . S
C133 C137 1.376 . S
C134 C132 1.394 . S
C134 C135 1.369 . S
C134 C138 1.531 . S
C135 C134 1.369 . S
C135 C136 1.410 . S
C135 C143 1.503 . S
C136 C135 1.410 . S
C136 C137 1.392 . S
C136 C139 1.511 . S
C137 C133 1.376 . S
C137 C136 1.392 . S
C137 H149 0.929 . S
C138 C134 1.531 . S
C138 H150 0.960 . S
C138 H151 0.962 . S
C138 H152 0.960 . S
C139 C136 1.511 . S
C139 H153 0.961 . S
C139 H154 0.961 . S
C139 H155 0.961 . S
C140 C141 1.370 . S
C140 C142 1.363 . S
C140 H156 0.931 . S
C141 C140 1.370 . S
C141 C145 1.408 . S
C142 C140 1.363 . S
C142 C143 1.370 . S
C142 C146 1.524 . S
C143 C135 1.503 . S
C143 C142 1.370 . S
C143 C144 1.403 . S
C144 C143 1.403 . S
C144 C145 1.404 . S
C144 C147 1.539 . S
C145 C141 1.408 . S
C145 C144 1.404 . S
C145 H157 0.930 . S
C146 C142 1.524 . S
C146 H158 0.956 . S
C146 H159 0.961 . S
C146 H160 0.961 . S
C147 C144 1.539 . S
C147 H161 0.958 . S
C147 H162 0.961 . S
C147 H163 0.960 . S
H148 C132 0.931 . S
H149 C137 0.929 . S
H150 C138 0.960 . S
H151 C138 0.962 . S
H152 C138 0.960 . S
H153 C139 0.961 . S
H154 C139 0.961 . S
H155 C139 0.961 . S
H156 C140 0.931 . S
H157 C145 0.930 . S
H158 C146 0.956 . S
H159 C146 0.961 . S
H160 C146 0.961 . S
H161 C147 0.958 . S
H162 C147 0.961 . S
H163 C147 0.960 . S
C164 C165 1.391 . S
C164 C166 1.394 . S
C164 H180 0.931 . S
C165 C164 1.391 . S
C165 C169 1.376 . S
C166 C164 1.394 . S
C166 C167 1.369 . S
C166 C170 1.531 . S
C167 C166 1.369 . S
C167 C168 1.410 . S
C167 C175 1.503 . S
C168 C167 1.410 . S
C168 C169 1.392 . S
C168 C171 1.511 . S
C169 C165 1.376 . S
C169 C168 1.392 . S
C169 H181 0.929 . S
C170 C166 1.531 . S
C170 H182 0.960 . S
C170 H183 0.962 . S
C170 H184 0.960 . S
C171 C168 1.511 . S
C171 H185 0.961 . S
C171 H186 0.961 . S
C171 H187 0.961 . S
C172 C173 1.370 . S
C172 C174 1.363 . S
C172 H188 0.931 . S
C173 C172 1.370 . S
C173 C177 1.408 . S
C174 C172 1.363 . S
C174 C175 1.370 . S
C174 C178 1.524 . S
C175 C167 1.503 . S
C175 C174 1.370 . S
C175 C176 1.403 . S
C176 C175 1.403 . S
C176 C177 1.404 . S
C176 C179 1.539 . S
C177 C173 1.408 . S
C177 C176 1.404 . S
C177 H189 0.930 . S
C178 C174 1.524 . S
C178 H190 0.956 . S
C178 H191 0.961 . S
C178 H192 0.961 . S
C179 C176 1.539 . S
C179 H193 0.958 . S
C179 H194 0.961 . S
C179 H195 0.960 . S
H180 C164 0.931 . S
H181 C169 0.929 . S
H182 C170 0.960 . S
H183 C170 0.962 . S
H184 C170 0.960 . S
H185 C171 0.961 . S
H186 C171 0.961 . S
H187 C171 0.961 . S
H188 C172 0.931 . S
H189 C177 0.930 . S
H190 C178 0.956 . S
H191 C178 0.961 . S
H192 C178 0.961 . S
H193 C179 0.958 . S
H194 C179 0.961 . S
H195 C179 0.960 . S
C196 C197 1.391 . S
C196 C198 1.394 . S
C196 H212 0.931 . S
C197 C196 1.391 . S
C197 C201 1.376 . S
C198 C196 1.394 . S
C198 C199 1.369 . S
C198 C202 1.531 . S
C199 C198 1.369 . S
C199 C200 1.410 . S
C199 C207 1.503 . S
C200 C199 1.410 . S
C200 C201 1.392 . S
C200 C203 1.511 . S
C201 C197 1.376 . S
C201 C200 1.392 . S
C201 H213 0.929 . S
C202 C198 1.531 . S
C202 H214 0.960 . S
C202 H215 0.962 . S
C202 H216 0.960 . S
C203 C200 1.511 . S
C203 H217 0.961 . S
C203 H218 0.961 . S
C203 H219 0.961 . S
C204 C205 1.370 . S
C204 C206 1.363 . S
C204 H220 0.931 . S
C205 C204 1.370 . S
C205 C209 1.408 . S
C206 C204 1.363 . S
C206 C207 1.370 . S
C206 C210 1.524 . S
C207 C199 1.503 . S
C207 C206 1.370 . S
C207 C208 1.403 . S
C208 C207 1.403 . S
C208 C209 1.404 . S
C208 C211 1.539 . S
C209 C205 1.408 . S
C209 C208 1.404 . S
C209 H221 0.930 . S
C210 C206 1.524 . S
C210 H222 0.956 . S
C210 H223 0.961 . S
C210 H224 0.961 . S
C211 C208 1.539 . S
C211 H225 0.958 . S
C211 H226 0.961 . S
C211 H227 0.960 . S
H212 C196 0.931 . S
H213 C201 0.929 . S
H214 C202 0.960 . S
H215 C202 0.962 . S
H216 C202 0.960 . S
H217 C203 0.961 . S
H218 C203 0.961 . S
H219 C203 0.961 . S
H220 C204 0.931 . S
H221 C209 0.930 . S
H222 C210 0.956 . S
H223 C210 0.961 . S
H224 C210 0.961 . S
H225 C211 0.958 . S
H226 C211 0.961 . S
H227 C211 0.960 . S
C228 C229 1.391 . S
C228 C230 1.394 . S
C228 H244 0.931 . S
C229 C228 1.391 . S
C229 C233 1.376 . S
C230 C228 1.394 . S
C230 C231 1.369 . S
C230 C234 1.531 . S
C231 C230 1.369 . S
C231 C232 1.410 . S
C231 C239 1.503 . S
C232 C231 1.410 . S
C232 C233 1.392 . S
C232 C235 1.511 . S
C233 C229 1.376 . S
C233 C232 1.392 . S
C233 H245 0.929 . S
C234 C230 1.531 . S
C234 H246 0.960 . S
C234 H247 0.962 . S
C234 H248 0.960 . S
C235 C232 1.511 . S
C235 H249 0.961 . S
C235 H250 0.961 . S
C235 H251 0.961 . S
C236 C237 1.370 . S
C236 C238 1.363 . S
C236 H252 0.931 . S
C237 C236 1.370 . S
C237 C241 1.408 . S
C238 C236 1.363 . S
C238 C239 1.370 . S
C238 C242 1.524 . S
C239 C231 1.503 . S
C239 C238 1.370 . S
C239 C240 1.403 . S
C240 C239 1.403 . S
C240 C241 1.404 . S
C240 C243 1.539 . S
C241 C237 1.408 . S
C241 C240 1.404 . S
C241 H253 0.930 . S
C242 C238 1.524 . S
C242 H254 0.956 . S
C242 H255 0.961 . S
C242 H256 0.961 . S
C243 C240 1.539 . S
C243 H257 0.958 . S
C243 H258 0.961 . S
C243 H259 0.960 . S
H244 C228 0.931 . S
H245 C233 0.929 . S
H246 C234 0.960 . S
H247 C234 0.962 . S
H248 C234 0.960 . S
H249 C235 0.961 . S
H250 C235 0.961 . S
H251 C235 0.961 . S
H252 C236 0.931 . S
H253 C241 0.930 . S
H254 C242 0.956 . S
H255 C242 0.961 . S
H256 C242 0.961 . S
H257 C243 0.958 . S
H258 C243 0.961 . S
H259 C243 0.960 . S
C260 C261 1.391 . S
C260 C262 1.394 . S
C260 H276 0.931 . S
C261 C260 1.391 . S
C261 C265 1.376 . S
C262 C260 1.394 . S
C262 C263 1.369 . S
C262 C266 1.531 . S
C263 C262 1.369 . S
C263 C264 1.410 . S
C263 C271 1.503 . S
C264 C263 1.410 . S
C264 C265 1.392 . S
C264 C267 1.511 . S
C265 C261 1.376 . S
C265 C264 1.392 . S
C265 H277 0.929 . S
C266 C262 1.531 . S
C266 H278 0.960 . S
C266 H279 0.962 . S
C266 H280 0.960 . S
C267 C264 1.511 . S
C267 H281 0.961 . S
C267 H282 0.961 . S
C267 H283 0.961 . S
C268 C269 1.370 . S
C268 C270 1.363 . S
C268 H284 0.931 . S
C269 C268 1.370 . S
C269 C273 1.408 . S
C270 C268 1.363 . S
C270 C271 1.370 . S
C270 C274 1.524 . S
C271 C263 1.503 . S
C271 C270 1.370 . S
C271 C272 1.403 . S
C272 C271 1.403 . S
C272 C273 1.404 . S
C272 C275 1.539 . S
C273 C269 1.408 . S
C273 C272 1.404 . S
C273 H285 0.930 . S
C274 C270 1.524 . S
C274 H286 0.956 . S
C274 H287 0.961 . S
C274 H288 0.961 . S
C275 C272 1.539 . S
C275 H289 0.958 . S
C275 H290 0.961 . S
C275 H291 0.960 . S
H276 C260 0.931 . S
H277 C265 0.929 . S
H278 C266 0.960 . S
H279 C266 0.962 . S
H280 C266 0.960 . S
H281 C267 0.961 . S
H282 C267 0.961 . S
H283 C267 0.961 . S
H284 C268 0.931 . S
H285 C273 0.930 . S
H286 C274 0.956 . S
H287 C274 0.961 . S
H288 C274 0.961 . S
H289 C275 0.958 . S
H290 C275 0.961 . S
H291 C275 0.960 . S
C292 C293 1.391 . S
C292 C294 1.394 . S
C292 H308 0.931 . S
C293 C292 1.391 . S
C293 C297 1.376 . S
C294 C292 1.394 . S
C294 C295 1.369 . S
C294 C298 1.531 . S
C295 C294 1.369 . S
C295 C296 1.410 . S
C295 C303 1.503 . S
C296 C295 1.410 . S
C296 C297 1.392 . S
C296 C299 1.511 . S
C297 C293 1.376 . S
C297 C296 1.392 . S
C297 H309 0.929 . S
C298 C294 1.531 . S
C298 H310 0.960 . S
C298 H311 0.962 . S
C298 H312 0.960 . S
C299 C296 1.511 . S
C299 H313 0.961 . S
C299 H314 0.961 . S
C299 H315 0.961 . S
C300 C301 1.370 . S
C300 C302 1.363 . S
C300 H316 0.931 . S
C301 C300 1.370 . S
C301 C305 1.408 . S
C302 C300 1.363 . S
C302 C303 1.370 . S
C302 C306 1.524 . S
C303 C295 1.503 . S
C303 C302 1.370 . S
C303 C304 1.403 . S
C304 C303 1.403 . S
C304 C305 1.404 . S
C304 C307 1.539 . S
C305 C301 1.408 . S
C305 C304 1.404 . S
C305 H317 0.930 . S
C306 C302 1.524 . S
C306 H318 0.956 . S
C306 H319 0.961 . S
C306 H320 0.961 . S
C307 C304 1.539 . S
C307 H321 0.958 . S
C307 H322 0.961 . S
C307 H323 0.960 . S
H308 C292 0.931 . S
H309 C297 0.929 . S
H310 C298 0.960 . S
H311 C298 0.962 . S
H312 C298 0.960 . S
H313 C299 0.961 . S
H314 C299 0.961 . S
H315 C299 0.961 . S
H316 C300 0.931 . S
H317 C305 0.930 . S
H318 C306 0.956 . S
H319 C306 0.961 . S
H320 C306 0.961 . S
H321 C307 0.958 . S
H322 C307 0.961 . S
H323 C307 0.960 . S
C324 C325 1.391 . S
C324 C326 1.394 . S
C324 H340 0.931 . S
C325 C324 1.391 . S
C325 C329 1.376 . S
C326 C324 1.394 . S
C326 C327 1.369 . S
C326 C330 1.531 . S
C327 C326 1.369 . S
C327 C328 1.410 . S
C327 C335 1.503 . S
C328 C327 1.410 . S
C328 C329 1.392 . S
C328 C331 1.511 . S
C329 C325 1.376 . S
C329 C328 1.392 . S
C329 H341 0.929 . S
C330 C326 1.531 . S
C330 H342 0.960 . S
C330 H343 0.962 . S
C330 H344 0.960 . S
C331 C328 1.511 . S
C331 H345 0.961 . S
C331 H346 0.961 . S
C331 H347 0.961 . S
C332 C333 1.370 . S
C332 C334 1.363 . S
C332 H348 0.931 . S
C333 C332 1.370 . S
C333 C337 1.408 . S
C334 C332 1.363 . S
C334 C335 1.370 . S
C334 C338 1.524 . S
C335 C327 1.503 . S
C335 C334 1.370 . S
C335 C336 1.403 . S
C336 C335 1.403 . S
C336 C337 1.404 . S
C336 C339 1.539 . S
C337 C333 1.408 . S
C337 C336 1.404 . S
C337 H349 0.930 . S
C338 C334 1.524 . S
C338 H350 0.956 . S
C338 H351 0.961 . S
C338 H352 0.961 . S
C339 C336 1.539 . S
C339 H353 0.958 . S
C339 H354 0.961 . S
C339 H355 0.960 . S
H340 C324 0.931 . S
H341 C329 0.929 . S
H342 C330 0.960 . S
H343 C330 0.962 . S
H344 C330 0.960 . S
H345 C331 0.961 . S
H346 C331 0.961 . S
H347 C331 0.961 . S
H348 C332 0.931 . S
H349 C337 0.930 . S
H350 C338 0.956 . S
H351 C338 0.961 . S
H352 C338 0.961 . S
H353 C339 0.958 . S
H354 C339 0.961 . S
H355 C339 0.960 . S
C356 C357 1.391 . S
C356 C358 1.394 . S
C356 H372 0.931 . S
C357 C356 1.391 . S
C357 C361 1.376 . S
C358 C356 1.394 . S
C358 C359 1.369 . S
C358 C362 1.531 . S
C359 C358 1.369 . S
C359 C360 1.410 . S
C359 C367 1.503 . S
C360 C359 1.410 . S
C360 C361 1.392 . S
C360 C363 1.511 . S
C361 C357 1.376 . S
C361 C360 1.392 . S
C361 H373 0.929 . S
C362 C358 1.531 . S
C362 H374 0.960 . S
C362 H375 0.962 . S
C362 H376 0.960 . S
C363 C360 1.511 . S
C363 H377 0.961 . S
C363 H378 0.961 . S
C363 H379 0.961 . S
C364 C365 1.370 . S
C364 C366 1.363 . S
C364 H380 0.931 . S
C365 C364 1.370 . S
C365 C369 1.408 . S
C366 C364 1.363 . S
C366 C367 1.370 . S
C366 C370 1.524 . S
C367 C359 1.503 . S
C367 C366 1.370 . S
C367 C368 1.403 . S
C368 C367 1.403 . S
C368 C369 1.404 . S
C368 C371 1.539 . S
C369 C365 1.408 . S
C369 C368 1.404 . S
C369 H381 0.930 . S
C370 C366 1.524 . S
C370 H382 0.956 . S
C370 H383 0.961 . S
C370 H384 0.961 . S
C371 C368 1.539 . S
C371 H385 0.958 . S
C371 H386 0.961 . S
C371 H387 0.960 . S
H372 C356 0.931 . S
H373 C361 0.929 . S
H374 C362 0.960 . S
H375 C362 0.962 . S
H376 C362 0.960 . S
H377 C363 0.961 . S
H378 C363 0.961 . S
H379 C363 0.961 . S
H380 C364 0.931 . S
H381 C369 0.930 . S
H382 C370 0.956 . S
H383 C370 0.961 . S
H384 C370 0.961 . S
H385 C371 0.958 . S
H386 C371 0.961 . S
H387 C371 0.960 . S
C388 C389 1.391 . S
C388 C390 1.394 . S
C388 H404 0.931 . S
C389 C388 1.391 . S
C389 C393 1.376 . S
C390 C388 1.394 . S
C390 C391 1.369 . S
C390 C394 1.531 . S
C391 C390 1.369 . S
C391 C392 1.410 . S
C391 C399 1.503 . S
C392 C391 1.410 . S
C392 C393 1.392 . S
C392 C395 1.511 . S
C393 C389 1.376 . S
C393 C392 1.392 . S
C393 H405 0.929 . S
C394 C390 1.531 . S
C394 H406 0.960 . S
C394 H407 0.962 . S
C394 H408 0.960 . S
C395 C392 1.511 . S
C395 H409 0.961 . S
C395 H410 0.961 . S
C395 H411 0.961 . S
C396 C397 1.370 . S
C396 C398 1.363 . S
C396 H412 0.931 . S
C397 C396 1.370 . S
C397 C401 1.408 . S
C398 C396 1.363 . S
C398 C399 1.370 . S
C398 C402 1.524 . S
C399 C391 1.503 . S
C399 C398 1.370 . S
C399 C400 1.403 . S
C400 C399 1.403 . S
C400 C401 1.404 . S
C400 C403 1.539 . S
C401 C397 1.408 . S
C401 C400 1.404 . S
C401 H413 0.930 . S
C402 C398 1.524 . S
C402 H414 0.956 . S
C402 H415 0.961 . S
C402 H416 0.961 . S
C403 C400 1.539 . S
C403 H417 0.958 . S
C403 H418 0.961 . S
C403 H419 0.960 . S
H404 C388 0.931 . S
H405 C393 0.929 . S
H406 C394 0.960 . S
H407 C394 0.962 . S
H408 C394 0.960 . S
H409 C395 0.961 . S
H410 C395 0.961 . S
H411 C395 0.961 . S
H412 C396 0.931 . S
H413 C401 0.930 . S
H414 C402 0.956 . S
H415 C402 0.961 . S
H416 C402 0.961 . S
H417 C403 0.958 . S
H418 C403 0.961 . S
H419 C403 0.960 . S
C420 C421 1.391 . S
C420 C422 1.394 . S
C420 H436 0.931 . S
C421 C420 1.391 . S
C421 C425 1.376 . S
C422 C420 1.394 . S
C422 C423 1.369 . S
C422 C426 1.531 . S
C423 C422 1.369 . S
C423 C424 1.410 . S
C423 C431 1.503 . S
C424 C423 1.410 . S
C424 C425 1.392 . S
C424 C427 1.511 . S
C425 C421 1.376 . S
C425 C424 1.392 . S
C425 H437 0.929 . S
C426 C422 1.531 . S
C426 H438 0.960 . S
C426 H439 0.962 . S
C426 H440 0.960 . S
C427 C424 1.511 . S
C427 H441 0.961 . S
C427 H442 0.961 . S
C427 H443 0.961 . S
C428 C429 1.370 . S
C428 C430 1.363 . S
C428 H444 0.931 . S
C429 C428 1.370 . S
C429 C433 1.408 . S
C430 C428 1.363 . S
C430 C431 1.370 . S
C430 C434 1.524 . S
C431 C423 1.503 . S
C431 C430 1.370 . S
C431 C432 1.403 . S
C432 C431 1.403 . S
C432 C433 1.404 . S
C432 C435 1.539 . S
C433 C429 1.408 . S
C433 C432 1.404 . S
C433 H445 0.930 . S
C434 C430 1.524 . S
C434 H446 0.956 . S
C434 H447 0.961 . S
C434 H448 0.961 . S
C435 C432 1.539 . S
C435 H449 0.958 . S
C435 H450 0.961 . S
C435 H451 0.960 . S
H436 C420 0.931 . S
H437 C425 0.929 . S
H438 C426 0.960 . S
H439 C426 0.962 . S
H440 C426 0.960 . S
H441 C427 0.961 . S
H442 C427 0.961 . S
H443 C427 0.961 . S
H444 C428 0.931 . S
H445 C433 0.930 . S
H446 C434 0.956 . S
H447 C434 0.961 . S
H448 C434 0.961 . S
H449 C435 0.958 . S
H450 C435 0.961 . S
H451 C435 0.960 . S
C452 C453 1.391 . S
C452 C454 1.394 . S
C452 H468 0.931 . S
C453 C452 1.391 . S
C453 C457 1.376 . S
C454 C452 1.394 . S
C454 C455 1.369 . S
C454 C458 1.531 . S
C455 C454 1.369 . S
C455 C456 1.410 . S
C455 C463 1.503 . S
C456 C455 1.410 . S
C456 C457 1.392 . S
C456 C459 1.511 . S
C457 C453 1.376 . S
C457 C456 1.392 . S
C457 H469 0.929 . S
C458 C454 1.531 . S
C458 H470 0.960 . S
C458 H471 0.962 . S
C458 H472 0.960 . S
C459 C456 1.511 . S
C459 H473 0.961 . S
C459 H474 0.961 . S
C459 H475 0.961 . S
C460 C461 1.370 . S
C460 C462 1.363 . S
C460 H476 0.931 . S
C461 C460 1.370 . S
C461 C465 1.408 . S
C462 C460 1.363 . S
C462 C463 1.370 . S
C462 C466 1.524 . S
C463 C455 1.503 . S
C463 C462 1.370 . S
C463 C464 1.403 . S
C464 C463 1.403 . S
C464 C465 1.404 . S
C464 C467 1.539 . S
C465 C461 1.408 . S
C465 C464 1.404 . S
C465 H477 0.930 . S
C466 C462 1.524 . S
C466 H478 0.956 . S
C466 H479 0.961 . S
C466 H480 0.961 . S
C467 C464 1.539 . S
C467 H481 0.958 . S
C467 H482 0.961 . S
C467 H483 0.960 . S
H468 C452 0.931 . S
H469 C457 0.929 . S
H470 C458 0.960 . S
H471 C458 0.962 . S
H472 C458 0.960 . S
H473 C459 0.961 . S
H474 C459 0.961 . S
H475 C459 0.961 . S
H476 C460 0.931 . S
H477 C465 0.930 . S
H478 C466 0.956 . S
H479 C466 0.961 . S
H480 C466 0.961 . S
H481 C467 0.958 . S
H482 C467 0.961 . S
H483 C467 0.960 . S
C484 C485 1.391 . S
C484 C486 1.394 . S
C484 H500 0.931 . S
C485 C484 1.391 . S
C485 C489 1.376 . S
C486 C484 1.394 . S
C486 C487 1.369 . S
C486 C490 1.531 . S
C487 C486 1.369 . S
C487 C488 1.410 . S
C487 C495 1.503 . S
C488 C487 1.410 . S
C488 C489 1.392 . S
C488 C491 1.511 . S
C489 C485 1.376 . S
C489 C488 1.392 . S
C489 H501 0.929 . S
C490 C486 1.531 . S
C490 H502 0.960 . S
C490 H503 0.962 . S
C490 H504 0.960 . S
C491 C488 1.511 . S
C491 H505 0.961 . S
C491 H506 0.961 . S
C491 H507 0.961 . S
C492 C493 1.370 . S
C492 C494 1.363 . S
C492 H508 0.931 . S
C493 C492 1.370 . S
C493 C497 1.408 . S
C494 C492 1.363 . S
C494 C495 1.370 . S
C494 C498 1.524 . S
C495 C487 1.503 . S
C495 C494 1.370 . S
C495 C496 1.403 . S
C496 C495 1.403 . S
C496 C497 1.404 . S
C496 C499 1.539 . S
C497 C493 1.408 . S
C497 C496 1.404 . S
C497 H509 0.930 . S
C498 C494 1.524 . S
C498 H510 0.956 . S
C498 H511 0.961 . S
C498 H512 0.961 . S
C499 C496 1.539 . S
C499 H513 0.958 . S
C499 H514 0.961 . S
C499 H515 0.960 . S
H500 C484 0.931 . S
H501 C489 0.929 . S
H502 C490 0.960 . S
H503 C490 0.962 . S
H504 C490 0.960 . S
H505 C491 0.961 . S
H506 C491 0.961 . S
H507 C491 0.961 . S
H508 C492 0.931 . S
H509 C497 0.930 . S
H510 C498 0.956 . S
H511 C498 0.961 . S
H512 C498 0.961 . S
H513 C499 0.958 . S
H514 C499 0.961 . S
H515 C499 0.960 . S
C516 C517 1.391 . S
C516 C518 1.394 . S
C516 H532 0.931 . S
C517 C516 1.391 . S
C517 C521 1.376 . S
C518 C516 1.394 . S
C518 C519 1.369 . S
C518 C522 1.531 1_554 S
C519 C518 1.369 . S
C519 C520 1.410 . S
C519 C527 1.503 1_554 S
C520 C519 1.410 . S
C520 C521 1.392 . S
C520 C523 1.511 . S
C521 C517 1.376 . S
C521 C520 1.392 . S
C521 H533 0.929 . S
C522 C518 1.531 1_556 S
C522 H534 0.960 . S
C522 H535 0.962 . S
C522 H536 0.960 1_556 S
C523 C520 1.511 . S
C523 H537 0.961 . S
C523 H538 0.961 . S
C523 H539 0.961 . S
C524 C525 1.370 . S
C524 C526 1.363 . S
C524 H540 0.931 . S
C525 C524 1.370 . S
C525 C529 1.408 . S
C526 C524 1.363 . S
C526 C527 1.370 . S
C526 C530 1.539 . S
C527 C519 1.503 1_556 S
C527 C526 1.370 . S
C527 C528 1.403 . S
C528 C527 1.403 . S
C528 C529 1.404 . S
C528 C531 1.539 . S
C529 C525 1.408 . S
C529 C528 1.404 . S
C529 H541 0.930 . S
C530 C526 1.539 . S
C530 H542 0.951 1_556 S
C530 H543 0.942 1_556 S
C530 H544 0.969 . S
C531 C528 1.539 . S
C531 H545 0.958 . S
C531 H546 0.961 . S
C531 H547 0.960 . S
H532 C516 0.931 . S
H533 C521 0.929 . S
H534 C522 0.960 . S
H535 C522 0.962 . S
H536 C522 0.960 1_554 S
H537 C523 0.961 . S
H538 C523 0.961 . S
H539 C523 0.961 . S
H540 C524 0.931 . S
H541 C529 0.930 . S
H542 C530 0.951 1_554 S
H543 C530 0.942 1_554 S
H544 C530 0.969 . S
H545 C531 0.958 . S
H546 C531 0.961 . S
H547 C531 0.960 . S
C548 C549 1.391 . S
C548 C550 1.394 . S
C548 H564 0.931 . S
C549 C548 1.391 . S
C549 C553 1.376 1_455 S
C550 C548 1.394 . S
C550 C551 1.369 . S
C550 C554 1.531 . S
C551 C550 1.369 . S
C551 C552 1.410 1_455 S
C551 C559 1.503 1_455 S
C552 C551 1.410 1_655 S
C552 C553 1.392 . S
C552 C555 1.511 . S
C553 C549 1.376 1_655 S
C553 C552 1.392 . S
C553 H565 0.929 . S
C554 C550 1.531 . S
C554 H566 0.960 . S
C554 H567 0.962 . S
C554 H568 0.960 . S
C555 C552 1.511 . S
C555 H569 0.961 . S
C555 H570 0.961 . S
C555 H571 0.961 . S
C556 C557 1.370 . S
C556 C558 1.363 . S
C556 H572 0.931 . S
C557 C556 1.370 . S
C557 C561 1.408 . S
C558 C556 1.363 . S
C558 C559 1.370 . S
C558 C562 1.524 . S
C559 C551 1.503 1_655 S
C559 C558 1.370 . S
C559 C560 1.403 . S
C560 C559 1.403 . S
C560 C561 1.404 . S
C560 C563 1.539 . S
C561 C557 1.408 . S
C561 C560 1.404 . S
C561 H573 0.930 . S
C562 C558 1.524 . S
C562 H574 0.956 1_655 S
C562 H575 0.961 . S
C562 H576 0.961 . S
C563 C560 1.539 . S
C563 H577 0.958 1_655 S
C563 H578 0.961 . S
C563 H579 0.960 . S
H564 C548 0.931 . S
H565 C553 0.929 . S
H566 C554 0.960 . S
H567 C554 0.962 . S
H568 C554 0.960 . S
H569 C555 0.961 . S
H570 C555 0.961 . S
H571 C555 0.961 . S
H572 C556 0.931 . S
H573 C561 0.930 . S
H574 C562 0.956 1_455 S
H575 C562 0.961 . S
H576 C562 0.961 . S
H577 C563 0.958 1_455 S
H578 C563 0.961 . S
H579 C563 0.960 . S
C580 C581 1.391 . S
C580 C582 1.394 . S
C580 H596 0.931 . S
C581 C580 1.391 . S
C581 C585 1.376 . S
C582 C580 1.394 . S
C582 C583 1.369 . S
C582 C586 1.531 . S
C583 C582 1.369 . S
C583 C584 1.410 . S
C583 C591 1.503 1_546 S
C584 C583 1.410 . S
C584 C585 1.392 . S
C584 C587 1.511 1_545 S
C585 C581 1.376 . S
C585 C584 1.392 . S
C585 H597 0.929 . S
C586 C582 1.531 . S
C586 H598 0.960 1_556 S
C586 H599 0.962 . S
C586 H600 0.960 . S
C587 C584 1.511 1_565 S
C587 H601 0.961 . S
C587 H602 0.961 . S
C587 H603 0.961 . S
C588 C589 1.370 . S
C588 C590 1.363 . S
C588 H604 0.931 . S
C589 C588 1.370 . S
C589 C593 1.395 1_565 S
C590 C588 1.363 . S
C590 C591 1.370 . S
C590 C594 1.524 1_554 S
C591 C583 1.503 1_564 S
C591 C590 1.370 . S
C591 C592 1.403 1_565 S
C592 C591 1.403 1_545 S
C592 C593 1.409 . S
C592 C595 1.539 . S
C593 C589 1.395 1_545 S
C593 C592 1.409 . S
C593 H605 0.938 . S
C594 C590 1.524 1_556 S
C594 H606 0.956 . S
C594 H607 0.961 . S
C594 H608 0.961 1_556 S
C595 C592 1.539 . S
C595 H609 0.958 . S
C595 H610 0.961 . S
C595 H611 0.960 . S
H596 C580 0.931 . S
H597 C585 0.929 . S
H598 C586 0.960 1_554 S
H599 C586 0.962 . S
H600 C586 0.960 . S
H601 C587 0.961 . S
H602 C587 0.961 . S
H603 C587 0.961 . S
H604 C588 0.931 . S
H605 C593 0.938 . S
H606 C594 0.956 . S
H607 C594 0.961 . S
H608 C594 0.961 1_554 S
H609 C595 0.958 . S
H610 C595 0.961 . S
H611 C595 0.960 . S
C612 C613 1.391 . S
C612 C614 1.394 . S
C612 H628 0.931 . S
C613 C612 1.391 . S
C613 C617 1.376 . S
C614 C612 1.394 . S
C614 C615 1.369 . S
C614 C618 1.531 . S
C615 C614 1.369 . S
C615 C616 1.410 . S
C615 C623 1.503 . S
C616 C615 1.410 . S
C616 C617 1.392 . S
C616 C619 1.511 . S
C617 C613 1.376 . S
C617 C616 1.392 . S
C617 H629 0.929 . S
C618 C614 1.531 . S
C618 H630 0.960 . S
C618 H631 0.962 . S
C618 H632 0.960 . S
C619 C616 1.511 . S
C619 H633 0.961 . S
C619 H634 0.961 . S
C619 H635 0.961 . S
C620 C621 1.370 . S
C620 C622 1.363 . S
C620 H636 0.931 . S
C621 C620 1.370 . S
C621 C625 1.408 . S
C622 C620 1.363 . S
C622 C623 1.370 . S
C622 C626 1.524 . S
C623 C615 1.503 . S
C623 C622 1.370 . S
C623 C624 1.403 . S
C624 C623 1.403 . S
C624 C625 1.404 . S
C624 C627 1.539 . S
C625 C621 1.408 . S
C625 C624 1.404 . S
C625 H637 0.930 . S
C626 C622 1.524 . S
C626 H638 0.956 . S
C626 H639 0.961 . S
C626 H640 0.961 . S
C627 C624 1.539 . S
C627 H641 0.958 . S
C627 H642 0.961 . S
C627 H643 0.960 . S
H628 C612 0.931 . S
H629 C617 0.929 . S
H630 C618 0.960 . S
H631 C618 0.962 . S
H632 C618 0.960 . S
H633 C619 0.961 . S
H634 C619 0.961 . S
H635 C619 0.961 . S
H636 C620 0.931 . S
H637 C625 0.930 . S
H638 C626 0.956 . S
H639 C626 0.961 . S
H640 C626 0.961 . S
H641 C627 0.958 . S
H642 C627 0.961 . S
H643 C627 0.960 . S
C644 C645 1.391 . S
C644 C646 1.394 1_455 S
C644 H660 0.931 . S
C645 C644 1.391 . S
C645 C649 1.376 . S
C646 C644 1.394 1_655 S
C646 C647 1.369 1_655 S
C646 C650 1.531 . S
C647 C646 1.369 1_455 S
C647 C648 1.410 . S
C647 C655 1.503 1_454 S
C648 C647 1.410 . S
C648 C649 1.392 . S
C648 C651 1.511 . S
C649 C645 1.376 . S
C649 C648 1.392 . S
C649 H661 0.929 . S
C650 C646 1.531 . S
C650 H662 0.960 . S
C650 H663 0.962 . S
C650 H664 0.960 . S
C651 C648 1.511 . S
C651 H665 0.961 . S
C651 H666 0.961 1_554 S
C651 H667 0.961 . S
C652 C653 1.370 . S
C652 C654 1.363 1_655 S
C652 H668 0.931 1_655 S
C653 C652 1.370 . S
C653 C657 1.408 . S
C654 C652 1.363 1_455 S
C654 C655 1.370 1_455 S
C654 C658 1.524 . S
C655 C647 1.503 1_656 S
C655 C654 1.370 1_655 S
C655 C656 1.403 . S
C656 C655 1.403 . S
C656 C657 1.404 . S
C656 C659 1.539 1_556 S
C657 C653 1.408 . S
C657 C656 1.404 . S
C657 H669 0.930 . S
C658 C654 1.524 . S
C658 H670 0.956 . S
C658 H671 0.961 . S
C658 H672 0.961 . S
C659 C656 1.539 1_554 S
C659 H673 0.958 . S
C659 H674 0.961 1_554 S
C659 H675 0.960 . S
H660 C644 0.931 . S
H661 C649 0.929 . S
H662 C650 0.960 . S
H663 C650 0.962 . S
H664 C650 0.960 . S
H665 C651 0.961 . S
H666 C651 0.961 1_556 S
H667 C651 0.961 . S
H668 C652 0.931 1_455 S
H669 C657 0.930 . S
H670 C658 0.956 . S
H671 C658 0.961 . S
H672 C658 0.961 . S
H673 C659 0.958 . S
H674 C659 0.961 1_556 S
H675 C659 0.960 . S
C676 C677 1.391 . S
C676 C678 1.394 1_565 S
C676 H692 0.931 1_565 S
C677 C676 1.391 . S
C677 C681 1.376 . S
C678 C676 1.394 1_545 S
C678 C679 1.369 1_545 S
C678 C682 1.531 . S
C679 C678 1.369 1_565 S
C679 C680 1.410 . S
C679 C687 1.503 1_565 S
C680 C679 1.410 . S
C680 C681 1.392 . S
C680 C683 1.511 . S
C681 C677 1.376 . S
C681 C680 1.392 . S
C681 H693 0.929 . S
C682 C678 1.531 . S
C682 H694 0.960 . S
C682 H695 0.962 . S
C682 H696 0.960 . S
C683 C680 1.511 . S
C683 H697 0.961 . S
C683 H698 0.961 . S
C683 H699 0.961 . S
C684 C685 1.370 . S
C684 C686 1.363 1_545 S
C684 H700 0.931 1_545 S
C685 C684 1.370 . S
C685 C689 1.408 . S
C686 C684 1.363 1_565 S
C686 C687 1.370 1_565 S
C686 C690 1.524 . S
C687 C679 1.503 1_545 S
C687 C686 1.370 1_545 S
C687 C688 1.403 . S
C688 C687 1.403 . S
C688 C689 1.404 . S
C688 C691 1.539 . S
C689 C685 1.408 . S
C689 C688 1.404 . S
C689 H701 0.930 . S
C690 C686 1.524 . S
C690 H702 0.956 . S
C690 H703 0.961 . S
C690 H704 0.961 . S
C691 C688 1.539 . S
C691 H705 0.958 . S
C691 H706 0.961 . S
C691 H707 0.960 . S
H692 C676 0.931 1_545 S
H693 C681 0.929 . S
H694 C682 0.960 . S
H695 C682 0.962 . S
H696 C682 0.960 . S
H697 C683 0.961 . S
H698 C683 0.961 . S
H699 C683 0.961 . S
H700 C684 0.931 1_565 S
H701 C689 0.930 . S
H702 C690 0.956 . S
H703 C690 0.961 . S
H704 C690 0.961 . S
H705 C691 0.958 . S
H706 C691 0.961 . S
H707 C691 0.960 . S
C133 C5 1.378 . S
C141 C115 1.403 . S
C165 C126 1.385 . S
C173 C16 1.427 . S
C197 C71 1.362 . S
C205 C27 1.412 . S
C229 C38 1.362 . S
C237 C82 1.428 . S
C261 C93 1.448 . S
C269 C49 1.389 . S
C293 C104 1.395 . S
C301 C60 1.396 . S
C325 C7 1.516 . S
C333 C73 1.520 . S
C357 C18 1.545 . S
C365 C84 1.530 . S
C389 C29 1.503 . S
C397 C95 1.524 . S
C421 C106 1.534 . S
C429 C40 1.539 . S
C453 C51 1.539 . S
C461 C117 1.527 . S
C485 C62 1.510 . S
C493 C128 1.520 . S
C517 C8 1.572 . S
C525 C107 1.575 . S
C549 C118 1.570 . S
C557 C19 1.576 . S
C581 C129 1.573 . S
C589 C30 1.575 . S
C613 C41 1.569 . S
C621 C74 1.576 . S
C645 C52 1.571 . S
C653 C85 1.577 . S
C677 C96 1.572 . S
C685 C63 1.577 . S
