# Generated by pormake.
# Topology ecf, (8)-cn, num edge types: 1
# Building blocks:
#     Node 0, Type 0, BuildingBlock: LIZSOE_clean_sbu_0, # of connection points: 8
#     Node 1, Type 0, BuildingBlock: LIZSOE_clean_sbu_0, # of connection points: 8
#     Node 2, Type 0, BuildingBlock: LIZSOE_clean_sbu_0, # of connection points: 8
#     Node 3, Type 0, BuildingBlock: LIZSOE_clean_sbu_0, # of connection points: 8
#     Node 4, Type 0, BuildingBlock: LIZSOE_clean_sbu_0, # of connection points: 8
#     Node 5, Type 0, BuildingBlock: LIZSOE_clean_sbu_0, # of connection points: 8
#     Edge 6, Type (0, 0), BuildingBlock: EZIPEK_clean_linker_0, # of connection points: 2
#     Edge 7, Type (0, 0), BuildingBlock: EZIPEK_clean_linker_0, # of connection points: 2
#     Edge 8, Type (0, 0), BuildingBlock: EZIPEK_clean_linker_0, # of connection points: 2
#     Edge 9, Type (0, 0), BuildingBlock: EZIPEK_clean_linker_0, # of connection points: 2
#     Edge 10, Type (0, 0), BuildingBlock: EZIPEK_clean_linker_0, # of connection points: 2
#     Edge 11, Type (0, 0), BuildingBlock: EZIPEK_clean_linker_0, # of connection points: 2
#     Edge 12, Type (0, 0), BuildingBlock: EZIPEK_clean_linker_0, # of connection points: 2
#     Edge 13, Type (0, 0), BuildingBlock: EZIPEK_clean_linker_0, # of connection points: 2
#     Edge 14, Type (0, 0), BuildingBlock: EZIPEK_clean_linker_0, # of connection points: 2
#     Edge 15, Type (0, 0), BuildingBlock: EZIPEK_clean_linker_0, # of connection points: 2
#     Edge 16, Type (0, 0), BuildingBlock: EZIPEK_clean_linker_0, # of connection points: 2
#     Edge 17, Type (0, 0), BuildingBlock: EZIPEK_clean_linker_0, # of connection points: 2
#     Edge 18, Type (0, 0), BuildingBlock: EZIPEK_clean_linker_0, # of connection points: 2
#     Edge 19, Type (0, 0), BuildingBlock: EZIPEK_clean_linker_0, # of connection points: 2
#     Edge 20, Type (0, 0), BuildingBlock: EZIPEK_clean_linker_0, # of connection points: 2
#     Edge 21, Type (0, 0), BuildingBlock: EZIPEK_clean_linker_0, # of connection points: 2
#     Edge 22, Type (0, 0), BuildingBlock: EZIPEK_clean_linker_0, # of connection points: 2
#     Edge 23, Type (0, 0), BuildingBlock: EZIPEK_clean_linker_0, # of connection points: 2
#     Edge 24, Type (0, 0), BuildingBlock: EZIPEK_clean_linker_0, # of connection points: 2
#     Edge 25, Type (0, 0), BuildingBlock: EZIPEK_clean_linker_0, # of connection points: 2
#     Edge 26, Type (0, 0), BuildingBlock: EZIPEK_clean_linker_0, # of connection points: 2
#     Edge 27, Type (0, 0), BuildingBlock: EZIPEK_clean_linker_0, # of connection points: 2
#     Edge 28, Type (0, 0), BuildingBlock: EZIPEK_clean_linker_0, # of connection points: 2
#     Edge 29, Type (0, 0), BuildingBlock: EZIPEK_clean_linker_0, # of connection points: 2
# Relax obj value: 0.291
# Max RMSD: 0.208
# Mean RMSD: 0.204
data_MOF--net-ecf--node1-LIZSOE_clean_sbu_0--edge1-EZIPEK_clean_linker_0
_symmetry_space_group_name_H-M    P1
_symmetry_Int_Tables_number       1
_symmetry_cell_setting            triclinic
loop_
_symmetry_equiv_pos_as_xyz
'x, y, z'
_cell_length_a     29.738348
_cell_length_b     29.424467
_cell_length_c     15.888468
_cell_angle_alpha  89.793707
_cell_angle_beta   89.592913
_cell_angle_gamma 120.79259
loop_
_atom_site_label
_atom_site_type_symbol
_atom_site_fract_x
_atom_site_fract_y
_atom_site_fract_z
_atom_type_partial_charge
Co0 Co 0.05015 0.27274 0.31767 0.0
N1 N 0.98779 0.22063 0.27754 0.0
C2 C 0.98817 0.18934 0.2161 0.0
N3 N 0.90788 0.15121 0.26267 0.0
C4 C 0.93713 0.19784 0.30139 0.0
C5 C 0.93961 0.14707 0.20678 0.0
Co6 Co 0.30333 0.42494 0.25341 0.0
N7 N 0.36852 0.48251 0.27854 0.0
N8 N 0.4395 0.56236 0.29908 0.0
C9 C 0.44552 0.52662 0.34246 0.0
C10 C 0.40206 0.47765 0.32935 0.0
C11 C 0.39302 0.53491 0.25976 0.0
Co12 Co 0.17448 0.34948 0.27936 0.0
C13 C 0.27027 0.38492 0.14703 0.0
H14 H 0.39489 0.44069 0.35632 0.0
O15 O 0.10786 0.32427 0.35604 0.0
O16 O 0.19288 0.42209 0.30812 0.0
O17 O 0.14035 0.35597 0.16742 0.0
O18 O 0.15542 0.27763 0.24934 0.0
O19 O 0.0773 0.22738 0.30997 0.0
O20 O 0.27448 0.46921 0.26011 0.0
O21 O 0.24426 0.3706 0.21935 0.0
O22 O 0.2924 0.40701 0.37089 0.0
O23 O 0.06337 0.29462 0.20869 0.0
O24 O 1.03124 0.32009 0.32859 0.0
O25 O 0.20929 0.34127 0.3853 0.0
O26 O 0.30973 0.43347 0.14232 0.0
C27 C 0.09161 0.32455 0.15081 0.0
C28 C 0.37154 0.56004 0.20301 0.0
H29 H 0.34574 0.53206 0.15455 0.0
H30 H 0.3486 0.57266 0.24147 0.0
H31 H 0.40372 0.59576 0.17147 0.0
C32 C 0.23241 0.46563 0.28592 0.0
C33 C 0.11886 0.23368 0.2762 0.0
H34 H 1.02283 0.19416 0.18598 0.0
H35 H 0.89439 0.19003 0.41538 0.0
H36 H 0.88609 0.22601 0.33316 0.0
H37 H 0.94611 0.25719 0.39104 0.0
C38 C 0.91551 0.21943 0.36459 0.0
C39 C 0.07115 0.33543 0.37736 0.0
C40 C 0.25689 0.3673 0.41173 0.0
H41 H 0.92981 0.11229 0.17001 0.0
H42 H 0.47905 0.53544 0.38053 0.0
Co43 Co 0.85856 0.05862 0.72758 0.0
N44 N 0.83356 0.99019 0.70747 0.0
C45 C 0.78995 0.94626 0.73495 0.0
N46 N 0.84414 0.92205 0.68725 0.0
C47 C 0.86413 0.97394 0.6738 0.0
C48 C 0.79684 0.90407 0.72353 0.0
Co49 Co 0.86359 0.28403 0.78679 0.0
N50 N 0.89558 0.35918 0.77728 0.0
N51 N 0.90674 0.44135 0.76489 0.0
C52 C 0.95312 0.44472 0.75134 0.0
C53 C 0.94625 0.39467 0.75903 0.0
C54 C 0.87264 0.38913 0.78139 0.0
Co55 Co 0.85287 0.16407 0.77207 0.0
C56 C 0.79112 0.22102 0.75133 0.0
H57 H 0.97627 0.38469 0.75016 0.0
O58 O 0.88588 0.12269 0.74917 0.0
O59 O 0.91247 0.21072 0.85566 0.0
O60 O 0.80806 0.11047 0.86873 0.0
O61 O 0.79325 0.11727 0.68635 0.0
O62 O 0.81367 0.05633 0.65352 0.0
O63 O 0.91971 0.29098 0.85672 0.0
O64 O 0.82337 0.2115 0.79378 0.0
O65 O 0.90383 0.28701 0.68828 0.0
O66 O 0.80891 0.04063 0.81601 0.0
O67 O 0.90652 0.06541 0.80221 0.0
O68 O 0.89886 0.21043 0.67659 0.0
O69 O 0.80865 0.26912 0.72388 0.0
C70 C 0.79332 0.06027 0.87214 0.0
C71 C 0.81567 0.36649 0.80047 0.0
H72 H 0.79367 0.35497 0.74062 0.0
H73 H 0.80075 0.33084 0.84109 0.0
H74 H 0.80877 0.39603 0.83184 0.0
C75 C 0.93583 0.25987 0.87939 0.0
C76 C 0.78627 0.07685 0.64243 0.0
H77 H 0.75831 0.94558 0.76991 0.0
H78 H 0.9335 0.99062 0.60258 0.0
H79 H 0.9454 0.03009 0.69479 0.0
H80 H 0.91817 0.04253 0.60269 0.0
C81 C 0.91846 1.01131 0.64132 0.0
C82 C 0.91538 0.11326 0.79669 0.0
C83 C 0.91668 0.25755 0.64972 0.0
H84 H 0.7726 0.86506 0.75079 0.0
H85 H 0.98937 0.48085 0.73613 0.0
Co86 Co 0.81023 0.85184 0.32142 0.0
N87 N 0.87995 0.89213 0.30395 0.0
C88 C 0.91366 0.93835 0.34161 0.0
N89 N 0.9608 0.91556 0.26695 0.0
C90 C 0.90977 0.87977 0.25719 0.0
C91 C 0.96351 0.95292 0.31844 0.0
Co92 Co 0.62746 0.89105 0.23466 0.0
N93 N 0.56897 0.89508 0.25659 0.0
N94 N 0.48969 0.8838 0.27736 0.0
C95 C 0.52491 0.93132 0.30778 0.0
C96 C 0.57358 0.93823 0.29461 0.0
C97 C 0.51698 0.86255 0.24567 0.0
Co98 Co 0.71101 0.85068 0.27371 0.0
C99 C 0.66523 0.89204 0.12891 0.0
H100 H 0.61031 0.97263 0.31216 0.0
O101 O 0.74192 0.81147 0.34691 0.0
O102 O 0.64221 0.79002 0.30721 0.0
O103 O 0.7152 0.80915 0.17531 0.0
O104 O 0.77421 0.91136 0.22806 0.0
O105 O 0.81335 0.91669 0.33859 0.0
O106 O 0.58939 0.81724 0.26048 0.0
O107 O 0.68267 0.88993 0.20446 0.0
O108 O 0.64786 0.91042 0.34785 0.0
O109 O 0.80015 0.84315 0.19959 0.0
O110 O 0.81489 0.85359 0.4273 0.0
O111 O 0.71212 0.89472 0.37615 0.0
O112 O 0.61592 0.87761 0.12404 0.0
C113 C 0.75951 0.8136 0.15587 0.0
C114 C 0.49239 0.80966 0.20366 0.0
H115 H 0.48325 0.77876 0.25205 0.0
H116 H 0.45517 0.8002 0.17314 0.0
H117 H 0.51917 0.80858 0.15598 0.0
C118 C 0.59695 0.78161 0.29024 0.0
C119 C 0.80506 0.94013 0.28176 0.0
H120 H 0.90326 0.95799 0.38859 0.0
H121 H 0.91636 0.81259 0.21868 0.0
H122 H 0.88563 0.83386 0.14484 0.0
H123 H 0.85041 0.79781 0.23811 0.0
C124 C 0.88929 0.82784 0.21286 0.0
C125 C 0.76755 0.81535 0.4186 0.0
C126 C 0.6852 0.91673 0.39416 0.0
H127 H 0.99904 0.98449 0.34578 0.0
H128 H 0.51588 0.95908 0.33645 0.0
Co129 Co 1.01628 0.80494 0.79157 0.0
N130 N 0.08763 0.84222 0.81525 0.0
C131 C 0.12559 0.83175 0.79581 0.0
N132 N 0.16623 0.914 0.84078 0.0
C133 C 0.1139 0.89246 0.84509 0.0
C134 C 0.1739 0.87545 0.81256 0.0
Co135 Co 0.78212 0.60729 0.79707 0.0
N136 N 0.70712 0.56584 0.797 0.0
N137 N 0.62397 0.49507 0.80544 0.0
C138 C 0.62205 0.53857 0.78541 0.0
C139 C 0.67264 0.58159 0.78067 0.0
C140 C 0.67606 0.51282 0.81249 0.0
Co141 Co 0.90476 0.71415 0.7811 0.0
C142 C 0.84016 0.59414 0.75137 0.0
H143 H 0.6834 0.62171 0.76523 0.0
O144 O 0.95394 0.78493 0.76879 0.0
O145 O 0.86215 0.72975 0.86781 0.0
O146 O 0.95266 0.71603 0.87973 0.0
O147 O 0.95325 0.70573 0.69187 0.0
O148 O 1.02563 0.78946 0.68385 0.0
O149 O 0.78101 0.65749 0.87411 0.0
O150 O 0.85238 0.6366 0.79541 0.0
O151 O 0.781 0.6503 0.70165 0.0
O152 O 0.99971 0.80415 0.90215 0.0
O153 O 1.01611 0.86631 0.75798 0.0
O154 O 0.86143 0.72069 0.68554 0.0
O155 O 0.7916 0.56463 0.72795 0.0
C156 C 0.98645 0.75695 0.92419 0.0
C157 C 0.69743 0.47793 0.83347 0.0
H158 H 0.73698 0.50141 0.86121 0.0
H159 H 0.67076 0.44601 0.8778 0.0
H160 H 0.70045 0.4592 0.77489 0.0
C161 C 0.81472 0.70443 0.89801 0.0
C162 C 0.99844 0.7416 0.65733 0.0
H163 H 0.11911 0.79604 0.767 0.0
H164 H 0.08905 0.94805 0.8187 0.0
H165 H 0.11062 0.95183 0.92294 0.0
H166 H 0.04862 0.8984 0.89689 0.0
C167 C 0.0888 0.92372 0.87245 0.0
C168 C 0.96737 0.83242 0.75276 0.0
C169 C 0.81275 0.69418 0.66445 0.0
H170 H 0.21167 0.88014 0.79781 0.0
H171 H 0.58649 0.53904 0.77357 0.0
Co172 Co 0.16828 0.75458 0.2341 0.0
N173 N 0.15992 0.68816 0.24861 0.0
C174 C 0.11732 0.64878 0.28812 0.0
N175 N 0.1696 0.61794 0.26393 0.0
C176 C 0.19095 0.66771 0.23313 0.0
C177 C 0.12329 0.60577 0.29812 0.0
Co178 Co 0.22762 0.98207 0.34216 0.0
N179 N 0.1916 1.01743 0.3353 0.0
N180 N 0.15777 0.06764 0.30757 0.0
C181 C 0.12686 0.0319 0.36536 0.0
C182 C 0.14806 1.00184 0.38337 0.0
C183 C 0.19705 0.05895 0.29035 0.0
Co184 Co 0.21822 0.88157 0.27858 0.0
C185 C 0.25717 0.96784 0.43189 0.0
H186 H 0.1327 0.97076 0.43053 0.0
O187 O 0.17523 0.81477 0.21045 0.0
O188 O 0.26583 0.92929 0.18408 0.0
O189 O 0.27086 0.86368 0.31404 0.0
O190 O 0.16908 0.83706 0.37588 0.0
O191 O 0.15625 0.75627 0.35184 0.0
O192 O 0.24567 0.99102 0.21697 0.0
O193 O 0.26083 0.94897 0.35693 0.0
O194 O 0.1619 0.92151 0.34453 0.0
O195 O 0.24085 0.78652 0.24871 0.0
O196 O 0.1743 0.75642 0.12139 0.0
O197 O 0.16592 0.89438 0.22656 0.0
O198 O 0.21744 0.97242 0.45059 0.0
C199 C 0.27685 0.82686 0.28541 0.0
C200 C 0.24368 0.09587 0.23719 0.0
H201 H 0.27124 0.08191 0.22758 0.0
H202 H 0.23024 0.10184 0.17545 0.0
H203 H 0.2648 0.1351 0.26796 0.0
C204 C 0.26972 0.97453 0.16851 0.0
C205 C 0.14831 0.78765 0.39577 0.0
H206 H 0.0846 0.65178 0.31076 0.0
H207 H 0.24372 0.72484 0.14122 0.0
H208 H 0.25144 0.66833 0.15603 0.0
H209 H 0.27416 0.7184 0.23502 0.0
C210 C 0.2429 0.6965 0.18826 0.0
C211 C 0.16443 0.79432 0.13478 0.0
C212 C 0.14041 0.90355 0.27694 0.0
H213 H 0.09639 0.56883 0.32961 0.0
H214 H 0.09387 0.03069 0.39694 0.0
Co215 Co 0.23406 0.19363 0.81066 0.0
N216 N 0.19189 0.21947 0.83692 0.0
C217 C 0.20922 0.27076 0.85406 0.0
N218 N 0.12408 0.22934 0.8649 0.0
C219 C 0.13977 0.19503 0.84427 0.0
C220 C 0.16767 0.27695 0.87091 0.0
Co221 Co 0.46267 0.20592 0.77427 0.0
N222 N 0.51038 0.18229 0.76203 0.0
N223 N 0.58161 0.17291 0.75719 0.0
C224 C 0.57394 0.18725 0.68058 0.0
C225 C 0.53105 0.19271 0.68377 0.0
C226 C 0.54156 0.16929 0.80595 0.0
Co227 Co 0.34964 0.20566 0.78973 0.0
C228 C 0.46943 0.27407 0.82324 0.0
H229 H 0.51764 0.20727 0.633 0.0
O230 O 0.27237 0.16816 0.79365 0.0
O231 O 0.34743 0.15452 0.87933 0.0
O232 O 0.35721 0.25806 0.88452 0.0
O233 O 0.34711 0.25646 0.69912 0.0
O234 O 0.26998 0.24896 0.73312 0.0
O235 O 0.42395 0.15673 0.86988 0.0
O236 O 0.42777 0.24018 0.78073 0.0
O237 O 0.41687 0.15258 0.69881 0.0
O238 O 0.27371 0.23322 0.89776 0.0
O239 O 0.20225 0.13589 0.87871 0.0
O240 O 0.34159 0.15255 0.69758 0.0
O241 O 0.50253 0.2593 0.84336 0.0
C242 C 0.31972 0.25982 0.92311 0.0
C243 C 0.53301 0.15444 0.89735 0.0
H244 H 0.49264 0.12043 0.90688 0.0
H245 H 0.5615 0.14366 0.92037 0.0
H246 H 0.53626 0.1879 0.93435 0.0
C247 C 0.37824 0.13851 0.90355 0.0
C248 C 0.31124 0.26907 0.68767 0.0
H249 H 0.24958 0.30213 0.85185 0.0
H250 H 0.12242 0.12323 0.78118 0.0
H251 H 0.06524 0.12781 0.8055 0.0
H252 H 0.09827 0.11492 0.88761 0.0
C253 C 0.10419 0.13706 0.8279 0.0
C254 C 0.23857 0.13039 0.84211 0.0
C255 C 0.37037 0.13367 0.6727 0.0
H256 H 0.16925 0.31399 0.87888 0.0
H257 H 0.59958 0.196 0.62651 0.0
C258 C 0.2083 0.52005 0.19885 0.0
C259 C 0.22546 0.51146 0.2773 0.0
C260 C 0.21543 0.58125 0.34134 0.0
C261 C 0.19217 0.58495 0.26622 0.0
N262 N 0.16277 0.55701 0.12543 0.0
N263 N 0.2446 0.53164 0.42399 0.0
C264 C 0.18811 0.55448 0.19508 0.0
C265 C 0.22926 0.54177 0.3488 0.0
N266 N 0.21114 0.49507 0.12829 0.0
N267 N 0.22461 0.61609 0.40475 0.0
H268 H 0.25713 0.50452 0.43017 0.0
H269 H 0.2428 0.54817 0.48079 0.0
H270 H 0.21457 0.6452 0.4002 0.0
H271 H 0.24544 0.6189 0.45876 0.0
H272 H 0.20386 0.50334 0.06787 0.0
H273 H 0.22474 0.46868 0.12896 0.0
H274 H 0.15314 0.53175 0.07435 0.0
H275 H 0.14829 0.58259 0.12105 0.0
C276 C 0.64271 0.14231 0.72005 0.0
C277 C 0.62833 0.17044 0.77609 0.0
C278 C 0.71541 0.2081 0.83929 0.0
C279 C 0.73337 0.19106 0.76984 0.0
N280 N 0.71339 0.14807 0.63509 0.0
N281 N 0.65831 0.24046 0.87848 0.0
C282 C 0.69664 0.15899 0.70818 0.0
C283 C 0.66619 0.20537 0.83446 0.0
N284 N 0.60483 0.10135 0.67519 0.0
N285 N 0.74659 0.22989 0.90765 0.0
H286 H 0.62569 0.24421 0.87041 0.0
H287 H 0.68717 0.27009 0.91547 0.0
H288 H 0.78311 0.23325 0.91272 0.0
H289 H 0.73369 0.23961 0.96215 0.0
H290 H 0.61251 0.07726 0.63712 0.0
H291 H 0.56522 0.08862 0.68355 0.0
H292 H 0.68855 0.1285 0.585 0.0
H293 H 0.75292 0.16331 0.62168 0.0
C294 C 0.51664 0.63724 0.23209 0.0
C295 C 0.47675 0.61811 0.29416 0.0
C296 C 0.5138 0.70703 0.35294 0.0
C297 C 0.55337 0.72623 0.28979 0.0
N298 N 0.58597 0.71322 0.15797 0.0
N299 N 0.43139 0.63333 0.40572 0.0
C300 C 0.55295 0.69233 0.226 0.0
C301 C 0.47346 0.65275 0.35217 0.0
N302 N 0.52008 0.60225 0.18005 0.0
N303 N 0.51585 0.74034 0.41455 0.0
H304 H 0.40217 0.59342 0.40714 0.0
H305 H 0.42358 0.65678 0.44487 0.0
H306 H 0.54433 0.78049 0.41531 0.0
H307 H 0.49114 0.72807 0.46699 0.0
H308 H 0.55166 0.61255 0.13972 0.0
H309 H 0.49258 0.56181 0.18112 0.0
H310 H 0.58444 0.69132 0.10563 0.0
H311 H 0.61199 0.7537 0.14996 0.0
C312 C 0.89318 0.5063 0.68365 0.0
C313 C 0.89683 0.48507 0.76198 0.0
C314 C 0.87392 0.54421 0.83565 0.0
C315 C 0.87075 0.56623 0.75708 0.0
N316 N 0.88784 0.57576 0.60827 0.0
N317 N 0.90348 0.49254 0.91199 0.0
C318 C 0.88397 0.54965 0.68171 0.0
C319 C 0.89146 0.5071 0.83771 0.0
N320 N 0.89632 0.48335 0.61107 0.0
N321 N 0.8566 0.5555 0.90807 0.0
H322 H 0.91539 0.46481 0.9151 0.0
H323 H 0.90608 0.51109 0.96895 0.0
H324 H 0.84379 0.58238 0.91123 0.0
H325 H 0.85138 0.53531 0.96463 0.0
H326 H 0.88896 0.493 0.5517 0.0
H327 H 0.90286 0.45173 0.611 0.0
H328 H 0.90163 0.56924 0.55192 0.0
H329 H 0.8816 0.60758 0.60582 0.0
C330 C 0.35983 0.85944 0.20641 0.0
C331 C 0.32991 0.83597 0.28078 0.0
C332 C 0.40332 0.8344 0.34522 0.0
C333 C 0.43458 0.86308 0.275 0.0
N334 N 0.44598 0.90554 0.14087 0.0
N335 N 0.32085 0.80079 0.42103 0.0
C336 C 0.4136 0.87585 0.20567 0.0
C337 C 0.35084 0.82291 0.35023 0.0
N338 N 0.33666 0.86569 0.13667 0.0
N339 N 0.42433 0.81831 0.40636 0.0
H340 H 0.28168 0.79044 0.42506 0.0
H341 H 0.33498 0.7946 0.47696 0.0
H342 H 0.46305 0.82707 0.40361 0.0
H343 H 0.40305 0.79371 0.45661 0.0
H344 H 0.35495 0.87759 0.07803 0.0
H345 H 0.29755 0.85556 0.13539 0.0
H346 H 0.43499 0.92173 0.09262 0.0
H347 H 0.48535 0.91655 0.13776 0.0
C348 C 0.51413 0.36335 0.89357 0.0
C349 C 0.49341 0.33351 0.81869 0.0
C350 C 0.55772 0.41181 0.73547 0.0
C351 C 0.57921 0.44092 0.81021 0.0
N352 N 0.57189 0.44878 0.95896 0.0
N353 N 0.48626 0.33531 0.66756 0.0
C354 C 0.55523 0.41796 0.88888 0.0
C355 C 0.51209 0.35983 0.73942 0.0
N356 N 0.49532 0.3385 0.96943 0.0
N357 N 0.58259 0.43325 0.66057 0.0
H358 H 0.45229 0.29832 0.66744 0.0
H359 H 0.49491 0.3539 0.60889 0.0
H360 H 0.61563 0.47108 0.65589 0.0
H361 H 0.57326 0.41236 0.60443 0.0
H362 H 0.51188 0.35511 1.02704 0.0
H363 H 0.46327 0.29997 0.97403 0.0
H364 H 0.5537 0.43678 1.01767 0.0
H365 H 0.60248 0.48811 0.95678 0.0
C366 C 0.15493 0.18776 0.35497 0.0
C367 C 0.1305 0.19163 0.28122 0.0
C368 C 0.13281 0.11791 0.21786 0.0
C369 C 0.15688 0.11435 0.29136 0.0
N370 N 0.20379 0.1519 0.41908 0.0
N371 N 0.10985 0.17164 0.13471 0.0
C372 C 0.17248 0.15168 0.35631 0.0
C373 C 0.12366 0.16015 0.20986 0.0
N374 N 0.16031 0.21768 0.42396 0.0
N375 N 0.11729 0.07983 0.15779 0.0
H376 H 0.10415 0.20346 0.12819 0.0
H377 H 0.10873 0.153 0.07849 0.0
H378 H 0.12522 0.04921 0.16208 0.0
H379 H 0.09444 0.0771 0.10648 0.0
H380 H 0.17277 0.21253 0.48239 0.0
H381 H 0.14892 0.24563 0.4246 0.0
H382 H 0.22017 0.18089 0.46506 0.0
H383 H 0.21727 0.12544 0.42087 0.0
C384 C 1.00502 0.17655 0.75014 0.0
C385 C 0.96764 0.15573 0.81645 0.0
C386 C 0.03669 0.20048 0.91862 0.0
C387 C 0.07295 0.2202 0.85167 0.0
N388 N 0.0919 0.24354 0.70625 0.0
N389 N 0.94537 0.15122 0.96341 0.0
C390 C 0.05665 0.21497 0.76833 0.0
C391 C 0.98259 0.16914 0.90107 0.0
N392 N 0.9934 0.15415 0.6725 0.0
N393 N 0.05498 0.21068 0.99833 0.0
H394 H 0.90549 0.12713 0.9512 0.0
H395 H 0.95336 0.16299 1.02577 0.0
H396 H 0.09438 0.23767 1.01012 0.0
H397 H 1.03151 0.19258 0.05066 0.0
H398 H 1.02237 0.16075 0.6286 0.0
H399 H 0.95584 0.1252 0.65509 0.0
H400 H 0.08089 0.24295 0.64422 0.0
H401 H 0.13086 0.27155 0.71872 0.0
C402 C 0.82637 0.07563 0.23285 0.0
C403 C 0.86306 0.1047 0.29434 0.0
C404 C 0.83616 1.02213 0.3681 0.0
C405 C 0.81749 0.99512 0.29068 0.0
N406 N 0.81531 1.00778 0.13971 0.0
N407 N 0.91025 0.10118 0.41621 0.0
C408 C 0.81581 1.02395 0.21997 0.0
C409 C 0.86868 0.07729 0.36364 0.0
N410 N 0.81317 0.10108 0.1754 0.0
N411 N 0.82635 0.9966 0.44389 0.0
H412 H 0.94078 0.13964 0.40722 0.0
H413 H 0.9175 0.08023 0.4619 0.0
H414 H 0.79987 0.95637 0.45217 0.0
H415 H 0.83913 1.01738 0.50021 0.0
H416 H 0.78744 0.0811 0.12658 0.0
H417 H 0.8255 0.14112 0.18183 0.0
H418 H 0.82283 0.0334 0.08908 0.0
H419 H 0.81699 0.97433 0.12437 0.0
C420 C 0.88766 0.876 0.63729 0.0
C421 C 0.87592 0.89989 0.70326 0.0
C422 C 0.92444 0.87895 0.80207 0.0
C423 C 0.93114 0.84991 0.73768 0.0
N424 N 0.9208 0.81997 0.59423 0.0
N425 N 0.90123 0.94378 0.83748 0.0
C426 C 0.91329 0.84813 0.65515 0.0
C427 C 0.89999 0.90761 0.7825 0.0
N428 N 0.88016 0.88601 0.55676 0.0
N429 N 0.93841 0.87634 0.883 0.0
H430 H 0.88129 0.96373 0.828 0.0
H431 H 0.92524 0.95692 0.89005 0.0
H432 H 0.95327 0.85259 0.90077 0.0
H433 H 0.93034 0.89311 0.93416 0.0
H434 H 0.89623 0.87745 0.50518 0.0
H435 H 0.86374 0.9091 0.54294 0.0
H436 H 0.90226 0.81175 0.53627 0.0
H437 H 0.94211 0.80124 0.60404 0.0
C438 C 1.00629 0.87505 0.32951 0.0
C439 C 1.00085 0.90332 0.26225 0.0
C440 C 0.07376 0.90707 0.18789 0.0
C441 C 0.08667 0.89058 0.26321 0.0
N442 N 0.06235 0.85282 0.40357 0.0
N443 N 1.02601 0.9452 0.12661 0.0
C444 C 0.05147 0.87175 0.33282 0.0
C445 C 1.03336 0.91867 0.19065 0.0
N446 N 0.96808 0.85108 0.38985 0.0
N447 N 0.0981 0.90947 0.11372 0.0
H448 H 0.99528 0.95263 0.12697 0.0
H449 H 0.05216 0.96258 0.07623 0.0
H450 H 0.12486 0.89698 0.10748 0.0
H451 H 0.08591 0.91618 0.05632 0.0
H452 H 0.96657 0.82338 0.43253 0.0
H453 H 0.9354 0.85503 0.39352 0.0
H454 H 0.04338 0.84759 0.46131 0.0
H455 H 0.09177 0.84386 0.40534 0.0
C456 C 0.22581 0.051 0.76398 0.0
C457 C 0.23364 0.07795 0.84162 0.0
C458 C 0.2105 0.99693 0.91907 0.0
C459 C 0.20275 0.97016 0.84193 0.0
N460 N 0.21659 0.97461 0.69172 0.0
N461 N 0.24283 0.08006 0.99213 0.0
C462 C 0.21606 0.99857 0.76482 0.0
C463 C 0.22929 0.05201 0.919 0.0
N464 N 0.22201 0.07298 0.69017 0.0
N465 N 0.19576 0.96817 0.99205 0.0
H466 H 0.25718 0.12064 0.99358 0.0
H467 H 0.24449 0.06438 0.04998 0.0
H468 H 0.18336 0.92794 0.99292 0.0
H469 H 0.19419 0.98341 0.05024 0.0
H470 H 0.21002 0.05248 0.63371 0.0
H471 H 0.22536 0.10987 0.6856 0.0
H472 H 0.22984 0.9947 0.63455 0.0
H473 H 0.20883 0.93599 0.68893 0.0
C474 C 0.30238 0.36646 1.01029 0.0
C475 C 0.27922 0.3471 0.09166 0.0
C476 C 0.29751 0.27385 0.06992 0.0
C477 C 0.32467 0.29683 0.99297 0.0
N478 N 0.36496 0.37336 0.90395 0.0
N479 N 0.26265 0.28243 0.20262 0.0
C480 C 0.33141 0.34619 0.96874 0.0
C481 C 0.27895 0.3008 0.12265 0.0
N482 N 0.29468 0.40307 0.97035 0.0
N483 N 0.28774 0.22457 0.09135 0.0
H484 H 0.24568 0.29665 0.24347 0.0
H485 H 0.26869 0.25408 0.23113 0.0
H486 H 0.30489 0.20643 0.05875 0.0
H487 H 0.26107 0.20104 0.1381 0.0
H488 H 0.3065 0.41524 0.90833 0.0
H489 H 0.271 0.41634 0.99578 0.0
H490 H 0.3751 0.41173 0.88695 0.0
H491 H 0.38627 0.359 0.87313 0.0
C492 C 0.98103 0.25036 0.54805 0.0
C493 C 0.9589 0.28038 0.57881 0.0
C494 C 1.02803 0.35702 0.49528 0.0
C495 C 0.04988 0.32658 0.46738 0.0
N496 N 0.05756 0.2508 0.49147 0.0
N497 N 0.95367 0.35895 0.55554 0.0
C498 C 1.03002 0.27567 0.50325 0.0
C499 C 0.981 0.33343 0.54667 0.0
N500 N 0.95226 0.19655 0.5514 0.0
N501 N 0.05257 0.40886 0.47072 0.0
H502 H 0.91486 0.33992 0.57593 0.0
H503 H 0.96591 0.39643 0.53134 0.0
H504 H 0.08642 0.42574 0.43323 0.0
H505 H 0.043 0.43602 0.49336 0.0
H506 H 0.96614 0.17275 0.53027 0.0
H507 H 0.91186 0.17529 0.56071 0.0
H508 H 0.04547 0.21248 0.51096 0.0
H509 H 0.09662 0.27207 0.47274 0.0
C510 C 0.69875 0.9853 0.06442 0.0
C511 C 0.70013 0.9371 0.06739 0.0
C512 C 0.7686 0.97636 0.95833 0.0
C513 C 0.76203 1.02103 0.94475 0.0
N514 N 0.70956 0.05949 0.97933 0.0
N515 N 0.72631 0.88321 0.99354 0.0
C516 C 0.72368 1.02302 0.99608 0.0
C517 C 0.73133 0.93133 1.00628 0.0
N518 N 0.67512 0.99635 0.12834 0.0
N519 N 0.81421 0.97932 0.93528 0.0
H520 H 0.70034 0.84964 1.02846 0.0
H521 H 0.7443 0.87647 0.94242 0.0
H522 H 0.8476 1.01517 0.91975 0.0
H523 H 0.82136 0.94881 0.9467 0.0
H524 H 0.67715 0.03262 0.13401 0.0
H525 H 0.6588 0.97164 0.18047 0.0
H526 H 0.67837 0.05939 1.00983 0.0
H527 H 0.72538 0.08636 0.92946 0.0
C528 C 0.80217 0.71661 0.50998 0.0
C529 C 0.7914 0.71685 0.59762 0.0
C530 C 0.74694 0.76732 0.5611 0.0
C531 C 0.75906 0.7684 0.47394 0.0
N532 N 0.78676 0.73214 0.36449 0.0
N533 N 0.74237 0.73263 0.70289 0.0
C534 C 0.78292 0.73899 0.44853 0.0
C535 C 0.75997 0.73888 0.62166 0.0
N536 N 0.83194 0.69581 0.48528 0.0
N537 N 0.72419 0.7953 0.58626 0.0
H538 H 0.75163 0.71333 0.74853 0.0
H539 H 0.71574 0.74305 0.72419 0.0
H540 H 0.71235 0.81392 0.54319 0.0
H541 H 0.71793 0.80112 0.6487 0.0
H542 H 0.84733 0.69997 0.42482 0.0
H543 H 0.84362 0.67649 0.52709 0.0
H544 H 0.7997 0.70812 0.33957 0.0
H545 H 0.77187 0.74673 0.31956 0.0
C546 C 1.02816 0.77449 0.06782 0.0
C547 C 1.02396 0.75458 0.98555 0.0
C548 C 0.11469 0.77301 0.99755 0.0
C549 C 0.11806 0.78861 0.08332 0.0
N550 N 0.06607 0.78648 0.20451 0.0
N551 N 0.05784 0.71838 0.88568 0.0
C552 C 0.07156 0.78451 0.11987 0.0
C553 C 0.06548 0.7485 0.95493 0.0
N554 N 0.99007 0.78342 0.09725 0.0
N555 N 0.15894 0.78224 0.95574 0.0
H556 H 1.02195 0.69851 0.85536 0.0
H557 H 0.08487 0.70814 0.86538 0.0
H558 H 0.19609 0.80362 0.9822 0.0
H559 H 0.15953 0.77366 0.89234 0.0
H560 H 0.99316 0.80309 0.1532 0.0
H561 H 0.95615 0.77304 0.0636 0.0
H562 H 1.03044 0.77616 0.23321 0.0
H563 H 0.09514 0.79504 0.24745 0.0
C564 C 0.34756 0.04184 0.61576 0.0
C565 C 0.35178 0.09218 0.60369 0.0
C566 C 0.32031 0.06454 0.45899 0.0
C567 C 0.30428 1.01081 0.47805 0.0
N568 N 0.30238 0.9486 0.57786 0.0
N569 N 0.35058 0.15399 0.50627 0.0
C570 C 0.31859 0.99979 0.55708 0.0
C571 C 0.34068 0.10412 0.52283 0.0
N572 N 0.3727 0.03435 0.68096 0.0
N573 N 0.31617 0.07771 0.37858 0.0
H574 H 0.37282 0.18565 0.54615 0.0
H575 H 0.33633 0.16391 0.45408 0.0
H576 H 0.30145 0.04952 0.33195 0.0
H577 H 0.33173 0.11625 0.35641 0.0
H578 H 0.37424 1.0 0.68873 0.0
H579 H 0.39712 0.06449 0.72159 0.0
H580 H 0.30526 0.93665 0.63842 0.0
H581 H 0.28345 0.91786 0.53483 0.0
C582 C 0.80407 0.78147 0.9467 0.0
C583 C 0.79735 0.7309 0.96291 0.0
C584 C 0.75133 0.729 0.09591 0.0
C585 C 0.76602 0.783 0.08457 0.0
N586 N 0.81923 0.86338 1.00632 0.0
N587 N 0.76952 0.65912 0.06259 0.0
C588 C 0.796 0.80986 1.0121 0.0
C589 C 0.77182 0.7051 0.04006 0.0
N590 N 0.81472 0.80158 0.86715 0.0
N591 N 0.71828 0.70054 0.16069 0.0
H592 H 0.78558 0.64162 1.0257 0.0
H593 H 0.75638 0.64116 0.12138 0.0
H594 H 0.70344 0.71686 0.2028 0.0
H595 H 0.70203 0.65989 0.16808 0.0
H596 H 0.81025 0.83332 0.85061 0.0
H597 H 0.8221 0.78342 0.81717 0.0
H598 H 0.84581 0.88485 0.95852 0.0
H599 H 0.81498 0.88628 0.05205 0.0
C600 C 0.05187 0.73862 0.44048 0.0
C601 C 0.10579 0.76291 0.46278 0.0
C602 C 0.07506 0.73555 0.60788 0.0
C603 C 1.02577 0.72951 0.58877 0.0
N604 N 0.96687 0.72453 0.48177 0.0
N605 N 0.1677 0.77979 0.57268 0.0
C606 C 1.01379 0.73041 0.50329 0.0
C607 C 0.11722 0.75989 0.5482 0.0
N608 N 0.03634 0.72027 0.36125 0.0
N609 N 0.08024 0.71503 0.68137 0.0
H610 H 0.19905 0.79652 0.53 0.0
H611 H 0.1781 0.78229 0.63578 0.0
H612 H 0.04801 0.69349 0.72118 0.0
H613 H 0.11395 0.71445 0.69693 0.0
H614 H 0.99709 0.69953 0.34385 0.0
H615 H 0.06194 0.71918 0.31744 0.0
H616 H 0.95831 0.72994 0.42028 0.0
H617 H 0.93803 0.71686 0.52672 0.0
C618 C 0.36266 0.10777 0.058 0.0
C619 C 0.35811 0.09489 0.9713 0.0
C620 C 0.30708 0.99891 1.01346 0.0
C621 C 0.30677 1.01298 0.09923 0.0
N622 N 0.36205 0.07735 0.19986 0.0
N623 N 0.32736 1.02749 0.866 0.0
C624 C 0.34235 0.06662 0.12063 0.0
C625 C 0.33194 0.04003 0.94928 0.0
N626 N 0.38567 0.15947 0.08137 0.0
N627 N 0.28285 0.94657 0.99304 0.0
H628 H 0.33904 0.05627 0.81921 0.0
H629 H 0.30939 0.98934 0.84235 0.0
H630 H 0.26324 0.91633 0.03718 0.0
H631 H 0.28298 0.93239 0.93333 0.0
H632 H 0.3846 0.17074 0.14315 0.0
H633 H 0.4025 0.19075 0.03809 0.0
H634 H 0.39113 0.11485 0.21895 0.0
H635 H 0.35509 0.04678 0.24132 0.0
C636 C 0.29225 0.33906 0.63314 0.0
C637 C 0.31087 0.3038 0.61555 0.0
C638 C 0.30326 0.31927 0.46404 0.0
C639 C 0.27509 0.34555 0.48278 0.0
N640 N 0.23998 0.37699 0.58898 0.0
N641 N 0.32638 0.25515 0.50911 0.0
C642 C 0.26869 0.35427 0.56858 0.0
C643 C 0.31472 0.29291 0.52945 0.0
N644 N 0.29902 0.35974 0.71181 0.0
N645 N 0.3203 0.32012 0.38376 0.0
H646 H 0.33451 0.23485 0.5542 0.0
H647 H 0.32348 0.24098 0.44816 0.0
H648 H 0.31456 0.34 0.33465 0.0
H649 H 0.34517 0.3062 0.36797 0.0
H650 H 0.29033 0.38867 0.72816 0.0
H651 H 0.31916 0.35201 0.75764 0.0
H652 H 0.22919 0.37936 0.65061 0.0
H653 H 0.22356 0.38969 0.54352 0.0
C654 C 1.00618 0.3086 0.09043 0.0
C655 C 0.05925 0.32356 0.07379 0.0
C656 C 1.03426 0.30891 0.9223 0.0
C657 C 0.97954 0.28101 0.94475 0.0
N658 N 0.91504 0.25155 0.05627 0.0
N659 N 0.12629 0.35639 0.96808 0.0
C660 C 0.96618 0.27988 1.03064 0.0
C661 C 0.07429 0.32903 0.9875 0.0
N662 N 0.99493 0.32715 0.16104 0.0
N663 N 0.04761 0.31428 0.83896 0.0
H664 H 0.15487 0.37039 1.01442 0.0
H665 H 0.14102 0.36957 0.90772 0.0
H666 H 0.08578 0.33111 0.81632 0.0
H667 H 1.01955 0.29999 0.79167 0.0
H668 H 0.95771 0.32056 0.17492 0.0
H669 H 1.02497 0.35636 0.197 0.0
H670 H 0.90413 0.24565 0.11974 0.0
H671 H 0.8842 0.23023 1.0149 0.0
C672 C 0.70921 0.98962 0.60758 0.0
C673 C 0.74206 0.04366 0.5831 0.0
C674 C 0.72595 1.01434 0.43491 0.0
C675 C 0.70333 0.96001 0.46038 0.0
N676 N 0.67296 0.89651 0.57367 0.0
N677 N 0.78141 0.10736 0.47181 0.0
C678 C 0.69443 0.94784 0.54766 0.0
C679 C 0.74916 0.05593 0.49606 0.0
N680 N 0.69377 0.97872 0.68989 0.0
N681 N 0.72627 1.02665 0.35192 0.0
H682 H 0.79758 0.13807 0.51533 0.0
H683 H 0.79371 0.11918 0.40993 0.0
H684 H 0.71466 0.99895 0.304 0.0
H685 H 0.73551 0.06408 0.33103 0.0
H686 H 0.6671 0.94101 0.71271 0.0
H687 H 0.70459 1.00895 0.73363 0.0
H688 H 0.67048 0.88528 0.63653 0.0
H689 H 0.66059 0.86531 0.53152 0.0
loop_
_geom_bond_atom_site_label_1
_geom_bond_atom_site_label_2
_geom_bond_distance
_geom_bond_site_symmetry_2
_ccdc_geom_bond_type
Co0 N1 2.034 1_455 S
Co0 O15 2.262 . S
Co0 O19 1.958 . S
Co0 O23 1.950 . S
Co0 O24 2.057 1_455 S
N1 Co0 2.034 1_655 S
N1 C2 1.366 . S
N1 C4 1.332 . S
C2 N1 1.366 . S
C2 C5 1.377 . S
C2 H34 0.931 . S
N3 C4 1.346 . S
N3 C5 1.337 . S
C4 N1 1.332 . S
C4 N3 1.346 . S
C4 C38 1.361 . S
C5 C2 1.377 . S
C5 N3 1.337 . S
C5 H41 0.930 . S
Co6 N7 2.034 . S
Co6 O20 1.950 . S
Co6 O21 2.262 . S
Co6 O22 1.958 . S
Co6 O26 2.057 . S
N7 Co6 2.034 . S
N7 C10 1.366 . S
N7 C11 1.332 . S
N8 C9 1.337 . S
N8 C11 1.346 . S
C9 N8 1.337 . S
C9 C10 1.377 . S
C9 H42 0.930 . S
C10 N7 1.366 . S
C10 C9 1.377 . S
C10 H14 0.931 . S
C11 N7 1.332 . S
C11 N8 1.346 . S
C11 C28 1.361 . S
Co12 O15 2.097 . S
Co12 O16 2.065 . S
Co12 O17 2.065 . S
Co12 O18 2.042 . S
Co12 O21 2.097 . S
Co12 O25 2.042 . S
C13 O21 1.253 . S
C13 O26 1.263 . S
H14 C10 0.931 . S
O15 Co0 2.262 . S
O15 Co12 2.097 . S
O15 C39 1.253 . S
O16 Co12 2.065 . S
O16 C32 1.221 . S
O17 Co12 2.065 . S
O17 C27 1.221 . S
O18 Co12 2.042 . S
O18 C33 1.237 . S
O19 Co0 1.958 . S
O19 C33 1.278 . S
O20 Co6 1.950 . S
O20 C32 1.277 . S
O21 Co6 2.262 . S
O21 Co12 2.097 . S
O21 C13 1.253 . S
O22 Co6 1.958 . S
O22 C40 1.278 . S
O23 Co0 1.950 . S
O23 C27 1.277 . S
O24 Co0 2.057 1_655 S
O24 C39 1.263 1_655 S
O25 Co12 2.042 . S
O25 C40 1.237 . S
O26 Co6 2.057 . S
O26 C13 1.263 . S
C27 O17 1.221 . S
C27 O23 1.277 . S
C28 C11 1.361 . S
C28 H29 0.960 . S
C28 H30 0.961 . S
C28 H31 0.961 . S
H29 C28 0.960 . S
H30 C28 0.961 . S
H31 C28 0.961 . S
C32 O16 1.221 . S
C32 O20 1.277 . S
C33 O18 1.237 . S
C33 O19 1.278 . S
H34 C2 0.931 . S
H35 C38 0.961 . S
H36 C38 0.961 . S
H37 C38 0.960 . S
C38 C4 1.361 . S
C38 H35 0.961 . S
C38 H36 0.961 . S
C38 H37 0.960 . S
C39 O15 1.253 . S
C39 O24 1.263 1_455 S
C40 O22 1.278 . S
C40 O25 1.237 . S
H41 C5 0.930 . S
H42 C9 0.930 . S
Co43 N44 2.034 1_545 S
Co43 O58 2.262 . S
Co43 O62 1.958 . S
Co43 O66 1.950 . S
Co43 O67 2.057 . S
N44 Co43 2.034 1_565 S
N44 C45 1.366 . S
N44 C47 1.332 . S
C45 N44 1.366 . S
C45 C48 1.377 . S
C45 H77 0.931 . S
N46 C47 1.346 . S
N46 C48 1.337 . S
C47 N44 1.332 . S
C47 N46 1.346 . S
C47 C81 1.361 . S
C48 C45 1.377 . S
C48 N46 1.337 . S
C48 H84 0.930 . S
Co49 N50 2.034 . S
Co49 O63 1.950 . S
Co49 O64 2.262 . S
Co49 O65 1.958 . S
Co49 O69 2.057 . S
N50 Co49 2.034 . S
N50 C53 1.366 . S
N50 C54 1.332 . S
N51 C52 1.337 . S
N51 C54 1.346 . S
C52 N51 1.337 . S
C52 C53 1.377 . S
C52 H85 0.930 . S
C53 N50 1.366 . S
C53 C52 1.377 . S
C53 H57 0.931 . S
C54 N50 1.332 . S
C54 N51 1.346 . S
C54 C71 1.361 . S
Co55 O58 2.097 . S
Co55 O59 2.065 . S
Co55 O60 2.065 . S
Co55 O61 2.042 . S
Co55 O64 2.097 . S
Co55 O68 2.042 . S
C56 O64 1.253 . S
C56 O69 1.263 . S
H57 C53 0.931 . S
O58 Co43 2.262 . S
O58 Co55 2.097 . S
O58 C82 1.253 . S
O59 Co55 2.065 . S
O59 C75 1.221 . S
O60 Co55 2.065 . S
O60 C70 1.221 . S
O61 Co55 2.042 . S
O61 C76 1.237 . S
O62 Co43 1.958 . S
O62 C76 1.278 . S
O63 Co49 1.950 . S
O63 C75 1.277 . S
O64 Co49 2.262 . S
O64 Co55 2.097 . S
O64 C56 1.253 . S
O65 Co49 1.958 . S
O65 C83 1.278 . S
O66 Co43 1.950 . S
O66 C70 1.277 . S
O67 Co43 2.057 . S
O67 C82 1.263 . S
O68 Co55 2.042 . S
O68 C83 1.237 . S
O69 Co49 2.057 . S
O69 C56 1.263 . S
C70 O60 1.221 . S
C70 O66 1.277 . S
C71 C54 1.361 . S
C71 H72 0.960 . S
C71 H73 0.961 . S
C71 H74 0.961 . S
H72 C71 0.960 . S
H73 C71 0.961 . S
H74 C71 0.961 . S
C75 O59 1.221 . S
C75 O63 1.277 . S
C76 O61 1.237 . S
C76 O62 1.278 . S
H77 C45 0.931 . S
H78 C81 0.961 . S
H79 C81 0.961 . S
H80 C81 0.960 . S
C81 C47 1.361 . S
C81 H78 0.961 . S
C81 H79 0.961 . S
C81 H80 0.960 . S
C82 O58 1.253 . S
C82 O67 1.263 . S
C83 O65 1.278 . S
C83 O68 1.237 . S
H84 C48 0.930 . S
H85 C52 0.930 . S
Co86 N87 2.034 . S
Co86 O101 2.262 . S
Co86 O105 1.958 . S
Co86 O109 1.950 . S
Co86 O110 2.057 . S
N87 Co86 2.034 . S
N87 C88 1.366 . S
N87 C90 1.332 . S
C88 N87 1.366 . S
C88 C91 1.377 . S
C88 H120 0.931 . S
N89 C90 1.346 . S
N89 C91 1.337 . S
C90 N87 1.332 . S
C90 N89 1.346 . S
C90 C124 1.361 . S
C91 C88 1.377 . S
C91 N89 1.337 . S
C91 H127 0.930 . S
Co92 N93 2.034 . S
Co92 O106 1.950 . S
Co92 O107 2.262 . S
Co92 O108 1.958 . S
Co92 O112 2.057 . S
N93 Co92 2.034 . S
N93 C96 1.366 . S
N93 C97 1.332 . S
N94 C95 1.337 . S
N94 C97 1.346 . S
C95 N94 1.337 . S
C95 C96 1.377 . S
C95 H128 0.930 . S
C96 N93 1.366 . S
C96 C95 1.377 . S
C96 H100 0.931 . S
C97 N93 1.332 . S
C97 N94 1.346 . S
C97 C114 1.361 . S
Co98 O101 2.097 . S
Co98 O102 2.065 . S
Co98 O103 2.065 . S
Co98 O104 2.042 . S
Co98 O107 2.097 . S
Co98 O111 2.042 . S
C99 O107 1.253 . S
C99 O112 1.263 . S
H100 C96 0.931 . S
O101 Co86 2.262 . S
O101 Co98 2.097 . S
O101 C125 1.253 . S
O102 Co98 2.065 . S
O102 C118 1.221 . S
O103 Co98 2.065 . S
O103 C113 1.221 . S
O104 Co98 2.042 . S
O104 C119 1.237 . S
O105 Co86 1.958 . S
O105 C119 1.278 . S
O106 Co92 1.950 . S
O106 C118 1.277 . S
O107 Co92 2.262 . S
O107 Co98 2.097 . S
O107 C99 1.253 . S
O108 Co92 1.958 . S
O108 C126 1.278 . S
O109 Co86 1.950 . S
O109 C113 1.277 . S
O110 Co86 2.057 . S
O110 C125 1.263 . S
O111 Co98 2.042 . S
O111 C126 1.237 . S
O112 Co92 2.057 . S
O112 C99 1.263 . S
C113 O103 1.221 . S
C113 O109 1.277 . S
C114 C97 1.361 . S
C114 H115 0.960 . S
C114 H116 0.961 . S
C114 H117 0.961 . S
H115 C114 0.960 . S
H116 C114 0.961 . S
H117 C114 0.961 . S
C118 O102 1.221 . S
C118 O106 1.277 . S
C119 O104 1.237 . S
C119 O105 1.278 . S
H120 C88 0.931 . S
H121 C124 0.961 . S
H122 C124 0.961 . S
H123 C124 0.960 . S
C124 C90 1.361 . S
C124 H121 0.961 . S
C124 H122 0.961 . S
C124 H123 0.960 . S
C125 O101 1.253 . S
C125 O110 1.263 . S
C126 O108 1.278 . S
C126 O111 1.237 . S
H127 C91 0.930 . S
H128 C95 0.930 . S
Co129 N130 2.034 1_655 S
Co129 O144 2.262 . S
Co129 O148 1.958 . S
Co129 O152 1.950 . S
Co129 O153 2.057 . S
N130 Co129 2.034 1_455 S
N130 C131 1.366 . S
N130 C133 1.332 . S
C131 N130 1.366 . S
C131 C134 1.377 . S
C131 H163 0.931 . S
N132 C133 1.346 . S
N132 C134 1.337 . S
C133 N130 1.332 . S
C133 N132 1.346 . S
C133 C167 1.361 . S
C134 C131 1.377 . S
C134 N132 1.337 . S
C134 H170 0.930 . S
Co135 N136 2.034 . S
Co135 O149 1.950 . S
Co135 O150 2.262 . S
Co135 O151 1.958 . S
Co135 O155 2.057 . S
N136 Co135 2.034 . S
N136 C139 1.366 . S
N136 C140 1.332 . S
N137 C138 1.337 . S
N137 C140 1.346 . S
C138 N137 1.337 . S
C138 C139 1.377 . S
C138 H171 0.930 . S
C139 N136 1.366 . S
C139 C138 1.377 . S
C139 H143 0.931 . S
C140 N136 1.332 . S
C140 N137 1.346 . S
C140 C157 1.361 . S
Co141 O144 2.097 . S
Co141 O145 2.065 . S
Co141 O146 2.065 . S
Co141 O147 2.042 . S
Co141 O150 2.097 . S
Co141 O154 2.042 . S
C142 O150 1.253 . S
C142 O155 1.263 . S
H143 C139 0.931 . S
O144 Co129 2.262 . S
O144 Co141 2.097 . S
O144 C168 1.253 . S
O145 Co141 2.065 . S
O145 C161 1.221 . S
O146 Co141 2.065 . S
O146 C156 1.221 . S
O147 Co141 2.042 . S
O147 C162 1.237 . S
O148 Co129 1.958 . S
O148 C162 1.278 . S
O149 Co135 1.950 . S
O149 C161 1.277 . S
O150 Co135 2.262 . S
O150 Co141 2.097 . S
O150 C142 1.253 . S
O151 Co135 1.958 . S
O151 C169 1.278 . S
O152 Co129 1.950 . S
O152 C156 1.277 . S
O153 Co129 2.057 . S
O153 C168 1.263 . S
O154 Co141 2.042 . S
O154 C169 1.237 . S
O155 Co135 2.057 . S
O155 C142 1.263 . S
C156 O146 1.221 . S
C156 O152 1.277 . S
C157 C140 1.361 . S
C157 H158 0.960 . S
C157 H159 0.961 . S
C157 H160 0.961 . S
H158 C157 0.960 . S
H159 C157 0.961 . S
H160 C157 0.961 . S
C161 O145 1.221 . S
C161 O149 1.277 . S
C162 O147 1.237 . S
C162 O148 1.278 . S
H163 C131 0.931 . S
H164 C167 0.961 . S
H165 C167 0.961 . S
H166 C167 0.960 . S
C167 C133 1.361 . S
C167 H164 0.961 . S
C167 H165 0.961 . S
C167 H166 0.960 . S
C168 O144 1.253 . S
C168 O153 1.263 . S
C169 O151 1.278 . S
C169 O154 1.237 . S
H170 C134 0.930 . S
H171 C138 0.930 . S
Co172 N173 2.034 . S
Co172 O187 2.262 . S
Co172 O191 1.958 . S
Co172 O195 1.950 . S
Co172 O196 2.057 . S
N173 Co172 2.034 . S
N173 C174 1.366 . S
N173 C176 1.332 . S
C174 N173 1.366 . S
C174 C177 1.377 . S
C174 H206 0.931 . S
N175 C176 1.346 . S
N175 C177 1.337 . S
C176 N173 1.332 . S
C176 N175 1.346 . S
C176 C210 1.361 . S
C177 C174 1.377 . S
C177 N175 1.337 . S
C177 H213 0.930 . S
Co178 N179 2.034 1_565 S
Co178 O192 1.950 . S
Co178 O193 2.262 . S
Co178 O194 1.958 . S
Co178 O198 2.057 1_565 S
N179 Co178 2.034 1_545 S
N179 C182 1.366 . S
N179 C183 1.332 . S
N180 C181 1.337 . S
N180 C183 1.346 . S
C181 N180 1.337 . S
C181 C182 1.377 . S
C181 H214 0.930 . S
C182 N179 1.366 . S
C182 C181 1.377 . S
C182 H186 0.931 . S
C183 N179 1.332 . S
C183 N180 1.346 . S
C183 C200 1.361 . S
Co184 O187 2.097 . S
Co184 O188 2.065 . S
Co184 O189 2.065 . S
Co184 O190 2.042 . S
Co184 O193 2.097 . S
Co184 O197 2.042 . S
C185 O193 1.253 . S
C185 O198 1.263 1_565 S
H186 C182 0.931 . S
O187 Co172 2.262 . S
O187 Co184 2.097 . S
O187 C211 1.253 . S
O188 Co184 2.065 . S
O188 C204 1.221 . S
O189 Co184 2.065 . S
O189 C199 1.221 . S
O190 Co184 2.042 . S
O190 C205 1.237 . S
O191 Co172 1.958 . S
O191 C205 1.278 . S
O192 Co178 1.950 . S
O192 C204 1.277 . S
O193 Co178 2.262 . S
O193 Co184 2.097 . S
O193 C185 1.253 . S
O194 Co178 1.958 . S
O194 C212 1.278 . S
O195 Co172 1.950 . S
O195 C199 1.277 . S
O196 Co172 2.057 . S
O196 C211 1.263 . S
O197 Co184 2.042 . S
O197 C212 1.237 . S
O198 Co178 2.057 1_545 S
O198 C185 1.263 1_545 S
C199 O189 1.221 . S
C199 O195 1.277 . S
C200 C183 1.361 . S
C200 H201 0.960 . S
C200 H202 0.961 . S
C200 H203 0.961 . S
H201 C200 0.960 . S
H202 C200 0.961 . S
H203 C200 0.961 . S
C204 O188 1.221 . S
C204 O192 1.277 . S
C205 O190 1.237 . S
C205 O191 1.278 . S
H206 C174 0.931 . S
H207 C210 0.961 . S
H208 C210 0.961 . S
H209 C210 0.960 . S
C210 C176 1.361 . S
C210 H207 0.961 . S
C210 H208 0.961 . S
C210 H209 0.960 . S
C211 O187 1.253 . S
C211 O196 1.263 . S
C212 O194 1.278 . S
C212 O197 1.237 . S
H213 C177 0.930 . S
H214 C181 0.930 . S
Co215 N216 2.034 . S
Co215 O230 2.262 . S
Co215 O234 1.958 . S
Co215 O238 1.950 . S
Co215 O239 2.057 . S
N216 Co215 2.034 . S
N216 C217 1.366 . S
N216 C219 1.332 . S
C217 N216 1.366 . S
C217 C220 1.377 . S
C217 H249 0.931 . S
N218 C219 1.346 . S
N218 C220 1.337 . S
C219 N216 1.332 . S
C219 N218 1.346 . S
C219 C253 1.361 . S
C220 C217 1.377 . S
C220 N218 1.337 . S
C220 H256 0.930 . S
Co221 N222 2.034 . S
Co221 O235 1.950 . S
Co221 O236 2.262 . S
Co221 O237 1.958 . S
Co221 O241 2.057 . S
N222 Co221 2.034 . S
N222 C225 1.366 . S
N222 C226 1.332 . S
N223 C224 1.337 . S
N223 C226 1.346 . S
C224 N223 1.337 . S
C224 C225 1.377 . S
C224 H257 0.930 . S
C225 N222 1.366 . S
C225 C224 1.377 . S
C225 H229 0.931 . S
C226 N222 1.332 . S
C226 N223 1.346 . S
C226 C243 1.361 . S
Co227 O230 2.097 . S
Co227 O231 2.065 . S
Co227 O232 2.065 . S
Co227 O233 2.042 . S
Co227 O236 2.097 . S
Co227 O240 2.042 . S
C228 O236 1.253 . S
C228 O241 1.263 . S
H229 C225 0.931 . S
O230 Co215 2.262 . S
O230 Co227 2.097 . S
O230 C254 1.253 . S
O231 Co227 2.065 . S
O231 C247 1.221 . S
O232 Co227 2.065 . S
O232 C242 1.221 . S
O233 Co227 2.042 . S
O233 C248 1.237 . S
O234 Co215 1.958 . S
O234 C248 1.278 . S
O235 Co221 1.950 . S
O235 C247 1.277 . S
O236 Co221 2.262 . S
O236 Co227 2.097 . S
O236 C228 1.253 . S
O237 Co221 1.958 . S
O237 C255 1.278 . S
O238 Co215 1.950 . S
O238 C242 1.277 . S
O239 Co215 2.057 . S
O239 C254 1.263 . S
O240 Co227 2.042 . S
O240 C255 1.237 . S
O241 Co221 2.057 . S
O241 C228 1.263 . S
C242 O232 1.221 . S
C242 O238 1.277 . S
C243 C226 1.361 . S
C243 H244 0.960 . S
C243 H245 0.961 . S
C243 H246 0.961 . S
H244 C243 0.960 . S
H245 C243 0.961 . S
H246 C243 0.961 . S
C247 O231 1.221 . S
C247 O235 1.277 . S
C248 O233 1.237 . S
C248 O234 1.278 . S
H249 C217 0.931 . S
H250 C253 0.961 . S
H251 C253 0.961 . S
H252 C253 0.960 . S
C253 C219 1.361 . S
C253 H250 0.961 . S
C253 H251 0.961 . S
C253 H252 0.960 . S
C254 O230 1.253 . S
C254 O239 1.263 . S
C255 O237 1.278 . S
C255 O240 1.237 . S
H256 C220 0.930 . S
H257 C224 0.930 . S
C258 C259 1.363 . S
C258 C264 1.379 . S
C258 N266 1.356 . S
C259 C258 1.363 . S
C259 C265 1.363 . S
C260 C261 1.363 . S
C260 C265 1.379 . S
C260 N267 1.356 . S
C261 C260 1.363 . S
C261 C264 1.363 . S
N262 C264 1.356 . S
N262 H274 0.984 . S
N262 H275 0.985 . S
N263 C265 1.356 . S
N263 H268 0.984 . S
N263 H269 0.985 . S
C264 C258 1.379 . S
C264 C261 1.363 . S
C264 N262 1.356 . S
C265 C259 1.363 . S
C265 C260 1.379 . S
C265 N263 1.356 . S
N266 C258 1.356 . S
N266 H272 0.984 . S
N266 H273 0.984 . S
N267 C260 1.356 . S
N267 H270 0.984 . S
N267 H271 0.985 . S
H268 N263 0.984 . S
H269 N263 0.985 . S
H270 N267 0.984 . S
H271 N267 0.985 . S
H272 N266 0.984 . S
H273 N266 0.984 . S
H274 N262 0.984 . S
H275 N262 0.985 . S
C276 C277 1.363 . S
C276 C282 1.379 . S
C276 N284 1.356 . S
C277 C276 1.363 . S
C277 C283 1.363 . S
C278 C279 1.363 . S
C278 C283 1.379 . S
C278 N285 1.356 . S
C279 C278 1.363 . S
C279 C282 1.363 . S
N280 C282 1.356 . S
N280 H292 0.984 . S
N280 H293 0.985 . S
N281 C283 1.356 . S
N281 H286 0.984 . S
N281 H287 0.985 . S
C282 C276 1.379 . S
C282 C279 1.363 . S
C282 N280 1.356 . S
C283 C277 1.363 . S
C283 C278 1.379 . S
C283 N281 1.356 . S
N284 C276 1.356 . S
N284 H290 0.984 . S
N284 H291 0.984 . S
N285 C278 1.356 . S
N285 H288 0.984 . S
N285 H289 0.985 . S
H286 N281 0.984 . S
H287 N281 0.985 . S
H288 N285 0.984 . S
H289 N285 0.985 . S
H290 N284 0.984 . S
H291 N284 0.984 . S
H292 N280 0.984 . S
H293 N280 0.985 . S
C294 C295 1.363 . S
C294 C300 1.379 . S
C294 N302 1.356 . S
C295 C294 1.363 . S
C295 C301 1.363 . S
C296 C297 1.363 . S
C296 C301 1.379 . S
C296 N303 1.356 . S
C297 C296 1.363 . S
C297 C300 1.363 . S
N298 C300 1.356 . S
N298 H310 0.984 . S
N298 H311 0.985 . S
N299 C301 1.356 . S
N299 H304 0.984 . S
N299 H305 0.985 . S
C300 C294 1.379 . S
C300 C297 1.363 . S
C300 N298 1.356 . S
C301 C295 1.363 . S
C301 C296 1.379 . S
C301 N299 1.356 . S
N302 C294 1.356 . S
N302 H308 0.984 . S
N302 H309 0.984 . S
N303 C296 1.356 . S
N303 H306 0.984 . S
N303 H307 0.985 . S
H304 N299 0.984 . S
H305 N299 0.985 . S
H306 N303 0.984 . S
H307 N303 0.985 . S
H308 N302 0.984 . S
H309 N302 0.984 . S
H310 N298 0.984 . S
H311 N298 0.985 . S
C312 C313 1.363 . S
C312 C318 1.379 . S
C312 N320 1.356 . S
C313 C312 1.363 . S
C313 C319 1.363 . S
C314 C315 1.363 . S
C314 C319 1.379 . S
C314 N321 1.356 . S
C315 C314 1.363 . S
C315 C318 1.363 . S
N316 C318 1.356 . S
N316 H328 0.984 . S
N316 H329 0.985 . S
N317 C319 1.356 . S
N317 H322 0.984 . S
N317 H323 0.985 . S
C318 C312 1.379 . S
C318 C315 1.363 . S
C318 N316 1.356 . S
C319 C313 1.363 . S
C319 C314 1.379 . S
C319 N317 1.356 . S
N320 C312 1.356 . S
N320 H326 0.984 . S
N320 H327 0.984 . S
N321 C314 1.356 . S
N321 H324 0.984 . S
N321 H325 0.985 . S
H322 N317 0.984 . S
H323 N317 0.985 . S
H324 N321 0.984 . S
H325 N321 0.985 . S
H326 N320 0.984 . S
H327 N320 0.984 . S
H328 N316 0.984 . S
H329 N316 0.985 . S
C330 C331 1.363 . S
C330 C336 1.379 . S
C330 N338 1.356 . S
C331 C330 1.363 . S
C331 C337 1.363 . S
C332 C333 1.363 . S
C332 C337 1.379 . S
C332 N339 1.356 . S
C333 C332 1.363 . S
C333 C336 1.363 . S
N334 C336 1.356 . S
N334 H346 0.984 . S
N334 H347 0.985 . S
N335 C337 1.356 . S
N335 H340 0.984 . S
N335 H341 0.985 . S
C336 C330 1.379 . S
C336 C333 1.363 . S
C336 N334 1.356 . S
C337 C331 1.363 . S
C337 C332 1.379 . S
C337 N335 1.356 . S
N338 C330 1.356 . S
N338 H344 0.984 . S
N338 H345 0.984 . S
N339 C332 1.356 . S
N339 H342 0.984 . S
N339 H343 0.985 . S
H340 N335 0.984 . S
H341 N335 0.985 . S
H342 N339 0.984 . S
H343 N339 0.985 . S
H344 N338 0.984 . S
H345 N338 0.984 . S
H346 N334 0.984 . S
H347 N334 0.985 . S
C348 C349 1.363 . S
C348 C354 1.379 . S
C348 N356 1.356 . S
C349 C348 1.363 . S
C349 C355 1.363 . S
C350 C351 1.363 . S
C350 C355 1.379 . S
C350 N357 1.356 . S
C351 C350 1.363 . S
C351 C354 1.363 . S
N352 C354 1.356 . S
N352 H364 0.984 . S
N352 H365 0.985 . S
N353 C355 1.356 . S
N353 H358 0.984 . S
N353 H359 0.985 . S
C354 C348 1.379 . S
C354 C351 1.363 . S
C354 N352 1.356 . S
C355 C349 1.363 . S
C355 C350 1.379 . S
C355 N353 1.356 . S
N356 C348 1.356 . S
N356 H362 0.984 . S
N356 H363 0.984 . S
N357 C350 1.356 . S
N357 H360 0.984 . S
N357 H361 0.985 . S
H358 N353 0.984 . S
H359 N353 0.985 . S
H360 N357 0.984 . S
H361 N357 0.985 . S
H362 N356 0.984 . S
H363 N356 0.984 . S
H364 N352 0.984 . S
H365 N352 0.985 . S
C366 C367 1.363 . S
C366 C372 1.379 . S
C366 N374 1.356 . S
C367 C366 1.363 . S
C367 C373 1.363 . S
C368 C369 1.363 . S
C368 C373 1.379 . S
C368 N375 1.356 . S
C369 C368 1.363 . S
C369 C372 1.363 . S
N370 C372 1.356 . S
N370 H382 0.984 . S
N370 H383 0.985 . S
N371 C373 1.356 . S
N371 H376 0.984 . S
N371 H377 0.985 . S
C372 C366 1.379 . S
C372 C369 1.363 . S
C372 N370 1.356 . S
C373 C367 1.363 . S
C373 C368 1.379 . S
C373 N371 1.356 . S
N374 C366 1.356 . S
N374 H380 0.984 . S
N374 H381 0.984 . S
N375 C368 1.356 . S
N375 H378 0.984 . S
N375 H379 0.985 . S
H376 N371 0.984 . S
H377 N371 0.985 . S
H378 N375 0.984 . S
H379 N375 0.985 . S
H380 N374 0.984 . S
H381 N374 0.984 . S
H382 N370 0.984 . S
H383 N370 0.985 . S
C384 C385 1.363 . S
C384 C390 1.379 1_655 S
C384 N392 1.356 . S
C385 C384 1.363 . S
C385 C391 1.363 . S
C386 C387 1.363 1_655 S
C386 C391 1.379 . S
C386 N393 1.356 1_655 S
C387 C386 1.363 1_455 S
C387 C390 1.363 . S
N388 C390 1.356 . S
N388 H400 0.984 . S
N388 H401 0.985 . S
N389 C391 1.356 . S
N389 H394 0.984 . S
N389 H395 0.985 . S
C390 C384 1.379 1_455 S
C390 C387 1.363 . S
C390 N388 1.356 . S
C391 C385 1.363 . S
C391 C386 1.379 . S
C391 N389 1.356 . S
N392 C384 1.356 . S
N392 H398 0.984 . S
N392 H399 0.984 . S
N393 C386 1.356 1_455 S
N393 H396 0.984 . S
N393 H397 0.985 . S
H394 N389 0.984 . S
H395 N389 0.985 . S
H396 N393 0.984 . S
H397 N393 0.985 . S
H398 N392 0.984 . S
H399 N392 0.984 . S
H400 N388 0.984 . S
H401 N388 0.985 . S
C402 C403 1.363 . S
C402 C408 1.379 1_545 S
C402 N410 1.356 . S
C403 C402 1.363 . S
C403 C409 1.363 . S
C404 C405 1.363 . S
C404 C409 1.379 1_565 S
C404 N411 1.356 . S
C405 C404 1.363 . S
C405 C408 1.363 . S
N406 C408 1.356 . S
N406 H418 0.984 . S
N406 H419 0.985 . S
N407 C409 1.356 . S
N407 H412 0.984 . S
N407 H413 0.985 . S
C408 C402 1.379 1_565 S
C408 C405 1.363 . S
C408 N406 1.356 . S
C409 C403 1.363 . S
C409 C404 1.379 1_545 S
C409 N407 1.356 . S
N410 C402 1.356 . S
N410 H416 0.984 . S
N410 H417 0.984 . S
N411 C404 1.356 . S
N411 H414 0.984 . S
N411 H415 0.985 . S
H412 N407 0.984 . S
H413 N407 0.985 . S
H414 N411 0.984 . S
H415 N411 0.985 . S
H416 N410 0.984 . S
H417 N410 0.984 . S
H418 N406 0.984 . S
H419 N406 0.985 . S
C420 C421 1.363 . S
C420 C426 1.379 . S
C420 N428 1.356 . S
C421 C420 1.363 . S
C421 C427 1.363 . S
C422 C423 1.363 . S
C422 C427 1.379 . S
C422 N429 1.356 . S
C423 C422 1.363 . S
C423 C426 1.363 . S
N424 C426 1.356 . S
N424 H436 0.984 . S
N424 H437 0.985 . S
N425 C427 1.356 . S
N425 H430 0.984 . S
N425 H431 0.985 . S
C426 C420 1.379 . S
C426 C423 1.363 . S
C426 N424 1.356 . S
C427 C421 1.363 . S
C427 C422 1.379 . S
C427 N425 1.356 . S
N428 C420 1.356 . S
N428 H434 0.984 . S
N428 H435 0.984 . S
N429 C422 1.356 . S
N429 H432 0.984 . S
N429 H433 0.985 . S
H430 N425 0.984 . S
H431 N425 0.985 . S
H432 N429 0.984 . S
H433 N429 0.985 . S
H434 N428 0.984 . S
H435 N428 0.984 . S
H436 N424 0.984 . S
H437 N424 0.985 . S
C438 C439 1.363 . S
C438 C444 1.379 1_655 S
C438 N446 1.356 . S
C439 C438 1.363 . S
C439 C445 1.363 . S
C440 C441 1.363 . S
C440 C445 1.379 1_455 S
C440 N447 1.356 . S
C441 C440 1.363 . S
C441 C444 1.363 . S
N442 C444 1.356 . S
N442 H454 0.984 . S
N442 H455 0.985 . S
N443 C445 1.356 . S
N443 H448 0.984 . S
N443 H449 0.985 . S
C444 C438 1.379 1_455 S
C444 C441 1.363 . S
C444 N442 1.356 . S
C445 C439 1.363 . S
C445 C440 1.379 1_655 S
C445 N443 1.356 . S
N446 C438 1.356 . S
N446 H452 0.984 . S
N446 H453 0.984 . S
N447 C440 1.356 . S
N447 H450 0.984 . S
N447 H451 0.985 . S
H448 N443 0.984 . S
H449 N443 0.985 . S
H450 N447 0.984 . S
H451 N447 0.985 . S
H452 N446 0.984 . S
H453 N446 0.984 . S
H454 N442 0.984 . S
H455 N442 0.985 . S
C456 C457 1.363 . S
C456 C462 1.379 1_545 S
C456 N464 1.356 . S
C457 C456 1.363 . S
C457 C463 1.363 . S
C458 C459 1.363 . S
C458 C463 1.379 1_565 S
C458 N465 1.356 . S
C459 C458 1.363 . S
C459 C462 1.363 . S
N460 C462 1.356 . S
N460 H472 0.984 . S
N460 H473 0.985 . S
N461 C463 1.356 . S
N461 H466 0.984 . S
N461 H467 0.985 . S
C462 C456 1.379 1_565 S
C462 C459 1.363 . S
C462 N460 1.356 . S
C463 C457 1.363 . S
C463 C458 1.379 1_545 S
C463 N461 1.356 . S
N464 C456 1.356 . S
N464 H470 0.984 . S
N464 H471 0.984 . S
N465 C458 1.356 . S
N465 H468 0.984 . S
N465 H469 0.985 . S
H466 N461 0.984 . S
H467 N461 0.985 . S
H468 N465 0.984 . S
H469 N465 0.985 . S
H470 N464 0.984 . S
H471 N464 0.984 . S
H472 N460 0.984 . S
H473 N460 0.985 . S
C474 C475 1.363 1_556 S
C474 C480 1.379 . S
C474 N482 1.356 . S
C475 C474 1.363 1_554 S
C475 C481 1.363 . S
C476 C477 1.363 1_554 S
C476 C481 1.379 . S
C476 N483 1.356 . S
C477 C476 1.363 1_556 S
C477 C480 1.363 . S
N478 C480 1.356 . S
N478 H490 0.984 . S
N478 H491 0.985 . S
N479 C481 1.356 . S
N479 H484 0.984 . S
N479 H485 0.985 . S
C480 C474 1.379 . S
C480 C477 1.363 . S
C480 N478 1.356 . S
C481 C475 1.363 . S
C481 C476 1.379 . S
C481 N479 1.356 . S
N482 C474 1.356 . S
N482 H488 0.984 . S
N482 H489 0.984 1_556 S
N483 C476 1.356 . S
N483 H486 0.984 1_554 S
N483 H487 0.985 . S
H484 N479 0.984 . S
H485 N479 0.985 . S
H486 N483 0.984 1_556 S
H487 N483 0.985 . S
H488 N482 0.984 . S
H489 N482 0.984 1_554 S
H490 N478 0.984 . S
H491 N478 0.985 . S
C492 C493 1.363 . S
C492 C498 1.379 . S
C492 N500 1.356 . S
C493 C492 1.363 . S
C493 C499 1.363 . S
C494 C495 1.363 . S
C494 C499 1.379 . S
C494 N501 1.356 1_655 S
C495 C494 1.363 . S
C495 C498 1.363 . S
N496 C498 1.356 1_455 S
N496 H508 0.984 1_455 S
N496 H509 0.985 . S
N497 C499 1.356 . S
N497 H502 0.984 . S
N497 H503 0.985 . S
C498 C492 1.379 . S
C498 C495 1.363 . S
C498 N496 1.356 1_655 S
C499 C493 1.363 . S
C499 C494 1.379 . S
C499 N497 1.356 . S
N500 C492 1.356 . S
N500 H506 0.984 . S
N500 H507 0.984 . S
N501 C494 1.356 1_455 S
N501 H504 0.984 . S
N501 H505 0.985 . S
H502 N497 0.984 . S
H503 N497 0.985 . S
H504 N501 0.984 . S
H505 N501 0.985 . S
H506 N500 0.984 . S
H507 N500 0.984 . S
H508 N496 0.984 1_655 S
H509 N496 0.985 . S
C510 C511 1.363 . S
C510 C516 1.379 1_554 S
C510 N518 1.356 . S
C511 C510 1.363 . S
C511 C517 1.363 . S
C512 C513 1.363 . S
C512 C517 1.379 1_556 S
C512 N519 1.356 . S
C513 C512 1.363 . S
C513 C516 1.363 . S
N514 C516 1.356 1_545 S
N514 H526 0.984 . S
N514 H527 0.985 . S
N515 C517 1.356 . S
N515 H520 0.984 . S
N515 H521 0.985 . S
C516 C510 1.379 1_556 S
C516 C513 1.363 . S
C516 N514 1.356 1_565 S
C517 C511 1.363 . S
C517 C512 1.379 1_554 S
C517 N515 1.356 . S
N518 C510 1.356 . S
N518 H524 0.984 . S
N518 H525 0.984 . S
N519 C512 1.356 . S
N519 H522 0.984 1_565 S
N519 H523 0.985 . S
H520 N515 0.984 . S
H521 N515 0.985 . S
H522 N519 0.984 1_545 S
H523 N519 0.985 . S
H524 N518 0.984 . S
H525 N518 0.984 . S
H526 N514 0.984 . S
H527 N514 0.985 . S
C528 C529 1.363 . S
C528 C534 1.379 . S
C528 N536 1.356 . S
C529 C528 1.363 . S
C529 C535 1.363 . S
C530 C531 1.363 . S
C530 C535 1.379 . S
C530 N537 1.356 . S
C531 C530 1.363 . S
C531 C534 1.363 . S
N532 C534 1.356 . S
N532 H544 0.984 . S
N532 H545 0.985 . S
N533 C535 1.356 . S
N533 H538 0.984 . S
N533 H539 0.985 . S
C534 C528 1.379 . S
C534 C531 1.363 . S
C534 N532 1.356 . S
C535 C529 1.363 . S
C535 C530 1.379 . S
C535 N533 1.356 . S
N536 C528 1.356 . S
N536 H542 0.984 . S
N536 H543 0.984 . S
N537 C530 1.356 . S
N537 H540 0.984 . S
N537 H541 0.985 . S
H538 N533 0.984 . S
H539 N533 0.985 . S
H540 N537 0.984 . S
H541 N537 0.985 . S
H542 N536 0.984 . S
H543 N536 0.984 . S
H544 N532 0.984 . S
H545 N532 0.985 . S
C546 C547 1.361 1_654 S
C546 C552 1.377 1_655 S
C546 N554 1.358 . S
C547 C546 1.361 1_456 S
C547 C553 1.384 . S
C548 C549 1.363 1_556 S
C548 C553 1.379 . S
C548 N555 1.356 . S
C549 C548 1.363 1_554 S
C549 C552 1.363 . S
N550 C552 1.356 . S
N550 H562 0.984 . S
N550 H563 0.985 . S
N551 C553 1.356 . S
N551 H556 0.984 1_455 S
N551 H557 0.985 . S
C552 C546 1.377 1_455 S
C552 C549 1.363 . S
C552 N550 1.356 . S
C553 C547 1.384 . S
C553 C548 1.379 . S
C553 N551 1.356 . S
N554 C546 1.358 . S
N554 H560 0.984 . S
N554 H561 0.984 1_554 S
N555 C548 1.356 . S
N555 H558 0.976 1_556 S
N555 H559 0.985 . S
H556 N551 0.984 1_655 S
H557 N551 0.985 . S
H558 N555 0.976 1_554 S
H559 N555 0.985 . S
H560 N554 0.984 . S
H561 N554 0.984 1_556 S
H562 N550 0.984 . S
H563 N550 0.985 . S
C564 C565 1.363 . S
C564 C570 1.396 . S
C564 N572 1.356 . S
C565 C564 1.363 . S
C565 C571 1.363 . S
C566 C567 1.363 . S
C566 C571 1.379 . S
C566 N573 1.356 . S
C567 C566 1.363 . S
C567 C570 1.371 . S
N568 C570 1.331 1_565 S
N568 H580 0.984 . S
N568 H581 0.985 . S
N569 C571 1.356 . S
N569 H574 0.984 . S
N569 H575 0.985 . S
C570 C564 1.396 . S
C570 C567 1.371 . S
C570 N568 1.331 1_545 S
C571 C565 1.363 . S
C571 C566 1.379 . S
C571 N569 1.356 . S
N572 C564 1.356 . S
N572 H578 0.984 . S
N572 H579 0.984 . S
N573 C566 1.356 . S
N573 H576 0.984 1_545 S
N573 H577 0.985 . S
H574 N569 0.984 . S
H575 N569 0.985 . S
H576 N573 0.984 1_565 S
H577 N573 0.985 . S
H578 N572 0.984 . S
H579 N572 0.984 . S
H580 N568 0.984 . S
H581 N568 0.985 . S
C582 C583 1.363 . S
C582 C588 1.379 . S
C582 N590 1.356 . S
C583 C582 1.363 . S
C583 C589 1.363 1_556 S
C584 C585 1.363 . S
C584 C589 1.379 . S
C584 N591 1.356 . S
C585 C584 1.363 . S
C585 C588 1.363 1_554 S
N586 C588 1.356 . S
N586 H598 0.984 . S
N586 H599 0.985 1_556 S
N587 C589 1.356 . S
N587 H592 0.984 1_554 S
N587 H593 0.985 . S
C588 C582 1.379 . S
C588 C585 1.363 1_556 S
C588 N586 1.356 . S
C589 C583 1.363 1_554 S
C589 C584 1.379 . S
C589 N587 1.356 . S
N590 C582 1.356 . S
N590 H596 0.984 . S
N590 H597 0.984 . S
N591 C584 1.356 . S
N591 H594 0.984 . S
N591 H595 0.985 . S
H592 N587 0.984 1_556 S
H593 N587 0.985 . S
H594 N591 0.984 . S
H595 N591 0.985 . S
H596 N590 0.984 . S
H597 N590 0.984 . S
H598 N586 0.984 . S
H599 N586 0.985 1_554 S
C600 C601 1.363 . S
C600 C606 1.379 1_455 S
C600 N608 1.356 . S
C601 C600 1.363 . S
C601 C607 1.363 . S
C602 C603 1.368 . S
C602 C607 1.379 . S
C602 N609 1.356 . S
C603 C602 1.368 . S
C603 C606 1.364 1_455 S
N604 C606 1.356 . S
N604 H616 0.984 . S
N604 H617 0.985 . S
N605 C607 1.356 . S
N605 H610 0.984 . S
N605 H611 0.985 . S
C606 C600 1.379 1_655 S
C606 C603 1.364 1_655 S
C606 N604 1.356 . S
C607 C601 1.363 . S
C607 C602 1.379 . S
C607 N605 1.356 . S
N608 C600 1.356 . S
N608 H614 0.984 . S
N608 H615 0.984 . S
N609 C602 1.356 . S
N609 H612 0.988 . S
N609 H613 0.985 . S
H610 N605 0.984 . S
H611 N605 0.985 . S
H612 N609 0.988 . S
H613 N609 0.985 . S
H614 N608 0.984 . S
H615 N608 0.984 . S
H616 N604 0.984 . S
H617 N604 0.985 . S
C618 C619 1.363 1_554 S
C618 C624 1.379 . S
C618 N626 1.356 . S
C619 C618 1.363 1_556 S
C619 C625 1.363 . S
C620 C621 1.363 1_556 S
C620 C625 1.379 . S
C620 N627 1.356 1_545 S
C621 C620 1.363 1_554 S
C621 C624 1.363 . S
N622 C624 1.356 . S
N622 H634 0.984 . S
N622 H635 1.005 . S
N623 C625 1.356 . S
N623 H628 0.984 . S
N623 H629 0.985 . S
C624 C618 1.379 . S
C624 C621 1.363 . S
C624 N622 1.356 . S
C625 C619 1.363 . S
C625 C620 1.379 . S
C625 N623 1.356 . S
N626 C618 1.356 . S
N626 H632 0.984 . S
N626 H633 0.984 . S
N627 C620 1.356 1_565 S
N627 H630 0.981 1_556 S
N627 H631 0.985 . S
H628 N623 0.984 . S
H629 N623 0.985 . S
H630 N627 0.981 1_554 S
H631 N627 0.985 . S
H632 N626 0.984 . S
H633 N626 0.984 . S
H634 N622 0.984 . S
H635 N622 1.005 . S
C636 C637 1.363 . S
C636 C642 1.379 . S
C636 N644 1.356 . S
C637 C636 1.363 . S
C637 C643 1.363 . S
C638 C639 1.363 . S
C638 C643 1.379 . S
C638 N645 1.356 . S
C639 C638 1.363 . S
C639 C642 1.363 . S
N640 C642 1.356 . S
N640 H652 0.984 . S
N640 H653 0.985 . S
N641 C643 1.356 . S
N641 H646 0.984 . S
N641 H647 0.985 . S
C642 C636 1.379 . S
C642 C639 1.363 . S
C642 N640 1.356 . S
C643 C637 1.363 . S
C643 C638 1.379 . S
C643 N641 1.356 . S
N644 C636 1.356 . S
N644 H650 0.984 . S
N644 H651 0.984 . S
N645 C638 1.356 . S
N645 H648 0.984 . S
N645 H649 0.985 . S
H646 N641 0.984 . S
H647 N641 0.985 . S
H648 N645 0.984 . S
H649 N645 0.985 . S
H650 N644 0.984 . S
H651 N644 0.984 . S
H652 N640 0.984 . S
H653 N640 0.985 . S
C654 C655 1.363 . S
C654 C660 1.379 . S
C654 N662 1.356 . S
C655 C654 1.363 . S
C655 C661 1.363 1_554 S
C656 C657 1.363 . S
C656 C661 1.379 . S
C656 N663 1.356 . S
C657 C656 1.363 . S
C657 C660 1.363 1_556 S
N658 C660 1.356 . S
N658 H670 0.984 . S
N658 H671 0.985 1_554 S
N659 C661 1.356 1_455 S
N659 H664 0.984 1_556 S
N659 H665 0.985 . S
C660 C654 1.379 . S
C660 C657 1.363 1_554 S
C660 N658 1.356 . S
C661 C655 1.363 1_556 S
C661 C656 1.379 . S
C661 N659 1.356 1_655 S
N662 C654 1.356 . S
N662 H668 0.984 . S
N662 H669 0.984 1_655 S
N663 C656 1.356 . S
N663 H666 0.984 . S
N663 H667 0.985 . S
H664 N659 0.984 1_554 S
H665 N659 0.985 . S
H666 N663 0.984 . S
H667 N663 0.985 . S
H668 N662 0.984 . S
H669 N662 0.984 1_455 S
H670 N658 0.984 . S
H671 N658 0.985 1_556 S
C672 C673 1.363 . S
C672 C678 1.379 . S
C672 N680 1.356 . S
C673 C672 1.363 . S
C673 C679 1.363 1_565 S
C674 C675 1.363 . S
C674 C679 1.379 1_565 S
C674 N681 1.356 . S
C675 C674 1.363 . S
C675 C678 1.363 . S
N676 C678 1.356 . S
N676 H688 0.984 . S
N676 H689 0.985 . S
N677 C679 1.356 . S
N677 H682 0.984 . S
N677 H683 0.985 . S
C678 C672 1.379 . S
C678 C675 1.363 . S
C678 N676 1.356 . S
C679 C673 1.363 1_545 S
C679 C674 1.379 1_545 S
C679 N677 1.356 . S
N680 C672 1.356 . S
N680 H686 0.984 . S
N680 H687 0.984 . S
N681 C674 1.356 . S
N681 H684 0.984 . S
N681 H685 0.985 . S
H682 N677 0.984 . S
H683 N677 0.985 . S
H684 N681 0.984 . S
H685 N681 0.985 . S
H686 N680 0.984 . S
H687 N680 0.984 . S
H688 N676 0.984 . S
H689 N676 0.985 . S
C259 C32 1.438 . S
C261 N175 1.446 . S
C277 N223 1.418 . S
C279 C56 1.291 . S
C295 N8 1.447 . S
C297 C118 1.438 . S
C313 N51 1.418 . S
C315 C142 1.290 . S
C331 C199 1.438 . S
C333 N94 1.447 . S
C349 C228 1.291 . S
C351 N137 1.418 . S
C367 C33 1.278 . S
C369 N180 1.018 . S
C385 C82 1.179 . S
C387 N218 1.151 . S
C403 N3 1.018 . S
C405 C119 1.278 . S
C421 N46 1.151 . S
C423 C168 1.179 . S
C439 N89 1.018 . S
C441 C212 1.278 . S
C457 C254 1.179 . S
C459 N132 1.151 . S
C475 C13 1.939 . S
C477 C242 1.879 . S
C493 C83 1.971 . S
C495 C39 1.699 1_655 S
C511 C99 1.939 . S
C513 C70 1.879 1_565 S
C529 C169 1.971 . S
C531 C125 1.699 . S
C547 C156 1.864 1_455 S
C549 C211 1.939 . S
C565 C255 1.970 . S
C567 C185 1.699 1_545 S
C583 C161 1.997 . S
C585 C113 1.921 . S
C601 C205 1.858 . S
C603 C162 1.763 1_455 S
C619 C247 1.997 . S
C621 C204 1.921 1_545 S
C637 C248 1.768 . S
C639 C40 1.858 . S
C655 C27 1.922 1_655 S
C657 C75 1.997 . S
C673 C76 1.768 1_565 S
C675 C126 1.858 . S
