# Generated by pormake.
# Topology zfg, (5)-cn, num edge types: 1
# Building blocks:
#     Node 0, Type 0, BuildingBlock: BEQFEK_clean_sbu_0, # of connection points: 5
#     Node 1, Type 0, BuildingBlock: BEQFEK_clean_sbu_0, # of connection points: 5
#     Node 2, Type 0, BuildingBlock: BEQFEK_clean_sbu_0, # of connection points: 5
#     Node 3, Type 0, BuildingBlock: BEQFEK_clean_sbu_0, # of connection points: 5
#     Node 4, Type 0, BuildingBlock: BEQFEK_clean_sbu_0, # of connection points: 5
#     Node 5, Type 0, BuildingBlock: BEQFEK_clean_sbu_0, # of connection points: 5
#     Node 6, Type 0, BuildingBlock: BEQFEK_clean_sbu_0, # of connection points: 5
#     Node 7, Type 0, BuildingBlock: BEQFEK_clean_sbu_0, # of connection points: 5
#     Node 8, Type 0, BuildingBlock: BEQFEK_clean_sbu_0, # of connection points: 5
#     Node 9, Type 0, BuildingBlock: BEQFEK_clean_sbu_0, # of connection points: 5
#     Node 10, Type 0, BuildingBlock: BEQFEK_clean_sbu_0, # of connection points: 5
#     Node 11, Type 0, BuildingBlock: BEQFEK_clean_sbu_0, # of connection points: 5
#     Node 12, Type 0, BuildingBlock: BEQFEK_clean_sbu_0, # of connection points: 5
#     Node 13, Type 0, BuildingBlock: BEQFEK_clean_sbu_0, # of connection points: 5
#     Node 14, Type 0, BuildingBlock: BEQFEK_clean_sbu_0, # of connection points: 5
#     Node 15, Type 0, BuildingBlock: BEQFEK_clean_sbu_0, # of connection points: 5
#     Edge 16, Type (0, 0), BuildingBlock: EZIPEK_clean_linker_0, # of connection points: 2
#     Edge 17, Type (0, 0), BuildingBlock: EZIPEK_clean_linker_0, # of connection points: 2
#     Edge 18, Type (0, 0), BuildingBlock: EZIPEK_clean_linker_0, # of connection points: 2
#     Edge 19, Type (0, 0), BuildingBlock: EZIPEK_clean_linker_0, # of connection points: 2
#     Edge 20, Type (0, 0), BuildingBlock: EZIPEK_clean_linker_0, # of connection points: 2
#     Edge 21, Type (0, 0), BuildingBlock: EZIPEK_clean_linker_0, # of connection points: 2
#     Edge 22, Type (0, 0), BuildingBlock: EZIPEK_clean_linker_0, # of connection points: 2
#     Edge 23, Type (0, 0), BuildingBlock: EZIPEK_clean_linker_0, # of connection points: 2
#     Edge 24, Type (0, 0), BuildingBlock: EZIPEK_clean_linker_0, # of connection points: 2
#     Edge 25, Type (0, 0), BuildingBlock: EZIPEK_clean_linker_0, # of connection points: 2
#     Edge 26, Type (0, 0), BuildingBlock: EZIPEK_clean_linker_0, # of connection points: 2
#     Edge 27, Type (0, 0), BuildingBlock: EZIPEK_clean_linker_0, # of connection points: 2
#     Edge 28, Type (0, 0), BuildingBlock: EZIPEK_clean_linker_0, # of connection points: 2
#     Edge 29, Type (0, 0), BuildingBlock: EZIPEK_clean_linker_0, # of connection points: 2
#     Edge 30, Type (0, 0), BuildingBlock: EZIPEK_clean_linker_0, # of connection points: 2
#     Edge 31, Type (0, 0), BuildingBlock: EZIPEK_clean_linker_0, # of connection points: 2
#     Edge 32, Type (0, 0), BuildingBlock: EZIPEK_clean_linker_0, # of connection points: 2
#     Edge 33, Type (0, 0), BuildingBlock: EZIPEK_clean_linker_0, # of connection points: 2
#     Edge 34, Type (0, 0), BuildingBlock: EZIPEK_clean_linker_0, # of connection points: 2
#     Edge 35, Type (0, 0), BuildingBlock: EZIPEK_clean_linker_0, # of connection points: 2
#     Edge 36, Type (0, 0), BuildingBlock: EZIPEK_clean_linker_0, # of connection points: 2
#     Edge 37, Type (0, 0), BuildingBlock: EZIPEK_clean_linker_0, # of connection points: 2
#     Edge 38, Type (0, 0), BuildingBlock: EZIPEK_clean_linker_0, # of connection points: 2
#     Edge 39, Type (0, 0), BuildingBlock: EZIPEK_clean_linker_0, # of connection points: 2
#     Edge 40, Type (0, 0), BuildingBlock: EZIPEK_clean_linker_0, # of connection points: 2
#     Edge 41, Type (0, 0), BuildingBlock: EZIPEK_clean_linker_0, # of connection points: 2
#     Edge 42, Type (0, 0), BuildingBlock: EZIPEK_clean_linker_0, # of connection points: 2
#     Edge 43, Type (0, 0), BuildingBlock: EZIPEK_clean_linker_0, # of connection points: 2
#     Edge 44, Type (0, 0), BuildingBlock: EZIPEK_clean_linker_0, # of connection points: 2
#     Edge 45, Type (0, 0), BuildingBlock: EZIPEK_clean_linker_0, # of connection points: 2
#     Edge 46, Type (0, 0), BuildingBlock: EZIPEK_clean_linker_0, # of connection points: 2
#     Edge 47, Type (0, 0), BuildingBlock: EZIPEK_clean_linker_0, # of connection points: 2
#     Edge 48, Type (0, 0), BuildingBlock: EZIPEK_clean_linker_0, # of connection points: 2
#     Edge 49, Type (0, 0), BuildingBlock: EZIPEK_clean_linker_0, # of connection points: 2
#     Edge 50, Type (0, 0), BuildingBlock: EZIPEK_clean_linker_0, # of connection points: 2
#     Edge 51, Type (0, 0), BuildingBlock: EZIPEK_clean_linker_0, # of connection points: 2
#     Edge 52, Type (0, 0), BuildingBlock: EZIPEK_clean_linker_0, # of connection points: 2
#     Edge 53, Type (0, 0), BuildingBlock: EZIPEK_clean_linker_0, # of connection points: 2
#     Edge 54, Type (0, 0), BuildingBlock: EZIPEK_clean_linker_0, # of connection points: 2
#     Edge 55, Type (0, 0), BuildingBlock: EZIPEK_clean_linker_0, # of connection points: 2
# Relax obj value: 0.054
# Max RMSD: 0.068
# Mean RMSD: 0.068
data_MOF--net-zfg--node1-BEQFEK_clean_sbu_0--edge1-EZIPEK_clean_linker_0
_symmetry_space_group_name_H-M    P1
_symmetry_Int_Tables_number       1
_symmetry_cell_setting            triclinic
loop_
_symmetry_equiv_pos_as_xyz
'x, y, z'
_cell_length_a     33.087447
_cell_length_b     33.119372
_cell_length_c     42.92429
_cell_angle_alpha  89.955022
_cell_angle_beta   90.080002
_cell_angle_gamma 90.131865
loop_
_atom_site_label
_atom_site_type_symbol
_atom_site_fract_x
_atom_site_fract_y
_atom_site_fract_z
_atom_type_partial_charge
Co0 Co 0.08965 0.21576 0.14146 0.0
Co1 Co 0.05532 0.30279 0.12946 0.0
C2 C 0.09506 0.25917 0.07838 0.0
O3 O 0.10382 0.2304 0.09707 0.0
O4 O 0.07617 0.29045 0.08765 0.0
C5 C 0.15143 0.15447 0.14236 0.0
O6 O 0.17268 0.1817 0.12727 0.0
C7 C 0.03683 0.38905 0.11495 0.0
C8 C 0.00336 0.40501 0.15778 0.0
C9 C 0.01743 0.42076 0.12998 0.0
N10 N 0.0348 0.35628 0.13347 0.0
N11 N 0.01445 0.36605 0.15884 0.0
C12 C 0.05642 0.3895 0.08359 0.0
H13 H 0.08903 0.38246 0.08625 0.0
H14 H 0.05283 0.41922 0.07196 0.0
H15 H 0.04287 0.36547 0.06888 0.0
C16 C 0.12526 0.25911 0.19629 0.0
N17 N 0.10456 0.25779 0.16923 0.0
N18 N 0.09551 0.29478 0.16075 0.0
C19 C 0.11336 0.32096 0.18048 0.0
C20 C 0.13197 0.29938 0.20444 0.0
C21 C 0.13532 0.22253 0.21512 0.0
H22 H 0.11323 0.19805 0.2103 0.0
H23 H 0.16581 0.21187 0.20846 0.0
H24 H 0.13549 0.22964 0.24038 0.0
O25 O 0.03102 0.20577 0.14316 0.0
O26 O 0.00691 0.26751 0.13556 0.0
H27 H 0.08732 0.37993 0.18515 0.0
H28 H 0.14164 0.37922 0.18677 0.0
C29 C 0.11473 0.36571 0.17531 0.0
H30 H 0.1155 0.37235 0.14998 0.0
H31 H 0.00852 0.34608 0.17709 0.0
O32 O 0.11601 0.16311 0.15157 0.0
C33 C 0.00147 0.22994 0.14024 0.0
Co34 Co 0.78608 0.09319 0.13319 0.0
Co35 Co 0.69809 0.06284 0.12169 0.0
C36 C 0.74123 0.09561 0.06948 0.0
O37 O 0.77206 0.09999 0.08723 0.0
O38 O 0.70752 0.08276 0.07978 0.0
C39 C 0.84118 0.15999 0.13364 0.0
O40 O 0.8109 0.17918 0.12055 0.0
C41 C 0.61136 0.0429 0.11144 0.0
C42 C 0.59911 0.01044 0.15555 0.0
C43 C 0.58113 0.02365 0.1283 0.0
N44 N 0.64553 0.04167 0.12839 0.0
N45 N 0.63802 0.02191 0.15452 0.0
C46 C 0.60817 0.06182 0.07992 0.0
H47 H 0.63099 0.04815 0.06423 0.0
H48 H 0.61528 0.0945 0.08177 0.0
H49 H 0.57752 0.05777 0.06984 0.0
C50 C 0.74378 0.12932 0.18825 0.0
N51 N 0.74447 0.1108 0.16028 0.0
N52 N 0.70723 0.10388 0.15133 0.0
C53 C 0.68157 0.1214 0.1714 0.0
C54 C 0.70357 0.13699 0.19638 0.0
C55 C 0.78055 0.13457 0.2082 0.0
H56 H 0.80236 0.10987 0.20358 0.0
H57 H 0.7956 0.16344 0.20219 0.0
H58 H 0.77249 0.135 0.23328 0.0
O59 O 0.7961 0.03555 0.13968 0.0
O60 O 0.73408 0.0149 0.12771 0.0
H61 H 0.62133 0.09738 0.17505 0.0
H62 H 0.62438 0.15147 0.17783 0.0
C63 C 0.63691 0.12452 0.16594 0.0
H64 H 0.63065 0.12642 0.14057 0.0
H65 H 0.65948 0.01676 0.1719 0.0
O66 O 0.83699 0.12321 0.14151 0.0
C67 C 0.77068 0.00741 0.13484 0.0
Co68 Co 0.8958 0.78692 0.13341 0.0
Co69 Co 0.94274 0.70481 0.12542 0.0
C70 C 0.89966 0.74094 0.07197 0.0
O71 O 0.8896 0.77132 0.08851 0.0
O72 O 0.9191 0.71125 0.08338 0.0
C73 C 0.8262 0.84186 0.13435 0.0
O74 O 0.80482 0.81201 0.12273 0.0
C75 C 0.96679 0.61986 0.11297 0.0
C76 C 0.01116 0.61045 0.15081 0.0
C77 C 0.99175 0.59096 0.12648 0.0
N78 N 0.97064 0.65447 0.12917 0.0
N79 N 0.99772 0.64872 0.15139 0.0
C80 C 0.93968 0.61491 0.08532 0.0
H81 H 0.94894 0.63658 0.06692 0.0
H82 H 0.9082 0.6224 0.09205 0.0
H83 H 0.94094 0.58376 0.07588 0.0
C84 C 0.85885 0.74087 0.18596 0.0
N85 N 0.88335 0.74375 0.16096 0.0
N86 N 0.90266 0.7093 0.15739 0.0
C87 C 0.89031 0.68333 0.17972 0.0
C88 C 0.8624 0.70254 0.19859 0.0
C89 C 0.8327 0.77414 0.19772 0.0
H90 H 0.80477 0.77476 0.18344 0.0
H91 H 0.82404 0.7692 0.2224 0.0
H92 H 0.84851 0.80352 0.19535 0.0
O93 O 0.95243 0.80393 0.13961 0.0
O94 O 0.98521 0.74715 0.12931 0.0
H95 H 0.88665 0.62358 0.20005 0.0
H96 H 0.90576 0.6259 0.16066 0.0
C97 C 0.90557 0.64119 0.18357 0.0
H98 H 0.93689 0.64219 0.19273 0.0
H99 H 0.00631 0.67075 0.16746 0.0
O100 O 0.86332 0.83664 0.14081 0.0
C101 C 0.98522 0.78482 0.13526 0.0
Co102 Co 0.21413 0.90378 0.13683 0.0
Co103 Co 0.29689 0.94997 0.13151 0.0
C104 C 0.26214 0.90701 0.07683 0.0
O105 O 0.23127 0.89599 0.09244 0.0
O106 O 0.29065 0.92745 0.08911 0.0
C107 C 0.14054 0.86407 0.12307 0.0
O108 O 0.14912 0.8774 0.09502 0.0
C109 C 0.38145 0.97349 0.11872 0.0
C110 C 0.39279 0.01573 0.15765 0.0
C111 C 0.41098 0.9976 0.13226 0.0
N112 N 0.34758 0.97661 0.13582 0.0
N113 N 0.35443 0.00235 0.15875 0.0
C114 C 0.38509 0.94801 0.09011 0.0
H115 H 0.36348 0.95906 0.07226 0.0
H116 H 0.37667 0.9164 0.0958 0.0
H117 H 0.41614 0.94899 0.0804 0.0
C118 C 0.25773 0.86548 0.18995 0.0
N119 N 0.25622 0.89073 0.1653 0.0
N120 N 0.29126 0.90931 0.16258 0.0
C121 C 0.31635 0.89586 0.1851 0.0
C122 C 0.29589 0.86796 0.20328 0.0
C123 C 0.223 0.84029 0.20088 0.0
H124 H 0.19619 0.85981 0.20441 0.0
H125 H 0.21529 0.81792 0.18259 0.0
H126 H 0.23031 0.8242 0.22286 0.0
O127 O 0.19731 0.9609 0.14177 0.0
O128 O 0.256 0.99301 0.13681 0.0
H129 H 0.37577 0.88967 0.20564 0.0
H130 H 0.37452 0.91168 0.16709 0.0
C131 C 0.35883 0.91008 0.18983 0.0
H132 H 0.35838 0.94066 0.20029 0.0
H133 H 0.33302 0.01024 0.17548 0.0
O134 O 0.16509 0.87081 0.14526 0.0
C135 C 0.2179 0.99335 0.14055 0.0
Co136 Co 0.58752 0.28343 0.37265 0.0
Co137 Co 0.55002 0.19747 0.38362 0.0
C138 C 0.59096 0.23748 0.43518 0.0
O139 O 0.59745 0.26829 0.41787 0.0
O140 O 0.57338 0.20595 0.42493 0.0
C141 C 0.65347 0.34056 0.37131 0.0
O142 O 0.67448 0.31089 0.38356 0.0
C143 C 0.53181 0.10971 0.39189 0.0
C144 C 0.47813 0.1046 0.36137 0.0
C145 C 0.50338 0.08255 0.38058 0.0
N146 N 0.52382 0.14629 0.3797 0.0
N147 N 0.49145 0.14296 0.36177 0.0
C148 C 0.56656 0.10056 0.41304 0.0
H149 H 0.58742 0.12675 0.41467 0.0
H150 H 0.583 0.07361 0.40443 0.0
H151 H 0.55495 0.09334 0.43663 0.0
C152 C 0.6231 0.23978 0.31829 0.0
N153 N 0.60143 0.24103 0.34483 0.0
N154 N 0.58996 0.20421 0.35208 0.0
C155 C 0.60711 0.17803 0.33208 0.0
C156 C 0.62812 0.19963 0.30932 0.0
C157 C 0.63538 0.27657 0.30054 0.0
H158 H 0.61231 0.3005 0.30362 0.0
H159 H 0.66458 0.28773 0.3099 0.0
H160 H 0.63902 0.26988 0.27538 0.0
O161 O 0.53031 0.29681 0.36854 0.0
O162 O 0.50434 0.23675 0.37964 0.0
H163 H 0.57406 0.12263 0.32949 0.0
H164 H 0.62741 0.11751 0.32101 0.0
C165 C 0.60484 0.13315 0.33575 0.0
H166 H 0.61048 0.12513 0.36039 0.0
H167 H 0.4788 0.16685 0.3493 0.0
O168 O 0.61684 0.33464 0.36376 0.0
C169 C 0.50008 0.27412 0.37358 0.0
Co170 Co 0.71103 0.59154 0.37453 0.0
Co171 Co 0.79593 0.5499 0.38237 0.0
C172 C 0.75613 0.59193 0.43559 0.0
O173 O 0.72631 0.60287 0.41872 0.0
O174 O 0.7855 0.57172 0.42451 0.0
C175 C 0.64762 0.65064 0.37902 0.0
O176 O 0.67279 0.66852 0.3983 0.0
C177 C 0.88097 0.53081 0.39784 0.0
C178 C 0.89508 0.48782 0.35999 0.0
C179 C 0.91164 0.50715 0.38557 0.0
N180 N 0.84801 0.52619 0.37983 0.0
N181 N 0.85655 0.5001 0.35752 0.0
C182 C 0.88252 0.55683 0.42629 0.0
H183 H 0.86071 0.5451 0.44372 0.0
H184 H 0.87302 0.58795 0.42011 0.0
H185 H 0.91322 0.55737 0.43671 0.0
C186 C 0.75516 0.6315 0.32212 0.0
N187 N 0.75356 0.60638 0.34682 0.0
N188 N 0.78932 0.58967 0.35069 0.0
C189 C 0.81474 0.604 0.32871 0.0
C190 C 0.79384 0.63064 0.30974 0.0
C191 C 0.72015 0.6552 0.31025 0.0
H192 H 0.69592 0.63394 0.30307 0.0
H193 H 0.70843 0.67445 0.32932 0.0
H194 H 0.72871 0.67451 0.29015 0.0
O195 O 0.69846 0.53308 0.37144 0.0
O196 O 0.75871 0.50434 0.37616 0.0
H197 H 0.85911 0.56065 0.31552 0.0
H198 H 0.87458 0.61209 0.30926 0.0
C199 C 0.85794 0.59162 0.32522 0.0
H200 H 0.87297 0.59166 0.34831 0.0
H201 H 0.83607 0.49097 0.34041 0.0
O202 O 0.65869 0.6188 0.36498 0.0
C203 C 0.72072 0.50188 0.37259 0.0
Co204 Co 0.39552 0.71519 0.38172 0.0
Co205 Co 0.44662 0.79509 0.38842 0.0
C206 C 0.40114 0.7589 0.44244 0.0
O207 O 0.38576 0.73107 0.42569 0.0
O208 O 0.42441 0.78573 0.4309 0.0
C209 C 0.32639 0.66043 0.38194 0.0
O210 O 0.30743 0.68904 0.39717 0.0
C211 C 0.46368 0.88267 0.39407 0.0
C212 C 0.52788 0.88435 0.37985 0.0
C213 C 0.49602 0.90856 0.38898 0.0
N214 N 0.47584 0.84479 0.38794 0.0
N215 N 0.51439 0.84604 0.37989 0.0
C216 C 0.42174 0.89385 0.40358 0.0
H217 H 0.40063 0.86822 0.39973 0.0
H218 H 0.41155 0.92086 0.39043 0.0
H219 H 0.42169 0.90171 0.4287 0.0
C220 C 0.36014 0.76193 0.32903 0.0
N221 N 0.38515 0.7587 0.35372 0.0
N222 N 0.4069 0.792 0.35601 0.0
C223 C 0.39681 0.81694 0.33232 0.0
C224 C 0.36659 0.79889 0.31475 0.0
C225 C 0.33084 0.7301 0.31917 0.0
H226 H 0.34634 0.70048 0.31809 0.0
H227 H 0.30656 0.72824 0.33688 0.0
H228 H 0.31708 0.73707 0.29621 0.0
O229 O 0.45283 0.69659 0.37836 0.0
O230 O 0.48785 0.75371 0.38192 0.0
H231 H 0.45045 0.85328 0.32978 0.0
H232 H 0.41323 0.86431 0.3001 0.0
C233 C 0.41768 0.85586 0.3249 0.0
H234 H 0.40486 0.88018 0.33954 0.0
H235 H 0.53135 0.82078 0.37371 0.0
O236 O 0.36245 0.66618 0.37279 0.0
C237 C 0.48626 0.7157 0.37872 0.0
Co238 Co 0.28453 0.40935 0.38204 0.0
Co239 Co 0.19693 0.43952 0.39383 0.0
C240 C 0.24079 0.40592 0.44585 0.0
O241 O 0.27137 0.40178 0.42794 0.0
O242 O 0.20705 0.41897 0.43575 0.0
C243 C 0.34057 0.34426 0.38292 0.0
O244 O 0.31178 0.32591 0.39853 0.0
C245 C 0.1111 0.46063 0.40591 0.0
C246 C 0.09716 0.49193 0.36161 0.0
C247 C 0.08039 0.47987 0.38961 0.0
N248 N 0.14433 0.46072 0.38793 0.0
N249 N 0.13585 0.47984 0.3617 0.0
C250 C 0.10932 0.44302 0.43795 0.0
H251 H 0.13318 0.45703 0.45261 0.0
H252 H 0.1158 0.4102 0.43668 0.0
H253 H 0.0793 0.44787 0.44882 0.0
C254 C 0.24253 0.37231 0.32738 0.0
N255 N 0.24288 0.39161 0.35503 0.0
N256 N 0.20559 0.39909 0.36342 0.0
C257 C 0.1801 0.38147 0.3431 0.0
C258 C 0.20243 0.36488 0.31873 0.0
C259 C 0.27974 0.36559 0.3083 0.0
H260 H 0.30165 0.39049 0.31231 0.0
H261 H 0.29436 0.33709 0.31574 0.0
H262 H 0.27236 0.36356 0.28312 0.0
O263 O 0.29457 0.46702 0.37577 0.0
O264 O 0.23282 0.48773 0.38804 0.0
H265 H 0.12054 0.40629 0.3378 0.0
H266 H 0.12253 0.3521 0.33601 0.0
C267 C 0.13525 0.37917 0.34772 0.0
H268 H 0.12816 0.37811 0.37297 0.0
H269 H 0.15651 0.48422 0.34365 0.0
O270 O 0.3351 0.37999 0.37303 0.0
C271 C 0.26941 0.49518 0.38082 0.0
Co272 Co 0.91226 0.78622 0.87463 0.0
Co273 Co 0.94349 0.69889 0.88676 0.0
C274 C 0.90543 0.74208 0.93772 0.0
O275 O 0.89905 0.77186 0.91937 0.0
O276 O 0.92221 0.7098 0.92832 0.0
C277 C 0.84618 0.84171 0.86516 0.0
O278 O 0.82307 0.80975 0.86861 0.0
C279 C 0.96393 0.61394 0.90171 0.0
C280 C 0.99468 0.59688 0.85791 0.0
C281 C 0.983 0.58218 0.88668 0.0
N282 N 0.96382 0.64582 0.88231 0.0
N283 N 0.98254 0.63548 0.85635 0.0
C284 C 0.94699 0.61451 0.93398 0.0
H285 H 0.9143 0.6218 0.93285 0.0
H286 H 0.95132 0.58508 0.9459 0.0
H287 H 0.962 0.63876 0.94759 0.0
C288 C 0.87768 0.7437 0.81864 0.0
N289 N 0.89662 0.74469 0.84649 0.0
N290 N 0.90373 0.70753 0.85553 0.0
C291 C 0.88597 0.6817 0.83553 0.0
C292 C 0.86967 0.70356 0.81079 0.0
C293 C 0.87291 0.77974 0.79796 0.0
H294 H 0.88974 0.80603 0.80742 0.0
H295 H 0.84059 0.78757 0.79583 0.0
H296 H 0.88405 0.77258 0.77422 0.0
O297 O 0.97085 0.79623 0.87233 0.0
O298 O 0.99227 0.73378 0.88131 0.0
H299 H 0.9098 0.62179 0.83061 0.0
H300 H 0.8556 0.62453 0.82959 0.0
C301 C 0.88317 0.63703 0.84079 0.0
H302 H 0.88265 0.63041 0.86614 0.0
H303 H 0.98682 0.65486 0.83745 0.0
O304 O 0.8844 0.83798 0.86578 0.0
C305 C 0.99929 0.77096 0.87607 0.0
Co306 Co 0.22063 0.89899 0.87983 0.0
Co307 Co 0.3019 0.947 0.89073 0.0
C308 C 0.26604 0.90154 0.94236 0.0
O309 O 0.23615 0.89116 0.92517 0.0
O310 O 0.29551 0.9221 0.93175 0.0
C311 C 0.16316 0.83263 0.88312 0.0
O312 O 0.18973 0.81617 0.902 0.0
C313 C 0.38634 0.97329 0.90324 0.0
C314 C 0.39708 0.011 0.86151 0.0
C315 C 0.41593 0.99522 0.88761 0.0
N316 N 0.35194 0.9752 0.88654 0.0
N317 N 0.35845 0.99838 0.86197 0.0
C318 C 0.39068 0.95018 0.933 0.0
H319 H 0.36751 0.96061 0.94982 0.0
H320 H 0.38495 0.91767 0.92854 0.0
H321 H 0.42124 0.95417 0.94328 0.0
C322 C 0.26915 0.86895 0.82531 0.0
N323 N 0.26429 0.8905 0.85165 0.0
N324 N 0.29841 0.90877 0.85807 0.0
C325 C 0.32671 0.89784 0.83733 0.0
C326 C 0.30817 0.8758 0.81323 0.0
C327 C 0.23956 0.8371 0.81564 0.0
H328 H 0.22841 0.82124 0.8367 0.0
H329 H 0.25339 0.81444 0.79996 0.0
H330 H 0.21325 0.85151 0.80412 0.0
O331 O 0.20261 0.9555 0.87601 0.0
O332 O 0.25912 0.98878 0.88727 0.0
H333 H 0.3861 0.92459 0.84076 0.0
H334 H 0.38609 0.86999 0.83656 0.0
C335 C 0.37034 0.8962 0.847 0.0
H336 H 0.37228 0.89309 0.87269 0.0
H337 H 0.33685 0.00431 0.84485 0.0
O338 O 0.17141 0.86606 0.86999 0.0
C339 C 0.22144 0.98835 0.88119 0.0
Co340 Co 0.10059 0.21557 0.88236 0.0
Co341 Co 0.05881 0.29993 0.88989 0.0
C342 C 0.0988 0.26073 0.9439 0.0
O343 O 0.10939 0.23108 0.92686 0.0
O344 O 0.07961 0.29078 0.93274 0.0
C345 C 0.13917 0.1412 0.89561 0.0
O346 O 0.12681 0.14979 0.9239 0.0
C347 C 0.03756 0.38492 0.90327 0.0
C348 C 0.99528 0.39674 0.86435 0.0
C349 C 0.01366 0.4146 0.88982 0.0
N350 N 0.03401 0.35125 0.886 0.0
N351 N 0.00833 0.35842 0.86306 0.0
C352 C 0.06297 0.3881 0.93201 0.0
H353 H 0.05122 0.36685 0.94984 0.0
H354 H 0.0944 0.37887 0.92653 0.0
H355 H 0.06279 0.4192 0.9416 0.0
C356 C 0.14074 0.25891 0.83009 0.0
N357 N 0.11587 0.25785 0.85495 0.0
N358 N 0.0994 0.29366 0.85868 0.0
C359 C 0.11379 0.31877 0.8365 0.0
C360 C 0.14015 0.29753 0.81751 0.0
C361 C 0.16377 0.22333 0.81825 0.0
H362 H 0.18686 0.21475 0.83576 0.0
H363 H 0.179 0.23011 0.79582 0.0
H364 H 0.14294 0.19731 0.81527 0.0
O365 O 0.04249 0.20155 0.87694 0.0
O366 O 0.01392 0.26162 0.88327 0.0
H367 H 0.12226 0.37852 0.81703 0.0
H368 H 0.10059 0.37692 0.85567 0.0
C369 C 0.10135 0.36187 0.83263 0.0
H370 H 0.07065 0.3629 0.8223 0.0
H371 H 1.0001 0.33717 0.84626 0.0
O372 O 0.1319 0.16573 0.87352 0.0
C373 C 0.01129 0.22388 0.87846 0.0
Co374 Co 0.79144 0.09148 0.87387 0.0
Co375 Co 0.70509 0.05268 0.88142 0.0
C376 C 0.74554 0.091 0.93524 0.0
O377 O 0.77654 0.09939 0.91881 0.0
O378 O 0.71472 0.07342 0.92371 0.0
C379 C 0.84953 0.15697 0.87255 0.0
O380 O 0.81869 0.17971 0.8804 0.0
C381 C 0.61899 0.03527 0.89524 0.0
C382 C 0.60401 0.99462 0.85602 0.0
C383 C 0.58754 0.01358 0.88175 0.0
N384 N 0.65228 0.03003 0.87775 0.0
N385 N 0.6432 0.00526 0.85464 0.0
C386 C 0.61776 0.06021 0.92424 0.0
H387 H 0.63916 0.04745 0.94155 0.0
H388 H 0.62797 0.09138 0.91882 0.0
H389 H 0.58698 0.06092 0.93447 0.0
C390 C 0.74883 0.1321 0.82059 0.0
N391 N 0.74945 0.10842 0.84622 0.0
N392 N 0.71291 0.09356 0.85068 0.0
C393 C 0.6878 0.10859 0.82881 0.0
C394 C 0.70974 0.13306 0.8089 0.0
C395 C 0.78547 0.15018 0.80581 0.0
H396 H 0.80893 0.12654 0.80359 0.0
H397 H 0.7974 0.17464 0.82083 0.0
H398 H 0.77856 0.1629 0.78248 0.0
O399 O 0.80294 0.03367 0.86756 0.0
O400 O 0.74227 0.00654 0.87507 0.0
H401 H 0.64085 0.06811 0.81498 0.0
H402 H 0.62783 0.12049 0.81098 0.0
C403 C 0.64393 0.0983 0.82585 0.0
H404 H 0.62975 0.0977 0.84919 0.0
H405 H 0.66369 0.99614 0.8376 0.0
O406 O 0.84392 0.11965 0.8673 0.0
C407 C 0.77989 0.00304 0.86972 0.0
Co408 Co 0.41226 0.71692 0.63926 0.0
Co409 Co 0.45712 0.79942 0.62781 0.0
C410 C 0.41098 0.76176 0.57679 0.0
O411 O 0.40182 0.73201 0.59445 0.0
O412 O 0.43164 0.7916 0.58669 0.0
C413 C 0.34374 0.66098 0.64482 0.0
O414 O 0.32065 0.69044 0.63478 0.0
C415 C 0.47705 0.88635 0.61847 0.0
C416 C 0.53466 0.89004 0.64449 0.0
C417 C 0.50718 0.91292 0.62783 0.0
N418 N 0.48606 0.8494 0.62952 0.0
N419 N 0.52085 0.85183 0.64462 0.0
C420 C 0.43966 0.89632 0.60044 0.0
H421 H 0.41735 0.87132 0.6019 0.0
H422 H 0.42621 0.92476 0.6093 0.0
H423 H 0.44775 0.90117 0.57564 0.0
C424 C 0.37821 0.76401 0.69259 0.0
N425 N 0.40113 0.76049 0.66675 0.0
N426 N 0.41846 0.79553 0.66086 0.0
C427 C 0.40582 0.82265 0.6821 0.0
C428 C 0.38003 0.80363 0.70301 0.0
C429 C 0.35594 0.72998 0.70762 0.0
H430 H 0.37267 0.7013 0.70444 0.0
H431 H 0.32592 0.72718 0.69636 0.0
H432 H 0.3513 0.73586 0.73282 0.0
O433 O 0.46923 0.70049 0.6435 0.0
O434 O 0.50011 0.75802 0.63202 0.0
H435 H 0.45132 0.86791 0.68646 0.0
H436 H 0.40238 0.88359 0.70065 0.0
C437 C 0.41828 0.86607 0.68243 0.0
H438 H 0.41132 0.87978 0.65958 0.0
H439 H 0.5347 0.82751 0.65577 0.0
O440 O 0.38131 0.66692 0.64881 0.0
C441 C 0.50131 0.72058 0.63848 0.0
Co442 Co 0.29358 0.4077 0.64195 0.0
Co443 Co 0.20866 0.44856 0.63358 0.0
C444 C 0.24885 0.40861 0.58012 0.0
O445 O 0.27968 0.39959 0.59664 0.0
O446 O 0.2185 0.42685 0.59159 0.0
C447 C 0.35496 0.34584 0.63875 0.0
O448 O 0.32878 0.32714 0.62078 0.0
C449 C 0.1245 0.46976 0.61758 0.0
C450 C 0.11006 0.51125 0.65634 0.0
C451 C 0.09392 0.49334 0.62999 0.0
N452 N 0.157 0.47296 0.63623 0.0
N453 N 0.14832 0.49821 0.65907 0.0
C454 C 0.12331 0.44522 0.58835 0.0
H455 H 0.14576 0.45749 0.57163 0.0
H456 H 0.13212 0.41366 0.59373 0.0
H457 H 0.09289 0.44571 0.57743 0.0
C458 C 0.24846 0.36605 0.69334 0.0
N459 N 0.25037 0.39142 0.66877 0.0
N460 N 0.2147 0.40832 0.66493 0.0
C461 C 0.18904 0.39378 0.68667 0.0
C462 C 0.20969 0.36686 0.70558 0.0
C463 C 0.28343 0.34258 0.70551 0.0
H464 H 0.30794 0.36394 0.7119 0.0
H465 H 0.29459 0.32239 0.68684 0.0
H466 H 0.27504 0.32419 0.72615 0.0
O467 O 0.30629 0.46583 0.64799 0.0
O468 O 0.24642 0.49381 0.63956 0.0
H469 H 0.14501 0.43705 0.70066 0.0
H470 H 0.12891 0.38557 0.70552 0.0
C471 C 0.14594 0.4065 0.69017 0.0
H472 H 0.13115 0.40762 0.66701 0.0
H473 H 0.16851 0.50627 0.6767 0.0
O474 O 0.34541 0.37932 0.6511 0.0
C475 C 0.28398 0.49684 0.64514 0.0
Co476 Co 0.60619 0.2834 0.63073 0.0
Co477 Co 0.55751 0.20174 0.6243 0.0
C478 C 0.59873 0.23932 0.56959 0.0
O479 O 0.61077 0.26955 0.58552 0.0
O480 O 0.57945 0.21011 0.582 0.0
C481 C 0.67316 0.34045 0.62739 0.0
O482 O 0.69116 0.31228 0.61096 0.0
C483 C 0.54172 0.11416 0.618 0.0
C484 C 0.47893 0.11045 0.63534 0.0
C485 C 0.51045 0.08737 0.62403 0.0
N486 N 0.52929 0.15151 0.62553 0.0
N487 N 0.49156 0.14908 0.6355 0.0
C488 C 0.58309 0.10422 0.60643 0.0
H489 H 0.60386 0.13026 0.60969 0.0
H490 H 0.59491 0.07722 0.61876 0.0
H491 H 0.58136 0.09683 0.58125 0.0
C492 C 0.64595 0.23523 0.68145 0.0
N493 N 0.6198 0.23886 0.65745 0.0
N494 N 0.59811 0.20547 0.65562 0.0
C495 C 0.60912 0.18031 0.67889 0.0
C496 C 0.63992 0.19826 0.69582 0.0
C497 C 0.67435 0.26742 0.69197 0.0
H498 H 0.6896 0.28094 0.67153 0.0
H499 H 0.69743 0.25531 0.70826 0.0
H500 H 0.65666 0.29095 0.70419 0.0
O501 O 0.54928 0.30032 0.6376 0.0
O502 O 0.51565 0.24284 0.63089 0.0
H503 H 0.59477 0.13209 0.71105 0.0
H504 H 0.59906 0.1175 0.6709 0.0
C505 C 0.58824 0.14153 0.68674 0.0
H506 H 0.55516 0.14493 0.68375 0.0
H507 H 0.47464 0.17373 0.64308 0.0
O508 O 0.63856 0.33336 0.63904 0.0
C509 C 0.51631 0.28059 0.63592 0.0
Co510 Co 0.72085 0.58964 0.63314 0.0
Co511 Co 0.80878 0.55999 0.62149 0.0
C512 C 0.76415 0.59513 0.56981 0.0
O513 O 0.73421 0.60089 0.58808 0.0
O514 O 0.79736 0.58026 0.57948 0.0
C515 C 0.66111 0.6511 0.6319 0.0
O516 O 0.6878 0.66991 0.61451 0.0
C517 C 0.89491 0.54102 0.60875 0.0
C518 C 0.90976 0.50945 0.65278 0.0
C519 C 0.92603 0.52205 0.62475 0.0
N520 N 0.86187 0.54017 0.62692 0.0
N521 N 0.87092 0.52098 0.65301 0.0
C522 C 0.89607 0.55892 0.57679 0.0
H523 H 0.88821 0.59144 0.57817 0.0
H524 H 0.92629 0.55537 0.56595 0.0
H525 H 0.87285 0.54404 0.56203 0.0
C526 C 0.76218 0.62677 0.68809 0.0
N527 N 0.76209 0.60688 0.66069 0.0
N528 N 0.79948 0.59984 0.6523 0.0
C529 C 0.82473 0.61814 0.67247 0.0
C530 C 0.80217 0.63491 0.69663 0.0
C531 C 0.7248 0.63414 0.70682 0.0
H532 H 0.70313 0.60887 0.70347 0.0
H533 H 0.71 0.66212 0.69845 0.0
H534 H 0.73199 0.6375 0.73194 0.0
O535 O 0.71181 0.5313 0.63638 0.0
O536 O 0.77457 0.51088 0.62737 0.0
H537 H 0.88463 0.59433 0.67802 0.0
H538 H 0.88184 0.6485 0.67932 0.0
C539 C 0.86954 0.62107 0.66784 0.0
H540 H 0.87664 0.62189 0.64258 0.0
H541 H 0.85049 0.51604 0.67112 0.0
O542 O 0.66939 0.61667 0.64321 0.0
C543 C 0.73747 0.50329 0.63257 0.0
C544 C 0.12523 0.28706 0.99511 0.0
C545 C 0.10341 0.25732 0.97827 0.0
C546 C 0.08676 0.22245 0.02721 0.0
C547 C 0.10359 0.25526 0.04436 0.0
N548 N 0.14021 0.3183 0.04502 0.0
N549 N 0.05859 0.19952 0.97837 0.0
C550 C 0.12338 0.28737 0.02835 0.0
C551 C 0.08347 0.22541 0.99428 0.0
N552 N 0.1486 0.31426 0.97926 0.0
N553 N 0.07321 0.18845 0.04204 0.0
H554 H 0.05479 0.20001 0.9543 0.0
H555 H 0.03863 0.17965 0.98923 0.0
H556 H 0.07164 0.18499 0.06604 0.0
H557 H 0.06637 0.16175 0.03033 0.0
H558 H 0.16829 0.33452 0.98993 0.0
H559 H 0.15074 0.31447 0.95501 0.0
H560 H 0.15017 0.34524 0.03514 0.0
H561 H 0.14319 0.31752 0.06922 0.0
C562 C 0.74525 0.13147 0.98507 0.0
C563 C 0.74845 0.09375 0.96959 0.0
C564 C 0.75009 0.05822 0.01967 0.0
C565 C 0.74691 0.09588 0.03528 0.0
N566 N 0.74816 0.16847 0.03407 0.0
N567 N 0.7629 0.02242 0.97152 0.0
C568 C 0.74676 0.13265 0.01832 0.0
C569 C 0.75351 0.05747 0.98675 0.0
N570 N 0.73931 0.16577 0.96795 0.0
N571 N 0.74894 0.02297 0.03635 0.0
H572 H 0.76521 0.02039 0.94735 0.0
H573 H 0.77176 0.99601 0.98274 0.0
H574 H 0.74933 0.02193 0.06063 0.0
H575 H 0.74542 0.99461 0.02627 0.0
H576 H 0.7327 0.19379 0.9776 0.0
H577 H 0.73888 0.16578 0.94364 0.0
H578 H 0.75173 0.19643 0.02335 0.0
H579 H 0.74848 0.17001 0.05835 0.0
C580 C 0.9227 0.77386 0.98902 0.0
C581 C 0.89825 0.74652 0.97171 0.0
C582 C 0.86924 0.72029 0.02053 0.0
C583 C 0.89699 0.74431 0.03759 0.0
N584 N 0.95477 0.78891 0.03836 0.0
N585 N 0.84904 0.69279 0.97035 0.0
C586 C 0.92461 0.77014 0.02194 0.0
C587 C 0.87159 0.71954 0.98733 0.0
N588 N 0.94489 0.80294 0.97415 0.0
N589 N 0.84035 0.69879 0.03615 0.0
H590 H 0.84793 0.69336 0.94605 0.0
H591 H 0.8327 0.66908 0.98011 0.0
H592 H 0.83834 0.6986 0.06041 0.0
H593 H 0.81672 0.68352 0.02527 0.0
H594 H 0.95884 0.82681 0.98576 0.0
H595 H 0.94722 0.80542 0.95006 0.0
H596 H 0.97888 0.80402 0.02799 0.0
H597 H 0.95809 0.78626 0.06241 0.0
C598 C 0.24899 0.93622 0.99189 0.0
C599 C 0.2614 0.9003 0.97667 0.0
C600 C 0.26902 0.86647 0.0273 0.0
C601 C 0.26088 0.90372 0.04241 0.0
N602 N 0.24571 0.97498 0.03958 0.0
N603 N 0.28486 0.83173 0.9788 0.0
C604 C 0.25149 0.93881 0.02482 0.0
C605 C 0.27159 0.86536 0.99407 0.0
N606 N 0.23373 0.96761 0.97479 0.0
N607 N 0.27413 0.83234 0.04476 0.0
H608 H 0.28588 0.82992 0.95454 0.0
H609 H 0.29673 0.80648 0.98994 0.0
H610 H 0.27363 0.8326 0.06907 0.0
H611 H 0.27642 0.80349 0.03537 0.0
H612 H 0.21954 0.9926 0.98454 0.0
H613 H 0.23208 0.96736 0.95055 0.0
H614 H 0.24429 0.00258 0.02801 0.0
H615 H 0.24477 0.9781 0.06372 0.0
C616 C 0.55942 0.24994 0.48681 0.0
C617 C 0.59487 0.24165 0.4694 0.0
C618 C 0.63469 0.23804 0.51772 0.0
C619 C 0.59849 0.24228 0.53512 0.0
N620 N 0.52617 0.25224 0.537 0.0
N621 N 0.66586 0.22668 0.46707 0.0
C622 C 0.56083 0.24843 0.51984 0.0
C623 C 0.63257 0.23578 0.4845 0.0
N624 N 0.52451 0.2603 0.47162 0.0
N625 N 0.6709 0.23624 0.53302 0.0
H626 H 0.66522 0.22584 0.44276 0.0
H627 H 0.69355 0.21807 0.47642 0.0
H628 H 0.67314 0.23653 0.55727 0.0
H629 H 0.69884 0.23683 0.52195 0.0
H630 H 0.49899 0.27174 0.48262 0.0
H631 H 0.52167 0.26017 0.44744 0.0
H632 H 0.4972 0.25092 0.5276 0.0
H633 H 0.52593 0.25507 0.56118 0.0
C634 C 0.72528 0.57637 0.48748 0.0
C635 C 0.75443 0.59807 0.46981 0.0
C636 C 0.78423 0.62472 0.51813 0.0
C637 C 0.75818 0.59936 0.53568 0.0
N638 N 0.70783 0.54624 0.53697 0.0
N639 N 0.81289 0.6415 0.46764 0.0
C640 C 0.72927 0.5744 0.5204 0.0
C641 C 0.78423 0.62196 0.48497 0.0
N642 N 0.69418 0.55665 0.47288 0.0
N643 N 0.80819 0.65211 0.53325 0.0
H644 H 0.81222 0.6423 0.44335 0.0
H645 H 0.83836 0.65528 0.47716 0.0
H646 H 0.80843 0.65504 0.55746 0.0
H647 H 0.82521 0.67414 0.52196 0.0
H648 H 0.66904 0.54544 0.48466 0.0
H649 H 0.69176 0.55356 0.44882 0.0
H650 H 0.6907 0.52347 0.52666 0.0
H651 H 0.70964 0.54293 0.56104 0.0
C652 C 0.42245 0.72728 0.52564 0.0
C653 C 0.40345 0.75861 0.54273 0.0
C654 C 0.3799 0.78921 0.49376 0.0
C655 C 0.39726 0.75668 0.4769 0.0
N656 N 0.42809 0.69027 0.47747 0.0
N657 N 0.35862 0.8157 0.54398 0.0
C658 C 0.41578 0.72408 0.49308 0.0
C659 C 0.3805 0.78854 0.52702 0.0
N660 N 0.44984 0.70255 0.53997 0.0
N661 N 0.36331 0.82095 0.47793 0.0
H662 H 0.35837 0.81571 0.5683 0.0
H663 H 0.33826 0.836 0.5342 0.0
H664 H 0.35995 0.82112 0.45375 0.0
H665 H 0.35457 0.84782 0.48849 0.0
H666 H 0.46845 0.68253 0.52802 0.0
H667 H 0.45734 0.70493 0.56343 0.0
H668 H 0.43656 0.66375 0.48877 0.0
H669 H 0.42721 0.6871 0.45339 0.0
C670 C 0.24551 0.36872 0.53002 0.0
C671 C 0.25147 0.40595 0.54572 0.0
C672 C 0.25262 0.44217 0.49591 0.0
C673 C 0.24697 0.40496 0.48003 0.0
N674 N 0.24467 0.33237 0.48068 0.0
N675 N 0.26983 0.47643 0.544 0.0
C676 C 0.24564 0.36798 0.49673 0.0
C677 C 0.25777 0.44217 0.52873 0.0
N678 N 0.2383 0.33451 0.54697 0.0
N679 N 0.25204 0.47775 0.47964 0.0
H680 H 0.27364 0.4778 0.5681 0.0
H681 H 0.27949 0.50257 0.53274 0.0
H682 H 0.25059 0.47925 0.4554 0.0
H683 H 0.25055 0.50602 0.49014 0.0
H684 H 0.2296 0.30708 0.53722 0.0
H685 H 0.23902 0.33413 0.57127 0.0
H686 H 0.24732 0.30414 0.49114 0.0
H687 H 0.24393 0.33117 0.45639 0.0
C688 C 0.1766 0.04777 0.11555 0.0
C689 C 0.19714 0.03282 0.14221 0.0
C690 C 0.18135 0.095 0.17067 0.0
C691 C 0.16526 0.11187 0.14292 0.0
N692 N 0.14846 0.1056 0.08841 0.0
N693 N 0.2217 0.04222 0.19458 0.0
C694 C 0.16302 0.08853 0.1152 0.0
C695 C 0.20018 0.05643 0.16966 0.0
N696 N 0.16973 0.02282 0.0907 0.0
N697 N 0.17787 0.11551 0.19811 0.0
H698 H 0.23407 0.01328 0.1953 0.0
H699 H 0.22933 0.05978 0.21382 0.0
H700 H 0.16422 0.14367 0.19953 0.0
H701 H 0.18521 0.10333 0.21975 0.0
H702 H 0.15138 0.03033 0.07187 0.0
H703 H 0.17989 0.99307 0.08984 0.0
H704 H 0.15067 0.0922 0.06656 0.0
H705 H 0.13588 0.13443 0.0876 0.0
C706 C 0.88993 0.20988 0.15706 0.0
C707 C 0.88169 0.17908 0.13493 0.0
C708 C 0.95023 0.18594 0.11393 0.0
C709 C 0.95996 0.21313 0.1384 0.0
N710 N 0.94088 0.24803 0.18535 0.0
N711 N 0.90441 0.13527 0.09358 0.0
C712 C 0.93022 0.22453 0.16047 0.0
C713 C 0.91205 0.16623 0.11385 0.0
N714 N 0.85919 0.22542 0.17455 0.0
N715 N 0.97661 0.18073 0.08975 0.0
H716 H 0.87601 0.12199 0.09096 0.0
H717 H 0.92683 0.12108 0.0806 0.0
H718 H 0.00428 0.19572 0.08833 0.0
H719 H 0.96956 0.16478 0.06956 0.0
H720 H 0.86233 0.25071 0.18874 0.0
H721 H 0.8295 0.215 0.173 0.0
H722 H 0.92178 0.25385 0.20405 0.0
H723 H 0.97009 0.25922 0.18857 0.0
C724 C 0.81136 0.95157 0.11122 0.0
C725 C 0.78454 0.9649 0.13492 0.0
C726 C 0.78396 0.89703 0.15804 0.0
C727 C 0.80995 0.88353 0.13394 0.0
N728 N 0.84286 0.89512 0.08468 0.0
N729 N 0.74165 0.95042 0.17892 0.0
C730 C 0.82221 0.91008 0.10975 0.0
C731 C 0.76963 0.93757 0.1577 0.0
N732 N 0.82648 0.97861 0.09008 0.0
N733 N 0.77407 0.87136 0.18178 0.0
H734 H 0.73257 0.98045 0.1808 0.0
H735 H 0.72583 0.93123 0.19375 0.0
H736 H 0.78235 0.84108 0.18187 0.0
H737 H 0.75943 0.88019 0.20209 0.0
H738 H 0.85005 0.97217 0.07486 0.0
H739 H 0.81704 0.00856 0.08864 0.0
H740 H 0.8489 0.91157 0.06456 0.0
H741 H 0.85134 0.8649 0.08274 0.0
C742 C 0.09747 0.80726 0.14422 0.0
C743 C 0.10058 0.84527 0.12912 0.0
C744 C 0.02818 0.84369 0.1176 0.0
C745 C 0.02425 0.80722 0.13494 0.0
N746 N 0.05382 0.76061 0.17176 0.0
N747 N 0.06666 0.90502 0.11033 0.0
C748 C 0.05852 0.79089 0.15042 0.0
C749 C 0.06524 0.86516 0.11858 0.0
N750 N 0.13148 0.78582 0.15132 0.0
N751 N 0.9977 0.85693 0.09866 0.0
H752 H 0.09289 0.92244 0.11199 0.0
H753 H 0.04085 0.92185 0.10536 0.0
H754 H 0.97035 0.84185 0.09577 0.0
H755 H 0.00129 0.88087 0.08312 0.0
H756 H 0.13067 0.75617 0.15945 0.0
H757 H 0.16053 0.79609 0.14625 0.0
H758 H 0.07737 0.75013 0.18572 0.0
H759 H 0.02559 0.74914 0.17802 0.0
C760 C 0.68662 0.44539 0.34401 0.0
C761 C 0.70187 0.46144 0.37226 0.0
C762 C 0.681 0.40031 0.40025 0.0
C763 C 0.66982 0.38236 0.37144 0.0
N764 N 0.66498 0.38618 0.31544 0.0
N765 N 0.71686 0.45393 0.42702 0.0
C766 C 0.67311 0.40459 0.3432 0.0
C767 C 0.70016 0.43874 0.40029 0.0
N768 N 0.68494 0.46921 0.31799 0.0
N769 N 0.67113 0.38171 0.4277 0.0
H770 H 0.72859 0.48311 0.42872 0.0
H771 H 0.72131 0.43682 0.4471 0.0
H772 H 0.65583 0.3542 0.42884 0.0
H773 H 0.67447 0.39524 0.44944 0.0
H774 H 0.66983 0.46104 0.29766 0.0
H775 H 0.69635 0.49858 0.31732 0.0
H776 H 0.67135 0.39888 0.29381 0.0
H777 H 0.65442 0.35671 0.31396 0.0
C778 C 0.54447 0.68641 0.34951 0.0
C779 C 0.52482 0.69343 0.37824 0.0
C780 C 0.58232 0.66452 0.40638 0.0
C781 C 0.60453 0.66323 0.3781 0.0
N782 N 0.60778 0.67533 0.3227 0.0
N783 N 0.52558 0.69276 0.43443 0.0
C784 C 0.58573 0.67432 0.34953 0.0
C785 C 0.54382 0.68333 0.40681 0.0
N786 N 0.52361 0.6913 0.32226 0.0
N787 N 0.59725 0.64623 0.43255 0.0
H788 H 0.49679 0.7054 0.43573 0.0
H789 H 0.54007 0.69067 0.45593 0.0
H790 H 0.62464 0.6307 0.43292 0.0
H791 H 0.58065 0.64272 0.45297 0.0
H792 H 0.53479 0.68279 0.30058 0.0
H793 H 0.49355 0.70076 0.3216 0.0
H794 H 0.59728 0.68756 0.30186 0.0
H795 H 0.63787 0.66662 0.32179 0.0
C796 C 0.26884 0.5652 0.35828 0.0
C797 C 0.28365 0.53762 0.3809 0.0
C798 C 0.32249 0.59192 0.406 0.0
C799 C 0.31006 0.61875 0.38206 0.0
N800 N 0.27368 0.63161 0.33451 0.0
N801 N 0.32614 0.52322 0.42537 0.0
C802 C 0.28366 0.60563 0.35802 0.0
C803 C 0.31101 0.55055 0.40447 0.0
N804 N 0.24046 0.55268 0.33714 0.0
N805 N 0.34414 0.60645 0.43081 0.0
H806 H 0.31636 0.49334 0.42674 0.0
H807 H 0.35 0.52933 0.44046 0.0
H808 H 0.35361 0.63643 0.43259 0.0
H809 H 0.35031 0.58986 0.45084 0.0
H810 H 0.22477 0.57206 0.3224 0.0
H811 H 0.23092 0.52275 0.33524 0.0
H812 H 0.25862 0.62309 0.31426 0.0
H813 H 0.28228 0.66184 0.33456 0.0
C814 C 0.41341 0.3423 0.39841 0.0
C815 C 0.38113 0.32581 0.38068 0.0
C816 C 0.4276 0.27778 0.35617 0.0
C817 C 0.4593 0.29239 0.37545 0.0
N818 N 0.48089 0.33346 0.41901 0.0
N819 N 0.35546 0.2743 0.34621 0.0
C820 C 0.4519 0.32345 0.39757 0.0
C821 C 0.38758 0.29233 0.3607 0.0
N822 N 0.4073 0.37596 0.41625 0.0
N823 N 0.43613 0.25142 0.33258 0.0
H824 H 0.32591 0.28486 0.34822 0.0
H825 H 0.35752 0.24715 0.33411 0.0
H826 H 0.46522 0.24083 0.32814 0.0
H827 H 0.41525 0.2428 0.31567 0.0
H828 H 0.43072 0.39269 0.42613 0.0
H829 H 0.37894 0.38877 0.41987 0.0
H830 H 0.47554 0.35198 0.43815 0.0
H831 H 0.50961 0.32069 0.41948 0.0
C832 C 0.80408 0.89688 0.8412 0.0
C833 C 0.82827 0.88265 0.86623 0.0
C834 C 0.82348 0.94848 0.89207 0.0
C835 C 0.7975 0.96209 0.86788 0.0
N836 N 0.75961 0.94891 0.82092 0.0
N837 N 0.85402 0.89142 0.9184 0.0
C838 C 0.78665 0.93609 0.84292 0.0
C839 C 0.83623 0.90756 0.89242 0.0
N840 N 0.79902 0.87343 0.81531 0.0
N841 N 0.83598 0.9746 0.91483 0.0
H842 H 0.86302 0.86132 0.91993 0.0
H843 H 0.85648 0.90659 0.93955 0.0
H844 H 0.82556 0.00414 0.91678 0.0
H845 H 0.85886 0.96795 0.93069 0.0
H846 H 0.78594 0.88355 0.79469 0.0
H847 H 0.81021 0.84419 0.81376 0.0
H848 H 0.74652 0.93001 0.80437 0.0
H849 H 0.74846 0.97832 0.82006 0.0
C850 C 0.09812 0.81155 0.90863 0.0
C851 C 0.12144 0.8159 0.88104 0.0
C852 C 0.06313 0.79372 0.84976 0.0
C853 C 0.04147 0.78578 0.87755 0.0
N854 N 0.03999 0.78104 0.93365 0.0
N855 N 0.12831 0.80532 0.82571 0.0
C856 C 0.05957 0.79266 0.90705 0.0
C857 C 0.10447 0.80556 0.85164 0.0
N858 N 0.11162 0.82772 0.93607 0.0
N859 N 0.04409 0.79025 0.8216 0.0
H860 H 0.15876 0.81303 0.82637 0.0
H861 H 0.11902 0.79407 0.80422 0.0
H862 H 0.01436 0.78008 0.81933 0.0
H863 H 0.05671 0.80005 0.8007 0.0
H864 H 0.09398 0.82936 0.95611 0.0
H865 H 0.13887 0.84334 0.93817 0.0
H866 H 0.05363 0.78099 0.95553 0.0
H867 H 0.01111 0.76838 0.93364 0.0
C868 C 0.16287 0.0296 0.90081 0.0
C869 C 0.19858 0.02684 0.88252 0.0
C870 C 0.19659 0.09997 0.87379 0.0
C871 C 0.15888 0.10185 0.88944 0.0
N872 N 0.10092 0.06616 0.90985 0.0
N873 N 0.24355 0.05803 0.84527 0.0
C874 C 0.14039 0.06595 0.90049 0.0
C875 C 0.21367 0.06164 0.86703 0.0
N876 N 0.15144 0.99864 0.91999 0.0
N877 N 0.21721 0.13459 0.86683 0.0
H878 H 0.25578 0.03026 0.83883 0.0
H879 H 0.25302 0.08196 0.83128 0.0
H880 H 0.2067 0.16321 0.87273 0.0
H881 H 0.24662 0.13466 0.85817 0.0
H882 H 0.12805 0.0013 0.9361 0.0
H883 H 0.16768 0.97195 0.92246 0.0
H884 H 0.08504 0.03987 0.91529 0.0
H885 H 0.08276 0.09182 0.90876 0.0
C886 C 0.91633 0.17297 0.84696 0.0
C887 C 0.8914 0.1733 0.87396 0.0
C888 C 0.94689 0.20321 0.90442 0.0
C889 C 0.97056 0.20546 0.87691 0.0
N890 N 0.97724 0.1973 0.82146 0.0
N891 N 0.88223 0.18867 0.92853 0.0
C892 C 0.95525 0.19136 0.84806 0.0
C893 C 0.90647 0.18856 0.90271 0.0
N894 N 0.90293 0.15486 0.82027 0.0
N895 N 0.96376 0.21363 0.93243 0.0
H896 H 0.85443 0.17388 0.92958 0.0
H897 H 0.88885 0.20447 0.94884 0.0
H898 H 0.99283 0.22551 0.93454 0.0
H899 H 0.95031 0.20834 0.95394 0.0
H900 H 0.92123 0.14904 0.8011 0.0
H901 H 0.8739 0.14321 0.81781 0.0
H902 H 0.96609 0.19223 0.79912 0.0
H903 H 0.00604 0.21021 0.82146 0.0
C904 C 0.33941 0.59239 0.62091 0.0
C905 C 0.32827 0.61898 0.64533 0.0
C906 C 0.28897 0.56497 0.67028 0.0
C907 C 0.30189 0.53782 0.64671 0.0
N908 N 0.34311 0.52379 0.60156 0.0
N909 N 0.29635 0.63053 0.69488 0.0
C910 C 0.32846 0.55091 0.62273 0.0
C911 C 0.30399 0.60529 0.67043 0.0
N912 N 0.35878 0.60731 0.59517 0.0
N913 N 0.26205 0.55218 0.69238 0.0
H914 H 0.30561 0.66056 0.69514 0.0
H915 H 0.28299 0.62139 0.71565 0.0
H916 H 0.25301 0.52213 0.69465 0.0
H917 H 0.24725 0.57144 0.7077 0.0
H918 H 0.3636 0.59077 0.57492 0.0
H919 H 0.36721 0.63753 0.59283 0.0
H920 H 0.36636 0.5303 0.58602 0.0
H921 H 0.3341 0.49367 0.60066 0.0
C922 C 0.41431 0.31471 0.66659 0.0
C923 C 0.39775 0.33248 0.63932 0.0
C924 C 0.46265 0.32403 0.61238 0.0
C925 C 0.47728 0.30188 0.63835 0.0
N926 N 0.4673 0.2737 0.68951 0.0
N927 N 0.40522 0.35408 0.58591 0.0
C928 C 0.45322 0.29667 0.66533 0.0
C929 C 0.42175 0.33729 0.61212 0.0
N930 N 0.39315 0.3157 0.69385 0.0
N931 N 0.488 0.33259 0.58807 0.0
H932 H 0.37648 0.36693 0.5854 0.0
H933 H 0.41905 0.35375 0.56415 0.0
H934 H 0.51781 0.32257 0.58709 0.0
H935 H 0.48074 0.35203 0.56987 0.0
H936 H 0.40508 0.30719 0.71532 0.0
H937 H 0.36457 0.32836 0.69548 0.0
H938 H 0.44945 0.26431 0.70811 0.0
H939 H 0.49655 0.26202 0.6902 0.0
C940 C 0.69617 0.40127 0.65844 0.0
C941 C 0.69069 0.38187 0.62915 0.0
C942 C 0.72127 0.44024 0.60286 0.0
C943 C 0.7232 0.46094 0.63178 0.0
N944 N 0.70857 0.46351 0.68671 0.0
N945 N 0.68919 0.38719 0.57299 0.0
C946 C 0.70932 0.44218 0.65945 0.0
C947 C 0.7011 0.40239 0.60119 0.0
N948 N 0.69053 0.38013 0.68539 0.0
N949 N 0.73842 0.45678 0.57682 0.0
H950 H 0.67241 0.36071 0.57059 0.0
H951 H 0.69201 0.40302 0.55213 0.0
H952 H 0.75194 0.48521 0.57648 0.0
H953 H 0.74209 0.44094 0.55606 0.0
H954 H 0.69847 0.39093 0.70733 0.0
H955 H 0.68106 0.35027 0.68563 0.0
H956 H 0.69403 0.4534 0.70676 0.0
H957 H 0.7204 0.4926 0.68885 0.0
C958 C 0.54853 0.66645 0.61925 0.0
C959 C 0.54113 0.70002 0.6391 0.0
C960 C 0.61293 0.70223 0.6535 0.0
C961 C 0.61981 0.66749 0.63498 0.0
N962 N 0.59378 0.61286 0.60349 0.0
N963 N 0.56393 0.74387 0.68037 0.0
C964 C 0.5874 0.64831 0.61908 0.0
C965 C 0.57272 0.71626 0.65771 0.0
N966 N 0.5193 0.65335 0.59905 0.0
N967 N 0.64485 0.72206 0.66682 0.0
H968 H 0.53459 0.75373 0.68489 0.0
H969 H 0.58487 0.75399 0.69674 0.0
H970 H 0.67456 0.71185 0.66525 0.0
H971 H 0.64233 0.75013 0.67755 0.0
H972 H 0.52467 0.63299 0.58107 0.0
H973 H 0.49011 0.66482 0.59854 0.0
H974 H 0.57048 0.59459 0.59522 0.0
H975 H 0.62228 0.60016 0.60036 0.0
C976 C 0.20154 0.31227 0.27526 0.0
C977 C 0.18632 0.34843 0.28858 0.0
C978 C 0.13193 0.34753 0.2502 0.0
C979 C 0.15099 0.31591 0.23354 0.0
N980 N 0.21245 0.2775 0.22656 0.0
N981 N 0.14589 0.40809 0.27908 0.0
C982 C 0.18843 0.30089 0.24492 0.0
C983 C 0.15421 0.36854 0.27314 0.0
N984 N 0.2269 0.28781 0.29169 0.0
N985 N 0.09215 0.35642 0.24561 0.0
H986 H 0.16411 0.42586 0.29345 0.0
H987 H 0.12388 0.42397 0.2667 0.0
H988 H 0.07337 0.33892 0.23148 0.0
H989 H 0.07713 0.37806 0.25891 0.0
H990 H 0.23633 0.25983 0.28329 0.0
H991 H 0.2345 0.29332 0.31488 0.0
H992 H 0.2412 0.26825 0.23351 0.0
H993 H 0.20561 0.27168 0.20327 0.0
C994 C 0.65341 0.13214 0.24043 0.0
C995 C 0.6867 0.15228 0.22654 0.0
C996 C 0.68721 0.19809 0.27127 0.0
C997 C 0.64865 0.18355 0.28076 0.0
N998 N 0.58981 0.14448 0.26546 0.0
N999 N 0.72861 0.21232 0.22628 0.0
C1000 C 0.63002 0.15286 0.2627 0.0
C1001 C 0.70189 0.18764 0.24121 0.0
N1002 N 0.64493 0.09281 0.23364 0.0
N1003 N 0.71067 0.2202 0.29107 0.0
H1004 H 0.73731 0.20766 0.20324 0.0
H1005 H 0.73814 0.23977 0.23571 0.0
H1006 H 0.70259 0.22526 0.31422 0.0
H1007 H 0.74004 0.22906 0.28544 0.0
H1008 H 0.6219 0.07691 0.24488 0.0
H1009 H 0.66382 0.07521 0.21975 0.0
H1010 H 0.57534 0.12345 0.25116 0.0
H1011 H 0.57046 0.16186 0.2791 0.0
C1012 C 0.79716 0.63694 0.25135 0.0
C1013 C 0.80905 0.65111 0.2812 0.0
C1014 C 0.8565 0.69863 0.25696 0.0
C1015 C 0.84276 0.68623 0.22712 0.0
N1016 N 0.79492 0.64939 0.19567 0.0
N1017 N 0.84389 0.70043 0.3126 0.0
C1018 C 0.81146 0.65715 0.22426 0.0
C1019 C 0.83686 0.68355 0.28404 0.0
N1020 N 0.77357 0.60314 0.24884 0.0
N1021 N 0.88932 0.72358 0.25947 0.0
H1022 H 0.83012 0.69001 0.33294 0.0
H1023 H 0.86055 0.72682 0.31579 0.0
H1024 H 0.90442 0.73545 0.24021 0.0
H1025 H 0.90357 0.73001 0.28054 0.0
H1026 H 0.7677 0.58868 0.22778 0.0
H1027 H 0.76239 0.5875 0.26809 0.0
H1028 H 0.76919 0.63172 0.19245 0.0
H1029 H 0.80487 0.66346 0.17531 0.0
C1030 C 0.35712 0.79949 0.25654 0.0
C1031 C 0.34669 0.81509 0.28625 0.0
C1032 C 0.30238 0.86518 0.26162 0.0
C1033 C 0.31108 0.8481 0.23208 0.0
N1034 N 0.34086 0.79508 0.20146 0.0
N1035 N 0.30451 0.8578 0.31785 0.0
C1036 C 0.33665 0.81397 0.22958 0.0
C1037 C 0.31786 0.84652 0.28901 0.0
N1038 N 0.38771 0.772 0.25398 0.0
N1039 N 0.28045 0.90005 0.26341 0.0
H1040 H 0.31538 0.845 0.33843 0.0
H1041 H 0.28041 0.87741 0.32139 0.0
H1042 H 0.26773 0.91405 0.24396 0.0
H1043 H 0.27713 0.91668 0.28381 0.0
H1044 H 0.39982 0.76281 0.23278 0.0
H1045 H 0.40331 0.76058 0.27317 0.0
H1046 H 0.35563 0.76761 0.19864 0.0
H1047 H 0.32661 0.8052 0.18122 0.0
C1048 C 0.81499 0.70187 0.76895 0.0
C1049 C 0.85204 0.68708 0.78122 0.0
C1050 C 0.85013 0.63334 0.74245 0.0
C1051 C 0.81803 0.65267 0.7264 0.0
N1052 N 0.77726 0.71295 0.7215 0.0
N1053 N 0.91126 0.64635 0.77107 0.0
C1054 C 0.80247 0.68927 0.73875 0.0
C1055 C 0.87167 0.65509 0.76542 0.0
N1056 N 0.79068 0.72609 0.78643 0.0
N1057 N 0.85902 0.59375 0.73716 0.0
H1058 H 0.92936 0.66403 0.78559 0.0
H1059 H 0.92688 0.62452 0.75838 0.0
H1060 H 0.84135 0.57543 0.72279 0.0
H1061 H 0.88089 0.57835 0.75003 0.0
H1062 H 0.76205 0.73502 0.77895 0.0
H1063 H 0.79722 0.73326 0.80955 0.0
H1064 H 0.76761 0.74123 0.72911 0.0
H1065 H 0.76997 0.70642 0.69841 0.0
C1066 C 0.31766 0.82772 0.73173 0.0
C1067 C 0.36031 0.82216 0.73074 0.0
C1068 C 0.36685 0.86778 0.77476 0.0
C1069 C 0.32538 0.86348 0.78169 0.0
N1070 N 0.26295 0.86737 0.75328 0.0
N1071 N 0.42553 0.83451 0.75468 0.0
C1072 C 0.30048 0.85091 0.75647 0.0
C1073 C 0.38485 0.84091 0.75359 0.0
N1074 N 0.29368 0.81187 0.70889 0.0
N1075 N 0.38634 0.90287 0.78159 0.0
H1076 H 0.44017 0.81411 0.74004 0.0
H1077 H 0.44356 0.84722 0.77211 0.0
H1078 H 0.37042 0.92797 0.7896 0.0
H1079 H 0.416 0.9086 0.77454 0.0
H1080 H 0.2623 0.81052 0.71055 0.0
H1081 H 0.3052 0.79834 0.68888 0.0
H1082 H 0.24423 0.86251 0.73412 0.0
H1083 H 0.25306 0.89055 0.76782 0.0
C1084 C 0.19267 0.34058 0.79128 0.0
C1085 C 0.16043 0.31248 0.78874 0.0
C1086 C 0.16584 0.31485 0.73173 0.0
C1087 C 0.19439 0.34669 0.7343 0.0
N1088 N 0.23121 0.3939 0.76646 0.0
N1089 N 0.11244 0.27649 0.75668 0.0
C1090 C 0.20699 0.36055 0.76408 0.0
C1091 C 0.14606 0.30038 0.75898 0.0
N1092 N 0.21001 0.34769 0.81968 0.0
N1093 N 0.15814 0.29799 0.70327 0.0
H1094 H 0.09708 0.26522 0.77603 0.0
H1095 H 0.09784 0.27044 0.73568 0.0
H1096 H 0.17198 0.30797 0.68284 0.0
H1097 H 0.14085 0.27197 0.70028 0.0
H1098 H 0.2363 0.36462 0.8226 0.0
H1099 H 0.20018 0.33366 0.84009 0.0
H1100 H 0.23766 0.40813 0.78752 0.0
H1101 H 0.24227 0.40952 0.74716 0.0
C1102 C 0.68662 0.14974 0.72274 0.0
C1103 C 0.65952 0.18277 0.72465 0.0
C1104 C 0.67139 0.18729 0.78096 0.0
C1105 C 0.69492 0.15165 0.77952 0.0
N1106 N 0.72099 0.09557 0.74995 0.0
N1107 N 0.62097 0.22928 0.75595 0.0
C1108 C 0.7016 0.13197 0.75063 0.0
C1109 C 0.65062 0.20072 0.75386 0.0
N1110 N 0.69881 0.136 0.69424 0.0
N1111 N 0.66933 0.20856 0.80819 0.0
H1112 H 0.60465 0.23954 0.73673 0.0
H1113 H 0.61006 0.2403 0.77703 0.0
H1114 H 0.68392 0.19933 0.82855 0.0
H1115 H 0.65617 0.23699 0.80994 0.0
H1116 H 0.72179 0.11493 0.69127 0.0
H1117 H 0.68834 0.14815 0.67331 0.0
H1118 H 0.7226 0.07747 0.73017 0.0
H1119 H 0.73303 0.08188 0.76978 0.0
C1120 C 0.96388 0.51992 0.12221 0.0
C1121 C 0.99672 0.54735 0.11911 0.0
C1122 C 0.04415 0.49058 0.11783 0.0
C1123 C 0.01116 0.46328 0.12011 0.0
N1124 N 0.93975 0.45162 0.11409 0.0
N1125 N 0.06612 0.55821 0.1043 0.0
C1126 C 0.97104 0.47796 0.11862 0.0
C1127 C 0.03621 0.53238 0.11357 0.0
N1128 N 0.92656 0.53322 0.13102 0.0
N1129 N 0.08285 0.47729 0.12194 0.0
H1130 H 0.06092 0.58887 0.1004 0.0
H1131 H 0.09464 0.54847 0.09735 0.0
H1132 H 0.09007 0.44712 0.12584 0.0
H1133 H 0.10751 0.49673 0.12402 0.0
H1134 H 0.90298 0.51378 0.13693 0.0
H1135 H 0.92004 0.56341 0.13524 0.0
H1136 H 0.91013 0.46101 0.11014 0.0
H1137 H 0.9443 0.42072 0.1109 0.0
C1138 C 0.4686 0.04246 0.11755 0.0
C1139 C 0.45402 0.00292 0.12355 0.0
C1140 C 0.52307 0.97722 0.11993 0.0
C1141 C 0.53792 0.01733 0.12068 0.0
N1142 N 0.52452 0.08897 0.12333 0.0
N1143 N 0.46845 0.93267 0.13443 0.0
C1144 C 0.51069 0.05033 0.11981 0.0
C1145 C 0.48141 0.97005 0.12532 0.0
N1146 N 0.44216 0.07243 0.10971 0.0
N1147 N 0.54895 0.94599 0.11431 0.0
H1148 H 0.43848 0.92614 0.13979 0.0
H1149 H 0.4881 0.90897 0.13938 0.0
H1150 H 0.57963 0.95056 0.10982 0.0
H1151 H 0.53922 0.91639 0.11082 0.0
H1152 H 0.45143 0.101 0.10243 0.0
H1153 H 0.41117 0.06731 0.10733 0.0
H1154 H 0.50542 0.1136 0.12644 0.0
H1155 H 0.55502 0.09617 0.1257 0.0
C1156 C 0.49269 0.01957 0.41255 0.0
C1157 C 0.5027 0.03801 0.3837 0.0
C1158 C 0.50122 0.97213 0.35806 0.0
C1159 C 0.49587 0.95321 0.3874 0.0
N1160 N 0.49245 0.95814 0.44339 0.0
N1161 N 0.52521 0.03102 0.33047 0.0
C1162 C 0.4932 0.97669 0.41495 0.0
C1163 C 0.50947 0.01405 0.35686 0.0
N1164 N 0.4813 0.04286 0.43728 0.0
N1165 N 0.49699 0.95035 0.3312 0.0
H1166 H 0.53278 0.06151 0.32882 0.0
H1167 H 0.53465 0.01411 0.31137 0.0
H1168 H 0.48973 0.91971 0.33098 0.0
H1169 H 0.49645 0.96356 0.30916 0.0
H1170 H 0.46966 0.03095 0.45787 0.0
H1171 H 0.48032 0.0743 0.43628 0.0
H1172 H 0.49487 0.97374 0.46438 0.0
H1173 H 0.49266 0.92683 0.44599 0.0
C1174 C 0.9681 0.46299 0.40291 0.0
C1175 C 0.95412 0.50236 0.39584 0.0
C1176 C 0.02359 0.52737 0.39848 0.0
C1177 C 0.03772 0.48704 0.39829 0.0
N1178 N 0.023 0.41549 0.39779 0.0
N1179 N 0.96925 0.57223 0.38404 0.0
C1180 C 0.00997 0.45445 0.40046 0.0
C1181 C 0.98191 0.53491 0.39345 0.0
N1182 N 0.9412 0.43378 0.41167 0.0
N1183 N 0.05021 0.55839 0.40309 0.0
H1184 H 0.93918 0.57902 0.37923 0.0
H1185 H 0.9891 0.59563 0.37853 0.0
H1186 H 0.08091 0.55348 0.40723 0.0
H1187 H 0.04116 0.58826 0.40607 0.0
H1188 H 0.95002 0.40541 0.41965 0.0
H1189 H 0.91035 0.43953 0.41406 0.0
H1190 H 0.00338 0.391 0.39562 0.0
H1191 H 0.05329 0.40773 0.39521 0.0
C1192 C 0.95891 0.5124 0.90087 0.0
C1193 C 0.99099 0.54054 0.89751 0.0
C1194 C 0.04011 0.4856 0.89554 0.0
C1195 C 0.00803 0.45739 0.89875 0.0
N1196 N 0.93953 0.44404 0.91457 0.0
N1197 N 0.06205 0.55492 0.90225 0.0
C1198 C 0.96828 0.47096 0.90501 0.0
C1199 C 0.03163 0.52735 0.89864 0.0
N1200 N 0.91967 0.52455 0.89777 0.0
N1201 N 0.07787 0.47308 0.88714 0.0
H1202 H 0.05641 0.58572 0.90494 0.0
H1203 H 0.0921 0.5468 0.90587 0.0
H1204 H 0.08539 0.44289 0.88387 0.0
H1205 H 0.10097 0.49295 0.88099 0.0
H1206 H 0.89548 0.50445 0.89639 0.0
H1207 H 0.91138 0.55452 0.89421 0.0
H1208 H 0.91086 0.45268 0.922 0.0
H1209 H 0.94592 0.41353 0.91814 0.0
C1210 C 0.52815 0.97127 0.89639 0.0
C1211 C 0.54449 0.01024 0.89115 0.0
C1212 C 0.47661 0.03883 0.89575 0.0
C1213 C 0.45986 0.99944 0.89415 0.0
N1214 N 0.47076 0.92752 0.88837 0.0
N1215 N 0.5332 0.08142 0.88199 0.0
C1216 C 0.48582 0.96531 0.89375 0.0
C1217 C 0.51857 0.04433 0.89026 0.0
N1218 N 0.55316 0.9399 0.90371 0.0
N1219 N 0.45231 0.07097 0.90238 0.0
H1220 H 0.56345 0.08676 0.87676 0.0
H1221 H 0.51462 0.10617 0.87768 0.0
H1222 H 0.42153 0.06768 0.90706 0.0
H1223 H 0.46349 0.09994 0.90647 0.0
H1224 H 0.54249 0.91156 0.91042 0.0
H1225 H 0.58432 0.94358 0.90636 0.0
H1226 H 0.4891 0.90251 0.88443 0.0
H1227 H 0.44023 0.92162 0.8849 0.0
C1228 C 0.51289 0.9776 0.59714 0.0
C1229 C 0.50726 0.95763 0.62609 0.0
C1230 C 0.51069 0.02238 0.65338 0.0
C1231 C 0.51175 0.0427 0.62433 0.0
N1232 N 0.50842 0.04047 0.56825 0.0
N1233 N 0.49205 0.96171 0.68105 0.0
C1234 C 0.51142 0.02055 0.59605 0.0
C1235 C 0.50371 0.98021 0.65403 0.0
N1236 N 0.521 0.95565 0.57095 0.0
N1237 N 0.51769 0.04314 0.68039 0.0
H1238 H 0.48559 0.93098 0.6825 0.0
H1239 H 0.48476 0.9775 0.70125 0.0
H1240 H 0.5238 0.07403 0.68092 0.0
H1241 H 0.52155 0.02906 0.7019 0.0
H1242 H 0.52952 0.96864 0.54985 0.0
H1243 H 0.52241 0.92419 0.57094 0.0
H1244 H 0.50363 0.02589 0.54707 0.0
H1245 H 0.50764 0.07188 0.5666 0.0
C1246 C 0.9823 0.47463 0.61468 0.0
C1247 C 0.9685 0.51502 0.61564 0.0
C1248 C 0.03836 0.53873 0.61275 0.0
C1249 C 0.0518 0.49899 0.61921 0.0
N1250 N 0.0358 0.42877 0.62902 0.0
N1251 N 0.98349 0.58643 0.61738 0.0
C1252 C 0.02372 0.46655 0.62027 0.0
C1253 C 0.99647 0.54748 0.61448 0.0
N1254 N 0.95552 0.44406 0.60897 0.0
N1255 N 0.06578 0.56805 0.60524 0.0
H1256 H 0.95311 0.59424 0.61908 0.0
H1257 H 0.00308 0.61079 0.62038 0.0
H1258 H 0.09666 0.56214 0.60339 0.0
H1259 H 0.05749 0.59679 0.59774 0.0
H1260 H 0.96436 0.41424 0.60542 0.0
H1261 H 0.92497 0.44947 0.60451 0.0
H1262 H 0.01561 0.40531 0.63355 0.0
H1263 H 0.06563 0.42154 0.63431 0.0
loop_
_geom_bond_atom_site_label_1
_geom_bond_atom_site_label_2
_geom_bond_distance
_geom_bond_site_symmetry_2
_ccdc_geom_bond_type
Co0 O3 1.970 . S
Co0 N17 1.989 . S
Co0 O25 1.967 . S
Co0 O32 1.920 . S
Co1 O4 1.966 . S
Co1 N10 2.022 . S
Co1 N18 1.993 . S
Co1 O26 1.941 . S
C2 O3 1.258 . S
C2 O4 1.263 . S
O3 Co0 1.970 . S
O3 C2 1.258 . S
O4 Co1 1.966 . S
O4 C2 1.263 . S
C5 O6 1.235 . S
C5 O32 1.289 . S
O6 C5 1.235 . S
C7 C9 1.400 . S
C7 N10 1.351 . S
C7 C12 1.501 . S
C8 C9 1.384 1_655 S
C8 N11 1.340 1_655 S
C9 C7 1.400 . S
C9 C8 1.384 1_455 S
N10 Co1 2.022 . S
N10 C7 1.351 . S
N10 N11 1.365 . S
N11 C8 1.340 1_455 S
N11 N10 1.365 . S
N11 H31 0.862 1_455 S
C12 C7 1.501 . S
C12 H13 0.961 . S
C12 H14 0.961 . S
C12 H15 0.960 . S
H13 C12 0.961 . S
H14 C12 0.961 . S
H15 C12 0.960 . S
C16 N17 1.342 . S
C16 C20 1.401 . S
C16 C21 1.499 . S
N17 Co0 1.989 . S
N17 C16 1.342 . S
N17 N18 1.388 . S
N18 Co1 1.993 . S
N18 N17 1.388 . S
N18 C19 1.346 . S
C19 N18 1.346 . S
C19 C20 1.396 . S
C19 C29 1.510 . S
C20 C16 1.401 . S
C20 C19 1.396 . S
C21 C16 1.499 . S
C21 H22 0.959 . S
C21 H23 0.960 . S
C21 H24 0.961 . S
H22 C21 0.959 . S
H23 C21 0.960 . S
H24 C21 0.961 . S
O25 Co0 1.967 . S
O25 C33 1.258 . S
O26 Co1 1.941 . S
O26 C33 1.266 . S
H27 C29 0.959 . S
H28 C29 0.961 . S
C29 C19 1.510 . S
C29 H27 0.959 . S
C29 H28 0.961 . S
C29 H30 0.960 . S
H30 C29 0.960 . S
H31 N11 0.862 1_655 S
O32 Co0 1.920 . S
O32 C5 1.289 . S
C33 O25 1.258 . S
C33 O26 1.266 . S
Co34 O37 1.970 . S
Co34 N51 1.989 . S
Co34 O59 1.967 . S
Co34 O66 1.920 . S
Co35 O38 1.966 . S
Co35 N44 2.022 . S
Co35 N52 1.993 . S
Co35 O60 1.941 . S
C36 O37 1.258 . S
C36 O38 1.263 . S
O37 Co34 1.970 . S
O37 C36 1.258 . S
O38 Co35 1.966 . S
O38 C36 1.263 . S
C39 O40 1.235 . S
C39 O66 1.289 . S
O40 C39 1.235 . S
C41 C43 1.400 . S
C41 N44 1.351 . S
C41 C46 1.501 . S
C42 C43 1.385 1_565 S
C42 N45 1.340 1_565 S
C43 C41 1.400 . S
C43 C42 1.385 1_545 S
N44 Co35 2.022 . S
N44 C41 1.351 . S
N44 N45 1.365 . S
N45 C42 1.340 1_545 S
N45 N44 1.365 . S
N45 H65 0.862 1_545 S
C46 C41 1.501 . S
C46 H47 0.961 . S
C46 H48 0.961 . S
C46 H49 0.960 . S
H47 C46 0.961 . S
H48 C46 0.961 . S
H49 C46 0.960 . S
C50 N51 1.342 . S
C50 C54 1.401 . S
C50 C55 1.499 . S
N51 Co34 1.989 . S
N51 C50 1.342 . S
N51 N52 1.388 . S
N52 Co35 1.993 . S
N52 N51 1.388 . S
N52 C53 1.346 . S
C53 N52 1.346 . S
C53 C54 1.396 . S
C53 C63 1.510 . S
C54 C50 1.401 . S
C54 C53 1.396 . S
C55 C50 1.499 . S
C55 H56 0.959 . S
C55 H57 0.960 . S
C55 H58 0.961 . S
H56 C55 0.959 . S
H57 C55 0.960 . S
H58 C55 0.961 . S
O59 Co34 1.967 . S
O59 C67 1.258 . S
O60 Co35 1.941 . S
O60 C67 1.266 . S
H61 C63 0.959 . S
H62 C63 0.961 . S
C63 C53 1.510 . S
C63 H61 0.959 . S
C63 H62 0.961 . S
C63 H64 0.960 . S
H64 C63 0.960 . S
H65 N45 0.862 1_565 S
O66 Co34 1.920 . S
O66 C39 1.289 . S
C67 O59 1.258 . S
C67 O60 1.266 . S
Co68 O71 1.970 . S
Co68 N85 1.989 . S
Co68 O93 1.967 . S
Co68 O100 1.920 . S
Co69 O72 1.966 . S
Co69 N78 2.022 . S
Co69 N86 1.993 . S
Co69 O94 1.941 . S
C70 O71 1.258 . S
C70 O72 1.263 . S
O71 Co68 1.970 . S
O71 C70 1.258 . S
O72 Co69 1.966 . S
O72 C70 1.263 . S
C73 O74 1.235 . S
C73 O100 1.289 . S
O74 C73 1.235 . S
C75 C77 1.400 . S
C75 N78 1.351 . S
C75 C80 1.501 . S
C76 C77 1.385 1_455 S
C76 N79 1.340 1_455 S
C77 C75 1.400 . S
C77 C76 1.385 1_655 S
N78 Co69 2.022 . S
N78 C75 1.351 . S
N78 N79 1.365 . S
N79 C76 1.340 1_655 S
N79 N78 1.365 . S
N79 H99 0.862 1_655 S
C80 C75 1.501 . S
C80 H81 0.961 . S
C80 H82 0.961 . S
C80 H83 0.960 . S
H81 C80 0.961 . S
H82 C80 0.961 . S
H83 C80 0.960 . S
C84 N85 1.342 . S
C84 C88 1.401 . S
C84 C89 1.499 . S
N85 Co68 1.989 . S
N85 C84 1.342 . S
N85 N86 1.388 . S
N86 Co69 1.993 . S
N86 N85 1.388 . S
N86 C87 1.346 . S
C87 N86 1.346 . S
C87 C88 1.396 . S
C87 C97 1.510 . S
C88 C84 1.401 . S
C88 C87 1.396 . S
C89 C84 1.499 . S
C89 H90 0.959 . S
C89 H91 0.960 . S
C89 H92 0.961 . S
H90 C89 0.959 . S
H91 C89 0.960 . S
H92 C89 0.961 . S
O93 Co68 1.967 . S
O93 C101 1.258 . S
O94 Co69 1.941 . S
O94 C101 1.266 . S
H95 C97 0.959 . S
H96 C97 0.961 . S
C97 C87 1.510 . S
C97 H95 0.959 . S
C97 H96 0.961 . S
C97 H98 0.960 . S
H98 C97 0.960 . S
H99 N79 0.862 1_455 S
O100 Co68 1.920 . S
O100 C73 1.289 . S
C101 O93 1.258 . S
C101 O94 1.266 . S
Co102 O105 1.970 . S
Co102 N119 1.989 . S
Co102 O127 1.967 . S
Co102 O134 1.920 . S
Co103 O106 1.966 . S
Co103 N112 2.022 . S
Co103 N120 1.993 . S
Co103 O128 1.941 . S
C104 O105 1.258 . S
C104 O106 1.263 . S
O105 Co102 1.970 . S
O105 C104 1.258 . S
O106 Co103 1.966 . S
O106 C104 1.263 . S
C107 O108 1.235 . S
C107 O134 1.289 . S
O108 C107 1.235 . S
C109 C111 1.400 . S
C109 N112 1.351 . S
C109 C114 1.501 . S
C110 C111 1.384 1_545 S
C110 N113 1.340 1_545 S
C111 C109 1.400 . S
C111 C110 1.384 1_565 S
N112 Co103 2.022 . S
N112 C109 1.351 . S
N112 N113 1.365 . S
N113 C110 1.340 1_565 S
N113 N112 1.365 . S
N113 H133 0.862 1_565 S
C114 C109 1.501 . S
C114 H115 0.961 . S
C114 H116 0.961 . S
C114 H117 0.960 . S
H115 C114 0.961 . S
H116 C114 0.961 . S
H117 C114 0.960 . S
C118 N119 1.342 . S
C118 C122 1.401 . S
C118 C123 1.499 . S
N119 Co102 1.989 . S
N119 C118 1.342 . S
N119 N120 1.388 . S
N120 Co103 1.993 . S
N120 N119 1.388 . S
N120 C121 1.346 . S
C121 N120 1.346 . S
C121 C122 1.396 . S
C121 C131 1.510 . S
C122 C118 1.401 . S
C122 C121 1.396 . S
C123 C118 1.499 . S
C123 H124 0.959 . S
C123 H125 0.960 . S
C123 H126 0.961 . S
H124 C123 0.959 . S
H125 C123 0.960 . S
H126 C123 0.961 . S
O127 Co102 1.967 . S
O127 C135 1.258 . S
O128 Co103 1.941 . S
O128 C135 1.266 . S
H129 C131 0.959 . S
H130 C131 0.961 . S
C131 C121 1.510 . S
C131 H129 0.959 . S
C131 H130 0.961 . S
C131 H132 0.960 . S
H132 C131 0.960 . S
H133 N113 0.862 1_545 S
O134 Co102 1.920 . S
O134 C107 1.289 . S
C135 O127 1.258 . S
C135 O128 1.266 . S
Co136 O139 1.970 . S
Co136 N153 1.989 . S
Co136 O161 1.967 . S
Co136 O168 1.920 . S
Co137 O140 1.966 . S
Co137 N146 2.022 . S
Co137 N154 1.993 . S
Co137 O162 1.941 . S
C138 O139 1.258 . S
C138 O140 1.263 . S
O139 Co136 1.970 . S
O139 C138 1.258 . S
O140 Co137 1.966 . S
O140 C138 1.263 . S
C141 O142 1.235 . S
C141 O168 1.289 . S
O142 C141 1.235 . S
C143 C145 1.400 . S
C143 N146 1.351 . S
C143 C148 1.501 . S
C144 C145 1.387 . S
C144 N147 1.341 . S
C145 C143 1.400 . S
C145 C144 1.387 . S
N146 Co137 2.022 . S
N146 C143 1.351 . S
N146 N147 1.365 . S
N147 C144 1.341 . S
N147 N146 1.365 . S
N147 H167 0.862 . S
C148 C143 1.501 . S
C148 H149 0.961 . S
C148 H150 0.961 . S
C148 H151 0.960 . S
H149 C148 0.961 . S
H150 C148 0.961 . S
H151 C148 0.960 . S
C152 N153 1.342 . S
C152 C156 1.401 . S
C152 C157 1.499 . S
N153 Co136 1.989 . S
N153 C152 1.342 . S
N153 N154 1.388 . S
N154 Co137 1.993 . S
N154 N153 1.388 . S
N154 C155 1.346 . S
C155 N154 1.346 . S
C155 C156 1.396 . S
C155 C165 1.510 . S
C156 C152 1.401 . S
C156 C155 1.396 . S
C157 C152 1.499 . S
C157 H158 0.959 . S
C157 H159 0.960 . S
C157 H160 0.961 . S
H158 C157 0.959 . S
H159 C157 0.960 . S
H160 C157 0.961 . S
O161 Co136 1.967 . S
O161 C169 1.258 . S
O162 Co137 1.941 . S
O162 C169 1.266 . S
H163 C165 0.959 . S
H164 C165 0.961 . S
C165 C155 1.510 . S
C165 H163 0.959 . S
C165 H164 0.961 . S
C165 H166 0.960 . S
H166 C165 0.960 . S
H167 N147 0.862 . S
O168 Co136 1.920 . S
O168 C141 1.289 . S
C169 O161 1.258 . S
C169 O162 1.266 . S
Co170 O173 1.970 . S
Co170 N187 1.989 . S
Co170 O195 1.967 . S
Co170 O202 1.920 . S
Co171 O174 1.966 . S
Co171 N180 2.022 . S
Co171 N188 1.993 . S
Co171 O196 1.941 . S
C172 O173 1.258 . S
C172 O174 1.263 . S
O173 Co170 1.970 . S
O173 C172 1.258 . S
O174 Co171 1.966 . S
O174 C172 1.263 . S
C175 O176 1.235 . S
C175 O202 1.289 . S
O176 C175 1.235 . S
C177 C179 1.400 . S
C177 N180 1.351 . S
C177 C182 1.501 . S
C178 C179 1.387 . S
C178 N181 1.341 . S
C179 C177 1.400 . S
C179 C178 1.387 . S
N180 Co171 2.022 . S
N180 C177 1.351 . S
N180 N181 1.365 . S
N181 C178 1.341 . S
N181 N180 1.365 . S
N181 H201 0.862 . S
C182 C177 1.501 . S
C182 H183 0.961 . S
C182 H184 0.961 . S
C182 H185 0.960 . S
H183 C182 0.961 . S
H184 C182 0.961 . S
H185 C182 0.960 . S
C186 N187 1.342 . S
C186 C190 1.401 . S
C186 C191 1.499 . S
N187 Co170 1.989 . S
N187 C186 1.342 . S
N187 N188 1.388 . S
N188 Co171 1.993 . S
N188 N187 1.388 . S
N188 C189 1.346 . S
C189 N188 1.346 . S
C189 C190 1.396 . S
C189 C199 1.510 . S
C190 C186 1.401 . S
C190 C189 1.396 . S
C191 C186 1.499 . S
C191 H192 0.959 . S
C191 H193 0.960 . S
C191 H194 0.961 . S
H192 C191 0.959 . S
H193 C191 0.960 . S
H194 C191 0.961 . S
O195 Co170 1.967 . S
O195 C203 1.258 . S
O196 Co171 1.941 . S
O196 C203 1.266 . S
H197 C199 0.959 . S
H198 C199 0.961 . S
C199 C189 1.510 . S
C199 H197 0.959 . S
C199 H198 0.961 . S
C199 H200 0.960 . S
H200 C199 0.960 . S
H201 N181 0.862 . S
O202 Co170 1.920 . S
O202 C175 1.289 . S
C203 O195 1.258 . S
C203 O196 1.266 . S
Co204 O207 1.970 . S
Co204 N221 1.989 . S
Co204 O229 1.967 . S
Co204 O236 1.920 . S
Co205 O208 1.966 . S
Co205 N214 2.022 . S
Co205 N222 1.993 . S
Co205 O230 1.941 . S
C206 O207 1.258 . S
C206 O208 1.263 . S
O207 Co204 1.970 . S
O207 C206 1.258 . S
O208 Co205 1.966 . S
O208 C206 1.263 . S
C209 O210 1.235 . S
C209 O236 1.289 . S
O210 C209 1.235 . S
C211 C213 1.400 . S
C211 N214 1.351 . S
C211 C216 1.501 . S
C212 C213 1.387 . S
C212 N215 1.341 . S
C213 C211 1.400 . S
C213 C212 1.387 . S
N214 Co205 2.022 . S
N214 C211 1.351 . S
N214 N215 1.365 . S
N215 C212 1.341 . S
N215 N214 1.365 . S
N215 H235 0.862 . S
C216 C211 1.501 . S
C216 H217 0.961 . S
C216 H218 0.961 . S
C216 H219 0.960 . S
H217 C216 0.961 . S
H218 C216 0.961 . S
H219 C216 0.960 . S
C220 N221 1.342 . S
C220 C224 1.401 . S
C220 C225 1.499 . S
N221 Co204 1.989 . S
N221 C220 1.342 . S
N221 N222 1.388 . S
N222 Co205 1.993 . S
N222 N221 1.388 . S
N222 C223 1.346 . S
C223 N222 1.346 . S
C223 C224 1.396 . S
C223 C233 1.510 . S
C224 C220 1.401 . S
C224 C223 1.396 . S
C225 C220 1.499 . S
C225 H226 0.959 . S
C225 H227 0.960 . S
C225 H228 0.961 . S
H226 C225 0.959 . S
H227 C225 0.960 . S
H228 C225 0.961 . S
O229 Co204 1.967 . S
O229 C237 1.258 . S
O230 Co205 1.941 . S
O230 C237 1.266 . S
H231 C233 0.959 . S
H232 C233 0.961 . S
C233 C223 1.510 . S
C233 H231 0.959 . S
C233 H232 0.961 . S
C233 H234 0.960 . S
H234 C233 0.960 . S
H235 N215 0.862 . S
O236 Co204 1.920 . S
O236 C209 1.289 . S
C237 O229 1.258 . S
C237 O230 1.266 . S
Co238 O241 1.970 . S
Co238 N255 1.989 . S
Co238 O263 1.967 . S
Co238 O270 1.920 . S
Co239 O242 1.966 . S
Co239 N248 2.022 . S
Co239 N256 1.993 . S
Co239 O264 1.941 . S
C240 O241 1.258 . S
C240 O242 1.263 . S
O241 Co238 1.970 . S
O241 C240 1.258 . S
O242 Co239 1.966 . S
O242 C240 1.263 . S
C243 O244 1.235 . S
C243 O270 1.289 . S
O244 C243 1.235 . S
C245 C247 1.400 . S
C245 N248 1.351 . S
C245 C250 1.501 . S
C246 C247 1.387 . S
C246 N249 1.341 . S
C247 C245 1.400 . S
C247 C246 1.387 . S
N248 Co239 2.022 . S
N248 C245 1.351 . S
N248 N249 1.365 . S
N249 C246 1.341 . S
N249 N248 1.365 . S
N249 H269 0.862 . S
C250 C245 1.501 . S
C250 H251 0.961 . S
C250 H252 0.961 . S
C250 H253 0.960 . S
H251 C250 0.961 . S
H252 C250 0.961 . S
H253 C250 0.960 . S
C254 N255 1.342 . S
C254 C258 1.401 . S
C254 C259 1.499 . S
N255 Co238 1.989 . S
N255 C254 1.342 . S
N255 N256 1.388 . S
N256 Co239 1.993 . S
N256 N255 1.388 . S
N256 C257 1.346 . S
C257 N256 1.346 . S
C257 C258 1.396 . S
C257 C267 1.510 . S
C258 C254 1.401 . S
C258 C257 1.396 . S
C259 C254 1.499 . S
C259 H260 0.959 . S
C259 H261 0.960 . S
C259 H262 0.961 . S
H260 C259 0.959 . S
H261 C259 0.960 . S
H262 C259 0.961 . S
O263 Co238 1.967 . S
O263 C271 1.258 . S
O264 Co239 1.941 . S
O264 C271 1.266 . S
H265 C267 0.959 . S
H266 C267 0.961 . S
C267 C257 1.510 . S
C267 H265 0.959 . S
C267 H266 0.961 . S
C267 H268 0.960 . S
H268 C267 0.960 . S
H269 N249 0.862 . S
O270 Co238 1.920 . S
O270 C243 1.289 . S
C271 O263 1.258 . S
C271 O264 1.266 . S
Co272 O275 1.970 . S
Co272 N289 1.989 . S
Co272 O297 1.967 . S
Co272 O304 1.920 . S
Co273 O276 1.966 . S
Co273 N282 2.022 . S
Co273 N290 1.993 . S
Co273 O298 1.941 . S
C274 O275 1.258 . S
C274 O276 1.263 . S
O275 Co272 1.970 . S
O275 C274 1.258 . S
O276 Co273 1.966 . S
O276 C274 1.263 . S
C277 O278 1.235 . S
C277 O304 1.289 . S
O278 C277 1.235 . S
C279 C281 1.400 . S
C279 N282 1.351 . S
C279 C284 1.501 . S
C280 C281 1.384 1_455 S
C280 N283 1.340 1_455 S
C281 C279 1.400 . S
C281 C280 1.384 1_655 S
N282 Co273 2.022 . S
N282 C279 1.351 . S
N282 N283 1.365 . S
N283 C280 1.340 1_655 S
N283 N282 1.365 . S
N283 H303 0.862 1_655 S
C284 C279 1.501 . S
C284 H285 0.961 . S
C284 H286 0.961 . S
C284 H287 0.960 . S
H285 C284 0.961 . S
H286 C284 0.961 . S
H287 C284 0.960 . S
C288 N289 1.342 . S
C288 C292 1.401 . S
C288 C293 1.499 . S
N289 Co272 1.989 . S
N289 C288 1.342 . S
N289 N290 1.388 . S
N290 Co273 1.993 . S
N290 N289 1.388 . S
N290 C291 1.346 . S
C291 N290 1.346 . S
C291 C292 1.396 . S
C291 C301 1.510 . S
C292 C288 1.401 . S
C292 C291 1.396 . S
C293 C288 1.499 . S
C293 H294 0.959 . S
C293 H295 0.960 . S
C293 H296 0.961 . S
H294 C293 0.959 . S
H295 C293 0.960 . S
H296 C293 0.961 . S
O297 Co272 1.967 . S
O297 C305 1.258 . S
O298 Co273 1.941 . S
O298 C305 1.266 . S
H299 C301 0.959 . S
H300 C301 0.961 . S
C301 C291 1.510 . S
C301 H299 0.959 . S
C301 H300 0.961 . S
C301 H302 0.960 . S
H302 C301 0.960 . S
H303 N283 0.862 1_455 S
O304 Co272 1.920 . S
O304 C277 1.289 . S
C305 O297 1.258 . S
C305 O298 1.266 . S
Co306 O309 1.970 . S
Co306 N323 1.989 . S
Co306 O331 1.967 . S
Co306 O338 1.920 . S
Co307 O310 1.966 . S
Co307 N316 2.022 . S
Co307 N324 1.993 . S
Co307 O332 1.941 . S
C308 O309 1.258 . S
C308 O310 1.263 . S
O309 Co306 1.970 . S
O309 C308 1.258 . S
O310 Co307 1.966 . S
O310 C308 1.263 . S
C311 O312 1.235 . S
C311 O338 1.289 . S
O312 C311 1.235 . S
C313 C315 1.400 . S
C313 N316 1.351 . S
C313 C318 1.501 . S
C314 C315 1.385 1_545 S
C314 N317 1.340 1_545 S
C315 C313 1.400 . S
C315 C314 1.385 1_565 S
N316 Co307 2.022 . S
N316 C313 1.351 . S
N316 N317 1.365 . S
N317 C314 1.340 1_565 S
N317 N316 1.365 . S
N317 H337 0.862 1_565 S
C318 C313 1.501 . S
C318 H319 0.961 . S
C318 H320 0.961 . S
C318 H321 0.960 . S
H319 C318 0.961 . S
H320 C318 0.961 . S
H321 C318 0.960 . S
C322 N323 1.342 . S
C322 C326 1.401 . S
C322 C327 1.499 . S
N323 Co306 1.989 . S
N323 C322 1.342 . S
N323 N324 1.388 . S
N324 Co307 1.993 . S
N324 N323 1.388 . S
N324 C325 1.346 . S
C325 N324 1.346 . S
C325 C326 1.396 . S
C325 C335 1.510 . S
C326 C322 1.401 . S
C326 C325 1.396 . S
C327 C322 1.499 . S
C327 H328 0.959 . S
C327 H329 0.960 . S
C327 H330 0.961 . S
H328 C327 0.959 . S
H329 C327 0.960 . S
H330 C327 0.961 . S
O331 Co306 1.967 . S
O331 C339 1.258 . S
O332 Co307 1.941 . S
O332 C339 1.266 . S
H333 C335 0.959 . S
H334 C335 0.961 . S
C335 C325 1.510 . S
C335 H333 0.959 . S
C335 H334 0.961 . S
C335 H336 0.960 . S
H336 C335 0.960 . S
H337 N317 0.862 1_545 S
O338 Co306 1.920 . S
O338 C311 1.289 . S
C339 O331 1.258 . S
C339 O332 1.266 . S
Co340 O343 1.970 . S
Co340 N357 1.989 . S
Co340 O365 1.967 . S
Co340 O372 1.920 . S
Co341 O344 1.966 . S
Co341 N350 2.022 . S
Co341 N358 1.993 . S
Co341 O366 1.941 . S
C342 O343 1.258 . S
C342 O344 1.263 . S
O343 Co340 1.970 . S
O343 C342 1.258 . S
O344 Co341 1.966 . S
O344 C342 1.263 . S
C345 O346 1.235 . S
C345 O372 1.289 . S
O346 C345 1.235 . S
C347 C349 1.400 . S
C347 N350 1.351 . S
C347 C352 1.501 . S
C348 C349 1.385 1_655 S
C348 N351 1.340 1_655 S
C349 C347 1.400 . S
C349 C348 1.385 1_455 S
N350 Co341 2.022 . S
N350 C347 1.351 . S
N350 N351 1.365 . S
N351 C348 1.340 1_455 S
N351 N350 1.365 . S
N351 H371 0.862 1_455 S
C352 C347 1.501 . S
C352 H353 0.961 . S
C352 H354 0.961 . S
C352 H355 0.960 . S
H353 C352 0.961 . S
H354 C352 0.961 . S
H355 C352 0.960 . S
C356 N357 1.342 . S
C356 C360 1.401 . S
C356 C361 1.499 . S
N357 Co340 1.989 . S
N357 C356 1.342 . S
N357 N358 1.388 . S
N358 Co341 1.993 . S
N358 N357 1.388 . S
N358 C359 1.346 . S
C359 N358 1.346 . S
C359 C360 1.396 . S
C359 C369 1.510 . S
C360 C356 1.401 . S
C360 C359 1.396 . S
C361 C356 1.499 . S
C361 H362 0.959 . S
C361 H363 0.960 . S
C361 H364 0.961 . S
H362 C361 0.959 . S
H363 C361 0.960 . S
H364 C361 0.961 . S
O365 Co340 1.967 . S
O365 C373 1.258 . S
O366 Co341 1.941 . S
O366 C373 1.266 . S
H367 C369 0.959 . S
H368 C369 0.961 . S
C369 C359 1.510 . S
C369 H367 0.959 . S
C369 H368 0.961 . S
C369 H370 0.960 . S
H370 C369 0.960 . S
H371 N351 0.862 1_655 S
O372 Co340 1.920 . S
O372 C345 1.289 . S
C373 O365 1.258 . S
C373 O366 1.266 . S
Co374 O377 1.970 . S
Co374 N391 1.989 . S
Co374 O399 1.967 . S
Co374 O406 1.920 . S
Co375 O378 1.966 . S
Co375 N384 2.022 . S
Co375 N392 1.993 . S
Co375 O400 1.941 . S
C376 O377 1.258 . S
C376 O378 1.263 . S
O377 Co374 1.970 . S
O377 C376 1.258 . S
O378 Co375 1.966 . S
O378 C376 1.263 . S
C379 O380 1.235 . S
C379 O406 1.289 . S
O380 C379 1.235 . S
C381 C383 1.400 . S
C381 N384 1.351 . S
C381 C386 1.501 . S
C382 C383 1.384 1_565 S
C382 N385 1.340 1_565 S
C383 C381 1.400 . S
C383 C382 1.384 1_545 S
N384 Co375 2.022 . S
N384 C381 1.351 . S
N384 N385 1.365 . S
N385 C382 1.340 1_545 S
N385 N384 1.365 . S
N385 H405 0.862 1_545 S
C386 C381 1.501 . S
C386 H387 0.961 . S
C386 H388 0.961 . S
C386 H389 0.960 . S
H387 C386 0.961 . S
H388 C386 0.961 . S
H389 C386 0.960 . S
C390 N391 1.342 . S
C390 C394 1.401 . S
C390 C395 1.499 . S
N391 Co374 1.989 . S
N391 C390 1.342 . S
N391 N392 1.388 . S
N392 Co375 1.993 . S
N392 N391 1.388 . S
N392 C393 1.346 . S
C393 N392 1.346 . S
C393 C394 1.396 . S
C393 C403 1.510 . S
C394 C390 1.401 . S
C394 C393 1.396 . S
C395 C390 1.499 . S
C395 H396 0.959 . S
C395 H397 0.960 . S
C395 H398 0.961 . S
H396 C395 0.959 . S
H397 C395 0.960 . S
H398 C395 0.961 . S
O399 Co374 1.967 . S
O399 C407 1.258 . S
O400 Co375 1.941 . S
O400 C407 1.266 . S
H401 C403 0.959 . S
H402 C403 0.961 . S
C403 C393 1.510 . S
C403 H401 0.959 . S
C403 H402 0.961 . S
C403 H404 0.960 . S
H404 C403 0.960 . S
H405 N385 0.862 1_565 S
O406 Co374 1.920 . S
O406 C379 1.289 . S
C407 O399 1.258 . S
C407 O400 1.266 . S
Co408 O411 1.970 . S
Co408 N425 1.989 . S
Co408 O433 1.967 . S
Co408 O440 1.920 . S
Co409 O412 1.966 . S
Co409 N418 2.022 . S
Co409 N426 1.993 . S
Co409 O434 1.941 . S
C410 O411 1.258 . S
C410 O412 1.263 . S
O411 Co408 1.970 . S
O411 C410 1.258 . S
O412 Co409 1.966 . S
O412 C410 1.263 . S
C413 O414 1.235 . S
C413 O440 1.289 . S
O414 C413 1.235 . S
C415 C417 1.400 . S
C415 N418 1.351 . S
C415 C420 1.501 . S
C416 C417 1.387 . S
C416 N419 1.341 . S
C417 C415 1.400 . S
C417 C416 1.387 . S
N418 Co409 2.022 . S
N418 C415 1.351 . S
N418 N419 1.365 . S
N419 C416 1.341 . S
N419 N418 1.365 . S
N419 H439 0.862 . S
C420 C415 1.501 . S
C420 H421 0.961 . S
C420 H422 0.961 . S
C420 H423 0.960 . S
H421 C420 0.961 . S
H422 C420 0.961 . S
H423 C420 0.960 . S
C424 N425 1.342 . S
C424 C428 1.401 . S
C424 C429 1.499 . S
N425 Co408 1.989 . S
N425 C424 1.342 . S
N425 N426 1.388 . S
N426 Co409 1.993 . S
N426 N425 1.388 . S
N426 C427 1.346 . S
C427 N426 1.346 . S
C427 C428 1.396 . S
C427 C437 1.510 . S
C428 C424 1.401 . S
C428 C427 1.396 . S
C429 C424 1.499 . S
C429 H430 0.959 . S
C429 H431 0.960 . S
C429 H432 0.961 . S
H430 C429 0.959 . S
H431 C429 0.960 . S
H432 C429 0.961 . S
O433 Co408 1.967 . S
O433 C441 1.258 . S
O434 Co409 1.941 . S
O434 C441 1.266 . S
H435 C437 0.959 . S
H436 C437 0.961 . S
C437 C427 1.510 . S
C437 H435 0.959 . S
C437 H436 0.961 . S
C437 H438 0.960 . S
H438 C437 0.960 . S
H439 N419 0.862 . S
O440 Co408 1.920 . S
O440 C413 1.289 . S
C441 O433 1.258 . S
C441 O434 1.266 . S
Co442 O445 1.970 . S
Co442 N459 1.989 . S
Co442 O467 1.967 . S
Co442 O474 1.920 . S
Co443 O446 1.966 . S
Co443 N452 2.022 . S
Co443 N460 1.993 . S
Co443 O468 1.941 . S
C444 O445 1.258 . S
C444 O446 1.263 . S
O445 Co442 1.970 . S
O445 C444 1.258 . S
O446 Co443 1.966 . S
O446 C444 1.263 . S
C447 O448 1.235 . S
C447 O474 1.289 . S
O448 C447 1.235 . S
C449 C451 1.400 . S
C449 N452 1.351 . S
C449 C454 1.501 . S
C450 C451 1.387 . S
C450 N453 1.341 . S
C451 C449 1.400 . S
C451 C450 1.387 . S
N452 Co443 2.022 . S
N452 C449 1.351 . S
N452 N453 1.365 . S
N453 C450 1.341 . S
N453 N452 1.365 . S
N453 H473 0.862 . S
C454 C449 1.501 . S
C454 H455 0.961 . S
C454 H456 0.961 . S
C454 H457 0.960 . S
H455 C454 0.961 . S
H456 C454 0.961 . S
H457 C454 0.960 . S
C458 N459 1.342 . S
C458 C462 1.401 . S
C458 C463 1.499 . S
N459 Co442 1.989 . S
N459 C458 1.342 . S
N459 N460 1.388 . S
N460 Co443 1.993 . S
N460 N459 1.388 . S
N460 C461 1.346 . S
C461 N460 1.346 . S
C461 C462 1.396 . S
C461 C471 1.510 . S
C462 C458 1.401 . S
C462 C461 1.396 . S
C463 C458 1.499 . S
C463 H464 0.959 . S
C463 H465 0.960 . S
C463 H466 0.961 . S
H464 C463 0.959 . S
H465 C463 0.960 . S
H466 C463 0.961 . S
O467 Co442 1.967 . S
O467 C475 1.258 . S
O468 Co443 1.941 . S
O468 C475 1.266 . S
H469 C471 0.959 . S
H470 C471 0.961 . S
C471 C461 1.510 . S
C471 H469 0.959 . S
C471 H470 0.961 . S
C471 H472 0.960 . S
H472 C471 0.960 . S
H473 N453 0.862 . S
O474 Co442 1.920 . S
O474 C447 1.289 . S
C475 O467 1.258 . S
C475 O468 1.266 . S
Co476 O479 1.970 . S
Co476 N493 1.989 . S
Co476 O501 1.967 . S
Co476 O508 1.920 . S
Co477 O480 1.966 . S
Co477 N486 2.022 . S
Co477 N494 1.993 . S
Co477 O502 1.941 . S
C478 O479 1.258 . S
C478 O480 1.263 . S
O479 Co476 1.970 . S
O479 C478 1.258 . S
O480 Co477 1.966 . S
O480 C478 1.263 . S
C481 O482 1.235 . S
C481 O508 1.289 . S
O482 C481 1.235 . S
C483 C485 1.400 . S
C483 N486 1.351 . S
C483 C488 1.501 . S
C484 C485 1.387 . S
C484 N487 1.341 . S
C485 C483 1.400 . S
C485 C484 1.387 . S
N486 Co477 2.022 . S
N486 C483 1.351 . S
N486 N487 1.365 . S
N487 C484 1.341 . S
N487 N486 1.365 . S
N487 H507 0.862 . S
C488 C483 1.501 . S
C488 H489 0.961 . S
C488 H490 0.961 . S
C488 H491 0.960 . S
H489 C488 0.961 . S
H490 C488 0.961 . S
H491 C488 0.960 . S
C492 N493 1.342 . S
C492 C496 1.401 . S
C492 C497 1.499 . S
N493 Co476 1.989 . S
N493 C492 1.342 . S
N493 N494 1.388 . S
N494 Co477 1.993 . S
N494 N493 1.388 . S
N494 C495 1.346 . S
C495 N494 1.346 . S
C495 C496 1.396 . S
C495 C505 1.510 . S
C496 C492 1.401 . S
C496 C495 1.396 . S
C497 C492 1.499 . S
C497 H498 0.959 . S
C497 H499 0.960 . S
C497 H500 0.961 . S
H498 C497 0.959 . S
H499 C497 0.960 . S
H500 C497 0.961 . S
O501 Co476 1.967 . S
O501 C509 1.258 . S
O502 Co477 1.941 . S
O502 C509 1.266 . S
H503 C505 0.959 . S
H504 C505 0.961 . S
C505 C495 1.510 . S
C505 H503 0.959 . S
C505 H504 0.961 . S
C505 H506 0.960 . S
H506 C505 0.960 . S
H507 N487 0.862 . S
O508 Co476 1.920 . S
O508 C481 1.289 . S
C509 O501 1.258 . S
C509 O502 1.266 . S
Co510 O513 1.970 . S
Co510 N527 1.989 . S
Co510 O535 1.967 . S
Co510 O542 1.920 . S
Co511 O514 1.966 . S
Co511 N520 2.022 . S
Co511 N528 1.993 . S
Co511 O536 1.941 . S
C512 O513 1.258 . S
C512 O514 1.263 . S
O513 Co510 1.970 . S
O513 C512 1.258 . S
O514 Co511 1.966 . S
O514 C512 1.263 . S
C515 O516 1.235 . S
C515 O542 1.289 . S
O516 C515 1.235 . S
C517 C519 1.400 . S
C517 N520 1.351 . S
C517 C522 1.501 . S
C518 C519 1.387 . S
C518 N521 1.341 . S
C519 C517 1.400 . S
C519 C518 1.387 . S
N520 Co511 2.022 . S
N520 C517 1.351 . S
N520 N521 1.365 . S
N521 C518 1.341 . S
N521 N520 1.365 . S
N521 H541 0.862 . S
C522 C517 1.501 . S
C522 H523 0.961 . S
C522 H524 0.961 . S
C522 H525 0.960 . S
H523 C522 0.961 . S
H524 C522 0.961 . S
H525 C522 0.960 . S
C526 N527 1.342 . S
C526 C530 1.401 . S
C526 C531 1.499 . S
N527 Co510 1.989 . S
N527 C526 1.342 . S
N527 N528 1.388 . S
N528 Co511 1.993 . S
N528 N527 1.388 . S
N528 C529 1.346 . S
C529 N528 1.346 . S
C529 C530 1.396 . S
C529 C539 1.510 . S
C530 C526 1.401 . S
C530 C529 1.396 . S
C531 C526 1.499 . S
C531 H532 0.959 . S
C531 H533 0.960 . S
C531 H534 0.961 . S
H532 C531 0.959 . S
H533 C531 0.960 . S
H534 C531 0.961 . S
O535 Co510 1.967 . S
O535 C543 1.258 . S
O536 Co511 1.941 . S
O536 C543 1.266 . S
H537 C539 0.959 . S
H538 C539 0.961 . S
C539 C529 1.510 . S
C539 H537 0.959 . S
C539 H538 0.961 . S
C539 H540 0.960 . S
H540 C539 0.960 . S
H541 N521 0.862 . S
O542 Co510 1.920 . S
O542 C515 1.289 . S
C543 O535 1.258 . S
C543 O536 1.266 . S
C544 C545 1.363 . S
C544 C550 1.379 1_556 S
C544 N552 1.356 . S
C545 C544 1.363 . S
C545 C551 1.363 . S
C546 C547 1.363 . S
C546 C551 1.379 1_554 S
C546 N553 1.356 . S
C547 C546 1.363 . S
C547 C550 1.363 . S
N548 C550 1.356 . S
N548 H560 0.984 . S
N548 H561 0.985 . S
N549 C551 1.356 . S
N549 H554 0.984 . S
N549 H555 0.985 . S
C550 C544 1.379 1_554 S
C550 C547 1.363 . S
C550 N548 1.356 . S
C551 C545 1.363 . S
C551 C546 1.379 1_556 S
C551 N549 1.356 . S
N552 C544 1.356 . S
N552 H558 0.984 . S
N552 H559 0.984 . S
N553 C546 1.356 . S
N553 H556 0.984 . S
N553 H557 0.985 . S
H554 N549 0.984 . S
H555 N549 0.985 . S
H556 N553 0.984 . S
H557 N553 0.985 . S
H558 N552 0.984 . S
H559 N552 0.984 . S
H560 N548 0.984 . S
H561 N548 0.985 . S
C562 C563 1.363 . S
C562 C568 1.379 1_556 S
C562 N570 1.356 . S
C563 C562 1.363 . S
C563 C569 1.363 . S
C564 C565 1.363 . S
C564 C569 1.379 1_554 S
C564 N571 1.356 . S
C565 C564 1.363 . S
C565 C568 1.363 . S
N566 C568 1.356 . S
N566 H578 0.984 . S
N566 H579 0.985 . S
N567 C569 1.356 . S
N567 H572 0.984 . S
N567 H573 0.985 . S
C568 C562 1.379 1_554 S
C568 C565 1.363 . S
C568 N566 1.356 . S
C569 C563 1.363 . S
C569 C564 1.379 1_556 S
C569 N567 1.356 . S
N570 C562 1.356 . S
N570 H576 0.984 . S
N570 H577 0.984 . S
N571 C564 1.356 . S
N571 H574 0.984 . S
N571 H575 0.985 . S
H572 N567 0.984 . S
H573 N567 0.985 . S
H574 N571 0.984 . S
H575 N571 0.985 . S
H576 N570 0.984 . S
H577 N570 0.984 . S
H578 N566 0.984 . S
H579 N566 0.985 . S
C580 C581 1.363 . S
C580 C586 1.379 1_556 S
C580 N588 1.356 . S
C581 C580 1.363 . S
C581 C587 1.363 . S
C582 C583 1.363 . S
C582 C587 1.379 1_554 S
C582 N589 1.356 . S
C583 C582 1.363 . S
C583 C586 1.363 . S
N584 C586 1.356 . S
N584 H596 0.984 . S
N584 H597 0.985 . S
N585 C587 1.356 . S
N585 H590 0.984 . S
N585 H591 0.985 . S
C586 C580 1.379 1_554 S
C586 C583 1.363 . S
C586 N584 1.356 . S
C587 C581 1.363 . S
C587 C582 1.379 1_556 S
C587 N585 1.356 . S
N588 C580 1.356 . S
N588 H594 0.984 . S
N588 H595 0.984 . S
N589 C582 1.356 . S
N589 H592 0.984 . S
N589 H593 0.985 . S
H590 N585 0.984 . S
H591 N585 0.985 . S
H592 N589 0.984 . S
H593 N589 0.985 . S
H594 N588 0.984 . S
H595 N588 0.984 . S
H596 N584 0.984 . S
H597 N584 0.985 . S
C598 C599 1.363 . S
C598 C604 1.379 1_556 S
C598 N606 1.356 . S
C599 C598 1.363 . S
C599 C605 1.363 . S
C600 C601 1.363 . S
C600 C605 1.379 1_554 S
C600 N607 1.356 . S
C601 C600 1.363 . S
C601 C604 1.363 . S
N602 C604 1.356 . S
N602 H614 0.984 . S
N602 H615 0.985 . S
N603 C605 1.356 . S
N603 H608 0.984 . S
N603 H609 0.985 . S
C604 C598 1.379 1_554 S
C604 C601 1.363 . S
C604 N602 1.356 . S
C605 C599 1.363 . S
C605 C600 1.379 1_556 S
C605 N603 1.356 . S
N606 C598 1.356 . S
N606 H612 0.984 . S
N606 H613 0.984 . S
N607 C600 1.356 . S
N607 H610 0.984 . S
N607 H611 0.985 . S
H608 N603 0.984 . S
H609 N603 0.985 . S
H610 N607 0.984 . S
H611 N607 0.985 . S
H612 N606 0.984 . S
H613 N606 0.984 . S
H614 N602 0.984 . S
H615 N602 0.985 . S
C616 C617 1.363 . S
C616 C622 1.379 . S
C616 N624 1.356 . S
C617 C616 1.363 . S
C617 C623 1.363 . S
C618 C619 1.363 . S
C618 C623 1.379 . S
C618 N625 1.356 . S
C619 C618 1.363 . S
C619 C622 1.363 . S
N620 C622 1.356 . S
N620 H632 0.984 . S
N620 H633 0.985 . S
N621 C623 1.356 . S
N621 H626 0.984 . S
N621 H627 0.985 . S
C622 C616 1.379 . S
C622 C619 1.363 . S
C622 N620 1.356 . S
C623 C617 1.363 . S
C623 C618 1.379 . S
C623 N621 1.356 . S
N624 C616 1.356 . S
N624 H630 0.984 . S
N624 H631 0.984 . S
N625 C618 1.356 . S
N625 H628 0.984 . S
N625 H629 0.985 . S
H626 N621 0.984 . S
H627 N621 0.985 . S
H628 N625 0.984 . S
H629 N625 0.985 . S
H630 N624 0.984 . S
H631 N624 0.984 . S
H632 N620 0.984 . S
H633 N620 0.985 . S
C634 C635 1.363 . S
C634 C640 1.379 . S
C634 N642 1.356 . S
C635 C634 1.363 . S
C635 C641 1.363 . S
C636 C637 1.363 . S
C636 C641 1.379 . S
C636 N643 1.356 . S
C637 C636 1.363 . S
C637 C640 1.363 . S
N638 C640 1.356 . S
N638 H650 0.984 . S
N638 H651 0.985 . S
N639 C641 1.356 . S
N639 H644 0.984 . S
N639 H645 0.985 . S
C640 C634 1.379 . S
C640 C637 1.363 . S
C640 N638 1.356 . S
C641 C635 1.363 . S
C641 C636 1.379 . S
C641 N639 1.356 . S
N642 C634 1.356 . S
N642 H648 0.984 . S
N642 H649 0.984 . S
N643 C636 1.356 . S
N643 H646 0.984 . S
N643 H647 0.985 . S
H644 N639 0.984 . S
H645 N639 0.985 . S
H646 N643 0.984 . S
H647 N643 0.985 . S
H648 N642 0.984 . S
H649 N642 0.984 . S
H650 N638 0.984 . S
H651 N638 0.985 . S
C652 C653 1.363 . S
C652 C658 1.379 . S
C652 N660 1.356 . S
C653 C652 1.363 . S
C653 C659 1.363 . S
C654 C655 1.363 . S
C654 C659 1.379 . S
C654 N661 1.356 . S
C655 C654 1.363 . S
C655 C658 1.363 . S
N656 C658 1.356 . S
N656 H668 0.984 . S
N656 H669 0.985 . S
N657 C659 1.356 . S
N657 H662 0.984 . S
N657 H663 0.985 . S
C658 C652 1.379 . S
C658 C655 1.363 . S
C658 N656 1.356 . S
C659 C653 1.363 . S
C659 C654 1.379 . S
C659 N657 1.356 . S
N660 C652 1.356 . S
N660 H666 0.984 . S
N660 H667 0.984 . S
N661 C654 1.356 . S
N661 H664 0.984 . S
N661 H665 0.985 . S
H662 N657 0.984 . S
H663 N657 0.985 . S
H664 N661 0.984 . S
H665 N661 0.985 . S
H666 N660 0.984 . S
H667 N660 0.984 . S
H668 N656 0.984 . S
H669 N656 0.985 . S
C670 C671 1.363 . S
C670 C676 1.379 . S
C670 N678 1.356 . S
C671 C670 1.363 . S
C671 C677 1.363 . S
C672 C673 1.363 . S
C672 C677 1.379 . S
C672 N679 1.356 . S
C673 C672 1.363 . S
C673 C676 1.363 . S
N674 C676 1.356 . S
N674 H686 0.984 . S
N674 H687 0.985 . S
N675 C677 1.356 . S
N675 H680 0.984 . S
N675 H681 0.985 . S
C676 C670 1.379 . S
C676 C673 1.363 . S
C676 N674 1.356 . S
C677 C671 1.363 . S
C677 C672 1.379 . S
C677 N675 1.356 . S
N678 C670 1.356 . S
N678 H684 0.984 . S
N678 H685 0.984 . S
N679 C672 1.356 . S
N679 H682 0.984 . S
N679 H683 0.985 . S
H680 N675 0.984 . S
H681 N675 0.985 . S
H682 N679 0.984 . S
H683 N679 0.985 . S
H684 N678 0.984 . S
H685 N678 0.984 . S
H686 N674 0.984 . S
H687 N674 0.985 . S
C688 C689 1.363 . S
C688 C694 1.379 . S
C688 N696 1.356 . S
C689 C688 1.363 . S
C689 C695 1.363 . S
C690 C691 1.363 . S
C690 C695 1.379 . S
C690 N697 1.356 . S
C691 C690 1.363 . S
C691 C694 1.363 . S
N692 C694 1.356 . S
N692 H704 0.984 . S
N692 H705 0.985 . S
N693 C695 1.356 . S
N693 H698 0.984 1_545 S
N693 H699 0.985 . S
C694 C688 1.379 . S
C694 C691 1.363 . S
C694 N692 1.356 . S
C695 C689 1.363 . S
C695 C690 1.379 . S
C695 N693 1.356 . S
N696 C688 1.356 . S
N696 H702 0.984 . S
N696 H703 0.984 . S
N697 C690 1.356 . S
N697 H700 0.984 . S
N697 H701 0.985 . S
H698 N693 0.984 1_565 S
H699 N693 0.985 . S
H700 N697 0.984 . S
H701 N697 0.985 . S
H702 N696 0.984 . S
H703 N696 0.984 . S
H704 N692 0.984 . S
H705 N692 0.985 . S
C706 C707 1.363 . S
C706 C712 1.379 . S
C706 N714 1.356 . S
C707 C706 1.363 . S
C707 C713 1.363 . S
C708 C709 1.363 . S
C708 C713 1.379 . S
C708 N715 1.356 . S
C709 C708 1.363 . S
C709 C712 1.363 . S
N710 C712 1.356 . S
N710 H722 0.984 . S
N710 H723 0.985 . S
N711 C713 1.356 . S
N711 H716 0.984 . S
N711 H717 0.985 . S
C712 C706 1.379 . S
C712 C709 1.363 . S
C712 N710 1.356 . S
C713 C707 1.363 . S
C713 C708 1.379 . S
C713 N711 1.356 . S
N714 C706 1.356 . S
N714 H720 0.984 . S
N714 H721 0.984 . S
N715 C708 1.356 . S
N715 H718 0.984 1_655 S
N715 H719 0.985 . S
H716 N711 0.984 . S
H717 N711 0.985 . S
H718 N715 0.984 1_455 S
H719 N715 0.985 . S
H720 N714 0.984 . S
H721 N714 0.984 . S
H722 N710 0.984 . S
H723 N710 0.985 . S
C724 C725 1.363 . S
C724 C730 1.379 . S
C724 N732 1.356 . S
C725 C724 1.363 . S
C725 C731 1.363 . S
C726 C727 1.363 . S
C726 C731 1.379 . S
C726 N733 1.356 . S
C727 C726 1.363 . S
C727 C730 1.363 . S
N728 C730 1.356 . S
N728 H740 0.984 . S
N728 H741 0.985 . S
N729 C731 1.356 . S
N729 H734 0.984 1_565 S
N729 H735 0.985 . S
C730 C724 1.379 . S
C730 C727 1.363 . S
C730 N728 1.356 . S
C731 C725 1.363 . S
C731 C726 1.379 . S
C731 N729 1.356 . S
N732 C724 1.356 . S
N732 H738 0.984 . S
N732 H739 0.984 . S
N733 C726 1.356 . S
N733 H736 0.984 . S
N733 H737 0.985 . S
H734 N729 0.984 1_545 S
H735 N729 0.985 . S
H736 N733 0.984 . S
H737 N733 0.985 . S
H738 N732 0.984 . S
H739 N732 0.984 . S
H740 N728 0.984 . S
H741 N728 0.985 . S
C742 C743 1.363 . S
C742 C748 1.379 . S
C742 N750 1.356 . S
C743 C742 1.363 . S
C743 C749 1.363 . S
C744 C745 1.363 . S
C744 C749 1.379 . S
C744 N751 1.356 . S
C745 C744 1.363 . S
C745 C748 1.363 . S
N746 C748 1.356 . S
N746 H758 0.984 . S
N746 H759 0.985 . S
N747 C749 1.356 . S
N747 H752 0.984 . S
N747 H753 0.985 . S
C748 C742 1.379 . S
C748 C745 1.363 . S
C748 N746 1.356 . S
C749 C743 1.363 . S
C749 C744 1.379 . S
C749 N747 1.356 . S
N750 C742 1.356 . S
N750 H756 0.984 . S
N750 H757 0.984 . S
N751 C744 1.356 . S
N751 H754 0.984 1_455 S
N751 H755 0.985 . S
H752 N747 0.984 . S
H753 N747 0.985 . S
H754 N751 0.984 1_655 S
H755 N751 0.985 . S
H756 N750 0.984 . S
H757 N750 0.984 . S
H758 N746 0.984 . S
H759 N746 0.985 . S
C760 C761 1.363 . S
C760 C766 1.379 . S
C760 N768 1.356 . S
C761 C760 1.363 . S
C761 C767 1.363 . S
C762 C763 1.363 . S
C762 C767 1.379 . S
C762 N769 1.356 . S
C763 C762 1.363 . S
C763 C766 1.363 . S
N764 C766 1.356 . S
N764 H776 0.984 . S
N764 H777 0.985 . S
N765 C767 1.356 . S
N765 H770 0.984 . S
N765 H771 0.985 . S
C766 C760 1.379 . S
C766 C763 1.363 . S
C766 N764 1.356 . S
C767 C761 1.363 . S
C767 C762 1.379 . S
C767 N765 1.356 . S
N768 C760 1.356 . S
N768 H774 0.984 . S
N768 H775 0.984 . S
N769 C762 1.356 . S
N769 H772 0.984 . S
N769 H773 0.985 . S
H770 N765 0.984 . S
H771 N765 0.985 . S
H772 N769 0.984 . S
H773 N769 0.985 . S
H774 N768 0.984 . S
H775 N768 0.984 . S
H776 N764 0.984 . S
H777 N764 0.985 . S
C778 C779 1.363 . S
C778 C784 1.379 . S
C778 N786 1.356 . S
C779 C778 1.363 . S
C779 C785 1.363 . S
C780 C781 1.363 . S
C780 C785 1.379 . S
C780 N787 1.356 . S
C781 C780 1.363 . S
C781 C784 1.363 . S
N782 C784 1.356 . S
N782 H794 0.984 . S
N782 H795 0.985 . S
N783 C785 1.356 . S
N783 H788 0.984 . S
N783 H789 0.985 . S
C784 C778 1.379 . S
C784 C781 1.363 . S
C784 N782 1.356 . S
C785 C779 1.363 . S
C785 C780 1.379 . S
C785 N783 1.356 . S
N786 C778 1.356 . S
N786 H792 0.984 . S
N786 H793 0.984 . S
N787 C780 1.356 . S
N787 H790 0.984 . S
N787 H791 0.985 . S
H788 N783 0.984 . S
H789 N783 0.985 . S
H790 N787 0.984 . S
H791 N787 0.985 . S
H792 N786 0.984 . S
H793 N786 0.984 . S
H794 N782 0.984 . S
H795 N782 0.985 . S
C796 C797 1.363 . S
C796 C802 1.379 . S
C796 N804 1.356 . S
C797 C796 1.363 . S
C797 C803 1.363 . S
C798 C799 1.363 . S
C798 C803 1.379 . S
C798 N805 1.356 . S
C799 C798 1.363 . S
C799 C802 1.363 . S
N800 C802 1.356 . S
N800 H812 0.984 . S
N800 H813 0.985 . S
N801 C803 1.356 . S
N801 H806 0.984 . S
N801 H807 0.985 . S
C802 C796 1.379 . S
C802 C799 1.363 . S
C802 N800 1.356 . S
C803 C797 1.363 . S
C803 C798 1.379 . S
C803 N801 1.356 . S
N804 C796 1.356 . S
N804 H810 0.984 . S
N804 H811 0.984 . S
N805 C798 1.356 . S
N805 H808 0.984 . S
N805 H809 0.985 . S
H806 N801 0.984 . S
H807 N801 0.985 . S
H808 N805 0.984 . S
H809 N805 0.985 . S
H810 N804 0.984 . S
H811 N804 0.984 . S
H812 N800 0.984 . S
H813 N800 0.985 . S
C814 C815 1.363 . S
C814 C820 1.379 . S
C814 N822 1.356 . S
C815 C814 1.363 . S
C815 C821 1.363 . S
C816 C817 1.363 . S
C816 C821 1.379 . S
C816 N823 1.356 . S
C817 C816 1.363 . S
C817 C820 1.363 . S
N818 C820 1.356 . S
N818 H830 0.984 . S
N818 H831 0.985 . S
N819 C821 1.356 . S
N819 H824 0.984 . S
N819 H825 0.985 . S
C820 C814 1.379 . S
C820 C817 1.363 . S
C820 N818 1.356 . S
C821 C815 1.363 . S
C821 C816 1.379 . S
C821 N819 1.356 . S
N822 C814 1.356 . S
N822 H828 0.984 . S
N822 H829 0.984 . S
N823 C816 1.356 . S
N823 H826 0.984 . S
N823 H827 0.985 . S
H824 N819 0.984 . S
H825 N819 0.985 . S
H826 N823 0.984 . S
H827 N823 0.985 . S
H828 N822 0.984 . S
H829 N822 0.984 . S
H830 N818 0.984 . S
H831 N818 0.985 . S
C832 C833 1.363 . S
C832 C838 1.379 . S
C832 N840 1.356 . S
C833 C832 1.363 . S
C833 C839 1.363 . S
C834 C835 1.363 . S
C834 C839 1.379 . S
C834 N841 1.356 . S
C835 C834 1.363 . S
C835 C838 1.363 . S
N836 C838 1.356 . S
N836 H848 0.984 . S
N836 H849 0.985 1_565 S
N837 C839 1.356 . S
N837 H842 0.984 . S
N837 H843 0.985 . S
C838 C832 1.379 . S
C838 C835 1.363 . S
C838 N836 1.356 . S
C839 C833 1.363 . S
C839 C834 1.379 . S
C839 N837 1.356 . S
N840 C832 1.356 . S
N840 H846 0.984 . S
N840 H847 0.984 . S
N841 C834 1.356 . S
N841 H844 0.984 . S
N841 H845 0.985 . S
H842 N837 0.984 . S
H843 N837 0.985 . S
H844 N841 0.984 . S
H845 N841 0.985 . S
H846 N840 0.984 . S
H847 N840 0.984 . S
H848 N836 0.984 . S
H849 N836 0.985 1_545 S
C850 C851 1.363 . S
C850 C856 1.379 . S
C850 N858 1.356 . S
C851 C850 1.363 . S
C851 C857 1.363 . S
C852 C853 1.363 . S
C852 C857 1.379 . S
C852 N859 1.356 . S
C853 C852 1.363 . S
C853 C856 1.363 . S
N854 C856 1.356 . S
N854 H866 0.984 . S
N854 H867 0.985 . S
N855 C857 1.356 . S
N855 H860 0.984 . S
N855 H861 0.985 . S
C856 C850 1.379 . S
C856 C853 1.363 . S
C856 N854 1.356 . S
C857 C851 1.363 . S
C857 C852 1.379 . S
C857 N855 1.356 . S
N858 C850 1.356 . S
N858 H864 0.984 . S
N858 H865 0.984 . S
N859 C852 1.356 . S
N859 H862 0.984 1_455 S
N859 H863 0.985 . S
H860 N855 0.984 . S
H861 N855 0.985 . S
H862 N859 0.984 1_655 S
H863 N859 0.985 . S
H864 N858 0.984 . S
H865 N858 0.984 . S
H866 N854 0.984 . S
H867 N854 0.985 . S
C868 C869 1.363 . S
C868 C874 1.379 . S
C868 N876 1.356 . S
C869 C868 1.363 . S
C869 C875 1.363 . S
C870 C871 1.363 . S
C870 C875 1.379 . S
C870 N877 1.356 . S
C871 C870 1.363 . S
C871 C874 1.363 . S
N872 C874 1.356 . S
N872 H884 0.984 . S
N872 H885 0.985 . S
N873 C875 1.356 . S
N873 H878 0.984 . S
N873 H879 0.985 . S
C874 C868 1.379 . S
C874 C871 1.363 . S
C874 N872 1.356 . S
C875 C869 1.363 . S
C875 C870 1.379 . S
C875 N873 1.356 . S
N876 C868 1.356 . S
N876 H882 0.984 . S
N876 H883 0.984 1_545 S
N877 C870 1.356 . S
N877 H880 0.984 . S
N877 H881 0.985 . S
H878 N873 0.984 . S
H879 N873 0.985 . S
H880 N877 0.984 . S
H881 N877 0.985 . S
H882 N876 0.984 . S
H883 N876 0.984 1_565 S
H884 N872 0.984 . S
H885 N872 0.985 . S
C886 C887 1.363 . S
C886 C892 1.379 . S
C886 N894 1.356 . S
C887 C886 1.363 . S
C887 C893 1.363 . S
C888 C889 1.363 . S
C888 C893 1.379 . S
C888 N895 1.356 . S
C889 C888 1.363 . S
C889 C892 1.363 . S
N890 C892 1.356 . S
N890 H902 0.984 . S
N890 H903 0.985 1_655 S
N891 C893 1.356 . S
N891 H896 0.984 . S
N891 H897 0.985 . S
C892 C886 1.379 . S
C892 C889 1.363 . S
C892 N890 1.356 . S
C893 C887 1.363 . S
C893 C888 1.379 . S
C893 N891 1.356 . S
N894 C886 1.356 . S
N894 H900 0.984 . S
N894 H901 0.984 . S
N895 C888 1.356 . S
N895 H898 0.984 . S
N895 H899 0.985 . S
H896 N891 0.984 . S
H897 N891 0.985 . S
H898 N895 0.984 . S
H899 N895 0.985 . S
H900 N894 0.984 . S
H901 N894 0.984 . S
H902 N890 0.984 . S
H903 N890 0.985 1_455 S
C904 C905 1.363 . S
C904 C910 1.379 . S
C904 N912 1.356 . S
C905 C904 1.363 . S
C905 C911 1.363 . S
C906 C907 1.363 . S
C906 C911 1.379 . S
C906 N913 1.356 . S
C907 C906 1.363 . S
C907 C910 1.363 . S
N908 C910 1.356 . S
N908 H920 0.984 . S
N908 H921 0.985 . S
N909 C911 1.356 . S
N909 H914 0.984 . S
N909 H915 0.985 . S
C910 C904 1.379 . S
C910 C907 1.363 . S
C910 N908 1.356 . S
C911 C905 1.363 . S
C911 C906 1.379 . S
C911 N909 1.356 . S
N912 C904 1.356 . S
N912 H918 0.984 . S
N912 H919 0.984 . S
N913 C906 1.356 . S
N913 H916 0.984 . S
N913 H917 0.985 . S
H914 N909 0.984 . S
H915 N909 0.985 . S
H916 N913 0.984 . S
H917 N913 0.985 . S
H918 N912 0.984 . S
H919 N912 0.984 . S
H920 N908 0.984 . S
H921 N908 0.985 . S
C922 C923 1.363 . S
C922 C928 1.379 . S
C922 N930 1.356 . S
C923 C922 1.363 . S
C923 C929 1.363 . S
C924 C925 1.363 . S
C924 C929 1.379 . S
C924 N931 1.356 . S
C925 C924 1.363 . S
C925 C928 1.363 . S
N926 C928 1.356 . S
N926 H938 0.984 . S
N926 H939 0.985 . S
N927 C929 1.356 . S
N927 H932 0.984 . S
N927 H933 0.985 . S
C928 C922 1.379 . S
C928 C925 1.363 . S
C928 N926 1.356 . S
C929 C923 1.363 . S
C929 C924 1.379 . S
C929 N927 1.356 . S
N930 C922 1.356 . S
N930 H936 0.984 . S
N930 H937 0.984 . S
N931 C924 1.356 . S
N931 H934 0.984 . S
N931 H935 0.985 . S
H932 N927 0.984 . S
H933 N927 0.985 . S
H934 N931 0.984 . S
H935 N931 0.985 . S
H936 N930 0.984 . S
H937 N930 0.984 . S
H938 N926 0.984 . S
H939 N926 0.985 . S
C940 C941 1.363 . S
C940 C946 1.379 . S
C940 N948 1.356 . S
C941 C940 1.363 . S
C941 C947 1.363 . S
C942 C943 1.363 . S
C942 C947 1.379 . S
C942 N949 1.356 . S
C943 C942 1.363 . S
C943 C946 1.363 . S
N944 C946 1.356 . S
N944 H956 0.984 . S
N944 H957 0.985 . S
N945 C947 1.356 . S
N945 H950 0.984 . S
N945 H951 0.985 . S
C946 C940 1.379 . S
C946 C943 1.363 . S
C946 N944 1.356 . S
C947 C941 1.363 . S
C947 C942 1.379 . S
C947 N945 1.356 . S
N948 C940 1.356 . S
N948 H954 0.984 . S
N948 H955 0.984 . S
N949 C942 1.356 . S
N949 H952 0.984 . S
N949 H953 0.985 . S
H950 N945 0.984 . S
H951 N945 0.985 . S
H952 N949 0.984 . S
H953 N949 0.985 . S
H954 N948 0.984 . S
H955 N948 0.984 . S
H956 N944 0.984 . S
H957 N944 0.985 . S
C958 C959 1.363 . S
C958 C964 1.379 . S
C958 N966 1.356 . S
C959 C958 1.363 . S
C959 C965 1.363 . S
C960 C961 1.363 . S
C960 C965 1.379 . S
C960 N967 1.356 . S
C961 C960 1.363 . S
C961 C964 1.363 . S
N962 C964 1.356 . S
N962 H974 0.984 . S
N962 H975 0.985 . S
N963 C965 1.356 . S
N963 H968 0.984 . S
N963 H969 0.985 . S
C964 C958 1.379 . S
C964 C961 1.363 . S
C964 N962 1.356 . S
C965 C959 1.363 . S
C965 C960 1.379 . S
C965 N963 1.356 . S
N966 C958 1.356 . S
N966 H972 0.984 . S
N966 H973 0.984 . S
N967 C960 1.356 . S
N967 H970 0.984 . S
N967 H971 0.985 . S
H968 N963 0.984 . S
H969 N963 0.985 . S
H970 N967 0.984 . S
H971 N967 0.985 . S
H972 N966 0.984 . S
H973 N966 0.984 . S
H974 N962 0.984 . S
H975 N962 0.985 . S
C976 C977 1.363 . S
C976 C982 1.379 . S
C976 N984 1.356 . S
C977 C976 1.363 . S
C977 C983 1.363 . S
C978 C979 1.363 . S
C978 C983 1.379 . S
C978 N985 1.356 . S
C979 C978 1.363 . S
C979 C982 1.363 . S
N980 C982 1.356 . S
N980 H992 0.984 . S
N980 H993 0.985 . S
N981 C983 1.356 . S
N981 H986 0.984 . S
N981 H987 0.985 . S
C982 C976 1.379 . S
C982 C979 1.363 . S
C982 N980 1.356 . S
C983 C977 1.363 . S
C983 C978 1.379 . S
C983 N981 1.356 . S
N984 C976 1.356 . S
N984 H990 0.984 . S
N984 H991 0.984 . S
N985 C978 1.356 . S
N985 H988 0.984 . S
N985 H989 0.985 . S
H986 N981 0.984 . S
H987 N981 0.985 . S
H988 N985 0.984 . S
H989 N985 0.985 . S
H990 N984 0.984 . S
H991 N984 0.984 . S
H992 N980 0.984 . S
H993 N980 0.985 . S
C994 C995 1.363 . S
C994 C1000 1.379 . S
C994 N1002 1.356 . S
C995 C994 1.363 . S
C995 C1001 1.363 . S
C996 C997 1.363 . S
C996 C1001 1.379 . S
C996 N1003 1.356 . S
C997 C996 1.363 . S
C997 C1000 1.363 . S
N998 C1000 1.356 . S
N998 H1010 0.984 . S
N998 H1011 0.985 . S
N999 C1001 1.356 . S
N999 H1004 0.984 . S
N999 H1005 0.985 . S
C1000 C994 1.379 . S
C1000 C997 1.363 . S
C1000 N998 1.356 . S
C1001 C995 1.363 . S
C1001 C996 1.379 . S
C1001 N999 1.356 . S
N1002 C994 1.356 . S
N1002 H1008 0.984 . S
N1002 H1009 0.984 . S
N1003 C996 1.356 . S
N1003 H1006 0.984 . S
N1003 H1007 0.985 . S
H1004 N999 0.984 . S
H1005 N999 0.985 . S
H1006 N1003 0.984 . S
H1007 N1003 0.985 . S
H1008 N1002 0.984 . S
H1009 N1002 0.984 . S
H1010 N998 0.984 . S
H1011 N998 0.985 . S
C1012 C1013 1.363 . S
C1012 C1018 1.379 . S
C1012 N1020 1.356 . S
C1013 C1012 1.363 . S
C1013 C1019 1.363 . S
C1014 C1015 1.363 . S
C1014 C1019 1.379 . S
C1014 N1021 1.356 . S
C1015 C1014 1.363 . S
C1015 C1018 1.363 . S
N1016 C1018 1.356 . S
N1016 H1028 0.984 . S
N1016 H1029 0.985 . S
N1017 C1019 1.356 . S
N1017 H1022 0.984 . S
N1017 H1023 0.985 . S
C1018 C1012 1.379 . S
C1018 C1015 1.363 . S
C1018 N1016 1.356 . S
C1019 C1013 1.363 . S
C1019 C1014 1.379 . S
C1019 N1017 1.356 . S
N1020 C1012 1.356 . S
N1020 H1026 0.984 . S
N1020 H1027 0.984 . S
N1021 C1014 1.356 . S
N1021 H1024 0.984 . S
N1021 H1025 0.985 . S
H1022 N1017 0.984 . S
H1023 N1017 0.985 . S
H1024 N1021 0.984 . S
H1025 N1021 0.985 . S
H1026 N1020 0.984 . S
H1027 N1020 0.984 . S
H1028 N1016 0.984 . S
H1029 N1016 0.985 . S
C1030 C1031 1.363 . S
C1030 C1036 1.379 . S
C1030 N1038 1.356 . S
C1031 C1030 1.363 . S
C1031 C1037 1.363 . S
C1032 C1033 1.363 . S
C1032 C1037 1.379 . S
C1032 N1039 1.356 . S
C1033 C1032 1.363 . S
C1033 C1036 1.363 . S
N1034 C1036 1.356 . S
N1034 H1046 0.984 . S
N1034 H1047 0.985 . S
N1035 C1037 1.356 . S
N1035 H1040 0.984 . S
N1035 H1041 0.985 . S
C1036 C1030 1.379 . S
C1036 C1033 1.363 . S
C1036 N1034 1.356 . S
C1037 C1031 1.363 . S
C1037 C1032 1.379 . S
C1037 N1035 1.356 . S
N1038 C1030 1.356 . S
N1038 H1044 0.984 . S
N1038 H1045 0.984 . S
N1039 C1032 1.356 . S
N1039 H1042 0.984 . S
N1039 H1043 0.985 . S
H1040 N1035 0.984 . S
H1041 N1035 0.985 . S
H1042 N1039 0.984 . S
H1043 N1039 0.985 . S
H1044 N1038 0.984 . S
H1045 N1038 0.984 . S
H1046 N1034 0.984 . S
H1047 N1034 0.985 . S
C1048 C1049 1.363 . S
C1048 C1054 1.379 . S
C1048 N1056 1.356 . S
C1049 C1048 1.363 . S
C1049 C1055 1.363 . S
C1050 C1051 1.363 . S
C1050 C1055 1.379 . S
C1050 N1057 1.356 . S
C1051 C1050 1.363 . S
C1051 C1054 1.363 . S
N1052 C1054 1.356 . S
N1052 H1064 0.984 . S
N1052 H1065 0.985 . S
N1053 C1055 1.356 . S
N1053 H1058 0.984 . S
N1053 H1059 0.985 . S
C1054 C1048 1.379 . S
C1054 C1051 1.363 . S
C1054 N1052 1.356 . S
C1055 C1049 1.363 . S
C1055 C1050 1.379 . S
C1055 N1053 1.356 . S
N1056 C1048 1.356 . S
N1056 H1062 0.984 . S
N1056 H1063 0.984 . S
N1057 C1050 1.356 . S
N1057 H1060 0.984 . S
N1057 H1061 0.985 . S
H1058 N1053 0.984 . S
H1059 N1053 0.985 . S
H1060 N1057 0.984 . S
H1061 N1057 0.985 . S
H1062 N1056 0.984 . S
H1063 N1056 0.984 . S
H1064 N1052 0.984 . S
H1065 N1052 0.985 . S
C1066 C1067 1.363 . S
C1066 C1072 1.379 . S
C1066 N1074 1.356 . S
C1067 C1066 1.363 . S
C1067 C1073 1.363 . S
C1068 C1069 1.363 . S
C1068 C1073 1.379 . S
C1068 N1075 1.356 . S
C1069 C1068 1.363 . S
C1069 C1072 1.363 . S
N1070 C1072 1.356 . S
N1070 H1082 0.984 . S
N1070 H1083 0.985 . S
N1071 C1073 1.356 . S
N1071 H1076 0.984 . S
N1071 H1077 0.985 . S
C1072 C1066 1.379 . S
C1072 C1069 1.363 . S
C1072 N1070 1.356 . S
C1073 C1067 1.363 . S
C1073 C1068 1.379 . S
C1073 N1071 1.356 . S
N1074 C1066 1.356 . S
N1074 H1080 0.984 . S
N1074 H1081 0.984 . S
N1075 C1068 1.356 . S
N1075 H1078 0.984 . S
N1075 H1079 0.985 . S
H1076 N1071 0.984 . S
H1077 N1071 0.985 . S
H1078 N1075 0.984 . S
H1079 N1075 0.985 . S
H1080 N1074 0.984 . S
H1081 N1074 0.984 . S
H1082 N1070 0.984 . S
H1083 N1070 0.985 . S
C1084 C1085 1.363 . S
C1084 C1090 1.379 . S
C1084 N1092 1.356 . S
C1085 C1084 1.363 . S
C1085 C1091 1.363 . S
C1086 C1087 1.363 . S
C1086 C1091 1.379 . S
C1086 N1093 1.356 . S
C1087 C1086 1.363 . S
C1087 C1090 1.363 . S
N1088 C1090 1.356 . S
N1088 H1100 0.984 . S
N1088 H1101 0.985 . S
N1089 C1091 1.356 . S
N1089 H1094 0.984 . S
N1089 H1095 0.985 . S
C1090 C1084 1.379 . S
C1090 C1087 1.363 . S
C1090 N1088 1.356 . S
C1091 C1085 1.363 . S
C1091 C1086 1.379 . S
C1091 N1089 1.356 . S
N1092 C1084 1.356 . S
N1092 H1098 0.984 . S
N1092 H1099 0.984 . S
N1093 C1086 1.356 . S
N1093 H1096 0.984 . S
N1093 H1097 0.985 . S
H1094 N1089 0.984 . S
H1095 N1089 0.985 . S
H1096 N1093 0.984 . S
H1097 N1093 0.985 . S
H1098 N1092 0.984 . S
H1099 N1092 0.984 . S
H1100 N1088 0.984 . S
H1101 N1088 0.985 . S
C1102 C1103 1.363 . S
C1102 C1108 1.379 . S
C1102 N1110 1.356 . S
C1103 C1102 1.363 . S
C1103 C1109 1.363 . S
C1104 C1105 1.363 . S
C1104 C1109 1.379 . S
C1104 N1111 1.356 . S
C1105 C1104 1.363 . S
C1105 C1108 1.363 . S
N1106 C1108 1.356 . S
N1106 H1118 0.984 . S
N1106 H1119 0.985 . S
N1107 C1109 1.356 . S
N1107 H1112 0.984 . S
N1107 H1113 0.985 . S
C1108 C1102 1.379 . S
C1108 C1105 1.363 . S
C1108 N1106 1.356 . S
C1109 C1103 1.363 . S
C1109 C1104 1.379 . S
C1109 N1107 1.356 . S
N1110 C1102 1.356 . S
N1110 H1116 0.984 . S
N1110 H1117 0.984 . S
N1111 C1104 1.356 . S
N1111 H1114 0.984 . S
N1111 H1115 0.985 . S
H1112 N1107 0.984 . S
H1113 N1107 0.985 . S
H1114 N1111 0.984 . S
H1115 N1111 0.985 . S
H1116 N1110 0.984 . S
H1117 N1110 0.984 . S
H1118 N1106 0.984 . S
H1119 N1106 0.985 . S
C1120 C1121 1.363 . S
C1120 C1126 1.379 . S
C1120 N1128 1.356 . S
C1121 C1120 1.363 . S
C1121 C1127 1.363 1_655 S
C1122 C1123 1.363 . S
C1122 C1127 1.379 . S
C1122 N1129 1.356 . S
C1123 C1122 1.363 . S
C1123 C1126 1.363 1_455 S
N1124 C1126 1.356 . S
N1124 H1136 0.984 . S
N1124 H1137 0.985 1_655 S
N1125 C1127 1.356 . S
N1125 H1130 0.984 1_455 S
N1125 H1131 0.985 . S
C1126 C1120 1.379 . S
C1126 C1123 1.363 1_655 S
C1126 N1124 1.356 . S
C1127 C1121 1.363 1_455 S
C1127 C1122 1.379 . S
C1127 N1125 1.356 . S
N1128 C1120 1.356 . S
N1128 H1134 0.984 . S
N1128 H1135 0.984 . S
N1129 C1122 1.356 . S
N1129 H1132 0.984 . S
N1129 H1133 0.985 . S
H1130 N1125 0.984 1_655 S
H1131 N1125 0.985 . S
H1132 N1129 0.984 . S
H1133 N1129 0.985 . S
H1134 N1128 0.984 . S
H1135 N1128 0.984 . S
H1136 N1124 0.984 . S
H1137 N1124 0.985 1_455 S
C1138 C1139 1.363 1_545 S
C1138 C1144 1.379 . S
C1138 N1146 1.356 . S
C1139 C1138 1.363 1_565 S
C1139 C1145 1.363 . S
C1140 C1141 1.363 1_565 S
C1140 C1145 1.379 . S
C1140 N1147 1.356 . S
C1141 C1140 1.363 1_545 S
C1141 C1144 1.363 . S
N1142 C1144 1.356 . S
N1142 H1154 0.984 . S
N1142 H1155 0.985 . S
N1143 C1145 1.356 . S
N1143 H1148 0.984 . S
N1143 H1149 0.985 . S
C1144 C1138 1.379 . S
C1144 C1141 1.363 . S
C1144 N1142 1.356 . S
C1145 C1139 1.363 . S
C1145 C1140 1.379 . S
C1145 N1143 1.356 . S
N1146 C1138 1.356 . S
N1146 H1152 0.984 . S
N1146 H1153 0.984 1_545 S
N1147 C1140 1.356 . S
N1147 H1150 0.984 1_565 S
N1147 H1151 0.985 . S
H1148 N1143 0.984 . S
H1149 N1143 0.985 . S
H1150 N1147 0.984 1_545 S
H1151 N1147 0.985 . S
H1152 N1146 0.984 . S
H1153 N1146 0.984 1_565 S
H1154 N1142 0.984 . S
H1155 N1142 0.985 . S
C1156 C1157 1.363 . S
C1156 C1162 1.379 1_545 S
C1156 N1164 1.356 . S
C1157 C1156 1.363 . S
C1157 C1163 1.363 . S
C1158 C1159 1.363 . S
C1158 C1163 1.379 1_565 S
C1158 N1165 1.356 . S
C1159 C1158 1.363 . S
C1159 C1162 1.363 . S
N1160 C1162 1.356 . S
N1160 H1172 0.984 . S
N1160 H1173 0.985 . S
N1161 C1163 1.356 . S
N1161 H1166 0.984 . S
N1161 H1167 0.985 . S
C1162 C1156 1.379 1_565 S
C1162 C1159 1.363 . S
C1162 N1160 1.356 . S
C1163 C1157 1.363 . S
C1163 C1158 1.379 1_545 S
C1163 N1161 1.356 . S
N1164 C1156 1.356 . S
N1164 H1170 0.984 . S
N1164 H1171 0.984 . S
N1165 C1158 1.356 . S
N1165 H1168 0.984 . S
N1165 H1169 0.985 . S
H1166 N1161 0.984 . S
H1167 N1161 0.985 . S
H1168 N1165 0.984 . S
H1169 N1165 0.985 . S
H1170 N1164 0.984 . S
H1171 N1164 0.984 . S
H1172 N1160 0.984 . S
H1173 N1160 0.985 . S
C1174 C1175 1.363 . S
C1174 C1180 1.379 1_655 S
C1174 N1182 1.356 . S
C1175 C1174 1.363 . S
C1175 C1181 1.363 . S
C1176 C1177 1.363 . S
C1176 C1181 1.379 1_455 S
C1176 N1183 1.356 . S
C1177 C1176 1.363 . S
C1177 C1180 1.363 . S
N1178 C1180 1.356 . S
N1178 H1190 0.984 . S
N1178 H1191 0.985 . S
N1179 C1181 1.356 . S
N1179 H1184 0.984 . S
N1179 H1185 0.985 . S
C1180 C1174 1.379 1_455 S
C1180 C1177 1.363 . S
C1180 N1178 1.356 . S
C1181 C1175 1.363 . S
C1181 C1176 1.379 1_655 S
C1181 N1179 1.356 . S
N1182 C1174 1.356 . S
N1182 H1188 0.984 . S
N1182 H1189 0.984 . S
N1183 C1176 1.356 . S
N1183 H1186 0.984 . S
N1183 H1187 0.985 . S
H1184 N1179 0.984 . S
H1185 N1179 0.985 . S
H1186 N1183 0.984 . S
H1187 N1183 0.985 . S
H1188 N1182 0.984 . S
H1189 N1182 0.984 . S
H1190 N1178 0.984 . S
H1191 N1178 0.985 . S
C1192 C1193 1.363 . S
C1192 C1198 1.379 . S
C1192 N1200 1.356 . S
C1193 C1192 1.363 . S
C1193 C1199 1.363 1_655 S
C1194 C1195 1.363 . S
C1194 C1199 1.379 . S
C1194 N1201 1.356 . S
C1195 C1194 1.363 . S
C1195 C1198 1.363 1_455 S
N1196 C1198 1.356 . S
N1196 H1208 0.984 . S
N1196 H1209 0.985 1_655 S
N1197 C1199 1.356 . S
N1197 H1202 0.984 1_455 S
N1197 H1203 0.985 . S
C1198 C1192 1.379 . S
C1198 C1195 1.363 1_655 S
C1198 N1196 1.356 . S
C1199 C1193 1.363 1_455 S
C1199 C1194 1.379 . S
C1199 N1197 1.356 . S
N1200 C1192 1.356 . S
N1200 H1206 0.984 . S
N1200 H1207 0.984 . S
N1201 C1194 1.356 . S
N1201 H1204 0.984 . S
N1201 H1205 0.985 . S
H1202 N1197 0.984 1_655 S
H1203 N1197 0.985 . S
H1204 N1201 0.984 . S
H1205 N1201 0.985 . S
H1206 N1200 0.984 . S
H1207 N1200 0.984 . S
H1208 N1196 0.984 . S
H1209 N1196 0.985 1_455 S
C1210 C1211 1.363 1_565 S
C1210 C1216 1.379 . S
C1210 N1218 1.356 . S
C1211 C1210 1.363 1_545 S
C1211 C1217 1.363 . S
C1212 C1213 1.363 1_545 S
C1212 C1217 1.379 . S
C1212 N1219 1.356 . S
C1213 C1212 1.363 1_565 S
C1213 C1216 1.363 . S
N1214 C1216 1.356 . S
N1214 H1226 0.984 . S
N1214 H1227 0.985 . S
N1215 C1217 1.356 . S
N1215 H1220 0.984 . S
N1215 H1221 0.985 . S
C1216 C1210 1.379 . S
C1216 C1213 1.363 . S
C1216 N1214 1.356 . S
C1217 C1211 1.363 . S
C1217 C1212 1.379 . S
C1217 N1215 1.356 . S
N1218 C1210 1.356 . S
N1218 H1224 0.984 . S
N1218 H1225 0.984 1_565 S
N1219 C1212 1.356 . S
N1219 H1222 0.984 1_545 S
N1219 H1223 0.985 . S
H1220 N1215 0.984 . S
H1221 N1215 0.985 . S
H1222 N1219 0.984 1_565 S
H1223 N1219 0.985 . S
H1224 N1218 0.984 . S
H1225 N1218 0.984 1_545 S
H1226 N1214 0.984 . S
H1227 N1214 0.985 . S
C1228 C1229 1.363 . S
C1228 C1234 1.379 1_565 S
C1228 N1236 1.356 . S
C1229 C1228 1.363 . S
C1229 C1235 1.363 . S
C1230 C1231 1.363 . S
C1230 C1235 1.379 1_545 S
C1230 N1237 1.356 . S
C1231 C1230 1.363 . S
C1231 C1234 1.363 . S
N1232 C1234 1.356 . S
N1232 H1244 0.984 . S
N1232 H1245 0.985 . S
N1233 C1235 1.356 . S
N1233 H1238 0.984 . S
N1233 H1239 0.985 . S
C1234 C1228 1.379 1_545 S
C1234 C1231 1.363 . S
C1234 N1232 1.356 . S
C1235 C1229 1.363 . S
C1235 C1230 1.379 1_565 S
C1235 N1233 1.356 . S
N1236 C1228 1.356 . S
N1236 H1242 0.984 . S
N1236 H1243 0.984 . S
N1237 C1230 1.356 . S
N1237 H1240 0.984 . S
N1237 H1241 0.985 . S
H1238 N1233 0.984 . S
H1239 N1233 0.985 . S
H1240 N1237 0.984 . S
H1241 N1237 0.985 . S
H1242 N1236 0.984 . S
H1243 N1236 0.984 . S
H1244 N1232 0.984 . S
H1245 N1232 0.985 . S
C1246 C1247 1.363 . S
C1246 C1252 1.379 1_655 S
C1246 N1254 1.356 . S
C1247 C1246 1.363 . S
C1247 C1253 1.363 . S
C1248 C1249 1.363 . S
C1248 C1253 1.379 1_455 S
C1248 N1255 1.356 . S
C1249 C1248 1.363 . S
C1249 C1252 1.363 . S
N1250 C1252 1.356 . S
N1250 H1262 0.984 . S
N1250 H1263 0.985 . S
N1251 C1253 1.356 . S
N1251 H1256 0.984 . S
N1251 H1257 0.985 . S
C1252 C1246 1.379 1_455 S
C1252 C1249 1.363 . S
C1252 N1250 1.356 . S
C1253 C1247 1.363 . S
C1253 C1248 1.379 1_655 S
C1253 N1251 1.356 . S
N1254 C1246 1.356 . S
N1254 H1260 0.984 . S
N1254 H1261 0.984 . S
N1255 C1248 1.356 . S
N1255 H1258 0.984 . S
N1255 H1259 0.985 . S
H1256 N1251 0.984 . S
H1257 N1251 0.985 . S
H1258 N1255 0.984 . S
H1259 N1255 0.985 . S
H1260 N1254 0.984 . S
H1261 N1254 0.984 . S
H1262 N1250 0.984 . S
H1263 N1250 0.985 . S
C545 C342 1.516 . S
C547 C2 1.516 . S
C563 C376 1.516 . S
C565 C36 1.516 . S
C581 C274 1.516 . S
C583 C70 1.516 . S
C599 C308 1.516 . S
C601 C104 1.516 . S
C617 C138 1.516 . S
C619 C478 1.516 . S
C635 C172 1.516 . S
C637 C512 1.516 . S
C653 C410 1.516 . S
C655 C206 1.516 . S
C671 C444 1.516 . S
C673 C240 1.516 . S
C689 C135 1.562 1_545 S
C691 C5 1.574 . S
C707 C39 1.574 . S
C709 C33 1.562 1_655 S
C725 C67 1.562 1_565 S
C727 C73 1.574 . S
C743 C107 1.574 . S
C745 C101 1.562 1_455 S
C761 C203 1.562 . S
C763 C141 1.574 . S
C779 C237 1.562 . S
C781 C175 1.574 . S
C797 C271 1.562 . S
C799 C209 1.574 . S
C815 C243 1.574 . S
C817 C169 1.562 . S
C833 C277 1.574 . S
C835 C407 1.562 1_565 S
C851 C311 1.574 . S
C853 C305 1.562 1_455 S
C869 C339 1.562 1_545 S
C871 C345 1.574 . S
C887 C379 1.574 . S
C889 C373 1.562 1_655 S
C905 C413 1.574 . S
C907 C475 1.562 . S
C923 C447 1.574 . S
C925 C509 1.562 . S
C941 C481 1.574 . S
C943 C543 1.562 . S
C959 C441 1.562 . S
C961 C515 1.574 . S
C977 C258 1.565 . S
C979 C20 1.565 . S
C995 C54 1.565 . S
C997 C156 1.565 . S
C1013 C190 1.565 . S
C1015 C88 1.565 . S
C1031 C224 1.565 . S
C1033 C122 1.565 . S
C1049 C292 1.565 . S
C1051 C530 1.565 . S
C1067 C428 1.565 . S
C1069 C326 1.565 . S
C1085 C360 1.565 . S
C1087 C462 1.565 . S
C1103 C496 1.565 . S
C1105 C394 1.565 . S
C1121 C77 1.239 . S
C1123 C9 1.239 . S
C1139 C111 1.239 . S
C1141 C43 1.239 . S
C1157 C145 1.239 . S
C1159 C213 1.239 . S
C1175 C179 1.239 . S
C1177 C247 1.239 . S
C1193 C281 1.239 . S
C1195 C349 1.239 . S
C1211 C383 1.239 . S
C1213 C315 1.239 . S
C1229 C417 1.239 . S
C1231 C485 1.239 . S
C1247 C519 1.239 . S
C1249 C451 1.239 . S
