# Generated by pormake.
# Topology can, (4)-cn, num edge types: 1
# Building blocks:
#     Node 0, Type 0, BuildingBlock: UXUYUI_clean_sbu_0, # of connection points: 4
#     Node 1, Type 0, BuildingBlock: UXUYUI_clean_sbu_0, # of connection points: 4
#     Node 2, Type 0, BuildingBlock: UXUYUI_clean_sbu_0, # of connection points: 4
#     Node 3, Type 0, BuildingBlock: UXUYUI_clean_sbu_0, # of connection points: 4
#     Node 4, Type 0, BuildingBlock: UXUYUI_clean_sbu_0, # of connection points: 4
#     Node 5, Type 0, BuildingBlock: UXUYUI_clean_sbu_0, # of connection points: 4
#     Node 6, Type 0, BuildingBlock: UXUYUI_clean_sbu_0, # of connection points: 4
#     Node 7, Type 0, BuildingBlock: UXUYUI_clean_sbu_0, # of connection points: 4
#     Node 8, Type 0, BuildingBlock: UXUYUI_clean_sbu_0, # of connection points: 4
#     Node 9, Type 0, BuildingBlock: UXUYUI_clean_sbu_0, # of connection points: 4
#     Node 10, Type 0, BuildingBlock: UXUYUI_clean_sbu_0, # of connection points: 4
#     Node 11, Type 0, BuildingBlock: UXUYUI_clean_sbu_0, # of connection points: 4
#     Edge 12, Type (0, 0), BuildingBlock: EZIPEK_clean_linker_0, # of connection points: 2
#     Edge 13, Type (0, 0), BuildingBlock: EZIPEK_clean_linker_0, # of connection points: 2
#     Edge 14, Type (0, 0), BuildingBlock: EZIPEK_clean_linker_0, # of connection points: 2
#     Edge 15, Type (0, 0), BuildingBlock: EZIPEK_clean_linker_0, # of connection points: 2
#     Edge 16, Type (0, 0), BuildingBlock: EZIPEK_clean_linker_0, # of connection points: 2
#     Edge 17, Type (0, 0), BuildingBlock: EZIPEK_clean_linker_0, # of connection points: 2
#     Edge 18, Type (0, 0), BuildingBlock: EZIPEK_clean_linker_0, # of connection points: 2
#     Edge 19, Type (0, 0), BuildingBlock: EZIPEK_clean_linker_0, # of connection points: 2
#     Edge 20, Type (0, 0), BuildingBlock: EZIPEK_clean_linker_0, # of connection points: 2
#     Edge 21, Type (0, 0), BuildingBlock: EZIPEK_clean_linker_0, # of connection points: 2
#     Edge 22, Type (0, 0), BuildingBlock: EZIPEK_clean_linker_0, # of connection points: 2
#     Edge 23, Type (0, 0), BuildingBlock: EZIPEK_clean_linker_0, # of connection points: 2
#     Edge 24, Type (0, 0), BuildingBlock: EZIPEK_clean_linker_0, # of connection points: 2
#     Edge 25, Type (0, 0), BuildingBlock: EZIPEK_clean_linker_0, # of connection points: 2
#     Edge 26, Type (0, 0), BuildingBlock: EZIPEK_clean_linker_0, # of connection points: 2
#     Edge 27, Type (0, 0), BuildingBlock: EZIPEK_clean_linker_0, # of connection points: 2
#     Edge 28, Type (0, 0), BuildingBlock: EZIPEK_clean_linker_0, # of connection points: 2
#     Edge 29, Type (0, 0), BuildingBlock: EZIPEK_clean_linker_0, # of connection points: 2
#     Edge 30, Type (0, 0), BuildingBlock: EZIPEK_clean_linker_0, # of connection points: 2
#     Edge 31, Type (0, 0), BuildingBlock: EZIPEK_clean_linker_0, # of connection points: 2
#     Edge 32, Type (0, 0), BuildingBlock: EZIPEK_clean_linker_0, # of connection points: 2
#     Edge 33, Type (0, 0), BuildingBlock: EZIPEK_clean_linker_0, # of connection points: 2
#     Edge 34, Type (0, 0), BuildingBlock: EZIPEK_clean_linker_0, # of connection points: 2
#     Edge 35, Type (0, 0), BuildingBlock: EZIPEK_clean_linker_0, # of connection points: 2
# Relax obj value: 0.136
# Max RMSD: 0.111
# Mean RMSD: 0.111
data_MOF--net-can--node1-UXUYUI_clean_sbu_0--edge1-EZIPEK_clean_linker_0
_symmetry_space_group_name_H-M    P1
_symmetry_Int_Tables_number       1
_symmetry_cell_setting            triclinic
loop_
_symmetry_equiv_pos_as_xyz
'x, y, z'
_cell_length_a     70.625727
_cell_length_b     70.621862
_cell_length_c     30.781028
_cell_angle_alpha  89.992747
_cell_angle_beta   90.008259
_cell_angle_gamma 119.97031
loop_
_atom_site_label
_atom_site_type_symbol
_atom_site_fract_x
_atom_site_fract_y
_atom_site_fract_z
_atom_type_partial_charge
Li0 Li 0.08578 0.43676 0.25649 0.0
Li1 Li 0.0689 0.40179 0.29054 0.0
Li2 Li 0.10192 0.41258 0.25269 0.0
Li3 Li 0.06615 0.40109 0.21271 0.0
C4 C 0.11791 0.44467 0.31618 0.0
N5 N 0.15795 0.47999 0.33868 0.0
C6 C 0.12279 0.45092 0.35969 0.0
C7 C 0.13343 0.45645 0.28417 0.0
C8 C 0.1431 0.46882 0.3704 0.0
C9 C 0.15357 0.47421 0.29616 0.0
C10 C 0.03764 0.41272 0.27758 0.0
C11 C 0.99897 0.39679 0.29043 0.0
N12 N 1.00335 0.40953 0.32636 0.0
C13 C 0.04178 0.42571 0.31453 0.0
C14 C 0.01609 0.39819 0.26526 0.0
C15 C 0.02421 0.42384 0.33879 0.0
C16 C 0.08617 0.47309 0.21918 0.0
N17 N 0.09035 0.46566 0.25668 0.0
C18 C 0.0973 0.49816 0.29416 0.0
C19 C 0.09586 0.47771 0.29382 0.0
C20 C 0.09292 0.50609 0.25598 0.0
C21 C 0.0875 0.49349 0.21802 0.0
H22 H 0.08139 0.46295 0.1904 0.0
H23 H 0.09852 0.47119 0.32348 0.0
C24 C 0.06224 0.39449 0.38074 0.0
N25 N 0.05222 0.38724 0.34166 0.0
C26 C 0.05046 0.38648 0.41928 0.0
C27 C 0.01836 0.36299 0.3768 0.0
C28 C 0.03077 0.37151 0.33904 0.0
C29 C 0.02818 0.37084 0.4174 0.0
H30 H 0.07928 0.40691 0.38197 0.0
H31 H 0.02311 0.36603 0.30763 0.0
C32 C 0.10732 0.43633 0.16721 0.0
N33 N 0.13045 0.45382 0.09127 0.0
C34 C 0.10501 0.42271 0.13225 0.0
C35 C 0.12136 0.45889 0.16344 0.0
C36 C 0.11685 0.43185 0.09417 0.0
C37 C 0.13293 0.46741 0.12482 0.0
C38 C 0.06469 0.36409 0.27046 0.0
C39 C 0.07461 0.36083 0.30677 0.0
C40 C 0.04414 0.34753 0.25693 0.0
C41 C 0.06358 0.34109 0.32944 0.0
C42 C 0.03367 0.328 0.28041 0.0
N43 N 0.04351 0.32523 0.31591 0.0
C44 C 0.13722 0.4098 0.28887 0.0
C45 C 0.13912 0.4137 0.21225 0.0
C46 C 0.15692 0.40961 0.28953 0.0
N47 N 0.12879 0.41193 0.25061 0.0
C48 C 0.15889 0.41367 0.21143 0.0
C49 C 0.16795 0.41163 0.25043 0.0
H50 H 0.12868 0.40837 0.31893 0.0
H51 H 0.13209 0.41514 0.18226 0.0
C52 C 0.03707 0.39741 0.14716 0.0
N53 N 0.04956 0.38896 0.16127 0.0
C54 C 0.02548 0.39018 0.10823 0.0
C55 C 0.03991 0.36575 0.09892 0.0
C56 C 0.05093 0.37318 0.13848 0.0
C57 C 0.02709 0.37439 0.08347 0.0
H58 H 0.03641 0.41002 0.16589 0.0
H59 H 0.06104 0.3668 0.15051 0.0
O60 O 0.09797 0.42721 0.30535 0.0
O61 O 0.05461 0.41417 0.25364 0.0
O62 O 0.09553 0.42771 0.20452 0.0
O63 O 0.07501 0.38345 0.2484 0.0
H64 H 0.11099 0.44215 0.38499 0.0
H65 H 0.13013 0.45185 0.25049 0.0
H66 H 0.14705 0.47383 0.40393 0.0
H67 H 0.16573 0.48338 0.27166 0.0
H68 H 0.9822 0.38554 0.28144 0.0
H69 H 0.05837 0.43687 0.3247 0.0
H70 H 0.01264 0.38798 0.23679 0.0
H71 H 0.02716 0.43369 0.36762 0.0
H72 H 0.10131 0.50749 0.32404 0.0
H73 H 0.08388 0.49917 0.18817 0.0
H74 H 0.05847 0.39282 0.45019 0.0
H75 H 1.00116 0.35091 0.3744 0.0
H76 H 0.09447 0.40523 0.13474 0.0
H77 H 0.12334 0.46975 0.19001 0.0
H78 H 0.11528 0.42146 0.06697 0.0
H79 H 0.14386 0.48482 0.1215 0.0
H80 H 0.0905 0.37354 0.31765 0.0
H81 H 0.03626 0.34985 0.22889 0.0
H82 H 0.07095 0.33841 0.35784 0.0
H83 H 0.0177 0.31508 0.27051 0.0
H84 H 0.16351 0.40796 0.32016 0.0
H85 H 0.16702 0.41518 0.18072 0.0
H86 H 0.01577 0.39718 0.09699 0.0
H87 H 0.04148 0.35357 0.08038 0.0
Li88 Li 0.65074 0.08552 0.74897 0.0
Li89 Li 0.66835 0.06762 0.78965 0.0
Li90 Li 0.69148 0.1011 0.74804 0.0
Li91 Li 0.66842 0.06743 0.71236 0.0
C92 C 0.68468 0.11499 0.82234 0.0
N93 N 0.71338 0.15232 0.86721 0.0
C94 C 0.69767 0.11393 0.85542 0.0
C95 C 0.68626 0.13501 0.81208 0.0
C96 C 0.71207 0.133 0.87776 0.0
C97 C 0.70089 0.15371 0.83511 0.0
C98 C 0.62789 0.03689 0.77384 0.0
C99 C 0.61403 1.00008 0.79984 0.0
N100 N 0.59929 1.00211 0.82496 0.0
C101 C 0.61255 0.03859 0.79974 0.0
C102 C 0.62859 0.01746 0.77369 0.0
C103 C 0.59825 0.02082 0.8254 0.0
C104 C 0.61027 0.07837 0.71981 0.0
N105 N 0.62661 0.09033 0.74845 0.0
C106 C 0.60621 0.10578 0.77887 0.0
C107 C 0.62496 0.10386 0.77775 0.0
C108 C 0.58909 0.09348 0.74985 0.0
C109 C 0.59122 0.07973 0.71989 0.0
H110 H 0.61181 0.06732 0.6977 0.0
H111 H 0.63793 0.1127 0.80094 0.0
C112 C 0.674 0.03901 0.84792 0.0
N113 N 0.6651 0.05206 0.84247 0.0
C114 C 0.67023 0.02698 0.88625 0.0
C115 C 0.64849 0.04229 0.91269 0.0
C116 C 0.65276 0.05408 0.87406 0.0
C117 C 0.6572 0.02851 0.91887 0.0
H118 H 0.68384 0.03777 0.82242 0.0
H119 H 0.64595 0.06463 0.86885 0.0
C120 C 0.67439 0.09891 0.65579 0.0
N121 N 0.67988 0.1024 0.56672 0.0
C122 C 0.69537 0.10869 0.63788 0.0
C123 C 0.65622 0.09101 0.62844 0.0
C124 C 0.6978 0.11027 0.59276 0.0
C125 C 0.65933 0.09291 0.58348 0.0
C126 C 0.70395 0.06546 0.72957 0.0
C127 C 0.72361 0.07904 0.70811 0.0
C128 C 0.69496 0.04279 0.72786 0.0
C129 C 0.73389 0.06967 0.68498 0.0
C130 C 0.70571 0.03405 0.70428 0.0
N131 N 0.72479 0.04756 0.68351 0.0
C132 C 0.73593 0.1293 0.77029 0.0
C133 C 0.72013 0.14579 0.72758 0.0
C134 C 0.75591 0.14886 0.77124 0.0
N135 N 0.71863 0.1281 0.74841 0.0
C136 C 0.73978 0.1657 0.72783 0.0
C137 C 0.75791 0.16726 0.74972 0.0
H138 H 0.73418 0.11502 0.78695 0.0
H139 H 0.70603 0.14442 0.71086 0.0
C140 C 0.6441 0.033 0.65372 0.0
N141 N 0.66449 0.05025 0.66081 0.0
C142 C 0.63934 0.02092 0.61531 0.0
C143 C 0.67665 0.04442 0.59208 0.0
C144 C 0.68072 0.05599 0.631 0.0
C145 C 0.65569 0.02681 0.58392 0.0
H146 H 0.63135 0.02894 0.67739 0.0
H147 H 0.69669 0.06992 0.63676 0.0
O148 O 0.67106 0.09667 0.79909 0.0
O149 O 0.64244 0.05429 0.74938 0.0
O150 O 0.67167 0.09708 0.69987 0.0
O151 O 0.69368 0.07433 0.75245 0.0
H152 H 0.69679 0.09859 0.86345 0.0
H153 H 0.67663 0.13618 0.78596 0.0
H154 H 0.72228 0.13245 0.90335 0.0
H155 H 0.70242 0.16935 0.82728 0.0
H156 H 0.61447 0.98499 0.80026 0.0
H157 H 0.61187 0.05355 0.80053 0.0
H158 H 0.64035 0.01588 0.7538 0.0
H159 H 0.58638 0.02195 0.84582 0.0
H160 H 0.60483 0.11632 0.80267 0.0
H161 H 0.57813 0.06989 0.69745 0.0
H162 H 0.67716 0.01644 0.89026 0.0
H163 H 0.63837 0.04377 0.93739 0.0
H164 H 0.70961 0.11465 0.65852 0.0
H165 H 0.63988 0.08339 0.64175 0.0
H166 H 0.71393 0.11765 0.57844 0.0
H167 H 0.64541 0.08681 0.56191 0.0
H168 H 0.73074 0.09661 0.70885 0.0
H169 H 0.67972 0.03205 0.74411 0.0
H170 H 0.74906 0.07997 0.66803 0.0
H171 H 0.69886 0.01653 0.70242 0.0
H172 H 0.76966 0.14966 0.78851 0.0
H173 H 0.74088 0.17969 0.71105 0.0
H174 H 0.62296 0.00747 0.60965 0.0
H175 H 0.68955 0.04941 0.56822 0.0
Li176 Li 0.60355 0.66671 0.29615 0.0
Li177 Li 0.56925 0.65064 0.25882 0.0
Li178 Li 0.60225 0.66498 0.21621 0.0
Li179 Li 0.59204 0.69009 0.25568 0.0
C180 C 0.58565 0.62235 0.28164 0.0
N181 N 0.57538 0.58562 0.33048 0.0
C182 C 0.57294 0.61778 0.31912 0.0
C183 C 0.59312 0.60822 0.26893 0.0
C184 C 0.56792 0.59915 0.34339 0.0
C185 C 0.58776 0.58974 0.29407 0.0
C186 C 0.56281 0.67103 0.33342 0.0
C187 C 0.53552 0.68123 0.34798 0.0
N188 N 0.53054 0.66993 0.386 0.0
C189 C 0.55761 0.65975 0.37293 0.0
C190 C 0.55183 0.68205 0.32105 0.0
C191 C 0.54116 0.65928 0.39891 0.0
C192 C 0.61606 0.6741 0.38436 0.0
N193 N 0.61797 0.66481 0.34715 0.0
C194 C 0.63598 0.64879 0.38542 0.0
C195 C 0.62808 0.65269 0.34683 0.0
C196 C 0.63349 0.65755 0.42442 0.0
C197 C 0.62377 0.67066 0.4237 0.0
H198 H 0.60791 0.68362 0.3837 0.0
H199 H 0.62937 0.64543 0.3169 0.0
C200 C 0.53724 0.60821 0.23677 0.0
N201 N 0.53981 0.62605 0.25884 0.0
C202 C 0.51696 0.58909 0.23542 0.0
C203 C 0.50191 0.60712 0.27824 0.0
C204 C 0.52256 0.62591 0.27893 0.0
C205 C 0.49913 0.58844 0.25662 0.0
H206 H 0.55105 0.60881 0.22028 0.0
H207 H 0.52465 0.64026 0.29541 0.0
C208 C 0.6425 0.69626 0.25628 0.0
N209 N 0.68575 0.70689 0.26146 0.0
C210 C 0.65867 0.71766 0.26589 0.0
C211 C 0.64829 0.68024 0.24938 0.0
C212 C 0.68046 0.72271 0.26833 0.0
C213 C 0.67025 0.68595 0.25213 0.0
C214 C 0.55769 0.65927 0.18483 0.0
C215 C 0.55428 0.64377 0.15298 0.0
C216 C 0.54075 0.66321 0.19573 0.0
C217 C 0.53386 0.63226 0.13291 0.0
C218 C 0.52056 0.65135 0.17493 0.0
N219 N 0.51755 0.63623 0.14426 0.0
C220 C 0.60729 0.64017 0.15109 0.0
C221 C 0.63026 0.67843 0.142 0.0
C222 C 0.615 0.63613 0.11246 0.0
N223 N 0.61484 0.66103 0.1648 0.0
C224 C 0.63856 0.67512 0.10326 0.0
C225 C 0.63069 0.65374 0.088 0.0
H226 H 0.59494 0.62669 0.16981 0.0
H227 H 0.63592 0.69484 0.1537 0.0
C228 C 0.604 0.73231 0.28694 0.0
N229 N 0.59367 0.71787 0.2541 0.0
C230 C 0.60486 0.75253 0.28721 0.0
C231 C 0.5844 0.74259 0.21995 0.0
C232 C 0.58409 0.72265 0.22078 0.0
C233 C 0.59485 0.75771 0.2535 0.0
H234 H 0.61144 0.72803 0.31302 0.0
H235 H 0.57609 0.71091 0.19501 0.0
O236 O 0.59107 0.64069 0.25768 0.0
O237 O 0.57912 0.67195 0.30787 0.0
O238 O 0.62109 0.69103 0.25414 0.0
O239 O 0.57733 0.67011 0.20599 0.0
H240 H 0.56699 0.62849 0.32925 0.0
H241 H 0.60308 0.6116 0.24011 0.0
H242 H 0.55811 0.59544 0.37249 0.0
H243 H 0.59347 0.57869 0.28469 0.0
H244 H 0.5268 0.68957 0.33864 0.0
H245 H 0.56622 0.65152 0.38361 0.0
H246 H 0.55568 0.691 0.29087 0.0
H247 H 0.53691 0.65053 0.42945 0.0
H248 H 0.64338 0.63856 0.3851 0.0
H249 H 0.62159 0.67757 0.45341 0.0
H250 H 0.51521 0.57491 0.21827 0.0
H251 H 0.48833 0.60705 0.2947 0.0
H252 H 0.65441 0.73021 0.27144 0.0
H253 H 0.63597 0.66356 0.24221 0.0
H254 H 0.69317 0.73921 0.27573 0.0
H255 H 0.67497 0.67372 0.24691 0.0
H256 H 0.56718 0.64049 0.14419 0.0
H257 H 0.54306 0.67507 0.22039 0.0
H258 H 0.53094 0.62011 0.10844 0.0
H259 H 0.50725 0.65409 0.18332 0.0
H260 H 0.60863 0.61946 0.10146 0.0
H261 H 0.65071 0.68902 0.08505 0.0
H262 H 0.61304 0.76393 0.31352 0.0
H263 H 0.5766 0.74621 0.19348 0.0
Li264 Li 0.92113 0.56646 0.75701 0.0
Li265 Li 0.93955 0.60116 0.79578 0.0
Li266 Li 0.90574 0.59163 0.75421 0.0
Li267 Li 0.94083 0.60279 0.71728 0.0
C268 C 0.88989 0.55983 0.82106 0.0
N269 N 0.8503 0.52689 0.85188 0.0
C270 C 0.88678 0.5556 0.86561 0.0
C271 C 0.87286 0.54737 0.7922 0.0
C272 C 0.86665 0.53884 0.88055 0.0
C273 C 0.85297 0.53079 0.8084 0.0
C274 C 0.97084 0.59238 0.77796 0.0
C275 C 0.00793 0.61666 0.8009 0.0
N276 N 0.00723 0.60036 0.82563 0.0
C277 C 0.97053 0.5758 0.80327 0.0
C278 C 0.98973 0.61292 0.77639 0.0
C279 C 0.98909 0.58018 0.82722 0.0
C280 C 0.92406 0.53198 0.72034 0.0
N281 N 0.91603 0.53732 0.75551 0.0
C282 C 0.90511 0.50266 0.78831 0.0
C283 C 0.90667 0.52317 0.78923 0.0
C284 C 0.91365 0.49698 0.75276 0.0
C285 C 0.92306 0.51174 0.71829 0.0
H286 H 0.93173 0.54371 0.69436 0.0
H287 H 0.901 0.52796 0.81743 0.0
C288 C 0.96731 0.63503 0.85572 0.0
N289 N 0.9552 0.61313 0.84858 0.0
C290 C 0.97926 0.64294 0.89423 0.0
C291 C 0.96596 0.60563 0.91715 0.0
C292 C 0.95408 0.59846 0.87857 0.0
C293 C 0.97879 0.6281 0.92518 0.0
H294 H 0.96781 0.64633 0.83148 0.0
H295 H 0.9442 0.58114 0.87209 0.0
C296 C 0.8993 0.56714 0.67019 0.0
N297 N 0.87459 0.54741 0.59694 0.0
C298 C 0.90091 0.57969 0.63379 0.0
C299 C 0.88521 0.54452 0.6692 0.0
C300 C 0.88825 0.56943 0.59711 0.0
C301 C 0.87283 0.53486 0.63191 0.0
C302 C 0.94144 0.64033 0.73941 0.0
C303 C 0.92718 0.64655 0.72147 0.0
C304 C 0.96398 0.65478 0.7381 0.0
C305 C 0.93575 0.6671 0.70207 0.0
C306 C 0.9719 0.67517 0.71835 0.0
N307 N 0.95775 0.68085 0.70088 0.0
C308 C 0.87137 0.59567 0.79144 0.0
C309 C 0.86874 0.59124 0.71493 0.0
C310 C 0.85201 0.59649 0.79256 0.0
N311 N 0.87925 0.59294 0.75303 0.0
C312 C 0.84935 0.59199 0.71455 0.0
C313 C 0.84081 0.59459 0.75374 0.0
H314 H 0.88011 0.59712 0.82124 0.0
H315 H 0.87541 0.5894 0.68479 0.0
C316 C 0.97168 0.6085 0.65405 0.0
N317 N 0.95772 0.61563 0.66574 0.0
C318 C 0.98329 0.61539 0.61505 0.0
C319 C 0.96637 0.63727 0.60112 0.0
C320 C 0.9549 0.62977 0.64017 0.0
C321 C 0.98052 0.62981 0.58802 0.0
H322 H 0.97339 0.59702 0.67459 0.0
H323 H 0.94328 0.63474 0.64925 0.0
O324 O 0.90949 0.57622 0.80606 0.0
O325 O 0.95263 0.58862 0.75535 0.0
O326 O 0.91183 0.57683 0.70618 0.0
O327 O 0.93334 0.62031 0.7586 0.0
H328 H 0.89981 0.56514 0.88837 0.0
H329 H 0.87492 0.55058 0.75773 0.0
H330 H 0.86402 0.53534 0.91494 0.0
H331 H 0.83964 0.52105 0.78642 0.0
H332 H 0.0226 0.63254 0.80032 0.0
H333 H 0.95603 0.55981 0.80483 0.0
H334 H 0.99024 0.62586 0.75672 0.0
H335 H 0.98904 0.56756 0.84723 0.0
H336 H 0.89797 0.49162 0.81557 0.0
H337 H 0.9299 0.5078 0.69059 0.0
H338 H 0.98896 0.66039 0.89966 0.0
H339 H 0.96523 0.59379 0.94046 0.0
H340 H 0.91155 0.5972 0.63407 0.0
H341 H 0.88386 0.53447 0.69687 0.0
H342 H 0.88927 0.57898 0.56882 0.0
H343 H 0.86186 0.51738 0.63074 0.0
H344 H 0.90969 0.6356 0.72239 0.0
H345 H 0.97522 0.65022 0.75184 0.0
H346 H 0.92492 0.67211 0.68791 0.0
H347 H 0.98931 0.68647 0.71686 0.0
H348 H 0.84579 0.59855 0.82331 0.0
H349 H 0.84107 0.59056 0.68406 0.0
H350 H 0.99405 0.60929 0.60571 0.0
H351 H 0.96382 0.64832 0.58078 0.0
Li352 Li 0.34035 0.93877 0.29211 0.0
Li353 Li 0.35748 0.92101 0.25296 0.0
Li354 Li 0.34026 0.9393 0.21485 0.0
Li355 Li 0.31632 0.90494 0.24992 0.0
C356 C 0.38003 0.97021 0.27577 0.0
N357 N 0.40738 0.00643 0.32492 0.0
C358 C 0.39573 0.9698 0.3028 0.0
C359 C 0.37837 0.98908 0.27339 0.0
C360 C 0.40938 0.98827 0.32747 0.0
C361 C 0.39231 0.00721 0.29861 0.0
C362 C 0.33128 0.88892 0.31649 0.0
C363 C 0.3236 0.85209 0.30319 0.0
N364 N 0.32118 0.8481 0.34665 0.0
C365 C 0.32862 0.88443 0.36097 0.0
C366 C 0.32869 0.87263 0.28728 0.0
C367 C 0.32358 0.8637 0.3756 0.0
C368 C 0.33439 0.96721 0.34998 0.0
N369 N 0.34336 0.9542 0.34495 0.0
C370 C 0.3597 0.96405 0.41539 0.0
C371 C 0.3556 0.95222 0.37684 0.0
C372 C 0.3509 0.97779 0.42116 0.0
C373 C 0.33795 0.97923 0.38824 0.0
H374 H 0.3247 0.96844 0.32418 0.0
H375 H 0.3625 0.94174 0.37189 0.0
C376 C 0.39801 0.92849 0.22394 0.0
N377 N 0.38213 0.91663 0.25354 0.0
C378 C 0.41732 0.9276 0.22323 0.0
C379 C 0.40379 0.90251 0.28386 0.0
C380 C 0.38477 0.90397 0.28357 0.0
C381 C 0.42027 0.91449 0.25349 0.0
H382 H 0.39586 0.93905 0.20152 0.0
H383 H 0.37249 0.89541 0.30803 0.0
C384 C 0.30316 0.93982 0.23337 0.0
N385 N 0.27888 0.95499 0.19093 0.0
C386 C 0.28306 0.92507 0.21464 0.0
C387 C 0.31082 0.96226 0.23089 0.0
C388 C 0.27105 0.93307 0.19325 0.0
C389 C 0.29833 0.9696 0.20915 0.0
C390 C 0.33565 0.9087 0.15802 0.0
C391 C 0.31593 0.90332 0.13747 0.0
C392 C 0.35392 0.91316 0.13296 0.0
C393 C 0.31485 0.90257 0.09214 0.0
C394 C 0.35218 0.91227 0.0877 0.0
N395 N 0.33285 0.90703 0.0684 0.0
C396 C 0.36572 0.97158 0.15362 0.0
C397 C 0.32801 0.95333 0.13609 0.0
C398 C 0.37084 0.98355 0.11501 0.0
N399 N 0.3446 0.95672 0.16339 0.0
C400 C 0.3324 0.96492 0.09711 0.0
C401 C 0.35405 0.98006 0.08619 0.0
H402 H 0.37869 0.97375 0.17533 0.0
H403 H 0.31141 0.94112 0.14365 0.0
C404 C 0.27543 0.87387 0.28465 0.0
N405 N 0.28909 0.87805 0.25032 0.0
C406 C 0.25554 0.85423 0.2868 0.0
C407 C 0.264 0.84372 0.21794 0.0
C408 C 0.28393 0.86331 0.21762 0.0
C409 C 0.24958 0.83899 0.25291 0.0
H410 H 0.28011 0.88576 0.3105 0.0
H411 H 0.29534 0.86664 0.19145 0.0
O412 O 0.3661 0.95209 0.25233 0.0
O413 O 0.33567 0.90895 0.30162 0.0
O414 O 0.31501 0.93225 0.25478 0.0
O415 O 0.33704 0.9096 0.2024 0.0
H416 H 0.39716 0.95527 0.30514 0.0
H417 H 0.36633 0.98965 0.25254 0.0
H418 H 0.4215 0.98815 0.34877 0.0
H419 H 0.39111 0.02189 0.29736 0.0
H420 H 0.32156 0.83933 0.28099 0.0
H421 H 0.33041 0.89684 0.38392 0.0
H422 H 0.33063 0.8758 0.25272 0.0
H423 H 0.32152 0.85999 0.40996 0.0
H424 H 0.36975 0.96264 0.44032 0.0
H425 H 0.33096 0.98973 0.39193 0.0
H426 H 0.42995 0.93725 0.19979 0.0
H427 H 0.40583 0.89253 0.30804 0.0
H428 H 0.27685 0.90764 0.21644 0.0
H429 H 0.32634 0.97388 0.24517 0.0
H430 H 0.25551 0.92187 0.17845 0.0
H431 H 0.30412 0.98693 0.2067 0.0
H432 H 0.30172 0.90016 0.1563 0.0
H433 H 0.36925 0.91721 0.14823 0.0
H434 H 0.29973 0.89858 0.07584 0.0
H435 H 0.36621 0.91574 0.06792 0.0
H436 H 0.38774 0.99507 0.10723 0.0
H437 H 0.31912 0.96179 0.07527 0.0
H438 H 0.24483 0.851 0.31441 0.0
H439 H 0.25997 0.83221 0.19148 0.0
Li440 Li 0.44015 0.35677 0.75477 0.0
Li441 Li 0.40514 0.33902 0.78885 0.0
Li442 Li 0.41582 0.31646 0.75178 0.0
Li443 Li 0.40451 0.34056 0.71093 0.0
C444 C 0.44793 0.33276 0.81474 0.0
N445 N 0.48319 0.32788 0.83712 0.0
C446 C 0.45372 0.33331 0.85836 0.0
C447 C 0.46018 0.3298 0.78254 0.0
C448 C 0.47158 0.33082 0.86901 0.0
C449 C 0.47789 0.32732 0.79449 0.0
C450 C 0.41559 0.38102 0.77345 0.0
C451 C 0.39901 0.40346 0.78237 0.0
N452 N 0.41112 0.41228 0.81889 0.0
C453 C 0.42795 0.39036 0.81093 0.0
C454 C 0.40107 0.38766 0.75886 0.0
C455 C 0.42544 0.40613 0.83348 0.0
C456 C 0.47768 0.39121 0.71672 0.0
N457 N 0.46913 0.3809 0.75507 0.0
C458 C 0.50065 0.40754 0.79357 0.0
C459 C 0.48017 0.38856 0.79312 0.0
C460 C 0.50976 0.41854 0.75447 0.0
C461 C 0.49822 0.41005 0.71559 0.0
H462 H 0.46829 0.38503 0.68714 0.0
H463 H 0.47282 0.38028 0.82325 0.0
C464 C 0.39772 0.33832 0.87901 0.0
N465 N 0.39075 0.34154 0.83997 0.0
C466 C 0.38985 0.34221 0.91762 0.0
C467 C 0.36705 0.35184 0.87534 0.0
C468 C 0.37542 0.34783 0.8375 0.0
C469 C 0.37462 0.3494 0.91589 0.0
H470 H 0.4098 0.33324 0.88015 0.0
H471 H 0.37013 0.35033 0.80617 0.0
C472 C 0.43741 0.33279 0.66473 0.0
N473 N 0.45016 0.32332 0.58665 0.0
C474 C 0.42174 0.31979 0.63389 0.0
C475 C 0.45956 0.34088 0.65594 0.0
C476 C 0.42851 0.31523 0.59457 0.0
C477 C 0.46568 0.33591 0.61628 0.0
C478 C 0.36694 0.30658 0.76784 0.0
C479 C 0.36192 0.29298 0.8041 0.0
C480 C 0.35183 0.31237 0.75287 0.0
C481 C 0.3419 0.28556 0.82511 0.0
C482 C 0.33196 0.30455 0.77469 0.0
N483 N 0.32746 0.29145 0.81009 0.0
C484 C 0.40881 0.2768 0.7882 0.0
C485 C 0.42188 0.28205 0.7158 0.0
C486 C 0.40816 0.2567 0.79037 0.0
N487 N 0.41541 0.28895 0.75117 0.0
C488 C 0.42164 0.26215 0.71666 0.0
C489 C 0.41463 0.24926 0.75422 0.0
H490 H 0.40418 0.28281 0.8162 0.0
H491 H 0.42737 0.29193 0.68692 0.0
C492 C 0.40329 0.36543 0.64167 0.0
N493 N 0.39268 0.34498 0.65892 0.0
C494 C 0.39626 0.3698 0.6025 0.0
C495 C 0.36749 0.33197 0.5995 0.0
C496 C 0.375 0.32834 0.63895 0.0
C497 C 0.37826 0.35291 0.58093 0.0
H498 H 0.41737 0.37828 0.65821 0.0
H499 H 0.36699 0.3122 0.65327 0.0
O500 O 0.43049 0.33531 0.80401 0.0
O501 O 0.41766 0.36543 0.75114 0.0
O502 O 0.43114 0.33768 0.70323 0.0
O503 O 0.38661 0.31433 0.74728 0.0
H504 H 0.44459 0.33574 0.88381 0.0
H505 H 0.45608 0.32932 0.74869 0.0
H506 H 0.47623 0.33123 0.90264 0.0
H507 H 0.48743 0.32494 0.76984 0.0
H508 H 0.38776 0.40869 0.77162 0.0
H509 H 0.43911 0.38525 0.82281 0.0
H510 H 0.39138 0.38054 0.72989 0.0
H511 H 0.43478 0.4134 0.86271 0.0
H512 H 0.50912 0.41381 0.82412 0.0
H513 H 0.50479 0.4183 0.68496 0.0
H514 H 0.39596 0.34016 0.9485 0.0
H515 H 0.35528 0.35738 0.87304 0.0
H516 H 0.40453 0.31299 0.64054 0.0
H517 H 0.47192 0.3508 0.67955 0.0
H518 H 0.41655 0.30517 0.57044 0.0
H519 H 0.48276 0.34206 0.60907 0.0
H520 H 0.37346 0.28844 0.81624 0.0
H521 H 0.35554 0.32305 0.72511 0.0
H522 H 0.33786 0.27517 0.85341 0.0
H523 H 0.32016 0.309 0.76362 0.0
H524 H 0.4028 0.24712 0.81994 0.0
H525 H 0.42681 0.25683 0.68831 0.0
H526 H 0.40491 0.38612 0.58885 0.0
H527 H 0.35359 0.3186 0.58345 0.0
Li528 Li 0.60654 0.94018 0.29038 0.0
Li529 Li 0.59537 0.90665 0.25236 0.0
Li530 Li 0.60715 0.94188 0.21051 0.0
Li531 Li 0.57189 0.92234 0.25188 0.0
C532 C 0.64605 0.94633 0.2617 0.0
N533 N 0.68939 0.97132 0.28578 0.0
C534 C 0.65434 0.93955 0.2958 0.0
C535 C 0.65982 0.9658 0.23976 0.0
C536 C 0.67629 0.95243 0.30752 0.0
C537 C 0.68168 0.9782 0.25245 0.0
C538 C 0.57582 0.89377 0.32752 0.0
C539 C 0.55336 0.85532 0.3432 0.0
N540 N 0.56689 0.85749 0.37667 0.0
C541 C 0.58947 0.89563 0.36213 0.0
C542 C 0.55756 0.87348 0.31807 0.0
C543 C 0.58466 0.87709 0.3866 0.0
C544 C 0.60441 0.95167 0.37601 0.0
N545 N 0.61898 0.95677 0.34297 0.0
C546 C 0.64724 0.98497 0.38607 0.0
C547 C 0.64002 0.97334 0.3471 0.0
C548 C 0.63248 0.97986 0.42049 0.0
C549 C 0.61083 0.96308 0.41523 0.0
H550 H 0.58762 0.9389 0.37162 0.0
H551 H 0.65113 0.97797 0.32005 0.0
C552 C 0.58465 0.86461 0.2203 0.0
N553 N 0.59603 0.87975 0.2515 0.0
C554 C 0.5844 0.84468 0.21972 0.0
C555 C 0.60765 0.85627 0.28321 0.0
C556 C 0.60763 0.87604 0.2823 0.0
C557 C 0.5959 0.84037 0.25165 0.0
H558 H 0.57574 0.86798 0.19589 0.0
H559 H 0.61668 0.88831 0.30654 0.0
C560 C 0.59817 0.97187 0.27352 0.0
N561 N 0.60688 0.00822 0.32204 0.0
C562 C 0.58229 0.97124 0.30152 0.0
C563 C 0.61846 0.99098 0.27007 0.0
C564 C 0.58702 0.9898 0.32581 0.0
C565 C 0.62255 0.00919 0.29494 0.0
C566 C 0.5634 0.90375 0.17495 0.0
C567 C 0.56328 0.91542 0.13836 0.0
C568 C 0.54465 0.88409 0.1857 0.0
C569 C 0.54429 0.90732 0.11337 0.0
C570 C 0.52596 0.87656 0.15995 0.0
N571 N 0.52617 0.88824 0.12463 0.0
C572 C 0.62908 0.95125 0.12904 0.0
C573 C 0.61758 0.97607 0.15143 0.0
C574 C 0.63659 0.9623 0.08949 0.0
N575 N 0.61971 0.95824 0.15886 0.0
C576 C 0.62492 0.98762 0.11249 0.0
C577 C 0.63434 0.98059 0.08096 0.0
H578 H 0.6303 0.93685 0.13566 0.0
H579 H 0.60968 0.981 0.17532 0.0
C580 C 0.52829 0.90547 0.28263 0.0
N581 N 0.54302 0.91791 0.25166 0.0
C582 C 0.50766 0.90367 0.28374 0.0
C583 C 0.51775 0.92734 0.22089 0.0
C584 C 0.53822 0.92886 0.22125 0.0
C585 C 0.50235 0.91478 0.25264 0.0
H586 H 0.53272 0.89737 0.30701 0.0
H587 H 0.55046 0.93907 0.19773 0.0
O588 O 0.62472 0.93377 0.24917 0.0
O589 O 0.58043 0.91165 0.30271 0.0
O590 O 0.59404 0.95372 0.25026 0.0
O591 O 0.58167 0.91166 0.20041 0.0
H592 H 0.64391 0.92466 0.31336 0.0
H593 H 0.65372 0.97135 0.21339 0.0
H594 H 0.6829 0.94742 0.33396 0.0
H595 H 0.6925 0.99332 0.23584 0.0
H596 H 0.53938 0.83949 0.33605 0.0
H597 H 0.60383 0.91112 0.36958 0.0
H598 H 0.54686 0.87173 0.29136 0.0
H599 H 0.59515 0.87827 0.41331 0.0
H600 H 0.664 0.99812 0.38905 0.0
H601 H 0.59902 0.95895 0.44114 0.0
H602 H 0.57524 0.83269 0.19487 0.0
H603 H 0.61672 0.85339 0.30818 0.0
H604 H 0.56656 0.95651 0.30475 0.0
H605 H 0.63099 0.99163 0.24886 0.0
H606 H 0.57494 0.98953 0.34776 0.0
H607 H 0.63822 0.02405 0.29285 0.0
H608 H 0.57763 0.93066 0.12953 0.0
H609 H 0.54446 0.87486 0.21389 0.0
H610 H 0.54393 0.91623 0.0851 0.0
H611 H 0.51128 0.86146 0.1681 0.0
H612 H 0.64371 0.95646 0.06555 0.0
H613 H 0.62286 1.00161 0.10659 0.0
H614 H 0.49609 0.89402 0.30885 0.0
H615 H 0.51412 0.93625 0.19677 0.0
Li616 Li 0.66725 0.60399 0.79555 0.0
Li617 Li 0.69262 0.59481 0.75492 0.0
Li618 Li 0.66825 0.60543 0.71575 0.0
Li619 Li 0.6534 0.57101 0.75292 0.0
C620 C 0.69673 0.64457 0.75669 0.0
N621 N 0.70471 0.68706 0.75551 0.0
C622 C 0.71794 0.66192 0.75022 0.0
C623 C 0.67956 0.64881 0.76252 0.0
C624 C 0.72165 0.6833 0.74975 0.0
C625 C 0.68394 0.67041 0.76182 0.0
C626 C 0.6636 0.56035 0.8274 0.0
C627 C 0.65649 0.52347 0.83712 0.0
N628 N 0.64311 0.5209 0.87111 0.0
C629 C 0.64996 0.55742 0.86271 0.0
C630 C 0.66709 0.54332 0.81476 0.0
C631 C 0.63969 0.53734 0.8843 0.0
C632 C 0.64205 0.60739 0.86175 0.0
N633 N 0.66296 0.61608 0.84737 0.0
C634 C 0.67634 0.64012 0.90856 0.0
C635 C 0.68004 0.6322 0.86969 0.0
C636 C 0.65492 0.63113 0.92443 0.0
C637 C 0.63764 0.61468 0.90052 0.0
H638 H 0.62885 0.59447 0.84347 0.0
H639 H 0.6965 0.63876 0.85748 0.0
C640 C 0.73371 0.60459 0.7201 0.0
N641 N 0.72046 0.59663 0.75545 0.0
C642 C 0.75366 0.6049 0.71915 0.0
C643 C 0.74601 0.58902 0.79112 0.0
C644 C 0.72623 0.58903 0.79071 0.0
C645 C 0.75986 0.59692 0.75492 0.0
H646 H 0.72859 0.61038 0.69243 0.0
H647 H 0.71533 0.58272 0.81829 0.0
C648 C 0.6235 0.58491 0.73202 0.0
N649 N 0.58522 0.57076 0.68579 0.0
C650 C 0.62 0.57318 0.69346 0.0
C651 C 0.60753 0.58945 0.74709 0.0
C652 C 0.60055 0.56616 0.67054 0.0
C653 C 0.58828 0.58216 0.72324 0.0
C654 C 0.6744 0.56629 0.67623 0.0
C655 C 0.66429 0.56225 0.63553 0.0
C656 C 0.68515 0.55504 0.68852 0.0
C657 C 0.6648 0.54673 0.60816 0.0
C658 C 0.68532 0.53967 0.66019 0.0
N659 N 0.6752 0.53585 0.62095 0.0
C660 C 0.67616 0.61947 0.62846 0.0
C661 C 0.6516 0.6277 0.66511 0.0
C662 C 0.67238 0.62699 0.58921 0.0
N663 N 0.66547 0.61955 0.66514 0.0
C664 C 0.64731 0.63534 0.62659 0.0
C665 C 0.65751 0.63465 0.58805 0.0
H666 H 0.68708 0.61289 0.62941 0.0
H667 H 0.6433 0.62761 0.69466 0.0
C668 C 0.61312 0.53776 0.78136 0.0
N669 N 0.62935 0.54141 0.75292 0.0
C670 C 0.59409 0.51743 0.78313 0.0
C671 C 0.60862 0.50481 0.72614 0.0
C672 C 0.62754 0.52534 0.72585 0.0
C673 C 0.59161 0.50081 0.75485 0.0
H674 H 0.61486 0.55085 0.80227 0.0
H675 H 0.64047 0.5284 0.70349 0.0
O676 O 0.69286 0.62357 0.75699 0.0
O677 O 0.67329 0.57969 0.80505 0.0
O678 O 0.64244 0.59197 0.75506 0.0
O679 O 0.67424 0.5816 0.70326 0.0
H680 H 0.73139 0.65888 0.74559 0.0
H681 H 0.66303 0.6356 0.76749 0.0
H682 H 0.73799 0.6969 0.74478 0.0
H683 H 0.67081 0.67392 0.76628 0.0
H684 H 0.65888 0.51009 0.82741 0.0
H685 H 0.64717 0.57044 0.87312 0.0
H686 H 0.67768 0.54533 0.78774 0.0
H687 H 0.62897 0.53479 0.91147 0.0
H688 H 0.68999 0.65287 0.92636 0.0
H689 H 0.62095 0.60744 0.91201 0.0
H690 H 0.76404 0.61104 0.69072 0.0
H691 H 0.75039 0.58274 0.81914 0.0
H692 H 0.63213 0.56947 0.68146 0.0
H693 H 0.61001 0.59859 0.77681 0.0
H694 H 0.59764 0.55705 0.64066 0.0
H695 H 0.57578 0.58557 0.7345 0.0
H696 H 0.65613 0.57098 0.62511 0.0
H697 H 0.69326 0.55805 0.71956 0.0
H698 H 0.65696 0.54338 0.57668 0.0
H699 H 0.69352 0.5308 0.6694 0.0
H700 H 0.68044 0.62624 0.55986 0.0
H701 H 0.63572 0.64114 0.62657 0.0
H702 H 0.58119 0.51483 0.80558 0.0
H703 H 0.60712 0.49226 0.70386 0.0
Li704 Li 0.10063 0.69073 0.25874 0.0
Li705 Li 0.06604 0.66712 0.29338 0.0
Li706 Li 0.08481 0.64983 0.25767 0.0
Li707 Li 0.0672 0.66632 0.21599 0.0
C708 C 0.09721 0.67524 0.35128 0.0
N709 N 0.09997 0.68447 0.43909 0.0
C710 C 0.10154 0.69583 0.36547 0.0
C711 C 0.09429 0.65935 0.38181 0.0
C712 C 0.10288 0.70018 0.40997 0.0
C713 C 0.09571 0.66432 0.42604 0.0
C714 C 0.06508 0.70393 0.27027 0.0
C715 C 0.03447 0.70855 0.289 0.0
N716 N 0.04849 0.72847 0.30626 0.0
C717 C 0.0792 0.72453 0.28786 0.0
C718 C 0.04254 0.69593 0.27049 0.0
C719 C 0.07049 0.73665 0.30603 0.0
C720 C 0.13148 0.73212 0.22528 0.0
N721 N 0.12759 0.71785 0.25833 0.0
C722 C 0.1625 0.74201 0.28968 0.0
C723 C 0.14274 0.72225 0.28986 0.0
C724 C 0.16694 0.75706 0.25603 0.0
C725 C 0.15125 0.7519 0.22332 0.0
H726 H 0.11925 0.72804 0.20031 0.0
H727 H 0.13956 0.71037 0.31504 0.0
C728 C 0.03607 0.64165 0.35704 0.0
N729 N 0.0484 0.66285 0.34425 0.0
C730 C 0.02436 0.63643 0.39595 0.0
C731 C 0.0378 0.67491 0.40769 0.0
C732 C 0.04945 0.67942 0.36875 0.0
C733 C 0.02532 0.65321 0.42184 0.0
H734 H 0.03585 0.6288 0.33758 0.0
H735 H 0.05991 0.69618 0.35911 0.0
C736 C 0.11745 0.67559 0.19503 0.0
N737 N 0.1589 0.68607 0.1684 0.0
C738 C 0.12349 0.6806 0.15151 0.0
C739 C 0.13248 0.67596 0.22507 0.0
C740 C 0.14453 0.68582 0.13866 0.0
C741 C 0.15336 0.6813 0.21095 0.0
C742 C 0.03552 0.62658 0.23409 0.0
C743 C 0.03571 0.61009 0.20929 0.0
C744 C 0.01678 0.6285 0.23503 0.0
C745 C 0.01719 0.596 0.18516 0.0
C746 C 0.9986 0.61412 0.21038 0.0
N747 N 0.99919 0.59832 0.18613 0.0
C748 C 0.08251 0.6122 0.29327 0.0
C749 C 0.09794 0.62075 0.22262 0.0
C750 C 0.08391 0.59317 0.29409 0.0
N751 N 0.08965 0.62561 0.25807 0.0
C752 C 0.0996 0.60185 0.22199 0.0
C753 C 0.09242 0.58784 0.25799 0.0
H754 H 0.07509 0.61593 0.32013 0.0
H755 H 0.10268 0.63115 0.19429 0.0
C756 C 0.04028 0.67246 0.15416 0.0
N757 N 0.05219 0.66254 0.16229 0.0
C758 C 0.02857 0.66832 0.11531 0.0
C759 C 0.04175 0.64398 0.09401 0.0
C760 C 0.0534 0.6488 0.13292 0.0
C761 C 0.02907 0.65371 0.08503 0.0
H762 H 0.03972 0.68343 0.17792 0.0
H763 H 0.06312 0.64126 0.14019 0.0
O764 O 0.09562 0.67064 0.30777 0.0
O765 O 0.07335 0.69196 0.25198 0.0
O766 O 0.0971 0.67096 0.20826 0.0
O767 O 0.05371 0.64097 0.25683 0.0
H768 H 0.10358 0.70824 0.34237 0.0
H769 H 0.091 0.64337 0.37156 0.0
H770 H 0.10613 0.71602 0.42135 0.0
H771 H 0.09344 0.65216 0.45001 0.0
H772 H 0.01706 0.7025 0.28967 0.0
H773 H 0.0967 0.73106 0.28755 0.0
H774 H 0.0314 0.68008 0.25685 0.0
H775 H 0.08122 0.75257 0.31994 0.0
H776 H 0.17434 0.74543 0.31521 0.0
H777 H 0.15425 0.76311 0.19674 0.0
H778 H 0.01497 0.61953 0.40617 0.0
H779 H 0.03899 0.68823 0.4272 0.0
H780 H 0.11205 0.68049 0.12796 0.0
H781 H 0.12811 0.67224 0.25894 0.0
H782 H 0.14944 0.68973 0.10507 0.0
H783 H 0.16518 0.68168 0.23382 0.0
H784 H 0.05009 0.60838 0.20823 0.0
H785 H 0.01633 0.64106 0.25437 0.0
H786 H 0.01715 0.58328 0.16553 0.0
H787 H 0.98404 0.61554 0.21048 0.0
H788 H 0.07793 0.58244 0.32204 0.0
H789 H 0.10592 0.59793 0.19343 0.0
H790 H 0.01898 0.67614 0.10916 0.0
H791 H 0.04249 0.63267 0.07124 0.0
Li792 Li 0.41363 0.10014 0.75476 0.0
Li793 Li 0.4022 0.06582 0.79181 0.0
Li794 Li 0.43692 0.08416 0.75249 0.0
Li795 Li 0.4016 0.06503 0.71164 0.0
C796 C 0.43323 0.11107 0.83229 0.0
N797 N 0.44271 0.14514 0.8886 0.0
C798 C 0.42057 0.10748 0.86959 0.0
C799 C 0.45081 0.13194 0.82382 0.0
C800 C 0.42564 0.12493 0.89764 0.0
C801 C 0.45529 0.14897 0.85259 0.0
C802 C 0.36262 0.06225 0.76109 0.0
C803 C 0.3264 0.03122 0.75242 0.0
N804 N 0.31842 0.04085 0.77936 0.0
C805 C 0.35405 0.0719 0.78847 0.0
C806 C 0.34869 0.04181 0.74268 0.0
C807 C 0.33166 0.06079 0.7974 0.0
C808 C 0.42166 0.14083 0.72072 0.0
N809 N 0.41311 0.12708 0.75527 0.0
C810 C 0.40448 0.15203 0.79063 0.0
C811 C 0.40438 0.1322 0.78966 0.0
C812 C 0.4133 0.16648 0.75552 0.0
C813 C 0.42187 0.16073 0.72012 0.0
H814 H 0.42831 0.13633 0.69359 0.0
H815 H 0.39747 0.12097 0.81654 0.0
C816 C 0.40527 0.04899 0.87084 0.0
N817 N 0.38996 0.0489 0.84383 0.0
C818 C 0.39912 0.03749 0.90998 0.0
C819 C 0.36147 0.0261 0.89341 0.0
C820 C 0.36833 0.03762 0.85423 0.0
C821 C 0.37701 0.02602 0.92161 0.0
H822 H 0.42235 0.05807 0.86183 0.0
H823 H 0.35633 0.03742 0.83242 0.0
C824 C 0.44539 0.1041 0.67687 0.0
N825 N 0.48291 0.12138 0.62708 0.0
C826 C 0.44618 0.09301 0.63992 0.0
C827 C 0.46359 0.12407 0.68826 0.0
C828 C 0.46532 0.10201 0.61521 0.0
C829 C 0.48244 0.1325 0.66276 0.0
C830 C 0.40948 0.03318 0.76851 0.0
C831 C 0.42548 0.03048 0.78967 0.0
C832 C 0.38808 0.01566 0.76592 0.0
C833 C 0.41975 0.01023 0.80812 0.0
C834 C 0.38299 0.9957 0.78491 0.0
N835 N 0.39879 0.99342 0.80542 0.0
C836 C 0.48059 0.10134 0.78245 0.0
C837 C 0.47081 0.07826 0.72061 0.0
C838 C 0.50136 0.10349 0.78309 0.0
N839 N 0.46585 0.08884 0.75153 0.0
C840 C 0.49143 0.08013 0.71979 0.0
C841 C 0.50682 0.09271 0.75155 0.0
H842 H 0.47606 0.10923 0.8071 0.0
H843 H 0.45858 0.06805 0.69705 0.0
C844 C 0.3769 0.05392 0.63284 0.0
N845 N 0.38875 0.0487 0.66018 0.0
C846 C 0.36913 0.0427 0.59352 0.0
C847 C 0.38564 0.02084 0.61172 0.0
C848 C 0.39314 0.0325 0.65049 0.0
C849 C 0.37369 0.02608 0.58269 0.0
H850 H 0.37386 0.06704 0.64124 0.0
H851 H 0.40292 0.02896 0.67244 0.0
O852 O 0.42844 0.09425 0.80426 0.0
O853 O 0.38442 0.07304 0.75137 0.0
O854 O 0.42699 0.09533 0.70203 0.0
O855 O 0.41474 0.05289 0.75045 0.0
H856 H 0.40685 0.09147 0.87659 0.0
H857 H 0.46077 0.13499 0.79513 0.0
H858 H 0.41593 0.12241 0.92652 0.0
H859 H 0.46874 0.16525 0.84627 0.0
H860 H 0.31543 0.01537 0.73851 0.0
H861 H 0.36456 0.08773 0.80282 0.0
H862 H 0.355 0.03419 0.72108 0.0
H863 H 0.32482 0.06803 0.81866 0.0
H864 H 0.39768 0.15603 0.81833 0.0
H865 H 0.42873 0.17158 0.69251 0.0
H866 H 0.41146 0.03767 0.93114 0.0
H867 H 0.34425 0.01729 0.90159 0.0
H868 H 0.43223 0.07754 0.63063 0.0
H869 H 0.4632 0.13287 0.7167 0.0
H870 H 0.46621 0.09356 0.58665 0.0
H871 H 0.4967 0.14786 0.67137 0.0
H872 H 0.44213 0.0439 0.79192 0.0
H873 H 0.37553 0.0175 0.74962 0.0
H874 H 0.43195 0.0079 0.82463 0.0
H875 H 0.36647 0.98203 0.78333 0.0
H876 H 0.51293 0.11317 0.80819 0.0
H877 H 0.49519 0.07147 0.69532 0.0
H878 H 0.36 0.04711 0.57152 0.0
H879 H 0.38951 0.00819 0.604 0.0
Li880 Li 0.33949 0.40193 0.28869 0.0
Li881 Li 0.31716 0.41262 0.25025 0.0
Li882 Li 0.34079 0.40109 0.20897 0.0
Li883 Li 0.35602 0.43646 0.2504 0.0
C884 C 0.30719 0.36263 0.26333 0.0
N885 N 0.29089 0.32066 0.29479 0.0
C886 C 0.29505 0.35623 0.3018 0.0
C887 C 0.31097 0.34765 0.24077 0.0
C888 C 0.28699 0.33496 0.31722 0.0
C889 C 0.3026 0.32651 0.25722 0.0
C890 C 0.32223 0.43192 0.32328 0.0
C891 C 0.30535 0.45392 0.33521 0.0
N892 N 0.29238 0.43963 0.36629 0.0
C893 C 0.30875 0.41747 0.3554 0.0
C894 C 0.32057 0.45034 0.31317 0.0
C895 C 0.29378 0.42166 0.37679 0.0
C896 C 0.34936 0.40215 0.37695 0.0
N897 N 0.34385 0.38935 0.34085 0.0
C898 C 0.34798 0.36227 0.37986 0.0
C899 C 0.34341 0.36984 0.34151 0.0
C900 C 0.35351 0.37516 0.41747 0.0
C901 C 0.35419 0.39531 0.41583 0.0
H902 H 0.35046 0.41795 0.37534 0.0
H903 H 0.34001 0.36034 0.31213 0.0
C904 C 0.28692 0.42564 0.22196 0.0
N905 N 0.28942 0.41159 0.2484 0.0
C906 C 0.26722 0.42582 0.22144 0.0
C907 C 0.25287 0.3969 0.27493 0.0
C908 C 0.2728 0.39719 0.27423 0.0
C909 C 0.25001 0.4114 0.24838 0.0
H910 H 0.30026 0.4368 0.20146 0.0
H911 H 0.27509 0.38615 0.29482 0.0
C912 C 0.38027 0.41151 0.27236 0.0
N913 N 0.40949 0.40507 0.32077 0.0
C914 C 0.39351 0.42698 0.30328 0.0
C915 C 0.38188 0.39277 0.26602 0.0
C916 C 0.40817 0.42341 0.32747 0.0
C917 C 0.39676 0.38981 0.29085 0.0
C918 C 0.34692 0.44466 0.17268 0.0
C919 C 0.35842 0.44409 0.1362 0.0
C920 C 0.34701 0.46397 0.18311 0.0
C921 C 0.37001 0.46293 0.11105 0.0
C922 C 0.35885 0.48249 0.15721 0.0
N923 N 0.37002 0.48159 0.12203 0.0
C924 C 0.32767 0.37758 0.12942 0.0
C925 C 0.36488 0.3917 0.14857 0.0
C926 C 0.33097 0.36998 0.08977 0.0
N927 N 0.34457 0.38829 0.15768 0.0
C928 C 0.36887 0.38431 0.10947 0.0
C929 C 0.35184 0.37352 0.07946 0.0
H930 H 0.31177 0.37541 0.13731 0.0
H931 H 0.37812 0.40072 0.17114 0.0
C932 C 0.382 0.48025 0.28086 0.0
N933 N 0.38038 0.46544 0.2507 0.0
C934 C 0.4006 0.50101 0.28231 0.0
C935 C 0.41546 0.49083 0.2217 0.0
C936 C 0.39664 0.47027 0.22153 0.0
C937 C 0.41756 0.50634 0.25256 0.0
H938 H 0.3691 0.4758 0.30437 0.0
H939 H 0.3951 0.45799 0.19856 0.0
O940 O 0.31508 0.38331 0.24742 0.0
O941 O 0.3366 0.4278 0.30116 0.0
O942 O 0.36555 0.41453 0.24892 0.0
O943 O 0.33591 0.42653 0.19836 0.0
H944 H 0.29222 0.36766 0.32004 0.0
H945 H 0.32034 0.35229 0.21099 0.0
H946 H 0.27771 0.32984 0.34711 0.0
H947 H 0.30544 0.31477 0.24016 0.0
H948 H 0.30378 0.46802 0.32747 0.0
H949 H 0.30958 0.40298 0.36331 0.0
H950 H 0.33069 0.46159 0.28814 0.0
H951 H 0.28317 0.41055 0.40153 0.0
H952 H 0.34762 0.34676 0.38004 0.0
H953 H 0.35868 0.40573 0.44422 0.0
H954 H 0.26544 0.43715 0.20047 0.0
H955 H 0.23986 0.38556 0.29603 0.0
H956 H 0.39232 0.44149 0.30881 0.0
H957 H 0.37154 0.38051 0.24259 0.0
H958 H 0.41846 0.43519 0.35164 0.0
H959 H 0.39811 0.37533 0.28647 0.0
H960 H 0.35853 0.42932 0.12749 0.0
H961 H 0.33834 0.46479 0.21134 0.0
H962 H 0.37906 0.46273 0.08286 0.0
H963 H 0.35924 0.49759 0.16519 0.0
H964 H 0.31756 0.36184 0.06704 0.0
H965 H 0.38519 0.38743 0.10218 0.0
H966 H 0.40194 0.51265 0.30676 0.0
H967 H 0.42842 0.49449 0.19862 0.0
Li968 Li 0.90733 0.31493 0.75162 0.0
Li969 Li 0.94067 0.33708 0.78965 0.0
Li970 Li 0.9232 0.35399 0.75053 0.0
Li971 Li 0.9427 0.33779 0.71002 0.0
C972 C 0.89395 0.32131 0.82516 0.0
N973 N 0.8568 0.29294 0.87098 0.0
C974 C 0.89513 0.30855 0.85861 0.0
C975 C 0.87391 0.31975 0.81521 0.0
C976 C 0.87616 0.29431 0.8814 0.0
C977 C 0.8553 0.30526 0.83865 0.0
C978 C 0.94613 0.30332 0.76485 0.0
C979 C 0.97648 0.29684 0.75855 0.0
N980 N 0.97001 0.28489 0.7958 0.0
C981 C 0.93975 0.29092 0.803 0.0
C982 C 0.96462 0.30629 0.74236 0.0
C983 C 0.95206 0.28177 0.81815 0.0
C984 C 0.86449 0.28486 0.7214 0.0
N985 N 0.88023 0.28755 0.75032 0.0
C986 C 0.8571 0.25167 0.77897 0.0
C987 C 0.87697 0.27135 0.77851 0.0
C988 C 0.84061 0.24863 0.74977 0.0
C989 C 0.84441 0.26538 0.72055 0.0
H990 H 0.8675 0.29784 0.69901 0.0
H991 H 0.88967 0.27376 0.80104 0.0
C992 C 0.95143 0.34924 0.87652 0.0
N993 N 0.95744 0.34137 0.84203 0.0
C994 C 0.96303 0.35415 0.9155 0.0
C995 C 0.98697 0.34285 0.88309 0.0
C996 C 0.97514 0.33855 0.8444 0.0
C997 C 0.98094 0.35085 0.91904 0.0
H998 H 0.9378 0.35207 0.8735 0.0
H999 H 0.98043 0.33342 0.81615 0.0
C1000 C 0.90535 0.34407 0.6728 0.0
N1001 N 0.89113 0.36627 0.62043 0.0
C1002 C 0.91711 0.35488 0.63554 0.0
C1003 C 0.88624 0.34438 0.68318 0.0
C1004 C 0.90967 0.36603 0.60951 0.0
C1005 C 0.87937 0.35577 0.65639 0.0
C1006 C 0.97252 0.37717 0.77252 0.0
C1007 C 0.97126 0.39159 0.80188 0.0
C1008 C 0.99215 0.37708 0.76771 0.0
C1009 C 0.98972 0.40568 0.82615 0.0
C1010 C 0.01024 0.39143 0.79257 0.0
N1011 N 0.00866 0.40532 0.82102 0.0
C1012 C 0.90676 0.38105 0.78114 0.0
C1013 C 0.92954 0.39408 0.71886 0.0
C1014 C 0.90484 0.3998 0.78197 0.0
N1015 N 0.91895 0.37857 0.74984 0.0
C1016 C 0.92786 0.41294 0.71817 0.0
C1017 C 0.91553 0.41595 0.75023 0.0
H1018 H 0.89894 0.3687 0.80596 0.0
H1019 H 0.93955 0.3919 0.69504 0.0
C1020 C 0.95277 0.3241 0.63066 0.0
N1021 N 0.95918 0.34105 0.65888 0.0
C1022 C 0.96368 0.32723 0.59106 0.0
C1023 C 0.98768 0.36505 0.61076 0.0
C1024 C 0.97631 0.36122 0.64984 0.0
C1025 C 0.98121 0.34798 0.58077 0.0
H1026 H 0.93888 0.30832 0.63851 0.0
H1027 H 0.98074 0.3745 0.67243 0.0
O1028 O 0.91224 0.33497 0.80176 0.0
O1029 O 0.93419 0.31221 0.7491 0.0
O1030 O 0.91263 0.33344 0.6992 0.0
O1031 O 0.9545 0.36292 0.74921 0.0
H1032 H 0.91044 0.30936 0.86648 0.0
H1033 H 0.87267 0.32942 0.78931 0.0
H1034 H 0.87681 0.28423 0.90717 0.0
H1035 H 0.83965 0.30375 0.83106 0.0
H1036 H 0.99084 0.29904 0.74154 0.0
H1037 H 0.92572 0.28874 0.8212 0.0
H1038 H 0.96983 0.31585 0.71282 0.0
H1039 H 0.94739 0.27227 0.84779 0.0
H1040 H 0.85461 0.23896 0.80182 0.0
H1041 H 0.83196 0.26341 0.69752 0.0
H1042 H 0.95814 0.36053 0.94261 0.0
H1043 H 1.00095 0.34046 0.88472 0.0
H1044 H 0.9319 0.35479 0.62689 0.0
H1045 H 0.87698 0.3362 0.71196 0.0
H1046 H 0.91866 0.37454 0.5807 0.0
H1047 H 0.86472 0.35631 0.66427 0.0
H1048 H 0.95613 0.39174 0.80618 0.0
H1049 H 0.9933 0.36583 0.74544 0.0
H1050 H 0.98897 0.41687 0.84915 0.0
H1051 H 0.02551 0.39146 0.78941 0.0
H1052 H 0.89538 0.40185 0.80733 0.0
H1053 H 0.93647 0.42528 0.69357 0.0
H1054 H 0.95823 0.3138 0.56831 0.0
H1055 H 1.00104 0.38128 0.60348 0.0
C1056 C 0.99615 0.34737 0.03665 0.0
C1057 C 0.01598 0.3676 0.04056 0.0
C1058 C 0.01387 0.37594 0.96371 0.0
C1059 C 0.99352 0.35617 0.96036 0.0
N1060 N 0.96487 0.32299 0.99209 0.0
N1061 N 0.04425 0.40118 0.0093 0.0
C1062 C 0.98461 0.34179 0.99641 0.0
C1063 C 0.02505 0.38185 1.00435 0.0
N1064 N 0.98852 0.3335 0.07152 0.0
N1065 N 0.02242 0.38897 0.92784 0.0
H1066 H 0.05353 0.4054 0.0377 0.0
H1067 H 0.05104 0.41347 0.98605 0.0
H1068 H 0.01419 0.38573 0.89826 0.0
H1069 H 0.03791 0.40269 0.92625 0.0
H1070 H 0.97534 0.31764 0.07047 0.0
H1071 H 0.99595 0.3375 0.102 0.0
H1072 H 0.95611 0.31268 0.0176 0.0
H1073 H 0.95664 0.31777 0.96252 0.0
C1074 C 0.64481 0.98358 0.49819 0.0
C1075 C 0.63945 0.99239 0.46184 0.0
C1076 C 0.64422 0.02346 0.50586 0.0
C1077 C 0.65055 0.01517 0.54162 0.0
N1078 N 0.65982 0.98927 0.57118 0.0
N1079 N 0.63654 0.02176 0.42863 0.0
C1080 C 0.65168 0.99575 0.53759 0.0
C1081 C 0.63995 0.01269 0.46495 0.0
N1082 N 0.64294 0.96339 0.49518 0.0
N1083 N 0.6416 0.04123 0.5115 0.0
H1084 H 0.63243 0.01394 0.39855 0.0
H1085 H 0.63915 0.03761 0.42735 0.0
H1086 H 0.64502 0.04981 0.5407 0.0
H1087 H 0.63467 0.0467 0.48841 0.0
H1088 H 0.64402 0.95482 0.52166 0.0
H1089 H 0.63902 0.95448 0.4663 0.0
H1090 H 0.66332 0.97663 0.56897 0.0
H1091 H 0.66459 0.99756 0.60077 0.0
C1092 C 0.65181 0.63988 0.04603 0.0
C1093 C 0.63845 0.64963 0.04603 0.0
C1094 C 0.63944 0.65079 0.96637 0.0
C1095 C 0.6504 0.63856 0.96639 0.0
N1096 N 0.66441 0.61869 0.00612 0.0
N1097 N 0.61683 0.66161 0.00635 0.0
C1098 C 0.65599 0.63243 0.00621 0.0
C1099 C 0.6316 0.65445 0.00621 0.0
N1100 N 0.66088 0.63817 0.08402 0.0
N1101 N 0.63694 0.65929 0.92832 0.0
H1102 H 0.61057 0.66439 0.03479 0.0
H1103 H 0.60937 0.66302 0.97832 0.0
H1104 H 0.64259 0.65702 0.89855 0.0
H1105 H 0.63111 0.67022 0.92682 0.0
H1106 H 0.67255 0.63329 0.08547 0.0
H1107 H 0.65825 0.64356 0.11377 0.0
H1108 H 0.66647 0.61169 0.03418 0.0
H1109 H 0.66765 0.61279 0.97769 0.0
C1110 C 0.02607 0.65397 0.50366 0.0
C1111 C 0.01383 0.648 0.46445 0.0
C1112 C 0.9798 0.6288 0.50624 0.0
C1113 C 0.99194 0.6365 0.54539 0.0
N1114 N 0.02624 0.65995 0.5812 0.0
N1115 N 0.97899 0.63343 0.42838 0.0
C1116 C 0.01499 0.65015 0.54405 0.0
C1117 C 0.99065 0.63649 0.46573 0.0
N1118 N 0.04821 0.66245 0.50246 0.0
N1119 N 0.95807 0.61344 0.50764 0.0
H1120 H 0.98637 0.63903 0.39815 0.0
H1121 H 0.96215 0.62719 0.42795 0.0
H1122 H 0.94955 0.60712 0.5366 0.0
H1123 H 0.94896 0.6055 0.48013 0.0
H1124 H 0.05766 0.66489 0.53012 0.0
H1125 H 0.05692 0.66519 0.4736 0.0
H1126 H 0.04273 0.67186 0.58145 0.0
H1127 H 0.01866 0.6577 0.61135 0.0
C1128 C 0.37044 0.02519 1.00196 0.0
C1129 C 0.37025 0.014 0.9635 0.0
C1130 C 0.36028 0.98084 0.00571 0.0
C1131 C 0.35926 0.99165 0.04378 0.0
N1132 N 0.36013 0.02277 0.0779 0.0
N1133 N 0.3623 0.98064 0.92697 0.0
C1134 C 0.36344 0.01348 0.04184 0.0
C1135 C 0.36432 0.99162 0.96486 0.0
N1136 N 0.37777 0.04714 1.00045 0.0
N1137 N 0.35818 0.96055 0.00893 0.0
H1138 H 0.36586 0.98818 0.89658 0.0
H1139 H 0.35565 0.96378 0.92516 0.0
H1140 H 0.355 0.95207 0.03821 0.0
H1141 H 0.36114 0.95273 0.98338 0.0
H1142 H 0.38081 0.05682 0.02794 0.0
H1143 H 0.3822 0.05609 0.9716 0.0
H1144 H 0.36058 0.03773 0.07764 0.0
H1145 H 0.35527 0.01476 0.10776 0.0
C1146 C 0.37943 0.36847 0.46218 0.0
C1147 C 0.35916 0.36797 0.45847 0.0
C1148 C 0.35155 0.35813 0.53549 0.0
C1149 C 0.37111 0.35717 0.53838 0.0
N1150 N 0.40137 0.35692 0.50261 0.0
N1151 N 0.32396 0.35822 0.48873 0.0
C1152 C 0.38437 0.36098 0.5011 0.0
C1153 C 0.34461 0.36155 0.49432 0.0
N1154 N 0.39438 0.37693 0.42923 0.0
N1155 N 0.34007 0.35666 0.57232 0.0
H1156 H 0.31829 0.36048 0.45896 0.0
H1157 H 0.31184 0.35136 0.51241 0.0
H1158 H 0.34462 0.35416 0.60309 0.0
H1159 H 0.32708 0.35969 0.57294 0.0
H1160 H 0.41036 0.38001 0.43203 0.0
H1161 H 0.39142 0.38264 0.40023 0.0
H1162 H 0.4102 0.3572 0.47528 0.0
H1163 H 0.4054 0.35128 0.53048 0.0
C1164 C 0.98082 0.63185 0.00654 0.0
C1165 C 0.99176 0.63592 0.966 0.0
C1166 C 0.0271 0.6548 1.00353 0.0
C1167 C 0.01614 0.64829 0.04411 0.0
N1168 N 0.98255 0.62726 0.08413 0.0
N1169 N 0.02531 0.64798 0.92611 0.0
C1170 C 0.99297 0.63594 0.04565 0.0
C1171 C 0.01493 0.64657 0.96448 0.0
N1172 N 0.9589 0.6246 0.00771 0.0
N1173 N 0.04906 0.66929 1.00224 0.0
H1174 H 0.01701 0.64187 0.89686 0.0
H1175 H 0.04197 0.65343 0.92398 0.0
H1176 H 0.05847 0.67589 0.03017 0.0
H1177 H 0.05751 0.67633 0.97359 0.0
H1178 H 0.95048 0.62347 0.03627 0.0
H1179 H 0.9495 0.62171 0.97973 0.0
H1180 H 0.96586 0.61617 0.08634 0.0
H1181 H 0.99083 0.62954 0.11345 0.0
C1182 C 0.34214 0.98175 0.4986 0.0
C1183 C 0.35567 0.99092 0.46155 0.0
C1184 C 0.38069 0.02349 0.50356 0.0
C1185 C 0.36679 0.01462 0.54023 0.0
N1186 N 0.3328 0.98727 0.57168 0.0
N1187 N 0.38577 0.02159 0.42597 0.0
C1188 C 0.34702 0.99432 0.5374 0.0
C1189 C 0.37432 0.01217 0.4632 0.0
N1190 N 0.32499 0.96078 0.49695 0.0
N1191 N 0.40036 0.04235 0.50782 0.0
H1192 H 0.38193 0.01356 0.39609 0.0
H1193 H 0.39806 0.03787 0.42379 0.0
H1194 H 0.4053 0.05145 0.53646 0.0
H1195 H 0.41243 0.04834 0.48401 0.0
H1196 H 0.31601 0.95213 0.52403 0.0
H1197 H 0.32045 0.9514 0.46865 0.0
H1198 H 0.31711 0.97378 0.57038 0.0
H1199 H 0.33607 0.99592 0.6008 0.0
C1200 C 0.37591 0.37779 0.96694 0.0
C1201 C 0.36754 0.35541 0.95659 0.0
C1202 C 0.34907 0.34473 0.02729 0.0
C1203 C 0.3563 0.36703 0.03639 0.0
N1204 N 0.37267 0.40432 0.01152 0.0
N1205 N 0.34302 0.31741 0.97282 0.0
C1206 C 0.36854 0.38343 0.00514 0.0
C1207 C 0.35315 0.33881 0.98559 0.0
N1208 N 0.39159 0.39369 0.94125 0.0
N1209 N 0.33903 0.32933 0.05903 0.0
H1210 H 0.34565 0.31252 0.9425 0.0
H1211 H 0.33065 0.30472 0.9906 0.0
H1212 H 0.33564 0.33303 0.08985 0.0
H1213 H 0.33557 0.31323 0.05602 0.0
H1214 H 0.40009 0.41016 0.94976 0.0
H1215 H 0.39748 0.39027 0.91302 0.0
H1216 H 0.37949 0.41646 0.98786 0.0
H1217 H 0.36747 0.40907 0.03904 0.0
C1218 C 0.98776 0.36438 0.50624 0.0
C1219 C 0.99209 0.35233 0.53766 0.0
C1220 C 0.01744 0.34945 0.48719 0.0
C1221 C 0.01501 0.36364 0.45797 0.0
N1222 N 1.00029 0.38723 0.44204 0.0
N1223 N 0.01275 0.33537 0.56069 0.0
C1224 C 1.00075 0.37176 0.46803 0.0
C1225 C 0.00734 0.3453 0.52881 0.0
N1226 N 0.97088 0.36835 0.5125 0.0
N1227 N 0.029 0.33959 0.47471 0.0
H1228 H 0.00554 0.33187 0.5914 0.0
H1229 H 0.02552 0.33207 0.55792 0.0
H1230 H 0.03661 0.3423 0.44447 0.0
H1231 H 0.02952 0.32735 0.49265 0.0
H1232 H 0.96542 0.375 0.48874 0.0
H1233 H 0.96097 0.36318 0.54009 0.0
H1234 H 0.99214 0.3956 0.4503 0.0
H1235 H 0.00955 0.3931 0.41377 0.0
C1236 C 0.63261 0.99497 0.96215 0.0
C1237 C 0.65224 0.01541 0.95936 0.0
C1238 C 0.66161 0.01129 0.03423 0.0
C1239 C 0.64099 0.99197 0.03837 0.0
N1240 N 0.60578 0.96628 0.00845 0.0
N1241 N 0.68467 0.04426 0.99299 0.0
C1242 C 0.62622 0.98397 1.00282 0.0
C1243 C 0.66661 0.02388 0.99544 0.0
N1244 N 0.62027 0.98596 0.92567 0.0
N1245 N 0.67652 0.01734 0.06718 0.0
H1246 H 0.68918 0.05366 0.96472 0.0
H1247 H 0.69446 0.05249 0.01955 0.0
H1248 H 0.67324 0.00865 0.09625 0.0
H1249 H 0.69266 0.02992 0.06462 0.0
H1250 H 0.60705 0.97011 0.9243 0.0
H1251 H 0.62427 0.99375 0.89553 0.0
H1252 H 0.59334 0.96116 0.98554 0.0
H1253 H 0.60068 0.95747 0.03742 0.0
C1254 C 0.62537 0.63146 0.48625 0.0
C1255 C 0.63978 0.65181 0.46636 0.0
C1256 C 0.66517 0.66162 0.52778 0.0
C1257 C 0.65153 0.64063 0.54602 0.0
N1258 N 0.62038 0.60428 0.54015 0.0
N1259 N 0.67455 0.68517 0.46448 0.0
C1260 C 0.63209 0.62517 0.52455 0.0
C1261 C 0.66002 0.66662 0.48612 0.0
N1262 N 0.60499 0.61841 0.46916 0.0
N1263 N 0.68269 0.67693 0.55087 0.0
H1264 H 0.67115 0.68949 0.43427 0.0
H1265 H 0.69053 0.69547 0.47479 0.0
H1266 H 0.68712 0.6737 0.58113 0.0
H1267 H 0.69192 0.69326 0.54169 0.0
H1268 H 0.5928 0.60461 0.48476 0.0
H1269 H 0.59956 0.62227 0.44077 0.0
H1270 H 0.6075 0.59157 0.52339 0.0
H1271 H 0.62458 0.59912 0.56846 0.0
C1272 C 0.11275 0.5671 0.26187 0.0
C1273 C 0.0927 0.56697 0.25702 0.0
C1274 C 0.07274 0.52693 0.25528 0.0
C1275 C 0.09292 0.52711 0.2563 0.0
N1276 N 0.1323 0.5472 0.25374 0.0
N1277 N 0.05408 0.54722 0.24115 0.0
C1278 C 0.11301 0.54717 0.25769 0.0
C1279 C 0.0728 0.547 0.25146 0.0
N1280 N 0.13141 0.58616 0.2718 0.0
N1281 N 0.05351 0.50761 0.25946 0.0
H1282 H 0.05346 0.56161 0.23791 0.0
H1283 H 0.03963 0.53331 0.23202 0.0
H1284 H 0.05275 0.49254 0.26247 0.0
H1285 H 0.03844 0.50668 0.26378 0.0
H1286 H 0.14603 0.58692 0.28041 0.0
H1287 H 0.13185 0.60109 0.2749 0.0
H1288 H 0.14737 0.56136 0.24981 0.0
H1289 H 0.13311 0.5329 0.25079 0.0
C1290 C 0.5465 0.11078 0.73118 0.0
C1291 C 0.52827 0.09364 0.75291 0.0
C1292 C 0.55072 0.07804 0.77687 0.0
C1293 C 0.56842 0.09409 0.75209 0.0
N1294 N 0.58314 0.12458 0.70258 0.0
N1295 N 0.51195 0.05986 0.79328 0.0
C1296 C 0.56634 0.11023 0.72853 0.0
C1297 C 0.5301 0.07698 0.775 0.0
N1298 N 0.54486 0.1277 0.71361 0.0
N1299 N 0.55383 0.06412 0.80294 0.0
H1300 H 0.49676 0.05897 0.79422 0.0
H1301 H 0.51149 0.04585 0.8052 0.0
H1302 H 0.56858 0.06412 0.80447 0.0
H1303 H 0.54241 0.05364 0.82546 0.0
H1304 H 0.5581 0.14189 0.70146 0.0
H1305 H 0.53037 0.12825 0.71374 0.0
H1306 H 0.58192 0.13518 0.68077 0.0
H1307 H 0.5981 0.125 0.70077 0.0
C1308 C 0.47379 0.55158 0.28818 0.0
C1309 C 0.4777 0.56793 0.25699 0.0
C1310 C 0.44111 0.54486 0.22628 0.0
C1311 C 0.43801 0.5278 0.2549 0.0
N1312 N 0.45202 0.51355 0.30958 0.0
N1313 N 0.46648 0.57982 0.19356 0.0
C1314 C 0.4545 0.5308 0.28504 0.0
C1315 C 0.4617 0.56452 0.2253 0.0
N1316 N 0.48837 0.5561 0.32128 0.0
N1317 N 0.42417 0.54239 0.20072 0.0
H1318 H 0.48119 0.59463 0.19251 0.0
H1319 H 0.45658 0.57732 0.16666 0.0
H1320 H 0.40899 0.52808 0.20015 0.0
H1321 H 0.42453 0.55498 0.18249 0.0
H1322 H 0.48538 0.54581 0.34775 0.0
H1323 H 0.50289 0.571 0.32416 0.0
H1324 H 0.46444 0.51392 0.32841 0.0
H1325 H 0.43796 0.49818 0.30878 0.0
C1326 C 0.89716 0.45764 0.73046 0.0
C1327 C 0.91383 0.47604 0.7527 0.0
C1328 C 0.9319 0.45522 0.77225 0.0
C1329 C 0.91471 0.43653 0.75167 0.0
N1330 N 0.8799 0.41874 0.71508 0.0
N1331 N 0.94584 0.49229 0.79841 0.0
C1332 C 0.897 0.4374 0.73187 0.0
C1333 C 0.93086 0.4748 0.77467 0.0
N1334 N 0.88175 0.45971 0.70731 0.0
N1335 N 0.94945 0.45432 0.78863 0.0
H1336 H 0.94629 0.50727 0.79928 0.0
H1337 H 0.95711 0.49174 0.81938 0.0
H1338 H 0.95034 0.44002 0.78934 0.0
H1339 H 0.96376 0.46791 0.79934 0.0
H1340 H 0.87057 0.4478 0.68639 0.0
H1341 H 0.88085 0.47401 0.70702 0.0
H1342 H 0.86536 0.41753 0.7044 0.0
H1343 H 0.87965 0.40385 0.71409 0.0
C1344 C 0.45894 0.93002 0.27896 0.0
C1345 C 0.44105 0.91404 0.25446 0.0
C1346 C 0.46266 0.89714 0.23261 0.0
C1347 C 0.48103 0.91411 0.25432 0.0
N1348 N 0.49775 0.94783 0.29488 0.0
N1349 N 0.42591 0.88361 0.20478 0.0
C1350 C 0.47946 0.93086 0.27668 0.0
C1351 C 0.44289 0.89786 0.23049 0.0
N1352 N 0.45611 0.94407 0.30514 0.0
N1353 N 0.46408 0.88019 0.21458 0.0
H1354 H 0.411 0.8833 0.20338 0.0
H1355 H 0.42694 0.87299 0.18272 0.0
H1356 H 0.47851 0.87951 0.21428 0.0
H1357 H 0.45074 0.86608 0.20243 0.0
H1358 H 0.46766 0.95448 0.32754 0.0
H1359 H 0.44148 0.94431 0.30678 0.0
H1360 H 0.49841 0.9619 0.30704 0.0
H1361 H 0.51287 0.94855 0.29555 0.0
C1362 C 0.55143 0.47883 0.73916 0.0
C1363 C 0.5708 0.47958 0.75411 0.0
C1364 C 0.55059 0.43986 0.76481 0.0
C1365 C 0.53085 0.43954 0.75444 0.0
N1366 N 0.5119 0.45945 0.74032 0.0
N1367 N 0.58827 0.46153 0.78826 0.0
C1368 C 0.53109 0.45925 0.74399 0.0
C1369 C 0.57025 0.46028 0.76891 0.0
N1370 N 0.55253 0.49662 0.71905 0.0
N1371 N 0.55069 0.42066 0.76937 0.0
H1372 H 0.60291 0.47622 0.79221 0.0
H1373 H 0.58811 0.44835 0.8038 0.0
H1374 H 0.53665 0.40538 0.7662 0.0
H1375 H 0.56496 0.41986 0.77243 0.0
H1376 H 0.53923 0.49623 0.7035 0.0
H1377 H 0.56717 0.5112 0.71417 0.0
H1378 H 0.51118 0.47377 0.7373 0.0
H1379 H 0.49661 0.44554 0.74452 0.0
C1380 C 0.20829 0.42998 0.26587 0.0
C1381 C 0.18897 0.41153 0.25023 0.0
C1382 C 0.21009 0.39394 0.22968 0.0
C1383 C 0.22899 0.41148 0.24891 0.0
N1384 N 0.24538 0.44442 0.29199 0.0
N1385 N 0.17057 0.37435 0.22417 0.0
C1386 C 0.2279 0.42904 0.26889 0.0
C1387 C 0.18961 0.39304 0.23405 0.0
N1388 N 0.20808 0.44868 0.2765 0.0
N1389 N 0.21184 0.3785 0.20601 0.0
H1390 H 0.15524 0.37303 0.22708 0.0
H1391 H 0.16978 0.35959 0.21676 0.0
H1392 H 0.22657 0.37864 0.20194 0.0
H1393 H 0.19916 0.36668 0.18729 0.0
H1394 H 0.22215 0.46341 0.28354 0.0
H1395 H 0.19405 0.45002 0.27468 0.0
H1396 H 0.24477 0.45624 0.31121 0.0
H1397 H 0.26001 0.44425 0.29505 0.0
C1398 C 0.80257 0.22508 0.77871 0.0
C1399 C 0.81937 0.22781 0.74967 0.0
C1400 C 0.79532 0.19148 0.71868 0.0
C1401 C 0.77908 0.18815 0.74973 0.0
N1402 N 0.76782 0.20023 0.81278 0.0
N1403 N 0.8332 0.21297 0.69595 0.0
C1404 C 0.78286 0.20454 0.78074 0.0
C1405 C 0.81614 0.21081 0.7207 0.0
N1406 N 0.80531 0.24232 0.80359 0.0
N1407 N 0.79059 0.17637 0.68655 0.0
H1408 H 0.84853 0.2271 0.69582 0.0
H1409 H 0.83273 0.20029 0.67788 0.0
H1410 H 0.77568 0.16181 0.68455 0.0
H1411 H 0.80074 0.17889 0.66006 0.0
H1412 H 0.79289 0.24226 0.82187 0.0
H1413 H 0.81971 0.25743 0.80366 0.0
H1414 H 0.77056 0.21047 0.83921 0.0
H1415 H 0.75302 0.18555 0.81472 0.0
C1416 C 0.57886 0.78098 0.27619 0.0
C1417 C 0.59523 0.77896 0.25335 0.0
C1418 C 0.61273 0.81753 0.23148 0.0
C1419 C 0.59564 0.81918 0.25215 0.0
N1420 N 0.56137 0.80249 0.29072 0.0
N1421 N 0.62648 0.79415 0.20571 0.0
C1422 C 0.57839 0.80089 0.27358 0.0
C1423 C 0.61184 0.79694 0.23001 0.0
N1424 N 0.56401 0.76393 0.30105 0.0
N1425 N 0.63004 0.83581 0.21404 0.0
H1426 H 0.62688 0.77958 0.20522 0.0
H1427 H 0.63741 0.80571 0.18392 0.0
H1428 H 0.63084 0.85096 0.21297 0.0
H1429 H 0.64426 0.83644 0.20299 0.0
H1430 H 0.55317 0.765 0.32241 0.0
H1431 H 0.56334 0.74885 0.30245 0.0
H1432 H 0.54706 0.78924 0.30243 0.0
H1433 H 0.56091 0.81703 0.29096 0.0
C1434 C 0.79981 0.5755 0.74992 0.0
C1435 C 0.82008 0.59523 0.75406 0.0
C1436 C 0.8008 0.61589 0.76184 0.0
C1437 C 0.78067 0.59642 0.75422 0.0
N1438 N 0.76104 0.55832 0.73419 0.0
N1439 N 0.84038 0.6346 0.75734 0.0
C1440 C 0.78018 0.57638 0.74635 0.0
C1441 C 0.82072 0.61557 0.7582 0.0
N1442 N 0.79929 0.55588 0.75073 0.0
N1443 N 0.80082 0.63455 0.77384 0.0
H1444 H 0.85531 0.63499 0.75511 0.0
H1445 H 0.84188 0.65001 0.75536 0.0
H1446 H 0.78657 0.63547 0.77639 0.0
H1447 H 0.8147 0.64861 0.78455 0.0
H1448 H 0.7849 0.54087 0.7527 0.0
H1449 H 0.81334 0.55459 0.753 0.0
H1450 H 0.76006 0.5439 0.72336 0.0
H1451 H 0.7463 0.55829 0.73147 0.0
C1452 C 0.22817 0.79783 0.25563 0.0
C1453 C 0.22836 0.81802 0.25409 0.0
C1454 C 0.18833 0.79826 0.25881 0.0
C1455 C 0.18809 0.7781 0.25498 0.0
N1456 N 0.20783 0.75904 0.24035 0.0
N1457 N 0.2083 0.8372 0.24503 0.0
C1458 C 0.20804 0.77797 0.2507 0.0
C1459 C 0.20833 0.81818 0.25309 0.0
N1460 N 0.24707 0.79753 0.26339 0.0
N1461 N 0.16965 0.79846 0.26949 0.0
H1462 H 0.22254 0.85206 0.23948 0.0
H1463 H 0.19405 0.8378 0.23957 0.0
H1464 H 0.15476 0.78425 0.27505 0.0
H1465 H 0.16943 0.81273 0.27704 0.0
H1466 H 0.24746 0.78318 0.26913 0.0
H1467 H 0.26207 0.81168 0.26851 0.0
H1468 H 0.22192 0.75851 0.23258 0.0
H1469 H 0.19345 0.74425 0.23521 0.0
C1470 C 0.3955 0.2089 0.73937 0.0
C1471 C 0.41409 0.22795 0.75552 0.0
C1472 C 0.43251 0.20689 0.77008 0.0
C1473 C 0.41352 0.18765 0.7558 0.0
N1474 N 0.37608 0.16939 0.73147 0.0
N1475 N 0.44932 0.24518 0.79051 0.0
C1476 C 0.39475 0.18839 0.74177 0.0
C1477 C 0.43234 0.22696 0.77211 0.0
N1478 N 0.37878 0.21056 0.72084 0.0
N1479 N 0.45084 0.20598 0.78088 0.0
H1480 H 0.45012 0.26033 0.79115 0.0
H1481 H 0.46203 0.24514 0.80755 0.0
H1482 H 0.45127 0.19143 0.7816 0.0
H1483 H 0.46602 0.21968 0.78676 0.0
H1484 H 0.36593 0.19796 0.70385 0.0
H1485 H 0.37834 0.2251 0.72012 0.0
H1486 H 0.36106 0.16833 0.72586 0.0
H1487 H 0.37519 0.15419 0.73109 0.0
loop_
_geom_bond_atom_site_label_1
_geom_bond_atom_site_label_2
_geom_bond_distance
_geom_bond_site_symmetry_2
_ccdc_geom_bond_type
Li0 N17 1.990 . S
Li0 O60 1.956 . S
Li0 O61 1.970 . S
Li0 O62 1.961 . S
Li1 N25 1.990 . S
Li1 O60 1.970 . S
Li1 O61 1.956 . S
Li1 O63 1.961 . S
Li2 N47 1.990 . S
Li2 O60 1.961 . S
Li2 O62 1.956 . S
Li2 O63 1.970 . S
Li3 N53 1.990 . S
Li3 O61 1.961 . S
Li3 O62 1.970 . S
Li3 O63 1.956 . S
C4 C6 1.348 . S
C4 C7 1.356 . S
C4 O60 1.325 . S
N5 C8 1.314 . S
N5 C9 1.279 . S
C6 C4 1.348 . S
C6 C8 1.353 . S
C6 H64 0.929 . S
C7 C4 1.356 . S
C7 C9 1.358 . S
C7 H65 0.930 . S
C8 N5 1.314 . S
C8 C6 1.353 . S
C8 H66 0.930 . S
C9 N5 1.279 . S
C9 C7 1.358 . S
C9 H67 0.930 . S
C10 C13 1.348 . S
C10 C14 1.356 . S
C10 O61 1.325 . S
C11 N12 1.279 . S
C11 C14 1.358 1_655 S
C11 H68 0.930 . S
N12 C11 1.279 . S
N12 C15 1.314 1_655 S
C13 C10 1.348 . S
C13 C15 1.353 . S
C13 H69 0.929 . S
C14 C10 1.356 . S
C14 C11 1.358 1_455 S
C14 H70 0.930 . S
C15 N12 1.314 1_455 S
C15 C13 1.353 . S
C15 H71 0.930 . S
C16 N17 1.314 . S
C16 C21 1.353 . S
C16 H22 0.930 . S
N17 Li0 1.990 . S
N17 C16 1.314 . S
N17 C19 1.279 . S
C18 C19 1.358 . S
C18 C20 1.356 . S
C18 H72 0.930 . S
C19 N17 1.279 . S
C19 C18 1.358 . S
C19 H23 0.930 . S
C20 C18 1.356 . S
C20 C21 1.348 . S
C21 C16 1.353 . S
C21 C20 1.348 . S
C21 H73 0.929 . S
H22 C16 0.930 . S
H23 C19 0.930 . S
C24 N25 1.314 . S
C24 C26 1.353 . S
C24 H30 0.930 . S
N25 Li1 1.990 . S
N25 C24 1.314 . S
N25 C28 1.279 . S
C26 C24 1.353 . S
C26 C29 1.348 . S
C26 H74 0.929 . S
C27 C28 1.358 . S
C27 C29 1.356 . S
C27 H75 0.930 . S
C28 N25 1.279 . S
C28 C27 1.358 . S
C28 H31 0.930 . S
C29 C26 1.348 . S
C29 C27 1.356 . S
H30 C24 0.930 . S
H31 C28 0.930 . S
C32 C34 1.348 . S
C32 C35 1.356 . S
C32 O62 1.325 . S
N33 C36 1.314 . S
N33 C37 1.279 . S
C34 C32 1.348 . S
C34 C36 1.353 . S
C34 H76 0.929 . S
C35 C32 1.356 . S
C35 C37 1.358 . S
C35 H77 0.930 . S
C36 N33 1.314 . S
C36 C34 1.353 . S
C36 H78 0.930 . S
C37 N33 1.279 . S
C37 C35 1.358 . S
C37 H79 0.930 . S
C38 C39 1.348 . S
C38 C40 1.356 . S
C38 O63 1.325 . S
C39 C38 1.348 . S
C39 C41 1.353 . S
C39 H80 0.929 . S
C40 C38 1.356 . S
C40 C42 1.358 . S
C40 H81 0.930 . S
C41 C39 1.353 . S
C41 N43 1.314 . S
C41 H82 0.930 . S
C42 C40 1.358 . S
C42 N43 1.279 . S
C42 H83 0.930 . S
N43 C41 1.314 . S
N43 C42 1.279 . S
C44 C46 1.353 . S
C44 N47 1.314 . S
C44 H50 0.930 . S
C45 N47 1.279 . S
C45 C48 1.358 . S
C45 H51 0.930 . S
C46 C44 1.353 . S
C46 C49 1.348 . S
C46 H84 0.929 . S
N47 Li2 1.990 . S
N47 C44 1.314 . S
N47 C45 1.279 . S
C48 C45 1.358 . S
C48 C49 1.356 . S
C48 H85 0.930 . S
C49 C46 1.348 . S
C49 C48 1.356 . S
H50 C44 0.930 . S
H51 C45 0.930 . S
C52 N53 1.314 . S
C52 C54 1.353 . S
C52 H58 0.930 . S
N53 Li3 1.990 . S
N53 C52 1.314 . S
N53 C56 1.279 . S
C54 C52 1.353 . S
C54 C57 1.348 . S
C54 H86 0.929 . S
C55 C56 1.358 . S
C55 C57 1.356 . S
C55 H87 0.930 . S
C56 N53 1.279 . S
C56 C55 1.358 . S
C56 H59 0.930 . S
C57 C54 1.348 . S
C57 C55 1.356 . S
H58 C52 0.930 . S
H59 C56 0.930 . S
O60 Li0 1.956 . S
O60 Li1 1.970 . S
O60 Li2 1.961 . S
O60 C4 1.325 . S
O61 Li0 1.970 . S
O61 Li1 1.956 . S
O61 Li3 1.961 . S
O61 C10 1.325 . S
O62 Li0 1.961 . S
O62 Li2 1.956 . S
O62 Li3 1.970 . S
O62 C32 1.325 . S
O63 Li1 1.961 . S
O63 Li2 1.970 . S
O63 Li3 1.956 . S
O63 C38 1.325 . S
H64 C6 0.929 . S
H65 C7 0.930 . S
H66 C8 0.930 . S
H67 C9 0.930 . S
H68 C11 0.930 . S
H69 C13 0.929 . S
H70 C14 0.930 . S
H71 C15 0.930 . S
H72 C18 0.930 . S
H73 C21 0.929 . S
H74 C26 0.929 . S
H75 C27 0.930 . S
H76 C34 0.929 . S
H77 C35 0.930 . S
H78 C36 0.930 . S
H79 C37 0.930 . S
H80 C39 0.929 . S
H81 C40 0.930 . S
H82 C41 0.930 . S
H83 C42 0.930 . S
H84 C46 0.929 . S
H85 C48 0.930 . S
H86 C54 0.929 . S
H87 C55 0.930 . S
Li88 N105 1.990 . S
Li88 O148 1.956 . S
Li88 O149 1.970 . S
Li88 O150 1.961 . S
Li89 N113 1.990 . S
Li89 O148 1.970 . S
Li89 O149 1.956 . S
Li89 O151 1.961 . S
Li90 N135 1.990 . S
Li90 O148 1.961 . S
Li90 O150 1.956 . S
Li90 O151 1.970 . S
Li91 N141 1.990 . S
Li91 O149 1.961 . S
Li91 O150 1.970 . S
Li91 O151 1.956 . S
C92 C94 1.348 . S
C92 C95 1.356 . S
C92 O148 1.325 . S
N93 C96 1.314 . S
N93 C97 1.279 . S
C94 C92 1.348 . S
C94 C96 1.353 . S
C94 H152 0.929 . S
C95 C92 1.356 . S
C95 C97 1.358 . S
C95 H153 0.930 . S
C96 N93 1.314 . S
C96 C94 1.353 . S
C96 H154 0.930 . S
C97 N93 1.279 . S
C97 C95 1.358 . S
C97 H155 0.930 . S
C98 C101 1.348 . S
C98 C102 1.356 . S
C98 O149 1.325 . S
C99 N100 1.279 . S
C99 C102 1.358 1_565 S
C99 H156 0.930 . S
N100 C99 1.279 . S
N100 C103 1.314 1_565 S
C101 C98 1.348 . S
C101 C103 1.353 . S
C101 H157 0.929 . S
C102 C98 1.356 . S
C102 C99 1.358 1_545 S
C102 H158 0.930 . S
C103 N100 1.314 1_545 S
C103 C101 1.353 . S
C103 H159 0.930 . S
C104 N105 1.314 . S
C104 C109 1.353 . S
C104 H110 0.930 . S
N105 Li88 1.990 . S
N105 C104 1.314 . S
N105 C107 1.279 . S
C106 C107 1.358 . S
C106 C108 1.356 . S
C106 H160 0.930 . S
C107 N105 1.279 . S
C107 C106 1.358 . S
C107 H111 0.930 . S
C108 C106 1.356 . S
C108 C109 1.348 . S
C109 C104 1.353 . S
C109 C108 1.348 . S
C109 H161 0.929 . S
H110 C104 0.930 . S
H111 C107 0.930 . S
C112 N113 1.314 . S
C112 C114 1.353 . S
C112 H118 0.930 . S
N113 Li89 1.990 . S
N113 C112 1.314 . S
N113 C116 1.279 . S
C114 C112 1.353 . S
C114 C117 1.348 . S
C114 H162 0.929 . S
C115 C116 1.358 . S
C115 C117 1.356 . S
C115 H163 0.930 . S
C116 N113 1.279 . S
C116 C115 1.358 . S
C116 H119 0.930 . S
C117 C114 1.348 . S
C117 C115 1.356 . S
H118 C112 0.930 . S
H119 C116 0.930 . S
C120 C122 1.348 . S
C120 C123 1.356 . S
C120 O150 1.325 . S
N121 C124 1.314 . S
N121 C125 1.279 . S
C122 C120 1.348 . S
C122 C124 1.353 . S
C122 H164 0.929 . S
C123 C120 1.356 . S
C123 C125 1.358 . S
C123 H165 0.930 . S
C124 N121 1.314 . S
C124 C122 1.353 . S
C124 H166 0.930 . S
C125 N121 1.279 . S
C125 C123 1.358 . S
C125 H167 0.930 . S
C126 C127 1.348 . S
C126 C128 1.356 . S
C126 O151 1.325 . S
C127 C126 1.348 . S
C127 C129 1.353 . S
C127 H168 0.929 . S
C128 C126 1.356 . S
C128 C130 1.358 . S
C128 H169 0.930 . S
C129 C127 1.353 . S
C129 N131 1.314 . S
C129 H170 0.930 . S
C130 C128 1.358 . S
C130 N131 1.279 . S
C130 H171 0.930 . S
N131 C129 1.314 . S
N131 C130 1.279 . S
C132 C134 1.353 . S
C132 N135 1.314 . S
C132 H138 0.930 . S
C133 N135 1.279 . S
C133 C136 1.358 . S
C133 H139 0.930 . S
C134 C132 1.353 . S
C134 C137 1.348 . S
C134 H172 0.929 . S
N135 Li90 1.990 . S
N135 C132 1.314 . S
N135 C133 1.279 . S
C136 C133 1.358 . S
C136 C137 1.356 . S
C136 H173 0.930 . S
C137 C134 1.348 . S
C137 C136 1.356 . S
H138 C132 0.930 . S
H139 C133 0.930 . S
C140 N141 1.314 . S
C140 C142 1.353 . S
C140 H146 0.930 . S
N141 Li91 1.990 . S
N141 C140 1.314 . S
N141 C144 1.279 . S
C142 C140 1.353 . S
C142 C145 1.348 . S
C142 H174 0.929 . S
C143 C144 1.358 . S
C143 C145 1.356 . S
C143 H175 0.930 . S
C144 N141 1.279 . S
C144 C143 1.358 . S
C144 H147 0.930 . S
C145 C142 1.348 . S
C145 C143 1.356 . S
H146 C140 0.930 . S
H147 C144 0.930 . S
O148 Li88 1.956 . S
O148 Li89 1.970 . S
O148 Li90 1.961 . S
O148 C92 1.325 . S
O149 Li88 1.970 . S
O149 Li89 1.956 . S
O149 Li91 1.961 . S
O149 C98 1.325 . S
O150 Li88 1.961 . S
O150 Li90 1.956 . S
O150 Li91 1.970 . S
O150 C120 1.325 . S
O151 Li89 1.961 . S
O151 Li90 1.970 . S
O151 Li91 1.956 . S
O151 C126 1.325 . S
H152 C94 0.929 . S
H153 C95 0.930 . S
H154 C96 0.930 . S
H155 C97 0.930 . S
H156 C99 0.930 . S
H157 C101 0.929 . S
H158 C102 0.930 . S
H159 C103 0.930 . S
H160 C106 0.930 . S
H161 C109 0.929 . S
H162 C114 0.929 . S
H163 C115 0.930 . S
H164 C122 0.929 . S
H165 C123 0.930 . S
H166 C124 0.930 . S
H167 C125 0.930 . S
H168 C127 0.929 . S
H169 C128 0.930 . S
H170 C129 0.930 . S
H171 C130 0.930 . S
H172 C134 0.929 . S
H173 C136 0.930 . S
H174 C142 0.929 . S
H175 C143 0.930 . S
Li176 N193 1.990 . S
Li176 O236 1.956 . S
Li176 O237 1.970 . S
Li176 O238 1.961 . S
Li177 N201 1.990 . S
Li177 O236 1.970 . S
Li177 O237 1.956 . S
Li177 O239 1.961 . S
Li178 N223 1.990 . S
Li178 O236 1.961 . S
Li178 O238 1.956 . S
Li178 O239 1.970 . S
Li179 N229 1.990 . S
Li179 O237 1.961 . S
Li179 O238 1.970 . S
Li179 O239 1.956 . S
C180 C182 1.348 . S
C180 C183 1.356 . S
C180 O236 1.325 . S
N181 C184 1.314 . S
N181 C185 1.279 . S
C182 C180 1.348 . S
C182 C184 1.353 . S
C182 H240 0.929 . S
C183 C180 1.356 . S
C183 C185 1.358 . S
C183 H241 0.930 . S
C184 N181 1.314 . S
C184 C182 1.353 . S
C184 H242 0.930 . S
C185 N181 1.279 . S
C185 C183 1.358 . S
C185 H243 0.930 . S
C186 C189 1.348 . S
C186 C190 1.356 . S
C186 O237 1.325 . S
C187 N188 1.279 . S
C187 C190 1.358 . S
C187 H244 0.930 . S
N188 C187 1.279 . S
N188 C191 1.314 . S
C189 C186 1.348 . S
C189 C191 1.353 . S
C189 H245 0.929 . S
C190 C186 1.356 . S
C190 C187 1.358 . S
C190 H246 0.930 . S
C191 N188 1.314 . S
C191 C189 1.353 . S
C191 H247 0.930 . S
C192 N193 1.314 . S
C192 C197 1.353 . S
C192 H198 0.930 . S
N193 Li176 1.990 . S
N193 C192 1.314 . S
N193 C195 1.279 . S
C194 C195 1.358 . S
C194 C196 1.356 . S
C194 H248 0.930 . S
C195 N193 1.279 . S
C195 C194 1.358 . S
C195 H199 0.930 . S
C196 C194 1.356 . S
C196 C197 1.348 . S
C197 C192 1.353 . S
C197 C196 1.348 . S
C197 H249 0.929 . S
H198 C192 0.930 . S
H199 C195 0.930 . S
C200 N201 1.314 . S
C200 C202 1.353 . S
C200 H206 0.930 . S
N201 Li177 1.990 . S
N201 C200 1.314 . S
N201 C204 1.279 . S
C202 C200 1.353 . S
C202 C205 1.348 . S
C202 H250 0.929 . S
C203 C204 1.358 . S
C203 C205 1.356 . S
C203 H251 0.930 . S
C204 N201 1.279 . S
C204 C203 1.358 . S
C204 H207 0.930 . S
C205 C202 1.348 . S
C205 C203 1.356 . S
H206 C200 0.930 . S
H207 C204 0.930 . S
C208 C210 1.348 . S
C208 C211 1.356 . S
C208 O238 1.325 . S
N209 C212 1.314 . S
N209 C213 1.279 . S
C210 C208 1.348 . S
C210 C212 1.353 . S
C210 H252 0.929 . S
C211 C208 1.356 . S
C211 C213 1.358 . S
C211 H253 0.930 . S
C212 N209 1.314 . S
C212 C210 1.353 . S
C212 H254 0.930 . S
C213 N209 1.279 . S
C213 C211 1.358 . S
C213 H255 0.930 . S
C214 C215 1.348 . S
C214 C216 1.356 . S
C214 O239 1.325 . S
C215 C214 1.348 . S
C215 C217 1.353 . S
C215 H256 0.929 . S
C216 C214 1.356 . S
C216 C218 1.358 . S
C216 H257 0.930 . S
C217 C215 1.353 . S
C217 N219 1.314 . S
C217 H258 0.930 . S
C218 C216 1.358 . S
C218 N219 1.279 . S
C218 H259 0.930 . S
N219 C217 1.314 . S
N219 C218 1.279 . S
C220 C222 1.353 . S
C220 N223 1.314 . S
C220 H226 0.930 . S
C221 N223 1.279 . S
C221 C224 1.358 . S
C221 H227 0.930 . S
C222 C220 1.353 . S
C222 C225 1.348 . S
C222 H260 0.929 . S
N223 Li178 1.990 . S
N223 C220 1.314 . S
N223 C221 1.279 . S
C224 C221 1.358 . S
C224 C225 1.356 . S
C224 H261 0.930 . S
C225 C222 1.348 . S
C225 C224 1.356 . S
H226 C220 0.930 . S
H227 C221 0.930 . S
C228 N229 1.314 . S
C228 C230 1.353 . S
C228 H234 0.930 . S
N229 Li179 1.990 . S
N229 C228 1.314 . S
N229 C232 1.279 . S
C230 C228 1.353 . S
C230 C233 1.348 . S
C230 H262 0.929 . S
C231 C232 1.358 . S
C231 C233 1.356 . S
C231 H263 0.930 . S
C232 N229 1.279 . S
C232 C231 1.358 . S
C232 H235 0.930 . S
C233 C230 1.348 . S
C233 C231 1.356 . S
H234 C228 0.930 . S
H235 C232 0.930 . S
O236 Li176 1.956 . S
O236 Li177 1.970 . S
O236 Li178 1.961 . S
O236 C180 1.325 . S
O237 Li176 1.970 . S
O237 Li177 1.956 . S
O237 Li179 1.961 . S
O237 C186 1.325 . S
O238 Li176 1.961 . S
O238 Li178 1.956 . S
O238 Li179 1.970 . S
O238 C208 1.325 . S
O239 Li177 1.961 . S
O239 Li178 1.970 . S
O239 Li179 1.956 . S
O239 C214 1.325 . S
H240 C182 0.929 . S
H241 C183 0.930 . S
H242 C184 0.930 . S
H243 C185 0.930 . S
H244 C187 0.930 . S
H245 C189 0.929 . S
H246 C190 0.930 . S
H247 C191 0.930 . S
H248 C194 0.930 . S
H249 C197 0.929 . S
H250 C202 0.929 . S
H251 C203 0.930 . S
H252 C210 0.929 . S
H253 C211 0.930 . S
H254 C212 0.930 . S
H255 C213 0.930 . S
H256 C215 0.929 . S
H257 C216 0.930 . S
H258 C217 0.930 . S
H259 C218 0.930 . S
H260 C222 0.929 . S
H261 C224 0.930 . S
H262 C230 0.929 . S
H263 C231 0.930 . S
Li264 N281 1.990 . S
Li264 O324 1.956 . S
Li264 O325 1.970 . S
Li264 O326 1.961 . S
Li265 N289 1.990 . S
Li265 O324 1.970 . S
Li265 O325 1.956 . S
Li265 O327 1.961 . S
Li266 N311 1.990 . S
Li266 O324 1.961 . S
Li266 O326 1.956 . S
Li266 O327 1.970 . S
Li267 N317 1.990 . S
Li267 O325 1.961 . S
Li267 O326 1.970 . S
Li267 O327 1.956 . S
C268 C270 1.348 . S
C268 C271 1.356 . S
C268 O324 1.325 . S
N269 C272 1.314 . S
N269 C273 1.279 . S
C270 C268 1.348 . S
C270 C272 1.353 . S
C270 H328 0.929 . S
C271 C268 1.356 . S
C271 C273 1.358 . S
C271 H329 0.930 . S
C272 N269 1.314 . S
C272 C270 1.353 . S
C272 H330 0.930 . S
C273 N269 1.279 . S
C273 C271 1.358 . S
C273 H331 0.930 . S
C274 C277 1.348 . S
C274 C278 1.356 . S
C274 O325 1.325 . S
C275 N276 1.279 . S
C275 C278 1.358 1_455 S
C275 H332 0.930 . S
N276 C275 1.279 . S
N276 C279 1.314 1_455 S
C277 C274 1.348 . S
C277 C279 1.353 . S
C277 H333 0.929 . S
C278 C274 1.356 . S
C278 C275 1.358 1_655 S
C278 H334 0.930 . S
C279 N276 1.314 1_655 S
C279 C277 1.353 . S
C279 H335 0.930 . S
C280 N281 1.314 . S
C280 C285 1.353 . S
C280 H286 0.930 . S
N281 Li264 1.990 . S
N281 C280 1.314 . S
N281 C283 1.279 . S
C282 C283 1.358 . S
C282 C284 1.356 . S
C282 H336 0.930 . S
C283 N281 1.279 . S
C283 C282 1.358 . S
C283 H287 0.930 . S
C284 C282 1.356 . S
C284 C285 1.348 . S
C285 C280 1.353 . S
C285 C284 1.348 . S
C285 H337 0.929 . S
H286 C280 0.930 . S
H287 C283 0.930 . S
C288 N289 1.314 . S
C288 C290 1.353 . S
C288 H294 0.930 . S
N289 Li265 1.990 . S
N289 C288 1.314 . S
N289 C292 1.279 . S
C290 C288 1.353 . S
C290 C293 1.348 . S
C290 H338 0.929 . S
C291 C292 1.358 . S
C291 C293 1.356 . S
C291 H339 0.930 . S
C292 N289 1.279 . S
C292 C291 1.358 . S
C292 H295 0.930 . S
C293 C290 1.348 . S
C293 C291 1.356 . S
H294 C288 0.930 . S
H295 C292 0.930 . S
C296 C298 1.348 . S
C296 C299 1.356 . S
C296 O326 1.325 . S
N297 C300 1.314 . S
N297 C301 1.279 . S
C298 C296 1.348 . S
C298 C300 1.353 . S
C298 H340 0.929 . S
C299 C296 1.356 . S
C299 C301 1.358 . S
C299 H341 0.930 . S
C300 N297 1.314 . S
C300 C298 1.353 . S
C300 H342 0.930 . S
C301 N297 1.279 . S
C301 C299 1.358 . S
C301 H343 0.930 . S
C302 C303 1.348 . S
C302 C304 1.356 . S
C302 O327 1.325 . S
C303 C302 1.348 . S
C303 C305 1.353 . S
C303 H344 0.929 . S
C304 C302 1.356 . S
C304 C306 1.358 . S
C304 H345 0.930 . S
C305 C303 1.353 . S
C305 N307 1.314 . S
C305 H346 0.930 . S
C306 C304 1.358 . S
C306 N307 1.279 . S
C306 H347 0.930 . S
N307 C305 1.314 . S
N307 C306 1.279 . S
C308 C310 1.353 . S
C308 N311 1.314 . S
C308 H314 0.930 . S
C309 N311 1.279 . S
C309 C312 1.358 . S
C309 H315 0.930 . S
C310 C308 1.353 . S
C310 C313 1.348 . S
C310 H348 0.929 . S
N311 Li266 1.990 . S
N311 C308 1.314 . S
N311 C309 1.279 . S
C312 C309 1.358 . S
C312 C313 1.356 . S
C312 H349 0.930 . S
C313 C310 1.348 . S
C313 C312 1.356 . S
H314 C308 0.930 . S
H315 C309 0.930 . S
C316 N317 1.314 . S
C316 C318 1.353 . S
C316 H322 0.930 . S
N317 Li267 1.990 . S
N317 C316 1.314 . S
N317 C320 1.279 . S
C318 C316 1.353 . S
C318 C321 1.348 . S
C318 H350 0.929 . S
C319 C320 1.358 . S
C319 C321 1.356 . S
C319 H351 0.930 . S
C320 N317 1.279 . S
C320 C319 1.358 . S
C320 H323 0.930 . S
C321 C318 1.348 . S
C321 C319 1.356 . S
H322 C316 0.930 . S
H323 C320 0.930 . S
O324 Li264 1.956 . S
O324 Li265 1.970 . S
O324 Li266 1.961 . S
O324 C268 1.325 . S
O325 Li264 1.970 . S
O325 Li265 1.956 . S
O325 Li267 1.961 . S
O325 C274 1.325 . S
O326 Li264 1.961 . S
O326 Li266 1.956 . S
O326 Li267 1.970 . S
O326 C296 1.325 . S
O327 Li265 1.961 . S
O327 Li266 1.970 . S
O327 Li267 1.956 . S
O327 C302 1.325 . S
H328 C270 0.929 . S
H329 C271 0.930 . S
H330 C272 0.930 . S
H331 C273 0.930 . S
H332 C275 0.930 . S
H333 C277 0.929 . S
H334 C278 0.930 . S
H335 C279 0.930 . S
H336 C282 0.930 . S
H337 C285 0.929 . S
H338 C290 0.929 . S
H339 C291 0.930 . S
H340 C298 0.929 . S
H341 C299 0.930 . S
H342 C300 0.930 . S
H343 C301 0.930 . S
H344 C303 0.929 . S
H345 C304 0.930 . S
H346 C305 0.930 . S
H347 C306 0.930 . S
H348 C310 0.929 . S
H349 C312 0.930 . S
H350 C318 0.929 . S
H351 C319 0.930 . S
Li352 N369 1.990 . S
Li352 O412 1.956 . S
Li352 O413 1.970 . S
Li352 O414 1.961 . S
Li353 N377 1.990 . S
Li353 O412 1.970 . S
Li353 O413 1.956 . S
Li353 O415 1.961 . S
Li354 N399 1.990 . S
Li354 O412 1.961 . S
Li354 O414 1.956 . S
Li354 O415 1.970 . S
Li355 N405 1.990 . S
Li355 O413 1.961 . S
Li355 O414 1.970 . S
Li355 O415 1.956 . S
C356 C358 1.348 . S
C356 C359 1.356 . S
C356 O412 1.325 . S
N357 C360 1.314 1_545 S
N357 C361 1.279 . S
C358 C356 1.348 . S
C358 C360 1.353 . S
C358 H416 0.929 . S
C359 C356 1.356 . S
C359 C361 1.358 1_565 S
C359 H417 0.930 . S
C360 N357 1.314 1_565 S
C360 C358 1.353 . S
C360 H418 0.930 . S
C361 N357 1.279 . S
C361 C359 1.358 1_545 S
C361 H419 0.930 . S
C362 C365 1.348 . S
C362 C366 1.356 . S
C362 O413 1.325 . S
C363 N364 1.279 . S
C363 C366 1.358 . S
C363 H420 0.930 . S
N364 C363 1.279 . S
N364 C367 1.314 . S
C365 C362 1.348 . S
C365 C367 1.353 . S
C365 H421 0.929 . S
C366 C362 1.356 . S
C366 C363 1.358 . S
C366 H422 0.930 . S
C367 N364 1.314 . S
C367 C365 1.353 . S
C367 H423 0.930 . S
C368 N369 1.314 . S
C368 C373 1.353 . S
C368 H374 0.930 . S
N369 Li352 1.990 . S
N369 C368 1.314 . S
N369 C371 1.279 . S
C370 C371 1.358 . S
C370 C372 1.356 . S
C370 H424 0.930 . S
C371 N369 1.279 . S
C371 C370 1.358 . S
C371 H375 0.930 . S
C372 C370 1.356 . S
C372 C373 1.348 . S
C373 C368 1.353 . S
C373 C372 1.348 . S
C373 H425 0.929 . S
H374 C368 0.930 . S
H375 C371 0.930 . S
C376 N377 1.314 . S
C376 C378 1.353 . S
C376 H382 0.930 . S
N377 Li353 1.990 . S
N377 C376 1.314 . S
N377 C380 1.279 . S
C378 C376 1.353 . S
C378 C381 1.348 . S
C378 H426 0.929 . S
C379 C380 1.358 . S
C379 C381 1.356 . S
C379 H427 0.930 . S
C380 N377 1.279 . S
C380 C379 1.358 . S
C380 H383 0.930 . S
C381 C378 1.348 . S
C381 C379 1.356 . S
H382 C376 0.930 . S
H383 C380 0.930 . S
C384 C386 1.348 . S
C384 C387 1.356 . S
C384 O414 1.325 . S
N385 C388 1.314 . S
N385 C389 1.279 . S
C386 C384 1.348 . S
C386 C388 1.353 . S
C386 H428 0.929 . S
C387 C384 1.356 . S
C387 C389 1.358 . S
C387 H429 0.930 . S
C388 N385 1.314 . S
C388 C386 1.353 . S
C388 H430 0.930 . S
C389 N385 1.279 . S
C389 C387 1.358 . S
C389 H431 0.930 . S
C390 C391 1.348 . S
C390 C392 1.356 . S
C390 O415 1.325 . S
C391 C390 1.348 . S
C391 C393 1.353 . S
C391 H432 0.929 . S
C392 C390 1.356 . S
C392 C394 1.358 . S
C392 H433 0.930 . S
C393 C391 1.353 . S
C393 N395 1.314 . S
C393 H434 0.930 . S
C394 C392 1.358 . S
C394 N395 1.279 . S
C394 H435 0.930 . S
N395 C393 1.314 . S
N395 C394 1.279 . S
C396 C398 1.353 . S
C396 N399 1.314 . S
C396 H402 0.930 . S
C397 N399 1.279 . S
C397 C400 1.358 . S
C397 H403 0.930 . S
C398 C396 1.353 . S
C398 C401 1.348 . S
C398 H436 0.929 . S
N399 Li354 1.990 . S
N399 C396 1.314 . S
N399 C397 1.279 . S
C400 C397 1.358 . S
C400 C401 1.356 . S
C400 H437 0.930 . S
C401 C398 1.348 . S
C401 C400 1.356 . S
H402 C396 0.930 . S
H403 C397 0.930 . S
C404 N405 1.314 . S
C404 C406 1.353 . S
C404 H410 0.930 . S
N405 Li355 1.990 . S
N405 C404 1.314 . S
N405 C408 1.279 . S
C406 C404 1.353 . S
C406 C409 1.348 . S
C406 H438 0.929 . S
C407 C408 1.358 . S
C407 C409 1.356 . S
C407 H439 0.930 . S
C408 N405 1.279 . S
C408 C407 1.358 . S
C408 H411 0.930 . S
C409 C406 1.348 . S
C409 C407 1.356 . S
H410 C404 0.930 . S
H411 C408 0.930 . S
O412 Li352 1.956 . S
O412 Li353 1.970 . S
O412 Li354 1.961 . S
O412 C356 1.325 . S
O413 Li352 1.970 . S
O413 Li353 1.956 . S
O413 Li355 1.961 . S
O413 C362 1.325 . S
O414 Li352 1.961 . S
O414 Li354 1.956 . S
O414 Li355 1.970 . S
O414 C384 1.325 . S
O415 Li353 1.961 . S
O415 Li354 1.970 . S
O415 Li355 1.956 . S
O415 C390 1.325 . S
H416 C358 0.929 . S
H417 C359 0.930 . S
H418 C360 0.930 . S
H419 C361 0.930 . S
H420 C363 0.930 . S
H421 C365 0.929 . S
H422 C366 0.930 . S
H423 C367 0.930 . S
H424 C370 0.930 . S
H425 C373 0.929 . S
H426 C378 0.929 . S
H427 C379 0.930 . S
H428 C386 0.929 . S
H429 C387 0.930 . S
H430 C388 0.930 . S
H431 C389 0.930 . S
H432 C391 0.929 . S
H433 C392 0.930 . S
H434 C393 0.930 . S
H435 C394 0.930 . S
H436 C398 0.929 . S
H437 C400 0.930 . S
H438 C406 0.929 . S
H439 C407 0.930 . S
Li440 N457 1.990 . S
Li440 O500 1.956 . S
Li440 O501 1.970 . S
Li440 O502 1.961 . S
Li441 N465 1.990 . S
Li441 O500 1.970 . S
Li441 O501 1.956 . S
Li441 O503 1.961 . S
Li442 N487 1.990 . S
Li442 O500 1.961 . S
Li442 O502 1.956 . S
Li442 O503 1.970 . S
Li443 N493 1.990 . S
Li443 O501 1.961 . S
Li443 O502 1.970 . S
Li443 O503 1.956 . S
C444 C446 1.348 . S
C444 C447 1.356 . S
C444 O500 1.325 . S
N445 C448 1.314 . S
N445 C449 1.279 . S
C446 C444 1.348 . S
C446 C448 1.353 . S
C446 H504 0.929 . S
C447 C444 1.356 . S
C447 C449 1.358 . S
C447 H505 0.930 . S
C448 N445 1.314 . S
C448 C446 1.353 . S
C448 H506 0.930 . S
C449 N445 1.279 . S
C449 C447 1.358 . S
C449 H507 0.930 . S
C450 C453 1.348 . S
C450 C454 1.356 . S
C450 O501 1.325 . S
C451 N452 1.279 . S
C451 C454 1.358 . S
C451 H508 0.930 . S
N452 C451 1.279 . S
N452 C455 1.314 . S
C453 C450 1.348 . S
C453 C455 1.353 . S
C453 H509 0.929 . S
C454 C450 1.356 . S
C454 C451 1.358 . S
C454 H510 0.930 . S
C455 N452 1.314 . S
C455 C453 1.353 . S
C455 H511 0.930 . S
C456 N457 1.314 . S
C456 C461 1.353 . S
C456 H462 0.930 . S
N457 Li440 1.990 . S
N457 C456 1.314 . S
N457 C459 1.279 . S
C458 C459 1.358 . S
C458 C460 1.356 . S
C458 H512 0.930 . S
C459 N457 1.279 . S
C459 C458 1.358 . S
C459 H463 0.930 . S
C460 C458 1.356 . S
C460 C461 1.348 . S
C461 C456 1.353 . S
C461 C460 1.348 . S
C461 H513 0.929 . S
H462 C456 0.930 . S
H463 C459 0.930 . S
C464 N465 1.314 . S
C464 C466 1.353 . S
C464 H470 0.930 . S
N465 Li441 1.990 . S
N465 C464 1.314 . S
N465 C468 1.279 . S
C466 C464 1.353 . S
C466 C469 1.348 . S
C466 H514 0.929 . S
C467 C468 1.358 . S
C467 C469 1.356 . S
C467 H515 0.930 . S
C468 N465 1.279 . S
C468 C467 1.358 . S
C468 H471 0.930 . S
C469 C466 1.348 . S
C469 C467 1.356 . S
H470 C464 0.930 . S
H471 C468 0.930 . S
C472 C474 1.348 . S
C472 C475 1.356 . S
C472 O502 1.325 . S
N473 C476 1.314 . S
N473 C477 1.279 . S
C474 C472 1.348 . S
C474 C476 1.353 . S
C474 H516 0.929 . S
C475 C472 1.356 . S
C475 C477 1.358 . S
C475 H517 0.930 . S
C476 N473 1.314 . S
C476 C474 1.353 . S
C476 H518 0.930 . S
C477 N473 1.279 . S
C477 C475 1.358 . S
C477 H519 0.930 . S
C478 C479 1.348 . S
C478 C480 1.356 . S
C478 O503 1.325 . S
C479 C478 1.348 . S
C479 C481 1.353 . S
C479 H520 0.929 . S
C480 C478 1.356 . S
C480 C482 1.358 . S
C480 H521 0.930 . S
C481 C479 1.353 . S
C481 N483 1.314 . S
C481 H522 0.930 . S
C482 C480 1.358 . S
C482 N483 1.279 . S
C482 H523 0.930 . S
N483 C481 1.314 . S
N483 C482 1.279 . S
C484 C486 1.353 . S
C484 N487 1.314 . S
C484 H490 0.930 . S
C485 N487 1.279 . S
C485 C488 1.358 . S
C485 H491 0.930 . S
C486 C484 1.353 . S
C486 C489 1.348 . S
C486 H524 0.929 . S
N487 Li442 1.990 . S
N487 C484 1.314 . S
N487 C485 1.279 . S
C488 C485 1.358 . S
C488 C489 1.356 . S
C488 H525 0.930 . S
C489 C486 1.348 . S
C489 C488 1.356 . S
H490 C484 0.930 . S
H491 C485 0.930 . S
C492 N493 1.314 . S
C492 C494 1.353 . S
C492 H498 0.930 . S
N493 Li443 1.990 . S
N493 C492 1.314 . S
N493 C496 1.279 . S
C494 C492 1.353 . S
C494 C497 1.348 . S
C494 H526 0.929 . S
C495 C496 1.358 . S
C495 C497 1.356 . S
C495 H527 0.930 . S
C496 N493 1.279 . S
C496 C495 1.358 . S
C496 H499 0.930 . S
C497 C494 1.348 . S
C497 C495 1.356 . S
H498 C492 0.930 . S
H499 C496 0.930 . S
O500 Li440 1.956 . S
O500 Li441 1.970 . S
O500 Li442 1.961 . S
O500 C444 1.325 . S
O501 Li440 1.970 . S
O501 Li441 1.956 . S
O501 Li443 1.961 . S
O501 C450 1.325 . S
O502 Li440 1.961 . S
O502 Li442 1.956 . S
O502 Li443 1.970 . S
O502 C472 1.325 . S
O503 Li441 1.961 . S
O503 Li442 1.970 . S
O503 Li443 1.956 . S
O503 C478 1.325 . S
H504 C446 0.929 . S
H505 C447 0.930 . S
H506 C448 0.930 . S
H507 C449 0.930 . S
H508 C451 0.930 . S
H509 C453 0.929 . S
H510 C454 0.930 . S
H511 C455 0.930 . S
H512 C458 0.930 . S
H513 C461 0.929 . S
H514 C466 0.929 . S
H515 C467 0.930 . S
H516 C474 0.929 . S
H517 C475 0.930 . S
H518 C476 0.930 . S
H519 C477 0.930 . S
H520 C479 0.929 . S
H521 C480 0.930 . S
H522 C481 0.930 . S
H523 C482 0.930 . S
H524 C486 0.929 . S
H525 C488 0.930 . S
H526 C494 0.929 . S
H527 C495 0.930 . S
Li528 N545 1.990 . S
Li528 O588 1.956 . S
Li528 O589 1.970 . S
Li528 O590 1.961 . S
Li529 N553 1.990 . S
Li529 O588 1.970 . S
Li529 O589 1.956 . S
Li529 O591 1.961 . S
Li530 N575 1.990 . S
Li530 O588 1.961 . S
Li530 O590 1.956 . S
Li530 O591 1.970 . S
Li531 N581 1.990 . S
Li531 O589 1.961 . S
Li531 O590 1.970 . S
Li531 O591 1.956 . S
C532 C534 1.348 . S
C532 C535 1.356 . S
C532 O588 1.325 . S
N533 C536 1.314 . S
N533 C537 1.279 . S
C534 C532 1.348 . S
C534 C536 1.353 . S
C534 H592 0.929 . S
C535 C532 1.356 . S
C535 C537 1.358 . S
C535 H593 0.930 . S
C536 N533 1.314 . S
C536 C534 1.353 . S
C536 H594 0.930 . S
C537 N533 1.279 . S
C537 C535 1.358 . S
C537 H595 0.930 . S
C538 C541 1.348 . S
C538 C542 1.356 . S
C538 O589 1.325 . S
C539 N540 1.279 . S
C539 C542 1.358 . S
C539 H596 0.930 . S
N540 C539 1.279 . S
N540 C543 1.314 . S
C541 C538 1.348 . S
C541 C543 1.353 . S
C541 H597 0.929 . S
C542 C538 1.356 . S
C542 C539 1.358 . S
C542 H598 0.930 . S
C543 N540 1.314 . S
C543 C541 1.353 . S
C543 H599 0.930 . S
C544 N545 1.314 . S
C544 C549 1.353 . S
C544 H550 0.930 . S
N545 Li528 1.990 . S
N545 C544 1.314 . S
N545 C547 1.279 . S
C546 C547 1.358 . S
C546 C548 1.356 . S
C546 H600 0.930 . S
C547 N545 1.279 . S
C547 C546 1.358 . S
C547 H551 0.930 . S
C548 C546 1.356 . S
C548 C549 1.348 . S
C549 C544 1.353 . S
C549 C548 1.348 . S
C549 H601 0.929 . S
H550 C544 0.930 . S
H551 C547 0.930 . S
C552 N553 1.314 . S
C552 C554 1.353 . S
C552 H558 0.930 . S
N553 Li529 1.990 . S
N553 C552 1.314 . S
N553 C556 1.279 . S
C554 C552 1.353 . S
C554 C557 1.348 . S
C554 H602 0.929 . S
C555 C556 1.358 . S
C555 C557 1.356 . S
C555 H603 0.930 . S
C556 N553 1.279 . S
C556 C555 1.358 . S
C556 H559 0.930 . S
C557 C554 1.348 . S
C557 C555 1.356 . S
H558 C552 0.930 . S
H559 C556 0.930 . S
C560 C562 1.348 . S
C560 C563 1.356 . S
C560 O590 1.325 . S
N561 C564 1.314 1_545 S
N561 C565 1.279 . S
C562 C560 1.348 . S
C562 C564 1.353 . S
C562 H604 0.929 . S
C563 C560 1.356 . S
C563 C565 1.358 1_565 S
C563 H605 0.930 . S
C564 N561 1.314 1_565 S
C564 C562 1.353 . S
C564 H606 0.930 . S
C565 N561 1.279 . S
C565 C563 1.358 1_545 S
C565 H607 0.930 . S
C566 C567 1.348 . S
C566 C568 1.356 . S
C566 O591 1.325 . S
C567 C566 1.348 . S
C567 C569 1.353 . S
C567 H608 0.929 . S
C568 C566 1.356 . S
C568 C570 1.358 . S
C568 H609 0.930 . S
C569 C567 1.353 . S
C569 N571 1.314 . S
C569 H610 0.930 . S
C570 C568 1.358 . S
C570 N571 1.279 . S
C570 H611 0.930 . S
N571 C569 1.314 . S
N571 C570 1.279 . S
C572 C574 1.353 . S
C572 N575 1.314 . S
C572 H578 0.930 . S
C573 N575 1.279 . S
C573 C576 1.358 . S
C573 H579 0.930 . S
C574 C572 1.353 . S
C574 C577 1.348 . S
C574 H612 0.929 . S
N575 Li530 1.990 . S
N575 C572 1.314 . S
N575 C573 1.279 . S
C576 C573 1.358 . S
C576 C577 1.356 . S
C576 H613 0.930 . S
C577 C574 1.348 . S
C577 C576 1.356 . S
H578 C572 0.930 . S
H579 C573 0.930 . S
C580 N581 1.314 . S
C580 C582 1.353 . S
C580 H586 0.930 . S
N581 Li531 1.990 . S
N581 C580 1.314 . S
N581 C584 1.279 . S
C582 C580 1.353 . S
C582 C585 1.348 . S
C582 H614 0.929 . S
C583 C584 1.358 . S
C583 C585 1.356 . S
C583 H615 0.930 . S
C584 N581 1.279 . S
C584 C583 1.358 . S
C584 H587 0.930 . S
C585 C582 1.348 . S
C585 C583 1.356 . S
H586 C580 0.930 . S
H587 C584 0.930 . S
O588 Li528 1.956 . S
O588 Li529 1.970 . S
O588 Li530 1.961 . S
O588 C532 1.325 . S
O589 Li528 1.970 . S
O589 Li529 1.956 . S
O589 Li531 1.961 . S
O589 C538 1.325 . S
O590 Li528 1.961 . S
O590 Li530 1.956 . S
O590 Li531 1.970 . S
O590 C560 1.325 . S
O591 Li529 1.961 . S
O591 Li530 1.970 . S
O591 Li531 1.956 . S
O591 C566 1.325 . S
H592 C534 0.929 . S
H593 C535 0.930 . S
H594 C536 0.930 . S
H595 C537 0.930 . S
H596 C539 0.930 . S
H597 C541 0.929 . S
H598 C542 0.930 . S
H599 C543 0.930 . S
H600 C546 0.930 . S
H601 C549 0.929 . S
H602 C554 0.929 . S
H603 C555 0.930 . S
H604 C562 0.929 . S
H605 C563 0.930 . S
H606 C564 0.930 . S
H607 C565 0.930 . S
H608 C567 0.929 . S
H609 C568 0.930 . S
H610 C569 0.930 . S
H611 C570 0.930 . S
H612 C574 0.929 . S
H613 C576 0.930 . S
H614 C582 0.929 . S
H615 C583 0.930 . S
Li616 N633 1.990 . S
Li616 O676 1.956 . S
Li616 O677 1.970 . S
Li616 O678 1.961 . S
Li617 N641 1.990 . S
Li617 O676 1.970 . S
Li617 O677 1.956 . S
Li617 O679 1.961 . S
Li618 N663 1.990 . S
Li618 O676 1.961 . S
Li618 O678 1.956 . S
Li618 O679 1.970 . S
Li619 N669 1.990 . S
Li619 O677 1.961 . S
Li619 O678 1.970 . S
Li619 O679 1.956 . S
C620 C622 1.348 . S
C620 C623 1.356 . S
C620 O676 1.325 . S
N621 C624 1.314 . S
N621 C625 1.279 . S
C622 C620 1.348 . S
C622 C624 1.353 . S
C622 H680 0.929 . S
C623 C620 1.356 . S
C623 C625 1.358 . S
C623 H681 0.930 . S
C624 N621 1.314 . S
C624 C622 1.353 . S
C624 H682 0.930 . S
C625 N621 1.279 . S
C625 C623 1.358 . S
C625 H683 0.930 . S
C626 C629 1.348 . S
C626 C630 1.356 . S
C626 O677 1.325 . S
C627 N628 1.279 . S
C627 C630 1.358 . S
C627 H684 0.930 . S
N628 C627 1.279 . S
N628 C631 1.314 . S
C629 C626 1.348 . S
C629 C631 1.353 . S
C629 H685 0.929 . S
C630 C626 1.356 . S
C630 C627 1.358 . S
C630 H686 0.930 . S
C631 N628 1.314 . S
C631 C629 1.353 . S
C631 H687 0.930 . S
C632 N633 1.314 . S
C632 C637 1.353 . S
C632 H638 0.930 . S
N633 Li616 1.990 . S
N633 C632 1.314 . S
N633 C635 1.279 . S
C634 C635 1.358 . S
C634 C636 1.356 . S
C634 H688 0.930 . S
C635 N633 1.279 . S
C635 C634 1.358 . S
C635 H639 0.930 . S
C636 C634 1.356 . S
C636 C637 1.348 . S
C637 C632 1.353 . S
C637 C636 1.348 . S
C637 H689 0.929 . S
H638 C632 0.930 . S
H639 C635 0.930 . S
C640 N641 1.314 . S
C640 C642 1.353 . S
C640 H646 0.930 . S
N641 Li617 1.990 . S
N641 C640 1.314 . S
N641 C644 1.279 . S
C642 C640 1.353 . S
C642 C645 1.348 . S
C642 H690 0.929 . S
C643 C644 1.358 . S
C643 C645 1.356 . S
C643 H691 0.930 . S
C644 N641 1.279 . S
C644 C643 1.358 . S
C644 H647 0.930 . S
C645 C642 1.348 . S
C645 C643 1.356 . S
H646 C640 0.930 . S
H647 C644 0.930 . S
C648 C650 1.348 . S
C648 C651 1.356 . S
C648 O678 1.325 . S
N649 C652 1.314 . S
N649 C653 1.279 . S
C650 C648 1.348 . S
C650 C652 1.353 . S
C650 H692 0.929 . S
C651 C648 1.356 . S
C651 C653 1.358 . S
C651 H693 0.930 . S
C652 N649 1.314 . S
C652 C650 1.353 . S
C652 H694 0.930 . S
C653 N649 1.279 . S
C653 C651 1.358 . S
C653 H695 0.930 . S
C654 C655 1.348 . S
C654 C656 1.356 . S
C654 O679 1.325 . S
C655 C654 1.348 . S
C655 C657 1.353 . S
C655 H696 0.929 . S
C656 C654 1.356 . S
C656 C658 1.358 . S
C656 H697 0.930 . S
C657 C655 1.353 . S
C657 N659 1.314 . S
C657 H698 0.930 . S
C658 C656 1.358 . S
C658 N659 1.279 . S
C658 H699 0.930 . S
N659 C657 1.314 . S
N659 C658 1.279 . S
C660 C662 1.353 . S
C660 N663 1.314 . S
C660 H666 0.930 . S
C661 N663 1.279 . S
C661 C664 1.358 . S
C661 H667 0.930 . S
C662 C660 1.353 . S
C662 C665 1.348 . S
C662 H700 0.929 . S
N663 Li618 1.990 . S
N663 C660 1.314 . S
N663 C661 1.279 . S
C664 C661 1.358 . S
C664 C665 1.356 . S
C664 H701 0.930 . S
C665 C662 1.348 . S
C665 C664 1.356 . S
H666 C660 0.930 . S
H667 C661 0.930 . S
C668 N669 1.314 . S
C668 C670 1.353 . S
C668 H674 0.930 . S
N669 Li619 1.990 . S
N669 C668 1.314 . S
N669 C672 1.279 . S
C670 C668 1.353 . S
C670 C673 1.348 . S
C670 H702 0.929 . S
C671 C672 1.358 . S
C671 C673 1.356 . S
C671 H703 0.930 . S
C672 N669 1.279 . S
C672 C671 1.358 . S
C672 H675 0.930 . S
C673 C670 1.348 . S
C673 C671 1.356 . S
H674 C668 0.930 . S
H675 C672 0.930 . S
O676 Li616 1.956 . S
O676 Li617 1.970 . S
O676 Li618 1.961 . S
O676 C620 1.325 . S
O677 Li616 1.970 . S
O677 Li617 1.956 . S
O677 Li619 1.961 . S
O677 C626 1.325 . S
O678 Li616 1.961 . S
O678 Li618 1.956 . S
O678 Li619 1.970 . S
O678 C648 1.325 . S
O679 Li617 1.961 . S
O679 Li618 1.970 . S
O679 Li619 1.956 . S
O679 C654 1.325 . S
H680 C622 0.929 . S
H681 C623 0.930 . S
H682 C624 0.930 . S
H683 C625 0.930 . S
H684 C627 0.930 . S
H685 C629 0.929 . S
H686 C630 0.930 . S
H687 C631 0.930 . S
H688 C634 0.930 . S
H689 C637 0.929 . S
H690 C642 0.929 . S
H691 C643 0.930 . S
H692 C650 0.929 . S
H693 C651 0.930 . S
H694 C652 0.930 . S
H695 C653 0.930 . S
H696 C655 0.929 . S
H697 C656 0.930 . S
H698 C657 0.930 . S
H699 C658 0.930 . S
H700 C662 0.929 . S
H701 C664 0.930 . S
H702 C670 0.929 . S
H703 C671 0.930 . S
Li704 N721 1.990 . S
Li704 O764 1.956 . S
Li704 O765 1.970 . S
Li704 O766 1.961 . S
Li705 N729 1.990 . S
Li705 O764 1.970 . S
Li705 O765 1.956 . S
Li705 O767 1.961 . S
Li706 N751 1.990 . S
Li706 O764 1.961 . S
Li706 O766 1.956 . S
Li706 O767 1.970 . S
Li707 N757 1.990 . S
Li707 O765 1.961 . S
Li707 O766 1.970 . S
Li707 O767 1.956 . S
C708 C710 1.348 . S
C708 C711 1.356 . S
C708 O764 1.325 . S
N709 C712 1.314 . S
N709 C713 1.279 . S
C710 C708 1.348 . S
C710 C712 1.353 . S
C710 H768 0.929 . S
C711 C708 1.356 . S
C711 C713 1.358 . S
C711 H769 0.930 . S
C712 N709 1.314 . S
C712 C710 1.353 . S
C712 H770 0.930 . S
C713 N709 1.279 . S
C713 C711 1.358 . S
C713 H771 0.930 . S
C714 C717 1.348 . S
C714 C718 1.356 . S
C714 O765 1.325 . S
C715 N716 1.279 . S
C715 C718 1.358 . S
C715 H772 0.930 . S
N716 C715 1.279 . S
N716 C719 1.314 . S
C717 C714 1.348 . S
C717 C719 1.353 . S
C717 H773 0.929 . S
C718 C714 1.356 . S
C718 C715 1.358 . S
C718 H774 0.930 . S
C719 N716 1.314 . S
C719 C717 1.353 . S
C719 H775 0.930 . S
C720 N721 1.314 . S
C720 C725 1.353 . S
C720 H726 0.930 . S
N721 Li704 1.990 . S
N721 C720 1.314 . S
N721 C723 1.279 . S
C722 C723 1.358 . S
C722 C724 1.356 . S
C722 H776 0.930 . S
C723 N721 1.279 . S
C723 C722 1.358 . S
C723 H727 0.930 . S
C724 C722 1.356 . S
C724 C725 1.348 . S
C725 C720 1.353 . S
C725 C724 1.348 . S
C725 H777 0.929 . S
H726 C720 0.930 . S
H727 C723 0.930 . S
C728 N729 1.314 . S
C728 C730 1.353 . S
C728 H734 0.930 . S
N729 Li705 1.990 . S
N729 C728 1.314 . S
N729 C732 1.279 . S
C730 C728 1.353 . S
C730 C733 1.348 . S
C730 H778 0.929 . S
C731 C732 1.358 . S
C731 C733 1.356 . S
C731 H779 0.930 . S
C732 N729 1.279 . S
C732 C731 1.358 . S
C732 H735 0.930 . S
C733 C730 1.348 . S
C733 C731 1.356 . S
H734 C728 0.930 . S
H735 C732 0.930 . S
C736 C738 1.348 . S
C736 C739 1.356 . S
C736 O766 1.325 . S
N737 C740 1.314 . S
N737 C741 1.279 . S
C738 C736 1.348 . S
C738 C740 1.353 . S
C738 H780 0.929 . S
C739 C736 1.356 . S
C739 C741 1.358 . S
C739 H781 0.930 . S
C740 N737 1.314 . S
C740 C738 1.353 . S
C740 H782 0.930 . S
C741 N737 1.279 . S
C741 C739 1.358 . S
C741 H783 0.930 . S
C742 C743 1.348 . S
C742 C744 1.356 . S
C742 O767 1.325 . S
C743 C742 1.348 . S
C743 C745 1.353 . S
C743 H784 0.929 . S
C744 C742 1.356 . S
C744 C746 1.358 1_455 S
C744 H785 0.930 . S
C745 C743 1.353 . S
C745 N747 1.314 1_455 S
C745 H786 0.930 . S
C746 C744 1.358 1_655 S
C746 N747 1.279 . S
C746 H787 0.930 . S
N747 C745 1.314 1_655 S
N747 C746 1.279 . S
C748 C750 1.353 . S
C748 N751 1.314 . S
C748 H754 0.930 . S
C749 N751 1.279 . S
C749 C752 1.358 . S
C749 H755 0.930 . S
C750 C748 1.353 . S
C750 C753 1.348 . S
C750 H788 0.929 . S
N751 Li706 1.990 . S
N751 C748 1.314 . S
N751 C749 1.279 . S
C752 C749 1.358 . S
C752 C753 1.356 . S
C752 H789 0.930 . S
C753 C750 1.348 . S
C753 C752 1.356 . S
H754 C748 0.930 . S
H755 C749 0.930 . S
C756 N757 1.314 . S
C756 C758 1.353 . S
C756 H762 0.930 . S
N757 Li707 1.990 . S
N757 C756 1.314 . S
N757 C760 1.279 . S
C758 C756 1.353 . S
C758 C761 1.348 . S
C758 H790 0.929 . S
C759 C760 1.358 . S
C759 C761 1.356 . S
C759 H791 0.930 . S
C760 N757 1.279 . S
C760 C759 1.358 . S
C760 H763 0.930 . S
C761 C758 1.348 . S
C761 C759 1.356 . S
H762 C756 0.930 . S
H763 C760 0.930 . S
O764 Li704 1.956 . S
O764 Li705 1.970 . S
O764 Li706 1.961 . S
O764 C708 1.325 . S
O765 Li704 1.970 . S
O765 Li705 1.956 . S
O765 Li707 1.961 . S
O765 C714 1.325 . S
O766 Li704 1.961 . S
O766 Li706 1.956 . S
O766 Li707 1.970 . S
O766 C736 1.325 . S
O767 Li705 1.961 . S
O767 Li706 1.970 . S
O767 Li707 1.956 . S
O767 C742 1.325 . S
H768 C710 0.929 . S
H769 C711 0.930 . S
H770 C712 0.930 . S
H771 C713 0.930 . S
H772 C715 0.930 . S
H773 C717 0.929 . S
H774 C718 0.930 . S
H775 C719 0.930 . S
H776 C722 0.930 . S
H777 C725 0.929 . S
H778 C730 0.929 . S
H779 C731 0.930 . S
H780 C738 0.929 . S
H781 C739 0.930 . S
H782 C740 0.930 . S
H783 C741 0.930 . S
H784 C743 0.929 . S
H785 C744 0.930 . S
H786 C745 0.930 . S
H787 C746 0.930 . S
H788 C750 0.929 . S
H789 C752 0.930 . S
H790 C758 0.929 . S
H791 C759 0.930 . S
Li792 N809 1.990 . S
Li792 O852 1.956 . S
Li792 O853 1.970 . S
Li792 O854 1.961 . S
Li793 N817 1.990 . S
Li793 O852 1.970 . S
Li793 O853 1.956 . S
Li793 O855 1.961 . S
Li794 N839 1.990 . S
Li794 O852 1.961 . S
Li794 O854 1.956 . S
Li794 O855 1.970 . S
Li795 N845 1.990 . S
Li795 O853 1.961 . S
Li795 O854 1.970 . S
Li795 O855 1.956 . S
C796 C798 1.348 . S
C796 C799 1.356 . S
C796 O852 1.325 . S
N797 C800 1.314 . S
N797 C801 1.279 . S
C798 C796 1.348 . S
C798 C800 1.353 . S
C798 H856 0.929 . S
C799 C796 1.356 . S
C799 C801 1.358 . S
C799 H857 0.930 . S
C800 N797 1.314 . S
C800 C798 1.353 . S
C800 H858 0.930 . S
C801 N797 1.279 . S
C801 C799 1.358 . S
C801 H859 0.930 . S
C802 C805 1.348 . S
C802 C806 1.356 . S
C802 O853 1.325 . S
C803 N804 1.279 . S
C803 C806 1.358 . S
C803 H860 0.930 . S
N804 C803 1.279 . S
N804 C807 1.314 . S
C805 C802 1.348 . S
C805 C807 1.353 . S
C805 H861 0.929 . S
C806 C802 1.356 . S
C806 C803 1.358 . S
C806 H862 0.930 . S
C807 N804 1.314 . S
C807 C805 1.353 . S
C807 H863 0.930 . S
C808 N809 1.314 . S
C808 C813 1.353 . S
C808 H814 0.930 . S
N809 Li792 1.990 . S
N809 C808 1.314 . S
N809 C811 1.279 . S
C810 C811 1.358 . S
C810 C812 1.356 . S
C810 H864 0.930 . S
C811 N809 1.279 . S
C811 C810 1.358 . S
C811 H815 0.930 . S
C812 C810 1.356 . S
C812 C813 1.348 . S
C813 C808 1.353 . S
C813 C812 1.348 . S
C813 H865 0.929 . S
H814 C808 0.930 . S
H815 C811 0.930 . S
C816 N817 1.314 . S
C816 C818 1.353 . S
C816 H822 0.930 . S
N817 Li793 1.990 . S
N817 C816 1.314 . S
N817 C820 1.279 . S
C818 C816 1.353 . S
C818 C821 1.348 . S
C818 H866 0.929 . S
C819 C820 1.358 . S
C819 C821 1.356 . S
C819 H867 0.930 . S
C820 N817 1.279 . S
C820 C819 1.358 . S
C820 H823 0.930 . S
C821 C818 1.348 . S
C821 C819 1.356 . S
H822 C816 0.930 . S
H823 C820 0.930 . S
C824 C826 1.348 . S
C824 C827 1.356 . S
C824 O854 1.325 . S
N825 C828 1.314 . S
N825 C829 1.279 . S
C826 C824 1.348 . S
C826 C828 1.353 . S
C826 H868 0.929 . S
C827 C824 1.356 . S
C827 C829 1.358 . S
C827 H869 0.930 . S
C828 N825 1.314 . S
C828 C826 1.353 . S
C828 H870 0.930 . S
C829 N825 1.279 . S
C829 C827 1.358 . S
C829 H871 0.930 . S
C830 C831 1.348 . S
C830 C832 1.356 . S
C830 O855 1.325 . S
C831 C830 1.348 . S
C831 C833 1.353 . S
C831 H872 0.929 . S
C832 C830 1.356 . S
C832 C834 1.358 1_545 S
C832 H873 0.930 . S
C833 C831 1.353 . S
C833 N835 1.314 1_545 S
C833 H874 0.930 . S
C834 C832 1.358 1_565 S
C834 N835 1.279 . S
C834 H875 0.930 . S
N835 C833 1.314 1_565 S
N835 C834 1.279 . S
C836 C838 1.353 . S
C836 N839 1.314 . S
C836 H842 0.930 . S
C837 N839 1.279 . S
C837 C840 1.358 . S
C837 H843 0.930 . S
C838 C836 1.353 . S
C838 C841 1.348 . S
C838 H876 0.929 . S
N839 Li794 1.990 . S
N839 C836 1.314 . S
N839 C837 1.279 . S
C840 C837 1.358 . S
C840 C841 1.356 . S
C840 H877 0.930 . S
C841 C838 1.348 . S
C841 C840 1.356 . S
H842 C836 0.930 . S
H843 C837 0.930 . S
C844 N845 1.314 . S
C844 C846 1.353 . S
C844 H850 0.930 . S
N845 Li795 1.990 . S
N845 C844 1.314 . S
N845 C848 1.279 . S
C846 C844 1.353 . S
C846 C849 1.348 . S
C846 H878 0.929 . S
C847 C848 1.358 . S
C847 C849 1.356 . S
C847 H879 0.930 . S
C848 N845 1.279 . S
C848 C847 1.358 . S
C848 H851 0.930 . S
C849 C846 1.348 . S
C849 C847 1.356 . S
H850 C844 0.930 . S
H851 C848 0.930 . S
O852 Li792 1.956 . S
O852 Li793 1.970 . S
O852 Li794 1.961 . S
O852 C796 1.325 . S
O853 Li792 1.970 . S
O853 Li793 1.956 . S
O853 Li795 1.961 . S
O853 C802 1.325 . S
O854 Li792 1.961 . S
O854 Li794 1.956 . S
O854 Li795 1.970 . S
O854 C824 1.325 . S
O855 Li793 1.961 . S
O855 Li794 1.970 . S
O855 Li795 1.956 . S
O855 C830 1.325 . S
H856 C798 0.929 . S
H857 C799 0.930 . S
H858 C800 0.930 . S
H859 C801 0.930 . S
H860 C803 0.930 . S
H861 C805 0.929 . S
H862 C806 0.930 . S
H863 C807 0.930 . S
H864 C810 0.930 . S
H865 C813 0.929 . S
H866 C818 0.929 . S
H867 C819 0.930 . S
H868 C826 0.929 . S
H869 C827 0.930 . S
H870 C828 0.930 . S
H871 C829 0.930 . S
H872 C831 0.929 . S
H873 C832 0.930 . S
H874 C833 0.930 . S
H875 C834 0.930 . S
H876 C838 0.929 . S
H877 C840 0.930 . S
H878 C846 0.929 . S
H879 C847 0.930 . S
Li880 N897 1.990 . S
Li880 O940 1.956 . S
Li880 O941 1.970 . S
Li880 O942 1.961 . S
Li881 N905 1.990 . S
Li881 O940 1.970 . S
Li881 O941 1.956 . S
Li881 O943 1.961 . S
Li882 N927 1.990 . S
Li882 O940 1.961 . S
Li882 O942 1.956 . S
Li882 O943 1.970 . S
Li883 N933 1.990 . S
Li883 O941 1.961 . S
Li883 O942 1.970 . S
Li883 O943 1.956 . S
C884 C886 1.348 . S
C884 C887 1.356 . S
C884 O940 1.325 . S
N885 C888 1.314 . S
N885 C889 1.279 . S
C886 C884 1.348 . S
C886 C888 1.353 . S
C886 H944 0.929 . S
C887 C884 1.356 . S
C887 C889 1.358 . S
C887 H945 0.930 . S
C888 N885 1.314 . S
C888 C886 1.353 . S
C888 H946 0.930 . S
C889 N885 1.279 . S
C889 C887 1.358 . S
C889 H947 0.930 . S
C890 C893 1.348 . S
C890 C894 1.356 . S
C890 O941 1.325 . S
C891 N892 1.279 . S
C891 C894 1.358 . S
C891 H948 0.930 . S
N892 C891 1.279 . S
N892 C895 1.314 . S
C893 C890 1.348 . S
C893 C895 1.353 . S
C893 H949 0.929 . S
C894 C890 1.356 . S
C894 C891 1.358 . S
C894 H950 0.930 . S
C895 N892 1.314 . S
C895 C893 1.353 . S
C895 H951 0.930 . S
C896 N897 1.314 . S
C896 C901 1.353 . S
C896 H902 0.930 . S
N897 Li880 1.990 . S
N897 C896 1.314 . S
N897 C899 1.279 . S
C898 C899 1.358 . S
C898 C900 1.356 . S
C898 H952 0.930 . S
C899 N897 1.279 . S
C899 C898 1.358 . S
C899 H903 0.930 . S
C900 C898 1.356 . S
C900 C901 1.348 . S
C901 C896 1.353 . S
C901 C900 1.348 . S
C901 H953 0.929 . S
H902 C896 0.930 . S
H903 C899 0.930 . S
C904 N905 1.314 . S
C904 C906 1.353 . S
C904 H910 0.930 . S
N905 Li881 1.990 . S
N905 C904 1.314 . S
N905 C908 1.279 . S
C906 C904 1.353 . S
C906 C909 1.348 . S
C906 H954 0.929 . S
C907 C908 1.358 . S
C907 C909 1.356 . S
C907 H955 0.930 . S
C908 N905 1.279 . S
C908 C907 1.358 . S
C908 H911 0.930 . S
C909 C906 1.348 . S
C909 C907 1.356 . S
H910 C904 0.930 . S
H911 C908 0.930 . S
C912 C914 1.348 . S
C912 C915 1.356 . S
C912 O942 1.325 . S
N913 C916 1.314 . S
N913 C917 1.279 . S
C914 C912 1.348 . S
C914 C916 1.353 . S
C914 H956 0.929 . S
C915 C912 1.356 . S
C915 C917 1.358 . S
C915 H957 0.930 . S
C916 N913 1.314 . S
C916 C914 1.353 . S
C916 H958 0.930 . S
C917 N913 1.279 . S
C917 C915 1.358 . S
C917 H959 0.930 . S
C918 C919 1.348 . S
C918 C920 1.356 . S
C918 O943 1.325 . S
C919 C918 1.348 . S
C919 C921 1.353 . S
C919 H960 0.929 . S
C920 C918 1.356 . S
C920 C922 1.358 . S
C920 H961 0.930 . S
C921 C919 1.353 . S
C921 N923 1.314 . S
C921 H962 0.930 . S
C922 C920 1.358 . S
C922 N923 1.279 . S
C922 H963 0.930 . S
N923 C921 1.314 . S
N923 C922 1.279 . S
C924 C926 1.353 . S
C924 N927 1.314 . S
C924 H930 0.930 . S
C925 N927 1.279 . S
C925 C928 1.358 . S
C925 H931 0.930 . S
C926 C924 1.353 . S
C926 C929 1.348 . S
C926 H964 0.929 . S
N927 Li882 1.990 . S
N927 C924 1.314 . S
N927 C925 1.279 . S
C928 C925 1.358 . S
C928 C929 1.356 . S
C928 H965 0.930 . S
C929 C926 1.348 . S
C929 C928 1.356 . S
H930 C924 0.930 . S
H931 C925 0.930 . S
C932 N933 1.314 . S
C932 C934 1.353 . S
C932 H938 0.930 . S
N933 Li883 1.990 . S
N933 C932 1.314 . S
N933 C936 1.279 . S
C934 C932 1.353 . S
C934 C937 1.348 . S
C934 H966 0.929 . S
C935 C936 1.358 . S
C935 C937 1.356 . S
C935 H967 0.930 . S
C936 N933 1.279 . S
C936 C935 1.358 . S
C936 H939 0.930 . S
C937 C934 1.348 . S
C937 C935 1.356 . S
H938 C932 0.930 . S
H939 C936 0.930 . S
O940 Li880 1.956 . S
O940 Li881 1.970 . S
O940 Li882 1.961 . S
O940 C884 1.325 . S
O941 Li880 1.970 . S
O941 Li881 1.956 . S
O941 Li883 1.961 . S
O941 C890 1.325 . S
O942 Li880 1.961 . S
O942 Li882 1.956 . S
O942 Li883 1.970 . S
O942 C912 1.325 . S
O943 Li881 1.961 . S
O943 Li882 1.970 . S
O943 Li883 1.956 . S
O943 C918 1.325 . S
H944 C886 0.929 . S
H945 C887 0.930 . S
H946 C888 0.930 . S
H947 C889 0.930 . S
H948 C891 0.930 . S
H949 C893 0.929 . S
H950 C894 0.930 . S
H951 C895 0.930 . S
H952 C898 0.930 . S
H953 C901 0.929 . S
H954 C906 0.929 . S
H955 C907 0.930 . S
H956 C914 0.929 . S
H957 C915 0.930 . S
H958 C916 0.930 . S
H959 C917 0.930 . S
H960 C919 0.929 . S
H961 C920 0.930 . S
H962 C921 0.930 . S
H963 C922 0.930 . S
H964 C926 0.929 . S
H965 C928 0.930 . S
H966 C934 0.929 . S
H967 C935 0.930 . S
Li968 N985 1.990 . S
Li968 O1028 1.956 . S
Li968 O1029 1.970 . S
Li968 O1030 1.961 . S
Li969 N993 1.990 . S
Li969 O1028 1.970 . S
Li969 O1029 1.956 . S
Li969 O1031 1.961 . S
Li970 N1015 1.990 . S
Li970 O1028 1.961 . S
Li970 O1030 1.956 . S
Li970 O1031 1.970 . S
Li971 N1021 1.990 . S
Li971 O1029 1.961 . S
Li971 O1030 1.970 . S
Li971 O1031 1.956 . S
C972 C974 1.348 . S
C972 C975 1.356 . S
C972 O1028 1.325 . S
N973 C976 1.314 . S
N973 C977 1.279 . S
C974 C972 1.348 . S
C974 C976 1.353 . S
C974 H1032 0.929 . S
C975 C972 1.356 . S
C975 C977 1.358 . S
C975 H1033 0.930 . S
C976 N973 1.314 . S
C976 C974 1.353 . S
C976 H1034 0.930 . S
C977 N973 1.279 . S
C977 C975 1.358 . S
C977 H1035 0.930 . S
C978 C981 1.348 . S
C978 C982 1.356 . S
C978 O1029 1.325 . S
C979 N980 1.279 . S
C979 C982 1.358 . S
C979 H1036 0.930 . S
N980 C979 1.279 . S
N980 C983 1.314 . S
C981 C978 1.348 . S
C981 C983 1.353 . S
C981 H1037 0.929 . S
C982 C978 1.356 . S
C982 C979 1.358 . S
C982 H1038 0.930 . S
C983 N980 1.314 . S
C983 C981 1.353 . S
C983 H1039 0.930 . S
C984 N985 1.314 . S
C984 C989 1.353 . S
C984 H990 0.930 . S
N985 Li968 1.990 . S
N985 C984 1.314 . S
N985 C987 1.279 . S
C986 C987 1.358 . S
C986 C988 1.356 . S
C986 H1040 0.930 . S
C987 N985 1.279 . S
C987 C986 1.358 . S
C987 H991 0.930 . S
C988 C986 1.356 . S
C988 C989 1.348 . S
C989 C984 1.353 . S
C989 C988 1.348 . S
C989 H1041 0.929 . S
H990 C984 0.930 . S
H991 C987 0.930 . S
C992 N993 1.314 . S
C992 C994 1.353 . S
C992 H998 0.930 . S
N993 Li969 1.990 . S
N993 C992 1.314 . S
N993 C996 1.279 . S
C994 C992 1.353 . S
C994 C997 1.348 . S
C994 H1042 0.929 . S
C995 C996 1.358 . S
C995 C997 1.356 . S
C995 H1043 0.930 . S
C996 N993 1.279 . S
C996 C995 1.358 . S
C996 H999 0.930 . S
C997 C994 1.348 . S
C997 C995 1.356 . S
H998 C992 0.930 . S
H999 C996 0.930 . S
C1000 C1002 1.348 . S
C1000 C1003 1.356 . S
C1000 O1030 1.325 . S
N1001 C1004 1.314 . S
N1001 C1005 1.279 . S
C1002 C1000 1.348 . S
C1002 C1004 1.353 . S
C1002 H1044 0.929 . S
C1003 C1000 1.356 . S
C1003 C1005 1.358 . S
C1003 H1045 0.930 . S
C1004 N1001 1.314 . S
C1004 C1002 1.353 . S
C1004 H1046 0.930 . S
C1005 N1001 1.279 . S
C1005 C1003 1.358 . S
C1005 H1047 0.930 . S
C1006 C1007 1.348 . S
C1006 C1008 1.356 . S
C1006 O1031 1.325 . S
C1007 C1006 1.348 . S
C1007 C1009 1.353 . S
C1007 H1048 0.929 . S
C1008 C1006 1.356 . S
C1008 C1010 1.358 1_655 S
C1008 H1049 0.930 . S
C1009 C1007 1.353 . S
C1009 N1011 1.314 1_655 S
C1009 H1050 0.930 . S
C1010 C1008 1.358 1_455 S
C1010 N1011 1.279 . S
C1010 H1051 0.930 . S
N1011 C1009 1.314 1_455 S
N1011 C1010 1.279 . S
C1012 C1014 1.353 . S
C1012 N1015 1.314 . S
C1012 H1018 0.930 . S
C1013 N1015 1.279 . S
C1013 C1016 1.358 . S
C1013 H1019 0.930 . S
C1014 C1012 1.353 . S
C1014 C1017 1.348 . S
C1014 H1052 0.929 . S
N1015 Li970 1.990 . S
N1015 C1012 1.314 . S
N1015 C1013 1.279 . S
C1016 C1013 1.358 . S
C1016 C1017 1.356 . S
C1016 H1053 0.930 . S
C1017 C1014 1.348 . S
C1017 C1016 1.356 . S
H1018 C1012 0.930 . S
H1019 C1013 0.930 . S
C1020 N1021 1.314 . S
C1020 C1022 1.353 . S
C1020 H1026 0.930 . S
N1021 Li971 1.990 . S
N1021 C1020 1.314 . S
N1021 C1024 1.279 . S
C1022 C1020 1.353 . S
C1022 C1025 1.348 . S
C1022 H1054 0.929 . S
C1023 C1024 1.358 . S
C1023 C1025 1.356 . S
C1023 H1055 0.930 . S
C1024 N1021 1.279 . S
C1024 C1023 1.358 . S
C1024 H1027 0.930 . S
C1025 C1022 1.348 . S
C1025 C1023 1.356 . S
H1026 C1020 0.930 . S
H1027 C1024 0.930 . S
O1028 Li968 1.956 . S
O1028 Li969 1.970 . S
O1028 Li970 1.961 . S
O1028 C972 1.325 . S
O1029 Li968 1.970 . S
O1029 Li969 1.956 . S
O1029 Li971 1.961 . S
O1029 C978 1.325 . S
O1030 Li968 1.961 . S
O1030 Li970 1.956 . S
O1030 Li971 1.970 . S
O1030 C1000 1.325 . S
O1031 Li969 1.961 . S
O1031 Li970 1.970 . S
O1031 Li971 1.956 . S
O1031 C1006 1.325 . S
H1032 C974 0.929 . S
H1033 C975 0.930 . S
H1034 C976 0.930 . S
H1035 C977 0.930 . S
H1036 C979 0.930 . S
H1037 C981 0.929 . S
H1038 C982 0.930 . S
H1039 C983 0.930 . S
H1040 C986 0.930 . S
H1041 C989 0.929 . S
H1042 C994 0.929 . S
H1043 C995 0.930 . S
H1044 C1002 0.929 . S
H1045 C1003 0.930 . S
H1046 C1004 0.930 . S
H1047 C1005 0.930 . S
H1048 C1007 0.929 . S
H1049 C1008 0.930 . S
H1050 C1009 0.930 . S
H1051 C1010 0.930 . S
H1052 C1014 0.929 . S
H1053 C1016 0.930 . S
H1054 C1022 0.929 . S
H1055 C1023 0.930 . S
C1056 C1057 1.346 1_655 S
C1056 C1062 1.388 1_554 S
C1056 N1064 1.360 1_655 S
C1057 C1056 1.346 1_455 S
C1057 C1063 1.363 . S
C1058 C1059 1.346 1_455 S
C1058 C1063 1.387 1_556 S
C1058 N1065 1.360 1_455 S
C1059 C1058 1.346 1_655 S
C1059 C1062 1.363 . S
N1060 C1062 1.356 . S
N1060 H1072 0.984 . S
N1060 H1073 0.985 . S
N1061 C1063 1.356 . S
N1061 H1066 0.984 . S
N1061 H1067 0.985 . S
C1062 C1056 1.388 1_556 S
C1062 C1059 1.363 . S
C1062 N1060 1.356 . S
C1063 C1057 1.363 . S
C1063 C1058 1.387 1_554 S
C1063 N1061 1.356 . S
N1064 C1056 1.360 1_455 S
N1064 H1070 0.984 1_455 S
N1064 H1071 0.984 . S
N1065 C1058 1.360 1_655 S
N1065 H1068 0.984 . S
N1065 H1069 0.985 1_655 S
H1066 N1061 0.984 . S
H1067 N1061 0.985 . S
H1068 N1065 0.984 . S
H1069 N1065 0.985 1_455 S
H1070 N1064 0.984 1_655 S
H1071 N1064 0.984 . S
H1072 N1060 0.984 . S
H1073 N1060 0.985 . S
C1074 C1075 1.363 . S
C1074 C1080 1.379 . S
C1074 N1082 1.356 . S
C1075 C1074 1.363 . S
C1075 C1081 1.363 1_565 S
C1076 C1077 1.363 . S
C1076 C1081 1.379 . S
C1076 N1083 1.356 . S
C1077 C1076 1.363 . S
C1077 C1080 1.363 1_545 S
N1078 C1080 1.356 . S
N1078 H1090 0.984 . S
N1078 H1091 0.985 . S
N1079 C1081 1.356 . S
N1079 H1084 0.984 . S
N1079 H1085 0.985 . S
C1080 C1074 1.379 . S
C1080 C1077 1.363 1_565 S
C1080 N1078 1.356 . S
C1081 C1075 1.363 1_545 S
C1081 C1076 1.379 . S
C1081 N1079 1.356 . S
N1082 C1074 1.356 . S
N1082 H1088 0.984 . S
N1082 H1089 0.984 . S
N1083 C1076 1.356 . S
N1083 H1086 0.984 . S
N1083 H1087 0.985 . S
H1084 N1079 0.984 . S
H1085 N1079 0.985 . S
H1086 N1083 0.984 . S
H1087 N1083 0.985 . S
H1088 N1082 0.984 . S
H1089 N1082 0.984 . S
H1090 N1078 0.984 . S
H1091 N1078 0.985 . S
C1092 C1093 1.363 . S
C1092 C1098 1.379 1_554 S
C1092 N1100 1.356 . S
C1093 C1092 1.363 . S
C1093 C1099 1.363 . S
C1094 C1095 1.363 . S
C1094 C1099 1.379 1_556 S
C1094 N1101 1.356 . S
C1095 C1094 1.363 . S
C1095 C1098 1.363 . S
N1096 C1098 1.356 . S
N1096 H1108 0.984 1_556 S
N1096 H1109 0.985 . S
N1097 C1099 1.356 . S
N1097 H1102 0.984 . S
N1097 H1103 0.985 1_554 S
C1098 C1092 1.379 1_556 S
C1098 C1095 1.363 . S
C1098 N1096 1.356 . S
C1099 C1093 1.363 . S
C1099 C1094 1.379 1_554 S
C1099 N1097 1.356 . S
N1100 C1092 1.356 . S
N1100 H1106 0.984 . S
N1100 H1107 0.984 . S
N1101 C1094 1.356 . S
N1101 H1104 0.984 . S
N1101 H1105 0.985 . S
H1102 N1097 0.984 . S
H1103 N1097 0.985 1_556 S
H1104 N1101 0.984 . S
H1105 N1101 0.985 . S
H1106 N1100 0.984 . S
H1107 N1100 0.984 . S
H1108 N1096 0.984 1_554 S
H1109 N1096 0.985 . S
C1110 C1111 1.363 . S
C1110 C1116 1.379 . S
C1110 N1118 1.356 . S
C1111 C1110 1.363 . S
C1111 C1117 1.363 1_455 S
C1112 C1113 1.363 . S
C1112 C1117 1.379 . S
C1112 N1119 1.356 . S
C1113 C1112 1.363 . S
C1113 C1116 1.363 1_655 S
N1114 C1116 1.356 . S
N1114 H1126 0.984 . S
N1114 H1127 0.985 . S
N1115 C1117 1.356 . S
N1115 H1120 0.984 . S
N1115 H1121 0.985 . S
C1116 C1110 1.379 . S
C1116 C1113 1.363 1_455 S
C1116 N1114 1.356 . S
C1117 C1111 1.363 1_655 S
C1117 C1112 1.379 . S
C1117 N1115 1.356 . S
N1118 C1110 1.356 . S
N1118 H1124 0.984 . S
N1118 H1125 0.984 . S
N1119 C1112 1.356 . S
N1119 H1122 0.984 . S
N1119 H1123 0.985 . S
H1120 N1115 0.984 . S
H1121 N1115 0.985 . S
H1122 N1119 0.984 . S
H1123 N1119 0.985 . S
H1124 N1118 0.984 . S
H1125 N1118 0.984 . S
H1126 N1114 0.984 . S
H1127 N1114 0.985 . S
C1128 C1129 1.363 . S
C1128 C1134 1.379 1_556 S
C1128 N1136 1.356 . S
C1129 C1128 1.363 . S
C1129 C1135 1.363 1_545 S
C1130 C1131 1.363 . S
C1130 C1135 1.379 1_554 S
C1130 N1137 1.356 . S
C1131 C1130 1.363 . S
C1131 C1134 1.363 1_565 S
N1132 C1134 1.356 . S
N1132 H1144 0.984 . S
N1132 H1145 0.979 1_545 S
N1133 C1135 1.356 . S
N1133 H1138 0.979 1_565 S
N1133 H1139 0.985 . S
C1134 C1128 1.379 1_554 S
C1134 C1131 1.363 1_545 S
C1134 N1132 1.356 . S
C1135 C1129 1.363 1_565 S
C1135 C1130 1.379 1_556 S
C1135 N1133 1.356 . S
N1136 C1128 1.356 . S
N1136 H1142 0.984 . S
N1136 H1143 0.984 . S
N1137 C1130 1.356 . S
N1137 H1140 0.984 . S
N1137 H1141 0.985 . S
H1138 N1133 0.979 1_545 S
H1139 N1133 0.985 . S
H1140 N1137 0.984 . S
H1141 N1137 0.985 . S
H1142 N1136 0.984 . S
H1143 N1136 0.984 . S
H1144 N1132 0.984 . S
H1145 N1132 0.979 1_565 S
C1146 C1147 1.363 . S
C1146 C1152 1.379 . S
C1146 N1154 1.356 . S
C1147 C1146 1.363 . S
C1147 C1153 1.363 . S
C1148 C1149 1.363 . S
C1148 C1153 1.379 . S
C1148 N1155 1.356 . S
C1149 C1148 1.363 . S
C1149 C1152 1.363 . S
N1150 C1152 1.356 . S
N1150 H1162 0.984 . S
N1150 H1163 0.985 . S
N1151 C1153 1.356 . S
N1151 H1156 0.984 . S
N1151 H1157 0.985 . S
C1152 C1146 1.379 . S
C1152 C1149 1.363 . S
C1152 N1150 1.356 . S
C1153 C1147 1.363 . S
C1153 C1148 1.379 . S
C1153 N1151 1.356 . S
N1154 C1146 1.356 . S
N1154 H1160 0.984 . S
N1154 H1161 0.984 . S
N1155 C1148 1.356 . S
N1155 H1158 0.984 . S
N1155 H1159 0.985 . S
H1156 N1151 0.984 . S
H1157 N1151 0.985 . S
H1158 N1155 0.984 . S
H1159 N1155 0.985 . S
H1160 N1154 0.984 . S
H1161 N1154 0.984 . S
H1162 N1150 0.984 . S
H1163 N1150 0.985 . S
C1164 C1165 1.363 . S
C1164 C1170 1.379 1_556 S
C1164 N1172 1.356 . S
C1165 C1164 1.363 . S
C1165 C1171 1.363 1_655 S
C1166 C1167 1.363 . S
C1166 C1171 1.379 1_554 S
C1166 N1173 1.356 . S
C1167 C1166 1.363 . S
C1167 C1170 1.363 1_455 S
N1168 C1170 1.356 . S
N1168 H1180 0.984 . S
N1168 H1181 1.002 . S
N1169 C1171 1.356 . S
N1169 H1174 1.002 . S
N1169 H1175 0.985 . S
C1170 C1164 1.379 1_554 S
C1170 C1167 1.363 1_655 S
C1170 N1168 1.356 . S
C1171 C1165 1.363 1_455 S
C1171 C1166 1.379 1_556 S
C1171 N1169 1.356 . S
N1172 C1164 1.356 . S
N1172 H1178 0.985 1_556 S
N1172 H1179 0.984 . S
N1173 C1166 1.356 . S
N1173 H1176 0.984 . S
N1173 H1177 0.985 1_554 S
H1174 N1169 1.002 . S
H1175 N1169 0.985 . S
H1176 N1173 0.984 . S
H1177 N1173 0.985 1_556 S
H1178 N1172 0.985 1_554 S
H1179 N1172 0.984 . S
H1180 N1168 0.984 . S
H1181 N1168 1.002 . S
C1182 C1183 1.363 . S
C1182 C1188 1.379 . S
C1182 N1190 1.356 . S
C1183 C1182 1.363 . S
C1183 C1189 1.363 1_565 S
C1184 C1185 1.363 . S
C1184 C1189 1.379 . S
C1184 N1191 1.356 . S
C1185 C1184 1.363 . S
C1185 C1188 1.363 1_545 S
N1186 C1188 1.356 . S
N1186 H1198 0.984 . S
N1186 H1199 0.985 . S
N1187 C1189 1.356 . S
N1187 H1192 0.984 . S
N1187 H1193 0.985 . S
C1188 C1182 1.379 . S
C1188 C1185 1.363 1_565 S
C1188 N1186 1.356 . S
C1189 C1183 1.363 1_545 S
C1189 C1184 1.379 . S
C1189 N1187 1.356 . S
N1190 C1182 1.356 . S
N1190 H1196 0.984 . S
N1190 H1197 0.984 . S
N1191 C1184 1.356 . S
N1191 H1194 0.984 . S
N1191 H1195 0.985 . S
H1192 N1187 0.984 . S
H1193 N1187 0.985 . S
H1194 N1191 0.984 . S
H1195 N1191 0.985 . S
H1196 N1190 0.984 . S
H1197 N1190 0.984 . S
H1198 N1186 0.984 . S
H1199 N1186 0.985 . S
C1200 C1201 1.363 . S
C1200 C1206 1.379 1_556 S
C1200 N1208 1.356 . S
C1201 C1200 1.363 . S
C1201 C1207 1.363 . S
C1202 C1203 1.363 . S
C1202 C1207 1.379 1_554 S
C1202 N1209 1.356 . S
C1203 C1202 1.363 . S
C1203 C1206 1.363 . S
N1204 C1206 1.356 . S
N1204 H1216 0.984 . S
N1204 H1217 0.985 . S
N1205 C1207 1.356 . S
N1205 H1210 0.984 . S
N1205 H1211 0.985 . S
C1206 C1200 1.379 1_554 S
C1206 C1203 1.363 . S
C1206 N1204 1.356 . S
C1207 C1201 1.363 . S
C1207 C1202 1.379 1_556 S
C1207 N1205 1.356 . S
N1208 C1200 1.356 . S
N1208 H1214 0.984 . S
N1208 H1215 0.984 . S
N1209 C1202 1.356 . S
N1209 H1212 0.984 . S
N1209 H1213 0.985 . S
H1210 N1205 0.984 . S
H1211 N1205 0.985 . S
H1212 N1209 0.984 . S
H1213 N1209 0.985 . S
H1214 N1208 0.984 . S
H1215 N1208 0.984 . S
H1216 N1204 0.984 . S
H1217 N1204 0.985 . S
C1218 C1219 1.363 . S
C1218 C1224 1.360 1_655 S
C1218 N1226 1.356 . S
C1219 C1218 1.363 . S
C1219 C1225 1.401 . S
C1220 C1221 1.363 . S
C1220 C1225 1.360 1_455 S
C1220 N1227 1.356 . S
C1221 C1220 1.363 . S
C1221 C1224 1.400 . S
N1222 C1224 1.350 . S
N1222 H1234 0.953 1_455 S
N1222 H1235 0.985 . S
N1223 C1225 1.350 . S
N1223 H1228 0.984 . S
N1223 H1229 0.953 1_655 S
C1224 C1218 1.360 1_455 S
C1224 C1221 1.400 . S
C1224 N1222 1.350 . S
C1225 C1219 1.401 . S
C1225 C1220 1.360 1_655 S
C1225 N1223 1.350 . S
N1226 C1218 1.356 . S
N1226 H1232 0.984 . S
N1226 H1233 0.984 . S
N1227 C1220 1.356 . S
N1227 H1230 0.984 . S
N1227 H1231 0.985 . S
H1228 N1223 0.984 . S
H1229 N1223 0.953 1_455 S
H1230 N1227 0.984 . S
H1231 N1227 0.985 . S
H1232 N1226 0.984 . S
H1233 N1226 0.984 . S
H1234 N1222 0.953 1_655 S
H1235 N1222 0.985 . S
C1236 C1237 1.363 1_565 S
C1236 C1242 1.379 1_556 S
C1236 N1244 1.356 . S
C1237 C1236 1.363 1_545 S
C1237 C1243 1.363 . S
C1238 C1239 1.363 1_545 S
C1238 C1243 1.379 1_554 S
C1238 N1245 1.356 . S
C1239 C1238 1.363 1_565 S
C1239 C1242 1.363 . S
N1240 C1242 1.356 . S
N1240 H1252 0.984 . S
N1240 H1253 0.985 . S
N1241 C1243 1.356 . S
N1241 H1246 0.984 . S
N1241 H1247 0.985 . S
C1242 C1236 1.379 1_554 S
C1242 C1239 1.363 . S
C1242 N1240 1.356 . S
C1243 C1237 1.363 . S
C1243 C1238 1.379 1_556 S
C1243 N1241 1.356 . S
N1244 C1236 1.356 . S
N1244 H1250 0.984 . S
N1244 H1251 0.984 1_565 S
N1245 C1238 1.356 . S
N1245 H1248 0.984 1_545 S
N1245 H1249 0.985 . S
H1246 N1241 0.984 . S
H1247 N1241 0.985 . S
H1248 N1245 0.984 1_565 S
H1249 N1245 0.985 . S
H1250 N1244 0.984 . S
H1251 N1244 0.984 1_545 S
H1252 N1240 0.984 . S
H1253 N1240 0.985 . S
C1254 C1255 1.363 . S
C1254 C1260 1.379 . S
C1254 N1262 1.356 . S
C1255 C1254 1.363 . S
C1255 C1261 1.363 . S
C1256 C1257 1.363 . S
C1256 C1261 1.379 . S
C1256 N1263 1.356 . S
C1257 C1256 1.363 . S
C1257 C1260 1.363 . S
N1258 C1260 1.356 . S
N1258 H1270 0.984 . S
N1258 H1271 0.985 . S
N1259 C1261 1.356 . S
N1259 H1264 0.984 . S
N1259 H1265 0.985 . S
C1260 C1254 1.379 . S
C1260 C1257 1.363 . S
C1260 N1258 1.356 . S
C1261 C1255 1.363 . S
C1261 C1256 1.379 . S
C1261 N1259 1.356 . S
N1262 C1254 1.356 . S
N1262 H1268 0.984 . S
N1262 H1269 0.984 . S
N1263 C1256 1.356 . S
N1263 H1266 0.984 . S
N1263 H1267 0.985 . S
H1264 N1259 0.984 . S
H1265 N1259 0.985 . S
H1266 N1263 0.984 . S
H1267 N1263 0.985 . S
H1268 N1262 0.984 . S
H1269 N1262 0.984 . S
H1270 N1258 0.984 . S
H1271 N1258 0.985 . S
C1272 C1273 1.363 . S
C1272 C1278 1.379 . S
C1272 N1280 1.356 . S
C1273 C1272 1.363 . S
C1273 C1279 1.363 . S
C1274 C1275 1.363 . S
C1274 C1279 1.379 . S
C1274 N1281 1.356 . S
C1275 C1274 1.363 . S
C1275 C1278 1.363 . S
N1276 C1278 1.356 . S
N1276 H1288 0.984 . S
N1276 H1289 0.985 . S
N1277 C1279 1.356 . S
N1277 H1282 0.984 . S
N1277 H1283 0.985 . S
C1278 C1272 1.379 . S
C1278 C1275 1.363 . S
C1278 N1276 1.356 . S
C1279 C1273 1.363 . S
C1279 C1274 1.379 . S
C1279 N1277 1.356 . S
N1280 C1272 1.356 . S
N1280 H1286 0.984 . S
N1280 H1287 0.984 . S
N1281 C1274 1.356 . S
N1281 H1284 0.984 . S
N1281 H1285 0.985 . S
H1282 N1277 0.984 . S
H1283 N1277 0.985 . S
H1284 N1281 0.984 . S
H1285 N1281 0.985 . S
H1286 N1280 0.984 . S
H1287 N1280 0.984 . S
H1288 N1276 0.984 . S
H1289 N1276 0.985 . S
C1290 C1291 1.363 . S
C1290 C1296 1.379 . S
C1290 N1298 1.356 . S
C1291 C1290 1.363 . S
C1291 C1297 1.363 . S
C1292 C1293 1.363 . S
C1292 C1297 1.379 . S
C1292 N1299 1.356 . S
C1293 C1292 1.363 . S
C1293 C1296 1.363 . S
N1294 C1296 1.356 . S
N1294 H1306 0.984 . S
N1294 H1307 0.985 . S
N1295 C1297 1.356 . S
N1295 H1300 0.984 . S
N1295 H1301 0.985 . S
C1296 C1290 1.379 . S
C1296 C1293 1.363 . S
C1296 N1294 1.356 . S
C1297 C1291 1.363 . S
C1297 C1292 1.379 . S
C1297 N1295 1.356 . S
N1298 C1290 1.356 . S
N1298 H1304 0.984 . S
N1298 H1305 0.984 . S
N1299 C1292 1.356 . S
N1299 H1302 0.984 . S
N1299 H1303 0.985 . S
H1300 N1295 0.984 . S
H1301 N1295 0.985 . S
H1302 N1299 0.984 . S
H1303 N1299 0.985 . S
H1304 N1298 0.984 . S
H1305 N1298 0.984 . S
H1306 N1294 0.984 . S
H1307 N1294 0.985 . S
C1308 C1309 1.363 . S
C1308 C1314 1.379 . S
C1308 N1316 1.356 . S
C1309 C1308 1.363 . S
C1309 C1315 1.363 . S
C1310 C1311 1.363 . S
C1310 C1315 1.379 . S
C1310 N1317 1.356 . S
C1311 C1310 1.363 . S
C1311 C1314 1.363 . S
N1312 C1314 1.356 . S
N1312 H1324 0.984 . S
N1312 H1325 0.985 . S
N1313 C1315 1.356 . S
N1313 H1318 0.984 . S
N1313 H1319 0.985 . S
C1314 C1308 1.379 . S
C1314 C1311 1.363 . S
C1314 N1312 1.356 . S
C1315 C1309 1.363 . S
C1315 C1310 1.379 . S
C1315 N1313 1.356 . S
N1316 C1308 1.356 . S
N1316 H1322 0.984 . S
N1316 H1323 0.984 . S
N1317 C1310 1.356 . S
N1317 H1320 0.984 . S
N1317 H1321 0.985 . S
H1318 N1313 0.984 . S
H1319 N1313 0.985 . S
H1320 N1317 0.984 . S
H1321 N1317 0.985 . S
H1322 N1316 0.984 . S
H1323 N1316 0.984 . S
H1324 N1312 0.984 . S
H1325 N1312 0.985 . S
C1326 C1327 1.363 . S
C1326 C1332 1.379 . S
C1326 N1334 1.356 . S
C1327 C1326 1.363 . S
C1327 C1333 1.363 . S
C1328 C1329 1.363 . S
C1328 C1333 1.379 . S
C1328 N1335 1.356 . S
C1329 C1328 1.363 . S
C1329 C1332 1.363 . S
N1330 C1332 1.356 . S
N1330 H1342 0.984 . S
N1330 H1343 0.985 . S
N1331 C1333 1.356 . S
N1331 H1336 0.984 . S
N1331 H1337 0.985 . S
C1332 C1326 1.379 . S
C1332 C1329 1.363 . S
C1332 N1330 1.356 . S
C1333 C1327 1.363 . S
C1333 C1328 1.379 . S
C1333 N1331 1.356 . S
N1334 C1326 1.356 . S
N1334 H1340 0.984 . S
N1334 H1341 0.984 . S
N1335 C1328 1.356 . S
N1335 H1338 0.984 . S
N1335 H1339 0.985 . S
H1336 N1331 0.984 . S
H1337 N1331 0.985 . S
H1338 N1335 0.984 . S
H1339 N1335 0.985 . S
H1340 N1334 0.984 . S
H1341 N1334 0.984 . S
H1342 N1330 0.984 . S
H1343 N1330 0.985 . S
C1344 C1345 1.363 . S
C1344 C1350 1.379 . S
C1344 N1352 1.356 . S
C1345 C1344 1.363 . S
C1345 C1351 1.363 . S
C1346 C1347 1.363 . S
C1346 C1351 1.379 . S
C1346 N1353 1.356 . S
C1347 C1346 1.363 . S
C1347 C1350 1.363 . S
N1348 C1350 1.356 . S
N1348 H1360 0.984 . S
N1348 H1361 0.985 . S
N1349 C1351 1.356 . S
N1349 H1354 0.984 . S
N1349 H1355 0.985 . S
C1350 C1344 1.379 . S
C1350 C1347 1.363 . S
C1350 N1348 1.356 . S
C1351 C1345 1.363 . S
C1351 C1346 1.379 . S
C1351 N1349 1.356 . S
N1352 C1344 1.356 . S
N1352 H1358 0.984 . S
N1352 H1359 0.984 . S
N1353 C1346 1.356 . S
N1353 H1356 0.984 . S
N1353 H1357 0.985 . S
H1354 N1349 0.984 . S
H1355 N1349 0.985 . S
H1356 N1353 0.984 . S
H1357 N1353 0.985 . S
H1358 N1352 0.984 . S
H1359 N1352 0.984 . S
H1360 N1348 0.984 . S
H1361 N1348 0.985 . S
C1362 C1363 1.363 . S
C1362 C1368 1.379 . S
C1362 N1370 1.356 . S
C1363 C1362 1.363 . S
C1363 C1369 1.363 . S
C1364 C1365 1.363 . S
C1364 C1369 1.379 . S
C1364 N1371 1.356 . S
C1365 C1364 1.363 . S
C1365 C1368 1.363 . S
N1366 C1368 1.356 . S
N1366 H1378 0.984 . S
N1366 H1379 0.985 . S
N1367 C1369 1.356 . S
N1367 H1372 0.984 . S
N1367 H1373 0.985 . S
C1368 C1362 1.379 . S
C1368 C1365 1.363 . S
C1368 N1366 1.356 . S
C1369 C1363 1.363 . S
C1369 C1364 1.379 . S
C1369 N1367 1.356 . S
N1370 C1362 1.356 . S
N1370 H1376 0.984 . S
N1370 H1377 0.984 . S
N1371 C1364 1.356 . S
N1371 H1374 0.984 . S
N1371 H1375 0.985 . S
H1372 N1367 0.984 . S
H1373 N1367 0.985 . S
H1374 N1371 0.984 . S
H1375 N1371 0.985 . S
H1376 N1370 0.984 . S
H1377 N1370 0.984 . S
H1378 N1366 0.984 . S
H1379 N1366 0.985 . S
C1380 C1381 1.363 . S
C1380 C1386 1.379 . S
C1380 N1388 1.356 . S
C1381 C1380 1.363 . S
C1381 C1387 1.363 . S
C1382 C1383 1.363 . S
C1382 C1387 1.379 . S
C1382 N1389 1.356 . S
C1383 C1382 1.363 . S
C1383 C1386 1.363 . S
N1384 C1386 1.356 . S
N1384 H1396 0.984 . S
N1384 H1397 0.985 . S
N1385 C1387 1.356 . S
N1385 H1390 0.984 . S
N1385 H1391 0.985 . S
C1386 C1380 1.379 . S
C1386 C1383 1.363 . S
C1386 N1384 1.356 . S
C1387 C1381 1.363 . S
C1387 C1382 1.379 . S
C1387 N1385 1.356 . S
N1388 C1380 1.356 . S
N1388 H1394 0.984 . S
N1388 H1395 0.984 . S
N1389 C1382 1.356 . S
N1389 H1392 0.984 . S
N1389 H1393 0.985 . S
H1390 N1385 0.984 . S
H1391 N1385 0.985 . S
H1392 N1389 0.984 . S
H1393 N1389 0.985 . S
H1394 N1388 0.984 . S
H1395 N1388 0.984 . S
H1396 N1384 0.984 . S
H1397 N1384 0.985 . S
C1398 C1399 1.363 . S
C1398 C1404 1.379 . S
C1398 N1406 1.356 . S
C1399 C1398 1.363 . S
C1399 C1405 1.363 . S
C1400 C1401 1.363 . S
C1400 C1405 1.379 . S
C1400 N1407 1.356 . S
C1401 C1400 1.363 . S
C1401 C1404 1.363 . S
N1402 C1404 1.356 . S
N1402 H1414 0.984 . S
N1402 H1415 0.985 . S
N1403 C1405 1.356 . S
N1403 H1408 0.984 . S
N1403 H1409 0.985 . S
C1404 C1398 1.379 . S
C1404 C1401 1.363 . S
C1404 N1402 1.356 . S
C1405 C1399 1.363 . S
C1405 C1400 1.379 . S
C1405 N1403 1.356 . S
N1406 C1398 1.356 . S
N1406 H1412 0.984 . S
N1406 H1413 0.984 . S
N1407 C1400 1.356 . S
N1407 H1410 0.984 . S
N1407 H1411 0.985 . S
H1408 N1403 0.984 . S
H1409 N1403 0.985 . S
H1410 N1407 0.984 . S
H1411 N1407 0.985 . S
H1412 N1406 0.984 . S
H1413 N1406 0.984 . S
H1414 N1402 0.984 . S
H1415 N1402 0.985 . S
C1416 C1417 1.363 . S
C1416 C1422 1.379 . S
C1416 N1424 1.356 . S
C1417 C1416 1.363 . S
C1417 C1423 1.363 . S
C1418 C1419 1.363 . S
C1418 C1423 1.379 . S
C1418 N1425 1.356 . S
C1419 C1418 1.363 . S
C1419 C1422 1.363 . S
N1420 C1422 1.356 . S
N1420 H1432 0.984 . S
N1420 H1433 0.985 . S
N1421 C1423 1.356 . S
N1421 H1426 0.984 . S
N1421 H1427 0.985 . S
C1422 C1416 1.379 . S
C1422 C1419 1.363 . S
C1422 N1420 1.356 . S
C1423 C1417 1.363 . S
C1423 C1418 1.379 . S
C1423 N1421 1.356 . S
N1424 C1416 1.356 . S
N1424 H1430 0.984 . S
N1424 H1431 0.984 . S
N1425 C1418 1.356 . S
N1425 H1428 0.984 . S
N1425 H1429 0.985 . S
H1426 N1421 0.984 . S
H1427 N1421 0.985 . S
H1428 N1425 0.984 . S
H1429 N1425 0.985 . S
H1430 N1424 0.984 . S
H1431 N1424 0.984 . S
H1432 N1420 0.984 . S
H1433 N1420 0.985 . S
C1434 C1435 1.363 . S
C1434 C1440 1.379 . S
C1434 N1442 1.356 . S
C1435 C1434 1.363 . S
C1435 C1441 1.363 . S
C1436 C1437 1.363 . S
C1436 C1441 1.379 . S
C1436 N1443 1.356 . S
C1437 C1436 1.363 . S
C1437 C1440 1.363 . S
N1438 C1440 1.356 . S
N1438 H1450 0.984 . S
N1438 H1451 0.985 . S
N1439 C1441 1.356 . S
N1439 H1444 0.984 . S
N1439 H1445 0.985 . S
C1440 C1434 1.379 . S
C1440 C1437 1.363 . S
C1440 N1438 1.356 . S
C1441 C1435 1.363 . S
C1441 C1436 1.379 . S
C1441 N1439 1.356 . S
N1442 C1434 1.356 . S
N1442 H1448 0.984 . S
N1442 H1449 0.984 . S
N1443 C1436 1.356 . S
N1443 H1446 0.984 . S
N1443 H1447 0.985 . S
H1444 N1439 0.984 . S
H1445 N1439 0.985 . S
H1446 N1443 0.984 . S
H1447 N1443 0.985 . S
H1448 N1442 0.984 . S
H1449 N1442 0.984 . S
H1450 N1438 0.984 . S
H1451 N1438 0.985 . S
C1452 C1453 1.363 . S
C1452 C1458 1.379 . S
C1452 N1460 1.356 . S
C1453 C1452 1.363 . S
C1453 C1459 1.363 . S
C1454 C1455 1.363 . S
C1454 C1459 1.379 . S
C1454 N1461 1.356 . S
C1455 C1454 1.363 . S
C1455 C1458 1.363 . S
N1456 C1458 1.356 . S
N1456 H1468 0.984 . S
N1456 H1469 0.985 . S
N1457 C1459 1.356 . S
N1457 H1462 0.984 . S
N1457 H1463 0.985 . S
C1458 C1452 1.379 . S
C1458 C1455 1.363 . S
C1458 N1456 1.356 . S
C1459 C1453 1.363 . S
C1459 C1454 1.379 . S
C1459 N1457 1.356 . S
N1460 C1452 1.356 . S
N1460 H1466 0.984 . S
N1460 H1467 0.984 . S
N1461 C1454 1.356 . S
N1461 H1464 0.984 . S
N1461 H1465 0.985 . S
H1462 N1457 0.984 . S
H1463 N1457 0.985 . S
H1464 N1461 0.984 . S
H1465 N1461 0.985 . S
H1466 N1460 0.984 . S
H1467 N1460 0.984 . S
H1468 N1456 0.984 . S
H1469 N1456 0.985 . S
C1470 C1471 1.363 . S
C1470 C1476 1.379 . S
C1470 N1478 1.356 . S
C1471 C1470 1.363 . S
C1471 C1477 1.363 . S
C1472 C1473 1.363 . S
C1472 C1477 1.379 . S
C1472 N1479 1.356 . S
C1473 C1472 1.363 . S
C1473 C1476 1.363 . S
N1474 C1476 1.356 . S
N1474 H1486 0.984 . S
N1474 H1487 0.985 . S
N1475 C1477 1.356 . S
N1475 H1480 0.984 . S
N1475 H1481 0.985 . S
C1476 C1470 1.379 . S
C1476 C1473 1.363 . S
C1476 N1474 1.356 . S
C1477 C1471 1.363 . S
C1477 C1472 1.379 . S
C1477 N1475 1.356 . S
N1478 C1470 1.356 . S
N1478 H1484 0.984 . S
N1478 H1485 0.984 . S
N1479 C1472 1.356 . S
N1479 H1482 0.984 . S
N1479 H1483 0.985 . S
H1480 N1475 0.984 . S
H1481 N1475 0.985 . S
H1482 N1479 0.984 . S
H1483 N1479 0.985 . S
H1484 N1478 0.984 . S
H1485 N1478 0.984 . S
H1486 N1474 0.984 . S
H1487 N1474 0.985 . S
C1057 C57 1.494 . S
C1059 C997 1.494 . S
C1075 C548 1.494 . S
C1077 C145 1.494 . S
C1093 C225 1.494 . S
C1095 C636 1.494 . S
C1111 C733 1.494 . S
C1113 C321 1.494 . S
C1129 C821 1.494 . S
C1131 C401 1.494 . S
C1147 C900 1.494 . S
C1149 C497 1.494 . S
C1165 C293 1.495 . S
C1167 C761 1.495 . S
C1183 C372 1.495 . S
C1185 C849 1.495 . S
C1201 C469 1.495 . S
C1203 C929 1.495 . S
C1219 C1025 1.495 . S
C1221 C29 1.495 . S
C1237 C117 1.495 . S
C1239 C577 1.495 . S
C1255 C196 1.495 . S
C1257 C665 1.495 . S
C1273 C753 1.488 . S
C1275 C20 1.488 . S
C1291 C841 1.488 . S
C1293 C108 1.488 . S
C1309 C205 1.488 . S
C1311 C937 1.488 . S
C1327 C284 1.488 . S
C1329 C1017 1.488 . S
C1345 C381 1.488 . S
C1347 C585 1.488 . S
C1363 C673 1.488 . S
C1365 C460 1.488 . S
C1381 C49 1.117 . S
C1383 C909 1.117 . S
C1399 C988 1.117 . S
C1401 C137 1.117 . S
C1417 C233 1.117 . S
C1419 C557 1.117 . S
C1435 C313 1.117 . S
C1437 C645 1.117 . S
C1453 C409 1.117 . S
C1455 C724 1.117 . S
C1471 C489 1.117 . S
C1473 C812 1.117 . S
