# Generated by pormake.
# Topology uoy, (4)-cn, num edge types: 1
# Building blocks:
#     Node 0, Type 0, BuildingBlock: ICAMEG_clean_sbu_1, # of connection points: 4
#     Node 1, Type 0, BuildingBlock: ICAMEG_clean_sbu_1, # of connection points: 4
#     Node 2, Type 0, BuildingBlock: ICAMEG_clean_sbu_1, # of connection points: 4
#     Node 3, Type 0, BuildingBlock: ICAMEG_clean_sbu_1, # of connection points: 4
#     Node 4, Type 0, BuildingBlock: ICAMEG_clean_sbu_1, # of connection points: 4
#     Node 5, Type 0, BuildingBlock: ICAMEG_clean_sbu_1, # of connection points: 4
#     Node 6, Type 0, BuildingBlock: ICAMEG_clean_sbu_1, # of connection points: 4
#     Node 7, Type 0, BuildingBlock: ICAMEG_clean_sbu_1, # of connection points: 4
#     Node 8, Type 0, BuildingBlock: ICAMEG_clean_sbu_1, # of connection points: 4
#     Node 9, Type 0, BuildingBlock: ICAMEG_clean_sbu_1, # of connection points: 4
#     Node 10, Type 0, BuildingBlock: ICAMEG_clean_sbu_1, # of connection points: 4
#     Node 11, Type 0, BuildingBlock: ICAMEG_clean_sbu_1, # of connection points: 4
#     Node 12, Type 0, BuildingBlock: ICAMEG_clean_sbu_1, # of connection points: 4
#     Node 13, Type 0, BuildingBlock: ICAMEG_clean_sbu_1, # of connection points: 4
#     Node 14, Type 0, BuildingBlock: ICAMEG_clean_sbu_1, # of connection points: 4
#     Node 15, Type 0, BuildingBlock: ICAMEG_clean_sbu_1, # of connection points: 4
#     Edge 16, Type (0, 0), BuildingBlock: EZIPEK_clean_linker_0, # of connection points: 2
#     Edge 17, Type (0, 0), BuildingBlock: EZIPEK_clean_linker_0, # of connection points: 2
#     Edge 18, Type (0, 0), BuildingBlock: EZIPEK_clean_linker_0, # of connection points: 2
#     Edge 19, Type (0, 0), BuildingBlock: EZIPEK_clean_linker_0, # of connection points: 2
#     Edge 20, Type (0, 0), BuildingBlock: EZIPEK_clean_linker_0, # of connection points: 2
#     Edge 21, Type (0, 0), BuildingBlock: EZIPEK_clean_linker_0, # of connection points: 2
#     Edge 22, Type (0, 0), BuildingBlock: EZIPEK_clean_linker_0, # of connection points: 2
#     Edge 23, Type (0, 0), BuildingBlock: EZIPEK_clean_linker_0, # of connection points: 2
#     Edge 24, Type (0, 0), BuildingBlock: EZIPEK_clean_linker_0, # of connection points: 2
#     Edge 25, Type (0, 0), BuildingBlock: EZIPEK_clean_linker_0, # of connection points: 2
#     Edge 26, Type (0, 0), BuildingBlock: EZIPEK_clean_linker_0, # of connection points: 2
#     Edge 27, Type (0, 0), BuildingBlock: EZIPEK_clean_linker_0, # of connection points: 2
#     Edge 28, Type (0, 0), BuildingBlock: EZIPEK_clean_linker_0, # of connection points: 2
#     Edge 29, Type (0, 0), BuildingBlock: EZIPEK_clean_linker_0, # of connection points: 2
#     Edge 30, Type (0, 0), BuildingBlock: EZIPEK_clean_linker_0, # of connection points: 2
#     Edge 31, Type (0, 0), BuildingBlock: EZIPEK_clean_linker_0, # of connection points: 2
#     Edge 32, Type (0, 0), BuildingBlock: EZIPEK_clean_linker_0, # of connection points: 2
#     Edge 33, Type (0, 0), BuildingBlock: EZIPEK_clean_linker_0, # of connection points: 2
#     Edge 34, Type (0, 0), BuildingBlock: EZIPEK_clean_linker_0, # of connection points: 2
#     Edge 35, Type (0, 0), BuildingBlock: EZIPEK_clean_linker_0, # of connection points: 2
#     Edge 36, Type (0, 0), BuildingBlock: EZIPEK_clean_linker_0, # of connection points: 2
#     Edge 37, Type (0, 0), BuildingBlock: EZIPEK_clean_linker_0, # of connection points: 2
#     Edge 38, Type (0, 0), BuildingBlock: EZIPEK_clean_linker_0, # of connection points: 2
#     Edge 39, Type (0, 0), BuildingBlock: EZIPEK_clean_linker_0, # of connection points: 2
#     Edge 40, Type (0, 0), BuildingBlock: EZIPEK_clean_linker_0, # of connection points: 2
#     Edge 41, Type (0, 0), BuildingBlock: EZIPEK_clean_linker_0, # of connection points: 2
#     Edge 42, Type (0, 0), BuildingBlock: EZIPEK_clean_linker_0, # of connection points: 2
#     Edge 43, Type (0, 0), BuildingBlock: EZIPEK_clean_linker_0, # of connection points: 2
#     Edge 44, Type (0, 0), BuildingBlock: EZIPEK_clean_linker_0, # of connection points: 2
#     Edge 45, Type (0, 0), BuildingBlock: EZIPEK_clean_linker_0, # of connection points: 2
#     Edge 46, Type (0, 0), BuildingBlock: EZIPEK_clean_linker_0, # of connection points: 2
#     Edge 47, Type (0, 0), BuildingBlock: EZIPEK_clean_linker_0, # of connection points: 2
# Relax obj value: 0.021
# Max RMSD: 0.072
# Mean RMSD: 0.072
data_MOF--net-uoy--node1-ICAMEG_clean_sbu_1--edge1-EZIPEK_clean_linker_0
_symmetry_space_group_name_H-M    P1
_symmetry_Int_Tables_number       1
_symmetry_cell_setting            triclinic
loop_
_symmetry_equiv_pos_as_xyz
'x, y, z'
_cell_length_a     21.656843
_cell_length_b     21.645909
_cell_length_c     87.492027
_cell_angle_alpha  89.921396
_cell_angle_beta   89.773434
_cell_angle_gamma 89.98859
loop_
_atom_site_label
_atom_site_type_symbol
_atom_site_fract_x
_atom_site_fract_y
_atom_site_fract_z
_atom_type_partial_charge
Co0 Co 0.33157 0.1886 0.19446 0.0
Co1 Co 0.27695 0.04582 0.20427 0.0
O2 O 0.26753 0.12401 0.19297 0.0
C3 C 0.30179 0.18725 0.16093 0.0
O4 O 0.31069 0.12725 0.16095 0.0
C5 C 0.14197 0.07488 0.20866 0.0
O6 O 0.15351 0.13408 0.21013 0.0
O7 O 0.28276 0.09372 0.2238 0.0
O8 O 0.3497 0.16632 0.21629 0.0
H9 H 0.37215 0.90979 0.24423 0.0
H10 H 0.20448 0.22066 0.1849 0.0
O11 O 0.31353 0.21723 0.17304 0.0
H12 H 0.24437 0.34879 0.23035 0.0
H13 H 0.42192 0.40144 0.18699 0.0
H14 H 0.46066 0.18983 0.20546 0.0
H15 H 0.32469 0.27906 0.2203 0.0
H16 H 0.34045 0.32227 0.18569 0.0
O17 O 0.18545 0.03652 0.20658 0.0
H18 H 0.35959 1.00491 0.22914 0.0
H19 H 0.21256 0.92338 0.20432 0.0
H20 H 0.5432 0.26774 0.20724 0.0
H21 H 0.12313 0.29053 0.19444 0.0
H22 H 0.52413 0.37453 0.19794 0.0
H23 H 0.14276 0.35508 0.21737 0.0
O24 O 0.39529 0.12787 0.18696 0.0
H25 H 0.1885 0.9976 0.15266 0.0
H26 H 0.35063 0.94422 0.18983 0.0
H27 H 0.34708 0.88993 0.16511 0.0
H28 H 0.26547 0.91639 0.14633 0.0
H29 H 0.19435 0.05151 0.17743 0.0
H30 H 0.22331 0.8272 0.21921 0.0
H31 H 0.30377 0.81978 0.23928 0.0
O32 O 0.3679 0.04854 0.20193 0.0
C33 C 0.31882 0.13906 0.22678 0.0
C34 C 0.33719 0.91213 0.23545 0.0
C35 C 0.25357 0.86593 0.22143 0.0
N36 N 0.28596 0.96955 0.21573 0.0
C37 C 0.32999 0.96592 0.22683 0.0
C38 C 0.24766 0.92056 0.21304 0.0
C39 C 0.29874 0.86179 0.23269 0.0
C40 C 0.21363 0.24909 0.19478 0.0
N41 N 0.26946 0.24599 0.20195 0.0
C42 C 0.16729 0.28841 0.20017 0.0
C43 C 0.1783 0.32453 0.21304 0.0
C44 C 0.23528 0.32102 0.22033 0.0
C45 C 0.28055 0.28128 0.2146 0.0
C46 C 0.43078 0.35512 0.19111 0.0
C47 C 0.45174 0.23625 0.20153 0.0
C48 C 0.38482 0.30998 0.19034 0.0
N49 N 0.39542 0.2515 0.19563 0.0
C50 C 0.49879 0.28016 0.2025 0.0
C51 C 0.48809 0.34001 0.19726 0.0
C52 C 0.40574 0.07478 0.19287 0.0
C53 C 0.22414 0.9855 0.16077 0.0
C54 C 0.31503 0.95616 0.18172 0.0
C55 C 0.3132 0.92514 0.16774 0.0
C56 C 0.26739 0.94001 0.15722 0.0
N57 N 0.27244 1.00079 0.18512 0.0
C58 C 0.22749 0.01566 0.17484 0.0
Co59 Co 0.81729 0.80007 0.43977 0.0
Co60 Co 0.97554 0.77932 0.44636 0.0
O61 O 0.89596 0.75524 0.43711 0.0
C62 C 0.78736 0.8315 0.40731 0.0
O63 O 0.80397 0.88872 0.41002 0.0
C64 C 0.96983 0.63877 0.4506 0.0
O65 O 0.91417 0.63625 0.44481 0.0
O66 O 0.93497 0.79427 0.46689 0.0
O67 O 0.83442 0.81108 0.46183 0.0
H68 H 0.11519 0.92069 0.47613 0.0
H69 H 0.81481 0.67832 0.42431 0.0
O70 O 0.79654 0.78937 0.41734 0.0
H71 H 0.68614 0.65284 0.47051 0.0
H72 H 0.58951 0.83431 0.43167 0.0
H73 H 0.77472 0.9057 0.45898 0.0
H74 H 0.7347 0.75309 0.46463 0.0
H75 H 0.68943 0.78226 0.42784 0.0
O76 O 0.99663 0.6908 0.4525 0.0
H77 H 0.01768 0.88773 0.46444 0.0
H78 H 0.10334 0.72539 0.44746 0.0
H79 H 0.67587 0.95935 0.46304 0.0
H80 H 0.76615 0.57748 0.42961 0.0
H81 H 0.58224 0.92386 0.4493 0.0
H82 H 0.7016 0.56415 0.45291 0.0
O83 O 0.85887 0.88182 0.43561 0.0
H84 H 0.0077 0.67478 0.39543 0.0
H85 H 0.07128 0.84744 0.42846 0.0
H86 H 0.1197 0.83512 0.40317 0.0
H87 H 0.08812 0.74821 0.38643 0.0
H88 H 0.96109 0.68814 0.42084 0.0
H89 H 0.20177 0.75612 0.4591 0.0
H90 H 0.20837 0.85458 0.47354 0.0
O91 O 0.95979 0.8667 0.44042 0.0
C92 C 0.87973 0.80818 0.47097 0.0
C93 C 0.11288 0.87748 0.46994 0.0
C94 C 0.1614 0.78515 0.4604 0.0
N95 N 0.05394 0.8042 0.4554 0.0
C96 C 0.05751 0.8585 0.46329 0.0
C97 C 0.1052 0.76769 0.45391 0.0
C98 C 0.16511 0.84041 0.46848 0.0
C99 C 0.78621 0.67307 0.43438 0.0
N100 N 0.77775 0.72152 0.44415 0.0
C101 C 0.75901 0.61579 0.43736 0.0
C102 C 0.72287 0.60831 0.45045 0.0
C103 C 0.71423 0.65802 0.46033 0.0
C104 C 0.74211 0.71463 0.45697 0.0
C105 C 0.63012 0.85076 0.43758 0.0
C106 C 0.73471 0.89071 0.45268 0.0
C107 C 0.68708 0.82177 0.43536 0.0
N108 N 0.7388 0.84248 0.44268 0.0
C109 C 0.67859 0.92096 0.45515 0.0
C110 C 0.62606 0.90094 0.44748 0.0
C111 C 0.9148 0.90082 0.43636 0.0
C112 C 0.02239 0.71245 0.40268 0.0
C113 C 0.05806 0.80864 0.42144 0.0
C114 C 0.08535 0.80226 0.40704 0.0
C115 C 0.06747 0.75365 0.39764 0.0
N116 N 0.01478 0.76727 0.42649 0.0
C117 C 0.99613 0.72028 0.41715 0.0
Co118 Co 0.17476 0.34645 0.6895 0.0
Co119 Co 0.24668 0.4743 0.70439 0.0
O120 O 0.2459 0.4033 0.69031 0.0
C121 C 0.21037 0.36245 0.65619 0.0
O122 O 0.22799 0.41983 0.65822 0.0
C123 C 0.37958 0.42773 0.70544 0.0
O124 O 0.36342 0.36972 0.70373 0.0
O125 O 0.23183 0.41624 0.72213 0.0
O126 O 0.15877 0.3557 0.71185 0.0
H127 H 0.17807 0.59475 0.75057 0.0
H128 H 0.29619 0.30567 0.67748 0.0
O129 O 0.18796 0.33096 0.66713 0.0
H130 H 0.24354 0.15614 0.71802 0.0
H131 H 0.06261 0.15368 0.67314 0.0
H132 H 0.04509 0.3512 0.7007 0.0
H133 H 0.17213 0.24084 0.71162 0.0
H134 H 0.15203 0.22356 0.67503 0.0
O135 O 0.33897 0.46979 0.70673 0.0
H136 H 0.17545 0.50879 0.73227 0.0
H137 H 0.32549 0.5869 0.70759 0.0
H138 H 0.95473 0.28251 0.69925 0.0
H139 H 0.36842 0.2209 0.6833 0.0
H140 H 0.96312 0.18279 0.68538 0.0
H141 H 0.34239 0.14552 0.70377 0.0
O142 O 0.11863 0.41814 0.68519 0.0
H143 H 0.34634 0.54173 0.65513 0.0
H144 H 0.1883 0.59228 0.69386 0.0
H145 H 0.20201 0.66062 0.67156 0.0
H146 H 0.28177 0.63576 0.65204 0.0
H147 H 0.33007 0.47398 0.67743 0.0
H148 H 0.32983 0.6738 0.72568 0.0
H149 H 0.25546 0.67847 0.74732 0.0
O150 O 0.15577 0.48651 0.70205 0.0
C151 C 0.18778 0.37673 0.72336 0.0
C152 C 0.20999 0.5939 0.74105 0.0
C153 C 0.29531 0.63808 0.72712 0.0
N154 N 0.24865 0.54363 0.71851 0.0
C155 C 0.20835 0.54543 0.73054 0.0
C156 C 0.29244 0.58877 0.71687 0.0
C157 C 0.2536 0.64067 0.73926 0.0
C158 C 0.2841 0.27255 0.68623 0.0
N159 N 0.22977 0.27804 0.69409 0.0
C160 C 0.32536 0.22483 0.68954 0.0
C161 C 0.31078 0.18264 0.70105 0.0
C162 C 0.25534 0.18858 0.70905 0.0
C163 C 0.21517 0.23681 0.7054 0.0
C164 C 0.0585 0.19675 0.67933 0.0
C165 C 0.04954 0.30756 0.69491 0.0
C166 C 0.10904 0.23654 0.68047 0.0
N167 N 0.10439 0.2909 0.68835 0.0
C168 C 0.99801 0.26897 0.69401 0.0
C169 C 1.0027 0.21312 0.68619 0.0
C170 C 0.11387 0.46827 0.6929 0.0
C171 C 0.31166 0.55328 0.66359 0.0
C172 C 0.22285 0.58081 0.68538 0.0
C173 C 0.23054 0.61987 0.67279 0.0
C174 C 0.27533 0.60593 0.66185 0.0
N175 N 0.25884 0.5293 0.68705 0.0
C176 C 0.30258 0.51526 0.67631 0.0
Co177 Co 0.68009 0.68027 0.93968 0.0
Co178 Co 0.54896 0.74919 0.95423 0.0
O179 O 0.62124 0.75015 0.94032 0.0
C180 C 0.67748 0.72604 0.90644 0.0
O181 O 0.63257 0.76561 0.90883 0.0
C182 C 0.59225 0.88317 0.95605 0.0
O183 O 0.6505 0.86911 0.95381 0.0
O184 O 0.60552 0.73586 0.97219 0.0
O185 O 0.67043 0.66598 0.96212 0.0
H186 H 0.42594 0.67469 0.99956 0.0
H187 H 0.71583 0.80552 0.92887 0.0
O188 O 0.6963 0.69059 0.91708 0.0
H189 H 0.87048 0.7506 0.96767 0.0
H190 H 0.87529 0.56988 0.92396 0.0
H191 H 0.67773 0.55193 0.9517 0.0
H192 H 0.78663 0.67836 0.96129 0.0
H193 H 0.80367 0.65821 0.92527 0.0
O194 O 0.55118 0.84141 0.95687 0.0
H195 H 0.51403 0.67611 0.98176 0.0
H196 H 0.43418 0.82527 0.95728 0.0
H197 H 0.74827 0.46277 0.95089 0.0
H198 H 0.79976 0.87855 0.93455 0.0
H199 H 0.848 0.47138 0.93692 0.0
H200 H 0.87785 0.85135 0.95416 0.0
O201 O 0.61013 0.62225 0.93534 0.0
H202 H 0.48352 0.84762 0.90483 0.0
H203 H 0.43318 0.68826 0.94322 0.0
H204 H 0.36646 0.70067 0.92068 0.0
H205 H 0.39122 0.78106 0.90132 0.0
H206 H 0.5496 0.83268 0.92741 0.0
H207 H 0.34542 0.82615 0.97497 0.0
H208 H 0.34056 0.75016 0.99624 0.0
O209 O 0.5391 0.65824 0.95177 0.0
C210 C 0.64765 0.69451 0.97356 0.0
C211 C 0.427 0.70748 0.99022 0.0
C212 C 0.38195 0.79255 0.97644 0.0
N213 N 0.4785 0.74907 0.96811 0.0
C214 C 0.47663 0.70802 0.97998 0.0
C215 C 0.43235 0.7917 0.96643 0.0
C216 C 0.37925 0.74993 0.98837 0.0
C217 C 0.75053 0.79255 0.93703 0.0
N218 N 0.74727 0.73684 0.9443 0.0
C219 C 0.79759 0.83445 0.94037 0.0
C220 C 0.84124 0.81926 0.95141 0.0
C221 C 0.83713 0.76276 0.95899 0.0
C222 C 0.78947 0.72202 0.95531 0.0
C223 C 0.83219 0.56568 0.93018 0.0
C224 C 0.72137 0.55648 0.94586 0.0
C225 C 0.79139 0.61557 0.93097 0.0
N226 N 0.73704 0.61084 0.93891 0.0
C227 C 0.761 0.50562 0.94532 0.0
C228 C 0.81686 0.51044 0.93745 0.0
C229 C 0.55928 0.6167 0.94274 0.0
C230 C 0.47205 0.8126 0.91321 0.0
C231 C 0.44459 0.72313 0.93482 0.0
C232 C 0.40646 0.73005 0.92209 0.0
C233 C 0.42035 0.77518 0.91124 0.0
N234 N 0.49512 0.76022 0.93671 0.0
C235 C 0.50915 0.80424 0.92607 0.0
Co236 Co 0.33677 0.30611 0.06889 0.0
Co237 Co 0.28915 0.44466 0.05483 0.0
O238 O 0.2776 0.37538 0.06913 0.0
C239 C 0.28987 0.311 0.10189 0.0
O240 O 0.25448 0.35884 0.09908 0.0
C241 C 0.15118 0.42674 0.05123 0.0
O242 O 0.15943 0.36805 0.04807 0.0
O243 O 0.284 0.38491 0.03744 0.0
O244 O 0.35159 0.31635 0.0462 0.0
H245 H 0.38031 0.54622 0.00821 0.0
H246 H 0.20412 0.29499 0.07809 0.0
O247 O 0.32491 0.28888 0.09151 0.0
H248 H 0.23767 0.12991 0.04031 0.0
H249 H 0.41761 0.09451 0.08266 0.0
H250 H 0.46574 0.29281 0.0576 0.0
H251 H 0.32308 0.19794 0.04782 0.0
H252 H 0.33968 0.17705 0.0814 0.0
O253 O 0.19711 0.46095 0.0545 0.0
H254 H 0.36705 0.46305 0.02723 0.0
H255 H 0.23303 0.57001 0.05095 0.0
H256 H 0.54523 0.21169 0.05868 0.0
H257 H 0.11758 0.22803 0.07092 0.0
H258 H 0.5213 0.11135 0.07116 0.0
H259 H 0.1339 0.14437 0.05194 0.0
O260 O 0.40411 0.36657 0.07357 0.0
H261 H 0.23301 0.53009 0.10643 0.0
H262 H 0.37427 0.54899 0.06236 0.0
H263 H 0.38679 0.61864 0.08437 0.0
H264 H 0.31573 0.6096 0.10663 0.0
H265 H 0.22288 0.46102 0.08419 0.0
H266 H 0.24454 0.65408 0.03211 0.0
H267 H 0.31855 0.64249 0.01057 0.0
O268 O 0.3808 0.43427 0.05512 0.0
C269 C 0.31909 0.33792 0.0353 0.0
C270 C 0.34793 0.55184 0.01757 0.0
C271 C 0.27166 0.61233 0.03097 0.0
N272 N 0.29953 0.51168 0.04025 0.0
C273 C 0.34031 0.50494 0.0284 0.0
C274 C 0.26522 0.56445 0.04158 0.0
C275 C 0.31329 0.60584 0.01889 0.0
C276 C 0.21229 0.25848 0.06999 0.0
N277 N 0.26976 0.2494 0.06386 0.0
C278 C 0.16276 0.2207 0.0659 0.0
C279 C 0.1719 0.17388 0.05524 0.0
C280 C 0.23011 0.16567 0.04874 0.0
C281 C 0.27852 0.20431 0.05312 0.0
C282 C 0.42849 0.13784 0.07708 0.0
C283 C 0.45485 0.24952 0.06312 0.0
C284 C 0.3844 0.18482 0.07631 0.0
N285 N 0.39735 0.2395 0.06912 0.0
C286 C 0.50011 0.2036 0.06365 0.0
C287 C 0.48667 0.14735 0.07065 0.0
C288 C 0.41744 0.41334 0.06524 0.0
C289 C 0.26395 0.53488 0.09676 0.0
C290 C 0.34283 0.54497 0.07194 0.0
C291 C 0.35025 0.58453 0.08439 0.0
C292 C 0.31043 0.57938 0.09687 0.0
N293 N 0.29688 0.5016 0.07187 0.0
C294 C 0.25801 0.49613 0.0841 0.0
Co295 Co 0.65572 0.83271 0.31847 0.0
Co296 Co 0.53038 0.75736 0.30337 0.0
O297 O 0.60005 0.76069 0.31783 0.0
C298 C 0.64882 0.78841 0.35166 0.0
O299 O 0.60641 0.74673 0.34886 0.0
C300 C 0.57938 0.62562 0.30323 0.0
O301 O 0.63706 0.64329 0.30456 0.0
O302 O 0.58987 0.77007 0.28585 0.0
O303 O 0.64874 0.84489 0.29595 0.0
H304 H 0.41503 0.81652 0.25574 0.0
H305 H 0.69532 0.70982 0.33016 0.0
O306 O 0.66839 0.8245 0.3412 0.0
H307 H 0.85302 0.76876 0.29218 0.0
H308 H 0.84257 0.95323 0.33535 0.0
H309 H 0.65041 0.95931 0.30543 0.0
H310 H 0.76529 0.83776 0.29767 0.0
H311 H 0.77532 0.86159 0.33388 0.0
O312 O 0.53627 0.66498 0.30187 0.0
H313 H 0.49842 0.82371 0.27464 0.0
H314 H 0.41886 0.6771 0.30029 0.0
H315 H 0.71649 0.05177 0.30646 0.0
H316 H 0.78306 0.64016 0.32538 0.0
H317 H 0.81348 0.04913 0.32151 0.0
H318 H 0.86272 0.66934 0.30618 0.0
O319 O 0.58259 0.88773 0.32198 0.0
H320 H 0.45892 0.66437 0.35307 0.0
H321 H 0.41099 0.81629 0.31279 0.0
H322 H 0.34101 0.80576 0.3349 0.0
H323 H 0.3646 0.72916 0.35522 0.0
H324 H 0.5282 0.67727 0.33089 0.0
H325 H 0.33438 0.66851 0.28167 0.0
H326 H 0.3318 0.73873 0.25922 0.0
O327 O 0.51684 0.84859 0.30483 0.0
C328 C 0.62902 0.8143 0.28455 0.0
C329 C 0.41492 0.78646 0.26562 0.0
C330 C 0.36985 0.70321 0.28013 0.0
N331 N 0.46261 0.75251 0.2889 0.0
C332 C 0.46192 0.79065 0.27645 0.0
C333 C 0.41777 0.70852 0.29068 0.0
C334 C 0.36844 0.74262 0.26754 0.0
C335 C 0.73058 0.72377 0.32219 0.0
N336 N 0.72598 0.7788 0.31464 0.0
C337 C 0.77986 0.68373 0.31935 0.0
C338 C 0.8244 0.70002 0.30854 0.0
C339 C 0.81899 0.75578 0.30069 0.0
C340 C 0.76914 0.7947 0.30387 0.0
C341 C 0.80061 0.95485 0.32868 0.0
C342 C 0.69282 0.95743 0.31181 0.0
C343 C 0.76229 0.9031 0.3278 0.0
N344 N 0.7094 0.90461 0.31931 0.0
C345 C 0.72995 0.01011 0.31244 0.0
C346 C 0.78427 0.00864 0.32091 0.0
C347 C 0.53306 0.8911 0.31406 0.0
C348 C 0.44803 0.69782 0.34428 0.0
C349 C 0.42196 0.78315 0.32163 0.0
C350 C 0.38195 0.77723 0.3341 0.0
C351 C 0.39518 0.73423 0.34549 0.0
N352 N 0.47378 0.74724 0.32051 0.0
C353 C 0.48701 0.7051 0.33165 0.0
Co354 Co 0.20991 0.20333 0.56744 0.0
Co355 Co 0.25213 0.04841 0.56197 0.0
O356 O 0.2661 0.13171 0.57091 0.0
C357 C 0.23838 0.21218 0.60168 0.0
O358 O 0.27038 0.1608 0.60186 0.0
C359 C 0.39311 0.06285 0.55948 0.0
O360 O 0.39253 0.11932 0.5649 0.0
O361 O 0.2423 0.08533 0.54093 0.0
O362 O 0.2043 0.18053 0.54533 0.0
H363 H 0.12901 0.89117 0.53255 0.0
H364 H 0.336 0.21535 0.58048 0.0
O365 O 0.21288 0.23119 0.58945 0.0
H366 H 0.32905 0.36493 0.53807 0.0
H367 H 0.13338 0.42226 0.57366 0.0
H368 H 0.0964 0.22102 0.54907 0.0
H369 H 0.23874 0.3 0.54405 0.0
H370 H 0.2043 0.33512 0.57803 0.0
O371 O 0.34291 0.03312 0.55765 0.0
H372 H 0.15207 0.99398 0.5429 0.0
H373 H 0.31611 0.92539 0.56322 0.0
H374 H 0.02494 0.30726 0.54419 0.0
H375 H 0.42722 0.27951 0.57501 0.0
H376 H 0.04313 0.40883 0.55656 0.0
H377 H 0.42426 0.35503 0.55362 0.0
O378 O 0.13468 0.15252 0.5723 0.0
H379 H 0.34571 0.02603 0.61432 0.0
H380 H 0.18052 0.95539 0.57993 0.0
H381 H 0.18716 0.91231 0.60592 0.0
H382 H 0.27041 0.94736 0.62332 0.0
H383 H 0.33732 0.06795 0.58825 0.0
H384 H 0.29558 0.82214 0.55277 0.0
H385 H 0.20123 0.80419 0.53735 0.0
O386 O 0.16294 0.05683 0.56561 0.0
C387 C 0.21914 0.13658 0.53629 0.0
C388 C 0.17053 0.89841 0.53916 0.0
C389 C 0.26405 0.85978 0.55046 0.0
N390 N 0.23627 0.96669 0.55341 0.0
C391 C 0.18389 0.95673 0.5451 0.0
C392 C 0.27585 0.91876 0.55622 0.0
C393 C 0.21104 0.84969 0.54185 0.0
C394 C 0.33393 0.24841 0.57129 0.0
N395 N 0.28165 0.25414 0.56274 0.0
C396 C 0.38595 0.2845 0.56818 0.0
C397 C 0.38429 0.3268 0.55618 0.0
C398 C 0.3309 0.33239 0.54746 0.0
C399 C 0.27983 0.29545 0.55092 0.0
C400 C 0.12495 0.37822 0.56821 0.0
C401 C 0.10497 0.26505 0.55441 0.0
C402 C 0.16477 0.32849 0.57071 0.0
N403 N 0.15474 0.27278 0.56377 0.0
C404 C 0.06418 0.31375 0.55165 0.0
C405 C 0.07436 0.37068 0.5586 0.0
C406 C 0.12309 0.09551 0.57008 0.0
C407 C 0.3096 0.0099 0.6068 0.0
C408 C 0.21735 0.97054 0.58733 0.0
C409 C 0.22067 0.9461 0.60209 0.0
C410 C 0.2673 0.96584 0.61185 0.0
N411 N 0.25969 0.01302 0.58234 0.0
C412 C 0.30474 0.03337 0.59197 0.0
Co413 Co 0.81781 0.68034 0.81675 0.0
Co414 Co 0.96193 0.73384 0.80631 0.0
O415 O 0.8839 0.74335 0.81786 0.0
C416 C 0.82345 0.70258 0.85083 0.0
O417 O 0.88402 0.70297 0.85068 0.0
C418 C 0.93909 0.87364 0.80573 0.0
O419 O 0.88458 0.86825 0.8122 0.0
O420 O 0.9137 0.72527 0.78692 0.0
O421 O 0.83582 0.6644 0.79458 0.0
H422 H 0.09685 0.63335 0.76678 0.0
H423 H 0.78784 0.8052 0.82835 0.0
O424 O 0.79307 0.69477 0.83861 0.0
H425 H 0.65539 0.77693 0.78319 0.0
H426 H 0.60441 0.59554 0.82643 0.0
H427 H 0.81086 0.55185 0.80518 0.0
H428 H 0.72509 0.69376 0.79164 0.0
H429 H 0.6864 0.67439 0.8273 0.0
O430 O 0.9712 0.82588 0.80265 0.0
H431 H 1.00206 0.64846 0.78185 0.0
H432 H 0.08447 0.79837 0.80543 0.0
H433 H 0.73002 0.47199 0.80383 0.0
H434 H 0.7181 0.88934 0.82042 0.0
H435 H 0.6258 0.49362 0.81452 0.0
H436 H 0.65143 0.87557 0.79764 0.0
O437 O 0.87777 0.614 0.8231 0.0
H438 H 1.00452 0.81825 0.8588 0.0
H439 H 0.06793 0.66549 0.82007 0.0
H440 H 0.1228 0.66968 0.84464 0.0
H441 H 0.09143 0.74669 0.86421 0.0
H442 H 0.95085 0.81242 0.83411 0.0
H443 H 0.18026 0.78543 0.79045 0.0
H444 H 0.18716 0.70208 0.77103 0.0
O445 O 0.96016 0.6431 0.80932 0.0
C446 C 0.86654 0.69146 0.78404 0.0
C447 C 0.09476 0.66961 0.77525 0.0
C448 C 0.1414 0.75503 0.78853 0.0
N449 N 0.03784 0.72367 0.79467 0.0
C450 C 0.04114 0.67821 0.78389 0.0
C451 C 0.08694 0.76225 0.79695 0.0
C452 C 0.14526 0.70825 0.77763 0.0
C453 C 0.75857 0.79868 0.81852 0.0
N454 N 0.76063 0.74463 0.81049 0.0
C455 C 0.71933 0.84655 0.81404 0.0
C456 C 0.682 0.83882 0.80125 0.0
C457 C 0.68423 0.78352 0.79313 0.0
C458 C 0.72403 0.73666 0.79794 0.0
C459 C 0.64946 0.58574 0.82161 0.0
C460 C 0.76541 0.56205 0.80958 0.0
C461 C 0.6961 0.63025 0.82205 0.0
N462 N 0.75302 0.6184 0.81589 0.0
C463 C 0.7199 0.51644 0.80891 0.0
C464 C 0.6615 0.52856 0.81493 0.0
C465 C 0.93141 0.60381 0.81747 0.0
C466 C 0.01917 0.785 0.8503 0.0
C467 C 0.05443 0.69977 0.82841 0.0
C468 C 0.08553 0.70166 0.84236 0.0
C469 C 0.06783 0.74477 0.85334 0.0
N470 N 0.00747 0.74022 0.82538 0.0
C471 C 0.98908 0.78167 0.83624 0.0
Co472 Co 0.79067 0.70053 0.68717 0.0
Co473 Co 0.7581 0.55421 0.70005 0.0
O474 O 0.7399 0.62443 0.68631 0.0
C475 C 0.75354 0.69383 0.65328 0.0
O476 O 0.72307 0.64186 0.65491 0.0
C477 C 0.61734 0.54632 0.69547 0.0
O478 O 0.61699 0.59142 0.68545 0.0
O479 O 0.7499 0.61014 0.71805 0.0
O480 O 0.80538 0.68964 0.70984 0.0
H481 H 0.86552 0.45592 0.74475 0.0
H482 H 0.66191 0.6995 0.6756 0.0
O483 O 0.78049 0.71864 0.66464 0.0
H484 H 0.6624 0.85819 0.71583 0.0
H485 H 0.84348 0.92301 0.67567 0.0
H486 H 0.91575 0.72934 0.69915 0.0
H487 H 0.75747 0.80267 0.70918 0.0
H488 H 0.77742 0.8306 0.67582 0.0
O489 O 0.66742 0.5299 0.70201 0.0
H490 H 0.84198 0.53948 0.72655 0.0
H491 H 0.71325 0.42408 0.70372 0.0
H492 H 0.98344 0.82055 0.69931 0.0
H493 H 0.56567 0.75417 0.68178 0.0
H494 H 0.94733 0.91859 0.68757 0.0
H495 H 0.56529 0.83441 0.70204 0.0
O496 O 0.86572 0.64977 0.68241 0.0
H497 H 0.71384 0.4762 0.6469 0.0
H498 H 0.84873 0.45598 0.69182 0.0
H499 H 0.8678 0.39085 0.6693 0.0
H500 H 0.79992 0.40038 0.6466 0.0
H501 H 0.69674 0.54044 0.66964 0.0
H502 H 0.73519 0.33935 0.72178 0.0
H503 H 0.81198 0.35491 0.74243 0.0
O504 O 0.8481 0.57242 0.69892 0.0
C505 C 0.78038 0.6595 0.72076 0.0
C506 C 0.83206 0.44851 0.73577 0.0
C507 C 0.75882 0.38316 0.7229 0.0
N508 N 0.77639 0.48675 0.71403 0.0
C509 C 0.81857 0.49566 0.7254 0.0
C510 C 0.7464 0.43141 0.71275 0.0
C511 C 0.80195 0.39189 0.73448 0.0
C512 C 0.66259 0.73423 0.68439 0.0
N513 N 0.71612 0.74775 0.6919 0.0
C514 C 0.6077 0.76515 0.68786 0.0
C515 C 0.60748 0.81008 0.69922 0.0
C516 C 0.66191 0.8234 0.70696 0.0
C517 C 0.71587 0.79145 0.70318 0.0
C518 C 0.85965 0.8807 0.68091 0.0
C519 C 0.89956 0.77155 0.69403 0.0
C520 C 0.82233 0.82809 0.68103 0.0
N521 N 0.84197 0.7745 0.68775 0.0
C522 C 0.93816 0.82323 0.69416 0.0
C523 C 0.9179 0.87818 0.68757 0.0
C524 C 0.88294 0.60147 0.68964 0.0
C525 C 0.74307 0.47074 0.65681 0.0
C526 C 0.8179 0.45962 0.68218 0.0
C527 C 0.82939 0.42286 0.66937 0.0
C528 C 0.79145 0.42836 0.65663 0.0
N529 N 0.76936 0.50019 0.68244 0.0
C530 C 0.73307 0.50671 0.66984 0.0
Co531 Co 0.331 0.29024 0.93763 0.0
Co532 Co 0.47902 0.25952 0.94913 0.0
O533 O 0.40641 0.2395 0.93664 0.0
C534 C 0.34378 0.28346 0.90345 0.0
O535 O 0.40251 0.29808 0.90417 0.0
C536 C 0.47053 0.1218 0.9547 0.0
O537 O 0.4118 0.12658 0.95825 0.0
O538 O 0.42685 0.2563 0.96805 0.0
O539 O 0.34266 0.30642 0.96011 0.0
H540 H 0.59064 0.37253 0.99088 0.0
H541 H 0.32683 0.16241 0.92584 0.0
O542 O 0.31242 0.27466 0.91555 0.0
H543 H 0.18044 0.16538 0.96911 0.0
H544 H 0.10714 0.33629 0.92686 0.0
H545 H 0.30164 0.41925 0.94731 0.0
H546 H 0.23681 0.25969 0.96165 0.0
H547 H 0.20122 0.2725 0.92704 0.0
O548 O 0.50151 0.16918 0.95073 0.0
H549 H 0.50171 0.34687 0.97459 0.0
H550 H 0.60891 0.21295 0.95093 0.0
H551 H 0.20868 0.48437 0.94747 0.0
H552 H 0.27067 0.06716 0.93274 0.0
H553 H 0.11021 0.44293 0.93726 0.0
H554 H 0.19694 0.06827 0.95456 0.0
O555 O 0.38114 0.36562 0.93215 0.0
H556 H 0.55113 0.19151 0.89713 0.0
H557 H 0.5721 0.34967 0.93727 0.0
H558 H 0.63259 0.35959 0.91349 0.0
H559 H 0.62255 0.27998 0.89322 0.0
H560 H 0.49084 0.18411 0.92104 0.0
H561 H 0.69881 0.23675 0.9671 0.0
H562 H 0.69009 0.31728 0.9872 0.0
O563 O 0.46209 0.34934 0.94753 0.0
C564 C 0.37594 0.28451 0.97085 0.0
C565 C 0.59505 0.33743 0.98215 0.0
C566 C 0.65572 0.26117 0.96881 0.0
N567 N 0.5501 0.27865 0.96175 0.0
C568 C 0.54487 0.32276 0.97285 0.0
C569 C 0.60457 0.24773 0.95972 0.0
C570 C 0.65082 0.30638 0.98008 0.0
C571 C 0.2941 0.16342 0.93517 0.0
N572 N 0.28444 0.21676 0.94314 0.0
C573 C 0.26275 0.10928 0.9391 0.0
C574 C 0.2215 0.10991 0.95137 0.0
C575 C 0.21224 0.16436 0.95954 0.0
C576 C 0.24443 0.2176 0.95528 0.0
C577 C 0.14946 0.35452 0.9316 0.0
C578 C 0.25892 0.40011 0.94321 0.0
C579 C 0.20291 0.31842 0.93185 0.0
N580 N 0.2565 0.34072 0.93798 0.0
C581 C 0.20639 0.43756 0.94317 0.0
C582 C 0.15123 0.41437 0.93741 0.0
C583 C 0.43073 0.38363 0.93868 0.0
C584 C 0.55631 0.22623 0.90592 0.0
C585 C 0.56758 0.31466 0.92854 0.0
C586 C 0.60197 0.32059 0.91509 0.0
C587 C 0.59627 0.27594 0.90372 0.0
N588 N 0.52873 0.26554 0.93066 0.0
C589 C 0.5226 0.22192 0.91952 0.0
Co590 Co 0.71602 0.82667 0.19226 0.0
Co591 Co 0.76046 0.97842 0.19995 0.0
O592 O 0.774 0.89657 0.19068 0.0
C593 C 0.69471 0.79134 0.15972 0.0
O594 O 0.63523 0.79391 0.16261 0.0
C595 C 0.90116 0.96118 0.20071 0.0
O596 O 0.89956 0.90848 0.19336 0.0
O597 O 0.74633 0.93758 0.22051 0.0
O598 O 0.70096 0.8463 0.21447 0.0
H599 H 0.63517 0.14531 0.22663 0.0
H600 H 0.84295 0.8078 0.18034 0.0
O601 O 0.73348 0.80588 0.17006 0.0
H602 H 0.82385 0.66546 0.22414 0.0
H603 H 0.64576 0.60507 0.1855 0.0
H604 H 0.58914 0.81094 0.20467 0.0
H605 H 0.73671 0.73232 0.21672 0.0
H606 H 0.71918 0.69115 0.18398 0.0
O607 O 0.85151 0.98873 0.20462 0.0
H608 H 0.65096 0.04616 0.21424 0.0
H609 H 0.83677 0.09469 0.20389 0.0
H610 H 0.51435 0.72615 0.20678 0.0
H611 H 0.93136 0.74206 0.1874 0.0
H612 H 0.54221 0.62203 0.19705 0.0
H613 H 0.92213 0.67017 0.20945 0.0
O614 O 0.6445 0.88084 0.18612 0.0
H615 H 0.846 0.99446 0.14626 0.0
H616 H 0.70035 0.08348 0.18354 0.0
H617 H 0.70857 0.12917 0.15796 0.0
H618 H 0.7819 0.0849 0.13905 0.0
H619 H 0.83743 0.95078 0.17201 0.0
H620 H 0.82207 0.19471 0.21606 0.0
H621 H 0.72093 0.22109 0.22776 0.0
O622 O 0.67157 0.9729 0.19562 0.0
C623 C 0.71818 0.88713 0.22418 0.0
C624 C 0.68013 0.13371 0.22199 0.0
C625 C 0.7848 0.1614 0.21605 0.0
N626 N 0.74669 0.06035 0.20928 0.0
C627 C 0.69008 0.07625 0.21517 0.0
C628 C 0.79311 0.10346 0.20933 0.0
C629 C 0.72807 0.17629 0.22256 0.0
C630 C 0.83866 0.77692 0.19 0.0
N631 N 0.78486 0.77435 0.19819 0.0
C632 C 0.88885 0.73968 0.19392 0.0
C633 C 0.88364 0.69935 0.20629 0.0
C634 C 0.82853 0.69668 0.21453 0.0
C635 C 0.77941 0.7348 0.2103 0.0
C636 C 0.63276 0.65032 0.18967 0.0
C637 C 0.60188 0.76627 0.20041 0.0
C638 C 0.67417 0.69962 0.18866 0.0
N639 N 0.6586 0.75706 0.19391 0.0
C640 C 0.55918 0.71814 0.20163 0.0
C641 C 0.57479 0.6598 0.19618 0.0
C642 C 0.63287 0.93705 0.18948 0.0
C643 C 0.81466 0.01491 0.15449 0.0
C644 C 0.73408 0.06491 0.17569 0.0
C645 C 0.73779 0.0906 0.16106 0.0
C646 C 0.77867 0.06558 0.15044 0.0
N647 N 0.77095 0.01631 0.17982 0.0
C648 C 0.80965 0.99038 0.16921 0.0
Co649 Co 0.16374 0.18855 0.44544 0.0
Co650 Co 0.03068 0.26232 0.45593 0.0
O651 O 0.10876 0.26135 0.44428 0.0
C652 C 0.16825 0.22422 0.41209 0.0
O653 O 0.10993 0.2406 0.41231 0.0
C654 C 0.07549 0.39476 0.46027 0.0
O655 O 0.13343 0.37817 0.46183 0.0
O656 O 0.07935 0.24931 0.47531 0.0
O657 O 0.13864 0.17147 0.46701 0.0
H658 H 0.88706 0.19153 0.49768 0.0
H659 H 0.21319 0.31067 0.43628 0.0
O660 O 0.19406 0.20273 0.42398 0.0
H661 H 0.33653 0.24792 0.48093 0.0
H662 H 0.35888 0.06776 0.43555 0.0
H663 H 0.14926 0.06152 0.45771 0.0
H664 H 0.25524 0.17966 0.47087 0.0
H665 H 0.29214 0.15998 0.43484 0.0
O666 O 0.0335 0.35459 0.45837 0.0
H667 H 0.98291 0.1914 0.4825 0.0
H668 H 0.91664 0.34061 0.45567 0.0
H669 H 0.21479 0.96856 0.45879 0.0
H670 H 0.29452 0.38016 0.44585 0.0
H671 H 0.32037 0.97121 0.44764 0.0
H672 H 0.35672 0.34898 0.46838 0.0
O673 O 0.09516 0.13493 0.43807 0.0
H674 H 0.99066 0.36185 0.40503 0.0
H675 H 0.91924 0.20394 0.44172 0.0
H676 H 0.86387 0.2176 0.41741 0.0
H677 H 0.89932 0.29723 0.39888 0.0
H678 H 0.04542 0.3459 0.42937 0.0
H679 H 0.82061 0.34352 0.47084 0.0
H680 H 0.80498 0.26817 0.49195 0.0
O681 O 0.01985 0.17071 0.45312 0.0
C682 C 0.11778 0.20532 0.47771 0.0
C683 C 0.89294 0.22415 0.48842 0.0
C684 C 0.85569 0.30942 0.47335 0.0
N685 N 0.95456 0.2641 0.46779 0.0
C686 C 0.94693 0.22374 0.47965 0.0
C687 C 0.91019 0.3074 0.46477 0.0
C688 C 0.84697 0.26721 0.4852 0.0
C689 C 0.2405 0.29653 0.44597 0.0
N690 N 0.22964 0.24107 0.45294 0.0
C691 C 0.28634 0.33615 0.45138 0.0
C692 C 0.32117 0.31866 0.46403 0.0
C693 C 0.30992 0.26195 0.47107 0.0
C694 C 0.26373 0.22353 0.46533 0.0
C695 C 0.31297 0.06604 0.44046 0.0
C696 C 0.1953 0.06328 0.45291 0.0
C697 C 0.27486 0.11808 0.44006 0.0
N698 N 0.2169 0.11635 0.44631 0.0
C699 C 0.23212 0.01038 0.45352 0.0
C700 C 0.29135 0.01189 0.44725 0.0
C701 C 0.04095 0.13032 0.44381 0.0
C702 C 0.97463 0.32714 0.41303 0.0
C703 C 0.93534 0.23837 0.43369 0.0
C704 C 0.90359 0.24607 0.41996 0.0
C705 C 0.92347 0.29079 0.40957 0.0
N706 N 0.98551 0.27424 0.437 0.0
C707 C 1.00528 0.3181 0.42686 0.0
Co708 Co 0.82567 0.84374 0.56374 0.0
Co709 Co 0.76548 0.9874 0.55479 0.0
O710 O 0.75902 0.90572 0.56479 0.0
C711 C 0.76932 0.82931 0.59555 0.0
O712 O 0.7279 0.8718 0.59259 0.0
C713 C 0.63292 0.95248 0.54751 0.0
O714 O 0.64759 0.89633 0.54317 0.0
O715 O 0.77851 0.94519 0.5345 0.0
O716 O 0.841 0.86643 0.54163 0.0
H717 H 0.86664 0.15756 0.5239 0.0
H718 H 0.69213 0.81488 0.57004 0.0
O719 O 0.81121 0.81619 0.58573 0.0
H720 H 0.75912 0.66159 0.53193 0.0
H721 H 0.93353 0.64128 0.57464 0.0
H722 H 0.95091 0.8452 0.55003 0.0
H723 H 0.83079 0.74193 0.54072 0.0
H724 H 0.84681 0.71455 0.57541 0.0
O725 O 0.67383 0.99012 0.55198 0.0
H726 H 0.86135 0.05697 0.53646 0.0
H727 H 0.68253 0.09848 0.55364 0.0
H728 H 0.03871 0.77322 0.54875 0.0
H729 H 0.6187 0.73672 0.56121 0.0
H730 H 0.03042 0.67021 0.56114 0.0
H731 H 0.65204 0.65853 0.54215 0.0
O732 O 0.88658 0.90678 0.5711 0.0
H733 H 0.66325 0.01899 0.60586 0.0
H734 H 0.83127 0.08762 0.57165 0.0
H735 H 0.8201 0.13517 0.59707 0.0
H736 H 0.73565 0.10086 0.6144 0.0
H737 H 0.67635 0.97234 0.58037 0.0
H738 H 0.6857 0.1995 0.54103 0.0
H739 H 0.77805 0.22994 0.52588 0.0
O740 O 0.85637 0.98949 0.55772 0.0
C741 C 0.81508 0.89997 0.5314 0.0
C742 C 0.82532 0.14422 0.53005 0.0
C743 C 0.72399 0.16778 0.53971 0.0
N744 N 0.77006 0.06875 0.545 0.0
C745 C 0.82168 0.08635 0.53706 0.0
C746 C 0.72217 0.10964 0.54665 0.0
C747 C 0.77581 0.18491 0.53126 0.0
C748 C 0.70767 0.78124 0.56186 0.0
N749 N 0.76706 0.78187 0.55651 0.0
C750 C 0.66553 0.73694 0.55684 0.0
C751 C 0.68421 0.69312 0.54614 0.0
C752 C 0.74433 0.69464 0.54047 0.0
C753 C 0.785 0.74003 0.54565 0.0
C754 C 0.93777 0.68602 0.5692 0.0
C755 C 0.94668 0.80058 0.55535 0.0
C756 C 0.88879 0.72798 0.5697 0.0
N757 N 0.89337 0.78442 0.56274 0.0
C758 C 0.99669 0.75993 0.55463 0.0
C759 C 0.99206 0.70223 0.56161 0.0
C760 C 0.89523 0.96136 0.56602 0.0
C761 C 0.70025 0.03434 0.59842 0.0
C762 C 0.79447 0.07223 0.57911 0.0
C763 C 0.7883 0.09949 0.59349 0.0
C764 C 0.7409 0.08023 0.60321 0.0
N765 N 0.75472 0.02684 0.57454 0.0
C766 C 0.70785 0.00813 0.58396 0.0
Co767 Co 0.19166 0.30568 0.81507 0.0
Co768 Co 0.04431 0.24273 0.81085 0.0
O769 O 0.12971 0.24049 0.81842 0.0
C770 C 0.19128 0.29189 0.84923 0.0
O771 O 0.13094 0.28655 0.84943 0.0
C772 C 0.03207 0.12271 0.79437 0.0
O773 O 0.028 0.15355 0.78149 0.0
O774 O 0.07517 0.26248 0.7894 0.0
O775 O 0.16644 0.3112 0.79318 0.0
H776 H 0.8559 0.33697 0.78611 0.0
H777 H 0.22452 0.18359 0.82808 0.0
O778 O 0.2204 0.30008 0.83677 0.0
H779 H 0.36152 0.21033 0.78343 0.0
H780 H 0.39956 0.40677 0.82183 0.0
H781 H 0.19604 0.42309 0.79729 0.0
H782 H 0.28598 0.29095 0.79034 0.0
H783 H 0.32149 0.3255 0.82559 0.0
O784 O 0.04698 0.15073 0.80669 0.0
H785 H 0.96365 0.33433 0.79452 0.0
H786 H 0.9363 0.15852 0.81479 0.0
H787 H 0.27287 0.50505 0.79308 0.0
H788 H 0.2991 0.10159 0.82155 0.0
H789 H 0.37566 0.49732 0.80542 0.0
H790 H 0.36834 0.11471 0.79907 0.0
O791 O 0.13111 0.37269 0.82072 0.0
H792 H 0.04682 0.12832 0.86085 0.0
H793 H 0.95157 0.29939 0.83207 0.0
H794 H 0.919 0.27968 0.85865 0.0
H795 H 0.96656 0.1935 0.87322 0.0
H796 H 0.07867 0.1501 0.8343 0.0
H797 H 0.82725 0.16008 0.80712 0.0
H798 H 0.78638 0.2493 0.79243 0.0
O799 O 0.03839 0.33248 0.81505 0.0
C800 C 0.12335 0.29158 0.7845 0.0
C801 C 0.87354 0.29692 0.79209 0.0
C802 C 0.85738 0.19792 0.80395 0.0
N803 N 0.95843 0.24424 0.80405 0.0
C804 C 0.93536 0.29455 0.79655 0.0
C805 C 0.91959 0.19701 0.8081 0.0
C806 C 0.83447 0.24796 0.79573 0.0
C807 C 0.25437 0.18957 0.81827 0.0
N808 N 0.25077 0.24194 0.80959 0.0
C809 C 0.29657 0.14301 0.81464 0.0
C810 C 0.33542 0.15041 0.80203 0.0
C811 C 0.33166 0.20406 0.79326 0.0
C812 C 0.2888 0.24956 0.79723 0.0
C813 C 0.35487 0.4108 0.81643 0.0
C814 C 0.24033 0.41923 0.8027 0.0
C815 C 0.31019 0.36505 0.81859 0.0
N816 N 0.25364 0.36955 0.81174 0.0
C817 C 0.28384 0.46588 0.80028 0.0
C818 C 0.34147 0.46154 0.80721 0.0
C819 C 0.07248 0.3768 0.81933 0.0
C820 C 0.0255 0.1658 0.8546 0.0
C821 C 0.97266 0.26186 0.83832 0.0
C822 C 0.95389 0.25085 0.85337 0.0
C823 C 0.98057 0.20247 0.86154 0.0
N824 N 0.01669 0.22561 0.83158 0.0
C825 C 0.04311 0.17815 0.83953 0.0
Co826 Co 0.70669 0.67822 0.06621 0.0
Co827 Co 0.78059 0.53961 0.05795 0.0
O828 O 0.77596 0.61961 0.06879 0.0
C829 C 0.74068 0.68455 0.09987 0.0
O830 O 0.78782 0.64772 0.09756 0.0
C831 C 0.91039 0.54739 0.04604 0.0
O832 O 0.89009 0.56741 0.03281 0.0
O833 O 0.773 0.5841 0.03793 0.0
O834 O 0.70808 0.66233 0.04343 0.0
H835 H 0.7124 0.37947 0.01988 0.0
H836 H 0.83469 0.70879 0.07731 0.0
O837 O 0.70418 0.6982 0.08891 0.0
H838 H 0.77816 0.88005 0.04309 0.0
H839 H 0.57402 0.86643 0.07639 0.0
H840 H 0.59478 0.67319 0.04709 0.0
H841 H 0.70766 0.79258 0.04671 0.0
H842 H 0.66513 0.79998 0.07961 0.0
O843 O 0.87387 0.54428 0.05752 0.0
H844 H 0.70683 0.47848 0.03361 0.0
H845 H 0.86415 0.4297 0.05984 0.0
H846 H 0.5034 0.73901 0.04324 0.0
H847 H 0.9067 0.79454 0.07369 0.0
H848 H 0.49244 0.83643 0.05797 0.0
H849 H 0.87874 0.88167 0.0566 0.0
O850 O 0.64578 0.61049 0.06993 0.0
H851 H 0.86268 0.50552 0.11095 0.0
H852 H 0.71456 0.4327 0.07231 0.0
H853 H 0.71794 0.3818 0.09748 0.0
H854 H 0.79239 0.41814 0.11702 0.0
H855 H 0.85731 0.55566 0.08567 0.0
H856 H 0.87189 0.33049 0.04624 0.0
H857 H 0.79572 0.30474 0.02608 0.0
O858 O 0.68935 0.52933 0.05839 0.0
C859 C 0.73833 0.6291 0.03385 0.0
C860 C 0.7461 0.39025 0.02859 0.0
C861 C 0.83562 0.36283 0.04336 0.0
N862 N 0.78586 0.4608 0.0473 0.0
C863 C 0.74317 0.44635 0.03642 0.0
C864 C 0.83122 0.41939 0.05095 0.0
C865 C 0.79284 0.34837 0.03206 0.0
C866 C 0.82112 0.74612 0.06995 0.0
N867 N 0.76506 0.74593 0.06279 0.0
C868 C 0.86264 0.79482 0.06789 0.0
C869 C 0.84698 0.84367 0.05831 0.0
C870 C 0.7905 0.84289 0.05079 0.0
C871 C 0.75024 0.79329 0.05308 0.0
C872 C 0.57829 0.82415 0.06988 0.0
C873 C 0.59094 0.71589 0.05341 0.0
C874 C 0.62976 0.78603 0.07176 0.0
N875 N 0.63605 0.73293 0.06345 0.0
C876 C 0.53879 0.7528 0.05124 0.0
C877 C 0.53259 0.80735 0.05953 0.0
C878 C 0.64367 0.5557 0.06472 0.0
C879 C 0.83004 0.48925 0.10253 0.0
C880 C 0.74688 0.44916 0.08075 0.0
C881 C 0.74872 0.41992 0.09498 0.0
C882 C 0.79054 0.44028 0.10594 0.0
N883 N 0.78549 0.49748 0.07753 0.0
C884 C 0.82689 0.51737 0.08818 0.0
Co885 Co 0.30862 0.21881 0.32336 0.0
Co886 Co 0.456 0.24745 0.31018 0.0
O887 O 0.38684 0.26619 0.32425 0.0
C888 C 0.32109 0.24637 0.35774 0.0
O889 O 0.37642 0.27067 0.35671 0.0
C890 C 0.46434 0.38793 0.31473 0.0
O891 O 0.41863 0.38859 0.32459 0.0
O892 O 0.40001 0.25728 0.29233 0.0
O893 O 0.31672 0.20744 0.30053 0.0
H894 H 0.55073 0.13987 0.26491 0.0
H895 H 0.31482 0.34312 0.33718 0.0
O896 O 0.29343 0.2257 0.34602 0.0
H897 H 0.15412 0.36029 0.29778 0.0
H898 H 0.08627 0.17409 0.33666 0.0
H899 H 0.27135 0.09914 0.30954 0.0
H900 H 0.20734 0.26182 0.30224 0.0
H901 H 0.18229 0.23506 0.33673 0.0
O902 O 0.48137 0.33766 0.30835 0.0
H903 H 0.46834 0.16412 0.28344 0.0
H904 H 0.58667 0.29023 0.30625 0.0
H905 H 0.17643 0.03662 0.30919 0.0
H906 H 0.2619 0.4425 0.33342 0.0
H907 H 0.08274 0.0742 0.32275 0.0
H908 H 0.18093 0.45177 0.31352 0.0
O909 O 0.35585 0.14052 0.32685 0.0
H910 H 0.53978 0.29279 0.36267 0.0
H911 H 0.5518 0.15413 0.31816 0.0
H912 H 0.61854 0.13478 0.34034 0.0
H913 H 0.61325 0.20466 0.3628 0.0
H914 H 0.47332 0.30967 0.34034 0.0
H915 H 0.67028 0.26752 0.28787 0.0
H916 H 0.65262 0.19172 0.26705 0.0
O917 O 0.4363 0.15783 0.31114 0.0
C918 C 0.34895 0.22992 0.28964 0.0
C919 C 0.55905 0.17288 0.27396 0.0
C920 C 0.62608 0.24462 0.28683 0.0
N921 N 0.52262 0.22844 0.29597 0.0
C922 C 0.51258 0.18677 0.28452 0.0
C923 C 0.57847 0.25746 0.29717 0.0
C924 C 0.61617 0.20205 0.27515 0.0
C925 C 0.27925 0.34635 0.32866 0.0
N926 N 0.2643 0.29608 0.32002 0.0
C927 C 0.2496 0.40298 0.32651 0.0
C928 C 0.20431 0.40818 0.31533 0.0
C929 C 0.18934 0.35693 0.30649 0.0
C930 C 0.22006 0.30109 0.30899 0.0
C931 C 0.12661 0.15746 0.33059 0.0
C932 C 0.23093 0.11594 0.31542 0.0
C933 C 0.18115 0.19188 0.33054 0.0
N934 N 0.23224 0.17151 0.32279 0.0
C935 C 0.1772 0.08029 0.3152 0.0
C936 C 0.12468 0.10138 0.32281 0.0
C937 C 0.40397 0.12258 0.31962 0.0
C938 C 0.54338 0.26264 0.35285 0.0
C939 C 0.54976 0.18551 0.32775 0.0
C940 C 0.5875 0.17398 0.34034 0.0
C941 C 0.58442 0.2131 0.35294 0.0
N942 N 0.5105 0.2351 0.32758 0.0
C943 C 0.50629 0.27259 0.34005 0.0
C944 C 0.26911 0.21679 0.11851 0.0
C945 C 0.28695 0.28006 0.1172 0.0
C946 C 0.29104 0.28669 0.14516 0.0
C947 C 0.28509 0.22128 0.14635 0.0
N948 N 0.23596 0.13289 0.13507 0.0
N949 N 0.32262 0.37318 0.12946 0.0
C950 C 0.26539 0.18832 0.13323 0.0
C951 C 0.29979 0.31447 0.13058 0.0
N952 N 0.25538 0.18372 0.1057 0.0
N953 N 0.2809 0.32327 0.15761 0.0
H954 H 0.33073 0.39523 0.11904 0.0
H955 H 0.3392 0.39754 0.13886 0.0
H956 H 0.26087 0.30632 0.16759 0.0
H957 H 0.28097 0.37137 0.15712 0.0
H958 H 0.25166 0.1358 0.10548 0.0
H959 H 0.25019 0.20405 0.09504 0.0
H960 H 0.21625 0.1078 0.12621 0.0
H961 H 0.22298 0.11614 0.14579 0.0
C962 C 0.69738 0.85598 0.38998 0.0
C963 C 0.749 0.8177 0.39354 0.0
C964 C 0.72219 0.75053 0.37189 0.0
C965 C 0.6771 0.79399 0.36708 0.0
N966 N 0.6252 0.89133 0.37077 0.0
N967 N 0.81576 0.73308 0.38642 0.0
C968 C 0.66582 0.84769 0.3759 0.0
C969 C 0.76253 0.76579 0.38418 0.0
N970 N 0.67615 0.89831 0.40033 0.0
N971 N 0.72661 0.69464 0.36475 0.0
H972 H 0.84772 0.74403 0.39487 0.0
H973 H 0.83135 0.69895 0.37897 0.0
H974 H 0.6976 0.68166 0.35585 0.0
H975 H 0.75456 0.65883 0.36865 0.0
H976 H 0.63477 0.92224 0.39902 0.0
H977 H 0.6959 0.9052 0.41101 0.0
H978 H 0.62125 0.93513 0.3756 0.0
H979 H 0.59797 0.88512 0.36109 0.0
C980 C 0.28513 0.27866 0.62241 0.0
C981 C 0.23221 0.25081 0.61572 0.0
C982 C 0.16546 0.30792 0.63361 0.0
C983 C 0.21845 0.33076 0.64123 0.0
N984 N 0.32914 0.33241 0.64412 0.0
N985 N 0.1225 0.23188 0.61631 0.0
C986 C 0.27845 0.31498 0.63591 0.0
C987 C 0.17243 0.26379 0.62166 0.0
N988 N 0.3416 0.27237 0.61556 0.0
N989 N 0.10835 0.32965 0.63762 0.0
H990 H 0.1258 0.19856 0.60775 0.0
H991 H 0.07876 0.23417 0.62126 0.0
H992 H 0.10176 0.36243 0.64621 0.0
H993 H 0.0683 0.31983 0.63155 0.0
H994 H 0.38035 0.29768 0.61874 0.0
H995 H 0.34899 0.24522 0.60592 0.0
H996 H 0.3734 0.31556 0.64202 0.0
H997 H 0.3266 0.36075 0.65372 0.0
C998 C 0.78114 0.76805 0.87225 0.0
C999 C 0.78814 0.70912 0.86538 0.0
C1000 C 0.71304 0.66544 0.88359 0.0
C1001 C 0.71029 0.72291 0.89139 0.0
N1002 N 0.74667 0.82785 0.89408 0.0
N1003 N 0.76723 0.59985 0.86546 0.0
C1004 C 0.74537 0.7741 0.88592 0.0
C1005 C 0.75575 0.65731 0.87131 0.0
N1006 N 0.80709 0.8187 0.86542 0.0
N1007 N 0.67306 0.61923 0.88761 0.0
H1008 H 0.79816 0.59216 0.85648 0.0
H1009 H 0.75034 0.55922 0.87028 0.0
H1010 H 0.64034 0.62407 0.89631 0.0
H1011 H 0.66809 0.57843 0.88145 0.0
H1012 H 0.79751 0.86393 0.86869 0.0
H1013 H 0.83521 0.81583 0.85574 0.0
H1014 H 0.77764 0.8636 0.89191 0.0
H1015 H 0.71913 0.83571 0.90365 0.0
C1016 C 0.76613 0.72815 0.61033 0.0
C1017 C 0.76524 0.79394 0.61025 0.0
C1018 C 0.74277 0.79179 0.6377 0.0
C1019 C 0.75466 0.72715 0.63824 0.0
N1020 N 0.79017 0.6361 0.62485 0.0
N1021 N 0.76511 0.88838 0.62494 0.0
C1022 C 0.76997 0.69586 0.62449 0.0
C1023 C 0.75725 0.82581 0.62426 0.0
N1024 N 0.75926 0.69607 0.59705 0.0
N1025 N 0.71412 0.82041 0.64966 0.0
H1026 H 0.77824 0.91492 0.61551 0.0
H1027 H 0.76518 0.91267 0.63522 0.0
H1028 H 0.6978 0.79622 0.65912 0.0
H1029 H 0.6998 0.86637 0.64928 0.0
H1030 H 0.75431 0.64819 0.5967 0.0
H1031 H 0.75076 0.71775 0.58665 0.0
H1032 H 0.80731 0.61357 0.6152 0.0
H1033 H 0.79586 0.61125 0.63496 0.0
C1034 C 0.29701 0.34223 0.88156 0.0
C1035 C 0.30971 0.28455 0.8887 0.0
C1036 C 0.24219 0.23164 0.87027 0.0
C1037 C 0.22761 0.28957 0.86358 0.0
N1038 N 0.23443 0.40047 0.86351 0.0
N1039 N 0.29375 0.17474 0.89052 0.0
C1040 C 0.25354 0.34499 0.86936 0.0
C1041 C 0.282 0.22936 0.88322 0.0
N1042 N 0.32633 0.39447 0.88651 0.0
N1043 N 0.21947 0.17869 0.86388 0.0
H1044 H 0.32736 0.17048 0.89895 0.0
H1045 H 0.26959 0.134 0.88858 0.0
H1046 H 0.18795 0.17888 0.8549 0.0
H1047 H 0.23337 0.13441 0.86694 0.0
H1048 H 0.32492 0.43668 0.88083 0.0
H1049 H 0.3554 0.39533 0.89596 0.0
H1050 H 0.24635 0.44324 0.86802 0.0
H1051 H 0.20242 0.40402 0.85467 0.0
C1052 C 0.73879 0.67781 0.12871 0.0
C1053 C 0.73226 0.71371 0.11524 0.0
C1054 C 0.70494 0.80354 0.13109 0.0
C1055 C 0.71605 0.76846 0.14449 0.0
N1056 N 0.76947 0.68068 0.15515 0.0
N1057 N 0.73259 0.81664 0.1045 0.0
C1058 C 0.74093 0.70811 0.14307 0.0
C1059 C 0.72167 0.77841 0.11662 0.0
N1060 N 0.74098 0.61482 0.12798 0.0
N1061 N 0.67991 0.86126 0.13215 0.0
H1062 H 0.75192 0.80083 0.09431 0.0
H1063 H 0.73019 0.86463 0.10525 0.0
H1064 H 0.67106 0.88275 0.1426 0.0
H1065 H 0.66507 0.88606 0.12262 0.0
H1066 H 0.7407 0.587 0.13772 0.0
H1067 H 0.73596 0.59034 0.11781 0.0
H1068 H 0.79122 0.63782 0.15438 0.0
H1069 H 0.78043 0.70533 0.16495 0.0
C1070 C 0.22998 0.17706 0.39075 0.0
C1071 C 0.2063 0.23085 0.39797 0.0
C1072 C 0.26187 0.2961 0.3794 0.0
C1073 C 0.28785 0.24231 0.37265 0.0
N1074 N 0.3056 0.13258 0.37338 0.0
N1075 N 0.20625 0.34162 0.40077 0.0
C1076 C 0.27442 0.18304 0.37879 0.0
C1077 C 0.22395 0.29044 0.39272 0.0
N1078 N 0.20818 0.12023 0.395 0.0
N1079 N 0.27158 0.35247 0.37277 0.0
H1080 H 0.17707 0.33961 0.41027 0.0
H1081 H 0.22359 0.38571 0.39871 0.0
H1082 H 0.30163 0.35902 0.36358 0.0
H1083 H 0.24753 0.39227 0.37581 0.0
H1084 H 0.21837 0.0796 0.38916 0.0
H1085 H 0.17544 0.11407 0.40364 0.0
H1086 H 0.30291 0.08889 0.37833 0.0
H1087 H 0.33878 0.1355 0.36473 0.0
C1088 C 0.37657 0.19777 0.24776 0.0
C1089 C 0.32366 0.16391 0.24289 0.0
C1090 C 0.28021 0.17803 0.26872 0.0
C1091 C 0.33174 0.2159 0.2731 0.0
N1092 N 0.40709 0.28661 0.26232 0.0
N1093 N 0.2145 0.14855 0.24781 0.0
C1094 C 0.37312 0.23372 0.26125 0.0
C1095 C 0.27243 0.16122 0.2531 0.0
N1096 N 0.43124 0.19483 0.24004 0.0
N1097 N 0.23664 0.1591 0.27896 0.0
H1098 H 0.20407 0.14493 0.23627 0.0
H1099 H 0.1751 0.15122 0.25466 0.0
H1100 H 0.22837 0.18036 0.2893 0.0
H1101 H 0.2065 0.12269 0.27665 0.0
H1102 H 0.47118 0.21638 0.24401 0.0
H1103 H 0.439 0.16464 0.23106 0.0
H1104 H 0.43551 0.30205 0.25345 0.0
H1105 H 0.39897 0.31956 0.27078 0.0
C1106 C 0.88631 0.89057 0.49117 0.0
C1107 C 0.86674 0.8306 0.48676 0.0
C1108 C 0.79937 0.82714 0.5094 0.0
C1109 C 0.82708 0.88171 0.51512 0.0
N1110 N 0.90011 0.96425 0.51156 0.0
N1111 N 0.80932 0.73835 0.4927 0.0
C1112 C 0.87175 0.91292 0.50604 0.0
C1113 C 0.82453 0.79788 0.49619 0.0
N1114 N 0.915 0.92808 0.48079 0.0
N1115 N 0.74691 0.80504 0.51612 0.0
H1116 H 0.82808 0.71529 0.48329 0.0
H1117 H 0.78297 0.71035 0.4999 0.0
H1118 H 0.72616 0.82702 0.52542 0.0
H1119 H 0.72094 0.76907 0.51154 0.0
H1120 H 0.92682 0.97373 0.48302 0.0
H1121 H 0.92102 0.91573 0.4694 0.0
H1122 H 0.93857 0.98469 0.50645 0.0
H1123 H 0.88686 0.98387 0.52182 0.0
C1124 C 0.10727 0.3595 0.74415 0.0
C1125 C 0.16891 0.35159 0.73866 0.0
C1126 C 0.18846 0.28396 0.76073 0.0
C1127 C 0.13275 0.30388 0.76776 0.0
N1128 N 0.04059 0.36579 0.76617 0.0
N1129 N 0.26874 0.30367 0.74194 0.0
C1130 C 0.09234 0.34267 0.75942 0.0
C1131 C 0.20987 0.3133 0.74708 0.0
N1132 N 0.06193 0.38126 0.7348 0.0
N1133 N 0.21886 0.23422 0.76664 0.0
H1134 H 0.28506 0.32061 0.73152 0.0
H1135 H 0.30239 0.28173 0.74848 0.0
H1136 H 0.20148 0.20949 0.77597 0.0
H1137 H 0.25676 0.21356 0.76135 0.0
H1138 H 0.01532 0.38131 0.73782 0.0
H1139 H 0.06927 0.39284 0.72346 0.0
H1140 H 0.01359 0.40054 0.76134 0.0
H1141 H 0.02813 0.35408 0.7772 0.0
C1142 C 0.7162 0.59845 0.00627 0.0
C1143 C 0.73023 0.64441 0.01714 0.0
C1144 C 0.69943 0.72463 0.99856 0.0
C1145 C 0.67421 0.6781 0.98891 0.0
N1146 N 0.65572 0.56884 0.98456 0.0
N1147 N 0.76532 0.74794 0.02025 0.0
C1148 C 0.6821 0.61457 0.99302 0.0
C1149 C 0.72964 0.70703 0.01241 0.0
N1150 N 0.7411 0.54081 0.00759 0.0
N1151 N 0.69559 0.78546 0.99445 0.0
H1152 H 0.79452 0.73301 0.02897 0.0
H1153 H 0.77233 0.79371 0.01704 0.0
H1154 H 0.68095 0.80027 0.98374 0.0
H1155 H 0.70514 0.82174 1.00187 0.0
H1156 H 0.73612 0.50649 0.99935 0.0
H1157 H 0.77594 0.53084 0.01533 0.0
H1158 H 0.65231 0.52322 0.9883 0.0
H1159 H 0.63307 0.57683 0.97436 0.0
C1160 C 0.28726 0.33393 0.00754 0.0
C1161 C 0.32717 0.31246 0.01917 0.0
C1162 C 0.37962 0.25305 0.99885 0.0
C1163 C 0.35453 0.29196 0.98735 0.0
N1164 N 0.28448 0.37928 0.98276 0.0
N1165 N 0.41513 0.24421 0.02453 0.0
C1166 C 0.3082 0.33522 0.99218 0.0
C1167 C 0.37489 0.27032 0.0145 0.0
N1168 N 0.22773 0.3495 0.01086 0.0
N1169 N 0.40234 0.19612 0.99518 0.0
H1170 H 0.40833 0.24176 0.03616 0.0
H1171 H 0.45556 0.22239 0.02088 0.0
H1172 H 0.39638 0.1767 0.98442 0.0
H1173 H 0.41704 0.16439 1.00339 0.0
H1174 H 0.19605 0.36177 1.00242 0.0
H1175 H 0.20807 0.33989 0.02149 0.0
H1176 H 0.25415 0.41325 0.9867 0.0
H1177 H 0.29983 0.38759 0.97181 0.0
C1178 C 0.64079 0.89476 0.26373 0.0
C1179 C 0.65286 0.83392 0.26922 0.0
C1180 C 0.72481 0.81974 0.2477 0.0
C1181 C 0.70227 0.87423 0.24063 0.0
N1182 N 0.63503 0.96263 0.24196 0.0
N1183 N 0.70759 0.73757 0.26611 0.0
C1184 C 0.65955 0.91166 0.24873 0.0
C1185 C 0.6949 0.79586 0.26102 0.0
N1186 N 0.613 0.93752 0.27292 0.0
N1187 N 0.77798 0.79372 0.24235 0.0
H1188 H 0.68936 0.7196 0.27623 0.0
H1189 H 0.73308 0.70582 0.25974 0.0
H1190 H 0.80359 0.81416 0.23356 0.0
H1191 H 0.8002 0.75702 0.24774 0.0
H1192 H 0.60991 0.98424 0.27014 0.0
H1193 H 0.59853 0.92807 0.28398 0.0
H1194 H 0.59802 0.98754 0.24646 0.0
H1195 H 0.6483 0.97638 0.23114 0.0
C1196 C 0.13158 0.12832 0.49891 0.0
C1197 C 0.14036 0.18957 0.49336 0.0
C1198 C 0.21815 0.20639 0.51333 0.0
C1199 C 0.20497 0.14755 0.51966 0.0
N1200 N 0.17231 0.04407 0.51399 0.0
N1201 N 0.19003 0.28875 0.49584 0.0
C1202 C 0.16793 0.1059 0.51126 0.0
C1203 C 0.18305 0.22923 0.50076 0.0
N1204 N 0.08744 0.09174 0.49249 0.0
N1205 N 0.26883 0.23735 0.51846 0.0
H1206 H 0.16678 0.30652 0.48641 0.0
H1207 H 0.21549 0.32182 0.5017 0.0
H1208 H 0.29831 0.21779 0.52655 0.0
H1209 H 0.28564 0.27793 0.51359 0.0
H1210 H 0.07329 0.04962 0.49708 0.0
H1211 H 0.06099 0.10637 0.48329 0.0
H1212 H 0.14924 0.01049 0.50771 0.0
H1213 H 0.20735 0.02587 0.5207 0.0
C1214 C 0.77364 0.63742 0.74926 0.0
C1215 C 0.79457 0.6769 0.73731 0.0
C1216 C 0.84873 0.73611 0.75746 0.0
C1217 C 0.84291 0.68602 0.76786 0.0
N1218 N 0.8075 0.58011 0.77109 0.0
N1219 N 0.85776 0.76834 0.73145 0.0
C1220 C 0.80771 0.63397 0.76303 0.0
C1221 C 0.83424 0.72722 0.74173 0.0
N1222 N 0.71947 0.60561 0.74805 0.0
N1223 N 0.86259 0.79409 0.7626 0.0
H1224 H 0.84101 0.7752 0.72059 0.0
H1225 H 0.89459 0.79744 0.73413 0.0
H1226 H 0.86523 0.80536 0.77414 0.0
H1227 H 0.86211 0.83291 0.75552 0.0
H1228 H 0.70202 0.57865 0.75697 0.0
H1229 H 0.68754 0.61452 0.73944 0.0
H1230 H 0.78504 0.54053 0.76719 0.0
H1231 H 0.83609 0.57244 0.78036 0.0
C1232 C 0.0585 1.0028 0.21774 0.0
C1233 C 0.07764 0.05113 0.20776 0.0
C1234 C 0.97823 0.04546 0.19453 0.0
C1235 C 0.96157 0.99269 0.20339 0.0
N1236 N 0.98804 0.91751 0.2226 0.0
N1237 N 0.0604 0.11053 0.18481 0.0
C1238 C 1.00248 0.97024 0.21475 0.0
C1239 C 0.03859 0.07075 0.19574 0.0
N1240 N 0.09314 0.9894 0.23035 0.0
N1241 N 0.93645 0.07185 0.18488 0.0
H1242 H 0.10443 0.12989 0.18504 0.0
H1243 H 0.03698 0.12013 0.1747 0.0
H1244 H 0.89283 0.05374 0.18309 0.0
H1245 H 0.94309 0.11464 0.17967 0.0
H1246 H 0.0792 0.95887 0.23889 0.0
H1247 H 0.13364 0.01311 0.23301 0.0
H1248 H 0.01883 0.89463 0.22975 0.0
H1249 H 0.94629 0.89417 0.22123 0.0
C1250 C 0.07806 0.49895 0.44719 0.0
C1251 C 0.0568 0.46119 0.45939 0.0
C1252 C 0.98023 0.54103 0.46633 0.0
C1253 C 1.00289 0.57974 0.45443 0.0
N1254 N 0.08179 0.60008 0.43546 0.0
N1255 N 0.99629 0.45059 0.48238 0.0
C1256 C 0.05478 0.56029 0.44558 0.0
C1257 C 0.01037 0.48365 0.4695 0.0
N1258 N 0.11716 0.47486 0.43641 0.0
N1259 N 0.92938 0.55884 0.47453 0.0
H1260 H 0.01825 0.40914 0.48514 0.0
H1261 H 0.96721 0.46654 0.49101 0.0
H1262 H 0.90873 0.6021 0.47329 0.0
H1263 H 0.90565 0.52979 0.48199 0.0
H1264 H 0.12777 0.49705 0.42616 0.0
H1265 H 0.13528 0.43034 0.437 0.0
H1266 H 0.12407 0.59157 0.43015 0.0
H1267 H 0.06461 0.64387 0.43324 0.0
C1268 C 0.47622 0.44213 0.68953 0.0
C1269 C 0.44526 0.4482 0.7038 0.0
C1270 C 0.52751 0.51823 0.71275 0.0
C1271 C 0.55913 0.51092 0.69861 0.0
N1272 N 0.57041 0.45535 0.6749 0.0
N1273 N 0.44661 0.48214 0.72997 0.0
C1274 C 0.53548 0.46966 0.68743 0.0
C1275 C 0.47267 0.4833 0.71571 0.0
N1276 N 0.4477 0.41304 0.67761 0.0
N1277 N 0.54861 0.56039 0.72312 0.0
H1278 H 0.40704 0.45648 0.73249 0.0
H1279 H 0.46686 0.50176 0.73957 0.0
H1280 H 0.58886 0.58603 0.72142 0.0
H1281 H 0.5243 0.57325 0.73289 0.0
H1282 H 0.46383 0.41487 0.6664 0.0
H1283 H 0.40541 0.39048 0.67861 0.0
H1284 H 0.5595 0.42005 0.66731 0.0
H1285 H 0.61329 0.47514 0.67281 0.0
C1286 C 0.52003 0.03475 0.96958 0.0
C1287 C 0.50249 0.06072 0.95532 0.0
C1288 C 0.5597 0.97868 0.94198 0.0
C1289 C 0.57053 0.9485 0.95612 0.0
N1290 N 0.55626 0.94441 0.98342 0.0
N1291 N 0.49513 0.05048 0.928 0.0
C1292 C 0.5493 0.97564 0.96995 0.0
C1293 C 0.51975 0.03093 0.94151 0.0
N1294 N 0.51046 0.06738 0.98273 0.0
N1295 N 0.58763 0.95749 0.92898 0.0
H1296 H 0.46254 0.08585 0.92743 0.0
H1297 H 0.50139 0.02728 0.91769 0.0
H1298 H 0.61771 0.91987 0.92896 0.0
H1299 H 0.58592 0.98082 0.91857 0.0
H1300 H 0.5278 0.05399 0.99331 0.0
H1301 H 0.48933 0.11064 0.98286 0.0
H1302 H 0.53528 0.95793 0.99361 0.0
H1303 H 0.58052 0.90286 0.98421 0.0
C1304 C 0.05512 0.453 0.03611 0.0
C1305 C 0.08844 0.45555 0.05002 0.0
C1306 C 0.00995 0.52655 0.06033 0.0
C1307 C 0.97285 0.51772 0.04714 0.0
N1308 N 0.95425 0.45532 0.02457 0.0
N1309 N 0.08782 0.4819 0.07676 0.0
C1310 C 0.9937 0.47619 0.03558 0.0
C1311 C 0.06312 0.48881 0.06254 0.0
N1312 N 0.08248 0.4305 0.02319 0.0
N1313 N 0.99573 0.57204 0.07056 0.0
H1314 H 0.12298 0.45032 0.07894 0.0
H1315 H 0.0682 0.50107 0.08656 0.0
H1316 H 0.959 0.60256 0.06902 0.0
H1317 H 0.02438 0.58366 0.07966 0.0
H1318 H 0.062 0.43337 0.01245 0.0
H1319 H 0.12807 0.41533 0.02293 0.0
H1320 H 0.96638 0.42075 0.01684 0.0
H1321 H 0.90744 0.46618 0.0243 0.0
C1322 C 0.52703 0.53002 0.29352 0.0
C1323 C 0.56059 0.55979 0.30532 0.0
C1324 C 0.53869 0.47222 0.32247 0.0
C1325 C 0.49887 0.44624 0.3113 0.0
N1326 N 0.45134 0.45221 0.2865 0.0
N1327 N 0.59389 0.5622 0.33162 0.0
C1328 C 0.49247 0.47536 0.29684 0.0
C1329 C 0.56588 0.53135 0.3199 0.0
N1330 N 0.52915 0.55381 0.27904 0.0
N1331 N 0.55191 0.43967 0.33543 0.0
H1332 H 0.61624 0.60446 0.33024 0.0
H1333 H 0.59153 0.548 0.34298 0.0
H1334 H 0.53209 0.39708 0.33789 0.0
H1335 H 0.58625 0.45226 0.34312 0.0
H1336 H 0.51071 0.53174 0.26954 0.0
H1337 H 0.5545 0.59333 0.27629 0.0
H1338 H 0.43921 0.47472 0.27643 0.0
H1339 H 0.42562 0.41224 0.2885 0.0
C1340 C 0.54661 0.02283 0.5397 0.0
C1341 C 0.56753 0.97296 0.54889 0.0
C1342 C 0.47179 0.9779 0.56399 0.0
C1343 C 0.45312 0.0316 0.55573 0.0
N1344 N 0.4734 0.10671 0.53596 0.0
N1345 N 0.55411 0.90706 0.57084 0.0
C1346 C 0.49083 0.05449 0.54364 0.0
C1347 C 0.53081 0.951 0.56118 0.0
N1348 N 0.57976 0.03876 0.52694 0.0
N1349 N 0.4334 0.95261 0.57471 0.0
H1350 H 0.59625 0.88498 0.569 0.0
H1351 H 0.53391 0.89516 0.58125 0.0
H1352 H 0.39284 0.97363 0.57826 0.0
H1353 H 0.43985 0.909 0.57947 0.0
H1354 H 0.56518 0.07085 0.51887 0.0
H1355 H 0.62026 0.01596 0.52374 0.0
H1356 H 0.50175 0.13033 0.52831 0.0
H1357 H 0.4311 0.12862 0.53774 0.0
C1358 C 0.04827 0.01336 0.80322 0.0
C1359 C 0.01111 0.05676 0.79533 0.0
C1360 C 0.93137 0.97627 0.79205 0.0
C1361 C 0.96454 0.93627 0.80191 0.0
N1362 N 0.05203 0.92055 0.81854 0.0
N1363 N 0.91268 0.08071 0.78351 0.0
C1364 C 0.02256 0.95567 0.80785 0.0
C1365 C 0.95164 0.03846 0.78995 0.0
N1366 N 0.109 0.02654 0.80592 0.0
N1367 N 0.88145 0.95434 0.78423 0.0
H1368 H 0.92455 0.12634 0.78128 0.0
H1369 H 0.8662 0.07179 0.78144 0.0
H1370 H 0.86504 0.90932 0.78542 0.0
H1371 H 0.85992 0.97878 0.77548 0.0
H1372 H 0.14026 0.99434 0.8102 0.0
H1373 H 0.12983 0.06759 0.80235 0.0
H1374 H 0.09044 0.93564 0.82461 0.0
H1375 H 0.03491 0.87856 0.82239 0.0
C1376 C 0.5472 0.99235 0.17554 0.0
C1377 C 0.56925 0.96192 0.18882 0.0
C1378 C 0.4934 0.01685 0.20433 0.0
C1379 C 0.46635 0.04272 0.19102 0.0
N1380 N 0.46138 0.04518 0.16343 0.0
N1381 N 0.55266 0.93394 0.21515 0.0
C1382 C 0.49154 0.02788 0.17641 0.0
C1383 C 0.53846 0.97025 0.20292 0.0
N1384 N 0.58014 0.98858 0.16224 0.0
N1385 N 0.47839 0.03904 0.21847 0.0
H1386 H 0.58858 0.90211 0.21496 0.0
H1387 H 0.52578 0.93256 0.22506 0.0
H1388 H 0.44733 0.07503 0.22006 0.0
H1389 H 0.50158 0.02627 0.22841 0.0
H1390 H 0.57036 0.01528 0.15264 0.0
H1391 H 0.61953 0.96107 0.16119 0.0
H1392 H 0.47433 0.03018 0.15257 0.0
H1393 H 0.42053 0.07055 0.1636 0.0
C1394 C 0.90851 0.01127 0.4442 0.0
C1395 C 0.93028 0.96725 0.43371 0.0
C1396 C 0.00982 0.04194 0.42592 0.0
C1397 C 1.00065 0.0754 0.43984 0.0
N1398 N 0.94201 0.08014 0.46374 0.0
N1399 N 0.9992 0.94328 0.413 0.0
C1400 C 0.94954 0.05754 0.44934 0.0
C1401 C 0.98046 0.9834 0.42408 0.0
N1402 N 0.84925 0.00868 0.44935 0.0
N1403 N 0.04246 0.06723 0.41408 0.0
H1404 H 0.97451 0.90308 0.41054 0.0
H1405 H 0.03992 0.94912 0.40677 0.0
H1406 H 0.057 0.11308 0.41399 0.0
H1407 H 0.04703 0.04578 0.40349 0.0
H1408 H 0.83023 0.04193 0.45659 0.0
H1409 H 0.81728 0.9796 0.44422 0.0
H1410 H 0.90526 0.06778 0.47084 0.0
H1411 H 0.97711 0.10213 0.46955 0.0
C1412 C 0.0308 0.52031 0.6769 0.0
C1413 C 0.05724 0.50807 0.6915 0.0
C1414 C 0.98047 0.57794 0.70309 0.0
C1415 C 0.94798 0.58029 0.68913 0.0
N1416 N 0.93855 0.54857 0.66286 0.0
N1417 N 0.04947 0.5208 0.71909 0.0
C1418 C 0.9723 0.55045 0.67601 0.0
C1419 C 0.03051 0.53636 0.70473 0.0
N1420 N 0.06262 0.50605 0.66386 0.0
N1421 N 0.9628 0.61508 0.71497 0.0
H1422 H 0.08487 0.49019 0.72131 0.0
H1423 H 0.02583 0.53358 0.72899 0.0
H1424 H 0.92472 0.64441 0.71443 0.0
H1425 H 0.98918 0.62108 0.72479 0.0
H1426 H 0.04772 0.51888 0.653 0.0
H1427 H 0.10722 0.48793 0.66393 0.0
H1428 H 0.9505 0.521 0.65356 0.0
H1429 H 0.89634 0.57127 0.66168 0.0
C1430 C 0.4525 0.48096 0.95242 0.0
C1431 C 0.45023 0.44936 0.93831 0.0
C1432 C 0.50891 0.53394 0.92639 0.0
C1433 C 0.52075 0.55952 0.94109 0.0
N1434 N 0.5081 0.55017 0.96864 0.0
N1435 N 0.48167 0.44238 0.91194 0.0
C1436 C 0.493 0.53162 0.95422 0.0
C1437 C 0.47952 0.4751 0.92525 0.0
N1438 N 0.41637 0.46165 0.96432 0.0
N1439 N 0.52296 0.56683 0.9135 0.0
H1440 H 0.45963 0.39995 0.91067 0.0
H1441 H 0.50875 0.45538 0.90261 0.0
H1442 H 0.5408 0.61154 0.91379 0.0
H1443 H 0.51039 0.55261 0.90257 0.0
H1444 H 0.4096 0.48725 0.97427 0.0
H1445 H 0.38887 0.4225 0.96365 0.0
H1446 H 0.49614 0.52562 0.97846 0.0
H1447 H 0.53731 0.58658 0.97095 0.0
C1448 C 0.55696 0.50486 0.07954 0.0
C1449 C 0.58492 0.52032 0.06533 0.0
C1450 C 0.51246 0.45199 0.05215 0.0
C1451 C 0.47931 0.44298 0.06601 0.0
N1452 N 0.46456 0.46945 0.0926 0.0
N1453 N 0.58077 0.51879 0.03776 0.0
C1454 C 0.50017 0.47147 0.07968 0.0
C1455 C 0.5603 0.49664 0.05153 0.0
N1456 N 0.58551 0.52009 0.09292 0.0
N1457 N 0.49905 0.41684 0.03962 0.0
H1458 H 0.61404 0.55345 0.03681 0.0
H1459 H 0.56018 0.50756 0.02739 0.0
H1460 H 0.46546 0.38231 0.03975 0.0
H1461 H 0.52559 0.4174 0.02966 0.0
H1462 H 0.57058 0.50418 0.10355 0.0
H1463 H 0.62721 0.54413 0.09331 0.0
H1464 H 0.47411 0.49549 0.10231 0.0
H1465 H 0.42267 0.44585 0.09322 0.0
C1466 C 0.42263 0.02609 0.3052 0.0
C1467 C 0.42219 0.05671 0.31945 0.0
C1468 C 0.47912 0.97014 0.33073 0.0
C1469 C 0.49095 0.9459 0.31586 0.0
N1470 N 0.47405 0.95521 0.28841 0.0
N1471 N 0.45406 0.06081 0.34577 0.0
C1472 C 0.46187 0.97435 0.30297 0.0
C1473 C 0.45103 0.02933 0.33227 0.0
N1474 N 0.38566 0.04705 0.29365 0.0
N1475 N 0.49179 0.93544 0.34339 0.0
H1476 H 0.43291 0.1036 0.34741 0.0
H1477 H 0.48105 0.04628 0.35493 0.0
H1478 H 0.5075 0.88996 0.34274 0.0
H1479 H 0.47948 0.9489 0.35441 0.0
H1480 H 0.37788 0.0225 0.28361 0.0
H1481 H 0.35809 0.08629 0.29469 0.0
H1482 H 0.46206 0.98057 0.27873 0.0
H1483 H 0.49987 0.91671 0.28569 0.0
C1484 C 0.98949 0.00839 0.55476 0.0
C1485 C 0.95545 0.9929 0.56806 0.0
C1486 C 0.02914 0.05232 0.58351 0.0
C1487 C 0.05892 0.07224 0.56989 0.0
N1488 N 0.05761 0.08132 0.54245 0.0
N1489 N 0.93703 0.0075 0.59502 0.0
C1490 C 0.03551 0.05436 0.5555 0.0
C1491 C 0.97354 0.01697 0.58247 0.0
N1492 N 0.97995 0.97685 0.54149 0.0
N1493 N 0.05504 0.06534 0.59733 0.0
H1494 H 0.8969 0.98086 0.59467 0.0
H1495 H 0.9444 0.02927 0.60546 0.0
H1496 H 0.09459 0.09252 0.59836 0.0
H1497 H 0.03935 0.04647 0.60759 0.0
H1498 H 0.0084 0.98137 0.53192 0.0
H1499 H 0.94767 0.94144 0.54065 0.0
H1500 H 0.03822 0.07405 0.53171 0.0
H1501 H 0.09143 0.11551 0.54261 0.0
C1502 C 0.97751 0.51562 0.8331 0.0
C1503 C 0.96187 0.54212 0.81873 0.0
C1504 C 0.03068 0.46855 0.80588 0.0
C1505 C 0.0417 0.43808 0.81991 0.0
N1506 N 0.01918 0.42683 0.84673 0.0
N1507 N 0.96227 0.53279 0.79124 0.0
C1508 C 0.0131 0.45986 0.83351 0.0
C1509 C 0.98528 0.51526 0.80509 0.0
N1510 N 0.96101 0.54492 0.84631 0.0
N1511 N 0.06427 0.45342 0.79321 0.0
H1512 H 0.92837 0.56643 0.79012 0.0
H1513 H 0.9724 0.50991 0.78105 0.0
H1514 H 0.09586 0.41728 0.79307 0.0
H1515 H 0.06416 0.47978 0.78323 0.0
H1516 H 0.97675 0.53145 0.85705 0.0
H1517 H 0.93507 0.58545 0.84647 0.0
H1518 H 0.99398 0.43627 0.85662 0.0
H1519 H 0.04696 0.38754 0.84747 0.0
loop_
_geom_bond_atom_site_label_1
_geom_bond_atom_site_label_2
_geom_bond_distance
_geom_bond_site_symmetry_2
_ccdc_geom_bond_type
Co0 O2 2.143 . S
Co0 O8 2.074 . S
Co0 O11 2.093 . S
Co0 O24 2.097 . S
Co0 N41 2.151 . S
Co0 N49 2.214 . S
Co1 O2 2.160 . S
Co1 O7 2.058 . S
Co1 O17 2.057 . S
Co1 O32 2.037 . S
Co1 N36 2.145 1_545 S
Co1 N57 2.257 1_545 S
O2 Co0 2.143 . S
O2 Co1 2.160 . S
C3 O4 1.278 . S
C3 O11 1.224 . S
O4 C3 1.278 . S
C5 O6 1.245 . S
C5 O17 1.232 . S
O6 C5 1.245 . S
O7 Co1 2.058 . S
O7 C33 1.269 . S
O8 Co0 2.074 . S
O8 C33 1.257 . S
H9 C34 0.930 . S
H10 C40 0.930 . S
O11 Co0 2.093 . S
O11 C3 1.224 . S
H12 C44 0.929 . S
H13 C46 0.930 . S
H14 C47 0.930 . S
H15 C45 0.929 . S
H16 C48 0.928 . S
O17 Co1 2.057 . S
O17 C5 1.232 . S
H18 C37 0.929 . S
H19 C38 0.929 . S
H20 C50 0.931 . S
H21 C42 0.929 . S
H22 C51 0.930 . S
H23 C43 0.931 . S
O24 Co0 2.097 . S
O24 C52 1.214 . S
H25 C53 0.929 . S
H26 C54 0.929 . S
H27 C55 0.930 . S
H28 C56 0.929 . S
H29 C58 0.930 1_545 S
H30 C35 0.930 . S
H31 C39 0.930 . S
O32 Co1 2.037 . S
O32 C52 1.234 . S
C33 O7 1.269 . S
C33 O8 1.257 . S
C34 H9 0.930 . S
C34 C37 1.388 . S
C34 C39 1.418 . S
C35 H30 0.930 . S
C35 C38 1.404 . S
C35 C39 1.353 . S
N36 Co1 2.145 1_565 S
N36 C37 1.397 . S
N36 C38 1.334 . S
C37 H18 0.929 . S
C37 C34 1.388 . S
C37 N36 1.397 . S
C38 H19 0.929 . S
C38 C35 1.404 . S
C38 N36 1.334 . S
C39 H31 0.930 . S
C39 C34 1.418 . S
C39 C35 1.353 . S
C40 H10 0.930 . S
C40 N41 1.330 . S
C40 C42 1.446 . S
N41 Co0 2.151 . S
N41 C40 1.330 . S
N41 C45 1.418 . S
C42 H21 0.929 . S
C42 C40 1.446 . S
C42 C43 1.332 . S
C43 H23 0.931 . S
C43 C42 1.332 . S
C43 C44 1.267 . S
C44 H12 0.929 . S
C44 C43 1.267 . S
C44 C45 1.251 . S
C45 H15 0.929 . S
C45 N41 1.418 . S
C45 C44 1.251 . S
C46 H13 0.930 . S
C46 C48 1.406 . S
C46 C51 1.261 . S
C47 H14 0.930 . S
C47 N49 1.325 . S
C47 C50 1.357 . S
C48 H16 0.928 . S
C48 C46 1.406 . S
C48 N49 1.261 . S
N49 Co0 2.214 . S
N49 C47 1.325 . S
N49 C48 1.261 . S
C50 H20 0.931 . S
C50 C47 1.357 . S
C50 C51 1.312 . S
C51 H22 0.930 . S
C51 C46 1.261 . S
C51 C50 1.312 . S
C52 O24 1.214 . S
C52 O32 1.234 . S
C53 H25 0.929 . S
C53 C56 1.391 . S
C53 C58 1.391 . S
C54 H26 0.929 . S
C54 C55 1.390 . S
C54 N57 1.391 . S
C55 H27 0.930 . S
C55 C54 1.390 . S
C55 C56 1.392 . S
C56 H28 0.929 . S
C56 C53 1.391 . S
C56 C55 1.392 . S
N57 Co1 2.257 1_565 S
N57 C54 1.391 . S
N57 C58 1.388 . S
C58 H29 0.930 1_565 S
C58 C53 1.391 . S
C58 N57 1.388 . S
Co59 O61 2.143 . S
Co59 O67 2.074 . S
Co59 O70 2.093 . S
Co59 O83 2.097 . S
Co59 N100 2.151 . S
Co59 N108 2.214 . S
Co60 O61 2.160 . S
Co60 O66 2.058 . S
Co60 O76 2.057 . S
Co60 O91 2.037 . S
Co60 N95 2.145 1_655 S
Co60 N116 2.257 1_655 S
O61 Co59 2.143 . S
O61 Co60 2.160 . S
C62 O63 1.278 . S
C62 O70 1.224 . S
O63 C62 1.278 . S
C64 O65 1.245 . S
C64 O76 1.232 . S
O65 C64 1.245 . S
O66 Co60 2.058 . S
O66 C92 1.269 . S
O67 Co59 2.074 . S
O67 C92 1.257 . S
H68 C93 0.930 . S
H69 C99 0.930 . S
O70 Co59 2.093 . S
O70 C62 1.224 . S
H71 C103 0.929 . S
H72 C105 0.930 . S
H73 C106 0.930 . S
H74 C104 0.929 . S
H75 C107 0.928 . S
O76 Co60 2.057 . S
O76 C64 1.232 . S
H77 C96 0.929 . S
H78 C97 0.929 . S
H79 C109 0.931 1_545 S
H80 C101 0.929 . S
H81 C110 0.930 1_545 S
H82 C102 0.931 . S
O83 Co59 2.097 . S
O83 C111 1.214 . S
H84 C112 0.929 . S
H85 C113 0.929 . S
H86 C114 0.930 . S
H87 C115 0.929 . S
H88 C117 0.930 1_655 S
H89 C94 0.930 . S
H90 C98 0.930 . S
O91 Co60 2.037 . S
O91 C111 1.234 . S
C92 O66 1.269 . S
C92 O67 1.257 . S
C93 H68 0.930 . S
C93 C96 1.388 . S
C93 C98 1.418 . S
C94 H89 0.930 . S
C94 C97 1.404 . S
C94 C98 1.353 . S
N95 Co60 2.145 1_455 S
N95 C96 1.397 . S
N95 C97 1.334 . S
C96 H77 0.929 . S
C96 C93 1.388 . S
C96 N95 1.397 . S
C97 H78 0.929 . S
C97 C94 1.404 . S
C97 N95 1.334 . S
C98 H90 0.930 . S
C98 C93 1.418 . S
C98 C94 1.353 . S
C99 H69 0.930 . S
C99 N100 1.330 . S
C99 C101 1.446 . S
N100 Co59 2.151 . S
N100 C99 1.330 . S
N100 C104 1.418 . S
C101 H80 0.929 . S
C101 C99 1.446 . S
C101 C102 1.332 . S
C102 H82 0.931 . S
C102 C101 1.332 . S
C102 C103 1.267 . S
C103 H71 0.929 . S
C103 C102 1.267 . S
C103 C104 1.251 . S
C104 H74 0.929 . S
C104 N100 1.418 . S
C104 C103 1.251 . S
C105 H72 0.930 . S
C105 C107 1.406 . S
C105 C110 1.261 . S
C106 H73 0.930 . S
C106 N108 1.325 . S
C106 C109 1.357 . S
C107 H75 0.928 . S
C107 C105 1.406 . S
C107 N108 1.261 . S
N108 Co59 2.214 . S
N108 C106 1.325 . S
N108 C107 1.261 . S
C109 H79 0.931 1_565 S
C109 C106 1.357 . S
C109 C110 1.312 . S
C110 H81 0.930 1_565 S
C110 C105 1.261 . S
C110 C109 1.312 . S
C111 O83 1.214 . S
C111 O91 1.234 . S
C112 H84 0.929 . S
C112 C115 1.391 . S
C112 C117 1.391 . S
C113 H85 0.929 . S
C113 C114 1.390 . S
C113 N116 1.391 . S
C114 H86 0.930 . S
C114 C113 1.390 . S
C114 C115 1.392 . S
C115 H87 0.929 . S
C115 C112 1.391 . S
C115 C114 1.392 . S
N116 Co60 2.257 1_455 S
N116 C113 1.391 . S
N116 C117 1.388 . S
C117 H88 0.930 1_455 S
C117 C112 1.391 . S
C117 N116 1.388 . S
Co118 O120 2.143 . S
Co118 O126 2.074 . S
Co118 O129 2.093 . S
Co118 O142 2.097 . S
Co118 N159 2.151 . S
Co118 N167 2.214 . S
Co119 O120 2.160 . S
Co119 O125 2.058 . S
Co119 O135 2.057 . S
Co119 O150 2.037 . S
Co119 N154 2.145 . S
Co119 N175 2.257 . S
O120 Co118 2.143 . S
O120 Co119 2.160 . S
C121 O122 1.278 . S
C121 O129 1.224 . S
O122 C121 1.278 . S
C123 O124 1.245 . S
C123 O135 1.232 . S
O124 C123 1.245 . S
O125 Co119 2.058 . S
O125 C151 1.269 . S
O126 Co118 2.074 . S
O126 C151 1.257 . S
H127 C152 0.930 . S
H128 C158 0.930 . S
O129 Co118 2.093 . S
O129 C121 1.224 . S
H130 C162 0.929 . S
H131 C164 0.930 . S
H132 C165 0.930 . S
H133 C163 0.929 . S
H134 C166 0.928 . S
O135 Co119 2.057 . S
O135 C123 1.232 . S
H136 C155 0.929 . S
H137 C156 0.929 . S
H138 C168 0.931 1_655 S
H139 C160 0.929 . S
H140 C169 0.930 1_655 S
H141 C161 0.931 . S
O142 Co118 2.097 . S
O142 C170 1.214 . S
H143 C171 0.929 . S
H144 C172 0.929 . S
H145 C173 0.930 . S
H146 C174 0.929 . S
H147 C176 0.930 . S
H148 C153 0.930 . S
H149 C157 0.930 . S
O150 Co119 2.037 . S
O150 C170 1.234 . S
C151 O125 1.269 . S
C151 O126 1.257 . S
C152 H127 0.930 . S
C152 C155 1.388 . S
C152 C157 1.418 . S
C153 H148 0.930 . S
C153 C156 1.404 . S
C153 C157 1.353 . S
N154 Co119 2.145 . S
N154 C155 1.397 . S
N154 C156 1.334 . S
C155 H136 0.929 . S
C155 C152 1.388 . S
C155 N154 1.397 . S
C156 H137 0.929 . S
C156 C153 1.404 . S
C156 N154 1.334 . S
C157 H149 0.930 . S
C157 C152 1.418 . S
C157 C153 1.353 . S
C158 H128 0.930 . S
C158 N159 1.330 . S
C158 C160 1.446 . S
N159 Co118 2.151 . S
N159 C158 1.330 . S
N159 C163 1.418 . S
C160 H139 0.929 . S
C160 C158 1.446 . S
C160 C161 1.332 . S
C161 H141 0.931 . S
C161 C160 1.332 . S
C161 C162 1.267 . S
C162 H130 0.929 . S
C162 C161 1.267 . S
C162 C163 1.251 . S
C163 H133 0.929 . S
C163 N159 1.418 . S
C163 C162 1.251 . S
C164 H131 0.930 . S
C164 C166 1.406 . S
C164 C169 1.261 . S
C165 H132 0.930 . S
C165 N167 1.325 . S
C165 C168 1.357 . S
C166 H134 0.928 . S
C166 C164 1.406 . S
C166 N167 1.261 . S
N167 Co118 2.214 . S
N167 C165 1.325 . S
N167 C166 1.261 . S
C168 H138 0.931 1_455 S
C168 C165 1.357 . S
C168 C169 1.312 . S
C169 H140 0.930 1_455 S
C169 C164 1.261 . S
C169 C168 1.312 . S
C170 O142 1.214 . S
C170 O150 1.234 . S
C171 H143 0.929 . S
C171 C174 1.391 . S
C171 C176 1.391 . S
C172 H144 0.929 . S
C172 C173 1.390 . S
C172 N175 1.391 . S
C173 H145 0.930 . S
C173 C172 1.390 . S
C173 C174 1.392 . S
C174 H146 0.929 . S
C174 C171 1.391 . S
C174 C173 1.392 . S
N175 Co119 2.257 . S
N175 C172 1.391 . S
N175 C176 1.388 . S
C176 H147 0.930 . S
C176 C171 1.391 . S
C176 N175 1.388 . S
Co177 O179 2.143 . S
Co177 O185 2.074 . S
Co177 O188 2.093 . S
Co177 O201 2.097 . S
Co177 N218 2.151 . S
Co177 N226 2.214 . S
Co178 O179 2.160 . S
Co178 O184 2.058 . S
Co178 O194 2.057 . S
Co178 O209 2.037 . S
Co178 N213 2.145 . S
Co178 N234 2.257 . S
O179 Co177 2.143 . S
O179 Co178 2.160 . S
C180 O181 1.278 . S
C180 O188 1.224 . S
O181 C180 1.278 . S
C182 O183 1.245 . S
C182 O194 1.232 . S
O183 C182 1.245 . S
O184 Co178 2.058 . S
O184 C210 1.269 . S
O185 Co177 2.074 . S
O185 C210 1.257 . S
H186 C211 0.930 . S
H187 C217 0.930 . S
O188 Co177 2.093 . S
O188 C180 1.224 . S
H189 C221 0.929 . S
H190 C223 0.930 . S
H191 C224 0.930 . S
H192 C222 0.929 . S
H193 C225 0.928 . S
O194 Co178 2.057 . S
O194 C182 1.232 . S
H195 C214 0.929 . S
H196 C215 0.929 . S
H197 C227 0.931 . S
H198 C219 0.929 . S
H199 C228 0.930 . S
H200 C220 0.931 . S
O201 Co177 2.097 . S
O201 C229 1.214 . S
H202 C230 0.929 . S
H203 C231 0.929 . S
H204 C232 0.930 . S
H205 C233 0.929 . S
H206 C235 0.930 . S
H207 C212 0.930 . S
H208 C216 0.930 . S
O209 Co178 2.037 . S
O209 C229 1.234 . S
C210 O184 1.269 . S
C210 O185 1.257 . S
C211 H186 0.930 . S
C211 C214 1.388 . S
C211 C216 1.418 . S
C212 H207 0.930 . S
C212 C215 1.404 . S
C212 C216 1.353 . S
N213 Co178 2.145 . S
N213 C214 1.397 . S
N213 C215 1.334 . S
C214 H195 0.929 . S
C214 C211 1.388 . S
C214 N213 1.397 . S
C215 H196 0.929 . S
C215 C212 1.404 . S
C215 N213 1.334 . S
C216 H208 0.930 . S
C216 C211 1.418 . S
C216 C212 1.353 . S
C217 H187 0.930 . S
C217 N218 1.330 . S
C217 C219 1.446 . S
N218 Co177 2.151 . S
N218 C217 1.330 . S
N218 C222 1.418 . S
C219 H198 0.929 . S
C219 C217 1.446 . S
C219 C220 1.332 . S
C220 H200 0.931 . S
C220 C219 1.332 . S
C220 C221 1.267 . S
C221 H189 0.929 . S
C221 C220 1.267 . S
C221 C222 1.251 . S
C222 H192 0.929 . S
C222 N218 1.418 . S
C222 C221 1.251 . S
C223 H190 0.930 . S
C223 C225 1.406 . S
C223 C228 1.261 . S
C224 H191 0.930 . S
C224 N226 1.325 . S
C224 C227 1.357 . S
C225 H193 0.928 . S
C225 C223 1.406 . S
C225 N226 1.261 . S
N226 Co177 2.214 . S
N226 C224 1.325 . S
N226 C225 1.261 . S
C227 H197 0.931 . S
C227 C224 1.357 . S
C227 C228 1.312 . S
C228 H199 0.930 . S
C228 C223 1.261 . S
C228 C227 1.312 . S
C229 O201 1.214 . S
C229 O209 1.234 . S
C230 H202 0.929 . S
C230 C233 1.391 . S
C230 C235 1.391 . S
C231 H203 0.929 . S
C231 C232 1.390 . S
C231 N234 1.391 . S
C232 H204 0.930 . S
C232 C231 1.390 . S
C232 C233 1.392 . S
C233 H205 0.929 . S
C233 C230 1.391 . S
C233 C232 1.392 . S
N234 Co178 2.257 . S
N234 C231 1.391 . S
N234 C235 1.388 . S
C235 H206 0.930 . S
C235 C230 1.391 . S
C235 N234 1.388 . S
Co236 O238 2.143 . S
Co236 O244 2.074 . S
Co236 O247 2.093 . S
Co236 O260 2.097 . S
Co236 N277 2.151 . S
Co236 N285 2.214 . S
Co237 O238 2.160 . S
Co237 O243 2.058 . S
Co237 O253 2.057 . S
Co237 O268 2.037 . S
Co237 N272 2.145 . S
Co237 N293 2.257 . S
O238 Co236 2.143 . S
O238 Co237 2.160 . S
C239 O240 1.278 . S
C239 O247 1.224 . S
O240 C239 1.278 . S
C241 O242 1.245 . S
C241 O253 1.232 . S
O242 C241 1.245 . S
O243 Co237 2.058 . S
O243 C269 1.269 . S
O244 Co236 2.074 . S
O244 C269 1.257 . S
H245 C270 0.930 . S
H246 C276 0.930 . S
O247 Co236 2.093 . S
O247 C239 1.224 . S
H248 C280 0.929 . S
H249 C282 0.930 . S
H250 C283 0.930 . S
H251 C281 0.929 . S
H252 C284 0.928 . S
O253 Co237 2.057 . S
O253 C241 1.232 . S
H254 C273 0.929 . S
H255 C274 0.929 . S
H256 C286 0.931 . S
H257 C278 0.929 . S
H258 C287 0.930 . S
H259 C279 0.931 . S
O260 Co236 2.097 . S
O260 C288 1.214 . S
H261 C289 0.929 . S
H262 C290 0.929 . S
H263 C291 0.930 . S
H264 C292 0.929 . S
H265 C294 0.930 . S
H266 C271 0.930 . S
H267 C275 0.930 . S
O268 Co237 2.037 . S
O268 C288 1.234 . S
C269 O243 1.269 . S
C269 O244 1.257 . S
C270 H245 0.930 . S
C270 C273 1.388 . S
C270 C275 1.418 . S
C271 H266 0.930 . S
C271 C274 1.404 . S
C271 C275 1.353 . S
N272 Co237 2.145 . S
N272 C273 1.397 . S
N272 C274 1.334 . S
C273 H254 0.929 . S
C273 C270 1.388 . S
C273 N272 1.397 . S
C274 H255 0.929 . S
C274 C271 1.404 . S
C274 N272 1.334 . S
C275 H267 0.930 . S
C275 C270 1.418 . S
C275 C271 1.353 . S
C276 H246 0.930 . S
C276 N277 1.330 . S
C276 C278 1.446 . S
N277 Co236 2.151 . S
N277 C276 1.330 . S
N277 C281 1.418 . S
C278 H257 0.929 . S
C278 C276 1.446 . S
C278 C279 1.332 . S
C279 H259 0.931 . S
C279 C278 1.332 . S
C279 C280 1.267 . S
C280 H248 0.929 . S
C280 C279 1.267 . S
C280 C281 1.251 . S
C281 H251 0.929 . S
C281 N277 1.418 . S
C281 C280 1.251 . S
C282 H249 0.930 . S
C282 C284 1.406 . S
C282 C287 1.261 . S
C283 H250 0.930 . S
C283 N285 1.325 . S
C283 C286 1.357 . S
C284 H252 0.928 . S
C284 C282 1.406 . S
C284 N285 1.261 . S
N285 Co236 2.214 . S
N285 C283 1.325 . S
N285 C284 1.261 . S
C286 H256 0.931 . S
C286 C283 1.357 . S
C286 C287 1.312 . S
C287 H258 0.930 . S
C287 C282 1.261 . S
C287 C286 1.312 . S
C288 O260 1.214 . S
C288 O268 1.234 . S
C289 H261 0.929 . S
C289 C292 1.391 . S
C289 C294 1.391 . S
C290 H262 0.929 . S
C290 C291 1.390 . S
C290 N293 1.391 . S
C291 H263 0.930 . S
C291 C290 1.390 . S
C291 C292 1.392 . S
C292 H264 0.929 . S
C292 C289 1.391 . S
C292 C291 1.392 . S
N293 Co237 2.257 . S
N293 C290 1.391 . S
N293 C294 1.388 . S
C294 H265 0.930 . S
C294 C289 1.391 . S
C294 N293 1.388 . S
Co295 O297 2.143 . S
Co295 O303 2.074 . S
Co295 O306 2.093 . S
Co295 O319 2.097 . S
Co295 N336 2.151 . S
Co295 N344 2.214 . S
Co296 O297 2.160 . S
Co296 O302 2.058 . S
Co296 O312 2.057 . S
Co296 O327 2.037 . S
Co296 N331 2.145 . S
Co296 N352 2.257 . S
O297 Co295 2.143 . S
O297 Co296 2.160 . S
C298 O299 1.278 . S
C298 O306 1.224 . S
O299 C298 1.278 . S
C300 O301 1.245 . S
C300 O312 1.232 . S
O301 C300 1.245 . S
O302 Co296 2.058 . S
O302 C328 1.269 . S
O303 Co295 2.074 . S
O303 C328 1.257 . S
H304 C329 0.930 . S
H305 C335 0.930 . S
O306 Co295 2.093 . S
O306 C298 1.224 . S
H307 C339 0.929 . S
H308 C341 0.930 . S
H309 C342 0.930 . S
H310 C340 0.929 . S
H311 C343 0.928 . S
O312 Co296 2.057 . S
O312 C300 1.232 . S
H313 C332 0.929 . S
H314 C333 0.929 . S
H315 C345 0.931 1_545 S
H316 C337 0.929 . S
H317 C346 0.930 1_545 S
H318 C338 0.931 . S
O319 Co295 2.097 . S
O319 C347 1.214 . S
H320 C348 0.929 . S
H321 C349 0.929 . S
H322 C350 0.930 . S
H323 C351 0.929 . S
H324 C353 0.930 . S
H325 C330 0.930 . S
H326 C334 0.930 . S
O327 Co296 2.037 . S
O327 C347 1.234 . S
C328 O302 1.269 . S
C328 O303 1.257 . S
C329 H304 0.930 . S
C329 C332 1.388 . S
C329 C334 1.418 . S
C330 H325 0.930 . S
C330 C333 1.404 . S
C330 C334 1.353 . S
N331 Co296 2.145 . S
N331 C332 1.397 . S
N331 C333 1.334 . S
C332 H313 0.929 . S
C332 C329 1.388 . S
C332 N331 1.397 . S
C333 H314 0.929 . S
C333 C330 1.404 . S
C333 N331 1.334 . S
C334 H326 0.930 . S
C334 C329 1.418 . S
C334 C330 1.353 . S
C335 H305 0.930 . S
C335 N336 1.330 . S
C335 C337 1.446 . S
N336 Co295 2.151 . S
N336 C335 1.330 . S
N336 C340 1.418 . S
C337 H316 0.929 . S
C337 C335 1.446 . S
C337 C338 1.332 . S
C338 H318 0.931 . S
C338 C337 1.332 . S
C338 C339 1.267 . S
C339 H307 0.929 . S
C339 C338 1.267 . S
C339 C340 1.251 . S
C340 H310 0.929 . S
C340 N336 1.418 . S
C340 C339 1.251 . S
C341 H308 0.930 . S
C341 C343 1.406 . S
C341 C346 1.261 . S
C342 H309 0.930 . S
C342 N344 1.325 . S
C342 C345 1.357 . S
C343 H311 0.928 . S
C343 C341 1.406 . S
C343 N344 1.261 . S
N344 Co295 2.214 . S
N344 C342 1.325 . S
N344 C343 1.261 . S
C345 H315 0.931 1_565 S
C345 C342 1.357 . S
C345 C346 1.312 . S
C346 H317 0.930 1_565 S
C346 C341 1.261 . S
C346 C345 1.312 . S
C347 O319 1.214 . S
C347 O327 1.234 . S
C348 H320 0.929 . S
C348 C351 1.391 . S
C348 C353 1.391 . S
C349 H321 0.929 . S
C349 C350 1.390 . S
C349 N352 1.391 . S
C350 H322 0.930 . S
C350 C349 1.390 . S
C350 C351 1.392 . S
C351 H323 0.929 . S
C351 C348 1.391 . S
C351 C350 1.392 . S
N352 Co296 2.257 . S
N352 C349 1.391 . S
N352 C353 1.388 . S
C353 H324 0.930 . S
C353 C348 1.391 . S
C353 N352 1.388 . S
Co354 O356 2.143 . S
Co354 O362 2.074 . S
Co354 O365 2.093 . S
Co354 O378 2.097 . S
Co354 N395 2.151 . S
Co354 N403 2.214 . S
Co355 O356 2.160 . S
Co355 O361 2.058 . S
Co355 O371 2.057 . S
Co355 O386 2.037 . S
Co355 N390 2.145 1_545 S
Co355 N411 2.257 1_545 S
O356 Co354 2.143 . S
O356 Co355 2.160 . S
C357 O358 1.278 . S
C357 O365 1.224 . S
O358 C357 1.278 . S
C359 O360 1.245 . S
C359 O371 1.232 . S
O360 C359 1.245 . S
O361 Co355 2.058 . S
O361 C387 1.269 . S
O362 Co354 2.074 . S
O362 C387 1.257 . S
H363 C388 0.930 . S
H364 C394 0.930 . S
O365 Co354 2.093 . S
O365 C357 1.224 . S
H366 C398 0.929 . S
H367 C400 0.930 . S
H368 C401 0.930 . S
H369 C399 0.929 . S
H370 C402 0.928 . S
O371 Co355 2.057 . S
O371 C359 1.232 . S
H372 C391 0.929 . S
H373 C392 0.929 . S
H374 C404 0.931 1_655 S
H375 C396 0.929 . S
H376 C405 0.930 1_655 S
H377 C397 0.931 . S
O378 Co354 2.097 . S
O378 C406 1.214 . S
H379 C407 0.929 . S
H380 C408 0.929 . S
H381 C409 0.930 . S
H382 C410 0.929 . S
H383 C412 0.930 1_545 S
H384 C389 0.930 . S
H385 C393 0.930 . S
O386 Co355 2.037 . S
O386 C406 1.234 . S
C387 O361 1.269 . S
C387 O362 1.257 . S
C388 H363 0.930 . S
C388 C391 1.388 . S
C388 C393 1.418 . S
C389 H384 0.930 . S
C389 C392 1.404 . S
C389 C393 1.353 . S
N390 Co355 2.145 1_565 S
N390 C391 1.397 . S
N390 C392 1.334 . S
C391 H372 0.929 . S
C391 C388 1.388 . S
C391 N390 1.397 . S
C392 H373 0.929 . S
C392 C389 1.404 . S
C392 N390 1.334 . S
C393 H385 0.930 . S
C393 C388 1.418 . S
C393 C389 1.353 . S
C394 H364 0.930 . S
C394 N395 1.330 . S
C394 C396 1.446 . S
N395 Co354 2.151 . S
N395 C394 1.330 . S
N395 C399 1.418 . S
C396 H375 0.929 . S
C396 C394 1.446 . S
C396 C397 1.332 . S
C397 H377 0.931 . S
C397 C396 1.332 . S
C397 C398 1.267 . S
C398 H366 0.929 . S
C398 C397 1.267 . S
C398 C399 1.251 . S
C399 H369 0.929 . S
C399 N395 1.418 . S
C399 C398 1.251 . S
C400 H367 0.930 . S
C400 C402 1.406 . S
C400 C405 1.261 . S
C401 H368 0.930 . S
C401 N403 1.325 . S
C401 C404 1.357 . S
C402 H370 0.928 . S
C402 C400 1.406 . S
C402 N403 1.261 . S
N403 Co354 2.214 . S
N403 C401 1.325 . S
N403 C402 1.261 . S
C404 H374 0.931 1_455 S
C404 C401 1.357 . S
C404 C405 1.312 . S
C405 H376 0.930 1_455 S
C405 C400 1.261 . S
C405 C404 1.312 . S
C406 O378 1.214 . S
C406 O386 1.234 . S
C407 H379 0.929 . S
C407 C410 1.391 . S
C407 C412 1.391 . S
C408 H380 0.929 . S
C408 C409 1.390 . S
C408 N411 1.391 . S
C409 H381 0.930 . S
C409 C408 1.390 . S
C409 C410 1.392 . S
C410 H382 0.929 . S
C410 C407 1.391 . S
C410 C409 1.392 . S
N411 Co355 2.257 1_565 S
N411 C408 1.391 . S
N411 C412 1.388 . S
C412 H383 0.930 1_565 S
C412 C407 1.391 . S
C412 N411 1.388 . S
Co413 O415 2.143 . S
Co413 O421 2.074 . S
Co413 O424 2.093 . S
Co413 O437 2.097 . S
Co413 N454 2.151 . S
Co413 N462 2.214 . S
Co414 O415 2.160 . S
Co414 O420 2.058 . S
Co414 O430 2.057 . S
Co414 O445 2.037 . S
Co414 N449 2.145 1_655 S
Co414 N470 2.257 1_655 S
O415 Co413 2.143 . S
O415 Co414 2.160 . S
C416 O417 1.278 . S
C416 O424 1.224 . S
O417 C416 1.278 . S
C418 O419 1.245 . S
C418 O430 1.232 . S
O419 C418 1.245 . S
O420 Co414 2.058 . S
O420 C446 1.269 . S
O421 Co413 2.074 . S
O421 C446 1.257 . S
H422 C447 0.930 . S
H423 C453 0.930 . S
O424 Co413 2.093 . S
O424 C416 1.224 . S
H425 C457 0.929 . S
H426 C459 0.930 . S
H427 C460 0.930 . S
H428 C458 0.929 . S
H429 C461 0.928 . S
O430 Co414 2.057 . S
O430 C418 1.232 . S
H431 C450 0.929 . S
H432 C451 0.929 . S
H433 C463 0.931 . S
H434 C455 0.929 . S
H435 C464 0.930 . S
H436 C456 0.931 . S
O437 Co413 2.097 . S
O437 C465 1.214 . S
H438 C466 0.929 . S
H439 C467 0.929 . S
H440 C468 0.930 . S
H441 C469 0.929 . S
H442 C471 0.930 1_655 S
H443 C448 0.930 . S
H444 C452 0.930 . S
O445 Co414 2.037 . S
O445 C465 1.234 . S
C446 O420 1.269 . S
C446 O421 1.257 . S
C447 H422 0.930 . S
C447 C450 1.388 . S
C447 C452 1.418 . S
C448 H443 0.930 . S
C448 C451 1.404 . S
C448 C452 1.353 . S
N449 Co414 2.145 1_455 S
N449 C450 1.397 . S
N449 C451 1.334 . S
C450 H431 0.929 . S
C450 C447 1.388 . S
C450 N449 1.397 . S
C451 H432 0.929 . S
C451 C448 1.404 . S
C451 N449 1.334 . S
C452 H444 0.930 . S
C452 C447 1.418 . S
C452 C448 1.353 . S
C453 H423 0.930 . S
C453 N454 1.330 . S
C453 C455 1.446 . S
N454 Co413 2.151 . S
N454 C453 1.330 . S
N454 C458 1.418 . S
C455 H434 0.929 . S
C455 C453 1.446 . S
C455 C456 1.332 . S
C456 H436 0.931 . S
C456 C455 1.332 . S
C456 C457 1.267 . S
C457 H425 0.929 . S
C457 C456 1.267 . S
C457 C458 1.251 . S
C458 H428 0.929 . S
C458 N454 1.418 . S
C458 C457 1.251 . S
C459 H426 0.930 . S
C459 C461 1.406 . S
C459 C464 1.261 . S
C460 H427 0.930 . S
C460 N462 1.325 . S
C460 C463 1.357 . S
C461 H429 0.928 . S
C461 C459 1.406 . S
C461 N462 1.261 . S
N462 Co413 2.214 . S
N462 C460 1.325 . S
N462 C461 1.261 . S
C463 H433 0.931 . S
C463 C460 1.357 . S
C463 C464 1.312 . S
C464 H435 0.930 . S
C464 C459 1.261 . S
C464 C463 1.312 . S
C465 O437 1.214 . S
C465 O445 1.234 . S
C466 H438 0.929 . S
C466 C469 1.391 . S
C466 C471 1.391 . S
C467 H439 0.929 . S
C467 C468 1.390 . S
C467 N470 1.391 . S
C468 H440 0.930 . S
C468 C467 1.390 . S
C468 C469 1.392 . S
C469 H441 0.929 . S
C469 C466 1.391 . S
C469 C468 1.392 . S
N470 Co414 2.257 1_455 S
N470 C467 1.391 . S
N470 C471 1.388 . S
C471 H442 0.930 1_455 S
C471 C466 1.391 . S
C471 N470 1.388 . S
Co472 O474 2.143 . S
Co472 O480 2.074 . S
Co472 O483 2.093 . S
Co472 O496 2.097 . S
Co472 N513 2.151 . S
Co472 N521 2.214 . S
Co473 O474 2.160 . S
Co473 O479 2.058 . S
Co473 O489 2.057 . S
Co473 O504 2.037 . S
Co473 N508 2.145 . S
Co473 N529 2.257 . S
O474 Co472 2.143 . S
O474 Co473 2.160 . S
C475 O476 1.278 . S
C475 O483 1.224 . S
O476 C475 1.278 . S
C477 O478 1.245 . S
C477 O489 1.232 . S
O478 C477 1.245 . S
O479 Co473 2.058 . S
O479 C505 1.269 . S
O480 Co472 2.074 . S
O480 C505 1.257 . S
H481 C506 0.930 . S
H482 C512 0.930 . S
O483 Co472 2.093 . S
O483 C475 1.224 . S
H484 C516 0.929 . S
H485 C518 0.930 . S
H486 C519 0.930 . S
H487 C517 0.929 . S
H488 C520 0.928 . S
O489 Co473 2.057 . S
O489 C477 1.232 . S
H490 C509 0.929 . S
H491 C510 0.929 . S
H492 C522 0.931 1_455 S
H493 C514 0.929 . S
H494 C523 0.930 1_455 S
H495 C515 0.931 . S
O496 Co472 2.097 . S
O496 C524 1.214 . S
H497 C525 0.929 . S
H498 C526 0.929 . S
H499 C527 0.930 . S
H500 C528 0.929 . S
H501 C530 0.930 . S
H502 C507 0.930 . S
H503 C511 0.930 . S
O504 Co473 2.037 . S
O504 C524 1.234 . S
C505 O479 1.269 . S
C505 O480 1.257 . S
C506 H481 0.930 . S
C506 C509 1.388 . S
C506 C511 1.418 . S
C507 H502 0.930 . S
C507 C510 1.404 . S
C507 C511 1.353 . S
N508 Co473 2.145 . S
N508 C509 1.397 . S
N508 C510 1.334 . S
C509 H490 0.929 . S
C509 C506 1.388 . S
C509 N508 1.397 . S
C510 H491 0.929 . S
C510 C507 1.404 . S
C510 N508 1.334 . S
C511 H503 0.930 . S
C511 C506 1.418 . S
C511 C507 1.353 . S
C512 H482 0.930 . S
C512 N513 1.330 . S
C512 C514 1.446 . S
N513 Co472 2.151 . S
N513 C512 1.330 . S
N513 C517 1.418 . S
C514 H493 0.929 . S
C514 C512 1.446 . S
C514 C515 1.332 . S
C515 H495 0.931 . S
C515 C514 1.332 . S
C515 C516 1.267 . S
C516 H484 0.929 . S
C516 C515 1.267 . S
C516 C517 1.251 . S
C517 H487 0.929 . S
C517 N513 1.418 . S
C517 C516 1.251 . S
C518 H485 0.930 . S
C518 C520 1.406 . S
C518 C523 1.261 . S
C519 H486 0.930 . S
C519 N521 1.325 . S
C519 C522 1.357 . S
C520 H488 0.928 . S
C520 C518 1.406 . S
C520 N521 1.261 . S
N521 Co472 2.214 . S
N521 C519 1.325 . S
N521 C520 1.261 . S
C522 H492 0.931 1_655 S
C522 C519 1.357 . S
C522 C523 1.312 . S
C523 H494 0.930 1_655 S
C523 C518 1.261 . S
C523 C522 1.312 . S
C524 O496 1.214 . S
C524 O504 1.234 . S
C525 H497 0.929 . S
C525 C528 1.391 . S
C525 C530 1.391 . S
C526 H498 0.929 . S
C526 C527 1.390 . S
C526 N529 1.391 . S
C527 H499 0.930 . S
C527 C526 1.390 . S
C527 C528 1.392 . S
C528 H500 0.929 . S
C528 C525 1.391 . S
C528 C527 1.392 . S
N529 Co473 2.257 . S
N529 C526 1.391 . S
N529 C530 1.388 . S
C530 H501 0.930 . S
C530 C525 1.391 . S
C530 N529 1.388 . S
Co531 O533 2.143 . S
Co531 O539 2.074 . S
Co531 O542 2.093 . S
Co531 O555 2.097 . S
Co531 N572 2.151 . S
Co531 N580 2.214 . S
Co532 O533 2.160 . S
Co532 O538 2.058 . S
Co532 O548 2.057 . S
Co532 O563 2.037 . S
Co532 N567 2.145 . S
Co532 N588 2.257 . S
O533 Co531 2.143 . S
O533 Co532 2.160 . S
C534 O535 1.278 . S
C534 O542 1.224 . S
O535 C534 1.278 . S
C536 O537 1.245 . S
C536 O548 1.232 . S
O537 C536 1.245 . S
O538 Co532 2.058 . S
O538 C564 1.269 . S
O539 Co531 2.074 . S
O539 C564 1.257 . S
H540 C565 0.930 . S
H541 C571 0.930 . S
O542 Co531 2.093 . S
O542 C534 1.224 . S
H543 C575 0.929 . S
H544 C577 0.930 . S
H545 C578 0.930 . S
H546 C576 0.929 . S
H547 C579 0.928 . S
O548 Co532 2.057 . S
O548 C536 1.232 . S
H549 C568 0.929 . S
H550 C569 0.929 . S
H551 C581 0.931 . S
H552 C573 0.929 . S
H553 C582 0.930 . S
H554 C574 0.931 . S
O555 Co531 2.097 . S
O555 C583 1.214 . S
H556 C584 0.929 . S
H557 C585 0.929 . S
H558 C586 0.930 . S
H559 C587 0.929 . S
H560 C589 0.930 . S
H561 C566 0.930 . S
H562 C570 0.930 . S
O563 Co532 2.037 . S
O563 C583 1.234 . S
C564 O538 1.269 . S
C564 O539 1.257 . S
C565 H540 0.930 . S
C565 C568 1.388 . S
C565 C570 1.418 . S
C566 H561 0.930 . S
C566 C569 1.404 . S
C566 C570 1.353 . S
N567 Co532 2.145 . S
N567 C568 1.397 . S
N567 C569 1.334 . S
C568 H549 0.929 . S
C568 C565 1.388 . S
C568 N567 1.397 . S
C569 H550 0.929 . S
C569 C566 1.404 . S
C569 N567 1.334 . S
C570 H562 0.930 . S
C570 C565 1.418 . S
C570 C566 1.353 . S
C571 H541 0.930 . S
C571 N572 1.330 . S
C571 C573 1.446 . S
N572 Co531 2.151 . S
N572 C571 1.330 . S
N572 C576 1.418 . S
C573 H552 0.929 . S
C573 C571 1.446 . S
C573 C574 1.332 . S
C574 H554 0.931 . S
C574 C573 1.332 . S
C574 C575 1.267 . S
C575 H543 0.929 . S
C575 C574 1.267 . S
C575 C576 1.251 . S
C576 H546 0.929 . S
C576 N572 1.418 . S
C576 C575 1.251 . S
C577 H544 0.930 . S
C577 C579 1.406 . S
C577 C582 1.261 . S
C578 H545 0.930 . S
C578 N580 1.325 . S
C578 C581 1.357 . S
C579 H547 0.928 . S
C579 C577 1.406 . S
C579 N580 1.261 . S
N580 Co531 2.214 . S
N580 C578 1.325 . S
N580 C579 1.261 . S
C581 H551 0.931 . S
C581 C578 1.357 . S
C581 C582 1.312 . S
C582 H553 0.930 . S
C582 C577 1.261 . S
C582 C581 1.312 . S
C583 O555 1.214 . S
C583 O563 1.234 . S
C584 H556 0.929 . S
C584 C587 1.391 . S
C584 C589 1.391 . S
C585 H557 0.929 . S
C585 C586 1.390 . S
C585 N588 1.391 . S
C586 H558 0.930 . S
C586 C585 1.390 . S
C586 C587 1.392 . S
C587 H559 0.929 . S
C587 C584 1.391 . S
C587 C586 1.392 . S
N588 Co532 2.257 . S
N588 C585 1.391 . S
N588 C589 1.388 . S
C589 H560 0.930 . S
C589 C584 1.391 . S
C589 N588 1.388 . S
Co590 O592 2.143 . S
Co590 O598 2.074 . S
Co590 O601 2.093 . S
Co590 O614 2.097 . S
Co590 N631 2.151 . S
Co590 N639 2.214 . S
Co591 O592 2.160 . S
Co591 O597 2.058 . S
Co591 O607 2.057 . S
Co591 O622 2.037 . S
Co591 N626 2.145 1_565 S
Co591 N647 2.257 1_565 S
O592 Co590 2.143 . S
O592 Co591 2.160 . S
C593 O594 1.278 . S
C593 O601 1.224 . S
O594 C593 1.278 . S
C595 O596 1.245 . S
C595 O607 1.232 . S
O596 C595 1.245 . S
O597 Co591 2.058 . S
O597 C623 1.269 . S
O598 Co590 2.074 . S
O598 C623 1.257 . S
H599 C624 0.930 . S
H600 C630 0.930 . S
O601 Co590 2.093 . S
O601 C593 1.224 . S
H602 C634 0.929 . S
H603 C636 0.930 . S
H604 C637 0.930 . S
H605 C635 0.929 . S
H606 C638 0.928 . S
O607 Co591 2.057 . S
O607 C595 1.232 . S
H608 C627 0.929 . S
H609 C628 0.929 . S
H610 C640 0.931 . S
H611 C632 0.929 . S
H612 C641 0.930 . S
H613 C633 0.931 . S
O614 Co590 2.097 . S
O614 C642 1.214 . S
H615 C643 0.929 . S
H616 C644 0.929 . S
H617 C645 0.930 . S
H618 C646 0.929 . S
H619 C648 0.930 1_565 S
H620 C625 0.930 . S
H621 C629 0.930 . S
O622 Co591 2.037 . S
O622 C642 1.234 . S
C623 O597 1.269 . S
C623 O598 1.257 . S
C624 H599 0.930 . S
C624 C627 1.388 . S
C624 C629 1.418 . S
C625 H620 0.930 . S
C625 C628 1.404 . S
C625 C629 1.353 . S
N626 Co591 2.145 1_545 S
N626 C627 1.397 . S
N626 C628 1.334 . S
C627 H608 0.929 . S
C627 C624 1.388 . S
C627 N626 1.397 . S
C628 H609 0.929 . S
C628 C625 1.404 . S
C628 N626 1.334 . S
C629 H621 0.930 . S
C629 C624 1.418 . S
C629 C625 1.353 . S
C630 H600 0.930 . S
C630 N631 1.330 . S
C630 C632 1.446 . S
N631 Co590 2.151 . S
N631 C630 1.330 . S
N631 C635 1.418 . S
C632 H611 0.929 . S
C632 C630 1.446 . S
C632 C633 1.332 . S
C633 H613 0.931 . S
C633 C632 1.332 . S
C633 C634 1.267 . S
C634 H602 0.929 . S
C634 C633 1.267 . S
C634 C635 1.251 . S
C635 H605 0.929 . S
C635 N631 1.418 . S
C635 C634 1.251 . S
C636 H603 0.930 . S
C636 C638 1.406 . S
C636 C641 1.261 . S
C637 H604 0.930 . S
C637 N639 1.325 . S
C637 C640 1.357 . S
C638 H606 0.928 . S
C638 C636 1.406 . S
C638 N639 1.261 . S
N639 Co590 2.214 . S
N639 C637 1.325 . S
N639 C638 1.261 . S
C640 H610 0.931 . S
C640 C637 1.357 . S
C640 C641 1.312 . S
C641 H612 0.930 . S
C641 C636 1.261 . S
C641 C640 1.312 . S
C642 O614 1.214 . S
C642 O622 1.234 . S
C643 H615 0.929 . S
C643 C646 1.391 . S
C643 C648 1.391 . S
C644 H616 0.929 . S
C644 C645 1.390 . S
C644 N647 1.391 . S
C645 H617 0.930 . S
C645 C644 1.390 . S
C645 C646 1.392 . S
C646 H618 0.929 . S
C646 C643 1.391 . S
C646 C645 1.392 . S
N647 Co591 2.257 1_545 S
N647 C644 1.391 . S
N647 C648 1.388 . S
C648 H619 0.930 1_545 S
C648 C643 1.391 . S
C648 N647 1.388 . S
Co649 O651 2.143 . S
Co649 O657 2.074 . S
Co649 O660 2.093 . S
Co649 O673 2.097 . S
Co649 N690 2.151 . S
Co649 N698 2.214 . S
Co650 O651 2.160 . S
Co650 O656 2.058 . S
Co650 O666 2.057 . S
Co650 O681 2.037 . S
Co650 N685 2.145 1_455 S
Co650 N706 2.257 1_455 S
O651 Co649 2.143 . S
O651 Co650 2.160 . S
C652 O653 1.278 . S
C652 O660 1.224 . S
O653 C652 1.278 . S
C654 O655 1.245 . S
C654 O666 1.232 . S
O655 C654 1.245 . S
O656 Co650 2.058 . S
O656 C682 1.269 . S
O657 Co649 2.074 . S
O657 C682 1.257 . S
H658 C683 0.930 . S
H659 C689 0.930 . S
O660 Co649 2.093 . S
O660 C652 1.224 . S
H661 C693 0.929 . S
H662 C695 0.930 . S
H663 C696 0.930 . S
H664 C694 0.929 . S
H665 C697 0.928 . S
O666 Co650 2.057 . S
O666 C654 1.232 . S
H667 C686 0.929 . S
H668 C687 0.929 . S
H669 C699 0.931 1_565 S
H670 C691 0.929 . S
H671 C700 0.930 1_565 S
H672 C692 0.931 . S
O673 Co649 2.097 . S
O673 C701 1.214 . S
H674 C702 0.929 . S
H675 C703 0.929 . S
H676 C704 0.930 . S
H677 C705 0.929 . S
H678 C707 0.930 1_455 S
H679 C684 0.930 . S
H680 C688 0.930 . S
O681 Co650 2.037 . S
O681 C701 1.234 . S
C682 O656 1.269 . S
C682 O657 1.257 . S
C683 H658 0.930 . S
C683 C686 1.388 . S
C683 C688 1.418 . S
C684 H679 0.930 . S
C684 C687 1.404 . S
C684 C688 1.353 . S
N685 Co650 2.145 1_655 S
N685 C686 1.397 . S
N685 C687 1.334 . S
C686 H667 0.929 . S
C686 C683 1.388 . S
C686 N685 1.397 . S
C687 H668 0.929 . S
C687 C684 1.404 . S
C687 N685 1.334 . S
C688 H680 0.930 . S
C688 C683 1.418 . S
C688 C684 1.353 . S
C689 H659 0.930 . S
C689 N690 1.330 . S
C689 C691 1.446 . S
N690 Co649 2.151 . S
N690 C689 1.330 . S
N690 C694 1.418 . S
C691 H670 0.929 . S
C691 C689 1.446 . S
C691 C692 1.332 . S
C692 H672 0.931 . S
C692 C691 1.332 . S
C692 C693 1.267 . S
C693 H661 0.929 . S
C693 C692 1.267 . S
C693 C694 1.251 . S
C694 H664 0.929 . S
C694 N690 1.418 . S
C694 C693 1.251 . S
C695 H662 0.930 . S
C695 C697 1.406 . S
C695 C700 1.261 . S
C696 H663 0.930 . S
C696 N698 1.325 . S
C696 C699 1.357 . S
C697 H665 0.928 . S
C697 C695 1.406 . S
C697 N698 1.261 . S
N698 Co649 2.214 . S
N698 C696 1.325 . S
N698 C697 1.261 . S
C699 H669 0.931 1_545 S
C699 C696 1.357 . S
C699 C700 1.312 . S
C700 H671 0.930 1_545 S
C700 C695 1.261 . S
C700 C699 1.312 . S
C701 O673 1.214 . S
C701 O681 1.234 . S
C702 H674 0.929 . S
C702 C705 1.391 . S
C702 C707 1.391 . S
C703 H675 0.929 . S
C703 C704 1.390 . S
C703 N706 1.391 . S
C704 H676 0.930 . S
C704 C703 1.390 . S
C704 C705 1.392 . S
C705 H677 0.929 . S
C705 C702 1.391 . S
C705 C704 1.392 . S
N706 Co650 2.257 1_655 S
N706 C703 1.391 . S
N706 C707 1.388 . S
C707 H678 0.930 1_655 S
C707 C702 1.391 . S
C707 N706 1.388 . S
Co708 O710 2.143 . S
Co708 O716 2.074 . S
Co708 O719 2.093 . S
Co708 O732 2.097 . S
Co708 N749 2.151 . S
Co708 N757 2.214 . S
Co709 O710 2.160 . S
Co709 O715 2.058 . S
Co709 O725 2.057 . S
Co709 O740 2.037 . S
Co709 N744 2.145 1_565 S
Co709 N765 2.257 1_565 S
O710 Co708 2.143 . S
O710 Co709 2.160 . S
C711 O712 1.278 . S
C711 O719 1.224 . S
O712 C711 1.278 . S
C713 O714 1.245 . S
C713 O725 1.232 . S
O714 C713 1.245 . S
O715 Co709 2.058 . S
O715 C741 1.269 . S
O716 Co708 2.074 . S
O716 C741 1.257 . S
H717 C742 0.930 . S
H718 C748 0.930 . S
O719 Co708 2.093 . S
O719 C711 1.224 . S
H720 C752 0.929 . S
H721 C754 0.930 . S
H722 C755 0.930 . S
H723 C753 0.929 . S
H724 C756 0.928 . S
O725 Co709 2.057 . S
O725 C713 1.232 . S
H726 C745 0.929 . S
H727 C746 0.929 . S
H728 C758 0.931 1_455 S
H729 C750 0.929 . S
H730 C759 0.930 1_455 S
H731 C751 0.931 . S
O732 Co708 2.097 . S
O732 C760 1.214 . S
H733 C761 0.929 . S
H734 C762 0.929 . S
H735 C763 0.930 . S
H736 C764 0.929 . S
H737 C766 0.930 1_565 S
H738 C743 0.930 . S
H739 C747 0.930 . S
O740 Co709 2.037 . S
O740 C760 1.234 . S
C741 O715 1.269 . S
C741 O716 1.257 . S
C742 H717 0.930 . S
C742 C745 1.388 . S
C742 C747 1.418 . S
C743 H738 0.930 . S
C743 C746 1.404 . S
C743 C747 1.353 . S
N744 Co709 2.145 1_545 S
N744 C745 1.397 . S
N744 C746 1.334 . S
C745 H726 0.929 . S
C745 C742 1.388 . S
C745 N744 1.397 . S
C746 H727 0.929 . S
C746 C743 1.404 . S
C746 N744 1.334 . S
C747 H739 0.930 . S
C747 C742 1.418 . S
C747 C743 1.353 . S
C748 H718 0.930 . S
C748 N749 1.330 . S
C748 C750 1.446 . S
N749 Co708 2.151 . S
N749 C748 1.330 . S
N749 C753 1.418 . S
C750 H729 0.929 . S
C750 C748 1.446 . S
C750 C751 1.332 . S
C751 H731 0.931 . S
C751 C750 1.332 . S
C751 C752 1.267 . S
C752 H720 0.929 . S
C752 C751 1.267 . S
C752 C753 1.251 . S
C753 H723 0.929 . S
C753 N749 1.418 . S
C753 C752 1.251 . S
C754 H721 0.930 . S
C754 C756 1.406 . S
C754 C759 1.261 . S
C755 H722 0.930 . S
C755 N757 1.325 . S
C755 C758 1.357 . S
C756 H724 0.928 . S
C756 C754 1.406 . S
C756 N757 1.261 . S
N757 Co708 2.214 . S
N757 C755 1.325 . S
N757 C756 1.261 . S
C758 H728 0.931 1_655 S
C758 C755 1.357 . S
C758 C759 1.312 . S
C759 H730 0.930 1_655 S
C759 C754 1.261 . S
C759 C758 1.312 . S
C760 O732 1.214 . S
C760 O740 1.234 . S
C761 H733 0.929 . S
C761 C764 1.391 . S
C761 C766 1.391 . S
C762 H734 0.929 . S
C762 C763 1.390 . S
C762 N765 1.391 . S
C763 H735 0.930 . S
C763 C762 1.390 . S
C763 C764 1.392 . S
C764 H736 0.929 . S
C764 C761 1.391 . S
C764 C763 1.392 . S
N765 Co709 2.257 1_545 S
N765 C762 1.391 . S
N765 C766 1.388 . S
C766 H737 0.930 1_545 S
C766 C761 1.391 . S
C766 N765 1.388 . S
Co767 O769 2.143 . S
Co767 O775 2.074 . S
Co767 O778 2.093 . S
Co767 O791 2.097 . S
Co767 N808 2.151 . S
Co767 N816 2.214 . S
Co768 O769 2.160 . S
Co768 O774 2.058 . S
Co768 O784 2.057 . S
Co768 O799 2.037 . S
Co768 N803 2.145 1_455 S
Co768 N824 2.257 1_455 S
O769 Co767 2.143 . S
O769 Co768 2.160 . S
C770 O771 1.278 . S
C770 O778 1.224 . S
O771 C770 1.278 . S
C772 O773 1.245 . S
C772 O784 1.232 . S
O773 C772 1.245 . S
O774 Co768 2.058 . S
O774 C800 1.269 . S
O775 Co767 2.074 . S
O775 C800 1.257 . S
H776 C801 0.930 . S
H777 C807 0.930 . S
O778 Co767 2.093 . S
O778 C770 1.224 . S
H779 C811 0.929 . S
H780 C813 0.930 . S
H781 C814 0.930 . S
H782 C812 0.929 . S
H783 C815 0.928 . S
O784 Co768 2.057 . S
O784 C772 1.232 . S
H785 C804 0.929 . S
H786 C805 0.929 . S
H787 C817 0.931 . S
H788 C809 0.929 . S
H789 C818 0.930 . S
H790 C810 0.931 . S
O791 Co767 2.097 . S
O791 C819 1.214 . S
H792 C820 0.929 . S
H793 C821 0.929 . S
H794 C822 0.930 . S
H795 C823 0.929 . S
H796 C825 0.930 1_455 S
H797 C802 0.930 . S
H798 C806 0.930 . S
O799 Co768 2.037 . S
O799 C819 1.234 . S
C800 O774 1.269 . S
C800 O775 1.257 . S
C801 H776 0.930 . S
C801 C804 1.388 . S
C801 C806 1.418 . S
C802 H797 0.930 . S
C802 C805 1.404 . S
C802 C806 1.353 . S
N803 Co768 2.145 1_655 S
N803 C804 1.397 . S
N803 C805 1.334 . S
C804 H785 0.929 . S
C804 C801 1.388 . S
C804 N803 1.397 . S
C805 H786 0.929 . S
C805 C802 1.404 . S
C805 N803 1.334 . S
C806 H798 0.930 . S
C806 C801 1.418 . S
C806 C802 1.353 . S
C807 H777 0.930 . S
C807 N808 1.330 . S
C807 C809 1.446 . S
N808 Co767 2.151 . S
N808 C807 1.330 . S
N808 C812 1.418 . S
C809 H788 0.929 . S
C809 C807 1.446 . S
C809 C810 1.332 . S
C810 H790 0.931 . S
C810 C809 1.332 . S
C810 C811 1.267 . S
C811 H779 0.929 . S
C811 C810 1.267 . S
C811 C812 1.251 . S
C812 H782 0.929 . S
C812 N808 1.418 . S
C812 C811 1.251 . S
C813 H780 0.930 . S
C813 C815 1.406 . S
C813 C818 1.261 . S
C814 H781 0.930 . S
C814 N816 1.325 . S
C814 C817 1.357 . S
C815 H783 0.928 . S
C815 C813 1.406 . S
C815 N816 1.261 . S
N816 Co767 2.214 . S
N816 C814 1.325 . S
N816 C815 1.261 . S
C817 H787 0.931 . S
C817 C814 1.357 . S
C817 C818 1.312 . S
C818 H789 0.930 . S
C818 C813 1.261 . S
C818 C817 1.312 . S
C819 O791 1.214 . S
C819 O799 1.234 . S
C820 H792 0.929 . S
C820 C823 1.391 . S
C820 C825 1.391 . S
C821 H793 0.929 . S
C821 C822 1.390 . S
C821 N824 1.391 . S
C822 H794 0.930 . S
C822 C821 1.390 . S
C822 C823 1.392 . S
C823 H795 0.929 . S
C823 C820 1.391 . S
C823 C822 1.392 . S
N824 Co768 2.257 1_655 S
N824 C821 1.391 . S
N824 C825 1.388 . S
C825 H796 0.930 1_655 S
C825 C820 1.391 . S
C825 N824 1.388 . S
Co826 O828 2.143 . S
Co826 O834 2.074 . S
Co826 O837 2.093 . S
Co826 O850 2.097 . S
Co826 N867 2.151 . S
Co826 N875 2.214 . S
Co827 O828 2.160 . S
Co827 O833 2.058 . S
Co827 O843 2.057 . S
Co827 O858 2.037 . S
Co827 N862 2.145 . S
Co827 N883 2.257 . S
O828 Co826 2.143 . S
O828 Co827 2.160 . S
C829 O830 1.278 . S
C829 O837 1.224 . S
O830 C829 1.278 . S
C831 O832 1.245 . S
C831 O843 1.232 . S
O832 C831 1.245 . S
O833 Co827 2.058 . S
O833 C859 1.269 . S
O834 Co826 2.074 . S
O834 C859 1.257 . S
H835 C860 0.930 . S
H836 C866 0.930 . S
O837 Co826 2.093 . S
O837 C829 1.224 . S
H838 C870 0.929 . S
H839 C872 0.930 . S
H840 C873 0.930 . S
H841 C871 0.929 . S
H842 C874 0.928 . S
O843 Co827 2.057 . S
O843 C831 1.232 . S
H844 C863 0.929 . S
H845 C864 0.929 . S
H846 C876 0.931 . S
H847 C868 0.929 . S
H848 C877 0.930 . S
H849 C869 0.931 . S
O850 Co826 2.097 . S
O850 C878 1.214 . S
H851 C879 0.929 . S
H852 C880 0.929 . S
H853 C881 0.930 . S
H854 C882 0.929 . S
H855 C884 0.930 . S
H856 C861 0.930 . S
H857 C865 0.930 . S
O858 Co827 2.037 . S
O858 C878 1.234 . S
C859 O833 1.269 . S
C859 O834 1.257 . S
C860 H835 0.930 . S
C860 C863 1.388 . S
C860 C865 1.418 . S
C861 H856 0.930 . S
C861 C864 1.404 . S
C861 C865 1.353 . S
N862 Co827 2.145 . S
N862 C863 1.397 . S
N862 C864 1.334 . S
C863 H844 0.929 . S
C863 C860 1.388 . S
C863 N862 1.397 . S
C864 H845 0.929 . S
C864 C861 1.404 . S
C864 N862 1.334 . S
C865 H857 0.930 . S
C865 C860 1.418 . S
C865 C861 1.353 . S
C866 H836 0.930 . S
C866 N867 1.330 . S
C866 C868 1.446 . S
N867 Co826 2.151 . S
N867 C866 1.330 . S
N867 C871 1.418 . S
C868 H847 0.929 . S
C868 C866 1.446 . S
C868 C869 1.332 . S
C869 H849 0.931 . S
C869 C868 1.332 . S
C869 C870 1.267 . S
C870 H838 0.929 . S
C870 C869 1.267 . S
C870 C871 1.251 . S
C871 H841 0.929 . S
C871 N867 1.418 . S
C871 C870 1.251 . S
C872 H839 0.930 . S
C872 C874 1.406 . S
C872 C877 1.261 . S
C873 H840 0.930 . S
C873 N875 1.325 . S
C873 C876 1.357 . S
C874 H842 0.928 . S
C874 C872 1.406 . S
C874 N875 1.261 . S
N875 Co826 2.214 . S
N875 C873 1.325 . S
N875 C874 1.261 . S
C876 H846 0.931 . S
C876 C873 1.357 . S
C876 C877 1.312 . S
C877 H848 0.930 . S
C877 C872 1.261 . S
C877 C876 1.312 . S
C878 O850 1.214 . S
C878 O858 1.234 . S
C879 H851 0.929 . S
C879 C882 1.391 . S
C879 C884 1.391 . S
C880 H852 0.929 . S
C880 C881 1.390 . S
C880 N883 1.391 . S
C881 H853 0.930 . S
C881 C880 1.390 . S
C881 C882 1.392 . S
C882 H854 0.929 . S
C882 C879 1.391 . S
C882 C881 1.392 . S
N883 Co827 2.257 . S
N883 C880 1.391 . S
N883 C884 1.388 . S
C884 H855 0.930 . S
C884 C879 1.391 . S
C884 N883 1.388 . S
Co885 O887 2.143 . S
Co885 O893 2.074 . S
Co885 O896 2.093 . S
Co885 O909 2.097 . S
Co885 N926 2.151 . S
Co885 N934 2.214 . S
Co886 O887 2.160 . S
Co886 O892 2.058 . S
Co886 O902 2.057 . S
Co886 O917 2.037 . S
Co886 N921 2.145 . S
Co886 N942 2.257 . S
O887 Co885 2.143 . S
O887 Co886 2.160 . S
C888 O889 1.278 . S
C888 O896 1.224 . S
O889 C888 1.278 . S
C890 O891 1.245 . S
C890 O902 1.232 . S
O891 C890 1.245 . S
O892 Co886 2.058 . S
O892 C918 1.269 . S
O893 Co885 2.074 . S
O893 C918 1.257 . S
H894 C919 0.930 . S
H895 C925 0.930 . S
O896 Co885 2.093 . S
O896 C888 1.224 . S
H897 C929 0.929 . S
H898 C931 0.930 . S
H899 C932 0.930 . S
H900 C930 0.929 . S
H901 C933 0.928 . S
O902 Co886 2.057 . S
O902 C890 1.232 . S
H903 C922 0.929 . S
H904 C923 0.929 . S
H905 C935 0.931 1_565 S
H906 C927 0.929 . S
H907 C936 0.930 1_565 S
H908 C928 0.931 . S
O909 Co885 2.097 . S
O909 C937 1.214 . S
H910 C938 0.929 . S
H911 C939 0.929 . S
H912 C940 0.930 . S
H913 C941 0.929 . S
H914 C943 0.930 . S
H915 C920 0.930 . S
H916 C924 0.930 . S
O917 Co886 2.037 . S
O917 C937 1.234 . S
C918 O892 1.269 . S
C918 O893 1.257 . S
C919 H894 0.930 . S
C919 C922 1.388 . S
C919 C924 1.418 . S
C920 H915 0.930 . S
C920 C923 1.404 . S
C920 C924 1.353 . S
N921 Co886 2.145 . S
N921 C922 1.397 . S
N921 C923 1.334 . S
C922 H903 0.929 . S
C922 C919 1.388 . S
C922 N921 1.397 . S
C923 H904 0.929 . S
C923 C920 1.404 . S
C923 N921 1.334 . S
C924 H916 0.930 . S
C924 C919 1.418 . S
C924 C920 1.353 . S
C925 H895 0.930 . S
C925 N926 1.330 . S
C925 C927 1.446 . S
N926 Co885 2.151 . S
N926 C925 1.330 . S
N926 C930 1.418 . S
C927 H906 0.929 . S
C927 C925 1.446 . S
C927 C928 1.332 . S
C928 H908 0.931 . S
C928 C927 1.332 . S
C928 C929 1.267 . S
C929 H897 0.929 . S
C929 C928 1.267 . S
C929 C930 1.251 . S
C930 H900 0.929 . S
C930 N926 1.418 . S
C930 C929 1.251 . S
C931 H898 0.930 . S
C931 C933 1.406 . S
C931 C936 1.261 . S
C932 H899 0.930 . S
C932 N934 1.325 . S
C932 C935 1.357 . S
C933 H901 0.928 . S
C933 C931 1.406 . S
C933 N934 1.261 . S
N934 Co885 2.214 . S
N934 C932 1.325 . S
N934 C933 1.261 . S
C935 H905 0.931 1_545 S
C935 C932 1.357 . S
C935 C936 1.312 . S
C936 H907 0.930 1_545 S
C936 C931 1.261 . S
C936 C935 1.312 . S
C937 O909 1.214 . S
C937 O917 1.234 . S
C938 H910 0.929 . S
C938 C941 1.391 . S
C938 C943 1.391 . S
C939 H911 0.929 . S
C939 C940 1.390 . S
C939 N942 1.391 . S
C940 H912 0.930 . S
C940 C939 1.390 . S
C940 C941 1.392 . S
C941 H913 0.929 . S
C941 C938 1.391 . S
C941 C940 1.392 . S
N942 Co886 2.257 . S
N942 C939 1.391 . S
N942 C943 1.388 . S
C943 H914 0.930 . S
C943 C938 1.391 . S
C943 N942 1.388 . S
C944 C945 1.363 . S
C944 C950 1.379 . S
C944 N952 1.356 . S
C945 C944 1.363 . S
C945 C951 1.363 . S
C946 C947 1.363 . S
C946 C951 1.379 . S
C946 N953 1.356 . S
C947 C946 1.363 . S
C947 C950 1.363 . S
N948 C950 1.356 . S
N948 H960 0.984 . S
N948 H961 0.985 . S
N949 C951 1.356 . S
N949 H954 0.984 . S
N949 H955 0.985 . S
C950 C944 1.379 . S
C950 C947 1.363 . S
C950 N948 1.356 . S
C951 C945 1.363 . S
C951 C946 1.379 . S
C951 N949 1.356 . S
N952 C944 1.356 . S
N952 H958 0.984 . S
N952 H959 0.984 . S
N953 C946 1.356 . S
N953 H956 0.984 . S
N953 H957 0.985 . S
H954 N949 0.984 . S
H955 N949 0.985 . S
H956 N953 0.984 . S
H957 N953 0.985 . S
H958 N952 0.984 . S
H959 N952 0.984 . S
H960 N948 0.984 . S
H961 N948 0.985 . S
C962 C963 1.363 . S
C962 C968 1.379 . S
C962 N970 1.356 . S
C963 C962 1.363 . S
C963 C969 1.363 . S
C964 C965 1.363 . S
C964 C969 1.379 . S
C964 N971 1.356 . S
C965 C964 1.363 . S
C965 C968 1.363 . S
N966 C968 1.356 . S
N966 H978 0.984 . S
N966 H979 0.985 . S
N967 C969 1.356 . S
N967 H972 0.984 . S
N967 H973 0.985 . S
C968 C962 1.379 . S
C968 C965 1.363 . S
C968 N966 1.356 . S
C969 C963 1.363 . S
C969 C964 1.379 . S
C969 N967 1.356 . S
N970 C962 1.356 . S
N970 H976 0.984 . S
N970 H977 0.984 . S
N971 C964 1.356 . S
N971 H974 0.984 . S
N971 H975 0.985 . S
H972 N967 0.984 . S
H973 N967 0.985 . S
H974 N971 0.984 . S
H975 N971 0.985 . S
H976 N970 0.984 . S
H977 N970 0.984 . S
H978 N966 0.984 . S
H979 N966 0.985 . S
C980 C981 1.363 . S
C980 C986 1.379 . S
C980 N988 1.356 . S
C981 C980 1.363 . S
C981 C987 1.363 . S
C982 C983 1.363 . S
C982 C987 1.379 . S
C982 N989 1.356 . S
C983 C982 1.363 . S
C983 C986 1.363 . S
N984 C986 1.356 . S
N984 H996 0.984 . S
N984 H997 0.985 . S
N985 C987 1.356 . S
N985 H990 0.984 . S
N985 H991 0.985 . S
C986 C980 1.379 . S
C986 C983 1.363 . S
C986 N984 1.356 . S
C987 C981 1.363 . S
C987 C982 1.379 . S
C987 N985 1.356 . S
N988 C980 1.356 . S
N988 H994 0.984 . S
N988 H995 0.984 . S
N989 C982 1.356 . S
N989 H992 0.984 . S
N989 H993 0.985 . S
H990 N985 0.984 . S
H991 N985 0.985 . S
H992 N989 0.984 . S
H993 N989 0.985 . S
H994 N988 0.984 . S
H995 N988 0.984 . S
H996 N984 0.984 . S
H997 N984 0.985 . S
C998 C999 1.363 . S
C998 C1004 1.379 . S
C998 N1006 1.356 . S
C999 C998 1.363 . S
C999 C1005 1.363 . S
C1000 C1001 1.363 . S
C1000 C1005 1.379 . S
C1000 N1007 1.356 . S
C1001 C1000 1.363 . S
C1001 C1004 1.363 . S
N1002 C1004 1.356 . S
N1002 H1014 0.984 . S
N1002 H1015 0.985 . S
N1003 C1005 1.356 . S
N1003 H1008 0.984 . S
N1003 H1009 0.985 . S
C1004 C998 1.379 . S
C1004 C1001 1.363 . S
C1004 N1002 1.356 . S
C1005 C999 1.363 . S
C1005 C1000 1.379 . S
C1005 N1003 1.356 . S
N1006 C998 1.356 . S
N1006 H1012 0.984 . S
N1006 H1013 0.984 . S
N1007 C1000 1.356 . S
N1007 H1010 0.984 . S
N1007 H1011 0.985 . S
H1008 N1003 0.984 . S
H1009 N1003 0.985 . S
H1010 N1007 0.984 . S
H1011 N1007 0.985 . S
H1012 N1006 0.984 . S
H1013 N1006 0.984 . S
H1014 N1002 0.984 . S
H1015 N1002 0.985 . S
C1016 C1017 1.363 . S
C1016 C1022 1.379 . S
C1016 N1024 1.356 . S
C1017 C1016 1.363 . S
C1017 C1023 1.363 . S
C1018 C1019 1.363 . S
C1018 C1023 1.379 . S
C1018 N1025 1.356 . S
C1019 C1018 1.363 . S
C1019 C1022 1.363 . S
N1020 C1022 1.356 . S
N1020 H1032 0.984 . S
N1020 H1033 0.985 . S
N1021 C1023 1.356 . S
N1021 H1026 0.984 . S
N1021 H1027 0.985 . S
C1022 C1016 1.379 . S
C1022 C1019 1.363 . S
C1022 N1020 1.356 . S
C1023 C1017 1.363 . S
C1023 C1018 1.379 . S
C1023 N1021 1.356 . S
N1024 C1016 1.356 . S
N1024 H1030 0.984 . S
N1024 H1031 0.984 . S
N1025 C1018 1.356 . S
N1025 H1028 0.984 . S
N1025 H1029 0.985 . S
H1026 N1021 0.984 . S
H1027 N1021 0.985 . S
H1028 N1025 0.984 . S
H1029 N1025 0.985 . S
H1030 N1024 0.984 . S
H1031 N1024 0.984 . S
H1032 N1020 0.984 . S
H1033 N1020 0.985 . S
C1034 C1035 1.363 . S
C1034 C1040 1.379 . S
C1034 N1042 1.356 . S
C1035 C1034 1.363 . S
C1035 C1041 1.363 . S
C1036 C1037 1.363 . S
C1036 C1041 1.379 . S
C1036 N1043 1.356 . S
C1037 C1036 1.363 . S
C1037 C1040 1.363 . S
N1038 C1040 1.356 . S
N1038 H1050 0.984 . S
N1038 H1051 0.985 . S
N1039 C1041 1.356 . S
N1039 H1044 0.984 . S
N1039 H1045 0.985 . S
C1040 C1034 1.379 . S
C1040 C1037 1.363 . S
C1040 N1038 1.356 . S
C1041 C1035 1.363 . S
C1041 C1036 1.379 . S
C1041 N1039 1.356 . S
N1042 C1034 1.356 . S
N1042 H1048 0.984 . S
N1042 H1049 0.984 . S
N1043 C1036 1.356 . S
N1043 H1046 0.984 . S
N1043 H1047 0.985 . S
H1044 N1039 0.984 . S
H1045 N1039 0.985 . S
H1046 N1043 0.984 . S
H1047 N1043 0.985 . S
H1048 N1042 0.984 . S
H1049 N1042 0.984 . S
H1050 N1038 0.984 . S
H1051 N1038 0.985 . S
C1052 C1053 1.363 . S
C1052 C1058 1.379 . S
C1052 N1060 1.356 . S
C1053 C1052 1.363 . S
C1053 C1059 1.363 . S
C1054 C1055 1.363 . S
C1054 C1059 1.379 . S
C1054 N1061 1.356 . S
C1055 C1054 1.363 . S
C1055 C1058 1.363 . S
N1056 C1058 1.356 . S
N1056 H1068 0.984 . S
N1056 H1069 0.985 . S
N1057 C1059 1.356 . S
N1057 H1062 0.984 . S
N1057 H1063 0.985 . S
C1058 C1052 1.379 . S
C1058 C1055 1.363 . S
C1058 N1056 1.356 . S
C1059 C1053 1.363 . S
C1059 C1054 1.379 . S
C1059 N1057 1.356 . S
N1060 C1052 1.356 . S
N1060 H1066 0.984 . S
N1060 H1067 0.984 . S
N1061 C1054 1.356 . S
N1061 H1064 0.984 . S
N1061 H1065 0.985 . S
H1062 N1057 0.984 . S
H1063 N1057 0.985 . S
H1064 N1061 0.984 . S
H1065 N1061 0.985 . S
H1066 N1060 0.984 . S
H1067 N1060 0.984 . S
H1068 N1056 0.984 . S
H1069 N1056 0.985 . S
C1070 C1071 1.363 . S
C1070 C1076 1.379 . S
C1070 N1078 1.356 . S
C1071 C1070 1.363 . S
C1071 C1077 1.363 . S
C1072 C1073 1.363 . S
C1072 C1077 1.379 . S
C1072 N1079 1.356 . S
C1073 C1072 1.363 . S
C1073 C1076 1.363 . S
N1074 C1076 1.356 . S
N1074 H1086 0.984 . S
N1074 H1087 0.985 . S
N1075 C1077 1.356 . S
N1075 H1080 0.984 . S
N1075 H1081 0.985 . S
C1076 C1070 1.379 . S
C1076 C1073 1.363 . S
C1076 N1074 1.356 . S
C1077 C1071 1.363 . S
C1077 C1072 1.379 . S
C1077 N1075 1.356 . S
N1078 C1070 1.356 . S
N1078 H1084 0.984 . S
N1078 H1085 0.984 . S
N1079 C1072 1.356 . S
N1079 H1082 0.984 . S
N1079 H1083 0.985 . S
H1080 N1075 0.984 . S
H1081 N1075 0.985 . S
H1082 N1079 0.984 . S
H1083 N1079 0.985 . S
H1084 N1078 0.984 . S
H1085 N1078 0.984 . S
H1086 N1074 0.984 . S
H1087 N1074 0.985 . S
C1088 C1089 1.363 . S
C1088 C1094 1.379 . S
C1088 N1096 1.356 . S
C1089 C1088 1.363 . S
C1089 C1095 1.363 . S
C1090 C1091 1.363 . S
C1090 C1095 1.379 . S
C1090 N1097 1.356 . S
C1091 C1090 1.363 . S
C1091 C1094 1.363 . S
N1092 C1094 1.356 . S
N1092 H1104 0.984 . S
N1092 H1105 0.985 . S
N1093 C1095 1.356 . S
N1093 H1098 0.984 . S
N1093 H1099 0.985 . S
C1094 C1088 1.379 . S
C1094 C1091 1.363 . S
C1094 N1092 1.356 . S
C1095 C1089 1.363 . S
C1095 C1090 1.379 . S
C1095 N1093 1.356 . S
N1096 C1088 1.356 . S
N1096 H1102 0.984 . S
N1096 H1103 0.984 . S
N1097 C1090 1.356 . S
N1097 H1100 0.984 . S
N1097 H1101 0.985 . S
H1098 N1093 0.984 . S
H1099 N1093 0.985 . S
H1100 N1097 0.984 . S
H1101 N1097 0.985 . S
H1102 N1096 0.984 . S
H1103 N1096 0.984 . S
H1104 N1092 0.984 . S
H1105 N1092 0.985 . S
C1106 C1107 1.363 . S
C1106 C1112 1.379 . S
C1106 N1114 1.356 . S
C1107 C1106 1.363 . S
C1107 C1113 1.363 . S
C1108 C1109 1.363 . S
C1108 C1113 1.379 . S
C1108 N1115 1.356 . S
C1109 C1108 1.363 . S
C1109 C1112 1.363 . S
N1110 C1112 1.356 . S
N1110 H1122 0.984 . S
N1110 H1123 0.985 . S
N1111 C1113 1.356 . S
N1111 H1116 0.984 . S
N1111 H1117 0.985 . S
C1112 C1106 1.379 . S
C1112 C1109 1.363 . S
C1112 N1110 1.356 . S
C1113 C1107 1.363 . S
C1113 C1108 1.379 . S
C1113 N1111 1.356 . S
N1114 C1106 1.356 . S
N1114 H1120 0.984 . S
N1114 H1121 0.984 . S
N1115 C1108 1.356 . S
N1115 H1118 0.984 . S
N1115 H1119 0.985 . S
H1116 N1111 0.984 . S
H1117 N1111 0.985 . S
H1118 N1115 0.984 . S
H1119 N1115 0.985 . S
H1120 N1114 0.984 . S
H1121 N1114 0.984 . S
H1122 N1110 0.984 . S
H1123 N1110 0.985 . S
C1124 C1125 1.363 . S
C1124 C1130 1.379 . S
C1124 N1132 1.356 . S
C1125 C1124 1.363 . S
C1125 C1131 1.363 . S
C1126 C1127 1.363 . S
C1126 C1131 1.379 . S
C1126 N1133 1.356 . S
C1127 C1126 1.363 . S
C1127 C1130 1.363 . S
N1128 C1130 1.356 . S
N1128 H1140 0.984 . S
N1128 H1141 0.985 . S
N1129 C1131 1.356 . S
N1129 H1134 0.984 . S
N1129 H1135 0.985 . S
C1130 C1124 1.379 . S
C1130 C1127 1.363 . S
C1130 N1128 1.356 . S
C1131 C1125 1.363 . S
C1131 C1126 1.379 . S
C1131 N1129 1.356 . S
N1132 C1124 1.356 . S
N1132 H1138 0.984 . S
N1132 H1139 0.984 . S
N1133 C1126 1.356 . S
N1133 H1136 0.984 . S
N1133 H1137 0.985 . S
H1134 N1129 0.984 . S
H1135 N1129 0.985 . S
H1136 N1133 0.984 . S
H1137 N1133 0.985 . S
H1138 N1132 0.984 . S
H1139 N1132 0.984 . S
H1140 N1128 0.984 . S
H1141 N1128 0.985 . S
C1142 C1143 1.363 . S
C1142 C1148 1.379 1_554 S
C1142 N1150 1.356 . S
C1143 C1142 1.363 . S
C1143 C1149 1.363 . S
C1144 C1145 1.363 . S
C1144 C1149 1.379 1_556 S
C1144 N1151 1.356 . S
C1145 C1144 1.363 . S
C1145 C1148 1.363 . S
N1146 C1148 1.356 . S
N1146 H1158 0.984 . S
N1146 H1159 0.985 . S
N1147 C1149 1.356 . S
N1147 H1152 0.984 . S
N1147 H1153 0.985 . S
C1148 C1142 1.379 1_556 S
C1148 C1145 1.363 . S
C1148 N1146 1.356 . S
C1149 C1143 1.363 . S
C1149 C1144 1.379 1_554 S
C1149 N1147 1.356 . S
N1150 C1142 1.356 . S
N1150 H1156 0.984 . S
N1150 H1157 0.984 . S
N1151 C1144 1.356 . S
N1151 H1154 0.984 . S
N1151 H1155 0.985 . S
H1152 N1147 0.984 . S
H1153 N1147 0.985 . S
H1154 N1151 0.984 . S
H1155 N1151 0.985 . S
H1156 N1150 0.984 . S
H1157 N1150 0.984 . S
H1158 N1146 0.984 . S
H1159 N1146 0.985 . S
C1160 C1161 1.363 . S
C1160 C1166 1.379 1_554 S
C1160 N1168 1.356 . S
C1161 C1160 1.363 . S
C1161 C1167 1.363 . S
C1162 C1163 1.363 . S
C1162 C1167 1.379 1_556 S
C1162 N1169 1.356 . S
C1163 C1162 1.363 . S
C1163 C1166 1.363 . S
N1164 C1166 1.356 . S
N1164 H1176 0.984 . S
N1164 H1177 0.985 . S
N1165 C1167 1.356 . S
N1165 H1170 0.984 . S
N1165 H1171 0.985 . S
C1166 C1160 1.379 1_556 S
C1166 C1163 1.363 . S
C1166 N1164 1.356 . S
C1167 C1161 1.363 . S
C1167 C1162 1.379 1_554 S
C1167 N1165 1.356 . S
N1168 C1160 1.356 . S
N1168 H1174 0.984 . S
N1168 H1175 0.984 . S
N1169 C1162 1.356 . S
N1169 H1172 0.984 . S
N1169 H1173 0.985 . S
H1170 N1165 0.984 . S
H1171 N1165 0.985 . S
H1172 N1169 0.984 . S
H1173 N1169 0.985 . S
H1174 N1168 0.984 . S
H1175 N1168 0.984 . S
H1176 N1164 0.984 . S
H1177 N1164 0.985 . S
C1178 C1179 1.363 . S
C1178 C1184 1.379 . S
C1178 N1186 1.356 . S
C1179 C1178 1.363 . S
C1179 C1185 1.363 . S
C1180 C1181 1.363 . S
C1180 C1185 1.379 . S
C1180 N1187 1.356 . S
C1181 C1180 1.363 . S
C1181 C1184 1.363 . S
N1182 C1184 1.356 . S
N1182 H1194 0.984 . S
N1182 H1195 0.985 . S
N1183 C1185 1.356 . S
N1183 H1188 0.984 . S
N1183 H1189 0.985 . S
C1184 C1178 1.379 . S
C1184 C1181 1.363 . S
C1184 N1182 1.356 . S
C1185 C1179 1.363 . S
C1185 C1180 1.379 . S
C1185 N1183 1.356 . S
N1186 C1178 1.356 . S
N1186 H1192 0.984 . S
N1186 H1193 0.984 . S
N1187 C1180 1.356 . S
N1187 H1190 0.984 . S
N1187 H1191 0.985 . S
H1188 N1183 0.984 . S
H1189 N1183 0.985 . S
H1190 N1187 0.984 . S
H1191 N1187 0.985 . S
H1192 N1186 0.984 . S
H1193 N1186 0.984 . S
H1194 N1182 0.984 . S
H1195 N1182 0.985 . S
C1196 C1197 1.363 . S
C1196 C1202 1.379 . S
C1196 N1204 1.356 . S
C1197 C1196 1.363 . S
C1197 C1203 1.363 . S
C1198 C1199 1.363 . S
C1198 C1203 1.379 . S
C1198 N1205 1.356 . S
C1199 C1198 1.363 . S
C1199 C1202 1.363 . S
N1200 C1202 1.356 . S
N1200 H1212 0.984 . S
N1200 H1213 0.985 . S
N1201 C1203 1.356 . S
N1201 H1206 0.984 . S
N1201 H1207 0.985 . S
C1202 C1196 1.379 . S
C1202 C1199 1.363 . S
C1202 N1200 1.356 . S
C1203 C1197 1.363 . S
C1203 C1198 1.379 . S
C1203 N1201 1.356 . S
N1204 C1196 1.356 . S
N1204 H1210 0.984 . S
N1204 H1211 0.984 . S
N1205 C1198 1.356 . S
N1205 H1208 0.984 . S
N1205 H1209 0.985 . S
H1206 N1201 0.984 . S
H1207 N1201 0.985 . S
H1208 N1205 0.984 . S
H1209 N1205 0.985 . S
H1210 N1204 0.984 . S
H1211 N1204 0.984 . S
H1212 N1200 0.984 . S
H1213 N1200 0.985 . S
C1214 C1215 1.363 . S
C1214 C1220 1.379 . S
C1214 N1222 1.356 . S
C1215 C1214 1.363 . S
C1215 C1221 1.363 . S
C1216 C1217 1.363 . S
C1216 C1221 1.379 . S
C1216 N1223 1.356 . S
C1217 C1216 1.363 . S
C1217 C1220 1.363 . S
N1218 C1220 1.356 . S
N1218 H1230 0.984 . S
N1218 H1231 0.985 . S
N1219 C1221 1.356 . S
N1219 H1224 0.984 . S
N1219 H1225 0.985 . S
C1220 C1214 1.379 . S
C1220 C1217 1.363 . S
C1220 N1218 1.356 . S
C1221 C1215 1.363 . S
C1221 C1216 1.379 . S
C1221 N1219 1.356 . S
N1222 C1214 1.356 . S
N1222 H1228 0.984 . S
N1222 H1229 0.984 . S
N1223 C1216 1.356 . S
N1223 H1226 0.984 . S
N1223 H1227 0.985 . S
H1224 N1219 0.984 . S
H1225 N1219 0.985 . S
H1226 N1223 0.984 . S
H1227 N1223 0.985 . S
H1228 N1222 0.984 . S
H1229 N1222 0.984 . S
H1230 N1218 0.984 . S
H1231 N1218 0.985 . S
C1232 C1233 1.363 1_565 S
C1232 C1238 1.379 1_455 S
C1232 N1240 1.356 . S
C1233 C1232 1.363 1_545 S
C1233 C1239 1.363 . S
C1234 C1235 1.363 1_545 S
C1234 C1239 1.379 1_655 S
C1234 N1241 1.356 . S
C1235 C1234 1.363 1_565 S
C1235 C1238 1.363 . S
N1236 C1238 1.356 . S
N1236 H1248 0.984 . S
N1236 H1249 0.985 . S
N1237 C1239 1.356 . S
N1237 H1242 0.984 . S
N1237 H1243 0.985 . S
C1238 C1232 1.379 1_655 S
C1238 C1235 1.363 . S
C1238 N1236 1.356 . S
C1239 C1233 1.363 . S
C1239 C1234 1.379 1_455 S
C1239 N1237 1.356 . S
N1240 C1232 1.356 . S
N1240 H1246 0.984 . S
N1240 H1247 0.984 1_565 S
N1241 C1234 1.356 . S
N1241 H1244 0.984 1_545 S
N1241 H1245 0.985 . S
H1242 N1237 0.984 . S
H1243 N1237 0.985 . S
H1244 N1241 0.984 1_565 S
H1245 N1241 0.985 . S
H1246 N1240 0.984 . S
H1247 N1240 0.984 1_545 S
H1248 N1236 0.984 . S
H1249 N1236 0.985 . S
C1250 C1251 1.363 . S
C1250 C1256 1.379 . S
C1250 N1258 1.356 . S
C1251 C1250 1.363 . S
C1251 C1257 1.363 1_455 S
C1252 C1253 1.363 . S
C1252 C1257 1.379 . S
C1252 N1259 1.356 . S
C1253 C1252 1.363 . S
C1253 C1256 1.363 1_655 S
N1254 C1256 1.356 . S
N1254 H1266 0.984 . S
N1254 H1267 0.985 1_455 S
N1255 C1257 1.356 . S
N1255 H1260 0.984 1_655 S
N1255 H1261 0.985 . S
C1256 C1250 1.379 . S
C1256 C1253 1.363 1_455 S
C1256 N1254 1.356 . S
C1257 C1251 1.363 1_655 S
C1257 C1252 1.379 . S
C1257 N1255 1.356 . S
N1258 C1250 1.356 . S
N1258 H1264 0.984 . S
N1258 H1265 0.984 . S
N1259 C1252 1.356 . S
N1259 H1262 0.984 . S
N1259 H1263 0.985 . S
H1260 N1255 0.984 1_455 S
H1261 N1255 0.985 . S
H1262 N1259 0.984 . S
H1263 N1259 0.985 . S
H1264 N1258 0.984 . S
H1265 N1258 0.984 . S
H1266 N1254 0.984 . S
H1267 N1254 0.985 1_655 S
C1268 C1269 1.363 . S
C1268 C1274 1.379 . S
C1268 N1276 1.356 . S
C1269 C1268 1.363 . S
C1269 C1275 1.363 . S
C1270 C1271 1.363 . S
C1270 C1275 1.379 . S
C1270 N1277 1.356 . S
C1271 C1270 1.363 . S
C1271 C1274 1.363 . S
N1272 C1274 1.356 . S
N1272 H1284 0.984 . S
N1272 H1285 0.985 . S
N1273 C1275 1.356 . S
N1273 H1278 0.984 . S
N1273 H1279 0.985 . S
C1274 C1268 1.379 . S
C1274 C1271 1.363 . S
C1274 N1272 1.356 . S
C1275 C1269 1.363 . S
C1275 C1270 1.379 . S
C1275 N1273 1.356 . S
N1276 C1268 1.356 . S
N1276 H1282 0.984 . S
N1276 H1283 0.984 . S
N1277 C1270 1.356 . S
N1277 H1280 0.984 . S
N1277 H1281 0.985 . S
H1278 N1273 0.984 . S
H1279 N1273 0.985 . S
H1280 N1277 0.984 . S
H1281 N1277 0.985 . S
H1282 N1276 0.984 . S
H1283 N1276 0.984 . S
H1284 N1272 0.984 . S
H1285 N1272 0.985 . S
C1286 C1287 1.363 . S
C1286 C1292 1.379 1_545 S
C1286 N1294 1.356 . S
C1287 C1286 1.363 . S
C1287 C1293 1.363 . S
C1288 C1289 1.363 . S
C1288 C1293 1.379 1_565 S
C1288 N1295 1.356 . S
C1289 C1288 1.363 . S
C1289 C1292 1.363 . S
N1290 C1292 1.356 . S
N1290 H1302 0.984 . S
N1290 H1303 0.985 . S
N1291 C1293 1.356 . S
N1291 H1296 0.984 . S
N1291 H1297 0.985 . S
C1292 C1286 1.379 1_565 S
C1292 C1289 1.363 . S
C1292 N1290 1.356 . S
C1293 C1287 1.363 . S
C1293 C1288 1.379 1_545 S
C1293 N1291 1.356 . S
N1294 C1286 1.356 . S
N1294 H1300 0.984 . S
N1294 H1301 0.984 . S
N1295 C1288 1.356 . S
N1295 H1298 0.984 . S
N1295 H1299 0.985 . S
H1296 N1291 0.984 . S
H1297 N1291 0.985 . S
H1298 N1295 0.984 . S
H1299 N1295 0.985 . S
H1300 N1294 0.984 . S
H1301 N1294 0.984 . S
H1302 N1290 0.984 . S
H1303 N1290 0.985 . S
C1304 C1305 1.363 . S
C1304 C1310 1.379 1_455 S
C1304 N1312 1.356 . S
C1305 C1304 1.363 . S
C1305 C1311 1.363 . S
C1306 C1307 1.363 . S
C1306 C1311 1.379 1_655 S
C1306 N1313 1.356 . S
C1307 C1306 1.363 . S
C1307 C1310 1.363 . S
N1308 C1310 1.356 . S
N1308 H1320 0.984 . S
N1308 H1321 0.985 . S
N1309 C1311 1.356 . S
N1309 H1314 0.984 . S
N1309 H1315 0.985 . S
C1310 C1304 1.379 1_655 S
C1310 C1307 1.363 . S
C1310 N1308 1.356 . S
C1311 C1305 1.363 . S
C1311 C1306 1.379 1_455 S
C1311 N1309 1.356 . S
N1312 C1304 1.356 . S
N1312 H1318 0.984 . S
N1312 H1319 0.984 . S
N1313 C1306 1.356 . S
N1313 H1316 0.984 . S
N1313 H1317 0.985 . S
H1314 N1309 0.984 . S
H1315 N1309 0.985 . S
H1316 N1313 0.984 . S
H1317 N1313 0.985 . S
H1318 N1312 0.984 . S
H1319 N1312 0.984 . S
H1320 N1308 0.984 . S
H1321 N1308 0.985 . S
C1322 C1323 1.363 . S
C1322 C1328 1.379 . S
C1322 N1330 1.356 . S
C1323 C1322 1.363 . S
C1323 C1329 1.363 . S
C1324 C1325 1.363 . S
C1324 C1329 1.379 . S
C1324 N1331 1.356 . S
C1325 C1324 1.363 . S
C1325 C1328 1.363 . S
N1326 C1328 1.356 . S
N1326 H1338 0.984 . S
N1326 H1339 0.985 . S
N1327 C1329 1.356 . S
N1327 H1332 0.984 . S
N1327 H1333 0.985 . S
C1328 C1322 1.379 . S
C1328 C1325 1.363 . S
C1328 N1326 1.356 . S
C1329 C1323 1.363 . S
C1329 C1324 1.379 . S
C1329 N1327 1.356 . S
N1330 C1322 1.356 . S
N1330 H1336 0.984 . S
N1330 H1337 0.984 . S
N1331 C1324 1.356 . S
N1331 H1334 0.984 . S
N1331 H1335 0.985 . S
H1332 N1327 0.984 . S
H1333 N1327 0.985 . S
H1334 N1331 0.984 . S
H1335 N1331 0.985 . S
H1336 N1330 0.984 . S
H1337 N1330 0.984 . S
H1338 N1326 0.984 . S
H1339 N1326 0.985 . S
C1340 C1341 1.363 1_545 S
C1340 C1346 1.379 . S
C1340 N1348 1.356 . S
C1341 C1340 1.363 1_565 S
C1341 C1347 1.363 . S
C1342 C1343 1.363 1_565 S
C1342 C1347 1.379 . S
C1342 N1349 1.356 . S
C1343 C1342 1.363 1_545 S
C1343 C1346 1.363 . S
N1344 C1346 1.356 . S
N1344 H1356 0.984 . S
N1344 H1357 0.985 . S
N1345 C1347 1.356 . S
N1345 H1350 0.984 . S
N1345 H1351 0.985 . S
C1346 C1340 1.379 . S
C1346 C1343 1.363 . S
C1346 N1344 1.356 . S
C1347 C1341 1.363 . S
C1347 C1342 1.379 . S
C1347 N1345 1.356 . S
N1348 C1340 1.356 . S
N1348 H1354 0.984 . S
N1348 H1355 0.984 1_545 S
N1349 C1342 1.356 . S
N1349 H1352 0.984 1_565 S
N1349 H1353 0.985 . S
H1350 N1345 0.984 . S
H1351 N1345 0.985 . S
H1352 N1349 0.984 1_545 S
H1353 N1349 0.985 . S
H1354 N1348 0.984 . S
H1355 N1348 0.984 1_565 S
H1356 N1344 0.984 . S
H1357 N1344 0.985 . S
C1358 C1359 1.363 . S
C1358 C1364 1.379 1_545 S
C1358 N1366 1.356 . S
C1359 C1358 1.363 . S
C1359 C1365 1.363 1_455 S
C1360 C1361 1.363 . S
C1360 C1365 1.379 1_565 S
C1360 N1367 1.356 . S
C1361 C1360 1.363 . S
C1361 C1364 1.363 1_655 S
N1362 C1364 1.356 . S
N1362 H1374 0.984 . S
N1362 H1375 0.985 1_455 S
N1363 C1365 1.356 . S
N1363 H1368 0.984 1_655 S
N1363 H1369 0.985 . S
C1364 C1358 1.379 1_565 S
C1364 C1361 1.363 1_455 S
C1364 N1362 1.356 . S
C1365 C1359 1.363 1_655 S
C1365 C1360 1.379 1_545 S
C1365 N1363 1.356 . S
N1366 C1358 1.356 . S
N1366 H1372 0.984 . S
N1366 H1373 0.984 . S
N1367 C1360 1.356 . S
N1367 H1370 0.984 . S
N1367 H1371 0.985 . S
H1368 N1363 0.984 1_455 S
H1369 N1363 0.985 . S
H1370 N1367 0.984 . S
H1371 N1367 0.985 . S
H1372 N1366 0.984 . S
H1373 N1366 0.984 . S
H1374 N1362 0.984 . S
H1375 N1362 0.985 1_655 S
C1376 C1377 1.363 1_545 S
C1376 C1382 1.379 . S
C1376 N1384 1.357 . S
C1377 C1376 1.363 1_565 S
C1377 C1383 1.363 . S
C1378 C1379 1.363 1_565 S
C1378 C1383 1.379 . S
C1378 N1385 1.357 . S
C1379 C1378 1.363 1_545 S
C1379 C1382 1.363 . S
N1380 C1382 1.356 . S
N1380 H1392 0.984 . S
N1380 H1393 0.985 . S
N1381 C1383 1.356 . S
N1381 H1386 0.984 . S
N1381 H1387 0.985 . S
C1382 C1376 1.379 . S
C1382 C1379 1.363 . S
C1382 N1380 1.356 . S
C1383 C1377 1.363 . S
C1383 C1378 1.379 . S
C1383 N1381 1.356 . S
N1384 C1376 1.357 . S
N1384 H1390 0.991 . S
N1384 H1391 0.977 1_545 S
N1385 C1378 1.357 . S
N1385 H1388 0.977 1_565 S
N1385 H1389 0.991 . S
H1386 N1381 0.984 . S
H1387 N1381 0.985 . S
H1388 N1385 0.977 1_545 S
H1389 N1385 0.991 . S
H1390 N1384 0.991 . S
H1391 N1384 0.977 1_565 S
H1392 N1380 0.984 . S
H1393 N1380 0.985 . S
C1394 C1395 1.363 . S
C1394 C1400 1.379 1_565 S
C1394 N1402 1.356 . S
C1395 C1394 1.363 . S
C1395 C1401 1.363 1_655 S
C1396 C1397 1.363 . S
C1396 C1401 1.379 1_545 S
C1396 N1403 1.356 . S
C1397 C1396 1.363 . S
C1397 C1400 1.363 1_455 S
N1398 C1400 1.357 . S
N1398 H1410 0.991 . S
N1398 H1411 0.977 1_655 S
N1399 C1401 1.357 . S
N1399 H1404 0.977 1_455 S
N1399 H1405 0.991 . S
C1400 C1394 1.379 1_545 S
C1400 C1397 1.363 1_655 S
C1400 N1398 1.357 . S
C1401 C1395 1.363 1_455 S
C1401 C1396 1.379 1_565 S
C1401 N1399 1.357 . S
N1402 C1394 1.356 . S
N1402 H1408 0.984 . S
N1402 H1409 0.984 . S
N1403 C1396 1.356 . S
N1403 H1406 0.984 . S
N1403 H1407 0.985 . S
H1404 N1399 0.977 1_655 S
H1405 N1399 0.991 . S
H1406 N1403 0.984 . S
H1407 N1403 0.985 . S
H1408 N1402 0.984 . S
H1409 N1402 0.984 . S
H1410 N1398 0.991 . S
H1411 N1398 0.977 1_455 S
C1412 C1413 1.363 . S
C1412 C1418 1.379 1_455 S
C1412 N1420 1.356 . S
C1413 C1412 1.363 . S
C1413 C1419 1.363 . S
C1414 C1415 1.363 . S
C1414 C1419 1.379 1_655 S
C1414 N1421 1.356 . S
C1415 C1414 1.363 . S
C1415 C1418 1.363 . S
N1416 C1418 1.356 . S
N1416 H1428 0.984 . S
N1416 H1429 0.985 . S
N1417 C1419 1.356 . S
N1417 H1422 0.984 . S
N1417 H1423 0.985 . S
C1418 C1412 1.379 1_655 S
C1418 C1415 1.363 . S
C1418 N1416 1.356 . S
C1419 C1413 1.363 . S
C1419 C1414 1.379 1_455 S
C1419 N1417 1.356 . S
N1420 C1412 1.356 . S
N1420 H1426 0.984 . S
N1420 H1427 0.984 . S
N1421 C1414 1.356 . S
N1421 H1424 0.984 . S
N1421 H1425 0.985 . S
H1422 N1417 0.984 . S
H1423 N1417 0.985 . S
H1424 N1421 0.984 . S
H1425 N1421 0.985 . S
H1426 N1420 0.984 . S
H1427 N1420 0.984 . S
H1428 N1416 0.984 . S
H1429 N1416 0.985 . S
C1430 C1431 1.363 . S
C1430 C1436 1.379 . S
C1430 N1438 1.356 . S
C1431 C1430 1.363 . S
C1431 C1437 1.363 . S
C1432 C1433 1.363 . S
C1432 C1437 1.379 . S
C1432 N1439 1.356 . S
C1433 C1432 1.363 . S
C1433 C1436 1.363 . S
N1434 C1436 1.356 . S
N1434 H1446 0.984 . S
N1434 H1447 0.985 . S
N1435 C1437 1.356 . S
N1435 H1440 0.984 . S
N1435 H1441 0.985 . S
C1436 C1430 1.379 . S
C1436 C1433 1.363 . S
C1436 N1434 1.356 . S
C1437 C1431 1.363 . S
C1437 C1432 1.379 . S
C1437 N1435 1.356 . S
N1438 C1430 1.356 . S
N1438 H1444 0.984 . S
N1438 H1445 0.984 . S
N1439 C1432 1.356 . S
N1439 H1442 0.984 . S
N1439 H1443 0.985 . S
H1440 N1435 0.984 . S
H1441 N1435 0.985 . S
H1442 N1439 0.984 . S
H1443 N1439 0.985 . S
H1444 N1438 0.984 . S
H1445 N1438 0.984 . S
H1446 N1434 0.984 . S
H1447 N1434 0.985 . S
C1448 C1449 1.363 . S
C1448 C1454 1.379 . S
C1448 N1456 1.356 . S
C1449 C1448 1.363 . S
C1449 C1455 1.363 . S
C1450 C1451 1.363 . S
C1450 C1455 1.379 . S
C1450 N1457 1.356 . S
C1451 C1450 1.363 . S
C1451 C1454 1.363 . S
N1452 C1454 1.356 . S
N1452 H1464 0.984 . S
N1452 H1465 0.985 . S
N1453 C1455 1.356 . S
N1453 H1458 0.984 . S
N1453 H1459 0.985 . S
C1454 C1448 1.379 . S
C1454 C1451 1.363 . S
C1454 N1452 1.356 . S
C1455 C1449 1.363 . S
C1455 C1450 1.379 . S
C1455 N1453 1.356 . S
N1456 C1448 1.356 . S
N1456 H1462 0.984 . S
N1456 H1463 0.984 . S
N1457 C1450 1.356 . S
N1457 H1460 0.984 . S
N1457 H1461 0.985 . S
H1458 N1453 0.984 . S
H1459 N1453 0.985 . S
H1460 N1457 0.984 . S
H1461 N1457 0.985 . S
H1462 N1456 0.984 . S
H1463 N1456 0.984 . S
H1464 N1452 0.984 . S
H1465 N1452 0.985 . S
C1466 C1467 1.363 . S
C1466 C1472 1.379 1_545 S
C1466 N1474 1.356 . S
C1467 C1466 1.363 . S
C1467 C1473 1.363 . S
C1468 C1469 1.363 . S
C1468 C1473 1.379 1_565 S
C1468 N1475 1.356 . S
C1469 C1468 1.363 . S
C1469 C1472 1.363 . S
N1470 C1472 1.356 . S
N1470 H1482 0.984 . S
N1470 H1483 0.985 . S
N1471 C1473 1.356 . S
N1471 H1476 0.984 . S
N1471 H1477 0.985 . S
C1472 C1466 1.379 1_565 S
C1472 C1469 1.363 . S
C1472 N1470 1.356 . S
C1473 C1467 1.363 . S
C1473 C1468 1.379 1_545 S
C1473 N1471 1.356 . S
N1474 C1466 1.356 . S
N1474 H1480 0.984 . S
N1474 H1481 0.984 . S
N1475 C1468 1.356 . S
N1475 H1478 0.984 . S
N1475 H1479 0.985 . S
H1476 N1471 0.984 . S
H1477 N1471 0.985 . S
H1478 N1475 0.984 . S
H1479 N1475 0.985 . S
H1480 N1474 0.984 . S
H1481 N1474 0.984 . S
H1482 N1470 0.984 . S
H1483 N1470 0.985 . S
C1484 C1485 1.363 . S
C1484 C1490 1.379 1_655 S
C1484 N1492 1.356 . S
C1485 C1484 1.363 . S
C1485 C1491 1.363 1_565 S
C1486 C1487 1.363 . S
C1486 C1491 1.379 1_455 S
C1486 N1493 1.356 . S
C1487 C1486 1.363 . S
C1487 C1490 1.363 1_545 S
N1488 C1490 1.357 . S
N1488 H1500 0.991 . S
N1488 H1501 0.977 1_565 S
N1489 C1491 1.357 . S
N1489 H1494 0.977 1_545 S
N1489 H1495 0.991 . S
C1490 C1484 1.379 1_455 S
C1490 C1487 1.363 1_565 S
C1490 N1488 1.357 . S
C1491 C1485 1.363 1_545 S
C1491 C1486 1.379 1_655 S
C1491 N1489 1.357 . S
N1492 C1484 1.356 . S
N1492 H1498 0.984 . S
N1492 H1499 0.984 . S
N1493 C1486 1.356 . S
N1493 H1496 0.984 . S
N1493 H1497 0.985 . S
H1494 N1489 0.977 1_565 S
H1495 N1489 0.991 . S
H1496 N1493 0.984 . S
H1497 N1493 0.985 . S
H1498 N1492 0.984 . S
H1499 N1492 0.984 . S
H1500 N1488 0.991 . S
H1501 N1488 0.977 1_545 S
C1502 C1503 1.363 1_455 S
C1502 C1508 1.379 . S
C1502 N1510 1.357 . S
C1503 C1502 1.363 1_655 S
C1503 C1509 1.363 . S
C1504 C1505 1.363 1_655 S
C1504 C1509 1.379 . S
C1504 N1511 1.357 . S
C1505 C1504 1.363 1_455 S
C1505 C1508 1.363 . S
N1506 C1508 1.356 . S
N1506 H1518 0.984 . S
N1506 H1519 0.985 . S
N1507 C1509 1.356 . S
N1507 H1512 0.984 . S
N1507 H1513 0.985 . S
C1508 C1502 1.379 . S
C1508 C1505 1.363 . S
C1508 N1506 1.356 . S
C1509 C1503 1.363 . S
C1509 C1504 1.379 . S
C1509 N1507 1.356 . S
N1510 C1502 1.357 . S
N1510 H1516 0.991 . S
N1510 H1517 0.977 1_455 S
N1511 C1504 1.357 . S
N1511 H1514 0.977 1_655 S
N1511 H1515 0.991 . S
H1512 N1507 0.984 . S
H1513 N1507 0.985 . S
H1514 N1511 0.977 1_455 S
H1515 N1511 0.991 . S
H1516 N1510 0.991 . S
H1517 N1510 0.977 1_655 S
H1518 N1506 0.984 . S
H1519 N1506 0.985 . S
C945 C239 1.527 . S
C947 C3 1.527 . S
C963 C62 1.527 . S
C965 C298 1.527 . S
C981 C357 1.527 . S
C983 C121 1.527 . S
C999 C416 1.527 . S
C1001 C180 1.527 . S
C1017 C711 1.527 . S
C1019 C475 1.527 . S
C1035 C534 1.527 . S
C1037 C770 1.527 . S
C1053 C829 1.527 . S
C1055 C593 1.527 . S
C1071 C652 1.527 . S
C1073 C888 1.527 . S
C1089 C33 1.553 . S
C1091 C918 1.553 . S
C1107 C92 1.553 . S
C1109 C741 1.553 . S
C1125 C151 1.553 . S
C1127 C800 1.553 . S
C1143 C859 1.553 . S
C1145 C210 1.553 . S
C1161 C269 1.553 . S
C1163 C564 1.553 . S
C1179 C328 1.553 . S
C1181 C623 1.553 . S
C1197 C682 1.553 . S
C1199 C387 1.553 . S
C1215 C505 1.553 . S
C1217 C446 1.553 . S
C1233 C5 1.617 . S
C1235 C595 1.617 . S
C1251 C654 1.617 . S
C1253 C64 1.617 . S
C1269 C123 1.618 . S
C1271 C477 1.618 . S
C1287 C536 1.617 . S
C1289 C182 1.617 . S
C1305 C241 1.617 . S
C1307 C831 1.617 . S
C1323 C300 1.618 . S
C1325 C890 1.618 . S
C1341 C713 1.617 . S
C1343 C359 1.617 . S
C1359 C772 1.617 . S
C1361 C418 1.617 . S
C1377 C642 1.488 . S
C1379 C52 1.488 . S
C1395 C111 1.489 . S
C1397 C701 1.489 . S
C1413 C170 1.488 . S
C1415 C524 1.488 . S
C1431 C583 1.489 . S
C1433 C229 1.489 . S
C1449 C878 1.489 . S
C1451 C288 1.489 . S
C1467 C937 1.488 . S
C1469 C347 1.488 . S
C1485 C760 1.489 . S
C1487 C406 1.489 . S
C1503 C465 1.488 . S
C1505 C819 1.488 . S
