# Generated by pormake.
# Topology uoi, (4)-cn, num edge types: 1
# Building blocks:
#     Node 0, Type 0, BuildingBlock: NAHDIM_clean_sbu_0, # of connection points: 4
#     Node 1, Type 0, BuildingBlock: NAHDIM_clean_sbu_0, # of connection points: 4
#     Node 2, Type 0, BuildingBlock: NAHDIM_clean_sbu_0, # of connection points: 4
#     Node 3, Type 0, BuildingBlock: NAHDIM_clean_sbu_0, # of connection points: 4
#     Node 4, Type 0, BuildingBlock: NAHDIM_clean_sbu_0, # of connection points: 4
#     Node 5, Type 0, BuildingBlock: NAHDIM_clean_sbu_0, # of connection points: 4
#     Node 6, Type 0, BuildingBlock: NAHDIM_clean_sbu_0, # of connection points: 4
#     Node 7, Type 0, BuildingBlock: NAHDIM_clean_sbu_0, # of connection points: 4
#     Node 8, Type 0, BuildingBlock: NAHDIM_clean_sbu_0, # of connection points: 4
#     Node 9, Type 0, BuildingBlock: NAHDIM_clean_sbu_0, # of connection points: 4
#     Node 10, Type 0, BuildingBlock: NAHDIM_clean_sbu_0, # of connection points: 4
#     Node 11, Type 0, BuildingBlock: NAHDIM_clean_sbu_0, # of connection points: 4
#     Node 12, Type 0, BuildingBlock: NAHDIM_clean_sbu_0, # of connection points: 4
#     Node 13, Type 0, BuildingBlock: NAHDIM_clean_sbu_0, # of connection points: 4
#     Node 14, Type 0, BuildingBlock: NAHDIM_clean_sbu_0, # of connection points: 4
#     Node 15, Type 0, BuildingBlock: NAHDIM_clean_sbu_0, # of connection points: 4
#     Node 16, Type 0, BuildingBlock: NAHDIM_clean_sbu_0, # of connection points: 4
#     Node 17, Type 0, BuildingBlock: NAHDIM_clean_sbu_0, # of connection points: 4
#     Node 18, Type 0, BuildingBlock: NAHDIM_clean_sbu_0, # of connection points: 4
#     Node 19, Type 0, BuildingBlock: NAHDIM_clean_sbu_0, # of connection points: 4
#     Node 20, Type 0, BuildingBlock: NAHDIM_clean_sbu_0, # of connection points: 4
#     Node 21, Type 0, BuildingBlock: NAHDIM_clean_sbu_0, # of connection points: 4
#     Node 22, Type 0, BuildingBlock: NAHDIM_clean_sbu_0, # of connection points: 4
#     Node 23, Type 0, BuildingBlock: NAHDIM_clean_sbu_0, # of connection points: 4
#     Node 24, Type 0, BuildingBlock: NAHDIM_clean_sbu_0, # of connection points: 4
#     Node 25, Type 0, BuildingBlock: NAHDIM_clean_sbu_0, # of connection points: 4
#     Node 26, Type 0, BuildingBlock: NAHDIM_clean_sbu_0, # of connection points: 4
#     Node 27, Type 0, BuildingBlock: NAHDIM_clean_sbu_0, # of connection points: 4
#     Node 28, Type 0, BuildingBlock: NAHDIM_clean_sbu_0, # of connection points: 4
#     Node 29, Type 0, BuildingBlock: NAHDIM_clean_sbu_0, # of connection points: 4
#     Node 30, Type 0, BuildingBlock: NAHDIM_clean_sbu_0, # of connection points: 4
#     Node 31, Type 0, BuildingBlock: NAHDIM_clean_sbu_0, # of connection points: 4
#     Edge 32, Type (0, 0), BuildingBlock: AJUNOK_clean_linker_0, # of connection points: 2
#     Edge 33, Type (0, 0), BuildingBlock: AJUNOK_clean_linker_0, # of connection points: 2
#     Edge 34, Type (0, 0), BuildingBlock: AJUNOK_clean_linker_0, # of connection points: 2
#     Edge 35, Type (0, 0), BuildingBlock: AJUNOK_clean_linker_0, # of connection points: 2
#     Edge 36, Type (0, 0), BuildingBlock: AJUNOK_clean_linker_0, # of connection points: 2
#     Edge 37, Type (0, 0), BuildingBlock: AJUNOK_clean_linker_0, # of connection points: 2
#     Edge 38, Type (0, 0), BuildingBlock: AJUNOK_clean_linker_0, # of connection points: 2
#     Edge 39, Type (0, 0), BuildingBlock: AJUNOK_clean_linker_0, # of connection points: 2
#     Edge 40, Type (0, 0), BuildingBlock: AJUNOK_clean_linker_0, # of connection points: 2
#     Edge 41, Type (0, 0), BuildingBlock: AJUNOK_clean_linker_0, # of connection points: 2
#     Edge 42, Type (0, 0), BuildingBlock: AJUNOK_clean_linker_0, # of connection points: 2
#     Edge 43, Type (0, 0), BuildingBlock: AJUNOK_clean_linker_0, # of connection points: 2
#     Edge 44, Type (0, 0), BuildingBlock: AJUNOK_clean_linker_0, # of connection points: 2
#     Edge 45, Type (0, 0), BuildingBlock: AJUNOK_clean_linker_0, # of connection points: 2
#     Edge 46, Type (0, 0), BuildingBlock: AJUNOK_clean_linker_0, # of connection points: 2
#     Edge 47, Type (0, 0), BuildingBlock: AJUNOK_clean_linker_0, # of connection points: 2
#     Edge 48, Type (0, 0), BuildingBlock: AJUNOK_clean_linker_0, # of connection points: 2
#     Edge 49, Type (0, 0), BuildingBlock: AJUNOK_clean_linker_0, # of connection points: 2
#     Edge 50, Type (0, 0), BuildingBlock: AJUNOK_clean_linker_0, # of connection points: 2
#     Edge 51, Type (0, 0), BuildingBlock: AJUNOK_clean_linker_0, # of connection points: 2
#     Edge 52, Type (0, 0), BuildingBlock: AJUNOK_clean_linker_0, # of connection points: 2
#     Edge 53, Type (0, 0), BuildingBlock: AJUNOK_clean_linker_0, # of connection points: 2
#     Edge 54, Type (0, 0), BuildingBlock: AJUNOK_clean_linker_0, # of connection points: 2
#     Edge 55, Type (0, 0), BuildingBlock: AJUNOK_clean_linker_0, # of connection points: 2
#     Edge 56, Type (0, 0), BuildingBlock: AJUNOK_clean_linker_0, # of connection points: 2
#     Edge 57, Type (0, 0), BuildingBlock: AJUNOK_clean_linker_0, # of connection points: 2
#     Edge 58, Type (0, 0), BuildingBlock: AJUNOK_clean_linker_0, # of connection points: 2
#     Edge 59, Type (0, 0), BuildingBlock: AJUNOK_clean_linker_0, # of connection points: 2
#     Edge 60, Type (0, 0), BuildingBlock: AJUNOK_clean_linker_0, # of connection points: 2
#     Edge 61, Type (0, 0), BuildingBlock: AJUNOK_clean_linker_0, # of connection points: 2
#     Edge 62, Type (0, 0), BuildingBlock: AJUNOK_clean_linker_0, # of connection points: 2
#     Edge 63, Type (0, 0), BuildingBlock: AJUNOK_clean_linker_0, # of connection points: 2
#     Edge 64, Type (0, 0), BuildingBlock: AJUNOK_clean_linker_0, # of connection points: 2
#     Edge 65, Type (0, 0), BuildingBlock: AJUNOK_clean_linker_0, # of connection points: 2
#     Edge 66, Type (0, 0), BuildingBlock: AJUNOK_clean_linker_0, # of connection points: 2
#     Edge 67, Type (0, 0), BuildingBlock: AJUNOK_clean_linker_0, # of connection points: 2
#     Edge 68, Type (0, 0), BuildingBlock: AJUNOK_clean_linker_0, # of connection points: 2
#     Edge 69, Type (0, 0), BuildingBlock: AJUNOK_clean_linker_0, # of connection points: 2
#     Edge 70, Type (0, 0), BuildingBlock: AJUNOK_clean_linker_0, # of connection points: 2
#     Edge 71, Type (0, 0), BuildingBlock: AJUNOK_clean_linker_0, # of connection points: 2
#     Edge 72, Type (0, 0), BuildingBlock: AJUNOK_clean_linker_0, # of connection points: 2
#     Edge 73, Type (0, 0), BuildingBlock: AJUNOK_clean_linker_0, # of connection points: 2
#     Edge 74, Type (0, 0), BuildingBlock: AJUNOK_clean_linker_0, # of connection points: 2
#     Edge 75, Type (0, 0), BuildingBlock: AJUNOK_clean_linker_0, # of connection points: 2
#     Edge 76, Type (0, 0), BuildingBlock: AJUNOK_clean_linker_0, # of connection points: 2
#     Edge 77, Type (0, 0), BuildingBlock: AJUNOK_clean_linker_0, # of connection points: 2
#     Edge 78, Type (0, 0), BuildingBlock: AJUNOK_clean_linker_0, # of connection points: 2
#     Edge 79, Type (0, 0), BuildingBlock: AJUNOK_clean_linker_0, # of connection points: 2
#     Edge 80, Type (0, 0), BuildingBlock: AJUNOK_clean_linker_0, # of connection points: 2
#     Edge 81, Type (0, 0), BuildingBlock: AJUNOK_clean_linker_0, # of connection points: 2
#     Edge 82, Type (0, 0), BuildingBlock: AJUNOK_clean_linker_0, # of connection points: 2
#     Edge 83, Type (0, 0), BuildingBlock: AJUNOK_clean_linker_0, # of connection points: 2
#     Edge 84, Type (0, 0), BuildingBlock: AJUNOK_clean_linker_0, # of connection points: 2
#     Edge 85, Type (0, 0), BuildingBlock: AJUNOK_clean_linker_0, # of connection points: 2
#     Edge 86, Type (0, 0), BuildingBlock: AJUNOK_clean_linker_0, # of connection points: 2
#     Edge 87, Type (0, 0), BuildingBlock: AJUNOK_clean_linker_0, # of connection points: 2
#     Edge 88, Type (0, 0), BuildingBlock: AJUNOK_clean_linker_0, # of connection points: 2
#     Edge 89, Type (0, 0), BuildingBlock: AJUNOK_clean_linker_0, # of connection points: 2
#     Edge 90, Type (0, 0), BuildingBlock: AJUNOK_clean_linker_0, # of connection points: 2
#     Edge 91, Type (0, 0), BuildingBlock: AJUNOK_clean_linker_0, # of connection points: 2
#     Edge 92, Type (0, 0), BuildingBlock: AJUNOK_clean_linker_0, # of connection points: 2
#     Edge 93, Type (0, 0), BuildingBlock: AJUNOK_clean_linker_0, # of connection points: 2
#     Edge 94, Type (0, 0), BuildingBlock: AJUNOK_clean_linker_0, # of connection points: 2
#     Edge 95, Type (0, 0), BuildingBlock: AJUNOK_clean_linker_0, # of connection points: 2
# Relax obj value: 0.311
# Max RMSD: 0.189
# Mean RMSD: 0.189
data_MOF--net-uoi--node1-NAHDIM_clean_sbu_0--edge1-AJUNOK_clean_linker_0
_symmetry_space_group_name_H-M    P1
_symmetry_Int_Tables_number       1
_symmetry_cell_setting            triclinic
loop_
_symmetry_equiv_pos_as_xyz
'x, y, z'
_cell_length_a     59.705609
_cell_length_b     59.68612
_cell_length_c     14.017027
_cell_angle_alpha  89.956288
_cell_angle_beta   90.016011
_cell_angle_gamma 89.996548
loop_
_atom_site_label
_atom_site_type_symbol
_atom_site_fract_x
_atom_site_fract_y
_atom_site_fract_z
_atom_type_partial_charge
C0 C 0.14651 0.13785 0.25773 0.0
O1 O 0.16727 0.14321 0.23663 0.0
O2 O 0.18738 0.1632 0.4225 0.0
Zn3 Zn 0.15513 0.17135 0.39352 0.0
O4 O 0.15536 0.19641 0.29815 0.0
C5 C 0.15315 0.18239 0.58939 0.0
O6 O 0.16592 0.16465 0.59992 0.0
O7 O 0.13752 0.14661 0.33105 0.0
C8 C 0.14599 0.2154 0.30907 0.0
O9 O 0.13525 0.21981 0.38857 0.0
C10 C 0.19961 0.17978 0.44578 0.0
O11 O 0.19084 0.19996 0.44262 0.0
O12 O 0.14187 0.18431 0.51297 0.0
C13 C 0.08641 0.8945 0.52324 0.0
O14 O 0.07239 0.90924 0.48731 0.0
O15 O 0.06394 0.93444 0.72358 0.0
Zn16 Zn 0.05844 0.90259 0.6824 0.0
O17 O 0.0311 0.9009 0.59951 0.0
C18 C 0.05361 0.89432 0.88192 0.0
O19 O 0.06972 0.9092 0.88899 0.0
O20 O 0.08436 0.88903 0.61057 0.0
C21 C 0.01201 0.90534 0.6349 0.0
O22 O 0.0108 0.9125 0.72332 0.0
C23 C 0.05928 0.95198 0.67638 0.0
O24 O 0.05192 0.95011 0.58843 0.0
O25 O 0.04946 0.8859 0.80055 0.0
C26 C 0.34994 0.83825 0.7527 0.0
O27 O 0.33548 0.82486 0.71093 0.0
O28 O 0.3065 0.81057 0.90943 0.0
Zn29 Zn 0.34003 0.80789 0.90015 0.0
O30 O 0.34706 0.78122 0.8183 0.0
C31 C 0.34058 0.79971 0.1041 0.0
O32 O 0.32235 0.812 0.10515 0.0
O33 O 0.35453 0.83493 0.84022 0.0
C34 C 0.34274 0.76177 0.85046 0.0
O35 O 0.33257 0.75989 0.93317 0.0
C36 C 0.296 0.82792 0.93699 0.0
O37 O 0.30734 0.84627 0.95551 0.0
O38 O 0.3523 0.79907 0.0285 0.0
C39 C 0.399 0.1169 0.07295 0.0
O40 O 0.39717 0.12108 0.16464 0.0
O41 O 0.43901 0.05939 0.14084 0.0
Zn42 Zn 0.44125 0.09266 0.1189 0.0
O43 O 0.46865 0.09818 0.04019 0.0
C44 C 0.44587 0.09767 0.32313 0.0
O45 O 0.43193 0.0807 0.3273 0.0
O46 O 0.4154 0.10528 0.04353 0.0
C47 C 0.48791 0.09364 0.07364 0.0
O48 O 0.48946 0.08393 0.15753 0.0
C49 C 0.42166 0.04873 0.16733 0.0
O50 O 0.40263 0.05957 0.17639 0.0
O51 O 0.44864 0.10762 0.24379 0.0
C52 C 0.14591 0.84718 0.26244 0.0
O53 O 0.1618 0.83373 0.29288 0.0
O54 O 0.19045 0.83064 0.08191 0.0
Zn55 Zn 0.15761 0.82354 0.0989 0.0
O56 O 0.15398 0.7953 0.17637 0.0
C57 C 0.15462 0.82087 0.89278 0.0
O58 O 0.17066 0.83594 0.89344 0.0
O59 O 0.14131 0.84733 0.17371 0.0
C60 C 0.15007 0.7759 0.14275 0.0
O61 O 0.14984 0.77281 0.05002 0.0
C62 C 0.20235 0.81558 0.04259 0.0
O63 O 0.19288 0.79638 0.02075 0.0
O64 O 0.1445 0.81648 0.97034 0.0
C65 C 0.40152 0.89933 0.51387 0.0
O66 O 0.41512 0.91444 0.54976 0.0
O67 O 0.41952 0.94486 0.33463 0.0
Zn68 Zn 0.42664 0.91203 0.35406 0.0
O69 O 0.45438 0.9083 0.43503 0.0
C70 C 0.43041 0.90888 0.14833 0.0
O71 O 0.41522 0.92479 0.14777 0.0
O72 O 0.40213 0.89568 0.4244 0.0
C73 C 0.47388 0.90487 0.40155 0.0
O74 O 0.4771 0.90541 0.30898 0.0
C75 C 0.43487 0.95683 0.29773 0.0
O76 O 0.45444 0.94758 0.28102 0.0
O77 O 0.43455 0.89882 0.22638 0.0
C78 C 0.3427 0.16643 0.80619 0.0
O79 O 0.32758 0.18012 0.84139 0.0
O80 O 0.29986 0.18964 0.6245 0.0
Zn81 Zn 0.333 0.19363 0.64726 0.0
O82 O 0.33764 0.22101 0.7276 0.0
C83 C 0.33808 0.20018 0.443 0.0
O84 O 0.32052 0.18705 0.43628 0.0
O85 O 0.34753 0.16796 0.71796 0.0
C86 C 0.33334 0.24035 0.69435 0.0
O87 O 0.32398 0.24211 0.60984 0.0
C88 C 0.29038 0.17173 0.59664 0.0
O89 O 0.30241 0.15343 0.58758 0.0
O90 O 0.34775 0.20223 0.52332 0.0
C91 C 0.09633 0.09333 0.95768 0.0
O92 O 0.10098 0.07276 0.9311 0.0
O93 O 0.06326 0.05734 0.80031 0.0
Zn94 Zn 0.05655 0.08931 0.8362 0.0
O95 O 0.02839 0.09103 0.91268 0.0
C96 C 0.05208 0.09729 0.63501 0.0
O97 O 0.06632 0.08061 0.62803 0.0
O98 O 0.07981 0.10357 0.92057 0.0
C99 C 0.00904 0.08744 0.87821 0.0
O100 O 0.00711 0.07972 0.79087 0.0
C101 C 0.05782 0.04047 0.85042 0.0
O102 O 0.04856 0.04369 0.93428 0.0
O103 O 0.0488 0.10611 0.71637 0.0
C104 C 0.84863 0.83951 0.77405 0.0
O105 O 0.83659 0.8234 0.81222 0.0
O106 O 0.80668 0.81168 0.60083 0.0
Zn107 Zn 0.84022 0.81197 0.61559 0.0
O108 O 0.84912 0.78541 0.69441 0.0
C109 C 0.84366 0.80764 0.40908 0.0
O110 O 0.82557 0.82011 0.40675 0.0
O111 O 0.85201 0.83923 0.68435 0.0
C112 C 0.84739 0.76565 0.66164 0.0
O113 O 0.83815 0.76262 0.57756 0.0
C114 C 0.7949 0.82813 0.57262 0.0
O115 O 0.80464 0.84755 0.55751 0.0
O116 O 0.85412 0.80543 0.48756 0.0
C117 C 0.89876 0.09735 0.48867 0.0
O118 O 0.9069 0.07756 0.51074 0.0
O119 O 0.92248 0.059 0.30584 0.0
Zn120 Zn 0.92934 0.09134 0.33605 0.0
O121 O 0.95752 0.09396 0.41399 0.0
C122 C 0.93377 0.09658 0.13368 0.0
O123 O 0.91923 0.08008 0.13064 0.0
O124 O 0.90493 0.10652 0.41106 0.0
C125 C 0.97684 0.0922 0.37637 0.0
O126 O 0.97844 0.0869 0.28574 0.0
C127 C 0.93196 0.04251 0.34649 0.0
O128 O 0.94573 0.04628 0.41781 0.0
O129 O 0.93706 0.10646 0.21268 0.0
C130 C 0.64875 0.1512 0.18244 0.0
O131 O 0.66086 0.14137 0.11638 0.0
O132 O 0.69093 0.18744 0.04359 0.0
Zn133 Zn 0.66033 0.19536 0.09424 0.0
O134 O 0.66122 0.22376 0.16994 0.0
C135 C 0.64802 0.20087 0.89809 0.0
O136 O 0.66296 0.18513 0.88287 0.0
O137 O 0.64642 0.17234 0.18105 0.0
C138 C 0.66651 0.24258 0.13394 0.0
O139 O 0.67482 0.24345 0.04725 0.0
C140 C 0.70929 0.18721 0.08922 0.0
O141 O 0.70912 0.19095 0.18158 0.0
O142 O 0.6413 0.20422 0.9828 0.0
C143 C 0.59873 0.90244 0.94613 0.0
O144 O 0.60641 0.91825 0.88976 0.0
O145 O 0.56053 0.9409 0.80258 0.0
Zn146 Zn 0.55391 0.91055 0.85939 0.0
O147 O 0.52595 0.91178 0.93804 0.0
C148 C 0.54794 0.89726 0.66564 0.0
O149 O 0.56421 0.91157 0.6492 0.0
O150 O 0.57818 0.897 0.94151 0.0
C151 C 0.5073 0.91701 0.90025 0.0
O152 O 0.50686 0.92416 0.81163 0.0
C153 C 0.56735 0.95905 0.83966 0.0
O154 O 0.57217 0.95956 0.93108 0.0
O155 O 0.54441 0.89099 0.75085 0.0
C156 C 0.85204 0.14552 0.78938 0.0
O157 O 0.83642 0.13601 0.84146 0.0
O158 O 0.81304 0.17991 0.94192 0.0
Zn159 Zn 0.84434 0.18758 0.8984 0.0
O160 O 0.84422 0.21675 0.82784 0.0
C161 C 0.85561 0.1906 0.09668 0.0
O162 O 0.83902 0.17634 0.10711 0.0
O163 O 0.85788 0.16557 0.80652 0.0
C164 C 0.84042 0.23562 0.86661 0.0
O165 O 0.8345 0.2365 0.95677 0.0
C166 C 0.79562 0.18541 0.89551 0.0
O167 O 0.79794 0.195 0.81171 0.0
O168 O 0.8631 0.19423 0.01334 0.0
C169 C 0.59913 0.09933 0.46429 0.0
O170 O 0.58985 0.08055 0.43552 0.0
O171 O 0.57654 0.05978 0.65729 0.0
Zn172 Zn 0.56922 0.09173 0.61952 0.0
O173 O 0.54121 0.09332 0.53958 0.0
C174 C 0.56386 0.09941 0.82048 0.0
O175 O 0.57848 0.08306 0.82849 0.0
O176 O 0.5938 0.10706 0.5457 0.0
C177 C 0.52195 0.09154 0.57779 0.0
O178 O 0.5205 0.08682 0.6691 0.0
C179 C 0.56599 0.04286 0.62556 0.0
O180 O 0.55107 0.04578 0.55782 0.0
O181 O 0.56064 0.10807 0.73886 0.0
C182 C 0.65403 0.85282 0.21626 0.0
O183 O 0.6742 0.84625 0.19132 0.0
O184 O 0.69444 0.82671 0.38222 0.0
Zn185 Zn 0.66174 0.81958 0.35868 0.0
O186 O 0.6592 0.79192 0.27592 0.0
C187 C 0.65936 0.81633 0.56278 0.0
O188 O 0.67319 0.83343 0.56105 0.0
O189 O 0.64522 0.84443 0.29085 0.0
C190 C 0.65489 0.77258 0.30983 0.0
O191 O 0.6523 0.77012 0.40217 0.0
C192 C 0.70547 0.81112 0.42271 0.0
O193 O 0.69565 0.79167 0.43551 0.0
O194 O 0.64887 0.8113 0.48676 0.0
C195 C 0.90288 0.89587 0.02177 0.0
O196 O 0.91676 0.91063 0.9852 0.0
O197 O 0.92617 0.93665 0.22003 0.0
Zn198 Zn 0.93094 0.90451 0.18124 0.0
O199 O 0.9584 0.90193 0.09939 0.0
C200 C 0.93564 0.89753 0.38183 0.0
O201 O 0.92009 0.91304 0.38677 0.0
O202 O 0.90493 0.89074 0.10955 0.0
C203 C 0.97774 0.90481 0.1355 0.0
O204 O 0.97937 0.91117 0.22491 0.0
C205 C 0.92821 0.95433 0.17055 0.0
O206 O 0.93218 0.9528 0.07864 0.0
O207 O 0.93946 0.88835 0.30163 0.0
C208 C 0.65166 0.64803 0.78745 0.0
O209 O 0.65831 0.64055 0.87093 0.0
O210 O 0.70053 0.68338 0.89578 0.0
Zn211 Zn 0.67008 0.69221 0.84543 0.0
O212 O 0.6714 0.71994 0.76487 0.0
C213 C 0.65801 0.69897 0.04208 0.0
O214 O 0.67343 0.68376 0.05849 0.0
O215 O 0.65509 0.66842 0.76587 0.0
C216 C 0.67703 0.73875 0.79998 0.0
O217 O 0.68479 0.73967 0.88759 0.0
C218 C 0.71908 0.68859 0.85745 0.0
O219 O 0.71902 0.69911 0.7751 0.0
O220 O 0.65175 0.70248 0.95677 0.0
C221 C 0.59579 0.40024 0.00909 0.0
O222 O 0.58089 0.41391 0.97191 0.0
O223 O 0.5727 0.44436 0.18163 0.0
Zn224 Zn 0.56957 0.41073 0.16995 0.0
O225 O 0.54143 0.40284 0.09857 0.0
C226 C 0.56692 0.41039 0.37527 0.0
O227 O 0.57802 0.4293 0.36802 0.0
O228 O 0.5952 0.3966 0.09852 0.0
C229 C 0.52219 0.40395 0.13728 0.0
O230 O 0.52049 0.41132 0.22522 0.0
C231 C 0.55917 0.45799 0.14234 0.0
O232 O 0.54384 0.45013 0.08414 0.0
O233 O 0.56462 0.39825 0.3014 0.0
C234 C 0.85408 0.33692 0.23255 0.0
O235 O 0.84082 0.32115 0.19961 0.0
O236 O 0.81069 0.31279 0.40131 0.0
Zn237 Zn 0.84436 0.31177 0.39522 0.0
O238 O 0.85283 0.284 0.32328 0.0
C239 C 0.84423 0.30957 0.60193 0.0
O240 O 0.82619 0.32201 0.59496 0.0
O241 O 0.85775 0.33768 0.32202 0.0
C242 C 0.85124 0.2645 0.3591 0.0
O243 O 0.84305 0.26215 0.4455 0.0
C244 C 0.79911 0.33009 0.4202 0.0
O245 O 0.80928 0.34945 0.4303 0.0
O246 O 0.85624 0.3066 0.52806 0.0
C247 C 0.8998 0.59655 0.52706 0.0
O248 O 0.89824 0.57461 0.52991 0.0
O249 O 0.9303 0.55799 0.68676 0.0
Zn250 Zn 0.93866 0.58956 0.6495 0.0
O251 O 0.96605 0.58981 0.56631 0.0
C252 C 0.94581 0.59584 0.85005 0.0
O253 O 0.93044 0.5802 0.85757 0.0
O254 O 0.91472 0.60629 0.57685 0.0
C255 C 0.98535 0.58626 0.60176 0.0
O256 O 0.98696 0.58016 0.69152 0.0
C257 C 0.93327 0.54046 0.63717 0.0
O258 O 0.941 0.54234 0.54981 0.0
O259 O 0.94901 0.60494 0.76916 0.0
C260 C 0.65079 0.34743 0.74933 0.0
O261 O 0.66659 0.3339 0.77999 0.0
O262 O 0.69392 0.32942 0.56873 0.0
Zn263 Zn 0.66115 0.32233 0.5878 0.0
O264 O 0.65742 0.2943 0.66682 0.0
C265 C 0.65751 0.31913 0.38181 0.0
O266 O 0.6736 0.33414 0.3807 0.0
O267 O 0.64547 0.34676 0.66139 0.0
C268 C 0.65411 0.27483 0.6327 0.0
O269 O 0.65477 0.27175 0.54002 0.0
C270 C 0.70611 0.31467 0.5289 0.0
O271 O 0.69713 0.29524 0.5072 0.0
O272 O 0.64765 0.31499 0.46022 0.0
C273 C 0.90788 0.39327 0.98128 0.0
O274 O 0.91959 0.40957 0.01973 0.0
O275 O 0.92838 0.4352 0.77944 0.0
Zn276 Zn 0.93667 0.40424 0.82682 0.0
O277 O 0.9626 0.40567 0.91792 0.0
C278 C 0.94849 0.39514 0.63268 0.0
O279 O 0.93343 0.41058 0.61468 0.0
O280 O 0.91147 0.38821 0.89441 0.0
C281 C 0.98241 0.40812 0.88644 0.0
O282 O 0.9854 0.41219 0.79521 0.0
C283 C 0.93288 0.45326 0.82331 0.0
O284 O 0.94171 0.45213 0.90903 0.0
O285 O 0.94948 0.38697 0.71626 0.0
C286 C 0.85249 0.64792 0.23678 0.0
O287 O 0.83055 0.64785 0.23035 0.0
O288 O 0.81975 0.67854 0.04709 0.0
Zn289 Zn 0.84984 0.68584 0.10533 0.0
O290 O 0.84771 0.71347 0.18602 0.0
C291 C 0.86386 0.69075 0.91233 0.0
O292 O 0.8509 0.67328 0.89818 0.0
O293 O 0.86372 0.66166 0.18651 0.0
C294 C 0.84434 0.73259 0.14841 0.0
O295 O 0.84022 0.73391 0.05653 0.0
C296 C 0.80086 0.6836 0.08268 0.0
O297 O 0.79995 0.69187 0.16941 0.0
O298 O 0.86938 0.69559 0.99728 0.0
C299 C 0.59782 0.59628 0.51977 0.0
O300 O 0.58431 0.58052 0.55095 0.0
O301 O 0.57154 0.55787 0.3325 0.0
Zn302 Zn 0.56902 0.59107 0.36138 0.0
O303 O 0.54165 0.59665 0.44261 0.0
C304 C 0.56927 0.59676 0.15852 0.0
O305 O 0.58511 0.58151 0.16164 0.0
O306 O 0.59542 0.60327 0.43456 0.0
C307 C 0.5226 0.60248 0.41028 0.0
O308 O 0.5196 0.60448 0.31789 0.0
C309 C 0.55549 0.54974 0.28364 0.0
O310 O 0.53827 0.56261 0.26413 0.0
O311 O 0.56362 0.60638 0.23581 0.0
C312 C 0.34887 0.35366 0.29602 0.0
O313 O 0.3291 0.34628 0.32268 0.0
O314 O 0.30745 0.33252 0.11698 0.0
Zn315 Zn 0.33959 0.32355 0.14494 0.0
O316 O 0.34114 0.2953 0.22412 0.0
C317 C 0.34335 0.31698 0.94257 0.0
O318 O 0.32676 0.33141 0.93895 0.0
O319 O 0.35675 0.34718 0.21639 0.0
C320 C 0.33847 0.2761 0.18615 0.0
O321 O 0.33314 0.27486 0.09543 0.0
C322 C 0.29129 0.32001 0.14228 0.0
O323 O 0.29533 0.30298 0.19895 0.0
O324 O 0.35374 0.31444 0.02094 0.0
C325 C 0.40131 0.60196 0.96371 0.0
O326 O 0.39177 0.59335 0.88764 0.0
O327 O 0.43805 0.55775 0.83644 0.0
Zn328 Zn 0.44531 0.58914 0.8797 0.0
O329 O 0.47446 0.58972 0.95007 0.0
C330 C 0.4501 0.60036 0.6815 0.0
O331 O 0.43712 0.58288 0.66789 0.0
O332 O 0.42252 0.6021 0.97009 0.0
C333 C 0.49297 0.58401 0.91243 0.0
O334 O 0.49311 0.57511 0.82675 0.0
C335 C 0.4449 0.54039 0.88006 0.0
O336 O 0.45592 0.54282 0.9605 0.0
O337 O 0.45215 0.60814 0.76532 0.0
C338 C 0.14866 0.65431 0.71396 0.0
O339 O 0.1648 0.64503 0.66404 0.0
O340 O 0.18914 0.68769 0.56529 0.0
Zn341 Zn 0.15836 0.69674 0.61057 0.0
O342 O 0.1593 0.72545 0.68404 0.0
C343 C 0.1477 0.70277 0.41234 0.0
O344 O 0.16395 0.68829 0.39853 0.0
O345 O 0.14328 0.67456 0.69805 0.0
C346 C 0.16493 0.74413 0.64759 0.0
O347 O 0.1737 0.74472 0.5617 0.0
C348 C 0.2066 0.68474 0.61548 0.0
O349 O 0.20524 0.68682 0.70859 0.0
O350 O 0.14015 0.70545 0.49624 0.0
C351 C 0.09731 0.39607 0.48862 0.0
O352 O 0.08351 0.40973 0.53266 0.0
O353 O 0.07807 0.43995 0.27981 0.0
Zn354 Zn 0.07024 0.40923 0.32918 0.0
O355 O 0.0428 0.41106 0.41109 0.0
C356 C 0.06017 0.40006 0.13381 0.0
O357 O 0.07644 0.41423 0.11549 0.0
O358 O 0.09528 0.39344 0.39896 0.0
C359 C 0.03355 0.39269 0.43483 0.0
O360 O 0.04367 0.37369 0.41544 0.0
C361 C 0.07657 0.45821 0.32566 0.0
O362 O 0.07186 0.4577 0.41718 0.0
O363 O 0.05839 0.39213 0.21748 0.0
C364 C 0.34883 0.6487 0.25184 0.0
O365 O 0.33114 0.65979 0.22209 0.0
O366 O 0.31002 0.67055 0.4581 0.0
Zn367 Zn 0.34132 0.67721 0.41025 0.0
O368 O 0.34131 0.70429 0.32569 0.0
C369 C 0.35228 0.68427 0.60672 0.0
O370 O 0.33775 0.66811 0.6214 0.0
O371 O 0.35593 0.65224 0.33609 0.0
C372 C 0.33767 0.72366 0.35992 0.0
O373 O 0.3315 0.72565 0.44948 0.0
C374 C 0.29235 0.67799 0.41878 0.0
O375 O 0.29396 0.68846 0.33659 0.0
O376 O 0.35924 0.68762 0.52239 0.0
C377 C 0.09983 0.60318 0.00063 0.0
O378 O 0.09292 0.58311 0.97592 0.0
O379 O 0.07877 0.56221 0.17951 0.0
Zn380 Zn 0.06917 0.59388 0.1492 0.0
O381 O 0.04167 0.5942 0.06654 0.0
C382 C 0.06182 0.59757 0.35098 0.0
O383 O 0.07755 0.58223 0.35533 0.0
O384 O 0.09282 0.61149 0.07869 0.0
C385 C 0.02261 0.58946 0.10168 0.0
O386 O 0.02145 0.58237 0.19024 0.0
C387 C 0.07127 0.54493 0.13752 0.0
O388 O 0.05795 0.54743 0.06368 0.0
O389 O 0.0585 0.60762 0.2722 0.0
C390 C 0.15547 0.33823 0.71479 0.0
O391 O 0.17065 0.32533 0.67508 0.0
O392 O 0.19857 0.31319 0.8957 0.0
Zn393 Zn 0.16595 0.3084 0.86272 0.0
O394 O 0.16197 0.28213 0.77296 0.0
C395 C 0.16209 0.27904 0.00633 0.0
O396 O 0.17931 0.27304 0.9544 0.0
O397 O 0.15083 0.33514 0.80246 0.0
C398 C 0.17756 0.26884 0.74853 0.0
O399 O 0.19835 0.27372 0.77116 0.0
C400 C 0.20594 0.32933 0.94584 0.0
O401 O 0.1927 0.34621 0.96639 0.0
O402 O 0.15167 0.29697 0.98472 0.0
C403 C 0.40291 0.39838 0.58412 0.0
O404 O 0.39429 0.41319 0.64289 0.0
O405 O 0.44056 0.43582 0.73227 0.0
Zn406 Zn 0.44661 0.40483 0.68235 0.0
O407 O 0.47523 0.40504 0.60843 0.0
C408 C 0.448 0.39286 0.8783 0.0
O409 O 0.43186 0.40773 0.88487 0.0
O410 O 0.42325 0.39256 0.59331 0.0
C411 C 0.49408 0.40978 0.64537 0.0
O412 O 0.49506 0.41614 0.73497 0.0
C413 C 0.4412 0.45414 0.68648 0.0
O414 O 0.44413 0.45379 0.5936 0.0
O415 O 0.45331 0.38566 0.79606 0.0
C416 C 0.2559 0.19353 0.55663 0.0
C417 C 0.26685 0.17268 0.56193 0.0
C418 C 0.23437 0.19551 0.51833 0.0
C419 C 0.22263 0.17673 0.48399 0.0
H420 H 0.26411 0.20866 0.58112 0.0
H421 H 0.22688 0.21204 0.51615 0.0
S422 S 0.24329 0.11805 0.4842 0.0
N423 N 0.26403 0.13264 0.53124 0.0
N424 N 0.22338 0.13637 0.45976 0.0
C425 C 0.23316 0.15566 0.48998 0.0
C426 C 0.25526 0.15364 0.52883 0.0
C427 C 0.06239 0.99371 0.66776 0.0
C428 C 0.06031 0.97421 0.72323 0.0
C429 C 0.06229 0.01499 0.71 0.0
C430 C 0.05971 0.01765 0.80933 0.0
H431 H 0.06401 0.99256 0.59094 0.0
H432 H 0.06365 0.02949 0.66383 0.0
S433 S 0.05374 0.97181 0.98669 0.0
N434 N 0.05587 0.95885 0.88312 0.0
N435 N 0.05545 0.99882 0.96222 0.0
C436 C 0.05787 0.99825 0.86582 0.0
C437 C 0.05824 0.97656 0.82289 0.0
C438 C 0.23811 0.80282 0.96838 0.0
C439 C 0.22603 0.81974 0.01557 0.0
C440 C 0.26043 0.80593 0.9413 0.0
C441 C 0.27177 0.82613 0.96011 0.0
H442 H 0.23035 0.78685 0.95231 0.0
H443 H 0.26891 0.79217 0.90621 0.0
S444 S 0.24757 0.87617 0.07916 0.0
N445 N 0.22692 0.85778 0.07793 0.0
N446 N 0.26897 0.86365 0.02705 0.0
C447 C 0.25982 0.84341 0.00581 0.0
C448 C 0.23698 0.84021 0.03361 0.0
C449 C 0.44507 0.01462 0.19415 0.0
C450 C 0.42393 0.02501 0.19839 0.0
C451 C 0.44833 0.99276 0.22727 0.0
C452 C 0.43061 0.98021 0.26626 0.0
H453 H 0.45943 0.02347 0.16563 0.0
H454 H 0.46501 0.98572 0.22214 0.0
S455 S 0.37171 0.99928 0.29196 0.0
N456 N 0.38478 0.02084 0.24355 0.0
N457 N 0.39092 0.97965 0.30579 0.0
C458 C 0.40928 0.99025 0.27048 0.0
C459 C 0.40594 0.01263 0.23648 0.0
C460 C 0.7395 0.83534 0.44243 0.0
C461 C 0.728 0.81538 0.46379 0.0
C462 C 0.76079 0.83969 0.48058 0.0
C463 C 0.77143 0.82427 0.54166 0.0
H464 H 0.73216 0.84761 0.39483 0.0
H465 H 0.76916 0.85505 0.45995 0.0
S466 S 0.74764 0.77037 0.62728 0.0
N467 N 0.72832 0.78064 0.55533 0.0
N468 N 0.76819 0.78885 0.6267 0.0
C469 C 0.75982 0.80455 0.56602 0.0
C470 C 0.73817 0.80009 0.52714 0.0
C471 C 0.92272 0.01701 0.21032 0.0
C472 C 0.92961 0.0197 0.30583 0.0
C473 C 0.92215 0.99582 0.16722 0.0
C474 C 0.92803 0.97645 0.21845 0.0
H475 H 0.91832 0.03145 0.16738 0.0
H476 H 0.91713 0.99462 0.09312 0.0
S477 S 0.94676 0.97424 0.47113 0.0
N478 N 0.94211 0.00108 0.45068 0.0
N479 N 0.94079 0.96126 0.37034 0.0
C480 C 0.93448 0.97882 0.31465 0.0
C481 C 0.93535 0.00044 0.35812 0.0
C482 C 0.77164 0.18078 0.04089 0.0
C483 C 0.77325 0.18373 0.94136 0.0
C484 C 0.75089 0.18143 0.08773 0.0
C485 C 0.73084 0.1848 0.03697 0.0
H486 H 0.78659 0.17865 0.08376 0.0
H487 H 0.75064 0.1796 0.16462 0.0
S488 S 0.7257 0.19189 0.7742 0.0
N489 N 0.75285 0.18905 0.79292 0.0
N490 N 0.7139 0.19014 0.88037 0.0
C491 C 0.73214 0.18696 0.93686 0.0
C492 C 0.7533 0.18648 0.88929 0.0
C493 C 0.57773 0.99951 0.81826 0.0
C494 C 0.56839 0.97977 0.78058 0.0
C495 C 0.57769 0.01959 0.76607 0.0
C496 C 0.56813 0.02084 0.67428 0.0
H497 H 0.58485 0.99961 0.88933 0.0
H498 H 0.58462 0.03441 0.79947 0.0
S499 S 0.54269 0.97363 0.54009 0.0
N500 N 0.55024 0.96255 0.64306 0.0
N501 N 0.55013 0.00023 0.54581 0.0
C502 C 0.55932 0.00108 0.6345 0.0
C503 C 0.55947 0.98059 0.68733 0.0
C504 C 0.73955 0.68195 0.01097 0.0
C505 C 0.74025 0.68532 0.91144 0.0
C506 C 0.75923 0.68095 0.06553 0.0
C507 C 0.78041 0.68282 0.02263 0.0
H508 H 0.72365 0.6808 0.04784 0.0
H509 H 0.7578 0.67892 0.14211 0.0
S510 S 0.79159 0.69097 0.76415 0.0
N511 N 0.76402 0.68994 0.77199 0.0
N512 N 0.80097 0.68774 0.8741 0.0
C513 C 0.78141 0.6855 0.92281 0.0
C514 C 0.76136 0.68685 0.8674 0.0
C515 C 0.57256 0.51139 0.27884 0.0
C516 C 0.5567 0.52674 0.24384 0.0
C517 C 0.57364 0.48943 0.24369 0.0
C518 C 0.55897 0.48192 0.17165 0.0
H519 H 0.58402 0.51623 0.33512 0.0
H520 H 0.58584 0.47814 0.27477 0.0
S521 S 0.51551 0.51618 0.04994 0.0
N522 N 0.52679 0.5333 0.12881 0.0
N523 N 0.52886 0.49216 0.06274 0.0
C524 C 0.54348 0.49735 0.13381 0.0
C525 C 0.54231 0.51969 0.16993 0.0
C526 C 0.76461 0.30651 0.42933 0.0
C527 C 0.77498 0.32741 0.4437 0.0
C528 C 0.74245 0.30267 0.45725 0.0
C529 C 0.72962 0.31954 0.50107 0.0
H530 H 0.77373 0.29278 0.397 0.0
H531 H 0.73543 0.2862 0.44467 0.0
S532 S 0.74855 0.37755 0.55295 0.0
N533 N 0.77048 0.36547 0.5031 0.0
N534 N 0.72877 0.35824 0.55567 0.0
C535 C 0.73961 0.34067 0.51482 0.0
C536 C 0.76226 0.34462 0.486 0.0
C537 C 0.93274 0.49519 0.82744 0.0
C538 C 0.93052 0.47529 0.77456 0.0
C539 C 0.93274 0.51619 0.78262 0.0
C540 C 0.93086 0.51817 0.68279 0.0
H541 H 0.93491 0.49459 0.90413 0.0
H542 H 0.93505 0.53094 0.82654 0.0
S543 S 0.92287 0.4715 0.51174 0.0
N544 N 0.92486 0.45912 0.61675 0.0
N545 N 0.92533 0.49859 0.53284 0.0
C546 C 0.92792 0.49852 0.62919 0.0
C547 C 0.92759 0.47711 0.67494 0.0
C548 C 0.24192 0.34541 0.00819 0.0
C549 C 0.22767 0.32691 0.99553 0.0
C550 C 0.26244 0.34317 0.05654 0.0
C551 C 0.26904 0.32252 0.0965 0.0
H552 H 0.23735 0.36161 0.97917 0.0
H553 H 0.27318 0.35773 0.06287 0.0
S554 S 0.23682 0.26931 0.08784 0.0
N555 N 0.2212 0.2875 0.02931 0.0
N556 N 0.25922 0.28338 0.12197 0.0
C557 C 0.25458 0.30407 0.08627 0.0
C558 C 0.23404 0.30624 0.03528 0.0
C559 C 0.43538 0.49566 0.69134 0.0
C560 C 0.44079 0.47568 0.73916 0.0
C561 C 0.43606 0.51638 0.7384 0.0
C562 C 0.44252 0.518 0.83492 0.0
H563 H 0.4307 0.49535 0.61667 0.0
H564 H 0.43202 0.53129 0.6978 0.0
S565 S 0.45826 0.47054 0.99288 0.0
N566 N 0.45258 0.45875 0.88922 0.0
N567 N 0.45406 0.49763 0.97714 0.0
C568 C 0.4477 0.49809 0.88401 0.0
C569 C 0.44678 0.47696 0.83634 0.0
C570 C 0.25063 0.68171 0.41998 0.0
C571 C 0.27056 0.67735 0.47003 0.0
C572 C 0.23003 0.68336 0.46741 0.0
C573 C 0.22848 0.68098 0.56728 0.0
H574 H 0.25092 0.68422 0.34344 0.0
H575 H 0.2153 0.68713 0.42525 0.0
S576 S 0.27567 0.66858 0.73171 0.0
N577 N 0.28735 0.66989 0.62517 0.0
N578 N 0.24871 0.67319 0.7143 0.0
C579 C 0.24821 0.67605 0.61811 0.0
C580 C 0.2692 0.67417 0.56956 0.0
C581 C 0.08214 0.49977 0.323 0.0
C582 C 0.07729 0.47987 0.27369 0.0
C583 C 0.08114 0.52064 0.27714 0.0
C584 C 0.07483 0.52248 0.18051 0.0
H585 H 0.08647 0.49928 0.39805 0.0
H586 H 0.08456 0.5355 0.31899 0.0
S587 S 0.06106 0.47531 0.01838 0.0
N588 N 0.06659 0.46326 0.12172 0.0
N589 N 0.06449 0.50243 0.03613 0.0
C590 C 0.07045 0.50265 0.12974 0.0
C591 C 0.07174 0.48138 0.17612 0.0
C592 C 0.13197 0.10114 0.04526 0.0
C593 C 0.10868 0.10375 0.03748 0.0
C594 C 0.14399 0.11168 0.11869 0.0
C595 C 0.13306 0.12472 0.18841 0.0
H596 H 0.14106 0.09145 0.99264 0.0
H597 H 0.16204 0.10984 0.11998 0.0
S598 S 0.07173 0.13447 0.20525 0.0
N599 N 0.07482 0.11892 0.10881 0.0
N600 N 0.09722 0.13826 0.24809 0.0
C601 C 0.10957 0.1265 0.18384 0.0
C602 C 0.09743 0.11616 0.10795 0.0
C603 C 0.11722 0.8766 0.2986 0.0
C604 C 0.13221 0.86015 0.33151 0.0
C605 C 0.10298 0.88798 0.36157 0.0
C606 C 0.10298 0.88329 0.46015 0.0
H607 H 0.11623 0.88057 0.22328 0.0
H608 H 0.09155 0.90025 0.332 0.0
S609 S 0.13942 0.84195 0.58355 0.0
N610 N 0.14654 0.84004 0.4701 0.0
N611 N 0.11975 0.86135 0.58802 0.0
C612 C 0.11821 0.86718 0.49445 0.0
C613 C 0.13282 0.85565 0.43032 0.0
C614 C 0.37107 0.87107 0.53849 0.0
C615 C 0.38737 0.88536 0.57766 0.0
C616 C 0.35864 0.85646 0.59618 0.0
C617 C 0.36207 0.85538 0.69555 0.0
H618 H 0.36806 0.87088 0.46227 0.0
H619 H 0.34659 0.84556 0.56182 0.0
S620 S 0.40222 0.88992 0.83462 0.0
N621 N 0.40578 0.89806 0.72311 0.0
N622 N 0.3825 0.87056 0.83117 0.0
C623 C 0.37793 0.87 0.73618 0.0
C624 C 0.39053 0.88498 0.6774 0.0
C625 C 0.35278 0.15363 0.97087 0.0
C626 C 0.35572 0.15168 0.87144 0.0
C627 C 0.36635 0.14182 0.0352 0.0
C628 C 0.38343 0.12745 0.00305 0.0
H629 H 0.34031 0.16491 -0.00017 0.0
H630 H 0.36374 0.14446 0.11083 0.0
S631 S 0.39669 0.11468 0.74948 0.0
N632 N 0.37604 0.13302 0.74382 0.0
N633 N 0.40146 0.11072 0.86423 0.0
C634 C 0.38592 0.12455 0.90363 0.0
C635 C 0.37211 0.13667 0.83806 0.0
C636 C 0.87527 0.86485 0.99505 0.0
C637 C 0.88703 0.88346 0.95911 0.0
C638 C 0.86222 0.8513 0.93523 0.0
C639 C 0.86042 0.85573 0.83677 0.0
H640 H 0.87668 0.86021 0.06954 0.0
H641 H 0.85414 0.83677 0.96621 0.0
S642 S 0.88532 0.9041 0.70885 0.0
N643 N 0.89416 0.90687 0.81984 0.0
N644 N 0.86974 0.88127 0.70772 0.0
C645 C 0.87115 0.8749 0.80064 0.0
C646 C 0.88439 0.88879 0.86165 0.0
C647 C 0.86495 0.10996 0.71211 0.0
C648 C 0.86253 0.13336 0.70889 0.0
C649 C 0.87613 0.0984 0.63912 0.0
C650 C 0.88496 0.10974 0.55928 0.0
H651 H 0.85878 0.10058 0.77286 0.0
H652 H 0.87816 0.08044 0.64625 0.0
S653 S 0.88083 0.17088 0.51225 0.0
N654 N 0.86843 0.16737 0.61643 0.0
N655 N 0.88908 0.14569 0.4788 0.0
C656 C 0.88171 0.13307 0.55325 0.0
C657 C 0.87063 0.14486 0.62821 0.0
C658 C 0.62085 0.10263 0.31181 0.0
C659 C 0.61355 0.11238 0.39795 0.0
C660 C 0.63274 0.11509 0.2436 0.0
C661 C 0.63755 0.13789 0.25819 0.0
H662 H 0.61705 0.08528 0.29599 0.0
H663 H 0.63761 0.10694 0.1778 0.0
S664 S 0.62378 0.17109 0.47458 0.0
N665 N 0.61328 0.14601 0.49619 0.0
N666 N 0.63536 0.16941 0.36795 0.0
C667 C 0.63097 0.1477 0.3452 0.0
C668 C 0.61908 0.13496 0.41508 0.0
C669 C 0.60385 0.87874 0.09184 0.0
C670 C 0.61349 0.89111 0.01669 0.0
C671 C 0.61711 0.86719 0.15806 0.0
C672 C 0.64061 0.86724 0.15139 0.0
H673 H 0.58582 0.87782 0.09953 0.0
H674 H 0.60877 0.85759 0.21324 0.0
S675 S 0.67436 0.89793 0.97114 0.0
N676 N 0.64814 0.9035 0.94217 0.0
N677 N 0.67308 0.88155 0.06597 0.0
C678 C 0.65055 0.87995 0.07802 0.0
C679 C 0.63701 0.89195 0.01097 0.0
C680 C 0.62325 0.62827 0.55992 0.0
C681 C 0.61339 0.60779 0.58652 0.0
C682 C 0.63594 0.64081 0.62481 0.0
C683 C 0.6395 0.63337 0.71905 0.0
H684 H 0.62061 0.63509 0.48918 0.0
H685 H 0.64272 0.65669 0.60096 0.0
S686 S 0.61883 0.57997 0.82272 0.0
N687 N 0.60915 0.57996 0.7124 0.0
N688 N 0.6331 0.6035 0.83407 0.0
C689 C 0.63051 0.61248 0.7456 0.0
C690 C 0.61744 0.59973 0.67953 0.0
C691 C 0.61013 0.39082 0.84612 0.0
C692 C 0.61139 0.38777 0.94571 0.0
C693 C 0.62322 0.37806 0.78342 0.0
C694 C 0.63826 0.36178 0.81755 0.0
H695 H 0.59857 0.40285 0.8157 0.0
H696 H 0.6213 0.38081 0.70746 0.0
S697 S 0.64858 0.34766 0.07233 0.0
N698 N 0.62944 0.36759 0.07564 0.0
N699 N 0.65407 0.34368 0.95821 0.0
C700 C 0.64015 0.35894 0.91716 0.0
C701 C 0.62673 0.37189 0.98106 0.0
C702 C 0.87809 0.37058 0.20092 0.0
C703 C 0.86612 0.35206 0.16568 0.0
C704 C 0.89092 0.38417 0.1402 0.0
C705 C 0.89247 0.37973 0.04165 0.0
H706 H 0.87784 0.37449 0.27637 0.0
H707 H 0.9001 0.39797 0.17158 0.0
S708 S 0.86387 0.33357 0.91256 0.0
N709 N 0.85617 0.33033 0.02478 0.0
N710 N 0.88031 0.35577 0.91121 0.0
C711 C 0.88015 0.36157 0.00498 0.0
C712 C 0.86698 0.34778 0.06676 0.0
C713 C 0.8845 0.64174 0.34828 0.0
C714 C 0.86402 0.63424 0.3102 0.0
C715 C 0.89552 0.62977 0.42031 0.0
C716 C 0.88674 0.60956 0.45606 0.0
H717 H 0.89201 0.65718 0.32317 0.0
H718 H 0.91131 0.63623 0.44667 0.0
S719 S 0.83363 0.58259 0.38046 0.0
N720 N 0.83524 0.60545 0.31433 0.0
N721 N 0.85627 0.58259 0.44825 0.0
C722 C 0.86631 0.6018 0.41854 0.0
C723 C 0.85486 0.61424 0.34614 0.0
C724 C 0.3659 0.38659 0.51651 0.0
C725 C 0.38924 0.38848 0.5066 0.0
C726 C 0.35291 0.37588 0.44664 0.0
C727 C 0.36271 0.36697 0.36343 0.0
H728 H 0.35766 0.3928 0.58006 0.0
H729 H 0.33507 0.37426 0.45891 0.0
S730 S 0.42302 0.36966 0.29906 0.0
N731 N 0.42151 0.38196 0.40428 0.0
N732 N 0.39715 0.36213 0.27269 0.0
C733 C 0.38595 0.36967 0.35077 0.0
C734 C 0.39919 0.38031 0.42245 0.0
C735 C 0.36562 0.61929 0.02219 0.0
C736 C 0.38763 0.61213 0.04084 0.0
C737 C 0.35299 0.63042 0.09195 0.0
C738 C 0.36174 0.63465 0.18362 0.0
H739 H 0.3583 0.6169 0.95223 0.0
H740 H 0.33637 0.63616 0.07293 0.0
S741 S 0.4178 0.61724 0.27177 0.0
N742 N 0.41711 0.60863 0.15994 0.0
N743 N 0.39337 0.62936 0.29098 0.0
C744 C 0.38339 0.62668 0.20454 0.0
C745 C 0.39633 0.61551 0.1332 0.0
C746 C 0.13578 0.6181 0.78586 0.0
C747 C 0.1371 0.64158 0.79037 0.0
C748 C 0.12412 0.60584 0.85538 0.0
C749 C 0.11365 0.61652 0.93315 0.0
H750 H 0.14334 0.60913 0.72691 0.0
H751 H 0.12313 0.58781 0.84739 0.0
S752 S 0.11378 0.67769 0.98195 0.0
N753 N 0.12796 0.67505 0.88149 0.0
N754 N 0.10637 0.65203 0.01264 0.0
C755 C 0.11553 0.63997 0.94026 0.0
C756 C 0.12713 0.65248 0.86872 0.0
C757 C 0.12614 0.36809 0.69926 0.0
C758 C 0.14232 0.3543 0.65598 0.0
C759 C 0.11216 0.38198 0.64471 0.0
C760 C 0.11364 0.38257 0.54443 0.0
H761 H 0.1239 0.3679 0.77594 0.0
H762 H 0.09969 0.39189 0.68168 0.0
S763 S 0.15422 0.35086 0.39595 0.0
N764 N 0.15979 0.34304 0.50638 0.0
N765 N 0.13347 0.36901 0.4043 0.0
C766 C 0.13021 0.3694 0.50028 0.0
C767 C 0.14455 0.35533 0.55587 0.0
C768 C 0.15496 0.22527 0.14159 0.0
C769 C 0.14758 0.23224 0.23195 0.0
C770 C 0.15851 0.24065 0.06844 0.0
C771 C 0.15476 0.26366 0.08212 0.0
H772 H 0.15848 0.20779 0.12729 0.0
H773 H 0.16473 0.23443 0.00079 0.0
S774 S 0.13438 0.29072 0.30326 0.0
N775 N 0.13571 0.26379 0.33016 0.0
N776 N 0.14244 0.29281 0.19082 0.0
C777 C 0.14647 0.27094 0.17039 0.0
C778 C 0.14289 0.25518 0.24584 0.0
C779 C 0.97378 0.88585 0.43572 0.0
C780 C 0.95326 0.89643 0.45654 0.0
C781 C 0.99251 0.88862 0.4945 0.0
C782 C 0.99146 0.90176 0.57759 0.0
H783 H 0.97583 0.87618 0.37093 0.0
H784 H 0.00806 0.88067 0.47346 0.0
S785 S 0.94107 0.93075 0.67134 0.0
N786 N 0.93254 0.919 0.57111 0.0
N787 N 0.96772 0.92388 0.68247 0.0
C788 C 0.97073 0.91127 0.6028 0.0
C789 C 0.95164 0.90864 0.54226 0.0
C790 C 0.34166 0.70172 0.76232 0.0
C791 C 0.35422 0.70269 0.67743 0.0
C792 C 0.33876 0.72071 0.81964 0.0
C793 C 0.34818 0.74148 0.79415 0.0
H794 H 0.333 0.68649 0.78246 0.0
H795 H 0.32821 0.71926 0.88222 0.0
S796 S 0.38565 0.75219 0.58771 0.0
N797 N 0.37863 0.72555 0.57759 0.0
N798 N 0.37287 0.76125 0.68464 0.0
C799 C 0.36211 0.74233 0.7133 0.0
C800 C 0.36526 0.72293 0.65533 0.0
C801 C 0.54696 0.08856 0.97699 0.0
C802 C 0.54644 0.10224 0.89508 0.0
C803 C 0.52826 0.08663 0.03681 0.0
C804 C 0.50828 0.09817 0.01665 0.0
H805 H 0.56147 0.0783 0.99251 0.0
H806 H 0.52917 0.07514 0.09655 0.0
S807 S 0.49947 0.13933 0.82157 0.0
N808 N 0.52522 0.13007 0.80528 0.0
N809 N 0.49003 0.12606 0.91673 0.0
C810 C 0.50808 0.11323 0.93946 0.0
C811 C 0.5272 0.11543 0.87917 0.0
C812 C 0.15112 0.71715 0.24543 0.0
C813 C 0.14372 0.72043 0.33976 0.0
C814 C 0.15219 0.73501 0.1805 0.0
C815 C 0.14632 0.75687 0.20825 0.0
H816 H 0.15702 0.70085 0.2226 0.0
H817 H 0.1587 0.73185 0.10964 0.0
S818 S 0.12316 0.77407 0.44268 0.0
N819 N 0.12799 0.74697 0.4539 0.0
N820 N 0.13072 0.7805 0.3328 0.0
C821 C 0.13766 0.76018 0.30037 0.0
C822 C 0.13611 0.74195 0.36582 0.0
C823 C 0.51481 0.90575 0.43821 0.0
C824 C 0.49286 0.90038 0.46642 0.0
C825 C 0.53286 0.90325 0.50124 0.0
C826 C 0.52971 0.89492 0.59429 0.0
H827 H 0.51797 0.91283 0.36831 0.0
H828 H 0.54927 0.90873 0.47796 0.0
S829 S 0.4757 0.87541 0.69762 0.0
N830 N 0.46912 0.88447 0.58997 0.0
N831 N 0.50301 0.879 0.70746 0.0
C832 C 0.50798 0.88797 0.62078 0.0
C833 C 0.48956 0.89097 0.55724 0.0
C834 C 0.32712 0.28079 0.73206 0.0
C835 C 0.33848 0.26064 0.75084 0.0
C836 C 0.33011 0.29962 0.79035 0.0
C837 C 0.34476 0.2991 0.86913 0.0
H838 H 0.31504 0.28178 0.67451 0.0
H839 H 0.32001 0.31433 0.77605 0.0
S840 S 0.38154 0.25147 0.93793 0.0
N841 N 0.36698 0.24203 0.8463 0.0
N842 N 0.37308 0.2775 0.95439 0.0
C843 C 0.35765 0.27958 0.88359 0.0
C844 C 0.35432 0.26031 0.82511 0.0
C845 C 0.96877 0.08091 0.91871 0.0
C846 C 0.98894 0.09232 0.9361 0.0
C847 C 0.95024 0.08372 0.97896 0.0
C848 C 0.95113 0.09824 0.05814 0.0
H849 H 0.9676 0.06893 0.86091 0.0
H850 H 0.93552 0.07356 0.96591 0.0
S851 S 0.9989 0.13517 0.12322 0.0
N852 N 0.0079 0.12078 0.03039 0.0
N853 N 0.973 0.12657 0.14194 0.0
C854 C 0.97063 0.11121 0.07101 0.0
C855 C 0.98958 0.10805 0.01068 0.0
C856 C 0.84789 0.72446 0.69444 0.0
C857 C 0.85489 0.7462 0.71907 0.0
C858 C 0.85264 0.7061 0.75338 0.0
C859 C 0.86459 0.70876 0.83926 0.0
H860 H 0.83775 0.72167 0.63143 0.0
H861 H 0.84577 0.68994 0.73393 0.0
S862 S 0.89039 0.76161 0.92649 0.0
N863 N 0.87701 0.7689 0.82823 0.0
N864 N 0.88622 0.73442 0.93828 0.0
C865 C 0.87343 0.73011 0.86011 0.0
C866 C 0.86842 0.74883 0.8005 0.0
C867 C 0.01338 0.10816 0.58656 0.0
C868 C 0.03469 0.10013 0.56041 0.0
C869 C 0.99498 0.10597 0.52555 0.0
C870 C 0.99716 0.09607 0.435 0.0
H871 H 0.01047 0.11502 0.65698 0.0
H872 H 0.97879 0.11158 0.55092 0.0
S873 S 0.0502 0.07627 0.32515 0.0
N874 N 0.05752 0.08449 0.43323 0.0
N875 N 0.02299 0.08088 0.31711 0.0
C876 C 0.01873 0.08971 0.40459 0.0
C877 C 0.03747 0.09165 0.46757 0.0
C878 C 0.67338 0.30108 0.23525 0.0
C879 C 0.65638 0.30204 0.30502 0.0
C880 C 0.67608 0.28212 0.1772 0.0
C881 C 0.66208 0.26336 0.18784 0.0
H882 H 0.68548 0.31451 0.22875 0.0
H883 H 0.6899 0.28171 0.12717 0.0
S884 S 0.61229 0.25914 0.34514 0.0
N885 N 0.62312 0.28392 0.36957 0.0
N886 N 0.62866 0.24814 0.26269 0.0
C887 C 0.644 0.26478 0.2517 0.0
C888 C 0.64099 0.28419 0.30948 0.0
C889 C 0.46698 0.89493 0.08596 0.0
C890 C 0.44758 0.90794 0.07166 0.0
C891 C 0.48601 0.89784 0.02926 0.0
C892 C 0.48628 0.91339 0.95399 0.0
H893 H 0.468 0.88317 0.14463 0.0
H894 H 0.50077 0.88802 0.04579 0.0
S895 S 0.43855 0.94854 0.87429 0.0
N896 N 0.42893 0.93503 0.96861 0.0
N897 N 0.46459 0.93986 0.85977 0.0
C898 C 0.46641 0.92505 0.93305 0.0
C899 C 0.44706 0.92242 0.99218 0.0
C900 C 0.86012 0.27449 0.67111 0.0
C901 C 0.84632 0.29345 0.68215 0.0
C902 C 0.85847 0.25619 0.73296 0.0
C903 C 0.84337 0.25627 0.80984 0.0
H904 H 0.87139 0.27308 0.61088 0.0
H905 H 0.86874 0.2416 0.71883 0.0
S906 S 0.80607 0.30311 0.88 0.0
N907 N 0.8187 0.31209 0.78236 0.0
N908 N 0.81622 0.27782 0.90064 0.0
C909 C 0.83084 0.27579 0.82689 0.0
C910 C 0.83218 0.29435 0.76261 0.0
C911 C 0.48457 0.10863 0.37167 0.0
C912 C 0.46353 0.09979 0.39707 0.0
C913 C 0.5032 0.10615 0.43132 0.0
C914 C 0.5015 0.09518 0.51981 0.0
H915 H 0.4871 0.11647 0.3028 0.0
H916 H 0.51917 0.11255 0.40675 0.0
S917 S 0.4494 0.07223 0.6267 0.0
N918 N 0.44153 0.08173 0.5212 0.0
N919 N 0.47648 0.07758 0.63473 0.0
C920 C 0.48021 0.08775 0.54943 0.0
C921 C 0.46126 0.08997 0.48782 0.0
C922 C 0.64817 0.75622 0.14883 0.0
C923 C 0.6533 0.75299 0.24567 0.0
C924 C 0.64804 0.73826 0.08481 0.0
C925 C 0.65351 0.71639 0.11473 0.0
H926 H 0.64459 0.77285 0.12171 0.0
H927 H 0.64477 0.74185 0.01034 0.0
S928 S 0.66628 0.69866 0.36252 0.0
N929 N 0.66227 0.72597 0.37019 0.0
N930 N 0.66257 0.69224 0.24901 0.0
C931 C 0.6577 0.71274 0.21218 0.0
C932 C 0.65746 0.73102 0.27786 0.0
C933 C 0.01448 0.88532 0.93147 0.0
C934 C 0.03585 0.89352 0.95591 0.0
C935 C 0.99597 0.88882 0.99065 0.0
C936 C 0.99804 0.90032 0.07773 0.0
H937 H 0.01166 0.87708 0.8637 0.0
H938 H 0.9798 0.88279 0.96676 0.0
S939 S 0.0509 0.92222 0.18193 0.0
N940 N 0.05845 0.91165 0.07796 0.0
N941 N 0.02365 0.91792 0.19028 0.0
C942 C 0.01957 0.90727 0.10638 0.0
C943 C 0.03845 0.9039 0.04537 0.0
C944 C 0.64871 0.77914 0.63041 0.0
C945 C 0.66202 0.79857 0.63637 0.0
C946 C 0.65379 0.75996 0.68353 0.0
C947 C 0.67206 0.75954 0.74672 0.0
H948 H 0.63471 0.77835 0.58138 0.0
H949 H 0.64332 0.74529 0.67453 0.0
S950 S 0.71103 0.80644 0.79665 0.0
N951 N 0.69363 0.81652 0.71568 0.0
N952 N 0.70265 0.78053 0.81769 0.0
C953 C 0.68476 0.77916 0.75803 0.0
C954 C 0.67982 0.79868 0.70264 0.0
C955 C 0.48628 0.38253 0.93462 0.0
C956 C 0.46493 0.39129 0.95561 0.0
C957 C 0.50445 0.38604 0.99567 0.0
C958 C 0.50201 0.39813 0.08108 0.0
H959 H 0.48944 0.37408 0.8676 0.0
H960 H 0.52072 0.37985 0.9739 0.0
S961 S 0.44887 0.42112 0.1777 0.0
N962 N 0.44179 0.41011 0.07398 0.0
N963 N 0.47599 0.41647 0.18952 0.0
C964 C 0.4804 0.40529 0.10722 0.0
C965 C 0.46185 0.40187 0.04441 0.0
C966 C 0.84722 0.22362 0.32376 0.0
C967 C 0.85644 0.24459 0.30016 0.0
C968 C 0.84877 0.20545 0.26083 0.0
C969 C 0.85973 0.20752 0.17231 0.0
H970 H 0.8376 0.22153 0.38867 0.0
H971 H 0.84014 0.19009 0.27944 0.0
S972 S 0.89072 0.25768 0.08635 0.0
N973 N 0.87976 0.26549 0.18912 0.0
N974 N 0.88304 0.23135 0.07161 0.0
C975 C 0.87098 0.22778 0.15251 0.0
C976 C 0.86917 0.24634 0.21608 0.0
C977 C 0.00393 0.60271 0.45836 0.0
C978 C 0.0057 0.59046 0.54381 0.0
C979 C 0.0226 0.60646 0.40021 0.0
C980 C 0.0438 0.59773 0.42398 0.0
H981 H 0.98791 0.60928 0.43523 0.0
H982 H 0.02005 0.6154 0.33382 0.0
S983 S 0.05798 0.56659 0.64532 0.0
N984 N 0.03081 0.57133 0.65381 0.0
N985 N 0.06587 0.57798 0.54334 0.0
C986 C 0.04607 0.58641 0.5116 0.0
C987 C 0.02704 0.58282 0.57163 0.0
C988 C 0.65546 0.23384 0.66934 0.0
C989 C 0.64975 0.25573 0.69728 0.0
C990 C 0.6534 0.2158 0.73287 0.0
C991 C 0.64517 0.21891 0.82609 0.0
H992 H 0.66252 0.23075 0.59939 0.0
H993 H 0.65916 0.19946 0.70991 0.0
S994 S 0.62468 0.27264 0.9285 0.0
N995 N 0.63345 0.27927 0.8205 0.0
N996 N 0.62887 0.24542 0.93893 0.0
C997 C 0.63779 0.24052 0.85215 0.0
C998 C 0.64034 0.25893 0.78812 0.0
C999 C 0.02369 0.40987 0.91649 0.0
C1000 C 0.00202 0.40495 0.95004 0.0
C1001 C 0.04255 0.40718 0.97495 0.0
C1002 C 0.04055 0.3992 0.06899 0.0
H1003 H 0.02616 0.41626 0.84491 0.0
H1004 H 0.05878 0.41188 0.94676 0.0
S1005 S 0.98756 0.38295 0.19037 0.0
N1006 N 0.9797 0.39105 0.08288 0.0
N1007 N 0.01504 0.38575 0.19226 0.0
C1008 C 0.019 0.39353 0.10261 0.0
C1009 C 0.99978 0.39652 0.04339 0.0
C1010 C 0.85747 0.75205 0.29524 0.0
C1011 C 0.84606 0.75305 0.2076 0.0
C1012 C 0.85829 0.77054 0.35626 0.0
C1013 C 0.84724 0.79069 0.33331 0.0
H1014 H 0.86556 0.7367 0.31802 0.0
H1015 H 0.86665 0.76851 0.42428 0.0
S1016 S 0.81775 0.80307 0.10621 0.0
N1017 N 0.82574 0.7767 0.09558 0.0
N1018 N 0.82669 0.81136 0.21197 0.0
C1019 C 0.83695 0.7924 0.24327 0.0
C1020 C 0.83647 0.77361 0.1801 0.0
C1021 C 0.48184 0.59932 0.44798 0.0
C1022 C 0.50357 0.60549 0.47624 0.0
C1023 C 0.4641 0.59918 0.51358 0.0
C1024 C 0.46737 0.60573 0.60902 0.0
H1025 H 0.47874 0.59337 0.37617 0.0
H1026 H 0.44793 0.59299 0.49034 0.0
S1027 S 0.52063 0.62667 0.71399 0.0
N1028 N 0.52705 0.62039 0.60267 0.0
N1029 N 0.49369 0.62106 0.7251 0.0
C1030 C 0.48871 0.61372 0.63577 0.0
C1031 C 0.50684 0.6133 0.56963 0.0
C1032 C 0.35143 0.23823 0.39605 0.0
C1033 C 0.34181 0.21762 0.36933 0.0
C1034 C 0.35069 0.25683 0.33539 0.0
C1035 C 0.34067 0.25553 0.24477 0.0
H1036 H 0.35852 0.24048 0.46653 0.0
H1037 H 0.35758 0.27251 0.36094 0.0
S1038 S 0.3163 0.20445 0.13459 0.0
N1039 N 0.32411 0.19632 0.24221 0.0
N1040 N 0.32314 0.2312 0.12694 0.0
C1041 C 0.33247 0.23459 0.21419 0.0
C1042 C 0.33296 0.21567 0.27672 0.0
C1043 C 0.53346 0.61011 0.08711 0.0
C1044 C 0.5526 0.59645 0.07979 0.0
C1045 C 0.51453 0.60621 0.03098 0.0
C1046 C 0.51409 0.58883 0.96344 0.0
H1047 H 0.53251 0.62318 0.14052 0.0
H1048 H 0.4999 0.61662 0.04236 0.0
S1049 S 0.56103 0.55067 0.90378 0.0
N1050 N 0.57082 0.56642 0.99115 0.0
N1051 N 0.53527 0.55957 0.88364 0.0
C1052 C 0.53372 0.57632 0.94891 0.0
C1053 C 0.553 0.58006 0.00731 0.0
C1054 C 0.17162 0.80262 0.74905 0.0
C1055 C 0.15394 0.80387 0.81558 0.0
C1056 C 0.17461 0.78359 0.69166 0.0
C1057 C 0.16022 0.76507 0.69985 0.0
H1058 H 0.18402 0.81583 0.74489 0.0
H1059 H 0.18894 0.78291 0.64438 0.0
S1060 S 0.10875 0.76177 0.84742 0.0
N1061 N 0.11973 0.78637 0.87382 0.0
N1062 N 0.12578 0.75045 0.76821 0.0
C1063 C 0.1415 0.76683 0.76009 0.0
C1064 C 0.13821 0.78631 0.81714 0.0
C1065 C 0.00521 0.37574 0.544 0.0
C1066 C 0.01106 0.39254 0.47835 0.0
C1067 C 0.98431 0.3759 0.58949 0.0
C1068 C 0.96831 0.39263 0.56962 0.0
H1069 H 0.01718 0.36284 0.56301 0.0
H1070 H 0.98097 0.36324 0.64304 0.0
S1071 S 0.97447 0.43845 0.39169 0.0
N1072 N 0.99862 0.42502 0.38828 0.0
N1073 N 0.95914 0.42514 0.47169 0.0
C1074 C 0.97349 0.40867 0.49909 0.0
C1075 C 0.99494 0.40872 0.45423 0.0
C1076 C 0.32872 0.76351 0.32028 0.0
C1077 C 0.34064 0.74379 0.29977 0.0
C1078 C 0.32995 0.78218 0.25972 0.0
C1079 C 0.34343 0.78195 0.17728 0.0
H1080 H 0.31763 0.76423 0.38134 0.0
H1081 H 0.31956 0.79657 0.27581 0.0
S1082 S 0.38068 0.73539 0.1005 0.0
N1083 N 0.36812 0.72584 0.19717 0.0
N1084 N 0.37096 0.761 0.08476 0.0
C1085 C 0.35674 0.76284 0.16009 0.0
C1086 C 0.35515 0.74372 0.22078 0.0
C1087 C 0.98449 0.60695 0.89853 0.0
C1088 C 0.9637 0.59742 0.92325 0.0
C1089 C 0.00328 0.60447 0.95722 0.0
C1090 C 0.00204 0.59268 0.04398 0.0
H1091 H 0.98668 0.61551 0.831 0.0
H1092 H 0.019 0.61155 0.93322 0.0
S1093 S 0.95081 0.56725 0.1484 0.0
N1094 N 0.94247 0.5776 0.04505 0.0
N1095 N 0.97774 0.57323 0.15633 0.0
C1096 C 0.98104 0.58432 0.07276 0.0
C1097 C 0.96189 0.58666 0.01232 0.0
C1098 C 0.15077 0.24316 0.66623 0.0
C1099 C 0.17164 0.24645 0.71067 0.0
C1100 C 0.14438 0.22205 0.6322 0.0
C1101 C 0.15848 0.20328 0.64211 0.0
H1102 H 0.13939 0.2571 0.65612 0.0
H1103 H 0.12845 0.22056 0.5957 0.0
S1104 S 0.21411 0.20257 0.76138 0.0
N1105 N 0.20585 0.2289 0.76831 0.0
N1106 N 0.19382 0.1892 0.70526 0.0
C1107 C 0.17904 0.20616 0.69005 0.0
C1108 C 0.18566 0.22775 0.72366 0.0
C1109 C 0.51444 0.39363 0.50684 0.0
C1110 C 0.51457 0.40785 0.58672 0.0
C1111 C 0.53249 0.39304 0.4435 0.0
C1112 C 0.55123 0.40705 0.4561 0.0
H1113 H 0.5 0.38326 0.49148 0.0
H1114 H 0.53102 0.38245 0.38108 0.0
S1115 S 0.56124 0.44487 0.66191 0.0
N1116 N 0.53614 0.43422 0.68181 0.0
N1117 N 0.56998 0.43358 0.56102 0.0
C1118 C 0.55228 0.42019 0.53941 0.0
C1119 C 0.53396 0.4205 0.60506 0.0
loop_
_geom_bond_atom_site_label_1
_geom_bond_atom_site_label_2
_geom_bond_distance
_geom_bond_site_symmetry_2
_ccdc_geom_bond_type
C0 O1 1.160 . S
C0 O7 1.185 . S
O1 C0 1.160 . S
O2 Zn3 1.899 . S
O2 C10 1.284 . S
Zn3 O2 1.899 . S
Zn3 O4 2.032 . S
Zn3 O7 2.086 . S
Zn3 O12 1.977 . S
O4 Zn3 2.032 . S
O4 C8 1.278 . S
C5 O6 1.203 . S
C5 O12 1.267 . S
O6 C5 1.203 . S
O7 C0 1.185 . S
O7 Zn3 2.086 . S
C8 O4 1.278 . S
C8 O9 1.211 . S
O9 C8 1.211 . S
C10 O2 1.284 . S
C10 O11 1.273 . S
O11 C10 1.273 . S
O12 Zn3 1.977 . S
O12 C5 1.267 . S
C13 O14 1.160 . S
C13 O20 1.185 . S
O14 C13 1.160 . S
O15 Zn16 1.899 . S
O15 C23 1.284 . S
Zn16 O15 1.899 . S
Zn16 O17 2.032 . S
Zn16 O20 2.086 . S
Zn16 O25 1.977 . S
O17 Zn16 2.032 . S
O17 C21 1.278 . S
C18 O19 1.203 . S
C18 O25 1.267 . S
O19 C18 1.203 . S
O20 C13 1.185 . S
O20 Zn16 2.086 . S
C21 O17 1.278 . S
C21 O22 1.211 . S
O22 C21 1.211 . S
C23 O15 1.284 . S
C23 O24 1.273 . S
O24 C23 1.273 . S
O25 Zn16 1.977 . S
O25 C18 1.267 . S
C26 O27 1.160 . S
C26 O33 1.185 . S
O27 C26 1.160 . S
O28 Zn29 1.899 . S
O28 C36 1.284 . S
Zn29 O28 1.899 . S
Zn29 O30 2.032 . S
Zn29 O33 2.086 . S
Zn29 O38 1.977 . S
O30 Zn29 2.032 . S
O30 C34 1.278 . S
C31 O32 1.203 . S
C31 O38 1.267 1_554 S
O32 C31 1.203 . S
O33 C26 1.185 . S
O33 Zn29 2.086 . S
C34 O30 1.278 . S
C34 O35 1.211 . S
O35 C34 1.211 . S
C36 O28 1.284 . S
C36 O37 1.273 . S
O37 C36 1.273 . S
O38 Zn29 1.977 . S
O38 C31 1.267 1_556 S
C39 O40 1.160 . S
C39 O46 1.185 . S
O40 C39 1.160 . S
O41 Zn42 1.899 . S
O41 C49 1.284 . S
Zn42 O41 1.899 . S
Zn42 O43 2.032 . S
Zn42 O46 2.086 . S
Zn42 O51 1.977 . S
O43 Zn42 2.032 . S
O43 C47 1.278 1_554 S
C44 O45 1.203 . S
C44 O51 1.267 . S
O45 C44 1.203 . S
O46 C39 1.185 . S
O46 Zn42 2.086 . S
C47 O43 1.278 1_556 S
C47 O48 1.211 1_556 S
O48 C47 1.211 1_554 S
C49 O41 1.284 . S
C49 O50 1.273 . S
O50 C49 1.273 . S
O51 Zn42 1.977 . S
O51 C44 1.267 . S
C52 O53 1.160 . S
C52 O59 1.185 . S
O53 C52 1.160 . S
O54 Zn55 1.899 . S
O54 C62 1.284 . S
Zn55 O54 1.899 . S
Zn55 O56 2.032 . S
Zn55 O59 2.086 . S
Zn55 O64 1.977 . S
O56 Zn55 2.032 . S
O56 C60 1.278 . S
C57 O58 1.203 . S
C57 O64 1.267 1_556 S
O58 C57 1.203 . S
O59 C52 1.185 . S
O59 Zn55 2.086 . S
C60 O56 1.278 . S
C60 O61 1.211 . S
O61 C60 1.211 . S
C62 O54 1.284 . S
C62 O63 1.273 . S
O63 C62 1.273 . S
O64 Zn55 1.977 . S
O64 C57 1.267 1_554 S
C65 O66 1.160 . S
C65 O72 1.185 . S
O66 C65 1.160 . S
O67 Zn68 1.899 . S
O67 C75 1.284 . S
Zn68 O67 1.899 . S
Zn68 O69 2.032 . S
Zn68 O72 2.086 . S
Zn68 O77 1.977 . S
O69 Zn68 2.032 . S
O69 C73 1.278 . S
C70 O71 1.203 . S
C70 O77 1.267 . S
O71 C70 1.203 . S
O72 C65 1.185 . S
O72 Zn68 2.086 . S
C73 O69 1.278 . S
C73 O74 1.211 . S
O74 C73 1.211 . S
C75 O67 1.284 . S
C75 O76 1.273 . S
O76 C75 1.273 . S
O77 Zn68 1.977 . S
O77 C70 1.267 . S
C78 O79 1.160 . S
C78 O85 1.185 . S
O79 C78 1.160 . S
O80 Zn81 1.899 . S
O80 C88 1.284 . S
Zn81 O80 1.899 . S
Zn81 O82 2.032 . S
Zn81 O85 2.086 . S
Zn81 O90 1.977 . S
O82 Zn81 2.032 . S
O82 C86 1.278 . S
C83 O84 1.203 . S
C83 O90 1.267 . S
O84 C83 1.203 . S
O85 C78 1.185 . S
O85 Zn81 2.086 . S
C86 O82 1.278 . S
C86 O87 1.211 . S
O87 C86 1.211 . S
C88 O80 1.284 . S
C88 O89 1.273 . S
O89 C88 1.273 . S
O90 Zn81 1.977 . S
O90 C83 1.267 . S
C91 O92 1.160 . S
C91 O98 1.185 . S
O92 C91 1.160 . S
O93 Zn94 1.899 . S
O93 C101 1.284 . S
Zn94 O93 1.899 . S
Zn94 O95 2.032 . S
Zn94 O98 2.086 . S
Zn94 O103 1.977 . S
O95 Zn94 2.032 . S
O95 C99 1.278 1_556 S
C96 O97 1.203 . S
C96 O103 1.267 . S
O97 C96 1.203 . S
O98 C91 1.185 . S
O98 Zn94 2.086 . S
C99 O95 1.278 1_554 S
C99 O100 1.211 1_554 S
O100 C99 1.211 1_556 S
C101 O93 1.284 . S
C101 O102 1.273 . S
O102 C101 1.273 . S
O103 Zn94 1.977 . S
O103 C96 1.267 . S
C104 O105 1.160 . S
C104 O111 1.185 . S
O105 C104 1.160 . S
O106 Zn107 1.899 . S
O106 C114 1.284 . S
Zn107 O106 1.899 . S
Zn107 O108 2.032 . S
Zn107 O111 2.086 . S
Zn107 O116 1.977 . S
O108 Zn107 2.032 . S
O108 C112 1.278 . S
C109 O110 1.203 . S
C109 O116 1.267 . S
O110 C109 1.203 . S
O111 C104 1.185 . S
O111 Zn107 2.086 . S
C112 O108 1.278 . S
C112 O113 1.211 . S
O113 C112 1.211 . S
C114 O106 1.284 . S
C114 O115 1.273 . S
O115 C114 1.273 . S
O116 Zn107 1.977 . S
O116 C109 1.267 . S
C117 O118 1.160 . S
C117 O124 1.185 . S
O118 C117 1.160 . S
O119 Zn120 1.899 . S
O119 C127 1.284 . S
Zn120 O119 1.899 . S
Zn120 O121 2.032 . S
Zn120 O124 2.086 . S
Zn120 O129 1.977 . S
O121 Zn120 2.032 . S
O121 C125 1.278 . S
C122 O123 1.203 . S
C122 O129 1.267 . S
O123 C122 1.203 . S
O124 C117 1.185 . S
O124 Zn120 2.086 . S
C125 O121 1.278 . S
C125 O126 1.211 . S
O126 C125 1.211 . S
C127 O119 1.284 . S
C127 O128 1.273 . S
O128 C127 1.273 . S
O129 Zn120 1.977 . S
O129 C122 1.267 . S
C130 O131 1.160 . S
C130 O137 1.185 . S
O131 C130 1.160 . S
O132 Zn133 1.899 . S
O132 C140 1.284 . S
Zn133 O132 1.899 . S
Zn133 O134 2.032 . S
Zn133 O137 2.086 . S
Zn133 O142 1.977 . S
O134 Zn133 2.032 . S
O134 C138 1.278 . S
C135 O136 1.203 . S
C135 O142 1.267 1_556 S
O136 C135 1.203 . S
O137 C130 1.185 . S
O137 Zn133 2.086 . S
C138 O134 1.278 . S
C138 O139 1.211 . S
O139 C138 1.211 . S
C140 O132 1.284 . S
C140 O141 1.273 . S
O141 C140 1.273 . S
O142 Zn133 1.977 . S
O142 C135 1.267 1_554 S
C143 O144 1.160 . S
C143 O150 1.185 . S
O144 C143 1.160 . S
O145 Zn146 1.899 . S
O145 C153 1.284 . S
Zn146 O145 1.899 . S
Zn146 O147 2.032 . S
Zn146 O150 2.086 . S
Zn146 O155 1.977 . S
O147 Zn146 2.032 . S
O147 C151 1.278 1_556 S
C148 O149 1.203 . S
C148 O155 1.267 . S
O149 C148 1.203 . S
O150 C143 1.185 . S
O150 Zn146 2.086 . S
C151 O147 1.278 1_554 S
C151 O152 1.211 1_554 S
O152 C151 1.211 1_556 S
C153 O145 1.284 . S
C153 O154 1.273 . S
O154 C153 1.273 . S
O155 Zn146 1.977 . S
O155 C148 1.267 . S
C156 O157 1.160 . S
C156 O163 1.185 . S
O157 C156 1.160 . S
O158 Zn159 1.899 . S
O158 C166 1.284 . S
Zn159 O158 1.899 . S
Zn159 O160 2.032 . S
Zn159 O163 2.086 . S
Zn159 O168 1.977 . S
O160 Zn159 2.032 . S
O160 C164 1.278 . S
C161 O162 1.203 . S
C161 O168 1.267 1_554 S
O162 C161 1.203 . S
O163 C156 1.185 . S
O163 Zn159 2.086 . S
C164 O160 1.278 . S
C164 O165 1.211 . S
O165 C164 1.211 . S
C166 O158 1.284 . S
C166 O167 1.273 . S
O167 C166 1.273 . S
O168 Zn159 1.977 . S
O168 C161 1.267 1_556 S
C169 O170 1.160 . S
C169 O176 1.185 . S
O170 C169 1.160 . S
O171 Zn172 1.899 . S
O171 C179 1.284 . S
Zn172 O171 1.899 . S
Zn172 O173 2.032 . S
Zn172 O176 2.086 . S
Zn172 O181 1.977 . S
O173 Zn172 2.032 . S
O173 C177 1.278 . S
C174 O175 1.203 . S
C174 O181 1.267 . S
O175 C174 1.203 . S
O176 C169 1.185 . S
O176 Zn172 2.086 . S
C177 O173 1.278 . S
C177 O178 1.211 . S
O178 C177 1.211 . S
C179 O171 1.284 . S
C179 O180 1.273 . S
O180 C179 1.273 . S
O181 Zn172 1.977 . S
O181 C174 1.267 . S
C182 O183 1.160 . S
C182 O189 1.185 . S
O183 C182 1.160 . S
O184 Zn185 1.899 . S
O184 C192 1.284 . S
Zn185 O184 1.899 . S
Zn185 O186 2.032 . S
Zn185 O189 2.086 . S
Zn185 O194 1.977 . S
O186 Zn185 2.032 . S
O186 C190 1.278 . S
C187 O188 1.203 . S
C187 O194 1.267 . S
O188 C187 1.203 . S
O189 C182 1.185 . S
O189 Zn185 2.086 . S
C190 O186 1.278 . S
C190 O191 1.211 . S
O191 C190 1.211 . S
C192 O184 1.284 . S
C192 O193 1.273 . S
O193 C192 1.273 . S
O194 Zn185 1.977 . S
O194 C187 1.267 . S
C195 O196 1.160 . S
C195 O202 1.185 . S
O196 C195 1.160 . S
O197 Zn198 1.899 . S
O197 C205 1.284 . S
Zn198 O197 1.899 . S
Zn198 O199 2.032 . S
Zn198 O202 2.086 . S
Zn198 O207 1.977 . S
O199 Zn198 2.032 . S
O199 C203 1.278 1_554 S
C200 O201 1.203 . S
C200 O207 1.267 . S
O201 C200 1.203 . S
O202 C195 1.185 . S
O202 Zn198 2.086 . S
C203 O199 1.278 1_556 S
C203 O204 1.211 1_556 S
O204 C203 1.211 1_554 S
C205 O197 1.284 . S
C205 O206 1.273 . S
O206 C205 1.273 . S
O207 Zn198 1.977 . S
O207 C200 1.267 . S
C208 O209 1.160 . S
C208 O215 1.185 . S
O209 C208 1.160 . S
O210 Zn211 1.899 . S
O210 C218 1.284 . S
Zn211 O210 1.899 . S
Zn211 O212 2.032 . S
Zn211 O215 2.086 . S
Zn211 O220 1.977 . S
O212 Zn211 2.032 . S
O212 C216 1.278 . S
C213 O214 1.203 . S
C213 O220 1.267 1_554 S
O214 C213 1.203 . S
O215 C208 1.185 . S
O215 Zn211 2.086 . S
C216 O212 1.278 . S
C216 O217 1.211 . S
O217 C216 1.211 . S
C218 O210 1.284 . S
C218 O219 1.273 . S
O219 C218 1.273 . S
O220 Zn211 1.977 . S
O220 C213 1.267 1_556 S
C221 O222 1.160 . S
C221 O228 1.185 . S
O222 C221 1.160 . S
O223 Zn224 1.899 . S
O223 C231 1.284 . S
Zn224 O223 1.899 . S
Zn224 O225 2.032 . S
Zn224 O228 2.086 . S
Zn224 O233 1.977 . S
O225 Zn224 2.032 . S
O225 C229 1.278 1_554 S
C226 O227 1.203 . S
C226 O233 1.267 . S
O227 C226 1.203 . S
O228 C221 1.185 . S
O228 Zn224 2.086 . S
C229 O225 1.278 1_556 S
C229 O230 1.211 1_556 S
O230 C229 1.211 1_554 S
C231 O223 1.284 . S
C231 O232 1.273 . S
O232 C231 1.273 . S
O233 Zn224 1.977 . S
O233 C226 1.267 . S
C234 O235 1.160 . S
C234 O241 1.185 . S
O235 C234 1.160 . S
O236 Zn237 1.899 . S
O236 C244 1.284 . S
Zn237 O236 1.899 . S
Zn237 O238 2.032 . S
Zn237 O241 2.086 . S
Zn237 O246 1.977 . S
O238 Zn237 2.032 . S
O238 C242 1.278 . S
C239 O240 1.203 . S
C239 O246 1.267 . S
O240 C239 1.203 . S
O241 C234 1.185 . S
O241 Zn237 2.086 . S
C242 O238 1.278 . S
C242 O243 1.211 . S
O243 C242 1.211 . S
C244 O236 1.284 . S
C244 O245 1.273 . S
O245 C244 1.273 . S
O246 Zn237 1.977 . S
O246 C239 1.267 . S
C247 O248 1.160 . S
C247 O254 1.185 . S
O248 C247 1.160 . S
O249 Zn250 1.899 . S
O249 C257 1.284 . S
Zn250 O249 1.899 . S
Zn250 O251 2.032 . S
Zn250 O254 2.086 . S
Zn250 O259 1.977 . S
O251 Zn250 2.032 . S
O251 C255 1.278 . S
C252 O253 1.203 . S
C252 O259 1.267 . S
O253 C252 1.203 . S
O254 C247 1.185 . S
O254 Zn250 2.086 . S
C255 O251 1.278 . S
C255 O256 1.211 . S
O256 C255 1.211 . S
C257 O249 1.284 . S
C257 O258 1.273 . S
O258 C257 1.273 . S
O259 Zn250 1.977 . S
O259 C252 1.267 . S
C260 O261 1.160 . S
C260 O267 1.185 . S
O261 C260 1.160 . S
O262 Zn263 1.899 . S
O262 C270 1.284 . S
Zn263 O262 1.899 . S
Zn263 O264 2.032 . S
Zn263 O267 2.086 . S
Zn263 O272 1.977 . S
O264 Zn263 2.032 . S
O264 C268 1.278 . S
C265 O266 1.203 . S
C265 O272 1.267 . S
O266 C265 1.203 . S
O267 C260 1.185 . S
O267 Zn263 2.086 . S
C268 O264 1.278 . S
C268 O269 1.211 . S
O269 C268 1.211 . S
C270 O262 1.284 . S
C270 O271 1.273 . S
O271 C270 1.273 . S
O272 Zn263 1.977 . S
O272 C265 1.267 . S
C273 O274 1.160 . S
C273 O280 1.185 . S
O274 C273 1.160 . S
O275 Zn276 1.899 . S
O275 C283 1.284 . S
Zn276 O275 1.899 . S
Zn276 O277 2.032 . S
Zn276 O280 2.086 . S
Zn276 O285 1.977 . S
O277 Zn276 2.032 . S
O277 C281 1.278 1_556 S
C278 O279 1.203 . S
C278 O285 1.267 . S
O279 C278 1.203 . S
O280 C273 1.185 . S
O280 Zn276 2.086 . S
C281 O277 1.278 1_554 S
C281 O282 1.211 1_554 S
O282 C281 1.211 1_556 S
C283 O275 1.284 . S
C283 O284 1.273 . S
O284 C283 1.273 . S
O285 Zn276 1.977 . S
O285 C278 1.267 . S
C286 O287 1.160 . S
C286 O293 1.185 . S
O287 C286 1.160 . S
O288 Zn289 1.899 . S
O288 C296 1.284 . S
Zn289 O288 1.899 . S
Zn289 O290 2.032 . S
Zn289 O293 2.086 . S
Zn289 O298 1.977 . S
O290 Zn289 2.032 . S
O290 C294 1.278 . S
C291 O292 1.203 . S
C291 O298 1.267 1_556 S
O292 C291 1.203 . S
O293 C286 1.185 . S
O293 Zn289 2.086 . S
C294 O290 1.278 . S
C294 O295 1.211 . S
O295 C294 1.211 . S
C296 O288 1.284 . S
C296 O297 1.273 . S
O297 C296 1.273 . S
O298 Zn289 1.977 . S
O298 C291 1.267 1_554 S
C299 O300 1.160 . S
C299 O306 1.185 . S
O300 C299 1.160 . S
O301 Zn302 1.899 . S
O301 C309 1.284 . S
Zn302 O301 1.899 . S
Zn302 O303 2.032 . S
Zn302 O306 2.086 . S
Zn302 O311 1.977 . S
O303 Zn302 2.032 . S
O303 C307 1.278 . S
C304 O305 1.203 . S
C304 O311 1.267 . S
O305 C304 1.203 . S
O306 C299 1.185 . S
O306 Zn302 2.086 . S
C307 O303 1.278 . S
C307 O308 1.211 . S
O308 C307 1.211 . S
C309 O301 1.284 . S
C309 O310 1.273 . S
O310 C309 1.273 . S
O311 Zn302 1.977 . S
O311 C304 1.267 . S
C312 O313 1.160 . S
C312 O319 1.185 . S
O313 C312 1.160 . S
O314 Zn315 1.899 . S
O314 C322 1.284 . S
Zn315 O314 1.899 . S
Zn315 O316 2.032 . S
Zn315 O319 2.086 . S
Zn315 O324 1.977 . S
O316 Zn315 2.032 . S
O316 C320 1.278 . S
C317 O318 1.203 . S
C317 O324 1.267 1_556 S
O318 C317 1.203 . S
O319 C312 1.185 . S
O319 Zn315 2.086 . S
C320 O316 1.278 . S
C320 O321 1.211 . S
O321 C320 1.211 . S
C322 O314 1.284 . S
C322 O323 1.273 . S
O323 C322 1.273 . S
O324 Zn315 1.977 . S
O324 C317 1.267 1_554 S
C325 O326 1.160 . S
C325 O332 1.185 . S
O326 C325 1.160 . S
O327 Zn328 1.899 . S
O327 C335 1.284 . S
Zn328 O327 1.899 . S
Zn328 O329 2.032 . S
Zn328 O332 2.086 . S
Zn328 O337 1.977 . S
O329 Zn328 2.032 . S
O329 C333 1.278 1_556 S
C330 O331 1.203 . S
C330 O337 1.267 . S
O331 C330 1.203 . S
O332 C325 1.185 . S
O332 Zn328 2.086 . S
C333 O329 1.278 1_554 S
C333 O334 1.211 1_554 S
O334 C333 1.211 1_556 S
C335 O327 1.284 . S
C335 O336 1.273 . S
O336 C335 1.273 . S
O337 Zn328 1.977 . S
O337 C330 1.267 . S
C338 O339 1.160 . S
C338 O345 1.185 . S
O339 C338 1.160 . S
O340 Zn341 1.899 . S
O340 C348 1.284 . S
Zn341 O340 1.899 . S
Zn341 O342 2.032 . S
Zn341 O345 2.086 . S
Zn341 O350 1.977 . S
O342 Zn341 2.032 . S
O342 C346 1.278 . S
C343 O344 1.203 . S
C343 O350 1.267 . S
O344 C343 1.203 . S
O345 C338 1.185 . S
O345 Zn341 2.086 . S
C346 O342 1.278 . S
C346 O347 1.211 . S
O347 C346 1.211 . S
C348 O340 1.284 . S
C348 O349 1.273 . S
O349 C348 1.273 . S
O350 Zn341 1.977 . S
O350 C343 1.267 . S
C351 O352 1.160 . S
C351 O358 1.185 . S
O352 C351 1.160 . S
O353 Zn354 1.899 . S
O353 C361 1.284 . S
Zn354 O353 1.899 . S
Zn354 O355 2.032 . S
Zn354 O358 2.086 . S
Zn354 O363 1.977 . S
O355 Zn354 2.032 . S
O355 C359 1.278 . S
C356 O357 1.203 . S
C356 O363 1.267 . S
O357 C356 1.203 . S
O358 C351 1.185 . S
O358 Zn354 2.086 . S
C359 O355 1.278 . S
C359 O360 1.211 . S
O360 C359 1.211 . S
C361 O353 1.284 . S
C361 O362 1.273 . S
O362 C361 1.273 . S
O363 Zn354 1.977 . S
O363 C356 1.267 . S
C364 O365 1.160 . S
C364 O371 1.185 . S
O365 C364 1.160 . S
O366 Zn367 1.899 . S
O366 C374 1.284 . S
Zn367 O366 1.899 . S
Zn367 O368 2.032 . S
Zn367 O371 2.086 . S
Zn367 O376 1.977 . S
O368 Zn367 2.032 . S
O368 C372 1.278 . S
C369 O370 1.203 . S
C369 O376 1.267 . S
O370 C369 1.203 . S
O371 C364 1.185 . S
O371 Zn367 2.086 . S
C372 O368 1.278 . S
C372 O373 1.211 . S
O373 C372 1.211 . S
C374 O366 1.284 . S
C374 O375 1.273 . S
O375 C374 1.273 . S
O376 Zn367 1.977 . S
O376 C369 1.267 . S
C377 O378 1.160 . S
C377 O384 1.185 . S
O378 C377 1.160 . S
O379 Zn380 1.899 . S
O379 C387 1.284 . S
Zn380 O379 1.899 . S
Zn380 O381 2.032 . S
Zn380 O384 2.086 . S
Zn380 O389 1.977 . S
O381 Zn380 2.032 . S
O381 C385 1.278 1_554 S
C382 O383 1.203 . S
C382 O389 1.267 . S
O383 C382 1.203 . S
O384 C377 1.185 . S
O384 Zn380 2.086 . S
C385 O381 1.278 1_556 S
C385 O386 1.211 1_556 S
O386 C385 1.211 1_554 S
C387 O379 1.284 . S
C387 O388 1.273 . S
O388 C387 1.273 . S
O389 Zn380 1.977 . S
O389 C382 1.267 . S
C390 O391 1.160 . S
C390 O397 1.185 . S
O391 C390 1.160 . S
O392 Zn393 1.899 . S
O392 C400 1.284 . S
Zn393 O392 1.899 . S
Zn393 O394 2.032 . S
Zn393 O397 2.086 . S
Zn393 O402 1.977 . S
O394 Zn393 2.032 . S
O394 C398 1.278 . S
C395 O396 1.203 . S
C395 O402 1.267 1_554 S
O396 C395 1.203 . S
O397 C390 1.185 . S
O397 Zn393 2.086 . S
C398 O394 1.278 . S
C398 O399 1.211 . S
O399 C398 1.211 . S
C400 O392 1.284 . S
C400 O401 1.273 . S
O401 C400 1.273 . S
O402 Zn393 1.977 . S
O402 C395 1.267 1_556 S
C403 O404 1.160 . S
C403 O410 1.185 . S
O404 C403 1.160 . S
O405 Zn406 1.899 . S
O405 C413 1.284 . S
Zn406 O405 1.899 . S
Zn406 O407 2.032 . S
Zn406 O410 2.086 . S
Zn406 O415 1.977 . S
O407 Zn406 2.032 . S
O407 C411 1.278 . S
C408 O409 1.203 . S
C408 O415 1.267 . S
O409 C408 1.203 . S
O410 C403 1.185 . S
O410 Zn406 2.086 . S
C411 O407 1.278 . S
C411 O412 1.211 . S
O412 C411 1.211 . S
C413 O405 1.284 . S
C413 O414 1.273 . S
O414 C413 1.273 . S
O415 Zn406 1.977 . S
O415 C408 1.267 . S
C416 C417 1.369 . S
C416 C418 1.419 . S
C416 H420 0.930 . S
C417 C416 1.369 . S
C417 C426 1.429 . S
C418 C416 1.419 . S
C418 C419 1.363 . S
C418 H421 0.929 . S
C419 C418 1.363 . S
C419 C425 1.428 . S
H420 C416 0.930 . S
H421 C418 0.929 . S
S422 N423 1.613 . S
S422 N424 1.610 . S
N423 S422 1.613 . S
N423 C426 1.350 . S
N424 S422 1.610 . S
N424 C425 1.351 . S
C425 C419 1.428 . S
C425 N424 1.351 . S
C425 C426 1.434 . S
C426 C417 1.429 . S
C426 N423 1.350 . S
C426 C425 1.434 . S
C427 C428 1.369 . S
C427 C429 1.419 1_565 S
C427 H431 0.930 . S
C428 C427 1.369 . S
C428 C437 1.429 . S
C429 C427 1.419 1_545 S
C429 C430 1.363 . S
C429 H432 0.929 . S
C430 C429 1.363 . S
C430 C436 1.458 . S
H431 C427 0.930 . S
H432 C429 0.929 . S
S433 N434 1.613 . S
S433 N435 1.610 . S
N434 S433 1.613 . S
N434 C437 1.350 . S
N435 S433 1.610 . S
N435 C436 1.348 1_565 S
C436 C430 1.458 . S
C436 N435 1.348 1_545 S
C436 C437 1.403 1_545 S
C437 C428 1.429 . S
C437 N434 1.350 . S
C437 C436 1.403 1_565 S
C438 C439 1.369 . S
C438 C440 1.419 . S
C438 H442 0.930 . S
C439 C438 1.369 . S
C439 C448 1.429 1_554 S
C440 C438 1.419 . S
C440 C441 1.363 1_554 S
C440 H443 0.929 . S
C441 C440 1.363 1_556 S
C441 C447 1.428 . S
H442 C438 0.930 . S
H443 C440 0.929 . S
S444 N445 1.613 . S
S444 N446 1.610 . S
N445 S444 1.613 . S
N445 C448 1.350 . S
N446 S444 1.610 . S
N446 C447 1.351 . S
C447 C441 1.428 . S
C447 N446 1.351 . S
C447 C448 1.434 . S
C448 C439 1.429 1_556 S
C448 N445 1.350 . S
C448 C447 1.434 . S
C449 C450 1.369 . S
C449 C451 1.419 1_545 S
C449 H453 0.930 . S
C450 C449 1.369 . S
C450 C459 1.429 . S
C451 C449 1.419 1_565 S
C451 C452 1.363 . S
C451 H454 0.929 . S
C452 C451 1.363 . S
C452 C458 1.428 . S
H453 C449 0.930 . S
H454 C451 0.929 . S
S455 N456 1.613 1_565 S
S455 N457 1.610 . S
N456 S455 1.613 1_545 S
N456 C459 1.350 . S
N457 S455 1.610 . S
N457 C458 1.351 . S
C458 C452 1.428 . S
C458 N457 1.351 . S
C458 C459 1.434 1_565 S
C459 C450 1.429 . S
C459 N456 1.350 . S
C459 C458 1.434 1_545 S
C460 C461 1.369 . S
C460 C462 1.419 . S
C460 H464 0.930 . S
C461 C460 1.369 . S
C461 C470 1.429 . S
C462 C460 1.419 . S
C462 C463 1.363 . S
C462 H465 0.929 . S
C463 C462 1.363 . S
C463 C469 1.428 . S
H464 C460 0.930 . S
H465 C462 0.929 . S
S466 N467 1.613 . S
S466 N468 1.610 . S
N467 S466 1.613 . S
N467 C470 1.350 . S
N468 S466 1.610 . S
N468 C469 1.351 . S
C469 C463 1.428 . S
C469 N468 1.351 . S
C469 C470 1.434 . S
C470 C461 1.429 . S
C470 N467 1.350 . S
C470 C469 1.434 . S
C471 C472 1.369 . S
C471 C473 1.419 1_545 S
C471 H475 0.930 . S
C472 C471 1.369 . S
C472 C481 1.450 . S
C473 C471 1.419 1_565 S
C473 C474 1.363 . S
C473 H476 0.929 . S
C474 C473 1.363 . S
C474 C480 1.428 . S
H475 C471 0.930 . S
H476 C473 0.929 . S
S477 N478 1.613 . S
S477 N479 1.610 . S
N478 S477 1.613 . S
N478 C481 1.348 1_565 S
N479 S477 1.610 . S
N479 C480 1.351 . S
C480 C474 1.428 . S
C480 N479 1.351 . S
C480 C481 1.412 1_565 S
C481 C472 1.450 . S
C481 N478 1.348 1_545 S
C481 C480 1.412 1_545 S
C482 C483 1.369 1_554 S
C482 C484 1.419 . S
C482 H486 0.930 . S
C483 C482 1.369 1_556 S
C483 C492 1.429 . S
C484 C482 1.419 . S
C484 C485 1.363 . S
C484 H487 0.929 . S
C485 C484 1.363 . S
C485 C491 1.428 1_554 S
H486 C482 0.930 . S
H487 C484 0.929 . S
S488 N489 1.613 . S
S488 N490 1.610 . S
N489 S488 1.613 . S
N489 C492 1.350 . S
N490 S488 1.610 . S
N490 C491 1.351 . S
C491 C485 1.428 1_556 S
C491 N490 1.351 . S
C491 C492 1.434 . S
C492 C483 1.429 . S
C492 N489 1.350 . S
C492 C491 1.434 . S
C493 C494 1.369 . S
C493 C495 1.419 1_565 S
C493 H497 0.930 . S
C494 C493 1.369 . S
C494 C503 1.429 . S
C495 C493 1.419 1_545 S
C495 C496 1.363 . S
C495 H498 0.929 . S
C496 C495 1.363 . S
C496 C502 1.468 . S
H497 C493 0.930 . S
H498 C495 0.929 . S
S499 N500 1.613 . S
S499 N501 1.610 . S
N500 S499 1.613 . S
N500 C503 1.350 . S
N501 S499 1.610 . S
N501 C502 1.348 1_565 S
C502 C496 1.468 . S
C502 N501 1.348 1_545 S
C502 C503 1.393 1_545 S
C503 C494 1.429 . S
C503 N500 1.350 . S
C503 C502 1.393 1_565 S
C504 C505 1.369 1_554 S
C504 C506 1.419 . S
C504 H508 0.930 . S
C505 C504 1.369 1_556 S
C505 C514 1.429 . S
C506 C504 1.419 . S
C506 C507 1.363 . S
C506 H509 0.929 . S
C507 C506 1.363 . S
C507 C513 1.428 1_554 S
H508 C504 0.930 . S
H509 C506 0.929 . S
S510 N511 1.613 . S
S510 N512 1.610 . S
N511 S510 1.613 . S
N511 C514 1.350 . S
N512 S510 1.610 . S
N512 C513 1.351 . S
C513 C507 1.428 1_556 S
C513 N512 1.351 . S
C513 C514 1.434 . S
C514 C505 1.429 . S
C514 N511 1.350 . S
C514 C513 1.434 . S
C515 C516 1.369 . S
C515 C517 1.419 . S
C515 H519 0.930 . S
C516 C515 1.369 . S
C516 C525 1.429 . S
C517 C515 1.419 . S
C517 C518 1.363 . S
C517 H520 0.929 . S
C518 C517 1.363 . S
C518 C524 1.428 . S
H519 C515 0.930 . S
H520 C517 0.929 . S
S521 N522 1.613 . S
S521 N523 1.610 . S
N522 S521 1.613 . S
N522 C525 1.350 . S
N523 S521 1.610 . S
N523 C524 1.351 . S
C524 C518 1.428 . S
C524 N523 1.351 . S
C524 C525 1.434 . S
C525 C516 1.429 . S
C525 N522 1.350 . S
C525 C524 1.434 . S
C526 C527 1.369 . S
C526 C528 1.419 . S
C526 H530 0.930 . S
C527 C526 1.369 . S
C527 C536 1.429 . S
C528 C526 1.419 . S
C528 C529 1.363 . S
C528 H531 0.929 . S
C529 C528 1.363 . S
C529 C535 1.428 . S
H530 C526 0.930 . S
H531 C528 0.929 . S
S532 N533 1.613 . S
S532 N534 1.610 . S
N533 S532 1.613 . S
N533 C536 1.350 . S
N534 S532 1.610 . S
N534 C535 1.351 . S
C535 C529 1.428 . S
C535 N534 1.351 . S
C535 C536 1.434 . S
C536 C527 1.429 . S
C536 N533 1.350 . S
C536 C535 1.434 . S
C537 C538 1.369 . S
C537 C539 1.419 . S
C537 H541 0.930 . S
C538 C537 1.369 . S
C538 C547 1.429 . S
C539 C537 1.419 . S
C539 C540 1.363 . S
C539 H542 0.929 . S
C540 C539 1.363 . S
C540 C546 1.428 . S
H541 C537 0.930 . S
H542 C539 0.929 . S
S543 N544 1.613 . S
S543 N545 1.610 . S
N544 S543 1.613 . S
N544 C547 1.350 . S
N545 S543 1.610 . S
N545 C546 1.351 . S
C546 C540 1.428 . S
C546 N545 1.351 . S
C546 C547 1.434 . S
C547 C538 1.429 . S
C547 N544 1.350 . S
C547 C546 1.434 . S
C548 C549 1.369 . S
C548 C550 1.419 . S
C548 H552 0.930 . S
C549 C548 1.369 . S
C549 C558 1.429 1_556 S
C550 C548 1.419 . S
C550 C551 1.363 1_556 S
C550 H553 0.929 . S
C551 C550 1.363 1_554 S
C551 C557 1.428 . S
H552 C548 0.930 . S
H553 C550 0.929 . S
S554 N555 1.613 . S
S554 N556 1.610 . S
N555 S554 1.613 . S
N555 C558 1.350 . S
N556 S554 1.610 . S
N556 C557 1.351 . S
C557 C551 1.428 . S
C557 N556 1.351 . S
C557 C558 1.434 . S
C558 C549 1.429 1_554 S
C558 N555 1.350 . S
C558 C557 1.434 . S
C559 C560 1.369 . S
C559 C561 1.419 . S
C559 H563 0.930 . S
C560 C559 1.369 . S
C560 C569 1.429 . S
C561 C559 1.419 . S
C561 C562 1.363 . S
C561 H564 0.929 . S
C562 C561 1.363 . S
C562 C568 1.428 . S
H563 C559 0.930 . S
H564 C561 0.929 . S
S565 N566 1.613 . S
S565 N567 1.610 . S
N566 S565 1.613 . S
N566 C569 1.350 . S
N567 S565 1.610 . S
N567 C568 1.351 . S
C568 C562 1.428 . S
C568 N567 1.351 . S
C568 C569 1.434 . S
C569 C560 1.429 . S
C569 N566 1.350 . S
C569 C568 1.434 . S
C570 C571 1.369 . S
C570 C572 1.419 . S
C570 H574 0.930 . S
C571 C570 1.369 . S
C571 C580 1.429 . S
C572 C570 1.419 . S
C572 C573 1.363 . S
C572 H575 0.929 . S
C573 C572 1.363 . S
C573 C579 1.428 . S
H574 C570 0.930 . S
H575 C572 0.929 . S
S576 N577 1.613 . S
S576 N578 1.610 . S
N577 S576 1.613 . S
N577 C580 1.350 . S
N578 S576 1.610 . S
N578 C579 1.351 . S
C579 C573 1.428 . S
C579 N578 1.351 . S
C579 C580 1.434 . S
C580 C571 1.429 . S
C580 N577 1.350 . S
C580 C579 1.434 . S
C581 C582 1.369 . S
C581 C583 1.419 . S
C581 H585 0.930 . S
C582 C581 1.369 . S
C582 C591 1.429 . S
C583 C581 1.419 . S
C583 C584 1.363 . S
C583 H586 0.929 . S
C584 C583 1.363 . S
C584 C590 1.428 . S
H585 C581 0.930 . S
H586 C583 0.929 . S
S587 N588 1.613 . S
S587 N589 1.610 . S
N588 S587 1.613 . S
N588 C591 1.350 . S
N589 S587 1.610 . S
N589 C590 1.351 . S
C590 C584 1.428 . S
C590 N589 1.351 . S
C590 C591 1.434 . S
C591 C582 1.429 . S
C591 N588 1.350 . S
C591 C590 1.434 . S
C592 C593 1.369 . S
C592 C594 1.419 . S
C592 H596 0.930 . S
C593 C592 1.369 . S
C593 C602 1.429 . S
C594 C592 1.419 . S
C594 C595 1.363 . S
C594 H597 0.929 . S
C595 C594 1.363 . S
C595 C601 1.428 . S
H596 C592 0.930 . S
H597 C594 0.929 . S
S598 N599 1.613 . S
S598 N600 1.610 . S
N599 S598 1.613 . S
N599 C602 1.350 . S
N600 S598 1.610 . S
N600 C601 1.351 . S
C601 C595 1.428 . S
C601 N600 1.351 . S
C601 C602 1.434 . S
C602 C593 1.429 . S
C602 N599 1.350 . S
C602 C601 1.434 . S
C603 C604 1.369 . S
C603 C605 1.419 . S
C603 H607 0.930 . S
C604 C603 1.369 . S
C604 C613 1.429 . S
C605 C603 1.419 . S
C605 C606 1.363 . S
C605 H608 0.929 . S
C606 C605 1.363 . S
C606 C612 1.428 . S
H607 C603 0.930 . S
H608 C605 0.929 . S
S609 N610 1.613 . S
S609 N611 1.610 . S
N610 S609 1.613 . S
N610 C613 1.350 . S
N611 S609 1.610 . S
N611 C612 1.351 . S
C612 C606 1.428 . S
C612 N611 1.351 . S
C612 C613 1.434 . S
C613 C604 1.429 . S
C613 N610 1.350 . S
C613 C612 1.434 . S
C614 C615 1.369 . S
C614 C616 1.419 . S
C614 H618 0.930 . S
C615 C614 1.369 . S
C615 C624 1.429 . S
C616 C614 1.419 . S
C616 C617 1.363 . S
C616 H619 0.929 . S
C617 C616 1.363 . S
C617 C623 1.428 . S
H618 C614 0.930 . S
H619 C616 0.929 . S
S620 N621 1.613 . S
S620 N622 1.610 . S
N621 S620 1.613 . S
N621 C624 1.350 . S
N622 S620 1.610 . S
N622 C623 1.351 . S
C623 C617 1.428 . S
C623 N622 1.351 . S
C623 C624 1.434 . S
C624 C615 1.429 . S
C624 N621 1.350 . S
C624 C623 1.434 . S
C625 C626 1.369 . S
C625 C627 1.419 . S
C625 H629 0.930 . S
C626 C625 1.369 . S
C626 C635 1.429 . S
C627 C625 1.419 . S
C627 C628 1.363 . S
C627 H630 0.929 . S
C628 C627 1.363 . S
C628 C634 1.428 . S
H629 C625 0.930 . S
H630 C627 0.929 . S
S631 N632 1.613 . S
S631 N633 1.610 . S
N632 S631 1.613 . S
N632 C635 1.350 . S
N633 S631 1.610 . S
N633 C634 1.351 . S
C634 C628 1.428 . S
C634 N633 1.351 . S
C634 C635 1.434 . S
C635 C626 1.429 . S
C635 N632 1.350 . S
C635 C634 1.434 . S
C636 C637 1.369 . S
C636 C638 1.419 . S
C636 H640 0.930 1_556 S
C637 C636 1.369 . S
C637 C646 1.429 . S
C638 C636 1.419 . S
C638 C639 1.363 . S
C638 H641 0.929 . S
C639 C638 1.363 . S
C639 C645 1.428 . S
H640 C636 0.930 1_554 S
H641 C638 0.929 . S
S642 N643 1.613 . S
S642 N644 1.610 . S
N643 S642 1.613 . S
N643 C646 1.350 . S
N644 S642 1.610 . S
N644 C645 1.351 . S
C645 C639 1.428 . S
C645 N644 1.351 . S
C645 C646 1.434 . S
C646 C637 1.429 . S
C646 N643 1.350 . S
C646 C645 1.434 . S
C647 C648 1.369 . S
C647 C649 1.419 . S
C647 H651 0.930 . S
C648 C647 1.369 . S
C648 C657 1.429 . S
C649 C647 1.419 . S
C649 C650 1.363 . S
C649 H652 0.929 . S
C650 C649 1.363 . S
C650 C656 1.428 . S
H651 C647 0.930 . S
H652 C649 0.929 . S
S653 N654 1.613 . S
S653 N655 1.610 . S
N654 S653 1.613 . S
N654 C657 1.350 . S
N655 S653 1.610 . S
N655 C656 1.351 . S
C656 C650 1.428 . S
C656 N655 1.351 . S
C656 C657 1.434 . S
C657 C648 1.429 . S
C657 N654 1.350 . S
C657 C656 1.434 . S
C658 C659 1.369 . S
C658 C660 1.419 . S
C658 H662 0.930 . S
C659 C658 1.369 . S
C659 C668 1.429 . S
C660 C658 1.419 . S
C660 C661 1.363 . S
C660 H663 0.929 . S
C661 C660 1.363 . S
C661 C667 1.428 . S
H662 C658 0.930 . S
H663 C660 0.929 . S
S664 N665 1.613 . S
S664 N666 1.610 . S
N665 S664 1.613 . S
N665 C668 1.350 . S
N666 S664 1.610 . S
N666 C667 1.351 . S
C667 C661 1.428 . S
C667 N666 1.351 . S
C667 C668 1.434 . S
C668 C659 1.429 . S
C668 N665 1.350 . S
C668 C667 1.434 . S
C669 C670 1.369 . S
C669 C671 1.419 . S
C669 H673 0.930 . S
C670 C669 1.369 . S
C670 C679 1.429 . S
C671 C669 1.419 . S
C671 C672 1.363 . S
C671 H674 0.929 . S
C672 C671 1.363 . S
C672 C678 1.428 . S
H673 C669 0.930 . S
H674 C671 0.929 . S
S675 N676 1.613 1_554 S
S675 N677 1.610 . S
N676 S675 1.613 1_556 S
N676 C679 1.350 1_556 S
N677 S675 1.610 . S
N677 C678 1.351 . S
C678 C672 1.428 . S
C678 N677 1.351 . S
C678 C679 1.434 . S
C679 C670 1.429 . S
C679 N676 1.350 1_554 S
C679 C678 1.434 . S
C680 C681 1.369 . S
C680 C682 1.419 . S
C680 H684 0.930 . S
C681 C680 1.369 . S
C681 C690 1.429 . S
C682 C680 1.419 . S
C682 C683 1.363 . S
C682 H685 0.929 . S
C683 C682 1.363 . S
C683 C689 1.428 . S
H684 C680 0.930 . S
H685 C682 0.929 . S
S686 N687 1.613 . S
S686 N688 1.610 . S
N687 S686 1.613 . S
N687 C690 1.350 . S
N688 S686 1.610 . S
N688 C689 1.351 . S
C689 C683 1.428 . S
C689 N688 1.351 . S
C689 C690 1.434 . S
C690 C681 1.429 . S
C690 N687 1.350 . S
C690 C689 1.434 . S
C691 C692 1.369 . S
C691 C693 1.419 . S
C691 H695 0.930 . S
C692 C691 1.369 . S
C692 C701 1.429 . S
C693 C691 1.419 . S
C693 C694 1.363 . S
C693 H696 0.929 . S
C694 C693 1.363 . S
C694 C700 1.428 . S
H695 C691 0.930 . S
H696 C693 0.929 . S
S697 N698 1.613 1_556 S
S697 N699 1.610 . S
N698 S697 1.613 1_554 S
N698 C701 1.350 1_554 S
N699 S697 1.610 . S
N699 C700 1.351 . S
C700 C694 1.428 . S
C700 N699 1.351 . S
C700 C701 1.434 . S
C701 C692 1.429 . S
C701 N698 1.350 1_556 S
C701 C700 1.434 . S
C702 C703 1.369 . S
C702 C704 1.419 . S
C702 H706 0.930 . S
C703 C702 1.369 . S
C703 C712 1.429 . S
C704 C702 1.419 . S
C704 C705 1.363 . S
C704 H707 0.929 . S
C705 C704 1.363 . S
C705 C711 1.428 . S
H706 C702 0.930 . S
H707 C704 0.929 . S
S708 N709 1.613 . S
S708 N710 1.610 1_554 S
N709 S708 1.613 . S
N709 C712 1.350 . S
N710 S708 1.610 1_556 S
N710 C711 1.351 1_556 S
C711 C705 1.428 . S
C711 N710 1.351 1_554 S
C711 C712 1.434 . S
C712 C703 1.429 . S
C712 N709 1.350 . S
C712 C711 1.434 . S
C713 C714 1.369 . S
C713 C715 1.419 . S
C713 H717 0.930 . S
C714 C713 1.369 . S
C714 C723 1.429 . S
C715 C713 1.419 . S
C715 C716 1.363 . S
C715 H718 0.929 . S
C716 C715 1.363 . S
C716 C722 1.428 . S
H717 C713 0.930 . S
H718 C715 0.929 . S
S719 N720 1.613 . S
S719 N721 1.610 . S
N720 S719 1.613 . S
N720 C723 1.350 . S
N721 S719 1.610 . S
N721 C722 1.351 . S
C722 C716 1.428 . S
C722 N721 1.351 . S
C722 C723 1.434 . S
C723 C714 1.429 . S
C723 N720 1.350 . S
C723 C722 1.434 . S
C724 C725 1.369 . S
C724 C726 1.419 . S
C724 H728 0.930 . S
C725 C724 1.369 . S
C725 C734 1.429 . S
C726 C724 1.419 . S
C726 C727 1.363 . S
C726 H729 0.929 . S
C727 C726 1.363 . S
C727 C733 1.428 . S
H728 C724 0.930 . S
H729 C726 0.929 . S
S730 N731 1.613 . S
S730 N732 1.610 . S
N731 S730 1.613 . S
N731 C734 1.350 . S
N732 S730 1.610 . S
N732 C733 1.351 . S
C733 C727 1.428 . S
C733 N732 1.351 . S
C733 C734 1.434 . S
C734 C725 1.429 . S
C734 N731 1.350 . S
C734 C733 1.434 . S
C735 C736 1.369 . S
C735 C737 1.419 . S
C735 H739 0.930 . S
C736 C735 1.369 . S
C736 C745 1.429 . S
C737 C735 1.419 . S
C737 C738 1.363 . S
C737 H740 0.929 . S
C738 C737 1.363 . S
C738 C744 1.428 . S
H739 C735 0.930 . S
H740 C737 0.929 . S
S741 N742 1.613 . S
S741 N743 1.610 . S
N742 S741 1.613 . S
N742 C745 1.350 . S
N743 S741 1.610 . S
N743 C744 1.351 . S
C744 C738 1.428 . S
C744 N743 1.351 . S
C744 C745 1.434 . S
C745 C736 1.429 . S
C745 N742 1.350 . S
C745 C744 1.434 . S
C746 C747 1.369 . S
C746 C748 1.419 . S
C746 H750 0.930 . S
C747 C746 1.369 . S
C747 C756 1.429 . S
C748 C746 1.419 . S
C748 C749 1.363 . S
C748 H751 0.929 . S
C749 C748 1.363 . S
C749 C755 1.428 . S
H750 C746 0.930 . S
H751 C748 0.929 . S
S752 N753 1.613 . S
S752 N754 1.610 . S
N753 S752 1.613 . S
N753 C756 1.350 . S
N754 S752 1.610 . S
N754 C755 1.351 . S
C755 C749 1.428 . S
C755 N754 1.351 . S
C755 C756 1.434 . S
C756 C747 1.429 . S
C756 N753 1.350 . S
C756 C755 1.434 . S
C757 C758 1.369 . S
C757 C759 1.419 . S
C757 H761 0.930 . S
C758 C757 1.369 . S
C758 C767 1.429 . S
C759 C757 1.419 . S
C759 C760 1.363 . S
C759 H762 0.929 . S
C760 C759 1.363 . S
C760 C766 1.428 . S
H761 C757 0.930 . S
H762 C759 0.929 . S
S763 N764 1.613 . S
S763 N765 1.610 . S
N764 S763 1.613 . S
N764 C767 1.350 . S
N765 S763 1.610 . S
N765 C766 1.351 . S
C766 C760 1.428 . S
C766 N765 1.351 . S
C766 C767 1.434 . S
C767 C758 1.429 . S
C767 N764 1.350 . S
C767 C766 1.434 . S
C768 C769 1.369 . S
C768 C770 1.419 . S
C768 H772 0.930 . S
C769 C768 1.369 . S
C769 C778 1.429 . S
C770 C768 1.419 . S
C770 C771 1.363 . S
C770 H773 0.929 1_554 S
C771 C770 1.363 . S
C771 C777 1.428 . S
H772 C768 0.930 . S
H773 C770 0.929 1_556 S
S774 N775 1.613 . S
S774 N776 1.610 . S
N775 S774 1.613 . S
N775 C778 1.350 . S
N776 S774 1.610 . S
N776 C777 1.351 . S
C777 C771 1.428 . S
C777 N776 1.351 . S
C777 C778 1.434 . S
C778 C769 1.429 . S
C778 N775 1.350 . S
C778 C777 1.434 . S
C779 C780 1.369 . S
C779 C781 1.419 1_655 S
C779 H783 0.930 . S
C780 C779 1.369 . S
C780 C789 1.429 . S
C781 C779 1.419 1_455 S
C781 C782 1.363 . S
C781 H784 0.929 . S
C782 C781 1.363 . S
C782 C788 1.428 . S
H783 C779 0.930 . S
H784 C781 0.929 . S
S785 N786 1.613 . S
S785 N787 1.610 1_655 S
N786 S785 1.613 . S
N786 C789 1.350 . S
N787 S785 1.610 1_455 S
N787 C788 1.351 . S
C788 C782 1.428 . S
C788 N787 1.351 . S
C788 C789 1.434 1_455 S
C789 C780 1.429 . S
C789 N786 1.350 . S
C789 C788 1.434 1_655 S
C790 C791 1.369 . S
C790 C792 1.419 . S
C790 H794 0.930 . S
C791 C790 1.369 . S
C791 C800 1.429 . S
C792 C790 1.419 . S
C792 C793 1.363 . S
C792 H795 0.929 . S
C793 C792 1.363 . S
C793 C799 1.428 . S
H794 C790 0.930 . S
H795 C792 0.929 . S
S796 N797 1.613 . S
S796 N798 1.610 . S
N797 S796 1.613 . S
N797 C800 1.350 . S
N798 S796 1.610 . S
N798 C799 1.351 . S
C799 C793 1.428 . S
C799 N798 1.351 . S
C799 C800 1.434 . S
C800 C791 1.429 . S
C800 N797 1.350 . S
C800 C799 1.434 . S
C801 C802 1.369 . S
C801 C803 1.419 . S
C801 H805 0.930 . S
C802 C801 1.369 . S
C802 C811 1.429 . S
C803 C801 1.419 . S
C803 C804 1.363 . S
C803 H806 0.929 . S
C804 C803 1.363 . S
C804 C810 1.428 . S
H805 C801 0.930 . S
H806 C803 0.929 . S
S807 N808 1.613 1_554 S
S807 N809 1.610 . S
N808 S807 1.613 1_556 S
N808 C811 1.350 . S
N809 S807 1.610 . S
N809 C810 1.351 1_554 S
C810 C804 1.428 . S
C810 N809 1.351 1_556 S
C810 C811 1.434 . S
C811 C802 1.429 . S
C811 N808 1.350 . S
C811 C810 1.434 . S
C812 C813 1.369 . S
C812 C814 1.419 . S
C812 H816 0.930 . S
C813 C812 1.369 . S
C813 C822 1.429 . S
C814 C812 1.419 . S
C814 C815 1.363 . S
C814 H817 0.929 . S
C815 C814 1.363 . S
C815 C821 1.428 . S
H816 C812 0.930 . S
H817 C814 0.929 . S
S818 N819 1.613 . S
S818 N820 1.610 . S
N819 S818 1.613 . S
N819 C822 1.350 . S
N820 S818 1.610 . S
N820 C821 1.351 . S
C821 C815 1.428 . S
C821 N820 1.351 . S
C821 C822 1.434 . S
C822 C813 1.429 . S
C822 N819 1.350 . S
C822 C821 1.434 . S
C823 C824 1.369 . S
C823 C825 1.419 . S
C823 H827 0.930 . S
C824 C823 1.369 . S
C824 C833 1.429 . S
C825 C823 1.419 . S
C825 C826 1.363 . S
C825 H828 0.929 . S
C826 C825 1.363 . S
C826 C832 1.428 . S
H827 C823 0.930 . S
H828 C825 0.929 . S
S829 N830 1.613 . S
S829 N831 1.610 . S
N830 S829 1.613 . S
N830 C833 1.350 . S
N831 S829 1.610 . S
N831 C832 1.351 . S
C832 C826 1.428 . S
C832 N831 1.351 . S
C832 C833 1.434 . S
C833 C824 1.429 . S
C833 N830 1.350 . S
C833 C832 1.434 . S
C834 C835 1.369 . S
C834 C836 1.419 . S
C834 H838 0.930 . S
C835 C834 1.369 . S
C835 C844 1.429 . S
C836 C834 1.419 . S
C836 C837 1.363 . S
C836 H839 0.929 . S
C837 C836 1.363 . S
C837 C843 1.428 . S
H838 C834 0.930 . S
H839 C836 0.929 . S
S840 N841 1.613 1_554 S
S840 N842 1.610 . S
N841 S840 1.613 1_556 S
N841 C844 1.350 . S
N842 S840 1.610 . S
N842 C843 1.351 1_554 S
C843 C837 1.428 . S
C843 N842 1.351 1_556 S
C843 C844 1.434 . S
C844 C835 1.429 . S
C844 N841 1.350 . S
C844 C843 1.434 . S
C845 C846 1.369 1_655 S
C845 C847 1.419 . S
C845 H849 0.930 . S
C846 C845 1.369 1_455 S
C846 C855 1.429 . S
C847 C845 1.419 . S
C847 C848 1.363 . S
C847 H850 0.929 . S
C848 C847 1.363 . S
C848 C854 1.428 . S
H849 C845 0.930 . S
H850 C847 0.929 . S
S851 N852 1.613 . S
S851 N853 1.610 1_455 S
N852 S851 1.613 . S
N852 C855 1.350 . S
N853 S851 1.610 1_655 S
N853 C854 1.351 . S
C854 C848 1.428 . S
C854 N853 1.351 . S
C854 C855 1.434 1_655 S
C855 C846 1.429 . S
C855 N852 1.350 . S
C855 C854 1.434 1_455 S
C856 C857 1.369 . S
C856 C858 1.419 . S
C856 H860 0.930 . S
C857 C856 1.369 . S
C857 C866 1.429 . S
C858 C856 1.419 . S
C858 C859 1.363 . S
C858 H861 0.929 . S
C859 C858 1.363 . S
C859 C865 1.428 . S
H860 C856 0.930 . S
H861 C858 0.929 . S
S862 N863 1.613 1_554 S
S862 N864 1.610 . S
N863 S862 1.613 1_556 S
N863 C866 1.350 . S
N864 S862 1.610 . S
N864 C865 1.351 1_554 S
C865 C859 1.428 . S
C865 N864 1.351 1_556 S
C865 C866 1.434 . S
C866 C857 1.429 . S
C866 N863 1.350 . S
C866 C865 1.434 . S
C867 C868 1.369 . S
C867 C869 1.419 1_455 S
C867 H871 0.930 . S
C868 C867 1.369 . S
C868 C877 1.429 . S
C869 C867 1.419 1_655 S
C869 C870 1.363 . S
C869 H872 0.929 . S
C870 C869 1.363 . S
C870 C876 1.428 1_655 S
H871 C867 0.930 . S
H872 C869 0.929 . S
S873 N874 1.613 . S
S873 N875 1.610 . S
N874 S873 1.613 . S
N874 C877 1.350 . S
N875 S873 1.610 . S
N875 C876 1.351 . S
C876 C870 1.428 1_455 S
C876 N875 1.351 . S
C876 C877 1.434 . S
C877 C868 1.429 . S
C877 N874 1.350 . S
C877 C876 1.434 . S
C878 C879 1.369 . S
C878 C880 1.419 . S
C878 H882 0.930 . S
C879 C878 1.369 . S
C879 C888 1.429 . S
C880 C878 1.419 . S
C880 C881 1.363 . S
C880 H883 0.929 . S
C881 C880 1.363 . S
C881 C887 1.428 . S
H882 C878 0.930 . S
H883 C880 0.929 . S
S884 N885 1.613 . S
S884 N886 1.610 . S
N885 S884 1.613 . S
N885 C888 1.350 . S
N886 S884 1.610 . S
N886 C887 1.351 . S
C887 C881 1.428 . S
C887 N886 1.351 . S
C887 C888 1.434 . S
C888 C879 1.429 . S
C888 N885 1.350 . S
C888 C887 1.434 . S
C889 C890 1.369 . S
C889 C891 1.419 . S
C889 H893 0.930 . S
C890 C889 1.369 . S
C890 C899 1.429 . S
C891 C889 1.419 . S
C891 C892 1.363 . S
C891 H894 0.929 . S
C892 C891 1.363 . S
C892 C898 1.428 . S
H893 C889 0.930 . S
H894 C891 0.929 . S
S895 N896 1.613 . S
S895 N897 1.610 . S
N896 S895 1.613 . S
N896 C899 1.350 . S
N897 S895 1.610 . S
N897 C898 1.351 . S
C898 C892 1.428 . S
C898 N897 1.351 . S
C898 C899 1.434 . S
C899 C890 1.429 . S
C899 N896 1.350 . S
C899 C898 1.434 . S
C900 C901 1.369 . S
C900 C902 1.419 . S
C900 H904 0.930 . S
C901 C900 1.369 . S
C901 C910 1.429 . S
C902 C900 1.419 . S
C902 C903 1.363 . S
C902 H905 0.929 . S
C903 C902 1.363 . S
C903 C909 1.428 . S
H904 C900 0.930 . S
H905 C902 0.929 . S
S906 N907 1.613 . S
S906 N908 1.610 . S
N907 S906 1.613 . S
N907 C910 1.350 . S
N908 S906 1.610 . S
N908 C909 1.351 . S
C909 C903 1.428 . S
C909 N908 1.351 . S
C909 C910 1.434 . S
C910 C901 1.429 . S
C910 N907 1.350 . S
C910 C909 1.434 . S
C911 C912 1.369 . S
C911 C913 1.419 . S
C911 H915 0.930 . S
C912 C911 1.369 . S
C912 C921 1.429 . S
C913 C911 1.419 . S
C913 C914 1.363 . S
C913 H916 0.929 . S
C914 C913 1.363 . S
C914 C920 1.428 . S
H915 C911 0.930 . S
H916 C913 0.929 . S
S917 N918 1.613 . S
S917 N919 1.610 . S
N918 S917 1.613 . S
N918 C921 1.350 . S
N919 S917 1.610 . S
N919 C920 1.351 . S
C920 C914 1.428 . S
C920 N919 1.351 . S
C920 C921 1.434 . S
C921 C912 1.429 . S
C921 N918 1.350 . S
C921 C920 1.434 . S
C922 C923 1.369 . S
C922 C924 1.419 . S
C922 H926 0.930 . S
C923 C922 1.369 . S
C923 C932 1.429 . S
C924 C922 1.419 . S
C924 C925 1.363 . S
C924 H927 0.929 . S
C925 C924 1.363 . S
C925 C931 1.428 . S
H926 C922 0.930 . S
H927 C924 0.929 . S
S928 N929 1.613 . S
S928 N930 1.610 . S
N929 S928 1.613 . S
N929 C932 1.350 . S
N930 S928 1.610 . S
N930 C931 1.351 . S
C931 C925 1.428 . S
C931 N930 1.351 . S
C931 C932 1.434 . S
C932 C923 1.429 . S
C932 N929 1.350 . S
C932 C931 1.434 . S
C933 C934 1.369 . S
C933 C935 1.419 1_455 S
C933 H937 0.930 . S
C934 C933 1.369 . S
C934 C943 1.429 . S
C935 C933 1.419 1_655 S
C935 C936 1.363 . S
C935 H938 0.929 1_556 S
C936 C935 1.363 . S
C936 C942 1.428 . S
H937 C933 0.930 . S
H938 C935 0.929 1_554 S
S939 N940 1.613 . S
S939 N941 1.610 1_455 S
N940 S939 1.613 . S
N940 C943 1.350 . S
N941 S939 1.610 1_655 S
N941 C942 1.351 . S
C942 C936 1.428 . S
C942 N941 1.351 . S
C942 C943 1.434 1_655 S
C943 C934 1.429 . S
C943 N940 1.350 . S
C943 C942 1.434 1_455 S
C944 C945 1.369 . S
C944 C946 1.419 . S
C944 H948 0.930 . S
C945 C944 1.369 . S
C945 C954 1.429 . S
C946 C944 1.419 . S
C946 C947 1.363 . S
C946 H949 0.929 . S
C947 C946 1.363 . S
C947 C953 1.428 . S
H948 C944 0.930 . S
H949 C946 0.929 . S
S950 N951 1.613 . S
S950 N952 1.610 . S
N951 S950 1.613 . S
N951 C954 1.350 . S
N952 S950 1.610 . S
N952 C953 1.351 . S
C953 C947 1.428 . S
C953 N952 1.351 . S
C953 C954 1.434 . S
C954 C945 1.429 . S
C954 N951 1.350 . S
C954 C953 1.434 . S
C955 C956 1.369 . S
C955 C957 1.419 . S
C955 H959 0.930 . S
C956 C955 1.369 . S
C956 C965 1.429 . S
C957 C955 1.419 . S
C957 C958 1.363 . S
C957 H960 0.929 . S
C958 C957 1.363 . S
C958 C964 1.428 . S
H959 C955 0.930 . S
H960 C957 0.929 . S
S961 N962 1.613 . S
S961 N963 1.610 . S
N962 S961 1.613 . S
N962 C965 1.350 . S
N963 S961 1.610 . S
N963 C964 1.351 . S
C964 C958 1.428 . S
C964 N963 1.351 . S
C964 C965 1.434 . S
C965 C956 1.429 . S
C965 N962 1.350 . S
C965 C964 1.434 . S
C966 C967 1.369 . S
C966 C968 1.419 . S
C966 H970 0.930 . S
C967 C966 1.369 . S
C967 C976 1.429 . S
C968 C966 1.419 . S
C968 C969 1.363 . S
C968 H971 0.929 . S
C969 C968 1.363 . S
C969 C975 1.428 . S
H970 C966 0.930 . S
H971 C968 0.929 . S
S972 N973 1.613 . S
S972 N974 1.610 . S
N973 S972 1.613 . S
N973 C976 1.350 . S
N974 S972 1.610 . S
N974 C975 1.351 . S
C975 C969 1.428 . S
C975 N974 1.351 . S
C975 C976 1.434 . S
C976 C967 1.429 . S
C976 N973 1.350 . S
C976 C975 1.434 . S
C977 C978 1.369 . S
C977 C979 1.419 1_655 S
C977 H981 0.930 . S
C978 C977 1.369 . S
C978 C987 1.429 1_655 S
C979 C977 1.419 1_455 S
C979 C980 1.363 . S
C979 H982 0.929 . S
C980 C979 1.363 . S
C980 C986 1.428 . S
H981 C977 0.930 . S
H982 C979 0.929 . S
S983 N984 1.613 . S
S983 N985 1.610 . S
N984 S983 1.613 . S
N984 C987 1.350 . S
N985 S983 1.610 . S
N985 C986 1.351 . S
C986 C980 1.428 . S
C986 N985 1.351 . S
C986 C987 1.434 . S
C987 C978 1.429 1_455 S
C987 N984 1.350 . S
C987 C986 1.434 . S
C988 C989 1.369 . S
C988 C990 1.419 . S
C988 H992 0.930 . S
C989 C988 1.369 . S
C989 C998 1.429 . S
C990 C988 1.419 . S
C990 C991 1.363 . S
C990 H993 0.929 . S
C991 C990 1.363 . S
C991 C997 1.428 . S
H992 C988 0.930 . S
H993 C990 0.929 . S
S994 N995 1.613 1_554 S
S994 N996 1.610 . S
N995 S994 1.613 1_556 S
N995 C998 1.350 . S
N996 S994 1.610 . S
N996 C997 1.351 1_554 S
C997 C991 1.428 . S
C997 N996 1.351 1_556 S
C997 C998 1.434 . S
C998 C989 1.429 . S
C998 N995 1.350 . S
C998 C997 1.434 . S
C999 C1000 1.369 . S
C999 C1001 1.419 1_655 S
C999 H1003 0.930 . S
C1000 C999 1.369 . S
C1000 C1009 1.429 . S
C1001 C999 1.419 1_455 S
C1001 C1002 1.363 . S
C1001 H1004 0.929 . S
C1002 C1001 1.363 . S
C1002 C1008 1.428 . S
H1003 C999 0.930 . S
H1004 C1001 0.929 . S
S1005 N1006 1.613 . S
S1005 N1007 1.610 1_655 S
N1006 S1005 1.613 . S
N1006 C1009 1.350 . S
N1007 S1005 1.610 1_455 S
N1007 C1008 1.351 . S
C1008 C1002 1.428 . S
C1008 N1007 1.351 . S
C1008 C1009 1.434 1_455 S
C1009 C1000 1.429 . S
C1009 N1006 1.350 . S
C1009 C1008 1.434 1_655 S
C1010 C1011 1.369 . S
C1010 C1012 1.419 . S
C1010 H1014 0.930 . S
C1011 C1010 1.369 . S
C1011 C1020 1.429 . S
C1012 C1010 1.419 . S
C1012 C1013 1.363 . S
C1012 H1015 0.929 . S
C1013 C1012 1.363 . S
C1013 C1019 1.428 . S
H1014 C1010 0.930 . S
H1015 C1012 0.929 . S
S1016 N1017 1.613 . S
S1016 N1018 1.610 . S
N1017 S1016 1.613 . S
N1017 C1020 1.350 . S
N1018 S1016 1.610 . S
N1018 C1019 1.351 . S
C1019 C1013 1.428 . S
C1019 N1018 1.351 . S
C1019 C1020 1.434 . S
C1020 C1011 1.429 . S
C1020 N1017 1.350 . S
C1020 C1019 1.434 . S
C1021 C1022 1.369 . S
C1021 C1023 1.419 . S
C1021 H1025 0.930 . S
C1022 C1021 1.369 . S
C1022 C1031 1.429 . S
C1023 C1021 1.419 . S
C1023 C1024 1.363 . S
C1023 H1026 0.929 . S
C1024 C1023 1.363 . S
C1024 C1030 1.428 . S
H1025 C1021 0.930 . S
H1026 C1023 0.929 . S
S1027 N1028 1.613 . S
S1027 N1029 1.610 . S
N1028 S1027 1.613 . S
N1028 C1031 1.350 . S
N1029 S1027 1.610 . S
N1029 C1030 1.351 . S
C1030 C1024 1.428 . S
C1030 N1029 1.351 . S
C1030 C1031 1.434 . S
C1031 C1022 1.429 . S
C1031 N1028 1.350 . S
C1031 C1030 1.434 . S
C1032 C1033 1.369 . S
C1032 C1034 1.419 . S
C1032 H1036 0.930 . S
C1033 C1032 1.369 . S
C1033 C1042 1.429 . S
C1034 C1032 1.419 . S
C1034 C1035 1.363 . S
C1034 H1037 0.929 . S
C1035 C1034 1.363 . S
C1035 C1041 1.428 . S
H1036 C1032 0.930 . S
H1037 C1034 0.929 . S
S1038 N1039 1.613 . S
S1038 N1040 1.610 . S
N1039 S1038 1.613 . S
N1039 C1042 1.350 . S
N1040 S1038 1.610 . S
N1040 C1041 1.351 . S
C1041 C1035 1.428 . S
C1041 N1040 1.351 . S
C1041 C1042 1.434 . S
C1042 C1033 1.429 . S
C1042 N1039 1.350 . S
C1042 C1041 1.434 . S
C1043 C1044 1.369 . S
C1043 C1045 1.419 . S
C1043 H1047 0.930 . S
C1044 C1043 1.369 . S
C1044 C1053 1.429 . S
C1045 C1043 1.419 . S
C1045 C1046 1.363 . S
C1045 H1048 0.929 . S
C1046 C1045 1.363 . S
C1046 C1052 1.428 . S
H1047 C1043 0.930 . S
H1048 C1045 0.929 . S
S1049 N1050 1.613 . S
S1049 N1051 1.610 . S
N1050 S1049 1.613 . S
N1050 C1053 1.350 . S
N1051 S1049 1.610 . S
N1051 C1052 1.351 . S
C1052 C1046 1.428 . S
C1052 N1051 1.351 . S
C1052 C1053 1.434 . S
C1053 C1044 1.429 . S
C1053 N1050 1.350 . S
C1053 C1052 1.434 . S
C1054 C1055 1.369 . S
C1054 C1056 1.419 . S
C1054 H1058 0.930 . S
C1055 C1054 1.369 . S
C1055 C1064 1.429 . S
C1056 C1054 1.419 . S
C1056 C1057 1.363 . S
C1056 H1059 0.929 . S
C1057 C1056 1.363 . S
C1057 C1063 1.428 . S
H1058 C1054 0.930 . S
H1059 C1056 0.929 . S
S1060 N1061 1.613 . S
S1060 N1062 1.610 . S
N1061 S1060 1.613 . S
N1061 C1064 1.350 . S
N1062 S1060 1.610 . S
N1062 C1063 1.351 . S
C1063 C1057 1.428 . S
C1063 N1062 1.351 . S
C1063 C1064 1.434 . S
C1064 C1055 1.429 . S
C1064 N1061 1.350 . S
C1064 C1063 1.434 . S
C1065 C1066 1.369 . S
C1065 C1067 1.419 1_455 S
C1065 H1069 0.930 . S
C1066 C1065 1.369 . S
C1066 C1075 1.429 . S
C1067 C1065 1.419 1_655 S
C1067 C1068 1.363 . S
C1067 H1070 0.929 . S
C1068 C1067 1.363 . S
C1068 C1074 1.428 . S
H1069 C1065 0.930 . S
H1070 C1067 0.929 . S
S1071 N1072 1.613 . S
S1071 N1073 1.610 1_455 S
N1072 S1071 1.613 . S
N1072 C1075 1.350 . S
N1073 S1071 1.610 1_655 S
N1073 C1074 1.351 . S
C1074 C1068 1.428 . S
C1074 N1073 1.351 . S
C1074 C1075 1.434 1_655 S
C1075 C1066 1.429 . S
C1075 N1072 1.350 . S
C1075 C1074 1.434 1_455 S
C1076 C1077 1.369 . S
C1076 C1078 1.419 . S
C1076 H1080 0.930 . S
C1077 C1076 1.369 . S
C1077 C1086 1.429 . S
C1078 C1076 1.419 . S
C1078 C1079 1.363 . S
C1078 H1081 0.929 . S
C1079 C1078 1.363 . S
C1079 C1085 1.428 . S
H1080 C1076 0.930 . S
H1081 C1078 0.929 . S
S1082 N1083 1.613 . S
S1082 N1084 1.610 . S
N1083 S1082 1.613 . S
N1083 C1086 1.350 . S
N1084 S1082 1.610 . S
N1084 C1085 1.351 . S
C1085 C1079 1.428 . S
C1085 N1084 1.351 . S
C1085 C1086 1.434 . S
C1086 C1077 1.429 . S
C1086 N1083 1.350 . S
C1086 C1085 1.434 . S
C1087 C1088 1.369 . S
C1087 C1089 1.419 1_655 S
C1087 H1091 0.930 . S
C1088 C1087 1.369 . S
C1088 C1097 1.429 . S
C1089 C1087 1.419 1_455 S
C1089 C1090 1.363 . S
C1089 H1092 0.929 . S
C1090 C1089 1.363 . S
C1090 C1096 1.428 1_455 S
H1091 C1087 0.930 . S
H1092 C1089 0.929 . S
S1093 N1094 1.613 1_554 S
S1093 N1095 1.610 . S
N1094 S1093 1.613 1_556 S
N1094 C1097 1.350 . S
N1095 S1093 1.610 . S
N1095 C1096 1.351 1_554 S
C1096 C1090 1.428 1_655 S
C1096 N1095 1.351 1_556 S
C1096 C1097 1.434 . S
C1097 C1088 1.429 . S
C1097 N1094 1.350 . S
C1097 C1096 1.434 . S
C1098 C1099 1.369 . S
C1098 C1100 1.419 . S
C1098 H1102 0.930 . S
C1099 C1098 1.369 . S
C1099 C1108 1.429 . S
C1100 C1098 1.419 . S
C1100 C1101 1.363 . S
C1100 H1103 0.929 . S
C1101 C1100 1.363 . S
C1101 C1107 1.428 . S
H1102 C1098 0.930 . S
H1103 C1100 0.929 . S
S1104 N1105 1.613 . S
S1104 N1106 1.610 . S
N1105 S1104 1.613 . S
N1105 C1108 1.350 . S
N1106 S1104 1.610 . S
N1106 C1107 1.351 . S
C1107 C1101 1.428 . S
C1107 N1106 1.351 . S
C1107 C1108 1.434 . S
C1108 C1099 1.429 . S
C1108 N1105 1.350 . S
C1108 C1107 1.434 . S
C1109 C1110 1.369 . S
C1109 C1111 1.419 . S
C1109 H1113 0.930 . S
C1110 C1109 1.369 . S
C1110 C1119 1.429 . S
C1111 C1109 1.419 . S
C1111 C1112 1.363 . S
C1111 H1114 0.929 . S
C1112 C1111 1.363 . S
C1112 C1118 1.428 . S
H1113 C1109 0.930 . S
H1114 C1111 0.929 . S
S1115 N1116 1.613 . S
S1115 N1117 1.610 . S
N1116 S1115 1.613 . S
N1116 C1119 1.350 . S
N1117 S1115 1.610 . S
N1117 C1118 1.351 . S
C1118 C1112 1.428 . S
C1118 N1117 1.351 . S
C1118 C1119 1.434 . S
C1119 C1110 1.429 . S
C1119 N1116 1.350 . S
C1119 C1118 1.434 . S
C417 C88 1.369 . S
C419 C10 1.367 . S
C428 C23 1.362 . S
C430 C101 1.363 . S
C439 C62 1.366 . S
C441 C36 1.366 . S
C450 C49 1.368 . S
C452 C75 1.367 . S
C461 C192 1.360 . S
C463 C114 1.361 . S
C472 C127 1.363 . S
C474 C205 1.363 . S
C483 C166 1.367 . S
C485 C140 1.367 . S
C494 C153 1.365 . S
C496 C179 1.365 . S
C505 C218 1.363 . S
C507 C296 1.363 . S
C516 C309 1.360 . S
C518 C231 1.361 . S
C527 C244 1.368 . S
C529 C270 1.367 . S
C538 C283 1.366 . S
C540 C257 1.366 . S
C549 C400 1.363 . S
C551 C322 1.363 . S
C560 C413 1.365 . S
C562 C335 1.365 . S
C571 C374 1.369 . S
C573 C348 1.368 . S
C582 C361 1.365 . S
C584 C387 1.365 . S
C593 C91 1.574 1_554 S
C595 C0 1.570 . S
C604 C52 1.565 . S
C606 C13 1.575 . S
C615 C65 1.567 . S
C617 C26 1.574 . S
C626 C78 1.576 . S
C628 C39 1.568 1_556 S
C637 C195 1.564 1_556 S
C639 C104 1.575 . S
C648 C156 1.566 . S
C650 C117 1.575 . S
C659 C169 1.573 . S
C661 C130 1.570 . S
C670 C143 1.575 1_554 S
C672 C182 1.565 . S
C681 C299 1.566 . S
C683 C208 1.571 . S
C692 C221 1.574 1_556 S
C694 C260 1.566 . S
C703 C234 1.567 . S
C705 C273 1.574 1_554 S
C714 C286 1.571 . S
C716 C247 1.566 . S
C725 C403 1.566 . S
C727 C312 1.575 . S
C736 C325 1.567 1_554 S
C738 C364 1.574 . S
C747 C338 1.567 . S
C749 C377 1.574 1_556 S
C758 C390 1.565 . S
C760 C351 1.575 . S
C769 C8 1.202 . S
C771 C395 1.139 . S
C780 C200 1.124 . S
C782 C21 1.217 . S
C791 C369 1.144 . S
C793 C34 1.208 . S
C802 C174 1.143 . S
C804 C47 1.205 . S
C813 C343 1.130 . S
C815 C60 1.217 . S
C824 C73 1.214 . S
C826 C148 1.137 . S
C835 C86 1.219 . S
C837 C317 1.128 . S
C846 C99 1.217 . S
C848 C122 1.133 . S
C857 C112 1.214 . S
C859 C291 1.134 . S
C868 C96 1.138 . S
C870 C125 1.205 . S
C879 C265 1.124 . S
C881 C138 1.217 . S
C890 C70 1.132 . S
C892 C151 1.208 . S
C901 C239 1.142 . S
C903 C164 1.204 . S
C912 C44 1.143 . S
C914 C177 1.205 . S
C923 C190 1.209 . S
C925 C213 1.131 . S
C934 C18 1.124 . S
C936 C203 1.215 . S
C945 C187 1.123 . S
C947 C216 1.216 . S
C956 C408 1.124 . S
C958 C229 1.213 . S
C967 C242 1.207 . S
C969 C161 1.141 . S
C978 C255 1.203 . S
C980 C382 1.138 . S
C989 C268 1.218 . S
C991 C135 1.131 . S
C1000 C281 1.211 . S
C1002 C356 1.139 . S
C1011 C294 1.204 . S
C1013 C109 1.136 . S
C1022 C307 1.217 . S
C1024 C330 1.133 . S
C1033 C83 1.134 . S
C1035 C320 1.207 . S
C1044 C304 1.133 . S
C1046 C333 1.208 . S
C1055 C57 1.134 . S
C1057 C346 1.214 . S
C1066 C359 1.219 . S
C1068 C278 1.127 . S
C1077 C372 1.203 . S
C1079 C31 1.142 . S
C1088 C252 1.139 . S
C1090 C385 1.205 . S
C1099 C398 1.219 . S
C1101 C5 1.127 . S
C1110 C411 1.207 . S
C1112 C226 1.133 . S
