# Generated by pormake.
# Topology wji, (4)-cn, num edge types: 1
# Building blocks:
#     Node 0, Type 0, BuildingBlock: AZAVOO_clean_sbu_0, # of connection points: 4
#     Node 1, Type 0, BuildingBlock: AZAVOO_clean_sbu_0, # of connection points: 4
#     Node 2, Type 0, BuildingBlock: AZAVOO_clean_sbu_0, # of connection points: 4
#     Node 3, Type 0, BuildingBlock: AZAVOO_clean_sbu_0, # of connection points: 4
#     Node 4, Type 0, BuildingBlock: AZAVOO_clean_sbu_0, # of connection points: 4
#     Node 5, Type 0, BuildingBlock: AZAVOO_clean_sbu_0, # of connection points: 4
#     Node 6, Type 0, BuildingBlock: AZAVOO_clean_sbu_0, # of connection points: 4
#     Node 7, Type 0, BuildingBlock: AZAVOO_clean_sbu_0, # of connection points: 4
#     Node 8, Type 0, BuildingBlock: AZAVOO_clean_sbu_0, # of connection points: 4
#     Node 9, Type 0, BuildingBlock: AZAVOO_clean_sbu_0, # of connection points: 4
#     Node 10, Type 0, BuildingBlock: AZAVOO_clean_sbu_0, # of connection points: 4
#     Node 11, Type 0, BuildingBlock: AZAVOO_clean_sbu_0, # of connection points: 4
#     Edge 12, Type (0, 0), BuildingBlock: MIFKUJ_clean_linker_0, # of connection points: 2
#     Edge 13, Type (0, 0), BuildingBlock: MIFKUJ_clean_linker_0, # of connection points: 2
#     Edge 14, Type (0, 0), BuildingBlock: MIFKUJ_clean_linker_0, # of connection points: 2
#     Edge 15, Type (0, 0), BuildingBlock: MIFKUJ_clean_linker_0, # of connection points: 2
#     Edge 16, Type (0, 0), BuildingBlock: MIFKUJ_clean_linker_0, # of connection points: 2
#     Edge 17, Type (0, 0), BuildingBlock: MIFKUJ_clean_linker_0, # of connection points: 2
#     Edge 18, Type (0, 0), BuildingBlock: MIFKUJ_clean_linker_0, # of connection points: 2
#     Edge 19, Type (0, 0), BuildingBlock: MIFKUJ_clean_linker_0, # of connection points: 2
#     Edge 20, Type (0, 0), BuildingBlock: MIFKUJ_clean_linker_0, # of connection points: 2
#     Edge 21, Type (0, 0), BuildingBlock: MIFKUJ_clean_linker_0, # of connection points: 2
#     Edge 22, Type (0, 0), BuildingBlock: MIFKUJ_clean_linker_0, # of connection points: 2
#     Edge 23, Type (0, 0), BuildingBlock: MIFKUJ_clean_linker_0, # of connection points: 2
#     Edge 24, Type (0, 0), BuildingBlock: MIFKUJ_clean_linker_0, # of connection points: 2
#     Edge 25, Type (0, 0), BuildingBlock: MIFKUJ_clean_linker_0, # of connection points: 2
#     Edge 26, Type (0, 0), BuildingBlock: MIFKUJ_clean_linker_0, # of connection points: 2
#     Edge 27, Type (0, 0), BuildingBlock: MIFKUJ_clean_linker_0, # of connection points: 2
#     Edge 28, Type (0, 0), BuildingBlock: MIFKUJ_clean_linker_0, # of connection points: 2
#     Edge 29, Type (0, 0), BuildingBlock: MIFKUJ_clean_linker_0, # of connection points: 2
#     Edge 30, Type (0, 0), BuildingBlock: MIFKUJ_clean_linker_0, # of connection points: 2
#     Edge 31, Type (0, 0), BuildingBlock: MIFKUJ_clean_linker_0, # of connection points: 2
#     Edge 32, Type (0, 0), BuildingBlock: MIFKUJ_clean_linker_0, # of connection points: 2
#     Edge 33, Type (0, 0), BuildingBlock: MIFKUJ_clean_linker_0, # of connection points: 2
#     Edge 34, Type (0, 0), BuildingBlock: MIFKUJ_clean_linker_0, # of connection points: 2
#     Edge 35, Type (0, 0), BuildingBlock: MIFKUJ_clean_linker_0, # of connection points: 2
# Relax obj value: 0.180
# Max RMSD: 0.104
# Mean RMSD: 0.104
data_MOF--net-wji--node1-AZAVOO_clean_sbu_0--edge1-MIFKUJ_clean_linker_0
_symmetry_space_group_name_H-M    P1
_symmetry_Int_Tables_number       1
_symmetry_cell_setting            triclinic
loop_
_symmetry_equiv_pos_as_xyz
'x, y, z'
_cell_length_a     75.032781
_cell_length_b     75.040644
_cell_length_c     28.297809
_cell_angle_alpha  90.016856
_cell_angle_beta   89.996856
_cell_angle_gamma 119.9867
loop_
_atom_site_label
_atom_site_type_symbol
_atom_site_fract_x
_atom_site_fract_y
_atom_site_fract_z
_atom_type_partial_charge
Mg0 Mg 0.4151 0.31923 0.38017 0.0
O1 O 0.40027 0.3293 0.43774 0.0
O2 O 0.39531 0.35411 0.40815 0.0
Mg3 Mg 0.40858 0.36109 0.33322 0.0
C4 C 0.39391 0.34217 0.44188 0.0
C5 C 0.41247 0.28089 0.42259 0.0
O6 O 0.40243 0.27465 0.38243 0.0
O7 O 0.44615 0.3479 0.3955 0.0
O8 O 0.44063 0.37226 0.36511 0.0
O9 O 0.38402 0.29753 0.34926 0.0
O10 O 0.40358 0.32984 0.32724 0.0
C11 C 0.45222 0.36673 0.38591 0.0
C12 C 0.38655 0.31276 0.32316 0.0
O13 O 0.42055 0.29978 0.43371 0.0
Mg14 Mg 0.09156 0.41031 0.5498 0.0
O15 O 0.06818 0.39695 0.61093 0.0
O16 O 0.03788 0.39163 0.58411 0.0
Mg17 Mg 0.04178 0.40156 0.50662 0.0
C18 C 0.04913 0.39099 0.61719 0.0
C19 C 0.13518 0.42256 0.58537 0.0
O20 O 0.13769 0.42239 0.53945 0.0
O21 O 0.09354 0.44156 0.55939 0.0
O22 O 0.06326 0.43493 0.52965 0.0
O23 O 0.0829 0.37858 0.52482 0.0
O24 O 0.06765 0.3958 0.5017 0.0
C25 C 0.08073 0.44732 0.54793 0.0
C26 C 0.06836 0.37901 0.50119 0.0
O27 O 0.11778 0.41871 0.6013 0.0
Mg28 Mg 0.68446 0.0951 0.71326 0.0
O29 O 0.67303 0.06868 0.76721 0.0
O30 O 0.64756 0.04046 0.7333 0.0
Mg31 Mg 0.64337 0.04862 0.65776 0.0
C32 C 0.6592 0.04966 0.76854 0.0
C33 C 0.72047 0.13228 0.75921 0.0
O34 O 0.72748 0.13137 0.71726 0.0
O35 O 0.65558 0.09755 0.72594 0.0
O36 O 0.63177 0.06905 0.68954 0.0
O37 O 0.70673 0.08611 0.68423 0.0
O38 O 0.67506 0.07442 0.65792 0.0
C39 C 0.63702 0.08555 0.7128 0.0
C40 C 0.69201 0.07411 0.65596 0.0
O41 O 0.70224 0.11872 0.77034 0.0
Mg42 Mg 0.58587 0.68138 0.8827 0.0
O43 O 0.60147 0.67131 0.9381 0.0
O44 O 0.6078 0.64788 0.90572 0.0
Mg45 Mg 0.59503 0.64208 0.83025 0.0
C46 C 0.60856 0.659 0.94068 0.0
C47 C 0.57245 0.71034 0.92675 0.0
O48 O 0.56926 0.71168 0.88156 0.0
O49 O 0.55547 0.65153 0.89489 0.0
O50 O 0.56243 0.6288 0.86061 0.0
O51 O 0.61665 0.7048 0.85286 0.0
O52 O 0.59822 0.67273 0.82802 0.0
C53 C 0.55016 0.63315 0.88245 0.0
C54 C 0.61476 0.69029 0.82489 0.0
O55 O 0.57897 0.6984 0.93968 0.0
Mg56 Mg 0.90432 0.58699 0.04984 0.0
O57 O 0.93042 0.60164 0.10446 0.0
O58 O 0.95971 0.60729 0.07065 0.0
Mg59 Mg 0.95173 0.59417 0.99565 0.0
C60 C 0.94976 0.60832 0.10616 0.0
C61 C 0.86316 0.57716 0.09363 0.0
O62 O 0.85956 0.5766 0.04805 0.0
O63 O 0.90247 0.55597 0.06135 0.0
O64 O 0.93196 0.56191 0.02767 0.0
O65 O 0.91295 0.6183 0.02197 0.0
O66 O 0.92515 0.59886 0.99479 0.0
C67 C 0.9152 0.55013 0.04958 0.0
C68 C 0.92514 0.61598 0.99346 0.0
O69 O 0.88079 0.5808 0.10733 0.0
Mg70 Mg 0.31642 0.90671 0.22068 0.0
O71 O 0.32795 0.93344 0.27358 0.0
O72 O 0.35174 0.96215 0.2382 0.0
Mg73 Mg 0.35603 0.95348 0.16309 0.0
C74 C 0.34084 0.95273 0.27424 0.0
C75 C 0.28798 0.86522 0.26733 0.0
O76 O 0.28687 0.86036 0.22239 0.0
O77 O 0.34584 0.90516 0.23186 0.0
O78 O 0.36868 0.93373 0.19407 0.0
O79 O 0.29332 0.91467 0.19151 0.0
O80 O 0.32489 0.92676 0.16433 0.0
C81 C 0.36414 0.91741 0.21742 0.0
C82 C 0.30765 0.92647 0.16219 0.0
O83 O 0.29965 0.88382 0.27959 0.0
Mg84 Mg 0.6853 0.59084 0.45482 0.0
O85 O 0.67402 0.60432 0.39686 0.0
O86 O 0.64996 0.61008 0.42766 0.0
Mg87 Mg 0.64507 0.59917 0.50463 0.0
C88 C 0.66109 0.6106 0.39295 0.0
C89 C 0.71839 0.58279 0.4157 0.0
O90 O 0.72269 0.58585 0.46102 0.0
O91 O 0.6561 0.55944 0.44599 0.0
O92 O 0.63283 0.56613 0.47822 0.0
O93 O 0.70796 0.62275 0.4802 0.0
O94 O 0.67629 0.60382 0.50739 0.0
C95 C 0.63764 0.5538 0.45836 0.0
C96 C 0.69344 0.6209 0.50804 0.0
O97 O 0.70285 0.58345 0.40016 0.0
Mg98 Mg 0.09605 0.68346 0.6201 0.0
O99 O 0.07215 0.6738 0.55983 0.0
O100 O 0.04215 0.64873 0.58806 0.0
Mg101 Mg 0.04684 0.64176 0.66403 0.0
C102 C 0.05299 0.66075 0.55471 0.0
C103 C 0.13681 0.71901 0.58526 0.0
O104 O 0.13588 0.72398 0.62936 0.0
O105 O 0.09813 0.65448 0.60686 0.0
O106 O 0.06781 0.63019 0.63527 0.0
O107 O 0.08739 0.70611 0.64798 0.0
O108 O 0.07246 0.67343 0.66919 0.0
C109 C 0.08519 0.63567 0.61598 0.0
C110 C 0.07304 0.69086 0.6713 0.0
O111 O 0.12225 0.7022 0.56913 0.0
Mg112 Mg 0.41429 0.09711 0.79027 0.0
O113 O 0.39965 0.07324 0.73031 0.0
O114 O 0.39341 0.04262 0.75684 0.0
Mg115 Mg 0.40571 0.04722 0.83229 0.0
C116 C 0.39276 0.05402 0.72421 0.0
C117 C 0.40733 0.12124 0.71058 0.0
O118 O 0.38953 0.10405 0.71078 0.0
O119 O 0.4452 0.09886 0.77645 0.0
O120 O 0.43835 0.0681 0.8038 0.0
O121 O 0.38312 0.08832 0.8197 0.0
O122 O 0.40135 0.07389 0.84046 0.0
C123 C 0.45063 0.08553 0.78514 0.0
C124 C 0.38458 0.07452 0.84413 0.0
O125 O 0.42136 0.12316 0.73881 0.0
Mg126 Mg 0.3138 0.4105 0.94818 0.0
O127 O 0.32553 0.39626 0.8931 0.0
O128 O 0.34938 0.391 0.92699 0.0
Mg129 Mg 0.35363 0.40289 0.00308 0.0
C130 C 0.33855 0.39003 0.89124 0.0
C131 C 0.28106 0.41794 0.90516 0.0
O132 O 0.27647 0.41531 0.95038 0.0
O133 O 0.3431 0.4416 0.93798 0.0
O134 O 0.36619 0.43539 0.97305 0.0
O135 O 0.29095 0.37897 0.97523 0.0
O136 O 0.32244 0.39835 0.00314 0.0
C137 C 0.36151 0.44737 0.95104 0.0
C138 C 0.3053 0.38128 0.00421 0.0
O139 O 0.29671 0.41715 0.89093 0.0
Mg140 Mg 0.90246 0.31484 0.12219 0.0
O141 O 0.92898 0.32551 0.06914 0.0
O142 O 0.95837 0.34801 0.10445 0.0
Mg143 Mg 0.95011 0.35299 0.17946 0.0
C144 C 0.94845 0.33751 0.06838 0.0
C145 C 0.8604 0.28984 0.07385 0.0
O146 O 0.85514 0.29152 0.11721 0.0
O147 O 0.90237 0.34499 0.11113 0.0
O148 O 0.93158 0.36702 0.1481 0.0
O149 O 0.90924 0.29088 0.15067 0.0
O150 O 0.92241 0.32249 0.1787 0.0
C151 C 0.91538 0.36316 0.12503 0.0
C152 C 0.92132 0.30487 0.18032 0.0
O153 O 0.87938 0.29863 0.06326 0.0
Mg154 Mg 0.58636 0.90363 0.28181 0.0
O155 O 0.60036 0.92744 0.22142 0.0
O156 O 0.60428 0.95717 0.24903 0.0
Mg157 Mg 0.59396 0.95284 0.32612 0.0
C158 C 0.6057 0.94639 0.21585 0.0
C159 C 0.58051 0.86263 0.24608 0.0
O160 O 0.58657 0.86333 0.28996 0.0
O161 O 0.55513 0.90149 0.27038 0.0
O162 O 0.56106 0.93157 0.30021 0.0
O163 O 0.61782 0.91228 0.30846 0.0
O164 O 0.60023 0.9273 0.33052 0.0
C165 C 0.54911 0.91419 0.28101 0.0
C166 C 0.61707 0.92668 0.33198 0.0
O167 O 0.57844 0.87738 0.23059 0.0
H168 H 0.28447 0.33936 0.99057 0.0
H169 H 0.28478 0.31341 0.04371 0.0
H170 H 0.3208 0.36118 0.14459 0.0
H171 H 0.32103 0.38686 0.0917 0.0
H172 H 0.32239 0.31575 0.07276 0.0
H173 H 0.30573 0.34287 0.25344 0.0
H174 H 0.28098 0.35235 0.28498 0.0
H175 H 0.23805 0.31744 0.17531 0.0
H176 H 0.26238 0.30745 0.14348 0.0
H177 H 0.39154 0.33868 0.25135 0.0
H178 H 0.36593 0.33614 0.1949 0.0
H179 H 0.31979 0.28049 0.26215 0.0
H180 H 0.34569 0.28278 0.31914 0.0
H181 H 0.30809 0.31124 0.2449 0.0
H182 H 0.33154 0.27316 0.15934 0.0
H183 H 0.35682 0.26438 0.12779 0.0
H184 H 0.38521 0.3202 0.04671 0.0
H185 H 0.36033 0.3295 0.07829 0.0
C186 C 0.29208 0.34412 0.02452 0.0
C187 C 0.30284 0.36503 0.03712 0.0
C188 C 0.29224 0.32936 0.05472 0.0
C189 C 0.30258 0.33538 0.09828 0.0
C190 C 0.31243 0.35616 0.11153 0.0
C191 C 0.3127 0.37083 0.08113 0.0
C192 C 0.30585 0.32104 0.12794 0.0
C193 C 0.31884 0.31421 0.11021 0.0
C194 C 0.30073 0.3186 0.17653 0.0
C195 C 0.28592 0.32438 0.19605 0.0
C196 C 0.29094 0.33703 0.23626 0.0
C197 C 0.277 0.34255 0.25414 0.0
C198 C 0.25796 0.3355 0.23217 0.0
C199 C 0.25281 0.32291 0.19227 0.0
C200 C 0.26669 0.31734 0.17425 0.0
C201 C 0.37597 0.32587 0.2543 0.0
C202 C 0.3706 0.31097 0.2898 0.0
C203 C 0.36139 0.32434 0.22172 0.0
C204 C 0.34107 0.30797 0.224 0.0
C205 C 0.33547 0.29312 0.25965 0.0
C206 C 0.35024 0.29447 0.29209 0.0
C207 C 0.32587 0.30757 0.19011 0.0
C208 C 0.31081 0.31177 0.20716 0.0
C209 C 0.32904 0.30755 0.14084 0.0
C210 C 0.344 0.30201 0.1212 0.0
C211 C 0.34323 0.28362 0.13494 0.0
C212 C 0.35749 0.27854 0.11704 0.0
C213 C 0.3726 0.29171 0.08524 0.0
C214 C 0.37347 0.30998 0.07126 0.0
C215 C 0.35925 0.31514 0.08907 0.0
H216 H 0.38364 0.28776 0.07145 0.0
H217 H 0.24719 0.3398 0.24605 0.0
H218 H 0.0275 0.36551 0.49608 0.0
H219 H 0.0024 0.33912 0.44424 0.0
H220 H 0.04824 0.32443 0.39681 0.0
H221 H 0.07381 0.35152 0.44874 0.0
H222 H 0.0295 0.33149 0.32344 0.0
H223 H 0.00624 0.28756 0.45498 0.0
H224 H 0.99692 0.27741 0.53814 0.0
H225 H 0.94718 0.28996 0.52705 0.0
H226 H 0.95635 0.30049 0.44408 0.0
H227 H 0.94028 0.28175 0.1704 0.0
H228 H 0.96447 0.28003 0.22686 0.0
H229 H 0.95406 0.31816 0.32424 0.0
H230 H 0.93069 0.3204 0.26807 0.0
H231 H 0.95667 0.2844 0.36776 0.0
H232 H 0.99153 0.34138 0.25152 0.0
H233 H 0.00077 0.35319 0.16911 0.0
H234 H 0.02859 0.31552 0.15323 0.0
H235 H 0.01918 0.30324 0.23541 0.0
C236 C 0.03225 0.35665 0.47484 0.0
C237 C 0.05265 0.36082 0.4756 0.0
C238 C 0.01779 0.34127 0.44575 0.0
C239 C 0.02336 0.32962 0.4169 0.0
C240 C 0.04358 0.33315 0.41903 0.0
C241 C 0.05811 0.34853 0.44869 0.0
C242 C 0.0085 0.31582 0.38088 0.0
C243 C 0.01373 0.32053 0.33305 0.0
C244 C 0.98792 0.30147 0.39328 0.0
C245 C 0.98199 0.29478 0.44308 0.0
C246 C 0.99334 0.28822 0.47026 0.0
C247 C 0.98809 0.2824 0.51742 0.0
C248 C 0.97146 0.28303 0.53786 0.0
C249 C 0.96002 0.28943 0.51114 0.0
C250 C 0.96521 0.29527 0.46396 0.0
C251 C 0.94297 0.28942 0.20426 0.0
C252 C 0.93386 0.30136 0.21494 0.0
C253 C 0.95667 0.28838 0.23638 0.0
C254 C 0.9609 0.29887 0.27974 0.0
C255 C 0.95084 0.30979 0.2912 0.0
C256 C 0.93765 0.31122 0.25892 0.0
C257 C 0.97759 0.30113 0.31131 0.0
C258 C 0.97267 0.29435 0.35817 0.0
C259 C 0.99844 0.31353 0.29814 0.0
C260 C 0.00446 0.32123 0.24926 0.0
C261 C 0.99951 0.33554 0.23032 0.0
C262 C 0.00478 0.34232 0.1837 0.0
C263 C 0.01521 0.33507 0.15591 0.0
C264 C 0.02046 0.32108 0.17476 0.0
C265 C 0.01515 0.3142 0.22133 0.0
H266 H 0.01927 0.34032 0.11981 0.0
H267 H 0.96745 0.27856 0.57441 0.0
H268 H 0.64475 0.9211 0.38328 0.0
H269 H 0.67109 0.94602 0.43747 0.0
H270 H 0.65561 0.99183 0.39465 0.0
H271 H 0.62982 0.96732 0.34059 0.0
H272 H 0.6968 0.0089 0.40952 0.0
H273 H 0.63177 0.96023 0.48918 0.0
H274 H 0.60554 0.92537 0.51464 0.0
H275 H 0.65206 0.91791 0.58526 0.0
H276 H 0.6786 0.95269 0.55971 0.0
H277 H 0.67222 0.06031 0.57303 0.0
H278 H 0.67372 0.03594 0.5186 0.0
H279 H 0.71704 0.03095 0.60988 0.0
H280 H 0.7161 0.05615 0.66452 0.0
H281 H 0.67657 0.99161 0.5775 0.0
H282 H 0.73798 0.04796 0.51999 0.0
H283 H 0.76139 0.08388 0.49608 0.0
H284 H 0.72006 0.0779 0.38429 0.0
H285 H 0.69622 0.04206 0.40796 0.0
C286 C 0.64736 0.93665 0.38488 0.0
C287 C 0.63493 0.9422 0.3588 0.0
C288 C 0.66234 0.95082 0.41579 0.0
C289 C 0.66514 0.9707 0.42045 0.0
C290 C 0.65371 0.97658 0.39174 0.0
C291 C 0.63871 0.96245 0.36136 0.0
C292 C 0.67791 0.98487 0.45858 0.0
C293 C 0.69271 0.00508 0.44639 0.0
C294 C 0.67305 0.97971 0.50681 0.0
C295 C 0.65716 0.95887 0.52202 0.0
C296 C 0.6364 0.95108 0.50985 0.0
C297 C 0.62149 0.93136 0.52432 0.0
C298 C 0.62714 0.9194 0.5514 0.0
C299 C 0.64772 0.92717 0.56416 0.0
C300 C 0.6627 0.94686 0.54968 0.0
C301 C 0.68223 0.05419 0.58142 0.0
C302 C 0.694 0.06002 0.62297 0.0
C303 C 0.68315 0.04038 0.55019 0.0
C304 C 0.6956 0.03183 0.56017 0.0
C305 C 0.70749 0.03758 0.60156 0.0
C306 C 0.70694 0.05191 0.63255 0.0
C307 C 0.69449 0.01583 0.528 0.0
C308 C 0.68171 0.99524 0.54111 0.0
C309 C 0.70101 0.02071 0.48058 0.0
C310 C 0.71529 0.04227 0.46583 0.0
C311 C 0.73381 0.05433 0.49049 0.0
C312 C 0.74717 0.07469 0.47694 0.0
C313 C 0.74222 0.08316 0.43868 0.0
C314 C 0.72389 0.0713 0.41387 0.0
C315 C 0.71047 0.05094 0.42728 0.0
H316 H 0.75258 0.09892 0.42825 0.0
H317 H 0.61558 0.90415 0.56261 0.0
H318 H 0.71607 0.66277 0.4937 0.0
H319 H 0.71664 0.68967 0.54512 0.0
H320 H 0.67708 0.64299 0.64455 0.0
H321 H 0.67596 0.6164 0.59332 0.0
H322 H 0.67907 0.68956 0.57262 0.0
H323 H 0.69398 0.66126 0.75355 0.0
H324 H 0.71765 0.65038 0.78519 0.0
H325 H 0.76119 0.68393 0.67549 0.0
H326 H 0.73796 0.69531 0.64356 0.0
H327 H 0.60989 0.66658 0.74881 0.0
H328 H 0.63562 0.67017 0.69173 0.0
H329 H 0.68178 0.72399 0.76487 0.0
H330 H 0.65566 0.72061 0.82274 0.0
H331 H 0.6931 0.69362 0.74484 0.0
H332 H 0.6713 0.73309 0.66017 0.0
H333 H 0.64682 0.74296 0.62866 0.0
H334 H 0.61762 0.68772 0.54553 0.0
H335 H 0.64168 0.67734 0.57704 0.0
C336 C 0.70777 0.65842 0.52689 0.0
C337 C 0.69586 0.63758 0.53957 0.0
C338 C 0.70813 0.67372 0.55611 0.0
C339 C 0.69713 0.66829 0.59885 0.0
C340 C 0.68594 0.64753 0.61209 0.0
C341 C 0.68517 0.63234 0.58262 0.0
C342 C 0.6949 0.68342 0.62797 0.0
C343 C 0.68258 0.69102 0.61008 0.0
C344 C 0.70004 0.6858 0.67654 0.0
C345 C 0.71419 0.67918 0.69615 0.0
C346 C 0.70868 0.6665 0.73639 0.0
C347 C 0.72201 0.66019 0.75432 0.0
C348 C 0.74091 0.66646 0.73237 0.0
C349 C 0.74653 0.67906 0.69243 0.0
C350 C 0.73328 0.68543 0.67436 0.0
C351 C 0.62547 0.67927 0.75285 0.0
C352 C 0.63079 0.69325 0.79043 0.0
C353 C 0.64013 0.68142 0.71985 0.0
C354 C 0.66052 0.69753 0.72365 0.0
C355 C 0.66604 0.7116 0.76112 0.0
C356 C 0.65116 0.70963 0.79407 0.0
C357 C 0.67587 0.69807 0.68995 0.0
C358 C 0.69048 0.69324 0.70707 0.0
C359 C 0.67287 0.69827 0.64062 0.0
C360 C 0.6584 0.70448 0.62093 0.0
C361 C 0.65962 0.72301 0.63529 0.0
C362 C 0.64581 0.72869 0.61742 0.0
C363 C 0.6307 0.71599 0.58507 0.0
C364 C 0.62938 0.69758 0.57049 0.0
C365 C 0.64315 0.69182 0.58826 0.0
H366 H 0.62 0.72041 0.57131 0.0
H367 H 0.75119 0.66154 0.7463 0.0
H368 H 0.07846 0.72379 0.72376 0.0
H369 H 0.05337 0.7249 0.77802 0.0
H370 H 0.00775 0.66382 0.73345 0.0
H371 H 0.03238 0.66292 0.67922 0.0
H372 H 0.99046 0.68746 0.74893 0.0
H373 H 0.03948 0.6716 0.82899 0.0
H374 H 0.07443 0.68063 0.85479 0.0
H375 H 0.08102 0.73422 0.92566 0.0
H376 H 0.04615 0.72557 0.89979 0.0
H377 H 0.93914 0.61069 0.91013 0.0
H378 H 0.96346 0.63696 0.85648 0.0
H379 H 0.96788 0.68453 0.94953 0.0
H380 H 0.94273 0.65796 0.00343 0.0
H381 H 0.00746 0.68422 0.91698 0.0
H382 H 0.95068 0.68849 0.8591 0.0
H383 H 0.91473 0.67551 0.83474 0.0
H384 H 0.92172 0.64098 0.72249 0.0
H385 H 0.95762 0.65347 0.74659 0.0
C386 C 0.06292 0.71083 0.72502 0.0
C387 C 0.05746 0.69301 0.69838 0.0
C388 C 0.04865 0.71146 0.75599 0.0
C389 C 0.02877 0.69434 0.76018 0.0
C390 C 0.023 0.6772 0.73095 0.0
C391 C 0.03721 0.67653 0.70047 0.0
C392 C 0.01446 0.69272 0.79822 0.0
C393 C 0.99421 0.68712 0.78582 0.0
C394 C 0.01952 0.69294 0.84651 0.0
C395 C 0.0404 0.69812 0.86196 0.0
C396 C 0.04846 0.68538 0.8498 0.0
C397 C 0.06823 0.69041 0.86447 0.0
C398 C 0.07997 0.70804 0.8917 0.0
C399 C 0.07193 0.72062 0.90444 0.0
C400 C 0.05218 0.71567 0.88978 0.0
C401 C 0.94511 0.62673 0.91907 0.0
C402 C 0.93913 0.63233 0.96091 0.0
C403 C 0.9589 0.6417 0.88828 0.0
C404 C 0.96729 0.66261 0.89898 0.0
C405 C 0.96138 0.66842 0.94066 0.0
C406 C 0.94707 0.6533 0.97122 0.0
C407 C 0.98329 0.67777 0.8672 0.0
C408 C 0.00388 0.68578 0.88059 0.0
C409 C 0.97848 0.6795 0.81977 0.0
C410 C 0.9569 0.67196 0.80471 0.0
C411 C 0.94453 0.67804 0.82938 0.0
C412 C 0.92415 0.67077 0.81559 0.0
C413 C 0.91595 0.65744 0.77708 0.0
C414 C 0.92811 0.65135 0.75226 0.0
C415 C 0.9485 0.65856 0.76591 0.0
H416 H 0.90017 0.65182 0.76647 0.0
H417 H 0.09526 0.71191 0.90304 0.0
H418 H 0.38481 0.04532 0.90031 0.0
H419 H 0.35731 0.02021 0.94969 0.0
H420 H 0.31854 0.04488 0.90931 0.0
H421 H 0.34614 0.07006 0.85765 0.0
H422 H 0.32865 0.03513 0.02325 0.0
H423 H 0.29485 0.00731 0.87489 0.0
H424 H 0.29442 0.99941 0.79015 0.0
H425 H 0.32082 0.96148 0.82119 0.0
H426 H 0.32172 0.96941 0.90603 0.0
H427 H 0.28096 0.94173 0.1653 0.0
H428 H 0.27925 0.96574 0.10833 0.0
H429 H 0.32649 0.96418 0.02446 0.0
H430 H 0.32845 0.94081 0.0807 0.0
H431 H 0.29445 0.9625 0.96969 0.0
H432 H 0.34006 0.00092 0.10439 0.0
H433 H 0.34539 0.00982 0.18917 0.0
H434 H 0.29947 0.02798 0.18381 0.0
H435 H 0.29371 0.01891 0.09907 0.0
C436 C 0.37042 0.04535 0.90105 0.0
C437 C 0.36757 0.05949 0.87424 0.0
C438 C 0.35475 0.03107 0.92973 0.0
C439 C 0.33596 0.0307 0.93286 0.0
C440 C 0.33299 0.04496 0.90706 0.0
C441 C 0.34872 0.05925 0.87761 0.0
C442 C 0.31986 0.01484 0.96319 0.0
C443 C 0.32024 0.01924 0.01147 0.0
C444 C 0.30922 0.99419 0.9477 0.0
C445 C 0.30836 0.98899 0.89683 0.0
C446 C 0.30066 0.99737 0.86361 0.0
C447 C 0.30033 0.99287 0.81556 0.0
C448 C 0.30759 0.97995 0.80029 0.0
C449 C 0.31517 0.97146 0.83307 0.0
C450 C 0.31555 0.97592 0.88117 0.0
C451 C 0.29075 0.94639 0.13434 0.0
C452 C 0.30498 0.93962 0.12755 0.0
C453 C 0.28972 0.96001 0.10189 0.0
C454 C 0.30266 0.9666 0.06208 0.0
C455 C 0.31622 0.95913 0.05465 0.0
C456 C 0.31747 0.94593 0.08712 0.0
C457 C 0.30411 0.98278 0.02983 0.0
C458 C 0.30131 0.97836 0.98132 0.0
C459 C 0.31267 0.0034 0.04512 0.0
C460 C 0.31628 0.00902 0.09574 0.0
C461 C 0.33103 0.00669 0.12143 0.0
C462 C 0.33413 0.01177 0.16942 0.0
C463 C 0.32273 0.0194 0.1919 0.0
C464 C 0.30824 0.02202 0.16638 0.0
C465 C 0.30504 0.0169 0.1184 0.0
H466 H 0.32515 0.02333 0.22905 0.0
H467 H 0.30734 0.97651 0.76307 0.0
H468 H 0.641 0.51925 0.4444 0.0
H469 H 0.61272 0.48349 0.43837 0.0
H470 H 0.56872 0.50442 0.44822 0.0
H471 H 0.59658 0.53973 0.45543 0.0
H472 H 0.55819 0.47342 0.50571 0.0
H473 H 0.58133 0.48876 0.34182 0.0
H474 H 0.60689 0.49842 0.27789 0.0
H475 H 0.61429 0.44668 0.3114 0.0
H476 H 0.58893 0.43686 0.37591 0.0
H477 H 0.46614 0.40765 0.39458 0.0
H478 H 0.50072 0.43493 0.41397 0.0
H479 H 0.52088 0.39046 0.42618 0.0
H480 H 0.48588 0.36268 0.40698 0.0
H481 H 0.54726 0.4275 0.36931 0.0
H482 H 0.51775 0.4088 0.52304 0.0
H483 H 0.49081 0.39936 0.58343 0.0
H484 H 0.49453 0.45799 0.56682 0.0
H485 H 0.52127 0.46768 0.50578 0.0
C486 C 0.62528 0.51617 0.4449 0.0
C487 C 0.62103 0.53231 0.45069 0.0
C488 C 0.60914 0.49575 0.44146 0.0
C489 C 0.58857 0.49124 0.443 0.0
C490 C 0.58444 0.50745 0.44753 0.0
C491 C 0.60042 0.52768 0.45149 0.0
C492 C 0.57102 0.46982 0.44067 0.0
C493 C 0.55584 0.46339 0.47588 0.0
C494 C 0.56827 0.45634 0.40278 0.0
C495 C 0.58346 0.46224 0.36402 0.0
C496 C 0.58854 0.47955 0.33577 0.0
C497 C 0.60296 0.48503 0.2994 0.0
C498 C 0.61226 0.47321 0.2907 0.0
C499 C 0.60711 0.45584 0.31826 0.0
C500 C 0.59271 0.45031 0.35471 0.0
C501 C 0.47784 0.40355 0.40143 0.0
C502 C 0.47324 0.38297 0.3992 0.0
C503 C 0.49761 0.41919 0.41266 0.0
C504 C 0.51328 0.41467 0.42172 0.0
C505 C 0.50892 0.39419 0.41936 0.0
C506 C 0.48894 0.37838 0.40864 0.0
C507 C 0.53414 0.43175 0.43304 0.0
C508 C 0.54992 0.43731 0.39977 0.0
C509 C 0.53742 0.44457 0.4725 0.0
C510 C 0.52149 0.43893 0.50967 0.0
C511 C 0.51275 0.41964 0.53204 0.0
C512 C 0.49751 0.41425 0.56643 0.0
C513 C 0.49095 0.42806 0.57893 0.0
C514 C 0.49964 0.44731 0.55713 0.0
C515 C 0.51487 0.45278 0.52269 0.0
H516 H 0.47915 0.42385 0.60554 0.0
H517 H 0.62342 0.47748 0.26252 0.0
H518 H 0.05521 0.46314 0.53992 0.0
H519 H 0.06382 0.49882 0.54622 0.0
H520 H 0.12695 0.51689 0.57677 0.0
H521 H 0.11835 0.48075 0.57117 0.0
H522 H 0.11321 0.53699 0.63315 0.0
H523 H 0.11539 0.52703 0.46895 0.0
H524 H 0.1041 0.50947 0.392 0.0
H525 H 0.04953 0.51437 0.39827 0.0
H526 H 0.06032 0.53168 0.4756 0.0
H527 H 0.12314 0.63868 0.60789 0.0
H528 H 0.13015 0.61053 0.59124 0.0
H529 H 0.065 0.56817 0.57844 0.0
H530 H 0.0579 0.59583 0.59575 0.0
H531 H 0.0903 0.56577 0.50426 0.0
H532 H 0.08619 0.56893 0.67702 0.0
H533 H 0.09804 0.58657 0.75379 0.0
H534 H 0.15842 0.5956 0.72817 0.0
H535 H 0.14697 0.57824 0.65089 0.0
C536 C 0.07097 0.47461 0.54799 0.0
C537 C 0.08613 0.46906 0.55457 0.0
C538 C 0.07588 0.49507 0.55136 0.0
C539 C 0.09613 0.51059 0.56081 0.0
C540 C 0.11127 0.50515 0.56895 0.0
C541 C 0.10632 0.48452 0.56578 0.0
C542 C 0.10098 0.53232 0.56244 0.0
C543 C 0.10873 0.54353 0.60447 0.0
C544 C 0.09522 0.54092 0.52497 0.0
C545 C 0.08865 0.53061 0.47823 0.0
C546 C 0.10092 0.52426 0.45407 0.0
C547 C 0.09461 0.51436 0.41036 0.0
C548 C 0.0761 0.5108 0.39028 0.0
C549 C 0.06387 0.51716 0.41385 0.0
C550 C 0.0701 0.52705 0.4576 0.0
C551 C 0.11037 0.62337 0.60119 0.0
C552 C 0.08997 0.6194 0.60338 0.0
C553 C 0.11439 0.60736 0.59183 0.0
C554 C 0.09807 0.58733 0.5837 0.0
C555 C 0.0778 0.58354 0.58455 0.0
C556 C 0.07377 0.59935 0.59469 0.0
C557 C 0.10159 0.56986 0.57558 0.0
C558 C 0.09541 0.55949 0.53225 0.0
C559 C 0.109 0.56219 0.61159 0.0
C560 C 0.11582 0.57257 0.65797 0.0
C561 C 0.10205 0.57486 0.68757 0.0
C562 C 0.10867 0.58476 0.73121 0.0
C563 C 0.12899 0.59227 0.74577 0.0
C564 C 0.1427 0.58983 0.71679 0.0
C565 C 0.13615 0.57996 0.67308 0.0
H566 H 0.13409 0.59992 0.77958 0.0
H567 H 0.07124 0.50313 0.35643 0.0
H568 H 0.46378 0.05821 0.77129 0.0
H569 H 0.499 0.06527 0.76387 0.0
H570 H 0.52124 0.13049 0.77043 0.0
H571 H 0.4856 0.12349 0.77684 0.0
H572 H 0.54309 0.12148 0.70667 0.0
H573 H 0.52453 0.10678 0.86788 0.0
H574 H 0.50257 0.08814 0.93594 0.0
H575 H 0.50516 0.03412 0.89756 0.0
H576 H 0.52688 0.05232 0.82884 0.0
H577 H 0.64099 0.12297 0.737 0.0
H578 H 0.61301 0.1301 0.75479 0.0
H579 H 0.56851 0.06589 0.73493 0.0
H580 H 0.59598 0.05872 0.71682 0.0
H581 H 0.56304 0.08361 0.81875 0.0
H582 H 0.57613 0.09779 0.64904 0.0
H583 H 0.59816 0.11695 0.58144 0.0
H584 H 0.60697 0.17361 0.63995 0.0
H585 H 0.58518 0.15478 0.70824 0.0
C586 C 0.47611 0.07409 0.77086 0.0
C587 C 0.47193 0.09029 0.77532 0.0
C588 C 0.49627 0.07811 0.76678 0.0
C589 C 0.51278 0.09839 0.76797 0.0
C590 C 0.50871 0.11472 0.76997 0.0
C591 C 0.48837 0.1107 0.77355 0.0
C592 C 0.53413 0.10204 0.76834 0.0
C593 C 0.54767 0.11362 0.73186 0.0
C594 C 0.5402 0.09193 0.80143 0.0
C595 C 0.5273 0.08092 0.84307 0.0
C596 C 0.52033 0.09089 0.8738 0.0
C597 C 0.50793 0.0804 0.91252 0.0
C598 C 0.50246 0.05995 0.92105 0.0
C599 C 0.50942 0.04996 0.89093 0.0
C600 C 0.52181 0.06037 0.85213 0.0
C601 C 0.62523 0.11041 0.73666 0.0
C602 C 0.62069 0.0903 0.72531 0.0
C603 C 0.60931 0.11451 0.74666 0.0
C604 C 0.58874 0.0985 0.74609 0.0
C605 C 0.58429 0.07844 0.73563 0.0
C606 C 0.60004 0.0744 0.72506 0.0
C607 C 0.57145 0.10214 0.75583 0.0
C608 C 0.55869 0.09196 0.79443 0.0
C609 C 0.56627 0.1137 0.72506 0.0
C610 C 0.57928 0.12494 0.68399 0.0
C611 C 0.58293 0.11436 0.64769 0.0
C612 C 0.59533 0.12515 0.60921 0.0
C613 C 0.60402 0.1465 0.60648 0.0
C614 C 0.60027 0.15709 0.64216 0.0
C615 C 0.5879 0.14637 0.68074 0.0
H616 H 0.61362 0.15482 0.57666 0.0
H617 H 0.49285 0.05185 0.95103 0.0
H618 H 0.51557 0.63563 0.90247 0.0
H619 H 0.48018 0.60694 0.91049 0.0
H620 H 0.50183 0.56383 0.89207 0.0
H621 H 0.53684 0.59217 0.88292 0.0
H622 H 0.46988 0.55321 0.83816 0.0
H623 H 0.48728 0.57413 0.00145 0.0
H624 H 0.49813 0.59843 0.06834 0.0
H625 H 0.4463 0.60694 0.04539 0.0
H626 H 0.43528 0.58286 0.97795 0.0
H627 H 0.40235 0.46047 0.94682 0.0
H628 H 0.43053 0.49502 0.93069 0.0
H629 H 0.38744 0.51678 0.91511 0.0
H630 H 0.35876 0.48181 0.9308 0.0
H631 H 0.42518 0.54144 0.9775 0.0
H632 H 0.40548 0.51462 0.82042 0.0
H633 H 0.39508 0.48793 0.75896 0.0
H634 H 0.45233 0.48866 0.77525 0.0
H635 H 0.46299 0.5152 0.83724 0.0
C636 C 0.51276 0.62002 0.90058 0.0
C637 C 0.52899 0.61618 0.89178 0.0
C638 C 0.49254 0.60364 0.90515 0.0
C639 C 0.48832 0.58321 0.90173 0.0
C640 C 0.50464 0.57944 0.89428 0.0
C641 C 0.52469 0.5957 0.88923 0.0
C642 C 0.46702 0.56549 0.90485 0.0
C643 C 0.46013 0.5507 0.86865 0.0
C644 C 0.45399 0.56243 0.9439 0.0
C645 C 0.46063 0.57694 0.98429 0.0
C646 C 0.47831 0.58133 0.01041 0.0
C647 C 0.48447 0.59503 0.04847 0.0
C648 C 0.47296 0.60428 0.06099 0.0
C649 C 0.45523 0.59981 0.03557 0.0
C650 C 0.44902 0.58613 0.99744 0.0
C651 C 0.39876 0.47254 0.94001 0.0
C652 C 0.37831 0.46841 0.94013 0.0
C653 C 0.4149 0.49227 0.93071 0.0
C654 C 0.41101 0.50835 0.92168 0.0
C655 C 0.39067 0.50448 0.92205 0.0
C656 C 0.37436 0.48454 0.93074 0.0
C657 C 0.42855 0.52906 0.91167 0.0
C658 C 0.43473 0.54434 0.94645 0.0
C659 C 0.44112 0.53249 0.87168 0.0
C660 C 0.435 0.51687 0.83361 0.0
C661 C 0.41582 0.50903 0.81105 0.0
C662 C 0.40988 0.49394 0.77609 0.0
C663 C 0.42303 0.4866 0.76322 0.0
C664 C 0.44217 0.49439 0.78521 0.0
C665 C 0.44819 0.50949 0.82018 0.0
H666 H 0.4184 0.4749 0.73619 0.0
H667 H 0.47774 0.61488 0.09049 0.0
H668 H 0.87968 0.36146 0.09463 0.0
H669 H 0.87352 0.39042 0.08458 0.0
H670 H 0.93647 0.43268 0.12371 0.0
H671 H 0.9426 0.40408 0.13466 0.0
H672 H 0.91172 0.44189 0.16948 0.0
H673 H 0.91923 0.42567 0.00766 0.0
H674 H 0.91045 0.4033 0.93754 0.0
H675 H 0.84925 0.39428 0.93809 0.0
H676 H 0.85761 0.41642 0.00863 0.0
H677 H 0.94294 0.53746 0.06319 0.0
H678 H 0.93616 0.50273 0.07996 0.0
H679 H 0.87087 0.48028 0.07835 0.0
H680 H 0.87755 0.51536 0.06247 0.0
H681 H 0.88844 0.45772 0.01923 0.0
H682 H 0.88459 0.47968 0.17607 0.0
H683 H 0.89606 0.50405 0.24282 0.0
H684 H 0.95313 0.50382 0.24857 0.0
H685 H 0.94213 0.47969 0.18133 0.0
C686 C 0.89222 0.37695 0.10079 0.0
C687 C 0.91161 0.38043 0.11566 0.0
C688 C 0.88868 0.39347 0.09501 0.0
C689 C 0.90453 0.41374 0.10346 0.0
C690 C 0.92394 0.41719 0.11744 0.0
C691 C 0.92744 0.40077 0.12353 0.0
C692 C 0.90122 0.43157 0.09846 0.0
C693 C 0.9066 0.4453 0.1366 0.0
C694 C 0.89399 0.43578 0.05605 0.0
C695 C 0.88895 0.42246 0.01376 0.0
C696 C 0.90384 0.41876 0.99307 0.0
C697 C 0.89896 0.40616 0.95321 0.0
C698 C 0.87928 0.39731 0.93348 0.0
C699 C 0.86447 0.4011 0.95349 0.0
C700 C 0.86927 0.41368 0.9934 0.0
C701 C 0.92712 0.52518 0.06653 0.0
C702 C 0.91076 0.52912 0.06147 0.0
C703 C 0.92329 0.50537 0.07617 0.0
C704 C 0.90304 0.48904 0.08033 0.0
C705 C 0.8866 0.49277 0.07521 0.0
C706 C 0.89044 0.51277 0.06642 0.0
C707 C 0.89954 0.46816 0.08971 0.0
C708 C 0.89297 0.45393 0.05246 0.0
C709 C 0.90594 0.46358 0.1327 0.0
C710 C 0.91257 0.47797 0.17343 0.0
C711 C 0.89965 0.48495 0.19131 0.0
C712 C 0.90606 0.4987 0.22929 0.0
C713 C 0.92533 0.50551 0.24988 0.0
C714 C 0.93821 0.49854 0.23258 0.0
C715 C 0.93188 0.4848 0.19457 0.0
H716 H 0.93026 0.51616 0.27927 0.0
H717 H 0.87553 0.38756 0.9026 0.0
H718 H 0.36068 0.88095 0.24819 0.0
H719 H 0.38851 0.87293 0.25642 0.0
H720 H 0.43272 0.93497 0.21498 0.0
H721 H 0.40528 0.94295 0.20602 0.0
H722 H 0.43906 0.90826 0.16749 0.0
H723 H 0.42629 0.9184 0.33104 0.0
H724 H 0.40499 0.91079 0.40274 0.0
H725 H 0.39367 0.84875 0.4026 0.0
H726 H 0.41472 0.85595 0.3305 0.0
H727 H 0.53553 0.94107 0.26592 0.0
H728 H 0.5004 0.93342 0.25145 0.0
H729 H 0.47897 0.86842 0.259 0.0
H730 H 0.51452 0.87597 0.27275 0.0
H731 H 0.45664 0.88638 0.31743 0.0
H732 H 0.47618 0.88012 0.16015 0.0
H733 H 0.49951 0.89035 0.09156 0.0
H734 H 0.49954 0.94747 0.08227 0.0
H735 H 0.47646 0.93773 0.15129 0.0
C736 C 0.37636 0.8929 0.24119 0.0
C737 C 0.38073 0.91256 0.22619 0.0
C738 C 0.39223 0.88829 0.24588 0.0
C739 C 0.41269 0.90333 0.23611 0.0
C740 C 0.41704 0.92304 0.22219 0.0
C741 C 0.40129 0.9276 0.21725 0.0
C742 C 0.42986 0.89894 0.23958 0.0
C743 C 0.44283 0.90339 0.20025 0.0
C744 C 0.43447 0.89195 0.28183 0.0
C745 C 0.42182 0.88763 0.32506 0.0
C746 C 0.4191 0.90309 0.34607 0.0
C747 C 0.40711 0.89886 0.38682 0.0
C748 C 0.39792 0.87927 0.40711 0.0
C749 C 0.40075 0.8639 0.38677 0.0
C750 C 0.41271 0.86804 0.34598 0.0
C751 C 0.52341 0.92512 0.26442 0.0
C752 C 0.52778 0.9091 0.27053 0.0
C753 C 0.50335 0.92079 0.25607 0.0
C754 C 0.48718 0.90039 0.2542 0.0
C755 C 0.49133 0.88426 0.26038 0.0
C756 C 0.51159 0.88859 0.26794 0.0
C757 C 0.46608 0.89648 0.24594 0.0
C758 C 0.45244 0.89055 0.28426 0.0
C759 C 0.46092 0.90234 0.20294 0.0
C760 C 0.47465 0.90821 0.16107 0.0
C761 C 0.48128 0.89492 0.1437 0.0
C762 C 0.49444 0.90063 0.1047 0.0
C763 C 0.50102 0.91956 0.0826 0.0
C764 C 0.49442 0.93281 0.09941 0.0
C765 C 0.48127 0.92718 0.13843 0.0
H766 H 0.51122 0.92395 0.05242 0.0
H767 H 0.38865 0.87603 0.43867 0.0
H768 H 0.36295 0.37314 0.8741 0.0
H769 H 0.37048 0.363 0.79809 0.0
H770 H 0.33009 0.38012 0.72848 0.0
H771 H 0.32213 0.38995 0.80454 0.0
H772 H 0.32533 0.34563 0.6914 0.0
H773 H 0.38216 0.4118 0.72624 0.0
H774 H 0.41058 0.43859 0.77333 0.0
H775 H 0.44045 0.40248 0.77555 0.0
H776 H 0.41202 0.3753 0.72907 0.0
H777 H 0.36968 0.35914 0.45949 0.0
H778 H 0.35827 0.36467 0.53641 0.0
H779 H 0.38874 0.33606 0.60565 0.0
H780 H 0.39995 0.33014 0.52884 0.0
H781 H 0.39829 0.37602 0.64218 0.0
H782 H 0.33982 0.31006 0.60255 0.0
H783 H 0.31147 0.2856 0.55147 0.0
H784 H 0.285 0.32479 0.55335 0.0
H785 H 0.31337 0.34965 0.60391 0.0
C786 C 0.35554 0.37465 0.84273 0.0
C787 C 0.34202 0.38251 0.84552 0.0
C788 C 0.35994 0.36892 0.7992 0.0
C789 C 0.35113 0.37113 0.75741 0.0
C790 C 0.33713 0.37833 0.76021 0.0
C791 C 0.33262 0.38398 0.80379 0.0
C792 C 0.35689 0.36635 0.71077 0.0
C793 C 0.34128 0.35245 0.68048 0.0
C794 C 0.37772 0.37513 0.69652 0.0
C795 C 0.39483 0.39141 0.72461 0.0
C796 C 0.39469 0.40948 0.73712 0.0
C797 C 0.41082 0.42476 0.76363 0.0
C798 C 0.42728 0.42222 0.77751 0.0
C799 C 0.42766 0.40441 0.76483 0.0
C800 C 0.41155 0.38907 0.73839 0.0
C801 C 0.37381 0.35385 0.49104 0.0
C802 C 0.38573 0.3442 0.48803 0.0
C803 C 0.36723 0.35698 0.53492 0.0
C804 C 0.37266 0.35075 0.57662 0.0
C805 C 0.38439 0.34096 0.5738 0.0
C806 C 0.39069 0.33751 0.52988 0.0
C807 C 0.36675 0.35519 0.62328 0.0
C808 C 0.38236 0.36913 0.65338 0.0
C809 C 0.34594 0.34678 0.63687 0.0
C810 C 0.32883 0.33182 0.60663 0.0
C811 C 0.32806 0.31356 0.59172 0.0
C812 C 0.31196 0.2996 0.56294 0.0
C813 C 0.29647 0.30367 0.54907 0.0
C814 C 0.29702 0.32168 0.56407 0.0
C815 C 0.31309 0.3357 0.59282 0.0
H816 H 0.28402 0.29284 0.52678 0.0
H817 H 0.43977 0.43408 0.798 0.0
H818 H 0.98968 0.35198 0.05603 0.0
H819 H 0.00829 0.35827 0.98129 0.0
H820 H 0.95136 0.33623 0.9046 0.0
H821 H 0.93261 0.32908 0.97905 0.0
H822 H 0.97319 0.32357 0.8618 0.0
H823 H 0.98744 0.38938 0.92317 0.0
H824 H 0.99944 0.41716 0.98239 0.0
H825 H 0.05972 0.42387 0.97961 0.0
H826 H 0.04799 0.39594 0.92077 0.0
H827 H 0.00862 0.3741 0.64205 0.0
H828 H 0.99333 0.3627 0.72008 0.0
H829 H 0.05282 0.37922 0.77778 0.0
H830 H 0.06839 0.39086 0.69966 0.0
H831 H 0.0322 0.39344 0.83181 0.0
H832 H 0.0175 0.32931 0.76168 0.0
H833 H 0.00459 0.30283 0.69926 0.0
H834 H 0.94384 0.29411 0.71556 0.0
H835 H 0.95644 0.32076 0.77762 0.0
C836 C 0.98113 0.34835 0.02321 0.0
C837 C 0.95969 0.34018 0.02347 0.0
C838 C 0.9918 0.35204 0.98047 0.0
C839 C 0.98132 0.34815 0.93712 0.0
C840 C 0.95983 0.3394 0.93745 0.0
C841 C 0.94912 0.33536 0.98012 0.0
C842 C 0.99267 0.35371 0.89136 0.0
C843 C 0.98599 0.3389 0.85521 0.0
C844 C 0.00969 0.37359 0.8828 0.0
C845 C 0.01678 0.39043 0.91799 0.0
C846 C 0.00321 0.39669 0.93544 0.0
C847 C 0.00997 0.41247 0.96889 0.0
C848 C 0.03032 0.42223 0.98485 0.0
C849 C 0.04396 0.41627 0.96728 0.0
C850 C 0.03727 0.40048 0.93387 0.0
C851 C 0.01851 0.37526 0.67118 0.0
C852 C 0.03978 0.38342 0.66444 0.0
C853 C 0.00969 0.36862 0.7158 0.0
C854 C 0.02189 0.36991 0.75467 0.0
C855 C 0.04311 0.37803 0.7482 0.0
C856 C 0.05197 0.38462 0.70348 0.0
C857 C 0.0125 0.3634 0.80227 0.0
C858 C 0.01955 0.37804 0.83868 0.0
C859 C 0.99567 0.34347 0.81082 0.0
C860 C 0.98796 0.32715 0.77411 0.0
C861 C 0.00141 0.32183 0.75178 0.0
C862 C 0.99415 0.30678 0.71648 0.0
C863 C 0.97342 0.29682 0.70338 0.0
C864 C 0.9599 0.30184 0.72572 0.0
C865 C 0.96709 0.3169 0.76101 0.0
H866 H 0.96783 0.2852 0.67598 0.0
H867 H 0.03552 0.43444 0.01076 0.0
H868 H 0.62181 0.93416 0.14401 0.0
H869 H 0.63487 0.95112 0.06762 0.0
H870 H 0.61884 0.9971 0.10522 0.0
H871 H 0.60669 0.98084 0.18191 0.0
H872 H 0.61878 0.95764 0.99555 0.0
H873 H 0.64941 0.04244 0.05736 0.0
H874 H 0.66611 0.06394 0.12743 0.0
H875 H 0.68854 0.02359 0.16832 0.0
H876 H 0.67223 0.00201 0.09817 0.0
H877 H 0.62333 0.01786 0.80174 0.0
H878 H 0.61752 0.99962 0.87648 0.0
H879 H 0.68224 0.03621 0.90933 0.0
H880 H 0.68781 0.05544 0.8357 0.0
H881 H 0.6635 0.03335 0.98332 0.0
H882 H 0.65697 0.98252 0.87458 0.0
H883 H 0.64481 0.96032 0.80396 0.0
H884 H 0.58275 0.93157 0.85564 0.0
H885 H 0.59448 0.95378 0.92629 0.0
C886 C 0.6212 0.94796 0.13601 0.0
C887 C 0.61341 0.95626 0.16922 0.0
C888 C 0.62864 0.95763 0.09231 0.0
C889 C 0.62824 0.97565 0.08084 0.0
C890 C 0.61995 0.98361 0.11361 0.0
C891 C 0.61288 0.9742 0.15746 0.0
C892 C 0.63592 0.98595 0.03431 0.0
C893 C 0.62867 0.97418 0.99287 0.0
C894 C 0.6494 0.00746 0.03057 0.0
C895 C 0.65944 0.02051 0.07264 0.0
C896 C 0.65799 0.03821 0.08116 0.0
C897 C 0.66737 0.0504 0.12093 0.0
C898 C 0.67833 0.04511 0.15237 0.0
C899 C 0.67999 0.02764 0.14403 0.0
C900 C 0.67065 0.01541 0.10429 0.0
C901 C 0.63634 0.02192 0.82479 0.0
C902 C 0.65604 0.03802 0.81286 0.0
C903 C 0.63304 0.01136 0.86744 0.0
C904 C 0.6495 0.01614 0.8984 0.0
C905 C 0.66925 0.03215 0.88621 0.0
C906 C 0.67245 0.04311 0.84408 0.0
C907 C 0.64584 0.00512 0.94438 0.0
C908 C 0.65383 0.01678 0.98581 0.0
C909 C 0.63376 0.9834 0.94798 0.0
C910 C 0.6266 0.96993 0.90561 0.0
C911 C 0.64071 0.97155 0.87076 0.0
C912 C 0.63389 0.95895 0.83073 0.0
C913 C 0.61302 0.94457 0.82528 0.0
C914 C 0.59892 0.94272 0.8599 0.0
C915 C 0.60565 0.95529 0.89998 0.0
H916 H 0.60778 0.93483 0.79426 0.0
H917 H 0.68557 0.05456 0.18315 0.0
H918 H 0.63361 0.64277 0.95611 0.0
H919 H 0.64553 0.63706 0.0319 0.0
H920 H 0.61364 0.6635 0.1045 0.0
H921 H 0.60239 0.67003 0.02871 0.0
H922 H 0.64834 0.67528 0.14668 0.0
H923 H 0.59366 0.60981 0.09369 0.0
H924 H 0.57546 0.58085 0.03822 0.0
H925 H 0.62644 0.56992 0.04048 0.0
H926 H 0.64505 0.599 0.09552 0.0
H927 H 0.63815 0.62878 0.37225 0.0
H928 H 0.63224 0.63926 0.29482 0.0
H929 H 0.67162 0.61959 0.23039 0.0
H930 H 0.67761 0.60898 0.3077 0.0
H931 H 0.63484 0.60498 0.18365 0.0
H932 H 0.68823 0.67 0.24253 0.0
H933 H 0.7047 0.69823 0.30041 0.0
H934 H 0.6538 0.70906 0.28993 0.0
H935 H 0.63688 0.68069 0.23245 0.0
C936 C 0.62925 0.6475 0.9882 0.0
C937 C 0.61692 0.65672 0.98635 0.0
C938 C 0.63599 0.64412 0.03158 0.0
C939 C 0.63012 0.64941 0.07414 0.0
C940 C 0.61834 0.65921 0.07226 0.0
C941 C 0.61189 0.66291 0.02884 0.0
C942 C 0.63579 0.6443 0.12061 0.0
C943 C 0.64518 0.65985 0.15487 0.0
C944 C 0.63202 0.62425 0.13126 0.0
C945 C 0.62083 0.60671 0.09832 0.0
C946 C 0.60104 0.60132 0.0821 0.0
C947 C 0.59065 0.58487 0.05078 0.0
C948 C 0.59981 0.57359 0.03573 0.0
C949 C 0.61937 0.57869 0.0521 0.0
C950 C 0.62984 0.59515 0.08338 0.0
C951 C 0.64568 0.62679 0.34172 0.0
C952 C 0.65836 0.618 0.34631 0.0
C953 C 0.64235 0.63288 0.29747 0.0
C954 C 0.6516 0.63034 0.25686 0.0
C955 C 0.66435 0.62172 0.26129 0.0
C956 C 0.66781 0.61572 0.30557 0.0
C957 C 0.64728 0.63592 0.20957 0.0
C958 C 0.63811 0.62043 0.17525 0.0
C959 C 0.65098 0.65593 0.19916 0.0
C960 C 0.6612 0.67309 0.23348 0.0
C961 C 0.68047 0.67829 0.25283 0.0
C962 C 0.68991 0.69434 0.28552 0.0
C963 C 0.68028 0.7054 0.29892 0.0
C964 C 0.66123 0.70047 0.27955 0.0
C965 C 0.65172 0.68442 0.24687 0.0
H966 H 0.68761 0.71782 0.32425 0.0
H967 H 0.59174 0.56086 0.01148 0.0
H968 H 0.01194 0.63931 0.53438 0.0
H969 H 0.99557 0.63316 0.45716 0.0
H970 H 0.05482 0.67066 0.39173 0.0
H971 H 0.07141 0.67725 0.46938 0.0
H972 H 0.02606 0.67726 0.35118 0.0
H973 H 0.03236 0.61885 0.38951 0.0
H974 H 0.0291 0.59017 0.43836 0.0
H975 H 0.96334 0.56287 0.43828 0.0
H976 H 0.96622 0.59157 0.39 0.0
H977 H 0.99133 0.63213 0.12018 0.0
H978 H 0.00955 0.64387 0.19565 0.0
H979 H 0.95161 0.61463 0.26982 0.0
H980 H 0.93323 0.60304 0.19464 0.0
H981 H 0.98113 0.6044 0.30373 0.0
H982 H 0.97601 0.66411 0.26395 0.0
H983 H 0.98052 0.69269 0.21289 0.0
H984 H 0.04591 0.71717 0.21232 0.0
H985 H 0.04175 0.68853 0.26284 0.0
C986 C 0.02155 0.6464 0.5037 0.0
C987 C 0.04305 0.65861 0.50811 0.0
C988 C 0.01214 0.64281 0.45949 0.0
C989 C 0.024 0.6511 0.41853 0.0
C990 C 0.04537 0.66401 0.42286 0.0
C991 C 0.05483 0.66774 0.46727 0.0
C992 C 0.01403 0.6456 0.3713 0.0
C993 C 0.01647 0.66134 0.34053 0.0
C994 C 0.00135 0.6248 0.35752 0.0
C995 C 0.99953 0.60747 0.38651 0.0
C996 C 0.01721 0.60682 0.40023 0.0
C997 C 0.01543 0.59054 0.42777 0.0
C998 C 0.99603 0.57473 0.44151 0.0
C999 C 0.97836 0.57514 0.42765 0.0
C1000 C 0.98006 0.59141 0.40018 0.0
C1001 C 0.98245 0.62834 0.15252 0.0
C1002 C 0.96082 0.61661 0.15139 0.0
C1003 C 0.99288 0.63512 0.19556 0.0
C1004 C 0.9819 0.63014 0.23821 0.0
C1005 C 0.96034 0.61864 0.23721 0.0
C1006 C 0.94988 0.61211 0.1942 0.0
C1007 C 0.9929 0.63604 0.28407 0.0
C1008 C 0.99073 0.62032 0.31445 0.0
C1009 C 0.00601 0.65682 0.29708 0.0
C1010 C 0.00854 0.67405 0.26674 0.0
C1011 C 0.99133 0.67547 0.25256 0.0
C1012 C 0.99383 0.69171 0.2238 0.0
C1013 C 0.01349 0.7067 0.20925 0.0
C1014 C 0.03069 0.70552 0.22355 0.0
C1015 C 0.02827 0.6893 0.25228 0.0
H1016 H 0.01539 0.71927 0.187 0.0
H1017 H 0.99468 0.56214 0.46282 0.0
H1018 H 0.32573 0.93736 0.36216 0.0
H1019 H 0.33242 0.95635 0.43613 0.0
H1020 H 0.36911 0.01346 0.36152 0.0
H1021 H 0.3629 0.99452 0.28738 0.0
H1022 H 0.38856 0.01298 0.43745 0.0
H1023 H 0.32049 0.99929 0.40614 0.0
H1024 H 0.28367 0.97832 0.38625 0.0
H1025 H 0.27329 0.94242 0.51201 0.0
H1026 H 0.31011 0.96301 0.53237 0.0
H1027 H 0.39794 0.07382 0.6396 0.0
H1028 H 0.38687 0.05819 0.56131 0.0
H1029 H 0.35803 0.99777 0.62408 0.0
H1030 H 0.36915 0.01319 0.70239 0.0
H1031 H 0.33406 0.00234 0.5521 0.0
H1032 H 0.40314 0.01503 0.5786 0.0
H1033 H 0.43995 0.03667 0.59795 0.0
H1034 H 0.44802 0.07563 0.47922 0.0
H1035 H 0.41116 0.05438 0.45959 0.0
C1036 C 0.33508 0.95398 0.36131 0.0
C1037 C 0.3438 0.96439 0.31873 0.0
C1038 C 0.33881 0.96485 0.40371 0.0
C1039 C 0.35109 0.98639 0.40444 0.0
C1040 C 0.35959 0.99685 0.36189 0.0
C1041 C 0.35599 0.98598 0.31949 0.0
C1042 C 0.35586 0.99785 0.44992 0.0
C1043 C 0.37658 0.01093 0.46203 0.0
C1044 C 0.3403 0.99497 0.48254 0.0
C1045 C 0.31811 0.9826 0.47057 0.0
C1046 C 0.31039 0.98683 0.42939 0.0
C1047 C 0.28951 0.97503 0.41806 0.0
C1048 C 0.27616 0.95902 0.44779 0.0
C1049 C 0.28365 0.95482 0.489 0.0
C1050 C 0.30452 0.96657 0.50048 0.0
C1051 C 0.38906 0.05721 0.63684 0.0
C1052 C 0.38458 0.04475 0.67724 0.0
C1053 C 0.38279 0.04831 0.59207 0.0
C1054 C 0.37177 0.02683 0.58693 0.0
C1055 C 0.36653 0.01438 0.62732 0.0
C1056 C 0.373 0.02323 0.672 0.0
C1057 C 0.36666 0.01725 0.53937 0.0
C1058 C 0.34593 0.00452 0.52706 0.0
C1059 C 0.38218 0.02056 0.50637 0.0
C1060 C 0.40435 0.03327 0.51796 0.0
C1061 C 0.41273 0.02832 0.55687 0.0
C1062 C 0.43361 0.04049 0.56784 0.0
C1063 C 0.4463 0.05755 0.53992 0.0
C1064 C 0.43816 0.06244 0.50088 0.0
C1065 C 0.41728 0.05033 0.4898 0.0
H1066 H 0.46247 0.06696 0.54847 0.0
H1067 H 0.26 0.94989 0.43895 0.0
H1068 H 0.43729 0.28865 0.50019 0.0
H1069 H 0.43876 0.26323 0.55228 0.0
H1070 H 0.39172 0.2141 0.46898 0.0
H1071 H 0.39028 0.23919 0.41677 0.0
H1072 H 0.3845 0.20974 0.56746 0.0
H1073 H 0.43905 0.22492 0.45481 0.0
H1074 H 0.4713 0.24791 0.41265 0.0
H1075 H 0.50372 0.26664 0.5447 0.0
H1076 H 0.47158 0.24395 0.58771 0.0
H1077 H 0.38355 0.12012 0.63665 0.0
H1078 H 0.3868 0.14905 0.59054 0.0
H1079 H 0.44058 0.19067 0.67101 0.0
H1080 H 0.43778 0.1616 0.71646 0.0
H1081 H 0.44605 0.2017 0.58131 0.0
H1082 H 0.39328 0.18573 0.69466 0.0
H1083 H 0.36151 0.16377 0.73947 0.0
H1084 H 0.32625 0.14831 0.61127 0.0
H1085 H 0.35785 0.16995 0.56557 0.0
C1086 C 0.42729 0.27243 0.49302 0.0
C1087 C 0.41369 0.26591 0.45436 0.0
C1088 C 0.4282 0.25796 0.52267 0.0
C1089 C 0.41538 0.23683 0.51429 0.0
C1090 C 0.40172 0.23035 0.47599 0.0
C1091 C 0.40098 0.24472 0.44611 0.0
C1092 C 0.41584 0.22127 0.54551 0.0
C1093 C 0.39789 0.20785 0.57028 0.0
C1094 C 0.43356 0.21935 0.55033 0.0
C1095 C 0.45287 0.23294 0.52449 0.0
C1096 C 0.45302 0.23409 0.47488 0.0
C1097 C 0.47128 0.24703 0.45082 0.0
C1098 C 0.48953 0.25878 0.47599 0.0
C1099 C 0.48957 0.25756 0.52526 0.0
C1100 C 0.47133 0.24466 0.54949 0.0
C1101 C 0.39615 0.1354 0.64438 0.0
C1102 C 0.41029 0.13861 0.68049 0.0
C1103 C 0.39794 0.15195 0.61814 0.0
C1104 C 0.41365 0.1721 0.62808 0.0
C1105 C 0.42826 0.17527 0.66295 0.0
C1106 C 0.42662 0.15866 0.6889 0.0
C1107 C 0.4145 0.18977 0.60252 0.0
C1108 C 0.43269 0.20365 0.57896 0.0
C1109 C 0.39706 0.19232 0.59927 0.0
C1110 C 0.37797 0.17934 0.62664 0.0
C1111 C 0.37877 0.17754 0.67597 0.0
C1112 C 0.36079 0.16516 0.70154 0.0
C1113 C 0.34188 0.15462 0.67822 0.0
C1114 C 0.34091 0.15647 0.62928 0.0
C1115 C 0.35885 0.16881 0.60353 0.0
H1116 H 0.32797 0.14504 0.69808 0.0
H1117 H 0.50366 0.26879 0.4573 0.0
H1118 H 0.24574 0.41843 0.92486 0.0
H1119 H 0.22256 0.42146 0.86927 0.0
H1120 H 0.26247 0.42688 0.75375 0.0
H1121 H 0.28594 0.42397 0.80934 0.0
H1122 H 0.24807 0.45434 0.74647 0.0
H1123 H 0.22039 0.38214 0.77196 0.0
H1124 H 0.20811 0.35049 0.81905 0.0
H1125 H 0.16075 0.3595 0.8798 0.0
H1126 H 0.17295 0.39139 0.83355 0.0
H1127 H 0.17372 0.42985 0.56297 0.0
H1128 H 0.20001 0.43172 0.61701 0.0
H1129 H 0.16059 0.42367 0.73571 0.0
H1130 H 0.13413 0.42156 0.68195 0.0
H1131 H 0.17546 0.39774 0.73992 0.0
H1132 H 0.20307 0.46999 0.7136 0.0
H1133 H 0.21541 0.50154 0.6661 0.0
H1134 H 0.26276 0.49234 0.60605 0.0
H1135 H 0.25052 0.46055 0.65273 0.0
C1136 C 0.24969 0.42036 0.88768 0.0
C1137 C 0.26762 0.42081 0.87148 0.0
C1138 C 0.23638 0.42205 0.85595 0.0
C1139 C 0.24069 0.42414 0.80737 0.0
C1140 C 0.25887 0.42523 0.79113 0.0
C1141 C 0.27221 0.42349 0.8229 0.0
C1142 C 0.22583 0.42459 0.77363 0.0
C1143 C 0.23225 0.44187 0.7445 0.0
C1144 C 0.20513 0.40845 0.77182 0.0
C1145 C 0.19772 0.38926 0.79963 0.0
C1146 C 0.20747 0.37747 0.79566 0.0
C1147 C 0.2005 0.35947 0.82215 0.0
C1148 C 0.18369 0.35302 0.85249 0.0
C1149 C 0.17379 0.36453 0.85633 0.0
C1150 C 0.18071 0.38256 0.82996 0.0
C1151 C 0.17072 0.42868 0.6006 0.0
C1152 C 0.15179 0.42547 0.61814 0.0
C1153 C 0.1858 0.42984 0.63145 0.0
C1154 C 0.18229 0.42793 0.68039 0.0
C1155 C 0.1636 0.42517 0.69804 0.0
C1156 C 0.14851 0.42402 0.66726 0.0
C1157 C 0.19758 0.42761 0.71302 0.0
C1158 C 0.19125 0.41027 0.74186 0.0
C1159 C 0.21834 0.44367 0.71442 0.0
C1160 C 0.22574 0.46277 0.68631 0.0
C1161 C 0.216 0.47459 0.68996 0.0
C1162 C 0.223 0.49254 0.66324 0.0
C1163 C 0.23983 0.49891 0.63298 0.0
C1164 C 0.24972 0.48737 0.62946 0.0
C1165 C 0.24276 0.4694 0.65607 0.0
H1166 H 0.24523 0.51281 0.61234 0.0
H1167 H 0.17832 0.33907 0.87296 0.0
H1168 H 0.81874 0.26762 0.08671 0.0
H1169 H 0.79303 0.24243 0.03285 0.0
H1170 H 0.84047 0.2555 0.93003 0.0
H1171 H 0.86627 0.28092 0.98339 0.0
H1172 H 0.80562 0.25077 0.88867 0.0
H1173 H 0.82353 0.21432 0.0025 0.0
H1174 H 0.82797 0.20425 0.08268 0.0
H1175 H 0.76376 0.18036 0.11108 0.0
H1176 H 0.759 0.19054 0.03122 0.0
H1177 H 0.76079 0.16147 0.74793 0.0
H1178 H 0.78242 0.1895 0.8015 0.0
H1179 H 0.73148 0.16961 0.89817 0.0
H1180 H 0.70977 0.14115 0.84502 0.0
H1181 H 0.76574 0.1785 0.94442 0.0
H1182 H 0.74711 0.21243 0.82822 0.0
H1183 H 0.74263 0.22234 0.74793 0.0
H1184 H 0.8077 0.25097 0.72375 0.0
H1185 H 0.81255 0.24098 0.80369 0.0
C1186 C 0.8237 0.26531 0.05245 0.0
C1187 C 0.84459 0.27614 0.03951 0.0
C1188 C 0.80898 0.25085 0.02179 0.0
C1189 C 0.81491 0.24686 0.97779 0.0
C1190 C 0.83559 0.2583 0.96391 0.0
C1191 C 0.85032 0.27278 0.99451 0.0
C1192 C 0.79975 0.23016 0.94704 0.0
C1193 C 0.79701 0.23493 0.90066 0.0
C1194 C 0.78814 0.2096 0.96318 0.0
C1195 C 0.79096 0.20339 0.0111 0.0
C1196 C 0.8104 0.20706 0.02598 0.0
C1197 C 0.81296 0.20131 0.07134 0.0
C1198 C 0.79617 0.19173 0.10201 0.0
C1199 C 0.77676 0.18782 0.08732 0.0
C1200 C 0.77412 0.19356 0.04201 0.0
C1201 C 0.75414 0.16304 0.78054 0.0
C1202 C 0.73353 0.14912 0.79215 0.0
C1203 C 0.76651 0.17917 0.81102 0.0
C1204 C 0.75847 0.18188 0.85346 0.0
C1205 C 0.73797 0.16787 0.86547 0.0
C1206 C 0.72558 0.15162 0.83507 0.0
C1207 C 0.77172 0.19904 0.88574 0.0
C1208 C 0.77415 0.19435 0.93245 0.0
C1209 C 0.78301 0.21968 0.86989 0.0
C1210 C 0.78017 0.22581 0.82185 0.0
C1211 C 0.76045 0.22071 0.80567 0.0
C1212 C 0.75784 0.22636 0.76024 0.0
C1213 C 0.77486 0.23724 0.73073 0.0
C1214 C 0.79453 0.24253 0.74664 0.0
C1215 C 0.79722 0.2369 0.79203 0.0
H1216 H 0.77281 0.2416 0.69556 0.0
H1217 H 0.79819 0.18728 0.13711 0.0
H1218 H 0.56766 0.85616 0.15385 0.0
H1219 H 0.5636 0.82836 0.1017 0.0
H1220 H 0.58149 0.80232 0.21547 0.0
H1221 H 0.58573 0.83009 0.26769 0.0
H1222 H 0.60217 0.80529 0.1351 0.0
H1223 H 0.53186 0.77964 0.18024 0.0
H1224 H 0.50001 0.78109 0.19126 0.0
H1225 H 0.4973 0.79002 0.04213 0.0
H1226 H 0.52931 0.78892 0.03029 0.0
H1227 H 0.57906 0.71238 0.0222 0.0
H1228 H 0.57774 0.73648 0.07824 0.0
H1229 H 0.55951 0.76294 0.96607 0.0
H1230 H 0.56051 0.73871 0.90987 0.0
H1231 H 0.53831 0.75913 0.04664 0.0
H1232 H 0.60892 0.78622 0.00154 0.0
H1233 H 0.64104 0.78537 0.98953 0.0
H1234 H 0.64346 0.77449 0.13774 0.0
H1235 H 0.61118 0.775 0.15053 0.0
C1236 C 0.5706 0.84444 0.16786 0.0
C1237 C 0.57705 0.84536 0.2149 0.0
C1238 C 0.56819 0.82852 0.13807 0.0
C1239 C 0.57211 0.8132 0.15483 0.0
C1240 C 0.57837 0.81399 0.20186 0.0
C1241 C 0.58075 0.82986 0.23166 0.0
C1242 C 0.57057 0.79684 0.12286 0.0
C1243 C 0.5881 0.79498 0.11634 0.0
C1244 C 0.55238 0.78377 0.09745 0.0
C1245 C 0.5331 0.7844 0.10445 0.0
C1246 C 0.52457 0.78209 0.14984 0.0
C1247 C 0.50647 0.78281 0.15623 0.0
C1248 C 0.49667 0.7857 0.11744 0.0
C1249 C 0.50492 0.78781 0.07216 0.0
C1250 C 0.52303 0.78712 0.06558 0.0
C1251 C 0.57459 0.7232 0.00949 0.0
C1252 C 0.57007 0.72375 0.96147 0.0
C1253 C 0.5739 0.737 0.04155 0.0
C1254 C 0.56883 0.75169 0.02615 0.0
C1255 C 0.56352 0.75175 0.97865 0.0
C1256 C 0.56417 0.73794 0.94656 0.0
C1257 C 0.56989 0.76755 0.05912 0.0
C1258 C 0.55232 0.76937 0.06565 0.0
C1259 C 0.58808 0.78068 0.08446 0.0
C1260 C 0.60752 0.78043 0.0769 0.0
C1261 C 0.61622 0.78348 0.03151 0.0
C1262 C 0.63446 0.78309 0.02457 0.0
C1263 C 0.64425 0.77982 0.06283 0.0
C1264 C 0.63584 0.77699 0.10813 0.0
C1265 C 0.61758 0.77734 0.11525 0.0
H1266 H 0.65838 0.77952 0.05739 0.0
H1267 H 0.48265 0.78625 0.12246 0.0
H1268 H 0.7533 0.58191 0.43826 0.0
H1269 H 0.77693 0.57857 0.38458 0.0
H1270 H 0.73842 0.5735 0.26628 0.0
H1271 H 0.71451 0.57666 0.31988 0.0
H1272 H 0.75224 0.54589 0.26059 0.0
H1273 H 0.78101 0.61834 0.2882 0.0
H1274 H 0.79358 0.64968 0.33664 0.0
H1275 H 0.83964 0.63886 0.39816 0.0
H1276 H 0.82715 0.60728 0.35054 0.0
H1277 H 0.82462 0.57057 0.07512 0.0
H1278 H 0.79926 0.56889 0.13164 0.0
H1279 H 0.84029 0.57668 0.24668 0.0
H1280 H 0.86593 0.57871 0.19021 0.0
H1281 H 0.82511 0.602 0.25568 0.0
H1282 H 0.79722 0.53016 0.22557 0.0
H1283 H 0.7847 0.49892 0.17679 0.0
H1284 H 0.73713 0.50851 0.11964 0.0
H1285 H 0.74955 0.53998 0.16761 0.0
C1286 C 0.74976 0.57998 0.40086 0.0
C1287 C 0.73209 0.57969 0.38329 0.0
C1288 C 0.76333 0.57813 0.37023 0.0
C1289 C 0.75955 0.57606 0.32142 0.0
C1290 C 0.74162 0.57514 0.30385 0.0
C1291 C 0.72802 0.57701 0.3345 0.0
C1292 C 0.77462 0.5754 0.28866 0.0
C1293 C 0.76813 0.55825 0.25906 0.0
C1294 C 0.79544 0.59132 0.28757 0.0
C1295 C 0.803 0.61033 0.31617 0.0
C1296 C 0.79371 0.62255 0.31235 0.0
C1297 C 0.80084 0.64038 0.3396 0.0
C1298 C 0.81736 0.64623 0.37056 0.0
C1299 C 0.82682 0.63429 0.37423 0.0
C1300 C 0.81973 0.61644 0.34709 0.0
C1301 C 0.82821 0.57177 0.11246 0.0
C1302 C 0.84732 0.57481 0.12816 0.0
C1303 C 0.81364 0.5707 0.14476 0.0
C1304 C 0.8178 0.57247 0.19342 0.0
C1305 C 0.83676 0.57525 0.20927 0.0
C1306 C 0.85137 0.57635 0.17696 0.0
C1307 C 0.80278 0.57246 0.2275 0.0
C1308 C 0.80927 0.58955 0.25732 0.0
C1309 C 0.78198 0.55648 0.22873 0.0
C1310 C 0.77444 0.53754 0.19989 0.0
C1311 C 0.78419 0.5257 0.20232 0.0
C1312 C 0.77709 0.50794 0.17487 0.0
C1313 C 0.76016 0.50176 0.14505 0.0
C1314 C 0.75026 0.51332 0.14272 0.0
C1315 C 0.75731 0.53111 0.17007 0.0
H1316 H 0.75468 0.488 0.12383 0.0
H1317 H 0.82286 0.66004 0.39162 0.0
H1318 H 0.14367 0.71355 0.49266 0.0
H1319 H 0.17147 0.73795 0.44148 0.0
H1320 H 0.19672 0.78097 0.55718 0.0
H1321 H 0.16894 0.75679 0.60844 0.0
H1322 H 0.19389 0.79924 0.4777 0.0
H1323 H 0.22011 0.7549 0.52068 0.0
H1324 H 0.2191 0.72177 0.53053 0.0
H1325 H 0.21051 0.71094 0.38107 0.0
H1326 H 0.21117 0.74389 0.3704 0.0
H1327 H 0.28609 0.87015 0.36274 0.0
H1328 H 0.26243 0.84472 0.41941 0.0
H1329 H 0.23605 0.79963 0.30797 0.0
H1330 H 0.25985 0.82481 0.25126 0.0
H1331 H 0.24048 0.78264 0.38761 0.0
H1332 H 0.21243 0.82574 0.34495 0.0
H1333 H 0.21303 0.85865 0.33429 0.0
H1334 H 0.22454 0.87145 0.48255 0.0
H1335 H 0.22427 0.83871 0.49398 0.0
C1336 C 0.15521 0.72815 0.5073 0.0
C1337 C 0.15408 0.73324 0.55461 0.0
C1338 C 0.17114 0.74204 0.47806 0.0
C1339 C 0.18624 0.76121 0.49566 0.0
C1340 C 0.18523 0.76625 0.54293 0.0
C1341 C 0.16935 0.75238 0.57219 0.0
C1342 C 0.20263 0.77638 0.46429 0.0
C1343 C 0.2043 0.79573 0.45859 0.0
C1344 C 0.21586 0.77159 0.43853 0.0
C1345 C 0.21549 0.75178 0.44481 0.0
C1346 C 0.21783 0.74538 0.48996 0.0
C1347 C 0.21736 0.72664 0.49568 0.0
C1348 C 0.21469 0.71423 0.45647 0.0
C1349 C 0.21255 0.72055 0.41143 0.0
C1350 C 0.21299 0.73927 0.40551 0.0
C1351 C 0.27536 0.85477 0.35035 0.0
C1352 C 0.27473 0.84955 0.30241 0.0
C1353 C 0.26181 0.84028 0.38275 0.0
C1354 C 0.24727 0.82038 0.36774 0.0
C1355 C 0.24711 0.81492 0.32027 0.0
C1356 C 0.26069 0.82936 0.28788 0.0
C1357 C 0.23171 0.80547 0.40104 0.0
C1358 C 0.23015 0.78617 0.40699 0.0
C1359 C 0.21851 0.81025 0.42695 0.0
C1360 C 0.21854 0.82988 0.42022 0.0
C1361 C 0.21524 0.83564 0.37521 0.0
C1362 C 0.21549 0.85425 0.36904 0.0
C1363 C 0.21888 0.86716 0.40769 0.0
C1364 C 0.22195 0.86145 0.45263 0.0
C1365 C 0.22173 0.84286 0.45898 0.0
H1366 H 0.21908 0.88156 0.40284 0.0
H1367 H 0.21434 0.69973 0.46097 0.0
loop_
_geom_bond_atom_site_label_1
_geom_bond_atom_site_label_2
_geom_bond_distance
_geom_bond_site_symmetry_2
_ccdc_geom_bond_type
Mg0 O1 2.028 . S
Mg0 O7 1.986 . S
Mg0 O9 2.114 . S
Mg0 O10 2.251 . S
Mg0 O13 2.010 . S
O1 Mg0 2.028 . S
O1 C4 1.250 . S
O2 Mg3 2.028 . S
O2 C4 1.248 . S
Mg3 O2 2.028 . S
Mg3 O8 2.032 . S
Mg3 O10 2.079 . S
C4 O1 1.250 . S
C4 O2 1.248 . S
C5 O6 1.264 . S
C5 O13 1.249 . S
O6 C5 1.264 . S
O7 Mg0 1.986 . S
O7 C11 1.246 . S
O8 Mg3 2.032 . S
O8 C11 1.259 . S
O9 Mg0 2.114 . S
O9 C12 1.252 . S
O10 Mg0 2.251 . S
O10 Mg3 2.079 . S
O10 C12 1.273 . S
C11 O7 1.246 . S
C11 O8 1.259 . S
C12 O9 1.252 . S
C12 O10 1.273 . S
O13 Mg0 2.010 . S
O13 C5 1.249 . S
Mg14 O15 2.028 . S
Mg14 O21 1.986 . S
Mg14 O23 2.114 . S
Mg14 O24 2.251 . S
Mg14 O27 2.010 . S
O15 Mg14 2.028 . S
O15 C18 1.250 . S
O16 Mg17 2.028 . S
O16 C18 1.248 . S
Mg17 O16 2.028 . S
Mg17 O22 2.032 . S
Mg17 O24 2.079 . S
C18 O15 1.250 . S
C18 O16 1.248 . S
C19 O20 1.264 . S
C19 O27 1.249 . S
O20 C19 1.264 . S
O21 Mg14 1.986 . S
O21 C25 1.246 . S
O22 Mg17 2.032 . S
O22 C25 1.259 . S
O23 Mg14 2.114 . S
O23 C26 1.252 . S
O24 Mg14 2.251 . S
O24 Mg17 2.079 . S
O24 C26 1.273 . S
C25 O21 1.246 . S
C25 O22 1.259 . S
C26 O23 1.252 . S
C26 O24 1.273 . S
O27 Mg14 2.010 . S
O27 C19 1.249 . S
Mg28 O29 2.028 . S
Mg28 O35 1.986 . S
Mg28 O37 2.114 . S
Mg28 O38 2.251 . S
Mg28 O41 2.010 . S
O29 Mg28 2.028 . S
O29 C32 1.250 . S
O30 Mg31 2.028 . S
O30 C32 1.248 . S
Mg31 O30 2.028 . S
Mg31 O36 2.032 . S
Mg31 O38 2.079 . S
C32 O29 1.250 . S
C32 O30 1.248 . S
C33 O34 1.264 . S
C33 O41 1.249 . S
O34 C33 1.264 . S
O35 Mg28 1.986 . S
O35 C39 1.246 . S
O36 Mg31 2.032 . S
O36 C39 1.259 . S
O37 Mg28 2.114 . S
O37 C40 1.252 . S
O38 Mg28 2.251 . S
O38 Mg31 2.079 . S
O38 C40 1.273 . S
C39 O35 1.246 . S
C39 O36 1.259 . S
C40 O37 1.252 . S
C40 O38 1.273 . S
O41 Mg28 2.010 . S
O41 C33 1.249 . S
Mg42 O43 2.028 . S
Mg42 O49 1.986 . S
Mg42 O51 2.114 . S
Mg42 O52 2.251 . S
Mg42 O55 2.010 . S
O43 Mg42 2.028 . S
O43 C46 1.250 . S
O44 Mg45 2.028 . S
O44 C46 1.248 . S
Mg45 O44 2.028 . S
Mg45 O50 2.032 . S
Mg45 O52 2.079 . S
C46 O43 1.250 . S
C46 O44 1.248 . S
C47 O48 1.264 . S
C47 O55 1.249 . S
O48 C47 1.264 . S
O49 Mg42 1.986 . S
O49 C53 1.246 . S
O50 Mg45 2.032 . S
O50 C53 1.259 . S
O51 Mg42 2.114 . S
O51 C54 1.252 . S
O52 Mg42 2.251 . S
O52 Mg45 2.079 . S
O52 C54 1.273 . S
C53 O49 1.246 . S
C53 O50 1.259 . S
C54 O51 1.252 . S
C54 O52 1.273 . S
O55 Mg42 2.010 . S
O55 C47 1.249 . S
Mg56 O57 2.028 . S
Mg56 O63 1.986 . S
Mg56 O65 2.114 . S
Mg56 O66 2.251 . S
Mg56 O69 2.010 . S
O57 Mg56 2.028 . S
O57 C60 1.250 . S
O58 Mg59 2.028 . S
O58 C60 1.248 . S
Mg59 O58 2.028 . S
Mg59 O64 2.032 . S
Mg59 O66 2.079 . S
C60 O57 1.250 . S
C60 O58 1.248 . S
C61 O62 1.264 . S
C61 O69 1.249 . S
O62 C61 1.264 . S
O63 Mg56 1.986 . S
O63 C67 1.246 . S
O64 Mg59 2.032 . S
O64 C67 1.259 . S
O65 Mg56 2.114 . S
O65 C68 1.252 . S
O66 Mg56 2.251 . S
O66 Mg59 2.079 . S
O66 C68 1.273 . S
C67 O63 1.246 . S
C67 O64 1.259 . S
C68 O65 1.252 . S
C68 O66 1.273 . S
O69 Mg56 2.010 . S
O69 C61 1.249 . S
Mg70 O71 2.028 . S
Mg70 O77 1.986 . S
Mg70 O79 2.114 . S
Mg70 O80 2.251 . S
Mg70 O83 2.010 . S
O71 Mg70 2.028 . S
O71 C74 1.250 . S
O72 Mg73 2.028 . S
O72 C74 1.248 . S
Mg73 O72 2.028 . S
Mg73 O78 2.032 . S
Mg73 O80 2.079 . S
C74 O71 1.250 . S
C74 O72 1.248 . S
C75 O76 1.264 . S
C75 O83 1.249 . S
O76 C75 1.264 . S
O77 Mg70 1.986 . S
O77 C81 1.246 . S
O78 Mg73 2.032 . S
O78 C81 1.259 . S
O79 Mg70 2.114 . S
O79 C82 1.252 . S
O80 Mg70 2.251 . S
O80 Mg73 2.079 . S
O80 C82 1.273 . S
C81 O77 1.246 . S
C81 O78 1.259 . S
C82 O79 1.252 . S
C82 O80 1.273 . S
O83 Mg70 2.010 . S
O83 C75 1.249 . S
Mg84 O85 2.028 . S
Mg84 O91 1.986 . S
Mg84 O93 2.114 . S
Mg84 O94 2.251 . S
Mg84 O97 2.010 . S
O85 Mg84 2.028 . S
O85 C88 1.250 . S
O86 Mg87 2.028 . S
O86 C88 1.248 . S
Mg87 O86 2.028 . S
Mg87 O92 2.032 . S
Mg87 O94 2.079 . S
C88 O85 1.250 . S
C88 O86 1.248 . S
C89 O90 1.264 . S
C89 O97 1.249 . S
O90 C89 1.264 . S
O91 Mg84 1.986 . S
O91 C95 1.246 . S
O92 Mg87 2.032 . S
O92 C95 1.259 . S
O93 Mg84 2.114 . S
O93 C96 1.252 . S
O94 Mg84 2.251 . S
O94 Mg87 2.079 . S
O94 C96 1.273 . S
C95 O91 1.246 . S
C95 O92 1.259 . S
C96 O93 1.252 . S
C96 O94 1.273 . S
O97 Mg84 2.010 . S
O97 C89 1.249 . S
Mg98 O99 2.028 . S
Mg98 O105 1.986 . S
Mg98 O107 2.114 . S
Mg98 O108 2.251 . S
Mg98 O111 2.010 . S
O99 Mg98 2.028 . S
O99 C102 1.250 . S
O100 Mg101 2.028 . S
O100 C102 1.248 . S
Mg101 O100 2.028 . S
Mg101 O106 2.032 . S
Mg101 O108 2.079 . S
C102 O99 1.250 . S
C102 O100 1.248 . S
C103 O104 1.264 . S
C103 O111 1.249 . S
O104 C103 1.264 . S
O105 Mg98 1.986 . S
O105 C109 1.246 . S
O106 Mg101 2.032 . S
O106 C109 1.259 . S
O107 Mg98 2.114 . S
O107 C110 1.252 . S
O108 Mg98 2.251 . S
O108 Mg101 2.079 . S
O108 C110 1.273 . S
C109 O105 1.246 . S
C109 O106 1.259 . S
C110 O107 1.252 . S
C110 O108 1.273 . S
O111 Mg98 2.010 . S
O111 C103 1.249 . S
Mg112 O113 2.028 . S
Mg112 O119 1.986 . S
Mg112 O121 2.114 . S
Mg112 O122 2.251 . S
Mg112 O125 2.010 . S
O113 Mg112 2.028 . S
O113 C116 1.250 . S
O114 Mg115 2.028 . S
O114 C116 1.248 . S
Mg115 O114 2.028 . S
Mg115 O120 2.032 . S
Mg115 O122 2.079 . S
C116 O113 1.250 . S
C116 O114 1.248 . S
C117 O118 1.264 . S
C117 O125 1.249 . S
O118 C117 1.264 . S
O119 Mg112 1.986 . S
O119 C123 1.246 . S
O120 Mg115 2.032 . S
O120 C123 1.259 . S
O121 Mg112 2.114 . S
O121 C124 1.252 . S
O122 Mg112 2.251 . S
O122 Mg115 2.079 . S
O122 C124 1.273 . S
C123 O119 1.246 . S
C123 O120 1.259 . S
C124 O121 1.252 . S
C124 O122 1.273 . S
O125 Mg112 2.010 . S
O125 C117 1.249 . S
Mg126 O127 2.028 . S
Mg126 O133 1.986 . S
Mg126 O135 2.114 . S
Mg126 O136 2.251 . S
Mg126 O139 2.010 . S
O127 Mg126 2.028 . S
O127 C130 1.250 . S
O128 Mg129 2.028 . S
O128 C130 1.248 . S
Mg129 O128 2.028 . S
Mg129 O134 2.032 . S
Mg129 O136 2.079 . S
C130 O127 1.250 . S
C130 O128 1.248 . S
C131 O132 1.264 . S
C131 O139 1.249 . S
O132 C131 1.264 . S
O133 Mg126 1.986 . S
O133 C137 1.246 . S
O134 Mg129 2.032 . S
O134 C137 1.259 . S
O135 Mg126 2.114 . S
O135 C138 1.252 . S
O136 Mg126 2.251 . S
O136 Mg129 2.079 . S
O136 C138 1.273 . S
C137 O133 1.246 . S
C137 O134 1.259 . S
C138 O135 1.252 . S
C138 O136 1.273 . S
O139 Mg126 2.010 . S
O139 C131 1.249 . S
Mg140 O141 2.028 . S
Mg140 O147 1.986 . S
Mg140 O149 2.114 . S
Mg140 O150 2.251 . S
Mg140 O153 2.010 . S
O141 Mg140 2.028 . S
O141 C144 1.250 . S
O142 Mg143 2.028 . S
O142 C144 1.248 . S
Mg143 O142 2.028 . S
Mg143 O148 2.032 . S
Mg143 O150 2.079 . S
C144 O141 1.250 . S
C144 O142 1.248 . S
C145 O146 1.264 . S
C145 O153 1.249 . S
O146 C145 1.264 . S
O147 Mg140 1.986 . S
O147 C151 1.246 . S
O148 Mg143 2.032 . S
O148 C151 1.259 . S
O149 Mg140 2.114 . S
O149 C152 1.252 . S
O150 Mg140 2.251 . S
O150 Mg143 2.079 . S
O150 C152 1.273 . S
C151 O147 1.246 . S
C151 O148 1.259 . S
C152 O149 1.252 . S
C152 O150 1.273 . S
O153 Mg140 2.010 . S
O153 C145 1.249 . S
Mg154 O155 2.028 . S
Mg154 O161 1.986 . S
Mg154 O163 2.114 . S
Mg154 O164 2.251 . S
Mg154 O167 2.010 . S
O155 Mg154 2.028 . S
O155 C158 1.250 . S
O156 Mg157 2.028 . S
O156 C158 1.248 . S
Mg157 O156 2.028 . S
Mg157 O162 2.032 . S
Mg157 O164 2.079 . S
C158 O155 1.250 . S
C158 O156 1.248 . S
C159 O160 1.264 . S
C159 O167 1.249 . S
O160 C159 1.264 . S
O161 Mg154 1.986 . S
O161 C165 1.246 . S
O162 Mg157 2.032 . S
O162 C165 1.259 . S
O163 Mg154 2.114 . S
O163 C166 1.252 . S
O164 Mg154 2.251 . S
O164 Mg157 2.079 . S
O164 C166 1.273 . S
C165 O161 1.246 . S
C165 O162 1.259 . S
C166 O163 1.252 . S
C166 O164 1.273 . S
O167 Mg154 2.010 . S
O167 C159 1.249 . S
H168 C186 0.951 . S
H169 C188 0.951 . S
H170 C190 0.950 . S
H171 C191 0.950 . S
H172 C193 0.950 . S
H173 C196 0.950 . S
H174 C197 0.950 . S
H175 C199 0.950 . S
H176 C200 0.950 . S
H177 C201 0.951 . S
H178 C203 0.951 . S
H179 C205 0.950 . S
H180 C206 0.950 . S
H181 C208 0.950 . S
H182 C211 0.950 . S
H183 C212 0.950 . S
H184 C214 0.950 . S
H185 C215 0.950 . S
C186 H168 0.951 . S
C186 C187 1.366 . S
C186 C188 1.388 . S
C187 C186 1.366 . S
C187 C191 1.385 . S
C188 H169 0.951 . S
C188 C186 1.388 . S
C188 C189 1.366 . S
C189 C188 1.366 . S
C189 C190 1.414 . S
C189 C192 1.499 . S
C190 H170 0.950 . S
C190 C189 1.414 . S
C190 C191 1.374 . S
C191 H171 0.950 . S
C191 C187 1.385 . S
C191 C190 1.374 . S
C192 C189 1.499 . S
C192 C193 1.373 . S
C192 C194 1.389 . S
C193 H172 0.950 . S
C193 C192 1.373 . S
C193 C209 1.377 . S
C194 C192 1.389 . S
C194 C195 1.524 . S
C194 C208 1.377 . S
C195 C194 1.524 . S
C195 C196 1.397 . S
C195 C200 1.363 . S
C196 H173 0.950 . S
C196 C195 1.397 . S
C196 C197 1.334 . S
C197 H174 0.950 . S
C197 C196 1.334 . S
C197 C198 1.287 . S
C198 C197 1.287 . S
C198 C199 1.524 . S
C198 H217 0.913 . S
C199 H175 0.950 . S
C199 C198 1.524 . S
C199 C200 1.415 . S
C200 H176 0.950 . S
C200 C195 1.363 . S
C200 C199 1.415 . S
C201 H177 0.951 . S
C201 C202 1.366 . S
C201 C203 1.388 . S
C202 C201 1.366 . S
C202 C206 1.385 . S
C203 H178 0.951 . S
C203 C201 1.388 . S
C203 C204 1.366 . S
C204 C203 1.366 . S
C204 C205 1.414 . S
C204 C207 1.499 . S
C205 H179 0.950 . S
C205 C204 1.414 . S
C205 C206 1.374 . S
C206 H180 0.950 . S
C206 C202 1.385 . S
C206 C205 1.374 . S
C207 C204 1.499 . S
C207 C208 1.373 . S
C207 C209 1.389 . S
C208 H181 0.950 . S
C208 C194 1.377 . S
C208 C207 1.373 . S
C209 C193 1.377 . S
C209 C207 1.389 . S
C209 C210 1.524 . S
C210 C209 1.524 . S
C210 C211 1.397 . S
C210 C215 1.363 . S
C211 H182 0.950 . S
C211 C210 1.397 . S
C211 C212 1.334 . S
C212 H183 0.950 . S
C212 C211 1.334 . S
C212 C213 1.287 . S
C213 C212 1.287 . S
C213 C214 1.524 . S
C213 H216 0.999 . S
C214 H184 0.950 . S
C214 C213 1.524 . S
C214 C215 1.415 . S
C215 H185 0.950 . S
C215 C210 1.363 . S
C215 C214 1.415 . S
H216 C213 0.999 . S
H217 C198 0.913 . S
H218 C236 0.951 . S
H219 C238 0.951 . S
H220 C240 0.950 . S
H221 C241 0.950 . S
H222 C243 0.950 . S
H223 C246 0.950 1_455 S
H224 C247 0.950 . S
H225 C249 0.950 . S
H226 C250 0.950 . S
H227 C251 0.951 . S
H228 C253 0.951 . S
H229 C255 0.950 . S
H230 C256 0.950 . S
H231 C258 0.950 . S
H232 C261 0.950 1_655 S
H233 C262 0.950 . S
H234 C264 0.950 . S
H235 C265 0.950 . S
C236 H218 0.951 . S
C236 C237 1.366 . S
C236 C238 1.388 . S
C237 C236 1.366 . S
C237 C241 1.385 . S
C238 H219 0.951 . S
C238 C236 1.388 . S
C238 C239 1.366 . S
C239 C238 1.366 . S
C239 C240 1.414 . S
C239 C242 1.499 . S
C240 H220 0.950 . S
C240 C239 1.414 . S
C240 C241 1.374 . S
C241 H221 0.950 . S
C241 C237 1.385 . S
C241 C240 1.374 . S
C242 C239 1.499 . S
C242 C243 1.373 . S
C242 C244 1.389 1_455 S
C243 H222 0.950 . S
C243 C242 1.373 . S
C243 C259 1.377 . S
C244 C242 1.389 1_655 S
C244 C245 1.524 . S
C244 C258 1.377 . S
C245 C244 1.524 . S
C245 C246 1.397 . S
C245 C250 1.363 . S
C246 H223 0.950 1_655 S
C246 C245 1.397 . S
C246 C247 1.334 . S
C247 H224 0.950 . S
C247 C246 1.334 . S
C247 C248 1.287 . S
C248 C247 1.287 . S
C248 C249 1.524 . S
C248 H267 0.913 . S
C249 H225 0.950 . S
C249 C248 1.524 . S
C249 C250 1.415 . S
C250 H226 0.950 . S
C250 C245 1.363 . S
C250 C249 1.415 . S
C251 H227 0.951 . S
C251 C252 1.366 . S
C251 C253 1.388 . S
C252 C251 1.366 . S
C252 C256 1.385 . S
C253 H228 0.951 . S
C253 C251 1.388 . S
C253 C254 1.366 . S
C254 C253 1.366 . S
C254 C255 1.414 . S
C254 C257 1.499 . S
C255 H229 0.950 . S
C255 C254 1.414 . S
C255 C256 1.374 . S
C256 H230 0.950 . S
C256 C252 1.385 . S
C256 C255 1.374 . S
C257 C254 1.499 . S
C257 C258 1.373 . S
C257 C259 1.389 1_655 S
C258 H231 0.950 . S
C258 C244 1.377 . S
C258 C257 1.373 . S
C259 C243 1.377 . S
C259 C257 1.389 1_455 S
C259 C260 1.524 . S
C260 C259 1.524 . S
C260 C261 1.397 . S
C260 C265 1.363 . S
C261 H232 0.950 1_455 S
C261 C260 1.397 . S
C261 C262 1.334 . S
C262 H233 0.950 . S
C262 C261 1.334 . S
C262 C263 1.287 . S
C263 C262 1.287 . S
C263 C264 1.524 . S
C263 H266 0.999 . S
C264 H234 0.950 . S
C264 C263 1.524 . S
C264 C265 1.415 . S
C265 H235 0.950 . S
C265 C260 1.363 . S
C265 C264 1.415 . S
H266 C263 0.999 . S
H267 C248 0.913 . S
H268 C286 0.951 . S
H269 C288 0.951 . S
H270 C290 0.950 . S
H271 C291 0.950 . S
H272 C293 0.950 . S
H273 C296 0.950 . S
H274 C297 0.950 . S
H275 C299 0.950 . S
H276 C300 0.950 . S
H277 C301 0.951 . S
H278 C303 0.951 . S
H279 C305 0.950 . S
H280 C306 0.950 . S
H281 C308 0.950 . S
H282 C311 0.950 . S
H283 C312 0.950 . S
H284 C314 0.950 . S
H285 C315 0.950 . S
C286 H268 0.951 . S
C286 C287 1.366 . S
C286 C288 1.388 . S
C287 C286 1.366 . S
C287 C291 1.385 . S
C288 H269 0.951 . S
C288 C286 1.388 . S
C288 C289 1.366 . S
C289 C288 1.366 . S
C289 C290 1.414 . S
C289 C292 1.499 . S
C290 H270 0.950 . S
C290 C289 1.414 . S
C290 C291 1.374 . S
C291 H271 0.950 . S
C291 C287 1.385 . S
C291 C290 1.374 . S
C292 C289 1.499 . S
C292 C293 1.373 1_565 S
C292 C294 1.389 . S
C293 H272 0.950 . S
C293 C292 1.373 1_545 S
C293 C309 1.377 . S
C294 C292 1.389 . S
C294 C295 1.524 . S
C294 C308 1.377 . S
C295 C294 1.524 . S
C295 C296 1.397 . S
C295 C300 1.363 . S
C296 H273 0.950 . S
C296 C295 1.397 . S
C296 C297 1.334 . S
C297 H274 0.950 . S
C297 C296 1.334 . S
C297 C298 1.287 . S
C298 C297 1.287 . S
C298 C299 1.524 . S
C298 H317 0.913 . S
C299 H275 0.950 . S
C299 C298 1.524 . S
C299 C300 1.415 . S
C300 H276 0.950 . S
C300 C295 1.363 . S
C300 C299 1.415 . S
C301 H277 0.951 . S
C301 C302 1.366 . S
C301 C303 1.388 . S
C302 C301 1.366 . S
C302 C306 1.385 . S
C303 H278 0.951 . S
C303 C301 1.388 . S
C303 C304 1.366 . S
C304 C303 1.366 . S
C304 C305 1.414 . S
C304 C307 1.499 . S
C305 H279 0.950 . S
C305 C304 1.414 . S
C305 C306 1.374 . S
C306 H280 0.950 . S
C306 C302 1.385 . S
C306 C305 1.374 . S
C307 C304 1.499 . S
C307 C308 1.373 1_545 S
C307 C309 1.389 . S
C308 H281 0.950 . S
C308 C294 1.377 . S
C308 C307 1.373 1_565 S
C309 C293 1.377 . S
C309 C307 1.389 . S
C309 C310 1.524 . S
C310 C309 1.524 . S
C310 C311 1.397 . S
C310 C315 1.363 . S
C311 H282 0.950 . S
C311 C310 1.397 . S
C311 C312 1.334 . S
C312 H283 0.950 . S
C312 C311 1.334 . S
C312 C313 1.287 . S
C313 C312 1.287 . S
C313 C314 1.524 . S
C313 H316 0.999 . S
C314 H284 0.950 . S
C314 C313 1.524 . S
C314 C315 1.415 . S
C315 H285 0.950 . S
C315 C310 1.363 . S
C315 C314 1.415 . S
H316 C313 0.999 . S
H317 C298 0.913 . S
H318 C336 0.951 . S
H319 C338 0.951 . S
H320 C340 0.950 . S
H321 C341 0.950 . S
H322 C343 0.950 . S
H323 C346 0.950 . S
H324 C347 0.950 . S
H325 C349 0.950 . S
H326 C350 0.950 . S
H327 C351 0.951 . S
H328 C353 0.951 . S
H329 C355 0.950 . S
H330 C356 0.950 . S
H331 C358 0.950 . S
H332 C361 0.950 . S
H333 C362 0.950 . S
H334 C364 0.950 . S
H335 C365 0.950 . S
C336 H318 0.951 . S
C336 C337 1.366 . S
C336 C338 1.388 . S
C337 C336 1.366 . S
C337 C341 1.385 . S
C338 H319 0.951 . S
C338 C336 1.388 . S
C338 C339 1.366 . S
C339 C338 1.366 . S
C339 C340 1.414 . S
C339 C342 1.499 . S
C340 H320 0.950 . S
C340 C339 1.414 . S
C340 C341 1.374 . S
C341 H321 0.950 . S
C341 C337 1.385 . S
C341 C340 1.374 . S
C342 C339 1.499 . S
C342 C343 1.373 . S
C342 C344 1.389 . S
C343 H322 0.950 . S
C343 C342 1.373 . S
C343 C359 1.377 . S
C344 C342 1.389 . S
C344 C345 1.524 . S
C344 C358 1.377 . S
C345 C344 1.524 . S
C345 C346 1.397 . S
C345 C350 1.363 . S
C346 H323 0.950 . S
C346 C345 1.397 . S
C346 C347 1.334 . S
C347 H324 0.950 . S
C347 C346 1.334 . S
C347 C348 1.287 . S
C348 C347 1.287 . S
C348 C349 1.524 . S
C348 H367 0.913 . S
C349 H325 0.950 . S
C349 C348 1.524 . S
C349 C350 1.415 . S
C350 H326 0.950 . S
C350 C345 1.363 . S
C350 C349 1.415 . S
C351 H327 0.951 . S
C351 C352 1.366 . S
C351 C353 1.388 . S
C352 C351 1.366 . S
C352 C356 1.385 . S
C353 H328 0.951 . S
C353 C351 1.388 . S
C353 C354 1.366 . S
C354 C353 1.366 . S
C354 C355 1.414 . S
C354 C357 1.499 . S
C355 H329 0.950 . S
C355 C354 1.414 . S
C355 C356 1.374 . S
C356 H330 0.950 . S
C356 C352 1.385 . S
C356 C355 1.374 . S
C357 C354 1.499 . S
C357 C358 1.373 . S
C357 C359 1.389 . S
C358 H331 0.950 . S
C358 C344 1.377 . S
C358 C357 1.373 . S
C359 C343 1.377 . S
C359 C357 1.389 . S
C359 C360 1.524 . S
C360 C359 1.524 . S
C360 C361 1.397 . S
C360 C365 1.363 . S
C361 H332 0.950 . S
C361 C360 1.397 . S
C361 C362 1.334 . S
C362 H333 0.950 . S
C362 C361 1.334 . S
C362 C363 1.287 . S
C363 C362 1.287 . S
C363 C364 1.524 . S
C363 H366 0.999 . S
C364 H334 0.950 . S
C364 C363 1.524 . S
C364 C365 1.415 . S
C365 H335 0.950 . S
C365 C360 1.363 . S
C365 C364 1.415 . S
H366 C363 0.999 . S
H367 C348 0.913 . S
H368 C386 0.951 . S
H369 C388 0.951 . S
H370 C390 0.950 . S
H371 C391 0.950 . S
H372 C393 0.950 . S
H373 C396 0.950 . S
H374 C397 0.950 . S
H375 C399 0.950 . S
H376 C400 0.950 . S
H377 C401 0.951 . S
H378 C403 0.951 . S
H379 C405 0.950 . S
H380 C406 0.950 1_554 S
H381 C408 0.950 . S
H382 C411 0.950 . S
H383 C412 0.950 . S
H384 C414 0.950 . S
H385 C415 0.950 . S
C386 H368 0.951 . S
C386 C387 1.366 . S
C386 C388 1.388 . S
C387 C386 1.366 . S
C387 C391 1.385 . S
C388 H369 0.951 . S
C388 C386 1.388 . S
C388 C389 1.366 . S
C389 C388 1.366 . S
C389 C390 1.414 . S
C389 C392 1.499 . S
C390 H370 0.950 . S
C390 C389 1.414 . S
C390 C391 1.374 . S
C391 H371 0.950 . S
C391 C387 1.385 . S
C391 C390 1.374 . S
C392 C389 1.499 . S
C392 C393 1.373 1_455 S
C392 C394 1.389 . S
C393 H372 0.950 . S
C393 C392 1.373 1_655 S
C393 C409 1.377 . S
C394 C392 1.389 . S
C394 C395 1.524 . S
C394 C408 1.377 . S
C395 C394 1.524 . S
C395 C396 1.397 . S
C395 C400 1.363 . S
C396 H373 0.950 . S
C396 C395 1.397 . S
C396 C397 1.334 . S
C397 H374 0.950 . S
C397 C396 1.334 . S
C397 C398 1.287 . S
C398 C397 1.287 . S
C398 C399 1.524 . S
C398 H417 0.913 . S
C399 H375 0.950 . S
C399 C398 1.524 . S
C399 C400 1.415 . S
C400 H376 0.950 . S
C400 C395 1.363 . S
C400 C399 1.415 . S
C401 H377 0.951 . S
C401 C402 1.366 . S
C401 C403 1.388 . S
C402 C401 1.366 . S
C402 C406 1.385 . S
C403 H378 0.951 . S
C403 C401 1.388 . S
C403 C404 1.366 . S
C404 C403 1.366 . S
C404 C405 1.414 . S
C404 C407 1.499 . S
C405 H379 0.950 . S
C405 C404 1.414 . S
C405 C406 1.374 . S
C406 H380 0.950 1_556 S
C406 C402 1.385 . S
C406 C405 1.374 . S
C407 C404 1.499 . S
C407 C408 1.373 1_655 S
C407 C409 1.389 . S
C408 H381 0.950 . S
C408 C394 1.377 . S
C408 C407 1.373 1_455 S
C409 C393 1.377 . S
C409 C407 1.389 . S
C409 C410 1.524 . S
C410 C409 1.524 . S
C410 C411 1.397 . S
C410 C415 1.363 . S
C411 H382 0.950 . S
C411 C410 1.397 . S
C411 C412 1.334 . S
C412 H383 0.950 . S
C412 C411 1.334 . S
C412 C413 1.287 . S
C413 C412 1.287 . S
C413 C414 1.524 . S
C413 H416 0.999 . S
C414 H384 0.950 . S
C414 C413 1.524 . S
C414 C415 1.415 . S
C415 H385 0.950 . S
C415 C410 1.363 . S
C415 C414 1.415 . S
H416 C413 0.999 . S
H417 C398 0.913 . S
H418 C436 0.951 . S
H419 C438 0.951 . S
H420 C440 0.950 . S
H421 C441 0.950 . S
H422 C443 0.950 . S
H423 C446 0.950 . S
H424 C447 0.950 . S
H425 C449 0.950 . S
H426 C450 0.950 . S
H427 C451 0.951 . S
H428 C453 0.951 . S
H429 C455 0.950 . S
H430 C456 0.950 . S
H431 C458 0.950 . S
H432 C461 0.950 . S
H433 C462 0.950 . S
H434 C464 0.950 . S
H435 C465 0.950 . S
C436 H418 0.951 . S
C436 C437 1.366 . S
C436 C438 1.388 . S
C437 C436 1.366 . S
C437 C441 1.385 . S
C438 H419 0.951 . S
C438 C436 1.388 . S
C438 C439 1.366 . S
C439 C438 1.366 . S
C439 C440 1.414 . S
C439 C442 1.499 . S
C440 H420 0.950 . S
C440 C439 1.414 . S
C440 C441 1.374 . S
C441 H421 0.950 . S
C441 C437 1.385 . S
C441 C440 1.374 . S
C442 C439 1.499 . S
C442 C443 1.373 1_556 S
C442 C444 1.389 1_545 S
C443 H422 0.950 . S
C443 C442 1.373 1_554 S
C443 C459 1.377 . S
C444 C442 1.389 1_565 S
C444 C445 1.524 . S
C444 C458 1.377 . S
C445 C444 1.524 . S
C445 C446 1.397 . S
C445 C450 1.363 . S
C446 H423 0.950 . S
C446 C445 1.397 . S
C446 C447 1.334 . S
C447 H424 0.950 . S
C447 C446 1.334 . S
C447 C448 1.287 . S
C448 C447 1.287 . S
C448 C449 1.524 . S
C448 H467 0.913 . S
C449 H425 0.950 . S
C449 C448 1.524 . S
C449 C450 1.415 . S
C450 H426 0.950 . S
C450 C445 1.363 . S
C450 C449 1.415 . S
C451 H427 0.951 . S
C451 C452 1.366 . S
C451 C453 1.388 . S
C452 C451 1.366 . S
C452 C456 1.385 . S
C453 H428 0.951 . S
C453 C451 1.388 . S
C453 C454 1.366 . S
C454 C453 1.366 . S
C454 C455 1.414 . S
C454 C457 1.499 . S
C455 H429 0.950 . S
C455 C454 1.414 . S
C455 C456 1.374 . S
C456 H430 0.950 . S
C456 C452 1.385 . S
C456 C455 1.374 . S
C457 C454 1.499 . S
C457 C458 1.373 1_554 S
C457 C459 1.389 1_565 S
C458 H431 0.950 . S
C458 C444 1.377 . S
C458 C457 1.373 1_556 S
C459 C443 1.377 . S
C459 C457 1.389 1_545 S
C459 C460 1.524 . S
C460 C459 1.524 . S
C460 C461 1.397 . S
C460 C465 1.363 . S
C461 H432 0.950 . S
C461 C460 1.397 . S
C461 C462 1.334 . S
C462 H433 0.950 . S
C462 C461 1.334 . S
C462 C463 1.287 . S
C463 C462 1.287 . S
C463 C464 1.524 . S
C463 H466 0.999 . S
C464 H434 0.950 . S
C464 C463 1.524 . S
C464 C465 1.415 . S
C465 H435 0.950 . S
C465 C460 1.363 . S
C465 C464 1.415 . S
H466 C463 0.999 . S
H467 C448 0.913 . S
H468 C486 0.951 . S
H469 C488 0.951 . S
H470 C490 0.950 . S
H471 C491 0.950 . S
H472 C493 0.950 . S
H473 C496 0.950 . S
H474 C497 0.950 . S
H475 C499 0.950 . S
H476 C500 0.950 . S
H477 C501 0.951 . S
H478 C503 0.951 . S
H479 C505 0.950 . S
H480 C506 0.950 . S
H481 C508 0.950 . S
H482 C511 0.950 . S
H483 C512 0.950 . S
H484 C514 0.950 . S
H485 C515 0.950 . S
C486 H468 0.951 . S
C486 C487 1.366 . S
C486 C488 1.388 . S
C487 C486 1.366 . S
C487 C491 1.385 . S
C488 H469 0.951 . S
C488 C486 1.388 . S
C488 C489 1.366 . S
C489 C488 1.366 . S
C489 C490 1.414 . S
C489 C492 1.499 . S
C490 H470 0.950 . S
C490 C489 1.414 . S
C490 C491 1.374 . S
C491 H471 0.950 . S
C491 C487 1.385 . S
C491 C490 1.374 . S
C492 C489 1.499 . S
C492 C493 1.373 . S
C492 C494 1.389 . S
C493 H472 0.950 . S
C493 C492 1.373 . S
C493 C509 1.377 . S
C494 C492 1.389 . S
C494 C495 1.524 . S
C494 C508 1.377 . S
C495 C494 1.524 . S
C495 C496 1.397 . S
C495 C500 1.363 . S
C496 H473 0.950 . S
C496 C495 1.397 . S
C496 C497 1.334 . S
C497 H474 0.950 . S
C497 C496 1.334 . S
C497 C498 1.287 . S
C498 C497 1.287 . S
C498 C499 1.524 . S
C498 H517 0.913 . S
C499 H475 0.950 . S
C499 C498 1.524 . S
C499 C500 1.415 . S
C500 H476 0.950 . S
C500 C495 1.363 . S
C500 C499 1.415 . S
C501 H477 0.951 . S
C501 C502 1.366 . S
C501 C503 1.388 . S
C502 C501 1.366 . S
C502 C506 1.385 . S
C503 H478 0.951 . S
C503 C501 1.388 . S
C503 C504 1.366 . S
C504 C503 1.366 . S
C504 C505 1.414 . S
C504 C507 1.499 . S
C505 H479 0.950 . S
C505 C504 1.414 . S
C505 C506 1.374 . S
C506 H480 0.950 . S
C506 C502 1.385 . S
C506 C505 1.374 . S
C507 C504 1.499 . S
C507 C508 1.373 . S
C507 C509 1.389 . S
C508 H481 0.950 . S
C508 C494 1.377 . S
C508 C507 1.373 . S
C509 C493 1.377 . S
C509 C507 1.389 . S
C509 C510 1.524 . S
C510 C509 1.524 . S
C510 C511 1.397 . S
C510 C515 1.363 . S
C511 H482 0.950 . S
C511 C510 1.397 . S
C511 C512 1.334 . S
C512 H483 0.950 . S
C512 C511 1.334 . S
C512 C513 1.287 . S
C513 C512 1.287 . S
C513 C514 1.524 . S
C513 H516 0.999 . S
C514 H484 0.950 . S
C514 C513 1.524 . S
C514 C515 1.415 . S
C515 H485 0.950 . S
C515 C510 1.363 . S
C515 C514 1.415 . S
H516 C513 0.999 . S
H517 C498 0.913 . S
H518 C536 0.951 . S
H519 C538 0.951 . S
H520 C540 0.950 . S
H521 C541 0.950 . S
H522 C543 0.950 . S
H523 C546 0.950 . S
H524 C547 0.950 . S
H525 C549 0.950 . S
H526 C550 0.950 . S
H527 C551 0.951 . S
H528 C553 0.951 . S
H529 C555 0.950 . S
H530 C556 0.950 . S
H531 C558 0.950 . S
H532 C561 0.950 . S
H533 C562 0.950 . S
H534 C564 0.950 . S
H535 C565 0.950 . S
C536 H518 0.951 . S
C536 C537 1.366 . S
C536 C538 1.388 . S
C537 C536 1.366 . S
C537 C541 1.385 . S
C538 H519 0.951 . S
C538 C536 1.388 . S
C538 C539 1.366 . S
C539 C538 1.366 . S
C539 C540 1.414 . S
C539 C542 1.499 . S
C540 H520 0.950 . S
C540 C539 1.414 . S
C540 C541 1.374 . S
C541 H521 0.950 . S
C541 C537 1.385 . S
C541 C540 1.374 . S
C542 C539 1.499 . S
C542 C543 1.373 . S
C542 C544 1.389 . S
C543 H522 0.950 . S
C543 C542 1.373 . S
C543 C559 1.377 . S
C544 C542 1.389 . S
C544 C545 1.524 . S
C544 C558 1.377 . S
C545 C544 1.524 . S
C545 C546 1.397 . S
C545 C550 1.363 . S
C546 H523 0.950 . S
C546 C545 1.397 . S
C546 C547 1.334 . S
C547 H524 0.950 . S
C547 C546 1.334 . S
C547 C548 1.287 . S
C548 C547 1.287 . S
C548 C549 1.524 . S
C548 H567 0.913 . S
C549 H525 0.950 . S
C549 C548 1.524 . S
C549 C550 1.415 . S
C550 H526 0.950 . S
C550 C545 1.363 . S
C550 C549 1.415 . S
C551 H527 0.951 . S
C551 C552 1.366 . S
C551 C553 1.388 . S
C552 C551 1.366 . S
C552 C556 1.385 . S
C553 H528 0.951 . S
C553 C551 1.388 . S
C553 C554 1.366 . S
C554 C553 1.366 . S
C554 C555 1.414 . S
C554 C557 1.499 . S
C555 H529 0.950 . S
C555 C554 1.414 . S
C555 C556 1.374 . S
C556 H530 0.950 . S
C556 C552 1.385 . S
C556 C555 1.374 . S
C557 C554 1.499 . S
C557 C558 1.373 . S
C557 C559 1.389 . S
C558 H531 0.950 . S
C558 C544 1.377 . S
C558 C557 1.373 . S
C559 C543 1.377 . S
C559 C557 1.389 . S
C559 C560 1.524 . S
C560 C559 1.524 . S
C560 C561 1.397 . S
C560 C565 1.363 . S
C561 H532 0.950 . S
C561 C560 1.397 . S
C561 C562 1.334 . S
C562 H533 0.950 . S
C562 C561 1.334 . S
C562 C563 1.287 . S
C563 C562 1.287 . S
C563 C564 1.524 . S
C563 H566 0.999 . S
C564 H534 0.950 . S
C564 C563 1.524 . S
C564 C565 1.415 . S
C565 H535 0.950 . S
C565 C560 1.363 . S
C565 C564 1.415 . S
H566 C563 0.999 . S
H567 C548 0.913 . S
H568 C586 0.951 . S
H569 C588 0.951 . S
H570 C590 0.950 . S
H571 C591 0.950 . S
H572 C593 0.950 . S
H573 C596 0.950 . S
H574 C597 0.950 . S
H575 C599 0.950 . S
H576 C600 0.950 . S
H577 C601 0.951 . S
H578 C603 0.951 . S
H579 C605 0.950 . S
H580 C606 0.950 . S
H581 C608 0.950 . S
H582 C611 0.950 . S
H583 C612 0.950 . S
H584 C614 0.950 . S
H585 C615 0.950 . S
C586 H568 0.951 . S
C586 C587 1.366 . S
C586 C588 1.388 . S
C587 C586 1.366 . S
C587 C591 1.385 . S
C588 H569 0.951 . S
C588 C586 1.388 . S
C588 C589 1.366 . S
C589 C588 1.366 . S
C589 C590 1.414 . S
C589 C592 1.499 . S
C590 H570 0.950 . S
C590 C589 1.414 . S
C590 C591 1.374 . S
C591 H571 0.950 . S
C591 C587 1.385 . S
C591 C590 1.374 . S
C592 C589 1.499 . S
C592 C593 1.373 . S
C592 C594 1.389 . S
C593 H572 0.950 . S
C593 C592 1.373 . S
C593 C609 1.377 . S
C594 C592 1.389 . S
C594 C595 1.524 . S
C594 C608 1.377 . S
C595 C594 1.524 . S
C595 C596 1.397 . S
C595 C600 1.363 . S
C596 H573 0.950 . S
C596 C595 1.397 . S
C596 C597 1.334 . S
C597 H574 0.950 . S
C597 C596 1.334 . S
C597 C598 1.287 . S
C598 C597 1.287 . S
C598 C599 1.524 . S
C598 H617 0.913 . S
C599 H575 0.950 . S
C599 C598 1.524 . S
C599 C600 1.415 . S
C600 H576 0.950 . S
C600 C595 1.363 . S
C600 C599 1.415 . S
C601 H577 0.951 . S
C601 C602 1.366 . S
C601 C603 1.388 . S
C602 C601 1.366 . S
C602 C606 1.385 . S
C603 H578 0.951 . S
C603 C601 1.388 . S
C603 C604 1.366 . S
C604 C603 1.366 . S
C604 C605 1.414 . S
C604 C607 1.499 . S
C605 H579 0.950 . S
C605 C604 1.414 . S
C605 C606 1.374 . S
C606 H580 0.950 . S
C606 C602 1.385 . S
C606 C605 1.374 . S
C607 C604 1.499 . S
C607 C608 1.373 . S
C607 C609 1.389 . S
C608 H581 0.950 . S
C608 C594 1.377 . S
C608 C607 1.373 . S
C609 C593 1.377 . S
C609 C607 1.389 . S
C609 C610 1.524 . S
C610 C609 1.524 . S
C610 C611 1.397 . S
C610 C615 1.363 . S
C611 H582 0.950 . S
C611 C610 1.397 . S
C611 C612 1.334 . S
C612 H583 0.950 . S
C612 C611 1.334 . S
C612 C613 1.287 . S
C613 C612 1.287 . S
C613 C614 1.524 . S
C613 H616 0.999 . S
C614 H584 0.950 . S
C614 C613 1.524 . S
C614 C615 1.415 . S
C615 H585 0.950 . S
C615 C610 1.363 . S
C615 C614 1.415 . S
H616 C613 0.999 . S
H617 C598 0.913 . S
H618 C636 0.951 . S
H619 C638 0.951 . S
H620 C640 0.950 . S
H621 C641 0.950 . S
H622 C643 0.950 . S
H623 C646 0.950 . S
H624 C647 0.950 . S
H625 C649 0.950 . S
H626 C650 0.950 . S
H627 C651 0.951 . S
H628 C653 0.951 . S
H629 C655 0.950 . S
H630 C656 0.950 . S
H631 C658 0.950 . S
H632 C661 0.950 . S
H633 C662 0.950 . S
H634 C664 0.950 . S
H635 C665 0.950 . S
C636 H618 0.951 . S
C636 C637 1.366 . S
C636 C638 1.388 . S
C637 C636 1.366 . S
C637 C641 1.385 . S
C638 H619 0.951 . S
C638 C636 1.388 . S
C638 C639 1.366 . S
C639 C638 1.366 . S
C639 C640 1.414 . S
C639 C642 1.499 . S
C640 H620 0.950 . S
C640 C639 1.414 . S
C640 C641 1.374 . S
C641 H621 0.950 . S
C641 C637 1.385 . S
C641 C640 1.374 . S
C642 C639 1.499 . S
C642 C643 1.373 . S
C642 C644 1.389 . S
C643 H622 0.950 . S
C643 C642 1.373 . S
C643 C659 1.377 . S
C644 C642 1.389 . S
C644 C645 1.524 1_556 S
C644 C658 1.377 . S
C645 C644 1.524 1_554 S
C645 C646 1.397 . S
C645 C650 1.363 . S
C646 H623 0.950 . S
C646 C645 1.397 . S
C646 C647 1.334 . S
C647 H624 0.950 . S
C647 C646 1.334 . S
C647 C648 1.287 . S
C648 C647 1.287 . S
C648 C649 1.524 . S
C648 H667 0.913 . S
C649 H625 0.950 . S
C649 C648 1.524 . S
C649 C650 1.415 . S
C650 H626 0.950 . S
C650 C645 1.363 . S
C650 C649 1.415 . S
C651 H627 0.951 . S
C651 C652 1.366 . S
C651 C653 1.388 . S
C652 C651 1.366 . S
C652 C656 1.385 . S
C653 H628 0.951 . S
C653 C651 1.388 . S
C653 C654 1.366 . S
C654 C653 1.366 . S
C654 C655 1.414 . S
C654 C657 1.499 . S
C655 H629 0.950 . S
C655 C654 1.414 . S
C655 C656 1.374 . S
C656 H630 0.950 . S
C656 C652 1.385 . S
C656 C655 1.374 . S
C657 C654 1.499 . S
C657 C658 1.373 . S
C657 C659 1.389 . S
C658 H631 0.950 . S
C658 C644 1.377 . S
C658 C657 1.373 . S
C659 C643 1.377 . S
C659 C657 1.389 . S
C659 C660 1.524 . S
C660 C659 1.524 . S
C660 C661 1.397 . S
C660 C665 1.363 . S
C661 H632 0.950 . S
C661 C660 1.397 . S
C661 C662 1.334 . S
C662 H633 0.950 . S
C662 C661 1.334 . S
C662 C663 1.287 . S
C663 C662 1.287 . S
C663 C664 1.524 . S
C663 H666 0.999 . S
C664 H634 0.950 . S
C664 C663 1.524 . S
C664 C665 1.415 . S
C665 H635 0.950 . S
C665 C660 1.363 . S
C665 C664 1.415 . S
H666 C663 0.999 . S
H667 C648 0.913 . S
H668 C686 0.951 . S
H669 C688 0.951 . S
H670 C690 0.950 . S
H671 C691 0.950 . S
H672 C693 0.950 . S
H673 C696 0.950 . S
H674 C697 0.950 . S
H675 C699 0.950 . S
H676 C700 0.950 . S
H677 C701 0.951 . S
H678 C703 0.951 . S
H679 C705 0.950 . S
H680 C706 0.950 . S
H681 C708 0.950 . S
H682 C711 0.950 . S
H683 C712 0.950 . S
H684 C714 0.950 . S
H685 C715 0.950 . S
C686 H668 0.951 . S
C686 C687 1.366 . S
C686 C688 1.388 . S
C687 C686 1.366 . S
C687 C691 1.385 . S
C688 H669 0.951 . S
C688 C686 1.388 . S
C688 C689 1.366 . S
C689 C688 1.366 . S
C689 C690 1.414 . S
C689 C692 1.499 . S
C690 H670 0.950 . S
C690 C689 1.414 . S
C690 C691 1.374 . S
C691 H671 0.950 . S
C691 C687 1.385 . S
C691 C690 1.374 . S
C692 C689 1.499 . S
C692 C693 1.373 . S
C692 C694 1.389 . S
C693 H672 0.950 . S
C693 C692 1.373 . S
C693 C709 1.377 . S
C694 C692 1.389 . S
C694 C695 1.524 1_554 S
C694 C708 1.377 . S
C695 C694 1.524 1_556 S
C695 C696 1.397 . S
C695 C700 1.363 . S
C696 H673 0.950 . S
C696 C695 1.397 . S
C696 C697 1.334 . S
C697 H674 0.950 . S
C697 C696 1.334 . S
C697 C698 1.287 . S
C698 C697 1.287 . S
C698 C699 1.524 . S
C698 H717 0.913 . S
C699 H675 0.950 . S
C699 C698 1.524 . S
C699 C700 1.415 . S
C700 H676 0.950 . S
C700 C695 1.363 . S
C700 C699 1.415 . S
C701 H677 0.951 . S
C701 C702 1.366 . S
C701 C703 1.388 . S
C702 C701 1.366 . S
C702 C706 1.385 . S
C703 H678 0.951 . S
C703 C701 1.388 . S
C703 C704 1.366 . S
C704 C703 1.366 . S
C704 C705 1.414 . S
C704 C707 1.499 . S
C705 H679 0.950 . S
C705 C704 1.414 . S
C705 C706 1.374 . S
C706 H680 0.950 . S
C706 C702 1.385 . S
C706 C705 1.374 . S
C707 C704 1.499 . S
C707 C708 1.373 . S
C707 C709 1.389 . S
C708 H681 0.950 . S
C708 C694 1.377 . S
C708 C707 1.373 . S
C709 C693 1.377 . S
C709 C707 1.389 . S
C709 C710 1.524 . S
C710 C709 1.524 . S
C710 C711 1.397 . S
C710 C715 1.363 . S
C711 H682 0.950 . S
C711 C710 1.397 . S
C711 C712 1.334 . S
C712 H683 0.950 . S
C712 C711 1.334 . S
C712 C713 1.287 . S
C713 C712 1.287 . S
C713 C714 1.524 . S
C713 H716 0.999 . S
C714 H684 0.950 . S
C714 C713 1.524 . S
C714 C715 1.415 . S
C715 H685 0.950 . S
C715 C710 1.363 . S
C715 C714 1.415 . S
H716 C713 0.999 . S
H717 C698 0.913 . S
H718 C736 0.951 . S
H719 C738 0.951 . S
H720 C740 0.950 . S
H721 C741 0.950 . S
H722 C743 0.950 . S
H723 C746 0.950 . S
H724 C747 0.950 . S
H725 C749 0.950 . S
H726 C750 0.950 . S
H727 C751 0.951 . S
H728 C753 0.951 . S
H729 C755 0.950 . S
H730 C756 0.950 . S
H731 C758 0.950 . S
H732 C761 0.950 . S
H733 C762 0.950 . S
H734 C764 0.950 . S
H735 C765 0.950 . S
C736 H718 0.951 . S
C736 C737 1.366 . S
C736 C738 1.388 . S
C737 C736 1.366 . S
C737 C741 1.385 . S
C738 H719 0.951 . S
C738 C736 1.388 . S
C738 C739 1.366 . S
C739 C738 1.366 . S
C739 C740 1.414 . S
C739 C742 1.499 . S
C740 H720 0.950 . S
C740 C739 1.414 . S
C740 C741 1.374 . S
C741 H721 0.950 . S
C741 C737 1.385 . S
C741 C740 1.374 . S
C742 C739 1.499 . S
C742 C743 1.373 . S
C742 C744 1.389 . S
C743 H722 0.950 . S
C743 C742 1.373 . S
C743 C759 1.377 . S
C744 C742 1.389 . S
C744 C745 1.524 . S
C744 C758 1.377 . S
C745 C744 1.524 . S
C745 C746 1.397 . S
C745 C750 1.363 . S
C746 H723 0.950 . S
C746 C745 1.397 . S
C746 C747 1.334 . S
C747 H724 0.950 . S
C747 C746 1.334 . S
C747 C748 1.287 . S
C748 C747 1.287 . S
C748 C749 1.524 . S
C748 H767 0.913 . S
C749 H725 0.950 . S
C749 C748 1.524 . S
C749 C750 1.415 . S
C750 H726 0.950 . S
C750 C745 1.363 . S
C750 C749 1.415 . S
C751 H727 0.951 . S
C751 C752 1.366 . S
C751 C753 1.388 . S
C752 C751 1.366 . S
C752 C756 1.385 . S
C753 H728 0.951 . S
C753 C751 1.388 . S
C753 C754 1.366 . S
C754 C753 1.366 . S
C754 C755 1.414 . S
C754 C757 1.499 . S
C755 H729 0.950 . S
C755 C754 1.414 . S
C755 C756 1.374 . S
C756 H730 0.950 . S
C756 C752 1.385 . S
C756 C755 1.374 . S
C757 C754 1.499 . S
C757 C758 1.373 . S
C757 C759 1.389 . S
C758 H731 0.950 . S
C758 C744 1.377 . S
C758 C757 1.373 . S
C759 C743 1.377 . S
C759 C757 1.389 . S
C759 C760 1.524 . S
C760 C759 1.524 . S
C760 C761 1.397 . S
C760 C765 1.363 . S
C761 H732 0.950 . S
C761 C760 1.397 . S
C761 C762 1.334 . S
C762 H733 0.950 . S
C762 C761 1.334 . S
C762 C763 1.287 . S
C763 C762 1.287 . S
C763 C764 1.524 . S
C763 H766 0.999 . S
C764 H734 0.950 . S
C764 C763 1.524 . S
C764 C765 1.415 . S
C765 H735 0.950 . S
C765 C760 1.363 . S
C765 C764 1.415 . S
H766 C763 0.999 . S
H767 C748 0.913 . S
H768 C786 0.951 . S
H769 C788 0.951 . S
H770 C790 0.950 . S
H771 C791 0.950 . S
H772 C793 0.950 . S
H773 C796 0.950 . S
H774 C797 0.950 . S
H775 C799 0.950 . S
H776 C800 0.950 . S
H777 C801 0.951 . S
H778 C803 0.951 . S
H779 C805 0.950 . S
H780 C806 0.950 . S
H781 C808 0.950 . S
H782 C811 0.950 . S
H783 C812 0.950 . S
H784 C814 0.950 . S
H785 C815 0.950 . S
C786 H768 0.951 . S
C786 C787 1.366 . S
C786 C788 1.388 . S
C787 C786 1.366 . S
C787 C791 1.385 . S
C788 H769 0.951 . S
C788 C786 1.388 . S
C788 C789 1.366 . S
C789 C788 1.366 . S
C789 C790 1.414 . S
C789 C792 1.499 . S
C790 H770 0.950 . S
C790 C789 1.414 . S
C790 C791 1.374 . S
C791 H771 0.950 . S
C791 C787 1.385 . S
C791 C790 1.374 . S
C792 C789 1.499 . S
C792 C793 1.373 . S
C792 C794 1.389 . S
C793 H772 0.950 . S
C793 C792 1.373 . S
C793 C809 1.377 . S
C794 C792 1.389 . S
C794 C795 1.524 . S
C794 C808 1.377 . S
C795 C794 1.524 . S
C795 C796 1.397 . S
C795 C800 1.363 . S
C796 H773 0.950 . S
C796 C795 1.397 . S
C796 C797 1.334 . S
C797 H774 0.950 . S
C797 C796 1.334 . S
C797 C798 1.287 . S
C798 C797 1.287 . S
C798 C799 1.524 . S
C798 H817 0.913 . S
C799 H775 0.950 . S
C799 C798 1.524 . S
C799 C800 1.415 . S
C800 H776 0.950 . S
C800 C795 1.363 . S
C800 C799 1.415 . S
C801 H777 0.951 . S
C801 C802 1.366 . S
C801 C803 1.388 . S
C802 C801 1.366 . S
C802 C806 1.385 . S
C803 H778 0.951 . S
C803 C801 1.388 . S
C803 C804 1.366 . S
C804 C803 1.366 . S
C804 C805 1.414 . S
C804 C807 1.499 . S
C805 H779 0.950 . S
C805 C804 1.414 . S
C805 C806 1.374 . S
C806 H780 0.950 . S
C806 C802 1.385 . S
C806 C805 1.374 . S
C807 C804 1.499 . S
C807 C808 1.373 . S
C807 C809 1.389 . S
C808 H781 0.950 . S
C808 C794 1.377 . S
C808 C807 1.373 . S
C809 C793 1.377 . S
C809 C807 1.389 . S
C809 C810 1.524 . S
C810 C809 1.524 . S
C810 C811 1.397 . S
C810 C815 1.363 . S
C811 H782 0.950 . S
C811 C810 1.397 . S
C811 C812 1.334 . S
C812 H783 0.950 . S
C812 C811 1.334 . S
C812 C813 1.287 . S
C813 C812 1.287 . S
C813 C814 1.524 . S
C813 H816 0.999 . S
C814 H784 0.950 . S
C814 C813 1.524 . S
C814 C815 1.415 . S
C815 H785 0.950 . S
C815 C810 1.363 . S
C815 C814 1.415 . S
H816 C813 0.999 . S
H817 C798 0.913 . S
H818 C836 0.951 1_554 S
H819 C838 0.951 . S
H820 C840 0.950 . S
H821 C841 0.950 . S
H822 C843 0.950 . S
H823 C846 0.950 . S
H824 C847 0.950 1_554 S
H825 C849 0.950 . S
H826 C850 0.950 . S
H827 C851 0.951 . S
H828 C853 0.951 . S
H829 C855 0.950 . S
H830 C856 0.950 . S
H831 C858 0.950 . S
H832 C861 0.950 . S
H833 C862 0.950 . S
H834 C864 0.950 . S
H835 C865 0.950 . S
C836 H818 0.951 1_556 S
C836 C837 1.366 . S
C836 C838 1.388 . S
C837 C836 1.366 . S
C837 C841 1.385 . S
C838 H819 0.951 . S
C838 C836 1.388 . S
C838 C839 1.366 . S
C839 C838 1.366 . S
C839 C840 1.414 . S
C839 C842 1.499 . S
C840 H820 0.950 . S
C840 C839 1.414 . S
C840 C841 1.374 . S
C841 H821 0.950 . S
C841 C837 1.385 . S
C841 C840 1.374 . S
C842 C839 1.499 . S
C842 C843 1.373 . S
C842 C844 1.389 1_655 S
C843 H822 0.950 . S
C843 C842 1.373 . S
C843 C859 1.377 . S
C844 C842 1.389 1_455 S
C844 C845 1.524 . S
C844 C858 1.377 . S
C845 C844 1.524 . S
C845 C846 1.397 . S
C845 C850 1.363 . S
C846 H823 0.950 . S
C846 C845 1.397 . S
C846 C847 1.334 . S
C847 H824 0.950 1_556 S
C847 C846 1.334 . S
C847 C848 1.287 1_556 S
C848 C847 1.287 1_554 S
C848 C849 1.524 1_554 S
C848 H867 0.913 . S
C849 H825 0.950 . S
C849 C848 1.524 1_556 S
C849 C850 1.415 . S
C850 H826 0.950 . S
C850 C845 1.363 . S
C850 C849 1.415 . S
C851 H827 0.951 . S
C851 C852 1.366 . S
C851 C853 1.388 . S
C852 C851 1.366 . S
C852 C856 1.385 . S
C853 H828 0.951 . S
C853 C851 1.388 . S
C853 C854 1.366 . S
C854 C853 1.366 . S
C854 C855 1.414 . S
C854 C857 1.499 . S
C855 H829 0.950 . S
C855 C854 1.414 . S
C855 C856 1.374 . S
C856 H830 0.950 . S
C856 C852 1.385 . S
C856 C855 1.374 . S
C857 C854 1.499 . S
C857 C858 1.373 . S
C857 C859 1.389 1_455 S
C858 H831 0.950 . S
C858 C844 1.377 . S
C858 C857 1.373 . S
C859 C843 1.377 . S
C859 C857 1.389 1_655 S
C859 C860 1.524 . S
C860 C859 1.524 . S
C860 C861 1.397 . S
C860 C865 1.363 . S
C861 H832 0.950 . S
C861 C860 1.397 . S
C861 C862 1.334 . S
C862 H833 0.950 . S
C862 C861 1.334 . S
C862 C863 1.287 . S
C863 C862 1.287 . S
C863 C864 1.524 . S
C863 H866 0.999 . S
C864 H834 0.950 . S
C864 C863 1.524 . S
C864 C865 1.415 . S
C865 H835 0.950 . S
C865 C860 1.363 . S
C865 C864 1.415 . S
H866 C863 0.999 . S
H867 C848 0.913 . S
H868 C886 0.951 . S
H869 C888 0.951 . S
H870 C890 0.950 . S
H871 C891 0.950 . S
H872 C893 0.950 . S
H873 C896 0.950 . S
H874 C897 0.950 . S
H875 C899 0.950 . S
H876 C900 0.950 . S
H877 C901 0.951 . S
H878 C903 0.951 . S
H879 C905 0.950 . S
H880 C906 0.950 . S
H881 C908 0.950 . S
H882 C911 0.950 . S
H883 C912 0.950 . S
H884 C914 0.950 . S
H885 C915 0.950 . S
C886 H868 0.951 . S
C886 C887 1.366 . S
C886 C888 1.388 . S
C887 C886 1.366 . S
C887 C891 1.385 . S
C888 H869 0.951 . S
C888 C886 1.388 . S
C888 C889 1.366 . S
C889 C888 1.366 . S
C889 C890 1.414 . S
C889 C892 1.499 . S
C890 H870 0.950 . S
C890 C889 1.414 . S
C890 C891 1.374 . S
C891 H871 0.950 . S
C891 C887 1.385 . S
C891 C890 1.374 . S
C892 C889 1.499 . S
C892 C893 1.373 1_554 S
C892 C894 1.389 1_565 S
C893 H872 0.950 . S
C893 C892 1.373 1_556 S
C893 C909 1.377 . S
C894 C892 1.389 1_545 S
C894 C895 1.524 . S
C894 C908 1.377 . S
C895 C894 1.524 . S
C895 C896 1.397 . S
C895 C900 1.363 . S
C896 H873 0.950 . S
C896 C895 1.397 . S
C896 C897 1.334 . S
C897 H874 0.950 . S
C897 C896 1.334 . S
C897 C898 1.287 . S
C898 C897 1.287 . S
C898 C899 1.524 . S
C898 H917 0.913 . S
C899 H875 0.950 . S
C899 C898 1.524 . S
C899 C900 1.415 . S
C900 H876 0.950 . S
C900 C895 1.363 . S
C900 C899 1.415 . S
C901 H877 0.951 . S
C901 C902 1.366 . S
C901 C903 1.388 . S
C902 C901 1.366 . S
C902 C906 1.385 . S
C903 H878 0.951 . S
C903 C901 1.388 . S
C903 C904 1.366 . S
C904 C903 1.366 . S
C904 C905 1.414 . S
C904 C907 1.499 . S
C905 H879 0.950 . S
C905 C904 1.414 . S
C905 C906 1.374 . S
C906 H880 0.950 . S
C906 C902 1.385 . S
C906 C905 1.374 . S
C907 C904 1.499 . S
C907 C908 1.373 1_556 S
C907 C909 1.389 1_545 S
C908 H881 0.950 . S
C908 C894 1.377 . S
C908 C907 1.373 1_554 S
C909 C893 1.377 . S
C909 C907 1.389 1_565 S
C909 C910 1.524 . S
C910 C909 1.524 . S
C910 C911 1.397 . S
C910 C915 1.363 . S
C911 H882 0.950 . S
C911 C910 1.397 . S
C911 C912 1.334 . S
C912 H883 0.950 . S
C912 C911 1.334 . S
C912 C913 1.287 . S
C913 C912 1.287 . S
C913 C914 1.524 . S
C913 H916 0.999 . S
C914 H884 0.950 . S
C914 C913 1.524 . S
C914 C915 1.415 . S
C915 H885 0.950 . S
C915 C910 1.363 . S
C915 C914 1.415 . S
H916 C913 0.999 . S
H917 C898 0.913 . S
H918 C936 0.951 1_556 S
H919 C938 0.951 . S
H920 C940 0.950 . S
H921 C941 0.950 . S
H922 C943 0.950 . S
H923 C946 0.950 . S
H924 C947 0.950 1_556 S
H925 C949 0.950 . S
H926 C950 0.950 . S
H927 C951 0.951 . S
H928 C953 0.951 . S
H929 C955 0.950 . S
H930 C956 0.950 . S
H931 C958 0.950 . S
H932 C961 0.950 . S
H933 C962 0.950 . S
H934 C964 0.950 . S
H935 C965 0.950 . S
C936 H918 0.951 1_554 S
C936 C937 1.366 . S
C936 C938 1.388 . S
C937 C936 1.366 . S
C937 C941 1.385 . S
C938 H919 0.951 . S
C938 C936 1.388 . S
C938 C939 1.366 . S
C939 C938 1.366 . S
C939 C940 1.414 . S
C939 C942 1.499 . S
C940 H920 0.950 . S
C940 C939 1.414 . S
C940 C941 1.374 . S
C941 H921 0.950 . S
C941 C937 1.385 . S
C941 C940 1.374 . S
C942 C939 1.499 . S
C942 C943 1.373 . S
C942 C944 1.389 . S
C943 H922 0.950 . S
C943 C942 1.373 . S
C943 C959 1.377 . S
C944 C942 1.389 . S
C944 C945 1.524 . S
C944 C958 1.377 . S
C945 C944 1.524 . S
C945 C946 1.397 . S
C945 C950 1.363 . S
C946 H923 0.950 . S
C946 C945 1.397 . S
C946 C947 1.334 . S
C947 H924 0.950 1_554 S
C947 C946 1.334 . S
C947 C948 1.287 1_554 S
C948 C947 1.287 1_556 S
C948 C949 1.524 1_556 S
C948 H967 0.913 . S
C949 H925 0.950 . S
C949 C948 1.524 1_554 S
C949 C950 1.415 . S
C950 H926 0.950 . S
C950 C945 1.363 . S
C950 C949 1.415 . S
C951 H927 0.951 . S
C951 C952 1.366 . S
C951 C953 1.388 . S
C952 C951 1.366 . S
C952 C956 1.385 . S
C953 H928 0.951 . S
C953 C951 1.388 . S
C953 C954 1.366 . S
C954 C953 1.366 . S
C954 C955 1.414 . S
C954 C957 1.499 . S
C955 H929 0.950 . S
C955 C954 1.414 . S
C955 C956 1.374 . S
C956 H930 0.950 . S
C956 C952 1.385 . S
C956 C955 1.374 . S
C957 C954 1.499 . S
C957 C958 1.373 . S
C957 C959 1.389 . S
C958 H931 0.950 . S
C958 C944 1.377 . S
C958 C957 1.373 . S
C959 C943 1.377 . S
C959 C957 1.389 . S
C959 C960 1.524 . S
C960 C959 1.524 . S
C960 C961 1.397 . S
C960 C965 1.363 . S
C961 H932 0.950 . S
C961 C960 1.397 . S
C961 C962 1.334 . S
C962 H933 0.950 . S
C962 C961 1.334 . S
C962 C963 1.287 . S
C963 C962 1.287 . S
C963 C964 1.524 . S
C963 H966 0.999 . S
C964 H934 0.950 . S
C964 C963 1.524 . S
C964 C965 1.415 . S
C965 H935 0.950 . S
C965 C960 1.363 . S
C965 C964 1.415 . S
H966 C963 0.999 . S
H967 C948 0.913 . S
H968 C986 0.951 . S
H969 C988 0.951 . S
H970 C990 0.950 . S
H971 C991 0.950 . S
H972 C993 0.950 . S
H973 C996 0.950 . S
H974 C997 0.950 . S
H975 C999 0.950 . S
H976 C1000 0.950 . S
H977 C1001 0.951 . S
H978 C1003 0.951 . S
H979 C1005 0.950 . S
H980 C1006 0.950 . S
H981 C1008 0.950 . S
H982 C1011 0.950 . S
H983 C1012 0.950 . S
H984 C1014 0.950 . S
H985 C1015 0.950 . S
C986 H968 0.951 . S
C986 C987 1.366 . S
C986 C988 1.388 . S
C987 C986 1.366 . S
C987 C991 1.385 . S
C988 H969 0.951 . S
C988 C986 1.388 . S
C988 C989 1.366 . S
C989 C988 1.366 . S
C989 C990 1.414 . S
C989 C992 1.499 . S
C990 H970 0.950 . S
C990 C989 1.414 . S
C990 C991 1.374 . S
C991 H971 0.950 . S
C991 C987 1.385 . S
C991 C990 1.374 . S
C992 C989 1.499 . S
C992 C993 1.373 . S
C992 C994 1.389 . S
C993 H972 0.950 . S
C993 C992 1.373 . S
C993 C1009 1.377 1_455 S
C994 C992 1.389 . S
C994 C995 1.524 . S
C994 C1008 1.377 1_455 S
C995 C994 1.524 . S
C995 C996 1.397 . S
C995 C1000 1.363 1_455 S
C996 H973 0.950 . S
C996 C995 1.397 . S
C996 C997 1.334 . S
C997 H974 0.950 . S
C997 C996 1.334 . S
C997 C998 1.287 . S
C998 C997 1.287 . S
C998 C999 1.524 1_455 S
C998 H1017 0.913 . S
C999 H975 0.950 . S
C999 C998 1.524 1_655 S
C999 C1000 1.415 . S
C1000 H976 0.950 . S
C1000 C995 1.363 1_655 S
C1000 C999 1.415 . S
C1001 H977 0.951 . S
C1001 C1002 1.366 . S
C1001 C1003 1.388 . S
C1002 C1001 1.366 . S
C1002 C1006 1.385 . S
C1003 H978 0.951 . S
C1003 C1001 1.388 . S
C1003 C1004 1.366 . S
C1004 C1003 1.366 . S
C1004 C1005 1.414 . S
C1004 C1007 1.499 . S
C1005 H979 0.950 . S
C1005 C1004 1.414 . S
C1005 C1006 1.374 . S
C1006 H980 0.950 . S
C1006 C1002 1.385 . S
C1006 C1005 1.374 . S
C1007 C1004 1.499 . S
C1007 C1008 1.373 . S
C1007 C1009 1.389 . S
C1008 H981 0.950 . S
C1008 C994 1.377 1_655 S
C1008 C1007 1.373 . S
C1009 C993 1.377 1_655 S
C1009 C1007 1.389 . S
C1009 C1010 1.524 . S
C1010 C1009 1.524 . S
C1010 C1011 1.397 . S
C1010 C1015 1.363 1_655 S
C1011 H982 0.950 . S
C1011 C1010 1.397 . S
C1011 C1012 1.334 . S
C1012 H983 0.950 . S
C1012 C1011 1.334 . S
C1012 C1013 1.287 . S
C1013 C1012 1.287 . S
C1013 C1014 1.524 1_655 S
C1013 H1016 0.999 . S
C1014 H984 0.950 . S
C1014 C1013 1.524 1_455 S
C1014 C1015 1.415 . S
C1015 H985 0.950 . S
C1015 C1010 1.363 1_455 S
C1015 C1014 1.415 . S
H1016 C1013 0.999 . S
H1017 C998 0.913 . S
H1018 C1036 0.951 . S
H1019 C1038 0.951 . S
H1020 C1040 0.950 . S
H1021 C1041 0.950 . S
H1022 C1043 0.950 . S
H1023 C1046 0.950 . S
H1024 C1047 0.950 . S
H1025 C1049 0.950 . S
H1026 C1050 0.950 . S
H1027 C1051 0.951 . S
H1028 C1053 0.951 . S
H1029 C1055 0.950 . S
H1030 C1056 0.950 . S
H1031 C1058 0.950 . S
H1032 C1061 0.950 . S
H1033 C1062 0.950 . S
H1034 C1064 0.950 . S
H1035 C1065 0.950 . S
C1036 H1018 0.951 . S
C1036 C1037 1.366 . S
C1036 C1038 1.388 . S
C1037 C1036 1.366 . S
C1037 C1041 1.385 . S
C1038 H1019 0.951 . S
C1038 C1036 1.388 . S
C1038 C1039 1.366 . S
C1039 C1038 1.366 . S
C1039 C1040 1.414 . S
C1039 C1042 1.499 . S
C1040 H1020 0.950 . S
C1040 C1039 1.414 . S
C1040 C1041 1.374 . S
C1041 H1021 0.950 . S
C1041 C1037 1.385 . S
C1041 C1040 1.374 . S
C1042 C1039 1.499 . S
C1042 C1043 1.373 . S
C1042 C1044 1.389 . S
C1043 H1022 0.950 . S
C1043 C1042 1.373 . S
C1043 C1059 1.377 1_565 S
C1044 C1042 1.389 . S
C1044 C1045 1.524 . S
C1044 C1058 1.377 1_565 S
C1045 C1044 1.524 . S
C1045 C1046 1.397 . S
C1045 C1050 1.363 . S
C1046 H1023 0.950 . S
C1046 C1045 1.397 . S
C1046 C1047 1.334 . S
C1047 H1024 0.950 . S
C1047 C1046 1.334 . S
C1047 C1048 1.287 . S
C1048 C1047 1.287 . S
C1048 C1049 1.524 . S
C1048 H1067 0.913 . S
C1049 H1025 0.950 . S
C1049 C1048 1.524 . S
C1049 C1050 1.415 . S
C1050 H1026 0.950 . S
C1050 C1045 1.363 . S
C1050 C1049 1.415 . S
C1051 H1027 0.951 . S
C1051 C1052 1.366 . S
C1051 C1053 1.388 . S
C1052 C1051 1.366 . S
C1052 C1056 1.385 . S
C1053 H1028 0.951 . S
C1053 C1051 1.388 . S
C1053 C1054 1.366 . S
C1054 C1053 1.366 . S
C1054 C1055 1.414 . S
C1054 C1057 1.499 . S
C1055 H1029 0.950 . S
C1055 C1054 1.414 . S
C1055 C1056 1.374 . S
C1056 H1030 0.950 . S
C1056 C1052 1.385 . S
C1056 C1055 1.374 . S
C1057 C1054 1.499 . S
C1057 C1058 1.373 . S
C1057 C1059 1.389 . S
C1058 H1031 0.950 . S
C1058 C1044 1.377 1_545 S
C1058 C1057 1.373 . S
C1059 C1043 1.377 1_545 S
C1059 C1057 1.389 . S
C1059 C1060 1.524 . S
C1060 C1059 1.524 . S
C1060 C1061 1.397 . S
C1060 C1065 1.363 . S
C1061 H1032 0.950 . S
C1061 C1060 1.397 . S
C1061 C1062 1.334 . S
C1062 H1033 0.950 . S
C1062 C1061 1.334 . S
C1062 C1063 1.287 . S
C1063 C1062 1.287 . S
C1063 C1064 1.524 . S
C1063 H1066 0.999 . S
C1064 H1034 0.950 . S
C1064 C1063 1.524 . S
C1064 C1065 1.415 . S
C1065 H1035 0.950 . S
C1065 C1060 1.363 . S
C1065 C1064 1.415 . S
H1066 C1063 0.999 . S
H1067 C1048 0.913 . S
H1068 C1086 0.951 . S
H1069 C1088 0.951 . S
H1070 C1090 0.950 . S
H1071 C1091 0.950 . S
H1072 C1093 0.950 . S
H1073 C1096 0.950 . S
H1074 C1097 0.950 . S
H1075 C1099 0.950 . S
H1076 C1100 0.950 . S
H1077 C1101 0.951 . S
H1078 C1103 0.951 . S
H1079 C1105 0.950 . S
H1080 C1106 0.950 . S
H1081 C1108 0.950 . S
H1082 C1111 0.950 . S
H1083 C1112 0.950 . S
H1084 C1114 0.950 . S
H1085 C1115 0.950 . S
C1086 H1068 0.951 . S
C1086 C1087 1.366 . S
C1086 C1088 1.388 . S
C1087 C1086 1.366 . S
C1087 C1091 1.385 . S
C1088 H1069 0.951 . S
C1088 C1086 1.388 . S
C1088 C1089 1.366 . S
C1089 C1088 1.366 . S
C1089 C1090 1.414 . S
C1089 C1092 1.499 . S
C1090 H1070 0.950 . S
C1090 C1089 1.414 . S
C1090 C1091 1.374 . S
C1091 H1071 0.950 . S
C1091 C1087 1.385 . S
C1091 C1090 1.374 . S
C1092 C1089 1.499 . S
C1092 C1093 1.373 . S
C1092 C1094 1.389 . S
C1093 H1072 0.950 . S
C1093 C1092 1.373 . S
C1093 C1109 1.377 . S
C1094 C1092 1.389 . S
C1094 C1095 1.524 . S
C1094 C1108 1.377 . S
C1095 C1094 1.524 . S
C1095 C1096 1.397 . S
C1095 C1100 1.363 . S
C1096 H1073 0.950 . S
C1096 C1095 1.397 . S
C1096 C1097 1.334 . S
C1097 H1074 0.950 . S
C1097 C1096 1.334 . S
C1097 C1098 1.287 . S
C1098 C1097 1.287 . S
C1098 C1099 1.524 . S
C1098 H1117 0.913 . S
C1099 H1075 0.950 . S
C1099 C1098 1.524 . S
C1099 C1100 1.415 . S
C1100 H1076 0.950 . S
C1100 C1095 1.363 . S
C1100 C1099 1.415 . S
C1101 H1077 0.951 . S
C1101 C1102 1.366 . S
C1101 C1103 1.388 . S
C1102 C1101 1.366 . S
C1102 C1106 1.385 . S
C1103 H1078 0.951 . S
C1103 C1101 1.388 . S
C1103 C1104 1.366 . S
C1104 C1103 1.366 . S
C1104 C1105 1.414 . S
C1104 C1107 1.499 . S
C1105 H1079 0.950 . S
C1105 C1104 1.414 . S
C1105 C1106 1.374 . S
C1106 H1080 0.950 . S
C1106 C1102 1.385 . S
C1106 C1105 1.374 . S
C1107 C1104 1.499 . S
C1107 C1108 1.373 . S
C1107 C1109 1.389 . S
C1108 H1081 0.950 . S
C1108 C1094 1.377 . S
C1108 C1107 1.373 . S
C1109 C1093 1.377 . S
C1109 C1107 1.389 . S
C1109 C1110 1.524 . S
C1110 C1109 1.524 . S
C1110 C1111 1.397 . S
C1110 C1115 1.363 . S
C1111 H1082 0.950 . S
C1111 C1110 1.397 . S
C1111 C1112 1.334 . S
C1112 H1083 0.950 . S
C1112 C1111 1.334 . S
C1112 C1113 1.287 . S
C1113 C1112 1.287 . S
C1113 C1114 1.524 . S
C1113 H1116 0.999 . S
C1114 H1084 0.950 . S
C1114 C1113 1.524 . S
C1114 C1115 1.415 . S
C1115 H1085 0.950 . S
C1115 C1110 1.363 . S
C1115 C1114 1.415 . S
H1116 C1113 0.999 . S
H1117 C1098 0.913 . S
H1118 C1136 0.951 . S
H1119 C1138 0.951 . S
H1120 C1140 0.950 . S
H1121 C1141 0.950 . S
H1122 C1143 0.950 . S
H1123 C1146 0.950 . S
H1124 C1147 0.950 . S
H1125 C1149 0.950 . S
H1126 C1150 0.950 . S
H1127 C1151 0.951 . S
H1128 C1153 0.951 . S
H1129 C1155 0.950 . S
H1130 C1156 0.950 . S
H1131 C1158 0.950 . S
H1132 C1161 0.950 . S
H1133 C1162 0.950 . S
H1134 C1164 0.950 . S
H1135 C1165 0.950 . S
C1136 H1118 0.951 . S
C1136 C1137 1.366 . S
C1136 C1138 1.388 . S
C1137 C1136 1.366 . S
C1137 C1141 1.385 . S
C1138 H1119 0.951 . S
C1138 C1136 1.388 . S
C1138 C1139 1.366 . S
C1139 C1138 1.366 . S
C1139 C1140 1.414 . S
C1139 C1142 1.499 . S
C1140 H1120 0.950 . S
C1140 C1139 1.414 . S
C1140 C1141 1.374 . S
C1141 H1121 0.950 . S
C1141 C1137 1.385 . S
C1141 C1140 1.374 . S
C1142 C1139 1.499 . S
C1142 C1143 1.373 . S
C1142 C1144 1.389 . S
C1143 H1122 0.950 . S
C1143 C1142 1.373 . S
C1143 C1159 1.377 . S
C1144 C1142 1.389 . S
C1144 C1145 1.524 . S
C1144 C1158 1.377 . S
C1145 C1144 1.524 . S
C1145 C1146 1.397 . S
C1145 C1150 1.363 . S
C1146 H1123 0.950 . S
C1146 C1145 1.397 . S
C1146 C1147 1.334 . S
C1147 H1124 0.950 . S
C1147 C1146 1.334 . S
C1147 C1148 1.287 . S
C1148 C1147 1.287 . S
C1148 C1149 1.524 . S
C1148 H1167 0.913 . S
C1149 H1125 0.950 . S
C1149 C1148 1.524 . S
C1149 C1150 1.415 . S
C1150 H1126 0.950 . S
C1150 C1145 1.363 . S
C1150 C1149 1.415 . S
C1151 H1127 0.951 . S
C1151 C1152 1.366 . S
C1151 C1153 1.388 . S
C1152 C1151 1.366 . S
C1152 C1156 1.385 . S
C1153 H1128 0.951 . S
C1153 C1151 1.388 . S
C1153 C1154 1.366 . S
C1154 C1153 1.366 . S
C1154 C1155 1.414 . S
C1154 C1157 1.499 . S
C1155 H1129 0.950 . S
C1155 C1154 1.414 . S
C1155 C1156 1.374 . S
C1156 H1130 0.950 . S
C1156 C1152 1.385 . S
C1156 C1155 1.374 . S
C1157 C1154 1.499 . S
C1157 C1158 1.373 . S
C1157 C1159 1.389 . S
C1158 H1131 0.950 . S
C1158 C1144 1.377 . S
C1158 C1157 1.373 . S
C1159 C1143 1.377 . S
C1159 C1157 1.389 . S
C1159 C1160 1.524 . S
C1160 C1159 1.524 . S
C1160 C1161 1.397 . S
C1160 C1165 1.363 . S
C1161 H1132 0.950 . S
C1161 C1160 1.397 . S
C1161 C1162 1.334 . S
C1162 H1133 0.950 . S
C1162 C1161 1.334 . S
C1162 C1163 1.287 . S
C1163 C1162 1.287 . S
C1163 C1164 1.524 . S
C1163 H1166 0.999 . S
C1164 H1134 0.950 . S
C1164 C1163 1.524 . S
C1164 C1165 1.415 . S
C1165 H1135 0.950 . S
C1165 C1160 1.363 . S
C1165 C1164 1.415 . S
H1166 C1163 0.999 . S
H1167 C1148 0.913 . S
H1168 C1186 0.951 . S
H1169 C1188 0.951 . S
H1170 C1190 0.950 . S
H1171 C1191 0.950 . S
H1172 C1193 0.950 . S
H1173 C1196 0.950 . S
H1174 C1197 0.950 . S
H1175 C1199 0.950 . S
H1176 C1200 0.950 . S
H1177 C1201 0.951 . S
H1178 C1203 0.951 . S
H1179 C1205 0.950 . S
H1180 C1206 0.950 . S
H1181 C1208 0.950 . S
H1182 C1211 0.950 . S
H1183 C1212 0.950 . S
H1184 C1214 0.950 . S
H1185 C1215 0.950 . S
C1186 H1168 0.951 . S
C1186 C1187 1.366 . S
C1186 C1188 1.388 . S
C1187 C1186 1.366 . S
C1187 C1191 1.385 1_554 S
C1188 H1169 0.951 . S
C1188 C1186 1.388 . S
C1188 C1189 1.366 1_554 S
C1189 C1188 1.366 1_556 S
C1189 C1190 1.414 . S
C1189 C1192 1.499 . S
C1190 H1170 0.950 . S
C1190 C1189 1.414 . S
C1190 C1191 1.374 . S
C1191 H1171 0.950 . S
C1191 C1187 1.385 1_556 S
C1191 C1190 1.374 . S
C1192 C1189 1.499 . S
C1192 C1193 1.373 . S
C1192 C1194 1.389 . S
C1193 H1172 0.950 . S
C1193 C1192 1.373 . S
C1193 C1209 1.377 . S
C1194 C1192 1.389 . S
C1194 C1195 1.524 1_556 S
C1194 C1208 1.377 . S
C1195 C1194 1.524 1_554 S
C1195 C1196 1.397 . S
C1195 C1200 1.363 . S
C1196 H1173 0.950 . S
C1196 C1195 1.397 . S
C1196 C1197 1.334 . S
C1197 H1174 0.950 . S
C1197 C1196 1.334 . S
C1197 C1198 1.287 . S
C1198 C1197 1.287 . S
C1198 C1199 1.524 . S
C1198 H1217 0.913 . S
C1199 H1175 0.950 . S
C1199 C1198 1.524 . S
C1199 C1200 1.415 . S
C1200 H1176 0.950 . S
C1200 C1195 1.363 . S
C1200 C1199 1.415 . S
C1201 H1177 0.951 . S
C1201 C1202 1.366 . S
C1201 C1203 1.388 . S
C1202 C1201 1.366 . S
C1202 C1206 1.385 . S
C1203 H1178 0.951 . S
C1203 C1201 1.388 . S
C1203 C1204 1.366 . S
C1204 C1203 1.366 . S
C1204 C1205 1.414 . S
C1204 C1207 1.499 . S
C1205 H1179 0.950 . S
C1205 C1204 1.414 . S
C1205 C1206 1.374 . S
C1206 H1180 0.950 . S
C1206 C1202 1.385 . S
C1206 C1205 1.374 . S
C1207 C1204 1.499 . S
C1207 C1208 1.373 . S
C1207 C1209 1.389 . S
C1208 H1181 0.950 . S
C1208 C1194 1.377 . S
C1208 C1207 1.373 . S
C1209 C1193 1.377 . S
C1209 C1207 1.389 . S
C1209 C1210 1.524 . S
C1210 C1209 1.524 . S
C1210 C1211 1.397 . S
C1210 C1215 1.363 . S
C1211 H1182 0.950 . S
C1211 C1210 1.397 . S
C1211 C1212 1.334 . S
C1212 H1183 0.950 . S
C1212 C1211 1.334 . S
C1212 C1213 1.287 . S
C1213 C1212 1.287 . S
C1213 C1214 1.524 . S
C1213 H1216 0.999 . S
C1214 H1184 0.950 . S
C1214 C1213 1.524 . S
C1214 C1215 1.415 . S
C1215 H1185 0.950 . S
C1215 C1210 1.363 . S
C1215 C1214 1.415 . S
H1216 C1213 0.999 . S
H1217 C1198 0.913 . S
H1218 C1236 0.951 . S
H1219 C1238 0.951 . S
H1220 C1240 0.950 . S
H1221 C1241 0.950 . S
H1222 C1243 0.950 . S
H1223 C1246 0.950 . S
H1224 C1247 0.950 . S
H1225 C1249 0.950 . S
H1226 C1250 0.950 . S
H1227 C1251 0.951 . S
H1228 C1253 0.951 . S
H1229 C1255 0.950 . S
H1230 C1256 0.950 . S
H1231 C1258 0.950 . S
H1232 C1261 0.950 1_556 S
H1233 C1262 0.950 1_556 S
H1234 C1264 0.950 . S
H1235 C1265 0.950 . S
C1236 H1218 0.951 . S
C1236 C1237 1.366 . S
C1236 C1238 1.388 . S
C1237 C1236 1.366 . S
C1237 C1241 1.385 . S
C1238 H1219 0.951 . S
C1238 C1236 1.388 . S
C1238 C1239 1.366 . S
C1239 C1238 1.366 . S
C1239 C1240 1.414 . S
C1239 C1242 1.499 . S
C1240 H1220 0.950 . S
C1240 C1239 1.414 . S
C1240 C1241 1.374 . S
C1241 H1221 0.950 . S
C1241 C1237 1.385 . S
C1241 C1240 1.374 . S
C1242 C1239 1.499 . S
C1242 C1243 1.373 . S
C1242 C1244 1.389 . S
C1243 H1222 0.950 . S
C1243 C1242 1.373 . S
C1243 C1259 1.377 . S
C1244 C1242 1.389 . S
C1244 C1245 1.524 . S
C1244 C1258 1.377 . S
C1245 C1244 1.524 . S
C1245 C1246 1.397 . S
C1245 C1250 1.363 . S
C1246 H1223 0.950 . S
C1246 C1245 1.397 . S
C1246 C1247 1.334 . S
C1247 H1224 0.950 . S
C1247 C1246 1.334 . S
C1247 C1248 1.287 . S
C1248 C1247 1.287 . S
C1248 C1249 1.524 . S
C1248 H1267 0.913 . S
C1249 H1225 0.950 . S
C1249 C1248 1.524 . S
C1249 C1250 1.415 . S
C1250 H1226 0.950 . S
C1250 C1245 1.363 . S
C1250 C1249 1.415 . S
C1251 H1227 0.951 . S
C1251 C1252 1.366 1_554 S
C1251 C1253 1.388 . S
C1252 C1251 1.366 1_556 S
C1252 C1256 1.385 . S
C1253 H1228 0.951 . S
C1253 C1251 1.388 . S
C1253 C1254 1.366 . S
C1254 C1253 1.366 . S
C1254 C1255 1.414 1_554 S
C1254 C1257 1.499 . S
C1255 H1229 0.950 . S
C1255 C1254 1.414 1_556 S
C1255 C1256 1.374 . S
C1256 H1230 0.950 . S
C1256 C1252 1.385 . S
C1256 C1255 1.374 . S
C1257 C1254 1.499 . S
C1257 C1258 1.373 . S
C1257 C1259 1.389 . S
C1258 H1231 0.950 . S
C1258 C1244 1.377 . S
C1258 C1257 1.373 . S
C1259 C1243 1.377 . S
C1259 C1257 1.389 . S
C1259 C1260 1.524 . S
C1260 C1259 1.524 . S
C1260 C1261 1.397 . S
C1260 C1265 1.363 . S
C1261 H1232 0.950 1_554 S
C1261 C1260 1.397 . S
C1261 C1262 1.334 . S
C1262 H1233 0.950 1_554 S
C1262 C1261 1.334 . S
C1262 C1263 1.287 . S
C1263 C1262 1.287 . S
C1263 C1264 1.524 . S
C1263 H1266 0.999 . S
C1264 H1234 0.950 . S
C1264 C1263 1.524 . S
C1264 C1265 1.415 . S
C1265 H1235 0.950 . S
C1265 C1260 1.363 . S
C1265 C1264 1.415 . S
H1266 C1263 0.999 . S
H1267 C1248 0.913 . S
H1268 C1286 0.951 . S
H1269 C1288 0.951 . S
H1270 C1290 0.950 . S
H1271 C1291 0.950 . S
H1272 C1293 0.950 . S
H1273 C1296 0.950 . S
H1274 C1297 0.950 . S
H1275 C1299 0.950 . S
H1276 C1300 0.950 . S
H1277 C1301 0.951 . S
H1278 C1303 0.951 . S
H1279 C1305 0.950 . S
H1280 C1306 0.950 . S
H1281 C1308 0.950 . S
H1282 C1311 0.950 . S
H1283 C1312 0.950 . S
H1284 C1314 0.950 . S
H1285 C1315 0.950 . S
C1286 H1268 0.951 . S
C1286 C1287 1.366 . S
C1286 C1288 1.388 . S
C1287 C1286 1.366 . S
C1287 C1291 1.385 . S
C1288 H1269 0.951 . S
C1288 C1286 1.388 . S
C1288 C1289 1.366 . S
C1289 C1288 1.366 . S
C1289 C1290 1.414 . S
C1289 C1292 1.499 . S
C1290 H1270 0.950 . S
C1290 C1289 1.414 . S
C1290 C1291 1.374 . S
C1291 H1271 0.950 . S
C1291 C1287 1.385 . S
C1291 C1290 1.374 . S
C1292 C1289 1.499 . S
C1292 C1293 1.373 . S
C1292 C1294 1.389 . S
C1293 H1272 0.950 . S
C1293 C1292 1.373 . S
C1293 C1309 1.377 . S
C1294 C1292 1.389 . S
C1294 C1295 1.524 . S
C1294 C1308 1.377 . S
C1295 C1294 1.524 . S
C1295 C1296 1.397 . S
C1295 C1300 1.363 . S
C1296 H1273 0.950 . S
C1296 C1295 1.397 . S
C1296 C1297 1.334 . S
C1297 H1274 0.950 . S
C1297 C1296 1.334 . S
C1297 C1298 1.287 . S
C1298 C1297 1.287 . S
C1298 C1299 1.524 . S
C1298 H1317 0.913 . S
C1299 H1275 0.950 . S
C1299 C1298 1.524 . S
C1299 C1300 1.415 . S
C1300 H1276 0.950 . S
C1300 C1295 1.363 . S
C1300 C1299 1.415 . S
C1301 H1277 0.951 . S
C1301 C1302 1.366 . S
C1301 C1303 1.388 . S
C1302 C1301 1.366 . S
C1302 C1306 1.385 . S
C1303 H1278 0.951 . S
C1303 C1301 1.388 . S
C1303 C1304 1.366 . S
C1304 C1303 1.366 . S
C1304 C1305 1.414 . S
C1304 C1307 1.499 . S
C1305 H1279 0.950 . S
C1305 C1304 1.414 . S
C1305 C1306 1.374 . S
C1306 H1280 0.950 . S
C1306 C1302 1.385 . S
C1306 C1305 1.374 . S
C1307 C1304 1.499 . S
C1307 C1308 1.373 . S
C1307 C1309 1.389 . S
C1308 H1281 0.950 . S
C1308 C1294 1.377 . S
C1308 C1307 1.373 . S
C1309 C1293 1.377 . S
C1309 C1307 1.389 . S
C1309 C1310 1.524 . S
C1310 C1309 1.524 . S
C1310 C1311 1.397 . S
C1310 C1315 1.363 . S
C1311 H1282 0.950 . S
C1311 C1310 1.397 . S
C1311 C1312 1.334 . S
C1312 H1283 0.950 . S
C1312 C1311 1.334 . S
C1312 C1313 1.287 . S
C1313 C1312 1.287 . S
C1313 C1314 1.524 . S
C1313 H1316 0.999 . S
C1314 H1284 0.950 . S
C1314 C1313 1.524 . S
C1314 C1315 1.415 . S
C1315 H1285 0.950 . S
C1315 C1310 1.363 . S
C1315 C1314 1.415 . S
H1316 C1313 0.999 . S
H1317 C1298 0.913 . S
H1318 C1336 0.951 . S
H1319 C1338 0.951 . S
H1320 C1340 0.950 . S
H1321 C1341 0.950 . S
H1322 C1343 0.950 . S
H1323 C1346 0.950 . S
H1324 C1347 0.950 . S
H1325 C1349 0.950 . S
H1326 C1350 0.950 . S
H1327 C1351 0.951 . S
H1328 C1353 0.951 . S
H1329 C1355 0.950 . S
H1330 C1356 0.950 . S
H1331 C1358 0.950 . S
H1332 C1361 0.950 . S
H1333 C1362 0.950 . S
H1334 C1364 0.950 . S
H1335 C1365 0.950 . S
C1336 H1318 0.951 . S
C1336 C1337 1.366 . S
C1336 C1338 1.388 . S
C1337 C1336 1.366 . S
C1337 C1341 1.385 . S
C1338 H1319 0.951 . S
C1338 C1336 1.388 . S
C1338 C1339 1.366 . S
C1339 C1338 1.366 . S
C1339 C1340 1.414 . S
C1339 C1342 1.499 . S
C1340 H1320 0.950 . S
C1340 C1339 1.414 . S
C1340 C1341 1.374 . S
C1341 H1321 0.950 . S
C1341 C1337 1.385 . S
C1341 C1340 1.374 . S
C1342 C1339 1.499 . S
C1342 C1343 1.373 . S
C1342 C1344 1.389 . S
C1343 H1322 0.950 . S
C1343 C1342 1.373 . S
C1343 C1359 1.377 . S
C1344 C1342 1.389 . S
C1344 C1345 1.524 . S
C1344 C1358 1.377 . S
C1345 C1344 1.524 . S
C1345 C1346 1.397 . S
C1345 C1350 1.363 . S
C1346 H1323 0.950 . S
C1346 C1345 1.397 . S
C1346 C1347 1.334 . S
C1347 H1324 0.950 . S
C1347 C1346 1.334 . S
C1347 C1348 1.287 . S
C1348 C1347 1.287 . S
C1348 C1349 1.524 . S
C1348 H1367 0.913 . S
C1349 H1325 0.950 . S
C1349 C1348 1.524 . S
C1349 C1350 1.415 . S
C1350 H1326 0.950 . S
C1350 C1345 1.363 . S
C1350 C1349 1.415 . S
C1351 H1327 0.951 . S
C1351 C1352 1.366 . S
C1351 C1353 1.388 . S
C1352 C1351 1.366 . S
C1352 C1356 1.385 . S
C1353 H1328 0.951 . S
C1353 C1351 1.388 . S
C1353 C1354 1.366 . S
C1354 C1353 1.366 . S
C1354 C1355 1.414 . S
C1354 C1357 1.499 . S
C1355 H1329 0.950 . S
C1355 C1354 1.414 . S
C1355 C1356 1.374 . S
C1356 H1330 0.950 . S
C1356 C1352 1.385 . S
C1356 C1355 1.374 . S
C1357 C1354 1.499 . S
C1357 C1358 1.373 . S
C1357 C1359 1.389 . S
C1358 H1331 0.950 . S
C1358 C1344 1.377 . S
C1358 C1357 1.373 . S
C1359 C1343 1.377 . S
C1359 C1357 1.389 . S
C1359 C1360 1.524 . S
C1360 C1359 1.524 . S
C1360 C1361 1.397 . S
C1360 C1365 1.363 . S
C1361 H1332 0.950 . S
C1361 C1360 1.397 . S
C1361 C1362 1.334 . S
C1362 H1333 0.950 . S
C1362 C1361 1.334 . S
C1362 C1363 1.287 . S
C1363 C1362 1.287 . S
C1363 C1364 1.524 . S
C1363 H1366 0.999 . S
C1364 H1334 0.950 . S
C1364 C1363 1.524 . S
C1364 C1365 1.415 . S
C1365 H1335 0.950 . S
C1365 C1360 1.363 . S
C1365 C1364 1.415 . S
H1366 C1363 0.999 . S
H1367 C1348 0.913 . S
C187 C138 1.213 1_554 S
C202 C12 1.213 . S
C237 C26 1.213 . S
C252 C152 1.214 . S
C287 C166 1.214 . S
C302 C40 1.213 . S
C337 C96 1.213 . S
C352 C54 1.213 . S
C387 C110 1.214 . S
C402 C68 1.213 1_556 S
C437 C124 1.213 . S
C452 C82 1.214 . S
C487 C95 1.463 . S
C502 C11 1.463 . S
C537 C25 1.463 . S
C552 C109 1.463 . S
C587 C123 1.463 . S
C602 C39 1.463 . S
C637 C53 1.463 . S
C652 C137 1.463 . S
C687 C151 1.463 . S
C702 C67 1.463 . S
C737 C81 1.463 . S
C752 C165 1.463 . S
C787 C130 0.869 . S
C802 C4 0.867 . S
C837 C144 0.869 1_556 S
C852 C18 0.868 . S
C887 C158 0.868 . S
C902 C32 0.869 . S
C937 C46 0.868 1_554 S
C952 C88 0.868 . S
C987 C102 0.868 . S
C1002 C60 0.867 . S
C1037 C74 0.867 . S
C1052 C116 0.869 . S
C1087 C5 1.161 . S
C1102 C117 1.160 . S
C1137 C131 1.160 . S
C1152 C19 1.161 . S
C1187 C145 1.162 . S
C1202 C33 1.162 . S
C1237 C159 1.161 . S
C1252 C47 1.160 . S
C1287 C89 1.160 . S
C1302 C61 1.161 . S
C1337 C103 1.162 . S
C1352 C75 1.161 . S
