# Generated by pormake.
# Topology unp, (4)-cn, num edge types: 1
# Building blocks:
#     Node 0, Type 0, BuildingBlock: AZAVOO_clean_sbu_0, # of connection points: 4
#     Node 1, Type 0, BuildingBlock: AZAVOO_clean_sbu_0, # of connection points: 4
#     Node 2, Type 0, BuildingBlock: AZAVOO_clean_sbu_0, # of connection points: 4
#     Node 3, Type 0, BuildingBlock: AZAVOO_clean_sbu_0, # of connection points: 4
#     Node 4, Type 0, BuildingBlock: AZAVOO_clean_sbu_0, # of connection points: 4
#     Node 5, Type 0, BuildingBlock: AZAVOO_clean_sbu_0, # of connection points: 4
#     Node 6, Type 0, BuildingBlock: AZAVOO_clean_sbu_0, # of connection points: 4
#     Node 7, Type 0, BuildingBlock: AZAVOO_clean_sbu_0, # of connection points: 4
#     Node 8, Type 0, BuildingBlock: AZAVOO_clean_sbu_0, # of connection points: 4
#     Node 9, Type 0, BuildingBlock: AZAVOO_clean_sbu_0, # of connection points: 4
#     Node 10, Type 0, BuildingBlock: AZAVOO_clean_sbu_0, # of connection points: 4
#     Node 11, Type 0, BuildingBlock: AZAVOO_clean_sbu_0, # of connection points: 4
#     Node 12, Type 0, BuildingBlock: AZAVOO_clean_sbu_0, # of connection points: 4
#     Node 13, Type 0, BuildingBlock: AZAVOO_clean_sbu_0, # of connection points: 4
#     Node 14, Type 0, BuildingBlock: AZAVOO_clean_sbu_0, # of connection points: 4
#     Node 15, Type 0, BuildingBlock: AZAVOO_clean_sbu_0, # of connection points: 4
#     Node 16, Type 0, BuildingBlock: AZAVOO_clean_sbu_0, # of connection points: 4
#     Node 17, Type 0, BuildingBlock: AZAVOO_clean_sbu_0, # of connection points: 4
#     Edge 18, Type (0, 0), BuildingBlock: CIFDUS_clean_linker_0, # of connection points: 2
#     Edge 19, Type (0, 0), BuildingBlock: CIFDUS_clean_linker_0, # of connection points: 2
#     Edge 20, Type (0, 0), BuildingBlock: CIFDUS_clean_linker_0, # of connection points: 2
#     Edge 21, Type (0, 0), BuildingBlock: CIFDUS_clean_linker_0, # of connection points: 2
#     Edge 22, Type (0, 0), BuildingBlock: CIFDUS_clean_linker_0, # of connection points: 2
#     Edge 23, Type (0, 0), BuildingBlock: CIFDUS_clean_linker_0, # of connection points: 2
#     Edge 24, Type (0, 0), BuildingBlock: CIFDUS_clean_linker_0, # of connection points: 2
#     Edge 25, Type (0, 0), BuildingBlock: CIFDUS_clean_linker_0, # of connection points: 2
#     Edge 26, Type (0, 0), BuildingBlock: CIFDUS_clean_linker_0, # of connection points: 2
#     Edge 27, Type (0, 0), BuildingBlock: CIFDUS_clean_linker_0, # of connection points: 2
#     Edge 28, Type (0, 0), BuildingBlock: CIFDUS_clean_linker_0, # of connection points: 2
#     Edge 29, Type (0, 0), BuildingBlock: CIFDUS_clean_linker_0, # of connection points: 2
#     Edge 30, Type (0, 0), BuildingBlock: CIFDUS_clean_linker_0, # of connection points: 2
#     Edge 31, Type (0, 0), BuildingBlock: CIFDUS_clean_linker_0, # of connection points: 2
#     Edge 32, Type (0, 0), BuildingBlock: CIFDUS_clean_linker_0, # of connection points: 2
#     Edge 33, Type (0, 0), BuildingBlock: CIFDUS_clean_linker_0, # of connection points: 2
#     Edge 34, Type (0, 0), BuildingBlock: CIFDUS_clean_linker_0, # of connection points: 2
#     Edge 35, Type (0, 0), BuildingBlock: CIFDUS_clean_linker_0, # of connection points: 2
#     Edge 36, Type (0, 0), BuildingBlock: CIFDUS_clean_linker_0, # of connection points: 2
#     Edge 37, Type (0, 0), BuildingBlock: CIFDUS_clean_linker_0, # of connection points: 2
#     Edge 38, Type (0, 0), BuildingBlock: CIFDUS_clean_linker_0, # of connection points: 2
#     Edge 39, Type (0, 0), BuildingBlock: CIFDUS_clean_linker_0, # of connection points: 2
#     Edge 40, Type (0, 0), BuildingBlock: CIFDUS_clean_linker_0, # of connection points: 2
#     Edge 41, Type (0, 0), BuildingBlock: CIFDUS_clean_linker_0, # of connection points: 2
#     Edge 42, Type (0, 0), BuildingBlock: CIFDUS_clean_linker_0, # of connection points: 2
#     Edge 43, Type (0, 0), BuildingBlock: CIFDUS_clean_linker_0, # of connection points: 2
#     Edge 44, Type (0, 0), BuildingBlock: CIFDUS_clean_linker_0, # of connection points: 2
#     Edge 45, Type (0, 0), BuildingBlock: CIFDUS_clean_linker_0, # of connection points: 2
#     Edge 46, Type (0, 0), BuildingBlock: CIFDUS_clean_linker_0, # of connection points: 2
#     Edge 47, Type (0, 0), BuildingBlock: CIFDUS_clean_linker_0, # of connection points: 2
#     Edge 48, Type (0, 0), BuildingBlock: CIFDUS_clean_linker_0, # of connection points: 2
#     Edge 49, Type (0, 0), BuildingBlock: CIFDUS_clean_linker_0, # of connection points: 2
#     Edge 50, Type (0, 0), BuildingBlock: CIFDUS_clean_linker_0, # of connection points: 2
#     Edge 51, Type (0, 0), BuildingBlock: CIFDUS_clean_linker_0, # of connection points: 2
#     Edge 52, Type (0, 0), BuildingBlock: CIFDUS_clean_linker_0, # of connection points: 2
#     Edge 53, Type (0, 0), BuildingBlock: CIFDUS_clean_linker_0, # of connection points: 2
# Relax obj value: 0.360
# Max RMSD: 0.199
# Mean RMSD: 0.190
data_MOF--net-unp--node1-AZAVOO_clean_sbu_0--edge1-CIFDUS_clean_linker_0
_symmetry_space_group_name_H-M    P1
_symmetry_Int_Tables_number       1
_symmetry_cell_setting            triclinic
loop_
_symmetry_equiv_pos_as_xyz
'x, y, z'
_cell_length_a     37.19173
_cell_length_b     37.105538
_cell_length_c     66.669789
_cell_angle_alpha  90.272261
_cell_angle_beta   89.931909
_cell_angle_gamma 120.44584
loop_
_atom_site_label
_atom_site_type_symbol
_atom_site_fract_x
_atom_site_fract_y
_atom_site_fract_z
_atom_type_partial_charge
Mg0 Mg 0.15597 0.22361 0.08854 0.0
O1 O 0.13873 0.15453 0.09104 0.0
O2 O 0.08331 0.11695 0.07119 0.0
Mg3 Mg 0.07221 0.16154 0.0524 0.0
C4 C 0.10961 0.11957 0.08425 0.0
C5 C 0.21059 0.22697 0.125 0.0
O6 O 0.17349 0.19765 0.13095 0.0
O7 O 0.19169 0.23119 0.05907 0.0
O8 O 0.13749 0.19114 0.03896 0.0
O9 O 0.10414 0.20858 0.11055 0.0
O10 O 0.0963 0.20519 0.0777 0.0
C11 C 0.17653 0.21473 0.04198 0.0
C12 C 0.0795 0.19753 0.09517 0.0
O13 O 0.21419 0.24348 0.10787 0.0
Mg14 Mg 0.75838 0.93837 0.08662 0.0
O15 O 0.82396 -0.00355 0.08462 0.0
O16 O 0.85535 0.98519 0.0586 0.0
Mg17 Mg 0.81314 0.91957 0.0456 0.0
C18 C 0.85508 0.0081 0.0729 0.0
C19 C 0.69921 0.96483 0.10545 0.0
O20 O 0.6764 0.93878 0.09113 0.0
O21 O 0.73905 0.95999 0.05794 0.0
O22 O 0.76956 0.94119 0.03443 0.0
O23 O 0.78514 0.90864 0.10688 0.0
O24 O 0.78007 0.9015 0.07405 0.0
C25 C 0.74591 0.95525 0.03955 0.0
C26 C 0.79347 0.89514 0.0906 0.0
O27 O 0.73659 0.973 0.1076 0.0
Mg28 Mg 0.05474 0.83126 0.10149 0.0
O29 O 0.00022 0.84399 0.1014 0.0
O30 O 0.01425 0.89122 0.07725 0.0
Mg31 Mg 0.07789 0.9107 0.06322 0.0
C32 C -0.00915 0.86708 0.09113 0.0
C33 C 0.02475 0.74293 0.11646 0.0
O34 O 0.05194 0.7489 0.10236 0.0
O35 O 0.03005 0.79368 0.07209 0.0
O36 O 0.05025 0.84517 0.04971 0.0
O37 O 0.08663 0.88419 0.1236 0.0
O38 O 0.09485 0.89122 0.09077 0.0
C39 C 0.03389 0.80653 0.05403 0.0
C40 C 0.10126 0.90841 0.10816 0.0
O41 O 0.01714 0.77205 0.1202 0.0
Mg42 Mg 0.21838 0.1694 0.89261 0.0
O43 O 0.15444 0.16369 0.89919 0.0
O44 O 0.1229 0.11906 0.92486 0.0
Mg45 Mg 0.16142 0.09086 0.93691 0.0
C46 C 0.12386 0.14404 0.91136 0.0
C47 C 0.25199 0.224 0.85451 0.0
O48 O 0.25294 0.19034 0.8492 0.0
O49 O 0.24813 0.21262 0.92077 0.0
O50 O 0.21728 0.14659 0.92555 0.0
O51 O 0.18454 0.11163 0.87348 0.0
O52 O 0.19235 0.10778 0.9061 0.0
C53 C 0.23499 0.18279 0.93317 0.0
C54 C 0.17608 0.08887 0.8894 0.0
O55 O 0.23851 0.22541 0.87186 0.0
Mg56 Mg 0.81942 0.05323 0.88767 0.0
O57 O 0.82933 -0.00322 0.88598 0.0
O58 O 0.87141 0.00398 0.91165 0.0
Mg59 Mg 0.89139 0.06541 0.92835 0.0
C60 C 0.84943 0.984 0.89641 0.0
C61 C 0.76437 0.00705 0.8489 0.0
O62 O 0.79915 0.00966 0.84269 0.0
O63 O 0.77669 0.02518 0.91551 0.0
O64 O 0.82484 0.03995 0.93925 0.0
O65 O 0.87676 0.08903 0.86822 0.0
O66 O 0.87776 0.0891 0.90122 0.0
C67 C 0.78721 0.02637 0.93389 0.0
C68 C 0.89822 0.09967 0.88469 0.0
O69 O 0.7633 0.021 0.86624 0.0
Mg70 Mg 0.93 0.76255 0.90085 0.0
O71 O 0.98152 0.83124 0.90355 0.0
O72 O 0.96285 0.85974 0.92822 0.0
Mg73 Mg 0.89828 0.81074 0.93999 0.0
C74 C 0.98834 0.86214 0.9147 0.0
C75 C 0.97691 0.74826 0.86399 0.0
O76 O 0.95493 0.75967 0.85314 0.0
O77 O 0.95302 0.74891 0.93045 0.0
O78 O 0.92793 0.77531 0.95306 0.0
O79 O 0.89744 0.78322 0.87892 0.0
O80 O 0.88643 0.77724 0.91151 0.0
C81 C 0.94675 0.75563 0.9486 0.0
C82 C 0.88029 0.78925 0.89451 0.0
O83 O 0.97369 0.74766 0.88301 0.0
Mg84 Mg 0.81963 0.5475 0.42968 0.0
O85 O 0.79845 0.47753 0.42983 0.0
O86 O 0.74331 0.44519 0.40927 0.0
Mg87 Mg 0.73405 0.49453 0.39335 0.0
C88 C 0.7687 0.44439 0.42191 0.0
C89 C 0.88165 0.56209 0.46597 0.0
O90 O 0.84808 0.55061 0.47683 0.0
O91 O 0.85326 0.55494 0.39967 0.0
O92 O 0.79853 0.52388 0.37885 0.0
O93 O 0.76902 0.53283 0.45257 0.0
O94 O 0.7606 0.53383 0.41994 0.0
C95 C 0.83776 0.54393 0.38208 0.0
C96 C 0.74418 0.52489 0.43748 0.0
O97 O 0.87907 0.56271 0.44696 0.0
Mg98 Mg 0.42672 0.26484 0.425 0.0
O99 O 0.4886 0.32763 0.42341 0.0
O100 O 0.52163 0.32394 0.39597 0.0
Mg101 Mg 0.48492 0.25806 0.3821 0.0
C102 C 0.51932 0.34371 0.41122 0.0
C103 C 0.41608 0.31208 0.46234 0.0
O104 O 0.45212 0.31625 0.46744 0.0
O105 O 0.40122 0.2831 0.39758 0.0
O106 O 0.43393 0.27098 0.37261 0.0
O107 O 0.45884 0.23992 0.44464 0.0
O108 O 0.45669 0.23616 0.41163 0.0
C109 C 0.40717 0.28014 0.37891 0.0
C110 C 0.47158 0.23147 0.42817 0.0
O111 O 0.39866 0.29297 0.44614 0.0
Mg112 Mg 0.71968 0.15931 0.4256 0.0
O113 O 0.67114 0.17917 0.41906 0.0
O114 O 0.7042 0.23641 0.39998 0.0
Mg115 Mg 0.7712 0.25253 0.39381 0.0
C116 C 0.6718 0.2092 0.40938 0.0
C117 C 0.67085 0.06385 0.4353 0.0
O118 O 0.69733 0.06542 0.42178 0.0
O119 O 0.71076 0.13217 0.39337 0.0
O120 O 0.74633 0.19167 0.37614 0.0
O121 O 0.73964 0.20347 0.45174 0.0
O122 O 0.76827 0.22099 0.42171 0.0
C123 C 0.72561 0.15183 0.37691 0.0
C124 C 0.76382 0.23236 0.43932 0.0
O125 O 0.67001 0.09698 0.43928 0.0
Mg126 Mg 0.87883 0.48574 0.22623 0.0
O127 O 0.81048 0.46946 0.22586 0.0
O128 O 0.77619 0.41909 0.2486 0.0
Mg129 Mg 0.82165 0.40134 0.26239 0.0
C130 C 0.77725 0.44424 0.23528 0.0
C131 C 0.91791 0.5502 0.19232 0.0
O132 O 0.92637 0.52114 0.18701 0.0
O133 O 0.88898 0.52017 0.25645 0.0
O134 O 0.85697 0.46564 0.27726 0.0
O135 O 0.86061 0.43524 0.20304 0.0
O136 O 0.8607 0.4253 0.23566 0.0
C137 C 0.87876 0.50488 0.2741 0.0
C138 C 0.85117 0.40971 0.21791 0.0
O139 O 0.89757 0.5453 0.20841 0.0
Mg140 Mg 0.46983 0.36516 0.22979 0.0
O141 O 0.47821 0.30803 0.23254 0.0
O142 O 0.51652 0.3183 0.2602 0.0
Mg143 Mg 0.53606 0.38246 0.27386 0.0
C144 C 0.4961 0.29621 0.24505 0.0
C145 C 0.42118 0.34532 0.18938 0.0
O146 O 0.45597 0.37981 0.18487 0.0
O147 O 0.42323 0.34088 0.2564 0.0
O148 O 0.46837 0.35842 0.28187 0.0
O149 O 0.53002 0.39724 0.21198 0.0
O150 O 0.52622 0.40231 0.24471 0.0
C151 C 0.4315 0.3443 0.27519 0.0
C152 C 0.54899 0.40999 0.22905 0.0
O153 O 0.41712 0.33023 0.20689 0.0
Mg154 Mg 0.59266 0.08978 0.22844 0.0
O155 O 0.64376 0.15939 0.22819 0.0
O156 O 0.62274 0.19241 0.2492 0.0
Mg157 Mg 0.56402 0.14443 0.2657 0.0
C158 C 0.64827 0.19272 0.23628 0.0
C159 C 0.6174 0.05558 0.19221 0.0
O160 O 0.5796 0.0476 0.18789 0.0
O161 O 0.61881 0.07996 0.25815 0.0
O162 O 0.59691 0.11232 0.27904 0.0
O163 O 0.55722 0.10619 0.20629 0.0
O164 O 0.54883 0.10519 0.239 0.0
C165 C 0.6147 0.09117 0.27579 0.0
C166 C 0.54139 0.11468 0.22161 0.0
O167 O 0.6336 0.07363 0.20881 0.0
Mg168 Mg 0.48532 0.89325 0.75629 0.0
O169 O 0.47732 0.82835 0.75083 0.0
O170 O 0.42424 0.79478 0.72919 0.0
Mg171 Mg 0.39672 0.8362 0.72178 0.0
C172 C 0.45308 0.79637 0.74021 0.0
C173 C 0.55055 0.93223 0.78922 0.0
O174 O 0.51868 0.93551 0.79527 0.0
O175 O 0.51516 0.91505 0.72471 0.0
O176 O 0.45715 0.88184 0.70604 0.0
O177 O 0.43815 0.86365 0.78108 0.0
O178 O 0.42208 0.86951 0.74991 0.0
C179 C 0.49627 0.90719 0.70777 0.0
C180 C 0.40992 0.85466 0.76755 0.0
O181 O 0.54819 0.91559 0.77216 0.0
Mg182 Mg 0.09376 0.5933 0.7639 0.0
O183 O 0.1637 0.64258 0.76113 0.0
O184 O 0.19249 0.61293 0.74283 0.0
Mg185 Mg 0.14139 0.54942 0.73097 0.0
C186 C 0.1955 0.64315 0.75341 0.0
C187 C 0.08199 0.64764 0.79683 0.0
O188 O 0.09543 0.62808 0.8082 0.0
O189 O 0.08189 0.60931 0.73215 0.0
O190 O 0.11004 0.5792 0.71381 0.0
O191 O 0.11244 0.56656 0.78943 0.0
O192 O 0.10658 0.54552 0.75801 0.0
C193 C 0.09047 0.59909 0.71524 0.0
C194 C 0.11921 0.54551 0.77592 0.0
O195 O 0.0797 0.64146 0.77796 0.0
Mg196 Mg 0.38232 0.49394 0.75651 0.0
O197 O 0.32256 0.4975 0.75842 0.0
O198 O 0.32579 0.5407 0.7342 0.0
Mg199 Mg 0.38786 0.56625 0.71752 0.0
C200 C 0.30721 0.51631 0.7489 0.0
C201 C 0.338 0.4382 0.7941 0.0
O202 O 0.34022 0.4732 0.79985 0.0
O203 O 0.35696 0.45238 0.7281 0.0
O204 O 0.3667 0.50097 0.70548 0.0
O205 O 0.41385 0.55043 0.77697 0.0
O206 O 0.41433 0.55369 0.74401 0.0
C207 C 0.35635 0.4636 0.71005 0.0
C208 C 0.4231 0.57296 0.76094 0.0
O209 O 0.35251 0.43669 0.77702 0.0
Mg210 Mg 0.54934 0.83598 0.55911 0.0
O211 O 0.48002 0.81692 0.55876 0.0
O212 O 0.44715 0.76504 0.5809 0.0
Mg213 Mg 0.49561 0.75664 0.59825 0.0
C214 C 0.44683 0.78893 0.56727 0.0
C215 C 0.57194 0.88796 0.51969 0.0
O216 O 0.57037 0.85354 0.51347 0.0
O217 O 0.56109 0.87599 0.58787 0.0
O218 O 0.52898 0.8237 0.60992 0.0
O219 O 0.53175 0.77967 0.53897 0.0
O220 O 0.53535 0.77893 0.57188 0.0
C221 C 0.55046 0.86254 0.60581 0.0
C222 C 0.52575 0.75864 0.5553 0.0
O223 O 0.5642 0.89085 0.53805 0.0
Mg224 Mg 0.15464 0.71925 0.56583 0.0
O225 O 0.17551 0.67058 0.56837 0.0
O226 O 0.23418 0.70126 0.58661 0.0
Mg227 Mg 0.2476 0.76521 0.59806 0.0
C228 C 0.20688 0.67056 0.57617 0.0
C229 C 0.08804 0.66343 0.53324 0.0
O230 O 0.12133 0.68249 0.52186 0.0
O231 O 0.12752 0.70344 0.5978 0.0
O232 O 0.18659 0.73517 0.61572 0.0
O233 O 0.19991 0.74627 0.54007 0.0
O234 O 0.21562 0.76814 0.57137 0.0
C235 C 0.14687 0.71451 0.61457 0.0
C236 C 0.22789 0.76864 0.55334 0.0
O237 O 0.09189 0.67036 0.55206 0.0
Mg238 Mg 0.26153 0.43162 0.5572 0.0
O239 O 0.31946 0.49718 0.55528 0.0
O240 O 0.31591 0.53506 0.58065 0.0
Mg241 Mg 0.25274 0.49635 0.59646 0.0
C242 C 0.33461 0.53091 0.56551 0.0
C243 C 0.27762 0.38847 0.52046 0.0
O244 O 0.24162 0.38415 0.51515 0.0
O245 O 0.2874 0.41715 0.58569 0.0
O246 O 0.27445 0.45336 0.60865 0.0
O247 O 0.22903 0.45451 0.53656 0.0
O248 O 0.22779 0.45732 0.56956 0.0
C249 C 0.2864 0.42777 0.60387 0.0
C250 C 0.21905 0.46722 0.55259 0.0
O251 O 0.29401 0.40664 0.53697 0.0
H252 H 0.34368 0.27674 0.19435 0.0
H253 H 0.4209 0.37034 0.15098 0.0
H254 H 0.36341 0.34111 0.127 0.0
H255 H 0.2903 0.2907 0.11869 0.0
H256 H 0.21279 0.19755 0.16217 0.0
H257 H 0.27123 0.22475 0.18559 0.0
C258 C 0.34803 0.29063 0.17962 0.0
C259 C 0.3866 0.32585 0.17456 0.0
C260 C 0.31468 0.2738 0.16587 0.0
C261 C 0.39159 0.34333 0.15536 0.0
C262 C 0.35867 0.32664 0.1416 0.0
C263 C 0.28621 0.27616 0.13324 0.0
C264 C 0.24705 0.24222 0.13864 0.0
C265 C 0.31994 0.29215 0.14675 0.0
C266 C 0.24246 0.2238 0.15758 0.0
C267 C 0.27591 0.23936 0.17103 0.0
H268 H 0.73132 0.0082 0.14067 0.0
H269 H 0.62441 0.96039 0.10138 0.0
H270 H 0.59061 0.98493 0.12445 0.0
H271 H 0.58998 0.01785 0.15606 0.0
H272 H 0.69555 0.06532 0.1961 0.0
H273 H 0.73119 0.04308 0.17248 0.0
C274 C 0.70076 0.00342 0.13711 0.0
C275 C 0.68046 0.98231 0.11928 0.0
C276 C 0.6811 0.01735 0.15063 0.0
C277 C 0.64078 0.97631 0.11497 0.0
C278 C 0.62133 0.99034 0.12818 0.0
C279 C 0.62083 0.02347 0.15968 0.0
C280 C 0.63992 0.04312 0.17791 0.0
C281 C 0.64098 0.01051 0.14611 0.0
C282 C 0.68001 0.05018 0.18222 0.0
C283 C 0.70042 0.03746 0.16871 0.0
H284 H 0.96203 0.56859 0.15775 0.0
H285 H 0.90761 0.61754 0.199 0.0
H286 H 0.93449 0.681 0.17884 0.0
H287 H 0.97534 0.72348 0.14986 0.0
H288 H 0.03003 0.67363 0.10921 0.0
H289 H 0.001 0.60972 0.12875 0.0
C290 C 0.95588 0.59303 0.16236 0.0
C291 C 0.93293 0.58828 0.17992 0.0
C292 C 0.97156 0.62941 0.15078 0.0
C293 C 0.92526 0.62035 0.18557 0.0
C294 C 0.94064 0.65669 0.17405 0.0
C295 C 0.98069 0.69853 0.14523 0.0
C296 C 0.005 0.70353 0.1281 0.0
C297 C 0.96409 0.66169 0.15667 0.0
C298 C 0.01165 0.67085 0.12235 0.0
C299 C -0.00495 0.63418 0.13352 0.0
H300 H 0.32881 0.36157 0.7869 0.0
H301 H 0.30532 0.43179 0.83154 0.0
H302 H 0.27592 0.37172 0.85396 0.0
H303 H 0.2579 0.29952 0.86121 0.0
H304 H 0.28178 0.2296 0.81654 0.0
H305 H 0.3098 0.28917 0.7939 0.0
C306 C 0.31721 0.36377 0.80151 0.0
C307 C 0.31943 0.40127 0.8075 0.0
C308 C 0.30037 0.32909 0.81439 0.0
C309 C 0.30412 0.40341 0.8265 0.0
C310 C 0.28727 0.36903 0.83937 0.0
C311 C 0.26911 0.29724 0.8465 0.0
C312 C 0.26776 0.26007 0.84065 0.0
C313 C 0.28539 0.33175 0.83351 0.0
C314 C 0.28245 0.25777 0.82151 0.0
C315 C 0.29854 0.29187 0.80851 0.0
H316 H 0.69068 0.00375 0.85592 0.0
H317 H 0.7547 0.97184 0.81157 0.0
H318 H 0.69447 0.94558 0.78916 0.0
H319 H 0.6235 0.93247 0.78193 0.0
H320 H 0.56094 0.96572 0.82657 0.0
H321 H 0.62055 0.99055 0.8489 0.0
C322 C 0.69152 0.99094 0.84138 0.0
C323 C 0.72729 0.98984 0.8355 0.0
C324 C 0.65693 0.97617 0.82851 0.0
C325 C 0.72765 0.97315 0.81654 0.0
C326 C 0.69318 0.95813 0.80368 0.0
C327 C 0.62294 0.94514 0.79653 0.0
C328 C 0.58764 0.9472 0.80246 0.0
C329 C 0.65765 0.95963 0.80945 0.0
C330 C 0.58756 0.96374 0.8215 0.0
C331 C 0.62171 0.97798 0.83436 0.0
H332 H 0.08039 0.66459 0.83647 0.0
H333 H 0.0457 0.68681 0.77805 0.0
H334 H 0.01212 0.72195 0.79359 0.0
H335 H -0.01135 0.74238 0.8239 0.0
H336 H 0.023 0.71928 0.88223 0.0
H337 H 0.0607 0.68872 0.86656 0.0
C338 C 0.06581 0.67741 0.82709 0.0
C339 C 0.06535 0.6727 0.8061 0.0
C340 C 0.04621 0.69726 0.83612 0.0
C341 C 0.04645 0.68978 0.79423 0.0
C342 C 0.02711 0.70982 0.80312 0.0
C343 C 0.00463 0.73096 0.83319 0.0
C344 C 0.0026 0.73288 0.85425 0.0
C345 C 0.02616 0.7131 0.82407 0.0
C346 C 0.02376 0.71808 0.86601 0.0
C347 C 0.04535 0.70051 0.85706 0.0
H348 H 0.8991 0.56874 0.50607 0.0
H349 H 0.9571 0.59027 0.4478 0.0
H350 H 0.02559 0.62082 0.46355 0.0
H351 H 0.06951 0.64545 0.49366 0.0
H352 H 0.01201 0.62494 0.55199 0.0
H353 H 0.943 0.58968 0.53641 0.0
C354 C 0.92667 0.5798 0.4968 0.0
C355 C 0.92282 0.57746 0.47575 0.0
C356 C 0.96617 0.59768 0.50596 0.0
C357 C 0.95899 0.59182 0.46402 0.0
C358 C -0.00172 0.60937 0.47302 0.0
C359 C 0.04192 0.63297 0.50301 0.0
C360 C 0.04609 0.63819 0.52398 0.0
C361 C 0.0023 0.61308 0.49395 0.0
C362 C 0.00985 0.62155 0.53582 0.0
C363 C 0.97031 0.60145 0.52691 0.0
H364 H 0.35214 0.3925 0.52677 0.0
H365 H 0.25019 0.34774 0.48458 0.0
H366 H 0.28398 0.32051 0.46296 0.0
H367 H 0.34218 0.30899 0.456 0.0
H368 H 0.44428 0.35364 0.49807 0.0
H369 H 0.4107 0.38126 0.51968 0.0
C370 C 0.33729 0.3768 0.51285 0.0
C371 C 0.2986 0.3722 0.50737 0.0
C372 C 0.35691 0.36114 0.50042 0.0
C373 C 0.27991 0.35177 0.48924 0.0
C374 C 0.29922 0.33614 0.47683 0.0
C375 C 0.35716 0.32477 0.46989 0.0
C376 C 0.39574 0.32913 0.47537 0.0
C377 C 0.33768 0.34059 0.48227 0.0
C378 C 0.41461 0.34976 0.49344 0.0
C379 C 0.39541 0.36559 0.50584 0.0
H380 H 0.63523 0.05683 0.47207 0.0
H381 H 0.65396 0.98516 0.42638 0.0
H382 H 0.62275 0.9239 0.44803 0.0
H383 H 0.5948 0.89205 0.48067 0.0
H384 H 0.57839 0.96388 0.52711 0.0
H385 H 0.6039 0.02355 0.50444 0.0
C386 C 0.63189 0.02762 0.46674 0.0
C387 C 0.64703 0.02566 0.44761 0.0
C388 C 0.61472 0.99263 0.47949 0.0
C389 C 0.64276 0.98763 0.44103 0.0
C390 C 0.62498 0.95257 0.45344 0.0
C391 C 0.59649 0.92063 0.48585 0.0
C392 C 0.5849 0.92346 0.50565 0.0
C393 C 0.61166 0.95494 0.47283 0.0
C394 C 0.58727 0.96081 0.512 0.0
C395 C 0.60187 -0.00501 0.49903 0.0
H396 H 0.02155 0.17988 0.06669 0.0
H397 H 0.03537 0.14889 0.12735 0.0
H398 H 0.96365 0.08953 0.12667 0.0
H399 H 0.90072 0.04068 0.10692 0.0
H400 H 0.89284 0.06764 0.0448 0.0
H401 H 0.95874 0.13386 0.04772 0.0
C402 C 0.00884 0.1603 0.07983 0.0
C403 C 0.03401 0.16829 0.09689 0.0
C404 C 0.96879 0.12504 0.07888 0.0
C405 C 0.01667 0.14339 0.114 0.0
C406 C 0.97582 0.10916 0.11352 0.0
C407 C 0.91329 0.06156 0.0942 0.0
C408 C 0.89227 0.04967 0.07568 0.0
C409 C 0.95215 0.09878 0.09578 0.0
C410 C 0.90879 0.07636 0.05915 0.0
C411 C 0.94634 0.11413 0.06082 0.0
H412 H 0.84993 0.90255 0.11927 0.0
H413 H 0.80293 0.85177 0.06036 0.0
H414 H 0.85903 0.83701 0.05563 0.0
H415 H 0.92545 0.84477 0.0667 0.0
H416 H 0.97145 0.89144 0.12603 0.0
H417 H 0.91193 0.90141 0.13222 0.0
C418 C 0.85154 0.8875 0.10559 0.0
C419 C 0.82287 0.87928 0.08999 0.0
C420 C 0.884 0.87875 0.10295 0.0
C421 C 0.82522 0.85947 0.07241 0.0
C422 C 0.85728 0.8509 0.06966 0.0
C423 C 0.92192 0.85648 0.08108 0.0
C424 C 0.95249 0.86757 0.09587 0.0
C425 C 0.88751 0.86152 0.08456 0.0
C426 C 0.94791 0.88257 0.1145 0.0
C427 C 0.91404 0.88841 0.11798 0.0
H428 H 0.16825 0.09717 0.08951 0.0
H429 H 0.03773 0.05448 0.09774 0.0
H430 H 0.02553 0.98717 0.10996 0.0
H431 H 0.05052 0.93825 0.1151 0.0
H432 H 0.17806 0.97625 0.10176 0.0
H433 H 0.19362 0.04788 0.09536 0.0
C434 C 0.13736 0.07319 0.09424 0.0
C435 C 0.10387 0.08043 0.09272 0.0
C436 C 0.13028 0.03392 0.10048 0.0
C437 C 0.06381 0.04921 0.09865 0.0
C438 C 0.05688 0.01087 0.1057 0.0
C439 C 0.0819 0.96261 0.1113 0.0
C440 C 0.11338 0.95264 0.1093 0.0
C441 C 0.08967 0.00259 0.10628 0.0
C442 C 0.15371 0.9838 0.10381 0.0
C443 C 0.1624 0.0245 0.09992 0.0
H444 H 0.01705 0.90845 0.88089 0.0
H445 H 0.04651 0.90474 0.94306 0.0
H446 H 0.11088 0.97235 0.93971 0.0
H447 H 0.15672 0.03335 0.91959 0.0
H448 H 0.12263 0.04283 0.85887 0.0
H449 H 0.06314 0.97134 0.86073 0.0
C450 C 0.03789 0.92253 0.89359 0.0
C451 C 0.02751 0.90201 0.91218 0.0
C452 C 0.07395 0.96216 0.89173 0.0
C453 C 0.05412 0.92033 0.92867 0.0
C454 C 0.09084 0.95881 0.92673 0.0
C455 C 0.13594 0.02025 0.90686 0.0
C456 C 0.1435 0.04397 0.88934 0.0
C457 C 0.10069 0.98025 0.90843 0.0
C458 C 0.1174 0.02543 0.87262 0.0
C459 C 0.0832 0.98465 0.87372 0.0
H460 H 0.0834 0.13816 0.87659 0.0
H461 H 0.07902 0.15449 0.94043 0.0
H462 H 0.01077 0.1486 0.93706 0.0
H463 H 0.94989 0.13178 0.91663 0.0
H464 H 0.94956 0.10636 0.85341 0.0
H465 H 0.02255 0.12416 0.85565 0.0
C466 C 0.06776 0.14133 0.88964 0.0
C467 C 0.08609 0.147 0.90873 0.0
C468 C 0.02765 0.13599 0.88768 0.0
C469 C 0.06538 0.15021 0.92563 0.0
C470 C 0.02639 0.14673 0.9237 0.0
C471 C 0.96563 0.12997 0.9033 0.0
C472 C 0.94394 0.11678 0.88497 0.0
C473 C 0.00675 0.13838 0.90491 0.0
C474 C 0.96541 0.11614 0.86774 0.0
C475 C 0.00707 0.12607 0.86905 0.0
H476 H 0.89114 0.8484 0.86674 0.0
H477 H 0.8273 0.79057 0.92184 0.0
H478 H 0.80903 0.8444 0.92655 0.0
H479 H 0.81925 0.91297 0.91749 0.0
H480 H 0.88037 0.97055 0.86207 0.0
H481 H 0.89147 0.91191 0.85487 0.0
C482 C 0.87227 0.84701 0.87946 0.0
C483 C 0.86136 0.81602 0.89414 0.0
C484 C 0.86192 0.87839 0.88217 0.0
C485 C 0.83682 0.81458 0.91053 0.0
C486 C 0.82638 0.84539 0.91328 0.0
C487 C 0.83416 0.91205 0.90365 0.0
C488 C 0.84917 0.94572 0.89035 0.0
C489 C 0.8401 0.87827 0.89962 0.0
C490 C 0.86843 0.94459 0.87243 0.0
C491 C 0.87494 0.91123 0.86839 0.0
H492 H 0.68658 0.51505 0.41012 0.0
H493 H 0.69888 0.47225 0.46832 0.0
H494 H 0.62624 0.41493 0.46654 0.0
H495 H 0.56336 0.37059 0.44587 0.0
H496 H 0.55664 0.40903 0.38576 0.0
H497 H 0.623 0.47411 0.39063 0.0
C498 C 0.67328 0.49342 0.42253 0.0
C499 C 0.69835 0.4974 0.43914 0.0
C500 C 0.63257 0.45933 0.42085 0.0
C501 C 0.68031 0.46986 0.45533 0.0
C502 C 0.6389 0.43679 0.45421 0.0
C503 C 0.57611 0.39382 0.43408 0.0
C504 C 0.55532 0.38543 0.41552 0.0
C505 C 0.61533 0.43023 0.43667 0.0
C506 C 0.57225 0.41509 0.40015 0.0
C507 C 0.61015 0.45216 0.40292 0.0
H508 H 0.53644 0.26215 0.40255 0.0
H509 H 0.48577 0.18275 0.45412 0.0
H510 H 0.54257 0.16706 0.4526 0.0
H511 H 0.60657 0.17602 0.43604 0.0
H512 H 0.6553 0.25653 0.38437 0.0
H513 H 0.59837 0.27072 0.3861 0.0
C514 C 0.53692 0.24049 0.41311 0.0
C515 C 0.50615 0.22258 0.42799 0.0
C516 C 0.56933 0.23176 0.41206 0.0
C517 C 0.50896 0.19661 0.44239 0.0
C518 C 0.5413 0.18755 0.44145 0.0
C519 C 0.6044 0.19624 0.42503 0.0
C520 C 0.63511 0.21489 0.40999 0.0
C521 C 0.57159 0.20479 0.42623 0.0
C522 C 0.63219 0.24164 0.39607 0.0
C523 C 0.59965 0.24989 0.39705 0.0
H524 H 0.82746 0.42282 0.42841 0.0
H525 H 0.69479 0.37434 0.42947 0.0
H526 H 0.68255 0.30558 0.43927 0.0
H527 H 0.70917 0.2581 0.445 0.0
H528 H 0.84018 0.30294 0.43784 0.0
H529 H 0.85409 0.37463 0.43388 0.0
C530 C 0.79598 0.39721 0.43099 0.0
C531 C 0.76205 0.40342 0.42824 0.0
C532 C 0.78911 0.35736 0.43586 0.0
C533 C 0.72131 0.37003 0.43136 0.0
C534 C 0.71434 0.33086 0.43708 0.0
C535 C 0.74084 0.28383 0.44306 0.0
C536 C 0.77379 0.27575 0.44213 0.0
C537 C 0.74795 0.32403 0.43911 0.0
C538 C 0.81458 0.30888 0.43904 0.0
C539 C 0.82237 0.34964 0.43651 0.0
H540 H 0.73068 0.21844 0.23242 0.0
H541 H 0.64087 0.25804 0.22454 0.0
H542 H 0.69615 0.32725 0.21399 0.0
H543 H 0.77043 0.37814 0.2099 0.0
H544 H 0.86158 0.34292 0.22325 0.0
H545 H 0.80586 0.27006 0.22807 0.0
C546 C 0.72342 0.24223 0.22818 0.0
C547 C 0.68205 0.23351 0.22926 0.0
C548 C 0.75563 0.2825 0.22291 0.0
C549 C 0.67271 0.26445 0.22397 0.0
C550 C 0.7042 0.30385 0.21785 0.0
C551 C 0.77793 0.35419 0.21339 0.0
C552 C 0.81972 0.36527 0.21581 0.0
C553 C 0.74581 0.31343 0.2176 0.0
C554 C 0.82944 0.33455 0.22087 0.0
C555 C 0.79762 0.29315 0.22387 0.0
H556 H 0.72826 0.45953 0.2593 0.0
H557 H 0.73871 0.42383 0.19902 0.0
H558 H 0.66942 0.41261 0.19084 0.0
H559 H 0.60351 0.40783 0.20195 0.0
H560 H 0.59652 0.44911 0.26172 0.0
H561 H 0.6668 0.4639 0.26889 0.0
C562 C 0.7154 0.44979 0.24434 0.0
C563 C 0.73796 0.44213 0.22981 0.0
C564 C 0.67613 0.44429 0.23968 0.0
C565 C 0.72157 0.42988 0.21039 0.0
C566 C 0.68201 0.42339 0.20575 0.0
C567 C 0.61767 0.42076 0.21639 0.0
C568 C 0.59425 0.42612 0.23146 0.0
C569 C 0.65864 0.42983 0.2204 0.0
C570 C 0.6133 0.44339 0.25003 0.0
C571 C 0.65362 0.45204 0.25417 0.0
H572 H 0.51345 0.26723 0.21103 0.0
H573 H 0.47458 0.23549 0.2725 0.0
H574 H 0.47759 0.17144 0.26914 0.0
H575 H 0.49789 0.12855 0.24997 0.0
H576 H 0.54664 0.16475 0.1901 0.0
H577 H 0.53156 0.22184 0.19115 0.0
C578 C 0.50501 0.24578 0.22351 0.0
C579 C 0.49375 0.25574 0.24198 0.0
C580 C 0.50858 0.20989 0.2217 0.0
C581 C 0.48343 0.2283 0.2582 0.0
C582 C 0.48513 0.19176 0.25626 0.0
C583 C 0.5052 0.14886 0.23711 0.0
C584 C 0.52421 0.14295 0.22016 0.0
C585 C 0.49874 0.18287 0.23828 0.0
C586 C 0.53211 0.16867 0.20337 0.0
C587 C 0.52388 0.20159 0.20405 0.0
H588 H 0.21849 0.72447 0.76074 0.0
H589 H 0.26702 0.64086 0.75662 0.0
H590 H 0.33715 0.69853 0.76394 0.0
H591 H 0.38547 0.77343 0.7694 0.0
H592 H 0.3391 0.8587 0.76946 0.0
H593 H 0.26725 0.79987 0.76648 0.0
C594 C 0.24444 0.71895 0.76156 0.0
C595 C 0.23766 0.67858 0.75798 0.0
C596 C 0.28496 0.75252 0.76531 0.0
C597 C 0.27155 0.67181 0.759 0.0
C598 C 0.31162 0.70468 0.76333 0.0
C599 C 0.35943 0.77886 0.76921 0.0
C600 C 0.36705 0.81991 0.77011 0.0
C601 C 0.31876 0.74522 0.76628 0.0
C602 C 0.33352 0.82707 0.76926 0.0
C603 C 0.29263 0.79353 0.76732 0.0
H604 H 0.28889 0.54947 0.7808 0.0
H605 H 0.23448 0.4684 0.72959 0.0
H606 H 0.16719 0.46289 0.7365 0.0
H607 H 0.12701 0.48833 0.75436 0.0
H608 H 0.18312 0.57581 0.80329 0.0
H609 H 0.24591 0.57038 0.80071 0.0
C610 C 0.26192 0.53005 0.77147 0.0
C611 C 0.26612 0.50929 0.75474 0.0
C612 C 0.22375 0.52814 0.7752 0.0
C613 C 0.23154 0.48453 0.74251 0.0
C614 C 0.19322 0.48142 0.74647 0.0
C615 C 0.15268 0.50555 0.76474 0.0
C616 C 0.15066 0.5328 0.77881 0.0
C617 C 0.18934 0.50406 0.76241 0.0
C618 C 0.1838 0.55445 0.79237 0.0
C619 C 0.21997 0.55183 0.7907 0.0
H620 H 0.44866 0.7533 0.77368 0.0
H621 H 0.46329 0.75462 0.70952 0.0
H622 H 0.46147 0.68781 0.7109 0.0
H623 H 0.45041 0.62711 0.7299 0.0
H624 H 0.42622 0.62038 0.79347 0.0
H625 H 0.43854 0.69184 0.79302 0.0
C626 C 0.45215 0.73911 0.76012 0.0
C627 C 0.4565 0.75868 0.74153 0.0
C628 C 0.44924 0.69982 0.76096 0.0
C629 C 0.46011 0.73995 0.72394 0.0
C630 C 0.459 0.70183 0.72475 0.0
C631 C 0.44749 0.64101 0.74368 0.0
C632 C 0.43643 0.61799 0.7616 0.0
C633 C 0.45263 0.6811 0.7431 0.0
C634 C 0.43444 0.63727 0.77943 0.0
C635 C 0.44122 0.67804 0.77915 0.0
H636 H 0.46478 0.70477 0.52933 0.0
H637 H 0.52968 0.70945 0.58375 0.0
H638 H 0.47748 0.63726 0.59112 0.0
H639 H 0.40812 0.57637 0.5847 0.0
H640 H 0.34348 0.5696 0.53004 0.0
H641 H 0.40054 0.63873 0.5201 0.0
C642 C 0.46815 0.68948 0.54242 0.0
C643 C 0.50069 0.71254 0.55611 0.0
C644 C 0.43759 0.64781 0.54673 0.0
C645 C 0.50459 0.69242 0.57309 0.0
C646 C 0.47464 0.6512 0.57741 0.0
C647 C 0.40718 0.58978 0.57042 0.0
C648 C 0.37202 0.5684 0.55811 0.0
C649 C 0.44015 0.62918 0.56477 0.0
C650 C 0.37068 0.58571 0.53963 0.0
C651 C 0.40314 0.62524 0.53401 0.0
H652 H 0.26147 0.72312 0.54082 0.0
H653 H 0.29313 0.84624 0.56083 0.0
H654 H 0.36624 0.86549 0.56481 0.0
H655 H 0.41902 0.84388 0.56695 0.0
H656 H 0.38416 0.71736 0.55161 0.0
H657 H 0.31494 0.70278 0.54115 0.0
C658 C 0.28478 0.7546 0.54534 0.0
C659 C 0.27241 0.78362 0.5501 0.0
C660 C 0.32603 0.76438 0.54888 0.0
C661 C 0.30236 0.8238 0.5567 0.0
C662 C 0.34397 0.83457 0.55922 0.0
C663 C 0.39622 0.81332 0.56116 0.0
C664 C 0.40623 0.78161 0.56011 0.0
C665 C 0.35585 0.80462 0.55609 0.0
C666 C 0.37669 0.742 0.55271 0.0
C667 C 0.33722 0.7337 0.54672 0.0
H668 H 0.27329 0.54877 0.55599 0.0
H669 H 0.14253 0.46052 0.54869 0.0
H670 H 0.12661 0.51661 0.55447 0.0
H671 H 0.15046 0.59018 0.56439 0.0
H672 H 0.28127 0.67385 0.57669 0.0
H673 H 0.29675 0.62001 0.56685 0.0
C674 C 0.24138 0.54184 0.55574 0.0
C675 C 0.20919 0.5009 0.55197 0.0
C676 C 0.23257 0.57338 0.56035 0.0
C677 C 0.16784 0.49217 0.55129 0.0
C678 C 0.1588 0.52409 0.55484 0.0
C679 C 0.18228 0.59648 0.56494 0.0
C680 C 0.21467 0.63611 0.57124 0.0
C681 C 0.19091 0.56469 0.55989 0.0
C682 C 0.25572 0.64371 0.57199 0.0
C683 C 0.26469 0.61298 0.56627 0.0
H684 H 0.19468 0.16059 0.02509 0.0
H685 H 0.21466 0.28477 0.01905 0.0
H686 H 0.23891 0.28824 0.98444 0.0
H687 H 0.24404 0.25098 0.9544 0.0
H688 H 0.22277 0.12604 0.96142 0.0
H689 H 0.20966 0.12781 -0.00301 0.0
C690 C 0.20593 0.18896 0.01639 0.0
C691 C 0.20361 0.22257 0.02453 0.0
C692 C 0.21856 0.19012 -0.00353 0.0
C693 C 0.21717 0.2589 0.01312 0.0
C694 C 0.2304 0.26059 -0.00674 0.0
C695 C 0.23718 0.2245 0.96381 0.0
C696 C 0.23307 0.18794 0.95512 0.0
C697 C 0.22962 0.22566 0.9845 0.0
C698 C 0.22475 0.15407 0.96757 0.0
C699 C 0.21753 0.15509 0.98799 0.0
H700 H 0.78139 0.06543 0.96677 0.0
H701 H 0.72568 0.94545 0.93736 0.0
H702 H 0.69643 0.91053 0.96931 0.0
H703 H 0.70418 0.91479 0.0061 0.0
H704 H 0.76216 0.03483 0.03555 0.0
H705 H 0.77181 0.06934 0.00319 0.0
C706 C 0.76103 0.03174 0.96726 0.0
C707 C 0.75575 0.00788 0.94988 0.0
C708 C 0.74537 0.01201 0.98578 0.0
C709 C 0.72975 0.96433 0.95056 0.0
C710 C 0.71355 0.9444 0.96889 0.0
C711 C 0.71686 0.94832 0.00546 0.0
C712 C 0.7328 0.97237 0.02307 0.0
C713 C 0.72355 0.96789 0.98673 0.0
C714 C 0.74941 0.01573 0.0222 0.0
C715 C 0.75557 0.03549 0.00363 0.0
H716 H 0.91306 0.7187 0.98395 0.0
H717 H 0.02843 0.7789 0.95094 0.0
H718 H 0.06786 0.79361 0.98222 0.0
H719 H 0.06866 0.80437 0.01882 0.0
H720 H 0.95333 0.74394 0.05184 0.0
H721 H 0.9145 0.71333 0.02077 0.0
C722 C 0.94677 0.73328 0.98361 0.0
C723 C 0.96796 0.74812 0.9653 0.0
C724 C 0.96913 0.74227 0.00168 0.0
C725 C 0.01155 0.76701 0.96488 0.0
C726 C 0.03409 0.77596 0.9828 0.0
C727 C 0.03522 0.78301 0.01924 0.0
C728 C 0.01367 0.77663 0.03743 0.0
C729 C 0.01319 0.76599 0.0013 0.0
C730 C 0.97044 0.74902 0.03797 0.0
C731 C 0.94823 0.73194 0.02018 0.0
H732 H 0.91351 0.50296 0.30922 0.0
H733 H 0.85882 0.56538 0.27841 0.0
H734 H 0.84752 0.59055 0.31048 0.0
H735 H 0.83922 0.58084 0.34714 0.0
H736 H 0.89446 0.51896 0.37797 0.0
H737 H 0.92051 0.50815 0.34607 0.0
C738 C 0.90075 0.52356 0.30955 0.0
C739 C 0.88669 0.53217 0.29163 0.0
C740 C 0.89388 0.53732 0.32804 0.0
C741 C 0.87011 0.55872 0.29206 0.0
C742 C 0.86317 0.57261 0.31041 0.0
C743 C 0.85838 0.56646 0.34688 0.0
C744 C 0.86474 0.55034 0.3647 0.0
C745 C 0.87285 0.56012 0.32849 0.0
C746 C 0.88948 0.53176 0.36438 0.0
C747 C 0.90395 0.52521 0.34613 0.0
H748 H 0.42046 0.38312 0.30675 0.0
H749 H 0.37178 0.26282 0.27836 0.0
H750 H 0.34754 0.22836 0.31076 0.0
H751 H 0.36167 0.2353 0.34711 0.0
H752 H 0.41381 0.35602 0.3755 0.0
H753 H 0.41418 0.38761 0.34334 0.0
C754 C 0.40226 0.34926 0.30757 0.0
C755 C 0.39832 0.32544 0.29035 0.0
C756 C 0.39013 0.32992 0.32639 0.0
C757 C 0.37496 0.28169 0.29143 0.0
C758 C 0.36182 0.26205 0.31005 0.0
C759 C 0.37089 0.26809 0.34638 0.0
C760 C 0.38819 0.29352 0.36347 0.0
C761 C 0.37232 0.28613 0.32771 0.0
C762 C 0.40023 0.33592 0.36251 0.0
C763 C 0.40103 0.35406 0.34404 0.0
H764 H 0.65131 0.08518 0.36534 0.0
H765 H 0.77584 0.17047 0.3445 0.0
H766 H 0.75353 0.15053 0.30981 0.0
H767 H 0.69558 0.12151 0.28555 0.0
H768 H 0.57011 0.04151 0.30646 0.0
H769 H 0.59549 0.04561 0.34067 0.0
C770 C 0.67382 0.09804 0.35324 0.0
C771 C 0.715 0.12952 0.35742 0.0
C772 C 0.66031 0.08775 0.3332 0.0
C773 C 0.74383 0.14637 0.34159 0.0
C774 C 0.73104 0.13518 0.32172 0.0
C775 C 0.67419 0.10344 0.29747 0.0
C776 C 0.6312 0.08101 0.29358 0.0
C777 C 0.68889 0.10771 0.3173 0.0
C778 C 0.60345 0.05859 0.30917 0.0
C779 C 0.61791 0.06135 0.32878 0.0
H780 H 0.52103 0.91311 0.61672 0.0
H781 H 0.60548 0.8718 0.6344 0.0
H782 H 0.60447 0.89307 0.66902 0.0
H783 H 0.56503 0.90576 0.69509 0.0
H784 H 0.47633 0.94177 0.67745 0.0
H785 H 0.49425 0.94169 0.64225 0.0
C786 C 0.54086 0.91093 0.62799 0.0
C787 C 0.56341 0.89118 0.62312 0.0
C788 C 0.53857 0.9215 0.64808 0.0
C789 C 0.58823 0.8874 0.63788 0.0
C790 C 0.58721 0.89905 0.65773 0.0
C791 C 0.55125 0.91558 0.68359 0.0
C792 C 0.51921 0.9234 0.68877 0.0
C793 C 0.56041 0.91363 0.66323 0.0
C794 C 0.50102 0.93549 0.67373 0.0
C795 C 0.51095 0.93504 0.65357 0.0
H796 H 0.08894 0.63549 0.62469 0.0
H797 H 0.15651 0.76165 0.64741 0.0
H798 H 0.13578 0.73637 0.68167 0.0
H799 H 0.11132 0.67789 0.70532 0.0
H800 H 0.05193 0.55179 0.68256 0.0
H801 H 0.0555 0.57696 0.64839 0.0
C802 C 0.09763 0.65737 0.63711 0.0
C803 C 0.12403 0.70024 0.63366 0.0
C804 C 0.08754 0.64239 0.65687 0.0
C805 C 0.13603 0.72845 0.64983 0.0
C806 C 0.12446 0.71398 0.66941 0.0
C807 C 0.09773 0.65598 0.69293 0.0
C808 C 0.08132 0.61318 0.69632 0.0
C809 C 0.10206 0.67093 0.6732 0.0
C810 C 0.0646 0.58494 0.68018 0.0
C811 C 0.06694 0.59935 0.66064 0.0
H812 H 0.24651 0.38456 0.6369 0.0
H813 H 0.36649 0.44661 0.60802 0.0
H814 H 0.40091 0.45459 0.64035 0.0
H815 H 0.39648 0.46097 0.67699 0.0
H816 H 0.27648 0.40076 0.70586 0.0
H817 H 0.24211 0.37369 0.67348 0.0
C818 C 0.28004 0.39782 0.63763 0.0
C819 C 0.3041 0.4152 0.62026 0.0
C820 C 0.2995 0.40326 0.65634 0.0
C821 C 0.34747 0.4327 0.62122 0.0
C822 C 0.36713 0.43781 0.63976 0.0
C823 C 0.36297 0.44003 0.67624 0.0
C824 C 0.33888 0.43286 0.69363 0.0
C825 C 0.34353 0.42569 0.6575 0.0
C826 C 0.29553 0.40622 0.69264 0.0
C827 C 0.27589 0.39131 0.67407 0.0
loop_
_geom_bond_atom_site_label_1
_geom_bond_atom_site_label_2
_geom_bond_distance
_geom_bond_site_symmetry_2
_ccdc_geom_bond_type
Mg0 O1 2.028 . S
Mg0 O7 1.986 . S
Mg0 O9 2.114 . S
Mg0 O10 2.251 . S
Mg0 O13 2.010 . S
O1 Mg0 2.028 . S
O1 C4 1.250 . S
O2 Mg3 2.028 . S
O2 C4 1.248 . S
Mg3 O2 2.028 . S
Mg3 O8 2.032 . S
Mg3 O10 2.079 . S
C4 O1 1.250 . S
C4 O2 1.248 . S
C5 O6 1.264 . S
C5 O13 1.249 . S
O6 C5 1.264 . S
O7 Mg0 1.986 . S
O7 C11 1.246 . S
O8 Mg3 2.032 . S
O8 C11 1.259 . S
O9 Mg0 2.114 . S
O9 C12 1.252 . S
O10 Mg0 2.251 . S
O10 Mg3 2.079 . S
O10 C12 1.273 . S
C11 O7 1.246 . S
C11 O8 1.259 . S
C12 O9 1.252 . S
C12 O10 1.273 . S
O13 Mg0 2.010 . S
O13 C5 1.249 . S
Mg14 O15 2.028 1_565 S
Mg14 O21 1.986 . S
Mg14 O23 2.114 . S
Mg14 O24 2.251 . S
Mg14 O27 2.010 . S
O15 Mg14 2.028 1_545 S
O15 C18 1.250 . S
O16 Mg17 2.028 1_545 S
O16 C18 1.248 . S
Mg17 O16 2.028 1_565 S
Mg17 O22 2.032 . S
Mg17 O24 2.079 . S
C18 O15 1.250 . S
C18 O16 1.248 . S
C19 O20 1.264 1_545 S
C19 O27 1.249 1_545 S
O20 C19 1.264 1_565 S
O21 Mg14 1.986 . S
O21 C25 1.246 . S
O22 Mg17 2.032 . S
O22 C25 1.259 . S
O23 Mg14 2.114 . S
O23 C26 1.252 . S
O24 Mg14 2.251 . S
O24 Mg17 2.079 . S
O24 C26 1.273 . S
C25 O21 1.246 . S
C25 O22 1.259 . S
C26 O23 1.252 . S
C26 O24 1.273 . S
O27 Mg14 2.010 . S
O27 C19 1.249 1_565 S
Mg28 O29 2.028 1_455 S
Mg28 O35 1.986 . S
Mg28 O37 2.114 . S
Mg28 O38 2.251 . S
Mg28 O41 2.010 . S
O29 Mg28 2.028 1_655 S
O29 C32 1.250 . S
O30 Mg31 2.028 1_655 S
O30 C32 1.248 . S
Mg31 O30 2.028 1_455 S
Mg31 O36 2.032 . S
Mg31 O38 2.079 . S
C32 O29 1.250 . S
C32 O30 1.248 . S
C33 O34 1.264 1_655 S
C33 O41 1.249 1_655 S
O34 C33 1.264 1_455 S
O35 Mg28 1.986 . S
O35 C39 1.246 . S
O36 Mg31 2.032 . S
O36 C39 1.259 . S
O37 Mg28 2.114 . S
O37 C40 1.252 . S
O38 Mg28 2.251 . S
O38 Mg31 2.079 . S
O38 C40 1.273 . S
C39 O35 1.246 . S
C39 O36 1.259 . S
C40 O37 1.252 . S
C40 O38 1.273 . S
O41 Mg28 2.010 . S
O41 C33 1.249 1_455 S
Mg42 O43 2.028 . S
Mg42 O49 1.986 . S
Mg42 O51 2.114 . S
Mg42 O52 2.251 . S
Mg42 O55 2.010 . S
O43 Mg42 2.028 . S
O43 C46 1.250 . S
O44 Mg45 2.028 . S
O44 C46 1.248 . S
Mg45 O44 2.028 . S
Mg45 O50 2.032 . S
Mg45 O52 2.079 . S
C46 O43 1.250 . S
C46 O44 1.248 . S
C47 O48 1.264 . S
C47 O55 1.249 . S
O48 C47 1.264 . S
O49 Mg42 1.986 . S
O49 C53 1.246 . S
O50 Mg45 2.032 . S
O50 C53 1.259 . S
O51 Mg42 2.114 . S
O51 C54 1.252 . S
O52 Mg42 2.251 . S
O52 Mg45 2.079 . S
O52 C54 1.273 . S
C53 O49 1.246 . S
C53 O50 1.259 . S
C54 O51 1.252 . S
C54 O52 1.273 . S
O55 Mg42 2.010 . S
O55 C47 1.249 . S
Mg56 O57 2.028 1_545 S
Mg56 O63 1.986 . S
Mg56 O65 2.114 . S
Mg56 O66 2.251 . S
Mg56 O69 2.010 . S
O57 Mg56 2.028 1_565 S
O57 C60 1.250 . S
O58 Mg59 2.028 1_565 S
O58 C60 1.248 . S
Mg59 O58 2.028 1_545 S
Mg59 O64 2.032 . S
Mg59 O66 2.079 . S
C60 O57 1.250 . S
C60 O58 1.248 . S
C61 O62 1.264 1_565 S
C61 O69 1.249 1_565 S
O62 C61 1.264 1_545 S
O63 Mg56 1.986 . S
O63 C67 1.246 . S
O64 Mg59 2.032 . S
O64 C67 1.259 . S
O65 Mg56 2.114 . S
O65 C68 1.252 . S
O66 Mg56 2.251 . S
O66 Mg59 2.079 . S
O66 C68 1.273 . S
C67 O63 1.246 . S
C67 O64 1.259 . S
C68 O65 1.252 . S
C68 O66 1.273 . S
O69 Mg56 2.010 . S
O69 C61 1.249 1_545 S
Mg70 O71 2.028 1_655 S
Mg70 O77 1.986 . S
Mg70 O79 2.114 . S
Mg70 O80 2.251 . S
Mg70 O83 2.010 . S
O71 Mg70 2.028 1_455 S
O71 C74 1.250 . S
O72 Mg73 2.028 1_455 S
O72 C74 1.248 . S
Mg73 O72 2.028 1_655 S
Mg73 O78 2.032 . S
Mg73 O80 2.079 . S
C74 O71 1.250 . S
C74 O72 1.248 . S
C75 O76 1.264 1_455 S
C75 O83 1.249 1_455 S
O76 C75 1.264 1_655 S
O77 Mg70 1.986 . S
O77 C81 1.246 . S
O78 Mg73 2.032 . S
O78 C81 1.259 . S
O79 Mg70 2.114 . S
O79 C82 1.252 . S
O80 Mg70 2.251 . S
O80 Mg73 2.079 . S
O80 C82 1.273 . S
C81 O77 1.246 . S
C81 O78 1.259 . S
C82 O79 1.252 . S
C82 O80 1.273 . S
O83 Mg70 2.010 . S
O83 C75 1.249 1_655 S
Mg84 O85 2.028 . S
Mg84 O91 1.986 . S
Mg84 O93 2.114 . S
Mg84 O94 2.251 . S
Mg84 O97 2.010 . S
O85 Mg84 2.028 . S
O85 C88 1.250 . S
O86 Mg87 2.028 . S
O86 C88 1.248 . S
Mg87 O86 2.028 . S
Mg87 O92 2.032 . S
Mg87 O94 2.079 . S
C88 O85 1.250 . S
C88 O86 1.248 . S
C89 O90 1.264 . S
C89 O97 1.249 . S
O90 C89 1.264 . S
O91 Mg84 1.986 . S
O91 C95 1.246 . S
O92 Mg87 2.032 . S
O92 C95 1.259 . S
O93 Mg84 2.114 . S
O93 C96 1.252 . S
O94 Mg84 2.251 . S
O94 Mg87 2.079 . S
O94 C96 1.273 . S
C95 O91 1.246 . S
C95 O92 1.259 . S
C96 O93 1.252 . S
C96 O94 1.273 . S
O97 Mg84 2.010 . S
O97 C89 1.249 . S
Mg98 O99 2.028 . S
Mg98 O105 1.986 . S
Mg98 O107 2.114 . S
Mg98 O108 2.251 . S
Mg98 O111 2.010 . S
O99 Mg98 2.028 . S
O99 C102 1.250 . S
O100 Mg101 2.028 . S
O100 C102 1.248 . S
Mg101 O100 2.028 . S
Mg101 O106 2.032 . S
Mg101 O108 2.079 . S
C102 O99 1.250 . S
C102 O100 1.248 . S
C103 O104 1.264 . S
C103 O111 1.249 . S
O104 C103 1.264 . S
O105 Mg98 1.986 . S
O105 C109 1.246 . S
O106 Mg101 2.032 . S
O106 C109 1.259 . S
O107 Mg98 2.114 . S
O107 C110 1.252 . S
O108 Mg98 2.251 . S
O108 Mg101 2.079 . S
O108 C110 1.273 . S
C109 O105 1.246 . S
C109 O106 1.259 . S
C110 O107 1.252 . S
C110 O108 1.273 . S
O111 Mg98 2.010 . S
O111 C103 1.249 . S
Mg112 O113 2.028 . S
Mg112 O119 1.986 . S
Mg112 O121 2.114 . S
Mg112 O122 2.251 . S
Mg112 O125 2.010 . S
O113 Mg112 2.028 . S
O113 C116 1.250 . S
O114 Mg115 2.028 . S
O114 C116 1.248 . S
Mg115 O114 2.028 . S
Mg115 O120 2.032 . S
Mg115 O122 2.079 . S
C116 O113 1.250 . S
C116 O114 1.248 . S
C117 O118 1.264 . S
C117 O125 1.249 . S
O118 C117 1.264 . S
O119 Mg112 1.986 . S
O119 C123 1.246 . S
O120 Mg115 2.032 . S
O120 C123 1.259 . S
O121 Mg112 2.114 . S
O121 C124 1.252 . S
O122 Mg112 2.251 . S
O122 Mg115 2.079 . S
O122 C124 1.273 . S
C123 O119 1.246 . S
C123 O120 1.259 . S
C124 O121 1.252 . S
C124 O122 1.273 . S
O125 Mg112 2.010 . S
O125 C117 1.249 . S
Mg126 O127 2.028 . S
Mg126 O133 1.986 . S
Mg126 O135 2.114 . S
Mg126 O136 2.251 . S
Mg126 O139 2.010 . S
O127 Mg126 2.028 . S
O127 C130 1.250 . S
O128 Mg129 2.028 . S
O128 C130 1.248 . S
Mg129 O128 2.028 . S
Mg129 O134 2.032 . S
Mg129 O136 2.079 . S
C130 O127 1.250 . S
C130 O128 1.248 . S
C131 O132 1.264 . S
C131 O139 1.249 . S
O132 C131 1.264 . S
O133 Mg126 1.986 . S
O133 C137 1.246 . S
O134 Mg129 2.032 . S
O134 C137 1.259 . S
O135 Mg126 2.114 . S
O135 C138 1.252 . S
O136 Mg126 2.251 . S
O136 Mg129 2.079 . S
O136 C138 1.273 . S
C137 O133 1.246 . S
C137 O134 1.259 . S
C138 O135 1.252 . S
C138 O136 1.273 . S
O139 Mg126 2.010 . S
O139 C131 1.249 . S
Mg140 O141 2.028 . S
Mg140 O147 1.986 . S
Mg140 O149 2.114 . S
Mg140 O150 2.251 . S
Mg140 O153 2.010 . S
O141 Mg140 2.028 . S
O141 C144 1.250 . S
O142 Mg143 2.028 . S
O142 C144 1.248 . S
Mg143 O142 2.028 . S
Mg143 O148 2.032 . S
Mg143 O150 2.079 . S
C144 O141 1.250 . S
C144 O142 1.248 . S
C145 O146 1.264 . S
C145 O153 1.249 . S
O146 C145 1.264 . S
O147 Mg140 1.986 . S
O147 C151 1.246 . S
O148 Mg143 2.032 . S
O148 C151 1.259 . S
O149 Mg140 2.114 . S
O149 C152 1.252 . S
O150 Mg140 2.251 . S
O150 Mg143 2.079 . S
O150 C152 1.273 . S
C151 O147 1.246 . S
C151 O148 1.259 . S
C152 O149 1.252 . S
C152 O150 1.273 . S
O153 Mg140 2.010 . S
O153 C145 1.249 . S
Mg154 O155 2.028 . S
Mg154 O161 1.986 . S
Mg154 O163 2.114 . S
Mg154 O164 2.251 . S
Mg154 O167 2.010 . S
O155 Mg154 2.028 . S
O155 C158 1.250 . S
O156 Mg157 2.028 . S
O156 C158 1.248 . S
Mg157 O156 2.028 . S
Mg157 O162 2.032 . S
Mg157 O164 2.079 . S
C158 O155 1.250 . S
C158 O156 1.248 . S
C159 O160 1.264 . S
C159 O167 1.249 . S
O160 C159 1.264 . S
O161 Mg154 1.986 . S
O161 C165 1.246 . S
O162 Mg157 2.032 . S
O162 C165 1.259 . S
O163 Mg154 2.114 . S
O163 C166 1.252 . S
O164 Mg154 2.251 . S
O164 Mg157 2.079 . S
O164 C166 1.273 . S
C165 O161 1.246 . S
C165 O162 1.259 . S
C166 O163 1.252 . S
C166 O164 1.273 . S
O167 Mg154 2.010 . S
O167 C159 1.249 . S
Mg168 O169 2.028 . S
Mg168 O175 1.986 . S
Mg168 O177 2.114 . S
Mg168 O178 2.251 . S
Mg168 O181 2.010 . S
O169 Mg168 2.028 . S
O169 C172 1.250 . S
O170 Mg171 2.028 . S
O170 C172 1.248 . S
Mg171 O170 2.028 . S
Mg171 O176 2.032 . S
Mg171 O178 2.079 . S
C172 O169 1.250 . S
C172 O170 1.248 . S
C173 O174 1.264 . S
C173 O181 1.249 . S
O174 C173 1.264 . S
O175 Mg168 1.986 . S
O175 C179 1.246 . S
O176 Mg171 2.032 . S
O176 C179 1.259 . S
O177 Mg168 2.114 . S
O177 C180 1.252 . S
O178 Mg168 2.251 . S
O178 Mg171 2.079 . S
O178 C180 1.273 . S
C179 O175 1.246 . S
C179 O176 1.259 . S
C180 O177 1.252 . S
C180 O178 1.273 . S
O181 Mg168 2.010 . S
O181 C173 1.249 . S
Mg182 O183 2.028 . S
Mg182 O189 1.986 . S
Mg182 O191 2.114 . S
Mg182 O192 2.251 . S
Mg182 O195 2.010 . S
O183 Mg182 2.028 . S
O183 C186 1.250 . S
O184 Mg185 2.028 . S
O184 C186 1.248 . S
Mg185 O184 2.028 . S
Mg185 O190 2.032 . S
Mg185 O192 2.079 . S
C186 O183 1.250 . S
C186 O184 1.248 . S
C187 O188 1.264 . S
C187 O195 1.249 . S
O188 C187 1.264 . S
O189 Mg182 1.986 . S
O189 C193 1.246 . S
O190 Mg185 2.032 . S
O190 C193 1.259 . S
O191 Mg182 2.114 . S
O191 C194 1.252 . S
O192 Mg182 2.251 . S
O192 Mg185 2.079 . S
O192 C194 1.273 . S
C193 O189 1.246 . S
C193 O190 1.259 . S
C194 O191 1.252 . S
C194 O192 1.273 . S
O195 Mg182 2.010 . S
O195 C187 1.249 . S
Mg196 O197 2.028 . S
Mg196 O203 1.986 . S
Mg196 O205 2.114 . S
Mg196 O206 2.251 . S
Mg196 O209 2.010 . S
O197 Mg196 2.028 . S
O197 C200 1.250 . S
O198 Mg199 2.028 . S
O198 C200 1.248 . S
Mg199 O198 2.028 . S
Mg199 O204 2.032 . S
Mg199 O206 2.079 . S
C200 O197 1.250 . S
C200 O198 1.248 . S
C201 O202 1.264 . S
C201 O209 1.249 . S
O202 C201 1.264 . S
O203 Mg196 1.986 . S
O203 C207 1.246 . S
O204 Mg199 2.032 . S
O204 C207 1.259 . S
O205 Mg196 2.114 . S
O205 C208 1.252 . S
O206 Mg196 2.251 . S
O206 Mg199 2.079 . S
O206 C208 1.273 . S
C207 O203 1.246 . S
C207 O204 1.259 . S
C208 O205 1.252 . S
C208 O206 1.273 . S
O209 Mg196 2.010 . S
O209 C201 1.249 . S
Mg210 O211 2.028 . S
Mg210 O217 1.986 . S
Mg210 O219 2.114 . S
Mg210 O220 2.251 . S
Mg210 O223 2.010 . S
O211 Mg210 2.028 . S
O211 C214 1.250 . S
O212 Mg213 2.028 . S
O212 C214 1.248 . S
Mg213 O212 2.028 . S
Mg213 O218 2.032 . S
Mg213 O220 2.079 . S
C214 O211 1.250 . S
C214 O212 1.248 . S
C215 O216 1.264 . S
C215 O223 1.249 . S
O216 C215 1.264 . S
O217 Mg210 1.986 . S
O217 C221 1.246 . S
O218 Mg213 2.032 . S
O218 C221 1.259 . S
O219 Mg210 2.114 . S
O219 C222 1.252 . S
O220 Mg210 2.251 . S
O220 Mg213 2.079 . S
O220 C222 1.273 . S
C221 O217 1.246 . S
C221 O218 1.259 . S
C222 O219 1.252 . S
C222 O220 1.273 . S
O223 Mg210 2.010 . S
O223 C215 1.249 . S
Mg224 O225 2.028 . S
Mg224 O231 1.986 . S
Mg224 O233 2.114 . S
Mg224 O234 2.251 . S
Mg224 O237 2.010 . S
O225 Mg224 2.028 . S
O225 C228 1.250 . S
O226 Mg227 2.028 . S
O226 C228 1.248 . S
Mg227 O226 2.028 . S
Mg227 O232 2.032 . S
Mg227 O234 2.079 . S
C228 O225 1.250 . S
C228 O226 1.248 . S
C229 O230 1.264 . S
C229 O237 1.249 . S
O230 C229 1.264 . S
O231 Mg224 1.986 . S
O231 C235 1.246 . S
O232 Mg227 2.032 . S
O232 C235 1.259 . S
O233 Mg224 2.114 . S
O233 C236 1.252 . S
O234 Mg224 2.251 . S
O234 Mg227 2.079 . S
O234 C236 1.273 . S
C235 O231 1.246 . S
C235 O232 1.259 . S
C236 O233 1.252 . S
C236 O234 1.273 . S
O237 Mg224 2.010 . S
O237 C229 1.249 . S
Mg238 O239 2.028 . S
Mg238 O245 1.986 . S
Mg238 O247 2.114 . S
Mg238 O248 2.251 . S
Mg238 O251 2.010 . S
O239 Mg238 2.028 . S
O239 C242 1.250 . S
O240 Mg241 2.028 . S
O240 C242 1.248 . S
Mg241 O240 2.028 . S
Mg241 O246 2.032 . S
Mg241 O248 2.079 . S
C242 O239 1.250 . S
C242 O240 1.248 . S
C243 O244 1.264 . S
C243 O251 1.249 . S
O244 C243 1.264 . S
O245 Mg238 1.986 . S
O245 C249 1.246 . S
O246 Mg241 2.032 . S
O246 C249 1.259 . S
O247 Mg238 2.114 . S
O247 C250 1.252 . S
O248 Mg238 2.251 . S
O248 Mg241 2.079 . S
O248 C250 1.273 . S
C249 O245 1.246 . S
C249 O246 1.259 . S
C250 O247 1.252 . S
C250 O248 1.273 . S
O251 Mg238 2.010 . S
O251 C243 1.249 . S
H252 C258 0.930 . S
H253 C261 0.930 . S
H254 C262 0.930 . S
H255 C263 0.930 . S
H256 C266 0.930 . S
H257 C267 0.930 . S
C258 H252 0.930 . S
C258 C259 1.355 . S
C258 C260 1.415 . S
C259 C258 1.355 . S
C259 C261 1.419 . S
C260 C258 1.415 . S
C260 C265 1.425 . S
C260 C267 1.409 . S
C261 H253 0.930 . S
C261 C259 1.419 . S
C261 C262 1.362 . S
C262 H254 0.930 . S
C262 C261 1.362 . S
C262 C265 1.409 . S
C263 H255 0.930 . S
C263 C264 1.355 . S
C263 C265 1.415 . S
C264 C263 1.355 . S
C264 C266 1.419 . S
C265 C260 1.425 . S
C265 C262 1.409 . S
C265 C263 1.415 . S
C266 H256 0.930 . S
C266 C264 1.419 . S
C266 C267 1.362 . S
C267 H257 0.930 . S
C267 C260 1.409 . S
C267 C266 1.362 . S
H268 C274 0.930 . S
H269 C277 0.930 . S
H270 C278 0.930 1_565 S
H271 C279 0.930 . S
H272 C282 0.930 . S
H273 C283 0.930 . S
C274 H268 0.930 . S
C274 C275 1.355 . S
C274 C276 1.415 . S
C275 C274 1.355 . S
C275 C277 1.419 1_545 S
C276 C274 1.415 . S
C276 C281 1.425 . S
C276 C283 1.409 . S
C277 H269 0.930 . S
C277 C275 1.419 1_565 S
C277 C278 1.362 1_565 S
C278 H270 0.930 1_545 S
C278 C277 1.362 1_545 S
C278 C281 1.409 . S
C279 H271 0.930 . S
C279 C280 1.355 . S
C279 C281 1.415 . S
C280 C279 1.355 . S
C280 C282 1.419 . S
C281 C276 1.425 . S
C281 C278 1.409 . S
C281 C279 1.415 . S
C282 H272 0.930 . S
C282 C280 1.419 . S
C282 C283 1.362 . S
C283 H273 0.930 . S
C283 C276 1.409 . S
C283 C282 1.362 . S
H284 C290 0.930 . S
H285 C293 0.930 . S
H286 C294 0.930 . S
H287 C295 0.930 . S
H288 C298 0.930 . S
H289 C299 0.930 . S
C290 H284 0.930 . S
C290 C291 1.355 . S
C290 C292 1.415 . S
C291 C290 1.355 . S
C291 C293 1.419 . S
C292 C290 1.415 . S
C292 C297 1.425 . S
C292 C299 1.409 1_655 S
C293 H285 0.930 . S
C293 C291 1.419 . S
C293 C294 1.362 . S
C294 H286 0.930 . S
C294 C293 1.362 . S
C294 C297 1.409 . S
C295 H287 0.930 . S
C295 C296 1.355 . S
C295 C297 1.415 . S
C296 C295 1.355 . S
C296 C298 1.419 1_655 S
C297 C292 1.425 . S
C297 C294 1.409 . S
C297 C295 1.415 . S
C298 H288 0.930 . S
C298 C296 1.419 1_455 S
C298 C299 1.362 . S
C299 H289 0.930 . S
C299 C292 1.409 1_455 S
C299 C298 1.362 . S
H300 C306 0.930 . S
H301 C309 0.930 . S
H302 C310 0.930 . S
H303 C311 0.930 . S
H304 C314 0.930 . S
H305 C315 0.930 . S
C306 H300 0.930 . S
C306 C307 1.355 . S
C306 C308 1.415 . S
C307 C306 1.355 . S
C307 C309 1.419 . S
C308 C306 1.415 . S
C308 C313 1.425 . S
C308 C315 1.409 . S
C309 H301 0.930 . S
C309 C307 1.419 . S
C309 C310 1.362 . S
C310 H302 0.930 . S
C310 C309 1.362 . S
C310 C313 1.409 . S
C311 H303 0.930 . S
C311 C312 1.355 . S
C311 C313 1.415 . S
C312 C311 1.355 . S
C312 C314 1.419 . S
C313 C308 1.425 . S
C313 C310 1.409 . S
C313 C311 1.415 . S
C314 H304 0.930 . S
C314 C312 1.419 . S
C314 C315 1.362 . S
C315 H305 0.930 . S
C315 C308 1.409 . S
C315 C314 1.362 . S
H316 C322 0.930 1_545 S
H317 C325 0.930 . S
H318 C326 0.930 . S
H319 C327 0.930 . S
H320 C330 0.930 . S
H321 C331 0.930 . S
C322 H316 0.930 1_565 S
C322 C323 1.355 . S
C322 C324 1.415 . S
C323 C322 1.355 . S
C323 C325 1.419 . S
C324 C322 1.415 . S
C324 C329 1.425 . S
C324 C331 1.409 . S
C325 H317 0.930 . S
C325 C323 1.419 . S
C325 C326 1.362 . S
C326 H318 0.930 . S
C326 C325 1.362 . S
C326 C329 1.409 . S
C327 H319 0.930 . S
C327 C328 1.355 . S
C327 C329 1.415 . S
C328 C327 1.355 . S
C328 C330 1.419 . S
C329 C324 1.425 . S
C329 C326 1.409 . S
C329 C327 1.415 . S
C330 H320 0.930 . S
C330 C328 1.419 . S
C330 C331 1.362 . S
C331 H321 0.930 . S
C331 C324 1.409 . S
C331 C330 1.362 . S
H332 C338 0.930 . S
H333 C341 0.930 . S
H334 C342 0.930 1_655 S
H335 C343 0.930 1_655 S
H336 C346 0.930 . S
H337 C347 0.930 . S
C338 H332 0.930 . S
C338 C339 1.355 . S
C338 C340 1.415 . S
C339 C338 1.355 . S
C339 C341 1.419 . S
C340 C338 1.415 . S
C340 C345 1.425 . S
C340 C347 1.409 . S
C341 H333 0.930 . S
C341 C339 1.419 . S
C341 C342 1.362 . S
C342 H334 0.930 1_455 S
C342 C341 1.362 . S
C342 C345 1.409 . S
C343 H335 0.930 1_455 S
C343 C344 1.355 . S
C343 C345 1.415 . S
C344 C343 1.355 . S
C344 C346 1.419 . S
C345 C340 1.425 . S
C345 C342 1.409 . S
C345 C343 1.415 . S
C346 H336 0.930 . S
C346 C344 1.419 . S
C346 C347 1.362 . S
C347 H337 0.930 . S
C347 C340 1.409 . S
C347 C346 1.362 . S
H348 C354 0.930 . S
H349 C357 0.930 . S
H350 C358 0.930 . S
H351 C359 0.930 . S
H352 C362 0.930 . S
H353 C363 0.930 . S
C354 H348 0.930 . S
C354 C355 1.355 . S
C354 C356 1.415 . S
C355 C354 1.355 . S
C355 C357 1.419 . S
C356 C354 1.415 . S
C356 C361 1.425 1_655 S
C356 C363 1.409 . S
C357 H349 0.930 . S
C357 C355 1.419 . S
C357 C358 1.362 1_655 S
C358 H350 0.930 . S
C358 C357 1.362 1_455 S
C358 C361 1.409 . S
C359 H351 0.930 . S
C359 C360 1.355 . S
C359 C361 1.415 . S
C360 C359 1.355 . S
C360 C362 1.419 . S
C361 C356 1.425 1_455 S
C361 C358 1.409 . S
C361 C359 1.415 . S
C362 H352 0.930 . S
C362 C360 1.419 . S
C362 C363 1.362 1_455 S
C363 H353 0.930 . S
C363 C356 1.409 . S
C363 C362 1.362 1_655 S
H364 C370 0.930 . S
H365 C373 0.930 . S
H366 C374 0.930 . S
H367 C375 0.930 . S
H368 C378 0.930 . S
H369 C379 0.930 . S
C370 H364 0.930 . S
C370 C371 1.355 . S
C370 C372 1.415 . S
C371 C370 1.355 . S
C371 C373 1.419 . S
C372 C370 1.415 . S
C372 C377 1.425 . S
C372 C379 1.409 . S
C373 H365 0.930 . S
C373 C371 1.419 . S
C373 C374 1.362 . S
C374 H366 0.930 . S
C374 C373 1.362 . S
C374 C377 1.409 . S
C375 H367 0.930 . S
C375 C376 1.355 . S
C375 C377 1.415 . S
C376 C375 1.355 . S
C376 C378 1.419 . S
C377 C372 1.425 . S
C377 C374 1.409 . S
C377 C375 1.415 . S
C378 H368 0.930 . S
C378 C376 1.419 . S
C378 C379 1.362 . S
C379 H369 0.930 . S
C379 C372 1.409 . S
C379 C378 1.362 . S
H380 C386 0.930 . S
H381 C389 0.930 . S
H382 C390 0.930 1_565 S
H383 C391 0.930 . S
H384 C394 0.930 . S
H385 C395 0.930 . S
C386 H380 0.930 . S
C386 C387 1.355 . S
C386 C388 1.415 . S
C387 C386 1.355 . S
C387 C389 1.419 . S
C388 C386 1.415 . S
C388 C393 1.425 1_545 S
C388 C395 1.409 1_545 S
C389 H381 0.930 . S
C389 C387 1.419 . S
C389 C390 1.362 . S
C390 H382 0.930 1_545 S
C390 C389 1.362 . S
C390 C393 1.409 1_545 S
C391 H383 0.930 . S
C391 C392 1.355 . S
C391 C393 1.415 . S
C392 C391 1.355 . S
C392 C394 1.419 . S
C393 C388 1.425 1_565 S
C393 C390 1.409 1_565 S
C393 C391 1.415 . S
C394 H384 0.930 . S
C394 C392 1.419 . S
C394 C395 1.362 . S
C395 H385 0.930 . S
C395 C388 1.409 1_565 S
C395 C394 1.362 . S
H396 C402 0.930 . S
H397 C405 0.930 . S
H398 C406 0.930 . S
H399 C407 0.930 . S
H400 C410 0.930 . S
H401 C411 0.930 . S
C402 H396 0.930 . S
C402 C403 1.355 . S
C402 C404 1.415 1_455 S
C403 C402 1.355 . S
C403 C405 1.419 . S
C404 C402 1.415 1_655 S
C404 C409 1.425 . S
C404 C411 1.409 . S
C405 H397 0.930 . S
C405 C403 1.419 . S
C405 C406 1.362 . S
C406 H398 0.930 . S
C406 C405 1.362 . S
C406 C409 1.409 1_455 S
C407 H399 0.930 . S
C407 C408 1.355 . S
C407 C409 1.415 . S
C408 C407 1.355 . S
C408 C410 1.419 . S
C409 C404 1.425 . S
C409 C406 1.409 1_655 S
C409 C407 1.415 . S
C410 H400 0.930 . S
C410 C408 1.419 . S
C410 C411 1.362 . S
C411 H401 0.930 . S
C411 C404 1.409 . S
C411 C410 1.362 . S
H412 C418 0.930 . S
H413 C421 0.930 . S
H414 C422 0.930 . S
H415 C423 0.930 . S
H416 C426 0.930 . S
H417 C427 0.930 . S
C418 H412 0.930 . S
C418 C419 1.355 . S
C418 C420 1.415 . S
C419 C418 1.355 . S
C419 C421 1.419 . S
C420 C418 1.415 . S
C420 C425 1.425 . S
C420 C427 1.409 . S
C421 H413 0.930 . S
C421 C419 1.419 . S
C421 C422 1.362 . S
C422 H414 0.930 . S
C422 C421 1.362 . S
C422 C425 1.409 . S
C423 H415 0.930 . S
C423 C424 1.355 . S
C423 C425 1.415 . S
C424 C423 1.355 . S
C424 C426 1.419 . S
C425 C420 1.425 . S
C425 C422 1.409 . S
C425 C423 1.415 . S
C426 H416 0.930 . S
C426 C424 1.419 . S
C426 C427 1.362 . S
C427 H417 0.930 . S
C427 C420 1.409 . S
C427 C426 1.362 . S
H428 C434 0.930 . S
H429 C437 0.930 . S
H430 C438 0.930 . S
H431 C439 0.930 . S
H432 C442 0.930 . S
H433 C443 0.930 . S
C434 H428 0.930 . S
C434 C435 1.355 . S
C434 C436 1.415 . S
C435 C434 1.355 . S
C435 C437 1.419 . S
C436 C434 1.415 . S
C436 C441 1.425 . S
C436 C443 1.409 . S
C437 H429 0.930 . S
C437 C435 1.419 . S
C437 C438 1.362 . S
C438 H430 0.930 . S
C438 C437 1.362 . S
C438 C441 1.409 . S
C439 H431 0.930 . S
C439 C440 1.355 . S
C439 C441 1.415 1_565 S
C440 C439 1.355 . S
C440 C442 1.419 . S
C441 C436 1.425 . S
C441 C438 1.409 . S
C441 C439 1.415 1_545 S
C442 H432 0.930 . S
C442 C440 1.419 . S
C442 C443 1.362 1_565 S
C443 H433 0.930 . S
C443 C436 1.409 . S
C443 C442 1.362 1_545 S
H444 C450 0.930 . S
H445 C453 0.930 . S
H446 C454 0.930 . S
H447 C455 0.930 . S
H448 C458 0.930 . S
H449 C459 0.930 . S
C450 H444 0.930 . S
C450 C451 1.355 . S
C450 C452 1.415 . S
C451 C450 1.355 . S
C451 C453 1.419 . S
C452 C450 1.415 . S
C452 C457 1.425 . S
C452 C459 1.409 1_565 S
C453 H445 0.930 . S
C453 C451 1.419 . S
C453 C454 1.362 . S
C454 H446 0.930 . S
C454 C453 1.362 . S
C454 C457 1.409 . S
C455 H447 0.930 . S
C455 C456 1.355 . S
C455 C457 1.415 1_545 S
C456 C455 1.355 . S
C456 C458 1.419 . S
C457 C452 1.425 . S
C457 C454 1.409 . S
C457 C455 1.415 1_565 S
C458 H448 0.930 . S
C458 C456 1.419 . S
C458 C459 1.362 . S
C459 H449 0.930 . S
C459 C452 1.409 1_545 S
C459 C458 1.362 . S
H460 C466 0.930 . S
H461 C469 0.930 . S
H462 C470 0.930 . S
H463 C471 0.930 . S
H464 C474 0.930 . S
H465 C475 0.930 . S
C466 H460 0.930 . S
C466 C467 1.355 . S
C466 C468 1.415 . S
C467 C466 1.355 . S
C467 C469 1.419 . S
C468 C466 1.415 . S
C468 C473 1.425 . S
C468 C475 1.409 . S
C469 H461 0.930 . S
C469 C467 1.419 . S
C469 C470 1.362 . S
C470 H462 0.930 . S
C470 C469 1.362 . S
C470 C473 1.409 . S
C471 H463 0.930 . S
C471 C472 1.355 . S
C471 C473 1.415 1_655 S
C472 C471 1.355 . S
C472 C474 1.419 . S
C473 C468 1.425 . S
C473 C470 1.409 . S
C473 C471 1.415 1_455 S
C474 H464 0.930 . S
C474 C472 1.419 . S
C474 C475 1.362 1_655 S
C475 H465 0.930 . S
C475 C468 1.409 . S
C475 C474 1.362 1_455 S
H476 C482 0.930 . S
H477 C485 0.930 . S
H478 C486 0.930 . S
H479 C487 0.930 . S
H480 C490 0.930 . S
H481 C491 0.930 . S
C482 H476 0.930 . S
C482 C483 1.355 . S
C482 C484 1.415 . S
C483 C482 1.355 . S
C483 C485 1.419 . S
C484 C482 1.415 . S
C484 C489 1.425 . S
C484 C491 1.409 . S
C485 H477 0.930 . S
C485 C483 1.419 . S
C485 C486 1.362 . S
C486 H478 0.930 . S
C486 C485 1.362 . S
C486 C489 1.409 . S
C487 H479 0.930 . S
C487 C488 1.355 . S
C487 C489 1.415 . S
C488 C487 1.355 . S
C488 C490 1.419 . S
C489 C484 1.425 . S
C489 C486 1.409 . S
C489 C487 1.415 . S
C490 H480 0.930 . S
C490 C488 1.419 . S
C490 C491 1.362 . S
C491 H481 0.930 . S
C491 C484 1.409 . S
C491 C490 1.362 . S
H492 C498 0.930 . S
H493 C501 0.930 . S
H494 C502 0.930 . S
H495 C503 0.930 . S
H496 C506 0.930 . S
H497 C507 0.930 . S
C498 H492 0.930 . S
C498 C499 1.355 . S
C498 C500 1.415 . S
C499 C498 1.355 . S
C499 C501 1.419 . S
C500 C498 1.415 . S
C500 C505 1.425 . S
C500 C507 1.409 . S
C501 H493 0.930 . S
C501 C499 1.419 . S
C501 C502 1.362 . S
C502 H494 0.930 . S
C502 C501 1.362 . S
C502 C505 1.409 . S
C503 H495 0.930 . S
C503 C504 1.355 . S
C503 C505 1.415 . S
C504 C503 1.355 . S
C504 C506 1.419 . S
C505 C500 1.425 . S
C505 C502 1.409 . S
C505 C503 1.415 . S
C506 H496 0.930 . S
C506 C504 1.419 . S
C506 C507 1.362 . S
C507 H497 0.930 . S
C507 C500 1.409 . S
C507 C506 1.362 . S
H508 C514 0.930 . S
H509 C517 0.930 . S
H510 C518 0.930 . S
H511 C519 0.930 . S
H512 C522 0.930 . S
H513 C523 0.930 . S
C514 H508 0.930 . S
C514 C515 1.355 . S
C514 C516 1.415 . S
C515 C514 1.355 . S
C515 C517 1.419 . S
C516 C514 1.415 . S
C516 C521 1.425 . S
C516 C523 1.409 . S
C517 H509 0.930 . S
C517 C515 1.419 . S
C517 C518 1.362 . S
C518 H510 0.930 . S
C518 C517 1.362 . S
C518 C521 1.409 . S
C519 H511 0.930 . S
C519 C520 1.355 . S
C519 C521 1.415 . S
C520 C519 1.355 . S
C520 C522 1.419 . S
C521 C516 1.425 . S
C521 C518 1.409 . S
C521 C519 1.415 . S
C522 H512 0.930 . S
C522 C520 1.419 . S
C522 C523 1.362 . S
C523 H513 0.930 . S
C523 C516 1.409 . S
C523 C522 1.362 . S
H524 C530 0.930 . S
H525 C533 0.930 . S
H526 C534 0.930 . S
H527 C535 0.930 . S
H528 C538 0.930 . S
H529 C539 0.930 . S
C530 H524 0.930 . S
C530 C531 1.355 . S
C530 C532 1.415 . S
C531 C530 1.355 . S
C531 C533 1.419 . S
C532 C530 1.415 . S
C532 C537 1.425 . S
C532 C539 1.409 . S
C533 H525 0.930 . S
C533 C531 1.419 . S
C533 C534 1.362 . S
C534 H526 0.930 . S
C534 C533 1.362 . S
C534 C537 1.409 . S
C535 H527 0.930 . S
C535 C536 1.355 . S
C535 C537 1.415 . S
C536 C535 1.355 . S
C536 C538 1.419 . S
C537 C532 1.425 . S
C537 C534 1.409 . S
C537 C535 1.415 . S
C538 H528 0.930 . S
C538 C536 1.419 . S
C538 C539 1.362 . S
C539 H529 0.930 . S
C539 C532 1.409 . S
C539 C538 1.362 . S
H540 C546 0.930 . S
H541 C549 0.930 . S
H542 C550 0.930 . S
H543 C551 0.930 . S
H544 C554 0.930 . S
H545 C555 0.930 . S
C546 H540 0.930 . S
C546 C547 1.355 . S
C546 C548 1.415 . S
C547 C546 1.355 . S
C547 C549 1.419 . S
C548 C546 1.415 . S
C548 C553 1.425 . S
C548 C555 1.409 . S
C549 H541 0.930 . S
C549 C547 1.419 . S
C549 C550 1.362 . S
C550 H542 0.930 . S
C550 C549 1.362 . S
C550 C553 1.409 . S
C551 H543 0.930 . S
C551 C552 1.355 . S
C551 C553 1.415 . S
C552 C551 1.355 . S
C552 C554 1.419 . S
C553 C548 1.425 . S
C553 C550 1.409 . S
C553 C551 1.415 . S
C554 H544 0.930 . S
C554 C552 1.419 . S
C554 C555 1.362 . S
C555 H545 0.930 . S
C555 C548 1.409 . S
C555 C554 1.362 . S
H556 C562 0.930 . S
H557 C565 0.930 . S
H558 C566 0.930 . S
H559 C567 0.930 . S
H560 C570 0.930 . S
H561 C571 0.930 . S
C562 H556 0.930 . S
C562 C563 1.355 . S
C562 C564 1.415 . S
C563 C562 1.355 . S
C563 C565 1.419 . S
C564 C562 1.415 . S
C564 C569 1.425 . S
C564 C571 1.409 . S
C565 H557 0.930 . S
C565 C563 1.419 . S
C565 C566 1.362 . S
C566 H558 0.930 . S
C566 C565 1.362 . S
C566 C569 1.409 . S
C567 H559 0.930 . S
C567 C568 1.355 . S
C567 C569 1.415 . S
C568 C567 1.355 . S
C568 C570 1.419 . S
C569 C564 1.425 . S
C569 C566 1.409 . S
C569 C567 1.415 . S
C570 H560 0.930 . S
C570 C568 1.419 . S
C570 C571 1.362 . S
C571 H561 0.930 . S
C571 C564 1.409 . S
C571 C570 1.362 . S
H572 C578 0.930 . S
H573 C581 0.930 . S
H574 C582 0.930 . S
H575 C583 0.930 . S
H576 C586 0.930 . S
H577 C587 0.930 . S
C578 H572 0.930 . S
C578 C579 1.355 . S
C578 C580 1.415 . S
C579 C578 1.355 . S
C579 C581 1.419 . S
C580 C578 1.415 . S
C580 C585 1.425 . S
C580 C587 1.409 . S
C581 H573 0.930 . S
C581 C579 1.419 . S
C581 C582 1.362 . S
C582 H574 0.930 . S
C582 C581 1.362 . S
C582 C585 1.409 . S
C583 H575 0.930 . S
C583 C584 1.355 . S
C583 C585 1.415 . S
C584 C583 1.355 . S
C584 C586 1.419 . S
C585 C580 1.425 . S
C585 C582 1.409 . S
C585 C583 1.415 . S
C586 H576 0.930 . S
C586 C584 1.419 . S
C586 C587 1.362 . S
C587 H577 0.930 . S
C587 C580 1.409 . S
C587 C586 1.362 . S
H588 C594 0.930 . S
H589 C597 0.930 . S
H590 C598 0.930 . S
H591 C599 0.930 . S
H592 C602 0.930 . S
H593 C603 0.930 . S
C594 H588 0.930 . S
C594 C595 1.355 . S
C594 C596 1.415 . S
C595 C594 1.355 . S
C595 C597 1.419 . S
C596 C594 1.415 . S
C596 C601 1.425 . S
C596 C603 1.409 . S
C597 H589 0.930 . S
C597 C595 1.419 . S
C597 C598 1.362 . S
C598 H590 0.930 . S
C598 C597 1.362 . S
C598 C601 1.409 . S
C599 H591 0.930 . S
C599 C600 1.355 . S
C599 C601 1.415 . S
C600 C599 1.355 . S
C600 C602 1.419 . S
C601 C596 1.425 . S
C601 C598 1.409 . S
C601 C599 1.415 . S
C602 H592 0.930 . S
C602 C600 1.419 . S
C602 C603 1.362 . S
C603 H593 0.930 . S
C603 C596 1.409 . S
C603 C602 1.362 . S
H604 C610 0.930 . S
H605 C613 0.930 . S
H606 C614 0.930 . S
H607 C615 0.930 . S
H608 C618 0.930 . S
H609 C619 0.930 . S
C610 H604 0.930 . S
C610 C611 1.355 . S
C610 C612 1.415 . S
C611 C610 1.355 . S
C611 C613 1.419 . S
C612 C610 1.415 . S
C612 C617 1.425 . S
C612 C619 1.409 . S
C613 H605 0.930 . S
C613 C611 1.419 . S
C613 C614 1.362 . S
C614 H606 0.930 . S
C614 C613 1.362 . S
C614 C617 1.409 . S
C615 H607 0.930 . S
C615 C616 1.355 . S
C615 C617 1.415 . S
C616 C615 1.355 . S
C616 C618 1.419 . S
C617 C612 1.425 . S
C617 C614 1.409 . S
C617 C615 1.415 . S
C618 H608 0.930 . S
C618 C616 1.419 . S
C618 C619 1.362 . S
C619 H609 0.930 . S
C619 C612 1.409 . S
C619 C618 1.362 . S
H620 C626 0.930 . S
H621 C629 0.930 . S
H622 C630 0.930 . S
H623 C631 0.930 . S
H624 C634 0.930 . S
H625 C635 0.930 . S
C626 H620 0.930 . S
C626 C627 1.355 . S
C626 C628 1.415 . S
C627 C626 1.355 . S
C627 C629 1.419 . S
C628 C626 1.415 . S
C628 C633 1.425 . S
C628 C635 1.409 . S
C629 H621 0.930 . S
C629 C627 1.419 . S
C629 C630 1.362 . S
C630 H622 0.930 . S
C630 C629 1.362 . S
C630 C633 1.409 . S
C631 H623 0.930 . S
C631 C632 1.355 . S
C631 C633 1.415 . S
C632 C631 1.355 . S
C632 C634 1.419 . S
C633 C628 1.425 . S
C633 C630 1.409 . S
C633 C631 1.415 . S
C634 H624 0.930 . S
C634 C632 1.419 . S
C634 C635 1.362 . S
C635 H625 0.930 . S
C635 C628 1.409 . S
C635 C634 1.362 . S
H636 C642 0.930 . S
H637 C645 0.930 . S
H638 C646 0.930 . S
H639 C647 0.930 . S
H640 C650 0.930 . S
H641 C651 0.930 . S
C642 H636 0.930 . S
C642 C643 1.355 . S
C642 C644 1.415 . S
C643 C642 1.355 . S
C643 C645 1.419 . S
C644 C642 1.415 . S
C644 C649 1.425 . S
C644 C651 1.409 . S
C645 H637 0.930 . S
C645 C643 1.419 . S
C645 C646 1.362 . S
C646 H638 0.930 . S
C646 C645 1.362 . S
C646 C649 1.409 . S
C647 H639 0.930 . S
C647 C648 1.355 . S
C647 C649 1.415 . S
C648 C647 1.355 . S
C648 C650 1.419 . S
C649 C644 1.425 . S
C649 C646 1.409 . S
C649 C647 1.415 . S
C650 H640 0.930 . S
C650 C648 1.419 . S
C650 C651 1.362 . S
C651 H641 0.930 . S
C651 C644 1.409 . S
C651 C650 1.362 . S
H652 C658 0.930 . S
H653 C661 0.930 . S
H654 C662 0.930 . S
H655 C663 0.930 . S
H656 C666 0.930 . S
H657 C667 0.930 . S
C658 H652 0.930 . S
C658 C659 1.355 . S
C658 C660 1.415 . S
C659 C658 1.355 . S
C659 C661 1.419 . S
C660 C658 1.415 . S
C660 C665 1.425 . S
C660 C667 1.409 . S
C661 H653 0.930 . S
C661 C659 1.419 . S
C661 C662 1.362 . S
C662 H654 0.930 . S
C662 C661 1.362 . S
C662 C665 1.409 . S
C663 H655 0.930 . S
C663 C664 1.355 . S
C663 C665 1.415 . S
C664 C663 1.355 . S
C664 C666 1.419 . S
C665 C660 1.425 . S
C665 C662 1.409 . S
C665 C663 1.415 . S
C666 H656 0.930 . S
C666 C664 1.419 . S
C666 C667 1.362 . S
C667 H657 0.930 . S
C667 C660 1.409 . S
C667 C666 1.362 . S
H668 C674 0.930 . S
H669 C677 0.930 . S
H670 C678 0.930 . S
H671 C679 0.930 . S
H672 C682 0.930 . S
H673 C683 0.930 . S
C674 H668 0.930 . S
C674 C675 1.355 . S
C674 C676 1.415 . S
C675 C674 1.355 . S
C675 C677 1.419 . S
C676 C674 1.415 . S
C676 C681 1.425 . S
C676 C683 1.409 . S
C677 H669 0.930 . S
C677 C675 1.419 . S
C677 C678 1.362 . S
C678 H670 0.930 . S
C678 C677 1.362 . S
C678 C681 1.409 . S
C679 H671 0.930 . S
C679 C680 1.355 . S
C679 C681 1.415 . S
C680 C679 1.355 . S
C680 C682 1.419 . S
C681 C676 1.425 . S
C681 C678 1.409 . S
C681 C679 1.415 . S
C682 H672 0.930 . S
C682 C680 1.419 . S
C682 C683 1.362 . S
C683 H673 0.930 . S
C683 C676 1.409 . S
C683 C682 1.362 . S
H684 C690 0.930 . S
H685 C693 0.930 . S
H686 C694 0.930 . S
H687 C695 0.930 . S
H688 C698 0.930 . S
H689 C699 0.930 . S
C690 H684 0.930 . S
C690 C691 1.355 . S
C690 C692 1.415 . S
C691 C690 1.355 . S
C691 C693 1.419 . S
C692 C690 1.415 . S
C692 C697 1.425 1_554 S
C692 C699 1.409 1_554 S
C693 H685 0.930 . S
C693 C691 1.419 . S
C693 C694 1.362 . S
C694 H686 0.930 . S
C694 C693 1.362 . S
C694 C697 1.409 1_554 S
C695 H687 0.930 . S
C695 C696 1.355 . S
C695 C697 1.415 . S
C696 C695 1.355 . S
C696 C698 1.419 . S
C697 C692 1.425 1_556 S
C697 C694 1.409 1_556 S
C697 C695 1.415 . S
C698 H688 0.930 . S
C698 C696 1.419 . S
C698 C699 1.362 . S
C699 H689 0.930 . S
C699 C692 1.409 1_556 S
C699 C698 1.362 . S
H700 C706 0.930 . S
H701 C709 0.930 . S
H702 C710 0.930 . S
H703 C711 0.930 . S
H704 C714 0.930 . S
H705 C715 0.930 . S
C706 H700 0.930 . S
C706 C707 1.343 1_545 S
C706 C708 1.415 . S
C707 C706 1.343 1_565 S
C707 C709 1.435 . S
C708 C706 1.415 . S
C708 C713 1.425 1_546 S
C708 C715 1.409 1_556 S
C709 H701 0.930 . S
C709 C707 1.435 . S
C709 C710 1.362 . S
C710 H702 0.930 . S
C710 C709 1.362 . S
C710 C713 1.409 1_556 S
C711 H703 0.930 . S
C711 C712 1.343 1_565 S
C711 C713 1.415 . S
C712 C711 1.343 1_545 S
C712 C714 1.434 . S
C713 C708 1.425 1_564 S
C713 C710 1.409 1_554 S
C713 C711 1.415 . S
C714 H704 0.930 . S
C714 C712 1.434 . S
C714 C715 1.362 . S
C715 H705 0.930 . S
C715 C708 1.409 1_554 S
C715 C714 1.362 . S
H716 C722 0.930 . S
H717 C725 0.930 . S
H718 C726 0.930 . S
H719 C727 0.930 . S
H720 C730 0.930 . S
H721 C731 0.930 . S
C722 H716 0.930 . S
C722 C723 1.369 . S
C722 C724 1.415 . S
C723 C722 1.369 . S
C723 C725 1.401 1_655 S
C724 C722 1.415 . S
C724 C729 1.425 1_656 S
C724 C731 1.409 1_556 S
C725 H717 0.930 . S
C725 C723 1.401 1_455 S
C725 C726 1.362 . S
C726 H718 0.930 . S
C726 C725 1.362 . S
C726 C729 1.409 1_556 S
C727 H719 0.930 . S
C727 C728 1.355 . S
C727 C729 1.415 . S
C728 C727 1.355 . S
C728 C730 1.419 1_455 S
C729 C724 1.425 1_454 S
C729 C726 1.409 1_554 S
C729 C727 1.415 . S
C730 H720 0.930 . S
C730 C728 1.419 1_655 S
C730 C731 1.362 . S
C731 H721 0.930 . S
C731 C724 1.409 1_554 S
C731 C730 1.362 . S
H732 C738 0.930 . S
H733 C741 0.930 . S
H734 C742 0.930 . S
H735 C743 0.930 . S
H736 C746 0.930 . S
H737 C747 0.930 . S
C738 H732 0.930 . S
C738 C739 1.355 . S
C738 C740 1.415 . S
C739 C738 1.355 . S
C739 C741 1.419 . S
C740 C738 1.415 . S
C740 C745 1.425 . S
C740 C747 1.409 . S
C741 H733 0.930 . S
C741 C739 1.419 . S
C741 C742 1.362 . S
C742 H734 0.930 . S
C742 C741 1.362 . S
C742 C745 1.409 . S
C743 H735 0.930 . S
C743 C744 1.355 . S
C743 C745 1.415 . S
C744 C743 1.355 . S
C744 C746 1.419 . S
C745 C740 1.425 . S
C745 C742 1.409 . S
C745 C743 1.415 . S
C746 H736 0.930 . S
C746 C744 1.419 . S
C746 C747 1.362 . S
C747 H737 0.930 . S
C747 C740 1.409 . S
C747 C746 1.362 . S
H748 C754 0.930 . S
H749 C757 0.930 . S
H750 C758 0.930 . S
H751 C759 0.930 . S
H752 C762 0.930 . S
H753 C763 0.930 . S
C754 H748 0.930 . S
C754 C755 1.355 . S
C754 C756 1.415 . S
C755 C754 1.355 . S
C755 C757 1.419 . S
C756 C754 1.415 . S
C756 C761 1.425 . S
C756 C763 1.409 . S
C757 H749 0.930 . S
C757 C755 1.419 . S
C757 C758 1.362 . S
C758 H750 0.930 . S
C758 C757 1.362 . S
C758 C761 1.409 . S
C759 H751 0.930 . S
C759 C760 1.355 . S
C759 C761 1.415 . S
C760 C759 1.355 . S
C760 C762 1.419 . S
C761 C756 1.425 . S
C761 C758 1.409 . S
C761 C759 1.415 . S
C762 H752 0.930 . S
C762 C760 1.419 . S
C762 C763 1.362 . S
C763 H753 0.930 . S
C763 C756 1.409 . S
C763 C762 1.362 . S
H764 C770 0.930 . S
H765 C773 0.930 . S
H766 C774 0.930 . S
H767 C775 0.930 . S
H768 C778 0.930 . S
H769 C779 0.930 . S
C770 H764 0.930 . S
C770 C771 1.355 . S
C770 C772 1.415 . S
C771 C770 1.355 . S
C771 C773 1.419 . S
C772 C770 1.415 . S
C772 C777 1.425 . S
C772 C779 1.409 . S
C773 H765 0.930 . S
C773 C771 1.419 . S
C773 C774 1.362 . S
C774 H766 0.930 . S
C774 C773 1.362 . S
C774 C777 1.409 . S
C775 H767 0.930 . S
C775 C776 1.355 . S
C775 C777 1.415 . S
C776 C775 1.355 . S
C776 C778 1.419 . S
C777 C772 1.425 . S
C777 C774 1.409 . S
C777 C775 1.415 . S
C778 H768 0.930 . S
C778 C776 1.419 . S
C778 C779 1.362 . S
C779 H769 0.930 . S
C779 C772 1.409 . S
C779 C778 1.362 . S
H780 C786 0.930 . S
H781 C789 0.930 . S
H782 C790 0.930 . S
H783 C791 0.930 . S
H784 C794 0.930 . S
H785 C795 0.930 . S
C786 H780 0.930 . S
C786 C787 1.355 . S
C786 C788 1.415 . S
C787 C786 1.355 . S
C787 C789 1.419 . S
C788 C786 1.415 . S
C788 C793 1.425 . S
C788 C795 1.409 . S
C789 H781 0.930 . S
C789 C787 1.419 . S
C789 C790 1.362 . S
C790 H782 0.930 . S
C790 C789 1.362 . S
C790 C793 1.409 . S
C791 H783 0.930 . S
C791 C792 1.355 . S
C791 C793 1.415 . S
C792 C791 1.355 . S
C792 C794 1.419 . S
C793 C788 1.425 . S
C793 C790 1.409 . S
C793 C791 1.415 . S
C794 H784 0.930 . S
C794 C792 1.419 . S
C794 C795 1.362 . S
C795 H785 0.930 . S
C795 C788 1.409 . S
C795 C794 1.362 . S
H796 C802 0.930 . S
H797 C805 0.930 . S
H798 C806 0.930 . S
H799 C807 0.930 . S
H800 C810 0.930 . S
H801 C811 0.930 . S
C802 H796 0.930 . S
C802 C803 1.355 . S
C802 C804 1.415 . S
C803 C802 1.355 . S
C803 C805 1.419 . S
C804 C802 1.415 . S
C804 C809 1.425 . S
C804 C811 1.409 . S
C805 H797 0.930 . S
C805 C803 1.419 . S
C805 C806 1.362 . S
C806 H798 0.930 . S
C806 C805 1.362 . S
C806 C809 1.409 . S
C807 H799 0.930 . S
C807 C808 1.355 . S
C807 C809 1.415 . S
C808 C807 1.355 . S
C808 C810 1.419 . S
C809 C804 1.425 . S
C809 C806 1.409 . S
C809 C807 1.415 . S
C810 H800 0.930 . S
C810 C808 1.419 . S
C810 C811 1.362 . S
C811 H801 0.930 . S
C811 C804 1.409 . S
C811 C810 1.362 . S
H812 C818 0.930 . S
H813 C821 0.930 . S
H814 C822 0.930 . S
H815 C823 0.930 . S
H816 C826 0.930 . S
H817 C827 0.930 . S
C818 H812 0.930 . S
C818 C819 1.355 . S
C818 C820 1.415 . S
C819 C818 1.355 . S
C819 C821 1.419 . S
C820 C818 1.415 . S
C820 C825 1.425 . S
C820 C827 1.409 . S
C821 H813 0.930 . S
C821 C819 1.419 . S
C821 C822 1.362 . S
C822 H814 0.930 . S
C822 C821 1.362 . S
C822 C825 1.409 . S
C823 H815 0.930 . S
C823 C824 1.355 . S
C823 C825 1.415 . S
C824 C823 1.355 . S
C824 C826 1.419 . S
C825 C820 1.425 . S
C825 C822 1.409 . S
C825 C823 1.415 . S
C826 H816 0.930 . S
C826 C824 1.419 . S
C826 C827 1.362 . S
C827 H817 0.930 . S
C827 C820 1.409 . S
C827 C826 1.362 . S
C259 C145 1.079 . S
C264 C5 1.062 . S
C275 C19 0.945 . S
C280 C159 1.116 . S
C291 C131 1.113 . S
C296 C33 0.922 . S
C307 C201 1.102 . S
C312 C47 1.033 . S
C323 C61 1.095 . S
C328 C173 0.969 . S
C339 C187 0.968 . S
C344 C75 1.079 . S
C355 C89 1.076 . S
C360 C229 1.046 . S
C371 C243 1.073 . S
C376 C103 1.083 . S
C387 C117 0.999 . S
C392 C215 1.153 . S
C403 C12 0.981 . S
C408 C18 1.112 . S
C419 C26 1.004 . S
C424 C32 1.095 . S
C435 C4 1.079 . S
C440 C40 1.149 . S
C451 C74 1.120 . S
C456 C54 0.982 . S
C467 C46 1.070 . S
C472 C68 1.137 . S
C483 C82 1.102 . S
C488 C60 0.997 . S
C499 C96 1.079 . S
C504 C102 1.116 . S
C515 C110 1.131 . S
C520 C116 1.076 . S
C531 C88 1.065 . S
C536 C124 1.145 . S
C547 C158 1.120 . S
C552 C138 1.133 . S
C563 C130 1.116 . S
C568 C152 1.047 . S
C579 C144 1.149 . S
C584 C166 1.019 . S
C595 C186 1.084 . S
C600 C180 1.161 . S
C611 C200 1.120 . S
C616 C194 1.027 . S
C627 C172 1.132 . S
C632 C208 0.998 . S
C643 C222 1.146 . S
C648 C242 1.094 . S
C659 C236 1.125 . S
C664 C214 1.093 . S
C675 C250 1.140 . S
C680 C228 1.061 . S
C691 C11 1.462 . S
C696 C53 1.376 . S
C707 C67 1.388 1_565 S
C712 C25 1.353 1_545 S
C723 C81 1.412 . S
C728 C39 1.348 . S
C739 C137 1.429 . S
C744 C95 1.393 . S
C755 C151 1.360 . S
C760 C109 1.441 . S
C771 C123 1.468 . S
C776 C165 1.384 . S
C787 C221 1.392 . S
C792 C179 1.451 . S
C803 C235 1.463 . S
C808 C193 1.394 . S
C819 C249 1.371 . S
C824 C207 1.444 . S
