# Generated by pormake.
# Topology unf, (4)-cn, num edge types: 1
# Building blocks:
#     Node 0, Type 0, BuildingBlock: KUFVIS_clean_sbu_0, # of connection points: 4
#     Node 1, Type 0, BuildingBlock: KUFVIS_clean_sbu_0, # of connection points: 4
#     Node 2, Type 0, BuildingBlock: KUFVIS_clean_sbu_0, # of connection points: 4
#     Node 3, Type 0, BuildingBlock: KUFVIS_clean_sbu_0, # of connection points: 4
#     Node 4, Type 0, BuildingBlock: KUFVIS_clean_sbu_0, # of connection points: 4
#     Node 5, Type 0, BuildingBlock: KUFVIS_clean_sbu_0, # of connection points: 4
#     Node 6, Type 0, BuildingBlock: KUFVIS_clean_sbu_0, # of connection points: 4
#     Node 7, Type 0, BuildingBlock: KUFVIS_clean_sbu_0, # of connection points: 4
#     Node 8, Type 0, BuildingBlock: KUFVIS_clean_sbu_0, # of connection points: 4
#     Node 9, Type 0, BuildingBlock: KUFVIS_clean_sbu_0, # of connection points: 4
#     Node 10, Type 0, BuildingBlock: KUFVIS_clean_sbu_0, # of connection points: 4
#     Node 11, Type 0, BuildingBlock: KUFVIS_clean_sbu_0, # of connection points: 4
#     Edge 12, Type (0, 0), BuildingBlock: OJICUG_clean_linker_0, # of connection points: 2
#     Edge 13, Type (0, 0), BuildingBlock: OJICUG_clean_linker_0, # of connection points: 2
#     Edge 14, Type (0, 0), BuildingBlock: OJICUG_clean_linker_0, # of connection points: 2
#     Edge 15, Type (0, 0), BuildingBlock: OJICUG_clean_linker_0, # of connection points: 2
#     Edge 16, Type (0, 0), BuildingBlock: OJICUG_clean_linker_0, # of connection points: 2
#     Edge 17, Type (0, 0), BuildingBlock: OJICUG_clean_linker_0, # of connection points: 2
#     Edge 18, Type (0, 0), BuildingBlock: OJICUG_clean_linker_0, # of connection points: 2
#     Edge 19, Type (0, 0), BuildingBlock: OJICUG_clean_linker_0, # of connection points: 2
#     Edge 20, Type (0, 0), BuildingBlock: OJICUG_clean_linker_0, # of connection points: 2
#     Edge 21, Type (0, 0), BuildingBlock: OJICUG_clean_linker_0, # of connection points: 2
#     Edge 22, Type (0, 0), BuildingBlock: OJICUG_clean_linker_0, # of connection points: 2
#     Edge 23, Type (0, 0), BuildingBlock: OJICUG_clean_linker_0, # of connection points: 2
#     Edge 24, Type (0, 0), BuildingBlock: OJICUG_clean_linker_0, # of connection points: 2
#     Edge 25, Type (0, 0), BuildingBlock: OJICUG_clean_linker_0, # of connection points: 2
#     Edge 26, Type (0, 0), BuildingBlock: OJICUG_clean_linker_0, # of connection points: 2
#     Edge 27, Type (0, 0), BuildingBlock: OJICUG_clean_linker_0, # of connection points: 2
#     Edge 28, Type (0, 0), BuildingBlock: OJICUG_clean_linker_0, # of connection points: 2
#     Edge 29, Type (0, 0), BuildingBlock: OJICUG_clean_linker_0, # of connection points: 2
#     Edge 30, Type (0, 0), BuildingBlock: OJICUG_clean_linker_0, # of connection points: 2
#     Edge 31, Type (0, 0), BuildingBlock: OJICUG_clean_linker_0, # of connection points: 2
#     Edge 32, Type (0, 0), BuildingBlock: OJICUG_clean_linker_0, # of connection points: 2
#     Edge 33, Type (0, 0), BuildingBlock: OJICUG_clean_linker_0, # of connection points: 2
#     Edge 34, Type (0, 0), BuildingBlock: OJICUG_clean_linker_0, # of connection points: 2
#     Edge 35, Type (0, 0), BuildingBlock: OJICUG_clean_linker_0, # of connection points: 2
# Relax obj value: 0.236
# Max RMSD: 0.189
# Mean RMSD: 0.182
data_MOF--net-unf--node1-KUFVIS_clean_sbu_0--edge1-OJICUG_clean_linker_0
_symmetry_space_group_name_H-M    P1
_symmetry_Int_Tables_number       1
_symmetry_cell_setting            triclinic
loop_
_symmetry_equiv_pos_as_xyz
'x, y, z'
_cell_length_a     27.641781
_cell_length_b     28.342461
_cell_length_c     25.662199
_cell_angle_alpha  90.464494
_cell_angle_beta   89.195612
_cell_angle_gamma 119.19555
loop_
_atom_site_label
_atom_site_type_symbol
_atom_site_fract_x
_atom_site_fract_y
_atom_site_fract_z
_atom_type_partial_charge
Mn0 Mn 0.05461 0.38055 0.09714 0.0
Mn1 Mn 0.02516 0.27171 0.1717 0.0
C2 C 0.97927 0.2991 0.07905 0.0
C3 C 0.04058 0.45142 0.07349 0.0
C4 C 0.10804 0.30801 0.08328 0.0
O5 O 0.10647 0.41588 0.1584 0.0
O6 O 0.08528 0.3394 0.2021 0.0
C7 C 0.97686 0.30398 0.25947 0.0
N8 N 0.97144 0.26757 0.22188 0.0
C9 C 0.87622 0.20864 0.24638 0.0
C10 C 0.88083 0.24544 0.28546 0.0
C11 C 0.93138 0.29332 0.29201 0.0
C12 C 0.92288 0.22156 0.21502 0.0
H13 H 0.01556 0.3409 0.2645 0.0
C14 C 0.11382 0.39061 0.19572 0.0
O15 O 0.08413 0.44905 0.05714 0.0
O16 O 0.01121 0.41818 0.11019 0.0
N17 N 0.96845 0.20285 0.14795 0.0
C18 C 0.97318 0.16857 0.11329 0.0
C19 C 0.92669 0.11824 0.10282 0.0
C20 C 0.87653 0.10283 0.12961 0.0
C21 C 0.87382 0.13729 0.1677 0.0
C22 C 0.92144 0.18707 0.17618 0.0
H23 H 0.01184 0.18011 0.09298 0.0
O24 O -0.00013 0.33689 0.04456 0.0
O25 O 0.00145 0.31053 0.12517 0.0
O26 O 0.10501 0.35045 0.07211 0.0
O27 O 0.07897 0.27432 0.11901 0.0
C28 C 0.82612 0.12377 0.1983 0.0
C29 C 0.82728 0.15947 0.23755 0.0
H30 H 0.84591 0.23729 0.31075 0.0
H31 H 0.93526 0.32192 0.32207 0.0
H32 H 0.92952 0.09141 0.07419 0.0
H33 H 0.84075 0.064 0.12143 0.0
H34 H 0.78854 0.08573 0.1924 0.0
H35 H 0.79049 0.14843 0.26112 0.0
Mn36 Mn 0.61469 0.69074 0.07134 0.0
Mn37 Mn 0.73039 0.77667 0.13558 0.0
C38 C 0.69997 0.7043 0.04303 0.0
C39 C 0.5449 0.60152 0.05664 0.0
C40 C 0.67936 0.81368 0.05443 0.0
O41 O 0.58165 0.70576 0.13832 0.0
O42 O 0.66284 0.7659 0.17351 0.0
C43 C 0.70539 0.69307 0.21463 0.0
N44 N 0.74229 0.73032 0.18071 0.0
C45 C 0.80414 0.69357 0.18779 0.0
C46 C 0.76612 0.65414 0.22193 0.0
C47 C 0.71703 0.65441 0.2361 0.0
C48 C 0.78996 0.73068 0.16724 0.0
H49 H 0.66638 0.69157 0.2236 0.0
C50 C 0.60989 0.74119 0.17287 0.0
O51 O 0.54036 0.64226 0.03933 0.0
O52 O 0.58551 0.61306 0.08776 0.0
N53 N 0.80026 0.7937 0.10465 0.0
C54 C 0.83014 0.83224 0.06839 0.0
C55 C 0.8825 0.84029 0.05259 0.0
C56 C 0.90352 0.80875 0.07444 0.0
C57 C 0.87258 0.77049 0.11283 0.0
C58 C 0.82179 0.76598 0.1285 0.0
H59 H 0.81381 0.85621 0.05141 0.0
O60 O 0.65794 0.68293 0.01254 0.0
O61 O 0.69041 0.71451 0.09042 0.0
O62 O 0.63678 0.76743 0.04561 0.0
O63 O 0.71795 0.82209 0.0865 0.0
C64 C 0.88903 0.73523 0.13479 0.0
C65 C 0.85406 0.69579 0.17111 0.0
H66 H 0.77343 0.62266 0.23678 0.0
H67 H 0.68752 0.62393 0.26233 0.0
H68 H 0.90619 0.87014 0.02315 0.0
H69 H 0.94324 0.814 0.06128 0.0
H70 H 0.92743 0.73674 0.12254 0.0
H71 H 0.86565 0.66691 0.18519 0.0
Mn72 Mn 0.31786 0.92568 0.09332 0.0
Mn73 Mn 0.3404 0.8225 0.0706 0.0
C74 C 0.40811 0.94428 0.07804 0.0
C75 C 0.30012 0.99127 0.05953 0.0
C76 C 0.29364 0.83989 0.17331 0.0
O77 O 0.24342 0.86439 0.07062 0.0
O78 O 0.26837 0.80477 0.03761 0.0
C79 C 0.35497 0.82077 0.95632 0.0
N80 N 0.37637 0.82784 1.00505 0.0
C81 C 0.4653 0.84624 0.97056 0.0
C82 C 0.4444 0.83979 0.91996 0.0
C83 C 0.38894 0.8268 0.91284 0.0
C84 C 0.42937 0.83933 0.01239 0.0
H85 H 0.31248 0.81118 0.95071 0.0
C86 C 0.23311 0.82159 0.04506 0.0
O87 O 0.28758 0.97583 0.10774 0.0
O88 O 0.32111 0.9677 0.03118 0.0
N89 N 0.40984 0.83884 0.10095 0.0
C90 C 0.42381 0.8444 0.15223 0.0
C91 C 0.47792 0.8574 0.16607 0.0
C92 C 0.51716 0.86481 0.12706 0.0
C93 C 0.50184 0.85891 0.07454 0.0
C94 C 0.44718 0.84544 0.06315 0.0
H95 H 0.39395 0.83901 0.18239 0.0
O96 O 0.39798 0.977 0.1059 0.0
O97 O 0.36424 0.89956 0.06489 0.0
O98 O 0.30733 0.8891 0.16442 0.0
O99 O 0.30234 0.81111 0.13989 0.0
C100 C 0.53877 0.86621 0.03305 0.0
C101 C 0.52052 0.85987 0.9811 0.0
H102 H 0.47058 0.84481 0.88632 0.0
H103 H 0.37251 0.82171 0.87392 0.0
H104 H 0.4894 0.86184 0.2067 0.0
H105 H 0.55892 0.87511 0.13785 0.0
H106 H 0.58131 0.87686 0.04072 0.0
H107 H 0.54932 0.86576 0.94952 0.0
Mn108 Mn 0.6055 0.92445 0.41941 0.0
Mn109 Mn 0.47963 0.82114 0.44101 0.0
C110 C 0.53369 0.94294 0.43402 0.0
C111 C 0.68856 0.9901 0.45379 0.0
C112 C 0.54451 0.83893 0.33872 0.0
O113 O 0.61853 0.86316 0.44222 0.0
O114 O 0.5337 0.80335 0.47443 0.0
C115 C 0.46247 0.81913 0.55519 0.0
N116 N 0.44847 0.82627 0.50636 0.0
C117 C 0.37762 0.84447 0.54037 0.0
C118 C 0.3917 0.83792 0.59106 0.0
C119 C 0.43417 0.82499 0.59847 0.0
C120 C 0.40698 0.83771 0.49873 0.0
H121 H 0.49536 0.80958 0.56102 0.0
C122 C 0.58587 0.82031 0.4675 0.0
O123 O 0.68597 0.97462 0.40558 0.0
O124 O 0.64383 0.96646 0.48184 0.0
N125 N 0.42671 0.83749 0.41031 0.0
C126 C 0.41868 0.84319 0.35897 0.0
C127 C 0.37766 0.85619 0.34486 0.0
C128 C 0.34551 0.86344 0.38366 0.0
C129 C 0.35452 0.85738 0.43623 0.0
C130 C 0.39566 0.84393 0.4479 0.0
H131 H 0.4434 0.83793 0.32897 0.0
O132 O 0.57677 0.97572 0.40655 0.0
O133 O 0.53275 0.89822 0.44724 0.0
O134 O 0.58002 0.88806 0.34808 0.0
O135 O 0.50681 0.80996 0.37183 0.0
C136 C 0.32454 0.86452 0.47752 0.0
C137 C 0.33607 0.85806 0.52955 0.0
H138 H 0.37028 0.84282 0.62456 0.0
H139 H 0.44524 0.81983 0.63747 0.0
H140 H 0.37094 0.86076 0.30418 0.0
H141 H 0.31411 0.87375 0.37266 0.0
H142 H 0.29267 0.87514 0.46965 0.0
H143 H 0.31289 0.86382 0.56098 0.0
Mn144 Mn 0.07274 0.68958 0.43815 0.0
Mn145 Mn 0.04305 0.77524 0.37343 0.0
C146 C 0.00043 0.7026 0.46566 0.0
C147 C 0.0538 0.60061 0.45298 0.0
C148 C 0.13058 0.81256 0.45526 0.0
O149 O 0.1215 0.70496 0.37165 0.0
O150 O 0.10017 0.76462 0.33596 0.0
C151 C 0.98503 0.69149 0.2941 0.0
N152 N 0.98504 0.72867 0.32803 0.0
C153 C 0.88633 0.69116 0.32085 0.0
C154 C 0.88527 0.65186 0.28661 0.0
C155 C 0.93487 0.65256 0.27251 0.0
C156 C 0.93752 0.72866 0.34141 0.0
H157 H 0.02271 0.6903 0.28521 0.0
C158 C 0.12871 0.74025 0.33704 0.0
O159 O 0.09881 0.64157 0.47054 0.0
O160 O 0.02476 0.6118 0.42148 0.0
N161 N 0.98994 0.79216 0.40394 0.0
C162 C 0.99841 0.831 0.43989 0.0
C163 C 0.95389 0.83881 0.45549 0.0
C164 C 0.9013 0.8067 0.43379 0.0
C165 C 0.89422 0.76825 0.39557 0.0
C166 C 0.94072 0.76404 0.38005 0.0
H167 H 0.03872 0.85536 0.45684 0.0
O168 O 0.021 0.68139 0.49641 0.0
O169 O 0.02074 0.71308 0.4185 0.0
O170 O 0.12684 0.76635 0.46425 0.0
O171 O 0.10062 0.82087 0.42285 0.0
C172 C 0.84257 0.73247 0.37375 0.0
C173 C 0.8384 0.69291 0.3376 0.0
H174 H 0.84661 0.62021 0.27157 0.0
H175 H 0.93418 0.62219 0.24622 0.0
H176 H 0.95988 0.86883 0.48476 0.0
H177 H 0.86663 0.81163 0.447 0.0
H178 H 0.8055 0.73364 0.38598 0.0
H179 H 0.79795 0.66356 0.32377 0.0
Mn180 Mn 0.32353 0.38024 0.41559 0.0
Mn181 Mn 0.24418 0.27177 0.3403 0.0
C182 C 0.31739 0.29869 0.433 0.0
C183 C 0.40837 0.45104 0.43975 0.0
C184 C 0.19756 0.30724 0.42931 0.0
O185 O 0.30704 0.41594 0.35473 0.0
O186 O 0.25114 0.33954 0.31102 0.0
C187 C 0.32446 0.30541 0.25228 0.0
N188 N 0.29383 0.26855 0.28958 0.0
C189 C 0.33059 0.21036 0.26363 0.0
C190 C 0.36243 0.24765 0.22485 0.0
C191 C 0.35934 0.29538 0.21918 0.0
C192 C 0.29677 0.22267 0.29559 0.0
H193 H 0.32235 0.34222 0.24789 0.0
C194 C 0.27394 0.39074 0.31762 0.0
O195 O 0.36241 0.44851 0.45618 0.0
O196 O 0.40458 0.41802 0.40276 0.0
N197 N 0.23259 0.20283 0.36294 0.0
C198 C 0.19374 0.16797 0.39728 0.0
C199 C 0.19029 0.11768 0.40688 0.0
C200 C 0.22524 0.1029 0.3795 0.0
C201 C 0.2622 0.13794 0.34171 0.0
C202 C 0.26399 0.18766 0.33415 0.0
H203 H 0.16645 0.17903 0.41803 0.0
O204 O 0.33456 0.33632 0.46776 0.0
O205 O 0.30674 0.31037 0.38697 0.0
O206 O 0.24294 0.34988 0.44044 0.0
O207 O 0.19301 0.27354 0.39353 0.0
C208 C 0.29648 0.12504 0.31051 0.0
C209 C 0.33074 0.16127 0.27155 0.0
H210 H 0.38923 0.23997 0.19911 0.0
H211 H 0.38378 0.32435 0.18934 0.0
H212 H 0.16078 0.0904 0.43528 0.0
H213 H 0.22247 0.06409 0.38698 0.0
H214 H 0.2963 0.08705 0.31569 0.0
H215 H 0.35655 0.15069 0.24749 0.0
Mn216 Mn 0.9347 0.62239 0.93267 0.0
Mn217 Mn 0.98615 0.74572 0.87952 0.0
C218 C 0.01357 0.69403 0.9657 0.0
C219 C 0.93965 0.54416 0.94402 0.0
C220 C 0.88816 0.69867 0.95431 0.0
O221 O 0.89164 0.60464 0.86406 0.0
O222 O 0.93065 0.68977 0.83253 0.0
C223 C 0.04724 0.72578 0.79433 0.0
N224 N 0.04745 0.75516 0.83668 0.0
C225 C 0.14723 0.80374 0.83732 0.0
C226 C 0.14802 0.77448 0.79332 0.0
C227 C 0.0978 0.73552 0.77159 0.0
C228 C 0.09558 0.79327 0.85744 0.0
H229 H 0.0088 0.69465 0.77847 0.0
C230 C 0.89596 0.63904 0.82961 0.0
O231 O 0.89608 0.5469 0.95985 0.0
O232 O 0.9739 0.5823 0.91351 0.0
N233 N 0.04031 0.8035 0.9207 0.0
C234 C 0.03214 0.82871 0.96258 0.0
C235 C 0.07813 0.87083 0.98734 0.0
C236 C 0.13196 0.8863 0.96895 0.0
C237 C 0.13922 0.86026 0.92524 0.0
C238 C 0.09172 0.8199 0.90112 0.0
H239 H 0.99085 0.81648 0.9771 0.0
O240 O 0.984 0.65198 0.99393 0.0
O241 O 0.99621 0.69283 0.91861 0.0
O242 O 0.88714 0.65356 0.96057 0.0
O243 O 0.92372 0.73705 0.92539 0.0
C244 C 0.19167 0.87174 0.90549 0.0
C245 C 0.19568 0.84289 0.86206 0.0
H246 H 0.18693 0.78143 0.77604 0.0
H247 H 0.09806 0.71251 0.73783 0.0
H248 H 0.07214 0.89076 0.02099 0.0
H249 H 0.16737 0.91784 0.98893 0.0
H250 H 0.22916 0.90208 0.92384 0.0
H251 H 0.2362 0.85175 0.84748 0.0
Mn252 Mn 0.36481 0.29879 0.94918 0.0
Mn253 Mn 0.24493 0.21208 0.89106 0.0
C254 C 0.28169 0.28586 0.9829 0.0
C255 C 0.43486 0.38854 0.96058 0.0
C256 C 0.30545 0.17599 0.96416 0.0
O257 O 0.39235 0.28337 0.87926 0.0
O258 O 0.30887 0.22918 0.84363 0.0
C259 C 0.25228 0.29338 0.8157 0.0
N260 N 0.22271 0.2554 0.85246 0.0
C261 C 0.15084 0.28004 0.85323 0.0
C262 C 0.18082 0.31977 0.81586 0.0
C263 C 0.2316 0.32628 0.79674 0.0
C264 C 0.17398 0.24909 0.87132 0.0
H265 H 0.29212 0.29958 0.80216 0.0
C266 C 0.36194 0.25348 0.8422 0.0
O267 O 0.44121 0.34839 0.97652 0.0
O268 O 0.39193 0.37608 0.9324 0.0
N269 N 0.17888 0.19088 0.93166 0.0
C270 C 0.15798 0.15455 0.97147 0.0
C271 C 0.107 0.14294 0.99463 0.0
C272 C 0.0779 0.16848 0.97641 0.0
C273 C 0.09969 0.20481 0.93466 0.0
C274 C 0.15005 0.21383 0.91237 0.0
H275 H 0.18027 0.13493 0.98572 0.0
O276 O 0.32561 0.30705 0.01108 0.0
O277 O 0.28798 0.27459 0.93495 0.0
O278 O 0.34594 0.22295 0.97469 0.0
O279 O 0.26631 0.16718 0.93272 0.0
C280 C 0.07412 0.23339 0.91502 0.0
C281 C 0.1001 0.2716 0.87487 0.0
H282 H 0.1659 0.34647 0.80272 0.0
H283 H 0.25526 0.3573 0.76826 0.0
H284 H 0.0904 0.11472 0.02674 0.0
H285 H 0.03907 0.16016 0.99494 0.0
H286 H 0.03513 0.2272 0.93125 0.0
H287 H 0.08099 0.29465 0.86126 0.0
Mn288 Mn 0.69007 0.07462 0.92937 0.0
Mn289 Mn 0.7889 0.04816 0.88149 0.0
C290 C 0.69596 0.00127 0.95767 0.0
C291 C 0.60036 0.05931 0.94264 0.0
C292 C 0.80974 0.12619 0.96791 0.0
O293 O 0.71447 0.12226 0.86336 0.0
O294 O 0.78674 0.10857 0.84452 0.0
C295 C 0.74489 0.01105 0.77593 0.0
N296 N 0.75954 0.00065 0.82317 0.0
C297 C 0.75273 0.91748 0.79162 0.0
C298 C 0.73947 0.92838 0.74237 0.0
C299 C 0.73446 0.97474 0.73462 0.0
C300 C 0.76316 0.95534 0.83124 0.0
H301 H 0.74311 0.0477 0.76922 0.0
C302 C 0.75886 0.13319 0.83758 0.0
O303 O 0.64283 0.10351 0.95875 0.0
O304 O 0.61063 0.0304 0.90943 0.0
N305 N 0.79679 0.99133 0.91303 0.0
C306 C 0.82163 0.99243 0.95893 0.0
C307 C 0.8285 0.94827 0.9728 0.0
C308 C 0.81219 0.90454 0.93832 0.0
C309 C 0.78979 0.90575 0.88999 0.0
C310 C 0.78236 0.95016 0.87895 0.0
H311 H 0.83551 0.0265 0.98512 0.0
O312 O 0.67385 0.02338 0.9864 0.0
O313 O 0.71435 0.02189 0.91153 0.0
O314 O 0.76394 0.12652 0.96397 0.0
O315 O 0.82227 0.09573 0.941 0.0
C316 C 0.77672 0.86575 0.85151 0.0
C317 C 0.75887 0.87196 0.80211 0.0
H318 H 0.7354 0.90256 0.7098 0.0
H319 H 0.72436 0.98332 0.6965 0.0
H320 H 0.84712 0.94836 0.00964 0.0
H321 H 0.81856 0.87102 0.9487 0.0
H322 H 0.78205 0.83099 0.85891 0.0
H323 H 0.75103 0.84204 0.77214 0.0
Mn324 Mn 0.38093 0.07333 0.58142 0.0
Mn325 Mn 0.25562 0.04674 0.62922 0.0
C326 C 0.3017 7e-05 0.5527 0.0
C327 C 0.4553 0.05792 0.56839 0.0
C328 C 0.31285 0.12501 0.54315 0.0
O329 O 0.4041 0.12091 0.64764 0.0
O330 O 0.31812 0.10708 0.66648 0.0
C331 C 0.26319 0.00898 0.73417 0.0
N332 N 0.23776 0.99897 0.68712 0.0
C333 C 0.16236 0.91483 0.71779 0.0
C334 C 0.18696 0.92522 0.76685 0.0
C335 C 0.238 0.97192 0.77495 0.0
C336 C 0.18913 0.95341 0.67871 0.0
H337 H 0.30146 0.04576 0.74112 0.0
C338 C 0.37061 0.13175 0.6735 0.0
O339 O 0.45714 0.10212 0.55227 0.0
O340 O 0.41598 0.02903 0.6014 0.0
N341 N 0.19091 0.98994 0.59746 0.0
C342 C 0.16693 0.99119 0.55176 0.0
C343 C 0.11604 0.94687 0.53766 0.0
C344 C 0.08906 0.90276 0.57167 0.0
C345 C 0.11294 0.90376 0.61981 0.0
C346 C 0.16452 0.94845 0.63115 0.0
H347 H 0.18684 0.02551 0.52592 0.0
O348 O 0.34598 0.02215 0.52412 0.0
O349 O 0.30392 0.02064 0.5989 0.0
O350 O 0.35895 0.12523 0.54701 0.0
O351 O 0.26982 0.09456 0.56999 0.0
C352 C 0.08659 0.86317 0.65777 0.0
C353 C 0.11102 0.86898 0.70696 0.0
H354 H 0.16584 0.89869 0.79903 0.0
H355 H 0.257 0.9801 0.81294 0.0
H356 H 0.09733 0.94708 0.50097 0.0
H357 H 0.04934 0.86907 0.56106 0.0
H358 H 0.04673 0.82814 0.6501 0.0
H359 H 0.08951 0.83844 0.7365 0.0
Mn360 Mn 0.93158 0.2988 0.56226 0.0
Mn361 Mn 0.96492 0.21283 0.62142 0.0
C362 C 0.00167 0.28548 0.52896 0.0
C363 C 0.95124 0.38841 0.55007 0.0
C364 C 0.86799 0.17583 0.54846 0.0
O365 O 0.88877 0.28415 0.63215 0.0
O366 O 0.91834 0.23059 0.66854 0.0
C367 C 0.03933 0.2952 0.69598 0.0
N368 N 0.0307 0.25667 0.65967 0.0
C369 C 0.12723 0.28137 0.65872 0.0
C370 C 0.13721 0.32166 0.69562 0.0
C371 C 0.09304 0.32842 0.7146 0.0
C372 C 0.07301 0.25011 0.64093 0.0
H373 H 0.00576 0.30157 0.70939 0.0
C374 C 0.88949 0.25479 0.66956 0.0
O375 O 0.9047 0.34806 0.53433 0.0
O376 O 0.98179 0.37628 0.57848 0.0
N377 N 0.00954 0.19107 0.58113 0.0
C378 C 0.99388 0.15423 0.54167 0.0
C379 C 0.03313 0.14233 0.51866 0.0
C380 C 0.0879 0.16815 0.53667 0.0
C381 C 0.10267 0.20502 0.57808 0.0
C382 C 0.06144 0.21428 0.60025 0.0
H383 H 0.95189 0.13441 0.52757 0.0
O384 O 0.9789 0.30636 0.50046 0.0
O385 O 0.98421 0.27477 0.57694 0.0
O386 O 0.87456 0.22267 0.53733 0.0
O387 O 0.89838 0.16738 0.58012 0.0
C388 C 0.15696 0.23392 0.59743 0.0
C389 C 0.16942 0.27268 0.6372 0.0
H390 H 0.1789 0.34856 0.70857 0.0
H391 H 0.10057 0.35984 0.74274 0.0
H392 H 0.02133 0.1137 0.48682 0.0
H393 H 0.11831 0.15964 0.51821 0.0
H394 H 0.1897 0.22759 0.58124 0.0
H395 H 0.21168 0.29597 0.65058 0.0
Mn396 Mn 0.68557 0.62193 0.58024 0.0
Mn397 Mn 0.7598 0.74576 0.63171 0.0
C398 C 0.67798 0.69335 0.54778 0.0
C399 C 0.60232 0.54366 0.56918 0.0
C400 C 0.80784 0.69933 0.55422 0.0
O401 O 0.71159 0.60405 0.64823 0.0
O402 O 0.76528 0.69027 0.6746 0.0
C403 C 0.68492 0.7228 0.72289 0.0
N404 N 0.70987 0.75267 0.67953 0.0
C405 C 0.65491 0.79734 0.68553 0.0
C406 C 0.629 0.7674 0.73052 0.0
C407 C 0.64434 0.73024 0.74946 0.0
C408 C 0.69611 0.78924 0.66154 0.0
H409 H 0.69542 0.69307 0.73668 0.0
C410 C 0.74744 0.63933 0.67883 0.0
O411 O 0.64852 0.54644 0.55297 0.0
O412 O 0.60641 0.5818 0.59993 0.0
N413 N 0.75865 0.80319 0.59405 0.0
C414 C 0.78935 0.83023 0.55146 0.0
C415 C 0.78168 0.87129 0.52937 0.0
C416 C 0.74226 0.88372 0.55109 0.0
C417 C 0.71198 0.85601 0.59559 0.0
C418 C 0.723 0.81699 0.617 0.0
H419 H 0.81896 0.82006 0.53422 0.0
O420 O 0.66521 0.65123 0.51948 0.0
O421 O 0.69488 0.69255 0.5947 0.0
O422 O 0.76431 0.65307 0.55147 0.0
O423 O 0.81099 0.73918 0.58099 0.0
C424 C 0.67036 0.86456 0.6188 0.0
C425 C 0.64124 0.83463 0.66329 0.0
H426 H 0.59719 0.77249 0.75073 0.0
H427 H 0.62434 0.7068 0.78402 0.0
H428 H 0.80531 0.89257 0.49513 0.0
H429 H 0.73532 0.9143 0.53307 0.0
H430 H 0.6602 0.89377 0.60257 0.0
H431 H 0.60928 0.84146 0.68075 0.0
C432 C 0.17206 0.32502 0.00723 0.0
C433 C 0.1488 0.2982 0.0545 0.0
H434 H 0.23253 0.34112 0.94678 0.0
C435 C 0.16683 0.26382 0.0754 0.0
H436 H 0.15896 0.35171 0.99012 0.0
C437 C 0.20876 0.25801 0.05058 0.0
C438 C 0.23185 0.28487 1.00361 0.0
H439 H 0.15008 0.24294 0.11194 0.0
H440 H 0.22381 0.23317 0.06842 0.0
C441 C 0.21353 0.31854 0.98208 0.0
C442 C 0.7087 0.91088 0.05411 0.0
C443 C 0.68446 0.86126 0.02767 0.0
H444 H 0.73149 0.99438 0.05165 0.0
C445 C 0.66657 0.85834 0.97618 0.0
H446 H 0.72243 0.91402 0.09397 0.0
C447 C 0.67298 0.9049 0.95152 0.0
C448 C 0.69686 0.95418 0.97851 0.0
H449 H 0.64797 0.82036 0.95513 0.0
H450 H 0.65798 0.90219 0.91224 0.0
C451 C 0.71405 0.95674 0.02999 0.0
C452 C 0.16837 0.76021 0.97717 0.0
C453 C 0.17711 0.78987 0.0235 0.0
H454 H 0.10887 0.70774 0.92141 0.0
C455 C 0.13166 0.78927 0.04942 0.0
H456 H 0.20267 0.75995 0.95651 0.0
C457 C 0.07834 0.75907 0.02969 0.0
C458 C 0.06998 0.73098 0.98264 0.0
H459 H 0.13716 0.81123 0.08558 0.0
H460 H 0.04359 0.75768 0.0511 0.0
C461 C 0.11508 0.73108 0.95677 0.0
C462 C 0.61411 0.73118 0.5569 0.0
C463 C 0.65866 0.73039 0.5308 0.0
H464 H 0.55558 0.76032 0.557 0.0
C465 C 0.6777 0.75746 0.48323 0.0
H466 H 0.59743 0.70858 0.59264 0.0
C467 C 0.65448 0.78741 0.46322 0.0
C468 C 0.61011 0.7887 0.48934 0.0
H469 H 0.71064 0.75548 0.46163 0.0
H470 H 0.67046 0.80861 0.42668 0.0
C471 C 0.58978 0.76001 0.53618 0.0
C472 C 0.18826 0.85713 0.53355 0.0
C473 C 0.17298 0.8602 0.48222 0.0
H474 H 0.24104 0.90079 0.59749 0.0
C475 C 0.19816 0.90992 0.45609 0.0
H476 H 0.1691 0.81908 0.55436 0.0
C477 C 0.23878 0.95574 0.48035 0.0
C478 C 0.25367 0.95302 0.53169 0.0
H479 H 0.18739 0.91319 0.41635 0.0
H480 H 0.25884 0.99347 0.45893 0.0
C481 C 0.2285 0.90362 0.55834 0.0
C482 C 0.10253 0.3184 0.52999 0.0
C483 C 0.05055 0.28436 0.50853 0.0
H484 H 0.19028 0.35173 0.52207 0.0
C485 C 0.04679 0.25692 0.46188 0.0
H486 H 0.10609 0.3414 0.56504 0.0
C487 C 0.09455 0.26257 0.43727 0.0
C488 C 0.14697 0.29736 0.45807 0.0
H489 H 0.00688 0.23177 0.4441 0.0
H490 H 0.09044 0.24129 0.40094 0.0
C491 C 0.1505 0.32471 0.50505 0.0
C492 C 0.76981 0.67403 0.04539 0.0
C493 C 0.75218 0.70854 0.02479 0.0
H494 H 0.82782 0.64491 0.0399 0.0
C495 C 0.77971 0.7406 0.98133 0.0
H496 H 0.74766 0.64758 0.07775 0.0
C497 C 0.82595 0.73968 0.9598 0.0
C498 C 0.8437 0.70493 0.98026 0.0
H499 H 0.76519 0.76608 0.96395 0.0
H500 H 0.84636 0.7645 0.92602 0.0
C501 C 0.81531 0.67232 0.02342 0.0
C502 C 0.2844 0.08027 0.96152 0.0
C503 C 0.30265 0.1285 0.98973 0.0
H504 H 0.26954 0.9988 0.96197 0.0
C505 C 0.31592 0.13004 0.04259 0.0
H506 H 0.27367 0.07807 0.92077 0.0
C507 C 0.31157 0.08397 0.06668 0.0
C508 C 0.29539 0.03649 0.03772 0.0
H509 H 0.32932 0.16668 0.06523 0.0
H510 H 0.32315 0.08617 0.10715 0.0
C511 C 0.28165 0.03492 0.9851 0.0
C512 C 0.8806 0.22919 0.07456 0.0
C513 C 0.93621 0.24662 0.06185 0.0
H514 H 0.79582 0.17647 0.05417 0.0
C515 C 0.94969 0.22211 0.02093 0.0
H516 H 0.86979 0.24925 0.10498 0.0
C517 C 0.90822 0.18091 0.99235 0.0
C518 C 0.85237 0.16501 1.00291 0.0
H519 H 0.99261 0.23642 0.00997 0.0
H520 H 0.92018 0.16373 0.9601 0.0
C521 C 0.83866 0.18841 0.0451 0.0
C522 C 0.26944 0.18007 0.51898 0.0
C523 C 0.30921 0.16397 0.50833 0.0
H524 H 0.241 0.23596 0.50173 0.0
C525 C 0.34642 0.18736 0.46627 0.0
H526 H 0.24022 0.16288 0.55113 0.0
C527 C 0.34557 0.22838 0.43706 0.0
C528 C 0.30761 0.24605 0.4499 0.0
H529 H 0.37718 0.17527 0.45712 0.0
H530 H 0.37654 0.24844 0.40677 0.0
C531 C 0.26947 0.2215 0.49065 0.0
C532 C 0.79233 0.08058 0.55215 0.0
C533 C 0.82319 0.12808 0.52323 0.0
H534 H 0.72495 -0.00054 0.55241 0.0
C535 C 0.81224 0.12865 0.47003 0.0
H536 H 0.80027 0.07918 0.59319 0.0
C537 C 0.77048 0.08232 0.44621 0.0
C538 C 0.73831 0.03556 0.47577 0.0
H539 H 0.83617 0.16472 0.4469 0.0
H540 H 0.76179 0.08377 0.4054 0.0
C541 C 0.74964 0.03499 0.5288 0.0
C542 C 0.90022 0.6724 0.4635 0.0
C543 C 0.9526 0.70721 0.48364 0.0
H544 H 0.81306 0.6436 0.46945 0.0
C545 C 0.95761 0.74014 0.52657 0.0
H546 H 0.89557 0.64524 0.43162 0.0
C547 C 0.91074 0.73994 0.54787 0.0
C548 C 0.85804 0.70503 0.52779 0.0
H549 H 0.99775 0.76577 0.54369 0.0
H550 H 0.91552 0.76538 0.58129 0.0
C551 C 0.85324 0.67132 0.48537 0.0
C552 C 0.25472 0.42079 0.23347 0.0
C553 C 0.24883 0.41738 0.2879 0.0
H554 H 0.21629 0.41851 0.16086 0.0
C555 C 0.20402 0.42028 0.31128 0.0
H556 H 0.28791 0.41694 0.21453 0.0
C557 C 0.16197 0.41924 0.28059 0.0
C558 C 0.16519 0.41723 0.2261 0.0
H559 H 0.19769 0.41599 0.35313 0.0
H560 H 0.12442 0.41419 0.29944 0.0
C561 C 0.21362 0.4217 0.20281 0.0
C562 C 0.54076 0.7313 0.24462 0.0
C563 C 0.58348 0.76336 0.20943 0.0
H564 H 0.49438 0.72996 0.31321 0.0
C565 C 0.6072 0.81996 0.21302 0.0
H566 H 0.52181 0.68768 0.24299 0.0
C567 C 0.59166 0.8442 0.25268 0.0
C568 C 0.55194 0.81267 0.29051 0.0
H569 H 0.63977 0.84588 0.18603 0.0
H570 H 0.61285 0.88791 0.255 0.0
C571 C 0.52519 0.75575 0.28486 0.0
C572 C 0.22954 0.75619 0.22616 0.0
C573 C 0.2596 0.81318 0.22116 0.0
H574 H 0.16448 0.68762 0.26695 0.0
C575 C 0.25082 0.84426 0.25914 0.0
H576 H 0.23501 0.73074 0.19768 0.0
C577 C 0.21057 0.81954 0.29827 0.0
C578 C 0.1778 0.76289 0.30116 0.0
H579 H 0.27321 0.88799 0.2573 0.0
H580 H 0.20344 0.84512 0.32538 0.0
C581 C 0.18906 0.73126 0.26586 0.0
C582 C 0.87431 0.64616 0.7373 0.0
C583 C 0.85541 0.62291 0.78664 0.0
H584 H 0.85408 0.66807 0.6645 0.0
C585 C 0.79789 0.59643 0.79721 0.0
H586 H 0.91827 0.6674 0.72817 0.0
C587 C 0.76075 0.5974 0.76059 0.0
C588 C 0.78078 0.62445 0.71289 0.0
H589 H 0.78227 0.57929 0.83539 0.0
H590 H 0.71736 0.58061 0.77103 0.0
C591 C 0.83751 0.64675 0.70093 0.0
C592 C 0.37266 0.24735 0.74653 0.0
C593 C 0.38649 0.23945 0.79689 0.0
H594 H 0.35924 0.22034 0.66722 0.0
C595 C 0.40757 0.20353 0.80337 0.0
H596 H 0.35507 0.27367 0.7405 0.0
C597 C 0.4094 0.17219 0.76117 0.0
C598 C 0.39056 0.17673 0.71185 0.0
H599 H 0.41687 0.19535 0.84205 0.0
H600 H 0.42009 0.14081 0.76835 0.0
C601 C 0.37496 0.21663 0.70455 0.0
C602 C 0.7606 0.17369 0.75007 0.0
C603 C 0.78389 0.17824 0.79945 0.0
H604 H 0.77644 0.19682 0.66928 0.0
C605 C 0.83932 0.21822 0.80699 0.0
H606 H 0.71856 0.14224 0.74273 0.0
C607 C 0.87243 0.24899 0.76515 0.0
C608 C 0.85082 0.24102 0.71471 0.0
H609 H 0.85867 0.22195 0.84438 0.0
H610 H 0.91631 0.27533 0.77134 0.0
C611 C 0.79383 0.20506 0.70802 0.0
C612 C 0.03961 0.50043 0.99319 0.0
C613 C 0.01613 0.47783 0.0418 0.0
H614 H 0.03232 0.53629 0.92291 0.0
C615 C 0.96408 0.47229 0.05547 0.0
H616 H 0.07891 0.5041 0.98077 0.0
C617 C 0.93666 0.48978 0.02172 0.0
C618 C 0.96064 0.51323 0.97348 0.0
H619 H 0.94418 0.45398 0.09216 0.0
H620 H 0.89768 0.48673 0.03434 0.0
C621 C 0.01216 0.51771 0.95944 0.0
C622 C 0.47846 0.53539 0.99148 0.0
C623 C 0.51388 0.54616 0.03394 0.0
H624 H 0.42724 0.478 0.93412 0.0
C625 C 0.52548 0.5053 0.05017 0.0
H626 H 0.46937 0.56607 0.97727 0.0
C627 C 0.5022 0.45505 0.0248 0.0
C628 C 0.4666 0.44419 0.98248 0.0
H629 H 0.5532 0.51228 0.0823 0.0
H630 H 0.51121 0.42435 0.03909 0.0
C631 C 0.45508 0.48508 0.96617 0.0
C632 C 0.45409 0.96075 0.98951 0.0
C633 C 0.45828 0.96985 0.04374 0.0
H634 H 0.49549 0.98121 0.91477 0.0
C635 C 0.50802 0.01193 0.06315 0.0
H636 H 0.41522 0.93156 0.97264 0.0
C637 C 0.55268 0.04312 0.02956 0.0
C638 C 0.54917 0.03275 0.97553 0.0
H639 H 0.51207 0.02133 0.1044 0.0
H640 H 0.59073 0.07433 0.04633 0.0
C641 C 0.49945 0.99069 0.956 0.0
C642 C 0.50133 0.01058 0.44843 0.0
C643 C 0.50873 0.96845 0.46801 0.0
H644 H 0.48099 0.07305 0.46491 0.0
C645 C 0.50325 0.95929 0.5222 0.0
H646 H 0.5071 0.02002 0.40722 0.0
C647 C 0.4876 0.98926 0.55549 0.0
C648 C 0.48021 0.03138 0.53579 0.0
H649 H 0.51269 0.93004 0.53923 0.0
H650 H 0.48165 0.97974 0.59667 0.0
C651 C 0.48761 0.04179 0.48182 0.0
C652 C 0.02741 0.48496 0.5441 0.0
C653 C 0.97506 0.44384 0.52781 0.0
H654 H 0.09398 0.56593 0.53278 0.0
C655 C 0.95029 0.45425 0.48526 0.0
H656 H 0.0482 0.47823 0.57633 0.0
C657 C 0.97718 0.5043 0.45965 0.0
C658 C 0.02957 0.5454 0.47588 0.0
H659 H 0.91061 0.42335 0.47098 0.0
H660 H 0.95641 0.51096 0.42736 0.0
C661 C 0.05425 0.53506 0.51856 0.0
C662 C 0.50567 0.47173 0.45778 0.0
C663 C 0.45926 0.47741 0.4715 0.0
H664 H 0.58645 0.48597 0.47885 0.0
C665 C 0.45853 0.50013 0.52014 0.0
H666 H 0.50715 0.45332 0.42107 0.0
C667 C 0.50334 0.51744 0.55386 0.0
C668 C 0.55027 0.51278 0.53977 0.0
H669 H 0.42297 0.50392 0.53258 0.0
H670 H 0.50191 0.53615 0.59041 0.0
C671 C 0.55062 0.48917 0.49151 0.0
loop_
_geom_bond_atom_site_label_1
_geom_bond_atom_site_label_2
_geom_bond_distance
_geom_bond_site_symmetry_2
_ccdc_geom_bond_type
Mn0 O5 2.095 . S
Mn0 O15 2.162 . S
Mn0 O16 2.297 . S
Mn0 O24 2.385 1_554 S
Mn0 O25 2.209 . S
Mn0 O26 2.094 . S
Mn1 O6 2.121 . S
Mn1 N8 2.257 1_455 S
Mn1 N17 2.282 . S
Mn1 O25 2.215 . S
Mn1 O27 2.117 . S
C2 O24 1.234 1_654 S
C2 O25 1.283 1_655 S
C3 O15 1.281 . S
C3 O16 1.236 . S
C4 O26 1.240 . S
C4 O27 1.264 . S
O5 Mn0 2.095 . S
O5 C14 1.250 . S
O6 Mn1 2.121 . S
O6 C14 1.258 . S
C7 N8 1.326 . S
C7 C11 1.460 . S
C7 H13 0.929 1_655 S
N8 Mn1 2.257 1_655 S
N8 C7 1.326 . S
N8 C12 1.362 . S
C9 C10 1.258 . S
C9 C12 1.431 . S
C9 C29 1.449 . S
C10 C9 1.258 . S
C10 C11 1.477 . S
C10 H30 0.931 . S
C11 C7 1.460 . S
C11 C10 1.477 . S
C11 H31 0.930 . S
C12 N8 1.362 . S
C12 C9 1.431 . S
C12 C22 1.476 . S
H13 C7 0.929 1_455 S
C14 O5 1.250 . S
C14 O6 1.258 . S
O15 Mn0 2.162 . S
O15 C3 1.281 . S
O16 Mn0 2.297 . S
O16 C3 1.236 . S
N17 Mn1 2.282 . S
N17 C18 1.332 . S
N17 C22 1.318 1_455 S
C18 N17 1.332 . S
C18 C19 1.454 1_454 S
C18 H23 0.927 1_554 S
C19 C18 1.454 1_656 S
C19 C20 1.291 . S
C19 H32 0.931 1_655 S
C20 C19 1.291 . S
C20 C21 1.373 1_556 S
C20 H33 0.929 . S
C21 C20 1.373 1_554 S
C21 C22 1.396 . S
C21 C28 1.403 . S
C22 C12 1.476 . S
C22 N17 1.318 1_655 S
C22 C21 1.396 . S
H23 C18 0.927 1_556 S
O24 Mn0 2.385 1_556 S
O24 C2 1.234 1_456 S
O25 Mn0 2.209 . S
O25 Mn1 2.215 . S
O25 C2 1.283 1_455 S
O26 Mn0 2.094 . S
O26 C4 1.240 . S
O27 Mn1 2.117 . S
O27 C4 1.264 . S
C28 C21 1.403 . S
C28 C29 1.399 . S
C28 H34 0.929 . S
C29 C9 1.449 . S
C29 C28 1.399 . S
C29 H35 0.930 . S
H30 C10 0.931 . S
H31 C11 0.930 . S
H32 C19 0.931 1_455 S
H33 C20 0.929 . S
H34 C28 0.929 . S
H35 C29 0.930 . S
Mn36 O41 2.095 . S
Mn36 O51 2.162 . S
Mn36 O52 2.297 . S
Mn36 O60 2.385 1_554 S
Mn36 O61 2.209 . S
Mn36 O62 2.094 . S
Mn37 O42 2.121 . S
Mn37 N44 2.257 . S
Mn37 N53 2.282 . S
Mn37 O61 2.215 . S
Mn37 O63 2.117 . S
C38 O60 1.234 1_554 S
C38 O61 1.283 . S
C39 O51 1.281 . S
C39 O52 1.236 . S
C40 O62 1.240 . S
C40 O63 1.264 . S
O41 Mn36 2.095 . S
O41 C50 1.250 . S
O42 Mn37 2.121 . S
O42 C50 1.258 . S
C43 N44 1.326 . S
C43 C47 1.460 . S
C43 H49 0.929 . S
N44 Mn37 2.257 . S
N44 C43 1.326 . S
N44 C48 1.362 . S
C45 C46 1.258 . S
C45 C48 1.431 . S
C45 C65 1.449 . S
C46 C45 1.258 . S
C46 C47 1.477 . S
C46 H66 0.931 . S
C47 C43 1.460 . S
C47 C46 1.477 . S
C47 H67 0.930 . S
C48 N44 1.362 . S
C48 C45 1.431 . S
C48 C58 1.476 . S
H49 C43 0.929 . S
C50 O41 1.250 . S
C50 O42 1.258 . S
O51 Mn36 2.162 . S
O51 C39 1.281 . S
O52 Mn36 2.297 . S
O52 C39 1.236 . S
N53 Mn37 2.282 . S
N53 C54 1.328 1_554 S
N53 C58 1.318 . S
C54 N53 1.328 1_556 S
C54 C55 1.457 . S
C54 H59 0.929 . S
C55 C54 1.457 . S
C55 C56 1.291 . S
C55 H68 0.931 . S
C56 C55 1.291 . S
C56 C57 1.373 1_556 S
C56 H69 0.929 . S
C57 C56 1.373 1_554 S
C57 C58 1.396 . S
C57 C64 1.403 . S
C58 C48 1.476 . S
C58 N53 1.318 . S
C58 C57 1.396 . S
H59 C54 0.929 . S
O60 Mn36 2.385 1_556 S
O60 C38 1.234 1_556 S
O61 Mn36 2.209 . S
O61 Mn37 2.215 . S
O61 C38 1.283 . S
O62 Mn36 2.094 . S
O62 C40 1.240 . S
O63 Mn37 2.117 . S
O63 C40 1.264 . S
C64 C57 1.403 . S
C64 C65 1.399 . S
C64 H70 0.929 . S
C65 C45 1.449 . S
C65 C64 1.399 . S
C65 H71 0.930 . S
H66 C46 0.931 . S
H67 C47 0.930 . S
H68 C55 0.931 . S
H69 C56 0.929 . S
H70 C64 0.929 . S
H71 C65 0.930 . S
Mn72 O77 2.095 . S
Mn72 O87 2.162 1_565 S
Mn72 O88 2.297 . S
Mn72 O96 2.385 . S
Mn72 O97 2.209 . S
Mn72 O98 2.094 . S
Mn73 O78 2.121 . S
Mn73 N80 2.257 . S
Mn73 N89 2.282 . S
Mn73 O97 2.215 . S
Mn73 O99 2.117 . S
C74 O96 1.234 . S
C74 O97 1.283 . S
C75 O87 1.281 . S
C75 O88 1.236 1_545 S
C76 O98 1.240 . S
C76 O99 1.264 . S
O77 Mn72 2.095 . S
O77 C86 1.250 . S
O78 Mn73 2.121 . S
O78 C86 1.258 . S
C79 N80 1.326 1_556 S
C79 C83 1.460 . S
C79 H85 0.929 . S
N80 Mn73 2.257 . S
N80 C79 1.326 1_554 S
N80 C84 1.362 . S
C81 C82 1.258 . S
C81 C84 1.431 1_556 S
C81 C101 1.449 1_556 S
C82 C81 1.258 . S
C82 C83 1.477 . S
C82 H102 0.931 . S
C83 C79 1.460 . S
C83 C82 1.477 . S
C83 H103 0.930 . S
C84 N80 1.362 . S
C84 C81 1.431 1_554 S
C84 C94 1.476 . S
H85 C79 0.929 . S
C86 O77 1.250 . S
C86 O78 1.258 . S
O87 Mn72 2.162 1_545 S
O87 C75 1.281 . S
O88 Mn72 2.297 . S
O88 C75 1.236 1_565 S
N89 Mn73 2.282 . S
N89 C90 1.328 . S
N89 C94 1.318 . S
C90 N89 1.328 . S
C90 C91 1.457 . S
C90 H95 0.929 . S
C91 C90 1.457 . S
C91 C92 1.291 . S
C91 H104 0.931 . S
C92 C91 1.291 . S
C92 C93 1.373 . S
C92 H105 0.929 . S
C93 C92 1.373 . S
C93 C94 1.396 . S
C93 C100 1.403 . S
C94 C84 1.476 . S
C94 N89 1.318 . S
C94 C93 1.396 . S
H95 C90 0.929 . S
O96 Mn72 2.385 . S
O96 C74 1.234 . S
O97 Mn72 2.209 . S
O97 Mn73 2.215 . S
O97 C74 1.283 . S
O98 Mn72 2.094 . S
O98 C76 1.240 . S
O99 Mn73 2.117 . S
O99 C76 1.264 . S
C100 C93 1.403 . S
C100 C101 1.399 . S
C100 H106 0.929 . S
C101 C81 1.449 1_554 S
C101 C100 1.399 . S
C101 H107 0.930 1_554 S
H102 C82 0.931 . S
H103 C83 0.930 . S
H104 C91 0.931 . S
H105 C92 0.929 . S
H106 C100 0.929 . S
H107 C101 0.930 1_556 S
Mn108 O113 2.095 . S
Mn108 O123 2.162 1_565 S
Mn108 O124 2.297 . S
Mn108 O132 2.385 . S
Mn108 O133 2.209 . S
Mn108 O134 2.094 . S
Mn109 O114 2.121 . S
Mn109 N116 2.257 . S
Mn109 N125 2.282 . S
Mn109 O133 2.215 . S
Mn109 O135 2.117 . S
C110 O132 1.234 . S
C110 O133 1.283 . S
C111 O123 1.281 . S
C111 O124 1.236 1_545 S
C112 O134 1.240 . S
C112 O135 1.264 . S
O113 Mn108 2.095 . S
O113 C122 1.250 . S
O114 Mn109 2.121 . S
O114 C122 1.258 . S
C115 N116 1.326 . S
C115 C119 1.460 . S
C115 H121 0.929 . S
N116 Mn109 2.257 . S
N116 C115 1.326 . S
N116 C120 1.362 . S
C117 C118 1.258 . S
C117 C120 1.431 . S
C117 C137 1.449 . S
C118 C117 1.258 . S
C118 C119 1.477 . S
C118 H138 0.931 . S
C119 C115 1.460 . S
C119 C118 1.477 . S
C119 H139 0.930 . S
C120 N116 1.362 . S
C120 C117 1.431 . S
C120 C130 1.476 . S
H121 C115 0.929 . S
C122 O113 1.250 . S
C122 O114 1.258 . S
O123 Mn108 2.162 1_545 S
O123 C111 1.281 . S
O124 Mn108 2.297 . S
O124 C111 1.236 1_565 S
N125 Mn109 2.282 . S
N125 C126 1.328 . S
N125 C130 1.318 . S
C126 N125 1.328 . S
C126 C127 1.457 . S
C126 H131 0.929 . S
C127 C126 1.457 . S
C127 C128 1.291 . S
C127 H140 0.931 . S
C128 C127 1.291 . S
C128 C129 1.373 . S
C128 H141 0.929 . S
C129 C128 1.373 . S
C129 C130 1.396 . S
C129 C136 1.403 . S
C130 C120 1.476 . S
C130 N125 1.318 . S
C130 C129 1.396 . S
H131 C126 0.929 . S
O132 Mn108 2.385 . S
O132 C110 1.234 . S
O133 Mn108 2.209 . S
O133 Mn109 2.215 . S
O133 C110 1.283 . S
O134 Mn108 2.094 . S
O134 C112 1.240 . S
O135 Mn109 2.117 . S
O135 C112 1.264 . S
C136 C129 1.403 . S
C136 C137 1.399 . S
C136 H142 0.929 . S
C137 C117 1.449 . S
C137 C136 1.399 . S
C137 H143 0.930 . S
H138 C118 0.931 . S
H139 C119 0.930 . S
H140 C127 0.931 . S
H141 C128 0.929 . S
H142 C136 0.929 . S
H143 C137 0.930 . S
Mn144 O149 2.095 . S
Mn144 O159 2.162 . S
Mn144 O160 2.297 . S
Mn144 O168 2.385 . S
Mn144 O169 2.209 . S
Mn144 O170 2.094 . S
Mn145 O150 2.121 . S
Mn145 N152 2.257 1_455 S
Mn145 N161 2.282 . S
Mn145 O169 2.215 . S
Mn145 O171 2.117 . S
C146 O168 1.234 1_655 S
C146 O169 1.283 1_655 S
C147 O159 1.281 . S
C147 O160 1.236 . S
C148 O170 1.240 . S
C148 O171 1.264 . S
O149 Mn144 2.095 . S
O149 C158 1.250 . S
O150 Mn145 2.121 . S
O150 C158 1.258 . S
C151 N152 1.326 . S
C151 C155 1.460 . S
C151 H157 0.929 1_655 S
N152 Mn145 2.257 1_655 S
N152 C151 1.326 . S
N152 C156 1.362 . S
C153 C154 1.258 . S
C153 C156 1.431 . S
C153 C173 1.449 . S
C154 C153 1.258 . S
C154 C155 1.477 . S
C154 H174 0.931 . S
C155 C151 1.460 . S
C155 C154 1.477 . S
C155 H175 0.930 . S
C156 N152 1.362 . S
C156 C153 1.431 . S
C156 C166 1.476 . S
H157 C151 0.929 1_455 S
C158 O149 1.250 . S
C158 O150 1.258 . S
O159 Mn144 2.162 . S
O159 C147 1.281 . S
O160 Mn144 2.297 . S
O160 C147 1.236 . S
N161 Mn145 2.282 . S
N161 C162 1.328 . S
N161 C166 1.318 1_455 S
C162 N161 1.328 . S
C162 C163 1.457 . S
C162 H167 0.929 . S
C163 C162 1.457 . S
C163 C164 1.291 1_455 S
C163 H176 0.931 . S
C164 C163 1.291 1_655 S
C164 C165 1.373 . S
C164 H177 0.929 . S
C165 C164 1.373 . S
C165 C166 1.396 . S
C165 C172 1.403 . S
C166 C156 1.476 . S
C166 N161 1.318 1_655 S
C166 C165 1.396 . S
H167 C162 0.929 . S
O168 Mn144 2.385 . S
O168 C146 1.234 1_455 S
O169 Mn144 2.209 . S
O169 Mn145 2.215 . S
O169 C146 1.283 1_455 S
O170 Mn144 2.094 . S
O170 C148 1.240 . S
O171 Mn145 2.117 . S
O171 C148 1.264 . S
C172 C165 1.403 . S
C172 C173 1.399 . S
C172 H178 0.929 . S
C173 C153 1.449 . S
C173 C172 1.399 . S
C173 H179 0.930 . S
H174 C154 0.931 . S
H175 C155 0.930 . S
H176 C163 0.931 . S
H177 C164 0.929 . S
H178 C172 0.929 . S
H179 C173 0.930 . S
Mn180 O185 2.095 . S
Mn180 O195 2.162 . S
Mn180 O196 2.297 . S
Mn180 O204 2.385 . S
Mn180 O205 2.209 . S
Mn180 O206 2.094 . S
Mn181 O186 2.121 . S
Mn181 N188 2.257 . S
Mn181 N197 2.282 . S
Mn181 O205 2.215 . S
Mn181 O207 2.117 . S
C182 O204 1.234 . S
C182 O205 1.283 . S
C183 O195 1.281 . S
C183 O196 1.236 . S
C184 O206 1.240 . S
C184 O207 1.264 . S
O185 Mn180 2.095 . S
O185 C194 1.250 . S
O186 Mn181 2.121 . S
O186 C194 1.258 . S
C187 N188 1.326 . S
C187 C191 1.460 . S
C187 H193 0.929 . S
N188 Mn181 2.257 . S
N188 C187 1.326 . S
N188 C192 1.362 . S
C189 C190 1.258 . S
C189 C192 1.431 . S
C189 C209 1.449 . S
C190 C189 1.258 . S
C190 C191 1.477 . S
C190 H210 0.931 . S
C191 C187 1.460 . S
C191 C190 1.477 . S
C191 H211 0.930 . S
C192 N188 1.362 . S
C192 C189 1.431 . S
C192 C202 1.476 . S
H193 C187 0.929 . S
C194 O185 1.250 . S
C194 O186 1.258 . S
O195 Mn180 2.162 . S
O195 C183 1.281 . S
O196 Mn180 2.297 . S
O196 C183 1.236 . S
N197 Mn181 2.282 . S
N197 C198 1.328 . S
N197 C202 1.318 . S
C198 N197 1.328 . S
C198 C199 1.457 . S
C198 H203 0.929 . S
C199 C198 1.457 . S
C199 C200 1.291 . S
C199 H212 0.931 . S
C200 C199 1.291 . S
C200 C201 1.373 . S
C200 H213 0.929 . S
C201 C200 1.373 . S
C201 C202 1.396 . S
C201 C208 1.403 . S
C202 C192 1.476 . S
C202 N197 1.318 . S
C202 C201 1.396 . S
H203 C198 0.929 . S
O204 Mn180 2.385 . S
O204 C182 1.234 . S
O205 Mn180 2.209 . S
O205 Mn181 2.215 . S
O205 C182 1.283 . S
O206 Mn180 2.094 . S
O206 C184 1.240 . S
O207 Mn181 2.117 . S
O207 C184 1.264 . S
C208 C201 1.403 . S
C208 C209 1.399 . S
C208 H214 0.929 . S
C209 C189 1.449 . S
C209 C208 1.399 . S
C209 H215 0.930 . S
H210 C190 0.931 . S
H211 C191 0.930 . S
H212 C199 0.931 . S
H213 C200 0.929 . S
H214 C208 0.929 . S
H215 C209 0.930 . S
Mn216 O221 2.095 . S
Mn216 O231 2.162 . S
Mn216 O232 2.297 . S
Mn216 O240 2.385 . S
Mn216 O241 2.209 . S
Mn216 O242 2.094 . S
Mn217 O222 2.121 . S
Mn217 N224 2.257 1_655 S
Mn217 N233 2.282 . S
Mn217 O241 2.215 . S
Mn217 O243 2.117 . S
C218 O240 1.234 1_455 S
C218 O241 1.283 1_455 S
C219 O231 1.281 . S
C219 O232 1.236 . S
C220 O242 1.240 . S
C220 O243 1.264 . S
O221 Mn216 2.095 . S
O221 C230 1.250 . S
O222 Mn217 2.121 . S
O222 C230 1.258 . S
C223 N224 1.326 . S
C223 C227 1.460 . S
C223 H229 0.929 . S
N224 Mn217 2.257 1_455 S
N224 C223 1.326 . S
N224 C228 1.362 . S
C225 C226 1.258 . S
C225 C228 1.431 . S
C225 C245 1.449 . S
C226 C225 1.258 . S
C226 C227 1.477 . S
C226 H246 0.931 . S
C227 C223 1.460 . S
C227 C226 1.477 . S
C227 H247 0.930 . S
C228 N224 1.362 . S
C228 C225 1.431 . S
C228 C238 1.476 . S
H229 C223 0.929 . S
C230 O221 1.250 . S
C230 O222 1.258 . S
O231 Mn216 2.162 . S
O231 C219 1.281 . S
O232 Mn216 2.297 . S
O232 C219 1.236 . S
N233 Mn217 2.282 . S
N233 C234 1.328 . S
N233 C238 1.318 1_655 S
C234 N233 1.328 . S
C234 C235 1.457 1_656 S
C234 H239 0.929 1_556 S
C235 C234 1.457 1_454 S
C235 C236 1.291 . S
C235 H248 0.931 . S
C236 C235 1.291 . S
C236 C237 1.373 1_554 S
C236 H249 0.929 . S
C237 C236 1.373 1_556 S
C237 C238 1.396 . S
C237 C244 1.403 . S
C238 C228 1.476 . S
C238 N233 1.318 1_455 S
C238 C237 1.396 . S
H239 C234 0.929 1_554 S
O240 Mn216 2.385 . S
O240 C218 1.234 1_655 S
O241 Mn216 2.209 . S
O241 Mn217 2.215 . S
O241 C218 1.283 1_655 S
O242 Mn216 2.094 . S
O242 C220 1.240 . S
O243 Mn217 2.117 . S
O243 C220 1.264 . S
C244 C237 1.403 . S
C244 C245 1.399 . S
C244 H250 0.929 . S
C245 C225 1.449 . S
C245 C244 1.399 . S
C245 H251 0.930 . S
H246 C226 0.931 . S
H247 C227 0.930 . S
H248 C235 0.931 . S
H249 C236 0.929 . S
H250 C244 0.929 . S
H251 C245 0.930 . S
Mn252 O257 2.095 . S
Mn252 O267 2.162 . S
Mn252 O268 2.297 . S
Mn252 O276 2.385 . S
Mn252 O277 2.209 . S
Mn252 O278 2.094 . S
Mn253 O258 2.121 . S
Mn253 N260 2.257 . S
Mn253 N269 2.282 . S
Mn253 O277 2.215 . S
Mn253 O279 2.117 . S
C254 O276 1.234 . S
C254 O277 1.283 . S
C255 O267 1.281 . S
C255 O268 1.236 . S
C256 O278 1.240 . S
C256 O279 1.264 . S
O257 Mn252 2.095 . S
O257 C266 1.250 . S
O258 Mn253 2.121 . S
O258 C266 1.258 . S
C259 N260 1.326 . S
C259 C263 1.460 . S
C259 H265 0.929 . S
N260 Mn253 2.257 . S
N260 C259 1.326 . S
N260 C264 1.362 . S
C261 C262 1.258 . S
C261 C264 1.431 . S
C261 C281 1.449 . S
C262 C261 1.258 . S
C262 C263 1.477 . S
C262 H282 0.931 . S
C263 C259 1.460 . S
C263 C262 1.477 . S
C263 H283 0.930 . S
C264 N260 1.362 . S
C264 C261 1.431 . S
C264 C274 1.476 . S
H265 C259 0.929 . S
C266 O257 1.250 . S
C266 O258 1.258 . S
O267 Mn252 2.162 . S
O267 C255 1.281 . S
O268 Mn252 2.297 . S
O268 C255 1.236 . S
N269 Mn253 2.282 . S
N269 C270 1.328 . S
N269 C274 1.318 . S
C270 N269 1.328 . S
C270 C271 1.457 1_556 S
C270 H275 0.929 1_556 S
C271 C270 1.457 1_554 S
C271 C272 1.291 . S
C271 H284 0.931 . S
C272 C271 1.291 . S
C272 C273 1.373 1_554 S
C272 H285 0.929 . S
C273 C272 1.373 1_556 S
C273 C274 1.396 . S
C273 C280 1.403 . S
C274 C264 1.476 . S
C274 N269 1.318 . S
C274 C273 1.396 . S
H275 C270 0.929 1_554 S
O276 Mn252 2.385 . S
O276 C254 1.234 . S
O277 Mn252 2.209 . S
O277 Mn253 2.215 . S
O277 C254 1.283 . S
O278 Mn252 2.094 . S
O278 C256 1.240 . S
O279 Mn253 2.117 . S
O279 C256 1.264 . S
C280 C273 1.403 . S
C280 C281 1.399 . S
C280 H286 0.929 . S
C281 C261 1.449 . S
C281 C280 1.399 . S
C281 H287 0.930 . S
H282 C262 0.931 . S
H283 C263 0.930 . S
H284 C271 0.931 . S
H285 C272 0.929 . S
H286 C280 0.929 . S
H287 C281 0.930 . S
Mn288 O293 2.095 . S
Mn288 O303 2.162 . S
Mn288 O304 2.297 . S
Mn288 O312 2.385 1_556 S
Mn288 O313 2.209 . S
Mn288 O314 2.094 . S
Mn289 O294 2.121 . S
Mn289 N296 2.257 1_545 S
Mn289 N305 2.282 . S
Mn289 O313 2.215 . S
Mn289 O315 2.117 . S
C290 O312 1.234 1_566 S
C290 O313 1.283 1_565 S
C291 O303 1.281 . S
C291 O304 1.236 . S
C292 O314 1.240 . S
C292 O315 1.264 . S
O293 Mn288 2.095 . S
O293 C302 1.250 . S
O294 Mn289 2.121 . S
O294 C302 1.258 . S
C295 N296 1.326 . S
C295 C299 1.460 . S
C295 H301 0.929 1_565 S
N296 Mn289 2.257 1_565 S
N296 C295 1.326 . S
N296 C300 1.362 . S
C297 C298 1.258 . S
C297 C300 1.431 . S
C297 C317 1.449 . S
C298 C297 1.258 . S
C298 C299 1.477 . S
C298 H318 0.931 . S
C299 C295 1.460 . S
C299 C298 1.477 . S
C299 H319 0.930 . S
C300 N296 1.362 . S
C300 C297 1.431 . S
C300 C310 1.476 . S
H301 C295 0.929 1_545 S
C302 O293 1.250 . S
C302 O294 1.258 . S
O303 Mn288 2.162 . S
O303 C291 1.281 . S
O304 Mn288 2.297 . S
O304 C291 1.236 . S
N305 Mn289 2.282 . S
N305 C306 1.328 . S
N305 C310 1.318 1_545 S
C306 N305 1.328 . S
C306 C307 1.457 1_546 S
C306 H311 0.929 1_556 S
C307 C306 1.457 1_564 S
C307 C308 1.291 . S
C307 H320 0.931 1_565 S
C308 C307 1.291 . S
C308 C309 1.373 1_554 S
C308 H321 0.929 . S
C309 C308 1.373 1_556 S
C309 C310 1.396 . S
C309 C316 1.403 . S
C310 C300 1.476 . S
C310 N305 1.318 1_565 S
C310 C309 1.396 . S
H311 C306 0.929 1_554 S
O312 Mn288 2.385 1_554 S
O312 C290 1.234 1_544 S
O313 Mn288 2.209 . S
O313 Mn289 2.215 . S
O313 C290 1.283 1_545 S
O314 Mn288 2.094 . S
O314 C292 1.240 . S
O315 Mn289 2.117 . S
O315 C292 1.264 . S
C316 C309 1.403 . S
C316 C317 1.399 . S
C316 H322 0.929 . S
C317 C297 1.449 . S
C317 C316 1.399 . S
C317 H323 0.930 . S
H318 C298 0.931 . S
H319 C299 0.930 . S
H320 C307 0.931 1_545 S
H321 C308 0.929 . S
H322 C316 0.929 . S
H323 C317 0.930 . S
Mn324 O329 2.095 . S
Mn324 O339 2.162 . S
Mn324 O340 2.297 . S
Mn324 O348 2.385 . S
Mn324 O349 2.209 . S
Mn324 O350 2.094 . S
Mn325 O330 2.121 . S
Mn325 N332 2.257 1_545 S
Mn325 N341 2.282 . S
Mn325 O349 2.215 . S
Mn325 O351 2.117 . S
C326 O348 1.234 1_565 S
C326 O349 1.283 1_565 S
C327 O339 1.281 . S
C327 O340 1.236 . S
C328 O350 1.240 . S
C328 O351 1.264 . S
O329 Mn324 2.095 . S
O329 C338 1.250 . S
O330 Mn325 2.121 . S
O330 C338 1.258 . S
C331 N332 1.326 . S
C331 C335 1.460 . S
C331 H337 0.929 1_565 S
N332 Mn325 2.257 1_565 S
N332 C331 1.326 . S
N332 C336 1.362 . S
C333 C334 1.258 . S
C333 C336 1.431 . S
C333 C353 1.449 . S
C334 C333 1.258 . S
C334 C335 1.477 . S
C334 H354 0.931 . S
C335 C331 1.460 . S
C335 C334 1.477 . S
C335 H355 0.930 . S
C336 N332 1.362 . S
C336 C333 1.431 . S
C336 C346 1.476 . S
H337 C331 0.929 1_545 S
C338 O329 1.250 . S
C338 O330 1.258 . S
O339 Mn324 2.162 . S
O339 C327 1.281 . S
O340 Mn324 2.297 . S
O340 C327 1.236 . S
N341 Mn325 2.282 . S
N341 C342 1.328 . S
N341 C346 1.318 1_545 S
C342 N341 1.328 . S
C342 C343 1.457 1_545 S
C342 H347 0.929 . S
C343 C342 1.457 1_565 S
C343 C344 1.291 . S
C343 H356 0.931 1_565 S
C344 C343 1.291 . S
C344 C345 1.373 . S
C344 H357 0.929 . S
C345 C344 1.373 . S
C345 C346 1.396 . S
C345 C352 1.403 . S
C346 C336 1.476 . S
C346 N341 1.318 1_565 S
C346 C345 1.396 . S
H347 C342 0.929 . S
O348 Mn324 2.385 . S
O348 C326 1.234 1_545 S
O349 Mn324 2.209 . S
O349 Mn325 2.215 . S
O349 C326 1.283 1_545 S
O350 Mn324 2.094 . S
O350 C328 1.240 . S
O351 Mn325 2.117 . S
O351 C328 1.264 . S
C352 C345 1.403 . S
C352 C353 1.399 . S
C352 H358 0.929 . S
C353 C333 1.449 . S
C353 C352 1.399 . S
C353 H359 0.930 . S
H354 C334 0.931 . S
H355 C335 0.930 . S
H356 C343 0.931 1_545 S
H357 C344 0.929 . S
H358 C352 0.929 . S
H359 C353 0.930 . S
Mn360 O365 2.095 . S
Mn360 O375 2.162 . S
Mn360 O376 2.297 . S
Mn360 O384 2.385 . S
Mn360 O385 2.209 . S
Mn360 O386 2.094 . S
Mn361 O366 2.121 . S
Mn361 N368 2.257 1_655 S
Mn361 N377 2.282 . S
Mn361 O385 2.215 . S
Mn361 O387 2.117 . S
C362 O384 1.234 1_455 S
C362 O385 1.283 1_455 S
C363 O375 1.281 . S
C363 O376 1.236 . S
C364 O386 1.240 . S
C364 O387 1.264 . S
O365 Mn360 2.095 . S
O365 C374 1.250 . S
O366 Mn361 2.121 . S
O366 C374 1.258 . S
C367 N368 1.326 . S
C367 C371 1.460 . S
C367 H373 0.929 1_455 S
N368 Mn361 2.257 1_455 S
N368 C367 1.326 . S
N368 C372 1.362 . S
C369 C370 1.258 . S
C369 C372 1.431 . S
C369 C389 1.449 . S
C370 C369 1.258 . S
C370 C371 1.477 . S
C370 H390 0.931 . S
C371 C367 1.460 . S
C371 C370 1.477 . S
C371 H391 0.930 . S
C372 N368 1.362 . S
C372 C369 1.431 . S
C372 C382 1.476 . S
H373 C367 0.929 1_655 S
C374 O365 1.250 . S
C374 O366 1.258 . S
O375 Mn360 2.162 . S
O375 C363 1.281 . S
O376 Mn360 2.297 . S
O376 C363 1.236 . S
N377 Mn361 2.282 . S
N377 C378 1.328 . S
N377 C382 1.318 1_655 S
C378 N377 1.328 . S
C378 C379 1.457 1_655 S
C378 H383 0.929 . S
C379 C378 1.457 1_455 S
C379 C380 1.291 . S
C379 H392 0.931 1_455 S
C380 C379 1.291 . S
C380 C381 1.373 . S
C380 H393 0.929 . S
C381 C380 1.373 . S
C381 C382 1.396 . S
C381 C388 1.403 . S
C382 C372 1.476 . S
C382 N377 1.318 1_455 S
C382 C381 1.396 . S
H383 C378 0.929 . S
O384 Mn360 2.385 . S
O384 C362 1.234 1_655 S
O385 Mn360 2.209 . S
O385 Mn361 2.215 . S
O385 C362 1.283 1_655 S
O386 Mn360 2.094 . S
O386 C364 1.240 . S
O387 Mn361 2.117 . S
O387 C364 1.264 . S
C388 C381 1.403 . S
C388 C389 1.399 . S
C388 H394 0.929 . S
C389 C369 1.449 . S
C389 C388 1.399 . S
C389 H395 0.930 . S
H390 C370 0.931 . S
H391 C371 0.930 . S
H392 C379 0.931 1_655 S
H393 C380 0.929 . S
H394 C388 0.929 . S
H395 C389 0.930 . S
Mn396 O401 2.095 . S
Mn396 O411 2.162 . S
Mn396 O412 2.297 . S
Mn396 O420 2.385 . S
Mn396 O421 2.209 . S
Mn396 O422 2.094 . S
Mn397 O402 2.121 . S
Mn397 N404 2.257 . S
Mn397 N413 2.282 . S
Mn397 O421 2.215 . S
Mn397 O423 2.117 . S
C398 O420 1.234 . S
C398 O421 1.283 . S
C399 O411 1.281 . S
C399 O412 1.236 . S
C400 O422 1.240 . S
C400 O423 1.264 . S
O401 Mn396 2.095 . S
O401 C410 1.250 . S
O402 Mn397 2.121 . S
O402 C410 1.258 . S
C403 N404 1.326 . S
C403 C407 1.460 . S
C403 H409 0.929 . S
N404 Mn397 2.257 . S
N404 C403 1.326 . S
N404 C408 1.362 . S
C405 C406 1.258 . S
C405 C408 1.431 . S
C405 C425 1.449 . S
C406 C405 1.258 . S
C406 C407 1.477 . S
C406 H426 0.931 . S
C407 C403 1.460 . S
C407 C406 1.477 . S
C407 H427 0.930 . S
C408 N404 1.362 . S
C408 C405 1.431 . S
C408 C418 1.476 . S
H409 C403 0.929 . S
C410 O401 1.250 . S
C410 O402 1.258 . S
O411 Mn396 2.162 . S
O411 C399 1.281 . S
O412 Mn396 2.297 . S
O412 C399 1.236 . S
N413 Mn397 2.282 . S
N413 C414 1.328 . S
N413 C418 1.318 . S
C414 N413 1.328 . S
C414 C415 1.457 . S
C414 H419 0.929 . S
C415 C414 1.457 . S
C415 C416 1.291 . S
C415 H428 0.931 . S
C416 C415 1.291 . S
C416 C417 1.373 . S
C416 H429 0.929 . S
C417 C416 1.373 . S
C417 C418 1.396 . S
C417 C424 1.403 . S
C418 C408 1.476 . S
C418 N413 1.318 . S
C418 C417 1.396 . S
H419 C414 0.929 . S
O420 Mn396 2.385 . S
O420 C398 1.234 . S
O421 Mn396 2.209 . S
O421 Mn397 2.215 . S
O421 C398 1.283 . S
O422 Mn396 2.094 . S
O422 C400 1.240 . S
O423 Mn397 2.117 . S
O423 C400 1.264 . S
C424 C417 1.403 . S
C424 C425 1.399 . S
C424 H430 0.929 . S
C425 C405 1.449 . S
C425 C424 1.399 . S
C425 H431 0.930 . S
H426 C406 0.931 . S
H427 C407 0.930 . S
H428 C415 0.931 . S
H429 C416 0.929 . S
H430 C424 0.929 . S
H431 C425 0.930 . S
C432 C433 1.383 1_556 S
C432 H436 0.950 . S
C432 C441 1.390 . S
C433 C432 1.383 1_554 S
C433 C435 1.389 . S
H434 C441 0.950 . S
C435 C433 1.389 . S
C435 C437 1.390 1_554 S
C435 H439 0.950 . S
H436 C432 0.950 . S
C437 C435 1.390 1_556 S
C437 C438 1.387 . S
C437 H440 0.950 . S
C438 C437 1.387 . S
C438 C441 1.387 . S
H439 C435 0.950 . S
H440 C437 0.950 . S
C441 C432 1.390 . S
C441 H434 0.950 . S
C441 C438 1.387 . S
C442 C443 1.387 1_554 S
C442 H446 0.950 . S
C442 C451 1.390 . S
C443 C442 1.387 1_556 S
C443 C445 1.387 . S
H444 C451 0.950 . S
C445 C443 1.387 . S
C445 C447 1.390 . S
C445 H449 0.950 . S
H446 C442 0.950 . S
C447 C445 1.390 . S
C447 C448 1.387 . S
C447 H450 0.950 . S
C448 C447 1.387 . S
C448 C451 1.387 1_556 S
H449 C445 0.950 . S
H450 C447 0.950 . S
C451 C442 1.390 . S
C451 H444 0.950 . S
C451 C448 1.387 1_554 S
C452 C453 1.387 1_556 S
C452 H456 0.950 . S
C452 C461 1.390 . S
C453 C452 1.387 1_554 S
C453 C455 1.387 . S
H454 C461 0.950 . S
C455 C453 1.387 . S
C455 C457 1.390 . S
C455 H459 0.950 . S
H456 C452 0.950 . S
C457 C455 1.390 . S
C457 C458 1.387 1_554 S
C457 H460 0.950 . S
C458 C457 1.387 1_556 S
C458 C461 1.387 . S
H459 C455 0.950 . S
H460 C457 0.950 . S
C461 C452 1.390 . S
C461 H454 0.950 . S
C461 C458 1.387 . S
C462 C463 1.387 . S
C462 H466 0.950 . S
C462 C471 1.390 . S
C463 C462 1.387 . S
C463 C465 1.387 . S
H464 C471 0.950 . S
C465 C463 1.387 . S
C465 C467 1.390 . S
C465 H469 0.950 . S
H466 C462 0.950 . S
C467 C465 1.390 . S
C467 C468 1.387 . S
C467 H470 0.950 . S
C468 C467 1.387 . S
C468 C471 1.387 . S
H469 C465 0.950 . S
H470 C467 0.950 . S
C471 C462 1.390 . S
C471 H464 0.950 . S
C471 C468 1.387 . S
C472 C473 1.387 . S
C472 H476 0.950 . S
C472 C481 1.390 . S
C473 C472 1.387 . S
C473 C475 1.387 . S
H474 C481 0.950 . S
C475 C473 1.387 . S
C475 C477 1.390 . S
C475 H479 0.950 . S
H476 C472 0.950 . S
C477 C475 1.390 . S
C477 C478 1.387 . S
C477 H480 0.950 . S
C478 C477 1.387 . S
C478 C481 1.387 . S
H479 C475 0.950 . S
H480 C477 0.950 . S
C481 C472 1.390 . S
C481 H474 0.950 . S
C481 C478 1.387 . S
C482 C483 1.387 . S
C482 H486 0.950 . S
C482 C491 1.390 . S
C483 C482 1.387 . S
C483 C485 1.387 . S
H484 C491 0.950 . S
C485 C483 1.387 . S
C485 C487 1.390 . S
C485 H489 0.950 . S
H486 C482 0.950 . S
C487 C485 1.390 . S
C487 C488 1.387 . S
C487 H490 0.950 . S
C488 C487 1.387 . S
C488 C491 1.387 . S
H489 C485 0.950 . S
H490 C487 0.950 . S
C491 C482 1.390 . S
C491 H484 0.950 . S
C491 C488 1.387 . S
C492 C493 1.387 . S
C492 H496 0.950 . S
C492 C501 1.390 . S
C493 C492 1.387 . S
C493 C495 1.387 1_554 S
H494 C501 0.950 . S
C495 C493 1.387 1_556 S
C495 C497 1.390 . S
C495 H499 0.950 . S
H496 C492 0.950 . S
C497 C495 1.390 . S
C497 C498 1.387 . S
C497 H500 0.950 . S
C498 C497 1.387 . S
C498 C501 1.387 1_556 S
H499 C495 0.950 . S
H500 C497 0.950 . S
C501 C492 1.390 . S
C501 H494 0.950 . S
C501 C498 1.387 1_554 S
C502 C503 1.387 . S
C502 H506 0.950 . S
C502 C511 1.390 . S
C503 C502 1.387 . S
C503 C505 1.387 1_556 S
H504 C511 0.950 . S
C505 C503 1.387 1_554 S
C505 C507 1.390 . S
C505 H509 0.950 . S
H506 C502 0.950 . S
C507 C505 1.390 . S
C507 C508 1.387 . S
C507 H510 0.950 . S
C508 C507 1.387 . S
C508 C511 1.387 1_554 S
H509 C505 0.950 . S
H510 C507 0.950 . S
C511 C502 1.390 . S
C511 H504 0.950 . S
C511 C508 1.387 1_556 S
C512 C513 1.387 . S
C512 H516 0.950 . S
C512 C521 1.390 . S
C513 C512 1.387 . S
C513 C515 1.387 1_554 S
H514 C521 0.950 . S
C515 C513 1.387 1_556 S
C515 C517 1.390 . S
C515 H519 0.950 . S
H516 C512 0.950 . S
C517 C515 1.390 . S
C517 C518 1.387 1_556 S
C517 H520 0.950 . S
C518 C517 1.387 1_554 S
C518 C521 1.387 . S
H519 C515 0.950 . S
H520 C517 0.950 . S
C521 C512 1.390 . S
C521 H514 0.950 . S
C521 C518 1.387 . S
C522 C523 1.387 . S
C522 H526 0.950 . S
C522 C531 1.390 . S
C523 C522 1.387 . S
C523 C525 1.387 . S
H524 C531 0.950 . S
C525 C523 1.387 . S
C525 C527 1.390 . S
C525 H529 0.950 . S
H526 C522 0.950 . S
C527 C525 1.390 . S
C527 C528 1.387 . S
C527 H530 0.950 . S
C528 C527 1.387 . S
C528 C531 1.387 . S
H529 C525 0.950 . S
H530 C527 0.950 . S
C531 C522 1.390 . S
C531 H524 0.950 . S
C531 C528 1.387 . S
C532 C533 1.387 . S
C532 H536 0.950 . S
C532 C541 1.390 . S
C533 C532 1.387 . S
C533 C535 1.387 . S
H534 C541 0.950 . S
C535 C533 1.387 . S
C535 C537 1.390 . S
C535 H539 0.950 . S
H536 C532 0.950 . S
C537 C535 1.390 . S
C537 C538 1.387 . S
C537 H540 0.950 . S
C538 C537 1.387 . S
C538 C541 1.387 . S
H539 C535 0.950 . S
H540 C537 0.950 . S
C541 C532 1.390 . S
C541 H534 0.950 . S
C541 C538 1.387 . S
C542 C543 1.387 . S
C542 H546 0.950 . S
C542 C551 1.390 . S
C543 C542 1.387 . S
C543 C545 1.387 . S
H544 C551 0.950 . S
C545 C543 1.387 . S
C545 C547 1.390 . S
C545 H549 0.950 . S
H546 C542 0.950 . S
C547 C545 1.390 . S
C547 C548 1.387 . S
C547 H550 0.950 . S
C548 C547 1.387 . S
C548 C551 1.387 . S
H549 C545 0.950 . S
H550 C547 0.950 . S
C551 C542 1.390 . S
C551 H544 0.950 . S
C551 C548 1.387 . S
C552 C553 1.387 . S
C552 H556 0.950 . S
C552 C561 1.390 . S
C553 C552 1.387 . S
C553 C555 1.387 . S
H554 C561 0.950 . S
C555 C553 1.387 . S
C555 C557 1.390 . S
C555 H559 0.950 . S
H556 C552 0.950 . S
C557 C555 1.390 . S
C557 C558 1.387 . S
C557 H560 0.950 . S
C558 C557 1.387 . S
C558 C561 1.387 . S
H559 C555 0.950 . S
H560 C557 0.950 . S
C561 C552 1.390 . S
C561 H554 0.950 . S
C561 C558 1.387 . S
C562 C563 1.387 . S
C562 H566 0.950 . S
C562 C571 1.390 . S
C563 C562 1.387 . S
C563 C565 1.387 . S
H564 C571 0.950 . S
C565 C563 1.387 . S
C565 C567 1.390 . S
C565 H569 0.950 . S
H566 C562 0.950 . S
C567 C565 1.390 . S
C567 C568 1.387 . S
C567 H570 0.950 . S
C568 C567 1.387 . S
C568 C571 1.387 . S
H569 C565 0.950 . S
H570 C567 0.950 . S
C571 C562 1.390 . S
C571 H564 0.950 . S
C571 C568 1.387 . S
C572 C573 1.387 . S
C572 H576 0.950 . S
C572 C581 1.390 . S
C573 C572 1.387 . S
C573 C575 1.387 . S
H574 C581 0.950 . S
C575 C573 1.387 . S
C575 C577 1.390 . S
C575 H579 0.950 . S
H576 C572 0.950 . S
C577 C575 1.390 . S
C577 C578 1.387 . S
C577 H580 0.950 . S
C578 C577 1.387 . S
C578 C581 1.387 . S
H579 C575 0.950 . S
H580 C577 0.950 . S
C581 C572 1.390 . S
C581 H574 0.950 . S
C581 C578 1.387 . S
C582 C583 1.387 . S
C582 H586 0.950 . S
C582 C591 1.390 . S
C583 C582 1.387 . S
C583 C585 1.387 . S
H584 C591 0.950 . S
C585 C583 1.387 . S
C585 C587 1.390 . S
C585 H589 0.950 . S
H586 C582 0.950 . S
C587 C585 1.390 . S
C587 C588 1.387 . S
C587 H590 0.950 . S
C588 C587 1.387 . S
C588 C591 1.387 . S
H589 C585 0.950 . S
H590 C587 0.950 . S
C591 C582 1.390 . S
C591 H584 0.950 . S
C591 C588 1.387 . S
C592 C593 1.387 . S
C592 H596 0.950 . S
C592 C601 1.390 . S
C593 C592 1.387 . S
C593 C595 1.387 . S
H594 C601 0.950 . S
C595 C593 1.387 . S
C595 C597 1.390 . S
C595 H599 0.950 . S
H596 C592 0.950 . S
C597 C595 1.390 . S
C597 C598 1.387 . S
C597 H600 0.950 . S
C598 C597 1.387 . S
C598 C601 1.387 . S
H599 C595 0.950 . S
H600 C597 0.950 . S
C601 C592 1.390 . S
C601 H594 0.950 . S
C601 C598 1.387 . S
C602 C603 1.387 . S
C602 H606 0.950 . S
C602 C611 1.390 . S
C603 C602 1.387 . S
C603 C605 1.387 . S
H604 C611 0.950 . S
C605 C603 1.387 . S
C605 C607 1.390 . S
C605 H609 0.950 . S
H606 C602 0.950 . S
C607 C605 1.390 . S
C607 C608 1.387 . S
C607 H610 0.950 . S
C608 C607 1.387 . S
C608 C611 1.387 . S
H609 C605 0.950 . S
H610 C607 0.950 . S
C611 C602 1.390 . S
C611 H604 0.950 . S
C611 C608 1.387 . S
C612 C613 1.387 1_556 S
C612 H616 0.950 . S
C612 C621 1.390 . S
C613 C612 1.387 1_554 S
C613 C615 1.387 1_455 S
H614 C621 0.950 . S
C615 C613 1.387 1_655 S
C615 C617 1.390 . S
C615 H619 0.950 . S
H616 C612 0.950 . S
C617 C615 1.390 . S
C617 C618 1.387 1_554 S
C617 H620 0.950 . S
C618 C617 1.387 1_556 S
C618 C621 1.387 1_655 S
H619 C615 0.950 . S
H620 C617 0.950 . S
C621 C612 1.390 . S
C621 H614 0.950 . S
C621 C618 1.387 1_455 S
C622 C623 1.387 1_556 S
C622 H626 0.950 . S
C622 C631 1.390 . S
C623 C622 1.387 1_554 S
C623 C625 1.387 . S
H624 C631 0.950 . S
C625 C623 1.387 . S
C625 C627 1.390 1_554 S
C625 H629 0.950 . S
H626 C622 0.950 . S
C627 C625 1.390 1_556 S
C627 C628 1.387 . S
C627 H630 0.950 . S
C628 C627 1.387 . S
C628 C631 1.387 . S
H629 C625 0.950 . S
H630 C627 0.950 . S
C631 C622 1.390 . S
C631 H624 0.950 . S
C631 C628 1.387 . S
C632 C633 1.387 1_556 S
C632 H636 0.950 . S
C632 C641 1.390 . S
C633 C632 1.387 1_554 S
C633 C635 1.380 1_565 S
H634 C641 0.950 . S
C635 C633 1.380 1_545 S
C635 C637 1.394 . S
C635 H639 0.954 . S
H636 C632 0.950 . S
C637 C635 1.394 . S
C637 C638 1.387 1_554 S
C637 H640 0.950 . S
C638 C637 1.387 1_556 S
C638 C641 1.387 1_545 S
H639 C635 0.954 . S
H640 C637 0.950 . S
C641 C632 1.390 . S
C641 H634 0.950 . S
C641 C638 1.387 1_565 S
C642 C643 1.387 . S
C642 H646 0.950 1_565 S
C642 C651 1.390 1_565 S
C643 C642 1.387 . S
C643 C645 1.387 . S
H644 C651 0.950 . S
C645 C643 1.387 . S
C645 C647 1.390 . S
C645 H649 0.950 . S
H646 C642 0.950 1_545 S
C647 C645 1.390 . S
C647 C648 1.387 1_565 S
C647 H650 0.950 . S
C648 C647 1.387 1_545 S
C648 C651 1.387 . S
H649 C645 0.950 . S
H650 C647 0.950 . S
C651 C642 1.390 1_545 S
C651 H644 0.950 . S
C651 C648 1.387 . S
C652 C653 1.387 1_455 S
C652 H656 0.950 . S
C652 C661 1.390 . S
C653 C652 1.387 1_655 S
C653 C655 1.387 . S
H654 C661 0.950 . S
C655 C653 1.387 . S
C655 C657 1.390 . S
C655 H659 0.950 . S
H656 C652 0.950 . S
C657 C655 1.390 . S
C657 C658 1.387 1_655 S
C657 H660 0.950 . S
C658 C657 1.387 1_455 S
C658 C661 1.387 . S
H659 C655 0.950 . S
H660 C657 0.950 . S
C661 C652 1.390 . S
C661 H654 0.950 . S
C661 C658 1.387 . S
C662 C663 1.387 . S
C662 H666 0.950 . S
C662 C671 1.390 . S
C663 C662 1.387 . S
C663 C665 1.387 . S
H664 C671 0.950 . S
C665 C663 1.387 . S
C665 C667 1.390 . S
C665 H669 0.950 . S
H666 C662 0.950 . S
C667 C665 1.390 . S
C667 C668 1.387 . S
C667 H670 0.950 . S
C668 C667 1.387 . S
C668 C671 1.387 . S
H669 C665 0.950 . S
H670 C667 0.950 . S
C671 C662 1.390 . S
C671 H664 0.950 . S
C671 C668 1.387 . S
C433 C4 0.917 . S
C438 C254 0.906 . S
C443 C40 0.902 1_556 S
C448 C290 0.907 . S
C453 C86 0.956 . S
C458 C218 0.956 . S
C463 C398 0.956 . S
C468 C122 0.956 . S
C473 C148 0.898 . S
C478 C326 0.906 . S
C483 C362 0.906 . S
C488 C184 0.912 . S
C493 C38 0.876 . S
C498 C220 0.871 . S
C503 C256 0.862 . S
C508 C75 0.871 . S
C513 C2 0.954 . S
C518 C292 0.950 1_554 S
C523 C328 0.947 . S
C528 C182 0.954 . S
C533 C364 0.862 . S
C538 C111 0.871 . S
C543 C146 0.876 . S
C548 C400 0.870 . S
C553 C194 1.517 . S
C558 C14 1.517 . S
C563 C50 1.481 . S
C568 C112 1.600 . S
C573 C76 1.600 . S
C578 C158 1.481 . S
C583 C230 1.510 . S
C588 C410 1.510 . S
C593 C266 1.506 . S
C598 C338 1.508 . S
C603 C302 1.505 . S
C608 C374 1.507 . S
C613 C3 1.680 . S
C618 C219 1.681 . S
C623 C39 1.688 . S
C628 C255 1.683 . S
C633 C74 1.690 . S
C638 C291 1.731 . S
C643 C110 1.687 . S
C648 C327 1.728 . S
C653 C363 1.683 . S
C658 C147 1.688 . S
C663 C183 1.679 . S
C668 C399 1.679 . S
