# Generated by pormake.
# Topology wla, (5)-cn, num edge types: 1
# Building blocks:
#     Node 0, Type 0, BuildingBlock: XOMCOT_clean_sbu_0, # of connection points: 5
#     Node 1, Type 0, BuildingBlock: XOMCOT_clean_sbu_0, # of connection points: 5
#     Node 2, Type 0, BuildingBlock: XOMCOT_clean_sbu_0, # of connection points: 5
#     Node 3, Type 0, BuildingBlock: XOMCOT_clean_sbu_0, # of connection points: 5
#     Node 4, Type 0, BuildingBlock: XOMCOT_clean_sbu_0, # of connection points: 5
#     Node 5, Type 0, BuildingBlock: XOMCOT_clean_sbu_0, # of connection points: 5
#     Node 6, Type 0, BuildingBlock: XOMCOT_clean_sbu_0, # of connection points: 5
#     Node 7, Type 0, BuildingBlock: XOMCOT_clean_sbu_0, # of connection points: 5
#     Node 8, Type 0, BuildingBlock: XOMCOT_clean_sbu_0, # of connection points: 5
#     Node 9, Type 0, BuildingBlock: XOMCOT_clean_sbu_0, # of connection points: 5
#     Node 10, Type 0, BuildingBlock: XOMCOT_clean_sbu_0, # of connection points: 5
#     Node 11, Type 0, BuildingBlock: XOMCOT_clean_sbu_0, # of connection points: 5
#     Node 12, Type 0, BuildingBlock: XOMCOT_clean_sbu_0, # of connection points: 5
#     Node 13, Type 0, BuildingBlock: XOMCOT_clean_sbu_0, # of connection points: 5
#     Node 14, Type 0, BuildingBlock: XOMCOT_clean_sbu_0, # of connection points: 5
#     Node 15, Type 0, BuildingBlock: XOMCOT_clean_sbu_0, # of connection points: 5
#     Node 16, Type 0, BuildingBlock: XOMCOT_clean_sbu_0, # of connection points: 5
#     Node 17, Type 0, BuildingBlock: XOMCOT_clean_sbu_0, # of connection points: 5
#     Edge 18, Type (0, 0), BuildingBlock: UVAHIK_clean_linker_0, # of connection points: 2
#     Edge 19, Type (0, 0), BuildingBlock: UVAHIK_clean_linker_0, # of connection points: 2
#     Edge 20, Type (0, 0), BuildingBlock: UVAHIK_clean_linker_0, # of connection points: 2
#     Edge 21, Type (0, 0), BuildingBlock: UVAHIK_clean_linker_0, # of connection points: 2
#     Edge 22, Type (0, 0), BuildingBlock: UVAHIK_clean_linker_0, # of connection points: 2
#     Edge 23, Type (0, 0), BuildingBlock: UVAHIK_clean_linker_0, # of connection points: 2
#     Edge 24, Type (0, 0), BuildingBlock: UVAHIK_clean_linker_0, # of connection points: 2
#     Edge 25, Type (0, 0), BuildingBlock: UVAHIK_clean_linker_0, # of connection points: 2
#     Edge 26, Type (0, 0), BuildingBlock: UVAHIK_clean_linker_0, # of connection points: 2
#     Edge 27, Type (0, 0), BuildingBlock: UVAHIK_clean_linker_0, # of connection points: 2
#     Edge 28, Type (0, 0), BuildingBlock: UVAHIK_clean_linker_0, # of connection points: 2
#     Edge 29, Type (0, 0), BuildingBlock: UVAHIK_clean_linker_0, # of connection points: 2
#     Edge 30, Type (0, 0), BuildingBlock: UVAHIK_clean_linker_0, # of connection points: 2
#     Edge 31, Type (0, 0), BuildingBlock: UVAHIK_clean_linker_0, # of connection points: 2
#     Edge 32, Type (0, 0), BuildingBlock: UVAHIK_clean_linker_0, # of connection points: 2
#     Edge 33, Type (0, 0), BuildingBlock: UVAHIK_clean_linker_0, # of connection points: 2
#     Edge 34, Type (0, 0), BuildingBlock: UVAHIK_clean_linker_0, # of connection points: 2
#     Edge 35, Type (0, 0), BuildingBlock: UVAHIK_clean_linker_0, # of connection points: 2
#     Edge 36, Type (0, 0), BuildingBlock: UVAHIK_clean_linker_0, # of connection points: 2
#     Edge 37, Type (0, 0), BuildingBlock: UVAHIK_clean_linker_0, # of connection points: 2
#     Edge 38, Type (0, 0), BuildingBlock: UVAHIK_clean_linker_0, # of connection points: 2
#     Edge 39, Type (0, 0), BuildingBlock: UVAHIK_clean_linker_0, # of connection points: 2
#     Edge 40, Type (0, 0), BuildingBlock: UVAHIK_clean_linker_0, # of connection points: 2
#     Edge 41, Type (0, 0), BuildingBlock: UVAHIK_clean_linker_0, # of connection points: 2
#     Edge 42, Type (0, 0), BuildingBlock: UVAHIK_clean_linker_0, # of connection points: 2
#     Edge 43, Type (0, 0), BuildingBlock: UVAHIK_clean_linker_0, # of connection points: 2
#     Edge 44, Type (0, 0), BuildingBlock: UVAHIK_clean_linker_0, # of connection points: 2
#     Edge 45, Type (0, 0), BuildingBlock: UVAHIK_clean_linker_0, # of connection points: 2
#     Edge 46, Type (0, 0), BuildingBlock: UVAHIK_clean_linker_0, # of connection points: 2
#     Edge 47, Type (0, 0), BuildingBlock: UVAHIK_clean_linker_0, # of connection points: 2
#     Edge 48, Type (0, 0), BuildingBlock: UVAHIK_clean_linker_0, # of connection points: 2
#     Edge 49, Type (0, 0), BuildingBlock: UVAHIK_clean_linker_0, # of connection points: 2
#     Edge 50, Type (0, 0), BuildingBlock: UVAHIK_clean_linker_0, # of connection points: 2
#     Edge 51, Type (0, 0), BuildingBlock: UVAHIK_clean_linker_0, # of connection points: 2
#     Edge 52, Type (0, 0), BuildingBlock: UVAHIK_clean_linker_0, # of connection points: 2
#     Edge 53, Type (0, 0), BuildingBlock: UVAHIK_clean_linker_0, # of connection points: 2
#     Edge 54, Type (0, 0), BuildingBlock: UVAHIK_clean_linker_0, # of connection points: 2
#     Edge 55, Type (0, 0), BuildingBlock: UVAHIK_clean_linker_0, # of connection points: 2
#     Edge 56, Type (0, 0), BuildingBlock: UVAHIK_clean_linker_0, # of connection points: 2
#     Edge 57, Type (0, 0), BuildingBlock: UVAHIK_clean_linker_0, # of connection points: 2
#     Edge 58, Type (0, 0), BuildingBlock: UVAHIK_clean_linker_0, # of connection points: 2
#     Edge 59, Type (0, 0), BuildingBlock: UVAHIK_clean_linker_0, # of connection points: 2
#     Edge 60, Type (0, 0), BuildingBlock: UVAHIK_clean_linker_0, # of connection points: 2
#     Edge 61, Type (0, 0), BuildingBlock: UVAHIK_clean_linker_0, # of connection points: 2
#     Edge 62, Type (0, 0), BuildingBlock: UVAHIK_clean_linker_0, # of connection points: 2
# Relax obj value: 0.273
# Max RMSD: 0.258
# Mean RMSD: 0.258
data_MOF--net-wla--node1-XOMCOT_clean_sbu_0--edge1-UVAHIK_clean_linker_0
_symmetry_space_group_name_H-M    P1
_symmetry_Int_Tables_number       1
_symmetry_cell_setting            triclinic
loop_
_symmetry_equiv_pos_as_xyz
'x, y, z'
_cell_length_a     73.39162
_cell_length_b     73.432526
_cell_length_c     39.688913
_cell_angle_alpha  90.00245
_cell_angle_beta   89.951545
_cell_angle_gamma 120.02359
loop_
_atom_site_label
_atom_site_type_symbol
_atom_site_fract_x
_atom_site_fract_y
_atom_site_fract_z
_atom_type_partial_charge
Co0 Co 0.17551 0.0336 0.24307 0.0
C1 C 0.21919 0.06349 0.22367 0.0
C2 C 0.19995 0.0779 0.22263 0.0
C3 C 0.21997 0.0925 0.2124 0.0
N4 N 0.19958 0.05981 0.22975 0.0
N5 N 0.23204 0.08339 0.21297 0.0
H6 H 0.22368 0.05159 0.22611 0.0
H7 H 0.18655 0.08023 0.22416 0.0
C8 C 0.152 0.04511 0.29266 0.0
O9 O 0.14783 0.0286 0.31107 0.0
N10 N 0.15078 0.00719 0.25585 0.0
C11 C 0.14904 0.99104 0.27468 0.0
C12 C 0.12807 0.97668 0.27941 0.0
C13 C 0.13075 0.00202 0.24875 0.0
N14 N 0.11666 0.98365 0.26314 0.0
C15 C 0.19879 0.02011 0.28418 0.0
C16 C 0.20669 0.04791 0.33645 0.0
C17 C 0.21226 0.03234 0.34024 0.0
C18 C 0.2089 0.01881 0.3131 0.0
C19 C 0.19652 0.04855 0.30719 0.0
N20 N 0.19115 0.03366 0.2827 0.0
H21 H 0.19616 0.00947 0.26357 0.0
H22 H 0.19295 0.06104 0.30454 0.0
H23 H 0.16171 0.98952 0.28511 0.0
H24 H 0.12656 0.01202 0.23469 0.0
O25 O 0.18369 0.01875 0.21162 0.0
O26 O 0.16307 0.03196 0.19985 0.0
O27 O 0.16353 0.0496 0.2664 0.0
C28 C 0.17271 0.02223 0.18944 0.0
H29 H 0.22513 0.10855 0.20508 0.0
H30 H 0.12166 0.96225 0.29383 0.0
H31 H 0.20941 0.05906 0.3564 0.0
H32 H 0.21365 0.00704 0.31448 0.0
Co33 Co 0.98924 0.15703 0.22115 0.0
C34 C 0.95317 0.1636 0.20452 0.0
C35 C 0.95541 0.14165 0.17161 0.0
C36 C 0.93957 0.14485 0.16009 0.0
N37 N 0.96388 0.1533 0.1996 0.0
N38 N 0.93822 0.15863 0.18085 0.0
H39 H 0.95682 0.17538 0.22355 0.0
H40 H 0.96089 0.13201 0.15974 0.0
C41 C 0.95696 0.11194 0.22888 0.0
O42 O 0.94371 0.1182 0.23777 0.0
N43 N 0.0147 0.16084 0.24162 0.0
C44 C 0.02869 0.1777 0.25935 0.0
C45 C 0.04375 0.17365 0.27204 0.0
C46 C 0.02135 0.1468 0.24363 0.0
N47 N 0.03907 0.15417 0.26225 0.0
C48 C 0.98005 0.17664 0.27617 0.0
C49 C 0.97355 0.14641 0.32349 0.0
C50 C 0.97428 0.16493 0.33423 0.0
C51 C 0.9772 0.18003 0.30998 0.0
C52 C 0.97676 0.14381 0.28971 0.0
N53 N 0.97945 0.15854 0.26617 0.0
H54 H 0.98408 0.18925 0.25849 0.0
H55 H 0.97847 0.13051 0.28325 0.0
H56 H 0.02776 0.19178 0.26337 0.0
H57 H 0.01303 0.13127 0.23261 0.0
O58 O 0.0032 0.18654 0.20904 0.0
O59 O 0.00189 0.161 0.17737 0.0
O60 O 0.97627 0.12544 0.22325 0.0
C61 C 0.00781 0.1808 0.18077 0.0
H62 H 0.93011 0.13796 0.13777 0.0
H63 H 0.05706 0.18425 0.28738 0.0
H64 H 0.97144 0.13432 0.34127 0.0
H65 H 0.97856 0.19488 0.31723 0.0
Co66 Co 0.85976 0.83234 0.18565 0.0
C67 C 0.84935 0.78836 0.18373 0.0
C68 C 0.88281 0.80905 0.18502 0.0
C69 C 0.87876 0.78864 0.18216 0.0
N70 N 0.86432 0.80873 0.18603 0.0
N71 N 0.85771 0.77572 0.18109 0.0
H72 H 0.83267 0.78298 0.18323 0.0
H73 H 0.89814 0.82312 0.18506 0.0
C74 C 0.89315 0.86329 0.23271 0.0
O75 O 0.87906 0.86594 0.24905 0.0
N76 N 0.85545 0.85639 0.18445 0.0
C77 C 0.8373 0.85683 0.18532 0.0
C78 C 0.84185 0.87738 0.18352 0.0
C79 C 0.87064 0.87666 0.18034 0.0
N80 N 0.86288 0.8899 0.18065 0.0
C81 C 0.82338 0.81487 0.22903 0.0
C82 C 0.84399 0.81468 0.28706 0.0
C83 C 0.82291 0.80965 0.28929 0.0
C84 C 0.81237 0.80902 0.2595 0.0
C85 C 0.85435 0.82045 0.25604 0.0
N86 N 0.84453 0.82226 0.22808 0.0
H87 H 0.81481 0.8133 0.20619 0.0
H88 H 0.87042 0.82376 0.25474 0.0
H89 H 0.82169 0.8434 0.18639 0.0
H90 H 0.88708 0.88157 0.17692 0.0
O91 O 0.83678 0.8175 0.15405 0.0
O92 O 0.87025 0.83862 0.14036 0.0
O93 O 0.88768 0.85002 0.20865 0.0
C94 C 0.85105 0.82598 0.13058 0.0
H95 H 0.89039 0.78379 0.17941 0.0
H96 H 0.83045 0.8826 0.18478 0.0
H97 H 0.85269 0.81484 0.3092 0.0
H98 H 0.79578 0.80409 0.25973 0.0
Co99 Co 0.01503 0.17541 0.79748 0.0
C100 C 0.05108 0.21919 0.79713 0.0
C101 C 0.06063 0.19681 0.80909 0.0
C102 C 0.07761 0.21667 0.8134 0.0
N103 N 0.04405 0.19833 0.79802 0.0
N104 N 0.07153 0.23074 0.80606 0.0
H105 H 0.04117 0.22584 0.79266 0.0
H106 H 0.06007 0.18231 0.81603 0.0
C107 C 0.03864 0.15834 0.76078 0.0
O108 O 0.04696 0.17552 0.74232 0.0
N109 N 0.9863 0.15265 0.79822 0.0
C110 C 0.96907 0.15418 0.7922 0.0
C111 C 0.95192 0.13421 0.79019 0.0
C112 C 0.97948 0.13191 0.80017 0.0
N113 N 0.9585 0.1202 0.79498 0.0
C114 C 0.01086 0.19889 0.7423 0.0
C115 C 0.99699 0.16647 0.69618 0.0
C116 C 0.99789 0.18522 0.68662 0.0
C117 C 0.0051 0.20169 0.70993 0.0
C118 C 0.00315 0.16447 0.72844 0.0
N119 N 0.01056 0.18073 0.75094 0.0
H120 H 0.01428 0.21087 0.76078 0.0
H121 H 0.00101 0.14937 0.7357 0.0
H122 H 0.96916 0.16875 0.78778 0.0
H123 H 0.98979 0.12557 0.80425 0.0
O124 O 0.00664 0.1933 0.82054 0.0
O125 O 0.01678 0.17263 0.84524 0.0
O126 O 0.02495 0.15539 0.78328 0.0
C127 C 0.01051 0.18628 0.84816 0.0
H128 H 0.09275 0.22036 0.82361 0.0
H129 H 0.93608 0.1304 0.78377 0.0
H130 H 0.99124 0.15327 0.67899 0.0
H131 H 0.00534 0.21617 0.7037 0.0
Co132 Co 0.83279 0.85584 0.74525 0.0
C133 C 0.7884 0.84037 0.76685 0.0
C134 C 0.81104 0.8664 0.79624 0.0
C135 C 0.79148 0.85948 0.80998 0.0
N136 N 0.80913 0.85456 0.76903 0.0
N137 N 0.7773 0.84311 0.79151 0.0
H138 H 0.78157 0.82764 0.74896 0.0
H139 H 0.8258 0.87888 0.80599 0.0
C140 C 0.83642 0.89789 0.73594 0.0
O141 O 0.81602 0.88837 0.73066 0.0
N142 N 0.85669 0.85729 0.72269 0.0
C143 C 0.85684 0.84375 0.69992 0.0
C144 C 0.87728 0.85125 0.68937 0.0
C145 C 0.87686 0.87259 0.72609 0.0
N146 N 0.88978 0.86933 0.70596 0.0
C147 C 0.80393 0.82961 0.69382 0.0
C148 C 0.81963 0.85971 0.64368 0.0
C149 C 0.80543 0.83884 0.63477 0.0
C150 C 0.79709 0.82376 0.66056 0.0
C151 C 0.82648 0.86473 0.67681 0.0
N152 N 0.81855 0.84989 0.70172 0.0
H153 H 0.79859 0.81743 0.7127 0.0
H154 H 0.83944 0.88029 0.68136 0.0
H155 H 0.8431 0.8295 0.6915 0.0
H156 H 0.88193 0.88598 0.74266 0.0
O157 O 0.82385 0.82741 0.76039 0.0
O158 O 0.84551 0.85674 0.78783 0.0
O159 O 0.84562 0.88718 0.74006 0.0
C160 C 0.83535 0.83634 0.78692 0.0
H161 H 0.78799 0.8658 0.83212 0.0
H162 H 0.88258 0.84383 0.67135 0.0
H163 H 0.82643 0.87204 0.62489 0.0
H164 H 0.78644 0.80734 0.65494 0.0
Co165 Co 0.14489 0.98251 0.77996 0.0
C166 C 0.15428 0.94851 0.78941 0.0
C167 C 0.12094 0.93647 0.78744 0.0
C168 C 0.12442 0.91993 0.79299 0.0
N169 N 0.1397 0.95429 0.78513 0.0
N170 N 0.1454 0.92761 0.79439 0.0
H171 H 0.17105 0.95947 0.78916 0.0
H172 H 0.10581 0.9356 0.78606 0.0
C173 C 0.11244 0.97807 0.72912 0.0
O174 O 0.1268 0.99409 0.71179 0.0
N175 N 0.14974 0.01094 0.77544 0.0
C176 C 0.16805 0.02918 0.77158 0.0
C177 C 0.1639 0.04548 0.77015 0.0
C178 C 0.13488 0.0166 0.77782 0.0
N179 N 0.14302 0.03752 0.77387 0.0
C180 C 0.18216 0.99771 0.73945 0.0
C181 C 0.16251 0.97516 0.6821 0.0
C182 C 0.18409 0.98997 0.68071 0.0
C183 C 0.19404 0.00071 0.71037 0.0
C184 C 0.15132 0.97252 0.71188 0.0
N185 N 0.16081 0.98504 0.73919 0.0
H186 H 0.19024 0.00554 0.76224 0.0
H187 H 0.13496 0.96045 0.71272 0.0
H188 H 0.18351 0.03096 0.77074 0.0
H189 H 0.11835 0.00554 0.78179 0.0
O190 O 0.16731 0.99225 0.81282 0.0
O191 O 0.13375 0.98104 0.82438 0.0
O192 O 0.11748 0.97133 0.75513 0.0
C193 C 0.15282 0.98811 0.8353 0.0
H194 H 0.11247 0.90366 0.79689 0.0
H195 H 0.17545 0.06197 0.76718 0.0
H196 H 0.15412 0.96602 0.66021 0.0
H197 H 0.21087 0.0114 0.71115 0.0
Co198 Co 0.83598 0.34669 0.55906 0.0
C199 C 0.87947 0.38286 0.54588 0.0
C200 C 0.85507 0.38706 0.52427 0.0
C201 C 0.87417 0.40348 0.51406 0.0
N202 N 0.85833 0.37409 0.54428 0.0
N203 N 0.8894 0.40078 0.52779 0.0
H204 H 0.88766 0.37602 0.55823 0.0
H205 H 0.83976 0.38433 0.51664 0.0
C206 C 0.82824 0.37826 0.59294 0.0
O207 O 0.84841 0.3889 0.60012 0.0
N208 N 0.81333 0.31955 0.57251 0.0
C209 C 0.81462 0.30352 0.58655 0.0
C210 C 0.79455 0.28765 0.59423 0.0
C211 C 0.79268 0.3132 0.57123 0.0
N212 N 0.78087 0.29381 0.58444 0.0
C213 C 0.86692 0.3454 0.60163 0.0
C214 C 0.84716 0.34382 0.6617 0.0
C215 C 0.86485 0.34137 0.66202 0.0
C216 C 0.87505 0.34255 0.6317 0.0
C217 C 0.83981 0.34704 0.63124 0.0
N218 N 0.84984 0.34818 0.6016 0.0
H219 H 0.87366 0.34406 0.57826 0.0
H220 H 0.8251 0.34701 0.6315 0.0
H221 H 0.82912 0.30353 0.59141 0.0
H222 H 0.78647 0.3228 0.56164 0.0
O223 O 0.84792 0.33354 0.53152 0.0
O224 O 0.82423 0.342 0.51459 0.0
O225 O 0.8204 0.36039 0.57838 0.0
C226 C 0.83633 0.33433 0.50742 0.0
H227 H 0.87669 0.41617 0.49729 0.0
H228 H 0.79032 0.27274 0.60598 0.0
H229 H 0.83861 0.34246 0.68471 0.0
H230 H 0.88837 0.34001 0.63105 0.0
Co231 Co 0.65017 0.47844 0.55648 0.0
C232 C 0.61653 0.48649 0.53496 0.0
C233 C 0.60958 0.45528 0.52195 0.0
C234 C 0.59352 0.45815 0.51035 0.0
N235 N 0.62387 0.47303 0.53742 0.0
N236 N 0.59793 0.4778 0.51853 0.0
H237 H 0.62471 0.50229 0.54504 0.0
H238 H 0.61096 0.44138 0.51877 0.0
C239 C 0.63837 0.44088 0.60085 0.0
O240 O 0.65062 0.45308 0.62502 0.0
N241 N 0.67674 0.48331 0.57501 0.0
C242 C 0.69103 0.49896 0.59471 0.0
C243 C 0.70688 0.49483 0.60249 0.0
C244 C 0.68455 0.4703 0.57032 0.0
N245 N 0.70272 0.47682 0.58714 0.0
C246 C 0.65482 0.51045 0.60269 0.0
C247 C 0.62432 0.48442 0.64808 0.0
C248 C 0.6378 0.50553 0.65665 0.0
C249 C 0.65259 0.51881 0.6329 0.0
C250 C 0.62731 0.47668 0.61761 0.0
N251 N 0.64368 0.48932 0.5968 0.0
H252 H 0.66634 0.52093 0.58469 0.0
H253 H 0.61666 0.46046 0.6112 0.0
H254 H 0.6905 0.5126 0.60308 0.0
H255 H 0.67666 0.45592 0.55576 0.0
O256 O 0.66458 0.50414 0.53031 0.0
O257 O 0.65829 0.47271 0.51348 0.0
O258 O 0.63593 0.44874 0.57371 0.0
C259 C 0.66597 0.49254 0.50677 0.0
H260 H 0.57996 0.44681 0.49622 0.0
H261 H 0.72052 0.50442 0.618 0.0
H262 H 0.61223 0.47379 0.66537 0.0
H263 H 0.66276 0.5354 0.63808 0.0
Co264 Co 0.51626 0.15992 0.5595 0.0
C265 C 0.50507 0.11715 0.53864 0.0
C266 C 0.53443 0.14036 0.5169 0.0
C267 C 0.5298 0.12082 0.50524 0.0
N268 N 0.51891 0.13794 0.53781 0.0
N269 N 0.5114 0.10632 0.51911 0.0
H270 H 0.49046 0.11015 0.55268 0.0
H271 H 0.548 0.15531 0.51032 0.0
C272 C 0.55579 0.18289 0.60023 0.0
O273 O 0.54466 0.18265 0.62636 0.0
N274 N 0.51413 0.18275 0.58046 0.0
C275 C 0.49877 0.18263 0.59944 0.0
C276 C 0.50478 0.20298 0.60852 0.0
C277 C 0.52879 0.20328 0.57722 0.0
N278 N 0.52365 0.21588 0.59453 0.0
C279 C 0.48696 0.13503 0.61158 0.0
C280 C 0.51414 0.12639 0.64678 0.0
C281 C 0.49477 0.12127 0.66162 0.0
C282 C 0.4807 0.12488 0.64271 0.0
C283 C 0.51988 0.13697 0.61597 0.0
N284 N 0.50707 0.14287 0.60033 0.0
H285 H 0.4757 0.13692 0.59677 0.0
H286 H 0.53479 0.14064 0.60494 0.0
H287 H 0.48394 0.16914 0.60596 0.0
H288 H 0.54319 0.20886 0.56295 0.0
O289 O 0.48936 0.1498 0.53722 0.0
O290 O 0.52045 0.17381 0.51694 0.0
O291 O 0.54676 0.17391 0.57272 0.0
C292 C 0.50024 0.16242 0.51272 0.0
H293 H 0.53926 0.11751 0.48812 0.0
H294 H 0.49577 0.20794 0.62367 0.0
H295 H 0.52503 0.12264 0.65905 0.0
H296 H 0.46526 0.12067 0.65217 0.0
Co297 Co 0.69186 0.49849 0.0985 0.0
C298 C 0.72628 0.54319 0.10177 0.0
C299 C 0.73771 0.52156 0.10552 0.0
C300 C 0.75432 0.54153 0.11036 0.0
N301 N 0.72017 0.52258 0.09925 0.0
N302 N 0.7471 0.55514 0.10818 0.0
H303 H 0.7156 0.54924 0.10185 0.0
H304 H 0.73824 0.50718 0.10811 0.0
C305 C 0.71615 0.48781 0.04969 0.0
O306 O 0.72353 0.50654 0.03615 0.0
N307 N 0.66384 0.47445 0.09872 0.0
C308 C 0.64579 0.47502 0.09973 0.0
C309 C 0.62921 0.45497 0.0948 0.0
C310 C 0.65809 0.45415 0.09345 0.0
N311 N 0.637 0.44191 0.09069 0.0
C312 C 0.68194 0.52457 0.05624 0.0
C313 C 0.67081 0.49857 0.00061 0.0
C314 C 0.66852 0.51637 -0.00093 0.0
C315 C 0.67428 0.52955 0.02739 0.0
C316 C 0.67825 0.49411 0.0298 0.0
N317 N 0.68455 0.50741 0.05684 0.0
H318 H 0.68465 0.53391 0.07858 0.0
H319 H 0.67807 0.47936 0.0309 0.0
H320 H 0.64481 0.48916 0.10251 0.0
H321 H 0.66912 0.44861 0.09004 0.0
O322 O 0.68328 0.51225 0.13159 0.0
O323 O 0.6965 0.49159 0.143 0.0
O324 O 0.70265 0.48185 0.07354 0.0
C325 C 0.68934 0.50345 0.15411 0.0
H326 H 0.7703 0.54556 0.11617 0.0
H327 H 0.61275 0.45045 0.0937 0.0
H328 H 0.66658 0.48783 0.97954 0.0
H329 H 0.67213 0.5431 0.02776 0.0
Co330 Co 0.50639 0.18449 0.10715 0.0
C331 C 0.46138 0.17297 0.11116 0.0
C332 C 0.48208 0.2063 0.11175 0.0
C333 C 0.46187 0.20232 0.1166 0.0
N334 N 0.48178 0.18792 0.10724 0.0
N335 N 0.44891 0.18134 0.1164 0.0
H336 H 0.45581 0.15635 0.11244 0.0
H337 H 0.49615 0.22155 0.11354 0.0
C338 C 0.51803 0.22013 0.05882 0.0
O339 O 0.49971 0.20911 0.04388 0.0
N340 N 0.53098 0.18141 0.10798 0.0
C341 C 0.53142 0.16345 0.10354 0.0
C342 C 0.55202 0.16842 0.09889 0.0
C343 C 0.55121 0.19699 0.10673 0.0
N344 N 0.56435 0.1895 0.10087 0.0
C345 C 0.4808 0.14945 0.06296 0.0
C346 C 0.50772 0.16493 0.00839 0.0
C347 C 0.48934 0.14534 0.00548 0.0
C348 C 0.47577 0.13757 0.0333 0.0
C349 C 0.51211 0.1762 0.03833 0.0
N350 N 0.49835 0.16892 0.06481 0.0
H351 H 0.47108 0.14249 0.08481 0.0
H352 H 0.52705 0.19055 0.04044 0.0
H353 H 0.51764 0.14797 0.10171 0.0
H354 H 0.55611 0.21354 0.10781 0.0
O355 O 0.49251 0.16155 0.13921 0.0
O356 O 0.51224 0.19535 0.15214 0.0
O357 O 0.52311 0.21228 0.08331 0.0
C358 C 0.50044 0.17609 0.16237 0.0
H359 H 0.45726 0.21388 0.12217 0.0
H360 H 0.55745 0.1575 0.09327 0.0
H361 H 0.51881 0.17153 0.98774 0.0
H362 H 0.46179 0.12215 0.03258 0.0
Co363 Co 0.82438 0.31931 0.10129 0.0
C364 C 0.83091 0.28404 0.1177 0.0
C365 C 0.80152 0.27906 0.13746 0.0
C366 C 0.80419 0.26253 0.14741 0.0
N367 N 0.81831 0.29244 0.11888 0.0
N368 N 0.82261 0.26573 0.13471 0.0
H369 H 0.84619 0.2915 0.10568 0.0
H370 H 0.78852 0.28141 0.14391 0.0
C371 C 0.78666 0.30878 0.05723 0.0
O372 O 0.7985 0.32107 0.03276 0.0
N373 N 0.83017 0.3464 0.08412 0.0
C374 C 0.84719 0.36126 0.06754 0.0
C375 C 0.84362 0.37734 0.05875 0.0
C376 C 0.8169 0.35404 0.0862 0.0
N377 N 0.82446 0.37271 0.07026 0.0
C378 C 0.85714 0.32348 0.05747 0.0
C379 C 0.83195 0.29713 0.00701 0.0
C380 C 0.85382 0.3089 0.00169 0.0
C381 C 0.86645 0.32126 0.02839 0.0
C382 C 0.82335 0.29922 0.03721 0.0
N383 N 0.83578 0.3137 0.06071 0.0
H384 H 0.86729 0.33356 0.07715 0.0
H385 H 0.8067 0.28928 0.04126 0.0
H386 H 0.86125 0.36071 0.06183 0.0
H387 H 0.80182 0.34579 0.09878 0.0
O388 O 0.84967 0.33256 0.12841 0.0
O389 O 0.81822 0.32669 0.14456 0.0
O390 O 0.79478 0.30587 0.08363 0.0
C391 C 0.83785 0.33363 0.15184 0.0
H392 H 0.7935 0.24926 0.16279 0.0
H393 H 0.85418 0.39107 0.04415 0.0
H394 H 0.82133 0.28686 0.98781 0.0
H395 H 0.88345 0.32963 0.02677 0.0
Co396 Co 0.50063 0.68637 0.90113 0.0
C397 C 0.54489 0.71631 0.88008 0.0
C398 C 0.52198 0.71913 0.85051 0.0
C399 C 0.54153 0.73221 0.83704 0.0
N400 N 0.52406 0.70926 0.87767 0.0
N401 N 0.55587 0.73038 0.85566 0.0
H402 H 0.55191 0.71062 0.89796 0.0
H403 H 0.50713 0.71649 0.84062 0.0
C404 C 0.49609 0.72418 0.91142 0.0
O405 O 0.51649 0.7353 0.91656 0.0
N406 N 0.477 0.66341 0.92339 0.0
C407 C 0.4773 0.64964 0.94548 0.0
C408 C 0.45709 0.63662 0.95689 0.0
C409 C 0.45675 0.65851 0.92123 0.0
N410 N 0.44425 0.64225 0.94154 0.0
C411 C 0.52988 0.68953 0.95209 0.0
C412 C 0.51409 0.70342 0.00284 0.0
C413 C 0.52903 0.69759 0.01113 0.0
C414 C 0.53728 0.69098 0.98502 0.0
C415 C 0.50672 0.70116 0.96994 0.0
N416 N 0.5148 0.69463 0.9447 0.0
H417 H 0.53531 0.68289 0.93302 0.0
H418 H 0.49342 0.70328 0.96575 0.0
H419 H 0.49124 0.64923 0.95305 0.0
H420 H 0.45136 0.66698 0.90566 0.0
O421 O 0.51033 0.66759 0.88576 0.0
O422 O 0.48827 0.67468 0.85819 0.0
O423 O 0.48716 0.70431 0.90688 0.0
C424 C 0.49899 0.665 0.85907 0.0
H425 H 0.54491 0.74208 0.81501 0.0
H426 H 0.45218 0.62391 0.97484 0.0
H427 H 0.50727 0.70875 0.0219 0.0
H428 H 0.5484 0.68572 0.99014 0.0
Co429 Co 0.31356 0.82068 0.867 0.0
C430 C 0.27773 0.82796 0.86771 0.0
C431 C 0.26742 0.79502 0.86444 0.0
C432 C 0.25006 0.79751 0.86266 0.0
N433 N 0.28468 0.81413 0.86762 0.0
N434 N 0.2566 0.81825 0.86458 0.0
H435 H 0.28809 0.84483 0.8684 0.0
H436 H 0.26748 0.78036 0.86245 0.0
C437 C 0.31058 0.7865 0.9138 0.0
O438 O 0.32568 0.80013 0.93339 0.0
N439 N 0.34266 0.82692 0.86544 0.0
C440 C 0.36026 0.84567 0.86063 0.0
C441 C 0.37743 0.84285 0.8608 0.0
C442 C 0.34942 0.81287 0.86622 0.0
N443 N 0.37061 0.82216 0.86461 0.0
C444 C 0.33258 0.85526 0.91369 0.0
C445 C 0.3087 0.83331 0.96883 0.0
C446 C 0.32565 0.85376 0.97346 0.0
C447 C 0.33714 0.86505 0.94512 0.0
C448 C 0.30475 0.82415 0.9369 0.0
N449 N 0.31772 0.83455 0.91039 0.0
H450 H 0.34098 0.86442 0.89206 0.0
H451 H 0.29164 0.80839 0.93375 0.0
H452 H 0.36082 0.86042 0.85611 0.0
H453 H 0.33899 0.79608 0.86675 0.0
O454 O 0.32039 0.8442 0.83729 0.0
O455 O 0.31011 0.81151 0.82113 0.0
O456 O 0.30452 0.7925 0.88809 0.0
C457 C 0.31536 0.83065 0.81285 0.0
H458 H 0.23394 0.78502 0.85955 0.0
H459 H 0.39365 0.85522 0.85834 0.0
H460 H 0.2991 0.82411 0.98987 0.0
H461 H 0.34967 0.88125 0.94728 0.0
Co462 Co 0.18527 0.50683 0.8938 0.0
C463 C 0.17611 0.46406 0.87797 0.0
C464 C 0.20861 0.48669 0.86904 0.0
C465 C 0.20514 0.46707 0.86007 0.0
N466 N 0.1904 0.48466 0.88031 0.0
N467 N 0.18466 0.45287 0.86566 0.0
H468 H 0.15979 0.45752 0.88506 0.0
H469 H 0.22325 0.50143 0.86681 0.0
C470 C 0.22046 0.53305 0.94202 0.0
O471 O 0.20729 0.53432 0.96301 0.0
N472 N 0.18072 0.52972 0.90683 0.0
C473 C 0.16527 0.52981 0.92524 0.0
C474 C 0.17065 0.55038 0.93149 0.0
C475 C 0.19485 0.55017 0.90138 0.0
N476 N 0.18927 0.56307 0.91653 0.0
C477 C 0.14975 0.48057 0.93514 0.0
C478 C 0.17162 0.47626 0.9881 0.0
C479 C 0.14971 0.46746 0.99109 0.0
C480 C 0.13873 0.46902 0.96337 0.0
C481 C 0.18193 0.4872 0.95892 0.0
N482 N 0.1712 0.49065 0.93401 0.0
H483 H 0.14093 0.48184 0.91443 0.0
H484 H 0.19855 0.49286 0.95665 0.0
H485 H 0.15132 0.51623 0.93455 0.0
H486 H 0.20967 0.55548 0.88846 0.0
O487 O 0.16144 0.49571 0.86352 0.0
O488 O 0.19425 0.51954 0.85005 0.0
O489 O 0.21381 0.5218 0.91545 0.0
C490 C 0.17482 0.50768 0.84071 0.0
H491 H 0.21669 0.46369 0.84941 0.0
H492 H 0.16177 0.55558 0.94644 0.0
H493 H 0.18094 0.47525 0.00833 0.0
H494 H 0.12175 0.46164 0.96349 0.0
Co495 Co 0.34529 0.82993 0.43364 0.0
C496 C 0.38039 0.87287 0.45101 0.0
C497 C 0.37869 0.84895 0.48403 0.0
C498 C 0.39412 0.86818 0.49569 0.0
N499 N 0.37013 0.85186 0.4559 0.0
N500 N 0.39514 0.88314 0.47485 0.0
H501 H 0.37662 0.88075 0.43172 0.0
H502 H 0.3736 0.83387 0.49579 0.0
C503 C 0.37876 0.81867 0.42498 0.0
O504 O 0.39197 0.83857 0.41834 0.0
N505 N 0.32035 0.80801 0.41248 0.0
C506 C 0.30706 0.81051 0.39226 0.0
C507 C 0.29141 0.79097 0.38204 0.0
C508 C 0.31268 0.78713 0.41455 0.0
N509 N 0.29497 0.77628 0.39606 0.0
C510 C 0.35265 0.85936 0.38048 0.0
C511 C 0.36244 0.83892 0.33154 0.0
C512 C 0.35981 0.85584 0.32195 0.0
C513 C 0.3552 0.86634 0.34712 0.0
C514 C 0.35921 0.83214 0.36488 0.0
N515 N 0.35485 0.84257 0.38925 0.0
H516 H 0.34763 0.86676 0.39887 0.0
H517 H 0.35887 0.81761 0.3702 0.0
H518 H 0.30869 0.82549 0.38527 0.0
H519 H 0.31979 0.78007 0.42963 0.0
O520 O 0.33003 0.84392 0.44753 0.0
O521 O 0.33275 0.81969 0.47702 0.0
O522 O 0.35925 0.81231 0.42964 0.0
C523 C 0.32574 0.83277 0.47494 0.0
H524 H 0.40361 0.87099 0.51804 0.0
H525 H 0.27862 0.78791 0.36516 0.0
H526 H 0.36605 0.83026 0.31321 0.0
H527 H 0.35236 0.87906 0.34096 0.0
Co528 Co 0.16441 0.51394 0.43035 0.0
C529 C 0.12066 0.50557 0.44434 0.0
C530 C 0.14475 0.53519 0.46352 0.0
C531 C 0.12557 0.5322 0.47394 0.0
N532 N 0.14173 0.51852 0.44489 0.0
N533 N 0.11052 0.51361 0.46172 0.0
H534 H 0.11269 0.49013 0.4333 0.0
H535 H 0.15999 0.54833 0.47008 0.0
C536 C 0.17072 0.55201 0.39356 0.0
O537 O 0.15049 0.54194 0.3867 0.0
N538 N 0.18742 0.51001 0.41697 0.0
C539 C 0.18656 0.49219 0.40626 0.0
C540 C 0.20658 0.49684 0.39714 0.0
C541 C 0.20775 0.52511 0.41465 0.0
N542 N 0.21983 0.51755 0.40245 0.0
C543 C 0.13328 0.48027 0.38981 0.0
C544 C 0.15145 0.4977 0.32849 0.0
C545 C 0.13362 0.47768 0.3293 0.0
C546 C 0.12434 0.46892 0.36027 0.0
C547 C 0.15961 0.50863 0.35846 0.0
N548 N 0.15018 0.50024 0.38868 0.0
H549 H 0.12715 0.47254 0.41364 0.0
H550 H 0.17427 0.52332 0.35728 0.0
H551 H 0.17236 0.47702 0.40467 0.0
H552 H 0.21347 0.54142 0.42096 0.0
O553 O 0.15357 0.48961 0.45959 0.0
O554 O 0.17679 0.52246 0.47424 0.0
O555 O 0.17894 0.54269 0.40917 0.0
C556 C 0.16536 0.50281 0.48272 0.0
H557 H 0.12288 0.54262 0.4898 0.0
H558 H 0.21102 0.48583 0.38747 0.0
H559 H 0.15936 0.50461 0.30491 0.0
H560 H 0.11098 0.45311 0.36172 0.0
Co561 Co 0.47608 0.63488 0.45343 0.0
C562 C 0.48706 0.60167 0.45546 0.0
C563 C 0.45383 0.58899 0.46205 0.0
C564 C 0.4582 0.57286 0.46486 0.0
N565 N 0.47197 0.60695 0.45608 0.0
N566 N 0.47913 0.58089 0.46082 0.0
H567 H 0.50354 0.61297 0.45161 0.0
H568 H 0.43866 0.58784 0.46522 0.0
C569 C 0.4427 0.63057 0.40434 0.0
O570 O 0.45593 0.64853 0.38994 0.0
N571 N 0.47995 0.66304 0.45158 0.0
C572 C 0.49795 0.68163 0.44846 0.0
C573 C 0.49334 0.69758 0.44983 0.0
C574 C 0.46479 0.6681 0.45625 0.0
N575 N 0.47244 0.68908 0.45458 0.0
C576 C 0.51356 0.6526 0.41276 0.0
C577 C 0.49418 0.63283 0.35342 0.0
C578 C 0.51546 0.64855 0.3526 0.0
C579 C 0.52537 0.65784 0.38309 0.0
C580 C 0.48303 0.62814 0.38368 0.0
N581 N 0.49231 0.63933 0.41225 0.0
H582 H 0.52155 0.65946 0.43612 0.0
H583 H 0.46686 0.6156 0.38383 0.0
H584 H 0.51355 0.68389 0.44621 0.0
H585 H 0.44848 0.6566 0.46103 0.0
O586 O 0.49837 0.64407 0.48657 0.0
O587 O 0.46456 0.63178 0.4979 0.0
O588 O 0.44868 0.62326 0.42842 0.0
C589 C 0.4836 0.63895 0.50897 0.0
H590 H 0.44691 0.55665 0.47075 0.0
H591 H 0.50459 0.71417 0.44718 0.0
H592 H 0.48594 0.62475 0.3307 0.0
H593 H 0.54202 0.66927 0.38395 0.0
C594 C 0.12353 0.0494 0.31972 0.0
C595 C 0.14202 0.05778 0.30035 0.0
C596 C 0.11249 0.06029 0.3227 0.0
C597 C 0.11661 0.11221 0.30975 0.0
H598 H 0.05731 0.07934 0.28741 0.0
C599 C 0.06311 0.14898 0.29965 0.0
C600 C 0.05012 0.14318 0.27098 0.0
C601 C 0.07383 0.13835 0.30804 0.0
C602 C 0.07384 0.08871 0.29373 0.0
H603 H 0.16415 0.08465 0.2707 0.0
H604 H 0.145 0.1036 0.276 0.0
H605 H 0.07771 0.06171 0.29533 0.0
H606 H 0.03842 0.12166 0.22858 0.0
H607 H 0.05696 0.10309 0.24337 0.0
H608 H 0.1129 0.13929 0.30693 0.0
C609 C 0.13898 0.08867 0.28887 0.0
C610 C 0.08546 0.0786 0.29867 0.0
C611 C 0.14987 0.07773 0.28563 0.0
C612 C 0.048 0.12638 0.25109 0.0
C613 C 0.05862 0.1157 0.25959 0.0
C614 C 0.10496 0.12231 0.305 0.0
C615 C 0.1199 0.07984 0.30671 0.0
C616 C 0.10706 0.09029 0.30603 0.0
C617 C 0.0717 0.12161 0.28809 0.0
C618 C 0.08356 0.11071 0.29623 0.0
H619 H 0.11707 0.03404 0.33128 0.0
H620 H 0.09791 0.05321 0.33686 0.0
H621 H 0.1332 0.1216 0.31564 0.0
H622 H 0.06486 0.16157 0.31592 0.0
H623 H 0.08363 0.14312 0.33036 0.0
C624 C 0.89601 0.92368 0.18963 0.0
C625 C 0.87459 0.91263 0.18058 0.0
C626 C 0.9069 0.94563 0.1919 0.0
C627 C 0.90316 0.99296 0.16899 0.0
H628 H 0.94173 0.01853 0.24381 0.0
C629 C 0.92755 0.07535 0.21936 0.0
C630 C 0.94918 0.0893 0.2237 0.0
C631 C 0.92009 0.05416 0.21239 0.0
C632 C 0.93117 0.0116 0.22261 0.0
H633 H 0.84819 0.91635 0.16563 0.0
H634 H 0.86678 0.95425 0.171 0.0
H635 H 0.9257 0.98078 0.23384 0.0
H636 H 0.97995 0.09191 0.22494 0.0
H637 H 0.96672 0.05453 0.21353 0.0
H638 H 0.90799 0.02371 0.15881 0.0
C639 C 0.87535 0.94606 0.17574 0.0
C640 C 0.92204 0.98999 0.21675 0.0
C641 C 0.86454 0.92417 0.17313 0.0
C642 C 0.96319 0.08152 0.22166 0.0
C643 C 0.95565 0.06018 0.21522 0.0
C644 C 0.91204 0.01446 0.17517 0.0
C645 C 0.89662 0.95709 0.18547 0.0
C646 C 0.90767 0.98033 0.19013 0.0
C647 C 0.93405 0.04639 0.2101 0.0
C648 C 0.92591 0.02392 0.20228 0.0
H649 H 0.90432 0.91544 0.19588 0.0
H650 H 0.92335 0.95358 0.19897 0.0
H651 H 0.89259 0.98621 0.14778 0.0
H652 H 0.91636 0.08087 0.22063 0.0
H653 H 0.90333 0.04379 0.2089 0.0
C654 C 0.92304 0.88635 0.27123 0.0
C655 C 0.91578 0.8772 0.2394 0.0
C656 C 0.94463 0.89957 0.2769 0.0
C657 C 0.99332 0.9362 0.23656 0.0
H658 H 0.02233 0.91808 0.29761 0.0
C659 C 0.08351 0.97345 0.23327 0.0
C660 C 0.09414 0.97399 0.26289 0.0
C661 C 0.06152 0.96318 0.2327 0.0
C662 C 0.01454 0.92374 0.28102 0.0
H663 H 0.92522 0.87512 0.18836 0.0
H664 H 0.96273 0.89867 0.19809 0.0
H665 H 0.98407 0.89787 0.29364 0.0
H666 H 0.09043 0.96523 0.31553 0.0
H667 H 0.05215 0.94816 0.31523 0.0
H668 H 0.02347 0.96227 0.22422 0.0
C669 C 0.95179 0.89535 0.21869 0.0
C670 C 0.99261 0.91205 0.27872 0.0
C671 C 0.93038 0.88178 0.21325 0.0
C672 C 0.0825 0.96468 0.29224 0.0
C673 C 0.06055 0.95481 0.29193 0.0
C674 C 0.01521 0.94817 0.23936 0.0
C675 C 0.9591 0.90425 0.25055 0.0
C676 C 0.98191 0.91797 0.256 0.0
C677 C 0.0497 0.95361 0.26202 0.0
C678 C 0.0262 0.94187 0.26109 0.0
H679 H 0.9121 0.88308 0.29177 0.0
H680 H 0.95002 0.9063 0.30169 0.0
H681 H 0.98529 0.94107 0.21897 0.0
H682 H 0.09221 0.98042 0.2103 0.0
H683 H 0.05386 0.96229 0.20899 0.0
C684 C 0.13969 0.06741 0.75318 0.0
C685 C 0.13172 0.04886 0.77226 0.0
C686 C 0.1287 0.07833 0.75107 0.0
C687 C 0.07598 0.07245 0.76349 0.0
H688 H 0.10778 0.13342 0.76503 0.0
C689 C 0.03828 0.12528 0.7779 0.0
C690 C 0.0469 0.14368 0.75824 0.0
C691 C 0.04754 0.11262 0.77809 0.0
C692 C 0.09869 0.1164 0.76417 0.0
H693 H 0.10597 0.0273 0.80432 0.0
H694 H 0.08684 0.04651 0.80101 0.0
H695 H 0.12619 0.11369 0.76948 0.0
H696 H 0.07144 0.16271 0.72229 0.0
H697 H 0.08748 0.14061 0.7226 0.0
H698 H 0.04842 0.07532 0.75867 0.0
C699 C 0.10145 0.05242 0.78718 0.0
C700 C 0.10924 0.10507 0.7667 0.0
C701 C 0.11243 0.04143 0.78915 0.0
C702 C 0.06445 0.14871 0.73785 0.0
C703 C 0.07375 0.13613 0.73818 0.0
C704 C 0.06539 0.08382 0.76113 0.0
C705 C 0.10949 0.07104 0.76815 0.0
C706 C 0.09805 0.08296 0.76619 0.0
C707 C 0.06564 0.11818 0.75878 0.0
C708 C 0.07666 0.10592 0.76123 0.0
H709 H 0.15427 0.07333 0.7393 0.0
H710 H 0.13515 0.09235 0.73562 0.0
H711 H 0.0669 0.05544 0.7626 0.0
H712 H 0.02471 0.12091 0.79382 0.0
H713 H 0.04098 0.09892 0.79432 0.0
C714 C 0.9559 0.08588 0.78276 0.0
C715 C 0.94618 0.09766 0.79093 0.0
C716 C 0.94386 0.06429 0.77678 0.0
C717 C 0.89067 0.01799 0.78932 0.0
H718 H 0.90789 0.99448 0.71676 0.0
C719 C 0.83859 0.93285 0.74197 0.0
C720 C 0.84876 0.92105 0.73848 0.0
C721 C 0.85027 0.95457 0.7472 0.0
C722 C 0.90297 0.00082 0.73721 0.0
H723 H 0.91606 0.09561 0.80022 0.0
H724 H 0.89509 0.05815 0.78873 0.0
H725 H 0.92866 0.03195 0.72922 0.0
H726 H 0.87918 0.92284 0.73671 0.0
H727 H 0.89953 0.96076 0.74554 0.0
H728 H 0.86482 0.98681 0.79695 0.0
C729 C 0.91206 0.06558 0.78736 0.0
C730 C 0.9149 0.02226 0.74448 0.0
C731 C 0.92411 0.08716 0.79357 0.0
C732 C 0.87087 0.93149 0.73935 0.0
C733 C 0.88254 0.95321 0.74426 0.0
C734 C 0.87864 0.99658 0.78186 0.0
C735 C 0.92179 0.05391 0.77858 0.0
C736 C 0.90897 0.0311 0.77075 0.0
C737 C 0.87235 0.96492 0.7487 0.0
C738 C 0.88473 0.98777 0.75583 0.0
H739 H 0.97279 0.09332 0.78013 0.0
H740 H 0.95191 0.05574 0.77065 0.0
H741 H 0.8858 0.02419 0.81004 0.0
H742 H 0.82158 0.92527 0.74149 0.0
H743 H 0.84203 0.96326 0.7502 0.0
C744 C 0.07481 0.9585 0.74607 0.0
C745 C 0.08994 0.96867 0.72069 0.0
C746 C 0.0535 0.95011 0.73916 0.0
C747 C 0.01351 0.92467 0.679 0.0
H748 H 0.98236 0.94482 0.73094 0.0
C749 C 0.92259 0.88424 0.67261 0.0
C750 C 0.91226 0.88231 0.70333 0.0
C751 C 0.94447 0.89688 0.67023 0.0
C752 C 0.99075 0.93887 0.7164 0.0
H753 H 0.09467 0.97775 0.66804 0.0
H754 H 0.05688 0.96219 0.65563 0.0
H755 H 0.02065 0.96303 0.73465 0.0
H756 H 0.91667 0.89169 0.75575 0.0
H757 H 0.95472 0.91316 0.75207 0.0
H758 H 0.98369 0.89966 0.66244 0.0
C759 C 0.0618 0.96115 0.68093 0.0
C760 C 0.01266 0.94946 0.71829 0.0
C761 C 0.0833 0.97002 0.68804 0.0
C762 C 0.92419 0.89318 0.73163 0.0
C763 C 0.94602 0.90558 0.7294 0.0
C764 C 0.99152 0.91383 0.6775 0.0
C765 C 0.04683 0.95135 0.70661 0.0
C766 C 0.02415 0.94218 0.70016 0.0
C767 C 0.95648 0.90767 0.69866 0.0
C768 C 0.97984 0.9205 0.6969 0.0
H769 H 0.07943 0.95733 0.77154 0.0
H770 H 0.04216 0.94249 0.75925 0.0
H771 H 0.02215 0.91873 0.66507 0.0
H772 H 0.91371 0.8762 0.65032 0.0
H773 H 0.95193 0.89831 0.64606 0.0
C774 C 0.71703 0.45614 0.56103 0.0
C775 C 0.71477 0.46633 0.5893 0.0
C776 C 0.72907 0.44626 0.56304 0.0
C777 C 0.74776 0.42082 0.62057 0.0
H778 H 0.79334 0.43659 0.55676 0.0
C779 C 0.79294 0.37545 0.59836 0.0
C780 C 0.815 0.38789 0.59837 0.0
C781 C 0.78044 0.38485 0.60005 0.0
C782 C 0.78068 0.43209 0.57476 0.0
H783 H 0.72268 0.47373 0.64196 0.0
H784 H 0.74339 0.456 0.64571 0.0
H785 H 0.77145 0.45302 0.55323 0.0
H786 H 0.84128 0.41985 0.6008 0.0
H787 H 0.81939 0.43624 0.60298 0.0
H788 H 0.75676 0.39954 0.64164 0.0
C789 C 0.73606 0.4559 0.62197 0.0
C790 C 0.76812 0.44136 0.57259 0.0
C791 C 0.7244 0.46615 0.61977 0.0
C792 C 0.82432 0.40985 0.60093 0.0
C793 C 0.81184 0.41924 0.60196 0.0
C794 C 0.76007 0.41122 0.62231 0.0
C795 C 0.73863 0.44603 0.59355 0.0
C796 C 0.75163 0.43587 0.59557 0.0
C797 C 0.78982 0.40684 0.6011 0.0
C798 C 0.77672 0.4169 0.59954 0.0
H799 H 0.70982 0.45617 0.53727 0.0
H800 H 0.73079 0.43867 0.54083 0.0
H801 H 0.73506 0.41631 0.63848 0.0
H802 H 0.78533 0.35848 0.59645 0.0
H803 H 0.76348 0.37499 0.59925 0.0
C804 C 0.62159 0.40532 0.57475 0.0
C805 C 0.62768 0.41776 0.60401 0.0
C806 C 0.61167 0.38348 0.57699 0.0
C807 C 0.57744 0.33911 0.62835 0.0
H808 H 0.59911 0.30927 0.57654 0.0
C809 C 0.53602 0.2482 0.62821 0.0
C810 C 0.53597 0.23837 0.59784 0.0
C811 C 0.54826 0.27004 0.63163 0.0
C812 C 0.59264 0.31729 0.59082 0.0
H813 H 0.628 0.4171 0.65859 0.0
H814 H 0.60987 0.37851 0.6625 0.0
H815 H 0.61854 0.34758 0.57789 0.0
H816 H 0.54827 0.24361 0.54703 0.0
H817 H 0.569 0.28171 0.55231 0.0
H818 H 0.55099 0.30902 0.63996 0.0
C819 C 0.61312 0.38588 0.6379 0.0
C820 C 0.60391 0.33923 0.5918 0.0
C821 C 0.6235 0.40788 0.63566 0.0
C822 C 0.54825 0.25079 0.57085 0.0
C823 C 0.56023 0.27263 0.57403 0.0
C824 C 0.56594 0.31713 0.62692 0.0
C825 C 0.60726 0.37355 0.60852 0.0
C826 C 0.59629 0.35033 0.61025 0.0
C827 C 0.5605 0.28258 0.60453 0.0
C828 C 0.57326 0.30592 0.60775 0.0
H829 H 0.6247 0.41247 0.54998 0.0
H830 H 0.60714 0.37429 0.554 0.0
H831 H 0.57117 0.34738 0.64249 0.0
H832 H 0.5269 0.23893 0.64955 0.0
H833 H 0.54831 0.27702 0.65568 0.0
C834 C 0.5896 0.19832 0.63273 0.0
C835 C 0.57898 0.19431 0.60179 0.0
C836 C 0.61164 0.20926 0.63364 0.0
C837 C 0.65738 0.24851 0.58879 0.0
H838 H 0.68815 0.22299 0.62597 0.0
C839 C 0.74562 0.28379 0.56307 0.0
C840 C 0.75837 0.28246 0.58809 0.0
C841 C 0.72378 0.27316 0.56677 0.0
C842 C 0.67988 0.23057 0.61605 0.0
H843 H 0.58297 0.19882 0.54767 0.0
H844 H 0.62134 0.21839 0.54948 0.0
H845 H 0.64979 0.20459 0.63015 0.0
H846 H 0.75847 0.26924 0.63675 0.0
H847 H 0.72032 0.25121 0.644 0.0
H848 H 0.68716 0.27468 0.5753 0.0
C849 C 0.61265 0.21285 0.57288 0.0
C850 C 0.65791 0.21996 0.61837 0.0
C851 C 0.59073 0.20157 0.57189 0.0
C852 C 0.74891 0.27029 0.61694 0.0
C853 C 0.72705 0.25993 0.62097 0.0
C854 C 0.67931 0.2593 0.587 0.0
C855 C 0.62328 0.21676 0.60371 0.0
C856 C 0.64651 0.2287 0.60421 0.0
C857 C 0.71418 0.26126 0.59594 0.0
C858 C 0.69086 0.2503 0.59998 0.0
H859 H 0.58091 0.19284 0.65613 0.0
H860 H 0.61958 0.21215 0.6577 0.0
H861 H 0.64886 0.25563 0.578 0.0
H862 H 0.75256 0.29285 0.54039 0.0
H863 H 0.71445 0.27414 0.54649 0.0
C864 C 0.79168 0.37458 0.06788 0.0
C865 C 0.81369 0.38436 0.06446 0.0
C866 C 0.78121 0.38571 0.0616 0.0
C867 C 0.79039 0.44001 0.0547 0.0
H868 H 0.73442 0.41164 0.01573 0.0
C869 C 0.74574 0.48405 0.02632 0.0
C870 C 0.72573 0.47485 0.04132 0.0
C871 C 0.75633 0.47273 0.02358 0.0
C872 C 0.75006 0.41974 0.02658 0.0
H873 H 0.84181 0.41376 0.05172 0.0
H874 H 0.82351 0.43285 0.03957 0.0
H875 H 0.75364 0.39267 0.02224 0.0
H876 H 0.70051 0.44616 0.0631 0.0
H877 H 0.71889 0.42633 0.05787 0.0
H878 H 0.78676 0.46708 0.0589 0.0
C879 C 0.81437 0.41665 0.04779 0.0
C880 C 0.76103 0.40887 0.03054 0.0
C881 C 0.82488 0.40558 0.05441 0.0
C882 C 0.71596 0.45371 0.05157 0.0
C883 C 0.72644 0.44231 0.04844 0.0
C884 C 0.77952 0.45093 0.05036 0.0
C885 C 0.7924 0.40687 0.05137 0.0
C886 C 0.78121 0.41877 0.04515 0.0
C887 C 0.74697 0.45192 0.03535 0.0
C888 C 0.75914 0.44082 0.03671 0.0
H889 H 0.78237 0.35823 0.07504 0.0
H890 H 0.76432 0.37773 0.06517 0.0
H891 H 0.80572 0.44808 0.06654 0.0
H892 H 0.75369 0.50032 0.01822 0.0
H893 H 0.77207 0.48041 0.01309 0.0
C894 C 0.60633 0.41149 0.06448 0.0
C895 C 0.62544 0.4199 0.08215 0.0
C896 C 0.59524 0.3902 0.05583 0.0
C897 C 0.60117 0.34318 0.04631 0.0
H898 H 0.54073 0.31266 0.05985 0.0
C899 C 0.55243 0.25353 0.06349 0.0
C900 C 0.53181 0.24262 0.05074 0.0
C901 C 0.56451 0.27534 0.06047 0.0
C902 C 0.55754 0.32101 0.05528 0.0
H903 H 0.64782 0.41249 0.10477 0.0
H904 H 0.62838 0.37529 0.09007 0.0
H905 H 0.56042 0.3505 0.06891 0.0
H906 H 0.50814 0.2459 0.02308 0.0
H907 H 0.52935 0.28414 0.01776 0.0
H908 H 0.59828 0.31349 0.03369 0.0
C909 C 0.62216 0.38524 0.08229 0.0
C910 C 0.56885 0.34271 0.06054 0.0
C911 C 0.63327 0.40655 0.09084 0.0
C912 C 0.52396 0.25387 0.03323 0.0
C913 C 0.53603 0.27576 0.03039 0.0
C914 C 0.58985 0.32145 0.04114 0.0
C915 C 0.60299 0.37681 0.06473 0.0
C916 C 0.59084 0.35401 0.05667 0.0
C917 C 0.55623 0.28676 0.04474 0.0
C918 C 0.56796 0.31008 0.04612 0.0
H919 H 0.60006 0.42141 0.05681 0.0
H920 H 0.58069 0.38429 0.04187 0.0
H921 H 0.61804 0.35149 0.04248 0.0
H922 H 0.559 0.24531 0.07692 0.0
H923 H 0.57995 0.28334 0.07202 0.0
C924 C 0.75237 0.29702 0.08531 0.0
C925 C 0.76358 0.29872 0.05566 0.0
C926 C 0.73046 0.28664 0.08513 0.0
C927 C 0.68567 0.2432 0.05082 0.0
H928 H 0.65439 0.27 0.08045 0.0
C929 C 0.59523 0.19583 0.06714 0.0
C930 C 0.58644 0.20176 0.09337 0.0
C931 C 0.61648 0.20836 0.05869 0.0
C932 C 0.66284 0.26215 0.07258 0.0
H933 H 0.76085 0.29116 0.00251 0.0
H934 H 0.72203 0.27198 0.00254 0.0
H935 H 0.69234 0.29112 0.07193 0.0
H936 H 0.59288 0.22508 0.13177 0.0
H937 H 0.6302 0.24645 0.11846 0.0
H938 H 0.65671 0.21404 0.05361 0.0
C939 C 0.73042 0.27912 0.02565 0.0
C940 C 0.68453 0.27434 0.06728 0.0
C941 C 0.75249 0.29007 0.02562 0.0
C942 C 0.59932 0.22029 0.1113 0.0
C943 C 0.62066 0.23261 0.10336 0.0
C944 C 0.66404 0.2309 0.05679 0.0
C945 C 0.7193 0.27733 0.05549 0.0
C946 C 0.69611 0.26493 0.05672 0.0
C947 C 0.62955 0.22693 0.07673 0.0
C948 C 0.65235 0.24016 0.06825 0.0
H949 H 0.7606 0.30369 0.10875 0.0
H950 H 0.72218 0.28533 0.10843 0.0
H951 H 0.69441 0.23561 0.04312 0.0
H952 H 0.58551 0.1818 0.05254 0.0
H953 H 0.62253 0.2036 0.03764 0.0
C954 C 0.40489 0.82317 0.86064 0.0
C955 C 0.38322 0.81216 0.86808 0.0
C956 C 0.41727 0.81388 0.86588 0.0
C957 C 0.41747 0.77001 0.91238 0.0
H958 H 0.46338 0.78146 0.85158 0.0
C959 C 0.46137 0.7229 0.91148 0.0
C960 C 0.48345 0.73471 0.90981 0.0
C961 C 0.44937 0.73272 0.90787 0.0
C962 C 0.45072 0.77828 0.86891 0.0
H963 H 0.35777 0.78235 0.88676 0.0
H964 H 0.37903 0.76601 0.89419 0.0
H965 H 0.44173 0.79744 0.84104 0.0
H966 H 0.51027 0.76607 0.9034 0.0
H967 H 0.48923 0.78316 0.89666 0.0
H968 H 0.42621 0.75035 0.93963 0.0
C969 C 0.38659 0.78207 0.88513 0.0
C970 C 0.43833 0.78748 0.86297 0.0
C971 C 0.37427 0.79142 0.88029 0.0
C972 C 0.49329 0.75656 0.90492 0.0
C973 C 0.48127 0.76633 0.90083 0.0
C974 C 0.42969 0.76061 0.91805 0.0
C975 C 0.4083 0.79324 0.87836 0.0
C976 C 0.42153 0.78346 0.88463 0.0
C977 C 0.45921 0.75448 0.90205 0.0
C978 C 0.44644 0.76468 0.8964 0.0
H979 H 0.41247 0.83905 0.85095 0.0
H980 H 0.43397 0.82309 0.86072 0.0
H981 H 0.40497 0.76688 0.93002 0.0
H982 H 0.45333 0.70603 0.91528 0.0
H983 H 0.43237 0.72321 0.90872 0.0
C984 C 0.29528 0.75032 0.89108 0.0
C985 C 0.30145 0.76373 0.91916 0.0
C986 C 0.28551 0.72862 0.8953 0.0
C987 C 0.25024 0.68689 0.94907 0.0
H988 H 0.2687 0.65334 0.89998 0.0
C989 C 0.20248 0.59575 0.94963 0.0
C990 C 0.20201 0.58555 0.91943 0.0
C991 C 0.21596 0.61743 0.95313 0.0
C992 C 0.26316 0.66242 0.91356 0.0
H993 H 0.3025 0.76512 0.97367 0.0
H994 H 0.2845 0.72667 0.98115 0.0
H995 H 0.29064 0.69154 0.90042 0.0
H996 H 0.21466 0.58997 0.86896 0.0
H997 H 0.23755 0.62785 0.87436 0.0
H998 H 0.2222 0.65802 0.96063 0.0
C999 C 0.28762 0.73317 0.95593 0.0
C1000 C 0.27587 0.68428 0.91408 0.0
C1001 C 0.29794 0.75506 0.95167 0.0
C1002 C 0.21492 0.59746 0.8926 0.0
C1003 C 0.22815 0.61914 0.89588 0.0
C1004 C 0.23733 0.66501 0.94812 0.0
C1005 C 0.2813 0.71983 0.9277 0.0
C1006 C 0.26935 0.6967 0.93135 0.0
C1007 C 0.22905 0.62941 0.92632 0.0
C1008 C 0.24344 0.65252 0.92976 0.0
H1009 H 0.29794 0.75663 0.86572 0.0
H1010 H 0.28063 0.71864 0.87317 0.0
H1011 H 0.2448 0.69621 0.96223 0.0
H1012 H 0.19291 0.58686 0.97088 0.0
H1013 H 0.21639 0.62469 0.97708 0.0
C1014 C 0.25194 0.55281 0.97968 0.0
C1015 C 0.24338 0.54569 0.94745 0.0
C1016 C 0.2738 0.56491 0.98395 0.0
C1017 C 0.32153 0.60175 0.94053 0.0
H1018 H 0.3514 0.58017 0.99233 0.0
C1019 C 0.40919 0.632 0.91884 0.0
C1020 C 0.42189 0.63297 0.94595 0.0
C1021 C 0.38747 0.62289 0.92288 0.0
C1022 C 0.34336 0.58671 0.97834 0.0
H1023 H 0.25087 0.54598 0.89444 0.0
H1024 H 0.28877 0.56746 0.90189 0.0
H1025 H 0.31295 0.56183 0.99379 0.0
H1026 H 0.42196 0.62562 -0.00124 0.0
H1027 H 0.38401 0.61013 0.00622 0.0
H1028 H 0.35163 0.62664 0.92502 0.0
C1029 C 0.27866 0.56348 0.92381 0.0
C1030 C 0.32135 0.57616 0.97918 0.0
C1031 C 0.25698 0.55108 0.91964 0.0
C1032 C 0.41247 0.62481 0.97734 0.0
C1033 C 0.39073 0.61593 0.98155 0.0
C1034 C 0.34348 0.61249 0.94009 0.0
C1035 C 0.28725 0.57047 0.95593 0.0
C1036 C 0.31031 0.5833 0.95954 0.0
C1037 C 0.37793 0.6148 0.95432 0.0
C1038 C 0.35469 0.60476 0.95814 0.0
H1039 H 0.24178 0.54885 0.00151 0.0
H1040 H 0.28018 0.57015 0.00896 0.0
H1041 H 0.31328 0.60761 0.92539 0.0
H1042 H 0.41601 0.63788 0.89426 0.0
H1043 H 0.37814 0.62185 0.90108 0.0
C1044 C 0.47109 0.72165 0.46406 0.0
C1045 C 0.46082 0.70014 0.45595 0.0
C1046 C 0.46032 0.73282 0.46309 0.0
C1047 C 0.41332 0.73109 0.42565 0.0
H1048 H 0.4282 0.77752 0.48709 0.0
C1049 C 0.37265 0.78189 0.42801 0.0
C1050 C 0.38662 0.80373 0.42798 0.0
C1051 C 0.38019 0.76791 0.43241 0.0
C1052 C 0.42393 0.76462 0.46973 0.0
H1053 H 0.43088 0.67344 0.4411 0.0
H1054 H 0.41189 0.69276 0.4406 0.0
H1055 H 0.44347 0.75501 0.49486 0.0
H1056 H 0.4194 0.82803 0.43242 0.0
H1057 H 0.43245 0.80364 0.4405 0.0
H1058 H 0.39359 0.74076 0.40081 0.0
C1059 C 0.42845 0.7011 0.44705 0.0
C1060 C 0.43272 0.75175 0.47406 0.0
C1061 C 0.43929 0.68993 0.44778 0.0
C1062 C 0.40824 0.81129 0.4322 0.0
C1063 C 0.41571 0.79736 0.43709 0.0
C1064 C 0.40431 0.74383 0.42159 0.0
C1065 C 0.4389 0.72275 0.45432 0.0
C1066 C 0.4279 0.73509 0.45165 0.0
C1067 C 0.40176 0.77555 0.43742 0.0
C1068 C 0.40988 0.76097 0.44319 0.0
H1069 H 0.48755 0.73001 0.47093 0.0
H1070 H 0.46902 0.74951 0.46839 0.0
H1071 H 0.4094 0.71858 0.40766 0.0
H1072 H 0.3559 0.77559 0.42476 0.0
H1073 H 0.36912 0.75115 0.43263 0.0
C1074 C 0.26117 0.74426 0.38289 0.0
C1075 C 0.2825 0.75377 0.39201 0.0
C1076 C 0.24905 0.72247 0.37909 0.0
C1077 C 0.2531 0.67462 0.36661 0.0
H1078 H 0.19642 0.64615 0.40291 0.0
C1079 C 0.20556 0.58528 0.39196 0.0
C1080 C 0.18377 0.57467 0.38582 0.0
C1081 C 0.21758 0.60708 0.38827 0.0
C1082 C 0.21209 0.65388 0.39215 0.0
H1083 H 0.30786 0.7477 0.40369 0.0
H1084 H 0.28659 0.70969 0.39799 0.0
H1085 H 0.21745 0.68433 0.40586 0.0
H1086 H 0.15769 0.57854 0.36955 0.0
H1087 H 0.17874 0.61664 0.36298 0.0
H1088 H 0.24781 0.64403 0.3536 0.0
C1089 C 0.2793 0.71913 0.39334 0.0
C1090 C 0.22417 0.67578 0.39386 0.0
C1091 C 0.29144 0.74094 0.39707 0.0
C1092 C 0.17442 0.58624 0.37459 0.0
C1093 C 0.18644 0.60807 0.37104 0.0
C1094 C 0.24103 0.65269 0.365 0.0
C1095 C 0.25794 0.70963 0.38439 0.0
C1096 C 0.24487 0.6864 0.38135 0.0
C1097 C 0.20807 0.61876 0.37846 0.0
C1098 C 0.22045 0.64208 0.37799 0.0
H1099 H 0.25368 0.75359 0.37909 0.0
H1100 H 0.2327 0.71569 0.37183 0.0
H1101 H 0.26887 0.68234 0.35623 0.0
H1102 H 0.21327 0.57683 0.40055 0.0
H1103 H 0.23417 0.61486 0.39443 0.0
C1104 C 0.40738 0.59815 0.40578 0.0
C1105 C 0.42038 0.61874 0.39388 0.0
C1106 C 0.38589 0.5874 0.39889 0.0
C1107 C 0.34267 0.5971 0.3801 0.0
H1108 H 0.31157 0.53645 0.36967 0.0
C1109 C 0.2552 0.54739 0.4149 0.0
C1110 C 0.24212 0.52936 0.39589 0.0
C1111 C 0.27682 0.55886 0.40872 0.0
C1112 C 0.31995 0.55342 0.37202 0.0
H1113 H 0.42112 0.64393 0.36431 0.0
H1114 H 0.38336 0.62497 0.35199 0.0
H1115 H 0.34982 0.5552 0.36696 0.0
H1116 H 0.24142 0.50954 0.35487 0.0
H1117 H 0.2792 0.52963 0.34389 0.0
H1118 H 0.31279 0.59531 0.38518 0.0
C1119 C 0.38988 0.61728 0.36698 0.0
C1120 C 0.34192 0.56415 0.37083 0.0
C1121 C 0.41151 0.62808 0.37384 0.0
C1122 C 0.25113 0.52317 0.3703 0.0
C1123 C 0.27277 0.53471 0.36398 0.0
C1124 C 0.32069 0.58637 0.38114 0.0
C1125 C 0.37679 0.59692 0.37987 0.0
C1126 C 0.35355 0.58603 0.37582 0.0
C1127 C 0.2859 0.55265 0.38324 0.0
C1128 C 0.30908 0.56434 0.37804 0.0
H1129 H 0.41369 0.59043 0.42117 0.0
H1130 H 0.37628 0.57189 0.40967 0.0
H1131 H 0.35113 0.61393 0.38421 0.0
H1132 H 0.24881 0.55241 0.4351 0.0
H1133 H 0.28648 0.57231 0.42455 0.0
C1134 C 0.41415 0.17889 0.11517 0.0
C1135 C 0.42679 0.17032 0.12428 0.0
C1136 C 0.39283 0.16861 0.12373 0.0
C1137 C 0.35522 0.13135 0.18486 0.0
H1138 H 0.31323 0.12618 0.12035 0.0
C1139 C 0.26621 0.08425 0.2142 0.0
C1140 C 0.2538 0.09268 0.20291 0.0
C1141 C 0.2872 0.09309 0.20408 0.0
C1142 C 0.32478 0.12771 0.13881 0.0
H1143 H 0.42703 0.1443 0.14971 0.0
H1144 H 0.38974 0.12628 0.16454 0.0
H1145 H 0.35006 0.14275 0.10335 0.0
H1146 H 0.25392 0.11705 0.17179 0.0
H1147 H 0.29055 0.13283 0.15514 0.0
H1148 H 0.33009 0.1167 0.22052 0.0
C1149 C 0.39636 0.14097 0.15078 0.0
C1150 C 0.34586 0.13715 0.12901 0.0
C1151 C 0.41764 0.15117 0.14196 0.0
C1152 C 0.26297 0.11024 0.18136 0.0
C1153 C 0.28397 0.11914 0.17138 0.0
C1154 C 0.33416 0.12203 0.19473 0.0
C1155 C 0.38375 0.14962 0.14185 0.0
C1156 C 0.3613 0.13912 0.15196 0.0
C1157 C 0.29633 0.11064 0.18254 0.0
C1158 C 0.31869 0.12017 0.17186 0.0
H1159 H 0.42078 0.19356 0.10136 0.0
H1160 H 0.38354 0.17574 0.11675 0.0
H1161 H 0.36683 0.13291 0.20322 0.0
H1162 H 0.25982 0.0709 0.2311 0.0
H1163 H 0.2962 0.08601 0.2129 0.0
C1164 C 0.84365 0.25078 0.11281 0.0
C1165 C 0.83214 0.25293 0.13918 0.0
C1166 C 0.85395 0.23935 0.11746 0.0
C1167 C 0.85749 0.2011 0.17487 0.0
H1168 H 0.91167 0.2223 0.13109 0.0
C1169 C 0.91707 0.17307 0.20485 0.0
C1170 C 0.92512 0.16786 0.17664 0.0
C1171 C 0.90477 0.18253 0.20071 0.0
C1172 C 0.89649 0.21614 0.14328 0.0
H1173 H 0.82215 0.24479 0.19096 0.0
H1174 H 0.84072 0.22533 0.19969 0.0
H1175 H 0.89205 0.24063 0.12341 0.0
H1176 H 0.92682 0.16857 0.12213 0.0
H1177 H 0.90558 0.18542 0.11489 0.0
H1178 H 0.86251 0.17697 0.19558 0.0
C1179 C 0.84139 0.23198 0.17507 0.0
C1180 C 0.88516 0.22655 0.13876 0.0
C1181 C 0.83079 0.24315 0.17018 0.0
C1182 C 0.92063 0.17223 0.14425 0.0
C1183 C 0.90863 0.182 0.14013 0.0
C1184 C 0.86902 0.19087 0.1798 0.0
C1185 C 0.85329 0.23011 0.14883 0.0
C1186 C 0.86541 0.21908 0.15423 0.0
C1187 C 0.90065 0.18728 0.16832 0.0
C1188 C 0.88853 0.19822 0.16381 0.0
H1189 H 0.84463 0.25793 0.08851 0.0
H1190 H 0.86245 0.2378 0.09638 0.0
H1191 H 0.84224 0.19472 0.18684 0.0
H1192 H 0.92025 0.16973 0.23004 0.0
H1193 H 0.89887 0.18657 0.22283 0.0
C1194 C 0.77702 0.58627 0.13462 0.0
C1195 C 0.75864 0.57743 0.1149 0.0
C1196 C 0.78796 0.60777 0.14168 0.0
C1197 C 0.79483 0.65868 0.11265 0.0
H1198 H 0.81771 0.67736 0.20224 0.0
C1199 C 0.82739 0.74406 0.15709 0.0
C1200 C 0.84655 0.75343 0.17475 0.0
C1201 C 0.81683 0.72258 0.14998 0.0
C1202 C 0.81158 0.67238 0.17703 0.0
H1203 H 0.73761 0.58448 0.08673 0.0
H1204 H 0.75637 0.6219 0.09979 0.0
H1205 H 0.79882 0.63987 0.18924 0.0
H1206 H 0.8695 0.74759 0.19921 0.0
H1207 H 0.85104 0.70992 0.18667 0.0
H1208 H 0.80741 0.69121 0.10061 0.0
C1209 C 0.76246 0.6122 0.10945 0.0
C1210 C 0.80079 0.65092 0.16954 0.0
C1211 C 0.75155 0.59069 0.10228 0.0
C1212 C 0.85484 0.74081 0.18539 0.0
C1213 C 0.84419 0.71925 0.17846 0.0
C1214 C 0.80552 0.68012 0.12019 0.0
C1215 C 0.78077 0.62098 0.12931 0.0
C1216 C 0.79228 0.64381 0.13725 0.0
C1217 C 0.82514 0.70996 0.16049 0.0
C1218 C 0.81399 0.68719 0.15246 0.0
H1219 H 0.78286 0.57658 0.14512 0.0
H1220 H 0.80215 0.61406 0.1567 0.0
H1221 H 0.78879 0.65377 0.08738 0.0
H1222 H 0.82072 0.75339 0.14814 0.0
H1223 H 0.80208 0.71582 0.13637 0.0
C1224 C 0.07333 0.26475 0.81752 0.0
C1225 C 0.08353 0.25319 0.81118 0.0
C1226 C 0.08494 0.28637 0.82324 0.0
C1227 C 0.13779 0.33311 0.81187 0.0
H1228 H 0.11759 0.35704 0.87929 0.0
C1229 C 0.1853 0.41978 0.85685 0.0
C1230 C 0.17398 0.43055 0.85914 0.0
C1231 C 0.17487 0.39812 0.85092 0.0
C1232 C 0.12333 0.35058 0.86023 0.0
H1233 H 0.11401 0.25551 0.80552 0.0
H1234 H 0.1343 0.29318 0.81655 0.0
H1235 H 0.09841 0.31924 0.86939 0.0
H1236 H 0.14275 0.42685 0.85592 0.0
H1237 H 0.12464 0.38914 0.84629 0.0
H1238 H 0.1629 0.36459 0.80313 0.0
C1239 C 0.11728 0.28552 0.81656 0.0
C1240 C 0.11233 0.32895 0.85446 0.0
C1241 C 0.10565 0.26387 0.81062 0.0
C1242 C 0.15199 0.41912 0.85511 0.0
C1243 C 0.14158 0.39747 0.84946 0.0
C1244 C 0.14891 0.35477 0.81785 0.0
C1245 C 0.10705 0.29701 0.82309 0.0
C1246 C 0.11928 0.31996 0.82996 0.0
C1247 C 0.15289 0.38675 0.84742 0.0
C1248 C 0.14165 0.36373 0.84186 0.0
H1249 H 0.05637 0.25714 0.8187 0.0
H1250 H 0.07652 0.29476 0.82768 0.0
H1251 H 0.14345 0.32675 0.79254 0.0
H1252 H 0.20219 0.42798 0.8602 0.0
H1253 H 0.18394 0.39019 0.84973 0.0
C1254 C 0.58605 0.74522 0.8165 0.0
C1255 C 0.57815 0.74045 0.84954 0.0
C1256 C 0.60769 0.75523 0.81054 0.0
C1257 C 0.65826 0.78995 0.85043 0.0
H1258 H 0.68124 0.77088 0.77969 0.0
C1259 C 0.74754 0.82717 0.83135 0.0
C1260 C 0.75512 0.83044 0.79812 0.0
C1261 C 0.72601 0.81525 0.83787 0.0
C1262 C 0.67506 0.77657 0.79926 0.0
H1263 H 0.58662 0.74236 0.90221 0.0
H1264 H 0.62455 0.76 0.89183 0.0
H1265 H 0.64343 0.75177 0.79065 0.0
H1266 H 0.74618 0.82378 0.74567 0.0
H1267 H 0.70843 0.8033 0.75687 0.0
H1268 H 0.68966 0.81501 0.85864 0.0
C1269 C 0.61396 0.75597 0.87058 0.0
C1270 C 0.65343 0.76557 0.80559 0.0
C1271 C 0.5923 0.74576 0.8765 0.0
C1272 C 0.74075 0.82134 0.77152 0.0
C1273 C 0.71915 0.80957 0.778 0.0
C1274 C 0.67985 0.80105 0.84393 0.0
C1275 C 0.62186 0.76084 0.83753 0.0
C1276 C 0.64483 0.77217 0.83123 0.0
C1277 C 0.71151 0.80648 0.81128 0.0
C1278 C 0.68853 0.7945 0.81827 0.0
H1279 H 0.57549 0.74107 0.79522 0.0
H1280 H 0.61335 0.75892 0.78484 0.0
H1281 H 0.65201 0.79557 0.87001 0.0
H1282 H 0.7583 0.83365 0.85238 0.0
H1283 H 0.72074 0.81281 0.86383 0.0
C1284 C 0.22494 0.8181 0.84281 0.0
C1285 C 0.24409 0.82822 0.86053 0.0
C1286 C 0.21356 0.82837 0.83693 0.0
C1287 C 0.22087 0.88131 0.82942 0.0
H1288 H 0.16019 0.85314 0.83916 0.0
C1289 C 0.17549 0.92606 0.81877 0.0
C1290 C 0.15608 0.91616 0.80186 0.0
C1291 C 0.18583 0.91499 0.82633 0.0
C1292 C 0.1771 0.86114 0.83591 0.0
H1293 H 0.26575 0.85672 0.88726 0.0
H1294 H 0.24598 0.87467 0.87672 0.0
H1295 H 0.17879 0.83425 0.85246 0.0
H1296 H 0.13238 0.88697 0.77933 0.0
H1297 H 0.15058 0.86761 0.79213 0.0
H1298 H 0.21926 0.90809 0.81248 0.0
C1299 C 0.23997 0.85891 0.86696 0.0
C1300 C 0.18774 0.85034 0.84362 0.0
C1301 C 0.2513 0.84863 0.87296 0.0
C1302 C 0.14721 0.89493 0.79269 0.0
C1303 C 0.15762 0.88385 0.80009 0.0
C1304 C 0.21024 0.89206 0.82156 0.0
C1305 C 0.22112 0.84898 0.84854 0.0
C1306 C 0.20974 0.86035 0.84058 0.0
C1307 C 0.17706 0.89378 0.81699 0.0
C1308 C 0.18825 0.88214 0.82484 0.0
H1309 H 0.21904 0.80251 0.83249 0.0
H1310 H 0.19918 0.8204 0.82237 0.0
H1311 H 0.23779 0.8893 0.82624 0.0
H1312 H 0.18252 0.94228 0.82677 0.0
H1313 H 0.20057 0.923 0.83995 0.0
C1314 C 0.91922 0.42067 0.48925 0.0
C1315 C 0.91162 0.41321 0.52173 0.0
C1316 C 0.94084 0.43209 0.48305 0.0
C1317 C 0.99234 0.4444 0.52089 0.0
H1318 H 0.01448 0.48736 0.45148 0.0
C1319 C 0.081 0.5041 0.50079 0.0
C1320 C 0.08835 0.50344 0.4684 0.0
C1321 C 0.05943 0.49347 0.50763 0.0
C1322 C 0.00844 0.47536 0.47087 0.0
H1323 H 0.92036 0.41213 0.57335 0.0
H1324 H 0.95818 0.43301 0.56317 0.0
H1325 H 0.97686 0.46868 0.46367 0.0
H1326 H 0.07917 0.49167 0.41763 0.0
H1327 H 0.04122 0.47356 0.42931 0.0
H1328 H 0.02426 0.45188 0.52873 0.0
C1329 C 0.9476 0.42944 0.54206 0.0
C1330 C 0.98687 0.46451 0.47775 0.0
C1331 C 0.92595 0.41762 0.54805 0.0
C1332 C 0.0738 0.4923 0.44279 0.0
C1333 C 0.05221 0.48208 0.44942 0.0
C1334 C 0.01395 0.45559 0.51447 0.0
C1335 C 0.95537 0.43669 0.50938 0.0
C1336 C 0.97847 0.44873 0.50269 0.0
C1337 C 0.04489 0.48243 0.48196 0.0
C1338 C 0.02212 0.47102 0.48926 0.0
H1339 H 0.9084 0.41715 0.46848 0.0
H1340 H 0.9461 0.43691 0.45742 0.0
H1341 H 0.98653 0.4321 0.53975 0.0
H1342 H 0.09198 0.51243 0.52097 0.0
H1343 H 0.05408 0.49395 0.53289 0.0
C1344 C 0.51233 0.58093 0.47181 0.0
C1345 C 0.49076 0.56992 0.46386 0.0
C1346 C 0.52353 0.5703 0.47538 0.0
C1347 C 0.51675 0.51871 0.49557 0.0
H1348 H 0.57254 0.54168 0.45692 0.0
C1349 C 0.56395 0.47529 0.50405 0.0
C1350 C 0.58562 0.48759 0.51071 0.0
C1351 C 0.55202 0.48477 0.49653 0.0
C1352 C 0.55708 0.53518 0.46818 0.0
H1353 H 0.46421 0.53903 0.45286 0.0
H1354 H 0.48376 0.52045 0.45964 0.0
H1355 H 0.55232 0.55926 0.44688 0.0
H1356 H 0.61172 0.51963 0.51415 0.0
H1357 H 0.59084 0.53611 0.50218 0.0
H1358 H 0.52163 0.49489 0.51751 0.0
C1359 C 0.4919 0.53733 0.46327 0.0
C1360 C 0.54549 0.54522 0.46233 0.0
C1361 C 0.4807 0.54799 0.45947 0.0
C1362 C 0.59505 0.50962 0.50961 0.0
C1363 C 0.58311 0.5191 0.50224 0.0
C1364 C 0.52839 0.50873 0.50161 0.0
C1365 C 0.51342 0.5484 0.4713 0.0
C1366 C 0.52528 0.53717 0.47617 0.0
C1367 C 0.56145 0.50679 0.49561 0.0
C1368 C 0.54876 0.51694 0.48819 0.0
H1369 H 0.52057 0.59773 0.47604 0.0
H1370 H 0.54003 0.5792 0.48211 0.0
H1371 H 0.50131 0.51231 0.50689 0.0
H1372 H 0.55609 0.4583 0.50499 0.0
H1373 H 0.53542 0.47482 0.4912 0.0
C1374 C 0.41269 0.91463 0.51092 0.0
C1375 C 0.40801 0.90554 0.47871 0.0
C1376 C 0.42461 0.93644 0.51468 0.0
C1377 C 0.44266 0.98628 0.46736 0.0
H1378 H 0.48061 0.01027 0.54328 0.0
C1379 C 0.5012 0.07548 0.48263 0.0
C1380 C 0.50063 0.08394 0.51409 0.0
C1381 C 0.49041 0.05372 0.47767 0.0
C1382 C 0.47 0.00375 0.52205 0.0
H1383 H 0.41249 0.91195 0.42522 0.0
H1384 H 0.43393 0.95003 0.43161 0.0
H1385 H 0.46131 0.97224 0.53542 0.0
H1386 H 0.48877 0.07639 0.56518 0.0
H1387 H 0.47013 0.03828 0.55668 0.0
H1388 H 0.45184 0.01798 0.45375 0.0
C1389 C 0.4279 0.94043 0.45404 0.0
C1390 C 0.45884 0.98196 0.51759 0.0
C1391 C 0.41571 0.91863 0.45031 0.0
C1392 C 0.4893 0.07025 0.54062 0.0
C1393 C 0.4788 0.0485 0.53583 0.0
C1394 C 0.45406 0.00809 0.47158 0.0
C1395 C 0.43239 0.94965 0.48629 0.0
C1396 C 0.44487 0.97291 0.49035 0.0
C1397 C 0.47917 0.04004 0.50427 0.0
C1398 C 0.46768 0.017 0.49912 0.0
H1399 H 0.40666 0.9049 0.53321 0.0
H1400 H 0.42734 0.94292 0.53988 0.0
H1401 H 0.43179 0.97992 0.44644 0.0
H1402 H 0.50969 0.08571 0.46173 0.0
H1403 H 0.491 0.04756 0.45314 0.0
C1404 C 0.23346 0.04649 0.39322 0.0
C1405 C 0.21971 0.0292 0.37329 0.0
C1406 C 0.23721 0.0436 0.42676 0.0
C1407 C 0.22806 0.00325 0.49189 0.0
H1408 H 0.21772 0.03972 0.5496 0.0
C1409 C 0.1909 0.97929 0.62384 0.0
C1410 C 0.19581 0.99495 0.64827 0.0
C1411 C 0.19985 0.9846 0.5917 0.0
C1412 C 0.22115 0.02966 0.53412 0.0
H1413 H 0.20027 0.9952 0.37224 0.0
H1414 H 0.20671 0.99017 0.43063 0.0
H1415 H 0.22351 0.04725 0.48994 0.0
H1416 H 0.21507 0.02839 0.65847 0.0
H1417 H 0.23118 0.03747 0.60301 0.0
H1418 H 0.22487 0.9852 0.5362 0.0
C1419 C 0.2148 0.00596 0.42036 0.0
C1420 C 0.22449 0.03401 0.49976 0.0
C1421 C 0.21108 0.00885 0.38683 0.0
C1422 C 0.21094 0.01586 0.64044 0.0
C1423 C 0.22001 0.02113 0.60843 0.0
C1424 C 0.22477 0.99892 0.5264 0.0
C1425 C 0.22725 0.02336 0.44106 0.0
C1426 C 0.22742 0.02056 0.47808 0.0
C1427 C 0.21404 0.00568 0.58331 0.0
C1428 C 0.22071 0.01177 0.54776 0.0
H1429 H 0.24067 0.06234 0.38328 0.0
H1430 H 0.24721 0.05729 0.44191 0.0
H1431 H 0.23052 0.99273 0.47587 0.0
H1432 H 0.17967 0.96297 0.6292 0.0
H1433 H 0.19479 0.97229 0.57297 0.0
C1434 C 0.00357 0.20364 0.63121 0.0
C1435 C 0.99057 0.18697 0.65274 0.0
C1436 C 0.99801 0.20326 0.59738 0.0
C1437 C 0.9687 0.16371 0.5334 0.0
H1438 H 0.98222 0.21155 0.47588 0.0
C1439 C 0.98461 0.16297 0.39352 0.0
C1440 C 0.97401 0.16913 0.37079 0.0
C1441 C 0.98413 0.16622 0.42795 0.0
C1442 C 0.97812 0.19804 0.49176 0.0
H1443 H 0.96073 0.15798 0.65709 0.0
H1444 H 0.95083 0.15746 0.59833 0.0
H1445 H 0.98481 0.21603 0.53735 0.0
H1446 H 0.95522 0.18429 0.36647 0.0
H1447 H 0.95474 0.19035 0.42724 0.0
H1448 H 0.96257 0.14585 0.4881 0.0
C1449 C 0.96556 0.17051 0.60713 0.0
C1450 C 0.97975 0.20062 0.52682 0.0
C1451 C 0.9712 0.1708 0.64073 0.0
C1452 C 0.96352 0.17935 0.38333 0.0
C1453 C 0.96322 0.1828 0.41801 0.0
C1454 C 0.96722 0.1612 0.49858 0.0
C1455 C 0.97929 0.18627 0.58476 0.0
C1456 C 0.97537 0.18351 0.54794 0.0
C1457 C 0.97325 0.17593 0.44059 0.0
C1458 C 0.97236 0.1784 0.47741 0.0
H1459 H 0.01859 0.21627 0.63998 0.0
H1460 H 0.00897 0.21557 0.58073 0.0
H1461 H 0.96549 0.15026 0.54884 0.0
H1462 H 0.99347 0.15573 0.38473 0.0
H1463 H 0.9924 0.16121 0.44478 0.0
C1464 C 0.78164 0.81651 0.5873 0.0
C1465 C 0.80132 0.83277 0.59853 0.0
C1466 C 0.77836 0.81096 0.55309 0.0
C1467 C 0.79753 0.83265 0.46948 0.0
H1468 H 0.78251 0.77649 0.44001 0.0
C1469 C 0.80008 0.81554 0.32965 0.0
C1470 C 0.81246 0.80631 0.32264 0.0
C1471 C 0.79279 0.8152 0.36229 0.0
C1472 C 0.78652 0.79218 0.44789 0.0
H1473 H 0.83322 0.85512 0.5824 0.0
H1474 H 0.82712 0.8461 0.52327 0.0
H1475 H 0.78108 0.78347 0.50018 0.0
H1476 H 0.82544 0.78802 0.34387 0.0
H1477 H 0.81301 0.78773 0.40101 0.0
H1478 H 0.80389 0.84175 0.41781 0.0
C1479 C 0.81421 0.83784 0.54081 0.0
C1480 C 0.78553 0.79611 0.4822 0.0
C1481 C 0.8176 0.84311 0.57479 0.0
C1482 C 0.81623 0.79557 0.34857 0.0
C1483 C 0.80888 0.79518 0.38123 0.0
C1484 C 0.7983 0.82871 0.4353 0.0
C1485 C 0.79459 0.8218 0.52958 0.0
C1486 C 0.79169 0.81654 0.4933 0.0
C1487 C 0.79766 0.80557 0.38865 0.0
C1488 C 0.79341 0.80859 0.4242 0.0
H1489 H 0.76874 0.80822 0.60481 0.0
H1490 H 0.7631 0.79846 0.54492 0.0
H1491 H 0.8023 0.84852 0.47748 0.0
H1492 H 0.79696 0.82403 0.31032 0.0
H1493 H 0.78399 0.82316 0.36718 0.0
C1494 C 0.85339 0.29286 0.94509 0.0
C1495 C 0.86326 0.30967 0.96798 0.0
C1496 C 0.86032 0.29515 0.91172 0.0
C1497 C 0.8888 0.33822 0.85052 0.0
H1498 H 0.87569 0.29175 0.79019 0.0
C1499 C 0.85686 0.31771 0.71125 0.0
C1500 C 0.87133 0.33577 0.69363 0.0
C1501 C 0.86193 0.31333 0.74291 0.0
C1502 C 0.87971 0.30491 0.80686 0.0
H1503 H 0.88952 0.34163 0.97366 0.0
H1504 H 0.90245 0.34482 0.91698 0.0
H1505 H 0.8744 0.28625 0.85108 0.0
H1506 H 0.90269 0.36293 0.69398 0.0
H1507 H 0.91143 0.35563 0.75033 0.0
H1508 H 0.89371 0.35673 0.80631 0.0
C1509 C 0.88867 0.33019 0.92426 0.0
C1510 C 0.8788 0.30175 0.8417 0.0
C1511 C 0.8814 0.32814 0.95726 0.0
C1512 C 0.89134 0.34893 0.70733 0.0
C1513 C 0.8963 0.34475 0.73937 0.0
C1514 C 0.89007 0.34144 0.81581 0.0
C1515 C 0.87765 0.31415 0.90059 0.0
C1516 C 0.88252 0.31818 0.86399 0.0
C1517 C 0.88144 0.32714 0.75768 0.0
C1518 C 0.88477 0.32464 0.79369 0.0
H1519 H 0.83981 0.2781 0.95244 0.0
H1520 H 0.85133 0.28239 0.89436 0.0
H1521 H 0.89143 0.35123 0.86658 0.0
H1522 H 0.84139 0.3073 0.7009 0.0
H1523 H 0.85011 0.29981 0.75666 0.0
C1524 C 0.64382 0.5036 0.94995 0.0
C1525 C 0.6597 0.52051 0.96814 0.0
C1526 C 0.63775 0.50673 0.91823 0.0
C1527 C 0.65945 0.54454 0.84745 0.0
H1528 H 0.60771 0.50194 0.80621 0.0
C1529 C 0.65702 0.52319 0.70908 0.0
C1530 C 0.63801 0.51319 0.69121 0.0
C1531 C 0.6574 0.52863 0.74281 0.0
C1532 C 0.62211 0.51436 0.8171 0.0
H1533 H 0.68016 0.55436 0.96861 0.0
H1534 H 0.66875 0.56007 0.91387 0.0
H1535 H 0.61069 0.50392 0.86691 0.0
H1536 H 0.60459 0.5019 0.69391 0.0
H1537 H 0.60525 0.51231 0.75265 0.0
H1538 H 0.67053 0.55557 0.79772 0.0
C1539 C 0.66164 0.54417 0.92347 0.0
C1540 C 0.62397 0.51523 0.85218 0.0
C1541 C 0.66801 0.54095 0.95513 0.0
C1542 C 0.61943 0.50948 0.70731 0.0
C1543 C 0.61985 0.51536 0.74102 0.0
C1544 C 0.65736 0.54406 0.81243 0.0
C1545 C 0.647 0.52698 0.90398 0.0
C1546 C 0.64311 0.52952 0.86778 0.0
C1547 C 0.6388 0.52458 0.75952 0.0
C1548 C 0.63912 0.52819 0.79664 0.0
H1549 H 0.63655 0.4877 0.95964 0.0
H1550 H 0.62661 0.49297 0.90429 0.0
H1551 H 0.67445 0.5559 0.85819 0.0
H1552 H 0.67153 0.52593 0.69739 0.0
H1553 H 0.67223 0.53512 0.75606 0.0
C1554 C 0.46911 0.10089 0.70849 0.0
C1555 C 0.48999 0.11374 0.69722 0.0
C1556 C 0.46471 0.0965 0.74282 0.0
C1557 C 0.46347 0.10929 0.81667 0.0
H1558 H 0.49637 0.09497 0.876 0.0
C1559 C 0.46454 0.12285 0.9597 0.0
C1560 C 0.48485 0.13314 0.9737 0.0
C1561 C 0.46106 0.11355 0.92778 0.0
C1562 C 0.48705 0.09901 0.85983 0.0
H1563 H 0.52258 0.13125 0.71385 0.0
H1564 H 0.51489 0.12279 0.77297 0.0
H1565 H 0.49814 0.09124 0.81515 0.0
H1566 H 0.51705 0.14026 0.96639 0.0
H1567 H 0.51126 0.12493 0.91069 0.0
H1568 H 0.4536 0.11865 0.86082 0.0
C1569 C 0.50196 0.11621 0.75518 0.0
C1570 C 0.48797 0.09672 0.82504 0.0
C1571 C 0.50635 0.12096 0.72108 0.0
C1572 C 0.5013 0.13287 0.95601 0.0
C1573 C 0.49788 0.12372 0.92418 0.0
C1574 C 0.46277 0.11188 0.85145 0.0
C1575 C 0.48111 0.10441 0.76648 0.0
C1576 C 0.47674 0.10251 0.80311 0.0
C1577 C 0.47783 0.11436 0.90925 0.0
C1578 C 0.47519 0.10753 0.87338 0.0
H1579 H 0.45608 0.09457 0.69097 0.0
H1580 H 0.44849 0.08726 0.75097 0.0
H1581 H 0.45479 0.11403 0.80026 0.0
H1582 H 0.45153 0.12276 0.97274 0.0
H1583 H 0.44535 0.10621 0.91727 0.0
C1584 C 0.52301 0.64225 0.29322 0.0
C1585 C 0.52664 0.65624 0.31994 0.0
C1586 C 0.53062 0.64987 0.26093 0.0
C1587 C 0.55261 0.67048 0.19471 0.0
H1588 H 0.53617 0.71123 0.16924 0.0
C1589 C 0.55427 0.70024 0.05693 0.0
C1590 C 0.53419 0.69637 0.0471 0.0
C1591 C 0.55848 0.69821 0.09076 0.0
C1592 C 0.54115 0.7001 0.17609 0.0
H1593 H 0.54235 0.68919 0.33412 0.0
H1594 H 0.55581 0.70242 0.27791 0.0
H1595 H 0.5356 0.70215 0.22837 0.0
H1596 H 0.50265 0.68656 0.06547 0.0
H1597 H 0.51035 0.6841 0.124 0.0
H1598 H 0.55714 0.66783 0.14184 0.0
C1599 C 0.5469 0.68557 0.28189 0.0
C1600 C 0.54097 0.69498 0.20995 0.0
C1601 C 0.53932 0.67796 0.31417 0.0
C1602 C 0.51852 0.69046 0.07195 0.0
C1603 C 0.52284 0.68885 0.10559 0.0
C1604 C 0.55301 0.6758 0.16073 0.0
C1605 C 0.54198 0.67163 0.2547 0.0
C1606 C 0.54603 0.67962 0.21956 0.0
C1607 C 0.5428 0.69266 0.11533 0.0
C1608 C 0.54657 0.69012 0.15113 0.0
H1609 H 0.51358 0.62542 0.29698 0.0
H1610 H 0.52648 0.63872 0.24049 0.0
H1611 H 0.55673 0.6587 0.20143 0.0
H1612 H 0.56676 0.70491 0.0386 0.0
H1613 H 0.57399 0.70118 0.09779 0.0
C1614 C 0.35367 0.87279 0.01666 0.0
C1615 C 0.33225 0.86257 0.00782 0.0
C1616 C 0.35985 0.87828 0.05009 0.0
C1617 C 0.3425 0.88404 0.13501 0.0
H1618 H 0.37604 0.85978 0.16513 0.0
C1619 C 0.36711 0.88184 0.27489 0.0
C1620 C 0.35988 0.86104 0.28566 0.0
C1621 C 0.36641 0.88628 0.24074 0.0
C1622 C 0.36693 0.8669 0.15697 0.0
H1623 H 0.30069 0.85155 0.02663 0.0
H1624 H 0.3115 0.86098 0.08523 0.0
H1625 H 0.36994 0.8612 0.10507 0.0
H1626 H 0.34554 0.82858 0.26864 0.0
H1627 H 0.34538 0.83656 0.20945 0.0
H1628 H 0.33896 0.88897 0.1874 0.0
C1629 C 0.32348 0.86477 0.06624 0.0
C1630 C 0.36352 0.86783 0.12265 0.0
C1631 C 0.31727 0.85916 0.03278 0.0
C1632 C 0.35196 0.84488 0.26143 0.0
C1633 C 0.35166 0.84938 0.22745 0.0
C1634 C 0.34617 0.88336 0.16946 0.0
C1635 C 0.34476 0.87375 0.07536 0.0
C1636 C 0.35081 0.87589 0.11134 0.0
C1637 C 0.35884 0.87006 0.21681 0.0
C1638 C 0.35791 0.87421 0.18067 0.0
H1639 H 0.36559 0.87551 -0.00192 0.0
H1640 H 0.37637 0.88533 0.05642 0.0
H1641 H 0.33271 0.8904 0.12691 0.0
H1642 H 0.37343 0.89471 0.29274 0.0
H1643 H 0.37201 0.90237 0.23296 0.0
C1644 C 0.10677 0.46183 0.28373 0.0
C1645 C 0.12586 0.46564 0.29784 0.0
C1646 C 0.10133 0.45371 0.25109 0.0
C1647 C 0.10897 0.45883 0.17522 0.0
H1648 H 0.11939 0.41676 0.13507 0.0
C1649 C 0.12134 0.46 0.03356 0.0
C1650 C 0.13864 0.45798 0.02344 0.0
C1651 C 0.1127 0.45378 0.06569 0.0
C1652 C 0.11646 0.4286 0.14583 0.0
H1653 H 0.15355 0.4628 0.29066 0.0
H1654 H 0.14398 0.44833 0.23382 0.0
H1655 H 0.11689 0.41835 0.1963 0.0
H1656 H 0.15903 0.4459 0.03863 0.0
H1657 H 0.14514 0.43666 0.09528 0.0
H1658 H 0.11032 0.47042 0.12563 0.0
C1659 C 0.13317 0.45152 0.24773 0.0
C1660 C 0.11485 0.42936 0.18086 0.0
C1661 C 0.13874 0.45992 0.28006 0.0
C1662 C 0.14618 0.44837 0.04573 0.0
C1663 C 0.13786 0.44261 0.07818 0.0
C1664 C 0.11091 0.45832 0.14035 0.0
C1665 C 0.1148 0.44904 0.23248 0.0
C1666 C 0.11176 0.44493 0.19586 0.0
C1667 C 0.12145 0.4459 0.08897 0.0
C1668 C 0.11541 0.44366 0.12522 0.0
H1669 H 0.0967 0.46624 0.29717 0.0
H1670 H 0.08709 0.45194 0.23982 0.0
H1671 H 0.10688 0.4712 0.18613 0.0
H1672 H 0.11504 0.4674 0.01743 0.0
H1673 H 0.0997 0.45603 0.0727 0.0
C1674 C 0.17935 0.00327 0.14264 0.0
C1675 C 0.17241 0.017 0.15352 0.0
C1676 C 0.17963 0.99916 0.10823 0.0
C1677 C 0.16297 0.98463 0.03514 0.0
H1678 H 0.18893 0.03219 0.97387 0.0
C1679 C 0.14107 0.98067 0.89512 0.0
C1680 C 0.15752 0.9905 0.87165 0.0
C1681 C 0.14531 0.98274 0.92959 0.0
C1682 C 0.18186 0.01877 0.99068 0.0
H1683 H 0.16049 0.03728 0.13712 0.0
H1684 H 0.16137 0.0304 0.07731 0.0
H1685 H 0.19204 0.03821 0.03474 0.0
H1686 H 0.19129 0.01007 0.86567 0.0
H1687 H 0.19866 0.0142 0.9263 0.0
H1688 H 0.15197 0.96523 0.99101 0.0
C1689 C 0.16648 0.02276 0.09528 0.0
C1690 C 0.18354 0.02221 0.02541 0.0
C1691 C 0.16583 0.02655 0.12952 0.0
C1692 C 0.17832 0.00237 0.88326 0.0
C1693 C 0.18253 0.00473 0.91784 0.0
C1694 C 0.161 0.98119 0.00036 0.0
C1695 C 0.17343 0.0091 0.08432 0.0
C1696 C 0.17379 0.0052 0.04789 0.0
C1697 C 0.16605 0.99492 0.94128 0.0
C1698 C 0.17013 0.99827 0.97786 0.0
H1699 H 0.18452 0.99573 0.16066 0.0
H1700 H 0.18501 0.98853 0.10026 0.0
H1701 H 0.15525 0.9713 0.05204 0.0
H1702 H 0.12489 0.97131 0.88687 0.0
H1703 H 0.1323 0.97523 0.94716 0.0
C1704 C 0.0275 0.19148 0.12679 0.0
C1705 C 0.01606 0.19502 0.15167 0.0
C1706 C 0.03083 0.20115 0.09537 0.0
C1707 C 0.00047 0.21189 0.0388 0.0
H1708 H 0.04859 0.22995 0.97963 0.0
C1709 C 0.00099 0.17997 0.90852 0.0
C1710 C 0.00904 0.19407 0.88146 0.0
C1711 C 0.00183 0.18739 0.9411 0.0
C1712 C 0.03515 0.22547 0.99593 0.0
H1713 H 1.00028 0.21237 0.16436 0.0
H1714 H 0.00548 0.22878 0.10872 0.0
H1715 H 0.05362 0.23205 0.04088 0.0
H1716 H 0.0241 0.22682 0.8666 0.0
H1717 H 0.02648 0.23999 0.92451 0.0
H1718 H 0.98176 0.20316 0.99389 0.0
C1719 C 0.01224 0.21889 0.11383 0.0
C1720 C 0.03801 0.2266 0.03084 0.0
C1721 C 0.00934 0.20959 0.14561 0.0
C1722 C 0.01754 0.2157 0.88722 0.0
C1723 C 0.01896 0.22321 0.92012 0.0
C1724 C 0.99759 0.21039 0.00394 0.0
C1725 C 0.02234 0.21413 0.08811 0.0
C1726 C 0.02056 0.21897 0.05252 0.0
C1727 C 0.01124 0.20905 0.94723 0.0
C1728 C 0.01481 0.2164 0.98238 0.0
H1729 H 0.03277 0.18026 0.13094 0.0
H1730 H 0.03846 0.19701 0.07587 0.0
H1731 H 0.98673 0.20566 0.05494 0.0
H1732 H 0.99446 0.16324 0.90454 0.0
H1733 H 0.99603 0.17626 0.96179 0.0
C1734 C 0.81646 0.80724 0.82837 0.0
C1735 C 0.83528 0.82444 0.81671 0.0
C1736 C 0.81536 0.79945 0.861 0.0
C1737 C 0.84756 0.80173 0.93467 0.0
H1738 H 0.80575 0.8066 0.98764 0.0
C1739 C 0.82574 0.80619 0.08373 0.0
C1740 C 0.84622 0.82064 0.09459 0.0
C1741 C 0.82172 0.80075 0.0496 0.0
C1742 C 0.81722 0.80467 0.97325 0.0
H1743 H 0.868 0.84595 0.8284 0.0
H1744 H 0.86632 0.83208 0.8847 0.0
H1745 H 0.80347 0.80576 0.92625 0.0
H1746 H 0.87851 0.84072 0.07826 0.0
H1747 H 0.8715 0.83148 0.01915 0.0
H1748 H 0.86187 0.80163 0.98154 0.0
C1749 C 0.85237 0.8246 0.86905 0.0
C1750 C 0.81589 0.80413 0.93807 0.0
C1751 C 0.85334 0.83261 0.83687 0.0
C1752 C 0.86255 0.82952 0.07076 0.0
C1753 C 0.85857 0.82404 0.03687 0.0
C1754 C 0.84885 0.8022 0.96977 0.0
C1755 C 0.83319 0.80851 0.88198 0.0
C1756 C 0.83156 0.80358 0.91845 0.0
C1757 C 0.83816 0.80953 0.02585 0.0
C1758 C 0.83424 0.80464 0.98938 0.0
H1759 H 0.80226 0.80089 0.81334 0.0
H1760 H 0.8004 0.78701 0.87036 0.0
H1761 H 0.85969 0.80101 0.92016 0.0
H1762 H 0.81287 0.79902 0.10159 0.0
H1763 H 0.80583 0.78953 0.04183 0.0
C1764 C 0.856 0.33026 0.20201 0.0
C1765 C 0.84517 0.33923 0.18659 0.0
C1766 C 0.85834 0.33105 0.237 0.0
C1767 C 0.83183 0.33731 0.31194 0.0
H1768 H 0.87474 0.33199 0.36042 0.0
C1769 C 0.82097 0.31903 0.45195 0.0
C1770 C 0.83876 0.32969 0.47242 0.0
C1771 C 0.82321 0.31843 0.41716 0.0
C1772 C 0.86272 0.33366 0.34735 0.0
H1773 H 0.83005 0.35768 0.19445 0.0
H1774 H 0.83561 0.36068 0.25517 0.0
H1775 H 0.87844 0.33852 0.29998 0.0
H1776 H 0.87278 0.34746 0.4735 0.0
H1777 H 0.87682 0.34752 0.4125 0.0
H1778 H 0.81672 0.33379 0.35913 0.0
C1779 C 0.84129 0.35197 0.24084 0.0
C1780 C 0.86473 0.33718 0.31254 0.0
C1781 C 0.83835 0.35057 0.20603 0.0
C1782 C 0.85887 0.33887 0.45801 0.0
C1783 C 0.86113 0.33887 0.42304 0.0
C1784 C 0.83007 0.33426 0.34664 0.0
C1785 C 0.85028 0.34126 0.257 0.0
C1786 C 0.84922 0.33894 0.29434 0.0
C1787 C 0.84327 0.32927 0.40208 0.0
C1788 C 0.84532 0.33214 0.36486 0.0
H1789 H 0.86113 0.32118 0.18735 0.0
H1790 H 0.86521 0.32248 0.24835 0.0
H1791 H 0.81924 0.33802 0.29896 0.0
H1792 H 0.80532 0.31178 0.46277 0.0
H1793 H 0.80911 0.31017 0.40204 0.0
C1794 C 0.68315 0.52137 0.20323 0.0
C1795 C 0.68902 0.50716 0.19062 0.0
C1796 C 0.68368 0.52507 0.23799 0.0
C1797 C 0.67379 0.51856 0.31382 0.0
H1798 H 0.71775 0.51773 0.36691 0.0
C1799 C 0.68117 0.4901 0.45214 0.0
C1800 C 0.67421 0.50084 0.47296 0.0
C1801 C 0.68656 0.49616 0.41866 0.0
C1802 C 0.70547 0.51815 0.3524 0.0
H1803 H 0.69981 0.48553 0.20448 0.0
H1804 H 0.70038 0.49165 0.26451 0.0
H1805 H 0.72012 0.51867 0.30558 0.0
H1806 H 0.66789 0.52664 0.47555 0.0
H1807 H 0.67695 0.53704 0.41638 0.0
H1808 H 0.65893 0.51752 0.36089 0.0
C1809 C 0.69581 0.50034 0.2478 0.0
C1810 C 0.70675 0.51858 0.31731 0.0
C1811 C 0.69528 0.49666 0.21331 0.0
C1812 C 0.67336 0.51821 0.46002 0.0
C1813 C 0.6784 0.52406 0.42622 0.0
C1814 C 0.67259 0.51828 0.34903 0.0
C1815 C 0.69018 0.51468 0.26061 0.0
C1816 C 0.69052 0.51796 0.2976 0.0
C1817 C 0.68479 0.51289 0.40515 0.0
C1818 C 0.68806 0.51732 0.36856 0.0
H1819 H 0.67832 0.52974 0.18629 0.0
H1820 H 0.67927 0.53623 0.2471 0.0
H1821 H 0.661 0.51799 0.29938 0.0
H1822 H 0.68196 0.47665 0.46151 0.0
H1823 H 0.69121 0.48713 0.40291 0.0
C1824 C 0.48073 0.15122 0.20991 0.0
C1825 C 0.49531 0.17153 0.19851 0.0
C1826 C 0.47525 0.14762 0.24413 0.0
C1827 C 0.47811 0.14394 0.32113 0.0
H1828 H 0.47428 0.18741 0.37084 0.0
C1829 C 0.4743 0.14364 0.46662 0.0
C1830 C 0.49091 0.16233 0.47987 0.0
C1831 C 0.46865 0.1426 0.43265 0.0
C1832 C 0.47511 0.17504 0.35727 0.0
H1833 H 0.51578 0.20389 0.21402 0.0
H1834 H 0.50651 0.19761 0.27318 0.0
H1835 H 0.47643 0.18909 0.30948 0.0
H1836 H 0.51365 0.19488 0.46909 0.0
H1837 H 0.5035 0.19328 0.41032 0.0
H1838 H 0.47756 0.13034 0.36918 0.0
C1839 C 0.49894 0.1845 0.25585 0.0
C1840 C 0.47645 0.17604 0.32218 0.0
C1841 C 0.50443 0.18806 0.22191 0.0
C1842 C 0.50076 0.1803 0.45944 0.0
C1843 C 0.49488 0.17939 0.42583 0.0
C1844 C 0.47668 0.14289 0.35633 0.0
C1845 C 0.48416 0.16432 0.26738 0.0
C1846 C 0.47883 0.16098 0.30381 0.0
C1847 C 0.47926 0.16037 0.41176 0.0
C1848 C 0.47599 0.15889 0.37477 0.0
H1849 H 0.47337 0.1382 0.1924 0.0
H1850 H 0.46382 0.13189 0.25229 0.0
H1851 H 0.47998 0.13213 0.30772 0.0
H1852 H 0.46663 0.12951 0.48184 0.0
H1853 H 0.45652 0.12777 0.42243 0.0
C1854 C 0.51853 0.66745 0.80734 0.0
C1855 C 0.50129 0.65537 0.82834 0.0
C1856 C 0.51842 0.66143 0.77396 0.0
C1857 C 0.4791 0.62997 0.70861 0.0
H1858 H 0.52915 0.65212 0.65301 0.0
C1859 C 0.50415 0.63754 0.55816 0.0
C1860 C 0.48778 0.64015 0.54538 0.0
C1861 C 0.50661 0.63663 0.59301 0.0
C1862 C 0.51495 0.64548 0.66806 0.0
H1863 H 0.47109 0.62697 0.83246 0.0
H1864 H 0.47143 0.61537 0.77486 0.0
H1865 H 0.53244 0.65257 0.71392 0.0
H1866 H 0.46177 0.64481 0.55852 0.0
H1867 H 0.46673 0.64455 0.61892 0.0
H1868 H 0.46153 0.62201 0.66294 0.0
C1869 C 0.48473 0.62999 0.78339 0.0
C1870 C 0.51686 0.64602 0.70318 0.0
C1871 C 0.48462 0.63637 0.81655 0.0
C1872 C 0.47439 0.64257 0.56781 0.0
C1873 C 0.47711 0.64214 0.60248 0.0
C1874 C 0.47717 0.62898 0.67362 0.0
C1875 C 0.50113 0.64299 0.76108 0.0
C1876 C 0.49901 0.63896 0.72399 0.0
C1877 C 0.49296 0.63871 0.61565 0.0
C1878 C 0.49509 0.63745 0.65283 0.0
H1879 H 0.53136 0.68242 0.81595 0.0
H1880 H 0.53122 0.67211 0.75781 0.0
H1881 H 0.46491 0.62453 0.72338 0.0
H1882 H 0.51454 0.63543 0.54126 0.0
H1883 H 0.51887 0.63379 0.60207 0.0
C1884 C 0.32014 0.85672 0.7677 0.0
C1885 C 0.31361 0.83596 0.77761 0.0
C1886 C 0.3173 0.86112 0.73437 0.0
C1887 C 0.32238 0.86392 0.65656 0.0
H1888 H 0.27122 0.82396 0.61032 0.0
C1889 C 0.32031 0.8568 0.5127 0.0
C1890 C 0.31577 0.83637 0.50429 0.0
C1891 C 0.31513 0.86091 0.54468 0.0
C1892 C 0.28546 0.83548 0.62292 0.0
H1893 H 0.29893 0.80357 0.76056 0.0
H1894 H 0.29403 0.8112 0.70296 0.0
H1895 H 0.27249 0.82394 0.67178 0.0
H1896 H 0.3008 0.804 0.52099 0.0
H1897 H 0.29129 0.81097 0.57623 0.0
H1898 H 0.33582 0.87447 0.60761 0.0
C1899 C 0.30114 0.82407 0.7208 0.0
C1900 C 0.28622 0.83544 0.65802 0.0
C1901 C 0.30419 0.81974 0.75376 0.0
C1902 C 0.30443 0.81986 0.52697 0.0
C1903 C 0.29889 0.82387 0.55852 0.0
C1904 C 0.32162 0.86397 0.62136 0.0
C1905 C 0.30754 0.84475 0.71076 0.0
C1906 C 0.30504 0.84885 0.67504 0.0
C1907 C 0.30495 0.84455 0.56823 0.0
C1908 C 0.30352 0.84895 0.60424 0.0
H1909 H 0.32739 0.86951 0.78566 0.0
H1910 H 0.32251 0.87721 0.72713 0.0
H1911 H 0.33708 0.87442 0.66907 0.0
H1912 H 0.32925 0.8698 0.49562 0.0
H1913 H 0.31996 0.87697 0.55157 0.0
C1914 C 0.14502 0.48832 0.53529 0.0
C1915 C 0.16418 0.49663 0.518 0.0
C1916 C 0.14457 0.48685 0.57042 0.0
C1917 C 0.18109 0.51075 0.64291 0.0
H1918 H 0.13173 0.47258 0.69452 0.0
C1919 C 0.17886 0.52377 0.78424 0.0
C1920 C 0.16907 0.50602 0.80502 0.0
C1921 C 0.17601 0.52172 0.74942 0.0
C1922 C 0.14578 0.48323 0.68063 0.0
H1923 H 0.19758 0.50851 0.52268 0.0
H1924 H 0.19673 0.5043 0.58367 0.0
H1925 H 0.13201 0.46808 0.63395 0.0
H1926 H 0.14833 0.47228 0.80639 0.0
H1927 H 0.14424 0.46838 0.74547 0.0
H1928 H 0.19545 0.52503 0.68945 0.0
C1929 C 0.18213 0.49995 0.57074 0.0
C1930 C 0.14583 0.48083 0.64566 0.0
C1931 C 0.18265 0.50206 0.53577 0.0
C1932 C 0.1558 0.48624 0.79072 0.0
C1933 C 0.15346 0.48406 0.75576 0.0
C1934 C 0.18124 0.5128 0.6778 0.0
C1935 C 0.16326 0.49325 0.58874 0.0
C1936 C 0.16345 0.49468 0.62624 0.0
C1937 C 0.16396 0.50173 0.73454 0.0
C1938 C 0.16351 0.49928 0.6972 0.0
H1939 H 0.13065 0.48439 0.52187 0.0
H1940 H 0.12976 0.48185 0.58313 0.0
H1941 H 0.19483 0.52211 0.62907 0.0
H1942 H 0.18907 0.5392 0.79489 0.0
H1943 H 0.18374 0.53581 0.73417 0.0
loop_
_geom_bond_atom_site_label_1
_geom_bond_atom_site_label_2
_geom_bond_distance
_geom_bond_site_symmetry_2
_ccdc_geom_bond_type
Co0 N4 2.148 . S
Co0 N10 2.128 1_545 S
Co0 N20 2.194 1_545 S
Co0 O25 2.351 1_545 S
Co0 O26 2.155 1_545 S
Co0 O27 2.096 . S
C1 N4 1.301 . S
C1 N5 1.328 . S
C1 H6 0.930 . S
C2 C3 1.333 . S
C2 N4 1.317 . S
C2 H7 0.930 . S
C3 C2 1.333 . S
C3 N5 1.350 . S
C3 H29 0.931 . S
N4 Co0 2.148 . S
N4 C1 1.301 . S
N4 C2 1.317 . S
N5 C1 1.328 . S
N5 C3 1.350 . S
H6 C1 0.930 . S
H7 C2 0.930 . S
C8 O9 1.224 . S
C8 O27 1.247 . S
O9 C8 1.224 . S
N10 Co0 2.128 1_565 S
N10 C11 1.355 . S
N10 C13 1.311 . S
C11 N10 1.355 . S
C11 C12 1.363 . S
C11 H23 0.929 . S
C12 C11 1.363 . S
C12 N14 1.375 . S
C12 H30 0.931 . S
C13 N10 1.311 . S
C13 N14 1.347 . S
C13 H24 0.929 . S
N14 C12 1.375 . S
N14 C13 1.347 . S
C15 C18 1.365 . S
C15 N20 1.328 . S
C15 H21 0.929 . S
C16 C17 1.362 . S
C16 C19 1.378 1_565 S
C16 H31 0.929 1_565 S
C17 C16 1.362 . S
C17 C18 1.366 . S
C18 C15 1.365 . S
C18 C17 1.366 . S
C18 H32 0.930 . S
C19 C16 1.378 1_545 S
C19 N20 1.315 1_545 S
C19 H22 0.930 . S
N20 Co0 2.194 1_565 S
N20 C15 1.328 . S
N20 C19 1.315 1_565 S
H21 C15 0.929 . S
H22 C19 0.930 . S
H23 C11 0.929 . S
H24 C13 0.929 . S
O25 Co0 2.351 1_565 S
O25 C28 1.244 . S
O26 Co0 2.155 1_565 S
O26 C28 1.240 . S
O27 Co0 2.096 . S
O27 C8 1.247 . S
C28 O25 1.244 . S
C28 O26 1.240 . S
H29 C3 0.931 . S
H30 C12 0.931 . S
H31 C16 0.929 1_545 S
H32 C18 0.930 . S
Co33 N37 2.148 . S
Co33 N43 2.128 1_655 S
Co33 N53 2.194 1_655 S
Co33 O58 2.351 1_655 S
Co33 O59 2.155 1_655 S
Co33 O60 2.096 . S
C34 N37 1.301 . S
C34 N38 1.328 . S
C34 H39 0.930 . S
C35 C36 1.333 . S
C35 N37 1.317 . S
C35 H40 0.930 . S
C36 C35 1.333 . S
C36 N38 1.350 . S
C36 H62 0.931 . S
N37 Co33 2.148 . S
N37 C34 1.301 . S
N37 C35 1.317 . S
N38 C34 1.328 . S
N38 C36 1.350 . S
H39 C34 0.930 . S
H40 C35 0.930 . S
C41 O42 1.224 . S
C41 O60 1.247 . S
O42 C41 1.224 . S
N43 Co33 2.128 1_455 S
N43 C44 1.355 . S
N43 C46 1.311 . S
C44 N43 1.355 . S
C44 C45 1.363 . S
C44 H56 0.929 . S
C45 C44 1.363 . S
C45 N47 1.375 . S
C45 H63 0.931 . S
C46 N43 1.311 . S
C46 N47 1.347 . S
C46 H57 0.929 . S
N47 C45 1.375 . S
N47 C46 1.347 . S
C48 C51 1.365 . S
C48 N53 1.328 . S
C48 H54 0.929 . S
C49 C50 1.362 . S
C49 C52 1.375 1_455 S
C49 H64 0.930 . S
C50 C49 1.362 . S
C50 C51 1.366 . S
C51 C48 1.365 . S
C51 C50 1.366 . S
C51 H65 0.930 . S
C52 C49 1.375 1_655 S
C52 N53 1.314 1_655 S
C52 H55 0.935 . S
N53 Co33 2.194 1_455 S
N53 C48 1.328 . S
N53 C52 1.314 1_455 S
H54 C48 0.929 . S
H55 C52 0.935 . S
H56 C44 0.929 . S
H57 C46 0.929 . S
O58 Co33 2.351 1_455 S
O58 C61 1.244 . S
O59 Co33 2.155 1_455 S
O59 C61 1.240 . S
O60 Co33 2.096 . S
O60 C41 1.247 . S
C61 O58 1.244 . S
C61 O59 1.240 . S
H62 C36 0.931 . S
H63 C45 0.931 . S
H64 C49 0.930 . S
H65 C51 0.930 . S
Co66 N70 2.148 . S
Co66 N76 2.128 . S
Co66 N86 2.194 . S
Co66 O91 2.351 . S
Co66 O92 2.155 . S
Co66 O93 2.096 . S
C67 N70 1.301 . S
C67 N71 1.328 . S
C67 H72 0.930 . S
C68 C69 1.333 . S
C68 N70 1.317 . S
C68 H73 0.930 . S
C69 C68 1.333 . S
C69 N71 1.350 . S
C69 H95 0.931 . S
N70 Co66 2.148 . S
N70 C67 1.301 . S
N70 C68 1.317 . S
N71 C67 1.328 . S
N71 C69 1.350 . S
H72 C67 0.930 . S
H73 C68 0.930 . S
C74 O75 1.224 . S
C74 O93 1.247 . S
O75 C74 1.224 . S
N76 Co66 2.128 . S
N76 C77 1.355 . S
N76 C79 1.311 . S
C77 N76 1.355 . S
C77 C78 1.363 . S
C77 H89 0.929 . S
C78 C77 1.363 . S
C78 N80 1.375 . S
C78 H96 0.931 . S
C79 N76 1.311 . S
C79 N80 1.347 . S
C79 H90 0.929 . S
N80 C78 1.375 . S
N80 C79 1.347 . S
C81 C84 1.365 . S
C81 N86 1.328 . S
C81 H87 0.929 . S
C82 C83 1.362 . S
C82 C85 1.378 . S
C82 H97 0.929 . S
C83 C82 1.362 . S
C83 C84 1.366 . S
C84 C81 1.365 . S
C84 C83 1.366 . S
C84 H98 0.930 . S
C85 C82 1.378 . S
C85 N86 1.315 . S
C85 H88 0.930 . S
N86 Co66 2.194 . S
N86 C81 1.328 . S
N86 C85 1.315 . S
H87 C81 0.929 . S
H88 C85 0.930 . S
H89 C77 0.929 . S
H90 C79 0.929 . S
O91 Co66 2.351 . S
O91 C94 1.244 . S
O92 Co66 2.155 . S
O92 C94 1.240 . S
O93 Co66 2.096 . S
O93 C74 1.247 . S
C94 O91 1.244 . S
C94 O92 1.240 . S
H95 C69 0.931 . S
H96 C78 0.931 . S
H97 C82 0.929 . S
H98 C84 0.930 . S
Co99 N103 2.148 . S
Co99 N109 2.128 1_455 S
Co99 N119 2.194 1_455 S
Co99 O124 2.351 1_455 S
Co99 O125 2.155 1_455 S
Co99 O126 2.096 . S
C100 N103 1.301 . S
C100 N104 1.328 . S
C100 H105 0.930 . S
C101 C102 1.333 . S
C101 N103 1.317 . S
C101 H106 0.930 . S
C102 C101 1.333 . S
C102 N104 1.350 . S
C102 H128 0.931 . S
N103 Co99 2.148 . S
N103 C100 1.301 . S
N103 C101 1.317 . S
N104 C100 1.328 . S
N104 C102 1.350 . S
H105 C100 0.930 . S
H106 C101 0.930 . S
C107 O108 1.224 . S
C107 O126 1.247 . S
O108 C107 1.224 . S
N109 Co99 2.128 1_655 S
N109 C110 1.355 . S
N109 C112 1.311 . S
C110 N109 1.355 . S
C110 C111 1.363 . S
C110 H122 0.929 . S
C111 C110 1.363 . S
C111 N113 1.375 . S
C111 H129 0.931 . S
C112 N109 1.311 . S
C112 N113 1.347 . S
C112 H123 0.929 . S
N113 C111 1.375 . S
N113 C112 1.347 . S
C114 C117 1.365 . S
C114 N119 1.328 . S
C114 H120 0.929 . S
C115 C116 1.362 . S
C115 C118 1.378 1_655 S
C115 H130 0.929 1_655 S
C116 C115 1.362 . S
C116 C117 1.366 . S
C117 C114 1.365 . S
C117 C116 1.366 . S
C117 H131 0.930 . S
C118 C115 1.378 1_455 S
C118 N119 1.315 1_455 S
C118 H121 0.930 . S
N119 Co99 2.194 1_655 S
N119 C114 1.328 . S
N119 C118 1.315 1_655 S
H120 C114 0.929 . S
H121 C118 0.930 . S
H122 C110 0.929 . S
H123 C112 0.929 . S
O124 Co99 2.351 1_655 S
O124 C127 1.244 . S
O125 Co99 2.155 1_655 S
O125 C127 1.240 . S
O126 Co99 2.096 . S
O126 C107 1.247 . S
C127 O124 1.244 . S
C127 O125 1.240 . S
H128 C102 0.931 . S
H129 C111 0.931 . S
H130 C115 0.929 1_455 S
H131 C117 0.930 . S
Co132 N136 2.148 . S
Co132 N142 2.128 . S
Co132 N152 2.194 . S
Co132 O157 2.351 . S
Co132 O158 2.155 . S
Co132 O159 2.096 . S
C133 N136 1.301 . S
C133 N137 1.328 . S
C133 H138 0.930 . S
C134 C135 1.333 . S
C134 N136 1.317 . S
C134 H139 0.930 . S
C135 C134 1.333 . S
C135 N137 1.350 . S
C135 H161 0.931 . S
N136 Co132 2.148 . S
N136 C133 1.301 . S
N136 C134 1.317 . S
N137 C133 1.328 . S
N137 C135 1.350 . S
H138 C133 0.930 . S
H139 C134 0.930 . S
C140 O141 1.224 . S
C140 O159 1.247 . S
O141 C140 1.224 . S
N142 Co132 2.128 . S
N142 C143 1.355 . S
N142 C145 1.311 . S
C143 N142 1.355 . S
C143 C144 1.363 . S
C143 H155 0.929 . S
C144 C143 1.363 . S
C144 N146 1.375 . S
C144 H162 0.931 . S
C145 N142 1.311 . S
C145 N146 1.347 . S
C145 H156 0.929 . S
N146 C144 1.375 . S
N146 C145 1.347 . S
C147 C150 1.365 . S
C147 N152 1.328 . S
C147 H153 0.929 . S
C148 C149 1.362 . S
C148 C151 1.378 . S
C148 H163 0.929 . S
C149 C148 1.362 . S
C149 C150 1.366 . S
C150 C147 1.365 . S
C150 C149 1.366 . S
C150 H164 0.930 . S
C151 C148 1.378 . S
C151 N152 1.315 . S
C151 H154 0.930 . S
N152 Co132 2.194 . S
N152 C147 1.328 . S
N152 C151 1.315 . S
H153 C147 0.929 . S
H154 C151 0.930 . S
H155 C143 0.929 . S
H156 C145 0.929 . S
O157 Co132 2.351 . S
O157 C160 1.244 . S
O158 Co132 2.155 . S
O158 C160 1.240 . S
O159 Co132 2.096 . S
O159 C140 1.247 . S
C160 O157 1.244 . S
C160 O158 1.240 . S
H161 C135 0.931 . S
H162 C144 0.931 . S
H163 C148 0.929 . S
H164 C150 0.930 . S
Co165 N169 2.148 . S
Co165 N175 2.128 1_565 S
Co165 N185 2.194 1_565 S
Co165 O190 2.351 1_565 S
Co165 O191 2.155 1_565 S
Co165 O192 2.096 . S
C166 N169 1.301 . S
C166 N170 1.328 . S
C166 H171 0.930 . S
C167 C168 1.333 . S
C167 N169 1.317 . S
C167 H172 0.930 . S
C168 C167 1.333 . S
C168 N170 1.350 . S
C168 H194 0.931 . S
N169 Co165 2.148 . S
N169 C166 1.301 . S
N169 C167 1.317 . S
N170 C166 1.328 . S
N170 C168 1.350 . S
H171 C166 0.930 . S
H172 C167 0.930 . S
C173 O174 1.224 . S
C173 O192 1.247 . S
O174 C173 1.224 . S
N175 Co165 2.128 1_545 S
N175 C176 1.355 . S
N175 C178 1.311 . S
C176 N175 1.355 . S
C176 C177 1.363 . S
C176 H188 0.929 . S
C177 C176 1.363 . S
C177 N179 1.375 . S
C177 H195 0.931 . S
C178 N175 1.311 . S
C178 N179 1.347 . S
C178 H189 0.929 . S
N179 C177 1.375 . S
N179 C178 1.347 . S
C180 C183 1.365 . S
C180 N185 1.328 . S
C180 H186 0.929 . S
C181 C182 1.362 . S
C181 C184 1.375 1_545 S
C181 H196 0.930 . S
C182 C181 1.362 . S
C182 C183 1.366 . S
C183 C180 1.365 . S
C183 C182 1.366 . S
C183 H197 0.930 . S
C184 C181 1.375 1_565 S
C184 N185 1.314 1_565 S
C184 H187 0.935 . S
N185 Co165 2.194 1_545 S
N185 C180 1.328 . S
N185 C184 1.314 1_545 S
H186 C180 0.929 . S
H187 C184 0.935 . S
H188 C176 0.929 . S
H189 C178 0.929 . S
O190 Co165 2.351 1_545 S
O190 C193 1.244 . S
O191 Co165 2.155 1_545 S
O191 C193 1.240 . S
O192 Co165 2.096 . S
O192 C173 1.247 . S
C193 O190 1.244 . S
C193 O191 1.240 . S
H194 C168 0.931 . S
H195 C177 0.931 . S
H196 C181 0.930 . S
H197 C183 0.930 . S
Co198 N202 2.148 . S
Co198 N208 2.128 . S
Co198 N218 2.194 . S
Co198 O223 2.351 . S
Co198 O224 2.155 . S
Co198 O225 2.096 . S
C199 N202 1.301 . S
C199 N203 1.328 . S
C199 H204 0.930 . S
C200 C201 1.333 . S
C200 N202 1.317 . S
C200 H205 0.930 . S
C201 C200 1.333 . S
C201 N203 1.350 . S
C201 H227 0.931 . S
N202 Co198 2.148 . S
N202 C199 1.301 . S
N202 C200 1.317 . S
N203 C199 1.328 . S
N203 C201 1.350 . S
H204 C199 0.930 . S
H205 C200 0.930 . S
C206 O207 1.224 . S
C206 O225 1.247 . S
O207 C206 1.224 . S
N208 Co198 2.128 . S
N208 C209 1.355 . S
N208 C211 1.311 . S
C209 N208 1.355 . S
C209 C210 1.363 . S
C209 H221 0.929 . S
C210 C209 1.363 . S
C210 N212 1.375 . S
C210 H228 0.931 . S
C211 N208 1.311 . S
C211 N212 1.347 . S
C211 H222 0.929 . S
N212 C210 1.375 . S
N212 C211 1.347 . S
C213 C216 1.365 . S
C213 N218 1.328 . S
C213 H219 0.929 . S
C214 C215 1.362 . S
C214 C217 1.378 . S
C214 H229 0.929 . S
C215 C214 1.362 . S
C215 C216 1.366 . S
C216 C213 1.365 . S
C216 C215 1.366 . S
C216 H230 0.930 . S
C217 C214 1.378 . S
C217 N218 1.315 . S
C217 H220 0.930 . S
N218 Co198 2.194 . S
N218 C213 1.328 . S
N218 C217 1.315 . S
H219 C213 0.929 . S
H220 C217 0.930 . S
H221 C209 0.929 . S
H222 C211 0.929 . S
O223 Co198 2.351 . S
O223 C226 1.244 . S
O224 Co198 2.155 . S
O224 C226 1.240 . S
O225 Co198 2.096 . S
O225 C206 1.247 . S
C226 O223 1.244 . S
C226 O224 1.240 . S
H227 C201 0.931 . S
H228 C210 0.931 . S
H229 C214 0.929 . S
H230 C216 0.930 . S
Co231 N235 2.148 . S
Co231 N241 2.128 . S
Co231 N251 2.194 . S
Co231 O256 2.351 . S
Co231 O257 2.155 . S
Co231 O258 2.096 . S
C232 N235 1.301 . S
C232 N236 1.328 . S
C232 H237 0.930 . S
C233 C234 1.333 . S
C233 N235 1.317 . S
C233 H238 0.930 . S
C234 C233 1.333 . S
C234 N236 1.350 . S
C234 H260 0.931 . S
N235 Co231 2.148 . S
N235 C232 1.301 . S
N235 C233 1.317 . S
N236 C232 1.328 . S
N236 C234 1.350 . S
H237 C232 0.930 . S
H238 C233 0.930 . S
C239 O240 1.224 . S
C239 O258 1.247 . S
O240 C239 1.224 . S
N241 Co231 2.128 . S
N241 C242 1.355 . S
N241 C244 1.311 . S
C242 N241 1.355 . S
C242 C243 1.363 . S
C242 H254 0.929 . S
C243 C242 1.363 . S
C243 N245 1.375 . S
C243 H261 0.931 . S
C244 N241 1.311 . S
C244 N245 1.347 . S
C244 H255 0.929 . S
N245 C243 1.375 . S
N245 C244 1.347 . S
C246 C249 1.365 . S
C246 N251 1.328 . S
C246 H252 0.929 . S
C247 C248 1.362 . S
C247 C250 1.378 . S
C247 H262 0.929 . S
C248 C247 1.362 . S
C248 C249 1.366 . S
C249 C246 1.365 . S
C249 C248 1.366 . S
C249 H263 0.930 . S
C250 C247 1.378 . S
C250 N251 1.315 . S
C250 H253 0.930 . S
N251 Co231 2.194 . S
N251 C246 1.328 . S
N251 C250 1.315 . S
H252 C246 0.929 . S
H253 C250 0.930 . S
H254 C242 0.929 . S
H255 C244 0.929 . S
O256 Co231 2.351 . S
O256 C259 1.244 . S
O257 Co231 2.155 . S
O257 C259 1.240 . S
O258 Co231 2.096 . S
O258 C239 1.247 . S
C259 O256 1.244 . S
C259 O257 1.240 . S
H260 C234 0.931 . S
H261 C243 0.931 . S
H262 C247 0.929 . S
H263 C249 0.930 . S
Co264 N268 2.148 . S
Co264 N274 2.128 . S
Co264 N284 2.194 . S
Co264 O289 2.351 . S
Co264 O290 2.155 . S
Co264 O291 2.096 . S
C265 N268 1.301 . S
C265 N269 1.328 . S
C265 H270 0.930 . S
C266 C267 1.333 . S
C266 N268 1.317 . S
C266 H271 0.930 . S
C267 C266 1.333 . S
C267 N269 1.350 . S
C267 H293 0.931 . S
N268 Co264 2.148 . S
N268 C265 1.301 . S
N268 C266 1.317 . S
N269 C265 1.328 . S
N269 C267 1.350 . S
H270 C265 0.930 . S
H271 C266 0.930 . S
C272 O273 1.224 . S
C272 O291 1.247 . S
O273 C272 1.224 . S
N274 Co264 2.128 . S
N274 C275 1.355 . S
N274 C277 1.311 . S
C275 N274 1.355 . S
C275 C276 1.363 . S
C275 H287 0.929 . S
C276 C275 1.363 . S
C276 N278 1.375 . S
C276 H294 0.931 . S
C277 N274 1.311 . S
C277 N278 1.347 . S
C277 H288 0.929 . S
N278 C276 1.375 . S
N278 C277 1.347 . S
C279 C282 1.365 . S
C279 N284 1.328 . S
C279 H285 0.929 . S
C280 C281 1.362 . S
C280 C283 1.378 . S
C280 H295 0.929 . S
C281 C280 1.362 . S
C281 C282 1.366 . S
C282 C279 1.365 . S
C282 C281 1.366 . S
C282 H296 0.930 . S
C283 C280 1.378 . S
C283 N284 1.315 . S
C283 H286 0.930 . S
N284 Co264 2.194 . S
N284 C279 1.328 . S
N284 C283 1.315 . S
H285 C279 0.929 . S
H286 C283 0.930 . S
H287 C275 0.929 . S
H288 C277 0.929 . S
O289 Co264 2.351 . S
O289 C292 1.244 . S
O290 Co264 2.155 . S
O290 C292 1.240 . S
O291 Co264 2.096 . S
O291 C272 1.247 . S
C292 O289 1.244 . S
C292 O290 1.240 . S
H293 C267 0.931 . S
H294 C276 0.931 . S
H295 C280 0.929 . S
H296 C282 0.930 . S
Co297 N301 2.148 . S
Co297 N307 2.128 . S
Co297 N317 2.194 . S
Co297 O322 2.351 . S
Co297 O323 2.155 . S
Co297 O324 2.096 . S
C298 N301 1.301 . S
C298 N302 1.328 . S
C298 H303 0.930 . S
C299 C300 1.333 . S
C299 N301 1.317 . S
C299 H304 0.930 . S
C300 C299 1.333 . S
C300 N302 1.350 . S
C300 H326 0.931 . S
N301 Co297 2.148 . S
N301 C298 1.301 . S
N301 C299 1.317 . S
N302 C298 1.328 . S
N302 C300 1.350 . S
H303 C298 0.930 . S
H304 C299 0.930 . S
C305 O306 1.224 . S
C305 O324 1.247 . S
O306 C305 1.224 . S
N307 Co297 2.128 . S
N307 C308 1.355 . S
N307 C310 1.311 . S
C308 N307 1.355 . S
C308 C309 1.363 . S
C308 H320 0.929 . S
C309 C308 1.363 . S
C309 N311 1.375 . S
C309 H327 0.931 . S
C310 N307 1.311 . S
C310 N311 1.347 . S
C310 H321 0.929 . S
N311 C309 1.375 . S
N311 C310 1.347 . S
C312 C315 1.365 . S
C312 N317 1.328 . S
C312 H318 0.929 . S
C313 C314 1.362 . S
C313 C316 1.378 . S
C313 H328 0.929 1_554 S
C314 C313 1.362 . S
C314 C315 1.366 . S
C315 C312 1.365 . S
C315 C314 1.366 . S
C315 H329 0.930 . S
C316 C313 1.378 . S
C316 N317 1.315 . S
C316 H319 0.930 . S
N317 Co297 2.194 . S
N317 C312 1.328 . S
N317 C316 1.315 . S
H318 C312 0.929 . S
H319 C316 0.930 . S
H320 C308 0.929 . S
H321 C310 0.929 . S
O322 Co297 2.351 . S
O322 C325 1.244 . S
O323 Co297 2.155 . S
O323 C325 1.240 . S
O324 Co297 2.096 . S
O324 C305 1.247 . S
C325 O322 1.244 . S
C325 O323 1.240 . S
H326 C300 0.931 . S
H327 C309 0.931 . S
H328 C313 0.929 1_556 S
H329 C315 0.930 . S
Co330 N334 2.148 . S
Co330 N340 2.128 . S
Co330 N350 2.194 . S
Co330 O355 2.351 . S
Co330 O356 2.155 . S
Co330 O357 2.096 . S
C331 N334 1.301 . S
C331 N335 1.328 . S
C331 H336 0.930 . S
C332 C333 1.333 . S
C332 N334 1.317 . S
C332 H337 0.930 . S
C333 C332 1.333 . S
C333 N335 1.350 . S
C333 H359 0.931 . S
N334 Co330 2.148 . S
N334 C331 1.301 . S
N334 C332 1.317 . S
N335 C331 1.328 . S
N335 C333 1.350 . S
H336 C331 0.930 . S
H337 C332 0.930 . S
C338 O339 1.224 . S
C338 O357 1.247 . S
O339 C338 1.224 . S
N340 Co330 2.128 . S
N340 C341 1.355 . S
N340 C343 1.311 . S
C341 N340 1.355 . S
C341 C342 1.363 . S
C341 H353 0.929 . S
C342 C341 1.363 . S
C342 N344 1.375 . S
C342 H360 0.931 . S
C343 N340 1.311 . S
C343 N344 1.347 . S
C343 H354 0.929 . S
N344 C342 1.375 . S
N344 C343 1.347 . S
C345 C348 1.365 . S
C345 N350 1.328 . S
C345 H351 0.929 . S
C346 C347 1.362 . S
C346 C349 1.378 . S
C346 H361 0.929 1_554 S
C347 C346 1.362 . S
C347 C348 1.366 . S
C348 C345 1.365 . S
C348 C347 1.366 . S
C348 H362 0.930 . S
C349 C346 1.378 . S
C349 N350 1.315 . S
C349 H352 0.930 . S
N350 Co330 2.194 . S
N350 C345 1.328 . S
N350 C349 1.315 . S
H351 C345 0.929 . S
H352 C349 0.930 . S
H353 C341 0.929 . S
H354 C343 0.929 . S
O355 Co330 2.351 . S
O355 C358 1.244 . S
O356 Co330 2.155 . S
O356 C358 1.240 . S
O357 Co330 2.096 . S
O357 C338 1.247 . S
C358 O355 1.244 . S
C358 O356 1.240 . S
H359 C333 0.931 . S
H360 C342 0.931 . S
H361 C346 0.929 1_556 S
H362 C348 0.930 . S
Co363 N367 2.148 . S
Co363 N373 2.128 . S
Co363 N383 2.194 . S
Co363 O388 2.351 . S
Co363 O389 2.155 . S
Co363 O390 2.096 . S
C364 N367 1.301 . S
C364 N368 1.328 . S
C364 H369 0.930 . S
C365 C366 1.333 . S
C365 N367 1.317 . S
C365 H370 0.930 . S
C366 C365 1.333 . S
C366 N368 1.350 . S
C366 H392 0.931 . S
N367 Co363 2.148 . S
N367 C364 1.301 . S
N367 C365 1.317 . S
N368 C364 1.328 . S
N368 C366 1.350 . S
H369 C364 0.930 . S
H370 C365 0.930 . S
C371 O372 1.224 . S
C371 O390 1.247 . S
O372 C371 1.224 . S
N373 Co363 2.128 . S
N373 C374 1.355 . S
N373 C376 1.311 . S
C374 N373 1.355 . S
C374 C375 1.363 . S
C374 H386 0.929 . S
C375 C374 1.363 . S
C375 N377 1.375 . S
C375 H393 0.931 . S
C376 N373 1.311 . S
C376 N377 1.347 . S
C376 H387 0.929 . S
N377 C375 1.375 . S
N377 C376 1.347 . S
C378 C381 1.365 . S
C378 N383 1.328 . S
C378 H384 0.929 . S
C379 C380 1.362 . S
C379 C382 1.378 . S
C379 H394 0.929 1_554 S
C380 C379 1.362 . S
C380 C381 1.366 . S
C381 C378 1.365 . S
C381 C380 1.366 . S
C381 H395 0.930 . S
C382 C379 1.378 . S
C382 N383 1.315 . S
C382 H385 0.930 . S
N383 Co363 2.194 . S
N383 C378 1.328 . S
N383 C382 1.315 . S
H384 C378 0.929 . S
H385 C382 0.930 . S
H386 C374 0.929 . S
H387 C376 0.929 . S
O388 Co363 2.351 . S
O388 C391 1.244 . S
O389 Co363 2.155 . S
O389 C391 1.240 . S
O390 Co363 2.096 . S
O390 C371 1.247 . S
C391 O388 1.244 . S
C391 O389 1.240 . S
H392 C366 0.931 . S
H393 C375 0.931 . S
H394 C379 0.929 1_556 S
H395 C381 0.930 . S
Co396 N400 2.148 . S
Co396 N406 2.128 . S
Co396 N416 2.194 . S
Co396 O421 2.351 . S
Co396 O422 2.155 . S
Co396 O423 2.096 . S
C397 N400 1.301 . S
C397 N401 1.328 . S
C397 H402 0.930 . S
C398 C399 1.333 . S
C398 N400 1.317 . S
C398 H403 0.930 . S
C399 C398 1.333 . S
C399 N401 1.350 . S
C399 H425 0.931 . S
N400 Co396 2.148 . S
N400 C397 1.301 . S
N400 C398 1.317 . S
N401 C397 1.328 . S
N401 C399 1.350 . S
H402 C397 0.930 . S
H403 C398 0.930 . S
C404 O405 1.224 . S
C404 O423 1.247 . S
O405 C404 1.224 . S
N406 Co396 2.128 . S
N406 C407 1.355 . S
N406 C409 1.311 . S
C407 N406 1.355 . S
C407 C408 1.363 . S
C407 H419 0.929 . S
C408 C407 1.363 . S
C408 N410 1.375 . S
C408 H426 0.931 . S
C409 N406 1.311 . S
C409 N410 1.347 . S
C409 H420 0.929 . S
N410 C408 1.375 . S
N410 C409 1.347 . S
C411 C414 1.365 . S
C411 N416 1.328 . S
C411 H417 0.929 . S
C412 C413 1.362 . S
C412 C415 1.378 . S
C412 H427 0.929 1_556 S
C413 C412 1.362 . S
C413 C414 1.366 . S
C414 C411 1.365 . S
C414 C413 1.366 . S
C414 H428 0.930 . S
C415 C412 1.378 . S
C415 N416 1.315 . S
C415 H418 0.930 . S
N416 Co396 2.194 . S
N416 C411 1.328 . S
N416 C415 1.315 . S
H417 C411 0.929 . S
H418 C415 0.930 . S
H419 C407 0.929 . S
H420 C409 0.929 . S
O421 Co396 2.351 . S
O421 C424 1.244 . S
O422 Co396 2.155 . S
O422 C424 1.240 . S
O423 Co396 2.096 . S
O423 C404 1.247 . S
C424 O421 1.244 . S
C424 O422 1.240 . S
H425 C399 0.931 . S
H426 C408 0.931 . S
H427 C412 0.929 1_554 S
H428 C414 0.930 . S
Co429 N433 2.148 . S
Co429 N439 2.128 . S
Co429 N449 2.194 . S
Co429 O454 2.351 . S
Co429 O455 2.155 . S
Co429 O456 2.096 . S
C430 N433 1.301 . S
C430 N434 1.328 . S
C430 H435 0.930 . S
C431 C432 1.333 . S
C431 N433 1.317 . S
C431 H436 0.930 . S
C432 C431 1.333 . S
C432 N434 1.350 . S
C432 H458 0.931 . S
N433 Co429 2.148 . S
N433 C430 1.301 . S
N433 C431 1.317 . S
N434 C430 1.328 . S
N434 C432 1.350 . S
H435 C430 0.930 . S
H436 C431 0.930 . S
C437 O438 1.224 . S
C437 O456 1.247 . S
O438 C437 1.224 . S
N439 Co429 2.128 . S
N439 C440 1.355 . S
N439 C442 1.311 . S
C440 N439 1.355 . S
C440 C441 1.363 . S
C440 H452 0.929 . S
C441 C440 1.363 . S
C441 N443 1.375 . S
C441 H459 0.931 . S
C442 N439 1.311 . S
C442 N443 1.347 . S
C442 H453 0.929 . S
N443 C441 1.375 . S
N443 C442 1.347 . S
C444 C447 1.365 . S
C444 N449 1.328 . S
C444 H450 0.929 . S
C445 C446 1.362 . S
C445 C448 1.378 . S
C445 H460 0.929 1_556 S
C446 C445 1.362 . S
C446 C447 1.366 . S
C447 C444 1.365 . S
C447 C446 1.366 . S
C447 H461 0.930 . S
C448 C445 1.378 . S
C448 N449 1.315 . S
C448 H451 0.930 . S
N449 Co429 2.194 . S
N449 C444 1.328 . S
N449 C448 1.315 . S
H450 C444 0.929 . S
H451 C448 0.930 . S
H452 C440 0.929 . S
H453 C442 0.929 . S
O454 Co429 2.351 . S
O454 C457 1.244 . S
O455 Co429 2.155 . S
O455 C457 1.240 . S
O456 Co429 2.096 . S
O456 C437 1.247 . S
C457 O454 1.244 . S
C457 O455 1.240 . S
H458 C432 0.931 . S
H459 C441 0.931 . S
H460 C445 0.929 1_554 S
H461 C447 0.930 . S
Co462 N466 2.148 . S
Co462 N472 2.128 . S
Co462 N482 2.194 . S
Co462 O487 2.351 . S
Co462 O488 2.155 . S
Co462 O489 2.096 . S
C463 N466 1.301 . S
C463 N467 1.328 . S
C463 H468 0.930 . S
C464 C465 1.333 . S
C464 N466 1.317 . S
C464 H469 0.930 . S
C465 C464 1.333 . S
C465 N467 1.350 . S
C465 H491 0.931 . S
N466 Co462 2.148 . S
N466 C463 1.301 . S
N466 C464 1.317 . S
N467 C463 1.328 . S
N467 C465 1.350 . S
H468 C463 0.930 . S
H469 C464 0.930 . S
C470 O471 1.224 . S
C470 O489 1.247 . S
O471 C470 1.224 . S
N472 Co462 2.128 . S
N472 C473 1.355 . S
N472 C475 1.311 . S
C473 N472 1.355 . S
C473 C474 1.363 . S
C473 H485 0.929 . S
C474 C473 1.363 . S
C474 N476 1.375 . S
C474 H492 0.931 . S
C475 N472 1.311 . S
C475 N476 1.347 . S
C475 H486 0.929 . S
N476 C474 1.375 . S
N476 C475 1.347 . S
C477 C480 1.365 . S
C477 N482 1.328 . S
C477 H483 0.929 . S
C478 C479 1.362 . S
C478 C481 1.378 . S
C478 H493 0.929 1_556 S
C479 C478 1.362 . S
C479 C480 1.366 . S
C480 C477 1.365 . S
C480 C479 1.366 . S
C480 H494 0.930 . S
C481 C478 1.378 . S
C481 N482 1.315 . S
C481 H484 0.930 . S
N482 Co462 2.194 . S
N482 C477 1.328 . S
N482 C481 1.315 . S
H483 C477 0.929 . S
H484 C481 0.930 . S
H485 C473 0.929 . S
H486 C475 0.929 . S
O487 Co462 2.351 . S
O487 C490 1.244 . S
O488 Co462 2.155 . S
O488 C490 1.240 . S
O489 Co462 2.096 . S
O489 C470 1.247 . S
C490 O487 1.244 . S
C490 O488 1.240 . S
H491 C465 0.931 . S
H492 C474 0.931 . S
H493 C478 0.929 1_554 S
H494 C480 0.930 . S
Co495 N499 2.148 . S
Co495 N505 2.128 . S
Co495 N515 2.194 . S
Co495 O520 2.351 . S
Co495 O521 2.155 . S
Co495 O522 2.096 . S
C496 N499 1.301 . S
C496 N500 1.328 . S
C496 H501 0.930 . S
C497 C498 1.333 . S
C497 N499 1.317 . S
C497 H502 0.930 . S
C498 C497 1.333 . S
C498 N500 1.350 . S
C498 H524 0.931 . S
N499 Co495 2.148 . S
N499 C496 1.301 . S
N499 C497 1.317 . S
N500 C496 1.328 . S
N500 C498 1.350 . S
H501 C496 0.930 . S
H502 C497 0.930 . S
C503 O504 1.224 . S
C503 O522 1.247 . S
O504 C503 1.224 . S
N505 Co495 2.128 . S
N505 C506 1.355 . S
N505 C508 1.311 . S
C506 N505 1.355 . S
C506 C507 1.363 . S
C506 H518 0.929 . S
C507 C506 1.363 . S
C507 N509 1.375 . S
C507 H525 0.931 . S
C508 N505 1.311 . S
C508 N509 1.347 . S
C508 H519 0.929 . S
N509 C507 1.375 . S
N509 C508 1.347 . S
C510 C513 1.365 . S
C510 N515 1.328 . S
C510 H516 0.929 . S
C511 C512 1.362 . S
C511 C514 1.378 . S
C511 H526 0.929 . S
C512 C511 1.362 . S
C512 C513 1.366 . S
C513 C510 1.365 . S
C513 C512 1.366 . S
C513 H527 0.930 . S
C514 C511 1.378 . S
C514 N515 1.315 . S
C514 H517 0.930 . S
N515 Co495 2.194 . S
N515 C510 1.328 . S
N515 C514 1.315 . S
H516 C510 0.929 . S
H517 C514 0.930 . S
H518 C506 0.929 . S
H519 C508 0.929 . S
O520 Co495 2.351 . S
O520 C523 1.244 . S
O521 Co495 2.155 . S
O521 C523 1.240 . S
O522 Co495 2.096 . S
O522 C503 1.247 . S
C523 O520 1.244 . S
C523 O521 1.240 . S
H524 C498 0.931 . S
H525 C507 0.931 . S
H526 C511 0.929 . S
H527 C513 0.930 . S
Co528 N532 2.148 . S
Co528 N538 2.128 . S
Co528 N548 2.194 . S
Co528 O553 2.351 . S
Co528 O554 2.155 . S
Co528 O555 2.096 . S
C529 N532 1.301 . S
C529 N533 1.328 . S
C529 H534 0.930 . S
C530 C531 1.333 . S
C530 N532 1.317 . S
C530 H535 0.930 . S
C531 C530 1.333 . S
C531 N533 1.350 . S
C531 H557 0.931 . S
N532 Co528 2.148 . S
N532 C529 1.301 . S
N532 C530 1.317 . S
N533 C529 1.328 . S
N533 C531 1.350 . S
H534 C529 0.930 . S
H535 C530 0.930 . S
C536 O537 1.224 . S
C536 O555 1.247 . S
O537 C536 1.224 . S
N538 Co528 2.128 . S
N538 C539 1.355 . S
N538 C541 1.311 . S
C539 N538 1.355 . S
C539 C540 1.363 . S
C539 H551 0.929 . S
C540 C539 1.363 . S
C540 N542 1.375 . S
C540 H558 0.931 . S
C541 N538 1.311 . S
C541 N542 1.347 . S
C541 H552 0.929 . S
N542 C540 1.375 . S
N542 C541 1.347 . S
C543 C546 1.365 . S
C543 N548 1.328 . S
C543 H549 0.929 . S
C544 C545 1.362 . S
C544 C547 1.378 . S
C544 H559 0.929 . S
C545 C544 1.362 . S
C545 C546 1.366 . S
C546 C543 1.365 . S
C546 C545 1.366 . S
C546 H560 0.930 . S
C547 C544 1.378 . S
C547 N548 1.315 . S
C547 H550 0.930 . S
N548 Co528 2.194 . S
N548 C543 1.328 . S
N548 C547 1.315 . S
H549 C543 0.929 . S
H550 C547 0.930 . S
H551 C539 0.929 . S
H552 C541 0.929 . S
O553 Co528 2.351 . S
O553 C556 1.244 . S
O554 Co528 2.155 . S
O554 C556 1.240 . S
O555 Co528 2.096 . S
O555 C536 1.247 . S
C556 O553 1.244 . S
C556 O554 1.240 . S
H557 C531 0.931 . S
H558 C540 0.931 . S
H559 C544 0.929 . S
H560 C546 0.930 . S
Co561 N565 2.148 . S
Co561 N571 2.128 . S
Co561 N581 2.194 . S
Co561 O586 2.351 . S
Co561 O587 2.155 . S
Co561 O588 2.096 . S
C562 N565 1.301 . S
C562 N566 1.328 . S
C562 H567 0.930 . S
C563 C564 1.333 . S
C563 N565 1.317 . S
C563 H568 0.930 . S
C564 C563 1.333 . S
C564 N566 1.350 . S
C564 H590 0.931 . S
N565 Co561 2.148 . S
N565 C562 1.301 . S
N565 C563 1.317 . S
N566 C562 1.328 . S
N566 C564 1.350 . S
H567 C562 0.930 . S
H568 C563 0.930 . S
C569 O570 1.224 . S
C569 O588 1.247 . S
O570 C569 1.224 . S
N571 Co561 2.128 . S
N571 C572 1.355 . S
N571 C574 1.311 . S
C572 N571 1.355 . S
C572 C573 1.363 . S
C572 H584 0.929 . S
C573 C572 1.363 . S
C573 N575 1.375 . S
C573 H591 0.931 . S
C574 N571 1.311 . S
C574 N575 1.347 . S
C574 H585 0.929 . S
N575 C573 1.375 . S
N575 C574 1.347 . S
C576 C579 1.365 . S
C576 N581 1.328 . S
C576 H582 0.929 . S
C577 C578 1.362 . S
C577 C580 1.378 . S
C577 H592 0.929 . S
C578 C577 1.362 . S
C578 C579 1.366 . S
C579 C576 1.365 . S
C579 C578 1.366 . S
C579 H593 0.930 . S
C580 C577 1.378 . S
C580 N581 1.315 . S
C580 H583 0.930 . S
N581 Co561 2.194 . S
N581 C576 1.328 . S
N581 C580 1.315 . S
H582 C576 0.929 . S
H583 C580 0.930 . S
H584 C572 0.929 . S
H585 C574 0.929 . S
O586 Co561 2.351 . S
O586 C589 1.244 . S
O587 Co561 2.155 . S
O587 C589 1.240 . S
O588 Co561 2.096 . S
O588 C569 1.247 . S
C589 O586 1.244 . S
C589 O587 1.240 . S
H590 C564 0.931 . S
H591 C573 0.931 . S
H592 C577 0.929 . S
H593 C579 0.930 . S
C594 C595 1.349 . S
C594 C596 1.327 . S
C594 H619 0.950 . S
C595 C594 1.349 . S
C595 C611 1.349 . S
C596 C594 1.327 . S
C596 C615 1.429 . S
C596 H620 0.950 . S
C597 C614 1.574 . S
C597 C616 1.368 . S
C597 H621 0.949 . S
H598 C602 0.949 . S
C599 C600 1.349 . S
C599 C601 1.327 . S
C599 H622 0.950 . S
C600 C599 1.349 . S
C600 C612 1.349 . S
C601 C599 1.327 . S
C601 C617 1.429 . S
C601 H623 0.950 . S
C602 H598 0.949 . S
C602 C610 1.574 . S
C602 C618 1.368 . S
H603 C611 0.950 . S
H604 C609 0.950 . S
H605 C610 0.949 . S
H606 C612 0.950 . S
H607 C613 0.950 . S
H608 C614 0.949 . S
C609 H604 0.950 . S
C609 C611 1.327 . S
C609 C615 1.429 . S
C610 C602 1.574 . S
C610 H605 0.949 . S
C610 C616 1.368 . S
C611 C595 1.349 . S
C611 H603 0.950 . S
C611 C609 1.327 . S
C612 C600 1.349 . S
C612 H606 0.950 . S
C612 C613 1.327 . S
C613 H607 0.950 . S
C613 C612 1.327 . S
C613 C617 1.429 . S
C614 C597 1.574 . S
C614 H608 0.949 . S
C614 C618 1.368 . S
C615 C596 1.429 . S
C615 C609 1.429 . S
C615 C616 1.523 . S
C616 C597 1.368 . S
C616 C610 1.368 . S
C616 C615 1.523 . S
C617 C601 1.429 . S
C617 C613 1.429 . S
C617 C618 1.523 . S
C618 C602 1.368 . S
C618 C614 1.368 . S
C618 C617 1.523 . S
H619 C594 0.950 . S
H620 C596 0.950 . S
H621 C597 0.949 . S
H622 C599 0.950 . S
H623 C601 0.950 . S
C624 C625 1.349 . S
C624 C626 1.327 . S
C624 H649 0.950 . S
C625 C624 1.349 . S
C625 C641 1.349 . S
C626 C624 1.327 . S
C626 C645 1.429 . S
C626 H650 0.950 . S
C627 C644 1.574 1_565 S
C627 C646 1.368 . S
C627 H651 0.949 . S
H628 C632 0.949 . S
C629 C630 1.349 . S
C629 C631 1.327 . S
C629 H652 0.950 . S
C630 C629 1.349 . S
C630 C642 1.349 . S
C631 C629 1.327 . S
C631 C647 1.429 . S
C631 H653 0.950 . S
C632 H628 0.949 . S
C632 C640 1.523 1_545 S
C632 C648 1.368 . S
H633 C641 0.950 . S
H634 C639 0.950 . S
H635 C640 0.991 . S
H636 C642 0.950 . S
H637 C643 0.950 . S
H638 C644 0.949 . S
C639 H634 0.950 . S
C639 C641 1.327 . S
C639 C645 1.429 . S
C640 C632 1.523 1_565 S
C640 H635 0.991 . S
C640 C646 1.375 . S
C641 C625 1.349 . S
C641 H633 0.950 . S
C641 C639 1.327 . S
C642 C630 1.349 . S
C642 H636 0.950 . S
C642 C643 1.327 . S
C643 H637 0.950 . S
C643 C642 1.327 . S
C643 C647 1.429 . S
C644 C627 1.574 1_545 S
C644 H638 0.949 . S
C644 C648 1.368 . S
C645 C626 1.429 . S
C645 C639 1.429 . S
C645 C646 1.523 . S
C646 C627 1.368 . S
C646 C640 1.375 . S
C646 C645 1.523 . S
C647 C631 1.429 . S
C647 C643 1.429 . S
C647 C648 1.523 . S
C648 C632 1.368 . S
C648 C644 1.368 . S
C648 C647 1.523 . S
H649 C624 0.950 . S
H650 C626 0.950 . S
H651 C627 0.949 . S
H652 C629 0.950 . S
H653 C631 0.950 . S
C654 C655 1.349 . S
C654 C656 1.327 . S
C654 H679 0.950 . S
C655 C654 1.349 . S
C655 C671 1.349 . S
C656 C654 1.327 . S
C656 C675 1.429 . S
C656 H680 0.950 . S
C657 C674 1.574 1_655 S
C657 C676 1.368 . S
C657 H681 0.949 . S
H658 C662 0.949 . S
C659 C660 1.349 . S
C659 C661 1.327 . S
C659 H682 0.950 . S
C660 C659 1.349 . S
C660 C672 1.349 . S
C661 C659 1.327 . S
C661 C677 1.429 . S
C661 H683 0.950 . S
C662 H658 0.949 . S
C662 C670 1.574 1_455 S
C662 C678 1.368 . S
H663 C671 0.950 . S
H664 C669 0.950 . S
H665 C670 0.949 . S
H666 C672 0.950 . S
H667 C673 0.950 . S
H668 C674 0.949 . S
C669 H664 0.950 . S
C669 C671 1.327 . S
C669 C675 1.429 . S
C670 C662 1.574 1_655 S
C670 H665 0.949 . S
C670 C676 1.368 . S
C671 C655 1.349 . S
C671 H663 0.950 . S
C671 C669 1.327 . S
C672 C660 1.349 . S
C672 H666 0.950 . S
C672 C673 1.327 . S
C673 H667 0.950 . S
C673 C672 1.327 . S
C673 C677 1.429 . S
C674 C657 1.574 1_455 S
C674 H668 0.949 . S
C674 C678 1.368 . S
C675 C656 1.429 . S
C675 C669 1.429 . S
C675 C676 1.523 . S
C676 C657 1.368 . S
C676 C670 1.368 . S
C676 C675 1.523 . S
C677 C661 1.429 . S
C677 C673 1.429 . S
C677 C678 1.523 . S
C678 C662 1.368 . S
C678 C674 1.368 . S
C678 C677 1.523 . S
H679 C654 0.950 . S
H680 C656 0.950 . S
H681 C657 0.949 . S
H682 C659 0.950 . S
H683 C661 0.950 . S
C684 C685 1.349 . S
C684 C686 1.327 . S
C684 H709 0.950 . S
C685 C684 1.349 . S
C685 C701 1.349 . S
C686 C684 1.327 . S
C686 C705 1.429 . S
C686 H710 0.950 . S
C687 C704 1.574 . S
C687 C706 1.368 . S
C687 H711 0.949 . S
H688 C692 0.949 . S
C689 C690 1.349 . S
C689 C691 1.327 . S
C689 H712 0.950 . S
C690 C689 1.349 . S
C690 C702 1.349 . S
C691 C689 1.327 . S
C691 C707 1.429 . S
C691 H713 0.950 . S
C692 H688 0.949 . S
C692 C700 1.574 . S
C692 C708 1.368 . S
H693 C701 0.950 . S
H694 C699 0.950 . S
H695 C700 0.949 . S
H696 C702 0.950 . S
H697 C703 0.950 . S
H698 C704 0.949 . S
C699 H694 0.950 . S
C699 C701 1.327 . S
C699 C705 1.429 . S
C700 C692 1.574 . S
C700 H695 0.949 . S
C700 C706 1.368 . S
C701 C685 1.349 . S
C701 H693 0.950 . S
C701 C699 1.327 . S
C702 C690 1.349 . S
C702 H696 0.950 . S
C702 C703 1.327 . S
C703 H697 0.950 . S
C703 C702 1.327 . S
C703 C707 1.429 . S
C704 C687 1.574 . S
C704 H698 0.949 . S
C704 C708 1.368 . S
C705 C686 1.429 . S
C705 C699 1.429 . S
C705 C706 1.523 . S
C706 C687 1.368 . S
C706 C700 1.368 . S
C706 C705 1.523 . S
C707 C691 1.429 . S
C707 C703 1.429 . S
C707 C708 1.523 . S
C708 C692 1.368 . S
C708 C704 1.368 . S
C708 C707 1.523 . S
H709 C684 0.950 . S
H710 C686 0.950 . S
H711 C687 0.949 . S
H712 C689 0.950 . S
H713 C691 0.950 . S
C714 C715 1.349 . S
C714 C716 1.327 . S
C714 H739 0.950 . S
C715 C714 1.349 . S
C715 C731 1.349 . S
C716 C714 1.327 . S
C716 C735 1.429 . S
C716 H740 0.950 . S
C717 C734 1.574 1_545 S
C717 C736 1.368 . S
C717 H741 0.949 . S
H718 C722 0.949 . S
C719 C720 1.349 . S
C719 C721 1.327 . S
C719 H742 0.950 . S
C720 C719 1.349 . S
C720 C732 1.349 . S
C721 C719 1.327 . S
C721 C737 1.429 . S
C721 H743 0.950 . S
C722 H718 0.949 . S
C722 C730 1.574 1_565 S
C722 C738 1.368 . S
H723 C731 0.950 . S
H724 C729 0.950 . S
H725 C730 0.949 . S
H726 C732 0.950 . S
H727 C733 0.950 . S
H728 C734 0.949 . S
C729 H724 0.950 . S
C729 C731 1.327 . S
C729 C735 1.429 . S
C730 C722 1.574 1_545 S
C730 H725 0.949 . S
C730 C736 1.368 . S
C731 C715 1.349 . S
C731 H723 0.950 . S
C731 C729 1.327 . S
C732 C720 1.349 . S
C732 H726 0.950 . S
C732 C733 1.327 . S
C733 H727 0.950 . S
C733 C732 1.327 . S
C733 C737 1.429 . S
C734 C717 1.574 1_565 S
C734 H728 0.949 . S
C734 C738 1.368 . S
C735 C716 1.429 . S
C735 C729 1.429 . S
C735 C736 1.523 . S
C736 C717 1.368 . S
C736 C730 1.368 . S
C736 C735 1.523 . S
C737 C721 1.429 . S
C737 C733 1.429 . S
C737 C738 1.523 . S
C738 C722 1.368 . S
C738 C734 1.368 . S
C738 C737 1.523 . S
H739 C714 0.950 . S
H740 C716 0.950 . S
H741 C717 0.949 . S
H742 C719 0.950 . S
H743 C721 0.950 . S
C744 C745 1.349 . S
C744 C746 1.327 . S
C744 H769 0.950 . S
C745 C744 1.349 . S
C745 C761 1.349 . S
C746 C744 1.327 . S
C746 C765 1.429 . S
C746 H770 0.950 . S
C747 C764 1.574 1_455 S
C747 C766 1.368 . S
C747 H771 0.949 . S
H748 C752 0.949 . S
C749 C750 1.349 . S
C749 C751 1.327 . S
C749 H772 0.950 . S
C750 C749 1.349 . S
C750 C762 1.349 . S
C751 C749 1.327 . S
C751 C767 1.429 . S
C751 H773 0.950 . S
C752 H748 0.949 . S
C752 C760 1.574 1_655 S
C752 C768 1.368 . S
H753 C761 0.950 . S
H754 C759 0.950 . S
H755 C760 0.949 . S
H756 C762 0.950 . S
H757 C763 0.950 . S
H758 C764 0.949 . S
C759 H754 0.950 . S
C759 C761 1.327 . S
C759 C765 1.429 . S
C760 C752 1.574 1_455 S
C760 H755 0.949 . S
C760 C766 1.368 . S
C761 C745 1.349 . S
C761 H753 0.950 . S
C761 C759 1.327 . S
C762 C750 1.349 . S
C762 H756 0.950 . S
C762 C763 1.327 . S
C763 H757 0.950 . S
C763 C762 1.327 . S
C763 C767 1.429 . S
C764 C747 1.574 1_655 S
C764 H758 0.949 . S
C764 C768 1.368 . S
C765 C746 1.429 . S
C765 C759 1.429 . S
C765 C766 1.523 . S
C766 C747 1.368 . S
C766 C760 1.368 . S
C766 C765 1.523 . S
C767 C751 1.429 . S
C767 C763 1.429 . S
C767 C768 1.523 . S
C768 C752 1.368 . S
C768 C764 1.368 . S
C768 C767 1.523 . S
H769 C744 0.950 . S
H770 C746 0.950 . S
H771 C747 0.949 . S
H772 C749 0.950 . S
H773 C751 0.950 . S
C774 C775 1.349 . S
C774 C776 1.327 . S
C774 H799 0.950 . S
C775 C774 1.349 . S
C775 C791 1.349 . S
C776 C774 1.327 . S
C776 C795 1.429 . S
C776 H800 0.950 . S
C777 C794 1.574 . S
C777 C796 1.368 . S
C777 H801 0.949 . S
H778 C782 0.949 . S
C779 C780 1.349 . S
C779 C781 1.327 . S
C779 H802 0.950 . S
C780 C779 1.349 . S
C780 C792 1.349 . S
C781 C779 1.327 . S
C781 C797 1.429 . S
C781 H803 0.950 . S
C782 H778 0.949 . S
C782 C790 1.574 . S
C782 C798 1.368 . S
H783 C791 0.950 . S
H784 C789 0.950 . S
H785 C790 0.949 . S
H786 C792 0.950 . S
H787 C793 0.950 . S
H788 C794 0.949 . S
C789 H784 0.950 . S
C789 C791 1.327 . S
C789 C795 1.429 . S
C790 C782 1.574 . S
C790 H785 0.949 . S
C790 C796 1.368 . S
C791 C775 1.349 . S
C791 H783 0.950 . S
C791 C789 1.327 . S
C792 C780 1.349 . S
C792 H786 0.950 . S
C792 C793 1.327 . S
C793 H787 0.950 . S
C793 C792 1.327 . S
C793 C797 1.429 . S
C794 C777 1.574 . S
C794 H788 0.949 . S
C794 C798 1.368 . S
C795 C776 1.429 . S
C795 C789 1.429 . S
C795 C796 1.523 . S
C796 C777 1.368 . S
C796 C790 1.368 . S
C796 C795 1.523 . S
C797 C781 1.429 . S
C797 C793 1.429 . S
C797 C798 1.523 . S
C798 C782 1.368 . S
C798 C794 1.368 . S
C798 C797 1.523 . S
H799 C774 0.950 . S
H800 C776 0.950 . S
H801 C777 0.949 . S
H802 C779 0.950 . S
H803 C781 0.950 . S
C804 C805 1.349 . S
C804 C806 1.327 . S
C804 H829 0.950 . S
C805 C804 1.349 . S
C805 C821 1.349 . S
C806 C804 1.327 . S
C806 C825 1.429 . S
C806 H830 0.950 . S
C807 C824 1.574 . S
C807 C826 1.368 . S
C807 H831 0.949 . S
H808 C812 0.949 . S
C809 C810 1.349 . S
C809 C811 1.327 . S
C809 H832 0.950 . S
C810 C809 1.349 . S
C810 C822 1.349 . S
C811 C809 1.327 . S
C811 C827 1.429 . S
C811 H833 0.950 . S
C812 H808 0.949 . S
C812 C820 1.574 . S
C812 C828 1.368 . S
H813 C821 0.950 . S
H814 C819 0.950 . S
H815 C820 0.949 . S
H816 C822 0.950 . S
H817 C823 0.950 . S
H818 C824 0.949 . S
C819 H814 0.950 . S
C819 C821 1.327 . S
C819 C825 1.429 . S
C820 C812 1.574 . S
C820 H815 0.949 . S
C820 C826 1.368 . S
C821 C805 1.349 . S
C821 H813 0.950 . S
C821 C819 1.327 . S
C822 C810 1.349 . S
C822 H816 0.950 . S
C822 C823 1.327 . S
C823 H817 0.950 . S
C823 C822 1.327 . S
C823 C827 1.429 . S
C824 C807 1.574 . S
C824 H818 0.949 . S
C824 C828 1.368 . S
C825 C806 1.429 . S
C825 C819 1.429 . S
C825 C826 1.523 . S
C826 C807 1.368 . S
C826 C820 1.368 . S
C826 C825 1.523 . S
C827 C811 1.429 . S
C827 C823 1.429 . S
C827 C828 1.523 . S
C828 C812 1.368 . S
C828 C824 1.368 . S
C828 C827 1.523 . S
H829 C804 0.950 . S
H830 C806 0.950 . S
H831 C807 0.949 . S
H832 C809 0.950 . S
H833 C811 0.950 . S
C834 C835 1.349 . S
C834 C836 1.327 . S
C834 H859 0.950 . S
C835 C834 1.349 . S
C835 C851 1.349 . S
C836 C834 1.327 . S
C836 C855 1.429 . S
C836 H860 0.950 . S
C837 C854 1.574 . S
C837 C856 1.368 . S
C837 H861 0.949 . S
H838 C842 0.949 . S
C839 C840 1.349 . S
C839 C841 1.327 . S
C839 H862 0.950 . S
C840 C839 1.349 . S
C840 C852 1.349 . S
C841 C839 1.327 . S
C841 C857 1.429 . S
C841 H863 0.950 . S
C842 H838 0.949 . S
C842 C850 1.574 . S
C842 C858 1.368 . S
H843 C851 0.950 . S
H844 C849 0.950 . S
H845 C850 0.949 . S
H846 C852 0.950 . S
H847 C853 0.950 . S
H848 C854 0.949 . S
C849 H844 0.950 . S
C849 C851 1.327 . S
C849 C855 1.429 . S
C850 C842 1.574 . S
C850 H845 0.949 . S
C850 C856 1.368 . S
C851 C835 1.349 . S
C851 H843 0.950 . S
C851 C849 1.327 . S
C852 C840 1.349 . S
C852 H846 0.950 . S
C852 C853 1.327 . S
C853 H847 0.950 . S
C853 C852 1.327 . S
C853 C857 1.429 . S
C854 C837 1.574 . S
C854 H848 0.949 . S
C854 C858 1.368 . S
C855 C836 1.429 . S
C855 C849 1.429 . S
C855 C856 1.523 . S
C856 C837 1.368 . S
C856 C850 1.368 . S
C856 C855 1.523 . S
C857 C841 1.429 . S
C857 C853 1.429 . S
C857 C858 1.523 . S
C858 C842 1.368 . S
C858 C854 1.368 . S
C858 C857 1.523 . S
H859 C834 0.950 . S
H860 C836 0.950 . S
H861 C837 0.949 . S
H862 C839 0.950 . S
H863 C841 0.950 . S
C864 C865 1.349 . S
C864 C866 1.327 . S
C864 H889 0.950 . S
C865 C864 1.349 . S
C865 C881 1.349 . S
C866 C864 1.327 . S
C866 C885 1.429 . S
C866 H890 0.950 . S
C867 C884 1.574 . S
C867 C886 1.368 . S
C867 H891 0.949 . S
H868 C872 0.949 . S
C869 C870 1.349 . S
C869 C871 1.327 . S
C869 H892 0.950 . S
C870 C869 1.349 . S
C870 C882 1.349 . S
C871 C869 1.327 . S
C871 C887 1.429 . S
C871 H893 0.950 . S
C872 H868 0.949 . S
C872 C880 1.574 . S
C872 C888 1.368 . S
H873 C881 0.950 . S
H874 C879 0.950 . S
H875 C880 0.949 . S
H876 C882 0.950 . S
H877 C883 0.950 . S
H878 C884 0.949 . S
C879 H874 0.950 . S
C879 C881 1.327 . S
C879 C885 1.429 . S
C880 C872 1.574 . S
C880 H875 0.949 . S
C880 C886 1.368 . S
C881 C865 1.349 . S
C881 H873 0.950 . S
C881 C879 1.327 . S
C882 C870 1.349 . S
C882 H876 0.950 . S
C882 C883 1.327 . S
C883 H877 0.950 . S
C883 C882 1.327 . S
C883 C887 1.429 . S
C884 C867 1.574 . S
C884 H878 0.949 . S
C884 C888 1.368 . S
C885 C866 1.429 . S
C885 C879 1.429 . S
C885 C886 1.523 . S
C886 C867 1.368 . S
C886 C880 1.368 . S
C886 C885 1.523 . S
C887 C871 1.429 . S
C887 C883 1.429 . S
C887 C888 1.523 . S
C888 C872 1.368 . S
C888 C884 1.368 . S
C888 C887 1.523 . S
H889 C864 0.950 . S
H890 C866 0.950 . S
H891 C867 0.949 . S
H892 C869 0.950 . S
H893 C871 0.950 . S
C894 C895 1.349 . S
C894 C896 1.327 . S
C894 H919 0.950 . S
C895 C894 1.349 . S
C895 C911 1.349 . S
C896 C894 1.327 . S
C896 C915 1.429 . S
C896 H920 0.950 . S
C897 C914 1.574 . S
C897 C916 1.368 . S
C897 H921 0.949 . S
H898 C902 0.949 . S
C899 C900 1.349 . S
C899 C901 1.327 . S
C899 H922 0.950 . S
C900 C899 1.349 . S
C900 C912 1.349 . S
C901 C899 1.327 . S
C901 C917 1.429 . S
C901 H923 0.950 . S
C902 H898 0.949 . S
C902 C910 1.574 . S
C902 C918 1.368 . S
H903 C911 0.950 . S
H904 C909 0.950 . S
H905 C910 0.949 . S
H906 C912 0.950 . S
H907 C913 0.950 . S
H908 C914 0.949 . S
C909 H904 0.950 . S
C909 C911 1.327 . S
C909 C915 1.429 . S
C910 C902 1.574 . S
C910 H905 0.949 . S
C910 C916 1.368 . S
C911 C895 1.349 . S
C911 H903 0.950 . S
C911 C909 1.327 . S
C912 C900 1.349 . S
C912 H906 0.950 . S
C912 C913 1.327 . S
C913 H907 0.950 . S
C913 C912 1.327 . S
C913 C917 1.429 . S
C914 C897 1.574 . S
C914 H908 0.949 . S
C914 C918 1.368 . S
C915 C896 1.429 . S
C915 C909 1.429 . S
C915 C916 1.523 . S
C916 C897 1.368 . S
C916 C910 1.368 . S
C916 C915 1.523 . S
C917 C901 1.429 . S
C917 C913 1.429 . S
C917 C918 1.523 . S
C918 C902 1.368 . S
C918 C914 1.368 . S
C918 C917 1.523 . S
H919 C894 0.950 . S
H920 C896 0.950 . S
H921 C897 0.949 . S
H922 C899 0.950 . S
H923 C901 0.950 . S
C924 C925 1.349 . S
C924 C926 1.327 . S
C924 H949 0.950 . S
C925 C924 1.349 . S
C925 C941 1.349 . S
C926 C924 1.327 . S
C926 C945 1.429 . S
C926 H950 0.950 . S
C927 C944 1.574 . S
C927 C946 1.368 . S
C927 H951 0.949 . S
H928 C932 0.949 . S
C929 C930 1.349 . S
C929 C931 1.327 . S
C929 H952 0.950 . S
C930 C929 1.349 . S
C930 C942 1.349 . S
C931 C929 1.327 . S
C931 C947 1.429 . S
C931 H953 0.950 . S
C932 H928 0.949 . S
C932 C940 1.574 . S
C932 C948 1.368 . S
H933 C941 0.950 . S
H934 C939 0.950 . S
H935 C940 0.949 . S
H936 C942 0.950 . S
H937 C943 0.950 . S
H938 C944 0.949 . S
C939 H934 0.950 . S
C939 C941 1.327 . S
C939 C945 1.429 . S
C940 C932 1.574 . S
C940 H935 0.949 . S
C940 C946 1.368 . S
C941 C925 1.349 . S
C941 H933 0.950 . S
C941 C939 1.327 . S
C942 C930 1.349 . S
C942 H936 0.950 . S
C942 C943 1.327 . S
C943 H937 0.950 . S
C943 C942 1.327 . S
C943 C947 1.429 . S
C944 C927 1.574 . S
C944 H938 0.949 . S
C944 C948 1.368 . S
C945 C926 1.429 . S
C945 C939 1.429 . S
C945 C946 1.523 . S
C946 C927 1.368 . S
C946 C940 1.368 . S
C946 C945 1.523 . S
C947 C931 1.429 . S
C947 C943 1.429 . S
C947 C948 1.523 . S
C948 C932 1.368 . S
C948 C944 1.368 . S
C948 C947 1.523 . S
H949 C924 0.950 . S
H950 C926 0.950 . S
H951 C927 0.949 . S
H952 C929 0.950 . S
H953 C931 0.950 . S
C954 C955 1.349 . S
C954 C956 1.327 . S
C954 H979 0.950 . S
C955 C954 1.349 . S
C955 C971 1.349 . S
C956 C954 1.327 . S
C956 C975 1.429 . S
C956 H980 0.950 . S
C957 C974 1.574 . S
C957 C976 1.368 . S
C957 H981 0.949 . S
H958 C962 0.949 . S
C959 C960 1.349 . S
C959 C961 1.327 . S
C959 H982 0.950 . S
C960 C959 1.349 . S
C960 C972 1.349 . S
C961 C959 1.327 . S
C961 C977 1.429 . S
C961 H983 0.950 . S
C962 H958 0.949 . S
C962 C970 1.574 . S
C962 C978 1.368 . S
H963 C971 0.950 . S
H964 C969 0.950 . S
H965 C970 0.949 . S
H966 C972 0.950 . S
H967 C973 0.950 . S
H968 C974 0.949 . S
C969 H964 0.950 . S
C969 C971 1.327 . S
C969 C975 1.429 . S
C970 C962 1.574 . S
C970 H965 0.949 . S
C970 C976 1.368 . S
C971 C955 1.349 . S
C971 H963 0.950 . S
C971 C969 1.327 . S
C972 C960 1.349 . S
C972 H966 0.950 . S
C972 C973 1.327 . S
C973 H967 0.950 . S
C973 C972 1.327 . S
C973 C977 1.429 . S
C974 C957 1.574 . S
C974 H968 0.949 . S
C974 C978 1.368 . S
C975 C956 1.429 . S
C975 C969 1.429 . S
C975 C976 1.523 . S
C976 C957 1.368 . S
C976 C970 1.368 . S
C976 C975 1.523 . S
C977 C961 1.429 . S
C977 C973 1.429 . S
C977 C978 1.523 . S
C978 C962 1.368 . S
C978 C974 1.368 . S
C978 C977 1.523 . S
H979 C954 0.950 . S
H980 C956 0.950 . S
H981 C957 0.949 . S
H982 C959 0.950 . S
H983 C961 0.950 . S
C984 C985 1.349 . S
C984 C986 1.327 . S
C984 H1009 0.950 . S
C985 C984 1.349 . S
C985 C1001 1.349 . S
C986 C984 1.327 . S
C986 C1005 1.429 . S
C986 H1010 0.950 . S
C987 C1004 1.574 . S
C987 C1006 1.368 . S
C987 H1011 0.949 . S
H988 C992 0.949 . S
C989 C990 1.349 . S
C989 C991 1.327 . S
C989 H1012 0.950 . S
C990 C989 1.349 . S
C990 C1002 1.349 . S
C991 C989 1.327 . S
C991 C1007 1.429 . S
C991 H1013 0.950 . S
C992 H988 0.949 . S
C992 C1000 1.574 . S
C992 C1008 1.368 . S
H993 C1001 0.950 . S
H994 C999 0.950 . S
H995 C1000 0.949 . S
H996 C1002 0.950 . S
H997 C1003 0.950 . S
H998 C1004 0.949 . S
C999 H994 0.950 . S
C999 C1001 1.327 . S
C999 C1005 1.429 . S
C1000 C992 1.574 . S
C1000 H995 0.949 . S
C1000 C1006 1.368 . S
C1001 C985 1.349 . S
C1001 H993 0.950 . S
C1001 C999 1.327 . S
C1002 C990 1.349 . S
C1002 H996 0.950 . S
C1002 C1003 1.327 . S
C1003 H997 0.950 . S
C1003 C1002 1.327 . S
C1003 C1007 1.429 . S
C1004 C987 1.574 . S
C1004 H998 0.949 . S
C1004 C1008 1.368 . S
C1005 C986 1.429 . S
C1005 C999 1.429 . S
C1005 C1006 1.523 . S
C1006 C987 1.368 . S
C1006 C1000 1.368 . S
C1006 C1005 1.523 . S
C1007 C991 1.429 . S
C1007 C1003 1.429 . S
C1007 C1008 1.523 . S
C1008 C992 1.368 . S
C1008 C1004 1.368 . S
C1008 C1007 1.523 . S
H1009 C984 0.950 . S
H1010 C986 0.950 . S
H1011 C987 0.949 . S
H1012 C989 0.950 . S
H1013 C991 0.950 . S
C1014 C1015 1.349 . S
C1014 C1016 1.327 . S
C1014 H1039 0.950 . S
C1015 C1014 1.349 . S
C1015 C1031 1.349 . S
C1016 C1014 1.327 . S
C1016 C1035 1.429 . S
C1016 H1040 0.950 . S
C1017 C1034 1.574 . S
C1017 C1036 1.368 . S
C1017 H1041 0.949 . S
H1018 C1022 0.949 . S
C1019 C1020 1.349 . S
C1019 C1021 1.327 . S
C1019 H1042 0.950 . S
C1020 C1019 1.349 . S
C1020 C1032 1.349 . S
C1021 C1019 1.327 . S
C1021 C1037 1.429 . S
C1021 H1043 0.950 . S
C1022 H1018 0.949 . S
C1022 C1030 1.574 . S
C1022 C1038 1.368 . S
H1023 C1031 0.950 . S
H1024 C1029 0.950 . S
H1025 C1030 0.949 . S
H1026 C1032 0.950 . S
H1027 C1033 0.950 . S
H1028 C1034 0.949 . S
C1029 H1024 0.950 . S
C1029 C1031 1.327 . S
C1029 C1035 1.429 . S
C1030 C1022 1.574 . S
C1030 H1025 0.949 . S
C1030 C1036 1.368 . S
C1031 C1015 1.349 . S
C1031 H1023 0.950 . S
C1031 C1029 1.327 . S
C1032 C1020 1.349 . S
C1032 H1026 0.950 . S
C1032 C1033 1.327 . S
C1033 H1027 0.950 . S
C1033 C1032 1.327 . S
C1033 C1037 1.429 . S
C1034 C1017 1.574 . S
C1034 H1028 0.949 . S
C1034 C1038 1.368 . S
C1035 C1016 1.429 . S
C1035 C1029 1.429 . S
C1035 C1036 1.523 . S
C1036 C1017 1.368 . S
C1036 C1030 1.368 . S
C1036 C1035 1.523 . S
C1037 C1021 1.429 . S
C1037 C1033 1.429 . S
C1037 C1038 1.523 . S
C1038 C1022 1.368 . S
C1038 C1034 1.368 . S
C1038 C1037 1.523 . S
H1039 C1014 0.950 . S
H1040 C1016 0.950 . S
H1041 C1017 0.949 . S
H1042 C1019 0.950 . S
H1043 C1021 0.950 . S
C1044 C1045 1.349 . S
C1044 C1046 1.327 . S
C1044 H1069 0.950 . S
C1045 C1044 1.349 . S
C1045 C1061 1.349 . S
C1046 C1044 1.327 . S
C1046 C1065 1.429 . S
C1046 H1070 0.950 . S
C1047 C1064 1.574 . S
C1047 C1066 1.368 . S
C1047 H1071 0.949 . S
H1048 C1052 0.949 . S
C1049 C1050 1.349 . S
C1049 C1051 1.327 . S
C1049 H1072 0.950 . S
C1050 C1049 1.349 . S
C1050 C1062 1.349 . S
C1051 C1049 1.327 . S
C1051 C1067 1.429 . S
C1051 H1073 0.950 . S
C1052 H1048 0.949 . S
C1052 C1060 1.574 . S
C1052 C1068 1.368 . S
H1053 C1061 0.950 . S
H1054 C1059 0.950 . S
H1055 C1060 0.949 . S
H1056 C1062 0.950 . S
H1057 C1063 0.950 . S
H1058 C1064 0.949 . S
C1059 H1054 0.950 . S
C1059 C1061 1.327 . S
C1059 C1065 1.429 . S
C1060 C1052 1.574 . S
C1060 H1055 0.949 . S
C1060 C1066 1.368 . S
C1061 C1045 1.349 . S
C1061 H1053 0.950 . S
C1061 C1059 1.327 . S
C1062 C1050 1.349 . S
C1062 H1056 0.950 . S
C1062 C1063 1.327 . S
C1063 H1057 0.950 . S
C1063 C1062 1.327 . S
C1063 C1067 1.429 . S
C1064 C1047 1.574 . S
C1064 H1058 0.949 . S
C1064 C1068 1.368 . S
C1065 C1046 1.429 . S
C1065 C1059 1.429 . S
C1065 C1066 1.523 . S
C1066 C1047 1.368 . S
C1066 C1060 1.368 . S
C1066 C1065 1.523 . S
C1067 C1051 1.429 . S
C1067 C1063 1.429 . S
C1067 C1068 1.523 . S
C1068 C1052 1.368 . S
C1068 C1064 1.368 . S
C1068 C1067 1.523 . S
H1069 C1044 0.950 . S
H1070 C1046 0.950 . S
H1071 C1047 0.949 . S
H1072 C1049 0.950 . S
H1073 C1051 0.950 . S
C1074 C1075 1.349 . S
C1074 C1076 1.327 . S
C1074 H1099 0.950 . S
C1075 C1074 1.349 . S
C1075 C1091 1.349 . S
C1076 C1074 1.327 . S
C1076 C1095 1.429 . S
C1076 H1100 0.950 . S
C1077 C1094 1.574 . S
C1077 C1096 1.368 . S
C1077 H1101 0.949 . S
H1078 C1082 0.949 . S
C1079 C1080 1.349 . S
C1079 C1081 1.327 . S
C1079 H1102 0.950 . S
C1080 C1079 1.349 . S
C1080 C1092 1.349 . S
C1081 C1079 1.327 . S
C1081 C1097 1.429 . S
C1081 H1103 0.950 . S
C1082 H1078 0.949 . S
C1082 C1090 1.574 . S
C1082 C1098 1.368 . S
H1083 C1091 0.950 . S
H1084 C1089 0.950 . S
H1085 C1090 0.949 . S
H1086 C1092 0.950 . S
H1087 C1093 0.950 . S
H1088 C1094 0.949 . S
C1089 H1084 0.950 . S
C1089 C1091 1.327 . S
C1089 C1095 1.429 . S
C1090 C1082 1.574 . S
C1090 H1085 0.949 . S
C1090 C1096 1.368 . S
C1091 C1075 1.349 . S
C1091 H1083 0.950 . S
C1091 C1089 1.327 . S
C1092 C1080 1.349 . S
C1092 H1086 0.950 . S
C1092 C1093 1.327 . S
C1093 H1087 0.950 . S
C1093 C1092 1.327 . S
C1093 C1097 1.429 . S
C1094 C1077 1.574 . S
C1094 H1088 0.949 . S
C1094 C1098 1.368 . S
C1095 C1076 1.429 . S
C1095 C1089 1.429 . S
C1095 C1096 1.523 . S
C1096 C1077 1.368 . S
C1096 C1090 1.368 . S
C1096 C1095 1.523 . S
C1097 C1081 1.429 . S
C1097 C1093 1.429 . S
C1097 C1098 1.523 . S
C1098 C1082 1.368 . S
C1098 C1094 1.368 . S
C1098 C1097 1.523 . S
H1099 C1074 0.950 . S
H1100 C1076 0.950 . S
H1101 C1077 0.949 . S
H1102 C1079 0.950 . S
H1103 C1081 0.950 . S
C1104 C1105 1.349 . S
C1104 C1106 1.327 . S
C1104 H1129 0.950 . S
C1105 C1104 1.349 . S
C1105 C1121 1.349 . S
C1106 C1104 1.327 . S
C1106 C1125 1.429 . S
C1106 H1130 0.950 . S
C1107 C1124 1.574 . S
C1107 C1126 1.368 . S
C1107 H1131 0.949 . S
H1108 C1112 0.949 . S
C1109 C1110 1.349 . S
C1109 C1111 1.327 . S
C1109 H1132 0.950 . S
C1110 C1109 1.349 . S
C1110 C1122 1.349 . S
C1111 C1109 1.327 . S
C1111 C1127 1.429 . S
C1111 H1133 0.950 . S
C1112 H1108 0.949 . S
C1112 C1120 1.574 . S
C1112 C1128 1.368 . S
H1113 C1121 0.950 . S
H1114 C1119 0.950 . S
H1115 C1120 0.949 . S
H1116 C1122 0.950 . S
H1117 C1123 0.950 . S
H1118 C1124 0.949 . S
C1119 H1114 0.950 . S
C1119 C1121 1.327 . S
C1119 C1125 1.429 . S
C1120 C1112 1.574 . S
C1120 H1115 0.949 . S
C1120 C1126 1.368 . S
C1121 C1105 1.349 . S
C1121 H1113 0.950 . S
C1121 C1119 1.327 . S
C1122 C1110 1.349 . S
C1122 H1116 0.950 . S
C1122 C1123 1.327 . S
C1123 H1117 0.950 . S
C1123 C1122 1.327 . S
C1123 C1127 1.429 . S
C1124 C1107 1.574 . S
C1124 H1118 0.949 . S
C1124 C1128 1.368 . S
C1125 C1106 1.429 . S
C1125 C1119 1.429 . S
C1125 C1126 1.523 . S
C1126 C1107 1.368 . S
C1126 C1120 1.368 . S
C1126 C1125 1.523 . S
C1127 C1111 1.429 . S
C1127 C1123 1.429 . S
C1127 C1128 1.523 . S
C1128 C1112 1.368 . S
C1128 C1124 1.368 . S
C1128 C1127 1.523 . S
H1129 C1104 0.950 . S
H1130 C1106 0.950 . S
H1131 C1107 0.949 . S
H1132 C1109 0.950 . S
H1133 C1111 0.950 . S
C1134 C1135 1.349 . S
C1134 C1136 1.327 . S
C1134 H1159 0.950 . S
C1135 C1134 1.349 . S
C1135 C1151 1.349 . S
C1136 C1134 1.327 . S
C1136 C1155 1.429 . S
C1136 H1160 0.950 . S
C1137 C1154 1.574 . S
C1137 C1156 1.368 . S
C1137 H1161 0.949 . S
H1138 C1142 0.949 . S
C1139 C1140 1.349 . S
C1139 C1141 1.327 . S
C1139 H1162 0.950 . S
C1140 C1139 1.349 . S
C1140 C1152 1.349 . S
C1141 C1139 1.327 . S
C1141 C1157 1.429 . S
C1141 H1163 0.950 . S
C1142 H1138 0.949 . S
C1142 C1150 1.574 . S
C1142 C1158 1.368 . S
H1143 C1151 0.950 . S
H1144 C1149 0.950 . S
H1145 C1150 0.949 . S
H1146 C1152 0.950 . S
H1147 C1153 0.950 . S
H1148 C1154 0.949 . S
C1149 H1144 0.950 . S
C1149 C1151 1.327 . S
C1149 C1155 1.429 . S
C1150 C1142 1.574 . S
C1150 H1145 0.949 . S
C1150 C1156 1.368 . S
C1151 C1135 1.349 . S
C1151 H1143 0.950 . S
C1151 C1149 1.327 . S
C1152 C1140 1.349 . S
C1152 H1146 0.950 . S
C1152 C1153 1.327 . S
C1153 H1147 0.950 . S
C1153 C1152 1.327 . S
C1153 C1157 1.429 . S
C1154 C1137 1.574 . S
C1154 H1148 0.949 . S
C1154 C1158 1.368 . S
C1155 C1136 1.429 . S
C1155 C1149 1.429 . S
C1155 C1156 1.523 . S
C1156 C1137 1.368 . S
C1156 C1150 1.368 . S
C1156 C1155 1.523 . S
C1157 C1141 1.429 . S
C1157 C1153 1.429 . S
C1157 C1158 1.523 . S
C1158 C1142 1.368 . S
C1158 C1154 1.368 . S
C1158 C1157 1.523 . S
H1159 C1134 0.950 . S
H1160 C1136 0.950 . S
H1161 C1137 0.949 . S
H1162 C1139 0.950 . S
H1163 C1141 0.950 . S
C1164 C1165 1.349 . S
C1164 C1166 1.327 . S
C1164 H1189 0.950 . S
C1165 C1164 1.349 . S
C1165 C1181 1.349 . S
C1166 C1164 1.327 . S
C1166 C1185 1.429 . S
C1166 H1190 0.950 . S
C1167 C1184 1.574 . S
C1167 C1186 1.368 . S
C1167 H1191 0.949 . S
H1168 C1172 0.949 . S
C1169 C1170 1.349 . S
C1169 C1171 1.327 . S
C1169 H1192 0.950 . S
C1170 C1169 1.349 . S
C1170 C1182 1.349 . S
C1171 C1169 1.327 . S
C1171 C1187 1.429 . S
C1171 H1193 0.950 . S
C1172 H1168 0.949 . S
C1172 C1180 1.574 . S
C1172 C1188 1.368 . S
H1173 C1181 0.950 . S
H1174 C1179 0.950 . S
H1175 C1180 0.949 . S
H1176 C1182 0.950 . S
H1177 C1183 0.950 . S
H1178 C1184 0.949 . S
C1179 H1174 0.950 . S
C1179 C1181 1.327 . S
C1179 C1185 1.429 . S
C1180 C1172 1.574 . S
C1180 H1175 0.949 . S
C1180 C1186 1.368 . S
C1181 C1165 1.349 . S
C1181 H1173 0.950 . S
C1181 C1179 1.327 . S
C1182 C1170 1.349 . S
C1182 H1176 0.950 . S
C1182 C1183 1.327 . S
C1183 H1177 0.950 . S
C1183 C1182 1.327 . S
C1183 C1187 1.429 . S
C1184 C1167 1.574 . S
C1184 H1178 0.949 . S
C1184 C1188 1.368 . S
C1185 C1166 1.429 . S
C1185 C1179 1.429 . S
C1185 C1186 1.523 . S
C1186 C1167 1.368 . S
C1186 C1180 1.368 . S
C1186 C1185 1.523 . S
C1187 C1171 1.429 . S
C1187 C1183 1.429 . S
C1187 C1188 1.523 . S
C1188 C1172 1.368 . S
C1188 C1184 1.368 . S
C1188 C1187 1.523 . S
H1189 C1164 0.950 . S
H1190 C1166 0.950 . S
H1191 C1167 0.949 . S
H1192 C1169 0.950 . S
H1193 C1171 0.950 . S
C1194 C1195 1.349 . S
C1194 C1196 1.327 . S
C1194 H1219 0.950 . S
C1195 C1194 1.349 . S
C1195 C1211 1.349 . S
C1196 C1194 1.327 . S
C1196 C1215 1.429 . S
C1196 H1220 0.950 . S
C1197 C1214 1.574 . S
C1197 C1216 1.368 . S
C1197 H1221 0.949 . S
H1198 C1202 0.949 . S
C1199 C1200 1.349 . S
C1199 C1201 1.327 . S
C1199 H1222 0.950 . S
C1200 C1199 1.349 . S
C1200 C1212 1.349 . S
C1201 C1199 1.327 . S
C1201 C1217 1.429 . S
C1201 H1223 0.950 . S
C1202 H1198 0.949 . S
C1202 C1210 1.574 . S
C1202 C1218 1.368 . S
H1203 C1211 0.950 . S
H1204 C1209 0.950 . S
H1205 C1210 0.949 . S
H1206 C1212 0.950 . S
H1207 C1213 0.950 . S
H1208 C1214 0.949 . S
C1209 H1204 0.950 . S
C1209 C1211 1.327 . S
C1209 C1215 1.429 . S
C1210 C1202 1.574 . S
C1210 H1205 0.949 . S
C1210 C1216 1.368 . S
C1211 C1195 1.349 . S
C1211 H1203 0.950 . S
C1211 C1209 1.327 . S
C1212 C1200 1.349 . S
C1212 H1206 0.950 . S
C1212 C1213 1.327 . S
C1213 H1207 0.950 . S
C1213 C1212 1.327 . S
C1213 C1217 1.429 . S
C1214 C1197 1.574 . S
C1214 H1208 0.949 . S
C1214 C1218 1.368 . S
C1215 C1196 1.429 . S
C1215 C1209 1.429 . S
C1215 C1216 1.523 . S
C1216 C1197 1.368 . S
C1216 C1210 1.368 . S
C1216 C1215 1.523 . S
C1217 C1201 1.429 . S
C1217 C1213 1.429 . S
C1217 C1218 1.523 . S
C1218 C1202 1.368 . S
C1218 C1214 1.368 . S
C1218 C1217 1.523 . S
H1219 C1194 0.950 . S
H1220 C1196 0.950 . S
H1221 C1197 0.949 . S
H1222 C1199 0.950 . S
H1223 C1201 0.950 . S
C1224 C1225 1.349 . S
C1224 C1226 1.327 . S
C1224 H1249 0.950 . S
C1225 C1224 1.349 . S
C1225 C1241 1.349 . S
C1226 C1224 1.327 . S
C1226 C1245 1.429 . S
C1226 H1250 0.950 . S
C1227 C1244 1.574 . S
C1227 C1246 1.368 . S
C1227 H1251 0.949 . S
H1228 C1232 0.949 . S
C1229 C1230 1.349 . S
C1229 C1231 1.327 . S
C1229 H1252 0.950 . S
C1230 C1229 1.349 . S
C1230 C1242 1.349 . S
C1231 C1229 1.327 . S
C1231 C1247 1.429 . S
C1231 H1253 0.950 . S
C1232 H1228 0.949 . S
C1232 C1240 1.574 . S
C1232 C1248 1.368 . S
H1233 C1241 0.950 . S
H1234 C1239 0.950 . S
H1235 C1240 0.949 . S
H1236 C1242 0.950 . S
H1237 C1243 0.950 . S
H1238 C1244 0.949 . S
C1239 H1234 0.950 . S
C1239 C1241 1.327 . S
C1239 C1245 1.429 . S
C1240 C1232 1.574 . S
C1240 H1235 0.949 . S
C1240 C1246 1.368 . S
C1241 C1225 1.349 . S
C1241 H1233 0.950 . S
C1241 C1239 1.327 . S
C1242 C1230 1.349 . S
C1242 H1236 0.950 . S
C1242 C1243 1.327 . S
C1243 H1237 0.950 . S
C1243 C1242 1.327 . S
C1243 C1247 1.429 . S
C1244 C1227 1.574 . S
C1244 H1238 0.949 . S
C1244 C1248 1.368 . S
C1245 C1226 1.429 . S
C1245 C1239 1.429 . S
C1245 C1246 1.523 . S
C1246 C1227 1.368 . S
C1246 C1240 1.368 . S
C1246 C1245 1.523 . S
C1247 C1231 1.429 . S
C1247 C1243 1.429 . S
C1247 C1248 1.523 . S
C1248 C1232 1.368 . S
C1248 C1244 1.368 . S
C1248 C1247 1.523 . S
H1249 C1224 0.950 . S
H1250 C1226 0.950 . S
H1251 C1227 0.949 . S
H1252 C1229 0.950 . S
H1253 C1231 0.950 . S
C1254 C1255 1.349 . S
C1254 C1256 1.327 . S
C1254 H1279 0.950 . S
C1255 C1254 1.349 . S
C1255 C1271 1.349 . S
C1256 C1254 1.327 . S
C1256 C1275 1.429 . S
C1256 H1280 0.950 . S
C1257 C1274 1.574 . S
C1257 C1276 1.368 . S
C1257 H1281 0.949 . S
H1258 C1262 0.949 . S
C1259 C1260 1.349 . S
C1259 C1261 1.327 . S
C1259 H1282 0.950 . S
C1260 C1259 1.349 . S
C1260 C1272 1.349 . S
C1261 C1259 1.327 . S
C1261 C1277 1.429 . S
C1261 H1283 0.950 . S
C1262 H1258 0.949 . S
C1262 C1270 1.574 . S
C1262 C1278 1.368 . S
H1263 C1271 0.950 . S
H1264 C1269 0.950 . S
H1265 C1270 0.949 . S
H1266 C1272 0.950 . S
H1267 C1273 0.950 . S
H1268 C1274 0.949 . S
C1269 H1264 0.950 . S
C1269 C1271 1.327 . S
C1269 C1275 1.429 . S
C1270 C1262 1.574 . S
C1270 H1265 0.949 . S
C1270 C1276 1.368 . S
C1271 C1255 1.349 . S
C1271 H1263 0.950 . S
C1271 C1269 1.327 . S
C1272 C1260 1.349 . S
C1272 H1266 0.950 . S
C1272 C1273 1.327 . S
C1273 H1267 0.950 . S
C1273 C1272 1.327 . S
C1273 C1277 1.429 . S
C1274 C1257 1.574 . S
C1274 H1268 0.949 . S
C1274 C1278 1.368 . S
C1275 C1256 1.429 . S
C1275 C1269 1.429 . S
C1275 C1276 1.523 . S
C1276 C1257 1.368 . S
C1276 C1270 1.368 . S
C1276 C1275 1.523 . S
C1277 C1261 1.429 . S
C1277 C1273 1.429 . S
C1277 C1278 1.523 . S
C1278 C1262 1.368 . S
C1278 C1274 1.368 . S
C1278 C1277 1.523 . S
H1279 C1254 0.950 . S
H1280 C1256 0.950 . S
H1281 C1257 0.949 . S
H1282 C1259 0.950 . S
H1283 C1261 0.950 . S
C1284 C1285 1.349 . S
C1284 C1286 1.327 . S
C1284 H1309 0.950 . S
C1285 C1284 1.349 . S
C1285 C1301 1.349 . S
C1286 C1284 1.327 . S
C1286 C1305 1.429 . S
C1286 H1310 0.950 . S
C1287 C1304 1.574 . S
C1287 C1306 1.368 . S
C1287 H1311 0.949 . S
H1288 C1292 0.949 . S
C1289 C1290 1.349 . S
C1289 C1291 1.327 . S
C1289 H1312 0.950 . S
C1290 C1289 1.349 . S
C1290 C1302 1.349 . S
C1291 C1289 1.327 . S
C1291 C1307 1.429 . S
C1291 H1313 0.950 . S
C1292 H1288 0.949 . S
C1292 C1300 1.574 . S
C1292 C1308 1.368 . S
H1293 C1301 0.950 . S
H1294 C1299 0.950 . S
H1295 C1300 0.949 . S
H1296 C1302 0.950 . S
H1297 C1303 0.950 . S
H1298 C1304 0.949 . S
C1299 H1294 0.950 . S
C1299 C1301 1.327 . S
C1299 C1305 1.429 . S
C1300 C1292 1.574 . S
C1300 H1295 0.949 . S
C1300 C1306 1.368 . S
C1301 C1285 1.349 . S
C1301 H1293 0.950 . S
C1301 C1299 1.327 . S
C1302 C1290 1.349 . S
C1302 H1296 0.950 . S
C1302 C1303 1.327 . S
C1303 H1297 0.950 . S
C1303 C1302 1.327 . S
C1303 C1307 1.429 . S
C1304 C1287 1.574 . S
C1304 H1298 0.949 . S
C1304 C1308 1.368 . S
C1305 C1286 1.429 . S
C1305 C1299 1.429 . S
C1305 C1306 1.523 . S
C1306 C1287 1.368 . S
C1306 C1300 1.368 . S
C1306 C1305 1.523 . S
C1307 C1291 1.429 . S
C1307 C1303 1.429 . S
C1307 C1308 1.523 . S
C1308 C1292 1.368 . S
C1308 C1304 1.368 . S
C1308 C1307 1.523 . S
H1309 C1284 0.950 . S
H1310 C1286 0.950 . S
H1311 C1287 0.949 . S
H1312 C1289 0.950 . S
H1313 C1291 0.950 . S
C1314 C1315 1.349 . S
C1314 C1316 1.327 . S
C1314 H1339 0.950 . S
C1315 C1314 1.349 . S
C1315 C1331 1.349 . S
C1316 C1314 1.327 . S
C1316 C1335 1.429 . S
C1316 H1340 0.950 . S
C1317 C1334 1.574 1_655 S
C1317 C1336 1.368 . S
C1317 H1341 0.949 . S
H1318 C1322 0.949 . S
C1319 C1320 1.349 . S
C1319 C1321 1.327 . S
C1319 H1342 0.950 . S
C1320 C1319 1.349 . S
C1320 C1332 1.349 . S
C1321 C1319 1.327 . S
C1321 C1337 1.429 . S
C1321 H1343 0.950 . S
C1322 H1318 0.949 . S
C1322 C1330 1.574 1_455 S
C1322 C1338 1.368 . S
H1323 C1331 0.950 . S
H1324 C1329 0.950 . S
H1325 C1330 0.949 . S
H1326 C1332 0.950 . S
H1327 C1333 0.950 . S
H1328 C1334 0.949 . S
C1329 H1324 0.950 . S
C1329 C1331 1.327 . S
C1329 C1335 1.429 . S
C1330 C1322 1.574 1_655 S
C1330 H1325 0.949 . S
C1330 C1336 1.368 . S
C1331 C1315 1.349 . S
C1331 H1323 0.950 . S
C1331 C1329 1.327 . S
C1332 C1320 1.349 . S
C1332 H1326 0.950 . S
C1332 C1333 1.327 . S
C1333 H1327 0.950 . S
C1333 C1332 1.327 . S
C1333 C1337 1.429 . S
C1334 C1317 1.574 1_455 S
C1334 H1328 0.949 . S
C1334 C1338 1.368 . S
C1335 C1316 1.429 . S
C1335 C1329 1.429 . S
C1335 C1336 1.523 . S
C1336 C1317 1.368 . S
C1336 C1330 1.368 . S
C1336 C1335 1.523 . S
C1337 C1321 1.429 . S
C1337 C1333 1.429 . S
C1337 C1338 1.523 . S
C1338 C1322 1.368 . S
C1338 C1334 1.368 . S
C1338 C1337 1.523 . S
H1339 C1314 0.950 . S
H1340 C1316 0.950 . S
H1341 C1317 0.949 . S
H1342 C1319 0.950 . S
H1343 C1321 0.950 . S
C1344 C1345 1.349 . S
C1344 C1346 1.327 . S
C1344 H1369 0.950 . S
C1345 C1344 1.349 . S
C1345 C1361 1.349 . S
C1346 C1344 1.327 . S
C1346 C1365 1.429 . S
C1346 H1370 0.950 . S
C1347 C1364 1.574 . S
C1347 C1366 1.368 . S
C1347 H1371 0.949 . S
H1348 C1352 0.949 . S
C1349 C1350 1.349 . S
C1349 C1351 1.327 . S
C1349 H1372 0.950 . S
C1350 C1349 1.349 . S
C1350 C1362 1.349 . S
C1351 C1349 1.327 . S
C1351 C1367 1.429 . S
C1351 H1373 0.950 . S
C1352 H1348 0.949 . S
C1352 C1360 1.574 . S
C1352 C1368 1.368 . S
H1353 C1361 0.950 . S
H1354 C1359 0.950 . S
H1355 C1360 0.949 . S
H1356 C1362 0.950 . S
H1357 C1363 0.950 . S
H1358 C1364 0.949 . S
C1359 H1354 0.950 . S
C1359 C1361 1.327 . S
C1359 C1365 1.429 . S
C1360 C1352 1.574 . S
C1360 H1355 0.949 . S
C1360 C1366 1.368 . S
C1361 C1345 1.349 . S
C1361 H1353 0.950 . S
C1361 C1359 1.327 . S
C1362 C1350 1.349 . S
C1362 H1356 0.950 . S
C1362 C1363 1.327 . S
C1363 H1357 0.950 . S
C1363 C1362 1.327 . S
C1363 C1367 1.429 . S
C1364 C1347 1.574 . S
C1364 H1358 0.949 . S
C1364 C1368 1.368 . S
C1365 C1346 1.429 . S
C1365 C1359 1.429 . S
C1365 C1366 1.523 . S
C1366 C1347 1.368 . S
C1366 C1360 1.368 . S
C1366 C1365 1.523 . S
C1367 C1351 1.429 . S
C1367 C1363 1.429 . S
C1367 C1368 1.523 . S
C1368 C1352 1.368 . S
C1368 C1364 1.368 . S
C1368 C1367 1.523 . S
H1369 C1344 0.950 . S
H1370 C1346 0.950 . S
H1371 C1347 0.949 . S
H1372 C1349 0.950 . S
H1373 C1351 0.950 . S
C1374 C1375 1.349 . S
C1374 C1376 1.327 . S
C1374 H1399 0.950 . S
C1375 C1374 1.349 . S
C1375 C1391 1.349 . S
C1376 C1374 1.327 . S
C1376 C1395 1.429 . S
C1376 H1400 0.950 . S
C1377 C1394 1.574 1_565 S
C1377 C1396 1.368 . S
C1377 H1401 0.949 . S
H1378 C1382 0.949 . S
C1379 C1380 1.349 . S
C1379 C1381 1.327 . S
C1379 H1402 0.950 . S
C1380 C1379 1.349 . S
C1380 C1392 1.349 . S
C1381 C1379 1.327 . S
C1381 C1397 1.429 . S
C1381 H1403 0.950 . S
C1382 H1378 0.949 . S
C1382 C1390 1.574 1_545 S
C1382 C1398 1.368 . S
H1383 C1391 0.950 . S
H1384 C1389 0.950 . S
H1385 C1390 0.949 . S
H1386 C1392 0.950 . S
H1387 C1393 0.950 . S
H1388 C1394 0.949 . S
C1389 H1384 0.950 . S
C1389 C1391 1.327 . S
C1389 C1395 1.429 . S
C1390 C1382 1.574 1_565 S
C1390 H1385 0.949 . S
C1390 C1396 1.368 . S
C1391 C1375 1.349 . S
C1391 H1383 0.950 . S
C1391 C1389 1.327 . S
C1392 C1380 1.349 . S
C1392 H1386 0.950 . S
C1392 C1393 1.327 . S
C1393 H1387 0.950 . S
C1393 C1392 1.327 . S
C1393 C1397 1.429 . S
C1394 C1377 1.574 1_545 S
C1394 H1388 0.949 . S
C1394 C1398 1.368 . S
C1395 C1376 1.429 . S
C1395 C1389 1.429 . S
C1395 C1396 1.523 . S
C1396 C1377 1.368 . S
C1396 C1390 1.368 . S
C1396 C1395 1.523 . S
C1397 C1381 1.429 . S
C1397 C1393 1.429 . S
C1397 C1398 1.523 . S
C1398 C1382 1.368 . S
C1398 C1394 1.368 . S
C1398 C1397 1.523 . S
H1399 C1374 0.950 . S
H1400 C1376 0.950 . S
H1401 C1377 0.949 . S
H1402 C1379 0.950 . S
H1403 C1381 0.950 . S
C1404 C1405 1.349 . S
C1404 C1406 1.327 1_565 S
C1404 H1429 0.950 1_565 S
C1405 C1404 1.349 . S
C1405 C1421 1.349 . S
C1406 C1404 1.327 1_545 S
C1406 C1425 1.429 1_545 S
C1406 H1430 0.950 . S
C1407 C1424 1.574 . S
C1407 C1426 1.368 . S
C1407 H1431 0.949 . S
H1408 C1412 0.949 . S
C1409 C1410 1.349 . S
C1409 C1411 1.327 1_545 S
C1409 H1432 0.950 1_545 S
C1410 C1409 1.349 . S
C1410 C1422 1.349 . S
C1411 C1409 1.327 1_565 S
C1411 C1427 1.429 1_565 S
C1411 H1433 0.950 . S
C1412 H1408 0.949 . S
C1412 C1420 1.574 . S
C1412 C1428 1.368 . S
H1413 C1421 0.950 . S
H1414 C1419 0.950 . S
H1415 C1420 0.949 . S
H1416 C1422 0.950 . S
H1417 C1423 0.950 . S
H1418 C1424 0.949 . S
C1419 H1414 0.950 . S
C1419 C1421 1.327 . S
C1419 C1425 1.429 . S
C1420 C1412 1.574 . S
C1420 H1415 0.949 . S
C1420 C1426 1.368 1_545 S
C1421 C1405 1.349 . S
C1421 H1413 0.950 . S
C1421 C1419 1.327 . S
C1422 C1410 1.349 . S
C1422 H1416 0.950 . S
C1422 C1423 1.327 . S
C1423 H1417 0.950 . S
C1423 C1422 1.327 . S
C1423 C1427 1.429 . S
C1424 C1407 1.574 . S
C1424 H1418 0.949 . S
C1424 C1428 1.368 1_565 S
C1425 C1406 1.429 1_565 S
C1425 C1419 1.429 . S
C1425 C1426 1.523 . S
C1426 C1407 1.368 . S
C1426 C1420 1.368 1_565 S
C1426 C1425 1.523 . S
C1427 C1411 1.429 1_545 S
C1427 C1423 1.429 . S
C1427 C1428 1.523 . S
C1428 C1412 1.368 . S
C1428 C1424 1.368 1_545 S
C1428 C1427 1.523 . S
H1429 C1404 0.950 1_545 S
H1430 C1406 0.950 . S
H1431 C1407 0.949 . S
H1432 C1409 0.950 1_565 S
H1433 C1411 0.950 . S
C1434 C1435 1.349 . S
C1434 C1436 1.327 . S
C1434 H1459 0.950 . S
C1435 C1434 1.349 . S
C1435 C1451 1.349 . S
C1436 C1434 1.327 . S
C1436 C1455 1.429 . S
C1436 H1460 0.950 . S
C1437 C1454 1.574 . S
C1437 C1456 1.368 1_455 S
C1437 H1461 0.949 . S
H1438 C1442 0.949 . S
C1439 C1440 1.349 . S
C1439 C1441 1.327 . S
C1439 H1462 0.950 . S
C1440 C1439 1.349 . S
C1440 C1452 1.349 . S
C1441 C1439 1.327 . S
C1441 C1457 1.429 . S
C1441 H1463 0.950 . S
C1442 H1438 0.949 . S
C1442 C1450 1.574 . S
C1442 C1458 1.368 1_655 S
H1443 C1451 0.950 . S
H1444 C1449 0.950 1_455 S
H1445 C1450 0.949 . S
H1446 C1452 0.950 . S
H1447 C1453 0.950 1_655 S
H1448 C1454 0.949 . S
C1449 H1444 0.950 1_655 S
C1449 C1451 1.327 . S
C1449 C1455 1.429 . S
C1450 C1442 1.574 . S
C1450 H1445 0.949 . S
C1450 C1456 1.368 . S
C1451 C1435 1.349 . S
C1451 H1443 0.950 . S
C1451 C1449 1.327 . S
C1452 C1440 1.349 . S
C1452 H1446 0.950 . S
C1452 C1453 1.327 . S
C1453 H1447 0.950 1_455 S
C1453 C1452 1.327 . S
C1453 C1457 1.429 . S
C1454 C1437 1.574 . S
C1454 H1448 0.949 . S
C1454 C1458 1.368 . S
C1455 C1436 1.429 . S
C1455 C1449 1.429 . S
C1455 C1456 1.523 . S
C1456 C1437 1.368 1_655 S
C1456 C1450 1.368 . S
C1456 C1455 1.523 . S
C1457 C1441 1.429 . S
C1457 C1453 1.429 . S
C1457 C1458 1.523 . S
C1458 C1442 1.368 1_455 S
C1458 C1454 1.368 . S
C1458 C1457 1.523 . S
H1459 C1434 0.950 . S
H1460 C1436 0.950 . S
H1461 C1437 0.949 . S
H1462 C1439 0.950 . S
H1463 C1441 0.950 . S
C1464 C1465 1.349 . S
C1464 C1466 1.327 . S
C1464 H1489 0.950 . S
C1465 C1464 1.349 . S
C1465 C1481 1.349 . S
C1466 C1464 1.327 . S
C1466 C1485 1.429 . S
C1466 H1490 0.950 . S
C1467 C1484 1.574 . S
C1467 C1486 1.368 . S
C1467 H1491 0.949 . S
H1468 C1472 0.949 . S
C1469 C1470 1.349 . S
C1469 C1471 1.327 . S
C1469 H1492 0.950 . S
C1470 C1469 1.349 . S
C1470 C1482 1.349 . S
C1471 C1469 1.327 . S
C1471 C1487 1.429 . S
C1471 H1493 0.950 . S
C1472 H1468 0.949 . S
C1472 C1480 1.574 . S
C1472 C1488 1.368 . S
H1473 C1481 0.950 . S
H1474 C1479 0.950 . S
H1475 C1480 0.949 . S
H1476 C1482 0.950 . S
H1477 C1483 0.950 . S
H1478 C1484 0.949 . S
C1479 H1474 0.950 . S
C1479 C1481 1.327 . S
C1479 C1485 1.429 . S
C1480 C1472 1.574 . S
C1480 H1475 0.949 . S
C1480 C1486 1.368 . S
C1481 C1465 1.349 . S
C1481 H1473 0.950 . S
C1481 C1479 1.327 . S
C1482 C1470 1.349 . S
C1482 H1476 0.950 . S
C1482 C1483 1.327 . S
C1483 H1477 0.950 . S
C1483 C1482 1.327 . S
C1483 C1487 1.429 . S
C1484 C1467 1.574 . S
C1484 H1478 0.949 . S
C1484 C1488 1.368 . S
C1485 C1466 1.429 . S
C1485 C1479 1.429 . S
C1485 C1486 1.523 . S
C1486 C1467 1.368 . S
C1486 C1480 1.368 . S
C1486 C1485 1.523 . S
C1487 C1471 1.429 . S
C1487 C1483 1.429 . S
C1487 C1488 1.523 . S
C1488 C1472 1.368 . S
C1488 C1484 1.368 . S
C1488 C1487 1.523 . S
H1489 C1464 0.950 . S
H1490 C1466 0.950 . S
H1491 C1467 0.949 . S
H1492 C1469 0.950 . S
H1493 C1471 0.950 . S
C1494 C1495 1.349 . S
C1494 C1496 1.327 . S
C1494 H1519 0.950 . S
C1495 C1494 1.349 . S
C1495 C1511 1.349 . S
C1496 C1494 1.327 . S
C1496 C1515 1.429 . S
C1496 H1520 0.950 . S
C1497 C1514 1.574 . S
C1497 C1516 1.368 . S
C1497 H1521 0.949 . S
H1498 C1502 0.949 . S
C1499 C1500 1.349 . S
C1499 C1501 1.327 . S
C1499 H1522 0.950 . S
C1500 C1499 1.349 . S
C1500 C1512 1.349 . S
C1501 C1499 1.327 . S
C1501 C1517 1.429 . S
C1501 H1523 0.950 . S
C1502 H1498 0.949 . S
C1502 C1510 1.574 . S
C1502 C1518 1.368 . S
H1503 C1511 0.950 . S
H1504 C1509 0.950 . S
H1505 C1510 0.949 . S
H1506 C1512 0.950 . S
H1507 C1513 0.950 . S
H1508 C1514 0.949 . S
C1509 H1504 0.950 . S
C1509 C1511 1.327 . S
C1509 C1515 1.429 . S
C1510 C1502 1.574 . S
C1510 H1505 0.949 . S
C1510 C1516 1.368 . S
C1511 C1495 1.349 . S
C1511 H1503 0.950 . S
C1511 C1509 1.327 . S
C1512 C1500 1.349 . S
C1512 H1506 0.950 . S
C1512 C1513 1.327 . S
C1513 H1507 0.950 . S
C1513 C1512 1.327 . S
C1513 C1517 1.429 . S
C1514 C1497 1.574 . S
C1514 H1508 0.949 . S
C1514 C1518 1.368 . S
C1515 C1496 1.429 . S
C1515 C1509 1.429 . S
C1515 C1516 1.523 . S
C1516 C1497 1.368 . S
C1516 C1510 1.368 . S
C1516 C1515 1.523 . S
C1517 C1501 1.429 . S
C1517 C1513 1.429 . S
C1517 C1518 1.523 . S
C1518 C1502 1.368 . S
C1518 C1514 1.368 . S
C1518 C1517 1.523 . S
H1519 C1494 0.950 . S
H1520 C1496 0.950 . S
H1521 C1497 0.949 . S
H1522 C1499 0.950 . S
H1523 C1501 0.950 . S
C1524 C1525 1.349 . S
C1524 C1526 1.327 . S
C1524 H1549 0.950 . S
C1525 C1524 1.349 . S
C1525 C1541 1.349 . S
C1526 C1524 1.327 . S
C1526 C1545 1.429 . S
C1526 H1550 0.950 . S
C1527 C1544 1.574 . S
C1527 C1546 1.368 . S
C1527 H1551 0.949 . S
H1528 C1532 0.949 . S
C1529 C1530 1.349 . S
C1529 C1531 1.327 . S
C1529 H1552 0.950 . S
C1530 C1529 1.349 . S
C1530 C1542 1.349 . S
C1531 C1529 1.327 . S
C1531 C1547 1.429 . S
C1531 H1553 0.950 . S
C1532 H1528 0.949 . S
C1532 C1540 1.574 . S
C1532 C1548 1.368 . S
H1533 C1541 0.950 . S
H1534 C1539 0.950 . S
H1535 C1540 0.949 . S
H1536 C1542 0.950 . S
H1537 C1543 0.950 . S
H1538 C1544 0.949 . S
C1539 H1534 0.950 . S
C1539 C1541 1.327 . S
C1539 C1545 1.429 . S
C1540 C1532 1.574 . S
C1540 H1535 0.949 . S
C1540 C1546 1.368 . S
C1541 C1525 1.349 . S
C1541 H1533 0.950 . S
C1541 C1539 1.327 . S
C1542 C1530 1.349 . S
C1542 H1536 0.950 . S
C1542 C1543 1.327 . S
C1543 H1537 0.950 . S
C1543 C1542 1.327 . S
C1543 C1547 1.429 . S
C1544 C1527 1.574 . S
C1544 H1538 0.949 . S
C1544 C1548 1.368 . S
C1545 C1526 1.429 . S
C1545 C1539 1.429 . S
C1545 C1546 1.523 . S
C1546 C1527 1.368 . S
C1546 C1540 1.368 . S
C1546 C1545 1.523 . S
C1547 C1531 1.429 . S
C1547 C1543 1.429 . S
C1547 C1548 1.523 . S
C1548 C1532 1.368 . S
C1548 C1544 1.368 . S
C1548 C1547 1.523 . S
H1549 C1524 0.950 . S
H1550 C1526 0.950 . S
H1551 C1527 0.949 . S
H1552 C1529 0.950 . S
H1553 C1531 0.950 . S
C1554 C1555 1.349 . S
C1554 C1556 1.327 . S
C1554 H1579 0.950 . S
C1555 C1554 1.349 . S
C1555 C1571 1.349 . S
C1556 C1554 1.327 . S
C1556 C1575 1.429 . S
C1556 H1580 0.950 . S
C1557 C1574 1.574 . S
C1557 C1576 1.368 . S
C1557 H1581 0.949 . S
H1558 C1562 0.949 . S
C1559 C1560 1.349 . S
C1559 C1561 1.327 . S
C1559 H1582 0.950 . S
C1560 C1559 1.349 . S
C1560 C1572 1.349 . S
C1561 C1559 1.327 . S
C1561 C1577 1.429 . S
C1561 H1583 0.950 . S
C1562 H1558 0.949 . S
C1562 C1570 1.574 . S
C1562 C1578 1.368 . S
H1563 C1571 0.950 . S
H1564 C1569 0.950 . S
H1565 C1570 0.949 . S
H1566 C1572 0.950 . S
H1567 C1573 0.950 . S
H1568 C1574 0.949 . S
C1569 H1564 0.950 . S
C1569 C1571 1.327 . S
C1569 C1575 1.429 . S
C1570 C1562 1.574 . S
C1570 H1565 0.949 . S
C1570 C1576 1.368 . S
C1571 C1555 1.349 . S
C1571 H1563 0.950 . S
C1571 C1569 1.327 . S
C1572 C1560 1.349 . S
C1572 H1566 0.950 . S
C1572 C1573 1.327 . S
C1573 H1567 0.950 . S
C1573 C1572 1.327 . S
C1573 C1577 1.429 . S
C1574 C1557 1.574 . S
C1574 H1568 0.949 . S
C1574 C1578 1.368 . S
C1575 C1556 1.429 . S
C1575 C1569 1.429 . S
C1575 C1576 1.523 . S
C1576 C1557 1.368 . S
C1576 C1570 1.368 . S
C1576 C1575 1.523 . S
C1577 C1561 1.429 . S
C1577 C1573 1.429 . S
C1577 C1578 1.523 . S
C1578 C1562 1.368 . S
C1578 C1574 1.368 . S
C1578 C1577 1.523 . S
H1579 C1554 0.950 . S
H1580 C1556 0.950 . S
H1581 C1557 0.949 . S
H1582 C1559 0.950 . S
H1583 C1561 0.950 . S
C1584 C1585 1.349 . S
C1584 C1586 1.327 . S
C1584 H1609 0.950 . S
C1585 C1584 1.349 . S
C1585 C1601 1.349 . S
C1586 C1584 1.327 . S
C1586 C1605 1.429 . S
C1586 H1610 0.950 . S
C1587 C1604 1.574 . S
C1587 C1606 1.368 . S
C1587 H1611 0.949 . S
H1588 C1592 0.949 . S
C1589 C1590 1.349 . S
C1589 C1591 1.327 . S
C1589 H1612 0.950 . S
C1590 C1589 1.349 . S
C1590 C1602 1.349 . S
C1591 C1589 1.327 . S
C1591 C1607 1.429 . S
C1591 H1613 0.950 . S
C1592 H1588 0.949 . S
C1592 C1600 1.574 . S
C1592 C1608 1.368 . S
H1593 C1601 0.950 . S
H1594 C1599 0.950 . S
H1595 C1600 0.949 . S
H1596 C1602 0.950 . S
H1597 C1603 0.950 . S
H1598 C1604 0.949 . S
C1599 H1594 0.950 . S
C1599 C1601 1.327 . S
C1599 C1605 1.429 . S
C1600 C1592 1.574 . S
C1600 H1595 0.949 . S
C1600 C1606 1.368 . S
C1601 C1585 1.349 . S
C1601 H1593 0.950 . S
C1601 C1599 1.327 . S
C1602 C1590 1.349 . S
C1602 H1596 0.950 . S
C1602 C1603 1.327 . S
C1603 H1597 0.950 . S
C1603 C1602 1.327 . S
C1603 C1607 1.429 . S
C1604 C1587 1.574 . S
C1604 H1598 0.949 . S
C1604 C1608 1.368 . S
C1605 C1586 1.429 . S
C1605 C1599 1.429 . S
C1605 C1606 1.523 . S
C1606 C1587 1.368 . S
C1606 C1600 1.368 . S
C1606 C1605 1.523 . S
C1607 C1591 1.429 . S
C1607 C1603 1.429 . S
C1607 C1608 1.523 . S
C1608 C1592 1.368 . S
C1608 C1604 1.368 . S
C1608 C1607 1.523 . S
H1609 C1584 0.950 . S
H1610 C1586 0.950 . S
H1611 C1587 0.949 . S
H1612 C1589 0.950 . S
H1613 C1591 0.950 . S
C1614 C1615 1.349 . S
C1614 C1616 1.327 . S
C1614 H1639 0.950 . S
C1615 C1614 1.349 . S
C1615 C1631 1.349 . S
C1616 C1614 1.327 . S
C1616 C1635 1.429 . S
C1616 H1640 0.950 . S
C1617 C1634 1.574 . S
C1617 C1636 1.368 . S
C1617 H1641 0.949 . S
H1618 C1622 0.949 . S
C1619 C1620 1.349 . S
C1619 C1621 1.327 . S
C1619 H1642 0.950 . S
C1620 C1619 1.349 . S
C1620 C1632 1.349 . S
C1621 C1619 1.327 . S
C1621 C1637 1.429 . S
C1621 H1643 0.950 . S
C1622 H1618 0.949 . S
C1622 C1630 1.574 . S
C1622 C1638 1.368 . S
H1623 C1631 0.950 . S
H1624 C1629 0.950 . S
H1625 C1630 0.949 . S
H1626 C1632 0.950 . S
H1627 C1633 0.950 . S
H1628 C1634 0.949 . S
C1629 H1624 0.950 . S
C1629 C1631 1.327 . S
C1629 C1635 1.429 . S
C1630 C1622 1.574 . S
C1630 H1625 0.949 . S
C1630 C1636 1.368 . S
C1631 C1615 1.349 . S
C1631 H1623 0.950 . S
C1631 C1629 1.327 . S
C1632 C1620 1.349 . S
C1632 H1626 0.950 . S
C1632 C1633 1.327 . S
C1633 H1627 0.950 . S
C1633 C1632 1.327 . S
C1633 C1637 1.429 . S
C1634 C1617 1.574 . S
C1634 H1628 0.949 . S
C1634 C1638 1.368 . S
C1635 C1616 1.429 . S
C1635 C1629 1.429 . S
C1635 C1636 1.523 . S
C1636 C1617 1.368 . S
C1636 C1630 1.368 . S
C1636 C1635 1.523 . S
C1637 C1621 1.429 . S
C1637 C1633 1.429 . S
C1637 C1638 1.523 . S
C1638 C1622 1.368 . S
C1638 C1634 1.368 . S
C1638 C1637 1.523 . S
H1639 C1614 0.950 . S
H1640 C1616 0.950 . S
H1641 C1617 0.949 . S
H1642 C1619 0.950 . S
H1643 C1621 0.950 . S
C1644 C1645 1.349 . S
C1644 C1646 1.327 . S
C1644 H1669 0.950 . S
C1645 C1644 1.349 . S
C1645 C1661 1.349 . S
C1646 C1644 1.327 . S
C1646 C1665 1.429 . S
C1646 H1670 0.950 . S
C1647 C1664 1.574 . S
C1647 C1666 1.368 . S
C1647 H1671 0.949 . S
H1648 C1652 0.949 . S
C1649 C1650 1.349 . S
C1649 C1651 1.327 . S
C1649 H1672 0.950 . S
C1650 C1649 1.349 . S
C1650 C1662 1.349 . S
C1651 C1649 1.327 . S
C1651 C1667 1.429 . S
C1651 H1673 0.950 . S
C1652 H1648 0.949 . S
C1652 C1660 1.574 . S
C1652 C1668 1.368 . S
H1653 C1661 0.950 . S
H1654 C1659 0.950 . S
H1655 C1660 0.949 . S
H1656 C1662 0.950 . S
H1657 C1663 0.950 . S
H1658 C1664 0.949 . S
C1659 H1654 0.950 . S
C1659 C1661 1.327 . S
C1659 C1665 1.429 . S
C1660 C1652 1.574 . S
C1660 H1655 0.949 . S
C1660 C1666 1.368 . S
C1661 C1645 1.349 . S
C1661 H1653 0.950 . S
C1661 C1659 1.327 . S
C1662 C1650 1.349 . S
C1662 H1656 0.950 . S
C1662 C1663 1.327 . S
C1663 H1657 0.950 . S
C1663 C1662 1.327 . S
C1663 C1667 1.429 . S
C1664 C1647 1.574 . S
C1664 H1658 0.949 . S
C1664 C1668 1.368 . S
C1665 C1646 1.429 . S
C1665 C1659 1.429 . S
C1665 C1666 1.523 . S
C1666 C1647 1.368 . S
C1666 C1660 1.368 . S
C1666 C1665 1.523 . S
C1667 C1651 1.429 . S
C1667 C1663 1.429 . S
C1667 C1668 1.523 . S
C1668 C1652 1.368 . S
C1668 C1664 1.368 . S
C1668 C1667 1.523 . S
H1669 C1644 0.950 . S
H1670 C1646 0.950 . S
H1671 C1647 0.949 . S
H1672 C1649 0.950 . S
H1673 C1651 0.950 . S
C1674 C1675 1.349 . S
C1674 C1676 1.327 . S
C1674 H1699 0.950 . S
C1675 C1674 1.349 . S
C1675 C1691 1.349 . S
C1676 C1674 1.327 . S
C1676 C1695 1.429 . S
C1676 H1700 0.950 . S
C1677 C1694 1.574 1_554 S
C1677 C1696 1.368 1_545 S
C1677 H1701 0.949 . S
H1678 C1682 0.949 . S
C1679 C1680 1.349 . S
C1679 C1681 1.327 . S
C1679 H1702 0.950 . S
C1680 C1679 1.349 . S
C1680 C1692 1.349 . S
C1681 C1679 1.327 . S
C1681 C1697 1.429 . S
C1681 H1703 0.950 . S
C1682 H1678 0.949 . S
C1682 C1690 1.574 1_556 S
C1682 C1698 1.368 1_565 S
H1683 C1691 0.950 1_545 S
H1684 C1689 0.950 . S
H1685 C1690 0.949 . S
H1686 C1692 0.950 1_565 S
H1687 C1693 0.998 . S
H1688 C1694 0.949 . S
C1689 H1684 0.950 . S
C1689 C1691 1.327 1_545 S
C1689 C1695 1.429 1_545 S
C1690 C1682 1.574 1_554 S
C1690 H1685 0.949 . S
C1690 C1696 1.368 . S
C1691 C1675 1.349 . S
C1691 H1683 0.950 1_565 S
C1691 C1689 1.327 1_565 S
C1692 C1680 1.349 . S
C1692 H1686 0.950 1_545 S
C1692 C1693 1.318 1_545 S
C1693 H1687 0.998 . S
C1693 C1692 1.318 1_565 S
C1693 C1697 1.392 1_565 S
C1694 C1677 1.574 1_556 S
C1694 H1688 0.949 . S
C1694 C1698 1.368 . S
C1695 C1676 1.429 . S
C1695 C1689 1.429 1_565 S
C1695 C1696 1.523 . S
C1696 C1677 1.368 1_565 S
C1696 C1690 1.368 . S
C1696 C1695 1.523 . S
C1697 C1681 1.429 . S
C1697 C1693 1.392 1_545 S
C1697 C1698 1.523 . S
C1698 C1682 1.368 1_545 S
C1698 C1694 1.368 . S
C1698 C1697 1.523 . S
H1699 C1674 0.950 . S
H1700 C1676 0.950 . S
H1701 C1677 0.949 . S
H1702 C1679 0.950 . S
H1703 C1681 0.950 . S
C1704 C1705 1.349 . S
C1704 C1706 1.327 . S
C1704 H1729 0.950 . S
C1705 C1704 1.349 . S
C1705 C1721 1.355 . S
C1706 C1704 1.327 . S
C1706 C1725 1.429 . S
C1706 H1730 0.950 . S
C1707 C1724 1.574 1_554 S
C1707 C1726 1.368 1_655 S
C1707 H1731 0.949 . S
H1708 C1712 0.949 . S
C1709 C1710 1.349 . S
C1709 C1711 1.327 . S
C1709 H1732 0.950 . S
C1710 C1709 1.349 . S
C1710 C1722 1.349 1_655 S
C1711 C1709 1.327 . S
C1711 C1727 1.429 . S
C1711 H1733 0.950 . S
C1712 H1708 0.949 . S
C1712 C1720 1.574 1_556 S
C1712 C1728 1.368 1_455 S
H1713 C1721 0.946 1_655 S
H1714 C1719 0.950 . S
H1715 C1720 0.949 . S
H1716 C1722 0.950 . S
H1717 C1723 0.950 . S
H1718 C1724 0.949 . S
C1719 H1714 0.950 . S
C1719 C1721 1.325 1_655 S
C1719 C1725 1.429 1_655 S
C1720 C1712 1.574 1_554 S
C1720 H1715 0.949 . S
C1720 C1726 1.368 . S
C1721 C1705 1.355 . S
C1721 H1713 0.946 1_455 S
C1721 C1719 1.325 1_455 S
C1722 C1710 1.349 1_455 S
C1722 H1716 0.950 . S
C1722 C1723 1.327 . S
C1723 H1717 0.950 . S
C1723 C1722 1.327 . S
C1723 C1727 1.429 1_455 S
C1724 C1707 1.574 1_556 S
C1724 H1718 0.949 . S
C1724 C1728 1.368 . S
C1725 C1706 1.429 . S
C1725 C1719 1.429 1_455 S
C1725 C1726 1.523 . S
C1726 C1707 1.368 1_455 S
C1726 C1720 1.368 . S
C1726 C1725 1.523 . S
C1727 C1711 1.429 . S
C1727 C1723 1.429 1_655 S
C1727 C1728 1.523 . S
C1728 C1712 1.368 1_655 S
C1728 C1724 1.368 . S
C1728 C1727 1.523 . S
H1729 C1704 0.950 . S
H1730 C1706 0.950 . S
H1731 C1707 0.949 . S
H1732 C1709 0.950 . S
H1733 C1711 0.950 . S
C1734 C1735 1.349 . S
C1734 C1736 1.327 . S
C1734 H1759 0.950 . S
C1735 C1734 1.349 . S
C1735 C1751 1.349 . S
C1736 C1734 1.327 . S
C1736 C1755 1.429 . S
C1736 H1760 0.950 . S
C1737 C1754 1.574 1_556 S
C1737 C1756 1.368 . S
C1737 H1761 0.949 . S
H1738 C1742 0.949 . S
C1739 C1740 1.349 . S
C1739 C1741 1.327 . S
C1739 H1762 0.950 . S
C1740 C1739 1.349 . S
C1740 C1752 1.349 . S
C1741 C1739 1.327 . S
C1741 C1757 1.429 . S
C1741 H1763 0.950 . S
C1742 H1738 0.949 . S
C1742 C1750 1.574 1_554 S
C1742 C1758 1.368 . S
H1743 C1751 0.950 . S
H1744 C1749 0.950 . S
H1745 C1750 0.949 . S
H1746 C1752 0.950 . S
H1747 C1753 0.950 . S
H1748 C1754 0.949 . S
C1749 H1744 0.950 . S
C1749 C1751 1.327 . S
C1749 C1755 1.429 . S
C1750 C1742 1.574 1_556 S
C1750 H1745 0.949 . S
C1750 C1756 1.368 . S
C1751 C1735 1.349 . S
C1751 H1743 0.950 . S
C1751 C1749 1.327 . S
C1752 C1740 1.349 . S
C1752 H1746 0.950 . S
C1752 C1753 1.327 . S
C1753 H1747 0.950 . S
C1753 C1752 1.327 . S
C1753 C1757 1.429 . S
C1754 C1737 1.574 1_554 S
C1754 H1748 0.949 . S
C1754 C1758 1.368 . S
C1755 C1736 1.429 . S
C1755 C1749 1.429 . S
C1755 C1756 1.523 . S
C1756 C1737 1.368 . S
C1756 C1750 1.368 . S
C1756 C1755 1.523 . S
C1757 C1741 1.429 . S
C1757 C1753 1.429 . S
C1757 C1758 1.523 . S
C1758 C1742 1.368 . S
C1758 C1754 1.368 . S
C1758 C1757 1.523 . S
H1759 C1734 0.950 . S
H1760 C1736 0.950 . S
H1761 C1737 0.949 . S
H1762 C1739 0.950 . S
H1763 C1741 0.950 . S
C1764 C1765 1.349 . S
C1764 C1766 1.327 . S
C1764 H1789 0.950 . S
C1765 C1764 1.349 . S
C1765 C1781 1.349 . S
C1766 C1764 1.327 . S
C1766 C1785 1.429 . S
C1766 H1790 0.950 . S
C1767 C1784 1.574 . S
C1767 C1786 1.368 . S
C1767 H1791 0.949 . S
H1768 C1772 0.949 . S
C1769 C1770 1.349 . S
C1769 C1771 1.327 . S
C1769 H1792 0.950 . S
C1770 C1769 1.349 . S
C1770 C1782 1.349 . S
C1771 C1769 1.327 . S
C1771 C1787 1.429 . S
C1771 H1793 0.950 . S
C1772 H1768 0.949 . S
C1772 C1780 1.574 . S
C1772 C1788 1.368 . S
H1773 C1781 0.950 . S
H1774 C1779 0.950 . S
H1775 C1780 0.949 . S
H1776 C1782 0.950 . S
H1777 C1783 0.950 . S
H1778 C1784 0.949 . S
C1779 H1774 0.950 . S
C1779 C1781 1.327 . S
C1779 C1785 1.429 . S
C1780 C1772 1.574 . S
C1780 H1775 0.949 . S
C1780 C1786 1.368 . S
C1781 C1765 1.349 . S
C1781 H1773 0.950 . S
C1781 C1779 1.327 . S
C1782 C1770 1.349 . S
C1782 H1776 0.950 . S
C1782 C1783 1.327 . S
C1783 H1777 0.950 . S
C1783 C1782 1.327 . S
C1783 C1787 1.429 . S
C1784 C1767 1.574 . S
C1784 H1778 0.949 . S
C1784 C1788 1.368 . S
C1785 C1766 1.429 . S
C1785 C1779 1.429 . S
C1785 C1786 1.523 . S
C1786 C1767 1.368 . S
C1786 C1780 1.368 . S
C1786 C1785 1.523 . S
C1787 C1771 1.429 . S
C1787 C1783 1.429 . S
C1787 C1788 1.523 . S
C1788 C1772 1.368 . S
C1788 C1784 1.368 . S
C1788 C1787 1.523 . S
H1789 C1764 0.950 . S
H1790 C1766 0.950 . S
H1791 C1767 0.949 . S
H1792 C1769 0.950 . S
H1793 C1771 0.950 . S
C1794 C1795 1.349 . S
C1794 C1796 1.327 . S
C1794 H1819 0.950 . S
C1795 C1794 1.349 . S
C1795 C1811 1.349 . S
C1796 C1794 1.327 . S
C1796 C1815 1.429 . S
C1796 H1820 0.950 . S
C1797 C1814 1.574 . S
C1797 C1816 1.368 . S
C1797 H1821 0.949 . S
H1798 C1802 0.949 . S
C1799 C1800 1.349 . S
C1799 C1801 1.327 . S
C1799 H1822 0.950 . S
C1800 C1799 1.349 . S
C1800 C1812 1.349 . S
C1801 C1799 1.327 . S
C1801 C1817 1.429 . S
C1801 H1823 0.950 . S
C1802 H1798 0.949 . S
C1802 C1810 1.574 . S
C1802 C1818 1.368 . S
H1803 C1811 0.950 . S
H1804 C1809 0.950 . S
H1805 C1810 0.949 . S
H1806 C1812 0.950 . S
H1807 C1813 0.950 . S
H1808 C1814 0.949 . S
C1809 H1804 0.950 . S
C1809 C1811 1.327 . S
C1809 C1815 1.429 . S
C1810 C1802 1.574 . S
C1810 H1805 0.949 . S
C1810 C1816 1.368 . S
C1811 C1795 1.349 . S
C1811 H1803 0.950 . S
C1811 C1809 1.327 . S
C1812 C1800 1.349 . S
C1812 H1806 0.950 . S
C1812 C1813 1.327 . S
C1813 H1807 0.950 . S
C1813 C1812 1.327 . S
C1813 C1817 1.429 . S
C1814 C1797 1.574 . S
C1814 H1808 0.949 . S
C1814 C1818 1.368 . S
C1815 C1796 1.429 . S
C1815 C1809 1.429 . S
C1815 C1816 1.523 . S
C1816 C1797 1.368 . S
C1816 C1810 1.368 . S
C1816 C1815 1.523 . S
C1817 C1801 1.429 . S
C1817 C1813 1.429 . S
C1817 C1818 1.523 . S
C1818 C1802 1.368 . S
C1818 C1814 1.368 . S
C1818 C1817 1.523 . S
H1819 C1794 0.950 . S
H1820 C1796 0.950 . S
H1821 C1797 0.949 . S
H1822 C1799 0.950 . S
H1823 C1801 0.950 . S
C1824 C1825 1.349 . S
C1824 C1826 1.327 . S
C1824 H1849 0.950 . S
C1825 C1824 1.349 . S
C1825 C1841 1.349 . S
C1826 C1824 1.327 . S
C1826 C1845 1.429 . S
C1826 H1850 0.950 . S
C1827 C1844 1.574 . S
C1827 C1846 1.368 . S
C1827 H1851 0.949 . S
H1828 C1832 0.949 . S
C1829 C1830 1.349 . S
C1829 C1831 1.327 . S
C1829 H1852 0.950 . S
C1830 C1829 1.349 . S
C1830 C1842 1.349 . S
C1831 C1829 1.327 . S
C1831 C1847 1.429 . S
C1831 H1853 0.950 . S
C1832 H1828 0.949 . S
C1832 C1840 1.574 . S
C1832 C1848 1.368 . S
H1833 C1841 0.950 . S
H1834 C1839 0.950 . S
H1835 C1840 0.949 . S
H1836 C1842 0.950 . S
H1837 C1843 0.950 . S
H1838 C1844 0.949 . S
C1839 H1834 0.950 . S
C1839 C1841 1.327 . S
C1839 C1845 1.429 . S
C1840 C1832 1.574 . S
C1840 H1835 0.949 . S
C1840 C1846 1.368 . S
C1841 C1825 1.349 . S
C1841 H1833 0.950 . S
C1841 C1839 1.327 . S
C1842 C1830 1.349 . S
C1842 H1836 0.950 . S
C1842 C1843 1.327 . S
C1843 H1837 0.950 . S
C1843 C1842 1.327 . S
C1843 C1847 1.429 . S
C1844 C1827 1.574 . S
C1844 H1838 0.949 . S
C1844 C1848 1.368 . S
C1845 C1826 1.429 . S
C1845 C1839 1.429 . S
C1845 C1846 1.523 . S
C1846 C1827 1.368 . S
C1846 C1840 1.368 . S
C1846 C1845 1.523 . S
C1847 C1831 1.429 . S
C1847 C1843 1.429 . S
C1847 C1848 1.523 . S
C1848 C1832 1.368 . S
C1848 C1844 1.368 . S
C1848 C1847 1.523 . S
H1849 C1824 0.950 . S
H1850 C1826 0.950 . S
H1851 C1827 0.949 . S
H1852 C1829 0.950 . S
H1853 C1831 0.950 . S
C1854 C1855 1.349 . S
C1854 C1856 1.327 . S
C1854 H1879 0.950 . S
C1855 C1854 1.349 . S
C1855 C1871 1.349 . S
C1856 C1854 1.327 . S
C1856 C1875 1.429 . S
C1856 H1880 0.950 . S
C1857 C1874 1.574 . S
C1857 C1876 1.368 . S
C1857 H1881 0.949 . S
H1858 C1862 0.949 . S
C1859 C1860 1.349 . S
C1859 C1861 1.327 . S
C1859 H1882 0.950 . S
C1860 C1859 1.349 . S
C1860 C1872 1.349 . S
C1861 C1859 1.327 . S
C1861 C1877 1.429 . S
C1861 H1883 0.950 . S
C1862 H1858 0.949 . S
C1862 C1870 1.574 . S
C1862 C1878 1.368 . S
H1863 C1871 0.950 . S
H1864 C1869 0.950 . S
H1865 C1870 0.949 . S
H1866 C1872 0.950 . S
H1867 C1873 0.950 . S
H1868 C1874 0.949 . S
C1869 H1864 0.950 . S
C1869 C1871 1.327 . S
C1869 C1875 1.429 . S
C1870 C1862 1.574 . S
C1870 H1865 0.949 . S
C1870 C1876 1.368 . S
C1871 C1855 1.349 . S
C1871 H1863 0.950 . S
C1871 C1869 1.327 . S
C1872 C1860 1.349 . S
C1872 H1866 0.950 . S
C1872 C1873 1.327 . S
C1873 H1867 0.950 . S
C1873 C1872 1.327 . S
C1873 C1877 1.429 . S
C1874 C1857 1.574 . S
C1874 H1868 0.949 . S
C1874 C1878 1.368 . S
C1875 C1856 1.429 . S
C1875 C1869 1.429 . S
C1875 C1876 1.523 . S
C1876 C1857 1.368 . S
C1876 C1870 1.368 . S
C1876 C1875 1.523 . S
C1877 C1861 1.429 . S
C1877 C1873 1.429 . S
C1877 C1878 1.523 . S
C1878 C1862 1.368 . S
C1878 C1874 1.368 . S
C1878 C1877 1.523 . S
H1879 C1854 0.950 . S
H1880 C1856 0.950 . S
H1881 C1857 0.949 . S
H1882 C1859 0.950 . S
H1883 C1861 0.950 . S
C1884 C1885 1.349 . S
C1884 C1886 1.327 . S
C1884 H1909 0.950 . S
C1885 C1884 1.349 . S
C1885 C1901 1.349 . S
C1886 C1884 1.327 . S
C1886 C1905 1.429 . S
C1886 H1910 0.950 . S
C1887 C1904 1.574 . S
C1887 C1906 1.368 . S
C1887 H1911 0.949 . S
H1888 C1892 0.949 . S
C1889 C1890 1.349 . S
C1889 C1891 1.327 . S
C1889 H1912 0.950 . S
C1890 C1889 1.349 . S
C1890 C1902 1.349 . S
C1891 C1889 1.327 . S
C1891 C1907 1.429 . S
C1891 H1913 0.950 . S
C1892 H1888 0.949 . S
C1892 C1900 1.574 . S
C1892 C1908 1.368 . S
H1893 C1901 0.950 . S
H1894 C1899 0.950 . S
H1895 C1900 0.949 . S
H1896 C1902 0.950 . S
H1897 C1903 0.950 . S
H1898 C1904 0.949 . S
C1899 H1894 0.950 . S
C1899 C1901 1.327 . S
C1899 C1905 1.429 . S
C1900 C1892 1.574 . S
C1900 H1895 0.949 . S
C1900 C1906 1.368 . S
C1901 C1885 1.349 . S
C1901 H1893 0.950 . S
C1901 C1899 1.327 . S
C1902 C1890 1.349 . S
C1902 H1896 0.950 . S
C1902 C1903 1.327 . S
C1903 H1897 0.950 . S
C1903 C1902 1.327 . S
C1903 C1907 1.429 . S
C1904 C1887 1.574 . S
C1904 H1898 0.949 . S
C1904 C1908 1.368 . S
C1905 C1886 1.429 . S
C1905 C1899 1.429 . S
C1905 C1906 1.523 . S
C1906 C1887 1.368 . S
C1906 C1900 1.368 . S
C1906 C1905 1.523 . S
C1907 C1891 1.429 . S
C1907 C1903 1.429 . S
C1907 C1908 1.523 . S
C1908 C1892 1.368 . S
C1908 C1904 1.368 . S
C1908 C1907 1.523 . S
H1909 C1884 0.950 . S
H1910 C1886 0.950 . S
H1911 C1887 0.949 . S
H1912 C1889 0.950 . S
H1913 C1891 0.950 . S
C1914 C1915 1.349 . S
C1914 C1916 1.327 . S
C1914 H1939 0.950 . S
C1915 C1914 1.349 . S
C1915 C1931 1.349 . S
C1916 C1914 1.327 . S
C1916 C1935 1.429 . S
C1916 H1940 0.950 . S
C1917 C1934 1.574 . S
C1917 C1936 1.368 . S
C1917 H1941 0.949 . S
H1918 C1922 0.949 . S
C1919 C1920 1.349 . S
C1919 C1921 1.327 . S
C1919 H1942 0.950 . S
C1920 C1919 1.349 . S
C1920 C1932 1.349 . S
C1921 C1919 1.327 . S
C1921 C1937 1.429 . S
C1921 H1943 0.950 . S
C1922 H1918 0.949 . S
C1922 C1930 1.574 . S
C1922 C1938 1.368 . S
H1923 C1931 0.950 . S
H1924 C1929 0.950 . S
H1925 C1930 0.949 . S
H1926 C1932 0.950 . S
H1927 C1933 0.950 . S
H1928 C1934 0.949 . S
C1929 H1924 0.950 . S
C1929 C1931 1.327 . S
C1929 C1935 1.429 . S
C1930 C1922 1.574 . S
C1930 H1925 0.949 . S
C1930 C1936 1.368 . S
C1931 C1915 1.349 . S
C1931 H1923 0.950 . S
C1931 C1929 1.327 . S
C1932 C1920 1.349 . S
C1932 H1926 0.950 . S
C1932 C1933 1.327 . S
C1933 H1927 0.950 . S
C1933 C1932 1.327 . S
C1933 C1937 1.429 . S
C1934 C1917 1.574 . S
C1934 H1928 0.949 . S
C1934 C1938 1.368 . S
C1935 C1916 1.429 . S
C1935 C1929 1.429 . S
C1935 C1936 1.523 . S
C1936 C1917 1.368 . S
C1936 C1930 1.368 . S
C1936 C1935 1.523 . S
C1937 C1921 1.429 . S
C1937 C1933 1.429 . S
C1937 C1938 1.523 . S
C1938 C1922 1.368 . S
C1938 C1934 1.368 . S
C1938 C1937 1.523 . S
H1939 C1914 0.950 . S
H1940 C1916 0.950 . S
H1941 C1917 0.949 . S
H1942 C1919 0.950 . S
H1943 C1921 0.950 . S
C595 C8 1.129 . S
C600 N47 1.128 . S
C625 N80 1.123 . S
C630 C41 1.129 . S
C655 C74 1.129 . S
C660 N14 1.123 . S
C685 N179 1.123 . S
C690 C107 1.134 . S
C715 N113 1.123 . S
C720 C140 1.129 . S
C745 C173 1.129 . S
C750 N146 1.122 . S
C775 N245 1.123 . S
C780 C206 1.129 . S
C805 C239 1.129 . S
C810 N278 1.123 . S
C835 C272 1.129 . S
C840 N212 1.123 . S
C865 N377 1.124 . S
C870 C305 1.129 . S
C895 N311 1.123 . S
C900 C338 1.129 . S
C925 C371 1.129 . S
C930 N344 1.123 . S
C955 N443 1.123 . S
C960 C404 1.129 . S
C985 C437 1.129 . S
C990 N476 1.123 . S
C1015 C470 1.129 . S
C1020 N410 1.123 . S
C1045 N575 1.123 . S
C1050 C503 1.129 . S
C1075 N509 1.123 . S
C1080 C536 1.129 . S
C1105 C569 1.129 . S
C1110 N542 1.123 . S
C1135 N335 1.315 . S
C1140 N5 1.315 . S
C1165 N368 1.315 . S
C1170 N38 1.310 . S
C1195 N302 1.315 . S
C1200 N71 1.315 . S
C1225 N104 1.315 . S
C1230 N467 1.315 . S
C1255 N401 1.315 . S
C1260 N137 1.315 . S
C1285 N434 1.315 . S
C1290 N170 1.310 . S
C1315 N203 1.315 . S
C1320 N533 1.315 . S
C1345 N566 1.315 . S
C1350 N236 1.315 . S
C1375 N500 1.315 . S
C1380 N269 1.315 . S
C1405 C17 1.507 . S
C1410 C182 1.507 . S
C1435 C116 1.507 . S
C1440 C50 1.507 . S
C1465 C149 1.507 . S
C1470 C83 1.507 . S
C1495 C380 1.507 1_556 S
C1500 C215 1.507 . S
C1525 C314 1.507 1_556 S
C1530 C248 1.507 . S
C1555 C281 1.507 . S
C1560 C347 1.507 1_556 S
C1585 C578 1.507 . S
C1590 C413 1.507 1_554 S
C1615 C446 1.507 1_554 S
C1620 C512 1.507 . S
C1645 C545 1.507 . S
C1650 C479 1.507 1_554 S
C1675 C28 0.875 . S
C1680 C193 0.876 . S
C1705 C61 0.875 . S
C1710 C127 0.878 . S
C1735 C160 0.875 . S
C1740 C94 0.875 . S
C1765 C391 0.876 . S
C1770 C226 0.876 . S
C1795 C325 0.876 . S
C1800 C259 0.876 . S
C1825 C358 0.876 . S
C1830 C292 0.876 . S
C1855 C424 0.876 . S
C1860 C589 0.876 . S
C1885 C457 0.876 . S
C1890 C523 0.876 . S
C1915 C556 0.876 . S
C1920 C490 0.876 . S
