# Generated by pormake.
# Topology can, (4)-cn, num edge types: 1
# Building blocks:
#     Node 0, Type 0, BuildingBlock: UXUYUI_clean_sbu_0, # of connection points: 4
#     Node 1, Type 0, BuildingBlock: UXUYUI_clean_sbu_0, # of connection points: 4
#     Node 2, Type 0, BuildingBlock: UXUYUI_clean_sbu_0, # of connection points: 4
#     Node 3, Type 0, BuildingBlock: UXUYUI_clean_sbu_0, # of connection points: 4
#     Node 4, Type 0, BuildingBlock: UXUYUI_clean_sbu_0, # of connection points: 4
#     Node 5, Type 0, BuildingBlock: UXUYUI_clean_sbu_0, # of connection points: 4
#     Node 6, Type 0, BuildingBlock: UXUYUI_clean_sbu_0, # of connection points: 4
#     Node 7, Type 0, BuildingBlock: UXUYUI_clean_sbu_0, # of connection points: 4
#     Node 8, Type 0, BuildingBlock: UXUYUI_clean_sbu_0, # of connection points: 4
#     Node 9, Type 0, BuildingBlock: UXUYUI_clean_sbu_0, # of connection points: 4
#     Node 10, Type 0, BuildingBlock: UXUYUI_clean_sbu_0, # of connection points: 4
#     Node 11, Type 0, BuildingBlock: UXUYUI_clean_sbu_0, # of connection points: 4
#     Edge 12, Type (0, 0), BuildingBlock: OJICUG_clean_linker_0, # of connection points: 2
#     Edge 13, Type (0, 0), BuildingBlock: OJICUG_clean_linker_0, # of connection points: 2
#     Edge 14, Type (0, 0), BuildingBlock: OJICUG_clean_linker_0, # of connection points: 2
#     Edge 15, Type (0, 0), BuildingBlock: OJICUG_clean_linker_0, # of connection points: 2
#     Edge 16, Type (0, 0), BuildingBlock: OJICUG_clean_linker_0, # of connection points: 2
#     Edge 17, Type (0, 0), BuildingBlock: OJICUG_clean_linker_0, # of connection points: 2
#     Edge 18, Type (0, 0), BuildingBlock: OJICUG_clean_linker_0, # of connection points: 2
#     Edge 19, Type (0, 0), BuildingBlock: OJICUG_clean_linker_0, # of connection points: 2
#     Edge 20, Type (0, 0), BuildingBlock: OJICUG_clean_linker_0, # of connection points: 2
#     Edge 21, Type (0, 0), BuildingBlock: OJICUG_clean_linker_0, # of connection points: 2
#     Edge 22, Type (0, 0), BuildingBlock: OJICUG_clean_linker_0, # of connection points: 2
#     Edge 23, Type (0, 0), BuildingBlock: OJICUG_clean_linker_0, # of connection points: 2
#     Edge 24, Type (0, 0), BuildingBlock: OJICUG_clean_linker_0, # of connection points: 2
#     Edge 25, Type (0, 0), BuildingBlock: OJICUG_clean_linker_0, # of connection points: 2
#     Edge 26, Type (0, 0), BuildingBlock: OJICUG_clean_linker_0, # of connection points: 2
#     Edge 27, Type (0, 0), BuildingBlock: OJICUG_clean_linker_0, # of connection points: 2
#     Edge 28, Type (0, 0), BuildingBlock: OJICUG_clean_linker_0, # of connection points: 2
#     Edge 29, Type (0, 0), BuildingBlock: OJICUG_clean_linker_0, # of connection points: 2
#     Edge 30, Type (0, 0), BuildingBlock: OJICUG_clean_linker_0, # of connection points: 2
#     Edge 31, Type (0, 0), BuildingBlock: OJICUG_clean_linker_0, # of connection points: 2
#     Edge 32, Type (0, 0), BuildingBlock: OJICUG_clean_linker_0, # of connection points: 2
#     Edge 33, Type (0, 0), BuildingBlock: OJICUG_clean_linker_0, # of connection points: 2
#     Edge 34, Type (0, 0), BuildingBlock: OJICUG_clean_linker_0, # of connection points: 2
#     Edge 35, Type (0, 0), BuildingBlock: OJICUG_clean_linker_0, # of connection points: 2
# Relax obj value: 0.136
# Max RMSD: 0.111
# Mean RMSD: 0.111
data_MOF--net-can--node1-UXUYUI_clean_sbu_0--edge1-OJICUG_clean_linker_0
_symmetry_space_group_name_H-M    P1
_symmetry_Int_Tables_number       1
_symmetry_cell_setting            triclinic
loop_
_symmetry_equiv_pos_as_xyz
'x, y, z'
_cell_length_a     70.643092
_cell_length_b     70.658466
_cell_length_c     30.890379
_cell_angle_alpha  90.007594
_cell_angle_beta   90.001238
_cell_angle_gamma 119.97702
loop_
_atom_site_label
_atom_site_type_symbol
_atom_site_fract_x
_atom_site_fract_y
_atom_site_fract_z
_atom_type_partial_charge
Li0 Li 0.08269 0.43374 0.24734 0.0
Li1 Li 0.06442 0.40067 0.28836 0.0
Li2 Li 0.09948 0.41132 0.24641 0.0
Li3 Li 0.06397 0.40055 0.20823 0.0
C4 C 0.10659 0.4434 0.32165 0.0
N5 N 0.13098 0.48038 0.37104 0.0
C6 C 0.09615 0.45149 0.34796 0.0
C7 C 0.1294 0.45394 0.32076 0.0
C8 C 0.10879 0.47028 0.37257 0.0
C9 C 0.14145 0.47265 0.34592 0.0
C10 C 0.0288 0.39884 0.2505 0.0
C11 C 0.99748 0.36244 0.24923 0.0
N12 N 0.9841 0.37096 0.25434 0.0
C13 C 0.01472 0.40722 0.25588 0.0
C14 C 0.02009 0.37624 0.24731 0.0
C15 C 0.99219 0.39287 0.2577 0.0
C16 C 0.07028 0.46497 0.23387 0.0
N17 N 0.08782 0.46327 0.24634 0.0
C18 C 0.1092 0.5021 0.25501 0.0
C19 C 0.10716 0.48137 0.25648 0.0
C20 C 0.09118 0.50426 0.24295 0.0
C21 C 0.07153 0.48528 0.23224 0.0
H22 H 0.05523 0.45047 0.22507 0.0
H23 H 0.12113 0.47986 0.26521 0.0
C24 C 0.0472 0.37061 0.36039 0.0
N25 N 0.04842 0.38831 0.34031 0.0
C26 C 0.03579 0.3631 0.39954 0.0
C27 C 0.0269 0.39194 0.39581 0.0
C28 C 0.03849 0.3989 0.35711 0.0
C29 C 0.02565 0.37399 0.418 0.0
H30 H 0.05535 0.36255 0.34638 0.0
H31 H 0.03974 0.41295 0.3405 0.0
C32 C 0.10369 0.44454 0.17456 0.0
N33 N 0.1234 0.48447 0.13275 0.0
C34 C 0.09249 0.4488 0.14219 0.0
C35 C 0.12495 0.46059 0.18557 0.0
C36 C 0.10272 0.46909 0.12149 0.0
C37 C 0.13463 0.48066 0.16404 0.0
C38 C 0.07071 0.3646 0.23052 0.0
C39 C 0.0857 0.36731 0.19815 0.0
C40 C 0.0557 0.34361 0.245 0.0
C41 C 0.08537 0.34891 0.1807 0.0
C42 C 0.05586 0.32562 0.22665 0.0
N43 N 0.07058 0.32862 0.19518 0.0
C44 C 0.12923 0.39863 0.27817 0.0
C45 C 0.14042 0.41948 0.21353 0.0
C46 C 0.14838 0.39737 0.27864 0.0
N47 N 0.12572 0.40971 0.24608 0.0
C48 C 0.15995 0.41902 0.21323 0.0
C49 C 0.16412 0.40791 0.24614 0.0
H50 H 0.11715 0.39083 0.30342 0.0
H51 H 0.13696 0.42756 0.18763 0.0
C52 C 0.03567 0.39831 0.1435 0.0
N53 N 0.04643 0.38796 0.15722 0.0
C54 C 0.02328 0.39175 0.10562 0.0
C55 C 0.033 0.36375 0.09638 0.0
C56 C 0.04512 0.37078 0.13474 0.0
C57 C 0.02206 0.37445 0.08104 0.0
H58 H 0.03701 0.412 0.16171 0.0
H59 H 0.05369 0.36269 0.14588 0.0
O60 O 0.09457 0.425 0.29747 0.0
O61 O 0.05095 0.4128 0.2491 0.0
O62 O 0.0938 0.42488 0.19567 0.0
O63 O 0.07104 0.38237 0.24887 0.0
H64 H 0.07851 0.44349 0.34901 0.0
H65 H 0.1377 0.44779 0.30067 0.0
H66 H 0.10095 0.47684 0.39285 0.0
H67 H 0.15912 0.48105 0.34543 0.0
H68 H 0.99055 0.34493 0.2467 0.0
H69 H 0.02112 0.42462 0.2589 0.0
H70 H 0.03058 0.36934 0.24328 0.0
H71 H 0.98113 0.39915 0.26187 0.0
H72 H 0.12482 0.51627 0.26273 0.0
H73 H 0.05709 0.486 0.22324 0.0
H74 H 0.03539 0.3493 0.41566 0.0
H75 H 0.01901 0.4006 0.40821 0.0
H76 H 0.07607 0.43661 0.13319 0.0
H77 H 0.1337 0.4578 0.21121 0.0
H78 H 0.09421 0.47262 0.09649 0.0
H79 H 0.15101 0.49327 0.17248 0.0
H80 H 0.09717 0.3834 0.18604 0.0
H81 H 0.04406 0.34127 0.27017 0.0
H82 H 0.09681 0.35075 0.15551 0.0
H83 H 0.04432 0.30927 0.23749 0.0
H84 H 0.15109 0.38868 0.30458 0.0
H85 H 0.17159 0.42708 0.18732 0.0
H86 H 0.01482 0.40026 0.09568 0.0
H87 H 0.03272 0.35046 0.07839 0.0
Li88 Li 0.65007 0.08474 0.74856 0.0
Li89 Li 0.66596 0.06721 0.79389 0.0
Li90 Li 0.68853 0.09991 0.7499 0.0
Li91 Li 0.66527 0.06489 0.71262 0.0
C92 C 0.68237 0.11469 0.82378 0.0
N93 N 0.7104 0.15143 0.87086 0.0
C94 C 0.6923 0.11272 0.86131 0.0
C95 C 0.68651 0.13532 0.81046 0.0
C96 C 0.70645 0.1315 0.88463 0.0
C97 C 0.7008 0.15371 0.8346 0.0
C98 C 0.63024 0.03096 0.75838 0.0
C99 C 0.63211 0.99795 0.7657 0.0
N100 N 0.60994 0.98618 0.76844 0.0
C101 C 0.60748 0.01855 0.76132 0.0
C102 C 0.64269 0.02061 0.76063 0.0
C103 C 0.59752 0.99592 0.76638 0.0
C104 C 0.60849 0.07516 0.7217 0.0
N105 N 0.62573 0.08929 0.74636 0.0
C106 C 0.60609 0.10667 0.77099 0.0
C107 C 0.62498 0.10497 0.77057 0.0
C108 C 0.58782 0.09198 0.74649 0.0
C109 C 0.58934 0.07629 0.72108 0.0
H110 H 0.60952 0.06274 0.70307 0.0
H111 H 0.63881 0.11577 0.7904 0.0
C112 C 0.67841 0.05185 0.86989 0.0
N113 N 0.66194 0.05166 0.84677 0.0
C114 C 0.67388 0.04017 0.90886 0.0
C115 C 0.63555 0.02744 0.89769 0.0
C116 C 0.64092 0.04014 0.86047 0.0
C117 C 0.65208 0.02759 0.92344 0.0
H118 H 0.69507 0.06138 0.85852 0.0
H119 H 0.62815 0.04069 0.84226 0.0
C120 C 0.65939 0.10136 0.67196 0.0
N121 N 0.63625 0.11508 0.62137 0.0
C122 C 0.64593 0.08804 0.63864 0.0
C123 C 0.6612 0.12172 0.67932 0.0
C124 C 0.63435 0.09526 0.61346 0.0
C125 C 0.64933 0.12834 0.65348 0.0
C126 C 0.70688 0.07041 0.73817 0.0
C127 C 0.72036 0.08462 0.70593 0.0
C128 C 0.711 0.05436 0.7544 0.0
C129 C 0.73767 0.0824 0.69011 0.0
C130 C 0.72848 0.05266 0.73773 0.0
N131 N 0.74134 0.06659 0.7062 0.0
C132 C 0.73143 0.12971 0.77953 0.0
C133 C 0.72065 0.14086 0.71627 0.0
C134 C 0.75154 0.14913 0.77982 0.0
N135 N 0.71636 0.12613 0.74845 0.0
C136 C 0.74063 0.16037 0.71501 0.0
C137 C 0.75631 0.16479 0.74729 0.0
H138 H 0.72773 0.11754 0.80431 0.0
H139 H 0.70852 0.13748 0.69162 0.0
C140 C 0.64139 0.0296 0.65447 0.0
N141 N 0.66148 0.0472 0.66192 0.0
C142 C 0.63708 0.01745 0.61665 0.0
C143 C 0.67383 0.04224 0.59271 0.0
C144 C 0.67763 0.05368 0.63179 0.0
C145 C 0.65317 0.02396 0.58446 0.0
H146 H 0.6282 0.02532 0.67678 0.0
H147 H 0.69314 0.06829 0.63704 0.0
O148 O 0.66877 0.09653 0.80012 0.0
O149 O 0.6402 0.05317 0.75383 0.0
O150 O 0.67045 0.09435 0.69764 0.0
O151 O 0.69005 0.07247 0.75472 0.0
H152 H 0.68924 0.0969 0.87218 0.0
H153 H 0.679 0.13716 0.78147 0.0
H154 H 0.71434 0.13022 0.91361 0.0
H155 H 0.7043 0.16979 0.82444 0.0
H156 H 0.64153 0.98972 0.76746 0.0
H157 H 0.59764 0.02635 0.75976 0.0
H158 H 0.6603 0.02994 0.75842 0.0
H159 H 0.57992 0.9861 0.76869 0.0
H160 H 0.60555 0.11883 0.79146 0.0
H161 H 0.57579 0.06484 0.70123 0.0
H162 H 0.68742 0.04137 0.92737 0.0
H163 H 0.61842 0.01762 0.90562 0.0
H164 H 0.64427 0.07222 0.63249 0.0
H165 H 0.67147 0.1322 0.70504 0.0
H166 H 0.62379 0.08508 0.58771 0.0
H167 H 0.65047 0.14399 0.65903 0.0
H168 H 0.71735 0.09708 0.69287 0.0
H169 H 0.70082 0.04335 0.77966 0.0
H170 H 0.74818 0.09322 0.665 0.0
H171 H 0.73184 0.04028 0.74992 0.0
H172 H 0.76329 0.15179 0.80497 0.0
H173 H 0.74363 0.17205 0.6895 0.0
H174 H 0.62097 0.00335 0.61244 0.0
H175 H 0.68666 0.04825 0.56861 0.0
Li176 Li 0.60235 0.66391 0.28856 0.0
Li177 Li 0.56795 0.64848 0.24788 0.0
Li178 Li 0.60329 0.66404 0.21033 0.0
Li179 Li 0.59226 0.68751 0.24813 0.0
C180 C 0.59202 0.6235 0.27185 0.0
N181 N 0.59764 0.59453 0.32275 0.0
C182 C 0.57452 0.60754 0.29576 0.0
C183 C 0.61235 0.62465 0.2736 0.0
C184 C 0.5777 0.59305 0.32132 0.0
C185 C 0.61487 0.60989 0.29961 0.0
C186 C 0.57303 0.68148 0.32354 0.0
C187 C 0.55248 0.69947 0.33967 0.0
N188 N 0.56646 0.71035 0.37273 0.0
C189 C 0.58716 0.69278 0.35773 0.0
C190 C 0.55549 0.68476 0.31449 0.0
C191 C 0.58356 0.70731 0.38223 0.0
C192 C 0.63592 0.66801 0.34784 0.0
N193 N 0.61417 0.65981 0.3411 0.0
C194 C 0.60572 0.64178 0.40967 0.0
C195 C 0.59916 0.64718 0.3713 0.0
C196 C 0.62802 0.64958 0.41735 0.0
C197 C 0.64326 0.66312 0.38609 0.0
H198 H 0.64752 0.67803 0.3233 0.0
H199 H 0.58197 0.64099 0.36514 0.0
C200 C 0.53302 0.60913 0.21653 0.0
N201 N 0.5386 0.62484 0.24719 0.0
C202 C 0.51213 0.59078 0.21617 0.0
C203 C 0.50323 0.60486 0.27959 0.0
C204 C 0.52424 0.6231 0.27839 0.0
C205 C 0.497 0.58838 0.24826 0.0
H206 H 0.54497 0.61066 0.19285 0.0
H207 H 0.52925 0.63564 0.30287 0.0
C208 C 0.64009 0.69989 0.22811 0.0
N209 N 0.67783 0.72137 0.17946 0.0
C210 C 0.64485 0.71891 0.20559 0.0
C211 C 0.65457 0.69185 0.22612 0.0
C212 C 0.66402 0.72954 0.18115 0.0
C213 C 0.67354 0.70292 0.20124 0.0
C214 C 0.56075 0.65906 0.17064 0.0
C215 C 0.5611 0.6476 0.13406 0.0
C216 C 0.54187 0.65993 0.18048 0.0
C217 C 0.54248 0.63706 0.10803 0.0
C218 C 0.52358 0.64913 0.15369 0.0
N219 N 0.52426 0.63802 0.11833 0.0
C220 C 0.61718 0.64183 0.15432 0.0
C221 C 0.62418 0.6762 0.1279 0.0
C222 C 0.62507 0.6378 0.11604 0.0
N223 N 0.61685 0.66075 0.15952 0.0
C224 C 0.63238 0.67292 0.08915 0.0
C225 C 0.63271 0.65339 0.08257 0.0
H226 H 0.61067 0.62952 0.17937 0.0
H227 H 0.62322 0.69087 0.13239 0.0
C228 C 0.60698 0.73099 0.27604 0.0
N229 N 0.59367 0.71525 0.24758 0.0
C230 C 0.60775 0.75115 0.27692 0.0
C231 C 0.58154 0.73873 0.21843 0.0
C232 C 0.58122 0.7188 0.21881 0.0
C233 C 0.59486 0.75522 0.2479 0.0
H234 H 0.61695 0.72784 0.29817 0.0
H235 H 0.57096 0.70614 0.19621 0.0
O236 O 0.58943 0.63825 0.24762 0.0
O237 O 0.57655 0.66755 0.29858 0.0
O238 O 0.62128 0.6891 0.25176 0.0
O239 O 0.5787 0.66922 0.19692 0.0
H240 H 0.55872 0.60649 0.29505 0.0
H241 H 0.6261 0.63701 0.25553 0.0
H242 H 0.56433 0.58068 0.34019 0.0
H243 H 0.63055 0.6107 0.30152 0.0
H244 H 0.53907 0.70228 0.33286 0.0
H245 H 0.60091 0.69055 0.36498 0.0
H246 H 0.54447 0.67622 0.28799 0.0
H247 H 0.59442 0.71625 0.40866 0.0
H248 H 0.59344 0.6316 0.43315 0.0
H249 H 0.66059 0.66939 0.39067 0.0
H250 H 0.5081 0.57826 0.19191 0.0
H251 H 0.49202 0.60359 0.30485 0.0
H252 H 0.63378 0.72531 0.20665 0.0
H253 H 0.65106 0.67708 0.24317 0.0
H254 H 0.66788 0.74423 0.1634 0.0
H255 H 0.68483 0.69681 0.19917 0.0
H256 H 0.57552 0.64669 0.12598 0.0
H257 H 0.54124 0.66856 0.20886 0.0
H258 H 0.5425 0.62806 0.07971 0.0
H259 H 0.50882 0.64953 0.1611 0.0
H260 H 0.62446 0.62228 0.11223 0.0
H261 H 0.63821 0.68549 0.0645 0.0
H262 H 0.6185 0.76348 0.29977 0.0
H263 H 0.57119 0.74105 0.19576 0.0
Li264 Li 0.92134 0.56938 0.74944 0.0
Li265 Li 0.94029 0.60237 0.79032 0.0
Li266 Li 0.90434 0.59154 0.7504 0.0
Li267 Li 0.93947 0.60235 0.71005 0.0
C268 C 0.90122 0.55986 0.82668 0.0
N269 N 0.88313 0.52314 0.87859 0.0
C270 C 0.91469 0.5536 0.84794 0.0
C271 C 0.87858 0.5476 0.83209 0.0
C272 C 0.90522 0.53493 0.87393 0.0
C273 C 0.86974 0.52905 0.85845 0.0
C274 C 0.97539 0.60409 0.74925 0.0
C275 C 0.00669 0.64044 0.74548 0.0
N276 N 0.02014 0.63196 0.74977 0.0
C277 C 0.98955 0.59575 0.75365 0.0
C278 C 0.98405 0.62664 0.74519 0.0
C279 C 0.0121 0.61009 0.75384 0.0
C280 C 0.93311 0.53761 0.7365 0.0
N281 N 0.91564 0.53971 0.74755 0.0
C282 C 0.89318 0.50086 0.7537 0.0
C283 C 0.89582 0.52183 0.75574 0.0
C284 C 0.9111 0.49827 0.74297 0.0
C285 C 0.93126 0.51706 0.73428 0.0
H286 H 0.94856 0.55196 0.72924 0.0
H287 H 0.88198 0.52377 0.76352 0.0
C288 C 0.95491 0.63128 0.86322 0.0
N289 N 0.95688 0.61563 0.84141 0.0
C290 C 0.96679 0.64025 0.90136 0.0
C291 C 0.98257 0.61697 0.89345 0.0
C292 C 0.97023 0.60829 0.85595 0.0
C293 C 0.98091 0.63312 0.91679 0.0
H294 H 0.94398 0.63664 0.85121 0.0
H295 H 0.97109 0.59544 0.83872 0.0
C296 C 0.89751 0.55828 0.67945 0.0
N297 N 0.87348 0.51783 0.64075 0.0
C298 C 0.90735 0.55113 0.64937 0.0
C299 C 0.87542 0.54491 0.68971 0.0
C300 C 0.89494 0.5306 0.63024 0.0
C301 C 0.86355 0.52451 0.66977 0.0
C302 C 0.93562 0.63994 0.73844 0.0
C303 C 0.92147 0.64081 0.70793 0.0
C304 C 0.95237 0.65931 0.75614 0.0
C305 C 0.92442 0.6611 0.69535 0.0
C306 C 0.95479 0.67928 0.74271 0.0
N307 N 0.94088 0.67976 0.71285 0.0
C308 C 0.87018 0.59566 0.78937 0.0
C309 C 0.86752 0.59104 0.7132 0.0
C310 C 0.85081 0.59649 0.79037 0.0
N311 N 0.87807 0.59294 0.75116 0.0
C312 C 0.84821 0.59194 0.71265 0.0
C313 C 0.83957 0.59464 0.7516 0.0
H314 H 0.87893 0.59713 0.81908 0.0
H315 H 0.87412 0.5888 0.68328 0.0
C316 C 0.96549 0.60361 0.64225 0.0
N317 N 0.95586 0.6147 0.65801 0.0
C318 C 0.97723 0.60999 0.60361 0.0
C319 C 0.96906 0.63925 0.59771 0.0
C320 C 0.95754 0.63235 0.63679 0.0
C321 C 0.97894 0.62788 0.58039 0.0
H322 H 0.96388 0.5896 0.65964 0.0
H323 H 0.94975 0.64093 0.64959 0.0
O324 O 0.91016 0.57801 0.80097 0.0
O325 O 0.95322 0.59013 0.74926 0.0
O326 O 0.90947 0.57816 0.69909 0.0
O327 O 0.93278 0.62023 0.75185 0.0
H328 H 0.93224 0.56291 0.84395 0.0
H329 H 0.86796 0.55227 0.81584 0.0
H330 H 0.91542 0.52978 0.89034 0.0
H331 H 0.85224 0.51933 0.8628 0.0
H332 H 0.01357 0.65791 0.74227 0.0
H333 H 0.98322 0.57838 0.75724 0.0
H334 H 0.9735 0.63347 0.7416 0.0
H335 H 0.02322 0.60384 0.75729 0.0
H336 H 0.87723 0.48686 0.75996 0.0
H337 H 0.94563 0.51598 0.72641 0.0
H338 H 0.96505 0.65267 0.91849 0.0
H339 H 0.99291 0.6107 0.90468 0.0
H340 H 0.92443 0.56125 0.64116 0.0
H341 H 0.86762 0.55007 0.71334 0.0
H342 H 0.90237 0.5248 0.60708 0.0
H343 H 0.84649 0.51394 0.67759 0.0
H344 H 0.90864 0.62602 0.69348 0.0
H345 H 0.96338 0.65893 0.78002 0.0
H346 H 0.91366 0.66201 0.67157 0.0
H347 H 0.9677 0.6944 0.75607 0.0
H348 H 0.84483 0.59879 0.82107 0.0
H349 H 0.83995 0.59016 0.68211 0.0
H350 H 0.9849 0.60096 0.59214 0.0
H351 H 0.96975 0.653 0.5808 0.0
Li352 Li 0.33796 0.93538 0.29307 0.0
Li353 Li 0.35361 0.91715 0.24937 0.0
Li354 Li 0.33754 0.93574 0.21146 0.0
Li355 Li 0.31535 0.9017 0.25228 0.0
C356 C 0.37234 0.97103 0.25199 0.0
N357 N 0.39122 0.01597 0.25393 0.0
C358 C 0.39508 0.98428 0.25172 0.0
C359 C 0.35919 0.98065 0.2532 0.0
C360 C 0.40431 0.00696 0.25273 0.0
C361 C 0.36906 0.0034 0.25418 0.0
C362 C 0.32243 0.88877 0.3274 0.0
C363 C 0.3044 0.85004 0.34165 0.0
N364 N 0.29521 0.85305 0.37778 0.0
C365 C 0.31295 0.89149 0.36486 0.0
C366 C 0.31828 0.8679 0.31589 0.0
C367 C 0.2992 0.87323 0.38985 0.0
C368 C 0.32606 0.95121 0.36907 0.0
N369 N 0.34249 0.95226 0.34439 0.0
C370 C 0.36924 0.97864 0.39207 0.0
C371 C 0.36372 0.96536 0.35568 0.0
C372 C 0.3528 0.9775 0.41962 0.0
C373 C 0.33084 0.96344 0.40737 0.0
H374 H 0.30925 0.94043 0.35968 0.0
H375 H 0.37653 0.9655 0.33641 0.0
C376 C 0.39528 0.92691 0.22234 0.0
N377 N 0.37819 0.91295 0.24751 0.0
C378 C 0.41451 0.9259 0.2218 0.0
C379 C 0.39807 0.89589 0.27259 0.0
C380 C 0.37914 0.89753 0.27222 0.0
C381 C 0.41619 0.91043 0.2476 0.0
H382 H 0.39407 0.93907 0.20318 0.0
H383 H 0.36542 0.88683 0.29239 0.0
C384 C 0.29432 0.92742 0.24036 0.0
N385 N 0.25531 0.9237 0.21344 0.0
C386 C 0.28254 0.91326 0.20655 0.0
C387 C 0.28624 0.93961 0.26064 0.0
C388 C 0.26285 0.91161 0.1934 0.0
C389 C 0.26651 0.93755 0.24648 0.0
C390 C 0.34342 0.8982 0.17488 0.0
C391 C 0.35627 0.91017 0.13971 0.0
C392 C 0.3418 0.87819 0.1854 0.0
C393 C 0.36757 0.90209 0.11604 0.0
C394 C 0.35337 0.87068 0.16098 0.0
N395 N 0.36593 0.8827 0.12712 0.0
C396 C 0.36258 0.96625 0.1486 0.0
C397 C 0.3248 0.95214 0.13672 0.0
C398 C 0.36773 0.979 0.11144 0.0
N399 N 0.34144 0.95321 0.16081 0.0
C400 C 0.3292 0.96424 0.09841 0.0
C401 C 0.35097 0.97777 0.08498 0.0
H402 H 0.37558 0.96631 0.16705 0.0
H403 H 0.30809 0.94149 0.14633 0.0
C404 C 0.2727 0.87185 0.28413 0.0
N405 N 0.2876 0.87527 0.25277 0.0
C406 C 0.25255 0.85247 0.28487 0.0
C407 C 0.26311 0.84087 0.22012 0.0
C408 C 0.28313 0.86034 0.2209 0.0
C409 C 0.24756 0.83667 0.25253 0.0
H410 H 0.27651 0.8842 0.3086 0.0
H411 H 0.29508 0.8636 0.19594 0.0
O412 O 0.36313 0.94877 0.25106 0.0
O413 O 0.33567 0.90643 0.30216 0.0
O414 O 0.31344 0.92906 0.25434 0.0
O415 O 0.33268 0.90611 0.19915 0.0
H416 H 0.40547 0.97707 0.25078 0.0
H417 H 0.34158 0.97071 0.25339 0.0
H418 H 0.42188 0.01741 0.25256 0.0
H419 H 0.35909 0.01106 0.25515 0.0
H420 H 0.30089 0.83378 0.33288 0.0
H421 H 0.31608 0.90749 0.37447 0.0
H422 H 0.32547 0.86546 0.28709 0.0
H423 H 0.29167 0.87509 0.41879 0.0
H424 H 0.38641 0.9896 0.3981 0.0
H425 H 0.31738 0.96142 0.4273 0.0
H426 H 0.42797 0.93723 0.20163 0.0
H427 H 0.39875 0.8839 0.29332 0.0
H428 H 0.28865 0.90382 0.19031 0.0
H429 H 0.29516 0.95059 0.28698 0.0
H430 H 0.25358 0.90076 0.16718 0.0
H431 H 0.26008 0.94694 0.26178 0.0
H432 H 0.3576 0.92556 0.13081 0.0
H433 H 0.3319 0.86867 0.21238 0.0
H434 H 0.37767 0.91126 0.08889 0.0
H435 H 0.35239 0.85531 0.16901 0.0
H436 H 0.38479 0.98945 0.10334 0.0
H437 H 0.31565 0.96243 0.07895 0.0
H438 H 0.2409 0.85 0.31011 0.0
H439 H 0.25996 0.82908 0.19473 0.0
Li440 Li 0.43805 0.35366 0.7522 0.0
Li441 Li 0.40353 0.33844 0.79288 0.0
Li442 Li 0.41392 0.31535 0.75321 0.0
Li443 Li 0.40369 0.33896 0.71328 0.0
C444 C 0.43105 0.32042 0.83061 0.0
N445 N 0.43419 0.29059 0.88359 0.0
C446 C 0.41533 0.30931 0.86258 0.0
C447 C 0.44847 0.31649 0.82584 0.0
C448 C 0.4172 0.29428 0.88902 0.0
C449 C 0.44973 0.3013 0.85284 0.0
C450 C 0.40468 0.37431 0.75368 0.0
C451 C 0.36981 0.37279 0.75451 0.0
N452 N 0.38028 0.39501 0.75427 0.0
C453 C 0.41509 0.3971 0.75341 0.0
C454 C 0.38185 0.36202 0.75419 0.0
C455 C 0.40246 0.40727 0.75373 0.0
C456 C 0.47321 0.39292 0.72125 0.0
N457 N 0.46735 0.37732 0.75222 0.0
C458 C 0.50276 0.39684 0.78459 0.0
C459 C 0.48158 0.37887 0.78351 0.0
C460 C 0.50927 0.41332 0.75314 0.0
C461 C 0.49424 0.41108 0.72092 0.0
H462 H 0.46142 0.39135 0.69709 0.0
H463 H 0.4764 0.36629 0.80795 0.0
C464 C 0.3701 0.33011 0.8562 0.0
N465 N 0.39127 0.34308 0.84395 0.0
C466 C 0.36238 0.33466 0.89435 0.0
C467 C 0.39838 0.36573 0.90618 0.0
C468 C 0.40537 0.36058 0.86803 0.0
C469 C 0.37659 0.35277 0.91983 0.0
H470 H 0.35924 0.31628 0.83636 0.0
H471 H 0.42213 0.37052 0.8575 0.0
C472 C 0.44713 0.34177 0.67836 0.0
N473 N 0.48586 0.35939 0.63244 0.0
C474 C 0.44874 0.35108 0.63765 0.0
C475 C 0.46512 0.34108 0.69535 0.0
C476 C 0.46848 0.35998 0.61502 0.0
C477 C 0.48458 0.35018 0.67177 0.0
C478 C 0.36967 0.29625 0.73049 0.0
C479 C 0.37607 0.28914 0.69395 0.0
C480 C 0.34784 0.28498 0.74371 0.0
C481 C 0.36046 0.27089 0.67121 0.0
C482 C 0.33272 0.26683 0.72004 0.0
N483 N 0.33929 0.26021 0.68459 0.0
C484 C 0.39792 0.27148 0.78074 0.0
C485 C 0.42486 0.28362 0.72575 0.0
C486 C 0.39662 0.25107 0.78171 0.0
N487 N 0.4121 0.28733 0.7534 0.0
C488 C 0.424 0.26346 0.72546 0.0
C489 C 0.40981 0.24687 0.75384 0.0
H490 H 0.38763 0.2747 0.80182 0.0
H491 H 0.4357 0.2963 0.70379 0.0
C492 C 0.40467 0.36394 0.64323 0.0
N493 N 0.39132 0.34444 0.66261 0.0
C494 C 0.39828 0.36979 0.60509 0.0
C495 C 0.36411 0.33567 0.60798 0.0
C496 C 0.37113 0.33052 0.64628 0.0
C497 C 0.37784 0.35547 0.58665 0.0
H498 H 0.42052 0.37484 0.65715 0.0
H499 H 0.36039 0.31542 0.66269 0.0
O500 O 0.42925 0.33485 0.80381 0.0
O501 O 0.41688 0.36419 0.75318 0.0
O502 O 0.42802 0.33326 0.70133 0.0
O503 O 0.38465 0.31383 0.75391 0.0
H504 H 0.40168 0.31204 0.86664 0.0
H505 H 0.46082 0.32496 0.80138 0.0
H506 H 0.40508 0.28548 0.91372 0.0
H507 H 0.46304 0.298 0.84932 0.0
H508 H 0.35214 0.3635 0.75491 0.0
H509 H 0.43275 0.40682 0.75291 0.0
H510 H 0.3735 0.34436 0.75426 0.0
H511 H 0.4103 0.42491 0.75353 0.0
H512 H 0.51388 0.39787 0.80982 0.0
H513 H 0.49845 0.42355 0.69648 0.0
H514 H 0.34542 0.32433 0.90343 0.0
H515 H 0.41004 0.3796 0.92507 0.0
H516 H 0.43489 0.35133 0.62348 0.0
H517 H 0.46415 0.33388 0.72671 0.0
H518 H 0.46996 0.36732 0.58355 0.0
H519 H 0.49869 0.34996 0.68479 0.0
H520 H 0.39284 0.29761 0.68307 0.0
H521 H 0.34263 0.29022 0.77199 0.0
H522 H 0.36518 0.26523 0.64287 0.0
H523 H 0.31576 0.25798 0.72988 0.0
H524 H 0.38521 0.23865 0.80366 0.0
H525 H 0.43459 0.261 0.70364 0.0
H526 H 0.40948 0.38515 0.5897 0.0
H527 H 0.34804 0.32435 0.59537 0.0
Li528 Li 0.60204 0.93556 0.29312 0.0
Li529 Li 0.59042 0.90163 0.25223 0.0
Li530 Li 0.60119 0.93521 0.21164 0.0
Li531 Li 0.56731 0.91672 0.2553 0.0
C532 C 0.63692 0.92744 0.26539 0.0
N533 N 0.67177 0.92353 0.29458 0.0
C534 C 0.63407 0.91323 0.29944 0.0
C535 C 0.65743 0.93957 0.24602 0.0
C536 C 0.6519 0.91149 0.31374 0.0
C537 C 0.67487 0.93742 0.26133 0.0
C538 C 0.55893 0.89799 0.3303 0.0
C539 C 0.52124 0.87112 0.34403 0.0
N540 N 0.52137 0.88264 0.37941 0.0
C541 C 0.55874 0.90943 0.36705 0.0
C542 C 0.54009 0.87855 0.31893 0.0
C543 C 0.53958 0.90145 0.39137 0.0
C544 C 0.60669 0.96564 0.35615 0.0
N545 N 0.61549 0.95324 0.34366 0.0
C546 C 0.63914 0.96521 0.4055 0.0
C547 C 0.63162 0.95298 0.36728 0.0
C548 C 0.63016 0.97804 0.41928 0.0
C549 C 0.61407 0.97849 0.39323 0.0
H550 H 0.59338 0.9651 0.33798 0.0
H551 H 0.63831 0.94291 0.35738 0.0
C552 C 0.60514 0.87305 0.2222 0.0
N553 N 0.59194 0.87529 0.25129 0.0
C554 C 0.60627 0.85386 0.22103 0.0
C555 C 0.58057 0.83984 0.28036 0.0
C556 C 0.57989 0.85925 0.28027 0.0
C557 C 0.59385 0.8369 0.25038 0.0
H558 H 0.61481 0.8862 0.19992 0.0
H559 H 0.56974 0.86153 0.3034 0.0
C560 C 0.60198 0.97063 0.25285 0.0
N561 N 0.62747 0.01563 0.25105 0.0
C562 C 0.59217 0.9836 0.25336 0.0
C563 C 0.62477 0.98056 0.25148 0.0
C564 C 0.60534 0.00632 0.25242 0.0
C565 C 0.63736 0.00333 0.25057 0.0
C566 C 0.57065 0.88844 0.17774 0.0
C567 C 0.58373 0.891 0.1418 0.0
C568 C 0.55358 0.86764 0.18856 0.0
C569 C 0.57971 0.87265 0.11759 0.0
C570 C 0.55011 0.84969 0.16361 0.0
N571 N 0.56314 0.85254 0.12895 0.0
C572 C 0.62891 0.95155 0.13567 0.0
C573 C 0.60473 0.9649 0.14907 0.0
C574 C 0.63612 0.96381 0.09737 0.0
N575 N 0.6133 0.95218 0.16035 0.0
C576 C 0.61223 0.9782 0.11267 0.0
C577 C 0.62775 0.97747 0.08511 0.0
H578 H 0.63534 0.9411 0.14508 0.0
H579 H 0.5919 0.96472 0.16838 0.0
C580 C 0.53514 0.92582 0.28378 0.0
N581 N 0.53851 0.91247 0.25717 0.0
C582 C 0.51493 0.92486 0.2844 0.0
C583 C 0.50188 0.89618 0.23066 0.0
C584 C 0.5224 0.89773 0.23101 0.0
C585 C 0.49805 0.9101 0.25715 0.0
H586 H 0.54833 0.93749 0.30402 0.0
H587 H 0.52564 0.88756 0.20968 0.0
O588 O 0.61964 0.92909 0.25015 0.0
O589 O 0.57741 0.90582 0.30549 0.0
O590 O 0.58922 0.94834 0.25368 0.0
O591 O 0.57467 0.90617 0.20241 0.0
H592 H 0.61831 0.9038 0.31492 0.0
H593 H 0.65984 0.95055 0.21947 0.0
H594 H 0.64996 0.9006 0.34014 0.0
H595 H 0.69086 0.94676 0.24674 0.0
H596 H 0.50649 0.85621 0.33532 0.0
H597 H 0.57319 0.92431 0.37677 0.0
H598 H 0.53991 0.86944 0.2907 0.0
H599 H 0.53919 0.91022 0.41975 0.0
H600 H 0.65134 0.96401 0.42461 0.0
H601 H 0.60689 0.98841 0.40158 0.0
H602 H 0.61696 0.85244 0.19777 0.0
H603 H 0.57057 0.82715 0.30331 0.0
H604 H 0.57456 0.97615 0.25443 0.0
H605 H 0.63268 0.97083 0.25111 0.0
H606 H 0.59797 0.01655 0.25276 0.0
H607 H 0.65499 0.01123 0.24949 0.0
H608 H 0.59695 0.90694 0.13285 0.0
H609 H 0.54329 0.86532 0.21621 0.0
H610 H 0.58979 0.87439 0.08984 0.0
H611 H 0.53708 0.83349 0.17186 0.0
H612 H 0.64777 0.96212 0.07745 0.0
H613 H 0.60564 0.98884 0.10665 0.0
H614 H 0.51261 0.93571 0.30571 0.0
H615 H 0.48942 0.88475 0.20879 0.0
Li616 Li 0.66568 0.60101 0.78968 0.0
Li617 Li 0.68945 0.5919 0.75026 0.0
Li618 Li 0.66419 0.59973 0.71114 0.0
Li619 Li 0.65059 0.56625 0.7521 0.0
C620 C 0.70724 0.63599 0.76931 0.0
N621 N 0.74356 0.66806 0.81185 0.0
C622 C 0.71207 0.63236 0.81132 0.0
C623 C 0.72086 0.65593 0.74895 0.0
C624 C 0.73051 0.64877 0.83227 0.0
C625 C 0.73916 0.67194 0.77099 0.0
C626 C 0.67484 0.56022 0.81477 0.0
C627 C 0.68215 0.53108 0.7985 0.0
N628 N 0.68247 0.52731 0.84159 0.0
C629 C 0.67528 0.55608 0.85888 0.0
C630 C 0.67834 0.54765 0.78429 0.0
C631 C 0.67915 0.53936 0.8718 0.0
C632 C 0.65317 0.59978 0.8752 0.0
N633 N 0.6619 0.61371 0.84121 0.0
C634 C 0.66375 0.64304 0.88325 0.0
C635 C 0.66725 0.63502 0.84442 0.0
C636 C 0.65493 0.62901 0.91905 0.0
C637 C 0.64965 0.60713 0.91464 0.0
H638 H 0.64884 0.58287 0.87154 0.0
H639 H 0.67423 0.64579 0.8169 0.0
C640 C 0.72717 0.59425 0.71196 0.0
N641 N 0.71774 0.5944 0.7502 0.0
C642 C 0.74728 0.59488 0.71139 0.0
C643 C 0.74778 0.59623 0.78955 0.0
C644 C 0.72766 0.59547 0.78859 0.0
C645 C 0.75783 0.59574 0.75062 0.0
H646 H 0.7189 0.59332 0.6819 0.0
H647 H 0.71983 0.59547 0.81865 0.0
C648 C 0.62882 0.59868 0.75472 0.0
N649 N 0.60756 0.6225 0.75912 0.0
C650 C 0.60643 0.58819 0.76339 0.0
C651 C 0.64041 0.62128 0.74824 0.0
C652 C 0.59597 0.60052 0.76548 0.0
C653 C 0.62937 0.63304 0.75062 0.0
C654 C 0.65953 0.56427 0.66422 0.0
C655 C 0.63733 0.55722 0.6588 0.0
C656 C 0.67074 0.55997 0.63197 0.0
C657 C 0.62672 0.546 0.62112 0.0
C658 C 0.65955 0.5487 0.59474 0.0
N659 N 0.63796 0.54201 0.59012 0.0
C660 C 0.67635 0.62546 0.63368 0.0
C661 C 0.63827 0.60395 0.64615 0.0
C662 C 0.67258 0.63253 0.59387 0.0
N663 N 0.65926 0.61131 0.65874 0.0
C664 C 0.63378 0.61057 0.60686 0.0
C665 C 0.65101 0.62483 0.57974 0.0
H666 H 0.69289 0.63091 0.64421 0.0
H667 H 0.62489 0.59253 0.66621 0.0
C668 C 0.61071 0.53259 0.78133 0.0
N669 N 0.6279 0.53648 0.75568 0.0
C670 C 0.59235 0.51175 0.78336 0.0
C671 C 0.60995 0.49908 0.73335 0.0
C672 C 0.62806 0.52018 0.73251 0.0
C673 C 0.59166 0.49473 0.75863 0.0
H674 H 0.61109 0.54588 0.79946 0.0
H675 H 0.642 0.52366 0.71256 0.0
O676 O 0.68927 0.62024 0.74799 0.0
O677 O 0.67121 0.57667 0.80183 0.0
O678 O 0.63924 0.58676 0.75268 0.0
O679 O 0.67037 0.57541 0.7007 0.0
H680 H 0.70171 0.61706 0.82765 0.0
H681 H 0.71731 0.65899 0.71644 0.0
H682 H 0.73444 0.64617 0.86478 0.0
H683 H 0.74985 0.68745 0.75562 0.0
H684 H 0.68488 0.52124 0.77526 0.0
H685 H 0.67274 0.56574 0.88291 0.0
H686 H 0.67825 0.55068 0.75004 0.0
H687 H 0.67954 0.53598 0.90584 0.0
H688 H 0.66812 0.66004 0.88543 0.0
H689 H 0.6425 0.5957 0.9412 0.0
H690 H 0.75423 0.5942 0.68059 0.0
H691 H 0.75538 0.59723 0.82054 0.0
H692 H 0.59721 0.5707 0.76838 0.0
H693 H 0.65773 0.6297 0.74139 0.0
H694 H 0.57864 0.59262 0.77216 0.0
H695 H 0.63813 0.65053 0.74569 0.0
H696 H 0.62834 0.56028 0.68345 0.0
H697 H 0.68791 0.56528 0.63567 0.0
H698 H 0.60955 0.54046 0.61653 0.0
H699 H 0.66803 0.54527 0.56952 0.0
H700 H 0.68637 0.6434 0.57389 0.0
H701 H 0.6169 0.60448 0.59778 0.0
H702 H 0.57855 0.50919 0.80292 0.0
H703 H 0.61017 0.48636 0.71417 0.0
Li704 Li 0.09953 0.68795 0.25128 0.0
Li705 Li 0.06583 0.66538 0.28789 0.0
Li706 Li 0.08284 0.64799 0.24926 0.0
Li707 Li 0.06476 0.66609 0.20952 0.0
C708 C 0.10368 0.67842 0.33736 0.0
N709 N 0.12233 0.70058 0.41331 0.0
C710 C 0.10193 0.69659 0.34896 0.0
C711 C 0.11489 0.67148 0.36439 0.0
C712 C 0.11147 0.70758 0.38748 0.0
C713 C 0.12422 0.68292 0.40265 0.0
C714 C 0.06217 0.70189 0.2563 0.0
C715 C 0.02989 0.70504 0.24825 0.0
N716 N 0.04011 0.72451 0.26944 0.0
C717 C 0.07246 0.72208 0.2775 0.0
C718 C 0.0408 0.69341 0.24111 0.0
C719 C 0.06099 0.7332 0.28403 0.0
C720 C 0.12779 0.73208 0.22944 0.0
N721 N 0.12661 0.71486 0.25144 0.0
C722 C 0.16382 0.73647 0.27406 0.0
C723 C 0.14414 0.71663 0.27325 0.0
C724 C 0.16553 0.75459 0.25179 0.0
C725 C 0.14722 0.75219 0.22906 0.0
H726 H 0.11359 0.73018 0.21231 0.0
H727 H 0.1429 0.70262 0.29001 0.0
C728 C 0.05019 0.64675 0.36817 0.0
N729 N 0.05 0.66177 0.34095 0.0
C730 C 0.03864 0.64146 0.40703 0.0
C731 C 0.02746 0.66785 0.39038 0.0
C732 C 0.03908 0.67246 0.35146 0.0
C733 C 0.02695 0.65196 0.41844 0.0
H734 H 0.05913 0.63859 0.35927 0.0
H735 H 0.03906 0.68436 0.32972 0.0
C736 C 0.11389 0.67294 0.18334 0.0
N737 N 0.15387 0.68155 0.15094 0.0
C738 C 0.11928 0.67925 0.14018 0.0
C739 C 0.12882 0.67104 0.21007 0.0
C740 C 0.13958 0.68351 0.12439 0.0
C741 C 0.14895 0.67546 0.19307 0.0
C742 C 0.03336 0.6257 0.27011 0.0
C743 C 0.03215 0.60732 0.2898 0.0
C744 C 0.01599 0.62973 0.27468 0.0
C745 C 0.01374 0.59346 0.31432 0.0
C746 C 0.99788 0.61552 0.29955 0.0
N747 N 0.99715 0.59783 0.31872 0.0
C748 C 0.08948 0.61495 0.28475 0.0
C749 C 0.08914 0.61587 0.20807 0.0
C750 C 0.09164 0.59635 0.28401 0.0
N751 N 0.08798 0.62407 0.24713 0.0
C752 C 0.09157 0.59746 0.2058 0.0
C753 C 0.09249 0.58717 0.24411 0.0
H754 H 0.08829 0.62174 0.31534 0.0
H755 H 0.0879 0.62349 0.17867 0.0
C756 C 0.05977 0.67788 0.12428 0.0
N757 N 0.04918 0.6642 0.15786 0.0
C758 C 0.04907 0.67529 0.08476 0.0
C759 C 0.01659 0.64506 0.11569 0.0
C760 C 0.02798 0.64808 0.15437 0.0
C761 C 0.02723 0.65855 0.08001 0.0
H762 H 0.07669 0.69048 0.12792 0.0
H763 H 0.02005 0.6372 0.1813 0.0
O764 O 0.09446 0.66735 0.29982 0.0
O765 O 0.07324 0.6909 0.24929 0.0
O766 O 0.09421 0.66898 0.19944 0.0
O767 O 0.05153 0.63976 0.24687 0.0
H768 H 0.09324 0.70208 0.32852 0.0
H769 H 0.1164 0.65744 0.35582 0.0
H770 H 0.11022 0.72167 0.39685 0.0
H771 H 0.13297 0.67775 0.42387 0.0
H772 H 0.0133 0.69859 0.2369 0.0
H773 H 0.08915 0.72912 0.28871 0.0
H774 H 0.0327 0.67801 0.22408 0.0
H775 H 0.06871 0.74878 0.30058 0.0
H776 H 0.17763 0.73753 0.29144 0.0
H777 H 0.14781 0.76579 0.21172 0.0
H778 H 0.03891 0.62933 0.42802 0.0
H779 H 0.01856 0.67623 0.39796 0.0
H780 H 0.10791 0.68084 0.11913 0.0
H781 H 0.12498 0.66632 0.24365 0.0
H782 H 0.14398 0.68841 0.09104 0.0
H783 H 0.16068 0.67408 0.2134 0.0
H784 H 0.04532 0.60382 0.28639 0.0
H785 H 0.01664 0.64389 0.25988 0.0
H786 H 0.01266 0.57925 0.32993 0.0
H787 H 0.98445 0.61859 0.30373 0.0
H788 H 0.09192 0.58886 0.3144 0.0
H789 H 0.09255 0.59128 0.1743 0.0
H790 H 0.05783 0.68609 0.05807 0.0
H791 H 0.99989 0.63175 0.11323 0.0
Li792 Li 0.41296 0.09995 0.75464 0.0
Li793 Li 0.40152 0.0651 0.79215 0.0
Li794 Li 0.43645 0.08506 0.75578 0.0
Li795 Li 0.40293 0.0673 0.71085 0.0
C796 C 0.44385 0.10167 0.83247 0.0
N797 N 0.48074 0.11537 0.88295 0.0
C798 C 0.44379 0.08866 0.86661 0.0
C799 C 0.46262 0.12174 0.82424 0.0
C800 C 0.46261 0.09586 0.89172 0.0
C801 C 0.48112 0.12834 0.85004 0.0
C802 C 0.36527 0.0705 0.7669 0.0
C803 C 0.32595 0.05301 0.76757 0.0
N804 N 0.32718 0.06701 0.79913 0.0
C805 C 0.36616 0.08478 0.79917 0.0
C806 C 0.34503 0.05455 0.75078 0.0
C807 C 0.34672 0.08273 0.81511 0.0
C808 C 0.39805 0.12852 0.72667 0.0
N809 N 0.41108 0.12604 0.75579 0.0
C810 C 0.42216 0.16116 0.78624 0.0
C811 C 0.42287 0.14176 0.78554 0.0
C812 C 0.40917 0.1644 0.75603 0.0
C813 C 0.39693 0.14771 0.72605 0.0
H814 H 0.38862 0.11561 0.70374 0.0
H815 H 0.4329 0.13928 0.80864 0.0
C816 C 0.39127 0.0303 0.85047 0.0
N817 N 0.38785 0.04731 0.8428 0.0
C818 C 0.38357 0.01797 0.88811 0.0
C819 C 0.36991 0.04148 0.91148 0.0
C820 C 0.37741 0.05307 0.87255 0.0
C821 C 0.37319 0.02376 0.91994 0.0
H822 H 0.40079 0.02666 0.82846 0.0
H823 H 0.37578 0.06726 0.86717 0.0
C824 C 0.4334 0.11481 0.68099 0.0
N825 N 0.44105 0.15154 0.63507 0.0
C826 C 0.42068 0.11283 0.64478 0.0
C827 C 0.45016 0.13545 0.69359 0.0
C828 C 0.42478 0.1316 0.62202 0.0
C829 C 0.45372 0.15383 0.67005 0.0
C830 C 0.4027 0.03123 0.74644 0.0
C831 C 0.41316 0.01892 0.74318 0.0
C832 C 0.37989 0.02075 0.74471 0.0
C833 C 0.40058 0.99627 0.73832 0.0
C834 C 0.36791 0.99808 0.73981 0.0
N835 N 0.37841 0.98642 0.73674 0.0
C836 C 0.46859 0.07576 0.78292 0.0
C837 C 0.4816 0.10494 0.73261 0.0
C838 C 0.48884 0.07684 0.7834 0.0
N839 N 0.46534 0.08961 0.75763 0.0
C840 C 0.50216 0.10658 0.73202 0.0
C841 C 0.50589 0.09217 0.75718 0.0
H842 H 0.45526 0.06359 0.80217 0.0
H843 H 0.47846 0.11551 0.71227 0.0
C844 C 0.37497 0.05146 0.63501 0.0
N845 N 0.39143 0.05161 0.65811 0.0
C846 C 0.36799 0.03975 0.59604 0.0
C847 C 0.39412 0.02767 0.60721 0.0
C848 C 0.40125 0.04039 0.64441 0.0
C849 C 0.37757 0.0275 0.58144 0.0
H850 H 0.36757 0.06075 0.64638 0.0
H851 H 0.4147 0.04122 0.66261 0.0
O852 O 0.42574 0.09468 0.80688 0.0
O853 O 0.38407 0.07241 0.75018 0.0
O854 O 0.4293 0.09668 0.70425 0.0
O855 O 0.41486 0.05345 0.75082 0.0
H856 H 0.42945 0.0731 0.87352 0.0
H857 H 0.46302 0.13197 0.79783 0.0
H858 H 0.46282 0.08591 0.91812 0.0
H859 H 0.49581 0.14375 0.8438 0.0
H860 H 0.31016 0.04071 0.75547 0.0
H861 H 0.38168 0.09715 0.81217 0.0
H862 H 0.34409 0.04348 0.72551 0.0
H863 H 0.34716 0.0936 0.84025 0.0
H864 H 0.43199 0.17365 0.80968 0.0
H865 H 0.38647 0.14939 0.70259 0.0
H866 H 0.3863 0.00432 0.89248 0.0
H867 H 0.36245 0.04694 0.93531 0.0
H868 H 0.40767 0.09701 0.63454 0.0
H869 H 0.46012 0.1373 0.7216 0.0
H870 H 0.41498 0.13031 0.59407 0.0
H871 H 0.46651 0.16991 0.67968 0.0
H872 H 0.43081 0.02681 0.74436 0.0
H873 H 0.37153 0.03 0.74716 0.0
H874 H 0.40844 0.98654 0.73576 0.0
H875 H 0.35025 0.98976 0.73844 0.0
H876 H 0.49105 0.06562 0.80376 0.0
H877 H 0.51473 0.11846 0.71093 0.0
H878 H 0.3555 0.04068 0.57751 0.0
H879 H 0.4017 0.0181 0.59926 0.0
Li880 Li 0.33947 0.403 0.29223 0.0
Li881 Li 0.31455 0.41237 0.25176 0.0
Li882 Li 0.33953 0.40201 0.21262 0.0
Li883 Li 0.35374 0.43594 0.25106 0.0
C884 C 0.29657 0.36809 0.27418 0.0
N885 N 0.2601 0.33695 0.3178 0.0
C886 C 0.28859 0.37403 0.31002 0.0
C887 C 0.28599 0.34634 0.26048 0.0
C888 C 0.27013 0.35804 0.33162 0.0
C889 C 0.26759 0.33082 0.28301 0.0
C890 C 0.34177 0.44765 0.32025 0.0
C891 C 0.34676 0.48402 0.31895 0.0
N892 N 0.35912 0.489 0.35543 0.0
C893 C 0.3544 0.4531 0.35789 0.0
C894 C 0.33782 0.4632 0.30071 0.0
C895 C 0.36307 0.4741 0.37512 0.0
C896 C 0.36374 0.40489 0.36422 0.0
N897 N 0.34453 0.39121 0.34421 0.0
C898 C 0.33544 0.3645 0.40003 0.0
C899 C 0.33063 0.37109 0.3608 0.0
C900 C 0.35486 0.37864 0.42219 0.0
C901 C 0.36923 0.39896 0.40334 0.0
H902 H 0.3748 0.42055 0.34978 0.0
H903 H 0.31575 0.36011 0.34397 0.0
C904 C 0.27135 0.39747 0.2211 0.0
N905 N 0.28649 0.41033 0.251 0.0
C906 C 0.25086 0.39604 0.22001 0.0
C907 C 0.26202 0.42117 0.28028 0.0
C908 C 0.28205 0.42176 0.28078 0.0
C909 C 0.24617 0.40825 0.24954 0.0
H910 H 0.27525 0.38839 0.19805 0.0
H911 H 0.29404 0.43131 0.30506 0.0
C912 C 0.37416 0.40237 0.25368 0.0
N913 N 0.39305 0.37629 0.25602 0.0
C914 C 0.39689 0.41185 0.25422 0.0
C915 C 0.36103 0.37961 0.2543 0.0
C916 C 0.40613 0.39839 0.2554 0.0
C917 C 0.37089 0.36672 0.2555 0.0
C918 C 0.33789 0.44202 0.17206 0.0
C919 C 0.35568 0.44905 0.14401 0.0
C920 C 0.32465 0.4515 0.16982 0.0
C921 C 0.36009 0.46571 0.1144 0.0
C922 C 0.3296 0.46809 0.13971 0.0
N923 N 0.34708 0.4748 0.11289 0.0
C924 C 0.32748 0.37197 0.14074 0.0
C925 C 0.36447 0.4002 0.14492 0.0
C926 C 0.33152 0.36472 0.10138 0.0
N927 N 0.34387 0.38955 0.16132 0.0
C928 C 0.3692 0.39361 0.10582 0.0
C929 C 0.35258 0.37585 0.0831 0.0
H930 H 0.3112 0.36386 0.15442 0.0
H931 H 0.3772 0.41414 0.1619 0.0
C932 C 0.39563 0.46853 0.27312 0.0
N933 N 0.37773 0.4656 0.25097 0.0
C934 C 0.41447 0.48905 0.27473 0.0
C935 C 0.39611 0.5034 0.23119 0.0
C936 C 0.37752 0.48264 0.23085 0.0
C937 C 0.41495 0.50675 0.25309 0.0
H938 H 0.39529 0.45483 0.28944 0.0
H939 H 0.36296 0.48029 0.2148 0.0
O940 O 0.3144 0.38347 0.252 0.0
O941 O 0.3335 0.42731 0.30233 0.0
O942 O 0.36498 0.41545 0.25258 0.0
O943 O 0.33318 0.42569 0.20114 0.0
H944 H 0.29662 0.39076 0.32124 0.0
H945 H 0.29195 0.34152 0.23271 0.0
H946 H 0.26379 0.36239 0.35943 0.0
H947 H 0.25925 0.31391 0.27281 0.0
H948 H 0.34398 0.49625 0.30393 0.0
H949 H 0.35744 0.44125 0.37375 0.0
H950 H 0.3283 0.45936 0.27126 0.0
H951 H 0.37294 0.47855 0.40416 0.0
H952 H 0.32385 0.34867 0.41322 0.0
H953 H 0.38465 0.41019 0.41853 0.0
H954 H 0.239 0.3859 0.19583 0.0
H955 H 0.25884 0.43056 0.30394 0.0
H956 H 0.4073 0.42943 0.25365 0.0
H957 H 0.34342 0.37192 0.25387 0.0
H958 H 0.4237 0.40551 0.25582 0.0
H959 H 0.36093 0.3491 0.25602 0.0
H960 H 0.3661 0.44193 0.14543 0.0
H961 H 0.31076 0.44615 0.19119 0.0
H962 H 0.37388 0.47142 0.09266 0.0
H963 H 0.31956 0.47564 0.1377 0.0
H964 H 0.31822 0.35102 0.08485 0.0
H965 H 0.38574 0.40243 0.09341 0.0
H966 H 0.42869 0.49092 0.29184 0.0
H967 H 0.39571 0.51674 0.21475 0.0
Li968 Li 0.90308 0.31465 0.74859 0.0
Li969 Li 0.93607 0.33724 0.78727 0.0
Li970 Li 0.91906 0.35453 0.7481 0.0
Li971 Li 0.93836 0.33745 0.7089 0.0
C972 C 0.89746 0.32315 0.83468 0.0
N973 N 0.87811 0.3002 0.90954 0.0
C974 C 0.89937 0.30504 0.84608 0.0
C975 C 0.88575 0.32963 0.86137 0.0
C976 C 0.88947 0.29365 0.88404 0.0
C977 C 0.87607 0.3178 0.89908 0.0
C978 C 0.9411 0.30162 0.75521 0.0
C979 C 0.97391 0.29932 0.74858 0.0
N980 N 0.96378 0.27968 0.76916 0.0
C981 C 0.93091 0.28128 0.7758 0.0
C982 C 0.96269 0.31062 0.74104 0.0
C983 C 0.94269 0.2705 0.78275 0.0
C984 C 0.8755 0.27042 0.72563 0.0
N985 N 0.87623 0.28753 0.74729 0.0
C986 C 0.83885 0.26555 0.76851 0.0
C987 C 0.85837 0.28553 0.76817 0.0
C988 C 0.83762 0.24752 0.7467 0.0
C989 C 0.85622 0.25018 0.72476 0.0
H990 H 0.88995 0.27251 0.70925 0.0
H991 H 0.85926 0.29944 0.78467 0.0
C992 C 0.95016 0.35496 0.86889 0.0
N993 N 0.95125 0.3406 0.84115 0.0
C994 C 0.96135 0.36015 0.90819 0.0
C995 C 0.97405 0.33504 0.89079 0.0
C996 C 0.96274 0.33047 0.85151 0.0
C997 C 0.97365 0.35027 0.91943 0.0
H998 H 0.94084 0.36273 0.86004 0.0
H999 H 0.96352 0.31914 0.82932 0.0
C1000 C 0.88923 0.32977 0.68004 0.0
N1001 N 0.84948 0.32045 0.64523 0.0
C1002 C 0.88453 0.32356 0.63667 0.0
C1003 C 0.87372 0.33121 0.70575 0.0
C1004 C 0.86434 0.31893 0.61966 0.0
C1005 C 0.85371 0.32644 0.68755 0.0
C1006 C 0.96819 0.37736 0.77209 0.0
C1007 C 0.96868 0.39534 0.7921 0.0
C1008 C 0.98573 0.37367 0.77773 0.0
C1009 C 0.98654 0.40914 0.81797 0.0
C1010 C 0.00327 0.38782 0.80392 0.0
N1011 N 0.00331 0.4051 0.82337 0.0
C1012 C 0.9112 0.38686 0.78351 0.0
C1013 C 0.91269 0.38655 0.70688 0.0
C1014 C 0.90882 0.40534 0.78269 0.0
N1015 N 0.91341 0.37813 0.74597 0.0
C1016 C 0.91006 0.40484 0.70452 0.0
C1017 C 0.90851 0.41479 0.74279 0.0
H1018 H 0.91204 0.37989 0.81413 0.0
H1019 H 0.91449 0.37924 0.67754 0.0
C1020 C 0.94578 0.32757 0.62312 0.0
N1021 N 0.9551 0.34059 0.6582 0.0
C1022 C 0.95761 0.33154 0.58455 0.0
C1023 C 0.98855 0.3617 0.61962 0.0
C1024 C 0.9761 0.35728 0.65721 0.0
C1025 C 0.97922 0.34909 0.58221 0.0
H1026 H 0.92896 0.31451 0.6247 0.0
H1027 H 0.98307 0.36752 0.68535 0.0
O1028 O 0.90705 0.33461 0.79772 0.0
O1029 O 0.92973 0.31227 0.74776 0.0
O1030 O 0.90881 0.33409 0.69733 0.0
O1031 O 0.95054 0.36334 0.74753 0.0
H1032 H 0.90844 0.2999 0.8259 0.0
H1033 H 0.88412 0.34362 0.85297 0.0
H1034 H 0.89082 0.2796 0.89324 0.0
H1035 H 0.86693 0.32261 0.92004 0.0
H1036 H 0.99068 0.30616 0.73803 0.0
H1037 H 0.91406 0.27384 0.7862 0.0
H1038 H 0.97074 0.32616 0.72454 0.0
H1039 H 0.93505 0.25481 0.79884 0.0
H1040 H 0.8248 0.26428 0.78527 0.0
H1041 H 0.85598 0.23665 0.70778 0.0
H1042 H 0.96037 0.37178 0.92958 0.0
H1043 H 0.98347 0.32717 0.89815 0.0
H1044 H 0.89636 0.32231 0.6164 0.0
H1045 H 0.87703 0.33585 0.73948 0.0
H1046 H 0.86047 0.31411 0.58613 0.0
H1047 H 0.84154 0.32746 0.70708 0.0
H1048 H 0.95538 0.39857 0.7879 0.0
H1049 H 0.98563 0.3598 0.76276 0.0
H1050 H 0.98706 0.42304 0.83383 0.0
H1051 H 0.01682 0.385 0.80893 0.0
H1052 H 0.90804 0.41255 0.81307 0.0
H1053 H 0.9095 0.41124 0.67299 0.0
H1054 H 0.94963 0.32152 0.55648 0.0
H1055 H 0.00524 0.37513 0.61974 0.0
C1056 C 0.99774 0.34602 0.02654 0.0
C1057 C 0.00989 0.36807 0.03926 0.0
H1058 H 0.97668 0.32308 0.97882 0.0
C1059 C 0.01033 0.38413 0.01166 0.0
H1060 H 0.99683 0.33319 0.04715 0.0
C1061 C 0.99864 0.3783 0.97285 0.0
C1062 C 0.98634 0.35629 0.9604 0.0
H1063 H 0.01992 0.4013 0.01978 0.0
H1064 H 0.99944 0.3911 0.95229 0.0
C1065 C 0.98616 0.3402 0.98745 0.0
C1066 C 0.65785 0.99901 0.47812 0.0
C1067 C 0.63651 0.99002 0.46141 0.0
H1068 H 0.67981 0.01635 0.53021 0.0
C1069 C 0.62096 0.99241 0.48558 0.0
H1070 H 0.67037 0.99774 0.46036 0.0
C1071 C 0.62657 0.00371 0.52469 0.0
C1072 C 0.64775 0.01243 0.54187 0.0
H1073 H 0.60423 0.98537 0.47467 0.0
H1074 H 0.61415 0.00565 0.54127 0.0
C1075 C 0.66337 0.00999 0.51798 0.0
C1076 C 0.65119 0.63694 0.03953 0.0
C1077 C 0.63999 0.64873 0.04057 0.0
H1078 H 0.66483 0.62167 1.00047 0.0
C1079 C 0.63492 0.65511 1.00104 0.0
H1080 H 0.65581 0.63216 0.06923 0.0
C1081 C 0.64037 0.64931 0.96157 0.0
C1082 C 0.65083 0.63684 0.96072 0.0
H1083 H 0.62605 0.66393 1.00045 0.0
H1084 H 0.63567 0.65389 0.93171 0.0
C1085 C 0.65644 0.63099 1.00012 0.0
C1086 C 1.00083 0.62394 0.47048 0.0
C1087 C 0.01406 0.646 0.45913 0.0
H1088 H 0.97897 0.60095 0.51672 0.0
C1089 C 0.01515 0.66217 0.48719 0.0
H1090 H 0.99934 0.61111 0.4491 0.0
C1091 C 0.00364 0.65637 0.52638 0.0
C1092 C 0.99068 0.63426 0.53814 0.0
H1093 H 0.02535 0.67932 0.47937 0.0
H1094 H 0.00533 0.66923 0.54789 0.0
C1095 C 0.98921 0.61814 0.50936 0.0
C1096 C 0.34873 0.00892 0.98584 0.0
C1097 C 0.3672 0.01213 0.96242 0.0
H1098 H 0.32931 0.99607 0.04311 0.0
C1099 C 0.3802 0.00412 0.98 0.0
H1100 H 0.33821 0.01469 0.9733 0.0
C1101 C 0.37469 0.9928 0.01907 0.0
C1102 C 0.35636 0.98968 0.04281 0.0
H1103 H 0.39488 0.00667 0.96381 0.0
H1104 H 0.38484 0.98633 0.03031 0.0
C1105 C 0.34343 0.99792 0.02568 0.0
C1106 C 0.35536 0.35089 0.47285 0.0
C1107 C 0.36011 0.37242 0.46477 0.0
H1108 H 0.35736 0.3287 0.51738 0.0
C1109 C 0.37011 0.38812 0.4977 0.0
H1110 H 0.3479 0.33843 0.44811 0.0
C1111 C 0.37559 0.38255 0.5373 0.0
C1112 C 0.37113 0.36111 0.54515 0.0
H1113 H 0.37359 0.40475 0.49303 0.0
H1114 H 0.38321 0.39504 0.56194 0.0
C1115 C 0.36077 0.3453 0.51259 0.0
C1116 C 0.9829 0.6432 0.99529 0.0
C1117 C 0.99333 0.64175 0.95773 0.0
H1118 H 0.98548 0.64971 0.06349 0.0
C1119 C 0.01538 0.64731 0.96016 0.0
H1120 H 0.96588 0.63889 0.99445 0.0
C1121 C 0.0266 0.65357 0.99955 0.0
C1122 C 0.01595 0.65418 0.0375 0.0
H1123 H 0.02388 0.64651 0.93165 0.0
H1124 H 0.04339 0.65711 1.00059 0.0
C1125 C 0.99406 0.64923 0.03484 0.0
C1126 C 0.34436 0.99583 0.48189 0.0
C1127 C 0.35878 0.99039 0.46105 0.0
H1128 H 0.33824 0.01064 0.53632 0.0
C1129 C 0.37929 0.99746 0.48042 0.0
H1130 H 0.32852 0.99116 0.46826 0.0
C1131 C 0.38547 0.01002 0.51794 0.0
C1132 C 0.37094 0.01496 0.53961 0.0
H1133 H 0.39088 0.99327 0.46719 0.0
H1134 H 0.4019 0.01582 0.52951 0.0
C1135 C 0.3502 0.00758 0.52091 0.0
C1136 C 0.37637 0.38027 0.97097 0.0
C1137 C 0.36902 0.35832 0.96043 0.0
H1138 H 0.37668 0.40291 0.01728 0.0
C1139 C 0.35511 0.34196 0.98967 0.0
H1140 H 0.38665 0.39327 0.94882 0.0
C1141 C 0.3493 0.34753 0.02912 0.0
C1142 C 0.35734 0.36956 0.04017 0.0
H1143 H 0.34926 0.3249 0.98272 0.0
H1144 H 0.33911 0.33463 0.05153 0.0
C1145 C 0.37063 0.38581 0.01027 0.0
C1146 C 0.00496 0.37725 0.52954 0.0
C1147 C 0.99158 0.35513 0.54059 0.0
H1148 H 0.02646 0.40045 0.48323 0.0
C1149 C 0.98986 0.3391 0.51123 0.0
H1150 H 0.00647 0.3901 0.55088 0.0
C1151 C 1.00111 0.3451 0.47169 0.0
C1152 C 0.01427 0.36727 0.46059 0.0
H1153 H 0.97986 0.3219 0.51883 0.0
H1154 H 0.99916 0.33239 0.44949 0.0
C1155 C 0.01621 0.38322 0.49028 0.0
C1156 C 0.66009 0.00804 0.9839 0.0
C1157 C 0.64639 0.01501 0.96521 0.0
H1158 H 0.6658 0.99191 0.03648 0.0
C1159 C 0.62679 0.00962 0.98685 0.0
H1160 H 0.67521 0.01143 0.9685 0.0
C1161 C 0.62064 0.99703 0.02434 0.0
C1162 C 0.63442 0.99038 0.0437 0.0
H1163 H 0.61589 0.01509 0.97531 0.0
H1164 H 0.60477 0.9925 0.03756 0.0
C1165 C 0.65438 0.99625 0.02288 0.0
C1166 C 0.65297 0.65862 0.48188 0.0
C1167 C 0.63503 0.6432 0.45755 0.0
H1168 H 0.67195 0.66506 0.53987 0.0
C1169 C 0.62325 0.62156 0.47255 0.0
H1170 H 0.6623 0.67545 0.47125 0.0
C1171 C 0.6288 0.6156 0.51156 0.0
C1172 C 0.64623 0.63113 0.53681 0.0
H1173 H 0.60966 0.60916 0.45408 0.0
H1174 H 0.61935 0.59874 0.52198 0.0
C1175 C 0.6585 0.65266 0.52116 0.0
C1176 C 0.08164 0.55071 0.21051 0.0
C1177 C 0.09328 0.56648 0.2425 0.0
H1178 H 0.07232 0.51917 0.18481 0.0
C1179 C 0.10501 0.56194 0.27366 0.0
H1180 H 0.07218 0.55342 0.18628 0.0
C1181 C 0.10464 0.54196 0.27344 0.0
C1182 C 0.09264 0.52604 0.24191 0.0
H1183 H 0.11443 0.57379 0.29843 0.0
H1184 H 0.11334 0.5388 0.29868 0.0
C1185 C 0.08142 0.53084 0.21008 0.0
C1186 C 0.54701 0.11214 0.75267 0.0
C1187 C 0.52701 0.09237 0.75465 0.0
H1188 H 0.58189 0.12757 0.74822 0.0
C1189 C 0.52723 0.07259 0.75362 0.0
H1190 H 0.54741 0.12765 0.75367 0.0
C1191 C 0.54692 0.07255 0.75087 0.0
C1192 C 0.56694 0.09227 0.74893 0.0
H1193 H 0.51214 0.05706 0.75445 0.0
H1194 H 0.54645 0.05699 0.75079 0.0
C1195 C 0.56677 0.11209 0.74995 0.0
C1196 C 0.46284 0.55963 0.21215 0.0
C1197 C 0.47525 0.56827 0.25002 0.0
H1198 H 0.43396 0.53347 0.18354 0.0
C1199 C 0.4672 0.55703 0.2893 0.0
H1200 H 0.46858 0.56803 0.18148 0.0
C1201 C 0.44745 0.53722 0.29045 0.0
C1202 C 0.43523 0.52839 0.25244 0.0
H1203 H 0.4765 0.56321 0.31893 0.0
H1204 H 0.4418 0.52874 0.32105 0.0
C1205 C 0.44296 0.53996 0.21339 0.0
C1206 C 0.92056 0.47156 0.70987 0.0
C1207 C 0.90906 0.47625 0.74121 0.0
H1208 H 0.92981 0.44895 0.68628 0.0
C1209 C 0.89637 0.46007 0.77177 0.0
H1210 H 0.93019 0.48345 0.68532 0.0
C1211 C 0.89572 0.43994 0.7717 0.0
C1212 C 0.90782 0.43553 0.74119 0.0
H1213 H 0.8874 0.46314 0.79657 0.0
H1214 H 0.88585 0.4279 0.79582 0.0
C1215 C 0.92005 0.45155 0.71 0.0
C1216 C 0.43721 0.8903 0.25023 0.0
C1217 C 0.43707 0.91013 0.24982 0.0
H1218 H 0.45657 0.8747 0.25305 0.0
C1219 C 0.45708 0.92984 0.25211 0.0
H1220 H 0.42207 0.87485 0.24825 0.0
C1221 C 0.47677 0.92976 0.25471 0.0
C1222 C 0.47696 0.90996 0.25501 0.0
H1223 H 0.45754 0.94539 0.25243 0.0
H1224 H 0.49189 0.94526 0.25593 0.0
C1225 C 0.45696 0.89022 0.25263 0.0
C1226 C 0.56326 0.46194 0.71825 0.0
C1227 C 0.57152 0.47293 0.75772 0.0
H1228 H 0.53722 0.43443 0.68588 0.0
C1229 C 0.55972 0.46351 0.79593 0.0
H1230 H 0.57186 0.46885 0.6882 0.0
C1231 C 0.53984 0.44386 0.79457 0.0
C1232 C 0.53123 0.43324 0.75493 0.0
H1233 H 0.56575 0.47148 0.82689 0.0
H1234 H 0.53086 0.43737 0.82444 0.0
C1235 C 0.54331 0.44234 0.71686 0.0
C1236 C 0.20496 0.42756 0.24452 0.0
C1237 C 0.18504 0.4078 0.24687 0.0
H1238 H 0.23992 0.44313 0.24401 0.0
C1239 C 0.18528 0.38807 0.24973 0.0
H1240 H 0.20519 0.44298 0.24248 0.0
C1241 C 0.20514 0.38813 0.2498 0.0
C1242 C 0.22506 0.40794 0.24805 0.0
H1243 H 0.17011 0.37262 0.25137 0.0
H1244 H 0.20497 0.37274 0.25195 0.0
C1245 C 0.22478 0.42765 0.24555 0.0
C1246 C 0.80512 0.21778 0.78549 0.0
C1247 C 0.81702 0.22611 0.74694 0.0
H1248 H 0.77668 0.19187 0.81582 0.0
C1249 C 0.80898 0.21394 0.70861 0.0
H1250 H 0.81101 0.2267 0.81561 0.0
C1251 C 0.78932 0.19402 0.70872 0.0
C1252 C 0.7774 0.18573 0.74726 0.0
H1253 H 0.81772 0.22 0.67836 0.0
H1254 H 0.78349 0.18503 0.67867 0.0
C1255 C 0.78559 0.19776 0.7857 0.0
C1256 C 0.5953 0.78641 0.28798 0.0
C1257 C 0.59514 0.77642 0.24851 0.0
H1258 H 0.59522 0.81335 0.31955 0.0
C1259 C 0.59492 0.78668 0.20965 0.0
H1260 H 0.59527 0.77886 0.31851 0.0
C1261 C 0.59471 0.80637 0.21024 0.0
C1262 C 0.59464 0.81624 0.24972 0.0
H1263 H 0.59502 0.77954 0.17868 0.0
H1264 H 0.59422 0.81366 0.17973 0.0
C1265 C 0.59502 0.80606 0.28858 0.0
C1266 C 0.80281 0.58389 0.78342 0.0
C1267 C 0.81882 0.59526 0.75174 0.0
H1268 H 0.77095 0.57467 0.80735 0.0
C1269 C 0.81471 0.60695 0.71983 0.0
H1270 H 0.80532 0.57445 0.80805 0.0
C1271 C 0.79503 0.60722 0.71955 0.0
C1272 C 0.77893 0.59572 0.75108 0.0
H1273 H 0.82683 0.61613 0.6953 0.0
H1274 H 0.79257 0.61667 0.69489 0.0
C1275 C 0.7831 0.58405 0.78302 0.0
C1276 C 0.21789 0.80397 0.29103 0.0
C1277 C 0.2263 0.81589 0.25255 0.0
H1278 H 0.19212 0.77527 0.32093 0.0
C1279 C 0.21443 0.80765 0.21394 0.0
H1280 H 0.22675 0.80983 0.32122 0.0
C1281 C 0.19462 0.7879 0.21378 0.0
C1282 C 0.18634 0.77583 0.25214 0.0
H1283 H 0.22041 0.81656 0.18384 0.0
H1284 H 0.18595 0.78187 0.18345 0.0
C1285 C 0.19818 0.7841 0.29079 0.0
C1286 C 0.40948 0.21531 0.71552 0.0
C1287 C 0.40894 0.22539 0.7544 0.0
H1288 H 0.41008 0.18829 0.68555 0.0
C1289 C 0.40798 0.215 0.79382 0.0
H1290 H 0.40999 0.22277 0.68459 0.0
C1291 C 0.4079 0.19516 0.79435 0.0
C1292 C 0.40865 0.18519 0.75548 0.0
H1293 H 0.40773 0.22242 0.82434 0.0
H1294 H 0.40716 0.18759 0.82526 0.0
C1295 C 0.4093 0.19543 0.71605 0.0
loop_
_geom_bond_atom_site_label_1
_geom_bond_atom_site_label_2
_geom_bond_distance
_geom_bond_site_symmetry_2
_ccdc_geom_bond_type
Li0 N17 1.990 . S
Li0 O60 1.956 . S
Li0 O61 1.970 . S
Li0 O62 1.961 . S
Li1 N25 1.990 . S
Li1 O60 1.970 . S
Li1 O61 1.956 . S
Li1 O63 1.961 . S
Li2 N47 1.990 . S
Li2 O60 1.961 . S
Li2 O62 1.956 . S
Li2 O63 1.970 . S
Li3 N53 1.990 . S
Li3 O61 1.961 . S
Li3 O62 1.970 . S
Li3 O63 1.956 . S
C4 C6 1.348 . S
C4 C7 1.356 . S
C4 O60 1.325 . S
N5 C8 1.314 . S
N5 C9 1.279 . S
C6 C4 1.348 . S
C6 C8 1.353 . S
C6 H64 0.929 . S
C7 C4 1.356 . S
C7 C9 1.358 . S
C7 H65 0.930 . S
C8 N5 1.314 . S
C8 C6 1.353 . S
C8 H66 0.930 . S
C9 N5 1.279 . S
C9 C7 1.358 . S
C9 H67 0.930 . S
C10 C13 1.348 . S
C10 C14 1.356 . S
C10 O61 1.325 . S
C11 N12 1.279 . S
C11 C14 1.358 1_655 S
C11 H68 0.930 . S
N12 C11 1.279 . S
N12 C15 1.314 1_655 S
C13 C10 1.348 . S
C13 C15 1.353 . S
C13 H69 0.929 . S
C14 C10 1.356 . S
C14 C11 1.358 1_455 S
C14 H70 0.930 . S
C15 N12 1.314 1_455 S
C15 C13 1.353 . S
C15 H71 0.930 . S
C16 N17 1.314 . S
C16 C21 1.353 . S
C16 H22 0.930 . S
N17 Li0 1.990 . S
N17 C16 1.314 . S
N17 C19 1.279 . S
C18 C19 1.358 . S
C18 C20 1.356 . S
C18 H72 0.930 . S
C19 N17 1.279 . S
C19 C18 1.358 . S
C19 H23 0.930 . S
C20 C18 1.356 . S
C20 C21 1.348 . S
C21 C16 1.353 . S
C21 C20 1.348 . S
C21 H73 0.929 . S
H22 C16 0.930 . S
H23 C19 0.930 . S
C24 N25 1.314 . S
C24 C26 1.353 . S
C24 H30 0.930 . S
N25 Li1 1.990 . S
N25 C24 1.314 . S
N25 C28 1.279 . S
C26 C24 1.353 . S
C26 C29 1.348 . S
C26 H74 0.929 . S
C27 C28 1.358 . S
C27 C29 1.356 . S
C27 H75 0.930 . S
C28 N25 1.279 . S
C28 C27 1.358 . S
C28 H31 0.930 . S
C29 C26 1.348 . S
C29 C27 1.356 . S
H30 C24 0.930 . S
H31 C28 0.930 . S
C32 C34 1.348 . S
C32 C35 1.356 . S
C32 O62 1.325 . S
N33 C36 1.314 . S
N33 C37 1.279 . S
C34 C32 1.348 . S
C34 C36 1.353 . S
C34 H76 0.929 . S
C35 C32 1.356 . S
C35 C37 1.358 . S
C35 H77 0.930 . S
C36 N33 1.314 . S
C36 C34 1.353 . S
C36 H78 0.930 . S
C37 N33 1.279 . S
C37 C35 1.358 . S
C37 H79 0.930 . S
C38 C39 1.348 . S
C38 C40 1.356 . S
C38 O63 1.325 . S
C39 C38 1.348 . S
C39 C41 1.353 . S
C39 H80 0.929 . S
C40 C38 1.356 . S
C40 C42 1.358 . S
C40 H81 0.930 . S
C41 C39 1.353 . S
C41 N43 1.314 . S
C41 H82 0.930 . S
C42 C40 1.358 . S
C42 N43 1.279 . S
C42 H83 0.930 . S
N43 C41 1.314 . S
N43 C42 1.279 . S
C44 C46 1.353 . S
C44 N47 1.314 . S
C44 H50 0.930 . S
C45 N47 1.279 . S
C45 C48 1.358 . S
C45 H51 0.930 . S
C46 C44 1.353 . S
C46 C49 1.348 . S
C46 H84 0.929 . S
N47 Li2 1.990 . S
N47 C44 1.314 . S
N47 C45 1.279 . S
C48 C45 1.358 . S
C48 C49 1.356 . S
C48 H85 0.930 . S
C49 C46 1.348 . S
C49 C48 1.356 . S
H50 C44 0.930 . S
H51 C45 0.930 . S
C52 N53 1.314 . S
C52 C54 1.353 . S
C52 H58 0.930 . S
N53 Li3 1.990 . S
N53 C52 1.314 . S
N53 C56 1.279 . S
C54 C52 1.353 . S
C54 C57 1.348 . S
C54 H86 0.929 . S
C55 C56 1.358 . S
C55 C57 1.356 . S
C55 H87 0.930 . S
C56 N53 1.279 . S
C56 C55 1.358 . S
C56 H59 0.930 . S
C57 C54 1.348 . S
C57 C55 1.356 . S
H58 C52 0.930 . S
H59 C56 0.930 . S
O60 Li0 1.956 . S
O60 Li1 1.970 . S
O60 Li2 1.961 . S
O60 C4 1.325 . S
O61 Li0 1.970 . S
O61 Li1 1.956 . S
O61 Li3 1.961 . S
O61 C10 1.325 . S
O62 Li0 1.961 . S
O62 Li2 1.956 . S
O62 Li3 1.970 . S
O62 C32 1.325 . S
O63 Li1 1.961 . S
O63 Li2 1.970 . S
O63 Li3 1.956 . S
O63 C38 1.325 . S
H64 C6 0.929 . S
H65 C7 0.930 . S
H66 C8 0.930 . S
H67 C9 0.930 . S
H68 C11 0.930 . S
H69 C13 0.929 . S
H70 C14 0.930 . S
H71 C15 0.930 . S
H72 C18 0.930 . S
H73 C21 0.929 . S
H74 C26 0.929 . S
H75 C27 0.930 . S
H76 C34 0.929 . S
H77 C35 0.930 . S
H78 C36 0.930 . S
H79 C37 0.930 . S
H80 C39 0.929 . S
H81 C40 0.930 . S
H82 C41 0.930 . S
H83 C42 0.930 . S
H84 C46 0.929 . S
H85 C48 0.930 . S
H86 C54 0.929 . S
H87 C55 0.930 . S
Li88 N105 1.990 . S
Li88 O148 1.956 . S
Li88 O149 1.970 . S
Li88 O150 1.961 . S
Li89 N113 1.990 . S
Li89 O148 1.970 . S
Li89 O149 1.956 . S
Li89 O151 1.961 . S
Li90 N135 1.990 . S
Li90 O148 1.961 . S
Li90 O150 1.956 . S
Li90 O151 1.970 . S
Li91 N141 1.990 . S
Li91 O149 1.961 . S
Li91 O150 1.970 . S
Li91 O151 1.956 . S
C92 C94 1.348 . S
C92 C95 1.356 . S
C92 O148 1.325 . S
N93 C96 1.314 . S
N93 C97 1.279 . S
C94 C92 1.348 . S
C94 C96 1.353 . S
C94 H152 0.929 . S
C95 C92 1.356 . S
C95 C97 1.358 . S
C95 H153 0.930 . S
C96 N93 1.314 . S
C96 C94 1.353 . S
C96 H154 0.930 . S
C97 N93 1.279 . S
C97 C95 1.358 . S
C97 H155 0.930 . S
C98 C101 1.348 . S
C98 C102 1.356 . S
C98 O149 1.325 . S
C99 N100 1.279 . S
C99 C102 1.358 1_565 S
C99 H156 0.930 . S
N100 C99 1.279 . S
N100 C103 1.314 1_565 S
C101 C98 1.348 . S
C101 C103 1.353 . S
C101 H157 0.929 . S
C102 C98 1.356 . S
C102 C99 1.358 1_545 S
C102 H158 0.930 . S
C103 N100 1.314 1_545 S
C103 C101 1.353 . S
C103 H159 0.930 . S
C104 N105 1.314 . S
C104 C109 1.353 . S
C104 H110 0.930 . S
N105 Li88 1.990 . S
N105 C104 1.314 . S
N105 C107 1.279 . S
C106 C107 1.358 . S
C106 C108 1.356 . S
C106 H160 0.930 . S
C107 N105 1.279 . S
C107 C106 1.358 . S
C107 H111 0.930 . S
C108 C106 1.356 . S
C108 C109 1.348 . S
C109 C104 1.353 . S
C109 C108 1.348 . S
C109 H161 0.929 . S
H110 C104 0.930 . S
H111 C107 0.930 . S
C112 N113 1.314 . S
C112 C114 1.353 . S
C112 H118 0.930 . S
N113 Li89 1.990 . S
N113 C112 1.314 . S
N113 C116 1.279 . S
C114 C112 1.353 . S
C114 C117 1.348 . S
C114 H162 0.929 . S
C115 C116 1.358 . S
C115 C117 1.356 . S
C115 H163 0.930 . S
C116 N113 1.279 . S
C116 C115 1.358 . S
C116 H119 0.930 . S
C117 C114 1.348 . S
C117 C115 1.356 . S
H118 C112 0.930 . S
H119 C116 0.930 . S
C120 C122 1.348 . S
C120 C123 1.356 . S
C120 O150 1.325 . S
N121 C124 1.314 . S
N121 C125 1.279 . S
C122 C120 1.348 . S
C122 C124 1.353 . S
C122 H164 0.929 . S
C123 C120 1.356 . S
C123 C125 1.358 . S
C123 H165 0.930 . S
C124 N121 1.314 . S
C124 C122 1.353 . S
C124 H166 0.930 . S
C125 N121 1.279 . S
C125 C123 1.358 . S
C125 H167 0.930 . S
C126 C127 1.348 . S
C126 C128 1.356 . S
C126 O151 1.325 . S
C127 C126 1.348 . S
C127 C129 1.353 . S
C127 H168 0.929 . S
C128 C126 1.356 . S
C128 C130 1.358 . S
C128 H169 0.930 . S
C129 C127 1.353 . S
C129 N131 1.314 . S
C129 H170 0.930 . S
C130 C128 1.358 . S
C130 N131 1.279 . S
C130 H171 0.930 . S
N131 C129 1.314 . S
N131 C130 1.279 . S
C132 C134 1.353 . S
C132 N135 1.314 . S
C132 H138 0.930 . S
C133 N135 1.279 . S
C133 C136 1.358 . S
C133 H139 0.930 . S
C134 C132 1.353 . S
C134 C137 1.348 . S
C134 H172 0.929 . S
N135 Li90 1.990 . S
N135 C132 1.314 . S
N135 C133 1.279 . S
C136 C133 1.358 . S
C136 C137 1.356 . S
C136 H173 0.930 . S
C137 C134 1.348 . S
C137 C136 1.356 . S
H138 C132 0.930 . S
H139 C133 0.930 . S
C140 N141 1.314 . S
C140 C142 1.353 . S
C140 H146 0.930 . S
N141 Li91 1.990 . S
N141 C140 1.314 . S
N141 C144 1.279 . S
C142 C140 1.353 . S
C142 C145 1.348 . S
C142 H174 0.929 . S
C143 C144 1.358 . S
C143 C145 1.356 . S
C143 H175 0.930 . S
C144 N141 1.279 . S
C144 C143 1.358 . S
C144 H147 0.930 . S
C145 C142 1.348 . S
C145 C143 1.356 . S
H146 C140 0.930 . S
H147 C144 0.930 . S
O148 Li88 1.956 . S
O148 Li89 1.970 . S
O148 Li90 1.961 . S
O148 C92 1.325 . S
O149 Li88 1.970 . S
O149 Li89 1.956 . S
O149 Li91 1.961 . S
O149 C98 1.325 . S
O150 Li88 1.961 . S
O150 Li90 1.956 . S
O150 Li91 1.970 . S
O150 C120 1.325 . S
O151 Li89 1.961 . S
O151 Li90 1.970 . S
O151 Li91 1.956 . S
O151 C126 1.325 . S
H152 C94 0.929 . S
H153 C95 0.930 . S
H154 C96 0.930 . S
H155 C97 0.930 . S
H156 C99 0.930 . S
H157 C101 0.929 . S
H158 C102 0.930 . S
H159 C103 0.930 . S
H160 C106 0.930 . S
H161 C109 0.929 . S
H162 C114 0.929 . S
H163 C115 0.930 . S
H164 C122 0.929 . S
H165 C123 0.930 . S
H166 C124 0.930 . S
H167 C125 0.930 . S
H168 C127 0.929 . S
H169 C128 0.930 . S
H170 C129 0.930 . S
H171 C130 0.930 . S
H172 C134 0.929 . S
H173 C136 0.930 . S
H174 C142 0.929 . S
H175 C143 0.930 . S
Li176 N193 1.990 . S
Li176 O236 1.956 . S
Li176 O237 1.970 . S
Li176 O238 1.961 . S
Li177 N201 1.990 . S
Li177 O236 1.970 . S
Li177 O237 1.956 . S
Li177 O239 1.961 . S
Li178 N223 1.990 . S
Li178 O236 1.961 . S
Li178 O238 1.956 . S
Li178 O239 1.970 . S
Li179 N229 1.990 . S
Li179 O237 1.961 . S
Li179 O238 1.970 . S
Li179 O239 1.956 . S
C180 C182 1.348 . S
C180 C183 1.356 . S
C180 O236 1.325 . S
N181 C184 1.314 . S
N181 C185 1.279 . S
C182 C180 1.348 . S
C182 C184 1.353 . S
C182 H240 0.929 . S
C183 C180 1.356 . S
C183 C185 1.358 . S
C183 H241 0.930 . S
C184 N181 1.314 . S
C184 C182 1.353 . S
C184 H242 0.930 . S
C185 N181 1.279 . S
C185 C183 1.358 . S
C185 H243 0.930 . S
C186 C189 1.348 . S
C186 C190 1.356 . S
C186 O237 1.325 . S
C187 N188 1.279 . S
C187 C190 1.358 . S
C187 H244 0.930 . S
N188 C187 1.279 . S
N188 C191 1.314 . S
C189 C186 1.348 . S
C189 C191 1.353 . S
C189 H245 0.929 . S
C190 C186 1.356 . S
C190 C187 1.358 . S
C190 H246 0.930 . S
C191 N188 1.314 . S
C191 C189 1.353 . S
C191 H247 0.930 . S
C192 N193 1.314 . S
C192 C197 1.353 . S
C192 H198 0.930 . S
N193 Li176 1.990 . S
N193 C192 1.314 . S
N193 C195 1.279 . S
C194 C195 1.358 . S
C194 C196 1.356 . S
C194 H248 0.930 . S
C195 N193 1.279 . S
C195 C194 1.358 . S
C195 H199 0.930 . S
C196 C194 1.356 . S
C196 C197 1.348 . S
C197 C192 1.353 . S
C197 C196 1.348 . S
C197 H249 0.929 . S
H198 C192 0.930 . S
H199 C195 0.930 . S
C200 N201 1.314 . S
C200 C202 1.353 . S
C200 H206 0.930 . S
N201 Li177 1.990 . S
N201 C200 1.314 . S
N201 C204 1.279 . S
C202 C200 1.353 . S
C202 C205 1.348 . S
C202 H250 0.929 . S
C203 C204 1.358 . S
C203 C205 1.356 . S
C203 H251 0.930 . S
C204 N201 1.279 . S
C204 C203 1.358 . S
C204 H207 0.930 . S
C205 C202 1.348 . S
C205 C203 1.356 . S
H206 C200 0.930 . S
H207 C204 0.930 . S
C208 C210 1.348 . S
C208 C211 1.356 . S
C208 O238 1.325 . S
N209 C212 1.314 . S
N209 C213 1.279 . S
C210 C208 1.348 . S
C210 C212 1.353 . S
C210 H252 0.929 . S
C211 C208 1.356 . S
C211 C213 1.358 . S
C211 H253 0.930 . S
C212 N209 1.314 . S
C212 C210 1.353 . S
C212 H254 0.930 . S
C213 N209 1.279 . S
C213 C211 1.358 . S
C213 H255 0.930 . S
C214 C215 1.348 . S
C214 C216 1.356 . S
C214 O239 1.325 . S
C215 C214 1.348 . S
C215 C217 1.353 . S
C215 H256 0.929 . S
C216 C214 1.356 . S
C216 C218 1.358 . S
C216 H257 0.930 . S
C217 C215 1.353 . S
C217 N219 1.314 . S
C217 H258 0.930 . S
C218 C216 1.358 . S
C218 N219 1.279 . S
C218 H259 0.930 . S
N219 C217 1.314 . S
N219 C218 1.279 . S
C220 C222 1.353 . S
C220 N223 1.314 . S
C220 H226 0.930 . S
C221 N223 1.279 . S
C221 C224 1.358 . S
C221 H227 0.930 . S
C222 C220 1.353 . S
C222 C225 1.348 . S
C222 H260 0.929 . S
N223 Li178 1.990 . S
N223 C220 1.314 . S
N223 C221 1.279 . S
C224 C221 1.358 . S
C224 C225 1.356 . S
C224 H261 0.930 . S
C225 C222 1.348 . S
C225 C224 1.356 . S
H226 C220 0.930 . S
H227 C221 0.930 . S
C228 N229 1.314 . S
C228 C230 1.353 . S
C228 H234 0.930 . S
N229 Li179 1.990 . S
N229 C228 1.314 . S
N229 C232 1.279 . S
C230 C228 1.353 . S
C230 C233 1.348 . S
C230 H262 0.929 . S
C231 C232 1.358 . S
C231 C233 1.356 . S
C231 H263 0.930 . S
C232 N229 1.279 . S
C232 C231 1.358 . S
C232 H235 0.930 . S
C233 C230 1.348 . S
C233 C231 1.356 . S
H234 C228 0.930 . S
H235 C232 0.930 . S
O236 Li176 1.956 . S
O236 Li177 1.970 . S
O236 Li178 1.961 . S
O236 C180 1.325 . S
O237 Li176 1.970 . S
O237 Li177 1.956 . S
O237 Li179 1.961 . S
O237 C186 1.325 . S
O238 Li176 1.961 . S
O238 Li178 1.956 . S
O238 Li179 1.970 . S
O238 C208 1.325 . S
O239 Li177 1.961 . S
O239 Li178 1.970 . S
O239 Li179 1.956 . S
O239 C214 1.325 . S
H240 C182 0.929 . S
H241 C183 0.930 . S
H242 C184 0.930 . S
H243 C185 0.930 . S
H244 C187 0.930 . S
H245 C189 0.929 . S
H246 C190 0.930 . S
H247 C191 0.930 . S
H248 C194 0.930 . S
H249 C197 0.929 . S
H250 C202 0.929 . S
H251 C203 0.930 . S
H252 C210 0.929 . S
H253 C211 0.930 . S
H254 C212 0.930 . S
H255 C213 0.930 . S
H256 C215 0.929 . S
H257 C216 0.930 . S
H258 C217 0.930 . S
H259 C218 0.930 . S
H260 C222 0.929 . S
H261 C224 0.930 . S
H262 C230 0.929 . S
H263 C231 0.930 . S
Li264 N281 1.990 . S
Li264 O324 1.956 . S
Li264 O325 1.970 . S
Li264 O326 1.961 . S
Li265 N289 1.990 . S
Li265 O324 1.970 . S
Li265 O325 1.956 . S
Li265 O327 1.961 . S
Li266 N311 1.990 . S
Li266 O324 1.961 . S
Li266 O326 1.956 . S
Li266 O327 1.970 . S
Li267 N317 1.990 . S
Li267 O325 1.961 . S
Li267 O326 1.970 . S
Li267 O327 1.956 . S
C268 C270 1.348 . S
C268 C271 1.356 . S
C268 O324 1.325 . S
N269 C272 1.314 . S
N269 C273 1.279 . S
C270 C268 1.348 . S
C270 C272 1.353 . S
C270 H328 0.929 . S
C271 C268 1.356 . S
C271 C273 1.358 . S
C271 H329 0.930 . S
C272 N269 1.314 . S
C272 C270 1.353 . S
C272 H330 0.930 . S
C273 N269 1.279 . S
C273 C271 1.358 . S
C273 H331 0.930 . S
C274 C277 1.348 . S
C274 C278 1.356 . S
C274 O325 1.325 . S
C275 N276 1.279 . S
C275 C278 1.358 1_455 S
C275 H332 0.930 . S
N276 C275 1.279 . S
N276 C279 1.314 1_455 S
C277 C274 1.348 . S
C277 C279 1.353 . S
C277 H333 0.929 . S
C278 C274 1.356 . S
C278 C275 1.358 1_655 S
C278 H334 0.930 . S
C279 N276 1.314 1_655 S
C279 C277 1.353 . S
C279 H335 0.930 . S
C280 N281 1.314 . S
C280 C285 1.353 . S
C280 H286 0.930 . S
N281 Li264 1.990 . S
N281 C280 1.314 . S
N281 C283 1.279 . S
C282 C283 1.358 . S
C282 C284 1.356 . S
C282 H336 0.930 . S
C283 N281 1.279 . S
C283 C282 1.358 . S
C283 H287 0.930 . S
C284 C282 1.356 . S
C284 C285 1.348 . S
C285 C280 1.353 . S
C285 C284 1.348 . S
C285 H337 0.929 . S
H286 C280 0.930 . S
H287 C283 0.930 . S
C288 N289 1.314 . S
C288 C290 1.353 . S
C288 H294 0.930 . S
N289 Li265 1.990 . S
N289 C288 1.314 . S
N289 C292 1.279 . S
C290 C288 1.353 . S
C290 C293 1.348 . S
C290 H338 0.929 . S
C291 C292 1.358 . S
C291 C293 1.356 . S
C291 H339 0.930 . S
C292 N289 1.279 . S
C292 C291 1.358 . S
C292 H295 0.930 . S
C293 C290 1.348 . S
C293 C291 1.356 . S
H294 C288 0.930 . S
H295 C292 0.930 . S
C296 C298 1.348 . S
C296 C299 1.356 . S
C296 O326 1.325 . S
N297 C300 1.314 . S
N297 C301 1.279 . S
C298 C296 1.348 . S
C298 C300 1.353 . S
C298 H340 0.929 . S
C299 C296 1.356 . S
C299 C301 1.358 . S
C299 H341 0.930 . S
C300 N297 1.314 . S
C300 C298 1.353 . S
C300 H342 0.930 . S
C301 N297 1.279 . S
C301 C299 1.358 . S
C301 H343 0.930 . S
C302 C303 1.348 . S
C302 C304 1.356 . S
C302 O327 1.325 . S
C303 C302 1.348 . S
C303 C305 1.353 . S
C303 H344 0.929 . S
C304 C302 1.356 . S
C304 C306 1.358 . S
C304 H345 0.930 . S
C305 C303 1.353 . S
C305 N307 1.314 . S
C305 H346 0.930 . S
C306 C304 1.358 . S
C306 N307 1.279 . S
C306 H347 0.930 . S
N307 C305 1.314 . S
N307 C306 1.279 . S
C308 C310 1.353 . S
C308 N311 1.314 . S
C308 H314 0.930 . S
C309 N311 1.279 . S
C309 C312 1.358 . S
C309 H315 0.930 . S
C310 C308 1.353 . S
C310 C313 1.348 . S
C310 H348 0.929 . S
N311 Li266 1.990 . S
N311 C308 1.314 . S
N311 C309 1.279 . S
C312 C309 1.358 . S
C312 C313 1.356 . S
C312 H349 0.930 . S
C313 C310 1.348 . S
C313 C312 1.356 . S
H314 C308 0.930 . S
H315 C309 0.930 . S
C316 N317 1.314 . S
C316 C318 1.353 . S
C316 H322 0.930 . S
N317 Li267 1.990 . S
N317 C316 1.314 . S
N317 C320 1.279 . S
C318 C316 1.353 . S
C318 C321 1.348 . S
C318 H350 0.929 . S
C319 C320 1.358 . S
C319 C321 1.356 . S
C319 H351 0.930 . S
C320 N317 1.279 . S
C320 C319 1.358 . S
C320 H323 0.930 . S
C321 C318 1.348 . S
C321 C319 1.356 . S
H322 C316 0.930 . S
H323 C320 0.930 . S
O324 Li264 1.956 . S
O324 Li265 1.970 . S
O324 Li266 1.961 . S
O324 C268 1.325 . S
O325 Li264 1.970 . S
O325 Li265 1.956 . S
O325 Li267 1.961 . S
O325 C274 1.325 . S
O326 Li264 1.961 . S
O326 Li266 1.956 . S
O326 Li267 1.970 . S
O326 C296 1.325 . S
O327 Li265 1.961 . S
O327 Li266 1.970 . S
O327 Li267 1.956 . S
O327 C302 1.325 . S
H328 C270 0.929 . S
H329 C271 0.930 . S
H330 C272 0.930 . S
H331 C273 0.930 . S
H332 C275 0.930 . S
H333 C277 0.929 . S
H334 C278 0.930 . S
H335 C279 0.930 . S
H336 C282 0.930 . S
H337 C285 0.929 . S
H338 C290 0.929 . S
H339 C291 0.930 . S
H340 C298 0.929 . S
H341 C299 0.930 . S
H342 C300 0.930 . S
H343 C301 0.930 . S
H344 C303 0.929 . S
H345 C304 0.930 . S
H346 C305 0.930 . S
H347 C306 0.930 . S
H348 C310 0.929 . S
H349 C312 0.930 . S
H350 C318 0.929 . S
H351 C319 0.930 . S
Li352 N369 1.990 . S
Li352 O412 1.956 . S
Li352 O413 1.970 . S
Li352 O414 1.961 . S
Li353 N377 1.990 . S
Li353 O412 1.970 . S
Li353 O413 1.956 . S
Li353 O415 1.961 . S
Li354 N399 1.990 . S
Li354 O412 1.961 . S
Li354 O414 1.956 . S
Li354 O415 1.970 . S
Li355 N405 1.990 . S
Li355 O413 1.961 . S
Li355 O414 1.970 . S
Li355 O415 1.956 . S
C356 C358 1.348 . S
C356 C359 1.356 . S
C356 O412 1.325 . S
N357 C360 1.314 1_545 S
N357 C361 1.279 . S
C358 C356 1.348 . S
C358 C360 1.353 . S
C358 H416 0.929 . S
C359 C356 1.356 . S
C359 C361 1.358 1_565 S
C359 H417 0.930 . S
C360 N357 1.314 1_565 S
C360 C358 1.353 . S
C360 H418 0.930 . S
C361 N357 1.279 . S
C361 C359 1.358 1_545 S
C361 H419 0.930 . S
C362 C365 1.348 . S
C362 C366 1.356 . S
C362 O413 1.325 . S
C363 N364 1.279 . S
C363 C366 1.358 . S
C363 H420 0.930 . S
N364 C363 1.279 . S
N364 C367 1.314 . S
C365 C362 1.348 . S
C365 C367 1.353 . S
C365 H421 0.929 . S
C366 C362 1.356 . S
C366 C363 1.358 . S
C366 H422 0.930 . S
C367 N364 1.314 . S
C367 C365 1.353 . S
C367 H423 0.930 . S
C368 N369 1.314 . S
C368 C373 1.353 . S
C368 H374 0.930 . S
N369 Li352 1.990 . S
N369 C368 1.314 . S
N369 C371 1.279 . S
C370 C371 1.358 . S
C370 C372 1.356 . S
C370 H424 0.930 . S
C371 N369 1.279 . S
C371 C370 1.358 . S
C371 H375 0.930 . S
C372 C370 1.356 . S
C372 C373 1.348 . S
C373 C368 1.353 . S
C373 C372 1.348 . S
C373 H425 0.929 . S
H374 C368 0.930 . S
H375 C371 0.930 . S
C376 N377 1.314 . S
C376 C378 1.353 . S
C376 H382 0.930 . S
N377 Li353 1.990 . S
N377 C376 1.314 . S
N377 C380 1.279 . S
C378 C376 1.353 . S
C378 C381 1.348 . S
C378 H426 0.929 . S
C379 C380 1.358 . S
C379 C381 1.356 . S
C379 H427 0.930 . S
C380 N377 1.279 . S
C380 C379 1.358 . S
C380 H383 0.930 . S
C381 C378 1.348 . S
C381 C379 1.356 . S
H382 C376 0.930 . S
H383 C380 0.930 . S
C384 C386 1.348 . S
C384 C387 1.356 . S
C384 O414 1.325 . S
N385 C388 1.314 . S
N385 C389 1.279 . S
C386 C384 1.348 . S
C386 C388 1.353 . S
C386 H428 0.929 . S
C387 C384 1.356 . S
C387 C389 1.358 . S
C387 H429 0.930 . S
C388 N385 1.314 . S
C388 C386 1.353 . S
C388 H430 0.930 . S
C389 N385 1.279 . S
C389 C387 1.358 . S
C389 H431 0.930 . S
C390 C391 1.348 . S
C390 C392 1.356 . S
C390 O415 1.325 . S
C391 C390 1.348 . S
C391 C393 1.353 . S
C391 H432 0.929 . S
C392 C390 1.356 . S
C392 C394 1.358 . S
C392 H433 0.930 . S
C393 C391 1.353 . S
C393 N395 1.314 . S
C393 H434 0.930 . S
C394 C392 1.358 . S
C394 N395 1.279 . S
C394 H435 0.930 . S
N395 C393 1.314 . S
N395 C394 1.279 . S
C396 C398 1.353 . S
C396 N399 1.314 . S
C396 H402 0.930 . S
C397 N399 1.279 . S
C397 C400 1.358 . S
C397 H403 0.930 . S
C398 C396 1.353 . S
C398 C401 1.348 . S
C398 H436 0.929 . S
N399 Li354 1.990 . S
N399 C396 1.314 . S
N399 C397 1.279 . S
C400 C397 1.358 . S
C400 C401 1.356 . S
C400 H437 0.930 . S
C401 C398 1.348 . S
C401 C400 1.356 . S
H402 C396 0.930 . S
H403 C397 0.930 . S
C404 N405 1.314 . S
C404 C406 1.353 . S
C404 H410 0.930 . S
N405 Li355 1.990 . S
N405 C404 1.314 . S
N405 C408 1.279 . S
C406 C404 1.353 . S
C406 C409 1.348 . S
C406 H438 0.929 . S
C407 C408 1.358 . S
C407 C409 1.356 . S
C407 H439 0.930 . S
C408 N405 1.279 . S
C408 C407 1.358 . S
C408 H411 0.930 . S
C409 C406 1.348 . S
C409 C407 1.356 . S
H410 C404 0.930 . S
H411 C408 0.930 . S
O412 Li352 1.956 . S
O412 Li353 1.970 . S
O412 Li354 1.961 . S
O412 C356 1.325 . S
O413 Li352 1.970 . S
O413 Li353 1.956 . S
O413 Li355 1.961 . S
O413 C362 1.325 . S
O414 Li352 1.961 . S
O414 Li354 1.956 . S
O414 Li355 1.970 . S
O414 C384 1.325 . S
O415 Li353 1.961 . S
O415 Li354 1.970 . S
O415 Li355 1.956 . S
O415 C390 1.325 . S
H416 C358 0.929 . S
H417 C359 0.930 . S
H418 C360 0.930 . S
H419 C361 0.930 . S
H420 C363 0.930 . S
H421 C365 0.929 . S
H422 C366 0.930 . S
H423 C367 0.930 . S
H424 C370 0.930 . S
H425 C373 0.929 . S
H426 C378 0.929 . S
H427 C379 0.930 . S
H428 C386 0.929 . S
H429 C387 0.930 . S
H430 C388 0.930 . S
H431 C389 0.930 . S
H432 C391 0.929 . S
H433 C392 0.930 . S
H434 C393 0.930 . S
H435 C394 0.930 . S
H436 C398 0.929 . S
H437 C400 0.930 . S
H438 C406 0.929 . S
H439 C407 0.930 . S
Li440 N457 1.990 . S
Li440 O500 1.956 . S
Li440 O501 1.970 . S
Li440 O502 1.961 . S
Li441 N465 1.990 . S
Li441 O500 1.970 . S
Li441 O501 1.956 . S
Li441 O503 1.961 . S
Li442 N487 1.990 . S
Li442 O500 1.961 . S
Li442 O502 1.956 . S
Li442 O503 1.970 . S
Li443 N493 1.990 . S
Li443 O501 1.961 . S
Li443 O502 1.970 . S
Li443 O503 1.956 . S
C444 C446 1.348 . S
C444 C447 1.356 . S
C444 O500 1.325 . S
N445 C448 1.314 . S
N445 C449 1.279 . S
C446 C444 1.348 . S
C446 C448 1.353 . S
C446 H504 0.929 . S
C447 C444 1.356 . S
C447 C449 1.358 . S
C447 H505 0.930 . S
C448 N445 1.314 . S
C448 C446 1.353 . S
C448 H506 0.930 . S
C449 N445 1.279 . S
C449 C447 1.358 . S
C449 H507 0.930 . S
C450 C453 1.348 . S
C450 C454 1.356 . S
C450 O501 1.325 . S
C451 N452 1.279 . S
C451 C454 1.358 . S
C451 H508 0.930 . S
N452 C451 1.279 . S
N452 C455 1.314 . S
C453 C450 1.348 . S
C453 C455 1.353 . S
C453 H509 0.929 . S
C454 C450 1.356 . S
C454 C451 1.358 . S
C454 H510 0.930 . S
C455 N452 1.314 . S
C455 C453 1.353 . S
C455 H511 0.930 . S
C456 N457 1.314 . S
C456 C461 1.353 . S
C456 H462 0.930 . S
N457 Li440 1.990 . S
N457 C456 1.314 . S
N457 C459 1.279 . S
C458 C459 1.358 . S
C458 C460 1.356 . S
C458 H512 0.930 . S
C459 N457 1.279 . S
C459 C458 1.358 . S
C459 H463 0.930 . S
C460 C458 1.356 . S
C460 C461 1.348 . S
C461 C456 1.353 . S
C461 C460 1.348 . S
C461 H513 0.929 . S
H462 C456 0.930 . S
H463 C459 0.930 . S
C464 N465 1.314 . S
C464 C466 1.353 . S
C464 H470 0.930 . S
N465 Li441 1.990 . S
N465 C464 1.314 . S
N465 C468 1.279 . S
C466 C464 1.353 . S
C466 C469 1.348 . S
C466 H514 0.929 . S
C467 C468 1.358 . S
C467 C469 1.356 . S
C467 H515 0.930 . S
C468 N465 1.279 . S
C468 C467 1.358 . S
C468 H471 0.930 . S
C469 C466 1.348 . S
C469 C467 1.356 . S
H470 C464 0.930 . S
H471 C468 0.930 . S
C472 C474 1.348 . S
C472 C475 1.356 . S
C472 O502 1.325 . S
N473 C476 1.314 . S
N473 C477 1.279 . S
C474 C472 1.348 . S
C474 C476 1.353 . S
C474 H516 0.929 . S
C475 C472 1.356 . S
C475 C477 1.358 . S
C475 H517 0.930 . S
C476 N473 1.314 . S
C476 C474 1.353 . S
C476 H518 0.930 . S
C477 N473 1.279 . S
C477 C475 1.358 . S
C477 H519 0.930 . S
C478 C479 1.348 . S
C478 C480 1.356 . S
C478 O503 1.325 . S
C479 C478 1.348 . S
C479 C481 1.353 . S
C479 H520 0.929 . S
C480 C478 1.356 . S
C480 C482 1.358 . S
C480 H521 0.930 . S
C481 C479 1.353 . S
C481 N483 1.314 . S
C481 H522 0.930 . S
C482 C480 1.358 . S
C482 N483 1.279 . S
C482 H523 0.930 . S
N483 C481 1.314 . S
N483 C482 1.279 . S
C484 C486 1.353 . S
C484 N487 1.314 . S
C484 H490 0.930 . S
C485 N487 1.279 . S
C485 C488 1.358 . S
C485 H491 0.930 . S
C486 C484 1.353 . S
C486 C489 1.348 . S
C486 H524 0.929 . S
N487 Li442 1.990 . S
N487 C484 1.314 . S
N487 C485 1.279 . S
C488 C485 1.358 . S
C488 C489 1.356 . S
C488 H525 0.930 . S
C489 C486 1.348 . S
C489 C488 1.356 . S
H490 C484 0.930 . S
H491 C485 0.930 . S
C492 N493 1.314 . S
C492 C494 1.353 . S
C492 H498 0.930 . S
N493 Li443 1.990 . S
N493 C492 1.314 . S
N493 C496 1.279 . S
C494 C492 1.353 . S
C494 C497 1.348 . S
C494 H526 0.929 . S
C495 C496 1.358 . S
C495 C497 1.356 . S
C495 H527 0.930 . S
C496 N493 1.279 . S
C496 C495 1.358 . S
C496 H499 0.930 . S
C497 C494 1.348 . S
C497 C495 1.356 . S
H498 C492 0.930 . S
H499 C496 0.930 . S
O500 Li440 1.956 . S
O500 Li441 1.970 . S
O500 Li442 1.961 . S
O500 C444 1.325 . S
O501 Li440 1.970 . S
O501 Li441 1.956 . S
O501 Li443 1.961 . S
O501 C450 1.325 . S
O502 Li440 1.961 . S
O502 Li442 1.956 . S
O502 Li443 1.970 . S
O502 C472 1.325 . S
O503 Li441 1.961 . S
O503 Li442 1.970 . S
O503 Li443 1.956 . S
O503 C478 1.325 . S
H504 C446 0.929 . S
H505 C447 0.930 . S
H506 C448 0.930 . S
H507 C449 0.930 . S
H508 C451 0.930 . S
H509 C453 0.929 . S
H510 C454 0.930 . S
H511 C455 0.930 . S
H512 C458 0.930 . S
H513 C461 0.929 . S
H514 C466 0.929 . S
H515 C467 0.930 . S
H516 C474 0.929 . S
H517 C475 0.930 . S
H518 C476 0.930 . S
H519 C477 0.930 . S
H520 C479 0.929 . S
H521 C480 0.930 . S
H522 C481 0.930 . S
H523 C482 0.930 . S
H524 C486 0.929 . S
H525 C488 0.930 . S
H526 C494 0.929 . S
H527 C495 0.930 . S
Li528 N545 1.990 . S
Li528 O588 1.956 . S
Li528 O589 1.970 . S
Li528 O590 1.961 . S
Li529 N553 1.990 . S
Li529 O588 1.970 . S
Li529 O589 1.956 . S
Li529 O591 1.961 . S
Li530 N575 1.990 . S
Li530 O588 1.961 . S
Li530 O590 1.956 . S
Li530 O591 1.970 . S
Li531 N581 1.990 . S
Li531 O589 1.961 . S
Li531 O590 1.970 . S
Li531 O591 1.956 . S
C532 C534 1.348 . S
C532 C535 1.356 . S
C532 O588 1.325 . S
N533 C536 1.314 . S
N533 C537 1.279 . S
C534 C532 1.348 . S
C534 C536 1.353 . S
C534 H592 0.929 . S
C535 C532 1.356 . S
C535 C537 1.358 . S
C535 H593 0.930 . S
C536 N533 1.314 . S
C536 C534 1.353 . S
C536 H594 0.930 . S
C537 N533 1.279 . S
C537 C535 1.358 . S
C537 H595 0.930 . S
C538 C541 1.348 . S
C538 C542 1.356 . S
C538 O589 1.325 . S
C539 N540 1.279 . S
C539 C542 1.358 . S
C539 H596 0.930 . S
N540 C539 1.279 . S
N540 C543 1.314 . S
C541 C538 1.348 . S
C541 C543 1.353 . S
C541 H597 0.929 . S
C542 C538 1.356 . S
C542 C539 1.358 . S
C542 H598 0.930 . S
C543 N540 1.314 . S
C543 C541 1.353 . S
C543 H599 0.930 . S
C544 N545 1.314 . S
C544 C549 1.353 . S
C544 H550 0.930 . S
N545 Li528 1.990 . S
N545 C544 1.314 . S
N545 C547 1.279 . S
C546 C547 1.358 . S
C546 C548 1.356 . S
C546 H600 0.930 . S
C547 N545 1.279 . S
C547 C546 1.358 . S
C547 H551 0.930 . S
C548 C546 1.356 . S
C548 C549 1.348 . S
C549 C544 1.353 . S
C549 C548 1.348 . S
C549 H601 0.929 . S
H550 C544 0.930 . S
H551 C547 0.930 . S
C552 N553 1.314 . S
C552 C554 1.353 . S
C552 H558 0.930 . S
N553 Li529 1.990 . S
N553 C552 1.314 . S
N553 C556 1.279 . S
C554 C552 1.353 . S
C554 C557 1.348 . S
C554 H602 0.929 . S
C555 C556 1.358 . S
C555 C557 1.356 . S
C555 H603 0.930 . S
C556 N553 1.279 . S
C556 C555 1.358 . S
C556 H559 0.930 . S
C557 C554 1.348 . S
C557 C555 1.356 . S
H558 C552 0.930 . S
H559 C556 0.930 . S
C560 C562 1.348 . S
C560 C563 1.356 . S
C560 O590 1.325 . S
N561 C564 1.314 1_545 S
N561 C565 1.279 . S
C562 C560 1.348 . S
C562 C564 1.353 . S
C562 H604 0.929 . S
C563 C560 1.356 . S
C563 C565 1.358 1_565 S
C563 H605 0.930 . S
C564 N561 1.314 1_565 S
C564 C562 1.353 . S
C564 H606 0.930 . S
C565 N561 1.279 . S
C565 C563 1.358 1_545 S
C565 H607 0.930 . S
C566 C567 1.348 . S
C566 C568 1.356 . S
C566 O591 1.325 . S
C567 C566 1.348 . S
C567 C569 1.353 . S
C567 H608 0.929 . S
C568 C566 1.356 . S
C568 C570 1.358 . S
C568 H609 0.930 . S
C569 C567 1.353 . S
C569 N571 1.314 . S
C569 H610 0.930 . S
C570 C568 1.358 . S
C570 N571 1.279 . S
C570 H611 0.930 . S
N571 C569 1.314 . S
N571 C570 1.279 . S
C572 C574 1.353 . S
C572 N575 1.314 . S
C572 H578 0.930 . S
C573 N575 1.279 . S
C573 C576 1.358 . S
C573 H579 0.930 . S
C574 C572 1.353 . S
C574 C577 1.348 . S
C574 H612 0.929 . S
N575 Li530 1.990 . S
N575 C572 1.314 . S
N575 C573 1.279 . S
C576 C573 1.358 . S
C576 C577 1.356 . S
C576 H613 0.930 . S
C577 C574 1.348 . S
C577 C576 1.356 . S
H578 C572 0.930 . S
H579 C573 0.930 . S
C580 N581 1.314 . S
C580 C582 1.353 . S
C580 H586 0.930 . S
N581 Li531 1.990 . S
N581 C580 1.314 . S
N581 C584 1.279 . S
C582 C580 1.353 . S
C582 C585 1.348 . S
C582 H614 0.929 . S
C583 C584 1.358 . S
C583 C585 1.356 . S
C583 H615 0.930 . S
C584 N581 1.279 . S
C584 C583 1.358 . S
C584 H587 0.930 . S
C585 C582 1.348 . S
C585 C583 1.356 . S
H586 C580 0.930 . S
H587 C584 0.930 . S
O588 Li528 1.956 . S
O588 Li529 1.970 . S
O588 Li530 1.961 . S
O588 C532 1.325 . S
O589 Li528 1.970 . S
O589 Li529 1.956 . S
O589 Li531 1.961 . S
O589 C538 1.325 . S
O590 Li528 1.961 . S
O590 Li530 1.956 . S
O590 Li531 1.970 . S
O590 C560 1.325 . S
O591 Li529 1.961 . S
O591 Li530 1.970 . S
O591 Li531 1.956 . S
O591 C566 1.325 . S
H592 C534 0.929 . S
H593 C535 0.930 . S
H594 C536 0.930 . S
H595 C537 0.930 . S
H596 C539 0.930 . S
H597 C541 0.929 . S
H598 C542 0.930 . S
H599 C543 0.930 . S
H600 C546 0.930 . S
H601 C549 0.929 . S
H602 C554 0.929 . S
H603 C555 0.930 . S
H604 C562 0.929 . S
H605 C563 0.930 . S
H606 C564 0.930 . S
H607 C565 0.930 . S
H608 C567 0.929 . S
H609 C568 0.930 . S
H610 C569 0.930 . S
H611 C570 0.930 . S
H612 C574 0.929 . S
H613 C576 0.930 . S
H614 C582 0.929 . S
H615 C583 0.930 . S
Li616 N633 1.990 . S
Li616 O676 1.956 . S
Li616 O677 1.970 . S
Li616 O678 1.961 . S
Li617 N641 1.990 . S
Li617 O676 1.970 . S
Li617 O677 1.956 . S
Li617 O679 1.961 . S
Li618 N663 1.990 . S
Li618 O676 1.961 . S
Li618 O678 1.956 . S
Li618 O679 1.970 . S
Li619 N669 1.990 . S
Li619 O677 1.961 . S
Li619 O678 1.970 . S
Li619 O679 1.956 . S
C620 C622 1.348 . S
C620 C623 1.356 . S
C620 O676 1.325 . S
N621 C624 1.314 . S
N621 C625 1.279 . S
C622 C620 1.348 . S
C622 C624 1.353 . S
C622 H680 0.929 . S
C623 C620 1.356 . S
C623 C625 1.358 . S
C623 H681 0.930 . S
C624 N621 1.314 . S
C624 C622 1.353 . S
C624 H682 0.930 . S
C625 N621 1.279 . S
C625 C623 1.358 . S
C625 H683 0.930 . S
C626 C629 1.348 . S
C626 C630 1.356 . S
C626 O677 1.325 . S
C627 N628 1.279 . S
C627 C630 1.358 . S
C627 H684 0.930 . S
N628 C627 1.279 . S
N628 C631 1.314 . S
C629 C626 1.348 . S
C629 C631 1.353 . S
C629 H685 0.929 . S
C630 C626 1.356 . S
C630 C627 1.358 . S
C630 H686 0.930 . S
C631 N628 1.314 . S
C631 C629 1.353 . S
C631 H687 0.930 . S
C632 N633 1.314 . S
C632 C637 1.353 . S
C632 H638 0.930 . S
N633 Li616 1.990 . S
N633 C632 1.314 . S
N633 C635 1.279 . S
C634 C635 1.358 . S
C634 C636 1.356 . S
C634 H688 0.930 . S
C635 N633 1.279 . S
C635 C634 1.358 . S
C635 H639 0.930 . S
C636 C634 1.356 . S
C636 C637 1.348 . S
C637 C632 1.353 . S
C637 C636 1.348 . S
C637 H689 0.929 . S
H638 C632 0.930 . S
H639 C635 0.930 . S
C640 N641 1.314 . S
C640 C642 1.353 . S
C640 H646 0.930 . S
N641 Li617 1.990 . S
N641 C640 1.314 . S
N641 C644 1.279 . S
C642 C640 1.353 . S
C642 C645 1.348 . S
C642 H690 0.929 . S
C643 C644 1.358 . S
C643 C645 1.356 . S
C643 H691 0.930 . S
C644 N641 1.279 . S
C644 C643 1.358 . S
C644 H647 0.930 . S
C645 C642 1.348 . S
C645 C643 1.356 . S
H646 C640 0.930 . S
H647 C644 0.930 . S
C648 C650 1.348 . S
C648 C651 1.356 . S
C648 O678 1.325 . S
N649 C652 1.314 . S
N649 C653 1.279 . S
C650 C648 1.348 . S
C650 C652 1.353 . S
C650 H692 0.929 . S
C651 C648 1.356 . S
C651 C653 1.358 . S
C651 H693 0.930 . S
C652 N649 1.314 . S
C652 C650 1.353 . S
C652 H694 0.930 . S
C653 N649 1.279 . S
C653 C651 1.358 . S
C653 H695 0.930 . S
C654 C655 1.348 . S
C654 C656 1.356 . S
C654 O679 1.325 . S
C655 C654 1.348 . S
C655 C657 1.353 . S
C655 H696 0.929 . S
C656 C654 1.356 . S
C656 C658 1.358 . S
C656 H697 0.930 . S
C657 C655 1.353 . S
C657 N659 1.314 . S
C657 H698 0.930 . S
C658 C656 1.358 . S
C658 N659 1.279 . S
C658 H699 0.930 . S
N659 C657 1.314 . S
N659 C658 1.279 . S
C660 C662 1.353 . S
C660 N663 1.314 . S
C660 H666 0.930 . S
C661 N663 1.279 . S
C661 C664 1.358 . S
C661 H667 0.930 . S
C662 C660 1.353 . S
C662 C665 1.348 . S
C662 H700 0.929 . S
N663 Li618 1.990 . S
N663 C660 1.314 . S
N663 C661 1.279 . S
C664 C661 1.358 . S
C664 C665 1.356 . S
C664 H701 0.930 . S
C665 C662 1.348 . S
C665 C664 1.356 . S
H666 C660 0.930 . S
H667 C661 0.930 . S
C668 N669 1.314 . S
C668 C670 1.353 . S
C668 H674 0.930 . S
N669 Li619 1.990 . S
N669 C668 1.314 . S
N669 C672 1.279 . S
C670 C668 1.353 . S
C670 C673 1.348 . S
C670 H702 0.929 . S
C671 C672 1.358 . S
C671 C673 1.356 . S
C671 H703 0.930 . S
C672 N669 1.279 . S
C672 C671 1.358 . S
C672 H675 0.930 . S
C673 C670 1.348 . S
C673 C671 1.356 . S
H674 C668 0.930 . S
H675 C672 0.930 . S
O676 Li616 1.956 . S
O676 Li617 1.970 . S
O676 Li618 1.961 . S
O676 C620 1.325 . S
O677 Li616 1.970 . S
O677 Li617 1.956 . S
O677 Li619 1.961 . S
O677 C626 1.325 . S
O678 Li616 1.961 . S
O678 Li618 1.956 . S
O678 Li619 1.970 . S
O678 C648 1.325 . S
O679 Li617 1.961 . S
O679 Li618 1.970 . S
O679 Li619 1.956 . S
O679 C654 1.325 . S
H680 C622 0.929 . S
H681 C623 0.930 . S
H682 C624 0.930 . S
H683 C625 0.930 . S
H684 C627 0.930 . S
H685 C629 0.929 . S
H686 C630 0.930 . S
H687 C631 0.930 . S
H688 C634 0.930 . S
H689 C637 0.929 . S
H690 C642 0.929 . S
H691 C643 0.930 . S
H692 C650 0.929 . S
H693 C651 0.930 . S
H694 C652 0.930 . S
H695 C653 0.930 . S
H696 C655 0.929 . S
H697 C656 0.930 . S
H698 C657 0.930 . S
H699 C658 0.930 . S
H700 C662 0.929 . S
H701 C664 0.930 . S
H702 C670 0.929 . S
H703 C671 0.930 . S
Li704 N721 1.990 . S
Li704 O764 1.956 . S
Li704 O765 1.970 . S
Li704 O766 1.961 . S
Li705 N729 1.990 . S
Li705 O764 1.970 . S
Li705 O765 1.956 . S
Li705 O767 1.961 . S
Li706 N751 1.990 . S
Li706 O764 1.961 . S
Li706 O766 1.956 . S
Li706 O767 1.970 . S
Li707 N757 1.990 . S
Li707 O765 1.961 . S
Li707 O766 1.970 . S
Li707 O767 1.956 . S
C708 C710 1.348 . S
C708 C711 1.356 . S
C708 O764 1.325 . S
N709 C712 1.314 . S
N709 C713 1.279 . S
C710 C708 1.348 . S
C710 C712 1.353 . S
C710 H768 0.929 . S
C711 C708 1.356 . S
C711 C713 1.358 . S
C711 H769 0.930 . S
C712 N709 1.314 . S
C712 C710 1.353 . S
C712 H770 0.930 . S
C713 N709 1.279 . S
C713 C711 1.358 . S
C713 H771 0.930 . S
C714 C717 1.348 . S
C714 C718 1.356 . S
C714 O765 1.325 . S
C715 N716 1.279 . S
C715 C718 1.358 . S
C715 H772 0.930 . S
N716 C715 1.279 . S
N716 C719 1.314 . S
C717 C714 1.348 . S
C717 C719 1.353 . S
C717 H773 0.929 . S
C718 C714 1.356 . S
C718 C715 1.358 . S
C718 H774 0.930 . S
C719 N716 1.314 . S
C719 C717 1.353 . S
C719 H775 0.930 . S
C720 N721 1.314 . S
C720 C725 1.353 . S
C720 H726 0.930 . S
N721 Li704 1.990 . S
N721 C720 1.314 . S
N721 C723 1.279 . S
C722 C723 1.358 . S
C722 C724 1.356 . S
C722 H776 0.930 . S
C723 N721 1.279 . S
C723 C722 1.358 . S
C723 H727 0.930 . S
C724 C722 1.356 . S
C724 C725 1.348 . S
C725 C720 1.353 . S
C725 C724 1.348 . S
C725 H777 0.929 . S
H726 C720 0.930 . S
H727 C723 0.930 . S
C728 N729 1.314 . S
C728 C730 1.353 . S
C728 H734 0.930 . S
N729 Li705 1.990 . S
N729 C728 1.314 . S
N729 C732 1.279 . S
C730 C728 1.353 . S
C730 C733 1.348 . S
C730 H778 0.929 . S
C731 C732 1.358 . S
C731 C733 1.356 . S
C731 H779 0.930 . S
C732 N729 1.279 . S
C732 C731 1.358 . S
C732 H735 0.930 . S
C733 C730 1.348 . S
C733 C731 1.356 . S
H734 C728 0.930 . S
H735 C732 0.930 . S
C736 C738 1.348 . S
C736 C739 1.356 . S
C736 O766 1.325 . S
N737 C740 1.314 . S
N737 C741 1.279 . S
C738 C736 1.348 . S
C738 C740 1.353 . S
C738 H780 0.929 . S
C739 C736 1.356 . S
C739 C741 1.358 . S
C739 H781 0.930 . S
C740 N737 1.314 . S
C740 C738 1.353 . S
C740 H782 0.930 . S
C741 N737 1.279 . S
C741 C739 1.358 . S
C741 H783 0.930 . S
C742 C743 1.348 . S
C742 C744 1.356 . S
C742 O767 1.325 . S
C743 C742 1.348 . S
C743 C745 1.353 . S
C743 H784 0.929 . S
C744 C742 1.356 . S
C744 C746 1.358 1_455 S
C744 H785 0.930 . S
C745 C743 1.353 . S
C745 N747 1.314 1_455 S
C745 H786 0.930 . S
C746 C744 1.358 1_655 S
C746 N747 1.279 . S
C746 H787 0.930 . S
N747 C745 1.314 1_655 S
N747 C746 1.279 . S
C748 C750 1.353 . S
C748 N751 1.314 . S
C748 H754 0.930 . S
C749 N751 1.279 . S
C749 C752 1.358 . S
C749 H755 0.930 . S
C750 C748 1.353 . S
C750 C753 1.348 . S
C750 H788 0.929 . S
N751 Li706 1.990 . S
N751 C748 1.314 . S
N751 C749 1.279 . S
C752 C749 1.358 . S
C752 C753 1.356 . S
C752 H789 0.930 . S
C753 C750 1.348 . S
C753 C752 1.356 . S
H754 C748 0.930 . S
H755 C749 0.930 . S
C756 N757 1.314 . S
C756 C758 1.353 . S
C756 H762 0.930 . S
N757 Li707 1.990 . S
N757 C756 1.314 . S
N757 C760 1.279 . S
C758 C756 1.353 . S
C758 C761 1.348 . S
C758 H790 0.929 . S
C759 C760 1.358 . S
C759 C761 1.356 . S
C759 H791 0.930 . S
C760 N757 1.279 . S
C760 C759 1.358 . S
C760 H763 0.930 . S
C761 C758 1.348 . S
C761 C759 1.356 . S
H762 C756 0.930 . S
H763 C760 0.930 . S
O764 Li704 1.956 . S
O764 Li705 1.970 . S
O764 Li706 1.961 . S
O764 C708 1.325 . S
O765 Li704 1.970 . S
O765 Li705 1.956 . S
O765 Li707 1.961 . S
O765 C714 1.325 . S
O766 Li704 1.961 . S
O766 Li706 1.956 . S
O766 Li707 1.970 . S
O766 C736 1.325 . S
O767 Li705 1.961 . S
O767 Li706 1.970 . S
O767 Li707 1.956 . S
O767 C742 1.325 . S
H768 C710 0.929 . S
H769 C711 0.930 . S
H770 C712 0.930 . S
H771 C713 0.930 . S
H772 C715 0.930 . S
H773 C717 0.929 . S
H774 C718 0.930 . S
H775 C719 0.930 . S
H776 C722 0.930 . S
H777 C725 0.929 . S
H778 C730 0.929 . S
H779 C731 0.930 . S
H780 C738 0.929 . S
H781 C739 0.930 . S
H782 C740 0.930 . S
H783 C741 0.930 . S
H784 C743 0.929 . S
H785 C744 0.930 . S
H786 C745 0.930 . S
H787 C746 0.930 . S
H788 C750 0.929 . S
H789 C752 0.930 . S
H790 C758 0.929 . S
H791 C759 0.930 . S
Li792 N809 1.990 . S
Li792 O852 1.956 . S
Li792 O853 1.970 . S
Li792 O854 1.961 . S
Li793 N817 1.990 . S
Li793 O852 1.970 . S
Li793 O853 1.956 . S
Li793 O855 1.961 . S
Li794 N839 1.990 . S
Li794 O852 1.961 . S
Li794 O854 1.956 . S
Li794 O855 1.970 . S
Li795 N845 1.990 . S
Li795 O853 1.961 . S
Li795 O854 1.970 . S
Li795 O855 1.956 . S
C796 C798 1.348 . S
C796 C799 1.356 . S
C796 O852 1.325 . S
N797 C800 1.314 . S
N797 C801 1.279 . S
C798 C796 1.348 . S
C798 C800 1.353 . S
C798 H856 0.929 . S
C799 C796 1.356 . S
C799 C801 1.358 . S
C799 H857 0.930 . S
C800 N797 1.314 . S
C800 C798 1.353 . S
C800 H858 0.930 . S
C801 N797 1.279 . S
C801 C799 1.358 . S
C801 H859 0.930 . S
C802 C805 1.348 . S
C802 C806 1.356 . S
C802 O853 1.325 . S
C803 N804 1.279 . S
C803 C806 1.358 . S
C803 H860 0.930 . S
N804 C803 1.279 . S
N804 C807 1.314 . S
C805 C802 1.348 . S
C805 C807 1.353 . S
C805 H861 0.929 . S
C806 C802 1.356 . S
C806 C803 1.358 . S
C806 H862 0.930 . S
C807 N804 1.314 . S
C807 C805 1.353 . S
C807 H863 0.930 . S
C808 N809 1.314 . S
C808 C813 1.353 . S
C808 H814 0.930 . S
N809 Li792 1.990 . S
N809 C808 1.314 . S
N809 C811 1.279 . S
C810 C811 1.358 . S
C810 C812 1.356 . S
C810 H864 0.930 . S
C811 N809 1.279 . S
C811 C810 1.358 . S
C811 H815 0.930 . S
C812 C810 1.356 . S
C812 C813 1.348 . S
C813 C808 1.353 . S
C813 C812 1.348 . S
C813 H865 0.929 . S
H814 C808 0.930 . S
H815 C811 0.930 . S
C816 N817 1.314 . S
C816 C818 1.353 . S
C816 H822 0.930 . S
N817 Li793 1.990 . S
N817 C816 1.314 . S
N817 C820 1.279 . S
C818 C816 1.353 . S
C818 C821 1.348 . S
C818 H866 0.929 . S
C819 C820 1.358 . S
C819 C821 1.356 . S
C819 H867 0.930 . S
C820 N817 1.279 . S
C820 C819 1.358 . S
C820 H823 0.930 . S
C821 C818 1.348 . S
C821 C819 1.356 . S
H822 C816 0.930 . S
H823 C820 0.930 . S
C824 C826 1.348 . S
C824 C827 1.356 . S
C824 O854 1.325 . S
N825 C828 1.314 . S
N825 C829 1.279 . S
C826 C824 1.348 . S
C826 C828 1.353 . S
C826 H868 0.929 . S
C827 C824 1.356 . S
C827 C829 1.358 . S
C827 H869 0.930 . S
C828 N825 1.314 . S
C828 C826 1.353 . S
C828 H870 0.930 . S
C829 N825 1.279 . S
C829 C827 1.358 . S
C829 H871 0.930 . S
C830 C831 1.348 . S
C830 C832 1.356 . S
C830 O855 1.325 . S
C831 C830 1.348 . S
C831 C833 1.353 . S
C831 H872 0.929 . S
C832 C830 1.356 . S
C832 C834 1.358 1_545 S
C832 H873 0.930 . S
C833 C831 1.353 . S
C833 N835 1.314 1_545 S
C833 H874 0.930 . S
C834 C832 1.358 1_565 S
C834 N835 1.279 . S
C834 H875 0.930 . S
N835 C833 1.314 1_565 S
N835 C834 1.279 . S
C836 C838 1.353 . S
C836 N839 1.314 . S
C836 H842 0.930 . S
C837 N839 1.279 . S
C837 C840 1.358 . S
C837 H843 0.930 . S
C838 C836 1.353 . S
C838 C841 1.348 . S
C838 H876 0.929 . S
N839 Li794 1.990 . S
N839 C836 1.314 . S
N839 C837 1.279 . S
C840 C837 1.358 . S
C840 C841 1.356 . S
C840 H877 0.930 . S
C841 C838 1.348 . S
C841 C840 1.356 . S
H842 C836 0.930 . S
H843 C837 0.930 . S
C844 N845 1.314 . S
C844 C846 1.353 . S
C844 H850 0.930 . S
N845 Li795 1.990 . S
N845 C844 1.314 . S
N845 C848 1.279 . S
C846 C844 1.353 . S
C846 C849 1.348 . S
C846 H878 0.929 . S
C847 C848 1.358 . S
C847 C849 1.356 . S
C847 H879 0.930 . S
C848 N845 1.279 . S
C848 C847 1.358 . S
C848 H851 0.930 . S
C849 C846 1.348 . S
C849 C847 1.356 . S
H850 C844 0.930 . S
H851 C848 0.930 . S
O852 Li792 1.956 . S
O852 Li793 1.970 . S
O852 Li794 1.961 . S
O852 C796 1.325 . S
O853 Li792 1.970 . S
O853 Li793 1.956 . S
O853 Li795 1.961 . S
O853 C802 1.325 . S
O854 Li792 1.961 . S
O854 Li794 1.956 . S
O854 Li795 1.970 . S
O854 C824 1.325 . S
O855 Li793 1.961 . S
O855 Li794 1.970 . S
O855 Li795 1.956 . S
O855 C830 1.325 . S
H856 C798 0.929 . S
H857 C799 0.930 . S
H858 C800 0.930 . S
H859 C801 0.930 . S
H860 C803 0.930 . S
H861 C805 0.929 . S
H862 C806 0.930 . S
H863 C807 0.930 . S
H864 C810 0.930 . S
H865 C813 0.929 . S
H866 C818 0.929 . S
H867 C819 0.930 . S
H868 C826 0.929 . S
H869 C827 0.930 . S
H870 C828 0.930 . S
H871 C829 0.930 . S
H872 C831 0.929 . S
H873 C832 0.930 . S
H874 C833 0.930 . S
H875 C834 0.930 . S
H876 C838 0.929 . S
H877 C840 0.930 . S
H878 C846 0.929 . S
H879 C847 0.930 . S
Li880 N897 1.990 . S
Li880 O940 1.956 . S
Li880 O941 1.970 . S
Li880 O942 1.961 . S
Li881 N905 1.990 . S
Li881 O940 1.970 . S
Li881 O941 1.956 . S
Li881 O943 1.961 . S
Li882 N927 1.990 . S
Li882 O940 1.961 . S
Li882 O942 1.956 . S
Li882 O943 1.970 . S
Li883 N933 1.990 . S
Li883 O941 1.961 . S
Li883 O942 1.970 . S
Li883 O943 1.956 . S
C884 C886 1.348 . S
C884 C887 1.356 . S
C884 O940 1.325 . S
N885 C888 1.314 . S
N885 C889 1.279 . S
C886 C884 1.348 . S
C886 C888 1.353 . S
C886 H944 0.929 . S
C887 C884 1.356 . S
C887 C889 1.358 . S
C887 H945 0.930 . S
C888 N885 1.314 . S
C888 C886 1.353 . S
C888 H946 0.930 . S
C889 N885 1.279 . S
C889 C887 1.358 . S
C889 H947 0.930 . S
C890 C893 1.348 . S
C890 C894 1.356 . S
C890 O941 1.325 . S
C891 N892 1.279 . S
C891 C894 1.358 . S
C891 H948 0.930 . S
N892 C891 1.279 . S
N892 C895 1.314 . S
C893 C890 1.348 . S
C893 C895 1.353 . S
C893 H949 0.929 . S
C894 C890 1.356 . S
C894 C891 1.358 . S
C894 H950 0.930 . S
C895 N892 1.314 . S
C895 C893 1.353 . S
C895 H951 0.930 . S
C896 N897 1.314 . S
C896 C901 1.353 . S
C896 H902 0.930 . S
N897 Li880 1.990 . S
N897 C896 1.314 . S
N897 C899 1.279 . S
C898 C899 1.358 . S
C898 C900 1.356 . S
C898 H952 0.930 . S
C899 N897 1.279 . S
C899 C898 1.358 . S
C899 H903 0.930 . S
C900 C898 1.356 . S
C900 C901 1.348 . S
C901 C896 1.353 . S
C901 C900 1.348 . S
C901 H953 0.929 . S
H902 C896 0.930 . S
H903 C899 0.930 . S
C904 N905 1.314 . S
C904 C906 1.353 . S
C904 H910 0.930 . S
N905 Li881 1.990 . S
N905 C904 1.314 . S
N905 C908 1.279 . S
C906 C904 1.353 . S
C906 C909 1.348 . S
C906 H954 0.929 . S
C907 C908 1.358 . S
C907 C909 1.356 . S
C907 H955 0.930 . S
C908 N905 1.279 . S
C908 C907 1.358 . S
C908 H911 0.930 . S
C909 C906 1.348 . S
C909 C907 1.356 . S
H910 C904 0.930 . S
H911 C908 0.930 . S
C912 C914 1.348 . S
C912 C915 1.356 . S
C912 O942 1.325 . S
N913 C916 1.314 . S
N913 C917 1.279 . S
C914 C912 1.348 . S
C914 C916 1.353 . S
C914 H956 0.929 . S
C915 C912 1.356 . S
C915 C917 1.358 . S
C915 H957 0.930 . S
C916 N913 1.314 . S
C916 C914 1.353 . S
C916 H958 0.930 . S
C917 N913 1.279 . S
C917 C915 1.358 . S
C917 H959 0.930 . S
C918 C919 1.348 . S
C918 C920 1.356 . S
C918 O943 1.325 . S
C919 C918 1.348 . S
C919 C921 1.353 . S
C919 H960 0.929 . S
C920 C918 1.356 . S
C920 C922 1.358 . S
C920 H961 0.930 . S
C921 C919 1.353 . S
C921 N923 1.314 . S
C921 H962 0.930 . S
C922 C920 1.358 . S
C922 N923 1.279 . S
C922 H963 0.930 . S
N923 C921 1.314 . S
N923 C922 1.279 . S
C924 C926 1.353 . S
C924 N927 1.314 . S
C924 H930 0.930 . S
C925 N927 1.279 . S
C925 C928 1.358 . S
C925 H931 0.930 . S
C926 C924 1.353 . S
C926 C929 1.348 . S
C926 H964 0.929 . S
N927 Li882 1.990 . S
N927 C924 1.314 . S
N927 C925 1.279 . S
C928 C925 1.358 . S
C928 C929 1.356 . S
C928 H965 0.930 . S
C929 C926 1.348 . S
C929 C928 1.356 . S
H930 C924 0.930 . S
H931 C925 0.930 . S
C932 N933 1.314 . S
C932 C934 1.353 . S
C932 H938 0.930 . S
N933 Li883 1.990 . S
N933 C932 1.314 . S
N933 C936 1.279 . S
C934 C932 1.353 . S
C934 C937 1.348 . S
C934 H966 0.929 . S
C935 C936 1.358 . S
C935 C937 1.356 . S
C935 H967 0.930 . S
C936 N933 1.279 . S
C936 C935 1.358 . S
C936 H939 0.930 . S
C937 C934 1.348 . S
C937 C935 1.356 . S
H938 C932 0.930 . S
H939 C936 0.930 . S
O940 Li880 1.956 . S
O940 Li881 1.970 . S
O940 Li882 1.961 . S
O940 C884 1.325 . S
O941 Li880 1.970 . S
O941 Li881 1.956 . S
O941 Li883 1.961 . S
O941 C890 1.325 . S
O942 Li880 1.961 . S
O942 Li882 1.956 . S
O942 Li883 1.970 . S
O942 C912 1.325 . S
O943 Li881 1.961 . S
O943 Li882 1.970 . S
O943 Li883 1.956 . S
O943 C918 1.325 . S
H944 C886 0.929 . S
H945 C887 0.930 . S
H946 C888 0.930 . S
H947 C889 0.930 . S
H948 C891 0.930 . S
H949 C893 0.929 . S
H950 C894 0.930 . S
H951 C895 0.930 . S
H952 C898 0.930 . S
H953 C901 0.929 . S
H954 C906 0.929 . S
H955 C907 0.930 . S
H956 C914 0.929 . S
H957 C915 0.930 . S
H958 C916 0.930 . S
H959 C917 0.930 . S
H960 C919 0.929 . S
H961 C920 0.930 . S
H962 C921 0.930 . S
H963 C922 0.930 . S
H964 C926 0.929 . S
H965 C928 0.930 . S
H966 C934 0.929 . S
H967 C935 0.930 . S
Li968 N985 1.990 . S
Li968 O1028 1.956 . S
Li968 O1029 1.970 . S
Li968 O1030 1.961 . S
Li969 N993 1.990 . S
Li969 O1028 1.970 . S
Li969 O1029 1.956 . S
Li969 O1031 1.961 . S
Li970 N1015 1.990 . S
Li970 O1028 1.961 . S
Li970 O1030 1.956 . S
Li970 O1031 1.970 . S
Li971 N1021 1.990 . S
Li971 O1029 1.961 . S
Li971 O1030 1.970 . S
Li971 O1031 1.956 . S
C972 C974 1.348 . S
C972 C975 1.356 . S
C972 O1028 1.325 . S
N973 C976 1.314 . S
N973 C977 1.279 . S
C974 C972 1.348 . S
C974 C976 1.353 . S
C974 H1032 0.929 . S
C975 C972 1.356 . S
C975 C977 1.358 . S
C975 H1033 0.930 . S
C976 N973 1.314 . S
C976 C974 1.353 . S
C976 H1034 0.930 . S
C977 N973 1.279 . S
C977 C975 1.358 . S
C977 H1035 0.930 . S
C978 C981 1.348 . S
C978 C982 1.356 . S
C978 O1029 1.325 . S
C979 N980 1.279 . S
C979 C982 1.358 . S
C979 H1036 0.930 . S
N980 C979 1.279 . S
N980 C983 1.314 . S
C981 C978 1.348 . S
C981 C983 1.353 . S
C981 H1037 0.929 . S
C982 C978 1.356 . S
C982 C979 1.358 . S
C982 H1038 0.930 . S
C983 N980 1.314 . S
C983 C981 1.353 . S
C983 H1039 0.930 . S
C984 N985 1.314 . S
C984 C989 1.353 . S
C984 H990 0.930 . S
N985 Li968 1.990 . S
N985 C984 1.314 . S
N985 C987 1.279 . S
C986 C987 1.358 . S
C986 C988 1.356 . S
C986 H1040 0.930 . S
C987 N985 1.279 . S
C987 C986 1.358 . S
C987 H991 0.930 . S
C988 C986 1.356 . S
C988 C989 1.348 . S
C989 C984 1.353 . S
C989 C988 1.348 . S
C989 H1041 0.929 . S
H990 C984 0.930 . S
H991 C987 0.930 . S
C992 N993 1.314 . S
C992 C994 1.353 . S
C992 H998 0.930 . S
N993 Li969 1.990 . S
N993 C992 1.314 . S
N993 C996 1.279 . S
C994 C992 1.353 . S
C994 C997 1.348 . S
C994 H1042 0.929 . S
C995 C996 1.358 . S
C995 C997 1.356 . S
C995 H1043 0.930 . S
C996 N993 1.279 . S
C996 C995 1.358 . S
C996 H999 0.930 . S
C997 C994 1.348 . S
C997 C995 1.356 . S
H998 C992 0.930 . S
H999 C996 0.930 . S
C1000 C1002 1.348 . S
C1000 C1003 1.356 . S
C1000 O1030 1.325 . S
N1001 C1004 1.314 . S
N1001 C1005 1.279 . S
C1002 C1000 1.348 . S
C1002 C1004 1.353 . S
C1002 H1044 0.929 . S
C1003 C1000 1.356 . S
C1003 C1005 1.358 . S
C1003 H1045 0.930 . S
C1004 N1001 1.314 . S
C1004 C1002 1.353 . S
C1004 H1046 0.930 . S
C1005 N1001 1.279 . S
C1005 C1003 1.358 . S
C1005 H1047 0.930 . S
C1006 C1007 1.348 . S
C1006 C1008 1.356 . S
C1006 O1031 1.325 . S
C1007 C1006 1.348 . S
C1007 C1009 1.353 . S
C1007 H1048 0.929 . S
C1008 C1006 1.356 . S
C1008 C1010 1.358 1_655 S
C1008 H1049 0.930 . S
C1009 C1007 1.353 . S
C1009 N1011 1.314 1_655 S
C1009 H1050 0.930 . S
C1010 C1008 1.358 1_455 S
C1010 N1011 1.279 . S
C1010 H1051 0.930 . S
N1011 C1009 1.314 1_455 S
N1011 C1010 1.279 . S
C1012 C1014 1.353 . S
C1012 N1015 1.314 . S
C1012 H1018 0.930 . S
C1013 N1015 1.279 . S
C1013 C1016 1.358 . S
C1013 H1019 0.930 . S
C1014 C1012 1.353 . S
C1014 C1017 1.348 . S
C1014 H1052 0.929 . S
N1015 Li970 1.990 . S
N1015 C1012 1.314 . S
N1015 C1013 1.279 . S
C1016 C1013 1.358 . S
C1016 C1017 1.356 . S
C1016 H1053 0.930 . S
C1017 C1014 1.348 . S
C1017 C1016 1.356 . S
H1018 C1012 0.930 . S
H1019 C1013 0.930 . S
C1020 N1021 1.314 . S
C1020 C1022 1.353 . S
C1020 H1026 0.930 . S
N1021 Li971 1.990 . S
N1021 C1020 1.314 . S
N1021 C1024 1.279 . S
C1022 C1020 1.353 . S
C1022 C1025 1.348 . S
C1022 H1054 0.929 . S
C1023 C1024 1.358 . S
C1023 C1025 1.356 . S
C1023 H1055 0.930 . S
C1024 N1021 1.279 . S
C1024 C1023 1.358 . S
C1024 H1027 0.930 . S
C1025 C1022 1.348 . S
C1025 C1023 1.356 . S
H1026 C1020 0.930 . S
H1027 C1024 0.930 . S
O1028 Li968 1.956 . S
O1028 Li969 1.970 . S
O1028 Li970 1.961 . S
O1028 C972 1.325 . S
O1029 Li968 1.970 . S
O1029 Li969 1.956 . S
O1029 Li971 1.961 . S
O1029 C978 1.325 . S
O1030 Li968 1.961 . S
O1030 Li970 1.956 . S
O1030 Li971 1.970 . S
O1030 C1000 1.325 . S
O1031 Li969 1.961 . S
O1031 Li970 1.970 . S
O1031 Li971 1.956 . S
O1031 C1006 1.325 . S
H1032 C974 0.929 . S
H1033 C975 0.930 . S
H1034 C976 0.930 . S
H1035 C977 0.930 . S
H1036 C979 0.930 . S
H1037 C981 0.929 . S
H1038 C982 0.930 . S
H1039 C983 0.930 . S
H1040 C986 0.930 . S
H1041 C989 0.929 . S
H1042 C994 0.929 . S
H1043 C995 0.930 . S
H1044 C1002 0.929 . S
H1045 C1003 0.930 . S
H1046 C1004 0.930 . S
H1047 C1005 0.930 . S
H1048 C1007 0.929 . S
H1049 C1008 0.930 . S
H1050 C1009 0.930 . S
H1051 C1010 0.930 . S
H1052 C1014 0.929 . S
H1053 C1016 0.930 . S
H1054 C1022 0.929 . S
H1055 C1023 0.930 . S
C1056 C1057 1.387 1_655 S
C1056 H1060 0.950 . S
C1056 C1065 1.390 1_554 S
C1057 C1056 1.387 1_455 S
C1057 C1059 1.387 . S
H1058 C1065 0.950 . S
C1059 C1057 1.387 . S
C1059 C1061 1.390 1_554 S
C1059 H1063 0.950 . S
H1060 C1056 0.950 . S
C1061 C1059 1.390 1_556 S
C1061 C1062 1.387 1_455 S
C1061 H1064 0.950 . S
C1062 C1061 1.387 1_655 S
C1062 C1065 1.387 . S
H1063 C1059 0.950 . S
H1064 C1061 0.950 . S
C1065 C1056 1.390 1_556 S
C1065 H1058 0.950 . S
C1065 C1062 1.387 . S
C1066 C1067 1.387 . S
C1066 H1070 0.950 . S
C1066 C1075 1.390 1_565 S
C1067 C1066 1.387 . S
C1067 C1069 1.387 . S
H1068 C1075 0.950 . S
C1069 C1067 1.387 . S
C1069 C1071 1.390 1_565 S
C1069 H1073 0.950 . S
H1070 C1066 0.950 . S
C1071 C1069 1.390 1_545 S
C1071 C1072 1.387 . S
C1071 H1074 0.950 . S
C1072 C1071 1.387 . S
C1072 C1075 1.387 . S
H1073 C1069 0.950 . S
H1074 C1071 0.950 . S
C1075 C1066 1.390 1_545 S
C1075 H1068 0.950 . S
C1075 C1072 1.387 . S
C1076 C1077 1.387 . S
C1076 H1080 0.950 . S
C1076 C1085 1.390 1_554 S
C1077 C1076 1.387 . S
C1077 C1079 1.387 . S
H1078 C1085 0.950 . S
C1079 C1077 1.387 . S
C1079 C1081 1.390 1_554 S
C1079 H1083 0.950 . S
H1080 C1076 0.950 . S
C1081 C1079 1.390 1_556 S
C1081 C1082 1.387 . S
C1081 H1084 0.950 . S
C1082 C1081 1.387 . S
C1082 C1085 1.387 . S
H1083 C1079 0.950 . S
H1084 C1081 0.950 . S
C1085 C1076 1.390 1_556 S
C1085 H1078 0.950 . S
C1085 C1082 1.387 . S
C1086 C1087 1.387 1_655 S
C1086 H1090 0.950 . S
C1086 C1095 1.390 . S
C1087 C1086 1.387 1_455 S
C1087 C1089 1.387 . S
H1088 C1095 0.950 . S
C1089 C1087 1.387 . S
C1089 C1091 1.390 . S
C1089 H1093 0.950 . S
H1090 C1086 0.950 . S
C1091 C1089 1.390 . S
C1091 C1092 1.387 1_455 S
C1091 H1094 0.950 . S
C1092 C1091 1.387 1_655 S
C1092 C1095 1.387 . S
H1093 C1089 0.950 . S
H1094 C1091 0.950 . S
C1095 C1086 1.390 . S
C1095 H1088 0.950 . S
C1095 C1092 1.387 . S
C1096 C1097 1.387 . S
C1096 H1100 0.950 . S
C1096 C1105 1.390 1_546 S
C1097 C1096 1.387 . S
C1097 C1099 1.387 . S
H1098 C1105 0.950 . S
C1099 C1097 1.387 . S
C1099 C1101 1.390 1_546 S
C1099 H1103 0.950 . S
H1100 C1096 0.950 . S
C1101 C1099 1.390 1_564 S
C1101 C1102 1.387 . S
C1101 H1104 0.950 . S
C1102 C1101 1.387 . S
C1102 C1105 1.387 . S
H1103 C1099 0.950 . S
H1104 C1101 0.950 . S
C1105 C1096 1.390 1_564 S
C1105 H1098 0.950 . S
C1105 C1102 1.387 . S
C1106 C1107 1.387 . S
C1106 H1110 0.950 . S
C1106 C1115 1.390 . S
C1107 C1106 1.387 . S
C1107 C1109 1.387 . S
H1108 C1115 0.950 . S
C1109 C1107 1.387 . S
C1109 C1111 1.390 . S
C1109 H1113 0.950 . S
H1110 C1106 0.950 . S
C1111 C1109 1.390 . S
C1111 C1112 1.387 . S
C1111 H1114 0.950 . S
C1112 C1111 1.387 . S
C1112 C1115 1.387 . S
H1113 C1109 0.950 . S
H1114 C1111 0.950 . S
C1115 C1106 1.390 . S
C1115 H1108 0.950 . S
C1115 C1112 1.387 . S
C1116 C1117 1.387 . S
C1116 H1120 0.950 . S
C1116 C1125 1.390 1_556 S
C1117 C1116 1.387 . S
C1117 C1119 1.387 1_655 S
H1118 C1125 0.950 . S
C1119 C1117 1.387 1_455 S
C1119 C1121 1.390 1_556 S
C1119 H1123 0.950 . S
H1120 C1116 0.950 . S
C1121 C1119 1.390 1_554 S
C1121 C1122 1.387 . S
C1121 H1124 0.950 . S
C1122 C1121 1.387 . S
C1122 C1125 1.387 1_455 S
H1123 C1119 0.950 . S
H1124 C1121 0.950 . S
C1125 C1116 1.390 1_554 S
C1125 H1118 0.950 . S
C1125 C1122 1.387 1_655 S
C1126 C1127 1.387 . S
C1126 H1130 0.950 . S
C1126 C1135 1.390 1_565 S
C1127 C1126 1.387 . S
C1127 C1129 1.387 . S
H1128 C1135 0.950 . S
C1129 C1127 1.387 . S
C1129 C1131 1.390 1_565 S
C1129 H1133 0.950 . S
H1130 C1126 0.950 . S
C1131 C1129 1.390 1_545 S
C1131 C1132 1.387 . S
C1131 H1134 0.950 . S
C1132 C1131 1.387 . S
C1132 C1135 1.387 . S
H1133 C1129 0.950 . S
H1134 C1131 0.950 . S
C1135 C1126 1.390 1_545 S
C1135 H1128 0.950 . S
C1135 C1132 1.387 . S
C1136 C1137 1.387 . S
C1136 H1140 0.950 . S
C1136 C1145 1.390 1_556 S
C1137 C1136 1.387 . S
C1137 C1139 1.387 . S
H1138 C1145 0.950 . S
C1139 C1137 1.387 . S
C1139 C1141 1.390 1_556 S
C1139 H1143 0.950 . S
H1140 C1136 0.950 . S
C1141 C1139 1.390 1_554 S
C1141 C1142 1.387 . S
C1141 H1144 0.950 . S
C1142 C1141 1.387 . S
C1142 C1145 1.387 . S
H1143 C1139 0.950 . S
H1144 C1141 0.950 . S
C1145 C1136 1.390 1_554 S
C1145 H1138 0.950 . S
C1145 C1142 1.387 . S
C1146 C1147 1.387 1_455 S
C1146 H1150 0.950 . S
C1146 C1155 1.390 . S
C1147 C1146 1.387 1_655 S
C1147 C1149 1.387 . S
H1148 C1155 0.950 . S
C1149 C1147 1.387 . S
C1149 C1151 1.390 . S
C1149 H1153 0.950 . S
H1150 C1146 0.950 . S
C1151 C1149 1.390 . S
C1151 C1152 1.387 1_655 S
C1151 H1154 0.950 . S
C1152 C1151 1.387 1_455 S
C1152 C1155 1.387 . S
H1153 C1149 0.950 . S
H1154 C1151 0.950 . S
C1155 C1146 1.390 . S
C1155 H1148 0.950 . S
C1155 C1152 1.387 . S
C1156 C1157 1.387 . S
C1156 H1160 0.950 . S
C1156 C1165 1.390 1_546 S
C1157 C1156 1.387 . S
C1157 C1159 1.387 . S
H1158 C1165 0.950 . S
C1159 C1157 1.387 . S
C1159 C1161 1.390 1_546 S
C1159 H1163 0.950 . S
H1160 C1156 0.950 . S
C1161 C1159 1.390 1_564 S
C1161 C1162 1.387 . S
C1161 H1164 0.950 . S
C1162 C1161 1.387 . S
C1162 C1165 1.387 . S
H1163 C1159 0.950 . S
H1164 C1161 0.950 . S
C1165 C1156 1.390 1_564 S
C1165 H1158 0.950 . S
C1165 C1162 1.387 . S
C1166 C1167 1.387 . S
C1166 H1170 0.950 . S
C1166 C1175 1.390 . S
C1167 C1166 1.387 . S
C1167 C1169 1.387 . S
H1168 C1175 0.950 . S
C1169 C1167 1.387 . S
C1169 C1171 1.390 . S
C1169 H1173 0.950 . S
H1170 C1166 0.950 . S
C1171 C1169 1.390 . S
C1171 C1172 1.387 . S
C1171 H1174 0.950 . S
C1172 C1171 1.387 . S
C1172 C1175 1.387 . S
H1173 C1169 0.950 . S
H1174 C1171 0.950 . S
C1175 C1166 1.390 . S
C1175 H1168 0.950 . S
C1175 C1172 1.387 . S
C1176 C1177 1.387 . S
C1176 H1180 0.950 . S
C1176 C1185 1.390 . S
C1177 C1176 1.387 . S
C1177 C1179 1.387 . S
H1178 C1185 0.950 . S
C1179 C1177 1.387 . S
C1179 C1181 1.390 . S
C1179 H1183 0.950 . S
H1180 C1176 0.950 . S
C1181 C1179 1.390 . S
C1181 C1182 1.387 . S
C1181 H1184 0.950 . S
C1182 C1181 1.387 . S
C1182 C1185 1.387 . S
H1183 C1179 0.950 . S
H1184 C1181 0.950 . S
C1185 C1176 1.390 . S
C1185 H1178 0.950 . S
C1185 C1182 1.387 . S
C1186 C1187 1.387 . S
C1186 H1190 0.950 . S
C1186 C1195 1.390 . S
C1187 C1186 1.387 . S
C1187 C1189 1.387 . S
H1188 C1195 0.950 . S
C1189 C1187 1.387 . S
C1189 C1191 1.390 . S
C1189 H1193 0.950 . S
H1190 C1186 0.950 . S
C1191 C1189 1.390 . S
C1191 C1192 1.387 . S
C1191 H1194 0.950 . S
C1192 C1191 1.387 . S
C1192 C1195 1.387 . S
H1193 C1189 0.950 . S
H1194 C1191 0.950 . S
C1195 C1186 1.390 . S
C1195 H1188 0.950 . S
C1195 C1192 1.387 . S
C1196 C1197 1.387 . S
C1196 H1200 0.950 . S
C1196 C1205 1.390 . S
C1197 C1196 1.387 . S
C1197 C1199 1.387 . S
H1198 C1205 0.950 . S
C1199 C1197 1.387 . S
C1199 C1201 1.390 . S
C1199 H1203 0.950 . S
H1200 C1196 0.950 . S
C1201 C1199 1.390 . S
C1201 C1202 1.387 . S
C1201 H1204 0.950 . S
C1202 C1201 1.387 . S
C1202 C1205 1.387 . S
H1203 C1199 0.950 . S
H1204 C1201 0.950 . S
C1205 C1196 1.390 . S
C1205 H1198 0.950 . S
C1205 C1202 1.387 . S
C1206 C1207 1.387 . S
C1206 H1210 0.950 . S
C1206 C1215 1.390 . S
C1207 C1206 1.387 . S
C1207 C1209 1.387 . S
H1208 C1215 0.950 . S
C1209 C1207 1.387 . S
C1209 C1211 1.390 . S
C1209 H1213 0.950 . S
H1210 C1206 0.950 . S
C1211 C1209 1.390 . S
C1211 C1212 1.387 . S
C1211 H1214 0.950 . S
C1212 C1211 1.387 . S
C1212 C1215 1.387 . S
H1213 C1209 0.950 . S
H1214 C1211 0.950 . S
C1215 C1206 1.390 . S
C1215 H1208 0.950 . S
C1215 C1212 1.387 . S
C1216 C1217 1.387 . S
C1216 H1220 0.950 . S
C1216 C1225 1.390 . S
C1217 C1216 1.387 . S
C1217 C1219 1.387 . S
H1218 C1225 0.950 . S
C1219 C1217 1.387 . S
C1219 C1221 1.390 . S
C1219 H1223 0.950 . S
H1220 C1216 0.950 . S
C1221 C1219 1.390 . S
C1221 C1222 1.387 . S
C1221 H1224 0.950 . S
C1222 C1221 1.387 . S
C1222 C1225 1.387 . S
H1223 C1219 0.950 . S
H1224 C1221 0.950 . S
C1225 C1216 1.390 . S
C1225 H1218 0.950 . S
C1225 C1222 1.387 . S
C1226 C1227 1.387 . S
C1226 H1230 0.950 . S
C1226 C1235 1.390 . S
C1227 C1226 1.387 . S
C1227 C1229 1.387 . S
H1228 C1235 0.950 . S
C1229 C1227 1.387 . S
C1229 C1231 1.390 . S
C1229 H1233 0.950 . S
H1230 C1226 0.950 . S
C1231 C1229 1.390 . S
C1231 C1232 1.387 . S
C1231 H1234 0.950 . S
C1232 C1231 1.387 . S
C1232 C1235 1.387 . S
H1233 C1229 0.950 . S
H1234 C1231 0.950 . S
C1235 C1226 1.390 . S
C1235 H1228 0.950 . S
C1235 C1232 1.387 . S
C1236 C1237 1.387 . S
C1236 H1240 0.950 . S
C1236 C1245 1.390 . S
C1237 C1236 1.387 . S
C1237 C1239 1.387 . S
H1238 C1245 0.950 . S
C1239 C1237 1.387 . S
C1239 C1241 1.390 . S
C1239 H1243 0.950 . S
H1240 C1236 0.950 . S
C1241 C1239 1.390 . S
C1241 C1242 1.387 . S
C1241 H1244 0.950 . S
C1242 C1241 1.387 . S
C1242 C1245 1.387 . S
H1243 C1239 0.950 . S
H1244 C1241 0.950 . S
C1245 C1236 1.390 . S
C1245 H1238 0.950 . S
C1245 C1242 1.387 . S
C1246 C1247 1.387 . S
C1246 H1250 0.950 . S
C1246 C1255 1.390 . S
C1247 C1246 1.387 . S
C1247 C1249 1.387 . S
H1248 C1255 0.950 . S
C1249 C1247 1.387 . S
C1249 C1251 1.390 . S
C1249 H1253 0.950 . S
H1250 C1246 0.950 . S
C1251 C1249 1.390 . S
C1251 C1252 1.387 . S
C1251 H1254 0.950 . S
C1252 C1251 1.387 . S
C1252 C1255 1.387 . S
H1253 C1249 0.950 . S
H1254 C1251 0.950 . S
C1255 C1246 1.390 . S
C1255 H1248 0.950 . S
C1255 C1252 1.387 . S
C1256 C1257 1.387 . S
C1256 H1260 0.950 . S
C1256 C1265 1.390 . S
C1257 C1256 1.387 . S
C1257 C1259 1.387 . S
H1258 C1265 0.950 . S
C1259 C1257 1.387 . S
C1259 C1261 1.390 . S
C1259 H1263 0.950 . S
H1260 C1256 0.950 . S
C1261 C1259 1.390 . S
C1261 C1262 1.387 . S
C1261 H1264 0.950 . S
C1262 C1261 1.387 . S
C1262 C1265 1.387 . S
H1263 C1259 0.950 . S
H1264 C1261 0.950 . S
C1265 C1256 1.390 . S
C1265 H1258 0.950 . S
C1265 C1262 1.387 . S
C1266 C1267 1.387 . S
C1266 H1270 0.950 . S
C1266 C1275 1.390 . S
C1267 C1266 1.387 . S
C1267 C1269 1.387 . S
H1268 C1275 0.950 . S
C1269 C1267 1.387 . S
C1269 C1271 1.390 . S
C1269 H1273 0.950 . S
H1270 C1266 0.950 . S
C1271 C1269 1.390 . S
C1271 C1272 1.387 . S
C1271 H1274 0.950 . S
C1272 C1271 1.387 . S
C1272 C1275 1.387 . S
H1273 C1269 0.950 . S
H1274 C1271 0.950 . S
C1275 C1266 1.390 . S
C1275 H1268 0.950 . S
C1275 C1272 1.387 . S
C1276 C1277 1.387 . S
C1276 H1280 0.950 . S
C1276 C1285 1.390 . S
C1277 C1276 1.387 . S
C1277 C1279 1.387 . S
H1278 C1285 0.950 . S
C1279 C1277 1.387 . S
C1279 C1281 1.390 . S
C1279 H1283 0.950 . S
H1280 C1276 0.950 . S
C1281 C1279 1.390 . S
C1281 C1282 1.387 . S
C1281 H1284 0.950 . S
C1282 C1281 1.387 . S
C1282 C1285 1.387 . S
H1283 C1279 0.950 . S
H1284 C1281 0.950 . S
C1285 C1276 1.390 . S
C1285 H1278 0.950 . S
C1285 C1282 1.387 . S
C1286 C1287 1.387 . S
C1286 H1290 0.950 . S
C1286 C1295 1.390 . S
C1287 C1286 1.387 . S
C1287 C1289 1.387 . S
H1288 C1295 0.950 . S
C1289 C1287 1.387 . S
C1289 C1291 1.390 . S
C1289 H1293 0.950 . S
H1290 C1286 0.950 . S
C1291 C1289 1.390 . S
C1291 C1292 1.387 . S
C1291 H1294 0.950 . S
C1292 C1291 1.387 . S
C1292 C1295 1.387 . S
H1293 C1289 0.950 . S
H1294 C1291 0.950 . S
C1295 C1286 1.390 . S
C1295 H1288 0.950 . S
C1295 C1292 1.387 . S
C1057 C57 1.495 . S
C1062 C997 1.494 . S
C1067 C548 1.494 . S
C1072 C145 1.494 . S
C1077 C225 1.495 . S
C1082 C636 1.494 . S
C1087 C733 1.495 . S
C1092 C321 1.494 . S
C1097 C821 1.494 . S
C1102 C401 1.494 . S
C1107 C900 1.495 . S
C1112 C497 1.494 . S
C1117 C293 1.496 . S
C1122 C761 1.495 . S
C1127 C372 1.495 . S
C1132 C849 1.495 . S
C1137 C469 1.495 . S
C1142 C929 1.496 . S
C1147 C1025 1.495 . S
C1152 C29 1.496 . S
C1157 C117 1.495 . S
C1162 C577 1.495 . S
C1167 C196 1.496 . S
C1172 C665 1.495 . S
C1177 C753 1.488 . S
C1182 C20 1.489 . S
C1187 C841 1.488 . S
C1192 C108 1.488 . S
C1197 C205 1.488 . S
C1202 C937 1.487 . S
C1207 C284 1.488 . S
C1212 C1017 1.487 . S
C1217 C381 1.488 . S
C1222 C585 1.488 . S
C1227 C673 1.487 . S
C1232 C460 1.488 . S
C1237 C49 1.118 . S
C1242 C909 1.118 . S
C1247 C988 1.118 . S
C1252 C137 1.117 . S
C1257 C233 1.117 . S
C1262 C557 1.118 . S
C1267 C313 1.117 . S
C1272 C645 1.117 . S
C1277 C409 1.117 . S
C1282 C724 1.118 . S
C1287 C489 1.118 . S
C1292 C812 1.117 . S
