# Generated by pormake.
# Topology lcy-e, (6)-cn, num edge types: 1
# Building blocks:
#     Node 0, Type 0, BuildingBlock: JUFBIX_clean_sbu_0, # of connection points: 6
#     Node 1, Type 0, BuildingBlock: JUFBIX_clean_sbu_0, # of connection points: 6
#     Node 2, Type 0, BuildingBlock: JUFBIX_clean_sbu_0, # of connection points: 6
#     Node 3, Type 0, BuildingBlock: JUFBIX_clean_sbu_0, # of connection points: 6
#     Node 4, Type 0, BuildingBlock: JUFBIX_clean_sbu_0, # of connection points: 6
#     Node 5, Type 0, BuildingBlock: JUFBIX_clean_sbu_0, # of connection points: 6
#     Node 6, Type 0, BuildingBlock: JUFBIX_clean_sbu_0, # of connection points: 6
#     Node 7, Type 0, BuildingBlock: JUFBIX_clean_sbu_0, # of connection points: 6
#     Node 8, Type 0, BuildingBlock: JUFBIX_clean_sbu_0, # of connection points: 6
#     Node 9, Type 0, BuildingBlock: JUFBIX_clean_sbu_0, # of connection points: 6
#     Node 10, Type 0, BuildingBlock: JUFBIX_clean_sbu_0, # of connection points: 6
#     Node 11, Type 0, BuildingBlock: JUFBIX_clean_sbu_0, # of connection points: 6
#     Edge 12, Type (0, 0), BuildingBlock: AJUNOK_clean_linker_0, # of connection points: 2
#     Edge 13, Type (0, 0), BuildingBlock: AJUNOK_clean_linker_0, # of connection points: 2
#     Edge 14, Type (0, 0), BuildingBlock: AJUNOK_clean_linker_0, # of connection points: 2
#     Edge 15, Type (0, 0), BuildingBlock: AJUNOK_clean_linker_0, # of connection points: 2
#     Edge 16, Type (0, 0), BuildingBlock: AJUNOK_clean_linker_0, # of connection points: 2
#     Edge 17, Type (0, 0), BuildingBlock: AJUNOK_clean_linker_0, # of connection points: 2
#     Edge 18, Type (0, 0), BuildingBlock: AJUNOK_clean_linker_0, # of connection points: 2
#     Edge 19, Type (0, 0), BuildingBlock: AJUNOK_clean_linker_0, # of connection points: 2
#     Edge 20, Type (0, 0), BuildingBlock: AJUNOK_clean_linker_0, # of connection points: 2
#     Edge 21, Type (0, 0), BuildingBlock: AJUNOK_clean_linker_0, # of connection points: 2
#     Edge 22, Type (0, 0), BuildingBlock: AJUNOK_clean_linker_0, # of connection points: 2
#     Edge 23, Type (0, 0), BuildingBlock: AJUNOK_clean_linker_0, # of connection points: 2
#     Edge 24, Type (0, 0), BuildingBlock: AJUNOK_clean_linker_0, # of connection points: 2
#     Edge 25, Type (0, 0), BuildingBlock: AJUNOK_clean_linker_0, # of connection points: 2
#     Edge 26, Type (0, 0), BuildingBlock: AJUNOK_clean_linker_0, # of connection points: 2
#     Edge 27, Type (0, 0), BuildingBlock: AJUNOK_clean_linker_0, # of connection points: 2
#     Edge 28, Type (0, 0), BuildingBlock: AJUNOK_clean_linker_0, # of connection points: 2
#     Edge 29, Type (0, 0), BuildingBlock: AJUNOK_clean_linker_0, # of connection points: 2
#     Edge 30, Type (0, 0), BuildingBlock: AJUNOK_clean_linker_0, # of connection points: 2
#     Edge 31, Type (0, 0), BuildingBlock: AJUNOK_clean_linker_0, # of connection points: 2
#     Edge 32, Type (0, 0), BuildingBlock: AJUNOK_clean_linker_0, # of connection points: 2
#     Edge 33, Type (0, 0), BuildingBlock: AJUNOK_clean_linker_0, # of connection points: 2
#     Edge 34, Type (0, 0), BuildingBlock: AJUNOK_clean_linker_0, # of connection points: 2
#     Edge 35, Type (0, 0), BuildingBlock: AJUNOK_clean_linker_0, # of connection points: 2
#     Edge 36, Type (0, 0), BuildingBlock: AJUNOK_clean_linker_0, # of connection points: 2
#     Edge 37, Type (0, 0), BuildingBlock: AJUNOK_clean_linker_0, # of connection points: 2
#     Edge 38, Type (0, 0), BuildingBlock: AJUNOK_clean_linker_0, # of connection points: 2
#     Edge 39, Type (0, 0), BuildingBlock: AJUNOK_clean_linker_0, # of connection points: 2
#     Edge 40, Type (0, 0), BuildingBlock: AJUNOK_clean_linker_0, # of connection points: 2
#     Edge 41, Type (0, 0), BuildingBlock: AJUNOK_clean_linker_0, # of connection points: 2
#     Edge 42, Type (0, 0), BuildingBlock: AJUNOK_clean_linker_0, # of connection points: 2
#     Edge 43, Type (0, 0), BuildingBlock: AJUNOK_clean_linker_0, # of connection points: 2
#     Edge 44, Type (0, 0), BuildingBlock: AJUNOK_clean_linker_0, # of connection points: 2
#     Edge 45, Type (0, 0), BuildingBlock: AJUNOK_clean_linker_0, # of connection points: 2
#     Edge 46, Type (0, 0), BuildingBlock: AJUNOK_clean_linker_0, # of connection points: 2
#     Edge 47, Type (0, 0), BuildingBlock: AJUNOK_clean_linker_0, # of connection points: 2
# Relax obj value: 0.532
# Max RMSD: 0.362
# Mean RMSD: 0.291
data_MOF--net-lcy-e--node1-JUFBIX_clean_sbu_0--edge1-AJUNOK_clean_linker_0
_symmetry_space_group_name_H-M    P1
_symmetry_Int_Tables_number       1
_symmetry_cell_setting            triclinic
loop_
_symmetry_equiv_pos_as_xyz
'x, y, z'
_cell_length_a     27.35996
_cell_length_b     29.485528
_cell_length_c     27.095151
_cell_angle_alpha  88.430852
_cell_angle_beta   90.056072
_cell_angle_gamma 81.429327
loop_
_atom_site_label
_atom_site_type_symbol
_atom_site_fract_x
_atom_site_fract_y
_atom_site_fract_z
_atom_type_partial_charge
Co0 Co 0.20422 0.24213 0.4572 0.0
C1 C 0.10869 0.24862 0.49767 0.0
Co2 Co 0.1628 0.18905 0.43034 0.0
C3 C 0.24241 0.32734 0.45149 0.0
C4 C 0.24187 0.3016 0.52604 0.0
N5 N 0.23502 0.29003 0.47897 0.0
N6 N 0.25112 0.36224 0.47939 0.0
C7 C 0.25182 0.34606 0.52637 0.0
H8 H 0.23754 0.3307 0.4119 0.0
H9 H 0.23507 0.28101 0.55824 0.0
C10 C 0.26279 0.18458 0.39533 0.0
N11 N 0.12967 0.14372 0.40412 0.0
C12 C 0.08561 0.13049 0.41588 0.0
C13 C 0.14096 0.12502 0.35988 0.0
N14 N 0.06912 0.10477 0.38034 0.0
C15 C 0.10442 0.10123 0.34549 0.0
C16 C 0.15431 0.26362 0.36735 0.0
O17 O 0.26298 0.21735 0.42465 0.0
O18 O 0.22283 0.16721 0.39127 0.0
O19 O 0.13753 0.22671 0.37616 0.0
O20 O 0.18341 0.27698 0.39832 0.0
O21 O 0.10516 0.21259 0.47314 0.0
H22 H 0.17174 0.13113 0.33705 0.0
H23 H 0.06549 0.14084 0.449 0.0
O24 O 0.14669 0.2679 0.491 0.0
O25 O 0.2236 0.20503 0.51525 0.0
O26 O 0.18763 0.15067 0.48275 0.0
C27 C 0.21161 0.16482 0.51787 0.0
H28 H 0.25418 0.36641 0.55872 0.0
H29 H 0.10266 0.08499 0.31032 0.0
Co30 Co 0.06367 0.87261 0.70758 0.0
C31 C 0.99392 0.93787 0.74785 0.0
Co32 Co 0.08334 0.94139 0.69557 0.0
C33 C 0.08695 0.77882 0.72997 0.0
C34 C 1.00859 0.79707 0.72391 0.0
N35 N 0.05142 0.81321 0.71579 0.0
N36 N 0.06861 0.74365 0.75191 0.0
C37 C 0.01915 0.7542 0.7463 0.0
H38 H 0.12543 0.78299 0.73263 0.0
H39 H 0.97237 0.8174 0.72039 0.0
C40 C 0.14649 0.87565 0.65017 0.0
N41 N 0.09839 1.0004 0.68914 0.0
C42 C 0.1234 0.01873 0.65277 0.0
C43 C 0.09715 0.03008 0.72625 0.0
N44 N 0.139 0.0582 0.66601 0.0
C45 C 0.12222 0.0654 0.71235 0.0
C46 C 0.13092 0.89524 0.77965 0.0
O47 O 0.11692 0.85112 0.66884 0.0
O48 O 0.14157 0.91811 0.659 0.0
O49 O 0.12328 0.93388 0.75664 0.0
O50 O 0.10641 0.86439 0.76578 0.0
O51 O 0.02289 0.96451 0.73065 0.0
H52 H 0.08226 0.02459 0.76253 0.0
H53 H 0.13175 1.00222 0.61798 0.0
O54 O 1.0074 0.89482 0.74568 0.0
O55 O 0.02409 0.87964 0.65023 0.0
O56 O 0.04546 0.94718 0.63369 0.0
C57 C 0.02274 0.91427 0.62109 0.0
H58 H 0.99237 0.73616 0.7648 0.0
H59 H 0.13001 0.09232 0.73608 0.0
Co60 Co 0.33221 0.79122 1.00707 0.0
C61 C 0.42476 0.77598 0.05384 0.0
Co62 Co 0.38652 0.83421 0.97515 0.0
C63 C 0.3056 0.70148 0.03473 0.0
C64 C 0.24311 0.75408 0.04036 0.0
N65 N 0.29198 0.74787 0.03073 0.0
N66 N 0.26723 0.67869 0.0455 0.0
C67 C 0.22797 0.71187 0.04956 0.0
H68 H 0.34272 0.6845 0.02783 0.0
H69 H 0.21967 0.78705 0.03942 0.0
C70 C 0.28945 0.8485 0.93004 0.0
N71 N 0.4294 0.875 0.94953 0.0
C72 C 0.47941 0.87169 0.94342 0.0
C73 C 0.41204 0.91817 0.93367 0.0
N74 N 0.49314 0.91087 0.92353 0.0
C75 C 0.4505 0.93992 0.91784 0.0
C76 C 0.3872 0.75558 0.92536 0.0
O77 O 0.28055 0.81988 0.96374 0.0
O78 O 0.33296 0.85982 0.92762 0.0
O79 O 0.40999 0.78994 0.92862 0.0
O80 O 0.35361 0.75018 0.95638 0.0
O81 O 0.43668 0.80731 0.02445 0.0
H82 H 0.37355 0.93338 0.93421 0.0
H83 H 0.50515 0.84116 0.95299 0.0
O84 O 0.38274 0.76336 0.04909 0.0
O85 O 0.3125 0.83542 0.05855 0.0
O86 O 0.36267 0.87743 0.02108 0.0
C87 C 0.33291 0.87189 0.05582 0.0
H88 H 0.19094 0.70599 0.05888 0.0
H89 H 0.44737 0.97505 0.904 0.0
Co90 Co 0.52104 0.16721 0.21662 0.0
C91 C 0.56908 0.08024 0.24478 0.0
Co92 Co 0.48705 0.11125 0.18389 0.0
C93 C 0.55317 0.21719 0.29834 0.0
C94 C 0.5556 0.2542 0.22951 0.0
N95 N 0.54682 0.21361 0.24908 0.0
N96 N 0.56444 0.25861 0.3101 0.0
C97 C 0.56637 0.28193 0.26696 0.0
H98 H 0.54769 0.19064 0.32527 0.0
H99 H 0.55265 0.26366 0.19065 0.0
C100 C 0.44464 0.20142 0.15489 0.0
N101 N 0.457 0.0669 0.15076 0.0
C102 C 0.43016 0.03396 0.1665 0.0
C103 C 0.45081 0.06889 0.10124 0.0
N104 N 0.40722 1.01643 0.12854 0.0
C105 C 0.42084 0.03807 0.08765 0.0
C106 C 0.43889 0.1401 0.26953 0.0
O107 O 0.47956 0.21168 0.18077 0.0
O108 O 0.43894 0.15935 0.15231 0.0
O109 O 0.44227 0.10888 0.23773 0.0
O110 O 0.47022 0.1682 0.26768 0.0
O111 O 0.53834 0.06462 0.21616 0.0
H112 H 0.46508 0.09297 0.07636 0.0
H113 H 0.42549 0.02469 0.20495 0.0
O114 O 0.56373 0.12305 0.25181 0.0
O115 O 0.57043 0.16534 0.16419 0.0
O116 O 0.53094 0.1145 0.13016 0.0
C117 C 0.56532 0.13897 0.12842 0.0
H118 H 0.57481 0.31656 0.26295 0.0
H119 H 0.40915 0.03246 0.05039 0.0
Co120 Co 0.70775 0.35627 0.53972 0.0
C121 C 0.62733 0.33412 0.48877 0.0
Co122 Co 0.63705 0.38549 0.57277 0.0
C123 C 0.79292 0.28982 0.52924 0.0
C124 C 0.77831 0.33153 0.46376 0.0
N125 N 0.76682 0.32948 0.51201 0.0
N126 N 0.81454 0.26397 0.49294 0.0
C127 C 0.80776 0.29133 0.45199 0.0
H128 H 0.78847 0.27578 0.56594 0.0
H129 H 0.75962 0.3563 0.43725 0.0
C130 C 0.72171 0.40473 0.62127 0.0
N131 N 0.57765 0.4099 0.60058 0.0
C132 C 0.53306 0.41958 0.57822 0.0
C133 C 0.56856 0.41703 0.64884 0.0
N134 N 0.49638 0.43186 0.61062 0.0
C135 C 0.51882 0.43097 0.65506 0.0
C136 C 0.67067 0.30068 0.61305 0.0
O137 O 0.74265 0.38309 0.58566 0.0
O138 O 0.67467 0.40965 0.62503 0.0
O139 O 0.63488 0.33295 0.61115 0.0
O140 O 0.70706 0.30302 0.58447 0.0
O141 O 0.60212 0.35983 0.51956 0.0
H142 H 0.59617 0.41187 0.67785 0.0
H143 H 0.52745 0.4172 0.53892 0.0
O144 O 0.67388 0.32808 0.49232 0.0
O145 O 0.70582 0.41063 0.49723 0.0
O146 O 0.63794 0.43954 0.53527 0.0
C147 C 0.67139 0.4442 0.50403 0.0
H148 H 0.81525 0.27981 0.41477 0.0
H149 H 0.50103 0.44099 0.68953 0.0
Co150 Co 1.00043 0.40953 0.73467 0.0
C151 C 1.0139 0.33012 0.67684 0.0
Co152 Co 0.98037 0.34824 0.77516 0.0
C153 C 0.04835 0.48823 0.71782 0.0
C154 C 1.00531 0.47674 0.65468 0.0
N155 N 0.01753 0.4604 0.70069 0.0
N156 N 0.05648 0.52088 0.68447 0.0
C157 C 0.02939 0.51389 0.64453 0.0
H158 H 0.06527 0.48427 0.75396 0.0
H159 H 0.98188 0.46166 0.62962 0.0
C160 C 0.97062 0.43179 0.82918 0.0
N161 N 0.96472 0.29669 0.81361 0.0
C162 C 0.93218 0.26628 0.80816 0.0
C163 C 0.98646 0.28425 0.85771 0.0
N164 N 0.93393 0.2352 0.84665 0.0
C165 C 0.96802 0.24697 0.8777 0.0
C166 C 0.07798 0.3616 0.78943 0.0
O167 O 0.98395 0.44669 0.78803 0.0
O168 O 0.96506 0.3893 0.83333 0.0
O169 O 0.04652 0.33469 0.79712 0.0
O170 O 0.06645 0.39612 0.76044 0.0
O171 O 0.99733 0.31017 0.71492 0.0
H172 H 1.01346 0.30193 0.8752 0.0
H173 H 0.90745 0.26709 0.77684 0.0
O174 O 0.01794 0.37241 0.67968 0.0
O175 O 0.93321 0.42262 0.71115 0.0
O176 O 0.91431 0.36297 0.75348 0.0
C177 C 0.90094 0.398 0.72552 0.0
H178 H 0.02916 0.53261 0.60958 0.0
H179 H 0.97761 0.23095 0.91353 0.0
Co180 Co 0.97282 0.65635 0.02378 0.0
C181 C 0.89073 0.70741 0.98319 0.0
Co182 Co 0.90607 0.63352 0.05029 0.0
C183 C 0.0444 0.66678 0.9531 0.0
C184 C 0.0675 0.69056 0.02182 0.0
N185 N 0.03079 0.67223 1.00033 0.0
N186 N 0.08827 0.68014 0.9437 0.0
C187 C 0.10253 0.69654 0.98649 0.0
H188 H 0.02062 0.6564 0.92491 0.0
H189 H 0.06789 0.70039 0.05998 0.0
C190 C 0.98834 0.5915 0.09845 0.0
N191 N 0.84997 0.6148 0.07184 0.0
C192 C 0.81065 0.64062 0.09116 0.0
C193 C 0.83976 0.57139 0.07378 0.0
N194 N 0.7763 0.61501 0.10498 0.0
C195 C 0.79407 0.57146 0.09426 0.0
C196 C 0.94593 0.58011 0.9729 0.0
O197 O 1.00846 0.61834 0.07065 0.0
O198 O 0.94288 0.58883 0.093 0.0
O199 O 0.90782 0.58897 0.99927 0.0
O200 O 0.97931 0.60545 0.97757 0.0
O201 O 0.86877 0.68056 1.0098 0.0
H202 H 0.86496 0.54142 0.06341 0.0
H203 H 0.80819 0.67702 0.0973 0.0
O204 O 0.93706 0.69748 0.9774 0.0
O205 O 0.96609 0.70557 0.06991 0.0
O206 O 0.9032 0.67751 0.10175 0.0
C207 C 0.9319 0.70768 0.10208 0.0
H208 H 0.1345 0.71361 0.99105 0.0
H209 H 0.77691 0.54169 0.10414 0.0
Co210 Co 0.5484 0.61747 0.2961 0.0
C211 C 0.51039 0.69569 0.24068 0.0
Co212 Co 0.57121 0.67973 0.32485 0.0
C213 C 0.51663 0.53174 0.30386 0.0
C214 C 0.52507 0.54919 0.22755 0.0
N215 N 0.53035 0.56432 0.27336 0.0
N216 N 0.50087 0.49761 0.27945 0.0
C217 C 0.50638 0.50831 0.23116 0.0
H218 H 0.51544 0.53445 0.3436 0.0
H219 H 0.53187 0.56768 0.19389 0.0
C220 C 0.61276 0.59808 0.37388 0.0
N221 N 0.59052 0.73045 0.35447 0.0
C222 C 0.62104 0.76049 0.34055 0.0
C223 C 0.58203 0.7384 0.40284 0.0
N224 N 0.63051 0.78713 0.37829 0.0
C225 C 0.6059 0.77322 0.41731 0.0
C226 C 0.48783 0.65553 0.36954 0.0
O227 O 0.58994 0.58116 0.34038 0.0
O228 O 0.60823 0.64148 0.37662 0.0
O229 O 0.51438 0.68689 0.36526 0.0
O230 O 0.49638 0.6214 0.34194 0.0
O231 O 0.53485 0.71661 0.27092 0.0
H232 H 0.56371 0.71728 0.42769 0.0
H233 H 0.63828 0.761 0.30463 0.0
O234 O 0.50772 0.65349 0.24944 0.0
O235 O 0.59877 0.61396 0.25152 0.0
O236 O 0.62713 0.67263 0.28393 0.0
C237 C 0.62939 0.64214 0.25143 0.0
H238 H 0.49354 0.49031 0.20056 0.0
H239 H 0.60871 0.7845 0.45477 0.0
Co240 Co 0.24194 0.42866 0.17425 0.0
C241 C 0.25364 0.48747 0.09485 0.0
Co242 Co 0.20807 0.40712 0.10679 0.0
C243 C 0.30712 0.41826 0.25711 0.0
C244 C 0.26338 0.48469 0.25366 0.0
N245 N 0.27059 0.44414 0.23135 0.0
N246 N 0.32603 0.44186 0.29266 0.0
C247 C 0.29704 0.48336 0.29133 0.0
H248 H 0.32122 0.38347 0.24775 0.0
H249 H 0.23805 0.51444 0.24099 0.0
C250 C 0.19399 0.35427 0.19033 0.0
N251 N 0.17706 0.39011 0.05083 0.0
C252 C 0.1912 0.38864 1.00297 0.0
C253 C 0.13404 0.37289 0.05176 0.0
N254 N 0.15897 0.37023 0.97464 0.0
C255 C 0.12303 0.36048 1.00519 0.0
C256 C 0.30226 0.36248 0.11998 0.0
O257 O 0.21838 0.3822 0.20978 0.0
O258 O 0.18595 0.35676 0.14405 0.0
O259 O 0.2661 0.36774 0.0901 0.0
O260 O 0.30037 0.38696 0.15808 0.0
O261 O 0.22964 0.46044 0.07149 0.0
H262 H 0.11205 0.36934 0.08441 0.0
H263 H 0.22464 0.40006 0.98937 0.0
O264 O 0.26557 0.4774 0.13953 0.0
O265 O 0.18325 0.4685 0.18958 0.0
O266 O 0.15006 0.44411 0.12363 0.0
C267 C 0.146 0.46788 0.16193 0.0
H268 H 0.30344 0.51296 0.31177 0.0
H269 H 0.09059 0.34613 0.99426 0.0
Co270 Co 0.76372 0.01927 0.91978 0.0
C271 C 0.79682 1.00199 0.82321 0.0
Co272 Co 0.72094 0.06185 0.86277 0.0
C273 C 0.80955 0.9309 0.94979 0.0
C274 C 0.81695 0.97573 1.00909 0.0
N275 N 0.8 0.97552 0.96231 0.0
N276 N 0.83209 0.90344 0.98585 0.0
C277 C 0.83651 0.93118 0.02382 0.0
H278 H 0.79805 0.91795 0.91532 0.0
H279 H 0.81391 1.00582 0.03148 0.0
C280 C 0.69239 0.08081 0.96241 0.0
N281 N 0.68392 0.10038 0.81703 0.0
C282 C 0.70022 0.12812 0.78212 0.0
C283 C 0.63427 0.10793 0.81268 0.0
N284 N 0.66266 0.15313 0.75675 0.0
C285 C 0.62111 0.14027 0.77564 0.0
C286 C 0.67661 0.98539 0.88847 0.0
O287 O 0.73023 0.05138 0.97283 0.0
O288 O 0.68078 0.08939 0.91693 0.0
O289 O 0.67615 1.01771 0.85636 0.0
O290 O 0.71206 0.97951 0.91962 0.0
O291 O 0.76353 0.03499 0.81001 0.0
H292 H 0.60921 0.09166 0.83567 0.0
H293 H 0.73879 0.13128 0.77669 0.0
O294 O 0.79797 0.98813 0.8676 0.0
O295 O 0.81445 0.06136 0.91884 0.0
O296 O 0.76371 0.10546 0.86899 0.0
C297 C 0.80438 0.09851 0.89236 0.0
H298 H 0.85227 0.92003 0.05957 0.0
H299 H 0.5838 0.15396 0.76411 0.0
Co300 Co 0.8185 0.98088 0.41411 0.0
C301 C 0.76347 0.99909 0.32628 0.0
Co302 Co 0.85246 0.94276 0.35092 0.0
C303 C 0.81004 0.04716 0.48836 0.0
C304 C 0.73998 0.02633 0.47387 0.0
N305 N 0.78861 1.01569 0.46457 0.0
N306 N 0.77678 0.07965 0.50818 0.0
C307 C 0.73257 0.06602 0.50022 0.0
H308 H 0.84866 0.0507 0.48439 0.0
H309 H 0.7114 1.01045 0.45665 0.0
C310 C 0.90267 0.92772 0.44402 0.0
N311 N 0.88547 0.90755 0.30041 0.0
C312 C 0.87115 0.87708 0.26863 0.0
C313 C 0.93432 0.90571 0.29215 0.0
N314 N 0.90936 0.85673 0.24101 0.0
C315 C 0.94888 0.87511 0.25591 0.0
C316 C 0.8899 0.02338 0.36455 0.0
O317 O 0.86452 0.95278 0.4589 0.0
O318 O 0.90622 0.91789 0.39827 0.0
O319 O 0.88879 0.99121 0.3346 0.0
O320 O 0.86052 0.02621 0.40082 0.0
O321 O 0.7962 0.96936 0.30638 0.0
H322 H 0.9585 0.92425 0.31257 0.0
H323 H 0.83364 0.86975 0.26626 0.0
O324 O 0.77095 1.00994 0.37022 0.0
O325 O 0.77774 0.93519 0.4258 0.0
O326 O 0.81691 0.89489 0.36709 0.0
C327 C 0.7829 0.89991 0.39915 0.0
H328 H 0.69713 0.08691 0.50612 0.0
H329 H 0.98632 0.86572 0.24288 0.0
Co330 Co 0.26038 0.62809 0.5563 0.0
C331 C 0.21524 0.6162 0.64709 0.0
Co332 Co 0.30753 0.6343 0.62145 0.0
C333 C 0.24061 0.58493 0.47012 0.0
C334 C 0.17282 0.61073 0.50526 0.0
N335 N 0.22091 0.61583 0.50318 0.0
N336 N 0.20931 0.55589 0.45739 0.0
C337 C 0.16577 0.57368 0.4776 0.0
H338 H 0.28 0.57755 0.46398 0.0
H339 H 0.14697 0.62655 0.53216 0.0
C340 C 0.35004 0.64492 0.52826 0.0
N341 N 0.35001 0.64257 0.67233 0.0
C342 C 0.34128 0.66497 0.71487 0.0
C343 C 0.39896 0.6267 0.67319 0.0
N344 N 0.38303 0.66401 0.74171 0.0
C345 C 0.41938 0.63996 0.71575 0.0
C346 C 0.31922 0.54684 0.59222 0.0
O347 O 0.30802 0.63956 0.5127 0.0
O348 O 0.35857 0.64431 0.57444 0.0
O349 O 0.33154 0.57256 0.62488 0.0
O350 O 0.28892 0.56372 0.55873 0.0
O351 O 0.25552 0.62343 0.66708 0.0
H352 H 0.41862 0.60661 0.64462 0.0
H353 H 0.30528 0.68219 0.72563 0.0
O354 O 0.2116 0.61656 0.60056 0.0
O355 O 0.23461 0.69215 0.55502 0.0
O356 O 0.28386 0.69679 0.61837 0.0
C357 C 0.25299 0.71635 0.58668 0.0
H358 H 0.13354 0.55646 0.48015 0.0
H359 H 0.45771 0.63202 0.72714 0.0
C360 C 0.27851 0.43752 0.48089 0.0
C361 C 0.24502 0.40982 0.46433 0.0
C362 C 0.269 0.48514 0.47394 0.0
C363 C 0.22475 0.5072 0.45139 0.0
H364 H 0.3113 0.42231 0.50117 0.0
H365 H 0.29523 0.50453 0.48967 0.0
S366 S 0.12804 0.44886 0.39601 0.0
N367 N 0.16838 0.40666 0.41981 0.0
N368 N 0.15026 0.49666 0.40729 0.0
C369 C 0.19277 0.47938 0.43143 0.0
C370 C 0.20283 0.43062 0.4379 0.0
C371 C 0.86249 0.93972 0.79662 0.0
C372 C 0.8416 0.98633 0.79351 0.0
C373 C 0.91141 0.92479 0.78198 0.0
C374 C 0.94247 0.95585 0.76458 0.0
H375 H 0.84134 0.91466 0.81241 0.0
H376 H 0.92519 0.88846 0.78528 0.0
S377 S 0.90597 0.08219 0.75036 0.0
N378 N 0.85579 0.0637 0.77185 0.0
N379 N 0.94777 0.03604 0.74468 0.0
C380 C 0.92177 1.00267 0.7606 0.0
C381 C 0.87147 1.01775 0.77489 0.0
C382 C 0.30041 0.60367 0.08594 0.0
C383 C 0.2677 0.62945 0.0521 0.0
C384 C 0.29739 0.55711 0.09722 0.0
C385 C 0.26213 0.53373 0.07447 0.0
H386 H 0.32703 0.62027 0.10557 0.0
H387 H 0.32198 0.53968 0.12537 0.0
S388 S 0.17205 0.58437 0.97828 0.0
N389 N 0.20186 0.62708 0.99258 0.0
N390 N 0.1964 0.53992 1.01322 0.0
C391 C 0.23116 0.55854 0.03835 0.0
C392 C 0.2338 0.6062 0.02743 0.0
C393 C 0.64649 0.01926 0.24193 0.0
C394 C 0.6143 0.05235 0.26784 0.0
C395 C 0.69502 1.00222 0.25982 0.0
C396 C 0.71369 0.01848 0.30366 0.0
H397 H 0.63492 1.00781 0.20673 0.0
H398 H 0.7181 0.97659 0.23894 0.0
S399 S 0.64319 0.10509 0.38525 0.0
N400 N 0.60399 0.09847 0.34083 0.0
N401 N 0.69426 0.07073 0.37178 0.0
C402 C 0.68115 0.05155 0.32956 0.0
C403 C 0.63192 0.06719 0.31248 0.0
C404 C 0.77675 0.19982 0.46223 0.0
C405 C 0.8111 0.21582 0.49363 0.0
C406 C 0.7639 0.15609 0.46904 0.0
C407 C 0.78499 0.12649 0.50733 0.0
H408 H 0.75809 0.22192 0.43331 0.0
H409 H 0.73792 0.14491 0.44353 0.0
S410 S 0.87796 0.15076 0.59833 0.0
N411 N 0.86623 0.19848 0.56413 0.0
N412 N 0.84327 0.11484 0.57563 0.0
C413 C 0.82012 0.14136 0.53831 0.0
C414 C 0.83274 0.18638 0.53187 0.0
C415 C 0.14121 0.5336 0.70599 0.0
C416 C 0.09368 0.5506 0.68727 0.0
C417 C 0.18076 0.55866 0.69961 0.0
C418 C 0.17374 0.60157 0.67472 0.0
H419 H 0.14879 0.49918 0.72191 0.0
H420 H 0.21773 0.54229 0.70949 0.0
S421 S 0.05447 0.66559 0.62965 0.0
N422 N 0.04037 0.61609 0.65084 0.0
N423 N 0.11448 0.66322 0.63903 0.0
C424 C 0.12538 0.62096 0.66112 0.0
C425 C 0.08539 0.59538 0.6671 0.0
C426 C 0.82751 0.82508 1.01862 0.0
C427 C 0.84528 0.85432 0.98344 0.0
C428 C 0.8385 0.77711 1.01532 0.0
C429 C 0.86862 0.75651 0.97724 0.0
H430 H 0.805 0.83947 0.04885 0.0
H431 H 0.82559 0.75612 0.04455 0.0
S432 S 0.92393 0.81857 0.87579 0.0
N433 N 0.89295 0.8597 0.90856 0.0
N434 N 0.91543 0.76974 0.90347 0.0
C435 C 0.88592 0.78562 0.94146 0.0
C436 C 0.87382 0.8344 0.94428 0.0
C437 C 0.43524 0.48337 0.33754 0.0
C438 C 0.46793 0.46811 0.29923 0.0
C439 C 0.3908 0.46601 0.34351 0.0
C440 C 0.37681 0.43501 0.30958 0.0
H441 H 0.44072 0.51239 0.35927 0.0
H442 H 0.36408 0.48253 0.3693 0.0
S443 S 0.4635 0.36511 0.22588 0.0
N444 N 0.49385 0.40623 0.24366 0.0
N445 N 0.40969 0.37378 0.25419 0.0
C446 C 0.41474 0.41126 0.2806 0.0
C447 C 0.46032 0.42855 0.27491 0.0
C448 C 0.61591 0.25246 0.38508 0.0
C449 C 0.57485 0.27435 0.35825 0.0
C450 C 0.63093 0.27105 0.4287 0.0
C451 C 0.6049 0.31182 0.44766 0.0
H452 H 0.63787 0.22201 0.3709 0.0
H453 H 0.66416 0.25401 0.447 0.0
S454 S 0.49074 0.37837 0.39426 0.0
N455 N 0.50577 0.33637 0.35537 0.0
N456 N 0.53322 0.37084 0.43828 0.0
C457 C 0.56182 0.33228 0.42278 0.0
C458 C 0.54709 0.31375 0.37773 0.0
C459 C 0.06984 0.31461 0.54739 0.0
C460 C 0.0737 0.26747 0.53801 0.0
C461 C 0.04893 0.33356 0.59098 0.0
C462 C 0.03065 0.30674 0.62889 0.0
H463 H 0.08524 0.33722 0.52145 0.0
H464 H 0.04886 0.36997 0.5954 0.0
S465 S 0.02653 0.18161 0.6212 0.0
N466 N 0.05356 0.19441 0.56911 0.0
N467 N 1.01399 0.23005 0.65124 0.0
C468 C 0.03148 0.25972 0.619 0.0
C469 C 0.0529 0.24021 0.57377 0.0
C470 C 0.10534 0.74971 0.83333 0.0
C471 C 0.09044 0.722 0.79622 0.0
C472 C 0.11312 0.7331 0.88171 0.0
C473 C 0.10474 0.68868 0.89471 0.0
H474 H 0.10573 0.78592 0.82619 0.0
H475 H 0.11897 0.75706 0.90993 0.0
S476 S 0.07706 0.59953 0.80946 0.0
N477 N 0.07618 0.64611 0.7739 0.0
N478 N 0.09138 0.61419 0.86551 0.0
C479 C 0.0967 0.65878 0.85684 0.0
C480 C 0.08862 0.67583 0.80745 0.0
C481 C 0.49303 0.76312 0.17817 0.0
C482 C 0.49066 0.71685 0.19188 0.0
C483 C 0.47557 0.78195 0.13147 0.0
C484 C 0.45569 0.75506 0.09647 0.0
H485 H 0.50759 0.78519 0.20397 0.0
H486 H 0.47548 0.81819 0.12373 0.0
S487 S 0.44531 0.63141 0.11093 0.0
N488 N 0.4689 0.64441 0.16379 0.0
N489 N 0.43818 0.67936 0.07728 0.0
C490 C 0.4554 0.70854 0.1088 0.0
C491 C 0.47221 0.68961 0.15602 0.0
C492 C 0.18813 0.25998 0.28295 0.0
C493 C 0.15365 0.28187 0.31645 0.0
C494 C 0.19699 0.28111 0.2375 0.0
C495 C 0.17092 0.32429 0.2241 0.0
H496 H 0.21104 0.22796 0.29355 0.0
H497 H 0.22725 0.26555 0.2149 0.0
S498 S 0.07227 0.39258 0.29594 0.0
N499 N 0.09027 0.34661 0.33143 0.0
N500 N 0.10598 0.38604 0.24536 0.0
C501 C 0.13343 0.3445 0.2555 0.0
C502 C 0.12504 0.3234 0.30206 0.0
C503 C 0.99673 0.95087 0.53764 0.0
C504 C 0.99658 0.9144 0.57234 0.0
C505 C 0.97046 0.95221 0.49271 0.0
C506 C 0.94349 0.91693 0.48023 0.0
H507 H 0.01589 0.97939 0.54587 0.0
H508 H 0.96874 0.98252 0.46883 0.0
S509 S 0.93257 0.8127 0.55603 0.0
N510 N 0.96843 0.8407 0.58907 0.0
N511 N 0.91907 0.84426 0.5052 0.0
C512 C 0.94456 0.87955 0.51336 0.0
C513 C 0.97113 0.87798 0.55913 0.0
C514 C 0.35418 0.67749 0.82643 0.0
C515 C 0.3877 0.68396 0.78878 0.0
C516 C 0.3568 0.69816 0.87196 0.0
C517 C 0.39241 0.727 0.88107 0.0
H518 H 0.32543 0.65665 0.82032 0.0
H519 H 0.32909 0.69311 0.89929 0.0
S520 S 0.48992 0.75316 0.79418 0.0
N521 N 0.45876 0.7191 0.76346 0.0
N522 N 0.46346 0.75897 0.84886 0.0
C523 C 0.42725 0.73243 0.84402 0.0
C524 C 0.42489 0.71074 0.79786 0.0
C525 C 0.65006 0.1191 0.09165 0.0
C526 C 0.59912 0.13389 0.08521 0.0
C527 C 0.68026 0.10341 0.0515 0.0
C528 C 0.66089 0.10253 1.00318 0.0
H529 H 0.66611 0.117 0.12837 0.0
H530 H 0.71889 0.09066 0.05869 0.0
S531 S 0.5301 0.1408 0.96664 0.0
N532 N 0.53103 0.14865 0.02672 0.0
N533 N 0.58748 0.12048 0.95148 0.0
C534 C 0.61041 0.11954 0.99609 0.0
C535 C 0.57968 0.13476 0.03701 0.0
C536 C 0.70208 0.22107 0.64754 0.0
C537 C 0.66989 0.26291 0.65044 0.0
C538 C 0.7001 0.18525 0.68271 0.0
C539 C 0.66575 0.19013 0.72162 0.0
H540 H 0.72844 0.21573 0.61767 0.0
H541 H 0.72485 0.15328 0.67901 0.0
S542 S 0.57839 0.29455 0.74997 0.0
N543 N 0.60591 0.30815 0.6987 0.0
N544 N 0.60265 0.24111 0.7638 0.0
C545 C 0.63481 0.23217 0.72585 0.0
C546 C 0.63677 0.26847 0.69054 0.0
C547 C 0.14897 0.32268 0.90388 0.0
C548 C 0.15856 0.36456 0.92222 0.0
C549 C 0.13013 0.32014 0.85617 0.0
C550 C 0.1192 0.35974 0.82552 0.0
H551 H 0.1516 0.29271 0.92832 0.0
H552 H 0.11866 0.28813 0.84558 0.0
S553 S 0.14948 0.47524 0.85271 0.0
N554 N 0.16493 0.44428 0.90361 0.0
N555 N 0.12976 0.43992 0.81355 0.0
C556 C 0.1357 0.40024 0.84096 0.0
C557 C 0.15507 0.40266 0.88968 0.0
C558 C 0.94412 0.81975 0.16511 0.0
C559 C 0.91085 0.82098 0.20497 0.0
C560 C 0.9506 0.7832 0.13238 0.0
C561 C 0.92408 0.74597 0.13781 0.0
H562 H 0.96574 0.84731 0.15929 0.0
H563 H 0.97679 0.78424 0.10257 0.0
S564 S 0.83194 0.73239 0.23597 0.0
N565 N 0.85093 0.78154 0.24789 0.0
N566 N 0.8623 0.71317 0.18627 0.0
C567 C 0.88988 0.74711 0.17702 0.0
C568 C 0.88339 0.78448 0.21048 0.0
C569 C 0.39285 0.61525 0.45384 0.0
C570 C 0.38845 0.64731 0.49152 0.0
C571 C 0.42418 0.61904 0.41402 0.0
C572 C 0.45176 0.6555 0.40995 0.0
H573 H 0.37145 0.58714 0.45491 0.0
H574 H 0.42666 0.59309 0.38626 0.0
S575 S 0.44978 0.75045 0.49792 0.0
N576 N 0.41211 0.71725 0.52242 0.0
N577 N 0.47034 0.72589 0.44636 0.0
C578 C 0.44681 0.68847 0.44719 0.0
C579 C 0.41544 0.6839 0.48844 0.0
C580 C 0.35 0.19233 0.36932 0.0
C581 C 0.30836 0.16941 0.36512 0.0
C582 C 0.39232 0.18159 0.33977 0.0
C583 C 0.39561 0.1471 0.30442 0.0
H584 H 0.34975 0.21975 0.39516 0.0
H585 H 0.42238 0.20128 0.3441 0.0
S586 S 0.298 0.07512 0.27936 0.0
N587 N 0.27422 0.10931 0.32326 0.0
N588 N 0.35326 0.08899 0.26801 0.0
C589 C 0.35479 0.12297 0.3006 0.0
C590 C 0.31148 0.13411 0.3307 0.0
C591 C 0.21929 0.09054 0.56288 0.0
C592 C 0.21258 0.13856 0.56475 0.0
C593 C 0.1984 0.06423 0.59849 0.0
C594 C 0.16917 0.08502 0.63684 0.0
H595 H 0.2369 0.07349 0.53117 0.0
H596 H 0.20284 0.02751 0.59404 0.0
S597 S 0.15066 0.20946 0.66384 0.0
N598 N 0.18317 0.20552 0.61245 0.0
N599 N 0.14242 0.15653 0.67904 0.0
C600 C 0.16735 0.13274 0.64232 0.0
C601 C 0.18957 0.15941 0.60633 0.0
C602 C 0.18623 0.9177 0.8489 0.0
C603 C 0.17193 0.88409 0.8178 0.0
C604 C 0.22498 0.90688 0.88436 0.0
C605 C 0.25131 0.86203 0.89005 0.0
H606 H 0.16686 0.9525 0.84634 0.0
H607 H 0.23369 0.93356 0.9081 0.0
S608 S 0.23464 0.76326 0.81321 0.0
N609 N 0.19265 0.80529 0.79187 0.0
N610 N 0.26286 0.78506 0.8588 0.0
C611 C 0.23851 0.82876 0.85822 0.0
C612 C 0.19971 0.83972 0.82211 0.0
C613 C 0.39194 0.93699 0.146 0.0
C614 C 0.37486 0.98188 0.12853 0.0
C615 C 0.37011 0.89958 0.12965 0.0
C616 C 0.3309 0.9059 0.09502 0.0
H617 H 0.42564 0.93022 0.16768 0.0
H618 H 0.3885 0.86521 0.13868 0.0
S619 S 0.26591 1.01765 0.04759 0.0
N620 N 0.31054 0.03127 0.08283 0.0
N621 N 0.27073 0.96113 0.05126 0.0
C622 C 0.30944 0.95108 0.08314 0.0
C623 C 0.33133 0.98902 0.09988 0.0
C624 C 0.83609 0.44098 0.66928 0.0
C625 C 0.84881 0.40828 0.70776 0.0
C626 C 0.79001 0.44506 0.64548 0.0
C627 C 0.75469 0.4172 0.65973 0.0
H628 H 0.86311 0.46121 0.65489 0.0
H629 H 0.78382 0.46703 0.61265 0.0
S630 S 0.76598 0.33164 0.76314 0.0
N631 N 0.81919 0.35177 0.76319 0.0
N632 N 0.73294 0.35974 0.71788 0.0
C633 C 0.76478 0.38791 0.70122 0.0
C634 C 0.81183 0.38328 0.72532 0.0
C635 C 0.99684 0.49931 0.87052 0.0
C636 C 0.96565 0.46509 0.87055 0.0
C637 C 0.99052 0.53555 0.90379 0.0
C638 C 0.95209 0.54017 0.93857 0.0
H639 H 0.02638 0.49853 0.8438 0.0
H640 H 0.01558 0.56068 0.90148 0.0
S641 S 0.86111 0.45887 0.95595 0.0
N642 N 0.89599 0.4373 0.91 0.0
N643 N 0.88321 0.50554 0.9721 0.0
C644 C 0.92114 0.50557 0.93986 0.0
C645 C 0.92819 0.46807 0.90619 0.0
C646 C 0.74698 0.64794 0.1828 0.0
C647 C 0.73708 0.62841 0.13791 0.0
C648 C 0.71106 0.6542 0.21933 0.0
C649 C 0.6648 0.64066 0.2115 0.0
H650 H 0.78351 0.65588 0.19054 0.0
H651 H 0.72028 0.66753 0.25448 0.0
S652 S 0.61925 0.59523 0.09638 0.0
N653 N 0.67746 0.6005 0.08501 0.0
N654 N 0.60865 0.61293 0.1532 0.0
C655 C 0.65357 0.62404 0.16526 0.0
C656 C 0.69023 0.6176 0.12845 0.0
C657 C 0.6828 0.48743 0.42507 0.0
C658 C 0.66724 0.48769 0.47442 0.0
C659 C 0.66889 0.52572 0.39347 0.0
C660 C 0.64005 0.5659 0.4104 0.0
H661 H 0.70246 0.45639 0.40976 0.0
H662 H 0.67804 0.52283 0.35466 0.0
S663 S 0.59594 0.58636 0.53799 0.0
N664 N 0.62592 0.53338 0.54012 0.0
N665 N 0.60057 0.60524 0.48048 0.0
C666 C 0.62812 0.56809 0.46056 0.0
C667 C 0.64151 0.52894 0.49264 0.0
C668 C 0.32352 0.27777 0.12747 0.0
C669 C 0.33899 0.32065 0.11801 0.0
C670 C 0.35796 0.23781 0.13521 0.0
C671 C 0.40894 0.23962 0.13354 0.0
H672 H 0.28456 0.2756 0.13192 0.0
H673 H 0.34466 0.20617 0.14596 0.0
S674 S 0.46757 0.34184 0.09937 0.0
N675 N 0.40779 0.36152 0.1006 0.0
N676 N 0.47281 0.28651 0.11384 0.0
C677 C 0.42452 0.28171 0.11986 0.0
C678 C 0.38947 0.32232 0.11258 0.0
C679 C 0.85217 0.20802 0.84642 0.0
C680 C 0.90308 0.19975 0.8566 0.0
C681 C 0.82107 0.17569 0.85977 0.0
C682 C 0.83916 0.1331 0.88375 0.0
H683 H 0.83598 0.24024 0.82894 0.0
H684 H 0.78214 0.18437 0.85085 0.0
S685 S 0.97079 0.09275 0.91465 0.0
N686 N 0.97092 0.14451 0.88973 0.0
N687 N 0.91257 0.0839 0.91432 0.0
C688 C 0.89026 0.12406 0.89338 0.0
C689 C 0.92205 0.15719 0.87992 0.0
C690 C 0.05568 0.48388 0.15446 0.0
C691 C 0.10001 0.49888 0.16853 0.0
C692 C 0.01555 0.51525 0.13737 0.0
C693 C 0.0195 0.56202 0.13369 0.0
H694 H 0.05408 0.44755 0.15127 0.0
H695 H 0.98407 0.50239 0.12157 0.0
S696 S 0.12261 0.61883 0.1783 0.0
N697 N 0.14177 0.56343 0.18751 0.0
N698 N 0.06616 0.62281 0.15527 0.0
C699 C 0.06063 0.57775 0.15478 0.0
C700 C 0.10118 0.54586 0.17254 0.0
C701 C 0.75264 0.82942 0.37016 0.0
C702 C 0.74455 0.8696 0.39795 0.0
C703 C 0.71467 0.80346 0.36204 0.0
C704 C 0.66735 0.81677 0.3814 0.0
H705 H 0.78846 0.81815 0.354 0.0
H706 H 0.72263 0.77227 0.34147 0.0
S707 S 0.62568 0.91988 0.45419 0.0
N708 N 0.68471 0.92188 0.44352 0.0
N709 N 0.61352 0.87302 0.42775 0.0
C710 C 0.65854 0.85684 0.40883 0.0
C711 C 0.69712 0.88318 0.41738 0.0
C712 C 0.43249 0.47338 0.55489 0.0
C713 C 0.44523 0.4485 0.59933 0.0
C714 C 0.38597 0.50004 0.54872 0.0
C715 C 0.35113 0.5029 0.58693 0.0
H716 H 0.45997 0.47602 0.52669 0.0
H717 H 0.37982 0.52295 0.51666 0.0
S718 S 0.3607 0.43422 0.70371 0.0
N719 N 0.41466 0.41973 0.67669 0.0
N720 N 0.32812 0.47203 0.66586 0.0
C721 C 0.36083 0.47352 0.62837 0.0
C722 C 0.40784 0.44585 0.63447 0.0
C723 C 0.19392 0.78704 0.56446 0.0
C724 C 0.2359 0.76615 0.59079 0.0
C725 C 0.16895 0.82969 0.57828 0.0
C726 C 0.18505 0.85235 0.61891 0.0
H727 H 0.1775 0.76861 0.53631 0.0
H728 H 0.1333 0.84196 0.56141 0.0
S729 S 0.29951 0.8182 0.69157 0.0
N730 N 0.2985 0.7765 0.6523 0.0
N731 N 0.24969 0.85571 0.67905 0.0
C732 C 0.23056 0.83527 0.64062 0.0
C733 C 0.25641 0.7921 0.62648 0.0
C734 C 0.58147 0.91475 0.9453 0.0
C735 C 0.54195 0.92209 0.91118 0.0
C736 C 0.62593 0.93314 0.93671 0.0
C737 C 0.63293 0.95956 0.89351 0.0
H738 H 0.57702 0.89675 0.97999 0.0
H739 H 0.65413 0.92827 0.96523 0.0
S740 S 0.54304 0.98319 0.78961 0.0
N741 N 0.51489 0.95364 0.83043 0.0
N742 N 0.59722 0.9878 0.81424 0.0
C743 C 0.59457 0.96465 0.858 0.0
C744 C 0.54957 0.94612 0.86683 0.0
C745 C 0.97666 0.02997 0.34138 0.0
C746 C 0.93264 0.04919 0.36434 0.0
C747 C 0.02069 0.04784 0.3478 0.0
C748 C 0.02288 0.08662 0.37651 0.0
H749 H 0.97793 0.9995 0.31981 0.0
H750 H 0.05365 0.03033 0.33067 0.0
S751 S 0.91653 0.15328 0.44001 0.0
N752 N 0.89305 0.11081 0.41495 0.0
N753 N 0.97554 0.14606 0.42489 0.0
C754 C 0.97866 0.10745 0.39823 0.0
C755 C 0.93369 0.08851 0.39247 0.0
loop_
_geom_bond_atom_site_label_1
_geom_bond_atom_site_label_2
_geom_bond_distance
_geom_bond_site_symmetry_2
_ccdc_geom_bond_type
Co0 N5 2.057 . S
Co0 O17 2.021 . S
Co0 O20 2.062 . S
Co0 O24 2.117 . S
Co0 O25 2.020 . S
C1 O21 1.259 . S
C1 O24 1.258 . S
Co2 N11 2.057 . S
Co2 O18 2.117 . S
Co2 O19 2.020 . S
Co2 O21 2.021 . S
Co2 O26 2.062 . S
C3 N5 1.316 . S
C3 N6 1.347 . S
C3 H8 0.931 . S
C4 N5 1.375 . S
C4 C7 1.350 . S
C4 H9 0.930 . S
N5 Co0 2.057 . S
N5 C3 1.316 . S
N5 C4 1.375 . S
N6 C3 1.347 . S
N6 C7 1.373 . S
C7 C4 1.350 . S
C7 N6 1.373 . S
C7 H28 0.931 . S
H8 C3 0.931 . S
H9 C4 0.930 . S
C10 O17 1.259 . S
C10 O18 1.258 . S
N11 Co2 2.057 . S
N11 C12 1.316 . S
N11 C13 1.375 . S
C12 N11 1.316 . S
C12 N14 1.347 . S
C12 H23 0.931 . S
C13 N11 1.375 . S
C13 C15 1.350 . S
C13 H22 0.930 . S
N14 C12 1.347 . S
N14 C15 1.373 . S
C15 C13 1.350 . S
C15 N14 1.373 . S
C15 H29 0.931 . S
C16 O19 1.256 . S
C16 O20 1.255 . S
O17 Co0 2.021 . S
O17 C10 1.259 . S
O18 Co2 2.117 . S
O18 C10 1.258 . S
O19 Co2 2.020 . S
O19 C16 1.256 . S
O20 Co0 2.062 . S
O20 C16 1.255 . S
O21 C1 1.259 . S
O21 Co2 2.021 . S
H22 C13 0.930 . S
H23 C12 0.931 . S
O24 Co0 2.117 . S
O24 C1 1.258 . S
O25 Co0 2.020 . S
O25 C27 1.256 . S
O26 Co2 2.062 . S
O26 C27 1.255 . S
C27 O25 1.256 . S
C27 O26 1.255 . S
H28 C7 0.931 . S
H29 C15 0.931 . S
Co30 N35 2.057 . S
Co30 O47 2.021 . S
Co30 O50 2.062 . S
Co30 O54 2.117 . S
Co30 O55 2.020 . S
C31 O51 1.259 . S
C31 O54 1.258 . S
Co32 N41 2.057 . S
Co32 O48 2.117 . S
Co32 O49 2.020 . S
Co32 O51 2.021 . S
Co32 O56 2.062 . S
C33 N35 1.316 . S
C33 N36 1.347 . S
C33 H38 0.931 . S
C34 N35 1.375 1_655 S
C34 C37 1.350 . S
C34 H39 0.930 . S
N35 Co30 2.057 . S
N35 C33 1.316 . S
N35 C34 1.375 1_455 S
N36 C33 1.347 . S
N36 C37 1.373 1_455 S
C37 C34 1.350 . S
C37 N36 1.373 1_655 S
C37 H58 0.931 . S
H38 C33 0.931 . S
H39 C34 0.930 . S
C40 O47 1.259 . S
C40 O48 1.258 . S
N41 Co32 2.057 . S
N41 C42 1.316 . S
N41 C43 1.375 . S
C42 N41 1.316 . S
C42 N44 1.347 1_565 S
C42 H53 0.931 1_565 S
C43 N41 1.375 . S
C43 C45 1.350 . S
C43 H52 0.930 . S
N44 C42 1.347 1_545 S
N44 C45 1.373 1_545 S
C45 C43 1.350 . S
C45 N44 1.373 1_565 S
C45 H59 0.931 . S
C46 O49 1.256 . S
C46 O50 1.255 . S
O47 Co30 2.021 . S
O47 C40 1.259 . S
O48 Co32 2.117 . S
O48 C40 1.258 . S
O49 Co32 2.020 . S
O49 C46 1.256 . S
O50 Co30 2.062 . S
O50 C46 1.255 . S
O51 C31 1.259 . S
O51 Co32 2.021 . S
H52 C43 0.930 . S
H53 C42 0.931 1_545 S
O54 Co30 2.117 . S
O54 C31 1.258 . S
O55 Co30 2.020 . S
O55 C57 1.256 . S
O56 Co32 2.062 . S
O56 C57 1.255 . S
C57 O55 1.256 . S
C57 O56 1.255 . S
H58 C37 0.931 . S
H59 C45 0.931 . S
Co60 N65 2.057 1_556 S
Co60 O77 2.021 . S
Co60 O80 2.062 . S
Co60 O84 2.117 1_556 S
Co60 O85 2.020 1_556 S
C61 O81 1.259 1_554 S
C61 O84 1.258 . S
Co62 N71 2.057 . S
Co62 O78 2.117 . S
Co62 O79 2.020 . S
Co62 O81 2.021 . S
Co62 O86 2.062 . S
C63 N65 1.316 . S
C63 N66 1.347 . S
C63 H68 0.931 1_554 S
C64 N65 1.375 . S
C64 C67 1.350 . S
C64 H69 0.930 . S
N65 Co60 2.057 1_554 S
N65 C63 1.316 . S
N65 C64 1.375 . S
N66 C63 1.347 . S
N66 C67 1.373 . S
C67 C64 1.350 . S
C67 N66 1.373 . S
C67 H88 0.931 . S
H68 C63 0.931 1_556 S
H69 C64 0.930 . S
C70 O77 1.259 . S
C70 O78 1.258 . S
N71 Co62 2.057 . S
N71 C72 1.316 . S
N71 C73 1.375 . S
C72 N71 1.316 . S
C72 N74 1.347 . S
C72 H83 0.931 . S
C73 N71 1.375 . S
C73 C75 1.350 . S
C73 H82 0.930 . S
N74 C72 1.347 . S
N74 C75 1.373 . S
C75 C73 1.350 . S
C75 N74 1.373 . S
C75 H89 0.931 . S
C76 O79 1.256 . S
C76 O80 1.255 . S
O77 Co60 2.021 . S
O77 C70 1.259 . S
O78 Co62 2.117 . S
O78 C70 1.258 . S
O79 Co62 2.020 . S
O79 C76 1.256 . S
O80 Co60 2.062 . S
O80 C76 1.255 . S
O81 C61 1.259 1_556 S
O81 Co62 2.021 . S
H82 C73 0.930 . S
H83 C72 0.931 . S
O84 Co60 2.117 1_554 S
O84 C61 1.258 . S
O85 Co60 2.020 1_554 S
O85 C87 1.256 . S
O86 Co62 2.062 . S
O86 C87 1.255 1_556 S
C87 O85 1.256 . S
C87 O86 1.255 1_554 S
H88 C67 0.931 . S
H89 C75 0.931 . S
Co90 N95 2.057 . S
Co90 O107 2.021 . S
Co90 O110 2.062 . S
Co90 O114 2.117 . S
Co90 O115 2.020 . S
C91 O111 1.259 . S
C91 O114 1.258 . S
Co92 N101 2.057 . S
Co92 O108 2.117 . S
Co92 O109 2.020 . S
Co92 O111 2.021 . S
Co92 O116 2.062 . S
C93 N95 1.316 . S
C93 N96 1.347 . S
C93 H98 0.931 . S
C94 N95 1.375 . S
C94 C97 1.350 . S
C94 H99 0.930 . S
N95 Co90 2.057 . S
N95 C93 1.316 . S
N95 C94 1.375 . S
N96 C93 1.347 . S
N96 C97 1.373 . S
C97 C94 1.350 . S
C97 N96 1.373 . S
C97 H118 0.931 . S
H98 C93 0.931 . S
H99 C94 0.930 . S
C100 O107 1.259 . S
C100 O108 1.258 . S
N101 Co92 2.057 . S
N101 C102 1.316 . S
N101 C103 1.375 . S
C102 N101 1.316 . S
C102 N104 1.347 . S
C102 H113 0.931 1_545 S
C103 N101 1.375 . S
C103 C105 1.350 . S
C103 H112 0.930 . S
N104 C102 1.347 . S
N104 C105 1.373 . S
C105 C103 1.350 . S
C105 N104 1.373 . S
C105 H119 0.931 . S
C106 O109 1.256 . S
C106 O110 1.255 . S
O107 Co90 2.021 . S
O107 C100 1.259 . S
O108 Co92 2.117 . S
O108 C100 1.258 . S
O109 Co92 2.020 . S
O109 C106 1.256 . S
O110 Co90 2.062 . S
O110 C106 1.255 . S
O111 C91 1.259 . S
O111 Co92 2.021 . S
H112 C103 0.930 . S
H113 C102 0.931 1_565 S
O114 Co90 2.117 . S
O114 C91 1.258 . S
O115 Co90 2.020 . S
O115 C117 1.256 . S
O116 Co92 2.062 . S
O116 C117 1.255 . S
C117 O115 1.256 . S
C117 O116 1.255 . S
H118 C97 0.931 . S
H119 C105 0.931 . S
Co120 N125 2.057 . S
Co120 O137 2.021 . S
Co120 O140 2.062 . S
Co120 O144 2.117 . S
Co120 O145 2.020 . S
C121 O141 1.259 . S
C121 O144 1.258 . S
Co122 N131 2.057 . S
Co122 O138 2.117 . S
Co122 O139 2.020 . S
Co122 O141 2.021 . S
Co122 O146 2.062 . S
C123 N125 1.316 . S
C123 N126 1.347 . S
C123 H128 0.931 . S
C124 N125 1.375 . S
C124 C127 1.350 . S
C124 H129 0.930 . S
N125 Co120 2.057 . S
N125 C123 1.316 . S
N125 C124 1.375 . S
N126 C123 1.347 . S
N126 C127 1.373 . S
C127 C124 1.350 . S
C127 N126 1.373 . S
C127 H148 0.931 . S
H128 C123 0.931 . S
H129 C124 0.930 . S
C130 O137 1.259 . S
C130 O138 1.258 . S
N131 Co122 2.057 . S
N131 C132 1.316 . S
N131 C133 1.375 . S
C132 N131 1.316 . S
C132 N134 1.347 . S
C132 H143 0.931 . S
C133 N131 1.375 . S
C133 C135 1.350 . S
C133 H142 0.930 . S
N134 C132 1.347 . S
N134 C135 1.373 . S
C135 C133 1.350 . S
C135 N134 1.373 . S
C135 H149 0.931 . S
C136 O139 1.256 . S
C136 O140 1.255 . S
O137 Co120 2.021 . S
O137 C130 1.259 . S
O138 Co122 2.117 . S
O138 C130 1.258 . S
O139 Co122 2.020 . S
O139 C136 1.256 . S
O140 Co120 2.062 . S
O140 C136 1.255 . S
O141 C121 1.259 . S
O141 Co122 2.021 . S
H142 C133 0.930 . S
H143 C132 0.931 . S
O144 Co120 2.117 . S
O144 C121 1.258 . S
O145 Co120 2.020 . S
O145 C147 1.256 . S
O146 Co122 2.062 . S
O146 C147 1.255 . S
C147 O145 1.256 . S
C147 O146 1.255 . S
H148 C127 0.931 . S
H149 C135 0.931 . S
Co150 N155 2.057 1_655 S
Co150 O167 2.021 . S
Co150 O170 2.062 1_655 S
Co150 O174 2.117 . S
Co150 O175 2.020 . S
C151 O171 1.259 . S
C151 O174 1.258 . S
Co152 N161 2.057 . S
Co152 O168 2.117 . S
Co152 O169 2.020 . S
Co152 O171 2.021 . S
Co152 O176 2.062 . S
C153 N155 1.316 . S
C153 N156 1.347 . S
C153 H158 0.931 1_455 S
C154 N155 1.375 . S
C154 C157 1.350 . S
C154 H159 0.930 . S
N155 Co150 2.057 1_455 S
N155 C153 1.316 . S
N155 C154 1.375 . S
N156 C153 1.347 . S
N156 C157 1.373 . S
C157 C154 1.350 . S
C157 N156 1.373 . S
C157 H178 0.931 . S
H158 C153 0.931 1_655 S
H159 C154 0.930 . S
C160 O167 1.259 . S
C160 O168 1.258 . S
N161 Co152 2.057 . S
N161 C162 1.316 . S
N161 C163 1.375 . S
C162 N161 1.316 . S
C162 N164 1.347 . S
C162 H173 0.931 . S
C163 N161 1.375 . S
C163 C165 1.350 . S
C163 H172 0.930 . S
N164 C162 1.347 . S
N164 C165 1.373 . S
C165 C163 1.350 . S
C165 N164 1.373 . S
C165 H179 0.931 . S
C166 O169 1.256 1_455 S
C166 O170 1.255 . S
O167 Co150 2.021 . S
O167 C160 1.259 . S
O168 Co152 2.117 . S
O168 C160 1.258 . S
O169 Co152 2.020 . S
O169 C166 1.256 1_655 S
O170 Co150 2.062 1_455 S
O170 C166 1.255 . S
O171 C151 1.259 . S
O171 Co152 2.021 . S
H172 C163 0.930 . S
H173 C162 0.931 . S
O174 Co150 2.117 . S
O174 C151 1.258 . S
O175 Co150 2.020 . S
O175 C177 1.256 . S
O176 Co152 2.062 . S
O176 C177 1.255 . S
C177 O175 1.256 . S
C177 O176 1.255 . S
H178 C157 0.931 . S
H179 C165 0.931 . S
Co180 N185 2.057 1_554 S
Co180 O197 2.021 . S
Co180 O200 2.062 1_554 S
Co180 O204 2.117 1_554 S
Co180 O205 2.020 . S
C181 O201 1.259 . S
C181 O204 1.258 1_554 S
Co182 N191 2.057 . S
Co182 O198 2.117 . S
Co182 O199 2.020 . S
Co182 O201 2.021 . S
Co182 O206 2.062 . S
C183 N185 1.316 1_455 S
C183 N186 1.347 . S
C183 H188 0.931 . S
C184 N185 1.375 . S
C184 C187 1.350 . S
C184 H189 0.930 . S
N185 Co180 2.057 1_556 S
N185 C183 1.316 1_655 S
N185 C184 1.375 . S
N186 C183 1.347 . S
N186 C187 1.373 1_455 S
C187 C184 1.350 . S
C187 N186 1.373 1_655 S
C187 H208 0.931 . S
H188 C183 0.931 . S
H189 C184 0.930 . S
C190 O197 1.259 . S
C190 O198 1.258 . S
N191 Co182 2.057 . S
N191 C192 1.316 . S
N191 C193 1.375 . S
C192 N191 1.316 . S
C192 N194 1.347 . S
C192 H203 0.931 . S
C193 N191 1.375 . S
C193 C195 1.350 . S
C193 H202 0.930 . S
N194 C192 1.347 . S
N194 C195 1.373 . S
C195 C193 1.350 . S
C195 N194 1.373 . S
C195 H209 0.931 . S
C196 O199 1.256 1_556 S
C196 O200 1.255 . S
O197 Co180 2.021 . S
O197 C190 1.259 . S
O198 Co182 2.117 . S
O198 C190 1.258 . S
O199 Co182 2.020 . S
O199 C196 1.256 1_554 S
O200 Co180 2.062 1_556 S
O200 C196 1.255 . S
O201 C181 1.259 . S
O201 Co182 2.021 . S
H202 C193 0.930 . S
H203 C192 0.931 . S
O204 Co180 2.117 1_556 S
O204 C181 1.258 1_556 S
O205 Co180 2.020 . S
O205 C207 1.256 . S
O206 Co182 2.062 . S
O206 C207 1.255 . S
C207 O205 1.256 . S
C207 O206 1.255 . S
H208 C187 0.931 . S
H209 C195 0.931 . S
Co210 N215 2.057 . S
Co210 O227 2.021 . S
Co210 O230 2.062 . S
Co210 O234 2.117 . S
Co210 O235 2.020 . S
C211 O231 1.259 . S
C211 O234 1.258 . S
Co212 N221 2.057 . S
Co212 O228 2.117 . S
Co212 O229 2.020 . S
Co212 O231 2.021 . S
Co212 O236 2.062 . S
C213 N215 1.316 . S
C213 N216 1.347 . S
C213 H218 0.931 . S
C214 N215 1.375 . S
C214 C217 1.350 . S
C214 H219 0.930 . S
N215 Co210 2.057 . S
N215 C213 1.316 . S
N215 C214 1.375 . S
N216 C213 1.347 . S
N216 C217 1.373 . S
C217 C214 1.350 . S
C217 N216 1.373 . S
C217 H238 0.931 . S
H218 C213 0.931 . S
H219 C214 0.930 . S
C220 O227 1.259 . S
C220 O228 1.258 . S
N221 Co212 2.057 . S
N221 C222 1.316 . S
N221 C223 1.375 . S
C222 N221 1.316 . S
C222 N224 1.347 . S
C222 H233 0.931 . S
C223 N221 1.375 . S
C223 C225 1.350 . S
C223 H232 0.930 . S
N224 C222 1.347 . S
N224 C225 1.373 . S
C225 C223 1.350 . S
C225 N224 1.373 . S
C225 H239 0.931 . S
C226 O229 1.256 . S
C226 O230 1.255 . S
O227 Co210 2.021 . S
O227 C220 1.259 . S
O228 Co212 2.117 . S
O228 C220 1.258 . S
O229 Co212 2.020 . S
O229 C226 1.256 . S
O230 Co210 2.062 . S
O230 C226 1.255 . S
O231 C211 1.259 . S
O231 Co212 2.021 . S
H232 C223 0.930 . S
H233 C222 0.931 . S
O234 Co210 2.117 . S
O234 C211 1.258 . S
O235 Co210 2.020 . S
O235 C237 1.256 . S
O236 Co212 2.062 . S
O236 C237 1.255 . S
C237 O235 1.256 . S
C237 O236 1.255 . S
H238 C217 0.931 . S
H239 C225 0.931 . S
Co240 N245 2.057 . S
Co240 O257 2.021 . S
Co240 O260 2.062 . S
Co240 O264 2.117 . S
Co240 O265 2.020 . S
C241 O261 1.259 . S
C241 O264 1.258 . S
Co242 N251 2.057 . S
Co242 O258 2.117 . S
Co242 O259 2.020 . S
Co242 O261 2.021 . S
Co242 O266 2.062 . S
C243 N245 1.316 . S
C243 N246 1.347 . S
C243 H248 0.931 . S
C244 N245 1.375 . S
C244 C247 1.350 . S
C244 H249 0.930 . S
N245 Co240 2.057 . S
N245 C243 1.316 . S
N245 C244 1.375 . S
N246 C243 1.347 . S
N246 C247 1.373 . S
C247 C244 1.350 . S
C247 N246 1.373 . S
C247 H268 0.931 . S
H248 C243 0.931 . S
H249 C244 0.930 . S
C250 O257 1.259 . S
C250 O258 1.258 . S
N251 Co242 2.057 . S
N251 C252 1.316 1_554 S
N251 C253 1.375 . S
C252 N251 1.316 1_556 S
C252 N254 1.347 . S
C252 H263 0.931 . S
C253 N251 1.375 . S
C253 C255 1.350 1_554 S
C253 H262 0.930 . S
N254 C252 1.347 . S
N254 C255 1.373 . S
C255 C253 1.350 1_556 S
C255 N254 1.373 . S
C255 H269 0.931 . S
C256 O259 1.256 . S
C256 O260 1.255 . S
O257 Co240 2.021 . S
O257 C250 1.259 . S
O258 Co242 2.117 . S
O258 C250 1.258 . S
O259 Co242 2.020 . S
O259 C256 1.256 . S
O260 Co240 2.062 . S
O260 C256 1.255 . S
O261 C241 1.259 . S
O261 Co242 2.021 . S
H262 C253 0.930 . S
H263 C252 0.931 . S
O264 Co240 2.117 . S
O264 C241 1.258 . S
O265 Co240 2.020 . S
O265 C267 1.256 . S
O266 Co242 2.062 . S
O266 C267 1.255 . S
C267 O265 1.256 . S
C267 O266 1.255 . S
H268 C247 0.931 . S
H269 C255 0.931 . S
Co270 N275 2.057 1_545 S
Co270 O287 2.021 . S
Co270 O290 2.062 1_545 S
Co270 O294 2.117 1_545 S
Co270 O295 2.020 . S
C271 O291 1.259 1_565 S
C271 O294 1.258 . S
Co272 N281 2.057 . S
Co272 O288 2.117 . S
Co272 O289 2.020 . S
Co272 O291 2.021 . S
Co272 O296 2.062 . S
C273 N275 1.316 . S
C273 N276 1.347 . S
C273 H278 0.931 1_556 S
C274 N275 1.375 . S
C274 C277 1.350 . S
C274 H279 0.930 . S
N275 Co270 2.057 1_565 S
N275 C273 1.316 . S
N275 C274 1.375 . S
N276 C273 1.347 . S
N276 C277 1.373 . S
C277 C274 1.350 . S
C277 N276 1.373 . S
C277 H298 0.931 . S
H278 C273 0.931 1_554 S
H279 C274 0.930 . S
C280 O287 1.259 . S
C280 O288 1.258 . S
N281 Co272 2.057 . S
N281 C282 1.316 . S
N281 C283 1.375 . S
C282 N281 1.316 . S
C282 N284 1.347 . S
C282 H293 0.931 . S
C283 N281 1.375 . S
C283 C285 1.350 . S
C283 H292 0.930 . S
N284 C282 1.347 . S
N284 C285 1.373 . S
C285 C283 1.350 . S
C285 N284 1.373 . S
C285 H299 0.931 . S
C286 O289 1.256 1_565 S
C286 O290 1.255 . S
O287 Co270 2.021 . S
O287 C280 1.259 . S
O288 Co272 2.117 . S
O288 C280 1.258 . S
O289 Co272 2.020 . S
O289 C286 1.256 1_545 S
O290 Co270 2.062 1_565 S
O290 C286 1.255 . S
O291 C271 1.259 1_545 S
O291 Co272 2.021 . S
H292 C283 0.930 . S
H293 C282 0.931 . S
O294 Co270 2.117 1_565 S
O294 C271 1.258 . S
O295 Co270 2.020 . S
O295 C297 1.256 . S
O296 Co272 2.062 . S
O296 C297 1.255 . S
C297 O295 1.256 . S
C297 O296 1.255 . S
H298 C277 0.931 . S
H299 C285 0.931 . S
Co300 N305 2.057 . S
Co300 O317 2.021 . S
Co300 O320 2.062 . S
Co300 O324 2.117 . S
Co300 O325 2.020 . S
C301 O321 1.259 . S
C301 O324 1.258 . S
Co302 N311 2.057 . S
Co302 O318 2.117 . S
Co302 O319 2.020 . S
Co302 O321 2.021 . S
Co302 O326 2.062 . S
C303 N305 1.316 1_545 S
C303 N306 1.347 . S
C303 H308 0.931 1_545 S
C304 N305 1.375 1_545 S
C304 C307 1.350 . S
C304 H309 0.930 . S
N305 Co300 2.057 . S
N305 C303 1.316 1_565 S
N305 C304 1.375 1_565 S
N306 C303 1.347 . S
N306 C307 1.373 . S
C307 C304 1.350 . S
C307 N306 1.373 . S
C307 H328 0.931 . S
H308 C303 0.931 1_565 S
H309 C304 0.930 . S
C310 O317 1.259 . S
C310 O318 1.258 . S
N311 Co302 2.057 . S
N311 C312 1.316 . S
N311 C313 1.375 . S
C312 N311 1.316 . S
C312 N314 1.347 . S
C312 H323 0.931 . S
C313 N311 1.375 . S
C313 C315 1.350 . S
C313 H322 0.930 . S
N314 C312 1.347 . S
N314 C315 1.373 . S
C315 C313 1.350 . S
C315 N314 1.373 . S
C315 H329 0.931 . S
C316 O319 1.256 . S
C316 O320 1.255 . S
O317 Co300 2.021 . S
O317 C310 1.259 . S
O318 Co302 2.117 . S
O318 C310 1.258 . S
O319 Co302 2.020 . S
O319 C316 1.256 . S
O320 Co300 2.062 . S
O320 C316 1.255 . S
O321 C301 1.259 . S
O321 Co302 2.021 . S
H322 C313 0.930 . S
H323 C312 0.931 . S
O324 Co300 2.117 . S
O324 C301 1.258 . S
O325 Co300 2.020 . S
O325 C327 1.256 . S
O326 Co302 2.062 . S
O326 C327 1.255 . S
C327 O325 1.256 . S
C327 O326 1.255 . S
H328 C307 0.931 . S
H329 C315 0.931 . S
Co330 N335 2.057 . S
Co330 O347 2.021 . S
Co330 O350 2.062 . S
Co330 O354 2.117 . S
Co330 O355 2.020 . S
C331 O351 1.259 . S
C331 O354 1.258 . S
Co332 N341 2.057 . S
Co332 O348 2.117 . S
Co332 O349 2.020 . S
Co332 O351 2.021 . S
Co332 O356 2.062 . S
C333 N335 1.316 . S
C333 N336 1.347 . S
C333 H338 0.931 . S
C334 N335 1.375 . S
C334 C337 1.350 . S
C334 H339 0.930 . S
N335 Co330 2.057 . S
N335 C333 1.316 . S
N335 C334 1.375 . S
N336 C333 1.347 . S
N336 C337 1.373 . S
C337 C334 1.350 . S
C337 N336 1.373 . S
C337 H358 0.931 . S
H338 C333 0.931 . S
H339 C334 0.930 . S
C340 O347 1.259 . S
C340 O348 1.258 . S
N341 Co332 2.057 . S
N341 C342 1.316 . S
N341 C343 1.375 . S
C342 N341 1.316 . S
C342 N344 1.347 . S
C342 H353 0.931 . S
C343 N341 1.375 . S
C343 C345 1.350 . S
C343 H352 0.930 . S
N344 C342 1.347 . S
N344 C345 1.373 . S
C345 C343 1.350 . S
C345 N344 1.373 . S
C345 H359 0.931 . S
C346 O349 1.256 . S
C346 O350 1.255 . S
O347 Co330 2.021 . S
O347 C340 1.259 . S
O348 Co332 2.117 . S
O348 C340 1.258 . S
O349 Co332 2.020 . S
O349 C346 1.256 . S
O350 Co330 2.062 . S
O350 C346 1.255 . S
O351 C331 1.259 . S
O351 Co332 2.021 . S
H352 C343 0.930 . S
H353 C342 0.931 . S
O354 Co330 2.117 . S
O354 C331 1.258 . S
O355 Co330 2.020 . S
O355 C357 1.256 . S
O356 Co332 2.062 . S
O356 C357 1.255 . S
C357 O355 1.256 . S
C357 O356 1.255 . S
H358 C337 0.931 . S
H359 C345 0.931 . S
C360 C361 1.369 . S
C360 C362 1.419 . S
C360 H364 0.930 . S
C361 C360 1.369 . S
C361 C370 1.429 . S
C362 C360 1.419 . S
C362 C363 1.363 . S
C362 H365 0.929 . S
C363 C362 1.363 . S
C363 C369 1.428 . S
H364 C360 0.930 . S
H365 C362 0.929 . S
S366 N367 1.613 . S
S366 N368 1.610 . S
N367 S366 1.613 . S
N367 C370 1.350 . S
N368 S366 1.610 . S
N368 C369 1.351 . S
C369 C363 1.428 . S
C369 N368 1.351 . S
C369 C370 1.434 . S
C370 C361 1.429 . S
C370 N367 1.350 . S
C370 C369 1.434 . S
C371 C372 1.369 . S
C371 C373 1.419 . S
C371 H375 0.930 . S
C372 C371 1.369 . S
C372 C381 1.429 . S
C373 C371 1.419 . S
C373 C374 1.363 . S
C373 H376 0.929 . S
C374 C373 1.363 . S
C374 C380 1.428 . S
H375 C371 0.930 . S
H376 C373 0.929 . S
S377 N378 1.613 . S
S377 N379 1.610 . S
N378 S377 1.613 . S
N378 C381 1.350 . S
N379 S377 1.610 . S
N379 C380 1.351 . S
C380 C374 1.428 . S
C380 N379 1.351 . S
C380 C381 1.434 . S
C381 C372 1.429 . S
C381 N378 1.350 . S
C381 C380 1.434 . S
C382 C383 1.369 . S
C382 C384 1.419 . S
C382 H386 0.930 . S
C383 C382 1.369 . S
C383 C392 1.429 . S
C384 C382 1.419 . S
C384 C385 1.363 . S
C384 H387 0.929 . S
C385 C384 1.363 . S
C385 C391 1.428 . S
H386 C382 0.930 . S
H387 C384 0.929 . S
S388 N389 1.613 . S
S388 N390 1.610 . S
N389 S388 1.613 . S
N389 C392 1.350 . S
N390 S388 1.610 . S
N390 C391 1.351 . S
C391 C385 1.428 . S
C391 N390 1.351 . S
C391 C392 1.434 . S
C392 C383 1.429 . S
C392 N389 1.350 . S
C392 C391 1.434 . S
C393 C394 1.369 1_565 S
C393 C395 1.419 . S
C393 H397 0.930 . S
C394 C393 1.369 1_545 S
C394 C403 1.429 . S
C395 C393 1.419 . S
C395 C396 1.363 . S
C395 H398 0.929 . S
C396 C395 1.363 . S
C396 C402 1.428 1_565 S
H397 C393 0.930 . S
H398 C395 0.929 . S
S399 N400 1.613 . S
S399 N401 1.610 . S
N400 S399 1.613 . S
N400 C403 1.350 . S
N401 S399 1.610 . S
N401 C402 1.351 . S
C402 C396 1.428 1_545 S
C402 N401 1.351 . S
C402 C403 1.434 . S
C403 C394 1.429 . S
C403 N400 1.350 . S
C403 C402 1.434 . S
C404 C405 1.369 . S
C404 C406 1.419 . S
C404 H408 0.930 . S
C405 C404 1.369 . S
C405 C414 1.429 . S
C406 C404 1.419 . S
C406 C407 1.363 . S
C406 H409 0.929 . S
C407 C406 1.363 . S
C407 C413 1.428 . S
H408 C404 0.930 . S
H409 C406 0.929 . S
S410 N411 1.613 . S
S410 N412 1.610 . S
N411 S410 1.613 . S
N411 C414 1.350 . S
N412 S410 1.610 . S
N412 C413 1.351 . S
C413 C407 1.428 . S
C413 N412 1.351 . S
C413 C414 1.434 . S
C414 C405 1.429 . S
C414 N411 1.350 . S
C414 C413 1.434 . S
C415 C416 1.369 . S
C415 C417 1.419 . S
C415 H419 0.930 . S
C416 C415 1.369 . S
C416 C425 1.429 . S
C417 C415 1.419 . S
C417 C418 1.363 . S
C417 H420 0.929 . S
C418 C417 1.363 . S
C418 C424 1.428 . S
H419 C415 0.930 . S
H420 C417 0.929 . S
S421 N422 1.613 . S
S421 N423 1.610 . S
N422 S421 1.613 . S
N422 C425 1.350 . S
N423 S421 1.610 . S
N423 C424 1.351 . S
C424 C418 1.428 . S
C424 N423 1.351 . S
C424 C425 1.434 . S
C425 C416 1.429 . S
C425 N422 1.350 . S
C425 C424 1.434 . S
C426 C427 1.369 . S
C426 C428 1.419 . S
C426 H430 0.930 . S
C427 C426 1.369 . S
C427 C436 1.429 1_554 S
C428 C426 1.419 . S
C428 C429 1.361 1_554 S
C428 H431 0.929 . S
C429 C428 1.361 1_556 S
C429 C435 1.430 . S
H430 C426 0.930 . S
H431 C428 0.929 . S
S432 N433 1.613 . S
S432 N434 1.610 . S
N433 S432 1.613 . S
N433 C436 1.350 . S
N434 S432 1.610 . S
N434 C435 1.351 . S
C435 C429 1.430 . S
C435 N434 1.351 . S
C435 C436 1.434 . S
C436 C427 1.429 1_556 S
C436 N433 1.350 . S
C436 C435 1.434 . S
C437 C438 1.369 . S
C437 C439 1.419 . S
C437 H441 0.930 . S
C438 C437 1.369 . S
C438 C447 1.429 . S
C439 C437 1.419 . S
C439 C440 1.363 . S
C439 H442 0.929 . S
C440 C439 1.363 . S
C440 C446 1.428 . S
H441 C437 0.930 . S
H442 C439 0.929 . S
S443 N444 1.613 . S
S443 N445 1.610 . S
N444 S443 1.613 . S
N444 C447 1.350 . S
N445 S443 1.610 . S
N445 C446 1.351 . S
C446 C440 1.428 . S
C446 N445 1.351 . S
C446 C447 1.434 . S
C447 C438 1.429 . S
C447 N444 1.350 . S
C447 C446 1.434 . S
C448 C449 1.369 . S
C448 C450 1.419 . S
C448 H452 0.930 . S
C449 C448 1.369 . S
C449 C458 1.429 . S
C450 C448 1.419 . S
C450 C451 1.363 . S
C450 H453 0.929 . S
C451 C450 1.363 . S
C451 C457 1.428 . S
H452 C448 0.930 . S
H453 C450 0.929 . S
S454 N455 1.613 . S
S454 N456 1.610 . S
N455 S454 1.613 . S
N455 C458 1.350 . S
N456 S454 1.610 . S
N456 C457 1.351 . S
C457 C451 1.428 . S
C457 N456 1.351 . S
C457 C458 1.434 . S
C458 C449 1.429 . S
C458 N455 1.350 . S
C458 C457 1.434 . S
C459 C460 1.369 . S
C459 C461 1.419 . S
C459 H463 0.930 . S
C460 C459 1.369 . S
C460 C469 1.429 1_455 S
C461 C459 1.419 . S
C461 C462 1.363 . S
C461 H464 0.929 . S
C462 C461 1.363 . S
C462 C468 1.428 1_455 S
H463 C459 0.930 . S
H464 C461 0.929 . S
S465 N466 1.613 . S
S465 N467 1.610 . S
N466 S465 1.613 . S
N466 C469 1.350 . S
N467 S465 1.610 . S
N467 C468 1.351 . S
C468 C462 1.428 1_655 S
C468 N467 1.351 . S
C468 C469 1.434 . S
C469 C460 1.429 1_655 S
C469 N466 1.350 . S
C469 C468 1.434 . S
C470 C471 1.369 . S
C470 C472 1.419 . S
C470 H474 0.930 1_455 S
C471 C470 1.369 . S
C471 C480 1.429 . S
C472 C470 1.419 . S
C472 C473 1.363 . S
C472 H475 0.929 . S
C473 C472 1.363 . S
C473 C479 1.428 . S
H474 C470 0.930 1_655 S
H475 C472 0.929 . S
S476 N477 1.613 . S
S476 N478 1.610 . S
N477 S476 1.613 . S
N477 C480 1.350 . S
N478 S476 1.610 . S
N478 C479 1.351 . S
C479 C473 1.428 . S
C479 N478 1.351 . S
C479 C480 1.434 . S
C480 C471 1.429 . S
C480 N477 1.350 . S
C480 C479 1.434 . S
C481 C482 1.369 . S
C481 C483 1.419 . S
C481 H485 0.930 . S
C482 C481 1.369 . S
C482 C491 1.429 . S
C483 C481 1.419 . S
C483 C484 1.363 . S
C483 H486 0.929 . S
C484 C483 1.363 . S
C484 C490 1.428 . S
H485 C481 0.930 . S
H486 C483 0.929 . S
S487 N488 1.613 . S
S487 N489 1.610 . S
N488 S487 1.613 . S
N488 C491 1.350 . S
N489 S487 1.610 . S
N489 C490 1.351 . S
C490 C484 1.428 . S
C490 N489 1.351 . S
C490 C491 1.434 . S
C491 C482 1.429 . S
C491 N488 1.350 . S
C491 C490 1.434 . S
C492 C493 1.369 . S
C492 C494 1.419 . S
C492 H496 0.930 . S
C493 C492 1.369 . S
C493 C502 1.429 . S
C494 C492 1.419 . S
C494 C495 1.363 . S
C494 H497 0.929 . S
C495 C494 1.363 . S
C495 C501 1.428 . S
H496 C492 0.930 . S
H497 C494 0.929 . S
S498 N499 1.613 . S
S498 N500 1.610 . S
N499 S498 1.613 . S
N499 C502 1.350 . S
N500 S498 1.610 . S
N500 C501 1.351 . S
C501 C495 1.428 . S
C501 N500 1.351 . S
C501 C502 1.434 . S
C502 C493 1.429 . S
C502 N499 1.350 . S
C502 C501 1.434 . S
C503 C504 1.369 1_455 S
C503 C505 1.419 1_455 S
C503 H507 0.930 . S
C504 C503 1.369 1_655 S
C504 C513 1.429 . S
C505 C503 1.419 1_655 S
C505 C506 1.363 . S
C505 H508 0.931 . S
C506 C505 1.363 . S
C506 C512 1.428 . S
H507 C503 0.930 . S
H508 C505 0.931 . S
S509 N510 1.613 . S
S509 N511 1.610 . S
N510 S509 1.613 . S
N510 C513 1.350 . S
N511 S509 1.610 . S
N511 C512 1.351 . S
C512 C506 1.428 . S
C512 N511 1.351 . S
C512 C513 1.434 . S
C513 C504 1.429 . S
C513 N510 1.350 . S
C513 C512 1.434 . S
C514 C515 1.369 . S
C514 C516 1.419 . S
C514 H518 0.930 . S
C515 C514 1.369 . S
C515 C524 1.429 . S
C516 C514 1.419 . S
C516 C517 1.363 . S
C516 H519 0.929 . S
C517 C516 1.363 . S
C517 C523 1.428 . S
H518 C514 0.930 . S
H519 C516 0.929 . S
S520 N521 1.613 . S
S520 N522 1.610 . S
N521 S520 1.613 . S
N521 C524 1.350 . S
N522 S520 1.610 . S
N522 C523 1.351 . S
C523 C517 1.428 . S
C523 N522 1.351 . S
C523 C524 1.434 . S
C524 C515 1.429 . S
C524 N521 1.350 . S
C524 C523 1.434 . S
C525 C526 1.369 . S
C525 C527 1.419 . S
C525 H529 0.930 . S
C526 C525 1.369 . S
C526 C535 1.429 . S
C527 C525 1.419 . S
C527 C528 1.363 1_554 S
C527 H530 0.929 . S
C528 C527 1.363 1_556 S
C528 C534 1.428 . S
H529 C525 0.930 . S
H530 C527 0.929 . S
S531 N532 1.613 1_556 S
S531 N533 1.610 . S
N532 S531 1.613 1_554 S
N532 C535 1.350 . S
N533 S531 1.610 . S
N533 C534 1.351 . S
C534 C528 1.428 . S
C534 N533 1.351 . S
C534 C535 1.434 1_556 S
C535 C526 1.429 . S
C535 N532 1.350 . S
C535 C534 1.434 1_554 S
C536 C537 1.369 . S
C536 C538 1.419 . S
C536 H540 0.930 . S
C537 C536 1.369 . S
C537 C546 1.429 . S
C538 C536 1.419 . S
C538 C539 1.363 . S
C538 H541 0.929 . S
C539 C538 1.363 . S
C539 C545 1.428 . S
H540 C536 0.930 . S
H541 C538 0.929 . S
S542 N543 1.613 . S
S542 N544 1.610 . S
N543 S542 1.613 . S
N543 C546 1.350 . S
N544 S542 1.610 . S
N544 C545 1.351 . S
C545 C539 1.428 . S
C545 N544 1.351 . S
C545 C546 1.434 . S
C546 C537 1.429 . S
C546 N543 1.350 . S
C546 C545 1.434 . S
C547 C548 1.369 . S
C547 C549 1.419 . S
C547 H551 0.930 . S
C548 C547 1.369 . S
C548 C557 1.429 . S
C549 C547 1.419 . S
C549 C550 1.363 . S
C549 H552 0.929 . S
C550 C549 1.363 . S
C550 C556 1.428 . S
H551 C547 0.930 . S
H552 C549 0.929 . S
S553 N554 1.613 . S
S553 N555 1.610 . S
N554 S553 1.613 . S
N554 C557 1.350 . S
N555 S553 1.610 . S
N555 C556 1.351 . S
C556 C550 1.428 . S
C556 N555 1.351 . S
C556 C557 1.434 . S
C557 C548 1.429 . S
C557 N554 1.350 . S
C557 C556 1.434 . S
C558 C559 1.369 . S
C558 C560 1.419 . S
C558 H562 0.930 . S
C559 C558 1.369 . S
C559 C568 1.429 . S
C560 C558 1.419 . S
C560 C561 1.363 . S
C560 H563 0.929 . S
C561 C560 1.363 . S
C561 C567 1.428 . S
H562 C558 0.930 . S
H563 C560 0.929 . S
S564 N565 1.613 . S
S564 N566 1.610 . S
N565 S564 1.613 . S
N565 C568 1.350 . S
N566 S564 1.610 . S
N566 C567 1.351 . S
C567 C561 1.428 . S
C567 N566 1.351 . S
C567 C568 1.434 . S
C568 C559 1.429 . S
C568 N565 1.350 . S
C568 C567 1.434 . S
C569 C570 1.369 . S
C569 C571 1.419 . S
C569 H573 0.930 . S
C570 C569 1.369 . S
C570 C579 1.429 . S
C571 C569 1.419 . S
C571 C572 1.363 . S
C571 H574 0.929 . S
C572 C571 1.363 . S
C572 C578 1.428 . S
H573 C569 0.930 . S
H574 C571 0.929 . S
S575 N576 1.613 . S
S575 N577 1.610 . S
N576 S575 1.613 . S
N576 C579 1.350 . S
N577 S575 1.610 . S
N577 C578 1.351 . S
C578 C572 1.428 . S
C578 N577 1.351 . S
C578 C579 1.434 . S
C579 C570 1.429 . S
C579 N576 1.350 . S
C579 C578 1.434 . S
C580 C581 1.369 . S
C580 C582 1.419 . S
C580 H584 0.930 . S
C581 C580 1.369 . S
C581 C590 1.429 . S
C582 C580 1.419 . S
C582 C583 1.363 . S
C582 H585 0.929 . S
C583 C582 1.363 . S
C583 C589 1.428 . S
H584 C580 0.930 . S
H585 C582 0.929 . S
S586 N587 1.613 . S
S586 N588 1.610 . S
N587 S586 1.613 . S
N587 C590 1.350 . S
N588 S586 1.610 . S
N588 C589 1.351 . S
C589 C583 1.428 . S
C589 N588 1.351 . S
C589 C590 1.434 . S
C590 C581 1.429 . S
C590 N587 1.350 . S
C590 C589 1.434 . S
C591 C592 1.369 . S
C591 C593 1.419 . S
C591 H595 0.930 . S
C592 C591 1.369 . S
C592 C601 1.429 . S
C593 C591 1.419 . S
C593 C594 1.363 . S
C593 H596 0.929 . S
C594 C593 1.363 . S
C594 C600 1.428 . S
H595 C591 0.930 . S
H596 C593 0.929 . S
S597 N598 1.613 . S
S597 N599 1.610 . S
N598 S597 1.613 . S
N598 C601 1.350 . S
N599 S597 1.610 . S
N599 C600 1.351 . S
C600 C594 1.428 . S
C600 N599 1.351 . S
C600 C601 1.434 . S
C601 C592 1.429 . S
C601 N598 1.350 . S
C601 C600 1.434 . S
C602 C603 1.369 . S
C602 C604 1.419 . S
C602 H606 0.930 . S
C603 C602 1.369 . S
C603 C612 1.429 . S
C604 C602 1.419 . S
C604 C605 1.363 . S
C604 H607 0.929 . S
C605 C604 1.363 . S
C605 C611 1.428 . S
H606 C602 0.930 . S
H607 C604 0.929 . S
S608 N609 1.613 . S
S608 N610 1.610 . S
N609 S608 1.613 . S
N609 C612 1.350 . S
N610 S608 1.610 . S
N610 C611 1.351 . S
C611 C605 1.428 . S
C611 N610 1.351 . S
C611 C612 1.434 . S
C612 C603 1.429 . S
C612 N609 1.350 . S
C612 C611 1.434 . S
C613 C614 1.369 . S
C613 C615 1.419 . S
C613 H617 0.930 . S
C614 C613 1.369 . S
C614 C623 1.429 . S
C615 C613 1.419 . S
C615 C616 1.363 . S
C615 H618 0.929 . S
C616 C615 1.363 . S
C616 C622 1.428 . S
H617 C613 0.930 . S
H618 C615 0.929 . S
S619 N620 1.613 1_565 S
S619 N621 1.610 . S
N620 S619 1.613 1_545 S
N620 C623 1.350 1_545 S
N621 S619 1.610 . S
N621 C622 1.351 . S
C622 C616 1.428 . S
C622 N621 1.351 . S
C622 C623 1.434 . S
C623 C614 1.429 . S
C623 N620 1.350 1_565 S
C623 C622 1.434 . S
C624 C625 1.369 . S
C624 C626 1.419 . S
C624 H628 0.930 . S
C625 C624 1.369 . S
C625 C634 1.429 . S
C626 C624 1.419 . S
C626 C627 1.363 . S
C626 H629 0.929 . S
C627 C626 1.363 . S
C627 C633 1.428 . S
H628 C624 0.930 . S
H629 C626 0.929 . S
S630 N631 1.613 . S
S630 N632 1.610 . S
N631 S630 1.613 . S
N631 C634 1.350 . S
N632 S630 1.610 . S
N632 C633 1.351 . S
C633 C627 1.428 . S
C633 N632 1.351 . S
C633 C634 1.434 . S
C634 C625 1.429 . S
C634 N631 1.350 . S
C634 C633 1.434 . S
C635 C636 1.369 . S
C635 C637 1.419 . S
C635 H639 0.930 . S
C636 C635 1.369 . S
C636 C645 1.429 . S
C637 C635 1.419 . S
C637 C638 1.363 . S
C637 H640 0.929 . S
C638 C637 1.363 . S
C638 C644 1.428 . S
H639 C635 0.930 . S
H640 C637 0.929 . S
S641 N642 1.613 . S
S641 N643 1.610 . S
N642 S641 1.613 . S
N642 C645 1.350 . S
N643 S641 1.610 . S
N643 C644 1.351 . S
C644 C638 1.428 . S
C644 N643 1.351 . S
C644 C645 1.434 . S
C645 C636 1.429 . S
C645 N642 1.350 . S
C645 C644 1.434 . S
C646 C647 1.369 . S
C646 C648 1.419 . S
C646 H650 0.930 . S
C647 C646 1.369 . S
C647 C656 1.429 . S
C648 C646 1.419 . S
C648 C649 1.363 . S
C648 H651 0.929 . S
C649 C648 1.363 . S
C649 C655 1.428 . S
H650 C646 0.930 . S
H651 C648 0.929 . S
S652 N653 1.613 . S
S652 N654 1.610 . S
N653 S652 1.613 . S
N653 C656 1.350 . S
N654 S652 1.610 . S
N654 C655 1.351 . S
C655 C649 1.428 . S
C655 N654 1.351 . S
C655 C656 1.434 . S
C656 C647 1.429 . S
C656 N653 1.350 . S
C656 C655 1.434 . S
C657 C658 1.369 . S
C657 C659 1.419 . S
C657 H661 0.930 . S
C658 C657 1.369 . S
C658 C667 1.429 . S
C659 C657 1.419 . S
C659 C660 1.363 . S
C659 H662 0.929 . S
C660 C659 1.363 . S
C660 C666 1.428 . S
H661 C657 0.930 . S
H662 C659 0.929 . S
S663 N664 1.613 . S
S663 N665 1.610 . S
N664 S663 1.613 . S
N664 C667 1.350 . S
N665 S663 1.610 . S
N665 C666 1.351 . S
C666 C660 1.428 . S
C666 N665 1.351 . S
C666 C667 1.434 . S
C667 C658 1.429 . S
C667 N664 1.350 . S
C667 C666 1.434 . S
C668 C669 1.369 . S
C668 C670 1.419 . S
C668 H672 0.930 . S
C669 C668 1.369 . S
C669 C678 1.429 . S
C670 C668 1.419 . S
C670 C671 1.363 . S
C670 H673 0.929 . S
C671 C670 1.363 . S
C671 C677 1.428 . S
H672 C668 0.930 . S
H673 C670 0.929 . S
S674 N675 1.613 . S
S674 N676 1.610 . S
N675 S674 1.613 . S
N675 C678 1.350 . S
N676 S674 1.610 . S
N676 C677 1.351 . S
C677 C671 1.428 . S
C677 N676 1.351 . S
C677 C678 1.434 . S
C678 C669 1.429 . S
C678 N675 1.350 . S
C678 C677 1.434 . S
C679 C680 1.369 . S
C679 C681 1.419 . S
C679 H683 0.930 . S
C680 C679 1.369 . S
C680 C689 1.429 . S
C681 C679 1.419 . S
C681 C682 1.363 . S
C681 H684 0.929 . S
C682 C681 1.363 . S
C682 C688 1.428 . S
H683 C679 0.930 . S
H684 C681 0.929 . S
S685 N686 1.613 . S
S685 N687 1.610 . S
N686 S685 1.613 . S
N686 C689 1.350 . S
N687 S685 1.610 . S
N687 C688 1.351 . S
C688 C682 1.428 . S
C688 N687 1.351 . S
C688 C689 1.434 . S
C689 C680 1.429 . S
C689 N686 1.350 . S
C689 C688 1.434 . S
C690 C691 1.369 . S
C690 C692 1.419 . S
C690 H694 0.930 . S
C691 C690 1.369 . S
C691 C700 1.429 . S
C692 C690 1.419 . S
C692 C693 1.363 1_455 S
C692 H695 0.929 1_455 S
C693 C692 1.363 1_655 S
C693 C699 1.428 1_655 S
H694 C690 0.930 . S
H695 C692 0.929 1_655 S
S696 N697 1.613 . S
S696 N698 1.610 . S
N697 S696 1.613 . S
N697 C700 1.350 . S
N698 S696 1.610 . S
N698 C699 1.351 . S
C699 C693 1.428 1_455 S
C699 N698 1.351 . S
C699 C700 1.434 . S
C700 C691 1.429 . S
C700 N697 1.350 . S
C700 C699 1.434 . S
C701 C702 1.369 . S
C701 C703 1.419 . S
C701 H705 0.930 . S
C702 C701 1.369 . S
C702 C711 1.429 . S
C703 C701 1.419 . S
C703 C704 1.363 . S
C703 H706 0.929 . S
C704 C703 1.363 . S
C704 C710 1.428 . S
H705 C701 0.930 . S
H706 C703 0.929 . S
S707 N708 1.613 . S
S707 N709 1.610 . S
N708 S707 1.613 . S
N708 C711 1.350 . S
N709 S707 1.610 . S
N709 C710 1.351 . S
C710 C704 1.428 . S
C710 N709 1.351 . S
C710 C711 1.434 . S
C711 C702 1.429 . S
C711 N708 1.350 . S
C711 C710 1.434 . S
C712 C713 1.369 . S
C712 C714 1.419 . S
C712 H716 0.930 . S
C713 C712 1.369 . S
C713 C722 1.429 . S
C714 C712 1.419 . S
C714 C715 1.363 . S
C714 H717 0.929 . S
C715 C714 1.363 . S
C715 C721 1.428 . S
H716 C712 0.930 . S
H717 C714 0.929 . S
S718 N719 1.613 . S
S718 N720 1.610 . S
N719 S718 1.613 . S
N719 C722 1.350 . S
N720 S718 1.610 . S
N720 C721 1.351 . S
C721 C715 1.428 . S
C721 N720 1.351 . S
C721 C722 1.434 . S
C722 C713 1.429 . S
C722 N719 1.350 . S
C722 C721 1.434 . S
C723 C724 1.369 . S
C723 C725 1.419 . S
C723 H727 0.930 . S
C724 C723 1.369 . S
C724 C733 1.429 . S
C725 C723 1.419 . S
C725 C726 1.363 . S
C725 H728 0.929 . S
C726 C725 1.363 . S
C726 C732 1.428 . S
H727 C723 0.930 . S
H728 C725 0.929 . S
S729 N730 1.613 . S
S729 N731 1.610 . S
N730 S729 1.613 . S
N730 C733 1.350 . S
N731 S729 1.610 . S
N731 C732 1.351 . S
C732 C726 1.428 . S
C732 N731 1.351 . S
C732 C733 1.434 . S
C733 C724 1.429 . S
C733 N730 1.350 . S
C733 C732 1.434 . S
C734 C735 1.369 . S
C734 C736 1.419 . S
C734 H738 0.930 . S
C735 C734 1.369 . S
C735 C744 1.429 . S
C736 C734 1.419 . S
C736 C737 1.363 . S
C736 H739 0.929 . S
C737 C736 1.363 . S
C737 C743 1.428 . S
H738 C734 0.930 . S
H739 C736 0.929 . S
S740 N741 1.613 . S
S740 N742 1.610 . S
N741 S740 1.613 . S
N741 C744 1.350 . S
N742 S740 1.610 . S
N742 C743 1.351 . S
C743 C737 1.428 . S
C743 N742 1.351 . S
C743 C744 1.434 . S
C744 C735 1.429 . S
C744 N741 1.350 . S
C744 C743 1.434 . S
C745 C746 1.369 . S
C745 C747 1.419 . S
C745 H749 0.930 1_545 S
C746 C745 1.369 . S
C746 C755 1.429 . S
C747 C745 1.419 . S
C747 C748 1.363 . S
C747 H750 0.929 1_655 S
C748 C747 1.363 . S
C748 C754 1.428 . S
H749 C745 0.930 1_565 S
H750 C747 0.929 1_455 S
S751 N752 1.613 . S
S751 N753 1.610 . S
N752 S751 1.613 . S
N752 C755 1.350 . S
N753 S751 1.610 . S
N753 C754 1.351 . S
C754 C748 1.428 . S
C754 N753 1.351 . S
C754 C755 1.434 . S
C755 C746 1.429 . S
C755 N752 1.350 . S
C755 C754 1.434 . S
C361 N6 1.667 . S
C363 N336 1.611 . S
C372 C271 2.315 . S
C374 C31 2.321 1_655 S
C383 N66 2.146 . S
C385 C241 2.243 . S
C394 C91 2.296 . S
C396 C301 2.287 . S
C405 N126 1.343 . S
C407 N306 1.439 . S
C416 N156 1.712 . S
C418 C331 1.748 . S
C427 N276 1.855 1_554 S
C429 C181 1.954 1_556 S
C438 N216 0.948 . S
C440 N246 0.867 . S
C449 N96 1.647 . S
C451 C121 1.701 . S
C460 C1 2.457 . S
C462 C151 2.500 1_455 S
C471 N36 0.879 . S
C473 N186 0.812 . S
C482 C211 2.382 . S
C484 C61 2.379 . S
C493 C16 1.214 . S
C495 C250 1.224 . S
C504 C57 1.576 1_655 S
C506 C310 1.513 . S
C515 N344 1.056 . S
C517 C76 0.992 . S
C526 C117 1.830 . S
C528 C280 1.845 . S
C537 C136 1.013 . S
C539 N284 1.007 . S
C548 N254 1.069 . S
C550 C166 1.043 . S
C559 N314 1.211 . S
C561 C207 1.215 . S
C570 C340 1.300 . S
C572 C226 1.335 . S
C581 C10 1.706 . S
C583 C106 1.691 . S
C592 C27 1.014 . S
C594 N44 1.022 . S
C603 C46 1.786 . S
C605 C70 1.762 . S
C614 N104 1.266 1_565 S
C616 C87 1.245 . S
C625 C177 1.356 . S
C627 C130 1.352 . S
C636 C160 1.752 . S
C638 C196 1.792 . S
C647 N194 1.116 . S
C649 C237 1.121 . S
C658 C147 1.268 . S
C660 C220 1.245 . S
C669 C256 1.493 . S
C671 C100 1.496 . S
C680 N164 1.439 . S
C682 C297 1.409 . S
C691 C267 1.143 . S
C693 C190 1.110 . S
C702 C327 1.247 . S
C704 N224 1.245 . S
C713 N134 0.680 . S
C715 C346 0.697 . S
C724 C357 0.959 . S
C726 C40 0.971 . S
C735 N74 1.287 . S
C737 C286 1.273 . S
C746 C316 1.292 1_545 S
C748 N14 1.285 1_655 S
