# Generated by pormake.
# Topology unj, (4)-cn, num edge types: 1
# Building blocks:
#     Node 0, Type 0, BuildingBlock: KUFVIS_clean_sbu_0, # of connection points: 4
#     Node 1, Type 0, BuildingBlock: KUFVIS_clean_sbu_0, # of connection points: 4
#     Node 2, Type 0, BuildingBlock: KUFVIS_clean_sbu_0, # of connection points: 4
#     Node 3, Type 0, BuildingBlock: KUFVIS_clean_sbu_0, # of connection points: 4
#     Node 4, Type 0, BuildingBlock: KUFVIS_clean_sbu_0, # of connection points: 4
#     Node 5, Type 0, BuildingBlock: KUFVIS_clean_sbu_0, # of connection points: 4
#     Edge 6, Type (0, 0), BuildingBlock: FUNLAD_clean_linker_0, # of connection points: 2
#     Edge 7, Type (0, 0), BuildingBlock: FUNLAD_clean_linker_0, # of connection points: 2
#     Edge 8, Type (0, 0), BuildingBlock: FUNLAD_clean_linker_0, # of connection points: 2
#     Edge 9, Type (0, 0), BuildingBlock: FUNLAD_clean_linker_0, # of connection points: 2
#     Edge 10, Type (0, 0), BuildingBlock: FUNLAD_clean_linker_0, # of connection points: 2
#     Edge 11, Type (0, 0), BuildingBlock: FUNLAD_clean_linker_0, # of connection points: 2
#     Edge 12, Type (0, 0), BuildingBlock: FUNLAD_clean_linker_0, # of connection points: 2
#     Edge 13, Type (0, 0), BuildingBlock: FUNLAD_clean_linker_0, # of connection points: 2
#     Edge 14, Type (0, 0), BuildingBlock: FUNLAD_clean_linker_0, # of connection points: 2
#     Edge 15, Type (0, 0), BuildingBlock: FUNLAD_clean_linker_0, # of connection points: 2
#     Edge 16, Type (0, 0), BuildingBlock: FUNLAD_clean_linker_0, # of connection points: 2
#     Edge 17, Type (0, 0), BuildingBlock: FUNLAD_clean_linker_0, # of connection points: 2
# Relax obj value: 0.013
# Max RMSD: 0.053
# Mean RMSD: 0.053
data_MOF--net-unj--node1-KUFVIS_clean_sbu_0--edge1-FUNLAD_clean_linker_0
_symmetry_space_group_name_H-M    P1
_symmetry_Int_Tables_number       1
_symmetry_cell_setting            triclinic
loop_
_symmetry_equiv_pos_as_xyz
'x, y, z'
_cell_length_a     38.539182
_cell_length_b     38.444734
_cell_length_c     41.003124
_cell_angle_alpha  89.922286
_cell_angle_beta   90.328155
_cell_angle_gamma 120.03967
loop_
_atom_site_label
_atom_site_type_symbol
_atom_site_fract_x
_atom_site_fract_y
_atom_site_fract_z
_atom_type_partial_charge
Mn0 Mn 0.49934 0.24691 0.60137 0.0
Mn1 Mn 0.57674 0.23217 0.58496 0.0
C2 C 0.52507 0.22336 0.64159 0.0
C3 C 0.47472 0.28825 0.61855 0.0
C4 C 0.49146 0.17581 0.56187 0.0
O5 O 0.52265 0.27948 0.55961 0.0
O6 O 0.5761 0.27106 0.55346 0.0
C7 C 0.64397 0.31341 0.60072 0.0
N8 N 0.62448 0.27294 0.60554 0.0
C9 C 0.67414 0.27912 0.64456 0.0
C10 C 0.69492 0.32084 0.63981 0.0
C11 C 0.67967 0.33805 0.61788 0.0
C12 C 0.63872 0.25609 0.62677 0.0
H13 H 0.63231 0.32679 0.58397 0.0
C14 C 0.5549 0.28682 0.54509 0.0
O15 O 0.45334 0.25696 0.60036 0.0
O16 O 0.51071 0.29613 0.62596 0.0
N17 N 0.58109 0.19568 0.61422 0.0
C18 C 0.55611 0.15534 0.61756 0.0
C19 C 0.56622 0.13374 0.63955 0.0
C20 C 0.60202 0.15375 0.65765 0.0
C21 C 0.62739 0.19522 0.65362 0.0
C22 C 0.6158 0.21515 0.6313 0.0
H23 H 0.52861 0.13979 0.60365 0.0
O24 O 0.48882 0.21715 0.64391 0.0
O25 O 0.54467 0.24272 0.61587 0.0
O26 O 0.47568 0.19426 0.57557 0.0
O27 O 0.52898 0.18803 0.56324 0.0
C28 C 0.66343 0.21766 0.67122 0.0
C29 C 0.68679 0.25959 0.6667 0.0
H30 H 0.7224 0.33996 0.65309 0.0
H31 H 0.6954 0.37025 0.61423 0.0
H32 H 0.54645 0.10175 0.64256 0.0
H33 H 0.6096 0.13703 0.67473 0.0
H34 H 0.67316 0.20309 0.68868 0.0
H35 H 0.71411 0.27661 0.68076 0.0
Mn36 Mn 0.26067 0.48892 0.76136 0.0
Mn37 Mn 0.34879 0.57179 0.74365 0.0
C38 C 0.30837 0.5217 0.8018 0.0
C39 C 0.19363 0.45901 0.77693 0.0
C40 C 0.32915 0.4875 0.72519 0.0
O41 O 0.24919 0.50689 0.7176 0.0
O42 O 0.30825 0.56409 0.71015 0.0
C43 C 0.3251 0.63324 0.75402 0.0
N44 N 0.3494 0.61805 0.76141 0.0
C45 C 0.38621 0.6706 0.80062 0.0
C46 C 0.36173 0.68695 0.79329 0.0
C47 C 0.33099 0.66814 0.76994 0.0
C48 C 0.37901 0.63585 0.78389 0.0
H49 H 0.30133 0.61877 0.73619 0.0
C50 C 0.27217 0.53878 0.70159 0.0
O51 O 0.20712 0.43893 0.76125 0.0
O52 O 0.21886 0.49658 0.78284 0.0
N53 N 0.39035 0.58266 0.77467 0.0
C54 C 0.40996 0.56193 0.78009 0.0
C55 C 0.44107 0.57628 0.80329 0.0
C56 C 0.45179 0.61184 0.82055 0.0
C57 C 0.43135 0.63279 0.81439 0.0
C58 C 0.40085 0.61724 0.79078 0.0
H59 H 0.40183 0.53458 0.7669 0.0
O60 O 0.28101 0.48431 0.80548 0.0
O61 O 0.30692 0.53824 0.77465 0.0
O62 O 0.29494 0.46905 0.73889 0.0
O63 O 0.35126 0.52573 0.72491 0.0
C64 C 0.43956 0.6681 0.83116 0.0
C65 C 0.41695 0.68694 0.82433 0.0
H66 H 0.36603 0.71373 0.80564 0.0
H67 H 0.31184 0.68046 0.76427 0.0
H68 H 0.45666 0.5599 0.80794 0.0
H69 H 0.47552 0.62258 0.83866 0.0
H70 H 0.4628 0.68068 0.84971 0.0
H71 H 0.42315 0.71373 0.83773 0.0
Mn72 Mn 0.785 0.26214 0.93217 0.0
Mn73 Mn 0.79177 0.35187 0.91726 0.0
C74 C 0.80229 0.30901 0.97364 0.0
C75 C 0.74809 0.19445 0.94701 0.0
C76 C 0.85593 0.33262 0.89757 0.0
O77 O 0.75441 0.25195 0.88909 0.0
O78 O 0.7603 0.31294 0.88232 0.0
C79 C 0.70621 0.32675 0.92618 0.0
N80 N 0.74546 0.35135 0.93424 0.0
C81 C 0.72856 0.38834 0.97201 0.0
C82 C 0.68796 0.36354 0.96399 0.0
C83 C 0.67674 0.33252 0.94107 0.0
C84 C 0.75655 0.38105 0.95647 0.0
H85 H 0.69749 0.30293 0.90853 0.0
C86 C 0.74788 0.27672 0.87319 0.0
O87 O 0.78097 0.20834 0.9304 0.0
O88 O 0.73618 0.21965 0.9542 0.0
N89 N 0.82132 0.39267 0.94908 0.0
C90 C 0.86154 0.4128 0.95509 0.0
C91 C 0.87761 0.44423 0.97798 0.0
C92 C 0.85228 0.455 0.9941 0.0
C93 C 0.81109 0.43424 0.98714 0.0
C94 C 0.79679 0.40319 0.9641 0.0
H95 H 0.88117 0.40482 0.9426 0.0
O96 O 0.81174 0.28109 0.9758 0.0
O97 O 0.78305 0.30864 0.94741 0.0
O98 O 0.83858 0.2968 0.90869 0.0
O99 O 0.84096 0.3556 0.89959 0.0
C100 C 0.78359 0.44283 1.00244 0.0
C101 C 0.74232 0.41973 0.99504 0.0
H102 H 0.66513 0.3679 0.97542 0.0
H103 H 0.64545 0.31316 0.93485 0.0
H104 H 0.90945 0.46015 0.98318 0.0
H105 H 0.86476 0.47913 0.01186 0.0
H106 H 0.79378 0.46672 0.02033 0.0
H107 H 0.72139 0.42617 1.00741 0.0
Mn108 Mn 0.53198 0.7777 0.09468 0.0
Mn109 Mn 0.45109 0.78633 0.0764 0.0
C110 C 0.49931 0.79227 0.1351 0.0
C111 C 0.55845 0.73707 0.11037 0.0
C112 C 0.53638 0.85102 0.06087 0.0
O113 O 0.51471 0.75028 0.0502 0.0
O114 O 0.45941 0.75525 0.04178 0.0
C115 C 0.38837 0.70082 0.08258 0.0
N116 N 0.40378 0.73991 0.09165 0.0
C117 C 0.34978 0.72235 0.12926 0.0
C118 C 0.3332 0.68193 0.12016 0.0
C119 C 0.35262 0.67113 0.09677 0.0
C120 C 0.38535 0.75064 0.11416 0.0
H121 H 0.4033 0.69236 0.06472 0.0
C122 C 0.48393 0.74354 0.03338 0.0
O123 O 0.58053 0.77125 0.09582 0.0
O124 O 0.52124 0.72646 0.11503 0.0
N125 N 0.43954 0.8154 0.10829 0.0
C126 C 0.4606 0.85532 0.11564 0.0
C127 C 0.44581 0.87087 0.13929 0.0
C128 C 0.40947 0.84529 0.15501 0.0
C129 C 0.38817 0.80437 0.14684 0.0
C130 C 0.4042 0.79065 0.12287 0.0
H131 H 0.48859 0.87511 0.10368 0.0
O132 O 0.53625 0.80116 0.13929 0.0
O133 O 0.48307 0.77557 0.10745 0.0
O134 O 0.55401 0.83336 0.07325 0.0
O135 O 0.49831 0.83565 0.06059 0.0
C136 C 0.35203 0.77654 0.16198 0.0
C137 C 0.33288 0.73555 0.15322 0.0
H138 H 0.30577 0.6589 0.1312 0.0
H139 H 0.34013 0.63997 0.08976 0.0
H140 H 0.46246 0.90248 0.1455 0.0
H141 H 0.39838 0.85732 0.17349 0.0
H142 H 0.33902 0.78624 0.18072 0.0
H143 H 0.30542 0.71435 0.16536 0.0
Mn144 Mn 0.76971 0.53055 0.26478 0.0
Mn145 Mn 0.67684 0.45389 0.24752 0.0
C146 C 0.72245 0.50035 0.30568 0.0
C147 C 0.83643 0.55509 0.28032 0.0
C148 C 0.70382 0.54064 0.23115 0.0
O149 O 0.77741 0.51089 0.22055 0.0
O150 O 0.71429 0.45961 0.21221 0.0
C151 C 0.69342 0.38674 0.25268 0.0
N152 N 0.67243 0.40471 0.26244 0.0
C153 C 0.63417 0.35141 0.30042 0.0
C154 C 0.65521 0.33222 0.29064 0.0
C155 C 0.685 0.35001 0.26671 0.0
C156 C 0.64371 0.38787 0.28545 0.0
H157 H 0.71646 0.40039 0.2344 0.0
C158 C 0.75098 0.48148 0.20365 0.0
O159 O 0.82549 0.57742 0.26464 0.0
O160 O 0.80896 0.51821 0.2859 0.0
N161 N 0.638 0.44508 0.28019 0.0
C162 C 0.62208 0.46857 0.28816 0.0
C163 C 0.59259 0.45563 0.3124 0.0
C164 C 0.57969 0.41866 0.32807 0.0
C165 C 0.59633 0.39489 0.31929 0.0
C166 C 0.62536 0.40918 0.29477 0.0
H167 H 0.63197 0.49704 0.27623 0.0
O168 O 0.75194 0.53685 0.30937 0.0
O169 O 0.72122 0.48341 0.27806 0.0
O170 O 0.73919 0.55552 0.24292 0.0
O171 O 0.67817 0.50311 0.2318 0.0
C172 C 0.58579 0.35795 0.33433 0.0
C173 C 0.60472 0.33624 0.32492 0.0
H174 H 0.64899 0.30401 0.30155 0.0
H175 H 0.70151 0.33547 0.25916 0.0
H176 H 0.57995 0.47418 0.31908 0.0
H177 H 0.55724 0.40898 0.34699 0.0
H178 H 0.56358 0.34623 0.35349 0.0
H179 H 0.59676 0.30815 0.33698 0.0
Mn180 Mn 0.24986 0.76551 0.43094 0.0
Mn181 Mn 0.2378 0.67392 0.41619 0.0
C182 C 0.23035 0.71841 0.47254 0.0
C183 C 0.29255 0.8327 0.44539 0.0
C184 C 0.17929 0.70014 0.39297 0.0
O185 O 0.27918 0.7728 0.38771 0.0
O186 O 0.27655 0.7129 0.38468 0.0
C187 C 0.31899 0.68942 0.43365 0.0
N188 N 0.27858 0.66818 0.43809 0.0
C189 C 0.28515 0.62753 0.47964 0.0
C190 C 0.32681 0.64874 0.4753 0.0
C191 C 0.34379 0.67989 0.45226 0.0
C192 C 0.26194 0.63831 0.46032 0.0
H193 H 0.33219 0.71357 0.41613 0.0
C194 C 0.28917 0.74887 0.37468 0.0
O195 O 0.25946 0.82171 0.42935 0.0
O196 O 0.3009 0.80483 0.45248 0.0
N197 N 0.20137 0.63387 0.44583 0.0
C198 C 0.161 0.61805 0.44847 0.0
C199 C 0.13953 0.58725 0.4711 0.0
C200 C 0.15973 0.57294 0.49068 0.0
C201 C 0.20126 0.58956 0.48743 0.0
C202 C 0.22102 0.61999 0.4643 0.0
H203 H 0.14529 0.62886 0.43346 0.0
O204 O 0.22388 0.74834 0.47506 0.0
O205 O 0.24774 0.71737 0.44596 0.0
O206 O 0.19543 0.73385 0.40785 0.0
O207 O 0.19384 0.67665 0.39316 0.0
C208 C 0.22392 0.5777 0.50671 0.0
C209 C 0.26585 0.59675 0.50289 0.0
H210 H 0.34606 0.64165 0.48974 0.0
H211 H 0.37594 0.69659 0.44893 0.0
H212 H 0.10749 0.57463 0.47351 0.0
H213 H 0.14312 0.54944 0.50831 0.0
H214 H 0.20948 0.55441 0.52493 0.0
H215 H 0.28303 0.58785 0.51826 0.0
C216 C 0.48138 0.11735 0.52749 0.0
C217 C 0.46498 0.13765 0.54422 0.0
C218 C 0.45656 0.08067 0.51193 0.0
C219 C 0.41455 0.06302 0.51302 0.0
C220 C 0.39822 0.08385 0.52892 0.0
C221 C 0.42306 0.12064 0.54441 0.0
C222 C 0.38692 0.02318 0.49786 0.0
C223 C 0.39737 0.99503 0.4924 0.0
C224 C 0.36972 0.954 0.47932 0.0
C225 C 0.37992 0.92407 0.48424 0.0
C226 C 0.35503 0.88496 0.47293 0.0
C227 C 0.3193 0.87474 0.45613 0.0
H228 H 0.32575 0.96634 0.45675 0.0
C229 C 0.30929 0.90474 0.45051 0.0
C230 C 0.33426 0.94403 0.46192 0.0
H231 H 0.28207 0.89785 0.43745 0.0
H232 H 0.51352 0.1297 0.52642 0.0
H233 H 0.4706 0.06657 0.49892 0.0
H234 H 0.36603 0.07128 0.52989 0.0
H235 H 0.40929 0.13543 0.55689 0.0
H236 H 0.35632 0.01609 0.49319 0.0
H237 H 0.42699 1.00112 0.49974 0.0
H238 H 0.40713 0.93081 0.49728 0.0
H239 H 0.36378 0.86266 0.4776 0.0
C240 C 0.42448 0.31158 0.61758 0.0
C241 C 0.45805 0.31242 0.63202 0.0
C242 C 0.40777 0.3331 0.63145 0.0
C243 C 0.42391 0.35517 0.66037 0.0
C244 C 0.45729 0.3558 0.67482 0.0
C245 C 0.47457 0.33513 0.66055 0.0
C246 C 0.40553 0.37632 0.67676 0.0
C247 C 0.39051 0.39612 0.66024 0.0
C248 C 0.37418 0.41889 0.67709 0.0
C249 C 0.38295 0.45655 0.66503 0.0
C250 C 0.36863 0.479 0.6809 0.0
C251 C 0.34417 0.46358 0.70854 0.0
H252 H 0.34187 0.37403 0.71419 0.0
C253 C 0.33443 0.42534 0.7201 0.0
C254 C 0.34966 0.40335 0.70472 0.0
H255 H 0.31562 0.41274 0.74134 0.0
H256 H 0.41105 0.29417 0.59565 0.0
H257 H 0.38158 0.3315 0.62007 0.0
H258 H 0.4701 0.37241 0.6972 0.0
H259 H 0.50021 0.33604 0.6724 0.0
H260 H 0.40684 0.3779 0.70325 0.0
H261 H 0.39304 0.39829 0.63383 0.0
H262 H 0.40155 0.46898 0.64364 0.0
H263 H 0.37631 0.50824 0.67129 0.0
C264 C 0.91511 0.32637 0.87969 0.0
C265 C 0.89565 0.34899 0.88169 0.0
C266 C 0.95293 0.34256 0.8652 0.0
C267 C 0.972 0.38173 0.85216 0.0
C268 C 0.95243 0.40414 0.85418 0.0
C269 C 0.91483 0.38806 0.86865 0.0
C270 C 1.01284 0.40135 0.83764 0.0
C271 C 0.03177 0.38175 0.82776 0.0
C272 C 0.07309 0.40263 0.81406 0.0
C273 C 0.08552 0.38084 0.79461 0.0
C274 C 0.12444 0.3992 0.78205 0.0
C275 C 0.15186 0.43976 0.78883 0.0
H276 H 0.09316 0.46089 0.83676 0.0
C277 C 0.13953 0.46158 0.80832 0.0
C278 C 0.10076 0.44324 0.82096 0.0
H279 H 0.16008 0.49275 0.81437 0.0
H280 H 0.90139 0.29628 0.88965 0.0
H281 H 0.96722 0.32451 0.86498 0.0
H282 H 0.96637 0.43444 0.8446 0.0
H283 H 0.90095 0.40654 0.86972 0.0
H284 H 0.02732 0.4336 0.83407 0.0
H285 H 1.01628 0.34918 0.82857 0.0
H286 H 0.06506 0.34946 0.78912 0.0
H287 H 0.1331 0.3815 0.76726 0.0
C288 C 0.60274 0.91142 0.04537 0.0
C289 C 0.56061 0.89168 0.04629 0.0
C290 C 0.62487 0.95008 0.03198 0.0
C291 C 0.60522 0.96973 0.01911 0.0
C292 C 0.56323 0.94987 0.02008 0.0
C293 C 0.54125 0.91148 0.03334 0.0
C294 C 0.62673 1.01137 1.00578 0.0
C295 C 0.66537 0.03097 0.99628 0.0
C296 C 0.68552 0.0728 0.98319 0.0
C297 C 0.71922 0.08593 0.9631 0.0
C298 C 0.73922 0.1252 0.95084 0.0
C299 C 0.72606 0.15231 0.9586 0.0
H300 H 0.64775 0.09196 1.00744 0.0
C301 C 0.6925 0.13929 0.97881 0.0
C302 C 0.67261 0.10016 0.99112 0.0
H303 H 0.6819 0.15956 0.98563 0.0
H304 H 0.61869 0.8972 0.05525 0.0
H305 H 0.65722 0.96458 0.03244 0.0
H306 H 0.54718 0.96419 0.01058 0.0
H307 H 0.50889 0.89751 0.03359 0.0
H308 H 0.60898 0.02588 1.00253 0.0
H309 H 0.68253 0.01561 0.99671 0.0
H310 H 0.73011 0.06573 0.95681 0.0
H311 H 0.76516 0.13438 0.93551 0.0
C312 C 0.65548 0.55189 0.19789 0.0
C313 C 0.69174 0.56789 0.21545 0.0
C314 C 0.6439 0.5771 0.18275 0.0
C315 C 0.66798 0.61918 0.18517 0.0
C316 C 0.70454 0.6352 0.20225 0.0
C317 C 0.7163 0.60992 0.21725 0.0
C318 C 0.65621 0.64708 0.16985 0.0
C319 C 0.61786 0.63611 0.16256 0.0
C320 C 0.60438 0.66317 0.14837 0.0
C321 C 0.56342 0.65076 0.14997 0.0
C322 C 0.54875 0.67459 0.13727 0.0
C323 C 0.57461 0.71156 0.12236 0.0
H324 H 0.66196 0.71027 0.13036 0.0
C325 C 0.61557 0.72391 0.12009 0.0
C326 C 0.63037 0.69994 0.13292 0.0
H327 H 0.63622 0.75217 0.10861 0.0
H328 H 0.63604 0.51971 0.19546 0.0
H329 H 0.61631 0.56322 0.16879 0.0
H330 H 0.72395 0.66744 0.20428 0.0
H331 H 0.74454 0.62336 0.23039 0.0
H332 H 0.6797 0.67796 0.16619 0.0
H333 H 0.59429 0.60607 0.16884 0.0
H334 H 0.54256 0.62252 0.16143 0.0
H335 H 0.517 0.66403 0.13939 0.0
C336 C 0.11236 0.69552 0.38666 0.0
C337 C 0.14141 0.68692 0.37486 0.0
C338 C 0.07562 0.68094 0.37037 0.0
C339 C 0.0677 0.65832 0.34155 0.0
C340 C 0.09726 0.65094 0.32917 0.0
C341 C 0.1335 0.66449 0.34595 0.0
C342 C 0.02889 0.64228 0.32397 0.0
C343 C 0.99368 0.62452 0.33979 0.0
C344 C 0.95436 0.60602 0.3227 0.0
C345 C 0.92224 0.57066 0.33528 0.0
C346 C 0.88435 0.55333 0.32063 0.0
C347 C 0.8775 0.5717 0.29364 0.0
H348 H 0.97195 0.65164 0.28527 0.0
C349 C 0.90963 0.60715 0.28099 0.0
C350 C 0.94786 0.62397 0.29518 0.0
H351 H 0.90515 0.62205 0.26031 0.0
H352 H 0.11767 0.71267 0.40892 0.0
H353 H 0.05353 0.6876 0.38015 0.0
H354 H 0.09191 0.63381 0.3069 0.0
H355 H 0.15548 0.65765 0.3362 0.0
H356 H 0.02917 0.64209 0.29746 0.0
H357 H 0.99355 0.62098 0.36612 0.0
H358 H 0.92646 0.5564 0.35656 0.0
H359 H 0.8601 0.52621 0.33113 0.0
C360 C 0.61014 0.33195 0.50772 0.0
C361 C 0.57024 0.31614 0.51784 0.0
C362 C 0.62548 0.35919 0.48207 0.0
C363 C 0.60117 0.37093 0.46517 0.0
C364 C 0.56162 0.35626 0.47582 0.0
C365 C 0.54623 0.32907 0.50194 0.0
C366 C 0.61687 0.39858 0.43665 0.0
C367 C 0.64551 0.39955 0.41728 0.0
C368 C 0.66397 0.42657 0.38885 0.0
C369 C 0.68625 0.41723 0.36725 0.0
C370 C 0.70512 0.44155 0.34047 0.0
C371 C 0.70207 0.47579 0.33444 0.0
H372 H 0.646 0.47063 0.40001 0.0
C373 C 0.68122 0.48642 0.35649 0.0
C374 C 0.6619 0.46175 0.38344 0.0
H375 H 0.67933 0.51328 0.35257 0.0
H376 H 0.62995 0.32357 0.5198 0.0
H377 H 0.65666 0.3712 0.47579 0.0
H378 H 0.5424 0.36528 0.46358 0.0
H379 H 0.51549 0.31779 0.50933 0.0
H380 H 0.60352 0.41692 0.43096 0.0
H381 H 0.6555 0.37808 0.42176 0.0
H382 H 0.68893 0.39075 0.37095 0.0
H383 H 0.72205 0.43341 0.32427 0.0
C384 C 0.19915 0.67275 0.52067 0.0
C385 C 0.23292 0.69808 0.50199 0.0
C386 C 0.20306 0.65258 0.54779 0.0
C387 C 0.24103 0.65867 0.55687 0.0
C388 C 0.27478 0.68579 0.53903 0.0
C389 C 0.27075 0.70506 0.51178 0.0
C390 C 0.24762 0.63801 0.5847 0.0
C391 C 0.22099 0.60084 0.59522 0.0
C392 C 0.23253 0.58056 0.62042 0.0
C393 C 0.20458 0.55516 0.64363 0.0
C394 C 0.21664 0.53938 0.66936 0.0
C395 C 0.25683 0.54883 0.67208 0.0
H396 H 0.29367 0.60472 0.60343 0.0
C397 C 0.28389 0.57181 0.64752 0.0
C398 C 0.27183 0.5871 0.62184 0.0
H399 H 0.31483 0.5788 0.64854 0.0
H400 H 0.16982 0.66769 0.51373 0.0
H401 H 0.17659 0.63255 0.56155 0.0
H402 H 0.30438 0.6913 0.54565 0.0
H403 H 0.29729 0.72519 0.49805 0.0
H404 H 0.27736 0.65349 0.59564 0.0
H405 H 0.19074 0.58506 0.58533 0.0
H406 H 0.17391 0.54899 0.64267 0.0
H407 H 0.19512 0.5216 0.68794 0.0
C408 C 0.69054 0.22635 0.8385 0.0
C409 C 0.72521 0.26418 0.8422 0.0
C410 C 0.66669 0.21752 0.81028 0.0
C411 C 0.67773 0.24628 0.78526 0.0
C412 C 0.71355 0.28307 0.78849 0.0
C413 C 0.73673 0.2921 0.81671 0.0
C414 C 0.65297 0.24047 0.75568 0.0
C415 C 0.61287 0.21631 0.75376 0.0
C416 C 0.58945 0.21806 0.72541 0.0
C417 C 0.55356 0.18372 0.71575 0.0
C418 C 0.53189 0.1851 0.6886 0.0
C419 C 0.54615 0.22076 0.67069 0.0
H420 H 0.62818 0.28195 0.71609 0.0
C421 C 0.58059 0.25551 0.68145 0.0
C422 C 0.60196 0.25428 0.70848 0.0
H423 H 0.59117 0.28378 0.66876 0.0
H424 H 0.68107 0.20435 0.85789 0.0
H425 H 0.63973 0.18849 0.8083 0.0
H426 H 0.72301 0.30565 0.76953 0.0
H427 H 0.76349 0.32137 0.81883 0.0
H428 H 0.66852 0.25991 0.73521 0.0
H429 H 0.59662 0.19582 0.7735 0.0
H430 H 0.54273 0.15569 0.72881 0.0
H431 H 0.50473 0.1582 0.68111 0.0
C432 C 0.35471 0.5392 0.85 0.0
C433 C 0.32896 0.54642 0.8305 0.0
C434 C 0.37461 0.56434 0.87669 0.0
C435 C 0.36791 0.59617 0.88454 0.0
C436 C 0.34046 0.60169 0.86585 0.0
C437 C 0.32135 0.57722 0.83904 0.0
C438 C 0.3879 0.62407 0.91219 0.0
C439 C 0.42453 0.63441 0.92401 0.0
C440 C 0.44372 0.66528 0.95009 0.0
C441 C 0.4692 0.6623 0.97317 0.0
C442 C 0.48429 0.68907 0.99962 0.0
C443 C 0.47407 0.71921 1.00326 0.0
H444 H 0.41856 0.70212 0.9343 0.0
C445 C 0.45086 0.72375 0.97894 0.0
C446 C 0.43624 0.69744 0.95253 0.0
H447 H 0.44326 0.74727 0.98065 0.0
H448 H 0.36017 0.51491 0.84411 0.0
H449 H 0.39476 0.55859 0.89117 0.0
H450 H 0.33441 0.62565 0.87155 0.0
H451 H 0.30076 0.58261 0.82475 0.0
H452 H 0.37201 0.63825 0.92226 0.0
H453 H 0.44054 0.61993 0.91485 0.0
H454 H 0.47608 0.63828 0.97149 0.0
H455 H 0.50226 0.68496 0.01796 0.0
C456 C 0.76865 0.3305 0.0134 0.0
C457 C 0.80386 0.33211 1.00271 0.0
C458 C 0.76932 0.35273 0.04045 0.0
C459 C 0.80542 0.37725 0.0574 0.0
C460 C 0.84017 0.3768 0.04787 0.0
C461 C 0.83937 0.35416 0.02077 0.0
C462 C 0.80696 0.40251 0.08548 0.0
C463 C 0.78211 0.41761 0.08742 0.0
C464 C 0.77775 0.43823 0.1164 0.0
C465 C 0.74169 0.43855 0.11955 0.0
C466 C 0.73394 0.45411 0.1474 0.0
C467 C 0.76241 0.47055 0.17264 0.0
H468 H 0.83579 0.45759 0.13909 0.0
C469 C 0.7996 0.47259 0.16888 0.0
C470 C 0.80719 0.4563 0.14102 0.0
H471 H 0.82205 0.48514 0.18804 0.0
H472 H 0.74054 0.31219 1.00062 0.0
H473 H 0.7414 0.35046 0.04799 0.0
H474 H 0.86813 0.39463 0.06095 0.0
H475 H 0.86662 0.35483 0.01336 0.0
H476 H 0.82852 0.40813 0.10478 0.0
H477 H 0.76151 0.41228 0.06738 0.0
H478 H 0.71865 0.4253 0.10087 0.0
H479 H 0.70514 0.45248 0.1495 0.0
C480 C 0.33688 0.74122 0.33876 0.0
C481 C 0.31784 0.76299 0.34717 0.0
C482 C 0.36325 0.75299 0.31265 0.0
C483 C 0.37085 0.78651 0.29364 0.0
C484 C 0.3531 0.80932 0.30263 0.0
C485 C 0.32676 0.79766 0.32918 0.0
C486 C 0.39723 0.7978 0.26454 0.0
C487 C 0.39977 0.76975 0.24667 0.0
C488 C 0.42598 0.77788 0.21792 0.0
C489 C 0.41765 0.74541 0.19739 0.0
C490 C 0.44167 0.75056 0.17054 0.0
C491 C 0.47452 0.78836 0.16346 0.0
H492 H 0.46789 0.84119 0.22721 0.0
C493 C 0.48412 0.82077 0.18445 0.0
C494 C 0.45976 0.81572 0.2114 0.0
H495 H 0.51002 0.84996 0.17973 0.0
H496 H 0.33163 0.71493 0.35247 0.0
H497 H 0.37777 0.73571 0.30758 0.0
H498 H 0.35895 0.83565 0.2887 0.0
H499 H 0.31291 0.81533 0.33523 0.0
H500 H 0.41321 0.82909 0.25714 0.0
H501 H 0.38038 0.73828 0.25278 0.0
H502 H 0.39227 0.71582 0.20202 0.0
H503 H 0.43449 0.72486 0.15519 0.0
loop_
_geom_bond_atom_site_label_1
_geom_bond_atom_site_label_2
_geom_bond_distance
_geom_bond_site_symmetry_2
_ccdc_geom_bond_type
Mn0 O5 2.095 . S
Mn0 O15 2.162 . S
Mn0 O16 2.297 . S
Mn0 O24 2.385 . S
Mn0 O25 2.209 . S
Mn0 O26 2.094 . S
Mn1 O6 2.121 . S
Mn1 N8 2.257 . S
Mn1 N17 2.282 . S
Mn1 O25 2.215 . S
Mn1 O27 2.117 . S
C2 O24 1.234 . S
C2 O25 1.283 . S
C3 O15 1.281 . S
C3 O16 1.236 . S
C4 O26 1.240 . S
C4 O27 1.264 . S
O5 Mn0 2.095 . S
O5 C14 1.250 . S
O6 Mn1 2.121 . S
O6 C14 1.258 . S
C7 N8 1.326 . S
C7 C11 1.460 . S
C7 H13 0.929 . S
N8 Mn1 2.257 . S
N8 C7 1.326 . S
N8 C12 1.362 . S
C9 C10 1.258 . S
C9 C12 1.431 . S
C9 C29 1.449 . S
C10 C9 1.258 . S
C10 C11 1.477 . S
C10 H30 0.931 . S
C11 C7 1.460 . S
C11 C10 1.477 . S
C11 H31 0.930 . S
C12 N8 1.362 . S
C12 C9 1.431 . S
C12 C22 1.476 . S
H13 C7 0.929 . S
C14 O5 1.250 . S
C14 O6 1.258 . S
O15 Mn0 2.162 . S
O15 C3 1.281 . S
O16 Mn0 2.297 . S
O16 C3 1.236 . S
N17 Mn1 2.282 . S
N17 C18 1.328 . S
N17 C22 1.318 . S
C18 N17 1.328 . S
C18 C19 1.457 . S
C18 H23 0.929 . S
C19 C18 1.457 . S
C19 C20 1.291 . S
C19 H32 0.931 . S
C20 C19 1.291 . S
C20 C21 1.373 . S
C20 H33 0.929 . S
C21 C20 1.373 . S
C21 C22 1.396 . S
C21 C28 1.403 . S
C22 C12 1.476 . S
C22 N17 1.318 . S
C22 C21 1.396 . S
H23 C18 0.929 . S
O24 Mn0 2.385 . S
O24 C2 1.234 . S
O25 Mn0 2.209 . S
O25 Mn1 2.215 . S
O25 C2 1.283 . S
O26 Mn0 2.094 . S
O26 C4 1.240 . S
O27 Mn1 2.117 . S
O27 C4 1.264 . S
C28 C21 1.403 . S
C28 C29 1.399 . S
C28 H34 0.929 . S
C29 C9 1.449 . S
C29 C28 1.399 . S
C29 H35 0.930 . S
H30 C10 0.931 . S
H31 C11 0.930 . S
H32 C19 0.931 . S
H33 C20 0.929 . S
H34 C28 0.929 . S
H35 C29 0.930 . S
Mn36 O41 2.095 . S
Mn36 O51 2.162 . S
Mn36 O52 2.297 . S
Mn36 O60 2.385 . S
Mn36 O61 2.209 . S
Mn36 O62 2.094 . S
Mn37 O42 2.121 . S
Mn37 N44 2.257 . S
Mn37 N53 2.282 . S
Mn37 O61 2.215 . S
Mn37 O63 2.117 . S
C38 O60 1.234 . S
C38 O61 1.283 . S
C39 O51 1.281 . S
C39 O52 1.236 . S
C40 O62 1.240 . S
C40 O63 1.264 . S
O41 Mn36 2.095 . S
O41 C50 1.250 . S
O42 Mn37 2.121 . S
O42 C50 1.258 . S
C43 N44 1.326 . S
C43 C47 1.460 . S
C43 H49 0.929 . S
N44 Mn37 2.257 . S
N44 C43 1.326 . S
N44 C48 1.362 . S
C45 C46 1.258 . S
C45 C48 1.431 . S
C45 C65 1.449 . S
C46 C45 1.258 . S
C46 C47 1.477 . S
C46 H66 0.931 . S
C47 C43 1.460 . S
C47 C46 1.477 . S
C47 H67 0.930 . S
C48 N44 1.362 . S
C48 C45 1.431 . S
C48 C58 1.476 . S
H49 C43 0.929 . S
C50 O41 1.250 . S
C50 O42 1.258 . S
O51 Mn36 2.162 . S
O51 C39 1.281 . S
O52 Mn36 2.297 . S
O52 C39 1.236 . S
N53 Mn37 2.282 . S
N53 C54 1.328 . S
N53 C58 1.318 . S
C54 N53 1.328 . S
C54 C55 1.457 . S
C54 H59 0.929 . S
C55 C54 1.457 . S
C55 C56 1.291 . S
C55 H68 0.931 . S
C56 C55 1.291 . S
C56 C57 1.373 . S
C56 H69 0.929 . S
C57 C56 1.373 . S
C57 C58 1.396 . S
C57 C64 1.403 . S
C58 C48 1.476 . S
C58 N53 1.318 . S
C58 C57 1.396 . S
H59 C54 0.929 . S
O60 Mn36 2.385 . S
O60 C38 1.234 . S
O61 Mn36 2.209 . S
O61 Mn37 2.215 . S
O61 C38 1.283 . S
O62 Mn36 2.094 . S
O62 C40 1.240 . S
O63 Mn37 2.117 . S
O63 C40 1.264 . S
C64 C57 1.403 . S
C64 C65 1.399 . S
C64 H70 0.929 . S
C65 C45 1.449 . S
C65 C64 1.399 . S
C65 H71 0.930 . S
H66 C46 0.931 . S
H67 C47 0.930 . S
H68 C55 0.931 . S
H69 C56 0.929 . S
H70 C64 0.929 . S
H71 C65 0.930 . S
Mn72 O77 2.095 . S
Mn72 O87 2.162 . S
Mn72 O88 2.297 . S
Mn72 O96 2.385 . S
Mn72 O97 2.209 . S
Mn72 O98 2.094 . S
Mn73 O78 2.121 . S
Mn73 N80 2.257 . S
Mn73 N89 2.282 . S
Mn73 O97 2.215 . S
Mn73 O99 2.117 . S
C74 O96 1.234 . S
C74 O97 1.283 . S
C75 O87 1.281 . S
C75 O88 1.236 . S
C76 O98 1.240 . S
C76 O99 1.264 . S
O77 Mn72 2.095 . S
O77 C86 1.250 . S
O78 Mn73 2.121 . S
O78 C86 1.258 . S
C79 N80 1.326 . S
C79 C83 1.460 . S
C79 H85 0.929 . S
N80 Mn73 2.257 . S
N80 C79 1.326 . S
N80 C84 1.362 . S
C81 C82 1.258 . S
C81 C84 1.431 . S
C81 C101 1.449 . S
C82 C81 1.258 . S
C82 C83 1.477 . S
C82 H102 0.931 . S
C83 C79 1.460 . S
C83 C82 1.477 . S
C83 H103 0.930 . S
C84 N80 1.362 . S
C84 C81 1.431 . S
C84 C94 1.476 . S
H85 C79 0.929 . S
C86 O77 1.250 . S
C86 O78 1.258 . S
O87 Mn72 2.162 . S
O87 C75 1.281 . S
O88 Mn72 2.297 . S
O88 C75 1.236 . S
N89 Mn73 2.282 . S
N89 C90 1.328 . S
N89 C94 1.318 . S
C90 N89 1.328 . S
C90 C91 1.457 . S
C90 H95 0.929 . S
C91 C90 1.457 . S
C91 C92 1.291 . S
C91 H104 0.931 . S
C92 C91 1.291 . S
C92 C93 1.373 . S
C92 H105 0.936 . S
C93 C92 1.373 . S
C93 C94 1.396 . S
C93 C100 1.403 . S
C94 C84 1.476 . S
C94 N89 1.318 . S
C94 C93 1.396 . S
H95 C90 0.929 . S
O96 Mn72 2.385 . S
O96 C74 1.234 . S
O97 Mn72 2.209 . S
O97 Mn73 2.215 . S
O97 C74 1.283 . S
O98 Mn72 2.094 . S
O98 C76 1.240 . S
O99 Mn73 2.117 . S
O99 C76 1.264 . S
C100 C93 1.403 . S
C100 C101 1.399 . S
C100 H106 0.929 . S
C101 C81 1.449 . S
C101 C100 1.399 . S
C101 H107 0.930 . S
H102 C82 0.931 . S
H103 C83 0.930 . S
H104 C91 0.931 . S
H105 C92 0.936 . S
H106 C100 0.929 . S
H107 C101 0.930 . S
Mn108 O113 2.095 . S
Mn108 O123 2.162 . S
Mn108 O124 2.297 . S
Mn108 O132 2.385 . S
Mn108 O133 2.209 . S
Mn108 O134 2.094 . S
Mn109 O114 2.121 . S
Mn109 N116 2.257 . S
Mn109 N125 2.282 . S
Mn109 O133 2.215 . S
Mn109 O135 2.117 . S
C110 O132 1.234 . S
C110 O133 1.283 . S
C111 O123 1.281 . S
C111 O124 1.236 . S
C112 O134 1.240 . S
C112 O135 1.264 . S
O113 Mn108 2.095 . S
O113 C122 1.250 . S
O114 Mn109 2.121 . S
O114 C122 1.258 . S
C115 N116 1.326 . S
C115 C119 1.460 . S
C115 H121 0.929 . S
N116 Mn109 2.257 . S
N116 C115 1.326 . S
N116 C120 1.362 . S
C117 C118 1.258 . S
C117 C120 1.431 . S
C117 C137 1.449 . S
C118 C117 1.258 . S
C118 C119 1.477 . S
C118 H138 0.931 . S
C119 C115 1.460 . S
C119 C118 1.477 . S
C119 H139 0.930 . S
C120 N116 1.362 . S
C120 C117 1.431 . S
C120 C130 1.476 . S
H121 C115 0.929 . S
C122 O113 1.250 . S
C122 O114 1.258 . S
O123 Mn108 2.162 . S
O123 C111 1.281 . S
O124 Mn108 2.297 . S
O124 C111 1.236 . S
N125 Mn109 2.282 . S
N125 C126 1.328 . S
N125 C130 1.318 . S
C126 N125 1.328 . S
C126 C127 1.457 . S
C126 H131 0.929 . S
C127 C126 1.457 . S
C127 C128 1.291 . S
C127 H140 0.931 . S
C128 C127 1.291 . S
C128 C129 1.373 . S
C128 H141 0.929 . S
C129 C128 1.373 . S
C129 C130 1.396 . S
C129 C136 1.403 . S
C130 C120 1.476 . S
C130 N125 1.318 . S
C130 C129 1.396 . S
H131 C126 0.929 . S
O132 Mn108 2.385 . S
O132 C110 1.234 . S
O133 Mn108 2.209 . S
O133 Mn109 2.215 . S
O133 C110 1.283 . S
O134 Mn108 2.094 . S
O134 C112 1.240 . S
O135 Mn109 2.117 . S
O135 C112 1.264 . S
C136 C129 1.403 . S
C136 C137 1.399 . S
C136 H142 0.929 . S
C137 C117 1.449 . S
C137 C136 1.399 . S
C137 H143 0.930 . S
H138 C118 0.931 . S
H139 C119 0.930 . S
H140 C127 0.931 . S
H141 C128 0.929 . S
H142 C136 0.929 . S
H143 C137 0.930 . S
Mn144 O149 2.095 . S
Mn144 O159 2.162 . S
Mn144 O160 2.297 . S
Mn144 O168 2.385 . S
Mn144 O169 2.209 . S
Mn144 O170 2.094 . S
Mn145 O150 2.121 . S
Mn145 N152 2.257 . S
Mn145 N161 2.282 . S
Mn145 O169 2.215 . S
Mn145 O171 2.117 . S
C146 O168 1.234 . S
C146 O169 1.283 . S
C147 O159 1.281 . S
C147 O160 1.236 . S
C148 O170 1.240 . S
C148 O171 1.264 . S
O149 Mn144 2.095 . S
O149 C158 1.250 . S
O150 Mn145 2.121 . S
O150 C158 1.258 . S
C151 N152 1.326 . S
C151 C155 1.460 . S
C151 H157 0.929 . S
N152 Mn145 2.257 . S
N152 C151 1.326 . S
N152 C156 1.362 . S
C153 C154 1.258 . S
C153 C156 1.431 . S
C153 C173 1.449 . S
C154 C153 1.258 . S
C154 C155 1.477 . S
C154 H174 0.931 . S
C155 C151 1.460 . S
C155 C154 1.477 . S
C155 H175 0.930 . S
C156 N152 1.362 . S
C156 C153 1.431 . S
C156 C166 1.476 . S
H157 C151 0.929 . S
C158 O149 1.250 . S
C158 O150 1.258 . S
O159 Mn144 2.162 . S
O159 C147 1.281 . S
O160 Mn144 2.297 . S
O160 C147 1.236 . S
N161 Mn145 2.282 . S
N161 C162 1.328 . S
N161 C166 1.318 . S
C162 N161 1.328 . S
C162 C163 1.457 . S
C162 H167 0.929 . S
C163 C162 1.457 . S
C163 C164 1.291 . S
C163 H176 0.931 . S
C164 C163 1.291 . S
C164 C165 1.373 . S
C164 H177 0.929 . S
C165 C164 1.373 . S
C165 C166 1.396 . S
C165 C172 1.403 . S
C166 C156 1.476 . S
C166 N161 1.318 . S
C166 C165 1.396 . S
H167 C162 0.929 . S
O168 Mn144 2.385 . S
O168 C146 1.234 . S
O169 Mn144 2.209 . S
O169 Mn145 2.215 . S
O169 C146 1.283 . S
O170 Mn144 2.094 . S
O170 C148 1.240 . S
O171 Mn145 2.117 . S
O171 C148 1.264 . S
C172 C165 1.403 . S
C172 C173 1.399 . S
C172 H178 0.929 . S
C173 C153 1.449 . S
C173 C172 1.399 . S
C173 H179 0.930 . S
H174 C154 0.931 . S
H175 C155 0.930 . S
H176 C163 0.931 . S
H177 C164 0.929 . S
H178 C172 0.929 . S
H179 C173 0.930 . S
Mn180 O185 2.095 . S
Mn180 O195 2.162 . S
Mn180 O196 2.297 . S
Mn180 O204 2.385 . S
Mn180 O205 2.209 . S
Mn180 O206 2.094 . S
Mn181 O186 2.121 . S
Mn181 N188 2.257 . S
Mn181 N197 2.282 . S
Mn181 O205 2.215 . S
Mn181 O207 2.117 . S
C182 O204 1.234 . S
C182 O205 1.283 . S
C183 O195 1.281 . S
C183 O196 1.236 . S
C184 O206 1.240 . S
C184 O207 1.264 . S
O185 Mn180 2.095 . S
O185 C194 1.250 . S
O186 Mn181 2.121 . S
O186 C194 1.258 . S
C187 N188 1.326 . S
C187 C191 1.460 . S
C187 H193 0.929 . S
N188 Mn181 2.257 . S
N188 C187 1.326 . S
N188 C192 1.362 . S
C189 C190 1.258 . S
C189 C192 1.431 . S
C189 C209 1.449 . S
C190 C189 1.258 . S
C190 C191 1.477 . S
C190 H210 0.931 . S
C191 C187 1.460 . S
C191 C190 1.477 . S
C191 H211 0.930 . S
C192 N188 1.362 . S
C192 C189 1.431 . S
C192 C202 1.476 . S
H193 C187 0.929 . S
C194 O185 1.250 . S
C194 O186 1.258 . S
O195 Mn180 2.162 . S
O195 C183 1.281 . S
O196 Mn180 2.297 . S
O196 C183 1.236 . S
N197 Mn181 2.282 . S
N197 C198 1.328 . S
N197 C202 1.318 . S
C198 N197 1.328 . S
C198 C199 1.457 . S
C198 H203 0.929 . S
C199 C198 1.457 . S
C199 C200 1.291 . S
C199 H212 0.931 . S
C200 C199 1.291 . S
C200 C201 1.373 . S
C200 H213 0.929 . S
C201 C200 1.373 . S
C201 C202 1.396 . S
C201 C208 1.403 . S
C202 C192 1.476 . S
C202 N197 1.318 . S
C202 C201 1.396 . S
H203 C198 0.929 . S
O204 Mn180 2.385 . S
O204 C182 1.234 . S
O205 Mn180 2.209 . S
O205 Mn181 2.215 . S
O205 C182 1.283 . S
O206 Mn180 2.094 . S
O206 C184 1.240 . S
O207 Mn181 2.117 . S
O207 C184 1.264 . S
C208 C201 1.403 . S
C208 C209 1.399 . S
C208 H214 0.929 . S
C209 C189 1.449 . S
C209 C208 1.399 . S
C209 H215 0.930 . S
H210 C190 0.931 . S
H211 C191 0.930 . S
H212 C199 0.931 . S
H213 C200 0.929 . S
H214 C208 0.929 . S
H215 C209 0.930 . S
C216 C217 1.386 . S
C216 C218 1.383 . S
C216 H232 0.951 . S
C217 C216 1.386 . S
C217 C221 1.383 . S
C218 C216 1.383 . S
C218 C219 1.402 . S
C218 H233 0.951 . S
C219 C218 1.402 . S
C219 C220 1.375 . S
C219 C222 1.481 . S
C220 C219 1.375 . S
C220 C221 1.367 . S
C220 H234 0.951 . S
C221 C217 1.383 . S
C221 C220 1.367 . S
C221 H235 0.950 . S
C222 C219 1.481 . S
C222 C223 1.297 1_545 S
C222 H236 0.950 . S
C223 C222 1.297 1_565 S
C223 C224 1.479 . S
C223 H237 0.950 . S
C224 C223 1.479 . S
C224 C225 1.375 . S
C224 C230 1.404 . S
C225 C224 1.375 . S
C225 C226 1.369 . S
C225 H238 0.950 . S
C226 C225 1.369 . S
C226 C227 1.392 . S
C226 H239 0.951 . S
C227 C226 1.392 . S
C227 C229 1.384 . S
H228 C230 0.949 . S
C229 C227 1.384 . S
C229 C230 1.385 . S
C229 H231 0.950 . S
C230 C224 1.404 . S
C230 H228 0.949 . S
C230 C229 1.385 . S
H231 C229 0.950 . S
H232 C216 0.951 . S
H233 C218 0.951 . S
H234 C220 0.951 . S
H235 C221 0.950 . S
H236 C222 0.950 . S
H237 C223 0.950 . S
H238 C225 0.950 . S
H239 C226 0.951 . S
C240 C241 1.386 . S
C240 C242 1.383 . S
C240 H256 0.951 . S
C241 C240 1.386 . S
C241 C245 1.383 . S
C242 C240 1.383 . S
C242 C243 1.402 . S
C242 H257 0.951 . S
C243 C242 1.402 . S
C243 C244 1.375 . S
C243 C246 1.481 . S
C244 C243 1.375 . S
C244 C245 1.367 . S
C244 H258 0.951 . S
C245 C241 1.383 . S
C245 C244 1.367 . S
C245 H259 0.950 . S
C246 C243 1.481 . S
C246 C247 1.297 . S
C246 H260 0.950 . S
C247 C246 1.297 . S
C247 C248 1.479 . S
C247 H261 0.950 . S
C248 C247 1.479 . S
C248 C249 1.375 . S
C248 C254 1.404 . S
C249 C248 1.375 . S
C249 C250 1.369 . S
C249 H262 0.950 . S
C250 C249 1.369 . S
C250 C251 1.392 . S
C250 H263 0.951 . S
C251 C250 1.392 . S
C251 C253 1.384 . S
H252 C254 0.949 . S
C253 C251 1.384 . S
C253 C254 1.385 . S
C253 H255 0.950 . S
C254 C248 1.404 . S
C254 H252 0.949 . S
C254 C253 1.385 . S
H255 C253 0.950 . S
H256 C240 0.951 . S
H257 C242 0.951 . S
H258 C244 0.951 . S
H259 C245 0.950 . S
H260 C246 0.950 . S
H261 C247 0.950 . S
H262 C249 0.950 . S
H263 C250 0.951 . S
C264 C265 1.386 . S
C264 C266 1.383 . S
C264 H280 0.951 . S
C265 C264 1.386 . S
C265 C269 1.383 . S
C266 C264 1.383 . S
C266 C267 1.402 . S
C266 H281 0.951 . S
C267 C266 1.402 . S
C267 C268 1.375 . S
C267 C270 1.481 . S
C268 C267 1.375 . S
C268 C269 1.367 . S
C268 H282 0.951 . S
C269 C265 1.383 . S
C269 C268 1.367 . S
C269 H283 0.950 . S
C270 C267 1.481 . S
C270 C271 1.297 1_655 S
C270 H284 0.950 . S
C271 C270 1.297 1_455 S
C271 C272 1.479 . S
C271 H285 0.950 . S
C272 C271 1.479 . S
C272 C273 1.375 . S
C272 C278 1.404 . S
C273 C272 1.375 . S
C273 C274 1.369 . S
C273 H286 0.950 . S
C274 C273 1.369 . S
C274 C275 1.392 . S
C274 H287 0.951 . S
C275 C274 1.392 . S
C275 C277 1.384 . S
H276 C278 0.949 . S
C277 C275 1.384 . S
C277 C278 1.385 . S
C277 H279 0.950 . S
C278 C272 1.404 . S
C278 H276 0.949 . S
C278 C277 1.385 . S
H279 C277 0.950 . S
H280 C264 0.951 . S
H281 C266 0.951 . S
H282 C268 0.951 . S
H283 C269 0.950 . S
H284 C270 0.950 . S
H285 C271 0.950 . S
H286 C273 0.950 . S
H287 C274 0.951 . S
C288 C289 1.386 . S
C288 C290 1.383 . S
C288 H304 0.951 . S
C289 C288 1.386 . S
C289 C293 1.383 . S
C290 C288 1.383 . S
C290 C291 1.402 . S
C290 H305 0.951 . S
C291 C290 1.402 . S
C291 C292 1.375 . S
C291 C294 1.481 1_554 S
C292 C291 1.375 . S
C292 C293 1.367 . S
C292 H306 0.951 . S
C293 C289 1.383 . S
C293 C292 1.367 . S
C293 H307 0.950 . S
C294 C291 1.481 1_556 S
C294 C295 1.297 1_565 S
C294 H308 0.952 . S
C295 C294 1.297 1_545 S
C295 C296 1.479 . S
C295 H309 0.950 1_545 S
C296 C295 1.479 . S
C296 C297 1.375 . S
C296 C302 1.404 . S
C297 C296 1.375 . S
C297 C298 1.369 . S
C297 H310 0.950 . S
C298 C297 1.369 . S
C298 C299 1.392 . S
C298 H311 0.951 . S
C299 C298 1.392 . S
C299 C301 1.384 . S
H300 C302 0.949 . S
C301 C299 1.384 . S
C301 C302 1.385 . S
C301 H303 0.950 . S
C302 C296 1.404 . S
C302 H300 0.949 . S
C302 C301 1.385 . S
H303 C301 0.950 . S
H304 C288 0.951 . S
H305 C290 0.951 . S
H306 C292 0.951 . S
H307 C293 0.950 . S
H308 C294 0.952 . S
H309 C295 0.950 1_565 S
H310 C297 0.950 . S
H311 C298 0.951 . S
C312 C313 1.386 . S
C312 C314 1.383 . S
C312 H328 0.951 . S
C313 C312 1.386 . S
C313 C317 1.383 . S
C314 C312 1.383 . S
C314 C315 1.402 . S
C314 H329 0.951 . S
C315 C314 1.402 . S
C315 C316 1.375 . S
C315 C318 1.481 . S
C316 C315 1.375 . S
C316 C317 1.367 . S
C316 H330 0.951 . S
C317 C313 1.383 . S
C317 C316 1.367 . S
C317 H331 0.950 . S
C318 C315 1.481 . S
C318 C319 1.297 . S
C318 H332 0.950 . S
C319 C318 1.297 . S
C319 C320 1.479 . S
C319 H333 0.950 . S
C320 C319 1.479 . S
C320 C321 1.375 . S
C320 C326 1.404 . S
C321 C320 1.375 . S
C321 C322 1.369 . S
C321 H334 0.950 . S
C322 C321 1.369 . S
C322 C323 1.392 . S
C322 H335 0.951 . S
C323 C322 1.392 . S
C323 C325 1.384 . S
H324 C326 0.949 . S
C325 C323 1.384 . S
C325 C326 1.385 . S
C325 H327 0.950 . S
C326 C320 1.404 . S
C326 H324 0.949 . S
C326 C325 1.385 . S
H327 C325 0.950 . S
H328 C312 0.951 . S
H329 C314 0.951 . S
H330 C316 0.951 . S
H331 C317 0.950 . S
H332 C318 0.950 . S
H333 C319 0.950 . S
H334 C321 0.950 . S
H335 C322 0.951 . S
C336 C337 1.386 . S
C336 C338 1.383 . S
C336 H352 0.951 . S
C337 C336 1.386 . S
C337 C341 1.383 . S
C338 C336 1.383 . S
C338 C339 1.402 . S
C338 H353 0.951 . S
C339 C338 1.402 . S
C339 C340 1.375 . S
C339 C342 1.481 . S
C340 C339 1.375 . S
C340 C341 1.367 . S
C340 H354 0.951 . S
C341 C337 1.383 . S
C341 C340 1.367 . S
C341 H355 0.950 . S
C342 C339 1.481 . S
C342 C343 1.297 1_455 S
C342 H356 0.950 . S
C343 C342 1.297 1_655 S
C343 C344 1.479 . S
C343 H357 0.950 . S
C344 C343 1.479 . S
C344 C345 1.375 . S
C344 C350 1.404 . S
C345 C344 1.375 . S
C345 C346 1.369 . S
C345 H358 0.950 . S
C346 C345 1.369 . S
C346 C347 1.392 . S
C346 H359 0.951 . S
C347 C346 1.392 . S
C347 C349 1.384 . S
H348 C350 0.949 . S
C349 C347 1.384 . S
C349 C350 1.385 . S
C349 H351 0.950 . S
C350 C344 1.404 . S
C350 H348 0.949 . S
C350 C349 1.385 . S
H351 C349 0.950 . S
H352 C336 0.951 . S
H353 C338 0.951 . S
H354 C340 0.951 . S
H355 C341 0.950 . S
H356 C342 0.950 . S
H357 C343 0.950 . S
H358 C345 0.950 . S
H359 C346 0.951 . S
C360 C361 1.386 . S
C360 C362 1.383 . S
C360 H376 0.951 . S
C361 C360 1.386 . S
C361 C365 1.383 . S
C362 C360 1.383 . S
C362 C363 1.402 . S
C362 H377 0.951 . S
C363 C362 1.402 . S
C363 C364 1.375 . S
C363 C366 1.481 . S
C364 C363 1.375 . S
C364 C365 1.367 . S
C364 H378 0.951 . S
C365 C361 1.383 . S
C365 C364 1.367 . S
C365 H379 0.950 . S
C366 C363 1.481 . S
C366 C367 1.297 . S
C366 H380 0.950 . S
C367 C366 1.297 . S
C367 C368 1.479 . S
C367 H381 0.950 . S
C368 C367 1.479 . S
C368 C369 1.375 . S
C368 C374 1.404 . S
C369 C368 1.375 . S
C369 C370 1.369 . S
C369 H382 0.950 . S
C370 C369 1.369 . S
C370 C371 1.392 . S
C370 H383 0.951 . S
C371 C370 1.392 . S
C371 C373 1.384 . S
H372 C374 0.949 . S
C373 C371 1.384 . S
C373 C374 1.385 . S
C373 H375 0.950 . S
C374 C368 1.404 . S
C374 H372 0.949 . S
C374 C373 1.385 . S
H375 C373 0.950 . S
H376 C360 0.951 . S
H377 C362 0.951 . S
H378 C364 0.951 . S
H379 C365 0.950 . S
H380 C366 0.950 . S
H381 C367 0.950 . S
H382 C369 0.950 . S
H383 C370 0.951 . S
C384 C385 1.386 . S
C384 C386 1.383 . S
C384 H400 0.951 . S
C385 C384 1.386 . S
C385 C389 1.383 . S
C386 C384 1.383 . S
C386 C387 1.402 . S
C386 H401 0.951 . S
C387 C386 1.402 . S
C387 C388 1.375 . S
C387 C390 1.481 . S
C388 C387 1.375 . S
C388 C389 1.367 . S
C388 H402 0.951 . S
C389 C385 1.383 . S
C389 C388 1.367 . S
C389 H403 0.950 . S
C390 C387 1.481 . S
C390 C391 1.297 . S
C390 H404 0.950 . S
C391 C390 1.297 . S
C391 C392 1.479 . S
C391 H405 0.950 . S
C392 C391 1.479 . S
C392 C393 1.375 . S
C392 C398 1.404 . S
C393 C392 1.375 . S
C393 C394 1.369 . S
C393 H406 0.950 . S
C394 C393 1.369 . S
C394 C395 1.392 . S
C394 H407 0.951 . S
C395 C394 1.392 . S
C395 C397 1.384 . S
H396 C398 0.949 . S
C397 C395 1.384 . S
C397 C398 1.385 . S
C397 H399 0.950 . S
C398 C392 1.404 . S
C398 H396 0.949 . S
C398 C397 1.385 . S
H399 C397 0.950 . S
H400 C384 0.951 . S
H401 C386 0.951 . S
H402 C388 0.951 . S
H403 C389 0.950 . S
H404 C390 0.950 . S
H405 C391 0.950 . S
H406 C393 0.950 . S
H407 C394 0.951 . S
C408 C409 1.386 . S
C408 C410 1.383 . S
C408 H424 0.951 . S
C409 C408 1.386 . S
C409 C413 1.383 . S
C410 C408 1.383 . S
C410 C411 1.402 . S
C410 H425 0.951 . S
C411 C410 1.402 . S
C411 C412 1.375 . S
C411 C414 1.481 . S
C412 C411 1.375 . S
C412 C413 1.367 . S
C412 H426 0.951 . S
C413 C409 1.383 . S
C413 C412 1.367 . S
C413 H427 0.950 . S
C414 C411 1.481 . S
C414 C415 1.297 . S
C414 H428 0.950 . S
C415 C414 1.297 . S
C415 C416 1.479 . S
C415 H429 0.950 . S
C416 C415 1.479 . S
C416 C417 1.375 . S
C416 C422 1.404 . S
C417 C416 1.375 . S
C417 C418 1.369 . S
C417 H430 0.950 . S
C418 C417 1.369 . S
C418 C419 1.392 . S
C418 H431 0.951 . S
C419 C418 1.392 . S
C419 C421 1.384 . S
H420 C422 0.949 . S
C421 C419 1.384 . S
C421 C422 1.385 . S
C421 H423 0.950 . S
C422 C416 1.404 . S
C422 H420 0.949 . S
C422 C421 1.385 . S
H423 C421 0.950 . S
H424 C408 0.951 . S
H425 C410 0.951 . S
H426 C412 0.951 . S
H427 C413 0.950 . S
H428 C414 0.950 . S
H429 C415 0.950 . S
H430 C417 0.950 . S
H431 C418 0.951 . S
C432 C433 1.386 . S
C432 C434 1.383 . S
C432 H448 0.951 . S
C433 C432 1.386 . S
C433 C437 1.383 . S
C434 C432 1.383 . S
C434 C435 1.402 . S
C434 H449 0.951 . S
C435 C434 1.402 . S
C435 C436 1.375 . S
C435 C438 1.481 . S
C436 C435 1.375 . S
C436 C437 1.367 . S
C436 H450 0.951 . S
C437 C433 1.383 . S
C437 C436 1.367 . S
C437 H451 0.950 . S
C438 C435 1.481 . S
C438 C439 1.297 . S
C438 H452 0.950 . S
C439 C438 1.297 . S
C439 C440 1.479 . S
C439 H453 0.950 . S
C440 C439 1.479 . S
C440 C441 1.375 . S
C440 C446 1.404 . S
C441 C440 1.375 . S
C441 C442 1.369 1_556 S
C441 H454 0.950 . S
C442 C441 1.369 1_554 S
C442 C443 1.392 . S
C442 H455 0.951 . S
C443 C442 1.392 . S
C443 C445 1.384 1_554 S
H444 C446 0.949 . S
C445 C443 1.384 1_556 S
C445 C446 1.385 . S
C445 H447 0.950 . S
C446 C440 1.404 . S
C446 H444 0.949 . S
C446 C445 1.385 . S
H447 C445 0.950 . S
H448 C432 0.951 . S
H449 C434 0.951 . S
H450 C436 0.951 . S
H451 C437 0.950 . S
H452 C438 0.950 . S
H453 C439 0.950 . S
H454 C441 0.950 . S
H455 C442 0.951 . S
C456 C457 1.384 1_554 S
C456 C458 1.389 . S
C456 H472 0.946 1_554 S
C457 C456 1.384 1_556 S
C457 C461 1.383 1_556 S
C458 C456 1.389 . S
C458 C459 1.402 . S
C458 H473 0.951 . S
C459 C458 1.402 . S
C459 C460 1.375 . S
C459 C462 1.481 . S
C460 C459 1.375 . S
C460 C461 1.367 . S
C460 H474 0.951 . S
C461 C457 1.383 1_554 S
C461 C460 1.367 . S
C461 H475 0.950 . S
C462 C459 1.481 . S
C462 C463 1.297 . S
C462 H476 0.950 . S
C463 C462 1.297 . S
C463 C464 1.479 . S
C463 H477 0.950 . S
C464 C463 1.479 . S
C464 C465 1.375 . S
C464 C470 1.404 . S
C465 C464 1.375 . S
C465 C466 1.369 . S
C465 H478 0.950 . S
C466 C465 1.369 . S
C466 C467 1.392 . S
C466 H479 0.951 . S
C467 C466 1.392 . S
C467 C469 1.384 . S
H468 C470 0.949 . S
C469 C467 1.384 . S
C469 C470 1.385 . S
C469 H471 0.950 . S
C470 C464 1.404 . S
C470 H468 0.949 . S
C470 C469 1.385 . S
H471 C469 0.950 . S
H472 C456 0.946 1_556 S
H473 C458 0.951 . S
H474 C460 0.951 . S
H475 C461 0.950 . S
H476 C462 0.950 . S
H477 C463 0.950 . S
H478 C465 0.950 . S
H479 C466 0.951 . S
C480 C481 1.386 . S
C480 C482 1.383 . S
C480 H496 0.951 . S
C481 C480 1.386 . S
C481 C485 1.383 . S
C482 C480 1.383 . S
C482 C483 1.402 . S
C482 H497 0.951 . S
C483 C482 1.402 . S
C483 C484 1.375 . S
C483 C486 1.481 . S
C484 C483 1.375 . S
C484 C485 1.367 . S
C484 H498 0.951 . S
C485 C481 1.383 . S
C485 C484 1.367 . S
C485 H499 0.950 . S
C486 C483 1.481 . S
C486 C487 1.297 . S
C486 H500 0.950 . S
C487 C486 1.297 . S
C487 C488 1.479 . S
C487 H501 0.950 . S
C488 C487 1.479 . S
C488 C489 1.375 . S
C488 C494 1.404 . S
C489 C488 1.375 . S
C489 C490 1.369 . S
C489 H502 0.950 . S
C490 C489 1.369 . S
C490 C491 1.392 . S
C490 H503 0.951 . S
C491 C490 1.392 . S
C491 C493 1.384 . S
H492 C494 0.949 . S
C493 C491 1.384 . S
C493 C494 1.385 . S
C493 H495 0.950 . S
C494 C488 1.404 . S
C494 H492 0.949 . S
C494 C493 1.385 . S
H495 C493 0.950 . S
H496 C480 0.951 . S
H497 C482 0.951 . S
H498 C484 0.951 . S
H499 C485 0.950 . S
H500 C486 0.950 . S
H501 C487 0.950 . S
H502 C489 0.950 . S
H503 C490 0.951 . S
C217 C4 1.583 . S
C227 C183 1.567 . S
C241 C3 1.576 . S
C251 C40 1.578 . S
C265 C76 1.572 . S
C275 C39 1.564 . S
C289 C112 1.569 . S
C299 C75 1.567 . S
C313 C148 1.583 . S
C323 C111 1.574 . S
C337 C184 1.577 . S
C347 C147 1.563 . S
C361 C14 1.423 . S
C371 C146 1.461 . S
C385 C182 1.455 . S
C395 C50 1.449 . S
C409 C86 1.375 . S
C419 C2 1.437 . S
C433 C38 1.461 . S
C443 C122 1.440 . S
C457 C74 1.445 . S
C467 C158 1.363 . S
C481 C194 1.398 . S
C491 C110 1.461 . S
