# Generated by pormake.
# Topology ilc, (8)-cn, num edge types: 1
# Building blocks:
#     Node 0, Type 0, BuildingBlock: HISSIN_clean_sbu_1, # of connection points: 8
#     Node 1, Type 0, BuildingBlock: HISSIN_clean_sbu_1, # of connection points: 8
#     Node 2, Type 0, BuildingBlock: HISSIN_clean_sbu_1, # of connection points: 8
#     Edge 3, Type (0, 0), BuildingBlock: EZIPEK_clean_linker_0, # of connection points: 2
#     Edge 4, Type (0, 0), BuildingBlock: EZIPEK_clean_linker_0, # of connection points: 2
#     Edge 5, Type (0, 0), BuildingBlock: EZIPEK_clean_linker_0, # of connection points: 2
#     Edge 6, Type (0, 0), BuildingBlock: EZIPEK_clean_linker_0, # of connection points: 2
#     Edge 7, Type (0, 0), BuildingBlock: EZIPEK_clean_linker_0, # of connection points: 2
#     Edge 8, Type (0, 0), BuildingBlock: EZIPEK_clean_linker_0, # of connection points: 2
#     Edge 9, Type (0, 0), BuildingBlock: EZIPEK_clean_linker_0, # of connection points: 2
#     Edge 10, Type (0, 0), BuildingBlock: EZIPEK_clean_linker_0, # of connection points: 2
#     Edge 11, Type (0, 0), BuildingBlock: EZIPEK_clean_linker_0, # of connection points: 2
#     Edge 12, Type (0, 0), BuildingBlock: EZIPEK_clean_linker_0, # of connection points: 2
#     Edge 13, Type (0, 0), BuildingBlock: EZIPEK_clean_linker_0, # of connection points: 2
#     Edge 14, Type (0, 0), BuildingBlock: EZIPEK_clean_linker_0, # of connection points: 2
# Relax obj value: 0.200
# Max RMSD: 0.208
# Mean RMSD: 0.208
data_MOF--net-ilc--node1-HISSIN_clean_sbu_1--edge1-EZIPEK_clean_linker_0
_symmetry_space_group_name_H-M    P1
_symmetry_Int_Tables_number       1
_symmetry_cell_setting            triclinic
loop_
_symmetry_equiv_pos_as_xyz
'x, y, z'
_cell_length_a     18.555179
_cell_length_b     24.64915
_cell_length_c     15.168743
_cell_angle_alpha  101.93585
_cell_angle_beta   73.474152
_cell_angle_gamma 141.89534
loop_
_atom_site_label
_atom_site_type_symbol
_atom_site_fract_x
_atom_site_fract_y
_atom_site_fract_z
_atom_type_partial_charge
Eu0 Eu 0.87799 0.92042 0.95099 0.0
C1 C 0.14809 0.09544 0.86441 0.0
O2 O 0.82089 0.81105 0.85345 0.0
C3 C 0.07056 0.95463 0.19426 0.0
C4 C 0.03456 0.91151 0.37038 0.0
C5 C 0.01789 0.9639 0.27036 0.0
C6 C 0.01207 0.95078 0.35743 0.0
C7 C 0.10176 0.91982 0.20586 0.0
C8 C 0.07929 0.89558 0.29558 0.0
Eu9 Eu 0.0767 0.07693 0.08164 0.0
O10 O 0.78862 0.86342 0.09746 0.0
O11 O 0.10992 0.16241 0.20306 0.0
O12 O 0.16054 0.14011 0.93785 0.0
O13 O 0.8924 -0.0038 0.16023 0.0
C14 C 0.10892 0.21522 0.20231 0.0
O15 O 0.10756 0.22869 0.12369 0.0
O16 O 0.02684 0.96099 0.06883 0.0
C17 C 0.11157 -0.00076 0.1102 0.0
C18 C 0.89169 0.80752 0.81982 0.0
O19 O -0.00756 0.86439 0.84792 0.0
O20 O 0.18801 0.08438 0.1202 0.0
O21 O 0.07018 0.01146 0.87887 0.0
C22 C 0.82857 0.98871 0.92167 0.0
O23 O 0.90381 0.02485 0.97318 0.0
C24 C 0.87869 0.04617 0.84671 0.0
C25 C 0.95546 0.12751 0.68249 0.0
C26 C 0.95725 0.05975 0.77341 0.0
C27 C -0.01682 0.0908 0.68968 0.0
C28 C 0.83586 0.073 0.83726 0.0
C29 C 0.87731 0.11548 0.75376 0.0
C30 C 0.80164 0.91014 0.16889 0.0
O31 O 0.77033 0.90936 0.8961 0.0
H32 H 0.02259 0.89713 0.43969 0.0
H33 H -0.0013 0.9943 0.26284 0.0
H34 H 0.14501 0.91399 0.1475 0.0
H35 H -0.02175 0.15214 0.61566 0.0
H36 H -0.02113 0.03038 0.77603 0.0
H37 H 0.76887 0.05799 0.89115 0.0
Eu38 Eu 0.55771 0.24746 0.28801 0.0
C39 C 0.82185 0.4217 0.19481 0.0
O40 O 0.49941 0.13643 0.19476 0.0
C41 C 0.77401 0.30569 0.50366 0.0
C42 C 0.68878 0.21695 0.66439 0.0
C43 C 0.68715 0.28462 0.57326 0.0
C44 C 0.65039 0.24508 0.65413 0.0
C45 C 0.81722 0.27916 0.51328 0.0
C46 C 0.77197 0.23322 0.59518 0.0
Eu47 Eu 0.76183 0.42611 0.40844 0.0
O48 O 0.49537 0.21176 0.44246 0.0
O49 O 0.83837 0.54235 0.50287 0.0
O50 O 0.82067 0.46629 0.25886 0.0
O51 O 0.57367 0.34102 0.4869 0.0
C52 C 0.77524 0.5513 0.54668 0.0
O53 O 0.66677 0.49357 0.53331 0.0
O54 O 0.7358 0.32158 0.38431 0.0
C55 C 0.81861 0.3602 0.42784 0.0
C56 C 0.57036 0.13433 0.15249 0.0
O57 O 0.67612 0.19233 0.17198 0.0
O58 O 0.88054 0.44093 0.44951 0.0
O59 O 0.74824 0.33903 0.21182 0.0
C60 C 0.47653 0.28763 0.24408 0.0
O61 O 0.58318 0.34729 0.26268 0.0
C62 C 0.46575 0.3001 0.15867 0.0
C63 C 0.42411 0.30013 0.98674 0.0
C64 C 0.45239 0.25118 0.08172 0.0
C65 C 0.43869 0.25522 0.99792 0.0
C66 C 0.47252 0.36089 0.15235 0.0
C67 C 0.44929 0.36312 0.065 0.0
C68 C 0.49461 0.25755 0.50537 0.0
O69 O 0.41336 0.2074 0.25953 0.0
H70 H 0.65976 0.18771 0.7298 0.0
H71 H 0.65874 0.30871 0.56922 0.0
H72 H 0.88503 0.29508 0.46024 0.0
H73 H 0.43473 0.33547 0.02235 0.0
H74 H 0.46216 0.21357 0.08419 0.0
H75 H 0.49788 0.40606 0.20716 0.0
Eu76 Eu 0.19034 0.57061 0.61687 0.0
C77 C 0.46496 0.74176 0.52623 0.0
O78 O 0.12101 0.45793 0.52026 0.0
C79 C 0.46668 0.66353 0.86536 0.0
C80 C 0.47908 0.64051 0.03133 0.0
C81 C 0.4733 0.70761 0.94357 0.0
C82 C 0.47034 0.69083 0.02698 0.0
C83 C 0.45733 0.60149 0.87231 0.0
C84 C 0.46751 0.5917 0.9559 0.0
Eu85 Eu 0.40407 0.74178 0.74754 0.0
O86 O 0.13048 0.52624 0.76424 0.0
O87 O 0.46822 0.85114 0.84865 0.0
O88 O 0.47734 0.78813 0.59781 0.0
O89 O 0.21252 0.65544 0.81604 0.0
C90 C 0.40302 0.85879 0.88951 0.0
O91 O 0.3012 0.80711 0.86627 0.0
O92 O 0.35913 0.63065 0.76458 0.0
C93 C 0.46446 0.6821 0.78018 0.0
C94 C 0.18004 0.44417 0.491 0.0
O95 O 0.27953 0.49657 0.51909 0.0
O96 O 0.53881 0.76548 0.76597 0.0
O97 O 0.37351 0.65538 0.53078 0.0
C98 C 0.1351 0.63671 0.59696 0.0
O99 O 0.22377 0.67863 0.63514 0.0
C100 C 0.17126 0.68376 0.51702 0.0
C101 C 0.22513 0.75027 0.35034 0.0
C102 C 0.24794 0.69692 0.44136 0.0
C103 C 0.27153 0.72756 0.35795 0.0
C104 C 0.12765 0.7106 0.51094 0.0
C105 C 0.15746 0.74582 0.42633 0.0
C106 C 0.13226 0.57095 0.83014 0.0
O107 O 0.0663 0.55336 0.58371 0.0
H108 H 0.48109 0.63169 0.09743 0.0
H109 H 0.47125 0.75011 0.94154 0.0
H110 H 0.44185 0.56159 0.814 0.0
H111 H 0.23906 0.76897 0.28344 0.0
H112 H 0.28036 0.67536 0.44455 0.0
H113 H 0.07148 0.70369 0.56971 0.0
C114 C 0.10102 0.11068 0.54182 0.0
C115 C -0.00727 0.0541 0.6064 0.0
C116 C 0.8928 0.93209 0.50203 0.0
C117 C -0.00066 0.98916 0.4361 0.0
N118 N 0.19988 0.13474 0.3841 0.0
N119 N 0.77812 0.91707 0.64223 0.0
C120 C 0.10185 0.07957 0.45284 0.0
C121 C 0.88644 0.96646 0.58522 0.0
N122 N 0.20215 0.19308 0.56664 0.0
N123 N 0.79908 0.84413 0.48653 0.0
H124 H 0.76672 0.93502 0.70784 0.0
H125 H 0.69794 0.86063 0.62083 0.0
H126 H 0.79856 0.81671 0.42395 0.0
H127 H 0.72591 0.79761 0.53804 0.0
H128 H 0.28696 0.23622 0.52535 0.0
H129 H 0.20299 0.2165 0.63257 0.0
H130 H 0.27624 0.20174 0.39115 0.0
H131 H 0.20276 0.11476 0.31723 0.0
C132 C 0.66255 0.32841 0.78412 0.0
C133 C 0.59171 0.24907 0.73571 0.0
C134 C 0.421 0.17103 0.85992 0.0
C135 C 0.49171 0.2482 0.912 0.0
N136 N 0.68661 0.39721 0.93006 0.0
N137 N 0.4004 0.09545 0.72447 0.0
C138 C 0.6146 0.32636 0.87564 0.0
C139 C 0.47124 0.17109 0.77244 0.0
N140 N 0.77543 0.40558 0.74269 0.0
N141 N 0.30421 0.09533 0.89161 0.0
H142 H 0.4289 0.08989 0.65713 0.0
H143 H 0.4289 0.08989 0.65713 0.0
H144 H 0.25836 0.08981 0.95497 0.0
H145 H 0.25836 0.08981 0.95497 0.0
H146 H 0.82543 0.46705 0.77044 0.0
H147 H 0.81895 0.41005 0.67797 0.0
H148 H 0.77875 0.45274 0.91049 0.0
H149 H 0.657 0.39862 0.99888 0.0
C150 C 0.49085 0.78771 0.14483 0.0
C151 C 0.42193 0.70279 0.11141 0.0
C152 C 0.25581 0.63506 0.23939 0.0
C153 C 0.32537 0.72014 0.27388 0.0
N154 N 0.49319 0.87793 0.24855 0.0
N155 N 0.22534 0.5527 0.10378 0.0
C156 C 0.43814 0.79702 0.22296 0.0
C157 C 0.30045 0.62783 0.15243 0.0
N158 N 0.60638 0.85861 0.10185 0.0
N159 N 0.14429 0.56168 0.2869 0.0
H160 H 0.25215 0.54857 0.03504 0.0
H161 H 0.13335 0.49847 0.12605 0.0
H162 H 0.1016 0.56326 0.34695 0.0
H163 H 0.09237 0.49792 0.26687 0.0
H164 H 0.6628 0.92332 0.12083 0.0
H165 H 0.64812 0.85129 0.04932 0.0
H166 H 0.56877 0.93522 0.2086 0.0
H167 H 0.45903 0.8876 0.30749 0.0
C168 C 0.19493 0.86702 0.42302 0.0
C169 C 0.11919 0.7771 0.40939 0.0
C170 C 0.02133 0.76618 0.31347 0.0
C171 C 0.10601 0.85784 0.31839 0.0
N172 N 0.28489 -0.00134 0.36572 0.0
N173 N -0.0253 0.64544 0.32738 0.0
C174 C 0.1962 0.90916 0.36994 0.0
C175 C 0.03561 0.72776 0.35141 0.0
N176 N 0.2668 0.91226 0.48564 0.0
N177 N 0.92478 0.71501 0.27516 0.0
H178 H -0.02059 0.61324 0.35523 0.0
H179 H 0.92881 0.61366 0.27376 0.0
H180 H 0.91339 0.74089 0.24307 0.0
H181 H 0.85199 0.64653 0.28084 0.0
H182 H 0.3165 0.97593 0.50485 0.0
H183 H 0.26815 0.88296 0.52473 0.0
H184 H 0.35953 0.04073 0.39464 0.0
H185 H 0.2892 0.03096 0.32531 0.0
C186 C 0.15898 0.32843 0.43781 0.0
C187 C 0.13786 0.37093 0.42751 0.0
C188 C 0.05203 0.2793 0.29376 0.0
C189 C 0.10516 0.25768 0.28843 0.0
N190 N 0.22601 0.27527 0.35721 0.0
N191 N 0.07984 0.394 0.33039 0.0
C192 C 0.16143 0.28436 0.36185 0.0
C193 C 0.08737 0.34777 0.35188 0.0
N194 N 0.17526 0.3289 0.52037 0.0
N195 N 0.96618 0.2338 0.24484 0.0
H196 H 0.11085 0.44809 0.36665 0.0
H197 H 0.0532 0.38309 0.2705 0.0
H198 H 0.93055 0.17849 0.20776 0.0
H199 H 0.91979 0.24389 0.25177 0.0
H200 H 0.18283 0.29364 0.53291 0.0
H201 H 0.16587 0.35506 0.57903 0.0
H202 H 0.2783 0.30298 0.40504 0.0
H203 H 0.24068 0.25099 0.30073 0.0
C204 C 0.59196 0.75476 0.3848 0.0
C205 C 0.55358 0.78647 0.43619 0.0
C206 C 0.68369 0.90292 0.31699 0.0
C207 C 0.71507 0.86704 0.26091 0.0
N208 N 0.70126 0.75947 0.24575 0.0
N209 N 0.54356 0.87868 0.44002 0.0
C210 C 0.66796 0.79219 0.29552 0.0
C211 C 0.59534 0.85784 0.3998 0.0
N212 N 0.56355 0.69327 0.42452 0.0
N213 N 0.73618 0.97988 0.29198 0.0
H214 H 0.47165 0.84352 0.49545 0.0
H215 H 0.56342 0.92576 0.41345 0.0
H216 H 0.78146 0.0083 0.2263 0.0
H217 H 0.73663 0.01765 0.33864 0.0
H218 H 0.59262 0.66972 0.3942 0.0
H219 H 0.52219 0.67247 0.4932 0.0
H220 H 0.6536 0.69633 0.2558 0.0
H221 H 0.77724 0.79522 0.19396 0.0
C222 C 0.89519 0.26146 0.68011 0.0
C223 C 0.81337 0.20682 0.62002 0.0
C224 C 0.7534 0.08368 0.66469 0.0
C225 C 0.83157 0.13797 0.72808 0.0
N226 N 0.96398 0.27414 0.8061 0.0
N227 N 0.65391 0.06295 0.56249 0.0
C228 C 0.8991 0.22576 0.7382 0.0
C229 C 0.74064 0.11722 0.61335 0.0
N230 N 0.96974 0.34842 0.68198 0.0
N231 N 0.69179 -0.00025 0.65348 0.0
H232 H 0.64756 0.08655 0.51934 0.0
H233 H 0.58472 0.99469 0.56722 0.0
H234 H 0.68587 0.9696 0.6991 0.0
H235 H 0.64878 0.96136 0.59888 0.0
H236 H 0.04854 0.3935 0.70564 0.0
H237 H 0.9588 0.37527 0.65143 0.0
H238 H 0.0059 0.33597 0.82404 0.0
H239 H 0.96629 0.24853 0.85054 0.0
C240 C 0.8154 0.67672 0.59595 0.0
C241 C 0.82312 0.62611 0.60997 0.0
C242 C 0.87439 0.69381 0.76158 0.0
C243 C 0.86348 0.74274 0.74845 0.0
N244 N 0.84608 0.79292 0.64511 0.0
N245 N 0.87592 0.59514 0.70054 0.0
C246 C 0.83956 0.73712 0.66363 0.0
C247 C 0.85946 0.63851 0.69044 0.0
N248 N 0.78348 0.66632 0.51741 0.0
N249 N 0.88936 0.69466 0.84544 0.0
H250 H 0.85658 0.54888 0.65471 0.0
H251 H 0.91701 0.60918 0.75051 0.0
H252 H 0.88851 0.72658 0.9019 0.0
H253 H 0.89162 0.65756 0.86321 0.0
H254 H 0.75776 0.68968 0.50807 0.0
H255 H 0.77934 0.63167 0.46157 0.0
H256 H 0.85245 0.80406 0.57944 0.0
H257 H 0.85469 0.83368 0.69334 0.0
C258 C 0.28822 0.12653 0.60289 0.0
C259 C 0.4047 0.21615 0.59683 0.0
C260 C 0.33737 0.23141 0.7557 0.0
C261 C 0.23062 0.13849 0.76899 0.0
N262 N 0.10424 -0.0027 0.69431 0.0
N263 N 0.54522 0.34839 0.68265 0.0
C264 C 0.20743 0.0861 0.68992 0.0
C265 C 0.43085 0.26695 0.67754 0.0
N266 N 0.24823 0.08117 0.5244 0.0
N267 N 0.34841 0.28739 0.81303 0.0
H268 H 0.61889 0.37616 0.63175 0.0
H269 H 0.5681 0.38348 0.74323 0.0
H270 H 0.27755 0.26656 0.86178 0.0
H271 H 0.42193 0.35538 0.8015 0.0
H272 H 0.16152 0.01743 0.52414 0.0
H273 H 0.29421 0.11083 0.45913 0.0
H274 H 0.09631 0.95538 0.64887 0.0
H275 H 0.02547 0.96639 0.739 0.0
C276 C 0.54489 0.48698 0.96092 0.0
C277 C 0.47546 0.44226 0.04829 0.0
C278 C 0.3788 0.47438 0.05648 0.0
C279 C 0.45577 0.52683 0.97408 0.0
N280 N 0.59675 0.56766 0.83748 0.0
N281 N 0.35662 0.42141 0.19019 0.0
C282 C 0.5343 0.52849 0.92286 0.0
C283 C 0.40122 0.444 0.09934 0.0
N284 N 0.62744 0.49424 0.91755 0.0
N285 N 0.27898 0.44895 0.09107 0.0
H286 H 0.37205 0.39978 0.22429 0.0
H287 H 0.31756 0.43518 0.23275 0.0
H288 H 0.2526 0.46079 0.05434 0.0
H289 H 0.21553 0.40618 0.14782 0.0
H290 H 0.67837 0.52084 0.85187 0.0
H291 H 0.65076 0.47872 0.95201 0.0
H292 H 0.63104 0.55277 0.78842 0.0
H293 H 0.60688 0.60989 0.81246 0.0
C294 C 0.39012 0.90749 0.05209 0.0
C295 C 0.44667 0.92941 0.95742 0.0
C296 C 0.58417 0.08602 0.99027 0.0
C297 C 0.52952 0.06422 0.08521 0.0
N298 N 0.39953 0.95764 0.20897 0.0
N299 N 0.56984 0.03518 0.83381 0.0
C300 C 0.43695 0.9757 0.11661 0.0
C301 C 0.53695 0.0177 0.92588 0.0
N302 N 0.28764 0.82129 0.0798 0.0
N303 N 0.6836 0.17229 0.96168 0.0
H304 H 0.53375 0.98657 0.78487 0.0
H305 H 0.62302 0.09576 0.80665 0.0
H306 H 0.72166 0.22396 1.00646 0.0
H307 H 0.73453 0.19308 0.89521 0.0
H308 H 0.23327 0.80099 0.14478 0.0
H309 H 0.24996 0.76985 0.03475 0.0
H310 H 0.3401 0.89601 0.23719 0.0
H311 H 0.43697 0.00632 0.25791 0.0
C312 C 0.10083 0.57616 1.00303 0.0
C313 C 0.05183 0.5298 0.9231 0.0
C314 C 0.85218 0.41257 0.02164 0.0
C315 C 0.90105 0.46118 0.10129 0.0
N316 N 0.07047 0.59262 0.16733 0.0
N317 N 0.88238 0.39991 0.8557 0.0
C318 C 0.0246 0.54439 0.09155 0.0
C319 C 0.92815 0.44619 0.93241 0.0
N320 N 0.22195 0.64642 0.995 0.0
N321 N 0.73111 0.3377 0.03092 0.0
H322 H 0.92743 0.4281 0.78978 0.0
H323 H 0.8001 0.3333 0.85625 0.0
H324 H 0.6712 0.31812 0.09204 0.0
H325 H 0.68715 0.29691 0.97766 0.0
H326 H 0.26549 0.68257 0.04969 0.0
H327 H 0.28081 0.6647 0.93376 0.0
H328 H 0.15281 0.65941 0.16442 0.0
H329 H 0.0252 0.56639 0.23393 0.0
loop_
_geom_bond_atom_site_label_1
_geom_bond_atom_site_label_2
_geom_bond_distance
_geom_bond_site_symmetry_2
_ccdc_geom_bond_type
Eu0 O2 2.323 . S
Eu0 O10 2.328 1_556 S
Eu0 O21 2.316 1_665 S
Eu0 C22 2.837 . S
Eu0 O23 2.488 . S
Eu0 O31 2.461 . S
C1 O12 1.251 . S
C1 O21 1.237 . S
O2 Eu0 2.323 . S
O2 C18 1.279 . S
C3 C5 1.383 . S
C3 C7 1.388 1_545 S
C3 C17 1.491 . S
C4 C6 1.403 . S
C4 C8 1.385 . S
C4 H32 0.931 . S
C5 C3 1.383 . S
C5 C6 1.393 1_545 S
C5 H33 0.930 . S
C6 C4 1.403 . S
C6 C5 1.393 1_565 S
C7 C3 1.388 1_565 S
C7 C8 1.394 . S
C7 H34 0.930 . S
C8 C4 1.385 . S
C8 C7 1.394 . S
Eu9 O11 2.323 . S
Eu9 O12 2.328 1_554 S
Eu9 O13 2.311 1_445 S
Eu9 O16 2.488 . S
Eu9 C17 2.837 . S
Eu9 O20 2.461 . S
O10 Eu0 2.328 1_554 S
O10 C30 1.251 . S
O11 Eu9 2.323 . S
O11 C14 1.279 . S
O12 C1 1.251 . S
O12 Eu9 2.328 1_556 S
O13 Eu9 2.311 1_665 S
O13 C30 1.245 . S
C14 O11 1.279 . S
C14 O15 1.244 . S
O15 C14 1.244 . S
O16 Eu9 2.488 . S
O16 C17 1.271 . S
C17 C3 1.491 . S
C17 Eu9 2.837 . S
C17 O16 1.271 . S
C17 O20 1.261 . S
C18 O2 1.279 . S
C18 O19 1.244 . S
O19 C18 1.244 . S
O20 Eu9 2.461 . S
O20 C17 1.261 . S
O21 Eu0 2.316 1_445 S
O21 C1 1.237 . S
C22 Eu0 2.837 . S
C22 O23 1.271 . S
C22 C24 1.491 . S
C22 O31 1.261 . S
O23 Eu0 2.488 . S
O23 C22 1.271 . S
C24 C22 1.491 . S
C24 C26 1.383 . S
C24 C28 1.388 1_565 S
C25 C27 1.403 . S
C25 C29 1.385 . S
C25 H35 0.931 . S
C26 C24 1.383 . S
C26 C27 1.393 1_565 S
C26 H36 0.930 . S
C27 C25 1.403 . S
C27 C26 1.393 1_545 S
C28 C24 1.388 1_545 S
C28 C29 1.394 . S
C28 H37 0.930 . S
C29 C25 1.385 . S
C29 C28 1.394 . S
C30 O10 1.251 . S
C30 O13 1.245 . S
O31 Eu0 2.461 . S
O31 C22 1.261 . S
H32 C4 0.931 . S
H33 C5 0.930 . S
H34 C7 0.930 . S
H35 C25 0.931 . S
H36 C26 0.930 . S
H37 C28 0.930 . S
Eu38 O40 2.323 . S
Eu38 O48 2.328 . S
Eu38 O59 2.316 . S
Eu38 C60 2.837 . S
Eu38 O61 2.488 . S
Eu38 O69 2.461 . S
C39 O50 1.251 . S
C39 O59 1.237 . S
O40 Eu38 2.323 . S
O40 C56 1.279 . S
C41 C43 1.383 . S
C41 C45 1.388 . S
C41 C55 1.491 . S
C42 C44 1.403 . S
C42 C46 1.385 . S
C42 H70 0.931 . S
C43 C41 1.383 . S
C43 C44 1.393 . S
C43 H71 0.930 . S
C44 C42 1.403 . S
C44 C43 1.393 . S
C45 C41 1.388 . S
C45 C46 1.394 . S
C45 H72 0.930 . S
C46 C42 1.385 . S
C46 C45 1.394 . S
Eu47 O49 2.323 . S
Eu47 O50 2.328 . S
Eu47 O51 2.316 . S
Eu47 O54 2.488 . S
Eu47 C55 2.837 . S
Eu47 O58 2.461 . S
O48 Eu38 2.328 . S
O48 C68 1.251 . S
O49 Eu47 2.323 . S
O49 C52 1.279 . S
O50 C39 1.251 . S
O50 Eu47 2.328 . S
O51 Eu47 2.316 . S
O51 C68 1.237 . S
C52 O49 1.279 . S
C52 O53 1.244 . S
O53 C52 1.244 . S
O54 Eu47 2.488 . S
O54 C55 1.271 . S
C55 C41 1.491 . S
C55 Eu47 2.837 . S
C55 O54 1.271 . S
C55 O58 1.261 . S
C56 O40 1.279 . S
C56 O57 1.244 . S
O57 C56 1.244 . S
O58 Eu47 2.461 . S
O58 C55 1.261 . S
O59 Eu38 2.316 . S
O59 C39 1.237 . S
C60 Eu38 2.837 . S
C60 O61 1.271 . S
C60 C62 1.491 . S
C60 O69 1.261 . S
O61 Eu38 2.488 . S
O61 C60 1.271 . S
C62 C60 1.491 . S
C62 C64 1.383 . S
C62 C66 1.388 . S
C63 C65 1.403 1_554 S
C63 C67 1.385 . S
C63 H73 0.931 1_554 S
C64 C62 1.383 . S
C64 C65 1.393 1_554 S
C64 H74 0.930 . S
C65 C63 1.403 1_556 S
C65 C64 1.393 1_556 S
C66 C62 1.388 . S
C66 C67 1.394 . S
C66 H75 0.930 . S
C67 C63 1.385 . S
C67 C66 1.394 . S
C68 O48 1.251 . S
C68 O51 1.237 . S
O69 Eu38 2.461 . S
O69 C60 1.261 . S
H70 C42 0.931 . S
H71 C43 0.930 . S
H72 C45 0.930 . S
H73 C63 0.931 1_556 S
H74 C64 0.930 . S
H75 C66 0.930 . S
Eu76 O78 2.323 . S
Eu76 O86 2.328 . S
Eu76 O97 2.316 . S
Eu76 C98 2.837 . S
Eu76 O99 2.488 . S
Eu76 O107 2.461 . S
C77 O88 1.251 . S
C77 O97 1.237 . S
O78 Eu76 2.323 . S
O78 C94 1.279 . S
C79 C81 1.383 . S
C79 C83 1.388 . S
C79 C93 1.491 . S
C80 C82 1.403 1_556 S
C80 C84 1.385 . S
C80 H108 0.931 1_556 S
C81 C79 1.383 . S
C81 C82 1.393 1_556 S
C81 H109 0.930 . S
C82 C80 1.403 1_554 S
C82 C81 1.393 1_554 S
C83 C79 1.388 . S
C83 C84 1.394 . S
C83 H110 0.930 . S
C84 C80 1.385 . S
C84 C83 1.394 . S
Eu85 O87 2.323 . S
Eu85 O88 2.328 . S
Eu85 O89 2.316 . S
Eu85 O92 2.488 . S
Eu85 C93 2.837 . S
Eu85 O96 2.461 . S
O86 Eu76 2.328 . S
O86 C106 1.251 . S
O87 Eu85 2.323 . S
O87 C90 1.279 . S
O88 C77 1.251 . S
O88 Eu85 2.328 . S
O89 Eu85 2.316 . S
O89 C106 1.237 . S
C90 O87 1.279 . S
C90 O91 1.244 . S
O91 C90 1.244 . S
O92 Eu85 2.488 . S
O92 C93 1.271 . S
C93 C79 1.491 . S
C93 Eu85 2.837 . S
C93 O92 1.271 . S
C93 O96 1.261 . S
C94 O78 1.279 . S
C94 O95 1.244 . S
O95 C94 1.244 . S
O96 Eu85 2.461 . S
O96 C93 1.261 . S
O97 Eu76 2.316 . S
O97 C77 1.237 . S
C98 Eu76 2.837 . S
C98 O99 1.271 . S
C98 C100 1.491 . S
C98 O107 1.261 . S
O99 Eu76 2.488 . S
O99 C98 1.271 . S
C100 C98 1.491 . S
C100 C102 1.383 . S
C100 C104 1.388 . S
C101 C103 1.403 . S
C101 C105 1.385 . S
C101 H111 0.931 . S
C102 C100 1.383 . S
C102 C103 1.393 . S
C102 H112 0.930 . S
C103 C101 1.403 . S
C103 C102 1.393 . S
C104 C100 1.388 . S
C104 C105 1.394 . S
C104 H113 0.930 . S
C105 C101 1.385 . S
C105 C104 1.394 . S
C106 O86 1.251 . S
C106 O89 1.237 . S
O107 Eu76 2.461 . S
O107 C98 1.261 . S
H108 C80 0.931 1_554 S
H109 C81 0.930 . S
H110 C83 0.930 . S
H111 C101 0.931 . S
H112 C102 0.930 . S
H113 C104 0.930 . S
C114 C115 1.363 1_455 S
C114 C120 1.379 . S
C114 N122 1.356 . S
C115 C114 1.363 1_655 S
C115 C121 1.361 1_545 S
C116 C117 1.363 1_665 S
C116 C121 1.379 . S
C116 N123 1.356 . S
C117 C116 1.363 1_445 S
C117 C120 1.361 . S
N118 C120 1.356 . S
N118 H130 0.984 . S
N118 H131 0.985 . S
N119 C121 1.356 . S
N119 H124 0.984 . S
N119 H125 0.985 . S
C120 C114 1.379 . S
C120 C117 1.361 . S
C120 N118 1.356 . S
C121 C115 1.361 1_565 S
C121 C116 1.379 . S
C121 N119 1.356 . S
N122 C114 1.356 . S
N122 H128 0.984 . S
N122 H129 0.984 1_455 S
N123 C116 1.356 . S
N123 H126 0.984 1_655 S
N123 H127 0.985 . S
H124 N119 0.984 . S
H125 N119 0.985 . S
H126 N123 0.984 1_455 S
H127 N123 0.985 . S
H128 N122 0.984 . S
H129 N122 0.984 1_655 S
H130 N118 0.984 . S
H131 N118 0.985 . S
C132 C133 1.363 . S
C132 C138 1.379 . S
C132 N140 1.356 . S
C133 C132 1.363 . S
C133 C139 1.363 . S
C134 C135 1.363 . S
C134 C139 1.379 . S
C134 N141 1.356 . S
C135 C134 1.363 . S
C135 C138 1.363 . S
N136 C138 1.356 . S
N136 H148 0.984 . S
N136 H149 0.985 . S
N137 C139 1.356 . S
N137 H142 0.984 . S
N137 H143 0.985 . S
C138 C132 1.379 . S
C138 C135 1.363 . S
C138 N136 1.356 . S
C139 C133 1.363 . S
C139 C134 1.379 . S
C139 N137 1.356 . S
N140 C132 1.356 . S
N140 H146 0.984 . S
N140 H147 0.984 . S
N141 C134 1.356 . S
N141 H144 0.984 . S
N141 H145 0.985 . S
H142 N137 0.984 . S
H143 N137 0.985 . S
H144 N141 0.984 . S
H145 N141 0.985 . S
H146 N140 0.984 . S
H147 N140 0.984 . S
H148 N136 0.984 . S
H149 N136 0.985 . S
C150 C151 1.363 . S
C150 C156 1.379 . S
C150 N158 1.356 . S
C151 C150 1.363 . S
C151 C157 1.363 . S
C152 C153 1.363 . S
C152 C157 1.379 . S
C152 N159 1.356 . S
C153 C152 1.363 . S
C153 C156 1.363 . S
N154 C156 1.356 . S
N154 H166 0.984 . S
N154 H167 0.985 . S
N155 C157 1.356 . S
N155 H160 0.984 . S
N155 H161 0.985 . S
C156 C150 1.379 . S
C156 C153 1.363 . S
C156 N154 1.356 . S
C157 C151 1.363 . S
C157 C152 1.379 . S
C157 N155 1.356 . S
N158 C150 1.356 . S
N158 H164 0.984 . S
N158 H165 0.984 . S
N159 C152 1.356 . S
N159 H162 0.984 . S
N159 H163 0.985 1_455 S
H160 N155 0.984 . S
H161 N155 0.985 . S
H162 N159 0.984 . S
H163 N159 0.985 1_655 S
H164 N158 0.984 . S
H165 N158 0.984 . S
H166 N154 0.984 . S
H167 N154 0.985 . S
C168 C169 1.363 . S
C168 C174 1.379 . S
C168 N176 1.356 . S
C169 C168 1.363 . S
C169 C175 1.363 . S
C170 C171 1.363 . S
C170 C175 1.379 . S
C170 N177 1.356 . S
C171 C170 1.363 . S
C171 C174 1.363 . S
N172 C174 1.356 . S
N172 H184 0.984 . S
N172 H185 0.985 . S
N173 C175 1.356 . S
N173 H178 0.984 . S
N173 H179 0.985 . S
C174 C168 1.379 . S
C174 C171 1.363 . S
C174 N172 1.356 . S
C175 C169 1.363 . S
C175 C170 1.379 . S
C175 N173 1.356 . S
N176 C168 1.356 . S
N176 H182 0.984 . S
N176 H183 0.984 . S
N177 C170 1.356 . S
N177 H180 0.984 . S
N177 H181 0.985 . S
H178 N173 0.984 . S
H179 N173 0.985 . S
H180 N177 0.984 . S
H181 N177 0.985 . S
H182 N176 0.984 . S
H183 N176 0.984 . S
H184 N172 0.984 . S
H185 N172 0.985 . S
C186 C187 1.363 . S
C186 C192 1.379 . S
C186 N194 1.356 . S
C187 C186 1.363 . S
C187 C193 1.363 . S
C188 C189 1.363 . S
C188 C193 1.379 . S
C188 N195 1.356 . S
C189 C188 1.363 . S
C189 C192 1.363 . S
N190 C192 1.356 . S
N190 H202 0.984 . S
N190 H203 0.985 . S
N191 C193 1.356 . S
N191 H196 0.984 . S
N191 H197 0.985 . S
C192 C186 1.379 . S
C192 C189 1.363 . S
C192 N190 1.356 . S
C193 C187 1.363 . S
C193 C188 1.379 . S
C193 N191 1.356 . S
N194 C186 1.356 . S
N194 H200 0.984 . S
N194 H201 0.984 . S
N195 C188 1.356 . S
N195 H198 0.984 . S
N195 H199 0.985 . S
H196 N191 0.984 . S
H197 N191 0.985 . S
H198 N195 0.984 . S
H199 N195 0.985 . S
H200 N194 0.984 . S
H201 N194 0.984 . S
H202 N190 0.984 . S
H203 N190 0.985 . S
C204 C205 1.363 . S
C204 C210 1.379 . S
C204 N212 1.356 . S
C205 C204 1.363 . S
C205 C211 1.363 . S
C206 C207 1.363 . S
C206 C211 1.379 . S
C206 N213 1.356 . S
C207 C206 1.363 . S
C207 C210 1.363 . S
N208 C210 1.356 . S
N208 H220 0.984 . S
N208 H221 0.985 . S
N209 C211 1.356 . S
N209 H214 0.984 . S
N209 H215 0.985 . S
C210 C204 1.379 . S
C210 C207 1.363 . S
C210 N208 1.356 . S
C211 C205 1.363 . S
C211 C206 1.379 . S
C211 N209 1.356 . S
N212 C204 1.356 . S
N212 H218 0.984 . S
N212 H219 0.984 . S
N213 C206 1.356 . S
N213 H216 0.984 . S
N213 H217 0.985 . S
H214 N209 0.984 . S
H215 N209 0.985 . S
H216 N213 0.984 . S
H217 N213 0.985 . S
H218 N212 0.984 . S
H219 N212 0.984 . S
H220 N208 0.984 . S
H221 N208 0.985 . S
C222 C223 1.363 . S
C222 C228 1.379 . S
C222 N230 1.356 1_655 S
C223 C222 1.363 . S
C223 C229 1.363 . S
C224 C225 1.363 . S
C224 C229 1.379 . S
C224 N231 1.356 . S
C225 C224 1.363 . S
C225 C228 1.363 . S
N226 C228 1.356 1_455 S
N226 H238 0.984 . S
N226 H239 0.985 . S
N227 C229 1.356 . S
N227 H232 0.984 . S
N227 H233 0.985 1_545 S
C228 C222 1.379 . S
C228 C225 1.363 . S
C228 N226 1.356 1_655 S
C229 C223 1.363 . S
C229 C224 1.379 . S
C229 N227 1.356 . S
N230 C222 1.356 1_455 S
N230 H236 0.984 . S
N230 H237 0.984 1_455 S
N231 C224 1.356 . S
N231 H234 0.984 . S
N231 H235 0.985 1_545 S
H232 N227 0.984 . S
H233 N227 0.985 1_565 S
H234 N231 0.984 . S
H235 N231 0.985 1_565 S
H236 N230 0.984 . S
H237 N230 0.984 1_655 S
H238 N226 0.984 . S
H239 N226 0.985 . S
C240 C241 1.363 . S
C240 C246 1.379 . S
C240 N248 1.356 . S
C241 C240 1.363 . S
C241 C247 1.363 . S
C242 C243 1.363 . S
C242 C247 1.379 . S
C242 N249 1.356 . S
C243 C242 1.363 . S
C243 C246 1.363 . S
N244 C246 1.356 . S
N244 H256 0.984 1_655 S
N244 H257 0.985 1_655 S
N245 C247 1.356 . S
N245 H250 0.984 . S
N245 H251 0.985 . S
C246 C240 1.379 . S
C246 C243 1.363 . S
C246 N244 1.356 . S
C247 C241 1.363 . S
C247 C242 1.379 . S
C247 N245 1.356 . S
N248 C240 1.356 . S
N248 H254 0.984 . S
N248 H255 0.984 . S
N249 C242 1.356 . S
N249 H252 0.984 . S
N249 H253 0.985 . S
H250 N245 0.984 . S
H251 N245 0.985 . S
H252 N249 0.984 . S
H253 N249 0.985 . S
H254 N248 0.984 . S
H255 N248 0.984 . S
H256 N244 0.984 1_455 S
H257 N244 0.985 1_455 S
C258 C259 1.363 . S
C258 C264 1.379 . S
C258 N266 1.356 . S
C259 C258 1.363 . S
C259 C265 1.363 . S
C260 C261 1.363 . S
C260 C265 1.379 . S
C260 N267 1.356 . S
C261 C260 1.363 . S
C261 C264 1.363 . S
N262 C264 1.356 . S
N262 H274 0.984 1_545 S
N262 H275 0.985 1_545 S
N263 C265 1.356 . S
N263 H268 0.984 . S
N263 H269 0.985 . S
C264 C258 1.379 . S
C264 C261 1.363 . S
C264 N262 1.356 . S
C265 C259 1.363 . S
C265 C260 1.379 . S
C265 N263 1.356 . S
N266 C258 1.356 . S
N266 H272 0.984 . S
N266 H273 0.984 . S
N267 C260 1.356 . S
N267 H270 0.984 . S
N267 H271 0.985 . S
H268 N263 0.984 . S
H269 N263 0.985 . S
H270 N267 0.984 . S
H271 N267 0.985 . S
H272 N266 0.984 . S
H273 N266 0.984 . S
H274 N262 0.984 1_565 S
H275 N262 0.985 1_565 S
C276 C277 1.363 1_556 S
C276 C282 1.379 . S
C276 N284 1.356 . S
C277 C276 1.363 1_554 S
C277 C283 1.363 . S
C278 C279 1.363 1_554 S
C278 C283 1.379 . S
C278 N285 1.356 . S
C279 C278 1.363 1_556 S
C279 C282 1.363 . S
N280 C282 1.356 . S
N280 H292 0.984 . S
N280 H293 0.985 . S
N281 C283 1.356 . S
N281 H286 0.984 . S
N281 H287 0.985 . S
C282 C276 1.379 . S
C282 C279 1.363 . S
C282 N280 1.356 . S
C283 C277 1.363 . S
C283 C278 1.379 . S
C283 N281 1.356 . S
N284 C276 1.356 . S
N284 H290 0.984 . S
N284 H291 0.984 1_556 S
N285 C278 1.356 . S
N285 H288 0.984 1_554 S
N285 H289 0.985 . S
H286 N281 0.984 . S
H287 N281 0.985 . S
H288 N285 0.984 1_556 S
H289 N285 0.985 . S
H290 N284 0.984 . S
H291 N284 0.984 1_554 S
H292 N280 0.984 . S
H293 N280 0.985 . S
C294 C295 1.363 1_554 S
C294 C300 1.379 . S
C294 N302 1.356 . S
C295 C294 1.363 1_556 S
C295 C301 1.363 1_565 S
C296 C297 1.363 1_556 S
C296 C301 1.379 . S
C296 N303 1.356 . S
C297 C296 1.363 1_554 S
C297 C300 1.363 1_545 S
N298 C300 1.356 . S
N298 H310 0.984 . S
N298 H311 0.985 1_565 S
N299 C301 1.356 . S
N299 H304 0.984 1_545 S
N299 H305 0.985 . S
C300 C294 1.379 . S
C300 C297 1.363 1_565 S
C300 N298 1.356 . S
C301 C295 1.363 1_545 S
C301 C296 1.379 . S
C301 N299 1.356 . S
N302 C294 1.356 . S
N302 H308 0.984 . S
N302 H309 0.984 1_554 S
N303 C296 1.356 . S
N303 H306 0.984 1_556 S
N303 H307 0.985 . S
H304 N299 0.984 1_565 S
H305 N299 0.985 . S
H306 N303 0.984 1_554 S
H307 N303 0.985 . S
H308 N302 0.984 . S
H309 N302 0.984 1_556 S
H310 N298 0.984 . S
H311 N298 0.985 1_545 S
C312 C313 1.363 . S
C312 C318 1.379 1_556 S
C312 N320 1.356 . S
C313 C312 1.363 . S
C313 C319 1.363 1_455 S
C314 C315 1.363 . S
C314 C319 1.379 1_554 S
C314 N321 1.356 . S
C315 C314 1.363 . S
C315 C318 1.363 1_655 S
N316 C318 1.356 . S
N316 H328 0.984 . S
N316 H329 0.985 . S
N317 C319 1.356 . S
N317 H322 0.984 . S
N317 H323 0.985 . S
C318 C312 1.379 1_554 S
C318 C315 1.363 1_455 S
C318 N316 1.356 . S
C319 C313 1.363 1_655 S
C319 C314 1.379 1_556 S
C319 N317 1.356 . S
N320 C312 1.356 . S
N320 H326 0.984 . S
N320 H327 0.984 . S
N321 C314 1.356 . S
N321 H324 0.984 . S
N321 H325 0.985 . S
H322 N317 0.984 . S
H323 N317 0.985 . S
H324 N321 0.984 . S
H325 N321 0.985 . S
H326 N320 0.984 . S
H327 N320 0.984 . S
H328 N316 0.984 . S
H329 N316 0.985 . S
C115 C27 1.490 . S
C117 C6 1.490 1_545 S
C133 C44 1.489 . S
C135 C65 1.489 . S
C151 C82 1.489 . S
C153 C103 1.489 . S
C169 C105 2.225 . S
C171 C8 2.224 . S
C187 C94 1.502 . S
C189 C14 1.500 . S
C205 C77 1.783 . S
C207 C30 1.782 . S
C223 C46 2.225 . S
C225 C29 2.225 . S
C241 C52 1.502 . S
C243 C18 1.504 . S
C259 C68 1.783 . S
C261 C1 1.784 . S
C277 C67 2.225 . S
C279 C84 2.225 . S
C295 C90 1.502 . S
C297 C56 1.502 . S
C313 C106 1.783 . S
C315 C39 1.783 . S
