# Generated by pormake.
# Topology yfm, (5)-cn, num edge types: 1
# Building blocks:
#     Node 0, Type 0, BuildingBlock: XOMCOT_clean_sbu_1, # of connection points: 5
#     Node 1, Type 0, BuildingBlock: XOMCOT_clean_sbu_1, # of connection points: 5
#     Node 2, Type 0, BuildingBlock: XOMCOT_clean_sbu_1, # of connection points: 5
#     Node 3, Type 0, BuildingBlock: XOMCOT_clean_sbu_1, # of connection points: 5
#     Node 4, Type 0, BuildingBlock: XOMCOT_clean_sbu_1, # of connection points: 5
#     Node 5, Type 0, BuildingBlock: XOMCOT_clean_sbu_1, # of connection points: 5
#     Node 6, Type 0, BuildingBlock: XOMCOT_clean_sbu_1, # of connection points: 5
#     Node 7, Type 0, BuildingBlock: XOMCOT_clean_sbu_1, # of connection points: 5
#     Node 8, Type 0, BuildingBlock: XOMCOT_clean_sbu_1, # of connection points: 5
#     Node 9, Type 0, BuildingBlock: XOMCOT_clean_sbu_1, # of connection points: 5
#     Node 10, Type 0, BuildingBlock: XOMCOT_clean_sbu_1, # of connection points: 5
#     Node 11, Type 0, BuildingBlock: XOMCOT_clean_sbu_1, # of connection points: 5
#     Node 12, Type 0, BuildingBlock: XOMCOT_clean_sbu_1, # of connection points: 5
#     Node 13, Type 0, BuildingBlock: XOMCOT_clean_sbu_1, # of connection points: 5
#     Node 14, Type 0, BuildingBlock: XOMCOT_clean_sbu_1, # of connection points: 5
#     Node 15, Type 0, BuildingBlock: XOMCOT_clean_sbu_1, # of connection points: 5
#     Node 16, Type 0, BuildingBlock: XOMCOT_clean_sbu_1, # of connection points: 5
#     Node 17, Type 0, BuildingBlock: XOMCOT_clean_sbu_1, # of connection points: 5
#     Node 18, Type 0, BuildingBlock: XOMCOT_clean_sbu_1, # of connection points: 5
#     Node 19, Type 0, BuildingBlock: XOMCOT_clean_sbu_1, # of connection points: 5
#     Node 20, Type 0, BuildingBlock: XOMCOT_clean_sbu_1, # of connection points: 5
#     Node 21, Type 0, BuildingBlock: XOMCOT_clean_sbu_1, # of connection points: 5
#     Node 22, Type 0, BuildingBlock: XOMCOT_clean_sbu_1, # of connection points: 5
#     Node 23, Type 0, BuildingBlock: XOMCOT_clean_sbu_1, # of connection points: 5
#     Node 24, Type 0, BuildingBlock: XOMCOT_clean_sbu_1, # of connection points: 5
#     Node 25, Type 0, BuildingBlock: XOMCOT_clean_sbu_1, # of connection points: 5
#     Node 26, Type 0, BuildingBlock: XOMCOT_clean_sbu_1, # of connection points: 5
#     Node 27, Type 0, BuildingBlock: XOMCOT_clean_sbu_1, # of connection points: 5
#     Node 28, Type 0, BuildingBlock: XOMCOT_clean_sbu_1, # of connection points: 5
#     Node 29, Type 0, BuildingBlock: XOMCOT_clean_sbu_1, # of connection points: 5
#     Node 30, Type 0, BuildingBlock: XOMCOT_clean_sbu_1, # of connection points: 5
#     Node 31, Type 0, BuildingBlock: XOMCOT_clean_sbu_1, # of connection points: 5
#     Edge 32, Type (0, 0), BuildingBlock: XIVTED_clean_linker_0, # of connection points: 2
#     Edge 33, Type (0, 0), BuildingBlock: XIVTED_clean_linker_0, # of connection points: 2
#     Edge 34, Type (0, 0), BuildingBlock: XIVTED_clean_linker_0, # of connection points: 2
#     Edge 35, Type (0, 0), BuildingBlock: XIVTED_clean_linker_0, # of connection points: 2
#     Edge 36, Type (0, 0), BuildingBlock: XIVTED_clean_linker_0, # of connection points: 2
#     Edge 37, Type (0, 0), BuildingBlock: XIVTED_clean_linker_0, # of connection points: 2
#     Edge 38, Type (0, 0), BuildingBlock: XIVTED_clean_linker_0, # of connection points: 2
#     Edge 39, Type (0, 0), BuildingBlock: XIVTED_clean_linker_0, # of connection points: 2
#     Edge 40, Type (0, 0), BuildingBlock: XIVTED_clean_linker_0, # of connection points: 2
#     Edge 41, Type (0, 0), BuildingBlock: XIVTED_clean_linker_0, # of connection points: 2
#     Edge 42, Type (0, 0), BuildingBlock: XIVTED_clean_linker_0, # of connection points: 2
#     Edge 43, Type (0, 0), BuildingBlock: XIVTED_clean_linker_0, # of connection points: 2
#     Edge 44, Type (0, 0), BuildingBlock: XIVTED_clean_linker_0, # of connection points: 2
#     Edge 45, Type (0, 0), BuildingBlock: XIVTED_clean_linker_0, # of connection points: 2
#     Edge 46, Type (0, 0), BuildingBlock: XIVTED_clean_linker_0, # of connection points: 2
#     Edge 47, Type (0, 0), BuildingBlock: XIVTED_clean_linker_0, # of connection points: 2
#     Edge 48, Type (0, 0), BuildingBlock: XIVTED_clean_linker_0, # of connection points: 2
#     Edge 49, Type (0, 0), BuildingBlock: XIVTED_clean_linker_0, # of connection points: 2
#     Edge 50, Type (0, 0), BuildingBlock: XIVTED_clean_linker_0, # of connection points: 2
#     Edge 51, Type (0, 0), BuildingBlock: XIVTED_clean_linker_0, # of connection points: 2
#     Edge 52, Type (0, 0), BuildingBlock: XIVTED_clean_linker_0, # of connection points: 2
#     Edge 53, Type (0, 0), BuildingBlock: XIVTED_clean_linker_0, # of connection points: 2
#     Edge 54, Type (0, 0), BuildingBlock: XIVTED_clean_linker_0, # of connection points: 2
#     Edge 55, Type (0, 0), BuildingBlock: XIVTED_clean_linker_0, # of connection points: 2
#     Edge 56, Type (0, 0), BuildingBlock: XIVTED_clean_linker_0, # of connection points: 2
#     Edge 57, Type (0, 0), BuildingBlock: XIVTED_clean_linker_0, # of connection points: 2
#     Edge 58, Type (0, 0), BuildingBlock: XIVTED_clean_linker_0, # of connection points: 2
#     Edge 59, Type (0, 0), BuildingBlock: XIVTED_clean_linker_0, # of connection points: 2
#     Edge 60, Type (0, 0), BuildingBlock: XIVTED_clean_linker_0, # of connection points: 2
#     Edge 61, Type (0, 0), BuildingBlock: XIVTED_clean_linker_0, # of connection points: 2
#     Edge 62, Type (0, 0), BuildingBlock: XIVTED_clean_linker_0, # of connection points: 2
#     Edge 63, Type (0, 0), BuildingBlock: XIVTED_clean_linker_0, # of connection points: 2
#     Edge 64, Type (0, 0), BuildingBlock: XIVTED_clean_linker_0, # of connection points: 2
#     Edge 65, Type (0, 0), BuildingBlock: XIVTED_clean_linker_0, # of connection points: 2
#     Edge 66, Type (0, 0), BuildingBlock: XIVTED_clean_linker_0, # of connection points: 2
#     Edge 67, Type (0, 0), BuildingBlock: XIVTED_clean_linker_0, # of connection points: 2
#     Edge 68, Type (0, 0), BuildingBlock: XIVTED_clean_linker_0, # of connection points: 2
#     Edge 69, Type (0, 0), BuildingBlock: XIVTED_clean_linker_0, # of connection points: 2
#     Edge 70, Type (0, 0), BuildingBlock: XIVTED_clean_linker_0, # of connection points: 2
#     Edge 71, Type (0, 0), BuildingBlock: XIVTED_clean_linker_0, # of connection points: 2
#     Edge 72, Type (0, 0), BuildingBlock: XIVTED_clean_linker_0, # of connection points: 2
#     Edge 73, Type (0, 0), BuildingBlock: XIVTED_clean_linker_0, # of connection points: 2
#     Edge 74, Type (0, 0), BuildingBlock: XIVTED_clean_linker_0, # of connection points: 2
#     Edge 75, Type (0, 0), BuildingBlock: XIVTED_clean_linker_0, # of connection points: 2
#     Edge 76, Type (0, 0), BuildingBlock: XIVTED_clean_linker_0, # of connection points: 2
#     Edge 77, Type (0, 0), BuildingBlock: XIVTED_clean_linker_0, # of connection points: 2
#     Edge 78, Type (0, 0), BuildingBlock: XIVTED_clean_linker_0, # of connection points: 2
#     Edge 79, Type (0, 0), BuildingBlock: XIVTED_clean_linker_0, # of connection points: 2
#     Edge 80, Type (0, 0), BuildingBlock: XIVTED_clean_linker_0, # of connection points: 2
#     Edge 81, Type (0, 0), BuildingBlock: XIVTED_clean_linker_0, # of connection points: 2
#     Edge 82, Type (0, 0), BuildingBlock: XIVTED_clean_linker_0, # of connection points: 2
#     Edge 83, Type (0, 0), BuildingBlock: XIVTED_clean_linker_0, # of connection points: 2
#     Edge 84, Type (0, 0), BuildingBlock: XIVTED_clean_linker_0, # of connection points: 2
#     Edge 85, Type (0, 0), BuildingBlock: XIVTED_clean_linker_0, # of connection points: 2
#     Edge 86, Type (0, 0), BuildingBlock: XIVTED_clean_linker_0, # of connection points: 2
#     Edge 87, Type (0, 0), BuildingBlock: XIVTED_clean_linker_0, # of connection points: 2
#     Edge 88, Type (0, 0), BuildingBlock: XIVTED_clean_linker_0, # of connection points: 2
#     Edge 89, Type (0, 0), BuildingBlock: XIVTED_clean_linker_0, # of connection points: 2
#     Edge 90, Type (0, 0), BuildingBlock: XIVTED_clean_linker_0, # of connection points: 2
#     Edge 91, Type (0, 0), BuildingBlock: XIVTED_clean_linker_0, # of connection points: 2
#     Edge 92, Type (0, 0), BuildingBlock: XIVTED_clean_linker_0, # of connection points: 2
#     Edge 93, Type (0, 0), BuildingBlock: XIVTED_clean_linker_0, # of connection points: 2
#     Edge 94, Type (0, 0), BuildingBlock: XIVTED_clean_linker_0, # of connection points: 2
#     Edge 95, Type (0, 0), BuildingBlock: XIVTED_clean_linker_0, # of connection points: 2
#     Edge 96, Type (0, 0), BuildingBlock: XIVTED_clean_linker_0, # of connection points: 2
#     Edge 97, Type (0, 0), BuildingBlock: XIVTED_clean_linker_0, # of connection points: 2
#     Edge 98, Type (0, 0), BuildingBlock: XIVTED_clean_linker_0, # of connection points: 2
#     Edge 99, Type (0, 0), BuildingBlock: XIVTED_clean_linker_0, # of connection points: 2
#     Edge 100, Type (0, 0), BuildingBlock: XIVTED_clean_linker_0, # of connection points: 2
#     Edge 101, Type (0, 0), BuildingBlock: XIVTED_clean_linker_0, # of connection points: 2
#     Edge 102, Type (0, 0), BuildingBlock: XIVTED_clean_linker_0, # of connection points: 2
#     Edge 103, Type (0, 0), BuildingBlock: XIVTED_clean_linker_0, # of connection points: 2
#     Edge 104, Type (0, 0), BuildingBlock: XIVTED_clean_linker_0, # of connection points: 2
#     Edge 105, Type (0, 0), BuildingBlock: XIVTED_clean_linker_0, # of connection points: 2
#     Edge 106, Type (0, 0), BuildingBlock: XIVTED_clean_linker_0, # of connection points: 2
#     Edge 107, Type (0, 0), BuildingBlock: XIVTED_clean_linker_0, # of connection points: 2
#     Edge 108, Type (0, 0), BuildingBlock: XIVTED_clean_linker_0, # of connection points: 2
#     Edge 109, Type (0, 0), BuildingBlock: XIVTED_clean_linker_0, # of connection points: 2
#     Edge 110, Type (0, 0), BuildingBlock: XIVTED_clean_linker_0, # of connection points: 2
#     Edge 111, Type (0, 0), BuildingBlock: XIVTED_clean_linker_0, # of connection points: 2
# Relax obj value: 0.619
# Max RMSD: 0.256
# Mean RMSD: 0.255
data_MOF--net-yfm--node1-XOMCOT_clean_sbu_1--edge1-XIVTED_clean_linker_0
_symmetry_space_group_name_H-M    P1
_symmetry_Int_Tables_number       1
_symmetry_cell_setting            triclinic
loop_
_symmetry_equiv_pos_as_xyz
'x, y, z'
_cell_length_a     67.293601
_cell_length_b     67.126956
_cell_length_c     44.828609
_cell_angle_alpha  90.001367
_cell_angle_beta   90.028162
_cell_angle_gamma 89.986338
loop_
_atom_site_label
_atom_site_type_symbol
_atom_site_fract_x
_atom_site_fract_y
_atom_site_fract_z
_atom_type_partial_charge
C0 C 0.28979 0.12175 0.11605 0.0
C1 C 0.28957 0.12605 0.14596 0.0
N2 N 0.27981 0.14335 0.1498 0.0
N3 N 0.2804 0.13636 0.10101 0.0
C4 C 0.27438 0.14935 0.12222 0.0
H5 H 0.29617 0.10863 0.10586 0.0
Co6 Co 0.27802 0.13593 0.05985 0.0
C7 C 0.25693 0.1738 0.04525 0.0
O8 O 0.24452 0.16461 0.02737 0.0
N9 N 0.27624 0.13456 0.0171 0.0
C10 C 0.26677 0.12479 0.97158 0.0
C11 C 0.26047 0.12954 0.99989 0.0
C12 C 0.29179 0.13347 0.99793 0.0
N13 N 0.28664 0.12685 0.97053 0.0
O14 O 0.30512 0.14449 0.05817 0.0
H15 H 0.24537 0.1279 0.00766 0.0
H16 H 0.30693 0.13648 0.00409 0.0
O17 O 0.27006 0.16387 0.05947 0.0
C18 C 0.31811 0.13069 0.05782 0.0
O19 O 0.31242 0.11254 0.05085 0.0
N20 N 0.252 0.12614 0.06441 0.0
C21 C 0.21948 0.10431 0.08566 0.0
C22 C 0.22084 0.12495 0.09057 0.0
C23 C 0.23724 0.13559 0.07983 0.0
C24 C 0.25058 0.10629 0.05847 0.0
C25 C 0.23426 0.09523 0.06817 0.0
H26 H 0.23875 0.15101 0.08621 0.0
H27 H 0.26273 0.09878 0.04737 0.0
H28 H 0.26602 0.16278 0.1177 0.0
H29 H 0.29538 0.11674 0.16367 0.0
H30 H 0.25759 0.11856 0.9541 0.0
H31 H 0.21015 0.13265 0.10443 0.0
H32 H 0.23381 0.07947 0.06316 0.0
C33 C 0.12732 0.04194 0.36556 0.0
C34 C 0.12268 0.04175 0.39536 0.0
N35 N 0.10626 0.03059 0.3991 0.0
N36 N 0.11376 0.03119 0.35037 0.0
C37 C 0.10107 0.02442 0.37147 0.0
H38 H 0.14025 0.04886 0.35574 0.0
Co39 Co 0.11583 0.02652 0.30954 0.0
C40 C 0.0772 0.00669 0.29359 0.0
O41 O 0.08614 0.99329 0.2771 0.0
N42 N 0.11904 0.02211 0.2674 0.0
C43 C 0.12886 0.00802 0.22469 0.0
C44 C 0.12278 0.0046 0.25344 0.0
C45 C 0.12282 0.0359 0.24596 0.0
N46 N 0.12926 0.0278 0.2201 0.0
O47 O 0.10862 0.0538 0.30335 0.0
H48 H 0.12247 0.99007 0.26379 0.0
H49 H 0.12245 0.05174 0.24959 0.0
O50 O 0.08744 0.01971 0.30761 0.0
C51 C 0.12297 0.06616 0.30256 0.0
O52 O 0.14104 0.05924 0.29834 0.0
N53 N 0.12427 1.00047 0.3182 0.0
C54 C 0.14323 0.96747 0.34323 0.0
C55 C 0.12247 0.96937 0.34446 0.0
C56 C 0.11326 0.98605 0.33194 0.0
C57 C 0.14437 0.99849 0.31583 0.0
C58 C 0.15414 0.98197 0.32782 0.0
H59 H 0.09752 0.98787 0.33529 0.0
H60 H 0.15297 0.01038 0.30592 0.0
H61 H 0.08864 0.01467 0.36691 0.0
H62 H 0.13145 0.04825 0.41313 0.0
H63 H 0.13381 0.99678 0.20906 0.0
H64 H 0.11352 0.95852 0.35625 0.0
H65 H 0.1702 0.98131 0.32683 0.0
C66 C 0.21531 0.87842 0.61954 0.0
C67 C 0.21568 0.87499 0.64972 0.0
N68 N 0.22621 0.85826 0.65465 0.0
N69 N 0.22549 0.8639 0.60553 0.0
C70 C 0.23192 0.85174 0.6275 0.0
H71 H 0.20818 0.8908 0.60839 0.0
Co72 Co 0.22749 0.86328 0.56452 0.0
C73 C 0.25032 0.826 0.55277 0.0
O74 O 0.26267 0.83553 0.5351 0.0
N75 N 0.22816 0.86357 0.52241 0.0
C76 C 0.22046 0.85612 0.47526 0.0
C77 C 0.22586 0.8485 0.50265 0.0
C78 C 0.22369 0.88005 0.50643 0.0
N79 N 0.21876 0.87599 0.47791 0.0
O80 O 0.20065 0.85387 0.56351 0.0
H81 H 0.22557 0.83287 0.50826 0.0
H82 H 0.22162 0.89454 0.51637 0.0
O83 O 0.2363 0.83551 0.56567 0.0
C84 C 0.18648 0.86607 0.55901 0.0
O85 O 0.19063 0.8836 0.54767 0.0
N86 N 0.2538 0.87369 0.56775 0.0
C87 C 0.28682 0.89554 0.58814 0.0
C88 C 0.28487 0.87518 0.59458 0.0
C89 C 0.2683 0.86459 0.58434 0.0
C90 C 0.25591 0.89328 0.56033 0.0
C91 C 0.27243 0.90429 0.56959 0.0
H92 H 0.26648 0.84957 0.59225 0.0
H93 H 0.244 0.90112 0.5495 0.0
H94 H 0.24068 0.83844 0.62384 0.0
H95 H 0.20938 0.88447 0.66681 0.0
H96 H 0.21582 0.84753 0.45604 0.0
H97 H 0.29519 0.86772 0.60936 0.0
H98 H 0.27322 0.91989 0.56363 0.0
C99 C 0.38025 0.962 0.86837 0.0
C100 C 0.38494 0.9629 0.89811 0.0
N101 N 0.40104 0.97458 0.90129 0.0
N102 N 0.39349 0.97277 0.85261 0.0
C103 C 0.40597 0.98041 0.87337 0.0
H104 H 0.36746 0.95456 0.85897 0.0
Co105 Co 0.39112 0.97641 0.81155 0.0
C106 C 0.43032 0.99374 0.79257 0.0
O107 O 0.42167 0.00613 0.77408 0.0
N108 N 0.38747 0.97981 0.76918 0.0
C109 C 0.37715 0.9931 0.72613 0.0
C110 C 0.38359 0.99705 0.75455 0.0
C111 C 0.38339 0.96562 0.74841 0.0
N112 N 0.37663 0.97325 0.72238 0.0
O113 O 0.39729 0.94872 0.80679 0.0
H114 H 0.38427 0.01179 0.76416 0.0
H115 H 0.38387 0.94985 0.75268 0.0
O116 O 0.41977 0.98211 0.80867 0.0
C117 C 0.38257 0.93679 0.80642 0.0
O118 O 0.36473 0.94416 0.80174 0.0
N119 N 0.38374 0.00294 0.81882 0.0
C120 C 0.36637 0.03787 0.84063 0.0
C121 C 0.38713 0.03558 0.84016 0.0
C122 C 0.39554 0.0179 0.82947 0.0
C123 C 0.36362 0.00516 0.8182 0.0
C124 C 0.35463 0.02252 0.82875 0.0
H125 H 0.41136 0.01596 0.83155 0.0
H126 H 0.35445 0.9929 0.81072 0.0
H127 H 0.41806 0.99047 0.86831 0.0
H128 H 0.37643 0.95646 0.91619 0.0
H129 H 0.37216 0.00407 0.7101 0.0
H130 H 0.39681 0.04701 0.84906 0.0
H131 H 0.33857 0.02332 0.8292 0.0
C132 C 0.28963 0.88114 0.88834 0.0
C133 C 0.28907 0.87656 0.85852 0.0
N134 N 0.27817 0.85991 0.85512 0.0
N135 N 0.27932 0.86732 0.9037 0.0
C136 C 0.27244 0.85456 0.88282 0.0
H137 H 0.29679 0.89396 0.8982 0.0
Co138 Co 0.2766 0.86834 0.94471 0.0
C139 C 0.25573 0.83075 0.96088 0.0
O140 O 0.24388 0.8402 0.97931 0.0
N141 N 0.27447 0.87027 0.98734 0.0
C142 C 0.26528 0.88127 0.03232 0.0
C143 C 0.25894 0.87671 0.00396 0.0
C144 C 0.28981 0.87026 0.00694 0.0
N145 N 0.28491 0.87763 0.03401 0.0
O146 O 0.30366 0.85969 0.94721 0.0
H147 H 0.24407 0.87931 0.99578 0.0
H148 H 0.30472 0.8659 1.00128 0.0
O149 O 0.26854 0.84045 0.94572 0.0
C150 C 0.3168 0.87333 0.94807 0.0
O151 O 0.31125 0.89148 0.95527 0.0
N152 N 0.25065 0.87818 0.93926 0.0
C153 C 0.21875 0.89983 0.91549 0.0
C154 C 0.21957 0.87898 0.91277 0.0
C155 C 0.23565 0.86842 0.92479 0.0
C156 C 0.24967 0.89827 0.94324 0.0
C157 C 0.23367 0.90928 0.93227 0.0
H158 H 0.23675 0.85272 0.92003 0.0
H159 H 0.26198 0.90595 0.9537 0.0
H160 H 0.26315 0.84181 0.88763 0.0
H161 H 0.29534 0.88533 0.84058 0.0
H162 H 0.25642 0.8884 0.04938 0.0
H163 H 0.20871 0.87095 0.89962 0.0
H164 H 0.2336 0.92524 0.93571 0.0
C165 C 0.38085 0.0405 0.13549 0.0
C166 C 0.38547 0.03955 0.10574 0.0
N167 N 0.40142 0.02766 0.10249 0.0
N168 N 0.39399 0.02955 0.1512 0.0
C169 C 0.40633 0.02176 0.13039 0.0
H170 H 0.3682 0.04813 0.14493 0.0
Co171 Co 0.39175 0.026 0.1923 0.0
C172 C 0.43075 0.0079 0.21082 0.0
O173 O 0.42204 0.99558 0.22933 0.0
N174 N 0.38825 0.02272 0.2347 0.0
C175 C 0.37789 0.00958 0.27782 0.0
C176 C 0.38436 0.00553 0.24946 0.0
C177 C 0.38416 0.03698 0.25536 0.0
N178 N 0.37736 0.02944 0.2814 0.0
O179 O 0.3984 0.0536 0.19692 0.0
H180 H 0.38494 0.99076 0.23992 0.0
H181 H 0.3846 0.05273 0.25099 0.0
O182 O 0.42029 0.01976 0.19494 0.0
C183 C 0.38381 0.06569 0.19736 0.0
O184 O 0.36589 0.05851 0.20189 0.0
N185 N 0.38384 0.99963 0.18522 0.0
C186 C 0.36562 0.96487 0.16445 0.0
C187 C 0.38642 0.96683 0.1642 0.0
C188 C 0.39525 0.98443 0.17439 0.0
C189 C 0.3637 0.99777 0.18642 0.0
C190 C 0.3543 0.9805 0.17641 0.0
H191 H 0.41108 0.9861 0.17186 0.0
H192 H 0.35484 0.01022 0.19403 0.0
H193 H 0.41832 0.01156 0.13541 0.0
H194 H 0.377 0.04612 0.08769 0.0
H195 H 0.37279 0.99867 0.29386 0.0
H196 H 0.39577 0.95518 0.15517 0.0
H197 H 0.33822 0.97996 0.17647 0.0
C198 C 0.2159 0.12523 0.38237 0.0
C199 C 0.21711 0.12942 0.35249 0.0
N200 N 0.22734 0.14651 0.34917 0.0
N201 N 0.22514 0.13968 0.39794 0.0
C202 C 0.23198 0.15251 0.37709 0.0
H203 H 0.20919 0.11215 0.39215 0.0
Co204 Co 0.22724 0.13872 0.43913 0.0
C205 C 0.2482 0.17634 0.45518 0.0
O206 O 0.26069 0.16667 0.47236 0.0
N207 N 0.22875 0.13676 0.4819 0.0
C208 C 0.23811 0.12645 0.52721 0.0
C209 C 0.24448 0.13156 0.49909 0.0
C210 C 0.21314 0.13536 0.50093 0.0
N211 N 0.21824 0.12843 0.52818 0.0
O212 O 0.20005 0.14705 0.44069 0.0
H213 H 0.25962 0.13004 0.49139 0.0
H214 H 0.198 0.13839 0.49477 0.0
O215 O 0.23502 0.16678 0.44052 0.0
C216 C 0.1873 0.13303 0.44078 0.0
O217 O 0.1933 0.11492 0.4474 0.0
N218 N 0.25335 0.12905 0.43463 0.0
C219 C 0.28581 0.10726 0.41291 0.0
C220 C 0.28464 0.128 0.40876 0.0
C221 C 0.26829 0.13862 0.41975 0.0
C222 C 0.25461 0.1091 0.43989 0.0
C223 C 0.27088 0.09806 0.42997 0.0
H224 H 0.26696 0.15415 0.41399 0.0
H225 H 0.24235 0.10151 0.45058 0.0
H226 H 0.24061 0.16569 0.38213 0.0
H227 H 0.21187 0.12002 0.33451 0.0
H228 H 0.24727 0.12003 0.54458 0.0
H229 H 0.29547 0.13582 0.39531 0.0
H230 H 0.27119 0.08222 0.43448 0.0
C231 C 0.12363 0.96097 0.63144 0.0
C232 C 0.11869 0.96192 0.6018 0.0
N233 N 0.10338 0.97464 0.59873 0.0
N234 N 0.11129 0.97276 0.64726 0.0
C235 C 0.09912 0.98101 0.62662 0.0
H236 H 0.13607 0.95288 0.64065 0.0
Co237 Co 0.11433 0.9771 0.68807 0.0
C238 C 0.07549 0.99464 0.70809 0.0
O239 O 0.0845 0.00696 0.7263 0.0
N240 N 0.11862 0.98125 0.73017 0.0
C241 C 0.12967 0.99524 0.7723 0.0
C242 C 0.12306 0.99871 0.74384 0.0
C243 C 0.12254 0.96743 0.75157 0.0
N244 N 0.12975 0.97548 0.77704 0.0
O245 O 0.10827 0.94947 0.69415 0.0
H246 H 0.12255 0.01325 0.73357 0.0
H247 H 0.12159 0.95159 0.74817 0.0
O248 O 0.08572 0.98294 0.69164 0.0
C249 C 0.1231 0.93769 0.69509 0.0
O250 O 0.14092 0.94534 0.69878 0.0
N251 N 0.12169 0.00349 0.67953 0.0
C252 C 0.13901 0.03822 0.65697 0.0
C253 C 0.11824 0.03621 0.65848 0.0
C254 C 0.10984 0.01865 0.66964 0.0
C255 C 0.14184 0.00538 0.67893 0.0
C256 C 0.15081 0.02264 0.66801 0.0
H257 H 0.09394 0.01699 0.66867 0.0
H258 H 0.15101 0.99299 0.68591 0.0
H259 H 0.08782 0.99195 0.63168 0.0
H260 H 0.12664 0.95486 0.58365 0.0
H261 H 0.13507 0.00643 0.78767 0.0
H262 H 0.10853 0.04783 0.65021 0.0
H263 H 0.16686 0.02324 0.66674 0.0
C264 C 0.71489 0.87916 0.88593 0.0
C265 C 0.71471 0.87696 0.85554 0.0
N266 N 0.72421 0.8599 0.84869 0.0
N267 N 0.72438 0.86357 0.89832 0.0
C268 C 0.72993 0.85198 0.87508 0.0
H269 H 0.7085 0.89138 0.8984 0.0
Co270 Co 0.72627 0.86185 0.93932 0.0
C271 C 0.74902 0.82465 0.95034 0.0
O272 O 0.76099 0.83431 0.96845 0.0
N273 N 0.72672 0.86112 0.98149 0.0
C274 C 0.71831 0.85238 0.02786 0.0
C275 C 0.72323 0.84551 0.99986 0.0
C276 C 0.72333 0.87723 0.99892 0.0
N277 N 0.71824 0.87241 0.02713 0.0
O278 O 0.69954 0.85238 0.93967 0.0
H279 H 0.72208 0.83016 0.99287 0.0
H280 H 0.72176 0.89213 0.99021 0.0
O281 O 0.73512 0.83407 0.93693 0.0
C282 C 0.68523 0.86417 0.94529 0.0
O283 O 0.68916 0.88129 0.95818 0.0
N284 N 0.75258 0.8723 0.93678 0.0
C285 C 0.78562 0.89442 0.9172 0.0
C286 C 0.78349 0.87424 0.90965 0.0
C287 C 0.76689 0.86353 0.91948 0.0
C288 C 0.75483 0.8917 0.94517 0.0
C289 C 0.7714 0.9028 0.93638 0.0
H290 H 0.76482 0.84875 0.91065 0.0
H291 H 0.74299 0.89941 0.9563 0.0
H292 H 0.7379 0.83807 0.87738 0.0
H293 H 0.70857 0.88742 0.83964 0.0
H294 H 0.71366 0.84332 0.04655 0.0
H295 H 0.79365 0.86709 0.8943 0.0
H296 H 0.77231 0.91825 0.94315 0.0
C297 C 0.87374 0.96353 0.63806 0.0
C298 C 0.87794 0.96392 0.60815 0.0
N299 N 0.89438 0.97499 0.60409 0.0
N300 N 0.88763 0.974 0.65303 0.0
C301 C 0.89999 0.98099 0.63163 0.0
H302 H 0.86093 0.95657 0.64815 0.0
Co303 Co 0.88627 0.97765 0.69413 0.0
C304 C 0.92592 0.99463 0.71126 0.0
O305 O 0.91764 0.00719 0.72988 0.0
N306 N 0.88364 0.98101 0.73665 0.0
C307 C 0.87422 0.99404 0.78033 0.0
C308 C 0.88002 0.99816 0.75165 0.0
C309 C 0.88013 0.9667 0.75746 0.0
N310 N 0.8739 0.97416 0.78389 0.0
O311 O 0.89222 0.94989 0.69848 0.0
H312 H 0.8804 0.01294 0.74215 0.0
H313 H 0.8806 0.95096 0.75301 0.0
O314 O 0.91504 0.98301 0.69565 0.0
C315 C 0.87743 0.93807 0.69939 0.0
O316 O 0.85977 0.94553 0.70515 0.0
N317 N 0.87906 0.0043 0.68725 0.0
C318 C 0.86165 0.03938 0.66594 0.0
C319 C 0.88237 0.03672 0.66513 0.0
C320 C 0.89078 0.01897 0.67558 0.0
C321 C 0.85901 0.00686 0.68907 0.0
C322 C 0.85002 0.02431 0.67881 0.0
H323 H 0.90649 0.01672 0.67246 0.0
H324 H 0.84985 0.99481 0.69727 0.0
H325 H 0.91253 0.99065 0.63596 0.0
H326 H 0.86895 0.95753 0.59055 0.0
H327 H 0.8695 0.00489 0.7967 0.0
H328 H 0.89197 0.04792 0.65543 0.0
H329 H 0.83397 0.02538 0.67934 0.0
C330 C 0.78927 0.1254 0.38947 0.0
C331 C 0.78852 0.12952 0.35956 0.0
N332 N 0.77664 0.14543 0.35555 0.0
N333 N 0.77819 0.1388 0.40442 0.0
C334 C 0.77048 0.15079 0.3831 0.0
H335 H 0.79702 0.11304 0.39964 0.0
Co336 Co 0.77514 0.13754 0.44541 0.0
C337 C 0.75914 0.17689 0.46462 0.0
O338 O 0.74856 0.16845 0.48572 0.0
N339 N 0.77258 0.1351 0.48787 0.0
C340 C 0.76317 0.1229 0.53202 0.0
C341 C 0.75713 0.12751 0.50354 0.0
C342 C 0.78753 0.13568 0.50816 0.0
N343 N 0.78251 0.1276 0.53472 0.0
O344 O 0.80281 0.1438 0.44869 0.0
H345 H 0.7426 0.12417 0.49463 0.0
H346 H 0.80233 0.14085 0.50326 0.0
O347 O 0.76947 0.16611 0.44696 0.0
C348 C 0.81499 0.12937 0.45125 0.0
O349 O 0.80806 0.11177 0.45879 0.0
N350 N 0.74855 0.13008 0.43934 0.0
C351 C 0.71404 0.11262 0.41636 0.0
C352 C 0.71587 0.13344 0.41833 0.0
C353 C 0.73333 0.14191 0.42966 0.0
C354 C 0.74676 0.10987 0.43853 0.0
C355 C 0.72961 0.10083 0.42745 0.0
H356 H 0.73496 0.15785 0.42851 0.0
H357 H 0.75924 0.10071 0.44511 0.0
H358 H 0.76032 0.16293 0.38754 0.0
H359 H 0.79536 0.12087 0.34196 0.0
H360 H 0.75443 0.11494 0.5484 0.0
H361 H 0.70427 0.14314 0.41 0.0
H362 H 0.72915 0.08475 0.42582 0.0
C363 C 0.62703 0.04531 0.13019 0.0
C364 C 0.6227 0.04317 0.10044 0.0
N365 N 0.60847 0.0292 0.09765 0.0
N366 N 0.61543 0.03295 0.14623 0.0
C367 C 0.60424 0.02329 0.12575 0.0
H368 H 0.63852 0.05471 0.13942 0.0
Co369 Co 0.61783 0.02976 0.18727 0.0
C370 C 0.58016 0.01014 0.2067 0.0
O371 O 0.58952 0.99923 0.22653 0.0
N372 N 0.62121 0.02693 0.22969 0.0
C373 C 0.63362 0.01665 0.27333 0.0
C374 C 0.62876 0.01113 0.24472 0.0
C375 C 0.62103 0.04162 0.25051 0.0
N376 N 0.62914 0.03604 0.2768 0.0
O377 O 0.60949 0.05686 0.19153 0.0
H378 H 0.63176 0.99663 0.23531 0.0
H379 H 0.61595 0.05657 0.24632 0.0
O380 O 0.58997 0.02183 0.18973 0.0
C381 C 0.62334 0.0697 0.19377 0.0
O382 O 0.64148 0.06343 0.19927 0.0
N383 N 0.62749 0.00393 0.18046 0.0
C384 C 0.64841 0.97159 0.15684 0.0
C385 C 0.62755 0.9712 0.15874 0.0
C386 C 0.61731 0.98761 0.17053 0.0
C387 C 0.64772 0.00417 0.17996 0.0
C388 C 0.65846 0.9881 0.16868 0.0
H389 H 0.60131 0.98763 0.16954 0.0
H390 H 0.65553 0.0174 0.18719 0.0
H391 H 0.59363 0.01175 0.13117 0.0
H392 H 0.63033 0.05042 0.08216 0.0
H393 H 0.64144 0.0075 0.28937 0.0
H394 H 0.61913 0.95893 0.14947 0.0
H395 H 0.67452 0.98899 0.1682 0.0
C396 C 0.70625 0.1291 0.12064 0.0
C397 C 0.70796 0.13235 0.15077 0.0
N398 N 0.72142 0.14695 0.15516 0.0
N399 N 0.71849 0.14159 0.10603 0.0
C400 C 0.72748 0.15237 0.12758 0.0
H401 H 0.69695 0.11806 0.10997 0.0
Co402 Co 0.72098 0.14138 0.06503 0.0
C403 C 0.74491 0.17783 0.05104 0.0
O404 O 0.75609 0.16801 0.03201 0.0
N405 N 0.72237 0.1405 0.02306 0.0
C406 C 0.71446 0.14812 0.97617 0.0
C407 C 0.71838 0.15562 0.00407 0.0
C408 C 0.72046 0.12393 0.00606 0.0
N409 N 0.71542 0.12811 0.97752 0.0
O410 O 0.6949 0.15249 0.06265 0.0
H411 H 0.71625 0.17098 0.01055 0.0
H412 H 0.7201 0.10907 0.01523 0.0
O413 O 0.73142 0.16863 0.06564 0.0
C414 C 0.68026 0.14143 0.05574 0.0
O415 O 0.68385 0.12445 0.04223 0.0
N416 N 0.7462 0.12914 0.06954 0.0
C417 C 0.7771 0.10563 0.09271 0.0
C418 C 0.7783 0.12649 0.09306 0.0
C419 C 0.7626 0.13796 0.08186 0.0
C420 C 0.7451 0.10886 0.06822 0.0
C421 C 0.76041 0.09685 0.07934 0.0
H422 H 0.76312 0.15374 0.08589 0.0
H423 H 0.7315 0.10185 0.06098 0.0
H424 H 0.73845 0.16377 0.12318 0.0
H425 H 0.70052 0.12398 0.1681 0.0
H426 H 0.70966 0.15672 0.95707 0.0
H427 H 0.79054 0.13398 0.10402 0.0
H428 H 0.75871 0.08082 0.07872 0.0
C429 C 0.62908 0.95496 0.86637 0.0
C430 C 0.62481 0.95602 0.89628 0.0
N431 N 0.60924 0.96838 0.89994 0.0
N432 N 0.61613 0.96639 0.85109 0.0
C433 C 0.60416 0.97434 0.87218 0.0
H434 H 0.64148 0.94712 0.85655 0.0
Co435 Co 0.61822 0.97124 0.81036 0.0
C436 C 0.57982 0.9918 0.7948 0.0
O437 O 0.58878 0.00496 0.7779 0.0
N438 N 0.62135 0.9759 0.76829 0.0
C439 C 0.63089 0.99021 0.72562 0.0
C440 C 0.62558 0.99344 0.75476 0.0
C441 C 0.62411 0.96228 0.74624 0.0
N442 N 0.63033 0.9705 0.72032 0.0
O443 O 0.61026 0.94425 0.80374 0.0
H444 H 0.62591 0.00782 0.76554 0.0
H445 H 0.623 0.94642 0.74938 0.0
O446 O 0.59002 0.97877 0.80885 0.0
C447 C 0.62437 0.93165 0.80229 0.0
O448 O 0.6425 0.93829 0.79774 0.0
N449 N 0.62752 0.9969 0.81942 0.0
C450 C 0.64809 0.02878 0.84505 0.0
C451 C 0.62721 0.02833 0.84504 0.0
C452 C 0.61717 0.01215 0.83231 0.0
C453 C 0.64774 0.99751 0.81814 0.0
C454 C 0.65831 0.01335 0.83057 0.0
H455 H 0.60127 0.01138 0.83479 0.0
H456 H 0.65575 0.98505 0.80867 0.0
H457 H 0.59246 0.98493 0.86747 0.0
H458 H 0.6334 0.94934 0.91409 0.0
H459 H 0.6358 1.0015 0.71007 0.0
H460 H 0.61871 0.03973 0.85642 0.0
H461 H 0.67439 0.01313 0.82974 0.0
C462 C 0.77574 0.88339 0.60727 0.0
C463 C 0.77266 0.88118 0.63729 0.0
N464 N 0.76717 0.86223 0.64239 0.0
N465 N 0.77202 0.86598 0.59341 0.0
C466 C 0.76692 0.85321 0.61548 0.0
H467 H 0.77937 0.89714 0.59594 0.0
Co468 Co 0.77185 0.86487 0.55212 0.0
C469 C 0.7539 0.82497 0.53902 0.0
O470 O 0.74071 0.83279 0.52094 0.0
N471 N 0.77223 0.86507 0.50924 0.0
C472 C 0.76367 0.87268 0.46242 0.0
C473 C 0.75681 0.86697 0.49004 0.0
C474 C 0.78829 0.86918 0.49205 0.0
N475 N 0.78357 0.87449 0.46377 0.0
O476 O 0.79946 0.85835 0.55405 0.0
H477 H 0.74129 0.86623 0.49606 0.0
H478 H 0.80322 0.86943 0.50044 0.0
O479 O 0.76612 0.83624 0.55284 0.0
C480 C 0.81127 0.87312 0.55588 0.0
O481 O 0.8045 0.89097 0.54932 0.0
N482 N 0.745 0.87274 0.5531 0.0
C483 C 0.71203 0.8939 0.57423 0.0
C484 C 0.71431 0.87351 0.5805 0.0
C485 C 0.73088 0.86318 0.56969 0.0
C486 C 0.7423 0.89211 0.54498 0.0
C487 C 0.72572 0.9028 0.55465 0.0
H488 H 0.73335 0.84819 0.57755 0.0
H489 H 0.75392 0.89982 0.53293 0.0
H490 H 0.76176 0.83814 0.61178 0.0
H491 H 0.77332 0.89283 0.65397 0.0
H492 H 0.75441 0.87691 0.44375 0.0
H493 H 0.70443 0.86594 0.59581 0.0
H494 H 0.72445 0.91833 0.54844 0.0
C495 C 0.87525 0.03999 0.36667 0.0
C496 C 0.8783 0.03858 0.39685 0.0
N497 N 0.89395 0.02648 0.40155 0.0
N498 N 0.88899 0.02901 0.3523 0.0
C499 C 0.9002 0.02083 0.37417 0.0
H500 H 0.86369 0.04849 0.35575 0.0
Co501 Co 0.88956 0.02827 0.31101 0.0
C502 C 0.9279 0.00824 0.29595 0.0
O503 O 0.91884 0.99691 0.27625 0.0
N504 N 0.88915 0.02881 0.2688 0.0
C505 C 0.89685 0.03901 0.22296 0.0
C506 C 0.9042 0.03426 0.25061 0.0
C507 C 0.8727 0.0309 0.25157 0.0
N508 N 0.87691 0.03734 0.22362 0.0
O509 O 0.89788 0.05548 0.31161 0.0
H510 H 0.91935 0.03684 0.2576 0.0
H511 H 0.8578 0.03027 0.26043 0.0
O512 O 0.9178 0.02062 0.31148 0.0
C513 C 0.88568 0.06946 0.30596 0.0
O514 O 0.869 0.06509 0.29226 0.0
N515 N 0.88019 1.00158 0.3126 0.0
C516 C 0.86057 0.9672 0.33285 0.0
C517 C 0.88132 0.96879 0.33433 0.0
C518 C 0.89074 0.98619 0.32487 0.0
C519 C 0.86009 0.99984 0.30942 0.0
C520 C 0.85 0.98275 0.31915 0.0
H521 H 0.90622 0.98768 0.33031 0.0
H522 H 0.85149 0.0125 0.3021 0.0
H523 H 0.9127 0.01105 0.37023 0.0
H524 H 0.86934 0.04544 0.41409 0.0
H525 H 0.90552 0.04481 0.2046 0.0
H526 H 0.89019 0.95722 0.34461 0.0
H527 H 0.83392 0.9825 0.31814 0.0
C528 C 0.80237 0.63193 0.62233 0.0
C529 C 0.80072 0.63701 0.65187 0.0
N530 N 0.78645 0.65096 0.65445 0.0
N531 N 0.78942 0.6428 0.60618 0.0
C532 C 0.77988 0.65429 0.62639 0.0
H533 H 0.81181 0.62036 0.61339 0.0
Co534 Co 0.78543 0.63901 0.56559 0.0
C535 C 0.76403 0.67545 0.54436 0.0
O536 O 0.75341 0.66507 0.52535 0.0
N537 N 0.78182 0.6341 0.52364 0.0
C538 C 0.7709 0.61984 0.48166 0.0
C539 C 0.76591 0.62566 0.51007 0.0
C540 C 0.79603 0.63372 0.50216 0.0
N541 N 0.79005 0.62453 0.47687 0.0
O542 O 0.81205 0.64823 0.55942 0.0
H543 H 0.75174 0.62272 0.52044 0.0
H544 H 0.81095 0.63916 0.50521 0.0
O545 O 0.77632 0.6666 0.56159 0.0
C546 C 0.8254 0.63481 0.55779 0.0
O547 O 0.81981 0.61627 0.55347 0.0
N548 N 0.76019 0.62864 0.57443 0.0
C549 C 0.72869 0.60762 0.60022 0.0
C550 C 0.72773 0.62842 0.59674 0.0
C551 C 0.74372 0.63871 0.58395 0.0
C552 C 0.76106 0.60842 0.57668 0.0
C553 C 0.74544 0.59761 0.58917 0.0
H554 H 0.74326 0.65475 0.58369 0.0
H555 H 0.77442 0.60072 0.5698 0.0
H556 H 0.76788 0.66435 0.62087 0.0
H557 H 0.80846 0.62998 0.67025 0.0
H558 H 0.76159 0.61124 0.46676 0.0
H559 H 0.71528 0.63683 0.60543 0.0
H560 H 0.74679 0.58158 0.59095 0.0
C561 C 0.62337 0.55071 0.87081 0.0
C562 C 0.62017 0.54917 0.90097 0.0
N563 N 0.60566 0.53569 0.90549 0.0
N564 N 0.61086 0.5384 0.85632 0.0
C565 C 0.60017 0.52945 0.87804 0.0
H566 H 0.63437 0.55998 0.86003 0.0
Co567 Co 0.61124 0.53609 0.8152 0.0
C568 C 0.57472 0.51286 0.80021 0.0
O569 O 0.58483 0.50152 0.78173 0.0
N570 N 0.61244 0.53498 0.77316 0.0
C571 C 0.60546 0.54317 0.72614 0.0
C572 C 0.59761 0.53909 0.75376 0.0
C573 C 0.62918 0.53705 0.75668 0.0
N574 N 0.62541 0.54223 0.72806 0.0
O575 O 0.60082 0.56254 0.81304 0.0
H576 H 0.58221 0.54121 0.75979 0.0
H577 H 0.64387 0.53746 0.76632 0.0
O578 O 0.58373 0.52634 0.81517 0.0
C579 C 0.61186 0.57723 0.8062 0.0
O580 O 0.62869 0.5737 0.79235 0.0
N581 N 0.62266 0.51034 0.81954 0.0
C582 C 0.64467 0.47873 0.84371 0.0
C583 C 0.62387 0.4786 0.84457 0.0
C584 C 0.61316 0.49455 0.83262 0.0
C585 C 0.64291 0.51027 0.81756 0.0
C586 C 0.65419 0.49447 0.82899 0.0
H587 H 0.59745 0.49481 0.83685 0.0
H588 H 0.65058 0.5234 0.80987 0.0
H589 H 0.58878 0.51843 0.87394 0.0
H590 H 0.62851 0.5567 0.91828 0.0
H591 H 0.59711 0.54803 0.70684 0.0
H592 H 0.61595 0.46685 0.85609 0.0
H593 H 0.67025 0.49542 0.8286 0.0
C594 C 0.70994 0.376 0.11654 0.0
C595 C 0.71147 0.37215 0.14649 0.0
N596 N 0.72504 0.35763 0.15036 0.0
N597 N 0.7223 0.36386 0.10146 0.0
C598 C 0.73143 0.35284 0.12268 0.0
H599 H 0.70056 0.38715 0.10629 0.0
Co600 Co 0.72404 0.36504 0.06034 0.0
C601 C 0.74464 0.32718 0.04271 0.0
O602 O 0.75561 0.33647 0.02284 0.0
N603 N 0.72462 0.36732 0.01843 0.0
C604 C 0.71537 0.36283 0.97114 0.0
C605 C 0.71948 0.35354 0.99783 0.0
C606 C 0.7231 0.38486 0.00371 0.0
N607 N 0.71729 0.3826 0.97504 0.0
O608 O 0.69715 0.35587 0.05851 0.0
H609 H 0.71655 0.33803 0.00258 0.0
H610 H 0.72391 0.39915 0.01466 0.0
O611 O 0.73247 0.33707 0.05885 0.0
C612 C 0.68285 0.36768 0.05283 0.0
O613 O 0.68684 0.38489 0.04029 0.0
N614 N 0.75025 0.37513 0.06427 0.0
C615 C 0.78412 0.39482 0.08596 0.0
C616 C 0.78347 0.37397 0.08418 0.0
C617 C 0.76633 0.36444 0.07395 0.0
C618 C 0.75092 0.39544 0.06482 0.0
C619 C 0.76772 0.40558 0.07525 0.0
H620 H 0.7657 0.34855 0.07658 0.0
H621 H 0.7377 0.4039 0.05973 0.0
H622 H 0.74258 0.34165 0.11804 0.0
H623 H 0.70378 0.37999 0.16416 0.0
H624 H 0.70912 0.35577 0.95154 0.0
H625 H 0.79569 0.36496 0.09226 0.0
H626 H 0.76721 0.42166 0.07697 0.0
C627 C 0.88092 0.46042 0.36602 0.0
C628 C 0.88595 0.46206 0.39556 0.0
N629 N 0.90104 0.47512 0.39788 0.0
N630 N 0.89296 0.47214 0.34962 0.0
C631 C 0.90505 0.48102 0.36971 0.0
H632 H 0.86867 0.45184 0.3572 0.0
Co633 Co 0.88998 0.47549 0.30878 0.0
C634 C 0.92866 0.49213 0.28705 0.0
O635 O 0.91984 0.50244 0.26599 0.0
N636 N 0.88577 0.47852 0.2666 0.0
C637 C 0.87263 0.48968 0.22394 0.0
C638 C 0.87899 0.49485 0.25203 0.0
C639 C 0.8839 0.4638 0.24603 0.0
N640 N 0.87531 0.46997 0.22035 0.0
O641 O 0.8968 0.44794 0.30426 0.0
H642 H 0.87751 0.50956 0.26152 0.0
H643 H 0.8878 0.44849 0.25011 0.0
O644 O 0.91829 0.48181 0.30523 0.0
C645 C 0.88261 0.43539 0.30353 0.0
O646 O 0.86452 0.44196 0.29844 0.0
N647 N 0.88211 0.5019 0.31598 0.0
C648 C 0.8646 0.53641 0.33902 0.0
C649 C 0.88532 0.53506 0.33557 0.0
C650 C 0.89383 0.51761 0.32412 0.0
C651 C 0.86197 0.50319 0.31828 0.0
C652 C 0.8529 0.52032 0.32947 0.0
H653 H 0.90979 0.51646 0.32368 0.0
H654 H 0.85295 0.49039 0.31266 0.0
H655 H 0.91613 0.49204 0.36399 0.0
H656 H 0.87827 0.45516 0.41409 0.0
H657 H 0.86501 0.49944 0.2085 0.0
H658 H 0.89494 0.54709 0.34263 0.0
H659 H 0.83692 0.52044 0.33223 0.0
C660 C 0.79727 0.37425 0.38395 0.0
C661 C 0.79562 0.37038 0.35403 0.0
N662 N 0.78193 0.35598 0.3503 0.0
N663 N 0.78488 0.36222 0.39916 0.0
C664 C 0.77559 0.35125 0.37804 0.0
H665 H 0.80672 0.38539 0.39408 0.0
Co666 Co 0.78328 0.36383 0.44028 0.0
C667 C 0.76241 0.32659 0.45937 0.0
O668 O 0.75148 0.33666 0.47844 0.0
N669 N 0.78289 0.36658 0.48218 0.0
C670 C 0.79209 0.36234 0.52956 0.0
C671 C 0.78795 0.35291 0.50301 0.0
C672 C 0.78457 0.38422 0.49662 0.0
N673 N 0.79031 0.3821 0.52535 0.0
O674 O 0.8102 0.3546 0.44207 0.0
H675 H 0.79078 0.33735 0.49853 0.0
H676 H 0.78393 0.39845 0.48545 0.0
O677 O 0.77477 0.33582 0.44267 0.0
C678 C 0.82454 0.3664 0.4476 0.0
O679 O 0.82061 0.38362 0.46018 0.0
N680 N 0.75706 0.37397 0.43627 0.0
C681 C 0.7233 0.39352 0.41377 0.0
C682 C 0.72397 0.37268 0.41586 0.0
C683 C 0.74105 0.36322 0.42648 0.0
C684 C 0.75635 0.39428 0.43552 0.0
C685 C 0.7396 0.40435 0.42467 0.0
H686 H 0.74171 0.34732 0.42402 0.0
H687 H 0.76952 0.40278 0.44071 0.0
H688 H 0.76432 0.34021 0.38276 0.0
H689 H 0.80327 0.37817 0.33628 0.0
H690 H 0.79826 0.35538 0.54929 0.0
H691 H 0.71182 0.36362 0.40769 0.0
H692 H 0.7401 0.42042 0.42276 0.0
C693 C 0.88667 0.5528 0.62851 0.0
C694 C 0.89031 0.55126 0.59846 0.0
N695 N 0.90429 0.53717 0.59433 0.0
N696 N 0.89838 0.53987 0.6433 0.0
C697 C 0.90904 0.53057 0.6219 0.0
H698 H 0.87579 0.56239 0.63897 0.0
Co699 Co 0.89697 0.53679 0.6842 0.0
C700 C 0.93353 0.51365 0.70015 0.0
O701 O 0.92344 0.50204 0.71828 0.0
N702 N 0.89466 0.5348 0.72601 0.0
C703 C 0.89968 0.54199 0.77399 0.0
C704 C 0.90868 0.53848 0.74691 0.0
C705 C 0.8773 0.5365 0.741 0.0
N706 N 0.87989 0.54111 0.77007 0.0
O707 O 0.90724 0.56328 0.6881 0.0
H708 H 0.92426 0.54087 0.7423 0.0
H709 H 0.86299 0.53683 0.73017 0.0
O710 O 0.92448 0.52711 0.68522 0.0
C711 C 0.8961 0.57778 0.69547 0.0
O712 O 0.87904 0.57391 0.70844 0.0
N713 N 0.88566 0.51116 0.67817 0.0
C714 C 0.86414 0.47963 0.65282 0.0
C715 C 0.88494 0.47925 0.65361 0.0
C716 C 0.89542 0.49515 0.66617 0.0
C717 C 0.86537 0.51145 0.67824 0.0
C718 C 0.85432 0.49569 0.66624 0.0
H719 H 0.91128 0.49515 0.66341 0.0
H720 H 0.85762 0.52477 0.68498 0.0
H721 H 0.91977 0.51895 0.6263 0.0
H722 H 0.88253 0.55915 0.58093 0.0
H723 H 0.90703 0.54717 0.79403 0.0
H724 H 0.8931 0.46725 0.64307 0.0
H725 H 0.83828 0.49688 0.66529 0.0
C726 C 0.70955 0.62771 0.88244 0.0
C727 C 0.71093 0.63256 0.85278 0.0
N728 N 0.72386 0.64774 0.85 0.0
N729 N 0.72137 0.63989 0.89843 0.0
C730 C 0.72993 0.65198 0.87803 0.0
H731 H 0.70102 0.61553 0.89164 0.0
Co732 Co 0.72496 0.63724 0.93931 0.0
C733 C 0.74399 0.67533 0.95914 0.0
O734 O 0.75445 0.66634 0.97987 0.0
N735 N 0.72813 0.6335 0.98153 0.0
C736 C 0.73872 0.62053 0.02461 0.0
C737 C 0.74411 0.62616 0.99626 0.0
C738 C 0.71345 0.63277 0.00225 0.0
N739 N 0.71924 0.62429 0.02819 0.0
O740 O 0.69794 0.64547 0.94412 0.0
H741 H 0.75865 0.62379 0.98671 0.0
H742 H 0.69839 0.63743 0.99819 0.0
O743 O 0.73267 0.6652 0.94204 0.0
C744 C 0.68478 0.63187 0.94538 0.0
O745 O 0.69051 0.61344 0.95033 0.0
N746 N 0.75087 0.62804 0.93181 0.0
C747 C 0.78353 0.60903 0.90605 0.0
C748 C 0.78283 0.62987 0.90819 0.0
C749 C 0.76636 0.63914 0.9212 0.0
C750 C 0.75169 0.60776 0.931 0.0
C751 C 0.76802 0.59792 0.91861 0.0
H752 H 0.76557 0.65515 0.92048 0.0
H753 H 0.73904 0.59919 0.93854 0.0
H754 H 0.7408 0.66328 0.88342 0.0
H755 H 0.7039 0.62472 0.83449 0.0
H756 H 0.74809 0.61266 0.04032 0.0
H757 H 0.79449 0.63897 0.89862 0.0
H758 H 0.76783 0.58182 0.91701 0.0
C759 C 0.62681 0.46067 0.13587 0.0
C760 C 0.62223 0.46231 0.10617 0.0
N761 N 0.60708 0.47525 0.10336 0.0
N762 N 0.61441 0.47225 0.15191 0.0
C763 C 0.60258 0.4811 0.1314 0.0
H764 H 0.63898 0.45215 0.14507 0.0
Co765 Co 0.61673 0.47539 0.19295 0.0
C766 C 0.57756 0.49212 0.21311 0.0
O767 O 0.58584 0.50246 0.2346 0.0
N768 N 0.62032 0.47821 0.23532 0.0
C769 C 0.63272 0.48958 0.27838 0.0
C770 C 0.62615 0.49472 0.25037 0.0
C771 C 0.62296 0.46338 0.25553 0.0
N772 N 0.63112 0.46972 0.28144 0.0
O773 O 0.60969 0.44786 0.19695 0.0
H774 H 0.62693 0.50957 0.2412 0.0
H775 H 0.61997 0.44793 0.25105 0.0
O776 O 0.58837 0.4818 0.1955 0.0
C777 C 0.62379 0.4352 0.19749 0.0
O778 O 0.64192 0.44159 0.20281 0.0
N779 N 0.62482 0.50178 0.18635 0.0
C780 C 0.64282 0.53627 0.16415 0.0
C781 C 0.62203 0.53492 0.16658 0.0
C782 C 0.61328 0.51748 0.1776 0.0
C783 C 0.645 0.5031 0.18519 0.0
C784 C 0.65431 0.52022 0.17441 0.0
H785 H 0.59732 0.51632 0.17721 0.0
H786 H 0.6539 0.49031 0.19131 0.0
H787 H 0.59132 0.49202 0.13676 0.0
H788 H 0.63023 0.45547 0.0879 0.0
H789 H 0.63975 0.49956 0.29413 0.0
H790 H 0.61256 0.54694 0.15899 0.0
H791 H 0.67035 0.52033 0.17247 0.0
C792 C 0.21763 0.37935 0.39047 0.0
C793 C 0.21765 0.37517 0.3605 0.0
N794 N 0.22709 0.3577 0.35642 0.0
N795 N 0.22681 0.36451 0.4053 0.0
C796 C 0.23238 0.35146 0.38391 0.0
H797 H 0.21189 0.39274 0.40074 0.0
Co798 Co 0.23091 0.36513 0.44622 0.0
C799 C 0.25169 0.32606 0.45755 0.0
O800 O 0.26632 0.33454 0.47212 0.0
N801 N 0.23461 0.3667 0.48855 0.0
C802 C 0.24797 0.37388 0.53292 0.0
C803 C 0.25185 0.36855 0.50392 0.0
C804 C 0.22051 0.37082 0.5093 0.0
N805 N 0.2282 0.37559 0.53621 0.0
O806 O 0.2037 0.35738 0.45078 0.0
H807 H 0.26656 0.36787 0.49438 0.0
H808 H 0.20488 0.37198 0.5045 0.0
O809 O 0.23788 0.33673 0.44625 0.0
C810 C 0.191 0.37146 0.45071 0.0
O811 O 0.19726 0.38969 0.45582 0.0
N812 N 0.25704 0.37411 0.43913 0.0
C813 C 0.28948 0.39503 0.41562 0.0
C814 C 0.28715 0.37453 0.41027 0.0
C815 C 0.27082 0.36435 0.42216 0.0
C816 C 0.2595 0.39378 0.44564 0.0
C817 C 0.27577 0.4044 0.43467 0.0
H818 H 0.26858 0.34906 0.41566 0.0
H819 H 0.24815 0.40155 0.45816 0.0
H820 H 0.24071 0.33797 0.38818 0.0
H821 H 0.21229 0.38483 0.34291 0.0
H822 H 0.25898 0.37751 0.54966 0.0
H823 H 0.29701 0.36663 0.39531 0.0
H824 H 0.27703 0.42007 0.44003 0.0
C825 C 0.38033 0.45591 0.13078 0.0
C826 C 0.38476 0.45692 0.10095 0.0
N827 N 0.39991 0.46978 0.09734 0.0
N828 N 0.39278 0.46785 0.14614 0.0
C829 C 0.4046 0.47611 0.12509 0.0
H830 H 0.3681 0.44774 0.14045 0.0
Co831 Co 0.39018 0.47267 0.1869 0.0
C832 C 0.42812 0.49411 0.20287 0.0
O833 O 0.41865 0.50769 0.21833 0.0
N834 N 0.38651 0.4773 0.22898 0.0
C835 C 0.37629 0.4918 0.27117 0.0
C836 C 0.38244 0.49492 0.2424 0.0
C837 C 0.3828 0.46373 0.2508 0.0
N838 N 0.37611 0.47208 0.27637 0.0
O839 O 0.39825 0.44566 0.19371 0.0
H840 H 0.38254 0.50932 0.23163 0.0
H841 H 0.38349 0.44786 0.24768 0.0
O842 O 0.41835 0.48054 0.18922 0.0
C843 C 0.38394 0.43327 0.19503 0.0
O844 O 0.36581 0.44024 0.19843 0.0
N845 N 0.38059 0.4982 0.17774 0.0
C846 C 0.35925 0.52996 0.15323 0.0
C847 C 0.38013 0.52975 0.15243 0.0
C848 C 0.39057 0.51362 0.16466 0.0
C849 C 0.3604 0.49853 0.17961 0.0
C850 C 0.34946 0.51432 0.16785 0.0
H851 H 0.40646 0.51308 0.1618 0.0
H852 H 0.35269 0.48594 0.18924 0.0
H853 H 0.4159 0.48713 0.12977 0.0
H854 H 0.37652 0.44987 0.08309 0.0
H855 H 0.37119 0.50321 0.28641 0.0
H856 H 0.38832 0.54131 0.14093 0.0
H857 H 0.3334 0.51393 0.16939 0.0
C858 C 0.28314 0.62594 0.88727 0.0
C859 C 0.27846 0.62722 0.85756 0.0
N860 N 0.26795 0.64402 0.85334 0.0
N861 N 0.2754 0.64175 0.90167 0.0
C862 C 0.26629 0.65267 0.88036 0.0
H863 H 0.29098 0.61385 0.89806 0.0
Co864 Co 0.27655 0.64321 0.94257 0.0
C865 C 0.25658 0.68131 0.95866 0.0
O866 O 0.24671 0.67223 0.98 0.0
N867 N 0.27883 0.64374 0.98446 0.0
C868 C 0.2915 0.65203 0.02864 0.0
C869 C 0.28568 0.65901 1.00121 0.0
C870 C 0.28101 0.62758 0.00223 0.0
N871 N 0.28896 0.63213 0.02913 0.0
O872 O 0.30346 0.65194 0.93895 0.0
H873 H 0.28839 0.67392 0.99311 0.0
H874 H 0.27936 0.6125 0.99423 0.0
O875 O 0.2682 0.67128 0.94178 0.0
C876 C 0.31746 0.6397 0.94429 0.0
O877 O 0.31326 0.6231 0.95845 0.0
N878 N 0.25025 0.63307 0.94375 0.0
C879 C 0.21712 0.61162 0.92305 0.0
C880 C 0.21708 0.63252 0.92354 0.0
C881 C 0.2339 0.64292 0.93312 0.0
C882 C 0.24998 0.61278 0.94551 0.0
C883 C 0.23362 0.60178 0.9354 0.0
H884 H 0.2342 0.65864 0.92866 0.0
H885 H 0.26339 0.60488 0.95138 0.0
H886 H 0.25765 0.66596 0.88471 0.0
H887 H 0.28184 0.61631 0.8405 0.0
H888 H 0.2986 0.66079 0.04587 0.0
H889 H 0.20471 0.64092 0.91456 0.0
H890 H 0.23474 0.5857 0.93493 0.0
C891 C 0.1366 0.53586 0.63744 0.0
C892 C 0.1326 0.53518 0.60744 0.0
N893 N 0.11482 0.52638 0.6036 0.0
N894 N 0.12134 0.52773 0.65263 0.0
C895 C 0.10823 0.52206 0.63134 0.0
H896 H 0.15007 0.54145 0.64754 0.0
Co897 Co 0.12168 0.5256 0.69413 0.0
C898 C 0.08263 0.5051 0.70626 0.0
O899 O 0.091 0.49066 0.72144 0.0
N900 N 0.12301 0.52402 0.73697 0.0
C901 C 0.12912 0.51301 0.78317 0.0
C902 C 0.12402 0.50765 0.75455 0.0
C903 C 0.12748 0.53911 0.756 0.0
N904 N 0.13158 0.53289 0.78405 0.0
O905 O 0.11407 0.55305 0.69567 0.0
H906 H 0.12289 0.49245 0.74689 0.0
H907 H 0.1291 0.55435 0.74919 0.0
O908 O 0.09334 0.51871 0.6945 0.0
C909 C 0.12831 0.56553 0.69484 0.0
O910 O 0.14648 0.55909 0.69962 0.0
N911 N 0.13057 0.49913 0.69014 0.0
C912 C 0.1518 0.46575 0.67039 0.0
C913 C 0.13159 0.46816 0.66326 0.0
C914 C 0.12125 0.48495 0.67332 0.0
C915 C 0.14989 0.49661 0.69841 0.0
C916 C 0.16062 0.47986 0.6894 0.0
H917 H 0.10628 0.48723 0.66545 0.0
H918 H 0.15738 0.50827 0.71071 0.0
H919 H 0.09433 0.51456 0.63592 0.0
H920 H 0.14248 0.53984 0.58971 0.0
H921 H 0.13187 0.5028 0.80136 0.0
H922 H 0.12412 0.458 0.64824 0.0
H923 H 0.17601 0.47858 0.69612 0.0
C924 C 0.21982 0.61994 0.61077 0.0
C925 C 0.21839 0.62213 0.64107 0.0
N926 N 0.22444 0.64065 0.64825 0.0
N927 N 0.22674 0.63695 0.59879 0.0
C928 C 0.2294 0.64941 0.62214 0.0
H929 H 0.21607 0.60676 0.59808 0.0
Co930 Co 0.22908 0.63908 0.55798 0.0
C931 C 0.25166 0.67663 0.54941 0.0
O932 O 0.26442 0.6673 0.53217 0.0
N933 N 0.22994 0.64 0.51599 0.0
C934 C 0.22211 0.64821 0.46916 0.0
C935 C 0.22812 0.65536 0.49661 0.0
C936 C 0.22468 0.62389 0.49977 0.0
N937 N 0.21962 0.62841 0.47147 0.0
O938 O 0.20207 0.64783 0.55712 0.0
H939 H 0.2285 0.67093 0.50257 0.0
H940 H 0.22224 0.60937 0.50946 0.0
O941 O 0.23725 0.66699 0.5611 0.0
C942 C 0.18838 0.63497 0.55367 0.0
O943 O 0.19322 0.61718 0.54396 0.0
N944 N 0.2557 0.62943 0.56099 0.0
C945 C 0.28917 0.60816 0.58083 0.0
C946 C 0.28546 0.62759 0.59086 0.0
C947 C 0.26868 0.63788 0.58084 0.0
C948 C 0.25969 0.61095 0.54982 0.0
C949 C 0.27646 0.60025 0.55897 0.0
H950 H 0.26532 0.65195 0.59129 0.0
H951 H 0.24915 0.60352 0.53569 0.0
H952 H 0.23483 0.66453 0.6201 0.0
H953 H 0.21383 0.61073 0.65672 0.0
H954 H 0.21759 0.65715 0.45023 0.0
H955 H 0.29447 0.6343 0.60817 0.0
H956 H 0.27874 0.58539 0.55023 0.0
C957 C 0.12818 0.46026 0.36944 0.0
C958 C 0.12387 0.46159 0.39926 0.0
N959 N 0.10805 0.47364 0.40252 0.0
N960 N 0.11496 0.4711 0.3537 0.0
C961 C 0.10287 0.47921 0.37459 0.0
H962 H 0.14077 0.45253 0.35997 0.0
Co963 Co 0.11716 0.4744 0.31248 0.0
C964 C 0.07819 0.49261 0.29398 0.0
O965 O 0.0871 0.50538 0.27639 0.0
N966 N 0.12064 0.47744 0.27 0.0
C967 C 0.13071 0.4905 0.22668 0.0
C968 C 0.12426 0.4946 0.25502 0.0
C969 C 0.1249 0.46312 0.2495 0.0
N970 N 0.13152 0.47063 0.22332 0.0
O971 O 0.11061 0.44672 0.30827 0.0
H972 H 0.12358 0.5094 0.2644 0.0
H973 H 0.12471 0.44738 0.25407 0.0
O974 O 0.08853 0.4805 0.30965 0.0
C975 C 0.1252 0.43463 0.30813 0.0
O976 O 0.1431 0.44176 0.30322 0.0
N977 N 0.125 0.50086 0.3192 0.0
C978 C 0.14323 0.53518 0.34129 0.0
C979 C 0.12247 0.53316 0.34185 0.0
C980 C 0.11361 0.51582 0.3308 0.0
C981 C 0.14512 0.50291 0.31747 0.0
C982 C 0.15453 0.52004 0.32802 0.0
H983 H 0.09782 0.51404 0.33356 0.0
H984 H 0.15399 0.49065 0.30921 0.0
H985 H 0.09094 0.48948 0.36964 0.0
H986 H 0.13252 0.4553 0.41732 0.0
H987 H 0.13562 0.50139 0.21048 0.0
H988 H 0.1132 0.54448 0.352 0.0
H989 H 0.17061 0.52079 0.32764 0.0
C990 C 0.29414 0.3736 0.12124 0.0
C991 C 0.29269 0.37022 0.15137 0.0
N992 N 0.2802 0.35482 0.15564 0.0
N993 N 0.28271 0.36034 0.10659 0.0
C994 C 0.27444 0.349 0.12815 0.0
H995 H 0.30276 0.38518 0.1106 0.0
Co996 Co 0.28085 0.36026 0.06546 0.0
C997 C 0.25807 0.3232 0.05195 0.0
O998 O 0.24621 0.33293 0.03375 0.0
N999 N 0.28022 0.36098 0.0233 0.0
C1000 C 0.28802 0.35373 0.97613 0.0
C1001 C 0.28328 0.34597 0.00367 0.0
C1002 C 0.28366 0.37762 0.00708 0.0
N1003 N 0.2886 0.37367 0.97851 0.0
O1004 O 0.30761 0.35061 0.06426 0.0
H1005 H 0.28445 0.33041 0.00947 0.0
H1006 H 0.28499 0.39227 0.01676 0.0
O1007 O 0.27176 0.33257 0.0659 0.0
C1008 C 0.32168 0.36279 0.05906 0.0
O1009 O 0.31728 0.38021 0.04748 0.0
N1010 N 0.25477 0.37105 0.06876 0.0
C1011 C 0.22223 0.39338 0.0897 0.0
C1012 C 0.22304 0.37265 0.09371 0.0
C1013 C 0.23939 0.36181 0.08323 0.0
C1014 C 0.25384 0.39106 0.06381 0.0
C1015 C 0.23758 0.40235 0.07326 0.0
H1016 H 0.24028 0.34636 0.08944 0.0
H1017 H 0.26654 0.39882 0.05502 0.0
H1018 H 0.2643 0.33682 0.12396 0.0
H1019 H 0.29959 0.37895 0.16884 0.0
H1020 H 0.29299 0.3453 0.95693 0.0
H1021 H 0.21196 0.36495 0.10686 0.0
H1022 H 0.23772 0.41824 0.06918 0.0
C1023 C 0.37526 0.54285 0.86663 0.0
C1024 C 0.3799 0.54191 0.89642 0.0
N1025 N 0.39585 0.53001 0.89968 0.0
N1026 N 0.38836 0.53181 0.85099 0.0
C1027 C 0.40077 0.52416 0.8718 0.0
H1028 H 0.36256 0.5504 0.85716 0.0
Co1029 Co 0.38619 0.52745 0.81004 0.0
C1030 C 0.42556 0.50978 0.79256 0.0
O1031 O 0.41732 0.49723 0.77387 0.0
N1032 N 0.38295 0.52331 0.76785 0.0
C1033 C 0.37344 0.50956 0.72473 0.0
C1034 C 0.37903 0.50593 0.75367 0.0
C1035 C 0.37978 0.53725 0.74638 0.0
N1036 N 0.37356 0.52936 0.72022 0.0
O1037 O 0.39248 0.55499 0.80429 0.0
H1038 H 0.37927 0.49134 0.76384 0.0
H1039 H 0.38061 0.55306 0.75011 0.0
O1040 O 0.4147 0.52155 0.80794 0.0
C1041 C 0.37764 0.56676 0.80339 0.0
O1042 O 0.35989 0.55912 0.79898 0.0
N1043 N 0.37862 0.5011 0.81827 0.0
C1044 C 0.36092 0.46768 0.844 0.0
C1045 C 0.38168 0.46965 0.8433 0.0
C1046 C 0.39028 0.48651 0.83033 0.0
C1047 C 0.35849 0.49897 0.81754 0.0
C1048 C 0.34932 0.48226 0.82994 0.0
H1049 H 0.40613 0.48833 0.83214 0.0
H1050 H 0.34943 0.51094 0.80878 0.0
H1051 H 0.41279 0.514 0.86684 0.0
H1052 H 0.37139 0.5484 0.91447 0.0
H1053 H 0.3687 0.49844 0.70877 0.0
H1054 H 0.39115 0.45871 0.85396 0.0
H1055 H 0.33325 0.4815 0.83038 0.0
H1056 H 0.12299 0.06579 0.20067 0.0
H1057 H 0.22341 0.0663 0.10761 0.0
H1058 H 0.15908 0.01366 0.18512 0.0
H1059 H 0.1807 0.11418 0.1008 0.0
H1060 H 0.19954 0.04711 0.13598 0.0
H1061 H 0.14335 0.08415 0.1645 0.0
C1062 C 0.13503 0.05814 0.1895 0.0
C1063 C 0.13932 0.03813 0.19616 0.0
C1064 C 0.19526 0.06174 0.12805 0.0
C1065 C 0.1627 0.05906 0.15488 0.0
C1066 C 0.2089 0.07273 0.11147 0.0
C1067 C 0.20418 0.09199 0.10135 0.0
C1068 C 0.17673 0.07003 0.13521 0.0
C1069 C 0.18521 0.09955 0.10832 0.0
C1070 C 0.14659 0.06861 0.16878 0.0
C1071 C 0.155 0.02895 0.18068 0.0
N1072 N 0.17225 0.08863 0.12501 0.0
N1073 N 0.16619 0.03952 0.1611 0.0
H1074 H 0.17503 0.94398 0.32694 0.0
H1075 H 0.19256 0.905 0.49271 0.0
H1076 H 0.13553 0.95623 0.40048 0.0
H1077 H 0.22034 0.87643 0.41733 0.0
H1078 H 0.17389 0.92618 0.45882 0.0
H1079 H 0.1937 0.92091 0.35904 0.0
C1080 C 0.1702 0.94169 0.34972 0.0
C1081 C 0.15364 0.95197 0.36101 0.0
C1082 C 0.18408 0.91532 0.44959 0.0
C1083 C 0.17502 0.92592 0.39781 0.0
C1084 C 0.19496 0.90335 0.46898 0.0
C1085 C 0.20825 0.88907 0.45783 0.0
C1086 C 0.18653 0.91319 0.41867 0.0
C1087 C 0.21026 0.88729 0.42676 0.0
C1088 C 0.18082 0.92851 0.36797 0.0
C1089 C 0.148 0.94843 0.39067 0.0
N1090 N 0.19959 0.89931 0.40819 0.0
N1091 N 0.15876 0.93586 0.40806 0.0
H1092 H 0.28346 0.93431 0.60736 0.0
H1093 H 0.38243 0.93477 0.70466 0.0
H1094 H 0.3251 0.88529 0.60551 0.0
H1095 H 0.347 0.987 0.68659 0.0
H1096 H 0.36221 0.91608 0.66865 0.0
H1097 H 0.30715 0.95361 0.63601 0.0
C1098 C 0.29771 0.92763 0.61237 0.0
C1099 C 0.30215 0.908 0.60361 0.0
C1100 C 0.35907 0.9317 0.67237 0.0
C1101 C 0.32937 0.93014 0.63779 0.0
C1102 C 0.37055 0.94236 0.69301 0.0
C1103 C 0.36645 0.96253 0.69887 0.0
C1104 C 0.34322 0.94121 0.6577 0.0
C1105 C 0.35097 0.97161 0.68278 0.0
C1106 C 0.31124 0.9387 0.62911 0.0
C1107 C 0.32079 0.9002 0.61198 0.0
N1108 N 0.33986 0.96086 0.66326 0.0
N1109 N 0.33362 0.91121 0.62879 0.0
H1110 H 0.37846 0.05622 0.89219 0.0
H1111 H 0.27848 0.11907 0.91201 0.0
H1112 H 0.33233 0.05841 0.82529 0.0
H1113 H 0.32518 0.11503 0.9779 0.0
H1114 H 0.29943 0.1004 0.8772 0.0
H1115 H 0.36086 0.0815 0.92067 0.0
C1116 C 0.36482 0.06227 0.88312 0.0
C1117 C 0.35688 0.05503 0.85625 0.0
C1118 C 0.30513 0.10386 0.89919 0.0
C1119 C 0.33624 0.08381 0.8894 0.0
C1120 C 0.29314 0.11449 0.91914 0.0
C1121 C 0.29984 0.11858 0.94822 0.0
C1122 C 0.32398 0.09722 0.90835 0.0
C1123 C 0.31921 0.11249 0.95586 0.0
C1124 C 0.35464 0.07663 0.89961 0.0
C1125 C 0.33887 0.06327 0.84611 0.0
N1126 N 0.33043 0.102 0.93621 0.0
N1127 N 0.32908 0.07708 0.86281 0.0
H1128 H 0.22386 0.93666 0.88992 0.0
H1129 H 0.1231 0.93768 0.79727 0.0
H1130 H 0.17977 0.8904 0.90055 0.0
H1131 H 0.16036 0.98923 0.81079 0.0
H1132 H 0.14336 0.91937 0.83376 0.0
H1133 H 0.20058 0.95545 0.8599 0.0
C1134 C 0.20917 0.93052 0.88653 0.0
C1135 C 0.20387 0.91185 0.89834 0.0
C1136 C 0.14688 0.93478 0.82892 0.0
C1137 C 0.17708 0.93333 0.86255 0.0
C1138 C 0.13538 0.94521 0.80802 0.0
C1139 C 0.13998 0.96507 0.80079 0.0
C1140 C 0.16325 0.94419 0.84238 0.0
C1141 C 0.156 0.97409 0.81571 0.0
C1142 C 0.19587 0.94128 0.86901 0.0
C1143 C 0.1847 0.90458 0.89183 0.0
N1144 N 0.1671 0.96356 0.83547 0.0
N1145 N 0.17206 0.91527 0.87422 0.0
H1146 H 0.32442 0.88601 0.02737 0.0
H1147 H 0.33161 0.94499 0.18151 0.0
H1148 H 0.27674 0.88734 0.09189 0.0
H1149 H 0.37653 0.94592 0.11279 0.0
H1150 H 0.31321 0.92007 0.15273 0.0
H1151 H 0.34556 0.90336 0.06241 0.0
C1152 C 0.31837 0.88953 0.04906 0.0
C1153 C 0.29849 0.88524 0.05635 0.0
C1154 C 0.32722 0.92556 0.14417 0.0
C1155 C 0.32289 0.90583 0.09671 0.0
C1156 C 0.33771 0.93985 0.16053 0.0
C1157 C 0.35562 0.94775 0.14952 0.0
C1158 C 0.33466 0.9191 0.11655 0.0
C1159 C 0.36294 0.94021 0.12242 0.0
C1160 C 0.33054 0.89969 0.06909 0.0
C1161 C 0.29178 0.89062 0.08496 0.0
N1162 N 0.35236 0.92649 0.10681 0.0
N1163 N 0.30387 0.90082 0.10394 0.0
H1164 H 0.28169 0.06955 0.38989 0.0
H1165 H 0.38314 0.06788 0.2993 0.0
H1166 H 0.32474 0.117 0.39824 0.0
H1167 H 0.34704 0.01592 0.3159 0.0
H1168 H 0.36227 0.08679 0.33427 0.0
H1169 H 0.30566 0.0503 0.36182 0.0
C1170 C 0.29629 0.07588 0.38642 0.0
C1171 C 0.30109 0.09501 0.39699 0.0
C1172 C 0.35914 0.07117 0.33047 0.0
C1173 C 0.32868 0.07297 0.36344 0.0
C1174 C 0.37099 0.06039 0.31045 0.0
C1175 C 0.36688 0.04024 0.30448 0.0
C1176 C 0.34291 0.06179 0.34433 0.0
C1177 C 0.35102 0.03129 0.31985 0.0
C1178 C 0.30999 0.06484 0.37002 0.0
C1179 C 0.32018 0.10246 0.39043 0.0
N1180 N 0.33956 0.04215 0.33872 0.0
N1181 N 0.33322 0.09149 0.37391 0.0
H1182 H 0.12649 0.05703 0.606 0.0
H1183 H 0.22625 0.12049 0.58666 0.0
H1184 H 0.17323 0.05845 0.67197 0.0
H1185 H 0.17991 0.11615 0.52026 0.0
H1186 H 0.2054 0.10142 0.62109 0.0
H1187 H 0.14399 0.08252 0.57761 0.0
C1188 C 0.14025 0.06295 0.61486 0.0
C1189 C 0.14841 0.05544 0.64143 0.0
C1190 C 0.19974 0.10489 0.59907 0.0
C1191 C 0.16885 0.08447 0.60849 0.0
C1192 C 0.21167 0.11575 0.57934 0.0
C1193 C 0.20504 0.11988 0.55025 0.0
C1194 C 0.18101 0.09806 0.58969 0.0
C1195 C 0.18579 0.11358 0.54234 0.0
C1196 C 0.15036 0.07742 0.59845 0.0
C1197 C 0.16652 0.06352 0.65138 0.0
N1198 N 0.17461 0.10287 0.5618 0.0
N1199 N 0.1762 0.07746 0.63481 0.0
H1200 H 0.88018 0.93556 0.80065 0.0
H1201 H 0.78235 0.93366 0.9002 0.0
H1202 H 0.84494 0.98751 0.82121 0.0
H1203 H 0.82371 0.8844 0.89866 0.0
H1204 H 0.80587 0.95349 0.87213 0.0
H1205 H 0.86049 0.9164 0.83669 0.0
C1206 C 0.86846 0.943 0.81286 0.0
C1207 C 0.86422 0.96322 0.80763 0.0
C1208 C 0.80994 0.93841 0.87816 0.0
C1209 C 0.84159 0.94135 0.84887 0.0
C1210 C 0.79652 0.92702 0.89458 0.0
C1211 C 0.80091 0.90717 0.90219 0.0
C1212 C 0.82793 0.92995 0.86865 0.0
C1213 C 0.81943 0.89948 0.89308 0.0
C1214 C 0.85727 0.93207 0.83352 0.0
C1215 C 0.84898 0.97209 0.82448 0.0
N1216 N 0.83216 0.91081 0.87659 0.0
N1217 N 0.83815 0.96107 0.844 0.0
H1218 H 0.82197 0.1192 0.52838 0.0
H1219 H 0.82836 0.06048 0.6831 0.0
H1220 H 0.77405 0.11789 0.59239 0.0
H1221 H 0.87261 0.05744 0.61352 0.0
H1222 H 0.81048 0.08565 0.65409 0.0
H1223 H 0.84292 0.1015 0.56355 0.0
C1224 C 0.81588 0.11563 0.55004 0.0
C1225 C 0.796 0.12001 0.55718 0.0
C1226 C 0.82423 0.07963 0.64538 0.0
C1227 C 0.82008 0.09908 0.5976 0.0
C1228 C 0.83443 0.06519 0.66187 0.0
C1229 C 0.85199 0.05663 0.65072 0.0
C1230 C 0.83161 0.0856 0.61748 0.0
C1231 C 0.85928 0.06366 0.62329 0.0
C1232 C 0.82789 0.10527 0.5701 0.0
C1233 C 0.78912 0.11457 0.58566 0.0
N1234 N 0.84899 0.07757 0.60757 0.0
N1235 N 0.80105 0.10422 0.60468 0.0
H1236 H 0.69406 0.0779 0.42968 0.0
H1237 H 0.63767 0.07569 0.27282 0.0
H1238 H 0.69589 0.12553 0.36503 0.0
H1239 H 0.63808 0.02612 0.3342 0.0
H1240 H 0.65461 0.0959 0.30989 0.0
H1241 H 0.66981 0.0605 0.39843 0.0
C1242 C 0.68925 0.0848 0.40907 0.0
C1243 C 0.6972 0.10318 0.39995 0.0
C1244 C 0.65081 0.08066 0.31544 0.0
C1245 C 0.66934 0.08332 0.36405 0.0
C1246 C 0.6409 0.06908 0.29428 0.0
C1247 C 0.63647 0.04899 0.30016 0.0
C1248 C 0.65648 0.07218 0.34278 0.0
C1249 C 0.64146 0.04139 0.32843 0.0
C1250 C 0.67534 0.07488 0.39127 0.0
C1251 C 0.69011 0.11152 0.37322 0.0
N1252 N 0.65135 0.05291 0.34854 0.0
N1253 N 0.67676 0.10145 0.35614 0.0
H1254 H 0.72785 0.91117 0.03515 0.0
H1255 H 0.64197 0.93091 0.15566 0.0
H1256 H 0.68981 0.86468 0.06898 0.0
H1257 H 0.68017 0.97655 0.11944 0.0
H1258 H 0.6601 0.90597 0.12631 0.0
H1259 H 0.71169 0.93484 0.06861 0.0
C1260 C 0.71615 0.90592 0.04974 0.0
C1261 C 0.71014 0.88592 0.04908 0.0
C1262 C 0.66457 0.92144 0.125 0.0
C1263 C 0.69144 0.913 0.08759 0.0
C1264 C 0.65417 0.9357 0.14165 0.0
C1265 C 0.65958 0.9559 0.14026 0.0
C1266 C 0.68046 0.92742 0.10671 0.0
C1267 C 0.67564 0.96116 0.12181 0.0
C1268 C 0.70693 0.91944 0.06891 0.0
C1269 C 0.69506 0.8799 0.06884 0.0
N1270 N 0.68542 0.94707 0.10579 0.0
N1271 N 0.68613 0.89341 0.08711 0.0
H1272 H 0.77078 0.07276 0.1281 0.0
H1273 H 0.88422 0.06516 0.18053 0.0
H1274 H 0.81768 0.11064 0.09508 0.0
H1275 H 0.83761 0.02824 0.21693 0.0
H1276 H 0.86041 0.07991 0.14643 0.0
H1277 H 0.79523 0.05447 0.15774 0.0
C1278 C 0.78626 0.07707 0.12667 0.0
C1279 C 0.79213 0.09332 0.10893 0.0
C1280 C 0.85536 0.06851 0.16173 0.0
C1281 C 0.82023 0.07254 0.14339 0.0
C1282 C 0.86906 0.05987 0.18121 0.0
C1283 C 0.86305 0.04529 0.20189 0.0
C1284 C 0.83535 0.06266 0.16273 0.0
C1285 C 0.84295 0.03954 0.20172 0.0
C1286 C 0.8002 0.06669 0.14386 0.0
C1287 C 0.81238 0.09839 0.1086 0.0
N1288 N 0.82984 0.04827 0.18256 0.0
N1289 N 0.82564 0.0881 0.12559 0.0
H1290 H 0.64028 0.06895 0.84923 0.0
H1291 H 0.7253 0.08911 0.97093 0.0
H1292 H 0.68097 0.02379 0.88037 0.0
H1293 H 0.68749 0.13507 0.93472 0.0
H1294 H 0.70989 0.06509 0.93692 0.0
H1295 H 0.65788 0.09358 0.87963 0.0
C1296 C 0.65293 0.06422 0.86238 0.0
C1297 C 0.65916 0.04426 0.86211 0.0
C1298 C 0.70508 0.08048 0.93627 0.0
C1299 C 0.67942 0.0724 0.89702 0.0
C1300 C 0.71386 0.09418 0.95574 0.0
C1301 C 0.70774 0.11418 0.95579 0.0
C1302 C 0.68995 0.08676 0.91677 0.0
C1303 C 0.69293 0.11993 0.93536 0.0
C1304 C 0.66304 0.07831 0.87965 0.0
C1305 C 0.67579 0.03904 0.87946 0.0
N1306 N 0.68449 0.10629 0.91688 0.0
N1307 N 0.68525 0.05298 0.89627 0.0
H1308 H 0.6224 0.93275 0.70092 0.0
H1309 H 0.71638 0.93253 0.59329 0.0
H1310 H 0.65852 0.98438 0.68212 0.0
H1311 H 0.67451 0.88373 0.5952 0.0
H1312 H 0.6943 0.95173 0.62467 0.0
H1313 H 0.64028 0.91447 0.66186 0.0
C1314 C 0.63393 0.94031 0.68851 0.0
C1315 C 0.63896 0.96017 0.69512 0.0
C1316 C 0.68978 0.93691 0.61801 0.0
C1317 C 0.65947 0.93931 0.65036 0.0
C1318 C 0.70236 0.92589 0.59967 0.0
C1319 C 0.6974 0.90635 0.59114 0.0
C1320 C 0.6721 0.92837 0.62856 0.0
C1321 C 0.67919 0.89859 0.60137 0.0
C1322 C 0.64407 0.92988 0.66611 0.0
C1323 C 0.65389 0.96923 0.6779 0.0
N1324 N 0.66729 0.90954 0.61973 0.0
N1325 N 0.66368 0.9587 0.65663 0.0
H1326 H 0.82121 0.88905 0.47272 0.0
H1327 H 0.82622 0.947 0.31705 0.0
H1328 H 0.77557 0.88345 0.40527 0.0
H1329 H 0.87056 0.95049 0.38652 0.0
H1330 H 0.80832 0.92204 0.34675 0.0
H1331 H 0.84054 0.90907 0.43881 0.0
C1332 C 0.81517 0.8917 0.45076 0.0
C1333 C 0.79633 0.88451 0.44236 0.0
C1334 C 0.82209 0.92815 0.35526 0.0
C1335 C 0.81876 0.9082 0.40302 0.0
C1336 C 0.83228 0.94246 0.33837 0.0
C1337 C 0.85006 0.95086 0.34908 0.0
C1338 C 0.82965 0.92226 0.38315 0.0
C1339 C 0.85721 0.94424 0.37685 0.0
C1340 C 0.82634 0.9034 0.43129 0.0
C1341 C 0.78972 0.88889 0.41323 0.0
N1342 N 0.84698 0.93048 0.39284 0.0
N1343 N 0.80081 0.90058 0.39476 0.0
H1344 H 0.61884 0.56927 0.68362 0.0
H1345 H 0.73385 0.57704 0.64007 0.0
H1346 H 0.66472 0.53321 0.72384 0.0
H1347 H 0.68806 0.61316 0.59974 0.0
H1348 H 0.70852 0.55966 0.66889 0.0
H1349 H 0.64358 0.58399 0.65072 0.0
C1350 C 0.63404 0.56418 0.68534 0.0
C1351 C 0.63963 0.5499 0.70674 0.0
C1352 C 0.70397 0.57131 0.65364 0.0
C1353 C 0.66825 0.56713 0.66918 0.0
C1354 C 0.71844 0.58118 0.63695 0.0
C1355 C 0.71313 0.59658 0.61721 0.0
C1356 C 0.68393 0.57682 0.65077 0.0
C1357 C 0.6929 0.60153 0.61481 0.0
C1358 C 0.64824 0.57277 0.66661 0.0
C1359 C 0.65973 0.5443 0.70802 0.0
N1360 N 0.67907 0.59171 0.63139 0.0
N1361 N 0.67329 0.55297 0.68963 0.0
H1362 H 0.67725 0.45642 0.82705 0.0
H1363 H 0.69653 0.41538 0.9918 0.0
H1364 H 0.63869 0.46844 0.90172 0.0
H1365 H 0.71833 0.38402 0.91452 0.0
H1366 H 0.67975 0.43906 0.95906 0.0
H1367 H 0.69647 0.43334 0.85868 0.0
C1368 C 0.67283 0.45415 0.85003 0.0
C1369 C 0.65623 0.46416 0.8617 0.0
C1370 C 0.68832 0.42709 0.94922 0.0
C1371 C 0.67828 0.43827 0.89798 0.0
C1372 C 0.69811 0.41368 0.96792 0.0
C1373 C 0.70897 0.39774 0.95586 0.0
C1374 C 0.68951 0.42476 0.91814 0.0
C1375 C 0.71007 0.39609 0.92465 0.0
C1376 C 0.68374 0.441 0.868 0.0
C1377 C 0.65117 0.46078 0.89166 0.0
N1378 N 0.70049 0.40945 0.90681 0.0
N1379 N 0.6622 0.44826 0.90876 0.0
H1380 H 0.8651 0.43069 0.22462 0.0
H1381 H 0.80199 0.43094 0.07337 0.0
H1382 H 0.86384 0.48082 0.16422 0.0
H1383 H 0.80356 0.38229 0.13635 0.0
H1384 H 0.82696 0.44842 0.10343 0.0
H1385 H 0.8457 0.41158 0.18918 0.0
C1386 C 0.86112 0.43767 0.20372 0.0
C1387 C 0.86614 0.45761 0.1977 0.0
C1388 C 0.82197 0.43382 0.11043 0.0
C1389 C 0.84321 0.43564 0.15693 0.0
C1390 C 0.80765 0.42385 0.09335 0.0
C1391 C 0.8006 0.40504 0.10219 0.0
C1392 C 0.82927 0.42497 0.13666 0.0
C1393 C 0.80869 0.39656 0.12819 0.0
C1394 C 0.84979 0.42671 0.18349 0.0
C1395 C 0.86009 0.46567 0.17016 0.0
N1396 N 0.82244 0.40661 0.1445 0.0
N1397 N 0.84881 0.45474 0.15095 0.0
H1398 H 0.82974 0.61642 0.47969 0.0
H1399 H 0.82929 0.55542 0.32658 0.0
H1400 H 0.77909 0.61371 0.42067 0.0
H1401 H 0.87837 0.55609 0.38859 0.0
H1402 H 0.81228 0.58028 0.35723 0.0
H1403 H 0.84932 0.59847 0.44289 0.0
C1404 C 0.82277 0.61246 0.45877 0.0
C1405 C 0.80257 0.61656 0.45349 0.0
C1406 C 0.82687 0.57515 0.36395 0.0
C1407 C 0.82503 0.59542 0.41126 0.0
C1408 C 0.83658 0.5609 0.34649 0.0
C1409 C 0.85526 0.55348 0.35506 0.0
C1410 C 0.83585 0.58205 0.39029 0.0
C1411 C 0.86409 0.56143 0.38087 0.0
C1412 C 0.83399 0.60198 0.4378 0.0
C1413 C 0.79447 0.61063 0.42597 0.0
N1414 N 0.85424 0.57511 0.39767 0.0
N1415 N 0.80565 0.60022 0.40604 0.0
H1416 H 0.64156 0.48047 0.33807 0.0
H1417 H 0.70435 0.38059 0.3632 0.0
H1418 H 0.6436 0.43116 0.27625 0.0
H1419 H 0.70523 0.42974 0.42533 0.0
H1420 H 0.67931 0.39788 0.33399 0.0
H1421 H 0.6621 0.46124 0.3728 0.0
C1422 C 0.64613 0.46559 0.33182 0.0
C1423 C 0.64083 0.4576 0.3039 0.0
C1424 C 0.68482 0.40487 0.35413 0.0
C1425 C 0.66437 0.43544 0.34375 0.0
C1426 C 0.69905 0.39488 0.37109 0.0
C1427 C 0.70693 0.4036 0.39704 0.0
C1428 C 0.67835 0.42388 0.36287 0.0
C1429 C 0.69975 0.42248 0.40541 0.0
C1430 C 0.65785 0.4546 0.35173 0.0
C1431 C 0.64702 0.43806 0.29741 0.0
N1432 N 0.68594 0.43201 0.38833 0.0
N1433 N 0.65853 0.42779 0.31701 0.0
H1434 H 0.87179 0.46791 0.59581 0.0
H1435 H 0.7883 0.38426 0.58566 0.0
H1436 H 0.83076 0.4582 0.66822 0.0
H1437 H 0.81231 0.414 0.50849 0.0
H1438 H 0.80569 0.40835 0.61787 0.0
H1439 H 0.85261 0.44481 0.56498 0.0
C1440 C 0.85884 0.46072 0.60533 0.0
C1441 C 0.85294 0.46485 0.63471 0.0
C1442 C 0.80694 0.40969 0.59387 0.0
C1443 C 0.83082 0.43844 0.59942 0.0
C1444 C 0.79706 0.39599 0.57555 0.0
C1445 C 0.79872 0.39725 0.54439 0.0
C1446 C 0.81895 0.42445 0.58089 0.0
C1447 C 0.81033 0.41265 0.53234 0.0
C1448 C 0.8478 0.44769 0.58763 0.0
C1449 C 0.83581 0.45539 0.64569 0.0
N1450 N 0.82015 0.42549 0.55059 0.0
N1451 N 0.82541 0.4425 0.62811 0.0
H1452 H 0.84859 0.56447 0.75507 0.0
H1453 H 0.80596 0.57602 0.91996 0.0
H1454 H 0.87813 0.53756 0.83032 0.0
H1455 H 0.79569 0.61895 0.85005 0.0
H1456 H 0.82955 0.55853 0.88719 0.0
H1457 H 0.82551 0.58084 0.7891 0.0
C1458 C 0.85001 0.56172 0.77875 0.0
C1459 C 0.86521 0.54948 0.78989 0.0
C1460 C 0.82222 0.57187 0.87919 0.0
C1461 C 0.83892 0.56845 0.82909 0.0
C1462 C 0.80878 0.58181 0.89781 0.0
C1463 C 0.79899 0.59904 0.88776 0.0
C1464 C 0.8255 0.57896 0.85013 0.0
C1465 C 0.80312 0.6059 0.85885 0.0
C1466 C 0.83697 0.57127 0.79821 0.0
C1467 C 0.8666 0.54688 0.82091 0.0
N1468 N 0.81591 0.59576 0.841 0.0
N1469 N 0.85356 0.55623 0.83949 0.0
H1470 H 0.678 0.55526 0.17767 0.0
H1471 H 0.67974 0.6154 0.02392 0.0
H1472 H 0.62992 0.55571 0.11389 0.0
H1473 H 0.72939 0.61378 0.08497 0.0
H1474 H 0.6598 0.59747 0.06011 0.0
H1475 H 0.69552 0.57997 0.14735 0.0
C1476 C 0.67103 0.56066 0.15744 0.0
C1477 C 0.65247 0.55323 0.14829 0.0
C1478 C 0.675 0.6012 0.06578 0.0
C1479 C 0.67247 0.58162 0.11347 0.0
C1480 C 0.68644 0.61168 0.04512 0.0
C1481 C 0.70648 0.61612 0.05114 0.0
C1482 C 0.68355 0.59493 0.09276 0.0
C1483 C 0.71417 0.61045 0.07906 0.0
C1484 C 0.68103 0.57482 0.14018 0.0
C1485 C 0.64407 0.56107 0.12209 0.0
N1486 N 0.70277 0.6 0.09868 0.0
N1487 N 0.6542 0.57466 0.10553 0.0
H1488 H 0.34699 0.48678 0.3123 0.0
H1489 H 0.32737 0.38397 0.39772 0.0
H1490 H 0.38212 0.43404 0.2961 0.0
H1491 H 0.28615 0.4333 0.39453 0.0
H1492 H 0.35038 0.40312 0.36651 0.0
H1493 H 0.32803 0.46865 0.34942 0.0
C1494 C 0.35102 0.47148 0.3168 0.0
C1495 C 0.36625 0.46198 0.30075 0.0
C1496 C 0.33635 0.40975 0.37295 0.0
C1497 C 0.34406 0.44085 0.34328 0.0
C1498 C 0.32313 0.39881 0.39068 0.0
C1499 C 0.30466 0.40694 0.399 0.0
C1500 C 0.33116 0.42902 0.36358 0.0
C1501 C 0.30027 0.42641 0.38943 0.0
C1502 C 0.33997 0.46103 0.33792 0.0
C1503 C 0.37037 0.44193 0.30755 0.0
N1504 N 0.31335 0.43668 0.37228 0.0
N1505 N 0.35927 0.432 0.32819 0.0
H1506 H 0.32526 0.52508 0.12025 0.0
H1507 H 0.31997 0.63865 0.06719 0.0
H1508 H 0.36687 0.57021 0.14864 0.0
H1509 H 0.27812 0.59364 0.03914 0.0
H1510 H 0.336 0.61433 0.09938 0.0
H1511 H 0.30684 0.55032 0.09262 0.0
C1512 C 0.33042 0.54035 0.12102 0.0
C1513 C 0.34765 0.5455 0.13703 0.0
C1514 C 0.32323 0.60978 0.08634 0.0
C1515 C 0.32667 0.57454 0.10481 0.0
C1516 C 0.31389 0.62376 0.06804 0.0
C1517 C 0.29756 0.61828 0.05023 0.0
C1518 C 0.3163 0.59007 0.08694 0.0
C1519 C 0.29076 0.59853 0.05212 0.0
C1520 C 0.31993 0.55475 0.10501 0.0
C1521 C 0.3538 0.56549 0.13647 0.0
N1522 N 0.3002 0.58515 0.07001 0.0
N1523 N 0.34334 0.57925 0.12062 0.0
H1524 H 0.20186 0.57399 0.93435 0.0
H1525 H 0.1315 0.57342 0.79025 0.0
H1526 H 0.19684 0.62313 0.87252 0.0
H1527 H 0.15222 0.51952 0.83286 0.0
H1528 H 0.15018 0.59287 0.82654 0.0
H1529 H 0.17879 0.55489 0.90318 0.0
C1530 C 0.19588 0.58087 0.91444 0.0
C1531 C 0.20145 0.60034 0.9063 0.0
C1532 C 0.15053 0.57676 0.828 0.0
C1533 C 0.17469 0.57856 0.87075 0.0
C1534 C 0.1399 0.56556 0.80712 0.0
C1535 C 0.14047 0.54461 0.80778 0.0
C1536 C 0.16171 0.56707 0.85009 0.0
C1537 C 0.15123 0.53553 0.8311 0.0
C1538 C 0.18263 0.56995 0.89672 0.0
C1539 C 0.19283 0.60843 0.88034 0.0
N1540 N 0.16149 0.54679 0.85115 0.0
N1541 N 0.17998 0.59753 0.86359 0.0
H1542 H 0.19081 0.46824 0.65268 0.0
H1543 H 0.18963 0.37056 0.55289 0.0
H1544 H 0.14094 0.42768 0.65263 0.0
H1545 H 0.24281 0.40349 0.57429 0.0
H1546 H 0.1713 0.39063 0.58943 0.0
H1547 H 0.20994 0.4441 0.6246 0.0
C1548 C 0.18391 0.45412 0.64738 0.0
C1549 C 0.1641 0.45012 0.65538 0.0
C1550 C 0.18705 0.39324 0.58638 0.0
C1551 C 0.18603 0.42242 0.6219 0.0
C1552 C 0.1975 0.38184 0.56545 0.0
C1553 C 0.2178 0.38536 0.56032 0.0
C1554 C 0.19692 0.40844 0.60203 0.0
C1555 C 0.22727 0.40006 0.57753 0.0
C1556 C 0.19488 0.44034 0.63099 0.0
C1557 C 0.15601 0.43165 0.64671 0.0
N1558 N 0.21672 0.41116 0.59729 0.0
N1559 N 0.16693 0.41858 0.63021 0.0
H1560 H 0.38076 0.56758 0.70248 0.0
H1561 H 0.28711 0.56816 0.59343 0.0
H1562 H 0.34553 0.5157 0.68147 0.0
H1563 H 0.32585 0.61901 0.6038 0.0
H1564 H 0.31 0.54837 0.62293 0.0
H1565 H 0.36237 0.58635 0.66457 0.0
C1566 C 0.3693 0.56007 0.68982 0.0
C1567 C 0.36466 0.54 0.69551 0.0
C1568 C 0.31365 0.5638 0.61853 0.0
C1569 C 0.34356 0.56143 0.65196 0.0
C1570 C 0.30061 0.57515 0.60132 0.0
C1571 C 0.30441 0.59543 0.59592 0.0
C1572 C 0.33063 0.57271 0.63093 0.0
C1573 C 0.32205 0.60356 0.60767 0.0
C1574 C 0.35886 0.57079 0.66807 0.0
C1575 C 0.34983 0.53103 0.67795 0.0
N1576 N 0.33438 0.59225 0.62483 0.0
N1577 N 0.33974 0.54183 0.65728 0.0
H1578 H 0.19131 0.6018 0.48693 0.0
H1579 H 0.17543 0.55779 0.32401 0.0
H1580 H 0.22148 0.6269 0.41092 0.0
H1581 H 0.13421 0.54938 0.39663 0.0
H1582 H 0.19378 0.58196 0.35465 0.0
H1583 H 0.1719 0.58082 0.45373 0.0
C1584 C 0.194 0.60274 0.46319 0.0
C1585 C 0.20825 0.61591 0.45167 0.0
C1586 C 0.18057 0.57499 0.36365 0.0
C1587 C 0.18577 0.59199 0.41326 0.0
C1588 C 0.17013 0.56118 0.34624 0.0
C1589 C 0.15323 0.55158 0.35775 0.0
C1590 C 0.17423 0.57892 0.3929 0.0
C1591 C 0.14698 0.55658 0.38665 0.0
C1592 C 0.18273 0.5909 0.44417 0.0
C1593 C 0.21068 0.61687 0.4206 0.0
N1594 N 0.15758 0.56972 0.40328 0.0
N1595 N 0.19965 0.60491 0.40239 0.0
H1596 H 0.12587 0.43219 0.20534 0.0
H1597 H 0.22665 0.43098 0.11319 0.0
H1598 H 0.16166 0.48435 0.18867 0.0
H1599 H 0.18311 0.38405 0.10383 0.0
H1600 H 0.2029 0.45012 0.14188 0.0
H1601 H 0.14648 0.41355 0.16967 0.0
C1602 C 0.13791 0.43977 0.19405 0.0
C1603 C 0.14198 0.45991 0.20013 0.0
C1604 C 0.19843 0.43572 0.13332 0.0
C1605 C 0.16565 0.43867 0.15952 0.0
C1606 C 0.21199 0.42475 0.11654 0.0
C1607 C 0.20701 0.40576 0.10557 0.0
C1608 C 0.1797 0.42766 0.13988 0.0
C1609 C 0.18784 0.39845 0.11199 0.0
C1610 C 0.1496 0.42915 0.17362 0.0
C1611 C 0.1577 0.46899 0.1846 0.0
N1612 N 0.17496 0.40933 0.12891 0.0
N1613 N 0.16902 0.45828 0.16535 0.0
H1614 H 0.28588 0.3738 0.91814 0.0
H1615 H 0.37066 0.45631 0.9005 0.0
H1616 H 0.31391 0.40369 0.99213 0.0
H1617 H 0.32896 0.44386 0.82978 0.0
H1618 H 0.353 0.43287 0.93257 0.0
H1619 H 0.30404 0.39582 0.88363 0.0
C1620 C 0.29575 0.38506 0.92705 0.0
C1621 C 0.2982 0.3871 0.95799 0.0
C1622 C 0.34776 0.43516 0.90998 0.0
C1623 C 0.31922 0.41192 0.91895 0.0
C1624 C 0.35797 0.44838 0.89155 0.0
C1625 C 0.35132 0.45198 0.86237 0.0
C1626 C 0.33083 0.42529 0.89917 0.0
C1627 C 0.33452 0.44156 0.85218 0.0
C1628 C 0.30607 0.39759 0.90745 0.0
C1629 C 0.31124 0.40185 0.96851 0.0
N1630 N 0.32485 0.42864 0.87055 0.0
N1631 N 0.32133 0.41357 0.94905 0.0
H1632 H 0.26313 0.16379 0.33877 0.0
H1633 H 0.30207 0.14531 0.19966 0.0
H1634 H 0.20838 0.14651 0.29607 0.0
H1635 H 0.24426 0.15953 0.16431 0.0
H1636 H 0.29015 0.1531 0.24972 0.0
H1637 H 0.27757 0.17055 0.28966 0.0
C1638 C 0.25404 0.16179 0.31907 0.0
C1639 C 0.23468 0.15421 0.32135 0.0
C1640 C 0.2802 0.15524 0.23103 0.0
C1641 C 0.25122 0.16124 0.26521 0.0
C1642 C 0.28698 0.15059 0.2025 0.0
C1643 C 0.27408 0.15169 0.17802 0.0
C1644 C 0.26024 0.16075 0.23514 0.0
C1645 C 0.25467 0.1586 0.18268 0.0
C1646 C 0.26237 0.16536 0.29103 0.0
C1647 C 0.22352 0.1519 0.29514 0.0
N1648 N 0.24818 0.16243 0.21083 0.0
N1649 N 0.23202 0.15519 0.26813 0.0
H1650 H 0.10355 0.05175 0.45018 0.0
H1651 H 0.09711 0.95415 0.54786 0.0
H1652 H 0.09239 0.99375 0.41258 0.0
H1653 H 0.0944 0.01305 0.58576 0.0
H1654 H 0.09169 0.96841 0.49829 0.0
H1655 H 0.09665 0.0384 0.4999 0.0
C1656 C 0.09931 0.03627 0.45243 0.0
C1657 C 0.09869 0.02379 0.42734 0.0
C1658 C 0.09188 0.97822 0.51746 0.0
C1659 C 0.09106 0.00828 0.48412 0.0
C1660 C 0.09498 0.97007 0.5457 0.0
C1661 C 0.09633 0.98247 0.57079 0.0
C1662 C 0.0905 0.99899 0.5142 0.0
C1663 C 0.09337 0.00299 0.56696 0.0
C1664 C 0.09533 0.02864 0.48076 0.0
C1665 C 0.09296 0.00388 0.43133 0.0
N1666 N 0.09096 0.01066 0.53909 0.0
N1667 N 0.08971 0.99665 0.45926 0.0
H1668 H 0.20451 0.85708 0.7052 0.0
H1669 H 0.29969 0.85553 0.80489 0.0
H1670 H 0.26231 0.84347 0.66925 0.0
H1671 H 0.24122 0.84689 0.84173 0.0
H1672 H 0.28653 0.84826 0.75515 0.0
H1673 H 0.21721 0.8506 0.75545 0.0
C1674 C 0.2198 0.85238 0.70796 0.0
C1675 C 0.23247 0.851 0.68326 0.0
C1676 C 0.27663 0.84751 0.77415 0.0
C1677 C 0.24719 0.84387 0.74044 0.0
C1678 C 0.28414 0.85171 0.80244 0.0
C1679 C 0.27145 0.85196 0.82719 0.0
C1680 C 0.25619 0.84402 0.77058 0.0
C1681 C 0.25145 0.84679 0.82311 0.0
C1682 C 0.22703 0.8486 0.73655 0.0
C1683 C 0.25209 0.84467 0.6878 0.0
N1684 N 0.24432 0.84344 0.79519 0.0
N1685 N 0.25899 0.84173 0.71595 0.0
H1686 H 0.41346 0.01206 0.91407 0.0
H1687 H 0.41356 0.99009 0.08966 0.0
H1688 H 0.40512 0.95384 0.95251 0.0
H1689 H 0.40552 0.04838 0.05125 0.0
H1690 H 0.41982 0.97668 0.0396 0.0
H1691 H 0.4199 0.02544 0.9641 0.0
C1692 C 0.41351 1.00202 0.93297 0.0
C1693 C 0.40858 0.98187 0.92929 0.0
C1694 C 0.41703 0.99248 0.0422 0.0
C1695 C 0.4157 0.99702 0.98646 0.0
C1696 C 0.41363 1.00014 0.07076 0.0
C1697 C 0.40883 0.02032 0.07445 0.0
C1698 C 0.41575 0.00513 0.01727 0.0
C1699 C 0.4089 0.03268 0.0492 0.0
C1700 C 0.41701 0.00966 0.96152 0.0
C1701 C 0.40861 0.96952 0.95454 0.0
N1702 N 0.4121 0.02487 0.02165 0.0
N1703 N 0.41191 0.9773 0.98208 0.0
H1704 H 0.78176 0.83351 0.6786 0.0
H1705 H 0.7574 0.84051 0.82997 0.0
H1706 H 0.73404 0.87558 0.66843 0.0
H1707 H 0.70139 0.86414 0.7996 0.0
H1708 H 0.76716 0.83498 0.77808 0.0
H1709 H 0.77018 0.82626 0.72957 0.0
C1710 C 0.76864 0.84091 0.68712 0.0
C1711 C 0.75882 0.85519 0.66978 0.0
C1712 C 0.7525 0.84081 0.78263 0.0
C1713 C 0.74583 0.84764 0.72782 0.0
C1714 C 0.74695 0.84399 0.81236 0.0
C1715 C 0.72869 0.85308 0.819 0.0
C1716 C 0.73961 0.84673 0.75952 0.0
C1717 C 0.71577 0.85751 0.79538 0.0
C1718 C 0.76217 0.83703 0.71626 0.0
C1719 C 0.74197 0.86455 0.68143 0.0
N1720 N 0.72159 0.85457 0.76676 0.0
N1721 N 0.73607 0.8607 0.70976 0.0
H1722 H 0.89705 0.0483 0.45187 0.0
H1723 H 0.89805 0.95298 0.55412 0.0
H1724 H 0.90602 0.98929 0.41659 0.0
H1725 H 0.90656 0.01213 0.58906 0.0
H1726 H 0.90393 0.96567 0.5037 0.0
H1727 H 0.90334 0.03559 0.50214 0.0
C1728 C 0.90064 0.03269 0.45477 0.0
C1729 C 0.90085 0.01976 0.4302 0.0
C1730 C 0.90493 0.97584 0.52239 0.0
C1731 C 0.90779 0.00501 0.4876 0.0
C1732 C 0.90156 0.96859 0.55111 0.0
C1733 C 0.9017 0.98157 0.57562 0.0
C1734 C 0.90805 0.99632 0.51809 0.0
C1735 C 0.9064 1.00165 0.57071 0.0
C1736 C 0.9043 0.02544 0.48341 0.0
C1737 C 0.90577 0.99972 0.43499 0.0
N1738 N 0.90901 0.0085 0.54241 0.0
N1739 N 0.90869 0.99286 0.46323 0.0
H1740 H 0.79847 0.14903 0.30555 0.0
H1741 H 0.75794 0.16279 0.16615 0.0
H1742 H 0.73955 0.15773 0.34071 0.0
H1743 H 0.70312 0.14582 0.20912 0.0
H1744 H 0.77249 0.16929 0.21491 0.0
H1745 H 0.78587 0.15495 0.25547 0.0
C1746 C 0.78292 0.1527 0.30265 0.0
C1747 C 0.77 0.1528 0.32716 0.0
C1748 C 0.75733 0.16399 0.21377 0.0
C1749 C 0.75531 0.15988 0.26982 0.0
C1750 C 0.74888 0.16057 0.18579 0.0
C1751 C 0.72939 0.15328 0.18348 0.0
C1752 C 0.74628 0.15989 0.23966 0.0
C1753 C 0.71839 0.15082 0.20984 0.0
C1754 C 0.77571 0.1563 0.27403 0.0
C1755 C 0.74999 0.15766 0.32236 0.0
N1756 N 0.72705 0.15391 0.23682 0.0
N1757 N 0.74317 0.16062 0.29413 0.0
H1758 H 0.59652 0.00606 0.91082 0.0
H1759 H 0.59974 0.99031 0.08767 0.0
H1760 H 0.60735 0.94939 0.95311 0.0
H1761 H 0.60323 0.04761 0.04461 0.0
H1762 H 0.59432 0.97471 0.03891 0.0
H1763 H 0.59069 0.02087 0.95991 0.0
C1764 C 0.59721 0.99663 0.93039 0.0
C1765 C 0.6026 0.9765 0.92796 0.0
C1766 C 0.59598 0.99074 0.04019 0.0
C1767 C 0.59621 0.99339 0.98418 0.0
C1768 C 0.59891 0.99965 0.06802 0.0
C1769 C 0.60212 0.02025 0.07007 0.0
C1770 C 0.59614 0.00255 0.0143 0.0
C1771 C 0.60111 0.03164 0.04387 0.0
C1772 C 0.59405 0.00513 0.95842 0.0
C1773 C 0.60352 0.96504 0.95411 0.0
N1774 N 0.59837 0.02263 0.01704 0.0
N1775 N 0.60054 0.97367 0.98116 0.0
H1776 H 0.80532 0.65762 0.70672 0.0
H1777 H 0.70446 0.6523 0.79766 0.0
H1778 H 0.74753 0.65868 0.66525 0.0
H1779 H 0.76183 0.65924 0.83918 0.0
H1780 H 0.71957 0.65902 0.7491 0.0
H1781 H 0.78962 0.66268 0.75531 0.0
C1782 C 0.78933 0.65923 0.70786 0.0
C1783 C 0.77769 0.65751 0.68203 0.0
C1784 C 0.72883 0.65941 0.76885 0.0
C1785 C 0.75955 0.66309 0.73751 0.0
C1786 C 0.72021 0.65553 0.79653 0.0
C1787 C 0.73195 0.65501 0.82237 0.0
C1788 C 0.74943 0.66251 0.76692 0.0
C1789 C 0.75223 0.65955 0.81981 0.0
C1790 C 0.78037 0.66215 0.73556 0.0
C1791 C 0.75706 0.65996 0.6846 0.0
N1792 N 0.7604 0.66279 0.7925 0.0
N1793 N 0.74861 0.66229 0.71193 0.0
H1794 H 0.60305 0.55556 0.95782 0.0
H1795 H 0.6015 0.45563 0.05154 0.0
H1796 H 0.59499 0.49766 0.91805 0.0
H1797 H 0.59749 0.51373 0.09193 0.0
H1798 H 0.5957 0.47069 0.00262 0.0
H1799 H 0.59781 0.54086 0.00712 0.0
C1800 C 0.59993 0.53978 0.95951 0.0
C1801 C 0.59964 0.52777 0.93391 0.0
C1802 C 0.59573 0.48015 0.02219 0.0
C1803 C 0.59378 0.51078 0.99018 0.0
C1804 C 0.59906 0.47155 0.05006 0.0
C1805 C 0.60011 0.4835 0.07566 0.0
C1806 C 0.59379 0.50092 0.01983 0.0
C1807 C 0.5967 0.50401 0.07271 0.0
C1808 C 0.59686 0.5314 0.98761 0.0
C1809 C 0.59527 0.50745 0.93721 0.0
N1810 N 0.59403 0.51214 0.0452 0.0
N1811 N 0.59282 0.49954 0.96488 0.0
H1812 H 0.80243 0.35054 0.29922 0.0
H1813 H 0.70432 0.353 0.2015 0.0
H1814 H 0.74365 0.347 0.33693 0.0
H1815 H 0.76294 0.34715 0.16381 0.0
H1816 H 0.71816 0.34688 0.25108 0.0
H1817 H 0.78833 0.34528 0.24958 0.0
C1818 C 0.78655 0.34836 0.297 0.0
C1819 C 0.77414 0.34941 0.32208 0.0
C1820 C 0.72799 0.34661 0.23196 0.0
C1821 C 0.75782 0.34362 0.26537 0.0
C1822 C 0.72009 0.35017 0.20369 0.0
C1823 C 0.73255 0.35082 0.17863 0.0
C1824 C 0.74857 0.34395 0.23529 0.0
C1825 C 0.75283 0.34675 0.18256 0.0
C1826 C 0.7785 0.34532 0.2687 0.0
C1827 C 0.75372 0.34625 0.31815 0.0
N1828 N 0.76027 0.34381 0.21044 0.0
N1829 N 0.74614 0.34383 0.29024 0.0
H1830 H 0.90795 0.55661 0.54176 0.0
H1831 H 0.90699 0.45579 0.44988 0.0
H1832 H 0.91366 0.49868 0.58242 0.0
H1833 H 0.91104 0.51359 0.40853 0.0
H1834 H 0.91338 0.47112 0.49841 0.0
H1835 H 0.91285 0.54139 0.49274 0.0
C1836 C 0.91049 0.54071 0.54034 0.0
C1837 C 0.9102 0.52886 0.56611 0.0
C1838 C 0.91322 0.48045 0.47871 0.0
C1839 C 0.91568 0.51129 0.51017 0.0
C1840 C 0.90955 0.47169 0.45105 0.0
C1841 C 0.90832 0.48348 0.42531 0.0
C1842 C 0.91535 0.50122 0.48069 0.0
C1843 C 0.91194 0.50398 0.42787 0.0
C1844 C 0.91336 0.53203 0.5124 0.0
C1845 C 0.91384 0.50837 0.56314 0.0
N1846 N 0.91496 0.51227 0.45517 0.0
N1847 N 0.91613 0.50019 0.53562 0.0
H1848 H 0.2424 0.34385 0.16805 0.0
H1849 H 0.26295 0.34157 0.34371 0.0
H1850 H 0.30031 0.35143 0.20753 0.0
H1851 H 0.20643 0.35699 0.3048 0.0
H1852 H 0.27594 0.33463 0.29368 0.0
H1853 H 0.22846 0.33824 0.21792 0.0
C1854 C 0.25223 0.34384 0.18718 0.0
C1855 C 0.27247 0.3483 0.18386 0.0
C1856 C 0.26058 0.33917 0.29617 0.0
C1857 C 0.25672 0.34197 0.24067 0.0
C1858 C 0.25313 0.34296 0.32467 0.0
C1859 C 0.23366 0.35001 0.3282 0.0
C1860 C 0.24838 0.34228 0.27117 0.0
C1861 C 0.2216 0.35181 0.30283 0.0
C1862 C 0.24428 0.34078 0.21557 0.0
C1863 C 0.28458 0.34832 0.20932 0.0
N1864 N 0.2292 0.34812 0.27531 0.0
N1865 N 0.2765 0.34536 0.23672 0.0
H1866 H 0.39941 0.54991 0.95176 0.0
H1867 H 0.40424 0.45013 0.04519 0.0
H1868 H 0.4082 0.49234 0.91131 0.0
H1869 H 0.40933 0.50824 0.08531 0.0
H1870 H 0.40891 0.4652 0.99598 0.0
H1871 H 0.40617 0.53526 1.00073 0.0
C1872 C 0.40309 0.53423 0.95323 0.0
C1873 C 0.40313 0.52229 0.92756 0.0
C1874 C 0.40938 0.47464 0.01555 0.0
C1875 C 0.41059 0.50532 0.98346 0.0
C1876 C 0.40669 0.46604 0.04359 0.0
C1877 C 0.40627 0.47798 0.06925 0.0
C1878 C 0.41131 0.49542 0.01309 0.0
C1879 C 0.40965 0.49849 0.06609 0.0
C1880 C 0.40698 0.52587 0.98113 0.0
C1881 C 0.40812 0.50209 0.93054 0.0
N1882 N 0.41168 0.50662 0.03846 0.0
N1883 N 0.41132 0.49416 0.95806 0.0
H1884 H 0.25273 0.66633 0.66808 0.0
H1885 H 0.2733 0.67713 0.82001 0.0
H1886 H 0.20224 0.63171 0.69658 0.0
H1887 H 0.24009 0.62251 0.8256 0.0
H1888 H 0.2596 0.68281 0.76968 0.0
H1889 H 0.26079 0.67304 0.72034 0.0
C1890 C 0.24301 0.66066 0.68533 0.0
C1891 C 0.22702 0.64814 0.67807 0.0
C1892 C 0.25524 0.66963 0.78195 0.0
C1893 C 0.23604 0.65575 0.73784 0.0
C1894 C 0.26286 0.66657 0.81066 0.0
C1895 C 0.25786 0.64927 0.8264 0.0
C1896 C 0.24253 0.65526 0.76934 0.0
C1897 C 0.24435 0.6359 0.81376 0.0
C1898 C 0.24758 0.66452 0.71522 0.0
C1899 C 0.215 0.64101 0.70127 0.0
N1900 N 0.2372 0.63913 0.78591 0.0
N1901 N 0.21997 0.64459 0.73008 0.0
H1902 H 0.09948 0.51218 0.41493 0.0
H1903 H 0.09663 0.49138 0.59089 0.0
H1904 H 0.10234 0.45362 0.45393 0.0
H1905 H 0.11506 0.54705 0.55192 0.0
H1906 H 0.08863 0.47886 0.54081 0.0
H1907 H 0.09508 0.52642 0.465 0.0
C1908 C 0.09858 0.50231 0.43398 0.0
C1909 C 0.10136 0.48174 0.43047 0.0
C1910 C 0.09409 0.49394 0.5433 0.0
C1911 C 0.09653 0.49781 0.48757 0.0
C1912 C 0.09849 0.50112 0.57184 0.0
C1913 C 0.10667 0.52019 0.57539 0.0
C1914 C 0.09769 0.50602 0.51826 0.0
C1915 C 0.10901 0.53217 0.54998 0.0
C1916 C 0.09626 0.51042 0.46251 0.0
C1917 C 0.10039 0.46957 0.45587 0.0
N1918 N 0.1047 0.52485 0.52246 0.0
N1919 N 0.0982 0.47779 0.48338 0.0
H1920 H 0.40823 0.07658 0.15152 0.0
H1921 H 0.32527 0.15402 0.10651 0.0
H1922 H 0.36212 0.09895 0.20924 0.0
H1923 H 0.35317 0.11168 0.04756 0.0
H1924 H 0.35086 0.14715 0.14393 0.0
H1925 H 0.40025 0.10273 0.11541 0.0
C1926 C 0.39712 0.0876 0.15731 0.0
C1927 C 0.38543 0.08537 0.18301 0.0
C1928 C 0.35185 0.14002 0.12231 0.0
C1929 C 0.37627 0.11512 0.14191 0.0
C1930 C 0.33734 0.14403 0.10084 0.0
C1931 C 0.33694 0.13304 0.07421 0.0
C1932 C 0.36605 0.12512 0.11683 0.0
C1933 C 0.35282 0.12018 0.06809 0.0
C1934 C 0.39248 0.10243 0.13656 0.0
C1935 C 0.37119 0.1 0.18936 0.0
N1936 N 0.36654 0.11625 0.08951 0.0
N1937 N 0.36668 0.11403 0.16861 0.0
H1938 H 0.09825 0.07702 0.34804 0.0
H1939 H 0.1798 0.15611 0.39195 0.0
H1940 H 0.14409 0.09969 0.29012 0.0
H1941 H 0.15246 0.11379 0.45147 0.0
H1942 H 0.15432 0.14866 0.35459 0.0
H1943 H 0.10563 0.10364 0.38364 0.0
C1944 C 0.10916 0.0882 0.34208 0.0
C1945 C 0.12096 0.08593 0.31649 0.0
C1946 C 0.15341 0.14166 0.37632 0.0
C1947 C 0.12945 0.11622 0.35704 0.0
C1948 C 0.16786 0.146 0.39775 0.0
C1949 C 0.1684 0.13519 0.42452 0.0
C1950 C 0.13943 0.12659 0.38199 0.0
C1951 C 0.15269 0.12217 0.43083 0.0
C1952 C 0.11346 0.1033 0.36254 0.0
C1953 C 0.13494 0.10076 0.30993 0.0
N1954 N 0.13904 0.1179 0.40944 0.0
N1955 N 0.13913 0.11506 0.33041 0.0
H1956 H 0.18101 0.84563 0.61122 0.0
H1957 H 0.0982 0.92449 0.65116 0.0
H1958 H 0.15056 0.88347 0.54827 0.0
H1959 H 0.14572 0.90542 0.70902 0.0
H1960 H 0.10578 0.89675 0.61757 0.0
H1961 H 0.15644 0.85449 0.64908 0.0
C1962 C 0.16864 0.85506 0.60489 0.0
C1963 C 0.1681 0.8643 0.5768 0.0
C1964 C 0.11399 0.89817 0.63826 0.0
C1965 C 0.14009 0.8745 0.62001 0.0
C1966 C 0.10958 0.91391 0.65757 0.0
C1967 C 0.1217 0.91746 0.6825 0.0
C1968 C 0.13043 0.88589 0.64426 0.0
C1969 C 0.13629 0.90335 0.68968 0.0
C1970 C 0.15469 0.86021 0.62663 0.0
C1971 C 0.15172 0.87637 0.5699 0.0
N1972 N 0.14054 0.88839 0.67032 0.0
N1973 N 0.13859 0.88151 0.59158 0.0
H1974 H 0.40713 0.926 0.85221 0.0
H1975 H 0.32406 0.84935 0.90005 0.0
H1976 H 0.36026 0.90375 0.79572 0.0
H1977 H 0.35177 0.89274 0.95752 0.0
H1978 H 0.34947 0.8559 0.86229 0.0
H1979 H 0.39902 0.90039 0.88908 0.0
C1980 C 0.39581 0.9151 0.84686 0.0
C1981 C 0.38396 0.91725 0.82128 0.0
C1982 C 0.35046 0.86335 0.88368 0.0
C1983 C 0.37469 0.88807 0.86321 0.0
C1984 C 0.33604 0.85954 0.90535 0.0
C1985 C 0.33561 0.87091 0.93162 0.0
C1986 C 0.36457 0.8784 0.88863 0.0
C1987 C 0.35142 0.88395 0.93726 0.0
C1988 C 0.3911 0.90058 0.86804 0.0
C1989 C 0.36946 0.90278 0.8155 0.0
N1990 N 0.36507 0.88766 0.91565 0.0
N1991 N 0.36492 0.88902 0.83663 0.0
H1992 H 0.64536 0.89811 0.78957 0.0
H1993 H 0.64978 0.88282 0.95516 0.0
H1994 H 0.59939 0.92059 0.84741 0.0
H1995 H 0.67899 0.84266 0.89419 0.0
H1996 H 0.62523 0.89031 0.91676 0.0
H1997 H 0.65173 0.87133 0.825 0.0
C1998 C 0.63605 0.8969 0.8092 0.0
C1999 C 0.62219 0.91181 0.81596 0.0
C2000 C 0.63657 0.87931 0.91203 0.0
C2001 C 0.62994 0.88178 0.85727 0.0
C2002 C 0.6506 0.87502 0.93404 0.0
C2003 C 0.66678 0.86258 0.92757 0.0
C2004 C 0.63912 0.87152 0.88317 0.0
C2005 C 0.66697 0.85266 0.89998 0.0
C2006 C 0.63972 0.88164 0.82957 0.0
C2007 C 0.61042 0.90951 0.84156 0.0
N2008 N 0.65376 0.85786 0.87842 0.0
N2009 N 0.61506 0.89522 0.86189 0.0
H2010 H 0.90132 0.92738 0.65279 0.0
H2011 H 0.81822 0.85029 0.60503 0.0
H2012 H 0.85468 0.90527 0.70979 0.0
H2013 H 0.84559 0.89371 0.54734 0.0
H2014 H 0.8433 0.85756 0.64317 0.0
H2015 H 0.89268 0.90202 0.61578 0.0
C2016 C 0.88992 0.91658 0.65819 0.0
C2017 C 0.87833 0.91868 0.68403 0.0
C2018 C 0.84428 0.86488 0.62168 0.0
C2019 C 0.86847 0.88978 0.64192 0.0
C2020 C 0.83009 0.86064 0.59983 0.0
C2021 C 0.82976 0.87166 0.57325 0.0
C2022 C 0.85825 0.88005 0.61663 0.0
C2023 C 0.84527 0.88509 0.56776 0.0
C2024 C 0.88492 0.90221 0.63694 0.0
C2025 C 0.86371 0.90433 0.68984 0.0
N2026 N 0.85872 0.88918 0.5895 0.0
N2027 N 0.85889 0.89071 0.66864 0.0
H2028 H 0.86568 0.10432 0.29686 0.0
H2029 H 0.84758 0.10647 0.46236 0.0
H2030 H 0.90616 0.07573 0.358 0.0
H2031 H 0.82648 0.15389 0.40571 0.0
H2032 H 0.87432 0.1 0.42694 0.0
H2033 H 0.85659 0.12786 0.33597 0.0
C2034 C 0.87319 0.10345 0.3182 0.0
C2035 C 0.88622 0.08769 0.32445 0.0
C2036 C 0.86429 0.11229 0.42267 0.0
C2037 C 0.87546 0.11415 0.3696 0.0
C2038 C 0.84902 0.11599 0.44296 0.0
C2039 C 0.83458 0.13041 0.4366 0.0
C2040 C 0.86467 0.12269 0.39545 0.0
C2041 C 0.83719 0.14244 0.41128 0.0
C2042 C 0.86798 0.11689 0.34061 0.0
C2043 C 0.89573 0.08741 0.35236 0.0
N2044 N 0.85154 0.13787 0.39108 0.0
N2045 N 0.88963 0.09999 0.37427 0.0
H2046 H 0.64412 0.10296 0.20848 0.0
H2047 H 0.67266 0.16545 0.10415 0.0
H2048 H 0.59754 0.08202 0.15041 0.0
H2049 H 0.64549 0.1211 0.04766 0.0
H2050 H 0.64875 0.15745 0.14322 0.0
H2051 H 0.64915 0.13134 0.17586 0.0
C2052 C 0.63434 0.10486 0.18948 0.0
C2053 C 0.62074 0.08995 0.18172 0.0
C2054 C 0.64777 0.14971 0.12209 0.0
C2055 C 0.62654 0.1223 0.14372 0.0
C2056 C 0.66127 0.15448 0.09953 0.0
C2057 C 0.66167 0.14319 0.07313 0.0
C2058 C 0.63485 0.13348 0.11813 0.0
C2059 C 0.6462 0.12959 0.06816 0.0
C2060 C 0.63713 0.1212 0.17076 0.0
C2061 C 0.60837 0.09312 0.15698 0.0
N2062 N 0.63376 0.12468 0.09082 0.0
N2063 N 0.61207 0.10859 0.13821 0.0
H2064 H 0.8597 0.61562 0.54367 0.0
H2065 H 0.87747 0.61309 0.70726 0.0
H2066 H 0.8361 0.66115 0.60144 0.0
H2067 H 0.91831 0.58571 0.64549 0.0
H2068 H 0.86916 0.63781 0.66953 0.0
H2069 H 0.88771 0.61144 0.57754 0.0
C2070 C 0.86087 0.62531 0.56293 0.0
C2071 C 0.84535 0.63834 0.57023 0.0
C2072 C 0.88048 0.62686 0.66446 0.0
C2073 C 0.87686 0.63309 0.60981 0.0
C2074 C 0.88527 0.61272 0.68613 0.0
C2075 C 0.89794 0.59681 0.67907 0.0
C2076 C 0.88804 0.62466 0.63541 0.0
C2077 C 0.90796 0.59736 0.6516 0.0
C2078 C 0.87685 0.62291 0.58239 0.0
C2079 C 0.84763 0.65069 0.59526 0.0
N2080 N 0.90222 0.61057 0.63031 0.0
N2081 N 0.8627 0.64724 0.6148 0.0
H2082 H 0.67437 0.65882 0.90248 0.0
H2083 H 0.59023 0.58353 0.85723 0.0
H2084 H 0.65054 0.61181 0.95738 0.0
H2085 H 0.63061 0.6128 0.79668 0.0
H2086 H 0.59968 0.6071 0.89611 0.0
H2087 H 0.64624 0.65491 0.86839 0.0
C2088 C 0.66274 0.64832 0.90814 0.0
C2089 C 0.66498 0.63522 0.93231 0.0
C2090 C 0.60587 0.60885 0.87396 0.0
C2091 C 0.63297 0.63068 0.89347 0.0
C2092 C 0.60042 0.59544 0.85162 0.0
C2093 C 0.61033 0.59569 0.82404 0.0
C2094 C 0.62112 0.62262 0.86846 0.0
C2095 C 0.62312 0.61169 0.818 0.0
C2096 C 0.64676 0.64603 0.88856 0.0
C2097 C 0.64953 0.62188 0.93857 0.0
N2098 N 0.62859 0.62422 0.84032 0.0
N2099 N 0.63435 0.61964 0.91889 0.0
H2100 H 0.59794 0.42543 0.15277 0.0
H2101 H 0.67609 0.34461 0.10233 0.0
H2102 H 0.6451 0.4013 0.20701 0.0
H2103 H 0.64779 0.38754 0.04459 0.0
H2104 H 0.65213 0.35271 0.14133 0.0
H2105 H 0.60379 0.39911 0.11604 0.0
C2106 C 0.60888 0.41404 0.15767 0.0
C2107 C 0.62144 0.41578 0.18256 0.0
C2108 C 0.65071 0.35977 0.11971 0.0
C2109 C 0.62813 0.38578 0.14076 0.0
C2110 C 0.66433 0.35511 0.0973 0.0
C2111 C 0.66438 0.366 0.07053 0.0
C2112 C 0.63697 0.3752 0.11507 0.0
C2113 C 0.64862 0.37923 0.06525 0.0
C2114 C 0.61228 0.39911 0.13658 0.0
C2115 C 0.63538 0.40066 0.18777 0.0
N2116 N 0.63581 0.38384 0.08762 0.0
N2117 N 0.63865 0.3865 0.16671 0.0
H2118 H 0.90882 0.42487 0.34741 0.0
H2119 H 0.83092 0.3437 0.39759 0.0
H2120 H 0.86083 0.40182 0.29378 0.0
H2121 H 0.85971 0.38605 0.45571 0.0
H2122 H 0.85449 0.35224 0.35825 0.0
H2123 H 0.90318 0.39815 0.38356 0.0
C2124 C 0.89772 0.41365 0.3425 0.0
C2125 C 0.88489 0.41579 0.31799 0.0
C2126 C 0.85612 0.35907 0.38001 0.0
C2127 C 0.87846 0.38533 0.35912 0.0
C2128 C 0.84272 0.35415 0.40261 0.0
C2129 C 0.84289 0.36478 0.42961 0.0
C2130 C 0.86988 0.37445 0.38473 0.0
C2131 C 0.8587 0.37794 0.43488 0.0
C2132 C 0.89445 0.39848 0.36326 0.0
C2133 C 0.87076 0.40087 0.31275 0.0
N2134 N 0.8713 0.38279 0.41235 0.0
N2135 N 0.86763 0.38647 0.33349 0.0
H2136 H 0.18308 0.34713 0.40335 0.0
H2137 H 0.10084 0.42466 0.35457 0.0
H2138 H 0.15641 0.3915 0.46018 0.0
H2139 H 0.14709 0.40121 0.29806 0.0
H2140 H 0.10895 0.39939 0.39202 0.0
H2141 H 0.15767 0.35388 0.36561 0.0
C2142 C 0.1713 0.35756 0.40855 0.0
C2143 C 0.17203 0.36911 0.43464 0.0
C2144 C 0.11673 0.39925 0.37086 0.0
C2145 C 0.14307 0.37686 0.39165 0.0
C2146 C 0.11202 0.41357 0.34935 0.0
C2147 C 0.1237 0.41528 0.32354 0.0
C2148 C 0.13295 0.38648 0.36614 0.0
C2149 C 0.13802 0.40058 0.31798 0.0
C2150 C 0.15689 0.3615 0.38688 0.0
C2151 C 0.15649 0.38253 0.44011 0.0
N2152 N 0.14255 0.38702 0.33941 0.0
N2153 N 0.14285 0.38634 0.41851 0.0
H2154 H 0.32974 0.33907 0.10758 0.0
H2155 H 0.36318 0.40043 0.21134 0.0
H2156 H 0.35621 0.38321 0.05004 0.0
H2157 H 0.40838 0.42046 0.15031 0.0
H2158 H 0.35617 0.3725 0.17863 0.0
H2159 H 0.35463 0.34668 0.14555 0.0
C2160 C 0.34119 0.34989 0.10249 0.0
C2161 C 0.34045 0.36112 0.07606 0.0
C2162 C 0.36833 0.38231 0.17284 0.0
C2163 C 0.36839 0.37044 0.11984 0.0
C2164 C 0.37231 0.39835 0.19168 0.0
C2165 C 0.3861 0.41291 0.18322 0.0
C2166 C 0.37789 0.38118 0.14498 0.0
C2167 C 0.3975 0.4096 0.15751 0.0
C2168 C 0.35524 0.35445 0.12442 0.0
C2169 C 0.35587 0.37467 0.07053 0.0
N2170 N 0.39262 0.39448 0.13868 0.0
N2171 N 0.36891 0.37934 0.09256 0.0
H2172 H 0.40478 0.58056 0.8441 0.0
H2173 H 0.35272 0.62118 0.95532 0.0
H2174 H 0.35291 0.59821 0.79413 0.0
H2175 H 0.3231 0.65831 0.89062 0.0
H2176 H 0.37667 0.61146 0.91749 0.0
H2177 H 0.39875 0.60799 0.87886 0.0
C2178 C 0.39253 0.59064 0.83981 0.0
C2179 C 0.37894 0.5868 0.81675 0.0
C2180 C 0.36557 0.62246 0.9117 0.0
C2181 C 0.37154 0.61761 0.85695 0.0
C2182 C 0.35179 0.62796 0.93342 0.0
C2183 C 0.33566 0.6402 0.92593 0.0
C2184 C 0.36293 0.62898 0.88214 0.0
C2185 C 0.33518 0.64863 0.89728 0.0
C2186 C 0.38891 0.60612 0.85997 0.0
C2187 C 0.36344 0.60039 0.81211 0.0
N2188 N 0.3482 0.64231 0.87612 0.0
N2189 N 0.3599 0.61495 0.83243 0.0
H2190 H 0.18209 0.65665 0.60446 0.0
H2191 H 0.10366 0.57483 0.64856 0.0
H2192 H 0.15304 0.61635 0.54352 0.0
H2193 H 0.14836 0.59981 0.70641 0.0
H2194 H 0.10961 0.60184 0.61295 0.0
H2195 H 0.15762 0.6481 0.64258 0.0
C2196 C 0.17001 0.64673 0.59858 0.0
C2197 C 0.16986 0.63675 0.57106 0.0
C2198 C 0.11753 0.60186 0.634 0.0
C2199 C 0.14206 0.62677 0.61464 0.0
C2200 C 0.11402 0.58654 0.65445 0.0
C2201 C 0.12584 0.58497 0.68013 0.0
C2202 C 0.13285 0.6156 0.63951 0.0
C2203 C 0.13919 0.60039 0.68657 0.0
C2204 C 0.15613 0.64174 0.62048 0.0
C2205 C 0.15388 0.62403 0.56473 0.0
N2206 N 0.14264 0.61487 0.66608 0.0
N2207 N 0.14087 0.61901 0.58662 0.0
H2208 H 0.23062 0.19941 0.01883 0.0
H2209 H 0.28118 0.2979 0.08535 0.0
H2210 H 0.28043 0.19826 0.07955 0.0
H2211 H 0.23176 0.29834 0.02391 0.0
H2212 H 0.27996 0.26148 0.08605 0.0
H2213 H 0.2297 0.23562 0.02288 0.0
C2214 C 0.24134 0.20675 0.03313 0.0
C2215 C 0.2557 0.19573 0.04874 0.0
C2216 C 0.26932 0.26955 0.07254 0.0
C2217 C 0.25474 0.23737 0.05343 0.0
C2218 C 0.26999 0.29037 0.07215 0.0
C2219 C 0.25662 0.30123 0.0544 0.0
C2220 C 0.25519 0.25949 0.05504 0.0
C2221 C 0.24242 0.29063 0.03784 0.0
C2222 C 0.24079 0.22748 0.03543 0.0
C2223 C 0.26914 0.20613 0.067 0.0
N2224 N 0.24215 0.27038 0.03846 0.0
N2225 N 0.26839 0.22636 0.06873 0.0
H2226 H 0.9525 0.0318 0.33012 0.0
H2227 H 0.05158 0.98042 0.26754 0.0
H2228 H 0.9534 0.98257 0.26819 0.0
H2229 H 0.05262 0.03169 0.32566 0.0
H2230 H 0.01552 0.98004 0.27042 0.0
H2231 H 0.98893 0.031 0.33171 0.0
C2232 C 0.96032 0.02075 0.31701 0.0
C2233 C 0.94984 0.00728 0.29887 0.0
C2234 C 0.02357 0.99138 0.28263 0.0
C2235 C 0.9915 0.00633 0.30056 0.0
C2236 C 0.04424 0.99161 0.28101 0.0
C2237 C 0.05523 0.00618 0.29626 0.0
C2238 C 0.01361 0.00584 0.29963 0.0
C2239 C 0.04477 0.02023 0.31343 0.0
C2240 C 0.98112 0.02033 0.31789 0.0
C2241 C 0.96079 0.9933 0.28239 0.0
N2242 N 0.02454 0.01975 0.31458 0.0
N2243 N 0.98095 0.99324 0.28358 0.0
H2244 H 0.27961 0.70186 0.52619 0.0
H2245 H 0.22619 0.80104 0.58503 0.0
H2246 H 0.22687 0.70141 0.58098 0.0
H2247 H 0.27762 0.80087 0.52749 0.0
H2248 H 0.22756 0.76464 0.587 0.0
H2249 H 0.28048 0.73811 0.52968 0.0
C2250 C 0.26826 0.70936 0.53912 0.0
C2251 C 0.25306 0.69853 0.55315 0.0
C2252 C 0.2386 0.77258 0.57407 0.0
C2253 C 0.25394 0.7402 0.55716 0.0
C2254 C 0.23785 0.79337 0.57295 0.0
C2255 C 0.25174 0.80406 0.5559 0.0
C2256 C 0.25336 0.76234 0.55804 0.0
C2257 C 0.26654 0.79329 0.54081 0.0
C2258 C 0.26876 0.7301 0.54107 0.0
C2259 C 0.23881 0.70913 0.56967 0.0
N2260 N 0.26689 0.77306 0.54213 0.0
N2261 N 0.23954 0.72937 0.57109 0.0
H2262 H 0.45625 0.01885 0.76486 0.0
H2263 H 0.55521 0.96679 0.82685 0.0
H2264 H 0.45468 0.96911 0.82587 0.0
H2265 H 0.55415 0.01786 0.76833 0.0
H2266 H 0.51872 0.96744 0.82833 0.0
H2267 H 0.49229 0.01873 0.76738 0.0
C2268 C 0.46347 0.00788 0.77888 0.0
C2269 C 0.45233 0.99391 0.79509 0.0
C2270 C 0.52652 0.97852 0.81528 0.0
C2271 C 0.49398 0.99367 0.79803 0.0
C2272 C 0.54735 0.97818 0.81442 0.0
C2273 C 0.55782 0.99225 0.79733 0.0
C2274 C 0.51611 0.99303 0.79891 0.0
C2275 C 0.54681 0.00666 0.78174 0.0
C2276 C 0.48415 0.00783 0.78032 0.0
C2277 C 0.46266 0.98014 0.81294 0.0
N2278 N 0.52665 0.00662 0.78285 0.0
N2279 N 0.48292 0.9803 0.81385 0.0
H2280 H 0.23045 0.8055 0.99009 0.0
H2281 H 0.27736 0.70595 0.92084 0.0
H2282 H 0.27778 0.80586 0.9251 0.0
H2283 H 0.23238 0.70673 0.98945 0.0
H2284 H 0.27608 0.74241 0.91896 0.0
H2285 H 0.22935 0.76927 0.98705 0.0
C2286 C 0.24058 0.79798 0.97506 0.0
C2287 C 0.25432 0.80879 0.95796 0.0
C2288 C 0.26643 0.73458 0.9343 0.0
C2289 C 0.25315 0.76711 0.95442 0.0
C2290 C 0.26711 0.71375 0.93535 0.0
C2291 C 0.25503 0.70324 0.95546 0.0
C2292 C 0.25355 0.74496 0.95348 0.0
C2293 C 0.24204 0.71417 0.9737 0.0
C2294 C 0.23994 0.77724 0.97335 0.0
C2295 C 0.267 0.79815 0.93881 0.0
N2296 N 0.24171 0.73438 0.97234 0.0
N2297 N 0.26617 0.7779 0.93765 0.0
H2298 H 0.55519 0.03191 0.17051 0.0
H2299 H 0.45671 0.98366 0.24031 0.0
H2300 H 0.5549 0.9861 0.23808 0.0
H2301 H 0.45504 0.03111 0.17534 0.0
H2302 H 0.49277 0.98348 0.23738 0.0
H2303 H 0.51876 0.03094 0.16958 0.0
C2304 C 0.54751 0.02158 0.18504 0.0
C2305 C 0.55818 0.00911 0.20451 0.0
C2306 C 0.48459 0.99394 0.22368 0.0
C2307 C 0.51648 0.00797 0.20355 0.0
C2308 C 0.46391 0.99405 0.22533 0.0
C2309 C 0.45274 0.00749 0.20814 0.0
C2310 C 0.49437 0.00738 0.20471 0.0
C2311 C 0.46303 0.02053 0.18908 0.0
C2312 C 0.5267 0.02106 0.18451 0.0
C2313 C 0.54738 0.99603 0.22278 0.0
N2314 N 0.48328 0.0202 0.18794 0.0
N2315 N 0.5272 0.99585 0.22189 0.0
H2316 H 0.27594 0.20077 0.48049 0.0
H2317 H 0.22422 0.30259 0.42842 0.0
H2318 H 0.22334 0.20221 0.42537 0.0
H2319 H 0.27843 0.29927 0.47974 0.0
H2320 H 0.22371 0.26607 0.42571 0.0
H2321 H 0.2772 0.23699 0.47908 0.0
C2322 C 0.26466 0.20869 0.46798 0.0
C2323 C 0.24946 0.19837 0.45313 0.0
C2324 C 0.23574 0.27338 0.43746 0.0
C2325 C 0.25077 0.24012 0.45151 0.0
C2326 C 0.23604 0.29422 0.43902 0.0
C2327 C 0.25135 0.30405 0.45445 0.0
C2328 C 0.25083 0.2623 0.45146 0.0
C2329 C 0.26629 0.29241 0.46767 0.0
C2330 C 0.26539 0.22944 0.46718 0.0
C2331 C 0.23531 0.20954 0.43721 0.0
N2332 N 0.2656 0.27223 0.46595 0.0
N2333 N 0.23625 0.22981 0.43693 0.0
H2334 H 0.05022 0.01951 0.73753 0.0
H2335 H 0.94956 0.97032 0.67626 0.0
H2336 H 0.05037 0.97061 0.67497 0.0
H2337 H 0.95253 0.01882 0.73936 0.0
H2338 H 0.98607 0.97037 0.67352 0.0
H2339 H 0.01418 0.01969 0.73643 0.0
C2340 C 0.04268 0.00878 0.72346 0.0
C2341 C 0.05344 0.99496 0.7064 0.0
C2342 C 0.97867 0.981 0.68787 0.0
C2343 C 0.01174 0.99506 0.7051 0.0
C2344 C 0.95783 0.981 0.68944 0.0
C2345 C 0.9479 0.99454 0.70816 0.0
C2346 C 0.9896 0.99466 0.70511 0.0
C2347 C 0.95942 0.00804 0.72468 0.0
C2348 C 0.022 0.0089 0.72285 0.0
C2349 C 0.0427 0.98151 0.68854 0.0
N2350 N 0.97954 0.00772 0.72279 0.0
N2351 N 0.02242 0.98184 0.68843 0.0
H2352 H 0.77493 0.79973 0.97905 0.0
H2353 H 0.72356 0.69941 0.92015 0.0
H2354 H 0.72564 0.79926 0.91738 0.0
H2355 H 0.76839 0.70119 0.98902 0.0
H2356 H 0.72599 0.73566 0.91536 0.0
H2357 H 0.7748 0.7634 0.97911 0.0
C2358 C 0.76416 0.79201 0.96532 0.0
C2359 C 0.75019 0.80262 0.94833 0.0
C2360 C 0.73533 0.7281 0.93145 0.0
C2361 C 0.74989 0.76085 0.94844 0.0
C2362 C 0.73396 0.70739 0.93421 0.0
C2363 C 0.74571 0.6972 0.95516 0.0
C2364 C 0.7486 0.73873 0.94969 0.0
C2365 C 0.75896 0.70837 0.97267 0.0
C2366 C 0.76406 0.77121 0.96544 0.0
C2367 C 0.73663 0.79172 0.93093 0.0
N2368 N 0.76001 0.72848 0.96958 0.0
N2369 N 0.73676 0.77144 0.93154 0.0
H2370 H 0.78019 0.20016 0.42513 0.0
H2371 H 0.73774 0.30255 0.4918 0.0
H2372 H 0.7374 0.20386 0.49663 0.0
H2373 H 0.78312 0.30033 0.42384 0.0
H2374 H 0.73609 0.2663 0.49126 0.0
H2375 H 0.78021 0.23663 0.42186 0.0
C2376 C 0.77075 0.2086 0.44005 0.0
C2377 C 0.75884 0.19888 0.46129 0.0
C2378 C 0.74639 0.2737 0.47638 0.0
C2379 C 0.75879 0.24063 0.45763 0.0
C2380 C 0.74733 0.29446 0.47664 0.0
C2381 C 0.76066 0.30457 0.45792 0.0
C2382 C 0.75888 0.26281 0.45728 0.0
C2383 C 0.77265 0.29319 0.43872 0.0
C2384 C 0.77078 0.22943 0.43818 0.0
C2385 C 0.74688 0.21064 0.47998 0.0
N2386 N 0.77153 0.27292 0.43897 0.0
N2387 N 0.74721 0.23082 0.47775 0.0
H2388 H 0.72357 0.2032 0.08683 0.0
H2389 H 0.7695 0.30165 0.01307 0.0
H2390 H 0.77004 0.20263 0.02048 0.0
H2391 H 0.72372 0.30272 0.08048 0.0
H2392 H 0.77111 0.26545 0.01758 0.0
H2393 H 0.72473 0.23962 0.08709 0.0
C2394 C 0.73413 0.21071 0.07248 0.0
C2395 C 0.74665 0.19979 0.05346 0.0
C2396 C 0.76077 0.27358 0.03149 0.0
C2397 C 0.74796 0.24155 0.05354 0.0
C2398 C 0.75983 0.29429 0.02892 0.0
C2399 C 0.74638 0.30528 0.0463 0.0
C2400 C 0.74812 0.26368 0.05154 0.0
C2401 C 0.73427 0.29488 0.06653 0.0
C2402 C 0.73476 0.23152 0.07261 0.0
C2403 C 0.76006 0.21037 0.03543 0.0
N2404 N 0.73536 0.27468 0.06848 0.0
N2405 N 0.76027 0.23063 0.03579 0.0
H2406 H 0.77932 0.8028 0.57405 0.0
H2407 H 0.73762 0.69849 0.51337 0.0
H2408 H 0.7305 0.79691 0.51219 0.0
H2409 H 0.78481 0.70262 0.57835 0.0
H2410 H 0.73448 0.73463 0.51404 0.0
H2411 H 0.78123 0.76636 0.57736 0.0
C2412 C 0.76895 0.79388 0.56127 0.0
C2413 C 0.75477 0.80299 0.5427 0.0
C2414 C 0.7455 0.72768 0.52826 0.0
C2415 C 0.75693 0.76127 0.54634 0.0
C2416 C 0.74731 0.70698 0.52788 0.0
C2417 C 0.76156 0.69743 0.54574 0.0
C2418 C 0.75807 0.7391 0.54655 0.0
C2419 C 0.77363 0.70932 0.56415 0.0
C2420 C 0.77006 0.77307 0.56317 0.0
C2421 C 0.74171 0.79064 0.52673 0.0
N2422 N 0.77168 0.72953 0.56398 0.0
N2423 N 0.74316 0.77049 0.52884 0.0
H2424 H 0.55096 0.48598 0.77142 0.0
H2425 H 0.44857 0.53366 0.82872 0.0
H2426 H 0.54842 0.53547 0.83278 0.0
H2427 H 0.45259 0.48563 0.76495 0.0
H2428 H 0.4849 0.53356 0.833 0.0
H2429 H 0.51478 0.48447 0.77157 0.0
C2430 C 0.54281 0.49647 0.78509 0.0
C2431 C 0.5528 0.51094 0.802 0.0
C2432 C 0.4778 0.52302 0.81815 0.0
C2433 C 0.51115 0.50937 0.80213 0.0
C2434 C 0.45705 0.52307 0.81568 0.0
C2435 C 0.44747 0.5097 0.79632 0.0
C2436 C 0.48904 0.50948 0.80118 0.0
C2437 C 0.45926 0.49627 0.78008 0.0
C2438 C 0.52209 0.49563 0.78512 0.0
C2439 C 0.54136 0.5241 0.81933 0.0
N2440 N 0.47936 0.49655 0.78283 0.0
N2441 N 0.52116 0.52307 0.81884 0.0
H2442 H 0.05339 0.46903 0.32822 0.0
H2443 H 0.95466 0.51496 0.25513 0.0
H2444 H 0.05259 0.5164 0.26309 0.0
H2445 H 0.95288 0.47093 0.32525 0.0
H2446 H 0.99073 0.51541 0.25849 0.0
H2447 H 0.01684 0.4692 0.32829 0.0
C2448 C 0.04558 0.47949 0.31403 0.0
C2449 C 0.05614 0.49267 0.29555 0.0
C2450 C 0.98252 0.50566 0.27325 0.0
C2451 C 0.01439 0.49291 0.29547 0.0
C2452 C 0.96184 0.50538 0.27132 0.0
C2453 C 0.95064 0.49284 0.28987 0.0
C2454 C 0.99227 0.49323 0.2938 0.0
C2455 C 0.9609 0.48082 0.31047 0.0
C2456 C 0.02472 0.47958 0.31409 0.0
C2457 C 0.04519 0.50592 0.27768 0.0
N2458 N 0.98114 0.48124 0.31181 0.0
N2459 N 0.02502 0.50564 0.27804 0.0
H2460 H 0.05569 0.47883 0.72938 0.0
H2461 H 0.95975 0.53681 0.6684 0.0
H2462 H 0.0594 0.5322 0.67594 0.0
H2463 H 0.95736 0.48602 0.72735 0.0
H2464 H 0.99607 0.53424 0.66783 0.0
H2465 H 0.0196 0.48014 0.72579 0.0
C2466 C 0.04894 0.49082 0.71678 0.0
C2467 C 0.06067 0.50549 0.70306 0.0
C2468 C 0.98758 0.52362 0.68079 0.0
C2469 C 0.01909 0.50709 0.6989 0.0
C2470 C 0.96683 0.52505 0.68109 0.0
C2471 C 0.95545 0.51165 0.69806 0.0
C2472 C 0.99704 0.50867 0.69752 0.0
C2473 C 0.96547 0.49673 0.71403 0.0
C2474 C 0.02826 0.49157 0.71477 0.0
C2475 C 0.05097 0.52062 0.68698 0.0
N2476 N 0.98564 0.49568 0.71342 0.0
N2477 N 0.03075 0.52106 0.68542 0.0
H2478 H 0.45287 0.5202 0.23117 0.0
H2479 H 0.5543 0.47025 0.17447 0.0
H2480 H 0.45385 0.46909 0.17273 0.0
H2481 H 0.55074 0.51544 0.24277 0.0
H2482 H 0.51794 0.47105 0.16999 0.0
H2483 H 0.489 0.5202 0.23185 0.0
C2484 C 0.46066 0.50898 0.21834 0.0
C2485 C 0.4502 0.49455 0.20196 0.0
C2486 C 0.52516 0.4808 0.18589 0.0
C2487 C 0.49193 0.49446 0.20273 0.0
C2488 C 0.54591 0.48039 0.18844 0.0
C2489 C 0.55564 0.49275 0.20913 0.0
C2490 C 0.51405 0.49376 0.20401 0.0
C2491 C 0.54397 0.50557 0.2266 0.0
C2492 C 0.48138 0.50897 0.2188 0.0
C2493 C 0.46126 0.48045 0.18576 0.0
N2494 N 0.52387 0.50573 0.22364 0.0
N2495 N 0.48153 0.48073 0.18659 0.0
loop_
_geom_bond_atom_site_label_1
_geom_bond_atom_site_label_2
_geom_bond_distance
_geom_bond_site_symmetry_2
_ccdc_geom_bond_type
C0 C1 1.351 . S
C0 N3 1.368 . S
C0 H5 0.931 . S
C1 C0 1.351 . S
C1 N2 1.373 . S
C1 H29 0.930 . S
N2 C1 1.373 . S
N2 C4 1.340 . S
N3 C0 1.368 . S
N3 C4 1.321 . S
N3 Co6 2.135 . S
C4 N2 1.340 . S
C4 N3 1.321 . S
C4 H28 0.930 . S
H5 C0 0.931 . S
Co6 N3 2.135 . S
Co6 N9 2.121 . S
Co6 O14 2.055 . S
Co6 O17 2.039 . S
Co6 N20 2.140 . S
C7 O8 1.227 . S
C7 O17 1.265 . S
O8 C7 1.227 . S
N9 Co6 2.121 . S
N9 C11 1.375 . S
N9 C12 1.313 . S
C10 C11 1.338 1_556 S
C10 N13 1.377 . S
C10 H30 0.930 . S
C11 N9 1.375 . S
C11 C10 1.338 1_554 S
C11 H15 0.931 . S
C12 N9 1.313 . S
C12 N13 1.344 1_554 S
C12 H16 0.930 . S
N13 C10 1.377 . S
N13 C12 1.344 1_556 S
O14 Co6 2.055 . S
O14 C18 1.253 . S
H15 C11 0.931 . S
H16 C12 0.930 . S
O17 Co6 2.039 . S
O17 C7 1.265 . S
C18 O14 1.253 . S
C18 O19 1.227 . S
O19 C18 1.227 . S
N20 Co6 2.140 . S
N20 C23 1.346 . S
N20 C24 1.345 . S
C21 C22 1.387 . S
C21 C25 1.391 . S
C22 C21 1.387 . S
C22 C23 1.369 . S
C22 H31 0.929 . S
C23 N20 1.346 . S
C23 C22 1.369 . S
C23 H26 0.928 . S
C24 N20 1.345 . S
C24 C25 1.371 . S
C24 H27 0.931 . S
C25 C21 1.391 . S
C25 C24 1.371 . S
C25 H32 0.930 . S
H26 C23 0.928 . S
H27 C24 0.931 . S
H28 C4 0.930 . S
H29 C1 0.930 . S
H30 C10 0.930 . S
H31 C22 0.929 . S
H32 C25 0.930 . S
C33 C34 1.351 . S
C33 N36 1.368 . S
C33 H38 0.931 . S
C34 C33 1.351 . S
C34 N35 1.373 . S
C34 H62 0.930 . S
N35 C34 1.373 . S
N35 C37 1.340 . S
N36 C33 1.368 . S
N36 C37 1.321 . S
N36 Co39 2.135 . S
C37 N35 1.340 . S
C37 N36 1.321 . S
C37 H61 0.930 . S
H38 C33 0.931 . S
Co39 N36 2.135 . S
Co39 N42 2.121 . S
Co39 O47 2.055 . S
Co39 O50 2.039 . S
Co39 N53 2.140 1_545 S
C40 O41 1.227 . S
C40 O50 1.265 1_565 S
O41 C40 1.227 . S
N42 Co39 2.121 . S
N42 C44 1.375 1_545 S
N42 C45 1.313 . S
C43 C44 1.338 . S
C43 N46 1.377 1_565 S
C43 H63 0.930 . S
C44 N42 1.375 1_565 S
C44 C43 1.338 . S
C44 H48 0.931 . S
C45 N42 1.313 . S
C45 N46 1.344 . S
C45 H49 0.930 . S
N46 C43 1.377 1_545 S
N46 C45 1.344 . S
O47 Co39 2.055 . S
O47 C51 1.253 . S
H48 C44 0.931 . S
H49 C45 0.930 . S
O50 Co39 2.039 . S
O50 C40 1.265 1_545 S
C51 O47 1.253 . S
C51 O52 1.227 . S
O52 C51 1.227 . S
N53 Co39 2.140 1_565 S
N53 C56 1.346 . S
N53 C57 1.345 . S
C54 C55 1.387 . S
C54 C58 1.391 . S
C55 C54 1.387 . S
C55 C56 1.369 . S
C55 H64 0.929 . S
C56 N53 1.346 . S
C56 C55 1.369 . S
C56 H59 0.928 . S
C57 N53 1.345 . S
C57 C58 1.371 . S
C57 H60 0.931 . S
C58 C54 1.391 . S
C58 C57 1.371 . S
C58 H65 0.930 . S
H59 C56 0.928 . S
H60 C57 0.931 . S
H61 C37 0.930 . S
H62 C34 0.930 . S
H63 C43 0.930 . S
H64 C55 0.929 . S
H65 C58 0.930 . S
C66 C67 1.351 . S
C66 N69 1.368 . S
C66 H71 0.931 . S
C67 C66 1.351 . S
C67 N68 1.373 . S
C67 H95 0.930 . S
N68 C67 1.373 . S
N68 C70 1.340 . S
N69 C66 1.368 . S
N69 C70 1.321 . S
N69 Co72 2.135 . S
C70 N68 1.340 . S
C70 N69 1.321 . S
C70 H94 0.930 . S
H71 C66 0.931 . S
Co72 N69 2.135 . S
Co72 N75 2.121 . S
Co72 O80 2.055 . S
Co72 O83 2.039 . S
Co72 N86 2.140 . S
C73 O74 1.227 . S
C73 O83 1.265 . S
O74 C73 1.227 . S
N75 Co72 2.121 . S
N75 C77 1.375 . S
N75 C78 1.313 . S
C76 C77 1.338 . S
C76 N79 1.377 . S
C76 H96 0.930 . S
C77 N75 1.375 . S
C77 C76 1.338 . S
C77 H81 0.931 . S
C78 N75 1.313 . S
C78 N79 1.344 . S
C78 H82 0.930 . S
N79 C76 1.377 . S
N79 C78 1.344 . S
O80 Co72 2.055 . S
O80 C84 1.253 . S
H81 C77 0.931 . S
H82 C78 0.930 . S
O83 Co72 2.039 . S
O83 C73 1.265 . S
C84 O80 1.253 . S
C84 O85 1.227 . S
O85 C84 1.227 . S
N86 Co72 2.140 . S
N86 C89 1.346 . S
N86 C90 1.345 . S
C87 C88 1.387 . S
C87 C91 1.391 . S
C88 C87 1.387 . S
C88 C89 1.369 . S
C88 H97 0.929 . S
C89 N86 1.346 . S
C89 C88 1.369 . S
C89 H92 0.928 . S
C90 N86 1.345 . S
C90 C91 1.371 . S
C90 H93 0.931 . S
C91 C87 1.391 . S
C91 C90 1.371 . S
C91 H98 0.930 . S
H92 C89 0.928 . S
H93 C90 0.931 . S
H94 C70 0.930 . S
H95 C67 0.930 . S
H96 C76 0.930 . S
H97 C88 0.929 . S
H98 C91 0.930 . S
C99 C100 1.351 . S
C99 N102 1.368 . S
C99 H104 0.931 . S
C100 C99 1.351 . S
C100 N101 1.373 . S
C100 H128 0.930 . S
N101 C100 1.373 . S
N101 C103 1.340 . S
N102 C99 1.368 . S
N102 C103 1.321 . S
N102 Co105 2.135 . S
C103 N101 1.340 . S
C103 N102 1.321 . S
C103 H127 0.930 . S
H104 C99 0.931 . S
Co105 N102 2.135 . S
Co105 N108 2.121 . S
Co105 O113 2.055 . S
Co105 O116 2.039 . S
Co105 N119 2.140 1_565 S
C106 O107 1.227 . S
C106 O116 1.265 1_545 S
O107 C106 1.227 . S
N108 Co105 2.121 . S
N108 C110 1.375 1_565 S
N108 C111 1.313 . S
C109 C110 1.338 . S
C109 N112 1.377 1_545 S
C109 H129 0.930 . S
C110 N108 1.375 1_545 S
C110 C109 1.338 . S
C110 H114 0.931 . S
C111 N108 1.313 . S
C111 N112 1.344 . S
C111 H115 0.930 . S
N112 C109 1.377 1_565 S
N112 C111 1.344 . S
O113 Co105 2.055 . S
O113 C117 1.253 . S
H114 C110 0.931 . S
H115 C111 0.930 . S
O116 Co105 2.039 . S
O116 C106 1.265 1_565 S
C117 O113 1.253 . S
C117 O118 1.227 . S
O118 C117 1.227 . S
N119 Co105 2.140 1_545 S
N119 C122 1.346 . S
N119 C123 1.345 . S
C120 C121 1.387 . S
C120 C124 1.391 . S
C121 C120 1.387 . S
C121 C122 1.369 . S
C121 H130 0.929 . S
C122 N119 1.346 . S
C122 C121 1.369 . S
C122 H125 0.928 . S
C123 N119 1.345 . S
C123 C124 1.371 . S
C123 H126 0.931 . S
C124 C120 1.391 . S
C124 C123 1.371 . S
C124 H131 0.930 . S
H125 C122 0.928 . S
H126 C123 0.931 . S
H127 C103 0.930 . S
H128 C100 0.930 . S
H129 C109 0.930 . S
H130 C121 0.929 . S
H131 C124 0.930 . S
C132 C133 1.351 . S
C132 N135 1.368 . S
C132 H137 0.931 . S
C133 C132 1.351 . S
C133 N134 1.373 . S
C133 H161 0.930 . S
N134 C133 1.373 . S
N134 C136 1.340 . S
N135 C132 1.368 . S
N135 C136 1.321 . S
N135 Co138 2.135 . S
C136 N134 1.340 . S
C136 N135 1.321 . S
C136 H160 0.930 . S
H137 C132 0.931 . S
Co138 N135 2.135 . S
Co138 N141 2.121 . S
Co138 O146 2.055 . S
Co138 O149 2.039 . S
Co138 N152 2.140 . S
C139 O140 1.227 . S
C139 O149 1.265 . S
O140 C139 1.227 . S
N141 Co138 2.121 . S
N141 C143 1.375 . S
N141 C144 1.313 . S
C142 C143 1.338 1_554 S
C142 N145 1.377 . S
C142 H162 0.930 . S
C143 N141 1.375 . S
C143 C142 1.338 1_556 S
C143 H147 0.931 . S
C144 N141 1.313 . S
C144 N145 1.344 1_556 S
C144 H148 0.930 . S
N145 C142 1.377 . S
N145 C144 1.344 1_554 S
O146 Co138 2.055 . S
O146 C150 1.253 . S
H147 C143 0.931 . S
H148 C144 0.930 . S
O149 Co138 2.039 . S
O149 C139 1.265 . S
C150 O146 1.253 . S
C150 O151 1.227 . S
O151 C150 1.227 . S
N152 Co138 2.140 . S
N152 C155 1.346 . S
N152 C156 1.345 . S
C153 C154 1.387 . S
C153 C157 1.391 . S
C154 C153 1.387 . S
C154 C155 1.369 . S
C154 H163 0.929 . S
C155 N152 1.346 . S
C155 C154 1.369 . S
C155 H158 0.928 . S
C156 N152 1.345 . S
C156 C157 1.371 . S
C156 H159 0.931 . S
C157 C153 1.391 . S
C157 C156 1.371 . S
C157 H164 0.930 . S
H158 C155 0.928 . S
H159 C156 0.931 . S
H160 C136 0.930 . S
H161 C133 0.930 . S
H162 C142 0.930 . S
H163 C154 0.929 . S
H164 C157 0.930 . S
C165 C166 1.351 . S
C165 N168 1.368 . S
C165 H170 0.931 . S
C166 C165 1.351 . S
C166 N167 1.373 . S
C166 H194 0.930 . S
N167 C166 1.373 . S
N167 C169 1.340 . S
N168 C165 1.368 . S
N168 C169 1.321 . S
N168 Co171 2.135 . S
C169 N167 1.340 . S
C169 N168 1.321 . S
C169 H193 0.930 . S
H170 C165 0.931 . S
Co171 N168 2.135 . S
Co171 N174 2.121 . S
Co171 O179 2.055 . S
Co171 O182 2.039 . S
Co171 N185 2.140 1_545 S
C172 O173 1.227 . S
C172 O182 1.265 1_565 S
O173 C172 1.227 . S
N174 Co171 2.121 . S
N174 C176 1.375 1_545 S
N174 C177 1.313 . S
C175 C176 1.338 . S
C175 N178 1.377 1_565 S
C175 H195 0.930 . S
C176 N174 1.375 1_565 S
C176 C175 1.338 . S
C176 H180 0.931 . S
C177 N174 1.313 . S
C177 N178 1.344 . S
C177 H181 0.930 . S
N178 C175 1.377 1_545 S
N178 C177 1.344 . S
O179 Co171 2.055 . S
O179 C183 1.253 . S
H180 C176 0.931 . S
H181 C177 0.930 . S
O182 Co171 2.039 . S
O182 C172 1.265 1_545 S
C183 O179 1.253 . S
C183 O184 1.227 . S
O184 C183 1.227 . S
N185 Co171 2.140 1_565 S
N185 C188 1.346 . S
N185 C189 1.345 . S
C186 C187 1.387 . S
C186 C190 1.391 . S
C187 C186 1.387 . S
C187 C188 1.369 . S
C187 H196 0.929 . S
C188 N185 1.346 . S
C188 C187 1.369 . S
C188 H191 0.928 . S
C189 N185 1.345 . S
C189 C190 1.371 . S
C189 H192 0.931 . S
C190 C186 1.391 . S
C190 C189 1.371 . S
C190 H197 0.930 . S
H191 C188 0.928 . S
H192 C189 0.931 . S
H193 C169 0.930 . S
H194 C166 0.930 . S
H195 C175 0.930 . S
H196 C187 0.929 . S
H197 C190 0.930 . S
C198 C199 1.351 . S
C198 N201 1.368 . S
C198 H203 0.931 . S
C199 C198 1.351 . S
C199 N200 1.373 . S
C199 H227 0.930 . S
N200 C199 1.373 . S
N200 C202 1.340 . S
N201 C198 1.368 . S
N201 C202 1.321 . S
N201 Co204 2.135 . S
C202 N200 1.340 . S
C202 N201 1.321 . S
C202 H226 0.930 . S
H203 C198 0.931 . S
Co204 N201 2.135 . S
Co204 N207 2.121 . S
Co204 O212 2.055 . S
Co204 O215 2.039 . S
Co204 N218 2.140 . S
C205 O206 1.227 . S
C205 O215 1.265 . S
O206 C205 1.227 . S
N207 Co204 2.121 . S
N207 C209 1.375 . S
N207 C210 1.313 . S
C208 C209 1.338 . S
C208 N211 1.377 . S
C208 H228 0.930 . S
C209 N207 1.375 . S
C209 C208 1.338 . S
C209 H213 0.931 . S
C210 N207 1.313 . S
C210 N211 1.344 . S
C210 H214 0.930 . S
N211 C208 1.377 . S
N211 C210 1.344 . S
O212 Co204 2.055 . S
O212 C216 1.253 . S
H213 C209 0.931 . S
H214 C210 0.930 . S
O215 Co204 2.039 . S
O215 C205 1.265 . S
C216 O212 1.253 . S
C216 O217 1.227 . S
O217 C216 1.227 . S
N218 Co204 2.140 . S
N218 C221 1.346 . S
N218 C222 1.345 . S
C219 C220 1.387 . S
C219 C223 1.391 . S
C220 C219 1.387 . S
C220 C221 1.369 . S
C220 H229 0.929 . S
C221 N218 1.346 . S
C221 C220 1.369 . S
C221 H224 0.928 . S
C222 N218 1.345 . S
C222 C223 1.371 . S
C222 H225 0.931 . S
C223 C219 1.391 . S
C223 C222 1.371 . S
C223 H230 0.930 . S
H224 C221 0.928 . S
H225 C222 0.931 . S
H226 C202 0.930 . S
H227 C199 0.930 . S
H228 C208 0.930 . S
H229 C220 0.929 . S
H230 C223 0.930 . S
C231 C232 1.351 . S
C231 N234 1.368 . S
C231 H236 0.931 . S
C232 C231 1.351 . S
C232 N233 1.373 . S
C232 H260 0.930 . S
N233 C232 1.373 . S
N233 C235 1.340 . S
N234 C231 1.368 . S
N234 C235 1.321 . S
N234 Co237 2.135 . S
C235 N233 1.340 . S
C235 N234 1.321 . S
C235 H259 0.930 . S
H236 C231 0.931 . S
Co237 N234 2.135 . S
Co237 N240 2.121 . S
Co237 O245 2.055 . S
Co237 O248 2.039 . S
Co237 N251 2.140 1_565 S
C238 O239 1.227 . S
C238 O248 1.265 1_545 S
O239 C238 1.227 . S
N240 Co237 2.121 . S
N240 C242 1.375 1_565 S
N240 C243 1.313 . S
C241 C242 1.338 . S
C241 N244 1.377 1_545 S
C241 H261 0.930 . S
C242 N240 1.375 1_545 S
C242 C241 1.338 . S
C242 H246 0.931 . S
C243 N240 1.313 . S
C243 N244 1.344 . S
C243 H247 0.930 . S
N244 C241 1.377 1_565 S
N244 C243 1.344 . S
O245 Co237 2.055 . S
O245 C249 1.253 . S
H246 C242 0.931 . S
H247 C243 0.930 . S
O248 Co237 2.039 . S
O248 C238 1.265 1_565 S
C249 O245 1.253 . S
C249 O250 1.227 . S
O250 C249 1.227 . S
N251 Co237 2.140 1_545 S
N251 C254 1.346 . S
N251 C255 1.345 . S
C252 C253 1.387 . S
C252 C256 1.391 . S
C253 C252 1.387 . S
C253 C254 1.369 . S
C253 H262 0.929 . S
C254 N251 1.346 . S
C254 C253 1.369 . S
C254 H257 0.928 . S
C255 N251 1.345 . S
C255 C256 1.371 . S
C255 H258 0.931 . S
C256 C252 1.391 . S
C256 C255 1.371 . S
C256 H263 0.930 . S
H257 C254 0.928 . S
H258 C255 0.931 . S
H259 C235 0.930 . S
H260 C232 0.930 . S
H261 C241 0.930 . S
H262 C253 0.929 . S
H263 C256 0.930 . S
C264 C265 1.351 . S
C264 N267 1.368 . S
C264 H269 0.931 . S
C265 C264 1.351 . S
C265 N266 1.373 . S
C265 H293 0.930 . S
N266 C265 1.373 . S
N266 C268 1.340 . S
N267 C264 1.368 . S
N267 C268 1.321 . S
N267 Co270 2.135 . S
C268 N266 1.340 . S
C268 N267 1.321 . S
C268 H292 0.930 . S
H269 C264 0.931 . S
Co270 N267 2.135 . S
Co270 N273 2.121 . S
Co270 O278 2.055 . S
Co270 O281 2.039 . S
Co270 N284 2.140 . S
C271 O272 1.227 . S
C271 O281 1.265 . S
O272 C271 1.227 . S
N273 Co270 2.121 . S
N273 C275 1.375 . S
N273 C276 1.313 . S
C274 C275 1.338 1_554 S
C274 N277 1.377 . S
C274 H294 0.930 . S
C275 N273 1.375 . S
C275 C274 1.338 1_556 S
C275 H279 0.931 . S
C276 N273 1.313 . S
C276 N277 1.344 1_556 S
C276 H280 0.930 . S
N277 C274 1.377 . S
N277 C276 1.344 1_554 S
O278 Co270 2.055 . S
O278 C282 1.253 . S
H279 C275 0.931 . S
H280 C276 0.930 . S
O281 Co270 2.039 . S
O281 C271 1.265 . S
C282 O278 1.253 . S
C282 O283 1.227 . S
O283 C282 1.227 . S
N284 Co270 2.140 . S
N284 C287 1.346 . S
N284 C288 1.345 . S
C285 C286 1.387 . S
C285 C289 1.391 . S
C286 C285 1.387 . S
C286 C287 1.369 . S
C286 H295 0.929 . S
C287 N284 1.346 . S
C287 C286 1.369 . S
C287 H290 0.928 . S
C288 N284 1.345 . S
C288 C289 1.371 . S
C288 H291 0.931 . S
C289 C285 1.391 . S
C289 C288 1.371 . S
C289 H296 0.930 . S
H290 C287 0.928 . S
H291 C288 0.931 . S
H292 C268 0.930 . S
H293 C265 0.930 . S
H294 C274 0.930 . S
H295 C286 0.929 . S
H296 C289 0.930 . S
C297 C298 1.351 . S
C297 N300 1.368 . S
C297 H302 0.931 . S
C298 C297 1.351 . S
C298 N299 1.373 . S
C298 H326 0.930 . S
N299 C298 1.373 . S
N299 C301 1.340 . S
N300 C297 1.368 . S
N300 C301 1.321 . S
N300 Co303 2.135 . S
C301 N299 1.340 . S
C301 N300 1.321 . S
C301 H325 0.930 . S
H302 C297 0.931 . S
Co303 N300 2.135 . S
Co303 N306 2.121 . S
Co303 O311 2.055 . S
Co303 O314 2.039 . S
Co303 N317 2.140 1_565 S
C304 O305 1.227 . S
C304 O314 1.265 1_545 S
O305 C304 1.227 . S
N306 Co303 2.121 . S
N306 C308 1.375 1_565 S
N306 C309 1.313 . S
C307 C308 1.338 . S
C307 N310 1.377 1_545 S
C307 H327 0.930 . S
C308 N306 1.375 1_545 S
C308 C307 1.338 . S
C308 H312 0.931 . S
C309 N306 1.313 . S
C309 N310 1.344 . S
C309 H313 0.930 . S
N310 C307 1.377 1_565 S
N310 C309 1.344 . S
O311 Co303 2.055 . S
O311 C315 1.253 . S
H312 C308 0.931 . S
H313 C309 0.930 . S
O314 Co303 2.039 . S
O314 C304 1.265 1_565 S
C315 O311 1.253 . S
C315 O316 1.227 . S
O316 C315 1.227 . S
N317 Co303 2.140 1_545 S
N317 C320 1.346 . S
N317 C321 1.345 . S
C318 C319 1.387 . S
C318 C322 1.391 . S
C319 C318 1.387 . S
C319 C320 1.369 . S
C319 H328 0.929 . S
C320 N317 1.346 . S
C320 C319 1.369 . S
C320 H323 0.928 . S
C321 N317 1.345 . S
C321 C322 1.371 . S
C321 H324 0.931 . S
C322 C318 1.391 . S
C322 C321 1.371 . S
C322 H329 0.930 . S
H323 C320 0.928 . S
H324 C321 0.931 . S
H325 C301 0.930 . S
H326 C298 0.930 . S
H327 C307 0.930 . S
H328 C319 0.929 . S
H329 C322 0.930 . S
C330 C331 1.351 . S
C330 N333 1.368 . S
C330 H335 0.931 . S
C331 C330 1.351 . S
C331 N332 1.373 . S
C331 H359 0.930 . S
N332 C331 1.373 . S
N332 C334 1.340 . S
N333 C330 1.368 . S
N333 C334 1.321 . S
N333 Co336 2.135 . S
C334 N332 1.340 . S
C334 N333 1.321 . S
C334 H358 0.930 . S
H335 C330 0.931 . S
Co336 N333 2.135 . S
Co336 N339 2.121 . S
Co336 O344 2.055 . S
Co336 O347 2.039 . S
Co336 N350 2.140 . S
C337 O338 1.227 . S
C337 O347 1.265 . S
O338 C337 1.227 . S
N339 Co336 2.121 . S
N339 C341 1.375 . S
N339 C342 1.313 . S
C340 C341 1.338 . S
C340 N343 1.377 . S
C340 H360 0.930 . S
C341 N339 1.375 . S
C341 C340 1.338 . S
C341 H345 0.931 . S
C342 N339 1.313 . S
C342 N343 1.344 . S
C342 H346 0.930 . S
N343 C340 1.377 . S
N343 C342 1.344 . S
O344 Co336 2.055 . S
O344 C348 1.253 . S
H345 C341 0.931 . S
H346 C342 0.930 . S
O347 Co336 2.039 . S
O347 C337 1.265 . S
C348 O344 1.253 . S
C348 O349 1.227 . S
O349 C348 1.227 . S
N350 Co336 2.140 . S
N350 C353 1.346 . S
N350 C354 1.345 . S
C351 C352 1.387 . S
C351 C355 1.391 . S
C352 C351 1.387 . S
C352 C353 1.369 . S
C352 H361 0.929 . S
C353 N350 1.346 . S
C353 C352 1.369 . S
C353 H356 0.928 . S
C354 N350 1.345 . S
C354 C355 1.371 . S
C354 H357 0.931 . S
C355 C351 1.391 . S
C355 C354 1.371 . S
C355 H362 0.930 . S
H356 C353 0.928 . S
H357 C354 0.931 . S
H358 C334 0.930 . S
H359 C331 0.930 . S
H360 C340 0.930 . S
H361 C352 0.929 . S
H362 C355 0.930 . S
C363 C364 1.351 . S
C363 N366 1.368 . S
C363 H368 0.931 . S
C364 C363 1.351 . S
C364 N365 1.373 . S
C364 H392 0.930 . S
N365 C364 1.373 . S
N365 C367 1.340 . S
N366 C363 1.368 . S
N366 C367 1.321 . S
N366 Co369 2.135 . S
C367 N365 1.340 . S
C367 N366 1.321 . S
C367 H391 0.930 . S
H368 C363 0.931 . S
Co369 N366 2.135 . S
Co369 N372 2.121 . S
Co369 O377 2.055 . S
Co369 O380 2.039 . S
Co369 N383 2.140 1_545 S
C370 O371 1.227 . S
C370 O380 1.265 1_565 S
O371 C370 1.227 . S
N372 Co369 2.121 . S
N372 C374 1.375 1_545 S
N372 C375 1.313 . S
C373 C374 1.338 . S
C373 N376 1.377 1_565 S
C373 H393 0.930 . S
C374 N372 1.375 1_565 S
C374 C373 1.338 . S
C374 H378 0.931 . S
C375 N372 1.313 . S
C375 N376 1.344 . S
C375 H379 0.930 . S
N376 C373 1.377 1_545 S
N376 C375 1.344 . S
O377 Co369 2.055 . S
O377 C381 1.253 . S
H378 C374 0.931 . S
H379 C375 0.930 . S
O380 Co369 2.039 . S
O380 C370 1.265 1_545 S
C381 O377 1.253 . S
C381 O382 1.227 . S
O382 C381 1.227 . S
N383 Co369 2.140 1_565 S
N383 C386 1.346 . S
N383 C387 1.345 . S
C384 C385 1.387 . S
C384 C388 1.391 . S
C385 C384 1.387 . S
C385 C386 1.369 . S
C385 H394 0.929 . S
C386 N383 1.346 . S
C386 C385 1.369 . S
C386 H389 0.928 . S
C387 N383 1.345 . S
C387 C388 1.371 . S
C387 H390 0.931 . S
C388 C384 1.391 . S
C388 C387 1.371 . S
C388 H395 0.930 . S
H389 C386 0.928 . S
H390 C387 0.931 . S
H391 C367 0.930 . S
H392 C364 0.930 . S
H393 C373 0.930 . S
H394 C385 0.929 . S
H395 C388 0.930 . S
C396 C397 1.351 . S
C396 N399 1.368 . S
C396 H401 0.931 . S
C397 C396 1.351 . S
C397 N398 1.373 . S
C397 H425 0.930 . S
N398 C397 1.373 . S
N398 C400 1.340 . S
N399 C396 1.368 . S
N399 C400 1.321 . S
N399 Co402 2.135 . S
C400 N398 1.340 . S
C400 N399 1.321 . S
C400 H424 0.930 . S
H401 C396 0.931 . S
Co402 N399 2.135 . S
Co402 N405 2.121 . S
Co402 O410 2.055 . S
Co402 O413 2.039 . S
Co402 N416 2.140 . S
C403 O404 1.227 . S
C403 O413 1.265 . S
O404 C403 1.227 . S
N405 Co402 2.121 . S
N405 C407 1.375 . S
N405 C408 1.313 . S
C406 C407 1.338 1_556 S
C406 N409 1.377 . S
C406 H426 0.930 . S
C407 N405 1.375 . S
C407 C406 1.338 1_554 S
C407 H411 0.931 . S
C408 N405 1.313 . S
C408 N409 1.344 1_554 S
C408 H412 0.930 . S
N409 C406 1.377 . S
N409 C408 1.344 1_556 S
O410 Co402 2.055 . S
O410 C414 1.253 . S
H411 C407 0.931 . S
H412 C408 0.930 . S
O413 Co402 2.039 . S
O413 C403 1.265 . S
C414 O410 1.253 . S
C414 O415 1.227 . S
O415 C414 1.227 . S
N416 Co402 2.140 . S
N416 C419 1.346 . S
N416 C420 1.345 . S
C417 C418 1.387 . S
C417 C421 1.391 . S
C418 C417 1.387 . S
C418 C419 1.369 . S
C418 H427 0.929 . S
C419 N416 1.346 . S
C419 C418 1.369 . S
C419 H422 0.928 . S
C420 N416 1.345 . S
C420 C421 1.371 . S
C420 H423 0.931 . S
C421 C417 1.391 . S
C421 C420 1.371 . S
C421 H428 0.930 . S
H422 C419 0.928 . S
H423 C420 0.931 . S
H424 C400 0.930 . S
H425 C397 0.930 . S
H426 C406 0.930 . S
H427 C418 0.929 . S
H428 C421 0.930 . S
C429 C430 1.351 . S
C429 N432 1.368 . S
C429 H434 0.931 . S
C430 C429 1.351 . S
C430 N431 1.373 . S
C430 H458 0.930 . S
N431 C430 1.373 . S
N431 C433 1.340 . S
N432 C429 1.368 . S
N432 C433 1.321 . S
N432 Co435 2.135 . S
C433 N431 1.340 . S
C433 N432 1.321 . S
C433 H457 0.930 . S
H434 C429 0.931 . S
Co435 N432 2.135 . S
Co435 N438 2.121 . S
Co435 O443 2.055 . S
Co435 O446 2.039 . S
Co435 N449 2.140 1_565 S
C436 O437 1.227 . S
C436 O446 1.265 1_545 S
O437 C436 1.227 . S
N438 Co435 2.121 . S
N438 C440 1.375 1_565 S
N438 C441 1.313 . S
C439 C440 1.338 . S
C439 N442 1.377 1_545 S
C439 H459 0.930 . S
C440 N438 1.375 1_545 S
C440 C439 1.338 . S
C440 H444 0.931 . S
C441 N438 1.313 . S
C441 N442 1.344 . S
C441 H445 0.930 . S
N442 C439 1.377 1_565 S
N442 C441 1.344 . S
O443 Co435 2.055 . S
O443 C447 1.253 . S
H444 C440 0.931 . S
H445 C441 0.930 . S
O446 Co435 2.039 . S
O446 C436 1.265 1_565 S
C447 O443 1.253 . S
C447 O448 1.227 . S
O448 C447 1.227 . S
N449 Co435 2.140 1_545 S
N449 C452 1.346 . S
N449 C453 1.345 . S
C450 C451 1.387 . S
C450 C454 1.391 . S
C451 C450 1.387 . S
C451 C452 1.369 . S
C451 H460 0.929 . S
C452 N449 1.346 . S
C452 C451 1.369 . S
C452 H455 0.928 . S
C453 N449 1.345 . S
C453 C454 1.371 . S
C453 H456 0.931 . S
C454 C450 1.391 . S
C454 C453 1.371 . S
C454 H461 0.930 . S
H455 C452 0.928 . S
H456 C453 0.931 . S
H457 C433 0.930 . S
H458 C430 0.930 . S
H459 C439 0.930 . S
H460 C451 0.929 . S
H461 C454 0.930 . S
C462 C463 1.351 . S
C462 N465 1.368 . S
C462 H467 0.931 . S
C463 C462 1.351 . S
C463 N464 1.373 . S
C463 H491 0.930 . S
N464 C463 1.373 . S
N464 C466 1.340 . S
N465 C462 1.368 . S
N465 C466 1.321 . S
N465 Co468 2.135 . S
C466 N464 1.340 . S
C466 N465 1.321 . S
C466 H490 0.930 . S
H467 C462 0.931 . S
Co468 N465 2.135 . S
Co468 N471 2.121 . S
Co468 O476 2.055 . S
Co468 O479 2.039 . S
Co468 N482 2.140 . S
C469 O470 1.227 . S
C469 O479 1.265 . S
O470 C469 1.227 . S
N471 Co468 2.121 . S
N471 C473 1.375 . S
N471 C474 1.313 . S
C472 C473 1.338 . S
C472 N475 1.377 . S
C472 H492 0.930 . S
C473 N471 1.375 . S
C473 C472 1.338 . S
C473 H477 0.931 . S
C474 N471 1.313 . S
C474 N475 1.344 . S
C474 H478 0.930 . S
N475 C472 1.377 . S
N475 C474 1.344 . S
O476 Co468 2.055 . S
O476 C480 1.253 . S
H477 C473 0.931 . S
H478 C474 0.930 . S
O479 Co468 2.039 . S
O479 C469 1.265 . S
C480 O476 1.253 . S
C480 O481 1.227 . S
O481 C480 1.227 . S
N482 Co468 2.140 . S
N482 C485 1.346 . S
N482 C486 1.345 . S
C483 C484 1.387 . S
C483 C487 1.391 . S
C484 C483 1.387 . S
C484 C485 1.369 . S
C484 H493 0.929 . S
C485 N482 1.346 . S
C485 C484 1.369 . S
C485 H488 0.928 . S
C486 N482 1.345 . S
C486 C487 1.371 . S
C486 H489 0.931 . S
C487 C483 1.391 . S
C487 C486 1.371 . S
C487 H494 0.930 . S
H488 C485 0.928 . S
H489 C486 0.931 . S
H490 C466 0.930 . S
H491 C463 0.930 . S
H492 C472 0.930 . S
H493 C484 0.929 . S
H494 C487 0.930 . S
C495 C496 1.351 . S
C495 N498 1.368 . S
C495 H500 0.931 . S
C496 C495 1.351 . S
C496 N497 1.373 . S
C496 H524 0.930 . S
N497 C496 1.373 . S
N497 C499 1.340 . S
N498 C495 1.368 . S
N498 C499 1.321 . S
N498 Co501 2.135 . S
C499 N497 1.340 . S
C499 N498 1.321 . S
C499 H523 0.930 . S
H500 C495 0.931 . S
Co501 N498 2.135 . S
Co501 N504 2.121 . S
Co501 O509 2.055 . S
Co501 O512 2.039 . S
Co501 N515 2.140 1_545 S
C502 O503 1.227 . S
C502 O512 1.265 1_565 S
O503 C502 1.227 . S
N504 Co501 2.121 . S
N504 C506 1.375 1_545 S
N504 C507 1.313 . S
C505 C506 1.338 . S
C505 N508 1.377 1_565 S
C505 H525 0.930 . S
C506 N504 1.375 1_565 S
C506 C505 1.338 . S
C506 H510 0.931 . S
C507 N504 1.313 . S
C507 N508 1.344 . S
C507 H511 0.930 . S
N508 C505 1.377 1_545 S
N508 C507 1.344 . S
O509 Co501 2.055 . S
O509 C513 1.253 . S
H510 C506 0.931 . S
H511 C507 0.930 . S
O512 Co501 2.039 . S
O512 C502 1.265 1_545 S
C513 O509 1.253 . S
C513 O514 1.227 . S
O514 C513 1.227 . S
N515 Co501 2.140 1_565 S
N515 C518 1.346 . S
N515 C519 1.345 . S
C516 C517 1.387 . S
C516 C520 1.391 . S
C517 C516 1.387 . S
C517 C518 1.369 . S
C517 H526 0.929 . S
C518 N515 1.346 . S
C518 C517 1.369 . S
C518 H521 0.928 . S
C519 N515 1.345 . S
C519 C520 1.371 . S
C519 H522 0.931 . S
C520 C516 1.391 . S
C520 C519 1.371 . S
C520 H527 0.930 . S
H521 C518 0.928 . S
H522 C519 0.931 . S
H523 C499 0.930 . S
H524 C496 0.930 . S
H525 C505 0.930 . S
H526 C517 0.929 . S
H527 C520 0.930 . S
C528 C529 1.351 . S
C528 N531 1.368 . S
C528 H533 0.931 . S
C529 C528 1.351 . S
C529 N530 1.373 . S
C529 H557 0.930 . S
N530 C529 1.373 . S
N530 C532 1.340 . S
N531 C528 1.368 . S
N531 C532 1.321 . S
N531 Co534 2.135 . S
C532 N530 1.340 . S
C532 N531 1.321 . S
C532 H556 0.930 . S
H533 C528 0.931 . S
Co534 N531 2.135 . S
Co534 N537 2.121 . S
Co534 O542 2.055 . S
Co534 O545 2.039 . S
Co534 N548 2.140 . S
C535 O536 1.227 . S
C535 O545 1.265 . S
O536 C535 1.227 . S
N537 Co534 2.121 . S
N537 C539 1.375 . S
N537 C540 1.313 . S
C538 C539 1.338 . S
C538 N541 1.377 . S
C538 H558 0.930 . S
C539 N537 1.375 . S
C539 C538 1.338 . S
C539 H543 0.931 . S
C540 N537 1.313 . S
C540 N541 1.344 . S
C540 H544 0.930 . S
N541 C538 1.377 . S
N541 C540 1.344 . S
O542 Co534 2.055 . S
O542 C546 1.253 . S
H543 C539 0.931 . S
H544 C540 0.930 . S
O545 Co534 2.039 . S
O545 C535 1.265 . S
C546 O542 1.253 . S
C546 O547 1.227 . S
O547 C546 1.227 . S
N548 Co534 2.140 . S
N548 C551 1.346 . S
N548 C552 1.345 . S
C549 C550 1.387 . S
C549 C553 1.391 . S
C550 C549 1.387 . S
C550 C551 1.369 . S
C550 H559 0.929 . S
C551 N548 1.346 . S
C551 C550 1.369 . S
C551 H554 0.928 . S
C552 N548 1.345 . S
C552 C553 1.371 . S
C552 H555 0.931 . S
C553 C549 1.391 . S
C553 C552 1.371 . S
C553 H560 0.930 . S
H554 C551 0.928 . S
H555 C552 0.931 . S
H556 C532 0.930 . S
H557 C529 0.930 . S
H558 C538 0.930 . S
H559 C550 0.929 . S
H560 C553 0.930 . S
C561 C562 1.351 . S
C561 N564 1.368 . S
C561 H566 0.931 . S
C562 C561 1.351 . S
C562 N563 1.373 . S
C562 H590 0.930 . S
N563 C562 1.373 . S
N563 C565 1.340 . S
N564 C561 1.368 . S
N564 C565 1.321 . S
N564 Co567 2.135 . S
C565 N563 1.340 . S
C565 N564 1.321 . S
C565 H589 0.930 . S
H566 C561 0.931 . S
Co567 N564 2.135 . S
Co567 N570 2.121 . S
Co567 O575 2.055 . S
Co567 O578 2.039 . S
Co567 N581 2.140 . S
C568 O569 1.227 . S
C568 O578 1.265 . S
O569 C568 1.227 . S
N570 Co567 2.121 . S
N570 C572 1.375 . S
N570 C573 1.313 . S
C571 C572 1.338 . S
C571 N574 1.377 . S
C571 H591 0.930 . S
C572 N570 1.375 . S
C572 C571 1.338 . S
C572 H576 0.931 . S
C573 N570 1.313 . S
C573 N574 1.344 . S
C573 H577 0.930 . S
N574 C571 1.377 . S
N574 C573 1.344 . S
O575 Co567 2.055 . S
O575 C579 1.253 . S
H576 C572 0.931 . S
H577 C573 0.930 . S
O578 Co567 2.039 . S
O578 C568 1.265 . S
C579 O575 1.253 . S
C579 O580 1.227 . S
O580 C579 1.227 . S
N581 Co567 2.140 . S
N581 C584 1.346 . S
N581 C585 1.345 . S
C582 C583 1.387 . S
C582 C586 1.391 . S
C583 C582 1.387 . S
C583 C584 1.369 . S
C583 H592 0.929 . S
C584 N581 1.346 . S
C584 C583 1.369 . S
C584 H587 0.928 . S
C585 N581 1.345 . S
C585 C586 1.371 . S
C585 H588 0.931 . S
C586 C582 1.391 . S
C586 C585 1.371 . S
C586 H593 0.930 . S
H587 C584 0.928 . S
H588 C585 0.931 . S
H589 C565 0.930 . S
H590 C562 0.930 . S
H591 C571 0.930 . S
H592 C583 0.929 . S
H593 C586 0.930 . S
C594 C595 1.351 . S
C594 N597 1.368 . S
C594 H599 0.931 . S
C595 C594 1.351 . S
C595 N596 1.373 . S
C595 H623 0.930 . S
N596 C595 1.373 . S
N596 C598 1.340 . S
N597 C594 1.368 . S
N597 C598 1.321 . S
N597 Co600 2.135 . S
C598 N596 1.340 . S
C598 N597 1.321 . S
C598 H622 0.930 . S
H599 C594 0.931 . S
Co600 N597 2.135 . S
Co600 N603 2.121 . S
Co600 O608 2.055 . S
Co600 O611 2.039 . S
Co600 N614 2.140 . S
C601 O602 1.227 . S
C601 O611 1.265 . S
O602 C601 1.227 . S
N603 Co600 2.121 . S
N603 C605 1.375 . S
N603 C606 1.313 . S
C604 C605 1.338 1_556 S
C604 N607 1.377 . S
C604 H624 0.930 . S
C605 N603 1.375 . S
C605 C604 1.338 1_554 S
C605 H609 0.931 . S
C606 N603 1.313 . S
C606 N607 1.344 1_554 S
C606 H610 0.930 . S
N607 C604 1.377 . S
N607 C606 1.344 1_556 S
O608 Co600 2.055 . S
O608 C612 1.253 . S
H609 C605 0.931 . S
H610 C606 0.930 . S
O611 Co600 2.039 . S
O611 C601 1.265 . S
C612 O608 1.253 . S
C612 O613 1.227 . S
O613 C612 1.227 . S
N614 Co600 2.140 . S
N614 C617 1.346 . S
N614 C618 1.345 . S
C615 C616 1.387 . S
C615 C619 1.391 . S
C616 C615 1.387 . S
C616 C617 1.369 . S
C616 H625 0.929 . S
C617 N614 1.346 . S
C617 C616 1.369 . S
C617 H620 0.928 . S
C618 N614 1.345 . S
C618 C619 1.371 . S
C618 H621 0.931 . S
C619 C615 1.391 . S
C619 C618 1.371 . S
C619 H626 0.930 . S
H620 C617 0.928 . S
H621 C618 0.931 . S
H622 C598 0.930 . S
H623 C595 0.930 . S
H624 C604 0.930 . S
H625 C616 0.929 . S
H626 C619 0.930 . S
C627 C628 1.351 . S
C627 N630 1.368 . S
C627 H632 0.931 . S
C628 C627 1.351 . S
C628 N629 1.373 . S
C628 H656 0.930 . S
N629 C628 1.373 . S
N629 C631 1.340 . S
N630 C627 1.368 . S
N630 C631 1.321 . S
N630 Co633 2.135 . S
C631 N629 1.340 . S
C631 N630 1.321 . S
C631 H655 0.930 . S
H632 C627 0.931 . S
Co633 N630 2.135 . S
Co633 N636 2.121 . S
Co633 O641 2.055 . S
Co633 O644 2.039 . S
Co633 N647 2.140 . S
C634 O635 1.227 . S
C634 O644 1.265 . S
O635 C634 1.227 . S
N636 Co633 2.121 . S
N636 C638 1.375 . S
N636 C639 1.313 . S
C637 C638 1.338 . S
C637 N640 1.377 . S
C637 H657 0.930 . S
C638 N636 1.375 . S
C638 C637 1.338 . S
C638 H642 0.931 . S
C639 N636 1.313 . S
C639 N640 1.344 . S
C639 H643 0.930 . S
N640 C637 1.377 . S
N640 C639 1.344 . S
O641 Co633 2.055 . S
O641 C645 1.253 . S
H642 C638 0.931 . S
H643 C639 0.930 . S
O644 Co633 2.039 . S
O644 C634 1.265 . S
C645 O641 1.253 . S
C645 O646 1.227 . S
O646 C645 1.227 . S
N647 Co633 2.140 . S
N647 C650 1.346 . S
N647 C651 1.345 . S
C648 C649 1.387 . S
C648 C652 1.391 . S
C649 C648 1.387 . S
C649 C650 1.369 . S
C649 H658 0.929 . S
C650 N647 1.346 . S
C650 C649 1.369 . S
C650 H653 0.928 . S
C651 N647 1.345 . S
C651 C652 1.371 . S
C651 H654 0.931 . S
C652 C648 1.391 . S
C652 C651 1.371 . S
C652 H659 0.930 . S
H653 C650 0.928 . S
H654 C651 0.931 . S
H655 C631 0.930 . S
H656 C628 0.930 . S
H657 C637 0.930 . S
H658 C649 0.929 . S
H659 C652 0.930 . S
C660 C661 1.351 . S
C660 N663 1.368 . S
C660 H665 0.931 . S
C661 C660 1.351 . S
C661 N662 1.373 . S
C661 H689 0.930 . S
N662 C661 1.373 . S
N662 C664 1.340 . S
N663 C660 1.368 . S
N663 C664 1.321 . S
N663 Co666 2.135 . S
C664 N662 1.340 . S
C664 N663 1.321 . S
C664 H688 0.930 . S
H665 C660 0.931 . S
Co666 N663 2.135 . S
Co666 N669 2.121 . S
Co666 O674 2.055 . S
Co666 O677 2.039 . S
Co666 N680 2.140 . S
C667 O668 1.227 . S
C667 O677 1.265 . S
O668 C667 1.227 . S
N669 Co666 2.121 . S
N669 C671 1.375 . S
N669 C672 1.313 . S
C670 C671 1.338 . S
C670 N673 1.377 . S
C670 H690 0.930 . S
C671 N669 1.375 . S
C671 C670 1.338 . S
C671 H675 0.931 . S
C672 N669 1.313 . S
C672 N673 1.344 . S
C672 H676 0.930 . S
N673 C670 1.377 . S
N673 C672 1.344 . S
O674 Co666 2.055 . S
O674 C678 1.253 . S
H675 C671 0.931 . S
H676 C672 0.930 . S
O677 Co666 2.039 . S
O677 C667 1.265 . S
C678 O674 1.253 . S
C678 O679 1.227 . S
O679 C678 1.227 . S
N680 Co666 2.140 . S
N680 C683 1.346 . S
N680 C684 1.345 . S
C681 C682 1.387 . S
C681 C685 1.391 . S
C682 C681 1.387 . S
C682 C683 1.369 . S
C682 H691 0.929 . S
C683 N680 1.346 . S
C683 C682 1.369 . S
C683 H686 0.928 . S
C684 N680 1.345 . S
C684 C685 1.371 . S
C684 H687 0.931 . S
C685 C681 1.391 . S
C685 C684 1.371 . S
C685 H692 0.930 . S
H686 C683 0.928 . S
H687 C684 0.931 . S
H688 C664 0.930 . S
H689 C661 0.930 . S
H690 C670 0.930 . S
H691 C682 0.929 . S
H692 C685 0.930 . S
C693 C694 1.351 . S
C693 N696 1.368 . S
C693 H698 0.931 . S
C694 C693 1.351 . S
C694 N695 1.373 . S
C694 H722 0.930 . S
N695 C694 1.373 . S
N695 C697 1.340 . S
N696 C693 1.368 . S
N696 C697 1.321 . S
N696 Co699 2.135 . S
C697 N695 1.340 . S
C697 N696 1.321 . S
C697 H721 0.930 . S
H698 C693 0.931 . S
Co699 N696 2.135 . S
Co699 N702 2.121 . S
Co699 O707 2.055 . S
Co699 O710 2.039 . S
Co699 N713 2.140 . S
C700 O701 1.227 . S
C700 O710 1.265 . S
O701 C700 1.227 . S
N702 Co699 2.121 . S
N702 C704 1.375 . S
N702 C705 1.313 . S
C703 C704 1.338 . S
C703 N706 1.377 . S
C703 H723 0.930 . S
C704 N702 1.375 . S
C704 C703 1.338 . S
C704 H708 0.931 . S
C705 N702 1.313 . S
C705 N706 1.344 . S
C705 H709 0.930 . S
N706 C703 1.377 . S
N706 C705 1.344 . S
O707 Co699 2.055 . S
O707 C711 1.253 . S
H708 C704 0.931 . S
H709 C705 0.930 . S
O710 Co699 2.039 . S
O710 C700 1.265 . S
C711 O707 1.253 . S
C711 O712 1.227 . S
O712 C711 1.227 . S
N713 Co699 2.140 . S
N713 C716 1.346 . S
N713 C717 1.345 . S
C714 C715 1.387 . S
C714 C718 1.391 . S
C715 C714 1.387 . S
C715 C716 1.369 . S
C715 H724 0.929 . S
C716 N713 1.346 . S
C716 C715 1.369 . S
C716 H719 0.928 . S
C717 N713 1.345 . S
C717 C718 1.371 . S
C717 H720 0.931 . S
C718 C714 1.391 . S
C718 C717 1.371 . S
C718 H725 0.930 . S
H719 C716 0.928 . S
H720 C717 0.931 . S
H721 C697 0.930 . S
H722 C694 0.930 . S
H723 C703 0.930 . S
H724 C715 0.929 . S
H725 C718 0.930 . S
C726 C727 1.351 . S
C726 N729 1.368 . S
C726 H731 0.931 . S
C727 C726 1.351 . S
C727 N728 1.373 . S
C727 H755 0.930 . S
N728 C727 1.373 . S
N728 C730 1.340 . S
N729 C726 1.368 . S
N729 C730 1.321 . S
N729 Co732 2.135 . S
C730 N728 1.340 . S
C730 N729 1.321 . S
C730 H754 0.930 . S
H731 C726 0.931 . S
Co732 N729 2.135 . S
Co732 N735 2.121 . S
Co732 O740 2.055 . S
Co732 O743 2.039 . S
Co732 N746 2.140 . S
C733 O734 1.227 . S
C733 O743 1.265 . S
O734 C733 1.227 . S
N735 Co732 2.121 . S
N735 C737 1.375 . S
N735 C738 1.313 . S
C736 C737 1.338 1_554 S
C736 N739 1.377 . S
C736 H756 0.930 . S
C737 N735 1.375 . S
C737 C736 1.338 1_556 S
C737 H741 0.931 . S
C738 N735 1.313 . S
C738 N739 1.344 1_556 S
C738 H742 0.930 . S
N739 C736 1.377 . S
N739 C738 1.344 1_554 S
O740 Co732 2.055 . S
O740 C744 1.253 . S
H741 C737 0.931 . S
H742 C738 0.930 . S
O743 Co732 2.039 . S
O743 C733 1.265 . S
C744 O740 1.253 . S
C744 O745 1.227 . S
O745 C744 1.227 . S
N746 Co732 2.140 . S
N746 C749 1.346 . S
N746 C750 1.345 . S
C747 C748 1.387 . S
C747 C751 1.391 . S
C748 C747 1.387 . S
C748 C749 1.369 . S
C748 H757 0.929 . S
C749 N746 1.346 . S
C749 C748 1.369 . S
C749 H752 0.928 . S
C750 N746 1.345 . S
C750 C751 1.371 . S
C750 H753 0.931 . S
C751 C747 1.391 . S
C751 C750 1.371 . S
C751 H758 0.930 . S
H752 C749 0.928 . S
H753 C750 0.931 . S
H754 C730 0.930 . S
H755 C727 0.930 . S
H756 C736 0.930 . S
H757 C748 0.929 . S
H758 C751 0.930 . S
C759 C760 1.351 . S
C759 N762 1.368 . S
C759 H764 0.931 . S
C760 C759 1.351 . S
C760 N761 1.373 . S
C760 H788 0.930 . S
N761 C760 1.373 . S
N761 C763 1.340 . S
N762 C759 1.368 . S
N762 C763 1.321 . S
N762 Co765 2.135 . S
C763 N761 1.340 . S
C763 N762 1.321 . S
C763 H787 0.930 . S
H764 C759 0.931 . S
Co765 N762 2.135 . S
Co765 N768 2.121 . S
Co765 O773 2.055 . S
Co765 O776 2.039 . S
Co765 N779 2.140 . S
C766 O767 1.227 . S
C766 O776 1.265 . S
O767 C766 1.227 . S
N768 Co765 2.121 . S
N768 C770 1.375 . S
N768 C771 1.313 . S
C769 C770 1.338 . S
C769 N772 1.377 . S
C769 H789 0.930 . S
C770 N768 1.375 . S
C770 C769 1.338 . S
C770 H774 0.931 . S
C771 N768 1.313 . S
C771 N772 1.344 . S
C771 H775 0.930 . S
N772 C769 1.377 . S
N772 C771 1.344 . S
O773 Co765 2.055 . S
O773 C777 1.253 . S
H774 C770 0.931 . S
H775 C771 0.930 . S
O776 Co765 2.039 . S
O776 C766 1.265 . S
C777 O773 1.253 . S
C777 O778 1.227 . S
O778 C777 1.227 . S
N779 Co765 2.140 . S
N779 C782 1.346 . S
N779 C783 1.345 . S
C780 C781 1.387 . S
C780 C784 1.391 . S
C781 C780 1.387 . S
C781 C782 1.369 . S
C781 H790 0.929 . S
C782 N779 1.346 . S
C782 C781 1.369 . S
C782 H785 0.928 . S
C783 N779 1.345 . S
C783 C784 1.371 . S
C783 H786 0.931 . S
C784 C780 1.391 . S
C784 C783 1.371 . S
C784 H791 0.930 . S
H785 C782 0.928 . S
H786 C783 0.931 . S
H787 C763 0.930 . S
H788 C760 0.930 . S
H789 C769 0.930 . S
H790 C781 0.929 . S
H791 C784 0.930 . S
C792 C793 1.351 . S
C792 N795 1.368 . S
C792 H797 0.931 . S
C793 C792 1.351 . S
C793 N794 1.373 . S
C793 H821 0.930 . S
N794 C793 1.373 . S
N794 C796 1.340 . S
N795 C792 1.368 . S
N795 C796 1.321 . S
N795 Co798 2.135 . S
C796 N794 1.340 . S
C796 N795 1.321 . S
C796 H820 0.930 . S
H797 C792 0.931 . S
Co798 N795 2.135 . S
Co798 N801 2.121 . S
Co798 O806 2.055 . S
Co798 O809 2.039 . S
Co798 N812 2.140 . S
C799 O800 1.227 . S
C799 O809 1.265 . S
O800 C799 1.227 . S
N801 Co798 2.121 . S
N801 C803 1.375 . S
N801 C804 1.313 . S
C802 C803 1.338 . S
C802 N805 1.377 . S
C802 H822 0.930 . S
C803 N801 1.375 . S
C803 C802 1.338 . S
C803 H807 0.931 . S
C804 N801 1.313 . S
C804 N805 1.344 . S
C804 H808 0.930 . S
N805 C802 1.377 . S
N805 C804 1.344 . S
O806 Co798 2.055 . S
O806 C810 1.253 . S
H807 C803 0.931 . S
H808 C804 0.930 . S
O809 Co798 2.039 . S
O809 C799 1.265 . S
C810 O806 1.253 . S
C810 O811 1.227 . S
O811 C810 1.227 . S
N812 Co798 2.140 . S
N812 C815 1.346 . S
N812 C816 1.345 . S
C813 C814 1.387 . S
C813 C817 1.391 . S
C814 C813 1.387 . S
C814 C815 1.369 . S
C814 H823 0.929 . S
C815 N812 1.346 . S
C815 C814 1.369 . S
C815 H818 0.928 . S
C816 N812 1.345 . S
C816 C817 1.371 . S
C816 H819 0.931 . S
C817 C813 1.391 . S
C817 C816 1.371 . S
C817 H824 0.930 . S
H818 C815 0.928 . S
H819 C816 0.931 . S
H820 C796 0.930 . S
H821 C793 0.930 . S
H822 C802 0.930 . S
H823 C814 0.929 . S
H824 C817 0.930 . S
C825 C826 1.351 . S
C825 N828 1.368 . S
C825 H830 0.931 . S
C826 C825 1.351 . S
C826 N827 1.373 . S
C826 H854 0.930 . S
N827 C826 1.373 . S
N827 C829 1.340 . S
N828 C825 1.368 . S
N828 C829 1.321 . S
N828 Co831 2.135 . S
C829 N827 1.340 . S
C829 N828 1.321 . S
C829 H853 0.930 . S
H830 C825 0.931 . S
Co831 N828 2.135 . S
Co831 N834 2.121 . S
Co831 O839 2.055 . S
Co831 O842 2.039 . S
Co831 N845 2.140 . S
C832 O833 1.227 . S
C832 O842 1.265 . S
O833 C832 1.227 . S
N834 Co831 2.121 . S
N834 C836 1.375 . S
N834 C837 1.313 . S
C835 C836 1.338 . S
C835 N838 1.377 . S
C835 H855 0.930 . S
C836 N834 1.375 . S
C836 C835 1.338 . S
C836 H840 0.931 . S
C837 N834 1.313 . S
C837 N838 1.344 . S
C837 H841 0.930 . S
N838 C835 1.377 . S
N838 C837 1.344 . S
O839 Co831 2.055 . S
O839 C843 1.253 . S
H840 C836 0.931 . S
H841 C837 0.930 . S
O842 Co831 2.039 . S
O842 C832 1.265 . S
C843 O839 1.253 . S
C843 O844 1.227 . S
O844 C843 1.227 . S
N845 Co831 2.140 . S
N845 C848 1.346 . S
N845 C849 1.345 . S
C846 C847 1.387 . S
C846 C850 1.391 . S
C847 C846 1.387 . S
C847 C848 1.369 . S
C847 H856 0.929 . S
C848 N845 1.346 . S
C848 C847 1.369 . S
C848 H851 0.928 . S
C849 N845 1.345 . S
C849 C850 1.371 . S
C849 H852 0.931 . S
C850 C846 1.391 . S
C850 C849 1.371 . S
C850 H857 0.930 . S
H851 C848 0.928 . S
H852 C849 0.931 . S
H853 C829 0.930 . S
H854 C826 0.930 . S
H855 C835 0.930 . S
H856 C847 0.929 . S
H857 C850 0.930 . S
C858 C859 1.351 . S
C858 N861 1.368 . S
C858 H863 0.931 . S
C859 C858 1.351 . S
C859 N860 1.373 . S
C859 H887 0.930 . S
N860 C859 1.373 . S
N860 C862 1.340 . S
N861 C858 1.368 . S
N861 C862 1.321 . S
N861 Co864 2.135 . S
C862 N860 1.340 . S
C862 N861 1.321 . S
C862 H886 0.930 . S
H863 C858 0.931 . S
Co864 N861 2.135 . S
Co864 N867 2.121 . S
Co864 O872 2.055 . S
Co864 O875 2.039 . S
Co864 N878 2.140 . S
C865 O866 1.227 . S
C865 O875 1.265 . S
O866 C865 1.227 . S
N867 Co864 2.121 . S
N867 C869 1.375 . S
N867 C870 1.313 . S
C868 C869 1.338 1_554 S
C868 N871 1.377 . S
C868 H888 0.930 . S
C869 N867 1.375 . S
C869 C868 1.338 1_556 S
C869 H873 0.931 . S
C870 N867 1.313 . S
C870 N871 1.344 1_556 S
C870 H874 0.930 . S
N871 C868 1.377 . S
N871 C870 1.344 1_554 S
O872 Co864 2.055 . S
O872 C876 1.253 . S
H873 C869 0.931 . S
H874 C870 0.930 . S
O875 Co864 2.039 . S
O875 C865 1.265 . S
C876 O872 1.253 . S
C876 O877 1.227 . S
O877 C876 1.227 . S
N878 Co864 2.140 . S
N878 C881 1.346 . S
N878 C882 1.345 . S
C879 C880 1.387 . S
C879 C883 1.391 . S
C880 C879 1.387 . S
C880 C881 1.369 . S
C880 H889 0.929 . S
C881 N878 1.346 . S
C881 C880 1.369 . S
C881 H884 0.928 . S
C882 N878 1.345 . S
C882 C883 1.371 . S
C882 H885 0.931 . S
C883 C879 1.391 . S
C883 C882 1.371 . S
C883 H890 0.930 . S
H884 C881 0.928 . S
H885 C882 0.931 . S
H886 C862 0.930 . S
H887 C859 0.930 . S
H888 C868 0.930 . S
H889 C880 0.929 . S
H890 C883 0.930 . S
C891 C892 1.351 . S
C891 N894 1.368 . S
C891 H896 0.931 . S
C892 C891 1.351 . S
C892 N893 1.373 . S
C892 H920 0.930 . S
N893 C892 1.373 . S
N893 C895 1.340 . S
N894 C891 1.368 . S
N894 C895 1.321 . S
N894 Co897 2.135 . S
C895 N893 1.340 . S
C895 N894 1.321 . S
C895 H919 0.930 . S
H896 C891 0.931 . S
Co897 N894 2.135 . S
Co897 N900 2.121 . S
Co897 O905 2.055 . S
Co897 O908 2.039 . S
Co897 N911 2.140 . S
C898 O899 1.227 . S
C898 O908 1.265 . S
O899 C898 1.227 . S
N900 Co897 2.121 . S
N900 C902 1.375 . S
N900 C903 1.313 . S
C901 C902 1.338 . S
C901 N904 1.377 . S
C901 H921 0.930 . S
C902 N900 1.375 . S
C902 C901 1.338 . S
C902 H906 0.931 . S
C903 N900 1.313 . S
C903 N904 1.344 . S
C903 H907 0.930 . S
N904 C901 1.377 . S
N904 C903 1.344 . S
O905 Co897 2.055 . S
O905 C909 1.253 . S
H906 C902 0.931 . S
H907 C903 0.930 . S
O908 Co897 2.039 . S
O908 C898 1.265 . S
C909 O905 1.253 . S
C909 O910 1.227 . S
O910 C909 1.227 . S
N911 Co897 2.140 . S
N911 C914 1.346 . S
N911 C915 1.345 . S
C912 C913 1.387 . S
C912 C916 1.391 . S
C913 C912 1.387 . S
C913 C914 1.369 . S
C913 H922 0.929 . S
C914 N911 1.346 . S
C914 C913 1.369 . S
C914 H917 0.928 . S
C915 N911 1.345 . S
C915 C916 1.371 . S
C915 H918 0.931 . S
C916 C912 1.391 . S
C916 C915 1.371 . S
C916 H923 0.930 . S
H917 C914 0.928 . S
H918 C915 0.931 . S
H919 C895 0.930 . S
H920 C892 0.930 . S
H921 C901 0.930 . S
H922 C913 0.929 . S
H923 C916 0.930 . S
C924 C925 1.351 . S
C924 N927 1.368 . S
C924 H929 0.931 . S
C925 C924 1.351 . S
C925 N926 1.373 . S
C925 H953 0.930 . S
N926 C925 1.373 . S
N926 C928 1.340 . S
N927 C924 1.368 . S
N927 C928 1.321 . S
N927 Co930 2.135 . S
C928 N926 1.340 . S
C928 N927 1.321 . S
C928 H952 0.930 . S
H929 C924 0.931 . S
Co930 N927 2.135 . S
Co930 N933 2.121 . S
Co930 O938 2.055 . S
Co930 O941 2.039 . S
Co930 N944 2.140 . S
C931 O932 1.227 . S
C931 O941 1.265 . S
O932 C931 1.227 . S
N933 Co930 2.121 . S
N933 C935 1.375 . S
N933 C936 1.313 . S
C934 C935 1.338 . S
C934 N937 1.377 . S
C934 H954 0.930 . S
C935 N933 1.375 . S
C935 C934 1.338 . S
C935 H939 0.931 . S
C936 N933 1.313 . S
C936 N937 1.344 . S
C936 H940 0.930 . S
N937 C934 1.377 . S
N937 C936 1.344 . S
O938 Co930 2.055 . S
O938 C942 1.253 . S
H939 C935 0.931 . S
H940 C936 0.930 . S
O941 Co930 2.039 . S
O941 C931 1.265 . S
C942 O938 1.253 . S
C942 O943 1.227 . S
O943 C942 1.227 . S
N944 Co930 2.140 . S
N944 C947 1.346 . S
N944 C948 1.345 . S
C945 C946 1.387 . S
C945 C949 1.391 . S
C946 C945 1.387 . S
C946 C947 1.369 . S
C946 H955 0.929 . S
C947 N944 1.346 . S
C947 C946 1.369 . S
C947 H950 0.928 . S
C948 N944 1.345 . S
C948 C949 1.371 . S
C948 H951 0.931 . S
C949 C945 1.391 . S
C949 C948 1.371 . S
C949 H956 0.930 . S
H950 C947 0.928 . S
H951 C948 0.931 . S
H952 C928 0.930 . S
H953 C925 0.930 . S
H954 C934 0.930 . S
H955 C946 0.929 . S
H956 C949 0.930 . S
C957 C958 1.351 . S
C957 N960 1.368 . S
C957 H962 0.931 . S
C958 C957 1.351 . S
C958 N959 1.373 . S
C958 H986 0.930 . S
N959 C958 1.373 . S
N959 C961 1.340 . S
N960 C957 1.368 . S
N960 C961 1.321 . S
N960 Co963 2.135 . S
C961 N959 1.340 . S
C961 N960 1.321 . S
C961 H985 0.930 . S
H962 C957 0.931 . S
Co963 N960 2.135 . S
Co963 N966 2.121 . S
Co963 O971 2.055 . S
Co963 O974 2.039 . S
Co963 N977 2.140 . S
C964 O965 1.227 . S
C964 O974 1.265 . S
O965 C964 1.227 . S
N966 Co963 2.121 . S
N966 C968 1.375 . S
N966 C969 1.313 . S
C967 C968 1.338 . S
C967 N970 1.377 . S
C967 H987 0.930 . S
C968 N966 1.375 . S
C968 C967 1.338 . S
C968 H972 0.931 . S
C969 N966 1.313 . S
C969 N970 1.344 . S
C969 H973 0.930 . S
N970 C967 1.377 . S
N970 C969 1.344 . S
O971 Co963 2.055 . S
O971 C975 1.253 . S
H972 C968 0.931 . S
H973 C969 0.930 . S
O974 Co963 2.039 . S
O974 C964 1.265 . S
C975 O971 1.253 . S
C975 O976 1.227 . S
O976 C975 1.227 . S
N977 Co963 2.140 . S
N977 C980 1.346 . S
N977 C981 1.345 . S
C978 C979 1.387 . S
C978 C982 1.391 . S
C979 C978 1.387 . S
C979 C980 1.369 . S
C979 H988 0.929 . S
C980 N977 1.346 . S
C980 C979 1.369 . S
C980 H983 0.928 . S
C981 N977 1.345 . S
C981 C982 1.371 . S
C981 H984 0.931 . S
C982 C978 1.391 . S
C982 C981 1.371 . S
C982 H989 0.930 . S
H983 C980 0.928 . S
H984 C981 0.931 . S
H985 C961 0.930 . S
H986 C958 0.930 . S
H987 C967 0.930 . S
H988 C979 0.929 . S
H989 C982 0.930 . S
C990 C991 1.351 . S
C990 N993 1.368 . S
C990 H995 0.931 . S
C991 C990 1.351 . S
C991 N992 1.373 . S
C991 H1019 0.930 . S
N992 C991 1.373 . S
N992 C994 1.340 . S
N993 C990 1.368 . S
N993 C994 1.321 . S
N993 Co996 2.135 . S
C994 N992 1.340 . S
C994 N993 1.321 . S
C994 H1018 0.930 . S
H995 C990 0.931 . S
Co996 N993 2.135 . S
Co996 N999 2.121 . S
Co996 O1004 2.055 . S
Co996 O1007 2.039 . S
Co996 N1010 2.140 . S
C997 O998 1.227 . S
C997 O1007 1.265 . S
O998 C997 1.227 . S
N999 Co996 2.121 . S
N999 C1001 1.375 . S
N999 C1002 1.313 . S
C1000 C1001 1.338 1_556 S
C1000 N1003 1.377 . S
C1000 H1020 0.930 . S
C1001 N999 1.375 . S
C1001 C1000 1.338 1_554 S
C1001 H1005 0.931 . S
C1002 N999 1.313 . S
C1002 N1003 1.344 1_554 S
C1002 H1006 0.930 . S
N1003 C1000 1.377 . S
N1003 C1002 1.344 1_556 S
O1004 Co996 2.055 . S
O1004 C1008 1.253 . S
H1005 C1001 0.931 . S
H1006 C1002 0.930 . S
O1007 Co996 2.039 . S
O1007 C997 1.265 . S
C1008 O1004 1.253 . S
C1008 O1009 1.227 . S
O1009 C1008 1.227 . S
N1010 Co996 2.140 . S
N1010 C1013 1.346 . S
N1010 C1014 1.345 . S
C1011 C1012 1.387 . S
C1011 C1015 1.391 . S
C1012 C1011 1.387 . S
C1012 C1013 1.369 . S
C1012 H1021 0.929 . S
C1013 N1010 1.346 . S
C1013 C1012 1.369 . S
C1013 H1016 0.928 . S
C1014 N1010 1.345 . S
C1014 C1015 1.371 . S
C1014 H1017 0.931 . S
C1015 C1011 1.391 . S
C1015 C1014 1.371 . S
C1015 H1022 0.930 . S
H1016 C1013 0.928 . S
H1017 C1014 0.931 . S
H1018 C994 0.930 . S
H1019 C991 0.930 . S
H1020 C1000 0.930 . S
H1021 C1012 0.929 . S
H1022 C1015 0.930 . S
C1023 C1024 1.351 . S
C1023 N1026 1.368 . S
C1023 H1028 0.931 . S
C1024 C1023 1.351 . S
C1024 N1025 1.373 . S
C1024 H1052 0.930 . S
N1025 C1024 1.373 . S
N1025 C1027 1.340 . S
N1026 C1023 1.368 . S
N1026 C1027 1.321 . S
N1026 Co1029 2.135 . S
C1027 N1025 1.340 . S
C1027 N1026 1.321 . S
C1027 H1051 0.930 . S
H1028 C1023 0.931 . S
Co1029 N1026 2.135 . S
Co1029 N1032 2.121 . S
Co1029 O1037 2.055 . S
Co1029 O1040 2.039 . S
Co1029 N1043 2.140 . S
C1030 O1031 1.227 . S
C1030 O1040 1.265 . S
O1031 C1030 1.227 . S
N1032 Co1029 2.121 . S
N1032 C1034 1.375 . S
N1032 C1035 1.313 . S
C1033 C1034 1.338 . S
C1033 N1036 1.377 . S
C1033 H1053 0.930 . S
C1034 N1032 1.375 . S
C1034 C1033 1.338 . S
C1034 H1038 0.931 . S
C1035 N1032 1.313 . S
C1035 N1036 1.344 . S
C1035 H1039 0.930 . S
N1036 C1033 1.377 . S
N1036 C1035 1.344 . S
O1037 Co1029 2.055 . S
O1037 C1041 1.253 . S
H1038 C1034 0.931 . S
H1039 C1035 0.930 . S
O1040 Co1029 2.039 . S
O1040 C1030 1.265 . S
C1041 O1037 1.253 . S
C1041 O1042 1.227 . S
O1042 C1041 1.227 . S
N1043 Co1029 2.140 . S
N1043 C1046 1.346 . S
N1043 C1047 1.345 . S
C1044 C1045 1.387 . S
C1044 C1048 1.391 . S
C1045 C1044 1.387 . S
C1045 C1046 1.369 . S
C1045 H1054 0.929 . S
C1046 N1043 1.346 . S
C1046 C1045 1.369 . S
C1046 H1049 0.928 . S
C1047 N1043 1.345 . S
C1047 C1048 1.371 . S
C1047 H1050 0.931 . S
C1048 C1044 1.391 . S
C1048 C1047 1.371 . S
C1048 H1055 0.930 . S
H1049 C1046 0.928 . S
H1050 C1047 0.931 . S
H1051 C1027 0.930 . S
H1052 C1024 0.930 . S
H1053 C1033 0.930 . S
H1054 C1045 0.929 . S
H1055 C1048 0.930 . S
H1056 C1062 0.930 . S
H1057 C1066 0.930 . S
H1058 C1071 0.929 . S
H1059 C1069 0.929 . S
H1060 C1064 0.929 . S
H1061 C1070 0.929 . S
C1062 H1056 0.930 . S
C1062 C1063 1.367 . S
C1062 C1070 1.378 . S
C1063 C1062 1.367 . S
C1063 C1071 1.433 . S
C1064 H1060 0.929 . S
C1064 C1066 1.378 . S
C1064 C1068 1.350 . S
C1065 C1068 1.463 . S
C1065 C1070 1.350 . S
C1065 N1073 1.427 . S
C1066 H1057 0.930 . S
C1066 C1064 1.378 . S
C1066 C1067 1.367 . S
C1067 C1066 1.367 . S
C1067 C1069 1.433 . S
C1068 C1064 1.350 . S
C1068 C1065 1.463 . S
C1068 N1072 1.427 . S
C1069 H1059 0.929 . S
C1069 C1067 1.433 . S
C1069 N1072 1.384 . S
C1070 H1061 0.929 . S
C1070 C1062 1.378 . S
C1070 C1065 1.350 . S
C1071 H1058 0.929 . S
C1071 C1063 1.433 . S
C1071 N1073 1.384 . S
N1072 C1068 1.427 . S
N1072 C1069 1.384 . S
N1073 C1065 1.427 . S
N1073 C1071 1.384 . S
H1074 C1080 0.930 . S
H1075 C1084 0.930 . S
H1076 C1089 0.929 . S
H1077 C1087 0.929 . S
H1078 C1082 0.929 . S
H1079 C1088 0.929 . S
C1080 H1074 0.930 . S
C1080 C1081 1.367 . S
C1080 C1088 1.378 . S
C1081 C1080 1.367 . S
C1081 C1089 1.433 . S
C1082 H1078 0.929 . S
C1082 C1084 1.378 . S
C1082 C1086 1.350 . S
C1083 C1086 1.463 . S
C1083 C1088 1.350 . S
C1083 N1091 1.427 . S
C1084 H1075 0.930 . S
C1084 C1082 1.378 . S
C1084 C1085 1.367 . S
C1085 C1084 1.367 . S
C1085 C1087 1.433 . S
C1086 C1082 1.350 . S
C1086 C1083 1.463 . S
C1086 N1090 1.427 . S
C1087 H1077 0.929 . S
C1087 C1085 1.433 . S
C1087 N1090 1.384 . S
C1088 H1079 0.929 . S
C1088 C1080 1.378 . S
C1088 C1083 1.350 . S
C1089 H1076 0.929 . S
C1089 C1081 1.433 . S
C1089 N1091 1.384 . S
N1090 C1086 1.427 . S
N1090 C1087 1.384 . S
N1091 C1083 1.427 . S
N1091 C1089 1.384 . S
H1092 C1098 0.930 . S
H1093 C1102 0.930 . S
H1094 C1107 0.929 . S
H1095 C1105 0.929 . S
H1096 C1100 0.929 . S
H1097 C1106 0.929 . S
C1098 H1092 0.930 . S
C1098 C1099 1.367 . S
C1098 C1106 1.378 . S
C1099 C1098 1.367 . S
C1099 C1107 1.433 . S
C1100 H1096 0.929 . S
C1100 C1102 1.378 . S
C1100 C1104 1.350 . S
C1101 C1104 1.463 . S
C1101 C1106 1.350 . S
C1101 N1109 1.427 . S
C1102 H1093 0.930 . S
C1102 C1100 1.378 . S
C1102 C1103 1.367 . S
C1103 C1102 1.367 . S
C1103 C1105 1.433 . S
C1104 C1100 1.350 . S
C1104 C1101 1.463 . S
C1104 N1108 1.427 . S
C1105 H1095 0.929 . S
C1105 C1103 1.433 . S
C1105 N1108 1.384 . S
C1106 H1097 0.929 . S
C1106 C1098 1.378 . S
C1106 C1101 1.350 . S
C1107 H1094 0.929 . S
C1107 C1099 1.433 . S
C1107 N1109 1.384 . S
N1108 C1104 1.427 . S
N1108 C1105 1.384 . S
N1109 C1101 1.427 . S
N1109 C1107 1.384 . S
H1110 C1116 0.930 . S
H1111 C1120 0.930 . S
H1112 C1125 0.929 . S
H1113 C1123 0.929 . S
H1114 C1118 0.929 . S
H1115 C1124 0.929 . S
C1116 H1110 0.930 . S
C1116 C1117 1.367 . S
C1116 C1124 1.378 . S
C1117 C1116 1.367 . S
C1117 C1125 1.433 . S
C1118 H1114 0.929 . S
C1118 C1120 1.378 . S
C1118 C1122 1.350 . S
C1119 C1122 1.463 . S
C1119 C1124 1.350 . S
C1119 N1127 1.427 . S
C1120 H1111 0.930 . S
C1120 C1118 1.378 . S
C1120 C1121 1.367 . S
C1121 C1120 1.367 . S
C1121 C1123 1.433 . S
C1122 C1118 1.350 . S
C1122 C1119 1.463 . S
C1122 N1126 1.427 . S
C1123 H1113 0.929 . S
C1123 C1121 1.433 . S
C1123 N1126 1.384 . S
C1124 H1115 0.929 . S
C1124 C1116 1.378 . S
C1124 C1119 1.350 . S
C1125 H1112 0.929 . S
C1125 C1117 1.433 . S
C1125 N1127 1.384 . S
N1126 C1122 1.427 . S
N1126 C1123 1.384 . S
N1127 C1119 1.427 . S
N1127 C1125 1.384 . S
H1128 C1134 0.930 . S
H1129 C1138 0.930 . S
H1130 C1143 0.929 . S
H1131 C1141 0.929 . S
H1132 C1136 0.929 . S
H1133 C1142 0.929 . S
C1134 H1128 0.930 . S
C1134 C1135 1.367 . S
C1134 C1142 1.378 . S
C1135 C1134 1.367 . S
C1135 C1143 1.433 . S
C1136 H1132 0.929 . S
C1136 C1138 1.378 . S
C1136 C1140 1.350 . S
C1137 C1140 1.463 . S
C1137 C1142 1.350 . S
C1137 N1145 1.427 . S
C1138 H1129 0.930 . S
C1138 C1136 1.378 . S
C1138 C1139 1.367 . S
C1139 C1138 1.367 . S
C1139 C1141 1.433 . S
C1140 C1136 1.350 . S
C1140 C1137 1.463 . S
C1140 N1144 1.427 . S
C1141 H1131 0.929 . S
C1141 C1139 1.433 . S
C1141 N1144 1.384 . S
C1142 H1133 0.929 . S
C1142 C1134 1.378 . S
C1142 C1137 1.350 . S
C1143 H1130 0.929 . S
C1143 C1135 1.433 . S
C1143 N1145 1.384 . S
N1144 C1140 1.427 . S
N1144 C1141 1.384 . S
N1145 C1137 1.427 . S
N1145 C1143 1.384 . S
H1146 C1152 0.930 . S
H1147 C1156 0.930 . S
H1148 C1161 0.929 . S
H1149 C1159 0.929 . S
H1150 C1154 0.929 . S
H1151 C1160 0.929 . S
C1152 H1146 0.930 . S
C1152 C1153 1.367 . S
C1152 C1160 1.378 . S
C1153 C1152 1.367 . S
C1153 C1161 1.433 . S
C1154 H1150 0.929 . S
C1154 C1156 1.378 . S
C1154 C1158 1.350 . S
C1155 C1158 1.463 . S
C1155 C1160 1.350 . S
C1155 N1163 1.427 . S
C1156 H1147 0.930 . S
C1156 C1154 1.378 . S
C1156 C1157 1.367 . S
C1157 C1156 1.367 . S
C1157 C1159 1.433 . S
C1158 C1154 1.350 . S
C1158 C1155 1.463 . S
C1158 N1162 1.427 . S
C1159 H1149 0.929 . S
C1159 C1157 1.433 . S
C1159 N1162 1.384 . S
C1160 H1151 0.929 . S
C1160 C1152 1.378 . S
C1160 C1155 1.350 . S
C1161 H1148 0.929 . S
C1161 C1153 1.433 . S
C1161 N1163 1.384 . S
N1162 C1158 1.427 . S
N1162 C1159 1.384 . S
N1163 C1155 1.427 . S
N1163 C1161 1.384 . S
H1164 C1170 0.930 . S
H1165 C1174 0.930 . S
H1166 C1179 0.929 . S
H1167 C1177 0.929 . S
H1168 C1172 0.929 . S
H1169 C1178 0.929 . S
C1170 H1164 0.930 . S
C1170 C1171 1.367 . S
C1170 C1178 1.378 . S
C1171 C1170 1.367 . S
C1171 C1179 1.433 . S
C1172 H1168 0.929 . S
C1172 C1174 1.378 . S
C1172 C1176 1.350 . S
C1173 C1176 1.463 . S
C1173 C1178 1.350 . S
C1173 N1181 1.427 . S
C1174 H1165 0.930 . S
C1174 C1172 1.378 . S
C1174 C1175 1.367 . S
C1175 C1174 1.367 . S
C1175 C1177 1.433 . S
C1176 C1172 1.350 . S
C1176 C1173 1.463 . S
C1176 N1180 1.427 . S
C1177 H1167 0.929 . S
C1177 C1175 1.433 . S
C1177 N1180 1.384 . S
C1178 H1169 0.929 . S
C1178 C1170 1.378 . S
C1178 C1173 1.350 . S
C1179 H1166 0.929 . S
C1179 C1171 1.433 . S
C1179 N1181 1.384 . S
N1180 C1176 1.427 . S
N1180 C1177 1.384 . S
N1181 C1173 1.427 . S
N1181 C1179 1.384 . S
H1182 C1188 0.930 . S
H1183 C1192 0.930 . S
H1184 C1197 0.929 . S
H1185 C1195 0.929 . S
H1186 C1190 0.929 . S
H1187 C1196 0.929 . S
C1188 H1182 0.930 . S
C1188 C1189 1.367 . S
C1188 C1196 1.378 . S
C1189 C1188 1.367 . S
C1189 C1197 1.433 . S
C1190 H1186 0.929 . S
C1190 C1192 1.378 . S
C1190 C1194 1.350 . S
C1191 C1194 1.463 . S
C1191 C1196 1.350 . S
C1191 N1199 1.427 . S
C1192 H1183 0.930 . S
C1192 C1190 1.378 . S
C1192 C1193 1.367 . S
C1193 C1192 1.367 . S
C1193 C1195 1.433 . S
C1194 C1190 1.350 . S
C1194 C1191 1.463 . S
C1194 N1198 1.427 . S
C1195 H1185 0.929 . S
C1195 C1193 1.433 . S
C1195 N1198 1.384 . S
C1196 H1187 0.929 . S
C1196 C1188 1.378 . S
C1196 C1191 1.350 . S
C1197 H1184 0.929 . S
C1197 C1189 1.433 . S
C1197 N1199 1.384 . S
N1198 C1194 1.427 . S
N1198 C1195 1.384 . S
N1199 C1191 1.427 . S
N1199 C1197 1.384 . S
H1200 C1206 0.930 . S
H1201 C1210 0.930 . S
H1202 C1215 0.929 . S
H1203 C1213 0.929 . S
H1204 C1208 0.929 . S
H1205 C1214 0.929 . S
C1206 H1200 0.930 . S
C1206 C1207 1.367 . S
C1206 C1214 1.378 . S
C1207 C1206 1.367 . S
C1207 C1215 1.433 . S
C1208 H1204 0.929 . S
C1208 C1210 1.378 . S
C1208 C1212 1.350 . S
C1209 C1212 1.463 . S
C1209 C1214 1.350 . S
C1209 N1217 1.427 . S
C1210 H1201 0.930 . S
C1210 C1208 1.378 . S
C1210 C1211 1.367 . S
C1211 C1210 1.367 . S
C1211 C1213 1.433 . S
C1212 C1208 1.350 . S
C1212 C1209 1.463 . S
C1212 N1216 1.427 . S
C1213 H1203 0.929 . S
C1213 C1211 1.433 . S
C1213 N1216 1.384 . S
C1214 H1205 0.929 . S
C1214 C1206 1.378 . S
C1214 C1209 1.350 . S
C1215 H1202 0.929 . S
C1215 C1207 1.433 . S
C1215 N1217 1.384 . S
N1216 C1212 1.427 . S
N1216 C1213 1.384 . S
N1217 C1209 1.427 . S
N1217 C1215 1.384 . S
H1218 C1224 0.930 . S
H1219 C1228 0.930 . S
H1220 C1233 0.929 . S
H1221 C1231 0.929 . S
H1222 C1226 0.929 . S
H1223 C1232 0.929 . S
C1224 H1218 0.930 . S
C1224 C1225 1.367 . S
C1224 C1232 1.378 . S
C1225 C1224 1.367 . S
C1225 C1233 1.433 . S
C1226 H1222 0.929 . S
C1226 C1228 1.378 . S
C1226 C1230 1.350 . S
C1227 C1230 1.463 . S
C1227 C1232 1.350 . S
C1227 N1235 1.427 . S
C1228 H1219 0.930 . S
C1228 C1226 1.378 . S
C1228 C1229 1.367 . S
C1229 C1228 1.367 . S
C1229 C1231 1.433 . S
C1230 C1226 1.350 . S
C1230 C1227 1.463 . S
C1230 N1234 1.427 . S
C1231 H1221 0.929 . S
C1231 C1229 1.433 . S
C1231 N1234 1.384 . S
C1232 H1223 0.929 . S
C1232 C1224 1.378 . S
C1232 C1227 1.350 . S
C1233 H1220 0.929 . S
C1233 C1225 1.433 . S
C1233 N1235 1.384 . S
N1234 C1230 1.427 . S
N1234 C1231 1.384 . S
N1235 C1227 1.427 . S
N1235 C1233 1.384 . S
H1236 C1242 0.930 . S
H1237 C1246 0.930 . S
H1238 C1251 0.929 . S
H1239 C1249 0.929 . S
H1240 C1244 0.929 . S
H1241 C1250 0.929 . S
C1242 H1236 0.930 . S
C1242 C1243 1.367 . S
C1242 C1250 1.378 . S
C1243 C1242 1.367 . S
C1243 C1251 1.433 . S
C1244 H1240 0.929 . S
C1244 C1246 1.378 . S
C1244 C1248 1.350 . S
C1245 C1248 1.463 . S
C1245 C1250 1.350 . S
C1245 N1253 1.427 . S
C1246 H1237 0.930 . S
C1246 C1244 1.378 . S
C1246 C1247 1.367 . S
C1247 C1246 1.367 . S
C1247 C1249 1.433 . S
C1248 C1244 1.350 . S
C1248 C1245 1.463 . S
C1248 N1252 1.427 . S
C1249 H1239 0.929 . S
C1249 C1247 1.433 . S
C1249 N1252 1.384 . S
C1250 H1241 0.929 . S
C1250 C1242 1.378 . S
C1250 C1245 1.350 . S
C1251 H1238 0.929 . S
C1251 C1243 1.433 . S
C1251 N1253 1.384 . S
N1252 C1248 1.427 . S
N1252 C1249 1.384 . S
N1253 C1245 1.427 . S
N1253 C1251 1.384 . S
H1254 C1260 0.930 . S
H1255 C1264 0.930 . S
H1256 C1269 0.929 . S
H1257 C1267 0.929 . S
H1258 C1262 0.929 . S
H1259 C1268 0.929 . S
C1260 H1254 0.930 . S
C1260 C1261 1.367 . S
C1260 C1268 1.378 . S
C1261 C1260 1.367 . S
C1261 C1269 1.433 . S
C1262 H1258 0.929 . S
C1262 C1264 1.378 . S
C1262 C1266 1.350 . S
C1263 C1266 1.463 . S
C1263 C1268 1.350 . S
C1263 N1271 1.427 . S
C1264 H1255 0.930 . S
C1264 C1262 1.378 . S
C1264 C1265 1.367 . S
C1265 C1264 1.367 . S
C1265 C1267 1.433 . S
C1266 C1262 1.350 . S
C1266 C1263 1.463 . S
C1266 N1270 1.427 . S
C1267 H1257 0.929 . S
C1267 C1265 1.433 . S
C1267 N1270 1.384 . S
C1268 H1259 0.929 . S
C1268 C1260 1.378 . S
C1268 C1263 1.350 . S
C1269 H1256 0.929 . S
C1269 C1261 1.433 . S
C1269 N1271 1.384 . S
N1270 C1266 1.427 . S
N1270 C1267 1.384 . S
N1271 C1263 1.427 . S
N1271 C1269 1.384 . S
H1272 C1278 0.930 . S
H1273 C1282 0.930 . S
H1274 C1287 0.929 . S
H1275 C1285 0.929 . S
H1276 C1280 0.929 . S
H1277 C1286 0.929 . S
C1278 H1272 0.930 . S
C1278 C1279 1.367 . S
C1278 C1286 1.378 . S
C1279 C1278 1.367 . S
C1279 C1287 1.433 . S
C1280 H1276 0.929 . S
C1280 C1282 1.378 . S
C1280 C1284 1.350 . S
C1281 C1284 1.463 . S
C1281 C1286 1.350 . S
C1281 N1289 1.427 . S
C1282 H1273 0.930 . S
C1282 C1280 1.378 . S
C1282 C1283 1.367 . S
C1283 C1282 1.367 . S
C1283 C1285 1.433 . S
C1284 C1280 1.350 . S
C1284 C1281 1.463 . S
C1284 N1288 1.427 . S
C1285 H1275 0.929 . S
C1285 C1283 1.433 . S
C1285 N1288 1.384 . S
C1286 H1277 0.929 . S
C1286 C1278 1.378 . S
C1286 C1281 1.350 . S
C1287 H1274 0.929 . S
C1287 C1279 1.433 . S
C1287 N1289 1.384 . S
N1288 C1284 1.427 . S
N1288 C1285 1.384 . S
N1289 C1281 1.427 . S
N1289 C1287 1.384 . S
H1290 C1296 0.930 . S
H1291 C1300 0.930 . S
H1292 C1305 0.929 . S
H1293 C1303 0.929 . S
H1294 C1298 0.929 . S
H1295 C1304 0.929 . S
C1296 H1290 0.930 . S
C1296 C1297 1.367 . S
C1296 C1304 1.378 . S
C1297 C1296 1.367 . S
C1297 C1305 1.433 . S
C1298 H1294 0.929 . S
C1298 C1300 1.378 . S
C1298 C1302 1.350 . S
C1299 C1302 1.463 . S
C1299 C1304 1.350 . S
C1299 N1307 1.427 . S
C1300 H1291 0.930 . S
C1300 C1298 1.378 . S
C1300 C1301 1.367 . S
C1301 C1300 1.367 . S
C1301 C1303 1.433 . S
C1302 C1298 1.350 . S
C1302 C1299 1.463 . S
C1302 N1306 1.427 . S
C1303 H1293 0.929 . S
C1303 C1301 1.433 . S
C1303 N1306 1.384 . S
C1304 H1295 0.929 . S
C1304 C1296 1.378 . S
C1304 C1299 1.350 . S
C1305 H1292 0.929 . S
C1305 C1297 1.433 . S
C1305 N1307 1.384 . S
N1306 C1302 1.427 . S
N1306 C1303 1.384 . S
N1307 C1299 1.427 . S
N1307 C1305 1.384 . S
H1308 C1314 0.930 . S
H1309 C1318 0.930 . S
H1310 C1323 0.929 . S
H1311 C1321 0.929 . S
H1312 C1316 0.929 . S
H1313 C1322 0.929 . S
C1314 H1308 0.930 . S
C1314 C1315 1.367 . S
C1314 C1322 1.378 . S
C1315 C1314 1.367 . S
C1315 C1323 1.433 . S
C1316 H1312 0.929 . S
C1316 C1318 1.378 . S
C1316 C1320 1.350 . S
C1317 C1320 1.463 . S
C1317 C1322 1.350 . S
C1317 N1325 1.427 . S
C1318 H1309 0.930 . S
C1318 C1316 1.378 . S
C1318 C1319 1.367 . S
C1319 C1318 1.367 . S
C1319 C1321 1.433 . S
C1320 C1316 1.350 . S
C1320 C1317 1.463 . S
C1320 N1324 1.427 . S
C1321 H1311 0.929 . S
C1321 C1319 1.433 . S
C1321 N1324 1.384 . S
C1322 H1313 0.929 . S
C1322 C1314 1.378 . S
C1322 C1317 1.350 . S
C1323 H1310 0.929 . S
C1323 C1315 1.433 . S
C1323 N1325 1.384 . S
N1324 C1320 1.427 . S
N1324 C1321 1.384 . S
N1325 C1317 1.427 . S
N1325 C1323 1.384 . S
H1326 C1332 0.930 . S
H1327 C1336 0.930 . S
H1328 C1341 0.929 . S
H1329 C1339 0.929 . S
H1330 C1334 0.929 . S
H1331 C1340 0.929 . S
C1332 H1326 0.930 . S
C1332 C1333 1.367 . S
C1332 C1340 1.378 . S
C1333 C1332 1.367 . S
C1333 C1341 1.433 . S
C1334 H1330 0.929 . S
C1334 C1336 1.378 . S
C1334 C1338 1.350 . S
C1335 C1338 1.463 . S
C1335 C1340 1.350 . S
C1335 N1343 1.427 . S
C1336 H1327 0.930 . S
C1336 C1334 1.378 . S
C1336 C1337 1.367 . S
C1337 C1336 1.367 . S
C1337 C1339 1.433 . S
C1338 C1334 1.350 . S
C1338 C1335 1.463 . S
C1338 N1342 1.427 . S
C1339 H1329 0.929 . S
C1339 C1337 1.433 . S
C1339 N1342 1.384 . S
C1340 H1331 0.929 . S
C1340 C1332 1.378 . S
C1340 C1335 1.350 . S
C1341 H1328 0.929 . S
C1341 C1333 1.433 . S
C1341 N1343 1.384 . S
N1342 C1338 1.427 . S
N1342 C1339 1.384 . S
N1343 C1335 1.427 . S
N1343 C1341 1.384 . S
H1344 C1350 0.930 . S
H1345 C1354 0.930 . S
H1346 C1359 0.929 . S
H1347 C1357 0.929 . S
H1348 C1352 0.929 . S
H1349 C1358 0.929 . S
C1350 H1344 0.930 . S
C1350 C1351 1.367 . S
C1350 C1358 1.378 . S
C1351 C1350 1.367 . S
C1351 C1359 1.433 . S
C1352 H1348 0.929 . S
C1352 C1354 1.378 . S
C1352 C1356 1.350 . S
C1353 C1356 1.463 . S
C1353 C1358 1.350 . S
C1353 N1361 1.427 . S
C1354 H1345 0.930 . S
C1354 C1352 1.378 . S
C1354 C1355 1.367 . S
C1355 C1354 1.367 . S
C1355 C1357 1.433 . S
C1356 C1352 1.350 . S
C1356 C1353 1.463 . S
C1356 N1360 1.427 . S
C1357 H1347 0.929 . S
C1357 C1355 1.433 . S
C1357 N1360 1.384 . S
C1358 H1349 0.929 . S
C1358 C1350 1.378 . S
C1358 C1353 1.350 . S
C1359 H1346 0.929 . S
C1359 C1351 1.433 . S
C1359 N1361 1.384 . S
N1360 C1356 1.427 . S
N1360 C1357 1.384 . S
N1361 C1353 1.427 . S
N1361 C1359 1.384 . S
H1362 C1368 0.930 . S
H1363 C1372 0.930 . S
H1364 C1377 0.929 . S
H1365 C1375 0.929 . S
H1366 C1370 0.929 . S
H1367 C1376 0.929 . S
C1368 H1362 0.930 . S
C1368 C1369 1.367 . S
C1368 C1376 1.378 . S
C1369 C1368 1.367 . S
C1369 C1377 1.433 . S
C1370 H1366 0.929 . S
C1370 C1372 1.378 . S
C1370 C1374 1.350 . S
C1371 C1374 1.463 . S
C1371 C1376 1.350 . S
C1371 N1379 1.427 . S
C1372 H1363 0.930 . S
C1372 C1370 1.378 . S
C1372 C1373 1.367 . S
C1373 C1372 1.367 . S
C1373 C1375 1.433 . S
C1374 C1370 1.350 . S
C1374 C1371 1.463 . S
C1374 N1378 1.427 . S
C1375 H1365 0.929 . S
C1375 C1373 1.433 . S
C1375 N1378 1.384 . S
C1376 H1367 0.929 . S
C1376 C1368 1.378 . S
C1376 C1371 1.350 . S
C1377 H1364 0.929 . S
C1377 C1369 1.433 . S
C1377 N1379 1.384 . S
N1378 C1374 1.427 . S
N1378 C1375 1.384 . S
N1379 C1371 1.427 . S
N1379 C1377 1.384 . S
H1380 C1386 0.930 . S
H1381 C1390 0.930 . S
H1382 C1395 0.929 . S
H1383 C1393 0.929 . S
H1384 C1388 0.929 . S
H1385 C1394 0.929 . S
C1386 H1380 0.930 . S
C1386 C1387 1.367 . S
C1386 C1394 1.378 . S
C1387 C1386 1.367 . S
C1387 C1395 1.433 . S
C1388 H1384 0.929 . S
C1388 C1390 1.378 . S
C1388 C1392 1.350 . S
C1389 C1392 1.463 . S
C1389 C1394 1.350 . S
C1389 N1397 1.427 . S
C1390 H1381 0.930 . S
C1390 C1388 1.378 . S
C1390 C1391 1.367 . S
C1391 C1390 1.367 . S
C1391 C1393 1.433 . S
C1392 C1388 1.350 . S
C1392 C1389 1.463 . S
C1392 N1396 1.427 . S
C1393 H1383 0.929 . S
C1393 C1391 1.433 . S
C1393 N1396 1.384 . S
C1394 H1385 0.929 . S
C1394 C1386 1.378 . S
C1394 C1389 1.350 . S
C1395 H1382 0.929 . S
C1395 C1387 1.433 . S
C1395 N1397 1.384 . S
N1396 C1392 1.427 . S
N1396 C1393 1.384 . S
N1397 C1389 1.427 . S
N1397 C1395 1.384 . S
H1398 C1404 0.930 . S
H1399 C1408 0.930 . S
H1400 C1413 0.929 . S
H1401 C1411 0.929 . S
H1402 C1406 0.929 . S
H1403 C1412 0.929 . S
C1404 H1398 0.930 . S
C1404 C1405 1.367 . S
C1404 C1412 1.378 . S
C1405 C1404 1.367 . S
C1405 C1413 1.433 . S
C1406 H1402 0.929 . S
C1406 C1408 1.378 . S
C1406 C1410 1.350 . S
C1407 C1410 1.463 . S
C1407 C1412 1.350 . S
C1407 N1415 1.427 . S
C1408 H1399 0.930 . S
C1408 C1406 1.378 . S
C1408 C1409 1.367 . S
C1409 C1408 1.367 . S
C1409 C1411 1.433 . S
C1410 C1406 1.350 . S
C1410 C1407 1.463 . S
C1410 N1414 1.427 . S
C1411 H1401 0.929 . S
C1411 C1409 1.433 . S
C1411 N1414 1.384 . S
C1412 H1403 0.929 . S
C1412 C1404 1.378 . S
C1412 C1407 1.350 . S
C1413 H1400 0.929 . S
C1413 C1405 1.433 . S
C1413 N1415 1.384 . S
N1414 C1410 1.427 . S
N1414 C1411 1.384 . S
N1415 C1407 1.427 . S
N1415 C1413 1.384 . S
H1416 C1422 0.930 . S
H1417 C1426 0.930 . S
H1418 C1431 0.929 . S
H1419 C1429 0.929 . S
H1420 C1424 0.929 . S
H1421 C1430 0.929 . S
C1422 H1416 0.930 . S
C1422 C1423 1.367 . S
C1422 C1430 1.378 . S
C1423 C1422 1.367 . S
C1423 C1431 1.433 . S
C1424 H1420 0.929 . S
C1424 C1426 1.378 . S
C1424 C1428 1.350 . S
C1425 C1428 1.463 . S
C1425 C1430 1.350 . S
C1425 N1433 1.427 . S
C1426 H1417 0.930 . S
C1426 C1424 1.378 . S
C1426 C1427 1.367 . S
C1427 C1426 1.367 . S
C1427 C1429 1.433 . S
C1428 C1424 1.350 . S
C1428 C1425 1.463 . S
C1428 N1432 1.427 . S
C1429 H1419 0.929 . S
C1429 C1427 1.433 . S
C1429 N1432 1.384 . S
C1430 H1421 0.929 . S
C1430 C1422 1.378 . S
C1430 C1425 1.350 . S
C1431 H1418 0.929 . S
C1431 C1423 1.433 . S
C1431 N1433 1.384 . S
N1432 C1428 1.427 . S
N1432 C1429 1.384 . S
N1433 C1425 1.427 . S
N1433 C1431 1.384 . S
H1434 C1440 0.930 . S
H1435 C1444 0.930 . S
H1436 C1449 0.929 . S
H1437 C1447 0.929 . S
H1438 C1442 0.929 . S
H1439 C1448 0.929 . S
C1440 H1434 0.930 . S
C1440 C1441 1.367 . S
C1440 C1448 1.378 . S
C1441 C1440 1.367 . S
C1441 C1449 1.433 . S
C1442 H1438 0.929 . S
C1442 C1444 1.378 . S
C1442 C1446 1.350 . S
C1443 C1446 1.463 . S
C1443 C1448 1.350 . S
C1443 N1451 1.427 . S
C1444 H1435 0.930 . S
C1444 C1442 1.378 . S
C1444 C1445 1.367 . S
C1445 C1444 1.367 . S
C1445 C1447 1.433 . S
C1446 C1442 1.350 . S
C1446 C1443 1.463 . S
C1446 N1450 1.427 . S
C1447 H1437 0.929 . S
C1447 C1445 1.433 . S
C1447 N1450 1.384 . S
C1448 H1439 0.929 . S
C1448 C1440 1.378 . S
C1448 C1443 1.350 . S
C1449 H1436 0.929 . S
C1449 C1441 1.433 . S
C1449 N1451 1.384 . S
N1450 C1446 1.427 . S
N1450 C1447 1.384 . S
N1451 C1443 1.427 . S
N1451 C1449 1.384 . S
H1452 C1458 0.930 . S
H1453 C1462 0.930 . S
H1454 C1467 0.929 . S
H1455 C1465 0.929 . S
H1456 C1460 0.929 . S
H1457 C1466 0.929 . S
C1458 H1452 0.930 . S
C1458 C1459 1.367 . S
C1458 C1466 1.378 . S
C1459 C1458 1.367 . S
C1459 C1467 1.433 . S
C1460 H1456 0.929 . S
C1460 C1462 1.378 . S
C1460 C1464 1.350 . S
C1461 C1464 1.463 . S
C1461 C1466 1.350 . S
C1461 N1469 1.427 . S
C1462 H1453 0.930 . S
C1462 C1460 1.378 . S
C1462 C1463 1.367 . S
C1463 C1462 1.367 . S
C1463 C1465 1.433 . S
C1464 C1460 1.350 . S
C1464 C1461 1.463 . S
C1464 N1468 1.427 . S
C1465 H1455 0.929 . S
C1465 C1463 1.433 . S
C1465 N1468 1.384 . S
C1466 H1457 0.929 . S
C1466 C1458 1.378 . S
C1466 C1461 1.350 . S
C1467 H1454 0.929 . S
C1467 C1459 1.433 . S
C1467 N1469 1.384 . S
N1468 C1464 1.427 . S
N1468 C1465 1.384 . S
N1469 C1461 1.427 . S
N1469 C1467 1.384 . S
H1470 C1476 0.930 . S
H1471 C1480 0.930 . S
H1472 C1485 0.929 . S
H1473 C1483 0.929 . S
H1474 C1478 0.929 . S
H1475 C1484 0.929 . S
C1476 H1470 0.930 . S
C1476 C1477 1.367 . S
C1476 C1484 1.378 . S
C1477 C1476 1.367 . S
C1477 C1485 1.433 . S
C1478 H1474 0.929 . S
C1478 C1480 1.378 . S
C1478 C1482 1.350 . S
C1479 C1482 1.463 . S
C1479 C1484 1.350 . S
C1479 N1487 1.427 . S
C1480 H1471 0.930 . S
C1480 C1478 1.378 . S
C1480 C1481 1.367 . S
C1481 C1480 1.367 . S
C1481 C1483 1.433 . S
C1482 C1478 1.350 . S
C1482 C1479 1.463 . S
C1482 N1486 1.427 . S
C1483 H1473 0.929 . S
C1483 C1481 1.433 . S
C1483 N1486 1.384 . S
C1484 H1475 0.929 . S
C1484 C1476 1.378 . S
C1484 C1479 1.350 . S
C1485 H1472 0.929 . S
C1485 C1477 1.433 . S
C1485 N1487 1.384 . S
N1486 C1482 1.427 . S
N1486 C1483 1.384 . S
N1487 C1479 1.427 . S
N1487 C1485 1.384 . S
H1488 C1494 0.930 . S
H1489 C1498 0.930 . S
H1490 C1503 0.929 . S
H1491 C1501 0.929 . S
H1492 C1496 0.929 . S
H1493 C1502 0.929 . S
C1494 H1488 0.930 . S
C1494 C1495 1.367 . S
C1494 C1502 1.378 . S
C1495 C1494 1.367 . S
C1495 C1503 1.433 . S
C1496 H1492 0.929 . S
C1496 C1498 1.378 . S
C1496 C1500 1.350 . S
C1497 C1500 1.463 . S
C1497 C1502 1.350 . S
C1497 N1505 1.427 . S
C1498 H1489 0.930 . S
C1498 C1496 1.378 . S
C1498 C1499 1.367 . S
C1499 C1498 1.367 . S
C1499 C1501 1.433 . S
C1500 C1496 1.350 . S
C1500 C1497 1.463 . S
C1500 N1504 1.427 . S
C1501 H1491 0.929 . S
C1501 C1499 1.433 . S
C1501 N1504 1.384 . S
C1502 H1493 0.929 . S
C1502 C1494 1.378 . S
C1502 C1497 1.350 . S
C1503 H1490 0.929 . S
C1503 C1495 1.433 . S
C1503 N1505 1.384 . S
N1504 C1500 1.427 . S
N1504 C1501 1.384 . S
N1505 C1497 1.427 . S
N1505 C1503 1.384 . S
H1506 C1512 0.930 . S
H1507 C1516 0.930 . S
H1508 C1521 0.929 . S
H1509 C1519 0.929 . S
H1510 C1514 0.929 . S
H1511 C1520 0.929 . S
C1512 H1506 0.930 . S
C1512 C1513 1.367 . S
C1512 C1520 1.378 . S
C1513 C1512 1.367 . S
C1513 C1521 1.433 . S
C1514 H1510 0.929 . S
C1514 C1516 1.378 . S
C1514 C1518 1.350 . S
C1515 C1518 1.463 . S
C1515 C1520 1.350 . S
C1515 N1523 1.427 . S
C1516 H1507 0.930 . S
C1516 C1514 1.378 . S
C1516 C1517 1.367 . S
C1517 C1516 1.367 . S
C1517 C1519 1.433 . S
C1518 C1514 1.350 . S
C1518 C1515 1.463 . S
C1518 N1522 1.427 . S
C1519 H1509 0.929 . S
C1519 C1517 1.433 . S
C1519 N1522 1.384 . S
C1520 H1511 0.929 . S
C1520 C1512 1.378 . S
C1520 C1515 1.350 . S
C1521 H1508 0.929 . S
C1521 C1513 1.433 . S
C1521 N1523 1.384 . S
N1522 C1518 1.427 . S
N1522 C1519 1.384 . S
N1523 C1515 1.427 . S
N1523 C1521 1.384 . S
H1524 C1530 0.930 . S
H1525 C1534 0.930 . S
H1526 C1539 0.929 . S
H1527 C1537 0.929 . S
H1528 C1532 0.929 . S
H1529 C1538 0.929 . S
C1530 H1524 0.930 . S
C1530 C1531 1.367 . S
C1530 C1538 1.378 . S
C1531 C1530 1.367 . S
C1531 C1539 1.433 . S
C1532 H1528 0.929 . S
C1532 C1534 1.378 . S
C1532 C1536 1.350 . S
C1533 C1536 1.463 . S
C1533 C1538 1.350 . S
C1533 N1541 1.427 . S
C1534 H1525 0.930 . S
C1534 C1532 1.378 . S
C1534 C1535 1.367 . S
C1535 C1534 1.367 . S
C1535 C1537 1.433 . S
C1536 C1532 1.350 . S
C1536 C1533 1.463 . S
C1536 N1540 1.427 . S
C1537 H1527 0.929 . S
C1537 C1535 1.433 . S
C1537 N1540 1.384 . S
C1538 H1529 0.929 . S
C1538 C1530 1.378 . S
C1538 C1533 1.350 . S
C1539 H1526 0.929 . S
C1539 C1531 1.433 . S
C1539 N1541 1.384 . S
N1540 C1536 1.427 . S
N1540 C1537 1.384 . S
N1541 C1533 1.427 . S
N1541 C1539 1.384 . S
H1542 C1548 0.930 . S
H1543 C1552 0.930 . S
H1544 C1557 0.929 . S
H1545 C1555 0.929 . S
H1546 C1550 0.929 . S
H1547 C1556 0.929 . S
C1548 H1542 0.930 . S
C1548 C1549 1.367 . S
C1548 C1556 1.378 . S
C1549 C1548 1.367 . S
C1549 C1557 1.433 . S
C1550 H1546 0.929 . S
C1550 C1552 1.378 . S
C1550 C1554 1.350 . S
C1551 C1554 1.463 . S
C1551 C1556 1.350 . S
C1551 N1559 1.427 . S
C1552 H1543 0.930 . S
C1552 C1550 1.378 . S
C1552 C1553 1.367 . S
C1553 C1552 1.367 . S
C1553 C1555 1.433 . S
C1554 C1550 1.350 . S
C1554 C1551 1.463 . S
C1554 N1558 1.427 . S
C1555 H1545 0.929 . S
C1555 C1553 1.433 . S
C1555 N1558 1.384 . S
C1556 H1547 0.929 . S
C1556 C1548 1.378 . S
C1556 C1551 1.350 . S
C1557 H1544 0.929 . S
C1557 C1549 1.433 . S
C1557 N1559 1.384 . S
N1558 C1554 1.427 . S
N1558 C1555 1.384 . S
N1559 C1551 1.427 . S
N1559 C1557 1.384 . S
H1560 C1566 0.930 . S
H1561 C1570 0.930 . S
H1562 C1575 0.929 . S
H1563 C1573 0.929 . S
H1564 C1568 0.929 . S
H1565 C1574 0.929 . S
C1566 H1560 0.930 . S
C1566 C1567 1.367 . S
C1566 C1574 1.378 . S
C1567 C1566 1.367 . S
C1567 C1575 1.433 . S
C1568 H1564 0.929 . S
C1568 C1570 1.378 . S
C1568 C1572 1.350 . S
C1569 C1572 1.463 . S
C1569 C1574 1.350 . S
C1569 N1577 1.427 . S
C1570 H1561 0.930 . S
C1570 C1568 1.378 . S
C1570 C1571 1.367 . S
C1571 C1570 1.367 . S
C1571 C1573 1.433 . S
C1572 C1568 1.350 . S
C1572 C1569 1.463 . S
C1572 N1576 1.427 . S
C1573 H1563 0.929 . S
C1573 C1571 1.433 . S
C1573 N1576 1.384 . S
C1574 H1565 0.929 . S
C1574 C1566 1.378 . S
C1574 C1569 1.350 . S
C1575 H1562 0.929 . S
C1575 C1567 1.433 . S
C1575 N1577 1.384 . S
N1576 C1572 1.427 . S
N1576 C1573 1.384 . S
N1577 C1569 1.427 . S
N1577 C1575 1.384 . S
H1578 C1584 0.930 . S
H1579 C1588 0.930 . S
H1580 C1593 0.929 . S
H1581 C1591 0.929 . S
H1582 C1586 0.929 . S
H1583 C1592 0.929 . S
C1584 H1578 0.930 . S
C1584 C1585 1.367 . S
C1584 C1592 1.378 . S
C1585 C1584 1.367 . S
C1585 C1593 1.433 . S
C1586 H1582 0.929 . S
C1586 C1588 1.378 . S
C1586 C1590 1.350 . S
C1587 C1590 1.463 . S
C1587 C1592 1.350 . S
C1587 N1595 1.427 . S
C1588 H1579 0.930 . S
C1588 C1586 1.378 . S
C1588 C1589 1.367 . S
C1589 C1588 1.367 . S
C1589 C1591 1.433 . S
C1590 C1586 1.350 . S
C1590 C1587 1.463 . S
C1590 N1594 1.427 . S
C1591 H1581 0.929 . S
C1591 C1589 1.433 . S
C1591 N1594 1.384 . S
C1592 H1583 0.929 . S
C1592 C1584 1.378 . S
C1592 C1587 1.350 . S
C1593 H1580 0.929 . S
C1593 C1585 1.433 . S
C1593 N1595 1.384 . S
N1594 C1590 1.427 . S
N1594 C1591 1.384 . S
N1595 C1587 1.427 . S
N1595 C1593 1.384 . S
H1596 C1602 0.930 . S
H1597 C1606 0.930 . S
H1598 C1611 0.929 . S
H1599 C1609 0.929 . S
H1600 C1604 0.929 . S
H1601 C1610 0.929 . S
C1602 H1596 0.930 . S
C1602 C1603 1.367 . S
C1602 C1610 1.378 . S
C1603 C1602 1.367 . S
C1603 C1611 1.433 . S
C1604 H1600 0.929 . S
C1604 C1606 1.378 . S
C1604 C1608 1.350 . S
C1605 C1608 1.463 . S
C1605 C1610 1.350 . S
C1605 N1613 1.427 . S
C1606 H1597 0.930 . S
C1606 C1604 1.378 . S
C1606 C1607 1.367 . S
C1607 C1606 1.367 . S
C1607 C1609 1.433 . S
C1608 C1604 1.350 . S
C1608 C1605 1.463 . S
C1608 N1612 1.427 . S
C1609 H1599 0.929 . S
C1609 C1607 1.433 . S
C1609 N1612 1.384 . S
C1610 H1601 0.929 . S
C1610 C1602 1.378 . S
C1610 C1605 1.350 . S
C1611 H1598 0.929 . S
C1611 C1603 1.433 . S
C1611 N1613 1.384 . S
N1612 C1608 1.427 . S
N1612 C1609 1.384 . S
N1613 C1605 1.427 . S
N1613 C1611 1.384 . S
H1614 C1620 0.930 . S
H1615 C1624 0.930 . S
H1616 C1629 0.929 . S
H1617 C1627 0.929 . S
H1618 C1622 0.929 . S
H1619 C1628 0.929 . S
C1620 H1614 0.930 . S
C1620 C1621 1.367 . S
C1620 C1628 1.378 . S
C1621 C1620 1.367 . S
C1621 C1629 1.433 . S
C1622 H1618 0.929 . S
C1622 C1624 1.378 . S
C1622 C1626 1.350 . S
C1623 C1626 1.463 . S
C1623 C1628 1.350 . S
C1623 N1631 1.427 . S
C1624 H1615 0.930 . S
C1624 C1622 1.378 . S
C1624 C1625 1.367 . S
C1625 C1624 1.367 . S
C1625 C1627 1.433 . S
C1626 C1622 1.350 . S
C1626 C1623 1.463 . S
C1626 N1630 1.427 . S
C1627 H1617 0.929 . S
C1627 C1625 1.433 . S
C1627 N1630 1.384 . S
C1628 H1619 0.929 . S
C1628 C1620 1.378 . S
C1628 C1623 1.350 . S
C1629 H1616 0.929 . S
C1629 C1621 1.433 . S
C1629 N1631 1.384 . S
N1630 C1626 1.427 . S
N1630 C1627 1.384 . S
N1631 C1623 1.427 . S
N1631 C1629 1.384 . S
H1632 C1638 0.930 . S
H1633 C1642 0.930 . S
H1634 C1647 0.929 . S
H1635 C1645 0.929 . S
H1636 C1640 0.929 . S
H1637 C1646 0.929 . S
C1638 H1632 0.930 . S
C1638 C1639 1.367 . S
C1638 C1646 1.378 . S
C1639 C1638 1.367 . S
C1639 C1647 1.433 . S
C1640 H1636 0.929 . S
C1640 C1642 1.378 . S
C1640 C1644 1.350 . S
C1641 C1644 1.463 . S
C1641 C1646 1.350 . S
C1641 N1649 1.427 . S
C1642 H1633 0.930 . S
C1642 C1640 1.378 . S
C1642 C1643 1.367 . S
C1643 C1642 1.367 . S
C1643 C1645 1.433 . S
C1644 C1640 1.350 . S
C1644 C1641 1.463 . S
C1644 N1648 1.427 . S
C1645 H1635 0.929 . S
C1645 C1643 1.433 . S
C1645 N1648 1.384 . S
C1646 H1637 0.929 . S
C1646 C1638 1.378 . S
C1646 C1641 1.350 . S
C1647 H1634 0.929 . S
C1647 C1639 1.433 . S
C1647 N1649 1.384 . S
N1648 C1644 1.427 . S
N1648 C1645 1.384 . S
N1649 C1641 1.427 . S
N1649 C1647 1.384 . S
H1650 C1656 0.930 . S
H1651 C1660 0.930 . S
H1652 C1665 0.929 . S
H1653 C1663 0.929 . S
H1654 C1658 0.929 . S
H1655 C1664 0.929 . S
C1656 H1650 0.930 . S
C1656 C1657 1.367 . S
C1656 C1664 1.378 . S
C1657 C1656 1.367 . S
C1657 C1665 1.433 1_545 S
C1658 H1654 0.929 . S
C1658 C1660 1.378 . S
C1658 C1662 1.350 . S
C1659 C1662 1.463 1_545 S
C1659 C1664 1.350 . S
C1659 N1667 1.427 1_545 S
C1660 H1651 0.930 . S
C1660 C1658 1.378 . S
C1660 C1661 1.367 . S
C1661 C1660 1.367 . S
C1661 C1663 1.433 1_565 S
C1662 C1658 1.350 . S
C1662 C1659 1.463 1_565 S
C1662 N1666 1.427 1_565 S
C1663 H1653 0.929 . S
C1663 C1661 1.433 1_545 S
C1663 N1666 1.384 . S
C1664 H1655 0.929 . S
C1664 C1656 1.378 . S
C1664 C1659 1.350 . S
C1665 H1652 0.929 . S
C1665 C1657 1.433 1_565 S
C1665 N1667 1.384 . S
N1666 C1662 1.427 1_545 S
N1666 C1663 1.384 . S
N1667 C1659 1.427 1_565 S
N1667 C1665 1.384 . S
H1668 C1674 0.930 . S
H1669 C1678 0.930 . S
H1670 C1683 0.929 . S
H1671 C1681 0.929 . S
H1672 C1676 0.929 . S
H1673 C1682 0.929 . S
C1674 H1668 0.930 . S
C1674 C1675 1.367 . S
C1674 C1682 1.378 . S
C1675 C1674 1.367 . S
C1675 C1683 1.433 . S
C1676 H1672 0.929 . S
C1676 C1678 1.378 . S
C1676 C1680 1.350 . S
C1677 C1680 1.463 . S
C1677 C1682 1.350 . S
C1677 N1685 1.427 . S
C1678 H1669 0.930 . S
C1678 C1676 1.378 . S
C1678 C1679 1.367 . S
C1679 C1678 1.367 . S
C1679 C1681 1.433 . S
C1680 C1676 1.350 . S
C1680 C1677 1.463 . S
C1680 N1684 1.427 . S
C1681 H1671 0.929 . S
C1681 C1679 1.433 . S
C1681 N1684 1.384 . S
C1682 H1673 0.929 . S
C1682 C1674 1.378 . S
C1682 C1677 1.350 . S
C1683 H1670 0.929 . S
C1683 C1675 1.433 . S
C1683 N1685 1.384 . S
N1684 C1680 1.427 . S
N1684 C1681 1.384 . S
N1685 C1677 1.427 . S
N1685 C1683 1.384 . S
H1686 C1692 0.930 . S
H1687 C1696 0.930 . S
H1688 C1701 0.929 . S
H1689 C1699 0.929 . S
H1690 C1694 0.929 . S
H1691 C1700 0.929 . S
C1692 H1686 0.930 . S
C1692 C1693 1.367 1_545 S
C1692 C1700 1.378 . S
C1693 C1692 1.367 1_565 S
C1693 C1701 1.433 . S
C1694 H1690 0.929 . S
C1694 C1696 1.378 . S
C1694 C1698 1.343 1_565 S
C1695 C1698 1.462 1_566 S
C1695 C1700 1.352 1_565 S
C1695 N1703 1.425 . S
C1696 H1687 0.930 . S
C1696 C1694 1.378 . S
C1696 C1697 1.367 1_565 S
C1697 C1696 1.367 1_545 S
C1697 C1699 1.433 . S
C1698 C1694 1.343 1_545 S
C1698 C1695 1.462 1_544 S
C1698 N1702 1.435 . S
C1699 H1689 0.929 . S
C1699 C1697 1.433 . S
C1699 N1702 1.384 . S
C1700 H1691 0.929 . S
C1700 C1692 1.378 . S
C1700 C1695 1.352 1_545 S
C1701 H1688 0.929 . S
C1701 C1693 1.433 . S
C1701 N1703 1.384 . S
N1702 C1698 1.435 . S
N1702 C1699 1.384 . S
N1703 C1695 1.425 . S
N1703 C1701 1.384 . S
H1704 C1710 0.930 . S
H1705 C1714 0.930 . S
H1706 C1719 0.929 . S
H1707 C1717 0.929 . S
H1708 C1712 0.929 . S
H1709 C1718 0.929 . S
C1710 H1704 0.930 . S
C1710 C1711 1.367 . S
C1710 C1718 1.378 . S
C1711 C1710 1.367 . S
C1711 C1719 1.433 . S
C1712 H1708 0.929 . S
C1712 C1714 1.378 . S
C1712 C1716 1.350 . S
C1713 C1716 1.463 . S
C1713 C1718 1.350 . S
C1713 N1721 1.427 . S
C1714 H1705 0.930 . S
C1714 C1712 1.378 . S
C1714 C1715 1.367 . S
C1715 C1714 1.367 . S
C1715 C1717 1.433 . S
C1716 C1712 1.350 . S
C1716 C1713 1.463 . S
C1716 N1720 1.427 . S
C1717 H1707 0.929 . S
C1717 C1715 1.433 . S
C1717 N1720 1.384 . S
C1718 H1709 0.929 . S
C1718 C1710 1.378 . S
C1718 C1713 1.350 . S
C1719 H1706 0.929 . S
C1719 C1711 1.433 . S
C1719 N1721 1.384 . S
N1720 C1716 1.427 . S
N1720 C1717 1.384 . S
N1721 C1713 1.427 . S
N1721 C1719 1.384 . S
H1722 C1728 0.930 . S
H1723 C1732 0.930 . S
H1724 C1737 0.929 . S
H1725 C1735 0.929 . S
H1726 C1730 0.929 . S
H1727 C1736 0.929 . S
C1728 H1722 0.930 . S
C1728 C1729 1.367 . S
C1728 C1736 1.378 . S
C1729 C1728 1.367 . S
C1729 C1737 1.433 1_545 S
C1730 H1726 0.929 . S
C1730 C1732 1.378 . S
C1730 C1734 1.350 . S
C1731 C1734 1.463 1_545 S
C1731 C1736 1.350 . S
C1731 N1739 1.427 1_545 S
C1732 H1723 0.930 . S
C1732 C1730 1.378 . S
C1732 C1733 1.367 . S
C1733 C1732 1.367 . S
C1733 C1735 1.433 1_565 S
C1734 C1730 1.350 . S
C1734 C1731 1.463 1_565 S
C1734 N1738 1.427 1_565 S
C1735 H1725 0.929 . S
C1735 C1733 1.433 1_545 S
C1735 N1738 1.384 . S
C1736 H1727 0.929 . S
C1736 C1728 1.378 . S
C1736 C1731 1.350 . S
C1737 H1724 0.929 . S
C1737 C1729 1.433 1_565 S
C1737 N1739 1.384 . S
N1738 C1734 1.427 1_545 S
N1738 C1735 1.384 . S
N1739 C1731 1.427 1_565 S
N1739 C1737 1.384 . S
H1740 C1746 0.930 . S
H1741 C1750 0.930 . S
H1742 C1755 0.929 . S
H1743 C1753 0.929 . S
H1744 C1748 0.929 . S
H1745 C1754 0.929 . S
C1746 H1740 0.930 . S
C1746 C1747 1.367 . S
C1746 C1754 1.378 . S
C1747 C1746 1.367 . S
C1747 C1755 1.433 . S
C1748 H1744 0.929 . S
C1748 C1750 1.378 . S
C1748 C1752 1.350 . S
C1749 C1752 1.463 . S
C1749 C1754 1.350 . S
C1749 N1757 1.427 . S
C1750 H1741 0.930 . S
C1750 C1748 1.378 . S
C1750 C1751 1.367 . S
C1751 C1750 1.367 . S
C1751 C1753 1.433 . S
C1752 C1748 1.350 . S
C1752 C1749 1.463 . S
C1752 N1756 1.427 . S
C1753 H1743 0.929 . S
C1753 C1751 1.433 . S
C1753 N1756 1.384 . S
C1754 H1745 0.929 . S
C1754 C1746 1.378 . S
C1754 C1749 1.350 . S
C1755 H1742 0.929 . S
C1755 C1747 1.433 . S
C1755 N1757 1.384 . S
N1756 C1752 1.427 . S
N1756 C1753 1.384 . S
N1757 C1749 1.427 . S
N1757 C1755 1.384 . S
H1758 C1764 0.930 . S
H1759 C1768 0.930 . S
H1760 C1773 0.929 . S
H1761 C1771 0.929 . S
H1762 C1766 0.929 . S
H1763 C1772 0.929 . S
C1764 H1758 0.930 . S
C1764 C1765 1.367 1_545 S
C1764 C1772 1.378 . S
C1765 C1764 1.367 1_565 S
C1765 C1773 1.433 . S
C1766 H1762 0.929 . S
C1766 C1768 1.378 . S
C1766 C1770 1.348 1_565 S
C1767 C1770 1.462 1_556 S
C1767 C1772 1.348 . S
C1767 N1775 1.429 1_545 S
C1768 H1759 0.930 . S
C1768 C1766 1.378 . S
C1768 C1769 1.367 1_565 S
C1769 C1768 1.367 1_545 S
C1769 C1771 1.433 . S
C1770 C1766 1.348 1_545 S
C1770 C1767 1.462 1_554 S
C1770 N1774 1.429 . S
C1771 H1761 0.929 . S
C1771 C1769 1.433 . S
C1771 N1774 1.384 . S
C1772 H1763 0.929 . S
C1772 C1764 1.378 . S
C1772 C1767 1.348 . S
C1773 H1760 0.929 . S
C1773 C1765 1.433 . S
C1773 N1775 1.384 . S
N1774 C1770 1.429 . S
N1774 C1771 1.384 . S
N1775 C1767 1.429 1_565 S
N1775 C1773 1.384 . S
H1776 C1782 0.930 . S
H1777 C1786 0.930 . S
H1778 C1791 0.929 . S
H1779 C1789 0.929 . S
H1780 C1784 0.929 . S
H1781 C1790 0.929 . S
C1782 H1776 0.930 . S
C1782 C1783 1.367 . S
C1782 C1790 1.378 . S
C1783 C1782 1.367 . S
C1783 C1791 1.433 . S
C1784 H1780 0.929 . S
C1784 C1786 1.378 . S
C1784 C1788 1.350 . S
C1785 C1788 1.463 . S
C1785 C1790 1.350 . S
C1785 N1793 1.427 . S
C1786 H1777 0.930 . S
C1786 C1784 1.378 . S
C1786 C1787 1.367 . S
C1787 C1786 1.367 . S
C1787 C1789 1.433 . S
C1788 C1784 1.350 . S
C1788 C1785 1.463 . S
C1788 N1792 1.427 . S
C1789 H1779 0.929 . S
C1789 C1787 1.433 . S
C1789 N1792 1.384 . S
C1790 H1781 0.929 . S
C1790 C1782 1.378 . S
C1790 C1785 1.350 . S
C1791 H1778 0.929 . S
C1791 C1783 1.433 . S
C1791 N1793 1.384 . S
N1792 C1788 1.427 . S
N1792 C1789 1.384 . S
N1793 C1785 1.427 . S
N1793 C1791 1.384 . S
H1794 C1800 0.930 . S
H1795 C1804 0.930 . S
H1796 C1809 0.929 . S
H1797 C1807 0.929 . S
H1798 C1802 0.929 . S
H1799 C1808 0.929 . S
C1800 H1794 0.930 . S
C1800 C1801 1.367 . S
C1800 C1808 1.378 . S
C1801 C1800 1.367 . S
C1801 C1809 1.433 . S
C1802 H1798 0.929 . S
C1802 C1804 1.378 . S
C1802 C1806 1.350 . S
C1803 C1806 1.463 1_556 S
C1803 C1808 1.350 . S
C1803 N1811 1.427 . S
C1804 H1795 0.930 . S
C1804 C1802 1.378 . S
C1804 C1805 1.367 . S
C1805 C1804 1.367 . S
C1805 C1807 1.433 . S
C1806 C1802 1.350 . S
C1806 C1803 1.463 1_554 S
C1806 N1810 1.427 . S
C1807 H1797 0.929 . S
C1807 C1805 1.433 . S
C1807 N1810 1.384 . S
C1808 H1799 0.929 . S
C1808 C1800 1.378 . S
C1808 C1803 1.350 . S
C1809 H1796 0.929 . S
C1809 C1801 1.433 . S
C1809 N1811 1.384 . S
N1810 C1806 1.427 . S
N1810 C1807 1.384 . S
N1811 C1803 1.427 . S
N1811 C1809 1.384 . S
H1812 C1818 0.930 . S
H1813 C1822 0.930 . S
H1814 C1827 0.929 . S
H1815 C1825 0.929 . S
H1816 C1820 0.929 . S
H1817 C1826 0.929 . S
C1818 H1812 0.930 . S
C1818 C1819 1.367 . S
C1818 C1826 1.378 . S
C1819 C1818 1.367 . S
C1819 C1827 1.433 . S
C1820 H1816 0.929 . S
C1820 C1822 1.378 . S
C1820 C1824 1.350 . S
C1821 C1824 1.463 . S
C1821 C1826 1.350 . S
C1821 N1829 1.427 . S
C1822 H1813 0.930 . S
C1822 C1820 1.378 . S
C1822 C1823 1.367 . S
C1823 C1822 1.367 . S
C1823 C1825 1.433 . S
C1824 C1820 1.350 . S
C1824 C1821 1.463 . S
C1824 N1828 1.427 . S
C1825 H1815 0.929 . S
C1825 C1823 1.433 . S
C1825 N1828 1.384 . S
C1826 H1817 0.929 . S
C1826 C1818 1.378 . S
C1826 C1821 1.350 . S
C1827 H1814 0.929 . S
C1827 C1819 1.433 . S
C1827 N1829 1.384 . S
N1828 C1824 1.427 . S
N1828 C1825 1.384 . S
N1829 C1821 1.427 . S
N1829 C1827 1.384 . S
H1830 C1836 0.930 . S
H1831 C1840 0.930 . S
H1832 C1845 0.929 . S
H1833 C1843 0.929 . S
H1834 C1838 0.929 . S
H1835 C1844 0.929 . S
C1836 H1830 0.930 . S
C1836 C1837 1.367 . S
C1836 C1844 1.378 . S
C1837 C1836 1.367 . S
C1837 C1845 1.433 . S
C1838 H1834 0.929 . S
C1838 C1840 1.378 . S
C1838 C1842 1.350 . S
C1839 C1842 1.463 . S
C1839 C1844 1.350 . S
C1839 N1847 1.427 . S
C1840 H1831 0.930 . S
C1840 C1838 1.378 . S
C1840 C1841 1.367 . S
C1841 C1840 1.367 . S
C1841 C1843 1.433 . S
C1842 C1838 1.350 . S
C1842 C1839 1.463 . S
C1842 N1846 1.427 . S
C1843 H1833 0.929 . S
C1843 C1841 1.433 . S
C1843 N1846 1.384 . S
C1844 H1835 0.929 . S
C1844 C1836 1.378 . S
C1844 C1839 1.350 . S
C1845 H1832 0.929 . S
C1845 C1837 1.433 . S
C1845 N1847 1.384 . S
N1846 C1842 1.427 . S
N1846 C1843 1.384 . S
N1847 C1839 1.427 . S
N1847 C1845 1.384 . S
H1848 C1854 0.930 . S
H1849 C1858 0.930 . S
H1850 C1863 0.929 . S
H1851 C1861 0.929 . S
H1852 C1856 0.929 . S
H1853 C1862 0.929 . S
C1854 H1848 0.930 . S
C1854 C1855 1.367 . S
C1854 C1862 1.378 . S
C1855 C1854 1.367 . S
C1855 C1863 1.433 . S
C1856 H1852 0.929 . S
C1856 C1858 1.378 . S
C1856 C1860 1.350 . S
C1857 C1860 1.463 . S
C1857 C1862 1.350 . S
C1857 N1865 1.427 . S
C1858 H1849 0.930 . S
C1858 C1856 1.378 . S
C1858 C1859 1.367 . S
C1859 C1858 1.367 . S
C1859 C1861 1.433 . S
C1860 C1856 1.350 . S
C1860 C1857 1.463 . S
C1860 N1864 1.427 . S
C1861 H1851 0.929 . S
C1861 C1859 1.433 . S
C1861 N1864 1.384 . S
C1862 H1853 0.929 . S
C1862 C1854 1.378 . S
C1862 C1857 1.350 . S
C1863 H1850 0.929 . S
C1863 C1855 1.433 . S
C1863 N1865 1.384 . S
N1864 C1860 1.427 . S
N1864 C1861 1.384 . S
N1865 C1857 1.427 . S
N1865 C1863 1.384 . S
H1866 C1872 0.930 . S
H1867 C1876 0.930 . S
H1868 C1881 0.929 . S
H1869 C1879 0.929 . S
H1870 C1874 0.929 . S
H1871 C1880 0.929 . S
C1872 H1866 0.930 . S
C1872 C1873 1.367 . S
C1872 C1880 1.378 . S
C1873 C1872 1.367 . S
C1873 C1881 1.433 . S
C1874 H1870 0.929 . S
C1874 C1876 1.378 . S
C1874 C1878 1.350 . S
C1875 C1878 1.463 1_556 S
C1875 C1880 1.350 . S
C1875 N1883 1.427 . S
C1876 H1867 0.930 . S
C1876 C1874 1.378 . S
C1876 C1877 1.367 . S
C1877 C1876 1.367 . S
C1877 C1879 1.433 . S
C1878 C1874 1.350 . S
C1878 C1875 1.463 1_554 S
C1878 N1882 1.427 . S
C1879 H1869 0.929 . S
C1879 C1877 1.433 . S
C1879 N1882 1.384 . S
C1880 H1871 0.929 . S
C1880 C1872 1.378 . S
C1880 C1875 1.350 . S
C1881 H1868 0.929 . S
C1881 C1873 1.433 . S
C1881 N1883 1.384 . S
N1882 C1878 1.427 . S
N1882 C1879 1.384 . S
N1883 C1875 1.427 . S
N1883 C1881 1.384 . S
H1884 C1890 0.930 . S
H1885 C1894 0.930 . S
H1886 C1899 0.929 . S
H1887 C1897 0.929 . S
H1888 C1892 0.929 . S
H1889 C1898 0.929 . S
C1890 H1884 0.930 . S
C1890 C1891 1.367 . S
C1890 C1898 1.378 . S
C1891 C1890 1.367 . S
C1891 C1899 1.433 . S
C1892 H1888 0.929 . S
C1892 C1894 1.378 . S
C1892 C1896 1.350 . S
C1893 C1896 1.463 . S
C1893 C1898 1.350 . S
C1893 N1901 1.427 . S
C1894 H1885 0.930 . S
C1894 C1892 1.378 . S
C1894 C1895 1.367 . S
C1895 C1894 1.367 . S
C1895 C1897 1.433 . S
C1896 C1892 1.350 . S
C1896 C1893 1.463 . S
C1896 N1900 1.427 . S
C1897 H1887 0.929 . S
C1897 C1895 1.433 . S
C1897 N1900 1.384 . S
C1898 H1889 0.929 . S
C1898 C1890 1.378 . S
C1898 C1893 1.350 . S
C1899 H1886 0.929 . S
C1899 C1891 1.433 . S
C1899 N1901 1.384 . S
N1900 C1896 1.427 . S
N1900 C1897 1.384 . S
N1901 C1893 1.427 . S
N1901 C1899 1.384 . S
H1902 C1908 0.930 . S
H1903 C1912 0.930 . S
H1904 C1917 0.929 . S
H1905 C1915 0.929 . S
H1906 C1910 0.929 . S
H1907 C1916 0.929 . S
C1908 H1902 0.930 . S
C1908 C1909 1.367 . S
C1908 C1916 1.378 . S
C1909 C1908 1.367 . S
C1909 C1917 1.433 . S
C1910 H1906 0.929 . S
C1910 C1912 1.378 . S
C1910 C1914 1.350 . S
C1911 C1914 1.463 . S
C1911 C1916 1.350 . S
C1911 N1919 1.427 . S
C1912 H1903 0.930 . S
C1912 C1910 1.378 . S
C1912 C1913 1.367 . S
C1913 C1912 1.367 . S
C1913 C1915 1.433 . S
C1914 C1910 1.350 . S
C1914 C1911 1.463 . S
C1914 N1918 1.427 . S
C1915 H1905 0.929 . S
C1915 C1913 1.433 . S
C1915 N1918 1.384 . S
C1916 H1907 0.929 . S
C1916 C1908 1.378 . S
C1916 C1911 1.350 . S
C1917 H1904 0.929 . S
C1917 C1909 1.433 . S
C1917 N1919 1.384 . S
N1918 C1914 1.427 . S
N1918 C1915 1.384 . S
N1919 C1911 1.427 . S
N1919 C1917 1.384 . S
H1920 C1926 0.930 . S
H1921 C1930 0.930 . S
H1922 C1935 0.929 . S
H1923 C1933 0.929 . S
H1924 C1928 0.929 . S
H1925 C1934 0.929 . S
C1926 H1920 0.930 . S
C1926 C1927 1.367 . S
C1926 C1934 1.378 . S
C1927 C1926 1.367 . S
C1927 C1935 1.433 . S
C1928 H1924 0.929 . S
C1928 C1930 1.378 . S
C1928 C1932 1.350 . S
C1929 C1932 1.463 . S
C1929 C1934 1.350 . S
C1929 N1937 1.427 . S
C1930 H1921 0.930 . S
C1930 C1928 1.378 . S
C1930 C1931 1.367 . S
C1931 C1930 1.367 . S
C1931 C1933 1.433 . S
C1932 C1928 1.350 . S
C1932 C1929 1.463 . S
C1932 N1936 1.427 . S
C1933 H1923 0.929 . S
C1933 C1931 1.433 . S
C1933 N1936 1.384 . S
C1934 H1925 0.929 . S
C1934 C1926 1.378 . S
C1934 C1929 1.350 . S
C1935 H1922 0.929 . S
C1935 C1927 1.433 . S
C1935 N1937 1.384 . S
N1936 C1932 1.427 . S
N1936 C1933 1.384 . S
N1937 C1929 1.427 . S
N1937 C1935 1.384 . S
H1938 C1944 0.930 . S
H1939 C1948 0.930 . S
H1940 C1953 0.929 . S
H1941 C1951 0.929 . S
H1942 C1946 0.929 . S
H1943 C1952 0.929 . S
C1944 H1938 0.930 . S
C1944 C1945 1.367 . S
C1944 C1952 1.378 . S
C1945 C1944 1.367 . S
C1945 C1953 1.433 . S
C1946 H1942 0.929 . S
C1946 C1948 1.378 . S
C1946 C1950 1.350 . S
C1947 C1950 1.463 . S
C1947 C1952 1.350 . S
C1947 N1955 1.427 . S
C1948 H1939 0.930 . S
C1948 C1946 1.378 . S
C1948 C1949 1.367 . S
C1949 C1948 1.367 . S
C1949 C1951 1.433 . S
C1950 C1946 1.350 . S
C1950 C1947 1.463 . S
C1950 N1954 1.427 . S
C1951 H1941 0.929 . S
C1951 C1949 1.433 . S
C1951 N1954 1.384 . S
C1952 H1943 0.929 . S
C1952 C1944 1.378 . S
C1952 C1947 1.350 . S
C1953 H1940 0.929 . S
C1953 C1945 1.433 . S
C1953 N1955 1.384 . S
N1954 C1950 1.427 . S
N1954 C1951 1.384 . S
N1955 C1947 1.427 . S
N1955 C1953 1.384 . S
H1956 C1962 0.930 . S
H1957 C1966 0.930 . S
H1958 C1971 0.929 . S
H1959 C1969 0.929 . S
H1960 C1964 0.929 . S
H1961 C1970 0.929 . S
C1962 H1956 0.930 . S
C1962 C1963 1.367 . S
C1962 C1970 1.378 . S
C1963 C1962 1.367 . S
C1963 C1971 1.433 . S
C1964 H1960 0.929 . S
C1964 C1966 1.378 . S
C1964 C1968 1.350 . S
C1965 C1968 1.463 . S
C1965 C1970 1.350 . S
C1965 N1973 1.427 . S
C1966 H1957 0.930 . S
C1966 C1964 1.378 . S
C1966 C1967 1.367 . S
C1967 C1966 1.367 . S
C1967 C1969 1.433 . S
C1968 C1964 1.350 . S
C1968 C1965 1.463 . S
C1968 N1972 1.427 . S
C1969 H1959 0.929 . S
C1969 C1967 1.433 . S
C1969 N1972 1.384 . S
C1970 H1961 0.929 . S
C1970 C1962 1.378 . S
C1970 C1965 1.350 . S
C1971 H1958 0.929 . S
C1971 C1963 1.433 . S
C1971 N1973 1.384 . S
N1972 C1968 1.427 . S
N1972 C1969 1.384 . S
N1973 C1965 1.427 . S
N1973 C1971 1.384 . S
H1974 C1980 0.930 . S
H1975 C1984 0.930 . S
H1976 C1989 0.929 . S
H1977 C1987 0.929 . S
H1978 C1982 0.929 . S
H1979 C1988 0.929 . S
C1980 H1974 0.930 . S
C1980 C1981 1.367 . S
C1980 C1988 1.378 . S
C1981 C1980 1.367 . S
C1981 C1989 1.433 . S
C1982 H1978 0.929 . S
C1982 C1984 1.378 . S
C1982 C1986 1.350 . S
C1983 C1986 1.463 . S
C1983 C1988 1.350 . S
C1983 N1991 1.427 . S
C1984 H1975 0.930 . S
C1984 C1982 1.378 . S
C1984 C1985 1.367 . S
C1985 C1984 1.367 . S
C1985 C1987 1.433 . S
C1986 C1982 1.350 . S
C1986 C1983 1.463 . S
C1986 N1990 1.427 . S
C1987 H1977 0.929 . S
C1987 C1985 1.433 . S
C1987 N1990 1.384 . S
C1988 H1979 0.929 . S
C1988 C1980 1.378 . S
C1988 C1983 1.350 . S
C1989 H1976 0.929 . S
C1989 C1981 1.433 . S
C1989 N1991 1.384 . S
N1990 C1986 1.427 . S
N1990 C1987 1.384 . S
N1991 C1983 1.427 . S
N1991 C1989 1.384 . S
H1992 C1998 0.930 . S
H1993 C2002 0.930 . S
H1994 C2007 0.929 . S
H1995 C2005 0.929 . S
H1996 C2000 0.929 . S
H1997 C2006 0.929 . S
C1998 H1992 0.930 . S
C1998 C1999 1.367 . S
C1998 C2006 1.378 . S
C1999 C1998 1.367 . S
C1999 C2007 1.433 . S
C2000 H1996 0.929 . S
C2000 C2002 1.378 . S
C2000 C2004 1.350 . S
C2001 C2004 1.463 . S
C2001 C2006 1.350 . S
C2001 N2009 1.427 . S
C2002 H1993 0.930 . S
C2002 C2000 1.378 . S
C2002 C2003 1.367 . S
C2003 C2002 1.367 . S
C2003 C2005 1.433 . S
C2004 C2000 1.350 . S
C2004 C2001 1.463 . S
C2004 N2008 1.427 . S
C2005 H1995 0.929 . S
C2005 C2003 1.433 . S
C2005 N2008 1.384 . S
C2006 H1997 0.929 . S
C2006 C1998 1.378 . S
C2006 C2001 1.350 . S
C2007 H1994 0.929 . S
C2007 C1999 1.433 . S
C2007 N2009 1.384 . S
N2008 C2004 1.427 . S
N2008 C2005 1.384 . S
N2009 C2001 1.427 . S
N2009 C2007 1.384 . S
H2010 C2016 0.930 . S
H2011 C2020 0.930 . S
H2012 C2025 0.929 . S
H2013 C2023 0.929 . S
H2014 C2018 0.929 . S
H2015 C2024 0.929 . S
C2016 H2010 0.930 . S
C2016 C2017 1.367 . S
C2016 C2024 1.378 . S
C2017 C2016 1.367 . S
C2017 C2025 1.433 . S
C2018 H2014 0.929 . S
C2018 C2020 1.378 . S
C2018 C2022 1.350 . S
C2019 C2022 1.463 . S
C2019 C2024 1.350 . S
C2019 N2027 1.427 . S
C2020 H2011 0.930 . S
C2020 C2018 1.378 . S
C2020 C2021 1.367 . S
C2021 C2020 1.367 . S
C2021 C2023 1.433 . S
C2022 C2018 1.350 . S
C2022 C2019 1.463 . S
C2022 N2026 1.427 . S
C2023 H2013 0.929 . S
C2023 C2021 1.433 . S
C2023 N2026 1.384 . S
C2024 H2015 0.929 . S
C2024 C2016 1.378 . S
C2024 C2019 1.350 . S
C2025 H2012 0.929 . S
C2025 C2017 1.433 . S
C2025 N2027 1.384 . S
N2026 C2022 1.427 . S
N2026 C2023 1.384 . S
N2027 C2019 1.427 . S
N2027 C2025 1.384 . S
H2028 C2034 0.930 . S
H2029 C2038 0.930 . S
H2030 C2043 0.929 . S
H2031 C2041 0.929 . S
H2032 C2036 0.929 . S
H2033 C2042 0.929 . S
C2034 H2028 0.930 . S
C2034 C2035 1.367 . S
C2034 C2042 1.378 . S
C2035 C2034 1.367 . S
C2035 C2043 1.433 . S
C2036 H2032 0.929 . S
C2036 C2038 1.378 . S
C2036 C2040 1.350 . S
C2037 C2040 1.463 . S
C2037 C2042 1.350 . S
C2037 N2045 1.427 . S
C2038 H2029 0.930 . S
C2038 C2036 1.378 . S
C2038 C2039 1.367 . S
C2039 C2038 1.367 . S
C2039 C2041 1.433 . S
C2040 C2036 1.350 . S
C2040 C2037 1.463 . S
C2040 N2044 1.427 . S
C2041 H2031 0.929 . S
C2041 C2039 1.433 . S
C2041 N2044 1.384 . S
C2042 H2033 0.929 . S
C2042 C2034 1.378 . S
C2042 C2037 1.350 . S
C2043 H2030 0.929 . S
C2043 C2035 1.433 . S
C2043 N2045 1.384 . S
N2044 C2040 1.427 . S
N2044 C2041 1.384 . S
N2045 C2037 1.427 . S
N2045 C2043 1.384 . S
H2046 C2052 0.930 . S
H2047 C2056 0.930 . S
H2048 C2061 0.929 . S
H2049 C2059 0.929 . S
H2050 C2054 0.929 . S
H2051 C2060 0.929 . S
C2052 H2046 0.930 . S
C2052 C2053 1.367 . S
C2052 C2060 1.378 . S
C2053 C2052 1.367 . S
C2053 C2061 1.433 . S
C2054 H2050 0.929 . S
C2054 C2056 1.378 . S
C2054 C2058 1.350 . S
C2055 C2058 1.463 . S
C2055 C2060 1.350 . S
C2055 N2063 1.427 . S
C2056 H2047 0.930 . S
C2056 C2054 1.378 . S
C2056 C2057 1.367 . S
C2057 C2056 1.367 . S
C2057 C2059 1.433 . S
C2058 C2054 1.350 . S
C2058 C2055 1.463 . S
C2058 N2062 1.427 . S
C2059 H2049 0.929 . S
C2059 C2057 1.433 . S
C2059 N2062 1.384 . S
C2060 H2051 0.929 . S
C2060 C2052 1.378 . S
C2060 C2055 1.350 . S
C2061 H2048 0.929 . S
C2061 C2053 1.433 . S
C2061 N2063 1.384 . S
N2062 C2058 1.427 . S
N2062 C2059 1.384 . S
N2063 C2055 1.427 . S
N2063 C2061 1.384 . S
H2064 C2070 0.930 . S
H2065 C2074 0.930 . S
H2066 C2079 0.929 . S
H2067 C2077 0.929 . S
H2068 C2072 0.929 . S
H2069 C2078 0.929 . S
C2070 H2064 0.930 . S
C2070 C2071 1.367 . S
C2070 C2078 1.378 . S
C2071 C2070 1.367 . S
C2071 C2079 1.433 . S
C2072 H2068 0.929 . S
C2072 C2074 1.378 . S
C2072 C2076 1.350 . S
C2073 C2076 1.463 . S
C2073 C2078 1.350 . S
C2073 N2081 1.427 . S
C2074 H2065 0.930 . S
C2074 C2072 1.378 . S
C2074 C2075 1.367 . S
C2075 C2074 1.367 . S
C2075 C2077 1.433 . S
C2076 C2072 1.350 . S
C2076 C2073 1.463 . S
C2076 N2080 1.427 . S
C2077 H2067 0.929 . S
C2077 C2075 1.433 . S
C2077 N2080 1.384 . S
C2078 H2069 0.929 . S
C2078 C2070 1.378 . S
C2078 C2073 1.350 . S
C2079 H2066 0.929 . S
C2079 C2071 1.433 . S
C2079 N2081 1.384 . S
N2080 C2076 1.427 . S
N2080 C2077 1.384 . S
N2081 C2073 1.427 . S
N2081 C2079 1.384 . S
H2082 C2088 0.930 . S
H2083 C2092 0.930 . S
H2084 C2097 0.929 . S
H2085 C2095 0.929 . S
H2086 C2090 0.929 . S
H2087 C2096 0.929 . S
C2088 H2082 0.930 . S
C2088 C2089 1.367 . S
C2088 C2096 1.378 . S
C2089 C2088 1.367 . S
C2089 C2097 1.433 . S
C2090 H2086 0.929 . S
C2090 C2092 1.378 . S
C2090 C2094 1.350 . S
C2091 C2094 1.463 . S
C2091 C2096 1.350 . S
C2091 N2099 1.427 . S
C2092 H2083 0.930 . S
C2092 C2090 1.378 . S
C2092 C2093 1.367 . S
C2093 C2092 1.367 . S
C2093 C2095 1.433 . S
C2094 C2090 1.350 . S
C2094 C2091 1.463 . S
C2094 N2098 1.427 . S
C2095 H2085 0.929 . S
C2095 C2093 1.433 . S
C2095 N2098 1.384 . S
C2096 H2087 0.929 . S
C2096 C2088 1.378 . S
C2096 C2091 1.350 . S
C2097 H2084 0.929 . S
C2097 C2089 1.433 . S
C2097 N2099 1.384 . S
N2098 C2094 1.427 . S
N2098 C2095 1.384 . S
N2099 C2091 1.427 . S
N2099 C2097 1.384 . S
H2100 C2106 0.930 . S
H2101 C2110 0.930 . S
H2102 C2115 0.929 . S
H2103 C2113 0.929 . S
H2104 C2108 0.929 . S
H2105 C2114 0.929 . S
C2106 H2100 0.930 . S
C2106 C2107 1.367 . S
C2106 C2114 1.378 . S
C2107 C2106 1.367 . S
C2107 C2115 1.433 . S
C2108 H2104 0.929 . S
C2108 C2110 1.378 . S
C2108 C2112 1.350 . S
C2109 C2112 1.463 . S
C2109 C2114 1.350 . S
C2109 N2117 1.427 . S
C2110 H2101 0.930 . S
C2110 C2108 1.378 . S
C2110 C2111 1.367 . S
C2111 C2110 1.367 . S
C2111 C2113 1.433 . S
C2112 C2108 1.350 . S
C2112 C2109 1.463 . S
C2112 N2116 1.427 . S
C2113 H2103 0.929 . S
C2113 C2111 1.433 . S
C2113 N2116 1.384 . S
C2114 H2105 0.929 . S
C2114 C2106 1.378 . S
C2114 C2109 1.350 . S
C2115 H2102 0.929 . S
C2115 C2107 1.433 . S
C2115 N2117 1.384 . S
N2116 C2112 1.427 . S
N2116 C2113 1.384 . S
N2117 C2109 1.427 . S
N2117 C2115 1.384 . S
H2118 C2124 0.930 . S
H2119 C2128 0.930 . S
H2120 C2133 0.929 . S
H2121 C2131 0.929 . S
H2122 C2126 0.929 . S
H2123 C2132 0.929 . S
C2124 H2118 0.930 . S
C2124 C2125 1.367 . S
C2124 C2132 1.378 . S
C2125 C2124 1.367 . S
C2125 C2133 1.433 . S
C2126 H2122 0.929 . S
C2126 C2128 1.378 . S
C2126 C2130 1.350 . S
C2127 C2130 1.463 . S
C2127 C2132 1.350 . S
C2127 N2135 1.427 . S
C2128 H2119 0.930 . S
C2128 C2126 1.378 . S
C2128 C2129 1.367 . S
C2129 C2128 1.367 . S
C2129 C2131 1.433 . S
C2130 C2126 1.350 . S
C2130 C2127 1.463 . S
C2130 N2134 1.427 . S
C2131 H2121 0.929 . S
C2131 C2129 1.433 . S
C2131 N2134 1.384 . S
C2132 H2123 0.929 . S
C2132 C2124 1.378 . S
C2132 C2127 1.350 . S
C2133 H2120 0.929 . S
C2133 C2125 1.433 . S
C2133 N2135 1.384 . S
N2134 C2130 1.427 . S
N2134 C2131 1.384 . S
N2135 C2127 1.427 . S
N2135 C2133 1.384 . S
H2136 C2142 0.930 . S
H2137 C2146 0.930 . S
H2138 C2151 0.929 . S
H2139 C2149 0.929 . S
H2140 C2144 0.929 . S
H2141 C2150 0.929 . S
C2142 H2136 0.930 . S
C2142 C2143 1.367 . S
C2142 C2150 1.378 . S
C2143 C2142 1.367 . S
C2143 C2151 1.433 . S
C2144 H2140 0.929 . S
C2144 C2146 1.378 . S
C2144 C2148 1.350 . S
C2145 C2148 1.463 . S
C2145 C2150 1.350 . S
C2145 N2153 1.427 . S
C2146 H2137 0.930 . S
C2146 C2144 1.378 . S
C2146 C2147 1.367 . S
C2147 C2146 1.367 . S
C2147 C2149 1.433 . S
C2148 C2144 1.350 . S
C2148 C2145 1.463 . S
C2148 N2152 1.427 . S
C2149 H2139 0.929 . S
C2149 C2147 1.433 . S
C2149 N2152 1.384 . S
C2150 H2141 0.929 . S
C2150 C2142 1.378 . S
C2150 C2145 1.350 . S
C2151 H2138 0.929 . S
C2151 C2143 1.433 . S
C2151 N2153 1.384 . S
N2152 C2148 1.427 . S
N2152 C2149 1.384 . S
N2153 C2145 1.427 . S
N2153 C2151 1.384 . S
H2154 C2160 0.930 . S
H2155 C2164 0.930 . S
H2156 C2169 0.929 . S
H2157 C2167 0.929 . S
H2158 C2162 0.929 . S
H2159 C2168 0.929 . S
C2160 H2154 0.930 . S
C2160 C2161 1.367 . S
C2160 C2168 1.378 . S
C2161 C2160 1.367 . S
C2161 C2169 1.433 . S
C2162 H2158 0.929 . S
C2162 C2164 1.378 . S
C2162 C2166 1.350 . S
C2163 C2166 1.463 . S
C2163 C2168 1.350 . S
C2163 N2171 1.427 . S
C2164 H2155 0.930 . S
C2164 C2162 1.378 . S
C2164 C2165 1.367 . S
C2165 C2164 1.367 . S
C2165 C2167 1.433 . S
C2166 C2162 1.350 . S
C2166 C2163 1.463 . S
C2166 N2170 1.427 . S
C2167 H2157 0.929 . S
C2167 C2165 1.433 . S
C2167 N2170 1.384 . S
C2168 H2159 0.929 . S
C2168 C2160 1.378 . S
C2168 C2163 1.350 . S
C2169 H2156 0.929 . S
C2169 C2161 1.433 . S
C2169 N2171 1.384 . S
N2170 C2166 1.427 . S
N2170 C2167 1.384 . S
N2171 C2163 1.427 . S
N2171 C2169 1.384 . S
H2172 C2178 0.930 . S
H2173 C2182 0.930 . S
H2174 C2187 0.929 . S
H2175 C2185 0.929 . S
H2176 C2180 0.929 . S
H2177 C2186 0.929 . S
C2178 H2172 0.930 . S
C2178 C2179 1.367 . S
C2178 C2186 1.378 . S
C2179 C2178 1.367 . S
C2179 C2187 1.433 . S
C2180 H2176 0.929 . S
C2180 C2182 1.378 . S
C2180 C2184 1.350 . S
C2181 C2184 1.463 . S
C2181 C2186 1.350 . S
C2181 N2189 1.427 . S
C2182 H2173 0.930 . S
C2182 C2180 1.378 . S
C2182 C2183 1.367 . S
C2183 C2182 1.367 . S
C2183 C2185 1.433 . S
C2184 C2180 1.350 . S
C2184 C2181 1.463 . S
C2184 N2188 1.427 . S
C2185 H2175 0.929 . S
C2185 C2183 1.433 . S
C2185 N2188 1.384 . S
C2186 H2177 0.929 . S
C2186 C2178 1.378 . S
C2186 C2181 1.350 . S
C2187 H2174 0.929 . S
C2187 C2179 1.433 . S
C2187 N2189 1.384 . S
N2188 C2184 1.427 . S
N2188 C2185 1.384 . S
N2189 C2181 1.427 . S
N2189 C2187 1.384 . S
H2190 C2196 0.930 . S
H2191 C2200 0.930 . S
H2192 C2205 0.929 . S
H2193 C2203 0.929 . S
H2194 C2198 0.929 . S
H2195 C2204 0.929 . S
C2196 H2190 0.930 . S
C2196 C2197 1.367 . S
C2196 C2204 1.378 . S
C2197 C2196 1.367 . S
C2197 C2205 1.433 . S
C2198 H2194 0.929 . S
C2198 C2200 1.378 . S
C2198 C2202 1.350 . S
C2199 C2202 1.463 . S
C2199 C2204 1.350 . S
C2199 N2207 1.427 . S
C2200 H2191 0.930 . S
C2200 C2198 1.378 . S
C2200 C2201 1.367 . S
C2201 C2200 1.367 . S
C2201 C2203 1.433 . S
C2202 C2198 1.350 . S
C2202 C2199 1.463 . S
C2202 N2206 1.427 . S
C2203 H2193 0.929 . S
C2203 C2201 1.433 . S
C2203 N2206 1.384 . S
C2204 H2195 0.929 . S
C2204 C2196 1.378 . S
C2204 C2199 1.350 . S
C2205 H2192 0.929 . S
C2205 C2197 1.433 . S
C2205 N2207 1.384 . S
N2206 C2202 1.427 . S
N2206 C2203 1.384 . S
N2207 C2199 1.427 . S
N2207 C2205 1.384 . S
H2208 C2214 0.930 . S
H2209 C2218 0.930 . S
H2210 C2223 0.929 . S
H2211 C2221 0.929 . S
H2212 C2216 0.929 . S
H2213 C2222 0.929 . S
C2214 H2208 0.930 . S
C2214 C2215 1.367 . S
C2214 C2222 1.378 . S
C2215 C2214 1.367 . S
C2215 C2223 1.433 . S
C2216 H2212 0.929 . S
C2216 C2218 1.378 . S
C2216 C2220 1.350 . S
C2217 C2220 1.463 . S
C2217 C2222 1.350 . S
C2217 N2225 1.427 . S
C2218 H2209 0.930 . S
C2218 C2216 1.378 . S
C2218 C2219 1.367 . S
C2219 C2218 1.367 . S
C2219 C2221 1.433 . S
C2220 C2216 1.350 . S
C2220 C2217 1.463 . S
C2220 N2224 1.427 . S
C2221 H2211 0.929 . S
C2221 C2219 1.433 . S
C2221 N2224 1.384 . S
C2222 H2213 0.929 . S
C2222 C2214 1.378 . S
C2222 C2217 1.350 . S
C2223 H2210 0.929 . S
C2223 C2215 1.433 . S
C2223 N2225 1.384 . S
N2224 C2220 1.427 . S
N2224 C2221 1.384 . S
N2225 C2217 1.427 . S
N2225 C2223 1.384 . S
H2226 C2232 0.930 . S
H2227 C2236 0.930 . S
H2228 C2241 0.929 . S
H2229 C2239 0.929 . S
H2230 C2234 0.929 . S
H2231 C2240 0.929 . S
C2232 H2226 0.930 . S
C2232 C2233 1.367 1_545 S
C2232 C2240 1.378 . S
C2233 C2232 1.367 1_565 S
C2233 C2241 1.433 . S
C2234 H2230 0.929 . S
C2234 C2236 1.378 . S
C2234 C2238 1.350 . S
C2235 C2238 1.463 1_655 S
C2235 C2240 1.350 1_565 S
C2235 N2243 1.427 . S
C2236 H2227 0.930 . S
C2236 C2234 1.378 . S
C2236 C2237 1.367 . S
C2237 C2236 1.367 . S
C2237 C2239 1.433 1_565 S
C2238 C2234 1.350 . S
C2238 C2235 1.463 1_455 S
C2238 N2242 1.427 1_565 S
C2239 H2229 0.929 . S
C2239 C2237 1.433 1_545 S
C2239 N2242 1.384 . S
C2240 H2231 0.929 . S
C2240 C2232 1.378 . S
C2240 C2235 1.350 1_545 S
C2241 H2228 0.929 . S
C2241 C2233 1.433 . S
C2241 N2243 1.384 . S
N2242 C2238 1.427 1_545 S
N2242 C2239 1.384 . S
N2243 C2235 1.427 . S
N2243 C2241 1.384 . S
H2244 C2250 0.930 . S
H2245 C2254 0.930 . S
H2246 C2259 0.929 . S
H2247 C2257 0.929 . S
H2248 C2252 0.929 . S
H2249 C2258 0.929 . S
C2250 H2244 0.930 . S
C2250 C2251 1.367 . S
C2250 C2258 1.378 . S
C2251 C2250 1.367 . S
C2251 C2259 1.433 . S
C2252 H2248 0.929 . S
C2252 C2254 1.378 . S
C2252 C2256 1.350 . S
C2253 C2256 1.463 . S
C2253 C2258 1.350 . S
C2253 N2261 1.427 . S
C2254 H2245 0.930 . S
C2254 C2252 1.378 . S
C2254 C2255 1.367 . S
C2255 C2254 1.367 . S
C2255 C2257 1.433 . S
C2256 C2252 1.350 . S
C2256 C2253 1.463 . S
C2256 N2260 1.427 . S
C2257 H2247 0.929 . S
C2257 C2255 1.433 . S
C2257 N2260 1.384 . S
C2258 H2249 0.929 . S
C2258 C2250 1.378 . S
C2258 C2253 1.350 . S
C2259 H2246 0.929 . S
C2259 C2251 1.433 . S
C2259 N2261 1.384 . S
N2260 C2256 1.427 . S
N2260 C2257 1.384 . S
N2261 C2253 1.427 . S
N2261 C2259 1.384 . S
H2262 C2268 0.930 . S
H2263 C2272 0.930 . S
H2264 C2277 0.929 . S
H2265 C2275 0.929 . S
H2266 C2270 0.929 . S
H2267 C2276 0.929 . S
C2268 H2262 0.930 . S
C2268 C2269 1.367 . S
C2268 C2276 1.378 . S
C2269 C2268 1.367 . S
C2269 C2277 1.433 1_545 S
C2270 H2266 0.929 . S
C2270 C2272 1.378 . S
C2270 C2274 1.350 1_565 S
C2271 C2274 1.463 . S
C2271 C2276 1.350 . S
C2271 N2279 1.427 1_545 S
C2272 H2263 0.930 . S
C2272 C2270 1.378 . S
C2272 C2273 1.367 1_565 S
C2273 C2272 1.367 1_545 S
C2273 C2275 1.433 . S
C2274 C2270 1.350 1_545 S
C2274 C2271 1.463 . S
C2274 N2278 1.427 . S
C2275 H2265 0.929 . S
C2275 C2273 1.433 . S
C2275 N2278 1.384 . S
C2276 H2267 0.929 . S
C2276 C2268 1.378 . S
C2276 C2271 1.350 . S
C2277 H2264 0.929 . S
C2277 C2269 1.433 1_565 S
C2277 N2279 1.384 . S
N2278 C2274 1.427 . S
N2278 C2275 1.384 . S
N2279 C2271 1.427 1_565 S
N2279 C2277 1.384 . S
H2280 C2286 0.930 . S
H2281 C2290 0.930 . S
H2282 C2295 0.929 . S
H2283 C2293 0.929 . S
H2284 C2288 0.929 . S
H2285 C2294 0.929 . S
C2286 H2280 0.930 . S
C2286 C2287 1.367 . S
C2286 C2294 1.378 . S
C2287 C2286 1.367 . S
C2287 C2295 1.433 . S
C2288 H2284 0.929 . S
C2288 C2290 1.378 . S
C2288 C2292 1.350 . S
C2289 C2292 1.463 . S
C2289 C2294 1.350 . S
C2289 N2297 1.427 . S
C2290 H2281 0.930 . S
C2290 C2288 1.378 . S
C2290 C2291 1.367 . S
C2291 C2290 1.367 . S
C2291 C2293 1.433 . S
C2292 C2288 1.350 . S
C2292 C2289 1.463 . S
C2292 N2296 1.427 . S
C2293 H2283 0.929 . S
C2293 C2291 1.433 . S
C2293 N2296 1.384 . S
C2294 H2285 0.929 . S
C2294 C2286 1.378 . S
C2294 C2289 1.350 . S
C2295 H2282 0.929 . S
C2295 C2287 1.433 . S
C2295 N2297 1.384 . S
N2296 C2292 1.427 . S
N2296 C2293 1.384 . S
N2297 C2289 1.427 . S
N2297 C2295 1.384 . S
H2298 C2304 0.930 . S
H2299 C2308 0.930 . S
H2300 C2313 0.929 . S
H2301 C2311 0.929 . S
H2302 C2306 0.929 . S
H2303 C2312 0.929 . S
C2304 H2298 0.930 . S
C2304 C2305 1.367 1_545 S
C2304 C2312 1.378 . S
C2305 C2304 1.367 1_565 S
C2305 C2313 1.433 . S
C2306 H2302 0.929 . S
C2306 C2308 1.378 . S
C2306 C2310 1.350 . S
C2307 C2310 1.463 . S
C2307 C2312 1.350 1_565 S
C2307 N2315 1.427 . S
C2308 H2299 0.930 . S
C2308 C2306 1.378 . S
C2308 C2309 1.367 . S
C2309 C2308 1.367 . S
C2309 C2311 1.433 1_565 S
C2310 C2306 1.350 . S
C2310 C2307 1.463 . S
C2310 N2314 1.427 1_565 S
C2311 H2301 0.929 . S
C2311 C2309 1.433 1_545 S
C2311 N2314 1.384 . S
C2312 H2303 0.929 . S
C2312 C2304 1.378 . S
C2312 C2307 1.350 1_545 S
C2313 H2300 0.929 . S
C2313 C2305 1.433 . S
C2313 N2315 1.384 . S
N2314 C2310 1.427 1_545 S
N2314 C2311 1.384 . S
N2315 C2307 1.427 . S
N2315 C2313 1.384 . S
H2316 C2322 0.930 . S
H2317 C2326 0.930 . S
H2318 C2331 0.929 . S
H2319 C2329 0.929 . S
H2320 C2324 0.929 . S
H2321 C2330 0.929 . S
C2322 H2316 0.930 . S
C2322 C2323 1.367 . S
C2322 C2330 1.378 . S
C2323 C2322 1.367 . S
C2323 C2331 1.433 . S
C2324 H2320 0.929 . S
C2324 C2326 1.378 . S
C2324 C2328 1.350 . S
C2325 C2328 1.463 . S
C2325 C2330 1.350 . S
C2325 N2333 1.427 . S
C2326 H2317 0.930 . S
C2326 C2324 1.378 . S
C2326 C2327 1.367 . S
C2327 C2326 1.367 . S
C2327 C2329 1.433 . S
C2328 C2324 1.350 . S
C2328 C2325 1.463 . S
C2328 N2332 1.427 . S
C2329 H2319 0.929 . S
C2329 C2327 1.433 . S
C2329 N2332 1.384 . S
C2330 H2321 0.929 . S
C2330 C2322 1.378 . S
C2330 C2325 1.350 . S
C2331 H2318 0.929 . S
C2331 C2323 1.433 . S
C2331 N2333 1.384 . S
N2332 C2328 1.427 . S
N2332 C2329 1.384 . S
N2333 C2325 1.427 . S
N2333 C2331 1.384 . S
H2334 C2340 0.930 . S
H2335 C2344 0.930 . S
H2336 C2349 0.929 . S
H2337 C2347 0.929 . S
H2338 C2342 0.929 . S
H2339 C2348 0.929 . S
C2340 H2334 0.930 . S
C2340 C2341 1.367 . S
C2340 C2348 1.378 . S
C2341 C2340 1.367 . S
C2341 C2349 1.433 1_545 S
C2342 H2338 0.929 . S
C2342 C2344 1.378 . S
C2342 C2346 1.350 1_565 S
C2343 C2346 1.463 1_455 S
C2343 C2348 1.350 . S
C2343 N2351 1.427 1_545 S
C2344 H2335 0.930 . S
C2344 C2342 1.378 . S
C2344 C2345 1.367 1_565 S
C2345 C2344 1.367 1_545 S
C2345 C2347 1.433 . S
C2346 C2342 1.350 1_545 S
C2346 C2343 1.463 1_655 S
C2346 N2350 1.427 . S
C2347 H2337 0.929 . S
C2347 C2345 1.433 . S
C2347 N2350 1.384 . S
C2348 H2339 0.929 . S
C2348 C2340 1.378 . S
C2348 C2343 1.350 . S
C2349 H2336 0.929 . S
C2349 C2341 1.433 1_565 S
C2349 N2351 1.384 . S
N2350 C2346 1.427 . S
N2350 C2347 1.384 . S
N2351 C2343 1.427 1_565 S
N2351 C2349 1.384 . S
H2352 C2358 0.930 . S
H2353 C2362 0.930 . S
H2354 C2367 0.929 . S
H2355 C2365 0.929 . S
H2356 C2360 0.929 . S
H2357 C2366 0.929 . S
C2358 H2352 0.930 . S
C2358 C2359 1.367 . S
C2358 C2366 1.378 . S
C2359 C2358 1.367 . S
C2359 C2367 1.433 . S
C2360 H2356 0.929 . S
C2360 C2362 1.378 . S
C2360 C2364 1.350 . S
C2361 C2364 1.463 . S
C2361 C2366 1.350 . S
C2361 N2369 1.427 . S
C2362 H2353 0.930 . S
C2362 C2360 1.378 . S
C2362 C2363 1.367 . S
C2363 C2362 1.367 . S
C2363 C2365 1.433 . S
C2364 C2360 1.350 . S
C2364 C2361 1.463 . S
C2364 N2368 1.427 . S
C2365 H2355 0.929 . S
C2365 C2363 1.433 . S
C2365 N2368 1.384 . S
C2366 H2357 0.929 . S
C2366 C2358 1.378 . S
C2366 C2361 1.350 . S
C2367 H2354 0.929 . S
C2367 C2359 1.433 . S
C2367 N2369 1.384 . S
N2368 C2364 1.427 . S
N2368 C2365 1.384 . S
N2369 C2361 1.427 . S
N2369 C2367 1.384 . S
H2370 C2376 0.930 . S
H2371 C2380 0.930 . S
H2372 C2385 0.929 . S
H2373 C2383 0.929 . S
H2374 C2378 0.929 . S
H2375 C2384 0.929 . S
C2376 H2370 0.930 . S
C2376 C2377 1.367 . S
C2376 C2384 1.378 . S
C2377 C2376 1.367 . S
C2377 C2385 1.433 . S
C2378 H2374 0.929 . S
C2378 C2380 1.378 . S
C2378 C2382 1.350 . S
C2379 C2382 1.463 . S
C2379 C2384 1.350 . S
C2379 N2387 1.427 . S
C2380 H2371 0.930 . S
C2380 C2378 1.378 . S
C2380 C2381 1.367 . S
C2381 C2380 1.367 . S
C2381 C2383 1.433 . S
C2382 C2378 1.350 . S
C2382 C2379 1.463 . S
C2382 N2386 1.427 . S
C2383 H2373 0.929 . S
C2383 C2381 1.433 . S
C2383 N2386 1.384 . S
C2384 H2375 0.929 . S
C2384 C2376 1.378 . S
C2384 C2379 1.350 . S
C2385 H2372 0.929 . S
C2385 C2377 1.433 . S
C2385 N2387 1.384 . S
N2386 C2382 1.427 . S
N2386 C2383 1.384 . S
N2387 C2379 1.427 . S
N2387 C2385 1.384 . S
H2388 C2394 0.930 . S
H2389 C2398 0.930 . S
H2390 C2403 0.929 . S
H2391 C2401 0.929 . S
H2392 C2396 0.929 . S
H2393 C2402 0.929 . S
C2394 H2388 0.930 . S
C2394 C2395 1.367 . S
C2394 C2402 1.378 . S
C2395 C2394 1.367 . S
C2395 C2403 1.433 . S
C2396 H2392 0.929 . S
C2396 C2398 1.378 . S
C2396 C2400 1.350 . S
C2397 C2400 1.463 . S
C2397 C2402 1.350 . S
C2397 N2405 1.427 . S
C2398 H2389 0.930 . S
C2398 C2396 1.378 . S
C2398 C2399 1.367 . S
C2399 C2398 1.367 . S
C2399 C2401 1.433 . S
C2400 C2396 1.350 . S
C2400 C2397 1.463 . S
C2400 N2404 1.427 . S
C2401 H2391 0.929 . S
C2401 C2399 1.433 . S
C2401 N2404 1.384 . S
C2402 H2393 0.929 . S
C2402 C2394 1.378 . S
C2402 C2397 1.350 . S
C2403 H2390 0.929 . S
C2403 C2395 1.433 . S
C2403 N2405 1.384 . S
N2404 C2400 1.427 . S
N2404 C2401 1.384 . S
N2405 C2397 1.427 . S
N2405 C2403 1.384 . S
H2406 C2412 0.930 . S
H2407 C2416 0.930 . S
H2408 C2421 0.929 . S
H2409 C2419 0.929 . S
H2410 C2414 0.929 . S
H2411 C2420 0.929 . S
C2412 H2406 0.930 . S
C2412 C2413 1.367 . S
C2412 C2420 1.378 . S
C2413 C2412 1.367 . S
C2413 C2421 1.433 . S
C2414 H2410 0.929 . S
C2414 C2416 1.378 . S
C2414 C2418 1.350 . S
C2415 C2418 1.463 . S
C2415 C2420 1.350 . S
C2415 N2423 1.427 . S
C2416 H2407 0.930 . S
C2416 C2414 1.378 . S
C2416 C2417 1.367 . S
C2417 C2416 1.367 . S
C2417 C2419 1.433 . S
C2418 C2414 1.350 . S
C2418 C2415 1.463 . S
C2418 N2422 1.427 . S
C2419 H2409 0.929 . S
C2419 C2417 1.433 . S
C2419 N2422 1.384 . S
C2420 H2411 0.929 . S
C2420 C2412 1.378 . S
C2420 C2415 1.350 . S
C2421 H2408 0.929 . S
C2421 C2413 1.433 . S
C2421 N2423 1.384 . S
N2422 C2418 1.427 . S
N2422 C2419 1.384 . S
N2423 C2415 1.427 . S
N2423 C2421 1.384 . S
H2424 C2430 0.930 . S
H2425 C2434 0.930 . S
H2426 C2439 0.929 . S
H2427 C2437 0.929 . S
H2428 C2432 0.929 . S
H2429 C2438 0.929 . S
C2430 H2424 0.930 . S
C2430 C2431 1.367 . S
C2430 C2438 1.378 . S
C2431 C2430 1.367 . S
C2431 C2439 1.433 . S
C2432 H2428 0.929 . S
C2432 C2434 1.378 . S
C2432 C2436 1.350 . S
C2433 C2436 1.463 . S
C2433 C2438 1.350 . S
C2433 N2441 1.427 . S
C2434 H2425 0.930 . S
C2434 C2432 1.378 . S
C2434 C2435 1.367 . S
C2435 C2434 1.367 . S
C2435 C2437 1.433 . S
C2436 C2432 1.350 . S
C2436 C2433 1.463 . S
C2436 N2440 1.427 . S
C2437 H2427 0.929 . S
C2437 C2435 1.433 . S
C2437 N2440 1.384 . S
C2438 H2429 0.929 . S
C2438 C2430 1.378 . S
C2438 C2433 1.350 . S
C2439 H2426 0.929 . S
C2439 C2431 1.433 . S
C2439 N2441 1.384 . S
N2440 C2436 1.427 . S
N2440 C2437 1.384 . S
N2441 C2433 1.427 . S
N2441 C2439 1.384 . S
H2442 C2448 0.930 . S
H2443 C2452 0.930 . S
H2444 C2457 0.929 . S
H2445 C2455 0.929 . S
H2446 C2450 0.929 . S
H2447 C2456 0.929 . S
C2448 H2442 0.930 . S
C2448 C2449 1.367 . S
C2448 C2456 1.378 . S
C2449 C2448 1.367 . S
C2449 C2457 1.433 . S
C2450 H2446 0.929 . S
C2450 C2452 1.378 . S
C2450 C2454 1.350 . S
C2451 C2454 1.463 1_455 S
C2451 C2456 1.350 . S
C2451 N2459 1.427 . S
C2452 H2443 0.930 . S
C2452 C2450 1.378 . S
C2452 C2453 1.367 . S
C2453 C2452 1.367 . S
C2453 C2455 1.433 . S
C2454 C2450 1.350 . S
C2454 C2451 1.463 1_655 S
C2454 N2458 1.427 . S
C2455 H2445 0.929 . S
C2455 C2453 1.433 . S
C2455 N2458 1.384 . S
C2456 H2447 0.929 . S
C2456 C2448 1.378 . S
C2456 C2451 1.350 . S
C2457 H2444 0.929 . S
C2457 C2449 1.433 . S
C2457 N2459 1.384 . S
N2458 C2454 1.427 . S
N2458 C2455 1.384 . S
N2459 C2451 1.427 . S
N2459 C2457 1.384 . S
H2460 C2466 0.930 . S
H2461 C2470 0.930 . S
H2462 C2475 0.929 . S
H2463 C2473 0.929 . S
H2464 C2468 0.929 . S
H2465 C2474 0.929 . S
C2466 H2460 0.930 . S
C2466 C2467 1.367 . S
C2466 C2474 1.378 . S
C2467 C2466 1.367 . S
C2467 C2475 1.433 . S
C2468 H2464 0.929 . S
C2468 C2470 1.378 . S
C2468 C2472 1.350 . S
C2469 C2472 1.463 1_455 S
C2469 C2474 1.350 . S
C2469 N2477 1.427 . S
C2470 H2461 0.930 . S
C2470 C2468 1.378 . S
C2470 C2471 1.367 . S
C2471 C2470 1.367 . S
C2471 C2473 1.433 . S
C2472 C2468 1.350 . S
C2472 C2469 1.463 1_655 S
C2472 N2476 1.427 . S
C2473 H2463 0.929 . S
C2473 C2471 1.433 . S
C2473 N2476 1.384 . S
C2474 H2465 0.929 . S
C2474 C2466 1.378 . S
C2474 C2469 1.350 . S
C2475 H2462 0.929 . S
C2475 C2467 1.433 . S
C2475 N2477 1.384 . S
N2476 C2472 1.427 . S
N2476 C2473 1.384 . S
N2477 C2469 1.427 . S
N2477 C2475 1.384 . S
H2478 C2484 0.930 . S
H2479 C2488 0.930 . S
H2480 C2493 0.929 . S
H2481 C2491 0.929 . S
H2482 C2486 0.929 . S
H2483 C2492 0.929 . S
C2484 H2478 0.930 . S
C2484 C2485 1.367 . S
C2484 C2492 1.378 . S
C2485 C2484 1.367 . S
C2485 C2493 1.433 . S
C2486 H2482 0.929 . S
C2486 C2488 1.378 . S
C2486 C2490 1.350 . S
C2487 C2490 1.463 . S
C2487 C2492 1.350 . S
C2487 N2495 1.427 . S
C2488 H2479 0.930 . S
C2488 C2486 1.378 . S
C2488 C2489 1.367 . S
C2489 C2488 1.367 . S
C2489 C2491 1.433 . S
C2490 C2486 1.350 . S
C2490 C2487 1.463 . S
C2490 N2494 1.427 . S
C2491 H2481 0.929 . S
C2491 C2489 1.433 . S
C2491 N2494 1.384 . S
C2492 H2483 0.929 . S
C2492 C2484 1.378 . S
C2492 C2487 1.350 . S
C2493 H2480 0.929 . S
C2493 C2485 1.433 . S
C2493 N2495 1.384 . S
N2494 C2490 1.427 . S
N2494 C2491 1.384 . S
N2495 C2487 1.427 . S
N2495 C2493 1.384 . S
C1063 N46 2.074 . S
C1067 C21 1.996 . S
C1081 C54 1.777 . S
C1085 N79 1.858 . S
C1099 C87 1.990 . S
C1103 N112 2.078 . S
C1117 C120 1.760 . S
C1121 N13 1.853 . S
C1135 C153 1.995 . S
C1139 N244 2.077 . S
C1153 N145 1.859 . S
C1157 C186 1.771 . S
C1171 C219 1.993 . S
C1175 N178 2.077 . S
C1189 C252 1.761 . S
C1193 N211 1.855 . S
C1207 N310 2.074 . S
C1211 C285 1.996 . S
C1225 N343 1.859 . S
C1229 C318 1.771 . S
C1243 C351 2.001 . S
C1247 N376 2.080 . S
C1261 N277 1.862 . S
C1265 C384 1.770 . S
C1279 C417 1.990 . S
C1283 N508 2.079 . S
C1297 C450 1.776 . S
C1301 N409 1.857 . S
C1315 N442 2.074 . S
C1319 C483 1.994 . S
C1333 N475 1.860 . S
C1337 C516 1.772 . S
C1351 N574 1.993 . S
C1355 C549 1.903 . S
C1369 C582 1.925 . S
C1373 N607 2.004 . S
C1387 N640 1.995 . S
C1391 C615 1.915 . S
C1405 N541 2.004 . S
C1409 C648 1.925 . S
C1423 N772 1.994 . S
C1427 C681 1.902 . S
C1441 C714 1.912 . S
C1445 N673 2.004 . S
C1459 N706 1.993 . S
C1463 C747 1.914 . S
C1477 C780 1.927 . S
C1481 N739 2.006 . S
C1495 N838 1.998 . S
C1499 C813 1.908 . S
C1513 C846 1.913 . S
C1517 N871 2.004 . S
C1531 C879 1.914 . S
C1535 N904 1.993 . S
C1549 C912 1.915 . S
C1553 N805 2.002 . S
C1567 N1036 1.992 . S
C1571 C945 1.905 . S
C1585 N937 2.005 . S
C1589 C978 1.926 . S
C1603 N970 1.992 . S
C1607 C1011 1.907 . S
C1621 N1003 2.005 . S
C1625 C1044 1.913 . S
C1639 N200 0.494 . S
C1643 N2 0.544 . S
C1657 N35 0.600 . S
C1661 N233 0.579 . S
C1675 N68 0.494 . S
C1679 N134 0.541 . S
C1693 N101 0.597 . S
C1697 N167 0.618 . S
C1711 N464 0.546 . S
C1715 N266 0.496 . S
C1729 N497 0.587 . S
C1733 N299 0.591 . S
C1747 N332 0.544 . S
C1751 N398 0.494 . S
C1765 N431 0.611 . S
C1769 N365 0.608 . S
C1783 N530 0.534 . S
C1787 N728 0.576 . S
C1801 N563 0.574 . S
C1805 N761 0.547 . S
C1819 N662 0.535 . S
C1823 N596 0.572 . S
C1837 N695 0.585 . S
C1841 N629 0.542 . S
C1855 N992 0.582 . S
C1859 N794 0.547 . S
C1873 N1025 0.542 . S
C1877 N827 0.585 . S
C1891 N926 0.537 . S
C1895 N860 0.584 . S
C1909 N959 0.565 . S
C1913 N893 0.584 . S
C1927 C183 0.721 . S
C1931 C18 0.740 . S
C1945 C51 0.720 . S
C1949 C216 0.734 . S
C1963 C84 0.721 . S
C1967 C249 0.731 . S
C1981 C117 0.720 . S
C1985 C150 0.736 . S
C1999 C447 0.744 . S
C2003 C282 0.738 . S
C2017 C315 0.727 . S
C2021 C480 0.723 . S
C2035 C513 0.744 . S
C2039 C348 0.736 . S
C2053 C381 0.724 . S
C2057 C414 0.744 . S
C2071 C546 0.645 . S
C2075 C711 0.631 . S
C2089 C744 0.617 . S
C2093 C579 0.630 . S
C2107 C777 0.618 . S
C2111 C612 0.627 . S
C2125 C645 0.617 . S
C2129 C678 0.627 . S
C2143 C810 0.623 . S
C2147 C975 0.619 . S
C2161 C1008 0.637 . S
C2165 C843 0.619 . S
C2179 C1041 0.644 . S
C2183 C876 0.626 . S
C2197 C942 0.631 . S
C2201 C909 0.617 . S
C2215 C7 0.892 . S
C2219 C997 0.877 . S
C2233 C502 0.873 . S
C2237 C40 0.886 . S
C2251 C931 0.877 . S
C2255 C73 0.894 . S
C2269 C106 0.882 . S
C2273 C436 0.877 . S
C2287 C139 0.892 . S
C2291 C865 0.877 . S
C2305 C370 0.886 . S
C2309 C172 0.873 . S
C2323 C205 0.891 . S
C2327 C799 0.880 . S
C2341 C238 0.876 . S
C2345 C304 0.883 . S
C2359 C271 0.881 . S
C2363 C733 0.888 . S
C2377 C337 0.893 . S
C2381 C667 0.877 . S
C2395 C403 0.891 . S
C2399 C601 0.878 . S
C2413 C469 0.877 . S
C2417 C535 0.894 . S
C2431 C568 0.876 . S
C2435 C1030 0.856 . S
C2449 C964 0.867 . S
C2453 C634 0.863 . S
C2467 C898 0.857 . S
C2471 C700 0.873 . S
C2485 C832 0.857 . S
C2489 C766 0.875 . S
