# Generated by pormake.
# Topology fau, (4)-cn, num edge types: 1
# Building blocks:
#     Node 0, Type 0, BuildingBlock: QUQFOY_clean_sbu_1, # of connection points: 4
#     Node 1, Type 0, BuildingBlock: QUQFOY_clean_sbu_1, # of connection points: 4
#     Node 2, Type 0, BuildingBlock: QUQFOY_clean_sbu_1, # of connection points: 4
#     Node 3, Type 0, BuildingBlock: QUQFOY_clean_sbu_1, # of connection points: 4
#     Node 4, Type 0, BuildingBlock: QUQFOY_clean_sbu_1, # of connection points: 4
#     Node 5, Type 0, BuildingBlock: QUQFOY_clean_sbu_1, # of connection points: 4
#     Node 6, Type 0, BuildingBlock: QUQFOY_clean_sbu_1, # of connection points: 4
#     Node 7, Type 0, BuildingBlock: QUQFOY_clean_sbu_1, # of connection points: 4
#     Node 8, Type 0, BuildingBlock: QUQFOY_clean_sbu_1, # of connection points: 4
#     Node 9, Type 0, BuildingBlock: QUQFOY_clean_sbu_1, # of connection points: 4
#     Node 10, Type 0, BuildingBlock: QUQFOY_clean_sbu_1, # of connection points: 4
#     Node 11, Type 0, BuildingBlock: QUQFOY_clean_sbu_1, # of connection points: 4
#     Node 12, Type 0, BuildingBlock: QUQFOY_clean_sbu_1, # of connection points: 4
#     Node 13, Type 0, BuildingBlock: QUQFOY_clean_sbu_1, # of connection points: 4
#     Node 14, Type 0, BuildingBlock: QUQFOY_clean_sbu_1, # of connection points: 4
#     Node 15, Type 0, BuildingBlock: QUQFOY_clean_sbu_1, # of connection points: 4
#     Node 16, Type 0, BuildingBlock: QUQFOY_clean_sbu_1, # of connection points: 4
#     Node 17, Type 0, BuildingBlock: QUQFOY_clean_sbu_1, # of connection points: 4
#     Node 18, Type 0, BuildingBlock: QUQFOY_clean_sbu_1, # of connection points: 4
#     Node 19, Type 0, BuildingBlock: QUQFOY_clean_sbu_1, # of connection points: 4
#     Node 20, Type 0, BuildingBlock: QUQFOY_clean_sbu_1, # of connection points: 4
#     Node 21, Type 0, BuildingBlock: QUQFOY_clean_sbu_1, # of connection points: 4
#     Node 22, Type 0, BuildingBlock: QUQFOY_clean_sbu_1, # of connection points: 4
#     Node 23, Type 0, BuildingBlock: QUQFOY_clean_sbu_1, # of connection points: 4
#     Node 24, Type 0, BuildingBlock: QUQFOY_clean_sbu_1, # of connection points: 4
#     Node 25, Type 0, BuildingBlock: QUQFOY_clean_sbu_1, # of connection points: 4
#     Node 26, Type 0, BuildingBlock: QUQFOY_clean_sbu_1, # of connection points: 4
#     Node 27, Type 0, BuildingBlock: QUQFOY_clean_sbu_1, # of connection points: 4
#     Node 28, Type 0, BuildingBlock: QUQFOY_clean_sbu_1, # of connection points: 4
#     Node 29, Type 0, BuildingBlock: QUQFOY_clean_sbu_1, # of connection points: 4
#     Node 30, Type 0, BuildingBlock: QUQFOY_clean_sbu_1, # of connection points: 4
#     Node 31, Type 0, BuildingBlock: QUQFOY_clean_sbu_1, # of connection points: 4
#     Node 32, Type 0, BuildingBlock: QUQFOY_clean_sbu_1, # of connection points: 4
#     Node 33, Type 0, BuildingBlock: QUQFOY_clean_sbu_1, # of connection points: 4
#     Node 34, Type 0, BuildingBlock: QUQFOY_clean_sbu_1, # of connection points: 4
#     Node 35, Type 0, BuildingBlock: QUQFOY_clean_sbu_1, # of connection points: 4
#     Node 36, Type 0, BuildingBlock: QUQFOY_clean_sbu_1, # of connection points: 4
#     Node 37, Type 0, BuildingBlock: QUQFOY_clean_sbu_1, # of connection points: 4
#     Node 38, Type 0, BuildingBlock: QUQFOY_clean_sbu_1, # of connection points: 4
#     Node 39, Type 0, BuildingBlock: QUQFOY_clean_sbu_1, # of connection points: 4
#     Node 40, Type 0, BuildingBlock: QUQFOY_clean_sbu_1, # of connection points: 4
#     Node 41, Type 0, BuildingBlock: QUQFOY_clean_sbu_1, # of connection points: 4
#     Node 42, Type 0, BuildingBlock: QUQFOY_clean_sbu_1, # of connection points: 4
#     Node 43, Type 0, BuildingBlock: QUQFOY_clean_sbu_1, # of connection points: 4
#     Node 44, Type 0, BuildingBlock: QUQFOY_clean_sbu_1, # of connection points: 4
#     Node 45, Type 0, BuildingBlock: QUQFOY_clean_sbu_1, # of connection points: 4
#     Node 46, Type 0, BuildingBlock: QUQFOY_clean_sbu_1, # of connection points: 4
#     Node 47, Type 0, BuildingBlock: QUQFOY_clean_sbu_1, # of connection points: 4
#     Node 48, Type 0, BuildingBlock: QUQFOY_clean_sbu_1, # of connection points: 4
#     Node 49, Type 0, BuildingBlock: QUQFOY_clean_sbu_1, # of connection points: 4
#     Node 50, Type 0, BuildingBlock: QUQFOY_clean_sbu_1, # of connection points: 4
#     Node 51, Type 0, BuildingBlock: QUQFOY_clean_sbu_1, # of connection points: 4
#     Node 52, Type 0, BuildingBlock: QUQFOY_clean_sbu_1, # of connection points: 4
#     Node 53, Type 0, BuildingBlock: QUQFOY_clean_sbu_1, # of connection points: 4
#     Node 54, Type 0, BuildingBlock: QUQFOY_clean_sbu_1, # of connection points: 4
#     Node 55, Type 0, BuildingBlock: QUQFOY_clean_sbu_1, # of connection points: 4
#     Node 56, Type 0, BuildingBlock: QUQFOY_clean_sbu_1, # of connection points: 4
#     Node 57, Type 0, BuildingBlock: QUQFOY_clean_sbu_1, # of connection points: 4
#     Node 58, Type 0, BuildingBlock: QUQFOY_clean_sbu_1, # of connection points: 4
#     Node 59, Type 0, BuildingBlock: QUQFOY_clean_sbu_1, # of connection points: 4
#     Node 60, Type 0, BuildingBlock: QUQFOY_clean_sbu_1, # of connection points: 4
#     Node 61, Type 0, BuildingBlock: QUQFOY_clean_sbu_1, # of connection points: 4
#     Node 62, Type 0, BuildingBlock: QUQFOY_clean_sbu_1, # of connection points: 4
#     Node 63, Type 0, BuildingBlock: QUQFOY_clean_sbu_1, # of connection points: 4
#     Node 64, Type 0, BuildingBlock: QUQFOY_clean_sbu_1, # of connection points: 4
#     Node 65, Type 0, BuildingBlock: QUQFOY_clean_sbu_1, # of connection points: 4
#     Node 66, Type 0, BuildingBlock: QUQFOY_clean_sbu_1, # of connection points: 4
#     Node 67, Type 0, BuildingBlock: QUQFOY_clean_sbu_1, # of connection points: 4
#     Node 68, Type 0, BuildingBlock: QUQFOY_clean_sbu_1, # of connection points: 4
#     Node 69, Type 0, BuildingBlock: QUQFOY_clean_sbu_1, # of connection points: 4
#     Node 70, Type 0, BuildingBlock: QUQFOY_clean_sbu_1, # of connection points: 4
#     Node 71, Type 0, BuildingBlock: QUQFOY_clean_sbu_1, # of connection points: 4
#     Node 72, Type 0, BuildingBlock: QUQFOY_clean_sbu_1, # of connection points: 4
#     Node 73, Type 0, BuildingBlock: QUQFOY_clean_sbu_1, # of connection points: 4
#     Node 74, Type 0, BuildingBlock: QUQFOY_clean_sbu_1, # of connection points: 4
#     Node 75, Type 0, BuildingBlock: QUQFOY_clean_sbu_1, # of connection points: 4
#     Node 76, Type 0, BuildingBlock: QUQFOY_clean_sbu_1, # of connection points: 4
#     Node 77, Type 0, BuildingBlock: QUQFOY_clean_sbu_1, # of connection points: 4
#     Node 78, Type 0, BuildingBlock: QUQFOY_clean_sbu_1, # of connection points: 4
#     Node 79, Type 0, BuildingBlock: QUQFOY_clean_sbu_1, # of connection points: 4
#     Node 80, Type 0, BuildingBlock: QUQFOY_clean_sbu_1, # of connection points: 4
#     Node 81, Type 0, BuildingBlock: QUQFOY_clean_sbu_1, # of connection points: 4
#     Node 82, Type 0, BuildingBlock: QUQFOY_clean_sbu_1, # of connection points: 4
#     Node 83, Type 0, BuildingBlock: QUQFOY_clean_sbu_1, # of connection points: 4
#     Node 84, Type 0, BuildingBlock: QUQFOY_clean_sbu_1, # of connection points: 4
#     Node 85, Type 0, BuildingBlock: QUQFOY_clean_sbu_1, # of connection points: 4
#     Node 86, Type 0, BuildingBlock: QUQFOY_clean_sbu_1, # of connection points: 4
#     Node 87, Type 0, BuildingBlock: QUQFOY_clean_sbu_1, # of connection points: 4
#     Node 88, Type 0, BuildingBlock: QUQFOY_clean_sbu_1, # of connection points: 4
#     Node 89, Type 0, BuildingBlock: QUQFOY_clean_sbu_1, # of connection points: 4
#     Node 90, Type 0, BuildingBlock: QUQFOY_clean_sbu_1, # of connection points: 4
#     Node 91, Type 0, BuildingBlock: QUQFOY_clean_sbu_1, # of connection points: 4
#     Node 92, Type 0, BuildingBlock: QUQFOY_clean_sbu_1, # of connection points: 4
#     Node 93, Type 0, BuildingBlock: QUQFOY_clean_sbu_1, # of connection points: 4
#     Node 94, Type 0, BuildingBlock: QUQFOY_clean_sbu_1, # of connection points: 4
#     Node 95, Type 0, BuildingBlock: QUQFOY_clean_sbu_1, # of connection points: 4
#     Node 96, Type 0, BuildingBlock: QUQFOY_clean_sbu_1, # of connection points: 4
#     Node 97, Type 0, BuildingBlock: QUQFOY_clean_sbu_1, # of connection points: 4
#     Node 98, Type 0, BuildingBlock: QUQFOY_clean_sbu_1, # of connection points: 4
#     Node 99, Type 0, BuildingBlock: QUQFOY_clean_sbu_1, # of connection points: 4
#     Node 100, Type 0, BuildingBlock: QUQFOY_clean_sbu_1, # of connection points: 4
#     Node 101, Type 0, BuildingBlock: QUQFOY_clean_sbu_1, # of connection points: 4
#     Node 102, Type 0, BuildingBlock: QUQFOY_clean_sbu_1, # of connection points: 4
#     Node 103, Type 0, BuildingBlock: QUQFOY_clean_sbu_1, # of connection points: 4
#     Node 104, Type 0, BuildingBlock: QUQFOY_clean_sbu_1, # of connection points: 4
#     Node 105, Type 0, BuildingBlock: QUQFOY_clean_sbu_1, # of connection points: 4
#     Node 106, Type 0, BuildingBlock: QUQFOY_clean_sbu_1, # of connection points: 4
#     Node 107, Type 0, BuildingBlock: QUQFOY_clean_sbu_1, # of connection points: 4
#     Node 108, Type 0, BuildingBlock: QUQFOY_clean_sbu_1, # of connection points: 4
#     Node 109, Type 0, BuildingBlock: QUQFOY_clean_sbu_1, # of connection points: 4
#     Node 110, Type 0, BuildingBlock: QUQFOY_clean_sbu_1, # of connection points: 4
#     Node 111, Type 0, BuildingBlock: QUQFOY_clean_sbu_1, # of connection points: 4
#     Node 112, Type 0, BuildingBlock: QUQFOY_clean_sbu_1, # of connection points: 4
#     Node 113, Type 0, BuildingBlock: QUQFOY_clean_sbu_1, # of connection points: 4
#     Node 114, Type 0, BuildingBlock: QUQFOY_clean_sbu_1, # of connection points: 4
#     Node 115, Type 0, BuildingBlock: QUQFOY_clean_sbu_1, # of connection points: 4
#     Node 116, Type 0, BuildingBlock: QUQFOY_clean_sbu_1, # of connection points: 4
#     Node 117, Type 0, BuildingBlock: QUQFOY_clean_sbu_1, # of connection points: 4
#     Node 118, Type 0, BuildingBlock: QUQFOY_clean_sbu_1, # of connection points: 4
#     Node 119, Type 0, BuildingBlock: QUQFOY_clean_sbu_1, # of connection points: 4
#     Node 120, Type 0, BuildingBlock: QUQFOY_clean_sbu_1, # of connection points: 4
#     Node 121, Type 0, BuildingBlock: QUQFOY_clean_sbu_1, # of connection points: 4
#     Node 122, Type 0, BuildingBlock: QUQFOY_clean_sbu_1, # of connection points: 4
#     Node 123, Type 0, BuildingBlock: QUQFOY_clean_sbu_1, # of connection points: 4
#     Node 124, Type 0, BuildingBlock: QUQFOY_clean_sbu_1, # of connection points: 4
#     Node 125, Type 0, BuildingBlock: QUQFOY_clean_sbu_1, # of connection points: 4
#     Node 126, Type 0, BuildingBlock: QUQFOY_clean_sbu_1, # of connection points: 4
#     Node 127, Type 0, BuildingBlock: QUQFOY_clean_sbu_1, # of connection points: 4
#     Node 128, Type 0, BuildingBlock: QUQFOY_clean_sbu_1, # of connection points: 4
#     Node 129, Type 0, BuildingBlock: QUQFOY_clean_sbu_1, # of connection points: 4
#     Node 130, Type 0, BuildingBlock: QUQFOY_clean_sbu_1, # of connection points: 4
#     Node 131, Type 0, BuildingBlock: QUQFOY_clean_sbu_1, # of connection points: 4
#     Node 132, Type 0, BuildingBlock: QUQFOY_clean_sbu_1, # of connection points: 4
#     Node 133, Type 0, BuildingBlock: QUQFOY_clean_sbu_1, # of connection points: 4
#     Node 134, Type 0, BuildingBlock: QUQFOY_clean_sbu_1, # of connection points: 4
#     Node 135, Type 0, BuildingBlock: QUQFOY_clean_sbu_1, # of connection points: 4
#     Node 136, Type 0, BuildingBlock: QUQFOY_clean_sbu_1, # of connection points: 4
#     Node 137, Type 0, BuildingBlock: QUQFOY_clean_sbu_1, # of connection points: 4
#     Node 138, Type 0, BuildingBlock: QUQFOY_clean_sbu_1, # of connection points: 4
#     Node 139, Type 0, BuildingBlock: QUQFOY_clean_sbu_1, # of connection points: 4
#     Node 140, Type 0, BuildingBlock: QUQFOY_clean_sbu_1, # of connection points: 4
#     Node 141, Type 0, BuildingBlock: QUQFOY_clean_sbu_1, # of connection points: 4
#     Node 142, Type 0, BuildingBlock: QUQFOY_clean_sbu_1, # of connection points: 4
#     Node 143, Type 0, BuildingBlock: QUQFOY_clean_sbu_1, # of connection points: 4
#     Node 144, Type 0, BuildingBlock: QUQFOY_clean_sbu_1, # of connection points: 4
#     Node 145, Type 0, BuildingBlock: QUQFOY_clean_sbu_1, # of connection points: 4
#     Node 146, Type 0, BuildingBlock: QUQFOY_clean_sbu_1, # of connection points: 4
#     Node 147, Type 0, BuildingBlock: QUQFOY_clean_sbu_1, # of connection points: 4
#     Node 148, Type 0, BuildingBlock: QUQFOY_clean_sbu_1, # of connection points: 4
#     Node 149, Type 0, BuildingBlock: QUQFOY_clean_sbu_1, # of connection points: 4
#     Node 150, Type 0, BuildingBlock: QUQFOY_clean_sbu_1, # of connection points: 4
#     Node 151, Type 0, BuildingBlock: QUQFOY_clean_sbu_1, # of connection points: 4
#     Node 152, Type 0, BuildingBlock: QUQFOY_clean_sbu_1, # of connection points: 4
#     Node 153, Type 0, BuildingBlock: QUQFOY_clean_sbu_1, # of connection points: 4
#     Node 154, Type 0, BuildingBlock: QUQFOY_clean_sbu_1, # of connection points: 4
#     Node 155, Type 0, BuildingBlock: QUQFOY_clean_sbu_1, # of connection points: 4
#     Node 156, Type 0, BuildingBlock: QUQFOY_clean_sbu_1, # of connection points: 4
#     Node 157, Type 0, BuildingBlock: QUQFOY_clean_sbu_1, # of connection points: 4
#     Node 158, Type 0, BuildingBlock: QUQFOY_clean_sbu_1, # of connection points: 4
#     Node 159, Type 0, BuildingBlock: QUQFOY_clean_sbu_1, # of connection points: 4
#     Node 160, Type 0, BuildingBlock: QUQFOY_clean_sbu_1, # of connection points: 4
#     Node 161, Type 0, BuildingBlock: QUQFOY_clean_sbu_1, # of connection points: 4
#     Node 162, Type 0, BuildingBlock: QUQFOY_clean_sbu_1, # of connection points: 4
#     Node 163, Type 0, BuildingBlock: QUQFOY_clean_sbu_1, # of connection points: 4
#     Node 164, Type 0, BuildingBlock: QUQFOY_clean_sbu_1, # of connection points: 4
#     Node 165, Type 0, BuildingBlock: QUQFOY_clean_sbu_1, # of connection points: 4
#     Node 166, Type 0, BuildingBlock: QUQFOY_clean_sbu_1, # of connection points: 4
#     Node 167, Type 0, BuildingBlock: QUQFOY_clean_sbu_1, # of connection points: 4
#     Node 168, Type 0, BuildingBlock: QUQFOY_clean_sbu_1, # of connection points: 4
#     Node 169, Type 0, BuildingBlock: QUQFOY_clean_sbu_1, # of connection points: 4
#     Node 170, Type 0, BuildingBlock: QUQFOY_clean_sbu_1, # of connection points: 4
#     Node 171, Type 0, BuildingBlock: QUQFOY_clean_sbu_1, # of connection points: 4
#     Node 172, Type 0, BuildingBlock: QUQFOY_clean_sbu_1, # of connection points: 4
#     Node 173, Type 0, BuildingBlock: QUQFOY_clean_sbu_1, # of connection points: 4
#     Node 174, Type 0, BuildingBlock: QUQFOY_clean_sbu_1, # of connection points: 4
#     Node 175, Type 0, BuildingBlock: QUQFOY_clean_sbu_1, # of connection points: 4
#     Node 176, Type 0, BuildingBlock: QUQFOY_clean_sbu_1, # of connection points: 4
#     Node 177, Type 0, BuildingBlock: QUQFOY_clean_sbu_1, # of connection points: 4
#     Node 178, Type 0, BuildingBlock: QUQFOY_clean_sbu_1, # of connection points: 4
#     Node 179, Type 0, BuildingBlock: QUQFOY_clean_sbu_1, # of connection points: 4
#     Node 180, Type 0, BuildingBlock: QUQFOY_clean_sbu_1, # of connection points: 4
#     Node 181, Type 0, BuildingBlock: QUQFOY_clean_sbu_1, # of connection points: 4
#     Node 182, Type 0, BuildingBlock: QUQFOY_clean_sbu_1, # of connection points: 4
#     Node 183, Type 0, BuildingBlock: QUQFOY_clean_sbu_1, # of connection points: 4
#     Node 184, Type 0, BuildingBlock: QUQFOY_clean_sbu_1, # of connection points: 4
#     Node 185, Type 0, BuildingBlock: QUQFOY_clean_sbu_1, # of connection points: 4
#     Node 186, Type 0, BuildingBlock: QUQFOY_clean_sbu_1, # of connection points: 4
#     Node 187, Type 0, BuildingBlock: QUQFOY_clean_sbu_1, # of connection points: 4
#     Node 188, Type 0, BuildingBlock: QUQFOY_clean_sbu_1, # of connection points: 4
#     Node 189, Type 0, BuildingBlock: QUQFOY_clean_sbu_1, # of connection points: 4
#     Node 190, Type 0, BuildingBlock: QUQFOY_clean_sbu_1, # of connection points: 4
#     Node 191, Type 0, BuildingBlock: QUQFOY_clean_sbu_1, # of connection points: 4
#     Edge 192, Type (0, 0), None
#     Edge 193, Type (0, 0), None
#     Edge 194, Type (0, 0), None
#     Edge 195, Type (0, 0), None
#     Edge 196, Type (0, 0), None
#     Edge 197, Type (0, 0), None
#     Edge 198, Type (0, 0), None
#     Edge 199, Type (0, 0), None
#     Edge 200, Type (0, 0), None
#     Edge 201, Type (0, 0), None
#     Edge 202, Type (0, 0), None
#     Edge 203, Type (0, 0), None
#     Edge 204, Type (0, 0), None
#     Edge 205, Type (0, 0), None
#     Edge 206, Type (0, 0), None
#     Edge 207, Type (0, 0), None
#     Edge 208, Type (0, 0), None
#     Edge 209, Type (0, 0), None
#     Edge 210, Type (0, 0), None
#     Edge 211, Type (0, 0), None
#     Edge 212, Type (0, 0), None
#     Edge 213, Type (0, 0), None
#     Edge 214, Type (0, 0), None
#     Edge 215, Type (0, 0), None
#     Edge 216, Type (0, 0), None
#     Edge 217, Type (0, 0), None
#     Edge 218, Type (0, 0), None
#     Edge 219, Type (0, 0), None
#     Edge 220, Type (0, 0), None
#     Edge 221, Type (0, 0), None
#     Edge 222, Type (0, 0), None
#     Edge 223, Type (0, 0), None
#     Edge 224, Type (0, 0), None
#     Edge 225, Type (0, 0), None
#     Edge 226, Type (0, 0), None
#     Edge 227, Type (0, 0), None
#     Edge 228, Type (0, 0), None
#     Edge 229, Type (0, 0), None
#     Edge 230, Type (0, 0), None
#     Edge 231, Type (0, 0), None
#     Edge 232, Type (0, 0), None
#     Edge 233, Type (0, 0), None
#     Edge 234, Type (0, 0), None
#     Edge 235, Type (0, 0), None
#     Edge 236, Type (0, 0), None
#     Edge 237, Type (0, 0), None
#     Edge 238, Type (0, 0), None
#     Edge 239, Type (0, 0), None
#     Edge 240, Type (0, 0), None
#     Edge 241, Type (0, 0), None
#     Edge 242, Type (0, 0), None
#     Edge 243, Type (0, 0), None
#     Edge 244, Type (0, 0), None
#     Edge 245, Type (0, 0), None
#     Edge 246, Type (0, 0), None
#     Edge 247, Type (0, 0), None
#     Edge 248, Type (0, 0), None
#     Edge 249, Type (0, 0), None
#     Edge 250, Type (0, 0), None
#     Edge 251, Type (0, 0), None
#     Edge 252, Type (0, 0), None
#     Edge 253, Type (0, 0), None
#     Edge 254, Type (0, 0), None
#     Edge 255, Type (0, 0), None
#     Edge 256, Type (0, 0), None
#     Edge 257, Type (0, 0), None
#     Edge 258, Type (0, 0), None
#     Edge 259, Type (0, 0), None
#     Edge 260, Type (0, 0), None
#     Edge 261, Type (0, 0), None
#     Edge 262, Type (0, 0), None
#     Edge 263, Type (0, 0), None
#     Edge 264, Type (0, 0), None
#     Edge 265, Type (0, 0), None
#     Edge 266, Type (0, 0), None
#     Edge 267, Type (0, 0), None
#     Edge 268, Type (0, 0), None
#     Edge 269, Type (0, 0), None
#     Edge 270, Type (0, 0), None
#     Edge 271, Type (0, 0), None
#     Edge 272, Type (0, 0), None
#     Edge 273, Type (0, 0), None
#     Edge 274, Type (0, 0), None
#     Edge 275, Type (0, 0), None
#     Edge 276, Type (0, 0), None
#     Edge 277, Type (0, 0), None
#     Edge 278, Type (0, 0), None
#     Edge 279, Type (0, 0), None
#     Edge 280, Type (0, 0), None
#     Edge 281, Type (0, 0), None
#     Edge 282, Type (0, 0), None
#     Edge 283, Type (0, 0), None
#     Edge 284, Type (0, 0), None
#     Edge 285, Type (0, 0), None
#     Edge 286, Type (0, 0), None
#     Edge 287, Type (0, 0), None
#     Edge 288, Type (0, 0), None
#     Edge 289, Type (0, 0), None
#     Edge 290, Type (0, 0), None
#     Edge 291, Type (0, 0), None
#     Edge 292, Type (0, 0), None
#     Edge 293, Type (0, 0), None
#     Edge 294, Type (0, 0), None
#     Edge 295, Type (0, 0), None
#     Edge 296, Type (0, 0), None
#     Edge 297, Type (0, 0), None
#     Edge 298, Type (0, 0), None
#     Edge 299, Type (0, 0), None
#     Edge 300, Type (0, 0), None
#     Edge 301, Type (0, 0), None
#     Edge 302, Type (0, 0), None
#     Edge 303, Type (0, 0), None
#     Edge 304, Type (0, 0), None
#     Edge 305, Type (0, 0), None
#     Edge 306, Type (0, 0), None
#     Edge 307, Type (0, 0), None
#     Edge 308, Type (0, 0), None
#     Edge 309, Type (0, 0), None
#     Edge 310, Type (0, 0), None
#     Edge 311, Type (0, 0), None
#     Edge 312, Type (0, 0), None
#     Edge 313, Type (0, 0), None
#     Edge 314, Type (0, 0), None
#     Edge 315, Type (0, 0), None
#     Edge 316, Type (0, 0), None
#     Edge 317, Type (0, 0), None
#     Edge 318, Type (0, 0), None
#     Edge 319, Type (0, 0), None
#     Edge 320, Type (0, 0), None
#     Edge 321, Type (0, 0), None
#     Edge 322, Type (0, 0), None
#     Edge 323, Type (0, 0), None
#     Edge 324, Type (0, 0), None
#     Edge 325, Type (0, 0), None
#     Edge 326, Type (0, 0), None
#     Edge 327, Type (0, 0), None
#     Edge 328, Type (0, 0), None
#     Edge 329, Type (0, 0), None
#     Edge 330, Type (0, 0), None
#     Edge 331, Type (0, 0), None
#     Edge 332, Type (0, 0), None
#     Edge 333, Type (0, 0), None
#     Edge 334, Type (0, 0), None
#     Edge 335, Type (0, 0), None
#     Edge 336, Type (0, 0), None
#     Edge 337, Type (0, 0), None
#     Edge 338, Type (0, 0), None
#     Edge 339, Type (0, 0), None
#     Edge 340, Type (0, 0), None
#     Edge 341, Type (0, 0), None
#     Edge 342, Type (0, 0), None
#     Edge 343, Type (0, 0), None
#     Edge 344, Type (0, 0), None
#     Edge 345, Type (0, 0), None
#     Edge 346, Type (0, 0), None
#     Edge 347, Type (0, 0), None
#     Edge 348, Type (0, 0), None
#     Edge 349, Type (0, 0), None
#     Edge 350, Type (0, 0), None
#     Edge 351, Type (0, 0), None
#     Edge 352, Type (0, 0), None
#     Edge 353, Type (0, 0), None
#     Edge 354, Type (0, 0), None
#     Edge 355, Type (0, 0), None
#     Edge 356, Type (0, 0), None
#     Edge 357, Type (0, 0), None
#     Edge 358, Type (0, 0), None
#     Edge 359, Type (0, 0), None
#     Edge 360, Type (0, 0), None
#     Edge 361, Type (0, 0), None
#     Edge 362, Type (0, 0), None
#     Edge 363, Type (0, 0), None
#     Edge 364, Type (0, 0), None
#     Edge 365, Type (0, 0), None
#     Edge 366, Type (0, 0), None
#     Edge 367, Type (0, 0), None
#     Edge 368, Type (0, 0), None
#     Edge 369, Type (0, 0), None
#     Edge 370, Type (0, 0), None
#     Edge 371, Type (0, 0), None
#     Edge 372, Type (0, 0), None
#     Edge 373, Type (0, 0), None
#     Edge 374, Type (0, 0), None
#     Edge 375, Type (0, 0), None
#     Edge 376, Type (0, 0), None
#     Edge 377, Type (0, 0), None
#     Edge 378, Type (0, 0), None
#     Edge 379, Type (0, 0), None
#     Edge 380, Type (0, 0), None
#     Edge 381, Type (0, 0), None
#     Edge 382, Type (0, 0), None
#     Edge 383, Type (0, 0), None
#     Edge 384, Type (0, 0), None
#     Edge 385, Type (0, 0), None
#     Edge 386, Type (0, 0), None
#     Edge 387, Type (0, 0), None
#     Edge 388, Type (0, 0), None
#     Edge 389, Type (0, 0), None
#     Edge 390, Type (0, 0), None
#     Edge 391, Type (0, 0), None
#     Edge 392, Type (0, 0), None
#     Edge 393, Type (0, 0), None
#     Edge 394, Type (0, 0), None
#     Edge 395, Type (0, 0), None
#     Edge 396, Type (0, 0), None
#     Edge 397, Type (0, 0), None
#     Edge 398, Type (0, 0), None
#     Edge 399, Type (0, 0), None
#     Edge 400, Type (0, 0), None
#     Edge 401, Type (0, 0), None
#     Edge 402, Type (0, 0), None
#     Edge 403, Type (0, 0), None
#     Edge 404, Type (0, 0), None
#     Edge 405, Type (0, 0), None
#     Edge 406, Type (0, 0), None
#     Edge 407, Type (0, 0), None
#     Edge 408, Type (0, 0), None
#     Edge 409, Type (0, 0), None
#     Edge 410, Type (0, 0), None
#     Edge 411, Type (0, 0), None
#     Edge 412, Type (0, 0), None
#     Edge 413, Type (0, 0), None
#     Edge 414, Type (0, 0), None
#     Edge 415, Type (0, 0), None
#     Edge 416, Type (0, 0), None
#     Edge 417, Type (0, 0), None
#     Edge 418, Type (0, 0), None
#     Edge 419, Type (0, 0), None
#     Edge 420, Type (0, 0), None
#     Edge 421, Type (0, 0), None
#     Edge 422, Type (0, 0), None
#     Edge 423, Type (0, 0), None
#     Edge 424, Type (0, 0), None
#     Edge 425, Type (0, 0), None
#     Edge 426, Type (0, 0), None
#     Edge 427, Type (0, 0), None
#     Edge 428, Type (0, 0), None
#     Edge 429, Type (0, 0), None
#     Edge 430, Type (0, 0), None
#     Edge 431, Type (0, 0), None
#     Edge 432, Type (0, 0), None
#     Edge 433, Type (0, 0), None
#     Edge 434, Type (0, 0), None
#     Edge 435, Type (0, 0), None
#     Edge 436, Type (0, 0), None
#     Edge 437, Type (0, 0), None
#     Edge 438, Type (0, 0), None
#     Edge 439, Type (0, 0), None
#     Edge 440, Type (0, 0), None
#     Edge 441, Type (0, 0), None
#     Edge 442, Type (0, 0), None
#     Edge 443, Type (0, 0), None
#     Edge 444, Type (0, 0), None
#     Edge 445, Type (0, 0), None
#     Edge 446, Type (0, 0), None
#     Edge 447, Type (0, 0), None
#     Edge 448, Type (0, 0), None
#     Edge 449, Type (0, 0), None
#     Edge 450, Type (0, 0), None
#     Edge 451, Type (0, 0), None
#     Edge 452, Type (0, 0), None
#     Edge 453, Type (0, 0), None
#     Edge 454, Type (0, 0), None
#     Edge 455, Type (0, 0), None
#     Edge 456, Type (0, 0), None
#     Edge 457, Type (0, 0), None
#     Edge 458, Type (0, 0), None
#     Edge 459, Type (0, 0), None
#     Edge 460, Type (0, 0), None
#     Edge 461, Type (0, 0), None
#     Edge 462, Type (0, 0), None
#     Edge 463, Type (0, 0), None
#     Edge 464, Type (0, 0), None
#     Edge 465, Type (0, 0), None
#     Edge 466, Type (0, 0), None
#     Edge 467, Type (0, 0), None
#     Edge 468, Type (0, 0), None
#     Edge 469, Type (0, 0), None
#     Edge 470, Type (0, 0), None
#     Edge 471, Type (0, 0), None
#     Edge 472, Type (0, 0), None
#     Edge 473, Type (0, 0), None
#     Edge 474, Type (0, 0), None
#     Edge 475, Type (0, 0), None
#     Edge 476, Type (0, 0), None
#     Edge 477, Type (0, 0), None
#     Edge 478, Type (0, 0), None
#     Edge 479, Type (0, 0), None
#     Edge 480, Type (0, 0), None
#     Edge 481, Type (0, 0), None
#     Edge 482, Type (0, 0), None
#     Edge 483, Type (0, 0), None
#     Edge 484, Type (0, 0), None
#     Edge 485, Type (0, 0), None
#     Edge 486, Type (0, 0), None
#     Edge 487, Type (0, 0), None
#     Edge 488, Type (0, 0), None
#     Edge 489, Type (0, 0), None
#     Edge 490, Type (0, 0), None
#     Edge 491, Type (0, 0), None
#     Edge 492, Type (0, 0), None
#     Edge 493, Type (0, 0), None
#     Edge 494, Type (0, 0), None
#     Edge 495, Type (0, 0), None
#     Edge 496, Type (0, 0), None
#     Edge 497, Type (0, 0), None
#     Edge 498, Type (0, 0), None
#     Edge 499, Type (0, 0), None
#     Edge 500, Type (0, 0), None
#     Edge 501, Type (0, 0), None
#     Edge 502, Type (0, 0), None
#     Edge 503, Type (0, 0), None
#     Edge 504, Type (0, 0), None
#     Edge 505, Type (0, 0), None
#     Edge 506, Type (0, 0), None
#     Edge 507, Type (0, 0), None
#     Edge 508, Type (0, 0), None
#     Edge 509, Type (0, 0), None
#     Edge 510, Type (0, 0), None
#     Edge 511, Type (0, 0), None
#     Edge 512, Type (0, 0), None
#     Edge 513, Type (0, 0), None
#     Edge 514, Type (0, 0), None
#     Edge 515, Type (0, 0), None
#     Edge 516, Type (0, 0), None
#     Edge 517, Type (0, 0), None
#     Edge 518, Type (0, 0), None
#     Edge 519, Type (0, 0), None
#     Edge 520, Type (0, 0), None
#     Edge 521, Type (0, 0), None
#     Edge 522, Type (0, 0), None
#     Edge 523, Type (0, 0), None
#     Edge 524, Type (0, 0), None
#     Edge 525, Type (0, 0), None
#     Edge 526, Type (0, 0), None
#     Edge 527, Type (0, 0), None
#     Edge 528, Type (0, 0), None
#     Edge 529, Type (0, 0), None
#     Edge 530, Type (0, 0), None
#     Edge 531, Type (0, 0), None
#     Edge 532, Type (0, 0), None
#     Edge 533, Type (0, 0), None
#     Edge 534, Type (0, 0), None
#     Edge 535, Type (0, 0), None
#     Edge 536, Type (0, 0), None
#     Edge 537, Type (0, 0), None
#     Edge 538, Type (0, 0), None
#     Edge 539, Type (0, 0), None
#     Edge 540, Type (0, 0), None
#     Edge 541, Type (0, 0), None
#     Edge 542, Type (0, 0), None
#     Edge 543, Type (0, 0), None
#     Edge 544, Type (0, 0), None
#     Edge 545, Type (0, 0), None
#     Edge 546, Type (0, 0), None
#     Edge 547, Type (0, 0), None
#     Edge 548, Type (0, 0), None
#     Edge 549, Type (0, 0), None
#     Edge 550, Type (0, 0), None
#     Edge 551, Type (0, 0), None
#     Edge 552, Type (0, 0), None
#     Edge 553, Type (0, 0), None
#     Edge 554, Type (0, 0), None
#     Edge 555, Type (0, 0), None
#     Edge 556, Type (0, 0), None
#     Edge 557, Type (0, 0), None
#     Edge 558, Type (0, 0), None
#     Edge 559, Type (0, 0), None
#     Edge 560, Type (0, 0), None
#     Edge 561, Type (0, 0), None
#     Edge 562, Type (0, 0), None
#     Edge 563, Type (0, 0), None
#     Edge 564, Type (0, 0), None
#     Edge 565, Type (0, 0), None
#     Edge 566, Type (0, 0), None
#     Edge 567, Type (0, 0), None
#     Edge 568, Type (0, 0), None
#     Edge 569, Type (0, 0), None
#     Edge 570, Type (0, 0), None
#     Edge 571, Type (0, 0), None
#     Edge 572, Type (0, 0), None
#     Edge 573, Type (0, 0), None
#     Edge 574, Type (0, 0), None
#     Edge 575, Type (0, 0), None
# Relax obj value: 0.063
# Max RMSD: 0.092
# Mean RMSD: 0.092
data_MOF--net-fau--node1-QUQFOY_clean_sbu_1--edge1-none
_symmetry_space_group_name_H-M    P1
_symmetry_Int_Tables_number       1
_symmetry_cell_setting            triclinic
loop_
_symmetry_equiv_pos_as_xyz
'x, y, z'
_cell_length_a     58.627195
_cell_length_b     58.627867
_cell_length_c     58.627411
_cell_angle_alpha  89.999995
_cell_angle_beta   89.999989
_cell_angle_gamma 89.999987
loop_
_atom_site_label
_atom_site_type_symbol
_atom_site_fract_x
_atom_site_fract_y
_atom_site_fract_z
_atom_type_partial_charge
O0 O 0.01968 0.10336 0.43721 0.0
Cd1 Cd 0.03803 0.11639 0.46431 0.0
Cd2 Cd 0.0556 0.13709 0.42541 0.0
O3 O 0.02569 0.12757 0.409 0.0
O4 O 0.02234 0.0997 0.48952 0.0
O5 O 0.0215 0.13716 0.48697 0.0
C6 C 0.01488 0.11882 0.49714 0.0
C7 C 0.0745 0.17192 0.42233 0.0
C8 C 0.01532 0.11037 0.41716 0.0
C9 C 0.08308 0.10077 0.44969 0.0
O10 O 0.0783 0.1107 0.43102 0.0
O11 O 0.07072 0.10374 0.46724 0.0
O12 O 0.07311 0.15811 0.40527 0.0
O13 O 0.06323 0.16701 0.44063 0.0
O14 O 0.91079 0.26967 0.68721 0.0
Cd15 Cd 0.89775 0.28802 0.71431 0.0
Cd16 Cd 0.87705 0.30559 0.67541 0.0
O17 O 0.88657 0.27568 0.659 0.0
O18 O 0.91445 0.27233 0.73952 0.0
O19 O 0.87699 0.27149 0.73697 0.0
C20 C 0.89533 0.26488 0.74714 0.0
C21 C 0.84223 0.32449 0.67233 0.0
C22 C 0.90378 0.26531 0.66716 0.0
C23 C 0.91337 0.33308 0.69969 0.0
O24 O 0.90345 0.32829 0.68102 0.0
O25 O 0.91041 0.32071 0.71724 0.0
O26 O 0.85604 0.32311 0.65527 0.0
O27 O 0.84713 0.31322 0.69063 0.0
O28 O 0.74447 0.16078 0.93721 0.0
Cd29 Cd 0.72613 0.14775 0.96431 0.0
Cd30 Cd 0.70855 0.12705 0.92541 0.0
O31 O 0.73847 0.13657 0.909 0.0
O32 O 0.74181 0.16445 0.98952 0.0
O33 O 0.74266 0.12698 0.98697 0.0
C34 C 0.74927 0.14533 0.99714 0.0
C35 C 0.68966 0.09222 0.92233 0.0
C36 C 0.74884 0.15378 0.91716 0.0
C37 C 0.68107 0.16337 0.94969 0.0
O38 O 0.68586 0.15344 0.93102 0.0
O39 O 0.69343 0.1604 0.96724 0.0
O40 O 0.69104 0.10603 0.90527 0.0
O41 O 0.70093 0.09713 0.94063 0.0
O42 O 0.85337 0.99447 0.18721 0.0
Cd43 Cd 0.8664 0.97612 0.21431 0.0
Cd44 Cd 0.8871 0.95855 0.17541 0.0
O45 O 0.87758 0.98846 0.159 0.0
O46 O 0.8497 0.99181 0.23952 0.0
O47 O 0.88717 0.99265 0.23697 0.0
C48 C 0.86882 0.99927 0.24714 0.0
C49 C 0.92192 0.93965 0.17233 0.0
C50 C 0.86037 0.99883 0.16716 0.0
C51 C 0.85078 0.93107 0.19969 0.0
O52 O 0.86071 0.93585 0.18102 0.0
O53 O 0.85375 0.94343 0.21724 0.0
O54 O 0.90811 0.94103 0.15527 0.0
O55 O 0.91702 0.95092 0.19063 0.0
O56 O 0.01968 0.16078 0.82694 0.0
Cd57 Cd 0.03803 0.14775 0.79984 0.0
Cd58 Cd 0.0556 0.12705 0.83874 0.0
O59 O 0.02569 0.13657 0.85515 0.0
O60 O 0.02234 0.16445 0.77463 0.0
O61 O 0.0215 0.12698 0.77718 0.0
C62 C 0.01488 0.14533 0.76701 0.0
C63 C 0.0745 0.09222 0.84182 0.0
C64 C 0.01532 0.15378 0.84699 0.0
C65 C 0.08308 0.16337 0.81446 0.0
O66 O 0.0783 0.15344 0.83313 0.0
O67 O 0.07072 0.1604 0.79691 0.0
O68 O 0.07311 0.10603 0.85888 0.0
O69 O 0.06323 0.09713 0.82352 0.0
O70 O 0.85337 0.26967 0.07694 0.0
Cd71 Cd 0.8664 0.28802 0.04984 0.0
Cd72 Cd 0.8871 0.30559 0.08874 0.0
O73 O 0.87758 0.27568 0.10515 0.0
O74 O 0.8497 0.27233 0.02463 0.0
O75 O 0.88717 0.27149 0.02718 0.0
C76 C 0.86882 0.26488 0.01701 0.0
C77 C 0.92192 0.32449 0.09182 0.0
C78 C 0.86037 0.26531 0.09699 0.0
C79 C 0.85078 0.33308 0.06446 0.0
O80 O 0.86071 0.32829 0.08313 0.0
O81 O 0.85375 0.32071 0.04691 0.0
O82 O 0.90811 0.32311 0.10888 0.0
O83 O 0.91702 0.31322 0.07352 0.0
O84 O 0.74447 0.10336 0.32694 0.0
Cd85 Cd 0.72613 0.11639 0.29984 0.0
Cd86 Cd 0.70855 0.13709 0.33874 0.0
O87 O 0.73847 0.12757 0.35515 0.0
O88 O 0.74181 0.0997 0.27463 0.0
O89 O 0.74266 0.13716 0.27718 0.0
C90 C 0.74927 0.11882 0.26701 0.0
C91 C 0.68966 0.17192 0.34182 0.0
C92 C 0.74884 0.11037 0.34699 0.0
C93 C 0.68107 0.10077 0.31446 0.0
O94 O 0.68586 0.1107 0.33313 0.0
O95 O 0.69343 0.10374 0.29691 0.0
O96 O 0.69104 0.15811 0.35888 0.0
O97 O 0.70093 0.16701 0.32352 0.0
O98 O 0.91079 0.99447 0.57694 0.0
Cd99 Cd 0.89775 0.97612 0.54984 0.0
Cd100 Cd 0.87705 0.95855 0.58875 0.0
O101 O 0.88657 0.98846 0.60515 0.0
O102 O 0.91445 0.99181 0.52463 0.0
O103 O 0.87699 0.99265 0.52718 0.0
C104 C 0.89533 0.99927 0.51701 0.0
C105 C 0.84223 0.93965 0.59182 0.0
C106 C 0.90378 0.99883 0.59699 0.0
C107 C 0.91337 0.93107 0.56446 0.0
O108 O 0.90345 0.93585 0.58313 0.0
O109 O 0.91041 0.94343 0.54691 0.0
O110 O 0.85604 0.94104 0.60888 0.0
O111 O 0.84713 0.95092 0.57352 0.0
O112 O 0.43102 0.07829 0.1107 0.0
Cd113 Cd 0.42541 0.05559 0.1371 0.0
Cd114 Cd 0.46431 0.03802 0.1164 0.0
O115 O 0.46724 0.07071 0.10375 0.0
O116 O 0.40527 0.07311 0.15811 0.0
O117 O 0.44064 0.06322 0.16702 0.0
C118 C 0.42233 0.07449 0.17192 0.0
C119 C 0.49714 0.01488 0.11882 0.0
C120 C 0.4497 0.08308 0.10078 0.0
C121 C 0.41716 0.01531 0.11037 0.0
O122 O 0.43721 0.01967 0.10336 0.0
O123 O 0.40901 0.02568 0.12758 0.0
O124 O 0.48952 0.02233 0.0997 0.0
O125 O 0.48697 0.02149 0.13717 0.0
O126 O 0.99447 0.6872 0.35336 0.0
Cd127 Cd 0.97613 0.71431 0.3664 0.0
Cd128 Cd 0.95855 0.6754 0.3871 0.0
O129 O 0.98847 0.659 0.37758 0.0
O130 O 0.99181 0.73952 0.3497 0.0
O131 O 0.99266 0.73697 0.38716 0.0
C132 C 0.99927 0.74714 0.36882 0.0
C133 C 0.93966 0.67233 0.42192 0.0
C134 C 0.99884 0.66715 0.36037 0.0
C135 C 0.93107 0.69969 0.35078 0.0
O136 O 0.93586 0.68102 0.3607 0.0
O137 O 0.94343 0.71724 0.35374 0.0
O138 O 0.94104 0.65527 0.40811 0.0
O139 O 0.95093 0.69063 0.41702 0.0
O140 O 0.33313 0.18585 0.61071 0.0
Cd141 Cd 0.33875 0.20855 0.6371 0.0
Cd142 Cd 0.29984 0.22612 0.6164 0.0
O143 O 0.29691 0.19343 0.60375 0.0
O144 O 0.35888 0.19104 0.65811 0.0
O145 O 0.32352 0.20092 0.66702 0.0
C146 C 0.34182 0.18965 0.67192 0.0
C147 C 0.26701 0.24927 0.61882 0.0
C148 C 0.31446 0.18107 0.60078 0.0
C149 C 0.347 0.24883 0.61037 0.0
O150 O 0.32695 0.24447 0.60336 0.0
O151 O 0.35515 0.23846 0.62758 0.0
O152 O 0.27463 0.24181 0.5997 0.0
O153 O 0.27718 0.24265 0.63716 0.0
O154 O 0.76968 0.57694 0.85336 0.0
Cd155 Cd 0.78803 0.54983 0.8664 0.0
Cd156 Cd 0.8056 0.58874 0.8871 0.0
O157 O 0.77569 0.60514 0.87758 0.0
O158 O 0.77234 0.52463 0.8497 0.0
O159 O 0.77149 0.52718 0.88716 0.0
C160 C 0.76488 0.517 0.86882 0.0
C161 C 0.8245 0.59182 0.92192 0.0
C162 C 0.76532 0.59699 0.86037 0.0
C163 C 0.83308 0.56445 0.85078 0.0
O164 O 0.8283 0.58313 0.8607 0.0
O165 O 0.82072 0.5469 0.85374 0.0
O166 O 0.82311 0.60888 0.90811 0.0
O167 O 0.81323 0.57351 0.91702 0.0
O168 O 0.43102 0.18585 0.15345 0.0
Cd169 Cd 0.42541 0.20855 0.12705 0.0
Cd170 Cd 0.46431 0.22612 0.14775 0.0
O171 O 0.46724 0.19343 0.1604 0.0
O172 O 0.40527 0.19103 0.10604 0.0
O173 O 0.44064 0.20092 0.09713 0.0
C174 C 0.42233 0.18965 0.09223 0.0
C175 C 0.49714 0.24927 0.14533 0.0
C176 C 0.4497 0.18107 0.16337 0.0
C177 C 0.41716 0.24883 0.15378 0.0
O178 O 0.43721 0.24447 0.16079 0.0
O179 O 0.40901 0.23846 0.13657 0.0
O180 O 0.48952 0.24181 0.16445 0.0
O181 O 0.48697 0.24265 0.12699 0.0
O182 O 0.76968 0.6872 0.41079 0.0
Cd183 Cd 0.78803 0.71431 0.39775 0.0
Cd184 Cd 0.8056 0.6754 0.37705 0.0
O185 O 0.77569 0.659 0.38657 0.0
O186 O 0.77234 0.73952 0.41445 0.0
O187 O 0.7715 0.73697 0.37699 0.0
C188 C 0.76488 0.74714 0.39533 0.0
C189 C 0.8245 0.67233 0.34223 0.0
C190 C 0.76532 0.66715 0.40378 0.0
C191 C 0.83308 0.69969 0.41337 0.0
O192 O 0.8283 0.68102 0.40345 0.0
O193 O 0.82072 0.71724 0.41041 0.0
O194 O 0.82311 0.65527 0.35604 0.0
O195 O 0.81323 0.69063 0.34713 0.0
O196 O 0.33313 0.07829 0.65345 0.0
Cd197 Cd 0.33875 0.05559 0.62705 0.0
Cd198 Cd 0.29984 0.03802 0.64775 0.0
O199 O 0.29691 0.07071 0.66041 0.0
O200 O 0.35888 0.07311 0.60604 0.0
O201 O 0.32352 0.06322 0.59713 0.0
C202 C 0.34182 0.07449 0.59223 0.0
C203 C 0.26701 0.01488 0.64533 0.0
C204 C 0.31446 0.08308 0.66337 0.0
C205 C 0.347 0.01531 0.65378 0.0
O206 O 0.32695 0.01967 0.66079 0.0
O207 O 0.35515 0.02568 0.63657 0.0
O208 O 0.27463 0.02233 0.66445 0.0
O209 O 0.27718 0.02149 0.62699 0.0
O210 O 0.99447 0.57694 0.91079 0.0
Cd211 Cd 0.97613 0.54983 0.89775 0.0
Cd212 Cd 0.95855 0.58874 0.87705 0.0
O213 O 0.98847 0.60514 0.88657 0.0
O214 O 0.99181 0.52463 0.91445 0.0
O215 O 0.99266 0.52717 0.87699 0.0
C216 C 0.99927 0.517 0.89533 0.0
C217 C 0.93966 0.59182 0.84223 0.0
C218 C 0.99884 0.59699 0.90378 0.0
C219 C 0.93107 0.56445 0.91337 0.0
O220 O 0.93586 0.58313 0.90345 0.0
O221 O 0.94343 0.5469 0.91041 0.0
O222 O 0.94104 0.60888 0.85604 0.0
O223 O 0.95093 0.57351 0.84713 0.0
O224 O 0.10337 0.4372 0.01968 0.0
Cd225 Cd 0.1164 0.46431 0.03803 0.0
Cd226 Cd 0.1371 0.4254 0.0556 0.0
O227 O 0.12758 0.409 0.02568 0.0
O228 O 0.0997 0.48952 0.02234 0.0
O229 O 0.13717 0.48697 0.02149 0.0
C230 C 0.11882 0.49714 0.01488 0.0
C231 C 0.17193 0.42233 0.0745 0.0
C232 C 0.11037 0.41715 0.01532 0.0
C233 C 0.10078 0.44969 0.08308 0.0
O234 O 0.11071 0.43102 0.0783 0.0
O235 O 0.10375 0.46724 0.07072 0.0
O236 O 0.15811 0.40527 0.07311 0.0
O237 O 0.16702 0.44063 0.06322 0.0
O238 O 0.60337 0.32694 0.24447 0.0
Cd239 Cd 0.6164 0.29983 0.22613 0.0
Cd240 Cd 0.6371 0.33874 0.20855 0.0
O241 O 0.62758 0.35514 0.23847 0.0
O242 O 0.5997 0.27463 0.24181 0.0
O243 O 0.63717 0.27717 0.24266 0.0
C244 C 0.61882 0.267 0.24927 0.0
C245 C 0.67193 0.34182 0.18966 0.0
C246 C 0.61037 0.34699 0.24883 0.0
C247 C 0.60078 0.31445 0.18107 0.0
O248 O 0.61071 0.33313 0.18585 0.0
O249 O 0.60375 0.2969 0.19343 0.0
O250 O 0.65811 0.35888 0.19104 0.0
O251 O 0.66702 0.32351 0.20093 0.0
O252 O 0.68102 0.8607 0.43585 0.0
Cd253 Cd 0.67541 0.88709 0.45855 0.0
Cd254 Cd 0.71432 0.86639 0.47612 0.0
O255 O 0.71724 0.85374 0.44343 0.0
O256 O 0.65527 0.90811 0.44104 0.0
O257 O 0.69064 0.91701 0.45093 0.0
C258 C 0.67233 0.92192 0.43966 0.0
C259 C 0.74714 0.86882 0.49927 0.0
C260 C 0.6997 0.85077 0.43107 0.0
C261 C 0.66716 0.86037 0.49883 0.0
O262 O 0.68721 0.85336 0.49447 0.0
O263 O 0.65901 0.87757 0.48847 0.0
O264 O 0.73952 0.8497 0.49181 0.0
O265 O 0.73697 0.88716 0.49266 0.0
O266 O 0.16079 0.9372 0.74447 0.0
Cd267 Cd 0.14775 0.96431 0.72613 0.0
Cd268 Cd 0.12705 0.9254 0.70855 0.0
O269 O 0.13657 0.909 0.73847 0.0
O270 O 0.16445 0.98952 0.74181 0.0
O271 O 0.12699 0.98697 0.74266 0.0
C272 C 0.14533 0.99714 0.74927 0.0
C273 C 0.09223 0.92233 0.68966 0.0
C274 C 0.15378 0.91715 0.74883 0.0
C275 C 0.16337 0.94969 0.68107 0.0
O276 O 0.15345 0.93102 0.68585 0.0
O277 O 0.16041 0.96724 0.69343 0.0
O278 O 0.10604 0.90527 0.69104 0.0
O279 O 0.09713 0.94063 0.70093 0.0
O280 O 0.58313 0.40344 0.43585 0.0
Cd281 Cd 0.58875 0.37705 0.45855 0.0
Cd282 Cd 0.54984 0.39775 0.47612 0.0
O283 O 0.54691 0.4104 0.44343 0.0
O284 O 0.60888 0.35603 0.44104 0.0
O285 O 0.57352 0.34713 0.45093 0.0
C286 C 0.59182 0.34222 0.43966 0.0
C287 C 0.51701 0.39533 0.49927 0.0
C288 C 0.56446 0.41337 0.43107 0.0
C289 C 0.597 0.40378 0.49883 0.0
O290 O 0.57695 0.41078 0.49447 0.0
O291 O 0.60515 0.38657 0.48847 0.0
O292 O 0.52463 0.41445 0.49181 0.0
O293 O 0.52718 0.37698 0.49266 0.0
O294 O 0.16079 0.82694 0.01968 0.0
Cd295 Cd 0.14775 0.79983 0.03802 0.0
Cd296 Cd 0.12705 0.83874 0.0556 0.0
O297 O 0.13657 0.85514 0.02568 0.0
O298 O 0.16445 0.77463 0.02234 0.0
O299 O 0.12699 0.77717 0.02149 0.0
C300 C 0.14533 0.767 0.01488 0.0
C301 C 0.09223 0.84182 0.0745 0.0
C302 C 0.15378 0.84699 0.01532 0.0
C303 C 0.16337 0.81445 0.08308 0.0
O304 O 0.15345 0.83313 0.0783 0.0
O305 O 0.16041 0.7969 0.07072 0.0
O306 O 0.10604 0.85888 0.07311 0.0
O307 O 0.09713 0.82351 0.06322 0.0
O308 O 0.68102 0.90344 0.3283 0.0
Cd309 Cd 0.67541 0.87705 0.3056 0.0
Cd310 Cd 0.71432 0.89775 0.28803 0.0
O311 O 0.71724 0.9104 0.32072 0.0
O312 O 0.65527 0.85603 0.32311 0.0
O313 O 0.69064 0.84713 0.31322 0.0
C314 C 0.67233 0.84222 0.32449 0.0
C315 C 0.74714 0.89533 0.26488 0.0
C316 C 0.69969 0.91337 0.33308 0.0
C317 C 0.66716 0.90378 0.26532 0.0
O318 O 0.68721 0.91078 0.26968 0.0
O319 O 0.65901 0.88657 0.27568 0.0
O320 O 0.73952 0.91445 0.27234 0.0
O321 O 0.73697 0.87698 0.27149 0.0
O322 O 0.08313 0.3607 0.8283 0.0
Cd323 Cd 0.08875 0.38709 0.8056 0.0
Cd324 Cd 0.04984 0.36639 0.78803 0.0
O325 O 0.04691 0.35374 0.82072 0.0
O326 O 0.10888 0.40811 0.82311 0.0
O327 O 0.07352 0.41701 0.81322 0.0
C328 C 0.09182 0.42192 0.82449 0.0
C329 C 0.01701 0.36882 0.76488 0.0
C330 C 0.06446 0.35077 0.83308 0.0
C331 C 0.097 0.36037 0.76532 0.0
O332 O 0.07695 0.35336 0.76968 0.0
O333 O 0.10515 0.37757 0.77568 0.0
O334 O 0.02463 0.3497 0.77234 0.0
O335 O 0.02718 0.38716 0.77149 0.0
O336 O 0.99447 0.91078 0.57694 0.0
Cd337 Cd 0.97613 0.89775 0.54984 0.0
Cd338 Cd 0.95855 0.87705 0.58875 0.0
O339 O 0.98847 0.88657 0.60515 0.0
O340 O 0.99181 0.91445 0.52463 0.0
O341 O 0.99266 0.87698 0.52718 0.0
C342 C 0.99927 0.89533 0.51701 0.0
C343 C 0.93966 0.84222 0.59182 0.0
C344 C 0.99884 0.90378 0.59699 0.0
C345 C 0.93107 0.91337 0.56446 0.0
O346 O 0.93585 0.90344 0.58313 0.0
O347 O 0.94343 0.9104 0.54691 0.0
O348 O 0.94104 0.85603 0.60888 0.0
O349 O 0.95093 0.84713 0.57352 0.0
O350 O 0.10337 0.74447 0.32694 0.0
Cd351 Cd 0.1164 0.72612 0.29984 0.0
Cd352 Cd 0.1371 0.70855 0.33874 0.0
O353 O 0.12758 0.73846 0.35515 0.0
O354 O 0.0997 0.74181 0.27463 0.0
O355 O 0.13717 0.74265 0.27718 0.0
C356 C 0.11882 0.74927 0.26701 0.0
C357 C 0.17192 0.68965 0.34182 0.0
C358 C 0.11037 0.74883 0.34699 0.0
C359 C 0.10078 0.68107 0.31446 0.0
O360 O 0.11071 0.68585 0.33313 0.0
O361 O 0.10375 0.69343 0.29691 0.0
O362 O 0.15811 0.69103 0.35888 0.0
O363 O 0.16702 0.70092 0.32352 0.0
O364 O 0.26968 0.85336 0.07694 0.0
Cd365 Cd 0.28803 0.86639 0.04984 0.0
Cd366 Cd 0.3056 0.88709 0.08874 0.0
O367 O 0.27569 0.87757 0.10515 0.0
O368 O 0.27234 0.8497 0.02463 0.0
O369 O 0.2715 0.88716 0.02718 0.0
C370 C 0.26488 0.86882 0.01701 0.0
C371 C 0.3245 0.92192 0.09182 0.0
C372 C 0.26532 0.86037 0.09699 0.0
C373 C 0.33308 0.85077 0.06446 0.0
O374 O 0.3283 0.8607 0.08313 0.0
O375 O 0.32072 0.85374 0.04691 0.0
O376 O 0.32311 0.90811 0.10888 0.0
O377 O 0.31323 0.91701 0.07352 0.0
O378 O 0.16079 0.01967 0.82695 0.0
Cd379 Cd 0.14775 0.03802 0.79984 0.0
Cd380 Cd 0.12705 0.05559 0.83875 0.0
O381 O 0.13657 0.02568 0.85515 0.0
O382 O 0.16445 0.02233 0.77463 0.0
O383 O 0.12699 0.02149 0.77718 0.0
C384 C 0.14533 0.01487 0.76701 0.0
C385 C 0.09223 0.07449 0.84182 0.0
C386 C 0.15378 0.01531 0.84699 0.0
C387 C 0.16337 0.08308 0.81446 0.0
O388 O 0.15345 0.07829 0.83313 0.0
O389 O 0.16041 0.07071 0.79691 0.0
O390 O 0.10604 0.07311 0.85888 0.0
O391 O 0.09714 0.06322 0.82352 0.0
O392 O 0.99447 0.85336 0.18721 0.0
Cd393 Cd 0.97613 0.86639 0.21431 0.0
Cd394 Cd 0.95855 0.88709 0.1754 0.0
O395 O 0.98847 0.87757 0.159 0.0
O396 O 0.99181 0.8497 0.23952 0.0
O397 O 0.99266 0.88716 0.23697 0.0
C398 C 0.99927 0.86882 0.24714 0.0
C399 C 0.93966 0.92191 0.17233 0.0
C400 C 0.99884 0.86037 0.16716 0.0
C401 C 0.93107 0.85077 0.19969 0.0
O402 O 0.93585 0.8607 0.18102 0.0
O403 O 0.94343 0.85374 0.21724 0.0
O404 O 0.94104 0.90811 0.15527 0.0
O405 O 0.95093 0.91701 0.19064 0.0
O406 O 0.16079 0.74447 0.93721 0.0
Cd407 Cd 0.14775 0.72612 0.96431 0.0
Cd408 Cd 0.12705 0.70855 0.92541 0.0
O409 O 0.13657 0.73846 0.909 0.0
O410 O 0.16445 0.74181 0.98952 0.0
O411 O 0.12699 0.74265 0.98697 0.0
C412 C 0.14533 0.74927 0.99714 0.0
C413 C 0.09223 0.68965 0.92233 0.0
C414 C 0.15378 0.74883 0.91716 0.0
C415 C 0.16337 0.68107 0.94969 0.0
O416 O 0.15345 0.68585 0.93102 0.0
O417 O 0.16041 0.69343 0.96724 0.0
O418 O 0.10604 0.69103 0.90527 0.0
O419 O 0.09713 0.70092 0.94063 0.0
O420 O 0.26968 0.91078 0.68721 0.0
Cd421 Cd 0.28803 0.89775 0.71431 0.0
Cd422 Cd 0.3056 0.87705 0.67541 0.0
O423 O 0.27569 0.88657 0.659 0.0
O424 O 0.27234 0.91445 0.73952 0.0
O425 O 0.2715 0.87698 0.73697 0.0
C426 C 0.26488 0.89533 0.74714 0.0
C427 C 0.3245 0.84222 0.67233 0.0
C428 C 0.26532 0.90378 0.66716 0.0
C429 C 0.33308 0.91337 0.69969 0.0
O430 O 0.3283 0.90344 0.68102 0.0
O431 O 0.32072 0.9104 0.71724 0.0
O432 O 0.32311 0.85603 0.65527 0.0
O433 O 0.31323 0.84713 0.69063 0.0
O434 O 0.10337 0.01967 0.43721 0.0
Cd435 Cd 0.1164 0.03802 0.46431 0.0
Cd436 Cd 0.1371 0.05559 0.4254 0.0
O437 O 0.12758 0.02568 0.409 0.0
O438 O 0.0997 0.02233 0.48952 0.0
O439 O 0.13717 0.02149 0.48697 0.0
C440 C 0.11882 0.01488 0.49714 0.0
C441 C 0.17193 0.07449 0.42233 0.0
C442 C 0.11037 0.01531 0.41716 0.0
C443 C 0.10078 0.08308 0.44969 0.0
O444 O 0.11071 0.07829 0.43102 0.0
O445 O 0.10375 0.07071 0.46724 0.0
O446 O 0.15812 0.07311 0.40527 0.0
O447 O 0.16702 0.06322 0.44063 0.0
O448 O 0.57695 0.99447 0.91079 0.0
Cd449 Cd 0.54984 0.97612 0.89775 0.0
Cd450 Cd 0.58875 0.95855 0.87705 0.0
O451 O 0.60515 0.98846 0.88657 0.0
O452 O 0.52463 0.99181 0.91445 0.0
O453 O 0.52718 0.99265 0.87698 0.0
C454 C 0.51701 0.99927 0.89533 0.0
C455 C 0.59182 0.93965 0.84223 0.0
C456 C 0.597 0.99883 0.90378 0.0
C457 C 0.56446 0.93107 0.91337 0.0
O458 O 0.58313 0.93585 0.90344 0.0
O459 O 0.54691 0.94343 0.9104 0.0
O460 O 0.60888 0.94104 0.85604 0.0
O461 O 0.57352 0.95092 0.84713 0.0
O462 O 0.01968 0.32694 0.66079 0.0
Cd463 Cd 0.03803 0.29983 0.64775 0.0
Cd464 Cd 0.0556 0.33874 0.62705 0.0
O465 O 0.02569 0.35514 0.63657 0.0
O466 O 0.02234 0.27463 0.66445 0.0
O467 O 0.0215 0.27718 0.62699 0.0
C468 C 0.01488 0.267 0.64533 0.0
C469 C 0.0745 0.34182 0.59223 0.0
C470 C 0.01532 0.34699 0.65378 0.0
C471 C 0.08308 0.31445 0.66337 0.0
O472 O 0.0783 0.33313 0.65345 0.0
O473 O 0.07072 0.2969 0.66041 0.0
O474 O 0.07311 0.35888 0.60604 0.0
O475 O 0.06323 0.32351 0.59713 0.0
O476 O 0.68721 0.76967 0.41079 0.0
Cd477 Cd 0.71432 0.78802 0.39775 0.0
Cd478 Cd 0.6754 0.8056 0.37705 0.0
O479 O 0.659 0.77568 0.38657 0.0
O480 O 0.73952 0.77233 0.41445 0.0
O481 O 0.73697 0.77149 0.37698 0.0
C482 C 0.74714 0.76487 0.39533 0.0
C483 C 0.67233 0.82449 0.34223 0.0
C484 C 0.66716 0.76531 0.40378 0.0
C485 C 0.6997 0.83308 0.41337 0.0
O486 O 0.68102 0.82829 0.40344 0.0
O487 O 0.71724 0.82071 0.41041 0.0
O488 O 0.65527 0.82311 0.35604 0.0
O489 O 0.69064 0.81322 0.34713 0.0
O490 O 0.24447 0.4372 0.16079 0.0
Cd491 Cd 0.22613 0.46431 0.14775 0.0
Cd492 Cd 0.20855 0.4254 0.12705 0.0
O493 O 0.23847 0.409 0.13657 0.0
O494 O 0.24181 0.48952 0.16445 0.0
O495 O 0.24266 0.48697 0.12699 0.0
C496 C 0.24927 0.49714 0.14533 0.0
C497 C 0.18966 0.42233 0.09223 0.0
C498 C 0.24884 0.41715 0.15378 0.0
C499 C 0.18107 0.44969 0.16337 0.0
O500 O 0.18586 0.43102 0.15345 0.0
O501 O 0.19343 0.46724 0.16041 0.0
O502 O 0.19104 0.40526 0.10604 0.0
O503 O 0.20093 0.44063 0.09713 0.0
O504 O 0.57695 0.76968 0.85336 0.0
Cd505 Cd 0.54984 0.78802 0.8664 0.0
Cd506 Cd 0.58875 0.80559 0.8871 0.0
O507 O 0.60515 0.77568 0.87758 0.0
O508 O 0.52463 0.77233 0.8497 0.0
O509 O 0.52718 0.77149 0.88716 0.0
C510 C 0.51701 0.76488 0.86882 0.0
C511 C 0.59182 0.82449 0.92192 0.0
C512 C 0.597 0.76531 0.86037 0.0
C513 C 0.56446 0.83308 0.85078 0.0
O514 O 0.58313 0.82829 0.8607 0.0
O515 O 0.54691 0.82071 0.85375 0.0
O516 O 0.60888 0.82311 0.90811 0.0
O517 O 0.57352 0.81322 0.91702 0.0
O518 O 0.24447 0.32694 0.60336 0.0
Cd519 Cd 0.22613 0.29983 0.6164 0.0
Cd520 Cd 0.20855 0.33874 0.6371 0.0
O521 O 0.23847 0.35514 0.62758 0.0
O522 O 0.24182 0.27463 0.5997 0.0
O523 O 0.24266 0.27717 0.63716 0.0
C524 C 0.24927 0.26701 0.61882 0.0
C525 C 0.18966 0.34182 0.67192 0.0
C526 C 0.24884 0.34699 0.61037 0.0
C527 C 0.18107 0.31445 0.60078 0.0
O528 O 0.18586 0.33313 0.6107 0.0
O529 O 0.19343 0.2969 0.60374 0.0
O530 O 0.19104 0.35888 0.65811 0.0
O531 O 0.20093 0.32351 0.66702 0.0
O532 O 0.68721 0.99447 0.35336 0.0
Cd533 Cd 0.71431 0.97612 0.3664 0.0
Cd534 Cd 0.6754 0.95855 0.3871 0.0
O535 O 0.659 0.98846 0.37758 0.0
O536 O 0.73952 0.99181 0.3497 0.0
O537 O 0.73697 0.99265 0.38716 0.0
C538 C 0.74714 0.99927 0.36882 0.0
C539 C 0.67233 0.93965 0.42192 0.0
C540 C 0.66716 0.99883 0.36037 0.0
C541 C 0.6997 0.93107 0.35078 0.0
O542 O 0.68102 0.93585 0.36071 0.0
O543 O 0.71724 0.94343 0.35375 0.0
O544 O 0.65527 0.94103 0.40811 0.0
O545 O 0.69064 0.95092 0.41702 0.0
O546 O 0.01968 0.4372 0.10336 0.0
Cd547 Cd 0.03803 0.46431 0.1164 0.0
Cd548 Cd 0.0556 0.4254 0.1371 0.0
O549 O 0.02569 0.409 0.12758 0.0
O550 O 0.02234 0.48952 0.0997 0.0
O551 O 0.0215 0.48697 0.13716 0.0
C552 C 0.01488 0.49714 0.11882 0.0
C553 C 0.0745 0.42233 0.17192 0.0
C554 C 0.01532 0.41715 0.11037 0.0
C555 C 0.08308 0.44969 0.10078 0.0
O556 O 0.0783 0.43102 0.11071 0.0
O557 O 0.07072 0.46724 0.10374 0.0
O558 O 0.07311 0.40527 0.15811 0.0
O559 O 0.06323 0.44063 0.16702 0.0
O560 O 0.91079 0.57694 0.99447 0.0
Cd561 Cd 0.89775 0.54983 0.97613 0.0
Cd562 Cd 0.87705 0.58874 0.95855 0.0
O563 O 0.88657 0.60514 0.98847 0.0
O564 O 0.91445 0.52463 0.99181 0.0
O565 O 0.87699 0.52718 0.99266 0.0
C566 C 0.89533 0.517 0.99927 0.0
C567 C 0.84223 0.59182 0.93965 0.0
C568 C 0.90378 0.59699 0.99883 0.0
C569 C 0.91337 0.56445 0.93107 0.0
O570 O 0.90345 0.58313 0.93585 0.0
O571 O 0.91041 0.5469 0.94343 0.0
O572 O 0.85604 0.60888 0.94104 0.0
O573 O 0.84713 0.57351 0.95093 0.0
O574 O 0.41079 0.6872 0.76968 0.0
Cd575 Cd 0.39775 0.71431 0.78802 0.0
Cd576 Cd 0.37705 0.6754 0.8056 0.0
O577 O 0.38657 0.659 0.77568 0.0
O578 O 0.41445 0.73952 0.77234 0.0
O579 O 0.37699 0.73697 0.77149 0.0
C580 C 0.39533 0.74714 0.76488 0.0
C581 C 0.34223 0.67233 0.82449 0.0
C582 C 0.40378 0.66715 0.76532 0.0
C583 C 0.41337 0.69969 0.83308 0.0
O584 O 0.40345 0.68102 0.8283 0.0
O585 O 0.41041 0.71724 0.82072 0.0
O586 O 0.35604 0.65527 0.82311 0.0
O587 O 0.34713 0.69063 0.81322 0.0
O588 O 0.32695 0.16078 0.51968 0.0
Cd589 Cd 0.29984 0.14775 0.53803 0.0
Cd590 Cd 0.33875 0.12705 0.5556 0.0
O591 O 0.35515 0.13657 0.52569 0.0
O592 O 0.27463 0.16445 0.52234 0.0
O593 O 0.27718 0.12698 0.52149 0.0
C594 C 0.26701 0.14533 0.51488 0.0
C595 C 0.34182 0.09223 0.5745 0.0
C596 C 0.347 0.15378 0.51532 0.0
C597 C 0.31446 0.16337 0.58308 0.0
O598 O 0.33313 0.15344 0.5783 0.0
O599 O 0.29691 0.1604 0.57072 0.0
O600 O 0.35889 0.10603 0.57311 0.0
O601 O 0.32352 0.09713 0.56322 0.0
O602 O 0.85337 0.07694 0.26968 0.0
Cd603 Cd 0.8664 0.04983 0.28802 0.0
Cd604 Cd 0.8871 0.08874 0.3056 0.0
O605 O 0.87758 0.10514 0.27568 0.0
O606 O 0.8497 0.02463 0.27234 0.0
O607 O 0.88717 0.02717 0.27149 0.0
C608 C 0.86882 0.01701 0.26488 0.0
C609 C 0.92193 0.09182 0.3245 0.0
C610 C 0.86037 0.09699 0.26532 0.0
C611 C 0.85078 0.06445 0.33308 0.0
O612 O 0.86071 0.08313 0.3283 0.0
O613 O 0.85375 0.0469 0.32072 0.0
O614 O 0.90811 0.10888 0.32311 0.0
O615 O 0.91702 0.07351 0.31322 0.0
O616 O 0.43721 0.60336 0.51968 0.0
Cd617 Cd 0.46432 0.61639 0.53803 0.0
Cd618 Cd 0.42541 0.63709 0.5556 0.0
O619 O 0.40901 0.62757 0.52568 0.0
O620 O 0.48952 0.5997 0.52234 0.0
O621 O 0.48697 0.63716 0.52149 0.0
C622 C 0.49714 0.61882 0.51488 0.0
C623 C 0.42233 0.67192 0.57449 0.0
C624 C 0.41716 0.61037 0.51532 0.0
C625 C 0.4497 0.60077 0.58308 0.0
O626 O 0.43102 0.6107 0.5783 0.0
O627 O 0.46724 0.60374 0.57072 0.0
O628 O 0.40527 0.65811 0.57311 0.0
O629 O 0.44064 0.66701 0.56322 0.0
O630 O 0.85337 0.1872 0.99447 0.0
Cd631 Cd 0.8664 0.21431 0.97613 0.0
Cd632 Cd 0.8871 0.1754 0.95855 0.0
O633 O 0.87758 0.159 0.98847 0.0
O634 O 0.8497 0.23952 0.99181 0.0
O635 O 0.88717 0.23697 0.99266 0.0
C636 C 0.86882 0.24714 0.99927 0.0
C637 C 0.92193 0.17233 0.93966 0.0
C638 C 0.86037 0.16715 0.99884 0.0
C639 C 0.85078 0.19969 0.93107 0.0
O640 O 0.86071 0.18102 0.93585 0.0
O641 O 0.85375 0.21724 0.94343 0.0
O642 O 0.90811 0.15527 0.94104 0.0
O643 O 0.91702 0.19063 0.95093 0.0
O644 O 0.32695 0.10336 0.74447 0.0
Cd645 Cd 0.29984 0.11639 0.72612 0.0
Cd646 Cd 0.33875 0.13709 0.70855 0.0
O647 O 0.35515 0.12757 0.73847 0.0
O648 O 0.27463 0.0997 0.74181 0.0
O649 O 0.27718 0.13716 0.74266 0.0
C650 C 0.26701 0.11882 0.74927 0.0
C651 C 0.34182 0.17191 0.68965 0.0
C652 C 0.347 0.11037 0.74883 0.0
C653 C 0.31446 0.10078 0.68107 0.0
O654 O 0.33313 0.1107 0.68585 0.0
O655 O 0.29691 0.10374 0.69343 0.0
O656 O 0.35889 0.15811 0.69104 0.0
O657 O 0.32352 0.16701 0.70093 0.0
O658 O 0.93721 0.66078 0.24447 0.0
Cd659 Cd 0.96432 0.64775 0.22612 0.0
Cd660 Cd 0.92541 0.62705 0.20855 0.0
O661 O 0.90901 0.63657 0.23847 0.0
O662 O 0.98952 0.66445 0.24181 0.0
O663 O 0.98697 0.62698 0.24266 0.0
C664 C 0.99714 0.64533 0.24927 0.0
C665 C 0.92233 0.59222 0.18965 0.0
C666 C 0.91716 0.65378 0.24883 0.0
C667 C 0.9497 0.66337 0.18107 0.0
O668 O 0.93102 0.65344 0.18585 0.0
O669 O 0.96724 0.6604 0.19343 0.0
O670 O 0.90527 0.60603 0.19104 0.0
O671 O 0.94064 0.59713 0.20093 0.0
O672 O 0.01968 0.60336 0.93721 0.0
Cd673 Cd 0.03803 0.61639 0.96431 0.0
Cd674 Cd 0.0556 0.63709 0.9254 0.0
O675 O 0.02569 0.62757 0.909 0.0
O676 O 0.02234 0.5997 0.98952 0.0
O677 O 0.0215 0.63716 0.98697 0.0
C678 C 0.01488 0.61882 0.99714 0.0
C679 C 0.0745 0.67191 0.92233 0.0
C680 C 0.01532 0.61037 0.91716 0.0
C681 C 0.08308 0.60077 0.94969 0.0
O682 O 0.0783 0.6107 0.93102 0.0
O683 O 0.07072 0.60374 0.96724 0.0
O684 O 0.07311 0.65811 0.90527 0.0
O685 O 0.06322 0.66701 0.94064 0.0
O686 O 0.91079 0.76967 0.18721 0.0
Cd687 Cd 0.89775 0.78802 0.21431 0.0
Cd688 Cd 0.87705 0.80559 0.1754 0.0
O689 O 0.88657 0.77568 0.159 0.0
O690 O 0.91445 0.77233 0.23952 0.0
O691 O 0.87699 0.77149 0.23697 0.0
C692 C 0.89533 0.76488 0.24714 0.0
C693 C 0.84223 0.82449 0.17233 0.0
C694 C 0.90378 0.76531 0.16716 0.0
C695 C 0.91337 0.83308 0.19969 0.0
O696 O 0.90345 0.82829 0.18102 0.0
O697 O 0.91041 0.82071 0.21724 0.0
O698 O 0.85604 0.82311 0.15527 0.0
O699 O 0.84713 0.81322 0.19063 0.0
O700 O 0.74447 0.66078 0.43721 0.0
Cd701 Cd 0.72613 0.64775 0.46431 0.0
Cd702 Cd 0.70855 0.62705 0.42541 0.0
O703 O 0.73847 0.63657 0.409 0.0
O704 O 0.74181 0.66445 0.48952 0.0
O705 O 0.74266 0.62698 0.48697 0.0
C706 C 0.74927 0.64533 0.49714 0.0
C707 C 0.68966 0.59222 0.42233 0.0
C708 C 0.74884 0.65378 0.41716 0.0
C709 C 0.68107 0.66337 0.44969 0.0
O710 O 0.68585 0.65344 0.43102 0.0
O711 O 0.69343 0.6604 0.46724 0.0
O712 O 0.69104 0.60603 0.40527 0.0
O713 O 0.70093 0.59713 0.44063 0.0
O714 O 0.85337 0.49447 0.68721 0.0
Cd715 Cd 0.8664 0.47612 0.71431 0.0
Cd716 Cd 0.8871 0.45855 0.67541 0.0
O717 O 0.87758 0.48846 0.659 0.0
O718 O 0.8497 0.49181 0.73952 0.0
O719 O 0.88717 0.49265 0.73697 0.0
C720 C 0.86882 0.49927 0.74714 0.0
C721 C 0.92193 0.43965 0.67233 0.0
C722 C 0.86037 0.49883 0.66716 0.0
C723 C 0.85078 0.43107 0.69969 0.0
O724 O 0.86071 0.43585 0.68102 0.0
O725 O 0.85375 0.44343 0.71724 0.0
O726 O 0.90811 0.44103 0.65527 0.0
O727 O 0.91702 0.45092 0.69063 0.0
O728 O 0.01968 0.66078 0.32694 0.0
Cd729 Cd 0.03803 0.64775 0.29984 0.0
Cd730 Cd 0.0556 0.62705 0.33875 0.0
O731 O 0.02569 0.63657 0.35515 0.0
O732 O 0.02234 0.66445 0.27463 0.0
O733 O 0.0215 0.62698 0.27718 0.0
C734 C 0.01488 0.64533 0.26701 0.0
C735 C 0.0745 0.59222 0.34182 0.0
C736 C 0.01532 0.65378 0.34699 0.0
C737 C 0.08308 0.66337 0.31446 0.0
O738 O 0.0783 0.65344 0.33313 0.0
O739 O 0.07072 0.6604 0.29691 0.0
O740 O 0.07311 0.60603 0.35888 0.0
O741 O 0.06323 0.59713 0.32352 0.0
O742 O 0.85337 0.76967 0.57694 0.0
Cd743 Cd 0.8664 0.78802 0.54984 0.0
Cd744 Cd 0.8871 0.80559 0.58875 0.0
O745 O 0.87758 0.77568 0.60515 0.0
O746 O 0.8497 0.77233 0.52463 0.0
O747 O 0.88717 0.77149 0.52718 0.0
C748 C 0.86882 0.76488 0.51701 0.0
C749 C 0.92192 0.82449 0.59182 0.0
C750 C 0.86037 0.76531 0.59699 0.0
C751 C 0.85078 0.83308 0.56446 0.0
O752 O 0.86071 0.82829 0.58313 0.0
O753 O 0.85375 0.82071 0.54691 0.0
O754 O 0.90811 0.82311 0.60888 0.0
O755 O 0.91702 0.81322 0.57352 0.0
O756 O 0.74447 0.60336 0.82694 0.0
Cd757 Cd 0.72613 0.61639 0.79984 0.0
Cd758 Cd 0.70855 0.63709 0.83874 0.0
O759 O 0.73847 0.62757 0.85515 0.0
O760 O 0.74181 0.5997 0.77463 0.0
O761 O 0.74266 0.63716 0.77718 0.0
C762 C 0.74927 0.61882 0.76701 0.0
C763 C 0.68966 0.67192 0.84182 0.0
C764 C 0.74884 0.61037 0.84699 0.0
C765 C 0.68107 0.60077 0.81446 0.0
O766 O 0.68585 0.6107 0.83313 0.0
O767 O 0.69343 0.60374 0.79691 0.0
O768 O 0.69104 0.65811 0.85888 0.0
O769 O 0.70093 0.66701 0.82352 0.0
O770 O 0.91079 0.49447 0.07694 0.0
Cd771 Cd 0.89775 0.47612 0.04984 0.0
Cd772 Cd 0.87705 0.45855 0.08874 0.0
O773 O 0.88657 0.48846 0.10515 0.0
O774 O 0.91445 0.49181 0.02463 0.0
O775 O 0.87699 0.49265 0.02718 0.0
C776 C 0.89533 0.49927 0.01701 0.0
C777 C 0.84223 0.43965 0.09182 0.0
C778 C 0.90378 0.49883 0.09699 0.0
C779 C 0.91337 0.43107 0.06446 0.0
O780 O 0.90345 0.43585 0.08313 0.0
O781 O 0.91041 0.44343 0.04691 0.0
O782 O 0.85604 0.44104 0.10888 0.0
O783 O 0.84713 0.45092 0.07352 0.0
O784 O 0.43102 0.57829 0.61071 0.0
Cd785 Cd 0.42541 0.5556 0.6371 0.0
Cd786 Cd 0.46432 0.53802 0.6164 0.0
O787 O 0.46724 0.57071 0.60374 0.0
O788 O 0.40527 0.57311 0.65811 0.0
O789 O 0.44063 0.56322 0.66702 0.0
C790 C 0.42233 0.57449 0.67192 0.0
C791 C 0.49714 0.51488 0.61882 0.0
C792 C 0.4497 0.58308 0.60078 0.0
C793 C 0.41716 0.51531 0.61037 0.0
O794 O 0.43721 0.51967 0.60336 0.0
O795 O 0.409 0.52568 0.62758 0.0
O796 O 0.48952 0.52233 0.5997 0.0
O797 O 0.48697 0.52149 0.63716 0.0
O798 O 0.99447 0.1872 0.85336 0.0
Cd799 Cd 0.97613 0.21431 0.8664 0.0
Cd800 Cd 0.95855 0.1754 0.8871 0.0
O801 O 0.98847 0.159 0.87758 0.0
O802 O 0.99181 0.23952 0.8497 0.0
O803 O 0.99266 0.23697 0.88716 0.0
C804 C 0.99927 0.24714 0.86882 0.0
C805 C 0.93966 0.17233 0.92192 0.0
C806 C 0.99884 0.16715 0.86037 0.0
C807 C 0.93107 0.19969 0.85078 0.0
O808 O 0.93586 0.18102 0.8607 0.0
O809 O 0.94343 0.21724 0.85374 0.0
O810 O 0.94104 0.15526 0.90811 0.0
O811 O 0.95093 0.19063 0.91702 0.0
O812 O 0.33313 0.68585 0.1107 0.0
Cd813 Cd 0.33875 0.70855 0.1371 0.0
Cd814 Cd 0.29984 0.72612 0.1164 0.0
O815 O 0.29691 0.69343 0.10375 0.0
O816 O 0.35888 0.69103 0.15811 0.0
O817 O 0.32352 0.70092 0.16702 0.0
C818 C 0.34182 0.68965 0.17192 0.0
C819 C 0.26701 0.74927 0.11882 0.0
C820 C 0.31446 0.68107 0.10078 0.0
C821 C 0.347 0.74883 0.11037 0.0
O822 O 0.32695 0.74447 0.10336 0.0
O823 O 0.35515 0.73846 0.12758 0.0
O824 O 0.27463 0.74181 0.0997 0.0
O825 O 0.27718 0.74265 0.13716 0.0
O826 O 0.76968 0.07694 0.35336 0.0
Cd827 Cd 0.78803 0.04983 0.3664 0.0
Cd828 Cd 0.8056 0.08874 0.3871 0.0
O829 O 0.77569 0.10514 0.37758 0.0
O830 O 0.77234 0.02463 0.3497 0.0
O831 O 0.7715 0.02717 0.38716 0.0
C832 C 0.76488 0.01701 0.36882 0.0
C833 C 0.8245 0.09182 0.42192 0.0
C834 C 0.76532 0.09699 0.36037 0.0
C835 C 0.83308 0.06445 0.35078 0.0
O836 O 0.8283 0.08313 0.3607 0.0
O837 O 0.82072 0.0469 0.35374 0.0
O838 O 0.82311 0.10888 0.40811 0.0
O839 O 0.81323 0.07351 0.41702 0.0
O840 O 0.43102 0.68585 0.65344 0.0
Cd841 Cd 0.42541 0.70855 0.62705 0.0
Cd842 Cd 0.46431 0.72612 0.64775 0.0
O843 O 0.46724 0.69343 0.6604 0.0
O844 O 0.40527 0.69103 0.60604 0.0
O845 O 0.44064 0.70092 0.59713 0.0
C846 C 0.42233 0.68965 0.59223 0.0
C847 C 0.49714 0.74927 0.64533 0.0
C848 C 0.44969 0.68107 0.66337 0.0
C849 C 0.41716 0.74883 0.65378 0.0
O850 O 0.43721 0.74447 0.66079 0.0
O851 O 0.409 0.73846 0.63657 0.0
O852 O 0.48952 0.74181 0.66445 0.0
O853 O 0.48697 0.74265 0.62698 0.0
O854 O 0.76968 0.1872 0.91079 0.0
Cd855 Cd 0.78803 0.21431 0.89775 0.0
Cd856 Cd 0.8056 0.1754 0.87705 0.0
O857 O 0.77569 0.159 0.88657 0.0
O858 O 0.77234 0.23952 0.91445 0.0
O859 O 0.7715 0.23697 0.87699 0.0
C860 C 0.76488 0.24714 0.89533 0.0
C861 C 0.8245 0.17232 0.84223 0.0
C862 C 0.76532 0.16715 0.90378 0.0
C863 C 0.83308 0.19969 0.91337 0.0
O864 O 0.8283 0.18102 0.90345 0.0
O865 O 0.82072 0.21724 0.91041 0.0
O866 O 0.82311 0.15526 0.85604 0.0
O867 O 0.81323 0.19063 0.84713 0.0
O868 O 0.33313 0.57829 0.15345 0.0
Cd869 Cd 0.33875 0.55559 0.12705 0.0
Cd870 Cd 0.29984 0.53802 0.14775 0.0
O871 O 0.29691 0.57071 0.16041 0.0
O872 O 0.35888 0.57311 0.10604 0.0
O873 O 0.32352 0.56322 0.09713 0.0
C874 C 0.34182 0.57449 0.09223 0.0
C875 C 0.26701 0.51487 0.14533 0.0
C876 C 0.31446 0.58308 0.16337 0.0
C877 C 0.347 0.51531 0.15378 0.0
O878 O 0.32695 0.51967 0.16079 0.0
O879 O 0.35515 0.52568 0.13657 0.0
O880 O 0.27463 0.52233 0.16445 0.0
O881 O 0.27718 0.52149 0.12699 0.0
O882 O 0.99447 0.07694 0.41079 0.0
Cd883 Cd 0.97613 0.04983 0.39775 0.0
Cd884 Cd 0.95855 0.08874 0.37705 0.0
O885 O 0.98847 0.10514 0.38657 0.0
O886 O 0.99181 0.02463 0.41445 0.0
O887 O 0.99266 0.02717 0.37698 0.0
C888 C 0.99927 0.017 0.39533 0.0
C889 C 0.93966 0.09182 0.34223 0.0
C890 C 0.99884 0.09699 0.40378 0.0
C891 C 0.93107 0.06445 0.41337 0.0
O892 O 0.93586 0.08313 0.40345 0.0
O893 O 0.94343 0.0469 0.41041 0.0
O894 O 0.94104 0.10888 0.35604 0.0
O895 O 0.95093 0.07351 0.34713 0.0
O896 O 0.10337 0.9372 0.51968 0.0
Cd897 Cd 0.1164 0.96431 0.53802 0.0
Cd898 Cd 0.1371 0.9254 0.5556 0.0
O899 O 0.12758 0.909 0.52568 0.0
O900 O 0.0997 0.98952 0.52234 0.0
O901 O 0.13717 0.98697 0.52149 0.0
C902 C 0.11882 0.99714 0.51488 0.0
C903 C 0.17192 0.92233 0.57449 0.0
C904 C 0.11037 0.91715 0.51532 0.0
C905 C 0.10078 0.94969 0.58308 0.0
O906 O 0.11071 0.93102 0.5783 0.0
O907 O 0.10375 0.96724 0.57072 0.0
O908 O 0.15811 0.90527 0.57311 0.0
O909 O 0.16702 0.94063 0.56322 0.0
O910 O 0.60337 0.82694 0.74447 0.0
Cd911 Cd 0.6164 0.79983 0.72613 0.0
Cd912 Cd 0.6371 0.83874 0.70855 0.0
O913 O 0.62758 0.85514 0.73847 0.0
O914 O 0.5997 0.77463 0.74181 0.0
O915 O 0.63717 0.77718 0.74266 0.0
C916 C 0.61882 0.767 0.74927 0.0
C917 C 0.67193 0.84182 0.68966 0.0
C918 C 0.61037 0.84699 0.74884 0.0
C919 C 0.60078 0.81445 0.68107 0.0
O920 O 0.61071 0.83313 0.68585 0.0
O921 O 0.60375 0.7969 0.69343 0.0
O922 O 0.65811 0.85888 0.69104 0.0
O923 O 0.66702 0.82351 0.70093 0.0
O924 O 0.68102 0.3607 0.93585 0.0
Cd925 Cd 0.67541 0.38709 0.95855 0.0
Cd926 Cd 0.71432 0.36639 0.97612 0.0
O927 O 0.71724 0.35374 0.94343 0.0
O928 O 0.65527 0.40811 0.94104 0.0
O929 O 0.69064 0.41701 0.95093 0.0
C930 C 0.67233 0.42192 0.93966 0.0
C931 C 0.74714 0.36882 0.99927 0.0
C932 C 0.6997 0.35077 0.93107 0.0
C933 C 0.66716 0.36037 0.99883 0.0
O934 O 0.68721 0.35336 0.99447 0.0
O935 O 0.65901 0.37757 0.98847 0.0
O936 O 0.73952 0.3497 0.99181 0.0
O937 O 0.73697 0.38716 0.99266 0.0
O938 O 0.16079 0.4372 0.24447 0.0
Cd939 Cd 0.14775 0.46431 0.22613 0.0
Cd940 Cd 0.12705 0.4254 0.20855 0.0
O941 O 0.13658 0.409 0.23847 0.0
O942 O 0.16445 0.48952 0.24181 0.0
O943 O 0.12699 0.48697 0.24266 0.0
C944 C 0.14533 0.49714 0.24927 0.0
C945 C 0.09223 0.42233 0.18965 0.0
C946 C 0.15378 0.41715 0.24883 0.0
C947 C 0.16337 0.44969 0.18107 0.0
O948 O 0.15345 0.43102 0.18585 0.0
O949 O 0.16041 0.46724 0.19343 0.0
O950 O 0.10604 0.40526 0.19104 0.0
O951 O 0.09713 0.44063 0.20093 0.0
O952 O 0.58313 0.90344 0.93585 0.0
Cd953 Cd 0.58875 0.87705 0.95855 0.0
Cd954 Cd 0.54984 0.89775 0.97612 0.0
O955 O 0.54691 0.9104 0.94343 0.0
O956 O 0.60889 0.85603 0.94104 0.0
O957 O 0.57352 0.84713 0.95093 0.0
C958 C 0.59182 0.84223 0.93965 0.0
C959 C 0.51701 0.89533 0.99927 0.0
C960 C 0.56446 0.91337 0.93107 0.0
C961 C 0.597 0.90378 0.99883 0.0
O962 O 0.57695 0.91078 0.99447 0.0
O963 O 0.60515 0.88657 0.98846 0.0
O964 O 0.52463 0.91445 0.99181 0.0
O965 O 0.52718 0.87698 0.99266 0.0
O966 O 0.16079 0.32694 0.51968 0.0
Cd967 Cd 0.14775 0.29983 0.53802 0.0
Cd968 Cd 0.12705 0.33874 0.5556 0.0
O969 O 0.13658 0.35514 0.52568 0.0
O970 O 0.16445 0.27463 0.52234 0.0
O971 O 0.12699 0.27717 0.52149 0.0
C972 C 0.14533 0.267 0.51488 0.0
C973 C 0.09223 0.34182 0.5745 0.0
C974 C 0.15378 0.34699 0.51532 0.0
C975 C 0.16337 0.31445 0.58308 0.0
O976 O 0.15345 0.33313 0.5783 0.0
O977 O 0.16041 0.2969 0.57072 0.0
O978 O 0.10604 0.35888 0.57311 0.0
O979 O 0.09714 0.32351 0.56322 0.0
O980 O 0.68102 0.40344 0.8283 0.0
Cd981 Cd 0.67541 0.37705 0.8056 0.0
Cd982 Cd 0.71432 0.39775 0.78803 0.0
O983 O 0.71724 0.4104 0.82072 0.0
O984 O 0.65527 0.35603 0.82311 0.0
O985 O 0.69064 0.34713 0.81322 0.0
C986 C 0.67233 0.34222 0.82449 0.0
C987 C 0.74714 0.39533 0.76488 0.0
C988 C 0.6997 0.41337 0.83308 0.0
C989 C 0.66716 0.40378 0.76532 0.0
O990 O 0.68721 0.41078 0.76968 0.0
O991 O 0.65901 0.38657 0.77568 0.0
O992 O 0.73952 0.41445 0.77234 0.0
O993 O 0.73697 0.37698 0.77149 0.0
O994 O 0.08313 0.8607 0.3283 0.0
Cd995 Cd 0.08875 0.88709 0.3056 0.0
Cd996 Cd 0.04984 0.86639 0.28802 0.0
O997 O 0.04691 0.85374 0.32072 0.0
O998 O 0.10888 0.90811 0.32311 0.0
O999 O 0.07352 0.91701 0.31322 0.0
C1000 C 0.09182 0.92192 0.3245 0.0
C1001 C 0.01701 0.86882 0.26488 0.0
C1002 C 0.06446 0.85077 0.33308 0.0
C1003 C 0.097 0.86037 0.26532 0.0
O1004 O 0.07695 0.85336 0.26968 0.0
O1005 O 0.10515 0.87757 0.27568 0.0
O1006 O 0.02463 0.8497 0.27234 0.0
O1007 O 0.02718 0.88716 0.27149 0.0
O1008 O 0.99447 0.41078 0.07694 0.0
Cd1009 Cd 0.97613 0.39775 0.04984 0.0
Cd1010 Cd 0.95855 0.37705 0.08875 0.0
O1011 O 0.98847 0.38657 0.10515 0.0
O1012 O 0.99181 0.41445 0.02463 0.0
O1013 O 0.99266 0.37698 0.02718 0.0
C1014 C 0.99927 0.39533 0.01701 0.0
C1015 C 0.93966 0.34223 0.09182 0.0
C1016 C 0.99884 0.40378 0.09699 0.0
C1017 C 0.93107 0.41337 0.06446 0.0
O1018 O 0.93585 0.40344 0.08313 0.0
O1019 O 0.94343 0.4104 0.04691 0.0
O1020 O 0.94104 0.35603 0.10888 0.0
O1021 O 0.95093 0.34713 0.07352 0.0
O1022 O 0.10337 0.24447 0.82694 0.0
Cd1023 Cd 0.1164 0.22612 0.79984 0.0
Cd1024 Cd 0.1371 0.20855 0.83875 0.0
O1025 O 0.12758 0.23846 0.85515 0.0
O1026 O 0.0997 0.24181 0.77463 0.0
O1027 O 0.13717 0.24265 0.77718 0.0
C1028 C 0.11882 0.24927 0.76701 0.0
C1029 C 0.17193 0.18965 0.84182 0.0
C1030 C 0.11037 0.24883 0.84699 0.0
C1031 C 0.10078 0.18107 0.81446 0.0
O1032 O 0.11071 0.18585 0.83313 0.0
O1033 O 0.10375 0.19343 0.79691 0.0
O1034 O 0.15812 0.19103 0.85888 0.0
O1035 O 0.16702 0.20092 0.82352 0.0
O1036 O 0.26968 0.35336 0.57694 0.0
Cd1037 Cd 0.28803 0.36639 0.54984 0.0
Cd1038 Cd 0.3056 0.38709 0.58874 0.0
O1039 O 0.27569 0.37757 0.60515 0.0
O1040 O 0.27234 0.3497 0.52463 0.0
O1041 O 0.2715 0.38716 0.52718 0.0
C1042 C 0.26488 0.36882 0.51701 0.0
C1043 C 0.3245 0.42192 0.59182 0.0
C1044 C 0.26532 0.36037 0.59699 0.0
C1045 C 0.33308 0.35077 0.56446 0.0
O1046 O 0.3283 0.3607 0.58313 0.0
O1047 O 0.32072 0.35374 0.54691 0.0
O1048 O 0.32311 0.40811 0.60888 0.0
O1049 O 0.31323 0.41701 0.57352 0.0
O1050 O 0.16079 0.51967 0.32695 0.0
Cd1051 Cd 0.14775 0.53802 0.29984 0.0
Cd1052 Cd 0.12705 0.55559 0.33875 0.0
O1053 O 0.13657 0.52568 0.35515 0.0
O1054 O 0.16445 0.52233 0.27463 0.0
O1055 O 0.12699 0.52149 0.27718 0.0
C1056 C 0.14533 0.51487 0.26701 0.0
C1057 C 0.09223 0.57449 0.34182 0.0
C1058 C 0.15378 0.51531 0.347 0.0
C1059 C 0.16337 0.58307 0.31446 0.0
O1060 O 0.15345 0.57829 0.33313 0.0
O1061 O 0.16041 0.57071 0.29691 0.0
O1062 O 0.10604 0.57311 0.35888 0.0
O1063 O 0.09713 0.56322 0.32352 0.0
O1064 O 0.99447 0.35336 0.68721 0.0
Cd1065 Cd 0.97613 0.36639 0.71431 0.0
Cd1066 Cd 0.95855 0.38709 0.6754 0.0
O1067 O 0.98847 0.37757 0.659 0.0
O1068 O 0.99181 0.3497 0.73952 0.0
O1069 O 0.99266 0.38716 0.73697 0.0
C1070 C 0.99927 0.36882 0.74714 0.0
C1071 C 0.93966 0.42191 0.67233 0.0
C1072 C 0.99884 0.36037 0.66716 0.0
C1073 C 0.93107 0.35078 0.69969 0.0
O1074 O 0.93585 0.3607 0.68102 0.0
O1075 O 0.94343 0.35374 0.71724 0.0
O1076 O 0.94104 0.40811 0.65527 0.0
O1077 O 0.95093 0.41701 0.69063 0.0
O1078 O 0.16079 0.24447 0.4372 0.0
Cd1079 Cd 0.14775 0.22612 0.46431 0.0
Cd1080 Cd 0.12705 0.20855 0.4254 0.0
O1081 O 0.13657 0.23846 0.409 0.0
O1082 O 0.16445 0.24181 0.48952 0.0
O1083 O 0.12699 0.24265 0.48697 0.0
C1084 C 0.14533 0.24927 0.49714 0.0
C1085 C 0.09223 0.18965 0.42233 0.0
C1086 C 0.15378 0.24883 0.41716 0.0
C1087 C 0.16337 0.18107 0.44969 0.0
O1088 O 0.15345 0.18585 0.43102 0.0
O1089 O 0.16041 0.19343 0.46724 0.0
O1090 O 0.10604 0.19103 0.40527 0.0
O1091 O 0.09714 0.20092 0.44064 0.0
O1092 O 0.26968 0.41078 0.18721 0.0
Cd1093 Cd 0.28803 0.39775 0.21431 0.0
Cd1094 Cd 0.3056 0.37705 0.17541 0.0
O1095 O 0.27569 0.38657 0.159 0.0
O1096 O 0.27234 0.41445 0.23952 0.0
O1097 O 0.2715 0.37698 0.23697 0.0
C1098 C 0.26488 0.39533 0.24714 0.0
C1099 C 0.3245 0.34222 0.17233 0.0
C1100 C 0.26532 0.40378 0.16716 0.0
C1101 C 0.33308 0.41337 0.19969 0.0
O1102 O 0.3283 0.40344 0.18102 0.0
O1103 O 0.32072 0.4104 0.21724 0.0
O1104 O 0.32311 0.35603 0.15527 0.0
O1105 O 0.31323 0.34713 0.19063 0.0
O1106 O 0.10337 0.51967 0.93721 0.0
Cd1107 Cd 0.1164 0.53802 0.96431 0.0
Cd1108 Cd 0.1371 0.55559 0.9254 0.0
O1109 O 0.12758 0.52568 0.909 0.0
O1110 O 0.0997 0.52233 0.98952 0.0
O1111 O 0.13717 0.52149 0.98697 0.0
C1112 C 0.11882 0.51487 0.99714 0.0
C1113 C 0.17193 0.57449 0.92233 0.0
C1114 C 0.11037 0.51531 0.91716 0.0
C1115 C 0.10078 0.58308 0.94969 0.0
O1116 O 0.11071 0.57829 0.93102 0.0
O1117 O 0.10375 0.57071 0.96724 0.0
O1118 O 0.15812 0.57311 0.90527 0.0
O1119 O 0.16702 0.56322 0.94063 0.0
O1120 O 0.57695 0.49447 0.41079 0.0
Cd1121 Cd 0.54984 0.47612 0.39775 0.0
Cd1122 Cd 0.58875 0.45855 0.37705 0.0
O1123 O 0.60515 0.48846 0.38657 0.0
O1124 O 0.52463 0.49181 0.41445 0.0
O1125 O 0.52718 0.49265 0.37699 0.0
C1126 C 0.51701 0.49927 0.39533 0.0
C1127 C 0.59182 0.43965 0.34223 0.0
C1128 C 0.597 0.49883 0.40378 0.0
C1129 C 0.56446 0.43107 0.41337 0.0
O1130 O 0.58313 0.43585 0.40344 0.0
O1131 O 0.54691 0.44343 0.41041 0.0
O1132 O 0.60888 0.44103 0.35604 0.0
O1133 O 0.57352 0.45092 0.34713 0.0
O1134 O 0.01968 0.82694 0.16079 0.0
Cd1135 Cd 0.03803 0.79983 0.14775 0.0
Cd1136 Cd 0.0556 0.83874 0.12705 0.0
O1137 O 0.02569 0.85514 0.13657 0.0
O1138 O 0.02234 0.77463 0.16445 0.0
O1139 O 0.0215 0.77717 0.12699 0.0
C1140 C 0.01488 0.767 0.14533 0.0
C1141 C 0.0745 0.84181 0.09223 0.0
C1142 C 0.01532 0.84699 0.15378 0.0
C1143 C 0.08308 0.81445 0.16337 0.0
O1144 O 0.0783 0.83313 0.15345 0.0
O1145 O 0.07072 0.7969 0.16041 0.0
O1146 O 0.07311 0.85888 0.10604 0.0
O1147 O 0.06322 0.82351 0.09713 0.0
O1148 O 0.68721 0.26967 0.91079 0.0
Cd1149 Cd 0.71432 0.28802 0.89775 0.0
Cd1150 Cd 0.6754 0.3056 0.87705 0.0
O1151 O 0.659 0.27568 0.88657 0.0
O1152 O 0.73952 0.27233 0.91445 0.0
O1153 O 0.73697 0.27149 0.87699 0.0
C1154 C 0.74714 0.26487 0.89533 0.0
C1155 C 0.67233 0.32449 0.84223 0.0
C1156 C 0.66716 0.26531 0.90378 0.0
C1157 C 0.6997 0.33308 0.91337 0.0
O1158 O 0.68102 0.32829 0.90344 0.0
O1159 O 0.71724 0.32071 0.91041 0.0
O1160 O 0.65527 0.32311 0.85604 0.0
O1161 O 0.69064 0.31322 0.84713 0.0
O1162 O 0.24447 0.9372 0.66079 0.0
Cd1163 Cd 0.22613 0.96431 0.64775 0.0
Cd1164 Cd 0.20855 0.9254 0.62705 0.0
O1165 O 0.23847 0.909 0.63657 0.0
O1166 O 0.24182 0.98952 0.66445 0.0
O1167 O 0.24266 0.98697 0.62699 0.0
C1168 C 0.24927 0.99714 0.64533 0.0
C1169 C 0.18966 0.92233 0.59223 0.0
C1170 C 0.24884 0.91715 0.65378 0.0
C1171 C 0.18107 0.94969 0.66337 0.0
O1172 O 0.18585 0.93102 0.65345 0.0
O1173 O 0.19343 0.96724 0.66041 0.0
O1174 O 0.19104 0.90526 0.60604 0.0
O1175 O 0.20093 0.94063 0.59713 0.0
O1176 O 0.57695 0.26967 0.35336 0.0
Cd1177 Cd 0.54984 0.28802 0.3664 0.0
Cd1178 Cd 0.58875 0.30559 0.3871 0.0
O1179 O 0.60515 0.27568 0.37758 0.0
O1180 O 0.52463 0.27233 0.3497 0.0
O1181 O 0.52718 0.27149 0.38717 0.0
C1182 C 0.51701 0.26488 0.36882 0.0
C1183 C 0.59182 0.32449 0.42192 0.0
C1184 C 0.597 0.26531 0.36037 0.0
C1185 C 0.56446 0.33308 0.35078 0.0
O1186 O 0.58313 0.32829 0.36071 0.0
O1187 O 0.54691 0.32071 0.35375 0.0
O1188 O 0.60888 0.32311 0.40811 0.0
O1189 O 0.57352 0.31322 0.41702 0.0
O1190 O 0.24447 0.82694 0.10336 0.0
Cd1191 Cd 0.22613 0.79983 0.1164 0.0
Cd1192 Cd 0.20855 0.83874 0.1371 0.0
O1193 O 0.23847 0.85514 0.12758 0.0
O1194 O 0.24182 0.77463 0.0997 0.0
O1195 O 0.24266 0.77717 0.13716 0.0
C1196 C 0.24927 0.76701 0.11882 0.0
C1197 C 0.18966 0.84182 0.17192 0.0
C1198 C 0.24884 0.84699 0.11037 0.0
C1199 C 0.18107 0.81445 0.10078 0.0
O1200 O 0.18585 0.83313 0.11071 0.0
O1201 O 0.19343 0.7969 0.10374 0.0
O1202 O 0.19104 0.85888 0.15811 0.0
O1203 O 0.20093 0.82351 0.16702 0.0
O1204 O 0.68721 0.49447 0.85336 0.0
Cd1205 Cd 0.71432 0.47612 0.8664 0.0
Cd1206 Cd 0.6754 0.45855 0.8871 0.0
O1207 O 0.659 0.48846 0.87758 0.0
O1208 O 0.73952 0.49181 0.8497 0.0
O1209 O 0.73697 0.49265 0.88717 0.0
C1210 C 0.74714 0.49927 0.86882 0.0
C1211 C 0.67233 0.43965 0.92192 0.0
C1212 C 0.66716 0.49883 0.86037 0.0
C1213 C 0.6997 0.43107 0.85078 0.0
O1214 O 0.68102 0.43585 0.86071 0.0
O1215 O 0.71724 0.44343 0.85374 0.0
O1216 O 0.65527 0.44103 0.90811 0.0
O1217 O 0.69064 0.45092 0.91702 0.0
O1218 O 0.01968 0.9372 0.60336 0.0
Cd1219 Cd 0.03803 0.96431 0.6164 0.0
Cd1220 Cd 0.0556 0.9254 0.6371 0.0
O1221 O 0.02569 0.909 0.62758 0.0
O1222 O 0.02234 0.98952 0.5997 0.0
O1223 O 0.0215 0.98697 0.63716 0.0
C1224 C 0.01488 0.99714 0.61882 0.0
C1225 C 0.0745 0.92233 0.67192 0.0
C1226 C 0.01532 0.91715 0.61037 0.0
C1227 C 0.08308 0.94969 0.60078 0.0
O1228 O 0.0783 0.93102 0.6107 0.0
O1229 O 0.07072 0.96724 0.60374 0.0
O1230 O 0.07311 0.90526 0.65811 0.0
O1231 O 0.06322 0.94063 0.66702 0.0
O1232 O 0.91079 0.07694 0.49447 0.0
Cd1233 Cd 0.89775 0.04983 0.47613 0.0
Cd1234 Cd 0.87705 0.08874 0.45855 0.0
O1235 O 0.88657 0.10514 0.48847 0.0
O1236 O 0.91445 0.02463 0.49181 0.0
O1237 O 0.87699 0.02718 0.49266 0.0
C1238 C 0.89533 0.01701 0.49927 0.0
C1239 C 0.84223 0.09182 0.43965 0.0
C1240 C 0.90378 0.09699 0.49883 0.0
C1241 C 0.91337 0.06445 0.43107 0.0
O1242 O 0.90345 0.08313 0.43585 0.0
O1243 O 0.91041 0.0469 0.44343 0.0
O1244 O 0.85604 0.10888 0.44104 0.0
O1245 O 0.84713 0.07351 0.45093 0.0
O1246 O 0.41079 0.1872 0.26968 0.0
Cd1247 Cd 0.39775 0.21431 0.28802 0.0
Cd1248 Cd 0.37705 0.1754 0.3056 0.0
O1249 O 0.38657 0.159 0.27568 0.0
O1250 O 0.41445 0.23952 0.27234 0.0
O1251 O 0.37699 0.23697 0.27149 0.0
C1252 C 0.39533 0.24714 0.26488 0.0
C1253 C 0.34223 0.17233 0.32449 0.0
C1254 C 0.40378 0.16715 0.26531 0.0
C1255 C 0.41337 0.19969 0.33308 0.0
O1256 O 0.40345 0.18102 0.3283 0.0
O1257 O 0.41041 0.21724 0.32072 0.0
O1258 O 0.35604 0.15527 0.32311 0.0
O1259 O 0.34713 0.19063 0.31322 0.0
O1260 O 0.32695 0.66078 0.01968 0.0
Cd1261 Cd 0.29984 0.64775 0.03803 0.0
Cd1262 Cd 0.33875 0.62705 0.0556 0.0
O1263 O 0.35515 0.63657 0.02569 0.0
O1264 O 0.27463 0.66445 0.02234 0.0
O1265 O 0.27718 0.62698 0.02149 0.0
C1266 C 0.26701 0.64533 0.01488 0.0
C1267 C 0.34182 0.59223 0.0745 0.0
C1268 C 0.347 0.65378 0.01532 0.0
C1269 C 0.31446 0.66337 0.08308 0.0
O1270 O 0.33313 0.65344 0.0783 0.0
O1271 O 0.29691 0.6604 0.07072 0.0
O1272 O 0.35889 0.60603 0.07311 0.0
O1273 O 0.32352 0.59713 0.06322 0.0
O1274 O 0.85337 0.57694 0.76968 0.0
Cd1275 Cd 0.8664 0.54983 0.78802 0.0
Cd1276 Cd 0.8871 0.58874 0.8056 0.0
O1277 O 0.87758 0.60514 0.77568 0.0
O1278 O 0.8497 0.52463 0.77234 0.0
O1279 O 0.88717 0.52717 0.77149 0.0
C1280 C 0.86882 0.51701 0.76488 0.0
C1281 C 0.92192 0.59182 0.8245 0.0
C1282 C 0.86037 0.59699 0.76532 0.0
C1283 C 0.85078 0.56445 0.83308 0.0
O1284 O 0.86071 0.58313 0.8283 0.0
O1285 O 0.85375 0.5469 0.82072 0.0
O1286 O 0.90811 0.60888 0.82311 0.0
O1287 O 0.91702 0.57351 0.81322 0.0
O1288 O 0.43721 0.10336 0.01968 0.0
Cd1289 Cd 0.46432 0.11639 0.03803 0.0
Cd1290 Cd 0.42541 0.13709 0.0556 0.0
O1291 O 0.40901 0.12757 0.02568 0.0
O1292 O 0.48952 0.0997 0.02234 0.0
O1293 O 0.48697 0.13716 0.02149 0.0
C1294 C 0.49714 0.11882 0.01488 0.0
C1295 C 0.42233 0.17191 0.0745 0.0
C1296 C 0.41716 0.11037 0.01532 0.0
C1297 C 0.4497 0.10078 0.08308 0.0
O1298 O 0.43102 0.1107 0.0783 0.0
O1299 O 0.46724 0.10374 0.07072 0.0
O1300 O 0.40527 0.15811 0.07311 0.0
O1301 O 0.44064 0.16701 0.06322 0.0
O1302 O 0.85337 0.6872 0.49447 0.0
Cd1303 Cd 0.8664 0.71431 0.47613 0.0
Cd1304 Cd 0.8871 0.6754 0.45855 0.0
O1305 O 0.87758 0.659 0.48847 0.0
O1306 O 0.8497 0.73952 0.49181 0.0
O1307 O 0.88717 0.73697 0.49266 0.0
C1308 C 0.86882 0.74714 0.49927 0.0
C1309 C 0.92192 0.67233 0.43965 0.0
C1310 C 0.86037 0.66715 0.49883 0.0
C1311 C 0.85078 0.69969 0.43107 0.0
O1312 O 0.86071 0.68102 0.43585 0.0
O1313 O 0.85375 0.71724 0.44343 0.0
O1314 O 0.90811 0.65526 0.44104 0.0
O1315 O 0.91702 0.69063 0.45093 0.0
O1316 O 0.32695 0.60336 0.24447 0.0
Cd1317 Cd 0.29984 0.61639 0.22612 0.0
Cd1318 Cd 0.33875 0.63709 0.20855 0.0
O1319 O 0.35515 0.62757 0.23847 0.0
O1320 O 0.27463 0.5997 0.24181 0.0
O1321 O 0.27718 0.63716 0.24266 0.0
C1322 C 0.26701 0.61882 0.24927 0.0
C1323 C 0.34182 0.67191 0.18965 0.0
C1324 C 0.347 0.61037 0.24883 0.0
C1325 C 0.31446 0.60078 0.18107 0.0
O1326 O 0.33313 0.6107 0.18585 0.0
O1327 O 0.29691 0.60374 0.19343 0.0
O1328 O 0.35889 0.65811 0.19104 0.0
O1329 O 0.32352 0.66701 0.20093 0.0
O1330 O 0.93721 0.16078 0.74447 0.0
Cd1331 Cd 0.96432 0.14775 0.72613 0.0
Cd1332 Cd 0.92541 0.12705 0.70855 0.0
O1333 O 0.90901 0.13657 0.73847 0.0
O1334 O 0.98952 0.16445 0.74181 0.0
O1335 O 0.98697 0.12698 0.74266 0.0
C1336 C 0.99714 0.14533 0.74927 0.0
C1337 C 0.92233 0.09222 0.68965 0.0
C1338 C 0.91716 0.15378 0.74883 0.0
C1339 C 0.9497 0.16337 0.68107 0.0
O1340 O 0.93102 0.15344 0.68585 0.0
O1341 O 0.96724 0.1604 0.69343 0.0
O1342 O 0.90527 0.10603 0.69104 0.0
O1343 O 0.94064 0.09713 0.70093 0.0
O1344 O 0.51968 0.10336 0.93721 0.0
Cd1345 Cd 0.53803 0.11639 0.96431 0.0
Cd1346 Cd 0.5556 0.13709 0.92541 0.0
O1347 O 0.52569 0.12757 0.909 0.0
O1348 O 0.52234 0.0997 0.98952 0.0
O1349 O 0.5215 0.13716 0.98697 0.0
C1350 C 0.51488 0.11882 0.99714 0.0
C1351 C 0.5745 0.17192 0.92233 0.0
C1352 C 0.51532 0.11037 0.91716 0.0
C1353 C 0.58308 0.10077 0.94969 0.0
O1354 O 0.5783 0.1107 0.93102 0.0
O1355 O 0.57072 0.10374 0.96724 0.0
O1356 O 0.57311 0.15811 0.90527 0.0
O1357 O 0.56323 0.16701 0.94063 0.0
O1358 O 0.41079 0.26967 0.18721 0.0
Cd1359 Cd 0.39775 0.28802 0.21431 0.0
Cd1360 Cd 0.37705 0.30559 0.1754 0.0
O1361 O 0.38657 0.27568 0.159 0.0
O1362 O 0.41445 0.27233 0.23952 0.0
O1363 O 0.37699 0.27149 0.23697 0.0
C1364 C 0.39533 0.26487 0.24714 0.0
C1365 C 0.34223 0.32449 0.17233 0.0
C1366 C 0.40378 0.26531 0.16716 0.0
C1367 C 0.41337 0.33308 0.19969 0.0
O1368 O 0.40345 0.32829 0.18102 0.0
O1369 O 0.41041 0.32071 0.21724 0.0
O1370 O 0.35604 0.32311 0.15527 0.0
O1371 O 0.34714 0.31322 0.19063 0.0
O1372 O 0.24447 0.16078 0.43721 0.0
Cd1373 Cd 0.22613 0.14775 0.46431 0.0
Cd1374 Cd 0.20855 0.12705 0.4254 0.0
O1375 O 0.23847 0.13657 0.409 0.0
O1376 O 0.24182 0.16445 0.48952 0.0
O1377 O 0.24266 0.12698 0.48697 0.0
C1378 C 0.24927 0.14533 0.49714 0.0
C1379 C 0.18966 0.09223 0.42233 0.0
C1380 C 0.24884 0.15378 0.41716 0.0
C1381 C 0.18107 0.16337 0.44969 0.0
O1382 O 0.18585 0.15344 0.43102 0.0
O1383 O 0.19343 0.1604 0.46724 0.0
O1384 O 0.19104 0.10603 0.40527 0.0
O1385 O 0.20093 0.09713 0.44063 0.0
O1386 O 0.35337 0.99447 0.68721 0.0
Cd1387 Cd 0.3664 0.97612 0.71431 0.0
Cd1388 Cd 0.3871 0.95855 0.6754 0.0
O1389 O 0.37758 0.98846 0.659 0.0
O1390 O 0.3497 0.99181 0.73952 0.0
O1391 O 0.38717 0.99265 0.73697 0.0
C1392 C 0.36882 0.99927 0.74714 0.0
C1393 C 0.42193 0.93965 0.67233 0.0
C1394 C 0.36037 0.99883 0.66716 0.0
C1395 C 0.35078 0.93107 0.69969 0.0
O1396 O 0.36071 0.93585 0.68102 0.0
O1397 O 0.35375 0.94343 0.71724 0.0
O1398 O 0.40812 0.94103 0.65527 0.0
O1399 O 0.41702 0.95092 0.69063 0.0
O1400 O 0.51968 0.16078 0.32694 0.0
Cd1401 Cd 0.53803 0.14775 0.29984 0.0
Cd1402 Cd 0.5556 0.12705 0.33874 0.0
O1403 O 0.52569 0.13657 0.35515 0.0
O1404 O 0.52234 0.16445 0.27463 0.0
O1405 O 0.5215 0.12698 0.27718 0.0
C1406 C 0.51488 0.14533 0.26701 0.0
C1407 C 0.5745 0.09222 0.34182 0.0
C1408 C 0.51532 0.15378 0.34699 0.0
C1409 C 0.58308 0.16337 0.31446 0.0
O1410 O 0.5783 0.15344 0.33313 0.0
O1411 O 0.57072 0.1604 0.29691 0.0
O1412 O 0.57311 0.10603 0.35888 0.0
O1413 O 0.56323 0.09713 0.32352 0.0
O1414 O 0.35337 0.26967 0.57694 0.0
Cd1415 Cd 0.3664 0.28802 0.54984 0.0
Cd1416 Cd 0.3871 0.30559 0.58875 0.0
O1417 O 0.37758 0.27568 0.60515 0.0
O1418 O 0.3497 0.27233 0.52463 0.0
O1419 O 0.38717 0.27149 0.52718 0.0
C1420 C 0.36882 0.26488 0.51701 0.0
C1421 C 0.42193 0.32449 0.59182 0.0
C1422 C 0.36037 0.26531 0.59699 0.0
C1423 C 0.35078 0.33308 0.56446 0.0
O1424 O 0.36071 0.32829 0.58313 0.0
O1425 O 0.35375 0.32071 0.54691 0.0
O1426 O 0.40811 0.32311 0.60888 0.0
O1427 O 0.41702 0.31322 0.57352 0.0
O1428 O 0.24447 0.10336 0.82694 0.0
Cd1429 Cd 0.22613 0.11639 0.79984 0.0
Cd1430 Cd 0.20855 0.13709 0.83875 0.0
O1431 O 0.23847 0.12757 0.85515 0.0
O1432 O 0.24182 0.0997 0.77463 0.0
O1433 O 0.24266 0.13716 0.77718 0.0
C1434 C 0.24927 0.11882 0.76701 0.0
C1435 C 0.18966 0.17191 0.84182 0.0
C1436 C 0.24884 0.11037 0.84699 0.0
C1437 C 0.18107 0.10078 0.81446 0.0
O1438 O 0.18585 0.1107 0.83313 0.0
O1439 O 0.19343 0.10374 0.79691 0.0
O1440 O 0.19104 0.15811 0.85888 0.0
O1441 O 0.20093 0.16701 0.82352 0.0
O1442 O 0.41079 0.99447 0.07694 0.0
Cd1443 Cd 0.39775 0.97612 0.04984 0.0
Cd1444 Cd 0.37705 0.95855 0.08875 0.0
O1445 O 0.38657 0.98846 0.10515 0.0
O1446 O 0.41445 0.99181 0.02463 0.0
O1447 O 0.37699 0.99265 0.02718 0.0
C1448 C 0.39533 0.99927 0.01701 0.0
C1449 C 0.34223 0.93965 0.09182 0.0
C1450 C 0.40378 0.99883 0.09699 0.0
C1451 C 0.41337 0.93107 0.06446 0.0
O1452 O 0.40345 0.93585 0.08313 0.0
O1453 O 0.41041 0.94343 0.04691 0.0
O1454 O 0.35604 0.94103 0.10888 0.0
O1455 O 0.34714 0.95092 0.07352 0.0
O1456 O 0.93102 0.07829 0.6107 0.0
Cd1457 Cd 0.92541 0.05559 0.6371 0.0
Cd1458 Cd 0.96432 0.03802 0.6164 0.0
O1459 O 0.96724 0.07071 0.60374 0.0
O1460 O 0.90527 0.07311 0.65811 0.0
O1461 O 0.94064 0.06322 0.66702 0.0
C1462 C 0.92233 0.07449 0.67192 0.0
C1463 C 0.99714 0.01487 0.61882 0.0
C1464 C 0.9497 0.08308 0.60078 0.0
C1465 C 0.91716 0.01531 0.61037 0.0
O1466 O 0.93721 0.01967 0.60336 0.0
O1467 O 0.909 0.02568 0.62758 0.0
O1468 O 0.98952 0.02233 0.5997 0.0
O1469 O 0.98697 0.02149 0.63717 0.0
O1470 O 0.49447 0.6872 0.85336 0.0
Cd1471 Cd 0.47613 0.71431 0.8664 0.0
Cd1472 Cd 0.45855 0.6754 0.8871 0.0
O1473 O 0.48847 0.659 0.87758 0.0
O1474 O 0.49182 0.73952 0.8497 0.0
O1475 O 0.49266 0.73697 0.88716 0.0
C1476 C 0.49927 0.74714 0.86882 0.0
C1477 C 0.43966 0.67232 0.92192 0.0
C1478 C 0.49884 0.66715 0.86037 0.0
C1479 C 0.43107 0.69969 0.85078 0.0
O1480 O 0.43585 0.68102 0.86071 0.0
O1481 O 0.44343 0.71724 0.85374 0.0
O1482 O 0.44104 0.65527 0.90811 0.0
O1483 O 0.45093 0.69063 0.91702 0.0
O1484 O 0.83313 0.18585 0.1107 0.0
Cd1485 Cd 0.83875 0.20855 0.1371 0.0
Cd1486 Cd 0.79984 0.22612 0.1164 0.0
O1487 O 0.79691 0.19343 0.10374 0.0
O1488 O 0.85888 0.19103 0.15811 0.0
O1489 O 0.82352 0.20092 0.16702 0.0
C1490 C 0.84182 0.18965 0.17192 0.0
C1491 C 0.76701 0.24927 0.11882 0.0
C1492 C 0.81446 0.18107 0.10078 0.0
C1493 C 0.847 0.24883 0.11037 0.0
O1494 O 0.82695 0.24447 0.10336 0.0
O1495 O 0.85515 0.23846 0.12758 0.0
O1496 O 0.77463 0.24181 0.0997 0.0
O1497 O 0.77718 0.24265 0.13717 0.0
O1498 O 0.26968 0.57694 0.35336 0.0
Cd1499 Cd 0.28803 0.54983 0.3664 0.0
Cd1500 Cd 0.3056 0.58874 0.3871 0.0
O1501 O 0.27569 0.60514 0.37758 0.0
O1502 O 0.27234 0.52463 0.3497 0.0
O1503 O 0.27149 0.52718 0.38717 0.0
C1504 C 0.26488 0.517 0.36882 0.0
C1505 C 0.3245 0.59182 0.42192 0.0
C1506 C 0.26532 0.59699 0.36037 0.0
C1507 C 0.33308 0.56445 0.35078 0.0
O1508 O 0.3283 0.58313 0.3607 0.0
O1509 O 0.32072 0.5469 0.35374 0.0
O1510 O 0.32311 0.60888 0.40811 0.0
O1511 O 0.31323 0.57351 0.41702 0.0
O1512 O 0.93102 0.18585 0.65344 0.0
Cd1513 Cd 0.92541 0.20855 0.62705 0.0
Cd1514 Cd 0.96432 0.22612 0.64775 0.0
O1515 O 0.96724 0.19343 0.66041 0.0
O1516 O 0.90527 0.19103 0.60604 0.0
O1517 O 0.94063 0.20092 0.59713 0.0
C1518 C 0.92233 0.18965 0.59223 0.0
C1519 C 0.99714 0.24927 0.64533 0.0
C1520 C 0.9497 0.18107 0.66337 0.0
C1521 C 0.91716 0.24883 0.65378 0.0
O1522 O 0.93721 0.24447 0.66079 0.0
O1523 O 0.909 0.23846 0.63657 0.0
O1524 O 0.98952 0.24181 0.66445 0.0
O1525 O 0.98697 0.24265 0.62699 0.0
O1526 O 0.26968 0.6872 0.91079 0.0
Cd1527 Cd 0.28803 0.71431 0.89775 0.0
Cd1528 Cd 0.3056 0.6754 0.87705 0.0
O1529 O 0.27569 0.659 0.88657 0.0
O1530 O 0.27234 0.73952 0.91445 0.0
O1531 O 0.2715 0.73697 0.87698 0.0
C1532 C 0.26488 0.74714 0.89533 0.0
C1533 C 0.3245 0.67233 0.84223 0.0
C1534 C 0.26532 0.66715 0.90378 0.0
C1535 C 0.33308 0.69969 0.91337 0.0
O1536 O 0.3283 0.68102 0.90345 0.0
O1537 O 0.32072 0.71724 0.91041 0.0
O1538 O 0.32311 0.65527 0.85604 0.0
O1539 O 0.31322 0.69063 0.84713 0.0
O1540 O 0.83313 0.07829 0.15345 0.0
Cd1541 Cd 0.83875 0.05559 0.12705 0.0
Cd1542 Cd 0.79984 0.03802 0.14775 0.0
O1543 O 0.79691 0.07071 0.16041 0.0
O1544 O 0.85888 0.07311 0.10604 0.0
O1545 O 0.82352 0.06322 0.09713 0.0
C1546 C 0.84182 0.07449 0.09223 0.0
C1547 C 0.76701 0.01488 0.14533 0.0
C1548 C 0.81446 0.08308 0.16337 0.0
C1549 C 0.847 0.01531 0.15378 0.0
O1550 O 0.82695 0.01967 0.16079 0.0
O1551 O 0.85515 0.02568 0.13657 0.0
O1552 O 0.77463 0.02233 0.16445 0.0
O1553 O 0.77718 0.02149 0.12699 0.0
O1554 O 0.49447 0.57694 0.41079 0.0
Cd1555 Cd 0.47613 0.54983 0.39775 0.0
Cd1556 Cd 0.45855 0.58874 0.37705 0.0
O1557 O 0.48847 0.60514 0.38657 0.0
O1558 O 0.49182 0.52463 0.41445 0.0
O1559 O 0.49266 0.52717 0.37699 0.0
C1560 C 0.49927 0.51701 0.39533 0.0
C1561 C 0.43966 0.59182 0.34223 0.0
C1562 C 0.49884 0.59699 0.40378 0.0
C1563 C 0.43107 0.56445 0.41337 0.0
O1564 O 0.43586 0.58313 0.40345 0.0
O1565 O 0.44343 0.5469 0.41041 0.0
O1566 O 0.44104 0.60888 0.35604 0.0
O1567 O 0.45093 0.57351 0.34713 0.0
O1568 O 0.60337 0.4372 0.51968 0.0
Cd1569 Cd 0.6164 0.46431 0.53802 0.0
Cd1570 Cd 0.6371 0.4254 0.5556 0.0
O1571 O 0.62758 0.409 0.52568 0.0
O1572 O 0.5997 0.48952 0.52234 0.0
O1573 O 0.63717 0.48697 0.52149 0.0
C1574 C 0.61882 0.49714 0.51488 0.0
C1575 C 0.67192 0.42233 0.57449 0.0
C1576 C 0.61037 0.41715 0.51531 0.0
C1577 C 0.60078 0.44969 0.58308 0.0
O1578 O 0.61071 0.43102 0.5783 0.0
O1579 O 0.60375 0.46724 0.57072 0.0
O1580 O 0.65811 0.40527 0.57311 0.0
O1581 O 0.66702 0.44063 0.56322 0.0
O1582 O 0.10337 0.32694 0.74447 0.0
Cd1583 Cd 0.1164 0.29983 0.72613 0.0
Cd1584 Cd 0.1371 0.33874 0.70855 0.0
O1585 O 0.12758 0.35514 0.73847 0.0
O1586 O 0.0997 0.27463 0.74181 0.0
O1587 O 0.13717 0.27717 0.74266 0.0
C1588 C 0.11882 0.26701 0.74927 0.0
C1589 C 0.17192 0.34182 0.68965 0.0
C1590 C 0.11037 0.34699 0.74883 0.0
C1591 C 0.10078 0.31445 0.68107 0.0
O1592 O 0.11071 0.33313 0.68585 0.0
O1593 O 0.10375 0.2969 0.69343 0.0
O1594 O 0.15811 0.35888 0.69104 0.0
O1595 O 0.16702 0.32351 0.70093 0.0
O1596 O 0.18102 0.8607 0.93585 0.0
Cd1597 Cd 0.17541 0.88709 0.95855 0.0
Cd1598 Cd 0.21432 0.86639 0.97613 0.0
O1599 O 0.21724 0.85374 0.94343 0.0
O1600 O 0.15527 0.90811 0.94104 0.0
O1601 O 0.19064 0.91701 0.95093 0.0
C1602 C 0.17233 0.92192 0.93966 0.0
C1603 C 0.24714 0.86882 0.99927 0.0
C1604 C 0.1997 0.85077 0.93107 0.0
C1605 C 0.16716 0.86037 0.99883 0.0
O1606 O 0.18721 0.85336 0.99447 0.0
O1607 O 0.15901 0.87757 0.98847 0.0
O1608 O 0.23952 0.8497 0.99181 0.0
O1609 O 0.23697 0.88716 0.99266 0.0
O1610 O 0.66079 0.9372 0.24447 0.0
Cd1611 Cd 0.64775 0.96431 0.22613 0.0
Cd1612 Cd 0.62705 0.9254 0.20855 0.0
O1613 O 0.63657 0.909 0.23847 0.0
O1614 O 0.66445 0.98952 0.24181 0.0
O1615 O 0.62699 0.98697 0.24266 0.0
C1616 C 0.64533 0.99714 0.24927 0.0
C1617 C 0.59223 0.92233 0.18966 0.0
C1618 C 0.65378 0.91715 0.24884 0.0
C1619 C 0.66337 0.94969 0.18107 0.0
O1620 O 0.65345 0.93102 0.18585 0.0
O1621 O 0.66041 0.96724 0.19343 0.0
O1622 O 0.60604 0.90527 0.19104 0.0
O1623 O 0.59713 0.94063 0.20093 0.0
O1624 O 0.08313 0.40344 0.93585 0.0
Cd1625 Cd 0.08875 0.37705 0.95855 0.0
Cd1626 Cd 0.04984 0.39775 0.97613 0.0
O1627 O 0.04691 0.4104 0.94343 0.0
O1628 O 0.10888 0.35603 0.94104 0.0
O1629 O 0.07352 0.34713 0.95093 0.0
C1630 C 0.09182 0.34222 0.93966 0.0
C1631 C 0.01701 0.39533 0.99927 0.0
C1632 C 0.06446 0.41337 0.93107 0.0
C1633 C 0.097 0.40378 0.99883 0.0
O1634 O 0.07695 0.41078 0.99447 0.0
O1635 O 0.10515 0.38657 0.98847 0.0
O1636 O 0.02463 0.41445 0.99181 0.0
O1637 O 0.02718 0.37698 0.99266 0.0
O1638 O 0.66079 0.82694 0.51968 0.0
Cd1639 Cd 0.64775 0.79983 0.53803 0.0
Cd1640 Cd 0.62705 0.83874 0.5556 0.0
O1641 O 0.63657 0.85514 0.52568 0.0
O1642 O 0.66445 0.77463 0.52234 0.0
O1643 O 0.62699 0.77717 0.52149 0.0
C1644 C 0.64533 0.767 0.51488 0.0
C1645 C 0.59223 0.84182 0.57449 0.0
C1646 C 0.65378 0.84699 0.51532 0.0
C1647 C 0.66337 0.81445 0.58308 0.0
O1648 O 0.65345 0.83313 0.5783 0.0
O1649 O 0.66041 0.7969 0.57072 0.0
O1650 O 0.60604 0.85888 0.57311 0.0
O1651 O 0.59713 0.82351 0.56322 0.0
O1652 O 0.18102 0.90344 0.8283 0.0
Cd1653 Cd 0.17541 0.87705 0.8056 0.0
Cd1654 Cd 0.21432 0.89775 0.78803 0.0
O1655 O 0.21724 0.9104 0.82072 0.0
O1656 O 0.15527 0.85603 0.82311 0.0
O1657 O 0.19064 0.84713 0.81322 0.0
C1658 C 0.17233 0.84222 0.82449 0.0
C1659 C 0.24714 0.89533 0.76488 0.0
C1660 C 0.19969 0.91337 0.83308 0.0
C1661 C 0.16716 0.90378 0.76532 0.0
O1662 O 0.18721 0.91078 0.76968 0.0
O1663 O 0.15901 0.88657 0.77568 0.0
O1664 O 0.23952 0.91445 0.77234 0.0
O1665 O 0.23697 0.87698 0.77149 0.0
O1666 O 0.58313 0.3607 0.3283 0.0
Cd1667 Cd 0.58875 0.38709 0.3056 0.0
Cd1668 Cd 0.54984 0.36639 0.28803 0.0
O1669 O 0.54691 0.35374 0.32072 0.0
O1670 O 0.60889 0.40811 0.32311 0.0
O1671 O 0.57352 0.41701 0.31322 0.0
C1672 C 0.59182 0.42191 0.3245 0.0
C1673 C 0.51701 0.36882 0.26488 0.0
C1674 C 0.56446 0.35078 0.33308 0.0
C1675 C 0.597 0.36037 0.26532 0.0
O1676 O 0.57695 0.35336 0.26968 0.0
O1677 O 0.60515 0.37757 0.27568 0.0
O1678 O 0.52463 0.3497 0.27234 0.0
O1679 O 0.52718 0.38716 0.27149 0.0
O1680 O 0.49447 0.91078 0.07694 0.0
Cd1681 Cd 0.47613 0.89775 0.04984 0.0
Cd1682 Cd 0.45855 0.87705 0.08875 0.0
O1683 O 0.48847 0.88657 0.10515 0.0
O1684 O 0.49182 0.91445 0.02463 0.0
O1685 O 0.49266 0.87698 0.02718 0.0
C1686 C 0.49927 0.89533 0.01701 0.0
C1687 C 0.43966 0.84222 0.09182 0.0
C1688 C 0.49884 0.90378 0.09699 0.0
C1689 C 0.43107 0.91337 0.06446 0.0
O1690 O 0.43585 0.90344 0.08313 0.0
O1691 O 0.44343 0.9104 0.04691 0.0
O1692 O 0.44104 0.85603 0.10888 0.0
O1693 O 0.45093 0.84713 0.07352 0.0
O1694 O 0.60337 0.74447 0.82694 0.0
Cd1695 Cd 0.6164 0.72612 0.79984 0.0
Cd1696 Cd 0.6371 0.70855 0.83875 0.0
O1697 O 0.62758 0.73846 0.85515 0.0
O1698 O 0.5997 0.74181 0.77463 0.0
O1699 O 0.63717 0.74265 0.77718 0.0
C1700 C 0.61882 0.74927 0.76701 0.0
C1701 C 0.67192 0.68965 0.84182 0.0
C1702 C 0.61037 0.74883 0.84699 0.0
C1703 C 0.60078 0.68107 0.81446 0.0
O1704 O 0.61071 0.68585 0.83313 0.0
O1705 O 0.60375 0.69343 0.79691 0.0
O1706 O 0.65811 0.69103 0.85888 0.0
O1707 O 0.66702 0.70092 0.82352 0.0
O1708 O 0.76968 0.85336 0.57694 0.0
Cd1709 Cd 0.78803 0.86639 0.54984 0.0
Cd1710 Cd 0.8056 0.88709 0.58875 0.0
O1711 O 0.77569 0.87757 0.60515 0.0
O1712 O 0.77234 0.8497 0.52463 0.0
O1713 O 0.7715 0.88716 0.52718 0.0
C1714 C 0.76488 0.86882 0.51701 0.0
C1715 C 0.8245 0.92191 0.59182 0.0
C1716 C 0.76532 0.86037 0.59699 0.0
C1717 C 0.83308 0.85078 0.56446 0.0
O1718 O 0.8283 0.8607 0.58313 0.0
O1719 O 0.82072 0.85374 0.54691 0.0
O1720 O 0.82311 0.90811 0.60888 0.0
O1721 O 0.81322 0.91701 0.57352 0.0
O1722 O 0.66079 0.01967 0.32694 0.0
Cd1723 Cd 0.64775 0.03802 0.29984 0.0
Cd1724 Cd 0.62705 0.0556 0.33875 0.0
O1725 O 0.63657 0.02568 0.35515 0.0
O1726 O 0.66445 0.02233 0.27463 0.0
O1727 O 0.62699 0.02149 0.27718 0.0
C1728 C 0.64533 0.01487 0.26701 0.0
C1729 C 0.59223 0.07449 0.34182 0.0
C1730 C 0.65378 0.01531 0.34699 0.0
C1731 C 0.66337 0.08308 0.31446 0.0
O1732 O 0.65345 0.07829 0.33313 0.0
O1733 O 0.66041 0.07071 0.29691 0.0
O1734 O 0.60604 0.07311 0.35888 0.0
O1735 O 0.59714 0.06322 0.32352 0.0
O1736 O 0.49447 0.85336 0.68721 0.0
Cd1737 Cd 0.47613 0.86639 0.71431 0.0
Cd1738 Cd 0.45855 0.88709 0.6754 0.0
O1739 O 0.48847 0.87757 0.659 0.0
O1740 O 0.49181 0.8497 0.73952 0.0
O1741 O 0.49266 0.88716 0.73697 0.0
C1742 C 0.49927 0.86882 0.74714 0.0
C1743 C 0.43966 0.92191 0.67233 0.0
C1744 C 0.49884 0.86037 0.66716 0.0
C1745 C 0.43107 0.85077 0.69969 0.0
O1746 O 0.43585 0.8607 0.68102 0.0
O1747 O 0.44343 0.85374 0.71724 0.0
O1748 O 0.44104 0.90811 0.65527 0.0
O1749 O 0.45093 0.91701 0.69063 0.0
O1750 O 0.66079 0.74447 0.43721 0.0
Cd1751 Cd 0.64775 0.72612 0.46431 0.0
Cd1752 Cd 0.62705 0.70855 0.4254 0.0
O1753 O 0.63657 0.73846 0.409 0.0
O1754 O 0.66445 0.74181 0.48952 0.0
O1755 O 0.62699 0.74265 0.48697 0.0
C1756 C 0.64533 0.74927 0.49714 0.0
C1757 C 0.59223 0.68965 0.42233 0.0
C1758 C 0.65378 0.74883 0.41716 0.0
C1759 C 0.66337 0.68107 0.44969 0.0
O1760 O 0.65345 0.68585 0.43102 0.0
O1761 O 0.66041 0.69343 0.46724 0.0
O1762 O 0.60604 0.69103 0.40527 0.0
O1763 O 0.59713 0.70092 0.44063 0.0
O1764 O 0.76968 0.91078 0.18721 0.0
Cd1765 Cd 0.78803 0.89775 0.21431 0.0
Cd1766 Cd 0.8056 0.87705 0.1754 0.0
O1767 O 0.77569 0.88657 0.159 0.0
O1768 O 0.77234 0.91445 0.23952 0.0
O1769 O 0.7715 0.87698 0.23697 0.0
C1770 C 0.76488 0.89533 0.24714 0.0
C1771 C 0.8245 0.84223 0.17233 0.0
C1772 C 0.76532 0.90378 0.16716 0.0
C1773 C 0.83308 0.91337 0.19969 0.0
O1774 O 0.8283 0.90344 0.18102 0.0
O1775 O 0.82072 0.9104 0.21724 0.0
O1776 O 0.82311 0.85603 0.15527 0.0
O1777 O 0.81322 0.84713 0.19063 0.0
O1778 O 0.60337 0.01967 0.93721 0.0
Cd1779 Cd 0.6164 0.03802 0.96431 0.0
Cd1780 Cd 0.6371 0.0556 0.9254 0.0
O1781 O 0.62758 0.02568 0.909 0.0
O1782 O 0.5997 0.02233 0.98952 0.0
O1783 O 0.63717 0.02149 0.98697 0.0
C1784 C 0.61882 0.01488 0.99714 0.0
C1785 C 0.67192 0.07449 0.92233 0.0
C1786 C 0.61037 0.01531 0.91716 0.0
C1787 C 0.60078 0.08308 0.94969 0.0
O1788 O 0.61071 0.07829 0.93102 0.0
O1789 O 0.60375 0.07071 0.96724 0.0
O1790 O 0.65811 0.07311 0.90527 0.0
O1791 O 0.66702 0.06322 0.94063 0.0
O1792 O 0.07695 0.99447 0.41079 0.0
Cd1793 Cd 0.04984 0.97612 0.39775 0.0
Cd1794 Cd 0.08875 0.95855 0.37705 0.0
O1795 O 0.10515 0.98846 0.38657 0.0
O1796 O 0.02463 0.99181 0.41445 0.0
O1797 O 0.02718 0.99265 0.37698 0.0
C1798 C 0.01701 0.99927 0.39533 0.0
C1799 C 0.09182 0.93965 0.34223 0.0
C1800 C 0.097 0.99883 0.40378 0.0
C1801 C 0.06446 0.93107 0.41337 0.0
O1802 O 0.08313 0.93585 0.40345 0.0
O1803 O 0.04691 0.94343 0.41041 0.0
O1804 O 0.10888 0.94103 0.35604 0.0
O1805 O 0.07352 0.95092 0.34713 0.0
O1806 O 0.51968 0.32694 0.16079 0.0
Cd1807 Cd 0.53803 0.29983 0.14775 0.0
Cd1808 Cd 0.5556 0.33874 0.12705 0.0
O1809 O 0.52569 0.35514 0.13657 0.0
O1810 O 0.52234 0.27463 0.16445 0.0
O1811 O 0.5215 0.27717 0.12699 0.0
C1812 C 0.51488 0.26701 0.14533 0.0
C1813 C 0.5745 0.34182 0.09223 0.0
C1814 C 0.51532 0.34699 0.15378 0.0
C1815 C 0.58308 0.31445 0.16337 0.0
O1816 O 0.5783 0.33313 0.15344 0.0
O1817 O 0.57072 0.2969 0.16041 0.0
O1818 O 0.57311 0.35888 0.10604 0.0
O1819 O 0.56323 0.32351 0.09713 0.0
O1820 O 0.18721 0.76967 0.91078 0.0
Cd1821 Cd 0.21432 0.78802 0.89775 0.0
Cd1822 Cd 0.1754 0.8056 0.87705 0.0
O1823 O 0.159 0.77568 0.88657 0.0
O1824 O 0.23952 0.77233 0.91445 0.0
O1825 O 0.23697 0.77149 0.87698 0.0
C1826 C 0.24714 0.76487 0.89533 0.0
C1827 C 0.17233 0.82449 0.84223 0.0
C1828 C 0.16716 0.76531 0.90378 0.0
C1829 C 0.1997 0.83308 0.91337 0.0
O1830 O 0.18102 0.82829 0.90344 0.0
O1831 O 0.21724 0.82071 0.91041 0.0
O1832 O 0.15527 0.82311 0.85604 0.0
O1833 O 0.19064 0.81322 0.84713 0.0
O1834 O 0.74447 0.4372 0.66079 0.0
Cd1835 Cd 0.72613 0.46431 0.64775 0.0
Cd1836 Cd 0.70855 0.4254 0.62705 0.0
O1837 O 0.73847 0.409 0.63657 0.0
O1838 O 0.74181 0.48952 0.66445 0.0
O1839 O 0.74266 0.48697 0.62698 0.0
C1840 C 0.74927 0.49714 0.64533 0.0
C1841 C 0.68966 0.42233 0.59223 0.0
C1842 C 0.74884 0.41715 0.65378 0.0
C1843 C 0.68107 0.44969 0.66337 0.0
O1844 O 0.68586 0.43102 0.65345 0.0
O1845 O 0.69343 0.46724 0.6604 0.0
O1846 O 0.69104 0.40526 0.60604 0.0
O1847 O 0.70093 0.44063 0.59713 0.0
O1848 O 0.07695 0.76967 0.35336 0.0
Cd1849 Cd 0.04984 0.78802 0.3664 0.0
Cd1850 Cd 0.08875 0.8056 0.3871 0.0
O1851 O 0.10515 0.77568 0.37758 0.0
O1852 O 0.02463 0.77233 0.3497 0.0
O1853 O 0.02718 0.77149 0.38716 0.0
C1854 C 0.01701 0.76487 0.36882 0.0
C1855 C 0.09182 0.82449 0.42192 0.0
C1856 C 0.097 0.76531 0.36037 0.0
C1857 C 0.06446 0.83308 0.35078 0.0
O1858 O 0.08313 0.82829 0.36071 0.0
O1859 O 0.04691 0.82071 0.35374 0.0
O1860 O 0.10888 0.82311 0.40811 0.0
O1861 O 0.07352 0.81322 0.41702 0.0
O1862 O 0.74447 0.32694 0.10336 0.0
Cd1863 Cd 0.72613 0.29983 0.1164 0.0
Cd1864 Cd 0.70855 0.33874 0.1371 0.0
O1865 O 0.73847 0.35514 0.12758 0.0
O1866 O 0.74182 0.27463 0.0997 0.0
O1867 O 0.74266 0.27718 0.13717 0.0
C1868 C 0.74927 0.26701 0.11882 0.0
C1869 C 0.68966 0.34181 0.17192 0.0
C1870 C 0.74884 0.34699 0.11037 0.0
C1871 C 0.68107 0.31445 0.10078 0.0
O1872 O 0.68586 0.33313 0.1107 0.0
O1873 O 0.69343 0.2969 0.10374 0.0
O1874 O 0.69104 0.35888 0.15811 0.0
O1875 O 0.70093 0.32351 0.16702 0.0
O1876 O 0.18721 0.99447 0.85337 0.0
Cd1877 Cd 0.21431 0.97612 0.8664 0.0
Cd1878 Cd 0.1754 0.95855 0.8871 0.0
O1879 O 0.159 0.98846 0.87758 0.0
O1880 O 0.23952 0.99181 0.8497 0.0
O1881 O 0.23697 0.99265 0.88717 0.0
C1882 C 0.24714 0.99927 0.86882 0.0
C1883 C 0.17233 0.93965 0.92192 0.0
C1884 C 0.16716 0.99883 0.86037 0.0
C1885 C 0.1997 0.93107 0.85078 0.0
O1886 O 0.18102 0.93585 0.86071 0.0
O1887 O 0.21724 0.94343 0.85374 0.0
O1888 O 0.15527 0.94103 0.90811 0.0
O1889 O 0.19064 0.95092 0.91702 0.0
O1890 O 0.51968 0.4372 0.60336 0.0
Cd1891 Cd 0.53803 0.46431 0.6164 0.0
Cd1892 Cd 0.5556 0.4254 0.6371 0.0
O1893 O 0.52569 0.409 0.62758 0.0
O1894 O 0.52234 0.48952 0.5997 0.0
O1895 O 0.5215 0.48697 0.63716 0.0
C1896 C 0.51488 0.49714 0.61882 0.0
C1897 C 0.5745 0.42232 0.67192 0.0
C1898 C 0.51532 0.41715 0.61037 0.0
C1899 C 0.58308 0.44969 0.60078 0.0
O1900 O 0.5783 0.43102 0.61071 0.0
O1901 O 0.57072 0.46724 0.60374 0.0
O1902 O 0.57311 0.40527 0.65811 0.0
O1903 O 0.56323 0.44063 0.66702 0.0
O1904 O 0.41079 0.57694 0.49447 0.0
Cd1905 Cd 0.39775 0.54983 0.47613 0.0
Cd1906 Cd 0.37705 0.58874 0.45855 0.0
O1907 O 0.38658 0.60514 0.48847 0.0
O1908 O 0.41445 0.52463 0.49181 0.0
O1909 O 0.37699 0.52717 0.49266 0.0
C1910 C 0.39533 0.517 0.49927 0.0
C1911 C 0.34223 0.59182 0.43965 0.0
C1912 C 0.40378 0.59699 0.49883 0.0
C1913 C 0.41337 0.56445 0.43107 0.0
O1914 O 0.40345 0.58313 0.43585 0.0
O1915 O 0.41041 0.5469 0.44343 0.0
O1916 O 0.35604 0.60888 0.44104 0.0
O1917 O 0.34714 0.57351 0.45093 0.0
O1918 O 0.91079 0.6872 0.26968 0.0
Cd1919 Cd 0.89775 0.71431 0.28802 0.0
Cd1920 Cd 0.87705 0.6754 0.3056 0.0
O1921 O 0.88658 0.659 0.27568 0.0
O1922 O 0.91445 0.73952 0.27234 0.0
O1923 O 0.87699 0.73697 0.27149 0.0
C1924 C 0.89533 0.74714 0.26488 0.0
C1925 C 0.84223 0.67233 0.3245 0.0
C1926 C 0.90378 0.66715 0.26532 0.0
C1927 C 0.91337 0.69969 0.33308 0.0
O1928 O 0.90345 0.68102 0.3283 0.0
O1929 O 0.91041 0.71724 0.32072 0.0
O1930 O 0.85604 0.65526 0.32311 0.0
O1931 O 0.84714 0.69063 0.31322 0.0
O1932 O 0.82695 0.16078 0.01968 0.0
Cd1933 Cd 0.79984 0.14775 0.03803 0.0
Cd1934 Cd 0.83875 0.12705 0.0556 0.0
O1935 O 0.85515 0.13657 0.02569 0.0
O1936 O 0.77463 0.16445 0.02234 0.0
O1937 O 0.77718 0.12698 0.02149 0.0
C1938 C 0.76701 0.14533 0.01488 0.0
C1939 C 0.84182 0.09223 0.0745 0.0
C1940 C 0.847 0.15378 0.01532 0.0
C1941 C 0.81446 0.16337 0.08308 0.0
O1942 O 0.83313 0.15344 0.0783 0.0
O1943 O 0.79691 0.1604 0.07072 0.0
O1944 O 0.85889 0.10603 0.07311 0.0
O1945 O 0.82352 0.09713 0.06322 0.0
O1946 O 0.35337 0.07694 0.76968 0.0
Cd1947 Cd 0.3664 0.04983 0.78802 0.0
Cd1948 Cd 0.3871 0.08874 0.8056 0.0
O1949 O 0.37758 0.10514 0.77568 0.0
O1950 O 0.3497 0.02463 0.77234 0.0
O1951 O 0.38717 0.02717 0.77149 0.0
C1952 C 0.36882 0.01701 0.76488 0.0
C1953 C 0.42192 0.09182 0.8245 0.0
C1954 C 0.36037 0.09699 0.76531 0.0
C1955 C 0.35078 0.06445 0.83308 0.0
O1956 O 0.36071 0.08313 0.8283 0.0
O1957 O 0.35375 0.0469 0.82072 0.0
O1958 O 0.40811 0.10888 0.82311 0.0
O1959 O 0.41702 0.07351 0.81322 0.0
O1960 O 0.93721 0.60336 0.01968 0.0
Cd1961 Cd 0.96432 0.61639 0.03802 0.0
Cd1962 Cd 0.92541 0.63709 0.0556 0.0
O1963 O 0.90901 0.62757 0.02568 0.0
O1964 O 0.98952 0.5997 0.02234 0.0
O1965 O 0.98697 0.63716 0.02149 0.0
C1966 C 0.99714 0.61882 0.01488 0.0
C1967 C 0.92233 0.67192 0.07449 0.0
C1968 C 0.91716 0.61037 0.01531 0.0
C1969 C 0.9497 0.60077 0.08308 0.0
O1970 O 0.93102 0.6107 0.0783 0.0
O1971 O 0.96724 0.60374 0.07072 0.0
O1972 O 0.90527 0.65811 0.07311 0.0
O1973 O 0.94064 0.66701 0.06322 0.0
O1974 O 0.35337 0.1872 0.49447 0.0
Cd1975 Cd 0.3664 0.21431 0.47613 0.0
Cd1976 Cd 0.3871 0.1754 0.45855 0.0
O1977 O 0.37758 0.159 0.48847 0.0
O1978 O 0.3497 0.23952 0.49181 0.0
O1979 O 0.38717 0.23697 0.49266 0.0
C1980 C 0.36882 0.24714 0.49927 0.0
C1981 C 0.42192 0.17233 0.43966 0.0
C1982 C 0.36037 0.16715 0.49884 0.0
C1983 C 0.35078 0.19969 0.43107 0.0
O1984 O 0.36071 0.18102 0.43585 0.0
O1985 O 0.35375 0.21724 0.44343 0.0
O1986 O 0.40811 0.15527 0.44104 0.0
O1987 O 0.41702 0.19063 0.45093 0.0
O1988 O 0.82695 0.10336 0.24447 0.0
Cd1989 Cd 0.79984 0.11639 0.22613 0.0
Cd1990 Cd 0.83875 0.13709 0.20855 0.0
O1991 O 0.85515 0.12757 0.23846 0.0
O1992 O 0.77463 0.0997 0.24181 0.0
O1993 O 0.77718 0.13716 0.24266 0.0
C1994 C 0.76701 0.11882 0.24927 0.0
C1995 C 0.84182 0.17191 0.18965 0.0
C1996 C 0.847 0.11037 0.24883 0.0
C1997 C 0.81446 0.10078 0.18107 0.0
O1998 O 0.83313 0.1107 0.18585 0.0
O1999 O 0.79691 0.10374 0.19343 0.0
O2000 O 0.85889 0.15811 0.19104 0.0
O2001 O 0.82352 0.16701 0.20093 0.0
O2002 O 0.43721 0.66078 0.74447 0.0
Cd2003 Cd 0.46432 0.64775 0.72612 0.0
Cd2004 Cd 0.4254 0.62705 0.70855 0.0
O2005 O 0.409 0.63657 0.73847 0.0
O2006 O 0.48952 0.66445 0.74181 0.0
O2007 O 0.48697 0.62698 0.74266 0.0
C2008 C 0.49714 0.64533 0.74927 0.0
C2009 C 0.42233 0.59223 0.68965 0.0
C2010 C 0.41716 0.65378 0.74883 0.0
C2011 C 0.44969 0.66337 0.68107 0.0
O2012 O 0.43102 0.65344 0.68585 0.0
O2013 O 0.46724 0.6604 0.69343 0.0
O2014 O 0.40527 0.60604 0.69104 0.0
O2015 O 0.44063 0.59713 0.70093 0.0
O2016 O 0.51968 0.60336 0.43721 0.0
Cd2017 Cd 0.53803 0.61639 0.46431 0.0
Cd2018 Cd 0.5556 0.63709 0.4254 0.0
O2019 O 0.52569 0.62757 0.409 0.0
O2020 O 0.52234 0.5997 0.48952 0.0
O2021 O 0.5215 0.63716 0.48697 0.0
C2022 C 0.51488 0.61882 0.49714 0.0
C2023 C 0.5745 0.67191 0.42233 0.0
C2024 C 0.51532 0.61037 0.41716 0.0
C2025 C 0.58308 0.60077 0.44969 0.0
O2026 O 0.5783 0.6107 0.43102 0.0
O2027 O 0.57072 0.60374 0.46724 0.0
O2028 O 0.57311 0.65811 0.40527 0.0
O2029 O 0.56322 0.66701 0.44063 0.0
O2030 O 0.41079 0.76967 0.68721 0.0
Cd2031 Cd 0.39775 0.78802 0.71431 0.0
Cd2032 Cd 0.37705 0.8056 0.6754 0.0
O2033 O 0.38657 0.77568 0.659 0.0
O2034 O 0.41445 0.77233 0.73952 0.0
O2035 O 0.37699 0.77149 0.73697 0.0
C2036 C 0.39533 0.76487 0.74714 0.0
C2037 C 0.34223 0.82449 0.67233 0.0
C2038 C 0.40378 0.76531 0.66716 0.0
C2039 C 0.41337 0.83308 0.69969 0.0
O2040 O 0.40345 0.82829 0.68102 0.0
O2041 O 0.41041 0.82071 0.71724 0.0
O2042 O 0.35604 0.82311 0.65527 0.0
O2043 O 0.34714 0.81322 0.69063 0.0
O2044 O 0.24447 0.66078 0.93721 0.0
Cd2045 Cd 0.22613 0.64775 0.96431 0.0
Cd2046 Cd 0.20855 0.62705 0.9254 0.0
O2047 O 0.23847 0.63657 0.909 0.0
O2048 O 0.24182 0.66445 0.98952 0.0
O2049 O 0.24266 0.62698 0.98697 0.0
C2050 C 0.24927 0.64533 0.99714 0.0
C2051 C 0.18966 0.59223 0.92233 0.0
C2052 C 0.24884 0.65378 0.91716 0.0
C2053 C 0.18107 0.66337 0.94969 0.0
O2054 O 0.18585 0.65344 0.93102 0.0
O2055 O 0.19343 0.6604 0.96724 0.0
O2056 O 0.19104 0.60604 0.90527 0.0
O2057 O 0.20093 0.59713 0.94063 0.0
O2058 O 0.35337 0.49447 0.18721 0.0
Cd2059 Cd 0.3664 0.47612 0.21431 0.0
Cd2060 Cd 0.3871 0.45855 0.1754 0.0
O2061 O 0.37758 0.48846 0.159 0.0
O2062 O 0.3497 0.49181 0.23952 0.0
O2063 O 0.38717 0.49265 0.23697 0.0
C2064 C 0.36882 0.49927 0.24714 0.0
C2065 C 0.42193 0.43965 0.17233 0.0
C2066 C 0.36037 0.49883 0.16716 0.0
C2067 C 0.35078 0.43107 0.19969 0.0
O2068 O 0.36071 0.43585 0.18102 0.0
O2069 O 0.35375 0.44343 0.21724 0.0
O2070 O 0.40812 0.44103 0.15527 0.0
O2071 O 0.41702 0.45092 0.19063 0.0
O2072 O 0.51968 0.66078 0.82694 0.0
Cd2073 Cd 0.53803 0.64775 0.79984 0.0
Cd2074 Cd 0.5556 0.62705 0.83875 0.0
O2075 O 0.52569 0.63657 0.85515 0.0
O2076 O 0.52234 0.66445 0.77463 0.0
O2077 O 0.5215 0.62698 0.77718 0.0
C2078 C 0.51488 0.64533 0.76701 0.0
C2079 C 0.5745 0.59222 0.84182 0.0
C2080 C 0.51532 0.65378 0.84699 0.0
C2081 C 0.58308 0.66337 0.81446 0.0
O2082 O 0.5783 0.65344 0.83313 0.0
O2083 O 0.57072 0.6604 0.79691 0.0
O2084 O 0.57311 0.60603 0.85888 0.0
O2085 O 0.56323 0.59713 0.82352 0.0
O2086 O 0.35337 0.76967 0.07694 0.0
Cd2087 Cd 0.3664 0.78802 0.04984 0.0
Cd2088 Cd 0.3871 0.8056 0.08875 0.0
O2089 O 0.37758 0.77568 0.10515 0.0
O2090 O 0.3497 0.77233 0.02463 0.0
O2091 O 0.38717 0.77149 0.02718 0.0
C2092 C 0.36882 0.76488 0.01701 0.0
C2093 C 0.42192 0.82449 0.09182 0.0
C2094 C 0.36037 0.76531 0.09699 0.0
C2095 C 0.35078 0.83308 0.06446 0.0
O2096 O 0.36071 0.82829 0.08313 0.0
O2097 O 0.35375 0.82071 0.04691 0.0
O2098 O 0.40811 0.82311 0.10888 0.0
O2099 O 0.41702 0.81322 0.07352 0.0
O2100 O 0.24447 0.60336 0.32694 0.0
Cd2101 Cd 0.22613 0.61639 0.29984 0.0
Cd2102 Cd 0.20855 0.63709 0.33875 0.0
O2103 O 0.23847 0.62757 0.35515 0.0
O2104 O 0.24181 0.5997 0.27463 0.0
O2105 O 0.24266 0.63716 0.27718 0.0
C2106 C 0.24927 0.61882 0.26701 0.0
C2107 C 0.18966 0.67191 0.34182 0.0
C2108 C 0.24884 0.61037 0.34699 0.0
C2109 C 0.18107 0.60078 0.31446 0.0
O2110 O 0.18585 0.6107 0.33313 0.0
O2111 O 0.19343 0.60374 0.29691 0.0
O2112 O 0.19104 0.65811 0.35888 0.0
O2113 O 0.20093 0.66701 0.32352 0.0
O2114 O 0.41079 0.49447 0.57694 0.0
Cd2115 Cd 0.39775 0.47612 0.54984 0.0
Cd2116 Cd 0.37705 0.45855 0.58875 0.0
O2117 O 0.38657 0.48846 0.60515 0.0
O2118 O 0.41445 0.49181 0.52463 0.0
O2119 O 0.37699 0.49265 0.52718 0.0
C2120 C 0.39533 0.49927 0.51701 0.0
C2121 C 0.34223 0.43965 0.59182 0.0
C2122 C 0.40378 0.49883 0.59699 0.0
C2123 C 0.41337 0.43107 0.56446 0.0
O2124 O 0.40345 0.43585 0.58313 0.0
O2125 O 0.41041 0.44343 0.54691 0.0
O2126 O 0.35604 0.44103 0.60888 0.0
O2127 O 0.34714 0.45092 0.57352 0.0
O2128 O 0.93102 0.57829 0.11071 0.0
Cd2129 Cd 0.9254 0.5556 0.1371 0.0
Cd2130 Cd 0.96432 0.53802 0.1164 0.0
O2131 O 0.96724 0.57071 0.10374 0.0
O2132 O 0.90527 0.57311 0.15811 0.0
O2133 O 0.94064 0.56322 0.16702 0.0
C2134 C 0.92233 0.57449 0.17192 0.0
C2135 C 0.99714 0.51487 0.11882 0.0
C2136 C 0.9497 0.58308 0.10078 0.0
C2137 C 0.91716 0.51531 0.11037 0.0
O2138 O 0.93721 0.51967 0.10336 0.0
O2139 O 0.909 0.52568 0.12758 0.0
O2140 O 0.98952 0.52233 0.0997 0.0
O2141 O 0.98697 0.52149 0.13716 0.0
O2142 O 0.49447 0.1872 0.35336 0.0
Cd2143 Cd 0.47613 0.21431 0.3664 0.0
Cd2144 Cd 0.45855 0.1754 0.3871 0.0
O2145 O 0.48847 0.159 0.37758 0.0
O2146 O 0.49182 0.23952 0.3497 0.0
O2147 O 0.49266 0.23697 0.38717 0.0
C2148 C 0.49927 0.24714 0.36882 0.0
C2149 C 0.43966 0.17233 0.42192 0.0
C2150 C 0.49884 0.16715 0.36037 0.0
C2151 C 0.43107 0.19969 0.35078 0.0
O2152 O 0.43585 0.18102 0.3607 0.0
O2153 O 0.44343 0.21724 0.35374 0.0
O2154 O 0.44104 0.15526 0.40811 0.0
O2155 O 0.45093 0.19063 0.41702 0.0
O2156 O 0.83313 0.68585 0.6107 0.0
Cd2157 Cd 0.83875 0.70855 0.6371 0.0
Cd2158 Cd 0.79984 0.72612 0.6164 0.0
O2159 O 0.79691 0.69343 0.60374 0.0
O2160 O 0.85888 0.69103 0.65811 0.0
O2161 O 0.82352 0.70092 0.66702 0.0
C2162 C 0.84182 0.68965 0.67192 0.0
C2163 C 0.76701 0.74927 0.61882 0.0
C2164 C 0.81446 0.68107 0.60078 0.0
C2165 C 0.847 0.74883 0.61037 0.0
O2166 O 0.82695 0.74447 0.60336 0.0
O2167 O 0.85515 0.73846 0.62758 0.0
O2168 O 0.77463 0.74181 0.5997 0.0
O2169 O 0.77718 0.74265 0.63717 0.0
O2170 O 0.26968 0.07694 0.85336 0.0
Cd2171 Cd 0.28803 0.04983 0.8664 0.0
Cd2172 Cd 0.3056 0.08874 0.8871 0.0
O2173 O 0.27569 0.10514 0.87758 0.0
O2174 O 0.27234 0.02463 0.8497 0.0
O2175 O 0.2715 0.02717 0.88716 0.0
C2176 C 0.26488 0.01701 0.86882 0.0
C2177 C 0.3245 0.09182 0.92192 0.0
C2178 C 0.26532 0.09699 0.86037 0.0
C2179 C 0.33308 0.06445 0.85078 0.0
O2180 O 0.3283 0.08313 0.86071 0.0
O2181 O 0.32072 0.0469 0.85374 0.0
O2182 O 0.32311 0.10888 0.90811 0.0
O2183 O 0.31323 0.07351 0.91702 0.0
O2184 O 0.93102 0.68585 0.15344 0.0
Cd2185 Cd 0.9254 0.70855 0.12705 0.0
Cd2186 Cd 0.96432 0.72612 0.14775 0.0
O2187 O 0.96724 0.69343 0.16041 0.0
O2188 O 0.90527 0.69103 0.10604 0.0
O2189 O 0.94064 0.70092 0.09713 0.0
C2190 C 0.92233 0.68965 0.09223 0.0
C2191 C 0.99714 0.74927 0.14533 0.0
C2192 C 0.9497 0.68107 0.16337 0.0
C2193 C 0.91716 0.74883 0.15378 0.0
O2194 O 0.93721 0.74447 0.16079 0.0
O2195 O 0.909 0.73846 0.13657 0.0
O2196 O 0.98952 0.74181 0.16445 0.0
O2197 O 0.98697 0.74265 0.12698 0.0
O2198 O 0.26968 0.1872 0.41079 0.0
Cd2199 Cd 0.28803 0.21431 0.39775 0.0
Cd2200 Cd 0.3056 0.1754 0.37705 0.0
O2201 O 0.27569 0.159 0.38657 0.0
O2202 O 0.27234 0.23952 0.41445 0.0
O2203 O 0.2715 0.23697 0.37699 0.0
C2204 C 0.26488 0.24714 0.39533 0.0
C2205 C 0.3245 0.17233 0.34223 0.0
C2206 C 0.26532 0.16715 0.40378 0.0
C2207 C 0.33308 0.19969 0.41337 0.0
O2208 O 0.3283 0.18102 0.40344 0.0
O2209 O 0.32072 0.21724 0.41041 0.0
O2210 O 0.32311 0.15526 0.35604 0.0
O2211 O 0.31323 0.19063 0.34713 0.0
O2212 O 0.83313 0.57829 0.65345 0.0
Cd2213 Cd 0.83875 0.55559 0.62705 0.0
Cd2214 Cd 0.79984 0.53802 0.64775 0.0
O2215 O 0.79691 0.57071 0.66041 0.0
O2216 O 0.85888 0.57311 0.60604 0.0
O2217 O 0.82352 0.56322 0.59713 0.0
C2218 C 0.84182 0.57449 0.59223 0.0
C2219 C 0.76701 0.51487 0.64533 0.0
C2220 C 0.81446 0.58308 0.66337 0.0
C2221 C 0.847 0.51531 0.65378 0.0
O2222 O 0.82695 0.51967 0.66079 0.0
O2223 O 0.85515 0.52568 0.63657 0.0
O2224 O 0.77463 0.52233 0.66445 0.0
O2225 O 0.77718 0.52149 0.62698 0.0
O2226 O 0.49447 0.07694 0.91079 0.0
Cd2227 Cd 0.47613 0.04983 0.89775 0.0
Cd2228 Cd 0.45855 0.08874 0.87705 0.0
O2229 O 0.48847 0.10514 0.88657 0.0
O2230 O 0.49182 0.02463 0.91445 0.0
O2231 O 0.49266 0.02717 0.87698 0.0
C2232 C 0.49927 0.01701 0.89533 0.0
C2233 C 0.43966 0.09182 0.84223 0.0
C2234 C 0.49884 0.09699 0.90378 0.0
C2235 C 0.43107 0.06445 0.91337 0.0
O2236 O 0.43586 0.08313 0.90345 0.0
O2237 O 0.44343 0.0469 0.91041 0.0
O2238 O 0.44104 0.10888 0.85604 0.0
O2239 O 0.45093 0.07351 0.84713 0.0
O2240 O 0.60337 0.9372 0.01968 0.0
Cd2241 Cd 0.6164 0.96431 0.03802 0.0
Cd2242 Cd 0.6371 0.9254 0.0556 0.0
O2243 O 0.62758 0.909 0.02568 0.0
O2244 O 0.5997 0.98952 0.02234 0.0
O2245 O 0.63717 0.98697 0.02149 0.0
C2246 C 0.61882 0.99714 0.01488 0.0
C2247 C 0.67192 0.92233 0.07449 0.0
C2248 C 0.61037 0.91715 0.01531 0.0
C2249 C 0.60078 0.94969 0.08308 0.0
O2250 O 0.61071 0.93102 0.0783 0.0
O2251 O 0.60375 0.96724 0.07072 0.0
O2252 O 0.65811 0.90527 0.07311 0.0
O2253 O 0.66702 0.94063 0.06322 0.0
O2254 O 0.10337 0.82694 0.24447 0.0
Cd2255 Cd 0.1164 0.79983 0.22613 0.0
Cd2256 Cd 0.1371 0.83874 0.20855 0.0
O2257 O 0.12758 0.85514 0.23847 0.0
O2258 O 0.0997 0.77463 0.24181 0.0
O2259 O 0.13717 0.77718 0.24266 0.0
C2260 C 0.11882 0.76701 0.24927 0.0
C2261 C 0.17192 0.84182 0.18965 0.0
C2262 C 0.11037 0.84699 0.24884 0.0
C2263 C 0.10078 0.81445 0.18107 0.0
O2264 O 0.11071 0.83313 0.18585 0.0
O2265 O 0.10375 0.7969 0.19343 0.0
O2266 O 0.15811 0.85888 0.19104 0.0
O2267 O 0.16702 0.82351 0.20093 0.0
O2268 O 0.18102 0.3607 0.43585 0.0
Cd2269 Cd 0.17541 0.38709 0.45855 0.0
Cd2270 Cd 0.21432 0.36639 0.47613 0.0
O2271 O 0.21724 0.35374 0.44343 0.0
O2272 O 0.15527 0.40811 0.44104 0.0
O2273 O 0.19064 0.41701 0.45093 0.0
C2274 C 0.17233 0.42192 0.43966 0.0
C2275 C 0.24714 0.36882 0.49927 0.0
C2276 C 0.1997 0.35077 0.43107 0.0
C2277 C 0.16716 0.36037 0.49884 0.0
O2278 O 0.18721 0.35336 0.49447 0.0
O2279 O 0.15901 0.37757 0.48847 0.0
O2280 O 0.23952 0.3497 0.49181 0.0
O2281 O 0.23697 0.38716 0.49266 0.0
O2282 O 0.66079 0.4372 0.74447 0.0
Cd2283 Cd 0.64775 0.46431 0.72613 0.0
Cd2284 Cd 0.62705 0.4254 0.70855 0.0
O2285 O 0.63658 0.409 0.73847 0.0
O2286 O 0.66445 0.48952 0.74181 0.0
O2287 O 0.62699 0.48697 0.74266 0.0
C2288 C 0.64533 0.49714 0.74927 0.0
C2289 C 0.59223 0.42233 0.68966 0.0
C2290 C 0.65378 0.41715 0.74883 0.0
C2291 C 0.66337 0.44969 0.68107 0.0
O2292 O 0.65345 0.43102 0.68585 0.0
O2293 O 0.66041 0.46724 0.69343 0.0
O2294 O 0.60604 0.40526 0.69104 0.0
O2295 O 0.59714 0.44063 0.70093 0.0
O2296 O 0.08313 0.90344 0.43585 0.0
Cd2297 Cd 0.08875 0.87705 0.45855 0.0
Cd2298 Cd 0.04984 0.89775 0.47612 0.0
O2299 O 0.04691 0.9104 0.44343 0.0
O2300 O 0.10889 0.85604 0.44104 0.0
O2301 O 0.07352 0.84713 0.45093 0.0
C2302 C 0.09182 0.84223 0.43965 0.0
C2303 C 0.01701 0.89533 0.49927 0.0
C2304 C 0.06446 0.91337 0.43107 0.0
C2305 C 0.097 0.90378 0.49883 0.0
O2306 O 0.07695 0.91078 0.49447 0.0
O2307 O 0.10515 0.88657 0.48846 0.0
O2308 O 0.02463 0.91445 0.49181 0.0
O2309 O 0.02718 0.87698 0.49266 0.0
O2310 O 0.66079 0.32694 0.01968 0.0
Cd2311 Cd 0.64775 0.29983 0.03802 0.0
Cd2312 Cd 0.62705 0.33874 0.0556 0.0
O2313 O 0.63658 0.35514 0.02568 0.0
O2314 O 0.66445 0.27463 0.02234 0.0
O2315 O 0.62699 0.27717 0.02149 0.0
C2316 C 0.64533 0.267 0.01488 0.0
C2317 C 0.59223 0.34182 0.0745 0.0
C2318 C 0.65378 0.34699 0.01532 0.0
C2319 C 0.66337 0.31445 0.08308 0.0
O2320 O 0.65345 0.33313 0.0783 0.0
O2321 O 0.66041 0.2969 0.07072 0.0
O2322 O 0.60604 0.35888 0.07311 0.0
O2323 O 0.59714 0.32351 0.06322 0.0
O2324 O 0.18102 0.40344 0.3283 0.0
Cd2325 Cd 0.17541 0.37705 0.3056 0.0
Cd2326 Cd 0.21432 0.39775 0.28803 0.0
O2327 O 0.21724 0.4104 0.32072 0.0
O2328 O 0.15527 0.35603 0.32311 0.0
O2329 O 0.19064 0.34713 0.31322 0.0
C2330 C 0.17233 0.34222 0.32449 0.0
C2331 C 0.24714 0.39533 0.26488 0.0
C2332 C 0.1997 0.41337 0.33308 0.0
C2333 C 0.16716 0.40378 0.26532 0.0
O2334 O 0.18721 0.41078 0.26968 0.0
O2335 O 0.15901 0.38657 0.27568 0.0
O2336 O 0.23952 0.41445 0.27234 0.0
O2337 O 0.23697 0.37698 0.27149 0.0
O2338 O 0.58313 0.8607 0.8283 0.0
Cd2339 Cd 0.58875 0.88709 0.8056 0.0
Cd2340 Cd 0.54984 0.86639 0.78803 0.0
O2341 O 0.54691 0.85374 0.82072 0.0
O2342 O 0.60889 0.90811 0.82311 0.0
O2343 O 0.57352 0.91701 0.81322 0.0
C2344 C 0.59182 0.92191 0.8245 0.0
C2345 C 0.51701 0.86882 0.76488 0.0
C2346 C 0.56446 0.85078 0.83308 0.0
C2347 C 0.597 0.86037 0.76532 0.0
O2348 O 0.57695 0.85336 0.76968 0.0
O2349 O 0.60515 0.87757 0.77569 0.0
O2350 O 0.52463 0.8497 0.77234 0.0
O2351 O 0.52718 0.88716 0.77149 0.0
O2352 O 0.49447 0.41078 0.57694 0.0
Cd2353 Cd 0.47613 0.39775 0.54984 0.0
Cd2354 Cd 0.45855 0.37705 0.58875 0.0
O2355 O 0.48847 0.38657 0.60515 0.0
O2356 O 0.49182 0.41445 0.52463 0.0
O2357 O 0.49266 0.37698 0.52718 0.0
C2358 C 0.49927 0.39533 0.51701 0.0
C2359 C 0.43966 0.34223 0.59182 0.0
C2360 C 0.49884 0.40378 0.59699 0.0
C2361 C 0.43107 0.41337 0.56446 0.0
O2362 O 0.43585 0.40344 0.58313 0.0
O2363 O 0.44343 0.4104 0.54691 0.0
O2364 O 0.44104 0.35603 0.60888 0.0
O2365 O 0.45093 0.34713 0.57352 0.0
O2366 O 0.60337 0.24447 0.32695 0.0
Cd2367 Cd 0.6164 0.22612 0.29984 0.0
Cd2368 Cd 0.6371 0.20855 0.33875 0.0
O2369 O 0.62758 0.23846 0.35515 0.0
O2370 O 0.5997 0.24181 0.27463 0.0
O2371 O 0.63717 0.24265 0.27718 0.0
C2372 C 0.61882 0.24927 0.26701 0.0
C2373 C 0.67192 0.18965 0.34182 0.0
C2374 C 0.61037 0.24883 0.347 0.0
C2375 C 0.60078 0.18107 0.31446 0.0
O2376 O 0.61071 0.18585 0.33313 0.0
O2377 O 0.60375 0.19343 0.29691 0.0
O2378 O 0.65811 0.19103 0.35888 0.0
O2379 O 0.66702 0.20092 0.32352 0.0
O2380 O 0.76968 0.35336 0.07694 0.0
Cd2381 Cd 0.78803 0.36639 0.04984 0.0
Cd2382 Cd 0.8056 0.38709 0.08875 0.0
O2383 O 0.77569 0.37757 0.10515 0.0
O2384 O 0.77234 0.3497 0.02463 0.0
O2385 O 0.7715 0.38716 0.02718 0.0
C2386 C 0.76488 0.36882 0.01701 0.0
C2387 C 0.8245 0.42191 0.09182 0.0
C2388 C 0.76532 0.36037 0.09699 0.0
C2389 C 0.83308 0.35078 0.06446 0.0
O2390 O 0.8283 0.3607 0.08313 0.0
O2391 O 0.82072 0.35374 0.04691 0.0
O2392 O 0.82311 0.40811 0.10888 0.0
O2393 O 0.81322 0.41701 0.07352 0.0
O2394 O 0.66079 0.51967 0.82694 0.0
Cd2395 Cd 0.64775 0.53802 0.79984 0.0
Cd2396 Cd 0.62705 0.55559 0.83875 0.0
O2397 O 0.63657 0.52568 0.85515 0.0
O2398 O 0.66445 0.52233 0.77463 0.0
O2399 O 0.62699 0.52149 0.77718 0.0
C2400 C 0.64533 0.51487 0.76701 0.0
C2401 C 0.59223 0.57449 0.84182 0.0
C2402 C 0.65378 0.51531 0.84699 0.0
C2403 C 0.66337 0.58308 0.81446 0.0
O2404 O 0.65345 0.57829 0.83313 0.0
O2405 O 0.66041 0.57071 0.79691 0.0
O2406 O 0.60604 0.57311 0.85888 0.0
O2407 O 0.59713 0.56322 0.82352 0.0
O2408 O 0.49447 0.35336 0.18721 0.0
Cd2409 Cd 0.47613 0.36639 0.21431 0.0
Cd2410 Cd 0.45855 0.38709 0.1754 0.0
O2411 O 0.48847 0.37757 0.159 0.0
O2412 O 0.49181 0.3497 0.23952 0.0
O2413 O 0.49266 0.38716 0.23697 0.0
C2414 C 0.49927 0.36882 0.24714 0.0
C2415 C 0.43966 0.42191 0.17233 0.0
C2416 C 0.49884 0.36037 0.16716 0.0
C2417 C 0.43107 0.35078 0.19969 0.0
O2418 O 0.43585 0.3607 0.18102 0.0
O2419 O 0.44343 0.35374 0.21724 0.0
O2420 O 0.44104 0.40811 0.15527 0.0
O2421 O 0.45093 0.41701 0.19063 0.0
O2422 O 0.66079 0.24447 0.93721 0.0
Cd2423 Cd 0.64775 0.22612 0.96431 0.0
Cd2424 Cd 0.62705 0.20855 0.9254 0.0
O2425 O 0.63657 0.23846 0.909 0.0
O2426 O 0.66445 0.24181 0.98952 0.0
O2427 O 0.62699 0.24265 0.98697 0.0
C2428 C 0.64533 0.24927 0.99714 0.0
C2429 C 0.59223 0.18965 0.92233 0.0
C2430 C 0.65378 0.24883 0.91716 0.0
C2431 C 0.66337 0.18107 0.94969 0.0
O2432 O 0.65345 0.18585 0.93102 0.0
O2433 O 0.66041 0.19343 0.96724 0.0
O2434 O 0.60604 0.19103 0.90527 0.0
O2435 O 0.59714 0.20092 0.94063 0.0
O2436 O 0.76968 0.41078 0.68721 0.0
Cd2437 Cd 0.78803 0.39775 0.71431 0.0
Cd2438 Cd 0.8056 0.37705 0.6754 0.0
O2439 O 0.77569 0.38657 0.659 0.0
O2440 O 0.77234 0.41445 0.73952 0.0
O2441 O 0.7715 0.37698 0.73697 0.0
C2442 C 0.76488 0.39533 0.74714 0.0
C2443 C 0.8245 0.34223 0.67233 0.0
C2444 C 0.76532 0.40378 0.66716 0.0
C2445 C 0.83308 0.41337 0.69969 0.0
O2446 O 0.8283 0.40344 0.68102 0.0
O2447 O 0.82072 0.4104 0.71724 0.0
O2448 O 0.82311 0.35603 0.65527 0.0
O2449 O 0.81322 0.34713 0.69063 0.0
O2450 O 0.60337 0.51967 0.43721 0.0
Cd2451 Cd 0.6164 0.53802 0.46431 0.0
Cd2452 Cd 0.6371 0.5556 0.4254 0.0
O2453 O 0.62758 0.52568 0.409 0.0
O2454 O 0.5997 0.52233 0.48952 0.0
O2455 O 0.63717 0.52149 0.48697 0.0
C2456 C 0.61882 0.51487 0.49714 0.0
C2457 C 0.67192 0.57449 0.42233 0.0
C2458 C 0.61037 0.51531 0.41716 0.0
C2459 C 0.60078 0.58308 0.44969 0.0
O2460 O 0.61071 0.57829 0.43102 0.0
O2461 O 0.60375 0.57071 0.46724 0.0
O2462 O 0.65811 0.57311 0.40527 0.0
O2463 O 0.66702 0.56322 0.44063 0.0
O2464 O 0.07695 0.49447 0.91079 0.0
Cd2465 Cd 0.04984 0.47612 0.89775 0.0
Cd2466 Cd 0.08875 0.45855 0.87705 0.0
O2467 O 0.10515 0.48846 0.88657 0.0
O2468 O 0.02463 0.49181 0.91445 0.0
O2469 O 0.02718 0.49265 0.87698 0.0
C2470 C 0.01701 0.49927 0.89533 0.0
C2471 C 0.09182 0.43965 0.84223 0.0
C2472 C 0.097 0.49883 0.90378 0.0
C2473 C 0.06446 0.43107 0.91337 0.0
O2474 O 0.08313 0.43585 0.90344 0.0
O2475 O 0.04691 0.44343 0.91041 0.0
O2476 O 0.10889 0.44103 0.85604 0.0
O2477 O 0.07352 0.45092 0.84713 0.0
O2478 O 0.51968 0.82694 0.66079 0.0
Cd2479 Cd 0.53803 0.79983 0.64775 0.0
Cd2480 Cd 0.5556 0.83874 0.62705 0.0
O2481 O 0.52569 0.85514 0.63657 0.0
O2482 O 0.52234 0.77463 0.66445 0.0
O2483 O 0.5215 0.77717 0.62699 0.0
C2484 C 0.51488 0.76701 0.64533 0.0
C2485 C 0.5745 0.84182 0.59223 0.0
C2486 C 0.51532 0.84699 0.65378 0.0
C2487 C 0.58308 0.81445 0.66337 0.0
O2488 O 0.5783 0.83313 0.65345 0.0
O2489 O 0.57072 0.7969 0.66041 0.0
O2490 O 0.57311 0.85888 0.60604 0.0
O2491 O 0.56323 0.82351 0.59713 0.0
O2492 O 0.18721 0.26967 0.41078 0.0
Cd2493 Cd 0.21432 0.28802 0.39775 0.0
Cd2494 Cd 0.1754 0.3056 0.37705 0.0
O2495 O 0.159 0.27568 0.38657 0.0
O2496 O 0.23952 0.27233 0.41445 0.0
O2497 O 0.23697 0.27149 0.37698 0.0
C2498 C 0.24714 0.26487 0.39533 0.0
C2499 C 0.17233 0.32449 0.34223 0.0
C2500 C 0.16716 0.26531 0.40378 0.0
C2501 C 0.1997 0.33308 0.41337 0.0
O2502 O 0.18102 0.32829 0.40344 0.0
O2503 O 0.21724 0.32071 0.41041 0.0
O2504 O 0.15527 0.32311 0.35604 0.0
O2505 O 0.19064 0.31322 0.34713 0.0
O2506 O 0.74447 0.9372 0.16079 0.0
Cd2507 Cd 0.72613 0.96431 0.14775 0.0
Cd2508 Cd 0.70855 0.9254 0.12705 0.0
O2509 O 0.73847 0.909 0.13657 0.0
O2510 O 0.74182 0.98952 0.16445 0.0
O2511 O 0.74266 0.98697 0.12699 0.0
C2512 C 0.74927 0.99714 0.14533 0.0
C2513 C 0.68966 0.92233 0.09223 0.0
C2514 C 0.74884 0.91715 0.15378 0.0
C2515 C 0.68107 0.94969 0.16337 0.0
O2516 O 0.68585 0.93102 0.15344 0.0
O2517 O 0.69343 0.96724 0.16041 0.0
O2518 O 0.69104 0.90526 0.10604 0.0
O2519 O 0.70093 0.94063 0.09713 0.0
O2520 O 0.07695 0.26967 0.85336 0.0
Cd2521 Cd 0.04984 0.28802 0.8664 0.0
Cd2522 Cd 0.08875 0.3056 0.8871 0.0
O2523 O 0.10515 0.27568 0.87758 0.0
O2524 O 0.02463 0.27233 0.8497 0.0
O2525 O 0.02718 0.27149 0.88717 0.0
C2526 C 0.01701 0.26487 0.86882 0.0
C2527 C 0.09182 0.32449 0.92192 0.0
C2528 C 0.097 0.26531 0.86037 0.0
C2529 C 0.06446 0.33308 0.85078 0.0
O2530 O 0.08313 0.32829 0.86071 0.0
O2531 O 0.04691 0.32071 0.85374 0.0
O2532 O 0.10889 0.32311 0.90811 0.0
O2533 O 0.07352 0.31322 0.91702 0.0
O2534 O 0.74447 0.82694 0.60336 0.0
Cd2535 Cd 0.72613 0.79983 0.6164 0.0
Cd2536 Cd 0.70855 0.83874 0.6371 0.0
O2537 O 0.73847 0.85514 0.62758 0.0
O2538 O 0.74182 0.77463 0.5997 0.0
O2539 O 0.74266 0.77717 0.63717 0.0
C2540 C 0.74927 0.76701 0.61882 0.0
C2541 C 0.68966 0.84182 0.67192 0.0
C2542 C 0.74884 0.84699 0.61037 0.0
C2543 C 0.68107 0.81445 0.60078 0.0
O2544 O 0.68585 0.83313 0.61071 0.0
O2545 O 0.69343 0.7969 0.60374 0.0
O2546 O 0.69104 0.85888 0.65811 0.0
O2547 O 0.70093 0.82351 0.66702 0.0
O2548 O 0.18721 0.49447 0.35337 0.0
Cd2549 Cd 0.21432 0.47612 0.3664 0.0
Cd2550 Cd 0.1754 0.45855 0.3871 0.0
O2551 O 0.159 0.48846 0.37758 0.0
O2552 O 0.23952 0.49181 0.3497 0.0
O2553 O 0.23697 0.49265 0.38717 0.0
C2554 C 0.24714 0.49927 0.36882 0.0
C2555 C 0.17233 0.43965 0.42192 0.0
C2556 C 0.16716 0.49883 0.36037 0.0
C2557 C 0.1997 0.43107 0.35078 0.0
O2558 O 0.18102 0.43585 0.36071 0.0
O2559 O 0.21724 0.44343 0.35374 0.0
O2560 O 0.15527 0.44103 0.40811 0.0
O2561 O 0.19064 0.45092 0.41702 0.0
O2562 O 0.51968 0.9372 0.10336 0.0
Cd2563 Cd 0.53803 0.96431 0.1164 0.0
Cd2564 Cd 0.5556 0.9254 0.1371 0.0
O2565 O 0.52569 0.909 0.12758 0.0
O2566 O 0.52234 0.98952 0.0997 0.0
O2567 O 0.5215 0.98697 0.13717 0.0
C2568 C 0.51488 0.99714 0.11882 0.0
C2569 C 0.5745 0.92233 0.17192 0.0
C2570 C 0.51532 0.91715 0.11037 0.0
C2571 C 0.58308 0.94969 0.10078 0.0
O2572 O 0.5783 0.93102 0.11071 0.0
O2573 O 0.57072 0.96724 0.10374 0.0
O2574 O 0.57311 0.90526 0.15811 0.0
O2575 O 0.56322 0.94063 0.16702 0.0
O2576 O 0.41079 0.07694 0.99447 0.0
Cd2577 Cd 0.39775 0.04983 0.97613 0.0
Cd2578 Cd 0.37705 0.08874 0.95855 0.0
O2579 O 0.38658 0.10514 0.98847 0.0
O2580 O 0.41445 0.02463 0.99181 0.0
O2581 O 0.37699 0.02717 0.99266 0.0
C2582 C 0.39533 0.01701 0.99927 0.0
C2583 C 0.34223 0.09182 0.93965 0.0
C2584 C 0.40378 0.09699 0.99884 0.0
C2585 C 0.41337 0.06445 0.93107 0.0
O2586 O 0.40345 0.08313 0.93585 0.0
O2587 O 0.41041 0.0469 0.94343 0.0
O2588 O 0.35604 0.10888 0.94104 0.0
O2589 O 0.34714 0.07351 0.95093 0.0
O2590 O 0.91079 0.1872 0.76968 0.0
Cd2591 Cd 0.89775 0.21431 0.78802 0.0
Cd2592 Cd 0.87705 0.1754 0.8056 0.0
O2593 O 0.88658 0.159 0.77568 0.0
O2594 O 0.91445 0.23952 0.77234 0.0
O2595 O 0.87699 0.23697 0.77149 0.0
C2596 C 0.89533 0.24714 0.76488 0.0
C2597 C 0.84223 0.17232 0.8245 0.0
C2598 C 0.90378 0.16715 0.76531 0.0
C2599 C 0.91337 0.19969 0.83308 0.0
O2600 O 0.90345 0.18102 0.8283 0.0
O2601 O 0.91041 0.21724 0.82072 0.0
O2602 O 0.85604 0.15526 0.82311 0.0
O2603 O 0.84714 0.19063 0.81322 0.0
O2604 O 0.82695 0.66078 0.51968 0.0
Cd2605 Cd 0.79984 0.64775 0.53803 0.0
Cd2606 Cd 0.83875 0.62705 0.5556 0.0
O2607 O 0.85515 0.63657 0.52569 0.0
O2608 O 0.77463 0.66445 0.52234 0.0
O2609 O 0.77718 0.62698 0.52149 0.0
C2610 C 0.76701 0.64533 0.51488 0.0
C2611 C 0.84182 0.59223 0.5745 0.0
C2612 C 0.847 0.65378 0.51532 0.0
C2613 C 0.81446 0.66337 0.58308 0.0
O2614 O 0.83313 0.65344 0.5783 0.0
O2615 O 0.79691 0.6604 0.57072 0.0
O2616 O 0.85889 0.60603 0.57311 0.0
O2617 O 0.82352 0.59713 0.56322 0.0
O2618 O 0.35337 0.57694 0.26968 0.0
Cd2619 Cd 0.3664 0.54983 0.28802 0.0
Cd2620 Cd 0.3871 0.58874 0.3056 0.0
O2621 O 0.37758 0.60514 0.27568 0.0
O2622 O 0.3497 0.52463 0.27234 0.0
O2623 O 0.38717 0.52717 0.27149 0.0
C2624 C 0.36882 0.51701 0.26488 0.0
C2625 C 0.42192 0.59182 0.3245 0.0
C2626 C 0.36037 0.59699 0.26532 0.0
C2627 C 0.35078 0.56445 0.33308 0.0
O2628 O 0.36071 0.58313 0.3283 0.0
O2629 O 0.35375 0.5469 0.32072 0.0
O2630 O 0.40811 0.60888 0.32311 0.0
O2631 O 0.41702 0.57351 0.31322 0.0
O2632 O 0.93721 0.10336 0.51968 0.0
Cd2633 Cd 0.96432 0.11639 0.53802 0.0
Cd2634 Cd 0.9254 0.13709 0.5556 0.0
O2635 O 0.909 0.12757 0.52568 0.0
O2636 O 0.98952 0.0997 0.52234 0.0
O2637 O 0.98697 0.13716 0.52149 0.0
C2638 C 0.99714 0.11882 0.51488 0.0
C2639 C 0.92233 0.17191 0.5745 0.0
C2640 C 0.91716 0.11037 0.51532 0.0
C2641 C 0.9497 0.10078 0.58308 0.0
O2642 O 0.93102 0.1107 0.5783 0.0
O2643 O 0.96724 0.10374 0.57072 0.0
O2644 O 0.90527 0.15811 0.57311 0.0
O2645 O 0.94064 0.16701 0.56322 0.0
O2646 O 0.35337 0.6872 0.99447 0.0
Cd2647 Cd 0.3664 0.71431 0.97613 0.0
Cd2648 Cd 0.3871 0.6754 0.95855 0.0
O2649 O 0.37758 0.659 0.98847 0.0
O2650 O 0.3497 0.73952 0.99181 0.0
O2651 O 0.38717 0.73697 0.99266 0.0
C2652 C 0.36882 0.74714 0.99927 0.0
C2653 C 0.42192 0.67233 0.93965 0.0
C2654 C 0.36037 0.66715 0.99884 0.0
C2655 C 0.35078 0.69969 0.93107 0.0
O2656 O 0.36071 0.68102 0.93585 0.0
O2657 O 0.35375 0.71724 0.94343 0.0
O2658 O 0.40811 0.65526 0.94104 0.0
O2659 O 0.41702 0.69063 0.95093 0.0
O2660 O 0.82695 0.60336 0.74447 0.0
Cd2661 Cd 0.79984 0.61639 0.72613 0.0
Cd2662 Cd 0.83875 0.63709 0.70855 0.0
O2663 O 0.85515 0.62757 0.73847 0.0
O2664 O 0.77463 0.5997 0.74181 0.0
O2665 O 0.77718 0.63716 0.74266 0.0
C2666 C 0.76701 0.61882 0.74927 0.0
C2667 C 0.84182 0.67191 0.68965 0.0
C2668 C 0.847 0.61037 0.74883 0.0
C2669 C 0.81446 0.60078 0.68107 0.0
O2670 O 0.83313 0.6107 0.68585 0.0
O2671 O 0.79691 0.60374 0.69343 0.0
O2672 O 0.85889 0.65811 0.69104 0.0
O2673 O 0.82352 0.66701 0.70093 0.0
O2674 O 0.43721 0.16078 0.24447 0.0
Cd2675 Cd 0.46432 0.14775 0.22612 0.0
Cd2676 Cd 0.4254 0.12705 0.20855 0.0
O2677 O 0.409 0.13657 0.23846 0.0
O2678 O 0.48952 0.16445 0.24181 0.0
O2679 O 0.48697 0.12698 0.24266 0.0
C2680 C 0.49714 0.14533 0.24927 0.0
C2681 C 0.42233 0.09223 0.18965 0.0
C2682 C 0.41716 0.15378 0.24883 0.0
C2683 C 0.4497 0.16337 0.18107 0.0
O2684 O 0.43102 0.15344 0.18585 0.0
O2685 O 0.46724 0.1604 0.19343 0.0
O2686 O 0.40527 0.10603 0.19104 0.0
O2687 O 0.44064 0.09713 0.20093 0.0
loop_
_geom_bond_atom_site_label_1
_geom_bond_atom_site_label_2
_geom_bond_distance
_geom_bond_site_symmetry_2
_ccdc_geom_bond_type
O0 Cd1 2.223 . S
O0 C8 1.315 . S
Cd1 O0 2.223 . S
Cd1 O4 2.297 1_455 S
Cd1 O5 2.439 . S
Cd1 O11 2.240 . S
Cd2 O3 2.240 . S
Cd2 O10 2.223 . S
Cd2 O12 2.297 . S
Cd2 O13 2.439 . S
O3 Cd2 2.240 . S
O3 C8 1.279 . S
O4 Cd1 2.297 1_655 S
O4 C6 1.247 . S
O5 Cd1 2.439 . S
O5 C6 1.208 1_455 S
C6 O4 1.247 . S
C6 O5 1.208 1_655 S
C7 O12 1.247 . S
C7 O13 1.208 . S
C8 O0 1.315 . S
C8 O3 1.279 . S
C9 O10 1.315 . S
C9 O11 1.279 . S
O10 Cd2 2.223 . S
O10 C9 1.315 . S
O11 Cd1 2.240 . S
O11 C9 1.279 . S
O12 Cd2 2.297 . S
O12 C7 1.247 . S
O13 Cd2 2.439 . S
O13 C7 1.208 . S
O14 Cd15 2.223 . S
O14 C22 1.315 . S
Cd15 O14 2.223 . S
Cd15 O18 2.297 . S
Cd15 O19 2.439 . S
Cd15 O25 2.240 . S
Cd16 O17 2.240 . S
Cd16 O24 2.223 . S
Cd16 O26 2.297 . S
Cd16 O27 2.439 . S
O17 Cd16 2.240 . S
O17 C22 1.279 . S
O18 Cd15 2.297 . S
O18 C20 1.247 . S
O19 Cd15 2.439 . S
O19 C20 1.208 . S
C20 O18 1.247 . S
C20 O19 1.208 . S
C21 O26 1.247 . S
C21 O27 1.208 . S
C22 O14 1.315 . S
C22 O17 1.279 . S
C23 O24 1.315 . S
C23 O25 1.279 . S
O24 Cd16 2.223 . S
O24 C23 1.315 . S
O25 Cd15 2.240 . S
O25 C23 1.279 . S
O26 Cd16 2.297 . S
O26 C21 1.247 . S
O27 Cd16 2.439 . S
O27 C21 1.208 . S
O28 Cd29 2.223 . S
O28 C36 1.315 . S
Cd29 O28 2.223 . S
Cd29 O32 2.297 . S
Cd29 O33 2.439 . S
Cd29 O39 2.240 . S
Cd30 O31 2.240 . S
Cd30 O38 2.223 . S
Cd30 O40 2.297 . S
Cd30 O41 2.439 . S
O31 Cd30 2.240 . S
O31 C36 1.279 . S
O32 Cd29 2.297 . S
O32 C34 1.247 . S
O33 Cd29 2.439 . S
O33 C34 1.208 . S
C34 O32 1.247 . S
C34 O33 1.208 . S
C35 O40 1.247 . S
C35 O41 1.208 . S
C36 O28 1.315 . S
C36 O31 1.279 . S
C37 O38 1.315 . S
C37 O39 1.279 . S
O38 Cd30 2.223 . S
O38 C37 1.315 . S
O39 Cd29 2.240 . S
O39 C37 1.279 . S
O40 Cd30 2.297 . S
O40 C35 1.247 . S
O41 Cd30 2.439 . S
O41 C35 1.208 . S
O42 Cd43 2.223 . S
O42 C50 1.315 . S
Cd43 O42 2.223 . S
Cd43 O46 2.297 1_565 S
Cd43 O47 2.439 . S
Cd43 O53 2.240 . S
Cd44 O45 2.240 . S
Cd44 O52 2.223 . S
Cd44 O54 2.297 . S
Cd44 O55 2.439 . S
O45 Cd44 2.240 . S
O45 C50 1.279 . S
O46 Cd43 2.297 1_545 S
O46 C48 1.247 . S
O47 Cd43 2.439 . S
O47 C48 1.208 1_565 S
C48 O46 1.247 . S
C48 O47 1.208 1_545 S
C49 O54 1.247 . S
C49 O55 1.208 . S
C50 O42 1.315 . S
C50 O45 1.279 . S
C51 O52 1.315 . S
C51 O53 1.279 . S
O52 Cd44 2.223 . S
O52 C51 1.315 . S
O53 Cd43 2.240 . S
O53 C51 1.279 . S
O54 Cd44 2.297 . S
O54 C49 1.247 . S
O55 Cd44 2.439 . S
O55 C49 1.208 . S
O56 Cd57 2.223 . S
O56 C64 1.315 . S
Cd57 O56 2.223 . S
Cd57 O60 2.297 1_455 S
Cd57 O61 2.439 . S
Cd57 O67 2.240 . S
Cd58 O59 2.240 . S
Cd58 O66 2.223 . S
Cd58 O68 2.297 . S
Cd58 O69 2.439 . S
O59 Cd58 2.240 . S
O59 C64 1.279 . S
O60 Cd57 2.297 1_655 S
O60 C62 1.247 . S
O61 Cd57 2.439 . S
O61 C62 1.208 1_455 S
C62 O60 1.247 . S
C62 O61 1.208 1_655 S
C63 O68 1.247 . S
C63 O69 1.208 . S
C64 O56 1.315 . S
C64 O59 1.279 . S
C65 O66 1.315 . S
C65 O67 1.279 . S
O66 Cd58 2.223 . S
O66 C65 1.315 . S
O67 Cd57 2.240 . S
O67 C65 1.279 . S
O68 Cd58 2.297 . S
O68 C63 1.247 . S
O69 Cd58 2.439 . S
O69 C63 1.208 . S
O70 Cd71 2.223 . S
O70 C78 1.315 . S
Cd71 O70 2.223 . S
Cd71 O74 2.297 . S
Cd71 O75 2.439 . S
Cd71 O81 2.240 . S
Cd72 O73 2.240 . S
Cd72 O80 2.223 . S
Cd72 O82 2.297 . S
Cd72 O83 2.439 . S
O73 Cd72 2.240 . S
O73 C78 1.279 . S
O74 Cd71 2.297 . S
O74 C76 1.247 . S
O75 Cd71 2.439 . S
O75 C76 1.208 . S
C76 O74 1.247 . S
C76 O75 1.208 . S
C77 O82 1.247 . S
C77 O83 1.208 . S
C78 O70 1.315 . S
C78 O73 1.279 . S
C79 O80 1.315 . S
C79 O81 1.279 . S
O80 Cd72 2.223 . S
O80 C79 1.315 . S
O81 Cd71 2.240 . S
O81 C79 1.279 . S
O82 Cd72 2.297 . S
O82 C77 1.247 . S
O83 Cd72 2.439 . S
O83 C77 1.208 . S
O84 Cd85 2.223 . S
O84 C92 1.315 . S
Cd85 O84 2.223 . S
Cd85 O88 2.297 . S
Cd85 O89 2.439 . S
Cd85 O95 2.240 . S
Cd86 O87 2.240 . S
Cd86 O94 2.223 . S
Cd86 O96 2.297 . S
Cd86 O97 2.439 . S
O87 Cd86 2.240 . S
O87 C92 1.279 . S
O88 Cd85 2.297 . S
O88 C90 1.247 . S
O89 Cd85 2.439 . S
O89 C90 1.208 . S
C90 O88 1.247 . S
C90 O89 1.208 . S
C91 O96 1.247 . S
C91 O97 1.208 . S
C92 O84 1.315 . S
C92 O87 1.279 . S
C93 O94 1.315 . S
C93 O95 1.279 . S
O94 Cd86 2.223 . S
O94 C93 1.315 . S
O95 Cd85 2.240 . S
O95 C93 1.279 . S
O96 Cd86 2.297 . S
O96 C91 1.247 . S
O97 Cd86 2.439 . S
O97 C91 1.208 . S
O98 Cd99 2.223 . S
O98 C106 1.315 . S
Cd99 O98 2.223 . S
Cd99 O102 2.297 1_565 S
Cd99 O103 2.439 . S
Cd99 O109 2.240 . S
Cd100 O101 2.240 . S
Cd100 O108 2.223 . S
Cd100 O110 2.297 . S
Cd100 O111 2.439 . S
O101 Cd100 2.240 . S
O101 C106 1.279 . S
O102 Cd99 2.297 1_545 S
O102 C104 1.247 . S
O103 Cd99 2.439 . S
O103 C104 1.208 1_565 S
C104 O102 1.247 . S
C104 O103 1.208 1_545 S
C105 O110 1.247 . S
C105 O111 1.208 . S
C106 O98 1.315 . S
C106 O101 1.279 . S
C107 O108 1.315 . S
C107 O109 1.279 . S
O108 Cd100 2.223 . S
O108 C107 1.315 . S
O109 Cd99 2.240 . S
O109 C107 1.279 . S
O110 Cd100 2.297 . S
O110 C105 1.247 . S
O111 Cd100 2.439 . S
O111 C105 1.208 . S
O112 Cd113 2.223 . S
O112 C120 1.315 . S
Cd113 O112 2.223 . S
Cd113 O116 2.297 . S
Cd113 O117 2.439 . S
Cd113 O123 2.240 . S
Cd114 O115 2.240 . S
Cd114 O122 2.223 . S
Cd114 O124 2.297 1_545 S
Cd114 O125 2.439 . S
O115 Cd114 2.240 . S
O115 C120 1.279 . S
O116 Cd113 2.297 . S
O116 C118 1.247 . S
O117 Cd113 2.439 . S
O117 C118 1.208 . S
C118 O116 1.247 . S
C118 O117 1.208 . S
C119 O124 1.247 . S
C119 O125 1.208 1_565 S
C120 O112 1.315 . S
C120 O115 1.279 . S
C121 O122 1.315 . S
C121 O123 1.279 . S
O122 Cd114 2.223 . S
O122 C121 1.315 . S
O123 Cd113 2.240 . S
O123 C121 1.279 . S
O124 Cd114 2.297 1_565 S
O124 C119 1.247 . S
O125 Cd114 2.439 . S
O125 C119 1.208 1_545 S
O126 Cd127 2.223 . S
O126 C134 1.315 . S
Cd127 O126 2.223 . S
Cd127 O130 2.297 1_655 S
Cd127 O131 2.439 . S
Cd127 O137 2.240 . S
Cd128 O129 2.240 . S
Cd128 O136 2.223 . S
Cd128 O138 2.297 . S
Cd128 O139 2.439 . S
O129 Cd128 2.240 . S
O129 C134 1.279 . S
O130 Cd127 2.297 1_455 S
O130 C132 1.247 . S
O131 Cd127 2.439 . S
O131 C132 1.208 1_655 S
C132 O130 1.247 . S
C132 O131 1.208 1_455 S
C133 O138 1.247 . S
C133 O139 1.208 . S
C134 O126 1.315 . S
C134 O129 1.279 . S
C135 O136 1.315 . S
C135 O137 1.279 . S
O136 Cd128 2.223 . S
O136 C135 1.315 . S
O137 Cd127 2.240 . S
O137 C135 1.279 . S
O138 Cd128 2.297 . S
O138 C133 1.247 . S
O139 Cd128 2.439 . S
O139 C133 1.208 . S
O140 Cd141 2.223 . S
O140 C148 1.315 . S
Cd141 O140 2.223 . S
Cd141 O144 2.297 . S
Cd141 O145 2.439 . S
Cd141 O151 2.240 . S
Cd142 O143 2.240 . S
Cd142 O150 2.223 . S
Cd142 O152 2.297 . S
Cd142 O153 2.439 . S
O143 Cd142 2.240 . S
O143 C148 1.279 . S
O144 Cd141 2.297 . S
O144 C146 1.247 . S
O145 Cd141 2.439 . S
O145 C146 1.208 . S
C146 O144 1.247 . S
C146 O145 1.208 . S
C147 O152 1.247 . S
C147 O153 1.208 . S
C148 O140 1.315 . S
C148 O143 1.279 . S
C149 O150 1.315 . S
C149 O151 1.279 . S
O150 Cd142 2.223 . S
O150 C149 1.315 . S
O151 Cd141 2.240 . S
O151 C149 1.279 . S
O152 Cd142 2.297 . S
O152 C147 1.247 . S
O153 Cd142 2.439 . S
O153 C147 1.208 . S
O154 Cd155 2.223 . S
O154 C162 1.315 . S
Cd155 O154 2.223 . S
Cd155 O158 2.297 . S
Cd155 O159 2.439 . S
Cd155 O165 2.240 . S
Cd156 O157 2.240 . S
Cd156 O164 2.223 . S
Cd156 O166 2.297 . S
Cd156 O167 2.439 . S
O157 Cd156 2.240 . S
O157 C162 1.279 . S
O158 Cd155 2.297 . S
O158 C160 1.247 . S
O159 Cd155 2.439 . S
O159 C160 1.208 . S
C160 O158 1.247 . S
C160 O159 1.208 . S
C161 O166 1.247 . S
C161 O167 1.208 . S
C162 O154 1.315 . S
C162 O157 1.279 . S
C163 O164 1.315 . S
C163 O165 1.279 . S
O164 Cd156 2.223 . S
O164 C163 1.315 . S
O165 Cd155 2.240 . S
O165 C163 1.279 . S
O166 Cd156 2.297 . S
O166 C161 1.247 . S
O167 Cd156 2.439 . S
O167 C161 1.208 . S
O168 Cd169 2.223 . S
O168 C176 1.315 . S
Cd169 O168 2.223 . S
Cd169 O172 2.297 . S
Cd169 O173 2.439 . S
Cd169 O179 2.240 . S
Cd170 O171 2.240 . S
Cd170 O178 2.223 . S
Cd170 O180 2.297 . S
Cd170 O181 2.439 . S
O171 Cd170 2.240 . S
O171 C176 1.279 . S
O172 Cd169 2.297 . S
O172 C174 1.247 . S
O173 Cd169 2.439 . S
O173 C174 1.208 . S
C174 O172 1.247 . S
C174 O173 1.208 . S
C175 O180 1.247 . S
C175 O181 1.208 . S
C176 O168 1.315 . S
C176 O171 1.279 . S
C177 O178 1.315 . S
C177 O179 1.279 . S
O178 Cd170 2.223 . S
O178 C177 1.315 . S
O179 Cd169 2.240 . S
O179 C177 1.279 . S
O180 Cd170 2.297 . S
O180 C175 1.247 . S
O181 Cd170 2.439 . S
O181 C175 1.208 . S
O182 Cd183 2.223 . S
O182 C190 1.315 . S
Cd183 O182 2.223 . S
Cd183 O186 2.297 . S
Cd183 O187 2.439 . S
Cd183 O193 2.240 . S
Cd184 O185 2.240 . S
Cd184 O192 2.223 . S
Cd184 O194 2.297 . S
Cd184 O195 2.439 . S
O185 Cd184 2.240 . S
O185 C190 1.279 . S
O186 Cd183 2.297 . S
O186 C188 1.247 . S
O187 Cd183 2.439 . S
O187 C188 1.208 . S
C188 O186 1.247 . S
C188 O187 1.208 . S
C189 O194 1.247 . S
C189 O195 1.208 . S
C190 O182 1.315 . S
C190 O185 1.279 . S
C191 O192 1.315 . S
C191 O193 1.279 . S
O192 Cd184 2.223 . S
O192 C191 1.315 . S
O193 Cd183 2.240 . S
O193 C191 1.279 . S
O194 Cd184 2.297 . S
O194 C189 1.247 . S
O195 Cd184 2.439 . S
O195 C189 1.208 . S
O196 Cd197 2.223 . S
O196 C204 1.315 . S
Cd197 O196 2.223 . S
Cd197 O200 2.297 . S
Cd197 O201 2.439 . S
Cd197 O207 2.240 . S
Cd198 O199 2.240 . S
Cd198 O206 2.223 . S
Cd198 O208 2.297 1_545 S
Cd198 O209 2.439 . S
O199 Cd198 2.240 . S
O199 C204 1.279 . S
O200 Cd197 2.297 . S
O200 C202 1.247 . S
O201 Cd197 2.439 . S
O201 C202 1.208 . S
C202 O200 1.247 . S
C202 O201 1.208 . S
C203 O208 1.247 . S
C203 O209 1.208 1_565 S
C204 O196 1.315 . S
C204 O199 1.279 . S
C205 O206 1.315 . S
C205 O207 1.279 . S
O206 Cd198 2.223 . S
O206 C205 1.315 . S
O207 Cd197 2.240 . S
O207 C205 1.279 . S
O208 Cd198 2.297 1_565 S
O208 C203 1.247 . S
O209 Cd198 2.439 . S
O209 C203 1.208 1_545 S
O210 Cd211 2.223 . S
O210 C218 1.315 . S
Cd211 O210 2.223 . S
Cd211 O214 2.297 1_655 S
Cd211 O215 2.439 . S
Cd211 O221 2.240 . S
Cd212 O213 2.240 . S
Cd212 O220 2.223 . S
Cd212 O222 2.297 . S
Cd212 O223 2.439 . S
O213 Cd212 2.240 . S
O213 C218 1.279 . S
O214 Cd211 2.297 1_455 S
O214 C216 1.247 . S
O215 Cd211 2.439 . S
O215 C216 1.208 1_655 S
C216 O214 1.247 . S
C216 O215 1.208 1_455 S
C217 O222 1.247 . S
C217 O223 1.208 . S
C218 O210 1.315 . S
C218 O213 1.279 . S
C219 O220 1.315 . S
C219 O221 1.279 . S
O220 Cd212 2.223 . S
O220 C219 1.315 . S
O221 Cd211 2.240 . S
O221 C219 1.279 . S
O222 Cd212 2.297 . S
O222 C217 1.247 . S
O223 Cd212 2.439 . S
O223 C217 1.208 . S
O224 Cd225 2.223 . S
O224 C232 1.315 . S
Cd225 O224 2.223 . S
Cd225 O228 2.297 1_554 S
Cd225 O229 2.439 . S
Cd225 O235 2.240 . S
Cd226 O227 2.240 . S
Cd226 O234 2.223 . S
Cd226 O236 2.297 . S
Cd226 O237 2.439 . S
O227 Cd226 2.240 . S
O227 C232 1.279 . S
O228 Cd225 2.297 1_556 S
O228 C230 1.247 . S
O229 Cd225 2.439 . S
O229 C230 1.208 1_554 S
C230 O228 1.247 . S
C230 O229 1.208 1_556 S
C231 O236 1.247 . S
C231 O237 1.208 . S
C232 O224 1.315 . S
C232 O227 1.279 . S
C233 O234 1.315 . S
C233 O235 1.279 . S
O234 Cd226 2.223 . S
O234 C233 1.315 . S
O235 Cd225 2.240 . S
O235 C233 1.279 . S
O236 Cd226 2.297 . S
O236 C231 1.247 . S
O237 Cd226 2.439 . S
O237 C231 1.208 . S
O238 Cd239 2.223 . S
O238 C246 1.315 . S
Cd239 O238 2.223 . S
Cd239 O242 2.297 . S
Cd239 O243 2.439 . S
Cd239 O249 2.240 . S
Cd240 O241 2.240 . S
Cd240 O248 2.223 . S
Cd240 O250 2.297 . S
Cd240 O251 2.439 . S
O241 Cd240 2.240 . S
O241 C246 1.279 . S
O242 Cd239 2.297 . S
O242 C244 1.247 . S
O243 Cd239 2.439 . S
O243 C244 1.208 . S
C244 O242 1.247 . S
C244 O243 1.208 . S
C245 O250 1.247 . S
C245 O251 1.208 . S
C246 O238 1.315 . S
C246 O241 1.279 . S
C247 O248 1.315 . S
C247 O249 1.279 . S
O248 Cd240 2.223 . S
O248 C247 1.315 . S
O249 Cd239 2.240 . S
O249 C247 1.279 . S
O250 Cd240 2.297 . S
O250 C245 1.247 . S
O251 Cd240 2.439 . S
O251 C245 1.208 . S
O252 Cd253 2.223 . S
O252 C260 1.315 . S
Cd253 O252 2.223 . S
Cd253 O256 2.297 . S
Cd253 O257 2.439 . S
Cd253 O263 2.240 . S
Cd254 O255 2.240 . S
Cd254 O262 2.223 . S
Cd254 O264 2.297 . S
Cd254 O265 2.439 . S
O255 Cd254 2.240 . S
O255 C260 1.279 . S
O256 Cd253 2.297 . S
O256 C258 1.247 . S
O257 Cd253 2.439 . S
O257 C258 1.208 . S
C258 O256 1.247 . S
C258 O257 1.208 . S
C259 O264 1.247 . S
C259 O265 1.208 . S
C260 O252 1.315 . S
C260 O255 1.279 . S
C261 O262 1.315 . S
C261 O263 1.279 . S
O262 Cd254 2.223 . S
O262 C261 1.315 . S
O263 Cd253 2.240 . S
O263 C261 1.279 . S
O264 Cd254 2.297 . S
O264 C259 1.247 . S
O265 Cd254 2.439 . S
O265 C259 1.208 . S
O266 Cd267 2.223 . S
O266 C274 1.315 . S
Cd267 O266 2.223 . S
Cd267 O270 2.297 . S
Cd267 O271 2.439 . S
Cd267 O277 2.240 . S
Cd268 O269 2.240 . S
Cd268 O276 2.223 . S
Cd268 O278 2.297 . S
Cd268 O279 2.439 . S
O269 Cd268 2.240 . S
O269 C274 1.279 . S
O270 Cd267 2.297 . S
O270 C272 1.247 . S
O271 Cd267 2.439 . S
O271 C272 1.208 . S
C272 O270 1.247 . S
C272 O271 1.208 . S
C273 O278 1.247 . S
C273 O279 1.208 . S
C274 O266 1.315 . S
C274 O269 1.279 . S
C275 O276 1.315 . S
C275 O277 1.279 . S
O276 Cd268 2.223 . S
O276 C275 1.315 . S
O277 Cd267 2.240 . S
O277 C275 1.279 . S
O278 Cd268 2.297 . S
O278 C273 1.247 . S
O279 Cd268 2.439 . S
O279 C273 1.208 . S
O280 Cd281 2.223 . S
O280 C288 1.315 . S
Cd281 O280 2.223 . S
Cd281 O284 2.297 . S
Cd281 O285 2.439 . S
Cd281 O291 2.240 . S
Cd282 O283 2.240 . S
Cd282 O290 2.223 . S
Cd282 O292 2.297 . S
Cd282 O293 2.439 . S
O283 Cd282 2.240 . S
O283 C288 1.279 . S
O284 Cd281 2.297 . S
O284 C286 1.247 . S
O285 Cd281 2.439 . S
O285 C286 1.208 . S
C286 O284 1.247 . S
C286 O285 1.208 . S
C287 O292 1.247 . S
C287 O293 1.208 . S
C288 O280 1.315 . S
C288 O283 1.279 . S
C289 O290 1.315 . S
C289 O291 1.279 . S
O290 Cd282 2.223 . S
O290 C289 1.315 . S
O291 Cd281 2.240 . S
O291 C289 1.279 . S
O292 Cd282 2.297 . S
O292 C287 1.247 . S
O293 Cd282 2.439 . S
O293 C287 1.208 . S
O294 Cd295 2.223 . S
O294 C302 1.315 . S
Cd295 O294 2.223 . S
Cd295 O298 2.297 1_554 S
Cd295 O299 2.439 . S
Cd295 O305 2.240 . S
Cd296 O297 2.240 . S
Cd296 O304 2.223 . S
Cd296 O306 2.297 . S
Cd296 O307 2.439 . S
O297 Cd296 2.240 . S
O297 C302 1.279 . S
O298 Cd295 2.297 1_556 S
O298 C300 1.247 . S
O299 Cd295 2.439 . S
O299 C300 1.208 1_554 S
C300 O298 1.247 . S
C300 O299 1.208 1_556 S
C301 O306 1.247 . S
C301 O307 1.208 . S
C302 O294 1.315 . S
C302 O297 1.279 . S
C303 O304 1.315 . S
C303 O305 1.279 . S
O304 Cd296 2.223 . S
O304 C303 1.315 . S
O305 Cd295 2.240 . S
O305 C303 1.279 . S
O306 Cd296 2.297 . S
O306 C301 1.247 . S
O307 Cd296 2.439 . S
O307 C301 1.208 . S
O308 Cd309 2.223 . S
O308 C316 1.315 . S
Cd309 O308 2.223 . S
Cd309 O312 2.297 . S
Cd309 O313 2.439 . S
Cd309 O319 2.240 . S
Cd310 O311 2.240 . S
Cd310 O318 2.223 . S
Cd310 O320 2.297 . S
Cd310 O321 2.439 . S
O311 Cd310 2.240 . S
O311 C316 1.279 . S
O312 Cd309 2.297 . S
O312 C314 1.247 . S
O313 Cd309 2.439 . S
O313 C314 1.208 . S
C314 O312 1.247 . S
C314 O313 1.208 . S
C315 O320 1.247 . S
C315 O321 1.208 . S
C316 O308 1.315 . S
C316 O311 1.279 . S
C317 O318 1.315 . S
C317 O319 1.279 . S
O318 Cd310 2.223 . S
O318 C317 1.315 . S
O319 Cd309 2.240 . S
O319 C317 1.279 . S
O320 Cd310 2.297 . S
O320 C315 1.247 . S
O321 Cd310 2.439 . S
O321 C315 1.208 . S
O322 Cd323 2.223 . S
O322 C330 1.315 . S
Cd323 O322 2.223 . S
Cd323 O326 2.297 . S
Cd323 O327 2.439 . S
Cd323 O333 2.240 . S
Cd324 O325 2.240 . S
Cd324 O332 2.223 . S
Cd324 O334 2.297 . S
Cd324 O335 2.439 . S
O325 Cd324 2.240 . S
O325 C330 1.279 . S
O326 Cd323 2.297 . S
O326 C328 1.247 . S
O327 Cd323 2.439 . S
O327 C328 1.208 . S
C328 O326 1.247 . S
C328 O327 1.208 . S
C329 O334 1.247 . S
C329 O335 1.208 . S
C330 O322 1.315 . S
C330 O325 1.279 . S
C331 O332 1.315 . S
C331 O333 1.279 . S
O332 Cd324 2.223 . S
O332 C331 1.315 . S
O333 Cd323 2.240 . S
O333 C331 1.279 . S
O334 Cd324 2.297 . S
O334 C329 1.247 . S
O335 Cd324 2.439 . S
O335 C329 1.208 . S
O336 Cd337 2.223 . S
O336 C344 1.315 . S
Cd337 O336 2.223 . S
Cd337 O340 2.297 1_655 S
Cd337 O341 2.439 . S
Cd337 O347 2.240 . S
Cd338 O339 2.240 . S
Cd338 O346 2.223 . S
Cd338 O348 2.297 . S
Cd338 O349 2.439 . S
O339 Cd338 2.240 . S
O339 C344 1.279 . S
O340 Cd337 2.297 1_455 S
O340 C342 1.247 . S
O341 Cd337 2.439 . S
O341 C342 1.208 1_655 S
C342 O340 1.247 . S
C342 O341 1.208 1_455 S
C343 O348 1.247 . S
C343 O349 1.208 . S
C344 O336 1.315 . S
C344 O339 1.279 . S
C345 O346 1.315 . S
C345 O347 1.279 . S
O346 Cd338 2.223 . S
O346 C345 1.315 . S
O347 Cd337 2.240 . S
O347 C345 1.279 . S
O348 Cd338 2.297 . S
O348 C343 1.247 . S
O349 Cd338 2.439 . S
O349 C343 1.208 . S
O350 Cd351 2.223 . S
O350 C358 1.315 . S
Cd351 O350 2.223 . S
Cd351 O354 2.297 . S
Cd351 O355 2.439 . S
Cd351 O361 2.240 . S
Cd352 O353 2.240 . S
Cd352 O360 2.223 . S
Cd352 O362 2.297 . S
Cd352 O363 2.439 . S
O353 Cd352 2.240 . S
O353 C358 1.279 . S
O354 Cd351 2.297 . S
O354 C356 1.247 . S
O355 Cd351 2.439 . S
O355 C356 1.208 . S
C356 O354 1.247 . S
C356 O355 1.208 . S
C357 O362 1.247 . S
C357 O363 1.208 . S
C358 O350 1.315 . S
C358 O353 1.279 . S
C359 O360 1.315 . S
C359 O361 1.279 . S
O360 Cd352 2.223 . S
O360 C359 1.315 . S
O361 Cd351 2.240 . S
O361 C359 1.279 . S
O362 Cd352 2.297 . S
O362 C357 1.247 . S
O363 Cd352 2.439 . S
O363 C357 1.208 . S
O364 Cd365 2.223 . S
O364 C372 1.315 . S
Cd365 O364 2.223 . S
Cd365 O368 2.297 . S
Cd365 O369 2.439 . S
Cd365 O375 2.240 . S
Cd366 O367 2.240 . S
Cd366 O374 2.223 . S
Cd366 O376 2.297 . S
Cd366 O377 2.439 . S
O367 Cd366 2.240 . S
O367 C372 1.279 . S
O368 Cd365 2.297 . S
O368 C370 1.247 . S
O369 Cd365 2.439 . S
O369 C370 1.208 . S
C370 O368 1.247 . S
C370 O369 1.208 . S
C371 O376 1.247 . S
C371 O377 1.208 . S
C372 O364 1.315 . S
C372 O367 1.279 . S
C373 O374 1.315 . S
C373 O375 1.279 . S
O374 Cd366 2.223 . S
O374 C373 1.315 . S
O375 Cd365 2.240 . S
O375 C373 1.279 . S
O376 Cd366 2.297 . S
O376 C371 1.247 . S
O377 Cd366 2.439 . S
O377 C371 1.208 . S
O378 Cd379 2.223 . S
O378 C386 1.315 . S
Cd379 O378 2.223 . S
Cd379 O382 2.297 1_545 S
Cd379 O383 2.439 . S
Cd379 O389 2.240 . S
Cd380 O381 2.240 . S
Cd380 O388 2.223 . S
Cd380 O390 2.297 . S
Cd380 O391 2.439 . S
O381 Cd380 2.240 . S
O381 C386 1.279 . S
O382 Cd379 2.297 1_565 S
O382 C384 1.247 . S
O383 Cd379 2.439 . S
O383 C384 1.208 1_545 S
C384 O382 1.247 . S
C384 O383 1.208 1_565 S
C385 O390 1.247 . S
C385 O391 1.208 . S
C386 O378 1.315 . S
C386 O381 1.279 . S
C387 O388 1.315 . S
C387 O389 1.279 . S
O388 Cd380 2.223 . S
O388 C387 1.315 . S
O389 Cd379 2.240 . S
O389 C387 1.279 . S
O390 Cd380 2.297 . S
O390 C385 1.247 . S
O391 Cd380 2.439 . S
O391 C385 1.208 . S
O392 Cd393 2.223 . S
O392 C400 1.315 . S
Cd393 O392 2.223 . S
Cd393 O396 2.297 1_655 S
Cd393 O397 2.439 . S
Cd393 O403 2.240 . S
Cd394 O395 2.240 . S
Cd394 O402 2.223 . S
Cd394 O404 2.297 . S
Cd394 O405 2.439 . S
O395 Cd394 2.240 . S
O395 C400 1.279 . S
O396 Cd393 2.297 1_455 S
O396 C398 1.247 . S
O397 Cd393 2.439 . S
O397 C398 1.208 1_655 S
C398 O396 1.247 . S
C398 O397 1.208 1_455 S
C399 O404 1.247 . S
C399 O405 1.208 . S
C400 O392 1.315 . S
C400 O395 1.279 . S
C401 O402 1.315 . S
C401 O403 1.279 . S
O402 Cd394 2.223 . S
O402 C401 1.315 . S
O403 Cd393 2.240 . S
O403 C401 1.279 . S
O404 Cd394 2.297 . S
O404 C399 1.247 . S
O405 Cd394 2.439 . S
O405 C399 1.208 . S
O406 Cd407 2.223 . S
O406 C414 1.315 . S
Cd407 O406 2.223 . S
Cd407 O410 2.297 . S
Cd407 O411 2.439 . S
Cd407 O417 2.240 . S
Cd408 O409 2.240 . S
Cd408 O416 2.223 . S
Cd408 O418 2.297 . S
Cd408 O419 2.439 . S
O409 Cd408 2.240 . S
O409 C414 1.279 . S
O410 Cd407 2.297 . S
O410 C412 1.247 . S
O411 Cd407 2.439 . S
O411 C412 1.208 . S
C412 O410 1.247 . S
C412 O411 1.208 . S
C413 O418 1.247 . S
C413 O419 1.208 . S
C414 O406 1.315 . S
C414 O409 1.279 . S
C415 O416 1.315 . S
C415 O417 1.279 . S
O416 Cd408 2.223 . S
O416 C415 1.315 . S
O417 Cd407 2.240 . S
O417 C415 1.279 . S
O418 Cd408 2.297 . S
O418 C413 1.247 . S
O419 Cd408 2.439 . S
O419 C413 1.208 . S
O420 Cd421 2.223 . S
O420 C428 1.315 . S
Cd421 O420 2.223 . S
Cd421 O424 2.297 . S
Cd421 O425 2.439 . S
Cd421 O431 2.240 . S
Cd422 O423 2.240 . S
Cd422 O430 2.223 . S
Cd422 O432 2.297 . S
Cd422 O433 2.439 . S
O423 Cd422 2.240 . S
O423 C428 1.279 . S
O424 Cd421 2.297 . S
O424 C426 1.247 . S
O425 Cd421 2.439 . S
O425 C426 1.208 . S
C426 O424 1.247 . S
C426 O425 1.208 . S
C427 O432 1.247 . S
C427 O433 1.208 . S
C428 O420 1.315 . S
C428 O423 1.279 . S
C429 O430 1.315 . S
C429 O431 1.279 . S
O430 Cd422 2.223 . S
O430 C429 1.315 . S
O431 Cd421 2.240 . S
O431 C429 1.279 . S
O432 Cd422 2.297 . S
O432 C427 1.247 . S
O433 Cd422 2.439 . S
O433 C427 1.208 . S
O434 Cd435 2.223 . S
O434 C442 1.315 . S
Cd435 O434 2.223 . S
Cd435 O438 2.297 1_545 S
Cd435 O439 2.439 . S
Cd435 O445 2.240 . S
Cd436 O437 2.240 . S
Cd436 O444 2.223 . S
Cd436 O446 2.297 . S
Cd436 O447 2.439 . S
O437 Cd436 2.240 . S
O437 C442 1.279 . S
O438 Cd435 2.297 1_565 S
O438 C440 1.247 . S
O439 Cd435 2.439 . S
O439 C440 1.208 1_545 S
C440 O438 1.247 . S
C440 O439 1.208 1_565 S
C441 O446 1.247 . S
C441 O447 1.208 . S
C442 O434 1.315 . S
C442 O437 1.279 . S
C443 O444 1.315 . S
C443 O445 1.279 . S
O444 Cd436 2.223 . S
O444 C443 1.315 . S
O445 Cd435 2.240 . S
O445 C443 1.279 . S
O446 Cd436 2.297 . S
O446 C441 1.247 . S
O447 Cd436 2.439 . S
O447 C441 1.208 . S
O448 Cd449 2.223 . S
O448 C456 1.315 . S
Cd449 O448 2.223 . S
Cd449 O452 2.297 1_565 S
Cd449 O453 2.439 . S
Cd449 O459 2.240 . S
Cd450 O451 2.240 . S
Cd450 O458 2.223 . S
Cd450 O460 2.297 . S
Cd450 O461 2.439 . S
O451 Cd450 2.240 . S
O451 C456 1.279 . S
O452 Cd449 2.297 1_545 S
O452 C454 1.247 . S
O453 Cd449 2.439 . S
O453 C454 1.208 1_565 S
C454 O452 1.247 . S
C454 O453 1.208 1_545 S
C455 O460 1.247 . S
C455 O461 1.208 . S
C456 O448 1.315 . S
C456 O451 1.279 . S
C457 O458 1.315 . S
C457 O459 1.279 . S
O458 Cd450 2.223 . S
O458 C457 1.315 . S
O459 Cd449 2.240 . S
O459 C457 1.279 . S
O460 Cd450 2.297 . S
O460 C455 1.247 . S
O461 Cd450 2.439 . S
O461 C455 1.208 . S
O462 Cd463 2.223 . S
O462 C470 1.315 . S
Cd463 O462 2.223 . S
Cd463 O466 2.297 1_455 S
Cd463 O467 2.439 . S
Cd463 O473 2.240 . S
Cd464 O465 2.240 . S
Cd464 O472 2.223 . S
Cd464 O474 2.297 . S
Cd464 O475 2.439 . S
O465 Cd464 2.240 . S
O465 C470 1.279 . S
O466 Cd463 2.297 1_655 S
O466 C468 1.247 . S
O467 Cd463 2.439 . S
O467 C468 1.208 1_455 S
C468 O466 1.247 . S
C468 O467 1.208 1_655 S
C469 O474 1.247 . S
C469 O475 1.208 . S
C470 O462 1.315 . S
C470 O465 1.279 . S
C471 O472 1.315 . S
C471 O473 1.279 . S
O472 Cd464 2.223 . S
O472 C471 1.315 . S
O473 Cd463 2.240 . S
O473 C471 1.279 . S
O474 Cd464 2.297 . S
O474 C469 1.247 . S
O475 Cd464 2.439 . S
O475 C469 1.208 . S
O476 Cd477 2.223 . S
O476 C484 1.315 . S
Cd477 O476 2.223 . S
Cd477 O480 2.297 . S
Cd477 O481 2.439 . S
Cd477 O487 2.240 . S
Cd478 O479 2.240 . S
Cd478 O486 2.223 . S
Cd478 O488 2.297 . S
Cd478 O489 2.439 . S
O479 Cd478 2.240 . S
O479 C484 1.279 . S
O480 Cd477 2.297 . S
O480 C482 1.247 . S
O481 Cd477 2.439 . S
O481 C482 1.208 . S
C482 O480 1.247 . S
C482 O481 1.208 . S
C483 O488 1.247 . S
C483 O489 1.208 . S
C484 O476 1.315 . S
C484 O479 1.279 . S
C485 O486 1.315 . S
C485 O487 1.279 . S
O486 Cd478 2.223 . S
O486 C485 1.315 . S
O487 Cd477 2.240 . S
O487 C485 1.279 . S
O488 Cd478 2.297 . S
O488 C483 1.247 . S
O489 Cd478 2.439 . S
O489 C483 1.208 . S
O490 Cd491 2.223 . S
O490 C498 1.315 . S
Cd491 O490 2.223 . S
Cd491 O494 2.297 . S
Cd491 O495 2.439 . S
Cd491 O501 2.240 . S
Cd492 O493 2.240 . S
Cd492 O500 2.223 . S
Cd492 O502 2.297 . S
Cd492 O503 2.439 . S
O493 Cd492 2.240 . S
O493 C498 1.279 . S
O494 Cd491 2.297 . S
O494 C496 1.247 . S
O495 Cd491 2.439 . S
O495 C496 1.208 . S
C496 O494 1.247 . S
C496 O495 1.208 . S
C497 O502 1.247 . S
C497 O503 1.208 . S
C498 O490 1.315 . S
C498 O493 1.279 . S
C499 O500 1.315 . S
C499 O501 1.279 . S
O500 Cd492 2.223 . S
O500 C499 1.315 . S
O501 Cd491 2.240 . S
O501 C499 1.279 . S
O502 Cd492 2.297 . S
O502 C497 1.247 . S
O503 Cd492 2.439 . S
O503 C497 1.208 . S
O504 Cd505 2.223 . S
O504 C512 1.315 . S
Cd505 O504 2.223 . S
Cd505 O508 2.297 . S
Cd505 O509 2.439 . S
Cd505 O515 2.240 . S
Cd506 O507 2.240 . S
Cd506 O514 2.223 . S
Cd506 O516 2.297 . S
Cd506 O517 2.439 . S
O507 Cd506 2.240 . S
O507 C512 1.279 . S
O508 Cd505 2.297 . S
O508 C510 1.247 . S
O509 Cd505 2.439 . S
O509 C510 1.208 . S
C510 O508 1.247 . S
C510 O509 1.208 . S
C511 O516 1.247 . S
C511 O517 1.208 . S
C512 O504 1.315 . S
C512 O507 1.279 . S
C513 O514 1.315 . S
C513 O515 1.279 . S
O514 Cd506 2.223 . S
O514 C513 1.315 . S
O515 Cd505 2.240 . S
O515 C513 1.279 . S
O516 Cd506 2.297 . S
O516 C511 1.247 . S
O517 Cd506 2.439 . S
O517 C511 1.208 . S
O518 Cd519 2.223 . S
O518 C526 1.315 . S
Cd519 O518 2.223 . S
Cd519 O522 2.297 . S
Cd519 O523 2.439 . S
Cd519 O529 2.240 . S
Cd520 O521 2.240 . S
Cd520 O528 2.223 . S
Cd520 O530 2.297 . S
Cd520 O531 2.439 . S
O521 Cd520 2.240 . S
O521 C526 1.279 . S
O522 Cd519 2.297 . S
O522 C524 1.247 . S
O523 Cd519 2.439 . S
O523 C524 1.208 . S
C524 O522 1.247 . S
C524 O523 1.208 . S
C525 O530 1.247 . S
C525 O531 1.208 . S
C526 O518 1.315 . S
C526 O521 1.279 . S
C527 O528 1.315 . S
C527 O529 1.279 . S
O528 Cd520 2.223 . S
O528 C527 1.315 . S
O529 Cd519 2.240 . S
O529 C527 1.279 . S
O530 Cd520 2.297 . S
O530 C525 1.247 . S
O531 Cd520 2.439 . S
O531 C525 1.208 . S
O532 Cd533 2.223 . S
O532 C540 1.315 . S
Cd533 O532 2.223 . S
Cd533 O536 2.297 1_565 S
Cd533 O537 2.439 . S
Cd533 O543 2.240 . S
Cd534 O535 2.240 . S
Cd534 O542 2.223 . S
Cd534 O544 2.297 . S
Cd534 O545 2.439 . S
O535 Cd534 2.240 . S
O535 C540 1.279 . S
O536 Cd533 2.297 1_545 S
O536 C538 1.247 . S
O537 Cd533 2.439 . S
O537 C538 1.208 1_565 S
C538 O536 1.247 . S
C538 O537 1.208 1_545 S
C539 O544 1.247 . S
C539 O545 1.208 . S
C540 O532 1.315 . S
C540 O535 1.279 . S
C541 O542 1.315 . S
C541 O543 1.279 . S
O542 Cd534 2.223 . S
O542 C541 1.315 . S
O543 Cd533 2.240 . S
O543 C541 1.279 . S
O544 Cd534 2.297 . S
O544 C539 1.247 . S
O545 Cd534 2.439 . S
O545 C539 1.208 . S
O546 Cd547 2.223 . S
O546 C554 1.315 . S
Cd547 O546 2.223 . S
Cd547 O550 2.297 1_455 S
Cd547 O551 2.439 . S
Cd547 O557 2.240 . S
Cd548 O549 2.240 . S
Cd548 O556 2.223 . S
Cd548 O558 2.297 . S
Cd548 O559 2.439 . S
O549 Cd548 2.240 . S
O549 C554 1.279 . S
O550 Cd547 2.297 1_655 S
O550 C552 1.247 . S
O551 Cd547 2.439 . S
O551 C552 1.208 1_455 S
C552 O550 1.247 . S
C552 O551 1.208 1_655 S
C553 O558 1.247 . S
C553 O559 1.208 . S
C554 O546 1.315 . S
C554 O549 1.279 . S
C555 O556 1.315 . S
C555 O557 1.279 . S
O556 Cd548 2.223 . S
O556 C555 1.315 . S
O557 Cd547 2.240 . S
O557 C555 1.279 . S
O558 Cd548 2.297 . S
O558 C553 1.247 . S
O559 Cd548 2.439 . S
O559 C553 1.208 . S
O560 Cd561 2.223 . S
O560 C568 1.315 . S
Cd561 O560 2.223 . S
Cd561 O564 2.297 1_556 S
Cd561 O565 2.439 . S
Cd561 O571 2.240 . S
Cd562 O563 2.240 . S
Cd562 O570 2.223 . S
Cd562 O572 2.297 . S
Cd562 O573 2.439 . S
O563 Cd562 2.240 . S
O563 C568 1.279 . S
O564 Cd561 2.297 1_554 S
O564 C566 1.247 . S
O565 Cd561 2.439 . S
O565 C566 1.208 1_556 S
C566 O564 1.247 . S
C566 O565 1.208 1_554 S
C567 O572 1.247 . S
C567 O573 1.208 . S
C568 O560 1.315 . S
C568 O563 1.279 . S
C569 O570 1.315 . S
C569 O571 1.279 . S
O570 Cd562 2.223 . S
O570 C569 1.315 . S
O571 Cd561 2.240 . S
O571 C569 1.279 . S
O572 Cd562 2.297 . S
O572 C567 1.247 . S
O573 Cd562 2.439 . S
O573 C567 1.208 . S
O574 Cd575 2.223 . S
O574 C582 1.315 . S
Cd575 O574 2.223 . S
Cd575 O578 2.297 . S
Cd575 O579 2.439 . S
Cd575 O585 2.240 . S
Cd576 O577 2.240 . S
Cd576 O584 2.223 . S
Cd576 O586 2.297 . S
Cd576 O587 2.439 . S
O577 Cd576 2.240 . S
O577 C582 1.279 . S
O578 Cd575 2.297 . S
O578 C580 1.247 . S
O579 Cd575 2.439 . S
O579 C580 1.208 . S
C580 O578 1.247 . S
C580 O579 1.208 . S
C581 O586 1.247 . S
C581 O587 1.208 . S
C582 O574 1.315 . S
C582 O577 1.279 . S
C583 O584 1.315 . S
C583 O585 1.279 . S
O584 Cd576 2.223 . S
O584 C583 1.315 . S
O585 Cd575 2.240 . S
O585 C583 1.279 . S
O586 Cd576 2.297 . S
O586 C581 1.247 . S
O587 Cd576 2.439 . S
O587 C581 1.208 . S
O588 Cd589 2.223 . S
O588 C596 1.315 . S
Cd589 O588 2.223 . S
Cd589 O592 2.297 . S
Cd589 O593 2.439 . S
Cd589 O599 2.240 . S
Cd590 O591 2.240 . S
Cd590 O598 2.223 . S
Cd590 O600 2.297 . S
Cd590 O601 2.439 . S
O591 Cd590 2.240 . S
O591 C596 1.279 . S
O592 Cd589 2.297 . S
O592 C594 1.247 . S
O593 Cd589 2.439 . S
O593 C594 1.208 . S
C594 O592 1.247 . S
C594 O593 1.208 . S
C595 O600 1.247 . S
C595 O601 1.208 . S
C596 O588 1.315 . S
C596 O591 1.279 . S
C597 O598 1.315 . S
C597 O599 1.279 . S
O598 Cd590 2.223 . S
O598 C597 1.315 . S
O599 Cd589 2.240 . S
O599 C597 1.279 . S
O600 Cd590 2.297 . S
O600 C595 1.247 . S
O601 Cd590 2.439 . S
O601 C595 1.208 . S
O602 Cd603 2.223 . S
O602 C610 1.315 . S
Cd603 O602 2.223 . S
Cd603 O606 2.297 . S
Cd603 O607 2.439 . S
Cd603 O613 2.240 . S
Cd604 O605 2.240 . S
Cd604 O612 2.223 . S
Cd604 O614 2.297 . S
Cd604 O615 2.439 . S
O605 Cd604 2.240 . S
O605 C610 1.279 . S
O606 Cd603 2.297 . S
O606 C608 1.247 . S
O607 Cd603 2.439 . S
O607 C608 1.208 . S
C608 O606 1.247 . S
C608 O607 1.208 . S
C609 O614 1.247 . S
C609 O615 1.208 . S
C610 O602 1.315 . S
C610 O605 1.279 . S
C611 O612 1.315 . S
C611 O613 1.279 . S
O612 Cd604 2.223 . S
O612 C611 1.315 . S
O613 Cd603 2.240 . S
O613 C611 1.279 . S
O614 Cd604 2.297 . S
O614 C609 1.247 . S
O615 Cd604 2.439 . S
O615 C609 1.208 . S
O616 Cd617 2.223 . S
O616 C624 1.315 . S
Cd617 O616 2.223 . S
Cd617 O620 2.297 . S
Cd617 O621 2.439 . S
Cd617 O627 2.240 . S
Cd618 O619 2.240 . S
Cd618 O626 2.223 . S
Cd618 O628 2.297 . S
Cd618 O629 2.439 . S
O619 Cd618 2.240 . S
O619 C624 1.279 . S
O620 Cd617 2.297 . S
O620 C622 1.247 . S
O621 Cd617 2.439 . S
O621 C622 1.208 . S
C622 O620 1.247 . S
C622 O621 1.208 . S
C623 O628 1.247 . S
C623 O629 1.208 . S
C624 O616 1.315 . S
C624 O619 1.279 . S
C625 O626 1.315 . S
C625 O627 1.279 . S
O626 Cd618 2.223 . S
O626 C625 1.315 . S
O627 Cd617 2.240 . S
O627 C625 1.279 . S
O628 Cd618 2.297 . S
O628 C623 1.247 . S
O629 Cd618 2.439 . S
O629 C623 1.208 . S
O630 Cd631 2.223 . S
O630 C638 1.315 . S
Cd631 O630 2.223 . S
Cd631 O634 2.297 1_556 S
Cd631 O635 2.439 . S
Cd631 O641 2.240 . S
Cd632 O633 2.240 . S
Cd632 O640 2.223 . S
Cd632 O642 2.297 . S
Cd632 O643 2.439 . S
O633 Cd632 2.240 . S
O633 C638 1.279 . S
O634 Cd631 2.297 1_554 S
O634 C636 1.247 . S
O635 Cd631 2.439 . S
O635 C636 1.208 1_556 S
C636 O634 1.247 . S
C636 O635 1.208 1_554 S
C637 O642 1.247 . S
C637 O643 1.208 . S
C638 O630 1.315 . S
C638 O633 1.279 . S
C639 O640 1.315 . S
C639 O641 1.279 . S
O640 Cd632 2.223 . S
O640 C639 1.315 . S
O641 Cd631 2.240 . S
O641 C639 1.279 . S
O642 Cd632 2.297 . S
O642 C637 1.247 . S
O643 Cd632 2.439 . S
O643 C637 1.208 . S
O644 Cd645 2.223 . S
O644 C652 1.315 . S
Cd645 O644 2.223 . S
Cd645 O648 2.297 . S
Cd645 O649 2.439 . S
Cd645 O655 2.240 . S
Cd646 O647 2.240 . S
Cd646 O654 2.223 . S
Cd646 O656 2.297 . S
Cd646 O657 2.439 . S
O647 Cd646 2.240 . S
O647 C652 1.279 . S
O648 Cd645 2.297 . S
O648 C650 1.247 . S
O649 Cd645 2.439 . S
O649 C650 1.208 . S
C650 O648 1.247 . S
C650 O649 1.208 . S
C651 O656 1.247 . S
C651 O657 1.208 . S
C652 O644 1.315 . S
C652 O647 1.279 . S
C653 O654 1.315 . S
C653 O655 1.279 . S
O654 Cd646 2.223 . S
O654 C653 1.315 . S
O655 Cd645 2.240 . S
O655 C653 1.279 . S
O656 Cd646 2.297 . S
O656 C651 1.247 . S
O657 Cd646 2.439 . S
O657 C651 1.208 . S
O658 Cd659 2.223 . S
O658 C666 1.315 . S
Cd659 O658 2.223 . S
Cd659 O662 2.297 . S
Cd659 O663 2.439 . S
Cd659 O669 2.240 . S
Cd660 O661 2.240 . S
Cd660 O668 2.223 . S
Cd660 O670 2.297 . S
Cd660 O671 2.439 . S
O661 Cd660 2.240 . S
O661 C666 1.279 . S
O662 Cd659 2.297 . S
O662 C664 1.247 . S
O663 Cd659 2.439 . S
O663 C664 1.208 . S
C664 O662 1.247 . S
C664 O663 1.208 . S
C665 O670 1.247 . S
C665 O671 1.208 . S
C666 O658 1.315 . S
C666 O661 1.279 . S
C667 O668 1.315 . S
C667 O669 1.279 . S
O668 Cd660 2.223 . S
O668 C667 1.315 . S
O669 Cd659 2.240 . S
O669 C667 1.279 . S
O670 Cd660 2.297 . S
O670 C665 1.247 . S
O671 Cd660 2.439 . S
O671 C665 1.208 . S
O672 Cd673 2.223 . S
O672 C680 1.315 . S
Cd673 O672 2.223 . S
Cd673 O676 2.297 1_455 S
Cd673 O677 2.439 . S
Cd673 O683 2.240 . S
Cd674 O675 2.240 . S
Cd674 O682 2.223 . S
Cd674 O684 2.297 . S
Cd674 O685 2.439 . S
O675 Cd674 2.240 . S
O675 C680 1.279 . S
O676 Cd673 2.297 1_655 S
O676 C678 1.247 . S
O677 Cd673 2.439 . S
O677 C678 1.208 1_455 S
C678 O676 1.247 . S
C678 O677 1.208 1_655 S
C679 O684 1.247 . S
C679 O685 1.208 . S
C680 O672 1.315 . S
C680 O675 1.279 . S
C681 O682 1.315 . S
C681 O683 1.279 . S
O682 Cd674 2.223 . S
O682 C681 1.315 . S
O683 Cd673 2.240 . S
O683 C681 1.279 . S
O684 Cd674 2.297 . S
O684 C679 1.247 . S
O685 Cd674 2.439 . S
O685 C679 1.208 . S
O686 Cd687 2.223 . S
O686 C694 1.315 . S
Cd687 O686 2.223 . S
Cd687 O690 2.297 . S
Cd687 O691 2.439 . S
Cd687 O697 2.240 . S
Cd688 O689 2.240 . S
Cd688 O696 2.223 . S
Cd688 O698 2.297 . S
Cd688 O699 2.439 . S
O689 Cd688 2.240 . S
O689 C694 1.279 . S
O690 Cd687 2.297 . S
O690 C692 1.247 . S
O691 Cd687 2.439 . S
O691 C692 1.208 . S
C692 O690 1.247 . S
C692 O691 1.208 . S
C693 O698 1.247 . S
C693 O699 1.208 . S
C694 O686 1.315 . S
C694 O689 1.279 . S
C695 O696 1.315 . S
C695 O697 1.279 . S
O696 Cd688 2.223 . S
O696 C695 1.315 . S
O697 Cd687 2.240 . S
O697 C695 1.279 . S
O698 Cd688 2.297 . S
O698 C693 1.247 . S
O699 Cd688 2.439 . S
O699 C693 1.208 . S
O700 Cd701 2.223 . S
O700 C708 1.315 . S
Cd701 O700 2.223 . S
Cd701 O704 2.297 . S
Cd701 O705 2.439 . S
Cd701 O711 2.240 . S
Cd702 O703 2.240 . S
Cd702 O710 2.223 . S
Cd702 O712 2.297 . S
Cd702 O713 2.439 . S
O703 Cd702 2.240 . S
O703 C708 1.279 . S
O704 Cd701 2.297 . S
O704 C706 1.247 . S
O705 Cd701 2.439 . S
O705 C706 1.208 . S
C706 O704 1.247 . S
C706 O705 1.208 . S
C707 O712 1.247 . S
C707 O713 1.208 . S
C708 O700 1.315 . S
C708 O703 1.279 . S
C709 O710 1.315 . S
C709 O711 1.279 . S
O710 Cd702 2.223 . S
O710 C709 1.315 . S
O711 Cd701 2.240 . S
O711 C709 1.279 . S
O712 Cd702 2.297 . S
O712 C707 1.247 . S
O713 Cd702 2.439 . S
O713 C707 1.208 . S
O714 Cd715 2.223 . S
O714 C722 1.315 . S
Cd715 O714 2.223 . S
Cd715 O718 2.297 . S
Cd715 O719 2.439 . S
Cd715 O725 2.240 . S
Cd716 O717 2.240 . S
Cd716 O724 2.223 . S
Cd716 O726 2.297 . S
Cd716 O727 2.439 . S
O717 Cd716 2.240 . S
O717 C722 1.279 . S
O718 Cd715 2.297 . S
O718 C720 1.247 . S
O719 Cd715 2.439 . S
O719 C720 1.208 . S
C720 O718 1.247 . S
C720 O719 1.208 . S
C721 O726 1.247 . S
C721 O727 1.208 . S
C722 O714 1.315 . S
C722 O717 1.279 . S
C723 O724 1.315 . S
C723 O725 1.279 . S
O724 Cd716 2.223 . S
O724 C723 1.315 . S
O725 Cd715 2.240 . S
O725 C723 1.279 . S
O726 Cd716 2.297 . S
O726 C721 1.247 . S
O727 Cd716 2.439 . S
O727 C721 1.208 . S
O728 Cd729 2.223 . S
O728 C736 1.315 . S
Cd729 O728 2.223 . S
Cd729 O732 2.297 1_455 S
Cd729 O733 2.439 . S
Cd729 O739 2.240 . S
Cd730 O731 2.240 . S
Cd730 O738 2.223 . S
Cd730 O740 2.297 . S
Cd730 O741 2.439 . S
O731 Cd730 2.240 . S
O731 C736 1.279 . S
O732 Cd729 2.297 1_655 S
O732 C734 1.247 . S
O733 Cd729 2.439 . S
O733 C734 1.208 1_455 S
C734 O732 1.247 . S
C734 O733 1.208 1_655 S
C735 O740 1.247 . S
C735 O741 1.208 . S
C736 O728 1.315 . S
C736 O731 1.279 . S
C737 O738 1.315 . S
C737 O739 1.279 . S
O738 Cd730 2.223 . S
O738 C737 1.315 . S
O739 Cd729 2.240 . S
O739 C737 1.279 . S
O740 Cd730 2.297 . S
O740 C735 1.247 . S
O741 Cd730 2.439 . S
O741 C735 1.208 . S
O742 Cd743 2.223 . S
O742 C750 1.315 . S
Cd743 O742 2.223 . S
Cd743 O746 2.297 . S
Cd743 O747 2.439 . S
Cd743 O753 2.240 . S
Cd744 O745 2.240 . S
Cd744 O752 2.223 . S
Cd744 O754 2.297 . S
Cd744 O755 2.439 . S
O745 Cd744 2.240 . S
O745 C750 1.279 . S
O746 Cd743 2.297 . S
O746 C748 1.247 . S
O747 Cd743 2.439 . S
O747 C748 1.208 . S
C748 O746 1.247 . S
C748 O747 1.208 . S
C749 O754 1.247 . S
C749 O755 1.208 . S
C750 O742 1.315 . S
C750 O745 1.279 . S
C751 O752 1.315 . S
C751 O753 1.279 . S
O752 Cd744 2.223 . S
O752 C751 1.315 . S
O753 Cd743 2.240 . S
O753 C751 1.279 . S
O754 Cd744 2.297 . S
O754 C749 1.247 . S
O755 Cd744 2.439 . S
O755 C749 1.208 . S
O756 Cd757 2.223 . S
O756 C764 1.315 . S
Cd757 O756 2.223 . S
Cd757 O760 2.297 . S
Cd757 O761 2.439 . S
Cd757 O767 2.240 . S
Cd758 O759 2.240 . S
Cd758 O766 2.223 . S
Cd758 O768 2.297 . S
Cd758 O769 2.439 . S
O759 Cd758 2.240 . S
O759 C764 1.279 . S
O760 Cd757 2.297 . S
O760 C762 1.247 . S
O761 Cd757 2.439 . S
O761 C762 1.208 . S
C762 O760 1.247 . S
C762 O761 1.208 . S
C763 O768 1.247 . S
C763 O769 1.208 . S
C764 O756 1.315 . S
C764 O759 1.279 . S
C765 O766 1.315 . S
C765 O767 1.279 . S
O766 Cd758 2.223 . S
O766 C765 1.315 . S
O767 Cd757 2.240 . S
O767 C765 1.279 . S
O768 Cd758 2.297 . S
O768 C763 1.247 . S
O769 Cd758 2.439 . S
O769 C763 1.208 . S
O770 Cd771 2.223 . S
O770 C778 1.315 . S
Cd771 O770 2.223 . S
Cd771 O774 2.297 . S
Cd771 O775 2.439 . S
Cd771 O781 2.240 . S
Cd772 O773 2.240 . S
Cd772 O780 2.223 . S
Cd772 O782 2.297 . S
Cd772 O783 2.439 . S
O773 Cd772 2.240 . S
O773 C778 1.279 . S
O774 Cd771 2.297 . S
O774 C776 1.247 . S
O775 Cd771 2.439 . S
O775 C776 1.208 . S
C776 O774 1.247 . S
C776 O775 1.208 . S
C777 O782 1.247 . S
C777 O783 1.208 . S
C778 O770 1.315 . S
C778 O773 1.279 . S
C779 O780 1.315 . S
C779 O781 1.279 . S
O780 Cd772 2.223 . S
O780 C779 1.315 . S
O781 Cd771 2.240 . S
O781 C779 1.279 . S
O782 Cd772 2.297 . S
O782 C777 1.247 . S
O783 Cd772 2.439 . S
O783 C777 1.208 . S
O784 Cd785 2.223 . S
O784 C792 1.315 . S
Cd785 O784 2.223 . S
Cd785 O788 2.297 . S
Cd785 O789 2.439 . S
Cd785 O795 2.240 . S
Cd786 O787 2.240 . S
Cd786 O794 2.223 . S
Cd786 O796 2.297 . S
Cd786 O797 2.439 . S
O787 Cd786 2.240 . S
O787 C792 1.279 . S
O788 Cd785 2.297 . S
O788 C790 1.247 . S
O789 Cd785 2.439 . S
O789 C790 1.208 . S
C790 O788 1.247 . S
C790 O789 1.208 . S
C791 O796 1.247 . S
C791 O797 1.208 . S
C792 O784 1.315 . S
C792 O787 1.279 . S
C793 O794 1.315 . S
C793 O795 1.279 . S
O794 Cd786 2.223 . S
O794 C793 1.315 . S
O795 Cd785 2.240 . S
O795 C793 1.279 . S
O796 Cd786 2.297 . S
O796 C791 1.247 . S
O797 Cd786 2.439 . S
O797 C791 1.208 . S
O798 Cd799 2.223 . S
O798 C806 1.315 . S
Cd799 O798 2.223 . S
Cd799 O802 2.297 1_655 S
Cd799 O803 2.439 . S
Cd799 O809 2.240 . S
Cd800 O801 2.240 . S
Cd800 O808 2.223 . S
Cd800 O810 2.297 . S
Cd800 O811 2.439 . S
O801 Cd800 2.240 . S
O801 C806 1.279 . S
O802 Cd799 2.297 1_455 S
O802 C804 1.247 . S
O803 Cd799 2.439 . S
O803 C804 1.208 1_655 S
C804 O802 1.247 . S
C804 O803 1.208 1_455 S
C805 O810 1.247 . S
C805 O811 1.208 . S
C806 O798 1.315 . S
C806 O801 1.279 . S
C807 O808 1.315 . S
C807 O809 1.279 . S
O808 Cd800 2.223 . S
O808 C807 1.315 . S
O809 Cd799 2.240 . S
O809 C807 1.279 . S
O810 Cd800 2.297 . S
O810 C805 1.247 . S
O811 Cd800 2.439 . S
O811 C805 1.208 . S
O812 Cd813 2.223 . S
O812 C820 1.315 . S
Cd813 O812 2.223 . S
Cd813 O816 2.297 . S
Cd813 O817 2.439 . S
Cd813 O823 2.240 . S
Cd814 O815 2.240 . S
Cd814 O822 2.223 . S
Cd814 O824 2.297 . S
Cd814 O825 2.439 . S
O815 Cd814 2.240 . S
O815 C820 1.279 . S
O816 Cd813 2.297 . S
O816 C818 1.247 . S
O817 Cd813 2.439 . S
O817 C818 1.208 . S
C818 O816 1.247 . S
C818 O817 1.208 . S
C819 O824 1.247 . S
C819 O825 1.208 . S
C820 O812 1.315 . S
C820 O815 1.279 . S
C821 O822 1.315 . S
C821 O823 1.279 . S
O822 Cd814 2.223 . S
O822 C821 1.315 . S
O823 Cd813 2.240 . S
O823 C821 1.279 . S
O824 Cd814 2.297 . S
O824 C819 1.247 . S
O825 Cd814 2.439 . S
O825 C819 1.208 . S
O826 Cd827 2.223 . S
O826 C834 1.315 . S
Cd827 O826 2.223 . S
Cd827 O830 2.297 . S
Cd827 O831 2.439 . S
Cd827 O837 2.240 . S
Cd828 O829 2.240 . S
Cd828 O836 2.223 . S
Cd828 O838 2.297 . S
Cd828 O839 2.439 . S
O829 Cd828 2.240 . S
O829 C834 1.279 . S
O830 Cd827 2.297 . S
O830 C832 1.247 . S
O831 Cd827 2.439 . S
O831 C832 1.208 . S
C832 O830 1.247 . S
C832 O831 1.208 . S
C833 O838 1.247 . S
C833 O839 1.208 . S
C834 O826 1.315 . S
C834 O829 1.279 . S
C835 O836 1.315 . S
C835 O837 1.279 . S
O836 Cd828 2.223 . S
O836 C835 1.315 . S
O837 Cd827 2.240 . S
O837 C835 1.279 . S
O838 Cd828 2.297 . S
O838 C833 1.247 . S
O839 Cd828 2.439 . S
O839 C833 1.208 . S
O840 Cd841 2.223 . S
O840 C848 1.315 . S
Cd841 O840 2.223 . S
Cd841 O844 2.297 . S
Cd841 O845 2.439 . S
Cd841 O851 2.240 . S
Cd842 O843 2.240 . S
Cd842 O850 2.223 . S
Cd842 O852 2.297 . S
Cd842 O853 2.439 . S
O843 Cd842 2.240 . S
O843 C848 1.279 . S
O844 Cd841 2.297 . S
O844 C846 1.247 . S
O845 Cd841 2.439 . S
O845 C846 1.208 . S
C846 O844 1.247 . S
C846 O845 1.208 . S
C847 O852 1.247 . S
C847 O853 1.208 . S
C848 O840 1.315 . S
C848 O843 1.279 . S
C849 O850 1.315 . S
C849 O851 1.279 . S
O850 Cd842 2.223 . S
O850 C849 1.315 . S
O851 Cd841 2.240 . S
O851 C849 1.279 . S
O852 Cd842 2.297 . S
O852 C847 1.247 . S
O853 Cd842 2.439 . S
O853 C847 1.208 . S
O854 Cd855 2.223 . S
O854 C862 1.315 . S
Cd855 O854 2.223 . S
Cd855 O858 2.297 . S
Cd855 O859 2.439 . S
Cd855 O865 2.240 . S
Cd856 O857 2.240 . S
Cd856 O864 2.223 . S
Cd856 O866 2.297 . S
Cd856 O867 2.439 . S
O857 Cd856 2.240 . S
O857 C862 1.279 . S
O858 Cd855 2.297 . S
O858 C860 1.247 . S
O859 Cd855 2.439 . S
O859 C860 1.208 . S
C860 O858 1.247 . S
C860 O859 1.208 . S
C861 O866 1.247 . S
C861 O867 1.208 . S
C862 O854 1.315 . S
C862 O857 1.279 . S
C863 O864 1.315 . S
C863 O865 1.279 . S
O864 Cd856 2.223 . S
O864 C863 1.315 . S
O865 Cd855 2.240 . S
O865 C863 1.279 . S
O866 Cd856 2.297 . S
O866 C861 1.247 . S
O867 Cd856 2.439 . S
O867 C861 1.208 . S
O868 Cd869 2.223 . S
O868 C876 1.315 . S
Cd869 O868 2.223 . S
Cd869 O872 2.297 . S
Cd869 O873 2.439 . S
Cd869 O879 2.240 . S
Cd870 O871 2.240 . S
Cd870 O878 2.223 . S
Cd870 O880 2.297 . S
Cd870 O881 2.439 . S
O871 Cd870 2.240 . S
O871 C876 1.279 . S
O872 Cd869 2.297 . S
O872 C874 1.247 . S
O873 Cd869 2.439 . S
O873 C874 1.208 . S
C874 O872 1.247 . S
C874 O873 1.208 . S
C875 O880 1.247 . S
C875 O881 1.208 . S
C876 O868 1.315 . S
C876 O871 1.279 . S
C877 O878 1.315 . S
C877 O879 1.279 . S
O878 Cd870 2.223 . S
O878 C877 1.315 . S
O879 Cd869 2.240 . S
O879 C877 1.279 . S
O880 Cd870 2.297 . S
O880 C875 1.247 . S
O881 Cd870 2.439 . S
O881 C875 1.208 . S
O882 Cd883 2.223 . S
O882 C890 1.315 . S
Cd883 O882 2.223 . S
Cd883 O886 2.297 1_655 S
Cd883 O887 2.439 . S
Cd883 O893 2.240 . S
Cd884 O885 2.240 . S
Cd884 O892 2.223 . S
Cd884 O894 2.297 . S
Cd884 O895 2.439 . S
O885 Cd884 2.240 . S
O885 C890 1.279 . S
O886 Cd883 2.297 1_455 S
O886 C888 1.247 . S
O887 Cd883 2.439 . S
O887 C888 1.208 1_655 S
C888 O886 1.247 . S
C888 O887 1.208 1_455 S
C889 O894 1.247 . S
C889 O895 1.208 . S
C890 O882 1.315 . S
C890 O885 1.279 . S
C891 O892 1.315 . S
C891 O893 1.279 . S
O892 Cd884 2.223 . S
O892 C891 1.315 . S
O893 Cd883 2.240 . S
O893 C891 1.279 . S
O894 Cd884 2.297 . S
O894 C889 1.247 . S
O895 Cd884 2.439 . S
O895 C889 1.208 . S
O896 Cd897 2.223 . S
O896 C904 1.315 . S
Cd897 O896 2.223 . S
Cd897 O900 2.297 . S
Cd897 O901 2.439 . S
Cd897 O907 2.240 . S
Cd898 O899 2.240 . S
Cd898 O906 2.223 . S
Cd898 O908 2.297 . S
Cd898 O909 2.439 . S
O899 Cd898 2.240 . S
O899 C904 1.279 . S
O900 Cd897 2.297 . S
O900 C902 1.247 . S
O901 Cd897 2.439 . S
O901 C902 1.208 . S
C902 O900 1.247 . S
C902 O901 1.208 . S
C903 O908 1.247 . S
C903 O909 1.208 . S
C904 O896 1.315 . S
C904 O899 1.279 . S
C905 O906 1.315 . S
C905 O907 1.279 . S
O906 Cd898 2.223 . S
O906 C905 1.315 . S
O907 Cd897 2.240 . S
O907 C905 1.279 . S
O908 Cd898 2.297 . S
O908 C903 1.247 . S
O909 Cd898 2.439 . S
O909 C903 1.208 . S
O910 Cd911 2.223 . S
O910 C918 1.315 . S
Cd911 O910 2.223 . S
Cd911 O914 2.297 . S
Cd911 O915 2.439 . S
Cd911 O921 2.240 . S
Cd912 O913 2.240 . S
Cd912 O920 2.223 . S
Cd912 O922 2.297 . S
Cd912 O923 2.439 . S
O913 Cd912 2.240 . S
O913 C918 1.279 . S
O914 Cd911 2.297 . S
O914 C916 1.247 . S
O915 Cd911 2.439 . S
O915 C916 1.208 . S
C916 O914 1.247 . S
C916 O915 1.208 . S
C917 O922 1.247 . S
C917 O923 1.208 . S
C918 O910 1.315 . S
C918 O913 1.279 . S
C919 O920 1.315 . S
C919 O921 1.279 . S
O920 Cd912 2.223 . S
O920 C919 1.315 . S
O921 Cd911 2.240 . S
O921 C919 1.279 . S
O922 Cd912 2.297 . S
O922 C917 1.247 . S
O923 Cd912 2.439 . S
O923 C917 1.208 . S
O924 Cd925 2.223 . S
O924 C932 1.315 . S
Cd925 O924 2.223 . S
Cd925 O928 2.297 . S
Cd925 O929 2.439 . S
Cd925 O935 2.240 . S
Cd926 O927 2.240 . S
Cd926 O934 2.223 . S
Cd926 O936 2.297 1_556 S
Cd926 O937 2.439 . S
O927 Cd926 2.240 . S
O927 C932 1.279 . S
O928 Cd925 2.297 . S
O928 C930 1.247 . S
O929 Cd925 2.439 . S
O929 C930 1.208 . S
C930 O928 1.247 . S
C930 O929 1.208 . S
C931 O936 1.247 . S
C931 O937 1.208 1_554 S
C932 O924 1.315 . S
C932 O927 1.279 . S
C933 O934 1.315 . S
C933 O935 1.279 . S
O934 Cd926 2.223 . S
O934 C933 1.315 . S
O935 Cd925 2.240 . S
O935 C933 1.279 . S
O936 Cd926 2.297 1_554 S
O936 C931 1.247 . S
O937 Cd926 2.439 . S
O937 C931 1.208 1_556 S
O938 Cd939 2.223 . S
O938 C946 1.315 . S
Cd939 O938 2.223 . S
Cd939 O942 2.297 . S
Cd939 O943 2.439 . S
Cd939 O949 2.240 . S
Cd940 O941 2.240 . S
Cd940 O948 2.223 . S
Cd940 O950 2.297 . S
Cd940 O951 2.439 . S
O941 Cd940 2.240 . S
O941 C946 1.279 . S
O942 Cd939 2.297 . S
O942 C944 1.247 . S
O943 Cd939 2.439 . S
O943 C944 1.208 . S
C944 O942 1.247 . S
C944 O943 1.208 . S
C945 O950 1.247 . S
C945 O951 1.208 . S
C946 O938 1.315 . S
C946 O941 1.279 . S
C947 O948 1.315 . S
C947 O949 1.279 . S
O948 Cd940 2.223 . S
O948 C947 1.315 . S
O949 Cd939 2.240 . S
O949 C947 1.279 . S
O950 Cd940 2.297 . S
O950 C945 1.247 . S
O951 Cd940 2.439 . S
O951 C945 1.208 . S
O952 Cd953 2.223 . S
O952 C960 1.315 . S
Cd953 O952 2.223 . S
Cd953 O956 2.297 . S
Cd953 O957 2.439 . S
Cd953 O963 2.240 . S
Cd954 O955 2.240 . S
Cd954 O962 2.223 . S
Cd954 O964 2.297 1_556 S
Cd954 O965 2.439 . S
O955 Cd954 2.240 . S
O955 C960 1.279 . S
O956 Cd953 2.297 . S
O956 C958 1.247 . S
O957 Cd953 2.439 . S
O957 C958 1.208 . S
C958 O956 1.247 . S
C958 O957 1.208 . S
C959 O964 1.247 . S
C959 O965 1.208 1_554 S
C960 O952 1.315 . S
C960 O955 1.279 . S
C961 O962 1.315 . S
C961 O963 1.279 . S
O962 Cd954 2.223 . S
O962 C961 1.315 . S
O963 Cd953 2.240 . S
O963 C961 1.279 . S
O964 Cd954 2.297 1_554 S
O964 C959 1.247 . S
O965 Cd954 2.439 . S
O965 C959 1.208 1_556 S
O966 Cd967 2.223 . S
O966 C974 1.315 . S
Cd967 O966 2.223 . S
Cd967 O970 2.297 . S
Cd967 O971 2.439 . S
Cd967 O977 2.240 . S
Cd968 O969 2.240 . S
Cd968 O976 2.223 . S
Cd968 O978 2.297 . S
Cd968 O979 2.439 . S
O969 Cd968 2.240 . S
O969 C974 1.279 . S
O970 Cd967 2.297 . S
O970 C972 1.247 . S
O971 Cd967 2.439 . S
O971 C972 1.208 . S
C972 O970 1.247 . S
C972 O971 1.208 . S
C973 O978 1.247 . S
C973 O979 1.208 . S
C974 O966 1.315 . S
C974 O969 1.279 . S
C975 O976 1.315 . S
C975 O977 1.279 . S
O976 Cd968 2.223 . S
O976 C975 1.315 . S
O977 Cd967 2.240 . S
O977 C975 1.279 . S
O978 Cd968 2.297 . S
O978 C973 1.247 . S
O979 Cd968 2.439 . S
O979 C973 1.208 . S
O980 Cd981 2.223 . S
O980 C988 1.315 . S
Cd981 O980 2.223 . S
Cd981 O984 2.297 . S
Cd981 O985 2.439 . S
Cd981 O991 2.240 . S
Cd982 O983 2.240 . S
Cd982 O990 2.223 . S
Cd982 O992 2.297 . S
Cd982 O993 2.439 . S
O983 Cd982 2.240 . S
O983 C988 1.279 . S
O984 Cd981 2.297 . S
O984 C986 1.247 . S
O985 Cd981 2.439 . S
O985 C986 1.208 . S
C986 O984 1.247 . S
C986 O985 1.208 . S
C987 O992 1.247 . S
C987 O993 1.208 . S
C988 O980 1.315 . S
C988 O983 1.279 . S
C989 O990 1.315 . S
C989 O991 1.279 . S
O990 Cd982 2.223 . S
O990 C989 1.315 . S
O991 Cd981 2.240 . S
O991 C989 1.279 . S
O992 Cd982 2.297 . S
O992 C987 1.247 . S
O993 Cd982 2.439 . S
O993 C987 1.208 . S
O994 Cd995 2.223 . S
O994 C1002 1.315 . S
Cd995 O994 2.223 . S
Cd995 O998 2.297 . S
Cd995 O999 2.439 . S
Cd995 O1005 2.240 . S
Cd996 O997 2.240 . S
Cd996 O1004 2.223 . S
Cd996 O1006 2.297 . S
Cd996 O1007 2.439 . S
O997 Cd996 2.240 . S
O997 C1002 1.279 . S
O998 Cd995 2.297 . S
O998 C1000 1.247 . S
O999 Cd995 2.439 . S
O999 C1000 1.208 . S
C1000 O998 1.247 . S
C1000 O999 1.208 . S
C1001 O1006 1.247 . S
C1001 O1007 1.208 . S
C1002 O994 1.315 . S
C1002 O997 1.279 . S
C1003 O1004 1.315 . S
C1003 O1005 1.279 . S
O1004 Cd996 2.223 . S
O1004 C1003 1.315 . S
O1005 Cd995 2.240 . S
O1005 C1003 1.279 . S
O1006 Cd996 2.297 . S
O1006 C1001 1.247 . S
O1007 Cd996 2.439 . S
O1007 C1001 1.208 . S
O1008 Cd1009 2.223 . S
O1008 C1016 1.315 . S
Cd1009 O1008 2.223 . S
Cd1009 O1012 2.297 1_655 S
Cd1009 O1013 2.439 . S
Cd1009 O1019 2.240 . S
Cd1010 O1011 2.240 . S
Cd1010 O1018 2.223 . S
Cd1010 O1020 2.297 . S
Cd1010 O1021 2.439 . S
O1011 Cd1010 2.240 . S
O1011 C1016 1.279 . S
O1012 Cd1009 2.297 1_455 S
O1012 C1014 1.247 . S
O1013 Cd1009 2.439 . S
O1013 C1014 1.208 1_655 S
C1014 O1012 1.247 . S
C1014 O1013 1.208 1_455 S
C1015 O1020 1.247 . S
C1015 O1021 1.208 . S
C1016 O1008 1.315 . S
C1016 O1011 1.279 . S
C1017 O1018 1.315 . S
C1017 O1019 1.279 . S
O1018 Cd1010 2.223 . S
O1018 C1017 1.315 . S
O1019 Cd1009 2.240 . S
O1019 C1017 1.279 . S
O1020 Cd1010 2.297 . S
O1020 C1015 1.247 . S
O1021 Cd1010 2.439 . S
O1021 C1015 1.208 . S
O1022 Cd1023 2.223 . S
O1022 C1030 1.315 . S
Cd1023 O1022 2.223 . S
Cd1023 O1026 2.297 . S
Cd1023 O1027 2.439 . S
Cd1023 O1033 2.240 . S
Cd1024 O1025 2.240 . S
Cd1024 O1032 2.223 . S
Cd1024 O1034 2.297 . S
Cd1024 O1035 2.439 . S
O1025 Cd1024 2.240 . S
O1025 C1030 1.279 . S
O1026 Cd1023 2.297 . S
O1026 C1028 1.247 . S
O1027 Cd1023 2.439 . S
O1027 C1028 1.208 . S
C1028 O1026 1.247 . S
C1028 O1027 1.208 . S
C1029 O1034 1.247 . S
C1029 O1035 1.208 . S
C1030 O1022 1.315 . S
C1030 O1025 1.279 . S
C1031 O1032 1.315 . S
C1031 O1033 1.279 . S
O1032 Cd1024 2.223 . S
O1032 C1031 1.315 . S
O1033 Cd1023 2.240 . S
O1033 C1031 1.279 . S
O1034 Cd1024 2.297 . S
O1034 C1029 1.247 . S
O1035 Cd1024 2.439 . S
O1035 C1029 1.208 . S
O1036 Cd1037 2.223 . S
O1036 C1044 1.315 . S
Cd1037 O1036 2.223 . S
Cd1037 O1040 2.297 . S
Cd1037 O1041 2.439 . S
Cd1037 O1047 2.240 . S
Cd1038 O1039 2.240 . S
Cd1038 O1046 2.223 . S
Cd1038 O1048 2.297 . S
Cd1038 O1049 2.439 . S
O1039 Cd1038 2.240 . S
O1039 C1044 1.279 . S
O1040 Cd1037 2.297 . S
O1040 C1042 1.247 . S
O1041 Cd1037 2.439 . S
O1041 C1042 1.208 . S
C1042 O1040 1.247 . S
C1042 O1041 1.208 . S
C1043 O1048 1.247 . S
C1043 O1049 1.208 . S
C1044 O1036 1.315 . S
C1044 O1039 1.279 . S
C1045 O1046 1.315 . S
C1045 O1047 1.279 . S
O1046 Cd1038 2.223 . S
O1046 C1045 1.315 . S
O1047 Cd1037 2.240 . S
O1047 C1045 1.279 . S
O1048 Cd1038 2.297 . S
O1048 C1043 1.247 . S
O1049 Cd1038 2.439 . S
O1049 C1043 1.208 . S
O1050 Cd1051 2.223 . S
O1050 C1058 1.315 . S
Cd1051 O1050 2.223 . S
Cd1051 O1054 2.297 . S
Cd1051 O1055 2.439 . S
Cd1051 O1061 2.240 . S
Cd1052 O1053 2.240 . S
Cd1052 O1060 2.223 . S
Cd1052 O1062 2.297 . S
Cd1052 O1063 2.439 . S
O1053 Cd1052 2.240 . S
O1053 C1058 1.279 . S
O1054 Cd1051 2.297 . S
O1054 C1056 1.247 . S
O1055 Cd1051 2.439 . S
O1055 C1056 1.208 . S
C1056 O1054 1.247 . S
C1056 O1055 1.208 . S
C1057 O1062 1.247 . S
C1057 O1063 1.208 . S
C1058 O1050 1.315 . S
C1058 O1053 1.279 . S
C1059 O1060 1.315 . S
C1059 O1061 1.279 . S
O1060 Cd1052 2.223 . S
O1060 C1059 1.315 . S
O1061 Cd1051 2.240 . S
O1061 C1059 1.279 . S
O1062 Cd1052 2.297 . S
O1062 C1057 1.247 . S
O1063 Cd1052 2.439 . S
O1063 C1057 1.208 . S
O1064 Cd1065 2.223 . S
O1064 C1072 1.315 . S
Cd1065 O1064 2.223 . S
Cd1065 O1068 2.297 1_655 S
Cd1065 O1069 2.439 . S
Cd1065 O1075 2.240 . S
Cd1066 O1067 2.240 . S
Cd1066 O1074 2.223 . S
Cd1066 O1076 2.297 . S
Cd1066 O1077 2.439 . S
O1067 Cd1066 2.240 . S
O1067 C1072 1.279 . S
O1068 Cd1065 2.297 1_455 S
O1068 C1070 1.247 . S
O1069 Cd1065 2.439 . S
O1069 C1070 1.208 1_655 S
C1070 O1068 1.247 . S
C1070 O1069 1.208 1_455 S
C1071 O1076 1.247 . S
C1071 O1077 1.208 . S
C1072 O1064 1.315 . S
C1072 O1067 1.279 . S
C1073 O1074 1.315 . S
C1073 O1075 1.279 . S
O1074 Cd1066 2.223 . S
O1074 C1073 1.315 . S
O1075 Cd1065 2.240 . S
O1075 C1073 1.279 . S
O1076 Cd1066 2.297 . S
O1076 C1071 1.247 . S
O1077 Cd1066 2.439 . S
O1077 C1071 1.208 . S
O1078 Cd1079 2.223 . S
O1078 C1086 1.315 . S
Cd1079 O1078 2.223 . S
Cd1079 O1082 2.297 . S
Cd1079 O1083 2.439 . S
Cd1079 O1089 2.240 . S
Cd1080 O1081 2.240 . S
Cd1080 O1088 2.223 . S
Cd1080 O1090 2.297 . S
Cd1080 O1091 2.439 . S
O1081 Cd1080 2.240 . S
O1081 C1086 1.279 . S
O1082 Cd1079 2.297 . S
O1082 C1084 1.247 . S
O1083 Cd1079 2.439 . S
O1083 C1084 1.208 . S
C1084 O1082 1.247 . S
C1084 O1083 1.208 . S
C1085 O1090 1.247 . S
C1085 O1091 1.208 . S
C1086 O1078 1.315 . S
C1086 O1081 1.279 . S
C1087 O1088 1.315 . S
C1087 O1089 1.279 . S
O1088 Cd1080 2.223 . S
O1088 C1087 1.315 . S
O1089 Cd1079 2.240 . S
O1089 C1087 1.279 . S
O1090 Cd1080 2.297 . S
O1090 C1085 1.247 . S
O1091 Cd1080 2.439 . S
O1091 C1085 1.208 . S
O1092 Cd1093 2.223 . S
O1092 C1100 1.315 . S
Cd1093 O1092 2.223 . S
Cd1093 O1096 2.297 . S
Cd1093 O1097 2.439 . S
Cd1093 O1103 2.240 . S
Cd1094 O1095 2.240 . S
Cd1094 O1102 2.223 . S
Cd1094 O1104 2.297 . S
Cd1094 O1105 2.439 . S
O1095 Cd1094 2.240 . S
O1095 C1100 1.279 . S
O1096 Cd1093 2.297 . S
O1096 C1098 1.247 . S
O1097 Cd1093 2.439 . S
O1097 C1098 1.208 . S
C1098 O1096 1.247 . S
C1098 O1097 1.208 . S
C1099 O1104 1.247 . S
C1099 O1105 1.208 . S
C1100 O1092 1.315 . S
C1100 O1095 1.279 . S
C1101 O1102 1.315 . S
C1101 O1103 1.279 . S
O1102 Cd1094 2.223 . S
O1102 C1101 1.315 . S
O1103 Cd1093 2.240 . S
O1103 C1101 1.279 . S
O1104 Cd1094 2.297 . S
O1104 C1099 1.247 . S
O1105 Cd1094 2.439 . S
O1105 C1099 1.208 . S
O1106 Cd1107 2.223 . S
O1106 C1114 1.315 . S
Cd1107 O1106 2.223 . S
Cd1107 O1110 2.297 . S
Cd1107 O1111 2.439 . S
Cd1107 O1117 2.240 . S
Cd1108 O1109 2.240 . S
Cd1108 O1116 2.223 . S
Cd1108 O1118 2.297 . S
Cd1108 O1119 2.439 . S
O1109 Cd1108 2.240 . S
O1109 C1114 1.279 . S
O1110 Cd1107 2.297 . S
O1110 C1112 1.247 . S
O1111 Cd1107 2.439 . S
O1111 C1112 1.208 . S
C1112 O1110 1.247 . S
C1112 O1111 1.208 . S
C1113 O1118 1.247 . S
C1113 O1119 1.208 . S
C1114 O1106 1.315 . S
C1114 O1109 1.279 . S
C1115 O1116 1.315 . S
C1115 O1117 1.279 . S
O1116 Cd1108 2.223 . S
O1116 C1115 1.315 . S
O1117 Cd1107 2.240 . S
O1117 C1115 1.279 . S
O1118 Cd1108 2.297 . S
O1118 C1113 1.247 . S
O1119 Cd1108 2.439 . S
O1119 C1113 1.208 . S
O1120 Cd1121 2.223 . S
O1120 C1128 1.315 . S
Cd1121 O1120 2.223 . S
Cd1121 O1124 2.297 . S
Cd1121 O1125 2.439 . S
Cd1121 O1131 2.240 . S
Cd1122 O1123 2.240 . S
Cd1122 O1130 2.223 . S
Cd1122 O1132 2.297 . S
Cd1122 O1133 2.439 . S
O1123 Cd1122 2.240 . S
O1123 C1128 1.279 . S
O1124 Cd1121 2.297 . S
O1124 C1126 1.247 . S
O1125 Cd1121 2.439 . S
O1125 C1126 1.208 . S
C1126 O1124 1.247 . S
C1126 O1125 1.208 . S
C1127 O1132 1.247 . S
C1127 O1133 1.208 . S
C1128 O1120 1.315 . S
C1128 O1123 1.279 . S
C1129 O1130 1.315 . S
C1129 O1131 1.279 . S
O1130 Cd1122 2.223 . S
O1130 C1129 1.315 . S
O1131 Cd1121 2.240 . S
O1131 C1129 1.279 . S
O1132 Cd1122 2.297 . S
O1132 C1127 1.247 . S
O1133 Cd1122 2.439 . S
O1133 C1127 1.208 . S
O1134 Cd1135 2.223 . S
O1134 C1142 1.315 . S
Cd1135 O1134 2.223 . S
Cd1135 O1138 2.297 1_455 S
Cd1135 O1139 2.439 . S
Cd1135 O1145 2.240 . S
Cd1136 O1137 2.240 . S
Cd1136 O1144 2.223 . S
Cd1136 O1146 2.297 . S
Cd1136 O1147 2.439 . S
O1137 Cd1136 2.240 . S
O1137 C1142 1.279 . S
O1138 Cd1135 2.297 1_655 S
O1138 C1140 1.247 . S
O1139 Cd1135 2.439 . S
O1139 C1140 1.208 1_455 S
C1140 O1138 1.247 . S
C1140 O1139 1.208 1_655 S
C1141 O1146 1.247 . S
C1141 O1147 1.208 . S
C1142 O1134 1.315 . S
C1142 O1137 1.279 . S
C1143 O1144 1.315 . S
C1143 O1145 1.279 . S
O1144 Cd1136 2.223 . S
O1144 C1143 1.315 . S
O1145 Cd1135 2.240 . S
O1145 C1143 1.279 . S
O1146 Cd1136 2.297 . S
O1146 C1141 1.247 . S
O1147 Cd1136 2.439 . S
O1147 C1141 1.208 . S
O1148 Cd1149 2.223 . S
O1148 C1156 1.315 . S
Cd1149 O1148 2.223 . S
Cd1149 O1152 2.297 . S
Cd1149 O1153 2.439 . S
Cd1149 O1159 2.240 . S
Cd1150 O1151 2.240 . S
Cd1150 O1158 2.223 . S
Cd1150 O1160 2.297 . S
Cd1150 O1161 2.439 . S
O1151 Cd1150 2.240 . S
O1151 C1156 1.279 . S
O1152 Cd1149 2.297 . S
O1152 C1154 1.247 . S
O1153 Cd1149 2.439 . S
O1153 C1154 1.208 . S
C1154 O1152 1.247 . S
C1154 O1153 1.208 . S
C1155 O1160 1.247 . S
C1155 O1161 1.208 . S
C1156 O1148 1.315 . S
C1156 O1151 1.279 . S
C1157 O1158 1.315 . S
C1157 O1159 1.279 . S
O1158 Cd1150 2.223 . S
O1158 C1157 1.315 . S
O1159 Cd1149 2.240 . S
O1159 C1157 1.279 . S
O1160 Cd1150 2.297 . S
O1160 C1155 1.247 . S
O1161 Cd1150 2.439 . S
O1161 C1155 1.208 . S
O1162 Cd1163 2.223 . S
O1162 C1170 1.315 . S
Cd1163 O1162 2.223 . S
Cd1163 O1166 2.297 . S
Cd1163 O1167 2.439 . S
Cd1163 O1173 2.240 . S
Cd1164 O1165 2.240 . S
Cd1164 O1172 2.223 . S
Cd1164 O1174 2.297 . S
Cd1164 O1175 2.439 . S
O1165 Cd1164 2.240 . S
O1165 C1170 1.279 . S
O1166 Cd1163 2.297 . S
O1166 C1168 1.247 . S
O1167 Cd1163 2.439 . S
O1167 C1168 1.208 . S
C1168 O1166 1.247 . S
C1168 O1167 1.208 . S
C1169 O1174 1.247 . S
C1169 O1175 1.208 . S
C1170 O1162 1.315 . S
C1170 O1165 1.279 . S
C1171 O1172 1.315 . S
C1171 O1173 1.279 . S
O1172 Cd1164 2.223 . S
O1172 C1171 1.315 . S
O1173 Cd1163 2.240 . S
O1173 C1171 1.279 . S
O1174 Cd1164 2.297 . S
O1174 C1169 1.247 . S
O1175 Cd1164 2.439 . S
O1175 C1169 1.208 . S
O1176 Cd1177 2.223 . S
O1176 C1184 1.315 . S
Cd1177 O1176 2.223 . S
Cd1177 O1180 2.297 . S
Cd1177 O1181 2.439 . S
Cd1177 O1187 2.240 . S
Cd1178 O1179 2.240 . S
Cd1178 O1186 2.223 . S
Cd1178 O1188 2.297 . S
Cd1178 O1189 2.439 . S
O1179 Cd1178 2.240 . S
O1179 C1184 1.279 . S
O1180 Cd1177 2.297 . S
O1180 C1182 1.247 . S
O1181 Cd1177 2.439 . S
O1181 C1182 1.208 . S
C1182 O1180 1.247 . S
C1182 O1181 1.208 . S
C1183 O1188 1.247 . S
C1183 O1189 1.208 . S
C1184 O1176 1.315 . S
C1184 O1179 1.279 . S
C1185 O1186 1.315 . S
C1185 O1187 1.279 . S
O1186 Cd1178 2.223 . S
O1186 C1185 1.315 . S
O1187 Cd1177 2.240 . S
O1187 C1185 1.279 . S
O1188 Cd1178 2.297 . S
O1188 C1183 1.247 . S
O1189 Cd1178 2.439 . S
O1189 C1183 1.208 . S
O1190 Cd1191 2.223 . S
O1190 C1198 1.315 . S
Cd1191 O1190 2.223 . S
Cd1191 O1194 2.297 . S
Cd1191 O1195 2.439 . S
Cd1191 O1201 2.240 . S
Cd1192 O1193 2.240 . S
Cd1192 O1200 2.223 . S
Cd1192 O1202 2.297 . S
Cd1192 O1203 2.439 . S
O1193 Cd1192 2.240 . S
O1193 C1198 1.279 . S
O1194 Cd1191 2.297 . S
O1194 C1196 1.247 . S
O1195 Cd1191 2.439 . S
O1195 C1196 1.208 . S
C1196 O1194 1.247 . S
C1196 O1195 1.208 . S
C1197 O1202 1.247 . S
C1197 O1203 1.208 . S
C1198 O1190 1.315 . S
C1198 O1193 1.279 . S
C1199 O1200 1.315 . S
C1199 O1201 1.279 . S
O1200 Cd1192 2.223 . S
O1200 C1199 1.315 . S
O1201 Cd1191 2.240 . S
O1201 C1199 1.279 . S
O1202 Cd1192 2.297 . S
O1202 C1197 1.247 . S
O1203 Cd1192 2.439 . S
O1203 C1197 1.208 . S
O1204 Cd1205 2.223 . S
O1204 C1212 1.315 . S
Cd1205 O1204 2.223 . S
Cd1205 O1208 2.297 . S
Cd1205 O1209 2.439 . S
Cd1205 O1215 2.240 . S
Cd1206 O1207 2.240 . S
Cd1206 O1214 2.223 . S
Cd1206 O1216 2.297 . S
Cd1206 O1217 2.439 . S
O1207 Cd1206 2.240 . S
O1207 C1212 1.279 . S
O1208 Cd1205 2.297 . S
O1208 C1210 1.247 . S
O1209 Cd1205 2.439 . S
O1209 C1210 1.208 . S
C1210 O1208 1.247 . S
C1210 O1209 1.208 . S
C1211 O1216 1.247 . S
C1211 O1217 1.208 . S
C1212 O1204 1.315 . S
C1212 O1207 1.279 . S
C1213 O1214 1.315 . S
C1213 O1215 1.279 . S
O1214 Cd1206 2.223 . S
O1214 C1213 1.315 . S
O1215 Cd1205 2.240 . S
O1215 C1213 1.279 . S
O1216 Cd1206 2.297 . S
O1216 C1211 1.247 . S
O1217 Cd1206 2.439 . S
O1217 C1211 1.208 . S
O1218 Cd1219 2.223 . S
O1218 C1226 1.315 . S
Cd1219 O1218 2.223 . S
Cd1219 O1222 2.297 1_455 S
Cd1219 O1223 2.439 . S
Cd1219 O1229 2.240 . S
Cd1220 O1221 2.240 . S
Cd1220 O1228 2.223 . S
Cd1220 O1230 2.297 . S
Cd1220 O1231 2.439 . S
O1221 Cd1220 2.240 . S
O1221 C1226 1.279 . S
O1222 Cd1219 2.297 1_655 S
O1222 C1224 1.247 . S
O1223 Cd1219 2.439 . S
O1223 C1224 1.208 1_455 S
C1224 O1222 1.247 . S
C1224 O1223 1.208 1_655 S
C1225 O1230 1.247 . S
C1225 O1231 1.208 . S
C1226 O1218 1.315 . S
C1226 O1221 1.279 . S
C1227 O1228 1.315 . S
C1227 O1229 1.279 . S
O1228 Cd1220 2.223 . S
O1228 C1227 1.315 . S
O1229 Cd1219 2.240 . S
O1229 C1227 1.279 . S
O1230 Cd1220 2.297 . S
O1230 C1225 1.247 . S
O1231 Cd1220 2.439 . S
O1231 C1225 1.208 . S
O1232 Cd1233 2.223 . S
O1232 C1240 1.315 . S
Cd1233 O1232 2.223 . S
Cd1233 O1236 2.297 . S
Cd1233 O1237 2.439 . S
Cd1233 O1243 2.240 . S
Cd1234 O1235 2.240 . S
Cd1234 O1242 2.223 . S
Cd1234 O1244 2.297 . S
Cd1234 O1245 2.439 . S
O1235 Cd1234 2.240 . S
O1235 C1240 1.279 . S
O1236 Cd1233 2.297 . S
O1236 C1238 1.247 . S
O1237 Cd1233 2.439 . S
O1237 C1238 1.208 . S
C1238 O1236 1.247 . S
C1238 O1237 1.208 . S
C1239 O1244 1.247 . S
C1239 O1245 1.208 . S
C1240 O1232 1.315 . S
C1240 O1235 1.279 . S
C1241 O1242 1.315 . S
C1241 O1243 1.279 . S
O1242 Cd1234 2.223 . S
O1242 C1241 1.315 . S
O1243 Cd1233 2.240 . S
O1243 C1241 1.279 . S
O1244 Cd1234 2.297 . S
O1244 C1239 1.247 . S
O1245 Cd1234 2.439 . S
O1245 C1239 1.208 . S
O1246 Cd1247 2.223 . S
O1246 C1254 1.315 . S
Cd1247 O1246 2.223 . S
Cd1247 O1250 2.297 . S
Cd1247 O1251 2.439 . S
Cd1247 O1257 2.240 . S
Cd1248 O1249 2.240 . S
Cd1248 O1256 2.223 . S
Cd1248 O1258 2.297 . S
Cd1248 O1259 2.439 . S
O1249 Cd1248 2.240 . S
O1249 C1254 1.279 . S
O1250 Cd1247 2.297 . S
O1250 C1252 1.247 . S
O1251 Cd1247 2.439 . S
O1251 C1252 1.208 . S
C1252 O1250 1.247 . S
C1252 O1251 1.208 . S
C1253 O1258 1.247 . S
C1253 O1259 1.208 . S
C1254 O1246 1.315 . S
C1254 O1249 1.279 . S
C1255 O1256 1.315 . S
C1255 O1257 1.279 . S
O1256 Cd1248 2.223 . S
O1256 C1255 1.315 . S
O1257 Cd1247 2.240 . S
O1257 C1255 1.279 . S
O1258 Cd1248 2.297 . S
O1258 C1253 1.247 . S
O1259 Cd1248 2.439 . S
O1259 C1253 1.208 . S
O1260 Cd1261 2.223 . S
O1260 C1268 1.315 . S
Cd1261 O1260 2.223 . S
Cd1261 O1264 2.297 1_554 S
Cd1261 O1265 2.439 . S
Cd1261 O1271 2.240 . S
Cd1262 O1263 2.240 . S
Cd1262 O1270 2.223 . S
Cd1262 O1272 2.297 . S
Cd1262 O1273 2.439 . S
O1263 Cd1262 2.240 . S
O1263 C1268 1.279 . S
O1264 Cd1261 2.297 1_556 S
O1264 C1266 1.247 . S
O1265 Cd1261 2.439 . S
O1265 C1266 1.208 1_554 S
C1266 O1264 1.247 . S
C1266 O1265 1.208 1_556 S
C1267 O1272 1.247 . S
C1267 O1273 1.208 . S
C1268 O1260 1.315 . S
C1268 O1263 1.279 . S
C1269 O1270 1.315 . S
C1269 O1271 1.279 . S
O1270 Cd1262 2.223 . S
O1270 C1269 1.315 . S
O1271 Cd1261 2.240 . S
O1271 C1269 1.279 . S
O1272 Cd1262 2.297 . S
O1272 C1267 1.247 . S
O1273 Cd1262 2.439 . S
O1273 C1267 1.208 . S
O1274 Cd1275 2.223 . S
O1274 C1282 1.315 . S
Cd1275 O1274 2.223 . S
Cd1275 O1278 2.297 . S
Cd1275 O1279 2.439 . S
Cd1275 O1285 2.240 . S
Cd1276 O1277 2.240 . S
Cd1276 O1284 2.223 . S
Cd1276 O1286 2.297 . S
Cd1276 O1287 2.439 . S
O1277 Cd1276 2.240 . S
O1277 C1282 1.279 . S
O1278 Cd1275 2.297 . S
O1278 C1280 1.247 . S
O1279 Cd1275 2.439 . S
O1279 C1280 1.208 . S
C1280 O1278 1.247 . S
C1280 O1279 1.208 . S
C1281 O1286 1.247 . S
C1281 O1287 1.208 . S
C1282 O1274 1.315 . S
C1282 O1277 1.279 . S
C1283 O1284 1.315 . S
C1283 O1285 1.279 . S
O1284 Cd1276 2.223 . S
O1284 C1283 1.315 . S
O1285 Cd1275 2.240 . S
O1285 C1283 1.279 . S
O1286 Cd1276 2.297 . S
O1286 C1281 1.247 . S
O1287 Cd1276 2.439 . S
O1287 C1281 1.208 . S
O1288 Cd1289 2.223 . S
O1288 C1296 1.315 . S
Cd1289 O1288 2.223 . S
Cd1289 O1292 2.297 1_554 S
Cd1289 O1293 2.439 . S
Cd1289 O1299 2.240 . S
Cd1290 O1291 2.240 . S
Cd1290 O1298 2.223 . S
Cd1290 O1300 2.297 . S
Cd1290 O1301 2.439 . S
O1291 Cd1290 2.240 . S
O1291 C1296 1.279 . S
O1292 Cd1289 2.297 1_556 S
O1292 C1294 1.247 . S
O1293 Cd1289 2.439 . S
O1293 C1294 1.208 1_554 S
C1294 O1292 1.247 . S
C1294 O1293 1.208 1_556 S
C1295 O1300 1.247 . S
C1295 O1301 1.208 . S
C1296 O1288 1.315 . S
C1296 O1291 1.279 . S
C1297 O1298 1.315 . S
C1297 O1299 1.279 . S
O1298 Cd1290 2.223 . S
O1298 C1297 1.315 . S
O1299 Cd1289 2.240 . S
O1299 C1297 1.279 . S
O1300 Cd1290 2.297 . S
O1300 C1295 1.247 . S
O1301 Cd1290 2.439 . S
O1301 C1295 1.208 . S
O1302 Cd1303 2.223 . S
O1302 C1310 1.315 . S
Cd1303 O1302 2.223 . S
Cd1303 O1306 2.297 . S
Cd1303 O1307 2.439 . S
Cd1303 O1313 2.240 . S
Cd1304 O1305 2.240 . S
Cd1304 O1312 2.223 . S
Cd1304 O1314 2.297 . S
Cd1304 O1315 2.439 . S
O1305 Cd1304 2.240 . S
O1305 C1310 1.279 . S
O1306 Cd1303 2.297 . S
O1306 C1308 1.247 . S
O1307 Cd1303 2.439 . S
O1307 C1308 1.208 . S
C1308 O1306 1.247 . S
C1308 O1307 1.208 . S
C1309 O1314 1.247 . S
C1309 O1315 1.208 . S
C1310 O1302 1.315 . S
C1310 O1305 1.279 . S
C1311 O1312 1.315 . S
C1311 O1313 1.279 . S
O1312 Cd1304 2.223 . S
O1312 C1311 1.315 . S
O1313 Cd1303 2.240 . S
O1313 C1311 1.279 . S
O1314 Cd1304 2.297 . S
O1314 C1309 1.247 . S
O1315 Cd1304 2.439 . S
O1315 C1309 1.208 . S
O1316 Cd1317 2.223 . S
O1316 C1324 1.315 . S
Cd1317 O1316 2.223 . S
Cd1317 O1320 2.297 . S
Cd1317 O1321 2.439 . S
Cd1317 O1327 2.240 . S
Cd1318 O1319 2.240 . S
Cd1318 O1326 2.223 . S
Cd1318 O1328 2.297 . S
Cd1318 O1329 2.439 . S
O1319 Cd1318 2.240 . S
O1319 C1324 1.279 . S
O1320 Cd1317 2.297 . S
O1320 C1322 1.247 . S
O1321 Cd1317 2.439 . S
O1321 C1322 1.208 . S
C1322 O1320 1.247 . S
C1322 O1321 1.208 . S
C1323 O1328 1.247 . S
C1323 O1329 1.208 . S
C1324 O1316 1.315 . S
C1324 O1319 1.279 . S
C1325 O1326 1.315 . S
C1325 O1327 1.279 . S
O1326 Cd1318 2.223 . S
O1326 C1325 1.315 . S
O1327 Cd1317 2.240 . S
O1327 C1325 1.279 . S
O1328 Cd1318 2.297 . S
O1328 C1323 1.247 . S
O1329 Cd1318 2.439 . S
O1329 C1323 1.208 . S
O1330 Cd1331 2.223 . S
O1330 C1338 1.315 . S
Cd1331 O1330 2.223 . S
Cd1331 O1334 2.297 . S
Cd1331 O1335 2.439 . S
Cd1331 O1341 2.240 . S
Cd1332 O1333 2.240 . S
Cd1332 O1340 2.223 . S
Cd1332 O1342 2.297 . S
Cd1332 O1343 2.439 . S
O1333 Cd1332 2.240 . S
O1333 C1338 1.279 . S
O1334 Cd1331 2.297 . S
O1334 C1336 1.247 . S
O1335 Cd1331 2.439 . S
O1335 C1336 1.208 . S
C1336 O1334 1.247 . S
C1336 O1335 1.208 . S
C1337 O1342 1.247 . S
C1337 O1343 1.208 . S
C1338 O1330 1.315 . S
C1338 O1333 1.279 . S
C1339 O1340 1.315 . S
C1339 O1341 1.279 . S
O1340 Cd1332 2.223 . S
O1340 C1339 1.315 . S
O1341 Cd1331 2.240 . S
O1341 C1339 1.279 . S
O1342 Cd1332 2.297 . S
O1342 C1337 1.247 . S
O1343 Cd1332 2.439 . S
O1343 C1337 1.208 . S
O1344 Cd1345 2.223 . S
O1344 C1352 1.315 . S
Cd1345 O1344 2.223 . S
Cd1345 O1348 2.297 . S
Cd1345 O1349 2.439 . S
Cd1345 O1355 2.240 . S
Cd1346 O1347 2.240 . S
Cd1346 O1354 2.223 . S
Cd1346 O1356 2.297 . S
Cd1346 O1357 2.439 . S
O1347 Cd1346 2.240 . S
O1347 C1352 1.279 . S
O1348 Cd1345 2.297 . S
O1348 C1350 1.247 . S
O1349 Cd1345 2.439 . S
O1349 C1350 1.208 . S
C1350 O1348 1.247 . S
C1350 O1349 1.208 . S
C1351 O1356 1.247 . S
C1351 O1357 1.208 . S
C1352 O1344 1.315 . S
C1352 O1347 1.279 . S
C1353 O1354 1.315 . S
C1353 O1355 1.279 . S
O1354 Cd1346 2.223 . S
O1354 C1353 1.315 . S
O1355 Cd1345 2.240 . S
O1355 C1353 1.279 . S
O1356 Cd1346 2.297 . S
O1356 C1351 1.247 . S
O1357 Cd1346 2.439 . S
O1357 C1351 1.208 . S
O1358 Cd1359 2.223 . S
O1358 C1366 1.315 . S
Cd1359 O1358 2.223 . S
Cd1359 O1362 2.297 . S
Cd1359 O1363 2.439 . S
Cd1359 O1369 2.240 . S
Cd1360 O1361 2.240 . S
Cd1360 O1368 2.223 . S
Cd1360 O1370 2.297 . S
Cd1360 O1371 2.439 . S
O1361 Cd1360 2.240 . S
O1361 C1366 1.279 . S
O1362 Cd1359 2.297 . S
O1362 C1364 1.247 . S
O1363 Cd1359 2.439 . S
O1363 C1364 1.208 . S
C1364 O1362 1.247 . S
C1364 O1363 1.208 . S
C1365 O1370 1.247 . S
C1365 O1371 1.208 . S
C1366 O1358 1.315 . S
C1366 O1361 1.279 . S
C1367 O1368 1.315 . S
C1367 O1369 1.279 . S
O1368 Cd1360 2.223 . S
O1368 C1367 1.315 . S
O1369 Cd1359 2.240 . S
O1369 C1367 1.279 . S
O1370 Cd1360 2.297 . S
O1370 C1365 1.247 . S
O1371 Cd1360 2.439 . S
O1371 C1365 1.208 . S
O1372 Cd1373 2.223 . S
O1372 C1380 1.315 . S
Cd1373 O1372 2.223 . S
Cd1373 O1376 2.297 . S
Cd1373 O1377 2.439 . S
Cd1373 O1383 2.240 . S
Cd1374 O1375 2.240 . S
Cd1374 O1382 2.223 . S
Cd1374 O1384 2.297 . S
Cd1374 O1385 2.439 . S
O1375 Cd1374 2.240 . S
O1375 C1380 1.279 . S
O1376 Cd1373 2.297 . S
O1376 C1378 1.247 . S
O1377 Cd1373 2.439 . S
O1377 C1378 1.208 . S
C1378 O1376 1.247 . S
C1378 O1377 1.208 . S
C1379 O1384 1.247 . S
C1379 O1385 1.208 . S
C1380 O1372 1.315 . S
C1380 O1375 1.279 . S
C1381 O1382 1.315 . S
C1381 O1383 1.279 . S
O1382 Cd1374 2.223 . S
O1382 C1381 1.315 . S
O1383 Cd1373 2.240 . S
O1383 C1381 1.279 . S
O1384 Cd1374 2.297 . S
O1384 C1379 1.247 . S
O1385 Cd1374 2.439 . S
O1385 C1379 1.208 . S
O1386 Cd1387 2.223 . S
O1386 C1394 1.315 . S
Cd1387 O1386 2.223 . S
Cd1387 O1390 2.297 1_565 S
Cd1387 O1391 2.439 . S
Cd1387 O1397 2.240 . S
Cd1388 O1389 2.240 . S
Cd1388 O1396 2.223 . S
Cd1388 O1398 2.297 . S
Cd1388 O1399 2.439 . S
O1389 Cd1388 2.240 . S
O1389 C1394 1.279 . S
O1390 Cd1387 2.297 1_545 S
O1390 C1392 1.247 . S
O1391 Cd1387 2.439 . S
O1391 C1392 1.208 1_565 S
C1392 O1390 1.247 . S
C1392 O1391 1.208 1_545 S
C1393 O1398 1.247 . S
C1393 O1399 1.208 . S
C1394 O1386 1.315 . S
C1394 O1389 1.279 . S
C1395 O1396 1.315 . S
C1395 O1397 1.279 . S
O1396 Cd1388 2.223 . S
O1396 C1395 1.315 . S
O1397 Cd1387 2.240 . S
O1397 C1395 1.279 . S
O1398 Cd1388 2.297 . S
O1398 C1393 1.247 . S
O1399 Cd1388 2.439 . S
O1399 C1393 1.208 . S
O1400 Cd1401 2.223 . S
O1400 C1408 1.315 . S
Cd1401 O1400 2.223 . S
Cd1401 O1404 2.297 . S
Cd1401 O1405 2.439 . S
Cd1401 O1411 2.240 . S
Cd1402 O1403 2.240 . S
Cd1402 O1410 2.223 . S
Cd1402 O1412 2.297 . S
Cd1402 O1413 2.439 . S
O1403 Cd1402 2.240 . S
O1403 C1408 1.279 . S
O1404 Cd1401 2.297 . S
O1404 C1406 1.247 . S
O1405 Cd1401 2.439 . S
O1405 C1406 1.208 . S
C1406 O1404 1.247 . S
C1406 O1405 1.208 . S
C1407 O1412 1.247 . S
C1407 O1413 1.208 . S
C1408 O1400 1.315 . S
C1408 O1403 1.279 . S
C1409 O1410 1.315 . S
C1409 O1411 1.279 . S
O1410 Cd1402 2.223 . S
O1410 C1409 1.315 . S
O1411 Cd1401 2.240 . S
O1411 C1409 1.279 . S
O1412 Cd1402 2.297 . S
O1412 C1407 1.247 . S
O1413 Cd1402 2.439 . S
O1413 C1407 1.208 . S
O1414 Cd1415 2.223 . S
O1414 C1422 1.315 . S
Cd1415 O1414 2.223 . S
Cd1415 O1418 2.297 . S
Cd1415 O1419 2.439 . S
Cd1415 O1425 2.240 . S
Cd1416 O1417 2.240 . S
Cd1416 O1424 2.223 . S
Cd1416 O1426 2.297 . S
Cd1416 O1427 2.439 . S
O1417 Cd1416 2.240 . S
O1417 C1422 1.279 . S
O1418 Cd1415 2.297 . S
O1418 C1420 1.247 . S
O1419 Cd1415 2.439 . S
O1419 C1420 1.208 . S
C1420 O1418 1.247 . S
C1420 O1419 1.208 . S
C1421 O1426 1.247 . S
C1421 O1427 1.208 . S
C1422 O1414 1.315 . S
C1422 O1417 1.279 . S
C1423 O1424 1.315 . S
C1423 O1425 1.279 . S
O1424 Cd1416 2.223 . S
O1424 C1423 1.315 . S
O1425 Cd1415 2.240 . S
O1425 C1423 1.279 . S
O1426 Cd1416 2.297 . S
O1426 C1421 1.247 . S
O1427 Cd1416 2.439 . S
O1427 C1421 1.208 . S
O1428 Cd1429 2.223 . S
O1428 C1436 1.315 . S
Cd1429 O1428 2.223 . S
Cd1429 O1432 2.297 . S
Cd1429 O1433 2.439 . S
Cd1429 O1439 2.240 . S
Cd1430 O1431 2.240 . S
Cd1430 O1438 2.223 . S
Cd1430 O1440 2.297 . S
Cd1430 O1441 2.439 . S
O1431 Cd1430 2.240 . S
O1431 C1436 1.279 . S
O1432 Cd1429 2.297 . S
O1432 C1434 1.247 . S
O1433 Cd1429 2.439 . S
O1433 C1434 1.208 . S
C1434 O1432 1.247 . S
C1434 O1433 1.208 . S
C1435 O1440 1.247 . S
C1435 O1441 1.208 . S
C1436 O1428 1.315 . S
C1436 O1431 1.279 . S
C1437 O1438 1.315 . S
C1437 O1439 1.279 . S
O1438 Cd1430 2.223 . S
O1438 C1437 1.315 . S
O1439 Cd1429 2.240 . S
O1439 C1437 1.279 . S
O1440 Cd1430 2.297 . S
O1440 C1435 1.247 . S
O1441 Cd1430 2.439 . S
O1441 C1435 1.208 . S
O1442 Cd1443 2.223 . S
O1442 C1450 1.315 . S
Cd1443 O1442 2.223 . S
Cd1443 O1446 2.297 1_565 S
Cd1443 O1447 2.439 . S
Cd1443 O1453 2.240 . S
Cd1444 O1445 2.240 . S
Cd1444 O1452 2.223 . S
Cd1444 O1454 2.297 . S
Cd1444 O1455 2.439 . S
O1445 Cd1444 2.240 . S
O1445 C1450 1.279 . S
O1446 Cd1443 2.297 1_545 S
O1446 C1448 1.247 . S
O1447 Cd1443 2.439 . S
O1447 C1448 1.208 1_565 S
C1448 O1446 1.247 . S
C1448 O1447 1.208 1_545 S
C1449 O1454 1.247 . S
C1449 O1455 1.208 . S
C1450 O1442 1.315 . S
C1450 O1445 1.279 . S
C1451 O1452 1.315 . S
C1451 O1453 1.279 . S
O1452 Cd1444 2.223 . S
O1452 C1451 1.315 . S
O1453 Cd1443 2.240 . S
O1453 C1451 1.279 . S
O1454 Cd1444 2.297 . S
O1454 C1449 1.247 . S
O1455 Cd1444 2.439 . S
O1455 C1449 1.208 . S
O1456 Cd1457 2.223 . S
O1456 C1464 1.315 . S
Cd1457 O1456 2.223 . S
Cd1457 O1460 2.297 . S
Cd1457 O1461 2.439 . S
Cd1457 O1467 2.240 . S
Cd1458 O1459 2.240 . S
Cd1458 O1466 2.223 . S
Cd1458 O1468 2.297 1_545 S
Cd1458 O1469 2.439 . S
O1459 Cd1458 2.240 . S
O1459 C1464 1.279 . S
O1460 Cd1457 2.297 . S
O1460 C1462 1.247 . S
O1461 Cd1457 2.439 . S
O1461 C1462 1.208 . S
C1462 O1460 1.247 . S
C1462 O1461 1.208 . S
C1463 O1468 1.247 . S
C1463 O1469 1.208 1_565 S
C1464 O1456 1.315 . S
C1464 O1459 1.279 . S
C1465 O1466 1.315 . S
C1465 O1467 1.279 . S
O1466 Cd1458 2.223 . S
O1466 C1465 1.315 . S
O1467 Cd1457 2.240 . S
O1467 C1465 1.279 . S
O1468 Cd1458 2.297 1_565 S
O1468 C1463 1.247 . S
O1469 Cd1458 2.439 . S
O1469 C1463 1.208 1_545 S
O1470 Cd1471 2.223 . S
O1470 C1478 1.315 . S
Cd1471 O1470 2.223 . S
Cd1471 O1474 2.297 . S
Cd1471 O1475 2.439 . S
Cd1471 O1481 2.240 . S
Cd1472 O1473 2.240 . S
Cd1472 O1480 2.223 . S
Cd1472 O1482 2.297 . S
Cd1472 O1483 2.439 . S
O1473 Cd1472 2.240 . S
O1473 C1478 1.279 . S
O1474 Cd1471 2.297 . S
O1474 C1476 1.247 . S
O1475 Cd1471 2.439 . S
O1475 C1476 1.208 . S
C1476 O1474 1.247 . S
C1476 O1475 1.208 . S
C1477 O1482 1.247 . S
C1477 O1483 1.208 . S
C1478 O1470 1.315 . S
C1478 O1473 1.279 . S
C1479 O1480 1.315 . S
C1479 O1481 1.279 . S
O1480 Cd1472 2.223 . S
O1480 C1479 1.315 . S
O1481 Cd1471 2.240 . S
O1481 C1479 1.279 . S
O1482 Cd1472 2.297 . S
O1482 C1477 1.247 . S
O1483 Cd1472 2.439 . S
O1483 C1477 1.208 . S
O1484 Cd1485 2.223 . S
O1484 C1492 1.315 . S
Cd1485 O1484 2.223 . S
Cd1485 O1488 2.297 . S
Cd1485 O1489 2.439 . S
Cd1485 O1495 2.240 . S
Cd1486 O1487 2.240 . S
Cd1486 O1494 2.223 . S
Cd1486 O1496 2.297 . S
Cd1486 O1497 2.439 . S
O1487 Cd1486 2.240 . S
O1487 C1492 1.279 . S
O1488 Cd1485 2.297 . S
O1488 C1490 1.247 . S
O1489 Cd1485 2.439 . S
O1489 C1490 1.208 . S
C1490 O1488 1.247 . S
C1490 O1489 1.208 . S
C1491 O1496 1.247 . S
C1491 O1497 1.208 . S
C1492 O1484 1.315 . S
C1492 O1487 1.279 . S
C1493 O1494 1.315 . S
C1493 O1495 1.279 . S
O1494 Cd1486 2.223 . S
O1494 C1493 1.315 . S
O1495 Cd1485 2.240 . S
O1495 C1493 1.279 . S
O1496 Cd1486 2.297 . S
O1496 C1491 1.247 . S
O1497 Cd1486 2.439 . S
O1497 C1491 1.208 . S
O1498 Cd1499 2.223 . S
O1498 C1506 1.315 . S
Cd1499 O1498 2.223 . S
Cd1499 O1502 2.297 . S
Cd1499 O1503 2.439 . S
Cd1499 O1509 2.240 . S
Cd1500 O1501 2.240 . S
Cd1500 O1508 2.223 . S
Cd1500 O1510 2.297 . S
Cd1500 O1511 2.439 . S
O1501 Cd1500 2.240 . S
O1501 C1506 1.279 . S
O1502 Cd1499 2.297 . S
O1502 C1504 1.247 . S
O1503 Cd1499 2.439 . S
O1503 C1504 1.208 . S
C1504 O1502 1.247 . S
C1504 O1503 1.208 . S
C1505 O1510 1.247 . S
C1505 O1511 1.208 . S
C1506 O1498 1.315 . S
C1506 O1501 1.279 . S
C1507 O1508 1.315 . S
C1507 O1509 1.279 . S
O1508 Cd1500 2.223 . S
O1508 C1507 1.315 . S
O1509 Cd1499 2.240 . S
O1509 C1507 1.279 . S
O1510 Cd1500 2.297 . S
O1510 C1505 1.247 . S
O1511 Cd1500 2.439 . S
O1511 C1505 1.208 . S
O1512 Cd1513 2.223 . S
O1512 C1520 1.315 . S
Cd1513 O1512 2.223 . S
Cd1513 O1516 2.297 . S
Cd1513 O1517 2.439 . S
Cd1513 O1523 2.240 . S
Cd1514 O1515 2.240 . S
Cd1514 O1522 2.223 . S
Cd1514 O1524 2.297 . S
Cd1514 O1525 2.439 . S
O1515 Cd1514 2.240 . S
O1515 C1520 1.279 . S
O1516 Cd1513 2.297 . S
O1516 C1518 1.247 . S
O1517 Cd1513 2.439 . S
O1517 C1518 1.208 . S
C1518 O1516 1.247 . S
C1518 O1517 1.208 . S
C1519 O1524 1.247 . S
C1519 O1525 1.208 . S
C1520 O1512 1.315 . S
C1520 O1515 1.279 . S
C1521 O1522 1.315 . S
C1521 O1523 1.279 . S
O1522 Cd1514 2.223 . S
O1522 C1521 1.315 . S
O1523 Cd1513 2.240 . S
O1523 C1521 1.279 . S
O1524 Cd1514 2.297 . S
O1524 C1519 1.247 . S
O1525 Cd1514 2.439 . S
O1525 C1519 1.208 . S
O1526 Cd1527 2.223 . S
O1526 C1534 1.315 . S
Cd1527 O1526 2.223 . S
Cd1527 O1530 2.297 . S
Cd1527 O1531 2.439 . S
Cd1527 O1537 2.240 . S
Cd1528 O1529 2.240 . S
Cd1528 O1536 2.223 . S
Cd1528 O1538 2.297 . S
Cd1528 O1539 2.439 . S
O1529 Cd1528 2.240 . S
O1529 C1534 1.279 . S
O1530 Cd1527 2.297 . S
O1530 C1532 1.247 . S
O1531 Cd1527 2.439 . S
O1531 C1532 1.208 . S
C1532 O1530 1.247 . S
C1532 O1531 1.208 . S
C1533 O1538 1.247 . S
C1533 O1539 1.208 . S
C1534 O1526 1.315 . S
C1534 O1529 1.279 . S
C1535 O1536 1.315 . S
C1535 O1537 1.279 . S
O1536 Cd1528 2.223 . S
O1536 C1535 1.315 . S
O1537 Cd1527 2.240 . S
O1537 C1535 1.279 . S
O1538 Cd1528 2.297 . S
O1538 C1533 1.247 . S
O1539 Cd1528 2.439 . S
O1539 C1533 1.208 . S
O1540 Cd1541 2.223 . S
O1540 C1548 1.315 . S
Cd1541 O1540 2.223 . S
Cd1541 O1544 2.297 . S
Cd1541 O1545 2.439 . S
Cd1541 O1551 2.240 . S
Cd1542 O1543 2.240 . S
Cd1542 O1550 2.223 . S
Cd1542 O1552 2.297 1_545 S
Cd1542 O1553 2.439 . S
O1543 Cd1542 2.240 . S
O1543 C1548 1.279 . S
O1544 Cd1541 2.297 . S
O1544 C1546 1.247 . S
O1545 Cd1541 2.439 . S
O1545 C1546 1.208 . S
C1546 O1544 1.247 . S
C1546 O1545 1.208 . S
C1547 O1552 1.247 . S
C1547 O1553 1.208 1_565 S
C1548 O1540 1.315 . S
C1548 O1543 1.279 . S
C1549 O1550 1.315 . S
C1549 O1551 1.279 . S
O1550 Cd1542 2.223 . S
O1550 C1549 1.315 . S
O1551 Cd1541 2.240 . S
O1551 C1549 1.279 . S
O1552 Cd1542 2.297 1_565 S
O1552 C1547 1.247 . S
O1553 Cd1542 2.439 . S
O1553 C1547 1.208 1_545 S
O1554 Cd1555 2.223 . S
O1554 C1562 1.315 . S
Cd1555 O1554 2.223 . S
Cd1555 O1558 2.297 . S
Cd1555 O1559 2.439 . S
Cd1555 O1565 2.240 . S
Cd1556 O1557 2.240 . S
Cd1556 O1564 2.223 . S
Cd1556 O1566 2.297 . S
Cd1556 O1567 2.439 . S
O1557 Cd1556 2.240 . S
O1557 C1562 1.279 . S
O1558 Cd1555 2.297 . S
O1558 C1560 1.247 . S
O1559 Cd1555 2.439 . S
O1559 C1560 1.208 . S
C1560 O1558 1.247 . S
C1560 O1559 1.208 . S
C1561 O1566 1.247 . S
C1561 O1567 1.208 . S
C1562 O1554 1.315 . S
C1562 O1557 1.279 . S
C1563 O1564 1.315 . S
C1563 O1565 1.279 . S
O1564 Cd1556 2.223 . S
O1564 C1563 1.315 . S
O1565 Cd1555 2.240 . S
O1565 C1563 1.279 . S
O1566 Cd1556 2.297 . S
O1566 C1561 1.247 . S
O1567 Cd1556 2.439 . S
O1567 C1561 1.208 . S
O1568 Cd1569 2.223 . S
O1568 C1576 1.315 . S
Cd1569 O1568 2.223 . S
Cd1569 O1572 2.297 . S
Cd1569 O1573 2.439 . S
Cd1569 O1579 2.240 . S
Cd1570 O1571 2.240 . S
Cd1570 O1578 2.223 . S
Cd1570 O1580 2.297 . S
Cd1570 O1581 2.439 . S
O1571 Cd1570 2.240 . S
O1571 C1576 1.279 . S
O1572 Cd1569 2.297 . S
O1572 C1574 1.247 . S
O1573 Cd1569 2.439 . S
O1573 C1574 1.208 . S
C1574 O1572 1.247 . S
C1574 O1573 1.208 . S
C1575 O1580 1.247 . S
C1575 O1581 1.208 . S
C1576 O1568 1.315 . S
C1576 O1571 1.279 . S
C1577 O1578 1.315 . S
C1577 O1579 1.279 . S
O1578 Cd1570 2.223 . S
O1578 C1577 1.315 . S
O1579 Cd1569 2.240 . S
O1579 C1577 1.279 . S
O1580 Cd1570 2.297 . S
O1580 C1575 1.247 . S
O1581 Cd1570 2.439 . S
O1581 C1575 1.208 . S
O1582 Cd1583 2.223 . S
O1582 C1590 1.315 . S
Cd1583 O1582 2.223 . S
Cd1583 O1586 2.297 . S
Cd1583 O1587 2.439 . S
Cd1583 O1593 2.240 . S
Cd1584 O1585 2.240 . S
Cd1584 O1592 2.223 . S
Cd1584 O1594 2.297 . S
Cd1584 O1595 2.439 . S
O1585 Cd1584 2.240 . S
O1585 C1590 1.279 . S
O1586 Cd1583 2.297 . S
O1586 C1588 1.247 . S
O1587 Cd1583 2.439 . S
O1587 C1588 1.208 . S
C1588 O1586 1.247 . S
C1588 O1587 1.208 . S
C1589 O1594 1.247 . S
C1589 O1595 1.208 . S
C1590 O1582 1.315 . S
C1590 O1585 1.279 . S
C1591 O1592 1.315 . S
C1591 O1593 1.279 . S
O1592 Cd1584 2.223 . S
O1592 C1591 1.315 . S
O1593 Cd1583 2.240 . S
O1593 C1591 1.279 . S
O1594 Cd1584 2.297 . S
O1594 C1589 1.247 . S
O1595 Cd1584 2.439 . S
O1595 C1589 1.208 . S
O1596 Cd1597 2.223 . S
O1596 C1604 1.315 . S
Cd1597 O1596 2.223 . S
Cd1597 O1600 2.297 . S
Cd1597 O1601 2.439 . S
Cd1597 O1607 2.240 . S
Cd1598 O1599 2.240 . S
Cd1598 O1606 2.223 . S
Cd1598 O1608 2.297 1_556 S
Cd1598 O1609 2.439 . S
O1599 Cd1598 2.240 . S
O1599 C1604 1.279 . S
O1600 Cd1597 2.297 . S
O1600 C1602 1.247 . S
O1601 Cd1597 2.439 . S
O1601 C1602 1.208 . S
C1602 O1600 1.247 . S
C1602 O1601 1.208 . S
C1603 O1608 1.247 . S
C1603 O1609 1.208 1_554 S
C1604 O1596 1.315 . S
C1604 O1599 1.279 . S
C1605 O1606 1.315 . S
C1605 O1607 1.279 . S
O1606 Cd1598 2.223 . S
O1606 C1605 1.315 . S
O1607 Cd1597 2.240 . S
O1607 C1605 1.279 . S
O1608 Cd1598 2.297 1_554 S
O1608 C1603 1.247 . S
O1609 Cd1598 2.439 . S
O1609 C1603 1.208 1_556 S
O1610 Cd1611 2.223 . S
O1610 C1618 1.315 . S
Cd1611 O1610 2.223 . S
Cd1611 O1614 2.297 . S
Cd1611 O1615 2.439 . S
Cd1611 O1621 2.240 . S
Cd1612 O1613 2.240 . S
Cd1612 O1620 2.223 . S
Cd1612 O1622 2.297 . S
Cd1612 O1623 2.439 . S
O1613 Cd1612 2.240 . S
O1613 C1618 1.279 . S
O1614 Cd1611 2.297 . S
O1614 C1616 1.247 . S
O1615 Cd1611 2.439 . S
O1615 C1616 1.208 . S
C1616 O1614 1.247 . S
C1616 O1615 1.208 . S
C1617 O1622 1.247 . S
C1617 O1623 1.208 . S
C1618 O1610 1.315 . S
C1618 O1613 1.279 . S
C1619 O1620 1.315 . S
C1619 O1621 1.279 . S
O1620 Cd1612 2.223 . S
O1620 C1619 1.315 . S
O1621 Cd1611 2.240 . S
O1621 C1619 1.279 . S
O1622 Cd1612 2.297 . S
O1622 C1617 1.247 . S
O1623 Cd1612 2.439 . S
O1623 C1617 1.208 . S
O1624 Cd1625 2.223 . S
O1624 C1632 1.315 . S
Cd1625 O1624 2.223 . S
Cd1625 O1628 2.297 . S
Cd1625 O1629 2.439 . S
Cd1625 O1635 2.240 . S
Cd1626 O1627 2.240 . S
Cd1626 O1634 2.223 . S
Cd1626 O1636 2.297 1_556 S
Cd1626 O1637 2.439 . S
O1627 Cd1626 2.240 . S
O1627 C1632 1.279 . S
O1628 Cd1625 2.297 . S
O1628 C1630 1.247 . S
O1629 Cd1625 2.439 . S
O1629 C1630 1.208 . S
C1630 O1628 1.247 . S
C1630 O1629 1.208 . S
C1631 O1636 1.247 . S
C1631 O1637 1.208 1_554 S
C1632 O1624 1.315 . S
C1632 O1627 1.279 . S
C1633 O1634 1.315 . S
C1633 O1635 1.279 . S
O1634 Cd1626 2.223 . S
O1634 C1633 1.315 . S
O1635 Cd1625 2.240 . S
O1635 C1633 1.279 . S
O1636 Cd1626 2.297 1_554 S
O1636 C1631 1.247 . S
O1637 Cd1626 2.439 . S
O1637 C1631 1.208 1_556 S
O1638 Cd1639 2.223 . S
O1638 C1646 1.315 . S
Cd1639 O1638 2.223 . S
Cd1639 O1642 2.297 . S
Cd1639 O1643 2.439 . S
Cd1639 O1649 2.240 . S
Cd1640 O1641 2.240 . S
Cd1640 O1648 2.223 . S
Cd1640 O1650 2.297 . S
Cd1640 O1651 2.439 . S
O1641 Cd1640 2.240 . S
O1641 C1646 1.279 . S
O1642 Cd1639 2.297 . S
O1642 C1644 1.247 . S
O1643 Cd1639 2.439 . S
O1643 C1644 1.208 . S
C1644 O1642 1.247 . S
C1644 O1643 1.208 . S
C1645 O1650 1.247 . S
C1645 O1651 1.208 . S
C1646 O1638 1.315 . S
C1646 O1641 1.279 . S
C1647 O1648 1.315 . S
C1647 O1649 1.279 . S
O1648 Cd1640 2.223 . S
O1648 C1647 1.315 . S
O1649 Cd1639 2.240 . S
O1649 C1647 1.279 . S
O1650 Cd1640 2.297 . S
O1650 C1645 1.247 . S
O1651 Cd1640 2.439 . S
O1651 C1645 1.208 . S
O1652 Cd1653 2.223 . S
O1652 C1660 1.315 . S
Cd1653 O1652 2.223 . S
Cd1653 O1656 2.297 . S
Cd1653 O1657 2.439 . S
Cd1653 O1663 2.240 . S
Cd1654 O1655 2.240 . S
Cd1654 O1662 2.223 . S
Cd1654 O1664 2.297 . S
Cd1654 O1665 2.439 . S
O1655 Cd1654 2.240 . S
O1655 C1660 1.279 . S
O1656 Cd1653 2.297 . S
O1656 C1658 1.247 . S
O1657 Cd1653 2.439 . S
O1657 C1658 1.208 . S
C1658 O1656 1.247 . S
C1658 O1657 1.208 . S
C1659 O1664 1.247 . S
C1659 O1665 1.208 . S
C1660 O1652 1.315 . S
C1660 O1655 1.279 . S
C1661 O1662 1.315 . S
C1661 O1663 1.279 . S
O1662 Cd1654 2.223 . S
O1662 C1661 1.315 . S
O1663 Cd1653 2.240 . S
O1663 C1661 1.279 . S
O1664 Cd1654 2.297 . S
O1664 C1659 1.247 . S
O1665 Cd1654 2.439 . S
O1665 C1659 1.208 . S
O1666 Cd1667 2.223 . S
O1666 C1674 1.315 . S
Cd1667 O1666 2.223 . S
Cd1667 O1670 2.297 . S
Cd1667 O1671 2.439 . S
Cd1667 O1677 2.240 . S
Cd1668 O1669 2.240 . S
Cd1668 O1676 2.223 . S
Cd1668 O1678 2.297 . S
Cd1668 O1679 2.439 . S
O1669 Cd1668 2.240 . S
O1669 C1674 1.279 . S
O1670 Cd1667 2.297 . S
O1670 C1672 1.247 . S
O1671 Cd1667 2.439 . S
O1671 C1672 1.208 . S
C1672 O1670 1.247 . S
C1672 O1671 1.208 . S
C1673 O1678 1.247 . S
C1673 O1679 1.208 . S
C1674 O1666 1.315 . S
C1674 O1669 1.279 . S
C1675 O1676 1.315 . S
C1675 O1677 1.279 . S
O1676 Cd1668 2.223 . S
O1676 C1675 1.315 . S
O1677 Cd1667 2.240 . S
O1677 C1675 1.279 . S
O1678 Cd1668 2.297 . S
O1678 C1673 1.247 . S
O1679 Cd1668 2.439 . S
O1679 C1673 1.208 . S
O1680 Cd1681 2.223 . S
O1680 C1688 1.315 . S
Cd1681 O1680 2.223 . S
Cd1681 O1684 2.297 . S
Cd1681 O1685 2.439 . S
Cd1681 O1691 2.240 . S
Cd1682 O1683 2.240 . S
Cd1682 O1690 2.223 . S
Cd1682 O1692 2.297 . S
Cd1682 O1693 2.439 . S
O1683 Cd1682 2.240 . S
O1683 C1688 1.279 . S
O1684 Cd1681 2.297 . S
O1684 C1686 1.247 . S
O1685 Cd1681 2.439 . S
O1685 C1686 1.208 . S
C1686 O1684 1.247 . S
C1686 O1685 1.208 . S
C1687 O1692 1.247 . S
C1687 O1693 1.208 . S
C1688 O1680 1.315 . S
C1688 O1683 1.279 . S
C1689 O1690 1.315 . S
C1689 O1691 1.279 . S
O1690 Cd1682 2.223 . S
O1690 C1689 1.315 . S
O1691 Cd1681 2.240 . S
O1691 C1689 1.279 . S
O1692 Cd1682 2.297 . S
O1692 C1687 1.247 . S
O1693 Cd1682 2.439 . S
O1693 C1687 1.208 . S
O1694 Cd1695 2.223 . S
O1694 C1702 1.315 . S
Cd1695 O1694 2.223 . S
Cd1695 O1698 2.297 . S
Cd1695 O1699 2.439 . S
Cd1695 O1705 2.240 . S
Cd1696 O1697 2.240 . S
Cd1696 O1704 2.223 . S
Cd1696 O1706 2.297 . S
Cd1696 O1707 2.439 . S
O1697 Cd1696 2.240 . S
O1697 C1702 1.279 . S
O1698 Cd1695 2.297 . S
O1698 C1700 1.247 . S
O1699 Cd1695 2.439 . S
O1699 C1700 1.208 . S
C1700 O1698 1.247 . S
C1700 O1699 1.208 . S
C1701 O1706 1.247 . S
C1701 O1707 1.208 . S
C1702 O1694 1.315 . S
C1702 O1697 1.279 . S
C1703 O1704 1.315 . S
C1703 O1705 1.279 . S
O1704 Cd1696 2.223 . S
O1704 C1703 1.315 . S
O1705 Cd1695 2.240 . S
O1705 C1703 1.279 . S
O1706 Cd1696 2.297 . S
O1706 C1701 1.247 . S
O1707 Cd1696 2.439 . S
O1707 C1701 1.208 . S
O1708 Cd1709 2.223 . S
O1708 C1716 1.315 . S
Cd1709 O1708 2.223 . S
Cd1709 O1712 2.297 . S
Cd1709 O1713 2.439 . S
Cd1709 O1719 2.240 . S
Cd1710 O1711 2.240 . S
Cd1710 O1718 2.223 . S
Cd1710 O1720 2.297 . S
Cd1710 O1721 2.439 . S
O1711 Cd1710 2.240 . S
O1711 C1716 1.279 . S
O1712 Cd1709 2.297 . S
O1712 C1714 1.247 . S
O1713 Cd1709 2.439 . S
O1713 C1714 1.208 . S
C1714 O1712 1.247 . S
C1714 O1713 1.208 . S
C1715 O1720 1.247 . S
C1715 O1721 1.208 . S
C1716 O1708 1.315 . S
C1716 O1711 1.279 . S
C1717 O1718 1.315 . S
C1717 O1719 1.279 . S
O1718 Cd1710 2.223 . S
O1718 C1717 1.315 . S
O1719 Cd1709 2.240 . S
O1719 C1717 1.279 . S
O1720 Cd1710 2.297 . S
O1720 C1715 1.247 . S
O1721 Cd1710 2.439 . S
O1721 C1715 1.208 . S
O1722 Cd1723 2.223 . S
O1722 C1730 1.315 . S
Cd1723 O1722 2.223 . S
Cd1723 O1726 2.297 1_545 S
Cd1723 O1727 2.439 . S
Cd1723 O1733 2.240 . S
Cd1724 O1725 2.240 . S
Cd1724 O1732 2.223 . S
Cd1724 O1734 2.297 . S
Cd1724 O1735 2.439 . S
O1725 Cd1724 2.240 . S
O1725 C1730 1.279 . S
O1726 Cd1723 2.297 1_565 S
O1726 C1728 1.247 . S
O1727 Cd1723 2.439 . S
O1727 C1728 1.208 1_545 S
C1728 O1726 1.247 . S
C1728 O1727 1.208 1_565 S
C1729 O1734 1.247 . S
C1729 O1735 1.208 . S
C1730 O1722 1.315 . S
C1730 O1725 1.279 . S
C1731 O1732 1.315 . S
C1731 O1733 1.279 . S
O1732 Cd1724 2.223 . S
O1732 C1731 1.315 . S
O1733 Cd1723 2.240 . S
O1733 C1731 1.279 . S
O1734 Cd1724 2.297 . S
O1734 C1729 1.247 . S
O1735 Cd1724 2.439 . S
O1735 C1729 1.208 . S
O1736 Cd1737 2.223 . S
O1736 C1744 1.315 . S
Cd1737 O1736 2.223 . S
Cd1737 O1740 2.297 . S
Cd1737 O1741 2.439 . S
Cd1737 O1747 2.240 . S
Cd1738 O1739 2.240 . S
Cd1738 O1746 2.223 . S
Cd1738 O1748 2.297 . S
Cd1738 O1749 2.439 . S
O1739 Cd1738 2.240 . S
O1739 C1744 1.279 . S
O1740 Cd1737 2.297 . S
O1740 C1742 1.247 . S
O1741 Cd1737 2.439 . S
O1741 C1742 1.208 . S
C1742 O1740 1.247 . S
C1742 O1741 1.208 . S
C1743 O1748 1.247 . S
C1743 O1749 1.208 . S
C1744 O1736 1.315 . S
C1744 O1739 1.279 . S
C1745 O1746 1.315 . S
C1745 O1747 1.279 . S
O1746 Cd1738 2.223 . S
O1746 C1745 1.315 . S
O1747 Cd1737 2.240 . S
O1747 C1745 1.279 . S
O1748 Cd1738 2.297 . S
O1748 C1743 1.247 . S
O1749 Cd1738 2.439 . S
O1749 C1743 1.208 . S
O1750 Cd1751 2.223 . S
O1750 C1758 1.315 . S
Cd1751 O1750 2.223 . S
Cd1751 O1754 2.297 . S
Cd1751 O1755 2.439 . S
Cd1751 O1761 2.240 . S
Cd1752 O1753 2.240 . S
Cd1752 O1760 2.223 . S
Cd1752 O1762 2.297 . S
Cd1752 O1763 2.439 . S
O1753 Cd1752 2.240 . S
O1753 C1758 1.279 . S
O1754 Cd1751 2.297 . S
O1754 C1756 1.247 . S
O1755 Cd1751 2.439 . S
O1755 C1756 1.208 . S
C1756 O1754 1.247 . S
C1756 O1755 1.208 . S
C1757 O1762 1.247 . S
C1757 O1763 1.208 . S
C1758 O1750 1.315 . S
C1758 O1753 1.279 . S
C1759 O1760 1.315 . S
C1759 O1761 1.279 . S
O1760 Cd1752 2.223 . S
O1760 C1759 1.315 . S
O1761 Cd1751 2.240 . S
O1761 C1759 1.279 . S
O1762 Cd1752 2.297 . S
O1762 C1757 1.247 . S
O1763 Cd1752 2.439 . S
O1763 C1757 1.208 . S
O1764 Cd1765 2.223 . S
O1764 C1772 1.315 . S
Cd1765 O1764 2.223 . S
Cd1765 O1768 2.297 . S
Cd1765 O1769 2.439 . S
Cd1765 O1775 2.240 . S
Cd1766 O1767 2.240 . S
Cd1766 O1774 2.223 . S
Cd1766 O1776 2.297 . S
Cd1766 O1777 2.439 . S
O1767 Cd1766 2.240 . S
O1767 C1772 1.279 . S
O1768 Cd1765 2.297 . S
O1768 C1770 1.247 . S
O1769 Cd1765 2.439 . S
O1769 C1770 1.208 . S
C1770 O1768 1.247 . S
C1770 O1769 1.208 . S
C1771 O1776 1.247 . S
C1771 O1777 1.208 . S
C1772 O1764 1.315 . S
C1772 O1767 1.279 . S
C1773 O1774 1.315 . S
C1773 O1775 1.279 . S
O1774 Cd1766 2.223 . S
O1774 C1773 1.315 . S
O1775 Cd1765 2.240 . S
O1775 C1773 1.279 . S
O1776 Cd1766 2.297 . S
O1776 C1771 1.247 . S
O1777 Cd1766 2.439 . S
O1777 C1771 1.208 . S
O1778 Cd1779 2.223 . S
O1778 C1786 1.315 . S
Cd1779 O1778 2.223 . S
Cd1779 O1782 2.297 1_545 S
Cd1779 O1783 2.439 . S
Cd1779 O1789 2.240 . S
Cd1780 O1781 2.240 . S
Cd1780 O1788 2.223 . S
Cd1780 O1790 2.297 . S
Cd1780 O1791 2.439 . S
O1781 Cd1780 2.240 . S
O1781 C1786 1.279 . S
O1782 Cd1779 2.297 1_565 S
O1782 C1784 1.247 . S
O1783 Cd1779 2.439 . S
O1783 C1784 1.208 1_545 S
C1784 O1782 1.247 . S
C1784 O1783 1.208 1_565 S
C1785 O1790 1.247 . S
C1785 O1791 1.208 . S
C1786 O1778 1.315 . S
C1786 O1781 1.279 . S
C1787 O1788 1.315 . S
C1787 O1789 1.279 . S
O1788 Cd1780 2.223 . S
O1788 C1787 1.315 . S
O1789 Cd1779 2.240 . S
O1789 C1787 1.279 . S
O1790 Cd1780 2.297 . S
O1790 C1785 1.247 . S
O1791 Cd1780 2.439 . S
O1791 C1785 1.208 . S
O1792 Cd1793 2.223 . S
O1792 C1800 1.315 . S
Cd1793 O1792 2.223 . S
Cd1793 O1796 2.297 1_565 S
Cd1793 O1797 2.439 . S
Cd1793 O1803 2.240 . S
Cd1794 O1795 2.240 . S
Cd1794 O1802 2.223 . S
Cd1794 O1804 2.297 . S
Cd1794 O1805 2.439 . S
O1795 Cd1794 2.240 . S
O1795 C1800 1.279 . S
O1796 Cd1793 2.297 1_545 S
O1796 C1798 1.247 . S
O1797 Cd1793 2.439 . S
O1797 C1798 1.208 1_565 S
C1798 O1796 1.247 . S
C1798 O1797 1.208 1_545 S
C1799 O1804 1.247 . S
C1799 O1805 1.208 . S
C1800 O1792 1.315 . S
C1800 O1795 1.279 . S
C1801 O1802 1.315 . S
C1801 O1803 1.279 . S
O1802 Cd1794 2.223 . S
O1802 C1801 1.315 . S
O1803 Cd1793 2.240 . S
O1803 C1801 1.279 . S
O1804 Cd1794 2.297 . S
O1804 C1799 1.247 . S
O1805 Cd1794 2.439 . S
O1805 C1799 1.208 . S
O1806 Cd1807 2.223 . S
O1806 C1814 1.315 . S
Cd1807 O1806 2.223 . S
Cd1807 O1810 2.297 . S
Cd1807 O1811 2.439 . S
Cd1807 O1817 2.240 . S
Cd1808 O1809 2.240 . S
Cd1808 O1816 2.223 . S
Cd1808 O1818 2.297 . S
Cd1808 O1819 2.439 . S
O1809 Cd1808 2.240 . S
O1809 C1814 1.279 . S
O1810 Cd1807 2.297 . S
O1810 C1812 1.247 . S
O1811 Cd1807 2.439 . S
O1811 C1812 1.208 . S
C1812 O1810 1.247 . S
C1812 O1811 1.208 . S
C1813 O1818 1.247 . S
C1813 O1819 1.208 . S
C1814 O1806 1.315 . S
C1814 O1809 1.279 . S
C1815 O1816 1.315 . S
C1815 O1817 1.279 . S
O1816 Cd1808 2.223 . S
O1816 C1815 1.315 . S
O1817 Cd1807 2.240 . S
O1817 C1815 1.279 . S
O1818 Cd1808 2.297 . S
O1818 C1813 1.247 . S
O1819 Cd1808 2.439 . S
O1819 C1813 1.208 . S
O1820 Cd1821 2.223 . S
O1820 C1828 1.315 . S
Cd1821 O1820 2.223 . S
Cd1821 O1824 2.297 . S
Cd1821 O1825 2.439 . S
Cd1821 O1831 2.240 . S
Cd1822 O1823 2.240 . S
Cd1822 O1830 2.223 . S
Cd1822 O1832 2.297 . S
Cd1822 O1833 2.439 . S
O1823 Cd1822 2.240 . S
O1823 C1828 1.279 . S
O1824 Cd1821 2.297 . S
O1824 C1826 1.247 . S
O1825 Cd1821 2.439 . S
O1825 C1826 1.208 . S
C1826 O1824 1.247 . S
C1826 O1825 1.208 . S
C1827 O1832 1.247 . S
C1827 O1833 1.208 . S
C1828 O1820 1.315 . S
C1828 O1823 1.279 . S
C1829 O1830 1.315 . S
C1829 O1831 1.279 . S
O1830 Cd1822 2.223 . S
O1830 C1829 1.315 . S
O1831 Cd1821 2.240 . S
O1831 C1829 1.279 . S
O1832 Cd1822 2.297 . S
O1832 C1827 1.247 . S
O1833 Cd1822 2.439 . S
O1833 C1827 1.208 . S
O1834 Cd1835 2.223 . S
O1834 C1842 1.315 . S
Cd1835 O1834 2.223 . S
Cd1835 O1838 2.297 . S
Cd1835 O1839 2.439 . S
Cd1835 O1845 2.240 . S
Cd1836 O1837 2.240 . S
Cd1836 O1844 2.223 . S
Cd1836 O1846 2.297 . S
Cd1836 O1847 2.439 . S
O1837 Cd1836 2.240 . S
O1837 C1842 1.279 . S
O1838 Cd1835 2.297 . S
O1838 C1840 1.247 . S
O1839 Cd1835 2.439 . S
O1839 C1840 1.208 . S
C1840 O1838 1.247 . S
C1840 O1839 1.208 . S
C1841 O1846 1.247 . S
C1841 O1847 1.208 . S
C1842 O1834 1.315 . S
C1842 O1837 1.279 . S
C1843 O1844 1.315 . S
C1843 O1845 1.279 . S
O1844 Cd1836 2.223 . S
O1844 C1843 1.315 . S
O1845 Cd1835 2.240 . S
O1845 C1843 1.279 . S
O1846 Cd1836 2.297 . S
O1846 C1841 1.247 . S
O1847 Cd1836 2.439 . S
O1847 C1841 1.208 . S
O1848 Cd1849 2.223 . S
O1848 C1856 1.315 . S
Cd1849 O1848 2.223 . S
Cd1849 O1852 2.297 . S
Cd1849 O1853 2.439 . S
Cd1849 O1859 2.240 . S
Cd1850 O1851 2.240 . S
Cd1850 O1858 2.223 . S
Cd1850 O1860 2.297 . S
Cd1850 O1861 2.439 . S
O1851 Cd1850 2.240 . S
O1851 C1856 1.279 . S
O1852 Cd1849 2.297 . S
O1852 C1854 1.247 . S
O1853 Cd1849 2.439 . S
O1853 C1854 1.208 . S
C1854 O1852 1.247 . S
C1854 O1853 1.208 . S
C1855 O1860 1.247 . S
C1855 O1861 1.208 . S
C1856 O1848 1.315 . S
C1856 O1851 1.279 . S
C1857 O1858 1.315 . S
C1857 O1859 1.279 . S
O1858 Cd1850 2.223 . S
O1858 C1857 1.315 . S
O1859 Cd1849 2.240 . S
O1859 C1857 1.279 . S
O1860 Cd1850 2.297 . S
O1860 C1855 1.247 . S
O1861 Cd1850 2.439 . S
O1861 C1855 1.208 . S
O1862 Cd1863 2.223 . S
O1862 C1870 1.315 . S
Cd1863 O1862 2.223 . S
Cd1863 O1866 2.297 . S
Cd1863 O1867 2.439 . S
Cd1863 O1873 2.240 . S
Cd1864 O1865 2.240 . S
Cd1864 O1872 2.223 . S
Cd1864 O1874 2.297 . S
Cd1864 O1875 2.439 . S
O1865 Cd1864 2.240 . S
O1865 C1870 1.279 . S
O1866 Cd1863 2.297 . S
O1866 C1868 1.247 . S
O1867 Cd1863 2.439 . S
O1867 C1868 1.208 . S
C1868 O1866 1.247 . S
C1868 O1867 1.208 . S
C1869 O1874 1.247 . S
C1869 O1875 1.208 . S
C1870 O1862 1.315 . S
C1870 O1865 1.279 . S
C1871 O1872 1.315 . S
C1871 O1873 1.279 . S
O1872 Cd1864 2.223 . S
O1872 C1871 1.315 . S
O1873 Cd1863 2.240 . S
O1873 C1871 1.279 . S
O1874 Cd1864 2.297 . S
O1874 C1869 1.247 . S
O1875 Cd1864 2.439 . S
O1875 C1869 1.208 . S
O1876 Cd1877 2.223 . S
O1876 C1884 1.315 . S
Cd1877 O1876 2.223 . S
Cd1877 O1880 2.297 1_565 S
Cd1877 O1881 2.439 . S
Cd1877 O1887 2.240 . S
Cd1878 O1879 2.240 . S
Cd1878 O1886 2.223 . S
Cd1878 O1888 2.297 . S
Cd1878 O1889 2.439 . S
O1879 Cd1878 2.240 . S
O1879 C1884 1.279 . S
O1880 Cd1877 2.297 1_545 S
O1880 C1882 1.247 . S
O1881 Cd1877 2.439 . S
O1881 C1882 1.208 1_565 S
C1882 O1880 1.247 . S
C1882 O1881 1.208 1_545 S
C1883 O1888 1.247 . S
C1883 O1889 1.208 . S
C1884 O1876 1.315 . S
C1884 O1879 1.279 . S
C1885 O1886 1.315 . S
C1885 O1887 1.279 . S
O1886 Cd1878 2.223 . S
O1886 C1885 1.315 . S
O1887 Cd1877 2.240 . S
O1887 C1885 1.279 . S
O1888 Cd1878 2.297 . S
O1888 C1883 1.247 . S
O1889 Cd1878 2.439 . S
O1889 C1883 1.208 . S
O1890 Cd1891 2.223 . S
O1890 C1898 1.315 . S
Cd1891 O1890 2.223 . S
Cd1891 O1894 2.297 . S
Cd1891 O1895 2.439 . S
Cd1891 O1901 2.240 . S
Cd1892 O1893 2.240 . S
Cd1892 O1900 2.223 . S
Cd1892 O1902 2.297 . S
Cd1892 O1903 2.439 . S
O1893 Cd1892 2.240 . S
O1893 C1898 1.279 . S
O1894 Cd1891 2.297 . S
O1894 C1896 1.247 . S
O1895 Cd1891 2.439 . S
O1895 C1896 1.208 . S
C1896 O1894 1.247 . S
C1896 O1895 1.208 . S
C1897 O1902 1.247 . S
C1897 O1903 1.208 . S
C1898 O1890 1.315 . S
C1898 O1893 1.279 . S
C1899 O1900 1.315 . S
C1899 O1901 1.279 . S
O1900 Cd1892 2.223 . S
O1900 C1899 1.315 . S
O1901 Cd1891 2.240 . S
O1901 C1899 1.279 . S
O1902 Cd1892 2.297 . S
O1902 C1897 1.247 . S
O1903 Cd1892 2.439 . S
O1903 C1897 1.208 . S
O1904 Cd1905 2.223 . S
O1904 C1912 1.315 . S
Cd1905 O1904 2.223 . S
Cd1905 O1908 2.297 . S
Cd1905 O1909 2.439 . S
Cd1905 O1915 2.240 . S
Cd1906 O1907 2.240 . S
Cd1906 O1914 2.223 . S
Cd1906 O1916 2.297 . S
Cd1906 O1917 2.439 . S
O1907 Cd1906 2.240 . S
O1907 C1912 1.279 . S
O1908 Cd1905 2.297 . S
O1908 C1910 1.247 . S
O1909 Cd1905 2.439 . S
O1909 C1910 1.208 . S
C1910 O1908 1.247 . S
C1910 O1909 1.208 . S
C1911 O1916 1.247 . S
C1911 O1917 1.208 . S
C1912 O1904 1.315 . S
C1912 O1907 1.279 . S
C1913 O1914 1.315 . S
C1913 O1915 1.279 . S
O1914 Cd1906 2.223 . S
O1914 C1913 1.315 . S
O1915 Cd1905 2.240 . S
O1915 C1913 1.279 . S
O1916 Cd1906 2.297 . S
O1916 C1911 1.247 . S
O1917 Cd1906 2.439 . S
O1917 C1911 1.208 . S
O1918 Cd1919 2.223 . S
O1918 C1926 1.315 . S
Cd1919 O1918 2.223 . S
Cd1919 O1922 2.297 . S
Cd1919 O1923 2.439 . S
Cd1919 O1929 2.240 . S
Cd1920 O1921 2.240 . S
Cd1920 O1928 2.223 . S
Cd1920 O1930 2.297 . S
Cd1920 O1931 2.439 . S
O1921 Cd1920 2.240 . S
O1921 C1926 1.279 . S
O1922 Cd1919 2.297 . S
O1922 C1924 1.247 . S
O1923 Cd1919 2.439 . S
O1923 C1924 1.208 . S
C1924 O1922 1.247 . S
C1924 O1923 1.208 . S
C1925 O1930 1.247 . S
C1925 O1931 1.208 . S
C1926 O1918 1.315 . S
C1926 O1921 1.279 . S
C1927 O1928 1.315 . S
C1927 O1929 1.279 . S
O1928 Cd1920 2.223 . S
O1928 C1927 1.315 . S
O1929 Cd1919 2.240 . S
O1929 C1927 1.279 . S
O1930 Cd1920 2.297 . S
O1930 C1925 1.247 . S
O1931 Cd1920 2.439 . S
O1931 C1925 1.208 . S
O1932 Cd1933 2.223 . S
O1932 C1940 1.315 . S
Cd1933 O1932 2.223 . S
Cd1933 O1936 2.297 1_554 S
Cd1933 O1937 2.439 . S
Cd1933 O1943 2.240 . S
Cd1934 O1935 2.240 . S
Cd1934 O1942 2.223 . S
Cd1934 O1944 2.297 . S
Cd1934 O1945 2.439 . S
O1935 Cd1934 2.240 . S
O1935 C1940 1.279 . S
O1936 Cd1933 2.297 1_556 S
O1936 C1938 1.247 . S
O1937 Cd1933 2.439 . S
O1937 C1938 1.208 1_554 S
C1938 O1936 1.247 . S
C1938 O1937 1.208 1_556 S
C1939 O1944 1.247 . S
C1939 O1945 1.208 . S
C1940 O1932 1.315 . S
C1940 O1935 1.279 . S
C1941 O1942 1.315 . S
C1941 O1943 1.279 . S
O1942 Cd1934 2.223 . S
O1942 C1941 1.315 . S
O1943 Cd1933 2.240 . S
O1943 C1941 1.279 . S
O1944 Cd1934 2.297 . S
O1944 C1939 1.247 . S
O1945 Cd1934 2.439 . S
O1945 C1939 1.208 . S
O1946 Cd1947 2.223 . S
O1946 C1954 1.315 . S
Cd1947 O1946 2.223 . S
Cd1947 O1950 2.297 . S
Cd1947 O1951 2.439 . S
Cd1947 O1957 2.240 . S
Cd1948 O1949 2.240 . S
Cd1948 O1956 2.223 . S
Cd1948 O1958 2.297 . S
Cd1948 O1959 2.439 . S
O1949 Cd1948 2.240 . S
O1949 C1954 1.279 . S
O1950 Cd1947 2.297 . S
O1950 C1952 1.247 . S
O1951 Cd1947 2.439 . S
O1951 C1952 1.208 . S
C1952 O1950 1.247 . S
C1952 O1951 1.208 . S
C1953 O1958 1.247 . S
C1953 O1959 1.208 . S
C1954 O1946 1.315 . S
C1954 O1949 1.279 . S
C1955 O1956 1.315 . S
C1955 O1957 1.279 . S
O1956 Cd1948 2.223 . S
O1956 C1955 1.315 . S
O1957 Cd1947 2.240 . S
O1957 C1955 1.279 . S
O1958 Cd1948 2.297 . S
O1958 C1953 1.247 . S
O1959 Cd1948 2.439 . S
O1959 C1953 1.208 . S
O1960 Cd1961 2.223 . S
O1960 C1968 1.315 . S
Cd1961 O1960 2.223 . S
Cd1961 O1964 2.297 1_554 S
Cd1961 O1965 2.439 . S
Cd1961 O1971 2.240 . S
Cd1962 O1963 2.240 . S
Cd1962 O1970 2.223 . S
Cd1962 O1972 2.297 . S
Cd1962 O1973 2.439 . S
O1963 Cd1962 2.240 . S
O1963 C1968 1.279 . S
O1964 Cd1961 2.297 1_556 S
O1964 C1966 1.247 . S
O1965 Cd1961 2.439 . S
O1965 C1966 1.208 1_554 S
C1966 O1964 1.247 . S
C1966 O1965 1.208 1_556 S
C1967 O1972 1.247 . S
C1967 O1973 1.208 . S
C1968 O1960 1.315 . S
C1968 O1963 1.279 . S
C1969 O1970 1.315 . S
C1969 O1971 1.279 . S
O1970 Cd1962 2.223 . S
O1970 C1969 1.315 . S
O1971 Cd1961 2.240 . S
O1971 C1969 1.279 . S
O1972 Cd1962 2.297 . S
O1972 C1967 1.247 . S
O1973 Cd1962 2.439 . S
O1973 C1967 1.208 . S
O1974 Cd1975 2.223 . S
O1974 C1982 1.315 . S
Cd1975 O1974 2.223 . S
Cd1975 O1978 2.297 . S
Cd1975 O1979 2.439 . S
Cd1975 O1985 2.240 . S
Cd1976 O1977 2.240 . S
Cd1976 O1984 2.223 . S
Cd1976 O1986 2.297 . S
Cd1976 O1987 2.439 . S
O1977 Cd1976 2.240 . S
O1977 C1982 1.279 . S
O1978 Cd1975 2.297 . S
O1978 C1980 1.247 . S
O1979 Cd1975 2.439 . S
O1979 C1980 1.208 . S
C1980 O1978 1.247 . S
C1980 O1979 1.208 . S
C1981 O1986 1.247 . S
C1981 O1987 1.208 . S
C1982 O1974 1.315 . S
C1982 O1977 1.279 . S
C1983 O1984 1.315 . S
C1983 O1985 1.279 . S
O1984 Cd1976 2.223 . S
O1984 C1983 1.315 . S
O1985 Cd1975 2.240 . S
O1985 C1983 1.279 . S
O1986 Cd1976 2.297 . S
O1986 C1981 1.247 . S
O1987 Cd1976 2.439 . S
O1987 C1981 1.208 . S
O1988 Cd1989 2.223 . S
O1988 C1996 1.315 . S
Cd1989 O1988 2.223 . S
Cd1989 O1992 2.297 . S
Cd1989 O1993 2.439 . S
Cd1989 O1999 2.240 . S
Cd1990 O1991 2.240 . S
Cd1990 O1998 2.223 . S
Cd1990 O2000 2.297 . S
Cd1990 O2001 2.439 . S
O1991 Cd1990 2.240 . S
O1991 C1996 1.279 . S
O1992 Cd1989 2.297 . S
O1992 C1994 1.247 . S
O1993 Cd1989 2.439 . S
O1993 C1994 1.208 . S
C1994 O1992 1.247 . S
C1994 O1993 1.208 . S
C1995 O2000 1.247 . S
C1995 O2001 1.208 . S
C1996 O1988 1.315 . S
C1996 O1991 1.279 . S
C1997 O1998 1.315 . S
C1997 O1999 1.279 . S
O1998 Cd1990 2.223 . S
O1998 C1997 1.315 . S
O1999 Cd1989 2.240 . S
O1999 C1997 1.279 . S
O2000 Cd1990 2.297 . S
O2000 C1995 1.247 . S
O2001 Cd1990 2.439 . S
O2001 C1995 1.208 . S
O2002 Cd2003 2.223 . S
O2002 C2010 1.315 . S
Cd2003 O2002 2.223 . S
Cd2003 O2006 2.297 . S
Cd2003 O2007 2.439 . S
Cd2003 O2013 2.240 . S
Cd2004 O2005 2.240 . S
Cd2004 O2012 2.223 . S
Cd2004 O2014 2.297 . S
Cd2004 O2015 2.439 . S
O2005 Cd2004 2.240 . S
O2005 C2010 1.279 . S
O2006 Cd2003 2.297 . S
O2006 C2008 1.247 . S
O2007 Cd2003 2.439 . S
O2007 C2008 1.208 . S
C2008 O2006 1.247 . S
C2008 O2007 1.208 . S
C2009 O2014 1.247 . S
C2009 O2015 1.208 . S
C2010 O2002 1.315 . S
C2010 O2005 1.279 . S
C2011 O2012 1.315 . S
C2011 O2013 1.279 . S
O2012 Cd2004 2.223 . S
O2012 C2011 1.315 . S
O2013 Cd2003 2.240 . S
O2013 C2011 1.279 . S
O2014 Cd2004 2.297 . S
O2014 C2009 1.247 . S
O2015 Cd2004 2.439 . S
O2015 C2009 1.208 . S
O2016 Cd2017 2.223 . S
O2016 C2024 1.315 . S
Cd2017 O2016 2.223 . S
Cd2017 O2020 2.297 . S
Cd2017 O2021 2.439 . S
Cd2017 O2027 2.240 . S
Cd2018 O2019 2.240 . S
Cd2018 O2026 2.223 . S
Cd2018 O2028 2.297 . S
Cd2018 O2029 2.439 . S
O2019 Cd2018 2.240 . S
O2019 C2024 1.279 . S
O2020 Cd2017 2.297 . S
O2020 C2022 1.247 . S
O2021 Cd2017 2.439 . S
O2021 C2022 1.208 . S
C2022 O2020 1.247 . S
C2022 O2021 1.208 . S
C2023 O2028 1.247 . S
C2023 O2029 1.208 . S
C2024 O2016 1.315 . S
C2024 O2019 1.279 . S
C2025 O2026 1.315 . S
C2025 O2027 1.279 . S
O2026 Cd2018 2.223 . S
O2026 C2025 1.315 . S
O2027 Cd2017 2.240 . S
O2027 C2025 1.279 . S
O2028 Cd2018 2.297 . S
O2028 C2023 1.247 . S
O2029 Cd2018 2.439 . S
O2029 C2023 1.208 . S
O2030 Cd2031 2.223 . S
O2030 C2038 1.315 . S
Cd2031 O2030 2.223 . S
Cd2031 O2034 2.297 . S
Cd2031 O2035 2.439 . S
Cd2031 O2041 2.240 . S
Cd2032 O2033 2.240 . S
Cd2032 O2040 2.223 . S
Cd2032 O2042 2.297 . S
Cd2032 O2043 2.439 . S
O2033 Cd2032 2.240 . S
O2033 C2038 1.279 . S
O2034 Cd2031 2.297 . S
O2034 C2036 1.247 . S
O2035 Cd2031 2.439 . S
O2035 C2036 1.208 . S
C2036 O2034 1.247 . S
C2036 O2035 1.208 . S
C2037 O2042 1.247 . S
C2037 O2043 1.208 . S
C2038 O2030 1.315 . S
C2038 O2033 1.279 . S
C2039 O2040 1.315 . S
C2039 O2041 1.279 . S
O2040 Cd2032 2.223 . S
O2040 C2039 1.315 . S
O2041 Cd2031 2.240 . S
O2041 C2039 1.279 . S
O2042 Cd2032 2.297 . S
O2042 C2037 1.247 . S
O2043 Cd2032 2.439 . S
O2043 C2037 1.208 . S
O2044 Cd2045 2.223 . S
O2044 C2052 1.315 . S
Cd2045 O2044 2.223 . S
Cd2045 O2048 2.297 . S
Cd2045 O2049 2.439 . S
Cd2045 O2055 2.240 . S
Cd2046 O2047 2.240 . S
Cd2046 O2054 2.223 . S
Cd2046 O2056 2.297 . S
Cd2046 O2057 2.439 . S
O2047 Cd2046 2.240 . S
O2047 C2052 1.279 . S
O2048 Cd2045 2.297 . S
O2048 C2050 1.247 . S
O2049 Cd2045 2.439 . S
O2049 C2050 1.208 . S
C2050 O2048 1.247 . S
C2050 O2049 1.208 . S
C2051 O2056 1.247 . S
C2051 O2057 1.208 . S
C2052 O2044 1.315 . S
C2052 O2047 1.279 . S
C2053 O2054 1.315 . S
C2053 O2055 1.279 . S
O2054 Cd2046 2.223 . S
O2054 C2053 1.315 . S
O2055 Cd2045 2.240 . S
O2055 C2053 1.279 . S
O2056 Cd2046 2.297 . S
O2056 C2051 1.247 . S
O2057 Cd2046 2.439 . S
O2057 C2051 1.208 . S
O2058 Cd2059 2.223 . S
O2058 C2066 1.315 . S
Cd2059 O2058 2.223 . S
Cd2059 O2062 2.297 . S
Cd2059 O2063 2.439 . S
Cd2059 O2069 2.240 . S
Cd2060 O2061 2.240 . S
Cd2060 O2068 2.223 . S
Cd2060 O2070 2.297 . S
Cd2060 O2071 2.439 . S
O2061 Cd2060 2.240 . S
O2061 C2066 1.279 . S
O2062 Cd2059 2.297 . S
O2062 C2064 1.247 . S
O2063 Cd2059 2.439 . S
O2063 C2064 1.208 . S
C2064 O2062 1.247 . S
C2064 O2063 1.208 . S
C2065 O2070 1.247 . S
C2065 O2071 1.208 . S
C2066 O2058 1.315 . S
C2066 O2061 1.279 . S
C2067 O2068 1.315 . S
C2067 O2069 1.279 . S
O2068 Cd2060 2.223 . S
O2068 C2067 1.315 . S
O2069 Cd2059 2.240 . S
O2069 C2067 1.279 . S
O2070 Cd2060 2.297 . S
O2070 C2065 1.247 . S
O2071 Cd2060 2.439 . S
O2071 C2065 1.208 . S
O2072 Cd2073 2.223 . S
O2072 C2080 1.315 . S
Cd2073 O2072 2.223 . S
Cd2073 O2076 2.297 . S
Cd2073 O2077 2.439 . S
Cd2073 O2083 2.240 . S
Cd2074 O2075 2.240 . S
Cd2074 O2082 2.223 . S
Cd2074 O2084 2.297 . S
Cd2074 O2085 2.439 . S
O2075 Cd2074 2.240 . S
O2075 C2080 1.279 . S
O2076 Cd2073 2.297 . S
O2076 C2078 1.247 . S
O2077 Cd2073 2.439 . S
O2077 C2078 1.208 . S
C2078 O2076 1.247 . S
C2078 O2077 1.208 . S
C2079 O2084 1.247 . S
C2079 O2085 1.208 . S
C2080 O2072 1.315 . S
C2080 O2075 1.279 . S
C2081 O2082 1.315 . S
C2081 O2083 1.279 . S
O2082 Cd2074 2.223 . S
O2082 C2081 1.315 . S
O2083 Cd2073 2.240 . S
O2083 C2081 1.279 . S
O2084 Cd2074 2.297 . S
O2084 C2079 1.247 . S
O2085 Cd2074 2.439 . S
O2085 C2079 1.208 . S
O2086 Cd2087 2.223 . S
O2086 C2094 1.315 . S
Cd2087 O2086 2.223 . S
Cd2087 O2090 2.297 . S
Cd2087 O2091 2.439 . S
Cd2087 O2097 2.240 . S
Cd2088 O2089 2.240 . S
Cd2088 O2096 2.223 . S
Cd2088 O2098 2.297 . S
Cd2088 O2099 2.439 . S
O2089 Cd2088 2.240 . S
O2089 C2094 1.279 . S
O2090 Cd2087 2.297 . S
O2090 C2092 1.247 . S
O2091 Cd2087 2.439 . S
O2091 C2092 1.208 . S
C2092 O2090 1.247 . S
C2092 O2091 1.208 . S
C2093 O2098 1.247 . S
C2093 O2099 1.208 . S
C2094 O2086 1.315 . S
C2094 O2089 1.279 . S
C2095 O2096 1.315 . S
C2095 O2097 1.279 . S
O2096 Cd2088 2.223 . S
O2096 C2095 1.315 . S
O2097 Cd2087 2.240 . S
O2097 C2095 1.279 . S
O2098 Cd2088 2.297 . S
O2098 C2093 1.247 . S
O2099 Cd2088 2.439 . S
O2099 C2093 1.208 . S
O2100 Cd2101 2.223 . S
O2100 C2108 1.315 . S
Cd2101 O2100 2.223 . S
Cd2101 O2104 2.297 . S
Cd2101 O2105 2.439 . S
Cd2101 O2111 2.240 . S
Cd2102 O2103 2.240 . S
Cd2102 O2110 2.223 . S
Cd2102 O2112 2.297 . S
Cd2102 O2113 2.439 . S
O2103 Cd2102 2.240 . S
O2103 C2108 1.279 . S
O2104 Cd2101 2.297 . S
O2104 C2106 1.247 . S
O2105 Cd2101 2.439 . S
O2105 C2106 1.208 . S
C2106 O2104 1.247 . S
C2106 O2105 1.208 . S
C2107 O2112 1.247 . S
C2107 O2113 1.208 . S
C2108 O2100 1.315 . S
C2108 O2103 1.279 . S
C2109 O2110 1.315 . S
C2109 O2111 1.279 . S
O2110 Cd2102 2.223 . S
O2110 C2109 1.315 . S
O2111 Cd2101 2.240 . S
O2111 C2109 1.279 . S
O2112 Cd2102 2.297 . S
O2112 C2107 1.247 . S
O2113 Cd2102 2.439 . S
O2113 C2107 1.208 . S
O2114 Cd2115 2.223 . S
O2114 C2122 1.315 . S
Cd2115 O2114 2.223 . S
Cd2115 O2118 2.297 . S
Cd2115 O2119 2.439 . S
Cd2115 O2125 2.240 . S
Cd2116 O2117 2.240 . S
Cd2116 O2124 2.223 . S
Cd2116 O2126 2.297 . S
Cd2116 O2127 2.439 . S
O2117 Cd2116 2.240 . S
O2117 C2122 1.279 . S
O2118 Cd2115 2.297 . S
O2118 C2120 1.247 . S
O2119 Cd2115 2.439 . S
O2119 C2120 1.208 . S
C2120 O2118 1.247 . S
C2120 O2119 1.208 . S
C2121 O2126 1.247 . S
C2121 O2127 1.208 . S
C2122 O2114 1.315 . S
C2122 O2117 1.279 . S
C2123 O2124 1.315 . S
C2123 O2125 1.279 . S
O2124 Cd2116 2.223 . S
O2124 C2123 1.315 . S
O2125 Cd2115 2.240 . S
O2125 C2123 1.279 . S
O2126 Cd2116 2.297 . S
O2126 C2121 1.247 . S
O2127 Cd2116 2.439 . S
O2127 C2121 1.208 . S
O2128 Cd2129 2.223 . S
O2128 C2136 1.315 . S
Cd2129 O2128 2.223 . S
Cd2129 O2132 2.297 . S
Cd2129 O2133 2.439 . S
Cd2129 O2139 2.240 . S
Cd2130 O2131 2.240 . S
Cd2130 O2138 2.223 . S
Cd2130 O2140 2.297 . S
Cd2130 O2141 2.439 . S
O2131 Cd2130 2.240 . S
O2131 C2136 1.279 . S
O2132 Cd2129 2.297 . S
O2132 C2134 1.247 . S
O2133 Cd2129 2.439 . S
O2133 C2134 1.208 . S
C2134 O2132 1.247 . S
C2134 O2133 1.208 . S
C2135 O2140 1.247 . S
C2135 O2141 1.208 . S
C2136 O2128 1.315 . S
C2136 O2131 1.279 . S
C2137 O2138 1.315 . S
C2137 O2139 1.279 . S
O2138 Cd2130 2.223 . S
O2138 C2137 1.315 . S
O2139 Cd2129 2.240 . S
O2139 C2137 1.279 . S
O2140 Cd2130 2.297 . S
O2140 C2135 1.247 . S
O2141 Cd2130 2.439 . S
O2141 C2135 1.208 . S
O2142 Cd2143 2.223 . S
O2142 C2150 1.315 . S
Cd2143 O2142 2.223 . S
Cd2143 O2146 2.297 . S
Cd2143 O2147 2.439 . S
Cd2143 O2153 2.240 . S
Cd2144 O2145 2.240 . S
Cd2144 O2152 2.223 . S
Cd2144 O2154 2.297 . S
Cd2144 O2155 2.439 . S
O2145 Cd2144 2.240 . S
O2145 C2150 1.279 . S
O2146 Cd2143 2.297 . S
O2146 C2148 1.247 . S
O2147 Cd2143 2.439 . S
O2147 C2148 1.208 . S
C2148 O2146 1.247 . S
C2148 O2147 1.208 . S
C2149 O2154 1.247 . S
C2149 O2155 1.208 . S
C2150 O2142 1.315 . S
C2150 O2145 1.279 . S
C2151 O2152 1.315 . S
C2151 O2153 1.279 . S
O2152 Cd2144 2.223 . S
O2152 C2151 1.315 . S
O2153 Cd2143 2.240 . S
O2153 C2151 1.279 . S
O2154 Cd2144 2.297 . S
O2154 C2149 1.247 . S
O2155 Cd2144 2.439 . S
O2155 C2149 1.208 . S
O2156 Cd2157 2.223 . S
O2156 C2164 1.315 . S
Cd2157 O2156 2.223 . S
Cd2157 O2160 2.297 . S
Cd2157 O2161 2.439 . S
Cd2157 O2167 2.240 . S
Cd2158 O2159 2.240 . S
Cd2158 O2166 2.223 . S
Cd2158 O2168 2.297 . S
Cd2158 O2169 2.439 . S
O2159 Cd2158 2.240 . S
O2159 C2164 1.279 . S
O2160 Cd2157 2.297 . S
O2160 C2162 1.247 . S
O2161 Cd2157 2.439 . S
O2161 C2162 1.208 . S
C2162 O2160 1.247 . S
C2162 O2161 1.208 . S
C2163 O2168 1.247 . S
C2163 O2169 1.208 . S
C2164 O2156 1.315 . S
C2164 O2159 1.279 . S
C2165 O2166 1.315 . S
C2165 O2167 1.279 . S
O2166 Cd2158 2.223 . S
O2166 C2165 1.315 . S
O2167 Cd2157 2.240 . S
O2167 C2165 1.279 . S
O2168 Cd2158 2.297 . S
O2168 C2163 1.247 . S
O2169 Cd2158 2.439 . S
O2169 C2163 1.208 . S
O2170 Cd2171 2.223 . S
O2170 C2178 1.315 . S
Cd2171 O2170 2.223 . S
Cd2171 O2174 2.297 . S
Cd2171 O2175 2.439 . S
Cd2171 O2181 2.240 . S
Cd2172 O2173 2.240 . S
Cd2172 O2180 2.223 . S
Cd2172 O2182 2.297 . S
Cd2172 O2183 2.439 . S
O2173 Cd2172 2.240 . S
O2173 C2178 1.279 . S
O2174 Cd2171 2.297 . S
O2174 C2176 1.247 . S
O2175 Cd2171 2.439 . S
O2175 C2176 1.208 . S
C2176 O2174 1.247 . S
C2176 O2175 1.208 . S
C2177 O2182 1.247 . S
C2177 O2183 1.208 . S
C2178 O2170 1.315 . S
C2178 O2173 1.279 . S
C2179 O2180 1.315 . S
C2179 O2181 1.279 . S
O2180 Cd2172 2.223 . S
O2180 C2179 1.315 . S
O2181 Cd2171 2.240 . S
O2181 C2179 1.279 . S
O2182 Cd2172 2.297 . S
O2182 C2177 1.247 . S
O2183 Cd2172 2.439 . S
O2183 C2177 1.208 . S
O2184 Cd2185 2.223 . S
O2184 C2192 1.315 . S
Cd2185 O2184 2.223 . S
Cd2185 O2188 2.297 . S
Cd2185 O2189 2.439 . S
Cd2185 O2195 2.240 . S
Cd2186 O2187 2.240 . S
Cd2186 O2194 2.223 . S
Cd2186 O2196 2.297 . S
Cd2186 O2197 2.439 . S
O2187 Cd2186 2.240 . S
O2187 C2192 1.279 . S
O2188 Cd2185 2.297 . S
O2188 C2190 1.247 . S
O2189 Cd2185 2.439 . S
O2189 C2190 1.208 . S
C2190 O2188 1.247 . S
C2190 O2189 1.208 . S
C2191 O2196 1.247 . S
C2191 O2197 1.208 . S
C2192 O2184 1.315 . S
C2192 O2187 1.279 . S
C2193 O2194 1.315 . S
C2193 O2195 1.279 . S
O2194 Cd2186 2.223 . S
O2194 C2193 1.315 . S
O2195 Cd2185 2.240 . S
O2195 C2193 1.279 . S
O2196 Cd2186 2.297 . S
O2196 C2191 1.247 . S
O2197 Cd2186 2.439 . S
O2197 C2191 1.208 . S
O2198 Cd2199 2.223 . S
O2198 C2206 1.315 . S
Cd2199 O2198 2.223 . S
Cd2199 O2202 2.297 . S
Cd2199 O2203 2.439 . S
Cd2199 O2209 2.240 . S
Cd2200 O2201 2.240 . S
Cd2200 O2208 2.223 . S
Cd2200 O2210 2.297 . S
Cd2200 O2211 2.439 . S
O2201 Cd2200 2.240 . S
O2201 C2206 1.279 . S
O2202 Cd2199 2.297 . S
O2202 C2204 1.247 . S
O2203 Cd2199 2.439 . S
O2203 C2204 1.208 . S
C2204 O2202 1.247 . S
C2204 O2203 1.208 . S
C2205 O2210 1.247 . S
C2205 O2211 1.208 . S
C2206 O2198 1.315 . S
C2206 O2201 1.279 . S
C2207 O2208 1.315 . S
C2207 O2209 1.279 . S
O2208 Cd2200 2.223 . S
O2208 C2207 1.315 . S
O2209 Cd2199 2.240 . S
O2209 C2207 1.279 . S
O2210 Cd2200 2.297 . S
O2210 C2205 1.247 . S
O2211 Cd2200 2.439 . S
O2211 C2205 1.208 . S
O2212 Cd2213 2.223 . S
O2212 C2220 1.315 . S
Cd2213 O2212 2.223 . S
Cd2213 O2216 2.297 . S
Cd2213 O2217 2.439 . S
Cd2213 O2223 2.240 . S
Cd2214 O2215 2.240 . S
Cd2214 O2222 2.223 . S
Cd2214 O2224 2.297 . S
Cd2214 O2225 2.439 . S
O2215 Cd2214 2.240 . S
O2215 C2220 1.279 . S
O2216 Cd2213 2.297 . S
O2216 C2218 1.247 . S
O2217 Cd2213 2.439 . S
O2217 C2218 1.208 . S
C2218 O2216 1.247 . S
C2218 O2217 1.208 . S
C2219 O2224 1.247 . S
C2219 O2225 1.208 . S
C2220 O2212 1.315 . S
C2220 O2215 1.279 . S
C2221 O2222 1.315 . S
C2221 O2223 1.279 . S
O2222 Cd2214 2.223 . S
O2222 C2221 1.315 . S
O2223 Cd2213 2.240 . S
O2223 C2221 1.279 . S
O2224 Cd2214 2.297 . S
O2224 C2219 1.247 . S
O2225 Cd2214 2.439 . S
O2225 C2219 1.208 . S
O2226 Cd2227 2.223 . S
O2226 C2234 1.315 . S
Cd2227 O2226 2.223 . S
Cd2227 O2230 2.297 . S
Cd2227 O2231 2.439 . S
Cd2227 O2237 2.240 . S
Cd2228 O2229 2.240 . S
Cd2228 O2236 2.223 . S
Cd2228 O2238 2.297 . S
Cd2228 O2239 2.439 . S
O2229 Cd2228 2.240 . S
O2229 C2234 1.279 . S
O2230 Cd2227 2.297 . S
O2230 C2232 1.247 . S
O2231 Cd2227 2.439 . S
O2231 C2232 1.208 . S
C2232 O2230 1.247 . S
C2232 O2231 1.208 . S
C2233 O2238 1.247 . S
C2233 O2239 1.208 . S
C2234 O2226 1.315 . S
C2234 O2229 1.279 . S
C2235 O2236 1.315 . S
C2235 O2237 1.279 . S
O2236 Cd2228 2.223 . S
O2236 C2235 1.315 . S
O2237 Cd2227 2.240 . S
O2237 C2235 1.279 . S
O2238 Cd2228 2.297 . S
O2238 C2233 1.247 . S
O2239 Cd2228 2.439 . S
O2239 C2233 1.208 . S
O2240 Cd2241 2.223 . S
O2240 C2248 1.315 . S
Cd2241 O2240 2.223 . S
Cd2241 O2244 2.297 1_554 S
Cd2241 O2245 2.439 . S
Cd2241 O2251 2.240 . S
Cd2242 O2243 2.240 . S
Cd2242 O2250 2.223 . S
Cd2242 O2252 2.297 . S
Cd2242 O2253 2.439 . S
O2243 Cd2242 2.240 . S
O2243 C2248 1.279 . S
O2244 Cd2241 2.297 1_556 S
O2244 C2246 1.247 . S
O2245 Cd2241 2.439 . S
O2245 C2246 1.208 1_554 S
C2246 O2244 1.247 . S
C2246 O2245 1.208 1_556 S
C2247 O2252 1.247 . S
C2247 O2253 1.208 . S
C2248 O2240 1.315 . S
C2248 O2243 1.279 . S
C2249 O2250 1.315 . S
C2249 O2251 1.279 . S
O2250 Cd2242 2.223 . S
O2250 C2249 1.315 . S
O2251 Cd2241 2.240 . S
O2251 C2249 1.279 . S
O2252 Cd2242 2.297 . S
O2252 C2247 1.247 . S
O2253 Cd2242 2.439 . S
O2253 C2247 1.208 . S
O2254 Cd2255 2.223 . S
O2254 C2262 1.315 . S
Cd2255 O2254 2.223 . S
Cd2255 O2258 2.297 . S
Cd2255 O2259 2.439 . S
Cd2255 O2265 2.240 . S
Cd2256 O2257 2.240 . S
Cd2256 O2264 2.223 . S
Cd2256 O2266 2.297 . S
Cd2256 O2267 2.439 . S
O2257 Cd2256 2.240 . S
O2257 C2262 1.279 . S
O2258 Cd2255 2.297 . S
O2258 C2260 1.247 . S
O2259 Cd2255 2.439 . S
O2259 C2260 1.208 . S
C2260 O2258 1.247 . S
C2260 O2259 1.208 . S
C2261 O2266 1.247 . S
C2261 O2267 1.208 . S
C2262 O2254 1.315 . S
C2262 O2257 1.279 . S
C2263 O2264 1.315 . S
C2263 O2265 1.279 . S
O2264 Cd2256 2.223 . S
O2264 C2263 1.315 . S
O2265 Cd2255 2.240 . S
O2265 C2263 1.279 . S
O2266 Cd2256 2.297 . S
O2266 C2261 1.247 . S
O2267 Cd2256 2.439 . S
O2267 C2261 1.208 . S
O2268 Cd2269 2.223 . S
O2268 C2276 1.315 . S
Cd2269 O2268 2.223 . S
Cd2269 O2272 2.297 . S
Cd2269 O2273 2.439 . S
Cd2269 O2279 2.240 . S
Cd2270 O2271 2.240 . S
Cd2270 O2278 2.223 . S
Cd2270 O2280 2.297 . S
Cd2270 O2281 2.439 . S
O2271 Cd2270 2.240 . S
O2271 C2276 1.279 . S
O2272 Cd2269 2.297 . S
O2272 C2274 1.247 . S
O2273 Cd2269 2.439 . S
O2273 C2274 1.208 . S
C2274 O2272 1.247 . S
C2274 O2273 1.208 . S
C2275 O2280 1.247 . S
C2275 O2281 1.208 . S
C2276 O2268 1.315 . S
C2276 O2271 1.279 . S
C2277 O2278 1.315 . S
C2277 O2279 1.279 . S
O2278 Cd2270 2.223 . S
O2278 C2277 1.315 . S
O2279 Cd2269 2.240 . S
O2279 C2277 1.279 . S
O2280 Cd2270 2.297 . S
O2280 C2275 1.247 . S
O2281 Cd2270 2.439 . S
O2281 C2275 1.208 . S
O2282 Cd2283 2.223 . S
O2282 C2290 1.315 . S
Cd2283 O2282 2.223 . S
Cd2283 O2286 2.297 . S
Cd2283 O2287 2.439 . S
Cd2283 O2293 2.240 . S
Cd2284 O2285 2.240 . S
Cd2284 O2292 2.223 . S
Cd2284 O2294 2.297 . S
Cd2284 O2295 2.439 . S
O2285 Cd2284 2.240 . S
O2285 C2290 1.279 . S
O2286 Cd2283 2.297 . S
O2286 C2288 1.247 . S
O2287 Cd2283 2.439 . S
O2287 C2288 1.208 . S
C2288 O2286 1.247 . S
C2288 O2287 1.208 . S
C2289 O2294 1.247 . S
C2289 O2295 1.208 . S
C2290 O2282 1.315 . S
C2290 O2285 1.279 . S
C2291 O2292 1.315 . S
C2291 O2293 1.279 . S
O2292 Cd2284 2.223 . S
O2292 C2291 1.315 . S
O2293 Cd2283 2.240 . S
O2293 C2291 1.279 . S
O2294 Cd2284 2.297 . S
O2294 C2289 1.247 . S
O2295 Cd2284 2.439 . S
O2295 C2289 1.208 . S
O2296 Cd2297 2.223 . S
O2296 C2304 1.315 . S
Cd2297 O2296 2.223 . S
Cd2297 O2300 2.297 . S
Cd2297 O2301 2.439 . S
Cd2297 O2307 2.240 . S
Cd2298 O2299 2.240 . S
Cd2298 O2306 2.223 . S
Cd2298 O2308 2.297 . S
Cd2298 O2309 2.439 . S
O2299 Cd2298 2.240 . S
O2299 C2304 1.279 . S
O2300 Cd2297 2.297 . S
O2300 C2302 1.247 . S
O2301 Cd2297 2.439 . S
O2301 C2302 1.208 . S
C2302 O2300 1.247 . S
C2302 O2301 1.208 . S
C2303 O2308 1.247 . S
C2303 O2309 1.208 . S
C2304 O2296 1.315 . S
C2304 O2299 1.279 . S
C2305 O2306 1.315 . S
C2305 O2307 1.279 . S
O2306 Cd2298 2.223 . S
O2306 C2305 1.315 . S
O2307 Cd2297 2.240 . S
O2307 C2305 1.279 . S
O2308 Cd2298 2.297 . S
O2308 C2303 1.247 . S
O2309 Cd2298 2.439 . S
O2309 C2303 1.208 . S
O2310 Cd2311 2.223 . S
O2310 C2318 1.315 . S
Cd2311 O2310 2.223 . S
Cd2311 O2314 2.297 1_554 S
Cd2311 O2315 2.439 . S
Cd2311 O2321 2.240 . S
Cd2312 O2313 2.240 . S
Cd2312 O2320 2.223 . S
Cd2312 O2322 2.297 . S
Cd2312 O2323 2.439 . S
O2313 Cd2312 2.240 . S
O2313 C2318 1.279 . S
O2314 Cd2311 2.297 1_556 S
O2314 C2316 1.247 . S
O2315 Cd2311 2.439 . S
O2315 C2316 1.208 1_554 S
C2316 O2314 1.247 . S
C2316 O2315 1.208 1_556 S
C2317 O2322 1.247 . S
C2317 O2323 1.208 . S
C2318 O2310 1.315 . S
C2318 O2313 1.279 . S
C2319 O2320 1.315 . S
C2319 O2321 1.279 . S
O2320 Cd2312 2.223 . S
O2320 C2319 1.315 . S
O2321 Cd2311 2.240 . S
O2321 C2319 1.279 . S
O2322 Cd2312 2.297 . S
O2322 C2317 1.247 . S
O2323 Cd2312 2.439 . S
O2323 C2317 1.208 . S
O2324 Cd2325 2.223 . S
O2324 C2332 1.315 . S
Cd2325 O2324 2.223 . S
Cd2325 O2328 2.297 . S
Cd2325 O2329 2.439 . S
Cd2325 O2335 2.240 . S
Cd2326 O2327 2.240 . S
Cd2326 O2334 2.223 . S
Cd2326 O2336 2.297 . S
Cd2326 O2337 2.439 . S
O2327 Cd2326 2.240 . S
O2327 C2332 1.279 . S
O2328 Cd2325 2.297 . S
O2328 C2330 1.247 . S
O2329 Cd2325 2.439 . S
O2329 C2330 1.208 . S
C2330 O2328 1.247 . S
C2330 O2329 1.208 . S
C2331 O2336 1.247 . S
C2331 O2337 1.208 . S
C2332 O2324 1.315 . S
C2332 O2327 1.279 . S
C2333 O2334 1.315 . S
C2333 O2335 1.279 . S
O2334 Cd2326 2.223 . S
O2334 C2333 1.315 . S
O2335 Cd2325 2.240 . S
O2335 C2333 1.279 . S
O2336 Cd2326 2.297 . S
O2336 C2331 1.247 . S
O2337 Cd2326 2.439 . S
O2337 C2331 1.208 . S
O2338 Cd2339 2.223 . S
O2338 C2346 1.315 . S
Cd2339 O2338 2.223 . S
Cd2339 O2342 2.297 . S
Cd2339 O2343 2.439 . S
Cd2339 O2349 2.240 . S
Cd2340 O2341 2.240 . S
Cd2340 O2348 2.223 . S
Cd2340 O2350 2.297 . S
Cd2340 O2351 2.439 . S
O2341 Cd2340 2.240 . S
O2341 C2346 1.279 . S
O2342 Cd2339 2.297 . S
O2342 C2344 1.247 . S
O2343 Cd2339 2.439 . S
O2343 C2344 1.208 . S
C2344 O2342 1.247 . S
C2344 O2343 1.208 . S
C2345 O2350 1.247 . S
C2345 O2351 1.208 . S
C2346 O2338 1.315 . S
C2346 O2341 1.279 . S
C2347 O2348 1.315 . S
C2347 O2349 1.279 . S
O2348 Cd2340 2.223 . S
O2348 C2347 1.315 . S
O2349 Cd2339 2.240 . S
O2349 C2347 1.279 . S
O2350 Cd2340 2.297 . S
O2350 C2345 1.247 . S
O2351 Cd2340 2.439 . S
O2351 C2345 1.208 . S
O2352 Cd2353 2.223 . S
O2352 C2360 1.315 . S
Cd2353 O2352 2.223 . S
Cd2353 O2356 2.297 . S
Cd2353 O2357 2.439 . S
Cd2353 O2363 2.240 . S
Cd2354 O2355 2.240 . S
Cd2354 O2362 2.223 . S
Cd2354 O2364 2.297 . S
Cd2354 O2365 2.439 . S
O2355 Cd2354 2.240 . S
O2355 C2360 1.279 . S
O2356 Cd2353 2.297 . S
O2356 C2358 1.247 . S
O2357 Cd2353 2.439 . S
O2357 C2358 1.208 . S
C2358 O2356 1.247 . S
C2358 O2357 1.208 . S
C2359 O2364 1.247 . S
C2359 O2365 1.208 . S
C2360 O2352 1.315 . S
C2360 O2355 1.279 . S
C2361 O2362 1.315 . S
C2361 O2363 1.279 . S
O2362 Cd2354 2.223 . S
O2362 C2361 1.315 . S
O2363 Cd2353 2.240 . S
O2363 C2361 1.279 . S
O2364 Cd2354 2.297 . S
O2364 C2359 1.247 . S
O2365 Cd2354 2.439 . S
O2365 C2359 1.208 . S
O2366 Cd2367 2.223 . S
O2366 C2374 1.315 . S
Cd2367 O2366 2.223 . S
Cd2367 O2370 2.297 . S
Cd2367 O2371 2.439 . S
Cd2367 O2377 2.240 . S
Cd2368 O2369 2.240 . S
Cd2368 O2376 2.223 . S
Cd2368 O2378 2.297 . S
Cd2368 O2379 2.439 . S
O2369 Cd2368 2.240 . S
O2369 C2374 1.279 . S
O2370 Cd2367 2.297 . S
O2370 C2372 1.247 . S
O2371 Cd2367 2.439 . S
O2371 C2372 1.208 . S
C2372 O2370 1.247 . S
C2372 O2371 1.208 . S
C2373 O2378 1.247 . S
C2373 O2379 1.208 . S
C2374 O2366 1.315 . S
C2374 O2369 1.279 . S
C2375 O2376 1.315 . S
C2375 O2377 1.279 . S
O2376 Cd2368 2.223 . S
O2376 C2375 1.315 . S
O2377 Cd2367 2.240 . S
O2377 C2375 1.279 . S
O2378 Cd2368 2.297 . S
O2378 C2373 1.247 . S
O2379 Cd2368 2.439 . S
O2379 C2373 1.208 . S
O2380 Cd2381 2.223 . S
O2380 C2388 1.315 . S
Cd2381 O2380 2.223 . S
Cd2381 O2384 2.297 . S
Cd2381 O2385 2.439 . S
Cd2381 O2391 2.240 . S
Cd2382 O2383 2.240 . S
Cd2382 O2390 2.223 . S
Cd2382 O2392 2.297 . S
Cd2382 O2393 2.439 . S
O2383 Cd2382 2.240 . S
O2383 C2388 1.279 . S
O2384 Cd2381 2.297 . S
O2384 C2386 1.247 . S
O2385 Cd2381 2.439 . S
O2385 C2386 1.208 . S
C2386 O2384 1.247 . S
C2386 O2385 1.208 . S
C2387 O2392 1.247 . S
C2387 O2393 1.208 . S
C2388 O2380 1.315 . S
C2388 O2383 1.279 . S
C2389 O2390 1.315 . S
C2389 O2391 1.279 . S
O2390 Cd2382 2.223 . S
O2390 C2389 1.315 . S
O2391 Cd2381 2.240 . S
O2391 C2389 1.279 . S
O2392 Cd2382 2.297 . S
O2392 C2387 1.247 . S
O2393 Cd2382 2.439 . S
O2393 C2387 1.208 . S
O2394 Cd2395 2.223 . S
O2394 C2402 1.315 . S
Cd2395 O2394 2.223 . S
Cd2395 O2398 2.297 . S
Cd2395 O2399 2.439 . S
Cd2395 O2405 2.240 . S
Cd2396 O2397 2.240 . S
Cd2396 O2404 2.223 . S
Cd2396 O2406 2.297 . S
Cd2396 O2407 2.439 . S
O2397 Cd2396 2.240 . S
O2397 C2402 1.279 . S
O2398 Cd2395 2.297 . S
O2398 C2400 1.247 . S
O2399 Cd2395 2.439 . S
O2399 C2400 1.208 . S
C2400 O2398 1.247 . S
C2400 O2399 1.208 . S
C2401 O2406 1.247 . S
C2401 O2407 1.208 . S
C2402 O2394 1.315 . S
C2402 O2397 1.279 . S
C2403 O2404 1.315 . S
C2403 O2405 1.279 . S
O2404 Cd2396 2.223 . S
O2404 C2403 1.315 . S
O2405 Cd2395 2.240 . S
O2405 C2403 1.279 . S
O2406 Cd2396 2.297 . S
O2406 C2401 1.247 . S
O2407 Cd2396 2.439 . S
O2407 C2401 1.208 . S
O2408 Cd2409 2.223 . S
O2408 C2416 1.315 . S
Cd2409 O2408 2.223 . S
Cd2409 O2412 2.297 . S
Cd2409 O2413 2.439 . S
Cd2409 O2419 2.240 . S
Cd2410 O2411 2.240 . S
Cd2410 O2418 2.223 . S
Cd2410 O2420 2.297 . S
Cd2410 O2421 2.439 . S
O2411 Cd2410 2.240 . S
O2411 C2416 1.279 . S
O2412 Cd2409 2.297 . S
O2412 C2414 1.247 . S
O2413 Cd2409 2.439 . S
O2413 C2414 1.208 . S
C2414 O2412 1.247 . S
C2414 O2413 1.208 . S
C2415 O2420 1.247 . S
C2415 O2421 1.208 . S
C2416 O2408 1.315 . S
C2416 O2411 1.279 . S
C2417 O2418 1.315 . S
C2417 O2419 1.279 . S
O2418 Cd2410 2.223 . S
O2418 C2417 1.315 . S
O2419 Cd2409 2.240 . S
O2419 C2417 1.279 . S
O2420 Cd2410 2.297 . S
O2420 C2415 1.247 . S
O2421 Cd2410 2.439 . S
O2421 C2415 1.208 . S
O2422 Cd2423 2.223 . S
O2422 C2430 1.315 . S
Cd2423 O2422 2.223 . S
Cd2423 O2426 2.297 . S
Cd2423 O2427 2.439 . S
Cd2423 O2433 2.240 . S
Cd2424 O2425 2.240 . S
Cd2424 O2432 2.223 . S
Cd2424 O2434 2.297 . S
Cd2424 O2435 2.439 . S
O2425 Cd2424 2.240 . S
O2425 C2430 1.279 . S
O2426 Cd2423 2.297 . S
O2426 C2428 1.247 . S
O2427 Cd2423 2.439 . S
O2427 C2428 1.208 . S
C2428 O2426 1.247 . S
C2428 O2427 1.208 . S
C2429 O2434 1.247 . S
C2429 O2435 1.208 . S
C2430 O2422 1.315 . S
C2430 O2425 1.279 . S
C2431 O2432 1.315 . S
C2431 O2433 1.279 . S
O2432 Cd2424 2.223 . S
O2432 C2431 1.315 . S
O2433 Cd2423 2.240 . S
O2433 C2431 1.279 . S
O2434 Cd2424 2.297 . S
O2434 C2429 1.247 . S
O2435 Cd2424 2.439 . S
O2435 C2429 1.208 . S
O2436 Cd2437 2.223 . S
O2436 C2444 1.315 . S
Cd2437 O2436 2.223 . S
Cd2437 O2440 2.297 . S
Cd2437 O2441 2.439 . S
Cd2437 O2447 2.240 . S
Cd2438 O2439 2.240 . S
Cd2438 O2446 2.223 . S
Cd2438 O2448 2.297 . S
Cd2438 O2449 2.439 . S
O2439 Cd2438 2.240 . S
O2439 C2444 1.279 . S
O2440 Cd2437 2.297 . S
O2440 C2442 1.247 . S
O2441 Cd2437 2.439 . S
O2441 C2442 1.208 . S
C2442 O2440 1.247 . S
C2442 O2441 1.208 . S
C2443 O2448 1.247 . S
C2443 O2449 1.208 . S
C2444 O2436 1.315 . S
C2444 O2439 1.279 . S
C2445 O2446 1.315 . S
C2445 O2447 1.279 . S
O2446 Cd2438 2.223 . S
O2446 C2445 1.315 . S
O2447 Cd2437 2.240 . S
O2447 C2445 1.279 . S
O2448 Cd2438 2.297 . S
O2448 C2443 1.247 . S
O2449 Cd2438 2.439 . S
O2449 C2443 1.208 . S
O2450 Cd2451 2.223 . S
O2450 C2458 1.315 . S
Cd2451 O2450 2.223 . S
Cd2451 O2454 2.297 . S
Cd2451 O2455 2.439 . S
Cd2451 O2461 2.240 . S
Cd2452 O2453 2.240 . S
Cd2452 O2460 2.223 . S
Cd2452 O2462 2.297 . S
Cd2452 O2463 2.439 . S
O2453 Cd2452 2.240 . S
O2453 C2458 1.279 . S
O2454 Cd2451 2.297 . S
O2454 C2456 1.247 . S
O2455 Cd2451 2.439 . S
O2455 C2456 1.208 . S
C2456 O2454 1.247 . S
C2456 O2455 1.208 . S
C2457 O2462 1.247 . S
C2457 O2463 1.208 . S
C2458 O2450 1.315 . S
C2458 O2453 1.279 . S
C2459 O2460 1.315 . S
C2459 O2461 1.279 . S
O2460 Cd2452 2.223 . S
O2460 C2459 1.315 . S
O2461 Cd2451 2.240 . S
O2461 C2459 1.279 . S
O2462 Cd2452 2.297 . S
O2462 C2457 1.247 . S
O2463 Cd2452 2.439 . S
O2463 C2457 1.208 . S
O2464 Cd2465 2.223 . S
O2464 C2472 1.315 . S
Cd2465 O2464 2.223 . S
Cd2465 O2468 2.297 . S
Cd2465 O2469 2.439 . S
Cd2465 O2475 2.240 . S
Cd2466 O2467 2.240 . S
Cd2466 O2474 2.223 . S
Cd2466 O2476 2.297 . S
Cd2466 O2477 2.439 . S
O2467 Cd2466 2.240 . S
O2467 C2472 1.279 . S
O2468 Cd2465 2.297 . S
O2468 C2470 1.247 . S
O2469 Cd2465 2.439 . S
O2469 C2470 1.208 . S
C2470 O2468 1.247 . S
C2470 O2469 1.208 . S
C2471 O2476 1.247 . S
C2471 O2477 1.208 . S
C2472 O2464 1.315 . S
C2472 O2467 1.279 . S
C2473 O2474 1.315 . S
C2473 O2475 1.279 . S
O2474 Cd2466 2.223 . S
O2474 C2473 1.315 . S
O2475 Cd2465 2.240 . S
O2475 C2473 1.279 . S
O2476 Cd2466 2.297 . S
O2476 C2471 1.247 . S
O2477 Cd2466 2.439 . S
O2477 C2471 1.208 . S
O2478 Cd2479 2.223 . S
O2478 C2486 1.315 . S
Cd2479 O2478 2.223 . S
Cd2479 O2482 2.297 . S
Cd2479 O2483 2.439 . S
Cd2479 O2489 2.240 . S
Cd2480 O2481 2.240 . S
Cd2480 O2488 2.223 . S
Cd2480 O2490 2.297 . S
Cd2480 O2491 2.439 . S
O2481 Cd2480 2.240 . S
O2481 C2486 1.279 . S
O2482 Cd2479 2.297 . S
O2482 C2484 1.247 . S
O2483 Cd2479 2.439 . S
O2483 C2484 1.208 . S
C2484 O2482 1.247 . S
C2484 O2483 1.208 . S
C2485 O2490 1.247 . S
C2485 O2491 1.208 . S
C2486 O2478 1.315 . S
C2486 O2481 1.279 . S
C2487 O2488 1.315 . S
C2487 O2489 1.279 . S
O2488 Cd2480 2.223 . S
O2488 C2487 1.315 . S
O2489 Cd2479 2.240 . S
O2489 C2487 1.279 . S
O2490 Cd2480 2.297 . S
O2490 C2485 1.247 . S
O2491 Cd2480 2.439 . S
O2491 C2485 1.208 . S
O2492 Cd2493 2.223 . S
O2492 C2500 1.315 . S
Cd2493 O2492 2.223 . S
Cd2493 O2496 2.297 . S
Cd2493 O2497 2.439 . S
Cd2493 O2503 2.240 . S
Cd2494 O2495 2.240 . S
Cd2494 O2502 2.223 . S
Cd2494 O2504 2.297 . S
Cd2494 O2505 2.439 . S
O2495 Cd2494 2.240 . S
O2495 C2500 1.279 . S
O2496 Cd2493 2.297 . S
O2496 C2498 1.247 . S
O2497 Cd2493 2.439 . S
O2497 C2498 1.208 . S
C2498 O2496 1.247 . S
C2498 O2497 1.208 . S
C2499 O2504 1.247 . S
C2499 O2505 1.208 . S
C2500 O2492 1.315 . S
C2500 O2495 1.279 . S
C2501 O2502 1.315 . S
C2501 O2503 1.279 . S
O2502 Cd2494 2.223 . S
O2502 C2501 1.315 . S
O2503 Cd2493 2.240 . S
O2503 C2501 1.279 . S
O2504 Cd2494 2.297 . S
O2504 C2499 1.247 . S
O2505 Cd2494 2.439 . S
O2505 C2499 1.208 . S
O2506 Cd2507 2.223 . S
O2506 C2514 1.315 . S
Cd2507 O2506 2.223 . S
Cd2507 O2510 2.297 . S
Cd2507 O2511 2.439 . S
Cd2507 O2517 2.240 . S
Cd2508 O2509 2.240 . S
Cd2508 O2516 2.223 . S
Cd2508 O2518 2.297 . S
Cd2508 O2519 2.439 . S
O2509 Cd2508 2.240 . S
O2509 C2514 1.279 . S
O2510 Cd2507 2.297 . S
O2510 C2512 1.247 . S
O2511 Cd2507 2.439 . S
O2511 C2512 1.208 . S
C2512 O2510 1.247 . S
C2512 O2511 1.208 . S
C2513 O2518 1.247 . S
C2513 O2519 1.208 . S
C2514 O2506 1.315 . S
C2514 O2509 1.279 . S
C2515 O2516 1.315 . S
C2515 O2517 1.279 . S
O2516 Cd2508 2.223 . S
O2516 C2515 1.315 . S
O2517 Cd2507 2.240 . S
O2517 C2515 1.279 . S
O2518 Cd2508 2.297 . S
O2518 C2513 1.247 . S
O2519 Cd2508 2.439 . S
O2519 C2513 1.208 . S
O2520 Cd2521 2.223 . S
O2520 C2528 1.315 . S
Cd2521 O2520 2.223 . S
Cd2521 O2524 2.297 . S
Cd2521 O2525 2.439 . S
Cd2521 O2531 2.240 . S
Cd2522 O2523 2.240 . S
Cd2522 O2530 2.223 . S
Cd2522 O2532 2.297 . S
Cd2522 O2533 2.439 . S
O2523 Cd2522 2.240 . S
O2523 C2528 1.279 . S
O2524 Cd2521 2.297 . S
O2524 C2526 1.247 . S
O2525 Cd2521 2.439 . S
O2525 C2526 1.208 . S
C2526 O2524 1.247 . S
C2526 O2525 1.208 . S
C2527 O2532 1.247 . S
C2527 O2533 1.208 . S
C2528 O2520 1.315 . S
C2528 O2523 1.279 . S
C2529 O2530 1.315 . S
C2529 O2531 1.279 . S
O2530 Cd2522 2.223 . S
O2530 C2529 1.315 . S
O2531 Cd2521 2.240 . S
O2531 C2529 1.279 . S
O2532 Cd2522 2.297 . S
O2532 C2527 1.247 . S
O2533 Cd2522 2.439 . S
O2533 C2527 1.208 . S
O2534 Cd2535 2.223 . S
O2534 C2542 1.315 . S
Cd2535 O2534 2.223 . S
Cd2535 O2538 2.297 . S
Cd2535 O2539 2.439 . S
Cd2535 O2545 2.240 . S
Cd2536 O2537 2.240 . S
Cd2536 O2544 2.223 . S
Cd2536 O2546 2.297 . S
Cd2536 O2547 2.439 . S
O2537 Cd2536 2.240 . S
O2537 C2542 1.279 . S
O2538 Cd2535 2.297 . S
O2538 C2540 1.247 . S
O2539 Cd2535 2.439 . S
O2539 C2540 1.208 . S
C2540 O2538 1.247 . S
C2540 O2539 1.208 . S
C2541 O2546 1.247 . S
C2541 O2547 1.208 . S
C2542 O2534 1.315 . S
C2542 O2537 1.279 . S
C2543 O2544 1.315 . S
C2543 O2545 1.279 . S
O2544 Cd2536 2.223 . S
O2544 C2543 1.315 . S
O2545 Cd2535 2.240 . S
O2545 C2543 1.279 . S
O2546 Cd2536 2.297 . S
O2546 C2541 1.247 . S
O2547 Cd2536 2.439 . S
O2547 C2541 1.208 . S
O2548 Cd2549 2.223 . S
O2548 C2556 1.315 . S
Cd2549 O2548 2.223 . S
Cd2549 O2552 2.297 . S
Cd2549 O2553 2.439 . S
Cd2549 O2559 2.240 . S
Cd2550 O2551 2.240 . S
Cd2550 O2558 2.223 . S
Cd2550 O2560 2.297 . S
Cd2550 O2561 2.439 . S
O2551 Cd2550 2.240 . S
O2551 C2556 1.279 . S
O2552 Cd2549 2.297 . S
O2552 C2554 1.247 . S
O2553 Cd2549 2.439 . S
O2553 C2554 1.208 . S
C2554 O2552 1.247 . S
C2554 O2553 1.208 . S
C2555 O2560 1.247 . S
C2555 O2561 1.208 . S
C2556 O2548 1.315 . S
C2556 O2551 1.279 . S
C2557 O2558 1.315 . S
C2557 O2559 1.279 . S
O2558 Cd2550 2.223 . S
O2558 C2557 1.315 . S
O2559 Cd2549 2.240 . S
O2559 C2557 1.279 . S
O2560 Cd2550 2.297 . S
O2560 C2555 1.247 . S
O2561 Cd2550 2.439 . S
O2561 C2555 1.208 . S
O2562 Cd2563 2.223 . S
O2562 C2570 1.315 . S
Cd2563 O2562 2.223 . S
Cd2563 O2566 2.297 . S
Cd2563 O2567 2.439 . S
Cd2563 O2573 2.240 . S
Cd2564 O2565 2.240 . S
Cd2564 O2572 2.223 . S
Cd2564 O2574 2.297 . S
Cd2564 O2575 2.439 . S
O2565 Cd2564 2.240 . S
O2565 C2570 1.279 . S
O2566 Cd2563 2.297 . S
O2566 C2568 1.247 . S
O2567 Cd2563 2.439 . S
O2567 C2568 1.208 . S
C2568 O2566 1.247 . S
C2568 O2567 1.208 . S
C2569 O2574 1.247 . S
C2569 O2575 1.208 . S
C2570 O2562 1.315 . S
C2570 O2565 1.279 . S
C2571 O2572 1.315 . S
C2571 O2573 1.279 . S
O2572 Cd2564 2.223 . S
O2572 C2571 1.315 . S
O2573 Cd2563 2.240 . S
O2573 C2571 1.279 . S
O2574 Cd2564 2.297 . S
O2574 C2569 1.247 . S
O2575 Cd2564 2.439 . S
O2575 C2569 1.208 . S
O2576 Cd2577 2.223 . S
O2576 C2584 1.315 . S
Cd2577 O2576 2.223 . S
Cd2577 O2580 2.297 1_556 S
Cd2577 O2581 2.439 . S
Cd2577 O2587 2.240 . S
Cd2578 O2579 2.240 . S
Cd2578 O2586 2.223 . S
Cd2578 O2588 2.297 . S
Cd2578 O2589 2.439 . S
O2579 Cd2578 2.240 . S
O2579 C2584 1.279 . S
O2580 Cd2577 2.297 1_554 S
O2580 C2582 1.247 . S
O2581 Cd2577 2.439 . S
O2581 C2582 1.208 1_556 S
C2582 O2580 1.247 . S
C2582 O2581 1.208 1_554 S
C2583 O2588 1.247 . S
C2583 O2589 1.208 . S
C2584 O2576 1.315 . S
C2584 O2579 1.279 . S
C2585 O2586 1.315 . S
C2585 O2587 1.279 . S
O2586 Cd2578 2.223 . S
O2586 C2585 1.315 . S
O2587 Cd2577 2.240 . S
O2587 C2585 1.279 . S
O2588 Cd2578 2.297 . S
O2588 C2583 1.247 . S
O2589 Cd2578 2.439 . S
O2589 C2583 1.208 . S
O2590 Cd2591 2.223 . S
O2590 C2598 1.315 . S
Cd2591 O2590 2.223 . S
Cd2591 O2594 2.297 . S
Cd2591 O2595 2.439 . S
Cd2591 O2601 2.240 . S
Cd2592 O2593 2.240 . S
Cd2592 O2600 2.223 . S
Cd2592 O2602 2.297 . S
Cd2592 O2603 2.439 . S
O2593 Cd2592 2.240 . S
O2593 C2598 1.279 . S
O2594 Cd2591 2.297 . S
O2594 C2596 1.247 . S
O2595 Cd2591 2.439 . S
O2595 C2596 1.208 . S
C2596 O2594 1.247 . S
C2596 O2595 1.208 . S
C2597 O2602 1.247 . S
C2597 O2603 1.208 . S
C2598 O2590 1.315 . S
C2598 O2593 1.279 . S
C2599 O2600 1.315 . S
C2599 O2601 1.279 . S
O2600 Cd2592 2.223 . S
O2600 C2599 1.315 . S
O2601 Cd2591 2.240 . S
O2601 C2599 1.279 . S
O2602 Cd2592 2.297 . S
O2602 C2597 1.247 . S
O2603 Cd2592 2.439 . S
O2603 C2597 1.208 . S
O2604 Cd2605 2.223 . S
O2604 C2612 1.315 . S
Cd2605 O2604 2.223 . S
Cd2605 O2608 2.297 . S
Cd2605 O2609 2.439 . S
Cd2605 O2615 2.240 . S
Cd2606 O2607 2.240 . S
Cd2606 O2614 2.223 . S
Cd2606 O2616 2.297 . S
Cd2606 O2617 2.439 . S
O2607 Cd2606 2.240 . S
O2607 C2612 1.279 . S
O2608 Cd2605 2.297 . S
O2608 C2610 1.247 . S
O2609 Cd2605 2.439 . S
O2609 C2610 1.208 . S
C2610 O2608 1.247 . S
C2610 O2609 1.208 . S
C2611 O2616 1.247 . S
C2611 O2617 1.208 . S
C2612 O2604 1.315 . S
C2612 O2607 1.279 . S
C2613 O2614 1.315 . S
C2613 O2615 1.279 . S
O2614 Cd2606 2.223 . S
O2614 C2613 1.315 . S
O2615 Cd2605 2.240 . S
O2615 C2613 1.279 . S
O2616 Cd2606 2.297 . S
O2616 C2611 1.247 . S
O2617 Cd2606 2.439 . S
O2617 C2611 1.208 . S
O2618 Cd2619 2.223 . S
O2618 C2626 1.315 . S
Cd2619 O2618 2.223 . S
Cd2619 O2622 2.297 . S
Cd2619 O2623 2.439 . S
Cd2619 O2629 2.240 . S
Cd2620 O2621 2.240 . S
Cd2620 O2628 2.223 . S
Cd2620 O2630 2.297 . S
Cd2620 O2631 2.439 . S
O2621 Cd2620 2.240 . S
O2621 C2626 1.279 . S
O2622 Cd2619 2.297 . S
O2622 C2624 1.247 . S
O2623 Cd2619 2.439 . S
O2623 C2624 1.208 . S
C2624 O2622 1.247 . S
C2624 O2623 1.208 . S
C2625 O2630 1.247 . S
C2625 O2631 1.208 . S
C2626 O2618 1.315 . S
C2626 O2621 1.279 . S
C2627 O2628 1.315 . S
C2627 O2629 1.279 . S
O2628 Cd2620 2.223 . S
O2628 C2627 1.315 . S
O2629 Cd2619 2.240 . S
O2629 C2627 1.279 . S
O2630 Cd2620 2.297 . S
O2630 C2625 1.247 . S
O2631 Cd2620 2.439 . S
O2631 C2625 1.208 . S
O2632 Cd2633 2.223 . S
O2632 C2640 1.315 . S
Cd2633 O2632 2.223 . S
Cd2633 O2636 2.297 . S
Cd2633 O2637 2.439 . S
Cd2633 O2643 2.240 . S
Cd2634 O2635 2.240 . S
Cd2634 O2642 2.223 . S
Cd2634 O2644 2.297 . S
Cd2634 O2645 2.439 . S
O2635 Cd2634 2.240 . S
O2635 C2640 1.279 . S
O2636 Cd2633 2.297 . S
O2636 C2638 1.247 . S
O2637 Cd2633 2.439 . S
O2637 C2638 1.208 . S
C2638 O2636 1.247 . S
C2638 O2637 1.208 . S
C2639 O2644 1.247 . S
C2639 O2645 1.208 . S
C2640 O2632 1.315 . S
C2640 O2635 1.279 . S
C2641 O2642 1.315 . S
C2641 O2643 1.279 . S
O2642 Cd2634 2.223 . S
O2642 C2641 1.315 . S
O2643 Cd2633 2.240 . S
O2643 C2641 1.279 . S
O2644 Cd2634 2.297 . S
O2644 C2639 1.247 . S
O2645 Cd2634 2.439 . S
O2645 C2639 1.208 . S
O2646 Cd2647 2.223 . S
O2646 C2654 1.315 . S
Cd2647 O2646 2.223 . S
Cd2647 O2650 2.297 1_556 S
Cd2647 O2651 2.439 . S
Cd2647 O2657 2.240 . S
Cd2648 O2649 2.240 . S
Cd2648 O2656 2.223 . S
Cd2648 O2658 2.297 . S
Cd2648 O2659 2.439 . S
O2649 Cd2648 2.240 . S
O2649 C2654 1.279 . S
O2650 Cd2647 2.297 1_554 S
O2650 C2652 1.247 . S
O2651 Cd2647 2.439 . S
O2651 C2652 1.208 1_556 S
C2652 O2650 1.247 . S
C2652 O2651 1.208 1_554 S
C2653 O2658 1.247 . S
C2653 O2659 1.208 . S
C2654 O2646 1.315 . S
C2654 O2649 1.279 . S
C2655 O2656 1.315 . S
C2655 O2657 1.279 . S
O2656 Cd2648 2.223 . S
O2656 C2655 1.315 . S
O2657 Cd2647 2.240 . S
O2657 C2655 1.279 . S
O2658 Cd2648 2.297 . S
O2658 C2653 1.247 . S
O2659 Cd2648 2.439 . S
O2659 C2653 1.208 . S
O2660 Cd2661 2.223 . S
O2660 C2668 1.315 . S
Cd2661 O2660 2.223 . S
Cd2661 O2664 2.297 . S
Cd2661 O2665 2.439 . S
Cd2661 O2671 2.240 . S
Cd2662 O2663 2.240 . S
Cd2662 O2670 2.223 . S
Cd2662 O2672 2.297 . S
Cd2662 O2673 2.439 . S
O2663 Cd2662 2.240 . S
O2663 C2668 1.279 . S
O2664 Cd2661 2.297 . S
O2664 C2666 1.247 . S
O2665 Cd2661 2.439 . S
O2665 C2666 1.208 . S
C2666 O2664 1.247 . S
C2666 O2665 1.208 . S
C2667 O2672 1.247 . S
C2667 O2673 1.208 . S
C2668 O2660 1.315 . S
C2668 O2663 1.279 . S
C2669 O2670 1.315 . S
C2669 O2671 1.279 . S
O2670 Cd2662 2.223 . S
O2670 C2669 1.315 . S
O2671 Cd2661 2.240 . S
O2671 C2669 1.279 . S
O2672 Cd2662 2.297 . S
O2672 C2667 1.247 . S
O2673 Cd2662 2.439 . S
O2673 C2667 1.208 . S
O2674 Cd2675 2.223 . S
O2674 C2682 1.315 . S
Cd2675 O2674 2.223 . S
Cd2675 O2678 2.297 . S
Cd2675 O2679 2.439 . S
Cd2675 O2685 2.240 . S
Cd2676 O2677 2.240 . S
Cd2676 O2684 2.223 . S
Cd2676 O2686 2.297 . S
Cd2676 O2687 2.439 . S
O2677 Cd2676 2.240 . S
O2677 C2682 1.279 . S
O2678 Cd2675 2.297 . S
O2678 C2680 1.247 . S
O2679 Cd2675 2.439 . S
O2679 C2680 1.208 . S
C2680 O2678 1.247 . S
C2680 O2679 1.208 . S
C2681 O2686 1.247 . S
C2681 O2687 1.208 . S
C2682 O2674 1.315 . S
C2682 O2677 1.279 . S
C2683 O2684 1.315 . S
C2683 O2685 1.279 . S
O2684 Cd2676 2.223 . S
O2684 C2683 1.315 . S
O2685 Cd2675 2.240 . S
O2685 C2683 1.279 . S
O2686 Cd2676 2.297 . S
O2686 C2681 1.247 . S
O2687 Cd2676 2.439 . S
O2687 C2681 1.208 . S
C1085 C7 1.260 . S
C2443 C21 1.260 . S
C1785 C35 1.260 . S
C399 C49 1.260 . S
C63 C385 1.260 . S
C1015 C77 1.260 . S
C2373 C91 1.260 . S
C1715 C105 1.260 . S
C2681 C118 1.260 . S
C1309 C133 1.260 . S
C146 C651 1.260 . S
C567 C161 1.260 . S
C1295 C174 1.260 . S
C189 C1925 1.260 . S
C595 C202 1.260 . S
C217 C1281 1.260 . S
C497 C231 1.260 . S
C245 C1869 1.260 . S
C258 C539 1.260 . S
C1225 C273 1.260 . S
C286 C1183 1.260 . S
C1141 C301 1.260 . S
C314 C483 1.260 . S
C2471 C328 1.260 . S
C343 C749 1.260 . S
C357 C2107 1.260 . S
C1449 C371 1.260 . S
C413 C679 1.260 . S
C427 C2037 1.260 . S
C1379 C441 1.260 . S
C455 C2344 1.260 . S
C973 C469 1.260 . S
C958 C511 1.260 . S
C525 C1589 1.260 . S
C945 C553 1.260 . S
C1533 C581 1.260 . S
C889 C609 1.260 . S
C623 C846 1.260 . S
C637 C805 1.260 . S
C2134 C665 1.260 . S
C1771 C693 1.260 . S
C2457 C707 1.260 . S
C1071 C721 1.260 . S
C1057 C735 1.260 . S
C1701 C763 1.260 . S
C2387 C777 1.260 . S
C790 C2009 1.260 . S
C1323 C818 1.260 . S
C1239 C833 1.260 . S
C861 C2597 1.260 . S
C874 C1267 1.260 . S
C1169 C903 1.260 . S
C917 C2541 1.260 . S
C930 C1211 1.260 . S
C986 C1155 1.260 . S
C1799 C1000 1.260 . S
C1435 C1029 1.260 . S
C1043 C2121 1.260 . S
C1099 C1365 1.260 . S
C1113 C2051 1.260 . S
C1672 C1127 1.260 . S
C1197 C2261 1.260 . S
C2205 C1253 1.260 . S
C1462 C1337 1.260 . S
C1351 C2429 1.260 . S
C1743 C1393 1.260 . S
C1729 C1407 1.260 . S
C1421 C2359 1.260 . S
C1477 C2653 1.260 . S
C1490 C1995 1.260 . S
C1911 C1505 1.260 . S
C2639 C1518 1.260 . S
C1939 C1546 1.260 . S
C2625 C1561 1.260 . S
C1841 C1575 1.260 . S
C1602 C1883 1.260 . S
C2569 C1617 1.260 . S
C2527 C1630 1.260 . S
C1645 C2485 1.260 . S
C1658 C1827 1.260 . S
C1687 C2093 1.260 . S
C2023 C1757 1.260 . S
C2317 C1813 1.260 . S
C2302 C1855 1.260 . S
C2289 C1897 1.260 . S
C2233 C1953 1.260 . S
C1967 C2190 1.260 . S
C2149 C1981 1.260 . S
C2415 C2065 1.260 . S
C2401 C2079 1.260 . S
C2162 C2667 1.260 . S
C2177 C2583 1.260 . S
C2611 C2218 1.260 . S
C2247 C2513 1.260 . S
C2555 C2274 1.260 . S
C2499 C2330 1.260 . S
C443 C9 2.117 . S
C23 C1073 2.117 . S
C2431 C37 2.117 . S
C1773 C51 2.117 . S
C65 C1031 2.117 . S
C2389 C79 2.117 . S
C93 C1731 2.117 . S
C107 C345 2.117 . S
C120 C1297 2.117 . S
C135 C1927 2.117 . S
C148 C597 2.117 . S
C1283 C163 2.117 . S
C176 C2683 2.117 . S
C1311 C191 2.117 . S
C204 C653 2.117 . S
C569 C219 2.117 . S
C233 C555 2.117 . S
C247 C1815 2.117 . S
C485 C260 2.117 . S
C1171 C275 2.117 . S
C288 C1129 2.117 . S
C303 C1199 2.117 . S
C316 C541 2.117 . S
C2529 C330 2.117 . S
C737 C359 2.117 . S
C373 C2095 2.117 . S
C1437 C387 2.117 . S
C401 C695 2.117 . S
C2053 C415 2.117 . S
C429 C1395 2.117 . S
C457 C960 2.117 . S
C471 C1591 2.117 . S
C499 C947 2.117 . S
C2346 C513 2.117 . S
C527 C975 2.117 . S
C1479 C583 2.117 . S
C835 C611 2.117 . S
C625 C792 2.117 . S
C863 C639 2.117 . S
C667 C2192 2.117 . S
C681 C1115 2.117 . S
C709 C1759 2.117 . S
C2445 C723 2.117 . S
C751 C1717 2.117 . S
C2403 C765 2.117 . S
C779 C1017 2.117 . S
C2599 C807 2.117 . S
C820 C1269 2.117 . S
C2011 C848 2.117 . S
C1325 C876 2.117 . S
C891 C1241 2.117 . S
C905 C1227 2.117 . S
C2487 C919 2.117 . S
C1157 C932 2.117 . S
C1213 C988 2.117 . S
C1002 C1857 2.117 . S
C1045 C1423 2.117 . S
C1059 C2109 2.117 . S
C1381 C1087 2.117 . S
C1101 C2067 2.117 . S
C2263 C1143 2.117 . S
C1674 C1185 2.117 . S
C2151 C1255 2.117 . S
C1520 C1339 2.117 . S
C1353 C1787 2.117 . S
C1367 C2417 2.117 . S
C2375 C1409 2.117 . S
C1689 C1451 2.117 . S
C1464 C2641 2.117 . S
C1492 C1941 2.117 . S
C2627 C1507 2.117 . S
C2655 C1535 2.117 . S
C1548 C1997 2.117 . S
C1563 C1913 2.117 . S
C1899 C1577 2.117 . S
C1829 C1604 2.117 . S
C1619 C2515 2.117 . S
C1632 C2473 2.117 . S
C2543 C1647 2.117 . S
C1885 C1660 2.117 . S
C2081 C1703 2.117 . S
C1745 C2039 2.117 . S
C1801 C2304 2.117 . S
C1843 C2291 2.117 . S
C1871 C2319 2.117 . S
C1955 C2179 2.117 . S
C1969 C2136 2.117 . S
C1983 C2207 2.117 . S
C2459 C2025 2.117 . S
C2361 C2123 2.117 . S
C2164 C2613 2.117 . S
C2220 C2669 2.117 . S
C2585 C2235 2.117 . S
C2571 C2249 2.117 . S
C2501 C2276 2.117 . S
C2557 C2332 2.117 . S
C2638 C6 1.170 . S
C20 C2596 1.170 . S
C34 C1938 1.170 . S
C608 C48 1.170 . S
C62 C1336 1.170 . S
C636 C76 1.170 . S
C1994 C90 1.170 . S
C104 C1238 1.170 . S
C119 C2568 1.170 . S
C1854 C132 1.170 . S
C147 C524 1.170 . S
C160 C1210 1.170 . S
C1812 C175 1.170 . S
C188 C482 1.170 . S
C1168 C203 1.170 . S
C216 C2470 1.170 . S
C230 C1112 1.170 . S
C2372 C244 1.170 . S
C1714 C259 1.170 . S
C384 C272 1.170 . S
C287 C2358 1.170 . S
C300 C412 1.170 . S
C315 C1770 1.170 . S
C1070 C329 1.170 . S
C342 C2303 1.170 . S
C356 C2260 1.170 . S
C370 C1603 1.170 . S
C398 C1001 1.170 . S
C1659 C426 1.170 . S
C440 C902 1.170 . S
C2232 C454 1.170 . S
C1519 C468 1.170 . S
C496 C875 1.170 . S
C1476 C510 1.170 . S
C538 C832 1.170 . S
C2135 C552 1.170 . S
C776 C566 1.170 . S
C580 C2036 1.170 . S
C1378 C594 1.170 . S
C2022 C622 1.170 . S
C1434 C650 1.170 . S
C664 C734 1.170 . S
C1966 C678 1.170 . S
C1924 C692 1.170 . S
C706 C2610 1.170 . S
C720 C1280 1.170 . S
C1308 C748 1.170 . S
C762 C2666 1.170 . S
C791 C1896 1.170 . S
C804 C2526 1.170 . S
C1196 C819 1.170 . S
C847 C2484 1.170 . S
C1154 C860 1.170 . S
C1798 C888 1.170 . S
C1700 C916 1.170 . S
C2386 C931 1.170 . S
C944 C1056 1.170 . S
C959 C1686 1.170 . S
C972 C1084 1.170 . S
C2442 C987 1.170 . S
C1014 C1631 1.170 . S
C1588 C1028 1.170 . S
C1042 C2275 1.170 . S
C1098 C2331 1.170 . S
C1560 C1126 1.170 . S
C1140 C2191 1.170 . S
C1182 C2148 1.170 . S
C1224 C1463 1.170 . S
C1364 C1252 1.170 . S
C2050 C1266 1.170 . S
C1294 C1350 1.170 . S
C1322 C2106 1.170 . S
C1952 C1392 1.170 . S
C2680 C1406 1.170 . S
C1980 C1420 1.170 . S
C2582 C1448 1.170 . S
C1868 C1491 1.170 . S
C1504 C2554 1.170 . S
C1826 C1532 1.170 . S
C1547 C2512 1.170 . S
C1574 C2456 1.170 . S
C1616 C1728 1.170 . S
C1644 C1756 1.170 . S
C1673 C2414 1.170 . S
C1742 C2345 1.170 . S
C1784 C2246 1.170 . S
C1840 C2219 1.170 . S
C1882 C2176 1.170 . S
C2120 C1910 1.170 . S
C2078 C2008 1.170 . S
C2624 C2064 1.170 . S
C2652 C2092 1.170 . S
C2540 C2163 1.170 . S
C2204 C2498 1.170 . S
C2288 C2400 1.170 . S
C2428 C2316 1.170 . S
C890 C8 1.243 1_655 S
C22 C1521 1.243 . S
C862 C36 1.243 . S
C1549 C50 1.243 1_545 S
C64 C806 1.243 1_455 S
C1493 C78 1.243 . S
C834 C92 1.243 . S
C106 C1465 1.243 1_565 S
C1450 C121 1.243 1_565 S
C736 C134 1.243 1_455 S
C149 C1422 1.243 . S
C162 C764 1.243 . S
C1366 C177 1.243 . S
C708 C190 1.243 . S
C1394 C205 1.243 1_565 S
C218 C680 1.243 1_655 S
C1633 C232 1.243 1_556 S
C1675 C246 1.243 . S
C261 C1646 1.243 . S
C1661 C274 1.243 . S
C289 C1576 1.243 . S
C1605 C302 1.243 1_556 S
C1618 C317 1.243 . S
C331 C1590 1.243 . S
C1226 C344 1.243 1_455 S
C358 C1856 1.243 . S
C1198 C372 1.243 . S
C386 C1884 1.243 1_545 S
C400 C1142 1.243 1_655 S
C1828 C414 1.243 . S
C428 C1170 1.243 . S
C442 C1800 1.243 1_545 S
C1786 C456 1.243 1_545 S
C1072 C470 1.243 1_655 S
C484 C1758 1.243 . S
C1100 C498 1.243 . S
C512 C1702 1.243 . S
C1044 C526 1.243 . S
C1730 C540 1.243 1_545 S
C554 C1016 1.243 1_455 S
C1968 C568 1.243 1_554 S
C582 C2010 1.243 . S
C1982 C596 1.243 . S
C1996 C610 1.243 . S
C1912 C624 1.243 . S
C638 C1940 1.243 1_556 S
C652 C1954 1.243 . S
C1926 C666 1.243 . S
C2193 C694 1.243 . S
C2221 C722 1.243 . S
C750 C2165 1.243 . S
C2137 C778 1.243 . S
C793 C2122 1.243 . S
C821 C2094 1.243 . S
C2038 C849 1.243 . S
C877 C2066 1.243 . S
C904 C2305 1.243 . S
C2347 C918 1.243 . S
C933 C2318 1.243 1_556 S
C2333 C946 1.243 . S
C2248 C961 1.243 1_554 S
C974 C2277 1.243 . S
C989 C2290 1.243 . S
C2262 C1003 1.243 . S
C2528 C1030 1.243 . S
C2556 C1058 1.243 . S
C2500 C1086 1.243 . S
C2472 C1114 1.243 . S
C1128 C2458 1.243 . S
C2430 C1156 1.243 . S
C2374 C1184 1.243 . S
C2402 C1212 1.243 . S
C1240 C2640 1.243 . S
C2682 C1254 1.243 . S
C1268 C2654 1.243 1_554 S
C2668 C1282 1.243 . S
C1296 C2584 1.243 1_554 S
C1310 C2612 1.243 . S
C2626 C1324 1.243 . S
C2598 C1338 1.243 . S
C2234 C1352 1.243 . S
C1380 C2206 1.243 . S
C2150 C1408 1.243 . S
C1436 C2178 1.243 . S
C1478 C2080 1.243 . S
C1506 C2108 1.243 . S
C2052 C1534 1.243 . S
C1562 C2024 1.243 . S
C2570 C1688 1.243 . S
C2542 C1716 1.243 . S
C2486 C1744 1.243 . S
C2514 C1772 1.243 . S
C2416 C1814 1.243 . S
C1842 C2444 1.243 . S
C1870 C2388 1.243 . S
C2360 C1898 1.243 . S
