# Generated by pormake.
# Topology tfs, (6)-cn, num edge types: 1
# Building blocks:
#     Node 0, Type 0, BuildingBlock: CUWYAW_clean_sbu_0, # of connection points: 6
#     Node 1, Type 0, BuildingBlock: CUWYAW_clean_sbu_0, # of connection points: 6
#     Node 2, Type 0, BuildingBlock: CUWYAW_clean_sbu_0, # of connection points: 6
#     Node 3, Type 0, BuildingBlock: CUWYAW_clean_sbu_0, # of connection points: 6
#     Node 4, Type 0, BuildingBlock: CUWYAW_clean_sbu_0, # of connection points: 6
#     Node 5, Type 0, BuildingBlock: CUWYAW_clean_sbu_0, # of connection points: 6
#     Edge 6, Type (0, 0), BuildingBlock: MIFKUJ_clean_linker_0, # of connection points: 2
#     Edge 7, Type (0, 0), BuildingBlock: MIFKUJ_clean_linker_0, # of connection points: 2
#     Edge 8, Type (0, 0), BuildingBlock: MIFKUJ_clean_linker_0, # of connection points: 2
#     Edge 9, Type (0, 0), BuildingBlock: MIFKUJ_clean_linker_0, # of connection points: 2
#     Edge 10, Type (0, 0), BuildingBlock: MIFKUJ_clean_linker_0, # of connection points: 2
#     Edge 11, Type (0, 0), BuildingBlock: MIFKUJ_clean_linker_0, # of connection points: 2
#     Edge 12, Type (0, 0), BuildingBlock: MIFKUJ_clean_linker_0, # of connection points: 2
#     Edge 13, Type (0, 0), BuildingBlock: MIFKUJ_clean_linker_0, # of connection points: 2
#     Edge 14, Type (0, 0), BuildingBlock: MIFKUJ_clean_linker_0, # of connection points: 2
#     Edge 15, Type (0, 0), BuildingBlock: MIFKUJ_clean_linker_0, # of connection points: 2
#     Edge 16, Type (0, 0), BuildingBlock: MIFKUJ_clean_linker_0, # of connection points: 2
#     Edge 17, Type (0, 0), BuildingBlock: MIFKUJ_clean_linker_0, # of connection points: 2
#     Edge 18, Type (0, 0), BuildingBlock: MIFKUJ_clean_linker_0, # of connection points: 2
#     Edge 19, Type (0, 0), BuildingBlock: MIFKUJ_clean_linker_0, # of connection points: 2
#     Edge 20, Type (0, 0), BuildingBlock: MIFKUJ_clean_linker_0, # of connection points: 2
#     Edge 21, Type (0, 0), BuildingBlock: MIFKUJ_clean_linker_0, # of connection points: 2
#     Edge 22, Type (0, 0), BuildingBlock: MIFKUJ_clean_linker_0, # of connection points: 2
#     Edge 23, Type (0, 0), BuildingBlock: MIFKUJ_clean_linker_0, # of connection points: 2
# Relax obj value: 0.512
# Max RMSD: 0.285
# Mean RMSD: 0.285
data_MOF--net-tfs--node1-CUWYAW_clean_sbu_0--edge1-MIFKUJ_clean_linker_0
_symmetry_space_group_name_H-M    P1
_symmetry_Int_Tables_number       1
_symmetry_cell_setting            triclinic
loop_
_symmetry_equiv_pos_as_xyz
'x, y, z'
_cell_length_a     67.464409
_cell_length_b     67.427507
_cell_length_c     19.049861
_cell_angle_alpha  89.922395
_cell_angle_beta   90.079611
_cell_angle_gamma 120.01519
loop_
_atom_site_label
_atom_site_type_symbol
_atom_site_fract_x
_atom_site_fract_y
_atom_site_fract_z
_atom_type_partial_charge
C0 C 0.2239 0.38085 0.93945 0.0
Eu1 Eu 0.20989 0.40738 0.99308 0.0
C2 C 0.22594 0.36017 0.9472 0.0
C3 C 0.22822 0.35227 0.01333 0.0
C4 C 0.23468 0.3355 0.01847 0.0
C5 C 0.23916 0.32658 0.95759 0.0
C6 C 0.23558 0.33366 0.89165 0.0
C7 C 0.22901 0.35026 0.88659 0.0
C8 C 0.20873 0.41546 0.13297 0.0
C9 C 0.15478 0.3829 0.01826 0.0
C10 C 0.17654 0.46471 0.07363 0.0
Eu11 Eu 0.18873 0.43619 0.02485 0.0
C12 C 0.18185 0.48851 0.06365 0.0
C13 C 0.20217 0.50491 0.03107 0.0
C14 C 0.2065 0.52734 0.02115 0.0
C15 C 0.1905 0.53366 0.04318 0.0
C16 C 0.17023 0.51709 0.07601 0.0
C17 C 0.16598 0.49477 0.0861 0.0
C18 C 0.18974 0.42739 0.8853 0.0
C19 C 0.24332 0.4613 1.00011 0.0
O20 O 0.20394 0.37864 0.9247 0.0
O21 O 0.23595 0.39774 0.98247 0.0
O22 O 0.22471 0.41323 0.10318 0.0
O23 O 0.19311 0.41128 0.0893 0.0
O24 O 0.1714 0.38164 0.98519 0.0
O25 O 0.15894 0.40181 0.05102 0.0
O26 O 0.19243 0.46162 0.10234 0.0
O27 O 0.16623 0.45071 0.02146 0.0
O28 O 0.17327 0.42876 0.9153 0.0
O29 O 0.20555 0.43224 0.92883 0.0
O30 O 0.22656 0.46205 0.03319 0.0
O31 O 0.23963 0.44248 0.96766 0.0
H32 H 0.22608 0.3598 0.06085 0.0
H33 H 0.23741 0.33049 0.07001 0.0
H34 H 0.2386 0.3269 0.84384 0.0
H35 H 0.22744 0.35619 0.83508 0.0
H36 H 0.21457 0.50033 0.01296 0.0
H37 H 0.22217 0.53963 0.99517 0.0
H38 H 0.15772 0.52144 0.09459 0.0
H39 H 0.15022 0.48234 0.1114 0.0
C40 C 0.84491 0.22444 0.95256 0.0
Eu41 Eu 0.80406 0.20967 1.00486 0.0
C42 C 0.86753 0.22641 0.96232 0.0
C43 C 0.87789 0.23018 0.02875 0.0
C44 C 0.9009 0.23602 0.03482 0.0
C45 C 0.91396 0.23833 0.97455 0.0
C46 C 0.9031 0.23331 0.90863 0.0
C47 C 0.88014 0.22742 0.90266 0.0
C48 C 0.7946 0.20817 0.14481 0.0
C49 C 0.77519 0.1546 0.03027 0.0
C50 C 0.71303 0.17345 0.08462 0.0
Eu51 Eu 0.75406 0.18684 0.03648 0.0
C52 C 0.69438 0.17846 0.07374 0.0
C53 C 0.69784 0.19779 0.03576 0.0
C54 C 0.67965 0.2019 0.02487 0.0
C55 C 0.65768 0.18664 0.05136 0.0
C56 C 0.65445 0.16738 0.08962 0.0
C57 C 0.67262 0.16335 0.10066 0.0
C58 C 0.76406 0.18791 0.89714 0.0
C59 C 0.78177 0.24145 0.00908 0.0
O60 O 0.82737 0.20445 0.93695 0.0
O61 O 0.83963 0.23629 0.99496 0.0
O62 O 0.81243 0.22467 0.11486 0.0
O63 O 0.78368 0.19238 0.10123 0.0
O64 O 0.79232 0.17149 0.99549 0.0
O65 O 0.76021 0.15809 0.06422 0.0
O66 O 0.73174 0.18952 0.11399 0.0
O67 O 0.71719 0.1635 0.03246 0.0
O68 O 0.74667 0.17098 0.92751 0.0
O69 O 0.77449 0.204 0.9402 0.0
O70 O 0.76461 0.22442 0.04264 0.0
O71 O 0.79748 0.23844 0.97762 0.0
H72 H 0.8685 0.22957 0.07557 0.0
H73 H 0.90877 0.23989 0.08632 0.0
H74 H 0.91256 0.23458 0.86133 0.0
H75 H 0.8725 0.22462 0.85092 0.0
H76 H 0.71453 0.20958 0.01415 0.0
H77 H 0.68268 0.21678 0.99467 0.0
H78 H 0.63788 0.15548 0.11166 0.0
H79 H 0.66966 0.14836 0.13014 0.0
C80 C 0.62139 0.84533 0.93771 0.0
Eu81 Eu 0.5942 0.80522 0.99357 0.0
C82 C 0.64149 0.86797 0.95106 0.0
C83 C 0.64852 0.87617 0.0195 0.0
C84 C 0.66567 0.89895 0.03051 0.0
C85 C 0.676 0.91391 0.97326 0.0
C86 C 0.66946 0.90521 0.90481 0.0
C87 C 0.65238 0.88248 0.89394 0.0
C88 C 0.58754 0.7972 0.13485 0.0
C89 C 0.6182 0.77459 0.0171 0.0
C90 C 0.5372 0.71546 0.07852 0.0
Eu91 Eu 0.56586 0.75597 0.02896 0.0
C92 C 0.51363 0.69666 0.0647 0.0
C93 C 0.50753 0.68499 1.00013 0.0
C94 C 0.48536 0.66668 0.98932 0.0
C95 C 0.4688 0.65973 0.04262 0.0
C96 C 0.47487 0.67161 0.10681 0.0
C97 C 0.49707 0.68982 0.11777 0.0
C98 C 0.57318 0.76461 0.88795 0.0
C99 C 0.54085 0.78543 0.00539 0.0
O100 O 0.62454 0.82782 0.93107 0.0
O101 O 0.6029 0.84034 0.97296 0.0
O102 O 0.5895 0.81517 0.10393 0.0
O103 O 0.59131 0.78545 0.09147 0.0
O104 O 0.61824 0.79078 0.97771 0.0
O105 O 0.60045 0.76156 0.05697 0.0
O106 O 0.53936 0.73441 0.10436 0.0
O107 O 0.5528 0.71922 0.03147 0.0
O108 O 0.5723 0.74712 0.919 0.0
O109 O 0.56874 0.77586 0.93133 0.0
O110 O 0.54068 0.76862 0.04114 0.0
O111 O 0.55909 0.79976 0.96901 0.0
H112 H 0.64027 0.86519 0.06431 0.0
H113 H 0.67051 0.90497 0.08388 0.0
H114 H 0.67674 0.91622 0.85949 0.0
H115 H 0.64704 0.87648 0.84074 0.0
H116 H 0.51988 0.68988 0.95801 0.0
H117 H 0.48113 0.65802 0.93905 0.0
H118 H 0.46258 0.6665 0.14922 0.0
H119 H 0.50138 0.69844 0.16813 0.0
C120 C 0.79002 0.62976 0.93216 0.0
Eu121 Eu 0.79605 0.5971 0.98227 0.0
C122 C 0.7756 0.6403 0.93669 0.0
C123 C 0.75523 0.63032 0.97555 0.0
C124 C 0.74249 0.64149 0.98113 0.0
C125 C 0.75001 0.6628 0.94806 0.0
C126 C 0.77042 0.67254 0.90898 0.0
C127 C 0.78304 0.66137 0.90336 0.0
C128 C 0.79531 0.58761 0.12132 0.0
C129 C 0.84987 0.616 0.99952 0.0
C130 C 0.82248 0.53478 0.06614 0.0
Eu131 Eu 0.81303 0.56491 0.01433 0.0
C132 C 0.81674 0.51097 0.05473 0.0
C133 C 0.7967 0.49528 0.01938 0.0
C134 C 0.792 0.47282 0.0079 0.0
C135 C 0.80741 0.46586 0.03105 0.0
C136 C 0.82741 0.48171 0.06658 0.0
C137 C 0.832 0.50404 0.07829 0.0
C138 C 0.81265 0.57353 0.87433 0.0
C139 C 0.75778 0.54468 0.998 0.0
O140 O 0.80268 0.63213 0.98696 0.0
O141 O 0.78112 0.60942 0.90378 0.0
O142 O 0.77991 0.59069 0.09034 0.0
O143 O 0.81106 0.59108 0.07886 0.0
O144 O 0.83437 0.61663 0.95874 0.0
O145 O 0.84388 0.59839 0.04129 0.0
O146 O 0.80623 0.5381 0.09051 0.0
O147 O 0.83454 0.54931 0.0168 0.0
O148 O 0.82807 0.57035 0.90436 0.0
O149 O 0.79748 0.5705 0.91823 0.0
O150 O 0.7746 0.54121 0.0179 0.0
O151 O 0.76161 0.56497 0.9767 0.0
H152 H 0.74931 0.61406 1.00184 0.0
H153 H 0.72674 0.63341 0.01106 0.0
H154 H 0.77696 0.68908 0.88393 0.0
H155 H 0.79886 0.66938 0.87366 0.0
H156 H 0.7848 0.50043 1.00033 0.0
H157 H 0.77654 0.46104 0.97995 0.0
H158 H 0.83942 0.47677 0.08602 0.0
H159 H 0.84756 0.51596 0.10565 0.0
C160 C 0.15977 0.77926 0.92698 0.0
Eu161 Eu 0.19975 0.79332 0.98478 0.0
C162 C 0.13752 0.77782 0.93694 0.0
C163 C 0.12992 0.7797 1.00377 0.0
C164 C 0.10715 0.77415 0.01367 0.0
C165 C 0.09166 0.76656 0.95693 0.0
C166 C 0.09985 0.76605 0.88945 0.0
C167 C 0.12257 0.77162 0.87967 0.0
C168 C 0.20778 0.7948 0.12588 0.0
C169 C 0.22868 0.84834 0.01065 0.0
C170 C 0.28974 0.82912 0.07174 0.0
Eu171 Eu 0.24912 0.81552 0.0203 0.0
C172 C 0.30839 0.82404 0.063 0.0
C173 C 0.33109 0.84208 0.06522 0.0
C174 C 0.34916 0.83785 0.05551 0.0
C175 C 0.34482 0.81545 0.04371 0.0
C176 C 0.32202 0.79736 0.04181 0.0
C177 C 0.30394 0.80163 0.051 0.0
C178 C 0.24028 0.81423 0.8796 0.0
C179 C 0.22107 0.76073 0.99575 0.0
O180 O 0.17759 0.79934 0.9142 0.0
O181 O 0.16438 0.76689 0.96946 0.0
O182 O 0.19005 0.77845 0.09496 0.0
O183 O 0.21925 0.81048 0.08247 0.0
O184 O 0.21178 0.83161 0.97471 0.0
O185 O 0.2432 0.84452 0.0461 0.0
O186 O 0.27084 0.81326 0.10089 0.0
O187 O 0.28597 0.83897 0.01838 0.0
O188 O 0.25739 0.83123 0.91076 0.0
O189 O 0.22948 0.79828 0.92283 0.0
O190 O 0.23828 0.77783 0.02907 0.0
O191 O 0.2058 0.76393 0.96208 0.0
H192 H 0.14128 0.78448 0.04864 0.0
H193 H 0.10148 0.77503 0.06613 0.0
H194 H 0.0884 0.75999 0.84472 0.0
H195 H 0.12814 0.7699 0.82784 0.0
H196 H 0.33484 0.85948 0.07433 0.0
H197 H 0.36655 0.85209 0.05811 0.0
H198 H 0.31818 0.77995 0.0322 0.0
H199 H 0.28653 0.78749 0.04841 0.0
C200 C 0.38135 0.15814 0.94161 0.0
Eu201 Eu 0.40846 0.19852 0.99579 0.0
C202 C 0.3608 0.13566 0.95375 0.0
C203 C 0.35389 0.12679 0.02168 0.0
C204 C 0.33667 0.10395 0.03122 0.0
C205 C 0.32611 0.08956 0.973 0.0
C206 C 0.33241 0.09896 0.90518 0.0
C207 C 0.34957 0.12176 0.89577 0.0
C208 C 0.4164 0.20739 0.13604 0.0
C209 C 0.38431 0.22932 0.02064 0.0
C210 C 0.46515 0.28891 0.08065 0.0
Eu211 Eu 0.43743 0.24843 0.02884 0.0
C212 C 0.48846 0.3083 0.07145 0.0
C213 C 0.50406 0.30707 0.02559 0.0
C214 C 0.52587 0.32619 0.01582 0.0
C215 C 0.53232 0.34684 0.05155 0.0
C216 C 0.51661 0.34776 0.09801 0.0
C217 C 0.49491 0.32867 0.10776 0.0
C218 C 0.42861 0.23904 0.88897 0.0
C219 C 0.4625 0.21894 1.00207 0.0
O220 O 0.37878 0.17587 0.93055 0.0
O221 O 0.39919 0.16304 0.98032 0.0
O222 O 0.41381 0.18906 0.10599 0.0
O223 O 0.41244 0.21901 0.09248 0.0
O224 O 0.38324 0.21183 0.98572 0.0
O225 O 0.40295 0.24349 0.05557 0.0
O226 O 0.46314 0.26996 0.10611 0.0
O227 O 0.45084 0.28526 0.0294 0.0
O228 O 0.43042 0.25703 0.91934 0.0
O229 O 0.43329 0.22785 0.93217 0.0
O230 O 0.46353 0.23665 0.03486 0.0
O231 O 0.44347 0.20366 0.97064 0.0
H232 H 0.36237 0.13725 0.06722 0.0
H233 H 0.33201 0.0974 0.08419 0.0
H234 H 0.32492 0.08842 0.8591 0.0
H235 H 0.35479 0.12824 0.84292 0.0
H236 H 0.49929 0.29144 0.9969 0.0
H237 H 0.5375 0.32497 0.97927 0.0
H238 H 0.52113 0.36322 0.12723 0.0
H239 H 0.48305 0.32988 0.14343 0.0
H240 H 0.3416 0.20385 0.95994 0.0
H241 H 0.3113 0.21387 0.9528 0.0
H242 H 0.35372 0.27587 0.06922 0.0
H243 H 0.38337 0.26569 0.07862 0.0
H244 H 0.31261 0.25969 0.11138 0.0
H245 H 0.34879 0.27366 0.88348 0.0
H246 H 0.361 0.26279 0.77514 0.0
H247 H 0.29103 0.21358 0.7275 0.0
H248 H 0.27845 0.22397 0.83612 0.0
H249 H 0.27548 0.33051 0.88371 0.0
H250 H 0.2946 0.30815 0.89618 0.0
H251 H 0.24557 0.2663 0.05416 0.0
H252 H 0.22669 0.28923 0.04312 0.0
H253 H 0.28495 0.26669 0.87643 0.0
H254 H 0.27113 0.24857 0.1734 0.0
H255 H 0.26416 0.26486 0.28023 0.0
H256 H 0.29801 0.33176 0.18638 0.0
H257 H 0.30541 0.3159 0.07944 0.0
C258 C 0.34431 0.21947 0.98465 0.0
C259 C 0.36499 0.23398 0.01954 0.0
C260 C 0.32702 0.22525 0.98027 0.0
C261 C 0.33027 0.24581 0.00974 0.0
C262 C 0.35065 0.25988 0.04622 0.0
C263 C 0.36772 0.25404 0.05126 0.0
C264 C 0.31321 0.25355 1.00062 0.0
C265 C 0.30638 0.26097 0.06 0.0
C266 C 0.3052 0.25555 0.93367 0.0
C267 C 0.31271 0.24939 0.86825 0.0
C268 C 0.33603 0.26041 0.8501 0.0
C269 C 0.34301 0.25436 0.78865 0.0
C270 C 0.3268 0.23746 0.74457 0.0
C271 C 0.30357 0.22663 0.76177 0.0
C272 C 0.2965 0.2326 0.82325 0.0
C273 C 0.26856 0.31637 0.92053 0.0
C274 C 0.24957 0.31167 0.96249 0.0
C275 C 0.27953 0.30355 0.92762 0.0
C276 C 0.27174 0.2856 0.97658 0.0
C277 C 0.25223 0.28031 0.0169 0.0
C278 C 0.24141 0.29339 0.01052 0.0
C279 C 0.28483 0.27336 0.98703 0.0
C280 C 0.29081 0.26499 0.92797 0.0
C281 C 0.29275 0.27124 0.05402 0.0
C282 C 0.28853 0.28098 0.11817 0.0
C283 C 0.2771 0.26676 0.17568 0.0
C284 C 0.27308 0.27592 0.23622 0.0
C285 C 0.28055 0.29931 0.23997 0.0
C286 C 0.29215 0.31363 0.1833 0.0
C287 C 0.29624 0.30456 0.1227 0.0
H288 H 0.27741 0.30637 0.28686 0.0
H289 H 0.33224 0.23279 0.69701 0.0
H290 H 0.11673 0.3828 0.06542 0.0
H291 H 0.07735 0.35185 0.06241 0.0
H292 H 0.09876 0.30718 0.97021 0.0
H293 H 0.13867 0.33873 0.97088 0.0
H294 H 0.06236 0.3012 0.90596 0.0
H295 H 0.07993 0.3005 0.1448 0.0
H296 H 0.0954 0.31607 0.26197 0.0
H297 H 0.04799 0.34067 0.2814 0.0
H298 H 0.03244 0.32555 0.1639 0.0
H299 H 0.93782 0.22766 0.0703 0.0
H300 H 0.97948 0.24487 0.08058 0.0
H301 H 0.98851 0.28815 0.90232 0.0
H302 H 0.94718 0.27083 0.89121 0.0
H303 H 0.01098 0.28551 0.11015 0.0
H304 H 0.03588 0.30264 0.81261 0.0
H305 H 0.02112 0.28331 0.69897 0.0
H306 H 0.98452 0.21836 0.80375 0.0
H307 H 0.99933 0.23722 0.91791 0.0
C308 C 0.11324 0.36638 0.04498 0.0
C309 C 0.13098 0.36325 0.01878 0.0
C310 C 0.09059 0.34856 0.04373 0.0
C311 C 0.08499 0.32693 0.01757 0.0
C312 C 0.10263 0.32366 0.99118 0.0
C313 C 0.12544 0.34168 0.99172 0.0
C314 C 0.06054 0.30837 0.01513 0.0
C315 C 0.05116 0.29761 0.95077 0.0
C316 C 0.04594 0.30295 0.07418 0.0
C317 C 0.05507 0.31194 0.14529 0.0
C318 C 0.07288 0.30933 0.17387 0.0
C319 C 0.08166 0.31808 0.24038 0.0
C320 C 0.0727 0.32937 0.27907 0.0
C321 C 0.0549 0.33191 0.25138 0.0
C322 C 0.04607 0.32321 0.18486 0.0
C323 C 0.94873 0.24072 0.03302 0.0
C324 C 0.93915 0.24771 0.97955 0.0
C325 C 0.97254 0.25053 0.03886 0.0
C326 C 0.98726 0.26759 0.99153 0.0
C327 C 0.97765 0.27457 0.93828 0.0
C328 C 0.95393 0.26466 0.93204 0.0
C329 C 0.01263 0.27928 1.00002 0.0
C330 C 0.02219 0.28874 0.06559 0.0
C331 C 0.02745 0.2829 0.94265 0.0
C332 C 0.01862 0.2714 0.87396 0.0
C333 C 0.02479 0.28422 0.81142 0.0
C334 C 0.01639 0.27334 0.74689 0.0
C335 C 0.00185 0.24963 0.74416 0.0
C336 C 0.99573 0.23673 0.80595 0.0
C337 C 0.0041 0.24752 0.8706 0.0
H338 H 0.99535 0.24125 0.69415 0.0
H339 H 0.07953 0.33614 0.33054 0.0
H340 H 0.79565 0.13715 0.94494 0.0
H341 H 0.78638 0.09706 0.937 0.0
H342 H 0.73788 0.07922 0.10608 0.0
H343 H 0.74715 0.11895 0.11485 0.0
H344 H 0.76108 0.05648 0.11801 0.0
H345 H 0.72141 0.07315 0.93539 0.0
H346 H 0.71936 0.09388 0.83141 0.0
H347 H 0.75907 0.07194 0.71317 0.0
H348 H 0.7618 0.05149 0.81702 0.0
H349 H 0.67359 0.94196 0.07247 0.0
H350 H 0.69789 0.98332 0.08401 0.0
H351 H 0.73894 0.9841 0.90956 0.0
H352 H 0.71484 0.9425 0.89821 0.0
H353 H 0.72656 0.01623 0.89443 0.0
H354 H 0.76097 0.99451 0.07432 0.0
H355 H 0.76225 0.97364 0.179 0.0
H356 H 0.73173 0.00451 0.30265 0.0
H357 H 0.72995 0.02532 0.19849 0.0
C358 C 0.7833 0.12473 0.98115 0.0
C359 C 0.77199 0.1312 0.03007 0.0
C360 C 0.77795 0.10182 0.97637 0.0
C361 C 0.76122 0.08508 0.02043 0.0
C362 C 0.75082 0.0918 0.07152 0.0
C363 C 0.75607 0.11455 0.07616 0.0
C364 C 0.7532 0.06032 0.01106 0.0
C365 C 0.75351 0.04765 0.06917 0.0
C366 C 0.74383 0.04889 0.94678 0.0
C367 C 0.74207 0.06105 0.88423 0.0
C368 C 0.72989 0.07293 0.88741 0.0
C369 C 0.7286 0.08463 0.82851 0.0
C370 C 0.73917 0.08432 0.76582 0.0
C371 C 0.75099 0.07225 0.76186 0.0
C372 C 0.75243 0.06063 0.82074 0.0
C373 C 0.68811 0.95077 0.03757 0.0
C374 C 0.69223 0.93881 0.98444 0.0
C375 C 0.70197 0.9745 0.04411 0.0
C376 C 0.72036 0.98684 0.99796 0.0
C377 C 0.72483 0.97495 0.94571 0.0
C378 C 0.71099 0.95117 0.9392 0.0
C379 C 0.73391 0.01226 1.00199 0.0
C380 C 0.73458 0.02506 0.94288 0.0
C381 C 0.7441 0.0238 0.06544 0.0
C382 C 0.7452 0.01137 0.12839 0.0
C383 C 0.75438 0.99673 0.1237 0.0
C384 C 0.75522 0.98492 0.18298 0.0
C385 C 0.74704 0.98772 0.24741 0.0
C386 C 0.73805 0.00236 0.25271 0.0
C387 C 0.73715 0.01419 0.19357 0.0
H388 H 0.74771 0.97856 0.29324 0.0
H389 H 0.73811 0.09335 0.72026 0.0
H390 H 0.74198 0.68693 0.84701 0.0
H391 H 0.72238 0.70889 0.86026 0.0
H392 H 0.70874 0.68857 0.07758 0.0
H393 H 0.7287 0.66686 0.0652 0.0
H394 H 0.67111 0.6843 0.00984 0.0
H395 H 0.75039 0.74171 0.03499 0.0
H396 H 0.79097 0.76352 0.99986 0.0
H397 H 0.77253 0.78602 0.81257 0.0
H398 H 0.73178 0.76406 0.8461 0.0
H399 H 0.63183 0.75643 0.12038 0.0
H400 H 0.6576 0.74103 0.10952 0.0
H401 H 0.67187 0.76445 0.89483 0.0
H402 H 0.64651 0.78063 0.90629 0.0
H403 H 0.70958 0.76761 0.95859 0.0
H404 H 0.63067 0.71017 0.93099 0.0
H405 H 0.58996 0.68868 0.96483 0.0
H406 H 0.60741 0.66587 0.15338 0.0
H407 H 0.6483 0.68754 0.12121 0.0
C408 C 0.735 0.68727 0.89785 0.0
C409 C 0.73704 0.6752 0.95517 0.0
C410 C 0.72377 0.69983 0.90526 0.0
C411 C 0.71437 0.70061 0.97012 0.0
C412 C 0.71592 0.68822 0.02707 0.0
C413 C 0.72721 0.6757 0.01978 0.0
C414 C 0.70259 0.71406 0.9783 0.0
C415 C 0.67962 0.70257 0.99957 0.0
C416 C 0.71351 0.73778 0.96289 0.0
C417 C 0.73801 0.75105 0.94272 0.0
C418 C 0.75497 0.75115 0.98602 0.0
C419 C 0.778 0.76357 0.96645 0.0
C420 C 0.78432 0.7761 0.90392 0.0
C421 C 0.76761 0.77628 0.86093 0.0
C422 C 0.74455 0.76386 0.88022 0.0
C423 C 0.64084 0.75873 0.0713 0.0
C424 C 0.63701 0.76947 0.01388 0.0
C425 C 0.65549 0.74985 0.06508 0.0
C426 C 0.66615 0.75102 1.00078 0.0
C427 C 0.66367 0.76321 0.94478 0.0
C428 C 0.64923 0.77247 0.95137 0.0
C429 C 0.67819 0.73787 0.99081 0.0
C430 C 0.70111 0.74935 0.96891 0.0
C431 C 0.6672 0.71407 1.00515 0.0
C432 C 0.64257 0.70063 0.02395 0.0
C433 C 0.62584 0.70066 0.97985 0.0
C434 C 0.60273 0.68845 0.99873 0.0
C435 C 0.59611 0.67595 0.06128 0.0
C436 C 0.61257 0.67558 0.10497 0.0
C437 C 0.63572 0.68781 0.08642 0.0
H438 H 0.57821 0.66652 0.07584 0.0
H439 H 0.80216 0.7857 0.88887 0.0
H440 H 0.06598 0.73905 0.06498 0.0
H441 H 0.0244 0.71776 0.07472 0.0
H442 H 0.01873 0.749 0.88382 0.0
H443 H 0.06056 0.77109 0.87477 0.0
H444 H 0.98531 0.74247 0.98338 0.0
H445 H 0.01496 0.69885 0.87236 0.0
H446 H 0.0402 0.68234 0.86152 0.0
H447 H 0.01246 0.64426 0.05194 0.0
H448 H 0.9873 0.66084 0.0645 0.0
H449 H 0.87032 0.65219 0.90764 0.0
H450 H 0.91098 0.68146 0.90206 0.0
H451 H 0.92449 0.65114 0.08213 0.0
H452 H 0.88422 0.62177 0.08728 0.0
H453 H 0.95395 0.65838 0.98068 0.0
H454 H 0.92432 0.70224 0.09241 0.0
H455 H 0.89925 0.71895 0.10325 0.0
H456 H 0.92644 0.75625 0.9113 0.0
H457 H 0.95147 0.73951 0.89882 0.0
C458 C 0.056 0.742 0.02614 0.0
C459 C 0.06665 0.75666 0.9687 0.0
C460 C 0.03218 0.72963 0.03149 0.0
C461 C 0.0185 0.73149 0.9793 0.0
C462 C 0.029 0.74722 0.92443 0.0
C463 C 0.05289 0.75968 0.91906 0.0
C464 C 0.99344 0.71542 0.97879 0.0
C465 C 0.97838 0.72408 0.98199 0.0
C466 C 0.98446 0.69144 0.97749 0.0
C467 C 0.9994 0.68125 0.96968 0.0
C468 C 0.01436 0.68708 0.91218 0.0
C469 C 0.02864 0.6777 0.9057 0.0
C470 C 0.02797 0.6623 0.9561 0.0
C471 C 0.01297 0.65621 0.01299 0.0
C472 C 0.99869 0.66559 0.01979 0.0
C473 C 0.88195 0.65189 0.94632 0.0
C474 C 0.87407 0.63459 0.99767 0.0
C475 C 0.90516 0.66868 0.94326 0.0
C476 C 0.92078 0.66856 0.99191 0.0
C477 C 0.91279 0.65154 0.0439 0.0
C478 C 0.88972 0.63475 0.04677 0.0
C479 C 0.94566 0.68531 0.98708 0.0
C480 C 0.96077 0.67675 0.9822 0.0
C481 C 0.95457 0.70931 0.98676 0.0
C482 C 0.93959 0.71943 0.9943 0.0
C483 C 0.92482 0.71386 0.0522 0.0
C484 C 0.91064 0.72336 0.05871 0.0
C485 C 0.9112 0.7386 0.00789 0.0
C486 C 0.92599 0.74442 0.95056 0.0
C487 C 0.94019 0.73494 0.94378 0.0
H488 H 0.90021 0.74594 0.01302 0.0
H489 H 0.03904 0.65505 0.95099 0.0
H490 H 0.20776 0.86617 0.92802 0.0
H491 H 0.21663 0.90621 0.92336 0.0
H492 H 0.26622 0.92342 0.08915 0.0
H493 H 0.2573 0.88379 0.09484 0.0
H494 H 0.24288 0.94547 0.10726 0.0
H495 H 0.28179 0.93164 0.915 0.0
H496 H 0.28296 0.91193 0.80741 0.0
H497 H 0.2402 0.93288 0.70143 0.0
H498 H 0.23853 0.95245 0.80881 0.0
H499 H 0.32915 0.06065 0.06783 0.0
H500 H 0.30514 0.01918 0.07616 0.0
H501 H 0.26309 0.01976 0.90633 0.0
H502 H 0.28697 0.06148 0.89811 0.0
H503 H 0.27513 0.98789 0.88501 0.0
H504 H 0.24203 0.00752 0.07331 0.0
H505 H 0.24135 0.02725 0.18137 0.0
H506 H 0.27321 0.99567 0.29552 0.0
H507 H 0.27439 0.97599 0.18792 0.0
C508 C 0.22031 0.87845 0.96408 0.0
C509 C 0.23196 0.8718 0.01133 0.0
C510 C 0.22543 0.90134 0.96118 0.0
C511 C 0.2423 0.91791 0.00539 0.0
C512 C 0.25316 0.91101 0.05452 0.0
C513 C 0.2481 0.88828 0.05737 0.0
C514 C 0.2499 0.94269 0.99862 0.0
C515 C 0.24996 0.95477 0.0587 0.0
C516 C 0.25857 0.95477 0.93481 0.0
C517 C 0.25981 0.94326 0.87009 0.0
C518 C 0.27252 0.93191 0.86887 0.0
C519 C 0.27328 0.92078 0.80794 0.0
C520 C 0.2616 0.92109 0.74769 0.0
C521 C 0.2492 0.93261 0.74818 0.0
C522 C 0.24834 0.94373 0.80905 0.0
C523 C 0.31448 0.05211 0.03331 0.0
C524 C 0.31002 0.06451 0.98238 0.0
C525 C 0.30076 0.02831 0.03803 0.0
C526 C 0.28215 0.0163 0.99226 0.0
C527 C 0.27736 0.02863 0.94219 0.0
C528 C 0.29108 0.05248 0.93747 0.0
C529 C 0.26874 0.99082 0.99426 0.0
C530 C 0.26761 0.9786 0.93327 0.0
C531 C 0.25914 0.97863 0.05734 0.0
C532 C 0.25842 0.99038 0.12235 0.0
C533 C 0.24904 0.0049 0.12133 0.0
C534 C 0.24854 0.01606 0.18253 0.0
C535 C 0.25727 0.01275 0.24524 0.0
C536 C 0.26646 0.99823 0.2469 0.0
C537 C 0.26702 0.98704 0.18583 0.0
H538 H 0.25687 0.0214 0.29257 0.0
H539 H 0.2622 0.91245 0.70058 0.0
H540 H 0.18498 0.72029 0.94986 0.0
H541 H 0.18099 0.68219 0.95406 0.0
H542 H 0.24845 0.71096 0.04433 0.0
H543 H 0.25254 0.74912 0.04096 0.0
H544 H 0.23967 0.67852 0.9369 0.0
H545 H 0.20508 0.68532 0.14911 0.0
H546 H 0.17898 0.69316 0.21871 0.0
H547 H 0.12113 0.63898 0.11206 0.0
H548 H 0.14693 0.63105 0.04099 0.0
H549 H 0.23049 0.57434 0.0625 0.0
H550 H 0.23672 0.61317 0.04929 0.0
H551 H 0.16632 0.58537 0.98591 0.0
H552 H 0.15999 0.54659 0.99919 0.0
H553 H 0.17723 0.61789 0.07958 0.0
H554 H 0.21095 0.61064 0.86734 0.0
H555 H 0.23651 0.60284 0.79475 0.0
H556 H 0.29519 0.65742 0.8971 0.0
H557 H 0.26995 0.66535 0.97105 0.0
C558 C 0.19905 0.71857 0.97025 0.0
C559 C 0.21907 0.73779 0.99523 0.0
C560 C 0.1967 0.69677 0.97275 0.0
C561 C 0.21437 0.69373 0.9999 0.0
C562 C 0.23462 0.71293 0.02314 0.0
C563 C 0.23689 0.73472 0.02136 0.0
C564 C 0.21139 0.67043 0.00595 0.0
C565 C 0.22622 0.66531 0.96876 0.0
C566 C 0.19351 0.6531 0.04628 0.0
C567 C 0.17795 0.65775 0.08922 0.0
C568 C 0.1868 0.67521 0.14006 0.0
C569 C 0.17206 0.67965 0.17986 0.0
C570 C 0.14841 0.66662 0.16968 0.0
C571 C 0.13945 0.64908 0.11981 0.0
C572 C 0.15413 0.6446 0.07978 0.0
C573 C 0.21642 0.57651 0.04489 0.0
C574 C 0.19472 0.55734 0.03213 0.0
C575 C 0.22 0.59873 0.03737 0.0
C576 C 0.20202 0.60225 0.01615 0.0
C577 C 0.18043 0.58313 1.00265 0.0
C578 C 0.17683 0.56095 0.01044 0.0
C579 C 0.20543 0.62579 0.01012 0.0
C580 C 0.1907 0.63102 0.04754 0.0
C581 C 0.22331 0.64315 0.96961 0.0
C582 C 0.23854 0.63843 0.92527 0.0
C583 C 0.2293 0.62086 0.87481 0.0
C584 C 0.24373 0.61643 0.83333 0.0
C585 C 0.26746 0.62958 0.84145 0.0
C586 C 0.2768 0.64722 0.89095 0.0
C587 C 0.26244 0.6517 0.93263 0.0
H588 H 0.2786 0.62614 0.80927 0.0
H589 H 0.13702 0.67008 0.20056 0.0
H590 H 0.4651 0.18125 0.96319 0.0
H591 H 0.49879 0.17654 0.96567 0.0
H592 H 0.54021 0.24614 0.03748 0.0
H593 H 0.50659 0.25099 0.03562 0.0
H594 H 0.5614 0.23368 0.93149 0.0
H595 H 0.52338 0.20568 0.15327 0.0
H596 H 0.49045 0.18201 0.23008 0.0
H597 H 0.48394 0.1209 0.13823 0.0
H598 H 0.51664 0.14424 0.06004 0.0
H599 H 0.65747 0.22718 0.05931 0.0
H600 H 0.62486 0.23324 0.044 0.0
H601 H 0.58109 0.16126 1.00095 0.0
H602 H 0.61357 0.1551 0.01637 0.0
H603 H 0.56093 0.17511 0.0905 0.0
H604 H 0.59888 0.2022 0.87004 0.0
H605 H 0.63118 0.22525 0.79043 0.0
H606 H 0.63737 0.28706 0.87537 0.0
H607 H 0.60529 0.26438 0.95626 0.0
C608 C 0.4814 0.19562 0.97903 0.0
C609 C 0.48312 0.21645 0.9996 0.0
C610 C 0.50062 0.19287 0.98059 0.0
C611 C 0.52196 0.21094 1.00226 0.0
C612 C 0.5239 0.23198 0.02065 0.0
C613 C 0.50464 0.23467 0.01985 0.0
C614 C 0.54206 0.2076 0.00816 0.0
C615 C 0.56145 0.22107 0.96681 0.0
C616 C 0.54188 0.19078 0.05308 0.0
C617 C 0.5223 0.17671 0.10029 0.0
C618 C 0.5148 0.1872 0.14902 0.0
C619 C 0.4962 0.17384 0.19288 0.0
C620 C 0.48507 0.14997 0.1889 0.0
C621 C 0.49255 0.1394 0.14117 0.0
C622 C 0.51113 0.15268 0.0971 0.0
C623 C 0.64096 0.2127 0.04572 0.0
C624 C 0.63813 0.19064 0.03927 0.0
C625 C 0.62231 0.21618 0.03697 0.0
C626 C 0.60049 0.19773 0.02079 0.0
C627 C 0.5977 0.17575 0.01368 0.0
C628 C 0.61629 0.17225 0.02271 0.0
C629 C 0.58041 0.20114 0.01356 0.0
C630 C 0.56096 0.18769 0.0549 0.0
C631 C 0.58052 0.21789 0.96825 0.0
C632 C 0.59983 0.23159 0.91974 0.0
C633 C 0.60725 0.22072 0.87219 0.0
C634 C 0.6255 0.23371 0.82674 0.0
C635 C 0.63636 0.25761 0.82798 0.0
C636 C 0.62896 0.26855 0.87455 0.0
C637 C 0.61074 0.25563 0.92018 0.0
H638 H 0.65048 0.26764 0.79273 0.0
H639 H 0.47067 0.13965 0.22292 0.0
H640 H 0.42788 0.65618 0.0785 0.0
H641 H 0.38955 0.62286 0.06572 0.0
H642 H 0.41849 0.58501 0.97063 0.0
H643 H 0.45687 0.61836 0.98276 0.0
H644 H 0.38044 0.57702 0.9028 0.0
H645 H 0.40187 0.57699 0.14339 0.0
H646 H 0.41538 0.59346 0.26111 0.0
H647 H 0.3577 0.60353 0.28405 0.0
H648 H 0.34402 0.5874 0.166 0.0
H649 H 0.28316 0.46555 0.94841 0.0
H650 H 0.32131 0.49958 0.95031 0.0
H651 H 0.29359 0.53808 0.04851 0.0
H652 H 0.25557 0.50409 0.04822 0.0
H653 H 0.33123 0.54562 0.11359 0.0
H654 H 0.30953 0.5452 0.87295 0.0
H655 H 0.29604 0.52853 0.75543 0.0
H656 H 0.35403 0.51896 0.73267 0.0
H657 H 0.36771 0.5353 0.85051 0.0
C658 C 0.42608 0.64073 0.05503 0.0
C659 C 0.44542 0.63985 0.03208 0.0
C660 C 0.40416 0.62171 0.04771 0.0
C661 C 0.40116 0.6013 0.01818 0.0
C662 C 0.42038 0.60056 0.99358 0.0
C663 C 0.4423 0.61964 1.00046 0.0
C664 C 0.37803 0.58059 0.01433 0.0
C665 C 0.36978 0.56998 0.94901 0.0
C666 C 0.36393 0.57163 0.07439 0.0
C667 C 0.37205 0.58119 0.14559 0.0
C668 C 0.39216 0.58287 0.17334 0.0
C669 C 0.39983 0.59212 0.24015 0.0
C670 C 0.38744 0.59959 0.27997 0.0
C671 C 0.3673 0.59776 0.25312 0.0
C672 C 0.35957 0.58855 0.18628 0.0
C673 C 0.28516 0.4813 0.97002 0.0
C674 C 0.2663 0.48208 0.99814 0.0
C675 C 0.30698 0.50078 0.97081 0.0
C676 C 0.31031 0.52148 0.99895 0.0
C677 C 0.29146 0.52232 0.02657 0.0
C678 C 0.2697 0.50284 0.02619 0.0
C679 C 0.33352 0.54211 1.00196 0.0
C680 C 0.34184 0.55267 0.06727 0.0
C681 C 0.34765 0.55097 0.9419 0.0
C682 C 0.33952 0.54127 0.87085 0.0
C683 C 0.31932 0.53939 0.8431 0.0
C684 C 0.31165 0.53003 0.7764 0.0
C685 C 0.32414 0.52264 0.73668 0.0
C686 C 0.34436 0.52466 0.76353 0.0
C687 C 0.35209 0.53399 0.83025 0.0
H688 H 0.31817 0.51539 0.68506 0.0
H689 H 0.39341 0.60675 0.33168 0.0
H690 H 0.76689 0.42566 0.04764 0.0
H691 H 0.76011 0.3866 0.03481 0.0
H692 H 0.8307 0.4135 0.97559 0.0
H693 H 0.83746 0.45252 0.98683 0.0
H694 H 0.80154 0.37662 0.89482 0.0
H695 H 0.8141 0.3963 0.14105 0.0
H696 H 0.80653 0.40917 0.25383 0.0
H697 H 0.73765 0.35245 0.25278 0.0
H698 H 0.74474 0.33942 0.13943 0.0
H699 H 0.81735 0.28216 0.96291 0.0
H700 H 0.81938 0.31934 0.95897 0.0
H701 H 0.75044 0.28853 0.03911 0.0
H702 H 0.74855 0.25145 0.0453 0.0
H703 H 0.77627 0.32657 0.1054 0.0
H704 H 0.76393 0.30514 0.86331 0.0
H705 H 0.77109 0.29204 0.75033 0.0
H706 H 0.83832 0.35131 0.74166 0.0
H707 H 0.83169 0.36461 0.85512 0.0
C708 C 0.78086 0.42323 0.03087 0.0
C709 C 0.80276 0.44216 0.01886 0.0
C710 C 0.77701 0.40093 0.02402 0.0
C711 C 0.79498 0.39717 1.00508 0.0
C712 C 0.81662 0.41602 0.99049 0.0
C713 C 0.8205 0.43829 0.99754 0.0
C714 C 0.79161 0.37369 1.00337 0.0
C715 C 0.79618 0.3657 0.94092 0.0
C716 C 0.7841 0.35928 0.06312 0.0
C717 C 0.77987 0.36703 0.13143 0.0
C718 C 0.79729 0.38668 0.16461 0.0
C719 C 0.79309 0.39399 0.22867 0.0
C720 C 0.7716 0.38167 0.26035 0.0
C721 C 0.75428 0.36199 0.22812 0.0
C722 C 0.75838 0.35463 0.164 0.0
C723 C 0.80258 0.28327 0.97933 0.0
C724 C 0.78279 0.26384 1.00434 0.0
C725 C 0.80371 0.30453 0.97669 0.0
C726 C 0.78494 0.30671 0.99779 0.0
C727 C 0.76513 0.28729 0.02246 0.0
C728 C 0.76407 0.26608 0.02586 0.0
C729 C 0.78628 0.32939 0.99678 0.0
C730 C 0.78139 0.3373 0.05889 0.0
C731 C 0.79338 0.34365 0.93655 0.0
C732 C 0.79737 0.33577 0.86805 0.0
C733 C 0.7803 0.3153 0.83757 0.0
C734 C 0.78425 0.30785 0.77339 0.0
C735 C 0.80516 0.3208 0.73891 0.0
C736 C 0.82214 0.34128 0.76845 0.0
C737 C 0.81828 0.34879 0.83266 0.0
H738 H 0.80819 0.315 0.68924 0.0
H739 H 0.76838 0.38736 0.30995 0.0
H740 H 0.35023 0.78159 0.10338 0.0
H741 H 0.38295 0.77551 0.09169 0.0
H742 H 0.41571 0.83344 0.95167 0.0
H743 H 0.3829 0.83942 0.96238 0.0
H744 H 0.41946 0.79636 0.90616 0.0
H745 H 0.4321 0.84025 0.11659 0.0
H746 H 0.42218 0.84891 0.23268 0.0
H747 H 0.41532 0.78651 0.31539 0.0
H748 H 0.42486 0.77729 0.19941 0.0
H749 H 0.53348 0.81595 0.93087 0.0
H750 H 0.49934 0.8199 0.93273 0.0
H751 H 0.46734 0.76397 0.08013 0.0
H752 H 0.50135 0.76 0.07911 0.0
H753 H 0.46302 0.79994 0.12052 0.0
H754 H 0.45086 0.75614 0.91075 0.0
H755 H 0.46079 0.7474 0.7948 0.0
H756 H 0.4668 0.8093 0.71083 0.0
H757 H 0.45723 0.8186 0.82664 0.0
C758 C 0.36429 0.79285 0.06946 0.0
C759 C 0.3641 0.81107 0.03412 0.0
C760 C 0.383 0.78945 0.06317 0.0
C761 C 0.40182 0.80418 0.02137 0.0
C762 C 0.40137 0.82194 0.98433 0.0
C763 C 0.38273 0.82544 0.99094 0.0
C764 C 0.42229 0.8015 0.01809 0.0
C765 C 0.42917 0.7974 0.95283 0.0
C766 C 0.43464 0.80244 0.07927 0.0
C767 C 0.42895 0.80796 0.14911 0.0
C768 C 0.42827 0.82827 0.15937 0.0
C769 C 0.42276 0.8333 0.22518 0.0
C770 C 0.41805 0.81824 0.28133 0.0
C771 C 0.41892 0.79814 0.27181 0.0
C772 C 0.42439 0.79301 0.20606 0.0
C773 C 0.51915 0.80444 0.96351 0.0
C774 C 0.52013 0.78766 1.00479 0.0
C775 C 0.49962 0.80666 0.96427 0.0
C776 C 0.48075 0.7921 0.00617 0.0
C777 C 0.48171 0.77536 0.04741 0.0
C778 C 0.50116 0.7731 0.04657 0.0
C779 C 0.46019 0.79468 0.0086 0.0
C780 C 0.45331 0.79883 0.07378 0.0
C781 C 0.44786 0.79375 0.94734 0.0
C782 C 0.45357 0.78819 0.87758 0.0
C783 C 0.4545 0.768 0.86773 0.0
C784 C 0.46002 0.76292 0.802 0.0
C785 C 0.46449 0.77782 0.74553 0.0
C786 C 0.46337 0.7978 0.75465 0.0
C787 C 0.45788 0.80297 0.82032 0.0
H788 H 0.46876 0.77385 0.69468 0.0
H789 H 0.4138 0.82217 0.33225 0.0
H790 H 0.7173 0.54494 0.98641 0.0
H791 H 0.67838 0.51184 0.99044 0.0
H792 H 0.70598 0.46671 0.01445 0.0
H793 H 0.74473 0.49949 0.01078 0.0
H794 H 0.67068 0.45079 0.91698 0.0
H795 H 0.68662 0.48023 0.15271 0.0
H796 H 0.69792 0.51007 0.24326 0.0
H797 H 0.64053 0.5181 0.1892 0.0
H798 H 0.62918 0.48867 0.09704 0.0
H799 H 0.57391 0.349 0.04106 0.0
H800 H 0.61157 0.38315 0.02615 0.0
H801 H 0.58026 0.4254 0.02236 0.0
H802 H 0.54258 0.39137 0.03712 0.0
H803 H 0.61691 0.44378 0.10565 0.0
H804 H 0.60024 0.4138 0.87196 0.0
H805 H 0.58914 0.38448 0.77976 0.0
H806 H 0.64758 0.37764 0.8288 0.0
H807 H 0.65886 0.40671 0.92202 0.0
C808 C 0.71507 0.52797 0.99229 0.0
C809 C 0.73413 0.52489 0.99859 0.0
C810 C 0.69284 0.50909 0.99475 0.0
C811 C 0.68932 0.48684 1.00307 0.0
C812 C 0.70831 0.48372 0.00792 0.0
C813 C 0.73047 0.50253 0.00618 0.0
C814 C 0.66589 0.46675 0.00818 0.0
C815 C 0.65896 0.44913 0.95855 0.0
C816 C 0.65049 0.46487 0.0616 0.0
C817 C 0.6572 0.48243 0.11738 0.0
C818 C 0.67652 0.4885 0.15965 0.0
C819 C 0.68292 0.50531 0.21137 0.0
C820 C 0.66997 0.51598 0.22196 0.0
C821 C 0.65057 0.50984 0.18087 0.0
C822 C 0.64416 0.49311 0.12884 0.0
C823 C 0.57501 0.36553 0.03622 0.0
C824 C 0.55522 0.36744 0.04038 0.0
C825 C 0.59656 0.38505 0.02778 0.0
C826 C 0.59875 0.40686 0.02259 0.0
C827 C 0.57902 0.40879 0.0265 0.0
C828 C 0.55749 0.38931 0.03512 0.0
C829 C 0.62163 0.42769 0.01451 0.0
C830 C 0.62851 0.44545 0.0637 0.0
C831 C 0.63697 0.42973 0.96056 0.0
C832 C 0.63027 0.41228 0.90443 0.0
C833 C 0.61062 0.40591 0.86347 0.0
C834 C 0.60432 0.38936 0.81096 0.0
C835 C 0.61762 0.37916 0.79855 0.0
C836 C 0.63728 0.38553 0.83853 0.0
C837 C 0.64365 0.40206 0.89117 0.0
H838 H 0.61271 0.36635 0.75786 0.0
H839 H 0.67495 0.52897 0.26209 0.0
H840 H 0.1582 0.42086 0.78509 0.0
H841 H 0.16156 0.41867 0.65786 0.0
H842 H 0.22884 0.42702 0.68416 0.0
H843 H 0.22563 0.4295 0.81182 0.0
H844 H 0.22865 0.45368 0.57926 0.0
H845 H 0.1826 0.37489 0.64412 0.0
H846 H 0.15019 0.34141 0.70017 0.0
H847 H 0.1029 0.35069 0.57272 0.0
H848 H 0.13503 0.38446 0.51662 0.0
H849 H 0.24004 0.42125 0.23306 0.0
H850 H 0.23675 0.42335 0.36037 0.0
H851 H 0.1699 0.41609 0.3345 0.0
H852 H 0.17306 0.41378 0.20673 0.0
H853 H 0.16994 0.38881 0.43913 0.0
H854 H 0.21624 0.46771 0.37426 0.0
H855 H 0.24878 0.50106 0.3182 0.0
H856 H 0.2958 0.4914 0.44578 0.0
H857 H 0.26354 0.45774 0.50186 0.0
C858 C 0.17369 0.42216 0.76379 0.0
C859 C 0.19166 0.42536 0.80843 0.0
C860 C 0.17555 0.42081 0.691 0.0
C861 C 0.19537 0.42246 0.66117 0.0
C862 C 0.21338 0.42569 0.70578 0.0
C863 C 0.21151 0.42703 0.77873 0.0
C864 C 0.19738 0.42117 0.58347 0.0
C865 C 0.21598 0.43933 0.54879 0.0
C866 C 0.18058 0.40272 0.54321 0.0
C867 C 0.16122 0.38236 0.57666 0.0
C868 C 0.16528 0.36991 0.62844 0.0
C869 C 0.14696 0.35086 0.66016 0.0
C870 C 0.1245 0.34396 0.64016 0.0
C871 C 0.12031 0.35607 0.58824 0.0
C872 C 0.13857 0.37516 0.55642 0.0
C873 C 0.22466 0.42016 0.25447 0.0
C874 C 0.2068 0.41734 0.20991 0.0
C875 C 0.22283 0.42145 0.3273 0.0
C876 C 0.20315 0.42008 0.35725 0.0
C877 C 0.18525 0.4172 0.31275 0.0
C878 C 0.1871 0.41596 0.23975 0.0
C879 C 0.20119 0.42134 0.43496 0.0
C880 C 0.1826 0.40317 0.46963 0.0
C881 C 0.21802 0.43976 0.47521 0.0
C882 C 0.23747 0.46005 0.44177 0.0
C883 C 0.23352 0.47257 0.38996 0.0
C884 C 0.25192 0.49155 0.35824 0.0
C885 C 0.27435 0.49831 0.37828 0.0
C886 C 0.27842 0.48612 0.43023 0.0
C887 C 0.26008 0.4671 0.46203 0.0
H888 H 0.28857 0.51301 0.35367 0.0
H889 H 0.11034 0.3292 0.66477 0.0
H890 H 0.74075 0.15535 0.79773 0.0
H891 H 0.74625 0.15876 0.67042 0.0
H892 H 0.80186 0.2281 0.69538 0.0
H893 H 0.79622 0.22481 0.82299 0.0
H894 H 0.77402 0.22557 0.59068 0.0
H895 H 0.812 0.18466 0.65623 0.0
H896 H 0.81602 0.15405 0.71344 0.0
H897 H 0.76114 0.10356 0.5876 0.0
H898 H 0.75654 0.13387 0.5303 0.0
H899 H 0.81899 0.23999 0.24498 0.0
H900 H 0.81373 0.2363 0.37237 0.0
H901 H 0.75671 0.16779 0.34646 0.0
H902 H 0.76201 0.17138 0.21865 0.0
H903 H 0.78531 0.16985 0.45153 0.0
H904 H 0.74788 0.21169 0.38561 0.0
H905 H 0.74467 0.24289 0.32913 0.0
H906 H 0.79974 0.29235 0.45677 0.0
H907 H 0.80352 0.26146 0.51327 0.0
C908 C 0.75419 0.1713 0.7761 0.0
C909 C 0.76803 0.18982 0.82031 0.0
C910 C 0.75739 0.17321 0.70327 0.0
C911 C 0.7746 0.19364 0.67307 0.0
C912 C 0.78847 0.21217 0.71729 0.0
C913 C 0.78529 0.21025 0.79022 0.0
C914 C 0.77785 0.19575 0.59537 0.0
C915 C 0.77682 0.21357 0.56043 0.0
C916 C 0.78101 0.17982 0.55545 0.0
C917 C 0.78379 0.16153 0.58941 0.0
C918 C 0.80067 0.16702 0.64111 0.0
C919 C 0.80307 0.14972 0.6735 0.0
C920 C 0.78883 0.12688 0.65422 0.0
C921 C 0.77216 0.12127 0.60244 0.0
C922 C 0.76965 0.13851 0.56997 0.0
C923 C 0.80529 0.22416 0.2664 0.0
C924 C 0.79091 0.20598 0.22182 0.0
C925 C 0.80225 0.22209 0.33927 0.0
C926 C 0.7847 0.20182 0.36921 0.0
C927 C 0.77037 0.18359 0.3247 0.0
C928 C 0.77335 0.18568 0.25167 0.0
C929 C 0.78147 0.19967 0.44689 0.0
C930 C 0.7825 0.18184 0.48182 0.0
C931 C 0.77844 0.21566 0.48688 0.0
C932 C 0.77613 0.23427 0.45318 0.0
C933 C 0.75943 0.22923 0.40123 0.0
C934 C 0.75749 0.24686 0.36927 0.0
C935 C 0.77203 0.26959 0.38921 0.0
C936 C 0.78851 0.27474 0.4413 0.0
C937 C 0.79055 0.25717 0.47334 0.0
H938 H 0.7705 0.28322 0.36442 0.0
H939 H 0.79075 0.11353 0.67929 0.0
H940 H 0.58005 0.73974 0.78795 0.0
H941 H 0.58251 0.74546 0.66061 0.0
H942 H 0.57309 0.80377 0.68614 0.0
H943 H 0.5704 0.79794 0.81374 0.0
H944 H 0.54724 0.77707 0.57935 0.0
H945 H 0.62564 0.81068 0.64948 0.0
H946 H 0.65881 0.8119 0.70834 0.0
H947 H 0.65129 0.75615 0.58046 0.0
H948 H 0.61783 0.75435 0.52155 0.0
H949 H 0.58147 0.82265 0.23467 0.0
H950 H 0.57895 0.81704 0.3621 0.0
H951 H 0.58705 0.75791 0.33712 0.0
H952 H 0.58968 0.76355 0.20943 0.0
H953 H 0.61362 0.78517 0.4436 0.0
H954 H 0.53514 0.75173 0.37335 0.0
H955 H 0.50198 0.75064 0.31491 0.0
H956 H 0.50977 0.8064 0.44326 0.0
H957 H 0.54323 0.80808 0.50174 0.0
C958 C 0.57854 0.7538 0.76643 0.0
C959 C 0.57504 0.76839 0.81087 0.0
C960 C 0.58003 0.75711 0.69357 0.0
C961 C 0.57819 0.77519 0.66347 0.0
C962 C 0.57455 0.78971 0.70789 0.0
C963 C 0.5731 0.78641 0.78085 0.0
C964 C 0.57995 0.77883 0.58577 0.0
C965 C 0.56192 0.77917 0.54986 0.0
C966 C 0.59884 0.78107 0.54672 0.0
C967 C 0.61909 0.78223 0.58158 0.0
C968 C 0.63095 0.79856 0.63427 0.0
C969 C 0.64982 0.79937 0.66759 0.0
C970 C 0.65711 0.78407 0.64828 0.0
C971 C 0.6456 0.76797 0.59544 0.0
C972 C 0.62669 0.76706 0.56202 0.0
C973 C 0.58268 0.80844 0.25633 0.0
C974 C 0.58578 0.79355 0.212 0.0
C975 C 0.58116 0.80519 0.32923 0.0
C976 C 0.58263 0.78693 0.35948 0.0
C977 C 0.58588 0.77212 0.31521 0.0
C978 C 0.5873 0.77532 0.2422 0.0
C979 C 0.5809 0.78339 0.4372 0.0
C980 C 0.59895 0.78308 0.47311 0.0
C981 C 0.56204 0.78122 0.47625 0.0
C982 C 0.54185 0.78018 0.44143 0.0
C983 C 0.5299 0.76389 0.38873 0.0
C984 C 0.51103 0.76314 0.35565 0.0
C985 C 0.50381 0.77848 0.37523 0.0
C986 C 0.51541 0.79456 0.42807 0.0
C987 C 0.53432 0.7954 0.46123 0.0
H988 H 0.48919 0.77788 0.34957 0.0
H989 H 0.67172 0.78472 0.67416 0.0
H990 H 0.84289 0.57717 0.77333 0.0
H991 H 0.83943 0.57945 0.64606 0.0
H992 H 0.77463 0.57668 0.67374 0.0
H993 H 0.77793 0.57411 0.80135 0.0
H994 H 0.77225 0.54888 0.56818 0.0
H995 H 0.82285 0.62686 0.63316 0.0
H996 H 0.85664 0.65879 0.68962 0.0
H997 H 0.90098 0.64529 0.562 0.0
H998 H 0.86742 0.61302 0.50549 0.0
H999 H 0.76416 0.58334 0.22014 0.0
H1000 H 0.76673 0.58068 0.34767 0.0
H1001 H 0.83173 0.58359 0.32442 0.0
H1002 H 0.82932 0.58649 0.19667 0.0
H1003 H 0.83361 0.61154 0.42805 0.0
H1004 H 0.78285 0.53325 0.36394 0.0
H1005 H 0.74897 0.50117 0.30829 0.0
H1006 H 0.70482 0.51544 0.43406 0.0
H1007 H 0.73846 0.54782 0.48989 0.0
C1008 C 0.82793 0.57711 0.75231 0.0
C1009 C 0.8107 0.5755 0.79735 0.0
C1010 C 0.826 0.57849 0.67949 0.0
C1011 C 0.80686 0.57846 0.65003 0.0
C1012 C 0.78956 0.57675 0.69504 0.0
C1013 C 0.79151 0.57538 0.76799 0.0
C1014 C 0.80487 0.58004 0.57235 0.0
C1015 C 0.78552 0.56277 0.5377 0.0
C1016 C 0.82238 0.59787 0.53208 0.0
C1017 C 0.84261 0.61738 0.56556 0.0
C1018 C 0.8398 0.63058 0.6175 0.0
C1019 C 0.85891 0.64876 0.64947 0.0
C1020 C 0.88094 0.65403 0.62954 0.0
C1021 C 0.8839 0.64117 0.57745 0.0
C1022 C 0.86484 0.62294 0.54539 0.0
C1023 C 0.77896 0.58333 0.24219 0.0
C1024 C 0.79655 0.58516 0.19837 0.0
C1025 C 0.78038 0.58172 0.31516 0.0
C1026 C 0.79935 0.58175 0.34594 0.0
C1027 C 0.81693 0.58354 0.3021 0.0
C1028 C 0.8155 0.58512 0.22906 0.0
C1029 C 0.80104 0.58033 0.4238 0.0
C1030 C 0.82033 0.59765 0.45851 0.0
C1031 C 0.78345 0.56257 0.46409 0.0
C1032 C 0.76319 0.54309 0.43067 0.0
C1033 C 0.76592 0.52967 0.37936 0.0
C1034 C 0.74676 0.5114 0.34787 0.0
C1035 C 0.72476 0.50628 0.36761 0.0
C1036 C 0.72188 0.51942 0.41886 0.0
C1037 C 0.74098 0.53772 0.4505 0.0
H1038 H 0.70995 0.49209 0.34332 0.0
H1039 H 0.89572 0.6681 0.65436 0.0
H1040 H 0.24043 0.83125 0.20051 0.0
H1041 H 0.24556 0.83468 0.32813 0.0
H1042 H 0.18827 0.76626 0.35343 0.0
H1043 H 0.18278 0.76301 0.22592 0.0
H1044 H 0.186 0.79352 0.44888 0.0
H1045 H 0.24472 0.77869 0.3689 0.0
H1046 H 0.27766 0.78526 0.29609 0.0
H1047 H 0.31774 0.85262 0.38359 0.0
H1048 H 0.2849 0.84658 0.45613 0.0
H1049 H 0.20768 0.77768 0.80525 0.0
H1050 H 0.20211 0.77438 0.67773 0.0
H1051 H 0.25855 0.84325 0.65223 0.0
H1052 H 0.2644 0.84646 0.77962 0.0
H1053 H 0.26119 0.81568 0.55702 0.0
H1054 H 0.20221 0.83019 0.63759 0.0
H1055 H 0.16905 0.82343 0.70961 0.0
H1056 H 0.12932 0.7562 0.62103 0.0
H1057 H 0.16237 0.76241 0.54925 0.0
C1058 C 0.22894 0.81695 0.23332 0.0
C1059 C 0.21121 0.79685 0.20313 0.0
C1060 C 0.23194 0.81887 0.30636 0.0
C1061 C 0.21747 0.80063 0.35085 0.0
C1062 C 0.19966 0.7806 0.32057 0.0
C1063 C 0.19659 0.77872 0.24758 0.0
C1064 C 0.22089 0.80238 0.42875 0.0
C1065 C 0.20238 0.79807 0.47247 0.0
C1066 C 0.24235 0.80876 0.45998 0.0
C1067 C 0.26228 0.81226 0.41748 0.0
C1068 C 0.26052 0.79495 0.37233 0.0
C1069 C 0.27917 0.79858 0.33111 0.0
C1070 C 0.29976 0.81937 0.33507 0.0
C1071 C 0.30177 0.83653 0.3805 0.0
C1072 C 0.28315 0.83302 0.42172 0.0
C1073 C 0.21887 0.79212 0.77242 0.0
C1074 C 0.23649 0.81233 0.80249 0.0
C1075 C 0.21563 0.79026 0.69946 0.0
C1076 C 0.22977 0.80864 0.65497 0.0
C1077 C 0.24742 0.82881 0.68513 0.0
C1078 C 0.25069 0.83065 0.75805 0.0
C1079 C 0.22631 0.80684 0.57713 0.0
C1080 C 0.24481 0.81113 0.53342 0.0
C1081 C 0.20482 0.80038 0.54594 0.0
C1082 C 0.18484 0.7967 0.58848 0.0
C1083 C 0.18645 0.8139 0.63381 0.0
C1084 C 0.16767 0.81018 0.67457 0.0
C1085 C 0.1471 0.78939 0.66999 0.0
C1086 C 0.14527 0.77229 0.62456 0.0
C1087 C 0.16401 0.77591 0.58379 0.0
H1088 H 0.13257 0.78655 0.70147 0.0
H1089 H 0.31418 0.82215 0.30304 0.0
H1090 H 0.42768 0.20364 0.81593 0.0
H1091 H 0.42518 0.19796 0.68843 0.0
H1092 H 0.42226 0.25998 0.66089 0.0
H1093 H 0.4243 0.26543 0.78827 0.0
H1094 H 0.39267 0.22789 0.57545 0.0
H1095 H 0.47209 0.25789 0.63146 0.0
H1096 H 0.50474 0.25908 0.69377 0.0
H1097 H 0.48622 0.19257 0.61319 0.0
H1098 H 0.45326 0.19084 0.55114 0.0
H1099 H 0.41733 0.24278 0.20933 0.0
H1100 H 0.41939 0.24816 0.33699 0.0
H1101 H 0.42152 0.18572 0.36423 0.0
H1102 H 0.41983 0.1805 0.23678 0.0
H1103 H 0.45146 0.21793 0.44975 0.0
H1104 H 0.37214 0.188 0.39339 0.0
H1105 H 0.33946 0.18677 0.33117 0.0
H1106 H 0.35779 0.25316 0.41242 0.0
H1107 H 0.39078 0.25492 0.47437 0.0
C1108 C 0.42647 0.21603 0.78262 0.0
C1109 C 0.42639 0.23509 0.81205 0.0
C1110 C 0.42514 0.21283 0.70967 0.0
C1111 C 0.42391 0.22874 0.66459 0.0
C1112 C 0.42328 0.24749 0.69426 0.0
C1113 C 0.42452 0.25064 0.76714 0.0
C1114 C 0.42346 0.226 0.58664 0.0
C1115 C 0.40571 0.22601 0.54796 0.0
C1116 C 0.44016 0.22306 0.55046 0.0
C1117 C 0.46008 0.22414 0.58722 0.0
C1118 C 0.47489 0.24345 0.62742 0.0
C1119 C 0.49346 0.24423 0.66264 0.0
C1120 C 0.49751 0.22589 0.6576 0.0
C1121 C 0.48304 0.20675 0.61713 0.0
C1122 C 0.46442 0.20587 0.58188 0.0
C1123 C 0.41826 0.23023 0.24261 0.0
C1124 C 0.41824 0.21113 0.21307 0.0
C1125 C 0.41934 0.23326 0.31563 0.0
C1126 C 0.42028 0.21717 0.36063 0.0
C1127 C 0.42075 0.19835 0.33089 0.0
C1128 C 0.41971 0.19534 0.25797 0.0
C1129 C 0.42068 0.21984 0.43858 0.0
C1130 C 0.43842 0.21982 0.47725 0.0
C1131 C 0.40398 0.22278 0.47474 0.0
C1132 C 0.38406 0.22169 0.43793 0.0
C1133 C 0.3693 0.20241 0.39757 0.0
C1134 C 0.35071 0.20161 0.36241 0.0
C1135 C 0.34659 0.2199 0.36767 0.0
C1136 C 0.36102 0.23901 0.4083 0.0
C1137 C 0.37966 0.23992 0.44349 0.0
H1138 H 0.33219 0.21925 0.3404 0.0
H1139 H 0.51189 0.22652 0.68493 0.0
loop_
_geom_bond_atom_site_label_1
_geom_bond_atom_site_label_2
_geom_bond_distance
_geom_bond_site_symmetry_2
_ccdc_geom_bond_type
C0 Eu1 2.835 1_556 S
C0 C2 1.500 . S
C0 O20 1.257 . S
C0 O21 1.260 1_556 S
Eu1 C0 2.835 1_554 S
Eu1 O20 2.473 1_554 S
Eu1 O21 2.480 . S
Eu1 O22 2.430 . S
Eu1 O23 2.670 . S
Eu1 O24 2.394 . S
Eu1 O29 2.355 1_554 S
Eu1 O31 2.374 . S
C2 C0 1.500 . S
C2 C3 1.377 1_556 S
C2 C7 1.377 . S
C3 C2 1.377 1_554 S
C3 C4 1.395 . S
C3 H32 0.931 . S
C4 C3 1.395 . S
C4 C5 1.383 1_554 S
C4 H33 0.931 . S
C5 C4 1.383 1_556 S
C5 C6 1.394 . S
C6 C5 1.394 . S
C6 C7 1.378 . S
C6 H34 0.931 . S
C7 C2 1.377 . S
C7 C6 1.378 . S
C7 H35 0.931 . S
C8 O22 1.259 . S
C8 O23 1.270 . S
C9 O24 1.251 . S
C9 O25 1.252 . S
C10 Eu11 2.835 1_554 S
C10 C12 1.500 . S
C10 O26 1.257 . S
C10 O27 1.260 1_554 S
Eu11 C10 2.835 1_556 S
Eu11 O23 2.355 1_556 S
Eu11 O25 2.374 1_556 S
Eu11 O26 2.473 1_556 S
Eu11 O27 2.480 . S
Eu11 O28 2.430 . S
Eu11 O29 2.670 . S
Eu11 O30 2.394 . S
C12 C10 1.500 . S
C12 C13 1.377 1_554 S
C12 C17 1.377 . S
C13 C12 1.377 1_556 S
C13 C14 1.395 . S
C13 H36 0.931 . S
C14 C13 1.395 . S
C14 C15 1.383 1_556 S
C14 H37 0.931 . S
C15 C14 1.383 1_554 S
C15 C16 1.394 . S
C16 C15 1.394 . S
C16 C17 1.378 . S
C16 H38 0.931 . S
C17 C12 1.377 . S
C17 C16 1.378 . S
C17 H39 0.931 . S
C18 O28 1.259 . S
C18 O29 1.270 . S
C19 O30 1.251 . S
C19 O31 1.252 1_556 S
O20 C0 1.257 . S
O20 Eu1 2.473 1_556 S
O21 C0 1.260 1_554 S
O21 Eu1 2.480 . S
O22 Eu1 2.430 . S
O22 C8 1.259 . S
O23 Eu1 2.670 . S
O23 C8 1.270 . S
O23 Eu11 2.355 1_554 S
O24 Eu1 2.394 . S
O24 C9 1.251 . S
O25 C9 1.252 . S
O25 Eu11 2.374 1_554 S
O26 C10 1.257 . S
O26 Eu11 2.473 1_554 S
O27 C10 1.260 1_556 S
O27 Eu11 2.480 . S
O28 Eu11 2.430 . S
O28 C18 1.259 . S
O29 Eu1 2.355 1_556 S
O29 Eu11 2.670 . S
O29 C18 1.270 . S
O30 Eu11 2.394 . S
O30 C19 1.251 . S
O31 Eu1 2.374 . S
O31 C19 1.252 1_554 S
H32 C3 0.931 . S
H33 C4 0.931 . S
H34 C6 0.931 . S
H35 C7 0.931 . S
H36 C13 0.931 . S
H37 C14 0.931 . S
H38 C16 0.931 . S
H39 C17 0.931 . S
C40 Eu41 2.835 1_556 S
C40 C42 1.500 . S
C40 O60 1.257 . S
C40 O61 1.260 1_556 S
Eu41 C40 2.835 1_554 S
Eu41 O60 2.473 1_554 S
Eu41 O61 2.480 . S
Eu41 O62 2.430 . S
Eu41 O63 2.670 . S
Eu41 O64 2.394 . S
Eu41 O69 2.355 1_554 S
Eu41 O71 2.374 . S
C42 C40 1.500 . S
C42 C43 1.377 1_556 S
C42 C47 1.377 . S
C43 C42 1.377 1_554 S
C43 C44 1.395 . S
C43 H72 0.931 . S
C44 C43 1.395 . S
C44 C45 1.383 1_554 S
C44 H73 0.931 . S
C45 C44 1.383 1_556 S
C45 C46 1.394 . S
C46 C45 1.394 . S
C46 C47 1.378 . S
C46 H74 0.931 . S
C47 C42 1.377 . S
C47 C46 1.378 . S
C47 H75 0.931 . S
C48 O62 1.259 . S
C48 O63 1.270 . S
C49 O64 1.251 . S
C49 O65 1.252 . S
C50 Eu51 2.835 1_554 S
C50 C52 1.500 . S
C50 O66 1.257 . S
C50 O67 1.260 1_554 S
Eu51 C50 2.835 1_556 S
Eu51 O63 2.355 1_556 S
Eu51 O65 2.374 1_556 S
Eu51 O66 2.473 1_556 S
Eu51 O67 2.480 . S
Eu51 O68 2.430 . S
Eu51 O69 2.670 . S
Eu51 O70 2.394 . S
C52 C50 1.500 . S
C52 C53 1.377 1_554 S
C52 C57 1.377 . S
C53 C52 1.377 1_556 S
C53 C54 1.395 . S
C53 H76 0.931 . S
C54 C53 1.395 . S
C54 C55 1.383 1_556 S
C54 H77 0.931 . S
C55 C54 1.383 1_554 S
C55 C56 1.394 . S
C56 C55 1.394 . S
C56 C57 1.378 . S
C56 H78 0.931 . S
C57 C52 1.377 . S
C57 C56 1.378 . S
C57 H79 0.931 . S
C58 O68 1.259 . S
C58 O69 1.270 . S
C59 O70 1.251 . S
C59 O71 1.252 1_556 S
O60 C40 1.257 . S
O60 Eu41 2.473 1_556 S
O61 C40 1.260 1_554 S
O61 Eu41 2.480 . S
O62 Eu41 2.430 . S
O62 C48 1.259 . S
O63 Eu41 2.670 . S
O63 C48 1.270 . S
O63 Eu51 2.355 1_554 S
O64 Eu41 2.394 . S
O64 C49 1.251 . S
O65 C49 1.252 . S
O65 Eu51 2.374 1_554 S
O66 C50 1.257 . S
O66 Eu51 2.473 1_554 S
O67 C50 1.260 1_556 S
O67 Eu51 2.480 . S
O68 Eu51 2.430 . S
O68 C58 1.259 . S
O69 Eu41 2.355 1_556 S
O69 Eu51 2.670 . S
O69 C58 1.270 . S
O70 Eu51 2.394 . S
O70 C59 1.251 . S
O71 Eu41 2.374 . S
O71 C59 1.252 1_554 S
H72 C43 0.931 . S
H73 C44 0.931 . S
H74 C46 0.931 . S
H75 C47 0.931 . S
H76 C53 0.931 . S
H77 C54 0.931 . S
H78 C56 0.931 . S
H79 C57 0.931 . S
C80 Eu81 2.835 1_556 S
C80 C82 1.500 . S
C80 O100 1.257 . S
C80 O101 1.260 1_556 S
Eu81 C80 2.835 1_554 S
Eu81 O100 2.473 1_554 S
Eu81 O101 2.480 . S
Eu81 O102 2.430 . S
Eu81 O103 2.670 . S
Eu81 O104 2.394 . S
Eu81 O109 2.355 1_554 S
Eu81 O111 2.374 . S
C82 C80 1.500 . S
C82 C83 1.377 1_556 S
C82 C87 1.377 . S
C83 C82 1.377 1_554 S
C83 C84 1.395 . S
C83 H112 0.931 . S
C84 C83 1.395 . S
C84 C85 1.383 1_554 S
C84 H113 0.931 . S
C85 C84 1.383 1_556 S
C85 C86 1.394 . S
C86 C85 1.394 . S
C86 C87 1.378 . S
C86 H114 0.931 . S
C87 C82 1.377 . S
C87 C86 1.378 . S
C87 H115 0.931 . S
C88 O102 1.259 . S
C88 O103 1.270 . S
C89 O104 1.251 . S
C89 O105 1.252 . S
C90 Eu91 2.835 1_554 S
C90 C92 1.500 . S
C90 O106 1.257 . S
C90 O107 1.260 1_554 S
Eu91 C90 2.835 1_556 S
Eu91 O103 2.355 1_556 S
Eu91 O105 2.374 1_556 S
Eu91 O106 2.473 1_556 S
Eu91 O107 2.480 . S
Eu91 O108 2.430 . S
Eu91 O109 2.670 . S
Eu91 O110 2.394 . S
C92 C90 1.500 . S
C92 C93 1.377 1_554 S
C92 C97 1.377 . S
C93 C92 1.377 1_556 S
C93 C94 1.395 . S
C93 H116 0.931 . S
C94 C93 1.395 . S
C94 C95 1.383 1_556 S
C94 H117 0.931 . S
C95 C94 1.383 1_554 S
C95 C96 1.394 . S
C96 C95 1.394 . S
C96 C97 1.378 . S
C96 H118 0.931 . S
C97 C92 1.377 . S
C97 C96 1.378 . S
C97 H119 0.931 . S
C98 O108 1.259 . S
C98 O109 1.270 . S
C99 O110 1.251 . S
C99 O111 1.252 1_556 S
O100 C80 1.257 . S
O100 Eu81 2.473 1_556 S
O101 C80 1.260 1_554 S
O101 Eu81 2.480 . S
O102 Eu81 2.430 . S
O102 C88 1.259 . S
O103 Eu81 2.670 . S
O103 C88 1.270 . S
O103 Eu91 2.355 1_554 S
O104 Eu81 2.394 . S
O104 C89 1.251 . S
O105 C89 1.252 . S
O105 Eu91 2.374 1_554 S
O106 C90 1.257 . S
O106 Eu91 2.473 1_554 S
O107 C90 1.260 1_556 S
O107 Eu91 2.480 . S
O108 Eu91 2.430 . S
O108 C98 1.259 . S
O109 Eu81 2.355 1_556 S
O109 Eu91 2.670 . S
O109 C98 1.270 . S
O110 Eu91 2.394 . S
O110 C99 1.251 . S
O111 Eu81 2.374 . S
O111 C99 1.252 1_554 S
H112 C83 0.931 . S
H113 C84 0.931 . S
H114 C86 0.931 . S
H115 C87 0.931 . S
H116 C93 0.931 . S
H117 C94 0.931 . S
H118 C96 0.931 . S
H119 C97 0.931 . S
C120 Eu121 2.835 1_556 S
C120 C122 1.500 . S
C120 O140 1.257 . S
C120 O141 1.260 1_556 S
Eu121 C120 2.835 1_554 S
Eu121 O140 2.473 1_554 S
Eu121 O141 2.480 . S
Eu121 O142 2.430 . S
Eu121 O143 2.670 . S
Eu121 O144 2.394 . S
Eu121 O149 2.355 1_554 S
Eu121 O151 2.374 . S
C122 C120 1.500 . S
C122 C123 1.377 1_556 S
C122 C127 1.377 . S
C123 C122 1.377 1_554 S
C123 C124 1.395 . S
C123 H152 0.931 . S
C124 C123 1.395 . S
C124 C125 1.383 1_554 S
C124 H153 0.931 . S
C125 C124 1.383 1_556 S
C125 C126 1.394 . S
C126 C125 1.394 . S
C126 C127 1.378 . S
C126 H154 0.931 . S
C127 C122 1.377 . S
C127 C126 1.378 . S
C127 H155 0.931 . S
C128 O142 1.259 . S
C128 O143 1.270 . S
C129 O144 1.251 . S
C129 O145 1.252 . S
C130 Eu131 2.835 1_554 S
C130 C132 1.500 . S
C130 O146 1.257 . S
C130 O147 1.260 1_554 S
Eu131 C130 2.835 1_556 S
Eu131 O143 2.355 1_556 S
Eu131 O145 2.374 1_556 S
Eu131 O146 2.473 1_556 S
Eu131 O147 2.480 . S
Eu131 O148 2.430 . S
Eu131 O149 2.670 . S
Eu131 O150 2.394 . S
C132 C130 1.500 . S
C132 C133 1.377 1_554 S
C132 C137 1.377 . S
C133 C132 1.377 1_556 S
C133 C134 1.395 . S
C133 H156 0.931 . S
C134 C133 1.395 . S
C134 C135 1.383 1_556 S
C134 H157 0.931 . S
C135 C134 1.383 1_554 S
C135 C136 1.394 . S
C136 C135 1.394 . S
C136 C137 1.378 . S
C136 H158 0.931 . S
C137 C132 1.377 . S
C137 C136 1.378 . S
C137 H159 0.931 . S
C138 O148 1.259 . S
C138 O149 1.270 . S
C139 O150 1.251 . S
C139 O151 1.252 1_556 S
O140 C120 1.257 . S
O140 Eu121 2.473 1_556 S
O141 C120 1.260 1_554 S
O141 Eu121 2.480 . S
O142 Eu121 2.430 . S
O142 C128 1.259 . S
O143 Eu121 2.670 . S
O143 C128 1.270 . S
O143 Eu131 2.355 1_554 S
O144 Eu121 2.394 . S
O144 C129 1.251 . S
O145 C129 1.252 . S
O145 Eu131 2.374 1_554 S
O146 C130 1.257 . S
O146 Eu131 2.473 1_554 S
O147 C130 1.260 1_556 S
O147 Eu131 2.480 . S
O148 Eu131 2.430 . S
O148 C138 1.259 . S
O149 Eu121 2.355 1_556 S
O149 Eu131 2.670 . S
O149 C138 1.270 . S
O150 Eu131 2.394 . S
O150 C139 1.251 . S
O151 Eu121 2.374 . S
O151 C139 1.252 1_554 S
H152 C123 0.931 . S
H153 C124 0.931 . S
H154 C126 0.931 . S
H155 C127 0.931 . S
H156 C133 0.931 . S
H157 C134 0.931 . S
H158 C136 0.931 . S
H159 C137 0.931 . S
C160 Eu161 2.835 1_556 S
C160 C162 1.500 . S
C160 O180 1.257 . S
C160 O181 1.260 1_556 S
Eu161 C160 2.835 1_554 S
Eu161 O180 2.473 1_554 S
Eu161 O181 2.480 . S
Eu161 O182 2.430 . S
Eu161 O183 2.670 . S
Eu161 O184 2.394 . S
Eu161 O189 2.355 1_554 S
Eu161 O191 2.374 . S
C162 C160 1.500 . S
C162 C163 1.377 1_556 S
C162 C167 1.377 . S
C163 C162 1.377 1_554 S
C163 C164 1.395 . S
C163 H192 0.931 . S
C164 C163 1.395 . S
C164 C165 1.383 1_554 S
C164 H193 0.931 . S
C165 C164 1.383 1_556 S
C165 C166 1.394 . S
C166 C165 1.394 . S
C166 C167 1.378 . S
C166 H194 0.931 . S
C167 C162 1.377 . S
C167 C166 1.378 . S
C167 H195 0.931 . S
C168 O182 1.259 . S
C168 O183 1.270 . S
C169 O184 1.251 . S
C169 O185 1.252 . S
C170 Eu171 2.835 1_554 S
C170 C172 1.500 . S
C170 O186 1.257 . S
C170 O187 1.260 1_554 S
Eu171 C170 2.835 1_556 S
Eu171 O183 2.355 1_556 S
Eu171 O185 2.374 1_556 S
Eu171 O186 2.473 1_556 S
Eu171 O187 2.480 . S
Eu171 O188 2.430 . S
Eu171 O189 2.670 . S
Eu171 O190 2.394 . S
C172 C170 1.500 . S
C172 C173 1.377 1_554 S
C172 C177 1.377 . S
C173 C172 1.377 1_556 S
C173 C174 1.395 . S
C173 H196 0.931 . S
C174 C173 1.395 . S
C174 C175 1.383 1_556 S
C174 H197 0.931 . S
C175 C174 1.383 1_554 S
C175 C176 1.394 . S
C176 C175 1.394 . S
C176 C177 1.378 . S
C176 H198 0.931 . S
C177 C172 1.377 . S
C177 C176 1.378 . S
C177 H199 0.931 . S
C178 O188 1.259 . S
C178 O189 1.270 . S
C179 O190 1.251 . S
C179 O191 1.252 1_556 S
O180 C160 1.257 . S
O180 Eu161 2.473 1_556 S
O181 C160 1.260 1_554 S
O181 Eu161 2.480 . S
O182 Eu161 2.430 . S
O182 C168 1.259 . S
O183 Eu161 2.670 . S
O183 C168 1.270 . S
O183 Eu171 2.355 1_554 S
O184 Eu161 2.394 . S
O184 C169 1.251 . S
O185 C169 1.252 . S
O185 Eu171 2.374 1_554 S
O186 C170 1.257 . S
O186 Eu171 2.473 1_554 S
O187 C170 1.260 1_556 S
O187 Eu171 2.480 . S
O188 Eu171 2.430 . S
O188 C178 1.259 . S
O189 Eu161 2.355 1_556 S
O189 Eu171 2.670 . S
O189 C178 1.270 . S
O190 Eu171 2.394 . S
O190 C179 1.251 . S
O191 Eu161 2.374 . S
O191 C179 1.252 1_554 S
H192 C163 0.931 . S
H193 C164 0.931 . S
H194 C166 0.931 . S
H195 C167 0.931 . S
H196 C173 0.931 . S
H197 C174 0.931 . S
H198 C176 0.931 . S
H199 C177 0.931 . S
C200 Eu201 2.835 1_556 S
C200 C202 1.500 . S
C200 O220 1.257 . S
C200 O221 1.260 1_556 S
Eu201 C200 2.835 1_554 S
Eu201 O220 2.473 1_554 S
Eu201 O221 2.480 . S
Eu201 O222 2.430 . S
Eu201 O223 2.670 . S
Eu201 O224 2.394 . S
Eu201 O229 2.355 1_554 S
Eu201 O231 2.374 . S
C202 C200 1.500 . S
C202 C203 1.377 1_556 S
C202 C207 1.377 . S
C203 C202 1.377 1_554 S
C203 C204 1.395 . S
C203 H232 0.931 . S
C204 C203 1.395 . S
C204 C205 1.383 1_554 S
C204 H233 0.931 . S
C205 C204 1.383 1_556 S
C205 C206 1.394 . S
C206 C205 1.394 . S
C206 C207 1.378 . S
C206 H234 0.931 . S
C207 C202 1.377 . S
C207 C206 1.378 . S
C207 H235 0.931 . S
C208 O222 1.259 . S
C208 O223 1.270 . S
C209 O224 1.251 . S
C209 O225 1.252 . S
C210 Eu211 2.835 1_554 S
C210 C212 1.500 . S
C210 O226 1.257 . S
C210 O227 1.260 1_554 S
Eu211 C210 2.835 1_556 S
Eu211 O223 2.355 1_556 S
Eu211 O225 2.374 1_556 S
Eu211 O226 2.473 1_556 S
Eu211 O227 2.480 . S
Eu211 O228 2.430 . S
Eu211 O229 2.670 . S
Eu211 O230 2.394 . S
C212 C210 1.500 . S
C212 C213 1.377 1_554 S
C212 C217 1.377 . S
C213 C212 1.377 1_556 S
C213 C214 1.395 . S
C213 H236 0.931 . S
C214 C213 1.395 . S
C214 C215 1.383 1_556 S
C214 H237 0.931 . S
C215 C214 1.383 1_554 S
C215 C216 1.394 . S
C216 C215 1.394 . S
C216 C217 1.378 . S
C216 H238 0.931 . S
C217 C212 1.377 . S
C217 C216 1.378 . S
C217 H239 0.931 . S
C218 O228 1.259 . S
C218 O229 1.270 . S
C219 O230 1.251 . S
C219 O231 1.252 1_556 S
O220 C200 1.257 . S
O220 Eu201 2.473 1_556 S
O221 C200 1.260 1_554 S
O221 Eu201 2.480 . S
O222 Eu201 2.430 . S
O222 C208 1.259 . S
O223 Eu201 2.670 . S
O223 C208 1.270 . S
O223 Eu211 2.355 1_554 S
O224 Eu201 2.394 . S
O224 C209 1.251 . S
O225 C209 1.252 . S
O225 Eu211 2.374 1_554 S
O226 C210 1.257 . S
O226 Eu211 2.473 1_554 S
O227 C210 1.260 1_556 S
O227 Eu211 2.480 . S
O228 Eu211 2.430 . S
O228 C218 1.259 . S
O229 Eu201 2.355 1_556 S
O229 Eu211 2.670 . S
O229 C218 1.270 . S
O230 Eu211 2.394 . S
O230 C219 1.251 . S
O231 Eu201 2.374 . S
O231 C219 1.252 1_554 S
H232 C203 0.931 . S
H233 C204 0.931 . S
H234 C206 0.931 . S
H235 C207 0.931 . S
H236 C213 0.931 . S
H237 C214 0.931 . S
H238 C216 0.931 . S
H239 C217 0.931 . S
H240 C258 0.951 . S
H241 C260 0.951 . S
H242 C262 0.950 . S
H243 C263 0.950 . S
H244 C265 0.950 . S
H245 C268 0.950 . S
H246 C269 0.950 . S
H247 C271 0.950 . S
H248 C272 0.950 . S
H249 C273 0.951 . S
H250 C275 0.951 . S
H251 C277 0.950 . S
H252 C278 0.950 . S
H253 C280 0.950 . S
H254 C283 0.950 . S
H255 C284 0.950 . S
H256 C286 0.950 . S
H257 C287 0.950 . S
C258 H240 0.951 . S
C258 C259 1.366 . S
C258 C260 1.388 . S
C259 C258 1.366 . S
C259 C263 1.385 1_554 S
C260 H241 0.951 . S
C260 C258 1.388 . S
C260 C261 1.366 1_554 S
C261 C260 1.366 1_556 S
C261 C262 1.414 . S
C261 C264 1.499 . S
C262 H242 0.950 . S
C262 C261 1.414 . S
C262 C263 1.374 . S
C263 H243 0.950 . S
C263 C259 1.385 1_556 S
C263 C262 1.374 . S
C264 C261 1.499 . S
C264 C265 1.373 1_556 S
C264 C266 1.389 . S
C265 H244 0.950 . S
C265 C264 1.373 1_554 S
C265 C281 1.377 . S
C266 C264 1.389 . S
C266 C267 1.524 . S
C266 C280 1.377 . S
C267 C266 1.524 . S
C267 C268 1.397 . S
C267 C272 1.363 . S
C268 H245 0.950 . S
C268 C267 1.397 . S
C268 C269 1.334 . S
C269 H246 0.950 . S
C269 C268 1.334 . S
C269 C270 1.287 . S
C270 C269 1.287 . S
C270 C271 1.524 . S
C270 H289 0.913 . S
C271 H247 0.950 . S
C271 C270 1.524 . S
C271 C272 1.415 . S
C272 H248 0.950 . S
C272 C267 1.363 . S
C272 C271 1.415 . S
C273 H249 0.951 . S
C273 C274 1.366 . S
C273 C275 1.388 . S
C274 C273 1.366 . S
C274 C278 1.385 . S
C275 H250 0.951 . S
C275 C273 1.388 . S
C275 C276 1.366 . S
C276 C275 1.366 . S
C276 C277 1.414 . S
C276 C279 1.499 . S
C277 H251 0.950 . S
C277 C276 1.414 . S
C277 C278 1.374 . S
C278 H252 0.950 . S
C278 C274 1.385 . S
C278 C277 1.374 . S
C279 C276 1.499 . S
C279 C280 1.373 . S
C279 C281 1.389 1_556 S
C280 H253 0.950 . S
C280 C266 1.377 . S
C280 C279 1.373 . S
C281 C265 1.377 . S
C281 C279 1.389 1_554 S
C281 C282 1.524 . S
C282 C281 1.524 . S
C282 C283 1.397 . S
C282 C287 1.363 . S
C283 H254 0.950 . S
C283 C282 1.397 . S
C283 C284 1.334 . S
C284 H255 0.950 . S
C284 C283 1.334 . S
C284 C285 1.287 . S
C285 C284 1.287 . S
C285 C286 1.524 . S
C285 H288 0.999 . S
C286 H256 0.950 . S
C286 C285 1.524 . S
C286 C287 1.415 . S
C287 H257 0.950 . S
C287 C282 1.363 . S
C287 C286 1.415 . S
H288 C285 0.999 . S
H289 C270 0.913 . S
H290 C308 0.951 . S
H291 C310 0.951 . S
H292 C312 0.950 . S
H293 C313 0.950 . S
H294 C315 0.950 . S
H295 C318 0.950 . S
H296 C319 0.950 . S
H297 C321 0.950 . S
H298 C322 0.950 1_556 S
H299 C323 0.951 . S
H300 C325 0.951 . S
H301 C327 0.950 . S
H302 C328 0.950 . S
H303 C330 0.950 1_554 S
H304 C333 0.950 . S
H305 C334 0.950 . S
H306 C336 0.950 . S
H307 C337 0.937 1_554 S
C308 H290 0.951 . S
C308 C309 1.366 1_556 S
C308 C310 1.388 . S
C309 C308 1.366 1_554 S
C309 C313 1.385 . S
C310 H291 0.951 . S
C310 C308 1.388 . S
C310 C311 1.366 . S
C311 C310 1.366 . S
C311 C312 1.414 1_556 S
C311 C314 1.499 . S
C312 H292 0.950 . S
C312 C311 1.414 1_554 S
C312 C313 1.374 . S
C313 H293 0.950 . S
C313 C309 1.385 . S
C313 C312 1.374 . S
C314 C311 1.499 . S
C314 C315 1.373 . S
C314 C316 1.389 1_556 S
C315 H294 0.950 . S
C315 C314 1.373 . S
C315 C331 1.377 . S
C316 C314 1.389 1_554 S
C316 C317 1.524 . S
C316 C330 1.377 1_554 S
C317 C316 1.524 . S
C317 C318 1.397 . S
C317 C322 1.363 . S
C318 H295 0.950 . S
C318 C317 1.397 . S
C318 C319 1.334 . S
C319 H296 0.950 . S
C319 C318 1.334 . S
C319 C320 1.287 . S
C320 C319 1.287 . S
C320 C321 1.524 . S
C320 H339 0.913 . S
C321 H297 0.950 . S
C321 C320 1.524 . S
C321 C322 1.415 . S
C322 H298 0.950 1_554 S
C322 C317 1.363 . S
C322 C321 1.415 . S
C323 H299 0.951 . S
C323 C324 1.366 1_554 S
C323 C325 1.388 . S
C324 C323 1.366 1_556 S
C324 C328 1.385 . S
C325 H300 0.951 . S
C325 C323 1.388 . S
C325 C326 1.366 1_554 S
C326 C325 1.366 1_556 S
C326 C327 1.414 . S
C326 C329 1.499 1_655 S
C327 H301 0.950 . S
C327 C326 1.414 . S
C327 C328 1.374 . S
C328 H302 0.950 . S
C328 C324 1.385 . S
C328 C327 1.374 . S
C329 C326 1.499 1_455 S
C329 C330 1.373 . S
C329 C331 1.389 . S
C330 H303 0.950 1_556 S
C330 C316 1.377 1_556 S
C330 C329 1.373 . S
C331 C315 1.377 . S
C331 C329 1.389 . S
C331 C332 1.524 . S
C332 C331 1.524 . S
C332 C333 1.397 . S
C332 C337 1.363 . S
C333 H304 0.950 . S
C333 C332 1.397 . S
C333 C334 1.334 . S
C334 H305 0.950 . S
C334 C333 1.334 . S
C334 C335 1.287 . S
C335 C334 1.287 . S
C335 C336 1.524 . S
C335 H338 0.999 . S
C336 H306 0.950 . S
C336 C335 1.524 . S
C336 C337 1.415 . S
C337 H307 0.937 1_556 S
C337 C332 1.363 . S
C337 C336 1.415 . S
H338 C335 0.999 . S
H339 C320 0.913 . S
H340 C358 0.951 . S
H341 C360 0.951 . S
H342 C362 0.950 . S
H343 C363 0.950 . S
H344 C365 0.950 . S
H345 C368 0.950 . S
H346 C369 0.950 . S
H347 C371 0.950 . S
H348 C372 0.950 . S
H349 C373 0.951 . S
H350 C375 0.953 . S
H351 C377 0.963 . S
H352 C378 0.950 . S
H353 C380 0.950 . S
H354 C383 0.950 . S
H355 C384 0.950 . S
H356 C386 0.950 . S
H357 C387 0.950 . S
C358 H340 0.951 . S
C358 C359 1.366 1_556 S
C358 C360 1.388 . S
C359 C358 1.366 1_554 S
C359 C363 1.385 . S
C360 H341 0.951 . S
C360 C358 1.388 . S
C360 C361 1.366 . S
C361 C360 1.366 . S
C361 C362 1.414 1_556 S
C361 C364 1.499 . S
C362 H342 0.950 . S
C362 C361 1.414 1_554 S
C362 C363 1.374 . S
C363 H343 0.950 . S
C363 C359 1.385 . S
C363 C362 1.374 . S
C364 C361 1.499 . S
C364 C365 1.373 1_556 S
C364 C366 1.389 . S
C365 H344 0.950 . S
C365 C364 1.373 1_554 S
C365 C381 1.377 . S
C366 C364 1.389 . S
C366 C367 1.524 . S
C366 C380 1.377 . S
C367 C366 1.524 . S
C367 C368 1.397 . S
C367 C372 1.363 . S
C368 H345 0.950 . S
C368 C367 1.397 . S
C368 C369 1.334 . S
C369 H346 0.950 . S
C369 C368 1.334 . S
C369 C370 1.287 . S
C370 C369 1.287 . S
C370 C371 1.524 . S
C370 H389 0.913 . S
C371 H347 0.950 . S
C371 C370 1.524 . S
C371 C372 1.415 . S
C372 H348 0.950 . S
C372 C367 1.363 . S
C372 C371 1.415 . S
C373 H349 0.951 . S
C373 C374 1.366 . S
C373 C375 1.388 . S
C374 C373 1.366 . S
C374 C378 1.385 . S
C375 H350 0.953 . S
C375 C373 1.388 . S
C375 C376 1.366 . S
C376 C375 1.366 . S
C376 C377 1.414 . S
C376 C379 1.499 1_565 S
C377 H351 0.963 . S
C377 C376 1.414 . S
C377 C378 1.374 . S
C378 H352 0.950 . S
C378 C374 1.385 . S
C378 C377 1.374 . S
C379 C376 1.499 1_545 S
C379 C380 1.373 . S
C379 C381 1.389 1_556 S
C380 H353 0.950 . S
C380 C366 1.377 . S
C380 C379 1.373 . S
C381 C365 1.377 . S
C381 C379 1.389 1_554 S
C381 C382 1.524 . S
C382 C381 1.524 . S
C382 C383 1.397 . S
C382 C387 1.363 . S
C383 H354 0.950 . S
C383 C382 1.397 . S
C383 C384 1.334 1_545 S
C384 H355 0.950 . S
C384 C383 1.334 1_565 S
C384 C385 1.287 . S
C385 C384 1.287 . S
C385 C386 1.524 1_565 S
C385 H388 0.999 . S
C386 H356 0.950 . S
C386 C385 1.524 1_545 S
C386 C387 1.415 . S
C387 H357 0.950 . S
C387 C382 1.363 . S
C387 C386 1.415 . S
H388 C385 0.999 . S
H389 C370 0.913 . S
H390 C408 0.951 . S
H391 C410 0.951 . S
H392 C412 0.950 . S
H393 C413 0.950 . S
H394 C415 0.950 . S
H395 C418 0.950 . S
H396 C419 0.950 . S
H397 C421 0.950 . S
H398 C422 0.950 . S
H399 C423 0.951 . S
H400 C425 0.951 . S
H401 C427 0.950 . S
H402 C428 0.950 . S
H403 C430 0.950 . S
H404 C433 0.950 . S
H405 C434 0.950 . S
H406 C436 0.950 . S
H407 C437 0.950 . S
C408 H390 0.951 . S
C408 C409 1.366 . S
C408 C410 1.388 . S
C409 C408 1.366 . S
C409 C413 1.385 1_556 S
C410 H391 0.951 . S
C410 C408 1.388 . S
C410 C411 1.366 . S
C411 C410 1.366 . S
C411 C412 1.414 1_556 S
C411 C414 1.499 . S
C412 H392 0.950 . S
C412 C411 1.414 1_554 S
C412 C413 1.374 . S
C413 H393 0.950 . S
C413 C409 1.385 1_554 S
C413 C412 1.374 . S
C414 C411 1.499 . S
C414 C415 1.373 1_556 S
C414 C416 1.389 . S
C415 H394 0.950 . S
C415 C414 1.373 1_554 S
C415 C431 1.377 . S
C416 C414 1.389 . S
C416 C417 1.524 . S
C416 C430 1.377 . S
C417 C416 1.524 . S
C417 C418 1.397 . S
C417 C422 1.363 . S
C418 H395 0.950 . S
C418 C417 1.397 . S
C418 C419 1.334 . S
C419 H396 0.950 . S
C419 C418 1.334 . S
C419 C420 1.287 . S
C420 C419 1.287 . S
C420 C421 1.524 . S
C420 H439 0.913 . S
C421 H397 0.950 . S
C421 C420 1.524 . S
C421 C422 1.415 . S
C422 H398 0.950 . S
C422 C417 1.363 . S
C422 C421 1.415 . S
C423 H399 0.951 . S
C423 C424 1.366 . S
C423 C425 1.388 . S
C424 C423 1.366 . S
C424 C428 1.385 1_554 S
C425 H400 0.951 . S
C425 C423 1.388 . S
C425 C426 1.366 1_554 S
C426 C425 1.366 1_556 S
C426 C427 1.414 . S
C426 C429 1.499 . S
C427 H401 0.950 . S
C427 C426 1.414 . S
C427 C428 1.374 . S
C428 H402 0.950 . S
C428 C424 1.385 1_556 S
C428 C427 1.374 . S
C429 C426 1.499 . S
C429 C430 1.373 . S
C429 C431 1.389 1_556 S
C430 H403 0.950 . S
C430 C416 1.377 . S
C430 C429 1.373 . S
C431 C415 1.377 . S
C431 C429 1.389 1_554 S
C431 C432 1.524 . S
C432 C431 1.524 . S
C432 C433 1.397 . S
C432 C437 1.363 . S
C433 H404 0.950 . S
C433 C432 1.397 . S
C433 C434 1.334 . S
C434 H405 0.950 . S
C434 C433 1.334 . S
C434 C435 1.287 . S
C435 C434 1.287 . S
C435 C436 1.524 . S
C435 H438 0.999 . S
C436 H406 0.950 . S
C436 C435 1.524 . S
C436 C437 1.415 . S
C437 H407 0.950 . S
C437 C432 1.363 . S
C437 C436 1.415 . S
H438 C435 0.999 . S
H439 C420 0.913 . S
H440 C458 0.951 . S
H441 C460 0.951 . S
H442 C462 0.950 . S
H443 C463 0.950 . S
H444 C465 0.950 . S
H445 C468 0.950 . S
H446 C469 0.950 . S
H447 C471 0.950 . S
H448 C472 0.950 . S
H449 C473 0.951 . S
H450 C475 0.951 . S
H451 C477 0.950 . S
H452 C478 0.950 . S
H453 C480 0.950 1_554 S
H454 C483 0.950 . S
H455 C484 0.950 . S
H456 C486 0.950 . S
H457 C487 0.950 . S
C458 H440 0.951 . S
C458 C459 1.366 1_554 S
C458 C460 1.388 . S
C459 C458 1.366 1_556 S
C459 C463 1.385 . S
C460 H441 0.951 . S
C460 C458 1.388 . S
C460 C461 1.366 1_554 S
C461 C460 1.366 1_556 S
C461 C462 1.414 . S
C461 C464 1.499 1_455 S
C462 H442 0.950 . S
C462 C461 1.414 . S
C462 C463 1.374 . S
C463 H443 0.950 . S
C463 C459 1.385 . S
C463 C462 1.374 . S
C464 C461 1.499 1_655 S
C464 C465 1.373 . S
C464 C466 1.389 . S
C465 H444 0.950 . S
C465 C464 1.373 . S
C465 C481 1.377 . S
C466 C464 1.389 . S
C466 C467 1.524 . S
C466 C480 1.377 . S
C467 C466 1.524 . S
C467 C468 1.397 1_655 S
C467 C472 1.363 1_556 S
C468 H445 0.950 . S
C468 C467 1.397 1_455 S
C468 C469 1.334 . S
C469 H446 0.950 . S
C469 C468 1.334 . S
C469 C470 1.287 . S
C470 C469 1.287 . S
C470 C471 1.524 1_556 S
C470 H489 0.913 . S
C471 H447 0.950 . S
C471 C470 1.524 1_554 S
C471 C472 1.415 1_455 S
C472 H448 0.950 . S
C472 C467 1.363 1_554 S
C472 C471 1.415 1_655 S
C473 H449 0.951 . S
C473 C474 1.366 1_556 S
C473 C475 1.388 . S
C474 C473 1.366 1_554 S
C474 C478 1.385 . S
C475 H450 0.951 . S
C475 C473 1.388 . S
C475 C476 1.366 . S
C476 C475 1.366 . S
C476 C477 1.414 1_556 S
C476 C479 1.499 . S
C477 H451 0.950 . S
C477 C476 1.414 1_554 S
C477 C478 1.374 . S
C478 H452 0.950 . S
C478 C474 1.385 . S
C478 C477 1.374 . S
C479 C476 1.499 . S
C479 C480 1.373 . S
C479 C481 1.389 . S
C480 H453 0.950 1_556 S
C480 C466 1.377 . S
C480 C479 1.373 . S
C481 C465 1.377 . S
C481 C479 1.389 . S
C481 C482 1.524 . S
C482 C481 1.524 . S
C482 C483 1.397 1_556 S
C482 C487 1.363 . S
C483 H454 0.950 . S
C483 C482 1.397 1_554 S
C483 C484 1.334 . S
C484 H455 0.950 . S
C484 C483 1.334 . S
C484 C485 1.287 1_554 S
C485 C484 1.287 1_556 S
C485 C486 1.524 . S
C485 H488 0.999 1_556 S
C486 H456 0.950 . S
C486 C485 1.524 . S
C486 C487 1.415 . S
C487 H457 0.950 . S
C487 C482 1.363 . S
C487 C486 1.415 . S
H488 C485 0.999 1_554 S
H489 C470 0.913 . S
H490 C508 0.951 . S
H491 C510 0.951 . S
H492 C512 0.950 . S
H493 C513 0.950 . S
H494 C515 0.950 . S
H495 C518 0.950 . S
H496 C519 0.950 . S
H497 C521 0.950 . S
H498 C522 0.950 . S
H499 C523 0.951 1_554 S
H500 C525 0.951 1_554 S
H501 C527 0.965 . S
H502 C528 0.950 . S
H503 C530 0.950 . S
H504 C533 0.950 . S
H505 C534 0.950 . S
H506 C536 0.950 . S
H507 C537 0.950 . S
C508 H490 0.951 . S
C508 C509 1.366 1_556 S
C508 C510 1.388 . S
C509 C508 1.366 1_554 S
C509 C513 1.385 . S
C510 H491 0.951 . S
C510 C508 1.388 . S
C510 C511 1.366 . S
C511 C510 1.366 . S
C511 C512 1.414 1_556 S
C511 C514 1.499 . S
C512 H492 0.950 . S
C512 C511 1.414 1_554 S
C512 C513 1.374 . S
C513 H493 0.950 . S
C513 C509 1.385 . S
C513 C512 1.374 . S
C514 C511 1.499 . S
C514 C515 1.373 1_556 S
C514 C516 1.389 . S
C515 H494 0.950 . S
C515 C514 1.373 1_554 S
C515 C531 1.377 . S
C516 C514 1.389 . S
C516 C517 1.524 . S
C516 C530 1.377 . S
C517 C516 1.524 . S
C517 C518 1.397 . S
C517 C522 1.363 . S
C518 H495 0.950 . S
C518 C517 1.397 . S
C518 C519 1.334 . S
C519 H496 0.950 . S
C519 C518 1.334 . S
C519 C520 1.287 . S
C520 C519 1.287 . S
C520 C521 1.524 . S
C520 H539 0.913 . S
C521 H497 0.950 . S
C521 C520 1.524 . S
C521 C522 1.415 . S
C522 H498 0.950 . S
C522 C517 1.363 . S
C522 C521 1.415 . S
C523 H499 0.951 1_556 S
C523 C524 1.366 . S
C523 C525 1.388 . S
C524 C523 1.366 . S
C524 C528 1.385 . S
C525 H500 0.951 1_556 S
C525 C523 1.388 . S
C525 C526 1.366 . S
C526 C525 1.366 . S
C526 C527 1.414 . S
C526 C529 1.499 1_545 S
C527 H501 0.965 . S
C527 C526 1.414 . S
C527 C528 1.374 . S
C528 H502 0.950 . S
C528 C524 1.385 . S
C528 C527 1.374 . S
C529 C526 1.499 1_565 S
C529 C530 1.373 . S
C529 C531 1.389 1_556 S
C530 H503 0.950 . S
C530 C516 1.377 . S
C530 C529 1.373 . S
C531 C515 1.377 . S
C531 C529 1.389 1_554 S
C531 C532 1.524 . S
C532 C531 1.524 . S
C532 C533 1.397 . S
C532 C537 1.363 . S
C533 H504 0.950 . S
C533 C532 1.397 . S
C533 C534 1.334 1_565 S
C534 H505 0.950 . S
C534 C533 1.334 1_545 S
C534 C535 1.287 . S
C535 C534 1.287 . S
C535 C536 1.524 1_545 S
C535 H538 0.999 . S
C536 H506 0.950 . S
C536 C535 1.524 1_565 S
C536 C537 1.415 . S
C537 H507 0.950 . S
C537 C532 1.363 . S
C537 C536 1.415 . S
H538 C535 0.999 . S
H539 C520 0.913 . S
H540 C558 0.951 . S
H541 C560 0.951 . S
H542 C562 0.950 . S
H543 C563 0.950 . S
H544 C565 0.950 . S
H545 C568 0.950 . S
H546 C569 0.950 . S
H547 C571 0.950 . S
H548 C572 0.950 . S
H549 C573 0.951 1_556 S
H550 C575 0.951 . S
H551 C577 0.950 . S
H552 C578 0.950 . S
H553 C580 0.950 . S
H554 C583 0.950 . S
H555 C584 0.950 . S
H556 C586 0.950 . S
H557 C587 0.950 . S
C558 H540 0.951 . S
C558 C559 1.363 1_554 S
C558 C560 1.388 . S
C559 C558 1.363 1_556 S
C559 C563 1.387 . S
C560 H541 0.951 . S
C560 C558 1.388 . S
C560 C561 1.366 . S
C561 C560 1.366 . S
C561 C562 1.414 1_554 S
C561 C564 1.499 . S
C562 H542 0.950 . S
C562 C561 1.414 1_556 S
C562 C563 1.374 . S
C563 H543 0.950 . S
C563 C559 1.387 . S
C563 C562 1.374 . S
C564 C561 1.499 . S
C564 C565 1.373 1_554 S
C564 C566 1.389 . S
C565 H544 0.950 . S
C565 C564 1.373 1_556 S
C565 C581 1.377 . S
C566 C564 1.389 . S
C566 C567 1.524 . S
C566 C580 1.377 . S
C567 C566 1.524 . S
C567 C568 1.397 . S
C567 C572 1.363 . S
C568 H545 0.950 . S
C568 C567 1.397 . S
C568 C569 1.334 . S
C569 H546 0.950 . S
C569 C568 1.334 . S
C569 C570 1.287 . S
C570 C569 1.287 . S
C570 C571 1.524 . S
C570 H589 0.913 . S
C571 H547 0.950 . S
C571 C570 1.524 . S
C571 C572 1.415 . S
C572 H548 0.950 . S
C572 C567 1.363 . S
C572 C571 1.415 . S
C573 H549 0.951 1_554 S
C573 C574 1.366 . S
C573 C575 1.388 1_554 S
C574 C573 1.366 . S
C574 C578 1.385 . S
C575 H550 0.951 . S
C575 C573 1.388 1_556 S
C575 C576 1.366 1_556 S
C576 C575 1.366 1_554 S
C576 C577 1.414 . S
C576 C579 1.499 . S
C577 H551 0.950 . S
C577 C576 1.414 . S
C577 C578 1.374 . S
C578 H552 0.950 . S
C578 C574 1.385 . S
C578 C577 1.374 . S
C579 C576 1.499 . S
C579 C580 1.373 . S
C579 C581 1.389 1_554 S
C580 H553 0.950 . S
C580 C566 1.377 . S
C580 C579 1.373 . S
C581 C565 1.377 . S
C581 C579 1.389 1_556 S
C581 C582 1.524 . S
C582 C581 1.524 . S
C582 C583 1.397 . S
C582 C587 1.363 . S
C583 H554 0.950 . S
C583 C582 1.397 . S
C583 C584 1.334 . S
C584 H555 0.950 . S
C584 C583 1.334 . S
C584 C585 1.287 . S
C585 C584 1.287 . S
C585 C586 1.524 . S
C585 H588 0.999 . S
C586 H556 0.950 . S
C586 C585 1.524 . S
C586 C587 1.415 . S
C587 H557 0.950 . S
C587 C582 1.363 . S
C587 C586 1.415 . S
H588 C585 0.999 . S
H589 C570 0.913 . S
H590 C608 0.951 . S
H591 C610 0.951 . S
H592 C612 0.950 . S
H593 C613 0.950 . S
H594 C615 0.950 . S
H595 C618 0.950 . S
H596 C619 0.950 . S
H597 C621 0.950 . S
H598 C622 0.950 . S
H599 C623 0.951 . S
H600 C625 0.951 . S
H601 C627 0.950 . S
H602 C628 0.950 . S
H603 C630 0.950 . S
H604 C633 0.950 . S
H605 C634 0.950 . S
H606 C636 0.950 . S
H607 C637 0.950 . S
C608 H590 0.951 . S
C608 C609 1.361 1_554 S
C608 C610 1.388 . S
C609 C608 1.361 1_556 S
C609 C613 1.389 . S
C610 H591 0.951 . S
C610 C608 1.388 . S
C610 C611 1.366 . S
C611 C610 1.366 . S
C611 C612 1.414 1_554 S
C611 C614 1.499 . S
C612 H592 0.950 . S
C612 C611 1.414 1_556 S
C612 C613 1.374 . S
C613 H593 0.950 . S
C613 C609 1.389 . S
C613 C612 1.374 . S
C614 C611 1.499 . S
C614 C615 1.373 1_554 S
C614 C616 1.389 . S
C615 H594 0.950 . S
C615 C614 1.373 1_556 S
C615 C631 1.377 . S
C616 C614 1.389 . S
C616 C617 1.524 . S
C616 C630 1.377 . S
C617 C616 1.524 . S
C617 C618 1.397 . S
C617 C622 1.363 . S
C618 H595 0.950 . S
C618 C617 1.397 . S
C618 C619 1.334 . S
C619 H596 0.950 . S
C619 C618 1.334 . S
C619 C620 1.287 . S
C620 C619 1.287 . S
C620 C621 1.524 . S
C620 H639 0.913 . S
C621 H597 0.950 . S
C621 C620 1.524 . S
C621 C622 1.415 . S
C622 H598 0.950 . S
C622 C617 1.363 . S
C622 C621 1.415 . S
C623 H599 0.951 . S
C623 C624 1.366 1_556 S
C623 C625 1.388 . S
C624 C623 1.366 1_554 S
C624 C628 1.385 . S
C625 H600 0.951 . S
C625 C623 1.388 . S
C625 C626 1.366 1_556 S
C626 C625 1.366 1_554 S
C626 C627 1.414 . S
C626 C629 1.499 . S
C627 H601 0.950 . S
C627 C626 1.414 . S
C627 C628 1.374 . S
C628 H602 0.950 . S
C628 C624 1.385 . S
C628 C627 1.374 . S
C629 C626 1.499 . S
C629 C630 1.373 . S
C629 C631 1.389 1_554 S
C630 H603 0.950 . S
C630 C616 1.377 . S
C630 C629 1.373 . S
C631 C615 1.377 . S
C631 C629 1.389 1_556 S
C631 C632 1.524 . S
C632 C631 1.524 . S
C632 C633 1.397 . S
C632 C637 1.363 . S
C633 H604 0.950 . S
C633 C632 1.397 . S
C633 C634 1.334 . S
C634 H605 0.950 . S
C634 C633 1.334 . S
C634 C635 1.287 . S
C635 C634 1.287 . S
C635 C636 1.524 . S
C635 H638 0.999 . S
C636 H606 0.950 . S
C636 C635 1.524 . S
C636 C637 1.415 . S
C637 H607 0.950 . S
C637 C632 1.363 . S
C637 C636 1.415 . S
H638 C635 0.999 . S
H639 C620 0.913 . S
H640 C658 0.951 . S
H641 C660 0.951 . S
H642 C662 0.950 . S
H643 C663 0.950 . S
H644 C665 0.950 . S
H645 C668 0.950 . S
H646 C669 0.950 . S
H647 C671 0.950 . S
H648 C672 0.950 . S
H649 C673 0.951 . S
H650 C675 0.951 . S
H651 C677 0.950 . S
H652 C678 0.950 . S
H653 C680 0.950 . S
H654 C683 0.950 . S
H655 C684 0.950 . S
H656 C686 0.950 . S
H657 C687 0.950 . S
C658 H640 0.951 . S
C658 C659 1.366 . S
C658 C660 1.388 . S
C659 C658 1.366 . S
C659 C663 1.385 . S
C660 H641 0.951 . S
C660 C658 1.388 . S
C660 C661 1.366 . S
C661 C660 1.366 . S
C661 C662 1.414 . S
C661 C664 1.499 . S
C662 H642 0.950 . S
C662 C661 1.414 . S
C662 C663 1.374 . S
C663 H643 0.950 . S
C663 C659 1.385 . S
C663 C662 1.374 . S
C664 C661 1.499 . S
C664 C665 1.373 1_554 S
C664 C666 1.389 . S
C665 H644 0.950 . S
C665 C664 1.373 1_556 S
C665 C681 1.377 . S
C666 C664 1.389 . S
C666 C667 1.524 . S
C666 C680 1.377 . S
C667 C666 1.524 . S
C667 C668 1.397 . S
C667 C672 1.363 . S
C668 H645 0.950 . S
C668 C667 1.397 . S
C668 C669 1.334 . S
C669 H646 0.950 . S
C669 C668 1.334 . S
C669 C670 1.287 . S
C670 C669 1.287 . S
C670 C671 1.524 . S
C670 H689 0.913 . S
C671 H647 0.950 . S
C671 C670 1.524 . S
C671 C672 1.415 . S
C672 H648 0.950 . S
C672 C667 1.363 . S
C672 C671 1.415 . S
C673 H649 0.951 . S
C673 C674 1.366 1_554 S
C673 C675 1.388 . S
C674 C673 1.366 1_556 S
C674 C678 1.385 . S
C675 H650 0.951 . S
C675 C673 1.388 . S
C675 C676 1.366 . S
C676 C675 1.366 . S
C676 C677 1.414 1_554 S
C676 C679 1.499 . S
C677 H651 0.950 . S
C677 C676 1.414 1_556 S
C677 C678 1.374 . S
C678 H652 0.950 . S
C678 C674 1.385 . S
C678 C677 1.374 . S
C679 C676 1.499 . S
C679 C680 1.373 . S
C679 C681 1.389 1_554 S
C680 H653 0.950 . S
C680 C666 1.377 . S
C680 C679 1.373 . S
C681 C665 1.377 . S
C681 C679 1.389 1_556 S
C681 C682 1.524 . S
C682 C681 1.524 . S
C682 C683 1.397 . S
C682 C687 1.363 . S
C683 H654 0.950 . S
C683 C682 1.397 . S
C683 C684 1.334 . S
C684 H655 0.950 . S
C684 C683 1.334 . S
C684 C685 1.287 . S
C685 C684 1.287 . S
C685 C686 1.524 . S
C685 H688 0.999 . S
C686 H656 0.950 . S
C686 C685 1.524 . S
C686 C687 1.415 . S
C687 H657 0.950 . S
C687 C682 1.363 . S
C687 C686 1.415 . S
H688 C685 0.999 . S
H689 C670 0.913 . S
H690 C708 0.951 1_556 S
H691 C710 0.951 1_556 S
H692 C712 0.950 . S
H693 C713 0.950 . S
H694 C715 0.950 . S
H695 C718 0.950 . S
H696 C719 0.950 . S
H697 C721 0.950 . S
H698 C722 0.950 . S
H699 C723 0.951 . S
H700 C725 0.951 . S
H701 C727 0.950 . S
H702 C728 0.950 . S
H703 C730 0.950 . S
H704 C733 0.950 . S
H705 C734 0.950 . S
H706 C736 0.950 . S
H707 C737 0.950 1_554 S
C708 H690 0.951 1_554 S
C708 C709 1.366 . S
C708 C710 1.388 . S
C709 C708 1.366 . S
C709 C713 1.385 . S
C710 H691 0.951 1_554 S
C710 C708 1.388 . S
C710 C711 1.366 . S
C711 C710 1.366 . S
C711 C712 1.414 . S
C711 C714 1.499 . S
C712 H692 0.950 . S
C712 C711 1.414 . S
C712 C713 1.374 . S
C713 H693 0.950 . S
C713 C709 1.385 . S
C713 C712 1.374 . S
C714 C711 1.499 . S
C714 C715 1.373 1_554 S
C714 C716 1.389 . S
C715 H694 0.950 . S
C715 C714 1.373 1_556 S
C715 C731 1.377 . S
C716 C714 1.389 . S
C716 C717 1.524 . S
C716 C730 1.377 . S
C717 C716 1.524 . S
C717 C718 1.397 . S
C717 C722 1.363 . S
C718 H695 0.950 . S
C718 C717 1.397 . S
C718 C719 1.334 . S
C719 H696 0.950 . S
C719 C718 1.334 . S
C719 C720 1.287 . S
C720 C719 1.287 . S
C720 C721 1.524 . S
C720 H739 0.913 . S
C721 H697 0.950 . S
C721 C720 1.524 . S
C721 C722 1.415 . S
C722 H698 0.950 . S
C722 C717 1.363 . S
C722 C721 1.415 . S
C723 H699 0.951 . S
C723 C724 1.364 1_554 S
C723 C725 1.388 . S
C724 C723 1.364 1_556 S
C724 C728 1.386 . S
C725 H700 0.951 . S
C725 C723 1.388 . S
C725 C726 1.366 . S
C726 C725 1.366 . S
C726 C727 1.414 1_554 S
C726 C729 1.499 . S
C727 H701 0.950 . S
C727 C726 1.414 1_556 S
C727 C728 1.374 . S
C728 H702 0.950 . S
C728 C724 1.386 . S
C728 C727 1.374 . S
C729 C726 1.499 . S
C729 C730 1.373 . S
C729 C731 1.389 1_554 S
C730 H703 0.950 . S
C730 C716 1.377 . S
C730 C729 1.373 . S
C731 C715 1.377 . S
C731 C729 1.389 1_556 S
C731 C732 1.524 . S
C732 C731 1.524 . S
C732 C733 1.397 . S
C732 C737 1.363 . S
C733 H704 0.950 . S
C733 C732 1.397 . S
C733 C734 1.334 . S
C734 H705 0.950 . S
C734 C733 1.334 . S
C734 C735 1.287 . S
C735 C734 1.287 . S
C735 C736 1.524 . S
C735 H738 0.999 . S
C736 H706 0.950 . S
C736 C735 1.524 . S
C736 C737 1.415 . S
C737 H707 0.950 1_556 S
C737 C732 1.363 . S
C737 C736 1.415 . S
H738 C735 0.999 . S
H739 C720 0.913 . S
H740 C758 0.951 . S
H741 C760 0.951 . S
H742 C762 0.950 . S
H743 C763 0.950 . S
H744 C765 0.950 . S
H745 C768 0.950 . S
H746 C769 0.950 . S
H747 C771 0.950 . S
H748 C772 0.950 . S
H749 C773 0.951 . S
H750 C775 0.951 . S
H751 C777 0.950 . S
H752 C778 0.950 . S
H753 C780 0.950 . S
H754 C783 0.950 1_554 S
H755 C784 0.950 . S
H756 C786 0.950 . S
H757 C787 0.950 . S
C758 H740 0.951 . S
C758 C759 1.366 . S
C758 C760 1.388 . S
C759 C758 1.366 . S
C759 C763 1.385 1_554 S
C760 H741 0.951 . S
C760 C758 1.388 . S
C760 C761 1.366 . S
C761 C760 1.366 . S
C761 C762 1.414 1_554 S
C761 C764 1.499 . S
C762 H742 0.950 . S
C762 C761 1.414 1_556 S
C762 C763 1.374 . S
C763 H743 0.950 . S
C763 C759 1.385 1_556 S
C763 C762 1.374 . S
C764 C761 1.499 . S
C764 C765 1.373 1_554 S
C764 C766 1.389 . S
C765 H744 0.950 . S
C765 C764 1.373 1_556 S
C765 C781 1.377 . S
C766 C764 1.389 . S
C766 C767 1.524 . S
C766 C780 1.377 . S
C767 C766 1.524 . S
C767 C768 1.397 . S
C767 C772 1.363 . S
C768 H745 0.950 . S
C768 C767 1.397 . S
C768 C769 1.334 . S
C769 H746 0.950 . S
C769 C768 1.334 . S
C769 C770 1.287 . S
C770 C769 1.287 . S
C770 C771 1.524 . S
C770 H789 0.913 . S
C771 H747 0.950 . S
C771 C770 1.524 . S
C771 C772 1.415 . S
C772 H748 0.950 . S
C772 C767 1.363 . S
C772 C771 1.415 . S
C773 H749 0.951 . S
C773 C774 1.370 . S
C773 C775 1.388 . S
C774 C773 1.370 . S
C774 C778 1.380 1_556 S
C775 H750 0.951 . S
C775 C773 1.388 . S
C775 C776 1.366 1_556 S
C776 C775 1.366 1_554 S
C776 C777 1.414 . S
C776 C779 1.499 . S
C777 H751 0.950 . S
C777 C776 1.414 . S
C777 C778 1.374 . S
C778 H752 0.950 . S
C778 C774 1.380 1_554 S
C778 C777 1.374 . S
C779 C776 1.499 . S
C779 C780 1.373 . S
C779 C781 1.389 1_554 S
C780 H753 0.950 . S
C780 C766 1.377 . S
C780 C779 1.373 . S
C781 C765 1.377 . S
C781 C779 1.389 1_556 S
C781 C782 1.524 . S
C782 C781 1.524 . S
C782 C783 1.397 . S
C782 C787 1.363 . S
C783 H754 0.950 1_556 S
C783 C782 1.397 . S
C783 C784 1.334 . S
C784 H755 0.950 . S
C784 C783 1.334 . S
C784 C785 1.287 . S
C785 C784 1.287 . S
C785 C786 1.524 . S
C785 H788 0.999 . S
C786 H756 0.950 . S
C786 C785 1.524 . S
C786 C787 1.415 . S
C787 H757 0.950 . S
C787 C782 1.363 . S
C787 C786 1.415 . S
H788 C785 0.999 . S
H789 C770 0.913 . S
H790 C808 0.951 . S
H791 C810 0.951 . S
H792 C812 0.950 . S
H793 C813 0.950 . S
H794 C815 0.950 . S
H795 C818 0.950 . S
H796 C819 0.950 . S
H797 C821 0.950 . S
H798 C822 0.950 . S
H799 C823 0.951 1_556 S
H800 C825 0.951 . S
H801 C827 0.950 . S
H802 C828 0.950 . S
H803 C830 0.950 . S
H804 C833 0.950 . S
H805 C834 0.950 . S
H806 C836 0.950 . S
H807 C837 0.950 . S
C808 H790 0.951 . S
C808 C809 1.363 1_554 S
C808 C810 1.388 . S
C809 C808 1.363 1_556 S
C809 C813 1.387 . S
C810 H791 0.951 . S
C810 C808 1.388 . S
C810 C811 1.366 . S
C811 C810 1.366 . S
C811 C812 1.414 1_554 S
C811 C814 1.499 . S
C812 H792 0.950 . S
C812 C811 1.414 1_556 S
C812 C813 1.374 . S
C813 H793 0.950 . S
C813 C809 1.387 . S
C813 C812 1.374 . S
C814 C811 1.499 . S
C814 C815 1.373 1_554 S
C814 C816 1.389 . S
C815 H794 0.950 . S
C815 C814 1.373 1_556 S
C815 C831 1.377 . S
C816 C814 1.389 . S
C816 C817 1.524 . S
C816 C830 1.377 . S
C817 C816 1.524 . S
C817 C818 1.397 . S
C817 C822 1.363 . S
C818 H795 0.950 . S
C818 C817 1.397 . S
C818 C819 1.334 . S
C819 H796 0.950 . S
C819 C818 1.334 . S
C819 C820 1.287 . S
C820 C819 1.287 . S
C820 C821 1.524 . S
C820 H839 0.913 . S
C821 H797 0.950 . S
C821 C820 1.524 . S
C821 C822 1.415 . S
C822 H798 0.950 . S
C822 C817 1.363 . S
C822 C821 1.415 . S
C823 H799 0.951 1_554 S
C823 C824 1.366 . S
C823 C825 1.388 1_554 S
C824 C823 1.366 . S
C824 C828 1.385 . S
C825 H800 0.951 . S
C825 C823 1.388 1_556 S
C825 C826 1.366 1_556 S
C826 C825 1.366 1_554 S
C826 C827 1.414 . S
C826 C829 1.499 . S
C827 H801 0.950 . S
C827 C826 1.414 . S
C827 C828 1.374 . S
C828 H802 0.950 . S
C828 C824 1.385 . S
C828 C827 1.374 . S
C829 C826 1.499 . S
C829 C830 1.373 . S
C829 C831 1.389 1_554 S
C830 H803 0.950 . S
C830 C816 1.377 . S
C830 C829 1.373 . S
C831 C815 1.377 . S
C831 C829 1.389 1_556 S
C831 C832 1.524 . S
C832 C831 1.524 . S
C832 C833 1.397 . S
C832 C837 1.363 . S
C833 H804 0.950 . S
C833 C832 1.397 . S
C833 C834 1.334 . S
C834 H805 0.950 . S
C834 C833 1.334 . S
C834 C835 1.287 . S
C835 C834 1.287 . S
C835 C836 1.524 . S
C835 H838 0.999 . S
C836 H806 0.950 . S
C836 C835 1.524 . S
C836 C837 1.415 . S
C837 H807 0.950 . S
C837 C832 1.363 . S
C837 C836 1.415 . S
H838 C835 0.999 . S
H839 C820 0.913 . S
H840 C858 0.951 . S
H841 C860 0.951 . S
H842 C862 0.950 . S
H843 C863 0.950 . S
H844 C865 0.950 . S
H845 C868 0.950 . S
H846 C869 0.950 . S
H847 C871 0.950 . S
H848 C872 0.950 . S
H849 C873 0.951 . S
H850 C875 0.951 . S
H851 C877 0.950 . S
H852 C878 0.950 . S
H853 C880 0.950 . S
H854 C883 0.950 . S
H855 C884 0.950 . S
H856 C886 0.950 . S
H857 C887 0.950 . S
C858 H840 0.951 . S
C858 C859 1.366 . S
C858 C860 1.388 . S
C859 C858 1.366 . S
C859 C863 1.385 . S
C860 H841 0.951 . S
C860 C858 1.388 . S
C860 C861 1.366 . S
C861 C860 1.366 . S
C861 C862 1.414 . S
C861 C864 1.499 . S
C862 H842 0.950 . S
C862 C861 1.414 . S
C862 C863 1.374 . S
C863 H843 0.950 . S
C863 C859 1.385 . S
C863 C862 1.374 . S
C864 C861 1.499 . S
C864 C865 1.373 . S
C864 C866 1.389 . S
C865 H844 0.950 . S
C865 C864 1.373 . S
C865 C881 1.377 . S
C866 C864 1.389 . S
C866 C867 1.524 . S
C866 C880 1.377 . S
C867 C866 1.524 . S
C867 C868 1.397 . S
C867 C872 1.363 . S
C868 H845 0.950 . S
C868 C867 1.397 . S
C868 C869 1.334 . S
C869 H846 0.950 . S
C869 C868 1.334 . S
C869 C870 1.287 . S
C870 C869 1.287 . S
C870 C871 1.524 . S
C870 H889 0.913 . S
C871 H847 0.950 . S
C871 C870 1.524 . S
C871 C872 1.415 . S
C872 H848 0.950 . S
C872 C867 1.363 . S
C872 C871 1.415 . S
C873 H849 0.951 . S
C873 C874 1.366 . S
C873 C875 1.388 . S
C874 C873 1.366 . S
C874 C878 1.385 . S
C875 H850 0.951 . S
C875 C873 1.388 . S
C875 C876 1.366 . S
C876 C875 1.366 . S
C876 C877 1.414 . S
C876 C879 1.499 . S
C877 H851 0.950 . S
C877 C876 1.414 . S
C877 C878 1.374 . S
C878 H852 0.950 . S
C878 C874 1.385 . S
C878 C877 1.374 . S
C879 C876 1.499 . S
C879 C880 1.373 . S
C879 C881 1.389 . S
C880 H853 0.950 . S
C880 C866 1.377 . S
C880 C879 1.373 . S
C881 C865 1.377 . S
C881 C879 1.389 . S
C881 C882 1.524 . S
C882 C881 1.524 . S
C882 C883 1.397 . S
C882 C887 1.363 . S
C883 H854 0.950 . S
C883 C882 1.397 . S
C883 C884 1.334 . S
C884 H855 0.950 . S
C884 C883 1.334 . S
C884 C885 1.287 . S
C885 C884 1.287 . S
C885 C886 1.524 . S
C885 H888 0.999 . S
C886 H856 0.950 . S
C886 C885 1.524 . S
C886 C887 1.415 . S
C887 H857 0.950 . S
C887 C882 1.363 . S
C887 C886 1.415 . S
H888 C885 0.999 . S
H889 C870 0.913 . S
H890 C908 0.951 . S
H891 C910 0.951 . S
H892 C912 0.950 . S
H893 C913 0.950 . S
H894 C915 0.950 . S
H895 C918 0.950 . S
H896 C919 0.950 . S
H897 C921 0.950 . S
H898 C922 0.950 . S
H899 C923 0.951 . S
H900 C925 0.951 . S
H901 C927 0.950 . S
H902 C928 0.950 . S
H903 C930 0.950 . S
H904 C933 0.950 . S
H905 C934 0.950 . S
H906 C936 0.950 . S
H907 C937 0.950 . S
C908 H890 0.951 . S
C908 C909 1.366 . S
C908 C910 1.388 . S
C909 C908 1.366 . S
C909 C913 1.385 . S
C910 H891 0.951 . S
C910 C908 1.388 . S
C910 C911 1.366 . S
C911 C910 1.366 . S
C911 C912 1.414 . S
C911 C914 1.499 . S
C912 H892 0.950 . S
C912 C911 1.414 . S
C912 C913 1.374 . S
C913 H893 0.950 . S
C913 C909 1.385 . S
C913 C912 1.374 . S
C914 C911 1.499 . S
C914 C915 1.373 . S
C914 C916 1.389 . S
C915 H894 0.950 . S
C915 C914 1.373 . S
C915 C931 1.377 . S
C916 C914 1.389 . S
C916 C917 1.524 . S
C916 C930 1.377 . S
C917 C916 1.524 . S
C917 C918 1.397 . S
C917 C922 1.363 . S
C918 H895 0.950 . S
C918 C917 1.397 . S
C918 C919 1.334 . S
C919 H896 0.950 . S
C919 C918 1.334 . S
C919 C920 1.287 . S
C920 C919 1.287 . S
C920 C921 1.524 . S
C920 H939 0.913 . S
C921 H897 0.950 . S
C921 C920 1.524 . S
C921 C922 1.415 . S
C922 H898 0.950 . S
C922 C917 1.363 . S
C922 C921 1.415 . S
C923 H899 0.951 . S
C923 C924 1.366 . S
C923 C925 1.388 . S
C924 C923 1.366 . S
C924 C928 1.385 . S
C925 H900 0.951 . S
C925 C923 1.388 . S
C925 C926 1.366 . S
C926 C925 1.366 . S
C926 C927 1.414 . S
C926 C929 1.499 . S
C927 H901 0.950 . S
C927 C926 1.414 . S
C927 C928 1.374 . S
C928 H902 0.950 . S
C928 C924 1.385 . S
C928 C927 1.374 . S
C929 C926 1.499 . S
C929 C930 1.373 . S
C929 C931 1.389 . S
C930 H903 0.950 . S
C930 C916 1.377 . S
C930 C929 1.373 . S
C931 C915 1.377 . S
C931 C929 1.389 . S
C931 C932 1.524 . S
C932 C931 1.524 . S
C932 C933 1.397 . S
C932 C937 1.363 . S
C933 H904 0.950 . S
C933 C932 1.397 . S
C933 C934 1.334 . S
C934 H905 0.950 . S
C934 C933 1.334 . S
C934 C935 1.287 . S
C935 C934 1.287 . S
C935 C936 1.524 . S
C935 H938 0.999 . S
C936 H906 0.950 . S
C936 C935 1.524 . S
C936 C937 1.415 . S
C937 H907 0.950 . S
C937 C932 1.363 . S
C937 C936 1.415 . S
H938 C935 0.999 . S
H939 C920 0.913 . S
H940 C958 0.951 . S
H941 C960 0.951 . S
H942 C962 0.950 . S
H943 C963 0.950 . S
H944 C965 0.950 . S
H945 C968 0.950 . S
H946 C969 0.950 . S
H947 C971 0.950 . S
H948 C972 0.950 . S
H949 C973 0.951 . S
H950 C975 0.951 . S
H951 C977 0.950 . S
H952 C978 0.950 . S
H953 C980 0.950 . S
H954 C983 0.950 . S
H955 C984 0.950 . S
H956 C986 0.950 . S
H957 C987 0.950 . S
C958 H940 0.951 . S
C958 C959 1.366 . S
C958 C960 1.388 . S
C959 C958 1.366 . S
C959 C963 1.385 . S
C960 H941 0.951 . S
C960 C958 1.388 . S
C960 C961 1.366 . S
C961 C960 1.366 . S
C961 C962 1.414 . S
C961 C964 1.499 . S
C962 H942 0.950 . S
C962 C961 1.414 . S
C962 C963 1.374 . S
C963 H943 0.950 . S
C963 C959 1.385 . S
C963 C962 1.374 . S
C964 C961 1.499 . S
C964 C965 1.373 . S
C964 C966 1.389 . S
C965 H944 0.950 . S
C965 C964 1.373 . S
C965 C981 1.377 . S
C966 C964 1.389 . S
C966 C967 1.524 . S
C966 C980 1.377 . S
C967 C966 1.524 . S
C967 C968 1.397 . S
C967 C972 1.363 . S
C968 H945 0.950 . S
C968 C967 1.397 . S
C968 C969 1.334 . S
C969 H946 0.950 . S
C969 C968 1.334 . S
C969 C970 1.287 . S
C970 C969 1.287 . S
C970 C971 1.524 . S
C970 H989 0.913 . S
C971 H947 0.950 . S
C971 C970 1.524 . S
C971 C972 1.415 . S
C972 H948 0.950 . S
C972 C967 1.363 . S
C972 C971 1.415 . S
C973 H949 0.951 . S
C973 C974 1.366 . S
C973 C975 1.388 . S
C974 C973 1.366 . S
C974 C978 1.385 . S
C975 H950 0.951 . S
C975 C973 1.388 . S
C975 C976 1.366 . S
C976 C975 1.366 . S
C976 C977 1.414 . S
C976 C979 1.499 . S
C977 H951 0.950 . S
C977 C976 1.414 . S
C977 C978 1.374 . S
C978 H952 0.950 . S
C978 C974 1.385 . S
C978 C977 1.374 . S
C979 C976 1.499 . S
C979 C980 1.373 . S
C979 C981 1.389 . S
C980 H953 0.950 . S
C980 C966 1.377 . S
C980 C979 1.373 . S
C981 C965 1.377 . S
C981 C979 1.389 . S
C981 C982 1.524 . S
C982 C981 1.524 . S
C982 C983 1.397 . S
C982 C987 1.363 . S
C983 H954 0.950 . S
C983 C982 1.397 . S
C983 C984 1.334 . S
C984 H955 0.950 . S
C984 C983 1.334 . S
C984 C985 1.287 . S
C985 C984 1.287 . S
C985 C986 1.524 . S
C985 H988 0.999 . S
C986 H956 0.950 . S
C986 C985 1.524 . S
C986 C987 1.415 . S
C987 H957 0.950 . S
C987 C982 1.363 . S
C987 C986 1.415 . S
H988 C985 0.999 . S
H989 C970 0.913 . S
H990 C1008 0.951 . S
H991 C1010 0.951 . S
H992 C1012 0.950 . S
H993 C1013 0.950 . S
H994 C1015 0.950 . S
H995 C1018 0.950 . S
H996 C1019 0.950 . S
H997 C1021 0.950 . S
H998 C1022 0.950 . S
H999 C1023 0.951 . S
H1000 C1025 0.951 . S
H1001 C1027 0.950 . S
H1002 C1028 0.950 . S
H1003 C1030 0.950 . S
H1004 C1033 0.950 . S
H1005 C1034 0.950 . S
H1006 C1036 0.950 . S
H1007 C1037 0.950 . S
C1008 H990 0.951 . S
C1008 C1009 1.366 . S
C1008 C1010 1.388 . S
C1009 C1008 1.366 . S
C1009 C1013 1.385 . S
C1010 H991 0.951 . S
C1010 C1008 1.388 . S
C1010 C1011 1.366 . S
C1011 C1010 1.366 . S
C1011 C1012 1.414 . S
C1011 C1014 1.499 . S
C1012 H992 0.950 . S
C1012 C1011 1.414 . S
C1012 C1013 1.374 . S
C1013 H993 0.950 . S
C1013 C1009 1.385 . S
C1013 C1012 1.374 . S
C1014 C1011 1.499 . S
C1014 C1015 1.373 . S
C1014 C1016 1.389 . S
C1015 H994 0.950 . S
C1015 C1014 1.373 . S
C1015 C1031 1.377 . S
C1016 C1014 1.389 . S
C1016 C1017 1.524 . S
C1016 C1030 1.377 . S
C1017 C1016 1.524 . S
C1017 C1018 1.397 . S
C1017 C1022 1.363 . S
C1018 H995 0.950 . S
C1018 C1017 1.397 . S
C1018 C1019 1.334 . S
C1019 H996 0.950 . S
C1019 C1018 1.334 . S
C1019 C1020 1.287 . S
C1020 C1019 1.287 . S
C1020 C1021 1.524 . S
C1020 H1039 0.913 . S
C1021 H997 0.950 . S
C1021 C1020 1.524 . S
C1021 C1022 1.415 . S
C1022 H998 0.950 . S
C1022 C1017 1.363 . S
C1022 C1021 1.415 . S
C1023 H999 0.951 . S
C1023 C1024 1.366 . S
C1023 C1025 1.388 . S
C1024 C1023 1.366 . S
C1024 C1028 1.385 . S
C1025 H1000 0.951 . S
C1025 C1023 1.388 . S
C1025 C1026 1.366 . S
C1026 C1025 1.366 . S
C1026 C1027 1.414 . S
C1026 C1029 1.499 . S
C1027 H1001 0.950 . S
C1027 C1026 1.414 . S
C1027 C1028 1.374 . S
C1028 H1002 0.950 . S
C1028 C1024 1.385 . S
C1028 C1027 1.374 . S
C1029 C1026 1.499 . S
C1029 C1030 1.373 . S
C1029 C1031 1.389 . S
C1030 H1003 0.950 . S
C1030 C1016 1.377 . S
C1030 C1029 1.373 . S
C1031 C1015 1.377 . S
C1031 C1029 1.389 . S
C1031 C1032 1.524 . S
C1032 C1031 1.524 . S
C1032 C1033 1.397 . S
C1032 C1037 1.363 . S
C1033 H1004 0.950 . S
C1033 C1032 1.397 . S
C1033 C1034 1.334 . S
C1034 H1005 0.950 . S
C1034 C1033 1.334 . S
C1034 C1035 1.287 . S
C1035 C1034 1.287 . S
C1035 C1036 1.524 . S
C1035 H1038 0.999 . S
C1036 H1006 0.950 . S
C1036 C1035 1.524 . S
C1036 C1037 1.415 . S
C1037 H1007 0.950 . S
C1037 C1032 1.363 . S
C1037 C1036 1.415 . S
H1038 C1035 0.999 . S
H1039 C1020 0.913 . S
H1040 C1058 0.951 . S
H1041 C1060 0.951 . S
H1042 C1062 0.950 . S
H1043 C1063 0.950 . S
H1044 C1065 0.950 . S
H1045 C1068 0.950 . S
H1046 C1069 0.950 . S
H1047 C1071 0.950 . S
H1048 C1072 0.950 . S
H1049 C1073 0.951 . S
H1050 C1075 0.951 . S
H1051 C1077 0.950 . S
H1052 C1078 0.950 . S
H1053 C1080 0.950 . S
H1054 C1083 0.950 . S
H1055 C1084 0.950 . S
H1056 C1086 0.950 . S
H1057 C1087 0.950 . S
C1058 H1040 0.951 . S
C1058 C1059 1.366 . S
C1058 C1060 1.388 . S
C1059 C1058 1.366 . S
C1059 C1063 1.385 . S
C1060 H1041 0.951 . S
C1060 C1058 1.388 . S
C1060 C1061 1.366 . S
C1061 C1060 1.366 . S
C1061 C1062 1.414 . S
C1061 C1064 1.499 . S
C1062 H1042 0.950 . S
C1062 C1061 1.414 . S
C1062 C1063 1.374 . S
C1063 H1043 0.950 . S
C1063 C1059 1.385 . S
C1063 C1062 1.374 . S
C1064 C1061 1.499 . S
C1064 C1065 1.373 . S
C1064 C1066 1.389 . S
C1065 H1044 0.950 . S
C1065 C1064 1.373 . S
C1065 C1081 1.377 . S
C1066 C1064 1.389 . S
C1066 C1067 1.524 . S
C1066 C1080 1.377 . S
C1067 C1066 1.524 . S
C1067 C1068 1.397 . S
C1067 C1072 1.363 . S
C1068 H1045 0.950 . S
C1068 C1067 1.397 . S
C1068 C1069 1.334 . S
C1069 H1046 0.950 . S
C1069 C1068 1.334 . S
C1069 C1070 1.287 . S
C1070 C1069 1.287 . S
C1070 C1071 1.524 . S
C1070 H1089 0.913 . S
C1071 H1047 0.950 . S
C1071 C1070 1.524 . S
C1071 C1072 1.415 . S
C1072 H1048 0.950 . S
C1072 C1067 1.363 . S
C1072 C1071 1.415 . S
C1073 H1049 0.951 . S
C1073 C1074 1.366 . S
C1073 C1075 1.388 . S
C1074 C1073 1.366 . S
C1074 C1078 1.385 . S
C1075 H1050 0.951 . S
C1075 C1073 1.388 . S
C1075 C1076 1.366 . S
C1076 C1075 1.366 . S
C1076 C1077 1.414 . S
C1076 C1079 1.499 . S
C1077 H1051 0.950 . S
C1077 C1076 1.414 . S
C1077 C1078 1.374 . S
C1078 H1052 0.950 . S
C1078 C1074 1.385 . S
C1078 C1077 1.374 . S
C1079 C1076 1.499 . S
C1079 C1080 1.373 . S
C1079 C1081 1.389 . S
C1080 H1053 0.950 . S
C1080 C1066 1.377 . S
C1080 C1079 1.373 . S
C1081 C1065 1.377 . S
C1081 C1079 1.389 . S
C1081 C1082 1.524 . S
C1082 C1081 1.524 . S
C1082 C1083 1.397 . S
C1082 C1087 1.363 . S
C1083 H1054 0.950 . S
C1083 C1082 1.397 . S
C1083 C1084 1.334 . S
C1084 H1055 0.950 . S
C1084 C1083 1.334 . S
C1084 C1085 1.287 . S
C1085 C1084 1.287 . S
C1085 C1086 1.524 . S
C1085 H1088 0.999 . S
C1086 H1056 0.950 . S
C1086 C1085 1.524 . S
C1086 C1087 1.415 . S
C1087 H1057 0.950 . S
C1087 C1082 1.363 . S
C1087 C1086 1.415 . S
H1088 C1085 0.999 . S
H1089 C1070 0.913 . S
H1090 C1108 0.951 . S
H1091 C1110 0.951 . S
H1092 C1112 0.950 . S
H1093 C1113 0.950 . S
H1094 C1115 0.950 . S
H1095 C1118 0.950 . S
H1096 C1119 0.950 . S
H1097 C1121 0.950 . S
H1098 C1122 0.950 . S
H1099 C1123 0.951 . S
H1100 C1125 0.951 . S
H1101 C1127 0.950 . S
H1102 C1128 0.950 . S
H1103 C1130 0.950 . S
H1104 C1133 0.950 . S
H1105 C1134 0.950 . S
H1106 C1136 0.950 . S
H1107 C1137 0.950 . S
C1108 H1090 0.951 . S
C1108 C1109 1.366 . S
C1108 C1110 1.388 . S
C1109 C1108 1.366 . S
C1109 C1113 1.385 . S
C1110 H1091 0.951 . S
C1110 C1108 1.388 . S
C1110 C1111 1.366 . S
C1111 C1110 1.366 . S
C1111 C1112 1.414 . S
C1111 C1114 1.499 . S
C1112 H1092 0.950 . S
C1112 C1111 1.414 . S
C1112 C1113 1.374 . S
C1113 H1093 0.950 . S
C1113 C1109 1.385 . S
C1113 C1112 1.374 . S
C1114 C1111 1.499 . S
C1114 C1115 1.373 . S
C1114 C1116 1.389 . S
C1115 H1094 0.950 . S
C1115 C1114 1.373 . S
C1115 C1131 1.377 . S
C1116 C1114 1.389 . S
C1116 C1117 1.524 . S
C1116 C1130 1.377 . S
C1117 C1116 1.524 . S
C1117 C1118 1.397 . S
C1117 C1122 1.363 . S
C1118 H1095 0.950 . S
C1118 C1117 1.397 . S
C1118 C1119 1.334 . S
C1119 H1096 0.950 . S
C1119 C1118 1.334 . S
C1119 C1120 1.287 . S
C1120 C1119 1.287 . S
C1120 C1121 1.524 . S
C1120 H1139 0.913 . S
C1121 H1097 0.950 . S
C1121 C1120 1.524 . S
C1121 C1122 1.415 . S
C1122 H1098 0.950 . S
C1122 C1117 1.363 . S
C1122 C1121 1.415 . S
C1123 H1099 0.951 . S
C1123 C1124 1.366 . S
C1123 C1125 1.388 . S
C1124 C1123 1.366 . S
C1124 C1128 1.385 . S
C1125 H1100 0.951 . S
C1125 C1123 1.388 . S
C1125 C1126 1.366 . S
C1126 C1125 1.366 . S
C1126 C1127 1.414 . S
C1126 C1129 1.499 . S
C1127 H1101 0.950 . S
C1127 C1126 1.414 . S
C1127 C1128 1.374 . S
C1128 H1102 0.950 . S
C1128 C1124 1.385 . S
C1128 C1127 1.374 . S
C1129 C1126 1.499 . S
C1129 C1130 1.373 . S
C1129 C1131 1.389 . S
C1130 H1103 0.950 . S
C1130 C1116 1.377 . S
C1130 C1129 1.373 . S
C1131 C1115 1.377 . S
C1131 C1129 1.389 . S
C1131 C1132 1.524 . S
C1132 C1131 1.524 . S
C1132 C1133 1.397 . S
C1132 C1137 1.363 . S
C1133 H1104 0.950 . S
C1133 C1132 1.397 . S
C1133 C1134 1.334 . S
C1134 H1105 0.950 . S
C1134 C1133 1.334 . S
C1134 C1135 1.287 . S
C1135 C1134 1.287 . S
C1135 C1136 1.524 . S
C1135 H1138 0.999 . S
C1136 H1106 0.950 . S
C1136 C1135 1.524 . S
C1136 C1137 1.415 . S
C1137 H1107 0.950 . S
C1137 C1132 1.363 . S
C1137 C1136 1.415 . S
H1138 C1135 0.999 . S
H1139 C1120 0.913 . S
C259 C209 1.592 . S
C274 C5 1.494 . S
C309 C9 1.593 . S
C324 C45 1.493 . S
C359 C49 1.592 . S
C374 C85 1.494 . S
C409 C125 1.493 . S
C424 C89 1.593 . S
C459 C165 1.495 . S
C474 C129 1.592 . S
C509 C169 1.593 . S
C524 C205 1.494 . S
C559 C179 1.978 . S
C574 C15 1.978 . S
C609 C219 1.978 . S
C624 C55 1.978 . S
C659 C95 1.978 . S
C674 C19 1.978 . S
C709 C135 1.978 . S
C724 C59 1.978 . S
C759 C175 1.978 . S
C774 C99 1.978 . S
C809 C139 1.979 . S
C824 C215 1.978 . S
C859 C18 1.442 . S
C874 C8 1.442 . S
C909 C58 1.442 . S
C924 C48 1.442 . S
C959 C98 1.442 . S
C974 C88 1.442 . S
C1009 C138 1.442 . S
C1024 C128 1.442 . S
C1059 C168 1.442 . S
C1074 C178 1.442 . S
C1109 C218 1.442 . S
C1124 C208 1.442 . S
