# Generated by pormake.
# Topology fnr, (5)-cn, num edge types: 1
# Building blocks:
#     Node 0, Type 0, BuildingBlock: XOMCOT_clean_sbu_0, # of connection points: 5
#     Node 1, Type 0, BuildingBlock: XOMCOT_clean_sbu_0, # of connection points: 5
#     Node 2, Type 0, BuildingBlock: XOMCOT_clean_sbu_0, # of connection points: 5
#     Node 3, Type 0, BuildingBlock: XOMCOT_clean_sbu_0, # of connection points: 5
#     Node 4, Type 0, BuildingBlock: XOMCOT_clean_sbu_0, # of connection points: 5
#     Node 5, Type 0, BuildingBlock: XOMCOT_clean_sbu_0, # of connection points: 5
#     Node 6, Type 0, BuildingBlock: XOMCOT_clean_sbu_0, # of connection points: 5
#     Node 7, Type 0, BuildingBlock: XOMCOT_clean_sbu_0, # of connection points: 5
#     Node 8, Type 0, BuildingBlock: XOMCOT_clean_sbu_0, # of connection points: 5
#     Node 9, Type 0, BuildingBlock: XOMCOT_clean_sbu_0, # of connection points: 5
#     Node 10, Type 0, BuildingBlock: XOMCOT_clean_sbu_0, # of connection points: 5
#     Node 11, Type 0, BuildingBlock: XOMCOT_clean_sbu_0, # of connection points: 5
#     Edge 12, Type (0, 0), BuildingBlock: AJUNOK_clean_linker_0, # of connection points: 2
#     Edge 13, Type (0, 0), BuildingBlock: AJUNOK_clean_linker_0, # of connection points: 2
#     Edge 14, Type (0, 0), BuildingBlock: AJUNOK_clean_linker_0, # of connection points: 2
#     Edge 15, Type (0, 0), BuildingBlock: AJUNOK_clean_linker_0, # of connection points: 2
#     Edge 16, Type (0, 0), BuildingBlock: AJUNOK_clean_linker_0, # of connection points: 2
#     Edge 17, Type (0, 0), BuildingBlock: AJUNOK_clean_linker_0, # of connection points: 2
#     Edge 18, Type (0, 0), BuildingBlock: AJUNOK_clean_linker_0, # of connection points: 2
#     Edge 19, Type (0, 0), BuildingBlock: AJUNOK_clean_linker_0, # of connection points: 2
#     Edge 20, Type (0, 0), BuildingBlock: AJUNOK_clean_linker_0, # of connection points: 2
#     Edge 21, Type (0, 0), BuildingBlock: AJUNOK_clean_linker_0, # of connection points: 2
#     Edge 22, Type (0, 0), BuildingBlock: AJUNOK_clean_linker_0, # of connection points: 2
#     Edge 23, Type (0, 0), BuildingBlock: AJUNOK_clean_linker_0, # of connection points: 2
#     Edge 24, Type (0, 0), BuildingBlock: AJUNOK_clean_linker_0, # of connection points: 2
#     Edge 25, Type (0, 0), BuildingBlock: AJUNOK_clean_linker_0, # of connection points: 2
#     Edge 26, Type (0, 0), BuildingBlock: AJUNOK_clean_linker_0, # of connection points: 2
#     Edge 27, Type (0, 0), BuildingBlock: AJUNOK_clean_linker_0, # of connection points: 2
#     Edge 28, Type (0, 0), BuildingBlock: AJUNOK_clean_linker_0, # of connection points: 2
#     Edge 29, Type (0, 0), BuildingBlock: AJUNOK_clean_linker_0, # of connection points: 2
#     Edge 30, Type (0, 0), BuildingBlock: AJUNOK_clean_linker_0, # of connection points: 2
#     Edge 31, Type (0, 0), BuildingBlock: AJUNOK_clean_linker_0, # of connection points: 2
#     Edge 32, Type (0, 0), BuildingBlock: AJUNOK_clean_linker_0, # of connection points: 2
#     Edge 33, Type (0, 0), BuildingBlock: AJUNOK_clean_linker_0, # of connection points: 2
#     Edge 34, Type (0, 0), BuildingBlock: AJUNOK_clean_linker_0, # of connection points: 2
#     Edge 35, Type (0, 0), BuildingBlock: AJUNOK_clean_linker_0, # of connection points: 2
#     Edge 36, Type (0, 0), BuildingBlock: AJUNOK_clean_linker_0, # of connection points: 2
#     Edge 37, Type (0, 0), BuildingBlock: AJUNOK_clean_linker_0, # of connection points: 2
#     Edge 38, Type (0, 0), BuildingBlock: AJUNOK_clean_linker_0, # of connection points: 2
#     Edge 39, Type (0, 0), BuildingBlock: AJUNOK_clean_linker_0, # of connection points: 2
#     Edge 40, Type (0, 0), BuildingBlock: AJUNOK_clean_linker_0, # of connection points: 2
#     Edge 41, Type (0, 0), BuildingBlock: AJUNOK_clean_linker_0, # of connection points: 2
# Relax obj value: 0.300
# Max RMSD: 0.218
# Mean RMSD: 0.218
data_MOF--net-fnr--node1-XOMCOT_clean_sbu_0--edge1-AJUNOK_clean_linker_0
_symmetry_space_group_name_H-M    P1
_symmetry_Int_Tables_number       1
_symmetry_cell_setting            triclinic
loop_
_symmetry_equiv_pos_as_xyz
'x, y, z'
_cell_length_a     30.80985
_cell_length_b     30.831041
_cell_length_c     40.715974
_cell_angle_alpha  90.025184
_cell_angle_beta   90.031773
_cell_angle_gamma 119.92135
loop_
_atom_site_label
_atom_site_type_symbol
_atom_site_fract_x
_atom_site_fract_y
_atom_site_fract_z
_atom_type_partial_charge
Co0 Co 0.42402 0.17873 0.06794 0.0
C1 C 0.36052 0.21255 0.03619 0.0
C2 C 0.32509 0.16846 0.07909 0.0
C3 C 0.29228 0.18031 0.06411 0.0
N4 N 0.36788 0.18906 0.06166 0.0
N5 N 0.31442 0.20754 0.03694 0.0
H6 H 0.38798 0.23203 0.01714 0.0
H7 H 0.31816 0.14604 0.10097 0.0
C8 C 0.5089 0.28503 0.07151 0.0
O9 O 0.52408 0.27274 0.09825 0.0
N10 N 0.48015 0.16628 0.07275 0.0
C11 C 0.47738 0.12359 0.08389 0.0
C12 C 0.52352 0.12738 0.08168 0.0
C13 C 0.52783 0.19396 0.06189 0.0
N14 N 0.55535 0.17187 0.06821 0.0
C15 C 0.42328 0.16123 0.13693 0.0
C16 C 0.42379 0.24665 0.15794 0.0
C17 C 0.42373 0.21323 0.18134 0.0
C18 C 0.42307 0.16993 0.1704 0.0
C19 C 0.42433 0.23655 0.12447 0.0
N20 N 0.42603 0.19513 0.11433 0.0
H21 H 0.41962 0.12624 0.12942 0.0
H22 H 0.42276 0.26168 0.10667 0.0
H23 H 0.44397 0.09088 0.09253 0.0
H24 H 0.54219 0.22879 0.04872 0.0
O25 O 0.37801 0.10797 0.07148 0.0
O26 O 0.41157 0.14827 0.02495 0.0
O27 O 0.47066 0.25197 0.05569 0.0
C28 C 0.38204 0.10613 0.03988 0.0
H29 H 0.25546 0.17061 0.07304 0.0
H30 H 0.53322 0.09994 0.09001 0.0
H31 H 0.42232 0.27962 0.16537 0.0
H32 H 0.42201 0.14262 0.1876 0.0
Co33 Co 0.23975 0.40499 0.57643 0.0
C34 C 0.13824 0.35081 0.54735 0.0
C35 C 0.1439 0.31314 0.5901 0.0
C36 C 0.09631 0.28547 0.5773 0.0
N37 N 0.16998 0.35429 0.57148 0.0
N38 N 0.09286 0.30895 0.5503 0.0
H39 H 0.14835 0.37823 0.52799 0.0
H40 H 0.15871 0.30344 0.61117 0.0
C41 C 0.2347 0.49771 0.5891 0.0
O42 O 0.26452 0.50455 0.61406 0.0
N43 N 0.31081 0.45636 0.57968 0.0
C44 C 0.34955 0.45152 0.59087 0.0
C45 C 0.39341 0.49652 0.58756 0.0
C46 C 0.33282 0.50353 0.56757 0.0
N47 N 0.38259 0.52922 0.57315 0.0
C48 C 0.25877 0.38935 0.64262 0.0
C49 C 0.19165 0.41043 0.67337 0.0
C50 C 0.22405 0.40114 0.69257 0.0
C51 C 0.25621 0.38834 0.67665 0.0
C52 C 0.19493 0.4102 0.63897 0.0
N53 N 0.2309 0.40334 0.62408 0.0
H54 H 0.28268 0.37765 0.63133 0.0
H55 H 0.16927 0.41649 0.62439 0.0
H56 H 0.34711 0.41763 0.60015 0.0
H57 H 0.31325 0.51932 0.55473 0.0
O58 O 0.2579 0.35407 0.57455 0.0
O59 O 0.25288 0.39395 0.53102 0.0
O60 O 0.22055 0.45917 0.57061 0.0
C61 C 0.26386 0.36133 0.54325 0.0
H62 H 0.06696 0.2499 0.58649 0.0
H63 H 0.43011 0.50496 0.59604 0.0
H64 H 0.16475 0.41855 0.68477 0.0
H65 H 0.27929 0.37736 0.69041 0.0
Co66 Co 0.86351 0.25131 0.07155 0.0
C67 C 0.81755 0.15077 0.04186 0.0
C68 C 0.86421 0.15693 0.08286 0.0
C69 C 0.84455 0.10966 0.06953 0.0
N70 N 0.84688 0.18242 0.06562 0.0
N71 N 0.81553 0.10598 0.04362 0.0
H72 H 0.79818 0.16048 0.0237 0.0
H73 H 0.88974 0.17186 0.10343 0.0
C74 C 0.76492 0.24337 0.08187 0.0
O75 O 0.78542 0.27252 0.1075 0.0
N76 N 0.88087 0.32168 0.07531 0.0
C77 C 0.92426 0.36135 0.08554 0.0
C78 C 0.92276 0.40462 0.07992 0.0
C79 C 0.85558 0.34242 0.06149 0.0
N80 N 0.87909 0.39272 0.06502 0.0
C81 C 0.88949 0.27051 0.13973 0.0
C82 C 0.80242 0.19116 0.1642 0.0
C83 C 0.83907 0.22437 0.18607 0.0
C84 C 0.88317 0.26412 0.17356 0.0
C85 C 0.81007 0.19928 0.13043 0.0
N86 N 0.8524 0.23986 0.11859 0.0
H87 H 0.92484 0.29948 0.1307 0.0
H88 H 0.78178 0.17315 0.11374 0.0
H89 H 0.9563 0.35993 0.09493 0.0
H90 H 0.82079 0.32085 0.04875 0.0
O91 O 0.93305 0.27166 0.07153 0.0
O92 O 0.88871 0.2661 0.02705 0.0
O93 O 0.79075 0.23049 0.06395 0.0
C94 C 0.93205 0.27819 0.04013 0.0
H95 H 0.85213 0.08067 0.07767 0.0
H96 H 0.95224 0.44206 0.08592 0.0
H97 H 0.76806 0.15955 0.17311 0.0
H98 H 0.91297 0.28944 0.18981 0.0
Co99 Co 0.61266 0.83663 0.56717 0.0
C100 C 0.69352 0.80832 0.55669 0.0
C101 C 0.63737 0.78611 0.51903 0.0
C102 C 0.66875 0.76887 0.51046 0.0
N103 N 0.65232 0.81072 0.54786 0.0
N104 N 0.70384 0.78256 0.53392 0.0
H105 H 0.71465 0.82406 0.57904 0.0
H106 H 0.60488 0.78041 0.50529 0.0
C107 C 0.51469 0.7425 0.58017 0.0
O108 O 0.50904 0.76349 0.60668 0.0
N109 N 0.5689 0.86058 0.58283 0.0
C110 C 0.57209 0.89185 0.60717 0.0
C111 C 0.52894 0.8953 0.60686 0.0
C112 C 0.52545 0.84774 0.5674 0.0
N113 N 0.49984 0.86722 0.58182 0.0
C114 C 0.65369 0.86273 0.63164 0.0
C115 C 0.61101 0.76762 0.65769 0.0
C116 C 0.63472 0.80904 0.67876 0.0
C117 C 0.65798 0.85692 0.66514 0.0
C118 C 0.60858 0.77525 0.62388 0.0
N119 N 0.62601 0.82246 0.61175 0.0
H120 H 0.67085 0.90031 0.62219 0.0
H121 H 0.59155 0.74311 0.60786 0.0
H122 H 0.60253 0.91041 0.62437 0.0
H123 H 0.51153 0.82234 0.54668 0.0
O124 O 0.66739 0.90421 0.56451 0.0
O125 O 0.61247 0.86592 0.52473 0.0
O126 O 0.55296 0.7668 0.56172 0.0
C127 C 0.65132 0.9066 0.53562 0.0
H128 H 0.66605 0.74749 0.48866 0.0
H129 H 0.5186 0.91466 0.62464 0.0
H130 H 0.59418 0.7299 0.66728 0.0
H131 H 0.67743 0.88987 0.68051 0.0
Co132 Co 0.78404 0.6105 0.06955 0.0
C133 C 0.88632 0.6852 0.04253 0.0
C134 C 0.88922 0.65393 0.08881 0.0
C135 C 0.93708 0.68207 0.07738 0.0
N136 N 0.85674 0.65633 0.06758 0.0
N137 N 0.9358 0.70214 0.04833 0.0
H138 H 0.87204 0.69165 0.01989 0.0
H139 H 0.87903 0.62975 0.11001 0.0
C140 C 0.78009 0.50858 0.06102 0.0
O141 O 0.73362 0.48124 0.07055 0.0
N142 N 0.71182 0.56384 0.07129 0.0
C143 C 0.68116 0.56219 0.09541 0.0
C144 C 0.63468 0.52073 0.09096 0.0
C145 C 0.68228 0.52506 0.0512 0.0
N146 N 0.63533 0.49657 0.06346 0.0
C147 C 0.80611 0.64777 0.13478 0.0
C148 C 0.77115 0.55776 0.16715 0.0
C149 C 0.78934 0.60179 0.18561 0.0
C150 C 0.80751 0.64731 0.16898 0.0
C151 C 0.77093 0.55996 0.13292 0.0
N152 N 0.78846 0.60459 0.11701 0.0
H153 H 0.82002 0.68324 0.12239 0.0
H154 H 0.75491 0.5255 0.11974 0.0
H155 H 0.69266 0.58752 0.11612 0.0
H156 H 0.69608 0.51537 0.02958 0.0
O157 O 0.77002 0.66455 0.07109 0.0
O158 O 0.7753 0.6296 0.02512 0.0
O159 O 0.80175 0.55636 0.06006 0.0
C160 C 0.766 0.66213 0.03947 0.0
H161 H 0.96997 0.68399 0.08842 0.0
H162 H 0.60435 0.50694 0.10854 0.0
H163 H 0.75639 0.52174 0.1791 0.0
H164 H 0.82329 0.68243 0.1822 0.0
Co165 Co 0.19088 0.78617 0.56501 0.0
C166 C 0.23912 0.88839 0.5351 0.0
C167 C 0.19118 0.87995 0.57582 0.0
C168 C 0.2114 0.92787 0.56406 0.0
N169 N 0.20883 0.85528 0.55797 0.0
N170 N 0.2417 0.93334 0.53863 0.0
H171 H 0.25876 0.8799 0.51641 0.0
H172 H 0.16484 0.86396 0.59585 0.0
C173 C 0.28828 0.7901 0.57501 0.0
O174 O 0.26687 0.75997 0.6 0.0
N175 N 0.17082 0.71536 0.57162 0.0
C176 C 0.12945 0.68063 0.5875 0.0
C177 C 0.12803 0.63532 0.58676 0.0
C178 C 0.19223 0.68925 0.55982 0.0
N179 N 0.16767 0.64087 0.56956 0.0
C180 C 0.16209 0.78086 0.63239 0.0
C181 C 0.25686 0.8415 0.65727 0.0
C182 C 0.21639 0.81927 0.67928 0.0
C183 C 0.16816 0.79055 0.66593 0.0
C184 C 0.24822 0.83487 0.62365 0.0
N185 N 0.20227 0.80061 0.61177 0.0
H186 H 0.1246 0.7588 0.6231 0.0
H187 H 0.27906 0.85651 0.60731 0.0
H188 H 0.1017 0.68711 0.599 0.0
H189 H 0.22611 0.70535 0.54532 0.0
O190 O 0.12185 0.76788 0.56435 0.0
O191 O 0.16514 0.76926 0.52052 0.0
O192 O 0.26342 0.80473 0.55752 0.0
C193 C 0.1223 0.75963 0.53324 0.0
H194 H 0.20335 0.95621 0.57295 0.0
H195 H 0.1014 0.6015 0.59939 0.0
H196 H 0.29526 0.86317 0.66522 0.0
H197 H 0.13493 0.77525 0.68108 0.0
Co198 Co 0.85759 0.61176 0.43954 0.0
C199 C 0.82233 0.67129 0.47501 0.0
C200 C 0.85568 0.70549 0.42892 0.0
C201 C 0.84162 0.73574 0.44516 0.0
N202 N 0.84295 0.66486 0.44753 0.0
N203 N 0.82069 0.71436 0.47425 0.0
H204 H 0.81044 0.64553 0.49544 0.0
H205 H 0.87422 0.7128 0.40536 0.0
C206 C 0.75644 0.52131 0.4356 0.0
O207 O 0.77316 0.50857 0.40977 0.0
N208 N 0.8738 0.55831 0.43361 0.0
C209 C 0.91414 0.56082 0.41854 0.0
C210 C 0.91308 0.51592 0.42229 0.0
C211 C 0.8512 0.51293 0.44833 0.0
N212 N 0.87321 0.48578 0.44087 0.0
C213 C 0.87438 0.61863 0.37018 0.0
C214 C 0.78115 0.60179 0.35113 0.0
C215 C 0.81588 0.60696 0.327 0.0
C216 C 0.86334 0.61665 0.33694 0.0
C217 C 0.79408 0.60461 0.38433 0.0
N218 N 0.83919 0.60981 0.3935 0.0
H219 H 0.91185 0.62858 0.37699 0.0
H220 H 0.76758 0.60211 0.40265 0.0
H221 H 0.94354 0.59319 0.40634 0.0
H222 H 0.81899 0.49944 0.46426 0.0
O223 O 0.92694 0.66049 0.43509 0.0
O224 O 0.88995 0.6248 0.48209 0.0
O225 O 0.78567 0.56118 0.45167 0.0
C226 C 0.93086 0.6557 0.46637 0.0
H227 H 0.84586 0.77056 0.43592 0.0
H228 H 0.93864 0.50565 0.41124 0.0
H229 H 0.74424 0.59503 0.34452 0.0
H230 H 0.89208 0.62327 0.31909 0.0
Co231 Co 0.2576 0.84824 0.93823 0.0
C232 C 0.1553 0.80094 0.96835 0.0
C233 C 0.15901 0.8373 0.92269 0.0
C234 C 0.11122 0.81733 0.93496 0.0
N235 N 0.18667 0.82657 0.94332 0.0
N236 N 0.10885 0.79475 0.96374 0.0
H237 H 0.16629 0.78743 0.98952 0.0
H238 H 0.17271 0.85913 0.90047 0.0
C239 C 0.26216 0.75575 0.92634 0.0
O240 O 0.29486 0.78183 0.90341 0.0
N241 N 0.32948 0.87096 0.93424 0.0
C242 C 0.36416 0.9084 0.9156 0.0
C243 C 0.40929 0.90955 0.91871 0.0
C244 C 0.35527 0.85194 0.94987 0.0
N245 N 0.40364 0.87362 0.93999 0.0
C246 C 0.26516 0.88221 0.8722 0.0
C247 C 0.21437 0.78999 0.84218 0.0
C248 C 0.23611 0.83325 0.8225 0.0
C249 C 0.25835 0.87968 0.83847 0.0
C250 C 0.21768 0.79447 0.87631 0.0
N251 N 0.24745 0.83991 0.89079 0.0
H252 H 0.28326 0.91879 0.88321 0.0
H253 H 0.19659 0.76115 0.89085 0.0
H254 H 0.35764 0.93291 0.90014 0.0
H255 H 0.33827 0.82083 0.96683 0.0
O256 O 0.27256 0.91587 0.93984 0.0
O257 O 0.27099 0.87308 0.98361 0.0
O258 O 0.24254 0.77638 0.94372 0.0
C259 C 0.2797 0.91573 0.97097 0.0
H260 H 0.0809 0.82062 0.92412 0.0
H261 H 0.44278 0.93295 0.90464 0.0
H262 H 0.19466 0.75284 0.8317 0.0
H263 H 0.27005 0.91429 0.82545 0.0
Co264 Co 0.41635 0.25863 0.43766 0.0
C265 C 0.36304 0.15594 0.46312 0.0
C266 C 0.32347 0.16365 0.42217 0.0
C267 C 0.29731 0.11489 0.43334 0.0
N268 N 0.36479 0.18909 0.4408 0.0
N269 N 0.32214 0.11023 0.45921 0.0
H270 H 0.39142 0.16523 0.48173 0.0
H271 H 0.3131 0.17945 0.40199 0.0
C272 C 0.50783 0.24938 0.42964 0.0
O273 O 0.52031 0.28131 0.40522 0.0
N274 N 0.46884 0.32929 0.43652 0.0
C275 C 0.46594 0.36904 0.42532 0.0
C276 C 0.51153 0.41191 0.42958 0.0
C277 C 0.51512 0.34973 0.44995 0.0
N278 N 0.54259 0.39956 0.44489 0.0
C279 C 0.41302 0.28154 0.36972 0.0
C280 C 0.42544 0.20566 0.34381 0.0
C281 C 0.42187 0.23941 0.32251 0.0
C282 C 0.41483 0.27722 0.33578 0.0
C283 C 0.42392 0.21168 0.37774 0.0
N284 N 0.42008 0.25076 0.39038 0.0
H285 H 0.40411 0.30862 0.37916 0.0
H286 H 0.42567 0.18476 0.39387 0.0
H287 H 0.43302 0.36784 0.41512 0.0
H288 H 0.52903 0.32887 0.46324 0.0
O289 O 0.36599 0.2782 0.437 0.0
O290 O 0.40105 0.26933 0.48212 0.0
O291 O 0.46811 0.23733 0.44632 0.0
C292 C 0.36955 0.28087 0.46875 0.0
H293 H 0.26211 0.08543 0.4237 0.0
H294 H 0.52148 0.44886 0.42084 0.0
H295 H 0.42947 0.17502 0.33433 0.0
H296 H 0.40934 0.30239 0.32001 0.0
Co297 Co 0.19714 0.42268 0.94711 0.0
C298 C 0.22124 0.3385 0.9593 0.0
C299 C 0.22217 0.38056 1.00159 0.0
C300 C 0.23574 0.34679 0.01145 0.0
N301 N 0.21265 0.37575 0.96899 0.0
N302 N 0.23535 0.32059 0.98507 0.0
H303 H 0.22063 0.32688 0.93422 0.0
H304 H 0.22188 0.40881 0.01716 0.0
C305 C 0.30691 0.47505 0.95138 0.0
O306 O 0.30167 0.43265 0.94049 0.0
N307 N 0.18168 0.47083 0.92869 0.0
C308 C 0.14767 0.46456 0.90556 0.0
C309 C 0.1483 0.50945 0.9017 0.0
C310 C 0.20184 0.51848 0.93884 0.0
N311 N 0.18223 0.54276 0.92284 0.0
C312 C 0.19019 0.36829 0.8883 0.0
C313 C 0.25318 0.45208 0.85184 0.0
C314 C 0.22528 0.4062 0.83565 0.0
C315 C 0.19404 0.36372 0.85438 0.0
C316 C 0.24863 0.45493 0.88565 0.0
N317 N 0.21739 0.41345 0.90362 0.0
H318 H 0.16306 0.33606 0.90194 0.0
H319 H 0.26718 0.49156 0.89686 0.0
H320 H 0.12463 0.43016 0.89227 0.0
H321 H 0.23089 0.53553 0.95729 0.0
O322 O 0.12806 0.37197 0.94376 0.0
O323 O 0.16158 0.42259 0.98647 0.0
O324 O 0.2679 0.4785 0.95726 0.0
C325 C 0.12207 0.386 0.97255 0.0
H326 H 0.24765 0.34335 0.03588 0.0
H327 H 0.12701 0.51755 0.88406 0.0
H328 H 0.27601 0.48629 0.83828 0.0
H329 H 0.17134 0.32765 0.84275 0.0
Co330 Co 0.77324 0.17125 0.44052 0.0
C331 C 0.87485 0.21602 0.46947 0.0
C332 C 0.86622 0.16818 0.42865 0.0
C333 C 0.91433 0.18836 0.44063 0.0
N334 N 0.8417 0.18595 0.44653 0.0
N335 N 0.91978 0.21859 0.46618 0.0
H336 H 0.86636 0.23578 0.48807 0.0
H337 H 0.8502 0.14237 0.4083 0.0
C338 C 0.787 0.27306 0.43303 0.0
O339 O 0.75793 0.25542 0.40706 0.0
N340 N 0.70318 0.1557 0.4363 0.0
C341 C 0.66354 0.11287 0.42506 0.0
C342 C 0.62064 0.11602 0.42766 0.0
C343 C 0.68235 0.18243 0.44784 0.0
N344 N 0.63273 0.16004 0.44178 0.0
C345 C 0.75592 0.15039 0.37184 0.0
C346 C 0.83969 0.2356 0.34953 0.0
C347 C 0.80769 0.19969 0.32678 0.0
C348 C 0.76516 0.15697 0.33831 0.0
C349 C 0.82875 0.22768 0.38307 0.0
N350 N 0.78644 0.18596 0.39384 0.0
H351 H 0.72507 0.11557 0.37994 0.0
H352 H 0.85472 0.25472 0.40044 0.0
H353 H 0.66486 0.08071 0.41588 0.0
H354 H 0.70248 0.21755 0.46079 0.0
O355 O 0.7517 0.10151 0.43757 0.0
O356 O 0.75642 0.14105 0.48404 0.0
O357 O 0.79601 0.24406 0.45072 0.0
C358 C 0.74444 0.09903 0.46896 0.0
H359 H 0.94273 0.18038 0.43175 0.0
H360 H 0.58379 0.08884 0.4188 0.0
H361 H 0.8734 0.26883 0.34154 0.0
H362 H 0.73935 0.1284 0.32156 0.0
Co363 Co 0.63 0.78573 0.93716 0.0
C364 C 0.68464 0.88892 0.96317 0.0
C365 C 0.71919 0.88141 0.91937 0.0
C366 C 0.7471 0.92983 0.93073 0.0
N367 N 0.67983 0.856 0.93955 0.0
N368 N 0.72528 0.93455 0.95819 0.0
H369 H 0.65935 0.87947 0.98379 0.0
H370 H 0.72765 0.86552 0.89832 0.0
C371 C 0.53587 0.79239 0.92976 0.0
O372 O 0.52276 0.76082 0.90508 0.0
N373 N 0.58011 0.714 0.93607 0.0
C374 C 0.58999 0.67703 0.92869 0.0
C375 C 0.54751 0.63165 0.93224 0.0
C376 C 0.53148 0.68939 0.94586 0.0
N377 N 0.51031 0.63919 0.94254 0.0
C378 C 0.63629 0.76125 0.87038 0.0
C379 C 0.61769 0.83082 0.84067 0.0
C380 C 0.62677 0.79877 0.8211 0.0
C381 C 0.63653 0.76407 0.83629 0.0
C382 C 0.61826 0.82705 0.87503 0.0
N383 N 0.62567 0.79118 0.88952 0.0
H384 H 0.6466 0.73598 0.88123 0.0
H385 H 0.61351 0.85341 0.88992 0.0
H386 H 0.62598 0.68187 0.92185 0.0
H387 H 0.51179 0.70733 0.95539 0.0
O388 O 0.6829 0.76944 0.93721 0.0
O389 O 0.6463 0.77625 0.98198 0.0
O390 O 0.57633 0.80488 0.94575 0.0
C391 C 0.67863 0.76561 0.96887 0.0
H392 H 0.78195 0.95871 0.92034 0.0
H393 H 0.54437 0.59559 0.92766 0.0
H394 H 0.61148 0.85918 0.82954 0.0
H395 H 0.64522 0.73984 0.82186 0.0
C396 C 0.68045 0.1798 0.06138 0.0
C397 C 0.71292 0.22824 0.07319 0.0
C398 C 0.62905 0.1624 0.05805 0.0
C399 C 0.60874 0.19314 0.06588 0.0
H400 H 0.69435 0.15436 0.05642 0.0
H401 H 0.60468 0.12405 0.0504 0.0
S402 S 0.67973 0.32537 0.09359 0.0
N403 N 0.72254 0.30848 0.0894 0.0
N404 N 0.62602 0.27566 0.08345 0.0
C405 C 0.64156 0.24277 0.07557 0.0
C406 C 0.69369 0.26032 0.07919 0.0
C407 C 0.39796 0.61452 0.58279 0.0
C408 C 0.4148 0.58263 0.57101 0.0
C409 C 0.4302 0.66634 0.58491 0.0
C410 C 0.48026 0.68842 0.57448 0.0
H411 H 0.36011 0.59891 0.59179 0.0
H412 H 0.41596 0.68912 0.59534 0.0
S413 S 0.54187 0.62142 0.53961 0.0
N414 N 0.48406 0.57667 0.54763 0.0
N415 N 0.54466 0.67436 0.55056 0.0
C416 C 0.49707 0.65711 0.56129 0.0
C417 C 0.46439 0.60413 0.55987 0.0
C418 C 0.87742 0.47088 0.07661 0.0
C419 C 0.85882 0.4256 0.05889 0.0
C420 C 0.85366 0.49956 0.0754 0.0
C421 C 0.80983 0.48363 0.05697 0.0
H422 H 0.90905 0.48326 0.09297 0.0
H423 H 0.86793 0.53278 0.09061 0.0
S424 S 0.74993 0.37398 1.00161 0.0
N425 N 0.79785 0.3716 0.01775 0.0
N426 N 0.75127 0.42354 0.01806 0.0
C427 C 0.79217 0.4404 0.03778 0.0
C428 C 0.81717 0.41192 0.03806 0.0
C429 C 0.41373 0.79773 0.57616 0.0
C430 C 0.44746 0.84952 0.57696 0.0
C431 C 0.36219 0.77892 0.57356 0.0
C432 C 0.34254 0.81118 0.57083 0.0
H433 H 0.42727 0.7716 0.57882 0.0
H434 H 0.33739 0.73878 0.57454 0.0
S435 S 0.41541 0.94983 0.56881 0.0
N436 N 0.45821 0.93284 0.57317 0.0
N437 N 0.36081 0.89743 0.5671 0.0
C438 C 0.37594 0.86307 0.56987 0.0
C439 C 0.4286 0.8823 0.57336 0.0
C440 C 0.61728 0.41128 0.04759 0.0
C441 C 0.6 0.4443 0.05649 0.0
C442 C 0.58634 0.35914 0.0503 0.0
C443 C 0.5364 0.33789 0.06074 0.0
H444 H 0.65578 0.42551 0.04055 0.0
H445 H 0.60222 0.33539 0.04549 0.0
S446 S 0.46904 0.40648 0.07895 0.0
N447 N 0.52688 0.45095 0.07073 0.0
N448 N 0.46862 0.35296 0.07486 0.0
C449 C 0.51695 0.36987 0.06603 0.0
C450 C 0.54869 0.42303 0.06398 0.0
C451 C 0.17991 0.52576 0.56058 0.0
C452 C 0.21962 0.53593 0.58228 0.0
C453 C 0.16373 0.56076 0.55562 0.0
C454 C 0.18756 0.6075 0.5715 0.0
H455 H 0.16028 0.49004 0.54806 0.0
H456 H 0.13202 0.55108 0.5397 0.0
S457 S 0.29258 0.6531 0.63062 0.0
N458 N 0.28181 0.59697 0.61992 0.0
N459 N 0.25172 0.66196 0.60979 0.0
C460 C 0.22754 0.61844 0.59265 0.0
C461 C 0.24353 0.58291 0.59822 0.0
C462 C 0.8003 0.40122 0.43739 0.0
C463 C 0.85136 0.43248 0.44445 0.0
C464 C 0.77937 0.34933 0.43536 0.0
C465 C 0.80843 0.32655 0.441 0.0
H466 H 0.77704 0.41726 0.43148 0.0
H467 H 0.74045 0.32702 0.42826 0.0
S468 S 0.94295 0.39128 0.46335 0.0
N469 N 0.92994 0.43693 0.4591 0.0
N470 N 0.89011 0.33873 0.45604 0.0
C471 C 0.85886 0.35698 0.44998 0.0
C472 C 0.88051 0.41016 0.45142 0.0
C473 C 0.41889 0.80209 0.9424 0.0
C474 C 0.43752 0.85405 0.94362 0.0
C475 C 0.45108 0.78233 0.93904 0.0
C476 C 0.50339 0.81368 0.93819 0.0
H477 H 0.37898 0.77664 0.94236 0.0
H478 H 0.43483 0.7422 0.9364 0.0
S479 S 0.57183 0.95191 0.94563 0.0
N480 N 0.51213 0.93622 0.94684 0.0
N481 N 0.57267 0.89895 0.94204 0.0
C482 C 0.52279 0.86542 0.94199 0.0
C483 C 0.4899 0.88566 0.94438 0.0
C484 C 0.67866 0.43863 0.43869 0.0
C485 C 0.70277 0.49058 0.44388 0.0
C486 C 0.62659 0.40889 0.44098 0.0
C487 C 0.5963 0.42999 0.44792 0.0
H488 H 0.70005 0.42093 0.43171 0.0
H489 H 0.60978 0.36944 0.43544 0.0
S490 S 0.64125 0.56391 0.46525 0.0
N491 N 0.6929 0.56177 0.45798 0.0
N492 N 0.59455 0.50574 0.46195 0.0
C493 C 0.62006 0.48167 0.45447 0.0
C494 C 0.67341 0.51197 0.45261 0.0
C495 C 0.19415 0.6681 0.93909 0.0
C496 C 0.24283 0.70114 0.92748 0.0
C497 C 0.17373 0.61596 0.93694 0.0
C498 C 0.20176 0.59564 0.92368 0.0
H499 H 0.17125 0.68252 0.94905 0.0
H500 H 0.13615 0.59137 0.94586 0.0
S501 S 0.33056 0.66466 0.89076 0.0
N502 N 0.31807 0.70865 0.90218 0.0
N503 N 0.27992 0.61108 0.89962 0.0
C504 C 0.25039 0.62787 0.91265 0.0
C505 C 0.27088 0.68057 0.91418 0.0
C506 C 0.5907 0.25353 0.42765 0.0
C507 C 0.5399 0.22726 0.43683 0.0
C508 C 0.62122 0.23207 0.43087 0.0
C509 C 0.60208 0.1832 0.44289 0.0
H510 H 0.60691 0.29069 0.4172 0.0
H511 H 0.65953 0.25297 0.42239 0.0
S512 S 0.47238 0.09904 0.47168 0.0
N513 N 0.47233 0.15026 0.45983 0.0
N514 N 0.52986 0.10969 0.46532 0.0
C515 C 0.55178 0.15684 0.45295 0.0
C516 C 0.52071 0.179 0.45016 0.0
C517 C 0.3911 0.51949 0.92634 0.0
C518 C 0.3574 0.51982 0.94944 0.0
C519 C 0.44004 0.55907 0.92398 0.0
C520 C 0.45822 0.60085 0.94488 0.0
H521 H 0.37963 0.48827 0.90962 0.0
H522 H 0.46391 0.55673 0.90541 0.0
S523 S 0.38424 0.62146 0.00868 0.0
N524 N 0.3443 0.56652 0.99258 0.0
N525 N 0.43767 0.64107 0.98891 0.0
C526 C 0.42456 0.60268 0.96756 0.0
C527 C 0.37388 0.56213 0.96966 0.0
C528 C 0.38973 0.18808 0.27158 0.0
C529 C 0.42294 0.23393 0.28651 0.0
C530 C 0.38947 0.18221 0.23749 0.0
C531 C 0.42274 0.22185 0.2171 0.0
H532 H 0.36339 0.15669 0.28634 0.0
H533 H 0.36296 0.14627 0.227 0.0
S534 S 0.51866 0.34879 0.24457 0.0
N535 N 0.49051 0.31938 0.27874 0.0
N536 N 0.49074 0.30809 0.21455 0.0
C537 C 0.45616 0.26793 0.23179 0.0
C538 C 0.45614 0.27399 0.26653 0.0
C539 C 0.17987 0.37947 0.74704 0.0
C540 C 0.22467 0.40398 0.729 0.0
C541 C 0.18042 0.3794 0.78152 0.0
C542 C 0.22577 0.40394 0.79919 0.0
H543 H 0.14421 0.35959 0.73443 0.0
H544 H 0.14499 0.36064 0.79443 0.0
S545 S 0.3533 0.47435 0.76346 0.0
N546 N 0.31551 0.45482 0.73137 0.0
N547 N 0.31658 0.4529 0.79595 0.0
C548 C 0.27077 0.42859 0.78139 0.0
C549 C 0.2702 0.42905 0.74639 0.0
C550 C 0.82945 0.25134 0.2757 0.0
C551 C 0.81832 0.20616 0.29112 0.0
C552 C 0.83631 0.25699 0.24164 0.0
C553 C 0.83198 0.21757 0.22192 0.0
H554 H 0.83173 0.2821 0.28995 0.0
H555 H 0.8442 0.29213 0.23056 0.0
S556 S 0.80893 0.09388 0.25062 0.0
N557 N 0.80749 0.12286 0.28437 0.0
N558 N 0.81949 0.13339 0.22024 0.0
C559 C 0.82214 0.17273 0.23705 0.0
C560 C 0.81557 0.16707 0.27171 0.0
C561 C 0.58513 0.78012 0.76607 0.0
C562 C 0.62922 0.8027 0.78492 0.0
C563 C 0.58718 0.78038 0.73158 0.0
C564 C 0.6334 0.80353 0.71496 0.0
H565 H 0.54895 0.76189 0.77808 0.0
H566 H 0.55246 0.7635 0.7178 0.0
S567 S 0.75927 0.86609 0.75344 0.0
N568 N 0.72006 0.84713 0.78481 0.0
N569 N 0.72406 0.84843 0.72005 0.0
C570 C 0.67764 0.82576 0.73368 0.0
C571 C 0.6755 0.82508 0.76867 0.0
C572 C 0.81076 0.57285 0.23718 0.0
C573 C 0.79134 0.60047 0.22196 0.0
C574 C 0.8169 0.57398 0.27125 0.0
C575 C 0.80392 0.60279 0.29147 0.0
H576 H 0.82282 0.55141 0.22257 0.0
H577 H 0.8328 0.55274 0.28182 0.0
S578 S 0.74805 0.67892 0.264 0.0
N579 N 0.75572 0.65461 0.22985 0.0
N580 N 0.7689 0.65806 0.29396 0.0
C581 C 0.78286 0.62925 0.27674 0.0
C582 C 0.77635 0.62791 0.24197 0.0
C583 C 0.19301 0.78926 0.77035 0.0
C584 C 0.23351 0.83019 0.78588 0.0
C585 C 0.18901 0.78576 0.73624 0.0
C586 C 0.22341 0.82453 0.71571 0.0
H587 H 0.16342 0.75942 0.7844 0.0
H588 H 0.15822 0.7519 0.72614 0.0
S589 S 0.33735 0.94028 0.7438 0.0
N590 N 0.31235 0.90806 0.7776 0.0
N591 N 0.29895 0.90673 0.71406 0.0
C592 C 0.2638 0.86638 0.73089 0.0
C593 C 0.27009 0.86802 0.76568 0.0
C594 C 0.31258 0.96623 0.02286 0.0
C595 C 0.3024 0.96392 0.98909 0.0
C596 C 0.33788 1.01248 0.03923 0.0
C597 C 0.35454 0.05798 0.02227 0.0
H598 H 0.30158 0.93226 0.03664 0.0
H599 H 0.34536 1.01261 0.06524 0.0
S600 S 0.33537 0.0728 0.93412 0.0
N601 N 0.30933 1.01186 0.93956 0.0
N602 N 0.35741 0.09791 0.97042 0.0
C603 C 0.34399 0.05623 0.98874 0.0
C604 C 0.31772 1.00941 0.97214 0.0
C605 C 0.29473 0.34488 0.49005 0.0
C606 C 0.28746 0.33741 0.52408 0.0
C607 C 0.32053 0.32561 0.47233 0.0
C608 C 0.34063 0.2987 0.48802 0.0
H609 H 0.28106 0.36633 0.47704 0.0
H610 H 0.32572 0.33291 0.44619 0.0
S611 S 0.33015 0.26666 0.57642 0.0
N612 N 0.30105 0.29909 0.57261 0.0
N613 N 0.34987 0.26396 0.53922 0.0
C614 C 0.33296 0.29023 0.52186 0.0
C615 C 0.30625 0.30925 0.53988 0.0
C616 C 0.02449 0.33264 0.03938 0.0
C617 C 0.97949 0.30445 0.02179 0.0
C618 C 0.07032 0.36008 0.02322 0.0
C619 C 0.07295 0.35975 0.98888 0.0
H620 H 0.02443 0.33412 0.06597 0.0
H621 H 0.10398 0.38087 0.03779 0.0
S622 S 0.96609 0.2927 0.93131 0.0
N623 N 0.9403 0.27862 0.96814 0.0
N624 N 0.02672 0.32964 0.93753 0.0
C625 C 0.02829 0.33188 0.97088 0.0
C626 C 0.98145 0.30439 0.9874 0.0
C627 C 0.70267 0.99984 0.53542 0.0
C628 C 0.67455 0.95479 0.5178 0.0
C629 C 0.72481 0.04647 0.51965 0.0
C630 C 0.72043 0.04973 0.48557 0.0
H631 H 0.70721 0.99922 0.56177 0.0
H632 H 0.7459 0.08007 0.53419 0.0
S633 S 0.65057 0.94284 0.42822 0.0
N634 N 0.64307 0.91644 0.4646 0.0
N635 N 0.6853 1.00363 0.43462 0.0
C636 C 0.69246 1.00487 0.46763 0.0
C637 C 0.66931 0.95751 0.48383 0.0
C638 C 0.74688 0.69367 0.98738 0.0
C639 C 0.74723 0.69204 0.02184 0.0
C640 C 0.72628 0.71915 0.97066 0.0
C641 C 0.70451 0.74355 0.98765 0.0
H642 H 0.76204 0.6746 0.97315 0.0
H643 H 0.72619 0.71838 0.94406 0.0
S644 S 0.69719 0.75206 0.07806 0.0
N645 N 0.72519 0.71887 0.0725 0.0
N646 N 0.68607 0.76568 0.04092 0.0
C647 C 0.70542 0.74304 0.02207 0.0
C648 C 0.72686 0.71762 0.03916 0.0
C649 C 0.98293 0.68915 0.51677 0.0
C650 C 0.98012 0.6832 0.48259 0.0
C651 C 0.02927 0.71506 0.5326 0.0
C652 C 0.07461 0.73549 0.51491 0.0
H653 H 0.94914 0.67388 0.53143 0.0
H654 H 0.02933 0.71825 0.5591 0.0
S655 S 0.08762 0.72974 0.42482 0.0
N656 N 0.02659 0.69981 0.43128 0.0
N657 N 0.11375 0.74807 0.46136 0.0
C658 C 0.07239 0.72988 0.4807 0.0
C659 C 0.02511 0.70386 0.46446 0.0
C660 C 0.76697 0.01441 0.03452 0.0
C661 C 0.78992 0.06345 0.02188 0.0
C662 C 0.74435 0.97244 0.0137 0.0
C663 C 0.74457 0.97788 0.97939 0.0
H664 H 0.76677 1.00851 0.06074 0.0
H665 H 0.72805 0.93548 0.02446 0.0
S666 S 0.79828 0.09786 0.93386 0.0
N667 N 0.81043 0.11478 0.97278 0.0
N668 N 0.76781 0.03606 0.9338 0.0
C669 C 0.7665 0.02662 0.96647 0.0
C670 C 0.78911 0.06933 0.98766 0.0
C671 C 0.81484 0.78475 0.499 0.0
C672 C 0.79873 0.73311 0.49784 0.0
C673 C 0.78715 0.80279 0.51569 0.0
C674 C 0.74274 0.77005 0.53218 0.0
H675 H 0.8473 0.81114 0.48513 0.0
H676 H 0.79761 0.84173 0.51284 0.0
S677 S 0.68851 0.63352 0.54216 0.0
N678 N 0.73831 0.65059 0.51887 0.0
N679 N 0.68743 0.68539 0.55039 0.0
C680 C 0.72944 0.71957 0.53449 0.0
C681 C 0.75707 0.70081 0.51727 0.0
C682 C 0.97457 0.71983 0.99274 0.0
C683 C 0.97868 0.72888 0.02681 0.0
C684 C 1.01726 0.74118 0.97236 0.0
C685 C 0.06575 0.77191 0.98527 0.0
H686 H 0.93839 0.69497 0.98191 0.0
H687 H 1.01247 0.73291 0.94633 0.0
S688 S 0.09632 0.81265 0.07188 0.0
N689 N 0.03501 0.7751 0.0718 0.0
N690 N 0.11467 0.81372 0.03365 0.0
C691 C 0.07018 0.78239 0.01901 0.0
C692 C 0.02685 0.76134 0.03968 0.0
C693 C 0.26386 0.97461 0.48424 0.0
C694 C 0.26787 0.97766 0.51866 0.0
C695 C 0.28252 0.01811 0.46489 0.0
C696 C 0.30649 0.06617 0.47924 0.0
H697 H 0.24421 0.93838 0.47237 0.0
H698 H 0.2776 0.01416 0.43852 0.0
S699 S 0.32918 0.09395 0.56833 0.0
N700 N 0.2999 0.03228 0.56616 0.0
N701 N 0.33448 0.11373 0.53008 0.0
C702 C 0.3124 0.06953 0.51358 0.0
C703 C 0.29317 0.02536 0.53319 0.0
C704 C 0.30706 0.30795 0.9898 0.0
C705 C 0.25516 0.2874 0.98575 0.0
C706 C 0.32675 0.28025 0.00435 0.0
C707 C 0.295 0.23118 0.01559 0.0
H708 H 0.33199 0.34722 0.98459 0.0
H709 H 0.36655 0.29883 0.00934 0.0
S710 S 0.15711 0.15791 0.00502 0.0
N711 N 0.17316 0.21377 0.99012 0.0
N712 N 0.20982 0.16072 0.01674 0.0
C713 C 0.24349 0.20871 0.00862 0.0
C714 C 0.22365 0.23707 0.99381 0.0
C715 C 1.00114 0.26658 0.54167 0.0
C716 C 0.05001 0.29055 0.52863 0.0
C717 C 0.95874 0.24479 0.52114 0.0
C718 C 0.96357 0.24527 0.48678 0.0
H719 H 0.99569 0.26427 0.56801 0.0
H720 H 0.92193 0.22588 0.53226 0.0
S721 S 0.08285 0.30487 0.44014 0.0
N722 N 0.10049 0.31472 0.47902 0.0
N723 N 0.021 0.27383 0.44056 0.0
C724 C 1.01214 0.27011 0.47339 0.0
C725 C 0.05529 0.2928 0.49427 0.0
loop_
_geom_bond_atom_site_label_1
_geom_bond_atom_site_label_2
_geom_bond_distance
_geom_bond_site_symmetry_2
_ccdc_geom_bond_type
Co0 N4 2.148 . S
Co0 N10 2.128 . S
Co0 N20 2.194 . S
Co0 O25 2.351 . S
Co0 O26 2.155 . S
Co0 O27 2.096 . S
C1 N4 1.301 . S
C1 N5 1.328 . S
C1 H6 0.930 . S
C2 C3 1.333 . S
C2 N4 1.317 . S
C2 H7 0.930 . S
C3 C2 1.333 . S
C3 N5 1.350 . S
C3 H29 0.931 . S
N4 Co0 2.148 . S
N4 C1 1.301 . S
N4 C2 1.317 . S
N5 C1 1.328 . S
N5 C3 1.350 . S
H6 C1 0.930 . S
H7 C2 0.930 . S
C8 O9 1.224 . S
C8 O27 1.247 . S
O9 C8 1.224 . S
N10 Co0 2.128 . S
N10 C11 1.355 . S
N10 C13 1.311 . S
C11 N10 1.355 . S
C11 C12 1.363 . S
C11 H23 0.929 . S
C12 C11 1.363 . S
C12 N14 1.375 . S
C12 H30 0.931 . S
C13 N10 1.311 . S
C13 N14 1.347 . S
C13 H24 0.929 . S
N14 C12 1.375 . S
N14 C13 1.347 . S
C15 C18 1.365 . S
C15 N20 1.328 . S
C15 H21 0.929 . S
C16 C17 1.362 . S
C16 C19 1.378 . S
C16 H31 0.929 . S
C17 C16 1.362 . S
C17 C18 1.366 . S
C18 C15 1.365 . S
C18 C17 1.366 . S
C18 H32 0.930 . S
C19 C16 1.378 . S
C19 N20 1.315 . S
C19 H22 0.930 . S
N20 Co0 2.194 . S
N20 C15 1.328 . S
N20 C19 1.315 . S
H21 C15 0.929 . S
H22 C19 0.930 . S
H23 C11 0.929 . S
H24 C13 0.929 . S
O25 Co0 2.351 . S
O25 C28 1.244 . S
O26 Co0 2.155 . S
O26 C28 1.240 . S
O27 Co0 2.096 . S
O27 C8 1.247 . S
C28 O25 1.244 . S
C28 O26 1.240 . S
H29 C3 0.931 . S
H30 C12 0.931 . S
H31 C16 0.929 . S
H32 C18 0.930 . S
Co33 N37 2.148 . S
Co33 N43 2.128 . S
Co33 N53 2.194 . S
Co33 O58 2.351 . S
Co33 O59 2.155 . S
Co33 O60 2.096 . S
C34 N37 1.301 . S
C34 N38 1.328 . S
C34 H39 0.930 . S
C35 C36 1.333 . S
C35 N37 1.317 . S
C35 H40 0.930 . S
C36 C35 1.333 . S
C36 N38 1.350 . S
C36 H62 0.931 . S
N37 Co33 2.148 . S
N37 C34 1.301 . S
N37 C35 1.317 . S
N38 C34 1.328 . S
N38 C36 1.350 . S
H39 C34 0.930 . S
H40 C35 0.930 . S
C41 O42 1.224 . S
C41 O60 1.247 . S
O42 C41 1.224 . S
N43 Co33 2.128 . S
N43 C44 1.355 . S
N43 C46 1.311 . S
C44 N43 1.355 . S
C44 C45 1.363 . S
C44 H56 0.929 . S
C45 C44 1.363 . S
C45 N47 1.375 . S
C45 H63 0.931 . S
C46 N43 1.311 . S
C46 N47 1.347 . S
C46 H57 0.929 . S
N47 C45 1.375 . S
N47 C46 1.347 . S
C48 C51 1.365 . S
C48 N53 1.328 . S
C48 H54 0.929 . S
C49 C50 1.362 . S
C49 C52 1.378 . S
C49 H64 0.929 . S
C50 C49 1.362 . S
C50 C51 1.366 . S
C51 C48 1.365 . S
C51 C50 1.366 . S
C51 H65 0.930 . S
C52 C49 1.378 . S
C52 N53 1.315 . S
C52 H55 0.930 . S
N53 Co33 2.194 . S
N53 C48 1.328 . S
N53 C52 1.315 . S
H54 C48 0.929 . S
H55 C52 0.930 . S
H56 C44 0.929 . S
H57 C46 0.929 . S
O58 Co33 2.351 . S
O58 C61 1.244 . S
O59 Co33 2.155 . S
O59 C61 1.240 . S
O60 Co33 2.096 . S
O60 C41 1.247 . S
C61 O58 1.244 . S
C61 O59 1.240 . S
H62 C36 0.931 . S
H63 C45 0.931 . S
H64 C49 0.929 . S
H65 C51 0.930 . S
Co66 N70 2.148 . S
Co66 N76 2.128 . S
Co66 N86 2.194 . S
Co66 O91 2.351 . S
Co66 O92 2.155 . S
Co66 O93 2.096 . S
C67 N70 1.301 . S
C67 N71 1.328 . S
C67 H72 0.930 . S
C68 C69 1.333 . S
C68 N70 1.317 . S
C68 H73 0.930 . S
C69 C68 1.333 . S
C69 N71 1.350 . S
C69 H95 0.931 . S
N70 Co66 2.148 . S
N70 C67 1.301 . S
N70 C68 1.317 . S
N71 C67 1.328 . S
N71 C69 1.350 . S
H72 C67 0.930 . S
H73 C68 0.930 . S
C74 O75 1.224 . S
C74 O93 1.247 . S
O75 C74 1.224 . S
N76 Co66 2.128 . S
N76 C77 1.355 . S
N76 C79 1.311 . S
C77 N76 1.355 . S
C77 C78 1.363 . S
C77 H89 0.929 . S
C78 C77 1.363 . S
C78 N80 1.375 . S
C78 H96 0.931 . S
C79 N76 1.311 . S
C79 N80 1.347 . S
C79 H90 0.929 . S
N80 C78 1.375 . S
N80 C79 1.347 . S
C81 C84 1.365 . S
C81 N86 1.328 . S
C81 H87 0.929 . S
C82 C83 1.362 . S
C82 C85 1.378 . S
C82 H97 0.929 . S
C83 C82 1.362 . S
C83 C84 1.366 . S
C84 C81 1.365 . S
C84 C83 1.366 . S
C84 H98 0.930 . S
C85 C82 1.378 . S
C85 N86 1.315 . S
C85 H88 0.930 . S
N86 Co66 2.194 . S
N86 C81 1.328 . S
N86 C85 1.315 . S
H87 C81 0.929 . S
H88 C85 0.930 . S
H89 C77 0.929 . S
H90 C79 0.929 . S
O91 Co66 2.351 . S
O91 C94 1.244 . S
O92 Co66 2.155 . S
O92 C94 1.240 . S
O93 Co66 2.096 . S
O93 C74 1.247 . S
C94 O91 1.244 . S
C94 O92 1.240 . S
H95 C69 0.931 . S
H96 C78 0.931 . S
H97 C82 0.929 . S
H98 C84 0.930 . S
Co99 N103 2.148 . S
Co99 N109 2.128 . S
Co99 N119 2.194 . S
Co99 O124 2.351 . S
Co99 O125 2.155 . S
Co99 O126 2.096 . S
C100 N103 1.301 . S
C100 N104 1.328 . S
C100 H105 0.930 . S
C101 C102 1.333 . S
C101 N103 1.317 . S
C101 H106 0.930 . S
C102 C101 1.333 . S
C102 N104 1.350 . S
C102 H128 0.931 . S
N103 Co99 2.148 . S
N103 C100 1.301 . S
N103 C101 1.317 . S
N104 C100 1.328 . S
N104 C102 1.350 . S
H105 C100 0.930 . S
H106 C101 0.930 . S
C107 O108 1.224 . S
C107 O126 1.247 . S
O108 C107 1.224 . S
N109 Co99 2.128 . S
N109 C110 1.355 . S
N109 C112 1.311 . S
C110 N109 1.355 . S
C110 C111 1.363 . S
C110 H122 0.929 . S
C111 C110 1.363 . S
C111 N113 1.375 . S
C111 H129 0.931 . S
C112 N109 1.311 . S
C112 N113 1.347 . S
C112 H123 0.929 . S
N113 C111 1.375 . S
N113 C112 1.347 . S
C114 C117 1.365 . S
C114 N119 1.328 . S
C114 H120 0.929 . S
C115 C116 1.362 . S
C115 C118 1.378 . S
C115 H130 0.929 . S
C116 C115 1.362 . S
C116 C117 1.366 . S
C117 C114 1.365 . S
C117 C116 1.366 . S
C117 H131 0.930 . S
C118 C115 1.378 . S
C118 N119 1.315 . S
C118 H121 0.930 . S
N119 Co99 2.194 . S
N119 C114 1.328 . S
N119 C118 1.315 . S
H120 C114 0.929 . S
H121 C118 0.930 . S
H122 C110 0.929 . S
H123 C112 0.929 . S
O124 Co99 2.351 . S
O124 C127 1.244 . S
O125 Co99 2.155 . S
O125 C127 1.240 . S
O126 Co99 2.096 . S
O126 C107 1.247 . S
C127 O124 1.244 . S
C127 O125 1.240 . S
H128 C102 0.931 . S
H129 C111 0.931 . S
H130 C115 0.929 . S
H131 C117 0.930 . S
Co132 N136 2.148 . S
Co132 N142 2.128 . S
Co132 N152 2.194 . S
Co132 O157 2.351 . S
Co132 O158 2.155 . S
Co132 O159 2.096 . S
C133 N136 1.301 . S
C133 N137 1.328 . S
C133 H138 0.930 . S
C134 C135 1.333 . S
C134 N136 1.317 . S
C134 H139 0.930 . S
C135 C134 1.333 . S
C135 N137 1.350 . S
C135 H161 0.931 . S
N136 Co132 2.148 . S
N136 C133 1.301 . S
N136 C134 1.317 . S
N137 C133 1.328 . S
N137 C135 1.350 . S
H138 C133 0.930 . S
H139 C134 0.930 . S
C140 O141 1.224 . S
C140 O159 1.247 . S
O141 C140 1.224 . S
N142 Co132 2.128 . S
N142 C143 1.355 . S
N142 C145 1.311 . S
C143 N142 1.355 . S
C143 C144 1.363 . S
C143 H155 0.929 . S
C144 C143 1.363 . S
C144 N146 1.375 . S
C144 H162 0.931 . S
C145 N142 1.311 . S
C145 N146 1.347 . S
C145 H156 0.929 . S
N146 C144 1.375 . S
N146 C145 1.347 . S
C147 C150 1.365 . S
C147 N152 1.328 . S
C147 H153 0.929 . S
C148 C149 1.362 . S
C148 C151 1.378 . S
C148 H163 0.929 . S
C149 C148 1.362 . S
C149 C150 1.366 . S
C150 C147 1.365 . S
C150 C149 1.366 . S
C150 H164 0.930 . S
C151 C148 1.378 . S
C151 N152 1.315 . S
C151 H154 0.930 . S
N152 Co132 2.194 . S
N152 C147 1.328 . S
N152 C151 1.315 . S
H153 C147 0.929 . S
H154 C151 0.930 . S
H155 C143 0.929 . S
H156 C145 0.929 . S
O157 Co132 2.351 . S
O157 C160 1.244 . S
O158 Co132 2.155 . S
O158 C160 1.240 . S
O159 Co132 2.096 . S
O159 C140 1.247 . S
C160 O157 1.244 . S
C160 O158 1.240 . S
H161 C135 0.931 . S
H162 C144 0.931 . S
H163 C148 0.929 . S
H164 C150 0.930 . S
Co165 N169 2.148 . S
Co165 N175 2.128 . S
Co165 N185 2.194 . S
Co165 O190 2.351 . S
Co165 O191 2.155 . S
Co165 O192 2.096 . S
C166 N169 1.301 . S
C166 N170 1.328 . S
C166 H171 0.930 . S
C167 C168 1.333 . S
C167 N169 1.317 . S
C167 H172 0.930 . S
C168 C167 1.333 . S
C168 N170 1.350 . S
C168 H194 0.931 . S
N169 Co165 2.148 . S
N169 C166 1.301 . S
N169 C167 1.317 . S
N170 C166 1.328 . S
N170 C168 1.350 . S
H171 C166 0.930 . S
H172 C167 0.930 . S
C173 O174 1.224 . S
C173 O192 1.247 . S
O174 C173 1.224 . S
N175 Co165 2.128 . S
N175 C176 1.355 . S
N175 C178 1.311 . S
C176 N175 1.355 . S
C176 C177 1.363 . S
C176 H188 0.929 . S
C177 C176 1.363 . S
C177 N179 1.375 . S
C177 H195 0.931 . S
C178 N175 1.311 . S
C178 N179 1.347 . S
C178 H189 0.929 . S
N179 C177 1.375 . S
N179 C178 1.347 . S
C180 C183 1.365 . S
C180 N185 1.328 . S
C180 H186 0.929 . S
C181 C182 1.362 . S
C181 C184 1.378 . S
C181 H196 0.929 . S
C182 C181 1.362 . S
C182 C183 1.366 . S
C183 C180 1.365 . S
C183 C182 1.366 . S
C183 H197 0.930 . S
C184 C181 1.378 . S
C184 N185 1.315 . S
C184 H187 0.930 . S
N185 Co165 2.194 . S
N185 C180 1.328 . S
N185 C184 1.315 . S
H186 C180 0.929 . S
H187 C184 0.930 . S
H188 C176 0.929 . S
H189 C178 0.929 . S
O190 Co165 2.351 . S
O190 C193 1.244 . S
O191 Co165 2.155 . S
O191 C193 1.240 . S
O192 Co165 2.096 . S
O192 C173 1.247 . S
C193 O190 1.244 . S
C193 O191 1.240 . S
H194 C168 0.931 . S
H195 C177 0.931 . S
H196 C181 0.929 . S
H197 C183 0.930 . S
Co198 N202 2.148 . S
Co198 N208 2.128 . S
Co198 N218 2.194 . S
Co198 O223 2.351 . S
Co198 O224 2.155 . S
Co198 O225 2.096 . S
C199 N202 1.301 . S
C199 N203 1.328 . S
C199 H204 0.930 . S
C200 C201 1.333 . S
C200 N202 1.317 . S
C200 H205 0.930 . S
C201 C200 1.333 . S
C201 N203 1.350 . S
C201 H227 0.931 . S
N202 Co198 2.148 . S
N202 C199 1.301 . S
N202 C200 1.317 . S
N203 C199 1.328 . S
N203 C201 1.350 . S
H204 C199 0.930 . S
H205 C200 0.930 . S
C206 O207 1.224 . S
C206 O225 1.247 . S
O207 C206 1.224 . S
N208 Co198 2.128 . S
N208 C209 1.355 . S
N208 C211 1.311 . S
C209 N208 1.355 . S
C209 C210 1.363 . S
C209 H221 0.929 . S
C210 C209 1.363 . S
C210 N212 1.375 . S
C210 H228 0.931 . S
C211 N208 1.311 . S
C211 N212 1.347 . S
C211 H222 0.929 . S
N212 C210 1.375 . S
N212 C211 1.347 . S
C213 C216 1.365 . S
C213 N218 1.328 . S
C213 H219 0.929 . S
C214 C215 1.362 . S
C214 C217 1.378 . S
C214 H229 0.929 . S
C215 C214 1.362 . S
C215 C216 1.366 . S
C216 C213 1.365 . S
C216 C215 1.366 . S
C216 H230 0.930 . S
C217 C214 1.378 . S
C217 N218 1.315 . S
C217 H220 0.930 . S
N218 Co198 2.194 . S
N218 C213 1.328 . S
N218 C217 1.315 . S
H219 C213 0.929 . S
H220 C217 0.930 . S
H221 C209 0.929 . S
H222 C211 0.929 . S
O223 Co198 2.351 . S
O223 C226 1.244 . S
O224 Co198 2.155 . S
O224 C226 1.240 . S
O225 Co198 2.096 . S
O225 C206 1.247 . S
C226 O223 1.244 . S
C226 O224 1.240 . S
H227 C201 0.931 . S
H228 C210 0.931 . S
H229 C214 0.929 . S
H230 C216 0.930 . S
Co231 N235 2.148 . S
Co231 N241 2.128 . S
Co231 N251 2.194 . S
Co231 O256 2.351 . S
Co231 O257 2.155 . S
Co231 O258 2.096 . S
C232 N235 1.301 . S
C232 N236 1.328 . S
C232 H237 0.930 . S
C233 C234 1.333 . S
C233 N235 1.317 . S
C233 H238 0.930 . S
C234 C233 1.333 . S
C234 N236 1.350 . S
C234 H260 0.931 . S
N235 Co231 2.148 . S
N235 C232 1.301 . S
N235 C233 1.317 . S
N236 C232 1.328 . S
N236 C234 1.350 . S
H237 C232 0.930 . S
H238 C233 0.930 . S
C239 O240 1.224 . S
C239 O258 1.247 . S
O240 C239 1.224 . S
N241 Co231 2.128 . S
N241 C242 1.355 . S
N241 C244 1.311 . S
C242 N241 1.355 . S
C242 C243 1.363 . S
C242 H254 0.929 . S
C243 C242 1.363 . S
C243 N245 1.375 . S
C243 H261 0.931 . S
C244 N241 1.311 . S
C244 N245 1.347 . S
C244 H255 0.929 . S
N245 C243 1.375 . S
N245 C244 1.347 . S
C246 C249 1.365 . S
C246 N251 1.328 . S
C246 H252 0.929 . S
C247 C248 1.362 . S
C247 C250 1.378 . S
C247 H262 0.929 . S
C248 C247 1.362 . S
C248 C249 1.366 . S
C249 C246 1.365 . S
C249 C248 1.366 . S
C249 H263 0.930 . S
C250 C247 1.378 . S
C250 N251 1.315 . S
C250 H253 0.930 . S
N251 Co231 2.194 . S
N251 C246 1.328 . S
N251 C250 1.315 . S
H252 C246 0.929 . S
H253 C250 0.930 . S
H254 C242 0.929 . S
H255 C244 0.929 . S
O256 Co231 2.351 . S
O256 C259 1.244 . S
O257 Co231 2.155 . S
O257 C259 1.240 . S
O258 Co231 2.096 . S
O258 C239 1.247 . S
C259 O256 1.244 . S
C259 O257 1.240 . S
H260 C234 0.931 . S
H261 C243 0.931 . S
H262 C247 0.929 . S
H263 C249 0.930 . S
Co264 N268 2.148 . S
Co264 N274 2.128 . S
Co264 N284 2.194 . S
Co264 O289 2.351 . S
Co264 O290 2.155 . S
Co264 O291 2.096 . S
C265 N268 1.301 . S
C265 N269 1.328 . S
C265 H270 0.930 . S
C266 C267 1.333 . S
C266 N268 1.317 . S
C266 H271 0.930 . S
C267 C266 1.333 . S
C267 N269 1.350 . S
C267 H293 0.931 . S
N268 Co264 2.148 . S
N268 C265 1.301 . S
N268 C266 1.317 . S
N269 C265 1.328 . S
N269 C267 1.350 . S
H270 C265 0.930 . S
H271 C266 0.930 . S
C272 O273 1.224 . S
C272 O291 1.247 . S
O273 C272 1.224 . S
N274 Co264 2.128 . S
N274 C275 1.355 . S
N274 C277 1.311 . S
C275 N274 1.355 . S
C275 C276 1.363 . S
C275 H287 0.929 . S
C276 C275 1.363 . S
C276 N278 1.375 . S
C276 H294 0.931 . S
C277 N274 1.311 . S
C277 N278 1.347 . S
C277 H288 0.929 . S
N278 C276 1.375 . S
N278 C277 1.347 . S
C279 C282 1.365 . S
C279 N284 1.328 . S
C279 H285 0.929 . S
C280 C281 1.362 . S
C280 C283 1.378 . S
C280 H295 0.929 . S
C281 C280 1.362 . S
C281 C282 1.366 . S
C282 C279 1.365 . S
C282 C281 1.366 . S
C282 H296 0.930 . S
C283 C280 1.378 . S
C283 N284 1.315 . S
C283 H286 0.930 . S
N284 Co264 2.194 . S
N284 C279 1.328 . S
N284 C283 1.315 . S
H285 C279 0.929 . S
H286 C283 0.930 . S
H287 C275 0.929 . S
H288 C277 0.929 . S
O289 Co264 2.351 . S
O289 C292 1.244 . S
O290 Co264 2.155 . S
O290 C292 1.240 . S
O291 Co264 2.096 . S
O291 C272 1.247 . S
C292 O289 1.244 . S
C292 O290 1.240 . S
H293 C267 0.931 . S
H294 C276 0.931 . S
H295 C280 0.929 . S
H296 C282 0.930 . S
Co297 N301 2.148 . S
Co297 N307 2.128 . S
Co297 N317 2.194 . S
Co297 O322 2.351 . S
Co297 O323 2.155 . S
Co297 O324 2.096 . S
C298 N301 1.301 . S
C298 N302 1.328 . S
C298 H303 0.930 . S
C299 C300 1.333 . S
C299 N301 1.317 . S
C299 H304 0.930 . S
C300 C299 1.333 . S
C300 N302 1.350 . S
C300 H326 0.931 . S
N301 Co297 2.148 . S
N301 C298 1.301 . S
N301 C299 1.317 . S
N302 C298 1.328 . S
N302 C300 1.350 . S
H303 C298 0.930 . S
H304 C299 0.930 . S
C305 O306 1.224 . S
C305 O324 1.247 . S
O306 C305 1.224 . S
N307 Co297 2.128 . S
N307 C308 1.355 . S
N307 C310 1.311 . S
C308 N307 1.355 . S
C308 C309 1.363 . S
C308 H320 0.929 . S
C309 C308 1.363 . S
C309 N311 1.375 . S
C309 H327 0.931 . S
C310 N307 1.311 . S
C310 N311 1.347 . S
C310 H321 0.929 . S
N311 C309 1.375 . S
N311 C310 1.347 . S
C312 C315 1.365 . S
C312 N317 1.328 . S
C312 H318 0.929 . S
C313 C314 1.362 . S
C313 C316 1.378 . S
C313 H328 0.929 . S
C314 C313 1.362 . S
C314 C315 1.366 . S
C315 C312 1.365 . S
C315 C314 1.366 . S
C315 H329 0.930 . S
C316 C313 1.378 . S
C316 N317 1.315 . S
C316 H319 0.930 . S
N317 Co297 2.194 . S
N317 C312 1.328 . S
N317 C316 1.315 . S
H318 C312 0.929 . S
H319 C316 0.930 . S
H320 C308 0.929 . S
H321 C310 0.929 . S
O322 Co297 2.351 . S
O322 C325 1.244 . S
O323 Co297 2.155 . S
O323 C325 1.240 . S
O324 Co297 2.096 . S
O324 C305 1.247 . S
C325 O322 1.244 . S
C325 O323 1.240 . S
H326 C300 0.931 . S
H327 C309 0.931 . S
H328 C313 0.929 . S
H329 C315 0.930 . S
Co330 N334 2.148 . S
Co330 N340 2.128 . S
Co330 N350 2.194 . S
Co330 O355 2.351 . S
Co330 O356 2.155 . S
Co330 O357 2.096 . S
C331 N334 1.301 . S
C331 N335 1.328 . S
C331 H336 0.930 . S
C332 C333 1.333 . S
C332 N334 1.317 . S
C332 H337 0.930 . S
C333 C332 1.333 . S
C333 N335 1.350 . S
C333 H359 0.931 . S
N334 Co330 2.148 . S
N334 C331 1.301 . S
N334 C332 1.317 . S
N335 C331 1.328 . S
N335 C333 1.350 . S
H336 C331 0.930 . S
H337 C332 0.930 . S
C338 O339 1.224 . S
C338 O357 1.247 . S
O339 C338 1.224 . S
N340 Co330 2.128 . S
N340 C341 1.355 . S
N340 C343 1.311 . S
C341 N340 1.355 . S
C341 C342 1.363 . S
C341 H353 0.929 . S
C342 C341 1.363 . S
C342 N344 1.375 . S
C342 H360 0.931 . S
C343 N340 1.311 . S
C343 N344 1.347 . S
C343 H354 0.929 . S
N344 C342 1.375 . S
N344 C343 1.347 . S
C345 C348 1.365 . S
C345 N350 1.328 . S
C345 H351 0.929 . S
C346 C347 1.362 . S
C346 C349 1.378 . S
C346 H361 0.929 . S
C347 C346 1.362 . S
C347 C348 1.366 . S
C348 C345 1.365 . S
C348 C347 1.366 . S
C348 H362 0.930 . S
C349 C346 1.378 . S
C349 N350 1.315 . S
C349 H352 0.930 . S
N350 Co330 2.194 . S
N350 C345 1.328 . S
N350 C349 1.315 . S
H351 C345 0.929 . S
H352 C349 0.930 . S
H353 C341 0.929 . S
H354 C343 0.929 . S
O355 Co330 2.351 . S
O355 C358 1.244 . S
O356 Co330 2.155 . S
O356 C358 1.240 . S
O357 Co330 2.096 . S
O357 C338 1.247 . S
C358 O355 1.244 . S
C358 O356 1.240 . S
H359 C333 0.931 . S
H360 C342 0.931 . S
H361 C346 0.929 . S
H362 C348 0.930 . S
Co363 N367 2.148 . S
Co363 N373 2.128 . S
Co363 N383 2.194 . S
Co363 O388 2.351 . S
Co363 O389 2.155 . S
Co363 O390 2.096 . S
C364 N367 1.301 . S
C364 N368 1.328 . S
C364 H369 0.930 . S
C365 C366 1.333 . S
C365 N367 1.317 . S
C365 H370 0.930 . S
C366 C365 1.333 . S
C366 N368 1.350 . S
C366 H392 0.931 . S
N367 Co363 2.148 . S
N367 C364 1.301 . S
N367 C365 1.317 . S
N368 C364 1.328 . S
N368 C366 1.350 . S
H369 C364 0.930 . S
H370 C365 0.930 . S
C371 O372 1.224 . S
C371 O390 1.247 . S
O372 C371 1.224 . S
N373 Co363 2.128 . S
N373 C374 1.355 . S
N373 C376 1.311 . S
C374 N373 1.355 . S
C374 C375 1.363 . S
C374 H386 0.929 . S
C375 C374 1.363 . S
C375 N377 1.375 . S
C375 H393 0.931 . S
C376 N373 1.311 . S
C376 N377 1.347 . S
C376 H387 0.929 . S
N377 C375 1.375 . S
N377 C376 1.347 . S
C378 C381 1.365 . S
C378 N383 1.328 . S
C378 H384 0.929 . S
C379 C380 1.362 . S
C379 C382 1.378 . S
C379 H394 0.929 . S
C380 C379 1.362 . S
C380 C381 1.366 . S
C381 C378 1.365 . S
C381 C380 1.366 . S
C381 H395 0.930 . S
C382 C379 1.378 . S
C382 N383 1.315 . S
C382 H385 0.930 . S
N383 Co363 2.194 . S
N383 C378 1.328 . S
N383 C382 1.315 . S
H384 C378 0.929 . S
H385 C382 0.930 . S
H386 C374 0.929 . S
H387 C376 0.929 . S
O388 Co363 2.351 . S
O388 C391 1.244 . S
O389 Co363 2.155 . S
O389 C391 1.240 . S
O390 Co363 2.096 . S
O390 C371 1.247 . S
C391 O388 1.244 . S
C391 O389 1.240 . S
H392 C366 0.931 . S
H393 C375 0.931 . S
H394 C379 0.929 . S
H395 C381 0.930 . S
C396 C397 1.369 . S
C396 C398 1.419 . S
C396 H400 0.930 . S
C397 C396 1.369 . S
C397 C406 1.429 . S
C398 C396 1.419 . S
C398 C399 1.363 . S
C398 H401 0.929 . S
C399 C398 1.363 . S
C399 C405 1.428 . S
H400 C396 0.930 . S
H401 C398 0.929 . S
S402 N403 1.613 . S
S402 N404 1.610 . S
N403 S402 1.613 . S
N403 C406 1.350 . S
N404 S402 1.610 . S
N404 C405 1.351 . S
C405 C399 1.428 . S
C405 N404 1.351 . S
C405 C406 1.434 . S
C406 C397 1.429 . S
C406 N403 1.350 . S
C406 C405 1.434 . S
C407 C408 1.369 . S
C407 C409 1.419 . S
C407 H411 0.930 . S
C408 C407 1.369 . S
C408 C417 1.429 . S
C409 C407 1.419 . S
C409 C410 1.363 . S
C409 H412 0.929 . S
C410 C409 1.363 . S
C410 C416 1.428 . S
H411 C407 0.930 . S
H412 C409 0.929 . S
S413 N414 1.613 . S
S413 N415 1.610 . S
N414 S413 1.613 . S
N414 C417 1.350 . S
N415 S413 1.610 . S
N415 C416 1.351 . S
C416 C410 1.428 . S
C416 N415 1.351 . S
C416 C417 1.434 . S
C417 C408 1.429 . S
C417 N414 1.350 . S
C417 C416 1.434 . S
C418 C419 1.369 . S
C418 C420 1.419 . S
C418 H422 0.930 . S
C419 C418 1.369 . S
C419 C428 1.429 . S
C420 C418 1.419 . S
C420 C421 1.363 . S
C420 H423 0.929 . S
C421 C420 1.363 . S
C421 C427 1.428 . S
H422 C418 0.930 . S
H423 C420 0.929 . S
S424 N425 1.613 . S
S424 N426 1.610 . S
N425 S424 1.613 . S
N425 C428 1.350 . S
N426 S424 1.610 . S
N426 C427 1.351 . S
C427 C421 1.428 . S
C427 N426 1.351 . S
C427 C428 1.434 . S
C428 C419 1.429 . S
C428 N425 1.350 . S
C428 C427 1.434 . S
C429 C430 1.369 . S
C429 C431 1.419 . S
C429 H433 0.930 . S
C430 C429 1.369 . S
C430 C439 1.429 . S
C431 C429 1.419 . S
C431 C432 1.363 . S
C431 H434 0.929 . S
C432 C431 1.363 . S
C432 C438 1.428 . S
H433 C429 0.930 . S
H434 C431 0.929 . S
S435 N436 1.613 . S
S435 N437 1.610 . S
N436 S435 1.613 . S
N436 C439 1.350 . S
N437 S435 1.610 . S
N437 C438 1.351 . S
C438 C432 1.428 . S
C438 N437 1.351 . S
C438 C439 1.434 . S
C439 C430 1.429 . S
C439 N436 1.350 . S
C439 C438 1.434 . S
C440 C441 1.369 . S
C440 C442 1.419 . S
C440 H444 0.930 . S
C441 C440 1.369 . S
C441 C450 1.429 . S
C442 C440 1.419 . S
C442 C443 1.363 . S
C442 H445 0.929 . S
C443 C442 1.363 . S
C443 C449 1.428 . S
H444 C440 0.930 . S
H445 C442 0.929 . S
S446 N447 1.613 . S
S446 N448 1.610 . S
N447 S446 1.613 . S
N447 C450 1.350 . S
N448 S446 1.610 . S
N448 C449 1.351 . S
C449 C443 1.428 . S
C449 N448 1.351 . S
C449 C450 1.434 . S
C450 C441 1.429 . S
C450 N447 1.350 . S
C450 C449 1.434 . S
C451 C452 1.369 . S
C451 C453 1.419 . S
C451 H455 0.930 . S
C452 C451 1.369 . S
C452 C461 1.429 . S
C453 C451 1.419 . S
C453 C454 1.363 . S
C453 H456 0.929 . S
C454 C453 1.363 . S
C454 C460 1.428 . S
H455 C451 0.930 . S
H456 C453 0.929 . S
S457 N458 1.613 . S
S457 N459 1.610 . S
N458 S457 1.613 . S
N458 C461 1.350 . S
N459 S457 1.610 . S
N459 C460 1.351 . S
C460 C454 1.428 . S
C460 N459 1.351 . S
C460 C461 1.434 . S
C461 C452 1.429 . S
C461 N458 1.350 . S
C461 C460 1.434 . S
C462 C463 1.369 . S
C462 C464 1.419 . S
C462 H466 0.930 . S
C463 C462 1.369 . S
C463 C472 1.429 . S
C464 C462 1.419 . S
C464 C465 1.363 . S
C464 H467 0.929 . S
C465 C464 1.363 . S
C465 C471 1.428 . S
H466 C462 0.930 . S
H467 C464 0.929 . S
S468 N469 1.613 . S
S468 N470 1.610 . S
N469 S468 1.613 . S
N469 C472 1.350 . S
N470 S468 1.610 . S
N470 C471 1.351 . S
C471 C465 1.428 . S
C471 N470 1.351 . S
C471 C472 1.434 . S
C472 C463 1.429 . S
C472 N469 1.350 . S
C472 C471 1.434 . S
C473 C474 1.369 . S
C473 C475 1.419 . S
C473 H477 0.930 . S
C474 C473 1.369 . S
C474 C483 1.429 . S
C475 C473 1.419 . S
C475 C476 1.363 . S
C475 H478 0.929 . S
C476 C475 1.363 . S
C476 C482 1.428 . S
H477 C473 0.930 . S
H478 C475 0.929 . S
S479 N480 1.613 . S
S479 N481 1.610 . S
N480 S479 1.613 . S
N480 C483 1.350 . S
N481 S479 1.610 . S
N481 C482 1.351 . S
C482 C476 1.428 . S
C482 N481 1.351 . S
C482 C483 1.434 . S
C483 C474 1.429 . S
C483 N480 1.350 . S
C483 C482 1.434 . S
C484 C485 1.369 . S
C484 C486 1.419 . S
C484 H488 0.930 . S
C485 C484 1.369 . S
C485 C494 1.429 . S
C486 C484 1.419 . S
C486 C487 1.363 . S
C486 H489 0.929 . S
C487 C486 1.363 . S
C487 C493 1.428 . S
H488 C484 0.930 . S
H489 C486 0.929 . S
S490 N491 1.613 . S
S490 N492 1.610 . S
N491 S490 1.613 . S
N491 C494 1.350 . S
N492 S490 1.610 . S
N492 C493 1.351 . S
C493 C487 1.428 . S
C493 N492 1.351 . S
C493 C494 1.434 . S
C494 C485 1.429 . S
C494 N491 1.350 . S
C494 C493 1.434 . S
C495 C496 1.369 . S
C495 C497 1.419 . S
C495 H499 0.930 . S
C496 C495 1.369 . S
C496 C505 1.429 . S
C497 C495 1.419 . S
C497 C498 1.363 . S
C497 H500 0.929 . S
C498 C497 1.363 . S
C498 C504 1.428 . S
H499 C495 0.930 . S
H500 C497 0.929 . S
S501 N502 1.613 . S
S501 N503 1.610 . S
N502 S501 1.613 . S
N502 C505 1.350 . S
N503 S501 1.610 . S
N503 C504 1.351 . S
C504 C498 1.428 . S
C504 N503 1.351 . S
C504 C505 1.434 . S
C505 C496 1.429 . S
C505 N502 1.350 . S
C505 C504 1.434 . S
C506 C507 1.369 . S
C506 C508 1.419 . S
C506 H510 0.930 . S
C507 C506 1.369 . S
C507 C516 1.429 . S
C508 C506 1.419 . S
C508 C509 1.363 . S
C508 H511 0.929 . S
C509 C508 1.363 . S
C509 C515 1.428 . S
H510 C506 0.930 . S
H511 C508 0.929 . S
S512 N513 1.613 . S
S512 N514 1.610 . S
N513 S512 1.613 . S
N513 C516 1.350 . S
N514 S512 1.610 . S
N514 C515 1.351 . S
C515 C509 1.428 . S
C515 N514 1.351 . S
C515 C516 1.434 . S
C516 C507 1.429 . S
C516 N513 1.350 . S
C516 C515 1.434 . S
C517 C518 1.369 . S
C517 C519 1.419 . S
C517 H521 0.930 . S
C518 C517 1.369 . S
C518 C527 1.429 . S
C519 C517 1.419 . S
C519 C520 1.363 . S
C519 H522 0.929 . S
C520 C519 1.363 . S
C520 C526 1.428 . S
H521 C517 0.930 . S
H522 C519 0.929 . S
S523 N524 1.613 . S
S523 N525 1.610 . S
N524 S523 1.613 . S
N524 C527 1.350 . S
N525 S523 1.610 . S
N525 C526 1.351 . S
C526 C520 1.428 . S
C526 N525 1.351 . S
C526 C527 1.434 . S
C527 C518 1.429 . S
C527 N524 1.350 . S
C527 C526 1.434 . S
C528 C529 1.369 . S
C528 C530 1.419 . S
C528 H532 0.930 . S
C529 C528 1.369 . S
C529 C538 1.429 . S
C530 C528 1.419 . S
C530 C531 1.363 . S
C530 H533 0.929 . S
C531 C530 1.363 . S
C531 C537 1.428 . S
H532 C528 0.930 . S
H533 C530 0.929 . S
S534 N535 1.613 . S
S534 N536 1.610 . S
N535 S534 1.613 . S
N535 C538 1.350 . S
N536 S534 1.610 . S
N536 C537 1.351 . S
C537 C531 1.428 . S
C537 N536 1.351 . S
C537 C538 1.434 . S
C538 C529 1.429 . S
C538 N535 1.350 . S
C538 C537 1.434 . S
C539 C540 1.369 . S
C539 C541 1.419 . S
C539 H543 0.930 . S
C540 C539 1.369 . S
C540 C549 1.429 . S
C541 C539 1.419 . S
C541 C542 1.363 . S
C541 H544 0.929 . S
C542 C541 1.363 . S
C542 C548 1.428 . S
H543 C539 0.930 . S
H544 C541 0.929 . S
S545 N546 1.613 . S
S545 N547 1.610 . S
N546 S545 1.613 . S
N546 C549 1.350 . S
N547 S545 1.610 . S
N547 C548 1.351 . S
C548 C542 1.428 . S
C548 N547 1.351 . S
C548 C549 1.434 . S
C549 C540 1.429 . S
C549 N546 1.350 . S
C549 C548 1.434 . S
C550 C551 1.369 . S
C550 C552 1.419 . S
C550 H554 0.930 . S
C551 C550 1.369 . S
C551 C560 1.429 . S
C552 C550 1.419 . S
C552 C553 1.363 . S
C552 H555 0.929 . S
C553 C552 1.363 . S
C553 C559 1.428 . S
H554 C550 0.930 . S
H555 C552 0.929 . S
S556 N557 1.613 . S
S556 N558 1.610 . S
N557 S556 1.613 . S
N557 C560 1.350 . S
N558 S556 1.610 . S
N558 C559 1.351 . S
C559 C553 1.428 . S
C559 N558 1.351 . S
C559 C560 1.434 . S
C560 C551 1.429 . S
C560 N557 1.350 . S
C560 C559 1.434 . S
C561 C562 1.369 . S
C561 C563 1.419 . S
C561 H565 0.930 . S
C562 C561 1.369 . S
C562 C571 1.429 . S
C563 C561 1.419 . S
C563 C564 1.363 . S
C563 H566 0.929 . S
C564 C563 1.363 . S
C564 C570 1.428 . S
H565 C561 0.930 . S
H566 C563 0.929 . S
S567 N568 1.613 . S
S567 N569 1.610 . S
N568 S567 1.613 . S
N568 C571 1.350 . S
N569 S567 1.610 . S
N569 C570 1.351 . S
C570 C564 1.428 . S
C570 N569 1.351 . S
C570 C571 1.434 . S
C571 C562 1.429 . S
C571 N568 1.350 . S
C571 C570 1.434 . S
C572 C573 1.369 . S
C572 C574 1.419 . S
C572 H576 0.930 . S
C573 C572 1.369 . S
C573 C582 1.429 . S
C574 C572 1.419 . S
C574 C575 1.363 . S
C574 H577 0.929 . S
C575 C574 1.363 . S
C575 C581 1.428 . S
H576 C572 0.930 . S
H577 C574 0.929 . S
S578 N579 1.613 . S
S578 N580 1.610 . S
N579 S578 1.613 . S
N579 C582 1.350 . S
N580 S578 1.610 . S
N580 C581 1.351 . S
C581 C575 1.428 . S
C581 N580 1.351 . S
C581 C582 1.434 . S
C582 C573 1.429 . S
C582 N579 1.350 . S
C582 C581 1.434 . S
C583 C584 1.369 . S
C583 C585 1.419 . S
C583 H587 0.930 . S
C584 C583 1.369 . S
C584 C593 1.429 . S
C585 C583 1.419 . S
C585 C586 1.363 . S
C585 H588 0.929 . S
C586 C585 1.363 . S
C586 C592 1.428 . S
H587 C583 0.930 . S
H588 C585 0.929 . S
S589 N590 1.613 . S
S589 N591 1.610 . S
N590 S589 1.613 . S
N590 C593 1.350 . S
N591 S589 1.610 . S
N591 C592 1.351 . S
C592 C586 1.428 . S
C592 N591 1.351 . S
C592 C593 1.434 . S
C593 C584 1.429 . S
C593 N590 1.350 . S
C593 C592 1.434 . S
C594 C595 1.369 . S
C594 C596 1.419 1_566 S
C594 H598 0.930 . S
C595 C594 1.369 . S
C595 C604 1.429 . S
C596 C594 1.419 1_544 S
C596 C597 1.363 . S
C596 H599 0.929 . S
C597 C596 1.363 . S
C597 C603 1.438 . S
H598 C594 0.930 . S
H599 C596 0.929 . S
S600 N601 1.613 1_545 S
S600 N602 1.610 . S
N601 S600 1.613 1_565 S
N601 C604 1.350 . S
N602 S600 1.610 . S
N602 C603 1.350 1_556 S
C603 C597 1.438 . S
C603 N602 1.350 1_554 S
C603 C604 1.425 1_544 S
C604 C595 1.429 . S
C604 N601 1.350 . S
C604 C603 1.425 1_566 S
C605 C606 1.369 . S
C605 C607 1.419 . S
C605 H609 0.930 . S
C606 C605 1.369 . S
C606 C615 1.429 . S
C607 C605 1.419 . S
C607 C608 1.363 . S
C607 H610 0.929 . S
C608 C607 1.363 . S
C608 C614 1.428 . S
H609 C605 0.930 . S
H610 C607 0.929 . S
S611 N612 1.613 . S
S611 N613 1.610 . S
N612 S611 1.613 . S
N612 C615 1.350 . S
N613 S611 1.610 . S
N613 C614 1.351 . S
C614 C608 1.428 . S
C614 N613 1.351 . S
C614 C615 1.434 . S
C615 C606 1.429 . S
C615 N612 1.350 . S
C615 C614 1.434 . S
C616 C617 1.369 . S
C616 C618 1.419 1_654 S
C616 H620 0.930 . S
C617 C616 1.369 . S
C617 C626 1.429 . S
C618 C616 1.419 1_456 S
C618 C619 1.363 . S
C618 H621 0.929 . S
C619 C618 1.363 . S
C619 C625 1.428 . S
H620 C616 0.930 . S
H621 C618 0.929 . S
S622 N623 1.613 1_556 S
S622 N624 1.610 1_655 S
N623 S622 1.613 1_554 S
N623 C626 1.350 . S
N624 S622 1.610 1_455 S
N624 C625 1.351 . S
C625 C619 1.428 . S
C625 N624 1.351 . S
C625 C626 1.434 1_456 S
C626 C617 1.429 . S
C626 N623 1.350 . S
C626 C625 1.434 1_654 S
C627 C628 1.369 . S
C627 C629 1.419 1_565 S
C627 H631 0.930 . S
C628 C627 1.369 . S
C628 C637 1.429 . S
C629 C627 1.419 1_545 S
C629 C630 1.363 . S
C629 H632 0.929 . S
C630 C629 1.363 . S
C630 C636 1.428 . S
H631 C627 0.930 . S
H632 C629 0.929 . S
S633 N634 1.613 . S
S633 N635 1.610 1_565 S
N634 S633 1.613 . S
N634 C637 1.350 . S
N635 S633 1.610 1_545 S
N635 C636 1.351 . S
C636 C630 1.428 . S
C636 N635 1.351 . S
C636 C637 1.434 1_545 S
C637 C628 1.429 . S
C637 N634 1.350 . S
C637 C636 1.434 1_565 S
C638 C639 1.369 1_556 S
C638 C640 1.419 . S
C638 H642 0.930 . S
C639 C638 1.369 1_554 S
C639 C648 1.429 . S
C640 C638 1.419 . S
C640 C641 1.363 . S
C640 H643 0.929 . S
C641 C640 1.363 . S
C641 C647 1.428 1_556 S
H642 C638 0.930 . S
H643 C640 0.929 . S
S644 N645 1.613 . S
S644 N646 1.610 . S
N645 S644 1.613 . S
N645 C648 1.350 . S
N646 S644 1.610 . S
N646 C647 1.351 . S
C647 C641 1.428 1_554 S
C647 N646 1.351 . S
C647 C648 1.434 . S
C648 C639 1.429 . S
C648 N645 1.350 . S
C648 C647 1.434 . S
C649 C650 1.369 . S
C649 C651 1.419 1_655 S
C649 H653 0.930 . S
C650 C649 1.369 . S
C650 C659 1.429 . S
C651 C649 1.419 1_455 S
C651 C652 1.363 . S
C651 H654 0.929 . S
C652 C651 1.363 . S
C652 C658 1.428 . S
H653 C649 0.930 . S
H654 C651 0.929 . S
S655 N656 1.613 1_455 S
S655 N657 1.610 . S
N656 S655 1.613 1_655 S
N656 C659 1.350 . S
N657 S655 1.610 . S
N657 C658 1.351 . S
C658 C652 1.428 . S
C658 N657 1.351 . S
C658 C659 1.434 1_455 S
C659 C650 1.429 . S
C659 N656 1.350 . S
C659 C658 1.434 1_655 S
C660 C661 1.369 1_565 S
C660 C662 1.419 . S
C660 H664 0.930 . S
C661 C660 1.369 1_545 S
C661 C670 1.429 1_554 S
C662 C660 1.419 . S
C662 C663 1.363 1_554 S
C662 H665 0.929 . S
C663 C662 1.363 1_556 S
C663 C669 1.428 1_565 S
H664 C660 0.930 . S
H665 C662 0.929 . S
S666 N667 1.613 . S
S666 N668 1.610 . S
N667 S666 1.613 . S
N667 C670 1.350 . S
N668 S666 1.610 . S
N668 C669 1.351 . S
C669 C663 1.428 1_545 S
C669 N668 1.351 . S
C669 C670 1.434 . S
C670 C661 1.429 1_556 S
C670 N667 1.350 . S
C670 C669 1.434 . S
C671 C672 1.369 . S
C671 C673 1.419 . S
C671 H675 0.930 . S
C672 C671 1.369 . S
C672 C681 1.429 . S
C673 C671 1.419 . S
C673 C674 1.363 . S
C673 H676 0.929 . S
C674 C673 1.363 . S
C674 C680 1.428 . S
H675 C671 0.930 . S
H676 C673 0.929 . S
S677 N678 1.613 . S
S677 N679 1.610 . S
N678 S677 1.613 . S
N678 C681 1.350 . S
N679 S677 1.610 . S
N679 C680 1.351 . S
C680 C674 1.428 . S
C680 N679 1.351 . S
C680 C681 1.434 . S
C681 C672 1.429 . S
C681 N678 1.350 . S
C681 C680 1.434 . S
C682 C683 1.369 1_556 S
C682 C684 1.419 . S
C682 H686 0.930 . S
C683 C682 1.369 1_554 S
C683 C692 1.429 1_655 S
C684 C682 1.419 . S
C684 C685 1.363 1_655 S
C684 H687 0.929 . S
C685 C684 1.363 1_455 S
C685 C691 1.428 1_556 S
H686 C682 0.930 . S
H687 C684 0.929 . S
S688 N689 1.613 . S
S688 N690 1.610 . S
N689 S688 1.613 . S
N689 C692 1.350 . S
N690 S688 1.610 . S
N690 C691 1.351 . S
C691 C685 1.428 1_554 S
C691 N690 1.351 . S
C691 C692 1.434 . S
C692 C683 1.429 1_455 S
C692 N689 1.350 . S
C692 C691 1.434 . S
C693 C694 1.369 . S
C693 C695 1.419 . S
C693 H697 0.930 . S
C694 C693 1.369 . S
C694 C703 1.429 1_565 S
C695 C693 1.419 . S
C695 C696 1.363 1_565 S
C695 H698 0.929 . S
C696 C695 1.363 1_545 S
C696 C702 1.428 . S
H697 C693 0.930 . S
H698 C695 0.929 . S
S699 N700 1.613 . S
S699 N701 1.610 . S
N700 S699 1.613 . S
N700 C703 1.350 . S
N701 S699 1.610 . S
N701 C702 1.351 . S
C702 C696 1.428 . S
C702 N701 1.351 . S
C702 C703 1.434 . S
C703 C694 1.429 1_545 S
C703 N700 1.350 . S
C703 C702 1.434 . S
C704 C705 1.369 . S
C704 C706 1.419 . S
C704 H708 0.930 . S
C705 C704 1.369 . S
C705 C714 1.429 1_556 S
C706 C704 1.419 . S
C706 C707 1.363 1_556 S
C706 H709 0.929 . S
C707 C706 1.363 1_554 S
C707 C713 1.428 . S
H708 C704 0.930 . S
H709 C706 0.929 . S
S710 N711 1.613 . S
S710 N712 1.610 . S
N711 S710 1.613 . S
N711 C714 1.350 . S
N712 S710 1.610 . S
N712 C713 1.351 . S
C713 C707 1.428 . S
C713 N712 1.351 . S
C713 C714 1.434 . S
C714 C705 1.429 1_554 S
C714 N711 1.350 . S
C714 C713 1.434 . S
C715 C716 1.369 1_655 S
C715 C717 1.419 . S
C715 H719 0.930 . S
C716 C715 1.369 1_455 S
C716 C725 1.429 . S
C717 C715 1.419 . S
C717 C718 1.363 . S
C717 H720 0.929 . S
C718 C717 1.363 . S
C718 C724 1.428 1_655 S
H719 C715 0.930 . S
H720 C717 0.929 . S
S721 N722 1.613 . S
S721 N723 1.610 . S
N722 S721 1.613 . S
N722 C725 1.350 . S
N723 S721 1.610 . S
N723 C724 1.351 . S
C724 C718 1.428 1_455 S
C724 N723 1.351 . S
C724 C725 1.434 . S
C725 C716 1.429 . S
C725 N722 1.350 . S
C725 C724 1.434 . S
C397 C74 1.685 . S
C399 N14 1.757 . S
C408 N47 1.759 . S
C410 C107 1.681 . S
C419 N80 1.755 . S
C421 C140 1.687 . S
C430 N113 1.761 . S
C432 C173 1.679 . S
C441 N146 1.761 . S
C443 C8 1.679 . S
C452 C41 1.678 . S
C454 N179 1.760 . S
C463 N212 1.757 . S
C465 C338 1.683 . S
C474 N245 1.758 . S
C476 C371 1.682 . S
C485 C206 1.680 . S
C487 N278 1.759 . S
C496 C239 1.680 . S
C498 N311 1.759 . S
C507 C272 1.686 . S
C509 N344 1.756 . S
C518 C305 1.687 . S
C520 N377 1.756 . S
C529 C281 1.456 . S
C531 C17 1.453 . S
C540 C50 1.458 . S
C542 C314 1.453 . S
C551 C347 1.455 . S
C553 C83 1.458 . S
C562 C380 1.455 . S
C564 C116 1.458 . S
C573 C149 1.459 . S
C575 C215 1.455 . S
C584 C248 1.459 . S
C586 C182 1.454 . S
C595 C259 1.489 . S
C597 C28 1.492 . S
C606 C61 1.488 . S
C608 C292 1.492 . S
C617 C94 1.490 . S
C619 C325 1.488 . S
C628 C127 1.493 . S
C630 C358 1.488 . S
C639 C160 1.488 . S
C641 C391 1.492 . S
C650 C226 1.487 . S
C652 C193 1.489 . S
C661 N71 1.483 . S
C663 N368 1.490 . S
C672 N203 1.480 . S
C674 N104 1.487 . S
C683 N137 1.492 . S
C685 N236 1.485 . S
C694 N170 1.493 . S
C696 N269 1.486 . S
C705 N302 1.481 . S
C707 N5 1.489 . S
C716 N38 1.483 . S
C718 N335 1.490 . S
