# Generated by pormake.
# Topology fcg, (5)-cn, num edge types: 1
# Building blocks:
#     Node 0, Type 0, BuildingBlock: BEQFEK_clean_sbu_0, # of connection points: 5
#     Node 1, Type 0, BuildingBlock: BEQFEK_clean_sbu_0, # of connection points: 5
#     Node 2, Type 0, BuildingBlock: BEQFEK_clean_sbu_0, # of connection points: 5
#     Node 3, Type 0, BuildingBlock: BEQFEK_clean_sbu_0, # of connection points: 5
#     Node 4, Type 0, BuildingBlock: BEQFEK_clean_sbu_0, # of connection points: 5
#     Node 5, Type 0, BuildingBlock: BEQFEK_clean_sbu_0, # of connection points: 5
#     Node 6, Type 0, BuildingBlock: BEQFEK_clean_sbu_0, # of connection points: 5
#     Node 7, Type 0, BuildingBlock: BEQFEK_clean_sbu_0, # of connection points: 5
#     Node 8, Type 0, BuildingBlock: BEQFEK_clean_sbu_0, # of connection points: 5
#     Node 9, Type 0, BuildingBlock: BEQFEK_clean_sbu_0, # of connection points: 5
#     Node 10, Type 0, BuildingBlock: BEQFEK_clean_sbu_0, # of connection points: 5
#     Node 11, Type 0, BuildingBlock: BEQFEK_clean_sbu_0, # of connection points: 5
#     Node 12, Type 0, BuildingBlock: BEQFEK_clean_sbu_0, # of connection points: 5
#     Node 13, Type 0, BuildingBlock: BEQFEK_clean_sbu_0, # of connection points: 5
#     Node 14, Type 0, BuildingBlock: BEQFEK_clean_sbu_0, # of connection points: 5
#     Node 15, Type 0, BuildingBlock: BEQFEK_clean_sbu_0, # of connection points: 5
#     Node 16, Type 0, BuildingBlock: BEQFEK_clean_sbu_0, # of connection points: 5
#     Node 17, Type 0, BuildingBlock: BEQFEK_clean_sbu_0, # of connection points: 5
#     Node 18, Type 0, BuildingBlock: BEQFEK_clean_sbu_0, # of connection points: 5
#     Node 19, Type 0, BuildingBlock: BEQFEK_clean_sbu_0, # of connection points: 5
#     Node 20, Type 0, BuildingBlock: BEQFEK_clean_sbu_0, # of connection points: 5
#     Node 21, Type 0, BuildingBlock: BEQFEK_clean_sbu_0, # of connection points: 5
#     Node 22, Type 0, BuildingBlock: BEQFEK_clean_sbu_0, # of connection points: 5
#     Node 23, Type 0, BuildingBlock: BEQFEK_clean_sbu_0, # of connection points: 5
#     Node 24, Type 0, BuildingBlock: BEQFEK_clean_sbu_0, # of connection points: 5
#     Node 25, Type 0, BuildingBlock: BEQFEK_clean_sbu_0, # of connection points: 5
#     Node 26, Type 0, BuildingBlock: BEQFEK_clean_sbu_0, # of connection points: 5
#     Node 27, Type 0, BuildingBlock: BEQFEK_clean_sbu_0, # of connection points: 5
#     Node 28, Type 0, BuildingBlock: BEQFEK_clean_sbu_0, # of connection points: 5
#     Node 29, Type 0, BuildingBlock: BEQFEK_clean_sbu_0, # of connection points: 5
#     Node 30, Type 0, BuildingBlock: BEQFEK_clean_sbu_0, # of connection points: 5
#     Node 31, Type 0, BuildingBlock: BEQFEK_clean_sbu_0, # of connection points: 5
#     Node 32, Type 0, BuildingBlock: BEQFEK_clean_sbu_0, # of connection points: 5
#     Node 33, Type 0, BuildingBlock: BEQFEK_clean_sbu_0, # of connection points: 5
#     Node 34, Type 0, BuildingBlock: BEQFEK_clean_sbu_0, # of connection points: 5
#     Node 35, Type 0, BuildingBlock: BEQFEK_clean_sbu_0, # of connection points: 5
#     Node 36, Type 0, BuildingBlock: BEQFEK_clean_sbu_0, # of connection points: 5
#     Node 37, Type 0, BuildingBlock: BEQFEK_clean_sbu_0, # of connection points: 5
#     Node 38, Type 0, BuildingBlock: BEQFEK_clean_sbu_0, # of connection points: 5
#     Node 39, Type 0, BuildingBlock: BEQFEK_clean_sbu_0, # of connection points: 5
#     Node 40, Type 0, BuildingBlock: BEQFEK_clean_sbu_0, # of connection points: 5
#     Node 41, Type 0, BuildingBlock: BEQFEK_clean_sbu_0, # of connection points: 5
#     Node 42, Type 0, BuildingBlock: BEQFEK_clean_sbu_0, # of connection points: 5
#     Node 43, Type 0, BuildingBlock: BEQFEK_clean_sbu_0, # of connection points: 5
#     Node 44, Type 0, BuildingBlock: BEQFEK_clean_sbu_0, # of connection points: 5
#     Node 45, Type 0, BuildingBlock: BEQFEK_clean_sbu_0, # of connection points: 5
#     Node 46, Type 0, BuildingBlock: BEQFEK_clean_sbu_0, # of connection points: 5
#     Node 47, Type 0, BuildingBlock: BEQFEK_clean_sbu_0, # of connection points: 5
#     Edge 48, Type (0, 0), BuildingBlock: XIVTED_clean_linker_0, # of connection points: 2
#     Edge 49, Type (0, 0), BuildingBlock: XIVTED_clean_linker_0, # of connection points: 2
#     Edge 50, Type (0, 0), BuildingBlock: XIVTED_clean_linker_0, # of connection points: 2
#     Edge 51, Type (0, 0), BuildingBlock: XIVTED_clean_linker_0, # of connection points: 2
#     Edge 52, Type (0, 0), BuildingBlock: XIVTED_clean_linker_0, # of connection points: 2
#     Edge 53, Type (0, 0), BuildingBlock: XIVTED_clean_linker_0, # of connection points: 2
#     Edge 54, Type (0, 0), BuildingBlock: XIVTED_clean_linker_0, # of connection points: 2
#     Edge 55, Type (0, 0), BuildingBlock: XIVTED_clean_linker_0, # of connection points: 2
#     Edge 56, Type (0, 0), BuildingBlock: XIVTED_clean_linker_0, # of connection points: 2
#     Edge 57, Type (0, 0), BuildingBlock: XIVTED_clean_linker_0, # of connection points: 2
#     Edge 58, Type (0, 0), BuildingBlock: XIVTED_clean_linker_0, # of connection points: 2
#     Edge 59, Type (0, 0), BuildingBlock: XIVTED_clean_linker_0, # of connection points: 2
#     Edge 60, Type (0, 0), BuildingBlock: XIVTED_clean_linker_0, # of connection points: 2
#     Edge 61, Type (0, 0), BuildingBlock: XIVTED_clean_linker_0, # of connection points: 2
#     Edge 62, Type (0, 0), BuildingBlock: XIVTED_clean_linker_0, # of connection points: 2
#     Edge 63, Type (0, 0), BuildingBlock: XIVTED_clean_linker_0, # of connection points: 2
#     Edge 64, Type (0, 0), BuildingBlock: XIVTED_clean_linker_0, # of connection points: 2
#     Edge 65, Type (0, 0), BuildingBlock: XIVTED_clean_linker_0, # of connection points: 2
#     Edge 66, Type (0, 0), BuildingBlock: XIVTED_clean_linker_0, # of connection points: 2
#     Edge 67, Type (0, 0), BuildingBlock: XIVTED_clean_linker_0, # of connection points: 2
#     Edge 68, Type (0, 0), BuildingBlock: XIVTED_clean_linker_0, # of connection points: 2
#     Edge 69, Type (0, 0), BuildingBlock: XIVTED_clean_linker_0, # of connection points: 2
#     Edge 70, Type (0, 0), BuildingBlock: XIVTED_clean_linker_0, # of connection points: 2
#     Edge 71, Type (0, 0), BuildingBlock: XIVTED_clean_linker_0, # of connection points: 2
#     Edge 72, Type (0, 0), BuildingBlock: XIVTED_clean_linker_0, # of connection points: 2
#     Edge 73, Type (0, 0), BuildingBlock: XIVTED_clean_linker_0, # of connection points: 2
#     Edge 74, Type (0, 0), BuildingBlock: XIVTED_clean_linker_0, # of connection points: 2
#     Edge 75, Type (0, 0), BuildingBlock: XIVTED_clean_linker_0, # of connection points: 2
#     Edge 76, Type (0, 0), BuildingBlock: XIVTED_clean_linker_0, # of connection points: 2
#     Edge 77, Type (0, 0), BuildingBlock: XIVTED_clean_linker_0, # of connection points: 2
#     Edge 78, Type (0, 0), BuildingBlock: XIVTED_clean_linker_0, # of connection points: 2
#     Edge 79, Type (0, 0), BuildingBlock: XIVTED_clean_linker_0, # of connection points: 2
#     Edge 80, Type (0, 0), BuildingBlock: XIVTED_clean_linker_0, # of connection points: 2
#     Edge 81, Type (0, 0), BuildingBlock: XIVTED_clean_linker_0, # of connection points: 2
#     Edge 82, Type (0, 0), BuildingBlock: XIVTED_clean_linker_0, # of connection points: 2
#     Edge 83, Type (0, 0), BuildingBlock: XIVTED_clean_linker_0, # of connection points: 2
#     Edge 84, Type (0, 0), BuildingBlock: XIVTED_clean_linker_0, # of connection points: 2
#     Edge 85, Type (0, 0), BuildingBlock: XIVTED_clean_linker_0, # of connection points: 2
#     Edge 86, Type (0, 0), BuildingBlock: XIVTED_clean_linker_0, # of connection points: 2
#     Edge 87, Type (0, 0), BuildingBlock: XIVTED_clean_linker_0, # of connection points: 2
#     Edge 88, Type (0, 0), BuildingBlock: XIVTED_clean_linker_0, # of connection points: 2
#     Edge 89, Type (0, 0), BuildingBlock: XIVTED_clean_linker_0, # of connection points: 2
#     Edge 90, Type (0, 0), BuildingBlock: XIVTED_clean_linker_0, # of connection points: 2
#     Edge 91, Type (0, 0), BuildingBlock: XIVTED_clean_linker_0, # of connection points: 2
#     Edge 92, Type (0, 0), BuildingBlock: XIVTED_clean_linker_0, # of connection points: 2
#     Edge 93, Type (0, 0), BuildingBlock: XIVTED_clean_linker_0, # of connection points: 2
#     Edge 94, Type (0, 0), BuildingBlock: XIVTED_clean_linker_0, # of connection points: 2
#     Edge 95, Type (0, 0), BuildingBlock: XIVTED_clean_linker_0, # of connection points: 2
#     Edge 96, Type (0, 0), BuildingBlock: XIVTED_clean_linker_0, # of connection points: 2
#     Edge 97, Type (0, 0), BuildingBlock: XIVTED_clean_linker_0, # of connection points: 2
#     Edge 98, Type (0, 0), BuildingBlock: XIVTED_clean_linker_0, # of connection points: 2
#     Edge 99, Type (0, 0), BuildingBlock: XIVTED_clean_linker_0, # of connection points: 2
#     Edge 100, Type (0, 0), BuildingBlock: XIVTED_clean_linker_0, # of connection points: 2
#     Edge 101, Type (0, 0), BuildingBlock: XIVTED_clean_linker_0, # of connection points: 2
#     Edge 102, Type (0, 0), BuildingBlock: XIVTED_clean_linker_0, # of connection points: 2
#     Edge 103, Type (0, 0), BuildingBlock: XIVTED_clean_linker_0, # of connection points: 2
#     Edge 104, Type (0, 0), BuildingBlock: XIVTED_clean_linker_0, # of connection points: 2
#     Edge 105, Type (0, 0), BuildingBlock: XIVTED_clean_linker_0, # of connection points: 2
#     Edge 106, Type (0, 0), BuildingBlock: XIVTED_clean_linker_0, # of connection points: 2
#     Edge 107, Type (0, 0), BuildingBlock: XIVTED_clean_linker_0, # of connection points: 2
#     Edge 108, Type (0, 0), BuildingBlock: XIVTED_clean_linker_0, # of connection points: 2
#     Edge 109, Type (0, 0), BuildingBlock: XIVTED_clean_linker_0, # of connection points: 2
#     Edge 110, Type (0, 0), BuildingBlock: XIVTED_clean_linker_0, # of connection points: 2
#     Edge 111, Type (0, 0), BuildingBlock: XIVTED_clean_linker_0, # of connection points: 2
#     Edge 112, Type (0, 0), BuildingBlock: XIVTED_clean_linker_0, # of connection points: 2
#     Edge 113, Type (0, 0), BuildingBlock: XIVTED_clean_linker_0, # of connection points: 2
#     Edge 114, Type (0, 0), BuildingBlock: XIVTED_clean_linker_0, # of connection points: 2
#     Edge 115, Type (0, 0), BuildingBlock: XIVTED_clean_linker_0, # of connection points: 2
#     Edge 116, Type (0, 0), BuildingBlock: XIVTED_clean_linker_0, # of connection points: 2
#     Edge 117, Type (0, 0), BuildingBlock: XIVTED_clean_linker_0, # of connection points: 2
#     Edge 118, Type (0, 0), BuildingBlock: XIVTED_clean_linker_0, # of connection points: 2
#     Edge 119, Type (0, 0), BuildingBlock: XIVTED_clean_linker_0, # of connection points: 2
#     Edge 120, Type (0, 0), BuildingBlock: XIVTED_clean_linker_0, # of connection points: 2
#     Edge 121, Type (0, 0), BuildingBlock: XIVTED_clean_linker_0, # of connection points: 2
#     Edge 122, Type (0, 0), BuildingBlock: XIVTED_clean_linker_0, # of connection points: 2
#     Edge 123, Type (0, 0), BuildingBlock: XIVTED_clean_linker_0, # of connection points: 2
#     Edge 124, Type (0, 0), BuildingBlock: XIVTED_clean_linker_0, # of connection points: 2
#     Edge 125, Type (0, 0), BuildingBlock: XIVTED_clean_linker_0, # of connection points: 2
#     Edge 126, Type (0, 0), BuildingBlock: XIVTED_clean_linker_0, # of connection points: 2
#     Edge 127, Type (0, 0), BuildingBlock: XIVTED_clean_linker_0, # of connection points: 2
#     Edge 128, Type (0, 0), BuildingBlock: XIVTED_clean_linker_0, # of connection points: 2
#     Edge 129, Type (0, 0), BuildingBlock: XIVTED_clean_linker_0, # of connection points: 2
#     Edge 130, Type (0, 0), BuildingBlock: XIVTED_clean_linker_0, # of connection points: 2
#     Edge 131, Type (0, 0), BuildingBlock: XIVTED_clean_linker_0, # of connection points: 2
#     Edge 132, Type (0, 0), BuildingBlock: XIVTED_clean_linker_0, # of connection points: 2
#     Edge 133, Type (0, 0), BuildingBlock: XIVTED_clean_linker_0, # of connection points: 2
#     Edge 134, Type (0, 0), BuildingBlock: XIVTED_clean_linker_0, # of connection points: 2
#     Edge 135, Type (0, 0), BuildingBlock: XIVTED_clean_linker_0, # of connection points: 2
#     Edge 136, Type (0, 0), BuildingBlock: XIVTED_clean_linker_0, # of connection points: 2
#     Edge 137, Type (0, 0), BuildingBlock: XIVTED_clean_linker_0, # of connection points: 2
#     Edge 138, Type (0, 0), BuildingBlock: XIVTED_clean_linker_0, # of connection points: 2
#     Edge 139, Type (0, 0), BuildingBlock: XIVTED_clean_linker_0, # of connection points: 2
#     Edge 140, Type (0, 0), BuildingBlock: XIVTED_clean_linker_0, # of connection points: 2
#     Edge 141, Type (0, 0), BuildingBlock: XIVTED_clean_linker_0, # of connection points: 2
#     Edge 142, Type (0, 0), BuildingBlock: XIVTED_clean_linker_0, # of connection points: 2
#     Edge 143, Type (0, 0), BuildingBlock: XIVTED_clean_linker_0, # of connection points: 2
#     Edge 144, Type (0, 0), BuildingBlock: XIVTED_clean_linker_0, # of connection points: 2
#     Edge 145, Type (0, 0), BuildingBlock: XIVTED_clean_linker_0, # of connection points: 2
#     Edge 146, Type (0, 0), BuildingBlock: XIVTED_clean_linker_0, # of connection points: 2
#     Edge 147, Type (0, 0), BuildingBlock: XIVTED_clean_linker_0, # of connection points: 2
#     Edge 148, Type (0, 0), BuildingBlock: XIVTED_clean_linker_0, # of connection points: 2
#     Edge 149, Type (0, 0), BuildingBlock: XIVTED_clean_linker_0, # of connection points: 2
#     Edge 150, Type (0, 0), BuildingBlock: XIVTED_clean_linker_0, # of connection points: 2
#     Edge 151, Type (0, 0), BuildingBlock: XIVTED_clean_linker_0, # of connection points: 2
#     Edge 152, Type (0, 0), BuildingBlock: XIVTED_clean_linker_0, # of connection points: 2
#     Edge 153, Type (0, 0), BuildingBlock: XIVTED_clean_linker_0, # of connection points: 2
#     Edge 154, Type (0, 0), BuildingBlock: XIVTED_clean_linker_0, # of connection points: 2
#     Edge 155, Type (0, 0), BuildingBlock: XIVTED_clean_linker_0, # of connection points: 2
#     Edge 156, Type (0, 0), BuildingBlock: XIVTED_clean_linker_0, # of connection points: 2
#     Edge 157, Type (0, 0), BuildingBlock: XIVTED_clean_linker_0, # of connection points: 2
#     Edge 158, Type (0, 0), BuildingBlock: XIVTED_clean_linker_0, # of connection points: 2
#     Edge 159, Type (0, 0), BuildingBlock: XIVTED_clean_linker_0, # of connection points: 2
#     Edge 160, Type (0, 0), BuildingBlock: XIVTED_clean_linker_0, # of connection points: 2
#     Edge 161, Type (0, 0), BuildingBlock: XIVTED_clean_linker_0, # of connection points: 2
#     Edge 162, Type (0, 0), BuildingBlock: XIVTED_clean_linker_0, # of connection points: 2
#     Edge 163, Type (0, 0), BuildingBlock: XIVTED_clean_linker_0, # of connection points: 2
#     Edge 164, Type (0, 0), BuildingBlock: XIVTED_clean_linker_0, # of connection points: 2
#     Edge 165, Type (0, 0), BuildingBlock: XIVTED_clean_linker_0, # of connection points: 2
#     Edge 166, Type (0, 0), BuildingBlock: XIVTED_clean_linker_0, # of connection points: 2
#     Edge 167, Type (0, 0), BuildingBlock: XIVTED_clean_linker_0, # of connection points: 2
# Relax obj value: 0.235
# Max RMSD: 0.170
# Mean RMSD: 0.170
data_MOF--net-fcg--node1-BEQFEK_clean_sbu_0--edge1-XIVTED_clean_linker_0
_symmetry_space_group_name_H-M    P1
_symmetry_Int_Tables_number       1
_symmetry_cell_setting            triclinic
loop_
_symmetry_equiv_pos_as_xyz
'x, y, z'
_cell_length_a     66.775483
_cell_length_b     66.778168
_cell_length_c     66.790333
_cell_angle_alpha  90.010812
_cell_angle_beta   89.988434
_cell_angle_gamma 90.004189
loop_
_atom_site_label
_atom_site_type_symbol
_atom_site_fract_x
_atom_site_fract_y
_atom_site_fract_z
_atom_type_partial_charge
Co0 Co 0.15424 0.29925 0.14418 0.0
Co1 Co 0.10885 0.31168 0.14542 0.0
C2 C 0.11959 0.27122 0.1559 0.0
O3 O 0.13757 0.27684 0.15329 0.0
O4 O 0.10507 0.28301 0.15228 0.0
C5 C 0.178 0.27216 0.12376 0.0
O6 O 0.16091 0.27041 0.11418 0.0
C7 C 0.06548 0.31752 0.13949 0.0
C8 C 0.063 0.35048 0.14145 0.0
C9 C 0.05194 0.33325 0.1382 0.0
N10 N 0.08377 0.32518 0.14301 0.0
N11 N 0.08216 0.34487 0.14421 0.0
C12 C 0.06117 0.29552 0.13882 0.0
H13 H 0.06703 0.28839 0.15261 0.0
H14 H 0.06909 0.28875 0.12587 0.0
H15 H 0.04493 0.29229 0.13781 0.0
C16 C 0.15109 0.31638 0.10378 0.0
N17 N 0.14311 0.31177 0.12166 0.0
N18 N 0.12378 0.31548 0.12135 0.0
C19 C 0.11872 0.32197 0.10288 0.0
C20 C 0.13591 0.32268 0.09113 0.0
C21 C 0.17301 0.3155 0.0991 0.0
H22 H 0.18197 0.31688 0.11302 0.0
H23 H 0.17659 0.301 0.09184 0.0
H24 H 0.17716 0.32765 0.08854 0.0
O25 O 0.15581 0.31775 0.16709 0.0
O26 O 0.12297 0.32348 0.16909 0.0
H27 H 0.09281 0.34064 0.10203 0.0
H28 H 0.09636 0.32581 0.07972 0.0
C29 C 0.09767 0.32584 0.09627 0.0
H30 H 0.08759 0.31426 0.10258 0.0
H31 H 0.0942 0.35449 0.14681 0.0
O32 O 0.17963 0.28529 0.13751 0.0
C33 C 0.1407 0.32529 0.17603 0.0
Co34 Co 0.69385 0.15256 0.14247 0.0
Co35 Co 0.6785 0.10887 0.15018 0.0
C36 C 0.72052 0.11915 0.1581 0.0
O37 O 0.71647 0.13679 0.15237 0.0
O38 O 0.70725 0.10549 0.15764 0.0
C39 C 0.72076 0.17444 0.11958 0.0
O40 O 0.72286 0.15658 0.11161 0.0
C41 C 0.67428 0.06576 0.14609 0.0
C42 C 0.643 0.06037 0.15548 0.0
C43 C 0.6601 0.05078 0.14866 0.0
N44 N 0.66598 0.08332 0.15125 0.0
N45 N 0.6473 0.08004 0.15692 0.0
C46 C 0.69486 0.06391 0.13738 0.0
H47 H 0.69923 0.07806 0.12985 0.0
H48 H 0.69558 0.05138 0.12648 0.0
H49 H 0.70571 0.06101 0.14962 0.0
C50 C 0.67413 0.14555 0.10346 0.0
N51 N 0.67972 0.13947 0.12185 0.0
N52 N 0.67446 0.12065 0.12438 0.0
C53 C 0.6659 0.11397 0.10732 0.0
C54 C 0.66541 0.12954 0.09354 0.0
C55 C 0.67787 0.1661 0.09528 0.0
H56 H 0.67919 0.17711 0.1076 0.0
H57 H 0.69193 0.16599 0.08642 0.0
H58 H 0.66563 0.17091 0.08521 0.0
O59 O 0.67682 0.15712 0.16615 0.0
O60 O 0.66669 0.12583 0.17175 0.0
H61 H 0.64668 0.08998 0.11629 0.0
H62 H 0.65034 0.09167 0.08961 0.0
C63 C 0.65775 0.09331 0.10439 0.0
H64 H 0.67011 0.0823 0.10553 0.0
H65 H 0.63745 0.09124 0.16157 0.0
O66 O 0.7075 0.17709 0.13303 0.0
C67 C 0.66733 0.14429 0.17667 0.0
Co68 Co 0.8591 0.7161 0.14763 0.0
Co69 Co 0.89734 0.68912 0.15388 0.0
C70 C 0.89692 0.73252 0.16494 0.0
O71 O 0.87933 0.73457 0.15807 0.0
O72 O 0.90584 0.71571 0.16453 0.0
C73 C 0.84047 0.75032 0.13139 0.0
O74 O 0.85931 0.75582 0.13002 0.0
C75 C 0.93805 0.6769 0.1445 0.0
C76 C 0.94077 0.64753 0.15948 0.0
C77 C 0.95128 0.66129 0.14801 0.0
N78 N 0.92049 0.67248 0.15322 0.0
N79 N 0.92214 0.65486 0.16208 0.0
C80 C 0.94243 0.69649 0.13447 0.0
H81 H 0.95633 0.70308 0.14075 0.0
H82 H 0.92978 0.70707 0.13629 0.0
H83 H 0.94482 0.69411 0.11823 0.0
C84 C 0.86183 0.69881 0.10712 0.0
N85 N 0.86892 0.70105 0.12585 0.0
N86 N 0.88498 0.68986 0.12815 0.0
C87 C 0.88849 0.67995 0.11086 0.0
C88 C 0.874 0.68538 0.097 0.0
C89 C 0.84418 0.70999 0.09897 0.0
H90 H 0.83109 0.70778 0.10895 0.0
H91 H 0.84776 0.72618 0.0986 0.0
H92 H 0.84024 0.70528 0.08357 0.0
O93 O 0.85172 0.69865 0.17085 0.0
O94 O 0.87846 0.6789 0.17412 0.0
H95 H 0.90526 0.65472 0.12157 0.0
H96 H 0.90102 0.65472 0.09488 0.0
C97 C 0.90427 0.66429 0.10806 0.0
H98 H 0.91893 0.67168 0.10567 0.0
H99 H 0.91067 0.648 0.17018 0.0
O100 O 0.83628 0.73321 0.13871 0.0
C101 C 0.86117 0.68465 0.17988 0.0
Co102 Co 0.29788 0.84816 0.14246 0.0
Co103 Co 0.31556 0.89113 0.15073 0.0
C104 C 0.27368 0.88257 0.16029 0.0
O105 O 0.27683 0.86481 0.15431 0.0
O106 O 0.28733 0.89582 0.15916 0.0
C107 C 0.26805 0.83036 0.1205 0.0
O108 O 0.26496 0.84956 0.11753 0.0
C109 C 0.32377 0.9341 0.14745 0.0
C110 C 0.35602 0.9356 0.15481 0.0
C111 C 0.33989 0.94717 0.1488 0.0
N112 N 0.33022 0.91559 0.15199 0.0
N113 N 0.34946 0.91661 0.15654 0.0
C114 C 0.30229 0.93901 0.14319 0.0
H115 H 0.29288 0.9336 0.15574 0.0
H116 H 0.29738 0.93104 0.12947 0.0
H117 H 0.29973 0.95531 0.14152 0.0
C118 C 0.31628 0.85553 0.10312 0.0
N119 N 0.31175 0.86145 0.12184 0.0
N120 N 0.31803 0.87991 0.12458 0.0
C121 C 0.32635 0.88652 0.10736 0.0
C122 C 0.32555 0.87126 0.09328 0.0
C123 C 0.31092 0.83548 0.09459 0.0
H124 H 0.31164 0.82385 0.1064 0.0
H125 H 0.29545 0.83611 0.08858 0.0
H126 H 0.321 0.83115 0.08217 0.0
O127 O 0.31571 0.84171 0.1652 0.0
O128 O 0.32689 0.87261 0.17121 0.0
H129 H 0.34777 0.90883 0.11561 0.0
H130 H 0.3418 0.90864 0.0893 0.0
C131 C 0.33555 0.90676 0.10458 0.0
H132 H 0.32409 0.91845 0.10726 0.0
H133 H 0.35819 0.90426 0.16048 0.0
O134 O 0.28285 0.82499 0.13128 0.0
C135 C 0.32591 0.85404 0.17569 0.0
Co136 Co 0.14053 0.71562 0.84911 0.0
Co137 Co 0.10114 0.69068 0.84253 0.0
C138 C 0.10282 0.73423 0.83343 0.0
O139 O 0.1206 0.73522 0.84004 0.0
O140 O 0.09322 0.71779 0.83333 0.0
C141 C 0.16036 0.74568 0.8711 0.0
O142 O 0.14288 0.74638 0.88009 0.0
C143 C 0.05949 0.68017 0.84944 0.0
C144 C 0.05761 0.64888 0.8388 0.0
C145 C 0.04641 0.66415 0.8473 0.0
N146 N 0.07761 0.6745 0.84283 0.0
N147 N 0.07643 0.65579 0.83646 0.0
C148 C 0.05485 0.70117 0.85585 0.0
H149 H 0.05472 0.71093 0.84241 0.0
H150 H 0.06685 0.70672 0.86593 0.0
H151 H 0.04012 0.70254 0.86328 0.0
C152 C 0.13863 0.69519 0.88855 0.0
N153 N 0.13099 0.69953 0.87039 0.0
N154 N 0.1138 0.69013 0.86817 0.0
C155 C 0.1097 0.67997 0.88516 0.0
C156 C 0.12529 0.68285 0.89858 0.0
C157 C 0.15828 0.70285 0.8962 0.0
H158 H 0.1558 0.71719 0.90421 0.0
H159 H 0.16522 0.6923 0.90693 0.0
H160 H 0.1688 0.70534 0.88362 0.0
O161 O 0.14729 0.69897 0.82533 0.0
O162 O 0.11963 0.68066 0.82157 0.0
H163 H 0.0925 0.65864 0.90258 0.0
H164 H 0.07805 0.67593 0.88764 0.0
C165 C 0.09186 0.66673 0.88809 0.0
H166 H 0.09113 0.65561 0.87579 0.0
H167 H 0.08844 0.64779 0.83047 0.0
O168 O 0.16334 0.73274 0.85741 0.0
C169 C 0.13719 0.68571 0.81594 0.0
Co170 Co 0.29851 0.15072 0.85594 0.0
Co171 Co 0.3164 0.10769 0.84855 0.0
C172 C 0.27494 0.11646 0.83715 0.0
O173 O 0.27788 0.13422 0.84325 0.0
O174 O 0.28853 0.10319 0.83873 0.0
C175 C 0.26779 0.16916 0.87604 0.0
O176 O 0.26427 0.15005 0.87915 0.0
C177 C 0.32364 0.06452 0.85133 0.0
C178 C 0.35649 0.06264 0.84756 0.0
C179 C 0.33959 0.05118 0.85126 0.0
N180 N 0.33085 0.08305 0.84823 0.0
N181 N 0.35047 0.08182 0.84584 0.0
C182 C 0.30175 0.05988 0.853 0.0
H183 H 0.2941 0.06494 0.83916 0.0
H184 H 0.2952 0.06836 0.8657 0.0
H185 H 0.29879 0.04367 0.85484 0.0
C186 C 0.31324 0.14279 0.89647 0.0
N187 N 0.31085 0.13729 0.87727 0.0
N188 N 0.31733 0.11884 0.87489 0.0
C189 C 0.32376 0.1119 0.89279 0.0
C190 C 0.32119 0.12686 0.90702 0.0
C191 C 0.30854 0.16315 0.90459 0.0
H192 H 0.31063 0.17469 0.89284 0.0
H193 H 0.29277 0.16349 0.9098 0.0
H194 H 0.31831 0.16671 0.91756 0.0
O195 O 0.31752 0.15695 0.83429 0.0
O196 O 0.32891 0.1261 0.82853 0.0
H197 H 0.34509 0.0886 0.88773 0.0
H198 H 0.33421 0.08836 0.91251 0.0
C199 C 0.33115 0.09107 0.89642 0.0
H200 H 0.3198 0.08018 0.89114 0.0
H201 H 0.35978 0.09412 0.84334 0.0
O202 O 0.28327 0.17416 0.86607 0.0
C203 C 0.32815 0.14471 0.82415 0.0
Co204 Co 0.85179 0.28864 0.85127 0.0
Co205 Co 0.8911 0.31409 0.8454 0.0
C206 C 0.88881 0.27113 0.83319 0.0
O207 O 0.87113 0.26961 0.83998 0.0
O208 O 0.89838 0.28754 0.83409 0.0
C209 C 0.83398 0.2556 0.86944 0.0
O210 O 0.85306 0.25176 0.87229 0.0
C211 C 0.93312 0.32127 0.85136 0.0
C212 C 0.93739 0.35313 0.84359 0.0
C213 C 0.94759 0.33608 0.84967 0.0
N214 N 0.91533 0.32907 0.8463 0.0
N215 N 0.91789 0.34814 0.84168 0.0
C216 C 0.93563 0.30034 0.85903 0.0
H217 H 0.92151 0.29499 0.86596 0.0
H218 H 0.94791 0.29955 0.87019 0.0
H219 H 0.93925 0.29025 0.84633 0.0
C220 C 0.85596 0.3042 0.89226 0.0
N221 N 0.86246 0.30268 0.87327 0.0
N222 N 0.87928 0.31276 0.87133 0.0
C223 C 0.88411 0.32088 0.88923 0.0
C224 C 0.86955 0.3155 0.90309 0.0
C225 C 0.83647 0.29598 0.89972 0.0
H226 H 0.82488 0.29708 0.88789 0.0
H227 H 0.83847 0.28003 0.90385 0.0
H228 H 0.83122 0.30425 0.91315 0.0
O229 O 0.84476 0.30703 0.82888 0.0
O230 O 0.87228 0.32573 0.82561 0.0
H231 H 0.90332 0.34558 0.88237 0.0
H232 H 0.9031 0.33879 0.9086 0.0
C233 C 0.90261 0.33292 0.89309 0.0
H234 H 0.91596 0.32338 0.89067 0.0
H235 H 0.90639 0.35771 0.83716 0.0
O236 O 0.82902 0.27159 0.86029 0.0
C237 C 0.85464 0.32087 0.82005 0.0
Co238 Co 0.70308 0.85207 0.85299 0.0
Co239 Co 0.68565 0.89496 0.84435 0.0
C240 C 0.7272 0.88697 0.83531 0.0
O241 O 0.72368 0.86908 0.84068 0.0
O242 O 0.71388 0.90046 0.83704 0.0
C243 C 0.7339 0.83562 0.87463 0.0
O244 O 0.73645 0.85495 0.87723 0.0
C245 C 0.67658 0.93753 0.84753 0.0
C246 C 0.64468 0.93883 0.83873 0.0
C247 C 0.66043 0.95046 0.84559 0.0
N248 N 0.67052 0.91904 0.84249 0.0
N249 N 0.65149 0.91991 0.83708 0.0
C250 C 0.6978 0.94255 0.85282 0.0
H251 H 0.70756 0.93894 0.83988 0.0
H252 H 0.70278 0.93311 0.86555 0.0
H253 H 0.69985 0.95859 0.85647 0.0
C254 C 0.68436 0.85952 0.89206 0.0
N255 N 0.68906 0.8654 0.87339 0.0
N256 N 0.68256 0.88375 0.87044 0.0
C257 C 0.67382 0.89031 0.88747 0.0
C258 C 0.67465 0.87513 0.90164 0.0
C259 C 0.69005 0.83965 0.90077 0.0
H260 H 0.68933 0.82788 0.88908 0.0
H261 H 0.70562 0.84052 0.90649 0.0
H262 H 0.68021 0.83538 0.91341 0.0
O263 O 0.68512 0.8448 0.83058 0.0
O264 O 0.67601 0.87614 0.82329 0.0
H265 H 0.65249 0.91239 0.87841 0.0
H266 H 0.65724 0.91203 0.90498 0.0
C267 C 0.6642 0.91039 0.88998 0.0
H268 H 0.67561 0.92226 0.88796 0.0
H269 H 0.64307 0.90752 0.83262 0.0
O270 O 0.71893 0.82958 0.86444 0.0
C271 C 0.67628 0.85744 0.81928 0.0
Co272 Co 0.14781 0.1473 0.29122 0.0
Co273 Co 0.15306 0.10506 0.31129 0.0
C274 C 0.16243 0.11066 0.26869 0.0
O275 O 0.15734 0.12888 0.27057 0.0
O276 O 0.16125 0.0986 0.28339 0.0
C277 C 0.12713 0.16817 0.26153 0.0
O278 O 0.11879 0.15045 0.2597 0.0
C279 C 0.14801 0.06254 0.32026 0.0
C280 C 0.15316 0.06145 0.35295 0.0
C281 C 0.14819 0.04971 0.3366 0.0
N282 N 0.1523 0.08109 0.32674 0.0
N283 N 0.15547 0.08035 0.34626 0.0
C284 C 0.14528 0.05732 0.29861 0.0
H285 H 0.15952 0.06023 0.29057 0.0
H286 H 0.13367 0.06714 0.29191 0.0
H287 H 0.14128 0.04141 0.29631 0.0
C288 C 0.10749 0.14331 0.30863 0.0
N289 N 0.12617 0.13645 0.30558 0.0
N290 N 0.12767 0.1182 0.31283 0.0
C291 C 0.10969 0.11268 0.32029 0.0
C292 C 0.09631 0.12841 0.31774 0.0
C293 C 0.1005 0.16399 0.30353 0.0
H294 H 0.11324 0.17463 0.30371 0.0
H295 H 0.09364 0.16396 0.28842 0.0
H296 H 0.08892 0.16903 0.31435 0.0
O297 O 0.17122 0.15239 0.30846 0.0
O298 O 0.17505 0.12217 0.32203 0.0
H299 H 0.11376 0.0897 0.34216 0.0
H300 H 0.08889 0.09039 0.33154 0.0
C301 C 0.10506 0.09226 0.32825 0.0
H302 H 0.10965 0.08083 0.31714 0.0
H303 H 0.15903 0.09278 0.35504 0.0
O304 O 0.13991 0.17106 0.27539 0.0
C305 C 0.18089 0.14021 0.31955 0.0
Co306 Co 0.85028 0.14668 0.28985 0.0
Co307 Co 0.89159 0.14963 0.31217 0.0
C308 C 0.88815 0.15855 0.26877 0.0
O309 O 0.86976 0.15379 0.26899 0.0
O310 O 0.89874 0.15779 0.28455 0.0
C311 C 0.82769 0.12707 0.26042 0.0
O312 O 0.84466 0.11726 0.25871 0.0
C313 C 0.93343 0.14108 0.31926 0.0
C314 C 0.93832 0.15089 0.35046 0.0
C315 C 0.94807 0.14309 0.33386 0.0
N316 N 0.91598 0.14761 0.32675 0.0
N317 N 0.91892 0.1534 0.34544 0.0
C318 C 0.93549 0.13216 0.29879 0.0
H319 H 0.92112 0.12524 0.29408 0.0
H320 H 0.94754 0.12071 0.2985 0.0
H321 H 0.9392 0.14417 0.28794 0.0
C322 C 0.85042 0.10672 0.30957 0.0
N323 N 0.85892 0.12455 0.30539 0.0
N324 N 0.87679 0.12529 0.31368 0.0
C325 C 0.88042 0.10771 0.32293 0.0
C326 C 0.86386 0.09538 0.32061 0.0
C327 C 0.83011 0.10037 0.30248 0.0
H328 H 0.82023 0.11358 0.3007 0.0
H329 H 0.8316 0.09261 0.28788 0.0
H330 H 0.82301 0.08979 0.31309 0.0
O331 O 0.84687 0.17123 0.30653 0.0
O332 O 0.87591 0.1723 0.32292 0.0
H333 H 0.89802 0.08837 0.34216 0.0
H334 H 0.91203 0.10275 0.32401 0.0
C335 C 0.89909 0.10303 0.33441 0.0
H336 H 0.90177 0.11489 0.3457 0.0
H337 H 0.90776 0.15928 0.35467 0.0
O338 O 0.82596 0.14041 0.27394 0.0
C339 C 0.85876 0.17969 0.31891 0.0
Co340 Co 0.85125 0.84891 0.29678 0.0
Co341 Co 0.84167 0.89165 0.31438 0.0
C342 C 0.83281 0.88279 0.27243 0.0
O343 O 0.83918 0.86517 0.27558 0.0
O344 O 0.83333 0.89598 0.28614 0.0
C345 C 0.87409 0.83208 0.26717 0.0
O346 O 0.87644 0.85141 0.26435 0.0
C347 C 0.8437 0.93471 0.32109 0.0
C348 C 0.83696 0.93748 0.35338 0.0
C349 C 0.84225 0.94846 0.3366 0.0
N350 N 0.83983 0.91641 0.32845 0.0
N351 N 0.83566 0.91815 0.34772 0.0
C352 C 0.84737 0.93876 0.29933 0.0
H353 H 0.85939 0.92877 0.29368 0.0
H354 H 0.85124 0.9546 0.29633 0.0
H355 H 0.83356 0.93518 0.29083 0.0
C356 C 0.89074 0.85817 0.31366 0.0
N357 N 0.87145 0.86295 0.31049 0.0
N358 N 0.86819 0.88135 0.31673 0.0
C359 C 0.88561 0.88898 0.32372 0.0
C360 C 0.9004 0.87452 0.32182 0.0
C361 C 0.9 0.83831 0.30895 0.0
H362 H 0.88872 0.82619 0.3102 0.0
H363 H 0.9061 0.8386 0.29351 0.0
H364 H 0.91262 0.83517 0.31931 0.0
O365 O 0.82864 0.84185 0.31449 0.0
O366 O 0.82162 0.87254 0.32569 0.0
H367 H 0.87801 0.91293 0.34356 0.0
H368 H 0.90397 0.91275 0.33594 0.0
C369 C 0.88837 0.91001 0.33092 0.0
H370 H 0.88471 0.92056 0.31867 0.0
H371 H 0.83228 0.90609 0.35708 0.0
O372 O 0.86329 0.82617 0.28176 0.0
C373 C 0.8177 0.85383 0.32462 0.0
Co374 Co 0.14798 0.85198 0.29375 0.0
Co375 Co 0.1044 0.84776 0.3108 0.0
C376 C 0.11226 0.83965 0.26839 0.0
O377 O 0.13056 0.84376 0.27144 0.0
O378 O 0.09942 0.84078 0.28238 0.0
C379 C 0.17082 0.87333 0.26626 0.0
O380 O 0.15348 0.88244 0.26445 0.0
C381 C 0.0622 0.85615 0.31676 0.0
C382 C 0.05674 0.84573 0.34769 0.0
C383 C 0.04743 0.85449 0.33132 0.0
N384 N 0.0793 0.84867 0.32417 0.0
N385 N 0.07598 0.8424 0.34263 0.0
C386 C 0.06079 0.86606 0.2967 0.0
H387 H 0.07568 0.8718 0.29204 0.0
H388 H 0.04988 0.87859 0.29705 0.0
H389 H 0.05584 0.8549 0.28544 0.0
C390 C 0.14476 0.89155 0.31364 0.0
N391 N 0.1371 0.87365 0.30831 0.0
N392 N 0.11842 0.87244 0.31451 0.0
C393 C 0.11348 0.88984 0.32355 0.0
C394 C 0.12996 0.90248 0.32323 0.0
C395 C 0.16563 0.89831 0.30898 0.0
H396 H 0.17576 0.88526 0.30751 0.0
H397 H 0.16555 0.90687 0.29475 0.0
H398 H 0.17152 0.90831 0.32081 0.0
O399 O 0.1514 0.82813 0.31123 0.0
O400 O 0.11985 0.82495 0.32175 0.0
H401 H 0.08967 0.88191 0.34349 0.0
H402 H 0.09385 0.90847 0.34146 0.0
C403 C 0.09363 0.89415 0.33304 0.0
H404 H 0.08197 0.89502 0.32127 0.0
H405 H 0.08689 0.83604 0.35183 0.0
O406 O 0.1728 0.85962 0.27937 0.0
C407 C 0.13788 0.81873 0.32096 0.0
Co408 Co 0.14386 0.85154 0.70028 0.0
Co409 Co 0.15189 0.8948 0.68361 0.0
C410 C 0.16102 0.88641 0.72499 0.0
O411 O 0.15592 0.86848 0.72118 0.0
O412 O 0.15903 0.90009 0.71191 0.0
C413 C 0.12156 0.83475 0.73031 0.0
O414 O 0.11867 0.85406 0.73274 0.0
C415 C 0.14934 0.93755 0.67465 0.0
C416 C 0.1577 0.93859 0.64263 0.0
C417 C 0.15151 0.95043 0.65849 0.0
N418 N 0.15367 0.9189 0.6685 0.0
N419 N 0.15877 0.91961 0.64939 0.0
C420 C 0.14467 0.94274 0.69598 0.0
H421 H 0.1577 0.93872 0.70545 0.0
H422 H 0.13175 0.93371 0.70123 0.0
H423 H 0.14157 0.95889 0.69809 0.0
C424 C 0.10475 0.85871 0.68142 0.0
N425 N 0.12334 0.86475 0.68628 0.0
N426 N 0.12596 0.88334 0.68035 0.0
C427 C 0.10876 0.88992 0.67195 0.0
C428 C 0.09484 0.87448 0.6723 0.0
C429 C 0.09638 0.83849 0.68636 0.0
H430 H 0.1084 0.82705 0.68595 0.0
H431 H 0.08986 0.83892 0.70163 0.0
H432 H 0.08435 0.83409 0.67583 0.0
O433 O 0.16648 0.8447 0.68239 0.0
O434 O 0.17323 0.87631 0.6739 0.0
H435 H 0.09052 0.9123 0.65715 0.0
H436 H 0.10856 0.92179 0.67498 0.0
C437 C 0.10585 0.91036 0.66326 0.0
H438 H 0.11684 0.91277 0.65106 0.0
H439 H 0.16274 0.90711 0.6409 0.0
O440 O 0.1324 0.82883 0.71576 0.0
C441 C 0.17763 0.8577 0.67387 0.0
Co442 Co 0.15099 0.14685 0.70264 0.0
Co443 Co 0.10978 0.15277 0.68089 0.0
C444 C 0.11386 0.15858 0.72486 0.0
O445 O 0.132 0.153 0.7242 0.0
O446 O 0.10325 0.15943 0.7091 0.0
C447 C 0.17305 0.12461 0.73035 0.0
O448 O 0.15584 0.11512 0.73127 0.0
C449 C 0.06792 0.14455 0.6742 0.0
C450 C 0.06209 0.1564 0.64389 0.0
C451 C 0.05293 0.1471 0.66005 0.0
N452 N 0.08501 0.15212 0.66687 0.0
N453 N 0.0815 0.15919 0.64872 0.0
C454 C 0.06663 0.13391 0.6939 0.0
H455 H 0.08138 0.12737 0.69789 0.0
H456 H 0.05517 0.12188 0.6934 0.0
H457 H 0.06248 0.14481 0.70574 0.0
C458 C 0.14939 0.10828 0.68044 0.0
N459 N 0.14161 0.12617 0.68567 0.0
N460 N 0.12373 0.12806 0.6776 0.0
C461 C 0.11936 0.11114 0.66743 0.0
C462 C 0.13542 0.09807 0.66896 0.0
C463 C 0.16947 0.10075 0.68698 0.0
H464 H 0.17976 0.11342 0.68984 0.0
H465 H 0.1677 0.09177 0.70083 0.0
H466 H 0.17626 0.09094 0.67547 0.0
O467 O 0.15496 0.17235 0.68772 0.0
O468 O 0.12609 0.17559 0.67128 0.0
H469 H 0.09749 0.12048 0.64595 0.0
H470 H 0.10127 0.09376 0.64689 0.0
C471 C 0.10041 0.10763 0.65601 0.0
H472 H 0.08773 0.10629 0.66664 0.0
H473 H 0.09232 0.16594 0.63968 0.0
O474 O 0.17518 0.13885 0.71786 0.0
C475 C 0.14348 0.18205 0.67589 0.0
Co476 Co 0.85539 0.15139 0.70018 0.0
Co477 Co 0.84736 0.10878 0.6818 0.0
C478 C 0.83664 0.11707 0.7236 0.0
O479 O 0.84286 0.1348 0.72082 0.0
O480 O 0.8379 0.10402 0.70978 0.0
C481 C 0.87638 0.16856 0.73084 0.0
O482 O 0.87929 0.14929 0.73353 0.0
C483 C 0.85023 0.06589 0.67558 0.0
C484 C 0.84397 0.06238 0.64328 0.0
C485 C 0.84869 0.05172 0.66045 0.0
N486 N 0.84645 0.084 0.66776 0.0
N487 N 0.84265 0.08185 0.64846 0.0
C488 C 0.85688 0.06271 0.69676 0.0
H489 H 0.8645 0.0763 0.70252 0.0
H490 H 0.86721 0.04974 0.69786 0.0
H491 H 0.84357 0.0598 0.70627 0.0
C492 C 0.89562 0.14334 0.68442 0.0
N493 N 0.87642 0.13796 0.68718 0.0
N494 N 0.87372 0.11969 0.68032 0.0
C495 C 0.89138 0.11278 0.67318 0.0
C496 C 0.9058 0.12755 0.67575 0.0
C497 C 0.90413 0.16344 0.68956 0.0
H498 H 0.89251 0.1752 0.68805 0.0
H499 H 0.90966 0.16322 0.70521 0.0
H500 H 0.91697 0.16709 0.67964 0.0
O501 O 0.83333 0.15806 0.68168 0.0
O502 O 0.82727 0.12741 0.66985 0.0
H503 H 0.88434 0.08963 0.65222 0.0
H504 H 0.9103 0.09003 0.65987 0.0
C505 C 0.89464 0.0922 0.66498 0.0
H506 H 0.89123 0.08099 0.67672 0.0
H507 H 0.83943 0.09369 0.63879 0.0
O508 O 0.86616 0.17431 0.71579 0.0
C509 C 0.82296 0.14602 0.67103 0.0
Co510 Co 0.84804 0.85261 0.69964 0.0
Co511 Co 0.89198 0.84788 0.68352 0.0
C512 C 0.88342 0.84037 0.72577 0.0
O513 O 0.86531 0.84448 0.72179 0.0
O514 O 0.89686 0.84136 0.7123 0.0
C515 C 0.82618 0.8749 0.72674 0.0
O516 O 0.84385 0.88348 0.72805 0.0
C517 C 0.93504 0.85339 0.67605 0.0
C518 C 0.93669 0.84961 0.64321 0.0
C519 C 0.94811 0.85421 0.65989 0.0
N520 N 0.91666 0.84895 0.66914 0.0
N521 N 0.91779 0.84656 0.64952 0.0
C522 C 0.9399 0.85557 0.69784 0.0
H523 H 0.93189 0.86874 0.70403 0.0
H524 H 0.9562 0.85708 0.70055 0.0
H525 H 0.93454 0.84214 0.70599 0.0
C526 C 0.85202 0.89198 0.68067 0.0
N527 N 0.85928 0.87375 0.68509 0.0
N528 N 0.87825 0.87281 0.67993 0.0
C529 C 0.88386 0.89087 0.67268 0.0
C530 C 0.86738 0.9036 0.67306 0.0
C531 C 0.8306 0.89814 0.6832 0.0
H532 H 0.82065 0.88485 0.68282 0.0
H533 H 0.8287 0.90596 0.69771 0.0
H534 H 0.82621 0.90872 0.67116 0.0
O535 O 0.84456 0.8286 0.68312 0.0
O536 O 0.87603 0.8248 0.67267 0.0
H537 H 0.90903 0.88835 0.65313 0.0
H538 H 0.90663 0.91261 0.66481 0.0
C539 C 0.90488 0.89626 0.66713 0.0
H540 H 0.91523 0.89131 0.67911 0.0
H541 H 0.90555 0.84322 0.6404 0.0
O542 O 0.82352 0.86102 0.71394 0.0
C543 C 0.8579 0.81872 0.67368 0.0
Co544 Co 0.30104 0.14389 0.15426 0.0
Co545 Co 0.319 0.15176 0.11156 0.0
C546 C 0.277 0.16188 0.12023 0.0
O547 O 0.2797 0.15537 0.13785 0.0
O548 O 0.29094 0.16099 0.10731 0.0
C549 C 0.2728 0.12052 0.17343 0.0
O550 O 0.27204 0.11334 0.15513 0.0
C551 C 0.32375 0.14643 0.06889 0.0
C552 C 0.35501 0.15565 0.06319 0.0
C553 C 0.33796 0.14832 0.05384 0.0
N554 N 0.33196 0.1524 0.08621 0.0
N555 N 0.35063 0.158 0.08276 0.0
C556 C 0.30325 0.13744 0.06745 0.0
H557 H 0.29877 0.1309 0.08205 0.0
H558 H 0.30274 0.12567 0.05573 0.0
H559 H 0.29233 0.14935 0.06358 0.0
C560 C 0.32001 0.10449 0.14768 0.0
N561 N 0.315 0.12299 0.14143 0.0
N562 N 0.32132 0.12557 0.12294 0.0
C563 C 0.32998 0.1084 0.11663 0.0
C564 C 0.3294 0.09454 0.13211 0.0
C565 C 0.31561 0.09637 0.16813 0.0
H566 H 0.3015 0.08761 0.16763 0.0
H567 H 0.32763 0.0862 0.17329 0.0
H568 H 0.31407 0.10873 0.17908 0.0
O569 O 0.31899 0.16665 0.16012 0.0
O570 O 0.33126 0.1723 0.12955 0.0
H571 H 0.35058 0.11762 0.09389 0.0
H572 H 0.3474 0.09086 0.09564 0.0
C573 C 0.33959 0.10549 0.0966 0.0
H574 H 0.32798 0.10617 0.08478 0.0
H575 H 0.36044 0.16311 0.09378 0.0
O576 O 0.28564 0.134 0.1776 0.0
C577 C 0.32978 0.17689 0.14807 0.0
Co578 Co 0.29658 0.85423 0.84665 0.0
Co579 Co 0.31254 0.84816 0.89047 0.0
C580 C 0.26994 0.84289 0.88196 0.0
O581 O 0.27403 0.84707 0.86389 0.0
O582 O 0.28352 0.84299 0.89532 0.0
C583 C 0.27002 0.87722 0.82429 0.0
O584 O 0.26883 0.88633 0.84169 0.0
C585 C 0.3208 0.8528 0.93352 0.0
C586 C 0.35302 0.84524 0.93489 0.0
C587 C 0.33705 0.85163 0.94647 0.0
N588 N 0.32706 0.84778 0.91506 0.0
N589 N 0.34628 0.84313 0.91601 0.0
C590 C 0.2994 0.85725 0.93859 0.0
H591 H 0.28973 0.84517 0.93261 0.0
H592 H 0.29483 0.87146 0.9313 0.0
H593 H 0.29687 0.85823 0.95495 0.0
C594 C 0.31813 0.89269 0.85116 0.0
N595 N 0.31224 0.8747 0.85812 0.0
N596 N 0.31746 0.873 0.87704 0.0
C597 C 0.32622 0.89025 0.8829 0.0
C598 C 0.32695 0.90326 0.86669 0.0
C599 C 0.31428 0.9001 0.83036 0.0
H600 H 0.31204 0.88738 0.81995 0.0
H601 H 0.30074 0.90973 0.83039 0.0
H602 H 0.32697 0.90928 0.8249 0.0
O603 O 0.31194 0.82926 0.84292 0.0
O604 O 0.32233 0.82502 0.87431 0.0
H605 H 0.34594 0.88352 0.90715 0.0
H606 H 0.33975 0.90966 0.90516 0.0
C607 C 0.33378 0.89424 0.90361 0.0
H608 H 0.32149 0.89195 0.91453 0.0
H609 H 0.35486 0.8388 0.90369 0.0
O610 O 0.28258 0.86303 0.82208 0.0
C611 C 0.32108 0.81901 0.85621 0.0
Co612 Co 0.14653 0.28948 0.84884 0.0
Co613 Co 0.15316 0.31547 0.88762 0.0
C614 C 0.16555 0.27267 0.88586 0.0
O615 O 0.15852 0.27099 0.8683 0.0
O616 O 0.16475 0.28916 0.89532 0.0
C617 C 0.12838 0.25577 0.83229 0.0
O618 O 0.12605 0.25224 0.8515 0.0
C619 C 0.14971 0.3245 0.9297 0.0
C620 C 0.15464 0.35716 0.93154 0.0
C621 C 0.1509 0.34031 0.94308 0.0
N622 N 0.15282 0.33155 0.91117 0.0
N623 N 0.15576 0.3511 0.91229 0.0
C624 C 0.1441 0.30324 0.93412 0.0
H625 H 0.13607 0.2966 0.92117 0.0
H626 H 0.13446 0.3023 0.94763 0.0
H627 H 0.15791 0.29439 0.93677 0.0
C628 C 0.10547 0.30471 0.8539 0.0
N629 N 0.12466 0.30348 0.85986 0.0
N630 N 0.12693 0.31365 0.87658 0.0
C631 C 0.10905 0.32148 0.88193 0.0
C632 C 0.09486 0.31591 0.86776 0.0
C633 C 0.09761 0.29624 0.83468 0.0
H634 H 0.10918 0.29728 0.82282 0.0
H635 H 0.09365 0.28027 0.83695 0.0
H636 H 0.08401 0.30437 0.82967 0.0
O637 O 0.1685 0.30787 0.84061 0.0
O638 O 0.17238 0.32666 0.86795 0.0
H639 H 0.11473 0.34707 0.90029 0.0
H640 H 0.08955 0.33734 0.90254 0.0
C641 C 0.10553 0.33326 0.90066 0.0
H642 H 0.11027 0.32428 0.91377 0.0
H643 H 0.15851 0.36028 0.89995 0.0
O644 O 0.13708 0.27183 0.82679 0.0
C645 C 0.1775 0.32179 0.85018 0.0
Co646 Co 0.70415 0.14627 0.85086 0.0
Co647 Co 0.68183 0.15265 0.89184 0.0
C648 C 0.72553 0.15977 0.8881 0.0
O649 O 0.72505 0.15389 0.87003 0.0
O650 O 0.70977 0.16029 0.89877 0.0
C651 C 0.73287 0.12458 0.82889 0.0
O652 O 0.73472 0.11541 0.84619 0.0
C653 C 0.67146 0.14687 0.93408 0.0
C654 C 0.6394 0.15517 0.93466 0.0
C655 C 0.65486 0.14815 0.94657 0.0
N656 N 0.66589 0.15246 0.91557 0.0
N657 N 0.64676 0.15751 0.91603 0.0
C658 C 0.69264 0.14193 0.9396 0.0
H659 H 0.70235 0.15487 0.9359 0.0
H660 H 0.69786 0.12901 0.93054 0.0
H661 H 0.69446 0.13868 0.95574 0.0
C662 C 0.68307 0.10731 0.85317 0.0
N663 N 0.68786 0.1254 0.8607 0.0
N664 N 0.67973 0.12739 0.87855 0.0
C665 C 0.67007 0.11024 0.88321 0.0
C666 C 0.67183 0.09704 0.86726 0.0
C667 C 0.68977 0.09972 0.83316 0.0
H668 H 0.69188 0.11234 0.82261 0.0
H669 H 0.70413 0.09156 0.83494 0.0
H670 H 0.67876 0.08915 0.82668 0.0
O671 O 0.68831 0.1708 0.84563 0.0
O672 O 0.67197 0.17463 0.87444 0.0
H673 H 0.6469 0.11804 0.90385 0.0
H674 H 0.65205 0.09159 0.90274 0.0
C675 C 0.65892 0.10671 0.90231 0.0
H676 H 0.66931 0.10837 0.91515 0.0
H677 H 0.63869 0.16239 0.90358 0.0
O678 O 0.71965 0.13817 0.82691 0.0
C679 C 0.6762 0.18051 0.85677 0.0
Co680 Co 0.85034 0.71185 0.85437 0.0
Co681 Co 0.84502 0.69095 0.8962 0.0
C682 C 0.83678 0.73383 0.89183 0.0
O683 O 0.84143 0.73256 0.87343 0.0
O684 O 0.8379 0.71875 0.90336 0.0
C685 C 0.87255 0.74069 0.8334 0.0
O686 O 0.88175 0.74147 0.85077 0.0
C687 C 0.8522 0.6813 0.93805 0.0
C688 C 0.84052 0.65043 0.9407 0.0
C689 C 0.84954 0.66568 0.95149 0.0
N690 N 0.84533 0.67542 0.92011 0.0
N691 N 0.83839 0.65696 0.92173 0.0
C692 C 0.85925 0.70218 0.94226 0.0
H693 H 0.84599 0.7121 0.94362 0.0
H694 H 0.86839 0.70771 0.92953 0.0
H695 H 0.86793 0.70326 0.95632 0.0
C696 C 0.8897 0.69134 0.85673 0.0
N697 N 0.87171 0.69625 0.86446 0.0
N698 N 0.87005 0.68849 0.8825 0.0
C699 C 0.88728 0.67893 0.88706 0.0
C700 C 0.90027 0.68043 0.87089 0.0
C701 C 0.89684 0.69749 0.83638 0.0
H702 H 0.88397 0.69997 0.82623 0.0
H703 H 0.90566 0.71151 0.83768 0.0
H704 H 0.9067 0.68599 0.82967 0.0
O705 O 0.82649 0.69489 0.8489 0.0
O706 O 0.82235 0.68172 0.87933 0.0
H707 H 0.87893 0.65678 0.90863 0.0
H708 H 0.9056 0.65992 0.90594 0.0
C709 C 0.89102 0.66788 0.90618 0.0
H710 H 0.8909 0.67861 0.91885 0.0
H711 H 0.83207 0.64889 0.90994 0.0
O712 O 0.85853 0.72802 0.83082 0.0
C713 C 0.81659 0.68421 0.8613 0.0
Co714 Co 0.70067 0.85091 0.14702 0.0
Co715 Co 0.68406 0.84775 0.10316 0.0
C716 C 0.72619 0.83964 0.11073 0.0
O717 O 0.72274 0.84295 0.12913 0.0
O718 O 0.71248 0.84125 0.09762 0.0
C719 C 0.72796 0.87257 0.16927 0.0
O720 O 0.72926 0.88158 0.15184 0.0
C721 C 0.67559 0.85367 0.0604 0.0
C722 C 0.64261 0.85075 0.05963 0.0
C723 C 0.65911 0.8549 0.04778 0.0
N724 N 0.66905 0.84943 0.07895 0.0
N725 N 0.64935 0.84758 0.07836 0.0
C726 C 0.69729 0.85527 0.05495 0.0
H727 H 0.70523 0.84163 0.06011 0.0
H728 H 0.70402 0.86829 0.06277 0.0
H729 H 0.69961 0.85669 0.03859 0.0
C730 C 0.68226 0.89083 0.14422 0.0
N731 N 0.68639 0.8727 0.13652 0.0
N732 N 0.68096 0.87226 0.1176 0.0
C733 C 0.67385 0.89049 0.11248 0.0
C734 C 0.67456 0.90286 0.12921 0.0
C735 C 0.68495 0.89646 0.16576 0.0
H736 H 0.68461 0.88294 0.1754 0.0
H737 H 0.69949 0.90422 0.16775 0.0
H738 H 0.67296 0.90697 0.1705 0.0
O739 O 0.68329 0.82728 0.15036 0.0
O740 O 0.67369 0.82432 0.11853 0.0
H741 H 0.65367 0.88925 0.08773 0.0
H742 H 0.66662 0.91286 0.0901 0.0
C743 C 0.66815 0.89639 0.09164 0.0
H744 H 0.67964 0.89096 0.08098 0.0
H745 H 0.64047 0.84445 0.09084 0.0
O746 O 0.71524 0.85856 0.17161 0.0
C747 C 0.67411 0.81788 0.13651 0.0
Co748 Co 0.14624 0.71296 0.1376 0.0
Co749 Co 0.15291 0.68698 0.09873 0.0
C750 C 0.16476 0.73002 0.10048 0.0
O751 O 0.1578 0.73159 0.11809 0.0
O752 O 0.16388 0.71358 0.09091 0.0
C753 C 0.12957 0.74694 0.1559 0.0
O754 O 0.12801 0.75202 0.13697 0.0
C755 C 0.14513 0.67675 0.05743 0.0
C756 C 0.15681 0.64591 0.05453 0.0
C757 C 0.1475 0.66114 0.04393 0.0
N758 N 0.1524 0.67091 0.07521 0.0
N759 N 0.15935 0.65246 0.07346 0.0
C760 C 0.13798 0.69764 0.05345 0.0
H761 H 0.15118 0.70734 0.05068 0.0
H762 H 0.13007 0.70355 0.06682 0.0
H763 H 0.12808 0.69856 0.04021 0.0
C764 C 0.10571 0.69591 0.1338 0.0
N765 N 0.12448 0.69849 0.12692 0.0
N766 N 0.12694 0.68786 0.11051 0.0
C767 C 0.10968 0.67813 0.10643 0.0
C768 C 0.09572 0.68291 0.12107 0.0
C769 C 0.09749 0.7062 0.15196 0.0
H770 H 0.10763 0.70366 0.16487 0.0
H771 H 0.09681 0.72252 0.14905 0.0
H772 H 0.08221 0.70105 0.15581 0.0
O773 O 0.16876 0.69483 0.14523 0.0
O774 O 0.17257 0.67603 0.11787 0.0
H775 H 0.11991 0.65276 0.08968 0.0
H776 H 0.09302 0.65458 0.09156 0.0
C777 C 0.10708 0.66327 0.08986 0.0
H778 H 0.10667 0.67131 0.07534 0.0
H779 H 0.16596 0.64442 0.08512 0.0
O780 O 0.13706 0.72997 0.16038 0.0
C781 C 0.17784 0.68102 0.13554 0.0
Co782 Co 0.85432 0.29092 0.1488 0.0
Co783 Co 0.84581 0.31134 0.10726 0.0
C784 C 0.83359 0.26965 0.11443 0.0
O785 O 0.8405 0.2712 0.13204 0.0
O786 O 0.8352 0.284 0.10205 0.0
C787 C 0.87441 0.25887 0.16481 0.0
O788 O 0.87637 0.25613 0.14542 0.0
C789 C 0.84954 0.31741 0.06475 0.0
C790 C 0.84061 0.34893 0.0602 0.0
C791 C 0.84704 0.33194 0.05012 0.0
N792 N 0.84467 0.32535 0.08253 0.0
N793 N 0.83928 0.3442 0.07979 0.0
C794 C 0.85796 0.29675 0.06241 0.0
H795 H 0.86522 0.29184 0.07653 0.0
H796 H 0.86904 0.29623 0.05003 0.0
H797 H 0.84561 0.28617 0.05902 0.0
C798 C 0.89458 0.30711 0.14087 0.0
N799 N 0.87546 0.30391 0.13535 0.0
N800 N 0.87242 0.31173 0.11753 0.0
C801 C 0.88975 0.31989 0.11099 0.0
C802 C 0.90428 0.31719 0.12558 0.0
C803 C 0.90344 0.30023 0.16029 0.0
H804 H 0.90773 0.28425 0.15891 0.0
H805 H 0.91705 0.30883 0.16428 0.0
H806 H 0.89227 0.30172 0.17248 0.0
O807 O 0.83286 0.30994 0.15657 0.0
O808 O 0.82673 0.32353 0.12665 0.0
H809 H 0.90697 0.33859 0.09086 0.0
H810 H 0.89067 0.3206 0.07903 0.0
C811 C 0.89215 0.33113 0.09176 0.0
H812 H 0.88023 0.3426 0.09048 0.0
H813 H 0.83486 0.35383 0.09127 0.0
O814 O 0.86521 0.27439 0.17104 0.0
C815 C 0.82273 0.32161 0.14527 0.0
Co816 Co 0.64575 0.78749 0.6471 0.0
Co817 Co 0.6041 0.80898 0.65247 0.0
C818 C 0.60797 0.76603 0.66058 0.0
O819 O 0.6264 0.76704 0.65598 0.0
O820 O 0.59663 0.78127 0.65946 0.0
C821 C 0.66727 0.75797 0.62581 0.0
O822 O 0.65005 0.75654 0.6164 0.0
C823 C 0.56213 0.81971 0.64641 0.0
C824 C 0.56131 0.85138 0.65605 0.0
C825 C 0.54952 0.83613 0.64841 0.0
N826 N 0.58058 0.82516 0.65228 0.0
N827 N 0.58001 0.84408 0.65807 0.0
C828 C 0.55675 0.79866 0.64079 0.0
H829 H 0.55844 0.78896 0.65416 0.0
H830 H 0.56733 0.7931 0.62924 0.0
H831 H 0.54116 0.79722 0.63539 0.0
C832 C 0.64335 0.80773 0.60759 0.0
N833 N 0.63574 0.80309 0.62569 0.0
N834 N 0.61785 0.81118 0.62749 0.0
C835 C 0.61329 0.82076 0.61029 0.0
C836 C 0.62928 0.81889 0.59715 0.0
C837 C 0.66342 0.80099 0.60019 0.0
H838 H 0.67383 0.79882 0.61291 0.0
H839 H 0.66168 0.78664 0.59201 0.0
H840 H 0.67003 0.81198 0.58969 0.0
O841 O 0.65135 0.80444 0.67091 0.0
O842 O 0.62107 0.81791 0.67508 0.0
H843 H 0.59259 0.84378 0.61841 0.0
H844 H 0.59418 0.83946 0.59185 0.0
C845 C 0.5943 0.83211 0.60674 0.0
H846 H 0.58139 0.82173 0.60782 0.0
H847 H 0.59239 0.85199 0.6634 0.0
O848 O 0.66943 0.77124 0.63933 0.0
C849 C 0.63907 0.81523 0.68082 0.0
Co850 Co 0.21706 0.63869 0.65064 0.0
Co851 Co 0.18742 0.60254 0.65695 0.0
C852 C 0.23016 0.60089 0.67045 0.0
O853 O 0.23365 0.61801 0.66303 0.0
O854 O 0.21285 0.593 0.66952 0.0
C855 C 0.25325 0.65477 0.63591 0.0
O856 O 0.25809 0.63571 0.63616 0.0
C857 C 0.17371 0.56257 0.64702 0.0
C858 C 0.14363 0.56103 0.66069 0.0
C859 C 0.15732 0.55008 0.64957 0.0
N860 N 0.16977 0.58017 0.65589 0.0
N861 N 0.15174 0.57923 0.66401 0.0
C862 C 0.19344 0.55749 0.63759 0.0
H863 H 0.20486 0.56898 0.64113 0.0
H864 H 0.1918 0.55687 0.6211 0.0
H865 H 0.19857 0.54256 0.64279 0.0
C866 C 0.20187 0.63536 0.60943 0.0
N867 N 0.20285 0.62874 0.62844 0.0
N868 N 0.1903 0.61373 0.63081 0.0
C869 C 0.18064 0.61058 0.61331 0.0
C870 C 0.18778 0.62407 0.59924 0.0
C871 C 0.21444 0.65203 0.60125 0.0
H872 H 0.23043 0.64773 0.60224 0.0
H873 H 0.21099 0.65534 0.58536 0.0
H874 H 0.21216 0.66572 0.61038 0.0
O875 O 0.1985 0.6483 0.67213 0.0
O876 O 0.17702 0.62295 0.67559 0.0
H877 H 0.15406 0.60104 0.59746 0.0
H878 H 0.16888 0.58128 0.60807 0.0
C879 C 0.16326 0.59668 0.6106 0.0
H880 H 0.15369 0.59676 0.62414 0.0
H881 H 0.14507 0.5909 0.67197 0.0
O882 O 0.23586 0.66006 0.64171 0.0
C883 C 0.18336 0.64025 0.68067 0.0
Co884 Co 0.34745 0.20118 0.64565 0.0
Co885 Co 0.39136 0.18533 0.65178 0.0
C886 C 0.38285 0.22806 0.65603 0.0
O887 O 0.36473 0.22394 0.65206 0.0
O888 O 0.39616 0.21444 0.65622 0.0
C889 C 0.32473 0.2269 0.62194 0.0
O890 O 0.34201 0.22778 0.61258 0.0
C891 C 0.43444 0.17747 0.64729 0.0
C892 C 0.43638 0.14556 0.65596 0.0
C893 C 0.4477 0.16155 0.64916 0.0
N894 N 0.41607 0.17102 0.65237 0.0
N895 N 0.41734 0.15199 0.65764 0.0
C896 C 0.43911 0.19883 0.64227 0.0
H897 H 0.43396 0.20857 0.65469 0.0
H898 H 0.43076 0.20327 0.62862 0.0
H899 H 0.45534 0.20146 0.64011 0.0
C900 C 0.35165 0.17847 0.60787 0.0
N901 N 0.35878 0.18491 0.62559 0.0
N902 N 0.37774 0.17979 0.62723 0.0
C903 C 0.38347 0.17062 0.61015 0.0
C904 C 0.36711 0.16944 0.59737 0.0
C905 C 0.33074 0.182 0.60058 0.0
H906 H 0.32049 0.18473 0.61333 0.0
H907 H 0.33061 0.19511 0.59039 0.0
H908 H 0.32518 0.16892 0.59203 0.0
O909 O 0.34399 0.18646 0.67102 0.0
O910 O 0.37538 0.17601 0.67524 0.0
H911 H 0.40566 0.15696 0.59076 0.0
H912 H 0.41503 0.17566 0.60804 0.0
C913 C 0.40422 0.16321 0.60609 0.0
H914 H 0.40802 0.15132 0.61701 0.0
H915 H 0.40516 0.14333 0.66222 0.0
O916 O 0.32274 0.21491 0.63664 0.0
C917 C 0.35733 0.17747 0.68133 0.0
Co918 Co 0.78976 0.34784 0.6456 0.0
Co919 Co 0.8104 0.38985 0.65064 0.0
C920 C 0.7677 0.38524 0.65944 0.0
O921 O 0.7695 0.36691 0.65474 0.0
O922 O 0.78252 0.39715 0.65825 0.0
C923 C 0.7606 0.32835 0.62324 0.0
O924 O 0.76053 0.34603 0.61462 0.0
C925 C 0.82096 0.43218 0.64583 0.0
C926 C 0.85384 0.4317 0.6497 0.0
C927 C 0.83789 0.44424 0.64542 0.0
N928 N 0.82671 0.41331 0.64977 0.0
N929 N 0.84636 0.41313 0.65218 0.0
C930 C 0.7995 0.43843 0.64386 0.0
H931 H 0.79147 0.43463 0.65789 0.0
H932 H 0.79234 0.42992 0.63152 0.0
H933 H 0.79781 0.45471 0.64126 0.0
C934 C 0.80833 0.35077 0.60579 0.0
N935 N 0.80482 0.35811 0.62419 0.0
N936 N 0.81198 0.37641 0.62541 0.0
C937 C 0.81966 0.38156 0.60741 0.0
C938 C 0.81747 0.36546 0.59438 0.0
C939 C 0.80393 0.32971 0.59942 0.0
H940 H 0.80348 0.31963 0.6126 0.0
H941 H 0.78928 0.32916 0.59164 0.0
H942 H 0.81552 0.32438 0.58875 0.0
O943 O 0.80656 0.34235 0.66919 0.0
O944 O 0.82034 0.3725 0.67298 0.0
H945 H 0.84201 0.40426 0.61022 0.0
H946 H 0.82978 0.40387 0.5861 0.0
C947 C 0.82752 0.40194 0.60244 0.0
H948 H 0.81687 0.41346 0.60783 0.0
H949 H 0.85468 0.40027 0.65527 0.0
O950 O 0.77316 0.32478 0.63714 0.0
C951 C 0.81765 0.35451 0.6789 0.0
Co952 Co 0.6512 0.19912 0.35529 0.0
Co953 Co 0.60677 0.18513 0.34936 0.0
C954 C 0.61776 0.22729 0.34293 0.0
O955 O 0.63556 0.22261 0.3476 0.0
O956 O 0.60388 0.21426 0.34323 0.0
C957 C 0.67498 0.22443 0.37808 0.0
O958 O 0.65767 0.22638 0.38723 0.0
C959 C 0.5641 0.18196 0.35692 0.0
C960 C 0.55672 0.1517 0.34572 0.0
C961 C 0.54844 0.16843 0.35483 0.0
N962 N 0.58075 0.17362 0.34939 0.0
N963 N 0.57627 0.15557 0.34261 0.0
C964 C 0.56392 0.20178 0.36739 0.0
H965 H 0.57903 0.20533 0.37333 0.0
H966 H 0.55292 0.2018 0.37986 0.0
H967 H 0.55974 0.21365 0.35654 0.0
C968 C 0.64577 0.17796 0.39387 0.0
N969 N 0.63891 0.18437 0.37602 0.0
N970 N 0.61987 0.17961 0.37425 0.0
C971 C 0.6139 0.17046 0.39127 0.0
C972 C 0.63008 0.1692 0.40424 0.0
C973 C 0.66676 0.18097 0.4012 0.0
H974 H 0.67718 0.18276 0.38843 0.0
H975 H 0.66732 0.19452 0.4108 0.0
H976 H 0.67182 0.16812 0.41035 0.0
O977 O 0.6538 0.18307 0.33055 0.0
O978 O 0.62206 0.17353 0.32654 0.0
H979 H 0.58874 0.15272 0.38233 0.0
H980 H 0.59259 0.15362 0.409 0.0
C981 C 0.59329 0.16246 0.39496 0.0
H982 H 0.58258 0.17509 0.39603 0.0
H983 H 0.58662 0.1458 0.33615 0.0
O984 O 0.67658 0.21182 0.36386 0.0
C985 C 0.64021 0.17406 0.32057 0.0
Co986 Co 0.79704 0.65196 0.35272 0.0
Co987 Co 0.81527 0.6094 0.34418 0.0
C988 C 0.77376 0.61829 0.33276 0.0
O989 O 0.77639 0.63588 0.33944 0.0
O990 O 0.78749 0.60518 0.33414 0.0
C991 C 0.76682 0.66842 0.37463 0.0
O992 O 0.76422 0.64903 0.37677 0.0
C993 C 0.82055 0.56649 0.34714 0.0
C994 C 0.85272 0.5621 0.3408 0.0
C995 C 0.83531 0.55193 0.34576 0.0
N996 N 0.8288 0.58435 0.34308 0.0
N997 N 0.84802 0.58168 0.3392 0.0
C998 C 0.79935 0.56396 0.35404 0.0
H999 H 0.7939 0.57791 0.36124 0.0
H1000 H 0.79806 0.55138 0.36482 0.0
H1001 H 0.78968 0.56079 0.34091 0.0
C1002 C 0.81248 0.64319 0.3929 0.0
N1003 N 0.80978 0.63806 0.37363 0.0
N1004 N 0.81644 0.61975 0.37076 0.0
C1005 C 0.82332 0.61253 0.3884 0.0
C1006 C 0.82078 0.62715 0.40298 0.0
C1007 C 0.808 0.6634 0.40153 0.0
H1008 H 0.80961 0.67515 0.38993 0.0
H1009 H 0.79247 0.66356 0.40741 0.0
H1010 H 0.81826 0.66677 0.41417 0.0
O1011 O 0.81583 0.65895 0.33098 0.0
O1012 O 0.82765 0.62834 0.32461 0.0
H1013 H 0.84391 0.58916 0.38092 0.0
H1014 H 0.83673 0.58958 0.40701 0.0
C1015 C 0.83138 0.59186 0.39146 0.0
H1016 H 0.81945 0.58078 0.38829 0.0
H1017 H 0.85798 0.59324 0.33582 0.0
O1018 O 0.78154 0.67461 0.36417 0.0
C1019 C 0.82656 0.64702 0.32055 0.0
Co1020 Co 0.35435 0.78921 0.34975 0.0
Co1021 Co 0.39457 0.81304 0.34482 0.0
C1022 C 0.39186 0.76988 0.33437 0.0
O1023 O 0.37386 0.76939 0.34044 0.0
O1024 O 0.40208 0.78593 0.335 0.0
C1025 C 0.33392 0.75847 0.36961 0.0
O1026 O 0.35165 0.75656 0.37793 0.0
C1027 C 0.43626 0.82221 0.35278 0.0
C1028 C 0.43946 0.8534 0.34216 0.0
C1029 C 0.44995 0.83767 0.35069 0.0
N1030 N 0.41843 0.82858 0.34605 0.0
N1031 N 0.42037 0.84725 0.33977 0.0
C1032 C 0.44023 0.80108 0.35916 0.0
H1033 H 0.44493 0.79227 0.34588 0.0
H1034 H 0.4264 0.79424 0.36533 0.0
H1035 H 0.45234 0.8002 0.37043 0.0
C1036 C 0.35692 0.80619 0.39046 0.0
N1037 N 0.36405 0.80393 0.37176 0.0
N1038 N 0.3815 0.81298 0.37032 0.0
C1039 C 0.38617 0.82096 0.38834 0.0
C1040 C 0.37079 0.8167 0.40169 0.0
C1041 C 0.33674 0.79929 0.39741 0.0
H1042 H 0.32603 0.79898 0.38474 0.0
H1043 H 0.33803 0.78407 0.4039 0.0
H1044 H 0.33091 0.80938 0.40927 0.0
O1045 O 0.34867 0.80659 0.32641 0.0
O1046 O 0.37694 0.82406 0.32352 0.0
H1047 H 0.40781 0.84377 0.38215 0.0
H1048 H 0.40561 0.83755 0.40839 0.0
C1049 C 0.40544 0.83142 0.39298 0.0
H1050 H 0.41799 0.82068 0.39145 0.0
H1051 H 0.40875 0.85569 0.33361 0.0
O1052 O 0.33097 0.77252 0.35707 0.0
C1053 C 0.3594 0.81958 0.31738 0.0
Co1054 Co 0.19085 0.34574 0.35352 0.0
Co1055 Co 0.18062 0.39138 0.34846 0.0
C1056 C 0.22139 0.37845 0.3424 0.0
O1057 O 0.21481 0.36089 0.34556 0.0
O1058 O 0.20993 0.39358 0.34397 0.0
C1059 C 0.21543 0.32182 0.37683 0.0
O1060 O 0.21741 0.33925 0.38575 0.0
C1061 C 0.17486 0.43516 0.35297 0.0
C1062 C 0.14266 0.43782 0.34573 0.0
C1063 C 0.15912 0.44876 0.35199 0.0
N1064 N 0.16782 0.41694 0.348 0.0
N1065 N 0.14862 0.41871 0.34351 0.0
C1066 C 0.1964 0.43945 0.35749 0.0
H1067 H 0.20619 0.43048 0.34756 0.0
H1068 H 0.1997 0.4352 0.3732 0.0
H1069 H 0.2 0.45551 0.35528 0.0
C1070 C 0.17034 0.3522 0.39224 0.0
N1071 N 0.17686 0.35869 0.3743 0.0
N1072 N 0.17404 0.37814 0.37298 0.0
C1073 C 0.16629 0.38475 0.39043 0.0
C1074 C 0.16372 0.36854 0.40322 0.0
C1075 C 0.17174 0.33095 0.39925 0.0
H1076 H 0.17348 0.32063 0.38639 0.0
H1077 H 0.18471 0.32937 0.40952 0.0
H1078 H 0.15812 0.3266 0.40764 0.0
O1079 O 0.17428 0.34349 0.32913 0.0
O1080 O 0.17024 0.37633 0.32481 0.0
H1081 H 0.14979 0.41145 0.38433 0.0
H1082 H 0.15591 0.40827 0.41033 0.0
C1083 C 0.1615 0.4062 0.39483 0.0
H1084 H 0.17507 0.41548 0.39252 0.0
H1085 H 0.13948 0.40675 0.33932 0.0
O1086 O 0.20305 0.32016 0.36241 0.0
C1087 C 0.16818 0.35832 0.31876 0.0
Co1088 Co 0.64577 0.64818 0.79438 0.0
Co1089 Co 0.65281 0.60545 0.81282 0.0
C1090 C 0.66395 0.61271 0.77156 0.0
O1091 O 0.65871 0.63073 0.77456 0.0
O1092 O 0.66137 0.59946 0.78498 0.0
C1093 C 0.62534 0.66397 0.76266 0.0
O1094 O 0.62276 0.64458 0.7606 0.0
C1095 C 0.64795 0.56308 0.82204 0.0
C1096 C 0.65562 0.56167 0.85421 0.0
C1097 C 0.64888 0.55018 0.8383 0.0
N1098 N 0.65343 0.58143 0.82818 0.0
N1099 N 0.65816 0.58049 0.84737 0.0
C1100 C 0.6432 0.55814 0.80067 0.0
H1101 H 0.6565 0.56146 0.7913 0.0
H1102 H 0.63081 0.56784 0.79532 0.0
H1103 H 0.63929 0.54218 0.79851 0.0
C1104 C 0.60588 0.64199 0.8118 0.0
N1105 N 0.62451 0.6355 0.80774 0.0
N1106 N 0.62678 0.61722 0.81468 0.0
C1107 C 0.60934 0.61133 0.8231 0.0
C1108 C 0.59559 0.62687 0.82158 0.0
C1109 C 0.59797 0.66206 0.80562 0.0
H1110 H 0.59282 0.6612 0.78986 0.0
H1111 H 0.58508 0.66682 0.8149 0.0
H1112 H 0.60996 0.67349 0.80668 0.0
O1113 O 0.66756 0.65532 0.81317 0.0
O1114 O 0.67383 0.62402 0.82316 0.0
H1115 H 0.61737 0.58977 0.84535 0.0
H1116 H 0.59093 0.5906 0.83998 0.0
C1117 C 0.60611 0.59165 0.83332 0.0
H1118 H 0.60809 0.57935 0.82236 0.0
H1119 H 0.66274 0.59276 0.85588 0.0
O1120 O 0.63516 0.67044 0.77769 0.0
C1121 C 0.67823 0.64264 0.82272 0.0
Co1122 Co 0.34939 0.64222 0.80085 0.0
Co1123 Co 0.39245 0.65145 0.8178 0.0
C1124 C 0.38285 0.66026 0.77575 0.0
O1125 O 0.36527 0.65382 0.77905 0.0
O1126 O 0.39616 0.65969 0.78936 0.0
C1127 C 0.33099 0.61906 0.77238 0.0
O1128 O 0.35014 0.61588 0.76915 0.0
C1129 C 0.43565 0.64804 0.82422 0.0
C1130 C 0.43882 0.65665 0.85602 0.0
C1131 C 0.44952 0.64982 0.83961 0.0
N1132 N 0.41754 0.65311 0.83137 0.0
N1133 N 0.41954 0.65842 0.85034 0.0
C1134 C 0.43942 0.64282 0.80273 0.0
H1135 H 0.43394 0.65517 0.7931 0.0
H1136 H 0.43082 0.62918 0.79872 0.0
H1137 H 0.45552 0.64056 0.79946 0.0
C1138 C 0.35743 0.60346 0.82023 0.0
N1139 N 0.36316 0.62204 0.81493 0.0
N1140 N 0.38165 0.62517 0.82097 0.0
C1141 C 0.38845 0.60832 0.8299 0.0
C1142 C 0.37329 0.5941 0.82976 0.0
C1143 C 0.33732 0.59465 0.81557 0.0
H1144 H 0.32564 0.60642 0.81611 0.0
H1145 H 0.33769 0.58809 0.80032 0.0
H1146 H 0.33323 0.58256 0.82614 0.0
O1147 O 0.34313 0.66525 0.81836 0.0
O1148 O 0.37397 0.67186 0.82944 0.0
H1149 H 0.41073 0.61778 0.85084 0.0
H1150 H 0.4106 0.59117 0.84627 0.0
C1151 C 0.40869 0.6061 0.83923 0.0
H1152 H 0.42038 0.60817 0.82764 0.0
H1153 H 0.40769 0.66288 0.85949 0.0
O1154 O 0.32591 0.63053 0.78676 0.0
C1155 C 0.35532 0.67604 0.82844 0.0
Co1156 Co 0.35127 0.35651 0.78405 0.0
Co1157 Co 0.34596 0.39545 0.80995 0.0
C1158 C 0.33804 0.39565 0.76627 0.0
O1159 O 0.34369 0.37755 0.76501 0.0
O1160 O 0.33795 0.40485 0.78293 0.0
C1161 C 0.37279 0.33708 0.75353 0.0
O1162 O 0.38236 0.35427 0.75359 0.0
C1163 C 0.35398 0.43634 0.82275 0.0
C1164 C 0.34458 0.43623 0.8545 0.0
C1165 C 0.35294 0.44823 0.83977 0.0
N1166 N 0.34699 0.41806 0.82735 0.0
N1167 N 0.34131 0.41807 0.84631 0.0
C1168 C 0.35992 0.44231 0.80195 0.0
H1169 H 0.34642 0.44208 0.79228 0.0
H1170 H 0.37063 0.43118 0.7958 0.0
H1171 H 0.36645 0.45751 0.8012 0.0
C1172 C 0.39064 0.35632 0.80475 0.0
N1173 N 0.37261 0.36453 0.80083 0.0
N1174 N 0.371 0.38161 0.81056 0.0
C1175 C 0.38828 0.38508 0.82047 0.0
C1176 C 0.40124 0.3692 0.8171 0.0
C1177 C 0.3978 0.33678 0.79641 0.0
H1178 H 0.38495 0.32677 0.79326 0.0
H1179 H 0.40622 0.33958 0.78237 0.0
H1180 H 0.40805 0.32911 0.80693 0.0
O1181 O 0.32671 0.35038 0.79976 0.0
O1182 O 0.32381 0.3777 0.81869 0.0
H1183 H 0.38026 0.40392 0.84509 0.0
H1184 H 0.40685 0.40183 0.84118 0.0
C1185 C 0.39213 0.40286 0.83355 0.0
H1186 H 0.39176 0.41666 0.82435 0.0
H1187 H 0.33532 0.40566 0.85368 0.0
O1188 O 0.35889 0.33404 0.76622 0.0
C1189 C 0.31742 0.36062 0.81298 0.0
Co1190 Co 0.64761 0.35547 0.79418 0.0
Co1191 Co 0.60485 0.34794 0.8123 0.0
C1192 C 0.61266 0.33936 0.76991 0.0
O1193 O 0.63051 0.34523 0.77271 0.0
O1194 O 0.59987 0.34001 0.784 0.0
C1195 C 0.66808 0.37903 0.76646 0.0
O1196 O 0.65024 0.38728 0.76557 0.0
C1197 C 0.56207 0.35252 0.81953 0.0
C1198 C 0.55877 0.34221 0.85083 0.0
C1199 C 0.54815 0.34986 0.83474 0.0
N1200 N 0.58012 0.34701 0.82645 0.0
N1201 N 0.57808 0.34081 0.84513 0.0
C1202 C 0.55839 0.35851 0.79823 0.0
H1203 H 0.56039 0.34517 0.78853 0.0
H1204 H 0.56967 0.36978 0.79355 0.0
H1205 H 0.5431 0.36438 0.79577 0.0
C1206 C 0.64203 0.39432 0.81461 0.0
N1207 N 0.63536 0.37615 0.80898 0.0
N1208 N 0.61685 0.37374 0.81529 0.0
C1209 C 0.61091 0.39072 0.82456 0.0
C1210 C 0.6267 0.40424 0.82445 0.0
C1211 C 0.66259 0.40217 0.81027 0.0
H1212 H 0.67328 0.38966 0.80817 0.0
H1213 H 0.66212 0.41141 0.79647 0.0
H1214 H 0.66809 0.41182 0.82257 0.0
O1215 O 0.65329 0.33202 0.81127 0.0
O1216 O 0.62265 0.32676 0.82346 0.0
H1217 H 0.58847 0.38193 0.84562 0.0
H1218 H 0.58965 0.40857 0.84137 0.0
C1219 C 0.59087 0.39367 0.83413 0.0
H1220 H 0.57899 0.39218 0.82264 0.0
H1221 H 0.58987 0.33566 0.854 0.0
O1222 O 0.67126 0.36506 0.77904 0.0
C1223 C 0.64105 0.3218 0.82182 0.0
Co1224 Co 0.64818 0.35392 0.21091 0.0
Co1225 Co 0.65425 0.39298 0.18532 0.0
C1226 C 0.66265 0.39239 0.22898 0.0
O1227 O 0.65639 0.37449 0.2302 0.0
O1228 O 0.66285 0.40168 0.21238 0.0
C1229 C 0.62704 0.33426 0.2417 0.0
O1230 O 0.61791 0.35168 0.24237 0.0
C1231 C 0.64726 0.43434 0.17362 0.0
C1232 C 0.65707 0.43501 0.14201 0.0
C1233 C 0.64896 0.44678 0.15706 0.0
N1234 N 0.65371 0.41601 0.16847 0.0
N1235 N 0.65961 0.41648 0.14958 0.0
C1236 C 0.64136 0.4398 0.19457 0.0
H1237 H 0.63102 0.42829 0.20065 0.0
H1238 H 0.63441 0.45479 0.19564 0.0
H1239 H 0.65496 0.43981 0.2041 0.0
C1240 C 0.60846 0.35519 0.19081 0.0
N1241 N 0.62684 0.36272 0.19446 0.0
N1242 N 0.62887 0.37979 0.18481 0.0
C1243 C 0.61158 0.38392 0.17518 0.0
C1244 C 0.59812 0.3685 0.17869 0.0
C1245 C 0.60069 0.33596 0.19933 0.0
H1246 H 0.61318 0.32539 0.20206 0.0
H1247 H 0.59288 0.33909 0.21364 0.0
H1248 H 0.58977 0.32879 0.18913 0.0
O1249 O 0.67259 0.34762 0.19496 0.0
O1250 O 0.67591 0.37494 0.1761 0.0
H1251 H 0.62009 0.4029 0.15083 0.0
H1252 H 0.59342 0.4013 0.15465 0.0
C1253 C 0.60815 0.40193 0.16231 0.0
H1254 H 0.60879 0.41561 0.1717 0.0
H1255 H 0.66535 0.40415 0.14187 0.0
O1256 O 0.6404 0.33121 0.22845 0.0
C1257 C 0.68202 0.35774 0.18175 0.0
Co1258 Co 0.64937 0.64349 0.19793 0.0
Co1259 Co 0.60526 0.64846 0.18266 0.0
C1260 C 0.61484 0.65578 0.22489 0.0
O1261 O 0.63296 0.65153 0.22108 0.0
O1262 O 0.60147 0.65498 0.21138 0.0
C1263 C 0.67298 0.62163 0.22425 0.0
O1264 O 0.65572 0.6124 0.22629 0.0
C1265 C 0.56268 0.64106 0.17868 0.0
C1266 C 0.55587 0.65196 0.14819 0.0
C1267 C 0.5472 0.64337 0.165 0.0
N1268 N 0.57959 0.64806 0.17041 0.0
N1269 N 0.57548 0.65459 0.15219 0.0
C1270 C 0.562 0.63107 0.19874 0.0
H1271 H 0.57684 0.62455 0.20243 0.0
H1272 H 0.55046 0.61911 0.19902 0.0
H1273 H 0.55833 0.64237 0.21034 0.0
C1274 C 0.64498 0.6043 0.1775 0.0
N1275 N 0.63773 0.62217 0.18342 0.0
N1276 N 0.61884 0.62368 0.17798 0.0
C1277 C 0.61334 0.60647 0.16888 0.0
C1278 C 0.62969 0.59364 0.16833 0.0
C1279 C 0.66594 0.59726 0.18131 0.0
H1280 H 0.6762 0.61019 0.18287 0.0
H1281 H 0.66623 0.58824 0.19524 0.0
H1282 H 0.67142 0.58764 0.16898 0.0
O1283 O 0.65237 0.66761 0.18081 0.0
O1284 O 0.6205 0.6714 0.17158 0.0
H1285 H 0.59267 0.58828 0.15171 0.0
H1286 H 0.58187 0.60187 0.17244 0.0
C1287 C 0.59306 0.60256 0.16021 0.0
H1288 H 0.5889 0.61494 0.14999 0.0
H1289 H 0.58606 0.66073 0.14247 0.0
O1290 O 0.67461 0.63552 0.21129 0.0
C1291 C 0.63863 0.67739 0.17182 0.0
Co1292 Co 0.34947 0.64874 0.20409 0.0
Co1293 Co 0.34127 0.60616 0.18558 0.0
C1294 C 0.32989 0.61488 0.22723 0.0
O1295 O 0.33643 0.63254 0.22475 0.0
O1296 O 0.33131 0.60191 0.21337 0.0
C1297 C 0.3703 0.66661 0.23471 0.0
O1298 O 0.37252 0.64741 0.23843 0.0
C1299 C 0.34465 0.56325 0.18054 0.0
C1300 C 0.33757 0.55848 0.14859 0.0
C1301 C 0.34295 0.54851 0.16599 0.0
N1302 N 0.34034 0.58101 0.1722 0.0
N1303 N 0.33603 0.57811 0.1531 0.0
C1304 C 0.35199 0.561 0.20162 0.0
H1305 H 0.35914 0.57508 0.20679 0.0
H1306 H 0.36292 0.54854 0.2028 0.0
H1307 H 0.33908 0.5578 0.21158 0.0
C1308 C 0.38978 0.64028 0.1888 0.0
N1309 N 0.37054 0.63501 0.19144 0.0
N1310 N 0.36774 0.61682 0.18442 0.0
C1311 C 0.38537 0.60985 0.17727 0.0
C1312 C 0.39989 0.62447 0.18007 0.0
C1313 C 0.39833 0.6604 0.1938 0.0
H1314 H 0.38682 0.6722 0.19189 0.0
H1315 H 0.40356 0.66039 0.20955 0.0
H1316 H 0.41135 0.66386 0.18406 0.0
O1317 O 0.3277 0.65539 0.18519 0.0
O1318 O 0.32154 0.62483 0.17315 0.0
H1319 H 0.3777 0.58686 0.15632 0.0
H1320 H 0.40393 0.58737 0.16299 0.0
C1321 C 0.38846 0.58939 0.1687 0.0
H1322 H 0.38564 0.57803 0.18044 0.0
H1323 H 0.33233 0.58954 0.14311 0.0
O1324 O 0.3604 0.67191 0.21929 0.0
C1325 C 0.31738 0.64348 0.17434 0.0
Co1326 Co 0.35598 0.35037 0.21666 0.0
Co1327 Co 0.39612 0.34724 0.19222 0.0
C1328 C 0.39478 0.33779 0.23558 0.0
O1329 O 0.37644 0.34273 0.23618 0.0
O1330 O 0.40472 0.33846 0.21935 0.0
C1331 C 0.33464 0.36972 0.24735 0.0
O1332 O 0.35172 0.37938 0.24883 0.0
C1333 C 0.43772 0.35505 0.18142 0.0
C1334 C 0.43861 0.34711 0.14929 0.0
C1335 C 0.45036 0.35392 0.16497 0.0
N1336 N 0.41929 0.3494 0.17566 0.0
N1337 N 0.41988 0.34474 0.15643 0.0
C1338 C 0.44314 0.35943 0.20274 0.0
H1339 H 0.44429 0.34506 0.211 0.0
H1340 H 0.43112 0.36842 0.20988 0.0
H1341 H 0.45763 0.36732 0.20413 0.0
C1342 C 0.35588 0.39067 0.19869 0.0
N1343 N 0.3642 0.37254 0.20135 0.0
N1344 N 0.38165 0.37197 0.19223 0.0
C1345 C 0.38522 0.39007 0.18391 0.0
C1346 C 0.36901 0.40253 0.18788 0.0
C1347 C 0.33519 0.39629 0.2053 0.0
H1348 H 0.32547 0.38285 0.20595 0.0
H1349 H 0.33588 0.40326 0.22035 0.0
H1350 H 0.32854 0.40737 0.19485 0.0
O1351 O 0.35123 0.32651 0.19974 0.0
O1352 O 0.37936 0.32486 0.1819 0.0
H1353 H 0.40586 0.38635 0.15974 0.0
H1354 H 0.40468 0.41165 0.16935 0.0
C1355 C 0.40426 0.39558 0.17346 0.0
H1356 H 0.41714 0.39227 0.18338 0.0
H1357 H 0.40756 0.33967 0.14826 0.0
O1358 O 0.33246 0.35665 0.23365 0.0
C1359 C 0.3622 0.31792 0.18666 0.0
Co1360 Co 0.80192 0.64129 0.65287 0.0
Co1361 Co 0.81682 0.64821 0.60889 0.0
C1362 C 0.77487 0.65624 0.61947 0.0
O1363 O 0.77912 0.65079 0.63715 0.0
O1364 O 0.78804 0.6557 0.60572 0.0
C1365 C 0.7754 0.61824 0.67498 0.0
O1366 O 0.7738 0.60984 0.65727 0.0
C1367 C 0.82044 0.64253 0.56596 0.0
C1368 C 0.85132 0.65261 0.55961 0.0
C1369 C 0.83429 0.64483 0.55061 0.0
N1370 N 0.82887 0.64873 0.58311 0.0
N1371 N 0.8473 0.65481 0.57925 0.0
C1372 C 0.80011 0.63314 0.56492 0.0
H1373 H 0.79606 0.62648 0.5796 0.0
H1374 H 0.79961 0.62138 0.55318 0.0
H1375 H 0.78887 0.64483 0.56131 0.0
C1376 C 0.82173 0.60217 0.64638 0.0
N1377 N 0.816 0.62043 0.64002 0.0
N1378 N 0.821 0.62262 0.62108 0.0
C1379 C 0.82954 0.60545 0.61464 0.0
C1380 C 0.83024 0.59197 0.63044 0.0
C1381 C 0.81846 0.59438 0.66715 0.0
H1382 H 0.81687 0.60691 0.67789 0.0
H1383 H 0.80473 0.58503 0.6674 0.0
H1384 H 0.83112 0.58484 0.672 0.0
O1385 O 0.81905 0.66509 0.65678 0.0
O1386 O 0.82908 0.66994 0.62531 0.0
H1387 H 0.84806 0.61426 0.59003 0.0
H1388 H 0.84545 0.58754 0.59276 0.0
C1389 C 0.83751 0.60209 0.59397 0.0
H1390 H 0.82496 0.6023 0.58313 0.0
H1391 H 0.85719 0.66024 0.59007 0.0
O1392 O 0.78824 0.63212 0.67755 0.0
C1393 C 0.82863 0.67521 0.64369 0.0
Co1394 Co 0.79661 0.35287 0.34626 0.0
Co1395 Co 0.81506 0.34708 0.38924 0.0
C1396 C 0.77391 0.33422 0.38114 0.0
O1397 O 0.7765 0.33992 0.36322 0.0
O1398 O 0.78754 0.33666 0.39422 0.0
C1399 C 0.76545 0.37306 0.32924 0.0
O1400 O 0.76294 0.37592 0.34855 0.0
C1401 C 0.82096 0.35104 0.43208 0.0
C1402 C 0.85339 0.34573 0.43593 0.0
C1403 C 0.83597 0.34998 0.44642 0.0
N1404 N 0.82906 0.34739 0.41407 0.0
N1405 N 0.84845 0.3442 0.41642 0.0
C1406 C 0.79953 0.35699 0.43501 0.0
H1407 H 0.79366 0.36434 0.42133 0.0
H1408 H 0.79794 0.36734 0.44792 0.0
H1409 H 0.79043 0.34338 0.43787 0.0
C1410 C 0.81144 0.39366 0.35271 0.0
N1411 N 0.80891 0.37473 0.35902 0.0
N1412 N 0.81559 0.37305 0.37746 0.0
C1413 C 0.82231 0.39115 0.3836 0.0
C1414 C 0.81968 0.40479 0.3681 0.0
C1415 C 0.80704 0.40082 0.33192 0.0
H1416 H 0.80892 0.38844 0.32102 0.0
H1417 H 0.7914 0.40636 0.33121 0.0
H1418 H 0.81714 0.41336 0.32776 0.0
O1419 O 0.81597 0.33131 0.34018 0.0
O1420 O 0.8277 0.32693 0.37116 0.0
H1421 H 0.8439 0.38618 0.40668 0.0
H1422 H 0.83417 0.41145 0.40599 0.0
C1423 C 0.83034 0.3954 0.40406 0.0
H1424 H 0.81901 0.3912 0.41541 0.0
H1425 H 0.85832 0.34111 0.4047 0.0
O1426 O 0.78049 0.36291 0.32332 0.0
C1427 C 0.82689 0.32184 0.35272 0.0
Co1428 Co 0.64583 0.7818 0.35852 0.0
Co1429 Co 0.65192 0.80957 0.3963 0.0
C1430 C 0.66323 0.76619 0.39655 0.0
O1431 O 0.65632 0.76371 0.37904 0.0
O1432 O 0.66279 0.78321 0.40508 0.0
C1433 C 0.63095 0.74682 0.33975 0.0
O1434 O 0.62996 0.74105 0.35851 0.0
C1435 C 0.64263 0.82185 0.43703 0.0
C1436 C 0.65814 0.85094 0.43983 0.0
C1437 C 0.64663 0.83726 0.45041 0.0
N1438 N 0.65118 0.82633 0.41939 0.0
N1439 N 0.66032 0.8438 0.42108 0.0
C1440 C 0.63233 0.80238 0.44127 0.0
H1441 H 0.63795 0.79591 0.45551 0.0
H1442 H 0.63456 0.79162 0.42885 0.0
H1443 H 0.61601 0.80492 0.44286 0.0
C1444 C 0.60524 0.79895 0.36096 0.0
N1445 N 0.62395 0.79683 0.36815 0.0
N1446 N 0.62625 0.80843 0.38391 0.0
C1447 C 0.60905 0.81858 0.38706 0.0
C1448 C 0.59518 0.81283 0.37269 0.0
C1449 C 0.59713 0.78738 0.34356 0.0
H1450 H 0.59782 0.77117 0.34704 0.0
H1451 H 0.58138 0.79128 0.34015 0.0
H1452 H 0.60659 0.79015 0.33018 0.0
O1453 O 0.66893 0.79942 0.35099 0.0
O1454 O 0.672 0.81978 0.37729 0.0
H1455 H 0.62017 0.84422 0.40292 0.0
H1456 H 0.59348 0.84457 0.39856 0.0
C1457 C 0.60647 0.83487 0.40223 0.0
H1458 H 0.60391 0.8281 0.41715 0.0
H1459 H 0.66845 0.8506 0.4096 0.0
O1460 O 0.6373 0.76436 0.33572 0.0
C1461 C 0.67779 0.81375 0.36011 0.0
Co1462 Co 0.19607 0.64493 0.35095 0.0
Co1463 Co 0.18481 0.65142 0.39598 0.0
C1464 C 0.22558 0.65851 0.38352 0.0
O1465 O 0.21949 0.65442 0.36598 0.0
O1466 O 0.21388 0.65702 0.39847 0.0
C1467 C 0.22162 0.6219 0.32766 0.0
O1468 O 0.22416 0.61349 0.34527 0.0
C1469 C 0.18033 0.64713 0.43936 0.0
C1470 C 0.14907 0.65704 0.44409 0.0
C1471 C 0.16575 0.64967 0.45395 0.0
N1472 N 0.17248 0.65248 0.42164 0.0
N1473 N 0.15384 0.65844 0.42455 0.0
C1474 C 0.20183 0.64137 0.44211 0.0
H1475 H 0.20589 0.62947 0.43125 0.0
H1476 H 0.20515 0.63636 0.45756 0.0
H1477 H 0.21137 0.65455 0.43876 0.0
C1478 C 0.17645 0.60606 0.35825 0.0
N1479 N 0.18261 0.62422 0.3644 0.0
N1480 N 0.17915 0.62615 0.38369 0.0
C1481 C 0.17129 0.60883 0.39058 0.0
C1482 C 0.16932 0.59558 0.37466 0.0
C1483 C 0.1784 0.5985 0.33722 0.0
H1484 H 0.17954 0.61115 0.32656 0.0
H1485 H 0.19197 0.58898 0.33604 0.0
H1486 H 0.16534 0.5892 0.33299 0.0
O1487 O 0.17865 0.66842 0.3475 0.0
O1488 O 0.17377 0.67422 0.38001 0.0
H1489 H 0.15436 0.61638 0.41667 0.0
H1490 H 0.15899 0.58993 0.41391 0.0
C1491 C 0.16553 0.60507 0.4119 0.0
H1492 H 0.17891 0.6066 0.42158 0.0
H1493 H 0.14433 0.66335 0.41316 0.0
O1494 O 0.20861 0.63571 0.32577 0.0
C1495 C 0.17187 0.67927 0.36167 0.0
Co1496 Co 0.35135 0.20633 0.35324 0.0
Co1497 Co 0.34294 0.18613 0.395 0.0
C1498 C 0.32855 0.22685 0.387 0.0
O1499 O 0.33594 0.22521 0.36956 0.0
O1500 O 0.33073 0.21297 0.39988 0.0
C1501 C 0.37109 0.23874 0.33737 0.0
O1502 O 0.37196 0.24213 0.35673 0.0
C1503 C 0.34525 0.17721 0.43772 0.0
C1504 C 0.34247 0.14422 0.43825 0.0
C1505 C 0.3458 0.16072 0.45036 0.0
N1506 N 0.34223 0.17068 0.41895 0.0
N1507 N 0.34034 0.15098 0.41937 0.0
C1508 C 0.34658 0.19892 0.44323 0.0
H1509 H 0.35936 0.20594 0.43527 0.0
H1510 H 0.34809 0.20122 0.45959 0.0
H1511 H 0.33278 0.20663 0.43818 0.0
C1512 C 0.39226 0.19364 0.36275 0.0
N1513 N 0.37273 0.19493 0.36747 0.0
N1514 N 0.36983 0.18736 0.38541 0.0
C1515 C 0.38768 0.18121 0.39278 0.0
C1516 C 0.40241 0.18524 0.37868 0.0
C1517 C 0.40101 0.19926 0.34288 0.0
H1518 H 0.38987 0.197 0.3308 0.0
H1519 H 0.40558 0.21522 0.34322 0.0
H1520 H 0.41452 0.19014 0.33959 0.0
O1521 O 0.33149 0.18608 0.34492 0.0
O1522 O 0.32501 0.17312 0.37501 0.0
H1523 H 0.38184 0.15818 0.41422 0.0
H1524 H 0.40669 0.16875 0.41593 0.0
C1525 C 0.3907 0.17217 0.41305 0.0
H1526 H 0.38531 0.18272 0.42465 0.0
H1527 H 0.33814 0.14212 0.40669 0.0
O1528 O 0.36228 0.223 0.33117 0.0
C1529 C 0.32152 0.17431 0.35624 0.0
Co1530 Co 0.2064 0.35714 0.6472 0.0
Co1531 Co 0.18509 0.34808 0.60602 0.0
C1532 C 0.22761 0.3375 0.61224 0.0
O1533 O 0.22633 0.34456 0.62983 0.0
O1534 O 0.21277 0.33827 0.60033 0.0
C1535 C 0.23781 0.37838 0.66362 0.0
O1536 O 0.24088 0.38054 0.64431 0.0
C1537 C 0.17447 0.35302 0.56364 0.0
C1538 C 0.14388 0.34042 0.56266 0.0
C1539 C 0.15833 0.34961 0.55094 0.0
N1540 N 0.16957 0.3465 0.58205 0.0
N1541 N 0.1513 0.33893 0.58135 0.0
C1542 C 0.19457 0.36142 0.55825 0.0
H1543 H 0.206 0.35716 0.56942 0.0
H1544 H 0.19378 0.37799 0.55792 0.0
H1545 H 0.19923 0.3561 0.5432 0.0
C1546 C 0.18755 0.39635 0.64065 0.0
N1547 N 0.19205 0.37774 0.63437 0.0
N1548 N 0.18357 0.37449 0.61688 0.0
C1549 C 0.17344 0.39115 0.61145 0.0
C1550 C 0.17568 0.40548 0.62632 0.0
C1551 C 0.19475 0.40518 0.65998 0.0
H1552 H 0.21069 0.4095 0.65833 0.0
H1553 H 0.18626 0.41876 0.66428 0.0
H1554 H 0.19356 0.39392 0.67212 0.0
O1555 O 0.18847 0.33477 0.65515 0.0
O1556 O 0.1742 0.32854 0.62559 0.0
H1557 H 0.15005 0.37977 0.5927 0.0
H1558 H 0.15124 0.40674 0.59367 0.0
C1559 C 0.16029 0.39281 0.59339 0.0
H1560 H 0.1697 0.39285 0.57974 0.0
H1561 H 0.14385 0.33285 0.59366 0.0
O1562 O 0.22258 0.3685 0.66948 0.0
C1563 C 0.17677 0.32442 0.64408 0.0
Co1564 Co 0.64476 0.20225 0.64971 0.0
Co1565 Co 0.65047 0.1836 0.60683 0.0
C1566 C 0.65634 0.22661 0.61302 0.0
O1567 O 0.652 0.2238 0.6313 0.0
O1568 O 0.65613 0.21218 0.60059 0.0
C1569 C 0.62215 0.23009 0.67117 0.0
O1570 O 0.61284 0.23069 0.65386 0.0
C1571 C 0.64521 0.17425 0.56431 0.0
C1572 C 0.65353 0.14221 0.56313 0.0
C1573 C 0.64668 0.15794 0.55148 0.0
N1574 N 0.65054 0.16828 0.58275 0.0
N1575 N 0.65561 0.14916 0.58195 0.0
C1576 C 0.64041 0.19555 0.55915 0.0
H1577 H 0.65353 0.20506 0.56279 0.0
H1578 H 0.62769 0.20081 0.56846 0.0
H1579 H 0.63694 0.19763 0.54308 0.0
C1580 C 0.60607 0.1808 0.64653 0.0
N1581 N 0.62408 0.18614 0.63918 0.0
N1582 N 0.6257 0.17972 0.62062 0.0
C1583 C 0.60839 0.1707 0.61535 0.0
C1584 C 0.59543 0.17108 0.6316 0.0
C1585 C 0.59874 0.18595 0.66709 0.0
H1586 H 0.61151 0.18866 0.67732 0.0
H1587 H 0.58926 0.19956 0.66628 0.0
H1588 H 0.58945 0.17371 0.67332 0.0
O1589 O 0.66975 0.18691 0.65393 0.0
O1590 O 0.67352 0.17431 0.62328 0.0
H1591 H 0.61534 0.14973 0.59221 0.0
H1592 H 0.58906 0.15536 0.59423 0.0
C1593 C 0.60435 0.1618 0.59519 0.0
H1594 H 0.60617 0.17347 0.58353 0.0
H1595 H 0.66032 0.14082 0.59429 0.0
O1596 O 0.6363 0.21755 0.67369 0.0
C1597 C 0.67973 0.17675 0.64118 0.0
Co1598 Co 0.35331 0.79379 0.6504 0.0
Co1599 Co 0.3477 0.81074 0.60686 0.0
C1600 C 0.34272 0.76787 0.61453 0.0
O1601 O 0.34658 0.77113 0.63284 0.0
O1602 O 0.34286 0.78196 0.60176 0.0
C1603 C 0.37584 0.76709 0.67338 0.0
O1604 O 0.38537 0.76579 0.65621 0.0
C1605 C 0.35429 0.81682 0.56432 0.0
C1606 C 0.34231 0.8472 0.55904 0.0
C1607 C 0.35114 0.83103 0.54947 0.0
N1608 N 0.34749 0.82417 0.58173 0.0
N1609 N 0.34034 0.84235 0.57853 0.0
C1610 C 0.3648 0.79709 0.56252 0.0
H1611 H 0.37198 0.79306 0.57695 0.0
H1612 H 0.37631 0.79757 0.55055 0.0
H1613 H 0.35368 0.7853 0.55884 0.0
C1614 C 0.39176 0.81577 0.64678 0.0
N1615 N 0.37394 0.80977 0.63944 0.0
N1616 N 0.37216 0.81596 0.62081 0.0
C1617 C 0.38912 0.82563 0.61555 0.0
C1618 C 0.40209 0.82578 0.6318 0.0
C1619 C 0.39917 0.81105 0.6674 0.0
H1620 H 0.38644 0.8085 0.67771 0.0
H1621 H 0.40867 0.79743 0.66683 0.0
H1622 H 0.40844 0.8234 0.67343 0.0
O1623 O 0.32831 0.80954 0.65394 0.0
O1624 O 0.32406 0.8198 0.62244 0.0
H1625 H 0.38021 0.84498 0.59163 0.0
H1626 H 0.40691 0.84367 0.59529 0.0
C1627 C 0.3928 0.8349 0.59549 0.0
H1628 H 0.39367 0.82297 0.58399 0.0
H1629 H 0.33414 0.85142 0.58964 0.0
O1630 O 0.3616 0.77965 0.67518 0.0
C1631 C 0.31805 0.81848 0.64052 0.0
H1632 H 0.13159 0.36634 0.96828 0.0
H1633 H 0.15305 0.29778 0.06422 0.0
H1634 H 0.16723 0.3125 0.96794 0.0
H1635 H 0.12229 0.35435 0.06861 0.0
H1636 H 0.15744 0.30312 0.0285 0.0
H1637 H 0.12758 0.36291 0.00476 0.0
C1638 C 0.13857 0.35384 0.97591 0.0
C1639 C 0.14928 0.33936 0.96509 0.0
C1640 C 0.14978 0.31447 0.03718 0.0
C1641 C 0.14484 0.33536 0.00649 0.0
C1642 C 0.14736 0.31145 0.05761 0.0
C1643 C 0.13756 0.32579 0.06933 0.0
C1644 C 0.14225 0.33197 0.02827 0.0
C1645 C 0.12994 0.34297 0.05997 0.0
C1646 C 0.13624 0.35185 0.99665 0.0
C1647 C 0.15824 0.32359 0.9756 0.0
N1648 N 0.13248 0.34564 0.0399 0.0
N1649 N 0.15572 0.32196 0.99566 0.0
H1650 H 0.68087 0.10501 0.06501 0.0
H1651 H 0.63531 0.16924 0.97543 0.0
H1652 H 0.63772 0.15218 0.0737 0.0
H1653 H 0.6699 0.11549 0.96636 0.0
H1654 H 0.63439 0.16216 0.01138 0.0
H1655 H 0.67543 0.10713 0.0288 0.0
C1656 C 0.67002 0.11561 0.05923 0.0
C1657 C 0.65996 0.12868 0.07216 0.0
C1658 C 0.64217 0.15188 0.00155 0.0
C1659 C 0.65388 0.13148 0.03093 0.0
C1660 C 0.64271 0.15594 0.98106 0.0
C1661 C 0.65337 0.14334 0.9681 0.0
C1662 C 0.6523 0.13504 0.00907 0.0
C1663 C 0.66234 0.12609 0.97601 0.0
C1664 C 0.66698 0.11689 0.0386 0.0
C1665 C 0.6461 0.14218 0.06407 0.0
N1666 N 0.66182 0.12256 0.99604 0.0
N1667 N 0.64364 0.14342 0.04392 0.0
H1668 H 0.90192 0.688 0.06745 0.0
H1669 H 0.82511 0.65403 0.98188 0.0
H1670 H 0.84184 0.66766 0.07921 0.0
H1671 H 0.88479 0.67545 0.96988 0.0
H1672 H 0.8322 0.65542 0.01784 0.0
H1673 H 0.8973 0.68006 0.03189 0.0
C1674 C 0.88784 0.68164 0.06249 0.0
C1675 C 0.87211 0.67873 0.07603 0.0
C1676 C 0.84377 0.65982 0.00736 0.0
C1677 C 0.86661 0.66974 0.03561 0.0
C1678 C 0.83972 0.65899 0.98688 0.0
C1679 C 0.85417 0.66528 0.97306 0.0
C1680 C 0.86248 0.66683 0.01399 0.0
C1681 C 0.87299 0.67126 0.98018 0.0
C1682 C 0.88516 0.67718 0.04225 0.0
C1683 C 0.85417 0.67042 0.06905 0.0
N1684 N 0.87656 0.67206 0.00018 0.0
N1685 N 0.85182 0.66637 0.04926 0.0
H1686 H 0.35733 0.83155 0.9755 0.0
H1687 H 0.31066 0.89607 0.06469 0.0
H1688 H 0.31995 0.88335 0.96614 0.0
H1689 H 0.35266 0.84795 0.07363 0.0
H1690 H 0.31606 0.89361 0.02846 0.0
H1691 H 0.35791 0.8389 0.01138 0.0
C1692 C 0.34921 0.84446 0.98105 0.0
C1693 C 0.33796 0.85643 0.96802 0.0
C1694 C 0.32429 0.88373 0.03833 0.0
C1695 C 0.33867 0.86508 0.00893 0.0
C1696 C 0.32127 0.88521 0.05895 0.0
C1697 C 0.33105 0.872 0.07193 0.0
C1698 C 0.3371 0.86883 0.03075 0.0
C1699 C 0.34462 0.85816 0.06394 0.0
C1700 C 0.34956 0.84868 0.0015 0.0
C1701 C 0.32806 0.87322 0.97585 0.0
N1702 N 0.34709 0.85676 0.04381 0.0
N1703 N 0.32846 0.87693 0.99584 0.0
H1704 H 0.11185 0.67095 0.02642 0.0
H1705 H 0.15424 0.65901 0.91486 0.0
H1706 H 0.17122 0.64958 0.01287 0.0
H1707 H 0.09963 0.69018 0.92927 0.0
H1708 H 0.1584 0.65052 0.95034 0.0
H1709 H 0.10482 0.67328 0.99052 0.0
C1710 C 0.12345 0.66693 0.01582 0.0
C1711 C 0.14239 0.66083 0.02247 0.0
C1712 C 0.14544 0.65911 0.94575 0.0
C1713 C 0.13432 0.66282 0.98151 0.0
C1714 C 0.14312 0.664 0.92557 0.0
C1715 C 0.12681 0.67562 0.91938 0.0
C1716 C 0.13125 0.66585 0.95975 0.0
C1717 C 0.11249 0.6813 0.9336 0.0
C1718 C 0.11939 0.66806 0.99537 0.0
C1719 C 0.15655 0.65471 0.00825 0.0
N1720 N 0.11512 0.6765 0.95319 0.0
N1721 N 0.15231 0.65607 0.98839 0.0
H1722 H 0.29216 0.13255 0.93449 0.0
H1723 H 0.36628 0.13269 0.02871 0.0
H1724 H 0.35508 0.11942 0.92903 0.0
H1725 H 0.30524 0.15377 0.02978 0.0
H1726 H 0.36236 0.12453 0.99306 0.0
H1727 H 0.2962 0.13604 0.9706 0.0
C1728 C 0.30682 0.13019 0.94104 0.0
C1729 C 0.32335 0.12582 0.92894 0.0
C1730 C 0.3498 0.13076 0.0012 0.0
C1731 C 0.32824 0.13005 0.97018 0.0
C1732 C 0.35204 0.13548 0.02148 0.0
C1733 C 0.33589 0.14344 0.03234 0.0
C1734 C 0.33131 0.13418 0.99176 0.0
C1735 C 0.31784 0.14694 0.02226 0.0
C1736 C 0.30916 0.13225 0.96162 0.0
C1737 C 0.34201 0.12275 0.93801 0.0
N1738 N 0.31604 0.14225 0.00259 0.0
N1739 N 0.34402 0.1251 0.95817 0.0
H1740 H 0.83912 0.29974 0.0261 0.0
H1741 H 0.87091 0.35127 0.9234 0.0
H1742 H 0.86171 0.36023 0.02433 0.0
H1743 H 0.86638 0.28747 0.93203 0.0
H1744 H 0.86607 0.35608 0.95966 0.0
H1745 H 0.84658 0.29616 0.9907 0.0
C1746 C 0.84602 0.31217 0.01835 0.0
C1747 C 0.8505 0.33006 0.02834 0.0
C1748 C 0.86635 0.34104 0.95359 0.0
C1749 C 0.85845 0.32632 0.98747 0.0
C1750 C 0.86923 0.33831 0.93301 0.0
C1751 C 0.86903 0.31896 0.92489 0.0
C1752 C 0.86302 0.32428 0.96588 0.0
C1753 C 0.86647 0.30264 0.93777 0.0
C1754 C 0.85012 0.31018 0.99804 0.0
C1755 C 0.85829 0.34609 0.01718 0.0
N1756 N 0.86342 0.30567 0.95759 0.0
N1757 N 0.8621 0.34383 0.99728 0.0
H1758 H 0.63693 0.83722 0.01855 0.0
H1759 H 0.68842 0.90016 0.93059 0.0
H1760 H 0.67916 0.88501 0.02859 0.0
H1761 H 0.64729 0.85151 0.92049 0.0
H1762 H 0.68187 0.8978 0.96664 0.0
H1763 H 0.63728 0.84492 0.9827 0.0
C1764 C 0.64627 0.84934 0.01315 0.0
C1765 C 0.65858 0.86005 0.02633 0.0
C1766 C 0.6741 0.88776 0.95655 0.0
C1767 C 0.65896 0.86909 0.98553 0.0
C1768 C 0.67776 0.8892 0.93603 0.0
C1769 C 0.66854 0.87583 0.9228 0.0
C1770 C 0.66116 0.8728 0.96377 0.0
C1771 C 0.65487 0.86187 0.9304 0.0
C1772 C 0.64648 0.85375 0.99273 0.0
C1773 C 0.6701 0.87586 0.01874 0.0
N1774 N 0.65173 0.86056 0.95044 0.0
N1775 N 0.67016 0.8798 0.99879 0.0
H1776 H 0.06866 0.13573 0.2892 0.0
H1777 H 0.97386 0.12888 0.36238 0.0
H1778 H 0.07435 0.12105 0.35176 0.0
H1779 H 0.97206 0.15039 0.30152 0.0
H1780 H 0.01015 0.12364 0.35892 0.0
H1781 H 0.03252 0.13826 0.29328 0.0
C1782 C 0.06219 0.13305 0.30384 0.0
C1783 C 0.07437 0.12839 0.32022 0.0
C1784 C 0.00171 0.1293 0.34629 0.0
C1785 C 0.03298 0.13118 0.32509 0.0
C1786 C 0.98106 0.13231 0.34826 0.0
C1787 C 0.96984 0.1395 0.33201 0.0
C1788 C 0.01112 0.1337 0.32799 0.0
C1789 C 0.97989 0.144 0.31416 0.0
C1790 C 0.04157 0.13445 0.30618 0.0
C1791 C 0.06533 0.12467 0.33879 0.0
N1792 N -0.00011 0.14099 0.31263 0.0
N1793 N 0.04509 0.12625 0.34079 0.0
H1794 H 0.87496 0.96685 0.32055 0.0
H1795 H 0.83569 0.07766 0.34447 0.0
H1796 H 0.82032 0.97891 0.3527 0.0
H1797 H 0.88803 0.06488 0.30898 0.0
H1798 H 0.8313 0.04167 0.35037 0.0
H1799 H 0.88153 0.00281 0.31875 0.0
C1800 C 0.86423 0.97716 0.32702 0.0
C1801 C 0.84673 0.97007 0.33616 0.0
C1802 C 0.8438 0.04672 0.34137 0.0
C1803 C 0.85436 0.01115 0.33468 0.0
C1804 C 0.84624 0.0672 0.33796 0.0
C1805 C 0.86204 0.07405 0.32599 0.0
C1806 C 0.85732 0.03308 0.33276 0.0
C1807 C 0.87562 0.06008 0.31825 0.0
C1808 C 0.86807 0.99765 0.32617 0.0
C1809 C 0.8338 0.9839 0.34521 0.0
N1810 N 0.87287 0.04022 0.32164 0.0
N1811 N 0.83777 0.00384 0.34408 0.0
H1812 H 0.02362 0.86865 0.36144 0.0
H1813 H 0.92666 0.87383 0.29128 0.0
H1814 H 0.02237 0.85265 0.29887 0.0
H1815 H 0.92339 0.87977 0.35541 0.0
H1816 H 0.96307 0.87184 0.29349 0.0
H1817 H 0.98796 0.87736 0.35945 0.0
C1818 C 0.01591 0.86718 0.34725 0.0
C1819 C 0.02612 0.86039 0.33017 0.0
C1820 C 0.9545 0.87378 0.30712 0.0
C1821 C 0.98551 0.87028 0.32779 0.0
C1822 C 0.93377 0.87503 0.30582 0.0
C1823 C 0.92224 0.87689 0.3232 0.0
C1824 C 0.96376 0.87421 0.32599 0.0
C1825 C 0.93195 0.87838 0.34171 0.0
C1826 C 0.99562 0.8722 0.34612 0.0
C1827 C 0.01542 0.85857 0.31222 0.0
N1828 N 0.95226 0.8768 0.34268 0.0
N1829 N 0.99574 0.86349 0.31152 0.0
H1830 H 0.15509 0.92112 0.34968 0.0
H1831 H 0.11623 0.03059 0.31986 0.0
H1832 H 0.10624 0.93219 0.30903 0.0
H1833 H 0.16912 0.02013 0.35532 0.0
H1834 H 0.10995 0.99453 0.31909 0.0
H1835 H 0.15814 0.95729 0.35535 0.0
C1836 C 0.14501 0.93124 0.34199 0.0
C1837 C 0.13064 0.92387 0.32863 0.0
C1838 C 0.12295 7e-05 0.32704 0.0
C1839 C 0.1338 0.96501 0.33513 0.0
C1840 C 0.12661 0.02061 0.32733 0.0
C1841 C 0.14359 0.02814 0.33706 0.0
C1842 C 0.13629 0.987 0.33672 0.0
C1843 C 0.15606 0.01477 0.34735 0.0
C1844 C 0.14667 0.95182 0.34528 0.0
C1845 C 0.11755 0.9374 0.31941 0.0
N1846 N 0.15229 0.99478 0.34673 0.0
N1847 N 0.11954 0.95736 0.32271 0.0
H1848 H 0.96671 0.88479 0.67988 0.0
H1849 H 0.07622 0.852 0.6439 0.0
H1850 H 0.97795 0.83657 0.63847 0.0
H1851 H 0.06539 0.89779 0.688 0.0
H1852 H 0.04005 0.8491 0.63842 0.0
H1853 H 0.00254 0.89243 0.68024 0.0
C1854 C 0.9768 0.87566 0.67106 0.0
C1855 C 0.96955 0.85956 0.65971 0.0
C1856 C 0.04554 0.85996 0.64914 0.0
C1857 C 0.01041 0.86857 0.65952 0.0
C1858 C 0.06613 0.86162 0.65221 0.0
C1859 C 0.07357 0.87499 0.66653 0.0
C1860 C 0.03236 0.87174 0.66057 0.0
C1861 C 0.06009 0.88729 0.67684 0.0
C1862 C 0.9972 0.88016 0.67108 0.0
C1863 C 0.98305 0.84887 0.64771 0.0
N1864 N 0.04007 0.88522 0.67382 0.0
N1865 N 0.00288 0.85343 0.64808 0.0
H1866 H 0.16239 0.07867 0.64497 0.0
H1867 H 0.11882 0.97043 0.67265 0.0
H1868 H 0.1095 0.06914 0.68067 0.0
H1869 H 0.17449 0.97937 0.64123 0.0
H1870 H 0.11318 0.0066 0.67238 0.0
H1871 H 0.1651 0.04238 0.63988 0.0
C1872 C 0.15133 0.06887 0.65165 0.0
C1873 C 0.13591 0.07669 0.66351 0.0
C1874 C 0.12666 0.0007 0.66555 0.0
C1875 C 0.13873 0.03542 0.65771 0.0
C1876 C 0.12995 0.9801 0.66589 0.0
C1877 C 0.14748 0.9721 0.65759 0.0
C1878 C 0.14094 0.01337 0.65671 0.0
C1879 C 0.16096 0.98508 0.64811 0.0
C1880 C 0.15281 0.04822 0.64871 0.0
C1881 C 0.12164 0.06357 0.67147 0.0
N1882 N 0.15752 0.00515 0.64811 0.0
N1883 N 0.12348 0.04353 0.66857 0.0
H1884 H 0.02757 0.13378 0.63072 0.0
H1885 H 0.93341 0.13076 0.70494 0.0
H1886 H 0.02907 0.15015 0.69317 0.0
H1887 H 0.92754 0.12184 0.64134 0.0
H1888 H 0.9696 0.13344 0.70104 0.0
H1889 H 0.99174 0.12597 0.63415 0.0
C1890 C 0.02041 0.13554 0.64517 0.0
C1891 C 0.03144 0.14208 0.66183 0.0
C1892 C 0.96051 0.13075 0.68789 0.0
C1893 C 0.99069 0.13328 0.66584 0.0
C1894 C 0.93989 0.12915 0.69015 0.0
C1895 C 0.92767 0.12617 0.67342 0.0
C1896 C 0.969 0.12953 0.66868 0.0
C1897 C 0.93663 0.12408 0.65457 0.0
C1898 C 3e-05 0.13105 0.64712 0.0
C1899 C 0.02145 0.14437 0.68013 0.0
N1900 N 0.95685 0.12598 0.65264 0.0
N1901 N 0.0017 0.13995 0.68164 0.0
H1902 H 0.83691 0.02688 0.6907 0.0
H1903 H 0.87747 0.92608 0.64007 0.0
H1904 H 0.86616 0.02666 0.63313 0.0
H1905 H 0.85606 0.93074 0.70076 0.0
H1906 H 0.87338 0.96259 0.63633 0.0
H1907 H 0.84302 0.99115 0.69367 0.0
C1908 C 0.84493 0.01935 0.67881 0.0
C1909 C 0.8516 0.02985 0.66193 0.0
C1910 C 0.86965 0.95558 0.65047 0.0
C1911 C 0.85819 0.98865 0.66492 0.0
C1912 C 0.87207 0.93486 0.6526 0.0
C1913 C 0.86685 0.92554 0.67065 0.0
C1914 C 0.86196 0.96684 0.66654 0.0
C1915 C 0.85988 0.93738 0.68648 0.0
C1916 C 0.84828 0.99886 0.68042 0.0
C1917 C 0.86099 0.01909 0.64649 0.0
N1918 N 0.85755 0.95737 0.68402 0.0
N1919 N 0.8641 0.99903 0.64838 0.0
H1920 H 0.35678 0.07516 0.15542 0.0
H1921 H 0.32323 0.96669 0.11686 0.0
H1922 H 0.31455 0.06571 0.10761 0.0
H1923 H 0.35926 0.97645 0.16951 0.0
H1924 H 0.32346 0.00275 0.1104 0.0
H1925 H 0.36184 0.03888 0.15773 0.0
C1926 C 0.3487 0.06536 0.14533 0.0
C1927 C 0.33499 0.07321 0.13156 0.0
C1928 C 0.3313 0.99703 0.12339 0.0
C1929 C 0.34066 0.03191 0.13399 0.0
C1930 C 0.33097 0.9765 0.1272 0.0
C1931 C 0.34058 0.96877 0.14418 0.0
C1932 C 0.34151 0.00988 0.13655 0.0
C1933 C 0.35134 0.98193 0.15648 0.0
C1934 C 0.35159 0.04472 0.14661 0.0
C1935 C 0.32519 0.06009 0.11848 0.0
N1936 N 0.35135 0.00189 0.15254 0.0
N1937 N 0.32805 0.04002 0.12014 0.0
H1938 H 0.31993 0.0313 0.88112 0.0
H1939 H 0.35464 0.92271 0.84369 0.0
H1940 H 0.35982 0.02194 0.83124 0.0
H1941 H 0.3104 0.93246 0.88962 0.0
H1942 H 0.35961 0.95902 0.84122 0.0
H1943 H 0.31891 0.99513 0.8867 0.0
C1944 C 0.32826 0.02155 0.87118 0.0
C1945 C 0.33939 0.02945 0.85524 0.0
C1946 C 0.34892 0.95323 0.85195 0.0
C1947 C 0.33882 0.98816 0.86188 0.0
C1948 C 0.34608 0.93256 0.85332 0.0
C1949 C 0.33198 0.92476 0.86673 0.0
C1950 C 0.33754 0.9661 0.86411 0.0
C1951 C 0.32146 0.93799 0.87913 0.0
C1952 C 0.32785 0.00094 0.87449 0.0
C1953 C 0.35076 0.01633 0.84346 0.0
N1954 N 0.32435 0.95805 0.87744 0.0
N1955 N 0.35005 0.99627 0.84689 0.0
H1956 H 0.06586 0.28788 0.86458 0.0
H1957 H 0.97342 0.36389 0.86531 0.0
H1958 H 0.07446 0.35156 0.87068 0.0
H1959 H 0.97172 0.30437 0.84027 0.0
H1960 H 0.00953 0.35969 0.87146 0.0
H1961 H 0.02994 0.29333 0.86087 0.0
C1962 C 0.06008 0.30303 0.86525 0.0
C1963 C 0.07302 0.31931 0.8678 0.0
C1964 C 0.00113 0.34755 0.86476 0.0
C1965 C 0.03197 0.32573 0.86356 0.0
C1966 C 0.9806 0.34993 0.86122 0.0
C1967 C 0.96942 0.33419 0.85291 0.0
C1968 C 0.0104 0.3293 0.8599 0.0
C1969 C 0.97947 0.31654 0.84759 0.0
C1970 C 0.03962 0.30615 0.86309 0.0
C1971 C 0.06485 0.33863 0.86884 0.0
N1972 N -0.00069 0.31454 0.85131 0.0
N1973 N 0.04476 0.34136 0.86663 0.0
H1974 H 0.67408 0.96887 0.87941 0.0
H1975 H 0.64678 0.07892 0.84053 0.0
H1976 H 0.64327 0.98044 0.82391 0.0
H1977 H 0.68366 0.06717 0.89211 0.0
H1978 H 0.64113 0.04283 0.83673 0.0
H1979 H 0.67377 0.00475 0.88675 0.0
C1980 C 0.66744 0.97906 0.86868 0.0
C1981 C 0.65937 0.9719 0.85069 0.0
C1982 C 0.65031 0.04813 0.84899 0.0
C1983 C 0.65841 0.01281 0.85919 0.0
C1984 C 0.65354 0.06867 0.85113 0.0
C1985 C 0.66591 0.07581 0.86646 0.0
C1986 C 0.65955 0.03474 0.86233 0.0
C1987 C 0.67406 0.06211 0.88007 0.0
C1988 C 0.66708 -0.00052 0.87295 0.0
C1989 C 0.65 0.98551 0.83776 0.0
N1990 N 0.67089 0.04218 0.87758 0.0
N1991 N 0.64996 0.00538 0.84215 0.0
H1992 H 0.01617 0.64954 0.82421 0.0
H1993 H 0.93035 0.6914 0.89595 0.0
H1994 H 0.02795 0.67565 0.88203 0.0
H1995 H 0.91821 0.65564 0.84365 0.0
H1996 H 0.96615 0.68446 0.89199 0.0
H1997 H 0.98023 0.6502 0.83163 0.0
C1998 C 0.01114 0.65539 0.83848 0.0
C1999 C 0.02488 0.66326 0.85223 0.0
C2000 C 0.95568 0.67799 0.88145 0.0
C2001 C 0.98396 0.664 0.8609 0.0
C2002 C 0.93528 0.6819 0.88375 0.0
C2003 C 0.92149 0.67435 0.86988 0.0
C2004 C 0.96228 0.66655 0.86505 0.0
C2005 C 0.92851 0.66214 0.85434 0.0
C2006 C 0.99066 0.65577 0.84272 0.0
C2007 C 0.01771 0.6703 0.87066 0.0
N2008 N 0.94847 0.65878 0.85219 0.0
N2009 N 0.99772 0.67074 0.87437 0.0
H2010 H 0.6415 0.92519 0.1193 0.0
H2011 H 0.69265 0.0272 0.15645 0.0
H2012 H 0.70194 0.93005 0.14138 0.0
H2013 H 0.63222 0.02478 0.1338 0.0
H2014 H 0.69618 0.99153 0.15015 0.0
H2015 H 0.63759 0.96166 0.12329 0.0
C2016 C 0.65392 0.934 0.12488 0.0
C2017 C 0.67196 0.92475 0.13025 0.0
C2018 C 0.68216 0.99875 0.14639 0.0
C2019 C 0.6677 0.96607 0.13493 0.0
C2020 C 0.68022 0.01921 0.1498 0.0
C2021 C 0.66231 0.02906 0.14513 0.0
C2022 C 0.66598 0.98793 0.1384 0.0
C2023 C 0.64635 0.01772 0.13745 0.0
C2024 C 0.6517 0.95471 0.12723 0.0
C2025 C 0.68766 0.93664 0.13743 0.0
N2026 N 0.64857 0.99773 0.13424 0.0
N2027 N 0.68515 0.95665 0.13961 0.0
H2028 H 0.0656 0.68579 0.09377 0.0
H2029 H 0.98224 0.64895 0.17146 0.0
H2030 H 0.07903 0.66336 0.15272 0.0
H2031 H 0.96888 0.67037 0.11206 0.0
H2032 H 0.018 0.65042 0.16352 0.0
H2033 H 0.03035 0.67673 0.09872 0.0
C2034 C 0.06107 0.67874 0.10766 0.0
C2035 C 0.07498 0.67559 0.12301 0.0
C2036 C 0.00725 0.65476 0.15218 0.0
C2037 C 0.03491 0.66532 0.1289 0.0
C2038 C 0.98686 0.65387 0.1567 0.0
C2039 C 0.97268 0.66022 0.14262 0.0
C2040 C 0.01343 0.66195 0.13339 0.0
C2041 C 0.97938 0.66624 0.12366 0.0
C2042 C 0.04101 0.67362 0.11053 0.0
C2043 C 0.06856 0.66634 0.14071 0.0
N2044 N -0.00071 0.66714 0.11965 0.0
N2045 N 0.04893 0.66171 0.14327 0.0
H2046 H 0.03204 0.31141 0.10977 0.0
H2047 H 0.92381 0.34343 0.14982 0.0
H2048 H 0.02266 0.35429 0.1571 0.0
H2049 H 0.93281 0.30361 0.0999 0.0
H2050 H 0.95998 0.34944 0.1512 0.0
H2051 H 0.99579 0.30973 0.10455 0.0
C2052 C 0.02228 0.32031 0.1192 0.0
C2053 C 0.0302 0.33252 0.13431 0.0
C2054 C 0.95409 0.33953 0.1398 0.0
C2055 C 0.98886 0.33111 0.12814 0.0
C2056 C 0.9335 0.33613 0.13904 0.0
C2057 C 0.92557 0.32288 0.12488 0.0
C2058 C 0.96678 0.32947 0.12635 0.0
C2059 C 0.93852 0.31388 0.11107 0.0
C2060 C 0.00163 0.31952 0.11608 0.0
C2061 C 0.01706 0.34445 0.1455 0.0
N2062 N 0.95857 0.31717 0.11227 0.0
N2063 N 0.997 0.34329 0.14233 0.0
H2064 H 0.65671 0.8435 0.57933 0.0
H2065 H 0.61188 0.82625 0.46952 0.0
H2066 H 0.60381 0.80863 0.56719 0.0
H2067 H 0.67053 0.85096 0.48051 0.0
H2068 H 0.60626 0.82431 0.50556 0.0
H2069 H 0.65964 0.85097 0.54349 0.0
C2070 C 0.64573 0.83745 0.56905 0.0
C2071 C 0.63022 0.82517 0.576 0.0
C2072 C 0.62037 0.83016 0.5001 0.0
C2073 C 0.63321 0.83381 0.53524 0.0
C2074 C 0.62368 0.83105 0.47951 0.0
C2075 C 0.64201 0.83805 0.47204 0.0
C2076 C 0.63544 0.83648 0.51333 0.0
C2077 C 0.65628 0.8452 0.48568 0.0
C2078 C 0.64733 0.84177 0.54866 0.0
C2079 C 0.61602 0.8181 0.56229 0.0
N2080 N 0.65279 0.84404 0.5057 0.0
N2081 N 0.61793 0.82241 0.54251 0.0
H2082 H 0.15379 0.67344 0.48472 0.0
H2083 H 0.18842 0.59605 0.56968 0.0
H2084 H 0.17936 0.61557 0.47198 0.0
H2085 H 0.17259 0.65746 0.58149 0.0
H2086 H 0.18078 0.60128 0.5341 0.0
H2087 H 0.15634 0.66629 0.52062 0.0
C2088 C 0.15999 0.65925 0.48956 0.0
C2089 C 0.16696 0.64531 0.47553 0.0
C2090 C 0.17887 0.61359 0.54449 0.0
C2091 C 0.16968 0.63688 0.51636 0.0
C2092 C 0.18314 0.61057 0.56472 0.0
C2093 C 0.18138 0.62646 0.57827 0.0
C2094 C 0.17267 0.6326 0.53791 0.0
C2095 C 0.17441 0.64497 0.57132 0.0
C2096 C 0.16145 0.65517 0.50998 0.0
C2097 C 0.17451 0.62699 0.48242 0.0
N2098 N 0.17041 0.64759 0.55156 0.0
N2099 N 0.17577 0.62332 0.50239 0.0
H2100 H 0.37611 0.18031 0.46952 0.0
H2101 H 0.34418 0.14144 0.57831 0.0
H2102 H 0.32782 0.13868 0.47963 0.0
H2103 H 0.38943 0.18623 0.56789 0.0
H2104 H 0.34056 0.1371 0.54202 0.0
H2105 H 0.38363 0.17986 0.5053 0.0
C2106 C 0.36692 0.17128 0.47938 0.0
C2107 C 0.35085 0.16009 0.47184 0.0
C2108 C 0.35144 0.14773 0.54765 0.0
C2109 C 0.35972 0.159 0.51267 0.0
C2110 C 0.35347 0.1502 0.5683 0.0
C2111 C 0.36697 0.16432 0.57591 0.0
C2112 C 0.36298 0.15954 0.53461 0.0
C2113 C 0.37889 0.17514 0.56249 0.0
C2114 C 0.37135 0.17084 0.49976 0.0
C2115 C 0.34009 0.14781 0.48501 0.0
N2116 N 0.37651 0.17265 0.54246 0.0
N2117 N 0.34458 0.14774 0.50486 0.0
H2118 H 0.7899 0.35586 0.5664 0.0
H2119 H 0.86278 0.36739 0.47207 0.0
H2120 H 0.85156 0.37381 0.57278 0.0
H2121 H 0.80553 0.33751 0.47079 0.0
H2122 H 0.85888 0.37228 0.50835 0.0
H2123 H 0.79486 0.35224 0.53049 0.0
C2124 C 0.80454 0.35897 0.56016 0.0
C2125 C 0.82043 0.36486 0.57249 0.0
C2126 C 0.84715 0.36477 0.50005 0.0
C2127 C 0.82626 0.36094 0.53131 0.0
C2128 C 0.84937 0.36195 0.47941 0.0
C2129 C 0.83416 0.35259 0.46832 0.0
C2130 C 0.82963 0.35808 0.50957 0.0
C2131 C 0.81724 0.34557 0.47854 0.0
C2132 C 0.80738 0.35695 0.53965 0.0
C2133 C 0.83897 0.36922 0.56366 0.0
N2134 N 0.81539 0.34855 0.49853 0.0
N2135 N 0.84144 0.36711 0.54352 0.0
H2136 H 0.61383 0.17283 0.53212 0.0
H2137 H 0.65313 0.14121 0.42334 0.0
H2138 H 0.66827 0.1396 0.52216 0.0
H2139 H 0.6064 0.18455 0.43346 0.0
H2140 H 0.65549 0.1358 0.45958 0.0
H2141 H 0.60755 0.17275 0.49604 0.0
C2142 C 0.62457 0.16571 0.52226 0.0
C2143 C 0.642 0.15692 0.52994 0.0
C2144 C 0.64462 0.14639 0.45387 0.0
C2145 C 0.63462 0.15615 0.48882 0.0
C2146 C 0.64335 0.14952 0.43325 0.0
C2147 C 0.62984 0.16361 0.4256 0.0
C2148 C 0.6322 0.15737 0.46682 0.0
C2149 C 0.61706 0.17359 0.43888 0.0
C2150 C 0.62088 0.16548 0.50172 0.0
C2151 C 0.65486 0.1469 0.51672 0.0
N2152 N 0.61865 0.17041 0.4589 0.0
N2153 N 0.65103 0.14696 0.49673 0.0
H2154 H 0.85486 0.61968 0.42469 0.0
H2155 H 0.80082 0.64917 0.52727 0.0
H2156 H 0.79175 0.63167 0.43066 0.0
H2157 H 0.86277 0.63101 0.52468 0.0
H2158 H 0.79736 0.64151 0.49192 0.0
H2159 H 0.85832 0.62195 0.46133 0.0
C2160 C 0.84173 0.62243 0.4338 0.0
C2161 C 0.82303 0.62556 0.42485 0.0
C2162 C 0.81169 0.63895 0.49906 0.0
C2163 C 0.8268 0.62851 0.46634 0.0
C2164 C 0.81361 0.64313 0.51938 0.0
C2165 C 0.83196 0.64018 0.52909 0.0
C2166 C 0.82834 0.63205 0.4882 0.0
C2167 C 0.8483 0.63335 0.51775 0.0
C2168 C 0.84369 0.62385 0.45462 0.0
C2169 C 0.80645 0.62932 0.4371 0.0
N2170 N 0.84612 0.6295 0.49786 0.0
N2171 N 0.80874 0.63082 0.4572 0.0
H2172 H 0.36313 0.86075 0.52399 0.0
H2173 H 0.36699 0.7874 0.42921 0.0
H2174 H 0.34766 0.79805 0.52535 0.0
H2175 H 0.37346 0.85136 0.42374 0.0
H2176 H 0.36333 0.79105 0.46533 0.0
H2177 H 0.3697 0.85786 0.48791 0.0
C2178 C 0.36128 0.84636 0.51673 0.0
C2179 C 0.35539 0.82948 0.5278 0.0
C2180 C 0.36562 0.80435 0.45633 0.0
C2181 C 0.36277 0.82608 0.48672 0.0
C2182 C 0.36771 0.80224 0.43573 0.0
C2183 C 0.37043 0.81912 0.42363 0.0
C2184 C 0.3662 0.82352 0.46494 0.0
C2185 C 0.37149 0.83801 0.43271 0.0
C2186 C 0.36506 0.84472 0.4962 0.0
C2187 C 0.35297 0.81126 0.51767 0.0
N2188 N 0.36927 0.83974 0.45291 0.0
N2189 N 0.35672 0.81005 0.49775 0.0
H2190 H 0.13848 0.32807 0.52252 0.0
H2191 H 0.18332 0.39016 0.43151 0.0
H2192 H 0.17289 0.38218 0.53029 0.0
H2193 H 0.13537 0.34758 0.42418 0.0
H2194 H 0.17962 0.38761 0.46784 0.0
H2195 H 0.13692 0.33478 0.48651 0.0
C2196 C 0.14574 0.34134 0.51665 0.0
C2197 C 0.15651 0.35417 0.52934 0.0
C2198 C 0.16975 0.37895 0.45832 0.0
C2199 C 0.15474 0.36196 0.48826 0.0
C2200 C 0.1718 0.3805 0.43761 0.0
C2201 C 0.15973 0.36893 0.42495 0.0
C2202 C 0.15572 0.36552 0.46639 0.0
C2203 C 0.14522 0.35643 0.43352 0.0
C2204 C 0.14482 0.34517 0.49613 0.0
C2205 C 0.16534 0.37131 0.52101 0.0
N2206 N 0.14375 0.35487 0.45376 0.0
N2207 N 0.16445 0.37459 0.50097 0.0
H2208 H 0.47997 0.67078 0.85676 0.0
H2209 H 0.56568 0.60222 0.809 0.0
H2210 H 0.46784 0.61697 0.82323 0.0
H2211 H 0.57759 0.65222 0.84797 0.0
H2212 H 0.52977 0.60586 0.81585 0.0
H2213 H 0.51579 0.66306 0.85548 0.0
C2214 C 0.4849 0.65736 0.84909 0.0
C2215 C 0.47107 0.64488 0.83944 0.0
C2216 C 0.54023 0.61593 0.82308 0.0
C2217 C 0.5119 0.63581 0.83804 0.0
C2218 C 0.56067 0.61378 0.81923 0.0
C2219 C 0.57439 0.62714 0.82774 0.0
C2220 C 0.53357 0.63161 0.83546 0.0
C2221 C 0.56732 0.64187 0.84088 0.0
C2222 C 0.50532 0.65293 0.84837 0.0
C2223 C 0.47813 0.62746 0.83007 0.0
N2224 N 0.54735 0.64387 0.84418 0.0
N2225 N 0.49808 0.62353 0.82942 0.0
H2226 H 0.35023 0.57586 0.85804 0.0
H2227 H 0.38781 0.46615 0.82783 0.0
H2228 H 0.39806 0.56476 0.81622 0.0
H2229 H 0.33209 0.47802 0.85816 0.0
H2230 H 0.39581 0.50193 0.82918 0.0
H2231 H 0.34769 0.53977 0.86428 0.0
C2232 C 0.36036 0.56575 0.85039 0.0
C2233 C 0.37411 0.57306 0.83636 0.0
C2234 C 0.38185 0.49671 0.83558 0.0
C2235 C 0.3714 0.53199 0.84335 0.0
C2236 C 0.3772 0.47637 0.83462 0.0
C2237 C 0.35888 0.46938 0.84212 0.0
C2238 C 0.3682 0.51007 0.84437 0.0
C2239 C 0.34617 0.48296 0.85182 0.0
C2240 C 0.35891 0.54522 0.85392 0.0
C2241 C 0.38718 0.55957 0.82706 0.0
N2242 N 0.35095 0.50273 0.85246 0.0
N2243 N 0.38536 0.5396 0.83055 0.0
H2244 H 0.52941 0.38391 0.82206 0.0
H2245 H 0.41913 0.3399 0.83935 0.0
H2246 H 0.51789 0.32585 0.84776 0.0
H2247 H 0.4313 0.39501 0.80812 0.0
H2248 H 0.45506 0.33606 0.84592 0.0
H2249 H 0.49332 0.38986 0.82005 0.0
C2250 C 0.51921 0.37233 0.82706 0.0
C2251 C 0.52649 0.35409 0.8344 0.0
C2252 C 0.44989 0.34905 0.83771 0.0
C2253 C 0.48529 0.36095 0.83273 0.0
C2254 C 0.42944 0.35118 0.83392 0.0
C2255 C 0.42246 0.3676 0.82294 0.0
C2256 C 0.46335 0.36352 0.83048 0.0
C2257 C 0.43622 0.38209 0.8166 0.0
C2258 C 0.49864 0.37579 0.8261 0.0
C2259 C 0.51277 0.33998 0.84167 0.0
N2260 N 0.45606 0.37965 0.82034 0.0
N2261 N 0.49278 0.34362 0.84047 0.0
H2262 H 0.65071 0.4218 0.85245 0.0
H2263 H 0.61522 0.53248 0.82323 0.0
H2264 H 0.60285 0.43432 0.81108 0.0
H2265 H 0.66897 0.51979 0.85661 0.0
H2266 H 0.60719 0.49673 0.82311 0.0
H2267 H 0.65416 0.45778 0.8589 0.0
C2268 C 0.64083 0.4322 0.84488 0.0
C2269 C 0.62673 0.42531 0.83098 0.0
C2270 C 0.62075 0.50173 0.83047 0.0
C2271 C 0.63045 0.46626 0.83825 0.0
C2272 C 0.62543 0.52208 0.83035 0.0
C2273 C 0.64318 0.52887 0.83924 0.0
C2274 C 0.63383 0.48814 0.83975 0.0
C2275 C 0.65535 0.51501 0.84923 0.0
C2276 C 0.64277 0.45267 0.84856 0.0
C2277 C 0.61396 0.43918 0.82185 0.0
N2278 N 0.65057 0.49523 0.84903 0.0
N2279 N 0.61625 0.45906 0.82548 0.0
H2280 H 0.5787 0.33996 0.15669 0.0
H2281 H 0.47042 0.3872 0.1777 0.0
H2282 H 0.56922 0.39541 0.18827 0.0
H2283 H 0.4794 0.32983 0.14957 0.0
H2284 H 0.50673 0.39215 0.17853 0.0
H2285 H 0.54253 0.33755 0.15072 0.0
C2286 C 0.56892 0.35162 0.16232 0.0
C2287 C 0.57673 0.36773 0.17323 0.0
C2288 C 0.5008 0.37847 0.17216 0.0
C2289 C 0.53557 0.36526 0.16638 0.0
C2290 C 0.48012 0.37559 0.17184 0.0
C2291 C 0.47208 0.35781 0.16417 0.0
C2292 C 0.5135 0.36348 0.16461 0.0
C2293 C 0.48513 0.34361 0.15589 0.0
C2294 C 0.54835 0.35031 0.15886 0.0
C2295 C 0.56365 0.38272 0.17984 0.0
N2296 N 0.50525 0.34665 0.15652 0.0
N2297 N 0.54366 0.38106 0.17645 0.0
H2298 H 0.61445 0.46542 0.16881 0.0
H2299 H 0.65408 0.57515 0.14106 0.0
H2300 H 0.67138 0.47655 0.14052 0.0
H2301 H 0.60585 0.56388 0.18241 0.0
H2302 H 0.65716 0.53899 0.13531 0.0
H2303 H 0.60763 0.50144 0.16856 0.0
C2304 C 0.62559 0.47552 0.16273 0.0
C2305 C 0.64386 0.46821 0.15544 0.0
C2306 C 0.64581 0.54444 0.14554 0.0
C2307 C 0.63591 0.50923 0.15444 0.0
C2308 C 0.64413 0.56501 0.14888 0.0
C2309 C 0.63 0.57232 0.16254 0.0
C2310 C 0.63312 0.53119 0.15584 0.0
C2311 C 0.617 0.55873 0.17183 0.0
C2312 C 0.62162 0.49602 0.1624 0.0
C2313 C 0.65729 0.48172 0.14665 0.0
N2314 N 0.61897 0.53877 0.16843 0.0
N2315 N 0.65315 0.50165 0.14659 0.0
H2316 H 0.42115 0.61794 0.14552 0.0
H2317 H 0.52425 0.64677 0.19881 0.0
H2318 H 0.42794 0.62855 0.20878 0.0
H2319 H 0.52104 0.62995 0.13652 0.0
H2320 H 0.48901 0.63882 0.20254 0.0
H2321 H 0.45774 0.62047 0.1416 0.0
C2322 C 0.43044 0.62044 0.15858 0.0
C2323 C 0.42174 0.62309 0.17747 0.0
C2324 C 0.49599 0.6366 0.18808 0.0
C2325 C 0.46315 0.62634 0.17317 0.0
C2326 C 0.51626 0.64094 0.186 0.0
C2327 C 0.52576 0.63844 0.16747 0.0
C2328 C 0.48497 0.63001 0.17143 0.0
C2329 C 0.51427 0.63191 0.15113 0.0
C2330 C 0.45122 0.62201 0.15636 0.0
C2331 C 0.43419 0.62655 0.19396 0.0
N2332 N 0.49443 0.62791 0.15347 0.0
N2333 N 0.45425 0.6282 0.19141 0.0
H2334 H 0.3598 0.52299 0.13871 0.0
H2335 H 0.3607 0.43108 0.2153 0.0
H2336 H 0.33352 0.52435 0.19768 0.0
H2337 H 0.37237 0.42308 0.15234 0.0
H2338 H 0.35423 0.46649 0.20941 0.0
H2339 H 0.36715 0.48721 0.14331 0.0
C2340 C 0.35562 0.51577 0.15262 0.0
C2341 C 0.34661 0.52678 0.16809 0.0
C2342 C 0.3582 0.45706 0.19682 0.0
C2343 C 0.35495 0.48611 0.17345 0.0
C2344 C 0.36189 0.43687 0.2002 0.0
C2345 C 0.36689 0.42422 0.18425 0.0
C2346 C 0.3596 0.46477 0.17733 0.0
C2347 C 0.36863 0.43247 0.16502 0.0
C2348 C 0.35985 0.49542 0.15524 0.0
C2349 C 0.34126 0.5167 0.1857 0.0
N2350 N 0.36493 0.45231 0.16204 0.0
N2351 N 0.34564 0.49701 0.18794 0.0
H2352 H 0.82018 0.46455 0.61468 0.0
H2353 H 0.85803 0.57178 0.65271 0.0
H2354 H 0.85964 0.47259 0.6651 0.0
H2355 H 0.81371 0.56356 0.60658 0.0
H2356 H 0.86245 0.53537 0.65451 0.0
H2357 H 0.82107 0.50065 0.6086 0.0
C2358 C 0.82888 0.474 0.62458 0.0
C2359 C 0.83926 0.46579 0.64085 0.0
C2360 C 0.85187 0.54151 0.64387 0.0
C2361 C 0.84083 0.50696 0.63371 0.0
C2362 C 0.84932 0.56224 0.64291 0.0
C2363 C 0.83526 0.57048 0.62973 0.0
C2364 C 0.84025 0.52904 0.63153 0.0
C2365 C 0.82467 0.55766 0.61697 0.0
C2366 C 0.82955 0.49456 0.621 0.0
C2367 C 0.85113 0.47847 0.65262 0.0
N2368 N 0.82724 0.53753 0.61831 0.0
N2369 N 0.85143 0.4985 0.64896 0.0
H2370 H 0.85383 0.42641 0.37586 0.0
H2371 H 0.80423 0.52741 0.3354 0.0
H2372 H 0.79166 0.43265 0.35974 0.0
H2373 H 0.86238 0.5268 0.3635 0.0
H2374 H 0.80042 0.49205 0.34306 0.0
H2375 H 0.85823 0.46276 0.3712 0.0
C2376 C 0.84109 0.43553 0.37166 0.0
C2377 C 0.8224 0.4267 0.36808 0.0
C2378 C 0.81397 0.49962 0.34774 0.0
C2379 C 0.82731 0.4678 0.36235 0.0
C2380 C 0.81608 0.51989 0.34349 0.0
C2381 C 0.83337 0.53019 0.3494 0.0
C2382 C 0.82939 0.48939 0.35773 0.0
C2383 C 0.84871 0.5194 0.35889 0.0
C2384 C 0.84361 0.45616 0.36888 0.0
C2385 C 0.80636 0.43895 0.36244 0.0
N2386 N 0.84635 0.49954 0.36285 0.0
N2387 N 0.80921 0.45883 0.35961 0.0
H2388 H 0.57814 0.82936 0.33952 0.0
H2389 H 0.46781 0.82789 0.38607 0.0
H2390 H 0.56537 0.81256 0.40047 0.0
H2391 H 0.48084 0.84735 0.32596 0.0
H2392 H 0.50375 0.82454 0.39247 0.0
H2393 H 0.54289 0.83845 0.33495 0.0
C2394 C 0.56784 0.82768 0.35194 0.0
C2395 C 0.57442 0.81996 0.37028 0.0
C2396 C 0.4988 0.8296 0.37788 0.0
C2397 C 0.53426 0.83034 0.36529 0.0
C2398 C 0.47832 0.83134 0.3742 0.0
C2399 C 0.4715 0.83731 0.3553 0.0
C2400 C 0.51252 0.8339 0.36252 0.0
C2401 C 0.4856 0.84244 0.34066 0.0
C2402 C 0.54778 0.83292 0.34938 0.0
C2403 C 0.56073 0.81838 0.38607 0.0
N2404 N 0.50549 0.84039 0.34449 0.0
N2405 N 0.54121 0.82334 0.38316 0.0
H2406 H 0.13758 0.47821 0.33394 0.0
H2407 H 0.18821 0.5667 0.39619 0.0
H2408 H 0.17907 0.46811 0.38238 0.0
H2409 H 0.14002 0.57572 0.35428 0.0
H2410 H 0.18391 0.53041 0.39283 0.0
H2411 H 0.13728 0.51388 0.34213 0.0
C2412 C 0.1467 0.48354 0.34625 0.0
C2413 C 0.15891 0.47031 0.35704 0.0
C2414 C 0.17411 0.54029 0.38452 0.0
C2415 C 0.15853 0.51104 0.36664 0.0
C2416 C 0.17649 0.56096 0.38655 0.0
C2417 C 0.16459 0.57404 0.37529 0.0
C2418 C 0.15983 0.53276 0.37102 0.0
C2419 C 0.14972 0.56601 0.3629 0.0
C2420 C 0.1465 0.50388 0.35095 0.0
C2421 C 0.17016 0.47792 0.37307 0.0
N2422 N 0.14788 0.54585 0.36091 0.0
N2423 N 0.16983 0.49782 0.37729 0.0
H2424 H 0.52317 0.13955 0.36897 0.0
H2425 H 0.42998 0.21457 0.3757 0.0
H2426 H 0.52525 0.20229 0.35372 0.0
H2427 H 0.42419 0.15091 0.3843 0.0
H2428 H 0.46616 0.21065 0.37245 0.0
H2429 H 0.48787 0.14348 0.3784 0.0
C2430 C 0.51626 0.15418 0.36778 0.0
C2431 C 0.5273 0.17072 0.36098 0.0
C2432 C 0.45709 0.1975 0.37525 0.0
C2433 C 0.48708 0.17531 0.37169 0.0
C2434 C 0.43648 0.19978 0.3772 0.0
C2435 C 0.42428 0.18302 0.38021 0.0
C2436 C 0.46554 0.17827 0.37613 0.0
C2437 C 0.43325 0.16416 0.38208 0.0
C2438 C 0.49617 0.15641 0.37322 0.0
C2439 C 0.51761 0.18928 0.35957 0.0
N2440 N 0.45342 0.16223 0.3798 0.0
N2441 N 0.49809 0.19105 0.36487 0.0
H2442 H 0.16785 0.53299 0.61375 0.0
H2443 H 0.15031 0.42165 0.65385 0.0
H2444 H 0.14145 0.51922 0.67102 0.0
H2445 H 0.18293 0.43568 0.60002 0.0
H2446 H 0.14145 0.45709 0.65741 0.0
H2447 H 0.16828 0.49734 0.60567 0.0
C2448 C 0.1623 0.52243 0.62469 0.0
C2449 C 0.15534 0.52894 0.6434 0.0
C2450 C 0.15035 0.45243 0.64468 0.0
C2451 C 0.15524 0.48818 0.63406 0.0
C2452 C 0.15538 0.43226 0.64268 0.0
C2453 C 0.16764 0.42601 0.62686 0.0
C2454 C 0.15766 0.46637 0.63073 0.0
C2455 C 0.17358 0.44008 0.61252 0.0
C2456 C 0.16232 0.50209 0.61998 0.0
C2457 C 0.14723 0.51474 0.65655 0.0
N2458 N 0.16875 0.4597 0.61493 0.0
N2459 N 0.14765 0.49496 0.65175 0.0
H2460 H 0.5759 0.14511 0.65643 0.0
H2461 H 0.46734 0.17718 0.61676 0.0
H2462 H 0.5663 0.18608 0.60756 0.0
H2463 H 0.47701 0.14348 0.67095 0.0
H2464 H 0.50345 0.17712 0.61064 0.0
H2465 H 0.53957 0.14061 0.65939 0.0
C2466 C 0.56607 0.15305 0.64628 0.0
C2467 C 0.57392 0.16614 0.63191 0.0
C2468 C 0.49771 0.16978 0.6239 0.0
C2469 C 0.53257 0.16108 0.63504 0.0
C2470 C 0.47714 0.17 0.6275 0.0
C2471 C 0.46935 0.16098 0.64477 0.0
C2472 C 0.51054 0.16024 0.63757 0.0
C2473 C 0.48252 0.15093 0.65764 0.0
C2474 C 0.5454 0.15048 0.64791 0.0
C2475 C 0.56072 0.17583 0.61881 0.0
N2476 N 0.50252 0.15098 0.65389 0.0
N2477 N 0.54065 0.17322 0.62078 0.0
H2478 H 0.52998 0.82361 0.61469 0.0
H2479 H 0.42131 0.85185 0.65692 0.0
H2480 H 0.52032 0.8529 0.67137 0.0
H2481 H 0.43126 0.81226 0.60695 0.0
H2482 H 0.45757 0.85715 0.65949 0.0
H2483 H 0.49383 0.82399 0.60868 0.0
C2484 C 0.52017 0.82993 0.62595 0.0
C2485 C 0.52795 0.83751 0.6439 0.0
C2486 C 0.45181 0.84742 0.64787 0.0
C2487 C 0.48675 0.83861 0.6369 0.0
C2488 C 0.43118 0.84434 0.64647 0.0
C2489 C 0.42347 0.83133 0.63195 0.0
C2490 C 0.46472 0.83747 0.63456 0.0
C2491 C 0.43672 0.82238 0.61838 0.0
C2492 C 0.49959 0.83033 0.62245 0.0
C2493 C 0.51479 0.84655 0.65752 0.0
N2494 N 0.45674 0.82548 0.62011 0.0
N2495 N 0.49477 0.84667 0.65385 0.0
H2496 H 0.14759 0.32606 0.30363 0.0
H2497 H 0.17293 0.34558 0.19154 0.0
H2498 H 0.17368 0.38273 0.28674 0.0
H2499 H 0.11449 0.3227 0.20699 0.0
H2500 H 0.1778 0.35538 0.22674 0.0
H2501 H 0.13916 0.32002 0.26823 0.0
C2502 C 0.15136 0.33726 0.29252 0.0
C2503 C 0.16118 0.35496 0.29807 0.0
C2504 C 0.16386 0.34841 0.22226 0.0
C2505 C 0.15226 0.34789 0.25787 0.0
C2506 C 0.16108 0.34285 0.20228 0.0
C2507 C 0.14323 0.3335 0.19638 0.0
C2508 C 0.14899 0.34391 0.23643 0.0
C2509 C 0.12837 0.33011 0.2109 0.0
C2510 C 0.14655 0.33384 0.27243 0.0
C2511 C 0.16588 0.36898 0.2831 0.0
N2512 N 0.13172 0.335 0.23035 0.0
N2513 N 0.16168 0.365 0.26361 0.0
H2514 H 0.61844 0.14806 0.29735 0.0
H2515 H 0.67636 0.1782 0.19777 0.0
H2516 H 0.67177 0.18463 0.2968 0.0
H2517 H 0.64241 0.12328 0.20176 0.0
H2518 H 0.66978 0.18437 0.23317 0.0
H2519 H 0.62332 0.14121 0.2616 0.0
C2520 C 0.63132 0.15441 0.2898 0.0
C2521 C 0.64474 0.16692 0.3001 0.0
C2522 C 0.66366 0.17105 0.22623 0.0
C2523 C 0.64999 0.15964 0.25922 0.0
C2524 C 0.66717 0.16762 0.20595 0.0
C2525 C 0.66002 0.15012 0.19676 0.0
C2526 C 0.65268 0.15702 0.23739 0.0
C2527 C 0.64831 0.13692 0.20825 0.0
C2528 C 0.63402 0.15056 0.26942 0.0
C2529 C 0.66112 0.1748 0.28954 0.0
N2530 N 0.64504 0.14061 0.22801 0.0
N2531 N 0.66313 0.17123 0.26963 0.0
H2532 H 0.83129 0.70041 0.20329 0.0
H2533 H 0.85298 0.6276 0.29586 0.0
H2534 H 0.87492 0.65271 0.2016 0.0
H2535 H 0.81795 0.68177 0.30045 0.0
H2536 H 0.86053 0.6359 0.26107 0.0
H2537 H 0.82414 0.69205 0.2382 0.0
C2538 C 0.83909 0.68793 0.2101 0.0
C2539 C 0.85379 0.67729 0.19946 0.0
C2540 C 0.85136 0.64607 0.26975 0.0
C2541 C 0.84594 0.66793 0.23957 0.0
C2542 C 0.84716 0.64143 0.28969 0.0
C2543 C 0.83475 0.65397 0.30114 0.0
C2544 C 0.84294 0.66329 0.2611 0.0
C2545 C 0.82763 0.67167 0.29226 0.0
C2546 C 0.83518 0.68334 0.23013 0.0
C2547 C 0.86353 0.66138 0.2092 0.0
N2548 N 0.83164 0.67568 0.27271 0.0
N2549 N 0.8595 0.65725 0.22871 0.0
H2550 H 0.32723 0.80713 0.2952 0.0
H2551 H 0.35311 0.87355 0.1994 0.0
H2552 H 0.37715 0.84825 0.29382 0.0
H2553 H 0.31606 0.8206 0.19727 0.0
H2554 H 0.36082 0.86627 0.23444 0.0
H2555 H 0.32041 0.81483 0.26017 0.0
C2556 C 0.33657 0.81804 0.28767 0.0
C2557 C 0.35287 0.82698 0.29751 0.0
C2558 C 0.35118 0.85614 0.22623 0.0
C2559 C 0.34528 0.83561 0.25722 0.0
C2560 C 0.34686 0.8602 0.20619 0.0
C2561 C 0.33389 0.84767 0.19535 0.0
C2562 C 0.34224 0.83959 0.2356 0.0
C2563 C 0.32621 0.83063 0.20496 0.0
C2564 C 0.33279 0.82224 0.26757 0.0
C2565 C 0.36446 0.84094 0.28685 0.0
N2566 N 0.3303 0.82722 0.2246 0.0
N2567 N 0.36049 0.84478 0.26726 0.0
H2568 H 0.12081 0.6563 0.79252 0.0
H2569 H 0.19764 0.67251 0.70187 0.0
H2570 H 0.1705 0.69765 0.79491 0.0
H2571 H 0.15001 0.62875 0.70155 0.0
H2572 H 0.18668 0.68354 0.73503 0.0
H2573 H 0.13093 0.64667 0.75882 0.0
C2574 C 0.13399 0.66322 0.78607 0.0
C2575 C 0.14481 0.67783 0.79664 0.0
C2576 C 0.17855 0.67163 0.72762 0.0
C2577 C 0.15631 0.66705 0.75777 0.0
C2578 C 0.18467 0.66545 0.70858 0.0
C2579 C 0.17481 0.64958 0.6989 0.0
C2580 C 0.16243 0.66191 0.73703 0.0
C2581 C 0.15816 0.64095 0.70844 0.0
C2582 C 0.13969 0.65779 0.76673 0.0
C2583 C 0.16173 0.68627 0.7874 0.0
N2584 N 0.1526 0.64713 0.72699 0.0
N2585 N 0.1669 0.68084 0.76846 0.0
H2586 H 0.32531 0.1885 0.70436 0.0
H2587 H 0.35548 0.12526 0.80038 0.0
H2588 H 0.37898 0.15243 0.70567 0.0
H2589 H 0.31903 0.17861 0.8031 0.0
H2590 H 0.36311 0.13279 0.7653 0.0
H2591 H 0.32034 0.18168 0.73993 0.0
C2592 C 0.33589 0.17889 0.71203 0.0
C2593 C 0.3526 0.17103 0.702 0.0
C2594 C 0.35367 0.14296 0.77371 0.0
C2595 C 0.34709 0.16338 0.74279 0.0
C2596 C 0.3494 0.13875 0.79374 0.0
C2597 C 0.33652 0.15127 0.80471 0.0
C2598 C 0.34471 0.15959 0.7645 0.0
C2599 C 0.32904 0.16853 0.79529 0.0
C2600 C 0.33317 0.17522 0.7324 0.0
C2601 C 0.36591 0.15883 0.71282 0.0
N2602 N 0.33299 0.172 0.77565 0.0
N2603 N 0.36285 0.15535 0.73265 0.0
H2604 H 0.80852 0.32068 0.70025 0.0
H2605 H 0.86958 0.35218 0.79799 0.0
H2606 H 0.84286 0.37539 0.70382 0.0
H2607 H 0.82318 0.30712 0.79761 0.0
H2608 H 0.8613 0.36039 0.76329 0.0
H2609 H 0.81632 0.31396 0.73527 0.0
C2610 C 0.81795 0.33116 0.70827 0.0
C2611 C 0.82499 0.34868 0.69902 0.0
C2612 C 0.85279 0.34887 0.7709 0.0
C2613 C 0.83373 0.34116 0.73932 0.0
C2614 C 0.85742 0.34424 0.79076 0.0
C2615 C 0.84712 0.32886 0.80076 0.0
C2616 C 0.83793 0.33788 0.76088 0.0
C2617 C 0.83153 0.3191 0.79057 0.0
C2618 C 0.82221 0.3274 0.72837 0.0
C2619 C 0.83706 0.36171 0.71031 0.0
N2620 N 0.82759 0.3236 0.77113 0.0
N2621 N 0.84102 0.35771 0.72988 0.0
H2622 H 0.65721 0.82247 0.80862 0.0
H2623 H 0.6748 0.83146 0.69312 0.0
H2624 H 0.68033 0.87781 0.78458 0.0
H2625 H 0.61617 0.81437 0.7142 0.0
H2626 H 0.6835 0.84188 0.7275 0.0
H2627 H 0.64785 0.81218 0.77436 0.0
C2628 C 0.66021 0.83243 0.79618 0.0
C2629 C 0.66926 0.8511 0.79936 0.0
C2630 C 0.66875 0.83584 0.72444 0.0
C2631 C 0.65949 0.83918 0.76056 0.0
C2632 C 0.66382 0.82995 0.70497 0.0
C2633 C 0.64469 0.82236 0.7009 0.0
C2634 C 0.65471 0.83333 0.73989 0.0
C2635 C 0.63097 0.82049 0.71674 0.0
C2636 C 0.65492 0.82658 0.77676 0.0
C2637 C 0.67305 0.86343 0.78275 0.0
N2638 N 0.63632 0.82572 0.73564 0.0
N2639 N 0.66839 0.85715 0.764 0.0
H2640 H 0.20296 0.17313 0.30916 0.0
H2641 H 0.29903 0.1446 0.37347 0.0
H2642 H 0.20513 0.11993 0.34587 0.0
H2643 H 0.30083 0.18402 0.32226 0.0
H2644 H 0.26443 0.13594 0.36508 0.0
H2645 H 0.23817 0.17927 0.31665 0.0
C2646 C 0.21072 0.1629 0.31907 0.0
C2647 C 0.20102 0.14595 0.32687 0.0
C2648 C 0.27252 0.14626 0.35553 0.0
C2649 C 0.24151 0.15277 0.33523 0.0
C2650 C 0.29232 0.1511 0.36021 0.0
C2651 C 0.30285 0.16515 0.34861 0.0
C2652 C 0.26311 0.15576 0.33933 0.0
C2653 C 0.29335 0.17311 0.33163 0.0
C2654 C 0.23091 0.16629 0.32312 0.0
C2655 C 0.21198 0.13317 0.3395 0.0
N2656 N 0.27392 0.16855 0.32769 0.0
N2657 N 0.23165 0.13683 0.34328 0.0
H2658 H 0.85282 0.29864 0.37436 0.0
H2659 H 0.87987 0.20177 0.34623 0.0
H2660 H 0.82038 0.30006 0.31845 0.0
H2661 H 0.82768 0.20442 0.30815 0.0
H2662 H 0.87542 0.23695 0.35428 0.0
H2663 H 0.86123 0.26381 0.36823 0.0
C2664 C 0.84791 0.29179 0.3605 0.0
C2665 C 0.83585 0.30238 0.34691 0.0
C2666 C 0.8646 0.22982 0.34457 0.0
C2667 C 0.84558 0.26223 0.33966 0.0
C2668 C 0.86717 0.20963 0.3399 0.0
C2669 C 0.85407 0.20001 0.32654 0.0
C2670 C 0.84872 0.24056 0.3359 0.0
C2671 C 0.83806 0.21112 0.31864 0.0
C2672 C 0.85277 0.27178 0.35697 0.0
C2673 C 0.8298 0.29258 0.32931 0.0
N2674 N 0.83594 0.23083 0.32332 0.0
N2675 N 0.83451 0.27299 0.32633 0.0
H2676 H 0.70143 0.79776 0.33051 0.0
H2677 H 0.79234 0.87327 0.35033 0.0
H2678 H 0.6988 0.84653 0.3729 0.0
H2679 H 0.79808 0.81879 0.31596 0.0
H2680 H 0.7577 0.86439 0.3579 0.0
H2681 H 0.73605 0.80688 0.32282 0.0
C2682 C 0.70797 0.81061 0.33793 0.0
C2683 C 0.69716 0.82135 0.35243 0.0
C2684 C 0.76659 0.85428 0.34885 0.0
C2685 C 0.73693 0.83161 0.34397 0.0
C2686 C 0.78643 0.85928 0.34462 0.0
C2687 C 0.79818 0.84678 0.33245 0.0
C2688 C 0.75831 0.83675 0.34071 0.0
C2689 C 0.78965 0.82885 0.32547 0.0
C2690 C 0.72783 0.81566 0.3337 0.0
C2691 C 0.70655 0.83776 0.36167 0.0
N2692 N 0.77018 0.82447 0.32953 0.0
N2693 N 0.72589 0.84232 0.35735 0.0
H2694 H 0.14977 0.69133 0.32926 0.0
H2695 H 0.17286 0.80531 0.33798 0.0
H2696 H 0.17785 0.71319 0.38319 0.0
H2697 H 0.11308 0.78665 0.32203 0.0
H2698 H 0.17992 0.77092 0.34944 0.0
H2699 H 0.14051 0.72599 0.32068 0.0
C2700 C 0.1538 0.70339 0.33933 0.0
C2701 C 0.16436 0.69947 0.35703 0.0
C2702 C 0.16524 0.77454 0.34354 0.0
C2703 C 0.1546 0.73879 0.347 0.0
C2704 C 0.16125 0.79403 0.33702 0.0
C2705 C 0.14234 0.79878 0.32926 0.0
C2706 C 0.15046 0.75972 0.34155 0.0
C2707 C 0.12778 0.78363 0.32817 0.0
C2708 C 0.14856 0.72304 0.33445 0.0
C2709 C 0.16944 0.71561 0.36954 0.0
N2710 N 0.13223 0.76467 0.33397 0.0
N2711 N 0.16479 0.73465 0.36413 0.0
H2712 H 0.30444 0.83669 0.67474 0.0
H2713 H 0.18963 0.82254 0.65589 0.0
H2714 H 0.28513 0.81487 0.61709 0.0
H2715 H 0.21159 0.87951 0.67708 0.0
H2716 H 0.22431 0.81311 0.64715 0.0
H2717 H 0.2696 0.84647 0.6821 0.0
C2718 C 0.29288 0.83401 0.66369 0.0
C2719 C 0.29759 0.82524 0.64522 0.0
C2720 C 0.22135 0.82769 0.65362 0.0
C2721 C 0.25805 0.83557 0.65377 0.0
C2722 C 0.20169 0.83305 0.65856 0.0
C2723 C 0.19779 0.8519 0.66694 0.0
C2724 C 0.23708 0.84099 0.65787 0.0
C2725 C 0.21394 0.86495 0.67033 0.0
C2726 C 0.27313 0.83955 0.66786 0.0
C2727 C 0.28209 0.8219 0.63139 0.0
N2728 N 0.23294 0.85915 0.66605 0.0
N2729 N 0.26292 0.82685 0.63603 0.0
H2730 H 0.12507 0.20593 0.64807 0.0
H2731 H 0.18836 0.30339 0.67741 0.0
H2732 H 0.17404 0.20541 0.69029 0.0
H2733 H 0.1477 0.301 0.6272 0.0
H2734 H 0.18025 0.26851 0.68506 0.0
H2735 H 0.13132 0.24141 0.64187 0.0
C2736 C 0.1373 0.21319 0.65586 0.0
C2737 C 0.14907 0.20261 0.66971 0.0
C2738 C 0.17298 0.2757 0.67248 0.0
C2739 C 0.15601 0.2434 0.66297 0.0
C2740 C 0.1774 0.2957 0.66825 0.0
C2741 C 0.1688 0.30513 0.65155 0.0
C2742 C 0.15977 0.26509 0.66 0.0
C2743 C 0.15481 0.29432 0.64014 0.0
C2744 C 0.14078 0.2335 0.6524 0.0
C2745 C 0.16466 0.21289 0.6794 0.0
N2746 N 0.15085 0.27485 0.6445 0.0
N2747 N 0.16758 0.23274 0.67595 0.0
H2748 H 0.8024 0.18029 0.68025 0.0
H2749 H 0.7031 0.14958 0.62119 0.0
H2750 H 0.79844 0.12659 0.64442 0.0
H2751 H 0.70364 0.18985 0.67177 0.0
H2752 H 0.73881 0.14318 0.62642 0.0
H2753 H 0.76728 0.1873 0.67289 0.0
C2754 C 0.79431 0.17019 0.67047 0.0
C2755 C 0.80339 0.15274 0.66305 0.0
C2756 C 0.73105 0.15329 0.63645 0.0
C2757 C 0.76306 0.16055 0.65487 0.0
C2758 C 0.71065 0.15687 0.63356 0.0
C2759 C 0.70033 0.17024 0.6461 0.0
C2760 C 0.74127 0.16338 0.65179 0.0
C2761 C 0.71092 0.17932 0.66183 0.0
C2762 C 0.77417 0.17408 0.6665 0.0
C2763 C 0.79204 0.14016 0.65056 0.0
N2764 N 0.73085 0.17587 0.6641 0.0
N2765 N 0.77243 0.14425 0.64695 0.0
H2766 H 0.85522 0.69862 0.62278 0.0
H2767 H 0.82455 0.79665 0.68226 0.0
H2768 H 0.81907 0.69781 0.6764 0.0
H2769 H 0.88039 0.79382 0.64971 0.0
H2770 H 0.81922 0.76121 0.67546 0.0
H2771 H 0.86274 0.73407 0.62895 0.0
C2772 C 0.84914 0.70578 0.63601 0.0
C2773 C 0.83646 0.69522 0.64908 0.0
C2774 C 0.83259 0.76838 0.66973 0.0
C2775 C 0.84451 0.73576 0.65579 0.0
C2776 C 0.83556 0.7887 0.67339 0.0
C2777 C 0.85301 0.79827 0.66662 0.0
C2778 C 0.84701 0.75754 0.65898 0.0
C2779 C 0.86676 0.78704 0.65528 0.0
C2780 C 0.85337 0.72599 0.63944 0.0
C2781 C 0.82897 0.70528 0.66595 0.0
N2782 N 0.86347 0.76722 0.6518 0.0
N2783 N 0.83286 0.72505 0.66865 0.0
H2784 H 0.33122 0.29435 0.1995 0.0
H2785 H 0.35591 0.20178 0.12832 0.0
H2786 H 0.38014 0.29547 0.15718 0.0
H2787 H 0.32136 0.19698 0.18279 0.0
H2788 H 0.36374 0.23655 0.13689 0.0
H2789 H 0.32495 0.25947 0.19074 0.0
C2790 C 0.34048 0.28739 0.18814 0.0
C2791 C 0.35629 0.29791 0.17911 0.0
C2792 C 0.35463 0.22778 0.14704 0.0
C2793 C 0.34931 0.25778 0.16922 0.0
C2794 C 0.35024 0.2079 0.14224 0.0
C2795 C 0.33788 0.19641 0.15482 0.0
C2796 C 0.34639 0.23631 0.16439 0.0
C2797 C 0.33095 0.20519 0.17263 0.0
C2798 C 0.33701 0.26737 0.18331 0.0
C2799 C 0.36782 0.28796 0.16456 0.0
N2800 N 0.33509 0.22467 0.17675 0.0
N2801 N 0.36412 0.26843 0.16009 0.0
H2802 H 0.31069 0.79599 0.82394 0.0
H2803 H 0.37398 0.70027 0.85583 0.0
H2804 H 0.34628 0.79492 0.87791 0.0
H2805 H 0.32196 0.69717 0.81756 0.0
H2806 H 0.36623 0.73543 0.8628 0.0
H2807 H 0.31798 0.76049 0.81891 0.0
C2808 C 0.3203 0.78839 0.83457 0.0
C2809 C 0.32788 0.79847 0.85139 0.0
C2810 C 0.3564 0.72695 0.85309 0.0
C2811 C 0.33605 0.75776 0.84582 0.0
C2812 C 0.36073 0.70686 0.84918 0.0
C2813 C 0.34861 0.69574 0.83607 0.0
C2814 C 0.34006 0.73606 0.84352 0.0
C2815 C 0.33168 0.7051 0.82783 0.0
C2816 C 0.32424 0.76806 0.83181 0.0
C2817 C 0.34009 0.78775 0.86476 0.0
N2818 N 0.32807 0.72479 0.83147 0.0
N2819 N 0.34381 0.76796 0.86168 0.0
H2820 H 0.29416 0.37703 0.84253 0.0
H2821 H 0.19846 0.30947 0.817 0.0
H2822 H 0.29454 0.32967 0.79848 0.0
H2823 H 0.20029 0.35235 0.86539 0.0
H2824 H 0.23272 0.3187 0.80809 0.0
H2825 H 0.25933 0.36912 0.85018 0.0
C2826 C 0.28702 0.3648 0.83461 0.0
C2827 C 0.29736 0.35401 0.81982 0.0
C2828 C 0.22555 0.3262 0.82055 0.0
C2829 C 0.25726 0.34511 0.82829 0.0
C2830 C 0.20588 0.32109 0.82553 0.0
C2831 C 0.19645 0.33004 0.84207 0.0
C2832 C 0.23587 0.34039 0.83215 0.0
C2833 C 0.20694 0.34495 0.85259 0.0
C2834 C 0.26706 0.36038 0.83892 0.0
C2835 C 0.28724 0.33836 0.81005 0.0
N2836 N 0.22611 0.34954 0.84754 0.0
N2837 N 0.26772 0.33446 0.81438 0.0
H2838 H 0.62149 0.29802 0.84896 0.0
H2839 H 0.68919 0.20262 0.82477 0.0
H2840 H 0.67454 0.30027 0.81203 0.0
H2841 H 0.64776 0.20434 0.87443 0.0
H2842 H 0.68128 0.23755 0.8175 0.0
H2843 H 0.62919 0.26318 0.85717 0.0
C2844 C 0.63492 0.2913 0.84281 0.0
C2845 C 0.64737 0.3021 0.82975 0.0
C2846 C 0.67387 0.23025 0.82993 0.0
C2847 C 0.65597 0.26211 0.83872 0.0
C2848 C 0.6782 0.21022 0.83397 0.0
C2849 C 0.66917 0.20051 0.85029 0.0
C2850 C 0.66028 0.24063 0.84217 0.0
C2851 C 0.65514 0.21123 0.86174 0.0
C2852 C 0.63924 0.27138 0.84743 0.0
C2853 C 0.66455 0.29259 0.82222 0.0
N2854 N 0.65115 0.23073 0.85748 0.0
N2855 N 0.66821 0.27307 0.82663 0.0
H2856 H 0.80443 0.66733 0.82583 0.0
H2857 H 0.68905 0.67798 0.84104 0.0
H2858 H 0.78306 0.68553 0.88401 0.0
H2859 H 0.71259 0.62133 0.82071 0.0
H2860 H 0.72326 0.68794 0.85099 0.0
H2861 H 0.77006 0.6569 0.8171 0.0
C2862 C 0.79253 0.66907 0.83671 0.0
C2863 C 0.79651 0.67699 0.85572 0.0
C2864 C 0.72075 0.67332 0.84442 0.0
C2865 C 0.75751 0.666 0.84564 0.0
C2866 C 0.70136 0.66765 0.83881 0.0
C2867 C 0.69804 0.64874 0.83034 0.0
C2868 C 0.73682 0.66027 0.84074 0.0
C2869 C 0.7145 0.63593 0.82752 0.0
C2870 C 0.77305 0.66317 0.83176 0.0
C2871 C 0.78058 0.67916 0.8693 0.0
N2872 N 0.73325 0.64203 0.83244 0.0
N2873 N 0.76168 0.67392 0.86392 0.0
H2874 H 0.65496 0.80437 0.1702 0.0
H2875 H 0.67286 0.6908 0.15334 0.0
H2876 H 0.67661 0.78535 0.11238 0.0
H2877 H 0.61454 0.70997 0.17356 0.0
H2878 H 0.68018 0.72558 0.14329 0.0
H2879 H 0.64512 0.76953 0.17738 0.0
C2880 C 0.65747 0.79289 0.15901 0.0
C2881 C 0.66636 0.79766 0.14062 0.0
C2882 C 0.66576 0.72199 0.14979 0.0
C2883 C 0.65599 0.75812 0.14898 0.0
C2884 C 0.6616 0.70228 0.1555 0.0
C2885 C 0.64303 0.69757 0.16407 0.0
C2886 C 0.65152 0.73703 0.15342 0.0
C2887 C 0.62895 0.71298 0.16674 0.0
C2888 C 0.65189 0.77315 0.16309 0.0
C2889 C 0.6695 0.78227 0.12663 0.0
N2890 N 0.6336 0.73212 0.16174 0.0
N2891 N 0.66462 0.76307 0.13122 0.0
H2892 H 0.29801 0.67894 0.18166 0.0
H2893 H 0.19879 0.64838 0.12222 0.0
H2894 H 0.2922 0.62356 0.14873 0.0
H2895 H 0.20113 0.69614 0.16575 0.0
H2896 H 0.23336 0.6397 0.13044 0.0
H2897 H 0.2634 0.68711 0.17323 0.0
C2898 C 0.28962 0.66866 0.17234 0.0
C2899 C 0.29807 0.65048 0.16597 0.0
C2900 C 0.22624 0.65195 0.13834 0.0
C2901 C 0.25825 0.65961 0.1566 0.0
C2902 C 0.20645 0.65684 0.13375 0.0
C2903 C 0.19703 0.67306 0.14327 0.0
C2904 C 0.23679 0.6635 0.15238 0.0
C2905 C 0.20773 0.68348 0.15807 0.0
C2906 C 0.26975 0.67323 0.16775 0.0
C2907 C 0.28633 0.63772 0.15404 0.0
N2908 N 0.22711 0.67866 0.162 0.0
N2909 N 0.267 0.64248 0.14982 0.0
H2910 H 0.79967 0.35068 0.12783 0.0
H2911 H 0.7047 0.32691 0.19673 0.0
H2912 H 0.80179 0.31133 0.17908 0.0
H2913 H 0.70552 0.37373 0.15214 0.0
H2914 H 0.73977 0.31969 0.18918 0.0
H2915 H 0.76516 0.35922 0.13629 0.0
C2916 C 0.79302 0.3441 0.14108 0.0
C2917 C 0.80368 0.3302 0.15271 0.0
C2918 C 0.73224 0.33148 0.181 0.0
C2919 C 0.76392 0.33955 0.1622 0.0
C2920 C 0.71212 0.33547 0.18513 0.0
C2921 C 0.70209 0.35098 0.17508 0.0
C2922 C 0.7424 0.343 0.16662 0.0
C2923 C 0.71261 0.36166 0.16031 0.0
C2924 C 0.77324 0.34889 0.14583 0.0
C2925 C 0.79422 0.32217 0.1697 0.0
N2926 N 0.73218 0.3575 0.15658 0.0
N2927 N 0.77481 0.32677 0.17379 0.0
H2928 H 0.1525 0.19776 0.24977 0.0
H2929 H 0.086 0.25813 0.17628 0.0
H2930 H 0.09388 0.1732 0.23804 0.0
H2931 H 0.14663 0.24133 0.16116 0.0
H2932 H 0.0857 0.23157 0.20192 0.0
H2933 H 0.14813 0.2206 0.22148 0.0
C2934 C 0.13859 0.1974 0.24144 0.0
C2935 C 0.12355 0.18357 0.24615 0.0
C2936 C 0.09883 0.23357 0.19261 0.0
C2937 C 0.11849 0.2096 0.21394 0.0
C2938 C 0.09899 0.24855 0.17791 0.0
C2939 C 0.1165 0.2522 0.16682 0.0
C2940 C 0.1164 0.22263 0.1963 0.0
C2941 C 0.13293 0.23936 0.16962 0.0
C2942 C 0.1362 0.21026 0.22522 0.0
C2943 C 0.10585 0.18362 0.23474 0.0
N2944 N 0.13265 0.2255 0.18441 0.0
N2945 N 0.10371 0.19657 0.21914 0.0
H2946 H 0.8 0.15409 0.24765 0.0
H2947 H 0.73284 0.08649 0.18044 0.0
H2948 H 0.81936 0.09304 0.23911 0.0
H2949 H 0.75138 0.14554 0.16156 0.0
H2950 H 0.76015 0.08657 0.20527 0.0
H2951 H 0.77581 0.14977 0.22044 0.0
C2952 C 0.79895 0.1397 0.24023 0.0
C2953 C 0.81169 0.12391 0.24553 0.0
C2954 C 0.75831 0.09928 0.19536 0.0
C2955 C 0.78409 0.11888 0.2146 0.0
C2956 C 0.74287 0.09922 0.18114 0.0
C2957 C 0.73956 0.11617 0.1691 0.0
C2958 C 0.77007 0.11654 0.19771 0.0
C2959 C 0.75306 0.13226 0.1707 0.0
C2960 C 0.78532 0.13731 0.22463 0.0
C2961 C 0.80983 0.10559 0.23532 0.0
N2962 N 0.76738 0.13224 0.18506 0.0
N2963 N 0.79614 0.10348 0.22036 0.0
H2964 H 0.89508 0.77265 0.1582 0.0
H2965 H 0.8792 0.79144 0.27149 0.0
H2966 H 0.91373 0.72886 0.20177 0.0
H2967 H 0.89057 0.8404 0.23085 0.0
H2968 H 0.89274 0.76819 0.24645 0.0
H2969 H 0.89548 0.79831 0.1843 0.0
C2970 C 0.90003 0.76865 0.17312 0.0
C2971 C 0.90437 0.74868 0.17789 0.0
C2972 C 0.89256 0.78408 0.2432 0.0
C2973 C 0.90388 0.77761 0.20796 0.0
C2974 C 0.88467 0.7973 0.25739 0.0
C2975 C 0.88351 0.81782 0.25312 0.0
C2976 C 0.89892 0.79144 0.22453 0.0
C2977 C 0.89103 0.82467 0.23471 0.0
C2978 C 0.9001 0.78323 0.18805 0.0
C2979 C 0.91042 0.74414 0.19749 0.0
N2980 N 0.8981 0.81148 0.22097 0.0
N2981 N 0.90942 0.75839 0.212 0.0
H2982 H 0.26421 0.9148 0.18457 0.0
H2983 H 0.19929 0.84737 0.25303 0.0
H2984 H 0.24155 0.85782 0.16386 0.0
H2985 H 0.17808 0.90796 0.24556 0.0
H2986 H 0.22262 0.85257 0.22522 0.0
H2987 H 0.23823 0.91486 0.21081 0.0
C2988 C 0.25353 0.90261 0.18517 0.0
C2989 C 0.25532 0.8861 0.17221 0.0
C2990 C 0.21295 0.86475 0.22986 0.0
C2991 C 0.22638 0.88585 0.20235 0.0
C2992 C 0.19981 0.86187 0.24578 0.0
C2993 C 0.18674 0.87724 0.25149 0.0
C2994 C 0.21335 0.88325 0.21992 0.0
C2995 C 0.1879 0.89572 0.24146 0.0
C2996 C 0.23887 0.90261 0.20019 0.0
C2997 C 0.24105 0.87069 0.17372 0.0
N2998 N 0.20109 0.8983 0.22613 0.0
N2999 N 0.22754 0.8707 0.18884 0.0
H3000 H 0.10837 0.7741 0.84017 0.0
H3001 H 0.11589 0.79418 0.72637 0.0
H3002 H 0.08302 0.73236 0.79793 0.0
H3003 H 0.10805 0.84317 0.76781 0.0
H3004 H 0.10398 0.77101 0.75231 0.0
H3005 H 0.10744 0.80016 0.81443 0.0
C3006 C 0.10193 0.77065 0.82568 0.0
C3007 C 0.09579 0.7511 0.82112 0.0
C3008 C 0.10458 0.78689 0.75556 0.0
C3009 C 0.09558 0.78044 0.79143 0.0
C3010 C 0.11154 0.80006 0.74085 0.0
C3011 C 0.11315 0.82056 0.74503 0.0
C3012 C 0.09968 0.79428 0.77465 0.0
C3013 C 0.10713 0.82744 0.76398 0.0
C3014 C 0.10153 0.78546 0.81096 0.0
C3015 C 0.08779 0.7473 0.80206 0.0
N3016 N 0.101 0.81429 0.77821 0.0
N3017 N 0.08845 0.7617 0.78769 0.0
H3018 H 0.1809 0.08906 0.74922 0.0
H3019 H 0.24193 0.14012 0.83495 0.0
H3020 H 0.20011 0.15067 0.74599 0.0
H3021 H 0.26664 0.08522 0.81122 0.0
H3022 H 0.2168 0.13983 0.80857 0.0
H3023 H 0.2046 0.08361 0.77705 0.0
C3024 C 0.19022 0.10135 0.75426 0.0
C3025 C 0.18865 0.12034 0.74534 0.0
C3026 C 0.22754 0.12768 0.8094 0.0
C3027 C 0.2149 0.11437 0.77723 0.0
C3028 C 0.24183 0.12772 0.82449 0.0
C3029 C 0.25673 0.11288 0.82505 0.0
C3030 C 0.22783 0.11253 0.79496 0.0
C3031 C 0.25553 0.09703 0.81123 0.0
C3032 C 0.20364 0.09821 0.77003 0.0
C3033 C 0.20098 0.13579 0.75236 0.0
N3034 N 0.24139 0.09736 0.7965 0.0
N3035 N 0.21335 0.13254 0.76813 0.0
H3036 H 0.88889 0.16036 0.7687 0.0
H3037 H 0.90906 0.27432 0.79798 0.0
H3038 H 0.88145 0.20925 0.72707 0.0
H3039 H 0.8839 0.23104 0.83878 0.0
H3040 H 0.91133 0.24816 0.77226 0.0
H3041 H 0.89885 0.1843 0.79452 0.0
C3042 C 0.88961 0.17611 0.7649 0.0
C3043 C 0.88406 0.1829 0.74579 0.0
C3044 C 0.90585 0.24434 0.78704 0.0
C3045 C 0.89576 0.21019 0.77518 0.0
C3046 C 0.90478 0.25914 0.80178 0.0
C3047 C 0.89618 0.25476 0.82044 0.0
C3048 C 0.89864 0.22506 0.79125 0.0
C3049 C 0.89054 0.23496 0.82452 0.0
C3050 C 0.8953 0.18971 0.77964 0.0
C3051 C 0.88534 0.20346 0.7417 0.0
N3052 N 0.89172 0.22084 0.80995 0.0
N3053 N 0.891 0.21645 0.75634 0.0
H3054 H 0.7362 0.91895 0.81066 0.0
H3055 H 0.79744 0.84992 0.74112 0.0
H3056 H 0.75941 0.86237 0.83178 0.0
H3057 H 0.82047 0.91003 0.74702 0.0
H3058 H 0.77533 0.85607 0.76971 0.0
H3059 H 0.7614 0.9185 0.78369 0.0
C3060 C 0.74689 0.90677 0.81002 0.0
C3061 C 0.74543 0.89047 0.82325 0.0
C3062 C 0.78512 0.86794 0.76456 0.0
C3063 C 0.77343 0.88963 0.79233 0.0
C3064 C 0.79755 0.86453 0.74818 0.0
C3065 C 0.8108 0.87947 0.74183 0.0
C3066 C 0.78563 0.88654 0.77429 0.0
C3067 C 0.81049 0.89811 0.75163 0.0
C3068 C 0.76109 0.90648 0.79458 0.0
C3069 C 0.75967 0.87506 0.82169 0.0
N3070 N 0.798 0.90121 0.76744 0.0
N3071 N 0.77271 0.87476 0.80617 0.0
H3072 H 0.25276 0.08491 0.17617 0.0
H3073 H 0.16306 0.13051 0.23317 0.0
H3074 H 0.25677 0.14361 0.20289 0.0
H3075 H 0.18904 0.07954 0.26335 0.0
H3076 H 0.19043 0.12963 0.20899 0.0
H3077 H 0.22347 0.07767 0.19754 0.0
C3078 C 0.24761 0.09614 0.18668 0.0
C3079 C 0.25715 0.11486 0.18788 0.0
C3080 C 0.18974 0.11833 0.22061 0.0
C3081 C 0.22369 0.10693 0.21148 0.0
C3082 C 0.17411 0.11869 0.23434 0.0
C3083 C 0.17402 0.10536 0.2506 0.0
C3084 C 0.20512 0.10431 0.22289 0.0
C3085 C 0.18865 0.09021 0.25116 0.0
C3086 C 0.231 0.09199 0.19875 0.0
C3087 C 0.24995 0.12895 0.20165 0.0
N3088 N 0.20395 0.0903 0.23765 0.0
N3089 N 0.23339 0.12482 0.21267 0.0
H3090 H 0.88308 0.21999 0.15637 0.0
H3091 H 0.91211 0.19148 0.26854 0.0
H3092 H 0.88314 0.26278 0.20482 0.0
H3093 H 0.87925 0.1519 0.22948 0.0
H3094 H 0.91386 0.21617 0.24142 0.0
H3095 H 0.89326 0.19383 0.17989 0.0
C3096 C 0.8855 0.22395 0.17191 0.0
C3097 C 0.88201 0.24352 0.17875 0.0
C3098 C 0.9068 0.20182 0.23867 0.0
C3099 C 0.89403 0.21376 0.2055 0.0
C3100 C 0.90604 0.18763 0.254 0.0
C3101 C 0.89541 0.16971 0.25121 0.0
C3102 C 0.89725 0.1978 0.22042 0.0
C3103 C 0.88751 0.16559 0.2322 0.0
C3104 C 0.89131 0.20902 0.18526 0.0
C3105 C 0.8854 0.24781 0.19902 0.0
N3106 N 0.88842 0.17965 0.21754 0.0
N3107 N 0.89119 0.23299 0.21175 0.0
H3108 H 0.74615 0.90842 0.177 0.0
H3109 H 0.83206 0.85905 0.23939 0.0
H3110 H 0.74385 0.84686 0.19645 0.0
H3111 H 0.80696 0.91375 0.26319 0.0
H3112 H 0.80627 0.85885 0.21362 0.0
H3113 H 0.77384 0.91444 0.20071 0.0
C3114 C 0.75137 0.89627 0.18638 0.0
C3115 C 0.74276 0.87713 0.18491 0.0
C3116 C 0.8067 0.87107 0.22429 0.0
C3117 C 0.7745 0.88373 0.21111 0.0
C3118 C 0.82144 0.87131 0.23893 0.0
C3119 C 0.82137 0.8862 0.2538 0.0
C3120 C 0.79202 0.88599 0.22421 0.0
C3121 C 0.80742 0.90188 0.25215 0.0
C3122 C 0.76707 0.89972 0.19979 0.0
C3123 C 0.74999 0.86185 0.19728 0.0
N3124 N 0.79303 0.90126 0.2377 0.0
N3125 N 0.76569 0.8654 0.20966 0.0
H3126 H 0.12521 0.84939 0.23105 0.0
H3127 H 0.1195 0.7387 0.1949 0.0
H3128 H 0.08951 0.80626 0.26318 0.0
H3129 H 0.12398 0.78716 0.15239 0.0
H3130 H 0.10948 0.76292 0.22071 0.0
H3131 H 0.1252 0.82717 0.2019 0.0
C3132 C 0.11683 0.83551 0.2317 0.0
C3133 C 0.10726 0.82965 0.24942 0.0
C3134 C 0.11243 0.76816 0.20564 0.0
C3135 C 0.10798 0.80383 0.21661 0.0
C3136 C 0.11832 0.75441 0.191 0.0
C3137 C 0.12275 0.76099 0.17156 0.0
C3138 C 0.11142 0.78863 0.20087 0.0
C3139 C 0.12076 0.78146 0.16722 0.0
C3140 C 0.11692 0.82279 0.21514 0.0
C3141 C 0.09687 0.81138 0.24967 0.0
N3142 N 0.11555 0.79461 0.18183 0.0
N3143 N 0.09792 0.79884 0.23365 0.0
H3144 H 0.18443 0.9191 0.73485 0.0
H3145 H 0.25597 0.85141 0.79612 0.0
H3146 H 0.16582 0.86101 0.75642 0.0
H3147 H 0.24896 0.91184 0.81796 0.0
H3148 H 0.22724 0.85653 0.77399 0.0
H3149 H 0.21133 0.91918 0.7601 0.0
C3150 C 0.18561 0.90666 0.74519 0.0
C3151 C 0.17308 0.88984 0.74325 0.0
C3152 C 0.23215 0.8687 0.78354 0.0
C3153 C 0.20397 0.88964 0.77135 0.0
C3154 C 0.24862 0.86587 0.79597 0.0
C3155 C 0.25475 0.88122 0.80889 0.0
C3156 C 0.22204 0.8871 0.78369 0.0
C3157 C 0.24456 0.89963 0.80824 0.0
C3158 C 0.20102 0.90668 0.75943 0.0
C3159 C 0.17534 0.87412 0.75705 0.0
N3160 N 0.22866 0.90215 0.79573 0.0
N3161 N 0.19081 0.87418 0.77015 0.0
H3162 H 0.12354 0.14959 0.7635 0.0
H3163 H 0.11941 0.26177 0.7927 0.0
H3164 H 0.09038 0.19177 0.72757 0.0
H3165 H 0.12085 0.21617 0.83845 0.0
H3166 H 0.10904 0.23632 0.76832 0.0
H3167 H 0.12201 0.17297 0.79167 0.0
C3168 C 0.11534 0.16348 0.76178 0.0
C3169 C 0.10715 0.16882 0.7432 0.0
C3170 C 0.11136 0.23198 0.78378 0.0
C3171 C 0.10612 0.1959 0.77495 0.0
C3172 C 0.11746 0.24644 0.79761 0.0
C3173 C 0.12118 0.241 0.81753 0.0
C3174 C 0.10944 0.21193 0.78985 0.0
C3175 C 0.11821 0.22097 0.82319 0.0
C3176 C 0.11457 0.17686 0.7778 0.0
C3177 C 0.09683 0.18706 0.74168 0.0
N3178 N 0.11285 0.20707 0.80935 0.0
N3179 N 0.09709 0.20024 0.75719 0.0
H3180 H 0.81242 0.08466 0.73273 0.0
H3181 H 0.74442 0.15012 0.79938 0.0
H3182 H 0.83324 0.14132 0.75609 0.0
H3183 H 0.7547 0.09046 0.82203 0.0
H3184 H 0.77147 0.14511 0.77518 0.0
H3185 H 0.78677 0.08387 0.75933 0.0
C3186 C 0.81195 0.09664 0.74365 0.0
C3187 C 0.82477 0.11326 0.74193 0.0
C3188 C 0.76761 0.13308 0.78536 0.0
C3189 C 0.79537 0.11265 0.77161 0.0
C3190 C 0.75214 0.13585 0.79904 0.0
C3191 C 0.74745 0.12071 0.81277 0.0
C3192 C 0.77812 0.11492 0.7851 0.0
C3193 C 0.75803 0.10253 0.81174 0.0
C3194 C 0.79729 0.0962 0.75868 0.0
C3195 C 0.82347 0.12838 0.75652 0.0
N3196 N 0.77293 0.10005 0.79803 0.0
N3197 N 0.80871 0.12795 0.77041 0.0
H3198 H 0.86057 0.84287 0.75927 0.0
H3199 H 0.90869 0.75836 0.82538 0.0
H3200 H 0.91447 0.81525 0.73657 0.0
H3201 H 0.84687 0.75738 0.80667 0.0
H3202 H 0.91518 0.78539 0.801 0.0
H3203 H 0.86032 0.81897 0.78683 0.0
C3204 C 0.87271 0.83216 0.76038 0.0
C3205 C 0.88734 0.83076 0.74533 0.0
C3206 C 0.90028 0.77911 0.80229 0.0
C3207 C 0.88705 0.80351 0.77691 0.0
C3208 C 0.89655 0.76379 0.81609 0.0
C3209 C 0.87723 0.75565 0.81789 0.0
C3210 C 0.88439 0.78668 0.79089 0.0
C3211 C 0.86199 0.76313 0.8056 0.0
C3212 C 0.87243 0.81848 0.77604 0.0
C3213 C 0.90285 0.81673 0.74777 0.0
N3214 N 0.86584 0.77844 0.79281 0.0
N3215 N 0.90216 0.80335 0.76318 0.0
H3216 H 0.18725 0.25254 0.08907 0.0
H3217 H 0.24501 0.16687 0.14505 0.0
H3218 H 0.20357 0.25665 0.15142 0.0
H3219 H 0.26832 0.18622 0.08786 0.0
H3220 H 0.22098 0.19425 0.14414 0.0
H3221 H 0.21015 0.22381 0.08539 0.0
C3222 C 0.19584 0.24753 0.10189 0.0
C3223 C 0.19367 0.25697 0.12057 0.0
C3224 C 0.23119 0.19228 0.13167 0.0
C3225 C 0.21896 0.22397 0.11661 0.0
C3226 C 0.24482 0.17656 0.13204 0.0
C3227 C 0.25905 0.17444 0.11667 0.0
C3228 C 0.23141 0.20577 0.11566 0.0
C3229 C 0.25776 0.18739 0.10011 0.0
C3230 C 0.20878 0.23121 0.09977 0.0
C3231 C 0.20499 0.24992 0.13674 0.0
N3232 N 0.24425 0.2027 0.10009 0.0
N3233 N 0.21691 0.23361 0.13447 0.0
H3234 H 0.23653 0.84669 0.85912 0.0
H3235 H 0.16827 0.76349 0.90719 0.0
H3236 H 0.2581 0.81834 0.91308 0.0
H3237 H 0.18685 0.76259 0.84534 0.0
H3238 H 0.1929 0.79032 0.91372 0.0
H3239 H 0.20807 0.82384 0.8589 0.0
C3240 C 0.235 0.83606 0.87128 0.0
C3241 C 0.24999 0.8341 0.8859 0.0
C3242 C 0.19148 0.78414 0.89879 0.0
C3243 C 0.21738 0.80807 0.88566 0.0
C3244 C 0.17755 0.76893 0.89505 0.0
C3245 C 0.17569 0.76083 0.87572 0.0
C3246 C 0.20295 0.79164 0.88291 0.0
C3247 C 0.18797 0.76832 0.86047 0.0
C3248 C 0.21882 0.82298 0.87103 0.0
C3249 C 0.24698 0.82023 0.90144 0.0
N3250 N 0.20091 0.78349 0.86433 0.0
N3251 N 0.23109 0.80742 0.90076 0.0
H3252 H 0.27285 0.20985 0.87954 0.0
H3253 H 0.15899 0.23266 0.88216 0.0
H3254 H 0.22966 0.16265 0.88883 0.0
H3255 H 0.20145 0.27566 0.90489 0.0
H3256 H 0.18435 0.20644 0.88533 0.0
H3257 H 0.24719 0.23447 0.88886 0.0
C3258 C 0.25805 0.20467 0.8837 0.0
C3259 C 0.25329 0.18423 0.88319 0.0
C3260 C 0.18797 0.2215 0.89014 0.0
C3261 C 0.224 0.21216 0.8937 0.0
C3262 C 0.17348 0.23641 0.88842 0.0
C3263 C 0.1782 0.25626 0.89328 0.0
C3264 C 0.20746 0.22666 0.89612 0.0
C3265 C 0.19724 0.26046 0.90112 0.0
C3266 C 0.24349 0.21868 0.88916 0.0
C3267 C 0.23394 0.17829 0.8889 0.0
N3268 N 0.21141 0.24585 0.90181 0.0
N3269 N 0.21991 0.19221 0.89358 0.0
H3270 H 0.76438 0.15002 0.88045 0.0
H3271 H 0.79414 0.26251 0.87682 0.0
H3272 H 0.72747 0.1949 0.90859 0.0
H3273 H 0.83936 0.2164 0.87929 0.0
H3274 H 0.76921 0.23799 0.88814 0.0
H3275 H 0.79251 0.17349 0.8807 0.0
C3276 C 0.76244 0.16458 0.88735 0.0
C3277 C 0.74364 0.17056 0.89453 0.0
C3278 C 0.78466 0.23335 0.88645 0.0
C3279 C 0.77535 0.19774 0.89397 0.0
C3280 C 0.79881 0.24726 0.8798 0.0
C3281 C 0.81877 0.2414 0.87692 0.0
C3282 C 0.79046 0.2134 0.8898 0.0
C3283 C 0.8241 0.22152 0.88123 0.0
C3284 C 0.77843 0.17802 0.88734 0.0
C3285 C 0.74179 0.18968 0.90305 0.0
N3286 N 0.80997 0.20815 0.88715 0.0
N3287 N 0.75731 0.20283 0.90204 0.0
H3288 H 0.72988 0.79539 0.88222 0.0
H3289 H 0.84333 0.77276 0.8815 0.0
H3290 H 0.77248 0.84395 0.8846 0.0
H3291 H 0.80307 0.73461 0.91456 0.0
H3292 H 0.81813 0.7994 0.88232 0.0
H3293 H 0.75639 0.7723 0.89308 0.0
C3294 C 0.74475 0.80119 0.88515 0.0
C3295 C 0.74906 0.82154 0.88238 0.0
C3296 C 0.81505 0.7854 0.8899 0.0
C3297 C 0.7793 0.79536 0.89457 0.0
C3298 C 0.82945 0.77028 0.88955 0.0
C3299 C 0.82525 0.75155 0.89802 0.0
C3300 C 0.79612 0.78144 0.89815 0.0
C3301 C 0.80693 0.74893 0.90801 0.0
C3302 C 0.75979 0.78808 0.8915 0.0
C3303 C 0.76853 0.82834 0.88653 0.0
N3304 N 0.79277 0.76354 0.90732 0.0
N3305 N 0.78303 0.81522 0.89207 0.0
H3306 H 0.80194 0.74097 0.1206 0.0
H3307 H 0.76311 0.8509 0.12339 0.0
H3308 H 0.84306 0.79059 0.12552 0.0
H3309 H 0.73243 0.80605 0.08858 0.0
H3310 H 0.79284 0.8295 0.12419 0.0
H3311 H 0.77581 0.76434 0.10954 0.0
C3312 C 0.80546 0.75675 0.11932 0.0
C3313 C 0.8246 0.76391 0.12417 0.0
C3314 C 0.77981 0.82456 0.11589 0.0
C3315 C 0.79492 0.79059 0.1116 0.0
C3316 C 0.76293 0.83682 0.11532 0.0
C3317 C 0.74545 0.83023 0.10579 0.0
C3318 C 0.7789 0.80532 0.10748 0.0
C3319 C 0.74576 0.81172 0.09586 0.0
C3320 C 0.79064 0.77003 0.11282 0.0
C3321 C 0.82847 0.78446 0.12201 0.0
N3322 N 0.76209 0.79963 0.09739 0.0
N3323 N 0.81368 0.79713 0.11617 0.0
H3324 H 0.19976 0.72628 0.07976 0.0
H3325 H 0.27308 0.78974 0.1161 0.0
H3326 H 0.16085 0.77012 0.1069 0.0
H3327 H 0.23085 0.83751 0.1055 0.0
H3328 H 0.24815 0.76567 0.10397 0.0
H3329 H 0.22679 0.75114 0.07929 0.0
C3330 C 0.19669 0.74135 0.08493 0.0
C3331 C 0.17814 0.74615 0.09359 0.0
C3332 C 0.24455 0.78148 0.10382 0.0
C3333 C 0.20899 0.77428 0.09364 0.0
C3334 C 0.25867 0.79517 0.11099 0.0
C3335 C 0.25397 0.81561 0.11192 0.0
C3336 C 0.22555 0.78832 0.09783 0.0
C3337 C 0.2351 0.82187 0.10506 0.0
C3338 C 0.21222 0.75538 0.08502 0.0
C3339 C 0.175 0.76582 0.10025 0.0
N3340 N 0.22145 0.80824 0.09867 0.0
N3341 N 0.19036 0.77913 0.10033 0.0
H3342 H 0.73236 0.20483 0.14412 0.0
H3343 H 0.80979 0.26297 0.08118 0.0
H3344 H 0.74393 0.17891 0.08604 0.0
H3345 H 0.82584 0.23778 0.1386 0.0
H3346 H 0.78134 0.23947 0.07957 0.0
H3347 H 0.76139 0.22676 0.1396 0.0
C3348 C 0.74072 0.20408 0.13023 0.0
C3349 C 0.73587 0.18999 0.11547 0.0
C3350 C 0.79142 0.23901 0.09226 0.0
C3351 C 0.76881 0.21501 0.11026 0.0
C3352 C 0.80768 0.25226 0.09318 0.0
C3353 C 0.82004 0.25261 0.11022 0.0
C3354 C 0.78747 0.22653 0.10866 0.0
C3355 C 0.81657 0.23836 0.12531 0.0
C3356 C 0.75731 0.21644 0.12776 0.0
C3357 C 0.74733 0.18953 0.09781 0.0
N3358 N 0.80032 0.22626 0.12441 0.0
N3359 N 0.76339 0.20191 0.09564 0.0
H3360 H 0.58429 0.76546 0.69367 0.0
H3361 H 0.61668 0.65474 0.724 0.0
H3362 H 0.6184 0.72701 0.65455 0.0
H3363 H 0.61646 0.70402 0.76582 0.0
H3364 H 0.60592 0.67761 0.69749 0.0
H3365 H 0.58386 0.73877 0.71889 0.0
C3366 C 0.59091 0.7511 0.69004 0.0
C3367 C 0.60148 0.74839 0.67207 0.0
C3368 C 0.60798 0.68331 0.71254 0.0
C3369 C 0.60114 0.71811 0.70076 0.0
C3370 C 0.61412 0.67033 0.72767 0.0
C3371 C 0.61768 0.6776 0.74707 0.0
C3372 C 0.60498 0.70359 0.71694 0.0
C3373 C 0.61413 0.69792 0.75098 0.0
C3374 C 0.5909 0.73604 0.70453 0.0
C3375 C 0.61013 0.72965 0.66825 0.0
N3376 N 0.60798 0.71027 0.736 0.0
N3377 N 0.60994 0.71523 0.68259 0.0
H3378 H 0.2901 0.61727 0.77702 0.0
H3379 H 0.2703 0.5986 0.66419 0.0
H3380 H 0.33782 0.60025 0.73685 0.0
H3381 H 0.22456 0.5867 0.70814 0.0
H3382 H 0.29564 0.59683 0.69052 0.0
H3383 H 0.26572 0.60486 0.7525 0.0
C3384 C 0.29544 0.61077 0.76315 0.0
C3385 C 0.31599 0.61007 0.75884 0.0
C3386 C 0.28014 0.59399 0.69436 0.0
C3387 C 0.2883 0.59594 0.73082 0.0
C3388 C 0.26572 0.59484 0.6793 0.0
C3389 C 0.2454 0.59276 0.68406 0.0
C3390 C 0.27406 0.59173 0.71437 0.0
C3391 C 0.24014 0.58822 0.70389 0.0
C3392 C 0.28156 0.60354 0.74925 0.0
C3393 C 0.32212 0.60128 0.74074 0.0
N3394 N 0.25435 0.58843 0.71847 0.0
N3395 N 0.30833 0.59488 0.72726 0.0
H3396 H 0.36008 0.26151 0.65185 0.0
H3397 H 0.40895 0.32852 0.73616 0.0
H3398 H 0.41419 0.24017 0.68011 0.0
H3399 H 0.34647 0.31215 0.7352 0.0
H3400 H 0.41523 0.30435 0.70887 0.0
H3401 H 0.36001 0.29019 0.67442 0.0
C3402 C 0.37231 0.26315 0.6624 0.0
C3403 C 0.38691 0.24814 0.66444 0.0
C3404 C 0.40021 0.30618 0.71471 0.0
C3405 C 0.38683 0.28098 0.69017 0.0
C3406 C 0.3966 0.31985 0.73019 0.0
C3407 C 0.37718 0.32214 0.73793 0.0
C3408 C 0.38412 0.29543 0.7066 0.0
C3409 C 0.36167 0.31065 0.72977 0.0
C3410 C 0.37215 0.27945 0.67532 0.0
C3411 C 0.40255 0.25128 0.67817 0.0
N3412 N 0.36544 0.29794 0.71437 0.0
N3413 N 0.40194 0.26728 0.69085 0.0
H3414 H 0.73184 0.36603 0.65904 0.0
H3415 H 0.67321 0.41459 0.74666 0.0
H3416 H 0.76201 0.41671 0.68559 0.0
H3417 H 0.69653 0.35447 0.75086 0.0
H3418 H 0.69583 0.42085 0.71807 0.0
H3419 H 0.70657 0.36776 0.68535 0.0
C3420 C 0.73281 0.37796 0.67 0.0
C3421 C 0.74933 0.39097 0.67039 0.0
C3422 C 0.696 0.40643 0.72548 0.0
C3423 C 0.72037 0.393 0.70029 0.0
C3424 C 0.68322 0.40282 0.74169 0.0
C3425 C 0.68312 0.384 0.7511 0.0
C3426 C 0.70811 0.39086 0.71841 0.0
C3427 C 0.69627 0.36922 0.74414 0.0
C3428 C 0.71845 0.37881 0.68502 0.0
C3429 C 0.74961 0.40629 0.68484 0.0
N3430 N 0.70801 0.37286 0.72796 0.0
N3431 N 0.73547 0.40669 0.69956 0.0
H3432 H 0.6433 0.25903 0.34312 0.0
H3433 H 0.5918 0.32694 0.2614 0.0
H3434 H 0.5859 0.24027 0.3199 0.0
H3435 H 0.65339 0.30779 0.2578 0.0
H3436 H 0.58643 0.30299 0.28904 0.0
H3437 H 0.6436 0.28656 0.31921 0.0
C3438 C 0.63048 0.26097 0.33337 0.0
C3439 C 0.61474 0.247 0.33322 0.0
C3440 C 0.60105 0.30411 0.28209 0.0
C3441 C 0.61509 0.27861 0.30593 0.0
C3442 C 0.60413 0.31767 0.26641 0.0
C3443 C 0.62305 0.31919 0.25731 0.0
C3444 C 0.61719 0.29265 0.28904 0.0
C3445 C 0.63856 0.30693 0.26429 0.0
C3446 C 0.63078 0.27662 0.31966 0.0
C3447 C 0.59842 0.25057 0.3204 0.0
N3448 N 0.63535 0.29435 0.27992 0.0
N3449 N 0.59911 0.26595 0.307 0.0
H3450 H 0.74206 0.6433 0.32736 0.0
H3451 H 0.68097 0.58718 0.24496 0.0
H3452 H 0.765 0.58572 0.30868 0.0
H3453 H 0.70067 0.64828 0.23767 0.0
H3454 H 0.70466 0.58337 0.27303 0.0
H3455 H 0.7177 0.64198 0.30031 0.0
C3456 C 0.74175 0.63015 0.31786 0.0
C3457 C 0.75594 0.61477 0.32006 0.0
C3458 C 0.70385 0.59747 0.26505 0.0
C3459 C 0.7279 0.61326 0.28918 0.0
C3460 C 0.69045 0.59967 0.24911 0.0
C3461 C 0.68896 0.61807 0.23902 0.0
C3462 C 0.71519 0.614 0.27121 0.0
C3463 C 0.70146 0.63382 0.24495 0.0
C3464 C 0.72791 0.62953 0.30236 0.0
C3465 C 0.75448 0.59799 0.3074 0.0
N3466 N 0.71382 0.63153 0.26091 0.0
N3467 N 0.74075 0.59772 0.29229 0.0
H3468 H 0.4141 0.77115 0.30016 0.0
H3469 H 0.37687 0.70673 0.22836 0.0
H3470 H 0.38371 0.73031 0.33991 0.0
H3471 H 0.38358 0.66017 0.27267 0.0
H3472 H 0.38954 0.73108 0.25273 0.0
H3473 H 0.41427 0.74515 0.27424 0.0
C3474 C 0.40816 0.75647 0.30369 0.0
C3475 C 0.39866 0.75288 0.32209 0.0
C3476 C 0.38872 0.71545 0.25693 0.0
C3477 C 0.39826 0.72349 0.29246 0.0
C3478 C 0.38122 0.70161 0.24312 0.0
C3479 C 0.37904 0.68146 0.24856 0.0
C3480 C 0.39378 0.70905 0.27634 0.0
C3481 C 0.38498 0.67558 0.26786 0.0
C3482 C 0.40791 0.74181 0.28876 0.0
C3483 C 0.39102 0.73368 0.32583 0.0
N3484 N 0.39172 0.68938 0.28117 0.0
N3485 N 0.39078 0.71974 0.31104 0.0
H3486 H 0.2503 0.34982 0.34108 0.0
H3487 H 0.32659 0.40401 0.26837 0.0
H3488 H 0.23841 0.41074 0.32285 0.0
H3489 H 0.30693 0.34296 0.26052 0.0
H3490 H 0.30093 0.40843 0.29457 0.0
H3491 H 0.27928 0.3492 0.31898 0.0
C3492 C 0.254 0.36326 0.33277 0.0
C3493 C 0.24161 0.38025 0.33351 0.0
C3494 C 0.30232 0.39414 0.28703 0.0
C3495 C 0.27487 0.37951 0.30822 0.0
C3496 C 0.31687 0.39158 0.27216 0.0
C3497 C 0.31875 0.37311 0.26228 0.0
C3498 C 0.29015 0.3779 0.29236 0.0
C3499 C 0.30585 0.35748 0.26767 0.0
C3500 C 0.27048 0.3628 0.32008 0.0
C3501 C 0.24744 0.39729 0.3226 0.0
N3502 N 0.29224 0.36016 0.28251 0.0
N3503 N 0.26361 0.39643 0.31015 0.0
H3504 H 0.66866 0.63648 0.73889 0.0
H3505 H 0.7551 0.58322 0.68135 0.0
H3506 H 0.68874 0.58039 0.76413 0.0
H3507 H 0.76042 0.64395 0.70275 0.0
H3508 H 0.72605 0.57837 0.70367 0.0
H3509 H 0.69647 0.63541 0.71532 0.0
C3510 C 0.6786 0.62365 0.73918 0.0
C3511 C 0.67662 0.6087 0.75384 0.0
C3512 C 0.73383 0.59261 0.70355 0.0
C3513 C 0.70832 0.60747 0.72675 0.0
C3514 C 0.75032 0.5954 0.69093 0.0
C3515 C 0.76014 0.614 0.69032 0.0
C3516 C 0.72686 0.60876 0.71495 0.0
C3517 C 0.75338 0.62935 0.70291 0.0
C3518 C 0.69451 0.62318 0.7258 0.0
C3519 C 0.68982 0.5923 0.75319 0.0
N3520 N 0.7369 0.6265 0.71445 0.0
N3521 N 0.70537 0.5922 0.73996 0.0
H3522 H 0.3577 0.66338 0.74382 0.0
H3523 H 0.41103 0.74779 0.68179 0.0
H3524 H 0.4147 0.6848 0.76575 0.0
H3525 H 0.34916 0.75168 0.69999 0.0
H3526 H 0.41573 0.71974 0.70536 0.0
H3527 H 0.35796 0.68965 0.71856 0.0
C3528 C 0.37053 0.67329 0.74308 0.0
C3529 C 0.38603 0.67212 0.75727 0.0
C3530 C 0.40123 0.72693 0.70421 0.0
C3531 C 0.38631 0.70213 0.72821 0.0
C3532 C 0.39853 0.74286 0.69088 0.0
C3533 C 0.37969 0.75206 0.68907 0.0
C3534 C 0.3848 0.71984 0.71515 0.0
C3535 C 0.36395 0.74512 0.70107 0.0
C3536 C 0.37054 0.68835 0.72873 0.0
C3537 C 0.40237 0.68526 0.75524 0.0
N3538 N 0.36678 0.72921 0.71338 0.0
N3539 N 0.40202 0.69994 0.74106 0.0
H3540 H 0.34621 0.39126 0.72655 0.0
H3541 H 0.2328 0.38531 0.70384 0.0
H3542 H 0.30304 0.41636 0.76748 0.0
H3543 H 0.27582 0.39101 0.65594 0.0
H3544 H 0.25822 0.39739 0.72744 0.0
H3545 H 0.32129 0.39296 0.69978 0.0
C3546 C 0.33172 0.39787 0.72968 0.0
C3547 C 0.32662 0.40363 0.7492 0.0
C3548 C 0.26195 0.3963 0.7117 0.0
C3549 C 0.29781 0.40469 0.71903 0.0
C3550 C 0.24753 0.38923 0.69829 0.0
C3551 C 0.2523 0.38692 0.67798 0.0
C3552 C 0.28135 0.40066 0.70477 0.0
C3553 C 0.27154 0.39244 0.67151 0.0
C3554 C 0.31745 0.39869 0.71446 0.0
C3555 C 0.30757 0.41186 0.75257 0.0
N3556 N 0.28547 0.39871 0.68492 0.0
N3557 N 0.29361 0.41159 0.73776 0.0
H3558 H 0.64837 0.24588 0.69801 0.0
H3559 H 0.58051 0.3147 0.76139 0.0
H3560 H 0.58709 0.25028 0.67796 0.0
H3561 H 0.63637 0.33633 0.7369 0.0
H3562 H 0.58045 0.28794 0.73601 0.0
H3563 H 0.6429 0.2749 0.71972 0.0
C3564 C 0.63367 0.25273 0.69845 0.0
C3565 C 0.61816 0.24575 0.6862 0.0
C3566 C 0.59242 0.29889 0.73606 0.0
C3567 C 0.61186 0.27877 0.71094 0.0
C3568 C 0.59242 0.31423 0.75039 0.0
C3569 C 0.60868 0.32756 0.75156 0.0
C3570 C 0.60895 0.29681 0.72327 0.0
C3571 C 0.62371 0.32619 0.73688 0.0
C3572 C 0.63064 0.26937 0.71064 0.0
C3573 C 0.59943 0.25534 0.68718 0.0
N3574 N 0.62376 0.31075 0.72371 0.0
N3575 N 0.59671 0.27138 0.69949 0.0
H3576 H 0.76942 0.37911 0.28873 0.0
H3577 H 0.6555 0.38759 0.26886 0.0
H3578 H 0.7278 0.38605 0.3377 0.0
H3579 H 0.6981 0.41224 0.22707 0.0
H3580 H 0.6812 0.38833 0.29493 0.0
H3581 H 0.74354 0.3914 0.26569 0.0
C3582 C 0.7549 0.38331 0.29462 0.0
C3583 C 0.75065 0.38135 0.31508 0.0
C3584 C 0.68477 0.39416 0.28022 0.0
C3585 C 0.72113 0.39533 0.28896 0.0
C3586 C 0.67005 0.39389 0.26541 0.0
C3587 C 0.67474 0.39981 0.24583 0.0
C3588 C 0.7044 0.39977 0.27517 0.0
C3589 C 0.69388 0.40763 0.24203 0.0
C3590 C 0.74023 0.3905 0.28154 0.0
C3591 C 0.73167 0.38722 0.322 0.0
N3592 N 0.70824 0.40682 0.25643 0.0
N3593 N 0.7175 0.39363 0.30893 0.0
H3594 H 0.63023 0.64619 0.26136 0.0
H3595 H 0.61952 0.75561 0.30125 0.0
H3596 H 0.59119 0.68829 0.23185 0.0
H3597 H 0.62844 0.70619 0.3419 0.0
H3598 H 0.6105 0.73163 0.27486 0.0
H3599 H 0.63053 0.66779 0.29099 0.0
C3600 C 0.62125 0.65971 0.26138 0.0
C3601 C 0.61059 0.66546 0.24424 0.0
C3602 C 0.61422 0.72611 0.28964 0.0
C3603 C 0.61157 0.69059 0.27761 0.0
C3604 C 0.61954 0.73974 0.30461 0.0
C3605 C 0.62487 0.73284 0.32372 0.0
C3606 C 0.6147 0.70547 0.29372 0.0
C3607 C 0.62446 0.71214 0.32736 0.0
C3608 C 0.62151 0.67207 0.27821 0.0
C3609 C 0.59941 0.68324 0.24488 0.0
N3610 N 0.61975 0.69916 0.31243 0.0
N3611 N 0.60057 0.69546 0.26114 0.0
H3612 H 0.23288 0.6469 0.29756 0.0
H3613 H 0.30627 0.58192 0.23579 0.0
H3614 H 0.24367 0.58786 0.32155 0.0
H3615 H 0.32379 0.63982 0.25884 0.0
H3616 H 0.27904 0.58097 0.26071 0.0
H3617 H 0.26087 0.64211 0.2744 0.0
C3618 C 0.24084 0.63277 0.29765 0.0
C3619 C 0.23608 0.61779 0.31152 0.0
C3620 C 0.28917 0.59363 0.26038 0.0
C3621 C 0.26787 0.61228 0.28512 0.0
C3622 C 0.30474 0.59417 0.24631 0.0
C3623 C 0.31712 0.61115 0.24496 0.0
C3624 C 0.2859 0.61034 0.27267 0.0
C3625 C 0.31443 0.62658 0.25902 0.0
C3626 C 0.25686 0.63014 0.28459 0.0
C3627 C 0.24703 0.5998 0.31112 0.0
N3628 N 0.29882 0.62602 0.27194 0.0
N3629 N 0.26251 0.59748 0.29805 0.0
H3630 H 0.39018 0.34657 0.27505 0.0
H3631 H 0.38034 0.23323 0.29768 0.0
H3632 H 0.4147 0.30237 0.23492 0.0
H3633 H 0.3835 0.27675 0.34536 0.0
H3634 H 0.39433 0.25816 0.27465 0.0
H3635 H 0.39038 0.32179 0.30196 0.0
C3636 C 0.3964 0.33186 0.27217 0.0
C3637 C 0.40239 0.32644 0.25281 0.0
C3638 C 0.39224 0.26212 0.29023 0.0
C3639 C 0.40167 0.29778 0.28309 0.0
C3640 C 0.38407 0.24798 0.30331 0.0
C3641 C 0.38048 0.25304 0.32336 0.0
C3642 C 0.39647 0.28153 0.29722 0.0
C3643 C 0.38585 0.27227 0.32996 0.0
C3644 C 0.39634 0.31765 0.28745 0.0
C3645 C 0.41006 0.30713 0.24971 0.0
N3646 N 0.39326 0.28592 0.31686 0.0
N3647 N 0.4089 0.29326 0.26456 0.0
H3648 H 0.74349 0.65813 0.64539 0.0
H3649 H 0.67544 0.73756 0.59115 0.0
H3650 H 0.76248 0.67913 0.58721 0.0
H3651 H 0.69439 0.74371 0.65259 0.0
H3652 H 0.7001 0.71038 0.58673 0.0
H3653 H 0.71647 0.68258 0.64503 0.0
C3654 C 0.74175 0.66755 0.6323 0.0
C3655 C 0.7556 0.66683 0.61647 0.0
C3656 C 0.69882 0.71783 0.60108 0.0
C3657 C 0.72451 0.69477 0.61607 0.0
C3658 C 0.68485 0.73325 0.60364 0.0
C3659 C 0.683 0.74289 0.62225 0.0
C3660 C 0.71038 0.71167 0.61747 0.0
C3661 C 0.69547 0.73679 0.63797 0.0
C3662 C 0.72638 0.68157 0.63222 0.0
C3663 C 0.75227 0.67928 0.59981 0.0
N3664 N 0.70844 0.72137 0.6353 0.0
N3665 N 0.73711 0.69296 0.60011 0.0
H3666 H 0.68281 0.24472 0.41283 0.0
H3667 H 0.74126 0.32909 0.35743 0.0
H3668 H 0.70267 0.23832 0.35168 0.0
H3669 H 0.76662 0.30964 0.41369 0.0
H3670 H 0.71741 0.30159 0.35907 0.0
H3671 H 0.70608 0.27313 0.41693 0.0
C3672 C 0.69226 0.24911 0.4004 0.0
C3673 C 0.69091 0.2392 0.38189 0.0
C3674 C 0.72802 0.30358 0.37119 0.0
C3675 C 0.71664 0.27175 0.3863 0.0
C3676 C 0.74156 0.31933 0.37039 0.0
C3677 C 0.7563 0.32143 0.38525 0.0
C3678 C 0.72887 0.29004 0.38712 0.0
C3679 C 0.75564 0.30845 0.40183 0.0
C3680 C 0.70542 0.26524 0.40277 0.0
C3681 C 0.70336 0.24545 0.36622 0.0
N3682 N 0.74221 0.29307 0.40225 0.0
N3683 N 0.71545 0.26159 0.36867 0.0
H3684 H 0.77057 0.70906 0.38005 0.0
H3685 H 0.65699 0.72595 0.39516 0.0
H3686 H 0.73056 0.65944 0.3909 0.0
H3687 H 0.69978 0.77054 0.41382 0.0
H3688 H 0.68343 0.70068 0.39605 0.0
H3689 H 0.74518 0.73185 0.39366 0.0
C3690 C 0.75653 0.70296 0.38542 0.0
C3691 C 0.75254 0.6824 0.38407 0.0
C3692 C 0.68694 0.71586 0.40057 0.0
C3693 C 0.72355 0.70825 0.39958 0.0
C3694 C 0.67181 0.73022 0.40021 0.0
C3695 C 0.67628 0.7503 0.40436 0.0
C3696 C 0.70674 0.72181 0.40445 0.0
C3697 C 0.69575 0.75517 0.4106 0.0
C3698 C 0.74214 0.71592 0.39336 0.0
C3699 C 0.73421 0.67523 0.39148 0.0
N3700 N 0.71046 0.74112 0.40987 0.0
N3701 N 0.72025 0.68817 0.3986 0.0
H3702 H 0.30389 0.74678 0.34476 0.0
H3703 H 0.2412 0.67935 0.41573 0.0
H3704 H 0.32854 0.73602 0.4035 0.0
H3705 H 0.25441 0.6615 0.35495 0.0
H3706 H 0.26927 0.70326 0.41413 0.0
H3707 H 0.27976 0.71979 0.3504 0.0
C3708 C 0.30405 0.73889 0.35893 0.0
C3709 C 0.31823 0.74351 0.37366 0.0
C3710 C 0.26613 0.69375 0.40138 0.0
C3711 C 0.29069 0.71285 0.3802 0.0
C3712 C 0.25026 0.68004 0.40229 0.0
C3713 C 0.2452 0.66866 0.38532 0.0
C3714 C 0.27656 0.69621 0.3833 0.0
C3715 C 0.25746 0.67022 0.36828 0.0
C3716 C 0.29044 0.72342 0.36206 0.0
C3717 C 0.31788 0.73274 0.39174 0.0
N3718 N 0.27223 0.68409 0.36754 0.0
N3719 N 0.30417 0.71792 0.39462 0.0
H3720 H 0.22859 0.29255 0.35168 0.0
H3721 H 0.30267 0.23287 0.41888 0.0
H3722 H 0.23564 0.3151 0.41183 0.0
H3723 H 0.32091 0.25817 0.36217 0.0
H3724 H 0.27359 0.25569 0.41894 0.0
H3725 H 0.25705 0.27011 0.35724 0.0
C3726 C 0.2358 0.29243 0.36621 0.0
C3727 C 0.22989 0.30575 0.38128 0.0
C3728 C 0.28424 0.25628 0.40672 0.0
C3729 C 0.26221 0.28016 0.38768 0.0
C3730 C 0.30086 0.24344 0.40672 0.0
C3731 C 0.31412 0.24336 0.39035 0.0
C3732 C 0.2808 0.26861 0.39007 0.0
C3733 C 0.31098 0.25739 0.37496 0.0
C3734 C 0.25209 0.27978 0.36929 0.0
C3735 C 0.2399 0.3051 0.3998 0.0
N3736 N 0.29443 0.26909 0.37498 0.0
N3737 N 0.25569 0.29249 0.40253 0.0
H3738 H 0.29692 0.24209 0.64754 0.0
H3739 H 0.2329 0.31084 0.58098 0.0
H3740 H 0.31778 0.24636 0.58651 0.0
H3741 H 0.26185 0.334 0.63402 0.0
H3742 H 0.25724 0.28309 0.58058 0.0
H3743 H 0.27489 0.27077 0.64155 0.0
C3744 C 0.29655 0.24878 0.63277 0.0
C3745 C 0.30921 0.24195 0.61751 0.0
C3746 C 0.25836 0.29458 0.59198 0.0
C3747 C 0.28407 0.27452 0.61063 0.0
C3748 C 0.24463 0.31046 0.59217 0.0
C3749 C 0.24507 0.32458 0.60779 0.0
C3750 C 0.27216 0.29279 0.6077 0.0
C3751 C 0.26063 0.32329 0.6219 0.0
C3752 C 0.28415 0.2652 0.62944 0.0
C3753 C 0.30828 0.25133 0.59867 0.0
N3754 N 0.27319 0.30737 0.62183 0.0
N3755 N 0.29583 0.2672 0.59569 0.0
H3756 H 0.74323 0.3215 0.58679 0.0
H3757 H 0.65345 0.26169 0.63341 0.0
H3758 H 0.74174 0.30283 0.6486 0.0
H3759 H 0.68213 0.23509 0.5819 0.0
H3760 H 0.67843 0.28833 0.6331 0.0
H3761 H 0.71463 0.29909 0.5798 0.0
C3762 C 0.73693 0.31261 0.59881 0.0
C3763 C 0.74483 0.31381 0.61827 0.0
C3764 C 0.67886 0.27693 0.62155 0.0
C3765 C 0.71204 0.2892 0.61057 0.0
C3766 C 0.66457 0.2618 0.62159 0.0
C3767 C 0.66602 0.24585 0.60796 0.0
C3768 C 0.69445 0.27633 0.60758 0.0
C3769 C 0.6806 0.24699 0.59281 0.0
C3770 C 0.72071 0.29997 0.59481 0.0
C3771 C 0.7362 0.30213 0.63337 0.0
N3772 N 0.6946 0.26183 0.59323 0.0
N3773 N 0.72006 0.2905 0.62926 0.0
H3774 H 0.29376 0.65076 0.63338 0.0
H3775 H 0.31133 0.76057 0.58956 0.0
H3776 H 0.2458 0.69231 0.62111 0.0
H3777 H 0.35297 0.7313 0.6293 0.0
H3778 H 0.29005 0.73063 0.59048 0.0
H3779 H 0.31795 0.67592 0.62211 0.0
C3780 C 0.28831 0.66512 0.62815 0.0
C3781 C 0.26779 0.66962 0.62844 0.0
C3782 C 0.30413 0.73062 0.59853 0.0
C3783 C 0.2953 0.69814 0.61516 0.0
C3784 C 0.3164 0.74754 0.59779 0.0
C3785 C 0.33383 0.74836 0.60948 0.0
C3786 C 0.3096 0.71441 0.61073 0.0
C3787 C 0.33957 0.73122 0.62016 0.0
C3788 C 0.30211 0.6794 0.62171 0.0
C3789 C 0.26153 0.6884 0.62143 0.0
N3790 N 0.32736 0.71498 0.6207 0.0
N3791 N 0.27527 0.70203 0.61508 0.0
loop_
_geom_bond_atom_site_label_1
_geom_bond_atom_site_label_2
_geom_bond_distance
_geom_bond_site_symmetry_2
_ccdc_geom_bond_type
Co0 O3 1.970 . S
Co0 N17 1.989 . S
Co0 O25 1.967 . S
Co0 O32 1.920 . S
Co1 O4 1.966 . S
Co1 N10 2.022 . S
Co1 N18 1.993 . S
Co1 O26 1.941 . S
C2 O3 1.258 . S
C2 O4 1.263 . S
O3 Co0 1.970 . S
O3 C2 1.258 . S
O4 Co1 1.966 . S
O4 C2 1.263 . S
C5 O6 1.235 . S
C5 O32 1.289 . S
O6 C5 1.235 . S
C7 C9 1.400 . S
C7 N10 1.351 . S
C7 C12 1.501 . S
C8 C9 1.387 . S
C8 N11 1.341 . S
C9 C7 1.400 . S
C9 C8 1.387 . S
N10 Co1 2.022 . S
N10 C7 1.351 . S
N10 N11 1.365 . S
N11 C8 1.341 . S
N11 N10 1.365 . S
N11 H31 0.862 . S
C12 C7 1.501 . S
C12 H13 0.961 . S
C12 H14 0.961 . S
C12 H15 0.960 . S
H13 C12 0.961 . S
H14 C12 0.961 . S
H15 C12 0.960 . S
C16 N17 1.342 . S
C16 C20 1.401 . S
C16 C21 1.499 . S
N17 Co0 1.989 . S
N17 C16 1.342 . S
N17 N18 1.388 . S
N18 Co1 1.993 . S
N18 N17 1.388 . S
N18 C19 1.346 . S
C19 N18 1.346 . S
C19 C20 1.396 . S
C19 C29 1.510 . S
C20 C16 1.401 . S
C20 C19 1.396 . S
C21 C16 1.499 . S
C21 H22 0.959 . S
C21 H23 0.960 . S
C21 H24 0.961 . S
H22 C21 0.959 . S
H23 C21 0.960 . S
H24 C21 0.961 . S
O25 Co0 1.967 . S
O25 C33 1.258 . S
O26 Co1 1.941 . S
O26 C33 1.266 . S
H27 C29 0.959 . S
H28 C29 0.961 . S
C29 C19 1.510 . S
C29 H27 0.959 . S
C29 H28 0.961 . S
C29 H30 0.960 . S
H30 C29 0.960 . S
H31 N11 0.862 . S
O32 Co0 1.920 . S
O32 C5 1.289 . S
C33 O25 1.258 . S
C33 O26 1.266 . S
Co34 O37 1.970 . S
Co34 N51 1.989 . S
Co34 O59 1.967 . S
Co34 O66 1.920 . S
Co35 O38 1.966 . S
Co35 N44 2.022 . S
Co35 N52 1.993 . S
Co35 O60 1.941 . S
C36 O37 1.258 . S
C36 O38 1.263 . S
O37 Co34 1.970 . S
O37 C36 1.258 . S
O38 Co35 1.966 . S
O38 C36 1.263 . S
C39 O40 1.235 . S
C39 O66 1.289 . S
O40 C39 1.235 . S
C41 C43 1.400 . S
C41 N44 1.351 . S
C41 C46 1.501 . S
C42 C43 1.387 . S
C42 N45 1.341 . S
C43 C41 1.400 . S
C43 C42 1.387 . S
N44 Co35 2.022 . S
N44 C41 1.351 . S
N44 N45 1.365 . S
N45 C42 1.341 . S
N45 N44 1.365 . S
N45 H65 0.862 . S
C46 C41 1.501 . S
C46 H47 0.961 . S
C46 H48 0.961 . S
C46 H49 0.960 . S
H47 C46 0.961 . S
H48 C46 0.961 . S
H49 C46 0.960 . S
C50 N51 1.342 . S
C50 C54 1.401 . S
C50 C55 1.499 . S
N51 Co34 1.989 . S
N51 C50 1.342 . S
N51 N52 1.388 . S
N52 Co35 1.993 . S
N52 N51 1.388 . S
N52 C53 1.346 . S
C53 N52 1.346 . S
C53 C54 1.396 . S
C53 C63 1.510 . S
C54 C50 1.401 . S
C54 C53 1.396 . S
C55 C50 1.499 . S
C55 H56 0.959 . S
C55 H57 0.960 . S
C55 H58 0.961 . S
H56 C55 0.959 . S
H57 C55 0.960 . S
H58 C55 0.961 . S
O59 Co34 1.967 . S
O59 C67 1.258 . S
O60 Co35 1.941 . S
O60 C67 1.266 . S
H61 C63 0.959 . S
H62 C63 0.961 . S
C63 C53 1.510 . S
C63 H61 0.959 . S
C63 H62 0.961 . S
C63 H64 0.960 . S
H64 C63 0.960 . S
H65 N45 0.862 . S
O66 Co34 1.920 . S
O66 C39 1.289 . S
C67 O59 1.258 . S
C67 O60 1.266 . S
Co68 O71 1.970 . S
Co68 N85 1.989 . S
Co68 O93 1.967 . S
Co68 O100 1.920 . S
Co69 O72 1.966 . S
Co69 N78 2.022 . S
Co69 N86 1.993 . S
Co69 O94 1.941 . S
C70 O71 1.258 . S
C70 O72 1.263 . S
O71 Co68 1.970 . S
O71 C70 1.258 . S
O72 Co69 1.966 . S
O72 C70 1.263 . S
C73 O74 1.235 . S
C73 O100 1.289 . S
O74 C73 1.235 . S
C75 C77 1.400 . S
C75 N78 1.351 . S
C75 C80 1.501 . S
C76 C77 1.387 . S
C76 N79 1.341 . S
C77 C75 1.400 . S
C77 C76 1.387 . S
N78 Co69 2.022 . S
N78 C75 1.351 . S
N78 N79 1.365 . S
N79 C76 1.341 . S
N79 N78 1.365 . S
N79 H99 0.862 . S
C80 C75 1.501 . S
C80 H81 0.961 . S
C80 H82 0.961 . S
C80 H83 0.960 . S
H81 C80 0.961 . S
H82 C80 0.961 . S
H83 C80 0.960 . S
C84 N85 1.342 . S
C84 C88 1.401 . S
C84 C89 1.499 . S
N85 Co68 1.989 . S
N85 C84 1.342 . S
N85 N86 1.388 . S
N86 Co69 1.993 . S
N86 N85 1.388 . S
N86 C87 1.346 . S
C87 N86 1.346 . S
C87 C88 1.396 . S
C87 C97 1.510 . S
C88 C84 1.401 . S
C88 C87 1.396 . S
C89 C84 1.499 . S
C89 H90 0.959 . S
C89 H91 0.960 . S
C89 H92 0.961 . S
H90 C89 0.959 . S
H91 C89 0.960 . S
H92 C89 0.961 . S
O93 Co68 1.967 . S
O93 C101 1.258 . S
O94 Co69 1.941 . S
O94 C101 1.266 . S
H95 C97 0.959 . S
H96 C97 0.961 . S
C97 C87 1.510 . S
C97 H95 0.959 . S
C97 H96 0.961 . S
C97 H98 0.960 . S
H98 C97 0.960 . S
H99 N79 0.862 . S
O100 Co68 1.920 . S
O100 C73 1.289 . S
C101 O93 1.258 . S
C101 O94 1.266 . S
Co102 O105 1.970 . S
Co102 N119 1.989 . S
Co102 O127 1.967 . S
Co102 O134 1.920 . S
Co103 O106 1.966 . S
Co103 N112 2.022 . S
Co103 N120 1.993 . S
Co103 O128 1.941 . S
C104 O105 1.258 . S
C104 O106 1.263 . S
O105 Co102 1.970 . S
O105 C104 1.258 . S
O106 Co103 1.966 . S
O106 C104 1.263 . S
C107 O108 1.235 . S
C107 O134 1.289 . S
O108 C107 1.235 . S
C109 C111 1.400 . S
C109 N112 1.351 . S
C109 C114 1.501 . S
C110 C111 1.387 . S
C110 N113 1.341 . S
C111 C109 1.400 . S
C111 C110 1.387 . S
N112 Co103 2.022 . S
N112 C109 1.351 . S
N112 N113 1.365 . S
N113 C110 1.341 . S
N113 N112 1.365 . S
N113 H133 0.862 . S
C114 C109 1.501 . S
C114 H115 0.961 . S
C114 H116 0.961 . S
C114 H117 0.960 . S
H115 C114 0.961 . S
H116 C114 0.961 . S
H117 C114 0.960 . S
C118 N119 1.342 . S
C118 C122 1.401 . S
C118 C123 1.499 . S
N119 Co102 1.989 . S
N119 C118 1.342 . S
N119 N120 1.388 . S
N120 Co103 1.993 . S
N120 N119 1.388 . S
N120 C121 1.346 . S
C121 N120 1.346 . S
C121 C122 1.396 . S
C121 C131 1.510 . S
C122 C118 1.401 . S
C122 C121 1.396 . S
C123 C118 1.499 . S
C123 H124 0.959 . S
C123 H125 0.960 . S
C123 H126 0.961 . S
H124 C123 0.959 . S
H125 C123 0.960 . S
H126 C123 0.961 . S
O127 Co102 1.967 . S
O127 C135 1.258 . S
O128 Co103 1.941 . S
O128 C135 1.266 . S
H129 C131 0.959 . S
H130 C131 0.961 . S
C131 C121 1.510 . S
C131 H129 0.959 . S
C131 H130 0.961 . S
C131 H132 0.960 . S
H132 C131 0.960 . S
H133 N113 0.862 . S
O134 Co102 1.920 . S
O134 C107 1.289 . S
C135 O127 1.258 . S
C135 O128 1.266 . S
Co136 O139 1.970 . S
Co136 N153 1.989 . S
Co136 O161 1.967 . S
Co136 O168 1.920 . S
Co137 O140 1.966 . S
Co137 N146 2.022 . S
Co137 N154 1.993 . S
Co137 O162 1.941 . S
C138 O139 1.258 . S
C138 O140 1.263 . S
O139 Co136 1.970 . S
O139 C138 1.258 . S
O140 Co137 1.966 . S
O140 C138 1.263 . S
C141 O142 1.235 . S
C141 O168 1.289 . S
O142 C141 1.235 . S
C143 C145 1.400 . S
C143 N146 1.351 . S
C143 C148 1.501 . S
C144 C145 1.387 . S
C144 N147 1.341 . S
C145 C143 1.400 . S
C145 C144 1.387 . S
N146 Co137 2.022 . S
N146 C143 1.351 . S
N146 N147 1.365 . S
N147 C144 1.341 . S
N147 N146 1.365 . S
N147 H167 0.862 . S
C148 C143 1.501 . S
C148 H149 0.961 . S
C148 H150 0.961 . S
C148 H151 0.960 . S
H149 C148 0.961 . S
H150 C148 0.961 . S
H151 C148 0.960 . S
C152 N153 1.342 . S
C152 C156 1.401 . S
C152 C157 1.499 . S
N153 Co136 1.989 . S
N153 C152 1.342 . S
N153 N154 1.388 . S
N154 Co137 1.993 . S
N154 N153 1.388 . S
N154 C155 1.346 . S
C155 N154 1.346 . S
C155 C156 1.396 . S
C155 C165 1.510 . S
C156 C152 1.401 . S
C156 C155 1.396 . S
C157 C152 1.499 . S
C157 H158 0.959 . S
C157 H159 0.960 . S
C157 H160 0.961 . S
H158 C157 0.959 . S
H159 C157 0.960 . S
H160 C157 0.961 . S
O161 Co136 1.967 . S
O161 C169 1.258 . S
O162 Co137 1.941 . S
O162 C169 1.266 . S
H163 C165 0.959 . S
H164 C165 0.961 . S
C165 C155 1.510 . S
C165 H163 0.959 . S
C165 H164 0.961 . S
C165 H166 0.960 . S
H166 C165 0.960 . S
H167 N147 0.862 . S
O168 Co136 1.920 . S
O168 C141 1.289 . S
C169 O161 1.258 . S
C169 O162 1.266 . S
Co170 O173 1.970 . S
Co170 N187 1.989 . S
Co170 O195 1.967 . S
Co170 O202 1.920 . S
Co171 O174 1.966 . S
Co171 N180 2.022 . S
Co171 N188 1.993 . S
Co171 O196 1.941 . S
C172 O173 1.258 . S
C172 O174 1.263 . S
O173 Co170 1.970 . S
O173 C172 1.258 . S
O174 Co171 1.966 . S
O174 C172 1.263 . S
C175 O176 1.235 . S
C175 O202 1.289 . S
O176 C175 1.235 . S
C177 C179 1.400 . S
C177 N180 1.351 . S
C177 C182 1.501 . S
C178 C179 1.387 . S
C178 N181 1.341 . S
C179 C177 1.400 . S
C179 C178 1.387 . S
N180 Co171 2.022 . S
N180 C177 1.351 . S
N180 N181 1.365 . S
N181 C178 1.341 . S
N181 N180 1.365 . S
N181 H201 0.862 . S
C182 C177 1.501 . S
C182 H183 0.961 . S
C182 H184 0.961 . S
C182 H185 0.960 . S
H183 C182 0.961 . S
H184 C182 0.961 . S
H185 C182 0.960 . S
C186 N187 1.342 . S
C186 C190 1.401 . S
C186 C191 1.499 . S
N187 Co170 1.989 . S
N187 C186 1.342 . S
N187 N188 1.388 . S
N188 Co171 1.993 . S
N188 N187 1.388 . S
N188 C189 1.346 . S
C189 N188 1.346 . S
C189 C190 1.396 . S
C189 C199 1.510 . S
C190 C186 1.401 . S
C190 C189 1.396 . S
C191 C186 1.499 . S
C191 H192 0.959 . S
C191 H193 0.960 . S
C191 H194 0.961 . S
H192 C191 0.959 . S
H193 C191 0.960 . S
H194 C191 0.961 . S
O195 Co170 1.967 . S
O195 C203 1.258 . S
O196 Co171 1.941 . S
O196 C203 1.266 . S
H197 C199 0.959 . S
H198 C199 0.961 . S
C199 C189 1.510 . S
C199 H197 0.959 . S
C199 H198 0.961 . S
C199 H200 0.960 . S
H200 C199 0.960 . S
H201 N181 0.862 . S
O202 Co170 1.920 . S
O202 C175 1.289 . S
C203 O195 1.258 . S
C203 O196 1.266 . S
Co204 O207 1.970 . S
Co204 N221 1.989 . S
Co204 O229 1.967 . S
Co204 O236 1.920 . S
Co205 O208 1.966 . S
Co205 N214 2.022 . S
Co205 N222 1.993 . S
Co205 O230 1.941 . S
C206 O207 1.258 . S
C206 O208 1.263 . S
O207 Co204 1.970 . S
O207 C206 1.258 . S
O208 Co205 1.966 . S
O208 C206 1.263 . S
C209 O210 1.235 . S
C209 O236 1.289 . S
O210 C209 1.235 . S
C211 C213 1.400 . S
C211 N214 1.351 . S
C211 C216 1.501 . S
C212 C213 1.387 . S
C212 N215 1.341 . S
C213 C211 1.400 . S
C213 C212 1.387 . S
N214 Co205 2.022 . S
N214 C211 1.351 . S
N214 N215 1.365 . S
N215 C212 1.341 . S
N215 N214 1.365 . S
N215 H235 0.862 . S
C216 C211 1.501 . S
C216 H217 0.961 . S
C216 H218 0.961 . S
C216 H219 0.960 . S
H217 C216 0.961 . S
H218 C216 0.961 . S
H219 C216 0.960 . S
C220 N221 1.342 . S
C220 C224 1.401 . S
C220 C225 1.499 . S
N221 Co204 1.989 . S
N221 C220 1.342 . S
N221 N222 1.388 . S
N222 Co205 1.993 . S
N222 N221 1.388 . S
N222 C223 1.346 . S
C223 N222 1.346 . S
C223 C224 1.396 . S
C223 C233 1.510 . S
C224 C220 1.401 . S
C224 C223 1.396 . S
C225 C220 1.499 . S
C225 H226 0.959 . S
C225 H227 0.960 . S
C225 H228 0.961 . S
H226 C225 0.959 . S
H227 C225 0.960 . S
H228 C225 0.961 . S
O229 Co204 1.967 . S
O229 C237 1.258 . S
O230 Co205 1.941 . S
O230 C237 1.266 . S
H231 C233 0.959 . S
H232 C233 0.961 . S
C233 C223 1.510 . S
C233 H231 0.959 . S
C233 H232 0.961 . S
C233 H234 0.960 . S
H234 C233 0.960 . S
H235 N215 0.862 . S
O236 Co204 1.920 . S
O236 C209 1.289 . S
C237 O229 1.258 . S
C237 O230 1.266 . S
Co238 O241 1.970 . S
Co238 N255 1.989 . S
Co238 O263 1.967 . S
Co238 O270 1.920 . S
Co239 O242 1.966 . S
Co239 N248 2.022 . S
Co239 N256 1.993 . S
Co239 O264 1.941 . S
C240 O241 1.258 . S
C240 O242 1.263 . S
O241 Co238 1.970 . S
O241 C240 1.258 . S
O242 Co239 1.966 . S
O242 C240 1.263 . S
C243 O244 1.235 . S
C243 O270 1.289 . S
O244 C243 1.235 . S
C245 C247 1.400 . S
C245 N248 1.351 . S
C245 C250 1.501 . S
C246 C247 1.387 . S
C246 N249 1.341 . S
C247 C245 1.400 . S
C247 C246 1.387 . S
N248 Co239 2.022 . S
N248 C245 1.351 . S
N248 N249 1.365 . S
N249 C246 1.341 . S
N249 N248 1.365 . S
N249 H269 0.862 . S
C250 C245 1.501 . S
C250 H251 0.961 . S
C250 H252 0.961 . S
C250 H253 0.960 . S
H251 C250 0.961 . S
H252 C250 0.961 . S
H253 C250 0.960 . S
C254 N255 1.342 . S
C254 C258 1.401 . S
C254 C259 1.499 . S
N255 Co238 1.989 . S
N255 C254 1.342 . S
N255 N256 1.388 . S
N256 Co239 1.993 . S
N256 N255 1.388 . S
N256 C257 1.346 . S
C257 N256 1.346 . S
C257 C258 1.396 . S
C257 C267 1.510 . S
C258 C254 1.401 . S
C258 C257 1.396 . S
C259 C254 1.499 . S
C259 H260 0.959 . S
C259 H261 0.960 . S
C259 H262 0.961 . S
H260 C259 0.959 . S
H261 C259 0.960 . S
H262 C259 0.961 . S
O263 Co238 1.967 . S
O263 C271 1.258 . S
O264 Co239 1.941 . S
O264 C271 1.266 . S
H265 C267 0.959 . S
H266 C267 0.961 . S
C267 C257 1.510 . S
C267 H265 0.959 . S
C267 H266 0.961 . S
C267 H268 0.960 . S
H268 C267 0.960 . S
H269 N249 0.862 . S
O270 Co238 1.920 . S
O270 C243 1.289 . S
C271 O263 1.258 . S
C271 O264 1.266 . S
Co272 O275 1.970 . S
Co272 N289 1.989 . S
Co272 O297 1.967 . S
Co272 O304 1.920 . S
Co273 O276 1.966 . S
Co273 N282 2.022 . S
Co273 N290 1.993 . S
Co273 O298 1.941 . S
C274 O275 1.258 . S
C274 O276 1.263 . S
O275 Co272 1.970 . S
O275 C274 1.258 . S
O276 Co273 1.966 . S
O276 C274 1.263 . S
C277 O278 1.235 . S
C277 O304 1.289 . S
O278 C277 1.235 . S
C279 C281 1.400 . S
C279 N282 1.351 . S
C279 C284 1.501 . S
C280 C281 1.387 . S
C280 N283 1.341 . S
C281 C279 1.400 . S
C281 C280 1.387 . S
N282 Co273 2.022 . S
N282 C279 1.351 . S
N282 N283 1.365 . S
N283 C280 1.341 . S
N283 N282 1.365 . S
N283 H303 0.862 . S
C284 C279 1.501 . S
C284 H285 0.961 . S
C284 H286 0.961 . S
C284 H287 0.960 . S
H285 C284 0.961 . S
H286 C284 0.961 . S
H287 C284 0.960 . S
C288 N289 1.342 . S
C288 C292 1.401 . S
C288 C293 1.499 . S
N289 Co272 1.989 . S
N289 C288 1.342 . S
N289 N290 1.388 . S
N290 Co273 1.993 . S
N290 N289 1.388 . S
N290 C291 1.346 . S
C291 N290 1.346 . S
C291 C292 1.396 . S
C291 C301 1.510 . S
C292 C288 1.401 . S
C292 C291 1.396 . S
C293 C288 1.499 . S
C293 H294 0.959 . S
C293 H295 0.960 . S
C293 H296 0.961 . S
H294 C293 0.959 . S
H295 C293 0.960 . S
H296 C293 0.961 . S
O297 Co272 1.967 . S
O297 C305 1.258 . S
O298 Co273 1.941 . S
O298 C305 1.266 . S
H299 C301 0.959 . S
H300 C301 0.961 . S
C301 C291 1.510 . S
C301 H299 0.959 . S
C301 H300 0.961 . S
C301 H302 0.960 . S
H302 C301 0.960 . S
H303 N283 0.862 . S
O304 Co272 1.920 . S
O304 C277 1.289 . S
C305 O297 1.258 . S
C305 O298 1.266 . S
Co306 O309 1.970 . S
Co306 N323 1.989 . S
Co306 O331 1.967 . S
Co306 O338 1.920 . S
Co307 O310 1.966 . S
Co307 N316 2.022 . S
Co307 N324 1.993 . S
Co307 O332 1.941 . S
C308 O309 1.258 . S
C308 O310 1.263 . S
O309 Co306 1.970 . S
O309 C308 1.258 . S
O310 Co307 1.966 . S
O310 C308 1.263 . S
C311 O312 1.235 . S
C311 O338 1.289 . S
O312 C311 1.235 . S
C313 C315 1.400 . S
C313 N316 1.351 . S
C313 C318 1.501 . S
C314 C315 1.387 . S
C314 N317 1.341 . S
C315 C313 1.400 . S
C315 C314 1.387 . S
N316 Co307 2.022 . S
N316 C313 1.351 . S
N316 N317 1.365 . S
N317 C314 1.341 . S
N317 N316 1.365 . S
N317 H337 0.862 . S
C318 C313 1.501 . S
C318 H319 0.961 . S
C318 H320 0.961 . S
C318 H321 0.960 . S
H319 C318 0.961 . S
H320 C318 0.961 . S
H321 C318 0.960 . S
C322 N323 1.342 . S
C322 C326 1.401 . S
C322 C327 1.499 . S
N323 Co306 1.989 . S
N323 C322 1.342 . S
N323 N324 1.388 . S
N324 Co307 1.993 . S
N324 N323 1.388 . S
N324 C325 1.346 . S
C325 N324 1.346 . S
C325 C326 1.396 . S
C325 C335 1.510 . S
C326 C322 1.401 . S
C326 C325 1.396 . S
C327 C322 1.499 . S
C327 H328 0.959 . S
C327 H329 0.960 . S
C327 H330 0.961 . S
H328 C327 0.959 . S
H329 C327 0.960 . S
H330 C327 0.961 . S
O331 Co306 1.967 . S
O331 C339 1.258 . S
O332 Co307 1.941 . S
O332 C339 1.266 . S
H333 C335 0.959 . S
H334 C335 0.961 . S
C335 C325 1.510 . S
C335 H333 0.959 . S
C335 H334 0.961 . S
C335 H336 0.960 . S
H336 C335 0.960 . S
H337 N317 0.862 . S
O338 Co306 1.920 . S
O338 C311 1.289 . S
C339 O331 1.258 . S
C339 O332 1.266 . S
Co340 O343 1.970 . S
Co340 N357 1.989 . S
Co340 O365 1.967 . S
Co340 O372 1.920 . S
Co341 O344 1.966 . S
Co341 N350 2.022 . S
Co341 N358 1.993 . S
Co341 O366 1.941 . S
C342 O343 1.258 . S
C342 O344 1.263 . S
O343 Co340 1.970 . S
O343 C342 1.258 . S
O344 Co341 1.966 . S
O344 C342 1.263 . S
C345 O346 1.235 . S
C345 O372 1.289 . S
O346 C345 1.235 . S
C347 C349 1.400 . S
C347 N350 1.351 . S
C347 C352 1.501 . S
C348 C349 1.387 . S
C348 N351 1.341 . S
C349 C347 1.400 . S
C349 C348 1.387 . S
N350 Co341 2.022 . S
N350 C347 1.351 . S
N350 N351 1.365 . S
N351 C348 1.341 . S
N351 N350 1.365 . S
N351 H371 0.862 . S
C352 C347 1.501 . S
C352 H353 0.961 . S
C352 H354 0.961 . S
C352 H355 0.960 . S
H353 C352 0.961 . S
H354 C352 0.961 . S
H355 C352 0.960 . S
C356 N357 1.342 . S
C356 C360 1.401 . S
C356 C361 1.499 . S
N357 Co340 1.989 . S
N357 C356 1.342 . S
N357 N358 1.388 . S
N358 Co341 1.993 . S
N358 N357 1.388 . S
N358 C359 1.346 . S
C359 N358 1.346 . S
C359 C360 1.396 . S
C359 C369 1.510 . S
C360 C356 1.401 . S
C360 C359 1.396 . S
C361 C356 1.499 . S
C361 H362 0.959 . S
C361 H363 0.960 . S
C361 H364 0.961 . S
H362 C361 0.959 . S
H363 C361 0.960 . S
H364 C361 0.961 . S
O365 Co340 1.967 . S
O365 C373 1.258 . S
O366 Co341 1.941 . S
O366 C373 1.266 . S
H367 C369 0.959 . S
H368 C369 0.961 . S
C369 C359 1.510 . S
C369 H367 0.959 . S
C369 H368 0.961 . S
C369 H370 0.960 . S
H370 C369 0.960 . S
H371 N351 0.862 . S
O372 Co340 1.920 . S
O372 C345 1.289 . S
C373 O365 1.258 . S
C373 O366 1.266 . S
Co374 O377 1.970 . S
Co374 N391 1.989 . S
Co374 O399 1.967 . S
Co374 O406 1.920 . S
Co375 O378 1.966 . S
Co375 N384 2.022 . S
Co375 N392 1.993 . S
Co375 O400 1.941 . S
C376 O377 1.258 . S
C376 O378 1.263 . S
O377 Co374 1.970 . S
O377 C376 1.258 . S
O378 Co375 1.966 . S
O378 C376 1.263 . S
C379 O380 1.235 . S
C379 O406 1.289 . S
O380 C379 1.235 . S
C381 C383 1.400 . S
C381 N384 1.351 . S
C381 C386 1.501 . S
C382 C383 1.387 . S
C382 N385 1.341 . S
C383 C381 1.400 . S
C383 C382 1.387 . S
N384 Co375 2.022 . S
N384 C381 1.351 . S
N384 N385 1.365 . S
N385 C382 1.341 . S
N385 N384 1.365 . S
N385 H405 0.862 . S
C386 C381 1.501 . S
C386 H387 0.961 . S
C386 H388 0.961 . S
C386 H389 0.960 . S
H387 C386 0.961 . S
H388 C386 0.961 . S
H389 C386 0.960 . S
C390 N391 1.342 . S
C390 C394 1.401 . S
C390 C395 1.499 . S
N391 Co374 1.989 . S
N391 C390 1.342 . S
N391 N392 1.388 . S
N392 Co375 1.993 . S
N392 N391 1.388 . S
N392 C393 1.346 . S
C393 N392 1.346 . S
C393 C394 1.396 . S
C393 C403 1.510 . S
C394 C390 1.401 . S
C394 C393 1.396 . S
C395 C390 1.499 . S
C395 H396 0.959 . S
C395 H397 0.960 . S
C395 H398 0.961 . S
H396 C395 0.959 . S
H397 C395 0.960 . S
H398 C395 0.961 . S
O399 Co374 1.967 . S
O399 C407 1.258 . S
O400 Co375 1.941 . S
O400 C407 1.266 . S
H401 C403 0.959 . S
H402 C403 0.961 . S
C403 C393 1.510 . S
C403 H401 0.959 . S
C403 H402 0.961 . S
C403 H404 0.960 . S
H404 C403 0.960 . S
H405 N385 0.862 . S
O406 Co374 1.920 . S
O406 C379 1.289 . S
C407 O399 1.258 . S
C407 O400 1.266 . S
Co408 O411 1.970 . S
Co408 N425 1.989 . S
Co408 O433 1.967 . S
Co408 O440 1.920 . S
Co409 O412 1.966 . S
Co409 N418 2.022 . S
Co409 N426 1.993 . S
Co409 O434 1.941 . S
C410 O411 1.258 . S
C410 O412 1.263 . S
O411 Co408 1.970 . S
O411 C410 1.258 . S
O412 Co409 1.966 . S
O412 C410 1.263 . S
C413 O414 1.235 . S
C413 O440 1.289 . S
O414 C413 1.235 . S
C415 C417 1.400 . S
C415 N418 1.351 . S
C415 C420 1.501 . S
C416 C417 1.387 . S
C416 N419 1.341 . S
C417 C415 1.400 . S
C417 C416 1.387 . S
N418 Co409 2.022 . S
N418 C415 1.351 . S
N418 N419 1.365 . S
N419 C416 1.341 . S
N419 N418 1.365 . S
N419 H439 0.862 . S
C420 C415 1.501 . S
C420 H421 0.961 . S
C420 H422 0.961 . S
C420 H423 0.960 . S
H421 C420 0.961 . S
H422 C420 0.961 . S
H423 C420 0.960 . S
C424 N425 1.342 . S
C424 C428 1.401 . S
C424 C429 1.499 . S
N425 Co408 1.989 . S
N425 C424 1.342 . S
N425 N426 1.388 . S
N426 Co409 1.993 . S
N426 N425 1.388 . S
N426 C427 1.346 . S
C427 N426 1.346 . S
C427 C428 1.396 . S
C427 C437 1.510 . S
C428 C424 1.401 . S
C428 C427 1.396 . S
C429 C424 1.499 . S
C429 H430 0.959 . S
C429 H431 0.960 . S
C429 H432 0.961 . S
H430 C429 0.959 . S
H431 C429 0.960 . S
H432 C429 0.961 . S
O433 Co408 1.967 . S
O433 C441 1.258 . S
O434 Co409 1.941 . S
O434 C441 1.266 . S
H435 C437 0.959 . S
H436 C437 0.961 . S
C437 C427 1.510 . S
C437 H435 0.959 . S
C437 H436 0.961 . S
C437 H438 0.960 . S
H438 C437 0.960 . S
H439 N419 0.862 . S
O440 Co408 1.920 . S
O440 C413 1.289 . S
C441 O433 1.258 . S
C441 O434 1.266 . S
Co442 O445 1.970 . S
Co442 N459 1.989 . S
Co442 O467 1.967 . S
Co442 O474 1.920 . S
Co443 O446 1.966 . S
Co443 N452 2.022 . S
Co443 N460 1.993 . S
Co443 O468 1.941 . S
C444 O445 1.258 . S
C444 O446 1.263 . S
O445 Co442 1.970 . S
O445 C444 1.258 . S
O446 Co443 1.966 . S
O446 C444 1.263 . S
C447 O448 1.235 . S
C447 O474 1.289 . S
O448 C447 1.235 . S
C449 C451 1.400 . S
C449 N452 1.351 . S
C449 C454 1.501 . S
C450 C451 1.387 . S
C450 N453 1.341 . S
C451 C449 1.400 . S
C451 C450 1.387 . S
N452 Co443 2.022 . S
N452 C449 1.351 . S
N452 N453 1.365 . S
N453 C450 1.341 . S
N453 N452 1.365 . S
N453 H473 0.862 . S
C454 C449 1.501 . S
C454 H455 0.961 . S
C454 H456 0.961 . S
C454 H457 0.960 . S
H455 C454 0.961 . S
H456 C454 0.961 . S
H457 C454 0.960 . S
C458 N459 1.342 . S
C458 C462 1.401 . S
C458 C463 1.499 . S
N459 Co442 1.989 . S
N459 C458 1.342 . S
N459 N460 1.388 . S
N460 Co443 1.993 . S
N460 N459 1.388 . S
N460 C461 1.346 . S
C461 N460 1.346 . S
C461 C462 1.396 . S
C461 C471 1.510 . S
C462 C458 1.401 . S
C462 C461 1.396 . S
C463 C458 1.499 . S
C463 H464 0.959 . S
C463 H465 0.960 . S
C463 H466 0.961 . S
H464 C463 0.959 . S
H465 C463 0.960 . S
H466 C463 0.961 . S
O467 Co442 1.967 . S
O467 C475 1.258 . S
O468 Co443 1.941 . S
O468 C475 1.266 . S
H469 C471 0.959 . S
H470 C471 0.961 . S
C471 C461 1.510 . S
C471 H469 0.959 . S
C471 H470 0.961 . S
C471 H472 0.960 . S
H472 C471 0.960 . S
H473 N453 0.862 . S
O474 Co442 1.920 . S
O474 C447 1.289 . S
C475 O467 1.258 . S
C475 O468 1.266 . S
Co476 O479 1.970 . S
Co476 N493 1.989 . S
Co476 O501 1.967 . S
Co476 O508 1.920 . S
Co477 O480 1.966 . S
Co477 N486 2.022 . S
Co477 N494 1.993 . S
Co477 O502 1.941 . S
C478 O479 1.258 . S
C478 O480 1.263 . S
O479 Co476 1.970 . S
O479 C478 1.258 . S
O480 Co477 1.966 . S
O480 C478 1.263 . S
C481 O482 1.235 . S
C481 O508 1.289 . S
O482 C481 1.235 . S
C483 C485 1.400 . S
C483 N486 1.351 . S
C483 C488 1.501 . S
C484 C485 1.387 . S
C484 N487 1.341 . S
C485 C483 1.400 . S
C485 C484 1.387 . S
N486 Co477 2.022 . S
N486 C483 1.351 . S
N486 N487 1.365 . S
N487 C484 1.341 . S
N487 N486 1.365 . S
N487 H507 0.862 . S
C488 C483 1.501 . S
C488 H489 0.961 . S
C488 H490 0.961 . S
C488 H491 0.960 . S
H489 C488 0.961 . S
H490 C488 0.961 . S
H491 C488 0.960 . S
C492 N493 1.342 . S
C492 C496 1.401 . S
C492 C497 1.499 . S
N493 Co476 1.989 . S
N493 C492 1.342 . S
N493 N494 1.388 . S
N494 Co477 1.993 . S
N494 N493 1.388 . S
N494 C495 1.346 . S
C495 N494 1.346 . S
C495 C496 1.396 . S
C495 C505 1.510 . S
C496 C492 1.401 . S
C496 C495 1.396 . S
C497 C492 1.499 . S
C497 H498 0.959 . S
C497 H499 0.960 . S
C497 H500 0.961 . S
H498 C497 0.959 . S
H499 C497 0.960 . S
H500 C497 0.961 . S
O501 Co476 1.967 . S
O501 C509 1.258 . S
O502 Co477 1.941 . S
O502 C509 1.266 . S
H503 C505 0.959 . S
H504 C505 0.961 . S
C505 C495 1.510 . S
C505 H503 0.959 . S
C505 H504 0.961 . S
C505 H506 0.960 . S
H506 C505 0.960 . S
H507 N487 0.862 . S
O508 Co476 1.920 . S
O508 C481 1.289 . S
C509 O501 1.258 . S
C509 O502 1.266 . S
Co510 O513 1.970 . S
Co510 N527 1.989 . S
Co510 O535 1.967 . S
Co510 O542 1.920 . S
Co511 O514 1.966 . S
Co511 N520 2.022 . S
Co511 N528 1.993 . S
Co511 O536 1.941 . S
C512 O513 1.258 . S
C512 O514 1.263 . S
O513 Co510 1.970 . S
O513 C512 1.258 . S
O514 Co511 1.966 . S
O514 C512 1.263 . S
C515 O516 1.235 . S
C515 O542 1.289 . S
O516 C515 1.235 . S
C517 C519 1.400 . S
C517 N520 1.351 . S
C517 C522 1.501 . S
C518 C519 1.387 . S
C518 N521 1.341 . S
C519 C517 1.400 . S
C519 C518 1.387 . S
N520 Co511 2.022 . S
N520 C517 1.351 . S
N520 N521 1.365 . S
N521 C518 1.341 . S
N521 N520 1.365 . S
N521 H541 0.862 . S
C522 C517 1.501 . S
C522 H523 0.961 . S
C522 H524 0.961 . S
C522 H525 0.960 . S
H523 C522 0.961 . S
H524 C522 0.961 . S
H525 C522 0.960 . S
C526 N527 1.342 . S
C526 C530 1.401 . S
C526 C531 1.499 . S
N527 Co510 1.989 . S
N527 C526 1.342 . S
N527 N528 1.388 . S
N528 Co511 1.993 . S
N528 N527 1.388 . S
N528 C529 1.346 . S
C529 N528 1.346 . S
C529 C530 1.396 . S
C529 C539 1.510 . S
C530 C526 1.401 . S
C530 C529 1.396 . S
C531 C526 1.499 . S
C531 H532 0.959 . S
C531 H533 0.960 . S
C531 H534 0.961 . S
H532 C531 0.959 . S
H533 C531 0.960 . S
H534 C531 0.961 . S
O535 Co510 1.967 . S
O535 C543 1.258 . S
O536 Co511 1.941 . S
O536 C543 1.266 . S
H537 C539 0.959 . S
H538 C539 0.961 . S
C539 C529 1.510 . S
C539 H537 0.959 . S
C539 H538 0.961 . S
C539 H540 0.960 . S
H540 C539 0.960 . S
H541 N521 0.862 . S
O542 Co510 1.920 . S
O542 C515 1.289 . S
C543 O535 1.258 . S
C543 O536 1.266 . S
Co544 O547 1.970 . S
Co544 N561 1.989 . S
Co544 O569 1.967 . S
Co544 O576 1.920 . S
Co545 O548 1.966 . S
Co545 N554 2.022 . S
Co545 N562 1.993 . S
Co545 O570 1.941 . S
C546 O547 1.258 . S
C546 O548 1.263 . S
O547 Co544 1.970 . S
O547 C546 1.258 . S
O548 Co545 1.966 . S
O548 C546 1.263 . S
C549 O550 1.235 . S
C549 O576 1.289 . S
O550 C549 1.235 . S
C551 C553 1.400 . S
C551 N554 1.351 . S
C551 C556 1.501 . S
C552 C553 1.387 . S
C552 N555 1.341 . S
C553 C551 1.400 . S
C553 C552 1.387 . S
N554 Co545 2.022 . S
N554 C551 1.351 . S
N554 N555 1.365 . S
N555 C552 1.341 . S
N555 N554 1.365 . S
N555 H575 0.862 . S
C556 C551 1.501 . S
C556 H557 0.961 . S
C556 H558 0.961 . S
C556 H559 0.960 . S
H557 C556 0.961 . S
H558 C556 0.961 . S
H559 C556 0.960 . S
C560 N561 1.342 . S
C560 C564 1.401 . S
C560 C565 1.499 . S
N561 Co544 1.989 . S
N561 C560 1.342 . S
N561 N562 1.388 . S
N562 Co545 1.993 . S
N562 N561 1.388 . S
N562 C563 1.346 . S
C563 N562 1.346 . S
C563 C564 1.396 . S
C563 C573 1.510 . S
C564 C560 1.401 . S
C564 C563 1.396 . S
C565 C560 1.499 . S
C565 H566 0.959 . S
C565 H567 0.960 . S
C565 H568 0.961 . S
H566 C565 0.959 . S
H567 C565 0.960 . S
H568 C565 0.961 . S
O569 Co544 1.967 . S
O569 C577 1.258 . S
O570 Co545 1.941 . S
O570 C577 1.266 . S
H571 C573 0.959 . S
H572 C573 0.961 . S
C573 C563 1.510 . S
C573 H571 0.959 . S
C573 H572 0.961 . S
C573 H574 0.960 . S
H574 C573 0.960 . S
H575 N555 0.862 . S
O576 Co544 1.920 . S
O576 C549 1.289 . S
C577 O569 1.258 . S
C577 O570 1.266 . S
Co578 O581 1.970 . S
Co578 N595 1.989 . S
Co578 O603 1.967 . S
Co578 O610 1.920 . S
Co579 O582 1.966 . S
Co579 N588 2.022 . S
Co579 N596 1.993 . S
Co579 O604 1.941 . S
C580 O581 1.258 . S
C580 O582 1.263 . S
O581 Co578 1.970 . S
O581 C580 1.258 . S
O582 Co579 1.966 . S
O582 C580 1.263 . S
C583 O584 1.235 . S
C583 O610 1.289 . S
O584 C583 1.235 . S
C585 C587 1.400 . S
C585 N588 1.351 . S
C585 C590 1.501 . S
C586 C587 1.387 . S
C586 N589 1.341 . S
C587 C585 1.400 . S
C587 C586 1.387 . S
N588 Co579 2.022 . S
N588 C585 1.351 . S
N588 N589 1.365 . S
N589 C586 1.341 . S
N589 N588 1.365 . S
N589 H609 0.862 . S
C590 C585 1.501 . S
C590 H591 0.961 . S
C590 H592 0.961 . S
C590 H593 0.960 . S
H591 C590 0.961 . S
H592 C590 0.961 . S
H593 C590 0.960 . S
C594 N595 1.342 . S
C594 C598 1.401 . S
C594 C599 1.499 . S
N595 Co578 1.989 . S
N595 C594 1.342 . S
N595 N596 1.388 . S
N596 Co579 1.993 . S
N596 N595 1.388 . S
N596 C597 1.346 . S
C597 N596 1.346 . S
C597 C598 1.396 . S
C597 C607 1.510 . S
C598 C594 1.401 . S
C598 C597 1.396 . S
C599 C594 1.499 . S
C599 H600 0.959 . S
C599 H601 0.960 . S
C599 H602 0.961 . S
H600 C599 0.959 . S
H601 C599 0.960 . S
H602 C599 0.961 . S
O603 Co578 1.967 . S
O603 C611 1.258 . S
O604 Co579 1.941 . S
O604 C611 1.266 . S
H605 C607 0.959 . S
H606 C607 0.961 . S
C607 C597 1.510 . S
C607 H605 0.959 . S
C607 H606 0.961 . S
C607 H608 0.960 . S
H608 C607 0.960 . S
H609 N589 0.862 . S
O610 Co578 1.920 . S
O610 C583 1.289 . S
C611 O603 1.258 . S
C611 O604 1.266 . S
Co612 O615 1.970 . S
Co612 N629 1.989 . S
Co612 O637 1.967 . S
Co612 O644 1.920 . S
Co613 O616 1.966 . S
Co613 N622 2.022 . S
Co613 N630 1.993 . S
Co613 O638 1.941 . S
C614 O615 1.258 . S
C614 O616 1.263 . S
O615 Co612 1.970 . S
O615 C614 1.258 . S
O616 Co613 1.966 . S
O616 C614 1.263 . S
C617 O618 1.235 . S
C617 O644 1.289 . S
O618 C617 1.235 . S
C619 C621 1.400 . S
C619 N622 1.351 . S
C619 C624 1.501 . S
C620 C621 1.387 . S
C620 N623 1.341 . S
C621 C619 1.400 . S
C621 C620 1.387 . S
N622 Co613 2.022 . S
N622 C619 1.351 . S
N622 N623 1.365 . S
N623 C620 1.341 . S
N623 N622 1.365 . S
N623 H643 0.862 . S
C624 C619 1.501 . S
C624 H625 0.961 . S
C624 H626 0.961 . S
C624 H627 0.960 . S
H625 C624 0.961 . S
H626 C624 0.961 . S
H627 C624 0.960 . S
C628 N629 1.342 . S
C628 C632 1.401 . S
C628 C633 1.499 . S
N629 Co612 1.989 . S
N629 C628 1.342 . S
N629 N630 1.388 . S
N630 Co613 1.993 . S
N630 N629 1.388 . S
N630 C631 1.346 . S
C631 N630 1.346 . S
C631 C632 1.396 . S
C631 C641 1.510 . S
C632 C628 1.401 . S
C632 C631 1.396 . S
C633 C628 1.499 . S
C633 H634 0.959 . S
C633 H635 0.960 . S
C633 H636 0.961 . S
H634 C633 0.959 . S
H635 C633 0.960 . S
H636 C633 0.961 . S
O637 Co612 1.967 . S
O637 C645 1.258 . S
O638 Co613 1.941 . S
O638 C645 1.266 . S
H639 C641 0.959 . S
H640 C641 0.961 . S
C641 C631 1.510 . S
C641 H639 0.959 . S
C641 H640 0.961 . S
C641 H642 0.960 . S
H642 C641 0.960 . S
H643 N623 0.862 . S
O644 Co612 1.920 . S
O644 C617 1.289 . S
C645 O637 1.258 . S
C645 O638 1.266 . S
Co646 O649 1.970 . S
Co646 N663 1.989 . S
Co646 O671 1.967 . S
Co646 O678 1.920 . S
Co647 O650 1.966 . S
Co647 N656 2.022 . S
Co647 N664 1.993 . S
Co647 O672 1.941 . S
C648 O649 1.258 . S
C648 O650 1.263 . S
O649 Co646 1.970 . S
O649 C648 1.258 . S
O650 Co647 1.966 . S
O650 C648 1.263 . S
C651 O652 1.235 . S
C651 O678 1.289 . S
O652 C651 1.235 . S
C653 C655 1.400 . S
C653 N656 1.351 . S
C653 C658 1.501 . S
C654 C655 1.387 . S
C654 N657 1.341 . S
C655 C653 1.400 . S
C655 C654 1.387 . S
N656 Co647 2.022 . S
N656 C653 1.351 . S
N656 N657 1.365 . S
N657 C654 1.341 . S
N657 N656 1.365 . S
N657 H677 0.862 . S
C658 C653 1.501 . S
C658 H659 0.961 . S
C658 H660 0.961 . S
C658 H661 0.960 . S
H659 C658 0.961 . S
H660 C658 0.961 . S
H661 C658 0.960 . S
C662 N663 1.342 . S
C662 C666 1.401 . S
C662 C667 1.499 . S
N663 Co646 1.989 . S
N663 C662 1.342 . S
N663 N664 1.388 . S
N664 Co647 1.993 . S
N664 N663 1.388 . S
N664 C665 1.346 . S
C665 N664 1.346 . S
C665 C666 1.396 . S
C665 C675 1.510 . S
C666 C662 1.401 . S
C666 C665 1.396 . S
C667 C662 1.499 . S
C667 H668 0.959 . S
C667 H669 0.960 . S
C667 H670 0.961 . S
H668 C667 0.959 . S
H669 C667 0.960 . S
H670 C667 0.961 . S
O671 Co646 1.967 . S
O671 C679 1.258 . S
O672 Co647 1.941 . S
O672 C679 1.266 . S
H673 C675 0.959 . S
H674 C675 0.961 . S
C675 C665 1.510 . S
C675 H673 0.959 . S
C675 H674 0.961 . S
C675 H676 0.960 . S
H676 C675 0.960 . S
H677 N657 0.862 . S
O678 Co646 1.920 . S
O678 C651 1.289 . S
C679 O671 1.258 . S
C679 O672 1.266 . S
Co680 O683 1.970 . S
Co680 N697 1.989 . S
Co680 O705 1.967 . S
Co680 O712 1.920 . S
Co681 O684 1.966 . S
Co681 N690 2.022 . S
Co681 N698 1.993 . S
Co681 O706 1.941 . S
C682 O683 1.258 . S
C682 O684 1.263 . S
O683 Co680 1.970 . S
O683 C682 1.258 . S
O684 Co681 1.966 . S
O684 C682 1.263 . S
C685 O686 1.235 . S
C685 O712 1.289 . S
O686 C685 1.235 . S
C687 C689 1.400 . S
C687 N690 1.351 . S
C687 C692 1.501 . S
C688 C689 1.387 . S
C688 N691 1.341 . S
C689 C687 1.400 . S
C689 C688 1.387 . S
N690 Co681 2.022 . S
N690 C687 1.351 . S
N690 N691 1.365 . S
N691 C688 1.341 . S
N691 N690 1.365 . S
N691 H711 0.862 . S
C692 C687 1.501 . S
C692 H693 0.961 . S
C692 H694 0.961 . S
C692 H695 0.960 . S
H693 C692 0.961 . S
H694 C692 0.961 . S
H695 C692 0.960 . S
C696 N697 1.342 . S
C696 C700 1.401 . S
C696 C701 1.499 . S
N697 Co680 1.989 . S
N697 C696 1.342 . S
N697 N698 1.388 . S
N698 Co681 1.993 . S
N698 N697 1.388 . S
N698 C699 1.346 . S
C699 N698 1.346 . S
C699 C700 1.396 . S
C699 C709 1.510 . S
C700 C696 1.401 . S
C700 C699 1.396 . S
C701 C696 1.499 . S
C701 H702 0.959 . S
C701 H703 0.960 . S
C701 H704 0.961 . S
H702 C701 0.959 . S
H703 C701 0.960 . S
H704 C701 0.961 . S
O705 Co680 1.967 . S
O705 C713 1.258 . S
O706 Co681 1.941 . S
O706 C713 1.266 . S
H707 C709 0.959 . S
H708 C709 0.961 . S
C709 C699 1.510 . S
C709 H707 0.959 . S
C709 H708 0.961 . S
C709 H710 0.960 . S
H710 C709 0.960 . S
H711 N691 0.862 . S
O712 Co680 1.920 . S
O712 C685 1.289 . S
C713 O705 1.258 . S
C713 O706 1.266 . S
Co714 O717 1.970 . S
Co714 N731 1.989 . S
Co714 O739 1.967 . S
Co714 O746 1.920 . S
Co715 O718 1.966 . S
Co715 N724 2.022 . S
Co715 N732 1.993 . S
Co715 O740 1.941 . S
C716 O717 1.258 . S
C716 O718 1.263 . S
O717 Co714 1.970 . S
O717 C716 1.258 . S
O718 Co715 1.966 . S
O718 C716 1.263 . S
C719 O720 1.235 . S
C719 O746 1.289 . S
O720 C719 1.235 . S
C721 C723 1.400 . S
C721 N724 1.351 . S
C721 C726 1.501 . S
C722 C723 1.387 . S
C722 N725 1.341 . S
C723 C721 1.400 . S
C723 C722 1.387 . S
N724 Co715 2.022 . S
N724 C721 1.351 . S
N724 N725 1.365 . S
N725 C722 1.341 . S
N725 N724 1.365 . S
N725 H745 0.862 . S
C726 C721 1.501 . S
C726 H727 0.961 . S
C726 H728 0.961 . S
C726 H729 0.960 . S
H727 C726 0.961 . S
H728 C726 0.961 . S
H729 C726 0.960 . S
C730 N731 1.342 . S
C730 C734 1.401 . S
C730 C735 1.499 . S
N731 Co714 1.989 . S
N731 C730 1.342 . S
N731 N732 1.388 . S
N732 Co715 1.993 . S
N732 N731 1.388 . S
N732 C733 1.346 . S
C733 N732 1.346 . S
C733 C734 1.396 . S
C733 C743 1.510 . S
C734 C730 1.401 . S
C734 C733 1.396 . S
C735 C730 1.499 . S
C735 H736 0.959 . S
C735 H737 0.960 . S
C735 H738 0.961 . S
H736 C735 0.959 . S
H737 C735 0.960 . S
H738 C735 0.961 . S
O739 Co714 1.967 . S
O739 C747 1.258 . S
O740 Co715 1.941 . S
O740 C747 1.266 . S
H741 C743 0.959 . S
H742 C743 0.961 . S
C743 C733 1.510 . S
C743 H741 0.959 . S
C743 H742 0.961 . S
C743 H744 0.960 . S
H744 C743 0.960 . S
H745 N725 0.862 . S
O746 Co714 1.920 . S
O746 C719 1.289 . S
C747 O739 1.258 . S
C747 O740 1.266 . S
Co748 O751 1.970 . S
Co748 N765 1.989 . S
Co748 O773 1.967 . S
Co748 O780 1.920 . S
Co749 O752 1.966 . S
Co749 N758 2.022 . S
Co749 N766 1.993 . S
Co749 O774 1.941 . S
C750 O751 1.258 . S
C750 O752 1.263 . S
O751 Co748 1.970 . S
O751 C750 1.258 . S
O752 Co749 1.966 . S
O752 C750 1.263 . S
C753 O754 1.235 . S
C753 O780 1.289 . S
O754 C753 1.235 . S
C755 C757 1.400 . S
C755 N758 1.351 . S
C755 C760 1.501 . S
C756 C757 1.387 . S
C756 N759 1.341 . S
C757 C755 1.400 . S
C757 C756 1.387 . S
N758 Co749 2.022 . S
N758 C755 1.351 . S
N758 N759 1.365 . S
N759 C756 1.341 . S
N759 N758 1.365 . S
N759 H779 0.862 . S
C760 C755 1.501 . S
C760 H761 0.961 . S
C760 H762 0.961 . S
C760 H763 0.960 . S
H761 C760 0.961 . S
H762 C760 0.961 . S
H763 C760 0.960 . S
C764 N765 1.342 . S
C764 C768 1.401 . S
C764 C769 1.499 . S
N765 Co748 1.989 . S
N765 C764 1.342 . S
N765 N766 1.388 . S
N766 Co749 1.993 . S
N766 N765 1.388 . S
N766 C767 1.346 . S
C767 N766 1.346 . S
C767 C768 1.396 . S
C767 C777 1.510 . S
C768 C764 1.401 . S
C768 C767 1.396 . S
C769 C764 1.499 . S
C769 H770 0.959 . S
C769 H771 0.960 . S
C769 H772 0.961 . S
H770 C769 0.959 . S
H771 C769 0.960 . S
H772 C769 0.961 . S
O773 Co748 1.967 . S
O773 C781 1.258 . S
O774 Co749 1.941 . S
O774 C781 1.266 . S
H775 C777 0.959 . S
H776 C777 0.961 . S
C777 C767 1.510 . S
C777 H775 0.959 . S
C777 H776 0.961 . S
C777 H778 0.960 . S
H778 C777 0.960 . S
H779 N759 0.862 . S
O780 Co748 1.920 . S
O780 C753 1.289 . S
C781 O773 1.258 . S
C781 O774 1.266 . S
Co782 O785 1.970 . S
Co782 N799 1.989 . S
Co782 O807 1.967 . S
Co782 O814 1.920 . S
Co783 O786 1.966 . S
Co783 N792 2.022 . S
Co783 N800 1.993 . S
Co783 O808 1.941 . S
C784 O785 1.258 . S
C784 O786 1.263 . S
O785 Co782 1.970 . S
O785 C784 1.258 . S
O786 Co783 1.966 . S
O786 C784 1.263 . S
C787 O788 1.235 . S
C787 O814 1.289 . S
O788 C787 1.235 . S
C789 C791 1.400 . S
C789 N792 1.351 . S
C789 C794 1.501 . S
C790 C791 1.387 . S
C790 N793 1.341 . S
C791 C789 1.400 . S
C791 C790 1.387 . S
N792 Co783 2.022 . S
N792 C789 1.351 . S
N792 N793 1.365 . S
N793 C790 1.341 . S
N793 N792 1.365 . S
N793 H813 0.862 . S
C794 C789 1.501 . S
C794 H795 0.961 . S
C794 H796 0.961 . S
C794 H797 0.960 . S
H795 C794 0.961 . S
H796 C794 0.961 . S
H797 C794 0.960 . S
C798 N799 1.342 . S
C798 C802 1.401 . S
C798 C803 1.499 . S
N799 Co782 1.989 . S
N799 C798 1.342 . S
N799 N800 1.388 . S
N800 Co783 1.993 . S
N800 N799 1.388 . S
N800 C801 1.346 . S
C801 N800 1.346 . S
C801 C802 1.396 . S
C801 C811 1.510 . S
C802 C798 1.401 . S
C802 C801 1.396 . S
C803 C798 1.499 . S
C803 H804 0.959 . S
C803 H805 0.960 . S
C803 H806 0.961 . S
H804 C803 0.959 . S
H805 C803 0.960 . S
H806 C803 0.961 . S
O807 Co782 1.967 . S
O807 C815 1.258 . S
O808 Co783 1.941 . S
O808 C815 1.266 . S
H809 C811 0.959 . S
H810 C811 0.961 . S
C811 C801 1.510 . S
C811 H809 0.959 . S
C811 H810 0.961 . S
C811 H812 0.960 . S
H812 C811 0.960 . S
H813 N793 0.862 . S
O814 Co782 1.920 . S
O814 C787 1.289 . S
C815 O807 1.258 . S
C815 O808 1.266 . S
Co816 O819 1.970 . S
Co816 N833 1.989 . S
Co816 O841 1.967 . S
Co816 O848 1.920 . S
Co817 O820 1.966 . S
Co817 N826 2.022 . S
Co817 N834 1.993 . S
Co817 O842 1.941 . S
C818 O819 1.258 . S
C818 O820 1.263 . S
O819 Co816 1.970 . S
O819 C818 1.258 . S
O820 Co817 1.966 . S
O820 C818 1.263 . S
C821 O822 1.235 . S
C821 O848 1.289 . S
O822 C821 1.235 . S
C823 C825 1.400 . S
C823 N826 1.351 . S
C823 C828 1.501 . S
C824 C825 1.387 . S
C824 N827 1.341 . S
C825 C823 1.400 . S
C825 C824 1.387 . S
N826 Co817 2.022 . S
N826 C823 1.351 . S
N826 N827 1.365 . S
N827 C824 1.341 . S
N827 N826 1.365 . S
N827 H847 0.862 . S
C828 C823 1.501 . S
C828 H829 0.961 . S
C828 H830 0.961 . S
C828 H831 0.960 . S
H829 C828 0.961 . S
H830 C828 0.961 . S
H831 C828 0.960 . S
C832 N833 1.342 . S
C832 C836 1.401 . S
C832 C837 1.499 . S
N833 Co816 1.989 . S
N833 C832 1.342 . S
N833 N834 1.388 . S
N834 Co817 1.993 . S
N834 N833 1.388 . S
N834 C835 1.346 . S
C835 N834 1.346 . S
C835 C836 1.396 . S
C835 C845 1.510 . S
C836 C832 1.401 . S
C836 C835 1.396 . S
C837 C832 1.499 . S
C837 H838 0.959 . S
C837 H839 0.960 . S
C837 H840 0.961 . S
H838 C837 0.959 . S
H839 C837 0.960 . S
H840 C837 0.961 . S
O841 Co816 1.967 . S
O841 C849 1.258 . S
O842 Co817 1.941 . S
O842 C849 1.266 . S
H843 C845 0.959 . S
H844 C845 0.961 . S
C845 C835 1.510 . S
C845 H843 0.959 . S
C845 H844 0.961 . S
C845 H846 0.960 . S
H846 C845 0.960 . S
H847 N827 0.862 . S
O848 Co816 1.920 . S
O848 C821 1.289 . S
C849 O841 1.258 . S
C849 O842 1.266 . S
Co850 O853 1.970 . S
Co850 N867 1.989 . S
Co850 O875 1.967 . S
Co850 O882 1.920 . S
Co851 O854 1.966 . S
Co851 N860 2.022 . S
Co851 N868 1.993 . S
Co851 O876 1.941 . S
C852 O853 1.258 . S
C852 O854 1.263 . S
O853 Co850 1.970 . S
O853 C852 1.258 . S
O854 Co851 1.966 . S
O854 C852 1.263 . S
C855 O856 1.235 . S
C855 O882 1.289 . S
O856 C855 1.235 . S
C857 C859 1.400 . S
C857 N860 1.351 . S
C857 C862 1.501 . S
C858 C859 1.387 . S
C858 N861 1.341 . S
C859 C857 1.400 . S
C859 C858 1.387 . S
N860 Co851 2.022 . S
N860 C857 1.351 . S
N860 N861 1.365 . S
N861 C858 1.341 . S
N861 N860 1.365 . S
N861 H881 0.862 . S
C862 C857 1.501 . S
C862 H863 0.961 . S
C862 H864 0.961 . S
C862 H865 0.960 . S
H863 C862 0.961 . S
H864 C862 0.961 . S
H865 C862 0.960 . S
C866 N867 1.342 . S
C866 C870 1.401 . S
C866 C871 1.499 . S
N867 Co850 1.989 . S
N867 C866 1.342 . S
N867 N868 1.388 . S
N868 Co851 1.993 . S
N868 N867 1.388 . S
N868 C869 1.346 . S
C869 N868 1.346 . S
C869 C870 1.396 . S
C869 C879 1.510 . S
C870 C866 1.401 . S
C870 C869 1.396 . S
C871 C866 1.499 . S
C871 H872 0.959 . S
C871 H873 0.960 . S
C871 H874 0.961 . S
H872 C871 0.959 . S
H873 C871 0.960 . S
H874 C871 0.961 . S
O875 Co850 1.967 . S
O875 C883 1.258 . S
O876 Co851 1.941 . S
O876 C883 1.266 . S
H877 C879 0.959 . S
H878 C879 0.961 . S
C879 C869 1.510 . S
C879 H877 0.959 . S
C879 H878 0.961 . S
C879 H880 0.960 . S
H880 C879 0.960 . S
H881 N861 0.862 . S
O882 Co850 1.920 . S
O882 C855 1.289 . S
C883 O875 1.258 . S
C883 O876 1.266 . S
Co884 O887 1.970 . S
Co884 N901 1.989 . S
Co884 O909 1.967 . S
Co884 O916 1.920 . S
Co885 O888 1.966 . S
Co885 N894 2.022 . S
Co885 N902 1.993 . S
Co885 O910 1.941 . S
C886 O887 1.258 . S
C886 O888 1.263 . S
O887 Co884 1.970 . S
O887 C886 1.258 . S
O888 Co885 1.966 . S
O888 C886 1.263 . S
C889 O890 1.235 . S
C889 O916 1.289 . S
O890 C889 1.235 . S
C891 C893 1.400 . S
C891 N894 1.351 . S
C891 C896 1.501 . S
C892 C893 1.387 . S
C892 N895 1.341 . S
C893 C891 1.400 . S
C893 C892 1.387 . S
N894 Co885 2.022 . S
N894 C891 1.351 . S
N894 N895 1.365 . S
N895 C892 1.341 . S
N895 N894 1.365 . S
N895 H915 0.862 . S
C896 C891 1.501 . S
C896 H897 0.961 . S
C896 H898 0.961 . S
C896 H899 0.960 . S
H897 C896 0.961 . S
H898 C896 0.961 . S
H899 C896 0.960 . S
C900 N901 1.342 . S
C900 C904 1.401 . S
C900 C905 1.499 . S
N901 Co884 1.989 . S
N901 C900 1.342 . S
N901 N902 1.388 . S
N902 Co885 1.993 . S
N902 N901 1.388 . S
N902 C903 1.346 . S
C903 N902 1.346 . S
C903 C904 1.396 . S
C903 C913 1.510 . S
C904 C900 1.401 . S
C904 C903 1.396 . S
C905 C900 1.499 . S
C905 H906 0.959 . S
C905 H907 0.960 . S
C905 H908 0.961 . S
H906 C905 0.959 . S
H907 C905 0.960 . S
H908 C905 0.961 . S
O909 Co884 1.967 . S
O909 C917 1.258 . S
O910 Co885 1.941 . S
O910 C917 1.266 . S
H911 C913 0.959 . S
H912 C913 0.961 . S
C913 C903 1.510 . S
C913 H911 0.959 . S
C913 H912 0.961 . S
C913 H914 0.960 . S
H914 C913 0.960 . S
H915 N895 0.862 . S
O916 Co884 1.920 . S
O916 C889 1.289 . S
C917 O909 1.258 . S
C917 O910 1.266 . S
Co918 O921 1.970 . S
Co918 N935 1.989 . S
Co918 O943 1.967 . S
Co918 O950 1.920 . S
Co919 O922 1.966 . S
Co919 N928 2.022 . S
Co919 N936 1.993 . S
Co919 O944 1.941 . S
C920 O921 1.258 . S
C920 O922 1.263 . S
O921 Co918 1.970 . S
O921 C920 1.258 . S
O922 Co919 1.966 . S
O922 C920 1.263 . S
C923 O924 1.235 . S
C923 O950 1.289 . S
O924 C923 1.235 . S
C925 C927 1.400 . S
C925 N928 1.351 . S
C925 C930 1.501 . S
C926 C927 1.387 . S
C926 N929 1.341 . S
C927 C925 1.400 . S
C927 C926 1.387 . S
N928 Co919 2.022 . S
N928 C925 1.351 . S
N928 N929 1.365 . S
N929 C926 1.341 . S
N929 N928 1.365 . S
N929 H949 0.862 . S
C930 C925 1.501 . S
C930 H931 0.961 . S
C930 H932 0.961 . S
C930 H933 0.960 . S
H931 C930 0.961 . S
H932 C930 0.961 . S
H933 C930 0.960 . S
C934 N935 1.342 . S
C934 C938 1.401 . S
C934 C939 1.499 . S
N935 Co918 1.989 . S
N935 C934 1.342 . S
N935 N936 1.388 . S
N936 Co919 1.993 . S
N936 N935 1.388 . S
N936 C937 1.346 . S
C937 N936 1.346 . S
C937 C938 1.396 . S
C937 C947 1.510 . S
C938 C934 1.401 . S
C938 C937 1.396 . S
C939 C934 1.499 . S
C939 H940 0.959 . S
C939 H941 0.960 . S
C939 H942 0.961 . S
H940 C939 0.959 . S
H941 C939 0.960 . S
H942 C939 0.961 . S
O943 Co918 1.967 . S
O943 C951 1.258 . S
O944 Co919 1.941 . S
O944 C951 1.266 . S
H945 C947 0.959 . S
H946 C947 0.961 . S
C947 C937 1.510 . S
C947 H945 0.959 . S
C947 H946 0.961 . S
C947 H948 0.960 . S
H948 C947 0.960 . S
H949 N929 0.862 . S
O950 Co918 1.920 . S
O950 C923 1.289 . S
C951 O943 1.258 . S
C951 O944 1.266 . S
Co952 O955 1.970 . S
Co952 N969 1.989 . S
Co952 O977 1.967 . S
Co952 O984 1.920 . S
Co953 O956 1.966 . S
Co953 N962 2.022 . S
Co953 N970 1.993 . S
Co953 O978 1.941 . S
C954 O955 1.258 . S
C954 O956 1.263 . S
O955 Co952 1.970 . S
O955 C954 1.258 . S
O956 Co953 1.966 . S
O956 C954 1.263 . S
C957 O958 1.235 . S
C957 O984 1.289 . S
O958 C957 1.235 . S
C959 C961 1.400 . S
C959 N962 1.351 . S
C959 C964 1.501 . S
C960 C961 1.387 . S
C960 N963 1.341 . S
C961 C959 1.400 . S
C961 C960 1.387 . S
N962 Co953 2.022 . S
N962 C959 1.351 . S
N962 N963 1.365 . S
N963 C960 1.341 . S
N963 N962 1.365 . S
N963 H983 0.862 . S
C964 C959 1.501 . S
C964 H965 0.961 . S
C964 H966 0.961 . S
C964 H967 0.960 . S
H965 C964 0.961 . S
H966 C964 0.961 . S
H967 C964 0.960 . S
C968 N969 1.342 . S
C968 C972 1.401 . S
C968 C973 1.499 . S
N969 Co952 1.989 . S
N969 C968 1.342 . S
N969 N970 1.388 . S
N970 Co953 1.993 . S
N970 N969 1.388 . S
N970 C971 1.346 . S
C971 N970 1.346 . S
C971 C972 1.396 . S
C971 C981 1.510 . S
C972 C968 1.401 . S
C972 C971 1.396 . S
C973 C968 1.499 . S
C973 H974 0.959 . S
C973 H975 0.960 . S
C973 H976 0.961 . S
H974 C973 0.959 . S
H975 C973 0.960 . S
H976 C973 0.961 . S
O977 Co952 1.967 . S
O977 C985 1.258 . S
O978 Co953 1.941 . S
O978 C985 1.266 . S
H979 C981 0.959 . S
H980 C981 0.961 . S
C981 C971 1.510 . S
C981 H979 0.959 . S
C981 H980 0.961 . S
C981 H982 0.960 . S
H982 C981 0.960 . S
H983 N963 0.862 . S
O984 Co952 1.920 . S
O984 C957 1.289 . S
C985 O977 1.258 . S
C985 O978 1.266 . S
Co986 O989 1.970 . S
Co986 N1003 1.989 . S
Co986 O1011 1.967 . S
Co986 O1018 1.920 . S
Co987 O990 1.966 . S
Co987 N996 2.022 . S
Co987 N1004 1.993 . S
Co987 O1012 1.941 . S
C988 O989 1.258 . S
C988 O990 1.263 . S
O989 Co986 1.970 . S
O989 C988 1.258 . S
O990 Co987 1.966 . S
O990 C988 1.263 . S
C991 O992 1.235 . S
C991 O1018 1.289 . S
O992 C991 1.235 . S
C993 C995 1.400 . S
C993 N996 1.351 . S
C993 C998 1.501 . S
C994 C995 1.387 . S
C994 N997 1.341 . S
C995 C993 1.400 . S
C995 C994 1.387 . S
N996 Co987 2.022 . S
N996 C993 1.351 . S
N996 N997 1.365 . S
N997 C994 1.341 . S
N997 N996 1.365 . S
N997 H1017 0.862 . S
C998 C993 1.501 . S
C998 H999 0.961 . S
C998 H1000 0.961 . S
C998 H1001 0.960 . S
H999 C998 0.961 . S
H1000 C998 0.961 . S
H1001 C998 0.960 . S
C1002 N1003 1.342 . S
C1002 C1006 1.401 . S
C1002 C1007 1.499 . S
N1003 Co986 1.989 . S
N1003 C1002 1.342 . S
N1003 N1004 1.388 . S
N1004 Co987 1.993 . S
N1004 N1003 1.388 . S
N1004 C1005 1.346 . S
C1005 N1004 1.346 . S
C1005 C1006 1.396 . S
C1005 C1015 1.510 . S
C1006 C1002 1.401 . S
C1006 C1005 1.396 . S
C1007 C1002 1.499 . S
C1007 H1008 0.959 . S
C1007 H1009 0.960 . S
C1007 H1010 0.961 . S
H1008 C1007 0.959 . S
H1009 C1007 0.960 . S
H1010 C1007 0.961 . S
O1011 Co986 1.967 . S
O1011 C1019 1.258 . S
O1012 Co987 1.941 . S
O1012 C1019 1.266 . S
H1013 C1015 0.959 . S
H1014 C1015 0.961 . S
C1015 C1005 1.510 . S
C1015 H1013 0.959 . S
C1015 H1014 0.961 . S
C1015 H1016 0.960 . S
H1016 C1015 0.960 . S
H1017 N997 0.862 . S
O1018 Co986 1.920 . S
O1018 C991 1.289 . S
C1019 O1011 1.258 . S
C1019 O1012 1.266 . S
Co1020 O1023 1.970 . S
Co1020 N1037 1.989 . S
Co1020 O1045 1.967 . S
Co1020 O1052 1.920 . S
Co1021 O1024 1.966 . S
Co1021 N1030 2.022 . S
Co1021 N1038 1.993 . S
Co1021 O1046 1.941 . S
C1022 O1023 1.258 . S
C1022 O1024 1.263 . S
O1023 Co1020 1.970 . S
O1023 C1022 1.258 . S
O1024 Co1021 1.966 . S
O1024 C1022 1.263 . S
C1025 O1026 1.235 . S
C1025 O1052 1.289 . S
O1026 C1025 1.235 . S
C1027 C1029 1.400 . S
C1027 N1030 1.351 . S
C1027 C1032 1.501 . S
C1028 C1029 1.387 . S
C1028 N1031 1.341 . S
C1029 C1027 1.400 . S
C1029 C1028 1.387 . S
N1030 Co1021 2.022 . S
N1030 C1027 1.351 . S
N1030 N1031 1.365 . S
N1031 C1028 1.341 . S
N1031 N1030 1.365 . S
N1031 H1051 0.862 . S
C1032 C1027 1.501 . S
C1032 H1033 0.961 . S
C1032 H1034 0.961 . S
C1032 H1035 0.960 . S
H1033 C1032 0.961 . S
H1034 C1032 0.961 . S
H1035 C1032 0.960 . S
C1036 N1037 1.342 . S
C1036 C1040 1.401 . S
C1036 C1041 1.499 . S
N1037 Co1020 1.989 . S
N1037 C1036 1.342 . S
N1037 N1038 1.388 . S
N1038 Co1021 1.993 . S
N1038 N1037 1.388 . S
N1038 C1039 1.346 . S
C1039 N1038 1.346 . S
C1039 C1040 1.396 . S
C1039 C1049 1.510 . S
C1040 C1036 1.401 . S
C1040 C1039 1.396 . S
C1041 C1036 1.499 . S
C1041 H1042 0.959 . S
C1041 H1043 0.960 . S
C1041 H1044 0.961 . S
H1042 C1041 0.959 . S
H1043 C1041 0.960 . S
H1044 C1041 0.961 . S
O1045 Co1020 1.967 . S
O1045 C1053 1.258 . S
O1046 Co1021 1.941 . S
O1046 C1053 1.266 . S
H1047 C1049 0.959 . S
H1048 C1049 0.961 . S
C1049 C1039 1.510 . S
C1049 H1047 0.959 . S
C1049 H1048 0.961 . S
C1049 H1050 0.960 . S
H1050 C1049 0.960 . S
H1051 N1031 0.862 . S
O1052 Co1020 1.920 . S
O1052 C1025 1.289 . S
C1053 O1045 1.258 . S
C1053 O1046 1.266 . S
Co1054 O1057 1.970 . S
Co1054 N1071 1.989 . S
Co1054 O1079 1.967 . S
Co1054 O1086 1.920 . S
Co1055 O1058 1.966 . S
Co1055 N1064 2.022 . S
Co1055 N1072 1.993 . S
Co1055 O1080 1.941 . S
C1056 O1057 1.258 . S
C1056 O1058 1.263 . S
O1057 Co1054 1.970 . S
O1057 C1056 1.258 . S
O1058 Co1055 1.966 . S
O1058 C1056 1.263 . S
C1059 O1060 1.235 . S
C1059 O1086 1.289 . S
O1060 C1059 1.235 . S
C1061 C1063 1.400 . S
C1061 N1064 1.351 . S
C1061 C1066 1.501 . S
C1062 C1063 1.387 . S
C1062 N1065 1.341 . S
C1063 C1061 1.400 . S
C1063 C1062 1.387 . S
N1064 Co1055 2.022 . S
N1064 C1061 1.351 . S
N1064 N1065 1.365 . S
N1065 C1062 1.341 . S
N1065 N1064 1.365 . S
N1065 H1085 0.862 . S
C1066 C1061 1.501 . S
C1066 H1067 0.961 . S
C1066 H1068 0.961 . S
C1066 H1069 0.960 . S
H1067 C1066 0.961 . S
H1068 C1066 0.961 . S
H1069 C1066 0.960 . S
C1070 N1071 1.342 . S
C1070 C1074 1.401 . S
C1070 C1075 1.499 . S
N1071 Co1054 1.989 . S
N1071 C1070 1.342 . S
N1071 N1072 1.388 . S
N1072 Co1055 1.993 . S
N1072 N1071 1.388 . S
N1072 C1073 1.346 . S
C1073 N1072 1.346 . S
C1073 C1074 1.396 . S
C1073 C1083 1.510 . S
C1074 C1070 1.401 . S
C1074 C1073 1.396 . S
C1075 C1070 1.499 . S
C1075 H1076 0.959 . S
C1075 H1077 0.960 . S
C1075 H1078 0.961 . S
H1076 C1075 0.959 . S
H1077 C1075 0.960 . S
H1078 C1075 0.961 . S
O1079 Co1054 1.967 . S
O1079 C1087 1.258 . S
O1080 Co1055 1.941 . S
O1080 C1087 1.266 . S
H1081 C1083 0.959 . S
H1082 C1083 0.961 . S
C1083 C1073 1.510 . S
C1083 H1081 0.959 . S
C1083 H1082 0.961 . S
C1083 H1084 0.960 . S
H1084 C1083 0.960 . S
H1085 N1065 0.862 . S
O1086 Co1054 1.920 . S
O1086 C1059 1.289 . S
C1087 O1079 1.258 . S
C1087 O1080 1.266 . S
Co1088 O1091 1.970 . S
Co1088 N1105 1.989 . S
Co1088 O1113 1.967 . S
Co1088 O1120 1.920 . S
Co1089 O1092 1.966 . S
Co1089 N1098 2.022 . S
Co1089 N1106 1.993 . S
Co1089 O1114 1.941 . S
C1090 O1091 1.258 . S
C1090 O1092 1.263 . S
O1091 Co1088 1.970 . S
O1091 C1090 1.258 . S
O1092 Co1089 1.966 . S
O1092 C1090 1.263 . S
C1093 O1094 1.235 . S
C1093 O1120 1.289 . S
O1094 C1093 1.235 . S
C1095 C1097 1.400 . S
C1095 N1098 1.351 . S
C1095 C1100 1.501 . S
C1096 C1097 1.387 . S
C1096 N1099 1.341 . S
C1097 C1095 1.400 . S
C1097 C1096 1.387 . S
N1098 Co1089 2.022 . S
N1098 C1095 1.351 . S
N1098 N1099 1.365 . S
N1099 C1096 1.341 . S
N1099 N1098 1.365 . S
N1099 H1119 0.862 . S
C1100 C1095 1.501 . S
C1100 H1101 0.961 . S
C1100 H1102 0.961 . S
C1100 H1103 0.960 . S
H1101 C1100 0.961 . S
H1102 C1100 0.961 . S
H1103 C1100 0.960 . S
C1104 N1105 1.342 . S
C1104 C1108 1.401 . S
C1104 C1109 1.499 . S
N1105 Co1088 1.989 . S
N1105 C1104 1.342 . S
N1105 N1106 1.388 . S
N1106 Co1089 1.993 . S
N1106 N1105 1.388 . S
N1106 C1107 1.346 . S
C1107 N1106 1.346 . S
C1107 C1108 1.396 . S
C1107 C1117 1.510 . S
C1108 C1104 1.401 . S
C1108 C1107 1.396 . S
C1109 C1104 1.499 . S
C1109 H1110 0.959 . S
C1109 H1111 0.960 . S
C1109 H1112 0.961 . S
H1110 C1109 0.959 . S
H1111 C1109 0.960 . S
H1112 C1109 0.961 . S
O1113 Co1088 1.967 . S
O1113 C1121 1.258 . S
O1114 Co1089 1.941 . S
O1114 C1121 1.266 . S
H1115 C1117 0.959 . S
H1116 C1117 0.961 . S
C1117 C1107 1.510 . S
C1117 H1115 0.959 . S
C1117 H1116 0.961 . S
C1117 H1118 0.960 . S
H1118 C1117 0.960 . S
H1119 N1099 0.862 . S
O1120 Co1088 1.920 . S
O1120 C1093 1.289 . S
C1121 O1113 1.258 . S
C1121 O1114 1.266 . S
Co1122 O1125 1.970 . S
Co1122 N1139 1.989 . S
Co1122 O1147 1.967 . S
Co1122 O1154 1.920 . S
Co1123 O1126 1.966 . S
Co1123 N1132 2.022 . S
Co1123 N1140 1.993 . S
Co1123 O1148 1.941 . S
C1124 O1125 1.258 . S
C1124 O1126 1.263 . S
O1125 Co1122 1.970 . S
O1125 C1124 1.258 . S
O1126 Co1123 1.966 . S
O1126 C1124 1.263 . S
C1127 O1128 1.235 . S
C1127 O1154 1.289 . S
O1128 C1127 1.235 . S
C1129 C1131 1.400 . S
C1129 N1132 1.351 . S
C1129 C1134 1.501 . S
C1130 C1131 1.387 . S
C1130 N1133 1.341 . S
C1131 C1129 1.400 . S
C1131 C1130 1.387 . S
N1132 Co1123 2.022 . S
N1132 C1129 1.351 . S
N1132 N1133 1.365 . S
N1133 C1130 1.341 . S
N1133 N1132 1.365 . S
N1133 H1153 0.862 . S
C1134 C1129 1.501 . S
C1134 H1135 0.961 . S
C1134 H1136 0.961 . S
C1134 H1137 0.960 . S
H1135 C1134 0.961 . S
H1136 C1134 0.961 . S
H1137 C1134 0.960 . S
C1138 N1139 1.342 . S
C1138 C1142 1.401 . S
C1138 C1143 1.499 . S
N1139 Co1122 1.989 . S
N1139 C1138 1.342 . S
N1139 N1140 1.388 . S
N1140 Co1123 1.993 . S
N1140 N1139 1.388 . S
N1140 C1141 1.346 . S
C1141 N1140 1.346 . S
C1141 C1142 1.396 . S
C1141 C1151 1.510 . S
C1142 C1138 1.401 . S
C1142 C1141 1.396 . S
C1143 C1138 1.499 . S
C1143 H1144 0.959 . S
C1143 H1145 0.960 . S
C1143 H1146 0.961 . S
H1144 C1143 0.959 . S
H1145 C1143 0.960 . S
H1146 C1143 0.961 . S
O1147 Co1122 1.967 . S
O1147 C1155 1.258 . S
O1148 Co1123 1.941 . S
O1148 C1155 1.266 . S
H1149 C1151 0.959 . S
H1150 C1151 0.961 . S
C1151 C1141 1.510 . S
C1151 H1149 0.959 . S
C1151 H1150 0.961 . S
C1151 H1152 0.960 . S
H1152 C1151 0.960 . S
H1153 N1133 0.862 . S
O1154 Co1122 1.920 . S
O1154 C1127 1.289 . S
C1155 O1147 1.258 . S
C1155 O1148 1.266 . S
Co1156 O1159 1.970 . S
Co1156 N1173 1.989 . S
Co1156 O1181 1.967 . S
Co1156 O1188 1.920 . S
Co1157 O1160 1.966 . S
Co1157 N1166 2.022 . S
Co1157 N1174 1.993 . S
Co1157 O1182 1.941 . S
C1158 O1159 1.258 . S
C1158 O1160 1.263 . S
O1159 Co1156 1.970 . S
O1159 C1158 1.258 . S
O1160 Co1157 1.966 . S
O1160 C1158 1.263 . S
C1161 O1162 1.235 . S
C1161 O1188 1.289 . S
O1162 C1161 1.235 . S
C1163 C1165 1.400 . S
C1163 N1166 1.351 . S
C1163 C1168 1.501 . S
C1164 C1165 1.387 . S
C1164 N1167 1.341 . S
C1165 C1163 1.400 . S
C1165 C1164 1.387 . S
N1166 Co1157 2.022 . S
N1166 C1163 1.351 . S
N1166 N1167 1.365 . S
N1167 C1164 1.341 . S
N1167 N1166 1.365 . S
N1167 H1187 0.862 . S
C1168 C1163 1.501 . S
C1168 H1169 0.961 . S
C1168 H1170 0.961 . S
C1168 H1171 0.960 . S
H1169 C1168 0.961 . S
H1170 C1168 0.961 . S
H1171 C1168 0.960 . S
C1172 N1173 1.342 . S
C1172 C1176 1.401 . S
C1172 C1177 1.499 . S
N1173 Co1156 1.989 . S
N1173 C1172 1.342 . S
N1173 N1174 1.388 . S
N1174 Co1157 1.993 . S
N1174 N1173 1.388 . S
N1174 C1175 1.346 . S
C1175 N1174 1.346 . S
C1175 C1176 1.396 . S
C1175 C1185 1.510 . S
C1176 C1172 1.401 . S
C1176 C1175 1.396 . S
C1177 C1172 1.499 . S
C1177 H1178 0.959 . S
C1177 H1179 0.960 . S
C1177 H1180 0.961 . S
H1178 C1177 0.959 . S
H1179 C1177 0.960 . S
H1180 C1177 0.961 . S
O1181 Co1156 1.967 . S
O1181 C1189 1.258 . S
O1182 Co1157 1.941 . S
O1182 C1189 1.266 . S
H1183 C1185 0.959 . S
H1184 C1185 0.961 . S
C1185 C1175 1.510 . S
C1185 H1183 0.959 . S
C1185 H1184 0.961 . S
C1185 H1186 0.960 . S
H1186 C1185 0.960 . S
H1187 N1167 0.862 . S
O1188 Co1156 1.920 . S
O1188 C1161 1.289 . S
C1189 O1181 1.258 . S
C1189 O1182 1.266 . S
Co1190 O1193 1.970 . S
Co1190 N1207 1.989 . S
Co1190 O1215 1.967 . S
Co1190 O1222 1.920 . S
Co1191 O1194 1.966 . S
Co1191 N1200 2.022 . S
Co1191 N1208 1.993 . S
Co1191 O1216 1.941 . S
C1192 O1193 1.258 . S
C1192 O1194 1.263 . S
O1193 Co1190 1.970 . S
O1193 C1192 1.258 . S
O1194 Co1191 1.966 . S
O1194 C1192 1.263 . S
C1195 O1196 1.235 . S
C1195 O1222 1.289 . S
O1196 C1195 1.235 . S
C1197 C1199 1.400 . S
C1197 N1200 1.351 . S
C1197 C1202 1.501 . S
C1198 C1199 1.387 . S
C1198 N1201 1.341 . S
C1199 C1197 1.400 . S
C1199 C1198 1.387 . S
N1200 Co1191 2.022 . S
N1200 C1197 1.351 . S
N1200 N1201 1.365 . S
N1201 C1198 1.341 . S
N1201 N1200 1.365 . S
N1201 H1221 0.862 . S
C1202 C1197 1.501 . S
C1202 H1203 0.961 . S
C1202 H1204 0.961 . S
C1202 H1205 0.960 . S
H1203 C1202 0.961 . S
H1204 C1202 0.961 . S
H1205 C1202 0.960 . S
C1206 N1207 1.342 . S
C1206 C1210 1.401 . S
C1206 C1211 1.499 . S
N1207 Co1190 1.989 . S
N1207 C1206 1.342 . S
N1207 N1208 1.388 . S
N1208 Co1191 1.993 . S
N1208 N1207 1.388 . S
N1208 C1209 1.346 . S
C1209 N1208 1.346 . S
C1209 C1210 1.396 . S
C1209 C1219 1.510 . S
C1210 C1206 1.401 . S
C1210 C1209 1.396 . S
C1211 C1206 1.499 . S
C1211 H1212 0.959 . S
C1211 H1213 0.960 . S
C1211 H1214 0.961 . S
H1212 C1211 0.959 . S
H1213 C1211 0.960 . S
H1214 C1211 0.961 . S
O1215 Co1190 1.967 . S
O1215 C1223 1.258 . S
O1216 Co1191 1.941 . S
O1216 C1223 1.266 . S
H1217 C1219 0.959 . S
H1218 C1219 0.961 . S
C1219 C1209 1.510 . S
C1219 H1217 0.959 . S
C1219 H1218 0.961 . S
C1219 H1220 0.960 . S
H1220 C1219 0.960 . S
H1221 N1201 0.862 . S
O1222 Co1190 1.920 . S
O1222 C1195 1.289 . S
C1223 O1215 1.258 . S
C1223 O1216 1.266 . S
Co1224 O1227 1.970 . S
Co1224 N1241 1.989 . S
Co1224 O1249 1.967 . S
Co1224 O1256 1.920 . S
Co1225 O1228 1.966 . S
Co1225 N1234 2.022 . S
Co1225 N1242 1.993 . S
Co1225 O1250 1.941 . S
C1226 O1227 1.258 . S
C1226 O1228 1.263 . S
O1227 Co1224 1.970 . S
O1227 C1226 1.258 . S
O1228 Co1225 1.966 . S
O1228 C1226 1.263 . S
C1229 O1230 1.235 . S
C1229 O1256 1.289 . S
O1230 C1229 1.235 . S
C1231 C1233 1.400 . S
C1231 N1234 1.351 . S
C1231 C1236 1.501 . S
C1232 C1233 1.387 . S
C1232 N1235 1.341 . S
C1233 C1231 1.400 . S
C1233 C1232 1.387 . S
N1234 Co1225 2.022 . S
N1234 C1231 1.351 . S
N1234 N1235 1.365 . S
N1235 C1232 1.341 . S
N1235 N1234 1.365 . S
N1235 H1255 0.862 . S
C1236 C1231 1.501 . S
C1236 H1237 0.961 . S
C1236 H1238 0.961 . S
C1236 H1239 0.960 . S
H1237 C1236 0.961 . S
H1238 C1236 0.961 . S
H1239 C1236 0.960 . S
C1240 N1241 1.342 . S
C1240 C1244 1.401 . S
C1240 C1245 1.499 . S
N1241 Co1224 1.989 . S
N1241 C1240 1.342 . S
N1241 N1242 1.388 . S
N1242 Co1225 1.993 . S
N1242 N1241 1.388 . S
N1242 C1243 1.346 . S
C1243 N1242 1.346 . S
C1243 C1244 1.396 . S
C1243 C1253 1.510 . S
C1244 C1240 1.401 . S
C1244 C1243 1.396 . S
C1245 C1240 1.499 . S
C1245 H1246 0.959 . S
C1245 H1247 0.960 . S
C1245 H1248 0.961 . S
H1246 C1245 0.959 . S
H1247 C1245 0.960 . S
H1248 C1245 0.961 . S
O1249 Co1224 1.967 . S
O1249 C1257 1.258 . S
O1250 Co1225 1.941 . S
O1250 C1257 1.266 . S
H1251 C1253 0.959 . S
H1252 C1253 0.961 . S
C1253 C1243 1.510 . S
C1253 H1251 0.959 . S
C1253 H1252 0.961 . S
C1253 H1254 0.960 . S
H1254 C1253 0.960 . S
H1255 N1235 0.862 . S
O1256 Co1224 1.920 . S
O1256 C1229 1.289 . S
C1257 O1249 1.258 . S
C1257 O1250 1.266 . S
Co1258 O1261 1.970 . S
Co1258 N1275 1.989 . S
Co1258 O1283 1.967 . S
Co1258 O1290 1.920 . S
Co1259 O1262 1.966 . S
Co1259 N1268 2.022 . S
Co1259 N1276 1.993 . S
Co1259 O1284 1.941 . S
C1260 O1261 1.258 . S
C1260 O1262 1.263 . S
O1261 Co1258 1.970 . S
O1261 C1260 1.258 . S
O1262 Co1259 1.966 . S
O1262 C1260 1.263 . S
C1263 O1264 1.235 . S
C1263 O1290 1.289 . S
O1264 C1263 1.235 . S
C1265 C1267 1.400 . S
C1265 N1268 1.351 . S
C1265 C1270 1.501 . S
C1266 C1267 1.387 . S
C1266 N1269 1.341 . S
C1267 C1265 1.400 . S
C1267 C1266 1.387 . S
N1268 Co1259 2.022 . S
N1268 C1265 1.351 . S
N1268 N1269 1.365 . S
N1269 C1266 1.341 . S
N1269 N1268 1.365 . S
N1269 H1289 0.862 . S
C1270 C1265 1.501 . S
C1270 H1271 0.961 . S
C1270 H1272 0.961 . S
C1270 H1273 0.960 . S
H1271 C1270 0.961 . S
H1272 C1270 0.961 . S
H1273 C1270 0.960 . S
C1274 N1275 1.342 . S
C1274 C1278 1.401 . S
C1274 C1279 1.499 . S
N1275 Co1258 1.989 . S
N1275 C1274 1.342 . S
N1275 N1276 1.388 . S
N1276 Co1259 1.993 . S
N1276 N1275 1.388 . S
N1276 C1277 1.346 . S
C1277 N1276 1.346 . S
C1277 C1278 1.396 . S
C1277 C1287 1.510 . S
C1278 C1274 1.401 . S
C1278 C1277 1.396 . S
C1279 C1274 1.499 . S
C1279 H1280 0.959 . S
C1279 H1281 0.960 . S
C1279 H1282 0.961 . S
H1280 C1279 0.959 . S
H1281 C1279 0.960 . S
H1282 C1279 0.961 . S
O1283 Co1258 1.967 . S
O1283 C1291 1.258 . S
O1284 Co1259 1.941 . S
O1284 C1291 1.266 . S
H1285 C1287 0.959 . S
H1286 C1287 0.961 . S
C1287 C1277 1.510 . S
C1287 H1285 0.959 . S
C1287 H1286 0.961 . S
C1287 H1288 0.960 . S
H1288 C1287 0.960 . S
H1289 N1269 0.862 . S
O1290 Co1258 1.920 . S
O1290 C1263 1.289 . S
C1291 O1283 1.258 . S
C1291 O1284 1.266 . S
Co1292 O1295 1.970 . S
Co1292 N1309 1.989 . S
Co1292 O1317 1.967 . S
Co1292 O1324 1.920 . S
Co1293 O1296 1.966 . S
Co1293 N1302 2.022 . S
Co1293 N1310 1.993 . S
Co1293 O1318 1.941 . S
C1294 O1295 1.258 . S
C1294 O1296 1.263 . S
O1295 Co1292 1.970 . S
O1295 C1294 1.258 . S
O1296 Co1293 1.966 . S
O1296 C1294 1.263 . S
C1297 O1298 1.235 . S
C1297 O1324 1.289 . S
O1298 C1297 1.235 . S
C1299 C1301 1.400 . S
C1299 N1302 1.351 . S
C1299 C1304 1.501 . S
C1300 C1301 1.387 . S
C1300 N1303 1.341 . S
C1301 C1299 1.400 . S
C1301 C1300 1.387 . S
N1302 Co1293 2.022 . S
N1302 C1299 1.351 . S
N1302 N1303 1.365 . S
N1303 C1300 1.341 . S
N1303 N1302 1.365 . S
N1303 H1323 0.862 . S
C1304 C1299 1.501 . S
C1304 H1305 0.961 . S
C1304 H1306 0.961 . S
C1304 H1307 0.960 . S
H1305 C1304 0.961 . S
H1306 C1304 0.961 . S
H1307 C1304 0.960 . S
C1308 N1309 1.342 . S
C1308 C1312 1.401 . S
C1308 C1313 1.499 . S
N1309 Co1292 1.989 . S
N1309 C1308 1.342 . S
N1309 N1310 1.388 . S
N1310 Co1293 1.993 . S
N1310 N1309 1.388 . S
N1310 C1311 1.346 . S
C1311 N1310 1.346 . S
C1311 C1312 1.396 . S
C1311 C1321 1.510 . S
C1312 C1308 1.401 . S
C1312 C1311 1.396 . S
C1313 C1308 1.499 . S
C1313 H1314 0.959 . S
C1313 H1315 0.960 . S
C1313 H1316 0.961 . S
H1314 C1313 0.959 . S
H1315 C1313 0.960 . S
H1316 C1313 0.961 . S
O1317 Co1292 1.967 . S
O1317 C1325 1.258 . S
O1318 Co1293 1.941 . S
O1318 C1325 1.266 . S
H1319 C1321 0.959 . S
H1320 C1321 0.961 . S
C1321 C1311 1.510 . S
C1321 H1319 0.959 . S
C1321 H1320 0.961 . S
C1321 H1322 0.960 . S
H1322 C1321 0.960 . S
H1323 N1303 0.862 . S
O1324 Co1292 1.920 . S
O1324 C1297 1.289 . S
C1325 O1317 1.258 . S
C1325 O1318 1.266 . S
Co1326 O1329 1.970 . S
Co1326 N1343 1.989 . S
Co1326 O1351 1.967 . S
Co1326 O1358 1.920 . S
Co1327 O1330 1.966 . S
Co1327 N1336 2.022 . S
Co1327 N1344 1.993 . S
Co1327 O1352 1.941 . S
C1328 O1329 1.258 . S
C1328 O1330 1.263 . S
O1329 Co1326 1.970 . S
O1329 C1328 1.258 . S
O1330 Co1327 1.966 . S
O1330 C1328 1.263 . S
C1331 O1332 1.235 . S
C1331 O1358 1.289 . S
O1332 C1331 1.235 . S
C1333 C1335 1.400 . S
C1333 N1336 1.351 . S
C1333 C1338 1.501 . S
C1334 C1335 1.387 . S
C1334 N1337 1.341 . S
C1335 C1333 1.400 . S
C1335 C1334 1.387 . S
N1336 Co1327 2.022 . S
N1336 C1333 1.351 . S
N1336 N1337 1.365 . S
N1337 C1334 1.341 . S
N1337 N1336 1.365 . S
N1337 H1357 0.862 . S
C1338 C1333 1.501 . S
C1338 H1339 0.961 . S
C1338 H1340 0.961 . S
C1338 H1341 0.960 . S
H1339 C1338 0.961 . S
H1340 C1338 0.961 . S
H1341 C1338 0.960 . S
C1342 N1343 1.342 . S
C1342 C1346 1.401 . S
C1342 C1347 1.499 . S
N1343 Co1326 1.989 . S
N1343 C1342 1.342 . S
N1343 N1344 1.388 . S
N1344 Co1327 1.993 . S
N1344 N1343 1.388 . S
N1344 C1345 1.346 . S
C1345 N1344 1.346 . S
C1345 C1346 1.396 . S
C1345 C1355 1.510 . S
C1346 C1342 1.401 . S
C1346 C1345 1.396 . S
C1347 C1342 1.499 . S
C1347 H1348 0.959 . S
C1347 H1349 0.960 . S
C1347 H1350 0.961 . S
H1348 C1347 0.959 . S
H1349 C1347 0.960 . S
H1350 C1347 0.961 . S
O1351 Co1326 1.967 . S
O1351 C1359 1.258 . S
O1352 Co1327 1.941 . S
O1352 C1359 1.266 . S
H1353 C1355 0.959 . S
H1354 C1355 0.961 . S
C1355 C1345 1.510 . S
C1355 H1353 0.959 . S
C1355 H1354 0.961 . S
C1355 H1356 0.960 . S
H1356 C1355 0.960 . S
H1357 N1337 0.862 . S
O1358 Co1326 1.920 . S
O1358 C1331 1.289 . S
C1359 O1351 1.258 . S
C1359 O1352 1.266 . S
Co1360 O1363 1.970 . S
Co1360 N1377 1.989 . S
Co1360 O1385 1.967 . S
Co1360 O1392 1.920 . S
Co1361 O1364 1.966 . S
Co1361 N1370 2.022 . S
Co1361 N1378 1.993 . S
Co1361 O1386 1.941 . S
C1362 O1363 1.258 . S
C1362 O1364 1.263 . S
O1363 Co1360 1.970 . S
O1363 C1362 1.258 . S
O1364 Co1361 1.966 . S
O1364 C1362 1.263 . S
C1365 O1366 1.235 . S
C1365 O1392 1.289 . S
O1366 C1365 1.235 . S
C1367 C1369 1.400 . S
C1367 N1370 1.351 . S
C1367 C1372 1.501 . S
C1368 C1369 1.387 . S
C1368 N1371 1.341 . S
C1369 C1367 1.400 . S
C1369 C1368 1.387 . S
N1370 Co1361 2.022 . S
N1370 C1367 1.351 . S
N1370 N1371 1.365 . S
N1371 C1368 1.341 . S
N1371 N1370 1.365 . S
N1371 H1391 0.862 . S
C1372 C1367 1.501 . S
C1372 H1373 0.961 . S
C1372 H1374 0.961 . S
C1372 H1375 0.960 . S
H1373 C1372 0.961 . S
H1374 C1372 0.961 . S
H1375 C1372 0.960 . S
C1376 N1377 1.342 . S
C1376 C1380 1.401 . S
C1376 C1381 1.499 . S
N1377 Co1360 1.989 . S
N1377 C1376 1.342 . S
N1377 N1378 1.388 . S
N1378 Co1361 1.993 . S
N1378 N1377 1.388 . S
N1378 C1379 1.346 . S
C1379 N1378 1.346 . S
C1379 C1380 1.396 . S
C1379 C1389 1.510 . S
C1380 C1376 1.401 . S
C1380 C1379 1.396 . S
C1381 C1376 1.499 . S
C1381 H1382 0.959 . S
C1381 H1383 0.960 . S
C1381 H1384 0.961 . S
H1382 C1381 0.959 . S
H1383 C1381 0.960 . S
H1384 C1381 0.961 . S
O1385 Co1360 1.967 . S
O1385 C1393 1.258 . S
O1386 Co1361 1.941 . S
O1386 C1393 1.266 . S
H1387 C1389 0.959 . S
H1388 C1389 0.961 . S
C1389 C1379 1.510 . S
C1389 H1387 0.959 . S
C1389 H1388 0.961 . S
C1389 H1390 0.960 . S
H1390 C1389 0.960 . S
H1391 N1371 0.862 . S
O1392 Co1360 1.920 . S
O1392 C1365 1.289 . S
C1393 O1385 1.258 . S
C1393 O1386 1.266 . S
Co1394 O1397 1.970 . S
Co1394 N1411 1.989 . S
Co1394 O1419 1.967 . S
Co1394 O1426 1.920 . S
Co1395 O1398 1.966 . S
Co1395 N1404 2.022 . S
Co1395 N1412 1.993 . S
Co1395 O1420 1.941 . S
C1396 O1397 1.258 . S
C1396 O1398 1.263 . S
O1397 Co1394 1.970 . S
O1397 C1396 1.258 . S
O1398 Co1395 1.966 . S
O1398 C1396 1.263 . S
C1399 O1400 1.235 . S
C1399 O1426 1.289 . S
O1400 C1399 1.235 . S
C1401 C1403 1.400 . S
C1401 N1404 1.351 . S
C1401 C1406 1.501 . S
C1402 C1403 1.387 . S
C1402 N1405 1.341 . S
C1403 C1401 1.400 . S
C1403 C1402 1.387 . S
N1404 Co1395 2.022 . S
N1404 C1401 1.351 . S
N1404 N1405 1.365 . S
N1405 C1402 1.341 . S
N1405 N1404 1.365 . S
N1405 H1425 0.862 . S
C1406 C1401 1.501 . S
C1406 H1407 0.961 . S
C1406 H1408 0.961 . S
C1406 H1409 0.960 . S
H1407 C1406 0.961 . S
H1408 C1406 0.961 . S
H1409 C1406 0.960 . S
C1410 N1411 1.342 . S
C1410 C1414 1.401 . S
C1410 C1415 1.499 . S
N1411 Co1394 1.989 . S
N1411 C1410 1.342 . S
N1411 N1412 1.388 . S
N1412 Co1395 1.993 . S
N1412 N1411 1.388 . S
N1412 C1413 1.346 . S
C1413 N1412 1.346 . S
C1413 C1414 1.396 . S
C1413 C1423 1.510 . S
C1414 C1410 1.401 . S
C1414 C1413 1.396 . S
C1415 C1410 1.499 . S
C1415 H1416 0.959 . S
C1415 H1417 0.960 . S
C1415 H1418 0.961 . S
H1416 C1415 0.959 . S
H1417 C1415 0.960 . S
H1418 C1415 0.961 . S
O1419 Co1394 1.967 . S
O1419 C1427 1.258 . S
O1420 Co1395 1.941 . S
O1420 C1427 1.266 . S
H1421 C1423 0.959 . S
H1422 C1423 0.961 . S
C1423 C1413 1.510 . S
C1423 H1421 0.959 . S
C1423 H1422 0.961 . S
C1423 H1424 0.960 . S
H1424 C1423 0.960 . S
H1425 N1405 0.862 . S
O1426 Co1394 1.920 . S
O1426 C1399 1.289 . S
C1427 O1419 1.258 . S
C1427 O1420 1.266 . S
Co1428 O1431 1.970 . S
Co1428 N1445 1.989 . S
Co1428 O1453 1.967 . S
Co1428 O1460 1.920 . S
Co1429 O1432 1.966 . S
Co1429 N1438 2.022 . S
Co1429 N1446 1.993 . S
Co1429 O1454 1.941 . S
C1430 O1431 1.258 . S
C1430 O1432 1.263 . S
O1431 Co1428 1.970 . S
O1431 C1430 1.258 . S
O1432 Co1429 1.966 . S
O1432 C1430 1.263 . S
C1433 O1434 1.235 . S
C1433 O1460 1.289 . S
O1434 C1433 1.235 . S
C1435 C1437 1.400 . S
C1435 N1438 1.351 . S
C1435 C1440 1.501 . S
C1436 C1437 1.387 . S
C1436 N1439 1.341 . S
C1437 C1435 1.400 . S
C1437 C1436 1.387 . S
N1438 Co1429 2.022 . S
N1438 C1435 1.351 . S
N1438 N1439 1.365 . S
N1439 C1436 1.341 . S
N1439 N1438 1.365 . S
N1439 H1459 0.862 . S
C1440 C1435 1.501 . S
C1440 H1441 0.961 . S
C1440 H1442 0.961 . S
C1440 H1443 0.960 . S
H1441 C1440 0.961 . S
H1442 C1440 0.961 . S
H1443 C1440 0.960 . S
C1444 N1445 1.342 . S
C1444 C1448 1.401 . S
C1444 C1449 1.499 . S
N1445 Co1428 1.989 . S
N1445 C1444 1.342 . S
N1445 N1446 1.388 . S
N1446 Co1429 1.993 . S
N1446 N1445 1.388 . S
N1446 C1447 1.346 . S
C1447 N1446 1.346 . S
C1447 C1448 1.396 . S
C1447 C1457 1.510 . S
C1448 C1444 1.401 . S
C1448 C1447 1.396 . S
C1449 C1444 1.499 . S
C1449 H1450 0.959 . S
C1449 H1451 0.960 . S
C1449 H1452 0.961 . S
H1450 C1449 0.959 . S
H1451 C1449 0.960 . S
H1452 C1449 0.961 . S
O1453 Co1428 1.967 . S
O1453 C1461 1.258 . S
O1454 Co1429 1.941 . S
O1454 C1461 1.266 . S
H1455 C1457 0.959 . S
H1456 C1457 0.961 . S
C1457 C1447 1.510 . S
C1457 H1455 0.959 . S
C1457 H1456 0.961 . S
C1457 H1458 0.960 . S
H1458 C1457 0.960 . S
H1459 N1439 0.862 . S
O1460 Co1428 1.920 . S
O1460 C1433 1.289 . S
C1461 O1453 1.258 . S
C1461 O1454 1.266 . S
Co1462 O1465 1.970 . S
Co1462 N1479 1.989 . S
Co1462 O1487 1.967 . S
Co1462 O1494 1.920 . S
Co1463 O1466 1.966 . S
Co1463 N1472 2.022 . S
Co1463 N1480 1.993 . S
Co1463 O1488 1.941 . S
C1464 O1465 1.258 . S
C1464 O1466 1.263 . S
O1465 Co1462 1.970 . S
O1465 C1464 1.258 . S
O1466 Co1463 1.966 . S
O1466 C1464 1.263 . S
C1467 O1468 1.235 . S
C1467 O1494 1.289 . S
O1468 C1467 1.235 . S
C1469 C1471 1.400 . S
C1469 N1472 1.351 . S
C1469 C1474 1.501 . S
C1470 C1471 1.387 . S
C1470 N1473 1.341 . S
C1471 C1469 1.400 . S
C1471 C1470 1.387 . S
N1472 Co1463 2.022 . S
N1472 C1469 1.351 . S
N1472 N1473 1.365 . S
N1473 C1470 1.341 . S
N1473 N1472 1.365 . S
N1473 H1493 0.862 . S
C1474 C1469 1.501 . S
C1474 H1475 0.961 . S
C1474 H1476 0.961 . S
C1474 H1477 0.960 . S
H1475 C1474 0.961 . S
H1476 C1474 0.961 . S
H1477 C1474 0.960 . S
C1478 N1479 1.342 . S
C1478 C1482 1.401 . S
C1478 C1483 1.499 . S
N1479 Co1462 1.989 . S
N1479 C1478 1.342 . S
N1479 N1480 1.388 . S
N1480 Co1463 1.993 . S
N1480 N1479 1.388 . S
N1480 C1481 1.346 . S
C1481 N1480 1.346 . S
C1481 C1482 1.396 . S
C1481 C1491 1.510 . S
C1482 C1478 1.401 . S
C1482 C1481 1.396 . S
C1483 C1478 1.499 . S
C1483 H1484 0.959 . S
C1483 H1485 0.960 . S
C1483 H1486 0.961 . S
H1484 C1483 0.959 . S
H1485 C1483 0.960 . S
H1486 C1483 0.961 . S
O1487 Co1462 1.967 . S
O1487 C1495 1.258 . S
O1488 Co1463 1.941 . S
O1488 C1495 1.266 . S
H1489 C1491 0.959 . S
H1490 C1491 0.961 . S
C1491 C1481 1.510 . S
C1491 H1489 0.959 . S
C1491 H1490 0.961 . S
C1491 H1492 0.960 . S
H1492 C1491 0.960 . S
H1493 N1473 0.862 . S
O1494 Co1462 1.920 . S
O1494 C1467 1.289 . S
C1495 O1487 1.258 . S
C1495 O1488 1.266 . S
Co1496 O1499 1.970 . S
Co1496 N1513 1.989 . S
Co1496 O1521 1.967 . S
Co1496 O1528 1.920 . S
Co1497 O1500 1.966 . S
Co1497 N1506 2.022 . S
Co1497 N1514 1.993 . S
Co1497 O1522 1.941 . S
C1498 O1499 1.258 . S
C1498 O1500 1.263 . S
O1499 Co1496 1.970 . S
O1499 C1498 1.258 . S
O1500 Co1497 1.966 . S
O1500 C1498 1.263 . S
C1501 O1502 1.235 . S
C1501 O1528 1.289 . S
O1502 C1501 1.235 . S
C1503 C1505 1.400 . S
C1503 N1506 1.351 . S
C1503 C1508 1.501 . S
C1504 C1505 1.387 . S
C1504 N1507 1.341 . S
C1505 C1503 1.400 . S
C1505 C1504 1.387 . S
N1506 Co1497 2.022 . S
N1506 C1503 1.351 . S
N1506 N1507 1.365 . S
N1507 C1504 1.341 . S
N1507 N1506 1.365 . S
N1507 H1527 0.862 . S
C1508 C1503 1.501 . S
C1508 H1509 0.961 . S
C1508 H1510 0.961 . S
C1508 H1511 0.960 . S
H1509 C1508 0.961 . S
H1510 C1508 0.961 . S
H1511 C1508 0.960 . S
C1512 N1513 1.342 . S
C1512 C1516 1.401 . S
C1512 C1517 1.499 . S
N1513 Co1496 1.989 . S
N1513 C1512 1.342 . S
N1513 N1514 1.388 . S
N1514 Co1497 1.993 . S
N1514 N1513 1.388 . S
N1514 C1515 1.346 . S
C1515 N1514 1.346 . S
C1515 C1516 1.396 . S
C1515 C1525 1.510 . S
C1516 C1512 1.401 . S
C1516 C1515 1.396 . S
C1517 C1512 1.499 . S
C1517 H1518 0.959 . S
C1517 H1519 0.960 . S
C1517 H1520 0.961 . S
H1518 C1517 0.959 . S
H1519 C1517 0.960 . S
H1520 C1517 0.961 . S
O1521 Co1496 1.967 . S
O1521 C1529 1.258 . S
O1522 Co1497 1.941 . S
O1522 C1529 1.266 . S
H1523 C1525 0.959 . S
H1524 C1525 0.961 . S
C1525 C1515 1.510 . S
C1525 H1523 0.959 . S
C1525 H1524 0.961 . S
C1525 H1526 0.960 . S
H1526 C1525 0.960 . S
H1527 N1507 0.862 . S
O1528 Co1496 1.920 . S
O1528 C1501 1.289 . S
C1529 O1521 1.258 . S
C1529 O1522 1.266 . S
Co1530 O1533 1.970 . S
Co1530 N1547 1.989 . S
Co1530 O1555 1.967 . S
Co1530 O1562 1.920 . S
Co1531 O1534 1.966 . S
Co1531 N1540 2.022 . S
Co1531 N1548 1.993 . S
Co1531 O1556 1.941 . S
C1532 O1533 1.258 . S
C1532 O1534 1.263 . S
O1533 Co1530 1.970 . S
O1533 C1532 1.258 . S
O1534 Co1531 1.966 . S
O1534 C1532 1.263 . S
C1535 O1536 1.235 . S
C1535 O1562 1.289 . S
O1536 C1535 1.235 . S
C1537 C1539 1.400 . S
C1537 N1540 1.351 . S
C1537 C1542 1.501 . S
C1538 C1539 1.387 . S
C1538 N1541 1.341 . S
C1539 C1537 1.400 . S
C1539 C1538 1.387 . S
N1540 Co1531 2.022 . S
N1540 C1537 1.351 . S
N1540 N1541 1.365 . S
N1541 C1538 1.341 . S
N1541 N1540 1.365 . S
N1541 H1561 0.862 . S
C1542 C1537 1.501 . S
C1542 H1543 0.961 . S
C1542 H1544 0.961 . S
C1542 H1545 0.960 . S
H1543 C1542 0.961 . S
H1544 C1542 0.961 . S
H1545 C1542 0.960 . S
C1546 N1547 1.342 . S
C1546 C1550 1.401 . S
C1546 C1551 1.499 . S
N1547 Co1530 1.989 . S
N1547 C1546 1.342 . S
N1547 N1548 1.388 . S
N1548 Co1531 1.993 . S
N1548 N1547 1.388 . S
N1548 C1549 1.346 . S
C1549 N1548 1.346 . S
C1549 C1550 1.396 . S
C1549 C1559 1.510 . S
C1550 C1546 1.401 . S
C1550 C1549 1.396 . S
C1551 C1546 1.499 . S
C1551 H1552 0.959 . S
C1551 H1553 0.960 . S
C1551 H1554 0.961 . S
H1552 C1551 0.959 . S
H1553 C1551 0.960 . S
H1554 C1551 0.961 . S
O1555 Co1530 1.967 . S
O1555 C1563 1.258 . S
O1556 Co1531 1.941 . S
O1556 C1563 1.266 . S
H1557 C1559 0.959 . S
H1558 C1559 0.961 . S
C1559 C1549 1.510 . S
C1559 H1557 0.959 . S
C1559 H1558 0.961 . S
C1559 H1560 0.960 . S
H1560 C1559 0.960 . S
H1561 N1541 0.862 . S
O1562 Co1530 1.920 . S
O1562 C1535 1.289 . S
C1563 O1555 1.258 . S
C1563 O1556 1.266 . S
Co1564 O1567 1.970 . S
Co1564 N1581 1.989 . S
Co1564 O1589 1.967 . S
Co1564 O1596 1.920 . S
Co1565 O1568 1.966 . S
Co1565 N1574 2.022 . S
Co1565 N1582 1.993 . S
Co1565 O1590 1.941 . S
C1566 O1567 1.258 . S
C1566 O1568 1.263 . S
O1567 Co1564 1.970 . S
O1567 C1566 1.258 . S
O1568 Co1565 1.966 . S
O1568 C1566 1.263 . S
C1569 O1570 1.235 . S
C1569 O1596 1.289 . S
O1570 C1569 1.235 . S
C1571 C1573 1.400 . S
C1571 N1574 1.351 . S
C1571 C1576 1.501 . S
C1572 C1573 1.387 . S
C1572 N1575 1.341 . S
C1573 C1571 1.400 . S
C1573 C1572 1.387 . S
N1574 Co1565 2.022 . S
N1574 C1571 1.351 . S
N1574 N1575 1.365 . S
N1575 C1572 1.341 . S
N1575 N1574 1.365 . S
N1575 H1595 0.862 . S
C1576 C1571 1.501 . S
C1576 H1577 0.961 . S
C1576 H1578 0.961 . S
C1576 H1579 0.960 . S
H1577 C1576 0.961 . S
H1578 C1576 0.961 . S
H1579 C1576 0.960 . S
C1580 N1581 1.342 . S
C1580 C1584 1.401 . S
C1580 C1585 1.499 . S
N1581 Co1564 1.989 . S
N1581 C1580 1.342 . S
N1581 N1582 1.388 . S
N1582 Co1565 1.993 . S
N1582 N1581 1.388 . S
N1582 C1583 1.346 . S
C1583 N1582 1.346 . S
C1583 C1584 1.396 . S
C1583 C1593 1.510 . S
C1584 C1580 1.401 . S
C1584 C1583 1.396 . S
C1585 C1580 1.499 . S
C1585 H1586 0.959 . S
C1585 H1587 0.960 . S
C1585 H1588 0.961 . S
H1586 C1585 0.959 . S
H1587 C1585 0.960 . S
H1588 C1585 0.961 . S
O1589 Co1564 1.967 . S
O1589 C1597 1.258 . S
O1590 Co1565 1.941 . S
O1590 C1597 1.266 . S
H1591 C1593 0.959 . S
H1592 C1593 0.961 . S
C1593 C1583 1.510 . S
C1593 H1591 0.959 . S
C1593 H1592 0.961 . S
C1593 H1594 0.960 . S
H1594 C1593 0.960 . S
H1595 N1575 0.862 . S
O1596 Co1564 1.920 . S
O1596 C1569 1.289 . S
C1597 O1589 1.258 . S
C1597 O1590 1.266 . S
Co1598 O1601 1.970 . S
Co1598 N1615 1.989 . S
Co1598 O1623 1.967 . S
Co1598 O1630 1.920 . S
Co1599 O1602 1.966 . S
Co1599 N1608 2.022 . S
Co1599 N1616 1.993 . S
Co1599 O1624 1.941 . S
C1600 O1601 1.258 . S
C1600 O1602 1.263 . S
O1601 Co1598 1.970 . S
O1601 C1600 1.258 . S
O1602 Co1599 1.966 . S
O1602 C1600 1.263 . S
C1603 O1604 1.235 . S
C1603 O1630 1.289 . S
O1604 C1603 1.235 . S
C1605 C1607 1.400 . S
C1605 N1608 1.351 . S
C1605 C1610 1.501 . S
C1606 C1607 1.387 . S
C1606 N1609 1.341 . S
C1607 C1605 1.400 . S
C1607 C1606 1.387 . S
N1608 Co1599 2.022 . S
N1608 C1605 1.351 . S
N1608 N1609 1.365 . S
N1609 C1606 1.341 . S
N1609 N1608 1.365 . S
N1609 H1629 0.862 . S
C1610 C1605 1.501 . S
C1610 H1611 0.961 . S
C1610 H1612 0.961 . S
C1610 H1613 0.960 . S
H1611 C1610 0.961 . S
H1612 C1610 0.961 . S
H1613 C1610 0.960 . S
C1614 N1615 1.342 . S
C1614 C1618 1.401 . S
C1614 C1619 1.499 . S
N1615 Co1598 1.989 . S
N1615 C1614 1.342 . S
N1615 N1616 1.388 . S
N1616 Co1599 1.993 . S
N1616 N1615 1.388 . S
N1616 C1617 1.346 . S
C1617 N1616 1.346 . S
C1617 C1618 1.396 . S
C1617 C1627 1.510 . S
C1618 C1614 1.401 . S
C1618 C1617 1.396 . S
C1619 C1614 1.499 . S
C1619 H1620 0.959 . S
C1619 H1621 0.960 . S
C1619 H1622 0.961 . S
H1620 C1619 0.959 . S
H1621 C1619 0.960 . S
H1622 C1619 0.961 . S
O1623 Co1598 1.967 . S
O1623 C1631 1.258 . S
O1624 Co1599 1.941 . S
O1624 C1631 1.266 . S
H1625 C1627 0.959 . S
H1626 C1627 0.961 . S
C1627 C1617 1.510 . S
C1627 H1625 0.959 . S
C1627 H1626 0.961 . S
C1627 H1628 0.960 . S
H1628 C1627 0.960 . S
H1629 N1609 0.862 . S
O1630 Co1598 1.920 . S
O1630 C1603 1.289 . S
C1631 O1623 1.258 . S
C1631 O1624 1.266 . S
H1632 C1638 0.930 . S
H1633 C1642 0.930 . S
H1634 C1647 0.929 . S
H1635 C1645 0.929 . S
H1636 C1640 0.929 . S
H1637 C1646 0.929 . S
C1638 H1632 0.930 . S
C1638 C1639 1.367 . S
C1638 C1646 1.378 1_556 S
C1639 C1638 1.367 . S
C1639 C1647 1.433 . S
C1640 H1636 0.929 . S
C1640 C1642 1.378 . S
C1640 C1644 1.350 . S
C1641 C1644 1.463 . S
C1641 C1646 1.350 . S
C1641 N1649 1.427 . S
C1642 H1633 0.930 . S
C1642 C1640 1.378 . S
C1642 C1643 1.367 . S
C1643 C1642 1.367 . S
C1643 C1645 1.433 . S
C1644 C1640 1.350 . S
C1644 C1641 1.463 . S
C1644 N1648 1.427 . S
C1645 H1635 0.929 . S
C1645 C1643 1.433 . S
C1645 N1648 1.384 . S
C1646 H1637 0.929 . S
C1646 C1638 1.378 1_554 S
C1646 C1641 1.350 . S
C1647 H1634 0.929 . S
C1647 C1639 1.433 . S
C1647 N1649 1.384 1_556 S
N1648 C1644 1.427 . S
N1648 C1645 1.384 . S
N1649 C1641 1.427 . S
N1649 C1647 1.384 1_554 S
H1650 C1656 0.930 . S
H1651 C1660 0.930 . S
H1652 C1665 0.929 . S
H1653 C1663 0.929 . S
H1654 C1658 0.929 . S
H1655 C1664 0.929 . S
C1656 H1650 0.930 . S
C1656 C1657 1.367 . S
C1656 C1664 1.378 . S
C1657 C1656 1.367 . S
C1657 C1665 1.433 . S
C1658 H1654 0.929 . S
C1658 C1660 1.378 1_554 S
C1658 C1662 1.350 . S
C1659 C1662 1.463 . S
C1659 C1664 1.350 . S
C1659 N1667 1.427 . S
C1660 H1651 0.930 . S
C1660 C1658 1.378 1_556 S
C1660 C1661 1.367 . S
C1661 C1660 1.367 . S
C1661 C1663 1.433 . S
C1662 C1658 1.350 . S
C1662 C1659 1.463 . S
C1662 N1666 1.427 . S
C1663 H1653 0.929 . S
C1663 C1661 1.433 . S
C1663 N1666 1.384 1_556 S
C1664 H1655 0.929 . S
C1664 C1656 1.378 . S
C1664 C1659 1.350 . S
C1665 H1652 0.929 . S
C1665 C1657 1.433 . S
C1665 N1667 1.384 . S
N1666 C1662 1.427 . S
N1666 C1663 1.384 1_554 S
N1667 C1659 1.427 . S
N1667 C1665 1.384 . S
H1668 C1674 0.930 . S
H1669 C1678 0.930 . S
H1670 C1683 0.929 . S
H1671 C1681 0.929 . S
H1672 C1676 0.929 . S
H1673 C1682 0.929 . S
C1674 H1668 0.930 . S
C1674 C1675 1.367 . S
C1674 C1682 1.378 . S
C1675 C1674 1.367 . S
C1675 C1683 1.433 . S
C1676 H1672 0.929 . S
C1676 C1678 1.378 1_554 S
C1676 C1680 1.350 . S
C1677 C1680 1.463 . S
C1677 C1682 1.350 . S
C1677 N1685 1.427 . S
C1678 H1669 0.930 . S
C1678 C1676 1.378 1_556 S
C1678 C1679 1.367 . S
C1679 C1678 1.367 . S
C1679 C1681 1.433 . S
C1680 C1676 1.350 . S
C1680 C1677 1.463 . S
C1680 N1684 1.427 . S
C1681 H1671 0.929 . S
C1681 C1679 1.433 . S
C1681 N1684 1.384 1_556 S
C1682 H1673 0.929 . S
C1682 C1674 1.378 . S
C1682 C1677 1.350 . S
C1683 H1670 0.929 . S
C1683 C1675 1.433 . S
C1683 N1685 1.384 . S
N1684 C1680 1.427 . S
N1684 C1681 1.384 1_554 S
N1685 C1677 1.427 . S
N1685 C1683 1.384 . S
H1686 C1692 0.930 . S
H1687 C1696 0.930 . S
H1688 C1701 0.929 . S
H1689 C1699 0.929 . S
H1690 C1694 0.929 . S
H1691 C1700 0.929 . S
C1692 H1686 0.930 . S
C1692 C1693 1.367 . S
C1692 C1700 1.378 1_556 S
C1693 C1692 1.367 . S
C1693 C1701 1.433 . S
C1694 H1690 0.929 . S
C1694 C1696 1.378 . S
C1694 C1698 1.350 . S
C1695 C1698 1.463 . S
C1695 C1700 1.350 . S
C1695 N1703 1.427 . S
C1696 H1687 0.930 . S
C1696 C1694 1.378 . S
C1696 C1697 1.367 . S
C1697 C1696 1.367 . S
C1697 C1699 1.433 . S
C1698 C1694 1.350 . S
C1698 C1695 1.463 . S
C1698 N1702 1.427 . S
C1699 H1689 0.929 . S
C1699 C1697 1.433 . S
C1699 N1702 1.384 . S
C1700 H1691 0.929 . S
C1700 C1692 1.378 1_554 S
C1700 C1695 1.350 . S
C1701 H1688 0.929 . S
C1701 C1693 1.433 . S
C1701 N1703 1.384 1_556 S
N1702 C1698 1.427 . S
N1702 C1699 1.384 . S
N1703 C1695 1.427 . S
N1703 C1701 1.384 1_554 S
H1704 C1710 0.930 . S
H1705 C1714 0.930 . S
H1706 C1719 0.929 . S
H1707 C1717 0.929 . S
H1708 C1712 0.929 . S
H1709 C1718 0.929 . S
C1710 H1704 0.930 . S
C1710 C1711 1.367 . S
C1710 C1718 1.378 1_554 S
C1711 C1710 1.367 . S
C1711 C1719 1.433 . S
C1712 H1708 0.929 . S
C1712 C1714 1.378 . S
C1712 C1716 1.350 . S
C1713 C1716 1.463 . S
C1713 C1718 1.350 . S
C1713 N1721 1.427 . S
C1714 H1705 0.930 . S
C1714 C1712 1.378 . S
C1714 C1715 1.367 . S
C1715 C1714 1.367 . S
C1715 C1717 1.433 . S
C1716 C1712 1.350 . S
C1716 C1713 1.463 . S
C1716 N1720 1.427 . S
C1717 H1707 0.929 . S
C1717 C1715 1.433 . S
C1717 N1720 1.384 . S
C1718 H1709 0.929 . S
C1718 C1710 1.378 1_556 S
C1718 C1713 1.350 . S
C1719 H1706 0.929 . S
C1719 C1711 1.433 . S
C1719 N1721 1.384 1_554 S
N1720 C1716 1.427 . S
N1720 C1717 1.384 . S
N1721 C1713 1.427 . S
N1721 C1719 1.384 1_556 S
H1722 C1728 0.930 . S
H1723 C1732 0.930 . S
H1724 C1737 0.929 . S
H1725 C1735 0.929 . S
H1726 C1730 0.929 . S
H1727 C1736 0.929 . S
C1728 H1722 0.930 . S
C1728 C1729 1.367 . S
C1728 C1736 1.378 . S
C1729 C1728 1.367 . S
C1729 C1737 1.433 . S
C1730 H1726 0.929 . S
C1730 C1732 1.378 1_556 S
C1730 C1734 1.350 . S
C1731 C1734 1.463 . S
C1731 C1736 1.350 . S
C1731 N1739 1.427 . S
C1732 H1723 0.930 . S
C1732 C1730 1.378 1_554 S
C1732 C1733 1.367 . S
C1733 C1732 1.367 . S
C1733 C1735 1.433 . S
C1734 C1730 1.350 . S
C1734 C1731 1.463 . S
C1734 N1738 1.427 . S
C1735 H1725 0.929 . S
C1735 C1733 1.433 . S
C1735 N1738 1.384 1_554 S
C1736 H1727 0.929 . S
C1736 C1728 1.378 . S
C1736 C1731 1.350 . S
C1737 H1724 0.929 . S
C1737 C1729 1.433 . S
C1737 N1739 1.384 . S
N1738 C1734 1.427 . S
N1738 C1735 1.384 1_556 S
N1739 C1731 1.427 . S
N1739 C1737 1.384 . S
H1740 C1746 0.930 . S
H1741 C1750 0.930 . S
H1742 C1755 0.929 . S
H1743 C1753 0.929 . S
H1744 C1748 0.929 . S
H1745 C1754 0.929 . S
C1746 H1740 0.930 . S
C1746 C1747 1.367 . S
C1746 C1754 1.378 1_554 S
C1747 C1746 1.367 . S
C1747 C1755 1.433 . S
C1748 H1744 0.929 . S
C1748 C1750 1.378 . S
C1748 C1752 1.350 . S
C1749 C1752 1.463 . S
C1749 C1754 1.350 . S
C1749 N1757 1.427 . S
C1750 H1741 0.930 . S
C1750 C1748 1.378 . S
C1750 C1751 1.367 . S
C1751 C1750 1.367 . S
C1751 C1753 1.433 . S
C1752 C1748 1.350 . S
C1752 C1749 1.463 . S
C1752 N1756 1.427 . S
C1753 H1743 0.929 . S
C1753 C1751 1.433 . S
C1753 N1756 1.384 . S
C1754 H1745 0.929 . S
C1754 C1746 1.378 1_556 S
C1754 C1749 1.350 . S
C1755 H1742 0.929 . S
C1755 C1747 1.433 . S
C1755 N1757 1.384 1_554 S
N1756 C1752 1.427 . S
N1756 C1753 1.384 . S
N1757 C1749 1.427 . S
N1757 C1755 1.384 1_556 S
H1758 C1764 0.930 . S
H1759 C1768 0.930 . S
H1760 C1773 0.929 . S
H1761 C1771 0.929 . S
H1762 C1766 0.929 . S
H1763 C1772 0.929 . S
C1764 H1758 0.930 . S
C1764 C1765 1.367 . S
C1764 C1772 1.378 1_554 S
C1765 C1764 1.367 . S
C1765 C1773 1.433 . S
C1766 H1762 0.929 . S
C1766 C1768 1.378 . S
C1766 C1770 1.350 . S
C1767 C1770 1.463 . S
C1767 C1772 1.350 . S
C1767 N1775 1.427 . S
C1768 H1759 0.930 . S
C1768 C1766 1.378 . S
C1768 C1769 1.367 . S
C1769 C1768 1.367 . S
C1769 C1771 1.433 . S
C1770 C1766 1.350 . S
C1770 C1767 1.463 . S
C1770 N1774 1.427 . S
C1771 H1761 0.929 . S
C1771 C1769 1.433 . S
C1771 N1774 1.384 . S
C1772 H1763 0.929 . S
C1772 C1764 1.378 1_556 S
C1772 C1767 1.350 . S
C1773 H1760 0.929 . S
C1773 C1765 1.433 . S
C1773 N1775 1.384 1_554 S
N1774 C1770 1.427 . S
N1774 C1771 1.384 . S
N1775 C1767 1.427 . S
N1775 C1773 1.384 1_556 S
H1776 C1782 0.930 . S
H1777 C1786 0.930 . S
H1778 C1791 0.929 . S
H1779 C1789 0.929 . S
H1780 C1784 0.929 . S
H1781 C1790 0.929 . S
C1782 H1776 0.930 . S
C1782 C1783 1.367 . S
C1782 C1790 1.378 . S
C1783 C1782 1.367 . S
C1783 C1791 1.433 . S
C1784 H1780 0.929 . S
C1784 C1786 1.378 1_455 S
C1784 C1788 1.350 . S
C1785 C1788 1.463 . S
C1785 C1790 1.350 . S
C1785 N1793 1.427 . S
C1786 H1777 0.930 . S
C1786 C1784 1.378 1_655 S
C1786 C1787 1.367 . S
C1787 C1786 1.367 . S
C1787 C1789 1.433 . S
C1788 C1784 1.350 . S
C1788 C1785 1.463 . S
C1788 N1792 1.427 . S
C1789 H1779 0.929 . S
C1789 C1787 1.433 . S
C1789 N1792 1.384 1_655 S
C1790 H1781 0.929 . S
C1790 C1782 1.378 . S
C1790 C1785 1.350 . S
C1791 H1778 0.929 . S
C1791 C1783 1.433 . S
C1791 N1793 1.384 . S
N1792 C1788 1.427 . S
N1792 C1789 1.384 1_455 S
N1793 C1785 1.427 . S
N1793 C1791 1.384 . S
H1794 C1800 0.930 . S
H1795 C1804 0.930 . S
H1796 C1809 0.929 . S
H1797 C1807 0.929 . S
H1798 C1802 0.929 . S
H1799 C1808 0.929 . S
C1800 H1794 0.930 . S
C1800 C1801 1.367 . S
C1800 C1808 1.378 1_565 S
C1801 C1800 1.367 . S
C1801 C1809 1.433 . S
C1802 H1798 0.929 . S
C1802 C1804 1.378 . S
C1802 C1806 1.350 . S
C1803 C1806 1.463 . S
C1803 C1808 1.350 . S
C1803 N1811 1.427 . S
C1804 H1795 0.930 . S
C1804 C1802 1.378 . S
C1804 C1805 1.367 . S
C1805 C1804 1.367 . S
C1805 C1807 1.433 . S
C1806 C1802 1.350 . S
C1806 C1803 1.463 . S
C1806 N1810 1.427 . S
C1807 H1797 0.929 . S
C1807 C1805 1.433 . S
C1807 N1810 1.384 . S
C1808 H1799 0.929 . S
C1808 C1800 1.378 1_545 S
C1808 C1803 1.350 . S
C1809 H1796 0.929 . S
C1809 C1801 1.433 . S
C1809 N1811 1.384 1_565 S
N1810 C1806 1.427 . S
N1810 C1807 1.384 . S
N1811 C1803 1.427 . S
N1811 C1809 1.384 1_545 S
H1812 C1818 0.930 . S
H1813 C1822 0.930 . S
H1814 C1827 0.929 . S
H1815 C1825 0.929 . S
H1816 C1820 0.929 . S
H1817 C1826 0.929 . S
C1818 H1812 0.930 . S
C1818 C1819 1.367 . S
C1818 C1826 1.378 1_455 S
C1819 C1818 1.367 . S
C1819 C1827 1.433 . S
C1820 H1816 0.929 . S
C1820 C1822 1.378 . S
C1820 C1824 1.350 . S
C1821 C1824 1.463 . S
C1821 C1826 1.350 . S
C1821 N1829 1.427 . S
C1822 H1813 0.930 . S
C1822 C1820 1.378 . S
C1822 C1823 1.367 . S
C1823 C1822 1.367 . S
C1823 C1825 1.433 . S
C1824 C1820 1.350 . S
C1824 C1821 1.463 . S
C1824 N1828 1.427 . S
C1825 H1815 0.929 . S
C1825 C1823 1.433 . S
C1825 N1828 1.384 . S
C1826 H1817 0.929 . S
C1826 C1818 1.378 1_655 S
C1826 C1821 1.350 . S
C1827 H1814 0.929 . S
C1827 C1819 1.433 . S
C1827 N1829 1.384 1_455 S
N1828 C1824 1.427 . S
N1828 C1825 1.384 . S
N1829 C1821 1.427 . S
N1829 C1827 1.384 1_655 S
H1830 C1836 0.930 . S
H1831 C1840 0.930 . S
H1832 C1845 0.929 . S
H1833 C1843 0.929 . S
H1834 C1838 0.929 . S
H1835 C1844 0.929 . S
C1836 H1830 0.930 . S
C1836 C1837 1.367 . S
C1836 C1844 1.378 . S
C1837 C1836 1.367 . S
C1837 C1845 1.433 . S
C1838 H1834 0.929 . S
C1838 C1840 1.378 1_565 S
C1838 C1842 1.350 . S
C1839 C1842 1.463 . S
C1839 C1844 1.350 . S
C1839 N1847 1.427 . S
C1840 H1831 0.930 . S
C1840 C1838 1.378 1_545 S
C1840 C1841 1.367 . S
C1841 C1840 1.367 . S
C1841 C1843 1.433 . S
C1842 C1838 1.350 . S
C1842 C1839 1.463 . S
C1842 N1846 1.427 . S
C1843 H1833 0.929 . S
C1843 C1841 1.433 . S
C1843 N1846 1.384 1_545 S
C1844 H1835 0.929 . S
C1844 C1836 1.378 . S
C1844 C1839 1.350 . S
C1845 H1832 0.929 . S
C1845 C1837 1.433 . S
C1845 N1847 1.384 . S
N1846 C1842 1.427 . S
N1846 C1843 1.384 1_565 S
N1847 C1839 1.427 . S
N1847 C1845 1.384 . S
H1848 C1854 0.930 . S
H1849 C1858 0.930 . S
H1850 C1863 0.929 . S
H1851 C1861 0.929 . S
H1852 C1856 0.929 . S
H1853 C1862 0.929 . S
C1854 H1848 0.930 . S
C1854 C1855 1.367 . S
C1854 C1862 1.378 1_655 S
C1855 C1854 1.367 . S
C1855 C1863 1.433 . S
C1856 H1852 0.929 . S
C1856 C1858 1.378 . S
C1856 C1860 1.350 . S
C1857 C1860 1.463 . S
C1857 C1862 1.350 . S
C1857 N1865 1.427 . S
C1858 H1849 0.930 . S
C1858 C1856 1.378 . S
C1858 C1859 1.367 . S
C1859 C1858 1.367 . S
C1859 C1861 1.433 . S
C1860 C1856 1.350 . S
C1860 C1857 1.463 . S
C1860 N1864 1.427 . S
C1861 H1851 0.929 . S
C1861 C1859 1.433 . S
C1861 N1864 1.384 . S
C1862 H1853 0.929 . S
C1862 C1854 1.378 1_455 S
C1862 C1857 1.350 . S
C1863 H1850 0.929 . S
C1863 C1855 1.433 . S
C1863 N1865 1.384 1_655 S
N1864 C1860 1.427 . S
N1864 C1861 1.384 . S
N1865 C1857 1.427 . S
N1865 C1863 1.384 1_455 S
H1866 C1872 0.930 . S
H1867 C1876 0.930 . S
H1868 C1881 0.929 . S
H1869 C1879 0.929 . S
H1870 C1874 0.929 . S
H1871 C1880 0.929 . S
C1872 H1866 0.930 . S
C1872 C1873 1.367 . S
C1872 C1880 1.378 . S
C1873 C1872 1.367 . S
C1873 C1881 1.433 . S
C1874 H1870 0.929 . S
C1874 C1876 1.378 1_545 S
C1874 C1878 1.350 . S
C1875 C1878 1.463 . S
C1875 C1880 1.350 . S
C1875 N1883 1.427 . S
C1876 H1867 0.930 . S
C1876 C1874 1.378 1_565 S
C1876 C1877 1.367 . S
C1877 C1876 1.367 . S
C1877 C1879 1.433 . S
C1878 C1874 1.350 . S
C1878 C1875 1.463 . S
C1878 N1882 1.427 . S
C1879 H1869 0.929 . S
C1879 C1877 1.433 . S
C1879 N1882 1.384 1_565 S
C1880 H1871 0.929 . S
C1880 C1872 1.378 . S
C1880 C1875 1.350 . S
C1881 H1868 0.929 . S
C1881 C1873 1.433 . S
C1881 N1883 1.384 . S
N1882 C1878 1.427 . S
N1882 C1879 1.384 1_545 S
N1883 C1875 1.427 . S
N1883 C1881 1.384 . S
H1884 C1890 0.930 . S
H1885 C1894 0.930 . S
H1886 C1899 0.929 . S
H1887 C1897 0.929 . S
H1888 C1892 0.929 . S
H1889 C1898 0.929 . S
C1890 H1884 0.930 . S
C1890 C1891 1.367 . S
C1890 C1898 1.378 1_455 S
C1891 C1890 1.367 . S
C1891 C1899 1.433 . S
C1892 H1888 0.929 . S
C1892 C1894 1.378 . S
C1892 C1896 1.350 . S
C1893 C1896 1.463 . S
C1893 C1898 1.350 . S
C1893 N1901 1.427 . S
C1894 H1885 0.930 . S
C1894 C1892 1.378 . S
C1894 C1895 1.367 . S
C1895 C1894 1.367 . S
C1895 C1897 1.433 . S
C1896 C1892 1.350 . S
C1896 C1893 1.463 . S
C1896 N1900 1.427 . S
C1897 H1887 0.929 . S
C1897 C1895 1.433 . S
C1897 N1900 1.384 . S
C1898 H1889 0.929 . S
C1898 C1890 1.378 1_655 S
C1898 C1893 1.350 . S
C1899 H1886 0.929 . S
C1899 C1891 1.433 . S
C1899 N1901 1.384 1_455 S
N1900 C1896 1.427 . S
N1900 C1897 1.384 . S
N1901 C1893 1.427 . S
N1901 C1899 1.384 1_655 S
H1902 C1908 0.930 . S
H1903 C1912 0.930 . S
H1904 C1917 0.929 . S
H1905 C1915 0.929 . S
H1906 C1910 0.929 . S
H1907 C1916 0.929 . S
C1908 H1902 0.930 . S
C1908 C1909 1.367 . S
C1908 C1916 1.378 1_545 S
C1909 C1908 1.367 . S
C1909 C1917 1.433 . S
C1910 H1906 0.929 . S
C1910 C1912 1.378 . S
C1910 C1914 1.350 . S
C1911 C1914 1.463 . S
C1911 C1916 1.350 . S
C1911 N1919 1.427 . S
C1912 H1903 0.930 . S
C1912 C1910 1.378 . S
C1912 C1913 1.367 . S
C1913 C1912 1.367 . S
C1913 C1915 1.433 . S
C1914 C1910 1.350 . S
C1914 C1911 1.463 . S
C1914 N1918 1.427 . S
C1915 H1905 0.929 . S
C1915 C1913 1.433 . S
C1915 N1918 1.384 . S
C1916 H1907 0.929 . S
C1916 C1908 1.378 1_565 S
C1916 C1911 1.350 . S
C1917 H1904 0.929 . S
C1917 C1909 1.433 . S
C1917 N1919 1.384 1_545 S
N1918 C1914 1.427 . S
N1918 C1915 1.384 . S
N1919 C1911 1.427 . S
N1919 C1917 1.384 1_565 S
H1920 C1926 0.930 . S
H1921 C1930 0.930 . S
H1922 C1935 0.929 . S
H1923 C1933 0.929 . S
H1924 C1928 0.929 . S
H1925 C1934 0.929 . S
C1926 H1920 0.930 . S
C1926 C1927 1.367 . S
C1926 C1934 1.378 . S
C1927 C1926 1.367 . S
C1927 C1935 1.433 . S
C1928 H1924 0.929 . S
C1928 C1930 1.378 1_545 S
C1928 C1932 1.350 . S
C1929 C1932 1.463 . S
C1929 C1934 1.350 . S
C1929 N1937 1.427 . S
C1930 H1921 0.930 . S
C1930 C1928 1.378 1_565 S
C1930 C1931 1.367 . S
C1931 C1930 1.367 . S
C1931 C1933 1.433 . S
C1932 C1928 1.350 . S
C1932 C1929 1.463 . S
C1932 N1936 1.427 . S
C1933 H1923 0.929 . S
C1933 C1931 1.433 . S
C1933 N1936 1.384 1_565 S
C1934 H1925 0.929 . S
C1934 C1926 1.378 . S
C1934 C1929 1.350 . S
C1935 H1922 0.929 . S
C1935 C1927 1.433 . S
C1935 N1937 1.384 . S
N1936 C1932 1.427 . S
N1936 C1933 1.384 1_545 S
N1937 C1929 1.427 . S
N1937 C1935 1.384 . S
H1938 C1944 0.930 . S
H1939 C1948 0.930 . S
H1940 C1953 0.929 . S
H1941 C1951 0.929 . S
H1942 C1946 0.929 . S
H1943 C1952 0.929 . S
C1944 H1938 0.930 . S
C1944 C1945 1.367 . S
C1944 C1952 1.378 1_545 S
C1945 C1944 1.367 . S
C1945 C1953 1.433 . S
C1946 H1942 0.929 . S
C1946 C1948 1.378 . S
C1946 C1950 1.350 . S
C1947 C1950 1.463 . S
C1947 C1952 1.350 . S
C1947 N1955 1.427 . S
C1948 H1939 0.930 . S
C1948 C1946 1.378 . S
C1948 C1949 1.367 . S
C1949 C1948 1.367 . S
C1949 C1951 1.433 . S
C1950 C1946 1.350 . S
C1950 C1947 1.463 . S
C1950 N1954 1.427 . S
C1951 H1941 0.929 . S
C1951 C1949 1.433 . S
C1951 N1954 1.384 . S
C1952 H1943 0.929 . S
C1952 C1944 1.378 1_565 S
C1952 C1947 1.350 . S
C1953 H1940 0.929 . S
C1953 C1945 1.433 . S
C1953 N1955 1.384 1_545 S
N1954 C1950 1.427 . S
N1954 C1951 1.384 . S
N1955 C1947 1.427 . S
N1955 C1953 1.384 1_565 S
H1956 C1962 0.930 . S
H1957 C1966 0.930 . S
H1958 C1971 0.929 . S
H1959 C1969 0.929 . S
H1960 C1964 0.929 . S
H1961 C1970 0.929 . S
C1962 H1956 0.930 . S
C1962 C1963 1.367 . S
C1962 C1970 1.378 . S
C1963 C1962 1.367 . S
C1963 C1971 1.433 . S
C1964 H1960 0.929 . S
C1964 C1966 1.378 1_455 S
C1964 C1968 1.350 . S
C1965 C1968 1.463 . S
C1965 C1970 1.350 . S
C1965 N1973 1.427 . S
C1966 H1957 0.930 . S
C1966 C1964 1.378 1_655 S
C1966 C1967 1.367 . S
C1967 C1966 1.367 . S
C1967 C1969 1.433 . S
C1968 C1964 1.350 . S
C1968 C1965 1.463 . S
C1968 N1972 1.427 . S
C1969 H1959 0.929 . S
C1969 C1967 1.433 . S
C1969 N1972 1.384 1_655 S
C1970 H1961 0.929 . S
C1970 C1962 1.378 . S
C1970 C1965 1.350 . S
C1971 H1958 0.929 . S
C1971 C1963 1.433 . S
C1971 N1973 1.384 . S
N1972 C1968 1.427 . S
N1972 C1969 1.384 1_455 S
N1973 C1965 1.427 . S
N1973 C1971 1.384 . S
H1974 C1980 0.930 . S
H1975 C1984 0.930 . S
H1976 C1989 0.929 . S
H1977 C1987 0.929 . S
H1978 C1982 0.929 . S
H1979 C1988 0.929 . S
C1980 H1974 0.930 . S
C1980 C1981 1.367 . S
C1980 C1988 1.378 1_565 S
C1981 C1980 1.367 . S
C1981 C1989 1.433 . S
C1982 H1978 0.929 . S
C1982 C1984 1.378 . S
C1982 C1986 1.350 . S
C1983 C1986 1.463 . S
C1983 C1988 1.350 . S
C1983 N1991 1.427 . S
C1984 H1975 0.930 . S
C1984 C1982 1.378 . S
C1984 C1985 1.367 . S
C1985 C1984 1.367 . S
C1985 C1987 1.433 . S
C1986 C1982 1.350 . S
C1986 C1983 1.463 . S
C1986 N1990 1.427 . S
C1987 H1977 0.929 . S
C1987 C1985 1.433 . S
C1987 N1990 1.384 . S
C1988 H1979 0.929 . S
C1988 C1980 1.378 1_545 S
C1988 C1983 1.350 . S
C1989 H1976 0.929 . S
C1989 C1981 1.433 . S
C1989 N1991 1.384 1_565 S
N1990 C1986 1.427 . S
N1990 C1987 1.384 . S
N1991 C1983 1.427 . S
N1991 C1989 1.384 1_545 S
H1992 C1998 0.930 . S
H1993 C2002 0.930 . S
H1994 C2007 0.929 . S
H1995 C2005 0.929 . S
H1996 C2000 0.929 . S
H1997 C2006 0.929 . S
C1998 H1992 0.930 . S
C1998 C1999 1.367 . S
C1998 C2006 1.378 1_455 S
C1999 C1998 1.367 . S
C1999 C2007 1.433 . S
C2000 H1996 0.929 . S
C2000 C2002 1.378 . S
C2000 C2004 1.350 . S
C2001 C2004 1.463 . S
C2001 C2006 1.350 . S
C2001 N2009 1.427 . S
C2002 H1993 0.930 . S
C2002 C2000 1.378 . S
C2002 C2003 1.367 . S
C2003 C2002 1.367 . S
C2003 C2005 1.433 . S
C2004 C2000 1.350 . S
C2004 C2001 1.463 . S
C2004 N2008 1.427 . S
C2005 H1995 0.929 . S
C2005 C2003 1.433 . S
C2005 N2008 1.384 . S
C2006 H1997 0.929 . S
C2006 C1998 1.378 1_655 S
C2006 C2001 1.350 . S
C2007 H1994 0.929 . S
C2007 C1999 1.433 . S
C2007 N2009 1.384 1_455 S
N2008 C2004 1.427 . S
N2008 C2005 1.384 . S
N2009 C2001 1.427 . S
N2009 C2007 1.384 1_655 S
H2010 C2016 0.930 . S
H2011 C2020 0.930 . S
H2012 C2025 0.929 . S
H2013 C2023 0.929 . S
H2014 C2018 0.929 . S
H2015 C2024 0.929 . S
C2016 H2010 0.930 . S
C2016 C2017 1.367 . S
C2016 C2024 1.378 . S
C2017 C2016 1.367 . S
C2017 C2025 1.433 . S
C2018 H2014 0.929 . S
C2018 C2020 1.378 1_565 S
C2018 C2022 1.350 . S
C2019 C2022 1.463 . S
C2019 C2024 1.350 . S
C2019 N2027 1.427 . S
C2020 H2011 0.930 . S
C2020 C2018 1.378 1_545 S
C2020 C2021 1.367 . S
C2021 C2020 1.367 . S
C2021 C2023 1.433 . S
C2022 C2018 1.350 . S
C2022 C2019 1.463 . S
C2022 N2026 1.427 . S
C2023 H2013 0.929 . S
C2023 C2021 1.433 . S
C2023 N2026 1.384 1_545 S
C2024 H2015 0.929 . S
C2024 C2016 1.378 . S
C2024 C2019 1.350 . S
C2025 H2012 0.929 . S
C2025 C2017 1.433 . S
C2025 N2027 1.384 . S
N2026 C2022 1.427 . S
N2026 C2023 1.384 1_565 S
N2027 C2019 1.427 . S
N2027 C2025 1.384 . S
H2028 C2034 0.930 . S
H2029 C2038 0.930 . S
H2030 C2043 0.929 . S
H2031 C2041 0.929 . S
H2032 C2036 0.929 . S
H2033 C2042 0.929 . S
C2034 H2028 0.930 . S
C2034 C2035 1.367 . S
C2034 C2042 1.378 . S
C2035 C2034 1.367 . S
C2035 C2043 1.433 . S
C2036 H2032 0.929 . S
C2036 C2038 1.378 1_455 S
C2036 C2040 1.350 . S
C2037 C2040 1.463 . S
C2037 C2042 1.350 . S
C2037 N2045 1.427 . S
C2038 H2029 0.930 . S
C2038 C2036 1.378 1_655 S
C2038 C2039 1.367 . S
C2039 C2038 1.367 . S
C2039 C2041 1.433 . S
C2040 C2036 1.350 . S
C2040 C2037 1.463 . S
C2040 N2044 1.427 . S
C2041 H2031 0.929 . S
C2041 C2039 1.433 . S
C2041 N2044 1.384 1_655 S
C2042 H2033 0.929 . S
C2042 C2034 1.378 . S
C2042 C2037 1.350 . S
C2043 H2030 0.929 . S
C2043 C2035 1.433 . S
C2043 N2045 1.384 . S
N2044 C2040 1.427 . S
N2044 C2041 1.384 1_455 S
N2045 C2037 1.427 . S
N2045 C2043 1.384 . S
H2046 C2052 0.930 . S
H2047 C2056 0.930 . S
H2048 C2061 0.929 . S
H2049 C2059 0.929 . S
H2050 C2054 0.929 . S
H2051 C2060 0.929 . S
C2052 H2046 0.930 . S
C2052 C2053 1.367 . S
C2052 C2060 1.378 1_455 S
C2053 C2052 1.367 . S
C2053 C2061 1.433 . S
C2054 H2050 0.929 . S
C2054 C2056 1.378 . S
C2054 C2058 1.350 . S
C2055 C2058 1.463 . S
C2055 C2060 1.350 . S
C2055 N2063 1.427 . S
C2056 H2047 0.930 . S
C2056 C2054 1.378 . S
C2056 C2057 1.367 . S
C2057 C2056 1.367 . S
C2057 C2059 1.433 . S
C2058 C2054 1.350 . S
C2058 C2055 1.463 . S
C2058 N2062 1.427 . S
C2059 H2049 0.929 . S
C2059 C2057 1.433 . S
C2059 N2062 1.384 . S
C2060 H2051 0.929 . S
C2060 C2052 1.378 1_655 S
C2060 C2055 1.350 . S
C2061 H2048 0.929 . S
C2061 C2053 1.433 . S
C2061 N2063 1.384 1_455 S
N2062 C2058 1.427 . S
N2062 C2059 1.384 . S
N2063 C2055 1.427 . S
N2063 C2061 1.384 1_655 S
H2064 C2070 0.930 . S
H2065 C2074 0.930 . S
H2066 C2079 0.929 . S
H2067 C2077 0.929 . S
H2068 C2072 0.929 . S
H2069 C2078 0.929 . S
C2070 H2064 0.930 . S
C2070 C2071 1.367 . S
C2070 C2078 1.378 . S
C2071 C2070 1.367 . S
C2071 C2079 1.433 . S
C2072 H2068 0.929 . S
C2072 C2074 1.378 . S
C2072 C2076 1.350 . S
C2073 C2076 1.463 . S
C2073 C2078 1.350 . S
C2073 N2081 1.427 . S
C2074 H2065 0.930 . S
C2074 C2072 1.378 . S
C2074 C2075 1.367 . S
C2075 C2074 1.367 . S
C2075 C2077 1.433 . S
C2076 C2072 1.350 . S
C2076 C2073 1.463 . S
C2076 N2080 1.427 . S
C2077 H2067 0.929 . S
C2077 C2075 1.433 . S
C2077 N2080 1.384 . S
C2078 H2069 0.929 . S
C2078 C2070 1.378 . S
C2078 C2073 1.350 . S
C2079 H2066 0.929 . S
C2079 C2071 1.433 . S
C2079 N2081 1.384 . S
N2080 C2076 1.427 . S
N2080 C2077 1.384 . S
N2081 C2073 1.427 . S
N2081 C2079 1.384 . S
H2082 C2088 0.930 . S
H2083 C2092 0.930 . S
H2084 C2097 0.929 . S
H2085 C2095 0.929 . S
H2086 C2090 0.929 . S
H2087 C2096 0.929 . S
C2088 H2082 0.930 . S
C2088 C2089 1.367 . S
C2088 C2096 1.378 . S
C2089 C2088 1.367 . S
C2089 C2097 1.433 . S
C2090 H2086 0.929 . S
C2090 C2092 1.378 . S
C2090 C2094 1.350 . S
C2091 C2094 1.463 . S
C2091 C2096 1.350 . S
C2091 N2099 1.427 . S
C2092 H2083 0.930 . S
C2092 C2090 1.378 . S
C2092 C2093 1.367 . S
C2093 C2092 1.367 . S
C2093 C2095 1.433 . S
C2094 C2090 1.350 . S
C2094 C2091 1.463 . S
C2094 N2098 1.427 . S
C2095 H2085 0.929 . S
C2095 C2093 1.433 . S
C2095 N2098 1.384 . S
C2096 H2087 0.929 . S
C2096 C2088 1.378 . S
C2096 C2091 1.350 . S
C2097 H2084 0.929 . S
C2097 C2089 1.433 . S
C2097 N2099 1.384 . S
N2098 C2094 1.427 . S
N2098 C2095 1.384 . S
N2099 C2091 1.427 . S
N2099 C2097 1.384 . S
H2100 C2106 0.930 . S
H2101 C2110 0.930 . S
H2102 C2115 0.929 . S
H2103 C2113 0.929 . S
H2104 C2108 0.929 . S
H2105 C2114 0.929 . S
C2106 H2100 0.930 . S
C2106 C2107 1.367 . S
C2106 C2114 1.378 . S
C2107 C2106 1.367 . S
C2107 C2115 1.433 . S
C2108 H2104 0.929 . S
C2108 C2110 1.378 . S
C2108 C2112 1.350 . S
C2109 C2112 1.463 . S
C2109 C2114 1.350 . S
C2109 N2117 1.427 . S
C2110 H2101 0.930 . S
C2110 C2108 1.378 . S
C2110 C2111 1.367 . S
C2111 C2110 1.367 . S
C2111 C2113 1.433 . S
C2112 C2108 1.350 . S
C2112 C2109 1.463 . S
C2112 N2116 1.427 . S
C2113 H2103 0.929 . S
C2113 C2111 1.433 . S
C2113 N2116 1.384 . S
C2114 H2105 0.929 . S
C2114 C2106 1.378 . S
C2114 C2109 1.350 . S
C2115 H2102 0.929 . S
C2115 C2107 1.433 . S
C2115 N2117 1.384 . S
N2116 C2112 1.427 . S
N2116 C2113 1.384 . S
N2117 C2109 1.427 . S
N2117 C2115 1.384 . S
H2118 C2124 0.930 . S
H2119 C2128 0.930 . S
H2120 C2133 0.929 . S
H2121 C2131 0.929 . S
H2122 C2126 0.929 . S
H2123 C2132 0.929 . S
C2124 H2118 0.930 . S
C2124 C2125 1.367 . S
C2124 C2132 1.378 . S
C2125 C2124 1.367 . S
C2125 C2133 1.433 . S
C2126 H2122 0.929 . S
C2126 C2128 1.378 . S
C2126 C2130 1.350 . S
C2127 C2130 1.463 . S
C2127 C2132 1.350 . S
C2127 N2135 1.427 . S
C2128 H2119 0.930 . S
C2128 C2126 1.378 . S
C2128 C2129 1.367 . S
C2129 C2128 1.367 . S
C2129 C2131 1.433 . S
C2130 C2126 1.350 . S
C2130 C2127 1.463 . S
C2130 N2134 1.427 . S
C2131 H2121 0.929 . S
C2131 C2129 1.433 . S
C2131 N2134 1.384 . S
C2132 H2123 0.929 . S
C2132 C2124 1.378 . S
C2132 C2127 1.350 . S
C2133 H2120 0.929 . S
C2133 C2125 1.433 . S
C2133 N2135 1.384 . S
N2134 C2130 1.427 . S
N2134 C2131 1.384 . S
N2135 C2127 1.427 . S
N2135 C2133 1.384 . S
H2136 C2142 0.930 . S
H2137 C2146 0.930 . S
H2138 C2151 0.929 . S
H2139 C2149 0.929 . S
H2140 C2144 0.929 . S
H2141 C2150 0.929 . S
C2142 H2136 0.930 . S
C2142 C2143 1.367 . S
C2142 C2150 1.378 . S
C2143 C2142 1.367 . S
C2143 C2151 1.433 . S
C2144 H2140 0.929 . S
C2144 C2146 1.378 . S
C2144 C2148 1.350 . S
C2145 C2148 1.463 . S
C2145 C2150 1.350 . S
C2145 N2153 1.427 . S
C2146 H2137 0.930 . S
C2146 C2144 1.378 . S
C2146 C2147 1.367 . S
C2147 C2146 1.367 . S
C2147 C2149 1.433 . S
C2148 C2144 1.350 . S
C2148 C2145 1.463 . S
C2148 N2152 1.427 . S
C2149 H2139 0.929 . S
C2149 C2147 1.433 . S
C2149 N2152 1.384 . S
C2150 H2141 0.929 . S
C2150 C2142 1.378 . S
C2150 C2145 1.350 . S
C2151 H2138 0.929 . S
C2151 C2143 1.433 . S
C2151 N2153 1.384 . S
N2152 C2148 1.427 . S
N2152 C2149 1.384 . S
N2153 C2145 1.427 . S
N2153 C2151 1.384 . S
H2154 C2160 0.930 . S
H2155 C2164 0.930 . S
H2156 C2169 0.929 . S
H2157 C2167 0.929 . S
H2158 C2162 0.929 . S
H2159 C2168 0.929 . S
C2160 H2154 0.930 . S
C2160 C2161 1.367 . S
C2160 C2168 1.378 . S
C2161 C2160 1.367 . S
C2161 C2169 1.433 . S
C2162 H2158 0.929 . S
C2162 C2164 1.378 . S
C2162 C2166 1.350 . S
C2163 C2166 1.463 . S
C2163 C2168 1.350 . S
C2163 N2171 1.427 . S
C2164 H2155 0.930 . S
C2164 C2162 1.378 . S
C2164 C2165 1.367 . S
C2165 C2164 1.367 . S
C2165 C2167 1.433 . S
C2166 C2162 1.350 . S
C2166 C2163 1.463 . S
C2166 N2170 1.427 . S
C2167 H2157 0.929 . S
C2167 C2165 1.433 . S
C2167 N2170 1.384 . S
C2168 H2159 0.929 . S
C2168 C2160 1.378 . S
C2168 C2163 1.350 . S
C2169 H2156 0.929 . S
C2169 C2161 1.433 . S
C2169 N2171 1.384 . S
N2170 C2166 1.427 . S
N2170 C2167 1.384 . S
N2171 C2163 1.427 . S
N2171 C2169 1.384 . S
H2172 C2178 0.930 . S
H2173 C2182 0.930 . S
H2174 C2187 0.929 . S
H2175 C2185 0.929 . S
H2176 C2180 0.929 . S
H2177 C2186 0.929 . S
C2178 H2172 0.930 . S
C2178 C2179 1.367 . S
C2178 C2186 1.378 . S
C2179 C2178 1.367 . S
C2179 C2187 1.433 . S
C2180 H2176 0.929 . S
C2180 C2182 1.378 . S
C2180 C2184 1.350 . S
C2181 C2184 1.463 . S
C2181 C2186 1.350 . S
C2181 N2189 1.427 . S
C2182 H2173 0.930 . S
C2182 C2180 1.378 . S
C2182 C2183 1.367 . S
C2183 C2182 1.367 . S
C2183 C2185 1.433 . S
C2184 C2180 1.350 . S
C2184 C2181 1.463 . S
C2184 N2188 1.427 . S
C2185 H2175 0.929 . S
C2185 C2183 1.433 . S
C2185 N2188 1.384 . S
C2186 H2177 0.929 . S
C2186 C2178 1.378 . S
C2186 C2181 1.350 . S
C2187 H2174 0.929 . S
C2187 C2179 1.433 . S
C2187 N2189 1.384 . S
N2188 C2184 1.427 . S
N2188 C2185 1.384 . S
N2189 C2181 1.427 . S
N2189 C2187 1.384 . S
H2190 C2196 0.930 . S
H2191 C2200 0.930 . S
H2192 C2205 0.929 . S
H2193 C2203 0.929 . S
H2194 C2198 0.929 . S
H2195 C2204 0.929 . S
C2196 H2190 0.930 . S
C2196 C2197 1.367 . S
C2196 C2204 1.378 . S
C2197 C2196 1.367 . S
C2197 C2205 1.433 . S
C2198 H2194 0.929 . S
C2198 C2200 1.378 . S
C2198 C2202 1.350 . S
C2199 C2202 1.463 . S
C2199 C2204 1.350 . S
C2199 N2207 1.427 . S
C2200 H2191 0.930 . S
C2200 C2198 1.378 . S
C2200 C2201 1.367 . S
C2201 C2200 1.367 . S
C2201 C2203 1.433 . S
C2202 C2198 1.350 . S
C2202 C2199 1.463 . S
C2202 N2206 1.427 . S
C2203 H2193 0.929 . S
C2203 C2201 1.433 . S
C2203 N2206 1.384 . S
C2204 H2195 0.929 . S
C2204 C2196 1.378 . S
C2204 C2199 1.350 . S
C2205 H2192 0.929 . S
C2205 C2197 1.433 . S
C2205 N2207 1.384 . S
N2206 C2202 1.427 . S
N2206 C2203 1.384 . S
N2207 C2199 1.427 . S
N2207 C2205 1.384 . S
H2208 C2214 0.930 . S
H2209 C2218 0.930 . S
H2210 C2223 0.929 . S
H2211 C2221 0.929 . S
H2212 C2216 0.929 . S
H2213 C2222 0.929 . S
C2214 H2208 0.930 . S
C2214 C2215 1.367 . S
C2214 C2222 1.378 . S
C2215 C2214 1.367 . S
C2215 C2223 1.433 . S
C2216 H2212 0.929 . S
C2216 C2218 1.378 . S
C2216 C2220 1.350 . S
C2217 C2220 1.463 . S
C2217 C2222 1.350 . S
C2217 N2225 1.427 . S
C2218 H2209 0.930 . S
C2218 C2216 1.378 . S
C2218 C2219 1.367 . S
C2219 C2218 1.367 . S
C2219 C2221 1.433 . S
C2220 C2216 1.350 . S
C2220 C2217 1.463 . S
C2220 N2224 1.427 . S
C2221 H2211 0.929 . S
C2221 C2219 1.433 . S
C2221 N2224 1.384 . S
C2222 H2213 0.929 . S
C2222 C2214 1.378 . S
C2222 C2217 1.350 . S
C2223 H2210 0.929 . S
C2223 C2215 1.433 . S
C2223 N2225 1.384 . S
N2224 C2220 1.427 . S
N2224 C2221 1.384 . S
N2225 C2217 1.427 . S
N2225 C2223 1.384 . S
H2226 C2232 0.930 . S
H2227 C2236 0.930 . S
H2228 C2241 0.929 . S
H2229 C2239 0.929 . S
H2230 C2234 0.929 . S
H2231 C2240 0.929 . S
C2232 H2226 0.930 . S
C2232 C2233 1.367 . S
C2232 C2240 1.378 . S
C2233 C2232 1.367 . S
C2233 C2241 1.433 . S
C2234 H2230 0.929 . S
C2234 C2236 1.378 . S
C2234 C2238 1.350 . S
C2235 C2238 1.463 . S
C2235 C2240 1.350 . S
C2235 N2243 1.427 . S
C2236 H2227 0.930 . S
C2236 C2234 1.378 . S
C2236 C2237 1.367 . S
C2237 C2236 1.367 . S
C2237 C2239 1.433 . S
C2238 C2234 1.350 . S
C2238 C2235 1.463 . S
C2238 N2242 1.427 . S
C2239 H2229 0.929 . S
C2239 C2237 1.433 . S
C2239 N2242 1.384 . S
C2240 H2231 0.929 . S
C2240 C2232 1.378 . S
C2240 C2235 1.350 . S
C2241 H2228 0.929 . S
C2241 C2233 1.433 . S
C2241 N2243 1.384 . S
N2242 C2238 1.427 . S
N2242 C2239 1.384 . S
N2243 C2235 1.427 . S
N2243 C2241 1.384 . S
H2244 C2250 0.930 . S
H2245 C2254 0.930 . S
H2246 C2259 0.929 . S
H2247 C2257 0.929 . S
H2248 C2252 0.929 . S
H2249 C2258 0.929 . S
C2250 H2244 0.930 . S
C2250 C2251 1.367 . S
C2250 C2258 1.378 . S
C2251 C2250 1.367 . S
C2251 C2259 1.433 . S
C2252 H2248 0.929 . S
C2252 C2254 1.378 . S
C2252 C2256 1.350 . S
C2253 C2256 1.463 . S
C2253 C2258 1.350 . S
C2253 N2261 1.427 . S
C2254 H2245 0.930 . S
C2254 C2252 1.378 . S
C2254 C2255 1.367 . S
C2255 C2254 1.367 . S
C2255 C2257 1.433 . S
C2256 C2252 1.350 . S
C2256 C2253 1.463 . S
C2256 N2260 1.427 . S
C2257 H2247 0.929 . S
C2257 C2255 1.433 . S
C2257 N2260 1.384 . S
C2258 H2249 0.929 . S
C2258 C2250 1.378 . S
C2258 C2253 1.350 . S
C2259 H2246 0.929 . S
C2259 C2251 1.433 . S
C2259 N2261 1.384 . S
N2260 C2256 1.427 . S
N2260 C2257 1.384 . S
N2261 C2253 1.427 . S
N2261 C2259 1.384 . S
H2262 C2268 0.930 . S
H2263 C2272 0.930 . S
H2264 C2277 0.929 . S
H2265 C2275 0.929 . S
H2266 C2270 0.929 . S
H2267 C2276 0.929 . S
C2268 H2262 0.930 . S
C2268 C2269 1.367 . S
C2268 C2276 1.378 . S
C2269 C2268 1.367 . S
C2269 C2277 1.433 . S
C2270 H2266 0.929 . S
C2270 C2272 1.378 . S
C2270 C2274 1.350 . S
C2271 C2274 1.463 . S
C2271 C2276 1.350 . S
C2271 N2279 1.427 . S
C2272 H2263 0.930 . S
C2272 C2270 1.378 . S
C2272 C2273 1.367 . S
C2273 C2272 1.367 . S
C2273 C2275 1.433 . S
C2274 C2270 1.350 . S
C2274 C2271 1.463 . S
C2274 N2278 1.427 . S
C2275 H2265 0.929 . S
C2275 C2273 1.433 . S
C2275 N2278 1.384 . S
C2276 H2267 0.929 . S
C2276 C2268 1.378 . S
C2276 C2271 1.350 . S
C2277 H2264 0.929 . S
C2277 C2269 1.433 . S
C2277 N2279 1.384 . S
N2278 C2274 1.427 . S
N2278 C2275 1.384 . S
N2279 C2271 1.427 . S
N2279 C2277 1.384 . S
H2280 C2286 0.930 . S
H2281 C2290 0.930 . S
H2282 C2295 0.929 . S
H2283 C2293 0.929 . S
H2284 C2288 0.929 . S
H2285 C2294 0.929 . S
C2286 H2280 0.930 . S
C2286 C2287 1.367 . S
C2286 C2294 1.378 . S
C2287 C2286 1.367 . S
C2287 C2295 1.433 . S
C2288 H2284 0.929 . S
C2288 C2290 1.378 . S
C2288 C2292 1.350 . S
C2289 C2292 1.463 . S
C2289 C2294 1.350 . S
C2289 N2297 1.427 . S
C2290 H2281 0.930 . S
C2290 C2288 1.378 . S
C2290 C2291 1.367 . S
C2291 C2290 1.367 . S
C2291 C2293 1.433 . S
C2292 C2288 1.350 . S
C2292 C2289 1.463 . S
C2292 N2296 1.427 . S
C2293 H2283 0.929 . S
C2293 C2291 1.433 . S
C2293 N2296 1.384 . S
C2294 H2285 0.929 . S
C2294 C2286 1.378 . S
C2294 C2289 1.350 . S
C2295 H2282 0.929 . S
C2295 C2287 1.433 . S
C2295 N2297 1.384 . S
N2296 C2292 1.427 . S
N2296 C2293 1.384 . S
N2297 C2289 1.427 . S
N2297 C2295 1.384 . S
H2298 C2304 0.930 . S
H2299 C2308 0.930 . S
H2300 C2313 0.929 . S
H2301 C2311 0.929 . S
H2302 C2306 0.929 . S
H2303 C2312 0.929 . S
C2304 H2298 0.930 . S
C2304 C2305 1.367 . S
C2304 C2312 1.378 . S
C2305 C2304 1.367 . S
C2305 C2313 1.433 . S
C2306 H2302 0.929 . S
C2306 C2308 1.378 . S
C2306 C2310 1.350 . S
C2307 C2310 1.463 . S
C2307 C2312 1.350 . S
C2307 N2315 1.427 . S
C2308 H2299 0.930 . S
C2308 C2306 1.378 . S
C2308 C2309 1.367 . S
C2309 C2308 1.367 . S
C2309 C2311 1.433 . S
C2310 C2306 1.350 . S
C2310 C2307 1.463 . S
C2310 N2314 1.427 . S
C2311 H2301 0.929 . S
C2311 C2309 1.433 . S
C2311 N2314 1.384 . S
C2312 H2303 0.929 . S
C2312 C2304 1.378 . S
C2312 C2307 1.350 . S
C2313 H2300 0.929 . S
C2313 C2305 1.433 . S
C2313 N2315 1.384 . S
N2314 C2310 1.427 . S
N2314 C2311 1.384 . S
N2315 C2307 1.427 . S
N2315 C2313 1.384 . S
H2316 C2322 0.930 . S
H2317 C2326 0.930 . S
H2318 C2331 0.929 . S
H2319 C2329 0.929 . S
H2320 C2324 0.929 . S
H2321 C2330 0.929 . S
C2322 H2316 0.930 . S
C2322 C2323 1.367 . S
C2322 C2330 1.378 . S
C2323 C2322 1.367 . S
C2323 C2331 1.433 . S
C2324 H2320 0.929 . S
C2324 C2326 1.378 . S
C2324 C2328 1.350 . S
C2325 C2328 1.463 . S
C2325 C2330 1.350 . S
C2325 N2333 1.427 . S
C2326 H2317 0.930 . S
C2326 C2324 1.378 . S
C2326 C2327 1.367 . S
C2327 C2326 1.367 . S
C2327 C2329 1.433 . S
C2328 C2324 1.350 . S
C2328 C2325 1.463 . S
C2328 N2332 1.427 . S
C2329 H2319 0.929 . S
C2329 C2327 1.433 . S
C2329 N2332 1.384 . S
C2330 H2321 0.929 . S
C2330 C2322 1.378 . S
C2330 C2325 1.350 . S
C2331 H2318 0.929 . S
C2331 C2323 1.433 . S
C2331 N2333 1.384 . S
N2332 C2328 1.427 . S
N2332 C2329 1.384 . S
N2333 C2325 1.427 . S
N2333 C2331 1.384 . S
H2334 C2340 0.930 . S
H2335 C2344 0.930 . S
H2336 C2349 0.929 . S
H2337 C2347 0.929 . S
H2338 C2342 0.929 . S
H2339 C2348 0.929 . S
C2340 H2334 0.930 . S
C2340 C2341 1.367 . S
C2340 C2348 1.378 . S
C2341 C2340 1.367 . S
C2341 C2349 1.433 . S
C2342 H2338 0.929 . S
C2342 C2344 1.378 . S
C2342 C2346 1.350 . S
C2343 C2346 1.463 . S
C2343 C2348 1.350 . S
C2343 N2351 1.427 . S
C2344 H2335 0.930 . S
C2344 C2342 1.378 . S
C2344 C2345 1.367 . S
C2345 C2344 1.367 . S
C2345 C2347 1.433 . S
C2346 C2342 1.350 . S
C2346 C2343 1.463 . S
C2346 N2350 1.427 . S
C2347 H2337 0.929 . S
C2347 C2345 1.433 . S
C2347 N2350 1.384 . S
C2348 H2339 0.929 . S
C2348 C2340 1.378 . S
C2348 C2343 1.350 . S
C2349 H2336 0.929 . S
C2349 C2341 1.433 . S
C2349 N2351 1.384 . S
N2350 C2346 1.427 . S
N2350 C2347 1.384 . S
N2351 C2343 1.427 . S
N2351 C2349 1.384 . S
H2352 C2358 0.930 . S
H2353 C2362 0.930 . S
H2354 C2367 0.929 . S
H2355 C2365 0.929 . S
H2356 C2360 0.929 . S
H2357 C2366 0.929 . S
C2358 H2352 0.930 . S
C2358 C2359 1.367 . S
C2358 C2366 1.378 . S
C2359 C2358 1.367 . S
C2359 C2367 1.433 . S
C2360 H2356 0.929 . S
C2360 C2362 1.378 . S
C2360 C2364 1.350 . S
C2361 C2364 1.463 . S
C2361 C2366 1.350 . S
C2361 N2369 1.427 . S
C2362 H2353 0.930 . S
C2362 C2360 1.378 . S
C2362 C2363 1.367 . S
C2363 C2362 1.367 . S
C2363 C2365 1.433 . S
C2364 C2360 1.350 . S
C2364 C2361 1.463 . S
C2364 N2368 1.427 . S
C2365 H2355 0.929 . S
C2365 C2363 1.433 . S
C2365 N2368 1.384 . S
C2366 H2357 0.929 . S
C2366 C2358 1.378 . S
C2366 C2361 1.350 . S
C2367 H2354 0.929 . S
C2367 C2359 1.433 . S
C2367 N2369 1.384 . S
N2368 C2364 1.427 . S
N2368 C2365 1.384 . S
N2369 C2361 1.427 . S
N2369 C2367 1.384 . S
H2370 C2376 0.930 . S
H2371 C2380 0.930 . S
H2372 C2385 0.929 . S
H2373 C2383 0.929 . S
H2374 C2378 0.929 . S
H2375 C2384 0.929 . S
C2376 H2370 0.930 . S
C2376 C2377 1.367 . S
C2376 C2384 1.378 . S
C2377 C2376 1.367 . S
C2377 C2385 1.433 . S
C2378 H2374 0.929 . S
C2378 C2380 1.378 . S
C2378 C2382 1.350 . S
C2379 C2382 1.463 . S
C2379 C2384 1.350 . S
C2379 N2387 1.427 . S
C2380 H2371 0.930 . S
C2380 C2378 1.378 . S
C2380 C2381 1.367 . S
C2381 C2380 1.367 . S
C2381 C2383 1.433 . S
C2382 C2378 1.350 . S
C2382 C2379 1.463 . S
C2382 N2386 1.427 . S
C2383 H2373 0.929 . S
C2383 C2381 1.433 . S
C2383 N2386 1.384 . S
C2384 H2375 0.929 . S
C2384 C2376 1.378 . S
C2384 C2379 1.350 . S
C2385 H2372 0.929 . S
C2385 C2377 1.433 . S
C2385 N2387 1.384 . S
N2386 C2382 1.427 . S
N2386 C2383 1.384 . S
N2387 C2379 1.427 . S
N2387 C2385 1.384 . S
H2388 C2394 0.930 . S
H2389 C2398 0.930 . S
H2390 C2403 0.929 . S
H2391 C2401 0.929 . S
H2392 C2396 0.929 . S
H2393 C2402 0.929 . S
C2394 H2388 0.930 . S
C2394 C2395 1.367 . S
C2394 C2402 1.378 . S
C2395 C2394 1.367 . S
C2395 C2403 1.433 . S
C2396 H2392 0.929 . S
C2396 C2398 1.378 . S
C2396 C2400 1.350 . S
C2397 C2400 1.463 . S
C2397 C2402 1.350 . S
C2397 N2405 1.427 . S
C2398 H2389 0.930 . S
C2398 C2396 1.378 . S
C2398 C2399 1.367 . S
C2399 C2398 1.367 . S
C2399 C2401 1.433 . S
C2400 C2396 1.350 . S
C2400 C2397 1.463 . S
C2400 N2404 1.427 . S
C2401 H2391 0.929 . S
C2401 C2399 1.433 . S
C2401 N2404 1.384 . S
C2402 H2393 0.929 . S
C2402 C2394 1.378 . S
C2402 C2397 1.350 . S
C2403 H2390 0.929 . S
C2403 C2395 1.433 . S
C2403 N2405 1.384 . S
N2404 C2400 1.427 . S
N2404 C2401 1.384 . S
N2405 C2397 1.427 . S
N2405 C2403 1.384 . S
H2406 C2412 0.930 . S
H2407 C2416 0.930 . S
H2408 C2421 0.929 . S
H2409 C2419 0.929 . S
H2410 C2414 0.929 . S
H2411 C2420 0.929 . S
C2412 H2406 0.930 . S
C2412 C2413 1.367 . S
C2412 C2420 1.378 . S
C2413 C2412 1.367 . S
C2413 C2421 1.433 . S
C2414 H2410 0.929 . S
C2414 C2416 1.378 . S
C2414 C2418 1.350 . S
C2415 C2418 1.463 . S
C2415 C2420 1.350 . S
C2415 N2423 1.427 . S
C2416 H2407 0.930 . S
C2416 C2414 1.378 . S
C2416 C2417 1.367 . S
C2417 C2416 1.367 . S
C2417 C2419 1.433 . S
C2418 C2414 1.350 . S
C2418 C2415 1.463 . S
C2418 N2422 1.427 . S
C2419 H2409 0.929 . S
C2419 C2417 1.433 . S
C2419 N2422 1.384 . S
C2420 H2411 0.929 . S
C2420 C2412 1.378 . S
C2420 C2415 1.350 . S
C2421 H2408 0.929 . S
C2421 C2413 1.433 . S
C2421 N2423 1.384 . S
N2422 C2418 1.427 . S
N2422 C2419 1.384 . S
N2423 C2415 1.427 . S
N2423 C2421 1.384 . S
H2424 C2430 0.930 . S
H2425 C2434 0.930 . S
H2426 C2439 0.929 . S
H2427 C2437 0.929 . S
H2428 C2432 0.929 . S
H2429 C2438 0.929 . S
C2430 H2424 0.930 . S
C2430 C2431 1.367 . S
C2430 C2438 1.378 . S
C2431 C2430 1.367 . S
C2431 C2439 1.433 . S
C2432 H2428 0.929 . S
C2432 C2434 1.378 . S
C2432 C2436 1.350 . S
C2433 C2436 1.463 . S
C2433 C2438 1.350 . S
C2433 N2441 1.427 . S
C2434 H2425 0.930 . S
C2434 C2432 1.378 . S
C2434 C2435 1.367 . S
C2435 C2434 1.367 . S
C2435 C2437 1.433 . S
C2436 C2432 1.350 . S
C2436 C2433 1.463 . S
C2436 N2440 1.427 . S
C2437 H2427 0.929 . S
C2437 C2435 1.433 . S
C2437 N2440 1.384 . S
C2438 H2429 0.929 . S
C2438 C2430 1.378 . S
C2438 C2433 1.350 . S
C2439 H2426 0.929 . S
C2439 C2431 1.433 . S
C2439 N2441 1.384 . S
N2440 C2436 1.427 . S
N2440 C2437 1.384 . S
N2441 C2433 1.427 . S
N2441 C2439 1.384 . S
H2442 C2448 0.930 . S
H2443 C2452 0.930 . S
H2444 C2457 0.929 . S
H2445 C2455 0.929 . S
H2446 C2450 0.929 . S
H2447 C2456 0.929 . S
C2448 H2442 0.930 . S
C2448 C2449 1.367 . S
C2448 C2456 1.378 . S
C2449 C2448 1.367 . S
C2449 C2457 1.433 . S
C2450 H2446 0.929 . S
C2450 C2452 1.378 . S
C2450 C2454 1.350 . S
C2451 C2454 1.463 . S
C2451 C2456 1.350 . S
C2451 N2459 1.427 . S
C2452 H2443 0.930 . S
C2452 C2450 1.378 . S
C2452 C2453 1.367 . S
C2453 C2452 1.367 . S
C2453 C2455 1.433 . S
C2454 C2450 1.350 . S
C2454 C2451 1.463 . S
C2454 N2458 1.427 . S
C2455 H2445 0.929 . S
C2455 C2453 1.433 . S
C2455 N2458 1.384 . S
C2456 H2447 0.929 . S
C2456 C2448 1.378 . S
C2456 C2451 1.350 . S
C2457 H2444 0.929 . S
C2457 C2449 1.433 . S
C2457 N2459 1.384 . S
N2458 C2454 1.427 . S
N2458 C2455 1.384 . S
N2459 C2451 1.427 . S
N2459 C2457 1.384 . S
H2460 C2466 0.930 . S
H2461 C2470 0.930 . S
H2462 C2475 0.929 . S
H2463 C2473 0.929 . S
H2464 C2468 0.929 . S
H2465 C2474 0.929 . S
C2466 H2460 0.930 . S
C2466 C2467 1.367 . S
C2466 C2474 1.378 . S
C2467 C2466 1.367 . S
C2467 C2475 1.433 . S
C2468 H2464 0.929 . S
C2468 C2470 1.378 . S
C2468 C2472 1.350 . S
C2469 C2472 1.463 . S
C2469 C2474 1.350 . S
C2469 N2477 1.427 . S
C2470 H2461 0.930 . S
C2470 C2468 1.378 . S
C2470 C2471 1.367 . S
C2471 C2470 1.367 . S
C2471 C2473 1.433 . S
C2472 C2468 1.350 . S
C2472 C2469 1.463 . S
C2472 N2476 1.427 . S
C2473 H2463 0.929 . S
C2473 C2471 1.433 . S
C2473 N2476 1.384 . S
C2474 H2465 0.929 . S
C2474 C2466 1.378 . S
C2474 C2469 1.350 . S
C2475 H2462 0.929 . S
C2475 C2467 1.433 . S
C2475 N2477 1.384 . S
N2476 C2472 1.427 . S
N2476 C2473 1.384 . S
N2477 C2469 1.427 . S
N2477 C2475 1.384 . S
H2478 C2484 0.930 . S
H2479 C2488 0.930 . S
H2480 C2493 0.929 . S
H2481 C2491 0.929 . S
H2482 C2486 0.929 . S
H2483 C2492 0.929 . S
C2484 H2478 0.930 . S
C2484 C2485 1.367 . S
C2484 C2492 1.378 . S
C2485 C2484 1.367 . S
C2485 C2493 1.433 . S
C2486 H2482 0.929 . S
C2486 C2488 1.378 . S
C2486 C2490 1.350 . S
C2487 C2490 1.463 . S
C2487 C2492 1.350 . S
C2487 N2495 1.427 . S
C2488 H2479 0.930 . S
C2488 C2486 1.378 . S
C2488 C2489 1.367 . S
C2489 C2488 1.367 . S
C2489 C2491 1.433 . S
C2490 C2486 1.350 . S
C2490 C2487 1.463 . S
C2490 N2494 1.427 . S
C2491 H2481 0.929 . S
C2491 C2489 1.433 . S
C2491 N2494 1.384 . S
C2492 H2483 0.929 . S
C2492 C2484 1.378 . S
C2492 C2487 1.350 . S
C2493 H2480 0.929 . S
C2493 C2485 1.433 . S
C2493 N2495 1.384 . S
N2494 C2490 1.427 . S
N2494 C2491 1.384 . S
N2495 C2487 1.427 . S
N2495 C2493 1.384 . S
H2496 C2502 0.930 . S
H2497 C2506 0.930 . S
H2498 C2511 0.929 . S
H2499 C2509 0.929 . S
H2500 C2504 0.929 . S
H2501 C2510 0.929 . S
C2502 H2496 0.930 . S
C2502 C2503 1.367 . S
C2502 C2510 1.378 . S
C2503 C2502 1.367 . S
C2503 C2511 1.433 . S
C2504 H2500 0.929 . S
C2504 C2506 1.378 . S
C2504 C2508 1.350 . S
C2505 C2508 1.463 . S
C2505 C2510 1.350 . S
C2505 N2513 1.427 . S
C2506 H2497 0.930 . S
C2506 C2504 1.378 . S
C2506 C2507 1.367 . S
C2507 C2506 1.367 . S
C2507 C2509 1.433 . S
C2508 C2504 1.350 . S
C2508 C2505 1.463 . S
C2508 N2512 1.427 . S
C2509 H2499 0.929 . S
C2509 C2507 1.433 . S
C2509 N2512 1.384 . S
C2510 H2501 0.929 . S
C2510 C2502 1.378 . S
C2510 C2505 1.350 . S
C2511 H2498 0.929 . S
C2511 C2503 1.433 . S
C2511 N2513 1.384 . S
N2512 C2508 1.427 . S
N2512 C2509 1.384 . S
N2513 C2505 1.427 . S
N2513 C2511 1.384 . S
H2514 C2520 0.930 . S
H2515 C2524 0.930 . S
H2516 C2529 0.929 . S
H2517 C2527 0.929 . S
H2518 C2522 0.929 . S
H2519 C2528 0.929 . S
C2520 H2514 0.930 . S
C2520 C2521 1.367 . S
C2520 C2528 1.378 . S
C2521 C2520 1.367 . S
C2521 C2529 1.433 . S
C2522 H2518 0.929 . S
C2522 C2524 1.378 . S
C2522 C2526 1.350 . S
C2523 C2526 1.463 . S
C2523 C2528 1.350 . S
C2523 N2531 1.427 . S
C2524 H2515 0.930 . S
C2524 C2522 1.378 . S
C2524 C2525 1.367 . S
C2525 C2524 1.367 . S
C2525 C2527 1.433 . S
C2526 C2522 1.350 . S
C2526 C2523 1.463 . S
C2526 N2530 1.427 . S
C2527 H2517 0.929 . S
C2527 C2525 1.433 . S
C2527 N2530 1.384 . S
C2528 H2519 0.929 . S
C2528 C2520 1.378 . S
C2528 C2523 1.350 . S
C2529 H2516 0.929 . S
C2529 C2521 1.433 . S
C2529 N2531 1.384 . S
N2530 C2526 1.427 . S
N2530 C2527 1.384 . S
N2531 C2523 1.427 . S
N2531 C2529 1.384 . S
H2532 C2538 0.930 . S
H2533 C2542 0.930 . S
H2534 C2547 0.929 . S
H2535 C2545 0.929 . S
H2536 C2540 0.929 . S
H2537 C2546 0.929 . S
C2538 H2532 0.930 . S
C2538 C2539 1.367 . S
C2538 C2546 1.378 . S
C2539 C2538 1.367 . S
C2539 C2547 1.433 . S
C2540 H2536 0.929 . S
C2540 C2542 1.378 . S
C2540 C2544 1.350 . S
C2541 C2544 1.463 . S
C2541 C2546 1.350 . S
C2541 N2549 1.427 . S
C2542 H2533 0.930 . S
C2542 C2540 1.378 . S
C2542 C2543 1.367 . S
C2543 C2542 1.367 . S
C2543 C2545 1.433 . S
C2544 C2540 1.350 . S
C2544 C2541 1.463 . S
C2544 N2548 1.427 . S
C2545 H2535 0.929 . S
C2545 C2543 1.433 . S
C2545 N2548 1.384 . S
C2546 H2537 0.929 . S
C2546 C2538 1.378 . S
C2546 C2541 1.350 . S
C2547 H2534 0.929 . S
C2547 C2539 1.433 . S
C2547 N2549 1.384 . S
N2548 C2544 1.427 . S
N2548 C2545 1.384 . S
N2549 C2541 1.427 . S
N2549 C2547 1.384 . S
H2550 C2556 0.930 . S
H2551 C2560 0.930 . S
H2552 C2565 0.929 . S
H2553 C2563 0.929 . S
H2554 C2558 0.929 . S
H2555 C2564 0.929 . S
C2556 H2550 0.930 . S
C2556 C2557 1.367 . S
C2556 C2564 1.378 . S
C2557 C2556 1.367 . S
C2557 C2565 1.433 . S
C2558 H2554 0.929 . S
C2558 C2560 1.378 . S
C2558 C2562 1.350 . S
C2559 C2562 1.463 . S
C2559 C2564 1.350 . S
C2559 N2567 1.427 . S
C2560 H2551 0.930 . S
C2560 C2558 1.378 . S
C2560 C2561 1.367 . S
C2561 C2560 1.367 . S
C2561 C2563 1.433 . S
C2562 C2558 1.350 . S
C2562 C2559 1.463 . S
C2562 N2566 1.427 . S
C2563 H2553 0.929 . S
C2563 C2561 1.433 . S
C2563 N2566 1.384 . S
C2564 H2555 0.929 . S
C2564 C2556 1.378 . S
C2564 C2559 1.350 . S
C2565 H2552 0.929 . S
C2565 C2557 1.433 . S
C2565 N2567 1.384 . S
N2566 C2562 1.427 . S
N2566 C2563 1.384 . S
N2567 C2559 1.427 . S
N2567 C2565 1.384 . S
H2568 C2574 0.930 . S
H2569 C2578 0.930 . S
H2570 C2583 0.929 . S
H2571 C2581 0.929 . S
H2572 C2576 0.929 . S
H2573 C2582 0.929 . S
C2574 H2568 0.930 . S
C2574 C2575 1.367 . S
C2574 C2582 1.378 . S
C2575 C2574 1.367 . S
C2575 C2583 1.433 . S
C2576 H2572 0.929 . S
C2576 C2578 1.378 . S
C2576 C2580 1.350 . S
C2577 C2580 1.463 . S
C2577 C2582 1.350 . S
C2577 N2585 1.427 . S
C2578 H2569 0.930 . S
C2578 C2576 1.378 . S
C2578 C2579 1.367 . S
C2579 C2578 1.367 . S
C2579 C2581 1.433 . S
C2580 C2576 1.350 . S
C2580 C2577 1.463 . S
C2580 N2584 1.427 . S
C2581 H2571 0.929 . S
C2581 C2579 1.433 . S
C2581 N2584 1.384 . S
C2582 H2573 0.929 . S
C2582 C2574 1.378 . S
C2582 C2577 1.350 . S
C2583 H2570 0.929 . S
C2583 C2575 1.433 . S
C2583 N2585 1.384 . S
N2584 C2580 1.427 . S
N2584 C2581 1.384 . S
N2585 C2577 1.427 . S
N2585 C2583 1.384 . S
H2586 C2592 0.930 . S
H2587 C2596 0.930 . S
H2588 C2601 0.929 . S
H2589 C2599 0.929 . S
H2590 C2594 0.929 . S
H2591 C2600 0.929 . S
C2592 H2586 0.930 . S
C2592 C2593 1.367 . S
C2592 C2600 1.378 . S
C2593 C2592 1.367 . S
C2593 C2601 1.433 . S
C2594 H2590 0.929 . S
C2594 C2596 1.378 . S
C2594 C2598 1.350 . S
C2595 C2598 1.463 . S
C2595 C2600 1.350 . S
C2595 N2603 1.427 . S
C2596 H2587 0.930 . S
C2596 C2594 1.378 . S
C2596 C2597 1.367 . S
C2597 C2596 1.367 . S
C2597 C2599 1.433 . S
C2598 C2594 1.350 . S
C2598 C2595 1.463 . S
C2598 N2602 1.427 . S
C2599 H2589 0.929 . S
C2599 C2597 1.433 . S
C2599 N2602 1.384 . S
C2600 H2591 0.929 . S
C2600 C2592 1.378 . S
C2600 C2595 1.350 . S
C2601 H2588 0.929 . S
C2601 C2593 1.433 . S
C2601 N2603 1.384 . S
N2602 C2598 1.427 . S
N2602 C2599 1.384 . S
N2603 C2595 1.427 . S
N2603 C2601 1.384 . S
H2604 C2610 0.930 . S
H2605 C2614 0.930 . S
H2606 C2619 0.929 . S
H2607 C2617 0.929 . S
H2608 C2612 0.929 . S
H2609 C2618 0.929 . S
C2610 H2604 0.930 . S
C2610 C2611 1.367 . S
C2610 C2618 1.378 . S
C2611 C2610 1.367 . S
C2611 C2619 1.433 . S
C2612 H2608 0.929 . S
C2612 C2614 1.378 . S
C2612 C2616 1.350 . S
C2613 C2616 1.463 . S
C2613 C2618 1.350 . S
C2613 N2621 1.427 . S
C2614 H2605 0.930 . S
C2614 C2612 1.378 . S
C2614 C2615 1.367 . S
C2615 C2614 1.367 . S
C2615 C2617 1.433 . S
C2616 C2612 1.350 . S
C2616 C2613 1.463 . S
C2616 N2620 1.427 . S
C2617 H2607 0.929 . S
C2617 C2615 1.433 . S
C2617 N2620 1.384 . S
C2618 H2609 0.929 . S
C2618 C2610 1.378 . S
C2618 C2613 1.350 . S
C2619 H2606 0.929 . S
C2619 C2611 1.433 . S
C2619 N2621 1.384 . S
N2620 C2616 1.427 . S
N2620 C2617 1.384 . S
N2621 C2613 1.427 . S
N2621 C2619 1.384 . S
H2622 C2628 0.930 . S
H2623 C2632 0.930 . S
H2624 C2637 0.929 . S
H2625 C2635 0.929 . S
H2626 C2630 0.929 . S
H2627 C2636 0.929 . S
C2628 H2622 0.930 . S
C2628 C2629 1.367 . S
C2628 C2636 1.378 . S
C2629 C2628 1.367 . S
C2629 C2637 1.433 . S
C2630 H2626 0.929 . S
C2630 C2632 1.378 . S
C2630 C2634 1.350 . S
C2631 C2634 1.463 . S
C2631 C2636 1.350 . S
C2631 N2639 1.427 . S
C2632 H2623 0.930 . S
C2632 C2630 1.378 . S
C2632 C2633 1.367 . S
C2633 C2632 1.367 . S
C2633 C2635 1.433 . S
C2634 C2630 1.350 . S
C2634 C2631 1.463 . S
C2634 N2638 1.427 . S
C2635 H2625 0.929 . S
C2635 C2633 1.433 . S
C2635 N2638 1.384 . S
C2636 H2627 0.929 . S
C2636 C2628 1.378 . S
C2636 C2631 1.350 . S
C2637 H2624 0.929 . S
C2637 C2629 1.433 . S
C2637 N2639 1.384 . S
N2638 C2634 1.427 . S
N2638 C2635 1.384 . S
N2639 C2631 1.427 . S
N2639 C2637 1.384 . S
H2640 C2646 0.930 . S
H2641 C2650 0.930 . S
H2642 C2655 0.929 . S
H2643 C2653 0.929 . S
H2644 C2648 0.929 . S
H2645 C2654 0.929 . S
C2646 H2640 0.930 . S
C2646 C2647 1.367 . S
C2646 C2654 1.378 . S
C2647 C2646 1.367 . S
C2647 C2655 1.433 . S
C2648 H2644 0.929 . S
C2648 C2650 1.378 . S
C2648 C2652 1.350 . S
C2649 C2652 1.463 . S
C2649 C2654 1.350 . S
C2649 N2657 1.427 . S
C2650 H2641 0.930 . S
C2650 C2648 1.378 . S
C2650 C2651 1.367 . S
C2651 C2650 1.367 . S
C2651 C2653 1.433 . S
C2652 C2648 1.350 . S
C2652 C2649 1.463 . S
C2652 N2656 1.427 . S
C2653 H2643 0.929 . S
C2653 C2651 1.433 . S
C2653 N2656 1.384 . S
C2654 H2645 0.929 . S
C2654 C2646 1.378 . S
C2654 C2649 1.350 . S
C2655 H2642 0.929 . S
C2655 C2647 1.433 . S
C2655 N2657 1.384 . S
N2656 C2652 1.427 . S
N2656 C2653 1.384 . S
N2657 C2649 1.427 . S
N2657 C2655 1.384 . S
H2658 C2664 0.930 . S
H2659 C2668 0.930 . S
H2660 C2673 0.929 . S
H2661 C2671 0.929 . S
H2662 C2666 0.929 . S
H2663 C2672 0.929 . S
C2664 H2658 0.930 . S
C2664 C2665 1.367 . S
C2664 C2672 1.378 . S
C2665 C2664 1.367 . S
C2665 C2673 1.433 . S
C2666 H2662 0.929 . S
C2666 C2668 1.378 . S
C2666 C2670 1.350 . S
C2667 C2670 1.463 . S
C2667 C2672 1.350 . S
C2667 N2675 1.427 . S
C2668 H2659 0.930 . S
C2668 C2666 1.378 . S
C2668 C2669 1.367 . S
C2669 C2668 1.367 . S
C2669 C2671 1.433 . S
C2670 C2666 1.350 . S
C2670 C2667 1.463 . S
C2670 N2674 1.427 . S
C2671 H2661 0.929 . S
C2671 C2669 1.433 . S
C2671 N2674 1.384 . S
C2672 H2663 0.929 . S
C2672 C2664 1.378 . S
C2672 C2667 1.350 . S
C2673 H2660 0.929 . S
C2673 C2665 1.433 . S
C2673 N2675 1.384 . S
N2674 C2670 1.427 . S
N2674 C2671 1.384 . S
N2675 C2667 1.427 . S
N2675 C2673 1.384 . S
H2676 C2682 0.930 . S
H2677 C2686 0.930 . S
H2678 C2691 0.929 . S
H2679 C2689 0.929 . S
H2680 C2684 0.929 . S
H2681 C2690 0.929 . S
C2682 H2676 0.930 . S
C2682 C2683 1.367 . S
C2682 C2690 1.378 . S
C2683 C2682 1.367 . S
C2683 C2691 1.433 . S
C2684 H2680 0.929 . S
C2684 C2686 1.378 . S
C2684 C2688 1.350 . S
C2685 C2688 1.463 . S
C2685 C2690 1.350 . S
C2685 N2693 1.427 . S
C2686 H2677 0.930 . S
C2686 C2684 1.378 . S
C2686 C2687 1.367 . S
C2687 C2686 1.367 . S
C2687 C2689 1.433 . S
C2688 C2684 1.350 . S
C2688 C2685 1.463 . S
C2688 N2692 1.427 . S
C2689 H2679 0.929 . S
C2689 C2687 1.433 . S
C2689 N2692 1.384 . S
C2690 H2681 0.929 . S
C2690 C2682 1.378 . S
C2690 C2685 1.350 . S
C2691 H2678 0.929 . S
C2691 C2683 1.433 . S
C2691 N2693 1.384 . S
N2692 C2688 1.427 . S
N2692 C2689 1.384 . S
N2693 C2685 1.427 . S
N2693 C2691 1.384 . S
H2694 C2700 0.930 . S
H2695 C2704 0.930 . S
H2696 C2709 0.929 . S
H2697 C2707 0.929 . S
H2698 C2702 0.929 . S
H2699 C2708 0.929 . S
C2700 H2694 0.930 . S
C2700 C2701 1.367 . S
C2700 C2708 1.378 . S
C2701 C2700 1.367 . S
C2701 C2709 1.433 . S
C2702 H2698 0.929 . S
C2702 C2704 1.378 . S
C2702 C2706 1.350 . S
C2703 C2706 1.463 . S
C2703 C2708 1.350 . S
C2703 N2711 1.427 . S
C2704 H2695 0.930 . S
C2704 C2702 1.378 . S
C2704 C2705 1.367 . S
C2705 C2704 1.367 . S
C2705 C2707 1.433 . S
C2706 C2702 1.350 . S
C2706 C2703 1.463 . S
C2706 N2710 1.427 . S
C2707 H2697 0.929 . S
C2707 C2705 1.433 . S
C2707 N2710 1.384 . S
C2708 H2699 0.929 . S
C2708 C2700 1.378 . S
C2708 C2703 1.350 . S
C2709 H2696 0.929 . S
C2709 C2701 1.433 . S
C2709 N2711 1.384 . S
N2710 C2706 1.427 . S
N2710 C2707 1.384 . S
N2711 C2703 1.427 . S
N2711 C2709 1.384 . S
H2712 C2718 0.930 . S
H2713 C2722 0.930 . S
H2714 C2727 0.929 . S
H2715 C2725 0.929 . S
H2716 C2720 0.929 . S
H2717 C2726 0.929 . S
C2718 H2712 0.930 . S
C2718 C2719 1.367 . S
C2718 C2726 1.378 . S
C2719 C2718 1.367 . S
C2719 C2727 1.433 . S
C2720 H2716 0.929 . S
C2720 C2722 1.378 . S
C2720 C2724 1.350 . S
C2721 C2724 1.463 . S
C2721 C2726 1.350 . S
C2721 N2729 1.427 . S
C2722 H2713 0.930 . S
C2722 C2720 1.378 . S
C2722 C2723 1.367 . S
C2723 C2722 1.367 . S
C2723 C2725 1.433 . S
C2724 C2720 1.350 . S
C2724 C2721 1.463 . S
C2724 N2728 1.427 . S
C2725 H2715 0.929 . S
C2725 C2723 1.433 . S
C2725 N2728 1.384 . S
C2726 H2717 0.929 . S
C2726 C2718 1.378 . S
C2726 C2721 1.350 . S
C2727 H2714 0.929 . S
C2727 C2719 1.433 . S
C2727 N2729 1.384 . S
N2728 C2724 1.427 . S
N2728 C2725 1.384 . S
N2729 C2721 1.427 . S
N2729 C2727 1.384 . S
H2730 C2736 0.930 . S
H2731 C2740 0.930 . S
H2732 C2745 0.929 . S
H2733 C2743 0.929 . S
H2734 C2738 0.929 . S
H2735 C2744 0.929 . S
C2736 H2730 0.930 . S
C2736 C2737 1.367 . S
C2736 C2744 1.378 . S
C2737 C2736 1.367 . S
C2737 C2745 1.433 . S
C2738 H2734 0.929 . S
C2738 C2740 1.378 . S
C2738 C2742 1.350 . S
C2739 C2742 1.463 . S
C2739 C2744 1.350 . S
C2739 N2747 1.427 . S
C2740 H2731 0.930 . S
C2740 C2738 1.378 . S
C2740 C2741 1.367 . S
C2741 C2740 1.367 . S
C2741 C2743 1.433 . S
C2742 C2738 1.350 . S
C2742 C2739 1.463 . S
C2742 N2746 1.427 . S
C2743 H2733 0.929 . S
C2743 C2741 1.433 . S
C2743 N2746 1.384 . S
C2744 H2735 0.929 . S
C2744 C2736 1.378 . S
C2744 C2739 1.350 . S
C2745 H2732 0.929 . S
C2745 C2737 1.433 . S
C2745 N2747 1.384 . S
N2746 C2742 1.427 . S
N2746 C2743 1.384 . S
N2747 C2739 1.427 . S
N2747 C2745 1.384 . S
H2748 C2754 0.930 . S
H2749 C2758 0.930 . S
H2750 C2763 0.929 . S
H2751 C2761 0.929 . S
H2752 C2756 0.929 . S
H2753 C2762 0.929 . S
C2754 H2748 0.930 . S
C2754 C2755 1.367 . S
C2754 C2762 1.378 . S
C2755 C2754 1.367 . S
C2755 C2763 1.433 . S
C2756 H2752 0.929 . S
C2756 C2758 1.378 . S
C2756 C2760 1.350 . S
C2757 C2760 1.463 . S
C2757 C2762 1.350 . S
C2757 N2765 1.427 . S
C2758 H2749 0.930 . S
C2758 C2756 1.378 . S
C2758 C2759 1.367 . S
C2759 C2758 1.367 . S
C2759 C2761 1.433 . S
C2760 C2756 1.350 . S
C2760 C2757 1.463 . S
C2760 N2764 1.427 . S
C2761 H2751 0.929 . S
C2761 C2759 1.433 . S
C2761 N2764 1.384 . S
C2762 H2753 0.929 . S
C2762 C2754 1.378 . S
C2762 C2757 1.350 . S
C2763 H2750 0.929 . S
C2763 C2755 1.433 . S
C2763 N2765 1.384 . S
N2764 C2760 1.427 . S
N2764 C2761 1.384 . S
N2765 C2757 1.427 . S
N2765 C2763 1.384 . S
H2766 C2772 0.930 . S
H2767 C2776 0.930 . S
H2768 C2781 0.929 . S
H2769 C2779 0.929 . S
H2770 C2774 0.929 . S
H2771 C2780 0.929 . S
C2772 H2766 0.930 . S
C2772 C2773 1.367 . S
C2772 C2780 1.378 . S
C2773 C2772 1.367 . S
C2773 C2781 1.433 . S
C2774 H2770 0.929 . S
C2774 C2776 1.378 . S
C2774 C2778 1.350 . S
C2775 C2778 1.463 . S
C2775 C2780 1.350 . S
C2775 N2783 1.427 . S
C2776 H2767 0.930 . S
C2776 C2774 1.378 . S
C2776 C2777 1.367 . S
C2777 C2776 1.367 . S
C2777 C2779 1.433 . S
C2778 C2774 1.350 . S
C2778 C2775 1.463 . S
C2778 N2782 1.427 . S
C2779 H2769 0.929 . S
C2779 C2777 1.433 . S
C2779 N2782 1.384 . S
C2780 H2771 0.929 . S
C2780 C2772 1.378 . S
C2780 C2775 1.350 . S
C2781 H2768 0.929 . S
C2781 C2773 1.433 . S
C2781 N2783 1.384 . S
N2782 C2778 1.427 . S
N2782 C2779 1.384 . S
N2783 C2775 1.427 . S
N2783 C2781 1.384 . S
H2784 C2790 0.930 . S
H2785 C2794 0.930 . S
H2786 C2799 0.929 . S
H2787 C2797 0.929 . S
H2788 C2792 0.929 . S
H2789 C2798 0.929 . S
C2790 H2784 0.930 . S
C2790 C2791 1.367 . S
C2790 C2798 1.378 . S
C2791 C2790 1.367 . S
C2791 C2799 1.433 . S
C2792 H2788 0.929 . S
C2792 C2794 1.378 . S
C2792 C2796 1.350 . S
C2793 C2796 1.463 . S
C2793 C2798 1.350 . S
C2793 N2801 1.427 . S
C2794 H2785 0.930 . S
C2794 C2792 1.378 . S
C2794 C2795 1.367 . S
C2795 C2794 1.367 . S
C2795 C2797 1.433 . S
C2796 C2792 1.350 . S
C2796 C2793 1.463 . S
C2796 N2800 1.427 . S
C2797 H2787 0.929 . S
C2797 C2795 1.433 . S
C2797 N2800 1.384 . S
C2798 H2789 0.929 . S
C2798 C2790 1.378 . S
C2798 C2793 1.350 . S
C2799 H2786 0.929 . S
C2799 C2791 1.433 . S
C2799 N2801 1.384 . S
N2800 C2796 1.427 . S
N2800 C2797 1.384 . S
N2801 C2793 1.427 . S
N2801 C2799 1.384 . S
H2802 C2808 0.930 . S
H2803 C2812 0.930 . S
H2804 C2817 0.929 . S
H2805 C2815 0.929 . S
H2806 C2810 0.929 . S
H2807 C2816 0.929 . S
C2808 H2802 0.930 . S
C2808 C2809 1.367 . S
C2808 C2816 1.378 . S
C2809 C2808 1.367 . S
C2809 C2817 1.433 . S
C2810 H2806 0.929 . S
C2810 C2812 1.378 . S
C2810 C2814 1.350 . S
C2811 C2814 1.463 . S
C2811 C2816 1.350 . S
C2811 N2819 1.427 . S
C2812 H2803 0.930 . S
C2812 C2810 1.378 . S
C2812 C2813 1.367 . S
C2813 C2812 1.367 . S
C2813 C2815 1.433 . S
C2814 C2810 1.350 . S
C2814 C2811 1.463 . S
C2814 N2818 1.427 . S
C2815 H2805 0.929 . S
C2815 C2813 1.433 . S
C2815 N2818 1.384 . S
C2816 H2807 0.929 . S
C2816 C2808 1.378 . S
C2816 C2811 1.350 . S
C2817 H2804 0.929 . S
C2817 C2809 1.433 . S
C2817 N2819 1.384 . S
N2818 C2814 1.427 . S
N2818 C2815 1.384 . S
N2819 C2811 1.427 . S
N2819 C2817 1.384 . S
H2820 C2826 0.930 . S
H2821 C2830 0.930 . S
H2822 C2835 0.929 . S
H2823 C2833 0.929 . S
H2824 C2828 0.929 . S
H2825 C2834 0.929 . S
C2826 H2820 0.930 . S
C2826 C2827 1.367 . S
C2826 C2834 1.378 . S
C2827 C2826 1.367 . S
C2827 C2835 1.433 . S
C2828 H2824 0.929 . S
C2828 C2830 1.378 . S
C2828 C2832 1.350 . S
C2829 C2832 1.463 . S
C2829 C2834 1.350 . S
C2829 N2837 1.427 . S
C2830 H2821 0.930 . S
C2830 C2828 1.378 . S
C2830 C2831 1.367 . S
C2831 C2830 1.367 . S
C2831 C2833 1.433 . S
C2832 C2828 1.350 . S
C2832 C2829 1.463 . S
C2832 N2836 1.427 . S
C2833 H2823 0.929 . S
C2833 C2831 1.433 . S
C2833 N2836 1.384 . S
C2834 H2825 0.929 . S
C2834 C2826 1.378 . S
C2834 C2829 1.350 . S
C2835 H2822 0.929 . S
C2835 C2827 1.433 . S
C2835 N2837 1.384 . S
N2836 C2832 1.427 . S
N2836 C2833 1.384 . S
N2837 C2829 1.427 . S
N2837 C2835 1.384 . S
H2838 C2844 0.930 . S
H2839 C2848 0.930 . S
H2840 C2853 0.929 . S
H2841 C2851 0.929 . S
H2842 C2846 0.929 . S
H2843 C2852 0.929 . S
C2844 H2838 0.930 . S
C2844 C2845 1.367 . S
C2844 C2852 1.378 . S
C2845 C2844 1.367 . S
C2845 C2853 1.433 . S
C2846 H2842 0.929 . S
C2846 C2848 1.378 . S
C2846 C2850 1.350 . S
C2847 C2850 1.463 . S
C2847 C2852 1.350 . S
C2847 N2855 1.427 . S
C2848 H2839 0.930 . S
C2848 C2846 1.378 . S
C2848 C2849 1.367 . S
C2849 C2848 1.367 . S
C2849 C2851 1.433 . S
C2850 C2846 1.350 . S
C2850 C2847 1.463 . S
C2850 N2854 1.427 . S
C2851 H2841 0.929 . S
C2851 C2849 1.433 . S
C2851 N2854 1.384 . S
C2852 H2843 0.929 . S
C2852 C2844 1.378 . S
C2852 C2847 1.350 . S
C2853 H2840 0.929 . S
C2853 C2845 1.433 . S
C2853 N2855 1.384 . S
N2854 C2850 1.427 . S
N2854 C2851 1.384 . S
N2855 C2847 1.427 . S
N2855 C2853 1.384 . S
H2856 C2862 0.930 . S
H2857 C2866 0.930 . S
H2858 C2871 0.929 . S
H2859 C2869 0.929 . S
H2860 C2864 0.929 . S
H2861 C2870 0.929 . S
C2862 H2856 0.930 . S
C2862 C2863 1.367 . S
C2862 C2870 1.378 . S
C2863 C2862 1.367 . S
C2863 C2871 1.433 . S
C2864 H2860 0.929 . S
C2864 C2866 1.378 . S
C2864 C2868 1.350 . S
C2865 C2868 1.463 . S
C2865 C2870 1.350 . S
C2865 N2873 1.427 . S
C2866 H2857 0.930 . S
C2866 C2864 1.378 . S
C2866 C2867 1.367 . S
C2867 C2866 1.367 . S
C2867 C2869 1.433 . S
C2868 C2864 1.350 . S
C2868 C2865 1.463 . S
C2868 N2872 1.427 . S
C2869 H2859 0.929 . S
C2869 C2867 1.433 . S
C2869 N2872 1.384 . S
C2870 H2861 0.929 . S
C2870 C2862 1.378 . S
C2870 C2865 1.350 . S
C2871 H2858 0.929 . S
C2871 C2863 1.433 . S
C2871 N2873 1.384 . S
N2872 C2868 1.427 . S
N2872 C2869 1.384 . S
N2873 C2865 1.427 . S
N2873 C2871 1.384 . S
H2874 C2880 0.930 . S
H2875 C2884 0.930 . S
H2876 C2889 0.929 . S
H2877 C2887 0.929 . S
H2878 C2882 0.929 . S
H2879 C2888 0.929 . S
C2880 H2874 0.930 . S
C2880 C2881 1.367 . S
C2880 C2888 1.378 . S
C2881 C2880 1.367 . S
C2881 C2889 1.433 . S
C2882 H2878 0.929 . S
C2882 C2884 1.378 . S
C2882 C2886 1.350 . S
C2883 C2886 1.463 . S
C2883 C2888 1.350 . S
C2883 N2891 1.427 . S
C2884 H2875 0.930 . S
C2884 C2882 1.378 . S
C2884 C2885 1.367 . S
C2885 C2884 1.367 . S
C2885 C2887 1.433 . S
C2886 C2882 1.350 . S
C2886 C2883 1.463 . S
C2886 N2890 1.427 . S
C2887 H2877 0.929 . S
C2887 C2885 1.433 . S
C2887 N2890 1.384 . S
C2888 H2879 0.929 . S
C2888 C2880 1.378 . S
C2888 C2883 1.350 . S
C2889 H2876 0.929 . S
C2889 C2881 1.433 . S
C2889 N2891 1.384 . S
N2890 C2886 1.427 . S
N2890 C2887 1.384 . S
N2891 C2883 1.427 . S
N2891 C2889 1.384 . S
H2892 C2898 0.930 . S
H2893 C2902 0.930 . S
H2894 C2907 0.929 . S
H2895 C2905 0.929 . S
H2896 C2900 0.929 . S
H2897 C2906 0.929 . S
C2898 H2892 0.930 . S
C2898 C2899 1.367 . S
C2898 C2906 1.378 . S
C2899 C2898 1.367 . S
C2899 C2907 1.433 . S
C2900 H2896 0.929 . S
C2900 C2902 1.378 . S
C2900 C2904 1.350 . S
C2901 C2904 1.463 . S
C2901 C2906 1.350 . S
C2901 N2909 1.427 . S
C2902 H2893 0.930 . S
C2902 C2900 1.378 . S
C2902 C2903 1.367 . S
C2903 C2902 1.367 . S
C2903 C2905 1.433 . S
C2904 C2900 1.350 . S
C2904 C2901 1.463 . S
C2904 N2908 1.427 . S
C2905 H2895 0.929 . S
C2905 C2903 1.433 . S
C2905 N2908 1.384 . S
C2906 H2897 0.929 . S
C2906 C2898 1.378 . S
C2906 C2901 1.350 . S
C2907 H2894 0.929 . S
C2907 C2899 1.433 . S
C2907 N2909 1.384 . S
N2908 C2904 1.427 . S
N2908 C2905 1.384 . S
N2909 C2901 1.427 . S
N2909 C2907 1.384 . S
H2910 C2916 0.930 . S
H2911 C2920 0.930 . S
H2912 C2925 0.929 . S
H2913 C2923 0.929 . S
H2914 C2918 0.929 . S
H2915 C2924 0.929 . S
C2916 H2910 0.930 . S
C2916 C2917 1.367 . S
C2916 C2924 1.378 . S
C2917 C2916 1.367 . S
C2917 C2925 1.433 . S
C2918 H2914 0.929 . S
C2918 C2920 1.378 . S
C2918 C2922 1.350 . S
C2919 C2922 1.463 . S
C2919 C2924 1.350 . S
C2919 N2927 1.427 . S
C2920 H2911 0.930 . S
C2920 C2918 1.378 . S
C2920 C2921 1.367 . S
C2921 C2920 1.367 . S
C2921 C2923 1.433 . S
C2922 C2918 1.350 . S
C2922 C2919 1.463 . S
C2922 N2926 1.427 . S
C2923 H2913 0.929 . S
C2923 C2921 1.433 . S
C2923 N2926 1.384 . S
C2924 H2915 0.929 . S
C2924 C2916 1.378 . S
C2924 C2919 1.350 . S
C2925 H2912 0.929 . S
C2925 C2917 1.433 . S
C2925 N2927 1.384 . S
N2926 C2922 1.427 . S
N2926 C2923 1.384 . S
N2927 C2919 1.427 . S
N2927 C2925 1.384 . S
H2928 C2934 0.930 . S
H2929 C2938 0.930 . S
H2930 C2943 0.929 . S
H2931 C2941 0.929 . S
H2932 C2936 0.929 . S
H2933 C2942 0.929 . S
C2934 H2928 0.930 . S
C2934 C2935 1.367 . S
C2934 C2942 1.378 . S
C2935 C2934 1.367 . S
C2935 C2943 1.433 . S
C2936 H2932 0.929 . S
C2936 C2938 1.378 . S
C2936 C2940 1.350 . S
C2937 C2940 1.463 . S
C2937 C2942 1.350 . S
C2937 N2945 1.427 . S
C2938 H2929 0.930 . S
C2938 C2936 1.378 . S
C2938 C2939 1.367 . S
C2939 C2938 1.367 . S
C2939 C2941 1.433 . S
C2940 C2936 1.350 . S
C2940 C2937 1.463 . S
C2940 N2944 1.427 . S
C2941 H2931 0.929 . S
C2941 C2939 1.433 . S
C2941 N2944 1.384 . S
C2942 H2933 0.929 . S
C2942 C2934 1.378 . S
C2942 C2937 1.350 . S
C2943 H2930 0.929 . S
C2943 C2935 1.433 . S
C2943 N2945 1.384 . S
N2944 C2940 1.427 . S
N2944 C2941 1.384 . S
N2945 C2937 1.427 . S
N2945 C2943 1.384 . S
H2946 C2952 0.930 . S
H2947 C2956 0.930 . S
H2948 C2961 0.929 . S
H2949 C2959 0.929 . S
H2950 C2954 0.929 . S
H2951 C2960 0.929 . S
C2952 H2946 0.930 . S
C2952 C2953 1.367 . S
C2952 C2960 1.378 . S
C2953 C2952 1.367 . S
C2953 C2961 1.433 . S
C2954 H2950 0.929 . S
C2954 C2956 1.378 . S
C2954 C2958 1.350 . S
C2955 C2958 1.463 . S
C2955 C2960 1.350 . S
C2955 N2963 1.427 . S
C2956 H2947 0.930 . S
C2956 C2954 1.378 . S
C2956 C2957 1.367 . S
C2957 C2956 1.367 . S
C2957 C2959 1.433 . S
C2958 C2954 1.350 . S
C2958 C2955 1.463 . S
C2958 N2962 1.427 . S
C2959 H2949 0.929 . S
C2959 C2957 1.433 . S
C2959 N2962 1.384 . S
C2960 H2951 0.929 . S
C2960 C2952 1.378 . S
C2960 C2955 1.350 . S
C2961 H2948 0.929 . S
C2961 C2953 1.433 . S
C2961 N2963 1.384 . S
N2962 C2958 1.427 . S
N2962 C2959 1.384 . S
N2963 C2955 1.427 . S
N2963 C2961 1.384 . S
H2964 C2970 0.930 . S
H2965 C2974 0.930 . S
H2966 C2979 0.929 . S
H2967 C2977 0.929 . S
H2968 C2972 0.929 . S
H2969 C2978 0.929 . S
C2970 H2964 0.930 . S
C2970 C2971 1.367 . S
C2970 C2978 1.378 . S
C2971 C2970 1.367 . S
C2971 C2979 1.433 . S
C2972 H2968 0.929 . S
C2972 C2974 1.378 . S
C2972 C2976 1.350 . S
C2973 C2976 1.463 . S
C2973 C2978 1.350 . S
C2973 N2981 1.427 . S
C2974 H2965 0.930 . S
C2974 C2972 1.378 . S
C2974 C2975 1.367 . S
C2975 C2974 1.367 . S
C2975 C2977 1.433 . S
C2976 C2972 1.350 . S
C2976 C2973 1.463 . S
C2976 N2980 1.427 . S
C2977 H2967 0.929 . S
C2977 C2975 1.433 . S
C2977 N2980 1.384 . S
C2978 H2969 0.929 . S
C2978 C2970 1.378 . S
C2978 C2973 1.350 . S
C2979 H2966 0.929 . S
C2979 C2971 1.433 . S
C2979 N2981 1.384 . S
N2980 C2976 1.427 . S
N2980 C2977 1.384 . S
N2981 C2973 1.427 . S
N2981 C2979 1.384 . S
H2982 C2988 0.930 . S
H2983 C2992 0.930 . S
H2984 C2997 0.929 . S
H2985 C2995 0.929 . S
H2986 C2990 0.929 . S
H2987 C2996 0.929 . S
C2988 H2982 0.930 . S
C2988 C2989 1.367 . S
C2988 C2996 1.378 . S
C2989 C2988 1.367 . S
C2989 C2997 1.433 . S
C2990 H2986 0.929 . S
C2990 C2992 1.378 . S
C2990 C2994 1.350 . S
C2991 C2994 1.463 . S
C2991 C2996 1.350 . S
C2991 N2999 1.427 . S
C2992 H2983 0.930 . S
C2992 C2990 1.378 . S
C2992 C2993 1.367 . S
C2993 C2992 1.367 . S
C2993 C2995 1.433 . S
C2994 C2990 1.350 . S
C2994 C2991 1.463 . S
C2994 N2998 1.427 . S
C2995 H2985 0.929 . S
C2995 C2993 1.433 . S
C2995 N2998 1.384 . S
C2996 H2987 0.929 . S
C2996 C2988 1.378 . S
C2996 C2991 1.350 . S
C2997 H2984 0.929 . S
C2997 C2989 1.433 . S
C2997 N2999 1.384 . S
N2998 C2994 1.427 . S
N2998 C2995 1.384 . S
N2999 C2991 1.427 . S
N2999 C2997 1.384 . S
H3000 C3006 0.930 . S
H3001 C3010 0.930 . S
H3002 C3015 0.929 . S
H3003 C3013 0.929 . S
H3004 C3008 0.929 . S
H3005 C3014 0.929 . S
C3006 H3000 0.930 . S
C3006 C3007 1.367 . S
C3006 C3014 1.378 . S
C3007 C3006 1.367 . S
C3007 C3015 1.433 . S
C3008 H3004 0.929 . S
C3008 C3010 1.378 . S
C3008 C3012 1.350 . S
C3009 C3012 1.463 . S
C3009 C3014 1.350 . S
C3009 N3017 1.427 . S
C3010 H3001 0.930 . S
C3010 C3008 1.378 . S
C3010 C3011 1.367 . S
C3011 C3010 1.367 . S
C3011 C3013 1.433 . S
C3012 C3008 1.350 . S
C3012 C3009 1.463 . S
C3012 N3016 1.427 . S
C3013 H3003 0.929 . S
C3013 C3011 1.433 . S
C3013 N3016 1.384 . S
C3014 H3005 0.929 . S
C3014 C3006 1.378 . S
C3014 C3009 1.350 . S
C3015 H3002 0.929 . S
C3015 C3007 1.433 . S
C3015 N3017 1.384 . S
N3016 C3012 1.427 . S
N3016 C3013 1.384 . S
N3017 C3009 1.427 . S
N3017 C3015 1.384 . S
H3018 C3024 0.930 . S
H3019 C3028 0.930 . S
H3020 C3033 0.929 . S
H3021 C3031 0.929 . S
H3022 C3026 0.929 . S
H3023 C3032 0.929 . S
C3024 H3018 0.930 . S
C3024 C3025 1.367 . S
C3024 C3032 1.378 . S
C3025 C3024 1.367 . S
C3025 C3033 1.433 . S
C3026 H3022 0.929 . S
C3026 C3028 1.378 . S
C3026 C3030 1.350 . S
C3027 C3030 1.463 . S
C3027 C3032 1.350 . S
C3027 N3035 1.427 . S
C3028 H3019 0.930 . S
C3028 C3026 1.378 . S
C3028 C3029 1.367 . S
C3029 C3028 1.367 . S
C3029 C3031 1.433 . S
C3030 C3026 1.350 . S
C3030 C3027 1.463 . S
C3030 N3034 1.427 . S
C3031 H3021 0.929 . S
C3031 C3029 1.433 . S
C3031 N3034 1.384 . S
C3032 H3023 0.929 . S
C3032 C3024 1.378 . S
C3032 C3027 1.350 . S
C3033 H3020 0.929 . S
C3033 C3025 1.433 . S
C3033 N3035 1.384 . S
N3034 C3030 1.427 . S
N3034 C3031 1.384 . S
N3035 C3027 1.427 . S
N3035 C3033 1.384 . S
H3036 C3042 0.930 . S
H3037 C3046 0.930 . S
H3038 C3051 0.929 . S
H3039 C3049 0.929 . S
H3040 C3044 0.929 . S
H3041 C3050 0.929 . S
C3042 H3036 0.930 . S
C3042 C3043 1.367 . S
C3042 C3050 1.378 . S
C3043 C3042 1.367 . S
C3043 C3051 1.433 . S
C3044 H3040 0.929 . S
C3044 C3046 1.378 . S
C3044 C3048 1.350 . S
C3045 C3048 1.463 . S
C3045 C3050 1.350 . S
C3045 N3053 1.427 . S
C3046 H3037 0.930 . S
C3046 C3044 1.378 . S
C3046 C3047 1.367 . S
C3047 C3046 1.367 . S
C3047 C3049 1.433 . S
C3048 C3044 1.350 . S
C3048 C3045 1.463 . S
C3048 N3052 1.427 . S
C3049 H3039 0.929 . S
C3049 C3047 1.433 . S
C3049 N3052 1.384 . S
C3050 H3041 0.929 . S
C3050 C3042 1.378 . S
C3050 C3045 1.350 . S
C3051 H3038 0.929 . S
C3051 C3043 1.433 . S
C3051 N3053 1.384 . S
N3052 C3048 1.427 . S
N3052 C3049 1.384 . S
N3053 C3045 1.427 . S
N3053 C3051 1.384 . S
H3054 C3060 0.930 . S
H3055 C3064 0.930 . S
H3056 C3069 0.929 . S
H3057 C3067 0.929 . S
H3058 C3062 0.929 . S
H3059 C3068 0.929 . S
C3060 H3054 0.930 . S
C3060 C3061 1.367 . S
C3060 C3068 1.378 . S
C3061 C3060 1.367 . S
C3061 C3069 1.433 . S
C3062 H3058 0.929 . S
C3062 C3064 1.378 . S
C3062 C3066 1.350 . S
C3063 C3066 1.463 . S
C3063 C3068 1.350 . S
C3063 N3071 1.427 . S
C3064 H3055 0.930 . S
C3064 C3062 1.378 . S
C3064 C3065 1.367 . S
C3065 C3064 1.367 . S
C3065 C3067 1.433 . S
C3066 C3062 1.350 . S
C3066 C3063 1.463 . S
C3066 N3070 1.427 . S
C3067 H3057 0.929 . S
C3067 C3065 1.433 . S
C3067 N3070 1.384 . S
C3068 H3059 0.929 . S
C3068 C3060 1.378 . S
C3068 C3063 1.350 . S
C3069 H3056 0.929 . S
C3069 C3061 1.433 . S
C3069 N3071 1.384 . S
N3070 C3066 1.427 . S
N3070 C3067 1.384 . S
N3071 C3063 1.427 . S
N3071 C3069 1.384 . S
H3072 C3078 0.930 . S
H3073 C3082 0.930 . S
H3074 C3087 0.929 . S
H3075 C3085 0.929 . S
H3076 C3080 0.929 . S
H3077 C3086 0.929 . S
C3078 H3072 0.930 . S
C3078 C3079 1.367 . S
C3078 C3086 1.378 . S
C3079 C3078 1.367 . S
C3079 C3087 1.433 . S
C3080 H3076 0.929 . S
C3080 C3082 1.378 . S
C3080 C3084 1.350 . S
C3081 C3084 1.463 . S
C3081 C3086 1.350 . S
C3081 N3089 1.427 . S
C3082 H3073 0.930 . S
C3082 C3080 1.378 . S
C3082 C3083 1.367 . S
C3083 C3082 1.367 . S
C3083 C3085 1.433 . S
C3084 C3080 1.350 . S
C3084 C3081 1.463 . S
C3084 N3088 1.427 . S
C3085 H3075 0.929 . S
C3085 C3083 1.433 . S
C3085 N3088 1.384 . S
C3086 H3077 0.929 . S
C3086 C3078 1.378 . S
C3086 C3081 1.350 . S
C3087 H3074 0.929 . S
C3087 C3079 1.433 . S
C3087 N3089 1.384 . S
N3088 C3084 1.427 . S
N3088 C3085 1.384 . S
N3089 C3081 1.427 . S
N3089 C3087 1.384 . S
H3090 C3096 0.930 . S
H3091 C3100 0.930 . S
H3092 C3105 0.929 . S
H3093 C3103 0.929 . S
H3094 C3098 0.929 . S
H3095 C3104 0.929 . S
C3096 H3090 0.930 . S
C3096 C3097 1.367 . S
C3096 C3104 1.378 . S
C3097 C3096 1.367 . S
C3097 C3105 1.433 . S
C3098 H3094 0.929 . S
C3098 C3100 1.378 . S
C3098 C3102 1.350 . S
C3099 C3102 1.463 . S
C3099 C3104 1.350 . S
C3099 N3107 1.427 . S
C3100 H3091 0.930 . S
C3100 C3098 1.378 . S
C3100 C3101 1.367 . S
C3101 C3100 1.367 . S
C3101 C3103 1.433 . S
C3102 C3098 1.350 . S
C3102 C3099 1.463 . S
C3102 N3106 1.427 . S
C3103 H3093 0.929 . S
C3103 C3101 1.433 . S
C3103 N3106 1.384 . S
C3104 H3095 0.929 . S
C3104 C3096 1.378 . S
C3104 C3099 1.350 . S
C3105 H3092 0.929 . S
C3105 C3097 1.433 . S
C3105 N3107 1.384 . S
N3106 C3102 1.427 . S
N3106 C3103 1.384 . S
N3107 C3099 1.427 . S
N3107 C3105 1.384 . S
H3108 C3114 0.930 . S
H3109 C3118 0.930 . S
H3110 C3123 0.929 . S
H3111 C3121 0.929 . S
H3112 C3116 0.929 . S
H3113 C3122 0.929 . S
C3114 H3108 0.930 . S
C3114 C3115 1.367 . S
C3114 C3122 1.378 . S
C3115 C3114 1.367 . S
C3115 C3123 1.433 . S
C3116 H3112 0.929 . S
C3116 C3118 1.378 . S
C3116 C3120 1.350 . S
C3117 C3120 1.463 . S
C3117 C3122 1.350 . S
C3117 N3125 1.427 . S
C3118 H3109 0.930 . S
C3118 C3116 1.378 . S
C3118 C3119 1.367 . S
C3119 C3118 1.367 . S
C3119 C3121 1.433 . S
C3120 C3116 1.350 . S
C3120 C3117 1.463 . S
C3120 N3124 1.427 . S
C3121 H3111 0.929 . S
C3121 C3119 1.433 . S
C3121 N3124 1.384 . S
C3122 H3113 0.929 . S
C3122 C3114 1.378 . S
C3122 C3117 1.350 . S
C3123 H3110 0.929 . S
C3123 C3115 1.433 . S
C3123 N3125 1.384 . S
N3124 C3120 1.427 . S
N3124 C3121 1.384 . S
N3125 C3117 1.427 . S
N3125 C3123 1.384 . S
H3126 C3132 0.930 . S
H3127 C3136 0.930 . S
H3128 C3141 0.929 . S
H3129 C3139 0.929 . S
H3130 C3134 0.929 . S
H3131 C3140 0.929 . S
C3132 H3126 0.930 . S
C3132 C3133 1.367 . S
C3132 C3140 1.378 . S
C3133 C3132 1.367 . S
C3133 C3141 1.433 . S
C3134 H3130 0.929 . S
C3134 C3136 1.378 . S
C3134 C3138 1.350 . S
C3135 C3138 1.463 . S
C3135 C3140 1.350 . S
C3135 N3143 1.427 . S
C3136 H3127 0.930 . S
C3136 C3134 1.378 . S
C3136 C3137 1.367 . S
C3137 C3136 1.367 . S
C3137 C3139 1.433 . S
C3138 C3134 1.350 . S
C3138 C3135 1.463 . S
C3138 N3142 1.427 . S
C3139 H3129 0.929 . S
C3139 C3137 1.433 . S
C3139 N3142 1.384 . S
C3140 H3131 0.929 . S
C3140 C3132 1.378 . S
C3140 C3135 1.350 . S
C3141 H3128 0.929 . S
C3141 C3133 1.433 . S
C3141 N3143 1.384 . S
N3142 C3138 1.427 . S
N3142 C3139 1.384 . S
N3143 C3135 1.427 . S
N3143 C3141 1.384 . S
H3144 C3150 0.930 . S
H3145 C3154 0.930 . S
H3146 C3159 0.929 . S
H3147 C3157 0.929 . S
H3148 C3152 0.929 . S
H3149 C3158 0.929 . S
C3150 H3144 0.930 . S
C3150 C3151 1.367 . S
C3150 C3158 1.378 . S
C3151 C3150 1.367 . S
C3151 C3159 1.433 . S
C3152 H3148 0.929 . S
C3152 C3154 1.378 . S
C3152 C3156 1.350 . S
C3153 C3156 1.463 . S
C3153 C3158 1.350 . S
C3153 N3161 1.427 . S
C3154 H3145 0.930 . S
C3154 C3152 1.378 . S
C3154 C3155 1.367 . S
C3155 C3154 1.367 . S
C3155 C3157 1.433 . S
C3156 C3152 1.350 . S
C3156 C3153 1.463 . S
C3156 N3160 1.427 . S
C3157 H3147 0.929 . S
C3157 C3155 1.433 . S
C3157 N3160 1.384 . S
C3158 H3149 0.929 . S
C3158 C3150 1.378 . S
C3158 C3153 1.350 . S
C3159 H3146 0.929 . S
C3159 C3151 1.433 . S
C3159 N3161 1.384 . S
N3160 C3156 1.427 . S
N3160 C3157 1.384 . S
N3161 C3153 1.427 . S
N3161 C3159 1.384 . S
H3162 C3168 0.930 . S
H3163 C3172 0.930 . S
H3164 C3177 0.929 . S
H3165 C3175 0.929 . S
H3166 C3170 0.929 . S
H3167 C3176 0.929 . S
C3168 H3162 0.930 . S
C3168 C3169 1.367 . S
C3168 C3176 1.378 . S
C3169 C3168 1.367 . S
C3169 C3177 1.433 . S
C3170 H3166 0.929 . S
C3170 C3172 1.378 . S
C3170 C3174 1.350 . S
C3171 C3174 1.463 . S
C3171 C3176 1.350 . S
C3171 N3179 1.427 . S
C3172 H3163 0.930 . S
C3172 C3170 1.378 . S
C3172 C3173 1.367 . S
C3173 C3172 1.367 . S
C3173 C3175 1.433 . S
C3174 C3170 1.350 . S
C3174 C3171 1.463 . S
C3174 N3178 1.427 . S
C3175 H3165 0.929 . S
C3175 C3173 1.433 . S
C3175 N3178 1.384 . S
C3176 H3167 0.929 . S
C3176 C3168 1.378 . S
C3176 C3171 1.350 . S
C3177 H3164 0.929 . S
C3177 C3169 1.433 . S
C3177 N3179 1.384 . S
N3178 C3174 1.427 . S
N3178 C3175 1.384 . S
N3179 C3171 1.427 . S
N3179 C3177 1.384 . S
H3180 C3186 0.930 . S
H3181 C3190 0.930 . S
H3182 C3195 0.929 . S
H3183 C3193 0.929 . S
H3184 C3188 0.929 . S
H3185 C3194 0.929 . S
C3186 H3180 0.930 . S
C3186 C3187 1.367 . S
C3186 C3194 1.378 . S
C3187 C3186 1.367 . S
C3187 C3195 1.433 . S
C3188 H3184 0.929 . S
C3188 C3190 1.378 . S
C3188 C3192 1.350 . S
C3189 C3192 1.463 . S
C3189 C3194 1.350 . S
C3189 N3197 1.427 . S
C3190 H3181 0.930 . S
C3190 C3188 1.378 . S
C3190 C3191 1.367 . S
C3191 C3190 1.367 . S
C3191 C3193 1.433 . S
C3192 C3188 1.350 . S
C3192 C3189 1.463 . S
C3192 N3196 1.427 . S
C3193 H3183 0.929 . S
C3193 C3191 1.433 . S
C3193 N3196 1.384 . S
C3194 H3185 0.929 . S
C3194 C3186 1.378 . S
C3194 C3189 1.350 . S
C3195 H3182 0.929 . S
C3195 C3187 1.433 . S
C3195 N3197 1.384 . S
N3196 C3192 1.427 . S
N3196 C3193 1.384 . S
N3197 C3189 1.427 . S
N3197 C3195 1.384 . S
H3198 C3204 0.930 . S
H3199 C3208 0.930 . S
H3200 C3213 0.929 . S
H3201 C3211 0.929 . S
H3202 C3206 0.929 . S
H3203 C3212 0.929 . S
C3204 H3198 0.930 . S
C3204 C3205 1.367 . S
C3204 C3212 1.378 . S
C3205 C3204 1.367 . S
C3205 C3213 1.433 . S
C3206 H3202 0.929 . S
C3206 C3208 1.378 . S
C3206 C3210 1.350 . S
C3207 C3210 1.463 . S
C3207 C3212 1.350 . S
C3207 N3215 1.427 . S
C3208 H3199 0.930 . S
C3208 C3206 1.378 . S
C3208 C3209 1.367 . S
C3209 C3208 1.367 . S
C3209 C3211 1.433 . S
C3210 C3206 1.350 . S
C3210 C3207 1.463 . S
C3210 N3214 1.427 . S
C3211 H3201 0.929 . S
C3211 C3209 1.433 . S
C3211 N3214 1.384 . S
C3212 H3203 0.929 . S
C3212 C3204 1.378 . S
C3212 C3207 1.350 . S
C3213 H3200 0.929 . S
C3213 C3205 1.433 . S
C3213 N3215 1.384 . S
N3214 C3210 1.427 . S
N3214 C3211 1.384 . S
N3215 C3207 1.427 . S
N3215 C3213 1.384 . S
H3216 C3222 0.930 . S
H3217 C3226 0.930 . S
H3218 C3231 0.929 . S
H3219 C3229 0.929 . S
H3220 C3224 0.929 . S
H3221 C3230 0.929 . S
C3222 H3216 0.930 . S
C3222 C3223 1.367 . S
C3222 C3230 1.378 . S
C3223 C3222 1.367 . S
C3223 C3231 1.433 . S
C3224 H3220 0.929 . S
C3224 C3226 1.378 . S
C3224 C3228 1.350 . S
C3225 C3228 1.463 . S
C3225 C3230 1.350 . S
C3225 N3233 1.427 . S
C3226 H3217 0.930 . S
C3226 C3224 1.378 . S
C3226 C3227 1.367 . S
C3227 C3226 1.367 . S
C3227 C3229 1.433 . S
C3228 C3224 1.350 . S
C3228 C3225 1.463 . S
C3228 N3232 1.427 . S
C3229 H3219 0.929 . S
C3229 C3227 1.433 . S
C3229 N3232 1.384 . S
C3230 H3221 0.929 . S
C3230 C3222 1.378 . S
C3230 C3225 1.350 . S
C3231 H3218 0.929 . S
C3231 C3223 1.433 . S
C3231 N3233 1.384 . S
N3232 C3228 1.427 . S
N3232 C3229 1.384 . S
N3233 C3225 1.427 . S
N3233 C3231 1.384 . S
H3234 C3240 0.930 . S
H3235 C3244 0.930 . S
H3236 C3249 0.929 . S
H3237 C3247 0.929 . S
H3238 C3242 0.929 . S
H3239 C3248 0.929 . S
C3240 H3234 0.930 . S
C3240 C3241 1.367 . S
C3240 C3248 1.378 . S
C3241 C3240 1.367 . S
C3241 C3249 1.433 . S
C3242 H3238 0.929 . S
C3242 C3244 1.378 . S
C3242 C3246 1.350 . S
C3243 C3246 1.463 . S
C3243 C3248 1.350 . S
C3243 N3251 1.427 . S
C3244 H3235 0.930 . S
C3244 C3242 1.378 . S
C3244 C3245 1.367 . S
C3245 C3244 1.367 . S
C3245 C3247 1.433 . S
C3246 C3242 1.350 . S
C3246 C3243 1.463 . S
C3246 N3250 1.427 . S
C3247 H3237 0.929 . S
C3247 C3245 1.433 . S
C3247 N3250 1.384 . S
C3248 H3239 0.929 . S
C3248 C3240 1.378 . S
C3248 C3243 1.350 . S
C3249 H3236 0.929 . S
C3249 C3241 1.433 . S
C3249 N3251 1.384 . S
N3250 C3246 1.427 . S
N3250 C3247 1.384 . S
N3251 C3243 1.427 . S
N3251 C3249 1.384 . S
H3252 C3258 0.930 . S
H3253 C3262 0.930 . S
H3254 C3267 0.929 . S
H3255 C3265 0.929 . S
H3256 C3260 0.929 . S
H3257 C3266 0.929 . S
C3258 H3252 0.930 . S
C3258 C3259 1.367 . S
C3258 C3266 1.378 . S
C3259 C3258 1.367 . S
C3259 C3267 1.433 . S
C3260 H3256 0.929 . S
C3260 C3262 1.378 . S
C3260 C3264 1.350 . S
C3261 C3264 1.463 . S
C3261 C3266 1.350 . S
C3261 N3269 1.427 . S
C3262 H3253 0.930 . S
C3262 C3260 1.378 . S
C3262 C3263 1.367 . S
C3263 C3262 1.367 . S
C3263 C3265 1.433 . S
C3264 C3260 1.350 . S
C3264 C3261 1.463 . S
C3264 N3268 1.427 . S
C3265 H3255 0.929 . S
C3265 C3263 1.433 . S
C3265 N3268 1.384 . S
C3266 H3257 0.929 . S
C3266 C3258 1.378 . S
C3266 C3261 1.350 . S
C3267 H3254 0.929 . S
C3267 C3259 1.433 . S
C3267 N3269 1.384 . S
N3268 C3264 1.427 . S
N3268 C3265 1.384 . S
N3269 C3261 1.427 . S
N3269 C3267 1.384 . S
H3270 C3276 0.930 . S
H3271 C3280 0.930 . S
H3272 C3285 0.929 . S
H3273 C3283 0.929 . S
H3274 C3278 0.929 . S
H3275 C3284 0.929 . S
C3276 H3270 0.930 . S
C3276 C3277 1.367 . S
C3276 C3284 1.378 . S
C3277 C3276 1.367 . S
C3277 C3285 1.433 . S
C3278 H3274 0.929 . S
C3278 C3280 1.378 . S
C3278 C3282 1.350 . S
C3279 C3282 1.463 . S
C3279 C3284 1.350 . S
C3279 N3287 1.427 . S
C3280 H3271 0.930 . S
C3280 C3278 1.378 . S
C3280 C3281 1.367 . S
C3281 C3280 1.367 . S
C3281 C3283 1.433 . S
C3282 C3278 1.350 . S
C3282 C3279 1.463 . S
C3282 N3286 1.427 . S
C3283 H3273 0.929 . S
C3283 C3281 1.433 . S
C3283 N3286 1.384 . S
C3284 H3275 0.929 . S
C3284 C3276 1.378 . S
C3284 C3279 1.350 . S
C3285 H3272 0.929 . S
C3285 C3277 1.433 . S
C3285 N3287 1.384 . S
N3286 C3282 1.427 . S
N3286 C3283 1.384 . S
N3287 C3279 1.427 . S
N3287 C3285 1.384 . S
H3288 C3294 0.930 . S
H3289 C3298 0.930 . S
H3290 C3303 0.929 . S
H3291 C3301 0.929 . S
H3292 C3296 0.929 . S
H3293 C3302 0.929 . S
C3294 H3288 0.930 . S
C3294 C3295 1.367 . S
C3294 C3302 1.378 . S
C3295 C3294 1.367 . S
C3295 C3303 1.433 . S
C3296 H3292 0.929 . S
C3296 C3298 1.378 . S
C3296 C3300 1.350 . S
C3297 C3300 1.463 . S
C3297 C3302 1.350 . S
C3297 N3305 1.427 . S
C3298 H3289 0.930 . S
C3298 C3296 1.378 . S
C3298 C3299 1.367 . S
C3299 C3298 1.367 . S
C3299 C3301 1.433 . S
C3300 C3296 1.350 . S
C3300 C3297 1.463 . S
C3300 N3304 1.427 . S
C3301 H3291 0.929 . S
C3301 C3299 1.433 . S
C3301 N3304 1.384 . S
C3302 H3293 0.929 . S
C3302 C3294 1.378 . S
C3302 C3297 1.350 . S
C3303 H3290 0.929 . S
C3303 C3295 1.433 . S
C3303 N3305 1.384 . S
N3304 C3300 1.427 . S
N3304 C3301 1.384 . S
N3305 C3297 1.427 . S
N3305 C3303 1.384 . S
H3306 C3312 0.930 . S
H3307 C3316 0.930 . S
H3308 C3321 0.929 . S
H3309 C3319 0.929 . S
H3310 C3314 0.929 . S
H3311 C3320 0.929 . S
C3312 H3306 0.930 . S
C3312 C3313 1.367 . S
C3312 C3320 1.378 . S
C3313 C3312 1.367 . S
C3313 C3321 1.433 . S
C3314 H3310 0.929 . S
C3314 C3316 1.378 . S
C3314 C3318 1.350 . S
C3315 C3318 1.463 . S
C3315 C3320 1.350 . S
C3315 N3323 1.427 . S
C3316 H3307 0.930 . S
C3316 C3314 1.378 . S
C3316 C3317 1.367 . S
C3317 C3316 1.367 . S
C3317 C3319 1.433 . S
C3318 C3314 1.350 . S
C3318 C3315 1.463 . S
C3318 N3322 1.427 . S
C3319 H3309 0.929 . S
C3319 C3317 1.433 . S
C3319 N3322 1.384 . S
C3320 H3311 0.929 . S
C3320 C3312 1.378 . S
C3320 C3315 1.350 . S
C3321 H3308 0.929 . S
C3321 C3313 1.433 . S
C3321 N3323 1.384 . S
N3322 C3318 1.427 . S
N3322 C3319 1.384 . S
N3323 C3315 1.427 . S
N3323 C3321 1.384 . S
H3324 C3330 0.930 . S
H3325 C3334 0.930 . S
H3326 C3339 0.929 . S
H3327 C3337 0.929 . S
H3328 C3332 0.929 . S
H3329 C3338 0.929 . S
C3330 H3324 0.930 . S
C3330 C3331 1.367 . S
C3330 C3338 1.378 . S
C3331 C3330 1.367 . S
C3331 C3339 1.433 . S
C3332 H3328 0.929 . S
C3332 C3334 1.378 . S
C3332 C3336 1.350 . S
C3333 C3336 1.463 . S
C3333 C3338 1.350 . S
C3333 N3341 1.427 . S
C3334 H3325 0.930 . S
C3334 C3332 1.378 . S
C3334 C3335 1.367 . S
C3335 C3334 1.367 . S
C3335 C3337 1.433 . S
C3336 C3332 1.350 . S
C3336 C3333 1.463 . S
C3336 N3340 1.427 . S
C3337 H3327 0.929 . S
C3337 C3335 1.433 . S
C3337 N3340 1.384 . S
C3338 H3329 0.929 . S
C3338 C3330 1.378 . S
C3338 C3333 1.350 . S
C3339 H3326 0.929 . S
C3339 C3331 1.433 . S
C3339 N3341 1.384 . S
N3340 C3336 1.427 . S
N3340 C3337 1.384 . S
N3341 C3333 1.427 . S
N3341 C3339 1.384 . S
H3342 C3348 0.930 . S
H3343 C3352 0.930 . S
H3344 C3357 0.929 . S
H3345 C3355 0.929 . S
H3346 C3350 0.929 . S
H3347 C3356 0.929 . S
C3348 H3342 0.930 . S
C3348 C3349 1.367 . S
C3348 C3356 1.378 . S
C3349 C3348 1.367 . S
C3349 C3357 1.433 . S
C3350 H3346 0.929 . S
C3350 C3352 1.378 . S
C3350 C3354 1.350 . S
C3351 C3354 1.463 . S
C3351 C3356 1.350 . S
C3351 N3359 1.427 . S
C3352 H3343 0.930 . S
C3352 C3350 1.378 . S
C3352 C3353 1.367 . S
C3353 C3352 1.367 . S
C3353 C3355 1.433 . S
C3354 C3350 1.350 . S
C3354 C3351 1.463 . S
C3354 N3358 1.427 . S
C3355 H3345 0.929 . S
C3355 C3353 1.433 . S
C3355 N3358 1.384 . S
C3356 H3347 0.929 . S
C3356 C3348 1.378 . S
C3356 C3351 1.350 . S
C3357 H3344 0.929 . S
C3357 C3349 1.433 . S
C3357 N3359 1.384 . S
N3358 C3354 1.427 . S
N3358 C3355 1.384 . S
N3359 C3351 1.427 . S
N3359 C3357 1.384 . S
H3360 C3366 0.930 . S
H3361 C3370 0.930 . S
H3362 C3375 0.929 . S
H3363 C3373 0.929 . S
H3364 C3368 0.929 . S
H3365 C3374 0.929 . S
C3366 H3360 0.930 . S
C3366 C3367 1.367 . S
C3366 C3374 1.378 . S
C3367 C3366 1.367 . S
C3367 C3375 1.433 . S
C3368 H3364 0.929 . S
C3368 C3370 1.378 . S
C3368 C3372 1.350 . S
C3369 C3372 1.463 . S
C3369 C3374 1.350 . S
C3369 N3377 1.427 . S
C3370 H3361 0.930 . S
C3370 C3368 1.378 . S
C3370 C3371 1.367 . S
C3371 C3370 1.367 . S
C3371 C3373 1.433 . S
C3372 C3368 1.350 . S
C3372 C3369 1.463 . S
C3372 N3376 1.427 . S
C3373 H3363 0.929 . S
C3373 C3371 1.433 . S
C3373 N3376 1.384 . S
C3374 H3365 0.929 . S
C3374 C3366 1.378 . S
C3374 C3369 1.350 . S
C3375 H3362 0.929 . S
C3375 C3367 1.433 . S
C3375 N3377 1.384 . S
N3376 C3372 1.427 . S
N3376 C3373 1.384 . S
N3377 C3369 1.427 . S
N3377 C3375 1.384 . S
H3378 C3384 0.930 . S
H3379 C3388 0.930 . S
H3380 C3393 0.929 . S
H3381 C3391 0.929 . S
H3382 C3386 0.929 . S
H3383 C3392 0.929 . S
C3384 H3378 0.930 . S
C3384 C3385 1.367 . S
C3384 C3392 1.378 . S
C3385 C3384 1.367 . S
C3385 C3393 1.433 . S
C3386 H3382 0.929 . S
C3386 C3388 1.378 . S
C3386 C3390 1.350 . S
C3387 C3390 1.463 . S
C3387 C3392 1.350 . S
C3387 N3395 1.427 . S
C3388 H3379 0.930 . S
C3388 C3386 1.378 . S
C3388 C3389 1.367 . S
C3389 C3388 1.367 . S
C3389 C3391 1.433 . S
C3390 C3386 1.350 . S
C3390 C3387 1.463 . S
C3390 N3394 1.427 . S
C3391 H3381 0.929 . S
C3391 C3389 1.433 . S
C3391 N3394 1.384 . S
C3392 H3383 0.929 . S
C3392 C3384 1.378 . S
C3392 C3387 1.350 . S
C3393 H3380 0.929 . S
C3393 C3385 1.433 . S
C3393 N3395 1.384 . S
N3394 C3390 1.427 . S
N3394 C3391 1.384 . S
N3395 C3387 1.427 . S
N3395 C3393 1.384 . S
H3396 C3402 0.930 . S
H3397 C3406 0.930 . S
H3398 C3411 0.929 . S
H3399 C3409 0.929 . S
H3400 C3404 0.929 . S
H3401 C3410 0.929 . S
C3402 H3396 0.930 . S
C3402 C3403 1.367 . S
C3402 C3410 1.378 . S
C3403 C3402 1.367 . S
C3403 C3411 1.433 . S
C3404 H3400 0.929 . S
C3404 C3406 1.378 . S
C3404 C3408 1.350 . S
C3405 C3408 1.463 . S
C3405 C3410 1.350 . S
C3405 N3413 1.427 . S
C3406 H3397 0.930 . S
C3406 C3404 1.378 . S
C3406 C3407 1.367 . S
C3407 C3406 1.367 . S
C3407 C3409 1.433 . S
C3408 C3404 1.350 . S
C3408 C3405 1.463 . S
C3408 N3412 1.427 . S
C3409 H3399 0.929 . S
C3409 C3407 1.433 . S
C3409 N3412 1.384 . S
C3410 H3401 0.929 . S
C3410 C3402 1.378 . S
C3410 C3405 1.350 . S
C3411 H3398 0.929 . S
C3411 C3403 1.433 . S
C3411 N3413 1.384 . S
N3412 C3408 1.427 . S
N3412 C3409 1.384 . S
N3413 C3405 1.427 . S
N3413 C3411 1.384 . S
H3414 C3420 0.930 . S
H3415 C3424 0.930 . S
H3416 C3429 0.929 . S
H3417 C3427 0.929 . S
H3418 C3422 0.929 . S
H3419 C3428 0.929 . S
C3420 H3414 0.930 . S
C3420 C3421 1.367 . S
C3420 C3428 1.378 . S
C3421 C3420 1.367 . S
C3421 C3429 1.433 . S
C3422 H3418 0.929 . S
C3422 C3424 1.378 . S
C3422 C3426 1.350 . S
C3423 C3426 1.463 . S
C3423 C3428 1.350 . S
C3423 N3431 1.427 . S
C3424 H3415 0.930 . S
C3424 C3422 1.378 . S
C3424 C3425 1.367 . S
C3425 C3424 1.367 . S
C3425 C3427 1.433 . S
C3426 C3422 1.350 . S
C3426 C3423 1.463 . S
C3426 N3430 1.427 . S
C3427 H3417 0.929 . S
C3427 C3425 1.433 . S
C3427 N3430 1.384 . S
C3428 H3419 0.929 . S
C3428 C3420 1.378 . S
C3428 C3423 1.350 . S
C3429 H3416 0.929 . S
C3429 C3421 1.433 . S
C3429 N3431 1.384 . S
N3430 C3426 1.427 . S
N3430 C3427 1.384 . S
N3431 C3423 1.427 . S
N3431 C3429 1.384 . S
H3432 C3438 0.930 . S
H3433 C3442 0.930 . S
H3434 C3447 0.929 . S
H3435 C3445 0.929 . S
H3436 C3440 0.929 . S
H3437 C3446 0.929 . S
C3438 H3432 0.930 . S
C3438 C3439 1.367 . S
C3438 C3446 1.378 . S
C3439 C3438 1.367 . S
C3439 C3447 1.433 . S
C3440 H3436 0.929 . S
C3440 C3442 1.378 . S
C3440 C3444 1.350 . S
C3441 C3444 1.463 . S
C3441 C3446 1.350 . S
C3441 N3449 1.427 . S
C3442 H3433 0.930 . S
C3442 C3440 1.378 . S
C3442 C3443 1.367 . S
C3443 C3442 1.367 . S
C3443 C3445 1.433 . S
C3444 C3440 1.350 . S
C3444 C3441 1.463 . S
C3444 N3448 1.427 . S
C3445 H3435 0.929 . S
C3445 C3443 1.433 . S
C3445 N3448 1.384 . S
C3446 H3437 0.929 . S
C3446 C3438 1.378 . S
C3446 C3441 1.350 . S
C3447 H3434 0.929 . S
C3447 C3439 1.433 . S
C3447 N3449 1.384 . S
N3448 C3444 1.427 . S
N3448 C3445 1.384 . S
N3449 C3441 1.427 . S
N3449 C3447 1.384 . S
H3450 C3456 0.930 . S
H3451 C3460 0.930 . S
H3452 C3465 0.929 . S
H3453 C3463 0.929 . S
H3454 C3458 0.929 . S
H3455 C3464 0.929 . S
C3456 H3450 0.930 . S
C3456 C3457 1.367 . S
C3456 C3464 1.378 . S
C3457 C3456 1.367 . S
C3457 C3465 1.433 . S
C3458 H3454 0.929 . S
C3458 C3460 1.378 . S
C3458 C3462 1.350 . S
C3459 C3462 1.463 . S
C3459 C3464 1.350 . S
C3459 N3467 1.427 . S
C3460 H3451 0.930 . S
C3460 C3458 1.378 . S
C3460 C3461 1.367 . S
C3461 C3460 1.367 . S
C3461 C3463 1.433 . S
C3462 C3458 1.350 . S
C3462 C3459 1.463 . S
C3462 N3466 1.427 . S
C3463 H3453 0.929 . S
C3463 C3461 1.433 . S
C3463 N3466 1.384 . S
C3464 H3455 0.929 . S
C3464 C3456 1.378 . S
C3464 C3459 1.350 . S
C3465 H3452 0.929 . S
C3465 C3457 1.433 . S
C3465 N3467 1.384 . S
N3466 C3462 1.427 . S
N3466 C3463 1.384 . S
N3467 C3459 1.427 . S
N3467 C3465 1.384 . S
H3468 C3474 0.930 . S
H3469 C3478 0.930 . S
H3470 C3483 0.929 . S
H3471 C3481 0.929 . S
H3472 C3476 0.929 . S
H3473 C3482 0.929 . S
C3474 H3468 0.930 . S
C3474 C3475 1.367 . S
C3474 C3482 1.378 . S
C3475 C3474 1.367 . S
C3475 C3483 1.433 . S
C3476 H3472 0.929 . S
C3476 C3478 1.378 . S
C3476 C3480 1.350 . S
C3477 C3480 1.463 . S
C3477 C3482 1.350 . S
C3477 N3485 1.427 . S
C3478 H3469 0.930 . S
C3478 C3476 1.378 . S
C3478 C3479 1.367 . S
C3479 C3478 1.367 . S
C3479 C3481 1.433 . S
C3480 C3476 1.350 . S
C3480 C3477 1.463 . S
C3480 N3484 1.427 . S
C3481 H3471 0.929 . S
C3481 C3479 1.433 . S
C3481 N3484 1.384 . S
C3482 H3473 0.929 . S
C3482 C3474 1.378 . S
C3482 C3477 1.350 . S
C3483 H3470 0.929 . S
C3483 C3475 1.433 . S
C3483 N3485 1.384 . S
N3484 C3480 1.427 . S
N3484 C3481 1.384 . S
N3485 C3477 1.427 . S
N3485 C3483 1.384 . S
H3486 C3492 0.930 . S
H3487 C3496 0.930 . S
H3488 C3501 0.929 . S
H3489 C3499 0.929 . S
H3490 C3494 0.929 . S
H3491 C3500 0.929 . S
C3492 H3486 0.930 . S
C3492 C3493 1.367 . S
C3492 C3500 1.378 . S
C3493 C3492 1.367 . S
C3493 C3501 1.433 . S
C3494 H3490 0.929 . S
C3494 C3496 1.378 . S
C3494 C3498 1.350 . S
C3495 C3498 1.463 . S
C3495 C3500 1.350 . S
C3495 N3503 1.427 . S
C3496 H3487 0.930 . S
C3496 C3494 1.378 . S
C3496 C3497 1.367 . S
C3497 C3496 1.367 . S
C3497 C3499 1.433 . S
C3498 C3494 1.350 . S
C3498 C3495 1.463 . S
C3498 N3502 1.427 . S
C3499 H3489 0.929 . S
C3499 C3497 1.433 . S
C3499 N3502 1.384 . S
C3500 H3491 0.929 . S
C3500 C3492 1.378 . S
C3500 C3495 1.350 . S
C3501 H3488 0.929 . S
C3501 C3493 1.433 . S
C3501 N3503 1.384 . S
N3502 C3498 1.427 . S
N3502 C3499 1.384 . S
N3503 C3495 1.427 . S
N3503 C3501 1.384 . S
H3504 C3510 0.930 . S
H3505 C3514 0.930 . S
H3506 C3519 0.929 . S
H3507 C3517 0.929 . S
H3508 C3512 0.929 . S
H3509 C3518 0.929 . S
C3510 H3504 0.930 . S
C3510 C3511 1.367 . S
C3510 C3518 1.378 . S
C3511 C3510 1.367 . S
C3511 C3519 1.433 . S
C3512 H3508 0.929 . S
C3512 C3514 1.378 . S
C3512 C3516 1.350 . S
C3513 C3516 1.463 . S
C3513 C3518 1.350 . S
C3513 N3521 1.427 . S
C3514 H3505 0.930 . S
C3514 C3512 1.378 . S
C3514 C3515 1.367 . S
C3515 C3514 1.367 . S
C3515 C3517 1.433 . S
C3516 C3512 1.350 . S
C3516 C3513 1.463 . S
C3516 N3520 1.427 . S
C3517 H3507 0.929 . S
C3517 C3515 1.433 . S
C3517 N3520 1.384 . S
C3518 H3509 0.929 . S
C3518 C3510 1.378 . S
C3518 C3513 1.350 . S
C3519 H3506 0.929 . S
C3519 C3511 1.433 . S
C3519 N3521 1.384 . S
N3520 C3516 1.427 . S
N3520 C3517 1.384 . S
N3521 C3513 1.427 . S
N3521 C3519 1.384 . S
H3522 C3528 0.930 . S
H3523 C3532 0.930 . S
H3524 C3537 0.929 . S
H3525 C3535 0.929 . S
H3526 C3530 0.929 . S
H3527 C3536 0.929 . S
C3528 H3522 0.930 . S
C3528 C3529 1.367 . S
C3528 C3536 1.378 . S
C3529 C3528 1.367 . S
C3529 C3537 1.433 . S
C3530 H3526 0.929 . S
C3530 C3532 1.378 . S
C3530 C3534 1.350 . S
C3531 C3534 1.463 . S
C3531 C3536 1.350 . S
C3531 N3539 1.427 . S
C3532 H3523 0.930 . S
C3532 C3530 1.378 . S
C3532 C3533 1.367 . S
C3533 C3532 1.367 . S
C3533 C3535 1.433 . S
C3534 C3530 1.350 . S
C3534 C3531 1.463 . S
C3534 N3538 1.427 . S
C3535 H3525 0.929 . S
C3535 C3533 1.433 . S
C3535 N3538 1.384 . S
C3536 H3527 0.929 . S
C3536 C3528 1.378 . S
C3536 C3531 1.350 . S
C3537 H3524 0.929 . S
C3537 C3529 1.433 . S
C3537 N3539 1.384 . S
N3538 C3534 1.427 . S
N3538 C3535 1.384 . S
N3539 C3531 1.427 . S
N3539 C3537 1.384 . S
H3540 C3546 0.930 . S
H3541 C3550 0.930 . S
H3542 C3555 0.929 . S
H3543 C3553 0.929 . S
H3544 C3548 0.929 . S
H3545 C3554 0.929 . S
C3546 H3540 0.930 . S
C3546 C3547 1.367 . S
C3546 C3554 1.378 . S
C3547 C3546 1.367 . S
C3547 C3555 1.433 . S
C3548 H3544 0.929 . S
C3548 C3550 1.378 . S
C3548 C3552 1.350 . S
C3549 C3552 1.463 . S
C3549 C3554 1.350 . S
C3549 N3557 1.427 . S
C3550 H3541 0.930 . S
C3550 C3548 1.378 . S
C3550 C3551 1.367 . S
C3551 C3550 1.367 . S
C3551 C3553 1.433 . S
C3552 C3548 1.350 . S
C3552 C3549 1.463 . S
C3552 N3556 1.427 . S
C3553 H3543 0.929 . S
C3553 C3551 1.433 . S
C3553 N3556 1.384 . S
C3554 H3545 0.929 . S
C3554 C3546 1.378 . S
C3554 C3549 1.350 . S
C3555 H3542 0.929 . S
C3555 C3547 1.433 . S
C3555 N3557 1.384 . S
N3556 C3552 1.427 . S
N3556 C3553 1.384 . S
N3557 C3549 1.427 . S
N3557 C3555 1.384 . S
H3558 C3564 0.930 . S
H3559 C3568 0.930 . S
H3560 C3573 0.929 . S
H3561 C3571 0.929 . S
H3562 C3566 0.929 . S
H3563 C3572 0.929 . S
C3564 H3558 0.930 . S
C3564 C3565 1.367 . S
C3564 C3572 1.378 . S
C3565 C3564 1.367 . S
C3565 C3573 1.433 . S
C3566 H3562 0.929 . S
C3566 C3568 1.378 . S
C3566 C3570 1.350 . S
C3567 C3570 1.463 . S
C3567 C3572 1.350 . S
C3567 N3575 1.427 . S
C3568 H3559 0.930 . S
C3568 C3566 1.378 . S
C3568 C3569 1.367 . S
C3569 C3568 1.367 . S
C3569 C3571 1.433 . S
C3570 C3566 1.350 . S
C3570 C3567 1.463 . S
C3570 N3574 1.427 . S
C3571 H3561 0.929 . S
C3571 C3569 1.433 . S
C3571 N3574 1.384 . S
C3572 H3563 0.929 . S
C3572 C3564 1.378 . S
C3572 C3567 1.350 . S
C3573 H3560 0.929 . S
C3573 C3565 1.433 . S
C3573 N3575 1.384 . S
N3574 C3570 1.427 . S
N3574 C3571 1.384 . S
N3575 C3567 1.427 . S
N3575 C3573 1.384 . S
H3576 C3582 0.930 . S
H3577 C3586 0.930 . S
H3578 C3591 0.929 . S
H3579 C3589 0.929 . S
H3580 C3584 0.929 . S
H3581 C3590 0.929 . S
C3582 H3576 0.930 . S
C3582 C3583 1.367 . S
C3582 C3590 1.378 . S
C3583 C3582 1.367 . S
C3583 C3591 1.433 . S
C3584 H3580 0.929 . S
C3584 C3586 1.378 . S
C3584 C3588 1.350 . S
C3585 C3588 1.463 . S
C3585 C3590 1.350 . S
C3585 N3593 1.427 . S
C3586 H3577 0.930 . S
C3586 C3584 1.378 . S
C3586 C3587 1.367 . S
C3587 C3586 1.367 . S
C3587 C3589 1.433 . S
C3588 C3584 1.350 . S
C3588 C3585 1.463 . S
C3588 N3592 1.427 . S
C3589 H3579 0.929 . S
C3589 C3587 1.433 . S
C3589 N3592 1.384 . S
C3590 H3581 0.929 . S
C3590 C3582 1.378 . S
C3590 C3585 1.350 . S
C3591 H3578 0.929 . S
C3591 C3583 1.433 . S
C3591 N3593 1.384 . S
N3592 C3588 1.427 . S
N3592 C3589 1.384 . S
N3593 C3585 1.427 . S
N3593 C3591 1.384 . S
H3594 C3600 0.930 . S
H3595 C3604 0.930 . S
H3596 C3609 0.929 . S
H3597 C3607 0.929 . S
H3598 C3602 0.929 . S
H3599 C3608 0.929 . S
C3600 H3594 0.930 . S
C3600 C3601 1.367 . S
C3600 C3608 1.378 . S
C3601 C3600 1.367 . S
C3601 C3609 1.433 . S
C3602 H3598 0.929 . S
C3602 C3604 1.378 . S
C3602 C3606 1.350 . S
C3603 C3606 1.463 . S
C3603 C3608 1.350 . S
C3603 N3611 1.427 . S
C3604 H3595 0.930 . S
C3604 C3602 1.378 . S
C3604 C3605 1.367 . S
C3605 C3604 1.367 . S
C3605 C3607 1.433 . S
C3606 C3602 1.350 . S
C3606 C3603 1.463 . S
C3606 N3610 1.427 . S
C3607 H3597 0.929 . S
C3607 C3605 1.433 . S
C3607 N3610 1.384 . S
C3608 H3599 0.929 . S
C3608 C3600 1.378 . S
C3608 C3603 1.350 . S
C3609 H3596 0.929 . S
C3609 C3601 1.433 . S
C3609 N3611 1.384 . S
N3610 C3606 1.427 . S
N3610 C3607 1.384 . S
N3611 C3603 1.427 . S
N3611 C3609 1.384 . S
H3612 C3618 0.930 . S
H3613 C3622 0.930 . S
H3614 C3627 0.929 . S
H3615 C3625 0.929 . S
H3616 C3620 0.929 . S
H3617 C3626 0.929 . S
C3618 H3612 0.930 . S
C3618 C3619 1.367 . S
C3618 C3626 1.378 . S
C3619 C3618 1.367 . S
C3619 C3627 1.433 . S
C3620 H3616 0.929 . S
C3620 C3622 1.378 . S
C3620 C3624 1.350 . S
C3621 C3624 1.463 . S
C3621 C3626 1.350 . S
C3621 N3629 1.427 . S
C3622 H3613 0.930 . S
C3622 C3620 1.378 . S
C3622 C3623 1.367 . S
C3623 C3622 1.367 . S
C3623 C3625 1.433 . S
C3624 C3620 1.350 . S
C3624 C3621 1.463 . S
C3624 N3628 1.427 . S
C3625 H3615 0.929 . S
C3625 C3623 1.433 . S
C3625 N3628 1.384 . S
C3626 H3617 0.929 . S
C3626 C3618 1.378 . S
C3626 C3621 1.350 . S
C3627 H3614 0.929 . S
C3627 C3619 1.433 . S
C3627 N3629 1.384 . S
N3628 C3624 1.427 . S
N3628 C3625 1.384 . S
N3629 C3621 1.427 . S
N3629 C3627 1.384 . S
H3630 C3636 0.930 . S
H3631 C3640 0.930 . S
H3632 C3645 0.929 . S
H3633 C3643 0.929 . S
H3634 C3638 0.929 . S
H3635 C3644 0.929 . S
C3636 H3630 0.930 . S
C3636 C3637 1.367 . S
C3636 C3644 1.378 . S
C3637 C3636 1.367 . S
C3637 C3645 1.433 . S
C3638 H3634 0.929 . S
C3638 C3640 1.378 . S
C3638 C3642 1.350 . S
C3639 C3642 1.463 . S
C3639 C3644 1.350 . S
C3639 N3647 1.427 . S
C3640 H3631 0.930 . S
C3640 C3638 1.378 . S
C3640 C3641 1.367 . S
C3641 C3640 1.367 . S
C3641 C3643 1.433 . S
C3642 C3638 1.350 . S
C3642 C3639 1.463 . S
C3642 N3646 1.427 . S
C3643 H3633 0.929 . S
C3643 C3641 1.433 . S
C3643 N3646 1.384 . S
C3644 H3635 0.929 . S
C3644 C3636 1.378 . S
C3644 C3639 1.350 . S
C3645 H3632 0.929 . S
C3645 C3637 1.433 . S
C3645 N3647 1.384 . S
N3646 C3642 1.427 . S
N3646 C3643 1.384 . S
N3647 C3639 1.427 . S
N3647 C3645 1.384 . S
H3648 C3654 0.930 . S
H3649 C3658 0.930 . S
H3650 C3663 0.929 . S
H3651 C3661 0.929 . S
H3652 C3656 0.929 . S
H3653 C3662 0.929 . S
C3654 H3648 0.930 . S
C3654 C3655 1.367 . S
C3654 C3662 1.378 . S
C3655 C3654 1.367 . S
C3655 C3663 1.433 . S
C3656 H3652 0.929 . S
C3656 C3658 1.378 . S
C3656 C3660 1.350 . S
C3657 C3660 1.463 . S
C3657 C3662 1.350 . S
C3657 N3665 1.427 . S
C3658 H3649 0.930 . S
C3658 C3656 1.378 . S
C3658 C3659 1.367 . S
C3659 C3658 1.367 . S
C3659 C3661 1.433 . S
C3660 C3656 1.350 . S
C3660 C3657 1.463 . S
C3660 N3664 1.427 . S
C3661 H3651 0.929 . S
C3661 C3659 1.433 . S
C3661 N3664 1.384 . S
C3662 H3653 0.929 . S
C3662 C3654 1.378 . S
C3662 C3657 1.350 . S
C3663 H3650 0.929 . S
C3663 C3655 1.433 . S
C3663 N3665 1.384 . S
N3664 C3660 1.427 . S
N3664 C3661 1.384 . S
N3665 C3657 1.427 . S
N3665 C3663 1.384 . S
H3666 C3672 0.930 . S
H3667 C3676 0.930 . S
H3668 C3681 0.929 . S
H3669 C3679 0.929 . S
H3670 C3674 0.929 . S
H3671 C3680 0.929 . S
C3672 H3666 0.930 . S
C3672 C3673 1.367 . S
C3672 C3680 1.378 . S
C3673 C3672 1.367 . S
C3673 C3681 1.433 . S
C3674 H3670 0.929 . S
C3674 C3676 1.378 . S
C3674 C3678 1.350 . S
C3675 C3678 1.463 . S
C3675 C3680 1.350 . S
C3675 N3683 1.427 . S
C3676 H3667 0.930 . S
C3676 C3674 1.378 . S
C3676 C3677 1.367 . S
C3677 C3676 1.367 . S
C3677 C3679 1.433 . S
C3678 C3674 1.350 . S
C3678 C3675 1.463 . S
C3678 N3682 1.427 . S
C3679 H3669 0.929 . S
C3679 C3677 1.433 . S
C3679 N3682 1.384 . S
C3680 H3671 0.929 . S
C3680 C3672 1.378 . S
C3680 C3675 1.350 . S
C3681 H3668 0.929 . S
C3681 C3673 1.433 . S
C3681 N3683 1.384 . S
N3682 C3678 1.427 . S
N3682 C3679 1.384 . S
N3683 C3675 1.427 . S
N3683 C3681 1.384 . S
H3684 C3690 0.930 . S
H3685 C3694 0.930 . S
H3686 C3699 0.929 . S
H3687 C3697 0.929 . S
H3688 C3692 0.929 . S
H3689 C3698 0.929 . S
C3690 H3684 0.930 . S
C3690 C3691 1.367 . S
C3690 C3698 1.378 . S
C3691 C3690 1.367 . S
C3691 C3699 1.433 . S
C3692 H3688 0.929 . S
C3692 C3694 1.378 . S
C3692 C3696 1.350 . S
C3693 C3696 1.463 . S
C3693 C3698 1.350 . S
C3693 N3701 1.427 . S
C3694 H3685 0.930 . S
C3694 C3692 1.378 . S
C3694 C3695 1.367 . S
C3695 C3694 1.367 . S
C3695 C3697 1.433 . S
C3696 C3692 1.350 . S
C3696 C3693 1.463 . S
C3696 N3700 1.427 . S
C3697 H3687 0.929 . S
C3697 C3695 1.433 . S
C3697 N3700 1.384 . S
C3698 H3689 0.929 . S
C3698 C3690 1.378 . S
C3698 C3693 1.350 . S
C3699 H3686 0.929 . S
C3699 C3691 1.433 . S
C3699 N3701 1.384 . S
N3700 C3696 1.427 . S
N3700 C3697 1.384 . S
N3701 C3693 1.427 . S
N3701 C3699 1.384 . S
H3702 C3708 0.930 . S
H3703 C3712 0.930 . S
H3704 C3717 0.929 . S
H3705 C3715 0.929 . S
H3706 C3710 0.929 . S
H3707 C3716 0.929 . S
C3708 H3702 0.930 . S
C3708 C3709 1.367 . S
C3708 C3716 1.378 . S
C3709 C3708 1.367 . S
C3709 C3717 1.433 . S
C3710 H3706 0.929 . S
C3710 C3712 1.378 . S
C3710 C3714 1.350 . S
C3711 C3714 1.463 . S
C3711 C3716 1.350 . S
C3711 N3719 1.427 . S
C3712 H3703 0.930 . S
C3712 C3710 1.378 . S
C3712 C3713 1.367 . S
C3713 C3712 1.367 . S
C3713 C3715 1.433 . S
C3714 C3710 1.350 . S
C3714 C3711 1.463 . S
C3714 N3718 1.427 . S
C3715 H3705 0.929 . S
C3715 C3713 1.433 . S
C3715 N3718 1.384 . S
C3716 H3707 0.929 . S
C3716 C3708 1.378 . S
C3716 C3711 1.350 . S
C3717 H3704 0.929 . S
C3717 C3709 1.433 . S
C3717 N3719 1.384 . S
N3718 C3714 1.427 . S
N3718 C3715 1.384 . S
N3719 C3711 1.427 . S
N3719 C3717 1.384 . S
H3720 C3726 0.930 . S
H3721 C3730 0.930 . S
H3722 C3735 0.929 . S
H3723 C3733 0.929 . S
H3724 C3728 0.929 . S
H3725 C3734 0.929 . S
C3726 H3720 0.930 . S
C3726 C3727 1.367 . S
C3726 C3734 1.378 . S
C3727 C3726 1.367 . S
C3727 C3735 1.433 . S
C3728 H3724 0.929 . S
C3728 C3730 1.378 . S
C3728 C3732 1.350 . S
C3729 C3732 1.463 . S
C3729 C3734 1.350 . S
C3729 N3737 1.427 . S
C3730 H3721 0.930 . S
C3730 C3728 1.378 . S
C3730 C3731 1.367 . S
C3731 C3730 1.367 . S
C3731 C3733 1.433 . S
C3732 C3728 1.350 . S
C3732 C3729 1.463 . S
C3732 N3736 1.427 . S
C3733 H3723 0.929 . S
C3733 C3731 1.433 . S
C3733 N3736 1.384 . S
C3734 H3725 0.929 . S
C3734 C3726 1.378 . S
C3734 C3729 1.350 . S
C3735 H3722 0.929 . S
C3735 C3727 1.433 . S
C3735 N3737 1.384 . S
N3736 C3732 1.427 . S
N3736 C3733 1.384 . S
N3737 C3729 1.427 . S
N3737 C3735 1.384 . S
H3738 C3744 0.930 . S
H3739 C3748 0.930 . S
H3740 C3753 0.929 . S
H3741 C3751 0.929 . S
H3742 C3746 0.929 . S
H3743 C3752 0.929 . S
C3744 H3738 0.930 . S
C3744 C3745 1.367 . S
C3744 C3752 1.378 . S
C3745 C3744 1.367 . S
C3745 C3753 1.433 . S
C3746 H3742 0.929 . S
C3746 C3748 1.378 . S
C3746 C3750 1.350 . S
C3747 C3750 1.463 . S
C3747 C3752 1.350 . S
C3747 N3755 1.427 . S
C3748 H3739 0.930 . S
C3748 C3746 1.378 . S
C3748 C3749 1.367 . S
C3749 C3748 1.367 . S
C3749 C3751 1.433 . S
C3750 C3746 1.350 . S
C3750 C3747 1.463 . S
C3750 N3754 1.427 . S
C3751 H3741 0.929 . S
C3751 C3749 1.433 . S
C3751 N3754 1.384 . S
C3752 H3743 0.929 . S
C3752 C3744 1.378 . S
C3752 C3747 1.350 . S
C3753 H3740 0.929 . S
C3753 C3745 1.433 . S
C3753 N3755 1.384 . S
N3754 C3750 1.427 . S
N3754 C3751 1.384 . S
N3755 C3747 1.427 . S
N3755 C3753 1.384 . S
H3756 C3762 0.930 . S
H3757 C3766 0.930 . S
H3758 C3771 0.929 . S
H3759 C3769 0.929 . S
H3760 C3764 0.929 . S
H3761 C3770 0.929 . S
C3762 H3756 0.930 . S
C3762 C3763 1.367 . S
C3762 C3770 1.378 . S
C3763 C3762 1.367 . S
C3763 C3771 1.433 . S
C3764 H3760 0.929 . S
C3764 C3766 1.378 . S
C3764 C3768 1.350 . S
C3765 C3768 1.463 . S
C3765 C3770 1.350 . S
C3765 N3773 1.427 . S
C3766 H3757 0.930 . S
C3766 C3764 1.378 . S
C3766 C3767 1.367 . S
C3767 C3766 1.367 . S
C3767 C3769 1.433 . S
C3768 C3764 1.350 . S
C3768 C3765 1.463 . S
C3768 N3772 1.427 . S
C3769 H3759 0.929 . S
C3769 C3767 1.433 . S
C3769 N3772 1.384 . S
C3770 H3761 0.929 . S
C3770 C3762 1.378 . S
C3770 C3765 1.350 . S
C3771 H3758 0.929 . S
C3771 C3763 1.433 . S
C3771 N3773 1.384 . S
N3772 C3768 1.427 . S
N3772 C3769 1.384 . S
N3773 C3765 1.427 . S
N3773 C3771 1.384 . S
H3774 C3780 0.930 . S
H3775 C3784 0.930 . S
H3776 C3789 0.929 . S
H3777 C3787 0.929 . S
H3778 C3782 0.929 . S
H3779 C3788 0.929 . S
C3780 H3774 0.930 . S
C3780 C3781 1.367 . S
C3780 C3788 1.378 . S
C3781 C3780 1.367 . S
C3781 C3789 1.433 . S
C3782 H3778 0.929 . S
C3782 C3784 1.378 . S
C3782 C3786 1.350 . S
C3783 C3786 1.463 . S
C3783 C3788 1.350 . S
C3783 N3791 1.427 . S
C3784 H3775 0.930 . S
C3784 C3782 1.378 . S
C3784 C3785 1.367 . S
C3785 C3784 1.367 . S
C3785 C3787 1.433 . S
C3786 C3782 1.350 . S
C3786 C3783 1.463 . S
C3786 N3790 1.427 . S
C3787 H3777 0.929 . S
C3787 C3785 1.433 . S
C3787 N3790 1.384 . S
C3788 H3779 0.929 . S
C3788 C3780 1.378 . S
C3788 C3783 1.350 . S
C3789 H3776 0.929 . S
C3789 C3781 1.433 . S
C3789 N3791 1.384 . S
N3790 C3786 1.427 . S
N3790 C3787 1.384 . S
N3791 C3783 1.427 . S
N3791 C3789 1.384 . S
C1639 C621 1.643 . S
C1643 C20 1.645 . S
C1657 C54 1.649 . S
C1661 C655 1.644 . S
C1675 C88 1.647 . S
C1679 C689 1.643 . S
C1693 C587 1.645 . S
C1697 C122 1.649 . S
C1711 C757 1.648 . S
C1715 C156 1.648 . S
C1729 C190 1.645 . S
C1733 C553 1.644 . S
C1747 C791 1.651 . S
C1751 C224 1.654 . S
C1765 C723 1.644 . S
C1769 C258 1.649 . S
C1783 C292 1.645 . S
C1787 C315 1.643 . S
C1801 C349 1.647 . S
C1805 C326 1.647 . S
C1819 C383 1.645 . S
C1823 C360 1.646 . S
C1837 C394 1.652 . S
C1841 C281 1.652 . S
C1855 C519 1.647 . S
C1859 C428 1.647 . S
C1873 C462 1.652 . S
C1877 C417 1.652 . S
C1891 C451 1.643 . S
C1895 C496 1.645 . S
C1909 C485 1.652 . S
C1913 C530 1.654 . S
C1927 C564 1.649 . S
C1931 C111 1.650 . S
C1945 C179 1.650 . S
C1949 C598 1.650 . S
C1963 C632 1.645 . S
C1967 C213 1.644 . S
C1981 C247 1.650 . S
C1985 C666 1.650 . S
C1999 C145 1.643 . S
C2003 C700 1.646 . S
C2017 C734 1.652 . S
C2021 C43 1.648 . S
C2035 C768 1.646 . S
C2039 C77 1.643 . S
C2053 C9 1.649 . S
C2057 C802 1.648 . S
C2071 C836 1.653 . S
C2075 C1437 1.652 . S
C2089 C1471 1.647 . S
C2093 C870 1.651 . S
C2107 C1505 1.647 . S
C2111 C904 1.647 . S
C2125 C938 1.645 . S
C2129 C1403 1.645 . S
C2143 C1573 1.652 . S
C2147 C972 1.653 . S
C2161 C1006 1.654 . S
C2165 C1369 1.651 . S
C2179 C1607 1.643 . S
C2183 C1040 1.645 . S
C2197 C1539 1.643 . S
C2201 C1074 1.645 . S
C2215 C1131 1.646 . S
C2219 C1108 1.650 . S
C2233 C1142 1.652 . S
C2237 C1165 1.651 . S
C2251 C1199 1.651 . S
C2255 C1176 1.651 . S
C2269 C1210 1.653 . S
C2273 C1097 1.652 . S
C2287 C1244 1.653 . S
C2291 C1335 1.652 . S
C2305 C1233 1.647 . S
C2309 C1278 1.647 . S
C2323 C1312 1.654 . S
C2327 C1267 1.652 . S
C2341 C1301 1.643 . S
C2345 C1346 1.645 . S
C2359 C927 1.650 . S
C2363 C1380 1.650 . S
C2377 C1414 1.654 . S
C2381 C995 1.651 . S
C2395 C1448 1.650 . S
C2399 C1029 1.650 . S
C2413 C1063 1.644 . S
C2417 C1482 1.648 . S
C2431 C961 1.645 . S
C2435 C1516 1.646 . S
C2449 C859 1.650 . S
C2453 C1550 1.650 . S
C2467 C1584 1.654 . S
C2471 C893 1.652 . S
C2485 C825 1.650 . S
C2489 C1618 1.650 . S
C2503 C1087 1.191 . S
C2507 C33 1.189 . S
C2521 C985 1.185 . S
C2525 C67 1.178 . S
C2539 C101 1.172 . S
C2543 C1019 1.179 . S
C2557 C1053 1.170 . S
C2561 C135 1.176 . S
C2575 C169 1.189 . S
C2579 C883 1.183 . S
C2593 C917 1.170 . S
C2597 C203 1.177 . S
C2611 C951 1.176 . S
C2615 C237 1.183 . S
C2629 C271 1.190 . S
C2633 C849 1.191 . S
C2647 C305 1.167 . S
C2651 C1529 1.172 . S
C2665 C1427 1.166 . S
C2669 C339 1.165 . S
C2683 C1461 1.175 . S
C2687 C373 1.182 . S
C2701 C1495 1.190 . S
C2705 C407 1.191 . S
C2719 C1631 1.190 . S
C2723 C441 1.191 . S
C2737 C475 1.184 . S
C2741 C1563 1.177 . S
C2755 C509 1.166 . S
C2759 C1597 1.171 . S
C2773 C1393 1.169 . S
C2777 C543 1.166 . S
C2791 C1359 1.173 . S
C2795 C577 1.180 . S
C2809 C611 1.169 . S
C2813 C1155 1.176 . S
C2827 C1189 1.183 . S
C2831 C645 1.176 . S
C2845 C1223 1.180 . S
C2849 C679 1.173 . S
C2863 C713 1.190 . S
C2867 C1121 1.191 . S
C2881 C747 1.189 . S
C2885 C1291 1.191 . S
C2899 C1325 1.187 . S
C2903 C781 1.191 . S
C2917 C815 1.176 . S
C2921 C1257 1.169 . S
C2935 C277 1.293 . S
C2939 C2 1.366 . S
C2953 C311 1.299 . S
C2957 C36 1.367 . S
C2971 C70 1.362 . S
C2975 C345 1.302 . S
C2989 C104 1.364 . S
C2993 C379 1.286 . S
C3007 C138 1.361 . S
C3011 C413 1.301 . S
C3025 C447 1.281 . S
C3029 C172 1.354 . S
C3043 C481 1.279 . S
C3047 C206 1.356 . S
C3061 C240 1.367 . S
C3065 C515 1.298 . S
C3079 C549 1.282 . S
C3083 C274 1.353 . S
C3097 C787 1.279 . S
C3101 C308 1.357 . S
C3115 C719 1.292 . S
C3119 C342 1.354 . S
C3133 C376 1.358 . S
C3137 C753 1.299 . S
C3151 C410 1.367 . S
C3155 C583 1.295 . S
C3169 C444 1.361 . S
C3173 C617 1.301 . S
C3187 C478 1.365 . S
C3191 C651 1.302 . S
C3205 C512 1.354 . S
C3209 C685 1.291 . S
C3223 C5 1.279 . S
C3227 C546 1.355 . S
C3241 C580 1.353 . S
C3245 C141 1.287 . S
C3259 C175 1.299 . S
C3263 C614 1.359 . S
C3277 C648 1.357 . S
C3281 C209 1.297 . S
C3295 C243 1.302 . S
C3299 C682 1.361 . S
C3313 C73 1.298 . S
C3317 C716 1.357 . S
C3331 C750 1.367 . S
C3335 C107 1.296 . S
C3349 C39 1.290 . S
C3353 C784 1.366 . S
C3367 C818 1.361 . S
C3371 C1093 1.282 . S
C3385 C1127 1.299 . S
C3389 C852 1.358 . S
C3403 C886 1.354 . S
C3407 C1161 1.291 . S
C3421 C920 1.353 . S
C3425 C1195 1.283 . S
C3439 C954 1.354 . S
C3443 C1229 1.281 . S
C3457 C988 1.353 . S
C3461 C1263 1.281 . S
C3475 C1022 1.364 . S
C3479 C1297 1.287 . S
C3493 C1056 1.353 . S
C3497 C1331 1.281 . S
C3511 C1090 1.354 . S
C3515 C1365 1.280 . S
C3529 C1124 1.353 . S
C3533 C1603 1.283 . S
C3547 C1158 1.355 . S
C3551 C1535 1.294 . S
C3565 C1569 1.302 . S
C3569 C1192 1.365 . S
C3583 C1399 1.299 . S
C3587 C1226 1.359 . S
C3601 C1260 1.357 . S
C3605 C1433 1.297 . S
C3619 C1467 1.294 . S
C3623 C1294 1.367 . S
C3637 C1328 1.362 . S
C3641 C1501 1.302 . S
C3655 C1362 1.353 . S
C3659 C821 1.285 . S
C3673 C957 1.291 . S
C3677 C1396 1.354 . S
C3691 C991 1.296 . S
C3695 C1430 1.356 . S
C3709 C1025 1.289 . S
C3713 C1464 1.365 . S
C3727 C1059 1.296 . S
C3731 C1498 1.367 . S
C3745 C889 1.302 . S
C3749 C1532 1.364 . S
C3763 C923 1.291 . S
C3767 C1566 1.354 . S
C3781 C855 1.284 . S
C3785 C1600 1.363 . S
