# Generated by pormake.
# Topology ukr, (4)-cn, num edge types: 1
# Building blocks:
#     Node 0, Type 0, BuildingBlock: NAHDIM_clean_sbu_0, # of connection points: 4
#     Node 1, Type 0, BuildingBlock: NAHDIM_clean_sbu_0, # of connection points: 4
#     Node 2, Type 0, BuildingBlock: NAHDIM_clean_sbu_0, # of connection points: 4
#     Node 3, Type 0, BuildingBlock: NAHDIM_clean_sbu_0, # of connection points: 4
#     Node 4, Type 0, BuildingBlock: NAHDIM_clean_sbu_0, # of connection points: 4
#     Node 5, Type 0, BuildingBlock: NAHDIM_clean_sbu_0, # of connection points: 4
#     Node 6, Type 0, BuildingBlock: NAHDIM_clean_sbu_0, # of connection points: 4
#     Node 7, Type 0, BuildingBlock: NAHDIM_clean_sbu_0, # of connection points: 4
#     Node 8, Type 0, BuildingBlock: NAHDIM_clean_sbu_0, # of connection points: 4
#     Node 9, Type 0, BuildingBlock: NAHDIM_clean_sbu_0, # of connection points: 4
#     Node 10, Type 0, BuildingBlock: NAHDIM_clean_sbu_0, # of connection points: 4
#     Node 11, Type 0, BuildingBlock: NAHDIM_clean_sbu_0, # of connection points: 4
#     Node 12, Type 0, BuildingBlock: NAHDIM_clean_sbu_0, # of connection points: 4
#     Node 13, Type 0, BuildingBlock: NAHDIM_clean_sbu_0, # of connection points: 4
#     Node 14, Type 0, BuildingBlock: NAHDIM_clean_sbu_0, # of connection points: 4
#     Node 15, Type 0, BuildingBlock: NAHDIM_clean_sbu_0, # of connection points: 4
#     Node 16, Type 0, BuildingBlock: NAHDIM_clean_sbu_0, # of connection points: 4
#     Node 17, Type 0, BuildingBlock: NAHDIM_clean_sbu_0, # of connection points: 4
#     Node 18, Type 0, BuildingBlock: NAHDIM_clean_sbu_0, # of connection points: 4
#     Node 19, Type 0, BuildingBlock: NAHDIM_clean_sbu_0, # of connection points: 4
#     Node 20, Type 0, BuildingBlock: NAHDIM_clean_sbu_0, # of connection points: 4
#     Node 21, Type 0, BuildingBlock: NAHDIM_clean_sbu_0, # of connection points: 4
#     Node 22, Type 0, BuildingBlock: NAHDIM_clean_sbu_0, # of connection points: 4
#     Node 23, Type 0, BuildingBlock: NAHDIM_clean_sbu_0, # of connection points: 4
#     Node 24, Type 0, BuildingBlock: NAHDIM_clean_sbu_0, # of connection points: 4
#     Node 25, Type 0, BuildingBlock: NAHDIM_clean_sbu_0, # of connection points: 4
#     Node 26, Type 0, BuildingBlock: NAHDIM_clean_sbu_0, # of connection points: 4
#     Node 27, Type 0, BuildingBlock: NAHDIM_clean_sbu_0, # of connection points: 4
#     Node 28, Type 0, BuildingBlock: NAHDIM_clean_sbu_0, # of connection points: 4
#     Node 29, Type 0, BuildingBlock: NAHDIM_clean_sbu_0, # of connection points: 4
#     Node 30, Type 0, BuildingBlock: NAHDIM_clean_sbu_0, # of connection points: 4
#     Node 31, Type 0, BuildingBlock: NAHDIM_clean_sbu_0, # of connection points: 4
#     Node 32, Type 0, BuildingBlock: NAHDIM_clean_sbu_0, # of connection points: 4
#     Node 33, Type 0, BuildingBlock: NAHDIM_clean_sbu_0, # of connection points: 4
#     Node 34, Type 0, BuildingBlock: NAHDIM_clean_sbu_0, # of connection points: 4
#     Node 35, Type 0, BuildingBlock: NAHDIM_clean_sbu_0, # of connection points: 4
#     Node 36, Type 0, BuildingBlock: NAHDIM_clean_sbu_0, # of connection points: 4
#     Node 37, Type 0, BuildingBlock: NAHDIM_clean_sbu_0, # of connection points: 4
#     Node 38, Type 0, BuildingBlock: NAHDIM_clean_sbu_0, # of connection points: 4
#     Node 39, Type 0, BuildingBlock: NAHDIM_clean_sbu_0, # of connection points: 4
#     Node 40, Type 0, BuildingBlock: NAHDIM_clean_sbu_0, # of connection points: 4
#     Node 41, Type 0, BuildingBlock: NAHDIM_clean_sbu_0, # of connection points: 4
#     Node 42, Type 0, BuildingBlock: NAHDIM_clean_sbu_0, # of connection points: 4
#     Node 43, Type 0, BuildingBlock: NAHDIM_clean_sbu_0, # of connection points: 4
#     Node 44, Type 0, BuildingBlock: NAHDIM_clean_sbu_0, # of connection points: 4
#     Node 45, Type 0, BuildingBlock: NAHDIM_clean_sbu_0, # of connection points: 4
#     Node 46, Type 0, BuildingBlock: NAHDIM_clean_sbu_0, # of connection points: 4
#     Node 47, Type 0, BuildingBlock: NAHDIM_clean_sbu_0, # of connection points: 4
#     Edge 48, Type (0, 0), BuildingBlock: ZUJKAS_clean_linker_0, # of connection points: 2
#     Edge 49, Type (0, 0), BuildingBlock: ZUJKAS_clean_linker_0, # of connection points: 2
#     Edge 50, Type (0, 0), BuildingBlock: ZUJKAS_clean_linker_0, # of connection points: 2
#     Edge 51, Type (0, 0), BuildingBlock: ZUJKAS_clean_linker_0, # of connection points: 2
#     Edge 52, Type (0, 0), BuildingBlock: ZUJKAS_clean_linker_0, # of connection points: 2
#     Edge 53, Type (0, 0), BuildingBlock: ZUJKAS_clean_linker_0, # of connection points: 2
#     Edge 54, Type (0, 0), BuildingBlock: ZUJKAS_clean_linker_0, # of connection points: 2
#     Edge 55, Type (0, 0), BuildingBlock: ZUJKAS_clean_linker_0, # of connection points: 2
#     Edge 56, Type (0, 0), BuildingBlock: ZUJKAS_clean_linker_0, # of connection points: 2
#     Edge 57, Type (0, 0), BuildingBlock: ZUJKAS_clean_linker_0, # of connection points: 2
#     Edge 58, Type (0, 0), BuildingBlock: ZUJKAS_clean_linker_0, # of connection points: 2
#     Edge 59, Type (0, 0), BuildingBlock: ZUJKAS_clean_linker_0, # of connection points: 2
#     Edge 60, Type (0, 0), BuildingBlock: ZUJKAS_clean_linker_0, # of connection points: 2
#     Edge 61, Type (0, 0), BuildingBlock: ZUJKAS_clean_linker_0, # of connection points: 2
#     Edge 62, Type (0, 0), BuildingBlock: ZUJKAS_clean_linker_0, # of connection points: 2
#     Edge 63, Type (0, 0), BuildingBlock: ZUJKAS_clean_linker_0, # of connection points: 2
#     Edge 64, Type (0, 0), BuildingBlock: ZUJKAS_clean_linker_0, # of connection points: 2
#     Edge 65, Type (0, 0), BuildingBlock: ZUJKAS_clean_linker_0, # of connection points: 2
#     Edge 66, Type (0, 0), BuildingBlock: ZUJKAS_clean_linker_0, # of connection points: 2
#     Edge 67, Type (0, 0), BuildingBlock: ZUJKAS_clean_linker_0, # of connection points: 2
#     Edge 68, Type (0, 0), BuildingBlock: ZUJKAS_clean_linker_0, # of connection points: 2
#     Edge 69, Type (0, 0), BuildingBlock: ZUJKAS_clean_linker_0, # of connection points: 2
#     Edge 70, Type (0, 0), BuildingBlock: ZUJKAS_clean_linker_0, # of connection points: 2
#     Edge 71, Type (0, 0), BuildingBlock: ZUJKAS_clean_linker_0, # of connection points: 2
#     Edge 72, Type (0, 0), BuildingBlock: ZUJKAS_clean_linker_0, # of connection points: 2
#     Edge 73, Type (0, 0), BuildingBlock: ZUJKAS_clean_linker_0, # of connection points: 2
#     Edge 74, Type (0, 0), BuildingBlock: ZUJKAS_clean_linker_0, # of connection points: 2
#     Edge 75, Type (0, 0), BuildingBlock: ZUJKAS_clean_linker_0, # of connection points: 2
#     Edge 76, Type (0, 0), BuildingBlock: ZUJKAS_clean_linker_0, # of connection points: 2
#     Edge 77, Type (0, 0), BuildingBlock: ZUJKAS_clean_linker_0, # of connection points: 2
#     Edge 78, Type (0, 0), BuildingBlock: ZUJKAS_clean_linker_0, # of connection points: 2
#     Edge 79, Type (0, 0), BuildingBlock: ZUJKAS_clean_linker_0, # of connection points: 2
#     Edge 80, Type (0, 0), BuildingBlock: ZUJKAS_clean_linker_0, # of connection points: 2
#     Edge 81, Type (0, 0), BuildingBlock: ZUJKAS_clean_linker_0, # of connection points: 2
#     Edge 82, Type (0, 0), BuildingBlock: ZUJKAS_clean_linker_0, # of connection points: 2
#     Edge 83, Type (0, 0), BuildingBlock: ZUJKAS_clean_linker_0, # of connection points: 2
#     Edge 84, Type (0, 0), BuildingBlock: ZUJKAS_clean_linker_0, # of connection points: 2
#     Edge 85, Type (0, 0), BuildingBlock: ZUJKAS_clean_linker_0, # of connection points: 2
#     Edge 86, Type (0, 0), BuildingBlock: ZUJKAS_clean_linker_0, # of connection points: 2
#     Edge 87, Type (0, 0), BuildingBlock: ZUJKAS_clean_linker_0, # of connection points: 2
#     Edge 88, Type (0, 0), BuildingBlock: ZUJKAS_clean_linker_0, # of connection points: 2
#     Edge 89, Type (0, 0), BuildingBlock: ZUJKAS_clean_linker_0, # of connection points: 2
#     Edge 90, Type (0, 0), BuildingBlock: ZUJKAS_clean_linker_0, # of connection points: 2
#     Edge 91, Type (0, 0), BuildingBlock: ZUJKAS_clean_linker_0, # of connection points: 2
#     Edge 92, Type (0, 0), BuildingBlock: ZUJKAS_clean_linker_0, # of connection points: 2
#     Edge 93, Type (0, 0), BuildingBlock: ZUJKAS_clean_linker_0, # of connection points: 2
#     Edge 94, Type (0, 0), BuildingBlock: ZUJKAS_clean_linker_0, # of connection points: 2
#     Edge 95, Type (0, 0), BuildingBlock: ZUJKAS_clean_linker_0, # of connection points: 2
#     Edge 96, Type (0, 0), BuildingBlock: ZUJKAS_clean_linker_0, # of connection points: 2
#     Edge 97, Type (0, 0), BuildingBlock: ZUJKAS_clean_linker_0, # of connection points: 2
#     Edge 98, Type (0, 0), BuildingBlock: ZUJKAS_clean_linker_0, # of connection points: 2
#     Edge 99, Type (0, 0), BuildingBlock: ZUJKAS_clean_linker_0, # of connection points: 2
#     Edge 100, Type (0, 0), BuildingBlock: ZUJKAS_clean_linker_0, # of connection points: 2
#     Edge 101, Type (0, 0), BuildingBlock: ZUJKAS_clean_linker_0, # of connection points: 2
#     Edge 102, Type (0, 0), BuildingBlock: ZUJKAS_clean_linker_0, # of connection points: 2
#     Edge 103, Type (0, 0), BuildingBlock: ZUJKAS_clean_linker_0, # of connection points: 2
#     Edge 104, Type (0, 0), BuildingBlock: ZUJKAS_clean_linker_0, # of connection points: 2
#     Edge 105, Type (0, 0), BuildingBlock: ZUJKAS_clean_linker_0, # of connection points: 2
#     Edge 106, Type (0, 0), BuildingBlock: ZUJKAS_clean_linker_0, # of connection points: 2
#     Edge 107, Type (0, 0), BuildingBlock: ZUJKAS_clean_linker_0, # of connection points: 2
#     Edge 108, Type (0, 0), BuildingBlock: ZUJKAS_clean_linker_0, # of connection points: 2
#     Edge 109, Type (0, 0), BuildingBlock: ZUJKAS_clean_linker_0, # of connection points: 2
#     Edge 110, Type (0, 0), BuildingBlock: ZUJKAS_clean_linker_0, # of connection points: 2
#     Edge 111, Type (0, 0), BuildingBlock: ZUJKAS_clean_linker_0, # of connection points: 2
#     Edge 112, Type (0, 0), BuildingBlock: ZUJKAS_clean_linker_0, # of connection points: 2
#     Edge 113, Type (0, 0), BuildingBlock: ZUJKAS_clean_linker_0, # of connection points: 2
#     Edge 114, Type (0, 0), BuildingBlock: ZUJKAS_clean_linker_0, # of connection points: 2
#     Edge 115, Type (0, 0), BuildingBlock: ZUJKAS_clean_linker_0, # of connection points: 2
#     Edge 116, Type (0, 0), BuildingBlock: ZUJKAS_clean_linker_0, # of connection points: 2
#     Edge 117, Type (0, 0), BuildingBlock: ZUJKAS_clean_linker_0, # of connection points: 2
#     Edge 118, Type (0, 0), BuildingBlock: ZUJKAS_clean_linker_0, # of connection points: 2
#     Edge 119, Type (0, 0), BuildingBlock: ZUJKAS_clean_linker_0, # of connection points: 2
#     Edge 120, Type (0, 0), BuildingBlock: ZUJKAS_clean_linker_0, # of connection points: 2
#     Edge 121, Type (0, 0), BuildingBlock: ZUJKAS_clean_linker_0, # of connection points: 2
#     Edge 122, Type (0, 0), BuildingBlock: ZUJKAS_clean_linker_0, # of connection points: 2
#     Edge 123, Type (0, 0), BuildingBlock: ZUJKAS_clean_linker_0, # of connection points: 2
#     Edge 124, Type (0, 0), BuildingBlock: ZUJKAS_clean_linker_0, # of connection points: 2
#     Edge 125, Type (0, 0), BuildingBlock: ZUJKAS_clean_linker_0, # of connection points: 2
#     Edge 126, Type (0, 0), BuildingBlock: ZUJKAS_clean_linker_0, # of connection points: 2
#     Edge 127, Type (0, 0), BuildingBlock: ZUJKAS_clean_linker_0, # of connection points: 2
#     Edge 128, Type (0, 0), BuildingBlock: ZUJKAS_clean_linker_0, # of connection points: 2
#     Edge 129, Type (0, 0), BuildingBlock: ZUJKAS_clean_linker_0, # of connection points: 2
#     Edge 130, Type (0, 0), BuildingBlock: ZUJKAS_clean_linker_0, # of connection points: 2
#     Edge 131, Type (0, 0), BuildingBlock: ZUJKAS_clean_linker_0, # of connection points: 2
#     Edge 132, Type (0, 0), BuildingBlock: ZUJKAS_clean_linker_0, # of connection points: 2
#     Edge 133, Type (0, 0), BuildingBlock: ZUJKAS_clean_linker_0, # of connection points: 2
#     Edge 134, Type (0, 0), BuildingBlock: ZUJKAS_clean_linker_0, # of connection points: 2
#     Edge 135, Type (0, 0), BuildingBlock: ZUJKAS_clean_linker_0, # of connection points: 2
#     Edge 136, Type (0, 0), BuildingBlock: ZUJKAS_clean_linker_0, # of connection points: 2
#     Edge 137, Type (0, 0), BuildingBlock: ZUJKAS_clean_linker_0, # of connection points: 2
#     Edge 138, Type (0, 0), BuildingBlock: ZUJKAS_clean_linker_0, # of connection points: 2
#     Edge 139, Type (0, 0), BuildingBlock: ZUJKAS_clean_linker_0, # of connection points: 2
#     Edge 140, Type (0, 0), BuildingBlock: ZUJKAS_clean_linker_0, # of connection points: 2
#     Edge 141, Type (0, 0), BuildingBlock: ZUJKAS_clean_linker_0, # of connection points: 2
#     Edge 142, Type (0, 0), BuildingBlock: ZUJKAS_clean_linker_0, # of connection points: 2
#     Edge 143, Type (0, 0), BuildingBlock: ZUJKAS_clean_linker_0, # of connection points: 2
# Relax obj value: 0.404
# Max RMSD: 0.184
# Mean RMSD: 0.184
data_MOF--net-ukr--node1-NAHDIM_clean_sbu_0--edge1-ZUJKAS_clean_linker_0
_symmetry_space_group_name_H-M    P1
_symmetry_Int_Tables_number       1
_symmetry_cell_setting            triclinic
loop_
_symmetry_equiv_pos_as_xyz
'x, y, z'
_cell_length_a     87.567347
_cell_length_b     87.593492
_cell_length_c     87.59488
_cell_angle_alpha  90.009014
_cell_angle_beta   89.99586
_cell_angle_gamma 90.000867
loop_
_atom_site_label
_atom_site_type_symbol
_atom_site_fract_x
_atom_site_fract_y
_atom_site_fract_z
_atom_type_partial_charge
C0 C 0.07582 0.29689 0.1611 0.0
O1 O 0.08522 0.30846 0.16278 0.0
O2 O 0.09954 0.26015 0.18707 0.0
Zn3 Zn 0.10034 0.27972 0.17518 0.0
O4 O 0.10565 0.29639 0.19011 0.0
C5 C 0.13031 0.27457 0.16592 0.0
O6 O 0.1315 0.27503 0.18087 0.0
O7 O 0.08004 0.28365 0.16527 0.0
C8 C 0.11391 0.30785 0.1868 0.0
O9 O 0.11878 0.30956 0.17272 0.0
C10 C 0.09373 0.25908 0.20032 0.0
O11 O 0.08696 0.27103 0.20636 0.0
O12 O 0.11731 0.27693 0.1599 0.0
C13 C 0.20258 0.57886 0.66234 0.0
O14 O 0.19157 0.58571 0.66988 0.0
O15 O 0.23935 0.60466 0.68244 0.0
Zn16 Zn 0.2197 0.60585 0.67064 0.0
O17 O 0.20327 0.61181 0.68555 0.0
C18 C 0.23347 0.62111 0.64552 0.0
O19 O 0.24109 0.6082 0.64496 0.0
O20 O 0.21539 0.58552 0.66089 0.0
C21 C 0.20554 0.62382 0.69335 0.0
O22 O 0.21794 0.63188 0.69079 0.0
C23 C 0.24033 0.59852 0.69555 0.0
O24 O 0.22825 0.59185 0.70144 0.0
O25 O 0.22272 0.62248 0.65518 0.0
C26 C 0.92042 0.72369 0.15708 0.0
O27 O 0.91727 0.7382 0.15918 0.0
O28 O 0.89364 0.73964 0.18196 0.0
Zn29 Zn 0.89039 0.7206 0.16946 0.0
O30 O 0.88224 0.7046 0.18377 0.0
C31 C 0.87485 0.7381 0.14672 0.0
O32 O 0.88625 0.74746 0.14944 0.0
O33 O 0.91034 0.71376 0.16029 0.0
C34 C 0.87111 0.70858 0.19218 0.0
O35 O 0.86537 0.72235 0.19055 0.0
C36 C 0.90005 0.73924 0.19497 0.0
O37 O 0.90525 0.72616 0.20016 0.0
O38 O 0.8745 0.7253 0.15353 0.0
C39 C 0.79803 0.4211 0.66905 0.0
O40 O 0.8047 0.41519 0.6811 0.0
O41 O 0.76042 0.39642 0.68205 0.0
Zn42 Zn 0.78037 0.3935 0.67097 0.0
O43 O 0.79523 0.38496 0.68626 0.0
C44 C 0.77205 0.36504 0.65993 0.0
O45 O 0.77119 0.36333 0.67481 0.0
O46 O 0.78746 0.41364 0.66245 0.0
C47 C 0.80736 0.37763 0.68319 0.0
O48 O 0.81128 0.37551 0.66887 0.0
C49 C 0.7601 0.39917 0.69629 0.0
O50 O 0.77302 0.40126 0.70362 0.0
O51 O 0.77646 0.37781 0.65464 0.0
C52 C 0.0784 0.70302 0.82683 0.0
O53 O 0.08265 0.70306 0.81245 0.0
O54 O 0.1063 0.73233 0.81633 0.0
Zn55 Zn 0.10876 0.71374 0.82974 0.0
O56 O 0.11928 0.69756 0.81716 0.0
C57 C 0.13674 0.71927 0.84516 0.0
O58 O 0.14188 0.7131 0.83249 0.0
O59 O 0.08799 0.70697 0.83698 0.0
C60 C 0.11586 0.68361 0.81513 0.0
O61 O 0.10396 0.67776 0.82213 0.0
C62 C 0.10593 0.73149 0.80184 0.0
O63 O 0.10668 0.71803 0.79525 0.0
O64 O 0.12239 0.72025 0.84716 0.0
C65 C 0.7982 0.57459 0.32836 0.0
O66 O 0.80439 0.57961 0.31566 0.0
O67 O 0.7614 0.59736 0.31283 0.0
Zn68 Zn 0.78049 0.60184 0.32478 0.0
O69 O 0.79598 0.61019 0.30996 0.0
C70 C 0.7708 0.63069 0.33414 0.0
O71 O 0.7712 0.63212 0.31921 0.0
O72 O 0.78785 0.5825 0.33477 0.0
C73 C 0.80612 0.61998 0.31335 0.0
O74 O 0.80728 0.62477 0.32752 0.0
C75 C 0.76181 0.5925 0.29916 0.0
O76 O 0.77509 0.58953 0.29284 0.0
O77 O 0.77483 0.61806 0.34006 0.0
C78 C 0.92019 0.2995 0.83225 0.0
O79 O 0.91526 0.30446 0.81898 0.0
O80 O 0.89517 0.26375 0.81997 0.0
Zn81 Zn 0.89178 0.28361 0.83107 0.0
O82 O 0.88365 0.29882 0.81592 0.0
C83 C 0.87769 0.26757 0.85539 0.0
O84 O 0.89018 0.25941 0.85381 0.0
O85 O 0.91177 0.29057 0.83998 0.0
C86 C 0.87084 0.29629 0.80962 0.0
O87 O 0.86289 0.28429 0.81386 0.0
C88 C 0.89825 0.26299 0.80581 0.0
O89 O 0.89989 0.27566 0.79796 0.0
O90 O 0.87604 0.27947 0.84726 0.0
C91 C 0.20224 0.42251 0.32986 0.0
O92 O 0.19146 0.41618 0.32159 0.0
O93 O 0.23914 0.39765 0.3096 0.0
Zn94 Zn 0.21962 0.39552 0.32149 0.0
O95 O 0.20329 0.38939 0.30651 0.0
C96 C 0.22539 0.36559 0.33157 0.0
O97 O 0.22411 0.36345 0.31677 0.0
O98 O 0.21487 0.41557 0.3316 0.0
C99 C 0.19165 0.38132 0.30964 0.0
O100 O 0.18942 0.37677 0.32375 0.0
C101 C 0.23941 0.40328 0.29623 0.0
O102 O 0.22668 0.40846 0.29022 0.0
O103 O 0.22329 0.37891 0.33691 0.0
C104 C 0.17489 0.07513 0.28849 0.0
O105 O 0.18956 0.07761 0.28659 0.0
O106 O 0.18549 0.10441 0.26103 0.0
Zn107 Zn 0.17529 0.10631 0.28165 0.0
O108 O 0.19129 0.11179 0.29718 0.0
C109 C 0.165 0.1358 0.2752 0.0
O110 O 0.1798 0.13709 0.27305 0.0
O111 O 0.16569 0.08626 0.28713 0.0
C112 C 0.18929 0.12055 0.30856 0.0
O113 O 0.17572 0.12645 0.31102 0.0
C114 C 0.19993 0.10395 0.25947 0.0
O115 O 0.20863 0.10407 0.27168 0.0
O116 O 0.15971 0.12308 0.27973 0.0
C117 C 0.41868 0.66651 0.79819 0.0
O118 O 0.40972 0.67199 0.8089 0.0
O119 O 0.397 0.68578 0.75739 0.0
Zn120 Zn 0.39417 0.67593 0.77799 0.0
O121 O 0.38769 0.69239 0.79274 0.0
C122 C 0.36484 0.66566 0.77084 0.0
O123 O 0.36364 0.68047 0.76874 0.0
O124 O 0.41413 0.66658 0.78441 0.0
C125 C 0.37837 0.69047 0.80369 0.0
O126 O 0.3727 0.67681 0.80621 0.0
C127 C 0.39998 0.69991 0.75595 0.0
O128 O 0.40191 0.70828 0.76825 0.0
O129 O 0.37748 0.6603 0.77554 0.0
C130 C 0.8235 0.91924 0.2873 0.0
O131 O 0.8096 0.91369 0.28821 0.0
O132 O 0.8154 0.89318 0.25478 0.0
Zn133 Zn 0.82775 0.89025 0.27401 0.0
O134 O 0.81444 0.87932 0.28928 0.0
C135 C 0.85212 0.86769 0.27731 0.0
O136 O 0.84774 0.86707 0.29164 0.0
O137 O 0.83402 0.91096 0.28169 0.0
C138 C 0.81475 0.88091 0.3037 0.0
O139 O 0.82497 0.88996 0.30992 0.0
C140 C 0.8009 0.89232 0.25465 0.0
O141 O 0.79357 0.88985 0.26749 0.0
O142 O 0.84568 0.87707 0.26832 0.0
C143 C 0.57583 0.32769 0.79933 0.0
O144 O 0.58023 0.31397 0.80346 0.0
O145 O 0.60037 0.314 0.7647 0.0
Zn146 Zn 0.60424 0.32607 0.7839 0.0
O147 O 0.6125 0.31148 0.79967 0.0
C148 C 0.63311 0.33585 0.77474 0.0
O149 O 0.6348 0.32096 0.77543 0.0
O150 O 0.5846 0.33565 0.79095 0.0
C151 C 0.62254 0.31465 0.80964 0.0
O152 O 0.62783 0.32866 0.81059 0.0
C153 C 0.59825 0.29964 0.76484 0.0
O154 O 0.59758 0.29247 0.77799 0.0
O155 O 0.6203 0.34161 0.7784 0.0
C156 C 0.17058 0.91729 0.70705 0.0
O157 O 0.18441 0.91298 0.70316 0.0
O158 O 0.18474 0.89489 0.74287 0.0
Zn159 Zn 0.17213 0.88959 0.72437 0.0
O160 O 0.18667 0.87967 0.70958 0.0
C161 C 0.14959 0.86506 0.72237 0.0
O162 O 0.15229 0.86567 0.70764 0.0
O163 O 0.16277 0.90882 0.71586 0.0
C164 C 0.18561 0.87846 0.69517 0.0
O165 O 0.17348 0.8838 0.68814 0.0
C166 C 0.19835 0.89973 0.7414 0.0
O167 O 0.20382 0.90205 0.72763 0.0
O168 O 0.1563 0.87441 0.73121 0.0
C169 C 0.58066 0.66835 0.20883 0.0
O170 O 0.58667 0.68114 0.20383 0.0
O171 O 0.60594 0.67936 0.24525 0.0
Zn172 Zn 0.60872 0.66701 0.22609 0.0
O173 O 0.61972 0.6809 0.21141 0.0
C174 C 0.63029 0.64158 0.22248 0.0
O175 O 0.62921 0.6443 0.20778 0.0
O176 O 0.5881 0.66022 0.21828 0.0
C177 C 0.62081 0.67998 0.19697 0.0
O178 O 0.61426 0.6686 0.18972 0.0
C179 C 0.59996 0.69258 0.24509 0.0
O180 O 0.59455 0.698 0.2322 0.0
O181 O 0.62229 0.64936 0.23176 0.0
C182 C 0.83587 0.08186 0.70108 0.0
O183 O 0.8242 0.08754 0.69356 0.0
O184 O 0.82069 0.10646 0.73788 0.0
Zn185 Zn 0.8324 0.10955 0.71837 0.0
O186 O 0.81763 0.11745 0.70266 0.0
C187 C 0.85659 0.12388 0.73455 0.0
O188 O 0.85521 0.11138 0.74273 0.0
O189 O 0.84165 0.0895 0.71198 0.0
C190 C 0.81101 0.13011 0.70517 0.0
O191 O 0.81463 0.13788 0.71748 0.0
C192 C 0.80694 0.10181 0.73803 0.0
O193 O 0.80024 0.09832 0.72507 0.0
O194 O 0.84839 0.12543 0.72269 0.0
C195 C 0.42456 0.32556 0.2145 0.0
O196 O 0.42158 0.31124 0.21778 0.0
O197 O 0.39441 0.3133 0.2385 0.0
Zn198 Zn 0.39272 0.32753 0.2204 0.0
O199 O 0.38264 0.3158 0.20334 0.0
C200 C 0.37006 0.35176 0.21795 0.0
O201 O 0.37023 0.34838 0.20334 0.0
O202 O 0.41369 0.33518 0.21459 0.0
C203 C 0.38893 0.31173 0.19091 0.0
O204 O 0.40298 0.31607 0.18797 0.0
C205 C 0.39454 0.29885 0.23697 0.0
O206 O 0.39401 0.29293 0.22321 0.0
O207 O 0.37902 0.34475 0.22695 0.0
C208 C 0.29604 0.17349 0.07556 0.0
O209 O 0.3029 0.18598 0.08026 0.0
O210 O 0.26436 0.18975 0.10418 0.0
Zn211 Zn 0.28272 0.17592 0.10517 0.0
O212 O 0.30053 0.18892 0.1118 0.0
C213 C 0.26552 0.15248 0.11951 0.0
O214 O 0.25692 0.15491 0.10746 0.0
O215 O 0.28673 0.1668 0.08445 0.0
C216 C 0.30661 0.18849 0.12496 0.0
O217 O 0.30166 0.17852 0.13502 0.0
C218 C 0.26157 0.19735 0.11622 0.0
O219 O 0.27064 0.19571 0.12806 0.0
O220 O 0.278 0.15978 0.12079 0.0
C221 C 0.29623 0.82975 0.9204 0.0
O222 O 0.29749 0.81551 0.91583 0.0
O223 O 0.26228 0.82054 0.89509 0.0
Zn224 Zn 0.28165 0.83236 0.89147 0.0
O225 O 0.2959 0.81789 0.88069 0.0
C226 C 0.28494 0.85569 0.8678 0.0
O227 O 0.299 0.85061 0.86657 0.0
O228 O 0.29 0.83944 0.91159 0.0
C229 C 0.3104 0.81772 0.88113 0.0
O230 O 0.31768 0.82815 0.88909 0.0
C231 C 0.25471 0.81719 0.88318 0.0
O232 O 0.25983 0.82176 0.86985 0.0
O233 O 0.27619 0.85001 0.87787 0.0
C234 C 0.66499 0.80152 0.41963 0.0
O235 O 0.66988 0.81292 0.4112 0.0
O236 O 0.68555 0.76264 0.39578 0.0
Zn237 Zn 0.67476 0.78291 0.39401 0.0
O238 O 0.69043 0.79859 0.38785 0.0
C239 C 0.66415 0.7758 0.36485 0.0
O240 O 0.67899 0.77417 0.36336 0.0
O241 O 0.66555 0.78802 0.41433 0.0
C242 C 0.68832 0.80923 0.37823 0.0
O243 O 0.67478 0.81097 0.37202 0.0
C244 C 0.69995 0.76164 0.39728 0.0
O245 O 0.70809 0.77417 0.39851 0.0
O246 O 0.65889 0.7803 0.37761 0.0
C247 C 0.70447 0.1666 0.92039 0.0
O248 O 0.69939 0.17982 0.91545 0.0
O249 O 0.73979 0.17912 0.89484 0.0
Zn250 Zn 0.7201 0.16758 0.89178 0.0
O251 O 0.70454 0.18224 0.88333 0.0
C252 C 0.73682 0.14416 0.87651 0.0
O253 O 0.74642 0.14699 0.88769 0.0
O254 O 0.71337 0.15887 0.91192 0.0
C255 C 0.70823 0.1898 0.87152 0.0
O256 O 0.72155 0.18721 0.86511 0.0
C257 C 0.74027 0.19321 0.89829 0.0
O258 O 0.72745 0.20065 0.90062 0.0
O259 O 0.72412 0.15117 0.87622 0.0
C260 C 0.32714 0.20693 0.42178 0.0
O261 O 0.31294 0.2053 0.41723 0.0
O262 O 0.31721 0.23962 0.39493 0.0
Zn263 Zn 0.32943 0.22029 0.3923 0.0
O264 O 0.3156 0.20497 0.38216 0.0
C265 C 0.35209 0.21644 0.36825 0.0
O266 O 0.34689 0.20239 0.36765 0.0
O267 O 0.33676 0.21301 0.41278 0.0
C268 C 0.31576 0.19054 0.38367 0.0
O269 O 0.32614 0.18412 0.39238 0.0
C270 C 0.30273 0.23941 0.39598 0.0
O271 O 0.2956 0.22622 0.39627 0.0
O272 O 0.3468 0.22554 0.37824 0.0
C273 C 0.69563 0.82513 0.07698 0.0
O274 O 0.69172 0.81166 0.08231 0.0
O275 O 0.73096 0.81572 0.10326 0.0
Zn276 Zn 0.71072 0.82635 0.10572 0.0
O277 O 0.69573 0.81139 0.11458 0.0
C278 C 0.72539 0.85247 0.11822 0.0
O279 O 0.73323 0.85113 0.1055 0.0
O280 O 0.70368 0.83391 0.08525 0.0
C281 C 0.69714 0.80725 0.1284 0.0
O282 O 0.70793 0.81343 0.1368 0.0
C283 C 0.73231 0.80132 0.1021 0.0
O284 O 0.71999 0.79277 0.10183 0.0
O285 O 0.71422 0.84351 0.12053 0.0
C286 C 0.66867 0.20209 0.57922 0.0
O287 O 0.68142 0.19598 0.58423 0.0
O288 O 0.68102 0.23861 0.60525 0.0
Zn289 Zn 0.67066 0.21832 0.60768 0.0
O290 O 0.68689 0.20385 0.6151 0.0
C291 C 0.65968 0.22288 0.63743 0.0
O292 O 0.67443 0.22156 0.63983 0.0
O293 O 0.66173 0.21175 0.58753 0.0
C294 C 0.6846 0.19086 0.62113 0.0
O295 O 0.67057 0.18569 0.62239 0.0
C296 C 0.69306 0.24037 0.59736 0.0
O297 O 0.69854 0.22873 0.58965 0.0
O298 O 0.65463 0.22128 0.62392 0.0
C299 C 0.32648 0.79635 0.57456 0.0
O300 O 0.31242 0.79848 0.57937 0.0
O301 O 0.3162 0.76526 0.60283 0.0
Zn302 Zn 0.32845 0.78465 0.6044 0.0
O303 O 0.31424 0.80089 0.61233 0.0
C304 C 0.35341 0.76855 0.61735 0.0
O305 O 0.35101 0.76012 0.60518 0.0
O306 O 0.33616 0.79046 0.58361 0.0
C307 C 0.31406 0.80534 0.62613 0.0
O308 O 0.32414 0.79981 0.63576 0.0
C309 C 0.31092 0.75999 0.61527 0.0
O310 O 0.31369 0.76741 0.62801 0.0
O311 O 0.34555 0.78061 0.61917 0.0
C312 C 0.91934 0.70397 0.82544 0.0
O313 O 0.91536 0.70405 0.81097 0.0
O314 O 0.89264 0.73513 0.81523 0.0
Zn315 Zn 0.88948 0.71591 0.82757 0.0
O316 O 0.87911 0.70055 0.81393 0.0
C317 C 0.86194 0.7257 0.8393 0.0
O318 O 0.85966 0.72547 0.82447 0.0
O319 O 0.90975 0.70843 0.83536 0.0
C320 C 0.88162 0.68637 0.81222 0.0
O321 O 0.89231 0.67966 0.82032 0.0
C322 C 0.89243 0.73507 0.80071 0.0
O323 O 0.89105 0.72201 0.79347 0.0
O324 O 0.87486 0.72147 0.8444 0.0
C325 C 0.80071 0.41547 0.33182 0.0
O326 O 0.80502 0.41057 0.31832 0.0
O327 O 0.76628 0.39031 0.31943 0.0
Zn328 Zn 0.78553 0.38677 0.33153 0.0
O329 O 0.80128 0.37769 0.31746 0.0
C330 C 0.768 0.37389 0.35563 0.0
O331 O 0.76028 0.38657 0.3535 0.0
O332 O 0.79248 0.40688 0.34011 0.0
C333 C 0.79991 0.36381 0.31348 0.0
O334 O 0.78877 0.35564 0.31934 0.0
C335 C 0.76603 0.39169 0.30499 0.0
O336 O 0.77893 0.39131 0.29734 0.0
O337 O 0.78016 0.37173 0.34801 0.0
C338 C 0.07833 0.29274 0.82693 0.0
O339 O 0.08211 0.29528 0.81265 0.0
O340 O 0.10188 0.2578 0.81464 0.0
Zn341 Zn 0.10681 0.2771 0.82612 0.0
O342 O 0.1158 0.29182 0.8109 0.0
C343 C 0.13445 0.27854 0.84497 0.0
O344 O 0.13704 0.29151 0.83792 0.0
O345 O 0.08746 0.28531 0.83541 0.0
C346 C 0.11673 0.30623 0.81229 0.0
O347 O 0.11192 0.31277 0.82491 0.0
C348 C 0.09833 0.25787 0.80056 0.0
O349 O 0.09716 0.27098 0.79338 0.0
O350 O 0.12226 0.2712 0.84212 0.0
C351 C 0.20223 0.58316 0.34037 0.0
O352 O 0.19087 0.59076 0.33419 0.0
O353 O 0.23969 0.60861 0.32042 0.0
Zn354 Zn 0.21976 0.6098 0.33178 0.0
O355 O 0.2035 0.61571 0.31668 0.0
C356 C 0.2345 0.62623 0.3553 0.0
O357 O 0.24432 0.61507 0.35327 0.0
O358 O 0.21536 0.58929 0.341 0.0
C359 C 0.20639 0.62656 0.30751 0.0
O360 O 0.21953 0.63373 0.30866 0.0
C361 C 0.24139 0.60106 0.30816 0.0
O362 O 0.22981 0.59325 0.30268 0.0
O363 O 0.22213 0.62613 0.34772 0.0
C364 C 0.91623 0.29586 0.15528 0.0
O365 O 0.90686 0.3072 0.15823 0.0
O366 O 0.89261 0.25702 0.17715 0.0
Zn367 Zn 0.89115 0.2769 0.16582 0.0
O368 O 0.88382 0.29257 0.18091 0.0
C369 C 0.87555 0.26154 0.14192 0.0
O370 O 0.88647 0.25161 0.14462 0.0
O371 O 0.91177 0.28223 0.15743 0.0
C372 C 0.87026 0.29093 0.1858 0.0
O373 O 0.86186 0.27979 0.18027 0.0
C374 C 0.89952 0.25581 0.18985 0.0
O375 O 0.90641 0.26783 0.19561 0.0
O376 O 0.87555 0.27409 0.14919 0.0
C377 C 0.20025 0.41857 0.66311 0.0
O378 O 0.18916 0.41226 0.67101 0.0
O379 O 0.23645 0.39644 0.68687 0.0
Zn380 Zn 0.21779 0.39267 0.67403 0.0
O381 O 0.20072 0.38711 0.68845 0.0
C382 C 0.2256 0.36244 0.66695 0.0
O383 O 0.22416 0.36179 0.68187 0.0
O384 O 0.21312 0.4119 0.66237 0.0
C385 C 0.19041 0.37726 0.68576 0.0
O386 O 0.19009 0.37036 0.67245 0.0
C387 C 0.23558 0.40198 0.70025 0.0
O388 O 0.22217 0.40593 0.7057 0.0
O389 O 0.22292 0.37501 0.66021 0.0
C390 C 0.077 0.70687 0.17101 0.0
O391 O 0.08004 0.7113 0.18502 0.0
O392 O 0.10596 0.73123 0.18228 0.0
Zn393 Zn 0.10858 0.71234 0.16924 0.0
O394 O 0.11874 0.69593 0.1818 0.0
C395 C 0.13601 0.72227 0.15716 0.0
O396 O 0.13874 0.7215 0.17189 0.0
O397 O 0.0879 0.70591 0.16147 0.0
C398 C 0.11251 0.68447 0.18816 0.0
O399 O 0.09785 0.68196 0.1862 0.0
C400 C 0.10961 0.73179 0.19632 0.0
O401 O 0.11507 0.71952 0.20299 0.0
O402 O 0.12292 0.71831 0.1523 0.0
C403 C 0.79503 0.58174 0.65776 0.0
O404 O 0.80667 0.59091 0.66011 0.0
O405 O 0.75808 0.60621 0.68129 0.0
Zn406 Zn 0.77724 0.60739 0.66869 0.0
O407 O 0.79416 0.6141 0.68266 0.0
C408 C 0.76198 0.6216 0.64384 0.0
O409 O 0.75352 0.60929 0.64521 0.0
O410 O 0.78157 0.58661 0.66017 0.0
C411 C 0.79248 0.62679 0.68949 0.0
O412 O 0.78035 0.63509 0.68646 0.0
C413 C 0.75826 0.60077 0.69474 0.0
O414 O 0.77113 0.59543 0.7003 0.0
O415 O 0.77366 0.62305 0.65233 0.0
C416 C 0.82924 0.92321 0.70176 0.0
O417 O 0.81607 0.91909 0.69587 0.0
O418 O 0.81421 0.89964 0.73815 0.0
Zn419 Zn 0.82495 0.89536 0.71826 0.0
O420 O 0.80901 0.88877 0.70305 0.0
C421 C 0.83337 0.86558 0.72614 0.0
O422 O 0.81839 0.86465 0.72604 0.0
O423 O 0.83566 0.9145 0.71142 0.0
C424 C 0.81093 0.87958 0.692 0.0
O425 O 0.82451 0.8737 0.68955 0.0
C426 C 0.79996 0.90229 0.73889 0.0
O427 O 0.79195 0.903 0.72623 0.0
O428 O 0.83961 0.87816 0.72248 0.0
C429 C 0.58279 0.3337 0.2011 0.0
O430 O 0.58766 0.32108 0.19462 0.0
O431 O 0.60681 0.31993 0.23806 0.0
Zn432 Zn 0.61074 0.33056 0.21811 0.0
O433 O 0.61841 0.31452 0.20361 0.0
C434 C 0.62586 0.35508 0.23317 0.0
O435 O 0.61313 0.35488 0.24111 0.0
O436 O 0.5911 0.34018 0.21107 0.0
C437 C 0.62466 0.31698 0.19077 0.0
O438 O 0.62618 0.33109 0.18589 0.0
C439 C 0.60066 0.30679 0.23846 0.0
O440 O 0.59633 0.30035 0.22562 0.0
O441 O 0.62723 0.34604 0.2219 0.0
C442 C 0.16681 0.07591 0.70162 0.0
O443 O 0.18044 0.08084 0.69772 0.0
O444 O 0.17746 0.10283 0.73557 0.0
Zn445 Zn 0.16599 0.10516 0.71575 0.0
O446 O 0.1806 0.11378 0.70025 0.0
C447 C 0.14187 0.11966 0.73206 0.0
O448 O 0.14513 0.10875 0.74182 0.0
O449 O 0.1581 0.08464 0.70926 0.0
C450 C 0.18469 0.12763 0.70153 0.0
O451 O 0.17854 0.13607 0.7123 0.0
C452 C 0.19186 0.10105 0.7361 0.0
O453 O 0.19963 0.10011 0.72331 0.0
O454 O 0.14891 0.12007 0.71938 0.0
C455 C 0.41991 0.65929 0.19705 0.0
O456 O 0.41218 0.66674 0.18658 0.0
O457 O 0.3949 0.67691 0.23499 0.0
Zn458 Zn 0.39302 0.66505 0.21538 0.0
O459 O 0.3855 0.67996 0.19953 0.0
C460 C 0.37852 0.64037 0.23096 0.0
O461 O 0.39053 0.64196 0.2398 0.0
O462 O 0.41374 0.65675 0.20993 0.0
C463 C 0.3715 0.68076 0.19577 0.0
O464 O 0.36175 0.67104 0.20171 0.0
C465 C 0.38264 0.68155 0.24121 0.0
O466 O 0.36952 0.67833 0.23468 0.0
O467 O 0.37755 0.64846 0.21896 0.0
C468 C 0.82747 0.08074 0.29925 0.0
O469 O 0.81449 0.08687 0.3036 0.0
O470 O 0.81906 0.10773 0.26467 0.0
Zn471 Zn 0.82997 0.10966 0.28482 0.0
O472 O 0.81525 0.11883 0.29989 0.0
C473 C 0.85602 0.12229 0.2699 0.0
O474 O 0.85419 0.11009 0.26137 0.0
O475 O 0.83669 0.08868 0.29135 0.0
C476 C 0.81143 0.13274 0.29846 0.0
O477 O 0.81784 0.14099 0.28769 0.0
C478 C 0.80473 0.10564 0.26373 0.0
O479 O 0.79666 0.10429 0.2763 0.0
O480 O 0.8475 0.12407 0.2815 0.0
C481 C 0.41769 0.33037 0.7926 0.0
O482 O 0.41365 0.31592 0.79242 0.0
O483 O 0.39391 0.32145 0.75855 0.0
Zn484 Zn 0.38893 0.33278 0.77798 0.0
O485 O 0.37762 0.31823 0.79174 0.0
C486 C 0.36576 0.35643 0.78131 0.0
O487 O 0.36592 0.35255 0.7958 0.0
O488 O 0.40853 0.34028 0.78729 0.0
C489 C 0.37876 0.31686 0.80613 0.0
O490 O 0.38791 0.32597 0.81376 0.0
C491 C 0.39467 0.30696 0.75812 0.0
O492 O 0.39272 0.29914 0.77077 0.0
O493 O 0.37495 0.34997 0.77214 0.0
C494 C 0.15412 0.91902 0.27495 0.0
O495 O 0.15646 0.91513 0.26066 0.0
O496 O 0.17761 0.89031 0.26017 0.0
Zn497 Zn 0.16628 0.88907 0.28009 0.0
O498 O 0.18206 0.88309 0.29557 0.0
C499 C 0.14088 0.87322 0.26716 0.0
O500 O 0.14031 0.88568 0.25883 0.0
O501 O 0.15705 0.90944 0.28545 0.0
C502 C 0.17956 0.87586 0.30788 0.0
O503 O 0.16547 0.87224 0.31157 0.0
C504 C 0.18955 0.89842 0.25865 0.0
O505 O 0.19416 0.90688 0.27014 0.0
O506 O 0.15067 0.87238 0.27783 0.0
C507 C 0.57854 0.67147 0.79693 0.0
O508 O 0.58397 0.68472 0.80139 0.0
O509 O 0.60055 0.68443 0.76005 0.0
Zn510 Zn 0.60567 0.6718 0.77855 0.0
O511 O 0.61694 0.68571 0.79302 0.0
C512 C 0.62897 0.64769 0.7795 0.0
O513 O 0.62885 0.64979 0.79434 0.0
O514 O 0.58612 0.66355 0.78742 0.0
C515 C 0.61902 0.68437 0.80732 0.0
O516 O 0.61355 0.67241 0.81453 0.0
C517 C 0.59823 0.69873 0.76099 0.0
O518 O 0.59836 0.7053 0.77447 0.0
O519 O 0.61981 0.65525 0.77117 0.0
C520 C 0.69796 0.83932 0.9161 0.0
O521 O 0.68663 0.83542 0.90709 0.0
O522 O 0.73669 0.82016 0.89106 0.0
Zn523 Zn 0.71667 0.83126 0.89007 0.0
O524 O 0.70105 0.81609 0.88275 0.0
C525 C 0.73031 0.85741 0.87689 0.0
O526 O 0.73848 0.85628 0.88943 0.0
O527 O 0.71154 0.83889 0.91102 0.0
C528 C 0.7047 0.80801 0.87127 0.0
O529 O 0.71789 0.81049 0.86455 0.0
C530 C 0.73897 0.80891 0.89993 0.0
O531 O 0.72806 0.80466 0.90932 0.0
O532 O 0.71928 0.84821 0.87489 0.0
C533 C 0.70047 0.16454 0.07991 0.0
O534 O 0.69402 0.17707 0.08504 0.0
O535 O 0.73641 0.17927 0.10428 0.0
Zn536 Zn 0.71706 0.16741 0.10793 0.0
O537 O 0.70139 0.18221 0.11589 0.0
C538 C 0.73406 0.14411 0.12288 0.0
O539 O 0.74243 0.14568 0.11053 0.0
O540 O 0.71046 0.15791 0.08808 0.0
C541 C 0.70412 0.18888 0.12847 0.0
O542 O 0.71648 0.18519 0.13612 0.0
C543 C 0.73632 0.19314 0.10001 0.0
O544 O 0.7232 0.1999 0.09732 0.0
O545 O 0.72179 0.15177 0.12404 0.0
C546 C 0.33005 0.20098 0.58169 0.0
O547 O 0.31661 0.19706 0.58708 0.0
O548 O 0.31944 0.23285 0.61043 0.0
Zn549 Zn 0.3322 0.21371 0.61138 0.0
O550 O 0.31907 0.19713 0.62029 0.0
C551 C 0.35774 0.23015 0.62256 0.0
O552 O 0.35512 0.23784 0.60995 0.0
O553 O 0.33925 0.20818 0.59029 0.0
C554 C 0.31497 0.19816 0.63416 0.0
O555 O 0.32035 0.2094 0.64252 0.0
C556 C 0.30499 0.23252 0.60913 0.0
O557 O 0.29807 0.2193 0.60753 0.0
O558 O 0.34976 0.21836 0.62535 0.0
C559 C 0.29758 0.82763 0.07948 0.0
O560 O 0.30246 0.81437 0.08452 0.0
O561 O 0.26086 0.81642 0.10472 0.0
Zn562 Zn 0.28124 0.82655 0.10764 0.0
O563 O 0.29552 0.81023 0.1152 0.0
C564 C 0.27345 0.83702 0.13651 0.0
O565 O 0.27211 0.82213 0.13783 0.0
O566 O 0.28849 0.8354 0.0877 0.0
C567 C 0.30686 0.81247 0.12396 0.0
O568 O 0.31006 0.82642 0.12845 0.0
C569 C 0.25861 0.80513 0.09588 0.0
O570 O 0.26989 0.80014 0.08734 0.0
O571 O 0.27808 0.84249 0.12389 0.0
C572 C 0.67137 0.79701 0.58052 0.0
O573 O 0.68544 0.79736 0.58572 0.0
O574 O 0.67868 0.76298 0.60529 0.0
Zn575 Zn 0.66721 0.78259 0.60912 0.0
O576 O 0.6813 0.7968 0.62046 0.0
C577 C 0.64475 0.78459 0.63369 0.0
O578 O 0.65148 0.79761 0.63687 0.0
O579 O 0.66094 0.79134 0.58886 0.0
C580 C 0.68154 0.81127 0.61942 0.0
O581 O 0.67146 0.81821 0.61075 0.0
C582 C 0.69318 0.76222 0.60563 0.0
O583 O 0.70113 0.7747 0.60803 0.0
O584 O 0.64914 0.77698 0.62214 0.0
C585 C 0.29801 0.16733 0.91575 0.0
O586 O 0.30362 0.18023 0.91057 0.0
O587 O 0.26438 0.18044 0.88898 0.0
Zn588 Zn 0.28351 0.16791 0.88664 0.0
O589 O 0.29976 0.18184 0.87829 0.0
C590 C 0.26644 0.14384 0.87332 0.0
O591 O 0.25827 0.14623 0.88568 0.0
O592 O 0.28928 0.15951 0.9072 0.0
C593 C 0.29736 0.18796 0.86537 0.0
O594 O 0.28509 0.18406 0.85767 0.0
C595 C 0.2647 0.19458 0.89224 0.0
O596 O 0.2779 0.20124 0.89478 0.0
O597 O 0.27871 0.15136 0.87148 0.0
C598 C 0.33888 0.80255 0.41381 0.0
O599 O 0.33181 0.81349 0.40637 0.0
O600 O 0.31828 0.765 0.39062 0.0
Zn601 Zn 0.3306 0.78413 0.38755 0.0
O602 O 0.3161 0.80042 0.38039 0.0
C603 C 0.3557 0.76872 0.37382 0.0
O604 O 0.35615 0.76236 0.3874 0.0
O605 O 0.34022 0.7895 0.40763 0.0
C606 C 0.30987 0.7987 0.3674 0.0
O607 O 0.31393 0.78704 0.35889 0.0
C608 C 0.30442 0.76536 0.39492 0.0
O609 O 0.29798 0.77858 0.39788 0.0
O610 O 0.34611 0.77932 0.37137 0.0
C611 C 0.66432 0.20307 0.41931 0.0
O612 O 0.67754 0.19848 0.4139 0.0
O613 O 0.6754 0.23777 0.39313 0.0
Zn614 Zn 0.66364 0.21817 0.39051 0.0
O615 O 0.67799 0.20264 0.38153 0.0
C616 C 0.63969 0.23508 0.37639 0.0
O617 O 0.64305 0.24454 0.38753 0.0
O618 O 0.65587 0.21146 0.41104 0.0
C619 C 0.68223 0.20417 0.36775 0.0
O620 O 0.67643 0.21532 0.35955 0.0
C621 C 0.6897 0.23801 0.3956 0.0
O622 O 0.69713 0.22505 0.39698 0.0
O623 O 0.64656 0.22231 0.37572 0.0
H624 H 0.93074 0.32348 0.15269 0.0
H625 H 0.95796 0.32792 0.14799 0.0
H626 H 0.96515 0.2794 0.14368 0.0
H627 H 0.93808 0.27488 0.14812 0.0
H628 H 0.98057 0.31741 0.1665 0.0
H629 H 0.98992 0.29546 0.10815 0.0
H630 H 0.97114 0.29996 0.1154 0.0
H631 H 0.97991 0.28186 0.11971 0.0
C632 C 0.93807 0.31378 0.15044 0.0
C633 C 0.93226 0.29882 0.15084 0.0
C634 C 0.95361 0.31635 0.14775 0.0
C635 C 0.96354 0.30401 0.14525 0.0
C636 C 0.95765 0.28912 0.14518 0.0
H637 H 0.05392 0.27537 0.15579 0.0
H638 H 0.02705 0.27962 0.14971 0.0
C639 C 0.94217 0.28655 0.14788 0.0
C640 C 0.98027 0.30638 0.14454 0.0
H641 H 0.01211 0.29569 0.12477 0.0
C642 C 0.98748 0.31302 0.15721 0.0
C643 C 0.98923 0.30064 0.13239 0.0
C644 C 0.98212 0.29423 0.11808 0.0
C645 C 0.00344 0.3131 0.15856 0.0
C646 C 0.01237 0.30654 0.14682 0.0
C647 C 0.0052 0.30065 0.13377 0.0
C648 C 0.02898 0.30422 0.14871 0.0
C649 C 0.01058 0.31933 0.17296 0.0
C650 C 0.03902 0.31665 0.14975 0.0
C651 C 0.05442 0.31427 0.15326 0.0
C652 C 0.05998 0.2994 0.15578 0.0
C653 C 0.04999 0.28696 0.15403 0.0
C654 C 0.03464 0.28936 0.1505 0.0
H655 H 0.00193 0.3219 0.18188 0.0
H656 H 0.01895 0.31106 0.17769 0.0
H657 H 0.01679 0.33003 0.17028 0.0
H658 H 0.03487 0.32819 0.14822 0.0
H659 H 0.06184 0.32409 0.15444 0.0
H660 H 0.1789 0.55943 0.66838 0.0
H661 H 0.17769 0.53208 0.66292 0.0
H662 H 0.22065 0.53482 0.63901 0.0
H663 H 0.22214 0.56212 0.64467 0.0
H664 H 0.17892 0.5139 0.63608 0.0
H665 H 0.22915 0.50482 0.67389 0.0
H666 H 0.21891 0.52267 0.67325 0.0
H667 H 0.23221 0.51785 0.65837 0.0
C668 C 0.188 0.55427 0.66179 0.0
C669 C 0.20075 0.56289 0.65718 0.0
C670 C 0.18727 0.53865 0.65864 0.0
C671 C 0.19922 0.53141 0.65082 0.0
C672 C 0.21146 0.54017 0.64533 0.0
H673 H 0.22066 0.43468 0.64585 0.0
H674 H 0.21967 0.46184 0.63958 0.0
C675 C 0.21227 0.55576 0.64855 0.0
C676 C 0.19946 0.51457 0.64958 0.0
H677 H 0.21873 0.48315 0.6621 0.0
C678 C 0.18766 0.50714 0.64166 0.0
C679 C 0.21087 0.50582 0.65694 0.0
C680 C 0.22344 0.51314 0.66621 0.0
C681 C 0.18696 0.49113 0.64096 0.0
C682 C 0.19823 0.48241 0.64855 0.0
C683 C 0.21017 0.48987 0.65618 0.0
C684 C 0.19746 0.46556 0.64974 0.0
C685 C 0.1742 0.48371 0.6321 0.0
C686 C 0.18513 0.45857 0.65722 0.0
C687 C 0.18563 0.44303 0.66079 0.0
C688 C 0.19857 0.43426 0.65711 0.0
C689 C 0.21056 0.44113 0.64892 0.0
C690 C 0.21001 0.45665 0.6453 0.0
H691 H 0.16955 0.49151 0.62324 0.0
H692 H 0.1781 0.47302 0.6265 0.0
H693 H 0.16476 0.48081 0.64004 0.0
H694 H 0.17548 0.46529 0.66105 0.0
H695 H 0.17622 0.43811 0.66712 0.0
H696 H 0.05154 0.70988 0.18851 0.0
H697 H 0.02507 0.70704 0.18071 0.0
H698 H 0.03952 0.69428 0.13538 0.0
H699 H 0.06629 0.69748 0.14305 0.0
H700 H 0.01775 0.71554 0.13435 0.0
H701 H 0.99878 0.6703 0.17359 0.0
H702 H 0.00796 0.68513 0.18426 0.0
H703 H 0.01875 0.67437 0.1704 0.0
C704 C 0.04916 0.70627 0.17692 0.0
C705 C 0.06104 0.7039 0.1664 0.0
C706 C 0.03398 0.70451 0.17251 0.0
C707 C 0.0303 0.70011 0.15756 0.0
C708 C 0.04212 0.69752 0.14703 0.0
H709 H 0.93063 0.69492 0.15009 0.0
H710 H 0.9571 0.68696 0.14579 0.0
C711 C 0.05739 0.69936 0.15143 0.0
C712 C 0.01406 0.69967 0.1528 0.0
H713 H 0.97908 0.68842 0.16559 0.0
C714 C 0.0093 0.70931 0.14093 0.0
C715 C 0.00303 0.69122 0.16104 0.0
C716 C 0.00744 0.67955 0.1729 0.0
C717 C 0.99373 0.7118 0.13803 0.0
C718 C 0.98271 0.7048 0.14756 0.0
C719 C 0.98749 0.69407 0.15847 0.0
C720 C 0.9665 0.70973 0.14774 0.0
C721 C 0.98931 0.72224 0.12507 0.0
C722 C 0.96295 0.72519 0.1501 0.0
C723 C 0.94788 0.72977 0.15242 0.0
C724 C 0.93604 0.71896 0.15273 0.0
C725 C 0.93952 0.70353 0.14995 0.0
C726 C 0.95463 0.69896 0.14747 0.0
H727 H 0.99772 0.72146 0.1156 0.0
H728 H 0.9778 0.71948 0.12054 0.0
H729 H 0.98932 0.73423 0.12917 0.0
H730 H 0.97192 0.73367 0.15087 0.0
H731 H 0.94563 0.74173 0.15462 0.0
H732 H 0.78502 0.43755 0.64586 0.0
H733 H 0.7884 0.46473 0.64053 0.0
H734 H 0.82216 0.46768 0.67624 0.0
H735 H 0.81879 0.44056 0.68176 0.0
H736 H 0.79805 0.48798 0.67946 0.0
H737 H 0.82218 0.49096 0.62096 0.0
H738 H 0.80575 0.47879 0.62269 0.0
H739 H 0.82308 0.4739 0.63253 0.0
C740 C 0.79339 0.44391 0.65239 0.0
C741 C 0.80154 0.43693 0.66433 0.0
C742 C 0.79538 0.45942 0.64924 0.0
C743 C 0.80563 0.46817 0.6579 0.0
C744 C 0.81426 0.46109 0.66937 0.0
H745 H 0.82225 0.56644 0.65559 0.0
H746 H 0.82591 0.53873 0.65402 0.0
C747 C 0.81229 0.44559 0.67253 0.0
C748 C 0.80589 0.48498 0.65635 0.0
H749 H 0.81173 0.51414 0.63109 0.0
C750 C 0.80121 0.4937 0.66894 0.0
C751 C 0.81004 0.49238 0.64261 0.0
C752 C 0.81568 0.48356 0.62895 0.0
C753 C 0.80015 0.50961 0.66805 0.0
C754 C 0.80376 0.51697 0.65416 0.0
C755 C 0.80887 0.50836 0.64167 0.0
C756 C 0.8018 0.53361 0.65255 0.0
C757 C 0.79499 0.51848 0.68189 0.0
C758 C 0.78707 0.53979 0.65178 0.0
C759 C 0.78493 0.55554 0.6527 0.0
C760 C 0.79751 0.56537 0.65444 0.0
C761 C 0.81233 0.55917 0.65432 0.0
C762 C 0.81446 0.54337 0.65338 0.0
H763 H 0.79512 0.5114 0.69241 0.0
H764 H 0.80239 0.52862 0.68369 0.0
H765 H 0.78315 0.52262 0.68003 0.0
H766 H 0.77719 0.53237 0.6511 0.0
H767 H 0.77337 0.55994 0.65264 0.0
H768 H 0.94152 0.69208 0.80719 0.0
H769 H 0.96822 0.68766 0.81358 0.0
H770 H 0.95973 0.70202 0.85991 0.0
H771 H 0.93285 0.70662 0.85356 0.0
H772 H 0.98363 0.71726 0.84619 0.0
H773 H 0.99062 0.65512 0.83807 0.0
H774 H 0.98122 0.66381 0.8221 0.0
H775 H 0.97214 0.66397 0.84055 0.0
C776 C 0.94524 0.69408 0.81881 0.0
C777 C 0.93508 0.69977 0.82985 0.0
C778 C 0.96049 0.6914 0.82249 0.0
C779 C 0.96591 0.69428 0.83729 0.0
C780 C 0.95573 0.69958 0.84847 0.0
H781 H 0.06479 0.7044 0.85505 0.0
H782 H 0.03769 0.70052 0.86096 0.0
C783 C 0.9404 0.70221 0.84481 0.0
C784 C 0.9825 0.69341 0.84037 0.0
H785 H 0.01352 0.67045 0.83509 0.0
C786 C 0.99018 0.70694 0.84417 0.0
C787 C 0.99097 0.67992 0.83777 0.0
C788 C 0.98328 0.66485 0.83455 0.0
C789 C 0.00619 0.70765 0.84422 0.0
C790 C 0.01466 0.69438 0.8406 0.0
C791 C 0.00697 0.68061 0.83779 0.0
C792 C 0.03129 0.69509 0.83773 0.0
C793 C 0.01387 0.72281 0.84708 0.0
C794 C 0.0367 0.69279 0.82284 0.0
C795 C 0.0521 0.69494 0.81944 0.0
C796 C 0.06242 0.6994 0.83089 0.0
C797 C 0.0571 0.70106 0.84596 0.0
C798 C 0.04163 0.69891 0.84935 0.0
H799 H 0.00557 0.73239 0.8475 0.0
H800 H 0.01999 0.72239 0.85816 0.0
H801 H 0.02241 0.72523 0.83802 0.0
H802 H 0.02888 0.68982 0.81372 0.0
H803 H 0.05582 0.69346 0.80774 0.0
H804 H 0.78648 0.56 0.35344 0.0
H805 H 0.79016 0.53327 0.36066 0.0
H806 H 0.82139 0.52737 0.32303 0.0
H807 H 0.81804 0.55404 0.31594 0.0
H808 H 0.78206 0.51002 0.34234 0.0
H809 H 0.84329 0.50423 0.3563 0.0
H810 H 0.83383 0.52254 0.35548 0.0
H811 H 0.84059 0.51353 0.33827 0.0
C812 C 0.7944 0.5531 0.34691 0.0
C813 C 0.8019 0.55912 0.33405 0.0
C814 C 0.7965 0.53783 0.35107 0.0
C815 C 0.80619 0.52837 0.34251 0.0
C816 C 0.81416 0.53453 0.33005 0.0
H817 H 0.81716 0.43689 0.31629 0.0
H818 H 0.81935 0.46406 0.32212 0.0
C819 C 0.81211 0.54978 0.32591 0.0
C820 C 0.80643 0.51167 0.34519 0.0
H821 H 0.83039 0.48107 0.34825 0.0
C822 C 0.79258 0.50369 0.34401 0.0
C823 C 0.82018 0.50345 0.34733 0.0
C824 C 0.83528 0.51141 0.34957 0.0
C825 C 0.7922 0.4877 0.34391 0.0
C826 C 0.80604 0.47948 0.34526 0.0
C827 C 0.81982 0.48743 0.34718 0.0
C828 C 0.80648 0.46274 0.34316 0.0
C829 C 0.77711 0.47973 0.34143 0.0
C830 C 0.79894 0.45294 0.35334 0.0
C831 C 0.79761 0.43739 0.35001 0.0
C832 C 0.80383 0.43141 0.33646 0.0
C833 C 0.81213 0.44114 0.32676 0.0
C834 C 0.81345 0.45666 0.33009 0.0
H835 H 0.76792 0.4878 0.33804 0.0
H836 H 0.77818 0.47083 0.33247 0.0
H837 H 0.77356 0.47404 0.35217 0.0
H838 H 0.79367 0.45742 0.36359 0.0
H839 H 0.79124 0.43018 0.35778 0.0
H840 H 0.06547 0.28654 0.85481 0.0
H841 H 0.03896 0.2911 0.86255 0.0
H842 H 0.03005 0.31303 0.8194 0.0
H843 H 0.05645 0.30872 0.81162 0.0
H844 H 0.01604 0.32756 0.84559 0.0
H845 H 0.00512 0.26493 0.8423 0.0
H846 H 0.02029 0.27118 0.85463 0.0
H847 H 0.02208 0.2735 0.83435 0.0
C848 C 0.05792 0.29254 0.84706 0.0
C849 C 0.06299 0.29708 0.83251 0.0
C850 C 0.04279 0.29509 0.8515 0.0
C851 C 0.03254 0.3022 0.84145 0.0
C852 C 0.0378 0.3075 0.8273 0.0
H853 H 0.94144 0.31679 0.81746 0.0
H854 H 0.96847 0.31916 0.8235 0.0
C855 C 0.05288 0.30495 0.82285 0.0
C856 C 0.01604 0.30299 0.84491 0.0
H857 H 0.98405 0.28083 0.84604 0.0
C858 C 0.00903 0.31736 0.84595 0.0
C859 C 0.00698 0.28963 0.84544 0.0
C860 C 0.01391 0.27391 0.84404 0.0
C861 C 0.99309 0.31874 0.84692 0.0
C862 C 0.98398 0.30541 0.84652 0.0
C863 C 0.99106 0.29103 0.84635 0.0
C864 C 0.96721 0.30599 0.84438 0.0
C865 C 0.98617 0.33446 0.84806 0.0
C866 C 0.95747 0.29776 0.85409 0.0
C867 C 0.94198 0.29621 0.85055 0.0
C868 C 0.936 0.30279 0.83717 0.0
C869 C 0.94566 0.31159 0.82785 0.0
C870 C 0.96112 0.31309 0.83138 0.0
H871 H 0.99411 0.34254 0.85377 0.0
H872 H 0.98392 0.33887 0.8364 0.0
H873 H 0.97523 0.33426 0.85447 0.0
H874 H 0.96197 0.29208 0.86412 0.0
H875 H 0.93483 0.28939 0.85799 0.0
H876 H 0.17859 0.44224 0.32461 0.0
H877 H 0.17744 0.46935 0.33124 0.0
H878 H 0.22048 0.46554 0.35483 0.0
H879 H 0.22188 0.4385 0.3481 0.0
H880 H 0.17939 0.48626 0.3597 0.0
H881 H 0.22813 0.49701 0.3204 0.0
H882 H 0.21758 0.47931 0.32035 0.0
H883 H 0.23154 0.48295 0.33494 0.0
C884 C 0.18772 0.44711 0.33138 0.0
C885 C 0.20045 0.43828 0.33562 0.0
C886 C 0.18701 0.46259 0.33519 0.0
C887 C 0.199 0.46945 0.34329 0.0
C888 C 0.21125 0.46047 0.34835 0.0
H889 H 0.22286 0.56475 0.35476 0.0
H890 H 0.22125 0.53714 0.35832 0.0
C891 C 0.212 0.44502 0.34451 0.0
C892 C 0.19931 0.4862 0.3453 0.0
H893 H 0.21859 0.51806 0.33399 0.0
C894 C 0.18797 0.49325 0.35416 0.0
C895 C 0.21051 0.49523 0.33797 0.0
C896 C 0.22257 0.48831 0.32777 0.0
C897 C 0.18762 0.50919 0.35597 0.0
C898 C 0.19875 0.51821 0.34852 0.0
C899 C 0.21014 0.5111 0.3398 0.0
C900 C 0.19852 0.53511 0.34886 0.0
C901 C 0.17543 0.5162 0.36592 0.0
C902 C 0.18612 0.54316 0.34267 0.0
C903 C 0.18698 0.55896 0.34066 0.0
C904 C 0.20034 0.56694 0.34464 0.0
C905 C 0.21245 0.55893 0.3515 0.0
C906 C 0.21154 0.54316 0.35357 0.0
H907 H 0.17084 0.50782 0.37426 0.0
H908 H 0.17991 0.52624 0.37225 0.0
H909 H 0.16583 0.52007 0.35862 0.0
H910 H 0.1761 0.53714 0.33865 0.0
H911 H 0.17748 0.56479 0.33531 0.0
H912 H 0.14569 0.93052 0.30281 0.0
H913 H 0.14204 0.95741 0.30957 0.0
H914 H 0.1507 0.97024 0.26279 0.0
H915 H 0.15372 0.94355 0.2559 0.0
H916 H 0.16274 0.97824 0.30887 0.0
H917 H 0.1164 0.99833 0.27169 0.0
H918 H 0.12013 0.97825 0.27451 0.0
H919 H 0.13034 0.98889 0.26011 0.0
C920 C 0.14644 0.93908 0.29391 0.0
C921 C 0.15003 0.93492 0.27882 0.0
C922 C 0.14434 0.95443 0.29779 0.0
C923 C 0.14584 0.96588 0.28666 0.0
C924 C 0.14897 0.96165 0.27151 0.0
H925 H 0.19131 0.0488 0.2878 0.0
H926 H 0.18194 0.02282 0.29053 0.0
C927 C 0.15087 0.94634 0.2676 0.0
C928 C 0.14622 0.98224 0.29103 0.0
H929 H 0.1359 0.0175 0.27816 0.0
C930 C 0.15655 0.9868 0.30241 0.0
C931 C 0.13789 0.9935 0.28297 0.0
C932 C 0.12544 0.98943 0.27178 0.0
C933 C 0.15978 0.00226 0.30495 0.0
C934 C 0.15288 0.01341 0.29552 0.0
C935 C 0.1415 0.00895 0.28515 0.0
C936 C 0.1585 0.02936 0.29501 0.0
C937 C 0.1709 0.00643 0.31743 0.0
C938 C 0.14838 0.04174 0.29618 0.0
C939 C 0.1537 0.0567 0.29434 0.0
C940 C 0.16922 0.05949 0.29127 0.0
C941 C 0.17932 0.04707 0.29029 0.0
C942 C 0.17399 0.03218 0.292 0.0
H943 H 0.17029 0.99812 0.32699 0.0
H944 H 0.1827 0.00606 0.31282 0.0
H945 H 0.16868 0.01805 0.322 0.0
H946 H 0.13635 0.03982 0.29834 0.0
H947 H 0.14563 0.06604 0.29514 0.0
H948 H 0.56142 0.6828 0.82033 0.0
H949 H 0.53451 0.67765 0.82566 0.0
H950 H 0.53337 0.64518 0.78862 0.0
H951 H 0.56038 0.64987 0.7836 0.0
H952 H 0.51263 0.68425 0.80638 0.0
H953 H 0.50846 0.62269 0.81958 0.0
H954 H 0.52646 0.63275 0.81956 0.0
H955 H 0.51833 0.6259 0.80195 0.0
C956 C 0.55552 0.6743 0.81355 0.0
C957 C 0.56298 0.6668 0.8015 0.0
C958 C 0.54015 0.67135 0.81663 0.0
C959 C 0.53193 0.66092 0.80765 0.0
C960 C 0.53953 0.65297 0.79598 0.0
H961 H 0.43964 0.65343 0.77913 0.0
H962 H 0.46701 0.6503 0.78373 0.0
C963 C 0.55497 0.65577 0.79303 0.0
C964 C 0.51508 0.65992 0.80911 0.0
H965 H 0.48513 0.63496 0.81122 0.0
C966 C 0.50665 0.67349 0.80776 0.0
C967 C 0.50725 0.64587 0.81082 0.0
C968 C 0.51562 0.63101 0.81322 0.0
C969 C 0.49067 0.67336 0.80747 0.0
C970 C 0.48289 0.65928 0.8086 0.0
C971 C 0.49121 0.64572 0.81034 0.0
C972 C 0.46614 0.6586 0.80696 0.0
C973 C 0.48216 0.6882 0.80538 0.0
C974 C 0.45661 0.66386 0.81869 0.0
C975 C 0.44096 0.66566 0.81612 0.0
C976 C 0.43466 0.66232 0.80173 0.0
C977 C 0.44415 0.65621 0.7903 0.0
C978 C 0.45977 0.65434 0.79292 0.0
H979 H 0.48996 0.69796 0.80318 0.0
H980 H 0.474 0.68724 0.79572 0.0
H981 H 0.47545 0.69072 0.81583 0.0
H982 H 0.46139 0.6672 0.8296 0.0
H983 H 0.43396 0.67034 0.82518 0.0
H984 H 0.80923 0.06054 0.31436 0.0
H985 H 0.81175 0.03281 0.31515 0.0
H986 H 0.85419 0.03574 0.29037 0.0
H987 H 0.8518 0.06359 0.28949 0.0
H988 H 0.81388 0.01629 0.28606 0.0
H989 H 0.86197 0.00377 0.32575 0.0
H990 H 0.85099 0.02121 0.32687 0.0
H991 H 0.86467 0.01869 0.31185 0.0
C992 C 0.81927 0.05535 0.30932 0.0
C993 C 0.83025 0.06427 0.30173 0.0
C994 C 0.82069 0.0395 0.30982 0.0
C995 C 0.83318 0.03228 0.30289 0.0
C996 C 0.84457 0.04115 0.29596 0.0
H997 H 0.84915 0.93632 0.28167 0.0
H998 H 0.85245 0.96376 0.28614 0.0
C999 C 0.84314 0.05705 0.29542 0.0
C1000 C 0.83318 0.01551 0.30125 0.0
H1001 H 0.85094 0.98278 0.31277 0.0
C1002 C 0.82196 0.00895 0.29191 0.0
C1003 C 0.84389 0.00606 0.30874 0.0
C1004 C 0.85605 0.0127 0.31895 0.0
C1005 C 0.82108 0.99313 0.28991 0.0
C1006 C 0.83147 0.98359 0.29777 0.0
C1007 C 0.84292 0.99015 0.30688 0.0
C1008 C 0.83034 0.96678 0.29672 0.0
C1009 C 0.80913 0.98678 0.27922 0.0
C1010 C 0.81704 0.95936 0.30169 0.0
C1011 C 0.81507 0.94378 0.29906 0.0
C1012 C 0.82644 0.9353 0.29156 0.0
C1013 C 0.84015 0.94257 0.2874 0.0
C1014 C 0.84207 0.95823 0.28996 0.0
H1015 H 0.80498 0.99556 0.27106 0.0
H1016 H 0.81367 0.97695 0.27262 0.0
H1017 H 0.79919 0.98276 0.28598 0.0
H1018 H 0.80799 0.96573 0.30721 0.0
H1019 H 0.80447 0.93848 0.30258 0.0
H1020 H 0.56241 0.35487 0.79149 0.0
H1021 H 0.5356 0.36206 0.79486 0.0
H1022 H 0.52712 0.3195 0.81815 0.0
H1023 H 0.55382 0.31242 0.81516 0.0
H1024 H 0.51255 0.34666 0.78226 0.0
H1025 H 0.50313 0.34839 0.84448 0.0
H1026 H 0.52201 0.34883 0.83619 0.0
H1027 H 0.51229 0.33092 0.83908 0.0
C1028 C 0.5549 0.34721 0.79763 0.0
C1029 C 0.56022 0.33303 0.80298 0.0
C1030 C 0.5396 0.35134 0.79957 0.0
C1031 C 0.52939 0.34143 0.80695 0.0
C1032 C 0.53484 0.32754 0.81279 0.0
H1033 H 0.43915 0.31215 0.80583 0.0
H1034 H 0.46586 0.31832 0.81087 0.0
C1035 C 0.55012 0.32342 0.81092 0.0
C1036 C 0.51275 0.34445 0.80675 0.0
H1037 H 0.48076 0.34254 0.82895 0.0
C1038 C 0.50561 0.34618 0.7925 0.0
C1039 C 0.50371 0.34386 0.82013 0.0
C1040 C 0.51073 0.34306 0.83583 0.0
C1041 C 0.48966 0.34616 0.79116 0.0
C1042 C 0.48065 0.34453 0.80445 0.0
C1043 C 0.48774 0.34371 0.81879 0.0
C1044 C 0.46403 0.34179 0.80341 0.0
C1045 C 0.48258 0.34686 0.77546 0.0
C1046 C 0.45409 0.35311 0.79798 0.0
C1047 C 0.43878 0.34961 0.79506 0.0
C1048 C 0.43324 0.33473 0.7975 0.0
C1049 C 0.44308 0.32368 0.8037 0.0
C1050 C 0.45833 0.3272 0.80666 0.0
H1051 H 0.49126 0.34612 0.76624 0.0
H1052 H 0.47424 0.33742 0.77395 0.0
H1053 H 0.47633 0.3578 0.77415 0.0
H1054 H 0.45829 0.36448 0.79555 0.0
H1055 H 0.43146 0.3584 0.79036 0.0
H1056 H 0.14012 0.06154 0.70939 0.0
H1057 H 0.13427 0.03431 0.70696 0.0
H1058 H 0.17764 0.02689 0.68486 0.0
H1059 H 0.18351 0.05404 0.68702 0.0
H1060 H 0.15275 0.01001 0.6719 0.0
H1061 H 0.15673 0.00399 0.73513 0.0
H1062 H 0.14321 0.01768 0.728 0.0
H1063 H 0.16328 0.02085 0.72529 0.0
C1064 C 0.14833 0.05415 0.70383 0.0
C1065 C 0.16238 0.05991 0.69859 0.0
C1066 C 0.14497 0.0386 0.70248 0.0
C1067 C 0.15564 0.0286 0.69595 0.0
C1068 C 0.16928 0.03445 0.68997 0.0
H1069 H 0.1847 0.93797 0.68859 0.0
H1070 H 0.17742 0.96443 0.68418 0.0
C1071 C 0.17264 0.04996 0.69128 0.0
C1072 C 0.15331 0.01188 0.69641 0.0
H1073 H 0.15379 0.98162 0.72089 0.0
C1074 C 0.15274 0.00377 0.6826 0.0
C1075 C 0.15325 0.00383 0.7104 0.0
C1076 C 0.15425 0.01196 0.72558 0.0
C1077 C 0.15265 0.98775 0.68242 0.0
C1078 C 0.15342 0.97971 0.69639 0.0
C1079 C 0.15317 0.98783 0.71019 0.0
C1080 C 0.15636 0.96308 0.69707 0.0
C1081 C 0.152 0.97961 0.66726 0.0
C1082 C 0.14696 0.95348 0.7058 0.0
C1083 C 0.15118 0.93832 0.70849 0.0
C1084 C 0.16497 0.93257 0.70259 0.0
C1085 C 0.17402 0.94203 0.69331 0.0
C1086 C 0.16979 0.95715 0.69064 0.0
H1087 H 0.14609 0.98665 0.65852 0.0
H1088 H 0.16381 0.9775 0.66317 0.0
H1089 H 0.14605 0.96846 0.66824 0.0
H1090 H 0.13661 0.95788 0.71097 0.0
H1091 H 0.14395 0.93132 0.71567 0.0
H1092 H 0.43816 0.66845 0.17345 0.0
H1093 H 0.46597 0.6664 0.17186 0.0
H1094 H 0.46664 0.64085 0.21391 0.0
H1095 H 0.43884 0.64285 0.21566 0.0
H1096 H 0.48412 0.67878 0.19685 0.0
H1097 H 0.49717 0.61781 0.18498 0.0
H1098 H 0.47907 0.62648 0.18013 0.0
H1099 H 0.48314 0.6214 0.19955 0.0
C1100 C 0.44417 0.66209 0.18219 0.0
C1101 C 0.43631 0.65593 0.19476 0.0
C1102 C 0.46005 0.66093 0.18125 0.0
C1103 C 0.4683 0.65339 0.19271 0.0
C1104 C 0.46043 0.64651 0.20484 0.0
H1105 H 0.5617 0.64776 0.22273 0.0
H1106 H 0.53461 0.64345 0.21736 0.0
C1107 C 0.44456 0.64776 0.20586 0.0
C1108 C 0.48512 0.65452 0.19313 0.0
H1109 H 0.51796 0.63355 0.19258 0.0
C1110 C 0.49156 0.66893 0.19573 0.0
C1111 C 0.49469 0.6416 0.19189 0.0
C1112 C 0.48823 0.62593 0.18887 0.0
C1113 C 0.50735 0.67076 0.19754 0.0
C1114 C 0.517 0.65786 0.19624 0.0
C1115 C 0.51055 0.64343 0.19348 0.0
C1116 C 0.53374 0.65914 0.19829 0.0
C1117 C 0.51344 0.68641 0.20146 0.0
C1118 C 0.54234 0.66897 0.18902 0.0
C1119 C 0.55773 0.67162 0.19219 0.0
C1120 C 0.56487 0.66425 0.20452 0.0
C1121 C 0.55649 0.65366 0.21319 0.0
C1122 C 0.54102 0.65117 0.21013 0.0
H1123 H 0.50436 0.69398 0.20607 0.0
H1124 H 0.52277 0.68568 0.21001 0.0
H1125 H 0.51805 0.69184 0.19099 0.0
H1126 H 0.53703 0.67493 0.17957 0.0
H1127 H 0.56395 0.67967 0.18516 0.0
H1128 H 0.85896 0.06616 0.71517 0.0
H1129 H 0.86495 0.039 0.71255 0.0
H1130 H 0.82995 0.03456 0.67818 0.0
H1131 H 0.8241 0.06165 0.68049 0.0
H1132 H 0.84461 0.01706 0.71936 0.0
H1133 H 0.86363 0.00905 0.65978 0.0
H1134 H 0.86306 0.02759 0.6688 0.0
H1135 H 0.84601 0.01943 0.66069 0.0
C1136 C 0.85277 0.05947 0.7068 0.0
C1137 C 0.84097 0.06604 0.69811 0.0
C1138 C 0.85623 0.04396 0.70531 0.0
C1139 C 0.84803 0.03479 0.69504 0.0
C1140 C 0.8367 0.04148 0.6859 0.0
H1141 H 0.81728 0.94504 0.68304 0.0
H1142 H 0.82528 0.97163 0.68083 0.0
C1143 C 0.83326 0.05697 0.68735 0.0
C1144 C 0.84974 0.01797 0.69533 0.0
H1145 H 0.85311 0.98669 0.67231 0.0
C1146 C 0.84684 0.01041 0.70915 0.0
C1147 C 0.85262 0.00933 0.682 0.0
C1148 C 0.85666 0.01679 0.66702 0.0
C1149 C 0.84572 0.99446 0.70981 0.0
C1150 C 0.84783 0.98585 0.69631 0.0
C1151 C 0.85148 0.99335 0.68263 0.0
C1152 C 0.84467 0.96927 0.69595 0.0
C1153 C 0.84136 0.98704 0.72475 0.0
C1154 C 0.85326 0.95903 0.70477 0.0
C1155 C 0.84866 0.94381 0.70615 0.0
C1156 C 0.83543 0.93861 0.69866 0.0
C1157 C 0.82744 0.9487 0.68906 0.0
C1158 C 0.83203 0.96389 0.68773 0.0
H1159 H 0.83755 0.99551 0.73339 0.0
H1160 H 0.83205 0.97861 0.723 0.0
H1161 H 0.85138 0.98087 0.72944 0.0
H1162 H 0.86319 0.96294 0.71101 0.0
H1163 H 0.85514 0.93628 0.71351 0.0
H1164 H 0.56114 0.32072 0.1828 0.0
H1165 H 0.5339 0.32634 0.18243 0.0
H1166 H 0.54103 0.3639 0.21347 0.0
H1167 H 0.56835 0.35818 0.21414 0.0
H1168 H 0.52061 0.34387 0.22421 0.0
H1169 H 0.50534 0.35789 0.16468 0.0
H1170 H 0.5164 0.34068 0.1656 0.0
H1171 H 0.5248 0.3585 0.17154 0.0
C1172 C 0.557 0.33042 0.18927 0.0
C1173 C 0.5669 0.33889 0.19865 0.0
C1174 C 0.54141 0.33371 0.18892 0.0
C1175 C 0.53543 0.34564 0.1978 0.0
C1176 C 0.54542 0.3547 0.20646 0.0
H1177 H 0.43501 0.35403 0.20642 0.0
H1178 H 0.46167 0.3617 0.20211 0.0
C1179 C 0.56103 0.35139 0.20685 0.0
C1180 C 0.5187 0.34698 0.19986 0.0
H1181 H 0.48495 0.34716 0.18032 0.0
C1182 C 0.51282 0.34498 0.21464 0.0
C1183 C 0.50851 0.34854 0.18742 0.0
C1184 C 0.5141 0.35169 0.17145 0.0
C1185 C 0.49711 0.34341 0.21715 0.0
C1186 C 0.48706 0.34369 0.20456 0.0
C1187 C 0.49276 0.34677 0.18992 0.0
C1188 C 0.47091 0.3392 0.2063 0.0
C1189 C 0.49141 0.34081 0.2332 0.0
C1190 C 0.46739 0.324 0.20979 0.0
C1191 C 0.4523 0.31959 0.2122 0.0
C1192 C 0.44041 0.33032 0.21119 0.0
C1193 C 0.44394 0.34552 0.20734 0.0
C1194 C 0.45911 0.34992 0.20485 0.0
H1195 H 0.49984 0.34468 0.24185 0.0
H1196 H 0.48045 0.3469 0.23514 0.0
H1197 H 0.48938 0.32843 0.23494 0.0
H1198 H 0.47638 0.31556 0.2108 0.0
H1199 H 0.45001 0.30778 0.21507 0.0
H1200 H 0.2822 0.1493 0.0613 0.0
H1201 H 0.28466 0.1418 0.03446 0.0
H1202 H 0.31726 0.17801 0.02731 0.0
H1203 H 0.31507 0.18541 0.05402 0.0
H1204 H 0.27727 0.16027 0.01052 0.0
H1205 H 0.33765 0.14269 0.0054 0.0
H1206 H 0.32808 0.14429 0.0236 0.0
H1207 H 0.33581 0.16098 0.01441 0.0
C1208 C 0.29009 0.15549 0.05407 0.0
C1209 C 0.29841 0.16799 0.05978 0.0
C1210 C 0.29149 0.15117 0.03876 0.0
C1211 C 0.30133 0.15918 0.02896 0.0
C1212 C 0.30991 0.17141 0.03475 0.0
H1213 H 0.31512 0.18216 0.93713 0.0
H1214 H 0.31634 0.1769 0.96447 0.0
C1215 C 0.30852 0.17573 0.05001 0.0
C1216 C 0.30141 0.15602 0.01236 0.0
H1217 H 0.32529 0.15072 0.98201 0.0
C1218 C 0.28769 0.15783 0.00429 0.0
C1219 C 0.31503 0.15284 0.00429 0.0
C1220 C 0.32994 0.14993 0.0124 0.0
C1221 C 0.28739 0.15755 0.98829 0.0
C1222 C 0.30117 0.15516 0.98019 0.0
C1223 C 0.31476 0.15259 0.98827 0.0
C1224 C 0.30189 0.1569 0.96342 0.0
C1225 C 0.27252 0.16075 0.98017 0.0
C1226 C 0.29375 0.14708 0.95373 0.0
C1227 C 0.29296 0.15009 0.93807 0.0
C1228 C 0.30036 0.16294 0.93188 0.0
C1229 C 0.3092 0.17223 0.94154 0.0
C1230 C 0.30996 0.16923 0.95716 0.0
H1231 H 0.26354 0.16493 0.98809 0.0
H1232 H 0.2742 0.16939 0.97104 0.0
H1233 H 0.26834 0.1501 0.97474 0.0
H1234 H 0.28764 0.13737 0.95834 0.0
H1235 H 0.28616 0.14264 0.93092 0.0
H1236 H 0.29033 0.85469 0.06551 0.0
H1237 H 0.29386 0.86124 0.03855 0.0
H1238 H 0.31612 0.81798 0.03091 0.0
H1239 H 0.31306 0.81154 0.0578 0.0
H1240 H 0.32967 0.84149 0.01481 0.0
H1241 H 0.26656 0.8413 0.00682 0.0
H1242 H 0.27373 0.85469 0.02059 0.0
H1243 H 0.27545 0.83455 0.02411 0.0
C1244 C 0.29616 0.84667 0.05812 0.0
C1245 C 0.30121 0.8325 0.06373 0.0
C1246 C 0.29811 0.8504 0.04272 0.0
C1247 C 0.30496 0.83995 0.03269 0.0
C1248 C 0.31075 0.82619 0.03845 0.0
H1249 H 0.31134 0.81233 0.94132 0.0
H1250 H 0.31554 0.81811 0.96825 0.0
C1251 C 0.30894 0.8225 0.05384 0.0
C1252 C 0.30512 0.84262 0.016 0.0
H1253 H 0.2816 0.84447 0.985 0.0
C1254 C 0.31918 0.84236 0.00829 0.0
C1255 C 0.2914 0.84374 0.00753 0.0
C1256 C 0.27591 0.84347 0.01512 0.0
C1257 C 0.31985 0.84265 0.99228 0.0
C1258 C 0.30611 0.8431 0.98384 0.0
C1259 C 0.29211 0.84417 0.99155 0.0
C1260 C 0.30574 0.84076 0.96713 0.0
C1261 C 0.33521 0.84215 0.98452 0.0
C1262 C 0.29887 0.85161 0.95757 0.0
C1263 C 0.29641 0.84833 0.94216 0.0
C1264 C 0.30057 0.83403 0.93613 0.0
C1265 C 0.30797 0.82343 0.94562 0.0
C1266 C 0.31051 0.82676 0.96099 0.0
H1267 H 0.34438 0.84652 0.99212 0.0
H1268 H 0.33799 0.83014 0.98158 0.0
H1269 H 0.33515 0.84894 0.97382 0.0
H1270 H 0.29499 0.86243 0.96216 0.0
H1271 H 0.29068 0.85674 0.93514 0.0
H1272 H 0.69063 0.81138 0.56077 0.0
H1273 H 0.68651 0.81629 0.53365 0.0
H1274 H 0.64092 0.79797 0.53712 0.0
H1275 H 0.64485 0.79323 0.56436 0.0
H1276 H 0.68102 0.79287 0.51378 0.0
H1277 H 0.63454 0.8358 0.51033 0.0
H1278 H 0.64544 0.83255 0.52754 0.0
H1279 H 0.63029 0.81973 0.52235 0.0
C1280 C 0.67962 0.80866 0.55585 0.0
C1281 C 0.66811 0.80179 0.56467 0.0
C1282 C 0.67727 0.81151 0.54036 0.0
C1283 C 0.66338 0.8076 0.53341 0.0
C1284 C 0.65162 0.80135 0.54232 0.0
H1285 H 0.65331 0.78066 0.43961 0.0
H1286 H 0.65106 0.78329 0.46727 0.0
C1287 C 0.65393 0.79855 0.55786 0.0
C1288 C 0.662 0.80821 0.51659 0.0
H1289 H 0.64097 0.82284 0.48717 0.0
C1290 C 0.67233 0.79952 0.50797 0.0
C1291 C 0.65067 0.81692 0.50906 0.0
C1292 C 0.63967 0.8269 0.51777 0.0
C1293 C 0.67152 0.7991 0.49203 0.0
C1294 C 0.65991 0.8074 0.48451 0.0
C1295 C 0.64973 0.81636 0.49304 0.0
C1296 C 0.65846 0.80683 0.46773 0.0
C1297 C 0.68316 0.78981 0.48333 0.0
C1298 C 0.66268 0.81945 0.45885 0.0
C1299 C 0.66397 0.81802 0.443 0.0
C1300 C 0.66108 0.80392 0.43587 0.0
C1301 C 0.6558 0.79163 0.44476 0.0
C1302 C 0.65448 0.7931 0.46056 0.0
H1303 H 0.69317 0.7868 0.49052 0.0
H1304 H 0.67778 0.77904 0.47937 0.0
H1305 H 0.68724 0.79613 0.47313 0.0
H1306 H 0.66577 0.83015 0.46424 0.0
H1307 H 0.66797 0.82772 0.43646 0.0
H1308 H 0.68111 0.17724 0.05907 0.0
H1309 H 0.67919 0.17125 0.03197 0.0
H1310 H 0.71132 0.13436 0.03765 0.0
H1311 H 0.71354 0.14045 0.06483 0.0
H1312 H 0.71985 0.15425 0.01564 0.0
H1313 H 0.65953 0.13818 0.00643 0.0
H1314 H 0.66119 0.15581 0.01671 0.0
H1315 H 0.66818 0.13841 0.02515 0.0
C1316 C 0.68755 0.16764 0.05465 0.0
C1317 C 0.69758 0.1594 0.06409 0.0
C1318 C 0.68632 0.16414 0.03916 0.0
C1319 C 0.69496 0.15223 0.03282 0.0
C1320 C 0.70447 0.14353 0.04234 0.0
H1321 H 0.71487 0.14096 0.93501 0.0
H1322 H 0.7117 0.13445 0.96201 0.0
C1323 C 0.70573 0.14704 0.05786 0.0
C1324 C 0.69558 0.15031 0.01603 0.0
H1325 H 0.67319 0.14747 0.98425 0.0
C1326 C 0.70971 0.15241 0.00877 0.0
C1327 C 0.68232 0.14796 0.00711 0.0
C1328 C 0.66698 0.14481 0.01427 0.0
C1329 C 0.71081 0.15317 0.99283 0.0
C1330 C 0.69744 0.15153 0.98392 0.0
C1331 C 0.6834 0.14875 0.99114 0.0
C1332 C 0.69769 0.1541 0.96724 0.0
C1333 C 0.72613 0.15659 0.98568 0.0
C1334 C 0.69033 0.16695 0.96117 0.0
C1335 C 0.69206 0.17068 0.94577 0.0
C1336 C 0.70118 0.1616 0.93618 0.0
C1337 C 0.70788 0.14827 0.94213 0.0
C1338 C 0.70612 0.14454 0.95755 0.0
H1339 H 0.73473 0.16018 0.99429 0.0
H1340 H 0.73047 0.1462 0.97988 0.0
H1341 H 0.72505 0.16575 0.97699 0.0
H1342 H 0.68374 0.17445 0.96848 0.0
H1343 H 0.68666 0.18097 0.94154 0.0
H1344 H 0.35674 0.20761 0.56675 0.0
H1345 H 0.36181 0.20531 0.53934 0.0
H1346 H 0.31689 0.18628 0.53258 0.0
H1347 H 0.31183 0.18823 0.5599 0.0
H1348 H 0.33969 0.17176 0.51525 0.0
H1349 H 0.34185 0.23506 0.50935 0.0
H1350 H 0.35512 0.22677 0.52261 0.0
H1351 H 0.33499 0.22585 0.52644 0.0
C1352 C 0.34801 0.20279 0.55944 0.0
C1353 C 0.33381 0.19828 0.56546 0.0
C1354 C 0.35091 0.20153 0.5438 0.0
C1355 C 0.33962 0.19588 0.53393 0.0
C1356 C 0.32574 0.19072 0.54001 0.0
H1357 H 0.30978 0.19216 0.44295 0.0
H1358 H 0.31588 0.18766 0.46973 0.0
C1359 C 0.32285 0.19189 0.55563 0.0
C1360 C 0.34171 0.1962 0.51718 0.0
H1361 H 0.34361 0.22064 0.48692 0.0
C1362 C 0.34075 0.18242 0.50904 0.0
C1363 C 0.34313 0.21013 0.50914 0.0
C1364 C 0.34373 0.22533 0.51727 0.0
C1365 C 0.34067 0.18226 0.49302 0.0
C1366 C 0.34136 0.19625 0.48501 0.0
C1367 C 0.3431 0.20994 0.49313 0.0
C1368 C 0.33864 0.1972 0.46838 0.0
C1369 C 0.33955 0.16717 0.48482 0.0
C1370 C 0.3494 0.20412 0.45874 0.0
C1371 C 0.34591 0.20679 0.4434 0.0
C1372 C 0.33152 0.20275 0.43752 0.0
C1373 C 0.32095 0.19543 0.44712 0.0
C1374 C 0.32448 0.19271 0.46241 0.0
H1375 H 0.34401 0.15769 0.49197 0.0
H1376 H 0.32738 0.16471 0.48228 0.0
H1377 H 0.34594 0.1674 0.47387 0.0
H1378 H 0.36035 0.20779 0.4632 0.0
H1379 H 0.3543 0.21246 0.4363 0.0
H1380 H 0.70399 0.851 0.06153 0.0
H1381 H 0.70072 0.85618 0.03429 0.0
H1382 H 0.67601 0.81391 0.02909 0.0
H1383 H 0.67933 0.80854 0.05624 0.0
H1384 H 0.70101 0.81686 0.00978 0.0
H1385 H 0.66419 0.8684 0.00718 0.0
H1386 H 0.6802 0.86996 0.01992 0.0
H1387 H 0.66536 0.85637 0.02391 0.0
C1388 C 0.69761 0.84293 0.05465 0.0
C1389 C 0.69203 0.82929 0.06102 0.0
C1390 C 0.69566 0.84598 0.03911 0.0
C1391 C 0.688 0.83549 0.02973 0.0
C1392 C 0.68189 0.82218 0.03618 0.0
H1393 H 0.67103 0.8371 0.93188 0.0
H1394 H 0.66771 0.83771 0.95966 0.0
C1395 C 0.68383 0.81912 0.05169 0.0
C1396 C 0.68797 0.83746 0.01297 0.0
H1397 H 0.67682 0.8612 0.98409 0.0
C1398 C 0.69562 0.82649 0.00416 0.0
C1399 C 0.68089 0.85002 0.0057 0.0
C1400 C 0.67207 0.86181 0.01463 0.0
C1401 C 0.69665 0.82788 0.98828 0.0
C1402 C 0.68999 0.84067 0.98105 0.0
C1403 C 0.68203 0.8515 0.98976 0.0
C1404 C 0.69139 0.84281 0.96441 0.0
C1405 C 0.70487 0.81566 0.97933 0.0
C1406 C 0.70569 0.846 0.95799 0.0
C1407 C 0.70765 0.84563 0.94219 0.0
C1408 C 0.69531 0.84206 0.93255 0.0
C1409 C 0.68077 0.83981 0.939 0.0
C1410 C 0.67883 0.84019 0.95484 0.0
H1411 H 0.70669 0.80515 0.98619 0.0
H1412 H 0.69837 0.81263 0.96887 0.0
H1413 H 0.71621 0.82003 0.97573 0.0
H1414 H 0.71548 0.84815 0.96524 0.0
H1415 H 0.71897 0.84755 0.93759 0.0
H1416 H 0.64369 0.21397 0.56462 0.0
H1417 H 0.63692 0.21111 0.53767 0.0
H1418 H 0.67526 0.18088 0.5312 0.0
H1419 H 0.68194 0.18344 0.55809 0.0
H1420 H 0.65548 0.22016 0.51467 0.0
H1421 H 0.64225 0.15888 0.50751 0.0
H1422 H 0.64276 0.16801 0.526 0.0
H1423 H 0.66016 0.16175 0.51701 0.0
C1424 C 0.65049 0.20646 0.55753 0.0
C1425 C 0.66341 0.19899 0.56348 0.0
C1426 C 0.64659 0.20483 0.54214 0.0
C1427 C 0.65546 0.19563 0.53247 0.0
C1428 C 0.66802 0.18774 0.53852 0.0
H1429 H 0.68043 0.18641 0.44013 0.0
H1430 H 0.67529 0.18386 0.46741 0.0
C1431 C 0.67192 0.18934 0.55389 0.0
C1432 C 0.65284 0.19574 0.51577 0.0
H1433 H 0.64973 0.17247 0.48466 0.0
C1434 C 0.65388 0.20977 0.50811 0.0
C1435 C 0.65079 0.18217 0.50726 0.0
C1436 C 0.64877 0.16687 0.51489 0.0
C1437 C 0.65384 0.21052 0.49213 0.0
C1438 C 0.65249 0.19688 0.4836 0.0
C1439 C 0.65079 0.1829 0.49125 0.0
C1440 C 0.65428 0.19683 0.46682 0.0
C1441 C 0.65613 0.22581 0.4845 0.0
C1442 C 0.64389 0.20457 0.4574 0.0
C1443 C 0.64682 0.20612 0.44179 0.0
C1444 C 0.66017 0.1999 0.43537 0.0
C1445 C 0.6701 0.19144 0.44472 0.0
C1446 C 0.66716 0.18992 0.46031 0.0
H1447 H 0.6597 0.23478 0.49273 0.0
H1448 H 0.66491 0.22498 0.47538 0.0
H1449 H 0.64526 0.22949 0.47914 0.0
H1450 H 0.63376 0.20979 0.46221 0.0
H1451 H 0.63888 0.21259 0.43486 0.0
H1452 H 0.35373 0.7823 0.4323 0.0
H1453 H 0.35584 0.78338 0.46009 0.0
H1454 H 0.33486 0.82789 0.46013 0.0
H1455 H 0.33278 0.82702 0.43228 0.0
H1456 H 0.36012 0.82273 0.48272 0.0
H1457 H 0.3138 0.77918 0.48304 0.0
H1458 H 0.33041 0.7746 0.47188 0.0
H1459 H 0.31842 0.79026 0.4663 0.0
C1460 C 0.34985 0.79247 0.43817 0.0
C1461 C 0.34283 0.80446 0.43011 0.0
C1462 C 0.35108 0.79306 0.45404 0.0
C1463 C 0.3453 0.80561 0.4621 0.0
C1464 C 0.33936 0.8181 0.45406 0.0
H1465 H 0.30806 0.80827 0.5525 0.0
H1466 H 0.31398 0.81182 0.52552 0.0
C1467 C 0.33815 0.81755 0.43815 0.0
C1468 C 0.34368 0.80487 0.47886 0.0
H1469 H 0.32357 0.78678 0.50686 0.0
C1470 C 0.3522 0.81485 0.48805 0.0
C1471 C 0.33317 0.7947 0.48568 0.0
C1472 C 0.32331 0.78413 0.47626 0.0
C1473 C 0.35052 0.81482 0.50402 0.0
C1474 C 0.34009 0.80454 0.5108 0.0
C1475 C 0.33159 0.79461 0.50158 0.0
C1476 C 0.33735 0.80408 0.52743 0.0
C1477 C 0.35959 0.82596 0.5135 0.0
C1478 C 0.34862 0.79869 0.53744 0.0
C1479 C 0.34527 0.79658 0.55291 0.0
C1480 C 0.33057 0.79978 0.55855 0.0
C1481 C 0.31948 0.80564 0.54854 0.0
C1482 C 0.32283 0.80771 0.53311 0.0
H1483 H 0.36506 0.83492 0.50638 0.0
H1484 H 0.35215 0.83154 0.52212 0.0
H1485 H 0.36869 0.81971 0.51971 0.0
H1486 H 0.35983 0.79561 0.5332 0.0
H1487 H 0.35406 0.79205 0.56034 0.0
H1488 H 0.1675 0.36148 0.31141 0.0
H1489 H 0.15239 0.35124 0.2902 0.0
H1490 H 0.17762 0.37928 0.25858 0.0
H1491 H 0.19286 0.38945 0.27959 0.0
H1492 H 0.13415 0.36608 0.26699 0.0
H1493 H 0.18419 0.33515 0.24316 0.0
H1494 H 0.18398 0.34283 0.26228 0.0
H1495 H 0.18712 0.35521 0.24623 0.0
C1496 C 0.16975 0.36556 0.29996 0.0
C1497 C 0.1815 0.37614 0.29717 0.0
C1498 C 0.16109 0.35972 0.28787 0.0
C1499 C 0.16409 0.36434 0.27283 0.0
C1500 C 0.17534 0.37539 0.27009 0.0
H1501 H 0.13349 0.33206 0.18427 0.0
H1502 H 0.14439 0.34727 0.20501 0.0
C1503 C 0.184 0.38121 0.28213 0.0
C1504 C 0.15593 0.35715 0.25991 0.0
H1505 H 0.16155 0.33476 0.22853 0.0
C1506 C 0.1401 0.35922 0.25857 0.0
C1507 C 0.16377 0.3482 0.24899 0.0
C1508 C 0.18068 0.34506 0.25025 0.0
C1509 C 0.1319 0.35272 0.2464 0.0
C1510 C 0.13976 0.34376 0.2355 0.0
C1511 C 0.15559 0.34174 0.23685 0.0
C1512 C 0.13179 0.3358 0.22289 0.0
C1513 C 0.11498 0.35567 0.2452 0.0
C1514 C 0.121 0.32442 0.22608 0.0
C1515 C 0.11475 0.31571 0.21428 0.0
C1516 C 0.11927 0.31816 0.19906 0.0
C1517 C 0.12976 0.32988 0.19586 0.0
C1518 C 0.136 0.33858 0.20768 0.0
H1519 H 0.11155 0.36598 0.25175 0.0
H1520 H 0.11146 0.35715 0.23311 0.0
H1521 H 0.10868 0.34576 0.24995 0.0
H1522 H 0.11783 0.32187 0.23776 0.0
H1523 H 0.10673 0.30674 0.21715 0.0
H1524 H 0.10901 0.65545 0.80316 0.0
H1525 H 0.12333 0.64145 0.78352 0.0
H1526 H 0.15701 0.67735 0.78246 0.0
H1527 H 0.14293 0.69131 0.80196 0.0
H1528 H 0.13075 0.65303 0.75364 0.0
H1529 H 0.18257 0.63797 0.78664 0.0
H1530 H 0.16478 0.64328 0.79565 0.0
H1531 H 0.17737 0.65773 0.78827 0.0
C1532 C 0.11957 0.66024 0.79887 0.0
C1533 C 0.12484 0.67448 0.80412 0.0
C1534 C 0.1277 0.65226 0.78765 0.0
C1535 C 0.14131 0.6583 0.78171 0.0
C1536 C 0.14667 0.67237 0.7871 0.0
H1537 H 0.20743 0.64871 0.71195 0.0
H1538 H 0.19075 0.65539 0.73325 0.0
C1539 C 0.13855 0.68038 0.79819 0.0
C1540 C 0.14958 0.6505 0.76922 0.0
H1541 H 0.18486 0.63727 0.75937 0.0
C1542 C 0.14249 0.64929 0.75491 0.0
C1543 C 0.16488 0.64568 0.77097 0.0
C1544 C 0.17282 0.64608 0.78625 0.0
C1545 C 0.15061 0.6442 0.74205 0.0
C1546 C 0.16612 0.64001 0.74368 0.0
C1547 C 0.17299 0.64059 0.75815 0.0
C1548 C 0.17576 0.63596 0.73041 0.0
C1549 C 0.14279 0.64407 0.7267 0.0
C1550 C 0.17282 0.62282 0.72174 0.0
C1551 C 0.18233 0.61897 0.70949 0.0
C1552 C 0.19497 0.62818 0.70578 0.0
C1553 C 0.19779 0.64138 0.71447 0.0
C1554 C 0.18829 0.6452 0.72667 0.0
H1555 H 0.13175 0.65032 0.72692 0.0
H1556 H 0.15024 0.64926 0.71785 0.0
H1557 H 0.14046 0.63209 0.7233 0.0
H1558 H 0.16334 0.61542 0.72459 0.0
H1559 H 0.1799 0.60868 0.70307 0.0
H1560 H 0.82442 0.64525 0.31527 0.0
H1561 H 0.83692 0.65871 0.2942 0.0
H1562 H 0.82113 0.62431 0.26271 0.0
H1563 H 0.80835 0.61094 0.2836 0.0
H1564 H 0.8589 0.65042 0.27268 0.0
H1565 H 0.8033 0.66363 0.24517 0.0
H1566 H 0.80468 0.65627 0.26436 0.0
H1567 H 0.8066 0.64364 0.24828 0.0
C1568 C 0.82373 0.64046 0.30389 0.0
C1569 C 0.81523 0.62714 0.30107 0.0
C1570 C 0.83088 0.64816 0.29187 0.0
C1571 C 0.82967 0.64266 0.27687 0.0
C1572 C 0.8219 0.62893 0.27416 0.0
H1573 H 0.87967 0.67908 0.19828 0.0
H1574 H 0.87005 0.66247 0.21862 0.0
C1575 C 0.81467 0.62128 0.28613 0.0
C1576 C 0.83593 0.65166 0.264 0.0
H1577 H 0.82554 0.67066 0.23161 0.0
C1578 C 0.85164 0.65483 0.26367 0.0
C1579 C 0.82637 0.65757 0.2524 0.0
C1580 C 0.80928 0.65525 0.25259 0.0
C1581 C 0.85806 0.66375 0.25198 0.0
C1582 C 0.84853 0.66938 0.24022 0.0
C1583 C 0.83283 0.6662 0.24058 0.0
C1584 C 0.85441 0.67926 0.22781 0.0
C1585 C 0.87488 0.66742 0.25258 0.0
C1586 C 0.8485 0.69403 0.22598 0.0
C1587 C 0.85383 0.70346 0.2143 0.0
C1588 C 0.86518 0.6983 0.20419 0.0
C1589 C 0.87098 0.68342 0.20593 0.0
C1590 C 0.86558 0.67395 0.21761 0.0
H1591 H 0.87975 0.6654 0.26412 0.0
H1592 H 0.88106 0.65999 0.24438 0.0
H1593 H 0.87701 0.67949 0.24933 0.0
H1594 H 0.83983 0.69832 0.2337 0.0
H1595 H 0.84913 0.71485 0.2133 0.0
H1596 H 0.84329 0.29522 0.79506 0.0
H1597 H 0.83516 0.31009 0.77292 0.0
H1598 H 0.87842 0.33364 0.77266 0.0
H1599 H 0.88655 0.31903 0.79504 0.0
H1600 H 0.85456 0.35305 0.76835 0.0
H1601 H 0.84941 0.30359 0.72936 0.0
H1602 H 0.83829 0.30124 0.7464 0.0
H1603 H 0.85879 0.30233 0.74766 0.0
C1604 C 0.85107 0.30359 0.79033 0.0
C1605 C 0.86559 0.30589 0.79676 0.0
C1606 C 0.84645 0.31199 0.7776 0.0
C1607 C 0.85633 0.32271 0.77093 0.0
C1608 C 0.87068 0.32533 0.77755 0.0
H1609 H 0.83392 0.36112 0.68121 0.0
H1610 H 0.84789 0.34888 0.70215 0.0
C1611 C 0.87528 0.31699 0.79036 0.0
C1612 C 0.85153 0.33134 0.7572 0.0
H1613 H 0.83754 0.32682 0.72112 0.0
C1614 C 0.85099 0.34734 0.75796 0.0
C1615 C 0.84721 0.32389 0.74353 0.0
C1616 C 0.8486 0.30683 0.7416 0.0
C1617 C 0.84557 0.35604 0.74566 0.0
C1618 C 0.84024 0.34851 0.73239 0.0
C1619 C 0.84145 0.33257 0.73137 0.0
C1620 C 0.83254 0.35682 0.71982 0.0
C1621 C 0.84557 0.37322 0.74701 0.0
C1622 C 0.81928 0.36529 0.72282 0.0
C1623 C 0.81135 0.37232 0.71094 0.0
C1624 C 0.8164 0.37087 0.69576 0.0
C1625 C 0.82975 0.36247 0.69277 0.0
C1626 C 0.83774 0.35547 0.70471 0.0
H1627 H 0.85442 0.3772 0.75519 0.0
H1628 H 0.84762 0.37874 0.73579 0.0
H1629 H 0.8343 0.37705 0.75137 0.0
H1630 H 0.81482 0.36615 0.73432 0.0
H1631 H 0.80105 0.37862 0.71365 0.0
H1632 H 0.31081 0.15968 0.38603 0.0
H1633 H 0.29041 0.14478 0.37389 0.0
H1634 H 0.27327 0.18564 0.35244 0.0
H1635 H 0.29352 0.20054 0.36434 0.0
H1636 H 0.25812 0.14926 0.37664 0.0
H1637 H 0.27799 0.1552 0.31684 0.0
H1638 H 0.2902 0.15895 0.33303 0.0
H1639 H 0.27663 0.17305 0.32682 0.0
C1640 C 0.30276 0.16546 0.37863 0.0
C1641 C 0.30384 0.18128 0.37609 0.0
C1642 C 0.29111 0.15695 0.37175 0.0
C1643 C 0.28049 0.1641 0.36213 0.0
C1644 C 0.28153 0.17987 0.35962 0.0
H1645 H 0.19021 0.14171 0.33157 0.0
H1646 H 0.21271 0.15046 0.34563 0.0
C1647 C 0.29309 0.18837 0.36649 0.0
C1648 C 0.268 0.1553 0.35495 0.0
H1649 H 0.25225 0.14689 0.32036 0.0
C1650 C 0.2569 0.14856 0.36434 0.0
C1651 C 0.26657 0.15426 0.33891 0.0
C1652 C 0.27856 0.16062 0.3283 0.0
C1653 C 0.24403 0.14132 0.35807 0.0
C1654 C 0.24219 0.14104 0.34203 0.0
C1655 C 0.25361 0.14725 0.33266 0.0
C1656 C 0.22833 0.13477 0.33463 0.0
C1657 C 0.23254 0.13409 0.36866 0.0
C1658 C 0.22967 0.12315 0.32371 0.0
C1659 C 0.21689 0.11823 0.31556 0.0
C1660 C 0.2025 0.1249 0.31814 0.0
C1661 C 0.20111 0.13629 0.32936 0.0
C1662 C 0.21394 0.14124 0.33748 0.0
H1663 H 0.23768 0.13133 0.37992 0.0
H1664 H 0.22301 0.14221 0.37063 0.0
H1665 H 0.22773 0.12348 0.36364 0.0
H1666 H 0.24069 0.11806 0.32129 0.0
H1667 H 0.21836 0.10941 0.30702 0.0
H1668 H 0.29847 0.79492 0.86361 0.0
H1669 H 0.31203 0.77398 0.85128 0.0
H1670 H 0.35485 0.79147 0.86816 0.0
H1671 H 0.34132 0.8125 0.88077 0.0
H1672 H 0.33499 0.77542 0.82914 0.0
H1673 H 0.3549 0.7464 0.88199 0.0
H1674 H 0.34012 0.76078 0.88214 0.0
H1675 H 0.3598 0.76627 0.88035 0.0
C1676 C 0.31078 0.79436 0.86474 0.0
C1677 C 0.31881 0.80537 0.87325 0.0
C1678 C 0.3185 0.78237 0.85766 0.0
C1679 C 0.3344 0.78107 0.85897 0.0
C1680 C 0.34253 0.79214 0.86724 0.0
H1681 H 0.38808 0.72003 0.80137 0.0
H1682 H 0.37848 0.74225 0.81525 0.0
C1683 C 0.3348 0.80419 0.87435 0.0
C1684 C 0.34233 0.76818 0.85144 0.0
H1685 H 0.36278 0.73573 0.85849 0.0
C1686 C 0.34114 0.76678 0.83554 0.0
C1687 C 0.35017 0.75685 0.85987 0.0
C1688 C 0.35127 0.75751 0.87705 0.0
C1689 C 0.34752 0.75429 0.8278 0.0
C1690 C 0.3555 0.74304 0.83619 0.0
C1691 C 0.35674 0.74445 0.8521 0.0
C1692 C 0.36215 0.72946 0.82865 0.0
C1693 C 0.34526 0.75302 0.81076 0.0
C1694 C 0.3565 0.71484 0.83199 0.0
C1695 C 0.36201 0.70208 0.82413 0.0
C1696 C 0.37329 0.70374 0.81283 0.0
C1697 C 0.37929 0.71836 0.80991 0.0
C1698 C 0.37379 0.73109 0.81779 0.0
H1699 H 0.33601 0.76064 0.80662 0.0
H1700 H 0.35599 0.75632 0.80488 0.0
H1701 H 0.34248 0.7411 0.80745 0.0
H1702 H 0.34755 0.71336 0.84039 0.0
H1703 H 0.35719 0.69099 0.82669 0.0
H1704 H 0.68905 0.8303 0.35515 0.0
H1705 H 0.71151 0.8434 0.34489 0.0
H1706 H 0.7397 0.82234 0.37932 0.0
H1707 H 0.71741 0.80904 0.38952 0.0
H1708 H 0.73336 0.86336 0.35825 0.0
H1709 H 0.75923 0.80874 0.3388 0.0
H1710 H 0.73955 0.81018 0.34471 0.0
H1711 H 0.7545 0.80952 0.35874 0.0
C1712 C 0.69999 0.82856 0.36063 0.0
C1713 C 0.70147 0.81848 0.37303 0.0
C1714 C 0.71281 0.83607 0.35477 0.0
C1715 C 0.72728 0.83361 0.36119 0.0
C1716 C 0.72867 0.82415 0.37402 0.0
H1717 H 0.80999 0.88375 0.33454 0.0
H1718 H 0.78933 0.87239 0.34964 0.0
C1719 C 0.71589 0.81661 0.37986 0.0
C1720 C 0.741 0.84039 0.35401 0.0
H1721 H 0.77375 0.8311 0.33503 0.0
C1722 C 0.74225 0.85634 0.35323 0.0
C1723 C 0.75246 0.83115 0.34736 0.0
C1724 C 0.75138 0.81395 0.34729 0.0
C1725 C 0.75468 0.86332 0.34588 0.0
C1726 C 0.76618 0.85407 0.33932 0.0
C1727 C 0.76497 0.83813 0.34021 0.0
C1728 C 0.77901 0.86065 0.33051 0.0
C1729 C 0.75516 0.8805 0.34475 0.0
C1730 C 0.78025 0.85746 0.31488 0.0
C1731 C 0.79204 0.86383 0.30627 0.0
C1732 C 0.80287 0.87349 0.31314 0.0
C1733 C 0.80181 0.8764 0.3289 0.0
C1734 C 0.78996 0.87001 0.33752 0.0
H1735 H 0.74402 0.88578 0.34774 0.0
H1736 H 0.76392 0.88497 0.35273 0.0
H1737 H 0.75836 0.88412 0.33302 0.0
H1738 H 0.77194 0.85021 0.30928 0.0
H1739 H 0.79252 0.86131 0.29417 0.0
H1740 H 0.71425 0.20979 0.84842 0.0
H1741 H 0.69838 0.23093 0.8396 0.0
H1742 H 0.66371 0.21881 0.87241 0.0
H1743 H 0.67967 0.19777 0.88156 0.0
H1744 H 0.66991 0.2306 0.82716 0.0
H1745 H 0.67005 0.26406 0.881 0.0
H1746 H 0.68291 0.2483 0.87771 0.0
H1747 H 0.66341 0.24477 0.88307 0.0
C1748 C 0.70325 0.21159 0.85378 0.0
C1749 C 0.69825 0.20213 0.86574 0.0
C1750 C 0.6942 0.2237 0.84873 0.0
C1751 C 0.67998 0.2266 0.85552 0.0
C1752 C 0.6748 0.21699 0.86725 0.0
H1753 H 0.61217 0.28545 0.81278 0.0
H1754 H 0.62519 0.26405 0.82503 0.0
C1755 C 0.68388 0.2049 0.87237 0.0
C1756 C 0.67055 0.23952 0.85005 0.0
H1757 H 0.65408 0.27311 0.8611 0.0
C1758 C 0.66642 0.23989 0.83458 0.0
C1759 C 0.6662 0.25171 0.85973 0.0
C1760 C 0.67097 0.25233 0.87627 0.0
C1761 C 0.65806 0.2521 0.82849 0.0
C1762 C 0.65338 0.26411 0.83824 0.0
C1763 C 0.65754 0.26379 0.85371 0.0
C1764 C 0.64466 0.27736 0.83239 0.0
C1765 C 0.65471 0.25223 0.81158 0.0
C1766 C 0.65091 0.2921 0.83318 0.0
C1767 C 0.64339 0.30442 0.82636 0.0
C1768 C 0.62952 0.30217 0.8186 0.0
C1769 C 0.62293 0.28752 0.81851 0.0
C1770 C 0.63039 0.27526 0.82543 0.0
H1771 H 0.66238 0.24438 0.8052 0.0
H1772 H 0.64278 0.24841 0.80966 0.0
H1773 H 0.65597 0.26389 0.80678 0.0
H1774 H 0.66187 0.29397 0.8386 0.0
H1775 H 0.64875 0.31556 0.82666 0.0
H1776 H 0.3087 0.81507 0.65531 0.0
H1777 H 0.28665 0.82946 0.6646 0.0
H1778 H 0.26917 0.83266 0.6187 0.0
H1779 H 0.29108 0.81813 0.60928 0.0
H1780 H 0.2753 0.85881 0.65651 0.0
H1781 H 0.23412 0.81242 0.6427 0.0
H1782 H 0.2545 0.80935 0.6431 0.0
H1783 H 0.24583 0.81888 0.62715 0.0
C1784 C 0.30024 0.81893 0.64716 0.0
C1785 C 0.30158 0.81533 0.63158 0.0
C1786 C 0.28765 0.82715 0.65249 0.0
C1787 C 0.27618 0.83186 0.64236 0.0
C1788 C 0.27777 0.82884 0.62673 0.0
H1789 H 0.18789 0.87417 0.66419 0.0
H1790 H 0.20983 0.86393 0.65005 0.0
C1791 C 0.29034 0.82061 0.62137 0.0
C1792 C 0.26237 0.83958 0.6483 0.0
H1793 H 0.224 0.83489 0.65347 0.0
C1794 C 0.26407 0.85363 0.65578 0.0
C1795 C 0.24774 0.8328 0.64725 0.0
C1796 C 0.24536 0.81748 0.63973 0.0
C1797 C 0.25151 0.86103 0.66243 0.0
C1798 C 0.23697 0.85403 0.66178 0.0
C1799 C 0.23518 0.84021 0.65391 0.0
C1800 C 0.22372 0.86032 0.67016 0.0
C1801 C 0.25393 0.87624 0.67015 0.0
C1802 C 0.2242 0.86135 0.68611 0.0
C1803 C 0.21175 0.86711 0.69418 0.0
C1804 C 0.1985 0.87189 0.68646 0.0
C1805 C 0.19794 0.87062 0.67046 0.0
C1806 C 0.21045 0.8648 0.66237 0.0
H1807 H 0.26437 0.88203 0.66586 0.0
H1808 H 0.24398 0.8839 0.66836 0.0
H1809 H 0.25533 0.87441 0.6826 0.0
H1810 H 0.23422 0.85762 0.69235 0.0
H1811 H 0.21257 0.86786 0.7065 0.0
H1812 H 0.6774 0.78871 0.11283 0.0
H1813 H 0.66279 0.76711 0.12295 0.0
H1814 H 0.68085 0.77585 0.16789 0.0
H1815 H 0.6955 0.79743 0.15793 0.0
H1816 H 0.67605 0.74093 0.13904 0.0
H1817 H 0.63352 0.77281 0.17363 0.0
H1818 H 0.64417 0.78153 0.15827 0.0
H1819 H 0.65305 0.77844 0.1765 0.0
C1820 C 0.67814 0.78614 0.1249 0.0
C1821 C 0.68758 0.7948 0.1346 0.0
C1822 C 0.66983 0.77378 0.13063 0.0
C1823 C 0.67066 0.77001 0.14616 0.0
C1824 C 0.67991 0.77873 0.1559 0.0
H1825 H 0.63785 0.70314 0.2088 0.0
H1826 H 0.64964 0.72435 0.19519 0.0
C1827 C 0.68831 0.79101 0.15018 0.0
C1828 C 0.6624 0.75659 0.15216 0.0
H1829 H 0.63513 0.74606 0.17786 0.0
C1830 C 0.66698 0.742 0.1474 0.0
C1831 C 0.6506 0.75811 0.16304 0.0
C1832 C 0.64491 0.77356 0.1681 0.0
C1833 C 0.6605 0.72879 0.15378 0.0
C1834 C 0.64891 0.73031 0.16494 0.0
C1835 C 0.64405 0.74493 0.16934 0.0
C1836 C 0.64221 0.71694 0.17283 0.0
C1837 C 0.66653 0.71338 0.14898 0.0
C1838 C 0.63416 0.70567 0.16475 0.0
C1839 C 0.62747 0.69341 0.17251 0.0
C1840 C 0.62858 0.69234 0.18849 0.0
C1841 C 0.63674 0.70362 0.1965 0.0
C1842 C 0.64348 0.71577 0.18874 0.0
H1843 H 0.67771 0.71431 0.14306 0.0
H1844 H 0.66787 0.70574 0.15901 0.0
H1845 H 0.65831 0.70799 0.141 0.0
H1846 H 0.63281 0.70651 0.15249 0.0
H1847 H 0.62117 0.68496 0.16604 0.0
H1848 H 0.79776 0.11481 0.68134 0.0
H1849 H 0.7762 0.12318 0.66568 0.0
H1850 H 0.77473 0.16579 0.69032 0.0
H1851 H 0.79605 0.15742 0.70623 0.0
H1852 H 0.74661 0.15247 0.68767 0.0
H1853 H 0.77558 0.15439 0.6313 0.0
H1854 H 0.77702 0.13639 0.641 0.0
H1855 H 0.78597 0.15301 0.64904 0.0
C1856 C 0.79295 0.12603 0.68333 0.0
C1857 C 0.79864 0.13548 0.69501 0.0
C1858 C 0.78066 0.13081 0.67432 0.0
C1859 C 0.77399 0.14518 0.67672 0.0
C1860 C 0.77975 0.15467 0.68827 0.0
H1861 H 0.71448 0.19959 0.62184 0.0
H1862 H 0.73562 0.18698 0.63481 0.0
C1863 C 0.79195 0.14988 0.69733 0.0
C1864 C 0.76063 0.15018 0.66762 0.0
H1865 H 0.7489 0.1587 0.63144 0.0
C1866 C 0.74708 0.1538 0.67537 0.0
C1867 C 0.76134 0.15197 0.65158 0.0
C1868 C 0.77579 0.14887 0.64272 0.0
C1869 C 0.73425 0.15937 0.66756 0.0
C1870 C 0.7349 0.16104 0.65151 0.0
C1871 C 0.7484 0.15724 0.64373 0.0
C1872 C 0.72214 0.16787 0.64277 0.0
C1873 C 0.72034 0.16396 0.67665 0.0
C1874 C 0.70759 0.16111 0.64263 0.0
C1875 C 0.6954 0.16837 0.63528 0.0
C1876 C 0.6976 0.18243 0.62785 0.0
C1877 C 0.71234 0.18881 0.62751 0.0
C1878 C 0.72447 0.1816 0.63489 0.0
H1879 H 0.72294 0.1652 0.689 0.0
H1880 H 0.71558 0.17492 0.67241 0.0
H1881 H 0.71141 0.15506 0.67541 0.0
H1882 H 0.70563 0.15035 0.64838 0.0
H1883 H 0.68421 0.1631 0.63565 0.0
H1884 H 0.31874 0.21094 0.107 0.0
H1885 H 0.33528 0.23197 0.11492 0.0
H1886 H 0.33607 0.21417 0.16081 0.0
H1887 H 0.31969 0.19298 0.15298 0.0
H1888 H 0.32781 0.25346 0.13642 0.0
H1889 H 0.38101 0.22354 0.15297 0.0
H1890 H 0.36635 0.21462 0.14153 0.0
H1891 H 0.36434 0.21569 0.16194 0.0
C1892 C 0.32262 0.21135 0.11873 0.0
C1893 C 0.31787 0.20029 0.12937 0.0
C1894 C 0.33207 0.22338 0.12323 0.0
C1895 C 0.33702 0.22454 0.1384 0.0
C1896 C 0.33263 0.21332 0.14897 0.0
H1897 H 0.35985 0.30089 0.19368 0.0
H1898 H 0.34778 0.28066 0.17885 0.0
C1899 C 0.32319 0.20126 0.14448 0.0
C1900 C 0.3457 0.23813 0.1435 0.0
H1901 H 0.37799 0.24913 0.16232 0.0
C1902 C 0.33888 0.25254 0.1419 0.0
C1903 C 0.36023 0.23694 0.15045 0.0
C1904 C 0.36849 0.22188 0.1517 0.0
C1905 C 0.34588 0.26572 0.14769 0.0
C1906 C 0.35996 0.26439 0.15548 0.0
C1907 C 0.36713 0.25009 0.15646 0.0
C1908 C 0.36694 0.27749 0.16357 0.0
C1909 C 0.33808 0.28093 0.14556 0.0
C1910 C 0.38177 0.28236 0.15995 0.0
C1911 C 0.38876 0.29393 0.16846 0.0
C1912 C 0.38107 0.30069 0.18084 0.0
C1913 C 0.36608 0.29598 0.1842 0.0
C1914 C 0.35912 0.28446 0.17568 0.0
H1915 H 0.33019 0.28074 0.13563 0.0
H1916 H 0.33125 0.28359 0.15589 0.0
H1917 H 0.34654 0.29023 0.14388 0.0
H1918 H 0.38802 0.27704 0.15069 0.0
H1919 H 0.40032 0.29726 0.16561 0.0
H1920 H 0.79208 0.65327 0.70585 0.0
H1921 H 0.80872 0.66047 0.72702 0.0
H1922 H 0.83355 0.61824 0.72211 0.0
H1923 H 0.81705 0.61098 0.70073 0.0
H1924 H 0.81222 0.64397 0.75436 0.0
H1925 H 0.86754 0.6507 0.72375 0.0
H1926 H 0.84944 0.65027 0.71389 0.0
H1927 H 0.85772 0.63289 0.72094 0.0
C1928 C 0.80117 0.64556 0.70914 0.0
C1929 C 0.80325 0.63156 0.70159 0.0
C1930 C 0.81065 0.64969 0.72126 0.0
C1931 C 0.82242 0.63994 0.72605 0.0
C1932 C 0.82469 0.62604 0.71843 0.0
H1933 H 0.88652 0.65721 0.80171 0.0
H1934 H 0.87229 0.64384 0.78157 0.0
C1935 C 0.81521 0.62189 0.70626 0.0
C1936 C 0.83179 0.64417 0.73946 0.0
H1937 H 0.86772 0.6547 0.75037 0.0
C1938 C 0.82438 0.64622 0.75351 0.0
C1939 C 0.84766 0.64694 0.73833 0.0
C1940 C 0.8561 0.64521 0.72342 0.0
C1941 C 0.83234 0.65136 0.76641 0.0
C1942 C 0.84807 0.65472 0.76514 0.0
C1943 C 0.85564 0.65209 0.75127 0.0
C1944 C 0.85645 0.66237 0.77763 0.0
C1945 C 0.82381 0.65337 0.78124 0.0
C1946 C 0.85229 0.6772 0.78194 0.0
C1947 C 0.86036 0.68485 0.79331 0.0
C1948 C 0.87281 0.67782 0.80062 0.0
C1949 C 0.87694 0.66289 0.79635 0.0
C1950 C 0.86886 0.65526 0.78485 0.0
H1951 H 0.81324 0.64636 0.78153 0.0
H1952 H 0.83109 0.65023 0.79113 0.0
H1953 H 0.82047 0.66553 0.7825 0.0
H1954 H 0.84289 0.68297 0.77632 0.0
H1955 H 0.85689 0.69634 0.79628 0.0
H1956 H 0.88588 0.3119 0.20302 0.0
H1957 H 0.8762 0.32647 0.22489 0.0
H1958 H 0.83171 0.3063 0.21876 0.0
H1959 H 0.84121 0.29173 0.19695 0.0
H1960 H 0.83245 0.33944 0.22381 0.0
H1961 H 0.865 0.30572 0.26681 0.0
H1962 H 0.87555 0.31346 0.25096 0.0
H1963 H 0.8616 0.29882 0.24768 0.0
C1964 C 0.87401 0.31066 0.20626 0.0
C1965 C 0.86432 0.3006 0.19831 0.0
C1966 C 0.86853 0.31893 0.21878 0.0
C1967 C 0.85331 0.31731 0.22349 0.0
C1968 C 0.84352 0.30765 0.2153 0.0
H1969 H 0.80126 0.3342 0.30388 0.0
H1970 H 0.81573 0.32396 0.28231 0.0
C1971 C 0.84898 0.29932 0.20286 0.0
C1972 C 0.84752 0.32536 0.23715 0.0
H1973 H 0.84895 0.32518 0.2761 0.0
C1974 C 0.83616 0.33648 0.23525 0.0
C1975 C 0.85232 0.3213 0.25201 0.0
C1976 C 0.86422 0.30911 0.25461 0.0
C1977 C 0.82929 0.34353 0.24788 0.0
C1978 C 0.83398 0.33936 0.26275 0.0
C1979 C 0.84549 0.3284 0.26465 0.0
C1980 C 0.82627 0.3455 0.27645 0.0
C1981 C 0.81667 0.35498 0.24529 0.0
C1982 C 0.82772 0.36093 0.28046 0.0
C1983 C 0.81952 0.36682 0.29283 0.0
C1984 C 0.8097 0.35736 0.30133 0.0
C1985 C 0.80867 0.3418 0.29753 0.0
C1986 C 0.81694 0.33592 0.28524 0.0
H1987 H 0.81283 0.35521 0.23321 0.0
H1988 H 0.80671 0.35234 0.25269 0.0
H1989 H 0.82082 0.36655 0.24837 0.0
H1990 H 0.835 0.36845 0.27387 0.0
H1991 H 0.82057 0.37886 0.29546 0.0
H1992 H 0.12369 0.29651 0.78356 0.0
H1993 H 0.13413 0.31149 0.7625 0.0
H1994 H 0.1342 0.35169 0.79089 0.0
H1995 H 0.12366 0.33678 0.81214 0.0
H1996 H 0.12102 0.34059 0.74933 0.0
H1997 H 0.17944 0.34553 0.77413 0.0
H1998 H 0.16626 0.33079 0.77999 0.0
H1999 H 0.1634 0.35009 0.78616 0.0
C2000 C 0.12591 0.30853 0.78537 0.0
C2001 C 0.12293 0.31544 0.79957 0.0
C2002 C 0.13182 0.31708 0.7733 0.0
C2003 C 0.13497 0.33263 0.77521 0.0
C2004 C 0.1319 0.33965 0.78928 0.0
H2005 H 0.18583 0.3914 0.71316 0.0
H2006 H 0.17063 0.38224 0.73468 0.0
C2007 C 0.12588 0.33112 0.80137 0.0
C2008 C 0.14177 0.34133 0.76247 0.0
H2009 H 0.17544 0.35633 0.74995 0.0
C2010 C 0.13288 0.34417 0.74946 0.0
C2011 C 0.1572 0.34599 0.76278 0.0
C2012 C 0.16724 0.34293 0.77645 0.0
C2013 C 0.1391 0.35147 0.73662 0.0
C2014 C 0.15471 0.35565 0.7367 0.0
C2015 C 0.16347 0.35312 0.74989 0.0
C2016 C 0.16245 0.36203 0.72306 0.0
C2017 C 0.12885 0.35471 0.72315 0.0
C2018 C 0.16278 0.35379 0.7093 0.0
C2019 C 0.17136 0.35907 0.69692 0.0
C2020 C 0.17997 0.37255 0.69817 0.0
C2021 C 0.17935 0.38095 0.71184 0.0
C2022 C 0.17067 0.37573 0.72416 0.0
H2023 H 0.11669 0.35554 0.72669 0.0
H2024 H 0.13214 0.36548 0.71733 0.0
H2025 H 0.1298 0.34521 0.71483 0.0
H2026 H 0.15686 0.34299 0.7083 0.0
H2027 H 0.1717 0.35228 0.68659 0.0
H2028 H 0.21008 0.648 0.28523 0.0
H2029 H 0.19244 0.65436 0.2646 0.0
H2030 H 0.16058 0.62069 0.28116 0.0
H2031 H 0.17815 0.61425 0.30196 0.0
H2032 H 0.18037 0.63344 0.24184 0.0
H2033 H 0.13521 0.66083 0.27731 0.0
H2034 H 0.15443 0.65802 0.28422 0.0
H2035 H 0.14156 0.64214 0.28299 0.0
C2036 C 0.19929 0.64198 0.28457 0.0
C2037 C 0.19549 0.63065 0.29528 0.0
C2038 C 0.18926 0.64561 0.27274 0.0
C2039 C 0.1752 0.63806 0.27145 0.0
C2040 C 0.17132 0.62676 0.28209 0.0
H2041 H 0.10251 0.66096 0.2063 0.0
H2042 H 0.11719 0.64715 0.22572 0.0
C2043 C 0.18138 0.62308 0.29394 0.0
C2044 C 0.16476 0.64203 0.25878 0.0
H2045 H 0.13126 0.66023 0.25078 0.0
C2046 C 0.16957 0.63918 0.24377 0.0
C2047 C 0.15063 0.64937 0.26139 0.0
C2048 C 0.14511 0.65289 0.27732 0.0
C2049 C 0.16076 0.64383 0.23124 0.0
C2050 C 0.14696 0.65181 0.23382 0.0
C2051 C 0.14185 0.65411 0.24884 0.0
C2052 C 0.13836 0.65907 0.22121 0.0
C2053 C 0.16638 0.64026 0.21535 0.0
C2054 C 0.14541 0.6703 0.21224 0.0
C2055 C 0.13711 0.67817 0.20117 0.0
C2056 C 0.12151 0.67506 0.19892 0.0
C2057 C 0.11452 0.66359 0.20771 0.0
C2058 C 0.12286 0.65571 0.21883 0.0
H2059 H 0.17396 0.63009 0.21531 0.0
H2060 H 0.15672 0.63817 0.20741 0.0
H2061 H 0.17308 0.65009 0.211 0.0
H2062 H 0.15725 0.67333 0.21413 0.0
H2063 H 0.14285 0.68697 0.19466 0.0
H2064 H 0.80966 0.85725 0.6701 0.0
H2065 H 0.78695 0.848 0.65667 0.0
H2066 H 0.75943 0.88173 0.67968 0.0
H2067 H 0.78194 0.8909 0.69329 0.0
H2068 H 0.74761 0.85287 0.68189 0.0
H2069 H 0.76205 0.86628 0.62171 0.0
H2070 H 0.77656 0.85558 0.63147 0.0
H2071 H 0.7721 0.87463 0.63767 0.0
C2072 C 0.79881 0.86284 0.67214 0.0
C2073 C 0.7976 0.87478 0.6828 0.0
C2074 C 0.78586 0.85759 0.66439 0.0
C2075 C 0.77154 0.86429 0.66706 0.0
C2076 C 0.77038 0.87644 0.67742 0.0
H2077 H 0.68784 0.84185 0.61714 0.0
H2078 H 0.70904 0.85575 0.62904 0.0
C2079 C 0.78328 0.88165 0.6852 0.0
C2080 C 0.75757 0.85793 0.65997 0.0
H2081 H 0.74095 0.84944 0.62575 0.0
C2082 C 0.7461 0.85224 0.66961 0.0
C2083 C 0.75555 0.85728 0.64396 0.0
C2084 C 0.76715 0.8639 0.63308 0.0
C2085 C 0.73285 0.84551 0.66368 0.0
C2086 C 0.73114 0.84424 0.64769 0.0
C2087 C 0.74237 0.85034 0.63802 0.0
C2088 C 0.71809 0.83602 0.64081 0.0
C2089 C 0.72078 0.8398 0.67457 0.0
C2090 C 0.71624 0.82035 0.64348 0.0
C2091 C 0.7042 0.8124 0.63673 0.0
C2092 C 0.69378 0.81997 0.62713 0.0
C2093 C 0.69562 0.83571 0.62454 0.0
C2094 C 0.70773 0.84366 0.63127 0.0
H2095 H 0.72181 0.84525 0.68598 0.0
H2096 H 0.70915 0.84199 0.67004 0.0
H2097 H 0.72214 0.82729 0.67609 0.0
H2098 H 0.72427 0.81421 0.65061 0.0
H2099 H 0.70318 0.80028 0.63892 0.0
H2100 H 0.63926 0.31771 0.16306 0.0
H2101 H 0.65071 0.29617 0.14934 0.0
H2102 H 0.63593 0.26558 0.18498 0.0
H2103 H 0.62425 0.28684 0.19855 0.0
H2104 H 0.67362 0.27802 0.15931 0.0
H2105 H 0.6228 0.24255 0.14724 0.0
H2106 H 0.62139 0.26225 0.15313 0.0
H2107 H 0.62413 0.24741 0.16709 0.0
C2108 C 0.63827 0.30636 0.16786 0.0
C2109 C 0.63083 0.304 0.18189 0.0
C2110 C 0.64481 0.29408 0.16001 0.0
C2111 C 0.64396 0.27923 0.16602 0.0
C2112 C 0.6364 0.27685 0.17993 0.0
H2113 H 0.70591 0.20435 0.15545 0.0
H2114 H 0.69092 0.22648 0.16342 0.0
C2115 C 0.62983 0.28908 0.18774 0.0
C2116 C 0.65196 0.26638 0.15846 0.0
H2117 H 0.64711 0.2297 0.1462 0.0
C2118 C 0.66779 0.26753 0.15624 0.0
C2119 C 0.64432 0.25278 0.15426 0.0
C2120 C 0.6272 0.25122 0.1554 0.0
C2121 C 0.67629 0.25519 0.15059 0.0
C2122 C 0.66879 0.24124 0.14739 0.0
C2123 C 0.65287 0.24032 0.14892 0.0
C2124 C 0.67736 0.22741 0.14278 0.0
C2125 C 0.69322 0.25723 0.14812 0.0
C2126 C 0.67425 0.2202 0.12882 0.0
C2127 C 0.68268 0.20742 0.1243 0.0
C2128 C 0.69435 0.20162 0.13371 0.0
C2129 C 0.6971 0.20861 0.14789 0.0
C2130 C 0.68862 0.22132 0.15241 0.0
H2131 H 0.69627 0.26945 0.14663 0.0
H2132 H 0.69946 0.2529 0.15827 0.0
H2133 H 0.6972 0.25079 0.13795 0.0
H2134 H 0.66551 0.22465 0.12128 0.0
H2135 H 0.68027 0.20229 0.11331 0.0
H2136 H 0.30487 0.19618 0.66359 0.0
H2137 H 0.28317 0.18143 0.67313 0.0
H2138 H 0.27581 0.16284 0.62815 0.0
H2139 H 0.29751 0.17755 0.61846 0.0
H2140 H 0.2495 0.17652 0.6423 0.0
H2141 H 0.27838 0.1347 0.68018 0.0
H2142 H 0.28416 0.15419 0.68296 0.0
H2143 H 0.28828 0.14483 0.66518 0.0
C2144 C 0.29878 0.18879 0.65576 0.0
C2145 C 0.30291 0.18804 0.64027 0.0
C2146 C 0.28643 0.18032 0.66125 0.0
C2147 C 0.278 0.17098 0.65136 0.0
C2148 C 0.28225 0.16995 0.63596 0.0
H2149 H 0.2037 0.11184 0.68241 0.0
H2150 H 0.22594 0.12172 0.6686 0.0
C2151 C 0.29467 0.17833 0.63047 0.0
C2152 C 0.26409 0.16317 0.6569 0.0
H2153 H 0.2514 0.13726 0.68308 0.0
C2154 C 0.2499 0.16782 0.65109 0.0
C2155 C 0.2647 0.15174 0.66827 0.0
C2156 C 0.2797 0.14594 0.67445 0.0
C2157 C 0.23622 0.16173 0.6568 0.0
C2158 C 0.23681 0.15081 0.66865 0.0
C2159 C 0.25102 0.14572 0.67405 0.0
C2160 C 0.22281 0.14503 0.6761 0.0
C2161 C 0.22124 0.16711 0.65022 0.0
C2162 C 0.21372 0.15491 0.68483 0.0
C2163 C 0.20108 0.14932 0.69278 0.0
C2164 C 0.1973 0.13373 0.69211 0.0
C2165 C 0.20626 0.12392 0.68309 0.0
C2166 C 0.21898 0.12951 0.67523 0.0
H2167 H 0.22279 0.17258 0.63888 0.0
H2168 H 0.2131 0.15746 0.64904 0.0
H2169 H 0.21609 0.17565 0.65804 0.0
H2170 H 0.21664 0.16689 0.6858 0.0
H2171 H 0.19444 0.15716 0.69965 0.0
H2172 H 0.30396 0.7826 0.11561 0.0
H2173 H 0.31688 0.7605 0.12663 0.0
H2174 H 0.34248 0.79014 0.15645 0.0
H2175 H 0.32952 0.81241 0.14556 0.0
H2176 H 0.34888 0.75326 0.12928 0.0
H2177 H 0.31976 0.76003 0.18534 0.0
H2178 H 0.31332 0.76965 0.1683 0.0
H2179 H 0.32977 0.77655 0.17839 0.0
C2180 C 0.3124 0.78446 0.12445 0.0
C2181 C 0.31561 0.79926 0.12981 0.0
C2182 C 0.3198 0.77181 0.13069 0.0
C2183 C 0.33047 0.7737 0.14246 0.0
C2184 C 0.33411 0.78847 0.1475 0.0
H2185 H 0.38847 0.70332 0.18231 0.0
H2186 H 0.37902 0.72566 0.16846 0.0
C2187 C 0.32674 0.80116 0.14123 0.0
C2188 C 0.33726 0.76011 0.14983 0.0
H2189 H 0.33765 0.74003 0.1832 0.0
C2190 C 0.34651 0.75037 0.14108 0.0
C2191 C 0.33393 0.75632 0.16516 0.0
C2192 C 0.32356 0.76608 0.17486 0.0
C2193 C 0.35257 0.7369 0.14732 0.0
C2194 C 0.34936 0.73321 0.16269 0.0
C2195 C 0.34011 0.74295 0.17142 0.0
C2196 C 0.35524 0.71915 0.16997 0.0
C2197 C 0.36206 0.72655 0.13734 0.0
C2198 C 0.34498 0.70811 0.1754 0.0
C2199 C 0.35032 0.69536 0.18334 0.0
C2200 C 0.36602 0.69348 0.1861 0.0
C2201 C 0.3763 0.7044 0.18034 0.0
C2202 C 0.37094 0.71715 0.17237 0.0
H2203 H 0.36069 0.72929 0.12503 0.0
H2204 H 0.37429 0.72792 0.14034 0.0
H2205 H 0.35892 0.71441 0.1392 0.0
H2206 H 0.3328 0.70949 0.17368 0.0
H2207 H 0.34209 0.68718 0.18762 0.0
H2208 H 0.69222 0.20287 0.33825 0.0
H2209 H 0.71393 0.18844 0.32826 0.0
H2210 H 0.7221 0.16948 0.37294 0.0
H2211 H 0.70036 0.18387 0.38308 0.0
H2212 H 0.74827 0.18335 0.35808 0.0
H2213 H 0.71817 0.14149 0.32114 0.0
H2214 H 0.71236 0.16101 0.31863 0.0
H2215 H 0.70877 0.15158 0.33649 0.0
C2216 C 0.69851 0.1955 0.34593 0.0
C2217 C 0.69456 0.1945 0.36145 0.0
C2218 C 0.71087 0.18722 0.34018 0.0
C2219 C 0.7195 0.17782 0.34985 0.0
C2220 C 0.7155 0.17663 0.36531 0.0
H2221 H 0.79238 0.11756 0.31802 0.0
H2222 H 0.77052 0.12801 0.33198 0.0
C2223 C 0.70306 0.18482 0.37105 0.0
C2224 C 0.73323 0.16996 0.34396 0.0
H2225 H 0.74507 0.14369 0.31775 0.0
C2226 C 0.74759 0.17457 0.34937 0.0
C2227 C 0.73225 0.15844 0.33271 0.0
C2228 C 0.71706 0.1527 0.32696 0.0
C2229 C 0.76108 0.16831 0.34339 0.0
C2230 C 0.76011 0.15726 0.33168 0.0
C2231 C 0.74574 0.15225 0.32667 0.0
C2232 C 0.77388 0.15115 0.32406 0.0
C2233 C 0.77626 0.17362 0.34956 0.0
C2234 C 0.78298 0.16074 0.31503 0.0
C2235 C 0.79541 0.15482 0.30698 0.0
C2236 C 0.79897 0.13919 0.30785 0.0
C2237 C 0.78999 0.12967 0.31716 0.0
C2238 C 0.77748 0.13559 0.32512 0.0
H2239 H 0.77502 0.1793 0.36084 0.0
H2240 H 0.7843 0.16389 0.35073 0.0
H2241 H 0.78135 0.18196 0.34149 0.0
H2242 H 0.78024 0.17275 0.31391 0.0
H2243 H 0.80208 0.16245 0.2999 0.0
H2244 H 0.32099 0.20187 0.88044 0.0
H2245 H 0.33544 0.22436 0.87223 0.0
H2246 H 0.31051 0.22494 0.82978 0.0
H2247 H 0.29586 0.20266 0.83795 0.0
H2248 H 0.35392 0.2296 0.84678 0.0
H2249 H 0.30352 0.26788 0.84658 0.0
H2250 H 0.30328 0.2493 0.85548 0.0
H2251 H 0.30089 0.25107 0.83516 0.0
C2252 C 0.31865 0.20672 0.86931 0.0
C2253 C 0.30718 0.20057 0.8599 0.0
C2254 C 0.3269 0.21958 0.86466 0.0
C2255 C 0.32379 0.22649 0.85056 0.0
C2256 C 0.31281 0.21999 0.84088 0.0
H2257 H 0.35717 0.29804 0.79398 0.0
H2258 H 0.34431 0.27661 0.80628 0.0
C2259 C 0.30452 0.2072 0.84553 0.0
C2260 C 0.33193 0.24057 0.84592 0.0
H2261 H 0.326 0.27731 0.83435 0.0
C2262 C 0.34787 0.2401 0.84424 0.0
C2263 C 0.32399 0.25427 0.84274 0.0
C2264 C 0.30699 0.25575 0.84522 0.0
C2265 C 0.35599 0.2528 0.83877 0.0
C2266 C 0.34795 0.26629 0.83506 0.0
C2267 C 0.33209 0.2669 0.83717 0.0
C2268 C 0.35563 0.27956 0.82802 0.0
C2269 C 0.37301 0.25155 0.83643 0.0
C2270 C 0.36607 0.28845 0.83629 0.0
C2271 C 0.37343 0.30081 0.82931 0.0
C2272 C 0.37045 0.3044 0.81394 0.0
C2273 C 0.35977 0.29557 0.80582 0.0
C2274 C 0.35239 0.28332 0.81281 0.0
H2275 H 0.37716 0.23963 0.83773 0.0
H2276 H 0.37621 0.25575 0.82491 0.0
H2277 H 0.37896 0.25878 0.84497 0.0
H2278 H 0.36856 0.28581 0.84811 0.0
H2279 H 0.38159 0.30739 0.83587 0.0
H2280 H 0.29523 0.82058 0.3843 0.0
H2281 H 0.27248 0.83516 0.37711 0.0
H2282 H 0.27293 0.81402 0.33264 0.0
H2283 H 0.29544 0.7992 0.33981 0.0
H2284 H 0.26686 0.85568 0.35397 0.0
H2285 H 0.23001 0.80469 0.34779 0.0
H2286 H 0.24853 0.80395 0.35681 0.0
H2287 H 0.24695 0.80354 0.33633 0.0
C2288 C 0.29053 0.8191 0.37296 0.0
C2289 C 0.29705 0.80862 0.36266 0.0
C2290 C 0.27753 0.82742 0.36889 0.0
C2291 C 0.27083 0.8254 0.35448 0.0
C2292 C 0.27769 0.81544 0.34397 0.0
H2293 H 0.20989 0.87984 0.30201 0.0
H2294 H 0.23145 0.86872 0.31557 0.0
C2295 C 0.29062 0.80706 0.34805 0.0
C2296 C 0.25662 0.83361 0.35038 0.0
H2297 H 0.22047 0.82792 0.33704 0.0
C2298 C 0.25665 0.84963 0.35042 0.0
C2299 C 0.24319 0.8257 0.34612 0.0
C2300 C 0.24207 0.80852 0.34691 0.0
C2301 C 0.24383 0.85795 0.34558 0.0
C2302 C 0.23079 0.85001 0.34028 0.0
C2303 C 0.23052 0.83401 0.34095 0.0
C2304 C 0.2177 0.85794 0.33305 0.0
C2305 C 0.24442 0.87516 0.34615 0.0
C2306 C 0.20273 0.85542 0.33823 0.0
C2307 C 0.19029 0.86163 0.33035 0.0
C2308 C 0.19262 0.8704 0.31712 0.0
C2309 C 0.20766 0.8732 0.3122 0.0
C2310 C 0.22004 0.86695 0.32002 0.0
H2311 H 0.2525 0.87919 0.35506 0.0
H2312 H 0.24849 0.87955 0.33499 0.0
H2313 H 0.23298 0.88011 0.34849 0.0
H2314 H 0.20066 0.84841 0.3482 0.0
H2315 H 0.17885 0.85925 0.33443 0.0
H2316 H 0.63068 0.71071 0.79557 0.0
H2317 H 0.64396 0.73107 0.80909 0.0
H2318 H 0.63889 0.70652 0.85146 0.0
H2319 H 0.62563 0.68587 0.83795 0.0
H2320 H 0.63314 0.74906 0.83368 0.0
H2321 H 0.68519 0.71583 0.84878 0.0
H2322 H 0.67179 0.70945 0.83449 0.0
H2323 H 0.66718 0.7077 0.85438 0.0
C2324 C 0.63241 0.70955 0.80776 0.0
C2325 C 0.62715 0.6966 0.81567 0.0
C2326 C 0.63996 0.72125 0.81547 0.0
C2327 C 0.6425 0.72024 0.83123 0.0
C2328 C 0.63721 0.7074 0.83924 0.0
H2329 H 0.67719 0.79892 0.88318 0.0
H2330 H 0.6613 0.77746 0.87478 0.0
C2331 C 0.62961 0.69565 0.83152 0.0
C2332 C 0.6507 0.73274 0.83909 0.0
H2333 H 0.68442 0.74156 0.85653 0.0
C2334 C 0.64429 0.74742 0.83882 0.0
C2335 C 0.66528 0.73053 0.84565 0.0
C2336 C 0.67288 0.71507 0.8458 0.0
C2337 C 0.65222 0.76006 0.84466 0.0
C2338 C 0.66687 0.75788 0.85108 0.0
C2339 C 0.67315 0.74314 0.85165 0.0
C2340 C 0.67632 0.77087 0.85631 0.0
C2341 C 0.64515 0.77572 0.84336 0.0
C2342 C 0.69009 0.77413 0.84881 0.0
C2343 C 0.69918 0.78631 0.85357 0.0
C2344 C 0.69471 0.79545 0.86599 0.0
C2345 C 0.6809 0.79215 0.87351 0.0
C2346 C 0.6718 0.77993 0.86872 0.0
H2347 H 0.63519 0.77581 0.83551 0.0
H2348 H 0.6412 0.77949 0.85479 0.0
H2349 H 0.65368 0.78414 0.8392 0.0
H2350 H 0.69377 0.76725 0.8392 0.0
H2351 H 0.70976 0.7885 0.84755 0.0
H2352 H 0.08364 0.25282 0.22933 0.0
H2353 H 0.09061 0.23092 0.24529 0.0
H2354 H 0.11707 0.21226 0.20819 0.0
H2355 H 0.10991 0.23377 0.1921 0.0
H2356 H 0.10104 0.19022 0.22366 0.0
H2357 H 0.1331 0.22764 0.26382 0.0
H2358 H 0.11317 0.23191 0.26154 0.0
H2359 H 0.126 0.23445 0.24574 0.0
C2360 C 0.09079 0.24395 0.22452 0.0
C2361 C 0.09636 0.24513 0.2095 0.0
C2362 C 0.09482 0.2315 0.23368 0.0
C2363 C 0.1046 0.22013 0.22802 0.0
C2364 C 0.10955 0.22093 0.21281 0.0
H2365 H 0.17299 0.1633 0.26315 0.0
H2366 H 0.15614 0.18336 0.25386 0.0
C2367 C 0.10546 0.23328 0.20363 0.0
C2368 C 0.11052 0.20779 0.23797 0.0
H2369 H 0.1346 0.20125 0.26792 0.0
C2370 C 0.1082 0.19258 0.23349 0.0
C2371 C 0.11995 0.21097 0.25071 0.0
C2372 C 0.12335 0.22711 0.25573 0.0
C2373 C 0.11561 0.18049 0.24095 0.0
C2374 C 0.12533 0.1837 0.25345 0.0
C2375 C 0.12708 0.19885 0.25838 0.0
C2376 C 0.13525 0.17183 0.26031 0.0
C2377 C 0.11369 0.1645 0.2348 0.0
C2378 C 0.12912 0.15881 0.26736 0.0
C2379 C 0.13877 0.1472 0.27261 0.0
C2380 C 0.15471 0.14852 0.271 0.0
C2381 C 0.16078 0.16188 0.26452 0.0
C2382 C 0.15116 0.17339 0.25922 0.0
H2383 H 0.10812 0.1644 0.22341 0.0
H2384 H 0.12491 0.15868 0.23386 0.0
H2385 H 0.10645 0.1578 0.24276 0.0
H2386 H 0.11688 0.15753 0.26859 0.0
H2387 H 0.13375 0.13709 0.27767 0.0
H2388 H 0.33678 0.67402 0.76043 0.0
H2389 H 0.31632 0.65752 0.75143 0.0
H2390 H 0.34312 0.61777 0.76267 0.0
H2391 H 0.36393 0.63431 0.77153 0.0
H2392 H 0.33154 0.61632 0.73391 0.0
H2393 H 0.2854 0.63175 0.77396 0.0
H2394 H 0.29363 0.64849 0.76553 0.0
H2395 H 0.30517 0.63643 0.77756 0.0
C2396 C 0.3383 0.66177 0.7612 0.0
C2397 C 0.352 0.65549 0.7667 0.0
C2398 C 0.32651 0.65234 0.75615 0.0
C2399 C 0.32807 0.63641 0.75663 0.0
C2400 C 0.34164 0.63004 0.76233 0.0
H2401 H 0.24601 0.58836 0.72462 0.0
H2402 H 0.26835 0.59401 0.74048 0.0
C2403 C 0.35349 0.63951 0.76739 0.0
C2404 C 0.31597 0.62663 0.74995 0.0
H2405 H 0.27732 0.62182 0.7494 0.0
C2406 C 0.31971 0.61726 0.73749 0.0
C2407 C 0.30059 0.62758 0.7548 0.0
C2408 C 0.29599 0.63648 0.76881 0.0
C2409 C 0.30834 0.60974 0.72907 0.0
C2410 C 0.29283 0.61191 0.73304 0.0
C2411 C 0.2892 0.62034 0.74619 0.0
C2412 C 0.28017 0.60685 0.72299 0.0
C2413 C 0.31305 0.59981 0.71581 0.0
C2414 C 0.27944 0.6121 0.70788 0.0
C2415 C 0.26676 0.60886 0.69879 0.0
C2416 C 0.25443 0.60045 0.70469 0.0
C2417 C 0.25532 0.59486 0.71972 0.0
C2418 C 0.26807 0.59808 0.72881 0.0
H2419 H 0.32461 0.5949 0.71767 0.0
H2420 H 0.30484 0.59033 0.71396 0.0
H2421 H 0.31353 0.60685 0.7053 0.0
H2422 H 0.28842 0.61924 0.70326 0.0
H2423 H 0.26643 0.61341 0.6873 0.0
H2424 H 0.86633 0.84434 0.29258 0.0
H2425 H 0.88078 0.82319 0.2814 0.0
H2426 H 0.87573 0.84332 0.23675 0.0
H2427 H 0.86166 0.86458 0.2478 0.0
H2428 H 0.86879 0.80351 0.26139 0.0
H2429 H 0.91956 0.82993 0.23498 0.0
H2430 H 0.90802 0.83978 0.24895 0.0
H2431 H 0.90244 0.8395 0.22915 0.0
C2432 C 0.86862 0.84445 0.28043 0.0
C2433 C 0.86277 0.85611 0.27108 0.0
C2434 C 0.87688 0.83235 0.27406 0.0
C2435 C 0.87951 0.83175 0.25826 0.0
C2436 C 0.87421 0.84371 0.24901 0.0
H2437 H 0.89141 0.76817 0.18719 0.0
H2438 H 0.88901 0.79028 0.20403 0.0
C2439 C 0.86602 0.85581 0.25536 0.0
C2440 C 0.88596 0.81781 0.2511 0.0
H2441 H 0.91144 0.80571 0.22417 0.0
C2442 C 0.87835 0.80391 0.25353 0.0
C2443 C 0.89842 0.81835 0.24083 0.0
C2444 C 0.90767 0.83268 0.23845 0.0
C2445 C 0.88226 0.79076 0.24526 0.0
C2446 C 0.89418 0.79152 0.23441 0.0
C2447 C 0.90225 0.80521 0.23246 0.0
C2448 C 0.89743 0.77857 0.22408 0.0
C2449 C 0.87305 0.77637 0.24758 0.0
C2450 C 0.90333 0.7648 0.22972 0.0
C2451 C 0.90473 0.75212 0.22012 0.0
C2452 C 0.9002 0.75302 0.20474 0.0
C2453 C 0.89491 0.76705 0.199 0.0
C2454 C 0.89358 0.77972 0.20858 0.0
H2455 H 0.8628 0.77833 0.25479 0.0
H2456 H 0.86932 0.77166 0.23642 0.0
H2457 H 0.88028 0.76764 0.25325 0.0
H2458 H 0.90649 0.76377 0.24163 0.0
H2459 H 0.9089 0.7415 0.22488 0.0
H2460 H 0.66285 0.32775 0.77128 0.0
H2461 H 0.68317 0.34232 0.75906 0.0
H2462 H 0.6521 0.37983 0.75178 0.0
H2463 H 0.6317 0.3654 0.7644 0.0
H2464 H 0.68259 0.35147 0.72965 0.0
H2465 H 0.68996 0.40162 0.76776 0.0
H2466 H 0.67967 0.38472 0.77354 0.0
H2467 H 0.67077 0.3985 0.76123 0.0
C2468 C 0.66037 0.33919 0.76729 0.0
C2469 C 0.64566 0.34541 0.76875 0.0
C2470 C 0.67201 0.3475 0.76031 0.0
C2471 C 0.66919 0.36219 0.75457 0.0
C2472 C 0.65461 0.36864 0.75637 0.0
H2473 H 0.73111 0.39768 0.68476 0.0
H2474 H 0.70776 0.39111 0.69862 0.0
C2475 C 0.64295 0.36035 0.76352 0.0
C2476 C 0.68125 0.37005 0.74567 0.0
H2477 H 0.70405 0.40168 0.74464 0.0
C2478 C 0.68725 0.36247 0.7329 0.0
C2479 C 0.68734 0.38437 0.75 0.0
C2480 C 0.68173 0.39275 0.76395 0.0
C2481 C 0.69938 0.36863 0.72449 0.0
C2482 C 0.7054 0.38303 0.72869 0.0
C2483 C 0.69928 0.39074 0.74135 0.0
C2484 C 0.71878 0.38962 0.72068 0.0
C2485 C 0.70603 0.35932 0.71157 0.0
C2486 C 0.73249 0.39189 0.72865 0.0
C2487 C 0.7458 0.39588 0.7208 0.0
C2488 C 0.74562 0.39756 0.70484 0.0
C2489 C 0.73165 0.39626 0.69703 0.0
C2490 C 0.71831 0.39244 0.70492 0.0
H2491 H 0.70259 0.34713 0.71227 0.0
H2492 H 0.70184 0.3639 0.70054 0.0
H2493 H 0.71869 0.35992 0.71158 0.0
H2494 H 0.73307 0.38985 0.74083 0.0
H2495 H 0.75636 0.39686 0.72717 0.0
H2496 H 0.10769 0.76108 0.81169 0.0
H2497 H 0.11036 0.784 0.79608 0.0
H2498 H 0.10686 0.75676 0.75521 0.0
H2499 H 0.10446 0.73369 0.77074 0.0
H2500 H 0.13174 0.7751 0.75511 0.0
H2501 H 0.08085 0.80912 0.77083 0.0
H2502 H 0.0915 0.80292 0.78719 0.0
H2503 H 0.08246 0.789 0.77506 0.0
C2504 C 0.10724 0.75997 0.79938 0.0
C2505 C 0.10593 0.74554 0.79246 0.0
C2506 C 0.10865 0.77312 0.79047 0.0
C2507 C 0.10859 0.77212 0.77448 0.0
C2508 C 0.10683 0.75779 0.76754 0.0
H2509 H 0.13619 0.84117 0.70725 0.0
H2510 H 0.12403 0.81868 0.71857 0.0
C2511 C 0.10548 0.74462 0.77644 0.0
C2512 C 0.11196 0.78578 0.76508 0.0
H2513 H 0.10145 0.82282 0.75888 0.0
C2514 C 0.12497 0.78546 0.75572 0.0
C2515 C 0.10313 0.79928 0.76594 0.0
C2516 C 0.08862 0.80008 0.77518 0.0
C2517 C 0.12979 0.79846 0.74773 0.0
C2518 C 0.12122 0.81209 0.74896 0.0
C2519 C 0.10797 0.81233 0.75797 0.0
C2520 C 0.12657 0.82647 0.74188 0.0
C2521 C 0.14441 0.7977 0.73862 0.0
C2522 C 0.1314 0.83854 0.7512 0.0
C2523 C 0.13829 0.8514 0.74479 0.0
C2524 C 0.14045 0.85243 0.72891 0.0
C2525 C 0.13481 0.84068 0.71953 0.0
C2526 C 0.12791 0.8278 0.72597 0.0
H2527 H 0.15112 0.78726 0.74122 0.0
H2528 H 0.14163 0.79761 0.72626 0.0
H2529 H 0.15166 0.80785 0.74093 0.0
H2530 H 0.13041 0.83773 0.76351 0.0
H2531 H 0.1424 0.86029 0.75235 0.0
H2532 H 0.63624 0.63461 0.25227 0.0
H2533 H 0.65807 0.62055 0.26233 0.0
H2534 H 0.67312 0.61072 0.2165 0.0
H2535 H 0.65139 0.62506 0.20626 0.0
H2536 H 0.66937 0.59065 0.25869 0.0
H2537 H 0.70904 0.63437 0.23503 0.0
H2538 H 0.68866 0.63727 0.23577 0.0
H2539 H 0.6968 0.625 0.22149 0.0
C2540 C 0.64407 0.62932 0.24429 0.0
C2541 C 0.6422 0.63116 0.22845 0.0
C2542 C 0.65652 0.62124 0.25008 0.0
C2543 C 0.66735 0.61485 0.24017 0.0
C2544 C 0.66504 0.61583 0.22434 0.0
H2545 H 0.75886 0.5861 0.2687 0.0
H2546 H 0.73576 0.58824 0.2531 0.0
C2547 C 0.65258 0.62397 0.21851 0.0
C2548 C 0.68154 0.60823 0.24656 0.0
H2549 H 0.71974 0.61511 0.25012 0.0
C2550 C 0.68042 0.59586 0.25668 0.0
C2551 C 0.69595 0.61506 0.2439 0.0
C2552 C 0.69777 0.62873 0.23356 0.0
C2553 C 0.69328 0.59038 0.26454 0.0
C2554 C 0.70754 0.59764 0.26236 0.0
C2555 C 0.70878 0.60955 0.25173 0.0
C2556 C 0.721 0.59416 0.272 0.0
C2557 C 0.69145 0.57704 0.27526 0.0
C2558 C 0.72032 0.59665 0.28781 0.0
C2559 C 0.73348 0.59548 0.29674 0.0
C2560 C 0.74761 0.5919 0.29 0.0
C2561 C 0.74816 0.58887 0.27424 0.0
C2562 C 0.73498 0.59008 0.26531 0.0
H2563 H 0.68154 0.56981 0.27198 0.0
H2564 H 0.70188 0.56984 0.27547 0.0
H2565 H 0.68936 0.58138 0.28698 0.0
H2566 H 0.70974 0.60016 0.29317 0.0
H2567 H 0.73265 0.59791 0.30883 0.0
H2568 H 0.89866 0.23474 0.81897 0.0
H2569 H 0.89632 0.21004 0.80624 0.0
H2570 H 0.89519 0.23261 0.76248 0.0
H2571 H 0.89795 0.25734 0.7751 0.0
H2572 H 0.87214 0.20155 0.78978 0.0
H2573 H 0.92376 0.19768 0.75343 0.0
H2574 H 0.92197 0.21145 0.76867 0.0
H2575 H 0.91321 0.21498 0.75042 0.0
C2576 C 0.89819 0.23444 0.80662 0.0
C2577 C 0.89845 0.248 0.79804 0.0
C2578 C 0.89687 0.22031 0.79936 0.0
C2579 C 0.89575 0.21945 0.78339 0.0
C2580 C 0.89642 0.23294 0.77478 0.0
H2581 H 0.8606 0.15194 0.72134 0.0
H2582 H 0.8721 0.17458 0.73303 0.0
C2583 C 0.89788 0.24709 0.78203 0.0
C2584 C 0.89225 0.20464 0.77596 0.0
H2585 H 0.90348 0.18015 0.74771 0.0
C2586 C 0.87912 0.19678 0.78072 0.0
C2587 C 0.90132 0.19848 0.76407 0.0
C2588 C 0.91593 0.20601 0.75894 0.0
C2589 C 0.8746 0.18314 0.77372 0.0
C2590 C 0.88351 0.17711 0.7617 0.0
C2591 C 0.89671 0.18484 0.75695 0.0
C2592 C 0.87887 0.16299 0.75374 0.0
C2593 C 0.86009 0.17543 0.77895 0.0
C2594 C 0.87938 0.14892 0.76134 0.0
C2595 C 0.87284 0.13597 0.75472 0.0
C2596 C 0.86565 0.1369 0.74039 0.0
C2597 C 0.86598 0.15085 0.73242 0.0
C2598 C 0.87257 0.16379 0.73905 0.0
H2599 H 0.85322 0.18285 0.78661 0.0
H2600 H 0.85296 0.17215 0.76899 0.0
H2601 H 0.86302 0.16484 0.78526 0.0
H2602 H 0.8843 0.1481 0.77266 0.0
H2603 H 0.87287 0.12539 0.76113 0.0
H2604 H 0.34761 0.36712 0.20245 0.0
H2605 H 0.32635 0.38159 0.21341 0.0
H2606 H 0.34429 0.37377 0.2586 0.0
H2607 H 0.36565 0.35962 0.24779 0.0
H2608 H 0.30534 0.3694 0.23232 0.0
H2609 H 0.33274 0.41823 0.26137 0.0
H2610 H 0.34258 0.40683 0.24728 0.0
H2611 H 0.34135 0.40047 0.2668 0.0
C2612 C 0.34721 0.36876 0.2147 0.0
C2613 C 0.3583 0.36216 0.22425 0.0
C2614 C 0.33505 0.37704 0.22094 0.0
C2615 C 0.33382 0.37894 0.23681 0.0
C2616 C 0.34517 0.3728 0.2463 0.0
H2617 H 0.26758 0.3935 0.3054 0.0
H2618 H 0.29031 0.38995 0.28962 0.0
C2619 C 0.35733 0.36458 0.24009 0.0
C2620 C 0.31987 0.38569 0.24364 0.0
H2621 H 0.30764 0.41113 0.27055 0.0
C2622 C 0.30579 0.37875 0.24043 0.0
C2623 C 0.32048 0.39787 0.25424 0.0
C2624 C 0.33509 0.40638 0.25751 0.0
C2625 C 0.29244 0.38306 0.24817 0.0
C2626 C 0.2932 0.39475 0.25927 0.0
C2627 C 0.30714 0.40213 0.26205 0.0
C2628 C 0.27988 0.39853 0.26895 0.0
C2629 C 0.2778 0.37452 0.245 0.0
C2630 C 0.26662 0.4049 0.26261 0.0
C2631 C 0.25358 0.40694 0.2716 0.0
C2632 C 0.2536 0.40263 0.28707 0.0
C2633 C 0.26714 0.39686 0.29351 0.0
C2634 C 0.28016 0.39486 0.28452 0.0
H2635 H 0.27974 0.36415 0.23794 0.0
H2636 H 0.27223 0.37107 0.25585 0.0
H2637 H 0.2698 0.3821 0.23876 0.0
H2638 H 0.26626 0.40797 0.25064 0.0
H2639 H 0.24337 0.4115 0.26631 0.0
H2640 H 0.23851 0.13694 0.12112 0.0
H2641 H 0.22742 0.12455 0.14354 0.0
H2642 H 0.26807 0.13465 0.1694 0.0
H2643 H 0.27933 0.14702 0.14702 0.0
H2644 H 0.25448 0.1041 0.17429 0.0
H2645 H 0.21336 0.15226 0.17981 0.0
H2646 H 0.21402 0.14296 0.16152 0.0
H2647 H 0.23031 0.15349 0.16816 0.0
C2648 C 0.2452 0.13634 0.1315 0.0
C2649 C 0.25974 0.14313 0.13234 0.0
C2650 C 0.23883 0.12928 0.1443 0.0
C2651 C 0.24685 0.1289 0.15814 0.0
C2652 C 0.26169 0.13488 0.1588 0.0
H2653 H 0.23016 0.10683 0.25229 0.0
H2654 H 0.2413 0.11088 0.22708 0.0
C2655 C 0.26809 0.14197 0.14601 0.0
C2656 C 0.23936 0.12336 0.17222 0.0
H2657 H 0.21136 0.13242 0.19773 0.0
C2658 C 0.24501 0.11022 0.17942 0.0
C2659 C 0.22702 0.1314 0.17882 0.0
C2660 C 0.22084 0.14588 0.17179 0.0
C2661 C 0.23856 0.10485 0.1931 0.0
C2662 C 0.22639 0.11308 0.19986 0.0
C2663 C 0.22064 0.12609 0.1925 0.0
C2664 C 0.21987 0.10893 0.21492 0.0
C2665 C 0.24474 0.09038 0.20009 0.0
C2666 C 0.20408 0.10663 0.21651 0.0
C2667 C 0.19764 0.10452 0.23095 0.0
C2668 C 0.20687 0.10471 0.24408 0.0
C2669 C 0.22273 0.10655 0.24241 0.0
C2670 C 0.22915 0.10875 0.22797 0.0
H2671 H 0.25036 0.08306 0.19138 0.0
H2672 H 0.25342 0.09336 0.20882 0.0
H2673 H 0.23555 0.0837 0.20571 0.0
H2674 H 0.1967 0.10683 0.20658 0.0
H2675 H 0.18538 0.1031 0.23183 0.0
H2676 H 0.36929 0.74172 0.61834 0.0
H2677 H 0.38171 0.73028 0.64058 0.0
H2678 H 0.37173 0.77053 0.66706 0.0
H2679 H 0.35926 0.78212 0.6449 0.0
H2680 H 0.40302 0.75528 0.67124 0.0
H2681 H 0.35219 0.71745 0.67703 0.0
H2682 H 0.36114 0.71834 0.65856 0.0
H2683 H 0.35174 0.73491 0.66608 0.0
C2684 C 0.36997 0.74828 0.6288 0.0
C2685 C 0.36312 0.76276 0.62991 0.0
C2686 C 0.37707 0.74171 0.64148 0.0
C2687 C 0.37746 0.74952 0.65544 0.0
C2688 C 0.37151 0.76435 0.65635 0.0
H2689 H 0.40011 0.73037 0.74918 0.0
H2690 H 0.39666 0.74216 0.72416 0.0
C2691 C 0.36437 0.77093 0.64369 0.0
C2692 C 0.38265 0.74167 0.66943 0.0
H2693 H 0.37184 0.71435 0.69495 0.0
C2694 C 0.39629 0.74628 0.67643 0.0
C2695 C 0.37379 0.72995 0.67609 0.0
C2696 C 0.35884 0.72487 0.66917 0.0
C2697 C 0.40137 0.73936 0.69 0.0
C2698 C 0.39234 0.72782 0.69684 0.0
C2699 C 0.37879 0.72314 0.68967 0.0
C2700 C 0.39626 0.7208 0.71174 0.0
C2701 C 0.41641 0.74435 0.69674 0.0
C2702 C 0.39705 0.70485 0.71312 0.0
C2703 C 0.39877 0.69806 0.72745 0.0
C2704 C 0.39974 0.7071 0.74067 0.0
C2705 C 0.39949 0.72308 0.73921 0.0
C2706 C 0.39763 0.72986 0.72488 0.0
H2707 H 0.42401 0.74937 0.68791 0.0
H2708 H 0.41428 0.75324 0.70552 0.0
H2709 H 0.42243 0.73465 0.70225 0.0
H2710 H 0.39594 0.69763 0.70314 0.0
H2711 H 0.39897 0.68571 0.72818 0.0
H2712 H 0.77091 0.88531 0.24968 0.0
H2713 H 0.75777 0.88339 0.22515 0.0
H2714 H 0.79845 0.89876 0.20203 0.0
H2715 H 0.81184 0.90032 0.2265 0.0
H2716 H 0.75146 0.9037 0.20172 0.0
H2717 H 0.79054 0.85763 0.18221 0.0
H2718 H 0.79014 0.86423 0.2017 0.0
H2719 H 0.79992 0.87512 0.1873 0.0
C2720 C 0.77705 0.8884 0.2394 0.0
C2721 C 0.79249 0.89274 0.24001 0.0
C2722 C 0.7695 0.88733 0.22539 0.0
C2723 C 0.77723 0.89065 0.21176 0.0
C2724 C 0.79239 0.8958 0.2124 0.0
H2725 H 0.75061 0.87086 0.11806 0.0
H2726 H 0.76259 0.8832 0.14003 0.0
C2727 C 0.8 0.89674 0.22639 0.0
C2728 C 0.76965 0.88785 0.19689 0.0
H2729 H 0.77173 0.86575 0.16488 0.0
C2730 C 0.75592 0.89547 0.1936 0.0
C2731 C 0.77548 0.87706 0.18637 0.0
C2732 C 0.78975 0.86792 0.18958 0.0
C2733 C 0.74782 0.89252 0.18007 0.0
C2734 C 0.75356 0.88158 0.16969 0.0
C2735 C 0.76744 0.87423 0.17283 0.0
C2736 C 0.74494 0.87664 0.15601 0.0
C2737 C 0.7332 0.90109 0.17702 0.0
C2738 C 0.73086 0.86916 0.15767 0.0
C2739 C 0.72399 0.86207 0.14514 0.0
C2740 C 0.73115 0.86223 0.13076 0.0
C2741 C 0.74482 0.87047 0.12898 0.0
C2742 C 0.75168 0.87755 0.14152 0.0
H2743 H 0.73271 0.91194 0.18357 0.0
H2744 H 0.73194 0.90369 0.16467 0.0
H2745 H 0.72337 0.89393 0.18057 0.0
H2746 H 0.72561 0.86808 0.1688 0.0
H2747 H 0.71347 0.85581 0.14691 0.0
H2748 H 0.59745 0.31085 0.73573 0.0
H2749 H 0.60237 0.29684 0.71211 0.0
H2750 H 0.6061 0.25492 0.73767 0.0
H2751 H 0.60078 0.26875 0.76126 0.0
H2752 H 0.62876 0.28302 0.70689 0.0
H2753 H 0.58257 0.24039 0.7009 0.0
H2754 H 0.58112 0.25655 0.71364 0.0
H2755 H 0.59129 0.23964 0.71941 0.0
C2756 C 0.59895 0.29859 0.73628 0.0
C2757 C 0.59883 0.29092 0.75038 0.0
C2758 C 0.60174 0.2906 0.72277 0.0
C2759 C 0.60448 0.2748 0.72308 0.0
C2760 C 0.60366 0.26702 0.73707 0.0
H2761 H 0.66672 0.22499 0.66761 0.0
H2762 H 0.65167 0.23699 0.68774 0.0
C2763 C 0.60074 0.27499 0.75058 0.0
C2764 C 0.61029 0.26693 0.70926 0.0
H2765 H 0.60586 0.23517 0.687 0.0
C2766 C 0.62358 0.27269 0.70242 0.0
C2767 C 0.6035 0.2535 0.70333 0.0
C2768 C 0.58874 0.24725 0.70961 0.0
C2769 C 0.63062 0.2651 0.69024 0.0
C2770 C 0.62438 0.2512 0.68494 0.0
C2771 C 0.61072 0.24572 0.69128 0.0
C2772 C 0.63236 0.24205 0.67321 0.0
C2773 C 0.64482 0.27195 0.68325 0.0
C2774 C 0.62615 0.24032 0.65855 0.0
C2775 C 0.63472 0.23338 0.64697 0.0
C2776 C 0.64961 0.22811 0.64994 0.0
C2777 C 0.65537 0.22908 0.66489 0.0
C2778 C 0.6468 0.23595 0.67641 0.0
H2779 H 0.64582 0.28433 0.68584 0.0
H2780 H 0.65502 0.26613 0.68799 0.0
H2781 H 0.64489 0.2704 0.67067 0.0
H2782 H 0.61497 0.24491 0.65591 0.0
H2783 H 0.62995 0.23275 0.63558 0.0
H2784 H 0.22859 0.90754 0.74193 0.0
H2785 H 0.24608 0.90609 0.76366 0.0
H2786 H 0.20877 0.89285 0.79292 0.0
H2787 H 0.19115 0.89437 0.77132 0.0
H2788 H 0.23086 0.91452 0.80614 0.0
H2789 H 0.25733 0.86283 0.78011 0.0
H2790 H 0.25656 0.87974 0.76849 0.0
H2791 H 0.23918 0.87025 0.77378 0.0
C2792 C 0.22404 0.90454 0.75302 0.0
C2793 C 0.2085 0.90087 0.75485 0.0
C2794 C 0.23406 0.9037 0.76541 0.0
C2795 C 0.22872 0.89917 0.7798 0.0
C2796 C 0.21309 0.89635 0.78187 0.0
H2797 H 0.25578 0.86652 0.86606 0.0
H2798 H 0.2441 0.88021 0.84491 0.0
C2799 C 0.20306 0.89717 0.7695 0.0
C2800 C 0.23949 0.89605 0.79241 0.0
H2801 H 0.26598 0.87011 0.8043 0.0
C2802 C 0.23869 0.90493 0.80571 0.0
C2803 C 0.24972 0.88358 0.79174 0.0
C2804 C 0.25076 0.87344 0.77783 0.0
C2805 C 0.24763 0.90142 0.81856 0.0
C2806 C 0.25733 0.88851 0.81814 0.0
C2807 C 0.25858 0.88004 0.80459 0.0
C2808 C 0.26503 0.88251 0.83196 0.0
C2809 C 0.24648 0.9115 0.83247 0.0
C2810 C 0.28073 0.8792 0.83176 0.0
C2811 C 0.28744 0.87115 0.84381 0.0
C2812 C 0.27854 0.86619 0.85621 0.0
C2813 C 0.26299 0.87017 0.8567 0.0
C2814 C 0.25629 0.87816 0.84465 0.0
H2815 H 0.2433 0.92336 0.82928 0.0
H2816 H 0.23741 0.90703 0.84011 0.0
H2817 H 0.2574 0.91179 0.83891 0.0
H2818 H 0.28766 0.88236 0.82202 0.0
H2819 H 0.29945 0.86829 0.84309 0.0
H2820 H 0.61391 0.68617 0.27221 0.0
H2821 H 0.61859 0.70359 0.29334 0.0
H2822 H 0.593 0.73879 0.27029 0.0
H2823 H 0.58858 0.72148 0.2488 0.0
H2824 H 0.61988 0.74919 0.27907 0.0
H2825 H 0.59382 0.71974 0.32816 0.0
H2826 H 0.60636 0.70698 0.31824 0.0
H2827 H 0.58967 0.71437 0.30869 0.0
C2828 C 0.60901 0.69752 0.27172 0.0
C2829 C 0.60092 0.70245 0.25877 0.0
C2830 C 0.61159 0.70744 0.28392 0.0
C2831 C 0.60594 0.72244 0.28355 0.0
C2832 C 0.59738 0.72724 0.27087 0.0
H2833 H 0.63277 0.77575 0.3645 0.0
H2834 H 0.61609 0.76572 0.34436 0.0
C2835 C 0.59487 0.71733 0.2586 0.0
C2836 C 0.61055 0.73346 0.29556 0.0
H2837 H 0.61507 0.73676 0.3341 0.0
C2838 C 0.61852 0.74664 0.29112 0.0
C2839 C 0.60852 0.73038 0.31129 0.0
C2840 C 0.59896 0.71718 0.31685 0.0
C2841 C 0.6255 0.75616 0.30193 0.0
C2842 C 0.62482 0.75216 0.31756 0.0
C2843 C 0.61584 0.73968 0.32209 0.0
C2844 C 0.63461 0.7597 0.32914 0.0
C2845 C 0.63387 0.77018 0.29645 0.0
C2846 C 0.65052 0.75966 0.32725 0.0
C2847 C 0.66003 0.7654 0.33865 0.0
C2848 C 0.65385 0.77113 0.3523 0.0
C2849 C 0.63788 0.77144 0.3541 0.0
C2850 C 0.62834 0.76571 0.34262 0.0
H2851 H 0.62873 0.77466 0.28576 0.0
H2852 H 0.63379 0.77936 0.30519 0.0
H2853 H 0.64591 0.76712 0.29391 0.0
H2854 H 0.65565 0.75471 0.31715 0.0
H2855 H 0.67226 0.76492 0.33691 0.0
H2856 H 0.77633 0.09676 0.74198 0.0
H2857 H 0.76165 0.09919 0.76566 0.0
H2858 H 0.80302 0.10919 0.79039 0.0
H2859 H 0.81781 0.10679 0.76684 0.0
H2860 H 0.78072 0.08765 0.80516 0.0
H2861 H 0.75606 0.14287 0.78535 0.0
H2862 H 0.75464 0.12673 0.77271 0.0
H2863 H 0.77301 0.13477 0.77687 0.0
C2864 C 0.78234 0.09929 0.75248 0.0
C2865 C 0.79822 0.10172 0.7525 0.0
C2866 C 0.77393 0.1007 0.76598 0.0
C2867 C 0.78127 0.1045 0.77969 0.0
C2868 C 0.79717 0.10626 0.77989 0.0
H2869 H 0.76494 0.13175 0.87129 0.0
H2870 H 0.77398 0.11962 0.84795 0.0
C2871 C 0.80558 0.10493 0.76641 0.0
C2872 C 0.77236 0.10769 0.79367 0.0
H2873 H 0.74978 0.13484 0.81005 0.0
C2874 C 0.77381 0.09787 0.80622 0.0
C2875 C 0.76332 0.12099 0.79494 0.0
C2876 C 0.76166 0.13205 0.78182 0.0
C2877 C 0.76661 0.10115 0.82018 0.0
C2878 C 0.75811 0.11482 0.82166 0.0
C2879 C 0.75627 0.12435 0.80891 0.0
C2880 C 0.75205 0.12019 0.83654 0.0
C2881 C 0.76823 0.08997 0.83317 0.0
C2882 C 0.7367 0.12463 0.83793 0.0
C2883 C 0.73154 0.13182 0.85122 0.0
C2884 C 0.74164 0.1347 0.86336 0.0
C2885 C 0.75683 0.12964 0.8622 0.0
C2886 C 0.76201 0.12257 0.84887 0.0
H2887 H 0.77011 0.07818 0.82886 0.0
H2888 H 0.7783 0.09315 0.84016 0.0
H2889 H 0.75797 0.09 0.84062 0.0
H2890 H 0.72884 0.12298 0.82853 0.0
H2891 H 0.71976 0.13555 0.85176 0.0
H2892 H 0.39601 0.26769 0.23765 0.0
H2893 H 0.39368 0.25103 0.25993 0.0
H2894 H 0.39021 0.29048 0.28919 0.0
H2895 H 0.39278 0.30725 0.26702 0.0
H2896 H 0.40879 0.26663 0.30118 0.0
H2897 H 0.35223 0.24563 0.28119 0.0
H2898 H 0.36772 0.24327 0.26795 0.0
H2899 H 0.36141 0.26213 0.27297 0.0
C2900 C 0.39487 0.27284 0.24883 0.0
C2901 C 0.39439 0.2888 0.25054 0.0
C2902 C 0.39351 0.26329 0.26154 0.0
C2903 C 0.39152 0.26954 0.27615 0.0
C2904 C 0.39169 0.28545 0.27798 0.0
H2905 H 0.36406 0.24513 0.3657 0.0
H2906 H 0.37649 0.25627 0.34344 0.0
C2907 C 0.39311 0.29501 0.26529 0.0
C2908 C 0.38837 0.25958 0.28943 0.0
H2909 H 0.36146 0.23566 0.30427 0.0
C2910 C 0.39851 0.25975 0.30184 0.0
C2911 C 0.37495 0.25062 0.29021 0.0
C2912 C 0.36336 0.25044 0.27745 0.0
C2913 C 0.39547 0.25132 0.31513 0.0
C2914 C 0.38184 0.24271 0.31607 0.0
C2915 C 0.37195 0.24219 0.30347 0.0
C2916 C 0.37677 0.23528 0.33039 0.0
C2917 C 0.40684 0.25175 0.32806 0.0
C2918 C 0.37289 0.21973 0.33052 0.0
C2919 C 0.36564 0.21333 0.34322 0.0
C2920 C 0.36203 0.22242 0.35595 0.0
C2921 C 0.36666 0.2378 0.35608 0.0
C2922 C 0.37389 0.24418 0.3434 0.0
H2923 H 0.4185 0.25446 0.32387 0.0
H2924 H 0.40346 0.26081 0.33625 0.0
H2925 H 0.40718 0.2407 0.33426 0.0
H2926 H 0.37494 0.2127 0.32055 0.0
H2927 H 0.36225 0.20145 0.34276 0.0
H2928 H 0.23851 0.20119 0.0953 0.0
H2929 H 0.21579 0.21741 0.09788 0.0
H2930 H 0.23157 0.23249 0.14201 0.0
H2931 H 0.2542 0.21652 0.13953 0.0
H2932 H 0.19385 0.21524 0.121 0.0
H2933 H 0.2202 0.27259 0.12104 0.0
H2934 H 0.23005 0.25585 0.11407 0.0
H2935 H 0.2294 0.25989 0.13422 0.0
C2936 C 0.23721 0.20811 0.10547 0.0
C2937 C 0.24816 0.20758 0.11721 0.0
C2938 C 0.22425 0.21736 0.10691 0.0
C2939 C 0.22215 0.22635 0.12001 0.0
C2940 C 0.23314 0.22593 0.13165 0.0
H2941 H 0.15966 0.27115 0.17544 0.0
H2942 H 0.18114 0.26083 0.16106 0.0
C2943 C 0.24602 0.21667 0.13026 0.0
C2944 C 0.20799 0.2353 0.12228 0.0
H2945 H 0.19544 0.27055 0.13313 0.0
C2946 C 0.19408 0.22741 0.12328 0.0
C2947 C 0.20835 0.25117 0.12519 0.0
C2948 C 0.22279 0.2604 0.12342 0.0
C2949 C 0.18073 0.23476 0.12827 0.0
C2950 C 0.18134 0.25043 0.13213 0.0
C2951 C 0.19503 0.25852 0.13021 0.0
C2952 C 0.1685 0.25808 0.14002 0.0
C2953 C 0.16635 0.2255 0.13037 0.0
C2954 C 0.15436 0.26032 0.13282 0.0
C2955 C 0.14198 0.26624 0.14104 0.0
C2956 C 0.14361 0.26997 0.15658 0.0
C2957 C 0.15798 0.2683 0.16352 0.0
C2958 C 0.1703 0.26244 0.15531 0.0
H2959 H 0.16838 0.21307 0.12883 0.0
H2960 H 0.1615 0.22741 0.14192 0.0
H2961 H 0.1577 0.22918 0.12188 0.0
H2962 H 0.15282 0.25719 0.12095 0.0
H2963 H 0.13106 0.26745 0.13536 0.0
H2964 H 0.23541 0.80993 0.85996 0.0
H2965 H 0.21298 0.79353 0.86088 0.0
H2966 H 0.2196 0.78677 0.9092 0.0
H2967 H 0.24232 0.80318 0.90837 0.0
H2968 H 0.21501 0.75972 0.89327 0.0
H2969 H 0.17049 0.80165 0.87806 0.0
H2970 H 0.18616 0.80241 0.8649 0.0
H2971 H 0.18921 0.80728 0.88464 0.0
C2972 C 0.23206 0.8051 0.87084 0.0
C2973 C 0.24065 0.80787 0.8841 0.0
C2974 C 0.21914 0.79581 0.87137 0.0
C2975 C 0.21446 0.78916 0.88516 0.0
C2976 C 0.22294 0.79193 0.89847 0.0
H2977 H 0.13012 0.73748 0.86983 0.0
H2978 H 0.1481 0.75321 0.8844 0.0
C2979 C 0.2359 0.8013 0.89797 0.0
C2980 C 0.20133 0.77851 0.88519 0.0
H2981 H 0.16495 0.77522 0.87177 0.0
C2982 C 0.20393 0.76315 0.88892 0.0
C2983 C 0.18678 0.78303 0.87988 0.0
C2984 C 0.18294 0.79953 0.87681 0.0
C2985 C 0.19276 0.75198 0.88618 0.0
C2986 C 0.1788 0.7563 0.87928 0.0
C2987 C 0.17573 0.77184 0.87686 0.0
C2988 C 0.16817 0.74494 0.8726 0.0
C2989 C 0.19624 0.73561 0.89024 0.0
C2990 C 0.17351 0.73489 0.86132 0.0
C2991 C 0.16331 0.72591 0.85302 0.0
C2992 C 0.14752 0.72691 0.8557 0.0
C2993 C 0.14222 0.73644 0.86749 0.0
C2994 C 0.15247 0.74544 0.87583 0.0
H2995 H 0.20397 0.73498 0.90028 0.0
H2996 H 0.18566 0.7291 0.8928 0.0
H2997 H 0.20216 0.73007 0.88051 0.0
H2998 H 0.1855 0.73457 0.85833 0.0
H2999 H 0.16779 0.7187 0.84403 0.0
H3000 H 0.68682 0.73333 0.39805 0.0
H3001 H 0.699 0.70886 0.39239 0.0
H3002 H 0.74226 0.73172 0.38655 0.0
H3003 H 0.73029 0.75609 0.39269 0.0
H3004 H 0.71104 0.70183 0.36605 0.0
H3005 H 0.75586 0.69487 0.40982 0.0
H3006 H 0.7407 0.70871 0.4117 0.0
H3007 H 0.75746 0.71305 0.40057 0.0
C3008 C 0.69899 0.73309 0.39589 0.0
C3009 C 0.70758 0.74665 0.39576 0.0
C3010 C 0.70594 0.7191 0.39267 0.0
C3011 C 0.72159 0.71839 0.38921 0.0
C3012 C 0.73027 0.73187 0.38958 0.0
H3013 H 0.76496 0.65982 0.32516 0.0
H3014 H 0.75302 0.68015 0.33994 0.0
C3015 C 0.72337 0.74584 0.39298 0.0
C3016 C 0.7284 0.70402 0.38337 0.0
H3017 H 0.7595 0.68066 0.38634 0.0
C3018 C 0.7215 0.69707 0.37068 0.0
C3019 C 0.74194 0.69765 0.38948 0.0
C3020 C 0.74931 0.70388 0.40375 0.0
C3021 C 0.72813 0.68441 0.36351 0.0
C3022 C 0.74227 0.67879 0.36891 0.0
C3023 C 0.7488 0.68519 0.38206 0.0
C3024 C 0.75068 0.66674 0.36054 0.0
C3025 C 0.71998 0.67728 0.3501 0.0
C3026 C 0.75398 0.65267 0.36747 0.0
C3027 C 0.76098 0.64101 0.35906 0.0
C3028 C 0.76476 0.64329 0.34362 0.0
C3029 C 0.76201 0.65762 0.33696 0.0
C3030 C 0.75512 0.66925 0.34537 0.0
H3031 H 0.70753 0.67971 0.35041 0.0
H3032 H 0.7246 0.68214 0.33935 0.0
H3033 H 0.72166 0.66472 0.34985 0.0
H3034 H 0.75075 0.65058 0.37922 0.0
H3035 H 0.76301 0.6301 0.36452 0.0
H3036 H 0.74496 0.22405 0.89709 0.0
H3037 H 0.76925 0.23733 0.89329 0.0
H3038 H 0.79317 0.19433 0.89532 0.0
H3039 H 0.76891 0.18093 0.89864 0.0
H3040 H 0.79621 0.23958 0.90923 0.0
H3041 H 0.80549 0.21031 0.85381 0.0
H3042 H 0.78758 0.20936 0.86392 0.0
H3043 H 0.80329 0.19735 0.86951 0.0
C3044 C 0.7554 0.21743 0.89687 0.0
C3045 C 0.75501 0.20142 0.89794 0.0
C3046 C 0.76928 0.22504 0.89471 0.0
C3047 C 0.78297 0.21678 0.89367 0.0
C3048 C 0.78269 0.20089 0.89568 0.0
H3049 H 0.87606 0.24043 0.87061 0.0
H3050 H 0.85343 0.22884 0.8821 0.0
C3051 C 0.76883 0.19325 0.89764 0.0
C3052 C 0.79741 0.22467 0.88969 0.0
H3053 H 0.82584 0.22549 0.86305 0.0
C3054 C 0.80269 0.23652 0.89913 0.0
C3055 C 0.80576 0.22076 0.87641 0.0
C3056 C 0.80018 0.20886 0.86524 0.0
C3057 C 0.81627 0.24439 0.89574 0.0
C3058 C 0.82468 0.24027 0.88262 0.0
C3059 C 0.8194 0.22846 0.8732 0.0
C3060 C 0.8388 0.2483 0.87803 0.0
C3061 C 0.82165 0.25693 0.90623 0.0
C3062 C 0.83808 0.26319 0.8722 0.0
C3063 C 0.85098 0.26983 0.86551 0.0
C3064 C 0.86477 0.26165 0.86455 0.0
C3065 C 0.86562 0.24704 0.87114 0.0
C3066 C 0.85271 0.24038 0.87773 0.0
H3067 H 0.81539 0.25691 0.91727 0.0
H3068 H 0.83407 0.25576 0.90854 0.0
H3069 H 0.81981 0.26814 0.90062 0.0
H3070 H 0.82738 0.26938 0.87215 0.0
H3071 H 0.84995 0.28111 0.86055 0.0
H3072 H 0.31369 0.26865 0.39641 0.0
H3073 H 0.29963 0.29203 0.39053 0.0
H3074 H 0.25806 0.26599 0.38603 0.0
H3075 H 0.27192 0.24266 0.39227 0.0
H3076 H 0.2864 0.29671 0.36365 0.0
H3077 H 0.24264 0.30293 0.40873 0.0
H3078 H 0.25891 0.29042 0.41075 0.0
H3079 H 0.2423 0.28427 0.40031 0.0
C3080 C 0.30149 0.26795 0.39452 0.0
C3081 C 0.29394 0.25378 0.3947 0.0
C3082 C 0.29347 0.28132 0.39117 0.0
C3083 C 0.27777 0.28079 0.38797 0.0
C3084 C 0.27009 0.26675 0.38881 0.0
H3085 H 0.22915 0.3357 0.32386 0.0
H3086 H 0.24134 0.31569 0.33895 0.0
C3087 C 0.27807 0.25339 0.39226 0.0
C3088 C 0.26989 0.29443 0.38176 0.0
H3089 H 0.23781 0.31639 0.38514 0.0
C3090 C 0.2759 0.30114 0.3685 0.0
C3091 C 0.25625 0.30031 0.38814 0.0
C3092 C 0.24974 0.2942 0.40286 0.0
C3093 C 0.26835 0.31313 0.36112 0.0
C3094 C 0.25423 0.31836 0.36695 0.0
C3095 C 0.24852 0.31216 0.38057 0.0
C3096 C 0.24519 0.32999 0.35871 0.0
C3097 C 0.27552 0.32004 0.34704 0.0
C3098 C 0.24268 0.34445 0.36513 0.0
C3099 C 0.23561 0.35593 0.35655 0.0
C3100 C 0.23096 0.35308 0.34144 0.0
C3101 C 0.23276 0.33832 0.33539 0.0
C3102 C 0.23976 0.32688 0.34398 0.0
H3103 H 0.28798 0.31771 0.3465 0.0
H3104 H 0.27016 0.31498 0.33673 0.0
H3105 H 0.27371 0.33258 0.3467 0.0
H3106 H 0.24672 0.34701 0.37654 0.0
H3107 H 0.23433 0.36716 0.36155 0.0
H3108 H 0.73934 0.7711 0.10573 0.0
H3109 H 0.76466 0.75996 0.10974 0.0
H3110 H 0.78524 0.80426 0.1035 0.0
H3111 H 0.75998 0.81555 0.09984 0.0
H3112 H 0.7916 0.75894 0.09259 0.0
H3113 H 0.79939 0.79207 0.14609 0.0
H3114 H 0.78123 0.79072 0.13648 0.0
H3115 H 0.79564 0.80365 0.12961 0.0
C3116 C 0.74926 0.77845 0.10507 0.0
C3117 C 0.74764 0.79425 0.10269 0.0
C3118 C 0.76372 0.77206 0.10734 0.0
C3119 C 0.77678 0.78135 0.10723 0.0
C3120 C 0.77526 0.79696 0.10398 0.0
H3121 H 0.87113 0.76563 0.13256 0.0
H3122 H 0.84789 0.77559 0.12077 0.0
C3123 C 0.76082 0.80338 0.10184 0.0
C3124 C 0.79185 0.77487 0.11133 0.0
H3125 H 0.82046 0.77754 0.13764 0.0
C3126 C 0.79794 0.76299 0.10243 0.0
C3127 C 0.80003 0.78012 0.12424 0.0
C3128 C 0.7937 0.79224 0.13475 0.0
C3129 C 0.81211 0.75637 0.106 0.0
C3130 C 0.82027 0.76169 0.11886 0.0
C3131 C 0.81421 0.77359 0.1277 0.0
C3132 C 0.83489 0.75482 0.12383 0.0
C3133 C 0.81833 0.74385 0.09595 0.0
C3134 C 0.83533 0.73975 0.12922 0.0
C3135 C 0.84859 0.73401 0.13602 0.0
C3136 C 0.8616 0.74331 0.13761 0.0
C3137 C 0.86131 0.75817 0.13156 0.0
C3138 C 0.84805 0.7639 0.1248 0.0
H3139 H 0.81263 0.74365 0.08462 0.0
H3140 H 0.83082 0.74522 0.09424 0.0
H3141 H 0.81635 0.73266 0.10154 0.0
H3142 H 0.82521 0.73265 0.12882 0.0
H3143 H 0.84842 0.72252 0.14058 0.0
H3144 H 0.77068 0.36489 0.62855 0.0
H3145 H 0.76015 0.34472 0.61216 0.0
H3146 H 0.7508 0.31729 0.65197 0.0
H3147 H 0.76148 0.33708 0.66828 0.0
H3148 H 0.76328 0.30068 0.6282 0.0
H3149 H 0.71427 0.33618 0.60867 0.0
H3150 H 0.73307 0.34364 0.60515 0.0
H3151 H 0.7263 0.3418 0.62441 0.0
C3152 C 0.76649 0.3545 0.63377 0.0
C3153 C 0.76681 0.35264 0.64973 0.0
C3154 C 0.76041 0.34304 0.62441 0.0
C3155 C 0.7545 0.32962 0.63088 0.0
C3156 C 0.75528 0.32757 0.64674 0.0
H3157 H 0.68626 0.26531 0.61473 0.0
H3158 H 0.70228 0.28756 0.61942 0.0
C3159 C 0.76136 0.33894 0.65606 0.0
C3160 C 0.74697 0.31775 0.62147 0.0
H3161 H 0.71432 0.31041 0.60147 0.0
C3162 C 0.75271 0.30281 0.62211 0.0
C3163 C 0.73314 0.32062 0.61363 0.0
C3164 C 0.72621 0.33638 0.61295 0.0
C3165 C 0.74459 0.2905 0.61586 0.0
C3166 C 0.7305 0.29329 0.60844 0.0
C3167 C 0.72516 0.30835 0.60709 0.0
C3168 C 0.72023 0.28063 0.60391 0.0
C3169 C 0.75067 0.27453 0.61815 0.0
C3170 C 0.72478 0.26957 0.59324 0.0
C3171 C 0.71567 0.25669 0.59062 0.0
C3172 C 0.70181 0.25478 0.59853 0.0
C3173 C 0.69691 0.26636 0.60851 0.0
C3174 C 0.70603 0.27913 0.61118 0.0
H3175 H 0.76019 0.2742 0.62653 0.0
H3176 H 0.74149 0.26678 0.62218 0.0
H3177 H 0.75502 0.27008 0.60711 0.0
H3178 H 0.73555 0.27068 0.58727 0.0
H3179 H 0.7197 0.24805 0.58275 0.0
H3180 H 0.25703 0.62254 0.62507 0.0
H3181 H 0.26935 0.64558 0.61519 0.0
H3182 H 0.23554 0.67342 0.63768 0.0
H3183 H 0.223 0.65049 0.64742 0.0
H3184 H 0.2447 0.68456 0.60839 0.0
H3185 H 0.29385 0.67108 0.64635 0.0
H3186 H 0.28881 0.6565 0.63283 0.0
H3187 H 0.27574 0.66138 0.64787 0.0
C3188 C 0.25203 0.63355 0.62767 0.0
C3189 C 0.23918 0.63469 0.63724 0.0
C3190 C 0.25912 0.6467 0.62205 0.0
C3191 C 0.25353 0.66118 0.62599 0.0
C3192 C 0.24007 0.66233 0.63459 0.0
H3193 H 0.29824 0.74622 0.64009 0.0
H3194 H 0.28417 0.72222 0.64099 0.0
C3195 C 0.23294 0.6492 0.64017 0.0
C3196 C 0.26244 0.67511 0.62251 0.0
H3197 H 0.29547 0.69357 0.63188 0.0
C3198 C 0.25587 0.68651 0.61338 0.0
C3199 C 0.27691 0.67765 0.62925 0.0
C3200 C 0.28425 0.66609 0.63973 0.0
C3201 C 0.26333 0.70051 0.61094 0.0
C3202 C 0.27776 0.70304 0.61773 0.0
C3203 C 0.28443 0.69153 0.62663 0.0
C3204 C 0.28573 0.71791 0.61672 0.0
C3205 C 0.2555 0.7127 0.60162 0.0
C3206 C 0.29128 0.72343 0.60275 0.0
C3207 C 0.29936 0.73721 0.60218 0.0
C3208 C 0.30206 0.74562 0.6156 0.0
C3209 C 0.29638 0.74005 0.62954 0.0
C3210 C 0.28833 0.72632 0.63008 0.0
H3211 H 0.24329 0.70999 0.59953 0.0
H3212 H 0.25625 0.72393 0.60746 0.0
H3213 H 0.2613 0.71375 0.59041 0.0
H3214 H 0.28959 0.71697 0.59234 0.0
H3215 H 0.30363 0.74118 0.59127 0.0
H3216 H 0.82347 0.83683 0.73251 0.0
H3217 H 0.83777 0.81618 0.74452 0.0
H3218 H 0.87824 0.84421 0.74508 0.0
H3219 H 0.86402 0.865 0.73282 0.0
H3220 H 0.88354 0.813 0.73684 0.0
H3221 H 0.84967 0.81846 0.79 0.0
H3222 H 0.83804 0.81608 0.77329 0.0
H3223 H 0.84966 0.8329 0.7753 0.0
C3224 C 0.83544 0.8386 0.73506 0.0
C3225 C 0.84256 0.85263 0.73188 0.0
C3226 C 0.84358 0.8268 0.74197 0.0
C3227 C 0.85895 0.82881 0.74597 0.0
C3228 C 0.86634 0.8425 0.74217 0.0
H3229 H 0.8961 0.76404 0.81184 0.0
H3230 H 0.89132 0.78803 0.79841 0.0
C3231 C 0.8582 0.85435 0.73517 0.0
C3232 C 0.867 0.81674 0.75464 0.0
H3233 H 0.86436 0.79567 0.78725 0.0
C3234 C 0.8795 0.8093 0.74795 0.0
C3235 C 0.86192 0.81219 0.76927 0.0
C3236 C 0.84918 0.82042 0.77747 0.0
C3237 C 0.88657 0.79684 0.7552 0.0
C3238 C 0.88076 0.79161 0.76935 0.0
C3239 C 0.86875 0.79959 0.77634 0.0
C3240 C 0.88616 0.77735 0.77673 0.0
C3241 C 0.90011 0.78939 0.7476 0.0
C3242 C 0.88514 0.76338 0.76894 0.0
C3243 C 0.88797 0.74966 0.77656 0.0
C3244 C 0.89164 0.74963 0.79219 0.0
C3245 C 0.89324 0.76366 0.79982 0.0
C3246 C 0.89052 0.77739 0.79215 0.0
H3247 H 0.90628 0.7976 0.74015 0.0
H3248 H 0.90824 0.78474 0.75614 0.0
H3249 H 0.89606 0.77986 0.7403 0.0
H3250 H 0.88141 0.763 0.75716 0.0
H3251 H 0.88657 0.73906 0.77035 0.0
H3252 H 0.6544 0.35663 0.22046 0.0
H3253 H 0.67743 0.36741 0.23205 0.0
H3254 H 0.65082 0.38373 0.27009 0.0
H3255 H 0.62771 0.37297 0.25867 0.0
H3256 H 0.68515 0.39862 0.2444 0.0
H3257 H 0.68263 0.352 0.28756 0.0
H3258 H 0.67212 0.35122 0.26985 0.0
H3259 H 0.66559 0.36321 0.28514 0.0
C3260 C 0.65337 0.36275 0.23116 0.0
C3261 C 0.63925 0.36375 0.23876 0.0
C3262 C 0.66654 0.36893 0.23773 0.0
C3263 C 0.6658 0.37616 0.25198 0.0
C3264 C 0.6516 0.37804 0.25913 0.0
H3265 H 0.73767 0.39578 0.3173 0.0
H3266 H 0.71309 0.39441 0.30419 0.0
C3267 C 0.63842 0.3719 0.25257 0.0
C3268 C 0.68002 0.38037 0.26003 0.0
H3269 H 0.70271 0.3696 0.28977 0.0
C3270 C 0.68901 0.39236 0.25437 0.0
C3271 C 0.68496 0.37213 0.27299 0.0
C3272 C 0.67592 0.35884 0.27924 0.0
C3273 C 0.70283 0.3964 0.26145 0.0
C3274 C 0.7079 0.38798 0.27428 0.0
C3275 C 0.69878 0.37609 0.27998 0.0
C3276 C 0.72282 0.39081 0.28177 0.0
C3277 C 0.71177 0.40975 0.25524 0.0
C3278 C 0.73649 0.38942 0.27349 0.0
C3279 C 0.75058 0.39031 0.28095 0.0
C3280 C 0.75124 0.39236 0.29685 0.0
C3281 C 0.73755 0.39413 0.30505 0.0
C3282 C 0.72349 0.39337 0.29757 0.0
H3283 H 0.7043 0.41773 0.24881 0.0
H3284 H 0.71753 0.41616 0.26454 0.0
H3285 H 0.72063 0.40547 0.24727 0.0
H3286 H 0.73627 0.38705 0.26136 0.0
H3287 H 0.76091 0.38881 0.27432 0.0
H3288 H 0.13154 0.14331 0.71441 0.0
H3289 H 0.11861 0.16648 0.72317 0.0
H3290 H 0.11765 0.1487 0.76907 0.0
H3291 H 0.13013 0.12535 0.76036 0.0
H3292 H 0.09142 0.16465 0.76189 0.0
H3293 H 0.14338 0.19785 0.74657 0.0
H3294 H 0.13467 0.18782 0.73097 0.0
H3295 H 0.14304 0.17728 0.74647 0.0
C3296 C 0.12835 0.14423 0.72632 0.0
C3297 C 0.13206 0.13259 0.73674 0.0
C3298 C 0.12103 0.15751 0.73131 0.0
C3299 C 0.11753 0.15946 0.74683 0.0
C3300 C 0.12034 0.14746 0.75706 0.0
H3301 H 0.0994 0.22886 0.81202 0.0
H3302 H 0.10117 0.20504 0.79762 0.0
C3303 C 0.12751 0.13413 0.75206 0.0
C3304 C 0.11209 0.17435 0.75273 0.0
H3305 H 0.12311 0.21141 0.75764 0.0
C3306 C 0.09827 0.17492 0.76085 0.0
C3307 C 0.1211 0.18772 0.75141 0.0
C3308 C 0.13643 0.18769 0.74351 0.0
C3309 C 0.09333 0.18846 0.76788 0.0
C3310 C 0.10251 0.20168 0.76684 0.0
C3311 C 0.11606 0.20125 0.75831 0.0
C3312 C 0.09907 0.21579 0.77548 0.0
C3313 C 0.07841 0.18849 0.77649 0.0
C3314 C 0.09724 0.22972 0.76779 0.0
C3315 C 0.09627 0.24337 0.77599 0.0
C3316 C 0.09732 0.24333 0.79201 0.0
C3317 C 0.09857 0.22929 0.79969 0.0
C3318 C 0.09947 0.21564 0.79148 0.0
H3319 H 0.07081 0.17908 0.77267 0.0
H3320 H 0.08074 0.18687 0.78884 0.0
H3321 H 0.07234 0.19952 0.77504 0.0
H3322 H 0.09704 0.23006 0.75543 0.0
H3323 H 0.0953 0.25399 0.76973 0.0
H3324 H 0.3508 0.63716 0.21686 0.0
H3325 H 0.32738 0.62676 0.22797 0.0
H3326 H 0.35218 0.61389 0.26849 0.0
H3327 H 0.3757 0.62411 0.25745 0.0
H3328 H 0.32898 0.59213 0.25848 0.0
H3329 H 0.30802 0.65193 0.26339 0.0
H3330 H 0.31367 0.64595 0.24459 0.0
H3331 H 0.32774 0.64742 0.25944 0.0
C3332 C 0.35136 0.63184 0.22801 0.0
C3333 C 0.36508 0.63166 0.23637 0.0
C3334 C 0.33795 0.62595 0.23434 0.0
C3335 C 0.33804 0.61982 0.24913 0.0
C3336 C 0.35189 0.61864 0.25707 0.0
H3337 H 0.26714 0.61659 0.31632 0.0
H3338 H 0.29059 0.61966 0.30159 0.0
C3339 C 0.36531 0.62452 0.25075 0.0
C3340 C 0.32355 0.61605 0.25695 0.0
H3341 H 0.29161 0.63251 0.27202 0.0
C3342 C 0.32073 0.60091 0.26137 0.0
C3343 C 0.31296 0.6276 0.26086 0.0
C3344 C 0.31573 0.64417 0.25696 0.0
C3345 C 0.30754 0.59702 0.26965 0.0
C3346 C 0.29694 0.60858 0.27349 0.0
C3347 C 0.29975 0.62368 0.26898 0.0
C3348 C 0.28316 0.60551 0.28277 0.0
C3349 C 0.30523 0.5807 0.27463 0.0
C3350 C 0.27124 0.59643 0.27708 0.0
C3351 C 0.25776 0.59465 0.28549 0.0
C3352 C 0.25598 0.60198 0.29967 0.0
C3353 C 0.2681 0.6108 0.30543 0.0
C3354 C 0.28153 0.61257 0.29704 0.0
H3355 H 0.3158 0.5738 0.27333 0.0
H3356 H 0.30148 0.58021 0.28673 0.0
H3357 H 0.29615 0.57542 0.26754 0.0
H3358 H 0.27219 0.59108 0.26598 0.0
H3359 H 0.24863 0.58781 0.28071 0.0
H3360 H 0.85997 0.15029 0.28322 0.0
H3361 H 0.87154 0.17289 0.27161 0.0
H3362 H 0.8849 0.14616 0.23251 0.0
H3363 H 0.87348 0.12345 0.24403 0.0
H3364 H 0.90701 0.16978 0.24271 0.0
H3365 H 0.84755 0.19059 0.23411 0.0
H3366 H 0.85267 0.18555 0.25333 0.0
H3367 H 0.8518 0.17101 0.23891 0.0
C3368 C 0.86567 0.14912 0.2723 0.0
C3369 C 0.86558 0.13511 0.26443 0.0
C3370 C 0.87225 0.16205 0.26569 0.0
C3371 C 0.87884 0.1612 0.25112 0.0
C3372 C 0.87982 0.14703 0.24375 0.0
H3373 H 0.88544 0.22934 0.18136 0.0
H3374 H 0.88211 0.20622 0.19654 0.0
C3375 C 0.87324 0.13407 0.25035 0.0
C3376 C 0.88306 0.17527 0.24282 0.0
H3377 H 0.8674 0.20649 0.22557 0.0
C3378 C 0.89841 0.17788 0.23903 0.0
C3379 C 0.87172 0.18566 0.23787 0.0
C3380 C 0.85498 0.18308 0.24113 0.0
C3381 C 0.90273 0.19071 0.2304 0.0
C3382 C 0.89138 0.20111 0.22553 0.0
C3383 C 0.87606 0.19849 0.22938 0.0
C3384 C 0.89492 0.21455 0.21594 0.0
C3385 C 0.91928 0.19288 0.22619 0.0
C3386 C 0.90336 0.22683 0.2218 0.0
C3387 C 0.90527 0.24013 0.21315 0.0
C3388 C 0.8987 0.24134 0.19854 0.0
C3389 C 0.89062 0.22881 0.19258 0.0
C3390 C 0.88871 0.21558 0.20122 0.0
H3391 H 0.92616 0.18245 0.22842 0.0
H3392 H 0.92039 0.19597 0.21395 0.0
H3393 H 0.92412 0.20237 0.23304 0.0
H3394 H 0.90804 0.22633 0.23323 0.0
H3395 H 0.91154 0.24958 0.21808 0.0
H3396 H 0.23714 0.40861 0.73076 0.0
H3397 H 0.25959 0.40689 0.74735 0.0
H3398 H 0.28741 0.39477 0.70858 0.0
H3399 H 0.26513 0.39648 0.69193 0.0
H3400 H 0.27631 0.37975 0.75081 0.0
H3401 H 0.31367 0.42669 0.73089 0.0
H3402 H 0.29341 0.42616 0.727 0.0
H3403 H 0.30644 0.41508 0.71563 0.0
C3404 C 0.24809 0.40585 0.72571 0.0
C3405 C 0.24934 0.40262 0.71003 0.0
C3406 C 0.2609 0.40489 0.73521 0.0
C3407 C 0.27518 0.40091 0.72915 0.0
C3408 C 0.27655 0.39818 0.71343 0.0
H3409 H 0.3609 0.36448 0.75161 0.0
H3410 H 0.33885 0.37778 0.74109 0.0
C3411 C 0.26377 0.39904 0.70395 0.0
C3412 C 0.2883 0.39787 0.73936 0.0
H3413 H 0.32592 0.40643 0.74481 0.0
C3414 C 0.28709 0.38577 0.74977 0.0
C3415 C 0.30231 0.40575 0.7379 0.0
C3416 C 0.30403 0.41924 0.72735 0.0
C3417 C 0.2998 0.38067 0.75807 0.0
C3418 C 0.31401 0.38815 0.75615 0.0
C3419 C 0.31502 0.40073 0.74627 0.0
C3420 C 0.32822 0.382 0.76298 0.0
C3421 C 0.29811 0.36672 0.76806 0.0
C3422 C 0.32984 0.38045 0.77885 0.0
C3423 C 0.34241 0.37269 0.78494 0.0
C3424 C 0.35362 0.36651 0.77524 0.0
C3425 C 0.35243 0.36899 0.75942 0.0
C3426 C 0.33984 0.37664 0.75337 0.0
H3427 H 0.28723 0.36058 0.76588 0.0
H3428 H 0.30772 0.35867 0.76621 0.0
H3429 H 0.29822 0.37025 0.78023 0.0
H3430 H 0.32115 0.38481 0.78649 0.0
H3431 H 0.34308 0.37112 0.79718 0.0
H3432 H 0.12065 0.87058 0.24356 0.0
H3433 H 0.11007 0.84702 0.23301 0.0
H3434 H 0.13145 0.82116 0.26903 0.0
H3435 H 0.14194 0.84465 0.27978 0.0
H3436 H 0.12928 0.82427 0.22268 0.0
H3437 H 0.08939 0.8011 0.266 0.0
H3438 H 0.09545 0.82082 0.26589 0.0
H3439 H 0.10771 0.80627 0.27362 0.0
C3440 C 0.1228 0.85993 0.24947 0.0
C3441 C 0.13226 0.85948 0.26244 0.0
C3442 C 0.11673 0.84648 0.24342 0.0
C3443 C 0.11989 0.83236 0.25028 0.0
C3444 C 0.12862 0.83196 0.26371 0.0
H3445 H 0.11997 0.73786 0.22513 0.0
H3446 H 0.12065 0.76257 0.23808 0.0
C3447 C 0.1347 0.84541 0.26978 0.0
C3448 C 0.11589 0.81799 0.24232 0.0
H3449 H 0.09797 0.78366 0.24672 0.0
C3450 C 0.12223 0.81548 0.22782 0.0
C3451 C 0.10684 0.80651 0.24914 0.0
C3452 C 0.09933 0.80883 0.26446 0.0
C3453 C 0.12022 0.80157 0.22017 0.0
C3454 C 0.11134 0.78998 0.22707 0.0
C3455 C 0.10475 0.79259 0.24146 0.0
C3456 C 0.10946 0.77484 0.2198 0.0
C3457 C 0.12819 0.79919 0.20506 0.0
C3458 C 0.10256 0.77348 0.2054 0.0
C3459 C 0.10227 0.7594 0.1979 0.0
C3460 C 0.10874 0.7464 0.20475 0.0
C3461 C 0.11497 0.74766 0.2195 0.0
C3462 C 0.11533 0.76176 0.22695 0.0
H3463 H 0.13737 0.80773 0.20314 0.0
H3464 H 0.13327 0.7876 0.20439 0.0
H3465 H 0.11976 0.80035 0.19568 0.0
H3466 H 0.0977 0.78339 0.19983 0.0
H3467 H 0.09723 0.75878 0.18663 0.0
H3468 H 0.75557 0.59364 0.72505 0.0
H3469 H 0.73302 0.59669 0.7413 0.0
H3470 H 0.7072 0.61276 0.70259 0.0
H3471 H 0.72959 0.60969 0.68626 0.0
H3472 H 0.71796 0.62471 0.74593 0.0
H3473 H 0.67842 0.5813 0.72238 0.0
H3474 H 0.69877 0.58083 0.719 0.0
H3475 H 0.68675 0.59342 0.70811 0.0
C3476 C 0.74503 0.59761 0.71994 0.0
C3477 C 0.74438 0.60144 0.70436 0.0
C3478 C 0.73217 0.59934 0.72925 0.0
C3479 C 0.7184 0.60474 0.7231 0.0
C3480 C 0.71763 0.60827 0.7075 0.0
H3481 H 0.63354 0.64287 0.74904 0.0
H3482 H 0.65523 0.6303 0.73693 0.0
C3483 C 0.73048 0.60661 0.6982 0.0
C3484 C 0.70523 0.60803 0.73316 0.0
H3485 H 0.6672 0.60089 0.73786 0.0
C3486 C 0.70691 0.61933 0.74438 0.0
C3487 C 0.69085 0.601 0.73104 0.0
C3488 C 0.68858 0.58836 0.71958 0.0
C3489 C 0.6944 0.62439 0.75301 0.0
C3490 C 0.67989 0.6177 0.75057 0.0
C3491 C 0.67833 0.60599 0.73972 0.0
C3492 C 0.66599 0.62366 0.75815 0.0
C3493 C 0.69667 0.63743 0.76406 0.0
C3494 C 0.66457 0.62365 0.77411 0.0
C3495 C 0.6522 0.63094 0.78112 0.0
C3496 C 0.64098 0.63825 0.77224 0.0
C3497 C 0.64201 0.63745 0.75624 0.0
C3498 C 0.65439 0.63023 0.74927 0.0
H3499 H 0.70773 0.64336 0.76223 0.0
H3500 H 0.68731 0.64592 0.76298 0.0
H3501 H 0.69655 0.63294 0.7759 0.0
H3502 H 0.67324 0.61835 0.78116 0.0
H3503 H 0.65167 0.63123 0.79347 0.0
H3504 H 0.71732 0.86094 0.84867 0.0
H3505 H 0.72856 0.87366 0.82647 0.0
H3506 H 0.76642 0.88871 0.85407 0.0
H3507 H 0.75532 0.87607 0.87635 0.0
H3508 H 0.7412 0.90617 0.82137 0.0
H3509 H 0.78339 0.85856 0.81973 0.0
H3510 H 0.76552 0.85709 0.8299 0.0
H3511 H 0.78084 0.86825 0.83767 0.0
C3512 C 0.72787 0.86722 0.85011 0.0
C3513 C 0.73554 0.86731 0.86423 0.0
C3514 C 0.73425 0.87451 0.83743 0.0
C3515 C 0.74836 0.88195 0.83866 0.0
C3516 C 0.75554 0.88293 0.85293 0.0
H3517 H 0.81315 0.90434 0.76708 0.0
H3518 H 0.80056 0.90213 0.79188 0.0
C3519 C 0.74917 0.87569 0.86563 0.0
C3520 C 0.75637 0.88714 0.82476 0.0
H3521 H 0.78551 0.8774 0.80087 0.0
C3522 C 0.75095 0.89998 0.81688 0.0
C3523 C 0.76905 0.87899 0.81902 0.0
C3524 C 0.77505 0.86489 0.82691 0.0
C3525 C 0.75798 0.90493 0.80333 0.0
C3526 C 0.7705 0.89658 0.7974 0.0
C3527 C 0.77598 0.88385 0.80545 0.0
C3528 C 0.77775 0.90024 0.78255 0.0
C3529 C 0.75205 0.91914 0.79561 0.0
C3530 C 0.76909 0.90017 0.76906 0.0
C3531 C 0.77625 0.90157 0.75486 0.0
C3532 C 0.79223 0.90279 0.7539 0.0
C3533 C 0.80083 0.90335 0.76744 0.0
C3534 C 0.79365 0.90211 0.78162 0.0
H3535 H 0.74615 0.92676 0.80386 0.0
H3536 H 0.76142 0.92562 0.79005 0.0
H3537 H 0.74365 0.91584 0.78673 0.0
H3538 H 0.75687 0.89835 0.76944 0.0
H3539 H 0.76931 0.90101 0.74465 0.0
H3540 H 0.60702 0.31735 0.26712 0.0
H3541 H 0.60825 0.30256 0.29077 0.0
H3542 H 0.5938 0.26225 0.26652 0.0
H3543 H 0.59248 0.27694 0.24275 0.0
H3544 H 0.5844 0.28171 0.30582 0.0
H3545 H 0.63779 0.25354 0.28555 0.0
H3546 H 0.63107 0.27127 0.27748 0.0
H3547 H 0.62154 0.25373 0.27296 0.0
C3548 C 0.60391 0.30538 0.26682 0.0
C3549 C 0.5998 0.29828 0.25302 0.0
C3550 C 0.60457 0.29698 0.28036 0.0
C3551 C 0.60121 0.28134 0.2803 0.0
C3552 C 0.59649 0.27432 0.26672 0.0
H3553 H 0.62981 0.21831 0.35192 0.0
H3554 H 0.61717 0.22787 0.32893 0.0
C3555 C 0.59574 0.28274 0.25317 0.0
C3556 C 0.60388 0.27222 0.29423 0.0
H3557 H 0.62972 0.24804 0.3104 0.0
C3558 C 0.59419 0.2742 0.30683 0.0
C3559 C 0.6166 0.26238 0.2954 0.0
C3560 C 0.62745 0.26008 0.2822 0.0
C3561 C 0.5971 0.26677 0.32074 0.0
C3562 C 0.61026 0.25749 0.32214 0.0
C3563 C 0.61961 0.25512 0.30933 0.0
C3564 C 0.61541 0.25117 0.337 0.0
C3565 C 0.58606 0.26898 0.33377 0.0
C3566 C 0.61834 0.261 0.34931 0.0
C3567 C 0.62543 0.25554 0.3625 0.0
C3568 C 0.62999 0.24019 0.36354 0.0
C3569 C 0.62648 0.23021 0.35146 0.0
C3570 C 0.61925 0.23566 0.33831 0.0
H3571 H 0.57436 0.27139 0.3295 0.0
H3572 H 0.58562 0.25878 0.34128 0.0
H3573 H 0.58973 0.27893 0.34069 0.0
H3574 H 0.61588 0.27308 0.34844 0.0
H3575 H 0.62803 0.26356 0.37155 0.0
H3576 H 0.17932 0.09937 0.76463 0.0
H3577 H 0.19237 0.10248 0.78911 0.0
H3578 H 0.23544 0.10723 0.7657 0.0
H3579 H 0.22255 0.10371 0.74118 0.0
H3580 H 0.23793 0.09009 0.79209 0.0
H3581 H 0.20675 0.14419 0.8031 0.0
H3582 H 0.19448 0.12805 0.80015 0.0
H3583 H 0.20637 0.13476 0.7848 0.0
C3584 C 0.19159 0.10094 0.76469 0.0
C3585 C 0.19988 0.10148 0.75096 0.0
C3586 C 0.19902 0.10278 0.77869 0.0
C3587 C 0.21481 0.10543 0.77919 0.0
C3588 C 0.22322 0.10528 0.76556 0.0
H3589 H 0.27961 0.13772 0.84561 0.0
H3590 H 0.26741 0.12596 0.82341 0.0
C3591 C 0.21583 0.10329 0.75155 0.0
C3592 C 0.22246 0.10914 0.79382 0.0
H3593 H 0.22266 0.13512 0.82286 0.0
C3594 C 0.23459 0.09991 0.79884 0.0
C3595 C 0.21815 0.12204 0.80255 0.0
C3596 C 0.20583 0.13293 0.79733 0.0
C3597 C 0.24243 0.10319 0.81246 0.0
C3598 C 0.23805 0.11605 0.82116 0.0
C3599 C 0.22587 0.12518 0.81621 0.0
C3600 C 0.24628 0.12078 0.83512 0.0
C3601 C 0.25525 0.09288 0.8175 0.0
C3602 C 0.2385 0.12158 0.84909 0.0
C3603 C 0.24542 0.1283 0.86179 0.0
C3604 C 0.26019 0.13452 0.86068 0.0
C3605 C 0.26822 0.13305 0.84685 0.0
C3606 C 0.26131 0.12625 0.83417 0.0
H3607 H 0.25489 0.08167 0.81157 0.0
H3608 H 0.26634 0.0984 0.81481 0.0
H3609 H 0.2548 0.09093 0.83001 0.0
H3610 H 0.22686 0.11748 0.85001 0.0
H3611 H 0.23891 0.12922 0.87227 0.0
H3612 H 0.37632 0.74528 0.37484 0.0
H3613 H 0.3868 0.73111 0.35319 0.0
H3614 H 0.36417 0.76184 0.32208 0.0
H3615 H 0.35392 0.77623 0.34358 0.0
H3616 H 0.36897 0.71613 0.3334 0.0
H3617 H 0.40501 0.75678 0.30132 0.0
H3618 H 0.39912 0.76021 0.32079 0.0
H3619 H 0.38648 0.7646 0.30518 0.0
C3620 C 0.37389 0.74926 0.36339 0.0
C3621 C 0.36419 0.76182 0.36094 0.0
C3622 C 0.37989 0.74115 0.35103 0.0
C3623 C 0.37638 0.74548 0.33601 0.0
C3624 C 0.36733 0.75848 0.33354 0.0
H3625 H 0.35836 0.69213 0.25752 0.0
H3626 H 0.35877 0.70694 0.2811 0.0
C3627 C 0.36138 0.76664 0.34588 0.0
C3628 C 0.38035 0.73535 0.32304 0.0
H3629 H 0.39512 0.73531 0.28696 0.0
C3630 C 0.37494 0.72026 0.32336 0.0
C3631 C 0.38828 0.74065 0.31001 0.0
C3632 C 0.39519 0.75641 0.30936 0.0
C3633 C 0.37651 0.71061 0.3107 0.0
C3634 C 0.38342 0.71629 0.29727 0.0
C3635 C 0.38962 0.73107 0.29722 0.0
C3636 C 0.38341 0.70737 0.28292 0.0
C3637 C 0.37049 0.6945 0.31171 0.0
C3638 C 0.39716 0.70302 0.27594 0.0
C3639 C 0.39697 0.69456 0.26239 0.0
C3640 C 0.38302 0.69046 0.25555 0.0
C3641 C 0.3693 0.69503 0.26251 0.0
C3642 C 0.3695 0.70343 0.27604 0.0
H3643 H 0.36978 0.69055 0.32375 0.0
H3644 H 0.35882 0.69409 0.30679 0.0
H3645 H 0.37783 0.68645 0.30521 0.0
H3646 H 0.40801 0.70606 0.28105 0.0
H3647 H 0.40774 0.69127 0.25727 0.0
H3648 H 0.72056 0.14013 0.15081 0.0
H3649 H 0.73233 0.1296 0.17386 0.0
H3650 H 0.77289 0.11853 0.14828 0.0
H3651 H 0.76128 0.12902 0.12516 0.0
H3652 H 0.74765 0.09924 0.18045 0.0
H3653 H 0.78559 0.15023 0.18252 0.0
H3654 H 0.76826 0.14981 0.17137 0.0
H3655 H 0.78495 0.13993 0.16476 0.0
C3656 C 0.73188 0.13521 0.15001 0.0
C3657 C 0.74006 0.13559 0.13618 0.0
C3658 C 0.73856 0.12918 0.16319 0.0
C3659 C 0.75351 0.12349 0.16276 0.0
C3660 C 0.76137 0.12301 0.14882 0.0
H3661 H 0.81819 0.10545 0.23559 0.0
H3662 H 0.8057 0.10772 0.21075 0.0
C3663 C 0.7547 0.129 0.13563 0.0
C3664 C 0.76137 0.11934 0.1771 0.0
H3665 H 0.78901 0.1317 0.20158 0.0
C3666 C 0.75673 0.10627 0.18509 0.0
C3667 C 0.77318 0.12858 0.18305 0.0
C3668 C 0.77828 0.14299 0.17509 0.0
C3669 C 0.76375 0.1021 0.19891 0.0
C3670 C 0.77543 0.11148 0.20499 0.0
C3671 C 0.7801 0.12449 0.19688 0.0
C3672 C 0.78276 0.10839 0.21994 0.0
C3673 C 0.75874 0.0876 0.20673 0.0
C3674 C 0.77401 0.1079 0.23336 0.0
C3675 C 0.78112 0.1065 0.24758 0.0
C3676 C 0.79713 0.1058 0.24865 0.0
C3677 C 0.80584 0.10601 0.23517 0.0
C3678 C 0.79872 0.10729 0.22096 0.0
H3679 H 0.75335 0.07953 0.19855 0.0
H3680 H 0.76852 0.08179 0.21233 0.0
H3681 H 0.75015 0.09041 0.2156 0.0
H3682 H 0.76171 0.10912 0.23289 0.0
H3683 H 0.77409 0.10647 0.25775 0.0
H3684 H 0.40133 0.31931 0.7302 0.0
H3685 H 0.40091 0.30639 0.70543 0.0
H3686 H 0.39046 0.26376 0.72774 0.0
H3687 H 0.39126 0.27647 0.75255 0.0
H3688 H 0.4107 0.26025 0.70355 0.0
H3689 H 0.36011 0.29471 0.68664 0.0
H3690 H 0.37672 0.30568 0.69151 0.0
H3691 H 0.36733 0.29447 0.70591 0.0
C3692 C 0.39912 0.30715 0.72985 0.0
C3693 C 0.39611 0.29895 0.74332 0.0
C3694 C 0.39883 0.2998 0.71569 0.0
C3695 C 0.39532 0.2842 0.71475 0.0
C3696 C 0.39312 0.27583 0.72822 0.0
H3697 H 0.36393 0.21835 0.65081 0.0
H3698 H 0.37633 0.2314 0.67209 0.0
C3699 C 0.39354 0.28313 0.74239 0.0
C3700 C 0.39286 0.27675 0.69976 0.0
H3701 H 0.36928 0.27701 0.66876 0.0
C3702 C 0.40173 0.26397 0.69587 0.0
C3703 C 0.38109 0.2816 0.6898 0.0
C3704 C 0.37066 0.29477 0.69369 0.0
C3705 C 0.39904 0.25581 0.68232 0.0
C3706 C 0.38709 0.26051 0.67255 0.0
C3707 C 0.37852 0.27352 0.67624 0.0
C3708 C 0.38232 0.25152 0.65905 0.0
C3709 C 0.40891 0.2422 0.67862 0.0
C3710 C 0.38177 0.2584 0.64461 0.0
C3711 C 0.37462 0.251 0.63242 0.0
C3712 C 0.36774 0.23664 0.63454 0.0
C3713 C 0.3691 0.2294 0.6488 0.0
C3714 C 0.37628 0.2368 0.66097 0.0
H3715 H 0.42006 0.24276 0.68464 0.0
H3716 H 0.40298 0.23164 0.68235 0.0
H3717 H 0.41102 0.24135 0.66615 0.0
H3718 H 0.38629 0.26979 0.64293 0.0
H3719 H 0.37381 0.25688 0.62158 0.0
H3720 H 0.18428 0.88014 0.23398 0.0
H3721 H 0.20125 0.87544 0.21243 0.0
H3722 H 0.23297 0.90885 0.22983 0.0
H3723 H 0.21616 0.91342 0.25173 0.0
H3724 H 0.21345 0.89371 0.18973 0.0
H3725 H 0.25886 0.87018 0.22752 0.0
H3726 H 0.23979 0.87397 0.2343 0.0
H3727 H 0.25293 0.88944 0.23137 0.0
C3728 C 0.1948 0.88661 0.2332 0.0
C3729 C 0.19897 0.897 0.24469 0.0
C3730 C 0.20447 0.88393 0.22083 0.0
C3731 C 0.21848 0.8916 0.21967 0.0
C3732 C 0.22234 0.90259 0.23068 0.0
H3733 H 0.27188 0.86838 0.13696 0.0
H3734 H 0.26071 0.88445 0.15702 0.0
C3735 C 0.21268 0.90523 0.24314 0.0
C3736 C 0.22927 0.88726 0.20738 0.0
H3737 H 0.26286 0.86849 0.20114 0.0
C3738 C 0.22438 0.88842 0.19217 0.0
C3739 C 0.24347 0.88028 0.21066 0.0
C3740 C 0.24909 0.87825 0.22683 0.0
C3741 C 0.23295 0.88211 0.18018 0.0
C3742 C 0.24692 0.87471 0.18352 0.0
C3743 C 0.25218 0.87425 0.19865 0.0
C3744 C 0.25511 0.86554 0.17191 0.0
C3745 C 0.22652 0.88256 0.1642 0.0
C3746 C 0.25621 0.8497 0.17392 0.0
C3747 C 0.26266 0.84055 0.16261 0.0
C3748 C 0.26816 0.84706 0.14902 0.0
C3749 C 0.26765 0.86302 0.14726 0.0
C3750 C 0.2612 0.8722 0.15866 0.0
H3751 H 0.21445 0.88646 0.164 0.0
H3752 H 0.23337 0.89055 0.15716 0.0
H3753 H 0.22715 0.87109 0.15882 0.0
H3754 H 0.25162 0.84433 0.18408 0.0
H3755 H 0.26295 0.82832 0.16439 0.0
H3756 H 0.62968 0.75741 0.63097 0.0
H3757 H 0.61604 0.74364 0.651 0.0
H3758 H 0.62249 0.78161 0.68167 0.0
H3759 H 0.63606 0.79555 0.66166 0.0
H3760 H 0.63151 0.73652 0.67797 0.0
H3761 H 0.57815 0.76835 0.69041 0.0
H3762 H 0.5885 0.77046 0.67268 0.0
H3763 H 0.59506 0.77995 0.68965 0.0
C3764 C 0.62789 0.76301 0.64185 0.0
C3765 C 0.63411 0.77753 0.64477 0.0
C3766 C 0.62006 0.75512 0.65327 0.0
C3767 C 0.61819 0.76163 0.66778 0.0
C3768 C 0.62357 0.77648 0.67047 0.0
H3769 H 0.60036 0.72978 0.75861 0.0
H3770 H 0.6032 0.74475 0.73523 0.0
C3771 C 0.63142 0.7844 0.65903 0.0
C3772 C 0.6127 0.75211 0.68061 0.0
H3773 H 0.58592 0.74981 0.70886 0.0
C3774 C 0.62142 0.73929 0.6846 0.0
C3775 C 0.59965 0.75589 0.68932 0.0
C3776 C 0.5897 0.76934 0.68526 0.0
C3777 C 0.61773 0.73037 0.69735 0.0
C3778 C 0.6047 0.73415 0.70613 0.0
C3779 C 0.59584 0.74688 0.70204 0.0
C3780 C 0.60069 0.72542 0.72005 0.0
C3781 C 0.62823 0.71738 0.70165 0.0
C3782 C 0.59772 0.7097 0.71923 0.0
C3783 C 0.59628 0.70108 0.73256 0.0
C3784 C 0.59754 0.70809 0.74695 0.0
C3785 C 0.59941 0.72402 0.74771 0.0
C3786 C 0.601 0.7326 0.73436 0.0
H3787 H 0.63957 0.7184 0.69605 0.0
H3788 H 0.62997 0.7169 0.7142 0.0
H3789 H 0.62305 0.70643 0.69795 0.0
H3790 H 0.59708 0.704 0.70827 0.0
H3791 H 0.59464 0.68886 0.7316 0.0
H3792 H 0.8336 0.73536 0.83123 0.0
H3793 H 0.8143 0.74711 0.84738 0.0
H3794 H 0.84337 0.74138 0.88671 0.0
H3795 H 0.86305 0.72974 0.87045 0.0
H3796 H 0.79886 0.73624 0.8729 0.0
H3797 H 0.83415 0.78739 0.88654 0.0
H3798 H 0.8393 0.77419 0.87158 0.0
H3799 H 0.84209 0.76904 0.89122 0.0
C3800 C 0.83593 0.73651 0.84332 0.0
C3801 C 0.84993 0.73174 0.84953 0.0
C3802 C 0.82484 0.7432 0.85255 0.0
C3803 C 0.82747 0.74528 0.86819 0.0
C3804 C 0.84123 0.74009 0.8746 0.0
H3805 H 0.7475 0.78368 0.91643 0.0
H3806 H 0.76999 0.76753 0.91226 0.0
C3807 C 0.85241 0.73339 0.86532 0.0
C3808 C 0.81584 0.7534 0.8774 0.0
H3809 H 0.80859 0.7877 0.89444 0.0
C3810 C 0.801 0.74738 0.87788 0.0
C3811 C 0.81873 0.76795 0.88378 0.0
C3812 C 0.83438 0.77514 0.88323 0.0
C3813 C 0.78877 0.75586 0.8838 0.0
C3814 C 0.79155 0.77065 0.88968 0.0
C3815 C 0.80654 0.77633 0.88997 0.0
C3816 C 0.77887 0.78112 0.89364 0.0
C3817 C 0.77284 0.74934 0.88275 0.0
C3818 C 0.77677 0.79442 0.88498 0.0
C3819 C 0.76407 0.80371 0.88741 0.0
C3820 C 0.75317 0.79987 0.89854 0.0
C3821 C 0.75562 0.78688 0.90767 0.0
C3822 C 0.76842 0.7776 0.90527 0.0
H3823 H 0.77239 0.73896 0.87547 0.0
H3824 H 0.76884 0.74617 0.89434 0.0
H3825 H 0.76479 0.75792 0.87803 0.0
H3826 H 0.78472 0.79736 0.87596 0.0
H3827 H 0.76259 0.81366 0.88022 0.0
H3828 H 0.85151 0.27948 0.13298 0.0
H3829 H 0.82783 0.27107 0.12073 0.0
H3830 H 0.84546 0.22516 0.11806 0.0
H3831 H 0.86928 0.23353 0.12981 0.0
H3832 H 0.82888 0.23276 0.0927 0.0
H3833 H 0.79691 0.24742 0.1456 0.0
H3834 H 0.8067 0.26313 0.13684 0.0
H3835 H 0.81747 0.24756 0.14477 0.0
C3836 C 0.85044 0.26765 0.12956 0.0
C3837 C 0.86219 0.25713 0.13256 0.0
C3838 C 0.83686 0.26284 0.12265 0.0
C3839 C 0.83474 0.24741 0.11886 0.0
C3840 C 0.84682 0.23711 0.12099 0.0
H3841 H 0.7654 0.18206 0.10209 0.0
H3842 H 0.78905 0.19673 0.10401 0.0
C3843 C 0.86043 0.24192 0.12774 0.0
C3844 C 0.81968 0.24166 0.1137 0.0
H3845 H 0.78289 0.23649 0.12556 0.0
C3846 C 0.81878 0.2337 0.09981 0.0
C3847 C 0.80652 0.24284 0.12304 0.0
C3848 C 0.8069 0.25057 0.13845 0.0
C3849 C 0.80516 0.22663 0.09515 0.0
C3850 C 0.79217 0.22752 0.10468 0.0
C3851 C 0.79289 0.23593 0.11827 0.0
C3852 C 0.7781 0.21873 0.10152 0.0
C3853 C 0.8048 0.21811 0.0802 0.0
C3854 C 0.76411 0.22626 0.09948 0.0
C3855 C 0.75055 0.21791 0.09836 0.0
C3856 C 0.75075 0.20189 0.09951 0.0
C3857 C 0.76485 0.19438 0.10116 0.0
C3858 C 0.77839 0.20274 0.10215 0.0
H3859 H 0.81413 0.22184 0.07246 0.0
H3860 H 0.80627 0.20573 0.08244 0.0
H3861 H 0.79368 0.21974 0.07432 0.0
H3862 H 0.76367 0.23862 0.09911 0.0
H3863 H 0.73988 0.22404 0.09714 0.0
H3864 H 0.23637 0.36134 0.63756 0.0
H3865 H 0.24861 0.33963 0.62486 0.0
H3866 H 0.24006 0.31162 0.66445 0.0
H3867 H 0.22818 0.33328 0.67731 0.0
H3868 H 0.2696 0.31072 0.65565 0.0
H3869 H 0.23196 0.30075 0.60564 0.0
H3870 H 0.23881 0.32 0.60737 0.0
H3871 H 0.22624 0.31237 0.62168 0.0
C3872 C 0.23689 0.35048 0.64345 0.0
C3873 C 0.23139 0.34904 0.65847 0.0
C3874 C 0.24381 0.33806 0.63614 0.0
C3875 C 0.24514 0.32397 0.64366 0.0
C3876 C 0.23916 0.32239 0.65844 0.0
H3877 H 0.27406 0.23517 0.61259 0.0
H3878 H 0.25972 0.25809 0.61953 0.0
C3879 C 0.23238 0.33479 0.66577 0.0
C3880 C 0.25384 0.31118 0.63678 0.0
H3881 H 0.25525 0.28682 0.60635 0.0
C3882 C 0.26645 0.30549 0.64487 0.0
C3883 C 0.24966 0.30433 0.62277 0.0
C3884 C 0.23585 0.30956 0.6139 0.0
C3885 C 0.27494 0.29308 0.63942 0.0
C3886 C 0.27097 0.28641 0.62525 0.0
C3887 C 0.25837 0.29209 0.61712 0.0
C3888 C 0.27938 0.27305 0.61917 0.0
C3889 C 0.28781 0.28695 0.64912 0.0
C3890 C 0.29509 0.27399 0.61615 0.0
C3891 C 0.30335 0.26089 0.61233 0.0
C3892 C 0.29599 0.24665 0.61127 0.0
C3893 C 0.28009 0.24594 0.61338 0.0
C3894 C 0.27186 0.25903 0.61732 0.0
H3895 H 0.2869 0.29084 0.66117 0.0
H3896 H 0.28797 0.27428 0.64898 0.0
H3897 H 0.29886 0.29111 0.64452 0.0
H3898 H 0.30104 0.28477 0.61719 0.0
H3899 H 0.31556 0.26186 0.61059 0.0
H3900 H 0.23449 0.81076 0.11476 0.0
H3901 H 0.2121 0.79479 0.11887 0.0
H3902 H 0.22701 0.76434 0.08315 0.0
H3903 H 0.24979 0.78012 0.07919 0.0
H3904 H 0.18827 0.78477 0.10105 0.0
H3905 H 0.22474 0.73626 0.12003 0.0
H3906 H 0.23232 0.75515 0.11703 0.0
H3907 H 0.22802 0.74311 0.10099 0.0
C3908 C 0.23297 0.80076 0.10763 0.0
C3909 C 0.24406 0.79658 0.0968 0.0
C3910 C 0.22012 0.79166 0.10997 0.0
C3911 C 0.21803 0.77822 0.10151 0.0
C3912 C 0.22858 0.77449 0.09003 0.0
H3913 H 0.13424 0.72676 0.1261 0.0
H3914 H 0.15354 0.73866 0.10959 0.0
C3915 C 0.24154 0.78356 0.08774 0.0
C3916 C 0.20539 0.76776 0.10567 0.0
H3917 H 0.19833 0.73347 0.12278 0.0
C3918 C 0.19039 0.77343 0.10556 0.0
C3919 C 0.20826 0.75302 0.11164 0.0
C3920 C 0.22419 0.7465 0.11258 0.0
C3921 C 0.17829 0.7651 0.112 0.0
C3922 C 0.18127 0.75059 0.11844 0.0
C3923 C 0.1961 0.74457 0.11777 0.0
C3924 C 0.16978 0.74248 0.12783 0.0
C3925 C 0.16265 0.7723 0.11275 0.0
C3926 C 0.17271 0.74027 0.1434 0.0
C3927 C 0.16184 0.73341 0.15278 0.0
C3928 C 0.14776 0.7286 0.14678 0.0
C3929 C 0.14495 0.73043 0.13107 0.0
C3930 C 0.15592 0.73729 0.12164 0.0
H3931 H 0.16286 0.78455 0.10945 0.0
H3932 H 0.15485 0.76622 0.10484 0.0
H3933 H 0.15786 0.77134 0.12445 0.0
H3934 H 0.18333 0.74418 0.14841 0.0
H3935 H 0.16442 0.73215 0.1648 0.0
H3936 H 0.73604 0.62327 0.62658 0.0
H3937 H 0.72512 0.64603 0.61471 0.0
H3938 H 0.76449 0.67222 0.62844 0.0
H3939 H 0.77557 0.64952 0.64025 0.0
H3940 H 0.71841 0.6716 0.63248 0.0
H3941 H 0.75683 0.68717 0.58461 0.0
H3942 H 0.75648 0.66828 0.59291 0.0
H3943 H 0.76653 0.68352 0.60231 0.0
C3944 C 0.74256 0.63378 0.62677 0.0
C3945 C 0.75663 0.63461 0.63447 0.0
C3946 C 0.73629 0.64677 0.61997 0.0
C3947 C 0.74404 0.66077 0.6206 0.0
C3948 C 0.75845 0.66146 0.62757 0.0
H3949 H 0.72317 0.75586 0.61148 0.0
H3950 H 0.73513 0.73071 0.61325 0.0
C3951 C 0.76472 0.64848 0.63441 0.0
C3952 C 0.73621 0.67499 0.61587 0.0
H3953 H 0.73946 0.70647 0.59312 0.0
C3954 C 0.72287 0.67913 0.62371 0.0
C3955 C 0.74217 0.68482 0.60456 0.0
C3956 C 0.75622 0.68069 0.5955 0.0
C3957 C 0.7156 0.6931 0.62094 0.0
C3958 C 0.72163 0.70305 0.60972 0.0
C3959 C 0.73483 0.69879 0.60167 0.0
C3960 C 0.71478 0.71825 0.60685 0.0
C3961 C 0.70192 0.69736 0.63054 0.0
C3962 C 0.69952 0.7196 0.60217 0.0
C3963 C 0.69259 0.73394 0.60131 0.0
C3964 C 0.70089 0.74721 0.60491 0.0
C3965 C 0.71643 0.74587 0.60871 0.0
C3966 C 0.72331 0.73151 0.60969 0.0
H3967 H 0.70109 0.69026 0.64102 0.0
H3968 H 0.7024 0.70956 0.63398 0.0
H3969 H 0.69135 0.69557 0.6238 0.0
H3970 H 0.69284 0.70952 0.59958 0.0
H3971 H 0.68065 0.7346 0.59815 0.0
H3972 H 0.16298 0.28969 0.85137 0.0
H3973 H 0.18413 0.27597 0.86346 0.0
H3974 H 0.15461 0.23746 0.87168 0.0
H3975 H 0.1334 0.251 0.85962 0.0
H3976 H 0.18694 0.25953 0.89405 0.0
H3977 H 0.19022 0.2227 0.84234 0.0
H3978 H 0.18055 0.24091 0.84234 0.0
H3979 H 0.17173 0.22461 0.85109 0.0
C3980 C 0.1609 0.27841 0.85598 0.0
C3981 C 0.14655 0.27136 0.85434 0.0
C3982 C 0.17299 0.27061 0.86292 0.0
C3983 C 0.17092 0.25568 0.86827 0.0
C3984 C 0.15642 0.24896 0.86748 0.0
H3985 H 0.23541 0.18407 0.8903 0.0
H3986 H 0.21218 0.19908 0.88668 0.0
C3987 C 0.14432 0.25672 0.86059 0.0
C3988 C 0.18419 0.24659 0.87335 0.0
H3989 H 0.20707 0.21706 0.86242 0.0
C3990 C 0.19137 0.25022 0.8872 0.0
C3991 C 0.18988 0.23449 0.86433 0.0
C3992 C 0.18281 0.23045 0.84913 0.0
C3993 C 0.20405 0.24185 0.89238 0.0
C3994 C 0.20983 0.22982 0.88326 0.0
C3995 C 0.20258 0.22622 0.86943 0.0
C3996 C 0.22363 0.22096 0.88748 0.0
C3997 C 0.21097 0.24581 0.90764 0.0
C3998 C 0.23777 0.22828 0.88934 0.0
C3999 C 0.25107 0.21973 0.89152 0.0
C4000 C 0.25049 0.20368 0.89165 0.0
C4001 C 0.23625 0.1964 0.8902 0.0
C4002 C 0.22296 0.20497 0.88815 0.0
H4003 H 0.20266 0.25185 0.91509 0.0
H4004 H 0.21503 0.23542 0.91367 0.0
H4005 H 0.22088 0.2535 0.90585 0.0
H4006 H 0.23864 0.24059 0.88849 0.0
H4007 H 0.26187 0.22567 0.89251 0.0
H4008 H 0.27342 0.76247 0.39754 0.0
H4009 H 0.25836 0.73896 0.39581 0.0
H4010 H 0.29976 0.71269 0.39141 0.0
H4011 H 0.3149 0.73606 0.39306 0.0
H4012 H 0.26045 0.71902 0.36952 0.0
H4013 H 0.27383 0.68896 0.42364 0.0
H4014 H 0.27615 0.70934 0.42132 0.0
H4015 H 0.29016 0.69644 0.4137 0.0
C4016 C 0.27933 0.75167 0.39646 0.0
C4017 C 0.29535 0.75112 0.39538 0.0
C4018 C 0.27071 0.73826 0.39548 0.0
C4019 C 0.27798 0.72411 0.39367 0.0
C4020 C 0.29397 0.72349 0.39308 0.0
H4021 H 0.26231 0.63255 0.3678 0.0
H4022 H 0.27072 0.6566 0.37901 0.0
C4023 C 0.30259 0.73687 0.39391 0.0
C4024 C 0.26894 0.71016 0.39078 0.0
H4025 H 0.26286 0.67391 0.40368 0.0
C4026 C 0.26071 0.70922 0.37709 0.0
C4027 C 0.26943 0.69744 0.40068 0.0
C4028 C 0.27776 0.69807 0.41573 0.0
C4029 C 0.25364 0.69558 0.37258 0.0
C4030 C 0.25446 0.68267 0.38229 0.0
C4031 C 0.2622 0.68382 0.39629 0.0
C4032 C 0.24862 0.66755 0.37742 0.0
C4033 C 0.24616 0.6949 0.35706 0.0
C4034 C 0.23325 0.6655 0.37335 0.0
C4035 C 0.22843 0.65179 0.36673 0.0
C4036 C 0.23887 0.63983 0.36431 0.0
C4037 C 0.25399 0.64155 0.36941 0.0
C4038 C 0.25882 0.6553 0.37586 0.0
H4039 H 0.24958 0.70466 0.34971 0.0
H4040 H 0.24913 0.68413 0.35106 0.0
H4041 H 0.23358 0.69532 0.35845 0.0
H4042 H 0.22509 0.67467 0.37483 0.0
H4043 H 0.21666 0.65074 0.36309 0.0
H4044 H 0.77987 0.34538 0.36057 0.0
H4045 H 0.76673 0.32339 0.37172 0.0
H4046 H 0.72778 0.35166 0.38198 0.0
H4047 H 0.74075 0.37373 0.37085 0.0
H4048 H 0.75094 0.31835 0.40206 0.0
H4049 H 0.71311 0.31766 0.35095 0.0
H4050 H 0.73107 0.32778 0.35126 0.0
H4051 H 0.71476 0.33551 0.36096 0.0
C4052 C 0.76863 0.34701 0.36546 0.0
C4053 C 0.76128 0.36127 0.36464 0.0
C4054 C 0.76116 0.33443 0.37184 0.0
C4055 C 0.74625 0.33591 0.37746 0.0
C4056 C 0.73925 0.35031 0.37755 0.0
H4057 H 0.67762 0.26677 0.39575 0.0
H4058 H 0.69133 0.29097 0.3936 0.0
C4059 C 0.7467 0.3629 0.3712 0.0
C4060 C 0.7375 0.32217 0.38185 0.0
H4061 H 0.70859 0.29909 0.36971 0.0
C4062 C 0.74163 0.31412 0.39507 0.0
C4063 C 0.7254 0.31675 0.37265 0.0
C4064 C 0.72082 0.32477 0.35809 0.0
C4065 C 0.73384 0.30078 0.3994 0.0
C4066 C 0.72188 0.29522 0.39004 0.0
C4067 C 0.71771 0.30339 0.37691 0.0
C4068 C 0.7138 0.28068 0.39322 0.0
C4069 C 0.73835 0.2929 0.41402 0.0
C4070 C 0.72188 0.26685 0.39387 0.0
C4071 C 0.71407 0.25299 0.3952 0.0
C4072 C 0.69802 0.2527 0.39567 0.0
C4073 C 0.68998 0.26659 0.39537 0.0
C4074 C 0.6978 0.28044 0.39416 0.0
H4075 H 0.74406 0.3009 0.42204 0.0
H4076 H 0.72827 0.28783 0.41982 0.0
H4077 H 0.74653 0.28359 0.41138 0.0
H4078 H 0.7342 0.26671 0.39277 0.0
H4079 H 0.7206 0.24249 0.39531 0.0
loop_
_geom_bond_atom_site_label_1
_geom_bond_atom_site_label_2
_geom_bond_distance
_geom_bond_site_symmetry_2
_ccdc_geom_bond_type
C0 O1 1.160 . S
C0 O7 1.185 . S
O1 C0 1.160 . S
O2 Zn3 1.899 . S
O2 C10 1.284 . S
Zn3 O2 1.899 . S
Zn3 O4 2.032 . S
Zn3 O7 2.086 . S
Zn3 O12 1.977 . S
O4 Zn3 2.032 . S
O4 C8 1.278 . S
C5 O6 1.203 . S
C5 O12 1.267 . S
O6 C5 1.203 . S
O7 C0 1.185 . S
O7 Zn3 2.086 . S
C8 O4 1.278 . S
C8 O9 1.211 . S
O9 C8 1.211 . S
C10 O2 1.284 . S
C10 O11 1.273 . S
O11 C10 1.273 . S
O12 Zn3 1.977 . S
O12 C5 1.267 . S
C13 O14 1.160 . S
C13 O20 1.185 . S
O14 C13 1.160 . S
O15 Zn16 1.899 . S
O15 C23 1.284 . S
Zn16 O15 1.899 . S
Zn16 O17 2.032 . S
Zn16 O20 2.086 . S
Zn16 O25 1.977 . S
O17 Zn16 2.032 . S
O17 C21 1.278 . S
C18 O19 1.203 . S
C18 O25 1.267 . S
O19 C18 1.203 . S
O20 C13 1.185 . S
O20 Zn16 2.086 . S
C21 O17 1.278 . S
C21 O22 1.211 . S
O22 C21 1.211 . S
C23 O15 1.284 . S
C23 O24 1.273 . S
O24 C23 1.273 . S
O25 Zn16 1.977 . S
O25 C18 1.267 . S
C26 O27 1.160 . S
C26 O33 1.185 . S
O27 C26 1.160 . S
O28 Zn29 1.899 . S
O28 C36 1.284 . S
Zn29 O28 1.899 . S
Zn29 O30 2.032 . S
Zn29 O33 2.086 . S
Zn29 O38 1.977 . S
O30 Zn29 2.032 . S
O30 C34 1.278 . S
C31 O32 1.203 . S
C31 O38 1.267 . S
O32 C31 1.203 . S
O33 C26 1.185 . S
O33 Zn29 2.086 . S
C34 O30 1.278 . S
C34 O35 1.211 . S
O35 C34 1.211 . S
C36 O28 1.284 . S
C36 O37 1.273 . S
O37 C36 1.273 . S
O38 Zn29 1.977 . S
O38 C31 1.267 . S
C39 O40 1.160 . S
C39 O46 1.185 . S
O40 C39 1.160 . S
O41 Zn42 1.899 . S
O41 C49 1.284 . S
Zn42 O41 1.899 . S
Zn42 O43 2.032 . S
Zn42 O46 2.086 . S
Zn42 O51 1.977 . S
O43 Zn42 2.032 . S
O43 C47 1.278 . S
C44 O45 1.203 . S
C44 O51 1.267 . S
O45 C44 1.203 . S
O46 C39 1.185 . S
O46 Zn42 2.086 . S
C47 O43 1.278 . S
C47 O48 1.211 . S
O48 C47 1.211 . S
C49 O41 1.284 . S
C49 O50 1.273 . S
O50 C49 1.273 . S
O51 Zn42 1.977 . S
O51 C44 1.267 . S
C52 O53 1.160 . S
C52 O59 1.185 . S
O53 C52 1.160 . S
O54 Zn55 1.899 . S
O54 C62 1.284 . S
Zn55 O54 1.899 . S
Zn55 O56 2.032 . S
Zn55 O59 2.086 . S
Zn55 O64 1.977 . S
O56 Zn55 2.032 . S
O56 C60 1.278 . S
C57 O58 1.203 . S
C57 O64 1.267 . S
O58 C57 1.203 . S
O59 C52 1.185 . S
O59 Zn55 2.086 . S
C60 O56 1.278 . S
C60 O61 1.211 . S
O61 C60 1.211 . S
C62 O54 1.284 . S
C62 O63 1.273 . S
O63 C62 1.273 . S
O64 Zn55 1.977 . S
O64 C57 1.267 . S
C65 O66 1.160 . S
C65 O72 1.185 . S
O66 C65 1.160 . S
O67 Zn68 1.899 . S
O67 C75 1.284 . S
Zn68 O67 1.899 . S
Zn68 O69 2.032 . S
Zn68 O72 2.086 . S
Zn68 O77 1.977 . S
O69 Zn68 2.032 . S
O69 C73 1.278 . S
C70 O71 1.203 . S
C70 O77 1.267 . S
O71 C70 1.203 . S
O72 C65 1.185 . S
O72 Zn68 2.086 . S
C73 O69 1.278 . S
C73 O74 1.211 . S
O74 C73 1.211 . S
C75 O67 1.284 . S
C75 O76 1.273 . S
O76 C75 1.273 . S
O77 Zn68 1.977 . S
O77 C70 1.267 . S
C78 O79 1.160 . S
C78 O85 1.185 . S
O79 C78 1.160 . S
O80 Zn81 1.899 . S
O80 C88 1.284 . S
Zn81 O80 1.899 . S
Zn81 O82 2.032 . S
Zn81 O85 2.086 . S
Zn81 O90 1.977 . S
O82 Zn81 2.032 . S
O82 C86 1.278 . S
C83 O84 1.203 . S
C83 O90 1.267 . S
O84 C83 1.203 . S
O85 C78 1.185 . S
O85 Zn81 2.086 . S
C86 O82 1.278 . S
C86 O87 1.211 . S
O87 C86 1.211 . S
C88 O80 1.284 . S
C88 O89 1.273 . S
O89 C88 1.273 . S
O90 Zn81 1.977 . S
O90 C83 1.267 . S
C91 O92 1.160 . S
C91 O98 1.185 . S
O92 C91 1.160 . S
O93 Zn94 1.899 . S
O93 C101 1.284 . S
Zn94 O93 1.899 . S
Zn94 O95 2.032 . S
Zn94 O98 2.086 . S
Zn94 O103 1.977 . S
O95 Zn94 2.032 . S
O95 C99 1.278 . S
C96 O97 1.203 . S
C96 O103 1.267 . S
O97 C96 1.203 . S
O98 C91 1.185 . S
O98 Zn94 2.086 . S
C99 O95 1.278 . S
C99 O100 1.211 . S
O100 C99 1.211 . S
C101 O93 1.284 . S
C101 O102 1.273 . S
O102 C101 1.273 . S
O103 Zn94 1.977 . S
O103 C96 1.267 . S
C104 O105 1.160 . S
C104 O111 1.185 . S
O105 C104 1.160 . S
O106 Zn107 1.899 . S
O106 C114 1.284 . S
Zn107 O106 1.899 . S
Zn107 O108 2.032 . S
Zn107 O111 2.086 . S
Zn107 O116 1.977 . S
O108 Zn107 2.032 . S
O108 C112 1.278 . S
C109 O110 1.203 . S
C109 O116 1.267 . S
O110 C109 1.203 . S
O111 C104 1.185 . S
O111 Zn107 2.086 . S
C112 O108 1.278 . S
C112 O113 1.211 . S
O113 C112 1.211 . S
C114 O106 1.284 . S
C114 O115 1.273 . S
O115 C114 1.273 . S
O116 Zn107 1.977 . S
O116 C109 1.267 . S
C117 O118 1.160 . S
C117 O124 1.185 . S
O118 C117 1.160 . S
O119 Zn120 1.899 . S
O119 C127 1.284 . S
Zn120 O119 1.899 . S
Zn120 O121 2.032 . S
Zn120 O124 2.086 . S
Zn120 O129 1.977 . S
O121 Zn120 2.032 . S
O121 C125 1.278 . S
C122 O123 1.203 . S
C122 O129 1.267 . S
O123 C122 1.203 . S
O124 C117 1.185 . S
O124 Zn120 2.086 . S
C125 O121 1.278 . S
C125 O126 1.211 . S
O126 C125 1.211 . S
C127 O119 1.284 . S
C127 O128 1.273 . S
O128 C127 1.273 . S
O129 Zn120 1.977 . S
O129 C122 1.267 . S
C130 O131 1.160 . S
C130 O137 1.185 . S
O131 C130 1.160 . S
O132 Zn133 1.899 . S
O132 C140 1.284 . S
Zn133 O132 1.899 . S
Zn133 O134 2.032 . S
Zn133 O137 2.086 . S
Zn133 O142 1.977 . S
O134 Zn133 2.032 . S
O134 C138 1.278 . S
C135 O136 1.203 . S
C135 O142 1.267 . S
O136 C135 1.203 . S
O137 C130 1.185 . S
O137 Zn133 2.086 . S
C138 O134 1.278 . S
C138 O139 1.211 . S
O139 C138 1.211 . S
C140 O132 1.284 . S
C140 O141 1.273 . S
O141 C140 1.273 . S
O142 Zn133 1.977 . S
O142 C135 1.267 . S
C143 O144 1.160 . S
C143 O150 1.185 . S
O144 C143 1.160 . S
O145 Zn146 1.899 . S
O145 C153 1.284 . S
Zn146 O145 1.899 . S
Zn146 O147 2.032 . S
Zn146 O150 2.086 . S
Zn146 O155 1.977 . S
O147 Zn146 2.032 . S
O147 C151 1.278 . S
C148 O149 1.203 . S
C148 O155 1.267 . S
O149 C148 1.203 . S
O150 C143 1.185 . S
O150 Zn146 2.086 . S
C151 O147 1.278 . S
C151 O152 1.211 . S
O152 C151 1.211 . S
C153 O145 1.284 . S
C153 O154 1.273 . S
O154 C153 1.273 . S
O155 Zn146 1.977 . S
O155 C148 1.267 . S
C156 O157 1.160 . S
C156 O163 1.185 . S
O157 C156 1.160 . S
O158 Zn159 1.899 . S
O158 C166 1.284 . S
Zn159 O158 1.899 . S
Zn159 O160 2.032 . S
Zn159 O163 2.086 . S
Zn159 O168 1.977 . S
O160 Zn159 2.032 . S
O160 C164 1.278 . S
C161 O162 1.203 . S
C161 O168 1.267 . S
O162 C161 1.203 . S
O163 C156 1.185 . S
O163 Zn159 2.086 . S
C164 O160 1.278 . S
C164 O165 1.211 . S
O165 C164 1.211 . S
C166 O158 1.284 . S
C166 O167 1.273 . S
O167 C166 1.273 . S
O168 Zn159 1.977 . S
O168 C161 1.267 . S
C169 O170 1.160 . S
C169 O176 1.185 . S
O170 C169 1.160 . S
O171 Zn172 1.899 . S
O171 C179 1.284 . S
Zn172 O171 1.899 . S
Zn172 O173 2.032 . S
Zn172 O176 2.086 . S
Zn172 O181 1.977 . S
O173 Zn172 2.032 . S
O173 C177 1.278 . S
C174 O175 1.203 . S
C174 O181 1.267 . S
O175 C174 1.203 . S
O176 C169 1.185 . S
O176 Zn172 2.086 . S
C177 O173 1.278 . S
C177 O178 1.211 . S
O178 C177 1.211 . S
C179 O171 1.284 . S
C179 O180 1.273 . S
O180 C179 1.273 . S
O181 Zn172 1.977 . S
O181 C174 1.267 . S
C182 O183 1.160 . S
C182 O189 1.185 . S
O183 C182 1.160 . S
O184 Zn185 1.899 . S
O184 C192 1.284 . S
Zn185 O184 1.899 . S
Zn185 O186 2.032 . S
Zn185 O189 2.086 . S
Zn185 O194 1.977 . S
O186 Zn185 2.032 . S
O186 C190 1.278 . S
C187 O188 1.203 . S
C187 O194 1.267 . S
O188 C187 1.203 . S
O189 C182 1.185 . S
O189 Zn185 2.086 . S
C190 O186 1.278 . S
C190 O191 1.211 . S
O191 C190 1.211 . S
C192 O184 1.284 . S
C192 O193 1.273 . S
O193 C192 1.273 . S
O194 Zn185 1.977 . S
O194 C187 1.267 . S
C195 O196 1.160 . S
C195 O202 1.185 . S
O196 C195 1.160 . S
O197 Zn198 1.899 . S
O197 C205 1.284 . S
Zn198 O197 1.899 . S
Zn198 O199 2.032 . S
Zn198 O202 2.086 . S
Zn198 O207 1.977 . S
O199 Zn198 2.032 . S
O199 C203 1.278 . S
C200 O201 1.203 . S
C200 O207 1.267 . S
O201 C200 1.203 . S
O202 C195 1.185 . S
O202 Zn198 2.086 . S
C203 O199 1.278 . S
C203 O204 1.211 . S
O204 C203 1.211 . S
C205 O197 1.284 . S
C205 O206 1.273 . S
O206 C205 1.273 . S
O207 Zn198 1.977 . S
O207 C200 1.267 . S
C208 O209 1.160 . S
C208 O215 1.185 . S
O209 C208 1.160 . S
O210 Zn211 1.899 . S
O210 C218 1.284 . S
Zn211 O210 1.899 . S
Zn211 O212 2.032 . S
Zn211 O215 2.086 . S
Zn211 O220 1.977 . S
O212 Zn211 2.032 . S
O212 C216 1.278 . S
C213 O214 1.203 . S
C213 O220 1.267 . S
O214 C213 1.203 . S
O215 C208 1.185 . S
O215 Zn211 2.086 . S
C216 O212 1.278 . S
C216 O217 1.211 . S
O217 C216 1.211 . S
C218 O210 1.284 . S
C218 O219 1.273 . S
O219 C218 1.273 . S
O220 Zn211 1.977 . S
O220 C213 1.267 . S
C221 O222 1.160 . S
C221 O228 1.185 . S
O222 C221 1.160 . S
O223 Zn224 1.899 . S
O223 C231 1.284 . S
Zn224 O223 1.899 . S
Zn224 O225 2.032 . S
Zn224 O228 2.086 . S
Zn224 O233 1.977 . S
O225 Zn224 2.032 . S
O225 C229 1.278 . S
C226 O227 1.203 . S
C226 O233 1.267 . S
O227 C226 1.203 . S
O228 C221 1.185 . S
O228 Zn224 2.086 . S
C229 O225 1.278 . S
C229 O230 1.211 . S
O230 C229 1.211 . S
C231 O223 1.284 . S
C231 O232 1.273 . S
O232 C231 1.273 . S
O233 Zn224 1.977 . S
O233 C226 1.267 . S
C234 O235 1.160 . S
C234 O241 1.185 . S
O235 C234 1.160 . S
O236 Zn237 1.899 . S
O236 C244 1.284 . S
Zn237 O236 1.899 . S
Zn237 O238 2.032 . S
Zn237 O241 2.086 . S
Zn237 O246 1.977 . S
O238 Zn237 2.032 . S
O238 C242 1.278 . S
C239 O240 1.203 . S
C239 O246 1.267 . S
O240 C239 1.203 . S
O241 C234 1.185 . S
O241 Zn237 2.086 . S
C242 O238 1.278 . S
C242 O243 1.211 . S
O243 C242 1.211 . S
C244 O236 1.284 . S
C244 O245 1.273 . S
O245 C244 1.273 . S
O246 Zn237 1.977 . S
O246 C239 1.267 . S
C247 O248 1.160 . S
C247 O254 1.185 . S
O248 C247 1.160 . S
O249 Zn250 1.899 . S
O249 C257 1.284 . S
Zn250 O249 1.899 . S
Zn250 O251 2.032 . S
Zn250 O254 2.086 . S
Zn250 O259 1.977 . S
O251 Zn250 2.032 . S
O251 C255 1.278 . S
C252 O253 1.203 . S
C252 O259 1.267 . S
O253 C252 1.203 . S
O254 C247 1.185 . S
O254 Zn250 2.086 . S
C255 O251 1.278 . S
C255 O256 1.211 . S
O256 C255 1.211 . S
C257 O249 1.284 . S
C257 O258 1.273 . S
O258 C257 1.273 . S
O259 Zn250 1.977 . S
O259 C252 1.267 . S
C260 O261 1.160 . S
C260 O267 1.185 . S
O261 C260 1.160 . S
O262 Zn263 1.899 . S
O262 C270 1.284 . S
Zn263 O262 1.899 . S
Zn263 O264 2.032 . S
Zn263 O267 2.086 . S
Zn263 O272 1.977 . S
O264 Zn263 2.032 . S
O264 C268 1.278 . S
C265 O266 1.203 . S
C265 O272 1.267 . S
O266 C265 1.203 . S
O267 C260 1.185 . S
O267 Zn263 2.086 . S
C268 O264 1.278 . S
C268 O269 1.211 . S
O269 C268 1.211 . S
C270 O262 1.284 . S
C270 O271 1.273 . S
O271 C270 1.273 . S
O272 Zn263 1.977 . S
O272 C265 1.267 . S
C273 O274 1.160 . S
C273 O280 1.185 . S
O274 C273 1.160 . S
O275 Zn276 1.899 . S
O275 C283 1.284 . S
Zn276 O275 1.899 . S
Zn276 O277 2.032 . S
Zn276 O280 2.086 . S
Zn276 O285 1.977 . S
O277 Zn276 2.032 . S
O277 C281 1.278 . S
C278 O279 1.203 . S
C278 O285 1.267 . S
O279 C278 1.203 . S
O280 C273 1.185 . S
O280 Zn276 2.086 . S
C281 O277 1.278 . S
C281 O282 1.211 . S
O282 C281 1.211 . S
C283 O275 1.284 . S
C283 O284 1.273 . S
O284 C283 1.273 . S
O285 Zn276 1.977 . S
O285 C278 1.267 . S
C286 O287 1.160 . S
C286 O293 1.185 . S
O287 C286 1.160 . S
O288 Zn289 1.899 . S
O288 C296 1.284 . S
Zn289 O288 1.899 . S
Zn289 O290 2.032 . S
Zn289 O293 2.086 . S
Zn289 O298 1.977 . S
O290 Zn289 2.032 . S
O290 C294 1.278 . S
C291 O292 1.203 . S
C291 O298 1.267 . S
O292 C291 1.203 . S
O293 C286 1.185 . S
O293 Zn289 2.086 . S
C294 O290 1.278 . S
C294 O295 1.211 . S
O295 C294 1.211 . S
C296 O288 1.284 . S
C296 O297 1.273 . S
O297 C296 1.273 . S
O298 Zn289 1.977 . S
O298 C291 1.267 . S
C299 O300 1.160 . S
C299 O306 1.185 . S
O300 C299 1.160 . S
O301 Zn302 1.899 . S
O301 C309 1.284 . S
Zn302 O301 1.899 . S
Zn302 O303 2.032 . S
Zn302 O306 2.086 . S
Zn302 O311 1.977 . S
O303 Zn302 2.032 . S
O303 C307 1.278 . S
C304 O305 1.203 . S
C304 O311 1.267 . S
O305 C304 1.203 . S
O306 C299 1.185 . S
O306 Zn302 2.086 . S
C307 O303 1.278 . S
C307 O308 1.211 . S
O308 C307 1.211 . S
C309 O301 1.284 . S
C309 O310 1.273 . S
O310 C309 1.273 . S
O311 Zn302 1.977 . S
O311 C304 1.267 . S
C312 O313 1.160 . S
C312 O319 1.185 . S
O313 C312 1.160 . S
O314 Zn315 1.899 . S
O314 C322 1.284 . S
Zn315 O314 1.899 . S
Zn315 O316 2.032 . S
Zn315 O319 2.086 . S
Zn315 O324 1.977 . S
O316 Zn315 2.032 . S
O316 C320 1.278 . S
C317 O318 1.203 . S
C317 O324 1.267 . S
O318 C317 1.203 . S
O319 C312 1.185 . S
O319 Zn315 2.086 . S
C320 O316 1.278 . S
C320 O321 1.211 . S
O321 C320 1.211 . S
C322 O314 1.284 . S
C322 O323 1.273 . S
O323 C322 1.273 . S
O324 Zn315 1.977 . S
O324 C317 1.267 . S
C325 O326 1.160 . S
C325 O332 1.185 . S
O326 C325 1.160 . S
O327 Zn328 1.899 . S
O327 C335 1.284 . S
Zn328 O327 1.899 . S
Zn328 O329 2.032 . S
Zn328 O332 2.086 . S
Zn328 O337 1.977 . S
O329 Zn328 2.032 . S
O329 C333 1.278 . S
C330 O331 1.203 . S
C330 O337 1.267 . S
O331 C330 1.203 . S
O332 C325 1.185 . S
O332 Zn328 2.086 . S
C333 O329 1.278 . S
C333 O334 1.211 . S
O334 C333 1.211 . S
C335 O327 1.284 . S
C335 O336 1.273 . S
O336 C335 1.273 . S
O337 Zn328 1.977 . S
O337 C330 1.267 . S
C338 O339 1.160 . S
C338 O345 1.185 . S
O339 C338 1.160 . S
O340 Zn341 1.899 . S
O340 C348 1.284 . S
Zn341 O340 1.899 . S
Zn341 O342 2.032 . S
Zn341 O345 2.086 . S
Zn341 O350 1.977 . S
O342 Zn341 2.032 . S
O342 C346 1.278 . S
C343 O344 1.203 . S
C343 O350 1.267 . S
O344 C343 1.203 . S
O345 C338 1.185 . S
O345 Zn341 2.086 . S
C346 O342 1.278 . S
C346 O347 1.211 . S
O347 C346 1.211 . S
C348 O340 1.284 . S
C348 O349 1.273 . S
O349 C348 1.273 . S
O350 Zn341 1.977 . S
O350 C343 1.267 . S
C351 O352 1.160 . S
C351 O358 1.185 . S
O352 C351 1.160 . S
O353 Zn354 1.899 . S
O353 C361 1.284 . S
Zn354 O353 1.899 . S
Zn354 O355 2.032 . S
Zn354 O358 2.086 . S
Zn354 O363 1.977 . S
O355 Zn354 2.032 . S
O355 C359 1.278 . S
C356 O357 1.203 . S
C356 O363 1.267 . S
O357 C356 1.203 . S
O358 C351 1.185 . S
O358 Zn354 2.086 . S
C359 O355 1.278 . S
C359 O360 1.211 . S
O360 C359 1.211 . S
C361 O353 1.284 . S
C361 O362 1.273 . S
O362 C361 1.273 . S
O363 Zn354 1.977 . S
O363 C356 1.267 . S
C364 O365 1.160 . S
C364 O371 1.185 . S
O365 C364 1.160 . S
O366 Zn367 1.899 . S
O366 C374 1.284 . S
Zn367 O366 1.899 . S
Zn367 O368 2.032 . S
Zn367 O371 2.086 . S
Zn367 O376 1.977 . S
O368 Zn367 2.032 . S
O368 C372 1.278 . S
C369 O370 1.203 . S
C369 O376 1.267 . S
O370 C369 1.203 . S
O371 C364 1.185 . S
O371 Zn367 2.086 . S
C372 O368 1.278 . S
C372 O373 1.211 . S
O373 C372 1.211 . S
C374 O366 1.284 . S
C374 O375 1.273 . S
O375 C374 1.273 . S
O376 Zn367 1.977 . S
O376 C369 1.267 . S
C377 O378 1.160 . S
C377 O384 1.185 . S
O378 C377 1.160 . S
O379 Zn380 1.899 . S
O379 C387 1.284 . S
Zn380 O379 1.899 . S
Zn380 O381 2.032 . S
Zn380 O384 2.086 . S
Zn380 O389 1.977 . S
O381 Zn380 2.032 . S
O381 C385 1.278 . S
C382 O383 1.203 . S
C382 O389 1.267 . S
O383 C382 1.203 . S
O384 C377 1.185 . S
O384 Zn380 2.086 . S
C385 O381 1.278 . S
C385 O386 1.211 . S
O386 C385 1.211 . S
C387 O379 1.284 . S
C387 O388 1.273 . S
O388 C387 1.273 . S
O389 Zn380 1.977 . S
O389 C382 1.267 . S
C390 O391 1.160 . S
C390 O397 1.185 . S
O391 C390 1.160 . S
O392 Zn393 1.899 . S
O392 C400 1.284 . S
Zn393 O392 1.899 . S
Zn393 O394 2.032 . S
Zn393 O397 2.086 . S
Zn393 O402 1.977 . S
O394 Zn393 2.032 . S
O394 C398 1.278 . S
C395 O396 1.203 . S
C395 O402 1.267 . S
O396 C395 1.203 . S
O397 C390 1.185 . S
O397 Zn393 2.086 . S
C398 O394 1.278 . S
C398 O399 1.211 . S
O399 C398 1.211 . S
C400 O392 1.284 . S
C400 O401 1.273 . S
O401 C400 1.273 . S
O402 Zn393 1.977 . S
O402 C395 1.267 . S
C403 O404 1.160 . S
C403 O410 1.185 . S
O404 C403 1.160 . S
O405 Zn406 1.899 . S
O405 C413 1.284 . S
Zn406 O405 1.899 . S
Zn406 O407 2.032 . S
Zn406 O410 2.086 . S
Zn406 O415 1.977 . S
O407 Zn406 2.032 . S
O407 C411 1.278 . S
C408 O409 1.203 . S
C408 O415 1.267 . S
O409 C408 1.203 . S
O410 C403 1.185 . S
O410 Zn406 2.086 . S
C411 O407 1.278 . S
C411 O412 1.211 . S
O412 C411 1.211 . S
C413 O405 1.284 . S
C413 O414 1.273 . S
O414 C413 1.273 . S
O415 Zn406 1.977 . S
O415 C408 1.267 . S
C416 O417 1.160 . S
C416 O423 1.185 . S
O417 C416 1.160 . S
O418 Zn419 1.899 . S
O418 C426 1.284 . S
Zn419 O418 1.899 . S
Zn419 O420 2.032 . S
Zn419 O423 2.086 . S
Zn419 O428 1.977 . S
O420 Zn419 2.032 . S
O420 C424 1.278 . S
C421 O422 1.203 . S
C421 O428 1.267 . S
O422 C421 1.203 . S
O423 C416 1.185 . S
O423 Zn419 2.086 . S
C424 O420 1.278 . S
C424 O425 1.211 . S
O425 C424 1.211 . S
C426 O418 1.284 . S
C426 O427 1.273 . S
O427 C426 1.273 . S
O428 Zn419 1.977 . S
O428 C421 1.267 . S
C429 O430 1.160 . S
C429 O436 1.185 . S
O430 C429 1.160 . S
O431 Zn432 1.899 . S
O431 C439 1.284 . S
Zn432 O431 1.899 . S
Zn432 O433 2.032 . S
Zn432 O436 2.086 . S
Zn432 O441 1.977 . S
O433 Zn432 2.032 . S
O433 C437 1.278 . S
C434 O435 1.203 . S
C434 O441 1.267 . S
O435 C434 1.203 . S
O436 C429 1.185 . S
O436 Zn432 2.086 . S
C437 O433 1.278 . S
C437 O438 1.211 . S
O438 C437 1.211 . S
C439 O431 1.284 . S
C439 O440 1.273 . S
O440 C439 1.273 . S
O441 Zn432 1.977 . S
O441 C434 1.267 . S
C442 O443 1.160 . S
C442 O449 1.185 . S
O443 C442 1.160 . S
O444 Zn445 1.899 . S
O444 C452 1.284 . S
Zn445 O444 1.899 . S
Zn445 O446 2.032 . S
Zn445 O449 2.086 . S
Zn445 O454 1.977 . S
O446 Zn445 2.032 . S
O446 C450 1.278 . S
C447 O448 1.203 . S
C447 O454 1.267 . S
O448 C447 1.203 . S
O449 C442 1.185 . S
O449 Zn445 2.086 . S
C450 O446 1.278 . S
C450 O451 1.211 . S
O451 C450 1.211 . S
C452 O444 1.284 . S
C452 O453 1.273 . S
O453 C452 1.273 . S
O454 Zn445 1.977 . S
O454 C447 1.267 . S
C455 O456 1.160 . S
C455 O462 1.185 . S
O456 C455 1.160 . S
O457 Zn458 1.899 . S
O457 C465 1.284 . S
Zn458 O457 1.899 . S
Zn458 O459 2.032 . S
Zn458 O462 2.086 . S
Zn458 O467 1.977 . S
O459 Zn458 2.032 . S
O459 C463 1.278 . S
C460 O461 1.203 . S
C460 O467 1.267 . S
O461 C460 1.203 . S
O462 C455 1.185 . S
O462 Zn458 2.086 . S
C463 O459 1.278 . S
C463 O464 1.211 . S
O464 C463 1.211 . S
C465 O457 1.284 . S
C465 O466 1.273 . S
O466 C465 1.273 . S
O467 Zn458 1.977 . S
O467 C460 1.267 . S
C468 O469 1.160 . S
C468 O475 1.185 . S
O469 C468 1.160 . S
O470 Zn471 1.899 . S
O470 C478 1.284 . S
Zn471 O470 1.899 . S
Zn471 O472 2.032 . S
Zn471 O475 2.086 . S
Zn471 O480 1.977 . S
O472 Zn471 2.032 . S
O472 C476 1.278 . S
C473 O474 1.203 . S
C473 O480 1.267 . S
O474 C473 1.203 . S
O475 C468 1.185 . S
O475 Zn471 2.086 . S
C476 O472 1.278 . S
C476 O477 1.211 . S
O477 C476 1.211 . S
C478 O470 1.284 . S
C478 O479 1.273 . S
O479 C478 1.273 . S
O480 Zn471 1.977 . S
O480 C473 1.267 . S
C481 O482 1.160 . S
C481 O488 1.185 . S
O482 C481 1.160 . S
O483 Zn484 1.899 . S
O483 C491 1.284 . S
Zn484 O483 1.899 . S
Zn484 O485 2.032 . S
Zn484 O488 2.086 . S
Zn484 O493 1.977 . S
O485 Zn484 2.032 . S
O485 C489 1.278 . S
C486 O487 1.203 . S
C486 O493 1.267 . S
O487 C486 1.203 . S
O488 C481 1.185 . S
O488 Zn484 2.086 . S
C489 O485 1.278 . S
C489 O490 1.211 . S
O490 C489 1.211 . S
C491 O483 1.284 . S
C491 O492 1.273 . S
O492 C491 1.273 . S
O493 Zn484 1.977 . S
O493 C486 1.267 . S
C494 O495 1.160 . S
C494 O501 1.185 . S
O495 C494 1.160 . S
O496 Zn497 1.899 . S
O496 C504 1.284 . S
Zn497 O496 1.899 . S
Zn497 O498 2.032 . S
Zn497 O501 2.086 . S
Zn497 O506 1.977 . S
O498 Zn497 2.032 . S
O498 C502 1.278 . S
C499 O500 1.203 . S
C499 O506 1.267 . S
O500 C499 1.203 . S
O501 C494 1.185 . S
O501 Zn497 2.086 . S
C502 O498 1.278 . S
C502 O503 1.211 . S
O503 C502 1.211 . S
C504 O496 1.284 . S
C504 O505 1.273 . S
O505 C504 1.273 . S
O506 Zn497 1.977 . S
O506 C499 1.267 . S
C507 O508 1.160 . S
C507 O514 1.185 . S
O508 C507 1.160 . S
O509 Zn510 1.899 . S
O509 C517 1.284 . S
Zn510 O509 1.899 . S
Zn510 O511 2.032 . S
Zn510 O514 2.086 . S
Zn510 O519 1.977 . S
O511 Zn510 2.032 . S
O511 C515 1.278 . S
C512 O513 1.203 . S
C512 O519 1.267 . S
O513 C512 1.203 . S
O514 C507 1.185 . S
O514 Zn510 2.086 . S
C515 O511 1.278 . S
C515 O516 1.211 . S
O516 C515 1.211 . S
C517 O509 1.284 . S
C517 O518 1.273 . S
O518 C517 1.273 . S
O519 Zn510 1.977 . S
O519 C512 1.267 . S
C520 O521 1.160 . S
C520 O527 1.185 . S
O521 C520 1.160 . S
O522 Zn523 1.899 . S
O522 C530 1.284 . S
Zn523 O522 1.899 . S
Zn523 O524 2.032 . S
Zn523 O527 2.086 . S
Zn523 O532 1.977 . S
O524 Zn523 2.032 . S
O524 C528 1.278 . S
C525 O526 1.203 . S
C525 O532 1.267 . S
O526 C525 1.203 . S
O527 C520 1.185 . S
O527 Zn523 2.086 . S
C528 O524 1.278 . S
C528 O529 1.211 . S
O529 C528 1.211 . S
C530 O522 1.284 . S
C530 O531 1.273 . S
O531 C530 1.273 . S
O532 Zn523 1.977 . S
O532 C525 1.267 . S
C533 O534 1.160 . S
C533 O540 1.185 . S
O534 C533 1.160 . S
O535 Zn536 1.899 . S
O535 C543 1.284 . S
Zn536 O535 1.899 . S
Zn536 O537 2.032 . S
Zn536 O540 2.086 . S
Zn536 O545 1.977 . S
O537 Zn536 2.032 . S
O537 C541 1.278 . S
C538 O539 1.203 . S
C538 O545 1.267 . S
O539 C538 1.203 . S
O540 C533 1.185 . S
O540 Zn536 2.086 . S
C541 O537 1.278 . S
C541 O542 1.211 . S
O542 C541 1.211 . S
C543 O535 1.284 . S
C543 O544 1.273 . S
O544 C543 1.273 . S
O545 Zn536 1.977 . S
O545 C538 1.267 . S
C546 O547 1.160 . S
C546 O553 1.185 . S
O547 C546 1.160 . S
O548 Zn549 1.899 . S
O548 C556 1.284 . S
Zn549 O548 1.899 . S
Zn549 O550 2.032 . S
Zn549 O553 2.086 . S
Zn549 O558 1.977 . S
O550 Zn549 2.032 . S
O550 C554 1.278 . S
C551 O552 1.203 . S
C551 O558 1.267 . S
O552 C551 1.203 . S
O553 C546 1.185 . S
O553 Zn549 2.086 . S
C554 O550 1.278 . S
C554 O555 1.211 . S
O555 C554 1.211 . S
C556 O548 1.284 . S
C556 O557 1.273 . S
O557 C556 1.273 . S
O558 Zn549 1.977 . S
O558 C551 1.267 . S
C559 O560 1.160 . S
C559 O566 1.185 . S
O560 C559 1.160 . S
O561 Zn562 1.899 . S
O561 C569 1.284 . S
Zn562 O561 1.899 . S
Zn562 O563 2.032 . S
Zn562 O566 2.086 . S
Zn562 O571 1.977 . S
O563 Zn562 2.032 . S
O563 C567 1.278 . S
C564 O565 1.203 . S
C564 O571 1.267 . S
O565 C564 1.203 . S
O566 C559 1.185 . S
O566 Zn562 2.086 . S
C567 O563 1.278 . S
C567 O568 1.211 . S
O568 C567 1.211 . S
C569 O561 1.284 . S
C569 O570 1.273 . S
O570 C569 1.273 . S
O571 Zn562 1.977 . S
O571 C564 1.267 . S
C572 O573 1.160 . S
C572 O579 1.185 . S
O573 C572 1.160 . S
O574 Zn575 1.899 . S
O574 C582 1.284 . S
Zn575 O574 1.899 . S
Zn575 O576 2.032 . S
Zn575 O579 2.086 . S
Zn575 O584 1.977 . S
O576 Zn575 2.032 . S
O576 C580 1.278 . S
C577 O578 1.203 . S
C577 O584 1.267 . S
O578 C577 1.203 . S
O579 C572 1.185 . S
O579 Zn575 2.086 . S
C580 O576 1.278 . S
C580 O581 1.211 . S
O581 C580 1.211 . S
C582 O574 1.284 . S
C582 O583 1.273 . S
O583 C582 1.273 . S
O584 Zn575 1.977 . S
O584 C577 1.267 . S
C585 O586 1.160 . S
C585 O592 1.185 . S
O586 C585 1.160 . S
O587 Zn588 1.899 . S
O587 C595 1.284 . S
Zn588 O587 1.899 . S
Zn588 O589 2.032 . S
Zn588 O592 2.086 . S
Zn588 O597 1.977 . S
O589 Zn588 2.032 . S
O589 C593 1.278 . S
C590 O591 1.203 . S
C590 O597 1.267 . S
O591 C590 1.203 . S
O592 C585 1.185 . S
O592 Zn588 2.086 . S
C593 O589 1.278 . S
C593 O594 1.211 . S
O594 C593 1.211 . S
C595 O587 1.284 . S
C595 O596 1.273 . S
O596 C595 1.273 . S
O597 Zn588 1.977 . S
O597 C590 1.267 . S
C598 O599 1.160 . S
C598 O605 1.185 . S
O599 C598 1.160 . S
O600 Zn601 1.899 . S
O600 C608 1.284 . S
Zn601 O600 1.899 . S
Zn601 O602 2.032 . S
Zn601 O605 2.086 . S
Zn601 O610 1.977 . S
O602 Zn601 2.032 . S
O602 C606 1.278 . S
C603 O604 1.203 . S
C603 O610 1.267 . S
O604 C603 1.203 . S
O605 C598 1.185 . S
O605 Zn601 2.086 . S
C606 O602 1.278 . S
C606 O607 1.211 . S
O607 C606 1.211 . S
C608 O600 1.284 . S
C608 O609 1.273 . S
O609 C608 1.273 . S
O610 Zn601 1.977 . S
O610 C603 1.267 . S
C611 O612 1.160 . S
C611 O618 1.185 . S
O612 C611 1.160 . S
O613 Zn614 1.899 . S
O613 C621 1.284 . S
Zn614 O613 1.899 . S
Zn614 O615 2.032 . S
Zn614 O618 2.086 . S
Zn614 O623 1.977 . S
O615 Zn614 2.032 . S
O615 C619 1.278 . S
C616 O617 1.203 . S
C616 O623 1.267 . S
O617 C616 1.203 . S
O618 C611 1.185 . S
O618 Zn614 2.086 . S
C619 O615 1.278 . S
C619 O620 1.211 . S
O620 C619 1.211 . S
C621 O613 1.284 . S
C621 O622 1.273 . S
O622 C621 1.273 . S
O623 Zn614 1.977 . S
O623 C616 1.267 . S
H624 C632 0.929 . S
H625 C634 0.930 . S
H626 C636 0.930 . S
H627 C639 0.929 . S
H628 C642 0.930 . S
H629 C644 0.960 . S
H630 C644 0.960 . S
H631 C644 0.960 . S
C632 H624 0.929 . S
C632 C633 1.377 . S
C632 C634 1.384 . S
C633 C632 1.377 . S
C633 C639 1.390 . S
C634 H625 0.930 . S
C634 C632 1.384 . S
C634 C635 1.372 . S
C635 C634 1.372 . S
C635 C636 1.400 . S
C635 C640 1.490 . S
C636 H626 0.930 . S
C636 C635 1.400 . S
C636 C639 1.386 . S
H637 C653 0.930 . S
H638 C654 0.931 . S
C639 H627 0.929 . S
C639 C633 1.390 . S
C639 C636 1.386 . S
C640 C635 1.490 . S
C640 C642 1.395 . S
C640 C643 1.403 . S
H641 C647 0.930 . S
C642 H628 0.930 . S
C642 C640 1.395 . S
C642 C645 1.403 1_655 S
C643 C640 1.403 . S
C643 C644 1.524 . S
C643 C647 1.400 1_655 S
C644 H629 0.960 . S
C644 H630 0.960 . S
C644 H631 0.960 . S
C644 C643 1.524 . S
C645 C642 1.403 1_455 S
C645 C646 1.392 . S
C645 C649 1.495 . S
C646 C645 1.392 . S
C646 C647 1.385 . S
C646 C648 1.478 . S
C647 H641 0.930 . S
C647 C643 1.400 1_455 S
C647 C646 1.385 . S
C648 C646 1.478 . S
C648 C650 1.381 . S
C648 C654 1.383 . S
C649 C645 1.495 . S
C649 H655 0.959 . S
C649 H656 0.961 . S
C649 H657 0.960 . S
C650 C648 1.381 . S
C650 C651 1.394 . S
C650 H658 0.930 . S
C651 C650 1.394 . S
C651 C652 1.383 . S
C651 H659 0.929 . S
C652 C651 1.383 . S
C652 C653 1.377 . S
C653 H637 0.930 . S
C653 C652 1.377 . S
C653 C654 1.379 . S
C654 H638 0.931 . S
C654 C648 1.383 . S
C654 C653 1.379 . S
H655 C649 0.959 . S
H656 C649 0.961 . S
H657 C649 0.960 . S
H658 C650 0.930 . S
H659 C651 0.929 . S
H660 C668 0.929 . S
H661 C670 0.930 . S
H662 C672 0.930 . S
H663 C675 0.929 . S
H664 C678 0.930 . S
H665 C680 0.960 . S
H666 C680 0.960 . S
H667 C680 0.960 . S
C668 H660 0.929 . S
C668 C669 1.377 . S
C668 C670 1.384 . S
C669 C668 1.377 . S
C669 C675 1.390 . S
C670 H661 0.930 . S
C670 C668 1.384 . S
C670 C671 1.372 . S
C671 C670 1.372 . S
C671 C672 1.400 . S
C671 C676 1.490 . S
C672 H662 0.930 . S
C672 C671 1.400 . S
C672 C675 1.386 . S
H673 C689 0.930 . S
H674 C690 0.931 . S
C675 H663 0.929 . S
C675 C669 1.390 . S
C675 C672 1.386 . S
C676 C671 1.490 . S
C676 C678 1.395 . S
C676 C679 1.403 . S
H677 C683 0.930 . S
C678 H664 0.930 . S
C678 C676 1.395 . S
C678 C681 1.403 . S
C679 C676 1.403 . S
C679 C680 1.524 . S
C679 C683 1.400 . S
C680 H665 0.960 . S
C680 H666 0.960 . S
C680 H667 0.960 . S
C680 C679 1.524 . S
C681 C678 1.403 . S
C681 C682 1.392 . S
C681 C685 1.495 . S
C682 C681 1.392 . S
C682 C683 1.385 . S
C682 C684 1.478 . S
C683 H677 0.930 . S
C683 C679 1.400 . S
C683 C682 1.385 . S
C684 C682 1.478 . S
C684 C686 1.381 . S
C684 C690 1.383 . S
C685 C681 1.495 . S
C685 H691 0.959 . S
C685 H692 0.961 . S
C685 H693 0.960 . S
C686 C684 1.381 . S
C686 C687 1.394 . S
C686 H694 0.930 . S
C687 C686 1.394 . S
C687 C688 1.383 . S
C687 H695 0.929 . S
C688 C687 1.383 . S
C688 C689 1.377 . S
C689 H673 0.930 . S
C689 C688 1.377 . S
C689 C690 1.379 . S
C690 H674 0.931 . S
C690 C684 1.383 . S
C690 C689 1.379 . S
H691 C685 0.959 . S
H692 C685 0.961 . S
H693 C685 0.960 . S
H694 C686 0.930 . S
H695 C687 0.929 . S
H696 C704 0.929 . S
H697 C706 0.930 . S
H698 C708 0.930 . S
H699 C711 0.929 . S
H700 C714 0.930 . S
H701 C716 0.960 . S
H702 C716 0.960 . S
H703 C716 0.960 . S
C704 H696 0.929 . S
C704 C705 1.377 . S
C704 C706 1.384 . S
C705 C704 1.377 . S
C705 C711 1.390 . S
C706 H697 0.930 . S
C706 C704 1.384 . S
C706 C707 1.372 . S
C707 C706 1.372 . S
C707 C708 1.400 . S
C707 C712 1.490 . S
C708 H698 0.930 . S
C708 C707 1.400 . S
C708 C711 1.386 . S
H709 C725 0.930 . S
H710 C726 0.931 . S
C711 H699 0.929 . S
C711 C705 1.390 . S
C711 C708 1.386 . S
C712 C707 1.490 . S
C712 C714 1.395 . S
C712 C715 1.403 . S
H713 C719 0.930 . S
C714 H700 0.930 . S
C714 C712 1.395 . S
C714 C717 1.403 1_455 S
C715 C712 1.403 . S
C715 C716 1.524 . S
C715 C719 1.400 1_455 S
C716 H701 0.960 . S
C716 H702 0.960 . S
C716 H703 0.960 . S
C716 C715 1.524 . S
C717 C714 1.403 1_655 S
C717 C718 1.392 . S
C717 C721 1.495 . S
C718 C717 1.392 . S
C718 C719 1.385 . S
C718 C720 1.478 . S
C719 H713 0.930 . S
C719 C715 1.400 1_655 S
C719 C718 1.385 . S
C720 C718 1.478 . S
C720 C722 1.381 . S
C720 C726 1.383 . S
C721 C717 1.495 . S
C721 H727 0.959 . S
C721 H728 0.961 . S
C721 H729 0.960 . S
C722 C720 1.381 . S
C722 C723 1.394 . S
C722 H730 0.930 . S
C723 C722 1.394 . S
C723 C724 1.383 . S
C723 H731 0.929 . S
C724 C723 1.383 . S
C724 C725 1.377 . S
C725 H709 0.930 . S
C725 C724 1.377 . S
C725 C726 1.379 . S
C726 H710 0.931 . S
C726 C720 1.383 . S
C726 C725 1.379 . S
H727 C721 0.959 . S
H728 C721 0.961 . S
H729 C721 0.960 . S
H730 C722 0.930 . S
H731 C723 0.929 . S
H732 C740 0.929 . S
H733 C742 0.930 . S
H734 C744 0.930 . S
H735 C747 0.929 . S
H736 C750 0.930 . S
H737 C752 0.960 . S
H738 C752 0.960 . S
H739 C752 0.960 . S
C740 H732 0.929 . S
C740 C741 1.377 . S
C740 C742 1.384 . S
C741 C740 1.377 . S
C741 C747 1.390 . S
C742 H733 0.930 . S
C742 C740 1.384 . S
C742 C743 1.372 . S
C743 C742 1.372 . S
C743 C744 1.400 . S
C743 C748 1.490 . S
C744 H734 0.930 . S
C744 C743 1.400 . S
C744 C747 1.386 . S
H745 C761 0.930 . S
H746 C762 0.931 . S
C747 H735 0.929 . S
C747 C741 1.390 . S
C747 C744 1.386 . S
C748 C743 1.490 . S
C748 C750 1.395 . S
C748 C751 1.403 . S
H749 C755 0.930 . S
C750 H736 0.930 . S
C750 C748 1.395 . S
C750 C753 1.403 . S
C751 C748 1.403 . S
C751 C752 1.524 . S
C751 C755 1.400 . S
C752 H737 0.960 . S
C752 H738 0.960 . S
C752 H739 0.960 . S
C752 C751 1.524 . S
C753 C750 1.403 . S
C753 C754 1.392 . S
C753 C757 1.495 . S
C754 C753 1.392 . S
C754 C755 1.385 . S
C754 C756 1.478 . S
C755 H749 0.930 . S
C755 C751 1.400 . S
C755 C754 1.385 . S
C756 C754 1.478 . S
C756 C758 1.381 . S
C756 C762 1.383 . S
C757 C753 1.495 . S
C757 H763 0.959 . S
C757 H764 0.961 . S
C757 H765 0.960 . S
C758 C756 1.381 . S
C758 C759 1.394 . S
C758 H766 0.930 . S
C759 C758 1.394 . S
C759 C760 1.383 . S
C759 H767 0.929 . S
C760 C759 1.383 . S
C760 C761 1.377 . S
C761 H745 0.930 . S
C761 C760 1.377 . S
C761 C762 1.379 . S
C762 H746 0.931 . S
C762 C756 1.383 . S
C762 C761 1.379 . S
H763 C757 0.959 . S
H764 C757 0.961 . S
H765 C757 0.960 . S
H766 C758 0.930 . S
H767 C759 0.929 . S
H768 C776 0.929 . S
H769 C778 0.930 . S
H770 C780 0.930 . S
H771 C783 0.929 . S
H772 C786 0.930 . S
H773 C788 0.960 . S
H774 C788 0.960 . S
H775 C788 0.960 . S
C776 H768 0.929 . S
C776 C777 1.377 . S
C776 C778 1.384 . S
C777 C776 1.377 . S
C777 C783 1.390 . S
C778 H769 0.930 . S
C778 C776 1.384 . S
C778 C779 1.372 . S
C779 C778 1.372 . S
C779 C780 1.400 . S
C779 C784 1.490 . S
C780 H770 0.930 . S
C780 C779 1.400 . S
C780 C783 1.386 . S
H781 C797 0.930 . S
H782 C798 0.931 . S
C783 H771 0.929 . S
C783 C777 1.390 . S
C783 C780 1.386 . S
C784 C779 1.490 . S
C784 C786 1.395 . S
C784 C787 1.403 . S
H785 C791 0.930 . S
C786 H772 0.930 . S
C786 C784 1.395 . S
C786 C789 1.403 1_655 S
C787 C784 1.403 . S
C787 C788 1.524 . S
C787 C791 1.400 1_655 S
C788 H773 0.960 . S
C788 H774 0.960 . S
C788 H775 0.960 . S
C788 C787 1.524 . S
C789 C786 1.403 1_455 S
C789 C790 1.392 . S
C789 C793 1.495 . S
C790 C789 1.392 . S
C790 C791 1.385 . S
C790 C792 1.478 . S
C791 H785 0.930 . S
C791 C787 1.400 1_455 S
C791 C790 1.385 . S
C792 C790 1.478 . S
C792 C794 1.381 . S
C792 C798 1.383 . S
C793 C789 1.495 . S
C793 H799 0.959 . S
C793 H800 0.961 . S
C793 H801 0.960 . S
C794 C792 1.381 . S
C794 C795 1.394 . S
C794 H802 0.930 . S
C795 C794 1.394 . S
C795 C796 1.383 . S
C795 H803 0.929 . S
C796 C795 1.383 . S
C796 C797 1.377 . S
C797 H781 0.930 . S
C797 C796 1.377 . S
C797 C798 1.379 . S
C798 H782 0.931 . S
C798 C792 1.383 . S
C798 C797 1.379 . S
H799 C793 0.959 . S
H800 C793 0.961 . S
H801 C793 0.960 . S
H802 C794 0.930 . S
H803 C795 0.929 . S
H804 C812 0.929 . S
H805 C814 0.930 . S
H806 C816 0.930 . S
H807 C819 0.929 . S
H808 C822 0.930 . S
H809 C824 0.960 . S
H810 C824 0.960 . S
H811 C824 0.960 . S
C812 H804 0.929 . S
C812 C813 1.377 . S
C812 C814 1.384 . S
C813 C812 1.377 . S
C813 C819 1.390 . S
C814 H805 0.930 . S
C814 C812 1.384 . S
C814 C815 1.372 . S
C815 C814 1.372 . S
C815 C816 1.400 . S
C815 C820 1.490 . S
C816 H806 0.930 . S
C816 C815 1.400 . S
C816 C819 1.386 . S
H817 C833 0.930 . S
H818 C834 0.931 . S
C819 H807 0.929 . S
C819 C813 1.390 . S
C819 C816 1.386 . S
C820 C815 1.490 . S
C820 C822 1.395 . S
C820 C823 1.403 . S
H821 C827 0.930 . S
C822 H808 0.930 . S
C822 C820 1.395 . S
C822 C825 1.403 . S
C823 C820 1.403 . S
C823 C824 1.524 . S
C823 C827 1.400 . S
C824 H809 0.960 . S
C824 H810 0.960 . S
C824 H811 0.960 . S
C824 C823 1.524 . S
C825 C822 1.403 . S
C825 C826 1.392 . S
C825 C829 1.495 . S
C826 C825 1.392 . S
C826 C827 1.385 . S
C826 C828 1.478 . S
C827 H821 0.930 . S
C827 C823 1.400 . S
C827 C826 1.385 . S
C828 C826 1.478 . S
C828 C830 1.381 . S
C828 C834 1.383 . S
C829 C825 1.495 . S
C829 H835 0.959 . S
C829 H836 0.961 . S
C829 H837 0.960 . S
C830 C828 1.381 . S
C830 C831 1.394 . S
C830 H838 0.930 . S
C831 C830 1.394 . S
C831 C832 1.383 . S
C831 H839 0.929 . S
C832 C831 1.383 . S
C832 C833 1.377 . S
C833 H817 0.930 . S
C833 C832 1.377 . S
C833 C834 1.379 . S
C834 H818 0.931 . S
C834 C828 1.383 . S
C834 C833 1.379 . S
H835 C829 0.959 . S
H836 C829 0.961 . S
H837 C829 0.960 . S
H838 C830 0.930 . S
H839 C831 0.929 . S
H840 C848 0.929 . S
H841 C850 0.930 . S
H842 C852 0.930 . S
H843 C855 0.929 . S
H844 C858 0.930 . S
H845 C860 0.960 . S
H846 C860 0.960 . S
H847 C860 0.960 . S
C848 H840 0.929 . S
C848 C849 1.377 . S
C848 C850 1.384 . S
C849 C848 1.377 . S
C849 C855 1.390 . S
C850 H841 0.930 . S
C850 C848 1.384 . S
C850 C851 1.372 . S
C851 C850 1.372 . S
C851 C852 1.400 . S
C851 C856 1.490 . S
C852 H842 0.930 . S
C852 C851 1.400 . S
C852 C855 1.386 . S
H853 C869 0.930 . S
H854 C870 0.931 . S
C855 H843 0.929 . S
C855 C849 1.390 . S
C855 C852 1.386 . S
C856 C851 1.490 . S
C856 C858 1.395 . S
C856 C859 1.403 . S
H857 C863 0.930 . S
C858 H844 0.930 . S
C858 C856 1.395 . S
C858 C861 1.403 1_455 S
C859 C856 1.403 . S
C859 C860 1.524 . S
C859 C863 1.400 1_455 S
C860 H845 0.960 . S
C860 H846 0.960 . S
C860 H847 0.960 . S
C860 C859 1.524 . S
C861 C858 1.403 1_655 S
C861 C862 1.392 . S
C861 C865 1.495 . S
C862 C861 1.392 . S
C862 C863 1.385 . S
C862 C864 1.478 . S
C863 H857 0.930 . S
C863 C859 1.400 1_655 S
C863 C862 1.385 . S
C864 C862 1.478 . S
C864 C866 1.381 . S
C864 C870 1.383 . S
C865 C861 1.495 . S
C865 H871 0.959 . S
C865 H872 0.961 . S
C865 H873 0.960 . S
C866 C864 1.381 . S
C866 C867 1.394 . S
C866 H874 0.930 . S
C867 C866 1.394 . S
C867 C868 1.383 . S
C867 H875 0.929 . S
C868 C867 1.383 . S
C868 C869 1.377 . S
C869 H853 0.930 . S
C869 C868 1.377 . S
C869 C870 1.379 . S
C870 H854 0.931 . S
C870 C864 1.383 . S
C870 C869 1.379 . S
H871 C865 0.959 . S
H872 C865 0.961 . S
H873 C865 0.960 . S
H874 C866 0.930 . S
H875 C867 0.929 . S
H876 C884 0.929 . S
H877 C886 0.930 . S
H878 C888 0.930 . S
H879 C891 0.929 . S
H880 C894 0.930 . S
H881 C896 0.960 . S
H882 C896 0.960 . S
H883 C896 0.960 . S
C884 H876 0.929 . S
C884 C885 1.377 . S
C884 C886 1.384 . S
C885 C884 1.377 . S
C885 C891 1.390 . S
C886 H877 0.930 . S
C886 C884 1.384 . S
C886 C887 1.372 . S
C887 C886 1.372 . S
C887 C888 1.400 . S
C887 C892 1.490 . S
C888 H878 0.930 . S
C888 C887 1.400 . S
C888 C891 1.386 . S
H889 C905 0.930 . S
H890 C906 0.931 . S
C891 H879 0.929 . S
C891 C885 1.390 . S
C891 C888 1.386 . S
C892 C887 1.490 . S
C892 C894 1.395 . S
C892 C895 1.403 . S
H893 C899 0.930 . S
C894 H880 0.930 . S
C894 C892 1.395 . S
C894 C897 1.403 . S
C895 C892 1.403 . S
C895 C896 1.524 . S
C895 C899 1.400 . S
C896 H881 0.960 . S
C896 H882 0.960 . S
C896 H883 0.960 . S
C896 C895 1.524 . S
C897 C894 1.403 . S
C897 C898 1.392 . S
C897 C901 1.495 . S
C898 C897 1.392 . S
C898 C899 1.385 . S
C898 C900 1.478 . S
C899 H893 0.930 . S
C899 C895 1.400 . S
C899 C898 1.385 . S
C900 C898 1.478 . S
C900 C902 1.381 . S
C900 C906 1.383 . S
C901 C897 1.495 . S
C901 H907 0.959 . S
C901 H908 0.961 . S
C901 H909 0.960 . S
C902 C900 1.381 . S
C902 C903 1.394 . S
C902 H910 0.930 . S
C903 C902 1.394 . S
C903 C904 1.383 . S
C903 H911 0.929 . S
C904 C903 1.383 . S
C904 C905 1.377 . S
C905 H889 0.930 . S
C905 C904 1.377 . S
C905 C906 1.379 . S
C906 H890 0.931 . S
C906 C900 1.383 . S
C906 C905 1.379 . S
H907 C901 0.959 . S
H908 C901 0.961 . S
H909 C901 0.960 . S
H910 C902 0.930 . S
H911 C903 0.929 . S
H912 C920 0.929 . S
H913 C922 0.930 . S
H914 C924 0.930 . S
H915 C927 0.929 . S
H916 C930 0.930 . S
H917 C932 0.960 . S
H918 C932 0.960 . S
H919 C932 0.960 . S
C920 H912 0.929 . S
C920 C921 1.377 . S
C920 C922 1.384 . S
C921 C920 1.377 . S
C921 C927 1.390 . S
C922 H913 0.930 . S
C922 C920 1.384 . S
C922 C923 1.372 . S
C923 C922 1.372 . S
C923 C924 1.400 . S
C923 C928 1.490 . S
C924 H914 0.930 . S
C924 C923 1.400 . S
C924 C927 1.386 . S
H925 C941 0.930 . S
H926 C942 0.931 . S
C927 H915 0.929 . S
C927 C921 1.390 . S
C927 C924 1.386 . S
C928 C923 1.490 . S
C928 C930 1.395 . S
C928 C931 1.403 . S
H929 C935 0.930 . S
C930 H916 0.930 . S
C930 C928 1.395 . S
C930 C933 1.403 1_565 S
C931 C928 1.403 . S
C931 C932 1.524 . S
C931 C935 1.400 1_565 S
C932 H917 0.960 . S
C932 H918 0.960 . S
C932 H919 0.960 . S
C932 C931 1.524 . S
C933 C930 1.403 1_545 S
C933 C934 1.392 . S
C933 C937 1.495 . S
C934 C933 1.392 . S
C934 C935 1.385 . S
C934 C936 1.478 . S
C935 H929 0.930 . S
C935 C931 1.400 1_545 S
C935 C934 1.385 . S
C936 C934 1.478 . S
C936 C938 1.381 . S
C936 C942 1.383 . S
C937 C933 1.495 . S
C937 H943 0.959 . S
C937 H944 0.961 . S
C937 H945 0.960 . S
C938 C936 1.381 . S
C938 C939 1.394 . S
C938 H946 0.930 . S
C939 C938 1.394 . S
C939 C940 1.383 . S
C939 H947 0.929 . S
C940 C939 1.383 . S
C940 C941 1.377 . S
C941 H925 0.930 . S
C941 C940 1.377 . S
C941 C942 1.379 . S
C942 H926 0.931 . S
C942 C936 1.383 . S
C942 C941 1.379 . S
H943 C937 0.959 . S
H944 C937 0.961 . S
H945 C937 0.960 . S
H946 C938 0.930 . S
H947 C939 0.929 . S
H948 C956 0.929 . S
H949 C958 0.930 . S
H950 C960 0.930 . S
H951 C963 0.929 . S
H952 C966 0.930 . S
H953 C968 0.960 . S
H954 C968 0.960 . S
H955 C968 0.960 . S
C956 H948 0.929 . S
C956 C957 1.377 . S
C956 C958 1.384 . S
C957 C956 1.377 . S
C957 C963 1.390 . S
C958 H949 0.930 . S
C958 C956 1.384 . S
C958 C959 1.372 . S
C959 C958 1.372 . S
C959 C960 1.400 . S
C959 C964 1.490 . S
C960 H950 0.930 . S
C960 C959 1.400 . S
C960 C963 1.386 . S
H961 C977 0.930 . S
H962 C978 0.931 . S
C963 H951 0.929 . S
C963 C957 1.390 . S
C963 C960 1.386 . S
C964 C959 1.490 . S
C964 C966 1.395 . S
C964 C967 1.403 . S
H965 C971 0.930 . S
C966 H952 0.930 . S
C966 C964 1.395 . S
C966 C969 1.403 . S
C967 C964 1.403 . S
C967 C968 1.524 . S
C967 C971 1.400 . S
C968 H953 0.960 . S
C968 H954 0.960 . S
C968 H955 0.960 . S
C968 C967 1.524 . S
C969 C966 1.403 . S
C969 C970 1.392 . S
C969 C973 1.495 . S
C970 C969 1.392 . S
C970 C971 1.385 . S
C970 C972 1.478 . S
C971 H965 0.930 . S
C971 C967 1.400 . S
C971 C970 1.385 . S
C972 C970 1.478 . S
C972 C974 1.381 . S
C972 C978 1.383 . S
C973 C969 1.495 . S
C973 H979 0.959 . S
C973 H980 0.961 . S
C973 H981 0.960 . S
C974 C972 1.381 . S
C974 C975 1.394 . S
C974 H982 0.930 . S
C975 C974 1.394 . S
C975 C976 1.383 . S
C975 H983 0.929 . S
C976 C975 1.383 . S
C976 C977 1.377 . S
C977 H961 0.930 . S
C977 C976 1.377 . S
C977 C978 1.379 . S
C978 H962 0.931 . S
C978 C972 1.383 . S
C978 C977 1.379 . S
H979 C973 0.959 . S
H980 C973 0.961 . S
H981 C973 0.960 . S
H982 C974 0.930 . S
H983 C975 0.929 . S
H984 C992 0.929 . S
H985 C994 0.930 . S
H986 C996 0.930 . S
H987 C999 0.929 . S
H988 C1002 0.930 . S
H989 C1004 0.960 . S
H990 C1004 0.960 . S
H991 C1004 0.960 . S
C992 H984 0.929 . S
C992 C993 1.377 . S
C992 C994 1.384 . S
C993 C992 1.377 . S
C993 C999 1.390 . S
C994 H985 0.930 . S
C994 C992 1.384 . S
C994 C995 1.372 . S
C995 C994 1.372 . S
C995 C996 1.400 . S
C995 C1000 1.490 . S
C996 H986 0.930 . S
C996 C995 1.400 . S
C996 C999 1.386 . S
H997 C1013 0.930 . S
H998 C1014 0.931 . S
C999 H987 0.929 . S
C999 C993 1.390 . S
C999 C996 1.386 . S
C1000 C995 1.490 . S
C1000 C1002 1.395 . S
C1000 C1003 1.403 . S
H1001 C1007 0.930 . S
C1002 H988 0.930 . S
C1002 C1000 1.395 . S
C1002 C1005 1.403 1_545 S
C1003 C1000 1.403 . S
C1003 C1004 1.524 . S
C1003 C1007 1.400 1_545 S
C1004 H989 0.960 . S
C1004 H990 0.960 . S
C1004 H991 0.960 . S
C1004 C1003 1.524 . S
C1005 C1002 1.403 1_565 S
C1005 C1006 1.392 . S
C1005 C1009 1.495 . S
C1006 C1005 1.392 . S
C1006 C1007 1.385 . S
C1006 C1008 1.478 . S
C1007 H1001 0.930 . S
C1007 C1003 1.400 1_565 S
C1007 C1006 1.385 . S
C1008 C1006 1.478 . S
C1008 C1010 1.381 . S
C1008 C1014 1.383 . S
C1009 C1005 1.495 . S
C1009 H1015 0.959 . S
C1009 H1016 0.961 . S
C1009 H1017 0.960 . S
C1010 C1008 1.381 . S
C1010 C1011 1.394 . S
C1010 H1018 0.930 . S
C1011 C1010 1.394 . S
C1011 C1012 1.383 . S
C1011 H1019 0.929 . S
C1012 C1011 1.383 . S
C1012 C1013 1.377 . S
C1013 H997 0.930 . S
C1013 C1012 1.377 . S
C1013 C1014 1.379 . S
C1014 H998 0.931 . S
C1014 C1008 1.383 . S
C1014 C1013 1.379 . S
H1015 C1009 0.959 . S
H1016 C1009 0.961 . S
H1017 C1009 0.960 . S
H1018 C1010 0.930 . S
H1019 C1011 0.929 . S
H1020 C1028 0.929 . S
H1021 C1030 0.930 . S
H1022 C1032 0.930 . S
H1023 C1035 0.929 . S
H1024 C1038 0.930 . S
H1025 C1040 0.960 . S
H1026 C1040 0.960 . S
H1027 C1040 0.960 . S
C1028 H1020 0.929 . S
C1028 C1029 1.377 . S
C1028 C1030 1.384 . S
C1029 C1028 1.377 . S
C1029 C1035 1.390 . S
C1030 H1021 0.930 . S
C1030 C1028 1.384 . S
C1030 C1031 1.372 . S
C1031 C1030 1.372 . S
C1031 C1032 1.400 . S
C1031 C1036 1.490 . S
C1032 H1022 0.930 . S
C1032 C1031 1.400 . S
C1032 C1035 1.386 . S
H1033 C1049 0.930 . S
H1034 C1050 0.931 . S
C1035 H1023 0.929 . S
C1035 C1029 1.390 . S
C1035 C1032 1.386 . S
C1036 C1031 1.490 . S
C1036 C1038 1.395 . S
C1036 C1039 1.403 . S
H1037 C1043 0.930 . S
C1038 H1024 0.930 . S
C1038 C1036 1.395 . S
C1038 C1041 1.403 . S
C1039 C1036 1.403 . S
C1039 C1040 1.524 . S
C1039 C1043 1.400 . S
C1040 H1025 0.960 . S
C1040 H1026 0.960 . S
C1040 H1027 0.960 . S
C1040 C1039 1.524 . S
C1041 C1038 1.403 . S
C1041 C1042 1.392 . S
C1041 C1045 1.495 . S
C1042 C1041 1.392 . S
C1042 C1043 1.385 . S
C1042 C1044 1.478 . S
C1043 H1037 0.930 . S
C1043 C1039 1.400 . S
C1043 C1042 1.385 . S
C1044 C1042 1.478 . S
C1044 C1046 1.381 . S
C1044 C1050 1.383 . S
C1045 C1041 1.495 . S
C1045 H1051 0.959 . S
C1045 H1052 0.961 . S
C1045 H1053 0.960 . S
C1046 C1044 1.381 . S
C1046 C1047 1.394 . S
C1046 H1054 0.930 . S
C1047 C1046 1.394 . S
C1047 C1048 1.383 . S
C1047 H1055 0.929 . S
C1048 C1047 1.383 . S
C1048 C1049 1.377 . S
C1049 H1033 0.930 . S
C1049 C1048 1.377 . S
C1049 C1050 1.379 . S
C1050 H1034 0.931 . S
C1050 C1044 1.383 . S
C1050 C1049 1.379 . S
H1051 C1045 0.959 . S
H1052 C1045 0.961 . S
H1053 C1045 0.960 . S
H1054 C1046 0.930 . S
H1055 C1047 0.929 . S
H1056 C1064 0.929 . S
H1057 C1066 0.930 . S
H1058 C1068 0.930 . S
H1059 C1071 0.929 . S
H1060 C1074 0.930 . S
H1061 C1076 0.960 . S
H1062 C1076 0.960 . S
H1063 C1076 0.960 . S
C1064 H1056 0.929 . S
C1064 C1065 1.377 . S
C1064 C1066 1.384 . S
C1065 C1064 1.377 . S
C1065 C1071 1.390 . S
C1066 H1057 0.930 . S
C1066 C1064 1.384 . S
C1066 C1067 1.372 . S
C1067 C1066 1.372 . S
C1067 C1068 1.400 . S
C1067 C1072 1.490 . S
C1068 H1058 0.930 . S
C1068 C1067 1.400 . S
C1068 C1071 1.386 . S
H1069 C1085 0.930 . S
H1070 C1086 0.931 . S
C1071 H1059 0.929 . S
C1071 C1065 1.390 . S
C1071 C1068 1.386 . S
C1072 C1067 1.490 . S
C1072 C1074 1.395 . S
C1072 C1075 1.403 . S
H1073 C1079 0.930 . S
C1074 H1060 0.930 . S
C1074 C1072 1.395 . S
C1074 C1077 1.403 1_545 S
C1075 C1072 1.403 . S
C1075 C1076 1.524 . S
C1075 C1079 1.400 1_545 S
C1076 H1061 0.960 . S
C1076 H1062 0.960 . S
C1076 H1063 0.960 . S
C1076 C1075 1.524 . S
C1077 C1074 1.403 1_565 S
C1077 C1078 1.392 . S
C1077 C1081 1.495 . S
C1078 C1077 1.392 . S
C1078 C1079 1.385 . S
C1078 C1080 1.478 . S
C1079 H1073 0.930 . S
C1079 C1075 1.400 1_565 S
C1079 C1078 1.385 . S
C1080 C1078 1.478 . S
C1080 C1082 1.381 . S
C1080 C1086 1.383 . S
C1081 C1077 1.495 . S
C1081 H1087 0.959 . S
C1081 H1088 0.961 . S
C1081 H1089 0.960 . S
C1082 C1080 1.381 . S
C1082 C1083 1.394 . S
C1082 H1090 0.930 . S
C1083 C1082 1.394 . S
C1083 C1084 1.383 . S
C1083 H1091 0.929 . S
C1084 C1083 1.383 . S
C1084 C1085 1.377 . S
C1085 H1069 0.930 . S
C1085 C1084 1.377 . S
C1085 C1086 1.379 . S
C1086 H1070 0.931 . S
C1086 C1080 1.383 . S
C1086 C1085 1.379 . S
H1087 C1081 0.959 . S
H1088 C1081 0.961 . S
H1089 C1081 0.960 . S
H1090 C1082 0.930 . S
H1091 C1083 0.929 . S
H1092 C1100 0.929 . S
H1093 C1102 0.930 . S
H1094 C1104 0.930 . S
H1095 C1107 0.929 . S
H1096 C1110 0.930 . S
H1097 C1112 0.960 . S
H1098 C1112 0.960 . S
H1099 C1112 0.960 . S
C1100 H1092 0.929 . S
C1100 C1101 1.377 . S
C1100 C1102 1.384 . S
C1101 C1100 1.377 . S
C1101 C1107 1.390 . S
C1102 H1093 0.930 . S
C1102 C1100 1.384 . S
C1102 C1103 1.372 . S
C1103 C1102 1.372 . S
C1103 C1104 1.400 . S
C1103 C1108 1.490 . S
C1104 H1094 0.930 . S
C1104 C1103 1.400 . S
C1104 C1107 1.386 . S
H1105 C1121 0.930 . S
H1106 C1122 0.931 . S
C1107 H1095 0.929 . S
C1107 C1101 1.390 . S
C1107 C1104 1.386 . S
C1108 C1103 1.490 . S
C1108 C1110 1.395 . S
C1108 C1111 1.403 . S
H1109 C1115 0.930 . S
C1110 H1096 0.930 . S
C1110 C1108 1.395 . S
C1110 C1113 1.403 . S
C1111 C1108 1.403 . S
C1111 C1112 1.524 . S
C1111 C1115 1.400 . S
C1112 H1097 0.960 . S
C1112 H1098 0.960 . S
C1112 H1099 0.960 . S
C1112 C1111 1.524 . S
C1113 C1110 1.403 . S
C1113 C1114 1.392 . S
C1113 C1117 1.495 . S
C1114 C1113 1.392 . S
C1114 C1115 1.385 . S
C1114 C1116 1.478 . S
C1115 H1109 0.930 . S
C1115 C1111 1.400 . S
C1115 C1114 1.385 . S
C1116 C1114 1.478 . S
C1116 C1118 1.381 . S
C1116 C1122 1.383 . S
C1117 C1113 1.495 . S
C1117 H1123 0.959 . S
C1117 H1124 0.961 . S
C1117 H1125 0.960 . S
C1118 C1116 1.381 . S
C1118 C1119 1.394 . S
C1118 H1126 0.930 . S
C1119 C1118 1.394 . S
C1119 C1120 1.383 . S
C1119 H1127 0.929 . S
C1120 C1119 1.383 . S
C1120 C1121 1.377 . S
C1121 H1105 0.930 . S
C1121 C1120 1.377 . S
C1121 C1122 1.379 . S
C1122 H1106 0.931 . S
C1122 C1116 1.383 . S
C1122 C1121 1.379 . S
H1123 C1117 0.959 . S
H1124 C1117 0.961 . S
H1125 C1117 0.960 . S
H1126 C1118 0.930 . S
H1127 C1119 0.929 . S
H1128 C1136 0.929 . S
H1129 C1138 0.930 . S
H1130 C1140 0.930 . S
H1131 C1143 0.929 . S
H1132 C1146 0.930 . S
H1133 C1148 0.960 . S
H1134 C1148 0.960 . S
H1135 C1148 0.960 . S
C1136 H1128 0.929 . S
C1136 C1137 1.377 . S
C1136 C1138 1.384 . S
C1137 C1136 1.377 . S
C1137 C1143 1.390 . S
C1138 H1129 0.930 . S
C1138 C1136 1.384 . S
C1138 C1139 1.372 . S
C1139 C1138 1.372 . S
C1139 C1140 1.400 . S
C1139 C1144 1.490 . S
C1140 H1130 0.930 . S
C1140 C1139 1.400 . S
C1140 C1143 1.386 . S
H1141 C1157 0.930 . S
H1142 C1158 0.931 . S
C1143 H1131 0.929 . S
C1143 C1137 1.390 . S
C1143 C1140 1.386 . S
C1144 C1139 1.490 . S
C1144 C1146 1.395 . S
C1144 C1147 1.403 . S
H1145 C1151 0.930 . S
C1146 H1132 0.930 . S
C1146 C1144 1.395 . S
C1146 C1149 1.403 1_545 S
C1147 C1144 1.403 . S
C1147 C1148 1.524 . S
C1147 C1151 1.400 1_545 S
C1148 H1133 0.960 . S
C1148 H1134 0.960 . S
C1148 H1135 0.960 . S
C1148 C1147 1.524 . S
C1149 C1146 1.403 1_565 S
C1149 C1150 1.392 . S
C1149 C1153 1.495 . S
C1150 C1149 1.392 . S
C1150 C1151 1.385 . S
C1150 C1152 1.478 . S
C1151 H1145 0.930 . S
C1151 C1147 1.400 1_565 S
C1151 C1150 1.385 . S
C1152 C1150 1.478 . S
C1152 C1154 1.381 . S
C1152 C1158 1.383 . S
C1153 C1149 1.495 . S
C1153 H1159 0.959 . S
C1153 H1160 0.961 . S
C1153 H1161 0.960 . S
C1154 C1152 1.381 . S
C1154 C1155 1.394 . S
C1154 H1162 0.930 . S
C1155 C1154 1.394 . S
C1155 C1156 1.383 . S
C1155 H1163 0.929 . S
C1156 C1155 1.383 . S
C1156 C1157 1.377 . S
C1157 H1141 0.930 . S
C1157 C1156 1.377 . S
C1157 C1158 1.379 . S
C1158 H1142 0.931 . S
C1158 C1152 1.383 . S
C1158 C1157 1.379 . S
H1159 C1153 0.959 . S
H1160 C1153 0.961 . S
H1161 C1153 0.960 . S
H1162 C1154 0.930 . S
H1163 C1155 0.929 . S
H1164 C1172 0.929 . S
H1165 C1174 0.930 . S
H1166 C1176 0.930 . S
H1167 C1179 0.929 . S
H1168 C1182 0.930 . S
H1169 C1184 0.960 . S
H1170 C1184 0.960 . S
H1171 C1184 0.960 . S
C1172 H1164 0.929 . S
C1172 C1173 1.377 . S
C1172 C1174 1.384 . S
C1173 C1172 1.377 . S
C1173 C1179 1.390 . S
C1174 H1165 0.930 . S
C1174 C1172 1.384 . S
C1174 C1175 1.372 . S
C1175 C1174 1.372 . S
C1175 C1176 1.400 . S
C1175 C1180 1.490 . S
C1176 H1166 0.930 . S
C1176 C1175 1.400 . S
C1176 C1179 1.386 . S
H1177 C1193 0.930 . S
H1178 C1194 0.931 . S
C1179 H1167 0.929 . S
C1179 C1173 1.390 . S
C1179 C1176 1.386 . S
C1180 C1175 1.490 . S
C1180 C1182 1.395 . S
C1180 C1183 1.403 . S
H1181 C1187 0.930 . S
C1182 H1168 0.930 . S
C1182 C1180 1.395 . S
C1182 C1185 1.403 . S
C1183 C1180 1.403 . S
C1183 C1184 1.524 . S
C1183 C1187 1.400 . S
C1184 H1169 0.960 . S
C1184 H1170 0.960 . S
C1184 H1171 0.960 . S
C1184 C1183 1.524 . S
C1185 C1182 1.403 . S
C1185 C1186 1.392 . S
C1185 C1189 1.495 . S
C1186 C1185 1.392 . S
C1186 C1187 1.385 . S
C1186 C1188 1.478 . S
C1187 H1181 0.930 . S
C1187 C1183 1.400 . S
C1187 C1186 1.385 . S
C1188 C1186 1.478 . S
C1188 C1190 1.381 . S
C1188 C1194 1.383 . S
C1189 C1185 1.495 . S
C1189 H1195 0.959 . S
C1189 H1196 0.961 . S
C1189 H1197 0.960 . S
C1190 C1188 1.381 . S
C1190 C1191 1.394 . S
C1190 H1198 0.930 . S
C1191 C1190 1.394 . S
C1191 C1192 1.383 . S
C1191 H1199 0.929 . S
C1192 C1191 1.383 . S
C1192 C1193 1.377 . S
C1193 H1177 0.930 . S
C1193 C1192 1.377 . S
C1193 C1194 1.379 . S
C1194 H1178 0.931 . S
C1194 C1188 1.383 . S
C1194 C1193 1.379 . S
H1195 C1189 0.959 . S
H1196 C1189 0.961 . S
H1197 C1189 0.960 . S
H1198 C1190 0.930 . S
H1199 C1191 0.929 . S
H1200 C1208 0.929 . S
H1201 C1210 0.930 . S
H1202 C1212 0.930 . S
H1203 C1215 0.929 . S
H1204 C1218 0.930 . S
H1205 C1220 0.960 . S
H1206 C1220 0.960 . S
H1207 C1220 0.960 . S
C1208 H1200 0.929 . S
C1208 C1209 1.377 . S
C1208 C1210 1.384 . S
C1209 C1208 1.377 . S
C1209 C1215 1.390 . S
C1210 H1201 0.930 . S
C1210 C1208 1.384 . S
C1210 C1211 1.372 . S
C1211 C1210 1.372 . S
C1211 C1212 1.400 . S
C1211 C1216 1.490 . S
C1212 H1202 0.930 . S
C1212 C1211 1.400 . S
C1212 C1215 1.386 . S
H1213 C1229 0.930 . S
H1214 C1230 0.931 . S
C1215 H1203 0.929 . S
C1215 C1209 1.390 . S
C1215 C1212 1.386 . S
C1216 C1211 1.490 . S
C1216 C1218 1.395 . S
C1216 C1219 1.403 . S
H1217 C1223 0.930 . S
C1218 H1204 0.930 . S
C1218 C1216 1.395 . S
C1218 C1221 1.403 1_554 S
C1219 C1216 1.403 . S
C1219 C1220 1.524 . S
C1219 C1223 1.400 1_554 S
C1220 H1205 0.960 . S
C1220 H1206 0.960 . S
C1220 H1207 0.960 . S
C1220 C1219 1.524 . S
C1221 C1218 1.403 1_556 S
C1221 C1222 1.392 . S
C1221 C1225 1.495 . S
C1222 C1221 1.392 . S
C1222 C1223 1.385 . S
C1222 C1224 1.478 . S
C1223 H1217 0.930 . S
C1223 C1219 1.400 1_556 S
C1223 C1222 1.385 . S
C1224 C1222 1.478 . S
C1224 C1226 1.381 . S
C1224 C1230 1.383 . S
C1225 C1221 1.495 . S
C1225 H1231 0.959 . S
C1225 H1232 0.961 . S
C1225 H1233 0.960 . S
C1226 C1224 1.381 . S
C1226 C1227 1.394 . S
C1226 H1234 0.930 . S
C1227 C1226 1.394 . S
C1227 C1228 1.383 . S
C1227 H1235 0.929 . S
C1228 C1227 1.383 . S
C1228 C1229 1.377 . S
C1229 H1213 0.930 . S
C1229 C1228 1.377 . S
C1229 C1230 1.379 . S
C1230 H1214 0.931 . S
C1230 C1224 1.383 . S
C1230 C1229 1.379 . S
H1231 C1225 0.959 . S
H1232 C1225 0.961 . S
H1233 C1225 0.960 . S
H1234 C1226 0.930 . S
H1235 C1227 0.929 . S
H1236 C1244 0.929 . S
H1237 C1246 0.930 . S
H1238 C1248 0.930 . S
H1239 C1251 0.929 . S
H1240 C1254 0.930 . S
H1241 C1256 0.960 . S
H1242 C1256 0.960 . S
H1243 C1256 0.960 . S
C1244 H1236 0.929 . S
C1244 C1245 1.377 . S
C1244 C1246 1.384 . S
C1245 C1244 1.377 . S
C1245 C1251 1.390 . S
C1246 H1237 0.930 . S
C1246 C1244 1.384 . S
C1246 C1247 1.372 . S
C1247 C1246 1.372 . S
C1247 C1248 1.400 . S
C1247 C1252 1.490 . S
C1248 H1238 0.930 . S
C1248 C1247 1.400 . S
C1248 C1251 1.386 . S
H1249 C1265 0.930 . S
H1250 C1266 0.931 . S
C1251 H1239 0.929 . S
C1251 C1245 1.390 . S
C1251 C1248 1.386 . S
C1252 C1247 1.490 . S
C1252 C1254 1.395 . S
C1252 C1255 1.403 . S
H1253 C1259 0.930 . S
C1254 H1240 0.930 . S
C1254 C1252 1.395 . S
C1254 C1257 1.403 1_554 S
C1255 C1252 1.403 . S
C1255 C1256 1.524 . S
C1255 C1259 1.400 1_554 S
C1256 H1241 0.960 . S
C1256 H1242 0.960 . S
C1256 H1243 0.960 . S
C1256 C1255 1.524 . S
C1257 C1254 1.403 1_556 S
C1257 C1258 1.392 . S
C1257 C1261 1.495 . S
C1258 C1257 1.392 . S
C1258 C1259 1.385 . S
C1258 C1260 1.478 . S
C1259 H1253 0.930 . S
C1259 C1255 1.400 1_556 S
C1259 C1258 1.385 . S
C1260 C1258 1.478 . S
C1260 C1262 1.381 . S
C1260 C1266 1.383 . S
C1261 C1257 1.495 . S
C1261 H1267 0.959 . S
C1261 H1268 0.961 . S
C1261 H1269 0.960 . S
C1262 C1260 1.381 . S
C1262 C1263 1.394 . S
C1262 H1270 0.930 . S
C1263 C1262 1.394 . S
C1263 C1264 1.383 . S
C1263 H1271 0.929 . S
C1264 C1263 1.383 . S
C1264 C1265 1.377 . S
C1265 H1249 0.930 . S
C1265 C1264 1.377 . S
C1265 C1266 1.379 . S
C1266 H1250 0.931 . S
C1266 C1260 1.383 . S
C1266 C1265 1.379 . S
H1267 C1261 0.959 . S
H1268 C1261 0.961 . S
H1269 C1261 0.960 . S
H1270 C1262 0.930 . S
H1271 C1263 0.929 . S
H1272 C1280 0.929 . S
H1273 C1282 0.930 . S
H1274 C1284 0.930 . S
H1275 C1287 0.929 . S
H1276 C1290 0.930 . S
H1277 C1292 0.960 . S
H1278 C1292 0.960 . S
H1279 C1292 0.960 . S
C1280 H1272 0.929 . S
C1280 C1281 1.377 . S
C1280 C1282 1.384 . S
C1281 C1280 1.377 . S
C1281 C1287 1.390 . S
C1282 H1273 0.930 . S
C1282 C1280 1.384 . S
C1282 C1283 1.372 . S
C1283 C1282 1.372 . S
C1283 C1284 1.400 . S
C1283 C1288 1.490 . S
C1284 H1274 0.930 . S
C1284 C1283 1.400 . S
C1284 C1287 1.386 . S
H1285 C1301 0.930 . S
H1286 C1302 0.931 . S
C1287 H1275 0.929 . S
C1287 C1281 1.390 . S
C1287 C1284 1.386 . S
C1288 C1283 1.490 . S
C1288 C1290 1.395 . S
C1288 C1291 1.403 . S
H1289 C1295 0.930 . S
C1290 H1276 0.930 . S
C1290 C1288 1.395 . S
C1290 C1293 1.403 . S
C1291 C1288 1.403 . S
C1291 C1292 1.524 . S
C1291 C1295 1.400 . S
C1292 H1277 0.960 . S
C1292 H1278 0.960 . S
C1292 H1279 0.960 . S
C1292 C1291 1.524 . S
C1293 C1290 1.403 . S
C1293 C1294 1.392 . S
C1293 C1297 1.495 . S
C1294 C1293 1.392 . S
C1294 C1295 1.385 . S
C1294 C1296 1.478 . S
C1295 H1289 0.930 . S
C1295 C1291 1.400 . S
C1295 C1294 1.385 . S
C1296 C1294 1.478 . S
C1296 C1298 1.381 . S
C1296 C1302 1.383 . S
C1297 C1293 1.495 . S
C1297 H1303 0.959 . S
C1297 H1304 0.961 . S
C1297 H1305 0.960 . S
C1298 C1296 1.381 . S
C1298 C1299 1.394 . S
C1298 H1306 0.930 . S
C1299 C1298 1.394 . S
C1299 C1300 1.383 . S
C1299 H1307 0.929 . S
C1300 C1299 1.383 . S
C1300 C1301 1.377 . S
C1301 H1285 0.930 . S
C1301 C1300 1.377 . S
C1301 C1302 1.379 . S
C1302 H1286 0.931 . S
C1302 C1296 1.383 . S
C1302 C1301 1.379 . S
H1303 C1297 0.959 . S
H1304 C1297 0.961 . S
H1305 C1297 0.960 . S
H1306 C1298 0.930 . S
H1307 C1299 0.929 . S
H1308 C1316 0.929 . S
H1309 C1318 0.930 . S
H1310 C1320 0.930 . S
H1311 C1323 0.929 . S
H1312 C1326 0.930 . S
H1313 C1328 0.960 . S
H1314 C1328 0.960 . S
H1315 C1328 0.960 . S
C1316 H1308 0.929 . S
C1316 C1317 1.377 . S
C1316 C1318 1.384 . S
C1317 C1316 1.377 . S
C1317 C1323 1.390 . S
C1318 H1309 0.930 . S
C1318 C1316 1.384 . S
C1318 C1319 1.372 . S
C1319 C1318 1.372 . S
C1319 C1320 1.400 . S
C1319 C1324 1.490 . S
C1320 H1310 0.930 . S
C1320 C1319 1.400 . S
C1320 C1323 1.386 . S
H1321 C1337 0.930 . S
H1322 C1338 0.931 . S
C1323 H1311 0.929 . S
C1323 C1317 1.390 . S
C1323 C1320 1.386 . S
C1324 C1319 1.490 . S
C1324 C1326 1.395 . S
C1324 C1327 1.403 . S
H1325 C1331 0.930 . S
C1326 H1312 0.930 . S
C1326 C1324 1.395 . S
C1326 C1329 1.403 1_554 S
C1327 C1324 1.403 . S
C1327 C1328 1.524 . S
C1327 C1331 1.400 1_554 S
C1328 H1313 0.960 . S
C1328 H1314 0.960 . S
C1328 H1315 0.960 . S
C1328 C1327 1.524 . S
C1329 C1326 1.403 1_556 S
C1329 C1330 1.392 . S
C1329 C1333 1.495 . S
C1330 C1329 1.392 . S
C1330 C1331 1.385 . S
C1330 C1332 1.478 . S
C1331 H1325 0.930 . S
C1331 C1327 1.400 1_556 S
C1331 C1330 1.385 . S
C1332 C1330 1.478 . S
C1332 C1334 1.381 . S
C1332 C1338 1.383 . S
C1333 C1329 1.495 . S
C1333 H1339 0.959 . S
C1333 H1340 0.961 . S
C1333 H1341 0.960 . S
C1334 C1332 1.381 . S
C1334 C1335 1.394 . S
C1334 H1342 0.930 . S
C1335 C1334 1.394 . S
C1335 C1336 1.383 . S
C1335 H1343 0.929 . S
C1336 C1335 1.383 . S
C1336 C1337 1.377 . S
C1337 H1321 0.930 . S
C1337 C1336 1.377 . S
C1337 C1338 1.379 . S
C1338 H1322 0.931 . S
C1338 C1332 1.383 . S
C1338 C1337 1.379 . S
H1339 C1333 0.959 . S
H1340 C1333 0.961 . S
H1341 C1333 0.960 . S
H1342 C1334 0.930 . S
H1343 C1335 0.929 . S
H1344 C1352 0.929 . S
H1345 C1354 0.930 . S
H1346 C1356 0.930 . S
H1347 C1359 0.929 . S
H1348 C1362 0.930 . S
H1349 C1364 0.960 . S
H1350 C1364 0.960 . S
H1351 C1364 0.960 . S
C1352 H1344 0.929 . S
C1352 C1353 1.377 . S
C1352 C1354 1.384 . S
C1353 C1352 1.377 . S
C1353 C1359 1.390 . S
C1354 H1345 0.930 . S
C1354 C1352 1.384 . S
C1354 C1355 1.372 . S
C1355 C1354 1.372 . S
C1355 C1356 1.400 . S
C1355 C1360 1.490 . S
C1356 H1346 0.930 . S
C1356 C1355 1.400 . S
C1356 C1359 1.386 . S
H1357 C1373 0.930 . S
H1358 C1374 0.931 . S
C1359 H1347 0.929 . S
C1359 C1353 1.390 . S
C1359 C1356 1.386 . S
C1360 C1355 1.490 . S
C1360 C1362 1.395 . S
C1360 C1363 1.403 . S
H1361 C1367 0.930 . S
C1362 H1348 0.930 . S
C1362 C1360 1.395 . S
C1362 C1365 1.403 . S
C1363 C1360 1.403 . S
C1363 C1364 1.524 . S
C1363 C1367 1.400 . S
C1364 H1349 0.960 . S
C1364 H1350 0.960 . S
C1364 H1351 0.960 . S
C1364 C1363 1.524 . S
C1365 C1362 1.403 . S
C1365 C1366 1.392 . S
C1365 C1369 1.495 . S
C1366 C1365 1.392 . S
C1366 C1367 1.385 . S
C1366 C1368 1.478 . S
C1367 H1361 0.930 . S
C1367 C1363 1.400 . S
C1367 C1366 1.385 . S
C1368 C1366 1.478 . S
C1368 C1370 1.381 . S
C1368 C1374 1.383 . S
C1369 C1365 1.495 . S
C1369 H1375 0.959 . S
C1369 H1376 0.961 . S
C1369 H1377 0.960 . S
C1370 C1368 1.381 . S
C1370 C1371 1.394 . S
C1370 H1378 0.930 . S
C1371 C1370 1.394 . S
C1371 C1372 1.383 . S
C1371 H1379 0.929 . S
C1372 C1371 1.383 . S
C1372 C1373 1.377 . S
C1373 H1357 0.930 . S
C1373 C1372 1.377 . S
C1373 C1374 1.379 . S
C1374 H1358 0.931 . S
C1374 C1368 1.383 . S
C1374 C1373 1.379 . S
H1375 C1369 0.959 . S
H1376 C1369 0.961 . S
H1377 C1369 0.960 . S
H1378 C1370 0.930 . S
H1379 C1371 0.929 . S
H1380 C1388 0.929 . S
H1381 C1390 0.930 . S
H1382 C1392 0.930 . S
H1383 C1395 0.929 . S
H1384 C1398 0.930 . S
H1385 C1400 0.960 . S
H1386 C1400 0.960 . S
H1387 C1400 0.960 . S
C1388 H1380 0.929 . S
C1388 C1389 1.377 . S
C1388 C1390 1.384 . S
C1389 C1388 1.377 . S
C1389 C1395 1.390 . S
C1390 H1381 0.930 . S
C1390 C1388 1.384 . S
C1390 C1391 1.372 . S
C1391 C1390 1.372 . S
C1391 C1392 1.400 . S
C1391 C1396 1.490 . S
C1392 H1382 0.930 . S
C1392 C1391 1.400 . S
C1392 C1395 1.386 . S
H1393 C1409 0.930 . S
H1394 C1410 0.931 . S
C1395 H1383 0.929 . S
C1395 C1389 1.390 . S
C1395 C1392 1.386 . S
C1396 C1391 1.490 . S
C1396 C1398 1.395 . S
C1396 C1399 1.403 . S
H1397 C1403 0.930 . S
C1398 H1384 0.930 . S
C1398 C1396 1.395 . S
C1398 C1401 1.403 1_554 S
C1399 C1396 1.403 . S
C1399 C1400 1.524 . S
C1399 C1403 1.400 1_554 S
C1400 H1385 0.960 . S
C1400 H1386 0.960 . S
C1400 H1387 0.960 . S
C1400 C1399 1.524 . S
C1401 C1398 1.403 1_556 S
C1401 C1402 1.392 . S
C1401 C1405 1.495 . S
C1402 C1401 1.392 . S
C1402 C1403 1.385 . S
C1402 C1404 1.478 . S
C1403 H1397 0.930 . S
C1403 C1399 1.400 1_556 S
C1403 C1402 1.385 . S
C1404 C1402 1.478 . S
C1404 C1406 1.381 . S
C1404 C1410 1.383 . S
C1405 C1401 1.495 . S
C1405 H1411 0.959 . S
C1405 H1412 0.961 . S
C1405 H1413 0.960 . S
C1406 C1404 1.381 . S
C1406 C1407 1.394 . S
C1406 H1414 0.930 . S
C1407 C1406 1.394 . S
C1407 C1408 1.383 . S
C1407 H1415 0.929 . S
C1408 C1407 1.383 . S
C1408 C1409 1.377 . S
C1409 H1393 0.930 . S
C1409 C1408 1.377 . S
C1409 C1410 1.379 . S
C1410 H1394 0.931 . S
C1410 C1404 1.383 . S
C1410 C1409 1.379 . S
H1411 C1405 0.959 . S
H1412 C1405 0.961 . S
H1413 C1405 0.960 . S
H1414 C1406 0.930 . S
H1415 C1407 0.929 . S
H1416 C1424 0.929 . S
H1417 C1426 0.930 . S
H1418 C1428 0.930 . S
H1419 C1431 0.929 . S
H1420 C1434 0.930 . S
H1421 C1436 0.960 . S
H1422 C1436 0.960 . S
H1423 C1436 0.960 . S
C1424 H1416 0.929 . S
C1424 C1425 1.377 . S
C1424 C1426 1.384 . S
C1425 C1424 1.377 . S
C1425 C1431 1.390 . S
C1426 H1417 0.930 . S
C1426 C1424 1.384 . S
C1426 C1427 1.372 . S
C1427 C1426 1.372 . S
C1427 C1428 1.400 . S
C1427 C1432 1.490 . S
C1428 H1418 0.930 . S
C1428 C1427 1.400 . S
C1428 C1431 1.386 . S
H1429 C1445 0.930 . S
H1430 C1446 0.931 . S
C1431 H1419 0.929 . S
C1431 C1425 1.390 . S
C1431 C1428 1.386 . S
C1432 C1427 1.490 . S
C1432 C1434 1.395 . S
C1432 C1435 1.403 . S
H1433 C1439 0.930 . S
C1434 H1420 0.930 . S
C1434 C1432 1.395 . S
C1434 C1437 1.403 . S
C1435 C1432 1.403 . S
C1435 C1436 1.524 . S
C1435 C1439 1.400 . S
C1436 H1421 0.960 . S
C1436 H1422 0.960 . S
C1436 H1423 0.960 . S
C1436 C1435 1.524 . S
C1437 C1434 1.403 . S
C1437 C1438 1.392 . S
C1437 C1441 1.495 . S
C1438 C1437 1.392 . S
C1438 C1439 1.385 . S
C1438 C1440 1.478 . S
C1439 H1433 0.930 . S
C1439 C1435 1.400 . S
C1439 C1438 1.385 . S
C1440 C1438 1.478 . S
C1440 C1442 1.381 . S
C1440 C1446 1.383 . S
C1441 C1437 1.495 . S
C1441 H1447 0.959 . S
C1441 H1448 0.961 . S
C1441 H1449 0.960 . S
C1442 C1440 1.381 . S
C1442 C1443 1.394 . S
C1442 H1450 0.930 . S
C1443 C1442 1.394 . S
C1443 C1444 1.383 . S
C1443 H1451 0.929 . S
C1444 C1443 1.383 . S
C1444 C1445 1.377 . S
C1445 H1429 0.930 . S
C1445 C1444 1.377 . S
C1445 C1446 1.379 . S
C1446 H1430 0.931 . S
C1446 C1440 1.383 . S
C1446 C1445 1.379 . S
H1447 C1441 0.959 . S
H1448 C1441 0.961 . S
H1449 C1441 0.960 . S
H1450 C1442 0.930 . S
H1451 C1443 0.929 . S
H1452 C1460 0.929 . S
H1453 C1462 0.930 . S
H1454 C1464 0.930 . S
H1455 C1467 0.929 . S
H1456 C1470 0.930 . S
H1457 C1472 0.960 . S
H1458 C1472 0.960 . S
H1459 C1472 0.960 . S
C1460 H1452 0.929 . S
C1460 C1461 1.377 . S
C1460 C1462 1.384 . S
C1461 C1460 1.377 . S
C1461 C1467 1.390 . S
C1462 H1453 0.930 . S
C1462 C1460 1.384 . S
C1462 C1463 1.372 . S
C1463 C1462 1.372 . S
C1463 C1464 1.400 . S
C1463 C1468 1.490 . S
C1464 H1454 0.930 . S
C1464 C1463 1.400 . S
C1464 C1467 1.386 . S
H1465 C1481 0.930 . S
H1466 C1482 0.931 . S
C1467 H1455 0.929 . S
C1467 C1461 1.390 . S
C1467 C1464 1.386 . S
C1468 C1463 1.490 . S
C1468 C1470 1.395 . S
C1468 C1471 1.403 . S
H1469 C1475 0.930 . S
C1470 H1456 0.930 . S
C1470 C1468 1.395 . S
C1470 C1473 1.403 . S
C1471 C1468 1.403 . S
C1471 C1472 1.524 . S
C1471 C1475 1.400 . S
C1472 H1457 0.960 . S
C1472 H1458 0.960 . S
C1472 H1459 0.960 . S
C1472 C1471 1.524 . S
C1473 C1470 1.403 . S
C1473 C1474 1.392 . S
C1473 C1477 1.495 . S
C1474 C1473 1.392 . S
C1474 C1475 1.385 . S
C1474 C1476 1.478 . S
C1475 H1469 0.930 . S
C1475 C1471 1.400 . S
C1475 C1474 1.385 . S
C1476 C1474 1.478 . S
C1476 C1478 1.381 . S
C1476 C1482 1.383 . S
C1477 C1473 1.495 . S
C1477 H1483 0.959 . S
C1477 H1484 0.961 . S
C1477 H1485 0.960 . S
C1478 C1476 1.381 . S
C1478 C1479 1.394 . S
C1478 H1486 0.930 . S
C1479 C1478 1.394 . S
C1479 C1480 1.383 . S
C1479 H1487 0.929 . S
C1480 C1479 1.383 . S
C1480 C1481 1.377 . S
C1481 H1465 0.930 . S
C1481 C1480 1.377 . S
C1481 C1482 1.379 . S
C1482 H1466 0.931 . S
C1482 C1476 1.383 . S
C1482 C1481 1.379 . S
H1483 C1477 0.959 . S
H1484 C1477 0.961 . S
H1485 C1477 0.960 . S
H1486 C1478 0.930 . S
H1487 C1479 0.929 . S
H1488 C1496 0.929 . S
H1489 C1498 0.930 . S
H1490 C1500 0.930 . S
H1491 C1503 0.929 . S
H1492 C1506 0.930 . S
H1493 C1508 0.960 . S
H1494 C1508 0.960 . S
H1495 C1508 0.960 . S
C1496 H1488 0.929 . S
C1496 C1497 1.377 . S
C1496 C1498 1.384 . S
C1497 C1496 1.377 . S
C1497 C1503 1.390 . S
C1498 H1489 0.930 . S
C1498 C1496 1.384 . S
C1498 C1499 1.372 . S
C1499 C1498 1.372 . S
C1499 C1500 1.400 . S
C1499 C1504 1.490 . S
C1500 H1490 0.930 . S
C1500 C1499 1.400 . S
C1500 C1503 1.386 . S
H1501 C1517 0.930 . S
H1502 C1518 0.931 . S
C1503 H1491 0.929 . S
C1503 C1497 1.390 . S
C1503 C1500 1.386 . S
C1504 C1499 1.490 . S
C1504 C1506 1.395 . S
C1504 C1507 1.403 . S
H1505 C1511 0.930 . S
C1506 H1492 0.930 . S
C1506 C1504 1.395 . S
C1506 C1509 1.403 . S
C1507 C1504 1.403 . S
C1507 C1508 1.524 . S
C1507 C1511 1.400 . S
C1508 H1493 0.960 . S
C1508 H1494 0.960 . S
C1508 H1495 0.960 . S
C1508 C1507 1.524 . S
C1509 C1506 1.403 . S
C1509 C1510 1.392 . S
C1509 C1513 1.495 . S
C1510 C1509 1.392 . S
C1510 C1511 1.385 . S
C1510 C1512 1.478 . S
C1511 H1505 0.930 . S
C1511 C1507 1.400 . S
C1511 C1510 1.385 . S
C1512 C1510 1.478 . S
C1512 C1514 1.381 . S
C1512 C1518 1.383 . S
C1513 C1509 1.495 . S
C1513 H1519 0.959 . S
C1513 H1520 0.961 . S
C1513 H1521 0.960 . S
C1514 C1512 1.381 . S
C1514 C1515 1.394 . S
C1514 H1522 0.930 . S
C1515 C1514 1.394 . S
C1515 C1516 1.383 . S
C1515 H1523 0.929 . S
C1516 C1515 1.383 . S
C1516 C1517 1.377 . S
C1517 H1501 0.930 . S
C1517 C1516 1.377 . S
C1517 C1518 1.379 . S
C1518 H1502 0.931 . S
C1518 C1512 1.383 . S
C1518 C1517 1.379 . S
H1519 C1513 0.959 . S
H1520 C1513 0.961 . S
H1521 C1513 0.960 . S
H1522 C1514 0.930 . S
H1523 C1515 0.929 . S
H1524 C1532 0.929 . S
H1525 C1534 0.930 . S
H1526 C1536 0.930 . S
H1527 C1539 0.929 . S
H1528 C1542 0.930 . S
H1529 C1544 0.960 . S
H1530 C1544 0.960 . S
H1531 C1544 0.960 . S
C1532 H1524 0.929 . S
C1532 C1533 1.377 . S
C1532 C1534 1.384 . S
C1533 C1532 1.377 . S
C1533 C1539 1.390 . S
C1534 H1525 0.930 . S
C1534 C1532 1.384 . S
C1534 C1535 1.372 . S
C1535 C1534 1.372 . S
C1535 C1536 1.400 . S
C1535 C1540 1.490 . S
C1536 H1526 0.930 . S
C1536 C1535 1.400 . S
C1536 C1539 1.386 . S
H1537 C1553 0.930 . S
H1538 C1554 0.931 . S
C1539 H1527 0.929 . S
C1539 C1533 1.390 . S
C1539 C1536 1.386 . S
C1540 C1535 1.490 . S
C1540 C1542 1.395 . S
C1540 C1543 1.403 . S
H1541 C1547 0.930 . S
C1542 H1528 0.930 . S
C1542 C1540 1.395 . S
C1542 C1545 1.403 . S
C1543 C1540 1.403 . S
C1543 C1544 1.524 . S
C1543 C1547 1.400 . S
C1544 H1529 0.960 . S
C1544 H1530 0.960 . S
C1544 H1531 0.960 . S
C1544 C1543 1.524 . S
C1545 C1542 1.403 . S
C1545 C1546 1.392 . S
C1545 C1549 1.495 . S
C1546 C1545 1.392 . S
C1546 C1547 1.385 . S
C1546 C1548 1.478 . S
C1547 H1541 0.930 . S
C1547 C1543 1.400 . S
C1547 C1546 1.385 . S
C1548 C1546 1.478 . S
C1548 C1550 1.381 . S
C1548 C1554 1.383 . S
C1549 C1545 1.495 . S
C1549 H1555 0.959 . S
C1549 H1556 0.961 . S
C1549 H1557 0.960 . S
C1550 C1548 1.381 . S
C1550 C1551 1.394 . S
C1550 H1558 0.930 . S
C1551 C1550 1.394 . S
C1551 C1552 1.383 . S
C1551 H1559 0.929 . S
C1552 C1551 1.383 . S
C1552 C1553 1.377 . S
C1553 H1537 0.930 . S
C1553 C1552 1.377 . S
C1553 C1554 1.379 . S
C1554 H1538 0.931 . S
C1554 C1548 1.383 . S
C1554 C1553 1.379 . S
H1555 C1549 0.959 . S
H1556 C1549 0.961 . S
H1557 C1549 0.960 . S
H1558 C1550 0.930 . S
H1559 C1551 0.929 . S
H1560 C1568 0.929 . S
H1561 C1570 0.930 . S
H1562 C1572 0.930 . S
H1563 C1575 0.929 . S
H1564 C1578 0.930 . S
H1565 C1580 0.960 . S
H1566 C1580 0.960 . S
H1567 C1580 0.960 . S
C1568 H1560 0.929 . S
C1568 C1569 1.377 . S
C1568 C1570 1.384 . S
C1569 C1568 1.377 . S
C1569 C1575 1.390 . S
C1570 H1561 0.930 . S
C1570 C1568 1.384 . S
C1570 C1571 1.372 . S
C1571 C1570 1.372 . S
C1571 C1572 1.400 . S
C1571 C1576 1.490 . S
C1572 H1562 0.930 . S
C1572 C1571 1.400 . S
C1572 C1575 1.386 . S
H1573 C1589 0.930 . S
H1574 C1590 0.931 . S
C1575 H1563 0.929 . S
C1575 C1569 1.390 . S
C1575 C1572 1.386 . S
C1576 C1571 1.490 . S
C1576 C1578 1.395 . S
C1576 C1579 1.403 . S
H1577 C1583 0.930 . S
C1578 H1564 0.930 . S
C1578 C1576 1.395 . S
C1578 C1581 1.403 . S
C1579 C1576 1.403 . S
C1579 C1580 1.524 . S
C1579 C1583 1.400 . S
C1580 H1565 0.960 . S
C1580 H1566 0.960 . S
C1580 H1567 0.960 . S
C1580 C1579 1.524 . S
C1581 C1578 1.403 . S
C1581 C1582 1.392 . S
C1581 C1585 1.495 . S
C1582 C1581 1.392 . S
C1582 C1583 1.385 . S
C1582 C1584 1.478 . S
C1583 H1577 0.930 . S
C1583 C1579 1.400 . S
C1583 C1582 1.385 . S
C1584 C1582 1.478 . S
C1584 C1586 1.381 . S
C1584 C1590 1.383 . S
C1585 C1581 1.495 . S
C1585 H1591 0.959 . S
C1585 H1592 0.961 . S
C1585 H1593 0.960 . S
C1586 C1584 1.381 . S
C1586 C1587 1.394 . S
C1586 H1594 0.930 . S
C1587 C1586 1.394 . S
C1587 C1588 1.383 . S
C1587 H1595 0.929 . S
C1588 C1587 1.383 . S
C1588 C1589 1.377 . S
C1589 H1573 0.930 . S
C1589 C1588 1.377 . S
C1589 C1590 1.379 . S
C1590 H1574 0.931 . S
C1590 C1584 1.383 . S
C1590 C1589 1.379 . S
H1591 C1585 0.959 . S
H1592 C1585 0.961 . S
H1593 C1585 0.960 . S
H1594 C1586 0.930 . S
H1595 C1587 0.929 . S
H1596 C1604 0.929 . S
H1597 C1606 0.930 . S
H1598 C1608 0.930 . S
H1599 C1611 0.929 . S
H1600 C1614 0.930 . S
H1601 C1616 0.960 . S
H1602 C1616 0.960 . S
H1603 C1616 0.960 . S
C1604 H1596 0.929 . S
C1604 C1605 1.377 . S
C1604 C1606 1.384 . S
C1605 C1604 1.377 . S
C1605 C1611 1.390 . S
C1606 H1597 0.930 . S
C1606 C1604 1.384 . S
C1606 C1607 1.372 . S
C1607 C1606 1.372 . S
C1607 C1608 1.400 . S
C1607 C1612 1.490 . S
C1608 H1598 0.930 . S
C1608 C1607 1.400 . S
C1608 C1611 1.386 . S
H1609 C1625 0.930 . S
H1610 C1626 0.931 . S
C1611 H1599 0.929 . S
C1611 C1605 1.390 . S
C1611 C1608 1.386 . S
C1612 C1607 1.490 . S
C1612 C1614 1.395 . S
C1612 C1615 1.403 . S
H1613 C1619 0.930 . S
C1614 H1600 0.930 . S
C1614 C1612 1.395 . S
C1614 C1617 1.403 . S
C1615 C1612 1.403 . S
C1615 C1616 1.524 . S
C1615 C1619 1.400 . S
C1616 H1601 0.960 . S
C1616 H1602 0.960 . S
C1616 H1603 0.960 . S
C1616 C1615 1.524 . S
C1617 C1614 1.403 . S
C1617 C1618 1.392 . S
C1617 C1621 1.495 . S
C1618 C1617 1.392 . S
C1618 C1619 1.385 . S
C1618 C1620 1.478 . S
C1619 H1613 0.930 . S
C1619 C1615 1.400 . S
C1619 C1618 1.385 . S
C1620 C1618 1.478 . S
C1620 C1622 1.381 . S
C1620 C1626 1.383 . S
C1621 C1617 1.495 . S
C1621 H1627 0.959 . S
C1621 H1628 0.961 . S
C1621 H1629 0.960 . S
C1622 C1620 1.381 . S
C1622 C1623 1.394 . S
C1622 H1630 0.930 . S
C1623 C1622 1.394 . S
C1623 C1624 1.383 . S
C1623 H1631 0.929 . S
C1624 C1623 1.383 . S
C1624 C1625 1.377 . S
C1625 H1609 0.930 . S
C1625 C1624 1.377 . S
C1625 C1626 1.379 . S
C1626 H1610 0.931 . S
C1626 C1620 1.383 . S
C1626 C1625 1.379 . S
H1627 C1621 0.959 . S
H1628 C1621 0.961 . S
H1629 C1621 0.960 . S
H1630 C1622 0.930 . S
H1631 C1623 0.929 . S
H1632 C1640 0.929 . S
H1633 C1642 0.930 . S
H1634 C1644 0.930 . S
H1635 C1647 0.929 . S
H1636 C1650 0.930 . S
H1637 C1652 0.960 . S
H1638 C1652 0.960 . S
H1639 C1652 0.960 . S
C1640 H1632 0.929 . S
C1640 C1641 1.377 . S
C1640 C1642 1.384 . S
C1641 C1640 1.377 . S
C1641 C1647 1.390 . S
C1642 H1633 0.930 . S
C1642 C1640 1.384 . S
C1642 C1643 1.372 . S
C1643 C1642 1.372 . S
C1643 C1644 1.400 . S
C1643 C1648 1.490 . S
C1644 H1634 0.930 . S
C1644 C1643 1.400 . S
C1644 C1647 1.386 . S
H1645 C1661 0.930 . S
H1646 C1662 0.931 . S
C1647 H1635 0.929 . S
C1647 C1641 1.390 . S
C1647 C1644 1.386 . S
C1648 C1643 1.490 . S
C1648 C1650 1.395 . S
C1648 C1651 1.403 . S
H1649 C1655 0.930 . S
C1650 H1636 0.930 . S
C1650 C1648 1.395 . S
C1650 C1653 1.403 . S
C1651 C1648 1.403 . S
C1651 C1652 1.524 . S
C1651 C1655 1.400 . S
C1652 H1637 0.960 . S
C1652 H1638 0.960 . S
C1652 H1639 0.960 . S
C1652 C1651 1.524 . S
C1653 C1650 1.403 . S
C1653 C1654 1.392 . S
C1653 C1657 1.495 . S
C1654 C1653 1.392 . S
C1654 C1655 1.385 . S
C1654 C1656 1.478 . S
C1655 H1649 0.930 . S
C1655 C1651 1.400 . S
C1655 C1654 1.385 . S
C1656 C1654 1.478 . S
C1656 C1658 1.381 . S
C1656 C1662 1.383 . S
C1657 C1653 1.495 . S
C1657 H1663 0.959 . S
C1657 H1664 0.961 . S
C1657 H1665 0.960 . S
C1658 C1656 1.381 . S
C1658 C1659 1.394 . S
C1658 H1666 0.930 . S
C1659 C1658 1.394 . S
C1659 C1660 1.383 . S
C1659 H1667 0.929 . S
C1660 C1659 1.383 . S
C1660 C1661 1.377 . S
C1661 H1645 0.930 . S
C1661 C1660 1.377 . S
C1661 C1662 1.379 . S
C1662 H1646 0.931 . S
C1662 C1656 1.383 . S
C1662 C1661 1.379 . S
H1663 C1657 0.959 . S
H1664 C1657 0.961 . S
H1665 C1657 0.960 . S
H1666 C1658 0.930 . S
H1667 C1659 0.929 . S
H1668 C1676 0.929 . S
H1669 C1678 0.930 . S
H1670 C1680 0.930 . S
H1671 C1683 0.929 . S
H1672 C1686 0.930 . S
H1673 C1688 0.960 . S
H1674 C1688 0.960 . S
H1675 C1688 0.960 . S
C1676 H1668 0.929 . S
C1676 C1677 1.377 . S
C1676 C1678 1.384 . S
C1677 C1676 1.377 . S
C1677 C1683 1.390 . S
C1678 H1669 0.930 . S
C1678 C1676 1.384 . S
C1678 C1679 1.372 . S
C1679 C1678 1.372 . S
C1679 C1680 1.400 . S
C1679 C1684 1.490 . S
C1680 H1670 0.930 . S
C1680 C1679 1.400 . S
C1680 C1683 1.386 . S
H1681 C1697 0.930 . S
H1682 C1698 0.931 . S
C1683 H1671 0.929 . S
C1683 C1677 1.390 . S
C1683 C1680 1.386 . S
C1684 C1679 1.490 . S
C1684 C1686 1.395 . S
C1684 C1687 1.403 . S
H1685 C1691 0.930 . S
C1686 H1672 0.930 . S
C1686 C1684 1.395 . S
C1686 C1689 1.403 . S
C1687 C1684 1.403 . S
C1687 C1688 1.524 . S
C1687 C1691 1.400 . S
C1688 H1673 0.960 . S
C1688 H1674 0.960 . S
C1688 H1675 0.960 . S
C1688 C1687 1.524 . S
C1689 C1686 1.403 . S
C1689 C1690 1.392 . S
C1689 C1693 1.495 . S
C1690 C1689 1.392 . S
C1690 C1691 1.385 . S
C1690 C1692 1.478 . S
C1691 H1685 0.930 . S
C1691 C1687 1.400 . S
C1691 C1690 1.385 . S
C1692 C1690 1.478 . S
C1692 C1694 1.381 . S
C1692 C1698 1.383 . S
C1693 C1689 1.495 . S
C1693 H1699 0.959 . S
C1693 H1700 0.961 . S
C1693 H1701 0.960 . S
C1694 C1692 1.381 . S
C1694 C1695 1.394 . S
C1694 H1702 0.930 . S
C1695 C1694 1.394 . S
C1695 C1696 1.383 . S
C1695 H1703 0.929 . S
C1696 C1695 1.383 . S
C1696 C1697 1.377 . S
C1697 H1681 0.930 . S
C1697 C1696 1.377 . S
C1697 C1698 1.379 . S
C1698 H1682 0.931 . S
C1698 C1692 1.383 . S
C1698 C1697 1.379 . S
H1699 C1693 0.959 . S
H1700 C1693 0.961 . S
H1701 C1693 0.960 . S
H1702 C1694 0.930 . S
H1703 C1695 0.929 . S
H1704 C1712 0.929 . S
H1705 C1714 0.930 . S
H1706 C1716 0.930 . S
H1707 C1719 0.929 . S
H1708 C1722 0.930 . S
H1709 C1724 0.960 . S
H1710 C1724 0.960 . S
H1711 C1724 0.960 . S
C1712 H1704 0.929 . S
C1712 C1713 1.377 . S
C1712 C1714 1.384 . S
C1713 C1712 1.377 . S
C1713 C1719 1.390 . S
C1714 H1705 0.930 . S
C1714 C1712 1.384 . S
C1714 C1715 1.372 . S
C1715 C1714 1.372 . S
C1715 C1716 1.400 . S
C1715 C1720 1.490 . S
C1716 H1706 0.930 . S
C1716 C1715 1.400 . S
C1716 C1719 1.386 . S
H1717 C1733 0.930 . S
H1718 C1734 0.931 . S
C1719 H1707 0.929 . S
C1719 C1713 1.390 . S
C1719 C1716 1.386 . S
C1720 C1715 1.490 . S
C1720 C1722 1.395 . S
C1720 C1723 1.403 . S
H1721 C1727 0.930 . S
C1722 H1708 0.930 . S
C1722 C1720 1.395 . S
C1722 C1725 1.403 . S
C1723 C1720 1.403 . S
C1723 C1724 1.524 . S
C1723 C1727 1.400 . S
C1724 H1709 0.960 . S
C1724 H1710 0.960 . S
C1724 H1711 0.960 . S
C1724 C1723 1.524 . S
C1725 C1722 1.403 . S
C1725 C1726 1.392 . S
C1725 C1729 1.495 . S
C1726 C1725 1.392 . S
C1726 C1727 1.385 . S
C1726 C1728 1.478 . S
C1727 H1721 0.930 . S
C1727 C1723 1.400 . S
C1727 C1726 1.385 . S
C1728 C1726 1.478 . S
C1728 C1730 1.381 . S
C1728 C1734 1.383 . S
C1729 C1725 1.495 . S
C1729 H1735 0.959 . S
C1729 H1736 0.961 . S
C1729 H1737 0.960 . S
C1730 C1728 1.381 . S
C1730 C1731 1.394 . S
C1730 H1738 0.930 . S
C1731 C1730 1.394 . S
C1731 C1732 1.383 . S
C1731 H1739 0.929 . S
C1732 C1731 1.383 . S
C1732 C1733 1.377 . S
C1733 H1717 0.930 . S
C1733 C1732 1.377 . S
C1733 C1734 1.379 . S
C1734 H1718 0.931 . S
C1734 C1728 1.383 . S
C1734 C1733 1.379 . S
H1735 C1729 0.959 . S
H1736 C1729 0.961 . S
H1737 C1729 0.960 . S
H1738 C1730 0.930 . S
H1739 C1731 0.929 . S
H1740 C1748 0.929 . S
H1741 C1750 0.930 . S
H1742 C1752 0.930 . S
H1743 C1755 0.929 . S
H1744 C1758 0.930 . S
H1745 C1760 0.960 . S
H1746 C1760 0.960 . S
H1747 C1760 0.960 . S
C1748 H1740 0.929 . S
C1748 C1749 1.377 . S
C1748 C1750 1.384 . S
C1749 C1748 1.377 . S
C1749 C1755 1.390 . S
C1750 H1741 0.930 . S
C1750 C1748 1.384 . S
C1750 C1751 1.372 . S
C1751 C1750 1.372 . S
C1751 C1752 1.400 . S
C1751 C1756 1.490 . S
C1752 H1742 0.930 . S
C1752 C1751 1.400 . S
C1752 C1755 1.386 . S
H1753 C1769 0.930 . S
H1754 C1770 0.931 . S
C1755 H1743 0.929 . S
C1755 C1749 1.390 . S
C1755 C1752 1.386 . S
C1756 C1751 1.490 . S
C1756 C1758 1.395 . S
C1756 C1759 1.403 . S
H1757 C1763 0.930 . S
C1758 H1744 0.930 . S
C1758 C1756 1.395 . S
C1758 C1761 1.403 . S
C1759 C1756 1.403 . S
C1759 C1760 1.524 . S
C1759 C1763 1.400 . S
C1760 H1745 0.960 . S
C1760 H1746 0.960 . S
C1760 H1747 0.960 . S
C1760 C1759 1.524 . S
C1761 C1758 1.403 . S
C1761 C1762 1.392 . S
C1761 C1765 1.495 . S
C1762 C1761 1.392 . S
C1762 C1763 1.385 . S
C1762 C1764 1.478 . S
C1763 H1757 0.930 . S
C1763 C1759 1.400 . S
C1763 C1762 1.385 . S
C1764 C1762 1.478 . S
C1764 C1766 1.381 . S
C1764 C1770 1.383 . S
C1765 C1761 1.495 . S
C1765 H1771 0.959 . S
C1765 H1772 0.961 . S
C1765 H1773 0.960 . S
C1766 C1764 1.381 . S
C1766 C1767 1.394 . S
C1766 H1774 0.930 . S
C1767 C1766 1.394 . S
C1767 C1768 1.383 . S
C1767 H1775 0.929 . S
C1768 C1767 1.383 . S
C1768 C1769 1.377 . S
C1769 H1753 0.930 . S
C1769 C1768 1.377 . S
C1769 C1770 1.379 . S
C1770 H1754 0.931 . S
C1770 C1764 1.383 . S
C1770 C1769 1.379 . S
H1771 C1765 0.959 . S
H1772 C1765 0.961 . S
H1773 C1765 0.960 . S
H1774 C1766 0.930 . S
H1775 C1767 0.929 . S
H1776 C1784 0.929 . S
H1777 C1786 0.930 . S
H1778 C1788 0.930 . S
H1779 C1791 0.929 . S
H1780 C1794 0.930 . S
H1781 C1796 0.960 . S
H1782 C1796 0.960 . S
H1783 C1796 0.960 . S
C1784 H1776 0.929 . S
C1784 C1785 1.377 . S
C1784 C1786 1.384 . S
C1785 C1784 1.377 . S
C1785 C1791 1.390 . S
C1786 H1777 0.930 . S
C1786 C1784 1.384 . S
C1786 C1787 1.372 . S
C1787 C1786 1.372 . S
C1787 C1788 1.400 . S
C1787 C1792 1.490 . S
C1788 H1778 0.930 . S
C1788 C1787 1.400 . S
C1788 C1791 1.386 . S
H1789 C1805 0.930 . S
H1790 C1806 0.931 . S
C1791 H1779 0.929 . S
C1791 C1785 1.390 . S
C1791 C1788 1.386 . S
C1792 C1787 1.490 . S
C1792 C1794 1.395 . S
C1792 C1795 1.403 . S
H1793 C1799 0.930 . S
C1794 H1780 0.930 . S
C1794 C1792 1.395 . S
C1794 C1797 1.403 . S
C1795 C1792 1.403 . S
C1795 C1796 1.524 . S
C1795 C1799 1.400 . S
C1796 H1781 0.960 . S
C1796 H1782 0.960 . S
C1796 H1783 0.960 . S
C1796 C1795 1.524 . S
C1797 C1794 1.403 . S
C1797 C1798 1.392 . S
C1797 C1801 1.495 . S
C1798 C1797 1.392 . S
C1798 C1799 1.385 . S
C1798 C1800 1.478 . S
C1799 H1793 0.930 . S
C1799 C1795 1.400 . S
C1799 C1798 1.385 . S
C1800 C1798 1.478 . S
C1800 C1802 1.381 . S
C1800 C1806 1.383 . S
C1801 C1797 1.495 . S
C1801 H1807 0.959 . S
C1801 H1808 0.961 . S
C1801 H1809 0.960 . S
C1802 C1800 1.381 . S
C1802 C1803 1.394 . S
C1802 H1810 0.930 . S
C1803 C1802 1.394 . S
C1803 C1804 1.383 . S
C1803 H1811 0.929 . S
C1804 C1803 1.383 . S
C1804 C1805 1.377 . S
C1805 H1789 0.930 . S
C1805 C1804 1.377 . S
C1805 C1806 1.379 . S
C1806 H1790 0.931 . S
C1806 C1800 1.383 . S
C1806 C1805 1.379 . S
H1807 C1801 0.959 . S
H1808 C1801 0.961 . S
H1809 C1801 0.960 . S
H1810 C1802 0.930 . S
H1811 C1803 0.929 . S
H1812 C1820 0.929 . S
H1813 C1822 0.930 . S
H1814 C1824 0.930 . S
H1815 C1827 0.929 . S
H1816 C1830 0.930 . S
H1817 C1832 0.960 . S
H1818 C1832 0.960 . S
H1819 C1832 0.960 . S
C1820 H1812 0.929 . S
C1820 C1821 1.377 . S
C1820 C1822 1.384 . S
C1821 C1820 1.377 . S
C1821 C1827 1.390 . S
C1822 H1813 0.930 . S
C1822 C1820 1.384 . S
C1822 C1823 1.372 . S
C1823 C1822 1.372 . S
C1823 C1824 1.400 . S
C1823 C1828 1.490 . S
C1824 H1814 0.930 . S
C1824 C1823 1.400 . S
C1824 C1827 1.386 . S
H1825 C1841 0.930 . S
H1826 C1842 0.931 . S
C1827 H1815 0.929 . S
C1827 C1821 1.390 . S
C1827 C1824 1.386 . S
C1828 C1823 1.490 . S
C1828 C1830 1.395 . S
C1828 C1831 1.403 . S
H1829 C1835 0.930 . S
C1830 H1816 0.930 . S
C1830 C1828 1.395 . S
C1830 C1833 1.403 . S
C1831 C1828 1.403 . S
C1831 C1832 1.524 . S
C1831 C1835 1.400 . S
C1832 H1817 0.960 . S
C1832 H1818 0.960 . S
C1832 H1819 0.960 . S
C1832 C1831 1.524 . S
C1833 C1830 1.403 . S
C1833 C1834 1.392 . S
C1833 C1837 1.495 . S
C1834 C1833 1.392 . S
C1834 C1835 1.385 . S
C1834 C1836 1.478 . S
C1835 H1829 0.930 . S
C1835 C1831 1.400 . S
C1835 C1834 1.385 . S
C1836 C1834 1.478 . S
C1836 C1838 1.381 . S
C1836 C1842 1.383 . S
C1837 C1833 1.495 . S
C1837 H1843 0.959 . S
C1837 H1844 0.961 . S
C1837 H1845 0.960 . S
C1838 C1836 1.381 . S
C1838 C1839 1.394 . S
C1838 H1846 0.930 . S
C1839 C1838 1.394 . S
C1839 C1840 1.383 . S
C1839 H1847 0.929 . S
C1840 C1839 1.383 . S
C1840 C1841 1.377 . S
C1841 H1825 0.930 . S
C1841 C1840 1.377 . S
C1841 C1842 1.379 . S
C1842 H1826 0.931 . S
C1842 C1836 1.383 . S
C1842 C1841 1.379 . S
H1843 C1837 0.959 . S
H1844 C1837 0.961 . S
H1845 C1837 0.960 . S
H1846 C1838 0.930 . S
H1847 C1839 0.929 . S
H1848 C1856 0.929 . S
H1849 C1858 0.930 . S
H1850 C1860 0.930 . S
H1851 C1863 0.929 . S
H1852 C1866 0.930 . S
H1853 C1868 0.960 . S
H1854 C1868 0.960 . S
H1855 C1868 0.960 . S
C1856 H1848 0.929 . S
C1856 C1857 1.377 . S
C1856 C1858 1.384 . S
C1857 C1856 1.377 . S
C1857 C1863 1.390 . S
C1858 H1849 0.930 . S
C1858 C1856 1.384 . S
C1858 C1859 1.372 . S
C1859 C1858 1.372 . S
C1859 C1860 1.400 . S
C1859 C1864 1.490 . S
C1860 H1850 0.930 . S
C1860 C1859 1.400 . S
C1860 C1863 1.386 . S
H1861 C1877 0.930 . S
H1862 C1878 0.931 . S
C1863 H1851 0.929 . S
C1863 C1857 1.390 . S
C1863 C1860 1.386 . S
C1864 C1859 1.490 . S
C1864 C1866 1.395 . S
C1864 C1867 1.403 . S
H1865 C1871 0.930 . S
C1866 H1852 0.930 . S
C1866 C1864 1.395 . S
C1866 C1869 1.403 . S
C1867 C1864 1.403 . S
C1867 C1868 1.524 . S
C1867 C1871 1.400 . S
C1868 H1853 0.960 . S
C1868 H1854 0.960 . S
C1868 H1855 0.960 . S
C1868 C1867 1.524 . S
C1869 C1866 1.403 . S
C1869 C1870 1.392 . S
C1869 C1873 1.495 . S
C1870 C1869 1.392 . S
C1870 C1871 1.385 . S
C1870 C1872 1.478 . S
C1871 H1865 0.930 . S
C1871 C1867 1.400 . S
C1871 C1870 1.385 . S
C1872 C1870 1.478 . S
C1872 C1874 1.381 . S
C1872 C1878 1.383 . S
C1873 C1869 1.495 . S
C1873 H1879 0.959 . S
C1873 H1880 0.961 . S
C1873 H1881 0.960 . S
C1874 C1872 1.381 . S
C1874 C1875 1.394 . S
C1874 H1882 0.930 . S
C1875 C1874 1.394 . S
C1875 C1876 1.383 . S
C1875 H1883 0.929 . S
C1876 C1875 1.383 . S
C1876 C1877 1.377 . S
C1877 H1861 0.930 . S
C1877 C1876 1.377 . S
C1877 C1878 1.379 . S
C1878 H1862 0.931 . S
C1878 C1872 1.383 . S
C1878 C1877 1.379 . S
H1879 C1873 0.959 . S
H1880 C1873 0.961 . S
H1881 C1873 0.960 . S
H1882 C1874 0.930 . S
H1883 C1875 0.929 . S
H1884 C1892 0.929 . S
H1885 C1894 0.930 . S
H1886 C1896 0.930 . S
H1887 C1899 0.929 . S
H1888 C1902 0.930 . S
H1889 C1904 0.960 . S
H1890 C1904 0.960 . S
H1891 C1904 0.960 . S
C1892 H1884 0.929 . S
C1892 C1893 1.377 . S
C1892 C1894 1.384 . S
C1893 C1892 1.377 . S
C1893 C1899 1.390 . S
C1894 H1885 0.930 . S
C1894 C1892 1.384 . S
C1894 C1895 1.372 . S
C1895 C1894 1.372 . S
C1895 C1896 1.400 . S
C1895 C1900 1.490 . S
C1896 H1886 0.930 . S
C1896 C1895 1.400 . S
C1896 C1899 1.386 . S
H1897 C1913 0.930 . S
H1898 C1914 0.931 . S
C1899 H1887 0.929 . S
C1899 C1893 1.390 . S
C1899 C1896 1.386 . S
C1900 C1895 1.490 . S
C1900 C1902 1.395 . S
C1900 C1903 1.403 . S
H1901 C1907 0.930 . S
C1902 H1888 0.930 . S
C1902 C1900 1.395 . S
C1902 C1905 1.403 . S
C1903 C1900 1.403 . S
C1903 C1904 1.524 . S
C1903 C1907 1.400 . S
C1904 H1889 0.960 . S
C1904 H1890 0.960 . S
C1904 H1891 0.960 . S
C1904 C1903 1.524 . S
C1905 C1902 1.403 . S
C1905 C1906 1.392 . S
C1905 C1909 1.495 . S
C1906 C1905 1.392 . S
C1906 C1907 1.385 . S
C1906 C1908 1.478 . S
C1907 H1901 0.930 . S
C1907 C1903 1.400 . S
C1907 C1906 1.385 . S
C1908 C1906 1.478 . S
C1908 C1910 1.381 . S
C1908 C1914 1.383 . S
C1909 C1905 1.495 . S
C1909 H1915 0.959 . S
C1909 H1916 0.961 . S
C1909 H1917 0.960 . S
C1910 C1908 1.381 . S
C1910 C1911 1.394 . S
C1910 H1918 0.930 . S
C1911 C1910 1.394 . S
C1911 C1912 1.383 . S
C1911 H1919 0.929 . S
C1912 C1911 1.383 . S
C1912 C1913 1.377 . S
C1913 H1897 0.930 . S
C1913 C1912 1.377 . S
C1913 C1914 1.379 . S
C1914 H1898 0.931 . S
C1914 C1908 1.383 . S
C1914 C1913 1.379 . S
H1915 C1909 0.959 . S
H1916 C1909 0.961 . S
H1917 C1909 0.960 . S
H1918 C1910 0.930 . S
H1919 C1911 0.929 . S
H1920 C1928 0.929 . S
H1921 C1930 0.930 . S
H1922 C1932 0.930 . S
H1923 C1935 0.929 . S
H1924 C1938 0.930 . S
H1925 C1940 0.960 . S
H1926 C1940 0.960 . S
H1927 C1940 0.960 . S
C1928 H1920 0.929 . S
C1928 C1929 1.377 . S
C1928 C1930 1.384 . S
C1929 C1928 1.377 . S
C1929 C1935 1.390 . S
C1930 H1921 0.930 . S
C1930 C1928 1.384 . S
C1930 C1931 1.372 . S
C1931 C1930 1.372 . S
C1931 C1932 1.400 . S
C1931 C1936 1.490 . S
C1932 H1922 0.930 . S
C1932 C1931 1.400 . S
C1932 C1935 1.386 . S
H1933 C1949 0.930 . S
H1934 C1950 0.931 . S
C1935 H1923 0.929 . S
C1935 C1929 1.390 . S
C1935 C1932 1.386 . S
C1936 C1931 1.490 . S
C1936 C1938 1.395 . S
C1936 C1939 1.403 . S
H1937 C1943 0.930 . S
C1938 H1924 0.930 . S
C1938 C1936 1.395 . S
C1938 C1941 1.403 . S
C1939 C1936 1.403 . S
C1939 C1940 1.524 . S
C1939 C1943 1.400 . S
C1940 H1925 0.960 . S
C1940 H1926 0.960 . S
C1940 H1927 0.960 . S
C1940 C1939 1.524 . S
C1941 C1938 1.403 . S
C1941 C1942 1.392 . S
C1941 C1945 1.495 . S
C1942 C1941 1.392 . S
C1942 C1943 1.385 . S
C1942 C1944 1.478 . S
C1943 H1937 0.930 . S
C1943 C1939 1.400 . S
C1943 C1942 1.385 . S
C1944 C1942 1.478 . S
C1944 C1946 1.381 . S
C1944 C1950 1.383 . S
C1945 C1941 1.495 . S
C1945 H1951 0.959 . S
C1945 H1952 0.961 . S
C1945 H1953 0.960 . S
C1946 C1944 1.381 . S
C1946 C1947 1.394 . S
C1946 H1954 0.930 . S
C1947 C1946 1.394 . S
C1947 C1948 1.383 . S
C1947 H1955 0.929 . S
C1948 C1947 1.383 . S
C1948 C1949 1.377 . S
C1949 H1933 0.930 . S
C1949 C1948 1.377 . S
C1949 C1950 1.379 . S
C1950 H1934 0.931 . S
C1950 C1944 1.383 . S
C1950 C1949 1.379 . S
H1951 C1945 0.959 . S
H1952 C1945 0.961 . S
H1953 C1945 0.960 . S
H1954 C1946 0.930 . S
H1955 C1947 0.929 . S
H1956 C1964 0.929 . S
H1957 C1966 0.930 . S
H1958 C1968 0.930 . S
H1959 C1971 0.929 . S
H1960 C1974 0.930 . S
H1961 C1976 0.960 . S
H1962 C1976 0.960 . S
H1963 C1976 0.960 . S
C1964 H1956 0.929 . S
C1964 C1965 1.377 . S
C1964 C1966 1.384 . S
C1965 C1964 1.377 . S
C1965 C1971 1.390 . S
C1966 H1957 0.930 . S
C1966 C1964 1.384 . S
C1966 C1967 1.372 . S
C1967 C1966 1.372 . S
C1967 C1968 1.400 . S
C1967 C1972 1.490 . S
C1968 H1958 0.930 . S
C1968 C1967 1.400 . S
C1968 C1971 1.386 . S
H1969 C1985 0.930 . S
H1970 C1986 0.931 . S
C1971 H1959 0.929 . S
C1971 C1965 1.390 . S
C1971 C1968 1.386 . S
C1972 C1967 1.490 . S
C1972 C1974 1.395 . S
C1972 C1975 1.403 . S
H1973 C1979 0.930 . S
C1974 H1960 0.930 . S
C1974 C1972 1.395 . S
C1974 C1977 1.403 . S
C1975 C1972 1.403 . S
C1975 C1976 1.524 . S
C1975 C1979 1.400 . S
C1976 H1961 0.960 . S
C1976 H1962 0.960 . S
C1976 H1963 0.960 . S
C1976 C1975 1.524 . S
C1977 C1974 1.403 . S
C1977 C1978 1.392 . S
C1977 C1981 1.495 . S
C1978 C1977 1.392 . S
C1978 C1979 1.385 . S
C1978 C1980 1.478 . S
C1979 H1973 0.930 . S
C1979 C1975 1.400 . S
C1979 C1978 1.385 . S
C1980 C1978 1.478 . S
C1980 C1982 1.381 . S
C1980 C1986 1.383 . S
C1981 C1977 1.495 . S
C1981 H1987 0.959 . S
C1981 H1988 0.961 . S
C1981 H1989 0.960 . S
C1982 C1980 1.381 . S
C1982 C1983 1.394 . S
C1982 H1990 0.930 . S
C1983 C1982 1.394 . S
C1983 C1984 1.383 . S
C1983 H1991 0.929 . S
C1984 C1983 1.383 . S
C1984 C1985 1.377 . S
C1985 H1969 0.930 . S
C1985 C1984 1.377 . S
C1985 C1986 1.379 . S
C1986 H1970 0.931 . S
C1986 C1980 1.383 . S
C1986 C1985 1.379 . S
H1987 C1981 0.959 . S
H1988 C1981 0.961 . S
H1989 C1981 0.960 . S
H1990 C1982 0.930 . S
H1991 C1983 0.929 . S
H1992 C2000 0.929 . S
H1993 C2002 0.930 . S
H1994 C2004 0.930 . S
H1995 C2007 0.929 . S
H1996 C2010 0.930 . S
H1997 C2012 0.960 . S
H1998 C2012 0.960 . S
H1999 C2012 0.960 . S
C2000 H1992 0.929 . S
C2000 C2001 1.377 . S
C2000 C2002 1.384 . S
C2001 C2000 1.377 . S
C2001 C2007 1.390 . S
C2002 H1993 0.930 . S
C2002 C2000 1.384 . S
C2002 C2003 1.372 . S
C2003 C2002 1.372 . S
C2003 C2004 1.400 . S
C2003 C2008 1.490 . S
C2004 H1994 0.930 . S
C2004 C2003 1.400 . S
C2004 C2007 1.386 . S
H2005 C2021 0.930 . S
H2006 C2022 0.931 . S
C2007 H1995 0.929 . S
C2007 C2001 1.390 . S
C2007 C2004 1.386 . S
C2008 C2003 1.490 . S
C2008 C2010 1.395 . S
C2008 C2011 1.403 . S
H2009 C2015 0.930 . S
C2010 H1996 0.930 . S
C2010 C2008 1.395 . S
C2010 C2013 1.403 . S
C2011 C2008 1.403 . S
C2011 C2012 1.524 . S
C2011 C2015 1.400 . S
C2012 H1997 0.960 . S
C2012 H1998 0.960 . S
C2012 H1999 0.960 . S
C2012 C2011 1.524 . S
C2013 C2010 1.403 . S
C2013 C2014 1.392 . S
C2013 C2017 1.495 . S
C2014 C2013 1.392 . S
C2014 C2015 1.385 . S
C2014 C2016 1.478 . S
C2015 H2009 0.930 . S
C2015 C2011 1.400 . S
C2015 C2014 1.385 . S
C2016 C2014 1.478 . S
C2016 C2018 1.381 . S
C2016 C2022 1.383 . S
C2017 C2013 1.495 . S
C2017 H2023 0.959 . S
C2017 H2024 0.961 . S
C2017 H2025 0.960 . S
C2018 C2016 1.381 . S
C2018 C2019 1.394 . S
C2018 H2026 0.930 . S
C2019 C2018 1.394 . S
C2019 C2020 1.383 . S
C2019 H2027 0.929 . S
C2020 C2019 1.383 . S
C2020 C2021 1.377 . S
C2021 H2005 0.930 . S
C2021 C2020 1.377 . S
C2021 C2022 1.379 . S
C2022 H2006 0.931 . S
C2022 C2016 1.383 . S
C2022 C2021 1.379 . S
H2023 C2017 0.959 . S
H2024 C2017 0.961 . S
H2025 C2017 0.960 . S
H2026 C2018 0.930 . S
H2027 C2019 0.929 . S
H2028 C2036 0.929 . S
H2029 C2038 0.930 . S
H2030 C2040 0.930 . S
H2031 C2043 0.929 . S
H2032 C2046 0.930 . S
H2033 C2048 0.960 . S
H2034 C2048 0.960 . S
H2035 C2048 0.960 . S
C2036 H2028 0.929 . S
C2036 C2037 1.377 . S
C2036 C2038 1.384 . S
C2037 C2036 1.377 . S
C2037 C2043 1.390 . S
C2038 H2029 0.930 . S
C2038 C2036 1.384 . S
C2038 C2039 1.372 . S
C2039 C2038 1.372 . S
C2039 C2040 1.400 . S
C2039 C2044 1.490 . S
C2040 H2030 0.930 . S
C2040 C2039 1.400 . S
C2040 C2043 1.386 . S
H2041 C2057 0.930 . S
H2042 C2058 0.931 . S
C2043 H2031 0.929 . S
C2043 C2037 1.390 . S
C2043 C2040 1.386 . S
C2044 C2039 1.490 . S
C2044 C2046 1.395 . S
C2044 C2047 1.403 . S
H2045 C2051 0.930 . S
C2046 H2032 0.930 . S
C2046 C2044 1.395 . S
C2046 C2049 1.403 . S
C2047 C2044 1.403 . S
C2047 C2048 1.524 . S
C2047 C2051 1.400 . S
C2048 H2033 0.960 . S
C2048 H2034 0.960 . S
C2048 H2035 0.960 . S
C2048 C2047 1.524 . S
C2049 C2046 1.403 . S
C2049 C2050 1.392 . S
C2049 C2053 1.495 . S
C2050 C2049 1.392 . S
C2050 C2051 1.385 . S
C2050 C2052 1.478 . S
C2051 H2045 0.930 . S
C2051 C2047 1.400 . S
C2051 C2050 1.385 . S
C2052 C2050 1.478 . S
C2052 C2054 1.381 . S
C2052 C2058 1.383 . S
C2053 C2049 1.495 . S
C2053 H2059 0.959 . S
C2053 H2060 0.961 . S
C2053 H2061 0.960 . S
C2054 C2052 1.381 . S
C2054 C2055 1.394 . S
C2054 H2062 0.930 . S
C2055 C2054 1.394 . S
C2055 C2056 1.383 . S
C2055 H2063 0.929 . S
C2056 C2055 1.383 . S
C2056 C2057 1.377 . S
C2057 H2041 0.930 . S
C2057 C2056 1.377 . S
C2057 C2058 1.379 . S
C2058 H2042 0.931 . S
C2058 C2052 1.383 . S
C2058 C2057 1.379 . S
H2059 C2053 0.959 . S
H2060 C2053 0.961 . S
H2061 C2053 0.960 . S
H2062 C2054 0.930 . S
H2063 C2055 0.929 . S
H2064 C2072 0.929 . S
H2065 C2074 0.930 . S
H2066 C2076 0.930 . S
H2067 C2079 0.929 . S
H2068 C2082 0.930 . S
H2069 C2084 0.960 . S
H2070 C2084 0.960 . S
H2071 C2084 0.960 . S
C2072 H2064 0.929 . S
C2072 C2073 1.377 . S
C2072 C2074 1.384 . S
C2073 C2072 1.377 . S
C2073 C2079 1.390 . S
C2074 H2065 0.930 . S
C2074 C2072 1.384 . S
C2074 C2075 1.372 . S
C2075 C2074 1.372 . S
C2075 C2076 1.400 . S
C2075 C2080 1.490 . S
C2076 H2066 0.930 . S
C2076 C2075 1.400 . S
C2076 C2079 1.386 . S
H2077 C2093 0.930 . S
H2078 C2094 0.931 . S
C2079 H2067 0.929 . S
C2079 C2073 1.390 . S
C2079 C2076 1.386 . S
C2080 C2075 1.490 . S
C2080 C2082 1.395 . S
C2080 C2083 1.403 . S
H2081 C2087 0.930 . S
C2082 H2068 0.930 . S
C2082 C2080 1.395 . S
C2082 C2085 1.403 . S
C2083 C2080 1.403 . S
C2083 C2084 1.524 . S
C2083 C2087 1.400 . S
C2084 H2069 0.960 . S
C2084 H2070 0.960 . S
C2084 H2071 0.960 . S
C2084 C2083 1.524 . S
C2085 C2082 1.403 . S
C2085 C2086 1.392 . S
C2085 C2089 1.495 . S
C2086 C2085 1.392 . S
C2086 C2087 1.385 . S
C2086 C2088 1.478 . S
C2087 H2081 0.930 . S
C2087 C2083 1.400 . S
C2087 C2086 1.385 . S
C2088 C2086 1.478 . S
C2088 C2090 1.381 . S
C2088 C2094 1.383 . S
C2089 C2085 1.495 . S
C2089 H2095 0.959 . S
C2089 H2096 0.961 . S
C2089 H2097 0.960 . S
C2090 C2088 1.381 . S
C2090 C2091 1.394 . S
C2090 H2098 0.930 . S
C2091 C2090 1.394 . S
C2091 C2092 1.383 . S
C2091 H2099 0.929 . S
C2092 C2091 1.383 . S
C2092 C2093 1.377 . S
C2093 H2077 0.930 . S
C2093 C2092 1.377 . S
C2093 C2094 1.379 . S
C2094 H2078 0.931 . S
C2094 C2088 1.383 . S
C2094 C2093 1.379 . S
H2095 C2089 0.959 . S
H2096 C2089 0.961 . S
H2097 C2089 0.960 . S
H2098 C2090 0.930 . S
H2099 C2091 0.929 . S
H2100 C2108 0.929 . S
H2101 C2110 0.930 . S
H2102 C2112 0.930 . S
H2103 C2115 0.929 . S
H2104 C2118 0.930 . S
H2105 C2120 0.960 . S
H2106 C2120 0.960 . S
H2107 C2120 0.960 . S
C2108 H2100 0.929 . S
C2108 C2109 1.377 . S
C2108 C2110 1.384 . S
C2109 C2108 1.377 . S
C2109 C2115 1.390 . S
C2110 H2101 0.930 . S
C2110 C2108 1.384 . S
C2110 C2111 1.372 . S
C2111 C2110 1.372 . S
C2111 C2112 1.400 . S
C2111 C2116 1.490 . S
C2112 H2102 0.930 . S
C2112 C2111 1.400 . S
C2112 C2115 1.386 . S
H2113 C2129 0.930 . S
H2114 C2130 0.931 . S
C2115 H2103 0.929 . S
C2115 C2109 1.390 . S
C2115 C2112 1.386 . S
C2116 C2111 1.490 . S
C2116 C2118 1.395 . S
C2116 C2119 1.403 . S
H2117 C2123 0.930 . S
C2118 H2104 0.930 . S
C2118 C2116 1.395 . S
C2118 C2121 1.403 . S
C2119 C2116 1.403 . S
C2119 C2120 1.524 . S
C2119 C2123 1.400 . S
C2120 H2105 0.960 . S
C2120 H2106 0.960 . S
C2120 H2107 0.960 . S
C2120 C2119 1.524 . S
C2121 C2118 1.403 . S
C2121 C2122 1.392 . S
C2121 C2125 1.495 . S
C2122 C2121 1.392 . S
C2122 C2123 1.385 . S
C2122 C2124 1.478 . S
C2123 H2117 0.930 . S
C2123 C2119 1.400 . S
C2123 C2122 1.385 . S
C2124 C2122 1.478 . S
C2124 C2126 1.381 . S
C2124 C2130 1.383 . S
C2125 C2121 1.495 . S
C2125 H2131 0.959 . S
C2125 H2132 0.961 . S
C2125 H2133 0.960 . S
C2126 C2124 1.381 . S
C2126 C2127 1.394 . S
C2126 H2134 0.930 . S
C2127 C2126 1.394 . S
C2127 C2128 1.383 . S
C2127 H2135 0.929 . S
C2128 C2127 1.383 . S
C2128 C2129 1.377 . S
C2129 H2113 0.930 . S
C2129 C2128 1.377 . S
C2129 C2130 1.379 . S
C2130 H2114 0.931 . S
C2130 C2124 1.383 . S
C2130 C2129 1.379 . S
H2131 C2125 0.959 . S
H2132 C2125 0.961 . S
H2133 C2125 0.960 . S
H2134 C2126 0.930 . S
H2135 C2127 0.929 . S
H2136 C2144 0.929 . S
H2137 C2146 0.930 . S
H2138 C2148 0.930 . S
H2139 C2151 0.929 . S
H2140 C2154 0.930 . S
H2141 C2156 0.960 . S
H2142 C2156 0.960 . S
H2143 C2156 0.960 . S
C2144 H2136 0.929 . S
C2144 C2145 1.377 . S
C2144 C2146 1.384 . S
C2145 C2144 1.377 . S
C2145 C2151 1.390 . S
C2146 H2137 0.930 . S
C2146 C2144 1.384 . S
C2146 C2147 1.372 . S
C2147 C2146 1.372 . S
C2147 C2148 1.400 . S
C2147 C2152 1.490 . S
C2148 H2138 0.930 . S
C2148 C2147 1.400 . S
C2148 C2151 1.386 . S
H2149 C2165 0.930 . S
H2150 C2166 0.931 . S
C2151 H2139 0.929 . S
C2151 C2145 1.390 . S
C2151 C2148 1.386 . S
C2152 C2147 1.490 . S
C2152 C2154 1.395 . S
C2152 C2155 1.403 . S
H2153 C2159 0.930 . S
C2154 H2140 0.930 . S
C2154 C2152 1.395 . S
C2154 C2157 1.403 . S
C2155 C2152 1.403 . S
C2155 C2156 1.524 . S
C2155 C2159 1.400 . S
C2156 H2141 0.960 . S
C2156 H2142 0.960 . S
C2156 H2143 0.960 . S
C2156 C2155 1.524 . S
C2157 C2154 1.403 . S
C2157 C2158 1.392 . S
C2157 C2161 1.495 . S
C2158 C2157 1.392 . S
C2158 C2159 1.385 . S
C2158 C2160 1.478 . S
C2159 H2153 0.930 . S
C2159 C2155 1.400 . S
C2159 C2158 1.385 . S
C2160 C2158 1.478 . S
C2160 C2162 1.381 . S
C2160 C2166 1.383 . S
C2161 C2157 1.495 . S
C2161 H2167 0.959 . S
C2161 H2168 0.961 . S
C2161 H2169 0.960 . S
C2162 C2160 1.381 . S
C2162 C2163 1.394 . S
C2162 H2170 0.930 . S
C2163 C2162 1.394 . S
C2163 C2164 1.383 . S
C2163 H2171 0.929 . S
C2164 C2163 1.383 . S
C2164 C2165 1.377 . S
C2165 H2149 0.930 . S
C2165 C2164 1.377 . S
C2165 C2166 1.379 . S
C2166 H2150 0.931 . S
C2166 C2160 1.383 . S
C2166 C2165 1.379 . S
H2167 C2161 0.959 . S
H2168 C2161 0.961 . S
H2169 C2161 0.960 . S
H2170 C2162 0.930 . S
H2171 C2163 0.929 . S
H2172 C2180 0.929 . S
H2173 C2182 0.930 . S
H2174 C2184 0.930 . S
H2175 C2187 0.929 . S
H2176 C2190 0.930 . S
H2177 C2192 0.960 . S
H2178 C2192 0.960 . S
H2179 C2192 0.960 . S
C2180 H2172 0.929 . S
C2180 C2181 1.377 . S
C2180 C2182 1.384 . S
C2181 C2180 1.377 . S
C2181 C2187 1.390 . S
C2182 H2173 0.930 . S
C2182 C2180 1.384 . S
C2182 C2183 1.372 . S
C2183 C2182 1.372 . S
C2183 C2184 1.400 . S
C2183 C2188 1.490 . S
C2184 H2174 0.930 . S
C2184 C2183 1.400 . S
C2184 C2187 1.386 . S
H2185 C2201 0.930 . S
H2186 C2202 0.931 . S
C2187 H2175 0.929 . S
C2187 C2181 1.390 . S
C2187 C2184 1.386 . S
C2188 C2183 1.490 . S
C2188 C2190 1.395 . S
C2188 C2191 1.403 . S
H2189 C2195 0.930 . S
C2190 H2176 0.930 . S
C2190 C2188 1.395 . S
C2190 C2193 1.403 . S
C2191 C2188 1.403 . S
C2191 C2192 1.524 . S
C2191 C2195 1.400 . S
C2192 H2177 0.960 . S
C2192 H2178 0.960 . S
C2192 H2179 0.960 . S
C2192 C2191 1.524 . S
C2193 C2190 1.403 . S
C2193 C2194 1.392 . S
C2193 C2197 1.495 . S
C2194 C2193 1.392 . S
C2194 C2195 1.385 . S
C2194 C2196 1.478 . S
C2195 H2189 0.930 . S
C2195 C2191 1.400 . S
C2195 C2194 1.385 . S
C2196 C2194 1.478 . S
C2196 C2198 1.381 . S
C2196 C2202 1.383 . S
C2197 C2193 1.495 . S
C2197 H2203 0.959 . S
C2197 H2204 0.961 . S
C2197 H2205 0.960 . S
C2198 C2196 1.381 . S
C2198 C2199 1.394 . S
C2198 H2206 0.930 . S
C2199 C2198 1.394 . S
C2199 C2200 1.383 . S
C2199 H2207 0.929 . S
C2200 C2199 1.383 . S
C2200 C2201 1.377 . S
C2201 H2185 0.930 . S
C2201 C2200 1.377 . S
C2201 C2202 1.379 . S
C2202 H2186 0.931 . S
C2202 C2196 1.383 . S
C2202 C2201 1.379 . S
H2203 C2197 0.959 . S
H2204 C2197 0.961 . S
H2205 C2197 0.960 . S
H2206 C2198 0.930 . S
H2207 C2199 0.929 . S
H2208 C2216 0.929 . S
H2209 C2218 0.930 . S
H2210 C2220 0.930 . S
H2211 C2223 0.929 . S
H2212 C2226 0.930 . S
H2213 C2228 0.960 . S
H2214 C2228 0.960 . S
H2215 C2228 0.960 . S
C2216 H2208 0.929 . S
C2216 C2217 1.377 . S
C2216 C2218 1.384 . S
C2217 C2216 1.377 . S
C2217 C2223 1.390 . S
C2218 H2209 0.930 . S
C2218 C2216 1.384 . S
C2218 C2219 1.372 . S
C2219 C2218 1.372 . S
C2219 C2220 1.400 . S
C2219 C2224 1.490 . S
C2220 H2210 0.930 . S
C2220 C2219 1.400 . S
C2220 C2223 1.386 . S
H2221 C2237 0.930 . S
H2222 C2238 0.931 . S
C2223 H2211 0.929 . S
C2223 C2217 1.390 . S
C2223 C2220 1.386 . S
C2224 C2219 1.490 . S
C2224 C2226 1.395 . S
C2224 C2227 1.403 . S
H2225 C2231 0.930 . S
C2226 H2212 0.930 . S
C2226 C2224 1.395 . S
C2226 C2229 1.403 . S
C2227 C2224 1.403 . S
C2227 C2228 1.524 . S
C2227 C2231 1.400 . S
C2228 H2213 0.960 . S
C2228 H2214 0.960 . S
C2228 H2215 0.960 . S
C2228 C2227 1.524 . S
C2229 C2226 1.403 . S
C2229 C2230 1.392 . S
C2229 C2233 1.495 . S
C2230 C2229 1.392 . S
C2230 C2231 1.385 . S
C2230 C2232 1.478 . S
C2231 H2225 0.930 . S
C2231 C2227 1.400 . S
C2231 C2230 1.385 . S
C2232 C2230 1.478 . S
C2232 C2234 1.381 . S
C2232 C2238 1.383 . S
C2233 C2229 1.495 . S
C2233 H2239 0.959 . S
C2233 H2240 0.961 . S
C2233 H2241 0.960 . S
C2234 C2232 1.381 . S
C2234 C2235 1.394 . S
C2234 H2242 0.930 . S
C2235 C2234 1.394 . S
C2235 C2236 1.383 . S
C2235 H2243 0.929 . S
C2236 C2235 1.383 . S
C2236 C2237 1.377 . S
C2237 H2221 0.930 . S
C2237 C2236 1.377 . S
C2237 C2238 1.379 . S
C2238 H2222 0.931 . S
C2238 C2232 1.383 . S
C2238 C2237 1.379 . S
H2239 C2233 0.959 . S
H2240 C2233 0.961 . S
H2241 C2233 0.960 . S
H2242 C2234 0.930 . S
H2243 C2235 0.929 . S
H2244 C2252 0.929 . S
H2245 C2254 0.930 . S
H2246 C2256 0.930 . S
H2247 C2259 0.929 . S
H2248 C2262 0.930 . S
H2249 C2264 0.960 . S
H2250 C2264 0.960 . S
H2251 C2264 0.960 . S
C2252 H2244 0.929 . S
C2252 C2253 1.377 . S
C2252 C2254 1.384 . S
C2253 C2252 1.377 . S
C2253 C2259 1.390 . S
C2254 H2245 0.930 . S
C2254 C2252 1.384 . S
C2254 C2255 1.372 . S
C2255 C2254 1.372 . S
C2255 C2256 1.400 . S
C2255 C2260 1.490 . S
C2256 H2246 0.930 . S
C2256 C2255 1.400 . S
C2256 C2259 1.386 . S
H2257 C2273 0.930 . S
H2258 C2274 0.931 . S
C2259 H2247 0.929 . S
C2259 C2253 1.390 . S
C2259 C2256 1.386 . S
C2260 C2255 1.490 . S
C2260 C2262 1.395 . S
C2260 C2263 1.403 . S
H2261 C2267 0.930 . S
C2262 H2248 0.930 . S
C2262 C2260 1.395 . S
C2262 C2265 1.403 . S
C2263 C2260 1.403 . S
C2263 C2264 1.524 . S
C2263 C2267 1.400 . S
C2264 H2249 0.960 . S
C2264 H2250 0.960 . S
C2264 H2251 0.960 . S
C2264 C2263 1.524 . S
C2265 C2262 1.403 . S
C2265 C2266 1.392 . S
C2265 C2269 1.495 . S
C2266 C2265 1.392 . S
C2266 C2267 1.385 . S
C2266 C2268 1.478 . S
C2267 H2261 0.930 . S
C2267 C2263 1.400 . S
C2267 C2266 1.385 . S
C2268 C2266 1.478 . S
C2268 C2270 1.381 . S
C2268 C2274 1.383 . S
C2269 C2265 1.495 . S
C2269 H2275 0.959 . S
C2269 H2276 0.961 . S
C2269 H2277 0.960 . S
C2270 C2268 1.381 . S
C2270 C2271 1.394 . S
C2270 H2278 0.930 . S
C2271 C2270 1.394 . S
C2271 C2272 1.383 . S
C2271 H2279 0.929 . S
C2272 C2271 1.383 . S
C2272 C2273 1.377 . S
C2273 H2257 0.930 . S
C2273 C2272 1.377 . S
C2273 C2274 1.379 . S
C2274 H2258 0.931 . S
C2274 C2268 1.383 . S
C2274 C2273 1.379 . S
H2275 C2269 0.959 . S
H2276 C2269 0.961 . S
H2277 C2269 0.960 . S
H2278 C2270 0.930 . S
H2279 C2271 0.929 . S
H2280 C2288 0.929 . S
H2281 C2290 0.930 . S
H2282 C2292 0.930 . S
H2283 C2295 0.929 . S
H2284 C2298 0.930 . S
H2285 C2300 0.960 . S
H2286 C2300 0.960 . S
H2287 C2300 0.960 . S
C2288 H2280 0.929 . S
C2288 C2289 1.377 . S
C2288 C2290 1.384 . S
C2289 C2288 1.377 . S
C2289 C2295 1.390 . S
C2290 H2281 0.930 . S
C2290 C2288 1.384 . S
C2290 C2291 1.372 . S
C2291 C2290 1.372 . S
C2291 C2292 1.400 . S
C2291 C2296 1.490 . S
C2292 H2282 0.930 . S
C2292 C2291 1.400 . S
C2292 C2295 1.386 . S
H2293 C2309 0.930 . S
H2294 C2310 0.931 . S
C2295 H2283 0.929 . S
C2295 C2289 1.390 . S
C2295 C2292 1.386 . S
C2296 C2291 1.490 . S
C2296 C2298 1.395 . S
C2296 C2299 1.403 . S
H2297 C2303 0.930 . S
C2298 H2284 0.930 . S
C2298 C2296 1.395 . S
C2298 C2301 1.403 . S
C2299 C2296 1.403 . S
C2299 C2300 1.524 . S
C2299 C2303 1.400 . S
C2300 H2285 0.960 . S
C2300 H2286 0.960 . S
C2300 H2287 0.960 . S
C2300 C2299 1.524 . S
C2301 C2298 1.403 . S
C2301 C2302 1.392 . S
C2301 C2305 1.495 . S
C2302 C2301 1.392 . S
C2302 C2303 1.385 . S
C2302 C2304 1.478 . S
C2303 H2297 0.930 . S
C2303 C2299 1.400 . S
C2303 C2302 1.385 . S
C2304 C2302 1.478 . S
C2304 C2306 1.381 . S
C2304 C2310 1.383 . S
C2305 C2301 1.495 . S
C2305 H2311 0.959 . S
C2305 H2312 0.961 . S
C2305 H2313 0.960 . S
C2306 C2304 1.381 . S
C2306 C2307 1.394 . S
C2306 H2314 0.930 . S
C2307 C2306 1.394 . S
C2307 C2308 1.383 . S
C2307 H2315 0.929 . S
C2308 C2307 1.383 . S
C2308 C2309 1.377 . S
C2309 H2293 0.930 . S
C2309 C2308 1.377 . S
C2309 C2310 1.379 . S
C2310 H2294 0.931 . S
C2310 C2304 1.383 . S
C2310 C2309 1.379 . S
H2311 C2305 0.959 . S
H2312 C2305 0.961 . S
H2313 C2305 0.960 . S
H2314 C2306 0.930 . S
H2315 C2307 0.929 . S
H2316 C2324 0.929 . S
H2317 C2326 0.930 . S
H2318 C2328 0.930 . S
H2319 C2331 0.929 . S
H2320 C2334 0.930 . S
H2321 C2336 0.960 . S
H2322 C2336 0.960 . S
H2323 C2336 0.960 . S
C2324 H2316 0.929 . S
C2324 C2325 1.377 . S
C2324 C2326 1.384 . S
C2325 C2324 1.377 . S
C2325 C2331 1.390 . S
C2326 H2317 0.930 . S
C2326 C2324 1.384 . S
C2326 C2327 1.372 . S
C2327 C2326 1.372 . S
C2327 C2328 1.400 . S
C2327 C2332 1.490 . S
C2328 H2318 0.930 . S
C2328 C2327 1.400 . S
C2328 C2331 1.386 . S
H2329 C2345 0.930 . S
H2330 C2346 0.931 . S
C2331 H2319 0.929 . S
C2331 C2325 1.390 . S
C2331 C2328 1.386 . S
C2332 C2327 1.490 . S
C2332 C2334 1.395 . S
C2332 C2335 1.403 . S
H2333 C2339 0.930 . S
C2334 H2320 0.930 . S
C2334 C2332 1.395 . S
C2334 C2337 1.403 . S
C2335 C2332 1.403 . S
C2335 C2336 1.524 . S
C2335 C2339 1.400 . S
C2336 H2321 0.960 . S
C2336 H2322 0.960 . S
C2336 H2323 0.960 . S
C2336 C2335 1.524 . S
C2337 C2334 1.403 . S
C2337 C2338 1.392 . S
C2337 C2341 1.495 . S
C2338 C2337 1.392 . S
C2338 C2339 1.385 . S
C2338 C2340 1.478 . S
C2339 H2333 0.930 . S
C2339 C2335 1.400 . S
C2339 C2338 1.385 . S
C2340 C2338 1.478 . S
C2340 C2342 1.381 . S
C2340 C2346 1.383 . S
C2341 C2337 1.495 . S
C2341 H2347 0.959 . S
C2341 H2348 0.961 . S
C2341 H2349 0.960 . S
C2342 C2340 1.381 . S
C2342 C2343 1.394 . S
C2342 H2350 0.930 . S
C2343 C2342 1.394 . S
C2343 C2344 1.383 . S
C2343 H2351 0.929 . S
C2344 C2343 1.383 . S
C2344 C2345 1.377 . S
C2345 H2329 0.930 . S
C2345 C2344 1.377 . S
C2345 C2346 1.379 . S
C2346 H2330 0.931 . S
C2346 C2340 1.383 . S
C2346 C2345 1.379 . S
H2347 C2341 0.959 . S
H2348 C2341 0.961 . S
H2349 C2341 0.960 . S
H2350 C2342 0.930 . S
H2351 C2343 0.929 . S
H2352 C2360 0.929 . S
H2353 C2362 0.930 . S
H2354 C2364 0.930 . S
H2355 C2367 0.929 . S
H2356 C2370 0.930 . S
H2357 C2372 0.960 . S
H2358 C2372 0.960 . S
H2359 C2372 0.960 . S
C2360 H2352 0.929 . S
C2360 C2361 1.377 . S
C2360 C2362 1.384 . S
C2361 C2360 1.377 . S
C2361 C2367 1.390 . S
C2362 H2353 0.930 . S
C2362 C2360 1.384 . S
C2362 C2363 1.372 . S
C2363 C2362 1.372 . S
C2363 C2364 1.400 . S
C2363 C2368 1.490 . S
C2364 H2354 0.930 . S
C2364 C2363 1.400 . S
C2364 C2367 1.386 . S
H2365 C2381 0.930 . S
H2366 C2382 0.931 . S
C2367 H2355 0.929 . S
C2367 C2361 1.390 . S
C2367 C2364 1.386 . S
C2368 C2363 1.490 . S
C2368 C2370 1.395 . S
C2368 C2371 1.403 . S
H2369 C2375 0.930 . S
C2370 H2356 0.930 . S
C2370 C2368 1.395 . S
C2370 C2373 1.403 . S
C2371 C2368 1.403 . S
C2371 C2372 1.524 . S
C2371 C2375 1.400 . S
C2372 H2357 0.960 . S
C2372 H2358 0.960 . S
C2372 H2359 0.960 . S
C2372 C2371 1.524 . S
C2373 C2370 1.403 . S
C2373 C2374 1.392 . S
C2373 C2377 1.495 . S
C2374 C2373 1.392 . S
C2374 C2375 1.385 . S
C2374 C2376 1.478 . S
C2375 H2369 0.930 . S
C2375 C2371 1.400 . S
C2375 C2374 1.385 . S
C2376 C2374 1.478 . S
C2376 C2378 1.381 . S
C2376 C2382 1.383 . S
C2377 C2373 1.495 . S
C2377 H2383 0.959 . S
C2377 H2384 0.961 . S
C2377 H2385 0.960 . S
C2378 C2376 1.381 . S
C2378 C2379 1.394 . S
C2378 H2386 0.930 . S
C2379 C2378 1.394 . S
C2379 C2380 1.383 . S
C2379 H2387 0.929 . S
C2380 C2379 1.383 . S
C2380 C2381 1.377 . S
C2381 H2365 0.930 . S
C2381 C2380 1.377 . S
C2381 C2382 1.379 . S
C2382 H2366 0.931 . S
C2382 C2376 1.383 . S
C2382 C2381 1.379 . S
H2383 C2377 0.959 . S
H2384 C2377 0.961 . S
H2385 C2377 0.960 . S
H2386 C2378 0.930 . S
H2387 C2379 0.929 . S
H2388 C2396 0.929 . S
H2389 C2398 0.930 . S
H2390 C2400 0.930 . S
H2391 C2403 0.929 . S
H2392 C2406 0.930 . S
H2393 C2408 0.960 . S
H2394 C2408 0.960 . S
H2395 C2408 0.960 . S
C2396 H2388 0.929 . S
C2396 C2397 1.377 . S
C2396 C2398 1.384 . S
C2397 C2396 1.377 . S
C2397 C2403 1.390 . S
C2398 H2389 0.930 . S
C2398 C2396 1.384 . S
C2398 C2399 1.372 . S
C2399 C2398 1.372 . S
C2399 C2400 1.400 . S
C2399 C2404 1.490 . S
C2400 H2390 0.930 . S
C2400 C2399 1.400 . S
C2400 C2403 1.386 . S
H2401 C2417 0.930 . S
H2402 C2418 0.931 . S
C2403 H2391 0.929 . S
C2403 C2397 1.390 . S
C2403 C2400 1.386 . S
C2404 C2399 1.490 . S
C2404 C2406 1.395 . S
C2404 C2407 1.403 . S
H2405 C2411 0.930 . S
C2406 H2392 0.930 . S
C2406 C2404 1.395 . S
C2406 C2409 1.403 . S
C2407 C2404 1.403 . S
C2407 C2408 1.524 . S
C2407 C2411 1.400 . S
C2408 H2393 0.960 . S
C2408 H2394 0.960 . S
C2408 H2395 0.960 . S
C2408 C2407 1.524 . S
C2409 C2406 1.403 . S
C2409 C2410 1.392 . S
C2409 C2413 1.495 . S
C2410 C2409 1.392 . S
C2410 C2411 1.385 . S
C2410 C2412 1.478 . S
C2411 H2405 0.930 . S
C2411 C2407 1.400 . S
C2411 C2410 1.385 . S
C2412 C2410 1.478 . S
C2412 C2414 1.381 . S
C2412 C2418 1.383 . S
C2413 C2409 1.495 . S
C2413 H2419 0.959 . S
C2413 H2420 0.961 . S
C2413 H2421 0.960 . S
C2414 C2412 1.381 . S
C2414 C2415 1.394 . S
C2414 H2422 0.930 . S
C2415 C2414 1.394 . S
C2415 C2416 1.383 . S
C2415 H2423 0.929 . S
C2416 C2415 1.383 . S
C2416 C2417 1.377 . S
C2417 H2401 0.930 . S
C2417 C2416 1.377 . S
C2417 C2418 1.379 . S
C2418 H2402 0.931 . S
C2418 C2412 1.383 . S
C2418 C2417 1.379 . S
H2419 C2413 0.959 . S
H2420 C2413 0.961 . S
H2421 C2413 0.960 . S
H2422 C2414 0.930 . S
H2423 C2415 0.929 . S
H2424 C2432 0.929 . S
H2425 C2434 0.930 . S
H2426 C2436 0.930 . S
H2427 C2439 0.929 . S
H2428 C2442 0.930 . S
H2429 C2444 0.960 . S
H2430 C2444 0.960 . S
H2431 C2444 0.960 . S
C2432 H2424 0.929 . S
C2432 C2433 1.377 . S
C2432 C2434 1.384 . S
C2433 C2432 1.377 . S
C2433 C2439 1.390 . S
C2434 H2425 0.930 . S
C2434 C2432 1.384 . S
C2434 C2435 1.372 . S
C2435 C2434 1.372 . S
C2435 C2436 1.400 . S
C2435 C2440 1.490 . S
C2436 H2426 0.930 . S
C2436 C2435 1.400 . S
C2436 C2439 1.386 . S
H2437 C2453 0.930 . S
H2438 C2454 0.931 . S
C2439 H2427 0.929 . S
C2439 C2433 1.390 . S
C2439 C2436 1.386 . S
C2440 C2435 1.490 . S
C2440 C2442 1.395 . S
C2440 C2443 1.403 . S
H2441 C2447 0.930 . S
C2442 H2428 0.930 . S
C2442 C2440 1.395 . S
C2442 C2445 1.403 . S
C2443 C2440 1.403 . S
C2443 C2444 1.524 . S
C2443 C2447 1.400 . S
C2444 H2429 0.960 . S
C2444 H2430 0.960 . S
C2444 H2431 0.960 . S
C2444 C2443 1.524 . S
C2445 C2442 1.403 . S
C2445 C2446 1.392 . S
C2445 C2449 1.495 . S
C2446 C2445 1.392 . S
C2446 C2447 1.385 . S
C2446 C2448 1.478 . S
C2447 H2441 0.930 . S
C2447 C2443 1.400 . S
C2447 C2446 1.385 . S
C2448 C2446 1.478 . S
C2448 C2450 1.381 . S
C2448 C2454 1.383 . S
C2449 C2445 1.495 . S
C2449 H2455 0.959 . S
C2449 H2456 0.961 . S
C2449 H2457 0.960 . S
C2450 C2448 1.381 . S
C2450 C2451 1.394 . S
C2450 H2458 0.930 . S
C2451 C2450 1.394 . S
C2451 C2452 1.383 . S
C2451 H2459 0.929 . S
C2452 C2451 1.383 . S
C2452 C2453 1.377 . S
C2453 H2437 0.930 . S
C2453 C2452 1.377 . S
C2453 C2454 1.379 . S
C2454 H2438 0.931 . S
C2454 C2448 1.383 . S
C2454 C2453 1.379 . S
H2455 C2449 0.959 . S
H2456 C2449 0.961 . S
H2457 C2449 0.960 . S
H2458 C2450 0.930 . S
H2459 C2451 0.929 . S
H2460 C2468 0.929 . S
H2461 C2470 0.930 . S
H2462 C2472 0.930 . S
H2463 C2475 0.929 . S
H2464 C2478 0.930 . S
H2465 C2480 0.960 . S
H2466 C2480 0.960 . S
H2467 C2480 0.960 . S
C2468 H2460 0.929 . S
C2468 C2469 1.377 . S
C2468 C2470 1.384 . S
C2469 C2468 1.377 . S
C2469 C2475 1.390 . S
C2470 H2461 0.930 . S
C2470 C2468 1.384 . S
C2470 C2471 1.372 . S
C2471 C2470 1.372 . S
C2471 C2472 1.400 . S
C2471 C2476 1.490 . S
C2472 H2462 0.930 . S
C2472 C2471 1.400 . S
C2472 C2475 1.386 . S
H2473 C2489 0.930 . S
H2474 C2490 0.931 . S
C2475 H2463 0.929 . S
C2475 C2469 1.390 . S
C2475 C2472 1.386 . S
C2476 C2471 1.490 . S
C2476 C2478 1.395 . S
C2476 C2479 1.403 . S
H2477 C2483 0.930 . S
C2478 H2464 0.930 . S
C2478 C2476 1.395 . S
C2478 C2481 1.403 . S
C2479 C2476 1.403 . S
C2479 C2480 1.524 . S
C2479 C2483 1.400 . S
C2480 H2465 0.960 . S
C2480 H2466 0.960 . S
C2480 H2467 0.960 . S
C2480 C2479 1.524 . S
C2481 C2478 1.403 . S
C2481 C2482 1.392 . S
C2481 C2485 1.495 . S
C2482 C2481 1.392 . S
C2482 C2483 1.385 . S
C2482 C2484 1.478 . S
C2483 H2477 0.930 . S
C2483 C2479 1.400 . S
C2483 C2482 1.385 . S
C2484 C2482 1.478 . S
C2484 C2486 1.381 . S
C2484 C2490 1.383 . S
C2485 C2481 1.495 . S
C2485 H2491 0.959 . S
C2485 H2492 0.961 . S
C2485 H2493 0.960 . S
C2486 C2484 1.381 . S
C2486 C2487 1.394 . S
C2486 H2494 0.930 . S
C2487 C2486 1.394 . S
C2487 C2488 1.383 . S
C2487 H2495 0.929 . S
C2488 C2487 1.383 . S
C2488 C2489 1.377 . S
C2489 H2473 0.930 . S
C2489 C2488 1.377 . S
C2489 C2490 1.379 . S
C2490 H2474 0.931 . S
C2490 C2484 1.383 . S
C2490 C2489 1.379 . S
H2491 C2485 0.959 . S
H2492 C2485 0.961 . S
H2493 C2485 0.960 . S
H2494 C2486 0.930 . S
H2495 C2487 0.929 . S
H2496 C2504 0.929 . S
H2497 C2506 0.930 . S
H2498 C2508 0.930 . S
H2499 C2511 0.929 . S
H2500 C2514 0.930 . S
H2501 C2516 0.960 . S
H2502 C2516 0.960 . S
H2503 C2516 0.960 . S
C2504 H2496 0.929 . S
C2504 C2505 1.377 . S
C2504 C2506 1.384 . S
C2505 C2504 1.377 . S
C2505 C2511 1.390 . S
C2506 H2497 0.930 . S
C2506 C2504 1.384 . S
C2506 C2507 1.372 . S
C2507 C2506 1.372 . S
C2507 C2508 1.400 . S
C2507 C2512 1.490 . S
C2508 H2498 0.930 . S
C2508 C2507 1.400 . S
C2508 C2511 1.386 . S
H2509 C2525 0.930 . S
H2510 C2526 0.931 . S
C2511 H2499 0.929 . S
C2511 C2505 1.390 . S
C2511 C2508 1.386 . S
C2512 C2507 1.490 . S
C2512 C2514 1.395 . S
C2512 C2515 1.403 . S
H2513 C2519 0.930 . S
C2514 H2500 0.930 . S
C2514 C2512 1.395 . S
C2514 C2517 1.403 . S
C2515 C2512 1.403 . S
C2515 C2516 1.524 . S
C2515 C2519 1.400 . S
C2516 H2501 0.960 . S
C2516 H2502 0.960 . S
C2516 H2503 0.960 . S
C2516 C2515 1.524 . S
C2517 C2514 1.403 . S
C2517 C2518 1.392 . S
C2517 C2521 1.495 . S
C2518 C2517 1.392 . S
C2518 C2519 1.385 . S
C2518 C2520 1.478 . S
C2519 H2513 0.930 . S
C2519 C2515 1.400 . S
C2519 C2518 1.385 . S
C2520 C2518 1.478 . S
C2520 C2522 1.381 . S
C2520 C2526 1.383 . S
C2521 C2517 1.495 . S
C2521 H2527 0.959 . S
C2521 H2528 0.961 . S
C2521 H2529 0.960 . S
C2522 C2520 1.381 . S
C2522 C2523 1.394 . S
C2522 H2530 0.930 . S
C2523 C2522 1.394 . S
C2523 C2524 1.383 . S
C2523 H2531 0.929 . S
C2524 C2523 1.383 . S
C2524 C2525 1.377 . S
C2525 H2509 0.930 . S
C2525 C2524 1.377 . S
C2525 C2526 1.379 . S
C2526 H2510 0.931 . S
C2526 C2520 1.383 . S
C2526 C2525 1.379 . S
H2527 C2521 0.959 . S
H2528 C2521 0.961 . S
H2529 C2521 0.960 . S
H2530 C2522 0.930 . S
H2531 C2523 0.929 . S
H2532 C2540 0.929 . S
H2533 C2542 0.930 . S
H2534 C2544 0.930 . S
H2535 C2547 0.929 . S
H2536 C2550 0.930 . S
H2537 C2552 0.960 . S
H2538 C2552 0.960 . S
H2539 C2552 0.960 . S
C2540 H2532 0.929 . S
C2540 C2541 1.377 . S
C2540 C2542 1.384 . S
C2541 C2540 1.377 . S
C2541 C2547 1.390 . S
C2542 H2533 0.930 . S
C2542 C2540 1.384 . S
C2542 C2543 1.372 . S
C2543 C2542 1.372 . S
C2543 C2544 1.400 . S
C2543 C2548 1.490 . S
C2544 H2534 0.930 . S
C2544 C2543 1.400 . S
C2544 C2547 1.386 . S
H2545 C2561 0.930 . S
H2546 C2562 0.931 . S
C2547 H2535 0.929 . S
C2547 C2541 1.390 . S
C2547 C2544 1.386 . S
C2548 C2543 1.490 . S
C2548 C2550 1.395 . S
C2548 C2551 1.403 . S
H2549 C2555 0.930 . S
C2550 H2536 0.930 . S
C2550 C2548 1.395 . S
C2550 C2553 1.403 . S
C2551 C2548 1.403 . S
C2551 C2552 1.524 . S
C2551 C2555 1.400 . S
C2552 H2537 0.960 . S
C2552 H2538 0.960 . S
C2552 H2539 0.960 . S
C2552 C2551 1.524 . S
C2553 C2550 1.403 . S
C2553 C2554 1.392 . S
C2553 C2557 1.495 . S
C2554 C2553 1.392 . S
C2554 C2555 1.385 . S
C2554 C2556 1.478 . S
C2555 H2549 0.930 . S
C2555 C2551 1.400 . S
C2555 C2554 1.385 . S
C2556 C2554 1.478 . S
C2556 C2558 1.381 . S
C2556 C2562 1.383 . S
C2557 C2553 1.495 . S
C2557 H2563 0.959 . S
C2557 H2564 0.961 . S
C2557 H2565 0.960 . S
C2558 C2556 1.381 . S
C2558 C2559 1.394 . S
C2558 H2566 0.930 . S
C2559 C2558 1.394 . S
C2559 C2560 1.383 . S
C2559 H2567 0.929 . S
C2560 C2559 1.383 . S
C2560 C2561 1.377 . S
C2561 H2545 0.930 . S
C2561 C2560 1.377 . S
C2561 C2562 1.379 . S
C2562 H2546 0.931 . S
C2562 C2556 1.383 . S
C2562 C2561 1.379 . S
H2563 C2557 0.959 . S
H2564 C2557 0.961 . S
H2565 C2557 0.960 . S
H2566 C2558 0.930 . S
H2567 C2559 0.929 . S
H2568 C2576 0.929 . S
H2569 C2578 0.930 . S
H2570 C2580 0.930 . S
H2571 C2583 0.929 . S
H2572 C2586 0.930 . S
H2573 C2588 0.960 . S
H2574 C2588 0.960 . S
H2575 C2588 0.960 . S
C2576 H2568 0.929 . S
C2576 C2577 1.377 . S
C2576 C2578 1.384 . S
C2577 C2576 1.377 . S
C2577 C2583 1.390 . S
C2578 H2569 0.930 . S
C2578 C2576 1.384 . S
C2578 C2579 1.372 . S
C2579 C2578 1.372 . S
C2579 C2580 1.400 . S
C2579 C2584 1.490 . S
C2580 H2570 0.930 . S
C2580 C2579 1.400 . S
C2580 C2583 1.386 . S
H2581 C2597 0.930 . S
H2582 C2598 0.931 . S
C2583 H2571 0.929 . S
C2583 C2577 1.390 . S
C2583 C2580 1.386 . S
C2584 C2579 1.490 . S
C2584 C2586 1.395 . S
C2584 C2587 1.403 . S
H2585 C2591 0.930 . S
C2586 H2572 0.930 . S
C2586 C2584 1.395 . S
C2586 C2589 1.403 . S
C2587 C2584 1.403 . S
C2587 C2588 1.524 . S
C2587 C2591 1.400 . S
C2588 H2573 0.960 . S
C2588 H2574 0.960 . S
C2588 H2575 0.960 . S
C2588 C2587 1.524 . S
C2589 C2586 1.403 . S
C2589 C2590 1.392 . S
C2589 C2593 1.495 . S
C2590 C2589 1.392 . S
C2590 C2591 1.385 . S
C2590 C2592 1.478 . S
C2591 H2585 0.930 . S
C2591 C2587 1.400 . S
C2591 C2590 1.385 . S
C2592 C2590 1.478 . S
C2592 C2594 1.381 . S
C2592 C2598 1.383 . S
C2593 C2589 1.495 . S
C2593 H2599 0.959 . S
C2593 H2600 0.961 . S
C2593 H2601 0.960 . S
C2594 C2592 1.381 . S
C2594 C2595 1.394 . S
C2594 H2602 0.930 . S
C2595 C2594 1.394 . S
C2595 C2596 1.383 . S
C2595 H2603 0.929 . S
C2596 C2595 1.383 . S
C2596 C2597 1.377 . S
C2597 H2581 0.930 . S
C2597 C2596 1.377 . S
C2597 C2598 1.379 . S
C2598 H2582 0.931 . S
C2598 C2592 1.383 . S
C2598 C2597 1.379 . S
H2599 C2593 0.959 . S
H2600 C2593 0.961 . S
H2601 C2593 0.960 . S
H2602 C2594 0.930 . S
H2603 C2595 0.929 . S
H2604 C2612 0.929 . S
H2605 C2614 0.930 . S
H2606 C2616 0.930 . S
H2607 C2619 0.929 . S
H2608 C2622 0.930 . S
H2609 C2624 0.960 . S
H2610 C2624 0.960 . S
H2611 C2624 0.960 . S
C2612 H2604 0.929 . S
C2612 C2613 1.377 . S
C2612 C2614 1.384 . S
C2613 C2612 1.377 . S
C2613 C2619 1.390 . S
C2614 H2605 0.930 . S
C2614 C2612 1.384 . S
C2614 C2615 1.372 . S
C2615 C2614 1.372 . S
C2615 C2616 1.400 . S
C2615 C2620 1.490 . S
C2616 H2606 0.930 . S
C2616 C2615 1.400 . S
C2616 C2619 1.386 . S
H2617 C2633 0.930 . S
H2618 C2634 0.931 . S
C2619 H2607 0.929 . S
C2619 C2613 1.390 . S
C2619 C2616 1.386 . S
C2620 C2615 1.490 . S
C2620 C2622 1.395 . S
C2620 C2623 1.403 . S
H2621 C2627 0.930 . S
C2622 H2608 0.930 . S
C2622 C2620 1.395 . S
C2622 C2625 1.403 . S
C2623 C2620 1.403 . S
C2623 C2624 1.524 . S
C2623 C2627 1.400 . S
C2624 H2609 0.960 . S
C2624 H2610 0.960 . S
C2624 H2611 0.960 . S
C2624 C2623 1.524 . S
C2625 C2622 1.403 . S
C2625 C2626 1.392 . S
C2625 C2629 1.495 . S
C2626 C2625 1.392 . S
C2626 C2627 1.385 . S
C2626 C2628 1.478 . S
C2627 H2621 0.930 . S
C2627 C2623 1.400 . S
C2627 C2626 1.385 . S
C2628 C2626 1.478 . S
C2628 C2630 1.381 . S
C2628 C2634 1.383 . S
C2629 C2625 1.495 . S
C2629 H2635 0.959 . S
C2629 H2636 0.961 . S
C2629 H2637 0.960 . S
C2630 C2628 1.381 . S
C2630 C2631 1.394 . S
C2630 H2638 0.930 . S
C2631 C2630 1.394 . S
C2631 C2632 1.383 . S
C2631 H2639 0.929 . S
C2632 C2631 1.383 . S
C2632 C2633 1.377 . S
C2633 H2617 0.930 . S
C2633 C2632 1.377 . S
C2633 C2634 1.379 . S
C2634 H2618 0.931 . S
C2634 C2628 1.383 . S
C2634 C2633 1.379 . S
H2635 C2629 0.959 . S
H2636 C2629 0.961 . S
H2637 C2629 0.960 . S
H2638 C2630 0.930 . S
H2639 C2631 0.929 . S
H2640 C2648 0.929 . S
H2641 C2650 0.930 . S
H2642 C2652 0.930 . S
H2643 C2655 0.929 . S
H2644 C2658 0.930 . S
H2645 C2660 0.960 . S
H2646 C2660 0.960 . S
H2647 C2660 0.960 . S
C2648 H2640 0.929 . S
C2648 C2649 1.377 . S
C2648 C2650 1.384 . S
C2649 C2648 1.377 . S
C2649 C2655 1.390 . S
C2650 H2641 0.930 . S
C2650 C2648 1.384 . S
C2650 C2651 1.372 . S
C2651 C2650 1.372 . S
C2651 C2652 1.400 . S
C2651 C2656 1.490 . S
C2652 H2642 0.930 . S
C2652 C2651 1.400 . S
C2652 C2655 1.386 . S
H2653 C2669 0.930 . S
H2654 C2670 0.931 . S
C2655 H2643 0.929 . S
C2655 C2649 1.390 . S
C2655 C2652 1.386 . S
C2656 C2651 1.490 . S
C2656 C2658 1.395 . S
C2656 C2659 1.403 . S
H2657 C2663 0.930 . S
C2658 H2644 0.930 . S
C2658 C2656 1.395 . S
C2658 C2661 1.403 . S
C2659 C2656 1.403 . S
C2659 C2660 1.524 . S
C2659 C2663 1.400 . S
C2660 H2645 0.960 . S
C2660 H2646 0.960 . S
C2660 H2647 0.960 . S
C2660 C2659 1.524 . S
C2661 C2658 1.403 . S
C2661 C2662 1.392 . S
C2661 C2665 1.495 . S
C2662 C2661 1.392 . S
C2662 C2663 1.385 . S
C2662 C2664 1.478 . S
C2663 H2657 0.930 . S
C2663 C2659 1.400 . S
C2663 C2662 1.385 . S
C2664 C2662 1.478 . S
C2664 C2666 1.381 . S
C2664 C2670 1.383 . S
C2665 C2661 1.495 . S
C2665 H2671 0.959 . S
C2665 H2672 0.961 . S
C2665 H2673 0.960 . S
C2666 C2664 1.381 . S
C2666 C2667 1.394 . S
C2666 H2674 0.930 . S
C2667 C2666 1.394 . S
C2667 C2668 1.383 . S
C2667 H2675 0.929 . S
C2668 C2667 1.383 . S
C2668 C2669 1.377 . S
C2669 H2653 0.930 . S
C2669 C2668 1.377 . S
C2669 C2670 1.379 . S
C2670 H2654 0.931 . S
C2670 C2664 1.383 . S
C2670 C2669 1.379 . S
H2671 C2665 0.959 . S
H2672 C2665 0.961 . S
H2673 C2665 0.960 . S
H2674 C2666 0.930 . S
H2675 C2667 0.929 . S
H2676 C2684 0.929 . S
H2677 C2686 0.930 . S
H2678 C2688 0.930 . S
H2679 C2691 0.929 . S
H2680 C2694 0.930 . S
H2681 C2696 0.960 . S
H2682 C2696 0.960 . S
H2683 C2696 0.960 . S
C2684 H2676 0.929 . S
C2684 C2685 1.377 . S
C2684 C2686 1.384 . S
C2685 C2684 1.377 . S
C2685 C2691 1.390 . S
C2686 H2677 0.930 . S
C2686 C2684 1.384 . S
C2686 C2687 1.372 . S
C2687 C2686 1.372 . S
C2687 C2688 1.400 . S
C2687 C2692 1.490 . S
C2688 H2678 0.930 . S
C2688 C2687 1.400 . S
C2688 C2691 1.386 . S
H2689 C2705 0.930 . S
H2690 C2706 0.931 . S
C2691 H2679 0.929 . S
C2691 C2685 1.390 . S
C2691 C2688 1.386 . S
C2692 C2687 1.490 . S
C2692 C2694 1.395 . S
C2692 C2695 1.403 . S
H2693 C2699 0.930 . S
C2694 H2680 0.930 . S
C2694 C2692 1.395 . S
C2694 C2697 1.403 . S
C2695 C2692 1.403 . S
C2695 C2696 1.524 . S
C2695 C2699 1.400 . S
C2696 H2681 0.960 . S
C2696 H2682 0.960 . S
C2696 H2683 0.960 . S
C2696 C2695 1.524 . S
C2697 C2694 1.403 . S
C2697 C2698 1.392 . S
C2697 C2701 1.495 . S
C2698 C2697 1.392 . S
C2698 C2699 1.385 . S
C2698 C2700 1.478 . S
C2699 H2693 0.930 . S
C2699 C2695 1.400 . S
C2699 C2698 1.385 . S
C2700 C2698 1.478 . S
C2700 C2702 1.381 . S
C2700 C2706 1.383 . S
C2701 C2697 1.495 . S
C2701 H2707 0.959 . S
C2701 H2708 0.961 . S
C2701 H2709 0.960 . S
C2702 C2700 1.381 . S
C2702 C2703 1.394 . S
C2702 H2710 0.930 . S
C2703 C2702 1.394 . S
C2703 C2704 1.383 . S
C2703 H2711 0.929 . S
C2704 C2703 1.383 . S
C2704 C2705 1.377 . S
C2705 H2689 0.930 . S
C2705 C2704 1.377 . S
C2705 C2706 1.379 . S
C2706 H2690 0.931 . S
C2706 C2700 1.383 . S
C2706 C2705 1.379 . S
H2707 C2701 0.959 . S
H2708 C2701 0.961 . S
H2709 C2701 0.960 . S
H2710 C2702 0.930 . S
H2711 C2703 0.929 . S
H2712 C2720 0.929 . S
H2713 C2722 0.930 . S
H2714 C2724 0.930 . S
H2715 C2727 0.929 . S
H2716 C2730 0.930 . S
H2717 C2732 0.960 . S
H2718 C2732 0.960 . S
H2719 C2732 0.960 . S
C2720 H2712 0.929 . S
C2720 C2721 1.377 . S
C2720 C2722 1.384 . S
C2721 C2720 1.377 . S
C2721 C2727 1.390 . S
C2722 H2713 0.930 . S
C2722 C2720 1.384 . S
C2722 C2723 1.372 . S
C2723 C2722 1.372 . S
C2723 C2724 1.400 . S
C2723 C2728 1.490 . S
C2724 H2714 0.930 . S
C2724 C2723 1.400 . S
C2724 C2727 1.386 . S
H2725 C2741 0.930 . S
H2726 C2742 0.931 . S
C2727 H2715 0.929 . S
C2727 C2721 1.390 . S
C2727 C2724 1.386 . S
C2728 C2723 1.490 . S
C2728 C2730 1.395 . S
C2728 C2731 1.403 . S
H2729 C2735 0.930 . S
C2730 H2716 0.930 . S
C2730 C2728 1.395 . S
C2730 C2733 1.403 . S
C2731 C2728 1.403 . S
C2731 C2732 1.524 . S
C2731 C2735 1.400 . S
C2732 H2717 0.960 . S
C2732 H2718 0.960 . S
C2732 H2719 0.960 . S
C2732 C2731 1.524 . S
C2733 C2730 1.403 . S
C2733 C2734 1.392 . S
C2733 C2737 1.495 . S
C2734 C2733 1.392 . S
C2734 C2735 1.385 . S
C2734 C2736 1.478 . S
C2735 H2729 0.930 . S
C2735 C2731 1.400 . S
C2735 C2734 1.385 . S
C2736 C2734 1.478 . S
C2736 C2738 1.381 . S
C2736 C2742 1.383 . S
C2737 C2733 1.495 . S
C2737 H2743 0.959 . S
C2737 H2744 0.961 . S
C2737 H2745 0.960 . S
C2738 C2736 1.381 . S
C2738 C2739 1.394 . S
C2738 H2746 0.930 . S
C2739 C2738 1.394 . S
C2739 C2740 1.383 . S
C2739 H2747 0.929 . S
C2740 C2739 1.383 . S
C2740 C2741 1.377 . S
C2741 H2725 0.930 . S
C2741 C2740 1.377 . S
C2741 C2742 1.379 . S
C2742 H2726 0.931 . S
C2742 C2736 1.383 . S
C2742 C2741 1.379 . S
H2743 C2737 0.959 . S
H2744 C2737 0.961 . S
H2745 C2737 0.960 . S
H2746 C2738 0.930 . S
H2747 C2739 0.929 . S
H2748 C2756 0.929 . S
H2749 C2758 0.930 . S
H2750 C2760 0.930 . S
H2751 C2763 0.929 . S
H2752 C2766 0.930 . S
H2753 C2768 0.960 . S
H2754 C2768 0.960 . S
H2755 C2768 0.960 . S
C2756 H2748 0.929 . S
C2756 C2757 1.377 . S
C2756 C2758 1.384 . S
C2757 C2756 1.377 . S
C2757 C2763 1.390 . S
C2758 H2749 0.930 . S
C2758 C2756 1.384 . S
C2758 C2759 1.372 . S
C2759 C2758 1.372 . S
C2759 C2760 1.400 . S
C2759 C2764 1.490 . S
C2760 H2750 0.930 . S
C2760 C2759 1.400 . S
C2760 C2763 1.386 . S
H2761 C2777 0.930 . S
H2762 C2778 0.931 . S
C2763 H2751 0.929 . S
C2763 C2757 1.390 . S
C2763 C2760 1.386 . S
C2764 C2759 1.490 . S
C2764 C2766 1.395 . S
C2764 C2767 1.403 . S
H2765 C2771 0.930 . S
C2766 H2752 0.930 . S
C2766 C2764 1.395 . S
C2766 C2769 1.403 . S
C2767 C2764 1.403 . S
C2767 C2768 1.524 . S
C2767 C2771 1.400 . S
C2768 H2753 0.960 . S
C2768 H2754 0.960 . S
C2768 H2755 0.960 . S
C2768 C2767 1.524 . S
C2769 C2766 1.403 . S
C2769 C2770 1.392 . S
C2769 C2773 1.495 . S
C2770 C2769 1.392 . S
C2770 C2771 1.385 . S
C2770 C2772 1.478 . S
C2771 H2765 0.930 . S
C2771 C2767 1.400 . S
C2771 C2770 1.385 . S
C2772 C2770 1.478 . S
C2772 C2774 1.381 . S
C2772 C2778 1.383 . S
C2773 C2769 1.495 . S
C2773 H2779 0.959 . S
C2773 H2780 0.961 . S
C2773 H2781 0.960 . S
C2774 C2772 1.381 . S
C2774 C2775 1.394 . S
C2774 H2782 0.930 . S
C2775 C2774 1.394 . S
C2775 C2776 1.383 . S
C2775 H2783 0.929 . S
C2776 C2775 1.383 . S
C2776 C2777 1.377 . S
C2777 H2761 0.930 . S
C2777 C2776 1.377 . S
C2777 C2778 1.379 . S
C2778 H2762 0.931 . S
C2778 C2772 1.383 . S
C2778 C2777 1.379 . S
H2779 C2773 0.959 . S
H2780 C2773 0.961 . S
H2781 C2773 0.960 . S
H2782 C2774 0.930 . S
H2783 C2775 0.929 . S
H2784 C2792 0.929 . S
H2785 C2794 0.930 . S
H2786 C2796 0.930 . S
H2787 C2799 0.929 . S
H2788 C2802 0.930 . S
H2789 C2804 0.960 . S
H2790 C2804 0.960 . S
H2791 C2804 0.960 . S
C2792 H2784 0.929 . S
C2792 C2793 1.377 . S
C2792 C2794 1.384 . S
C2793 C2792 1.377 . S
C2793 C2799 1.390 . S
C2794 H2785 0.930 . S
C2794 C2792 1.384 . S
C2794 C2795 1.372 . S
C2795 C2794 1.372 . S
C2795 C2796 1.400 . S
C2795 C2800 1.490 . S
C2796 H2786 0.930 . S
C2796 C2795 1.400 . S
C2796 C2799 1.386 . S
H2797 C2813 0.930 . S
H2798 C2814 0.931 . S
C2799 H2787 0.929 . S
C2799 C2793 1.390 . S
C2799 C2796 1.386 . S
C2800 C2795 1.490 . S
C2800 C2802 1.395 . S
C2800 C2803 1.403 . S
H2801 C2807 0.930 . S
C2802 H2788 0.930 . S
C2802 C2800 1.395 . S
C2802 C2805 1.403 . S
C2803 C2800 1.403 . S
C2803 C2804 1.524 . S
C2803 C2807 1.400 . S
C2804 H2789 0.960 . S
C2804 H2790 0.960 . S
C2804 H2791 0.960 . S
C2804 C2803 1.524 . S
C2805 C2802 1.403 . S
C2805 C2806 1.392 . S
C2805 C2809 1.495 . S
C2806 C2805 1.392 . S
C2806 C2807 1.385 . S
C2806 C2808 1.478 . S
C2807 H2801 0.930 . S
C2807 C2803 1.400 . S
C2807 C2806 1.385 . S
C2808 C2806 1.478 . S
C2808 C2810 1.381 . S
C2808 C2814 1.383 . S
C2809 C2805 1.495 . S
C2809 H2815 0.959 . S
C2809 H2816 0.961 . S
C2809 H2817 0.960 . S
C2810 C2808 1.381 . S
C2810 C2811 1.394 . S
C2810 H2818 0.930 . S
C2811 C2810 1.394 . S
C2811 C2812 1.383 . S
C2811 H2819 0.929 . S
C2812 C2811 1.383 . S
C2812 C2813 1.377 . S
C2813 H2797 0.930 . S
C2813 C2812 1.377 . S
C2813 C2814 1.379 . S
C2814 H2798 0.931 . S
C2814 C2808 1.383 . S
C2814 C2813 1.379 . S
H2815 C2809 0.959 . S
H2816 C2809 0.961 . S
H2817 C2809 0.960 . S
H2818 C2810 0.930 . S
H2819 C2811 0.929 . S
H2820 C2828 0.929 . S
H2821 C2830 0.930 . S
H2822 C2832 0.930 . S
H2823 C2835 0.929 . S
H2824 C2838 0.930 . S
H2825 C2840 0.960 . S
H2826 C2840 0.960 . S
H2827 C2840 0.960 . S
C2828 H2820 0.929 . S
C2828 C2829 1.377 . S
C2828 C2830 1.384 . S
C2829 C2828 1.377 . S
C2829 C2835 1.390 . S
C2830 H2821 0.930 . S
C2830 C2828 1.384 . S
C2830 C2831 1.372 . S
C2831 C2830 1.372 . S
C2831 C2832 1.400 . S
C2831 C2836 1.490 . S
C2832 H2822 0.930 . S
C2832 C2831 1.400 . S
C2832 C2835 1.386 . S
H2833 C2849 0.930 . S
H2834 C2850 0.931 . S
C2835 H2823 0.929 . S
C2835 C2829 1.390 . S
C2835 C2832 1.386 . S
C2836 C2831 1.490 . S
C2836 C2838 1.395 . S
C2836 C2839 1.403 . S
H2837 C2843 0.930 . S
C2838 H2824 0.930 . S
C2838 C2836 1.395 . S
C2838 C2841 1.403 . S
C2839 C2836 1.403 . S
C2839 C2840 1.524 . S
C2839 C2843 1.400 . S
C2840 H2825 0.960 . S
C2840 H2826 0.960 . S
C2840 H2827 0.960 . S
C2840 C2839 1.524 . S
C2841 C2838 1.403 . S
C2841 C2842 1.392 . S
C2841 C2845 1.495 . S
C2842 C2841 1.392 . S
C2842 C2843 1.385 . S
C2842 C2844 1.478 . S
C2843 H2837 0.930 . S
C2843 C2839 1.400 . S
C2843 C2842 1.385 . S
C2844 C2842 1.478 . S
C2844 C2846 1.381 . S
C2844 C2850 1.383 . S
C2845 C2841 1.495 . S
C2845 H2851 0.959 . S
C2845 H2852 0.961 . S
C2845 H2853 0.960 . S
C2846 C2844 1.381 . S
C2846 C2847 1.394 . S
C2846 H2854 0.930 . S
C2847 C2846 1.394 . S
C2847 C2848 1.383 . S
C2847 H2855 0.929 . S
C2848 C2847 1.383 . S
C2848 C2849 1.377 . S
C2849 H2833 0.930 . S
C2849 C2848 1.377 . S
C2849 C2850 1.379 . S
C2850 H2834 0.931 . S
C2850 C2844 1.383 . S
C2850 C2849 1.379 . S
H2851 C2845 0.959 . S
H2852 C2845 0.961 . S
H2853 C2845 0.960 . S
H2854 C2846 0.930 . S
H2855 C2847 0.929 . S
H2856 C2864 0.929 . S
H2857 C2866 0.930 . S
H2858 C2868 0.930 . S
H2859 C2871 0.929 . S
H2860 C2874 0.930 . S
H2861 C2876 0.960 . S
H2862 C2876 0.960 . S
H2863 C2876 0.960 . S
C2864 H2856 0.929 . S
C2864 C2865 1.377 . S
C2864 C2866 1.384 . S
C2865 C2864 1.377 . S
C2865 C2871 1.390 . S
C2866 H2857 0.930 . S
C2866 C2864 1.384 . S
C2866 C2867 1.372 . S
C2867 C2866 1.372 . S
C2867 C2868 1.400 . S
C2867 C2872 1.490 . S
C2868 H2858 0.930 . S
C2868 C2867 1.400 . S
C2868 C2871 1.386 . S
H2869 C2885 0.930 . S
H2870 C2886 0.931 . S
C2871 H2859 0.929 . S
C2871 C2865 1.390 . S
C2871 C2868 1.386 . S
C2872 C2867 1.490 . S
C2872 C2874 1.395 . S
C2872 C2875 1.403 . S
H2873 C2879 0.930 . S
C2874 H2860 0.930 . S
C2874 C2872 1.395 . S
C2874 C2877 1.403 . S
C2875 C2872 1.403 . S
C2875 C2876 1.524 . S
C2875 C2879 1.400 . S
C2876 H2861 0.960 . S
C2876 H2862 0.960 . S
C2876 H2863 0.960 . S
C2876 C2875 1.524 . S
C2877 C2874 1.403 . S
C2877 C2878 1.392 . S
C2877 C2881 1.495 . S
C2878 C2877 1.392 . S
C2878 C2879 1.385 . S
C2878 C2880 1.478 . S
C2879 H2873 0.930 . S
C2879 C2875 1.400 . S
C2879 C2878 1.385 . S
C2880 C2878 1.478 . S
C2880 C2882 1.381 . S
C2880 C2886 1.383 . S
C2881 C2877 1.495 . S
C2881 H2887 0.959 . S
C2881 H2888 0.961 . S
C2881 H2889 0.960 . S
C2882 C2880 1.381 . S
C2882 C2883 1.394 . S
C2882 H2890 0.930 . S
C2883 C2882 1.394 . S
C2883 C2884 1.383 . S
C2883 H2891 0.929 . S
C2884 C2883 1.383 . S
C2884 C2885 1.377 . S
C2885 H2869 0.930 . S
C2885 C2884 1.377 . S
C2885 C2886 1.379 . S
C2886 H2870 0.931 . S
C2886 C2880 1.383 . S
C2886 C2885 1.379 . S
H2887 C2881 0.959 . S
H2888 C2881 0.961 . S
H2889 C2881 0.960 . S
H2890 C2882 0.930 . S
H2891 C2883 0.929 . S
H2892 C2900 0.929 . S
H2893 C2902 0.930 . S
H2894 C2904 0.930 . S
H2895 C2907 0.929 . S
H2896 C2910 0.930 . S
H2897 C2912 0.960 . S
H2898 C2912 0.960 . S
H2899 C2912 0.960 . S
C2900 H2892 0.929 . S
C2900 C2901 1.377 . S
C2900 C2902 1.384 . S
C2901 C2900 1.377 . S
C2901 C2907 1.390 . S
C2902 H2893 0.930 . S
C2902 C2900 1.384 . S
C2902 C2903 1.372 . S
C2903 C2902 1.372 . S
C2903 C2904 1.400 . S
C2903 C2908 1.490 . S
C2904 H2894 0.930 . S
C2904 C2903 1.400 . S
C2904 C2907 1.386 . S
H2905 C2921 0.930 . S
H2906 C2922 0.931 . S
C2907 H2895 0.929 . S
C2907 C2901 1.390 . S
C2907 C2904 1.386 . S
C2908 C2903 1.490 . S
C2908 C2910 1.395 . S
C2908 C2911 1.403 . S
H2909 C2915 0.930 . S
C2910 H2896 0.930 . S
C2910 C2908 1.395 . S
C2910 C2913 1.403 . S
C2911 C2908 1.403 . S
C2911 C2912 1.524 . S
C2911 C2915 1.400 . S
C2912 H2897 0.960 . S
C2912 H2898 0.960 . S
C2912 H2899 0.960 . S
C2912 C2911 1.524 . S
C2913 C2910 1.403 . S
C2913 C2914 1.392 . S
C2913 C2917 1.495 . S
C2914 C2913 1.392 . S
C2914 C2915 1.385 . S
C2914 C2916 1.478 . S
C2915 H2909 0.930 . S
C2915 C2911 1.400 . S
C2915 C2914 1.385 . S
C2916 C2914 1.478 . S
C2916 C2918 1.381 . S
C2916 C2922 1.383 . S
C2917 C2913 1.495 . S
C2917 H2923 0.959 . S
C2917 H2924 0.961 . S
C2917 H2925 0.960 . S
C2918 C2916 1.381 . S
C2918 C2919 1.394 . S
C2918 H2926 0.930 . S
C2919 C2918 1.394 . S
C2919 C2920 1.383 . S
C2919 H2927 0.929 . S
C2920 C2919 1.383 . S
C2920 C2921 1.377 . S
C2921 H2905 0.930 . S
C2921 C2920 1.377 . S
C2921 C2922 1.379 . S
C2922 H2906 0.931 . S
C2922 C2916 1.383 . S
C2922 C2921 1.379 . S
H2923 C2917 0.959 . S
H2924 C2917 0.961 . S
H2925 C2917 0.960 . S
H2926 C2918 0.930 . S
H2927 C2919 0.929 . S
H2928 C2936 0.929 . S
H2929 C2938 0.930 . S
H2930 C2940 0.930 . S
H2931 C2943 0.929 . S
H2932 C2946 0.930 . S
H2933 C2948 0.960 . S
H2934 C2948 0.960 . S
H2935 C2948 0.960 . S
C2936 H2928 0.929 . S
C2936 C2937 1.377 . S
C2936 C2938 1.384 . S
C2937 C2936 1.377 . S
C2937 C2943 1.390 . S
C2938 H2929 0.930 . S
C2938 C2936 1.384 . S
C2938 C2939 1.372 . S
C2939 C2938 1.372 . S
C2939 C2940 1.400 . S
C2939 C2944 1.490 . S
C2940 H2930 0.930 . S
C2940 C2939 1.400 . S
C2940 C2943 1.386 . S
H2941 C2957 0.930 . S
H2942 C2958 0.931 . S
C2943 H2931 0.929 . S
C2943 C2937 1.390 . S
C2943 C2940 1.386 . S
C2944 C2939 1.490 . S
C2944 C2946 1.395 . S
C2944 C2947 1.403 . S
H2945 C2951 0.930 . S
C2946 H2932 0.930 . S
C2946 C2944 1.395 . S
C2946 C2949 1.403 . S
C2947 C2944 1.403 . S
C2947 C2948 1.524 . S
C2947 C2951 1.400 . S
C2948 H2933 0.960 . S
C2948 H2934 0.960 . S
C2948 H2935 0.960 . S
C2948 C2947 1.524 . S
C2949 C2946 1.403 . S
C2949 C2950 1.392 . S
C2949 C2953 1.495 . S
C2950 C2949 1.392 . S
C2950 C2951 1.385 . S
C2950 C2952 1.478 . S
C2951 H2945 0.930 . S
C2951 C2947 1.400 . S
C2951 C2950 1.385 . S
C2952 C2950 1.478 . S
C2952 C2954 1.381 . S
C2952 C2958 1.383 . S
C2953 C2949 1.495 . S
C2953 H2959 0.959 . S
C2953 H2960 0.961 . S
C2953 H2961 0.960 . S
C2954 C2952 1.381 . S
C2954 C2955 1.394 . S
C2954 H2962 0.930 . S
C2955 C2954 1.394 . S
C2955 C2956 1.383 . S
C2955 H2963 0.929 . S
C2956 C2955 1.383 . S
C2956 C2957 1.377 . S
C2957 H2941 0.930 . S
C2957 C2956 1.377 . S
C2957 C2958 1.379 . S
C2958 H2942 0.931 . S
C2958 C2952 1.383 . S
C2958 C2957 1.379 . S
H2959 C2953 0.959 . S
H2960 C2953 0.961 . S
H2961 C2953 0.960 . S
H2962 C2954 0.930 . S
H2963 C2955 0.929 . S
H2964 C2972 0.929 . S
H2965 C2974 0.930 . S
H2966 C2976 0.930 . S
H2967 C2979 0.929 . S
H2968 C2982 0.930 . S
H2969 C2984 0.960 . S
H2970 C2984 0.960 . S
H2971 C2984 0.960 . S
C2972 H2964 0.929 . S
C2972 C2973 1.377 . S
C2972 C2974 1.384 . S
C2973 C2972 1.377 . S
C2973 C2979 1.390 . S
C2974 H2965 0.930 . S
C2974 C2972 1.384 . S
C2974 C2975 1.372 . S
C2975 C2974 1.372 . S
C2975 C2976 1.400 . S
C2975 C2980 1.490 . S
C2976 H2966 0.930 . S
C2976 C2975 1.400 . S
C2976 C2979 1.386 . S
H2977 C2993 0.930 . S
H2978 C2994 0.931 . S
C2979 H2967 0.929 . S
C2979 C2973 1.390 . S
C2979 C2976 1.386 . S
C2980 C2975 1.490 . S
C2980 C2982 1.395 . S
C2980 C2983 1.403 . S
H2981 C2987 0.930 . S
C2982 H2968 0.930 . S
C2982 C2980 1.395 . S
C2982 C2985 1.403 . S
C2983 C2980 1.403 . S
C2983 C2984 1.524 . S
C2983 C2987 1.400 . S
C2984 H2969 0.960 . S
C2984 H2970 0.960 . S
C2984 H2971 0.960 . S
C2984 C2983 1.524 . S
C2985 C2982 1.403 . S
C2985 C2986 1.392 . S
C2985 C2989 1.495 . S
C2986 C2985 1.392 . S
C2986 C2987 1.385 . S
C2986 C2988 1.478 . S
C2987 H2981 0.930 . S
C2987 C2983 1.400 . S
C2987 C2986 1.385 . S
C2988 C2986 1.478 . S
C2988 C2990 1.381 . S
C2988 C2994 1.383 . S
C2989 C2985 1.495 . S
C2989 H2995 0.959 . S
C2989 H2996 0.961 . S
C2989 H2997 0.960 . S
C2990 C2988 1.381 . S
C2990 C2991 1.394 . S
C2990 H2998 0.930 . S
C2991 C2990 1.394 . S
C2991 C2992 1.383 . S
C2991 H2999 0.929 . S
C2992 C2991 1.383 . S
C2992 C2993 1.377 . S
C2993 H2977 0.930 . S
C2993 C2992 1.377 . S
C2993 C2994 1.379 . S
C2994 H2978 0.931 . S
C2994 C2988 1.383 . S
C2994 C2993 1.379 . S
H2995 C2989 0.959 . S
H2996 C2989 0.961 . S
H2997 C2989 0.960 . S
H2998 C2990 0.930 . S
H2999 C2991 0.929 . S
H3000 C3008 0.929 . S
H3001 C3010 0.930 . S
H3002 C3012 0.930 . S
H3003 C3015 0.929 . S
H3004 C3018 0.930 . S
H3005 C3020 0.960 . S
H3006 C3020 0.960 . S
H3007 C3020 0.960 . S
C3008 H3000 0.929 . S
C3008 C3009 1.377 . S
C3008 C3010 1.384 . S
C3009 C3008 1.377 . S
C3009 C3015 1.390 . S
C3010 H3001 0.930 . S
C3010 C3008 1.384 . S
C3010 C3011 1.372 . S
C3011 C3010 1.372 . S
C3011 C3012 1.400 . S
C3011 C3016 1.490 . S
C3012 H3002 0.930 . S
C3012 C3011 1.400 . S
C3012 C3015 1.386 . S
H3013 C3029 0.930 . S
H3014 C3030 0.931 . S
C3015 H3003 0.929 . S
C3015 C3009 1.390 . S
C3015 C3012 1.386 . S
C3016 C3011 1.490 . S
C3016 C3018 1.395 . S
C3016 C3019 1.403 . S
H3017 C3023 0.930 . S
C3018 H3004 0.930 . S
C3018 C3016 1.395 . S
C3018 C3021 1.403 . S
C3019 C3016 1.403 . S
C3019 C3020 1.524 . S
C3019 C3023 1.400 . S
C3020 H3005 0.960 . S
C3020 H3006 0.960 . S
C3020 H3007 0.960 . S
C3020 C3019 1.524 . S
C3021 C3018 1.403 . S
C3021 C3022 1.392 . S
C3021 C3025 1.495 . S
C3022 C3021 1.392 . S
C3022 C3023 1.385 . S
C3022 C3024 1.478 . S
C3023 H3017 0.930 . S
C3023 C3019 1.400 . S
C3023 C3022 1.385 . S
C3024 C3022 1.478 . S
C3024 C3026 1.381 . S
C3024 C3030 1.383 . S
C3025 C3021 1.495 . S
C3025 H3031 0.959 . S
C3025 H3032 0.961 . S
C3025 H3033 0.960 . S
C3026 C3024 1.381 . S
C3026 C3027 1.394 . S
C3026 H3034 0.930 . S
C3027 C3026 1.394 . S
C3027 C3028 1.383 . S
C3027 H3035 0.929 . S
C3028 C3027 1.383 . S
C3028 C3029 1.377 . S
C3029 H3013 0.930 . S
C3029 C3028 1.377 . S
C3029 C3030 1.379 . S
C3030 H3014 0.931 . S
C3030 C3024 1.383 . S
C3030 C3029 1.379 . S
H3031 C3025 0.959 . S
H3032 C3025 0.961 . S
H3033 C3025 0.960 . S
H3034 C3026 0.930 . S
H3035 C3027 0.929 . S
H3036 C3044 0.929 . S
H3037 C3046 0.930 . S
H3038 C3048 0.930 . S
H3039 C3051 0.929 . S
H3040 C3054 0.930 . S
H3041 C3056 0.960 . S
H3042 C3056 0.960 . S
H3043 C3056 0.960 . S
C3044 H3036 0.929 . S
C3044 C3045 1.377 . S
C3044 C3046 1.384 . S
C3045 C3044 1.377 . S
C3045 C3051 1.390 . S
C3046 H3037 0.930 . S
C3046 C3044 1.384 . S
C3046 C3047 1.372 . S
C3047 C3046 1.372 . S
C3047 C3048 1.400 . S
C3047 C3052 1.490 . S
C3048 H3038 0.930 . S
C3048 C3047 1.400 . S
C3048 C3051 1.386 . S
H3049 C3065 0.930 . S
H3050 C3066 0.931 . S
C3051 H3039 0.929 . S
C3051 C3045 1.390 . S
C3051 C3048 1.386 . S
C3052 C3047 1.490 . S
C3052 C3054 1.395 . S
C3052 C3055 1.403 . S
H3053 C3059 0.930 . S
C3054 H3040 0.930 . S
C3054 C3052 1.395 . S
C3054 C3057 1.403 . S
C3055 C3052 1.403 . S
C3055 C3056 1.524 . S
C3055 C3059 1.400 . S
C3056 H3041 0.960 . S
C3056 H3042 0.960 . S
C3056 H3043 0.960 . S
C3056 C3055 1.524 . S
C3057 C3054 1.403 . S
C3057 C3058 1.392 . S
C3057 C3061 1.495 . S
C3058 C3057 1.392 . S
C3058 C3059 1.385 . S
C3058 C3060 1.478 . S
C3059 H3053 0.930 . S
C3059 C3055 1.400 . S
C3059 C3058 1.385 . S
C3060 C3058 1.478 . S
C3060 C3062 1.381 . S
C3060 C3066 1.383 . S
C3061 C3057 1.495 . S
C3061 H3067 0.959 . S
C3061 H3068 0.961 . S
C3061 H3069 0.960 . S
C3062 C3060 1.381 . S
C3062 C3063 1.394 . S
C3062 H3070 0.930 . S
C3063 C3062 1.394 . S
C3063 C3064 1.383 . S
C3063 H3071 0.929 . S
C3064 C3063 1.383 . S
C3064 C3065 1.377 . S
C3065 H3049 0.930 . S
C3065 C3064 1.377 . S
C3065 C3066 1.379 . S
C3066 H3050 0.931 . S
C3066 C3060 1.383 . S
C3066 C3065 1.379 . S
H3067 C3061 0.959 . S
H3068 C3061 0.961 . S
H3069 C3061 0.960 . S
H3070 C3062 0.930 . S
H3071 C3063 0.929 . S
H3072 C3080 0.929 . S
H3073 C3082 0.930 . S
H3074 C3084 0.930 . S
H3075 C3087 0.929 . S
H3076 C3090 0.930 . S
H3077 C3092 0.960 . S
H3078 C3092 0.960 . S
H3079 C3092 0.960 . S
C3080 H3072 0.929 . S
C3080 C3081 1.377 . S
C3080 C3082 1.384 . S
C3081 C3080 1.377 . S
C3081 C3087 1.390 . S
C3082 H3073 0.930 . S
C3082 C3080 1.384 . S
C3082 C3083 1.372 . S
C3083 C3082 1.372 . S
C3083 C3084 1.400 . S
C3083 C3088 1.490 . S
C3084 H3074 0.930 . S
C3084 C3083 1.400 . S
C3084 C3087 1.386 . S
H3085 C3101 0.930 . S
H3086 C3102 0.931 . S
C3087 H3075 0.929 . S
C3087 C3081 1.390 . S
C3087 C3084 1.386 . S
C3088 C3083 1.490 . S
C3088 C3090 1.395 . S
C3088 C3091 1.403 . S
H3089 C3095 0.930 . S
C3090 H3076 0.930 . S
C3090 C3088 1.395 . S
C3090 C3093 1.403 . S
C3091 C3088 1.403 . S
C3091 C3092 1.524 . S
C3091 C3095 1.400 . S
C3092 H3077 0.960 . S
C3092 H3078 0.960 . S
C3092 H3079 0.960 . S
C3092 C3091 1.524 . S
C3093 C3090 1.403 . S
C3093 C3094 1.392 . S
C3093 C3097 1.495 . S
C3094 C3093 1.392 . S
C3094 C3095 1.385 . S
C3094 C3096 1.478 . S
C3095 H3089 0.930 . S
C3095 C3091 1.400 . S
C3095 C3094 1.385 . S
C3096 C3094 1.478 . S
C3096 C3098 1.381 . S
C3096 C3102 1.383 . S
C3097 C3093 1.495 . S
C3097 H3103 0.959 . S
C3097 H3104 0.961 . S
C3097 H3105 0.960 . S
C3098 C3096 1.381 . S
C3098 C3099 1.394 . S
C3098 H3106 0.930 . S
C3099 C3098 1.394 . S
C3099 C3100 1.383 . S
C3099 H3107 0.929 . S
C3100 C3099 1.383 . S
C3100 C3101 1.377 . S
C3101 H3085 0.930 . S
C3101 C3100 1.377 . S
C3101 C3102 1.379 . S
C3102 H3086 0.931 . S
C3102 C3096 1.383 . S
C3102 C3101 1.379 . S
H3103 C3097 0.959 . S
H3104 C3097 0.961 . S
H3105 C3097 0.960 . S
H3106 C3098 0.930 . S
H3107 C3099 0.929 . S
H3108 C3116 0.929 . S
H3109 C3118 0.930 . S
H3110 C3120 0.930 . S
H3111 C3123 0.929 . S
H3112 C3126 0.930 . S
H3113 C3128 0.960 . S
H3114 C3128 0.960 . S
H3115 C3128 0.960 . S
C3116 H3108 0.929 . S
C3116 C3117 1.377 . S
C3116 C3118 1.384 . S
C3117 C3116 1.377 . S
C3117 C3123 1.390 . S
C3118 H3109 0.930 . S
C3118 C3116 1.384 . S
C3118 C3119 1.372 . S
C3119 C3118 1.372 . S
C3119 C3120 1.400 . S
C3119 C3124 1.490 . S
C3120 H3110 0.930 . S
C3120 C3119 1.400 . S
C3120 C3123 1.386 . S
H3121 C3137 0.930 . S
H3122 C3138 0.931 . S
C3123 H3111 0.929 . S
C3123 C3117 1.390 . S
C3123 C3120 1.386 . S
C3124 C3119 1.490 . S
C3124 C3126 1.395 . S
C3124 C3127 1.403 . S
H3125 C3131 0.930 . S
C3126 H3112 0.930 . S
C3126 C3124 1.395 . S
C3126 C3129 1.403 . S
C3127 C3124 1.403 . S
C3127 C3128 1.524 . S
C3127 C3131 1.400 . S
C3128 H3113 0.960 . S
C3128 H3114 0.960 . S
C3128 H3115 0.960 . S
C3128 C3127 1.524 . S
C3129 C3126 1.403 . S
C3129 C3130 1.392 . S
C3129 C3133 1.495 . S
C3130 C3129 1.392 . S
C3130 C3131 1.385 . S
C3130 C3132 1.478 . S
C3131 H3125 0.930 . S
C3131 C3127 1.400 . S
C3131 C3130 1.385 . S
C3132 C3130 1.478 . S
C3132 C3134 1.381 . S
C3132 C3138 1.383 . S
C3133 C3129 1.495 . S
C3133 H3139 0.959 . S
C3133 H3140 0.961 . S
C3133 H3141 0.960 . S
C3134 C3132 1.381 . S
C3134 C3135 1.394 . S
C3134 H3142 0.930 . S
C3135 C3134 1.394 . S
C3135 C3136 1.383 . S
C3135 H3143 0.929 . S
C3136 C3135 1.383 . S
C3136 C3137 1.377 . S
C3137 H3121 0.930 . S
C3137 C3136 1.377 . S
C3137 C3138 1.379 . S
C3138 H3122 0.931 . S
C3138 C3132 1.383 . S
C3138 C3137 1.379 . S
H3139 C3133 0.959 . S
H3140 C3133 0.961 . S
H3141 C3133 0.960 . S
H3142 C3134 0.930 . S
H3143 C3135 0.929 . S
H3144 C3152 0.929 . S
H3145 C3154 0.930 . S
H3146 C3156 0.930 . S
H3147 C3159 0.929 . S
H3148 C3162 0.930 . S
H3149 C3164 0.960 . S
H3150 C3164 0.960 . S
H3151 C3164 0.960 . S
C3152 H3144 0.929 . S
C3152 C3153 1.377 . S
C3152 C3154 1.384 . S
C3153 C3152 1.377 . S
C3153 C3159 1.390 . S
C3154 H3145 0.930 . S
C3154 C3152 1.384 . S
C3154 C3155 1.372 . S
C3155 C3154 1.372 . S
C3155 C3156 1.400 . S
C3155 C3160 1.490 . S
C3156 H3146 0.930 . S
C3156 C3155 1.400 . S
C3156 C3159 1.386 . S
H3157 C3173 0.930 . S
H3158 C3174 0.931 . S
C3159 H3147 0.929 . S
C3159 C3153 1.390 . S
C3159 C3156 1.386 . S
C3160 C3155 1.490 . S
C3160 C3162 1.395 . S
C3160 C3163 1.403 . S
H3161 C3167 0.930 . S
C3162 H3148 0.930 . S
C3162 C3160 1.395 . S
C3162 C3165 1.403 . S
C3163 C3160 1.403 . S
C3163 C3164 1.524 . S
C3163 C3167 1.400 . S
C3164 H3149 0.960 . S
C3164 H3150 0.960 . S
C3164 H3151 0.960 . S
C3164 C3163 1.524 . S
C3165 C3162 1.403 . S
C3165 C3166 1.392 . S
C3165 C3169 1.495 . S
C3166 C3165 1.392 . S
C3166 C3167 1.385 . S
C3166 C3168 1.478 . S
C3167 H3161 0.930 . S
C3167 C3163 1.400 . S
C3167 C3166 1.385 . S
C3168 C3166 1.478 . S
C3168 C3170 1.381 . S
C3168 C3174 1.383 . S
C3169 C3165 1.495 . S
C3169 H3175 0.959 . S
C3169 H3176 0.961 . S
C3169 H3177 0.960 . S
C3170 C3168 1.381 . S
C3170 C3171 1.394 . S
C3170 H3178 0.930 . S
C3171 C3170 1.394 . S
C3171 C3172 1.383 . S
C3171 H3179 0.929 . S
C3172 C3171 1.383 . S
C3172 C3173 1.377 . S
C3173 H3157 0.930 . S
C3173 C3172 1.377 . S
C3173 C3174 1.379 . S
C3174 H3158 0.931 . S
C3174 C3168 1.383 . S
C3174 C3173 1.379 . S
H3175 C3169 0.959 . S
H3176 C3169 0.961 . S
H3177 C3169 0.960 . S
H3178 C3170 0.930 . S
H3179 C3171 0.929 . S
H3180 C3188 0.929 . S
H3181 C3190 0.930 . S
H3182 C3192 0.930 . S
H3183 C3195 0.929 . S
H3184 C3198 0.930 . S
H3185 C3200 0.960 . S
H3186 C3200 0.960 . S
H3187 C3200 0.960 . S
C3188 H3180 0.929 . S
C3188 C3189 1.377 . S
C3188 C3190 1.384 . S
C3189 C3188 1.377 . S
C3189 C3195 1.390 . S
C3190 H3181 0.930 . S
C3190 C3188 1.384 . S
C3190 C3191 1.372 . S
C3191 C3190 1.372 . S
C3191 C3192 1.400 . S
C3191 C3196 1.490 . S
C3192 H3182 0.930 . S
C3192 C3191 1.400 . S
C3192 C3195 1.386 . S
H3193 C3209 0.930 . S
H3194 C3210 0.931 . S
C3195 H3183 0.929 . S
C3195 C3189 1.390 . S
C3195 C3192 1.386 . S
C3196 C3191 1.490 . S
C3196 C3198 1.395 . S
C3196 C3199 1.403 . S
H3197 C3203 0.930 . S
C3198 H3184 0.930 . S
C3198 C3196 1.395 . S
C3198 C3201 1.403 . S
C3199 C3196 1.403 . S
C3199 C3200 1.524 . S
C3199 C3203 1.400 . S
C3200 H3185 0.960 . S
C3200 H3186 0.960 . S
C3200 H3187 0.960 . S
C3200 C3199 1.524 . S
C3201 C3198 1.403 . S
C3201 C3202 1.392 . S
C3201 C3205 1.495 . S
C3202 C3201 1.392 . S
C3202 C3203 1.385 . S
C3202 C3204 1.478 . S
C3203 H3197 0.930 . S
C3203 C3199 1.400 . S
C3203 C3202 1.385 . S
C3204 C3202 1.478 . S
C3204 C3206 1.381 . S
C3204 C3210 1.383 . S
C3205 C3201 1.495 . S
C3205 H3211 0.959 . S
C3205 H3212 0.961 . S
C3205 H3213 0.960 . S
C3206 C3204 1.381 . S
C3206 C3207 1.394 . S
C3206 H3214 0.930 . S
C3207 C3206 1.394 . S
C3207 C3208 1.383 . S
C3207 H3215 0.929 . S
C3208 C3207 1.383 . S
C3208 C3209 1.377 . S
C3209 H3193 0.930 . S
C3209 C3208 1.377 . S
C3209 C3210 1.379 . S
C3210 H3194 0.931 . S
C3210 C3204 1.383 . S
C3210 C3209 1.379 . S
H3211 C3205 0.959 . S
H3212 C3205 0.961 . S
H3213 C3205 0.960 . S
H3214 C3206 0.930 . S
H3215 C3207 0.929 . S
H3216 C3224 0.929 . S
H3217 C3226 0.930 . S
H3218 C3228 0.930 . S
H3219 C3231 0.929 . S
H3220 C3234 0.930 . S
H3221 C3236 0.960 . S
H3222 C3236 0.960 . S
H3223 C3236 0.960 . S
C3224 H3216 0.929 . S
C3224 C3225 1.377 . S
C3224 C3226 1.384 . S
C3225 C3224 1.377 . S
C3225 C3231 1.390 . S
C3226 H3217 0.930 . S
C3226 C3224 1.384 . S
C3226 C3227 1.372 . S
C3227 C3226 1.372 . S
C3227 C3228 1.400 . S
C3227 C3232 1.490 . S
C3228 H3218 0.930 . S
C3228 C3227 1.400 . S
C3228 C3231 1.386 . S
H3229 C3245 0.930 . S
H3230 C3246 0.931 . S
C3231 H3219 0.929 . S
C3231 C3225 1.390 . S
C3231 C3228 1.386 . S
C3232 C3227 1.490 . S
C3232 C3234 1.395 . S
C3232 C3235 1.403 . S
H3233 C3239 0.930 . S
C3234 H3220 0.930 . S
C3234 C3232 1.395 . S
C3234 C3237 1.403 . S
C3235 C3232 1.403 . S
C3235 C3236 1.524 . S
C3235 C3239 1.400 . S
C3236 H3221 0.960 . S
C3236 H3222 0.960 . S
C3236 H3223 0.960 . S
C3236 C3235 1.524 . S
C3237 C3234 1.403 . S
C3237 C3238 1.392 . S
C3237 C3241 1.495 . S
C3238 C3237 1.392 . S
C3238 C3239 1.385 . S
C3238 C3240 1.478 . S
C3239 H3233 0.930 . S
C3239 C3235 1.400 . S
C3239 C3238 1.385 . S
C3240 C3238 1.478 . S
C3240 C3242 1.381 . S
C3240 C3246 1.383 . S
C3241 C3237 1.495 . S
C3241 H3247 0.959 . S
C3241 H3248 0.961 . S
C3241 H3249 0.960 . S
C3242 C3240 1.381 . S
C3242 C3243 1.394 . S
C3242 H3250 0.930 . S
C3243 C3242 1.394 . S
C3243 C3244 1.383 . S
C3243 H3251 0.929 . S
C3244 C3243 1.383 . S
C3244 C3245 1.377 . S
C3245 H3229 0.930 . S
C3245 C3244 1.377 . S
C3245 C3246 1.379 . S
C3246 H3230 0.931 . S
C3246 C3240 1.383 . S
C3246 C3245 1.379 . S
H3247 C3241 0.959 . S
H3248 C3241 0.961 . S
H3249 C3241 0.960 . S
H3250 C3242 0.930 . S
H3251 C3243 0.929 . S
H3252 C3260 0.929 . S
H3253 C3262 0.930 . S
H3254 C3264 0.930 . S
H3255 C3267 0.929 . S
H3256 C3270 0.930 . S
H3257 C3272 0.960 . S
H3258 C3272 0.960 . S
H3259 C3272 0.960 . S
C3260 H3252 0.929 . S
C3260 C3261 1.377 . S
C3260 C3262 1.384 . S
C3261 C3260 1.377 . S
C3261 C3267 1.390 . S
C3262 H3253 0.930 . S
C3262 C3260 1.384 . S
C3262 C3263 1.372 . S
C3263 C3262 1.372 . S
C3263 C3264 1.400 . S
C3263 C3268 1.490 . S
C3264 H3254 0.930 . S
C3264 C3263 1.400 . S
C3264 C3267 1.386 . S
H3265 C3281 0.930 . S
H3266 C3282 0.931 . S
C3267 H3255 0.929 . S
C3267 C3261 1.390 . S
C3267 C3264 1.386 . S
C3268 C3263 1.490 . S
C3268 C3270 1.395 . S
C3268 C3271 1.403 . S
H3269 C3275 0.930 . S
C3270 H3256 0.930 . S
C3270 C3268 1.395 . S
C3270 C3273 1.403 . S
C3271 C3268 1.403 . S
C3271 C3272 1.524 . S
C3271 C3275 1.400 . S
C3272 H3257 0.960 . S
C3272 H3258 0.960 . S
C3272 H3259 0.960 . S
C3272 C3271 1.524 . S
C3273 C3270 1.403 . S
C3273 C3274 1.392 . S
C3273 C3277 1.495 . S
C3274 C3273 1.392 . S
C3274 C3275 1.385 . S
C3274 C3276 1.478 . S
C3275 H3269 0.930 . S
C3275 C3271 1.400 . S
C3275 C3274 1.385 . S
C3276 C3274 1.478 . S
C3276 C3278 1.381 . S
C3276 C3282 1.383 . S
C3277 C3273 1.495 . S
C3277 H3283 0.959 . S
C3277 H3284 0.961 . S
C3277 H3285 0.960 . S
C3278 C3276 1.381 . S
C3278 C3279 1.394 . S
C3278 H3286 0.930 . S
C3279 C3278 1.394 . S
C3279 C3280 1.383 . S
C3279 H3287 0.929 . S
C3280 C3279 1.383 . S
C3280 C3281 1.377 . S
C3281 H3265 0.930 . S
C3281 C3280 1.377 . S
C3281 C3282 1.379 . S
C3282 H3266 0.931 . S
C3282 C3276 1.383 . S
C3282 C3281 1.379 . S
H3283 C3277 0.959 . S
H3284 C3277 0.961 . S
H3285 C3277 0.960 . S
H3286 C3278 0.930 . S
H3287 C3279 0.929 . S
H3288 C3296 0.929 . S
H3289 C3298 0.930 . S
H3290 C3300 0.930 . S
H3291 C3303 0.929 . S
H3292 C3306 0.930 . S
H3293 C3308 0.960 . S
H3294 C3308 0.960 . S
H3295 C3308 0.960 . S
C3296 H3288 0.929 . S
C3296 C3297 1.377 . S
C3296 C3298 1.384 . S
C3297 C3296 1.377 . S
C3297 C3303 1.390 . S
C3298 H3289 0.930 . S
C3298 C3296 1.384 . S
C3298 C3299 1.372 . S
C3299 C3298 1.372 . S
C3299 C3300 1.400 . S
C3299 C3304 1.490 . S
C3300 H3290 0.930 . S
C3300 C3299 1.400 . S
C3300 C3303 1.386 . S
H3301 C3317 0.930 . S
H3302 C3318 0.931 . S
C3303 H3291 0.929 . S
C3303 C3297 1.390 . S
C3303 C3300 1.386 . S
C3304 C3299 1.490 . S
C3304 C3306 1.395 . S
C3304 C3307 1.403 . S
H3305 C3311 0.930 . S
C3306 H3292 0.930 . S
C3306 C3304 1.395 . S
C3306 C3309 1.403 . S
C3307 C3304 1.403 . S
C3307 C3308 1.524 . S
C3307 C3311 1.400 . S
C3308 H3293 0.960 . S
C3308 H3294 0.960 . S
C3308 H3295 0.960 . S
C3308 C3307 1.524 . S
C3309 C3306 1.403 . S
C3309 C3310 1.392 . S
C3309 C3313 1.495 . S
C3310 C3309 1.392 . S
C3310 C3311 1.385 . S
C3310 C3312 1.478 . S
C3311 H3305 0.930 . S
C3311 C3307 1.400 . S
C3311 C3310 1.385 . S
C3312 C3310 1.478 . S
C3312 C3314 1.381 . S
C3312 C3318 1.383 . S
C3313 C3309 1.495 . S
C3313 H3319 0.959 . S
C3313 H3320 0.961 . S
C3313 H3321 0.960 . S
C3314 C3312 1.381 . S
C3314 C3315 1.394 . S
C3314 H3322 0.930 . S
C3315 C3314 1.394 . S
C3315 C3316 1.383 . S
C3315 H3323 0.929 . S
C3316 C3315 1.383 . S
C3316 C3317 1.377 . S
C3317 H3301 0.930 . S
C3317 C3316 1.377 . S
C3317 C3318 1.379 . S
C3318 H3302 0.931 . S
C3318 C3312 1.383 . S
C3318 C3317 1.379 . S
H3319 C3313 0.959 . S
H3320 C3313 0.961 . S
H3321 C3313 0.960 . S
H3322 C3314 0.930 . S
H3323 C3315 0.929 . S
H3324 C3332 0.929 . S
H3325 C3334 0.930 . S
H3326 C3336 0.930 . S
H3327 C3339 0.929 . S
H3328 C3342 0.930 . S
H3329 C3344 0.960 . S
H3330 C3344 0.960 . S
H3331 C3344 0.960 . S
C3332 H3324 0.929 . S
C3332 C3333 1.377 . S
C3332 C3334 1.384 . S
C3333 C3332 1.377 . S
C3333 C3339 1.390 . S
C3334 H3325 0.930 . S
C3334 C3332 1.384 . S
C3334 C3335 1.372 . S
C3335 C3334 1.372 . S
C3335 C3336 1.400 . S
C3335 C3340 1.490 . S
C3336 H3326 0.930 . S
C3336 C3335 1.400 . S
C3336 C3339 1.386 . S
H3337 C3353 0.930 . S
H3338 C3354 0.931 . S
C3339 H3327 0.929 . S
C3339 C3333 1.390 . S
C3339 C3336 1.386 . S
C3340 C3335 1.490 . S
C3340 C3342 1.395 . S
C3340 C3343 1.403 . S
H3341 C3347 0.930 . S
C3342 H3328 0.930 . S
C3342 C3340 1.395 . S
C3342 C3345 1.403 . S
C3343 C3340 1.403 . S
C3343 C3344 1.524 . S
C3343 C3347 1.400 . S
C3344 H3329 0.960 . S
C3344 H3330 0.960 . S
C3344 H3331 0.960 . S
C3344 C3343 1.524 . S
C3345 C3342 1.403 . S
C3345 C3346 1.392 . S
C3345 C3349 1.495 . S
C3346 C3345 1.392 . S
C3346 C3347 1.385 . S
C3346 C3348 1.478 . S
C3347 H3341 0.930 . S
C3347 C3343 1.400 . S
C3347 C3346 1.385 . S
C3348 C3346 1.478 . S
C3348 C3350 1.381 . S
C3348 C3354 1.383 . S
C3349 C3345 1.495 . S
C3349 H3355 0.959 . S
C3349 H3356 0.961 . S
C3349 H3357 0.960 . S
C3350 C3348 1.381 . S
C3350 C3351 1.394 . S
C3350 H3358 0.930 . S
C3351 C3350 1.394 . S
C3351 C3352 1.383 . S
C3351 H3359 0.929 . S
C3352 C3351 1.383 . S
C3352 C3353 1.377 . S
C3353 H3337 0.930 . S
C3353 C3352 1.377 . S
C3353 C3354 1.379 . S
C3354 H3338 0.931 . S
C3354 C3348 1.383 . S
C3354 C3353 1.379 . S
H3355 C3349 0.959 . S
H3356 C3349 0.961 . S
H3357 C3349 0.960 . S
H3358 C3350 0.930 . S
H3359 C3351 0.929 . S
H3360 C3368 0.929 . S
H3361 C3370 0.930 . S
H3362 C3372 0.930 . S
H3363 C3375 0.929 . S
H3364 C3378 0.930 . S
H3365 C3380 0.960 . S
H3366 C3380 0.960 . S
H3367 C3380 0.960 . S
C3368 H3360 0.929 . S
C3368 C3369 1.377 . S
C3368 C3370 1.384 . S
C3369 C3368 1.377 . S
C3369 C3375 1.390 . S
C3370 H3361 0.930 . S
C3370 C3368 1.384 . S
C3370 C3371 1.372 . S
C3371 C3370 1.372 . S
C3371 C3372 1.400 . S
C3371 C3376 1.490 . S
C3372 H3362 0.930 . S
C3372 C3371 1.400 . S
C3372 C3375 1.386 . S
H3373 C3389 0.930 . S
H3374 C3390 0.931 . S
C3375 H3363 0.929 . S
C3375 C3369 1.390 . S
C3375 C3372 1.386 . S
C3376 C3371 1.490 . S
C3376 C3378 1.395 . S
C3376 C3379 1.403 . S
H3377 C3383 0.930 . S
C3378 H3364 0.930 . S
C3378 C3376 1.395 . S
C3378 C3381 1.403 . S
C3379 C3376 1.403 . S
C3379 C3380 1.524 . S
C3379 C3383 1.400 . S
C3380 H3365 0.960 . S
C3380 H3366 0.960 . S
C3380 H3367 0.960 . S
C3380 C3379 1.524 . S
C3381 C3378 1.403 . S
C3381 C3382 1.392 . S
C3381 C3385 1.495 . S
C3382 C3381 1.392 . S
C3382 C3383 1.385 . S
C3382 C3384 1.478 . S
C3383 H3377 0.930 . S
C3383 C3379 1.400 . S
C3383 C3382 1.385 . S
C3384 C3382 1.478 . S
C3384 C3386 1.381 . S
C3384 C3390 1.383 . S
C3385 C3381 1.495 . S
C3385 H3391 0.959 . S
C3385 H3392 0.961 . S
C3385 H3393 0.960 . S
C3386 C3384 1.381 . S
C3386 C3387 1.394 . S
C3386 H3394 0.930 . S
C3387 C3386 1.394 . S
C3387 C3388 1.383 . S
C3387 H3395 0.929 . S
C3388 C3387 1.383 . S
C3388 C3389 1.377 . S
C3389 H3373 0.930 . S
C3389 C3388 1.377 . S
C3389 C3390 1.379 . S
C3390 H3374 0.931 . S
C3390 C3384 1.383 . S
C3390 C3389 1.379 . S
H3391 C3385 0.959 . S
H3392 C3385 0.961 . S
H3393 C3385 0.960 . S
H3394 C3386 0.930 . S
H3395 C3387 0.929 . S
H3396 C3404 0.929 . S
H3397 C3406 0.930 . S
H3398 C3408 0.930 . S
H3399 C3411 0.929 . S
H3400 C3414 0.930 . S
H3401 C3416 0.960 . S
H3402 C3416 0.960 . S
H3403 C3416 0.960 . S
C3404 H3396 0.929 . S
C3404 C3405 1.377 . S
C3404 C3406 1.384 . S
C3405 C3404 1.377 . S
C3405 C3411 1.390 . S
C3406 H3397 0.930 . S
C3406 C3404 1.384 . S
C3406 C3407 1.372 . S
C3407 C3406 1.372 . S
C3407 C3408 1.400 . S
C3407 C3412 1.490 . S
C3408 H3398 0.930 . S
C3408 C3407 1.400 . S
C3408 C3411 1.386 . S
H3409 C3425 0.930 . S
H3410 C3426 0.931 . S
C3411 H3399 0.929 . S
C3411 C3405 1.390 . S
C3411 C3408 1.386 . S
C3412 C3407 1.490 . S
C3412 C3414 1.395 . S
C3412 C3415 1.403 . S
H3413 C3419 0.930 . S
C3414 H3400 0.930 . S
C3414 C3412 1.395 . S
C3414 C3417 1.403 . S
C3415 C3412 1.403 . S
C3415 C3416 1.524 . S
C3415 C3419 1.400 . S
C3416 H3401 0.960 . S
C3416 H3402 0.960 . S
C3416 H3403 0.960 . S
C3416 C3415 1.524 . S
C3417 C3414 1.403 . S
C3417 C3418 1.392 . S
C3417 C3421 1.495 . S
C3418 C3417 1.392 . S
C3418 C3419 1.385 . S
C3418 C3420 1.478 . S
C3419 H3413 0.930 . S
C3419 C3415 1.400 . S
C3419 C3418 1.385 . S
C3420 C3418 1.478 . S
C3420 C3422 1.381 . S
C3420 C3426 1.383 . S
C3421 C3417 1.495 . S
C3421 H3427 0.959 . S
C3421 H3428 0.961 . S
C3421 H3429 0.960 . S
C3422 C3420 1.381 . S
C3422 C3423 1.394 . S
C3422 H3430 0.930 . S
C3423 C3422 1.394 . S
C3423 C3424 1.383 . S
C3423 H3431 0.929 . S
C3424 C3423 1.383 . S
C3424 C3425 1.377 . S
C3425 H3409 0.930 . S
C3425 C3424 1.377 . S
C3425 C3426 1.379 . S
C3426 H3410 0.931 . S
C3426 C3420 1.383 . S
C3426 C3425 1.379 . S
H3427 C3421 0.959 . S
H3428 C3421 0.961 . S
H3429 C3421 0.960 . S
H3430 C3422 0.930 . S
H3431 C3423 0.929 . S
H3432 C3440 0.929 . S
H3433 C3442 0.930 . S
H3434 C3444 0.930 . S
H3435 C3447 0.929 . S
H3436 C3450 0.930 . S
H3437 C3452 0.960 . S
H3438 C3452 0.960 . S
H3439 C3452 0.960 . S
C3440 H3432 0.929 . S
C3440 C3441 1.377 . S
C3440 C3442 1.384 . S
C3441 C3440 1.377 . S
C3441 C3447 1.390 . S
C3442 H3433 0.930 . S
C3442 C3440 1.384 . S
C3442 C3443 1.372 . S
C3443 C3442 1.372 . S
C3443 C3444 1.400 . S
C3443 C3448 1.490 . S
C3444 H3434 0.930 . S
C3444 C3443 1.400 . S
C3444 C3447 1.386 . S
H3445 C3461 0.930 . S
H3446 C3462 0.931 . S
C3447 H3435 0.929 . S
C3447 C3441 1.390 . S
C3447 C3444 1.386 . S
C3448 C3443 1.490 . S
C3448 C3450 1.395 . S
C3448 C3451 1.403 . S
H3449 C3455 0.930 . S
C3450 H3436 0.930 . S
C3450 C3448 1.395 . S
C3450 C3453 1.403 . S
C3451 C3448 1.403 . S
C3451 C3452 1.524 . S
C3451 C3455 1.400 . S
C3452 H3437 0.960 . S
C3452 H3438 0.960 . S
C3452 H3439 0.960 . S
C3452 C3451 1.524 . S
C3453 C3450 1.403 . S
C3453 C3454 1.392 . S
C3453 C3457 1.495 . S
C3454 C3453 1.392 . S
C3454 C3455 1.385 . S
C3454 C3456 1.478 . S
C3455 H3449 0.930 . S
C3455 C3451 1.400 . S
C3455 C3454 1.385 . S
C3456 C3454 1.478 . S
C3456 C3458 1.381 . S
C3456 C3462 1.383 . S
C3457 C3453 1.495 . S
C3457 H3463 0.959 . S
C3457 H3464 0.961 . S
C3457 H3465 0.960 . S
C3458 C3456 1.381 . S
C3458 C3459 1.394 . S
C3458 H3466 0.930 . S
C3459 C3458 1.394 . S
C3459 C3460 1.383 . S
C3459 H3467 0.929 . S
C3460 C3459 1.383 . S
C3460 C3461 1.377 . S
C3461 H3445 0.930 . S
C3461 C3460 1.377 . S
C3461 C3462 1.379 . S
C3462 H3446 0.931 . S
C3462 C3456 1.383 . S
C3462 C3461 1.379 . S
H3463 C3457 0.959 . S
H3464 C3457 0.961 . S
H3465 C3457 0.960 . S
H3466 C3458 0.930 . S
H3467 C3459 0.929 . S
H3468 C3476 0.929 . S
H3469 C3478 0.930 . S
H3470 C3480 0.930 . S
H3471 C3483 0.929 . S
H3472 C3486 0.930 . S
H3473 C3488 0.960 . S
H3474 C3488 0.960 . S
H3475 C3488 0.960 . S
C3476 H3468 0.929 . S
C3476 C3477 1.377 . S
C3476 C3478 1.384 . S
C3477 C3476 1.377 . S
C3477 C3483 1.390 . S
C3478 H3469 0.930 . S
C3478 C3476 1.384 . S
C3478 C3479 1.372 . S
C3479 C3478 1.372 . S
C3479 C3480 1.400 . S
C3479 C3484 1.490 . S
C3480 H3470 0.930 . S
C3480 C3479 1.400 . S
C3480 C3483 1.386 . S
H3481 C3497 0.930 . S
H3482 C3498 0.931 . S
C3483 H3471 0.929 . S
C3483 C3477 1.390 . S
C3483 C3480 1.386 . S
C3484 C3479 1.490 . S
C3484 C3486 1.395 . S
C3484 C3487 1.403 . S
H3485 C3491 0.930 . S
C3486 H3472 0.930 . S
C3486 C3484 1.395 . S
C3486 C3489 1.403 . S
C3487 C3484 1.403 . S
C3487 C3488 1.524 . S
C3487 C3491 1.400 . S
C3488 H3473 0.960 . S
C3488 H3474 0.960 . S
C3488 H3475 0.960 . S
C3488 C3487 1.524 . S
C3489 C3486 1.403 . S
C3489 C3490 1.392 . S
C3489 C3493 1.495 . S
C3490 C3489 1.392 . S
C3490 C3491 1.385 . S
C3490 C3492 1.478 . S
C3491 H3485 0.930 . S
C3491 C3487 1.400 . S
C3491 C3490 1.385 . S
C3492 C3490 1.478 . S
C3492 C3494 1.381 . S
C3492 C3498 1.383 . S
C3493 C3489 1.495 . S
C3493 H3499 0.959 . S
C3493 H3500 0.961 . S
C3493 H3501 0.960 . S
C3494 C3492 1.381 . S
C3494 C3495 1.394 . S
C3494 H3502 0.930 . S
C3495 C3494 1.394 . S
C3495 C3496 1.383 . S
C3495 H3503 0.929 . S
C3496 C3495 1.383 . S
C3496 C3497 1.377 . S
C3497 H3481 0.930 . S
C3497 C3496 1.377 . S
C3497 C3498 1.379 . S
C3498 H3482 0.931 . S
C3498 C3492 1.383 . S
C3498 C3497 1.379 . S
H3499 C3493 0.959 . S
H3500 C3493 0.961 . S
H3501 C3493 0.960 . S
H3502 C3494 0.930 . S
H3503 C3495 0.929 . S
H3504 C3512 0.929 . S
H3505 C3514 0.930 . S
H3506 C3516 0.930 . S
H3507 C3519 0.929 . S
H3508 C3522 0.930 . S
H3509 C3524 0.960 . S
H3510 C3524 0.960 . S
H3511 C3524 0.960 . S
C3512 H3504 0.929 . S
C3512 C3513 1.377 . S
C3512 C3514 1.384 . S
C3513 C3512 1.377 . S
C3513 C3519 1.390 . S
C3514 H3505 0.930 . S
C3514 C3512 1.384 . S
C3514 C3515 1.372 . S
C3515 C3514 1.372 . S
C3515 C3516 1.400 . S
C3515 C3520 1.490 . S
C3516 H3506 0.930 . S
C3516 C3515 1.400 . S
C3516 C3519 1.386 . S
H3517 C3533 0.930 . S
H3518 C3534 0.931 . S
C3519 H3507 0.929 . S
C3519 C3513 1.390 . S
C3519 C3516 1.386 . S
C3520 C3515 1.490 . S
C3520 C3522 1.395 . S
C3520 C3523 1.403 . S
H3521 C3527 0.930 . S
C3522 H3508 0.930 . S
C3522 C3520 1.395 . S
C3522 C3525 1.403 . S
C3523 C3520 1.403 . S
C3523 C3524 1.524 . S
C3523 C3527 1.400 . S
C3524 H3509 0.960 . S
C3524 H3510 0.960 . S
C3524 H3511 0.960 . S
C3524 C3523 1.524 . S
C3525 C3522 1.403 . S
C3525 C3526 1.392 . S
C3525 C3529 1.495 . S
C3526 C3525 1.392 . S
C3526 C3527 1.385 . S
C3526 C3528 1.478 . S
C3527 H3521 0.930 . S
C3527 C3523 1.400 . S
C3527 C3526 1.385 . S
C3528 C3526 1.478 . S
C3528 C3530 1.381 . S
C3528 C3534 1.383 . S
C3529 C3525 1.495 . S
C3529 H3535 0.959 . S
C3529 H3536 0.961 . S
C3529 H3537 0.960 . S
C3530 C3528 1.381 . S
C3530 C3531 1.394 . S
C3530 H3538 0.930 . S
C3531 C3530 1.394 . S
C3531 C3532 1.383 . S
C3531 H3539 0.929 . S
C3532 C3531 1.383 . S
C3532 C3533 1.377 . S
C3533 H3517 0.930 . S
C3533 C3532 1.377 . S
C3533 C3534 1.379 . S
C3534 H3518 0.931 . S
C3534 C3528 1.383 . S
C3534 C3533 1.379 . S
H3535 C3529 0.959 . S
H3536 C3529 0.961 . S
H3537 C3529 0.960 . S
H3538 C3530 0.930 . S
H3539 C3531 0.929 . S
H3540 C3548 0.929 . S
H3541 C3550 0.930 . S
H3542 C3552 0.930 . S
H3543 C3555 0.929 . S
H3544 C3558 0.930 . S
H3545 C3560 0.960 . S
H3546 C3560 0.960 . S
H3547 C3560 0.960 . S
C3548 H3540 0.929 . S
C3548 C3549 1.377 . S
C3548 C3550 1.384 . S
C3549 C3548 1.377 . S
C3549 C3555 1.390 . S
C3550 H3541 0.930 . S
C3550 C3548 1.384 . S
C3550 C3551 1.372 . S
C3551 C3550 1.372 . S
C3551 C3552 1.400 . S
C3551 C3556 1.490 . S
C3552 H3542 0.930 . S
C3552 C3551 1.400 . S
C3552 C3555 1.386 . S
H3553 C3569 0.930 . S
H3554 C3570 0.931 . S
C3555 H3543 0.929 . S
C3555 C3549 1.390 . S
C3555 C3552 1.386 . S
C3556 C3551 1.490 . S
C3556 C3558 1.395 . S
C3556 C3559 1.403 . S
H3557 C3563 0.930 . S
C3558 H3544 0.930 . S
C3558 C3556 1.395 . S
C3558 C3561 1.403 . S
C3559 C3556 1.403 . S
C3559 C3560 1.524 . S
C3559 C3563 1.400 . S
C3560 H3545 0.960 . S
C3560 H3546 0.960 . S
C3560 H3547 0.960 . S
C3560 C3559 1.524 . S
C3561 C3558 1.403 . S
C3561 C3562 1.392 . S
C3561 C3565 1.495 . S
C3562 C3561 1.392 . S
C3562 C3563 1.385 . S
C3562 C3564 1.478 . S
C3563 H3557 0.930 . S
C3563 C3559 1.400 . S
C3563 C3562 1.385 . S
C3564 C3562 1.478 . S
C3564 C3566 1.381 . S
C3564 C3570 1.383 . S
C3565 C3561 1.495 . S
C3565 H3571 0.959 . S
C3565 H3572 0.961 . S
C3565 H3573 0.960 . S
C3566 C3564 1.381 . S
C3566 C3567 1.394 . S
C3566 H3574 0.930 . S
C3567 C3566 1.394 . S
C3567 C3568 1.383 . S
C3567 H3575 0.929 . S
C3568 C3567 1.383 . S
C3568 C3569 1.377 . S
C3569 H3553 0.930 . S
C3569 C3568 1.377 . S
C3569 C3570 1.379 . S
C3570 H3554 0.931 . S
C3570 C3564 1.383 . S
C3570 C3569 1.379 . S
H3571 C3565 0.959 . S
H3572 C3565 0.961 . S
H3573 C3565 0.960 . S
H3574 C3566 0.930 . S
H3575 C3567 0.929 . S
H3576 C3584 0.929 . S
H3577 C3586 0.930 . S
H3578 C3588 0.930 . S
H3579 C3591 0.929 . S
H3580 C3594 0.930 . S
H3581 C3596 0.960 . S
H3582 C3596 0.960 . S
H3583 C3596 0.960 . S
C3584 H3576 0.929 . S
C3584 C3585 1.377 . S
C3584 C3586 1.384 . S
C3585 C3584 1.377 . S
C3585 C3591 1.390 . S
C3586 H3577 0.930 . S
C3586 C3584 1.384 . S
C3586 C3587 1.372 . S
C3587 C3586 1.372 . S
C3587 C3588 1.400 . S
C3587 C3592 1.490 . S
C3588 H3578 0.930 . S
C3588 C3587 1.400 . S
C3588 C3591 1.386 . S
H3589 C3605 0.930 . S
H3590 C3606 0.931 . S
C3591 H3579 0.929 . S
C3591 C3585 1.390 . S
C3591 C3588 1.386 . S
C3592 C3587 1.490 . S
C3592 C3594 1.395 . S
C3592 C3595 1.403 . S
H3593 C3599 0.930 . S
C3594 H3580 0.930 . S
C3594 C3592 1.395 . S
C3594 C3597 1.403 . S
C3595 C3592 1.403 . S
C3595 C3596 1.524 . S
C3595 C3599 1.400 . S
C3596 H3581 0.960 . S
C3596 H3582 0.960 . S
C3596 H3583 0.960 . S
C3596 C3595 1.524 . S
C3597 C3594 1.403 . S
C3597 C3598 1.392 . S
C3597 C3601 1.495 . S
C3598 C3597 1.392 . S
C3598 C3599 1.385 . S
C3598 C3600 1.478 . S
C3599 H3593 0.930 . S
C3599 C3595 1.400 . S
C3599 C3598 1.385 . S
C3600 C3598 1.478 . S
C3600 C3602 1.381 . S
C3600 C3606 1.383 . S
C3601 C3597 1.495 . S
C3601 H3607 0.959 . S
C3601 H3608 0.961 . S
C3601 H3609 0.960 . S
C3602 C3600 1.381 . S
C3602 C3603 1.394 . S
C3602 H3610 0.930 . S
C3603 C3602 1.394 . S
C3603 C3604 1.383 . S
C3603 H3611 0.929 . S
C3604 C3603 1.383 . S
C3604 C3605 1.377 . S
C3605 H3589 0.930 . S
C3605 C3604 1.377 . S
C3605 C3606 1.379 . S
C3606 H3590 0.931 . S
C3606 C3600 1.383 . S
C3606 C3605 1.379 . S
H3607 C3601 0.959 . S
H3608 C3601 0.961 . S
H3609 C3601 0.960 . S
H3610 C3602 0.930 . S
H3611 C3603 0.929 . S
H3612 C3620 0.929 . S
H3613 C3622 0.930 . S
H3614 C3624 0.930 . S
H3615 C3627 0.929 . S
H3616 C3630 0.930 . S
H3617 C3632 0.960 . S
H3618 C3632 0.960 . S
H3619 C3632 0.960 . S
C3620 H3612 0.929 . S
C3620 C3621 1.377 . S
C3620 C3622 1.384 . S
C3621 C3620 1.377 . S
C3621 C3627 1.390 . S
C3622 H3613 0.930 . S
C3622 C3620 1.384 . S
C3622 C3623 1.372 . S
C3623 C3622 1.372 . S
C3623 C3624 1.400 . S
C3623 C3628 1.490 . S
C3624 H3614 0.930 . S
C3624 C3623 1.400 . S
C3624 C3627 1.386 . S
H3625 C3641 0.930 . S
H3626 C3642 0.931 . S
C3627 H3615 0.929 . S
C3627 C3621 1.390 . S
C3627 C3624 1.386 . S
C3628 C3623 1.490 . S
C3628 C3630 1.395 . S
C3628 C3631 1.403 . S
H3629 C3635 0.930 . S
C3630 H3616 0.930 . S
C3630 C3628 1.395 . S
C3630 C3633 1.403 . S
C3631 C3628 1.403 . S
C3631 C3632 1.524 . S
C3631 C3635 1.400 . S
C3632 H3617 0.960 . S
C3632 H3618 0.960 . S
C3632 H3619 0.960 . S
C3632 C3631 1.524 . S
C3633 C3630 1.403 . S
C3633 C3634 1.392 . S
C3633 C3637 1.495 . S
C3634 C3633 1.392 . S
C3634 C3635 1.385 . S
C3634 C3636 1.478 . S
C3635 H3629 0.930 . S
C3635 C3631 1.400 . S
C3635 C3634 1.385 . S
C3636 C3634 1.478 . S
C3636 C3638 1.381 . S
C3636 C3642 1.383 . S
C3637 C3633 1.495 . S
C3637 H3643 0.959 . S
C3637 H3644 0.961 . S
C3637 H3645 0.960 . S
C3638 C3636 1.381 . S
C3638 C3639 1.394 . S
C3638 H3646 0.930 . S
C3639 C3638 1.394 . S
C3639 C3640 1.383 . S
C3639 H3647 0.929 . S
C3640 C3639 1.383 . S
C3640 C3641 1.377 . S
C3641 H3625 0.930 . S
C3641 C3640 1.377 . S
C3641 C3642 1.379 . S
C3642 H3626 0.931 . S
C3642 C3636 1.383 . S
C3642 C3641 1.379 . S
H3643 C3637 0.959 . S
H3644 C3637 0.961 . S
H3645 C3637 0.960 . S
H3646 C3638 0.930 . S
H3647 C3639 0.929 . S
H3648 C3656 0.929 . S
H3649 C3658 0.930 . S
H3650 C3660 0.930 . S
H3651 C3663 0.929 . S
H3652 C3666 0.930 . S
H3653 C3668 0.960 . S
H3654 C3668 0.960 . S
H3655 C3668 0.960 . S
C3656 H3648 0.929 . S
C3656 C3657 1.377 . S
C3656 C3658 1.384 . S
C3657 C3656 1.377 . S
C3657 C3663 1.390 . S
C3658 H3649 0.930 . S
C3658 C3656 1.384 . S
C3658 C3659 1.372 . S
C3659 C3658 1.372 . S
C3659 C3660 1.400 . S
C3659 C3664 1.490 . S
C3660 H3650 0.930 . S
C3660 C3659 1.400 . S
C3660 C3663 1.386 . S
H3661 C3677 0.930 . S
H3662 C3678 0.931 . S
C3663 H3651 0.929 . S
C3663 C3657 1.390 . S
C3663 C3660 1.386 . S
C3664 C3659 1.490 . S
C3664 C3666 1.395 . S
C3664 C3667 1.403 . S
H3665 C3671 0.930 . S
C3666 H3652 0.930 . S
C3666 C3664 1.395 . S
C3666 C3669 1.403 . S
C3667 C3664 1.403 . S
C3667 C3668 1.524 . S
C3667 C3671 1.400 . S
C3668 H3653 0.960 . S
C3668 H3654 0.960 . S
C3668 H3655 0.960 . S
C3668 C3667 1.524 . S
C3669 C3666 1.403 . S
C3669 C3670 1.392 . S
C3669 C3673 1.495 . S
C3670 C3669 1.392 . S
C3670 C3671 1.385 . S
C3670 C3672 1.478 . S
C3671 H3665 0.930 . S
C3671 C3667 1.400 . S
C3671 C3670 1.385 . S
C3672 C3670 1.478 . S
C3672 C3674 1.381 . S
C3672 C3678 1.383 . S
C3673 C3669 1.495 . S
C3673 H3679 0.959 . S
C3673 H3680 0.961 . S
C3673 H3681 0.960 . S
C3674 C3672 1.381 . S
C3674 C3675 1.394 . S
C3674 H3682 0.930 . S
C3675 C3674 1.394 . S
C3675 C3676 1.383 . S
C3675 H3683 0.929 . S
C3676 C3675 1.383 . S
C3676 C3677 1.377 . S
C3677 H3661 0.930 . S
C3677 C3676 1.377 . S
C3677 C3678 1.379 . S
C3678 H3662 0.931 . S
C3678 C3672 1.383 . S
C3678 C3677 1.379 . S
H3679 C3673 0.959 . S
H3680 C3673 0.961 . S
H3681 C3673 0.960 . S
H3682 C3674 0.930 . S
H3683 C3675 0.929 . S
H3684 C3692 0.929 . S
H3685 C3694 0.930 . S
H3686 C3696 0.930 . S
H3687 C3699 0.929 . S
H3688 C3702 0.930 . S
H3689 C3704 0.960 . S
H3690 C3704 0.960 . S
H3691 C3704 0.960 . S
C3692 H3684 0.929 . S
C3692 C3693 1.377 . S
C3692 C3694 1.384 . S
C3693 C3692 1.377 . S
C3693 C3699 1.390 . S
C3694 H3685 0.930 . S
C3694 C3692 1.384 . S
C3694 C3695 1.372 . S
C3695 C3694 1.372 . S
C3695 C3696 1.400 . S
C3695 C3700 1.490 . S
C3696 H3686 0.930 . S
C3696 C3695 1.400 . S
C3696 C3699 1.386 . S
H3697 C3713 0.930 . S
H3698 C3714 0.931 . S
C3699 H3687 0.929 . S
C3699 C3693 1.390 . S
C3699 C3696 1.386 . S
C3700 C3695 1.490 . S
C3700 C3702 1.395 . S
C3700 C3703 1.403 . S
H3701 C3707 0.930 . S
C3702 H3688 0.930 . S
C3702 C3700 1.395 . S
C3702 C3705 1.403 . S
C3703 C3700 1.403 . S
C3703 C3704 1.524 . S
C3703 C3707 1.400 . S
C3704 H3689 0.960 . S
C3704 H3690 0.960 . S
C3704 H3691 0.960 . S
C3704 C3703 1.524 . S
C3705 C3702 1.403 . S
C3705 C3706 1.392 . S
C3705 C3709 1.495 . S
C3706 C3705 1.392 . S
C3706 C3707 1.385 . S
C3706 C3708 1.478 . S
C3707 H3701 0.930 . S
C3707 C3703 1.400 . S
C3707 C3706 1.385 . S
C3708 C3706 1.478 . S
C3708 C3710 1.381 . S
C3708 C3714 1.383 . S
C3709 C3705 1.495 . S
C3709 H3715 0.959 . S
C3709 H3716 0.961 . S
C3709 H3717 0.960 . S
C3710 C3708 1.381 . S
C3710 C3711 1.394 . S
C3710 H3718 0.930 . S
C3711 C3710 1.394 . S
C3711 C3712 1.383 . S
C3711 H3719 0.929 . S
C3712 C3711 1.383 . S
C3712 C3713 1.377 . S
C3713 H3697 0.930 . S
C3713 C3712 1.377 . S
C3713 C3714 1.379 . S
C3714 H3698 0.931 . S
C3714 C3708 1.383 . S
C3714 C3713 1.379 . S
H3715 C3709 0.959 . S
H3716 C3709 0.961 . S
H3717 C3709 0.960 . S
H3718 C3710 0.930 . S
H3719 C3711 0.929 . S
H3720 C3728 0.929 . S
H3721 C3730 0.930 . S
H3722 C3732 0.930 . S
H3723 C3735 0.929 . S
H3724 C3738 0.930 . S
H3725 C3740 0.960 . S
H3726 C3740 0.960 . S
H3727 C3740 0.960 . S
C3728 H3720 0.929 . S
C3728 C3729 1.377 . S
C3728 C3730 1.384 . S
C3729 C3728 1.377 . S
C3729 C3735 1.390 . S
C3730 H3721 0.930 . S
C3730 C3728 1.384 . S
C3730 C3731 1.372 . S
C3731 C3730 1.372 . S
C3731 C3732 1.400 . S
C3731 C3736 1.490 . S
C3732 H3722 0.930 . S
C3732 C3731 1.400 . S
C3732 C3735 1.386 . S
H3733 C3749 0.930 . S
H3734 C3750 0.931 . S
C3735 H3723 0.929 . S
C3735 C3729 1.390 . S
C3735 C3732 1.386 . S
C3736 C3731 1.490 . S
C3736 C3738 1.395 . S
C3736 C3739 1.403 . S
H3737 C3743 0.930 . S
C3738 H3724 0.930 . S
C3738 C3736 1.395 . S
C3738 C3741 1.403 . S
C3739 C3736 1.403 . S
C3739 C3740 1.524 . S
C3739 C3743 1.400 . S
C3740 H3725 0.960 . S
C3740 H3726 0.960 . S
C3740 H3727 0.960 . S
C3740 C3739 1.524 . S
C3741 C3738 1.403 . S
C3741 C3742 1.392 . S
C3741 C3745 1.495 . S
C3742 C3741 1.392 . S
C3742 C3743 1.385 . S
C3742 C3744 1.478 . S
C3743 H3737 0.930 . S
C3743 C3739 1.400 . S
C3743 C3742 1.385 . S
C3744 C3742 1.478 . S
C3744 C3746 1.381 . S
C3744 C3750 1.383 . S
C3745 C3741 1.495 . S
C3745 H3751 0.959 . S
C3745 H3752 0.961 . S
C3745 H3753 0.960 . S
C3746 C3744 1.381 . S
C3746 C3747 1.394 . S
C3746 H3754 0.930 . S
C3747 C3746 1.394 . S
C3747 C3748 1.383 . S
C3747 H3755 0.929 . S
C3748 C3747 1.383 . S
C3748 C3749 1.377 . S
C3749 H3733 0.930 . S
C3749 C3748 1.377 . S
C3749 C3750 1.379 . S
C3750 H3734 0.931 . S
C3750 C3744 1.383 . S
C3750 C3749 1.379 . S
H3751 C3745 0.959 . S
H3752 C3745 0.961 . S
H3753 C3745 0.960 . S
H3754 C3746 0.930 . S
H3755 C3747 0.929 . S
H3756 C3764 0.929 . S
H3757 C3766 0.930 . S
H3758 C3768 0.930 . S
H3759 C3771 0.929 . S
H3760 C3774 0.930 . S
H3761 C3776 0.960 . S
H3762 C3776 0.960 . S
H3763 C3776 0.960 . S
C3764 H3756 0.929 . S
C3764 C3765 1.377 . S
C3764 C3766 1.384 . S
C3765 C3764 1.377 . S
C3765 C3771 1.390 . S
C3766 H3757 0.930 . S
C3766 C3764 1.384 . S
C3766 C3767 1.372 . S
C3767 C3766 1.372 . S
C3767 C3768 1.400 . S
C3767 C3772 1.490 . S
C3768 H3758 0.930 . S
C3768 C3767 1.400 . S
C3768 C3771 1.386 . S
H3769 C3785 0.930 . S
H3770 C3786 0.931 . S
C3771 H3759 0.929 . S
C3771 C3765 1.390 . S
C3771 C3768 1.386 . S
C3772 C3767 1.490 . S
C3772 C3774 1.395 . S
C3772 C3775 1.403 . S
H3773 C3779 0.930 . S
C3774 H3760 0.930 . S
C3774 C3772 1.395 . S
C3774 C3777 1.403 . S
C3775 C3772 1.403 . S
C3775 C3776 1.524 . S
C3775 C3779 1.400 . S
C3776 H3761 0.960 . S
C3776 H3762 0.960 . S
C3776 H3763 0.960 . S
C3776 C3775 1.524 . S
C3777 C3774 1.403 . S
C3777 C3778 1.392 . S
C3777 C3781 1.495 . S
C3778 C3777 1.392 . S
C3778 C3779 1.385 . S
C3778 C3780 1.478 . S
C3779 H3773 0.930 . S
C3779 C3775 1.400 . S
C3779 C3778 1.385 . S
C3780 C3778 1.478 . S
C3780 C3782 1.381 . S
C3780 C3786 1.383 . S
C3781 C3777 1.495 . S
C3781 H3787 0.959 . S
C3781 H3788 0.961 . S
C3781 H3789 0.960 . S
C3782 C3780 1.381 . S
C3782 C3783 1.394 . S
C3782 H3790 0.930 . S
C3783 C3782 1.394 . S
C3783 C3784 1.383 . S
C3783 H3791 0.929 . S
C3784 C3783 1.383 . S
C3784 C3785 1.377 . S
C3785 H3769 0.930 . S
C3785 C3784 1.377 . S
C3785 C3786 1.379 . S
C3786 H3770 0.931 . S
C3786 C3780 1.383 . S
C3786 C3785 1.379 . S
H3787 C3781 0.959 . S
H3788 C3781 0.961 . S
H3789 C3781 0.960 . S
H3790 C3782 0.930 . S
H3791 C3783 0.929 . S
H3792 C3800 0.929 . S
H3793 C3802 0.930 . S
H3794 C3804 0.930 . S
H3795 C3807 0.929 . S
H3796 C3810 0.930 . S
H3797 C3812 0.960 . S
H3798 C3812 0.960 . S
H3799 C3812 0.960 . S
C3800 H3792 0.929 . S
C3800 C3801 1.377 . S
C3800 C3802 1.384 . S
C3801 C3800 1.377 . S
C3801 C3807 1.390 . S
C3802 H3793 0.930 . S
C3802 C3800 1.384 . S
C3802 C3803 1.372 . S
C3803 C3802 1.372 . S
C3803 C3804 1.400 . S
C3803 C3808 1.490 . S
C3804 H3794 0.930 . S
C3804 C3803 1.400 . S
C3804 C3807 1.386 . S
H3805 C3821 0.930 . S
H3806 C3822 0.931 . S
C3807 H3795 0.929 . S
C3807 C3801 1.390 . S
C3807 C3804 1.386 . S
C3808 C3803 1.490 . S
C3808 C3810 1.395 . S
C3808 C3811 1.403 . S
H3809 C3815 0.930 . S
C3810 H3796 0.930 . S
C3810 C3808 1.395 . S
C3810 C3813 1.403 . S
C3811 C3808 1.403 . S
C3811 C3812 1.524 . S
C3811 C3815 1.400 . S
C3812 H3797 0.960 . S
C3812 H3798 0.960 . S
C3812 H3799 0.960 . S
C3812 C3811 1.524 . S
C3813 C3810 1.403 . S
C3813 C3814 1.392 . S
C3813 C3817 1.495 . S
C3814 C3813 1.392 . S
C3814 C3815 1.385 . S
C3814 C3816 1.478 . S
C3815 H3809 0.930 . S
C3815 C3811 1.400 . S
C3815 C3814 1.385 . S
C3816 C3814 1.478 . S
C3816 C3818 1.381 . S
C3816 C3822 1.383 . S
C3817 C3813 1.495 . S
C3817 H3823 0.959 . S
C3817 H3824 0.961 . S
C3817 H3825 0.960 . S
C3818 C3816 1.381 . S
C3818 C3819 1.394 . S
C3818 H3826 0.930 . S
C3819 C3818 1.394 . S
C3819 C3820 1.383 . S
C3819 H3827 0.929 . S
C3820 C3819 1.383 . S
C3820 C3821 1.377 . S
C3821 H3805 0.930 . S
C3821 C3820 1.377 . S
C3821 C3822 1.379 . S
C3822 H3806 0.931 . S
C3822 C3816 1.383 . S
C3822 C3821 1.379 . S
H3823 C3817 0.959 . S
H3824 C3817 0.961 . S
H3825 C3817 0.960 . S
H3826 C3818 0.930 . S
H3827 C3819 0.929 . S
H3828 C3836 0.929 . S
H3829 C3838 0.930 . S
H3830 C3840 0.930 . S
H3831 C3843 0.929 . S
H3832 C3846 0.930 . S
H3833 C3848 0.960 . S
H3834 C3848 0.960 . S
H3835 C3848 0.960 . S
C3836 H3828 0.929 . S
C3836 C3837 1.377 . S
C3836 C3838 1.384 . S
C3837 C3836 1.377 . S
C3837 C3843 1.390 . S
C3838 H3829 0.930 . S
C3838 C3836 1.384 . S
C3838 C3839 1.372 . S
C3839 C3838 1.372 . S
C3839 C3840 1.400 . S
C3839 C3844 1.490 . S
C3840 H3830 0.930 . S
C3840 C3839 1.400 . S
C3840 C3843 1.386 . S
H3841 C3857 0.930 . S
H3842 C3858 0.931 . S
C3843 H3831 0.929 . S
C3843 C3837 1.390 . S
C3843 C3840 1.386 . S
C3844 C3839 1.490 . S
C3844 C3846 1.395 . S
C3844 C3847 1.403 . S
H3845 C3851 0.930 . S
C3846 H3832 0.930 . S
C3846 C3844 1.395 . S
C3846 C3849 1.403 . S
C3847 C3844 1.403 . S
C3847 C3848 1.524 . S
C3847 C3851 1.400 . S
C3848 H3833 0.960 . S
C3848 H3834 0.960 . S
C3848 H3835 0.960 . S
C3848 C3847 1.524 . S
C3849 C3846 1.403 . S
C3849 C3850 1.392 . S
C3849 C3853 1.495 . S
C3850 C3849 1.392 . S
C3850 C3851 1.385 . S
C3850 C3852 1.478 . S
C3851 H3845 0.930 . S
C3851 C3847 1.400 . S
C3851 C3850 1.385 . S
C3852 C3850 1.478 . S
C3852 C3854 1.381 . S
C3852 C3858 1.383 . S
C3853 C3849 1.495 . S
C3853 H3859 0.959 . S
C3853 H3860 0.961 . S
C3853 H3861 0.960 . S
C3854 C3852 1.381 . S
C3854 C3855 1.394 . S
C3854 H3862 0.930 . S
C3855 C3854 1.394 . S
C3855 C3856 1.383 . S
C3855 H3863 0.929 . S
C3856 C3855 1.383 . S
C3856 C3857 1.377 . S
C3857 H3841 0.930 . S
C3857 C3856 1.377 . S
C3857 C3858 1.379 . S
C3858 H3842 0.931 . S
C3858 C3852 1.383 . S
C3858 C3857 1.379 . S
H3859 C3853 0.959 . S
H3860 C3853 0.961 . S
H3861 C3853 0.960 . S
H3862 C3854 0.930 . S
H3863 C3855 0.929 . S
H3864 C3872 0.929 . S
H3865 C3874 0.930 . S
H3866 C3876 0.930 . S
H3867 C3879 0.929 . S
H3868 C3882 0.930 . S
H3869 C3884 0.960 . S
H3870 C3884 0.960 . S
H3871 C3884 0.960 . S
C3872 H3864 0.929 . S
C3872 C3873 1.377 . S
C3872 C3874 1.384 . S
C3873 C3872 1.377 . S
C3873 C3879 1.390 . S
C3874 H3865 0.930 . S
C3874 C3872 1.384 . S
C3874 C3875 1.372 . S
C3875 C3874 1.372 . S
C3875 C3876 1.400 . S
C3875 C3880 1.490 . S
C3876 H3866 0.930 . S
C3876 C3875 1.400 . S
C3876 C3879 1.386 . S
H3877 C3893 0.930 . S
H3878 C3894 0.931 . S
C3879 H3867 0.929 . S
C3879 C3873 1.390 . S
C3879 C3876 1.386 . S
C3880 C3875 1.490 . S
C3880 C3882 1.395 . S
C3880 C3883 1.403 . S
H3881 C3887 0.930 . S
C3882 H3868 0.930 . S
C3882 C3880 1.395 . S
C3882 C3885 1.403 . S
C3883 C3880 1.403 . S
C3883 C3884 1.524 . S
C3883 C3887 1.400 . S
C3884 H3869 0.960 . S
C3884 H3870 0.960 . S
C3884 H3871 0.960 . S
C3884 C3883 1.524 . S
C3885 C3882 1.403 . S
C3885 C3886 1.392 . S
C3885 C3889 1.495 . S
C3886 C3885 1.392 . S
C3886 C3887 1.385 . S
C3886 C3888 1.478 . S
C3887 H3881 0.930 . S
C3887 C3883 1.400 . S
C3887 C3886 1.385 . S
C3888 C3886 1.478 . S
C3888 C3890 1.381 . S
C3888 C3894 1.383 . S
C3889 C3885 1.495 . S
C3889 H3895 0.959 . S
C3889 H3896 0.961 . S
C3889 H3897 0.960 . S
C3890 C3888 1.381 . S
C3890 C3891 1.394 . S
C3890 H3898 0.930 . S
C3891 C3890 1.394 . S
C3891 C3892 1.383 . S
C3891 H3899 0.929 . S
C3892 C3891 1.383 . S
C3892 C3893 1.377 . S
C3893 H3877 0.930 . S
C3893 C3892 1.377 . S
C3893 C3894 1.379 . S
C3894 H3878 0.931 . S
C3894 C3888 1.383 . S
C3894 C3893 1.379 . S
H3895 C3889 0.959 . S
H3896 C3889 0.961 . S
H3897 C3889 0.960 . S
H3898 C3890 0.930 . S
H3899 C3891 0.929 . S
H3900 C3908 0.929 . S
H3901 C3910 0.930 . S
H3902 C3912 0.930 . S
H3903 C3915 0.929 . S
H3904 C3918 0.930 . S
H3905 C3920 0.960 . S
H3906 C3920 0.960 . S
H3907 C3920 0.960 . S
C3908 H3900 0.929 . S
C3908 C3909 1.377 . S
C3908 C3910 1.384 . S
C3909 C3908 1.377 . S
C3909 C3915 1.390 . S
C3910 H3901 0.930 . S
C3910 C3908 1.384 . S
C3910 C3911 1.372 . S
C3911 C3910 1.372 . S
C3911 C3912 1.400 . S
C3911 C3916 1.490 . S
C3912 H3902 0.930 . S
C3912 C3911 1.400 . S
C3912 C3915 1.386 . S
H3913 C3929 0.930 . S
H3914 C3930 0.931 . S
C3915 H3903 0.929 . S
C3915 C3909 1.390 . S
C3915 C3912 1.386 . S
C3916 C3911 1.490 . S
C3916 C3918 1.395 . S
C3916 C3919 1.403 . S
H3917 C3923 0.930 . S
C3918 H3904 0.930 . S
C3918 C3916 1.395 . S
C3918 C3921 1.403 . S
C3919 C3916 1.403 . S
C3919 C3920 1.524 . S
C3919 C3923 1.400 . S
C3920 H3905 0.960 . S
C3920 H3906 0.960 . S
C3920 H3907 0.960 . S
C3920 C3919 1.524 . S
C3921 C3918 1.403 . S
C3921 C3922 1.392 . S
C3921 C3925 1.495 . S
C3922 C3921 1.392 . S
C3922 C3923 1.385 . S
C3922 C3924 1.478 . S
C3923 H3917 0.930 . S
C3923 C3919 1.400 . S
C3923 C3922 1.385 . S
C3924 C3922 1.478 . S
C3924 C3926 1.381 . S
C3924 C3930 1.383 . S
C3925 C3921 1.495 . S
C3925 H3931 0.959 . S
C3925 H3932 0.961 . S
C3925 H3933 0.960 . S
C3926 C3924 1.381 . S
C3926 C3927 1.394 . S
C3926 H3934 0.930 . S
C3927 C3926 1.394 . S
C3927 C3928 1.383 . S
C3927 H3935 0.929 . S
C3928 C3927 1.383 . S
C3928 C3929 1.377 . S
C3929 H3913 0.930 . S
C3929 C3928 1.377 . S
C3929 C3930 1.379 . S
C3930 H3914 0.931 . S
C3930 C3924 1.383 . S
C3930 C3929 1.379 . S
H3931 C3925 0.959 . S
H3932 C3925 0.961 . S
H3933 C3925 0.960 . S
H3934 C3926 0.930 . S
H3935 C3927 0.929 . S
H3936 C3944 0.929 . S
H3937 C3946 0.930 . S
H3938 C3948 0.930 . S
H3939 C3951 0.929 . S
H3940 C3954 0.930 . S
H3941 C3956 0.960 . S
H3942 C3956 0.960 . S
H3943 C3956 0.960 . S
C3944 H3936 0.929 . S
C3944 C3945 1.377 . S
C3944 C3946 1.384 . S
C3945 C3944 1.377 . S
C3945 C3951 1.390 . S
C3946 H3937 0.930 . S
C3946 C3944 1.384 . S
C3946 C3947 1.372 . S
C3947 C3946 1.372 . S
C3947 C3948 1.400 . S
C3947 C3952 1.490 . S
C3948 H3938 0.930 . S
C3948 C3947 1.400 . S
C3948 C3951 1.386 . S
H3949 C3965 0.930 . S
H3950 C3966 0.931 . S
C3951 H3939 0.929 . S
C3951 C3945 1.390 . S
C3951 C3948 1.386 . S
C3952 C3947 1.490 . S
C3952 C3954 1.395 . S
C3952 C3955 1.403 . S
H3953 C3959 0.930 . S
C3954 H3940 0.930 . S
C3954 C3952 1.395 . S
C3954 C3957 1.403 . S
C3955 C3952 1.403 . S
C3955 C3956 1.524 . S
C3955 C3959 1.400 . S
C3956 H3941 0.960 . S
C3956 H3942 0.960 . S
C3956 H3943 0.960 . S
C3956 C3955 1.524 . S
C3957 C3954 1.403 . S
C3957 C3958 1.392 . S
C3957 C3961 1.495 . S
C3958 C3957 1.392 . S
C3958 C3959 1.385 . S
C3958 C3960 1.478 . S
C3959 H3953 0.930 . S
C3959 C3955 1.400 . S
C3959 C3958 1.385 . S
C3960 C3958 1.478 . S
C3960 C3962 1.381 . S
C3960 C3966 1.383 . S
C3961 C3957 1.495 . S
C3961 H3967 0.959 . S
C3961 H3968 0.961 . S
C3961 H3969 0.960 . S
C3962 C3960 1.381 . S
C3962 C3963 1.394 . S
C3962 H3970 0.930 . S
C3963 C3962 1.394 . S
C3963 C3964 1.383 . S
C3963 H3971 0.929 . S
C3964 C3963 1.383 . S
C3964 C3965 1.377 . S
C3965 H3949 0.930 . S
C3965 C3964 1.377 . S
C3965 C3966 1.379 . S
C3966 H3950 0.931 . S
C3966 C3960 1.383 . S
C3966 C3965 1.379 . S
H3967 C3961 0.959 . S
H3968 C3961 0.961 . S
H3969 C3961 0.960 . S
H3970 C3962 0.930 . S
H3971 C3963 0.929 . S
H3972 C3980 0.929 . S
H3973 C3982 0.930 . S
H3974 C3984 0.930 . S
H3975 C3987 0.929 . S
H3976 C3990 0.930 . S
H3977 C3992 0.960 . S
H3978 C3992 0.960 . S
H3979 C3992 0.960 . S
C3980 H3972 0.929 . S
C3980 C3981 1.377 . S
C3980 C3982 1.384 . S
C3981 C3980 1.377 . S
C3981 C3987 1.390 . S
C3982 H3973 0.930 . S
C3982 C3980 1.384 . S
C3982 C3983 1.372 . S
C3983 C3982 1.372 . S
C3983 C3984 1.400 . S
C3983 C3988 1.490 . S
C3984 H3974 0.930 . S
C3984 C3983 1.400 . S
C3984 C3987 1.386 . S
H3985 C4001 0.930 . S
H3986 C4002 0.931 . S
C3987 H3975 0.929 . S
C3987 C3981 1.390 . S
C3987 C3984 1.386 . S
C3988 C3983 1.490 . S
C3988 C3990 1.395 . S
C3988 C3991 1.403 . S
H3989 C3995 0.930 . S
C3990 H3976 0.930 . S
C3990 C3988 1.395 . S
C3990 C3993 1.403 . S
C3991 C3988 1.403 . S
C3991 C3992 1.524 . S
C3991 C3995 1.400 . S
C3992 H3977 0.960 . S
C3992 H3978 0.960 . S
C3992 H3979 0.960 . S
C3992 C3991 1.524 . S
C3993 C3990 1.403 . S
C3993 C3994 1.392 . S
C3993 C3997 1.495 . S
C3994 C3993 1.392 . S
C3994 C3995 1.385 . S
C3994 C3996 1.478 . S
C3995 H3989 0.930 . S
C3995 C3991 1.400 . S
C3995 C3994 1.385 . S
C3996 C3994 1.478 . S
C3996 C3998 1.381 . S
C3996 C4002 1.383 . S
C3997 C3993 1.495 . S
C3997 H4003 0.959 . S
C3997 H4004 0.961 . S
C3997 H4005 0.960 . S
C3998 C3996 1.381 . S
C3998 C3999 1.394 . S
C3998 H4006 0.930 . S
C3999 C3998 1.394 . S
C3999 C4000 1.383 . S
C3999 H4007 0.929 . S
C4000 C3999 1.383 . S
C4000 C4001 1.377 . S
C4001 H3985 0.930 . S
C4001 C4000 1.377 . S
C4001 C4002 1.379 . S
C4002 H3986 0.931 . S
C4002 C3996 1.383 . S
C4002 C4001 1.379 . S
H4003 C3997 0.959 . S
H4004 C3997 0.961 . S
H4005 C3997 0.960 . S
H4006 C3998 0.930 . S
H4007 C3999 0.929 . S
H4008 C4016 0.929 . S
H4009 C4018 0.930 . S
H4010 C4020 0.930 . S
H4011 C4023 0.929 . S
H4012 C4026 0.930 . S
H4013 C4028 0.960 . S
H4014 C4028 0.960 . S
H4015 C4028 0.960 . S
C4016 H4008 0.929 . S
C4016 C4017 1.377 . S
C4016 C4018 1.384 . S
C4017 C4016 1.377 . S
C4017 C4023 1.390 . S
C4018 H4009 0.930 . S
C4018 C4016 1.384 . S
C4018 C4019 1.372 . S
C4019 C4018 1.372 . S
C4019 C4020 1.400 . S
C4019 C4024 1.490 . S
C4020 H4010 0.930 . S
C4020 C4019 1.400 . S
C4020 C4023 1.386 . S
H4021 C4037 0.930 . S
H4022 C4038 0.931 . S
C4023 H4011 0.929 . S
C4023 C4017 1.390 . S
C4023 C4020 1.386 . S
C4024 C4019 1.490 . S
C4024 C4026 1.395 . S
C4024 C4027 1.403 . S
H4025 C4031 0.930 . S
C4026 H4012 0.930 . S
C4026 C4024 1.395 . S
C4026 C4029 1.403 . S
C4027 C4024 1.403 . S
C4027 C4028 1.524 . S
C4027 C4031 1.400 . S
C4028 H4013 0.960 . S
C4028 H4014 0.960 . S
C4028 H4015 0.960 . S
C4028 C4027 1.524 . S
C4029 C4026 1.403 . S
C4029 C4030 1.392 . S
C4029 C4033 1.495 . S
C4030 C4029 1.392 . S
C4030 C4031 1.385 . S
C4030 C4032 1.478 . S
C4031 H4025 0.930 . S
C4031 C4027 1.400 . S
C4031 C4030 1.385 . S
C4032 C4030 1.478 . S
C4032 C4034 1.381 . S
C4032 C4038 1.383 . S
C4033 C4029 1.495 . S
C4033 H4039 0.959 . S
C4033 H4040 0.961 . S
C4033 H4041 0.960 . S
C4034 C4032 1.381 . S
C4034 C4035 1.394 . S
C4034 H4042 0.930 . S
C4035 C4034 1.394 . S
C4035 C4036 1.383 . S
C4035 H4043 0.929 . S
C4036 C4035 1.383 . S
C4036 C4037 1.377 . S
C4037 H4021 0.930 . S
C4037 C4036 1.377 . S
C4037 C4038 1.379 . S
C4038 H4022 0.931 . S
C4038 C4032 1.383 . S
C4038 C4037 1.379 . S
H4039 C4033 0.959 . S
H4040 C4033 0.961 . S
H4041 C4033 0.960 . S
H4042 C4034 0.930 . S
H4043 C4035 0.929 . S
H4044 C4052 0.929 . S
H4045 C4054 0.930 . S
H4046 C4056 0.930 . S
H4047 C4059 0.929 . S
H4048 C4062 0.930 . S
H4049 C4064 0.960 . S
H4050 C4064 0.960 . S
H4051 C4064 0.960 . S
C4052 H4044 0.929 . S
C4052 C4053 1.377 . S
C4052 C4054 1.384 . S
C4053 C4052 1.377 . S
C4053 C4059 1.390 . S
C4054 H4045 0.930 . S
C4054 C4052 1.384 . S
C4054 C4055 1.372 . S
C4055 C4054 1.372 . S
C4055 C4056 1.400 . S
C4055 C4060 1.490 . S
C4056 H4046 0.930 . S
C4056 C4055 1.400 . S
C4056 C4059 1.386 . S
H4057 C4073 0.930 . S
H4058 C4074 0.931 . S
C4059 H4047 0.929 . S
C4059 C4053 1.390 . S
C4059 C4056 1.386 . S
C4060 C4055 1.490 . S
C4060 C4062 1.395 . S
C4060 C4063 1.403 . S
H4061 C4067 0.930 . S
C4062 H4048 0.930 . S
C4062 C4060 1.395 . S
C4062 C4065 1.403 . S
C4063 C4060 1.403 . S
C4063 C4064 1.524 . S
C4063 C4067 1.400 . S
C4064 H4049 0.960 . S
C4064 H4050 0.960 . S
C4064 H4051 0.960 . S
C4064 C4063 1.524 . S
C4065 C4062 1.403 . S
C4065 C4066 1.392 . S
C4065 C4069 1.495 . S
C4066 C4065 1.392 . S
C4066 C4067 1.385 . S
C4066 C4068 1.478 . S
C4067 H4061 0.930 . S
C4067 C4063 1.400 . S
C4067 C4066 1.385 . S
C4068 C4066 1.478 . S
C4068 C4070 1.381 . S
C4068 C4074 1.383 . S
C4069 C4065 1.495 . S
C4069 H4075 0.959 . S
C4069 H4076 0.961 . S
C4069 H4077 0.960 . S
C4070 C4068 1.381 . S
C4070 C4071 1.394 . S
C4070 H4078 0.930 . S
C4071 C4070 1.394 . S
C4071 C4072 1.383 . S
C4071 H4079 0.929 . S
C4072 C4071 1.383 . S
C4072 C4073 1.377 . S
C4073 H4057 0.930 . S
C4073 C4072 1.377 . S
C4073 C4074 1.379 . S
C4074 H4058 0.931 . S
C4074 C4068 1.383 . S
C4074 C4073 1.379 . S
H4075 C4069 0.959 . S
H4076 C4069 0.961 . S
H4077 C4069 0.960 . S
H4078 C4070 0.930 . S
H4079 C4071 0.929 . S
C633 C364 0.912 . S
C652 C0 0.856 . S
C669 C13 0.896 . S
C688 C377 0.903 . S
C705 C390 0.896 . S
C724 C26 0.901 . S
C741 C39 0.910 . S
C760 C403 0.854 . S
C777 C312 0.903 . S
C796 C52 0.868 . S
C813 C65 0.915 . S
C832 C325 0.897 . S
C849 C338 0.898 . S
C868 C78 0.952 . S
C885 C91 0.903 . S
C904 C351 0.951 . S
C921 C494 0.914 . S
C940 C104 0.910 . S
C957 C507 0.914 . S
C976 C117 0.862 . S
C993 C468 0.915 . S
C1012 C130 0.879 . S
C1029 C143 0.911 . S
C1048 C481 0.926 . S
C1065 C442 0.907 . S
C1084 C156 0.942 . S
C1101 C455 0.914 . S
C1120 C169 0.860 . S
C1137 C182 0.915 . S
C1156 C416 0.869 . S
C1173 C429 0.911 . S
C1192 C195 0.855 . S
C1209 C208 0.913 . S
C1228 C585 0.918 . S
C1245 C559 0.913 . S
C1264 C221 0.918 . S
C1281 C572 0.906 . S
C1300 C234 0.858 . S
C1317 C533 0.906 . S
C1336 C247 0.859 . S
C1353 C546 0.912 . S
C1372 C260 0.919 . S
C1389 C273 0.911 . S
C1408 C520 0.855 . S
C1425 C286 0.911 . S
C1444 C611 0.926 . S
C1461 C598 0.896 . S
C1480 C299 0.945 . S
C1497 C99 1.271 . S
C1516 C8 1.303 . S
C1533 C60 1.277 . S
C1552 C21 1.279 . S
C1569 C73 1.272 . S
C1588 C34 1.279 . S
C1605 C86 1.269 . S
C1624 C47 1.306 . S
C1641 C268 1.274 . S
C1660 C112 1.296 . S
C1677 C229 1.281 . S
C1696 C125 1.243 . S
C1713 C242 1.270 . S
C1732 C138 1.293 . S
C1749 C255 1.273 . S
C1768 C151 1.276 . S
C1785 C307 1.271 . S
C1804 C164 1.288 . S
C1821 C281 1.281 . S
C1840 C177 1.259 . S
C1857 C190 1.282 . S
C1876 C294 1.240 . S
C1893 C216 1.281 . S
C1912 C203 1.261 . S
C1929 C411 1.270 . S
C1948 C320 1.254 . S
C1965 C372 1.282 . S
C1984 C333 1.270 . S
C2001 C346 1.271 . S
C2020 C385 1.289 . S
C2037 C359 1.273 . S
C2056 C398 1.241 . S
C2073 C424 1.274 . S
C2092 C580 1.241 . S
C2109 C437 1.280 . S
C2128 C541 1.251 . S
C2145 C554 1.269 . S
C2164 C450 1.262 . S
C2181 C567 1.274 . S
C2200 C463 1.303 . S
C2217 C619 1.269 . S
C2236 C476 1.274 . S
C2253 C593 1.279 . S
C2272 C489 1.305 . S
C2289 C606 1.275 . S
C2308 C502 1.304 . S
C2325 C515 1.271 . S
C2344 C528 1.292 . S
C2361 C10 0.815 . S
C2380 C109 0.830 . S
C2397 C122 0.773 . S
C2416 C23 0.847 . S
C2433 C135 0.803 . S
C2452 C36 0.795 . S
C2469 C148 0.780 . S
C2488 C49 0.830 . S
C2505 C62 0.821 . S
C2524 C161 0.733 . S
C2541 C174 0.774 . S
C2560 C75 0.845 . S
C2577 C88 0.821 . S
C2596 C187 0.753 . S
C2613 C200 0.806 . S
C2632 C101 0.787 . S
C2649 C213 0.788 . S
C2668 C114 0.827 . S
C2685 C304 0.791 . S
C2704 C127 0.821 . S
C2721 C140 0.814 . S
C2740 C278 0.816 . S
C2757 C153 0.823 . S
C2776 C291 0.708 . S
C2793 C166 0.812 . S
C2812 C226 0.859 . S
C2829 C179 0.821 . S
C2848 C239 0.729 . S
C2865 C192 0.814 . S
C2884 C252 0.842 . S
C2901 C205 0.812 . S
C2920 C265 0.859 . S
C2937 C218 0.817 . S
C2956 C5 0.812 . S
C2973 C231 0.818 . S
C2992 C57 0.766 . S
C3009 C244 0.823 . S
C3028 C70 0.718 . S
C3045 C257 0.816 . S
C3064 C83 0.783 . S
C3081 C270 0.821 . S
C3100 C96 0.730 . S
C3117 C283 0.812 . S
C3136 C31 0.841 . S
C3153 C44 0.806 . S
C3172 C296 0.787 . S
C3189 C18 0.796 . S
C3208 C309 0.811 . S
C3225 C421 0.781 . S
C3244 C322 0.835 . S
C3261 C434 0.774 . S
C3280 C335 0.795 . S
C3297 C447 0.792 . S
C3316 C348 0.848 . S
C3333 C460 0.802 . S
C3352 C361 0.846 . S
C3369 C473 0.791 . S
C3388 C374 0.847 . S
C3405 C387 0.818 . S
C3424 C486 0.717 . S
C3441 C499 0.807 . S
C3460 C400 0.833 . S
C3477 C413 0.819 . S
C3496 C512 0.727 . S
C3513 C525 0.773 . S
C3532 C426 0.798 . S
C3549 C439 0.810 . S
C3568 C616 0.757 . S
C3585 C452 0.823 . S
C3604 C590 0.846 . S
C3621 C603 0.805 . S
C3640 C465 0.841 . S
C3657 C538 0.773 . S
C3676 C478 0.802 . S
C3693 C491 0.820 . S
C3712 C551 0.869 . S
C3729 C504 0.811 . S
C3748 C564 0.802 . S
C3765 C577 0.793 . S
C3784 C517 0.788 . S
C3801 C317 0.782 . S
C3820 C530 0.783 . S
C3837 C369 0.801 . S
C3856 C543 0.847 . S
C3873 C382 0.806 . S
C3892 C556 0.816 . S
C3909 C569 0.810 . S
C3928 C395 0.765 . S
C3945 C408 0.806 . S
C3964 C582 0.817 . S
C3981 C343 0.783 . S
C4000 C595 0.840 . S
C4017 C608 0.814 . S
C4036 C356 0.707 . S
C4053 C330 0.780 . S
C4072 C621 0.835 . S
