# Generated by pormake.
# Topology uma, (4)-cn, num edge types: 1
# Building blocks:
#     Node 0, Type 0, BuildingBlock: QUQFOY_clean_sbu_1, # of connection points: 4
#     Node 1, Type 0, BuildingBlock: QUQFOY_clean_sbu_1, # of connection points: 4
#     Node 2, Type 0, BuildingBlock: QUQFOY_clean_sbu_1, # of connection points: 4
#     Node 3, Type 0, BuildingBlock: QUQFOY_clean_sbu_1, # of connection points: 4
#     Node 4, Type 0, BuildingBlock: QUQFOY_clean_sbu_1, # of connection points: 4
#     Node 5, Type 0, BuildingBlock: QUQFOY_clean_sbu_1, # of connection points: 4
#     Node 6, Type 0, BuildingBlock: QUQFOY_clean_sbu_1, # of connection points: 4
#     Node 7, Type 0, BuildingBlock: QUQFOY_clean_sbu_1, # of connection points: 4
#     Node 8, Type 0, BuildingBlock: QUQFOY_clean_sbu_1, # of connection points: 4
#     Node 9, Type 0, BuildingBlock: QUQFOY_clean_sbu_1, # of connection points: 4
#     Node 10, Type 0, BuildingBlock: QUQFOY_clean_sbu_1, # of connection points: 4
#     Node 11, Type 0, BuildingBlock: QUQFOY_clean_sbu_1, # of connection points: 4
#     Node 12, Type 0, BuildingBlock: QUQFOY_clean_sbu_1, # of connection points: 4
#     Node 13, Type 0, BuildingBlock: QUQFOY_clean_sbu_1, # of connection points: 4
#     Node 14, Type 0, BuildingBlock: QUQFOY_clean_sbu_1, # of connection points: 4
#     Node 15, Type 0, BuildingBlock: QUQFOY_clean_sbu_1, # of connection points: 4
#     Node 16, Type 0, BuildingBlock: QUQFOY_clean_sbu_1, # of connection points: 4
#     Node 17, Type 0, BuildingBlock: QUQFOY_clean_sbu_1, # of connection points: 4
#     Node 18, Type 0, BuildingBlock: QUQFOY_clean_sbu_1, # of connection points: 4
#     Node 19, Type 0, BuildingBlock: QUQFOY_clean_sbu_1, # of connection points: 4
#     Node 20, Type 0, BuildingBlock: QUQFOY_clean_sbu_1, # of connection points: 4
#     Node 21, Type 0, BuildingBlock: QUQFOY_clean_sbu_1, # of connection points: 4
#     Node 22, Type 0, BuildingBlock: QUQFOY_clean_sbu_1, # of connection points: 4
#     Node 23, Type 0, BuildingBlock: QUQFOY_clean_sbu_1, # of connection points: 4
#     Node 24, Type 0, BuildingBlock: QUQFOY_clean_sbu_1, # of connection points: 4
#     Node 25, Type 0, BuildingBlock: QUQFOY_clean_sbu_1, # of connection points: 4
#     Node 26, Type 0, BuildingBlock: QUQFOY_clean_sbu_1, # of connection points: 4
#     Node 27, Type 0, BuildingBlock: QUQFOY_clean_sbu_1, # of connection points: 4
#     Node 28, Type 0, BuildingBlock: QUQFOY_clean_sbu_1, # of connection points: 4
#     Node 29, Type 0, BuildingBlock: QUQFOY_clean_sbu_1, # of connection points: 4
#     Node 30, Type 0, BuildingBlock: QUQFOY_clean_sbu_1, # of connection points: 4
#     Node 31, Type 0, BuildingBlock: QUQFOY_clean_sbu_1, # of connection points: 4
#     Node 32, Type 0, BuildingBlock: QUQFOY_clean_sbu_1, # of connection points: 4
#     Node 33, Type 0, BuildingBlock: QUQFOY_clean_sbu_1, # of connection points: 4
#     Node 34, Type 0, BuildingBlock: QUQFOY_clean_sbu_1, # of connection points: 4
#     Node 35, Type 0, BuildingBlock: QUQFOY_clean_sbu_1, # of connection points: 4
#     Edge 36, Type (0, 0), BuildingBlock: KIFKEQ_clean_linker_1, # of connection points: 2
#     Edge 37, Type (0, 0), BuildingBlock: KIFKEQ_clean_linker_1, # of connection points: 2
#     Edge 38, Type (0, 0), BuildingBlock: KIFKEQ_clean_linker_1, # of connection points: 2
#     Edge 39, Type (0, 0), BuildingBlock: KIFKEQ_clean_linker_1, # of connection points: 2
#     Edge 40, Type (0, 0), BuildingBlock: KIFKEQ_clean_linker_1, # of connection points: 2
#     Edge 41, Type (0, 0), BuildingBlock: KIFKEQ_clean_linker_1, # of connection points: 2
#     Edge 42, Type (0, 0), BuildingBlock: KIFKEQ_clean_linker_1, # of connection points: 2
#     Edge 43, Type (0, 0), BuildingBlock: KIFKEQ_clean_linker_1, # of connection points: 2
#     Edge 44, Type (0, 0), BuildingBlock: KIFKEQ_clean_linker_1, # of connection points: 2
#     Edge 45, Type (0, 0), BuildingBlock: KIFKEQ_clean_linker_1, # of connection points: 2
#     Edge 46, Type (0, 0), BuildingBlock: KIFKEQ_clean_linker_1, # of connection points: 2
#     Edge 47, Type (0, 0), BuildingBlock: KIFKEQ_clean_linker_1, # of connection points: 2
#     Edge 48, Type (0, 0), BuildingBlock: KIFKEQ_clean_linker_1, # of connection points: 2
#     Edge 49, Type (0, 0), BuildingBlock: KIFKEQ_clean_linker_1, # of connection points: 2
#     Edge 50, Type (0, 0), BuildingBlock: KIFKEQ_clean_linker_1, # of connection points: 2
#     Edge 51, Type (0, 0), BuildingBlock: KIFKEQ_clean_linker_1, # of connection points: 2
#     Edge 52, Type (0, 0), BuildingBlock: KIFKEQ_clean_linker_1, # of connection points: 2
#     Edge 53, Type (0, 0), BuildingBlock: KIFKEQ_clean_linker_1, # of connection points: 2
#     Edge 54, Type (0, 0), BuildingBlock: KIFKEQ_clean_linker_1, # of connection points: 2
#     Edge 55, Type (0, 0), BuildingBlock: KIFKEQ_clean_linker_1, # of connection points: 2
#     Edge 56, Type (0, 0), BuildingBlock: KIFKEQ_clean_linker_1, # of connection points: 2
#     Edge 57, Type (0, 0), BuildingBlock: KIFKEQ_clean_linker_1, # of connection points: 2
#     Edge 58, Type (0, 0), BuildingBlock: KIFKEQ_clean_linker_1, # of connection points: 2
#     Edge 59, Type (0, 0), BuildingBlock: KIFKEQ_clean_linker_1, # of connection points: 2
#     Edge 60, Type (0, 0), BuildingBlock: KIFKEQ_clean_linker_1, # of connection points: 2
#     Edge 61, Type (0, 0), BuildingBlock: KIFKEQ_clean_linker_1, # of connection points: 2
#     Edge 62, Type (0, 0), BuildingBlock: KIFKEQ_clean_linker_1, # of connection points: 2
#     Edge 63, Type (0, 0), BuildingBlock: KIFKEQ_clean_linker_1, # of connection points: 2
#     Edge 64, Type (0, 0), BuildingBlock: KIFKEQ_clean_linker_1, # of connection points: 2
#     Edge 65, Type (0, 0), BuildingBlock: KIFKEQ_clean_linker_1, # of connection points: 2
#     Edge 66, Type (0, 0), BuildingBlock: KIFKEQ_clean_linker_1, # of connection points: 2
#     Edge 67, Type (0, 0), BuildingBlock: KIFKEQ_clean_linker_1, # of connection points: 2
#     Edge 68, Type (0, 0), BuildingBlock: KIFKEQ_clean_linker_1, # of connection points: 2
#     Edge 69, Type (0, 0), BuildingBlock: KIFKEQ_clean_linker_1, # of connection points: 2
#     Edge 70, Type (0, 0), BuildingBlock: KIFKEQ_clean_linker_1, # of connection points: 2
#     Edge 71, Type (0, 0), BuildingBlock: KIFKEQ_clean_linker_1, # of connection points: 2
#     Edge 72, Type (0, 0), BuildingBlock: KIFKEQ_clean_linker_1, # of connection points: 2
#     Edge 73, Type (0, 0), BuildingBlock: KIFKEQ_clean_linker_1, # of connection points: 2
#     Edge 74, Type (0, 0), BuildingBlock: KIFKEQ_clean_linker_1, # of connection points: 2
#     Edge 75, Type (0, 0), BuildingBlock: KIFKEQ_clean_linker_1, # of connection points: 2
#     Edge 76, Type (0, 0), BuildingBlock: KIFKEQ_clean_linker_1, # of connection points: 2
#     Edge 77, Type (0, 0), BuildingBlock: KIFKEQ_clean_linker_1, # of connection points: 2
#     Edge 78, Type (0, 0), BuildingBlock: KIFKEQ_clean_linker_1, # of connection points: 2
#     Edge 79, Type (0, 0), BuildingBlock: KIFKEQ_clean_linker_1, # of connection points: 2
#     Edge 80, Type (0, 0), BuildingBlock: KIFKEQ_clean_linker_1, # of connection points: 2
#     Edge 81, Type (0, 0), BuildingBlock: KIFKEQ_clean_linker_1, # of connection points: 2
#     Edge 82, Type (0, 0), BuildingBlock: KIFKEQ_clean_linker_1, # of connection points: 2
#     Edge 83, Type (0, 0), BuildingBlock: KIFKEQ_clean_linker_1, # of connection points: 2
#     Edge 84, Type (0, 0), BuildingBlock: KIFKEQ_clean_linker_1, # of connection points: 2
#     Edge 85, Type (0, 0), BuildingBlock: KIFKEQ_clean_linker_1, # of connection points: 2
#     Edge 86, Type (0, 0), BuildingBlock: KIFKEQ_clean_linker_1, # of connection points: 2
#     Edge 87, Type (0, 0), BuildingBlock: KIFKEQ_clean_linker_1, # of connection points: 2
#     Edge 88, Type (0, 0), BuildingBlock: KIFKEQ_clean_linker_1, # of connection points: 2
#     Edge 89, Type (0, 0), BuildingBlock: KIFKEQ_clean_linker_1, # of connection points: 2
#     Edge 90, Type (0, 0), BuildingBlock: KIFKEQ_clean_linker_1, # of connection points: 2
#     Edge 91, Type (0, 0), BuildingBlock: KIFKEQ_clean_linker_1, # of connection points: 2
#     Edge 92, Type (0, 0), BuildingBlock: KIFKEQ_clean_linker_1, # of connection points: 2
#     Edge 93, Type (0, 0), BuildingBlock: KIFKEQ_clean_linker_1, # of connection points: 2
#     Edge 94, Type (0, 0), BuildingBlock: KIFKEQ_clean_linker_1, # of connection points: 2
#     Edge 95, Type (0, 0), BuildingBlock: KIFKEQ_clean_linker_1, # of connection points: 2
#     Edge 96, Type (0, 0), BuildingBlock: KIFKEQ_clean_linker_1, # of connection points: 2
#     Edge 97, Type (0, 0), BuildingBlock: KIFKEQ_clean_linker_1, # of connection points: 2
#     Edge 98, Type (0, 0), BuildingBlock: KIFKEQ_clean_linker_1, # of connection points: 2
#     Edge 99, Type (0, 0), BuildingBlock: KIFKEQ_clean_linker_1, # of connection points: 2
#     Edge 100, Type (0, 0), BuildingBlock: KIFKEQ_clean_linker_1, # of connection points: 2
#     Edge 101, Type (0, 0), BuildingBlock: KIFKEQ_clean_linker_1, # of connection points: 2
#     Edge 102, Type (0, 0), BuildingBlock: KIFKEQ_clean_linker_1, # of connection points: 2
#     Edge 103, Type (0, 0), BuildingBlock: KIFKEQ_clean_linker_1, # of connection points: 2
#     Edge 104, Type (0, 0), BuildingBlock: KIFKEQ_clean_linker_1, # of connection points: 2
#     Edge 105, Type (0, 0), BuildingBlock: KIFKEQ_clean_linker_1, # of connection points: 2
#     Edge 106, Type (0, 0), BuildingBlock: KIFKEQ_clean_linker_1, # of connection points: 2
#     Edge 107, Type (0, 0), BuildingBlock: KIFKEQ_clean_linker_1, # of connection points: 2
# Relax obj value: 0.073
# Max RMSD: 0.238
# Mean RMSD: 0.238
data_MOF--net-uma--node1-QUQFOY_clean_sbu_1--edge1-KIFKEQ_clean_linker_1
_symmetry_space_group_name_H-M    P1
_symmetry_Int_Tables_number       1
_symmetry_cell_setting            triclinic
loop_
_symmetry_equiv_pos_as_xyz
'x, y, z'
_cell_length_a     89.318762
_cell_length_b     89.281147
_cell_length_c     40.561
_cell_angle_alpha  89.928128
_cell_angle_beta   90.094894
_cell_angle_gamma 119.92211
loop_
_atom_site_label
_atom_site_type_symbol
_atom_site_fract_x
_atom_site_fract_y
_atom_site_fract_z
_atom_type_partial_charge
O0 O 0.08037 0.32631 0.98795 0.0
Cd1 Cd 0.08018 0.32118 0.03743 0.0
Cd2 Cd 0.05921 0.33451 0.03946 0.0
O3 O 0.06474 0.33917 0.98905 0.0
O4 O 0.09784 0.31408 0.04173 0.0
O5 O 0.10004 0.33691 0.06756 0.0
C6 C 0.10624 0.32689 0.06139 0.0
C7 C 0.06095 0.35397 0.08005 0.0
C8 C 0.07308 0.33345 0.97286 0.0
C9 C 0.04372 0.29667 0.05422 0.0
O10 O 0.04117 0.30932 0.05001 0.0
O11 O 0.05874 0.29867 0.05163 0.0
O12 O 0.04937 0.34873 0.05715 0.0
O13 O 0.07247 0.34925 0.07833 0.0
O14 O 0.65927 0.74292 0.9849 0.0
Cd15 Cd 0.66575 0.75023 0.03325 0.0
Cd16 Cd 0.65594 0.71652 0.04062 0.0
O17 O 0.65189 0.71546 0.98981 0.0
O18 O 0.67223 0.77488 0.03185 0.0
O19 O 0.65074 0.75588 0.0626 0.0
C20 C 0.66015 0.7716 0.05262 0.0
C21 C 0.63608 0.69777 0.07953 0.0
C22 C 0.65462 0.72831 0.97188 0.0
C23 C 0.69316 0.74199 0.05295 0.0
O24 O 0.6814 0.72621 0.0532 0.0
O25 O 0.68955 0.75369 0.04613 0.0
O26 O 0.64343 0.69252 0.05882 0.0
O27 O 0.63924 0.71352 0.07687 0.0
O28 O 0.24136 0.90647 0.98177 0.0
Cd29 Cd 0.23532 0.90719 0.03041 0.0
Cd30 Cd 0.2695 0.92952 0.03409 0.0
O31 O 0.2696 0.92367 0.98415 0.0
O32 O 0.21035 0.88996 0.03161 0.0
O33 O 0.22942 0.88714 0.06172 0.0
C34 C 0.21358 0.88134 0.05301 0.0
C35 C 0.28689 0.9282 0.07605 0.0
C36 C 0.25594 0.91436 0.96744 0.0
C37 C 0.24591 0.94393 0.04415 0.0
O38 O 0.26142 0.94712 0.04214 0.0
O39 O 0.23345 0.92859 0.04157 0.0
O40 O 0.29329 0.93986 0.05331 0.0
O41 O 0.27076 0.91651 0.07371 0.0
O42 O 0.3254 0.08307 0.03998 0.0
Cd43 Cd 0.32257 0.08507 0.99012 0.0
Cd44 Cd 0.3339 0.0627 0.98807 0.0
O45 O 0.338 0.0672 0.03882 0.0
O46 O 0.31902 0.1052 0.98537 0.0
O47 O 0.34153 0.10467 0.96404 0.0
C48 C 0.33322 0.11285 0.96897 0.0
C49 C 0.35339 0.06331 0.94874 0.0
C50 C 0.33195 0.07522 0.05512 0.0
C51 C 0.29665 0.04989 0.97022 0.0
O52 O 0.30845 0.04624 0.97611 0.0
O53 O 0.29976 0.06535 0.97216 0.0
O54 O 0.34683 0.05136 0.97093 0.0
O55 O 0.34987 0.0757 0.95042 0.0
O56 O 0.89828 0.24467 0.05413 0.0
Cd57 Cd 0.89888 0.23769 1.00615 0.0
Cd58 Cd 0.92219 0.27158 1.00047 0.0
O59 O 0.91692 0.27259 0.05051 0.0
O60 O 0.88066 0.21305 1.00596 0.0
O61 O 0.87952 0.23236 0.9736 0.0
C62 C 0.87279 0.21653 0.9833 0.0
C63 C 0.9215 0.2889 0.95766 0.0
C64 C 0.90696 0.25937 0.06777 0.0
C65 C 0.93507 0.24663 0.99164 0.0
O66 O 0.93883 0.26236 0.9922 0.0
O67 O 0.91966 0.23461 0.99595 0.0
O68 O 0.9333 0.29518 0.98018 0.0
O69 O 0.90931 0.273 0.96079 0.0
O70 O 0.73635 0.65011 0.05138 0.0
Cd71 Cd 0.74691 0.6574 1.00509 0.0
Cd72 Cd 0.71386 0.65022 0.99148 0.0
O73 O 0.70996 0.64519 0.04184 0.0
O74 O 0.7707 0.66278 0.016 0.0
O75 O 0.755 0.64321 0.97893 0.0
C76 C 0.76932 0.65142 0.99504 0.0
C77 C 0.69638 0.63159 0.94992 0.0
C78 C 0.72151 0.64642 0.06186 0.0
C79 C 0.74204 0.68689 0.98324 0.0
O80 O 0.72599 0.67612 0.98051 0.0
O81 O 0.75251 0.68193 0.99199 0.0
O82 O 0.69072 0.63901 0.96951 0.0
O83 O 0.71177 0.63409 0.95478 0.0
O84 O 0.90984 0.6438 0.05241 0.0
Cd85 Cd 0.90457 0.65225 1.00914 0.0
Cd86 Cd 0.93255 0.65076 0.9891 0.0
O87 O 0.93522 0.64721 0.03898 0.0
O88 O 0.88359 0.6523 0.02467 0.0
O89 O 0.88342 0.63812 0.9801 0.0
C90 C 0.87518 0.64255 1.00031 0.0
C91 C 0.93345 0.63283 0.94811 0.0
C92 C 0.92385 0.64442 0.06068 0.0
C93 C 0.93529 0.68532 0.9863 0.0
O94 O 0.94174 0.6762 0.97675 0.0
O95 O 0.92072 0.67828 1.00062 0.0
O96 O 0.94704 0.64323 0.96472 0.0
O97 O 0.91905 0.63216 0.9555 0.0
O98 O 0.35037 0.2573 0.05767 0.0
Cd99 Cd 0.34012 0.24462 0.01409 0.0
Cd100 Cd 0.34354 0.27481 0.99564 0.0
O101 O 0.34854 0.28041 0.04582 0.0
O102 O 0.34128 0.22321 0.02083 0.0
O103 O 0.353 0.2403 0.97768 0.0
C104 C 0.34975 0.2265 0.99366 0.0
C105 C 0.36029 0.29328 0.95287 0.0
C106 C 0.35097 0.27119 0.06675 0.0
C107 C 0.30781 0.24446 0.99535 0.0
O108 O 0.31768 0.25981 0.9853 0.0
O109 O 0.31409 0.23606 1.00922 0.0
O110 O 0.35124 0.29719 0.97202 0.0
O111 O 0.36056 0.2792 0.959 0.0
O112 O 0.74097 0.08211 0.04457 0.0
Cd113 Cd 0.74809 0.08287 0.99619 0.0
Cd114 Cd 0.71534 0.05921 0.98805 0.0
O115 O 0.71378 0.0616 0.03899 0.0
O116 O 0.77151 0.10337 0.99385 0.0
O117 O 0.74962 0.1009 0.9639 0.0
C118 C 0.76568 0.1097 0.97217 0.0
C119 C 0.69769 0.06136 0.94789 0.0
C120 C 0.72641 0.07176 0.0573 0.0
C121 C 0.74135 0.04803 0.97618 0.0
O122 O 0.72552 0.04388 0.97515 0.0
O123 O 0.75281 0.06324 0.98402 0.0
O124 O 0.69177 0.04837 0.96784 0.0
O125 O 0.71339 0.07374 0.95218 0.0
O126 O 0.64813 0.90583 0.97355 0.0
Cd127 Cd 0.65704 0.90515 0.01986 0.0
Cd128 Cd 0.64745 0.93015 0.02928 0.0
O129 O 0.64098 0.92604 0.97926 0.0
O130 O 0.66396 0.88763 1.01134 0.0
O131 O 0.64518 0.88402 0.04991 0.0
C132 C 0.6539 0.87826 0.03455 0.0
C133 C 0.62986 0.93125 0.07102 0.0
C134 C 0.64288 0.91546 0.96113 0.0
C135 C 0.68508 0.94101 0.03658 0.0
O136 O 0.67349 0.94529 0.03815 0.0
O137 O 0.68117 0.92562 0.02992 0.0
O138 O 0.63675 0.94316 0.04886 0.0
O139 O 0.63209 0.91806 0.06834 0.0
O140 O 0.07364 0.74193 0.98336 0.0
Cd141 Cd 0.07463 0.75127 0.03004 0.0
Cd142 Cd 0.05106 0.71723 0.04139 0.0
O143 O 0.05319 0.71484 0.99081 0.0
O144 O 0.09239 0.77581 0.02349 0.0
O145 O 0.09567 0.75929 0.05976 0.0
C146 C 0.10166 0.77421 0.04591 0.0
C147 C 0.05215 0.69842 0.08039 0.0
C148 C 0.06342 0.72702 0.9718 0.0
C149 C 0.03906 0.74287 0.05085 0.0
O150 O 0.03555 0.72728 0.05383 0.0
O151 O 0.05394 0.75447 0.04154 0.0
O152 O 0.03933 0.69339 0.06028 0.0
O153 O 0.06488 0.71404 0.07735 0.0
O154 O 0.24033 0.3266 0.98027 0.0
Cd155 Cd 0.23453 0.31911 0.02858 0.0
Cd156 Cd 0.26932 0.33452 0.03271 0.0
O157 O 0.26879 0.34057 0.98302 0.0
O158 O 0.20941 0.31061 0.03021 0.0
O159 O 0.22818 0.3326 0.06033 0.0
C160 C 0.21238 0.32242 0.05153 0.0
C161 C 0.28609 0.35376 0.07442 0.0
C162 C 0.25494 0.33505 0.96625 0.0
C163 C 0.24867 0.29607 0.04413 0.0
O164 O 0.26349 0.30948 0.04162 0.0
O165 O 0.23506 0.29702 0.04062 0.0
O166 O 0.29303 0.34936 0.05128 0.0
O167 O 0.26968 0.34822 0.0725 0.0
O168 O 0.744 0.66751 0.31504 0.0
Cd169 Cd 0.7469 0.65997 0.36141 0.0
Cd170 Cd 0.72167 0.66876 0.37436 0.0
O171 O 0.72303 0.67331 0.32371 0.0
O172 O 0.76447 0.65332 0.35095 0.0
O173 O 0.76944 0.67361 0.38714 0.0
C174 C 0.77487 0.66468 0.37151 0.0
C175 C 0.72216 0.6879 0.41451 0.0
C176 C 0.73322 0.67164 0.30412 0.0
C177 C 0.71204 0.63165 0.38374 0.0
O178 O 0.70748 0.643 0.38634 0.0
O179 O 0.72723 0.63585 0.37475 0.0
O180 O 0.7092 0.67981 0.39482 0.0
O181 O 0.73534 0.68578 0.41038 0.0
O182 O 0.32367 0.079 0.31764 0.0
Cd183 Cd 0.33122 0.08636 0.36547 0.0
Cd184 Cd 0.31756 0.05049 0.37013 0.0
O185 O 0.31207 0.05064 0.31987 0.0
O186 O 0.34044 0.11156 0.36062 0.0
O187 O 0.31911 0.09571 0.39456 0.0
C188 C 0.3294 0.11065 0.38191 0.0
C189 C 0.29864 0.03149 0.41033 0.0
C190 C 0.31662 0.0644 0.30331 0.0
C191 C 0.35582 0.07401 0.38218 0.0
O192 O 0.34311 0.05872 0.38 0.0
O193 O 0.3538 0.08697 0.37816 0.0
O194 O 0.30477 0.02617 0.38724 0.0
O195 O 0.30226 0.04743 0.40926 0.0
O196 O 0.902 0.24767 0.33258 0.0
Cd197 Cd 0.89849 0.24676 0.38272 0.0
Cd198 Cd 0.93284 0.26632 0.38178 0.0
O199 O 0.93041 0.26019 0.33139 0.0
O200 O 0.8742 0.2281 0.38943 0.0
O201 O 0.89658 0.22641 0.4082 0.0
C202 C 0.88007 0.21938 0.40445 0.0
C203 C 0.95099 0.26398 0.42074 0.0
C204 C 0.91594 0.25347 0.31628 0.0
C205 C 0.91201 0.28314 0.40093 0.0
O206 O 0.92666 0.28505 0.39316 0.0
O207 O 0.89863 0.26826 0.40098 0.0
O208 O 0.95723 0.27515 0.39715 0.0
O209 O 0.93454 0.25324 0.42082 0.0
O210 O 0.01452 0.41329 0.39178 0.0
Cd211 Cd 0.00535 0.4182 0.34897 0.0
Cd212 Cd 0.00617 0.3896 0.32805 0.0
O213 O 0.00977 0.38738 0.37838 0.0
O214 O 0.0046 0.43885 0.36474 0.0
O215 O 0.01794 0.43926 0.31891 0.0
C216 C 0.01323 0.4472 0.33928 0.0
C217 C 0.02328 0.38771 0.28601 0.0
C218 C 0.01303 0.39889 0.40014 0.0
C219 C 0.97181 0.38704 0.32827 0.0
O220 O 0.9806 0.38056 0.31693 0.0
O221 O 0.97931 0.40161 0.34261 0.0
O222 O 0.01304 0.37447 0.30359 0.0
O223 O 0.02437 0.40234 0.29314 0.0
O224 O 0.57458 0.58253 0.38188 0.0
Cd225 Cd 0.57206 0.57164 0.33614 0.0
Cd226 Cd 0.5975 0.60503 0.32194 0.0
O227 O 0.59613 0.60887 0.37226 0.0
O228 O 0.55348 0.54781 0.34621 0.0
O229 O 0.55027 0.56376 0.30857 0.0
C230 C 0.54385 0.54938 0.32459 0.0
C231 C 0.59804 0.62393 0.28111 0.0
C232 C 0.58561 0.59746 0.3922 0.0
C233 C 0.60671 0.57711 0.31549 0.0
O234 O 0.61135 0.59294 0.31128 0.0
O235 O 0.59151 0.56644 0.32502 0.0
O236 O 0.61076 0.62841 0.30123 0.0
O237 O 0.58452 0.60888 0.28508 0.0
O238 O 0.39586 0.97579 0.38761 0.0
Cd239 Cd 0.40932 0.98576 0.34454 0.0
Cd240 Cd 0.37717 0.98065 0.32453 0.0
O241 O 0.37211 0.97635 0.37502 0.0
O242 O 0.43206 0.98972 0.36042 0.0
O243 O 0.4197 0.97438 0.31598 0.0
C244 C 0.43263 0.98089 0.33603 0.0
C245 C 0.35798 0.96321 0.2829 0.0
C246 C 0.38172 0.97476 0.39632 0.0
C247 C 0.40688 0.01677 0.32256 0.0
O248 O 0.39152 0.00646 0.31313 0.0
O249 O 0.41578 0.01106 0.33642 0.0
O250 O 0.35442 0.97256 0.30193 0.0
O251 O 0.37215 0.96305 0.28849 0.0
O252 O 0.58477 0.0011 0.37307 0.0
Cd253 Cd 0.58064 0.00606 0.32543 0.0
Cd254 Cd 0.60405 0.99506 0.31449 0.0
O255 O 0.60322 0.99178 0.36556 0.0
O256 O 0.56279 0.01269 0.33336 0.0
O257 O 0.55776 0.99048 0.30223 0.0
C258 C 0.55218 -0.0001 0.31547 0.0
C259 C 0.6019 0.97469 0.27546 0.0
C260 C 0.59456 -0.00413 0.38478 0.0
C261 C 0.61519 0.03227 0.29933 0.0
O262 O 0.61907 0.02038 0.30006 0.0
O263 O 0.60017 0.02914 0.30736 0.0
O264 O 0.61519 0.98256 0.29449 0.0
O265 O 0.58927 0.97764 0.27988 0.0
O266 O -0.00355 0.57986 0.37818 0.0
Cd267 Cd 0.98849 0.56954 0.33193 0.0
Cd268 Cd -0.00159 0.60377 0.31881 0.0
O269 O 0.00354 0.607 0.36915 0.0
O270 O 0.98264 0.54538 0.34083 0.0
O271 O 0.00279 0.56186 0.30526 0.0
C272 C -0.00561 0.54724 0.32034 0.0
C273 C 0.01725 0.62304 0.27912 0.0
C274 C 0.00151 0.59501 0.38882 0.0
C275 C 0.96087 0.57698 0.30964 0.0
O276 O 0.97266 0.5927 0.30718 0.0
O277 O 0.96445 0.56552 0.31878 0.0
O278 O 0.00914 0.6275 0.29953 0.0
O279 O 0.01532 0.60776 0.28218 0.0
O280 O 0.39205 0.41279 0.38547 0.0
Cd281 Cd 0.40575 0.41785 0.34227 0.0
Cd282 Cd 0.37606 0.38929 0.32229 0.0
O283 O 0.37047 0.38705 0.37261 0.0
O284 O 0.42706 0.43839 0.35844 0.0
O285 O 0.41385 0.43925 0.31323 0.0
C286 C 0.42646 0.44705 0.33372 0.0
C287 C 0.35684 0.38756 0.28088 0.0
C288 C 0.37903 0.39858 0.39413 0.0
C289 C 0.40797 0.38677 0.32044 0.0
O290 O 0.39248 0.38023 0.31033 0.0
O291 O 0.41532 0.4014 0.33457 0.0
O292 O 0.35396 0.37425 0.29817 0.0
O293 O 0.37038 0.40216 0.28796 0.0
O294 O 0.32956 0.2497 0.32199 0.0
Cd295 Cd 0.33579 0.24863 0.37046 0.0
Cd296 Cd 0.32465 0.27195 0.37784 0.0
O297 O 0.32115 0.26904 0.32685 0.0
O298 O 0.34301 0.23094 0.36933 0.0
O299 O 0.32099 0.2277 0.39936 0.0
C300 C 0.33087 0.22185 0.3898 0.0
C301 C 0.30435 0.27141 0.41526 0.0
C302 C 0.32452 0.25938 0.30891 0.0
C303 C 0.36207 0.28443 0.39156 0.0
O304 O 0.34993 0.28795 0.39142 0.0
O305 O 0.35908 0.26937 0.38441 0.0
O306 O 0.31214 0.28383 0.39433 0.0
O307 O 0.30732 0.25866 0.41368 0.0
O308 O 0.75362 0.0738 0.30958 0.0
Cd309 Cd 0.75457 0.08592 0.35319 0.0
Cd310 Cd 0.72799 0.05489 0.3697 0.0
O311 O 0.7291 0.04994 0.31978 0.0
O312 O 0.77647 0.10813 0.34717 0.0
O313 O 0.77165 0.09133 0.39056 0.0
C314 C 0.78177 0.10534 0.37474 0.0
C315 C 0.72627 0.03621 0.41215 0.0
C316 C 0.74091 0.05968 0.29965 0.0
C317 C 0.72085 0.0841 0.36764 0.0
O318 O 0.71558 0.06875 0.37755 0.0
O319 O 0.73599 0.09314 0.35604 0.0
O320 O 0.7138 0.03181 0.39147 0.0
O321 O 0.74008 0.05103 0.40824 0.0
O322 O 0.92527 0.67595 0.30571 0.0
Cd323 Cd 0.91194 0.66668 0.3491 0.0
Cd324 Cd 0.94299 0.67092 0.36863 0.0
O325 O 0.94895 0.67544 0.31877 0.0
O326 O 0.88978 0.66438 0.33394 0.0
O327 O 0.90334 0.67958 0.37791 0.0
C328 C 0.89035 0.67393 0.35806 0.0
C329 C 0.96115 0.68908 0.4102 0.0
C330 C 0.93947 0.67708 0.29727 0.0
C331 C 0.91299 0.63504 0.37118 0.0
O332 O 0.92853 0.6451 0.37999 0.0
O333 O 0.90426 0.64106 0.35774 0.0
O334 O 0.96534 0.67971 0.39265 0.0
O335 O 0.94678 0.68863 0.4034 0.0
O336 O 0.41013 0.00581 0.64456 0.0
Cd337 Cd 0.41553 0.00026 0.6908 0.0
Cd338 Cd 0.38818 0.00539 0.70552 0.0
O339 O 0.38761 0.00898 0.65472 0.0
O340 O 0.43483 -0.0035 0.67806 0.0
O341 O 0.43822 0.01609 0.71465 0.0
C342 C 0.44484 0.00858 0.69786 0.0
C343 C 0.3874 0.02379 0.74601 0.0
C344 C 0.39796 0.00808 0.63431 0.0
C345 C 0.38288 0.96969 0.71526 0.0
O346 O 0.37668 0.97971 0.7182 0.0
O347 O 0.39832 0.97548 0.70567 0.0
O348 O 0.37423 0.01445 0.7275 0.0
O349 O 0.40143 0.02335 0.74051 0.0
O350 O 0.97267 0.39329 0.64206 0.0
Cd351 Cd 0.98062 0.40651 0.68591 0.0
Cd352 Cd 0.97762 0.37582 0.70624 0.0
O353 O 0.9747 0.37047 0.65567 0.0
O354 O 0.98278 0.42846 0.66975 0.0
O355 O 0.96737 0.41516 0.7136 0.0
C356 C 0.97322 0.4281 0.69362 0.0
C357 C 0.95958 0.35712 0.7477 0.0
C358 C 0.97297 0.37973 0.63375 0.0
C359 C 0.01265 0.40694 0.71047 0.0
O360 O 0.00304 0.39134 0.71943 0.0
O361 O 0.00621 0.41503 0.69602 0.0
O362 O 0.96954 0.35354 0.73056 0.0
O363 O 0.95916 0.37099 0.74019 0.0
O364 O 0.58087 0.57794 0.64798 0.0
Cd365 Cd 0.57215 0.57592 0.69553 0.0
Cd366 Cd 0.60636 0.59864 0.70581 0.0
O367 O 0.6087 0.596 0.65534 0.0
O368 O 0.54754 0.55818 0.68953 0.0
O369 O 0.5649 0.55396 0.72196 0.0
C370 C 0.54979 0.54813 0.70904 0.0
C371 C 0.62313 0.59586 0.74694 0.0
C372 C 0.59598 0.58698 0.6363 0.0
C373 C 0.58158 0.61156 0.71742 0.0
O374 O 0.59721 0.61501 0.71722 0.0
O375 O 0.56942 0.59649 0.71047 0.0
O376 O 0.62978 0.60854 0.72628 0.0
O377 O 0.60711 0.58415 0.74316 0.0
O378 O 0.67543 0.75492 0.71919 0.0
Cd379 Cd 0.66405 0.75576 0.67572 0.0
Cd380 Cd 0.67193 0.73044 0.65817 0.0
O381 O 0.67762 0.73185 0.70838 0.0
O382 O 0.65823 0.77383 0.68735 0.0
O383 O 0.67411 0.77628 0.64409 0.0
C384 C 0.66663 0.78256 0.66197 0.0
C385 C 0.68953 0.72892 0.61674 0.0
C386 C 0.67837 0.74307 0.72873 0.0
C387 C 0.63471 0.72051 0.65748 0.0
O388 O 0.64591 0.71654 0.64853 0.0
O389 O 0.63935 0.73525 0.66979 0.0
O390 O 0.68144 0.71654 0.63757 0.0
O391 O 0.68834 0.74267 0.62033 0.0
O392 O 0.24399 0.909 0.70307 0.0
Cd393 Cd 0.24372 0.9039 0.65363 0.0
Cd394 Cd 0.26542 0.93841 0.65265 0.0
O395 O 0.25951 0.93745 0.70289 0.0
O396 O 0.22607 0.87903 0.65177 0.0
O397 O 0.22281 0.8989 0.62565 0.0
C398 C 0.21676 0.88288 0.63338 0.0
C399 C 0.26432 0.95692 0.61271 0.0
C400 C 0.25107 0.92325 0.7186 0.0
C401 C 0.28017 0.91523 0.63789 0.0
O402 O 0.28303 0.93049 0.64285 0.0
O403 O 0.26492 0.90246 0.63894 0.0
O404 O 0.27599 0.96265 0.63549 0.0
O405 O 0.25251 0.94079 0.61391 0.0
O406 O 0.07775 0.32685 0.70932 0.0
Cd407 Cd 0.08368 0.33427 0.66099 0.0
Cd408 Cd 0.0481 0.31972 0.65853 0.0
O409 O 0.04929 0.31398 0.70831 0.0
O410 O 0.10907 0.34421 0.66264 0.0
O411 O 0.09254 0.32247 0.62996 0.0
C412 C 0.10778 0.33323 0.64082 0.0
C413 C 0.03013 0.30069 0.6175 0.0
C414 C 0.06334 0.31918 0.72427 0.0
C415 C 0.06992 0.35805 0.6472 0.0
O416 O 0.05485 0.34506 0.65027 0.0
O417 O 0.08319 0.35641 0.64943 0.0
O418 O 0.02385 0.30517 0.6417 0.0
O419 O 0.04652 0.30605 0.61774 0.0
O420 O 0.24474 0.33779 0.70194 0.0
Cd421 Cd 0.24551 0.34349 0.65265 0.0
Cd422 Cd 0.26538 0.32868 0.65035 0.0
O423 O 0.25927 0.3238 0.70038 0.0
O424 O 0.22835 0.35125 0.64801 0.0
O425 O 0.22549 0.32805 0.62264 0.0
C426 C 0.21961 0.33835 0.62873 0.0
C427 C 0.26402 0.30854 0.61166 0.0
C428 C 0.25123 0.3298 0.71671 0.0
C429 C 0.28229 0.36685 0.63607 0.0
O430 O 0.28409 0.35371 0.63992 0.0
O431 O 0.26757 0.36558 0.6388 0.0
O432 O 0.2754 0.31425 0.63493 0.0
O433 O 0.25257 0.31338 0.61167 0.0
O434 O 0.64752 0.91007 0.69657 0.0
Cd435 Cd 0.64516 0.90584 0.6466 0.0
Cd436 Cd 0.66154 0.94055 0.64728 0.0
O437 O 0.6648 0.93829 0.6978 0.0
O438 O 0.63636 0.88061 0.64436 0.0
O439 O 0.66147 0.89971 0.62318 0.0
C440 C 0.65036 0.88379 0.62956 0.0
C441 C 0.68264 0.95776 0.60881 0.0
C442 C 0.65618 0.92393 0.71288 0.0
C443 C 0.62422 0.92126 0.6258 0.0
O444 O 0.63717 0.93555 0.63445 0.0
O445 O 0.62494 0.90743 0.62621 0.0
O446 O 0.67802 0.96459 0.6318 0.0
O447 O 0.67625 0.94118 0.60917 0.0
O448 O 0.06893 0.75103 0.71904 0.0
Cd449 Cd 0.08126 0.75252 0.67546 0.0
Cd450 Cd 0.04945 0.72687 0.65815 0.0
O451 O 0.04426 0.72748 0.70796 0.0
O452 O 0.10427 0.77257 0.68558 0.0
O453 O 0.08907 0.77218 0.6424 0.0
C454 C 0.10295 0.78023 0.65985 0.0
C455 C 0.03135 0.72655 0.61601 0.0
C456 C 0.05433 0.73887 0.72841 0.0
C457 C 0.07779 0.7184 0.65722 0.0
O458 O 0.06242 0.71377 0.64847 0.0
O459 O 0.08737 0.73325 0.66959 0.0
O460 O 0.02665 0.71354 0.6355 0.0
O461 O 0.04617 0.74017 0.62126 0.0
O462 O 0.99091 0.57714 0.64505 0.0
Cd463 Cd -0.00161 0.57507 0.69199 0.0
Cd464 Cd 0.9878 0.5984 0.7038 0.0
O465 O 0.98274 0.59642 0.65343 0.0
O466 O 0.00425 0.55662 0.68535 0.0
O467 O 0.98365 0.5535 0.71931 0.0
C468 C 0.99222 0.54705 0.7057 0.0
C469 C 0.9684 0.59677 0.74417 0.0
C470 C 0.98541 0.58682 0.63401 0.0
C471 C 0.02539 0.61018 0.71442 0.0
O472 O 0.01338 0.61386 0.71582 0.0
O473 O 0.02218 0.5952 0.70585 0.0
O474 O 0.97564 0.6097 0.72418 0.0
O475 O 0.97146 0.58418 0.7401 0.0
O476 O 0.41438 0.39583 0.6368 0.0
Cd477 Cd 0.41937 0.40967 0.67983 0.0
Cd478 Cd 0.39157 0.37995 0.701 0.0
O479 O 0.38927 0.37367 0.651 0.0
O480 O 0.43984 0.43125 0.66443 0.0
O481 O 0.44054 0.41782 0.70943 0.0
C482 C 0.44834 0.43069 0.68948 0.0
C483 C 0.39095 0.36186 0.74362 0.0
C484 C 0.4004 0.3823 0.62892 0.0
C485 C 0.388 0.41127 0.70167 0.0
O486 O 0.38178 0.39586 0.71203 0.0
O487 O 0.40259 0.41882 0.68744 0.0
O488 O 0.3774 0.35804 0.72626 0.0
O489 O 0.40518 0.37568 0.7359 0.0
O490 O 0.59856 0.028 0.63223 0.0
Cd491 Cd 0.58298 0.01693 0.67258 0.0
Cd492 Cd 0.61085 0.01596 0.69524 0.0
O493 O 0.61804 0.02086 0.6458 0.0
O494 O 0.56265 0.0182 0.65665 0.0
O495 O 0.57474 0.02883 0.70478 0.0
C496 C 0.56284 0.02588 0.68349 0.0
C497 C 0.62918 0.03155 0.73908 0.0
C498 C 0.61115 0.02592 0.62429 0.0
C499 C 0.57883 0.98225 0.6897 0.0
O500 O 0.59348 0.99034 0.70375 0.0
O501 O 0.57274 0.99051 0.67464 0.0
O502 O 0.63209 0.0214 0.72098 0.0
O503 O 0.61611 0.03338 0.73159 0.0
H504 H 0.96491 0.2614 0.95652 0.0
H505 H 0.9373 0.22407 0.03305 0.0
H506 H 0.99179 0.26323 0.97476 0.0
H507 H 0.96441 0.22662 0.05243 0.0
H508 H 0.03884 0.27006 0.01544 0.0
H509 H 0.0105 0.2471 0.99719 0.0
H510 H 0.9863 0.26126 0.07352 0.0
H511 H 0.01447 0.28476 0.09053 0.0
C512 C 0.9645 0.25297 0.97617 0.0
C513 C 0.94919 0.24277 0.99364 0.0
C514 C 0.97983 0.25392 0.98653 0.0
C515 C 0.98008 0.24513 0.01512 0.0
C516 C 0.96445 0.23335 0.03017 0.0
C517 C 0.94899 0.23196 0.01908 0.0
C518 C 0.02752 0.26761 0.02947 0.0
C519 C 0.02867 0.27922 0.05406 0.0
C520 C 0.01135 0.25447 0.01901 0.0
C521 C -0.00367 0.25255 0.03388 0.0
C522 C -0.00225 0.26242 0.0619 0.0
C523 C 0.01383 0.2759 0.07159 0.0
H524 H 0.76602 0.71087 0.02424 0.0
H525 H 0.7296 0.70421 0.94762 0.0
H526 H 0.76464 0.73573 0.04523 0.0
H527 H 0.72883 0.72947 0.9677 0.0
H528 H 0.70803 0.72691 0.0882 0.0
H529 H 0.73223 0.7241 0.06864 0.0
H530 H 0.74229 0.76186 0.99269 0.0
H531 H 0.7185 0.76527 1.01328 0.0
C532 C 0.75861 0.71539 1.01054 0.0
C533 C 0.74752 0.70539 0.98486 0.0
C534 C 0.75788 0.72966 0.0226 0.0
C535 C 0.74643 0.7343 1.00844 0.0
C536 C 0.73779 0.72618 0.97909 0.0
C537 C 0.73814 0.71164 0.96762 0.0
C538 C 0.7161 0.73541 0.06873 0.0
C539 C 0.71124 0.74601 0.05183 0.0
C540 C 0.73004 0.73389 0.05756 0.0
C541 C 0.73889 0.74257 0.02877 0.0
C542 C 0.73565 0.75507 0.01492 0.0
C543 C 0.722 0.75698 0.02675 0.0
H544 H 0.27094 0.04745 1.00866 0.0
H545 H 0.28286 0.01992 0.93554 0.0
H546 H 0.24803 0.02004 0.03046 0.0
H547 H 0.25933 0.99264 0.95608 0.0
H548 H 0.22229 0.94543 1.00462 0.0
H549 H 0.22501 0.97208 0.98209 0.0
H550 H 0.26488 0.00168 0.05333 0.0
H551 H 0.26286 0.97518 0.07463 0.0
C552 C 0.26782 0.03563 0.99569 0.0
C553 C 0.27874 0.03565 0.97076 0.0
C554 C 0.25471 0.01998 1.00825 0.0
C555 C 0.25209 0.00434 0.99509 0.0
C556 C 0.26105 0.00458 0.96646 0.0
C557 C 0.27453 0.02017 0.95467 0.0
C558 C 0.23099 0.95757 0.01659 0.0
C559 C 0.24256 0.95838 0.04104 0.0
C560 C 0.23249 0.97277 1.00368 0.0
C561 C 0.24514 0.98882 0.01599 0.0
C562 C 0.25488 0.9894 0.04371 0.0
C563 C 0.25381 0.97428 0.05583 0.0
H564 H 0.03528 0.76539 1.01132 0.0
H565 H 0.00998 0.72763 0.08832 0.0
H566 H 0.00743 0.76154 0.99374 0.0
H567 H 0.98233 0.72413 0.07148 0.0
H568 H 0.93431 0.70706 0.03222 0.0
H569 H 0.96001 0.73264 0.05252 0.0
H570 H 0.98832 0.73167 0.96717 0.0
H571 H 0.96284 0.70596 0.94732 0.0
C572 C 0.02392 0.75705 0.02576 0.0
C573 C 0.02463 0.74642 0.0506 0.0
C574 C 0.00798 0.75487 0.01565 0.0
C575 C 0.99269 0.74229 0.03074 0.0
C576 C -0.00613 0.73393 0.05927 0.0
C577 C 0.00971 0.73583 0.06888 0.0
C578 C 0.94573 0.71287 0.01682 0.0
C579 C 0.94683 0.70418 0.98882 0.0
C580 C 0.96046 0.72756 0.02853 0.0
C581 C 0.97627 0.7338 1.01199 0.0
C582 C 0.97636 0.72709 0.98067 0.0
C583 C 0.96175 0.71225 0.96929 0.0
H584 H 0.28776 0.25035 0.95277 0.0
H585 H 0.28654 0.22636 0.04594 0.0
H586 H 0.26312 0.25305 0.96973 0.0
H587 H 0.26217 0.22958 0.06335 0.0
H588 H 0.22738 0.26735 1.00891 0.0
H589 H 0.2326 0.24342 0.99727 0.0
H590 H 0.27295 0.26302 0.07087 0.0
H591 H 0.26818 0.28714 0.08145 0.0
C592 C 0.2816 0.24478 0.97612 0.0
C593 C 0.28927 0.23856 0.99836 0.0
C594 C 0.26742 0.24625 0.98585 0.0
C595 C 0.26105 0.24189 0.01818 0.0
C596 C 0.26695 0.23312 0.03838 0.0
C597 C 0.28091 0.23128 0.02834 0.0
C598 C 0.2368 0.26604 0.0236 0.0
C599 C 0.24758 0.27912 0.04573 0.0
C600 C 0.23975 0.25235 0.01697 0.0
C601 C 0.25318 0.25142 0.03308 0.0
C602 C 0.26237 0.2633 0.05832 0.0
C603 C 0.25976 0.2772 0.06425 0.0
H604 H 0.70066 0.97036 0.07325 0.0
H605 H 0.70991 0.94311 0.99532 0.0
H606 H 0.72597 -0.00285 0.05615 0.0
H607 H 0.73488 0.97015 0.97724 0.0
H608 H 0.76315 0.04458 0.01785 0.0
H609 H 0.75907 0.01669 0.03594 0.0
H610 H 0.72437 0.99187 0.95426 0.0
H611 H 0.72785 0.01954 0.93709 0.0
C612 C 0.70862 0.96998 0.0535 0.0
C613 C 0.70324 0.95483 0.03524 0.0
C614 C 0.7232 0.98528 0.04379 0.0
C615 C 0.73221 0.9857 0.01508 0.0
C616 C 0.72816 0.97011 0.99948 0.0
C617 C 0.71384 0.95467 1.00983 0.0
C618 C 0.75545 0.03331 1.00267 0.0
C619 C 0.74548 0.03404 0.97653 0.0
C620 C 0.75315 0.01737 1.01307 0.0
C621 C 0.74122 0.00217 0.99681 0.0
C622 C 0.73369 0.00341 0.96721 0.0
C623 C 0.7356 0.01924 0.9574 0.0
H624 H 0.71045 0.60654 0.34371 0.0
H625 H 0.68247 0.61592 0.41996 0.0
H626 H 0.68356 0.58186 0.32445 0.0
H627 H 0.65578 0.59094 0.40151 0.0
H628 H 0.60863 0.55521 0.35953 0.0
H629 H 0.63577 0.55867 0.38059 0.0
H630 H 0.66291 0.59239 0.29895 0.0
H631 H 0.63596 0.58946 0.27864 0.0
C632 C 0.69875 0.60269 0.35767 0.0
C633 C 0.6984 0.61335 0.38282 0.0
C634 C 0.68337 0.58855 0.34658 0.0
C635 C 0.6676 0.58469 0.36112 0.0
C636 C 0.66776 0.59359 0.38984 0.0
C637 C 0.68304 0.60798 0.40037 0.0
C638 C 0.62024 0.56256 0.34504 0.0
C639 C 0.62034 0.57245 0.31792 0.0
C640 C 0.63577 0.56453 0.35718 0.0
C641 C 0.65143 0.57603 0.34176 0.0
C642 C 0.65103 0.58342 0.31136 0.0
C643 C 0.63559 0.58182 0.29972 0.0
H644 H 0.42742 0.03921 0.36986 0.0
H645 H 0.39788 0.03568 0.2829 0.0
H646 H 0.42473 0.06359 0.3892 0.0
H647 H 0.39572 0.06038 0.30172 0.0
H648 H 0.38301 0.0961 0.34456 0.0
H649 H 0.40688 0.0916 0.3286 0.0
H650 H 0.39157 0.05235 0.40371 0.0
H651 H 0.3674 0.05633 0.41859 0.0
C652 C 0.42129 0.0443 0.35385 0.0
C653 C 0.41237 0.03526 0.32536 0.0
C654 C 0.41979 0.05829 0.36499 0.0
C655 C 0.40973 0.0636 0.34729 0.0
C656 C 0.40354 0.05654 0.3159 0.0
C657 C 0.40469 0.04231 0.30514 0.0
C658 C 0.38532 0.08716 0.35874 0.0
C659 C 0.3733 0.07634 0.38245 0.0
C660 C 0.39898 0.08462 0.3496 0.0
C661 C 0.40096 0.07157 0.36474 0.0
C662 C 0.39043 0.0626 0.39178 0.0
C663 C 0.37652 0.06479 0.40024 0.0
H664 H 0.93221 0.31304 0.43376 0.0
H665 H 0.88876 0.28827 0.36744 0.0
H666 H 0.93709 0.3412 0.41629 0.0
H667 H 0.89416 0.31658 0.34866 0.0
H668 H 0.94982 0.35835 0.29286 0.0
H669 H 0.92467 0.33353 0.31645 0.0
H670 H 0.92696 0.36421 0.40044 0.0
H671 H 0.95176 0.38926 0.37636 0.0
C672 C 0.92315 0.31365 0.41678 0.0
C673 C 0.91025 0.29861 0.40172 0.0
C674 C 0.92587 0.32976 0.40678 0.0
C675 C 0.91609 0.33102 0.38081 0.0
C676 C 0.90179 0.31591 0.36879 0.0
C677 C 0.89873 0.29974 0.37959 0.0
C678 C 0.94433 0.36009 0.31534 0.0
C679 C 0.9531 0.37554 0.3333 0.0
C680 C 0.92983 0.34588 0.32883 0.0
C681 C 0.9242 0.34691 0.36067 0.0
C682 C 0.93116 0.36311 0.37597 0.0
C683 C 0.94542 0.37744 0.3621 0.0
H684 H 0.64428 0.04509 0.262 0.0
H685 H 0.61864 0.05962 0.33476 0.0
H686 H 0.67189 0.06961 0.2779 0.0
H687 H 0.64644 0.08391 0.35149 0.0
H688 H 0.69178 0.07524 0.40326 0.0
H689 H 0.66561 0.07317 0.38059 0.0
H690 H 0.69385 0.10159 0.29444 0.0
H691 H 0.72024 0.10412 0.31764 0.0
C692 C 0.64446 0.05408 0.28014 0.0
C693 C 0.62944 0.05028 0.29763 0.0
C694 C 0.66028 0.06821 0.28924 0.0
C695 C 0.66132 0.07843 0.31646 0.0
C696 C 0.64597 0.07616 0.33056 0.0
C697 C 0.63006 0.06225 0.32089 0.0
C698 C 0.69261 0.08191 0.3804 0.0
C699 C 0.70789 0.08945 0.36185 0.0
C700 C 0.67763 0.08082 0.36741 0.0
C701 C 0.67766 0.08692 0.3354 0.0
C702 C 0.6935 0.09672 0.31908 0.0
C703 C 0.7086 0.09815 0.33244 0.0
H704 H 0.92219 0.61604 0.41009 0.0
H705 H 0.89084 0.61221 0.32587 0.0
H706 H 0.92283 0.59051 0.39167 0.0
H707 H 0.89185 0.58682 0.30696 0.0
H708 H 0.94638 0.59099 0.27039 0.0
H709 H 0.92252 0.59502 0.28702 0.0
H710 H 0.91153 0.55973 0.36825 0.0
H711 H 0.9352 0.55532 0.3509 0.0
C712 C 0.91469 0.60921 0.38856 0.0
C713 C 0.90693 0.61638 0.36891 0.0
C714 C 0.91495 0.59448 0.37803 0.0
C715 C 0.90774 0.58695 0.34738 0.0
C716 C 0.89763 0.59249 0.3305 0.0
C717 C 0.89708 0.60706 0.3414 0.0
C718 C 0.93821 0.5833 0.29056 0.0
C719 C 0.94283 0.57317 0.30979 0.0
C720 C 0.92445 0.58552 0.3001 0.0
C721 C 0.91542 0.57797 0.32944 0.0
C722 C 0.91836 0.56577 0.34568 0.0
C723 C 0.93192 0.56324 0.33567 0.0
H724 H 0.40082 0.35828 0.28398 0.0
H725 H 0.43105 0.38881 0.36679 0.0
H726 H 0.40118 0.33327 0.30646 0.0
H727 H 0.43095 0.36357 0.38977 0.0
H728 H 0.38892 0.28749 0.35507 0.0
H729 H 0.41284 0.31503 0.33626 0.0
H730 H 0.39936 0.34165 0.40879 0.0
H731 H 0.37517 0.31429 0.42668 0.0
C732 C 0.40834 0.35989 0.30604 0.0
C733 C 0.41532 0.37527 0.32425 0.0
C734 C 0.40865 0.34555 0.31892 0.0
C735 C 0.41564 0.34639 0.35042 0.0
C736 C 0.42531 0.36257 0.36564 0.0
C737 C 0.42531 0.37702 0.3524 0.0
C738 C 0.39166 0.29914 0.36822 0.0
C739 C 0.37998 0.29889 0.39174 0.0
C740 C 0.40538 0.3149 0.3574 0.0
C741 C 0.40775 0.33046 0.3706 0.0
C742 C 0.39788 0.32987 0.39811 0.0
C743 C 0.38393 0.31419 0.40832 0.0
H744 H 0.31132 0.93357 0.60773 0.0
H745 H 0.28238 0.89102 0.67437 0.0
H746 H 0.33815 0.93635 0.62867 0.0
H747 H 0.30935 0.89441 0.69661 0.0
H748 H 0.35327 0.95077 0.75044 0.0
H749 H 0.32769 0.92615 0.72738 0.0
H750 H 0.35847 0.92276 0.64907 0.0
H751 H 0.38424 0.94688 0.67297 0.0
C752 C 0.3107 0.92424 0.6256 0.0
C753 C 0.29489 0.91223 0.63967 0.0
C754 C 0.32604 0.92576 0.63757 0.0
C755 C 0.32576 0.91567 0.66449 0.0
C756 C 0.30985 0.90223 0.67573 0.0
C757 C 0.29445 0.90033 0.66296 0.0
C758 C 0.35477 0.94402 0.72967 0.0
C759 C 0.37059 0.951 0.71298 0.0
C760 C 0.34012 0.92986 0.71644 0.0
C761 C 0.34113 0.92289 0.68601 0.0
C762 C 0.35741 0.92798 0.67248 0.0
C763 C 0.37216 0.94183 0.68627 0.0
H764 H 0.03483 0.42895 0.66442 0.0
H765 H 0.03252 0.39917 0.7502 0.0
H766 H 0.05951 0.42716 0.64412 0.0
H767 H 0.05758 0.39798 0.73045 0.0
H768 H 0.05089 0.36912 0.61387 0.0
H769 H 0.04729 0.3934 0.62987 0.0
H770 H 0.08858 0.4094 0.70082 0.0
H771 H 0.09271 0.38546 0.6836 0.0
C772 C 0.04026 0.42302 0.68006 0.0
C773 C 0.03139 0.4136 0.70828 0.0
C774 C 0.05446 0.42205 0.66837 0.0
C775 C 0.0601 0.41207 0.6853 0.0
C776 C 0.0534 0.40569 0.71681 0.0
C777 C 0.03897 0.40629 0.72811 0.0
C778 C 0.05982 0.37839 0.63152 0.0
C779 C 0.0719 0.37538 0.64779 0.0
C780 C 0.05787 0.39237 0.64058 0.0
C781 C 0.06761 0.40318 0.66678 0.0
C782 C 0.08103 0.40132 0.68043 0.0
C783 C 0.08334 0.3876 0.6706 0.0
H784 H 0.61721 0.69194 0.61901 0.0
H785 H 0.61205 0.71712 0.70551 0.0
H786 H 0.59348 0.6645 0.63813 0.0
H787 H 0.58864 0.68948 0.72521 0.0
H788 H 0.55887 0.61572 0.67953 0.0
H789 H 0.56233 0.64372 0.6639 0.0
H790 H 0.6005 0.66822 0.74061 0.0
H791 H 0.59753 0.64043 0.75531 0.0
C792 C 0.61042 0.69175 0.64126 0.0
C793 C 0.61669 0.70651 0.66114 0.0
C794 C 0.59675 0.67605 0.65218 0.0
C795 C 0.58947 0.67487 0.68346 0.0
C796 C 0.59409 0.69009 0.70106 0.0
C797 C 0.6075 0.7059 0.68972 0.0
C798 C 0.56731 0.62696 0.69417 0.0
C799 C 0.5782 0.62607 0.71822 0.0
C800 C 0.56927 0.64296 0.68518 0.0
C801 C 0.5818 0.6581 0.70078 0.0
C802 C 0.59067 0.65674 0.72826 0.0
C803 C 0.58906 0.64085 0.73664 0.0
H804 H 0.38893 0.4333 0.65424 0.0
H805 H 0.36008 0.4044 0.73959 0.0
H806 H 0.36327 0.43294 0.63281 0.0
H807 H 0.33466 0.4046 0.71866 0.0
H808 H 0.31176 0.37681 0.6015 0.0
H809 H 0.34017 0.40005 0.61758 0.0
H810 H 0.31675 0.41775 0.68918 0.0
H811 H 0.28815 0.39484 0.67193 0.0
C812 C 0.37745 0.42782 0.66948 0.0
C813 C 0.37626 0.41832 0.69803 0.0
C814 C 0.36277 0.42767 0.65713 0.0
C815 C 0.34695 0.41841 0.67371 0.0
C816 C 0.3467 0.4118 0.70531 0.0
C817 C 0.36125 0.41159 0.71727 0.0
C818 C 0.31265 0.38629 0.61924 0.0
C819 C 0.29789 0.38398 0.63578 0.0
C820 C 0.3289 0.39968 0.62838 0.0
C821 C 0.33061 0.41056 0.65491 0.0
C822 C 0.31572 0.40956 0.6686 0.0
C823 C 0.29939 0.39645 0.65871 0.0
H824 H 0.59415 0.89835 0.65503 0.0
H825 H 0.61715 0.9431 0.59159 0.0
H826 H 0.57104 0.90438 0.66907 0.0
H827 H 0.59377 0.94868 0.60436 0.0
H828 H 0.58245 0.95865 0.72653 0.0
H829 H 0.58285 0.93378 0.70328 0.0
H830 H 0.56063 0.93959 0.61299 0.0
H831 H 0.55968 0.96417 0.63659 0.0
C832 C 0.59365 0.90882 0.64248 0.0
C833 C 0.60746 0.92044 0.62257 0.0
C834 C 0.58043 0.91224 0.65055 0.0
C835 C 0.58071 0.92704 0.63802 0.0
C836 C 0.59314 0.93709 0.61419 0.0
C837 C 0.60659 0.93398 0.60693 0.0
C838 C 0.57667 0.95398 0.7025 0.0
C839 C 0.57158 0.96366 0.68299 0.0
C840 C 0.57681 0.93965 0.68917 0.0
C841 C 0.57217 0.93508 0.65602 0.0
C842 C 0.56438 0.94296 0.63852 0.0
C843 C 0.56388 0.95707 0.65213 0.0
H844 H 0.09789 0.71574 0.70467 0.0
H845 H 0.06797 0.69037 0.61781 0.0
H846 H 0.09512 0.68847 0.72329 0.0
H847 H 0.06563 0.66333 0.63588 0.0
H848 H 0.03885 0.63838 0.75422 0.0
H849 H 0.06328 0.66635 0.73984 0.0
H850 H 0.07613 0.64291 0.65988 0.0
H851 H 0.05189 0.61471 0.67505 0.0
C852 C 0.09161 0.7046 0.68858 0.0
C853 C 0.08272 0.70498 0.66023 0.0
C854 C 0.09005 0.68899 0.6993 0.0
C855 C 0.0799 0.67375 0.68137 0.0
C856 C 0.07355 0.67486 0.65025 0.0
C857 C 0.07479 0.69034 0.63992 0.0
C858 C 0.04749 0.63904 0.73484 0.0
C859 C 0.04334 0.62453 0.71535 0.0
C860 C 0.06158 0.65506 0.72663 0.0
C861 C 0.0714 0.65682 0.69831 0.0
C862 C 0.06871 0.64188 0.68174 0.0
C863 C 0.05484 0.62574 0.69048 0.0
H864 H 0.17859 0.29819 0.05022 0.0
H865 H 0.21337 0.35069 0.081 0.0
H866 H 0.15409 0.30148 0.06401 0.0
H867 H 0.18845 0.35402 0.09541 0.0
H868 H 0.13821 0.35517 0.05445 0.0
H869 H 0.16561 0.35557 0.0625 0.0
H870 H 0.13809 0.30509 0.10788 0.0
H871 H 0.11084 0.30446 0.09821 0.0
C872 C 0.18099 0.31039 0.06051 0.0
C873 C 0.19789 0.32422 0.06429 0.0
C874 C 0.16691 0.31223 0.0688 0.0
C875 C 0.16929 0.32799 0.08106 0.0
C876 C 0.18622 0.34173 0.08598 0.0
C877 C 0.20045 0.33981 0.07789 0.0
C878 C 0.1382 0.3445 0.06723 0.0
C879 C 0.12257 0.32972 0.0755 0.0
C880 C 0.15385 0.34471 0.0719 0.0
C881 C 0.15396 0.33017 0.08513 0.0
C882 C 0.13839 0.3163 0.09688 0.0
C883 C 0.12281 0.31596 0.0916 0.0
H884 H 0.62953 0.77151 0.05913 0.0
H885 H 0.68477 0.80363 0.06927 0.0
H886 H 0.62649 0.79742 0.06176 0.0
H887 H 0.68175 0.8292 0.07287 0.0
H888 H 0.67282 0.86547 1.00765 0.0
H889 H 0.67273 0.8391 0.02121 0.0
H890 H 0.63304 0.82671 0.09406 0.0
H891 H 0.63307 0.85365 0.08035 0.0
C892 C 0.64089 0.78401 0.06329 0.0
C893 C 0.65741 0.78574 0.06348 0.0
C894 C 0.63916 0.79878 0.06483 0.0
C895 C 0.65394 0.81528 0.06686 0.0
C896 C 0.6702 0.81665 0.07073 0.0
C897 C 0.67193 0.80204 0.06871 0.0
C898 C 0.66404 0.85724 0.02663 0.0
C899 C 0.65303 0.86175 0.04309 0.0
C900 C 0.66408 0.84214 0.03454 0.0
C901 C 0.65311 0.83104 0.05911 0.0
C902 C 0.6417 0.83516 0.07518 0.0
C903 C 0.64175 0.85053 0.06737 0.0
H904 H 0.12792 0.77511 0.08354 0.0
H905 H 0.11347 0.80739 0.02827 0.0
H906 H 0.15619 0.80065 0.09555 0.0
H907 H 0.14121 0.83238 0.03989 0.0
H908 H 0.18433 0.87756 0.07914 0.0
H909 H 0.15735 0.85054 0.08705 0.0
H910 H 0.18293 0.82189 0.06175 0.0
H911 H 0.21028 0.84921 0.0552 0.0
C912 C 0.1307 0.78762 0.07424 0.0
C913 C 0.11848 0.78925 0.05496 0.0
C914 C 0.14685 0.80217 0.08103 0.0
C915 C 0.15081 0.81854 0.06907 0.0
C916 C 0.13844 0.82005 0.05015 0.0
C917 C 0.12255 0.80564 0.0432 0.0
C918 C 0.1843 0.86547 0.07649 0.0
C919 C 0.19921 0.86534 0.06633 0.0
C920 C 0.16887 0.85002 0.08084 0.0
C921 C 0.16795 0.83414 0.07418 0.0
C922 C 0.18327 0.83395 0.06707 0.0
C923 C 0.19889 0.84953 0.06329 0.0
H924 H 0.34671 0.21479 0.93057 0.0
H925 H 0.36242 0.2095 0.02851 0.0
H926 H 0.34717 0.18863 0.91338 0.0
H927 H 0.36347 0.18388 1.01119 0.0
H928 H 0.31504 0.12719 0.94477 0.0
H929 H 0.32475 0.15797 0.94053 0.0
H930 H 0.37627 0.17015 0.96839 0.0
H931 H 0.36662 0.13916 0.97156 0.0
C932 C 0.35097 0.20846 0.94794 0.0
C933 C 0.35443 0.21398 0.98086 0.0
C934 C 0.35121 0.19353 0.93815 0.0
C935 C 0.35539 0.18431 0.96097 0.0
C936 C 0.36042 0.19086 0.99301 0.0
C937 C 0.35972 0.20544 1.00298 0.0
C938 C 0.32859 0.13645 0.94874 0.0
C939 C 0.34009 0.13091 0.95865 0.0
C940 C 0.33417 0.15404 0.9461 0.0
C941 C 0.35125 0.16638 0.95417 0.0
C942 C 0.36307 0.16084 0.96187 0.0
C943 C 0.35756 0.14317 0.96364 0.0
H944 H 0.86422 0.1832 0.97767 0.0
H945 H 0.84501 0.21814 0.95802 0.0
H946 H 0.83658 0.15887 0.96215 0.0
H947 H 0.81682 0.19339 0.94247 0.0
H948 H 0.76846 0.14057 0.98707 0.0
H949 H 0.79423 0.16879 0.97795 0.0
H950 H 0.81574 0.14461 0.91681 0.0
H951 H 0.79021 0.11646 0.92687 0.0
C952 C 0.8541 0.18567 0.96945 0.0
C953 C 0.85666 0.20249 0.96931 0.0
C954 C 0.83829 0.17173 0.96018 0.0
C955 C 0.82453 0.17421 0.95088 0.0
C956 C 0.82724 0.19114 0.94946 0.0
C957 C 0.84331 0.20525 0.95826 0.0
C958 C 0.77839 0.1415 0.97049 0.0
C959 C 0.77752 0.12653 0.95762 0.0
C960 C 0.79312 0.15762 0.96521 0.0
C961 C 0.80711 0.15883 0.94711 0.0
C962 C 0.80525 0.14401 0.93122 0.0
C963 C 0.79064 0.12794 0.93677 0.0
H964 H 0.85745 0.6386 0.94253 0.0
H965 H 0.85198 0.63564 0.04844 0.0
H966 H 0.82954 0.63775 0.93756 0.0
H967 H 0.82427 0.63446 0.04347 0.0
H968 H 0.77091 0.62682 0.9561 0.0
H969 H 0.79476 0.62041 0.95397 0.0
H970 H 0.82373 0.66182 0.02286 0.0
H971 H 0.80045 0.66821 0.02502 0.0
C972 C 0.84999 0.63712 0.96456 0.0
C973 C 0.85691 0.6375 0.9959 0.0
C974 C 0.83408 0.63662 0.96171 0.0
C975 C 0.825 0.63637 0.99019 0.0
C976 C 0.83118 0.63494 0.02119 0.0
C977 C 0.84701 0.63562 0.02402 0.0
C978 C 0.78245 0.63457 0.97055 0.0
C979 C 0.78371 0.64788 0.99102 0.0
C980 C 0.79604 0.63092 0.96929 0.0
C981 C 0.81087 0.64042 0.98875 0.0
C982 C 0.81227 0.65405 1.00816 0.0
C983 C 0.79891 0.65773 1.00928 0.0
H984 H 0.80291 0.69123 0.40348 0.0
H985 H 0.78674 0.64422 0.34821 0.0
H986 H 0.83283 0.69668 0.40325 0.0
H987 H 0.81612 0.64964 0.34812 0.0
H988 H 0.86931 0.67422 0.31075 0.0
H989 H 0.84239 0.67434 0.31797 0.0
H990 H 0.85149 0.68125 0.42284 0.0
H991 H 0.87894 0.68137 0.41553 0.0
C992 C 0.80568 0.682 0.39172 0.0
C993 C 0.79253 0.66744 0.37542 0.0
C994 C 0.82273 0.68511 0.39163 0.0
C995 C 0.82676 0.67374 0.3751 0.0
C996 C 0.81342 0.65881 0.36042 0.0
C997 C 0.79656 0.6557 0.36056 0.0
C998 C 0.86577 0.67608 0.33532 0.0
C999 C 0.87602 0.67745 0.36267 0.0
C1000 C 0.85037 0.67615 0.33943 0.0
C1001 C 0.84474 0.67744 0.37102 0.0
C1002 C 0.85558 0.6802 0.39825 0.0
C1003 C 0.87121 0.68025 0.39407 0.0
H1004 H 0.35598 0.21635 0.41235 0.0
H1005 H 0.30129 0.19026 0.39211 0.0
H1006 H 0.35464 0.18864 0.41942 0.0
H1007 H 0.3 0.16221 0.39761 0.0
H1008 H 0.30501 0.1136 0.4188 0.0
H1009 H 0.30411 0.14024 0.42994 0.0
H1010 H 0.35134 0.16944 0.37463 0.0
H1011 H 0.35238 0.14339 0.36414 0.0
C1012 C 0.34359 0.2046 0.41009 0.0
C1013 C 0.32878 0.20532 0.40138 0.0
C1014 C 0.34282 0.18874 0.41394 0.0
C1015 C 0.32731 0.17324 0.40818 0.0
C1016 C 0.31213 0.17393 0.40221 0.0
C1017 C 0.31285 0.18994 0.399 0.0
C1018 C 0.31526 0.12579 0.40944 0.0
C1019 C 0.32877 0.1264 0.39063 0.0
C1020 C 0.3147 0.14098 0.41568 0.0
C1021 C 0.32777 0.15697 0.40354 0.0
C1022 C 0.34128 0.15744 0.38507 0.0
C1023 C 0.34179 0.14242 0.37877 0.0
H1024 H 0.78969 0.11749 0.43779 0.0
H1025 H 0.8115 0.12312 0.34066 0.0
H1026 H 0.81595 0.14384 0.45563 0.0
H1027 H 0.83782 0.1489 0.35868 0.0
H1028 H 0.88592 0.1922 0.40225 0.0
H1029 H 0.8638 0.16148 0.40357 0.0
H1030 H 0.8252 0.17519 0.42832 0.0
H1031 H 0.84709 0.20578 0.42596 0.0
C1032 C 0.80036 0.12398 0.42073 0.0
C1033 C 0.79865 0.11842 0.38787 0.0
C1034 C 0.81531 0.13902 0.43088 0.0
C1035 C 0.82888 0.1483 0.40853 0.0
C1036 C 0.82765 0.14186 0.37649 0.0
C1037 C 0.81257 0.12719 0.36613 0.0
C1038 C 0.87282 0.18859 0.40908 0.0
C1039 C 0.86812 0.20129 0.41376 0.0
C1040 C 0.8602 0.17106 0.40977 0.0
C1041 C 0.84285 0.16603 0.41607 0.0
C1042 C 0.83852 0.17872 0.42377 0.0
C1043 C 0.85101 0.19621 0.42224 0.0
H1044 H 0.01463 0.46976 0.38504 0.0
H1045 H 0.01789 0.46403 0.28 0.0
H1046 H 0.01237 0.49546 0.37578 0.0
H1047 H 0.0155 0.49003 0.27072 0.0
H1048 H 0.02179 0.54791 0.28746 0.0
H1049 H 0.02997 0.5253 0.28848 0.0
H1050 H 0.98448 0.4927 0.34586 0.0
H1051 H 0.97629 0.5148 0.34481 0.0
C1052 C 0.01526 0.47423 0.35996 0.0
C1053 C 0.01614 0.46476 0.33321 0.0
C1054 C 0.01396 0.48893 0.35469 0.0
C1055 C 0.01344 0.49447 0.32255 0.0
C1056 C 0.01586 0.48595 0.29573 0.0
C1057 C 0.01723 0.47114 0.30104 0.0
C1058 C 0.01344 0.53578 0.29979 0.0
C1059 C -0.00148 0.53322 0.31644 0.0
C1060 C 0.01813 0.52291 0.30035 0.0
C1061 C 0.00799 0.50747 0.31777 0.0
C1062 C 0.99267 0.50464 0.33278 0.0
C1063 C 0.98798 0.51732 0.33209 0.0
H1064 H 0.51765 0.54924 0.28793 0.0
H1065 H 0.52936 0.51741 0.35121 0.0
H1066 H 0.4871 0.52618 0.28662 0.0
H1067 H 0.49935 0.49486 0.34989 0.0
H1068 H 0.44537 0.46963 0.38131 0.0
H1069 H 0.47288 0.49615 0.37485 0.0
H1070 H 0.46772 0.49131 0.26902 0.0
H1071 H 0.43972 0.46454 0.27551 0.0
C1072 C 0.51377 0.53732 0.30118 0.0
C1073 C 0.52586 0.53524 0.32005 0.0
C1074 C 0.49636 0.52419 0.3004 0.0
C1075 C 0.49091 0.50896 0.31869 0.0
C1076 C 0.50317 0.50665 0.33613 0.0
C1077 C 0.5204 0.51958 0.33679 0.0
C1078 C 0.44985 0.47443 0.35663 0.0
C1079 C 0.4406 0.46493 0.3289 0.0
C1080 C 0.46559 0.48959 0.35296 0.0
C1081 C 0.47251 0.49552 0.32147 0.0
C1082 C 0.4626 0.48694 0.29355 0.0
C1083 C 0.44664 0.47168 0.29726 0.0
H1084 H 0.45689 0.98625 0.38159 0.0
H1085 H 0.44375 0.97242 0.27929 0.0
H1086 H 0.48501 0.989 0.37262 0.0
H1087 H 0.47235 0.97531 0.27027 0.0
H1088 H 0.52422 0.97086 0.28922 0.0
H1089 H 0.49374 0.96351 0.29147 0.0
H1090 H 0.50916 0.01279 0.33697 0.0
H1091 H 0.53917 0.0201 0.33483 0.0
C1092 C 0.45993 0.98357 0.35722 0.0
C1093 C 0.44823 0.97941 0.331 0.0
C1094 C 0.47605 0.98517 0.35211 0.0
C1095 C 0.48093 0.98271 0.32063 0.0
C1096 C 0.46885 0.97732 0.29476 0.0
C1097 C 0.45255 0.97568 0.29992 0.0
C1098 C 0.52105 0.98018 0.29921 0.0
C1099 C 0.53407 -0.00405 0.31229 0.0
C1100 C 0.50366 0.97598 0.30046 0.0
C1101 C 0.49915 0.98747 0.31496 0.0
C1102 C 0.51227 0.00355 0.32628 0.0
C1103 C 0.52948 0.00774 0.32496 0.0
H1104 H 0.54807 0.02628 0.74262 0.0
H1105 H 0.546 0.03395 0.63796 0.0
H1106 H 0.52021 0.02526 0.74949 0.0
H1107 H 0.51861 0.03324 0.64487 0.0
H1108 H 0.46121 -0.00403 0.66095 0.0
H1109 H 0.49149 0.00452 0.66097 0.0
H1110 H 0.50117 0.04119 0.73881 0.0
H1111 H 0.47029 0.03259 0.73884 0.0
C1112 C 0.542 0.02839 0.72137 0.0
C1113 C 0.54896 0.02987 0.68968 0.0
C1114 C 0.5261 0.02782 0.7253 0.0
C1115 C 0.51718 0.02884 0.69759 0.0
C1116 C 0.52512 0.03213 0.66654 0.0
C1117 C 0.54078 0.03254 0.6626 0.0
C1118 C 0.46967 0.00586 0.67819 0.0
C1119 C 0.46333 0.01369 0.69975 0.0
C1120 C 0.48708 0.01082 0.67803 0.0
C1121 C 0.49869 0.02371 0.69949 0.0
C1122 C 0.49243 0.03129 0.72189 0.0
C1123 C 0.47483 0.02639 0.72185 0.0
H1124 H 0.97367 0.44961 0.64648 0.0
H1125 H 0.96685 0.44015 0.75134 0.0
H1126 H 0.97595 0.47766 0.6543 0.0
H1127 H 0.96927 0.46865 0.75917 0.0
H1128 H 0.96371 0.52054 0.73637 0.0
H1129 H 0.95548 0.48976 0.73702 0.0
H1130 H 0.00306 0.50241 0.68742 0.0
H1131 H 0.01128 0.53271 0.6868 0.0
C1132 C 0.97227 0.45338 0.67116 0.0
C1133 C 0.97037 0.44286 0.69837 0.0
C1134 C 0.97358 0.46943 0.6756 0.0
C1135 C 0.9731 0.47536 0.70736 0.0
C1136 C 0.96969 0.46429 0.73445 0.0
C1137 C 0.9683 0.44805 0.72996 0.0
C1138 C 0.9725 0.51671 0.72618 0.0
C1139 C 0.98802 0.52899 0.71108 0.0
C1140 C 0.96779 0.49917 0.72657 0.0
C1141 C 0.97853 0.4938 0.71172 0.0
C1142 C -0.00557 0.50623 0.6985 0.0
C1143 C -0.00087 0.52359 0.6982 0.0
H1144 H 0.51625 0.53514 0.69233 0.0
H1145 H 0.5512 0.52058 0.73667 0.0
H1146 H 0.49358 0.50507 0.69152 0.0
H1147 H 0.52804 0.49007 0.73592 0.0
H1148 H 0.46599 0.44134 0.74836 0.0
H1149 H 0.49227 0.46933 0.7586 0.0
H1150 H 0.49609 0.48068 0.65454 0.0
H1151 H 0.47018 0.45311 0.64427 0.0
C1152 C 0.51904 0.52555 0.70237 0.0
C1153 C 0.5356 0.53021 0.7141 0.0
C1154 C 0.50604 0.50833 0.70188 0.0
C1155 C 0.50922 0.49534 0.71319 0.0
C1156 C 0.52537 0.49994 0.72702 0.0
C1157 C 0.53855 0.51734 0.72742 0.0
C1158 C 0.47279 0.44963 0.72766 0.0
C1159 C 0.46592 0.44523 0.6956 0.0
C1160 C 0.48776 0.46558 0.73353 0.0
C1161 C 0.49593 0.47714 0.70736 0.0
C1162 C 0.48985 0.47203 0.67512 0.0
C1163 C 0.47502 0.45626 0.6693 0.0
H1164 H 0.62691 0.84965 0.62685 0.0
H1165 H 0.68167 0.88564 0.61904 0.0
H1166 H 0.63259 0.82573 0.62949 0.0
H1167 H 0.68734 0.86138 0.62184 0.0
H1168 H 0.68185 0.80428 0.60869 0.0
H1169 H 0.67922 0.82962 0.59357 0.0
H1170 H 0.64876 0.82218 0.68092 0.0
H1171 H 0.65141 0.79736 0.69611 0.0
C1172 C 0.64016 0.85243 0.62496 0.0
C1173 C 0.65387 0.86953 0.62333 0.0
C1174 C 0.64339 0.83872 0.62647 0.0
C1175 C 0.6604 0.84179 0.62643 0.0
C1176 C 0.67411 0.85873 0.62189 0.0
C1177 C 0.67086 0.87257 0.62032 0.0
C1178 C 0.67475 0.80821 0.62473 0.0
C1179 C 0.66669 0.7987 0.65341 0.0
C1180 C 0.67327 0.82266 0.61609 0.0
C1181 C 0.66354 0.82758 0.63584 0.0
C1182 C 0.65607 0.81844 0.66497 0.0
C1183 C 0.65765 0.80424 0.6737 0.0
H1184 H 0.10954 0.79692 0.59986 0.0
H1185 H 0.12919 0.80222 0.69921 0.0
H1186 H 0.1362 0.82355 0.58403 0.0
H1187 H 0.15538 0.82847 0.68335 0.0
H1188 H 0.20589 0.849 0.62492 0.0
H1189 H 0.17608 0.82535 0.62418 0.0
H1190 H 0.15796 0.86195 0.6222 0.0
H1191 H 0.18805 0.88592 0.62255 0.0
C1192 C 0.11932 0.80393 0.61839 0.0
C1193 C 0.11741 0.79739 0.65065 0.0
C1194 C 0.13448 0.8191 0.60933 0.0
C1195 C 0.14768 0.82785 0.63257 0.0
C1196 C 0.14529 0.82185 0.66512 0.0
C1197 C 0.13034 0.8068 0.67407 0.0
C1198 C 0.19559 0.85204 0.62319 0.0
C1199 C 0.19922 0.86925 0.62419 0.0
C1200 C 0.17857 0.83852 0.6226 0.0
C1201 C 0.16489 0.84195 0.62312 0.0
C1202 C 0.1684 0.85911 0.62136 0.0
C1203 C 0.18556 0.87275 0.62162 0.0
H1204 H 0.21332 0.36203 0.60083 0.0
H1205 H 0.18859 0.30832 0.62882 0.0
H1206 H 0.18519 0.35968 0.59287 0.0
H1207 H 0.16022 0.30607 0.6226 0.0
H1208 H 0.11036 0.30818 0.60553 0.0
H1209 H 0.13707 0.30804 0.59145 0.0
H1210 H 0.16695 0.35802 0.6377 0.0
H1211 H 0.14077 0.35827 0.65104 0.0
C1212 C 0.20178 0.3496 0.60448 0.0
C1213 C 0.203 0.3354 0.61574 0.0
C1214 C 0.18569 0.34825 0.60015 0.0
C1215 C 0.17049 0.33283 0.60805 0.0
C1216 C 0.17168 0.31813 0.6163 0.0
C1217 C 0.18788 0.3194 0.61993 0.0
C1218 C 0.1227 0.3192 0.61214 0.0
C1219 C 0.12348 0.3332 0.6295 0.0
C1220 C 0.13795 0.31909 0.60421 0.0
C1221 C 0.15415 0.33309 0.61314 0.0
C1222 C 0.15477 0.3472 0.62971 0.0
C1223 C 0.13968 0.34725 0.63773 0.0
H1224 H 0.03712 0.40921 0.23263 0.0
H1225 H 0.02995 0.36153 0.27418 0.0
H1226 H 0.04924 0.404 0.1826 0.0
H1227 H 0.04222 0.35648 0.22457 0.0
H1228 H 0.07632 0.35806 0.14039 0.0
H1229 H 0.07002 0.36868 0.19111 0.0
H1230 H 0.036 0.38112 0.13702 0.0
H1231 H 0.04211 0.37034 0.08641 0.0
C1232 C 0.03841 0.39779 0.23135 0.0
C1233 C 0.03252 0.38576 0.25737 0.0
C1234 C 0.04526 0.39477 0.20264 0.0
C1235 C 0.04669 0.37983 0.19961 0.0
C1236 C 0.04147 0.36819 0.22622 0.0
C1237 C 0.03435 0.37105 0.25461 0.0
C1238 C 0.06778 0.3634 0.13916 0.0
C1239 C 0.05967 0.36328 0.10933 0.0
C1240 C 0.06409 0.36937 0.16828 0.0
C1241 C 0.05242 0.37563 0.16814 0.0
C1242 C 0.04512 0.37648 0.13794 0.0
C1243 C 0.04859 0.37025 0.10894 0.0
H1244 H 0.62112 0.6583 0.27397 0.0
H1245 H 0.57903 0.61507 0.22404 0.0
H1246 H 0.62673 0.676 0.22472 0.0
H1247 H 0.58477 0.63284 0.17447 0.0
H1248 H 0.62696 0.70726 0.13694 0.0
H1249 H 0.61449 0.68953 0.18628 0.0
H1250 H 0.61001 0.64522 0.13469 0.0
H1251 H 0.62253 0.6629 0.08555 0.0
C1252 C 0.61287 0.65265 0.25264 0.0
C1253 C 0.59968 0.63525 0.25288 0.0
C1254 C 0.61604 0.66284 0.22445 0.0
C1255 C 0.60624 0.65581 0.19563 0.0
C1256 C 0.59261 0.63859 0.19624 0.0
C1257 C 0.58926 0.62845 0.22468 0.0
C1258 C 0.62297 0.69366 0.13591 0.0
C1259 C 0.62584 0.68652 0.10737 0.0
C1260 C 0.61593 0.68353 0.16423 0.0
C1261 C 0.61136 0.666 0.16445 0.0
C1262 C 0.61326 0.65864 0.13527 0.0
C1263 C 0.62052 0.6688 0.10714 0.0
H1264 H 0.32195 0.94753 0.08346 0.0
H1265 H 0.27551 0.91197 0.13567 0.0
H1266 H 0.33867 0.95291 0.13413 0.0
H1267 H 0.29227 0.91748 0.18649 0.0
H1268 H 0.32469 0.95555 0.27249 0.0
H1269 H 0.30741 0.94403 0.22256 0.0
H1270 H 0.34865 0.93934 0.17762 0.0
H1271 H 0.36596 0.95076 0.22786 0.0
C1272 C 0.31535 0.94062 0.10561 0.0
C1273 C 0.29737 0.92936 0.10549 0.0
C1274 C 0.32496 0.94366 0.13466 0.0
C1275 C 0.31679 0.9357 0.16442 0.0
C1276 C 0.29892 0.92392 0.16403 0.0
C1277 C 0.28934 0.92068 0.13485 0.0
C1278 C 0.32999 0.9518 0.25219 0.0
C1279 C 0.34674 0.95412 0.25417 0.0
C1280 C 0.32003 0.94511 0.2236 0.0
C1281 C 0.32666 0.94081 0.19605 0.0
C1282 C 0.34322 0.94263 0.19835 0.0
C1283 C 0.35309 0.94908 0.2272 0.0
H1284 H 0.36751 0.04238 0.94331 0.0
H1285 H 0.36021 0.07994 0.88922 0.0
H1286 H 0.37867 0.03597 0.89359 0.0
H1287 H 0.37122 0.07337 0.83935 0.0
H1288 H 0.36311 0.03342 0.75501 0.0
H1289 H 0.3582 0.04616 0.80411 0.0
H1290 H 0.4028 0.04844 0.85056 0.0
H1291 H 0.40788 0.03585 0.8011 0.0
C1292 C 0.3686 0.04952 0.92098 0.0
C1293 C 0.3629 0.06163 0.92025 0.0
C1294 C 0.37505 0.04588 0.89249 0.0
C1295 C 0.37572 0.05408 0.86246 0.0
C1296 C 0.37074 0.06674 0.86206 0.0
C1297 C 0.36454 0.07059 0.89069 0.0
C1298 C 0.37206 0.03691 0.77546 0.0
C1299 C 0.38586 0.03358 0.77415 0.0
C1300 C 0.36929 0.04429 0.80356 0.0
C1301 C 0.38009 0.04827 0.83128 0.0
C1302 C 0.39421 0.04543 0.82965 0.0
C1303 C 0.39717 0.03832 0.80125 0.0
H1304 H 0.90559 0.27698 0.89795 0.0
H1305 H 0.94155 0.32381 0.94876 0.0
H1306 H 0.91194 0.29309 0.84612 0.0
H1307 H 0.9477 0.33989 0.89706 0.0
H1308 H 0.94647 0.36598 0.80051 0.0
H1309 H 0.93438 0.34945 0.85137 0.0
H1310 H 0.93941 0.30743 0.81126 0.0
H1311 H 0.95168 0.32397 0.76077 0.0
C1312 C 0.91455 0.29077 0.89824 0.0
C1313 C 0.9231 0.29909 0.92752 0.0
C1314 C 0.91827 0.29997 0.86849 0.0
C1315 C 0.93039 0.31775 0.86744 0.0
C1316 C 0.93821 0.32624 0.89706 0.0
C1317 C 0.93472 0.317 0.92668 0.0
C1318 C 0.94473 0.3531 0.80235 0.0
C1319 C 0.95008 0.34631 0.77661 0.0
C1320 C 0.9379 0.34368 0.83155 0.0
C1321 C 0.93596 0.32714 0.83537 0.0
C1322 C 0.94059 0.32006 0.80901 0.0
C1323 C 0.94769 0.32958 0.78011 0.0
H1324 H 0.70697 0.63625 0.8864 0.0
H1325 H 0.6626 0.6062 0.94789 0.0
H1326 H 0.68918 0.62504 0.83752 0.0
H1327 H 0.64484 0.59323 0.89922 0.0
H1328 H 0.61248 0.59073 0.81044 0.0
H1329 H 0.63011 0.59685 0.85941 0.0
H1330 H 0.67386 0.60664 0.79827 0.0
H1331 H 0.65635 0.60232 0.74938 0.0
C1332 C 0.69344 0.62668 0.88928 0.0
C1333 C 0.68612 0.6221 0.92078 0.0
C1334 C 0.68311 0.62007 0.86112 0.0
C1335 C 0.66522 0.60818 0.86367 0.0
C1336 C 0.65828 0.60277 0.89561 0.0
C1337 C 0.66851 0.60997 0.92375 0.0
C1338 C 0.62583 0.59396 0.80768 0.0
C1339 C 0.63308 0.5961 0.77623 0.0
C1340 C 0.63607 0.59743 0.83593 0.0
C1341 C 0.65378 0.60255 0.83354 0.0
C1342 C 0.66059 0.60343 0.80171 0.0
C1343 C 0.65049 0.60066 0.77346 0.0
H1344 H 0.95831 0.6242 0.93778 0.0
H1345 H 0.91197 0.61962 0.89469 0.0
H1346 H 0.96298 0.61155 0.88832 0.0
H1347 H 0.91684 0.60717 0.84477 0.0
H1348 H 0.95327 0.61661 0.75123 0.0
H1349 H 0.94135 0.62151 0.80153 0.0
H1350 H 0.94975 0.5839 0.85265 0.0
H1351 H 0.96148 0.57878 0.80208 0.0
C1352 C 0.94897 0.62024 0.91793 0.0
C1353 C 0.93482 0.62298 0.92006 0.0
C1354 C 0.9516 0.6129 0.88967 0.0
C1355 C 0.94029 0.6084 0.86267 0.0
C1356 C 0.92578 0.61056 0.86521 0.0
C1357 C 0.92296 0.61761 0.8938 0.0
C1358 C 0.9522 0.60909 0.77298 0.0
C1359 C 0.9584 0.59738 0.77274 0.0
C1360 C 0.94531 0.61184 0.80175 0.0
C1361 C 0.94472 0.60316 0.83105 0.0
C1362 C 0.95014 0.59083 0.83043 0.0
C1363 C 0.95676 0.58784 0.80145 0.0
H1364 H 0.3704 0.32726 0.94296 0.0
H1365 H 0.36884 0.28323 0.89555 0.0
H1366 H 0.38073 0.34376 0.89172 0.0
H1367 H 0.37879 0.29968 0.84398 0.0
H1368 H 0.36715 0.32808 0.75526 0.0
H1369 H 0.36284 0.31165 0.80608 0.0
H1370 H 0.40698 0.35554 0.84971 0.0
H1371 H 0.4116 0.37191 0.79846 0.0
C1372 C 0.37251 0.3212 0.92173 0.0
C1373 C 0.3688 0.30394 0.92329 0.0
C1374 C 0.37848 0.33067 0.89244 0.0
C1375 C 0.38051 0.32298 0.86387 0.0
C1376 C 0.37729 0.3059 0.86564 0.0
C1377 C 0.3717 0.29654 0.89519 0.0
C1378 C 0.37614 0.33413 0.77546 0.0
C1379 C 0.38971 0.35129 0.77285 0.0
C1380 C 0.3737 0.32469 0.8045 0.0
C1381 C 0.38456 0.33234 0.83184 0.0
C1382 C 0.39841 0.34936 0.829 0.0
C1383 C 0.40109 0.35867 0.79964 0.0
H1384 H 0.66279 0.0415 0.93898 0.0
H1385 H 0.70929 0.08002 0.89085 0.0
H1386 H 0.64652 0.03751 0.88807 0.0
H1387 H 0.69302 0.07578 0.83976 0.0
H1388 H 0.66196 0.03818 0.75095 0.0
H1389 H 0.67857 0.04869 0.80195 0.0
H1390 H 0.63715 0.05345 0.84578 0.0
H1391 H 0.62059 0.04323 0.79435 0.0
C1392 C 0.66947 0.04935 0.91772 0.0
C1393 C 0.68735 0.06104 0.91894 0.0
C1394 C 0.66014 0.0471 0.8886 0.0
C1395 C 0.66853 0.05626 0.8599 0.0
C1396 C 0.68625 0.06847 0.86147 0.0
C1397 C 0.69553 0.07097 0.89079 0.0
C1398 C 0.65651 0.04175 0.77126 0.0
C1399 C 0.63996 0.03985 0.76864 0.0
C1400 C 0.66606 0.04784 0.80041 0.0
C1401 C 0.65915 0.05187 0.82786 0.0
C1402 C 0.64277 0.0504 0.82503 0.0
C1403 C 0.63334 0.04463 0.79556 0.0
H1404 H 0.61822 0.95413 0.07811 0.0
H1405 H 0.62243 0.91419 0.13024 0.0
H1406 H 0.60824 0.9613 0.12845 0.0
H1407 H 0.61251 0.92147 0.1808 0.0
H1408 H 0.62335 0.96145 0.26672 0.0
H1409 H 0.62666 0.94777 0.2174 0.0
H1410 H 0.58457 0.95053 0.17105 0.0
H1411 H 0.58116 0.96417 0.22061 0.0
C1412 C 0.61671 0.94666 0.10018 0.0
C1413 C 0.6212 0.93364 0.10016 0.0
C1414 C 0.61091 0.95073 0.12902 0.0
C1415 C 0.60966 0.94202 0.1587 0.0
C1416 C 0.61346 0.9285 0.15839 0.0
C1417 C 0.61904 0.92427 0.12937 0.0
C1418 C 0.61457 0.95885 0.24627 0.0
C1419 C 0.60204 0.96398 0.24758 0.0
C1420 C 0.61642 0.95092 0.21803 0.0
C1421 C 0.60594 0.94813 0.19021 0.0
C1422 C 0.59293 0.95262 0.19198 0.0
C1423 C 0.59091 0.96034 0.22046 0.0
H1424 H 0.02725 0.61459 0.2215 0.0
H1425 H 0.02912 0.65761 0.27375 0.0
H1426 H 0.03927 0.63282 0.17255 0.0
H1427 H 0.04119 0.67577 0.22508 0.0
H1428 H 0.07133 0.70753 0.13721 0.0
H1429 H 0.06655 0.68945 0.18591 0.0
H1430 H 0.02612 0.64559 0.13435 0.0
H1431 H 0.03079 0.6636 0.08592 0.0
C1432 C 0.03058 0.62802 0.22279 0.0
C1433 C 0.02713 0.63462 0.25143 0.0
C1434 C 0.03737 0.63842 0.19471 0.0
C1435 C 0.04111 0.65571 0.1949 0.0
C1436 C 0.0386 0.66256 0.2242 0.0
C1437 C 0.03159 0.65211 0.25205 0.0
C1438 C 0.06167 0.69395 0.13606 0.0
C1439 C 0.05135 0.68703 0.10779 0.0
C1440 C 0.05888 0.68362 0.164 0.0
C1441 C 0.04591 0.66611 0.16403 0.0
C1442 C 0.03631 0.65898 0.13505 0.0
C1443 C 0.03893 0.66934 0.10734 0.0
H1444 H 0.32422 0.36112 0.26872 0.0
H1445 H 0.36395 0.40952 0.22841 0.0
H1446 H 0.30684 0.35613 0.21917 0.0
H1447 H 0.34655 0.40441 0.17848 0.0
H1448 H 0.32122 0.3714 0.08143 0.0
H1449 H 0.33775 0.38228 0.1324 0.0
H1450 H 0.29065 0.36753 0.18583 0.0
H1451 H 0.27407 0.35673 0.13474 0.0
C1452 C 0.32914 0.37082 0.24946 0.0
C1453 C 0.3455 0.38569 0.25249 0.0
C1454 C 0.31913 0.368 0.22111 0.0
C1455 C 0.32532 0.37986 0.19484 0.0
C1456 C 0.34147 0.395 0.19823 0.0
C1457 C 0.35138 0.39796 0.22689 0.0
C1458 C 0.31441 0.37081 0.1039 0.0
C1459 C 0.29631 0.36311 0.104 0.0
C1460 C 0.32391 0.37711 0.13311 0.0
C1461 C 0.3155 0.37565 0.16322 0.0
C1462 C 0.29748 0.3687 0.16307 0.0
C1463 C 0.288 0.36262 0.13375 0.0
H1464 H 0.69859 0.74679 0.55836 0.0
H1465 H 0.70045 0.70548 0.6102 0.0
H1466 H 0.70949 0.73993 0.50857 0.0
H1467 H 0.71149 0.69879 0.5607 0.0
H1468 H 0.74154 0.69778 0.47109 0.0
H1469 H 0.73681 0.71067 0.52044 0.0
H1470 H 0.69555 0.71354 0.47077 0.0
H1471 H 0.70011 0.70052 0.42171 0.0
C1472 C 0.70167 0.7365 0.55935 0.0
C1473 C 0.69858 0.72663 0.5882 0.0
C1474 C 0.70782 0.73251 0.53079 0.0
C1475 C 0.7113 0.71878 0.53068 0.0
C1476 C 0.70908 0.70953 0.56005 0.0
C1477 C 0.70267 0.71332 0.58838 0.0
C1478 C 0.73168 0.70146 0.47051 0.0
C1479 C 0.72115 0.69805 0.44252 0.0
C1480 C 0.72891 0.70875 0.49883 0.0
C1481 C 0.71577 0.71307 0.49954 0.0
C1482 C 0.70587 0.7105 0.47093 0.0
C1483 C 0.70843 0.70296 0.44286 0.0
H1484 H 0.28635 -0.00324 0.41612 0.0
H1485 H 0.29032 0.04042 0.46945 0.0
H1486 H 0.27522 0.97892 0.4654 0.0
H1487 H 0.27906 0.02249 0.51888 0.0
H1488 H 0.28567 0.99183 0.60651 0.0
H1489 H 0.29084 0.00956 0.55747 0.0
H1490 H 0.25131 0.96526 0.50536 0.0
H1491 H 0.24617 0.94745 0.55453 0.0
C1492 C 0.28455 0.00249 0.4382 0.0
C1493 C 0.28932 0.02007 0.43879 0.0
C1494 C 0.27807 0.99221 0.46648 0.0
C1495 C 0.27633 -0.00073 0.49625 0.0
C1496 C 0.28042 0.01668 0.49649 0.0
C1497 C 0.28676 0.02693 0.46806 0.0
C1498 C 0.27786 0.98591 0.5848 0.0
C1499 C 0.26555 0.96817 0.58448 0.0
C1500 C 0.28078 -0.00388 0.55666 0.0
C1501 C 0.27158 0.98884 0.52731 0.0
C1502 C 0.25877 0.97125 0.5274 0.0
C1503 C 0.25573 0.96106 0.55569 0.0
H1504 H -0.00355 0.2747 0.61721 0.0
H1505 H 0.03891 0.30645 0.55274 0.0
H1506 H 0.97752 0.26216 0.56981 0.0
H1507 H 0.0199 0.29549 0.50538 0.0
H1508 H 0.98485 0.27208 0.41951 0.0
H1509 H 0.00389 0.27718 0.46629 0.0
H1510 H 0.96142 0.2656 0.5325 0.0
H1511 H 0.94234 0.25888 0.48558 0.0
C1512 C 0.00171 0.27896 0.59273 0.0
C1513 C 0.01916 0.29147 0.58866 0.0
C1514 C 0.99078 0.27198 0.56532 0.0
C1515 C -0.00321 0.27788 0.53303 0.0
C1516 C 0.01451 0.29015 0.52925 0.0
C1517 C 0.02555 0.29661 0.5566 0.0
C1518 C 0.9796 0.27025 0.44419 0.0
C1519 C 0.9621 0.26499 0.44888 0.0
C1520 C 0.99059 0.27345 0.47128 0.0
C1521 C 0.98457 0.27221 0.50394 0.0
C1522 C 0.96682 0.26647 0.50828 0.0
C1523 C 0.95573 0.26266 0.48118 0.0
H1524 H 0.29252 0.29424 0.41991 0.0
H1525 H 0.29263 0.25201 0.47174 0.0
H1526 H 0.27928 0.29966 0.46744 0.0
H1527 H 0.27927 0.25743 0.51945 0.0
H1528 H 0.28414 0.29348 0.60852 0.0
H1529 H 0.29028 0.28124 0.56024 0.0
H1530 H 0.25357 0.28867 0.50345 0.0
H1531 H 0.24744 0.30102 0.55187 0.0
C1532 C 0.28941 0.28589 0.44123 0.0
C1533 C 0.29375 0.27276 0.44206 0.0
C1534 C 0.28172 0.28894 0.46847 0.0
C1535 C 0.27829 0.27905 0.49738 0.0
C1536 C 0.2819 0.2654 0.49768 0.0
C1537 C 0.28946 0.26222 0.47025 0.0
C1538 C 0.2771 0.2922 0.58593 0.0
C1539 C 0.26538 0.29835 0.58404 0.0
C1540 C 0.28057 0.28509 0.55825 0.0
C1541 C 0.27252 0.28408 0.52785 0.0
C1542 C 0.26014 0.28944 0.52639 0.0
C1543 C 0.25654 0.29641 0.55421 0.0
H1544 H 0.67813 0.94885 0.54421 0.0
H1545 H 0.70988 0.99086 0.60969 0.0
H1546 H 0.6907 0.96765 0.49711 0.0
H1547 H 0.72404 0.00952 0.56261 0.0
H1548 H 0.73045 0.04518 0.47675 0.0
H1549 H 0.72218 0.02612 0.52418 0.0
H1550 H 0.70998 0.98299 0.45917 0.0
H1551 H 0.71653 0.00205 0.41192 0.0
C1552 C 0.68834 0.96203 0.54839 0.0
C1553 C 0.693 0.9684 0.58058 0.0
C1554 C 0.69573 0.97295 0.52119 0.0
C1555 C 0.70848 0.99049 0.52532 0.0
C1556 C 0.71391 -0.00358 0.55784 0.0
C1557 C 0.706 0.98563 0.58506 0.0
C1558 C 0.72614 0.03162 0.47285 0.0
C1559 C 0.72407 0.02505 0.44079 0.0
C1560 C 0.72146 0.02056 0.50017 0.0
C1561 C 0.7151 0.00265 0.49622 0.0
C1562 C 0.71413 -0.00358 0.46381 0.0
C1563 C 0.71816 0.0074 0.43649 0.0
H1564 H -0.00307 0.70425 0.60748 0.0
H1565 H 0.04154 0.74526 0.55875 0.0
H1566 H 0.98009 0.69878 0.55695 0.0
H1567 H 0.02469 0.73957 0.50789 0.0
H1568 H -0.00479 0.69989 0.42026 0.0
H1569 H 0.0121 0.71251 0.47026 0.0
H1570 H 0.96837 0.71255 0.51525 0.0
H1571 H 0.95147 0.70015 0.46484 0.0
C1572 C 0.00305 0.71229 0.58613 0.0
C1573 C 0.02058 0.72513 0.58705 0.0
C1574 C 0.99338 0.70922 0.55724 0.0
C1575 C 0.0011 0.71871 0.52846 0.0
C1576 C 0.01844 0.73202 0.52971 0.0
C1577 C 0.02805 0.73533 0.55884 0.0
C1578 C 0.98929 0.7029 0.44057 0.0
C1579 C 0.97199 0.69896 0.43867 0.0
C1580 C -0.001 0.71021 0.46913 0.0
C1581 C 0.99154 0.71347 0.49667 0.0
C1582 C 0.97442 0.71012 0.4944 0.0
C1583 C 0.96479 0.7031 0.46552 0.0
H1584 H 0.08953 0.32196 0.93238 0.0
H1585 H 0.05491 0.34263 0.92993 0.0
H1586 H 0.08588 0.31676 0.87365 0.0
H1587 H 0.05174 0.33798 0.8702 0.0
H1588 H 0.03689 0.31179 0.76818 0.0
H1589 H 0.03925 0.31564 0.82817 0.0
H1590 H 0.09332 0.33085 0.82271 0.0
H1591 H 0.09081 0.32642 0.76372 0.0
C1592 C 0.08136 0.32573 0.91923 0.0
C1593 C 0.07259 0.33282 0.93611 0.0
C1594 C 0.07928 0.32275 0.8853 0.0
C1595 C 0.06849 0.3269 0.8669 0.0
C1596 C 0.05996 0.33436 0.88357 0.0
C1597 C 0.06198 0.33727 0.91778 0.0
C1598 C 0.04916 0.31557 0.77996 0.0
C1599 C 0.06362 0.31871 0.76099 0.0
C1600 C 0.0506 0.31805 0.81432 0.0
C1601 C 0.06652 0.32369 0.83048 0.0
C1602 C 0.08078 0.3263 0.81146 0.0
C1603 C 0.07933 0.32378 0.77739 0.0
H1604 H 0.65072 0.74866 0.92668 0.0
H1605 H 0.66123 0.70657 0.93486 0.0
H1606 H 0.65785 0.75144 0.86838 0.0
H1607 H 0.6691 0.70977 0.87654 0.0
H1608 H 0.66753 0.71259 0.76162 0.0
H1609 H 0.6606 0.70734 0.82018 0.0
H1610 H 0.68293 0.76228 0.83589 0.0
H1611 H 0.68913 0.76736 0.77726 0.0
C1612 C 0.65436 0.73985 0.91588 0.0
C1613 C 0.6554 0.72741 0.93544 0.0
C1614 C 0.65874 0.74161 0.88249 0.0
C1615 C 0.66458 0.73118 0.86776 0.0
C1616 C 0.6647 0.71807 0.88692 0.0
C1617 C 0.66009 0.71616 0.92037 0.0
C1618 C 0.67139 0.72358 0.77777 0.0
C1619 C 0.67881 0.7404 0.76475 0.0
C1620 C 0.66731 0.72056 0.81141 0.0
C1621 C 0.67073 0.73432 0.83279 0.0
C1622 C 0.67949 0.75126 0.82007 0.0
C1623 C 0.68334 0.75424 0.78649 0.0
H1624 H 0.28317 0.9342 0.92559 0.0
H1625 H 0.22904 0.8954 0.92586 0.0
H1626 H 0.28196 0.93691 0.86565 0.0
H1627 H 0.22768 0.89856 0.86691 0.0
H1628 H 0.23362 0.89491 0.75765 0.0
H1629 H 0.23601 0.89251 0.8165 0.0
H1630 H 0.27062 0.94763 0.82292 0.0
H1631 H 0.26875 0.94997 0.76298 0.0
C1632 C 0.27109 0.9261 0.91291 0.0
C1633 C 0.25625 0.9145 0.93069 0.0
C1634 C 0.27032 0.92784 0.87857 0.0
C1635 C 0.2547 0.91803 0.86124 0.0
C1636 C 0.24002 0.90619 0.87909 0.0
C1637 C 0.2408 0.90439 0.91314 0.0
C1638 C 0.24165 0.90663 0.77145 0.0
C1639 C 0.25095 0.92267 0.75534 0.0
C1640 C 0.24299 0.90523 0.80547 0.0
C1641 C 0.25351 0.91986 0.82476 0.0
C1642 C 0.26257 0.93603 0.80886 0.0
C1643 C 0.26131 0.93743 0.77453 0.0
H1644 H 0.31739 0.08886 0.09515 0.0
H1645 H 0.34225 0.05796 0.09815 0.0
H1646 H 0.31166 0.08447 0.15356 0.0
H1647 H 0.33709 0.05412 0.15774 0.0
H1648 H 0.31134 0.0382 0.2602 0.0
H1649 H 0.31503 0.04037 0.20012 0.0
H1650 H 0.32577 0.09319 0.20417 0.0
H1651 H 0.32146 0.09081 0.26312 0.0
C1652 C 0.32194 0.08135 0.10836 0.0
C1653 C 0.33044 0.07389 0.09174 0.0
C1654 C 0.31865 0.07885 0.14212 0.0
C1655 C 0.32395 0.06899 0.16068 0.0
C1656 C 0.33262 0.06162 0.14424 0.0
C1657 C 0.3358 0.06402 0.11014 0.0
C1658 C 0.31408 0.0501 0.24806 0.0
C1659 C 0.31602 0.06429 0.2666 0.0
C1660 C 0.31647 0.05146 0.21367 0.0
C1661 C 0.3208 0.067 0.1971 0.0
C1662 C 0.32221 0.08092 0.21572 0.0
C1663 C 0.31978 0.07955 0.24978 0.0
H1664 H 0.88693 0.24044 0.27842 0.0
H1665 H 0.9426 0.26793 0.27088 0.0
H1666 H 0.88458 0.24348 0.21972 0.0
H1667 H 0.9402 0.27043 0.21113 0.0
H1668 H 0.92958 0.28573 0.1087 0.0
H1669 H 0.93214 0.28453 0.1687 0.0
H1670 H 0.88805 0.23286 0.16921 0.0
H1671 H 0.88516 0.23428 0.11014 0.0
C1672 C 0.89874 0.24692 0.26418 0.0
C1673 C 0.91498 0.25385 0.2796 0.0
C1674 C 0.89736 0.24863 0.23026 0.0
C1675 C 0.91218 0.25718 0.21041 0.0
C1676 C 0.92849 0.26396 0.22565 0.0
C1677 C 0.92988 0.26232 0.25987 0.0
C1678 C 0.92021 0.27429 0.12179 0.0
C1679 C 0.90711 0.26015 0.10447 0.0
C1680 C 0.92184 0.27348 0.15615 0.0
C1681 C 0.91038 0.25854 0.17397 0.0
C1682 C 0.89701 0.24468 0.15662 0.0
C1683 C 0.89537 0.24549 0.12252 0.0
H1684 H 0.75749 0.67925 0.25684 0.0
H1685 H 0.70342 0.6625 0.26963 0.0
H1686 H 0.75259 0.6722 0.19853 0.0
H1687 H 0.69831 0.65481 0.21113 0.0
H1688 H 0.70076 0.65581 0.09521 0.0
H1689 H 0.70292 0.66355 0.1536 0.0
H1690 H 0.73953 0.64589 0.1683 0.0
H1691 H 0.73778 0.63876 0.11009 0.0
C1692 C 0.74458 0.67432 0.24702 0.0
C1693 C 0.73085 0.6714 0.26789 0.0
C1694 C 0.74169 0.67001 0.21364 0.0
C1695 C 0.72493 0.66239 0.20023 0.0
C1696 C 0.71137 0.66057 0.22059 0.0
C1697 C 0.71431 0.66509 0.2541 0.0
C1698 C 0.70891 0.65317 0.11116 0.0
C1699 C 0.71918 0.64676 0.09799 0.0
C1700 C 0.71024 0.65772 0.14462 0.0
C1701 C 0.72179 0.65584 0.16556 0.0
C1702 C 0.73097 0.64813 0.15275 0.0
C1703 C 0.72978 0.64378 0.11942 0.0
H1704 H 0.96028 0.66647 0.26748 0.0
H1705 H 0.92506 0.68519 0.24614 0.0
H1706 H 0.95832 0.65724 0.20992 0.0
H1707 H 0.92312 0.67595 0.18916 0.0
H1708 H 0.9015 0.63473 0.11227 0.0
H1709 H 0.90855 0.64442 0.16907 0.0
H1710 H 0.96289 0.6676 0.14726 0.0
H1711 H 0.95587 0.65792 0.08985 0.0
C1712 C 0.9526 0.66915 0.25036 0.0
C1713 C 0.94265 0.67638 0.26154 0.0
C1714 C 0.95138 0.66373 0.21747 0.0
C1715 C 0.94016 0.66541 0.1954 0.0
C1716 C 0.93151 0.67407 0.2059 0.0
C1717 C 0.93276 0.67952 0.2385 0.0
C1718 C 0.91496 0.64151 0.11963 0.0
C1719 C 0.9281 0.64572 0.09634 0.0
C1720 C 0.919 0.64722 0.15213 0.0
C1721 C 0.93628 0.6572 0.16229 0.0
C1722 C 0.94947 0.66007 0.13997 0.0
C1723 C 0.94541 0.65439 0.10717 0.0
H1724 H 0.32895 0.28711 0.27195 0.0
H1725 H 0.32319 0.23629 0.26354 0.0
H1726 H 0.33714 0.29257 0.21379 0.0
H1727 H 0.33078 0.24147 0.20551 0.0
H1728 H 0.36359 0.26005 0.11641 0.0
H1729 H 0.35647 0.25816 0.17468 0.0
H1730 H 0.32891 0.2857 0.15667 0.0
H1731 H 0.3366 0.2881 0.09834 0.0
C1732 C 0.32895 0.27692 0.25748 0.0
C1733 C 0.32551 0.26129 0.27247 0.0
C1734 C 0.33374 0.28009 0.22413 0.0
C1735 C 0.3351 0.26765 0.20504 0.0
C1736 C 0.33049 0.25161 0.21963 0.0
C1737 C 0.32588 0.24852 0.25287 0.0
C1738 C 0.35641 0.26612 0.12502 0.0
C1739 C 0.35064 0.27418 0.10267 0.0
C1740 C 0.35207 0.2648 0.1584 0.0
C1741 C 0.34162 0.27129 0.17034 0.0
C1742 C 0.33691 0.28049 0.14843 0.0
C1743 C 0.34143 0.28197 0.11496 0.0
H1744 H 0.71024 0.04112 0.26668 0.0
H1745 H 0.76515 0.07296 0.25092 0.0
H1746 H 0.70506 0.04356 0.20835 0.0
H1747 H 0.76007 0.07489 0.19253 0.0
H1748 H 0.74689 0.09532 0.10333 0.0
H1749 H 0.74958 0.09016 0.16131 0.0
H1750 H 0.70737 0.03774 0.15149 0.0
H1751 H 0.70433 0.04317 0.09345 0.0
C1752 C 0.72126 0.04812 0.25056 0.0
C1753 C 0.73812 0.05694 0.26354 0.0
C1754 C 0.71827 0.04962 0.21706 0.0
C1755 C 0.7321 0.05984 0.19575 0.0
C1756 C 0.74903 0.06742 0.20834 0.0
C1757 C 0.752 0.06608 0.24179 0.0
C1758 C 0.73794 0.0828 0.11368 0.0
C1759 C 0.72542 0.06967 0.0937 0.0
C1760 C 0.73965 0.07972 0.14688 0.0
C1761 C 0.72903 0.06335 0.16103 0.0
C1762 C 0.71582 0.05049 0.14152 0.0
C1763 C 0.71399 0.05364 0.10824 0.0
H1764 H 0.63689 0.89532 0.7502 0.0
H1765 H 0.67106 0.95046 0.75859 0.0
H1766 H 0.63165 0.89338 0.80883 0.0
H1767 H 0.66627 0.94836 0.81838 0.0
H1768 H 0.64191 0.94021 0.92173 0.0
H1769 H 0.64501 0.94273 0.8616 0.0
H1770 H 0.64566 0.89469 0.85849 0.0
H1771 H 0.64199 0.8919 0.91763 0.0
C1772 C 0.64354 0.90706 0.76461 0.0
C1773 C 0.65454 0.92306 0.74948 0.0
C1774 C 0.64053 0.90591 0.79849 0.0
C1775 C 0.64857 0.92067 0.81859 0.0
C1776 C 0.65968 0.93673 0.80363 0.0
C1777 C 0.66261 0.93792 0.76941 0.0
C1778 C 0.64228 0.93 0.90803 0.0
C1779 C 0.64162 0.91581 0.92459 0.0
C1780 C 0.64434 0.93157 0.87361 0.0
C1781 C 0.64571 0.91898 0.85505 0.0
C1782 C 0.64444 0.90456 0.87168 0.0
C1783 C 0.64236 0.90297 0.90581 0.0
H1784 H 0.03483 0.70843 0.76153 0.0
H1785 H 0.06731 0.76335 0.77651 0.0
H1786 H 0.03637 0.70351 0.82043 0.0
H1787 H 0.06839 0.75855 0.83529 0.0
H1788 H 0.08774 0.74559 0.92565 0.0
H1789 H 0.08317 0.7474 0.86704 0.0
H1790 H 0.02997 0.70696 0.87718 0.0
H1791 H 0.03477 0.7048 0.936 0.0
C1792 C 0.04178 0.7195 0.77756 0.0
C1793 C 0.05106 0.73628 0.76433 0.0
C1794 C 0.04276 0.71667 0.81133 0.0
C1795 C 0.05294 0.73058 0.8325 0.0
C1796 C 0.06094 0.74746 0.81956 0.0
C1797 C 0.06011 0.75026 0.7859 0.0
C1798 C 0.07517 0.73682 0.91526 0.0
C1799 C 0.06161 0.72511 0.93551 0.0
C1800 C 0.07245 0.73802 0.88171 0.0
C1801 C 0.05604 0.72771 0.86751 0.0
C1802 C 0.04275 0.71516 0.88729 0.0
C1803 C 0.04553 0.71384 0.92098 0.0
H1804 H 0.26809 0.31889 0.75902 0.0
H1805 H 0.23421 0.34045 0.75768 0.0
H1806 H 0.26973 0.32131 0.81923 0.0
H1807 H 0.23623 0.34327 0.81716 0.0
H1808 H 0.22804 0.32822 0.92545 0.0
H1809 H 0.22705 0.32621 0.86585 0.0
H1810 H 0.28151 0.34288 0.86369 0.0
H1811 H 0.28242 0.34447 0.92405 0.0
C1812 C 0.26087 0.32398 0.77151 0.0
C1813 C 0.25093 0.32936 0.7534 0.0
C1814 C 0.262 0.32559 0.80599 0.0
C1815 C 0.25318 0.33257 0.82314 0.0
C1816 C 0.24305 0.33766 0.80497 0.0
C1817 C 0.24191 0.33604 0.77069 0.0
C1818 C 0.23991 0.33166 0.91239 0.0
C1819 C 0.25533 0.33653 0.92969 0.0
C1820 C 0.23933 0.33054 0.87805 0.0
C1821 C 0.25417 0.3343 0.85982 0.0
C1822 C 0.26977 0.33964 0.87697 0.0
C1823 C 0.27035 0.34079 0.91154 0.0
H1824 H 0.02109 0.42078 0.45245 0.0
H1825 H -0.00087 0.36664 0.42883 0.0
H1826 H 0.00997 0.41315 0.50832 0.0
H1827 H 0.98808 0.35906 0.48533 0.0
H1828 H 0.98559 0.36014 0.60545 0.0
H1829 H -0.00316 0.3632 0.54915 0.0
H1830 H 0.97794 0.39797 0.52573 0.0
H1831 H 0.96661 0.39487 0.58132 0.0
C1832 C 0.01429 0.40725 0.45935 0.0
C1833 C 0.01088 0.39435 0.43586 0.0
C1834 C 0.00776 0.40288 0.49135 0.0
C1835 C -0.00225 0.38549 0.50094 0.0
C1836 C -0.00436 0.37257 0.47855 0.0
C1837 C 0.0021 0.37695 0.44624 0.0
C1838 C 0.98333 0.36798 0.58797 0.0
C1839 C 0.97531 0.37738 0.59812 0.0
C1840 C 0.98991 0.36983 0.5558 0.0
C1841 C 0.98869 0.3812 0.53335 0.0
C1842 C 0.97947 0.38945 0.54274 0.0
C1843 C 0.97281 0.38752 0.57458 0.0
H1844 H 0.61857 0.61542 0.60056 0.0
H1845 H 0.5769 0.56288 0.59023 0.0
H1846 H 0.61665 0.62031 0.54172 0.0
H1847 H 0.57544 0.5674 0.5315 0.0
H1848 H 0.56078 0.58316 0.43927 0.0
H1849 H 0.56499 0.58165 0.49815 0.0
H1850 H 0.62008 0.61465 0.48554 0.0
H1851 H 0.61564 0.61676 0.4266 0.0
C1852 C 0.60939 0.60476 0.58549 0.0
C1853 C 0.59784 0.58878 0.60001 0.0
C1854 C 0.60821 0.60758 0.55176 0.0
C1855 C 0.59555 0.59441 0.53185 0.0
C1856 C 0.58491 0.57807 0.54615 0.0
C1857 C 0.58592 0.57536 0.57978 0.0
C1858 C 0.57373 0.59046 0.44923 0.0
C1859 C 0.58786 0.60007 0.42831 0.0
C1860 C 0.57622 0.58937 0.48295 0.0
C1861 C 0.59296 0.59757 0.49662 0.0
C1862 C 0.60701 0.60812 0.476 0.0
C1863 C 0.60447 0.60943 0.44219 0.0
H1864 H 0.42054 0.01345 0.58474 0.0
H1865 H 0.36706 -0.00212 0.60243 0.0
H1866 H 0.41367 0.00373 0.52797 0.0
H1867 H 0.36012 0.98795 0.5451 0.0
H1868 H 0.36262 0.98722 0.42673 0.0
H1869 H 0.36524 -0.00354 0.48436 0.0
H1870 H 0.39763 0.97432 0.50441 0.0
H1871 H 0.39519 0.9653 0.44717 0.0
C1872 C 0.40734 0.00826 0.57633 0.0
C1873 C 0.39434 0.00635 0.59829 0.0
C1874 C 0.40336 0.00248 0.54383 0.0
C1875 C 0.38625 0.99457 0.53225 0.0
C1876 C 0.3734 0.99385 0.55334 0.0
C1877 C 0.37741 -0.00032 0.58612 0.0
C1878 C 0.36983 0.98383 0.4437 0.0
C1879 C 0.37883 0.97565 0.4322 0.0
C1880 C 0.37144 0.98926 0.47669 0.0
C1881 C 0.38207 0.9866 0.49873 0.0
C1882 C 0.38977 0.97706 0.48784 0.0
C1883 C 0.38819 0.97168 0.45506 0.0
H1884 H 0.57339 -0.00367 0.43225 0.0
H1885 H 0.62287 -0.0005 0.41909 0.0
H1886 H 0.58054 0.00513 0.48937 0.0
H1887 H 0.63016 0.00859 0.47678 0.0
H1888 H 0.62555 0.00852 0.59436 0.0
H1889 H 0.62259 0.00016 0.53624 0.0
H1890 H 0.60067 0.0327 0.51548 0.0
H1891 H 0.60333 0.04079 0.57335 0.0
C1892 C 0.58573 -0.00134 0.4417 0.0
C1893 C 0.59759 -0.00268 0.42097 0.0
C1894 C 0.58992 0.00393 0.47441 0.0
C1895 C 0.60615 0.00809 0.48741 0.0
C1896 C 0.61761 0.00561 0.46744 0.0
C1897 C 0.61338 0.00029 0.43447 0.0
C1898 C 0.62063 0.01434 0.57719 0.0
C1899 C 0.6145 0.0252 0.58862 0.0
C1900 C 0.61883 0.00944 0.54389 0.0
C1901 C 0.6109 0.01534 0.52142 0.0
C1902 C 0.60633 0.02747 0.53235 0.0
C1903 C 0.60806 0.0323 0.56549 0.0
H1904 H 0.97756 0.5619 0.58811 0.0
H1905 H 0.99251 0.61568 0.59833 0.0
H1906 H 0.98221 0.56572 0.52897 0.0
H1907 H -0.00197 0.61983 0.53902 0.0
H1908 H 0.99312 0.61587 0.42421 0.0
H1909 H 0.98767 0.61439 0.48355 0.0
H1910 H 0.00629 0.57827 0.49405 0.0
H1911 H 0.01087 0.57917 0.43487 0.0
C1912 C 0.98165 0.57452 0.57756 0.0
C1913 C 0.98469 0.58848 0.59783 0.0
C1914 C 0.9846 0.57681 0.54368 0.0
C1915 C 0.99105 0.59323 0.52919 0.0
C1916 C 0.99311 0.60701 0.54923 0.0
C1917 C 0.98986 0.60463 0.58322 0.0
C1918 C -0.00359 0.60795 0.43943 0.0
C1919 C 0.00234 0.59757 0.42494 0.0
C1920 C 0.9932 0.60702 0.47344 0.0
C1921 C -0.00394 0.59583 0.49362 0.0
C1922 C 0.00328 0.58652 0.47924 0.0
C1923 C 0.00619 0.58724 0.44534 0.0
H1924 H 0.39279 0.42092 0.44572 0.0
H1925 H 0.36094 0.36656 0.42367 0.0
H1926 H 0.39646 0.41382 0.50194 0.0
H1927 H 0.36458 0.3595 0.48056 0.0
H1928 H 0.36825 0.36222 0.60093 0.0
H1929 H 0.35997 0.36443 0.54418 0.0
H1930 H 0.41351 0.39875 0.52011 0.0
H1931 H 0.42184 0.3965 0.57621 0.0
C1932 C 0.38617 0.40745 0.45304 0.0
C1933 C 0.37673 0.39433 0.42992 0.0
C1934 C 0.38843 0.40339 0.48524 0.0
C1935 C 0.3812 0.38609 0.49536 0.0
C1936 C 0.37042 0.37294 0.47332 0.0
C1937 C 0.36824 0.37702 0.44081 0.0
C1938 C 0.37831 0.36977 0.58325 0.0
C1939 C 0.39572 0.37934 0.59333 0.0
C1940 C 0.37353 0.37113 0.55081 0.0
C1941 C 0.38605 0.38215 0.52804 0.0
C1942 C 0.40353 0.3905 0.53739 0.0
C1943 C 0.40831 0.38907 0.56952 0.0
loop_
_geom_bond_atom_site_label_1
_geom_bond_atom_site_label_2
_geom_bond_distance
_geom_bond_site_symmetry_2
_ccdc_geom_bond_type
O0 Cd1 2.223 . S
O0 C8 1.315 . S
Cd1 O0 2.223 . S
Cd1 O4 2.297 . S
Cd1 O5 2.439 1_556 S
Cd1 O11 2.240 1_556 S
Cd2 O3 2.240 . S
Cd2 O10 2.223 . S
Cd2 O12 2.297 1_556 S
Cd2 O13 2.439 1_556 S
O3 Cd2 2.240 . S
O3 C8 1.279 . S
O4 Cd1 2.297 . S
O4 C6 1.247 1_556 S
O5 Cd1 2.439 1_554 S
O5 C6 1.208 . S
C6 O4 1.247 1_554 S
C6 O5 1.208 . S
C7 O12 1.247 . S
C7 O13 1.208 . S
C8 O0 1.315 . S
C8 O3 1.279 . S
C9 O10 1.316 1_554 S
C9 O11 1.278 . S
O10 Cd2 2.223 . S
O10 C9 1.316 1_556 S
O11 Cd1 2.240 1_554 S
O11 C9 1.278 . S
O12 Cd2 2.297 1_554 S
O12 C7 1.247 . S
O13 Cd2 2.439 1_554 S
O13 C7 1.208 . S
O14 Cd15 2.223 . S
O14 C22 1.315 . S
Cd15 O14 2.223 . S
Cd15 O18 2.297 . S
Cd15 O19 2.439 1_556 S
Cd15 O25 2.240 1_556 S
Cd16 O17 2.240 . S
Cd16 O24 2.223 . S
Cd16 O26 2.297 1_556 S
Cd16 O27 2.439 1_556 S
O17 Cd16 2.240 . S
O17 C22 1.279 . S
O18 Cd15 2.297 . S
O18 C20 1.247 1_556 S
O19 Cd15 2.439 1_554 S
O19 C20 1.208 . S
C20 O18 1.247 1_554 S
C20 O19 1.208 . S
C21 O26 1.247 . S
C21 O27 1.208 . S
C22 O14 1.315 . S
C22 O17 1.279 . S
C23 O24 1.316 1_554 S
C23 O25 1.278 . S
O24 Cd16 2.223 . S
O24 C23 1.316 1_556 S
O25 Cd15 2.240 1_554 S
O25 C23 1.278 . S
O26 Cd16 2.297 1_554 S
O26 C21 1.247 . S
O27 Cd16 2.439 1_554 S
O27 C21 1.208 . S
O28 Cd29 2.223 . S
O28 C36 1.315 . S
Cd29 O28 2.223 . S
Cd29 O32 2.297 . S
Cd29 O33 2.439 1_556 S
Cd29 O39 2.240 1_556 S
Cd30 O31 2.240 . S
Cd30 O38 2.223 . S
Cd30 O40 2.297 1_556 S
Cd30 O41 2.439 1_556 S
O31 Cd30 2.240 . S
O31 C36 1.279 . S
O32 Cd29 2.297 . S
O32 C34 1.247 1_556 S
O33 Cd29 2.439 1_554 S
O33 C34 1.208 . S
C34 O32 1.247 1_554 S
C34 O33 1.208 . S
C35 O40 1.247 . S
C35 O41 1.208 . S
C36 O28 1.315 . S
C36 O31 1.279 . S
C37 O38 1.316 1_554 S
C37 O39 1.278 . S
O38 Cd30 2.223 . S
O38 C37 1.316 1_556 S
O39 Cd29 2.240 1_554 S
O39 C37 1.278 . S
O40 Cd30 2.297 1_554 S
O40 C35 1.247 . S
O41 Cd30 2.439 1_554 S
O41 C35 1.208 . S
O42 Cd43 2.223 . S
O42 C50 1.315 . S
Cd43 O42 2.223 . S
Cd43 O46 2.297 . S
Cd43 O47 2.439 1_554 S
Cd43 O53 2.240 1_554 S
Cd44 O45 2.240 . S
Cd44 O52 2.223 . S
Cd44 O54 2.297 1_554 S
Cd44 O55 2.439 1_554 S
O45 Cd44 2.240 . S
O45 C50 1.279 . S
O46 Cd43 2.297 . S
O46 C48 1.247 1_554 S
O47 Cd43 2.439 1_556 S
O47 C48 1.208 . S
C48 O46 1.247 1_556 S
C48 O47 1.208 . S
C49 O54 1.247 . S
C49 O55 1.208 . S
C50 O42 1.315 . S
C50 O45 1.279 . S
C51 O52 1.316 1_556 S
C51 O53 1.278 . S
O52 Cd44 2.223 . S
O52 C51 1.316 1_554 S
O53 Cd43 2.240 1_556 S
O53 C51 1.278 . S
O54 Cd44 2.297 1_556 S
O54 C49 1.247 . S
O55 Cd44 2.439 1_556 S
O55 C49 1.208 . S
O56 Cd57 2.223 . S
O56 C64 1.315 . S
Cd57 O56 2.223 . S
Cd57 O60 2.297 . S
Cd57 O61 2.439 1_554 S
Cd57 O67 2.240 1_554 S
Cd58 O59 2.240 . S
Cd58 O66 2.223 . S
Cd58 O68 2.297 1_554 S
Cd58 O69 2.439 1_554 S
O59 Cd58 2.240 . S
O59 C64 1.279 . S
O60 Cd57 2.297 . S
O60 C62 1.247 1_554 S
O61 Cd57 2.439 1_556 S
O61 C62 1.208 . S
C62 O60 1.247 1_556 S
C62 O61 1.208 . S
C63 O68 1.247 . S
C63 O69 1.208 . S
C64 O56 1.315 . S
C64 O59 1.279 . S
C65 O66 1.316 1_556 S
C65 O67 1.278 . S
O66 Cd58 2.223 . S
O66 C65 1.316 1_554 S
O67 Cd57 2.240 1_556 S
O67 C65 1.278 . S
O68 Cd58 2.297 1_556 S
O68 C63 1.247 . S
O69 Cd58 2.439 1_556 S
O69 C63 1.208 . S
O70 Cd71 2.223 . S
O70 C78 1.315 . S
Cd71 O70 2.223 . S
Cd71 O74 2.297 . S
Cd71 O75 2.439 1_554 S
Cd71 O81 2.240 1_554 S
Cd72 O73 2.240 . S
Cd72 O80 2.223 . S
Cd72 O82 2.297 1_554 S
Cd72 O83 2.439 1_554 S
O73 Cd72 2.240 . S
O73 C78 1.279 . S
O74 Cd71 2.297 . S
O74 C76 1.247 1_554 S
O75 Cd71 2.439 1_556 S
O75 C76 1.208 . S
C76 O74 1.247 1_556 S
C76 O75 1.208 . S
C77 O82 1.247 . S
C77 O83 1.208 . S
C78 O70 1.315 . S
C78 O73 1.279 . S
C79 O80 1.316 1_556 S
C79 O81 1.278 . S
O80 Cd72 2.223 . S
O80 C79 1.316 1_554 S
O81 Cd71 2.240 1_556 S
O81 C79 1.278 . S
O82 Cd72 2.297 1_556 S
O82 C77 1.247 . S
O83 Cd72 2.439 1_556 S
O83 C77 1.208 . S
O84 Cd85 2.223 . S
O84 C92 1.315 . S
Cd85 O84 2.223 . S
Cd85 O88 2.297 . S
Cd85 O89 2.439 1_554 S
Cd85 O95 2.240 1_554 S
Cd86 O87 2.240 . S
Cd86 O94 2.223 . S
Cd86 O96 2.297 1_554 S
Cd86 O97 2.439 1_554 S
O87 Cd86 2.240 . S
O87 C92 1.279 . S
O88 Cd85 2.297 . S
O88 C90 1.247 1_554 S
O89 Cd85 2.439 1_556 S
O89 C90 1.208 . S
C90 O88 1.247 1_556 S
C90 O89 1.208 . S
C91 O96 1.247 . S
C91 O97 1.208 . S
C92 O84 1.315 . S
C92 O87 1.279 . S
C93 O94 1.316 1_556 S
C93 O95 1.278 . S
O94 Cd86 2.223 . S
O94 C93 1.316 1_554 S
O95 Cd85 2.240 1_556 S
O95 C93 1.278 . S
O96 Cd86 2.297 1_556 S
O96 C91 1.247 . S
O97 Cd86 2.439 1_556 S
O97 C91 1.208 . S
O98 Cd99 2.223 . S
O98 C106 1.315 . S
Cd99 O98 2.223 . S
Cd99 O102 2.297 . S
Cd99 O103 2.439 1_554 S
Cd99 O109 2.240 1_554 S
Cd100 O101 2.240 . S
Cd100 O108 2.223 . S
Cd100 O110 2.297 1_554 S
Cd100 O111 2.439 1_554 S
O101 Cd100 2.240 . S
O101 C106 1.279 . S
O102 Cd99 2.297 . S
O102 C104 1.247 1_554 S
O103 Cd99 2.439 1_556 S
O103 C104 1.208 . S
C104 O102 1.247 1_556 S
C104 O103 1.208 . S
C105 O110 1.247 . S
C105 O111 1.208 . S
C106 O98 1.315 . S
C106 O101 1.279 . S
C107 O108 1.316 1_556 S
C107 O109 1.278 . S
O108 Cd100 2.223 . S
O108 C107 1.316 1_554 S
O109 Cd99 2.240 1_556 S
O109 C107 1.278 . S
O110 Cd100 2.297 1_556 S
O110 C105 1.247 . S
O111 Cd100 2.439 1_556 S
O111 C105 1.208 . S
O112 Cd113 2.223 . S
O112 C120 1.315 . S
Cd113 O112 2.223 . S
Cd113 O116 2.297 . S
Cd113 O117 2.439 1_554 S
Cd113 O123 2.240 1_554 S
Cd114 O115 2.240 . S
Cd114 O122 2.223 . S
Cd114 O124 2.297 1_554 S
Cd114 O125 2.439 1_554 S
O115 Cd114 2.240 . S
O115 C120 1.279 . S
O116 Cd113 2.297 . S
O116 C118 1.247 1_554 S
O117 Cd113 2.439 1_556 S
O117 C118 1.208 . S
C118 O116 1.247 1_556 S
C118 O117 1.208 . S
C119 O124 1.247 . S
C119 O125 1.208 . S
C120 O112 1.315 . S
C120 O115 1.279 . S
C121 O122 1.316 1_556 S
C121 O123 1.278 . S
O122 Cd114 2.223 . S
O122 C121 1.316 1_554 S
O123 Cd113 2.240 1_556 S
O123 C121 1.278 . S
O124 Cd114 2.297 1_556 S
O124 C119 1.247 . S
O125 Cd114 2.439 1_556 S
O125 C119 1.208 . S
O126 Cd127 2.223 . S
O126 C134 1.315 . S
Cd127 O126 2.223 . S
Cd127 O130 2.297 . S
Cd127 O131 2.439 1_556 S
Cd127 O137 2.240 1_556 S
Cd128 O129 2.240 . S
Cd128 O136 2.223 . S
Cd128 O138 2.297 1_556 S
Cd128 O139 2.439 1_556 S
O129 Cd128 2.240 . S
O129 C134 1.279 . S
O130 Cd127 2.297 . S
O130 C132 1.247 1_556 S
O131 Cd127 2.439 1_554 S
O131 C132 1.208 . S
C132 O130 1.247 1_554 S
C132 O131 1.208 . S
C133 O138 1.247 . S
C133 O139 1.208 . S
C134 O126 1.315 . S
C134 O129 1.279 . S
C135 O136 1.316 1_554 S
C135 O137 1.278 . S
O136 Cd128 2.223 . S
O136 C135 1.316 1_556 S
O137 Cd127 2.240 1_554 S
O137 C135 1.278 . S
O138 Cd128 2.297 1_554 S
O138 C133 1.247 . S
O139 Cd128 2.439 1_554 S
O139 C133 1.208 . S
O140 Cd141 2.223 . S
O140 C148 1.315 . S
Cd141 O140 2.223 . S
Cd141 O144 2.297 . S
Cd141 O145 2.439 1_556 S
Cd141 O151 2.240 1_556 S
Cd142 O143 2.240 . S
Cd142 O150 2.223 . S
Cd142 O152 2.297 1_556 S
Cd142 O153 2.439 1_556 S
O143 Cd142 2.240 . S
O143 C148 1.279 . S
O144 Cd141 2.297 . S
O144 C146 1.247 1_556 S
O145 Cd141 2.439 1_554 S
O145 C146 1.208 . S
C146 O144 1.247 1_554 S
C146 O145 1.208 . S
C147 O152 1.247 . S
C147 O153 1.208 . S
C148 O140 1.315 . S
C148 O143 1.279 . S
C149 O150 1.316 1_554 S
C149 O151 1.278 . S
O150 Cd142 2.223 . S
O150 C149 1.316 1_556 S
O151 Cd141 2.240 1_554 S
O151 C149 1.278 . S
O152 Cd142 2.297 1_554 S
O152 C147 1.247 . S
O153 Cd142 2.439 1_554 S
O153 C147 1.208 . S
O154 Cd155 2.223 . S
O154 C162 1.315 . S
Cd155 O154 2.223 . S
Cd155 O158 2.297 . S
Cd155 O159 2.439 1_556 S
Cd155 O165 2.240 1_556 S
Cd156 O157 2.240 . S
Cd156 O164 2.223 . S
Cd156 O166 2.297 1_556 S
Cd156 O167 2.439 1_556 S
O157 Cd156 2.240 . S
O157 C162 1.279 . S
O158 Cd155 2.297 . S
O158 C160 1.247 1_556 S
O159 Cd155 2.439 1_554 S
O159 C160 1.208 . S
C160 O158 1.247 1_554 S
C160 O159 1.208 . S
C161 O166 1.247 . S
C161 O167 1.208 . S
C162 O154 1.315 . S
C162 O157 1.279 . S
C163 O164 1.316 1_554 S
C163 O165 1.278 . S
O164 Cd156 2.223 . S
O164 C163 1.316 1_556 S
O165 Cd155 2.240 1_554 S
O165 C163 1.278 . S
O166 Cd156 2.297 1_554 S
O166 C161 1.247 . S
O167 Cd156 2.439 1_554 S
O167 C161 1.208 . S
O168 Cd169 2.223 . S
O168 C176 1.315 . S
Cd169 O168 2.223 . S
Cd169 O172 2.297 . S
Cd169 O173 2.439 . S
Cd169 O179 2.240 . S
Cd170 O171 2.240 . S
Cd170 O178 2.223 . S
Cd170 O180 2.297 . S
Cd170 O181 2.439 . S
O171 Cd170 2.240 . S
O171 C176 1.279 . S
O172 Cd169 2.297 . S
O172 C174 1.247 . S
O173 Cd169 2.439 . S
O173 C174 1.208 . S
C174 O172 1.247 . S
C174 O173 1.208 . S
C175 O180 1.247 . S
C175 O181 1.208 . S
C176 O168 1.315 . S
C176 O171 1.279 . S
C177 O178 1.315 . S
C177 O179 1.279 . S
O178 Cd170 2.223 . S
O178 C177 1.315 . S
O179 Cd169 2.240 . S
O179 C177 1.279 . S
O180 Cd170 2.297 . S
O180 C175 1.247 . S
O181 Cd170 2.439 . S
O181 C175 1.208 . S
O182 Cd183 2.223 . S
O182 C190 1.315 . S
Cd183 O182 2.223 . S
Cd183 O186 2.297 . S
Cd183 O187 2.439 . S
Cd183 O193 2.240 . S
Cd184 O185 2.240 . S
Cd184 O192 2.223 . S
Cd184 O194 2.297 . S
Cd184 O195 2.439 . S
O185 Cd184 2.240 . S
O185 C190 1.279 . S
O186 Cd183 2.297 . S
O186 C188 1.247 . S
O187 Cd183 2.439 . S
O187 C188 1.208 . S
C188 O186 1.247 . S
C188 O187 1.208 . S
C189 O194 1.247 . S
C189 O195 1.208 . S
C190 O182 1.315 . S
C190 O185 1.279 . S
C191 O192 1.315 . S
C191 O193 1.279 . S
O192 Cd184 2.223 . S
O192 C191 1.315 . S
O193 Cd183 2.240 . S
O193 C191 1.279 . S
O194 Cd184 2.297 . S
O194 C189 1.247 . S
O195 Cd184 2.439 . S
O195 C189 1.208 . S
O196 Cd197 2.223 . S
O196 C204 1.315 . S
Cd197 O196 2.223 . S
Cd197 O200 2.297 . S
Cd197 O201 2.439 . S
Cd197 O207 2.240 . S
Cd198 O199 2.240 . S
Cd198 O206 2.223 . S
Cd198 O208 2.297 . S
Cd198 O209 2.439 . S
O199 Cd198 2.240 . S
O199 C204 1.279 . S
O200 Cd197 2.297 . S
O200 C202 1.247 . S
O201 Cd197 2.439 . S
O201 C202 1.208 . S
C202 O200 1.247 . S
C202 O201 1.208 . S
C203 O208 1.247 . S
C203 O209 1.208 . S
C204 O196 1.315 . S
C204 O199 1.279 . S
C205 O206 1.315 . S
C205 O207 1.279 . S
O206 Cd198 2.223 . S
O206 C205 1.315 . S
O207 Cd197 2.240 . S
O207 C205 1.279 . S
O208 Cd198 2.297 . S
O208 C203 1.247 . S
O209 Cd198 2.439 . S
O209 C203 1.208 . S
O210 Cd211 2.223 . S
O210 C218 1.315 . S
Cd211 O210 2.223 . S
Cd211 O214 2.297 . S
Cd211 O215 2.439 . S
Cd211 O221 2.240 . S
Cd212 O213 2.240 . S
Cd212 O220 2.223 . S
Cd212 O222 2.297 . S
Cd212 O223 2.439 . S
O213 Cd212 2.240 . S
O213 C218 1.279 . S
O214 Cd211 2.297 . S
O214 C216 1.247 . S
O215 Cd211 2.439 . S
O215 C216 1.208 . S
C216 O214 1.247 . S
C216 O215 1.208 . S
C217 O222 1.247 . S
C217 O223 1.208 . S
C218 O210 1.315 . S
C218 O213 1.279 . S
C219 O220 1.315 . S
C219 O221 1.279 . S
O220 Cd212 2.223 . S
O220 C219 1.315 . S
O221 Cd211 2.240 . S
O221 C219 1.279 . S
O222 Cd212 2.297 . S
O222 C217 1.247 . S
O223 Cd212 2.439 . S
O223 C217 1.208 . S
O224 Cd225 2.223 . S
O224 C232 1.315 . S
Cd225 O224 2.223 . S
Cd225 O228 2.297 . S
Cd225 O229 2.439 . S
Cd225 O235 2.240 . S
Cd226 O227 2.240 . S
Cd226 O234 2.223 . S
Cd226 O236 2.297 . S
Cd226 O237 2.439 . S
O227 Cd226 2.240 . S
O227 C232 1.279 . S
O228 Cd225 2.297 . S
O228 C230 1.247 . S
O229 Cd225 2.439 . S
O229 C230 1.208 . S
C230 O228 1.247 . S
C230 O229 1.208 . S
C231 O236 1.247 . S
C231 O237 1.208 . S
C232 O224 1.315 . S
C232 O227 1.279 . S
C233 O234 1.315 . S
C233 O235 1.279 . S
O234 Cd226 2.223 . S
O234 C233 1.315 . S
O235 Cd225 2.240 . S
O235 C233 1.279 . S
O236 Cd226 2.297 . S
O236 C231 1.247 . S
O237 Cd226 2.439 . S
O237 C231 1.208 . S
O238 Cd239 2.223 . S
O238 C246 1.315 . S
Cd239 O238 2.223 . S
Cd239 O242 2.297 . S
Cd239 O243 2.439 . S
Cd239 O249 2.240 . S
Cd240 O241 2.240 . S
Cd240 O248 2.223 . S
Cd240 O250 2.297 . S
Cd240 O251 2.439 . S
O241 Cd240 2.240 . S
O241 C246 1.279 . S
O242 Cd239 2.297 . S
O242 C244 1.247 . S
O243 Cd239 2.439 . S
O243 C244 1.208 . S
C244 O242 1.247 . S
C244 O243 1.208 . S
C245 O250 1.247 . S
C245 O251 1.208 . S
C246 O238 1.315 . S
C246 O241 1.279 . S
C247 O248 1.315 . S
C247 O249 1.279 . S
O248 Cd240 2.223 . S
O248 C247 1.315 . S
O249 Cd239 2.240 . S
O249 C247 1.279 . S
O250 Cd240 2.297 . S
O250 C245 1.247 . S
O251 Cd240 2.439 . S
O251 C245 1.208 . S
O252 Cd253 2.223 . S
O252 C260 1.315 . S
Cd253 O252 2.223 . S
Cd253 O256 2.297 . S
Cd253 O257 2.439 . S
Cd253 O263 2.240 . S
Cd254 O255 2.240 . S
Cd254 O262 2.223 . S
Cd254 O264 2.297 . S
Cd254 O265 2.439 . S
O255 Cd254 2.240 . S
O255 C260 1.279 . S
O256 Cd253 2.297 . S
O256 C258 1.247 . S
O257 Cd253 2.439 . S
O257 C258 1.208 . S
C258 O256 1.247 . S
C258 O257 1.208 . S
C259 O264 1.247 . S
C259 O265 1.208 . S
C260 O252 1.315 . S
C260 O255 1.279 . S
C261 O262 1.315 . S
C261 O263 1.279 . S
O262 Cd254 2.223 . S
O262 C261 1.315 . S
O263 Cd253 2.240 . S
O263 C261 1.279 . S
O264 Cd254 2.297 . S
O264 C259 1.247 . S
O265 Cd254 2.439 . S
O265 C259 1.208 . S
O266 Cd267 2.223 . S
O266 C274 1.315 . S
Cd267 O266 2.223 . S
Cd267 O270 2.297 . S
Cd267 O271 2.439 . S
Cd267 O277 2.240 . S
Cd268 O269 2.240 . S
Cd268 O276 2.223 . S
Cd268 O278 2.297 . S
Cd268 O279 2.439 . S
O269 Cd268 2.240 . S
O269 C274 1.279 . S
O270 Cd267 2.297 . S
O270 C272 1.247 . S
O271 Cd267 2.439 . S
O271 C272 1.208 . S
C272 O270 1.247 . S
C272 O271 1.208 . S
C273 O278 1.247 . S
C273 O279 1.208 . S
C274 O266 1.315 . S
C274 O269 1.279 . S
C275 O276 1.315 . S
C275 O277 1.279 . S
O276 Cd268 2.223 . S
O276 C275 1.315 . S
O277 Cd267 2.240 . S
O277 C275 1.279 . S
O278 Cd268 2.297 . S
O278 C273 1.247 . S
O279 Cd268 2.439 . S
O279 C273 1.208 . S
O280 Cd281 2.223 . S
O280 C288 1.315 . S
Cd281 O280 2.223 . S
Cd281 O284 2.297 . S
Cd281 O285 2.439 . S
Cd281 O291 2.240 . S
Cd282 O283 2.240 . S
Cd282 O290 2.223 . S
Cd282 O292 2.297 . S
Cd282 O293 2.439 . S
O283 Cd282 2.240 . S
O283 C288 1.279 . S
O284 Cd281 2.297 . S
O284 C286 1.247 . S
O285 Cd281 2.439 . S
O285 C286 1.208 . S
C286 O284 1.247 . S
C286 O285 1.208 . S
C287 O292 1.247 . S
C287 O293 1.208 . S
C288 O280 1.315 . S
C288 O283 1.279 . S
C289 O290 1.315 . S
C289 O291 1.279 . S
O290 Cd282 2.223 . S
O290 C289 1.315 . S
O291 Cd281 2.240 . S
O291 C289 1.279 . S
O292 Cd282 2.297 . S
O292 C287 1.247 . S
O293 Cd282 2.439 . S
O293 C287 1.208 . S
O294 Cd295 2.223 . S
O294 C302 1.315 . S
Cd295 O294 2.223 . S
Cd295 O298 2.297 . S
Cd295 O299 2.439 . S
Cd295 O305 2.240 . S
Cd296 O297 2.240 . S
Cd296 O304 2.223 . S
Cd296 O306 2.297 . S
Cd296 O307 2.439 . S
O297 Cd296 2.240 . S
O297 C302 1.279 . S
O298 Cd295 2.297 . S
O298 C300 1.247 . S
O299 Cd295 2.439 . S
O299 C300 1.208 . S
C300 O298 1.247 . S
C300 O299 1.208 . S
C301 O306 1.247 . S
C301 O307 1.208 . S
C302 O294 1.315 . S
C302 O297 1.279 . S
C303 O304 1.315 . S
C303 O305 1.279 . S
O304 Cd296 2.223 . S
O304 C303 1.315 . S
O305 Cd295 2.240 . S
O305 C303 1.279 . S
O306 Cd296 2.297 . S
O306 C301 1.247 . S
O307 Cd296 2.439 . S
O307 C301 1.208 . S
O308 Cd309 2.223 . S
O308 C316 1.315 . S
Cd309 O308 2.223 . S
Cd309 O312 2.297 . S
Cd309 O313 2.439 . S
Cd309 O319 2.240 . S
Cd310 O311 2.240 . S
Cd310 O318 2.223 . S
Cd310 O320 2.297 . S
Cd310 O321 2.439 . S
O311 Cd310 2.240 . S
O311 C316 1.279 . S
O312 Cd309 2.297 . S
O312 C314 1.247 . S
O313 Cd309 2.439 . S
O313 C314 1.208 . S
C314 O312 1.247 . S
C314 O313 1.208 . S
C315 O320 1.247 . S
C315 O321 1.208 . S
C316 O308 1.315 . S
C316 O311 1.279 . S
C317 O318 1.315 . S
C317 O319 1.279 . S
O318 Cd310 2.223 . S
O318 C317 1.315 . S
O319 Cd309 2.240 . S
O319 C317 1.279 . S
O320 Cd310 2.297 . S
O320 C315 1.247 . S
O321 Cd310 2.439 . S
O321 C315 1.208 . S
O322 Cd323 2.223 . S
O322 C330 1.315 . S
Cd323 O322 2.223 . S
Cd323 O326 2.297 . S
Cd323 O327 2.439 . S
Cd323 O333 2.240 . S
Cd324 O325 2.240 . S
Cd324 O332 2.223 . S
Cd324 O334 2.297 . S
Cd324 O335 2.439 . S
O325 Cd324 2.240 . S
O325 C330 1.279 . S
O326 Cd323 2.297 . S
O326 C328 1.247 . S
O327 Cd323 2.439 . S
O327 C328 1.208 . S
C328 O326 1.247 . S
C328 O327 1.208 . S
C329 O334 1.247 . S
C329 O335 1.208 . S
C330 O322 1.315 . S
C330 O325 1.279 . S
C331 O332 1.315 . S
C331 O333 1.279 . S
O332 Cd324 2.223 . S
O332 C331 1.315 . S
O333 Cd323 2.240 . S
O333 C331 1.279 . S
O334 Cd324 2.297 . S
O334 C329 1.247 . S
O335 Cd324 2.439 . S
O335 C329 1.208 . S
O336 Cd337 2.223 . S
O336 C344 1.315 . S
Cd337 O336 2.223 . S
Cd337 O340 2.297 . S
Cd337 O341 2.439 . S
Cd337 O347 2.240 . S
Cd338 O339 2.240 . S
Cd338 O346 2.223 . S
Cd338 O348 2.297 . S
Cd338 O349 2.439 . S
O339 Cd338 2.240 . S
O339 C344 1.279 . S
O340 Cd337 2.297 . S
O340 C342 1.247 . S
O341 Cd337 2.439 . S
O341 C342 1.208 . S
C342 O340 1.247 . S
C342 O341 1.208 . S
C343 O348 1.247 . S
C343 O349 1.208 . S
C344 O336 1.315 . S
C344 O339 1.279 . S
C345 O346 1.315 . S
C345 O347 1.279 . S
O346 Cd338 2.223 . S
O346 C345 1.315 . S
O347 Cd337 2.240 . S
O347 C345 1.279 . S
O348 Cd338 2.297 . S
O348 C343 1.247 . S
O349 Cd338 2.439 . S
O349 C343 1.208 . S
O350 Cd351 2.223 . S
O350 C358 1.315 . S
Cd351 O350 2.223 . S
Cd351 O354 2.297 . S
Cd351 O355 2.439 . S
Cd351 O361 2.240 . S
Cd352 O353 2.240 . S
Cd352 O360 2.223 . S
Cd352 O362 2.297 . S
Cd352 O363 2.439 . S
O353 Cd352 2.240 . S
O353 C358 1.279 . S
O354 Cd351 2.297 . S
O354 C356 1.247 . S
O355 Cd351 2.439 . S
O355 C356 1.208 . S
C356 O354 1.247 . S
C356 O355 1.208 . S
C357 O362 1.247 . S
C357 O363 1.208 . S
C358 O350 1.315 . S
C358 O353 1.279 . S
C359 O360 1.315 . S
C359 O361 1.279 . S
O360 Cd352 2.223 . S
O360 C359 1.315 . S
O361 Cd351 2.240 . S
O361 C359 1.279 . S
O362 Cd352 2.297 . S
O362 C357 1.247 . S
O363 Cd352 2.439 . S
O363 C357 1.208 . S
O364 Cd365 2.223 . S
O364 C372 1.315 . S
Cd365 O364 2.223 . S
Cd365 O368 2.297 . S
Cd365 O369 2.439 . S
Cd365 O375 2.240 . S
Cd366 O367 2.240 . S
Cd366 O374 2.223 . S
Cd366 O376 2.297 . S
Cd366 O377 2.439 . S
O367 Cd366 2.240 . S
O367 C372 1.279 . S
O368 Cd365 2.297 . S
O368 C370 1.247 . S
O369 Cd365 2.439 . S
O369 C370 1.208 . S
C370 O368 1.247 . S
C370 O369 1.208 . S
C371 O376 1.247 . S
C371 O377 1.208 . S
C372 O364 1.315 . S
C372 O367 1.279 . S
C373 O374 1.315 . S
C373 O375 1.279 . S
O374 Cd366 2.223 . S
O374 C373 1.315 . S
O375 Cd365 2.240 . S
O375 C373 1.279 . S
O376 Cd366 2.297 . S
O376 C371 1.247 . S
O377 Cd366 2.439 . S
O377 C371 1.208 . S
O378 Cd379 2.223 . S
O378 C386 1.315 . S
Cd379 O378 2.223 . S
Cd379 O382 2.297 . S
Cd379 O383 2.439 . S
Cd379 O389 2.240 . S
Cd380 O381 2.240 . S
Cd380 O388 2.223 . S
Cd380 O390 2.297 . S
Cd380 O391 2.439 . S
O381 Cd380 2.240 . S
O381 C386 1.279 . S
O382 Cd379 2.297 . S
O382 C384 1.247 . S
O383 Cd379 2.439 . S
O383 C384 1.208 . S
C384 O382 1.247 . S
C384 O383 1.208 . S
C385 O390 1.247 . S
C385 O391 1.208 . S
C386 O378 1.315 . S
C386 O381 1.279 . S
C387 O388 1.315 . S
C387 O389 1.279 . S
O388 Cd380 2.223 . S
O388 C387 1.315 . S
O389 Cd379 2.240 . S
O389 C387 1.279 . S
O390 Cd380 2.297 . S
O390 C385 1.247 . S
O391 Cd380 2.439 . S
O391 C385 1.208 . S
O392 Cd393 2.223 . S
O392 C400 1.315 . S
Cd393 O392 2.223 . S
Cd393 O396 2.297 . S
Cd393 O397 2.439 . S
Cd393 O403 2.240 . S
Cd394 O395 2.240 . S
Cd394 O402 2.223 . S
Cd394 O404 2.297 . S
Cd394 O405 2.439 . S
O395 Cd394 2.240 . S
O395 C400 1.279 . S
O396 Cd393 2.297 . S
O396 C398 1.247 . S
O397 Cd393 2.439 . S
O397 C398 1.208 . S
C398 O396 1.247 . S
C398 O397 1.208 . S
C399 O404 1.247 . S
C399 O405 1.208 . S
C400 O392 1.315 . S
C400 O395 1.279 . S
C401 O402 1.315 . S
C401 O403 1.279 . S
O402 Cd394 2.223 . S
O402 C401 1.315 . S
O403 Cd393 2.240 . S
O403 C401 1.279 . S
O404 Cd394 2.297 . S
O404 C399 1.247 . S
O405 Cd394 2.439 . S
O405 C399 1.208 . S
O406 Cd407 2.223 . S
O406 C414 1.315 . S
Cd407 O406 2.223 . S
Cd407 O410 2.297 . S
Cd407 O411 2.439 . S
Cd407 O417 2.240 . S
Cd408 O409 2.240 . S
Cd408 O416 2.223 . S
Cd408 O418 2.297 . S
Cd408 O419 2.439 . S
O409 Cd408 2.240 . S
O409 C414 1.279 . S
O410 Cd407 2.297 . S
O410 C412 1.247 . S
O411 Cd407 2.439 . S
O411 C412 1.208 . S
C412 O410 1.247 . S
C412 O411 1.208 . S
C413 O418 1.247 . S
C413 O419 1.208 . S
C414 O406 1.315 . S
C414 O409 1.279 . S
C415 O416 1.315 . S
C415 O417 1.279 . S
O416 Cd408 2.223 . S
O416 C415 1.315 . S
O417 Cd407 2.240 . S
O417 C415 1.279 . S
O418 Cd408 2.297 . S
O418 C413 1.247 . S
O419 Cd408 2.439 . S
O419 C413 1.208 . S
O420 Cd421 2.223 . S
O420 C428 1.315 . S
Cd421 O420 2.223 . S
Cd421 O424 2.297 . S
Cd421 O425 2.439 . S
Cd421 O431 2.240 . S
Cd422 O423 2.240 . S
Cd422 O430 2.223 . S
Cd422 O432 2.297 . S
Cd422 O433 2.439 . S
O423 Cd422 2.240 . S
O423 C428 1.279 . S
O424 Cd421 2.297 . S
O424 C426 1.247 . S
O425 Cd421 2.439 . S
O425 C426 1.208 . S
C426 O424 1.247 . S
C426 O425 1.208 . S
C427 O432 1.247 . S
C427 O433 1.208 . S
C428 O420 1.315 . S
C428 O423 1.279 . S
C429 O430 1.315 . S
C429 O431 1.279 . S
O430 Cd422 2.223 . S
O430 C429 1.315 . S
O431 Cd421 2.240 . S
O431 C429 1.279 . S
O432 Cd422 2.297 . S
O432 C427 1.247 . S
O433 Cd422 2.439 . S
O433 C427 1.208 . S
O434 Cd435 2.223 . S
O434 C442 1.315 . S
Cd435 O434 2.223 . S
Cd435 O438 2.297 . S
Cd435 O439 2.439 . S
Cd435 O445 2.240 . S
Cd436 O437 2.240 . S
Cd436 O444 2.223 . S
Cd436 O446 2.297 . S
Cd436 O447 2.439 . S
O437 Cd436 2.240 . S
O437 C442 1.279 . S
O438 Cd435 2.297 . S
O438 C440 1.247 . S
O439 Cd435 2.439 . S
O439 C440 1.208 . S
C440 O438 1.247 . S
C440 O439 1.208 . S
C441 O446 1.247 . S
C441 O447 1.208 . S
C442 O434 1.315 . S
C442 O437 1.279 . S
C443 O444 1.315 . S
C443 O445 1.279 . S
O444 Cd436 2.223 . S
O444 C443 1.315 . S
O445 Cd435 2.240 . S
O445 C443 1.279 . S
O446 Cd436 2.297 . S
O446 C441 1.247 . S
O447 Cd436 2.439 . S
O447 C441 1.208 . S
O448 Cd449 2.223 . S
O448 C456 1.315 . S
Cd449 O448 2.223 . S
Cd449 O452 2.297 . S
Cd449 O453 2.439 . S
Cd449 O459 2.240 . S
Cd450 O451 2.240 . S
Cd450 O458 2.223 . S
Cd450 O460 2.297 . S
Cd450 O461 2.439 . S
O451 Cd450 2.240 . S
O451 C456 1.279 . S
O452 Cd449 2.297 . S
O452 C454 1.247 . S
O453 Cd449 2.439 . S
O453 C454 1.208 . S
C454 O452 1.247 . S
C454 O453 1.208 . S
C455 O460 1.247 . S
C455 O461 1.208 . S
C456 O448 1.315 . S
C456 O451 1.279 . S
C457 O458 1.315 . S
C457 O459 1.279 . S
O458 Cd450 2.223 . S
O458 C457 1.315 . S
O459 Cd449 2.240 . S
O459 C457 1.279 . S
O460 Cd450 2.297 . S
O460 C455 1.247 . S
O461 Cd450 2.439 . S
O461 C455 1.208 . S
O462 Cd463 2.223 . S
O462 C470 1.315 . S
Cd463 O462 2.223 . S
Cd463 O466 2.297 . S
Cd463 O467 2.439 . S
Cd463 O473 2.240 . S
Cd464 O465 2.240 . S
Cd464 O472 2.223 . S
Cd464 O474 2.297 . S
Cd464 O475 2.439 . S
O465 Cd464 2.240 . S
O465 C470 1.279 . S
O466 Cd463 2.297 . S
O466 C468 1.247 . S
O467 Cd463 2.439 . S
O467 C468 1.208 . S
C468 O466 1.247 . S
C468 O467 1.208 . S
C469 O474 1.247 . S
C469 O475 1.208 . S
C470 O462 1.315 . S
C470 O465 1.279 . S
C471 O472 1.315 . S
C471 O473 1.279 . S
O472 Cd464 2.223 . S
O472 C471 1.315 . S
O473 Cd463 2.240 . S
O473 C471 1.279 . S
O474 Cd464 2.297 . S
O474 C469 1.247 . S
O475 Cd464 2.439 . S
O475 C469 1.208 . S
O476 Cd477 2.223 . S
O476 C484 1.315 . S
Cd477 O476 2.223 . S
Cd477 O480 2.297 . S
Cd477 O481 2.439 . S
Cd477 O487 2.240 . S
Cd478 O479 2.240 . S
Cd478 O486 2.223 . S
Cd478 O488 2.297 . S
Cd478 O489 2.439 . S
O479 Cd478 2.240 . S
O479 C484 1.279 . S
O480 Cd477 2.297 . S
O480 C482 1.247 . S
O481 Cd477 2.439 . S
O481 C482 1.208 . S
C482 O480 1.247 . S
C482 O481 1.208 . S
C483 O488 1.247 . S
C483 O489 1.208 . S
C484 O476 1.315 . S
C484 O479 1.279 . S
C485 O486 1.315 . S
C485 O487 1.279 . S
O486 Cd478 2.223 . S
O486 C485 1.315 . S
O487 Cd477 2.240 . S
O487 C485 1.279 . S
O488 Cd478 2.297 . S
O488 C483 1.247 . S
O489 Cd478 2.439 . S
O489 C483 1.208 . S
O490 Cd491 2.223 . S
O490 C498 1.315 . S
Cd491 O490 2.223 . S
Cd491 O494 2.297 . S
Cd491 O495 2.439 . S
Cd491 O501 2.240 . S
Cd492 O493 2.240 . S
Cd492 O500 2.223 . S
Cd492 O502 2.297 . S
Cd492 O503 2.439 . S
O493 Cd492 2.240 . S
O493 C498 1.279 . S
O494 Cd491 2.297 . S
O494 C496 1.247 . S
O495 Cd491 2.439 . S
O495 C496 1.208 . S
C496 O494 1.247 . S
C496 O495 1.208 . S
C497 O502 1.247 . S
C497 O503 1.208 . S
C498 O490 1.315 . S
C498 O493 1.279 . S
C499 O500 1.315 . S
C499 O501 1.279 . S
O500 Cd492 2.223 . S
O500 C499 1.315 . S
O501 Cd491 2.240 . S
O501 C499 1.279 . S
O502 Cd492 2.297 . S
O502 C497 1.247 . S
O503 Cd492 2.439 . S
O503 C497 1.208 . S
H504 C512 0.950 . S
H505 C517 0.950 . S
H506 C514 0.950 . S
H507 C516 0.950 . S
H508 C518 0.950 . S
H509 C520 0.950 . S
H510 C522 0.950 . S
H511 C523 0.950 . S
C512 H504 0.950 . S
C512 C513 1.386 . S
C512 C514 1.391 . S
C513 C512 1.386 . S
C513 C517 1.393 1_554 S
C514 H506 0.950 . S
C514 C512 1.391 . S
C514 C515 1.403 . S
C515 C514 1.403 . S
C515 C516 1.397 1_554 S
C515 C521 1.490 1_654 S
C516 H507 0.950 . S
C516 C515 1.397 1_556 S
C516 C517 1.391 . S
C517 H505 0.950 . S
C517 C513 1.393 1_556 S
C517 C516 1.391 . S
C518 H508 0.950 . S
C518 C519 1.386 . S
C518 C520 1.391 . S
C519 C518 1.386 . S
C519 C523 1.393 1_556 S
C520 H509 0.950 . S
C520 C518 1.391 . S
C520 C521 1.404 . S
C521 C515 1.490 1_456 S
C521 C520 1.404 . S
C521 C522 1.396 1_556 S
C522 H510 0.950 . S
C522 C521 1.396 1_554 S
C522 C523 1.391 . S
C523 H511 0.950 . S
C523 C519 1.393 1_554 S
C523 C522 1.391 . S
H524 C532 0.950 . S
H525 C537 0.951 . S
H526 C534 0.950 . S
H527 C536 0.950 . S
H528 C538 0.950 . S
H529 C540 0.950 . S
H530 C542 0.950 . S
H531 C543 0.952 . S
C532 H524 0.950 . S
C532 C533 1.389 . S
C532 C534 1.391 . S
C533 C532 1.389 . S
C533 C537 1.391 1_556 S
C534 H526 0.950 . S
C534 C532 1.391 . S
C534 C535 1.402 . S
C535 C534 1.402 . S
C535 C536 1.398 1_556 S
C535 C541 1.490 1_556 S
C536 H527 0.950 . S
C536 C535 1.398 1_554 S
C536 C537 1.391 . S
C537 H525 0.951 . S
C537 C533 1.391 1_554 S
C537 C536 1.391 . S
C538 H528 0.950 . S
C538 C539 1.388 . S
C538 C540 1.391 . S
C539 C538 1.388 . S
C539 C543 1.391 1_554 S
C540 H529 0.950 . S
C540 C538 1.391 . S
C540 C541 1.401 . S
C541 C535 1.490 1_554 S
C541 C540 1.401 . S
C541 C542 1.398 1_554 S
C542 H530 0.950 . S
C542 C541 1.398 1_556 S
C542 C543 1.391 . S
C543 H531 0.952 . S
C543 C539 1.391 1_556 S
C543 C542 1.391 . S
H544 C552 0.950 . S
H545 C557 0.950 . S
H546 C554 0.950 . S
H547 C556 0.950 . S
H548 C558 0.950 . S
H549 C560 0.950 . S
H550 C562 0.950 . S
H551 C563 0.950 . S
C552 H544 0.950 . S
C552 C553 1.386 . S
C552 C554 1.391 . S
C553 C552 1.386 . S
C553 C557 1.393 1_554 S
C554 H546 0.950 . S
C554 C552 1.391 . S
C554 C555 1.402 1_554 S
C555 C554 1.402 1_556 S
C555 C556 1.397 . S
C555 C561 1.491 1_545 S
C556 H547 0.950 . S
C556 C555 1.397 . S
C556 C557 1.391 . S
C557 H545 0.950 . S
C557 C553 1.393 1_556 S
C557 C556 1.391 . S
C558 H548 0.950 . S
C558 C559 1.393 . S
C558 C560 1.391 . S
C559 C558 1.393 . S
C559 C563 1.385 1_556 S
C560 H549 0.950 . S
C560 C558 1.391 . S
C560 C561 1.402 . S
C561 C555 1.491 1_565 S
C561 C560 1.402 . S
C561 C562 1.397 1_556 S
C562 H550 0.950 . S
C562 C561 1.397 1_554 S
C562 C563 1.391 . S
C563 H551 0.950 . S
C563 C559 1.385 1_554 S
C563 C562 1.391 . S
H564 C572 0.950 . S
H565 C577 0.950 . S
H566 C574 0.950 . S
H567 C576 0.950 . S
H568 C578 0.950 . S
H569 C580 0.950 . S
H570 C582 0.950 . S
H571 C583 0.950 . S
C572 H564 0.950 . S
C572 C573 1.386 . S
C572 C574 1.391 . S
C573 C572 1.386 . S
C573 C577 1.393 1_556 S
C574 H566 0.950 . S
C574 C572 1.391 . S
C574 C575 1.407 . S
C575 C574 1.407 . S
C575 C576 1.392 1_556 S
C575 C581 1.490 1_456 S
C576 H567 0.950 . S
C576 C575 1.392 1_554 S
C576 C577 1.391 . S
C577 H565 0.950 . S
C577 C573 1.393 1_554 S
C577 C576 1.391 . S
C578 H568 0.950 . S
C578 C579 1.386 . S
C578 C580 1.391 . S
C579 C578 1.386 . S
C579 C583 1.393 1_554 S
C580 H569 0.950 . S
C580 C578 1.391 . S
C580 C581 1.411 . S
C581 C575 1.490 1_654 S
C581 C580 1.411 . S
C581 C582 1.388 1_554 S
C582 H570 0.950 . S
C582 C581 1.388 1_556 S
C582 C583 1.391 . S
C583 H571 0.950 . S
C583 C579 1.393 1_556 S
C583 C582 1.391 . S
H584 C592 0.950 . S
H585 C597 0.950 . S
H586 C594 0.950 . S
H587 C596 0.950 . S
H588 C598 0.950 . S
H589 C600 0.950 . S
H590 C602 0.950 . S
H591 C603 0.950 . S
C592 H584 0.950 . S
C592 C593 1.374 1_556 S
C592 C594 1.391 . S
C593 C592 1.374 1_554 S
C593 C597 1.405 . S
C594 H586 0.950 . S
C594 C592 1.391 . S
C594 C595 1.401 1_556 S
C595 C594 1.401 1_554 S
C595 C596 1.398 . S
C595 C601 1.491 1_554 S
C596 H587 0.950 . S
C596 C595 1.398 . S
C596 C597 1.391 . S
C597 H585 0.950 . S
C597 C593 1.405 . S
C597 C596 1.391 . S
C598 H588 0.950 . S
C598 C599 1.366 1_554 S
C598 C600 1.391 . S
C599 C598 1.366 1_556 S
C599 C603 1.412 . S
C600 H589 0.950 . S
C600 C598 1.391 . S
C600 C601 1.394 1_554 S
C601 C595 1.491 1_556 S
C601 C600 1.394 1_556 S
C601 C602 1.405 . S
C602 H590 0.950 . S
C602 C601 1.405 . S
C602 C603 1.391 . S
C603 H591 0.950 . S
C603 C599 1.412 . S
C603 C602 1.391 . S
H604 C612 0.950 . S
H605 C617 0.950 . S
H606 C614 0.950 . S
H607 C616 0.950 . S
H608 C618 0.950 . S
H609 C620 0.950 . S
H610 C622 0.950 . S
H611 C623 0.950 . S
C612 H604 0.950 . S
C612 C613 1.392 . S
C612 C614 1.391 . S
C613 C612 1.392 . S
C613 C617 1.388 1_554 S
C614 H606 0.950 . S
C614 C612 1.391 . S
C614 C615 1.404 . S
C615 C614 1.404 . S
C615 C616 1.395 1_554 S
C615 C621 1.490 1_564 S
C616 H607 0.950 . S
C616 C615 1.395 1_556 S
C616 C617 1.391 . S
C617 H605 0.950 . S
C617 C613 1.388 1_556 S
C617 C616 1.391 . S
C618 H608 0.950 . S
C618 C619 1.391 . S
C618 C620 1.391 . S
C619 C618 1.391 . S
C619 C623 1.389 1_556 S
C620 H609 0.950 . S
C620 C618 1.391 . S
C620 C621 1.403 . S
C621 C615 1.490 1_546 S
C621 C620 1.403 . S
C621 C622 1.396 1_556 S
C622 H610 0.950 . S
C622 C621 1.396 1_554 S
C622 C623 1.391 . S
C623 H611 0.950 . S
C623 C619 1.389 1_554 S
C623 C622 1.391 . S
H624 C632 0.950 . S
H625 C637 0.950 . S
H626 C634 0.950 . S
H627 C636 0.950 . S
H628 C638 0.950 . S
H629 C640 0.950 . S
H630 C642 0.950 . S
H631 C643 0.950 . S
C632 H624 0.950 . S
C632 C633 1.386 . S
C632 C634 1.391 . S
C633 C632 1.386 . S
C633 C637 1.393 . S
C634 H626 0.950 . S
C634 C632 1.391 . S
C634 C635 1.400 . S
C635 C634 1.400 . S
C635 C636 1.398 . S
C635 C641 1.491 . S
C636 H627 0.950 . S
C636 C635 1.398 . S
C636 C637 1.391 . S
C637 H625 0.950 . S
C637 C633 1.393 . S
C637 C636 1.391 . S
C638 H628 0.950 . S
C638 C639 1.386 . S
C638 C640 1.391 . S
C639 C638 1.386 . S
C639 C643 1.393 . S
C640 H629 0.950 . S
C640 C638 1.391 . S
C640 C641 1.400 . S
C641 C635 1.491 . S
C641 C640 1.400 . S
C641 C642 1.398 . S
C642 H630 0.950 . S
C642 C641 1.398 . S
C642 C643 1.391 . S
C643 H631 0.950 . S
C643 C639 1.393 . S
C643 C642 1.391 . S
H644 C652 0.950 . S
H645 C657 0.950 . S
H646 C654 0.950 . S
H647 C656 0.950 . S
H648 C658 0.950 . S
H649 C660 0.950 . S
H650 C662 0.992 . S
H651 C663 0.950 . S
C652 H644 0.950 . S
C652 C653 1.386 . S
C652 C654 1.391 . S
C653 C652 1.386 . S
C653 C657 1.393 1_565 S
C654 H646 0.950 . S
C654 C652 1.391 . S
C654 C655 1.400 1_565 S
C655 C654 1.400 1_545 S
C655 C656 1.398 . S
C655 C661 1.491 . S
C656 H647 0.950 . S
C656 C655 1.398 . S
C656 C657 1.391 . S
C657 H645 0.950 . S
C657 C653 1.393 1_545 S
C657 C656 1.391 . S
C658 H648 0.950 . S
C658 C659 1.386 . S
C658 C660 1.391 . S
C659 C658 1.386 . S
C659 C663 1.393 . S
C660 H649 0.950 . S
C660 C658 1.391 . S
C660 C661 1.400 . S
C661 C655 1.491 . S
C661 C660 1.400 . S
C661 C662 1.398 . S
C662 H650 0.992 . S
C662 C661 1.398 . S
C662 C663 1.391 . S
C663 H651 0.950 . S
C663 C659 1.393 . S
C663 C662 1.391 . S
H664 C672 0.950 . S
H665 C677 0.950 . S
H666 C674 0.950 . S
H667 C676 0.950 . S
H668 C678 0.950 . S
H669 C680 0.950 . S
H670 C682 0.950 . S
H671 C683 0.950 . S
C672 H664 0.950 . S
C672 C673 1.386 . S
C672 C674 1.391 . S
C673 C672 1.386 . S
C673 C677 1.393 . S
C674 H666 0.950 . S
C674 C672 1.391 . S
C674 C675 1.400 . S
C675 C674 1.400 . S
C675 C676 1.398 . S
C675 C681 1.491 . S
C676 H667 0.950 . S
C676 C675 1.398 . S
C676 C677 1.391 . S
C677 H665 0.950 . S
C677 C673 1.393 . S
C677 C676 1.391 . S
C678 H668 0.950 . S
C678 C679 1.386 . S
C678 C680 1.391 . S
C679 C678 1.386 . S
C679 C683 1.393 1_455 S
C680 H669 0.950 . S
C680 C678 1.391 . S
C680 C681 1.400 1_455 S
C681 C675 1.491 . S
C681 C680 1.400 1_655 S
C681 C682 1.398 . S
C682 H670 0.950 . S
C682 C681 1.398 . S
C682 C683 1.391 . S
C683 H671 0.950 . S
C683 C679 1.393 1_655 S
C683 C682 1.391 . S
H684 C692 0.950 . S
H685 C697 0.950 . S
H686 C694 0.950 . S
H687 C696 0.950 . S
H688 C698 0.950 . S
H689 C700 0.950 . S
H690 C702 0.950 . S
H691 C703 0.950 . S
C692 H684 0.950 . S
C692 C693 1.386 . S
C692 C694 1.391 . S
C693 C692 1.386 . S
C693 C697 1.393 1_565 S
C694 H686 0.950 . S
C694 C692 1.391 . S
C694 C695 1.400 1_565 S
C695 C694 1.400 1_545 S
C695 C696 1.398 . S
C695 C701 1.491 . S
C696 H687 0.950 . S
C696 C695 1.398 . S
C696 C697 1.391 . S
C697 H685 0.950 . S
C697 C693 1.393 1_545 S
C697 C696 1.391 . S
C698 H688 0.950 . S
C698 C699 1.386 . S
C698 C700 1.391 . S
C699 C698 1.386 . S
C699 C703 1.393 . S
C700 H689 0.950 . S
C700 C698 1.391 . S
C700 C701 1.400 . S
C701 C695 1.491 . S
C701 C700 1.400 . S
C701 C702 1.398 . S
C702 H690 0.950 . S
C702 C701 1.398 . S
C702 C703 1.391 . S
C703 H691 0.950 . S
C703 C699 1.393 . S
C703 C702 1.391 . S
H704 C712 0.950 . S
H705 C717 0.950 . S
H706 C714 0.950 . S
H707 C716 0.950 . S
H708 C718 0.950 . S
H709 C720 0.950 . S
H710 C722 0.950 . S
H711 C723 0.950 . S
C712 H704 0.950 . S
C712 C713 1.386 . S
C712 C714 1.391 . S
C713 C712 1.386 . S
C713 C717 1.393 . S
C714 H706 0.950 . S
C714 C712 1.391 . S
C714 C715 1.400 . S
C715 C714 1.400 . S
C715 C716 1.398 . S
C715 C721 1.491 . S
C716 H707 0.950 . S
C716 C715 1.398 . S
C716 C717 1.391 . S
C717 H705 0.950 . S
C717 C713 1.393 . S
C717 C716 1.391 . S
C718 H708 0.950 . S
C718 C719 1.386 1_655 S
C718 C720 1.391 . S
C719 C718 1.386 1_455 S
C719 C723 1.393 . S
C720 H709 0.950 . S
C720 C718 1.391 . S
C720 C721 1.400 . S
C721 C715 1.491 . S
C721 C720 1.400 . S
C721 C722 1.398 1_655 S
C722 H710 0.950 . S
C722 C721 1.398 1_455 S
C722 C723 1.391 . S
C723 H711 0.950 . S
C723 C719 1.393 . S
C723 C722 1.391 . S
H724 C732 0.950 . S
H725 C737 0.950 . S
H726 C734 0.950 . S
H727 C736 0.950 . S
H728 C738 0.950 . S
H729 C740 0.950 . S
H730 C742 0.950 . S
H731 C743 0.950 . S
C732 H724 0.950 . S
C732 C733 1.386 . S
C732 C734 1.391 . S
C733 C732 1.386 . S
C733 C737 1.393 . S
C734 H726 0.950 . S
C734 C732 1.391 . S
C734 C735 1.400 . S
C735 C734 1.400 . S
C735 C736 1.398 . S
C735 C741 1.491 . S
C736 H727 0.950 . S
C736 C735 1.398 . S
C736 C737 1.391 . S
C737 H725 0.950 . S
C737 C733 1.393 . S
C737 C736 1.391 . S
C738 H728 0.950 . S
C738 C739 1.386 . S
C738 C740 1.391 . S
C739 C738 1.386 . S
C739 C743 1.393 . S
C740 H729 0.950 . S
C740 C738 1.391 . S
C740 C741 1.400 . S
C741 C735 1.491 . S
C741 C740 1.400 . S
C741 C742 1.398 . S
C742 H730 0.950 . S
C742 C741 1.398 . S
C742 C743 1.391 . S
C743 H731 0.950 . S
C743 C739 1.393 . S
C743 C742 1.391 . S
H744 C752 0.950 . S
H745 C757 0.950 . S
H746 C754 0.950 . S
H747 C756 0.950 . S
H748 C758 0.950 . S
H749 C760 0.950 . S
H750 C762 0.950 . S
H751 C763 0.950 . S
C752 H744 0.950 . S
C752 C753 1.386 . S
C752 C754 1.391 . S
C753 C752 1.386 . S
C753 C757 1.393 . S
C754 H746 0.950 . S
C754 C752 1.391 . S
C754 C755 1.400 . S
C755 C754 1.400 . S
C755 C756 1.398 . S
C755 C761 1.491 . S
C756 H747 0.950 . S
C756 C755 1.398 . S
C756 C757 1.391 . S
C757 H745 0.950 . S
C757 C753 1.393 . S
C757 C756 1.391 . S
C758 H748 0.950 . S
C758 C759 1.386 . S
C758 C760 1.391 . S
C759 C758 1.386 . S
C759 C763 1.393 1_545 S
C760 H749 0.950 . S
C760 C758 1.391 . S
C760 C761 1.400 1_545 S
C761 C755 1.491 . S
C761 C760 1.400 1_565 S
C761 C762 1.398 . S
C762 H750 0.950 . S
C762 C761 1.398 . S
C762 C763 1.391 . S
C763 H751 0.950 . S
C763 C759 1.393 1_565 S
C763 C762 1.391 . S
H764 C772 0.950 . S
H765 C777 0.950 . S
H766 C774 0.950 . S
H767 C776 0.950 . S
H768 C778 0.950 . S
H769 C780 0.950 1_655 S
H770 C782 0.950 . S
H771 C783 0.950 . S
C772 H764 0.950 . S
C772 C773 1.386 1_455 S
C772 C774 1.391 . S
C773 C772 1.386 1_655 S
C773 C777 1.393 . S
C774 H766 0.950 . S
C774 C772 1.391 . S
C774 C775 1.400 . S
C775 C774 1.400 . S
C775 C776 1.398 1_455 S
C775 C781 1.491 . S
C776 H767 0.950 . S
C776 C775 1.398 1_655 S
C776 C777 1.391 . S
C777 H765 0.950 . S
C777 C773 1.393 . S
C777 C776 1.391 . S
C778 H768 0.950 . S
C778 C779 1.386 . S
C778 C780 1.391 . S
C779 C778 1.386 . S
C779 C783 1.393 . S
C780 H769 0.950 1_455 S
C780 C778 1.391 . S
C780 C781 1.400 . S
C781 C775 1.491 . S
C781 C780 1.400 . S
C781 C782 1.398 . S
C782 H770 0.950 . S
C782 C781 1.398 . S
C782 C783 1.391 . S
C783 H771 0.950 . S
C783 C779 1.393 . S
C783 C782 1.391 . S
H784 C792 0.950 . S
H785 C797 0.950 . S
H786 C794 0.950 . S
H787 C796 0.950 . S
H788 C798 0.950 . S
H789 C800 0.950 . S
H790 C802 0.950 . S
H791 C803 0.950 . S
C792 H784 0.950 . S
C792 C793 1.386 . S
C792 C794 1.391 . S
C793 C792 1.386 . S
C793 C797 1.393 . S
C794 H786 0.950 . S
C794 C792 1.391 . S
C794 C795 1.400 . S
C795 C794 1.400 . S
C795 C796 1.398 . S
C795 C801 1.491 . S
C796 H787 0.950 . S
C796 C795 1.398 . S
C796 C797 1.391 . S
C797 H785 0.950 . S
C797 C793 1.393 . S
C797 C796 1.391 . S
C798 H788 0.950 . S
C798 C799 1.386 . S
C798 C800 1.391 . S
C799 C798 1.386 . S
C799 C803 1.393 . S
C800 H789 0.950 . S
C800 C798 1.391 . S
C800 C801 1.400 . S
C801 C795 1.491 . S
C801 C800 1.400 . S
C801 C802 1.398 . S
C802 H790 0.950 . S
C802 C801 1.398 . S
C802 C803 1.391 . S
C803 H791 0.950 . S
C803 C799 1.393 . S
C803 C802 1.391 . S
H804 C812 0.950 . S
H805 C817 0.950 . S
H806 C814 0.950 . S
H807 C816 0.950 . S
H808 C818 0.950 . S
H809 C820 0.950 . S
H810 C822 0.950 . S
H811 C823 0.950 . S
C812 H804 0.950 . S
C812 C813 1.386 . S
C812 C814 1.391 . S
C813 C812 1.386 . S
C813 C817 1.393 . S
C814 H806 0.950 . S
C814 C812 1.391 . S
C814 C815 1.400 . S
C815 C814 1.400 . S
C815 C816 1.398 . S
C815 C821 1.491 . S
C816 H807 0.950 . S
C816 C815 1.398 . S
C816 C817 1.391 . S
C817 H805 0.950 . S
C817 C813 1.393 . S
C817 C816 1.391 . S
C818 H808 0.950 . S
C818 C819 1.386 . S
C818 C820 1.391 . S
C819 C818 1.386 . S
C819 C823 1.393 . S
C820 H809 0.950 . S
C820 C818 1.391 . S
C820 C821 1.400 . S
C821 C815 1.491 . S
C821 C820 1.400 . S
C821 C822 1.398 . S
C822 H810 0.950 . S
C822 C821 1.398 . S
C822 C823 1.391 . S
C823 H811 0.950 . S
C823 C819 1.393 . S
C823 C822 1.391 . S
H824 C832 0.950 . S
H825 C837 0.950 . S
H826 C834 0.950 . S
H827 C836 0.950 . S
H828 C838 0.950 . S
H829 C840 0.973 . S
H830 C842 0.950 . S
H831 C843 0.976 . S
C832 H824 0.950 . S
C832 C833 1.386 . S
C832 C834 1.391 . S
C833 C832 1.386 . S
C833 C837 1.393 . S
C834 H826 0.950 . S
C834 C832 1.391 . S
C834 C835 1.400 . S
C835 C834 1.400 . S
C835 C836 1.398 . S
C835 C841 1.491 . S
C836 H827 0.950 . S
C836 C835 1.398 . S
C836 C837 1.391 . S
C837 H825 0.950 . S
C837 C833 1.393 . S
C837 C836 1.391 . S
C838 H828 0.950 . S
C838 C839 1.386 . S
C838 C840 1.334 1_545 S
C839 C838 1.386 . S
C839 C843 1.435 . S
C840 H829 0.973 . S
C840 C838 1.334 1_565 S
C840 C841 1.438 . S
C841 C835 1.491 . S
C841 C840 1.438 . S
C841 C842 1.398 . S
C842 H830 0.950 . S
C842 C841 1.398 . S
C842 C843 1.327 1_565 S
C843 H831 0.976 . S
C843 C839 1.435 . S
C843 C842 1.327 1_545 S
H844 C852 0.950 . S
H845 C857 0.950 . S
H846 C854 0.950 . S
H847 C856 0.950 1_655 S
H848 C858 0.950 . S
H849 C860 0.950 . S
H850 C862 0.950 . S
H851 C863 0.950 . S
C852 H844 0.950 . S
C852 C853 1.386 . S
C852 C854 1.391 . S
C853 C852 1.386 . S
C853 C857 1.393 . S
C854 H846 0.950 . S
C854 C852 1.391 . S
C854 C855 1.400 . S
C855 C854 1.400 . S
C855 C856 1.398 . S
C855 C861 1.491 . S
C856 H847 0.950 1_455 S
C856 C855 1.398 . S
C856 C857 1.391 . S
C857 H845 0.950 . S
C857 C853 1.393 . S
C857 C856 1.391 . S
C858 H848 0.950 . S
C858 C859 1.386 . S
C858 C860 1.391 . S
C859 C858 1.386 . S
C859 C863 1.393 1_655 S
C860 H849 0.950 . S
C860 C858 1.391 . S
C860 C861 1.400 1_655 S
C861 C855 1.491 . S
C861 C860 1.400 1_455 S
C861 C862 1.398 . S
C862 H850 0.950 . S
C862 C861 1.398 . S
C862 C863 1.391 . S
C863 H851 0.950 . S
C863 C859 1.393 1_455 S
C863 C862 1.391 . S
H864 C872 0.950 . S
H865 C877 0.950 . S
H866 C874 0.950 . S
H867 C876 0.950 . S
H868 C878 0.950 . S
H869 C880 0.950 . S
H870 C882 0.950 . S
H871 C883 0.950 . S
C872 H864 0.950 . S
C872 C873 1.386 1_556 S
C872 C874 1.391 . S
C873 C872 1.386 1_554 S
C873 C877 1.393 . S
C874 H866 0.950 . S
C874 C872 1.391 . S
C874 C875 1.400 1_556 S
C875 C874 1.400 1_554 S
C875 C876 1.398 . S
C875 C881 1.491 . S
C876 H867 0.950 . S
C876 C875 1.398 . S
C876 C877 1.391 . S
C877 H865 0.950 . S
C877 C873 1.393 . S
C877 C876 1.391 . S
C878 H868 0.950 . S
C878 C879 1.386 . S
C878 C880 1.391 . S
C879 C878 1.386 . S
C879 C883 1.393 1_554 S
C880 H869 0.950 . S
C880 C878 1.391 . S
C880 C881 1.400 . S
C881 C875 1.491 . S
C881 C880 1.400 . S
C881 C882 1.398 1_554 S
C882 H870 0.950 . S
C882 C881 1.398 1_556 S
C882 C883 1.391 . S
C883 H871 0.950 . S
C883 C879 1.393 1_556 S
C883 C882 1.391 . S
H884 C892 0.950 . S
H885 C897 0.950 . S
H886 C894 0.950 . S
H887 C896 0.950 . S
H888 C898 0.950 . S
H889 C900 0.950 . S
H890 C902 0.950 . S
H891 C903 0.950 . S
C892 H884 0.950 . S
C892 C893 1.386 . S
C892 C894 1.391 . S
C893 C892 1.386 . S
C893 C897 1.393 1_554 S
C894 H886 0.950 . S
C894 C892 1.391 . S
C894 C895 1.400 . S
C895 C894 1.400 . S
C895 C896 1.398 1_554 S
C895 C901 1.491 . S
C896 H887 0.950 . S
C896 C895 1.398 1_556 S
C896 C897 1.391 . S
C897 H885 0.950 . S
C897 C893 1.393 1_556 S
C897 C896 1.391 . S
C898 H888 0.950 . S
C898 C899 1.386 1_556 S
C898 C900 1.391 . S
C899 C898 1.386 1_554 S
C899 C903 1.393 . S
C900 H889 0.950 . S
C900 C898 1.391 . S
C900 C901 1.400 1_556 S
C901 C895 1.491 . S
C901 C900 1.400 1_554 S
C901 C902 1.398 . S
C902 H890 0.950 . S
C902 C901 1.398 . S
C902 C903 1.391 . S
C903 H891 0.950 . S
C903 C899 1.393 . S
C903 C902 1.391 . S
H904 C912 0.950 . S
H905 C917 0.950 . S
H906 C914 0.950 . S
H907 C916 0.950 . S
H908 C918 0.950 . S
H909 C920 0.950 . S
H910 C922 0.950 . S
H911 C923 0.950 . S
C912 H904 0.950 . S
C912 C913 1.386 1_556 S
C912 C914 1.391 . S
C913 C912 1.386 1_554 S
C913 C917 1.393 . S
C914 H906 0.950 . S
C914 C912 1.391 . S
C914 C915 1.400 1_556 S
C915 C914 1.400 1_554 S
C915 C916 1.398 . S
C915 C921 1.491 . S
C916 H907 0.950 . S
C916 C915 1.398 . S
C916 C917 1.391 . S
C917 H905 0.950 . S
C917 C913 1.393 . S
C917 C916 1.391 . S
C918 H908 0.950 . S
C918 C919 1.386 . S
C918 C920 1.391 . S
C919 C918 1.386 . S
C919 C923 1.393 1_554 S
C920 H909 0.950 . S
C920 C918 1.391 . S
C920 C921 1.400 . S
C921 C915 1.491 . S
C921 C920 1.400 . S
C921 C922 1.398 1_554 S
C922 H910 0.950 . S
C922 C921 1.398 1_556 S
C922 C923 1.391 . S
C923 H911 0.950 . S
C923 C919 1.393 1_556 S
C923 C922 1.391 . S
H924 C932 0.950 . S
H925 C937 0.950 . S
H926 C934 0.950 . S
H927 C936 0.950 . S
H928 C938 0.950 . S
H929 C940 0.950 . S
H930 C942 0.950 . S
H931 C943 0.950 . S
C932 H924 0.950 . S
C932 C933 1.386 1_554 S
C932 C934 1.391 . S
C933 C932 1.386 1_556 S
C933 C937 1.393 . S
C934 H926 0.950 . S
C934 C932 1.391 . S
C934 C935 1.400 1_554 S
C935 C934 1.400 1_556 S
C935 C936 1.398 . S
C935 C941 1.491 . S
C936 H927 0.950 . S
C936 C935 1.398 . S
C936 C937 1.391 . S
C937 H925 0.950 . S
C937 C933 1.393 . S
C937 C936 1.391 . S
C938 H928 0.950 . S
C938 C939 1.386 . S
C938 C940 1.391 . S
C939 C938 1.386 . S
C939 C943 1.393 1_556 S
C940 H929 0.950 . S
C940 C938 1.391 . S
C940 C941 1.400 . S
C941 C935 1.491 . S
C941 C940 1.400 . S
C941 C942 1.398 1_556 S
C942 H930 0.950 . S
C942 C941 1.398 1_554 S
C942 C943 1.391 . S
C943 H931 0.950 . S
C943 C939 1.393 1_554 S
C943 C942 1.391 . S
H944 C952 0.950 . S
H945 C957 0.950 . S
H946 C954 0.950 . S
H947 C956 0.950 . S
H948 C958 0.950 . S
H949 C960 0.950 . S
H950 C962 0.950 . S
H951 C963 0.950 . S
C952 H944 0.950 . S
C952 C953 1.386 . S
C952 C954 1.391 . S
C953 C952 1.386 . S
C953 C957 1.393 1_556 S
C954 H946 0.950 . S
C954 C952 1.391 . S
C954 C955 1.400 . S
C955 C954 1.400 . S
C955 C956 1.398 1_556 S
C955 C961 1.491 . S
C956 H947 0.950 . S
C956 C955 1.398 1_554 S
C956 C957 1.391 . S
C957 H945 0.950 . S
C957 C953 1.393 1_554 S
C957 C956 1.391 . S
C958 H948 0.950 . S
C958 C959 1.386 1_554 S
C958 C960 1.391 . S
C959 C958 1.386 1_556 S
C959 C963 1.393 . S
C960 H949 0.950 . S
C960 C958 1.391 . S
C960 C961 1.400 1_554 S
C961 C955 1.491 . S
C961 C960 1.400 1_556 S
C961 C962 1.398 . S
C962 H950 0.950 . S
C962 C961 1.398 . S
C962 C963 1.391 . S
C963 H951 0.950 . S
C963 C959 1.393 . S
C963 C962 1.391 . S
H964 C972 0.950 . S
H965 C977 0.950 . S
H966 C974 0.950 . S
H967 C976 0.950 . S
H968 C978 0.950 . S
H969 C980 0.950 . S
H970 C982 0.950 . S
H971 C983 0.950 . S
C972 H964 0.950 . S
C972 C973 1.386 . S
C972 C974 1.391 . S
C973 C972 1.386 . S
C973 C977 1.393 1_556 S
C974 H966 0.950 . S
C974 C972 1.391 . S
C974 C975 1.400 . S
C975 C974 1.400 . S
C975 C976 1.398 1_556 S
C975 C981 1.491 . S
C976 H967 0.950 . S
C976 C975 1.398 1_554 S
C976 C977 1.391 . S
C977 H965 0.950 . S
C977 C973 1.393 1_554 S
C977 C976 1.391 . S
C978 H968 0.950 . S
C978 C979 1.386 1_554 S
C978 C980 1.391 . S
C979 C978 1.386 1_556 S
C979 C983 1.393 . S
C980 H969 0.950 . S
C980 C978 1.391 . S
C980 C981 1.400 1_554 S
C981 C975 1.491 . S
C981 C980 1.400 1_556 S
C981 C982 1.398 . S
C982 H970 0.950 . S
C982 C981 1.398 . S
C982 C983 1.391 . S
C983 H971 0.950 . S
C983 C979 1.393 . S
C983 C982 1.391 . S
H984 C992 0.950 . S
H985 C997 0.950 . S
H986 C994 0.950 . S
H987 C996 0.950 . S
H988 C998 0.950 . S
H989 C1000 0.950 . S
H990 C1002 0.950 . S
H991 C1003 0.950 . S
C992 H984 0.950 . S
C992 C993 1.386 . S
C992 C994 1.391 . S
C993 C992 1.386 . S
C993 C997 1.393 . S
C994 H986 0.950 . S
C994 C992 1.391 . S
C994 C995 1.400 . S
C995 C994 1.400 . S
C995 C996 1.398 . S
C995 C1001 1.491 . S
C996 H987 0.950 . S
C996 C995 1.398 . S
C996 C997 1.391 . S
C997 H985 0.950 . S
C997 C993 1.393 . S
C997 C996 1.391 . S
C998 H988 0.950 . S
C998 C999 1.386 . S
C998 C1000 1.391 . S
C999 C998 1.386 . S
C999 C1003 1.393 . S
C1000 H989 0.950 . S
C1000 C998 1.391 . S
C1000 C1001 1.400 . S
C1001 C995 1.491 . S
C1001 C1000 1.400 . S
C1001 C1002 1.398 . S
C1002 H990 0.950 . S
C1002 C1001 1.398 . S
C1002 C1003 1.391 . S
C1003 H991 0.950 . S
C1003 C999 1.393 . S
C1003 C1002 1.391 . S
H1004 C1012 0.950 . S
H1005 C1017 0.950 . S
H1006 C1014 0.950 . S
H1007 C1016 0.950 . S
H1008 C1018 0.950 . S
H1009 C1020 0.950 . S
H1010 C1022 0.950 . S
H1011 C1023 0.950 . S
C1012 H1004 0.950 . S
C1012 C1013 1.386 . S
C1012 C1014 1.391 . S
C1013 C1012 1.386 . S
C1013 C1017 1.393 . S
C1014 H1006 0.950 . S
C1014 C1012 1.391 . S
C1014 C1015 1.400 . S
C1015 C1014 1.400 . S
C1015 C1016 1.398 . S
C1015 C1021 1.491 . S
C1016 H1007 0.950 . S
C1016 C1015 1.398 . S
C1016 C1017 1.391 . S
C1017 H1005 0.950 . S
C1017 C1013 1.393 . S
C1017 C1016 1.391 . S
C1018 H1008 0.950 . S
C1018 C1019 1.386 . S
C1018 C1020 1.391 . S
C1019 C1018 1.386 . S
C1019 C1023 1.393 . S
C1020 H1009 0.950 . S
C1020 C1018 1.391 . S
C1020 C1021 1.400 . S
C1021 C1015 1.491 . S
C1021 C1020 1.400 . S
C1021 C1022 1.398 . S
C1022 H1010 0.950 . S
C1022 C1021 1.398 . S
C1022 C1023 1.391 . S
C1023 H1011 0.950 . S
C1023 C1019 1.393 . S
C1023 C1022 1.391 . S
H1024 C1032 0.950 . S
H1025 C1037 0.950 . S
H1026 C1034 0.950 . S
H1027 C1036 0.950 . S
H1028 C1038 0.950 . S
H1029 C1040 0.950 . S
H1030 C1042 0.950 . S
H1031 C1043 0.950 . S
C1032 H1024 0.950 . S
C1032 C1033 1.386 . S
C1032 C1034 1.391 . S
C1033 C1032 1.386 . S
C1033 C1037 1.393 . S
C1034 H1026 0.950 . S
C1034 C1032 1.391 . S
C1034 C1035 1.400 . S
C1035 C1034 1.400 . S
C1035 C1036 1.398 . S
C1035 C1041 1.491 . S
C1036 H1027 0.950 . S
C1036 C1035 1.398 . S
C1036 C1037 1.391 . S
C1037 H1025 0.950 . S
C1037 C1033 1.393 . S
C1037 C1036 1.391 . S
C1038 H1028 0.950 . S
C1038 C1039 1.386 . S
C1038 C1040 1.391 . S
C1039 C1038 1.386 . S
C1039 C1043 1.393 . S
C1040 H1029 0.950 . S
C1040 C1038 1.391 . S
C1040 C1041 1.400 . S
C1041 C1035 1.491 . S
C1041 C1040 1.400 . S
C1041 C1042 1.398 . S
C1042 H1030 0.950 . S
C1042 C1041 1.398 . S
C1042 C1043 1.391 . S
C1043 H1031 0.950 . S
C1043 C1039 1.393 . S
C1043 C1042 1.391 . S
H1044 C1052 0.950 . S
H1045 C1057 0.950 . S
H1046 C1054 0.950 . S
H1047 C1056 0.950 . S
H1048 C1058 0.950 . S
H1049 C1060 0.950 . S
H1050 C1062 0.950 . S
H1051 C1063 0.950 . S
C1052 H1044 0.950 . S
C1052 C1053 1.386 . S
C1052 C1054 1.391 . S
C1053 C1052 1.386 . S
C1053 C1057 1.393 . S
C1054 H1046 0.950 . S
C1054 C1052 1.391 . S
C1054 C1055 1.400 . S
C1055 C1054 1.400 . S
C1055 C1056 1.398 . S
C1055 C1061 1.491 . S
C1056 H1047 0.950 . S
C1056 C1055 1.398 . S
C1056 C1057 1.391 . S
C1057 H1045 0.950 . S
C1057 C1053 1.393 . S
C1057 C1056 1.391 . S
C1058 H1048 0.950 . S
C1058 C1059 1.386 . S
C1058 C1060 1.391 . S
C1059 C1058 1.386 . S
C1059 C1063 1.393 . S
C1060 H1049 0.950 . S
C1060 C1058 1.391 . S
C1060 C1061 1.400 . S
C1061 C1055 1.491 . S
C1061 C1060 1.400 . S
C1061 C1062 1.398 . S
C1062 H1050 0.950 . S
C1062 C1061 1.398 . S
C1062 C1063 1.391 . S
C1063 H1051 0.950 . S
C1063 C1059 1.393 . S
C1063 C1062 1.391 . S
H1064 C1072 0.950 . S
H1065 C1077 0.950 . S
H1066 C1074 0.950 . S
H1067 C1076 0.950 . S
H1068 C1078 0.950 . S
H1069 C1080 0.950 . S
H1070 C1082 0.950 . S
H1071 C1083 0.950 . S
C1072 H1064 0.950 . S
C1072 C1073 1.386 . S
C1072 C1074 1.391 . S
C1073 C1072 1.386 . S
C1073 C1077 1.393 . S
C1074 H1066 0.950 . S
C1074 C1072 1.391 . S
C1074 C1075 1.400 . S
C1075 C1074 1.400 . S
C1075 C1076 1.398 . S
C1075 C1081 1.491 . S
C1076 H1067 0.950 . S
C1076 C1075 1.398 . S
C1076 C1077 1.391 . S
C1077 H1065 0.950 . S
C1077 C1073 1.393 . S
C1077 C1076 1.391 . S
C1078 H1068 0.950 . S
C1078 C1079 1.386 . S
C1078 C1080 1.391 . S
C1079 C1078 1.386 . S
C1079 C1083 1.393 . S
C1080 H1069 0.950 . S
C1080 C1078 1.391 . S
C1080 C1081 1.400 . S
C1081 C1075 1.491 . S
C1081 C1080 1.400 . S
C1081 C1082 1.398 . S
C1082 H1070 0.950 . S
C1082 C1081 1.398 . S
C1082 C1083 1.391 . S
C1083 H1071 0.950 . S
C1083 C1079 1.393 . S
C1083 C1082 1.391 . S
H1084 C1092 0.950 . S
H1085 C1097 0.950 . S
H1086 C1094 0.950 . S
H1087 C1096 0.950 . S
H1088 C1098 0.950 . S
H1089 C1100 0.950 . S
H1090 C1102 0.950 . S
H1091 C1103 0.950 . S
C1092 H1084 0.950 . S
C1092 C1093 1.386 . S
C1092 C1094 1.391 . S
C1093 C1092 1.386 . S
C1093 C1097 1.393 . S
C1094 H1086 0.950 . S
C1094 C1092 1.391 . S
C1094 C1095 1.400 . S
C1095 C1094 1.400 . S
C1095 C1096 1.398 . S
C1095 C1101 1.491 . S
C1096 H1087 0.950 . S
C1096 C1095 1.398 . S
C1096 C1097 1.391 . S
C1097 H1085 0.950 . S
C1097 C1093 1.393 . S
C1097 C1096 1.391 . S
C1098 H1088 0.950 . S
C1098 C1099 1.386 . S
C1098 C1100 1.391 . S
C1099 C1098 1.386 . S
C1099 C1103 1.393 . S
C1100 H1089 0.950 . S
C1100 C1098 1.391 . S
C1100 C1101 1.400 . S
C1101 C1095 1.491 . S
C1101 C1100 1.400 . S
C1101 C1102 1.398 . S
C1102 H1090 0.950 . S
C1102 C1101 1.398 . S
C1102 C1103 1.391 . S
C1103 H1091 0.950 . S
C1103 C1099 1.393 . S
C1103 C1102 1.391 . S
H1104 C1112 0.950 . S
H1105 C1117 0.950 . S
H1106 C1114 0.950 . S
H1107 C1116 0.950 . S
H1108 C1118 0.950 . S
H1109 C1120 0.950 . S
H1110 C1122 0.950 . S
H1111 C1123 0.950 . S
C1112 H1104 0.950 . S
C1112 C1113 1.386 . S
C1112 C1114 1.391 . S
C1113 C1112 1.386 . S
C1113 C1117 1.393 . S
C1114 H1106 0.950 . S
C1114 C1112 1.391 . S
C1114 C1115 1.400 . S
C1115 C1114 1.400 . S
C1115 C1116 1.398 . S
C1115 C1121 1.491 . S
C1116 H1107 0.950 . S
C1116 C1115 1.398 . S
C1116 C1117 1.391 . S
C1117 H1105 0.950 . S
C1117 C1113 1.393 . S
C1117 C1116 1.391 . S
C1118 H1108 0.950 . S
C1118 C1119 1.386 . S
C1118 C1120 1.391 . S
C1119 C1118 1.386 . S
C1119 C1123 1.393 . S
C1120 H1109 0.950 . S
C1120 C1118 1.391 . S
C1120 C1121 1.400 . S
C1121 C1115 1.491 . S
C1121 C1120 1.400 . S
C1121 C1122 1.398 . S
C1122 H1110 0.950 . S
C1122 C1121 1.398 . S
C1122 C1123 1.391 . S
C1123 H1111 0.950 . S
C1123 C1119 1.393 . S
C1123 C1122 1.391 . S
H1124 C1132 0.950 . S
H1125 C1137 0.950 . S
H1126 C1134 0.950 . S
H1127 C1136 0.950 . S
H1128 C1138 0.950 . S
H1129 C1140 0.950 . S
H1130 C1142 0.950 . S
H1131 C1143 0.950 . S
C1132 H1124 0.950 . S
C1132 C1133 1.386 . S
C1132 C1134 1.391 . S
C1133 C1132 1.386 . S
C1133 C1137 1.393 . S
C1134 H1126 0.950 . S
C1134 C1132 1.391 . S
C1134 C1135 1.400 . S
C1135 C1134 1.400 . S
C1135 C1136 1.398 . S
C1135 C1141 1.491 . S
C1136 H1127 0.950 . S
C1136 C1135 1.398 . S
C1136 C1137 1.391 . S
C1137 H1125 0.950 . S
C1137 C1133 1.393 . S
C1137 C1136 1.391 . S
C1138 H1128 0.950 . S
C1138 C1139 1.386 . S
C1138 C1140 1.391 . S
C1139 C1138 1.386 . S
C1139 C1143 1.393 . S
C1140 H1129 0.950 . S
C1140 C1138 1.391 . S
C1140 C1141 1.400 . S
C1141 C1135 1.491 . S
C1141 C1140 1.400 . S
C1141 C1142 1.398 . S
C1142 H1130 0.950 . S
C1142 C1141 1.398 . S
C1142 C1143 1.391 . S
C1143 H1131 0.950 . S
C1143 C1139 1.393 . S
C1143 C1142 1.391 . S
H1144 C1152 0.950 . S
H1145 C1157 0.950 . S
H1146 C1154 0.950 . S
H1147 C1156 0.950 . S
H1148 C1158 0.950 . S
H1149 C1160 0.950 . S
H1150 C1162 0.950 . S
H1151 C1163 0.950 . S
C1152 H1144 0.950 . S
C1152 C1153 1.386 . S
C1152 C1154 1.391 . S
C1153 C1152 1.386 . S
C1153 C1157 1.393 . S
C1154 H1146 0.950 . S
C1154 C1152 1.391 . S
C1154 C1155 1.400 . S
C1155 C1154 1.400 . S
C1155 C1156 1.398 . S
C1155 C1161 1.491 . S
C1156 H1147 0.950 . S
C1156 C1155 1.398 . S
C1156 C1157 1.391 . S
C1157 H1145 0.950 . S
C1157 C1153 1.393 . S
C1157 C1156 1.391 . S
C1158 H1148 0.950 . S
C1158 C1159 1.386 . S
C1158 C1160 1.391 . S
C1159 C1158 1.386 . S
C1159 C1163 1.393 . S
C1160 H1149 0.950 . S
C1160 C1158 1.391 . S
C1160 C1161 1.400 . S
C1161 C1155 1.491 . S
C1161 C1160 1.400 . S
C1161 C1162 1.398 . S
C1162 H1150 0.950 . S
C1162 C1161 1.398 . S
C1162 C1163 1.391 . S
C1163 H1151 0.950 . S
C1163 C1159 1.393 . S
C1163 C1162 1.391 . S
H1164 C1172 0.950 . S
H1165 C1177 0.950 . S
H1166 C1174 0.950 . S
H1167 C1176 0.950 . S
H1168 C1178 0.950 . S
H1169 C1180 0.950 . S
H1170 C1182 0.950 . S
H1171 C1183 0.950 . S
C1172 H1164 0.950 . S
C1172 C1173 1.386 . S
C1172 C1174 1.391 . S
C1173 C1172 1.386 . S
C1173 C1177 1.393 . S
C1174 H1166 0.950 . S
C1174 C1172 1.391 . S
C1174 C1175 1.400 . S
C1175 C1174 1.400 . S
C1175 C1176 1.398 . S
C1175 C1181 1.491 . S
C1176 H1167 0.950 . S
C1176 C1175 1.398 . S
C1176 C1177 1.391 . S
C1177 H1165 0.950 . S
C1177 C1173 1.393 . S
C1177 C1176 1.391 . S
C1178 H1168 0.950 . S
C1178 C1179 1.386 . S
C1178 C1180 1.391 . S
C1179 C1178 1.386 . S
C1179 C1183 1.393 . S
C1180 H1169 0.950 . S
C1180 C1178 1.391 . S
C1180 C1181 1.400 . S
C1181 C1175 1.491 . S
C1181 C1180 1.400 . S
C1181 C1182 1.398 . S
C1182 H1170 0.950 . S
C1182 C1181 1.398 . S
C1182 C1183 1.391 . S
C1183 H1171 0.950 . S
C1183 C1179 1.393 . S
C1183 C1182 1.391 . S
H1184 C1192 0.950 . S
H1185 C1197 0.950 . S
H1186 C1194 0.950 . S
H1187 C1196 0.950 . S
H1188 C1198 0.950 . S
H1189 C1200 0.950 . S
H1190 C1202 0.950 . S
H1191 C1203 0.950 . S
C1192 H1184 0.950 . S
C1192 C1193 1.386 . S
C1192 C1194 1.391 . S
C1193 C1192 1.386 . S
C1193 C1197 1.393 . S
C1194 H1186 0.950 . S
C1194 C1192 1.391 . S
C1194 C1195 1.400 . S
C1195 C1194 1.400 . S
C1195 C1196 1.398 . S
C1195 C1201 1.491 . S
C1196 H1187 0.950 . S
C1196 C1195 1.398 . S
C1196 C1197 1.391 . S
C1197 H1185 0.950 . S
C1197 C1193 1.393 . S
C1197 C1196 1.391 . S
C1198 H1188 0.950 . S
C1198 C1199 1.386 . S
C1198 C1200 1.391 . S
C1199 C1198 1.386 . S
C1199 C1203 1.393 . S
C1200 H1189 0.950 . S
C1200 C1198 1.391 . S
C1200 C1201 1.400 . S
C1201 C1195 1.491 . S
C1201 C1200 1.400 . S
C1201 C1202 1.398 . S
C1202 H1190 0.950 . S
C1202 C1201 1.398 . S
C1202 C1203 1.391 . S
C1203 H1191 0.950 . S
C1203 C1199 1.393 . S
C1203 C1202 1.391 . S
H1204 C1212 0.950 . S
H1205 C1217 0.950 . S
H1206 C1214 0.950 . S
H1207 C1216 0.950 . S
H1208 C1218 0.950 . S
H1209 C1220 0.950 . S
H1210 C1222 0.950 . S
H1211 C1223 0.950 . S
C1212 H1204 0.950 . S
C1212 C1213 1.386 . S
C1212 C1214 1.391 . S
C1213 C1212 1.386 . S
C1213 C1217 1.393 . S
C1214 H1206 0.950 . S
C1214 C1212 1.391 . S
C1214 C1215 1.400 . S
C1215 C1214 1.400 . S
C1215 C1216 1.398 . S
C1215 C1221 1.491 . S
C1216 H1207 0.950 . S
C1216 C1215 1.398 . S
C1216 C1217 1.391 . S
C1217 H1205 0.950 . S
C1217 C1213 1.393 . S
C1217 C1216 1.391 . S
C1218 H1208 0.950 . S
C1218 C1219 1.386 . S
C1218 C1220 1.391 . S
C1219 C1218 1.386 . S
C1219 C1223 1.393 . S
C1220 H1209 0.950 . S
C1220 C1218 1.391 . S
C1220 C1221 1.400 . S
C1221 C1215 1.491 . S
C1221 C1220 1.400 . S
C1221 C1222 1.398 . S
C1222 H1210 0.950 . S
C1222 C1221 1.398 . S
C1222 C1223 1.391 . S
C1223 H1211 0.950 . S
C1223 C1219 1.393 . S
C1223 C1222 1.391 . S
H1224 C1232 0.950 . S
H1225 C1237 0.950 . S
H1226 C1234 0.950 . S
H1227 C1236 0.950 . S
H1228 C1238 0.950 . S
H1229 C1240 0.950 . S
H1230 C1242 0.950 . S
H1231 C1243 0.950 . S
C1232 H1224 0.950 . S
C1232 C1233 1.386 . S
C1232 C1234 1.391 . S
C1233 C1232 1.386 . S
C1233 C1237 1.393 . S
C1234 H1226 0.950 . S
C1234 C1232 1.391 . S
C1234 C1235 1.400 . S
C1235 C1234 1.400 . S
C1235 C1236 1.398 . S
C1235 C1241 1.491 . S
C1236 H1227 0.950 . S
C1236 C1235 1.398 . S
C1236 C1237 1.391 . S
C1237 H1225 0.950 . S
C1237 C1233 1.393 . S
C1237 C1236 1.391 . S
C1238 H1228 0.950 . S
C1238 C1239 1.386 . S
C1238 C1240 1.391 . S
C1239 C1238 1.386 . S
C1239 C1243 1.393 . S
C1240 H1229 0.950 . S
C1240 C1238 1.391 . S
C1240 C1241 1.400 . S
C1241 C1235 1.491 . S
C1241 C1240 1.400 . S
C1241 C1242 1.398 . S
C1242 H1230 0.950 . S
C1242 C1241 1.398 . S
C1242 C1243 1.391 . S
C1243 H1231 0.950 . S
C1243 C1239 1.393 . S
C1243 C1242 1.391 . S
H1244 C1252 0.950 . S
H1245 C1257 0.950 . S
H1246 C1254 0.950 . S
H1247 C1256 0.950 . S
H1248 C1258 0.950 . S
H1249 C1260 0.950 . S
H1250 C1262 0.950 . S
H1251 C1263 0.950 . S
C1252 H1244 0.950 . S
C1252 C1253 1.386 . S
C1252 C1254 1.391 . S
C1253 C1252 1.386 . S
C1253 C1257 1.393 . S
C1254 H1246 0.950 . S
C1254 C1252 1.391 . S
C1254 C1255 1.400 . S
C1255 C1254 1.400 . S
C1255 C1256 1.398 . S
C1255 C1261 1.491 . S
C1256 H1247 0.950 . S
C1256 C1255 1.398 . S
C1256 C1257 1.391 . S
C1257 H1245 0.950 . S
C1257 C1253 1.393 . S
C1257 C1256 1.391 . S
C1258 H1248 0.950 . S
C1258 C1259 1.386 . S
C1258 C1260 1.391 . S
C1259 C1258 1.386 . S
C1259 C1263 1.393 . S
C1260 H1249 0.950 . S
C1260 C1258 1.391 . S
C1260 C1261 1.400 . S
C1261 C1255 1.491 . S
C1261 C1260 1.400 . S
C1261 C1262 1.398 . S
C1262 H1250 0.950 . S
C1262 C1261 1.398 . S
C1262 C1263 1.391 . S
C1263 H1251 0.950 . S
C1263 C1259 1.393 . S
C1263 C1262 1.391 . S
H1264 C1272 0.950 . S
H1265 C1277 0.950 . S
H1266 C1274 0.950 . S
H1267 C1276 0.950 . S
H1268 C1278 0.950 . S
H1269 C1280 0.950 . S
H1270 C1282 0.950 . S
H1271 C1283 0.950 . S
C1272 H1264 0.950 . S
C1272 C1273 1.386 . S
C1272 C1274 1.391 . S
C1273 C1272 1.386 . S
C1273 C1277 1.393 . S
C1274 H1266 0.950 . S
C1274 C1272 1.391 . S
C1274 C1275 1.400 . S
C1275 C1274 1.400 . S
C1275 C1276 1.398 . S
C1275 C1281 1.491 . S
C1276 H1267 0.950 . S
C1276 C1275 1.398 . S
C1276 C1277 1.391 . S
C1277 H1265 0.950 . S
C1277 C1273 1.393 . S
C1277 C1276 1.391 . S
C1278 H1268 0.950 . S
C1278 C1279 1.386 . S
C1278 C1280 1.391 . S
C1279 C1278 1.386 . S
C1279 C1283 1.393 . S
C1280 H1269 0.950 . S
C1280 C1278 1.391 . S
C1280 C1281 1.400 . S
C1281 C1275 1.491 . S
C1281 C1280 1.400 . S
C1281 C1282 1.398 . S
C1282 H1270 0.950 . S
C1282 C1281 1.398 . S
C1282 C1283 1.391 . S
C1283 H1271 0.950 . S
C1283 C1279 1.393 . S
C1283 C1282 1.391 . S
H1284 C1292 0.950 . S
H1285 C1297 0.950 . S
H1286 C1294 0.950 . S
H1287 C1296 0.950 . S
H1288 C1298 0.950 . S
H1289 C1300 0.950 . S
H1290 C1302 0.950 . S
H1291 C1303 0.950 . S
C1292 H1284 0.950 . S
C1292 C1293 1.386 . S
C1292 C1294 1.391 . S
C1293 C1292 1.386 . S
C1293 C1297 1.393 . S
C1294 H1286 0.950 . S
C1294 C1292 1.391 . S
C1294 C1295 1.400 . S
C1295 C1294 1.400 . S
C1295 C1296 1.398 . S
C1295 C1301 1.491 . S
C1296 H1287 0.950 . S
C1296 C1295 1.398 . S
C1296 C1297 1.391 . S
C1297 H1285 0.950 . S
C1297 C1293 1.393 . S
C1297 C1296 1.391 . S
C1298 H1288 0.950 . S
C1298 C1299 1.386 . S
C1298 C1300 1.391 . S
C1299 C1298 1.386 . S
C1299 C1303 1.393 . S
C1300 H1289 0.950 . S
C1300 C1298 1.391 . S
C1300 C1301 1.400 . S
C1301 C1295 1.491 . S
C1301 C1300 1.400 . S
C1301 C1302 1.398 . S
C1302 H1290 0.950 . S
C1302 C1301 1.398 . S
C1302 C1303 1.391 . S
C1303 H1291 0.950 . S
C1303 C1299 1.393 . S
C1303 C1302 1.391 . S
H1304 C1312 0.950 . S
H1305 C1317 0.950 . S
H1306 C1314 0.950 . S
H1307 C1316 0.950 . S
H1308 C1318 0.950 . S
H1309 C1320 0.950 . S
H1310 C1322 0.950 . S
H1311 C1323 0.950 . S
C1312 H1304 0.950 . S
C1312 C1313 1.386 . S
C1312 C1314 1.391 . S
C1313 C1312 1.386 . S
C1313 C1317 1.393 . S
C1314 H1306 0.950 . S
C1314 C1312 1.391 . S
C1314 C1315 1.400 . S
C1315 C1314 1.400 . S
C1315 C1316 1.398 . S
C1315 C1321 1.491 . S
C1316 H1307 0.950 . S
C1316 C1315 1.398 . S
C1316 C1317 1.391 . S
C1317 H1305 0.950 . S
C1317 C1313 1.393 . S
C1317 C1316 1.391 . S
C1318 H1308 0.950 . S
C1318 C1319 1.386 . S
C1318 C1320 1.391 . S
C1319 C1318 1.386 . S
C1319 C1323 1.393 . S
C1320 H1309 0.950 . S
C1320 C1318 1.391 . S
C1320 C1321 1.400 . S
C1321 C1315 1.491 . S
C1321 C1320 1.400 . S
C1321 C1322 1.398 . S
C1322 H1310 0.950 . S
C1322 C1321 1.398 . S
C1322 C1323 1.391 . S
C1323 H1311 0.950 . S
C1323 C1319 1.393 . S
C1323 C1322 1.391 . S
H1324 C1332 0.950 . S
H1325 C1337 0.950 . S
H1326 C1334 0.950 . S
H1327 C1336 0.950 . S
H1328 C1338 0.950 . S
H1329 C1340 0.950 . S
H1330 C1342 0.950 . S
H1331 C1343 0.950 . S
C1332 H1324 0.950 . S
C1332 C1333 1.386 . S
C1332 C1334 1.391 . S
C1333 C1332 1.386 . S
C1333 C1337 1.393 . S
C1334 H1326 0.950 . S
C1334 C1332 1.391 . S
C1334 C1335 1.400 . S
C1335 C1334 1.400 . S
C1335 C1336 1.398 . S
C1335 C1341 1.491 . S
C1336 H1327 0.950 . S
C1336 C1335 1.398 . S
C1336 C1337 1.391 . S
C1337 H1325 0.950 . S
C1337 C1333 1.393 . S
C1337 C1336 1.391 . S
C1338 H1328 0.950 . S
C1338 C1339 1.386 . S
C1338 C1340 1.391 . S
C1339 C1338 1.386 . S
C1339 C1343 1.393 . S
C1340 H1329 0.950 . S
C1340 C1338 1.391 . S
C1340 C1341 1.400 . S
C1341 C1335 1.491 . S
C1341 C1340 1.400 . S
C1341 C1342 1.398 . S
C1342 H1330 0.950 . S
C1342 C1341 1.398 . S
C1342 C1343 1.391 . S
C1343 H1331 0.950 . S
C1343 C1339 1.393 . S
C1343 C1342 1.391 . S
H1344 C1352 0.950 . S
H1345 C1357 0.950 . S
H1346 C1354 0.950 . S
H1347 C1356 0.950 . S
H1348 C1358 0.950 . S
H1349 C1360 0.950 . S
H1350 C1362 0.950 . S
H1351 C1363 0.950 . S
C1352 H1344 0.950 . S
C1352 C1353 1.386 . S
C1352 C1354 1.391 . S
C1353 C1352 1.386 . S
C1353 C1357 1.393 . S
C1354 H1346 0.950 . S
C1354 C1352 1.391 . S
C1354 C1355 1.400 . S
C1355 C1354 1.400 . S
C1355 C1356 1.398 . S
C1355 C1361 1.491 . S
C1356 H1347 0.950 . S
C1356 C1355 1.398 . S
C1356 C1357 1.391 . S
C1357 H1345 0.950 . S
C1357 C1353 1.393 . S
C1357 C1356 1.391 . S
C1358 H1348 0.950 . S
C1358 C1359 1.386 . S
C1358 C1360 1.391 . S
C1359 C1358 1.386 . S
C1359 C1363 1.393 . S
C1360 H1349 0.950 . S
C1360 C1358 1.391 . S
C1360 C1361 1.400 . S
C1361 C1355 1.491 . S
C1361 C1360 1.400 . S
C1361 C1362 1.398 . S
C1362 H1350 0.950 . S
C1362 C1361 1.398 . S
C1362 C1363 1.391 . S
C1363 H1351 0.950 . S
C1363 C1359 1.393 . S
C1363 C1362 1.391 . S
H1364 C1372 0.950 . S
H1365 C1377 0.950 . S
H1366 C1374 0.950 . S
H1367 C1376 0.950 . S
H1368 C1378 0.950 . S
H1369 C1380 0.950 . S
H1370 C1382 0.950 . S
H1371 C1383 0.950 . S
C1372 H1364 0.950 . S
C1372 C1373 1.386 . S
C1372 C1374 1.391 . S
C1373 C1372 1.386 . S
C1373 C1377 1.393 . S
C1374 H1366 0.950 . S
C1374 C1372 1.391 . S
C1374 C1375 1.400 . S
C1375 C1374 1.400 . S
C1375 C1376 1.398 . S
C1375 C1381 1.491 . S
C1376 H1367 0.950 . S
C1376 C1375 1.398 . S
C1376 C1377 1.391 . S
C1377 H1365 0.950 . S
C1377 C1373 1.393 . S
C1377 C1376 1.391 . S
C1378 H1368 0.950 . S
C1378 C1379 1.386 . S
C1378 C1380 1.391 . S
C1379 C1378 1.386 . S
C1379 C1383 1.393 . S
C1380 H1369 0.950 . S
C1380 C1378 1.391 . S
C1380 C1381 1.400 . S
C1381 C1375 1.491 . S
C1381 C1380 1.400 . S
C1381 C1382 1.398 . S
C1382 H1370 0.950 . S
C1382 C1381 1.398 . S
C1382 C1383 1.391 . S
C1383 H1371 0.950 . S
C1383 C1379 1.393 . S
C1383 C1382 1.391 . S
H1384 C1392 0.950 . S
H1385 C1397 0.950 . S
H1386 C1394 0.950 . S
H1387 C1396 0.950 . S
H1388 C1398 0.950 . S
H1389 C1400 0.950 . S
H1390 C1402 0.950 . S
H1391 C1403 0.950 . S
C1392 H1384 0.950 . S
C1392 C1393 1.386 . S
C1392 C1394 1.391 . S
C1393 C1392 1.386 . S
C1393 C1397 1.393 . S
C1394 H1386 0.950 . S
C1394 C1392 1.391 . S
C1394 C1395 1.400 . S
C1395 C1394 1.400 . S
C1395 C1396 1.398 . S
C1395 C1401 1.491 . S
C1396 H1387 0.950 . S
C1396 C1395 1.398 . S
C1396 C1397 1.391 . S
C1397 H1385 0.950 . S
C1397 C1393 1.393 . S
C1397 C1396 1.391 . S
C1398 H1388 0.950 . S
C1398 C1399 1.386 . S
C1398 C1400 1.391 . S
C1399 C1398 1.386 . S
C1399 C1403 1.393 . S
C1400 H1389 0.950 . S
C1400 C1398 1.391 . S
C1400 C1401 1.400 . S
C1401 C1395 1.491 . S
C1401 C1400 1.400 . S
C1401 C1402 1.398 . S
C1402 H1390 0.950 . S
C1402 C1401 1.398 . S
C1402 C1403 1.391 . S
C1403 H1391 0.950 . S
C1403 C1399 1.393 . S
C1403 C1402 1.391 . S
H1404 C1412 0.950 . S
H1405 C1417 0.950 . S
H1406 C1414 0.950 . S
H1407 C1416 0.950 . S
H1408 C1418 0.950 . S
H1409 C1420 0.950 . S
H1410 C1422 0.950 . S
H1411 C1423 0.950 . S
C1412 H1404 0.950 . S
C1412 C1413 1.386 . S
C1412 C1414 1.391 . S
C1413 C1412 1.386 . S
C1413 C1417 1.393 . S
C1414 H1406 0.950 . S
C1414 C1412 1.391 . S
C1414 C1415 1.400 . S
C1415 C1414 1.400 . S
C1415 C1416 1.398 . S
C1415 C1421 1.491 . S
C1416 H1407 0.950 . S
C1416 C1415 1.398 . S
C1416 C1417 1.391 . S
C1417 H1405 0.950 . S
C1417 C1413 1.393 . S
C1417 C1416 1.391 . S
C1418 H1408 0.950 . S
C1418 C1419 1.386 . S
C1418 C1420 1.391 . S
C1419 C1418 1.386 . S
C1419 C1423 1.393 . S
C1420 H1409 0.950 . S
C1420 C1418 1.391 . S
C1420 C1421 1.400 . S
C1421 C1415 1.491 . S
C1421 C1420 1.400 . S
C1421 C1422 1.398 . S
C1422 H1410 0.950 . S
C1422 C1421 1.398 . S
C1422 C1423 1.391 . S
C1423 H1411 0.950 . S
C1423 C1419 1.393 . S
C1423 C1422 1.391 . S
H1424 C1432 0.950 . S
H1425 C1437 0.950 . S
H1426 C1434 0.950 . S
H1427 C1436 0.950 . S
H1428 C1438 0.950 . S
H1429 C1440 0.950 . S
H1430 C1442 0.950 . S
H1431 C1443 0.950 . S
C1432 H1424 0.950 . S
C1432 C1433 1.386 . S
C1432 C1434 1.391 . S
C1433 C1432 1.386 . S
C1433 C1437 1.393 . S
C1434 H1426 0.950 . S
C1434 C1432 1.391 . S
C1434 C1435 1.400 . S
C1435 C1434 1.400 . S
C1435 C1436 1.398 . S
C1435 C1441 1.491 . S
C1436 H1427 0.950 . S
C1436 C1435 1.398 . S
C1436 C1437 1.391 . S
C1437 H1425 0.950 . S
C1437 C1433 1.393 . S
C1437 C1436 1.391 . S
C1438 H1428 0.950 . S
C1438 C1439 1.386 . S
C1438 C1440 1.391 . S
C1439 C1438 1.386 . S
C1439 C1443 1.393 . S
C1440 H1429 0.950 . S
C1440 C1438 1.391 . S
C1440 C1441 1.400 . S
C1441 C1435 1.491 . S
C1441 C1440 1.400 . S
C1441 C1442 1.398 . S
C1442 H1430 0.950 . S
C1442 C1441 1.398 . S
C1442 C1443 1.391 . S
C1443 H1431 0.950 . S
C1443 C1439 1.393 . S
C1443 C1442 1.391 . S
H1444 C1452 0.950 . S
H1445 C1457 0.950 . S
H1446 C1454 0.950 . S
H1447 C1456 0.950 . S
H1448 C1458 0.950 . S
H1449 C1460 0.950 . S
H1450 C1462 0.950 . S
H1451 C1463 0.950 . S
C1452 H1444 0.950 . S
C1452 C1453 1.386 . S
C1452 C1454 1.391 . S
C1453 C1452 1.386 . S
C1453 C1457 1.393 . S
C1454 H1446 0.950 . S
C1454 C1452 1.391 . S
C1454 C1455 1.400 . S
C1455 C1454 1.400 . S
C1455 C1456 1.398 . S
C1455 C1461 1.491 . S
C1456 H1447 0.950 . S
C1456 C1455 1.398 . S
C1456 C1457 1.391 . S
C1457 H1445 0.950 . S
C1457 C1453 1.393 . S
C1457 C1456 1.391 . S
C1458 H1448 0.950 . S
C1458 C1459 1.386 . S
C1458 C1460 1.391 . S
C1459 C1458 1.386 . S
C1459 C1463 1.393 . S
C1460 H1449 0.950 . S
C1460 C1458 1.391 . S
C1460 C1461 1.400 . S
C1461 C1455 1.491 . S
C1461 C1460 1.400 . S
C1461 C1462 1.398 . S
C1462 H1450 0.950 . S
C1462 C1461 1.398 . S
C1462 C1463 1.391 . S
C1463 H1451 0.950 . S
C1463 C1459 1.393 . S
C1463 C1462 1.391 . S
H1464 C1472 0.950 . S
H1465 C1477 0.950 . S
H1466 C1474 0.950 . S
H1467 C1476 0.950 . S
H1468 C1478 0.950 . S
H1469 C1480 0.950 . S
H1470 C1482 0.950 . S
H1471 C1483 0.950 . S
C1472 H1464 0.950 . S
C1472 C1473 1.386 . S
C1472 C1474 1.391 . S
C1473 C1472 1.386 . S
C1473 C1477 1.393 . S
C1474 H1466 0.950 . S
C1474 C1472 1.391 . S
C1474 C1475 1.400 . S
C1475 C1474 1.400 . S
C1475 C1476 1.398 . S
C1475 C1481 1.491 . S
C1476 H1467 0.950 . S
C1476 C1475 1.398 . S
C1476 C1477 1.391 . S
C1477 H1465 0.950 . S
C1477 C1473 1.393 . S
C1477 C1476 1.391 . S
C1478 H1468 0.950 . S
C1478 C1479 1.386 . S
C1478 C1480 1.391 . S
C1479 C1478 1.386 . S
C1479 C1483 1.393 . S
C1480 H1469 0.950 . S
C1480 C1478 1.391 . S
C1480 C1481 1.400 . S
C1481 C1475 1.491 . S
C1481 C1480 1.400 . S
C1481 C1482 1.398 . S
C1482 H1470 0.950 . S
C1482 C1481 1.398 . S
C1482 C1483 1.391 . S
C1483 H1471 0.950 . S
C1483 C1479 1.393 . S
C1483 C1482 1.391 . S
H1484 C1492 0.979 . S
H1485 C1497 0.950 . S
H1486 C1494 0.950 . S
H1487 C1496 0.950 . S
H1488 C1498 0.977 . S
H1489 C1500 0.950 . S
H1490 C1502 0.950 . S
H1491 C1503 0.950 . S
C1492 H1484 0.979 . S
C1492 C1493 1.344 1_565 S
C1492 C1494 1.405 . S
C1493 C1492 1.344 1_545 S
C1493 C1497 1.393 . S
C1494 H1486 0.950 . S
C1494 C1492 1.405 . S
C1494 C1495 1.400 1_565 S
C1495 C1494 1.400 1_545 S
C1495 C1496 1.398 . S
C1495 C1501 1.491 1_545 S
C1496 H1487 0.950 . S
C1496 C1495 1.398 . S
C1496 C1497 1.391 . S
C1497 H1485 0.950 . S
C1497 C1493 1.393 . S
C1497 C1496 1.391 . S
C1498 H1488 0.977 . S
C1498 C1499 1.346 1_545 S
C1498 C1500 1.405 . S
C1499 C1498 1.346 1_565 S
C1499 C1503 1.393 . S
C1500 H1489 0.950 . S
C1500 C1498 1.405 . S
C1500 C1501 1.400 1_545 S
C1501 C1495 1.491 1_565 S
C1501 C1500 1.400 1_565 S
C1501 C1502 1.398 . S
C1502 H1490 0.950 . S
C1502 C1501 1.398 . S
C1502 C1503 1.391 . S
C1503 H1491 0.950 . S
C1503 C1499 1.393 . S
C1503 C1502 1.391 . S
H1504 C1512 0.950 . S
H1505 C1517 0.950 . S
H1506 C1514 0.957 1_655 S
H1507 C1516 0.950 . S
H1508 C1518 0.950 . S
H1509 C1520 0.956 1_455 S
H1510 C1522 0.950 . S
H1511 C1523 0.950 . S
C1512 H1504 0.950 . S
C1512 C1513 1.386 . S
C1512 C1514 1.391 . S
C1513 C1512 1.386 . S
C1513 C1517 1.393 . S
C1514 H1506 0.957 1_455 S
C1514 C1512 1.391 . S
C1514 C1515 1.400 . S
C1515 C1514 1.400 . S
C1515 C1516 1.398 . S
C1515 C1521 1.491 1_455 S
C1516 H1507 0.950 . S
C1516 C1515 1.398 . S
C1516 C1517 1.391 . S
C1517 H1505 0.950 . S
C1517 C1513 1.393 . S
C1517 C1516 1.391 . S
C1518 H1508 0.950 . S
C1518 C1519 1.386 . S
C1518 C1520 1.391 . S
C1519 C1518 1.386 . S
C1519 C1523 1.393 . S
C1520 H1509 0.956 1_655 S
C1520 C1518 1.391 . S
C1520 C1521 1.400 . S
C1521 C1515 1.491 1_655 S
C1521 C1520 1.400 . S
C1521 C1522 1.398 . S
C1522 H1510 0.950 . S
C1522 C1521 1.398 . S
C1522 C1523 1.391 . S
C1523 H1511 0.950 . S
C1523 C1519 1.393 . S
C1523 C1522 1.391 . S
H1524 C1532 0.950 . S
H1525 C1537 0.950 . S
H1526 C1534 0.950 . S
H1527 C1536 0.950 . S
H1528 C1538 0.950 . S
H1529 C1540 0.950 . S
H1530 C1542 0.950 . S
H1531 C1543 0.950 . S
C1532 H1524 0.950 . S
C1532 C1533 1.386 . S
C1532 C1534 1.391 . S
C1533 C1532 1.386 . S
C1533 C1537 1.393 . S
C1534 H1526 0.950 . S
C1534 C1532 1.391 . S
C1534 C1535 1.400 . S
C1535 C1534 1.400 . S
C1535 C1536 1.398 . S
C1535 C1541 1.491 . S
C1536 H1527 0.950 . S
C1536 C1535 1.398 . S
C1536 C1537 1.391 . S
C1537 H1525 0.950 . S
C1537 C1533 1.393 . S
C1537 C1536 1.391 . S
C1538 H1528 0.950 . S
C1538 C1539 1.386 . S
C1538 C1540 1.391 . S
C1539 C1538 1.386 . S
C1539 C1543 1.393 . S
C1540 H1529 0.950 . S
C1540 C1538 1.391 . S
C1540 C1541 1.400 . S
C1541 C1535 1.491 . S
C1541 C1540 1.400 . S
C1541 C1542 1.398 . S
C1542 H1530 0.950 . S
C1542 C1541 1.398 . S
C1542 C1543 1.391 . S
C1543 H1531 0.950 . S
C1543 C1539 1.393 . S
C1543 C1542 1.391 . S
H1544 C1552 0.950 . S
H1545 C1557 0.950 . S
H1546 C1554 0.950 . S
H1547 C1556 0.961 . S
H1548 C1558 0.950 . S
H1549 C1560 0.950 . S
H1550 C1562 0.960 . S
H1551 C1563 0.950 . S
C1552 H1544 0.950 . S
C1552 C1553 1.386 . S
C1552 C1554 1.391 . S
C1553 C1552 1.386 . S
C1553 C1557 1.393 . S
C1554 H1546 0.950 . S
C1554 C1552 1.391 . S
C1554 C1555 1.400 . S
C1555 C1554 1.400 . S
C1555 C1556 1.411 1_565 S
C1555 C1561 1.491 1_565 S
C1556 H1547 0.961 . S
C1556 C1555 1.411 1_545 S
C1556 C1557 1.372 1_545 S
C1557 H1545 0.950 . S
C1557 C1553 1.393 . S
C1557 C1556 1.372 1_565 S
C1558 H1548 0.950 . S
C1558 C1559 1.386 . S
C1558 C1560 1.391 . S
C1559 C1558 1.386 . S
C1559 C1563 1.393 . S
C1560 H1549 0.950 . S
C1560 C1558 1.391 . S
C1560 C1561 1.400 . S
C1561 C1555 1.491 1_545 S
C1561 C1560 1.400 . S
C1561 C1562 1.411 1_545 S
C1562 H1550 0.960 . S
C1562 C1561 1.411 1_565 S
C1562 C1563 1.372 1_565 S
C1563 H1551 0.950 . S
C1563 C1559 1.393 . S
C1563 C1562 1.372 1_545 S
H1564 C1572 0.950 . S
H1565 C1577 0.950 . S
H1566 C1574 0.934 1_655 S
H1567 C1576 0.950 . S
H1568 C1578 0.950 . S
H1569 C1580 0.938 1_455 S
H1570 C1582 0.950 . S
H1571 C1583 0.950 . S
C1572 H1564 0.950 . S
C1572 C1573 1.386 . S
C1572 C1574 1.397 . S
C1573 C1572 1.386 . S
C1573 C1577 1.393 . S
C1574 H1566 0.934 1_455 S
C1574 C1572 1.397 . S
C1574 C1575 1.410 . S
C1575 C1574 1.410 . S
C1575 C1576 1.398 . S
C1575 C1581 1.491 1_455 S
C1576 H1567 0.950 . S
C1576 C1575 1.398 . S
C1576 C1577 1.391 . S
C1577 H1565 0.950 . S
C1577 C1573 1.393 . S
C1577 C1576 1.391 . S
C1578 H1568 0.950 . S
C1578 C1579 1.386 . S
C1578 C1580 1.396 . S
C1579 C1578 1.386 . S
C1579 C1583 1.393 . S
C1580 H1569 0.938 1_655 S
C1580 C1578 1.396 . S
C1580 C1581 1.408 . S
C1581 C1575 1.491 1_655 S
C1581 C1580 1.408 . S
C1581 C1582 1.398 . S
C1582 H1570 0.950 . S
C1582 C1581 1.398 . S
C1582 C1583 1.391 . S
C1583 H1571 0.950 . S
C1583 C1579 1.393 . S
C1583 C1582 1.391 . S
H1584 C1592 0.950 . S
H1585 C1597 0.950 . S
H1586 C1594 0.950 . S
H1587 C1596 0.950 . S
H1588 C1598 0.950 . S
H1589 C1600 0.950 . S
H1590 C1602 0.950 . S
H1591 C1603 0.950 . S
C1592 H1584 0.950 . S
C1592 C1593 1.386 . S
C1592 C1594 1.391 . S
C1593 C1592 1.386 . S
C1593 C1597 1.393 . S
C1594 H1586 0.950 . S
C1594 C1592 1.391 . S
C1594 C1595 1.400 . S
C1595 C1594 1.400 . S
C1595 C1596 1.398 . S
C1595 C1601 1.491 . S
C1596 H1587 0.950 . S
C1596 C1595 1.398 . S
C1596 C1597 1.391 . S
C1597 H1585 0.950 . S
C1597 C1593 1.393 . S
C1597 C1596 1.391 . S
C1598 H1588 0.950 . S
C1598 C1599 1.386 . S
C1598 C1600 1.391 . S
C1599 C1598 1.386 . S
C1599 C1603 1.393 . S
C1600 H1589 0.950 . S
C1600 C1598 1.391 . S
C1600 C1601 1.400 . S
C1601 C1595 1.491 . S
C1601 C1600 1.400 . S
C1601 C1602 1.398 . S
C1602 H1590 0.950 . S
C1602 C1601 1.398 . S
C1602 C1603 1.391 . S
C1603 H1591 0.950 . S
C1603 C1599 1.393 . S
C1603 C1602 1.391 . S
H1604 C1612 0.950 . S
H1605 C1617 0.950 . S
H1606 C1614 0.950 . S
H1607 C1616 0.950 . S
H1608 C1618 0.950 . S
H1609 C1620 0.950 . S
H1610 C1622 0.950 . S
H1611 C1623 0.950 . S
C1612 H1604 0.950 . S
C1612 C1613 1.386 . S
C1612 C1614 1.391 . S
C1613 C1612 1.386 . S
C1613 C1617 1.393 . S
C1614 H1606 0.950 . S
C1614 C1612 1.391 . S
C1614 C1615 1.400 . S
C1615 C1614 1.400 . S
C1615 C1616 1.398 . S
C1615 C1621 1.491 . S
C1616 H1607 0.950 . S
C1616 C1615 1.398 . S
C1616 C1617 1.391 . S
C1617 H1605 0.950 . S
C1617 C1613 1.393 . S
C1617 C1616 1.391 . S
C1618 H1608 0.950 . S
C1618 C1619 1.386 . S
C1618 C1620 1.391 . S
C1619 C1618 1.386 . S
C1619 C1623 1.393 . S
C1620 H1609 0.950 . S
C1620 C1618 1.391 . S
C1620 C1621 1.400 . S
C1621 C1615 1.491 . S
C1621 C1620 1.400 . S
C1621 C1622 1.398 . S
C1622 H1610 0.950 . S
C1622 C1621 1.398 . S
C1622 C1623 1.391 . S
C1623 H1611 0.950 . S
C1623 C1619 1.393 . S
C1623 C1622 1.391 . S
H1624 C1632 0.950 . S
H1625 C1637 0.950 . S
H1626 C1634 0.950 . S
H1627 C1636 0.950 . S
H1628 C1638 0.950 . S
H1629 C1640 0.950 . S
H1630 C1642 0.950 . S
H1631 C1643 0.950 . S
C1632 H1624 0.950 . S
C1632 C1633 1.386 . S
C1632 C1634 1.391 . S
C1633 C1632 1.386 . S
C1633 C1637 1.393 . S
C1634 H1626 0.950 . S
C1634 C1632 1.391 . S
C1634 C1635 1.400 . S
C1635 C1634 1.400 . S
C1635 C1636 1.398 . S
C1635 C1641 1.491 . S
C1636 H1627 0.950 . S
C1636 C1635 1.398 . S
C1636 C1637 1.391 . S
C1637 H1625 0.950 . S
C1637 C1633 1.393 . S
C1637 C1636 1.391 . S
C1638 H1628 0.950 . S
C1638 C1639 1.386 . S
C1638 C1640 1.391 . S
C1639 C1638 1.386 . S
C1639 C1643 1.393 . S
C1640 H1629 0.950 . S
C1640 C1638 1.391 . S
C1640 C1641 1.400 . S
C1641 C1635 1.491 . S
C1641 C1640 1.400 . S
C1641 C1642 1.398 . S
C1642 H1630 0.950 . S
C1642 C1641 1.398 . S
C1642 C1643 1.391 . S
C1643 H1631 0.950 . S
C1643 C1639 1.393 . S
C1643 C1642 1.391 . S
H1644 C1652 0.950 . S
H1645 C1657 0.950 . S
H1646 C1654 0.950 . S
H1647 C1656 0.950 . S
H1648 C1658 0.950 . S
H1649 C1660 0.950 . S
H1650 C1662 0.950 . S
H1651 C1663 0.950 . S
C1652 H1644 0.950 . S
C1652 C1653 1.386 . S
C1652 C1654 1.391 . S
C1653 C1652 1.386 . S
C1653 C1657 1.393 . S
C1654 H1646 0.950 . S
C1654 C1652 1.391 . S
C1654 C1655 1.400 . S
C1655 C1654 1.400 . S
C1655 C1656 1.398 . S
C1655 C1661 1.491 . S
C1656 H1647 0.950 . S
C1656 C1655 1.398 . S
C1656 C1657 1.391 . S
C1657 H1645 0.950 . S
C1657 C1653 1.393 . S
C1657 C1656 1.391 . S
C1658 H1648 0.950 . S
C1658 C1659 1.386 . S
C1658 C1660 1.391 . S
C1659 C1658 1.386 . S
C1659 C1663 1.393 . S
C1660 H1649 0.950 . S
C1660 C1658 1.391 . S
C1660 C1661 1.400 . S
C1661 C1655 1.491 . S
C1661 C1660 1.400 . S
C1661 C1662 1.398 . S
C1662 H1650 0.950 . S
C1662 C1661 1.398 . S
C1662 C1663 1.391 . S
C1663 H1651 0.950 . S
C1663 C1659 1.393 . S
C1663 C1662 1.391 . S
H1664 C1672 0.950 . S
H1665 C1677 0.950 . S
H1666 C1674 0.950 . S
H1667 C1676 0.950 . S
H1668 C1678 0.950 . S
H1669 C1680 0.950 . S
H1670 C1682 0.950 . S
H1671 C1683 0.950 . S
C1672 H1664 0.950 . S
C1672 C1673 1.386 . S
C1672 C1674 1.391 . S
C1673 C1672 1.386 . S
C1673 C1677 1.393 . S
C1674 H1666 0.950 . S
C1674 C1672 1.391 . S
C1674 C1675 1.400 . S
C1675 C1674 1.400 . S
C1675 C1676 1.398 . S
C1675 C1681 1.491 . S
C1676 H1667 0.950 . S
C1676 C1675 1.398 . S
C1676 C1677 1.391 . S
C1677 H1665 0.950 . S
C1677 C1673 1.393 . S
C1677 C1676 1.391 . S
C1678 H1668 0.950 . S
C1678 C1679 1.386 . S
C1678 C1680 1.391 . S
C1679 C1678 1.386 . S
C1679 C1683 1.393 . S
C1680 H1669 0.950 . S
C1680 C1678 1.391 . S
C1680 C1681 1.400 . S
C1681 C1675 1.491 . S
C1681 C1680 1.400 . S
C1681 C1682 1.398 . S
C1682 H1670 0.950 . S
C1682 C1681 1.398 . S
C1682 C1683 1.391 . S
C1683 H1671 0.950 . S
C1683 C1679 1.393 . S
C1683 C1682 1.391 . S
H1684 C1692 0.950 . S
H1685 C1697 0.950 . S
H1686 C1694 0.950 . S
H1687 C1696 0.950 . S
H1688 C1698 0.950 . S
H1689 C1700 0.950 . S
H1690 C1702 0.950 . S
H1691 C1703 0.950 . S
C1692 H1684 0.950 . S
C1692 C1693 1.386 . S
C1692 C1694 1.391 . S
C1693 C1692 1.386 . S
C1693 C1697 1.393 . S
C1694 H1686 0.950 . S
C1694 C1692 1.391 . S
C1694 C1695 1.400 . S
C1695 C1694 1.400 . S
C1695 C1696 1.398 . S
C1695 C1701 1.491 . S
C1696 H1687 0.950 . S
C1696 C1695 1.398 . S
C1696 C1697 1.391 . S
C1697 H1685 0.950 . S
C1697 C1693 1.393 . S
C1697 C1696 1.391 . S
C1698 H1688 0.950 . S
C1698 C1699 1.386 . S
C1698 C1700 1.391 . S
C1699 C1698 1.386 . S
C1699 C1703 1.393 . S
C1700 H1689 0.950 . S
C1700 C1698 1.391 . S
C1700 C1701 1.400 . S
C1701 C1695 1.491 . S
C1701 C1700 1.400 . S
C1701 C1702 1.398 . S
C1702 H1690 0.950 . S
C1702 C1701 1.398 . S
C1702 C1703 1.391 . S
C1703 H1691 0.950 . S
C1703 C1699 1.393 . S
C1703 C1702 1.391 . S
H1704 C1712 0.950 . S
H1705 C1717 0.950 . S
H1706 C1714 0.950 . S
H1707 C1716 0.950 . S
H1708 C1718 0.950 . S
H1709 C1720 0.950 . S
H1710 C1722 0.950 . S
H1711 C1723 0.950 . S
C1712 H1704 0.950 . S
C1712 C1713 1.386 . S
C1712 C1714 1.391 . S
C1713 C1712 1.386 . S
C1713 C1717 1.393 . S
C1714 H1706 0.950 . S
C1714 C1712 1.391 . S
C1714 C1715 1.400 . S
C1715 C1714 1.400 . S
C1715 C1716 1.398 . S
C1715 C1721 1.491 . S
C1716 H1707 0.950 . S
C1716 C1715 1.398 . S
C1716 C1717 1.391 . S
C1717 H1705 0.950 . S
C1717 C1713 1.393 . S
C1717 C1716 1.391 . S
C1718 H1708 0.950 . S
C1718 C1719 1.386 . S
C1718 C1720 1.391 . S
C1719 C1718 1.386 . S
C1719 C1723 1.393 . S
C1720 H1709 0.950 . S
C1720 C1718 1.391 . S
C1720 C1721 1.400 . S
C1721 C1715 1.491 . S
C1721 C1720 1.400 . S
C1721 C1722 1.398 . S
C1722 H1710 0.950 . S
C1722 C1721 1.398 . S
C1722 C1723 1.391 . S
C1723 H1711 0.950 . S
C1723 C1719 1.393 . S
C1723 C1722 1.391 . S
H1724 C1732 0.950 . S
H1725 C1737 0.950 . S
H1726 C1734 0.950 . S
H1727 C1736 0.950 . S
H1728 C1738 0.950 . S
H1729 C1740 0.950 . S
H1730 C1742 0.950 . S
H1731 C1743 0.950 . S
C1732 H1724 0.950 . S
C1732 C1733 1.386 . S
C1732 C1734 1.391 . S
C1733 C1732 1.386 . S
C1733 C1737 1.393 . S
C1734 H1726 0.950 . S
C1734 C1732 1.391 . S
C1734 C1735 1.400 . S
C1735 C1734 1.400 . S
C1735 C1736 1.398 . S
C1735 C1741 1.491 . S
C1736 H1727 0.950 . S
C1736 C1735 1.398 . S
C1736 C1737 1.391 . S
C1737 H1725 0.950 . S
C1737 C1733 1.393 . S
C1737 C1736 1.391 . S
C1738 H1728 0.950 . S
C1738 C1739 1.386 . S
C1738 C1740 1.391 . S
C1739 C1738 1.386 . S
C1739 C1743 1.393 . S
C1740 H1729 0.950 . S
C1740 C1738 1.391 . S
C1740 C1741 1.400 . S
C1741 C1735 1.491 . S
C1741 C1740 1.400 . S
C1741 C1742 1.398 . S
C1742 H1730 0.950 . S
C1742 C1741 1.398 . S
C1742 C1743 1.391 . S
C1743 H1731 0.950 . S
C1743 C1739 1.393 . S
C1743 C1742 1.391 . S
H1744 C1752 0.950 . S
H1745 C1757 0.950 . S
H1746 C1754 0.950 . S
H1747 C1756 0.950 . S
H1748 C1758 0.950 . S
H1749 C1760 0.950 . S
H1750 C1762 0.950 . S
H1751 C1763 0.950 . S
C1752 H1744 0.950 . S
C1752 C1753 1.386 . S
C1752 C1754 1.391 . S
C1753 C1752 1.386 . S
C1753 C1757 1.393 . S
C1754 H1746 0.950 . S
C1754 C1752 1.391 . S
C1754 C1755 1.400 . S
C1755 C1754 1.400 . S
C1755 C1756 1.398 . S
C1755 C1761 1.491 . S
C1756 H1747 0.950 . S
C1756 C1755 1.398 . S
C1756 C1757 1.391 . S
C1757 H1745 0.950 . S
C1757 C1753 1.393 . S
C1757 C1756 1.391 . S
C1758 H1748 0.950 . S
C1758 C1759 1.386 . S
C1758 C1760 1.391 . S
C1759 C1758 1.386 . S
C1759 C1763 1.393 . S
C1760 H1749 0.950 . S
C1760 C1758 1.391 . S
C1760 C1761 1.400 . S
C1761 C1755 1.491 . S
C1761 C1760 1.400 . S
C1761 C1762 1.398 . S
C1762 H1750 0.950 . S
C1762 C1761 1.398 . S
C1762 C1763 1.391 . S
C1763 H1751 0.950 . S
C1763 C1759 1.393 . S
C1763 C1762 1.391 . S
H1764 C1772 0.950 . S
H1765 C1777 0.950 . S
H1766 C1774 0.950 . S
H1767 C1776 0.950 . S
H1768 C1778 0.950 . S
H1769 C1780 0.950 . S
H1770 C1782 0.950 . S
H1771 C1783 0.950 . S
C1772 H1764 0.950 . S
C1772 C1773 1.386 . S
C1772 C1774 1.391 . S
C1773 C1772 1.386 . S
C1773 C1777 1.393 . S
C1774 H1766 0.950 . S
C1774 C1772 1.391 . S
C1774 C1775 1.400 . S
C1775 C1774 1.400 . S
C1775 C1776 1.398 . S
C1775 C1781 1.491 . S
C1776 H1767 0.950 . S
C1776 C1775 1.398 . S
C1776 C1777 1.391 . S
C1777 H1765 0.950 . S
C1777 C1773 1.393 . S
C1777 C1776 1.391 . S
C1778 H1768 0.950 . S
C1778 C1779 1.386 . S
C1778 C1780 1.391 . S
C1779 C1778 1.386 . S
C1779 C1783 1.393 . S
C1780 H1769 0.950 . S
C1780 C1778 1.391 . S
C1780 C1781 1.400 . S
C1781 C1775 1.491 . S
C1781 C1780 1.400 . S
C1781 C1782 1.398 . S
C1782 H1770 0.950 . S
C1782 C1781 1.398 . S
C1782 C1783 1.391 . S
C1783 H1771 0.950 . S
C1783 C1779 1.393 . S
C1783 C1782 1.391 . S
H1784 C1792 0.950 . S
H1785 C1797 0.950 . S
H1786 C1794 0.950 . S
H1787 C1796 0.950 . S
H1788 C1798 0.950 . S
H1789 C1800 0.950 . S
H1790 C1802 0.950 . S
H1791 C1803 0.950 . S
C1792 H1784 0.950 . S
C1792 C1793 1.386 . S
C1792 C1794 1.391 . S
C1793 C1792 1.386 . S
C1793 C1797 1.393 . S
C1794 H1786 0.950 . S
C1794 C1792 1.391 . S
C1794 C1795 1.400 . S
C1795 C1794 1.400 . S
C1795 C1796 1.398 . S
C1795 C1801 1.491 . S
C1796 H1787 0.950 . S
C1796 C1795 1.398 . S
C1796 C1797 1.391 . S
C1797 H1785 0.950 . S
C1797 C1793 1.393 . S
C1797 C1796 1.391 . S
C1798 H1788 0.950 . S
C1798 C1799 1.386 . S
C1798 C1800 1.391 . S
C1799 C1798 1.386 . S
C1799 C1803 1.393 . S
C1800 H1789 0.950 . S
C1800 C1798 1.391 . S
C1800 C1801 1.400 . S
C1801 C1795 1.491 . S
C1801 C1800 1.400 . S
C1801 C1802 1.398 . S
C1802 H1790 0.950 . S
C1802 C1801 1.398 . S
C1802 C1803 1.391 . S
C1803 H1791 0.950 . S
C1803 C1799 1.393 . S
C1803 C1802 1.391 . S
H1804 C1812 0.950 . S
H1805 C1817 0.950 . S
H1806 C1814 0.950 . S
H1807 C1816 0.950 . S
H1808 C1818 0.950 . S
H1809 C1820 0.950 . S
H1810 C1822 0.950 . S
H1811 C1823 0.950 . S
C1812 H1804 0.950 . S
C1812 C1813 1.386 . S
C1812 C1814 1.391 . S
C1813 C1812 1.386 . S
C1813 C1817 1.393 . S
C1814 H1806 0.950 . S
C1814 C1812 1.391 . S
C1814 C1815 1.400 . S
C1815 C1814 1.400 . S
C1815 C1816 1.398 . S
C1815 C1821 1.491 . S
C1816 H1807 0.950 . S
C1816 C1815 1.398 . S
C1816 C1817 1.391 . S
C1817 H1805 0.950 . S
C1817 C1813 1.393 . S
C1817 C1816 1.391 . S
C1818 H1808 0.950 . S
C1818 C1819 1.386 . S
C1818 C1820 1.391 . S
C1819 C1818 1.386 . S
C1819 C1823 1.393 . S
C1820 H1809 0.950 . S
C1820 C1818 1.391 . S
C1820 C1821 1.400 . S
C1821 C1815 1.491 . S
C1821 C1820 1.400 . S
C1821 C1822 1.398 . S
C1822 H1810 0.950 . S
C1822 C1821 1.398 . S
C1822 C1823 1.391 . S
C1823 H1811 0.950 . S
C1823 C1819 1.393 . S
C1823 C1822 1.391 . S
H1824 C1832 0.950 . S
H1825 C1837 0.950 . S
H1826 C1834 0.950 . S
H1827 C1836 0.950 . S
H1828 C1838 0.950 . S
H1829 C1840 0.950 . S
H1830 C1842 0.950 . S
H1831 C1843 0.950 . S
C1832 H1824 0.950 . S
C1832 C1833 1.386 . S
C1832 C1834 1.391 . S
C1833 C1832 1.386 . S
C1833 C1837 1.393 . S
C1834 H1826 0.950 . S
C1834 C1832 1.391 . S
C1834 C1835 1.400 . S
C1835 C1834 1.400 . S
C1835 C1836 1.398 . S
C1835 C1841 1.491 1_455 S
C1836 H1827 0.950 . S
C1836 C1835 1.398 . S
C1836 C1837 1.391 . S
C1837 H1825 0.950 . S
C1837 C1833 1.393 . S
C1837 C1836 1.391 . S
C1838 H1828 0.950 . S
C1838 C1839 1.386 . S
C1838 C1840 1.391 . S
C1839 C1838 1.386 . S
C1839 C1843 1.393 . S
C1840 H1829 0.950 . S
C1840 C1838 1.391 . S
C1840 C1841 1.400 . S
C1841 C1835 1.491 1_655 S
C1841 C1840 1.400 . S
C1841 C1842 1.398 . S
C1842 H1830 0.950 . S
C1842 C1841 1.398 . S
C1842 C1843 1.391 . S
C1843 H1831 0.950 . S
C1843 C1839 1.393 . S
C1843 C1842 1.391 . S
H1844 C1852 0.950 . S
H1845 C1857 0.950 . S
H1846 C1854 0.950 . S
H1847 C1856 0.950 . S
H1848 C1858 0.950 . S
H1849 C1860 0.950 . S
H1850 C1862 0.950 . S
H1851 C1863 0.950 . S
C1852 H1844 0.950 . S
C1852 C1853 1.386 . S
C1852 C1854 1.391 . S
C1853 C1852 1.386 . S
C1853 C1857 1.393 . S
C1854 H1846 0.950 . S
C1854 C1852 1.391 . S
C1854 C1855 1.400 . S
C1855 C1854 1.400 . S
C1855 C1856 1.398 . S
C1855 C1861 1.491 . S
C1856 H1847 0.950 . S
C1856 C1855 1.398 . S
C1856 C1857 1.391 . S
C1857 H1845 0.950 . S
C1857 C1853 1.393 . S
C1857 C1856 1.391 . S
C1858 H1848 0.950 . S
C1858 C1859 1.386 . S
C1858 C1860 1.391 . S
C1859 C1858 1.386 . S
C1859 C1863 1.393 . S
C1860 H1849 0.950 . S
C1860 C1858 1.391 . S
C1860 C1861 1.400 . S
C1861 C1855 1.491 . S
C1861 C1860 1.400 . S
C1861 C1862 1.398 . S
C1862 H1850 0.950 . S
C1862 C1861 1.398 . S
C1862 C1863 1.391 . S
C1863 H1851 0.950 . S
C1863 C1859 1.393 . S
C1863 C1862 1.391 . S
H1864 C1872 0.950 . S
H1865 C1877 0.950 . S
H1866 C1874 0.950 1_565 S
H1867 C1876 0.950 . S
H1868 C1878 0.950 . S
H1869 C1880 0.950 1_545 S
H1870 C1882 0.950 . S
H1871 C1883 0.950 . S
C1872 H1864 0.950 . S
C1872 C1873 1.386 . S
C1872 C1874 1.391 . S
C1873 C1872 1.386 . S
C1873 C1877 1.393 . S
C1874 H1866 0.950 1_545 S
C1874 C1872 1.391 . S
C1874 C1875 1.400 . S
C1875 C1874 1.400 . S
C1875 C1876 1.398 . S
C1875 C1881 1.491 1_545 S
C1876 H1867 0.950 . S
C1876 C1875 1.398 . S
C1876 C1877 1.391 . S
C1877 H1865 0.950 . S
C1877 C1873 1.393 . S
C1877 C1876 1.391 . S
C1878 H1868 0.950 . S
C1878 C1879 1.386 . S
C1878 C1880 1.391 . S
C1879 C1878 1.386 . S
C1879 C1883 1.393 . S
C1880 H1869 0.950 1_565 S
C1880 C1878 1.391 . S
C1880 C1881 1.400 . S
C1881 C1875 1.491 1_565 S
C1881 C1880 1.400 . S
C1881 C1882 1.398 . S
C1882 H1870 0.950 . S
C1882 C1881 1.398 . S
C1882 C1883 1.391 . S
C1883 H1871 0.950 . S
C1883 C1879 1.393 . S
C1883 C1882 1.391 . S
H1884 C1892 0.950 . S
H1885 C1897 0.950 . S
H1886 C1894 0.950 1_545 S
H1887 C1896 0.950 . S
H1888 C1898 0.950 . S
H1889 C1900 0.950 1_565 S
H1890 C1902 0.950 . S
H1891 C1903 0.950 . S
C1892 H1884 0.950 . S
C1892 C1893 1.386 . S
C1892 C1894 1.391 . S
C1893 C1892 1.386 . S
C1893 C1897 1.393 . S
C1894 H1886 0.950 1_565 S
C1894 C1892 1.391 . S
C1894 C1895 1.400 . S
C1895 C1894 1.400 . S
C1895 C1896 1.398 . S
C1895 C1901 1.491 1_565 S
C1896 H1887 0.950 . S
C1896 C1895 1.398 . S
C1896 C1897 1.391 . S
C1897 H1885 0.950 . S
C1897 C1893 1.393 . S
C1897 C1896 1.391 . S
C1898 H1888 0.950 . S
C1898 C1899 1.386 . S
C1898 C1900 1.391 . S
C1899 C1898 1.386 . S
C1899 C1903 1.393 . S
C1900 H1889 0.950 1_545 S
C1900 C1898 1.391 . S
C1900 C1901 1.400 . S
C1901 C1895 1.491 1_545 S
C1901 C1900 1.400 . S
C1901 C1902 1.398 . S
C1902 H1890 0.950 . S
C1902 C1901 1.398 . S
C1902 C1903 1.391 . S
C1903 H1891 0.950 . S
C1903 C1899 1.393 . S
C1903 C1902 1.391 . S
H1904 C1912 0.950 . S
H1905 C1917 0.950 . S
H1906 C1914 0.950 . S
H1907 C1916 0.950 . S
H1908 C1918 0.950 . S
H1909 C1920 0.950 . S
H1910 C1922 0.950 . S
H1911 C1923 0.950 . S
C1912 H1904 0.950 . S
C1912 C1913 1.386 . S
C1912 C1914 1.391 . S
C1913 C1912 1.386 . S
C1913 C1917 1.393 . S
C1914 H1906 0.950 . S
C1914 C1912 1.391 . S
C1914 C1915 1.400 . S
C1915 C1914 1.400 . S
C1915 C1916 1.398 . S
C1915 C1921 1.491 1_655 S
C1916 H1907 0.950 . S
C1916 C1915 1.398 . S
C1916 C1917 1.391 . S
C1917 H1905 0.950 . S
C1917 C1913 1.393 . S
C1917 C1916 1.391 . S
C1918 H1908 0.950 . S
C1918 C1919 1.386 . S
C1918 C1920 1.391 . S
C1919 C1918 1.386 . S
C1919 C1923 1.393 . S
C1920 H1909 0.950 . S
C1920 C1918 1.391 . S
C1920 C1921 1.400 . S
C1921 C1915 1.491 1_455 S
C1921 C1920 1.400 . S
C1921 C1922 1.398 . S
C1922 H1910 0.950 . S
C1922 C1921 1.398 . S
C1922 C1923 1.391 . S
C1923 H1911 0.950 . S
C1923 C1919 1.393 . S
C1923 C1922 1.391 . S
H1924 C1932 0.950 . S
H1925 C1937 0.950 . S
H1926 C1934 0.950 . S
H1927 C1936 0.950 . S
H1928 C1938 0.950 . S
H1929 C1940 0.950 . S
H1930 C1942 0.950 . S
H1931 C1943 0.950 . S
C1932 H1924 0.950 . S
C1932 C1933 1.386 . S
C1932 C1934 1.391 . S
C1933 C1932 1.386 . S
C1933 C1937 1.393 . S
C1934 H1926 0.950 . S
C1934 C1932 1.391 . S
C1934 C1935 1.400 . S
C1935 C1934 1.400 . S
C1935 C1936 1.398 . S
C1935 C1941 1.491 . S
C1936 H1927 0.950 . S
C1936 C1935 1.398 . S
C1936 C1937 1.391 . S
C1937 H1925 0.950 . S
C1937 C1933 1.393 . S
C1937 C1936 1.391 . S
C1938 H1928 0.950 . S
C1938 C1939 1.386 . S
C1938 C1940 1.391 . S
C1939 C1938 1.386 . S
C1939 C1943 1.393 . S
C1940 H1929 0.950 . S
C1940 C1938 1.391 . S
C1940 C1941 1.400 . S
C1941 C1935 1.491 . S
C1941 C1940 1.400 . S
C1941 C1942 1.398 . S
C1942 H1930 0.950 . S
C1942 C1941 1.398 . S
C1942 C1943 1.391 . S
C1943 H1931 0.950 . S
C1943 C1939 1.393 . S
C1943 C1942 1.391 . S
C513 C65 0.964 1_554 S
C519 C9 0.954 1_556 S
C533 C79 0.953 . S
C539 C23 0.960 . S
C553 C51 0.977 1_554 S
C559 C37 0.938 1_556 S
C573 C149 0.945 1_556 S
C579 C93 0.972 1_554 S
C593 C107 0.976 1_554 S
C599 C163 0.939 1_556 S
C613 C135 0.963 . S
C619 C121 0.950 . S
C633 C177 0.977 . S
C639 C233 0.942 . S
C653 C247 0.973 . S
C659 C191 0.947 . S
C673 C205 0.944 . S
C679 C219 0.973 . S
C693 C261 0.976 . S
C699 C317 0.942 . S
C713 C331 0.976 . S
C719 C275 0.943 . S
C733 C289 0.954 . S
C739 C303 0.964 . S
C753 C401 0.945 . S
C759 C345 0.973 . S
C773 C359 0.955 . S
C779 C415 0.964 . S
C793 C387 0.959 . S
C799 C373 0.961 . S
C813 C485 0.962 . S
C819 C429 0.959 . S
C833 C443 0.941 . S
C839 C499 0.979 . S
C853 C457 0.961 . S
C859 C471 0.960 . S
C873 C160 1.376 . S
C879 C6 1.390 . S
C893 C20 1.378 . S
C899 C132 1.388 . S
C913 C146 1.375 . S
C919 C34 1.392 . S
C933 C104 1.374 . S
C939 C48 1.392 . S
C953 C62 1.378 . S
C959 C118 1.389 . S
C973 C90 1.391 . S
C979 C76 1.375 . S
C993 C174 1.390 . S
C999 C328 1.382 . S
C1013 C300 1.395 . S
C1019 C188 1.377 . S
C1033 C314 1.394 . S
C1039 C202 1.378 . S
C1053 C216 1.390 . S
C1059 C272 1.378 . S
C1073 C230 1.385 . S
C1079 C286 1.383 . S
C1093 C244 1.378 . S
C1099 C258 1.389 . S
C1113 C496 1.387 . S
C1119 C342 1.380 . S
C1133 C356 1.375 . S
C1139 C468 1.392 . S
C1153 C370 1.392 . S
C1159 C482 1.376 . S
C1173 C440 1.394 . S
C1179 C384 1.378 . S
C1193 C454 1.384 . S
C1199 C398 1.389 . S
C1213 C426 1.395 . S
C1219 C412 1.377 . S
C1233 C217 1.389 . S
C1239 C7 1.370 . S
C1253 C231 1.386 . S
C1259 C21 1.378 . S
C1273 C35 1.376 . S
C1279 C245 1.385 . S
C1293 C49 1.375 . S
C1299 C343 1.386 . S
C1313 C63 1.392 . S
C1319 C357 1.371 . S
C1333 C77 1.384 . S
C1339 C371 1.374 . S
C1353 C91 1.390 . S
C1359 C469 1.370 . S
C1373 C105 1.391 . S
C1379 C483 1.370 . S
C1393 C119 1.386 . S
C1399 C497 1.379 . S
C1413 C133 1.388 . S
C1419 C259 1.376 . S
C1433 C273 1.380 . S
C1439 C147 1.385 . S
C1453 C287 1.387 . S
C1459 C161 1.372 . S
C1473 C385 1.404 . S
C1479 C175 1.398 . S
C1493 C189 1.393 . S
C1499 C399 1.408 . S
C1513 C413 1.396 . S
C1519 C203 1.401 . S
C1533 C301 1.407 . S
C1539 C427 1.393 . S
C1553 C441 1.396 . S
C1559 C315 1.401 . S
C1573 C455 1.404 . S
C1579 C329 1.398 . S
C1593 C8 1.638 . S
C1599 C414 1.630 . S
C1613 C22 1.627 . S
C1619 C386 1.624 . S
C1633 C36 1.645 . S
C1639 C400 1.636 . S
C1653 C50 1.638 . S
C1659 C190 1.630 . S
C1673 C204 1.643 . S
C1679 C64 1.635 . S
C1693 C176 1.619 . S
C1699 C78 1.629 . S
C1713 C330 1.621 . S
C1719 C92 1.623 . S
C1733 C302 1.619 . S
C1739 C106 1.629 . S
C1753 C316 1.626 . S
C1759 C120 1.624 . S
C1773 C442 1.634 . S
C1779 C134 1.650 . S
C1793 C456 1.633 . S
C1799 C148 1.627 . S
C1813 C428 1.640 . S
C1819 C162 1.632 . S
C1833 C218 1.607 . S
C1839 C358 1.602 . S
C1853 C372 1.619 . S
C1859 C232 1.631 . S
C1873 C344 1.615 . S
C1879 C246 1.605 . S
C1893 C260 1.628 . S
C1899 C498 1.637 . S
C1913 C470 1.638 . S
C1919 C274 1.635 . S
C1933 C288 1.636 . S
C1939 C484 1.626 . S
