# Generated by pormake.
# Topology can, (4)-cn, num edge types: 1
# Building blocks:
#     Node 0, Type 0, BuildingBlock: UXUYUI_clean_sbu_0, # of connection points: 4
#     Node 1, Type 0, BuildingBlock: UXUYUI_clean_sbu_0, # of connection points: 4
#     Node 2, Type 0, BuildingBlock: UXUYUI_clean_sbu_0, # of connection points: 4
#     Node 3, Type 0, BuildingBlock: UXUYUI_clean_sbu_0, # of connection points: 4
#     Node 4, Type 0, BuildingBlock: UXUYUI_clean_sbu_0, # of connection points: 4
#     Node 5, Type 0, BuildingBlock: UXUYUI_clean_sbu_0, # of connection points: 4
#     Node 6, Type 0, BuildingBlock: UXUYUI_clean_sbu_0, # of connection points: 4
#     Node 7, Type 0, BuildingBlock: UXUYUI_clean_sbu_0, # of connection points: 4
#     Node 8, Type 0, BuildingBlock: UXUYUI_clean_sbu_0, # of connection points: 4
#     Node 9, Type 0, BuildingBlock: UXUYUI_clean_sbu_0, # of connection points: 4
#     Node 10, Type 0, BuildingBlock: UXUYUI_clean_sbu_0, # of connection points: 4
#     Node 11, Type 0, BuildingBlock: UXUYUI_clean_sbu_0, # of connection points: 4
#     Edge 12, Type (0, 0), BuildingBlock: XUDNAN_clean_linker_2, # of connection points: 2
#     Edge 13, Type (0, 0), BuildingBlock: XUDNAN_clean_linker_2, # of connection points: 2
#     Edge 14, Type (0, 0), BuildingBlock: XUDNAN_clean_linker_2, # of connection points: 2
#     Edge 15, Type (0, 0), BuildingBlock: XUDNAN_clean_linker_2, # of connection points: 2
#     Edge 16, Type (0, 0), BuildingBlock: XUDNAN_clean_linker_2, # of connection points: 2
#     Edge 17, Type (0, 0), BuildingBlock: XUDNAN_clean_linker_2, # of connection points: 2
#     Edge 18, Type (0, 0), BuildingBlock: XUDNAN_clean_linker_2, # of connection points: 2
#     Edge 19, Type (0, 0), BuildingBlock: XUDNAN_clean_linker_2, # of connection points: 2
#     Edge 20, Type (0, 0), BuildingBlock: XUDNAN_clean_linker_2, # of connection points: 2
#     Edge 21, Type (0, 0), BuildingBlock: XUDNAN_clean_linker_2, # of connection points: 2
#     Edge 22, Type (0, 0), BuildingBlock: XUDNAN_clean_linker_2, # of connection points: 2
#     Edge 23, Type (0, 0), BuildingBlock: XUDNAN_clean_linker_2, # of connection points: 2
#     Edge 24, Type (0, 0), BuildingBlock: XUDNAN_clean_linker_2, # of connection points: 2
#     Edge 25, Type (0, 0), BuildingBlock: XUDNAN_clean_linker_2, # of connection points: 2
#     Edge 26, Type (0, 0), BuildingBlock: XUDNAN_clean_linker_2, # of connection points: 2
#     Edge 27, Type (0, 0), BuildingBlock: XUDNAN_clean_linker_2, # of connection points: 2
#     Edge 28, Type (0, 0), BuildingBlock: XUDNAN_clean_linker_2, # of connection points: 2
#     Edge 29, Type (0, 0), BuildingBlock: XUDNAN_clean_linker_2, # of connection points: 2
#     Edge 30, Type (0, 0), BuildingBlock: XUDNAN_clean_linker_2, # of connection points: 2
#     Edge 31, Type (0, 0), BuildingBlock: XUDNAN_clean_linker_2, # of connection points: 2
#     Edge 32, Type (0, 0), BuildingBlock: XUDNAN_clean_linker_2, # of connection points: 2
#     Edge 33, Type (0, 0), BuildingBlock: XUDNAN_clean_linker_2, # of connection points: 2
#     Edge 34, Type (0, 0), BuildingBlock: XUDNAN_clean_linker_2, # of connection points: 2
#     Edge 35, Type (0, 0), BuildingBlock: XUDNAN_clean_linker_2, # of connection points: 2
# Relax obj value: 0.136
# Max RMSD: 0.111
# Mean RMSD: 0.111
data_MOF--net-can--node1-UXUYUI_clean_sbu_0--edge1-XUDNAN_clean_linker_2
_symmetry_space_group_name_H-M    P1
_symmetry_Int_Tables_number       1
_symmetry_cell_setting            triclinic
loop_
_symmetry_equiv_pos_as_xyz
'x, y, z'
_cell_length_a     86.066358
_cell_length_b     86.095768
_cell_length_c     37.615212
_cell_angle_alpha  90.014125
_cell_angle_beta   89.99221
_cell_angle_gamma 119.97814
loop_
_atom_site_label
_atom_site_type_symbol
_atom_site_fract_x
_atom_site_fract_y
_atom_site_fract_z
_atom_type_partial_charge
Li0 Li 0.08346 0.43077 0.25242 0.0
Li1 Li 0.069 0.40163 0.28353 0.0
Li2 Li 0.09593 0.41044 0.24337 0.0
Li3 Li 0.06599 0.40146 0.21919 0.0
C4 C 0.10737 0.43393 0.30965 0.0
N5 N 0.13435 0.45851 0.35317 0.0
C6 C 0.10394 0.43524 0.34553 0.0
C7 C 0.1246 0.44492 0.29606 0.0
C8 C 0.11773 0.44781 0.36705 0.0
C9 C 0.13804 0.45731 0.31845 0.0
C10 C 0.04271 0.40988 0.2731 0.0
C11 C 0.0131 0.38997 0.29615 0.0
N12 N 0.01293 0.40421 0.31141 0.0
C13 C 0.04219 0.42433 0.28879 0.0
C14 C 0.02801 0.39257 0.27656 0.0
C15 C 0.02702 0.42118 0.30812 0.0
C16 C 0.08821 0.46356 0.2254 0.0
N17 N 0.08886 0.45511 0.25543 0.0
C18 C 0.09649 0.48119 0.29023 0.0
C19 C 0.09267 0.46346 0.28754 0.0
C20 C 0.09611 0.49035 0.25965 0.0
C21 C 0.09181 0.48128 0.22691 0.0
H22 H 0.08485 0.45651 0.20028 0.0
H23 H 0.09245 0.45629 0.31121 0.0
C24 C 0.05323 0.37349 0.33497 0.0
N25 N 0.05747 0.3906 0.32744 0.0
C26 C 0.04401 0.36522 0.36628 0.0
C27 C 0.04363 0.39229 0.38134 0.0
C28 C 0.05324 0.40016 0.35029 0.0
C29 C 0.03875 0.3745 0.38984 0.0
H30 H 0.05694 0.36624 0.31658 0.0
H31 H 0.05705 0.41386 0.34405 0.0
C32 C 0.10217 0.43389 0.18329 0.0
N33 N 0.12823 0.45604 0.13542 0.0
C34 C 0.10059 0.4292 0.14735 0.0
C35 C 0.11686 0.44996 0.19478 0.0
C36 C 0.11396 0.44054 0.12359 0.0
C37 C 0.12993 0.46095 0.17021 0.0
C38 C 0.06579 0.37091 0.23046 0.0
C39 C 0.07621 0.36705 0.20757 0.0
C40 C 0.04754 0.35855 0.23445 0.0
C41 C 0.0681 0.35095 0.1886 0.0
C42 C 0.03992 0.34261 0.21496 0.0
N43 N 0.05028 0.33917 0.19261 0.0
C44 C 0.12627 0.40824 0.26594 0.0
C45 C 0.1249 0.4119 0.20382 0.0
C46 C 0.14292 0.40919 0.26241 0.0
N47 N 0.1178 0.40995 0.23693 0.0
C48 C 0.14159 0.41318 0.19913 0.0
C49 C 0.15093 0.41207 0.22872 0.0
H50 H 0.12028 0.40654 0.29196 0.0
H51 H 0.11772 0.41265 0.18101 0.0
C52 C 0.03412 0.3896 0.17971 0.0
N53 N 0.05021 0.39022 0.17961 0.0
C54 C 0.02208 0.38156 0.15168 0.0
C55 C 0.04347 0.3752 0.12333 0.0
C56 C 0.05513 0.38338 0.152 0.0
C57 C 0.02662 0.37411 0.12302 0.0
H58 H 0.03066 0.39549 0.20143 0.0
H59 H 0.06811 0.38429 0.1522 0.0
O60 O 0.09398 0.42166 0.28825 0.0
O61 O 0.05753 0.4127 0.25442 0.0
O62 O 0.08922 0.42287 0.20688 0.0
O63 O 0.07344 0.3867 0.24888 0.0
H64 H 0.09075 0.42672 0.35661 0.0
H65 H 0.12765 0.44378 0.26867 0.0
H66 H 0.11523 0.44905 0.3948 0.0
H67 H 0.15142 0.46592 0.30824 0.0
H68 H 1.00169 0.37664 0.29925 0.0
H69 H 0.0534 0.43782 0.28622 0.0
H70 H 0.02817 0.38126 0.26448 0.0
H71 H 0.02647 0.43222 0.32056 0.0
H72 H 0.09935 0.48755 0.31611 0.0
H73 H 0.0914 0.48787 0.20269 0.0
H74 H 0.04108 0.35169 0.37181 0.0
H75 H 0.03975 0.40005 0.39793 0.0
H76 H 0.08923 0.41689 0.13792 0.0
H77 H 0.11807 0.45404 0.22225 0.0
H78 H 0.11296 0.43702 0.09575 0.0
H79 H 0.14139 0.47342 0.17877 0.0
H80 H 0.09037 0.37647 0.20427 0.0
H81 H 0.03933 0.36127 0.25228 0.0
H82 H 0.07598 0.34782 0.17062 0.0
H83 H 0.02579 0.33296 0.21761 0.0
H84 H 0.14973 0.40831 0.28589 0.0
H85 H 0.14718 0.41508 0.17263 0.0
H86 H 0.00944 0.38143 0.15226 0.0
H87 H 0.04752 0.36959 0.10189 0.0
Li88 Li 0.65264 0.08242 0.75993 0.0
Li89 Li 0.66881 0.06822 0.78544 0.0
Li90 Li 0.68494 0.09511 0.74523 0.0
Li91 Li 0.66331 0.06539 0.72202 0.0
C92 C 0.67579 0.1073 0.8129 0.0
N93 N 0.68049 0.13599 0.85395 0.0
C94 C 0.67271 0.10526 0.84955 0.0
C95 C 0.68161 0.12405 0.7973 0.0
C96 C 0.67504 0.11988 0.86979 0.0
C97 C 0.68382 0.13836 0.81844 0.0
C98 C 0.6347 0.04202 0.7815 0.0
C99 C 0.62738 0.01318 0.80561 0.0
N100 N 0.61405 0.01308 0.82519 0.0
C101 C 0.62081 0.04155 0.80162 0.0
C102 C 0.63791 0.02765 0.78326 0.0
C103 C 0.61055 0.02683 0.82361 0.0
C104 C 0.62211 0.08449 0.74014 0.0
N105 N 0.63308 0.08654 0.76793 0.0
C106 C 0.61358 0.09009 0.80817 0.0
C107 C 0.62923 0.08949 0.80144 0.0
C108 C 0.60171 0.08752 0.78018 0.0
C109 C 0.60633 0.08505 0.74564 0.0
H110 H 0.6253 0.08177 0.71387 0.0
H111 H 0.63785 0.09055 0.82325 0.0
C112 C 0.68104 0.04975 0.83128 0.0
N113 N 0.66997 0.0567 0.82803 0.0
C114 C 0.68067 0.0405 0.8622 0.0
C115 C 0.65764 0.04588 0.8857 0.0
C116 C 0.65858 0.05513 0.85462 0.0
C117 C 0.66868 0.0383 0.88973 0.0
H118 H 0.68999 0.05119 0.80974 0.0
H119 H 0.64994 0.06079 0.85136 0.0
C120 C 0.66552 0.10214 0.69115 0.0
N121 N 0.66742 0.12914 0.64831 0.0
C122 C 0.66866 0.10218 0.65467 0.0
C123 C 0.66299 0.11566 0.70566 0.0
C124 C 0.66969 0.11599 0.63351 0.0
C125 C 0.66409 0.12923 0.68362 0.0
C126 C 0.69354 0.06521 0.72475 0.0
C127 C 0.70617 0.07574 0.69905 0.0
C128 C 0.68792 0.04695 0.72717 0.0
C129 C 0.71283 0.06776 0.67589 0.0
C130 C 0.69487 0.03946 0.70348 0.0
N131 N 0.70707 0.04993 0.67853 0.0
C132 C 0.71864 0.1243 0.76504 0.0
C133 C 0.71197 0.12383 0.70385 0.0
C134 C 0.73532 0.13979 0.76032 0.0
N135 N 0.70734 0.11669 0.73701 0.0
C136 C 0.72849 0.13929 0.69792 0.0
C137 C 0.74049 0.14746 0.72632 0.0
H138 H 0.71475 0.11822 0.79108 0.0
H139 H 0.70301 0.11737 0.68181 0.0
C140 C 0.64204 0.03331 0.68423 0.0
N141 N 0.65686 0.04981 0.68151 0.0
C142 C 0.63563 0.022 0.65474 0.0
C143 C 0.65998 0.04471 0.61998 0.0
C144 C 0.66605 0.05554 0.65036 0.0
C145 C 0.64432 0.02781 0.62173 0.0
H146 H 0.63486 0.02907 0.70907 0.0
H147 H 0.6778 0.06872 0.6488 0.0
O148 O 0.67364 0.0931 0.79274 0.0
O149 O 0.64514 0.05652 0.76038 0.0
O150 O 0.66437 0.08862 0.71219 0.0
O151 O 0.68664 0.07271 0.74724 0.0
H152 H 0.6685 0.09251 0.86227 0.0
H153 H 0.68467 0.12611 0.76929 0.0
H154 H 0.67257 0.11843 0.89813 0.0
H155 H 0.68829 0.15137 0.80665 0.0
H156 H 0.62985 0.00206 0.80746 0.0
H157 H 0.618 0.05245 0.80043 0.0
H158 H 0.64857 0.02776 0.76785 0.0
H159 H 0.59983 0.02634 0.83946 0.0
H160 H 0.6106 0.09213 0.83518 0.0
H161 H 0.59746 0.08275 0.72338 0.0
H162 H 0.68935 0.03479 0.8642 0.0
H163 H 0.6484 0.04474 0.90644 0.0
H164 H 0.6704 0.09172 0.64281 0.0
H165 H 0.65993 0.11557 0.73351 0.0
H166 H 0.67226 0.11625 0.6053 0.0
H167 H 0.66219 0.13979 0.69458 0.0
H168 H 0.71069 0.08988 0.69682 0.0
H169 H 0.67823 0.03863 0.747 0.0
H170 H 0.72254 0.07573 0.65575 0.0
H171 H 0.69056 0.02533 0.70492 0.0
H172 H 0.74421 0.14542 0.78291 0.0
H173 H 0.73179 0.14478 0.6713 0.0
H174 H 0.62374 0.00896 0.6577 0.0
H175 H 0.66708 0.04985 0.59514 0.0
Li176 Li 0.6025 0.66726 0.28701 0.0
Li177 Li 0.57108 0.65211 0.25744 0.0
Li178 Li 0.59869 0.66502 0.22242 0.0
Li179 Li 0.5915 0.68461 0.25309 0.0
C180 C 0.59486 0.63371 0.2425 0.0
N181 N 0.60516 0.61171 0.20896 0.0
C182 C 0.58213 0.61817 0.2251 0.0
C183 C 0.61277 0.63789 0.24334 0.0
C184 C 0.58762 0.60726 0.20818 0.0
C185 C 0.61773 0.62666 0.2261 0.0
C186 C 0.5752 0.67995 0.31441 0.0
C187 C 0.55415 0.69054 0.32032 0.0
N188 N 0.56438 0.70178 0.34678 0.0
C189 C 0.58546 0.69151 0.34178 0.0
C190 C 0.55938 0.67937 0.30365 0.0
C191 C 0.57978 0.70247 0.35777 0.0
C192 C 0.62591 0.68126 0.34651 0.0
N193 N 0.61512 0.6662 0.32758 0.0
C194 C 0.62061 0.64822 0.36841 0.0
C195 C 0.61242 0.6499 0.33777 0.0
C196 C 0.63155 0.66345 0.38913 0.0
C197 C 0.63427 0.68019 0.37758 0.0
H198 H 0.62779 0.69406 0.33778 0.0
H199 H 0.60372 0.63813 0.32226 0.0
C200 C 0.5391 0.62116 0.23556 0.0
N201 N 0.54717 0.63289 0.26274 0.0
C202 C 0.52233 0.60584 0.24052 0.0
C203 C 0.52201 0.61566 0.30057 0.0
C204 C 0.53893 0.63055 0.29468 0.0
C205 C 0.51361 0.60273 0.27363 0.0
H206 H 0.54596 0.62342 0.21036 0.0
H207 H 0.54567 0.64007 0.31588 0.0
C208 C 0.63271 0.69615 0.24237 0.0
N209 N 0.66852 0.71647 0.22426 0.0
C210 C 0.63866 0.71153 0.22148 0.0
C211 C 0.64506 0.69137 0.25479 0.0
C212 C 0.65679 0.72154 0.21239 0.0
C213 C 0.66308 0.70174 0.24514 0.0
C214 C 0.577 0.67577 0.18423 0.0
C215 C 0.59314 0.68878 0.16922 0.0
C216 C 0.56079 0.67134 0.1676 0.0
C217 C 0.59282 0.69729 0.13785 0.0
C218 C 0.56101 0.68016 0.13626 0.0
N219 N 0.57689 0.69285 0.12216 0.0
C220 C 0.59373 0.64707 0.15892 0.0
C221 C 0.62463 0.66704 0.1694 0.0
C222 C 0.5977 0.64021 0.12889 0.0
N223 N 0.60712 0.65992 0.179 0.0
C224 C 0.62921 0.66077 0.13907 0.0
C225 C 0.61563 0.64687 0.11898 0.0
H226 H 0.57993 0.64164 0.16713 0.0
H227 H 0.6351 0.67716 0.18568 0.0
C228 C 0.60595 0.72036 0.27388 0.0
N229 N 0.59258 0.70737 0.25401 0.0
C230 C 0.60672 0.73678 0.27926 0.0
C231 C 0.5804 0.7265 0.24232 0.0
C232 C 0.57998 0.71014 0.23807 0.0
C233 C 0.59373 0.73993 0.26367 0.0
H234 H 0.6157 0.71773 0.28649 0.0
H235 H 0.56926 0.69948 0.22302 0.0
O236 O 0.58989 0.64494 0.25812 0.0
O237 O 0.58087 0.66961 0.29747 0.0
O238 O 0.61504 0.68631 0.25192 0.0
O239 O 0.57695 0.66729 0.21499 0.0
H240 H 0.56821 0.61465 0.22435 0.0
H241 H 0.62277 0.64978 0.25685 0.0
H242 H 0.57793 0.59529 0.19435 0.0
H243 H 0.63159 0.62984 0.22627 0.0
H244 H 0.54201 0.69035 0.31209 0.0
H245 H 0.59777 0.69216 0.3503 0.0
H246 H 0.55139 0.67061 0.28224 0.0
H247 H 0.58764 0.71158 0.37884 0.0
H248 H 0.61836 0.6351 0.37576 0.0
H249 H 0.64239 0.69227 0.3928 0.0
H250 H 0.51662 0.59628 0.21899 0.0
H251 H 0.51573 0.61422 0.32622 0.0
H252 H 0.62942 0.71579 0.21258 0.0
H253 H 0.64081 0.67984 0.2718 0.0
H254 H 0.66156 0.7334 0.19606 0.0
H255 H 0.67276 0.69813 0.25436 0.0
H256 H 0.60577 0.69216 0.18152 0.0
H257 H 0.54817 0.66125 0.1789 0.0
H258 H 0.60524 0.7074 0.12594 0.0
H259 H 0.54856 0.67692 0.12314 0.0
H260 H 0.58686 0.62958 0.11389 0.0
H261 H 0.64321 0.66615 0.13227 0.0
H262 H 0.61728 0.74685 0.29571 0.0
H263 H 0.57004 0.72836 0.23019 0.0
Li264 Li 0.92111 0.57033 0.74954 0.0
Li265 Li 0.93727 0.59986 0.78145 0.0
Li266 Li 0.9087 0.5914 0.75116 0.0
Li267 Li 0.93521 0.59935 0.71817 0.0
C268 C 0.89829 0.57324 0.81111 0.0
N269 N 0.86706 0.56273 0.8488 0.0
C270 C 0.89849 0.58276 0.84135 0.0
C271 C 0.88224 0.55837 0.80004 0.0
C272 C 0.88254 0.57722 0.86006 0.0
C273 C 0.86658 0.55327 0.81944 0.0
C274 C 0.96205 0.59188 0.76358 0.0
C275 C 0.99284 0.61173 0.78033 0.0
N276 N 0.99264 0.59829 0.79968 0.0
C277 C 0.96217 0.57823 0.78344 0.0
C278 C 0.97753 0.60874 0.76179 0.0
C279 C 0.97777 0.58174 0.80154 0.0
C280 C 0.92298 0.53982 0.72622 0.0
N281 N 0.91682 0.54638 0.75214 0.0
C282 C 0.90837 0.52047 0.78805 0.0
C283 C 0.90949 0.53702 0.78254 0.0
C284 C 0.915 0.51351 0.76216 0.0
C285 C 0.92207 0.52325 0.73057 0.0
H286 H 0.92933 0.54779 0.70287 0.0
H287 H 0.90515 0.54272 0.80319 0.0
C288 C 0.9609 0.62873 0.82664 0.0
N289 N 0.95151 0.61061 0.8229 0.0
C290 C 0.97204 0.63651 0.8561 0.0
C291 C 0.96335 0.60684 0.87771 0.0
C292 C 0.9523 0.59964 0.84794 0.0
C293 C 0.97356 0.62555 0.88198 0.0
H294 H 0.95984 0.63716 0.80667 0.0
H295 H 0.94458 0.58526 0.84439 0.0
C296 C 0.90879 0.57865 0.67454 0.0
N297 N 0.90624 0.58108 0.60172 0.0
C298 C 0.90045 0.58764 0.66032 0.0
C299 C 0.9158 0.57088 0.65171 0.0
C300 C 0.89927 0.5887 0.62344 0.0
C301 C 0.91442 0.57229 0.61498 0.0
C302 C 0.93723 0.63064 0.73436 0.0
C303 C 0.92519 0.63527 0.71959 0.0
C304 C 0.95568 0.64239 0.7311 0.0
C305 C 0.93184 0.65155 0.70152 0.0
C306 C 0.96179 0.65851 0.71275 0.0
N307 N 0.94984 0.66272 0.69847 0.0
C308 C 0.88797 0.60543 0.77845 0.0
C309 C 0.8722 0.58209 0.73679 0.0
C310 C 0.87331 0.60807 0.78187 0.0
N311 N 0.88729 0.59283 0.75575 0.0
C312 C 0.85725 0.5844 0.73909 0.0
C313 C 0.85777 0.59777 0.76145 0.0
H314 H 0.90007 0.61363 0.79354 0.0
H315 H 0.87192 0.57197 0.71931 0.0
C316 C 0.96239 0.60827 0.6664 0.0
N317 N 0.94826 0.61049 0.67497 0.0
C318 C 0.97209 0.61568 0.63511 0.0
C319 C 0.95249 0.62744 0.62181 0.0
C320 C 0.94316 0.61977 0.65322 0.0
C321 C 0.96721 0.62548 0.61237 0.0
H322 H 0.96609 0.60065 0.68377 0.0
H323 H 0.9317 0.62109 0.65995 0.0
O324 O 0.91363 0.57875 0.79183 0.0
O325 O 0.94678 0.58887 0.74643 0.0
O326 O 0.91025 0.57765 0.71059 0.0
O327 O 0.93098 0.6148 0.75229 0.0
H328 H 0.91081 0.59437 0.85008 0.0
H329 H 0.88186 0.55099 0.77641 0.0
H330 H 0.88246 0.58448 0.88347 0.0
H331 H 0.85404 0.54184 0.81109 0.0
H332 H 0.00488 0.62475 0.77937 0.0
H333 H 0.9503 0.56512 0.78521 0.0
H334 H 0.97766 0.61942 0.74644 0.0
H335 H 0.97803 0.57134 0.8172 0.0
H336 H 0.90272 0.51336 0.8127 0.0
H337 H 0.92761 0.51853 0.7102 0.0
H338 H 0.97935 0.65098 0.85856 0.0
H339 H 0.96419 0.59783 0.89667 0.0
H340 H 0.89528 0.59408 0.6775 0.0
H341 H 0.92243 0.56403 0.6622 0.0
H342 H 0.89295 0.5957 0.61209 0.0
H343 H 0.91988 0.56642 0.59701 0.0
H344 H 0.91088 0.62633 0.72165 0.0
H345 H 0.96518 0.63901 0.7423 0.0
H346 H 0.92268 0.65526 0.68979 0.0
H347 H 0.97603 0.66767 0.70983 0.0
H348 H 0.87423 0.61821 0.80017 0.0
H349 H 0.84566 0.57617 0.72269 0.0
H350 H 0.98341 0.61391 0.62902 0.0
H351 H 0.94803 0.63459 0.60479 0.0
Li352 Li 0.3393 0.93438 0.2865 0.0
Li353 Li 0.35145 0.92025 0.24687 0.0
Li354 Li 0.3372 0.93722 0.2226 0.0
Li355 Li 0.31843 0.90755 0.24844 0.0
C356 C 0.37272 0.9609 0.26731 0.0
N357 N 0.39982 0.99055 0.30136 0.0
C358 C 0.38907 0.96178 0.27466 0.0
C359 C 0.37024 0.97519 0.277 0.0
C360 C 0.40258 0.97687 0.29193 0.0
C361 C 0.38407 0.99003 0.2943 0.0
C362 C 0.33587 0.89635 0.30723 0.0
C363 C 0.3277 0.86543 0.31652 0.0
N364 N 0.33759 0.87019 0.34689 0.0
C365 C 0.34569 0.90084 0.33887 0.0
C366 C 0.32658 0.87843 0.29625 0.0
C367 C 0.34651 0.88747 0.3584 0.0
C368 C 0.33244 0.95179 0.34494 0.0
N369 N 0.34358 0.94626 0.33162 0.0
C370 C 0.36454 0.96103 0.37868 0.0
C371 C 0.35912 0.95023 0.34845 0.0
C372 C 0.35372 0.96755 0.39221 0.0
C373 C 0.33723 0.96244 0.37563 0.0
H374 H 0.32013 0.94842 0.33113 0.0
H375 H 0.36774 0.94568 0.33742 0.0
C376 C 0.37796 0.91926 0.20628 0.0
N377 N 0.37126 0.9164 0.23986 0.0
C378 C 0.39387 0.91927 0.19917 0.0
C379 C 0.3956 0.91302 0.26121 0.0
C380 C 0.37958 0.9131 0.26713 0.0
C381 C 0.40315 0.91655 0.22698 0.0
H382 H 0.37124 0.92215 0.1852 0.0
H383 H 0.37433 0.91139 0.29376 0.0
C384 C 0.30938 0.93851 0.24413 0.0
N385 N 0.29344 0.95598 0.21236 0.0
C386 C 0.29513 0.92934 0.22045 0.0
C387 C 0.31542 0.95652 0.25189 0.0
C388 C 0.28727 0.93842 0.20462 0.0
C389 C 0.30722 0.96513 0.23548 0.0
C390 C 0.33147 0.89953 0.18573 0.0
C391 C 0.32615 0.8983 0.15022 0.0
C392 C 0.33418 0.88611 0.20012 0.0
C393 C 0.32321 0.88344 0.13003 0.0
C394 C 0.33114 0.87149 0.17908 0.0
N395 N 0.32573 0.87044 0.14477 0.0
C396 C 0.35068 0.97035 0.18516 0.0
C397 C 0.32738 0.94506 0.15592 0.0
C398 C 0.35231 0.98136 0.15645 0.0
N399 N 0.33842 0.95255 0.18435 0.0
C400 C 0.32875 0.95551 0.12635 0.0
C401 C 0.34142 0.9739 0.12636 0.0
H402 H 0.35945 0.976 0.20776 0.0
H403 H 0.31759 0.93091 0.15611 0.0
C404 C 0.28659 0.87732 0.27532 0.0
N405 N 0.29535 0.88631 0.2454 0.0
C406 C 0.26943 0.8622 0.27302 0.0
C407 C 0.27062 0.86599 0.20927 0.0
C408 C 0.28769 0.88098 0.2128 0.0
C409 C 0.26116 0.85642 0.23963 0.0
H410 H 0.29286 0.88201 0.30101 0.0
H411 H 0.29467 0.88858 0.1895 0.0
O412 O 0.3592 0.94605 0.25104 0.0
O413 O 0.33473 0.90928 0.28804 0.0
O414 O 0.3176 0.93 0.25905 0.0
O415 O 0.3344 0.91401 0.20588 0.0
H416 H 0.39131 0.95093 0.26722 0.0
H417 H 0.35766 0.97471 0.27182 0.0
H418 H 0.41527 0.97769 0.29788 0.0
H419 H 0.38224 1.00109 0.30226 0.0
H420 H 0.32064 0.85155 0.30818 0.0
H421 H 0.35272 0.91452 0.34822 0.0
H422 H 0.31843 0.8745 0.2725 0.0
H423 H 0.3542 0.89082 0.38276 0.0
H424 H 0.3773 0.9646 0.3909 0.0
H425 H 0.32858 0.9673 0.38532 0.0
H426 H 0.39907 0.92182 0.17229 0.0
H427 H 0.40243 0.91113 0.28352 0.0
H428 H 0.29031 0.91543 0.21408 0.0
H429 H 0.32639 0.9638 0.27022 0.0
H430 H 0.2763 0.93152 0.18607 0.0
H431 H 0.31183 0.97909 0.2411 0.0
H432 H 0.32424 0.90865 0.13835 0.0
H433 H 0.3389 0.88713 0.22702 0.0
H434 H 0.31897 0.88228 0.10261 0.0
H435 H 0.33318 0.86102 0.18998 0.0
H436 H 0.36237 0.99546 0.15732 0.0
H437 H 0.32 0.94931 0.10375 0.0
H438 H 0.26256 0.8554 0.29718 0.0
H439 H 0.2649 0.86196 0.18294 0.0
Li440 Li 0.43468 0.35032 0.74481 0.0
Li441 Li 0.4064 0.33667 0.78555 0.0
Li442 Li 0.4143 0.31814 0.74714 0.0
Li443 Li 0.40359 0.33546 0.72096 0.0
C444 C 0.43215 0.32384 0.8084 0.0
N445 N 0.439 0.30158 0.85025 0.0
C446 C 0.41834 0.31011 0.82805 0.0
C447 C 0.44946 0.32629 0.81009 0.0
C448 C 0.42207 0.29898 0.84902 0.0
C449 C 0.45265 0.31489 0.8314 0.0
C450 C 0.41011 0.36799 0.7377 0.0
C451 C 0.38874 0.3783 0.7352 0.0
N452 N 0.39757 0.38869 0.70666 0.0
C453 C 0.41906 0.37885 0.70853 0.0
C454 C 0.39487 0.36774 0.75129 0.0
C455 C 0.41247 0.38918 0.69313 0.0
C456 C 0.46597 0.37819 0.71124 0.0
N457 N 0.45877 0.36935 0.7422 0.0
C458 C 0.48642 0.3874 0.77277 0.0
C459 C 0.46851 0.37377 0.77271 0.0
C460 C 0.49428 0.39677 0.74124 0.0
C461 C 0.48381 0.39215 0.7102 0.0
H462 H 0.45788 0.37437 0.68737 0.0
H463 H 0.46234 0.36668 0.79705 0.0
C464 C 0.3874 0.32852 0.8532 0.0
N465 N 0.39926 0.34129 0.83057 0.0
C466 C 0.38419 0.33341 0.88682 0.0
C467 C 0.40516 0.36437 0.87265 0.0
C468 C 0.40797 0.35892 0.83957 0.0
C469 C 0.3934 0.35155 0.89712 0.0
H470 H 0.38071 0.31456 0.84547 0.0
H471 H 0.41738 0.36878 0.82116 0.0
C472 C 0.42887 0.32426 0.68218 0.0
N473 N 0.43782 0.3044 0.63773 0.0
C474 C 0.4155 0.30966 0.66351 0.0
C475 C 0.44683 0.32897 0.67781 0.0
C476 C 0.42029 0.29973 0.6413 0.0
C477 C 0.45107 0.31871 0.6553 0.0
C478 C 0.37282 0.30771 0.74687 0.0
C479 C 0.3664 0.29616 0.71765 0.0
C480 C 0.36102 0.31096 0.76678 0.0
C481 C 0.34829 0.28826 0.70846 0.0
C482 C 0.343 0.30277 0.75678 0.0
N483 N 0.33707 0.29171 0.72804 0.0
C484 C 0.39978 0.27993 0.74613 0.0
C485 C 0.43141 0.29751 0.74172 0.0
C486 C 0.40062 0.26414 0.74289 0.0
N487 N 0.41506 0.29619 0.74507 0.0
C488 C 0.43286 0.28217 0.73822 0.0
C489 C 0.41733 0.26518 0.73834 0.0
H490 H 0.38694 0.2792 0.74906 0.0
H491 H 0.44338 0.31056 0.74135 0.0
C492 C 0.39854 0.34225 0.64972 0.0
N493 N 0.39039 0.33807 0.68208 0.0
C494 C 0.39082 0.3463 0.6211 0.0
C495 C 0.36612 0.34115 0.6592 0.0
C496 C 0.37446 0.33747 0.68717 0.0
C497 C 0.37443 0.34597 0.62565 0.0
H498 H 0.41142 0.3431 0.64642 0.0
H499 H 0.36846 0.33477 0.71323 0.0
O500 O 0.42863 0.33459 0.78713 0.0
O501 O 0.416 0.35734 0.75239 0.0
O502 O 0.42444 0.33401 0.70441 0.0
O503 O 0.39045 0.31543 0.75652 0.0
H504 H 0.40484 0.30791 0.82666 0.0
H505 H 0.46027 0.33672 0.79472 0.0
H506 H 0.41149 0.28824 0.86422 0.0
H507 H 0.46596 0.31657 0.83283 0.0
H508 H 0.37689 0.37816 0.74526 0.0
H509 H 0.43081 0.37909 0.6976 0.0
H510 H 0.38772 0.35928 0.77369 0.0
H511 H 0.41917 0.39754 0.67034 0.0
H512 H 0.49397 0.39075 0.79735 0.0
H513 H 0.48945 0.39904 0.68537 0.0
H514 H 0.37509 0.32308 0.90494 0.0
H515 H 0.4123 0.37852 0.87912 0.0
H516 H 0.40158 0.30602 0.66627 0.0
H517 H 0.45734 0.34028 0.692 0.0
H518 H 0.41007 0.2883 0.6269 0.0
H519 H 0.46489 0.32209 0.65189 0.0
H520 H 0.3753 0.29333 0.70223 0.0
H521 H 0.36577 0.31988 0.78943 0.0
H522 H 0.34315 0.27936 0.6858 0.0
H523 H 0.33374 0.30526 0.7718 0.0
H524 H 0.38831 0.25132 0.74301 0.0
H525 H 0.44604 0.28361 0.73543 0.0
H526 H 0.39798 0.35028 0.59609 0.0
H527 H 0.35341 0.34047 0.6641 0.0
Li528 Li 0.60026 0.9359 0.28039 0.0
Li529 Li 0.59279 0.90817 0.24957 0.0
Li530 Li 0.60449 0.93664 0.21462 0.0
Li531 Li 0.57361 0.92085 0.23878 0.0
C532 C 0.63451 0.94253 0.26113 0.0
N533 N 0.66984 0.96679 0.27766 0.0
C534 C 0.64485 0.93697 0.28012 0.0
C535 C 0.64225 0.96037 0.25017 0.0
C536 C 0.66265 0.94945 0.28834 0.0
C537 C 0.6601 0.97244 0.25887 0.0
C538 C 0.5722 0.89779 0.30635 0.0
C539 C 0.5514 0.86683 0.32022 0.0
N540 N 0.56147 0.86805 0.34909 0.0
C541 C 0.58227 0.89879 0.3363 0.0
C542 C 0.55657 0.88174 0.29835 0.0
C543 C 0.57664 0.88359 0.35753 0.0
C544 C 0.59671 0.95579 0.33404 0.0
N545 N 0.60719 0.94884 0.32424 0.0
C546 C 0.6233 0.95833 0.37923 0.0
C547 C 0.62041 0.95004 0.34591 0.0
C548 C 0.61239 0.9653 0.39032 0.0
C549 C 0.59919 0.96424 0.36684 0.0
H550 H 0.58614 0.95443 0.31652 0.0
H551 H 0.62828 0.94403 0.33798 0.0
C552 C 0.58287 0.87173 0.234 0.0
N553 N 0.59314 0.88618 0.25493 0.0
C554 C 0.58272 0.85557 0.23929 0.0
C555 C 0.60401 0.86956 0.28707 0.0
C556 C 0.60364 0.88538 0.28101 0.0
C557 C 0.59334 0.85428 0.26627 0.0
H558 H 0.57465 0.87266 0.2134 0.0
H559 H 0.61155 0.89698 0.2975 0.0
C560 C 0.59582 0.96381 0.23956 0.0
N561 N 0.60311 0.99883 0.23314 0.0
C562 C 0.58411 0.96766 0.22084 0.0
C563 C 0.61107 0.97779 0.25559 0.0
C564 C 0.58808 0.98544 0.2177 0.0
C565 C 0.61456 0.99539 0.25191 0.0
C566 C 0.57186 0.90375 0.17721 0.0
C567 C 0.57506 0.91043 0.14249 0.0
C568 C 0.5555 0.88855 0.18557 0.0
C569 C 0.56172 0.90187 0.11676 0.0
C570 C 0.5425 0.88038 0.1591 0.0
N571 N 0.54585 0.88716 0.12554 0.0
C572 C 0.63261 0.95042 0.16218 0.0
C573 C 0.61063 0.95911 0.15605 0.0
C574 C 0.64141 0.96004 0.13151 0.0
N575 N 0.61756 0.95024 0.17387 0.0
C576 C 0.61902 0.96896 0.12558 0.0
C577 C 0.6346 0.96947 0.11267 0.0
H578 H 0.63768 0.94297 0.17646 0.0
H579 H 0.59835 0.95828 0.16514 0.0
C580 C 0.53852 0.91286 0.25833 0.0
N581 N 0.55021 0.91747 0.23073 0.0
C582 C 0.52232 0.91277 0.25406 0.0
C583 C 0.53023 0.92145 0.19272 0.0
C584 C 0.5463 0.92157 0.19828 0.0
C585 C 0.51817 0.91749 0.22106 0.0
H586 H 0.5421 0.90996 0.28405 0.0
H587 H 0.556 0.92565 0.177 0.0
O588 O 0.61702 0.93046 0.25299 0.0
O589 O 0.57776 0.91238 0.28475 0.0
O590 O 0.592 0.9464 0.24317 0.0
O591 O 0.58471 0.91207 0.20281 0.0
H592 H 0.63919 0.9232 0.28858 0.0
H593 H 0.63464 0.96486 0.23485 0.0
H594 H 0.67075 0.94534 0.30319 0.0
H595 H 0.66621 0.9863 0.25058 0.0
H596 H 0.53938 0.85429 0.31424 0.0
H597 H 0.59443 0.9111 0.34281 0.0
H598 H 0.54855 0.88079 0.27543 0.0
H599 H 0.58438 0.88413 0.38064 0.0
H600 H 0.63348 0.95865 0.39662 0.0
H601 H 0.59065 0.96966 0.37391 0.0
H602 H 0.5741 0.84414 0.22284 0.0
H603 H 0.61265 0.86939 0.3078 0.0
H604 H 0.57215 0.95706 0.20857 0.0
H605 H 0.62001 0.97512 0.27119 0.0
H606 H 0.57919 0.98858 0.20303 0.0
H607 H 0.62633 0.00631 0.26414 0.0
H608 H 0.5877 0.92208 0.13546 0.0
H609 H 0.55278 0.88325 0.21231 0.0
H610 H 0.56399 0.90692 0.08981 0.0
H611 H 0.52973 0.86868 0.16527 0.0
H612 H 0.6532 0.95978 0.12235 0.0
H613 H 0.61333 0.97615 0.11238 0.0
H614 H 0.51357 0.90984 0.2768 0.0
H615 H 0.52753 0.92489 0.16666 0.0
Li616 Li 0.66493 0.59736 0.78624 0.0
Li617 Li 0.68607 0.59186 0.75294 0.0
Li618 Li 0.66606 0.60033 0.72019 0.0
Li619 Li 0.65458 0.57021 0.74675 0.0
C620 C 0.68971 0.63208 0.7626 0.0
N621 N 0.69846 0.6671 0.77592 0.0
C622 C 0.70617 0.64404 0.77822 0.0
C623 C 0.67782 0.638 0.75337 0.0
C624 C 0.71032 0.66167 0.78486 0.0
C625 C 0.68245 0.65573 0.76041 0.0
C626 C 0.68007 0.57318 0.81115 0.0
C627 C 0.69529 0.5565 0.82175 0.0
N628 N 0.70325 0.56676 0.85095 0.0
C629 C 0.68831 0.58349 0.84136 0.0
C630 C 0.68348 0.5595 0.80134 0.0
C631 C 0.70001 0.58005 0.86111 0.0
C632 C 0.64272 0.59273 0.84304 0.0
N633 N 0.65936 0.60437 0.83047 0.0
C634 C 0.66609 0.62231 0.88304 0.0
C635 C 0.67105 0.61902 0.8496 0.0
C636 C 0.64901 0.61035 0.89687 0.0
C637 C 0.63719 0.59555 0.87605 0.0
H638 H 0.63378 0.58108 0.82746 0.0
H639 H 0.68435 0.62787 0.83945 0.0
C640 C 0.71471 0.58602 0.73206 0.0
N641 N 0.7097 0.59495 0.75498 0.0
C642 C 0.73192 0.5882 0.73393 0.0
C643 C 0.73855 0.60882 0.78277 0.0
C644 C 0.72119 0.60615 0.78009 0.0
C645 C 0.74414 0.59983 0.7594 0.0
H646 H 0.70539 0.57728 0.71218 0.0
H647 H 0.71682 0.61293 0.79823 0.0
C648 C 0.62993 0.58834 0.74986 0.0
N649 N 0.59952 0.59152 0.74703 0.0
C650 C 0.61451 0.5753 0.73258 0.0
C651 C 0.62979 0.60291 0.76599 0.0
C652 C 0.5993 0.57717 0.73134 0.0
C653 C 0.61432 0.6043 0.7642 0.0
C654 C 0.66703 0.56862 0.68287 0.0
C655 C 0.65933 0.57008 0.65123 0.0
C656 C 0.66877 0.55353 0.68877 0.0
C657 C 0.65339 0.55633 0.62608 0.0
C658 C 0.66264 0.54006 0.663 0.0
N659 N 0.65514 0.54173 0.63245 0.0
C660 C 0.67937 0.62242 0.65983 0.0
C661 C 0.64848 0.61162 0.66991 0.0
C662 C 0.67886 0.63098 0.62861 0.0
N663 N 0.66429 0.61288 0.67963 0.0
C664 C 0.64738 0.62003 0.63907 0.0
C665 C 0.66264 0.62972 0.61765 0.0
H666 H 0.69174 0.62308 0.66798 0.0
H667 H 0.63662 0.60393 0.68573 0.0
C668 C 0.63427 0.53472 0.77125 0.0
N669 N 0.63662 0.54546 0.7429 0.0
C670 C 0.62072 0.51676 0.77096 0.0
C671 C 0.61229 0.52114 0.71216 0.0
C672 C 0.62597 0.53905 0.71365 0.0
C673 C 0.60942 0.50974 0.7412 0.0
H674 H 0.6427 0.54021 0.79445 0.0
H675 H 0.62791 0.54789 0.69163 0.0
O676 O 0.68546 0.61476 0.75603 0.0
O677 O 0.66894 0.57664 0.79097 0.0
O678 O 0.64493 0.58666 0.75137 0.0
O679 O 0.67285 0.58191 0.70787 0.0
H680 H 0.71563 0.63976 0.78528 0.0
H681 H 0.66518 0.62907 0.74075 0.0
H682 H 0.72297 0.67104 0.7971 0.0
H683 H 0.67333 0.66046 0.75347 0.0
H684 H 0.69815 0.54605 0.81435 0.0
H685 H 0.68586 0.59415 0.84924 0.0
H686 H 0.67719 0.5514 0.77804 0.0
H687 H 0.70657 0.58799 0.88444 0.0
H688 H 0.67572 0.63376 0.89831 0.0
H689 H 0.62379 0.58612 0.8852 0.0
H690 H 0.73575 0.58117 0.71514 0.0
H691 H 0.74745 0.61772 0.80311 0.0
H692 H 0.61429 0.56392 0.72002 0.0
H693 H 0.64143 0.613 0.78002 0.0
H694 H 0.58732 0.56722 0.71791 0.0
H695 H 0.61406 0.61551 0.77655 0.0
H696 H 0.65787 0.58165 0.64618 0.0
H697 H 0.67459 0.55213 0.71318 0.0
H698 H 0.64736 0.55726 0.60153 0.0
H699 H 0.66379 0.52826 0.66732 0.0
H700 H 0.69092 0.63808 0.61279 0.0
H701 H 0.63465 0.61891 0.6321 0.0
H702 H 0.61883 0.50861 0.79425 0.0
H703 H 0.60402 0.51631 0.68854 0.0
Li704 Li 0.09589 0.68444 0.25291 0.0
Li705 Li 0.06786 0.6649 0.28358 0.0
Li706 Li 0.08441 0.65213 0.25337 0.0
Li707 Li 0.06848 0.66388 0.21828 0.0
C708 C 0.10696 0.67505 0.31514 0.0
N709 N 0.13748 0.68832 0.35654 0.0
C710 C 0.10711 0.68141 0.34941 0.0
C711 C 0.12225 0.67525 0.3021 0.0
C712 C 0.12269 0.68812 0.36988 0.0
C713 C 0.13757 0.68206 0.32338 0.0
C714 C 0.0742 0.6994 0.26584 0.0
C715 C 0.07005 0.7251 0.26617 0.0
N716 N 0.0775 0.7295 0.29914 0.0
C717 C 0.08179 0.70416 0.29973 0.0
C718 C 0.06826 0.70992 0.24889 0.0
C719 C 0.08335 0.71944 0.31613 0.0
C720 C 0.12253 0.71446 0.21763 0.0
N721 N 0.11697 0.70773 0.25083 0.0
C722 C 0.14074 0.73452 0.27673 0.0
C723 C 0.12569 0.71741 0.2802 0.0
C724 C 0.14671 0.74183 0.24272 0.0
C725 C 0.13742 0.73151 0.21293 0.0
H726 H 0.11527 0.70657 0.19471 0.0
H727 H 0.12085 0.71207 0.30638 0.0
C728 C 0.05579 0.65385 0.35316 0.0
N729 N 0.05359 0.66218 0.32452 0.0
C730 C 0.04612 0.6517 0.38437 0.0
C731 C 0.03187 0.66649 0.35586 0.0
C732 C 0.04183 0.66837 0.32518 0.0
C733 C 0.03401 0.65814 0.38612 0.0
H734 H 0.06521 0.64902 0.35181 0.0
H735 H 0.04022 0.67482 0.30194 0.0
C736 C 0.10385 0.66577 0.18982 0.0
N737 N 0.12524 0.65963 0.14382 0.0
C738 C 0.09642 0.65522 0.15951 0.0
C739 C 0.12223 0.6735 0.19635 0.0
C740 C 0.10744 0.65218 0.13669 0.0
C741 C 0.1328 0.67016 0.17288 0.0
C742 C 0.03978 0.63486 0.25204 0.0
C743 C 0.02964 0.61642 0.25821 0.0
C744 C 0.0311 0.64469 0.24615 0.0
C745 C 0.01093 0.60809 0.2584 0.0
C746 C 0.01238 0.63587 0.24656 0.0
N747 N 1.00276 0.61791 0.25262 0.0
C748 C 0.0956 0.6299 0.28683 0.0
C749 C 0.08757 0.62301 0.22628 0.0
C750 C 0.09929 0.61589 0.2895 0.0
N751 N 0.09009 0.63335 0.25544 0.0
C752 C 0.09116 0.60889 0.2277 0.0
C753 C 0.09713 0.60516 0.25964 0.0
H754 H 0.09683 0.63782 0.31005 0.0
H755 H 0.08249 0.62553 0.20203 0.0
C756 C 0.05847 0.67612 0.15777 0.0
N757 N 0.05616 0.66115 0.17456 0.0
C758 C 0.05069 0.67483 0.1245 0.0
C759 C 0.03809 0.64269 0.12665 0.0
C760 C 0.04614 0.64461 0.15988 0.0
C761 C 0.04048 0.65796 0.10828 0.0
H762 H 0.06661 0.68911 0.17001 0.0
H763 H 0.04473 0.63294 0.17363 0.0
O764 O 0.09184 0.66855 0.29465 0.0
O765 O 0.07255 0.68452 0.2492 0.0
O766 O 0.09327 0.66897 0.21231 0.0
O767 O 0.0581 0.64316 0.25193 0.0
H768 H 0.09535 0.68127 0.36002 0.0
H769 H 0.12223 0.67004 0.27596 0.0
H770 H 0.12304 0.69318 0.39637 0.0
H771 H 0.14952 0.68232 0.31358 0.0
H772 H 0.06551 0.73337 0.25337 0.0
H773 H 0.08638 0.69614 0.31327 0.0
H774 H 0.06231 0.70638 0.22267 0.0
H775 H 0.08921 0.72328 0.34235 0.0
H776 H 0.14735 0.74212 0.30041 0.0
H777 H 0.14164 0.73655 0.18621 0.0
H778 H 0.04839 0.64537 0.40711 0.0
H779 H 0.0225 0.67142 0.35578 0.0
H780 H 0.08226 0.6493 0.15383 0.0
H781 H 0.12831 0.68215 0.21906 0.0
H782 H 0.10183 0.64391 0.11331 0.0
H783 H 0.14703 0.67601 0.17768 0.0
H784 H 0.03617 0.60863 0.26283 0.0
H785 H 0.03871 0.65897 0.2413 0.0
H786 H 0.00291 0.59382 0.26315 0.0
H787 H 0.00549 0.64331 0.24206 0.0
H788 H 0.10339 0.61324 0.31493 0.0
H789 H 0.0893 0.60101 0.20399 0.0
H790 H 0.05272 0.68694 0.11155 0.0
H791 H 0.03055 0.62945 0.115 0.0
Li792 Li 0.411 0.09334 0.75669 0.0
Li793 Li 0.39906 0.06506 0.79007 0.0
Li794 Li 0.42894 0.07846 0.76101 0.0
Li795 Li 0.40161 0.0649 0.72521 0.0
C796 C 0.42766 0.10098 0.82552 0.0
N797 N 0.44131 0.12679 0.87821 0.0
C798 C 0.4168 0.10016 0.85394 0.0
C799 C 0.44553 0.11477 0.8242 0.0
C800 C 0.42393 0.11338 0.88023 0.0
C801 C 0.45216 0.12774 0.851 0.0
C802 C 0.36878 0.0585 0.75137 0.0
C803 C 0.34617 0.02718 0.75299 0.0
N804 N 0.33338 0.03161 0.74587 0.0
C805 C 0.35542 0.06275 0.74407 0.0
C806 C 0.36414 0.04057 0.75589 0.0
C807 C 0.3376 0.04897 0.74139 0.0
C808 C 0.41303 0.12215 0.71851 0.0
N809 N 0.4119 0.116 0.75225 0.0
C810 C 0.41287 0.14234 0.77568 0.0
C811 C 0.41145 0.12557 0.78063 0.0
C812 C 0.41462 0.14928 0.74115 0.0
C813 C 0.41445 0.1388 0.71233 0.0
H814 H 0.41297 0.11413 0.69632 0.0
H815 H 0.4101 0.12031 0.80715 0.0
C816 C 0.39273 0.04272 0.84869 0.0
N817 N 0.38661 0.0526 0.83193 0.0
C818 C 0.38536 0.03446 0.88116 0.0
C819 C 0.36538 0.04655 0.87842 0.0
C820 C 0.37305 0.05448 0.8458 0.0
C821 C 0.37167 0.03654 0.89673 0.0
H822 H 0.40371 0.04169 0.83725 0.0
H823 H 0.36856 0.06256 0.83203 0.0
C824 C 0.43906 0.10122 0.70264 0.0
N825 N 0.47043 0.12719 0.67148 0.0
C826 C 0.44407 0.09829 0.66906 0.0
C827 C 0.44993 0.11739 0.72025 0.0
C828 C 0.46001 0.11157 0.65379 0.0
C829 C 0.46575 0.13035 0.70408 0.0
C830 C 0.415 0.04229 0.74514 0.0
C831 C 0.42378 0.04716 0.71233 0.0
C832 C 0.41219 0.0266 0.76187 0.0
C833 C 0.42967 0.03627 0.69682 0.0
C834 C 0.41829 0.01607 0.74551 0.0
N835 N 0.42683 0.02108 0.7136 0.0
C836 C 0.45802 0.08228 0.80107 0.0
C837 C 0.46263 0.08197 0.73907 0.0
C838 C 0.47441 0.08325 0.80809 0.0
N839 N 0.45242 0.0816 0.76704 0.0
C840 C 0.47903 0.08271 0.74488 0.0
C841 C 0.48507 0.08316 0.77983 0.0
H842 H 0.44958 0.08177 0.82285 0.0
H843 H 0.45786 0.08115 0.71223 0.0
C844 C 0.39492 0.06343 0.65264 0.0
N845 N 0.39171 0.05269 0.68138 0.0
C846 C 0.3908 0.05612 0.61853 0.0
C847 C 0.37915 0.02663 0.64423 0.0
C848 C 0.38357 0.03455 0.67798 0.0
C849 C 0.38326 0.03753 0.6139 0.0
H850 H 0.40136 0.0778 0.65616 0.0
H851 H 0.38125 0.02631 0.70126 0.0
O852 O 0.42095 0.08802 0.79976 0.0
O853 O 0.38627 0.0719 0.75402 0.0
O854 O 0.42355 0.08829 0.71805 0.0
O855 O 0.40908 0.05271 0.76087 0.0
H856 H 0.40298 0.08954 0.85552 0.0
H857 H 0.45426 0.11539 0.8029 0.0
H858 H 0.41565 0.11298 0.90224 0.0
H859 H 0.46595 0.13852 0.85024 0.0
H860 H 0.3424 0.01325 0.75642 0.0
H861 H 0.35881 0.07657 0.74051 0.0
H862 H 0.37425 0.03699 0.76163 0.0
H863 H 0.32712 0.05206 0.73575 0.0
H864 H 0.41298 0.14995 0.79872 0.0
H865 H 0.41536 0.14338 0.6852 0.0
H866 H 0.3908 0.02709 0.89457 0.0
H867 H 0.35477 0.0484 0.88938 0.0
H868 H 0.4358 0.08584 0.65504 0.0
H869 H 0.44612 0.11997 0.74599 0.0
H870 H 0.46409 0.10946 0.62788 0.0
H871 H 0.47429 0.14294 0.71744 0.0
H872 H 0.42599 0.05918 0.6989 0.0
H873 H 0.40535 0.0226 0.78721 0.0
H874 H 0.43649 0.0399 0.67144 0.0
H875 H 0.41622 0.00389 0.75817 0.0
H876 H 0.47857 0.0839 0.83547 0.0
H877 H 0.48658 0.08231 0.7222 0.0
H878 H 0.39395 0.06498 0.59591 0.0
H879 H 0.37345 0.01226 0.64182 0.0
Li880 Li 0.33508 0.4014 0.28938 0.0
Li881 Li 0.3185 0.40984 0.25046 0.0
Li882 Li 0.34047 0.40069 0.22563 0.0
Li883 Li 0.35061 0.42993 0.25811 0.0
C884 C 0.30877 0.36925 0.26585 0.0
N885 N 0.29103 0.33505 0.29393 0.0
C886 C 0.29626 0.36504 0.29312 0.0
C887 C 0.31219 0.35607 0.25266 0.0
C888 C 0.28747 0.34767 0.30705 0.0
C889 C 0.30308 0.33885 0.26724 0.0
C890 C 0.321 0.4279 0.30956 0.0
C891 C 0.30958 0.44839 0.31202 0.0
N892 N 0.29881 0.43892 0.33967 0.0
C893 C 0.30987 0.41841 0.33809 0.0
C894 C 0.32092 0.44306 0.29651 0.0
C895 C 0.29874 0.42419 0.35293 0.0
C896 C 0.34035 0.40327 0.36251 0.0
N897 N 0.33563 0.39142 0.33517 0.0
C898 C 0.33498 0.36921 0.37455 0.0
C899 C 0.33318 0.37469 0.34049 0.0
C900 C 0.33952 0.38112 0.40335 0.0
C901 C 0.34229 0.39839 0.39683 0.0
H902 H 0.34299 0.41674 0.3575 0.0
H903 H 0.33026 0.36571 0.3183 0.0
C904 C 0.29441 0.41636 0.21055 0.0
N905 N 0.29619 0.40923 0.24146 0.0
C906 C 0.27912 0.41769 0.20421 0.0
C907 C 0.26751 0.40397 0.26129 0.0
C908 C 0.28287 0.40256 0.26616 0.0
C909 C 0.26553 0.41187 0.23015 0.0
H910 H 0.30497 0.4212 0.1909 0.0
H911 H 0.28434 0.39657 0.29019 0.0
C912 C 0.36894 0.40986 0.28811 0.0
N913 N 0.3888 0.40491 0.33995 0.0
C914 C 0.37915 0.4236 0.3122 0.0
C915 C 0.36886 0.39361 0.29033 0.0
C916 C 0.3891 0.42083 0.33822 0.0
C917 C 0.37899 0.39137 0.31674 0.0
C918 C 0.34566 0.43584 0.19026 0.0
C919 C 0.35768 0.43624 0.16478 0.0
C920 C 0.34271 0.45035 0.19318 0.0
C921 C 0.36669 0.45125 0.14285 0.0
C922 C 0.352 0.46513 0.17079 0.0
N923 N 0.36371 0.46528 0.14631 0.0
C924 C 0.33686 0.38568 0.15623 0.0
C925 C 0.36224 0.39026 0.18926 0.0
C926 C 0.3431 0.38088 0.1261 0.0
N927 N 0.34664 0.39054 0.18677 0.0
C928 C 0.36885 0.38538 0.16007 0.0
C929 C 0.35956 0.38111 0.12754 0.0
H930 H 0.32463 0.38631 0.1548 0.0
H931 H 0.36996 0.39453 0.2135 0.0
C932 C 0.36997 0.46436 0.28916 0.0
N933 N 0.36986 0.45412 0.26153 0.0
C934 C 0.38476 0.48138 0.29485 0.0
C935 C 0.39895 0.4772 0.24315 0.0
C936 C 0.38397 0.46016 0.23872 0.0
C937 C 0.39958 0.48791 0.27189 0.0
H938 H 0.35887 0.45906 0.30759 0.0
H939 H 0.38387 0.4515 0.21782 0.0
O940 O 0.3174 0.38609 0.25161 0.0
O941 O 0.33187 0.42236 0.29443 0.0
O942 O 0.35869 0.41213 0.26314 0.0
O943 O 0.33682 0.42132 0.21221 0.0
H944 H 0.29355 0.37512 0.30371 0.0
H945 H 0.3218 0.35914 0.23145 0.0
H946 H 0.27784 0.34424 0.32833 0.0
H947 H 0.30561 0.32852 0.25738 0.0
H948 H 0.30933 0.46005 0.30207 0.0
H949 H 0.30956 0.40651 0.34829 0.0
H950 H 0.32949 0.4506 0.27458 0.0
H951 H 0.28998 0.41691 0.37486 0.0
H952 H 0.33281 0.3558 0.37826 0.0
H953 H 0.34633 0.40822 0.41793 0.0
H954 H 0.27807 0.42334 0.17924 0.0
H955 H 0.25761 0.39937 0.2823 0.0
H956 H 0.37925 0.4362 0.31109 0.0
H957 H 0.36075 0.38269 0.27238 0.0
H958 H 0.397 0.43132 0.35713 0.0
H959 H 0.37894 0.37882 0.31895 0.0
H960 H 0.36019 0.42518 0.16219 0.0
H961 H 0.33336 0.45021 0.21253 0.0
H962 H 0.3761 0.45178 0.12315 0.0
H963 H 0.3499 0.47648 0.17286 0.0
H964 H 0.33556 0.37788 0.10157 0.0
H965 H 0.3814 0.38545 0.16276 0.0
H966 H 0.38475 0.48922 0.31737 0.0
H967 H 0.41025 0.48162 0.22527 0.0
Li968 Li 0.9089 0.31612 0.74714 0.0
Li969 Li 0.93468 0.33301 0.78396 0.0
Li970 Li 0.92236 0.34889 0.75274 0.0
Li971 Li 0.93892 0.33567 0.71975 0.0
C972 C 0.89917 0.31885 0.81479 0.0
N973 N 0.87591 0.29512 0.86479 0.0
C974 C 0.90159 0.30495 0.82747 0.0
C975 C 0.8849 0.32067 0.82747 0.0
C976 C 0.8897 0.2931 0.85277 0.0
C977 C 0.87328 0.30853 0.85276 0.0
C978 C 0.94023 0.30563 0.75757 0.0
C979 C 0.96751 0.30423 0.75513 0.0
N980 N 0.95936 0.28863 0.77381 0.0
C981 C 0.93204 0.28945 0.77632 0.0
C982 C 0.95804 0.313 0.74654 0.0
C983 C 0.94198 0.28112 0.78446 0.0
C984 C 0.8886 0.28014 0.72602 0.0
N985 N 0.88712 0.29384 0.74035 0.0
C986 C 0.85521 0.27525 0.74387 0.0
C987 C 0.87086 0.29171 0.74934 0.0
C988 C 0.85629 0.26086 0.72892 0.0
C989 C 0.87332 0.26348 0.72011 0.0
H990 H 0.90169 0.28218 0.71912 0.0
H991 H 0.86998 0.3028 0.76054 0.0
C992 C 0.93959 0.34061 0.85639 0.0
N993 N 0.94553 0.33416 0.82981 0.0
C994 C 0.9463 0.34246 0.89079 0.0
C995 C 0.96591 0.33187 0.87001 0.0
C996 C 0.95859 0.32995 0.83593 0.0
C997 C 0.95958 0.33801 0.898 0.0
H998 H 0.92972 0.34453 0.85078 0.0
H999 H 0.96359 0.32539 0.81447 0.0
C1000 C 0.89993 0.33157 0.69227 0.0
N1001 N 0.86862 0.32584 0.66021 0.0
C1002 C 0.89693 0.32707 0.65625 0.0
C1003 C 0.88704 0.33316 0.71199 0.0
C1004 C 0.88101 0.32423 0.64052 0.0
C1005 C 0.87129 0.3302 0.6953 0.0
C1006 C 0.96174 0.36561 0.7779 0.0
C1007 C 0.96009 0.37707 0.80198 0.0
C1008 C 0.97718 0.36411 0.7783 0.0
C1009 C 0.97388 0.38674 0.82631 0.0
C1010 C 0.99067 0.37401 0.80305 0.0
N1011 N 0.98875 0.38501 0.82636 0.0
C1012 C 0.91201 0.37132 0.78628 0.0
C1013 C 0.92367 0.38083 0.72826 0.0
C1014 C 0.91072 0.38669 0.79132 0.0
N1015 N 0.91859 0.36881 0.75534 0.0
C1016 C 0.92264 0.39646 0.7322 0.0
C1017 C 0.91642 0.39971 0.76437 0.0
H1018 H 0.90831 0.36164 0.8075 0.0
H1019 H 0.92902 0.37854 0.70407 0.0
C1020 C 0.94384 0.3264 0.65146 0.0
N1021 N 0.95274 0.33802 0.67834 0.0
C1022 C 0.95258 0.32741 0.61954 0.0
C1023 C 0.97969 0.35208 0.64381 0.0
C1024 C 0.97031 0.35078 0.67512 0.0
C1025 C 0.97082 0.34034 0.61527 0.0
H1026 H 0.92984 0.31645 0.65474 0.0
H1027 H 0.97705 0.35996 0.6968 0.0
O1028 O 0.91048 0.33043 0.78955 0.0
O1029 O 0.93063 0.31384 0.74892 0.0
O1030 O 0.91535 0.33418 0.70819 0.0
O1031 O 0.94812 0.3556 0.75466 0.0
H1032 H 0.91254 0.30337 0.81793 0.0
H1033 H 0.88271 0.33123 0.81763 0.0
H1034 H 0.89144 0.2823 0.86284 0.0
H1035 H 0.86215 0.30975 0.86275 0.0
H1036 H 0.98135 0.30986 0.74698 0.0
H1037 H 0.91813 0.28331 0.78432 0.0
H1038 H 0.96456 0.32541 0.73179 0.0
H1039 H 0.93584 0.26864 0.7991 0.0
H1040 H 0.84238 0.27394 0.75068 0.0
H1041 H 0.87487 0.25273 0.70901 0.0
H1042 H 0.94133 0.3476 0.91149 0.0
H1043 H 0.97624 0.32841 0.87452 0.0
H1044 H 0.90677 0.32578 0.64062 0.0
H1045 H 0.88903 0.33642 0.74 0.0
H1046 H 0.87849 0.32073 0.61267 0.0
H1047 H 0.86116 0.33132 0.71028 0.0
H1048 H 0.9482 0.37832 0.80218 0.0
H1049 H 0.97861 0.35517 0.76014 0.0
H1050 H 0.97273 0.39557 0.84525 0.0
H1051 H 1.00262 0.37287 0.80385 0.0
H1052 H 0.90559 0.38848 0.81635 0.0
H1053 H 0.92735 0.4062 0.71086 0.0
H1054 H 0.94495 0.31831 0.59827 0.0
H1055 H 0.99376 0.36212 0.64218 0.0
H1056 H 0.03396 0.37636 0.05115 0.0
H1057 H 0.99021 0.35218 0.12716 0.0
H1058 H 0.96858 0.33914 0.07785 0.0
H1059 H 0.01165 0.38808 0.98709 0.0
H1060 H 0.02102 0.38293 0.94907 0.0
H1061 H 0.03326 0.38958 0.9903 0.0
H1062 H 0.03511 0.36046 0.99048 0.0
H1063 H 0.02289 0.35372 0.94915 0.0
H1064 H 0.01479 0.33905 0.98719 0.0
H1065 H 0.95155 0.33032 0.02074 0.0
H1066 H 0.9402 0.32575 0.95909 0.0
H1067 H 0.99483 0.35474 0.91962 0.0
C1068 C 0.01986 0.36805 0.05746 0.0
C1069 C 0.0138 0.36538 0.09312 0.0
C1070 C 0.99518 0.35466 0.10012 0.0
C1071 C 0.98279 0.34708 0.07228 0.0
C1072 C 0.98919 0.35019 0.03751 0.0
C1073 C 0.00728 0.36032 0.02994 0.0
C1074 C 0.01051 0.36208 0.99011 0.0
C1075 C 0.01965 0.38184 0.97847 0.0
C1076 C 0.02148 0.3533 0.97856 0.0
C1077 C 0.99139 0.3516 0.97652 0.0
C1078 C 0.97932 0.34483 0.00437 0.0
C1079 C 0.96086 0.3354 0.9987 0.0
C1080 C 0.95454 0.33294 0.96365 0.0
C1081 C 0.96663 0.33981 0.93467 0.0
C1082 C 0.9853 0.34909 0.94126 0.0
H1083 H 0.6432 0.98704 0.42885 0.0
H1084 H 0.58506 0.9603 0.43449 0.0
H1085 H 0.58713 0.97322 0.49381 0.0
H1086 H 0.65006 0.98074 0.52222 0.0
H1087 H 0.67014 0.0023 0.52624 0.0
H1088 H 0.66424 0.99088 0.48403 0.0
H1089 H 0.66547 0.01869 0.45472 0.0
H1090 H 0.6713 0.03017 0.49686 0.0
H1091 H 0.65203 0.02751 0.47273 0.0
H1092 H 0.59517 0.9895 0.55128 0.0
H1093 H 0.60873 0.00776 0.60469 0.0
H1094 H 0.66181 0.02311 0.56431 0.0
C1095 C 0.63091 0.98377 0.44271 0.0
C1096 C 0.61396 0.9728 0.42669 0.0
C1097 C 0.59821 0.96897 0.44572 0.0
C1098 C 0.59923 0.97614 0.47961 0.0
C1099 C 0.61609 0.98704 0.49439 0.0
C1100 C 0.63167 0.9908 0.47676 0.0
C1101 C 0.64806 0.00303 0.49887 0.0
C1102 C 0.65875 0.99367 0.50841 0.0
C1103 C 0.65991 0.02091 0.47964 0.0
C1104 C 0.63921 0.00561 0.53149 0.0
C1105 C 0.62076 0.99623 0.52823 0.0
C1106 C 0.6096 0.99674 0.55439 0.0
C1107 C 0.61747 0.00707 0.58483 0.0
C1108 C 0.63637 0.01673 0.58918 0.0
C1109 C 0.64734 0.01596 0.56192 0.0
H1110 H 0.63707 0.66333 0.06079 0.0
H1111 H 0.60386 0.61143 0.11006 0.0
H1112 H 0.61005 0.59675 0.05997 0.0
H1113 H 0.62275 0.64868 0.97184 0.0
H1114 H 0.64439 0.66295 0.95197 0.0
H1115 H 0.6384 0.66959 0.99277 0.0
H1116 H 0.66684 0.67268 0.0231 0.0
H1117 H 0.67291 0.66603 0.98236 0.0
H1118 H 0.67064 0.6539 0.02288 0.0
H1119 H 0.61923 0.58763 0.00474 0.0
H1120 H 0.62979 0.58425 0.94603 0.0
H1121 H 0.65604 0.64188 0.93024 0.0
C1122 C 0.63131 0.6489 0.06109 0.0
C1123 C 0.62001 0.63846 0.0892 0.0
C1124 C 0.61246 0.61961 0.0886 0.0
C1125 C 0.61597 0.61118 0.06041 0.0
C1126 C 0.62699 0.62179 0.03289 0.0
C1127 C 0.6345 0.64022 0.03283 0.0
C1128 C 0.64512 0.64831 0.99899 0.0
C1129 C 0.63719 0.65795 0.97763 0.0
C1130 C 0.66506 0.66098 0.00735 0.0
C1131 C 0.64228 0.63153 0.98003 0.0
C1132 C 0.63191 0.61643 1.00029 0.0
C1133 C 0.62729 0.59934 0.98852 0.0
C1134 C 0.63325 0.59756 0.95494 0.0
C1135 C 0.64358 0.61276 0.93316 0.0
C1136 C 0.64829 0.63 0.94623 0.0
H1137 H 0.01857 0.62948 0.43228 0.0
H1138 H 0.02674 0.68296 0.41572 0.0
H1139 H 0.0104 0.68034 0.47136 0.0
H1140 H 0.97419 0.61005 0.46935 0.0
H1141 H 0.97773 0.59645 0.50112 0.0
H1142 H 0.98979 0.60241 0.45963 0.0
H1143 H 0.0199 0.61609 0.49391 0.0
H1144 H 0.00793 0.6102 0.53551 0.0
H1145 H 0.02491 0.63312 0.527 0.0
H1146 H 0.99352 0.67208 0.52929 0.0
H1147 H 0.97716 0.65868 0.5851 0.0
H1148 H 0.98018 0.61068 0.56413 0.0
C1149 C 0.01704 0.6407 0.44042 0.0
C1150 C 0.02393 0.65642 0.41947 0.0
C1151 C 0.02138 0.67068 0.43095 0.0
C1152 C 0.01221 0.66936 0.46266 0.0
C1153 C 0.00567 0.65372 0.48268 0.0
C1154 C 0.00794 0.63963 0.47201 0.0
C1155 C 0.99963 0.6243 0.49843 0.0
C1156 C 0.98443 0.6073 0.48109 0.0
C1157 C 0.01395 0.62073 0.51467 0.0
C1158 C 0.9924 0.63201 0.52573 0.0
C1159 C 0.99599 0.64898 0.5161 0.0
C1160 C 0.99059 0.65878 0.53704 0.0
C1161 C 0.98122 0.65101 0.5686 0.0
C1162 C 0.97734 0.63361 0.57902 0.0
C1163 C 0.9831 0.62407 0.55718 0.0
H1164 H 0.36309 0.00338 0.92305 0.0
H1165 H 0.36513 0.05315 0.95206 0.0
H1166 H 0.35589 0.04186 0.01323 0.0
H1167 H 0.3243 0.97389 0.97829 0.0
H1168 H 0.3332 0.95952 0.98974 0.0
H1169 H 0.33882 0.97107 0.94766 0.0
H1170 H 0.37264 0.98521 0.96231 0.0
H1171 H 0.36713 0.97375 0.0044 0.0
H1172 H 0.38125 0.99778 0.00291 0.0
H1173 H 0.34898 0.02619 0.07252 0.0
H1174 H 0.34343 0.00662 0.12477 0.0
H1175 H 0.34524 0.96683 0.05692 0.0
C1176 C 0.36146 0.01185 0.94221 0.0
C1177 C 0.36478 0.02914 0.93272 0.0
C1178 C 0.36241 0.03977 0.95855 0.0
C1179 C 0.35726 0.0335 0.99342 0.0
C1180 C 0.35434 0.0165 1.002 0.0
C1181 C 0.35619 0.00575 0.97706 0.0
C1182 C 0.35273 0.98821 0.99336 0.0
C1183 C 0.33628 0.97223 0.97624 0.0
C1184 C 0.36943 0.98613 0.99058 0.0
C1185 C 0.34898 0.99091 0.03153 0.0
C1186 C 0.34998 0.00732 0.03598 0.0
C1187 C 0.34795 0.01322 0.06927 0.0
C1188 C 0.34488 0.00207 0.09878 0.0
C1189 C 0.34375 0.98519 0.09477 0.0
C1190 C 0.34569 0.97953 0.06061 0.0
H1191 H 0.35539 0.36148 0.42381 0.0
H1192 H 0.32862 0.38898 0.46584 0.0
H1193 H 0.33391 0.38223 0.52684 0.0
H1194 H 0.33824 0.32573 0.49083 0.0
H1195 H 0.35887 0.32514 0.49259 0.0
H1196 H 0.35239 0.33155 0.45206 0.0
H1197 H 0.38277 0.36134 0.45126 0.0
H1198 H 0.38929 0.35509 0.49188 0.0
H1199 H 0.38929 0.376 0.48933 0.0
H1200 H 0.34366 0.37424 0.5831 0.0
H1201 H 0.35626 0.36456 0.63118 0.0
H1202 H 0.37514 0.3405 0.55319 0.0
C1203 C 0.35035 0.36581 0.4458 0.0
C1204 C 0.34166 0.37586 0.43994 0.0
C1205 C 0.33556 0.38151 0.46958 0.0
C1206 C 0.33839 0.37765 0.50436 0.0
C1207 C 0.34724 0.36798 0.50919 0.0
C1208 C 0.35301 0.362 0.48079 0.0
C1209 C 0.36252 0.3522 0.49348 0.0
C1210 C 0.3524 0.33248 0.48153 0.0
C1211 C 0.38213 0.36173 0.48073 0.0
C1212 C 0.36138 0.35382 0.53342 0.0
C1213 C 0.3525 0.36297 0.54185 0.0
C1214 C 0.35038 0.36678 0.57688 0.0
C1215 C 0.35749 0.36107 0.60409 0.0
C1216 C 0.36653 0.35149 0.59629 0.0
C1217 C 0.3684 0.34782 0.56029 0.0
H1218 H 0.96847 0.61361 0.95147 0.0
H1219 H 0.00704 0.65554 0.88221 0.0
H1220 H 0.02783 0.66877 0.93275 0.0
H1221 H 0.97732 0.64084 0.02988 0.0
H1222 H 0.97496 0.62349 0.05993 0.0
H1223 H 0.96279 0.61759 0.01856 0.0
H1224 H 0.97671 0.59797 1.00166 0.0
H1225 H 0.98891 0.6038 0.04299 0.0
H1226 H 1.00077 0.60781 1.00145 0.0
H1227 H 0.04475 0.67716 0.99045 0.0
H1228 H 0.05674 0.6799 0.05112 0.0
H1229 H 0.00741 0.63231 0.08285 0.0
C1230 C 0.98131 0.62552 0.9468 0.0
C1231 C 0.98601 0.63357 0.91274 0.0
C1232 C 0.00293 0.64928 0.90808 0.0
C1233 C 0.01491 0.65684 0.9366 0.0
C1234 C 0.00985 0.64855 0.9697 0.0
C1235 C 0.99348 0.63322 0.97496 0.0
C1236 C 0.99145 0.62679 0.0131 0.0
C1237 C 0.9757 0.62721 0.03144 0.0
C1238 C 0.98934 0.60798 0.01489 0.0
C1239 C 0.00929 0.64085 0.02841 0.0
C1240 C 0.01966 0.65331 0.00295 0.0
C1241 C 0.03671 0.66753 0.01067 0.0
C1242 C 0.04335 0.66904 0.0453 0.0
C1243 C 0.03301 0.65639 0.0719 0.0
C1244 C 0.01572 0.64213 0.06313 0.0
H1245 H 0.33701 0.9661 0.45569 0.0
H1246 H 0.38564 0.9985 0.39521 0.0
H1247 H 0.39783 0.02032 0.4445 0.0
H1248 H 0.33481 0.00307 0.49849 0.0
H1249 H 0.32713 0.99158 0.54042 0.0
H1250 H 0.32169 0.97893 0.49964 0.0
H1251 H 0.3359 0.96077 0.52432 0.0
H1252 H 0.34141 0.97339 0.56512 0.0
H1253 H 0.35876 0.9725 0.53991 0.0
H1254 H 0.40505 0.03824 0.49998 0.0
H1255 H 0.4075 0.05088 0.55982 0.0
H1256 H 0.35463 0.00674 0.58618 0.0
C1257 C 0.35013 0.97791 0.45284 0.0
C1258 C 0.36042 0.9807 0.42174 0.0
C1259 C 0.37763 0.99612 0.41896 0.0
C1260 C 0.38462 0.0086 0.44671 0.0
C1261 C 0.37427 0.00541 0.4772 0.0
C1262 C 0.35744 0.99043 0.4806 0.0
C1263 C 0.34954 0.98991 0.51698 0.0
C1264 C 0.33227 0.99093 0.51367 0.0
C1265 C 0.34621 0.97315 0.53781 0.0
C1266 C 0.3646 0.00687 0.53343 0.0
C1267 C 0.37864 0.01565 0.5098 0.0
C1268 C 0.39411 0.03155 0.51869 0.0
C1269 C 0.39533 0.03868 0.55269 0.0
C1270 C 0.3812 0.0299 0.57761 0.0
C1271 C 0.36565 0.01374 0.56774 0.0
H1272 H 0.36255 0.33991 0.93733 0.0
H1273 H 0.42018 0.37603 0.93947 0.0
H1274 H 0.41758 0.38697 0.99835 0.0
H1275 H 0.35033 0.36945 0.97932 0.0
H1276 H 0.33223 0.35226 0.00505 0.0
H1277 H 0.33843 0.34668 0.96325 0.0
H1278 H 0.34306 0.32247 0.99444 0.0
H1279 H 0.33677 0.32791 0.03633 0.0
H1280 H 0.35799 0.32864 0.03204 0.0
H1281 H 0.40899 0.39501 0.05527 0.0
H1282 H 0.39495 0.39916 0.10852 0.0
H1283 H 0.34279 0.35714 0.07209 0.0
C1284 C 0.37463 0.34997 0.9504 0.0
C1285 C 0.39156 0.35724 0.93352 0.0
C1286 C 0.40702 0.37049 0.95146 0.0
C1287 C 0.40571 0.37673 0.98505 0.0
C1288 C 0.38885 0.36952 1.00064 0.0
C1289 C 0.37357 0.35637 0.98414 0.0
C1290 C 0.35709 0.35116 0.00688 0.0
C1291 C 0.34374 0.35513 0.98746 0.0
C1292 C 0.34821 0.33137 0.01809 0.0
C1293 C 0.36554 0.36357 0.03848 0.0
C1294 C 0.38388 0.37399 0.03421 0.0
C1295 C 0.39466 0.38676 0.05921 0.0
C1296 C 0.38653 0.38891 0.08958 0.0
C1297 C 0.36775 0.37829 0.09501 0.0
C1298 C 0.35715 0.36548 0.06886 0.0
H1299 H 0.99778 0.37076 0.58273 0.0
H1300 H 0.96557 0.31295 0.56994 0.0
H1301 H 0.97968 0.31532 0.51178 0.0
H1302 H 0.99734 0.38287 0.49355 0.0
H1303 H 0.02034 0.40079 0.493 0.0
H1304 H 0.00791 0.39465 0.53402 0.0
H1305 H 0.03222 0.38961 0.56361 0.0
H1306 H 0.04482 0.39589 0.52274 0.0
H1307 H 0.03846 0.37458 0.54313 0.0
H1308 H 0.99575 0.32422 0.45295 0.0
H1309 H 0.01398 0.33865 0.39991 0.0
H1310 H 0.03838 0.39015 0.45416 0.0
C1311 C 0.99387 0.3585 0.56819 0.0
C1312 C 0.9803 0.34168 0.5811 0.0
C1313 C 0.97553 0.32609 0.56052 0.0
C1314 C 0.9836 0.32726 0.52748 0.0
C1315 C 0.9967 0.34406 0.51546 0.0
C1316 C 1.002 0.35937 0.5354 0.0
C1317 C 0.01644 0.37579 0.5164 0.0
C1318 C 0.01012 0.38932 0.50879 0.0
C1319 C 0.03403 0.38448 0.53774 0.0
C1320 C 0.01819 0.36733 0.4824 0.0
C1321 C 0.00663 0.34904 0.48232 0.0
C1322 C 0.00513 0.3385 0.45301 0.0
C1323 C 0.01573 0.34687 0.42298 0.0
C1324 C 0.02793 0.36563 0.42247 0.0
C1325 C 0.02917 0.37585 0.45302 0.0
H1326 H 0.63827 0.01338 0.92388 0.0
H1327 H 0.69632 0.04026 0.92966 0.0
H1328 H 0.69411 0.02445 0.98607 0.0
H1329 H 0.63042 0.01559 0.01538 0.0
H1330 H 0.61046 0.99382 0.01708 0.0
H1331 H 0.61671 0.0064 0.97625 0.0
H1332 H 0.61639 0.97974 0.94355 0.0
H1333 H 0.61007 0.96704 0.98428 0.0
H1334 H 0.62976 0.97061 0.96045 0.0
H1335 H 0.68531 0.00712 0.04427 0.0
H1336 H 0.67079 0.98925 0.09807 0.0
H1337 H 0.61853 0.97308 0.05242 0.0
C1338 C 0.65053 0.01592 0.93697 0.0
C1339 C 0.66748 0.0281 0.92247 0.0
C1340 C 0.6832 0.03087 0.94016 0.0
C1341 C 0.68207 0.02201 0.97226 0.0
C1342 C 0.66512 0.01028 0.98608 0.0
C1343 C 0.64964 0.00713 0.96879 0.0
C1344 C 0.63306 0.9942 0.98942 0.0
C1345 C 0.62202 0.00304 1.00017 0.0
C1346 C 0.62165 0.97687 0.96816 0.0
C1347 C 0.64161 0.99083 0.02144 0.0
C1348 C 0.66009 1.00015 0.01905 0.0
C1349 C 0.67083 0.99959 0.04619 0.0
C1350 C 0.66244 0.98931 0.07661 0.0
C1351 C 0.64348 0.9797 0.07969 0.0
C1352 C 0.63304 0.9804 0.05134 0.0
H1353 H 0.61662 0.63614 0.43823 0.0
H1354 H 0.66488 0.68691 0.41681 0.0
H1355 H 0.678 0.68412 0.47317 0.0
H1356 H 0.61546 0.64126 0.53206 0.0
H1357 H 0.60785 0.61804 0.54166 0.0
H1358 H 0.60218 0.62419 0.49991 0.0
H1359 H 0.61632 0.60809 0.46592 0.0
H1360 H 0.62194 0.6018 0.50757 0.0
H1361 H 0.6392 0.61406 0.47506 0.0
H1362 H 0.6858 0.67567 0.53242 0.0
H1363 H 0.68772 0.66214 0.58897 0.0
H1364 H 0.63495 0.61623 0.56933 0.0
C1365 C 0.63004 0.64661 0.44503 0.0
C1366 C 0.63968 0.66177 0.4229 0.0
C1367 C 0.65708 0.67528 0.43343 0.0
C1368 C 0.66471 0.67377 0.46533 0.0
C1369 C 0.65482 0.65863 0.48639 0.0
C1370 C 0.63789 0.64526 0.47657 0.0
C1371 C 0.63008 0.63026 0.50367 0.0
C1372 C 0.61288 0.62834 0.52031 0.0
C1373 C 0.62669 0.6125 0.48706 0.0
C1374 C 0.64524 0.63729 0.5304 0.0
C1375 C 0.65939 0.65367 0.52004 0.0
C1376 C 0.67483 0.66279 0.54068 0.0
C1377 C 0.67584 0.65494 0.57268 0.0
C1378 C 0.6615 0.63809 0.58376 0.0
C1379 C 0.64605 0.62923 0.56208 0.0
H1380 H 0.07795 0.5717 0.22919 0.0
H1381 H 0.12425 0.60409 0.29597 0.0
H1382 H 0.12941 0.57848 0.30218 0.0
H1383 H 0.06221 0.53077 0.27573 0.0
H1384 H 0.05533 0.51694 0.23643 0.0
H1385 H 0.05554 0.53795 0.23647 0.0
H1386 H 0.07633 0.5483 0.18125 0.0
H1387 H 0.07616 0.52729 0.18098 0.0
H1388 H 0.09717 0.54811 0.1827 0.0
H1389 H 0.12891 0.54903 0.30282 0.0
H1390 H 0.1231 0.51798 0.29686 0.0
H1391 H 0.07762 0.5051 0.22847 0.0
C1392 C 0.08936 0.57354 0.24466 0.0
C1393 C 0.10067 0.58995 0.26216 0.0
C1394 C 0.11523 0.5916 0.28272 0.0
C1395 C 0.11835 0.57716 0.28621 0.0
C1396 C 0.10686 0.56117 0.26882 0.0
C1397 C 0.09271 0.5593 0.24831 0.0
C1398 C 0.08218 0.54059 0.23287 0.0
C1399 C 0.06266 0.531 0.24618 0.0
C1400 C 0.08302 0.54111 0.19202 0.0
C1401 C 0.09252 0.53217 0.24817 0.0
C1402 C 0.10671 0.54428 0.26882 0.0
C1403 C 0.11789 0.53946 0.28656 0.0
C1404 C 0.11443 0.52179 0.28317 0.0
C1405 C 0.09994 0.50915 0.26214 0.0
C1406 C 0.08895 0.51452 0.24429 0.0
H1407 H 0.51674 0.09937 0.74148 0.0
H1408 H 0.49152 0.06558 0.83364 0.0
H1409 H 0.51904 0.06441 0.84514 0.0
H1410 H 0.53897 0.07594 0.71193 0.0
H1411 H 0.55879 0.09584 0.6968 0.0
H1412 H 0.53748 0.09504 0.69692 0.0
H1413 H 0.55099 0.12374 0.73571 0.0
H1414 H 0.57235 0.12461 0.73575 0.0
H1415 H 0.5617 0.12426 0.77724 0.0
H1416 H 0.54886 0.06609 0.846 0.0
H1417 H 0.57875 0.06976 0.83496 0.0
H1418 H 0.58452 0.10164 0.74124 0.0
C1419 C 0.51694 0.09167 0.76404 0.0
C1420 C 0.50191 0.08275 0.78686 0.0
C1421 C 0.50291 0.07293 0.81621 0.0
C1422 C 0.51847 0.07205 0.82286 0.0
C1423 C 0.53296 0.08097 0.79985 0.0
C1424 C 0.53234 0.09053 0.77094 0.0
C1425 C 0.54959 0.09836 0.74965 0.0
C1426 C 0.54599 0.09084 0.71157 0.0
C1427 C 0.55922 0.11897 0.7496 0.0
C1428 C 0.55993 0.09158 0.771 0.0
C1429 C 0.55012 0.08169 0.79999 0.0
C1430 C 0.55673 0.07389 0.8235 0.0
C1431 C 0.57378 0.07616 0.81713 0.0
C1432 C 0.58406 0.08609 0.78738 0.0
C1433 C 0.57698 0.09392 0.76413 0.0
H1434 H 0.48584 0.58257 0.22665 0.0
H1435 H 0.50235 0.58394 0.33642 0.0
H1436 H 0.47431 0.55591 0.34824 0.0
H1437 H 0.43827 0.56303 0.24239 0.0
H1438 H 0.43192 0.54893 0.20349 0.0
H1439 H 0.45272 0.56997 0.20396 0.0
H1440 H 0.4701 0.55351 0.18828 0.0
H1441 H 0.44936 0.53243 0.1877 0.0
H1442 H 0.46751 0.53527 0.21598 0.0
H1443 H 0.44485 0.52742 0.34836 0.0
H1444 H 0.41661 0.4994 0.33564 0.0
H1445 H 0.41998 0.5152 0.2251 0.0
C1446 C 0.48368 0.57702 0.25319 0.0
C1447 C 0.49638 0.58581 0.28067 0.0
C1448 C 0.49274 0.57794 0.31503 0.0
C1449 C 0.47687 0.56186 0.32203 0.0
C1450 C 0.46475 0.55361 0.29436 0.0
C1451 C 0.468 0.5608 0.26055 0.0
C1452 C 0.45315 0.54871 0.23516 0.0
C1453 C 0.44344 0.55823 0.22039 0.0
C1454 C 0.46047 0.54209 0.20501 0.0
C1455 C 0.44113 0.53354 0.25998 0.0
C1456 C 0.44799 0.53677 0.2941 0.0
C1457 C 0.43931 0.52475 0.32177 0.0
C1458 C 0.42325 0.50893 0.31433 0.0
C1459 C 0.4161 0.50518 0.27945 0.0
C1460 C 0.42519 0.5177 0.25198 0.0
H1461 H 0.90702 0.48545 0.71634 0.0
H1462 H 0.92489 0.50415 0.8239 0.0
H1463 H 0.92667 0.47696 0.83612 0.0
H1464 H 0.87985 0.43833 0.73843 0.0
H1465 H 0.88574 0.43075 0.69868 0.0
H1466 H 0.88553 0.45157 0.69838 0.0
H1467 H 0.91849 0.46826 0.67655 0.0
H1468 H 0.91881 0.4475 0.67683 0.0
H1469 H 0.93536 0.46648 0.70172 0.0
H1470 H 0.9273 0.44835 0.8365 0.0
H1471 H 0.92638 0.41972 0.82531 0.0
H1472 H 0.90772 0.41901 0.71771 0.0
C1473 C 0.91133 0.48381 0.74243 0.0
C1474 C 0.91568 0.49687 0.76926 0.0
C1475 C 0.92117 0.49419 0.80313 0.0
C1476 C 0.92234 0.47884 0.81027 0.0
C1477 C 0.91794 0.46624 0.78331 0.0
C1478 C 0.9125 0.46849 0.75009 0.0
C1479 C 0.90858 0.45285 0.72589 0.0
C1480 C 0.88874 0.44278 0.71469 0.0
C1481 C 0.92106 0.45916 0.69332 0.0
C1482 C 0.91286 0.44159 0.75062 0.0
C1483 C 0.91819 0.44957 0.78361 0.0
C1484 C 0.923 0.44187 0.81087 0.0
C1485 C 0.9223 0.42552 0.8043 0.0
C1486 C 0.9168 0.41696 0.77074 0.0
C1487 C 0.91206 0.42521 0.74358 0.0
H1488 H 0.41725 0.8963 0.25377 0.0
H1489 H 0.43015 0.94224 0.18667 0.0
H1490 H 0.46043 0.94679 0.17688 0.0
H1491 H 0.46031 0.91505 0.29591 0.0
H1492 H 0.4605 0.89421 0.29715 0.0
H1493 H 0.43949 0.89404 0.29812 0.0
H1494 H 0.42864 0.87322 0.24299 0.0
H1495 H 0.44961 0.87331 0.24188 0.0
H1496 H 0.44206 0.87996 0.20312 0.0
H1497 H 0.4895 0.94725 0.17598 0.0
H1498 H 0.51571 0.94331 0.18313 0.0
H1499 H 0.48426 0.89669 0.2499 0.0
C1500 C 0.42645 0.90731 0.23702 0.0
C1501 C 0.42123 0.9188 0.2207 0.0
C1502 C 0.43367 0.93302 0.19887 0.0
C1503 C 0.45096 0.93581 0.19333 0.0
C1504 C 0.45567 0.92427 0.20976 0.0
C1505 C 0.44381 0.91027 0.23109 0.0
C1506 C 0.45244 0.89998 0.24584 0.0
C1507 C 0.45323 0.90088 0.28668 0.0
C1508 C 0.4426 0.88046 0.23266 0.0
C1509 C 0.47103 0.91049 0.22965 0.0
C1510 C 0.47254 0.92443 0.20894 0.0
C1511 C 0.48844 0.93626 0.19178 0.0
C1512 C 0.50324 0.9338 0.1958 0.0
C1513 C 0.50207 0.91952 0.21668 0.0
C1514 C 0.48567 0.90775 0.23383 0.0
H1515 H 0.57524 0.49668 0.7151 0.0
H1516 H 0.60951 0.48002 0.7674 0.0
H1517 H 0.58408 0.44903 0.7707 0.0
H1518 H 0.53617 0.46971 0.76463 0.0
H1519 H 0.52093 0.46438 0.72781 0.0
H1520 H 0.54203 0.48507 0.72786 0.0
H1521 H 0.55013 0.47681 0.66706 0.0
H1522 H 0.529 0.45609 0.66675 0.0
H1523 H 0.54967 0.45576 0.66217 0.0
H1524 H 0.55454 0.42033 0.77173 0.0
H1525 H 0.52305 0.39569 0.76888 0.0
H1526 H 0.50828 0.43071 0.71396 0.0
C1527 C 0.57753 0.48647 0.7266 0.0
C1528 C 0.59442 0.49084 0.74106 0.0
C1529 C 0.59667 0.47709 0.75657 0.0
C1530 C 0.58234 0.45941 0.75834 0.0
C1531 C 0.56585 0.45563 0.74423 0.0
C1532 C 0.5634 0.46874 0.72842 0.0
C1533 C 0.54417 0.46125 0.71627 0.0
C1534 C 0.53531 0.47066 0.73529 0.0
C1535 C 0.54319 0.46255 0.67565 0.0
C1536 C 0.53613 0.44194 0.7282 0.0
C1537 C 0.54887 0.43899 0.74424 0.0
C1538 C 0.54448 0.42243 0.75891 0.0
C1539 C 0.52658 0.40856 0.75732 0.0
C1540 C 0.5133 0.4113 0.74105 0.0
C1541 C 0.51822 0.42817 0.72602 0.0
H1542 H 0.16433 0.39139 0.25578 0.0
H1543 H 0.17885 0.43874 0.19217 0.0
H1544 H 0.20955 0.44369 0.18531 0.0
H1545 H 0.20637 0.4083 0.30173 0.0
H1546 H 0.20619 0.38728 0.30077 0.0
H1547 H 0.18535 0.38746 0.30089 0.0
H1548 H 0.17557 0.36843 0.24325 0.0
H1549 H 0.19637 0.36817 0.243 0.0
H1550 H 0.18993 0.37624 0.20471 0.0
H1551 H 0.2389 0.44424 0.18744 0.0
H1552 H 0.26462 0.4396 0.19561 0.0
H1553 H 0.2306 0.39055 0.25423 0.0
C1554 C 0.17402 0.40282 0.24051 0.0
C1555 C 0.16925 0.4147 0.22448 0.0
C1556 C 0.1822 0.4294 0.20439 0.0
C1557 C 0.19968 0.43236 0.20048 0.0
C1558 C 0.20396 0.4204 0.21655 0.0
C1559 C 0.19149 0.40584 0.23592 0.0
C1560 C 0.19953 0.39486 0.24986 0.0
C1561 C 0.19935 0.39446 0.29074 0.0
C1562 C 0.18977 0.3758 0.23426 0.0
C1563 C 0.21849 0.40563 0.23556 0.0
C1564 C 0.22076 0.42035 0.21662 0.0
C1565 C 0.23722 0.4326 0.20178 0.0
C1566 C 0.25175 0.42972 0.20632 0.0
C1567 C 0.24978 0.41455 0.22519 0.0
C1568 C 0.23279 0.40237 0.23988 0.0
H1569 H 0.82623 0.24295 0.77122 0.0
H1570 H 0.84898 0.239 0.67089 0.0
H1571 H 0.82202 0.2097 0.6596 0.0
H1572 H 0.80532 0.19648 0.79467 0.0
H1573 H 0.78565 0.19558 0.81363 0.0
H1574 H 0.80674 0.21632 0.81397 0.0
H1575 H 0.792 0.23222 0.78147 0.0
H1576 H 0.77085 0.21154 0.78114 0.0
H1577 H 0.78042 0.2232 0.74005 0.0
H1578 H 0.79273 0.18075 0.65923 0.0
H1579 H 0.76306 0.15416 0.6697 0.0
H1580 H 0.75876 0.17721 0.76937 0.0
C1581 C 0.82549 0.23602 0.74671 0.0
C1582 C 0.83982 0.2433 0.72203 0.0
C1583 C 0.83835 0.23362 0.69051 0.0
C1584 C 0.82303 0.21699 0.68373 0.0
C1585 C 0.80922 0.21019 0.70866 0.0
C1586 C 0.81026 0.21939 0.73949 0.0
C1587 C 0.79352 0.20903 0.76194 0.0
C1588 C 0.79808 0.20406 0.79819 0.0
C1589 C 0.78361 0.21963 0.7664 0.0
C1590 C 0.78293 0.19257 0.73892 0.0
C1591 C 0.79223 0.19353 0.70831 0.0
C1592 C 0.78527 0.1799 0.68301 0.0
C1593 C 0.76833 0.16488 0.68911 0.0
C1594 C 0.75845 0.16357 0.72025 0.0
C1595 C 0.76597 0.17767 0.74544 0.0
H1596 H 0.59045 0.76229 0.21582 0.0
H1597 H 0.59688 0.75568 0.3282 0.0
H1598 H 0.59692 0.78384 0.34114 0.0
H1599 H 0.61948 0.81013 0.21414 0.0
H1600 H 0.60604 0.81399 0.18252 0.0
H1601 H 0.60598 0.79304 0.18218 0.0
H1602 H 0.57139 0.77577 0.18885 0.0
H1603 H 0.57134 0.79667 0.18928 0.0
H1604 H 0.56124 0.78102 0.22541 0.0
H1605 H 0.59591 0.81243 0.342 0.0
H1606 H 0.59522 0.84025 0.33067 0.0
H1607 H 0.59092 0.8292 0.21727 0.0
C1608 C 0.59174 0.76675 0.24315 0.0
C1609 C 0.59368 0.75684 0.27104 0.0
C1610 C 0.59556 0.76317 0.30643 0.0
C1611 C 0.5955 0.77908 0.31405 0.0
C1612 C 0.59365 0.78858 0.28596 0.0
C1613 C 0.59191 0.78273 0.25119 0.0
C1614 C 0.59066 0.79577 0.22587 0.0
C1615 C 0.60649 0.8037 0.19963 0.0
C1616 C 0.57258 0.78677 0.2062 0.0
C1617 C 0.59193 0.80982 0.25186 0.0
C1618 C 0.59354 0.80535 0.28638 0.0
C1619 C 0.5948 0.81615 0.31504 0.0
C1620 C 0.59454 0.83204 0.30826 0.0
C1621 C 0.5932 0.83712 0.27302 0.0
C1622 C 0.5918 0.82572 0.24455 0.0
H1623 H 0.82131 0.57358 0.75739 0.0
H1624 H 0.85976 0.63048 0.76718 0.0
H1625 H 0.83497 0.63694 0.76907 0.0
H1626 H 0.79107 0.57886 0.69891 0.0
H1627 H 0.77114 0.56063 0.7183 0.0
H1628 H 0.79188 0.56028 0.71904 0.0
H1629 H 0.78961 0.55663 0.78753 0.0
H1630 H 0.76886 0.55699 0.78701 0.0
H1631 H 0.78726 0.57273 0.81423 0.0
H1632 H 0.80617 0.63744 0.76965 0.0
H1633 H 0.77516 0.63192 0.76724 0.0
H1634 H 0.75524 0.57489 0.75504 0.0
C1635 C 0.82457 0.58742 0.75971 0.0
C1636 C 0.84259 0.60148 0.76254 0.0
C1637 C 0.84613 0.61939 0.76584 0.0
C1638 C 0.83212 0.62323 0.76665 0.0
C1639 C 0.81458 0.60908 0.76389 0.0
C1640 C 0.81073 0.59154 0.76033 0.0
C1641 C 0.79067 0.57887 0.75721 0.0
C1642 C 0.78592 0.56909 0.72122 0.0
C1643 C 0.78369 0.56552 0.78836 0.0
C1644 C 0.78389 0.59206 0.75952 0.0
C1645 C 0.79792 0.6094 0.76355 0.0
C1646 C 0.79506 0.62391 0.76655 0.0
C1647 C 0.77739 0.62063 0.76534 0.0
C1648 C 0.76277 0.60298 0.76103 0.0
C1649 C 0.76614 0.58855 0.75804 0.0
H1650 H 0.24585 0.82428 0.27612 0.0
H1651 H 0.23439 0.85336 0.1957 0.0
H1652 H 0.204 0.82742 0.18834 0.0
H1653 H 0.22204 0.78118 0.23512 0.0
H1654 H 0.21365 0.76907 0.27624 0.0
H1655 H 0.23451 0.79004 0.27576 0.0
H1656 H 0.22231 0.80264 0.32402 0.0
H1657 H 0.20141 0.7817 0.3247 0.0
H1658 H 0.20148 0.80235 0.31645 0.0
H1659 H 0.17513 0.79824 0.18852 0.0
H1660 H 0.14937 0.76777 0.19713 0.0
H1661 H 0.1791 0.75757 0.2781 0.0
C1662 C 0.23689 0.82528 0.25725 0.0
C1663 C 0.24262 0.84087 0.23629 0.0
C1664 C 0.23049 0.84149 0.2116 0.0
C1665 C 0.21313 0.82686 0.20738 0.0
C1666 C 0.20799 0.81168 0.22817 0.0
C1667 C 0.21945 0.81078 0.25272 0.0
C1668 C 0.21058 0.79275 0.27142 0.0
C1669 C 0.2208 0.78267 0.26419 0.0
C1670 C 0.20884 0.795 0.31153 0.0
C1671 C 0.19238 0.78366 0.25339 0.0
C1672 C 0.1912 0.79483 0.22852 0.0
C1673 C 0.17588 0.78936 0.20796 0.0
C1674 C 0.16135 0.772 0.21288 0.0
C1675 C 0.16221 0.76026 0.2382 0.0
C1676 C 0.17796 0.76628 0.2588 0.0
H1677 H 0.39945 0.23288 0.77393 0.0
H1678 H 0.43831 0.26046 0.69005 0.0
H1679 H 0.4416 0.23385 0.68157 0.0
H1680 H 0.42106 0.21034 0.81131 0.0
H1681 H 0.4005 0.18991 0.82105 0.0
H1682 H 0.4008 0.21097 0.82018 0.0
H1683 H 0.37524 0.19822 0.77351 0.0
H1684 H 0.37481 0.17709 0.77436 0.0
H1685 H 0.37797 0.18875 0.73284 0.0
H1686 H 0.44118 0.20464 0.68273 0.0
H1687 H 0.437 0.17454 0.69328 0.0
H1688 H 0.39794 0.16537 0.77562 0.0
C1689 C 0.40851 0.23324 0.75354 0.0
C1690 C 0.4187 0.24881 0.73277 0.0
C1691 C 0.43057 0.2488 0.70664 0.0
C1692 C 0.43246 0.23371 0.70148 0.0
C1693 C 0.42238 0.21868 0.72261 0.0
C1694 C 0.41061 0.21827 0.74809 0.0
C1695 C 0.4016 0.20046 0.76756 0.0
C1696 C 0.40627 0.20308 0.80738 0.0
C1697 C 0.38119 0.19054 0.7617 0.0
C1698 C 0.41019 0.19096 0.74908 0.0
C1699 C 0.4221 0.20173 0.7232 0.0
C1700 C 0.4318 0.19602 0.70275 0.0
C1701 C 0.42923 0.17884 0.70881 0.0
C1702 C 0.41705 0.16747 0.73511 0.0
C1703 C 0.40745 0.17373 0.7555 0.0
loop_
_geom_bond_atom_site_label_1
_geom_bond_atom_site_label_2
_geom_bond_distance
_geom_bond_site_symmetry_2
_ccdc_geom_bond_type
Li0 N17 1.990 . S
Li0 O60 1.956 . S
Li0 O61 1.970 . S
Li0 O62 1.961 . S
Li1 N25 1.990 . S
Li1 O60 1.970 . S
Li1 O61 1.956 . S
Li1 O63 1.961 . S
Li2 N47 1.990 . S
Li2 O60 1.961 . S
Li2 O62 1.956 . S
Li2 O63 1.970 . S
Li3 N53 1.990 . S
Li3 O61 1.961 . S
Li3 O62 1.970 . S
Li3 O63 1.956 . S
C4 C6 1.348 . S
C4 C7 1.356 . S
C4 O60 1.325 . S
N5 C8 1.314 . S
N5 C9 1.279 . S
C6 C4 1.348 . S
C6 C8 1.353 . S
C6 H64 0.929 . S
C7 C4 1.356 . S
C7 C9 1.358 . S
C7 H65 0.930 . S
C8 N5 1.314 . S
C8 C6 1.353 . S
C8 H66 0.930 . S
C9 N5 1.279 . S
C9 C7 1.358 . S
C9 H67 0.930 . S
C10 C13 1.348 . S
C10 C14 1.356 . S
C10 O61 1.325 . S
C11 N12 1.279 . S
C11 C14 1.358 . S
C11 H68 0.930 . S
N12 C11 1.279 . S
N12 C15 1.314 . S
C13 C10 1.348 . S
C13 C15 1.353 . S
C13 H69 0.929 . S
C14 C10 1.356 . S
C14 C11 1.358 . S
C14 H70 0.930 . S
C15 N12 1.314 . S
C15 C13 1.353 . S
C15 H71 0.930 . S
C16 N17 1.314 . S
C16 C21 1.353 . S
C16 H22 0.930 . S
N17 Li0 1.990 . S
N17 C16 1.314 . S
N17 C19 1.279 . S
C18 C19 1.358 . S
C18 C20 1.356 . S
C18 H72 0.930 . S
C19 N17 1.279 . S
C19 C18 1.358 . S
C19 H23 0.930 . S
C20 C18 1.356 . S
C20 C21 1.348 . S
C21 C16 1.353 . S
C21 C20 1.348 . S
C21 H73 0.929 . S
H22 C16 0.930 . S
H23 C19 0.930 . S
C24 N25 1.314 . S
C24 C26 1.353 . S
C24 H30 0.930 . S
N25 Li1 1.990 . S
N25 C24 1.314 . S
N25 C28 1.279 . S
C26 C24 1.353 . S
C26 C29 1.348 . S
C26 H74 0.929 . S
C27 C28 1.358 . S
C27 C29 1.356 . S
C27 H75 0.930 . S
C28 N25 1.279 . S
C28 C27 1.358 . S
C28 H31 0.930 . S
C29 C26 1.348 . S
C29 C27 1.356 . S
H30 C24 0.930 . S
H31 C28 0.930 . S
C32 C34 1.348 . S
C32 C35 1.356 . S
C32 O62 1.325 . S
N33 C36 1.314 . S
N33 C37 1.279 . S
C34 C32 1.348 . S
C34 C36 1.353 . S
C34 H76 0.929 . S
C35 C32 1.356 . S
C35 C37 1.358 . S
C35 H77 0.930 . S
C36 N33 1.314 . S
C36 C34 1.353 . S
C36 H78 0.930 . S
C37 N33 1.279 . S
C37 C35 1.358 . S
C37 H79 0.930 . S
C38 C39 1.348 . S
C38 C40 1.356 . S
C38 O63 1.325 . S
C39 C38 1.348 . S
C39 C41 1.353 . S
C39 H80 0.929 . S
C40 C38 1.356 . S
C40 C42 1.358 . S
C40 H81 0.930 . S
C41 C39 1.353 . S
C41 N43 1.314 . S
C41 H82 0.930 . S
C42 C40 1.358 . S
C42 N43 1.279 . S
C42 H83 0.930 . S
N43 C41 1.314 . S
N43 C42 1.279 . S
C44 C46 1.353 . S
C44 N47 1.314 . S
C44 H50 0.930 . S
C45 N47 1.279 . S
C45 C48 1.358 . S
C45 H51 0.930 . S
C46 C44 1.353 . S
C46 C49 1.348 . S
C46 H84 0.929 . S
N47 Li2 1.990 . S
N47 C44 1.314 . S
N47 C45 1.279 . S
C48 C45 1.358 . S
C48 C49 1.356 . S
C48 H85 0.930 . S
C49 C46 1.348 . S
C49 C48 1.356 . S
H50 C44 0.930 . S
H51 C45 0.930 . S
C52 N53 1.314 . S
C52 C54 1.353 . S
C52 H58 0.930 . S
N53 Li3 1.990 . S
N53 C52 1.314 . S
N53 C56 1.279 . S
C54 C52 1.353 . S
C54 C57 1.348 . S
C54 H86 0.929 . S
C55 C56 1.358 . S
C55 C57 1.356 . S
C55 H87 0.930 . S
C56 N53 1.279 . S
C56 C55 1.358 . S
C56 H59 0.930 . S
C57 C54 1.348 . S
C57 C55 1.356 . S
H58 C52 0.930 . S
H59 C56 0.930 . S
O60 Li0 1.956 . S
O60 Li1 1.970 . S
O60 Li2 1.961 . S
O60 C4 1.325 . S
O61 Li0 1.970 . S
O61 Li1 1.956 . S
O61 Li3 1.961 . S
O61 C10 1.325 . S
O62 Li0 1.961 . S
O62 Li2 1.956 . S
O62 Li3 1.970 . S
O62 C32 1.325 . S
O63 Li1 1.961 . S
O63 Li2 1.970 . S
O63 Li3 1.956 . S
O63 C38 1.325 . S
H64 C6 0.929 . S
H65 C7 0.930 . S
H66 C8 0.930 . S
H67 C9 0.930 . S
H68 C11 0.930 . S
H69 C13 0.929 . S
H70 C14 0.930 . S
H71 C15 0.930 . S
H72 C18 0.930 . S
H73 C21 0.929 . S
H74 C26 0.929 . S
H75 C27 0.930 . S
H76 C34 0.929 . S
H77 C35 0.930 . S
H78 C36 0.930 . S
H79 C37 0.930 . S
H80 C39 0.929 . S
H81 C40 0.930 . S
H82 C41 0.930 . S
H83 C42 0.930 . S
H84 C46 0.929 . S
H85 C48 0.930 . S
H86 C54 0.929 . S
H87 C55 0.930 . S
Li88 N105 1.990 . S
Li88 O148 1.956 . S
Li88 O149 1.970 . S
Li88 O150 1.961 . S
Li89 N113 1.990 . S
Li89 O148 1.970 . S
Li89 O149 1.956 . S
Li89 O151 1.961 . S
Li90 N135 1.990 . S
Li90 O148 1.961 . S
Li90 O150 1.956 . S
Li90 O151 1.970 . S
Li91 N141 1.990 . S
Li91 O149 1.961 . S
Li91 O150 1.970 . S
Li91 O151 1.956 . S
C92 C94 1.348 . S
C92 C95 1.356 . S
C92 O148 1.325 . S
N93 C96 1.314 . S
N93 C97 1.279 . S
C94 C92 1.348 . S
C94 C96 1.353 . S
C94 H152 0.929 . S
C95 C92 1.356 . S
C95 C97 1.358 . S
C95 H153 0.930 . S
C96 N93 1.314 . S
C96 C94 1.353 . S
C96 H154 0.930 . S
C97 N93 1.279 . S
C97 C95 1.358 . S
C97 H155 0.930 . S
C98 C101 1.348 . S
C98 C102 1.356 . S
C98 O149 1.325 . S
C99 N100 1.279 . S
C99 C102 1.358 . S
C99 H156 0.930 . S
N100 C99 1.279 . S
N100 C103 1.314 . S
C101 C98 1.348 . S
C101 C103 1.353 . S
C101 H157 0.929 . S
C102 C98 1.356 . S
C102 C99 1.358 . S
C102 H158 0.930 . S
C103 N100 1.314 . S
C103 C101 1.353 . S
C103 H159 0.930 . S
C104 N105 1.314 . S
C104 C109 1.353 . S
C104 H110 0.930 . S
N105 Li88 1.990 . S
N105 C104 1.314 . S
N105 C107 1.279 . S
C106 C107 1.358 . S
C106 C108 1.356 . S
C106 H160 0.930 . S
C107 N105 1.279 . S
C107 C106 1.358 . S
C107 H111 0.930 . S
C108 C106 1.356 . S
C108 C109 1.348 . S
C109 C104 1.353 . S
C109 C108 1.348 . S
C109 H161 0.929 . S
H110 C104 0.930 . S
H111 C107 0.930 . S
C112 N113 1.314 . S
C112 C114 1.353 . S
C112 H118 0.930 . S
N113 Li89 1.990 . S
N113 C112 1.314 . S
N113 C116 1.279 . S
C114 C112 1.353 . S
C114 C117 1.348 . S
C114 H162 0.929 . S
C115 C116 1.358 . S
C115 C117 1.356 . S
C115 H163 0.930 . S
C116 N113 1.279 . S
C116 C115 1.358 . S
C116 H119 0.930 . S
C117 C114 1.348 . S
C117 C115 1.356 . S
H118 C112 0.930 . S
H119 C116 0.930 . S
C120 C122 1.348 . S
C120 C123 1.356 . S
C120 O150 1.325 . S
N121 C124 1.314 . S
N121 C125 1.279 . S
C122 C120 1.348 . S
C122 C124 1.353 . S
C122 H164 0.929 . S
C123 C120 1.356 . S
C123 C125 1.358 . S
C123 H165 0.930 . S
C124 N121 1.314 . S
C124 C122 1.353 . S
C124 H166 0.930 . S
C125 N121 1.279 . S
C125 C123 1.358 . S
C125 H167 0.930 . S
C126 C127 1.348 . S
C126 C128 1.356 . S
C126 O151 1.325 . S
C127 C126 1.348 . S
C127 C129 1.353 . S
C127 H168 0.929 . S
C128 C126 1.356 . S
C128 C130 1.358 . S
C128 H169 0.930 . S
C129 C127 1.353 . S
C129 N131 1.314 . S
C129 H170 0.930 . S
C130 C128 1.358 . S
C130 N131 1.279 . S
C130 H171 0.930 . S
N131 C129 1.314 . S
N131 C130 1.279 . S
C132 C134 1.353 . S
C132 N135 1.314 . S
C132 H138 0.930 . S
C133 N135 1.279 . S
C133 C136 1.358 . S
C133 H139 0.930 . S
C134 C132 1.353 . S
C134 C137 1.348 . S
C134 H172 0.929 . S
N135 Li90 1.990 . S
N135 C132 1.314 . S
N135 C133 1.279 . S
C136 C133 1.358 . S
C136 C137 1.356 . S
C136 H173 0.930 . S
C137 C134 1.348 . S
C137 C136 1.356 . S
H138 C132 0.930 . S
H139 C133 0.930 . S
C140 N141 1.314 . S
C140 C142 1.353 . S
C140 H146 0.930 . S
N141 Li91 1.990 . S
N141 C140 1.314 . S
N141 C144 1.279 . S
C142 C140 1.353 . S
C142 C145 1.348 . S
C142 H174 0.929 . S
C143 C144 1.358 . S
C143 C145 1.356 . S
C143 H175 0.930 . S
C144 N141 1.279 . S
C144 C143 1.358 . S
C144 H147 0.930 . S
C145 C142 1.348 . S
C145 C143 1.356 . S
H146 C140 0.930 . S
H147 C144 0.930 . S
O148 Li88 1.956 . S
O148 Li89 1.970 . S
O148 Li90 1.961 . S
O148 C92 1.325 . S
O149 Li88 1.970 . S
O149 Li89 1.956 . S
O149 Li91 1.961 . S
O149 C98 1.325 . S
O150 Li88 1.961 . S
O150 Li90 1.956 . S
O150 Li91 1.970 . S
O150 C120 1.325 . S
O151 Li89 1.961 . S
O151 Li90 1.970 . S
O151 Li91 1.956 . S
O151 C126 1.325 . S
H152 C94 0.929 . S
H153 C95 0.930 . S
H154 C96 0.930 . S
H155 C97 0.930 . S
H156 C99 0.930 . S
H157 C101 0.929 . S
H158 C102 0.930 . S
H159 C103 0.930 . S
H160 C106 0.930 . S
H161 C109 0.929 . S
H162 C114 0.929 . S
H163 C115 0.930 . S
H164 C122 0.929 . S
H165 C123 0.930 . S
H166 C124 0.930 . S
H167 C125 0.930 . S
H168 C127 0.929 . S
H169 C128 0.930 . S
H170 C129 0.930 . S
H171 C130 0.930 . S
H172 C134 0.929 . S
H173 C136 0.930 . S
H174 C142 0.929 . S
H175 C143 0.930 . S
Li176 N193 1.990 . S
Li176 O236 1.956 . S
Li176 O237 1.970 . S
Li176 O238 1.961 . S
Li177 N201 1.990 . S
Li177 O236 1.970 . S
Li177 O237 1.956 . S
Li177 O239 1.961 . S
Li178 N223 1.990 . S
Li178 O236 1.961 . S
Li178 O238 1.956 . S
Li178 O239 1.970 . S
Li179 N229 1.990 . S
Li179 O237 1.961 . S
Li179 O238 1.970 . S
Li179 O239 1.956 . S
C180 C182 1.348 . S
C180 C183 1.356 . S
C180 O236 1.325 . S
N181 C184 1.314 . S
N181 C185 1.279 . S
C182 C180 1.348 . S
C182 C184 1.353 . S
C182 H240 0.929 . S
C183 C180 1.356 . S
C183 C185 1.358 . S
C183 H241 0.930 . S
C184 N181 1.314 . S
C184 C182 1.353 . S
C184 H242 0.930 . S
C185 N181 1.279 . S
C185 C183 1.358 . S
C185 H243 0.930 . S
C186 C189 1.348 . S
C186 C190 1.356 . S
C186 O237 1.325 . S
C187 N188 1.279 . S
C187 C190 1.358 . S
C187 H244 0.930 . S
N188 C187 1.279 . S
N188 C191 1.314 . S
C189 C186 1.348 . S
C189 C191 1.353 . S
C189 H245 0.929 . S
C190 C186 1.356 . S
C190 C187 1.358 . S
C190 H246 0.930 . S
C191 N188 1.314 . S
C191 C189 1.353 . S
C191 H247 0.930 . S
C192 N193 1.314 . S
C192 C197 1.353 . S
C192 H198 0.930 . S
N193 Li176 1.990 . S
N193 C192 1.314 . S
N193 C195 1.279 . S
C194 C195 1.358 . S
C194 C196 1.356 . S
C194 H248 0.930 . S
C195 N193 1.279 . S
C195 C194 1.358 . S
C195 H199 0.930 . S
C196 C194 1.356 . S
C196 C197 1.348 . S
C197 C192 1.353 . S
C197 C196 1.348 . S
C197 H249 0.929 . S
H198 C192 0.930 . S
H199 C195 0.930 . S
C200 N201 1.314 . S
C200 C202 1.353 . S
C200 H206 0.930 . S
N201 Li177 1.990 . S
N201 C200 1.314 . S
N201 C204 1.279 . S
C202 C200 1.353 . S
C202 C205 1.348 . S
C202 H250 0.929 . S
C203 C204 1.358 . S
C203 C205 1.356 . S
C203 H251 0.930 . S
C204 N201 1.279 . S
C204 C203 1.358 . S
C204 H207 0.930 . S
C205 C202 1.348 . S
C205 C203 1.356 . S
H206 C200 0.930 . S
H207 C204 0.930 . S
C208 C210 1.348 . S
C208 C211 1.356 . S
C208 O238 1.325 . S
N209 C212 1.314 . S
N209 C213 1.279 . S
C210 C208 1.348 . S
C210 C212 1.353 . S
C210 H252 0.929 . S
C211 C208 1.356 . S
C211 C213 1.358 . S
C211 H253 0.930 . S
C212 N209 1.314 . S
C212 C210 1.353 . S
C212 H254 0.930 . S
C213 N209 1.279 . S
C213 C211 1.358 . S
C213 H255 0.930 . S
C214 C215 1.348 . S
C214 C216 1.356 . S
C214 O239 1.325 . S
C215 C214 1.348 . S
C215 C217 1.353 . S
C215 H256 0.929 . S
C216 C214 1.356 . S
C216 C218 1.358 . S
C216 H257 0.930 . S
C217 C215 1.353 . S
C217 N219 1.314 . S
C217 H258 0.930 . S
C218 C216 1.358 . S
C218 N219 1.279 . S
C218 H259 0.930 . S
N219 C217 1.314 . S
N219 C218 1.279 . S
C220 C222 1.353 . S
C220 N223 1.314 . S
C220 H226 0.930 . S
C221 N223 1.279 . S
C221 C224 1.358 . S
C221 H227 0.930 . S
C222 C220 1.353 . S
C222 C225 1.348 . S
C222 H260 0.929 . S
N223 Li178 1.990 . S
N223 C220 1.314 . S
N223 C221 1.279 . S
C224 C221 1.358 . S
C224 C225 1.356 . S
C224 H261 0.930 . S
C225 C222 1.348 . S
C225 C224 1.356 . S
H226 C220 0.930 . S
H227 C221 0.930 . S
C228 N229 1.314 . S
C228 C230 1.353 . S
C228 H234 0.930 . S
N229 Li179 1.990 . S
N229 C228 1.314 . S
N229 C232 1.279 . S
C230 C228 1.353 . S
C230 C233 1.348 . S
C230 H262 0.929 . S
C231 C232 1.358 . S
C231 C233 1.356 . S
C231 H263 0.930 . S
C232 N229 1.279 . S
C232 C231 1.358 . S
C232 H235 0.930 . S
C233 C230 1.348 . S
C233 C231 1.356 . S
H234 C228 0.930 . S
H235 C232 0.930 . S
O236 Li176 1.956 . S
O236 Li177 1.970 . S
O236 Li178 1.961 . S
O236 C180 1.325 . S
O237 Li176 1.970 . S
O237 Li177 1.956 . S
O237 Li179 1.961 . S
O237 C186 1.325 . S
O238 Li176 1.961 . S
O238 Li178 1.956 . S
O238 Li179 1.970 . S
O238 C208 1.325 . S
O239 Li177 1.961 . S
O239 Li178 1.970 . S
O239 Li179 1.956 . S
O239 C214 1.325 . S
H240 C182 0.929 . S
H241 C183 0.930 . S
H242 C184 0.930 . S
H243 C185 0.930 . S
H244 C187 0.930 . S
H245 C189 0.929 . S
H246 C190 0.930 . S
H247 C191 0.930 . S
H248 C194 0.930 . S
H249 C197 0.929 . S
H250 C202 0.929 . S
H251 C203 0.930 . S
H252 C210 0.929 . S
H253 C211 0.930 . S
H254 C212 0.930 . S
H255 C213 0.930 . S
H256 C215 0.929 . S
H257 C216 0.930 . S
H258 C217 0.930 . S
H259 C218 0.930 . S
H260 C222 0.929 . S
H261 C224 0.930 . S
H262 C230 0.929 . S
H263 C231 0.930 . S
Li264 N281 1.990 . S
Li264 O324 1.956 . S
Li264 O325 1.970 . S
Li264 O326 1.961 . S
Li265 N289 1.990 . S
Li265 O324 1.970 . S
Li265 O325 1.956 . S
Li265 O327 1.961 . S
Li266 N311 1.990 . S
Li266 O324 1.961 . S
Li266 O326 1.956 . S
Li266 O327 1.970 . S
Li267 N317 1.990 . S
Li267 O325 1.961 . S
Li267 O326 1.970 . S
Li267 O327 1.956 . S
C268 C270 1.348 . S
C268 C271 1.356 . S
C268 O324 1.325 . S
N269 C272 1.314 . S
N269 C273 1.279 . S
C270 C268 1.348 . S
C270 C272 1.353 . S
C270 H328 0.929 . S
C271 C268 1.356 . S
C271 C273 1.358 . S
C271 H329 0.930 . S
C272 N269 1.314 . S
C272 C270 1.353 . S
C272 H330 0.930 . S
C273 N269 1.279 . S
C273 C271 1.358 . S
C273 H331 0.930 . S
C274 C277 1.348 . S
C274 C278 1.356 . S
C274 O325 1.325 . S
C275 N276 1.279 . S
C275 C278 1.358 . S
C275 H332 0.930 . S
N276 C275 1.279 . S
N276 C279 1.314 . S
C277 C274 1.348 . S
C277 C279 1.353 . S
C277 H333 0.929 . S
C278 C274 1.356 . S
C278 C275 1.358 . S
C278 H334 0.930 . S
C279 N276 1.314 . S
C279 C277 1.353 . S
C279 H335 0.930 . S
C280 N281 1.314 . S
C280 C285 1.353 . S
C280 H286 0.930 . S
N281 Li264 1.990 . S
N281 C280 1.314 . S
N281 C283 1.279 . S
C282 C283 1.358 . S
C282 C284 1.356 . S
C282 H336 0.930 . S
C283 N281 1.279 . S
C283 C282 1.358 . S
C283 H287 0.930 . S
C284 C282 1.356 . S
C284 C285 1.348 . S
C285 C280 1.353 . S
C285 C284 1.348 . S
C285 H337 0.929 . S
H286 C280 0.930 . S
H287 C283 0.930 . S
C288 N289 1.314 . S
C288 C290 1.353 . S
C288 H294 0.930 . S
N289 Li265 1.990 . S
N289 C288 1.314 . S
N289 C292 1.279 . S
C290 C288 1.353 . S
C290 C293 1.348 . S
C290 H338 0.929 . S
C291 C292 1.358 . S
C291 C293 1.356 . S
C291 H339 0.930 . S
C292 N289 1.279 . S
C292 C291 1.358 . S
C292 H295 0.930 . S
C293 C290 1.348 . S
C293 C291 1.356 . S
H294 C288 0.930 . S
H295 C292 0.930 . S
C296 C298 1.348 . S
C296 C299 1.356 . S
C296 O326 1.325 . S
N297 C300 1.314 . S
N297 C301 1.279 . S
C298 C296 1.348 . S
C298 C300 1.353 . S
C298 H340 0.929 . S
C299 C296 1.356 . S
C299 C301 1.358 . S
C299 H341 0.930 . S
C300 N297 1.314 . S
C300 C298 1.353 . S
C300 H342 0.930 . S
C301 N297 1.279 . S
C301 C299 1.358 . S
C301 H343 0.930 . S
C302 C303 1.348 . S
C302 C304 1.356 . S
C302 O327 1.325 . S
C303 C302 1.348 . S
C303 C305 1.353 . S
C303 H344 0.929 . S
C304 C302 1.356 . S
C304 C306 1.358 . S
C304 H345 0.930 . S
C305 C303 1.353 . S
C305 N307 1.314 . S
C305 H346 0.930 . S
C306 C304 1.358 . S
C306 N307 1.279 . S
C306 H347 0.930 . S
N307 C305 1.314 . S
N307 C306 1.279 . S
C308 C310 1.353 . S
C308 N311 1.314 . S
C308 H314 0.930 . S
C309 N311 1.279 . S
C309 C312 1.358 . S
C309 H315 0.930 . S
C310 C308 1.353 . S
C310 C313 1.348 . S
C310 H348 0.929 . S
N311 Li266 1.990 . S
N311 C308 1.314 . S
N311 C309 1.279 . S
C312 C309 1.358 . S
C312 C313 1.356 . S
C312 H349 0.930 . S
C313 C310 1.348 . S
C313 C312 1.356 . S
H314 C308 0.930 . S
H315 C309 0.930 . S
C316 N317 1.314 . S
C316 C318 1.353 . S
C316 H322 0.930 . S
N317 Li267 1.990 . S
N317 C316 1.314 . S
N317 C320 1.279 . S
C318 C316 1.353 . S
C318 C321 1.348 . S
C318 H350 0.929 . S
C319 C320 1.358 . S
C319 C321 1.356 . S
C319 H351 0.930 . S
C320 N317 1.279 . S
C320 C319 1.358 . S
C320 H323 0.930 . S
C321 C318 1.348 . S
C321 C319 1.356 . S
H322 C316 0.930 . S
H323 C320 0.930 . S
O324 Li264 1.956 . S
O324 Li265 1.970 . S
O324 Li266 1.961 . S
O324 C268 1.325 . S
O325 Li264 1.970 . S
O325 Li265 1.956 . S
O325 Li267 1.961 . S
O325 C274 1.325 . S
O326 Li264 1.961 . S
O326 Li266 1.956 . S
O326 Li267 1.970 . S
O326 C296 1.325 . S
O327 Li265 1.961 . S
O327 Li266 1.970 . S
O327 Li267 1.956 . S
O327 C302 1.325 . S
H328 C270 0.929 . S
H329 C271 0.930 . S
H330 C272 0.930 . S
H331 C273 0.930 . S
H332 C275 0.930 . S
H333 C277 0.929 . S
H334 C278 0.930 . S
H335 C279 0.930 . S
H336 C282 0.930 . S
H337 C285 0.929 . S
H338 C290 0.929 . S
H339 C291 0.930 . S
H340 C298 0.929 . S
H341 C299 0.930 . S
H342 C300 0.930 . S
H343 C301 0.930 . S
H344 C303 0.929 . S
H345 C304 0.930 . S
H346 C305 0.930 . S
H347 C306 0.930 . S
H348 C310 0.929 . S
H349 C312 0.930 . S
H350 C318 0.929 . S
H351 C319 0.930 . S
Li352 N369 1.990 . S
Li352 O412 1.956 . S
Li352 O413 1.970 . S
Li352 O414 1.961 . S
Li353 N377 1.990 . S
Li353 O412 1.970 . S
Li353 O413 1.956 . S
Li353 O415 1.961 . S
Li354 N399 1.990 . S
Li354 O412 1.961 . S
Li354 O414 1.956 . S
Li354 O415 1.970 . S
Li355 N405 1.990 . S
Li355 O413 1.961 . S
Li355 O414 1.970 . S
Li355 O415 1.956 . S
C356 C358 1.348 . S
C356 C359 1.356 . S
C356 O412 1.325 . S
N357 C360 1.314 . S
N357 C361 1.279 . S
C358 C356 1.348 . S
C358 C360 1.353 . S
C358 H416 0.929 . S
C359 C356 1.356 . S
C359 C361 1.358 . S
C359 H417 0.930 . S
C360 N357 1.314 . S
C360 C358 1.353 . S
C360 H418 0.930 . S
C361 N357 1.279 . S
C361 C359 1.358 . S
C361 H419 0.930 . S
C362 C365 1.348 . S
C362 C366 1.356 . S
C362 O413 1.325 . S
C363 N364 1.279 . S
C363 C366 1.358 . S
C363 H420 0.930 . S
N364 C363 1.279 . S
N364 C367 1.314 . S
C365 C362 1.348 . S
C365 C367 1.353 . S
C365 H421 0.929 . S
C366 C362 1.356 . S
C366 C363 1.358 . S
C366 H422 0.930 . S
C367 N364 1.314 . S
C367 C365 1.353 . S
C367 H423 0.930 . S
C368 N369 1.314 . S
C368 C373 1.353 . S
C368 H374 0.930 . S
N369 Li352 1.990 . S
N369 C368 1.314 . S
N369 C371 1.279 . S
C370 C371 1.358 . S
C370 C372 1.356 . S
C370 H424 0.930 . S
C371 N369 1.279 . S
C371 C370 1.358 . S
C371 H375 0.930 . S
C372 C370 1.356 . S
C372 C373 1.348 . S
C373 C368 1.353 . S
C373 C372 1.348 . S
C373 H425 0.929 . S
H374 C368 0.930 . S
H375 C371 0.930 . S
C376 N377 1.314 . S
C376 C378 1.353 . S
C376 H382 0.930 . S
N377 Li353 1.990 . S
N377 C376 1.314 . S
N377 C380 1.279 . S
C378 C376 1.353 . S
C378 C381 1.348 . S
C378 H426 0.929 . S
C379 C380 1.358 . S
C379 C381 1.356 . S
C379 H427 0.930 . S
C380 N377 1.279 . S
C380 C379 1.358 . S
C380 H383 0.930 . S
C381 C378 1.348 . S
C381 C379 1.356 . S
H382 C376 0.930 . S
H383 C380 0.930 . S
C384 C386 1.348 . S
C384 C387 1.356 . S
C384 O414 1.325 . S
N385 C388 1.314 . S
N385 C389 1.279 . S
C386 C384 1.348 . S
C386 C388 1.353 . S
C386 H428 0.929 . S
C387 C384 1.356 . S
C387 C389 1.358 . S
C387 H429 0.930 . S
C388 N385 1.314 . S
C388 C386 1.353 . S
C388 H430 0.930 . S
C389 N385 1.279 . S
C389 C387 1.358 . S
C389 H431 0.930 . S
C390 C391 1.348 . S
C390 C392 1.356 . S
C390 O415 1.325 . S
C391 C390 1.348 . S
C391 C393 1.353 . S
C391 H432 0.929 . S
C392 C390 1.356 . S
C392 C394 1.358 . S
C392 H433 0.930 . S
C393 C391 1.353 . S
C393 N395 1.314 . S
C393 H434 0.930 . S
C394 C392 1.358 . S
C394 N395 1.279 . S
C394 H435 0.930 . S
N395 C393 1.314 . S
N395 C394 1.279 . S
C396 C398 1.353 . S
C396 N399 1.314 . S
C396 H402 0.930 . S
C397 N399 1.279 . S
C397 C400 1.358 . S
C397 H403 0.930 . S
C398 C396 1.353 . S
C398 C401 1.348 . S
C398 H436 0.929 . S
N399 Li354 1.990 . S
N399 C396 1.314 . S
N399 C397 1.279 . S
C400 C397 1.358 . S
C400 C401 1.356 . S
C400 H437 0.930 . S
C401 C398 1.348 . S
C401 C400 1.356 . S
H402 C396 0.930 . S
H403 C397 0.930 . S
C404 N405 1.314 . S
C404 C406 1.353 . S
C404 H410 0.930 . S
N405 Li355 1.990 . S
N405 C404 1.314 . S
N405 C408 1.279 . S
C406 C404 1.353 . S
C406 C409 1.348 . S
C406 H438 0.929 . S
C407 C408 1.358 . S
C407 C409 1.356 . S
C407 H439 0.930 . S
C408 N405 1.279 . S
C408 C407 1.358 . S
C408 H411 0.930 . S
C409 C406 1.348 . S
C409 C407 1.356 . S
H410 C404 0.930 . S
H411 C408 0.930 . S
O412 Li352 1.956 . S
O412 Li353 1.970 . S
O412 Li354 1.961 . S
O412 C356 1.325 . S
O413 Li352 1.970 . S
O413 Li353 1.956 . S
O413 Li355 1.961 . S
O413 C362 1.325 . S
O414 Li352 1.961 . S
O414 Li354 1.956 . S
O414 Li355 1.970 . S
O414 C384 1.325 . S
O415 Li353 1.961 . S
O415 Li354 1.970 . S
O415 Li355 1.956 . S
O415 C390 1.325 . S
H416 C358 0.929 . S
H417 C359 0.930 . S
H418 C360 0.930 . S
H419 C361 0.930 . S
H420 C363 0.930 . S
H421 C365 0.929 . S
H422 C366 0.930 . S
H423 C367 0.930 . S
H424 C370 0.930 . S
H425 C373 0.929 . S
H426 C378 0.929 . S
H427 C379 0.930 . S
H428 C386 0.929 . S
H429 C387 0.930 . S
H430 C388 0.930 . S
H431 C389 0.930 . S
H432 C391 0.929 . S
H433 C392 0.930 . S
H434 C393 0.930 . S
H435 C394 0.930 . S
H436 C398 0.929 . S
H437 C400 0.930 . S
H438 C406 0.929 . S
H439 C407 0.930 . S
Li440 N457 1.990 . S
Li440 O500 1.956 . S
Li440 O501 1.970 . S
Li440 O502 1.961 . S
Li441 N465 1.990 . S
Li441 O500 1.970 . S
Li441 O501 1.956 . S
Li441 O503 1.961 . S
Li442 N487 1.990 . S
Li442 O500 1.961 . S
Li442 O502 1.956 . S
Li442 O503 1.970 . S
Li443 N493 1.990 . S
Li443 O501 1.961 . S
Li443 O502 1.970 . S
Li443 O503 1.956 . S
C444 C446 1.348 . S
C444 C447 1.356 . S
C444 O500 1.325 . S
N445 C448 1.314 . S
N445 C449 1.279 . S
C446 C444 1.348 . S
C446 C448 1.353 . S
C446 H504 0.929 . S
C447 C444 1.356 . S
C447 C449 1.358 . S
C447 H505 0.930 . S
C448 N445 1.314 . S
C448 C446 1.353 . S
C448 H506 0.930 . S
C449 N445 1.279 . S
C449 C447 1.358 . S
C449 H507 0.930 . S
C450 C453 1.348 . S
C450 C454 1.356 . S
C450 O501 1.325 . S
C451 N452 1.279 . S
C451 C454 1.358 . S
C451 H508 0.930 . S
N452 C451 1.279 . S
N452 C455 1.314 . S
C453 C450 1.348 . S
C453 C455 1.353 . S
C453 H509 0.929 . S
C454 C450 1.356 . S
C454 C451 1.358 . S
C454 H510 0.930 . S
C455 N452 1.314 . S
C455 C453 1.353 . S
C455 H511 0.930 . S
C456 N457 1.314 . S
C456 C461 1.353 . S
C456 H462 0.930 . S
N457 Li440 1.990 . S
N457 C456 1.314 . S
N457 C459 1.279 . S
C458 C459 1.358 . S
C458 C460 1.356 . S
C458 H512 0.930 . S
C459 N457 1.279 . S
C459 C458 1.358 . S
C459 H463 0.930 . S
C460 C458 1.356 . S
C460 C461 1.348 . S
C461 C456 1.353 . S
C461 C460 1.348 . S
C461 H513 0.929 . S
H462 C456 0.930 . S
H463 C459 0.930 . S
C464 N465 1.314 . S
C464 C466 1.353 . S
C464 H470 0.930 . S
N465 Li441 1.990 . S
N465 C464 1.314 . S
N465 C468 1.279 . S
C466 C464 1.353 . S
C466 C469 1.348 . S
C466 H514 0.929 . S
C467 C468 1.358 . S
C467 C469 1.356 . S
C467 H515 0.930 . S
C468 N465 1.279 . S
C468 C467 1.358 . S
C468 H471 0.930 . S
C469 C466 1.348 . S
C469 C467 1.356 . S
H470 C464 0.930 . S
H471 C468 0.930 . S
C472 C474 1.348 . S
C472 C475 1.356 . S
C472 O502 1.325 . S
N473 C476 1.314 . S
N473 C477 1.279 . S
C474 C472 1.348 . S
C474 C476 1.353 . S
C474 H516 0.929 . S
C475 C472 1.356 . S
C475 C477 1.358 . S
C475 H517 0.930 . S
C476 N473 1.314 . S
C476 C474 1.353 . S
C476 H518 0.930 . S
C477 N473 1.279 . S
C477 C475 1.358 . S
C477 H519 0.930 . S
C478 C479 1.348 . S
C478 C480 1.356 . S
C478 O503 1.325 . S
C479 C478 1.348 . S
C479 C481 1.353 . S
C479 H520 0.929 . S
C480 C478 1.356 . S
C480 C482 1.358 . S
C480 H521 0.930 . S
C481 C479 1.353 . S
C481 N483 1.314 . S
C481 H522 0.930 . S
C482 C480 1.358 . S
C482 N483 1.279 . S
C482 H523 0.930 . S
N483 C481 1.314 . S
N483 C482 1.279 . S
C484 C486 1.353 . S
C484 N487 1.314 . S
C484 H490 0.930 . S
C485 N487 1.279 . S
C485 C488 1.358 . S
C485 H491 0.930 . S
C486 C484 1.353 . S
C486 C489 1.348 . S
C486 H524 0.929 . S
N487 Li442 1.990 . S
N487 C484 1.314 . S
N487 C485 1.279 . S
C488 C485 1.358 . S
C488 C489 1.356 . S
C488 H525 0.930 . S
C489 C486 1.348 . S
C489 C488 1.356 . S
H490 C484 0.930 . S
H491 C485 0.930 . S
C492 N493 1.314 . S
C492 C494 1.353 . S
C492 H498 0.930 . S
N493 Li443 1.990 . S
N493 C492 1.314 . S
N493 C496 1.279 . S
C494 C492 1.353 . S
C494 C497 1.348 . S
C494 H526 0.929 . S
C495 C496 1.358 . S
C495 C497 1.356 . S
C495 H527 0.930 . S
C496 N493 1.279 . S
C496 C495 1.358 . S
C496 H499 0.930 . S
C497 C494 1.348 . S
C497 C495 1.356 . S
H498 C492 0.930 . S
H499 C496 0.930 . S
O500 Li440 1.956 . S
O500 Li441 1.970 . S
O500 Li442 1.961 . S
O500 C444 1.325 . S
O501 Li440 1.970 . S
O501 Li441 1.956 . S
O501 Li443 1.961 . S
O501 C450 1.325 . S
O502 Li440 1.961 . S
O502 Li442 1.956 . S
O502 Li443 1.970 . S
O502 C472 1.325 . S
O503 Li441 1.961 . S
O503 Li442 1.970 . S
O503 Li443 1.956 . S
O503 C478 1.325 . S
H504 C446 0.929 . S
H505 C447 0.930 . S
H506 C448 0.930 . S
H507 C449 0.930 . S
H508 C451 0.930 . S
H509 C453 0.929 . S
H510 C454 0.930 . S
H511 C455 0.930 . S
H512 C458 0.930 . S
H513 C461 0.929 . S
H514 C466 0.929 . S
H515 C467 0.930 . S
H516 C474 0.929 . S
H517 C475 0.930 . S
H518 C476 0.930 . S
H519 C477 0.930 . S
H520 C479 0.929 . S
H521 C480 0.930 . S
H522 C481 0.930 . S
H523 C482 0.930 . S
H524 C486 0.929 . S
H525 C488 0.930 . S
H526 C494 0.929 . S
H527 C495 0.930 . S
Li528 N545 1.990 . S
Li528 O588 1.956 . S
Li528 O589 1.970 . S
Li528 O590 1.961 . S
Li529 N553 1.990 . S
Li529 O588 1.970 . S
Li529 O589 1.956 . S
Li529 O591 1.961 . S
Li530 N575 1.990 . S
Li530 O588 1.961 . S
Li530 O590 1.956 . S
Li530 O591 1.970 . S
Li531 N581 1.990 . S
Li531 O589 1.961 . S
Li531 O590 1.970 . S
Li531 O591 1.956 . S
C532 C534 1.348 . S
C532 C535 1.356 . S
C532 O588 1.325 . S
N533 C536 1.314 . S
N533 C537 1.279 . S
C534 C532 1.348 . S
C534 C536 1.353 . S
C534 H592 0.929 . S
C535 C532 1.356 . S
C535 C537 1.358 . S
C535 H593 0.930 . S
C536 N533 1.314 . S
C536 C534 1.353 . S
C536 H594 0.930 . S
C537 N533 1.279 . S
C537 C535 1.358 . S
C537 H595 0.930 . S
C538 C541 1.348 . S
C538 C542 1.356 . S
C538 O589 1.325 . S
C539 N540 1.279 . S
C539 C542 1.358 . S
C539 H596 0.930 . S
N540 C539 1.279 . S
N540 C543 1.314 . S
C541 C538 1.348 . S
C541 C543 1.353 . S
C541 H597 0.929 . S
C542 C538 1.356 . S
C542 C539 1.358 . S
C542 H598 0.930 . S
C543 N540 1.314 . S
C543 C541 1.353 . S
C543 H599 0.930 . S
C544 N545 1.314 . S
C544 C549 1.353 . S
C544 H550 0.930 . S
N545 Li528 1.990 . S
N545 C544 1.314 . S
N545 C547 1.279 . S
C546 C547 1.358 . S
C546 C548 1.356 . S
C546 H600 0.930 . S
C547 N545 1.279 . S
C547 C546 1.358 . S
C547 H551 0.930 . S
C548 C546 1.356 . S
C548 C549 1.348 . S
C549 C544 1.353 . S
C549 C548 1.348 . S
C549 H601 0.929 . S
H550 C544 0.930 . S
H551 C547 0.930 . S
C552 N553 1.314 . S
C552 C554 1.353 . S
C552 H558 0.930 . S
N553 Li529 1.990 . S
N553 C552 1.314 . S
N553 C556 1.279 . S
C554 C552 1.353 . S
C554 C557 1.348 . S
C554 H602 0.929 . S
C555 C556 1.358 . S
C555 C557 1.356 . S
C555 H603 0.930 . S
C556 N553 1.279 . S
C556 C555 1.358 . S
C556 H559 0.930 . S
C557 C554 1.348 . S
C557 C555 1.356 . S
H558 C552 0.930 . S
H559 C556 0.930 . S
C560 C562 1.348 . S
C560 C563 1.356 . S
C560 O590 1.325 . S
N561 C564 1.314 . S
N561 C565 1.279 . S
C562 C560 1.348 . S
C562 C564 1.353 . S
C562 H604 0.929 . S
C563 C560 1.356 . S
C563 C565 1.358 . S
C563 H605 0.930 . S
C564 N561 1.314 . S
C564 C562 1.353 . S
C564 H606 0.930 . S
C565 N561 1.279 . S
C565 C563 1.358 . S
C565 H607 0.930 . S
C566 C567 1.348 . S
C566 C568 1.356 . S
C566 O591 1.325 . S
C567 C566 1.348 . S
C567 C569 1.353 . S
C567 H608 0.929 . S
C568 C566 1.356 . S
C568 C570 1.358 . S
C568 H609 0.930 . S
C569 C567 1.353 . S
C569 N571 1.314 . S
C569 H610 0.930 . S
C570 C568 1.358 . S
C570 N571 1.279 . S
C570 H611 0.930 . S
N571 C569 1.314 . S
N571 C570 1.279 . S
C572 C574 1.353 . S
C572 N575 1.314 . S
C572 H578 0.930 . S
C573 N575 1.279 . S
C573 C576 1.358 . S
C573 H579 0.930 . S
C574 C572 1.353 . S
C574 C577 1.348 . S
C574 H612 0.929 . S
N575 Li530 1.990 . S
N575 C572 1.314 . S
N575 C573 1.279 . S
C576 C573 1.358 . S
C576 C577 1.356 . S
C576 H613 0.930 . S
C577 C574 1.348 . S
C577 C576 1.356 . S
H578 C572 0.930 . S
H579 C573 0.930 . S
C580 N581 1.314 . S
C580 C582 1.353 . S
C580 H586 0.930 . S
N581 Li531 1.990 . S
N581 C580 1.314 . S
N581 C584 1.279 . S
C582 C580 1.353 . S
C582 C585 1.348 . S
C582 H614 0.929 . S
C583 C584 1.358 . S
C583 C585 1.356 . S
C583 H615 0.930 . S
C584 N581 1.279 . S
C584 C583 1.358 . S
C584 H587 0.930 . S
C585 C582 1.348 . S
C585 C583 1.356 . S
H586 C580 0.930 . S
H587 C584 0.930 . S
O588 Li528 1.956 . S
O588 Li529 1.970 . S
O588 Li530 1.961 . S
O588 C532 1.325 . S
O589 Li528 1.970 . S
O589 Li529 1.956 . S
O589 Li531 1.961 . S
O589 C538 1.325 . S
O590 Li528 1.961 . S
O590 Li530 1.956 . S
O590 Li531 1.970 . S
O590 C560 1.325 . S
O591 Li529 1.961 . S
O591 Li530 1.970 . S
O591 Li531 1.956 . S
O591 C566 1.325 . S
H592 C534 0.929 . S
H593 C535 0.930 . S
H594 C536 0.930 . S
H595 C537 0.930 . S
H596 C539 0.930 . S
H597 C541 0.929 . S
H598 C542 0.930 . S
H599 C543 0.930 . S
H600 C546 0.930 . S
H601 C549 0.929 . S
H602 C554 0.929 . S
H603 C555 0.930 . S
H604 C562 0.929 . S
H605 C563 0.930 . S
H606 C564 0.930 . S
H607 C565 0.930 . S
H608 C567 0.929 . S
H609 C568 0.930 . S
H610 C569 0.930 . S
H611 C570 0.930 . S
H612 C574 0.929 . S
H613 C576 0.930 . S
H614 C582 0.929 . S
H615 C583 0.930 . S
Li616 N633 1.990 . S
Li616 O676 1.956 . S
Li616 O677 1.970 . S
Li616 O678 1.961 . S
Li617 N641 1.990 . S
Li617 O676 1.970 . S
Li617 O677 1.956 . S
Li617 O679 1.961 . S
Li618 N663 1.990 . S
Li618 O676 1.961 . S
Li618 O678 1.956 . S
Li618 O679 1.970 . S
Li619 N669 1.990 . S
Li619 O677 1.961 . S
Li619 O678 1.970 . S
Li619 O679 1.956 . S
C620 C622 1.348 . S
C620 C623 1.356 . S
C620 O676 1.325 . S
N621 C624 1.314 . S
N621 C625 1.279 . S
C622 C620 1.348 . S
C622 C624 1.353 . S
C622 H680 0.929 . S
C623 C620 1.356 . S
C623 C625 1.358 . S
C623 H681 0.930 . S
C624 N621 1.314 . S
C624 C622 1.353 . S
C624 H682 0.930 . S
C625 N621 1.279 . S
C625 C623 1.358 . S
C625 H683 0.930 . S
C626 C629 1.348 . S
C626 C630 1.356 . S
C626 O677 1.325 . S
C627 N628 1.279 . S
C627 C630 1.358 . S
C627 H684 0.930 . S
N628 C627 1.279 . S
N628 C631 1.314 . S
C629 C626 1.348 . S
C629 C631 1.353 . S
C629 H685 0.929 . S
C630 C626 1.356 . S
C630 C627 1.358 . S
C630 H686 0.930 . S
C631 N628 1.314 . S
C631 C629 1.353 . S
C631 H687 0.930 . S
C632 N633 1.314 . S
C632 C637 1.353 . S
C632 H638 0.930 . S
N633 Li616 1.990 . S
N633 C632 1.314 . S
N633 C635 1.279 . S
C634 C635 1.358 . S
C634 C636 1.356 . S
C634 H688 0.930 . S
C635 N633 1.279 . S
C635 C634 1.358 . S
C635 H639 0.930 . S
C636 C634 1.356 . S
C636 C637 1.348 . S
C637 C632 1.353 . S
C637 C636 1.348 . S
C637 H689 0.929 . S
H638 C632 0.930 . S
H639 C635 0.930 . S
C640 N641 1.314 . S
C640 C642 1.353 . S
C640 H646 0.930 . S
N641 Li617 1.990 . S
N641 C640 1.314 . S
N641 C644 1.279 . S
C642 C640 1.353 . S
C642 C645 1.348 . S
C642 H690 0.929 . S
C643 C644 1.358 . S
C643 C645 1.356 . S
C643 H691 0.930 . S
C644 N641 1.279 . S
C644 C643 1.358 . S
C644 H647 0.930 . S
C645 C642 1.348 . S
C645 C643 1.356 . S
H646 C640 0.930 . S
H647 C644 0.930 . S
C648 C650 1.348 . S
C648 C651 1.356 . S
C648 O678 1.325 . S
N649 C652 1.314 . S
N649 C653 1.279 . S
C650 C648 1.348 . S
C650 C652 1.353 . S
C650 H692 0.929 . S
C651 C648 1.356 . S
C651 C653 1.358 . S
C651 H693 0.930 . S
C652 N649 1.314 . S
C652 C650 1.353 . S
C652 H694 0.930 . S
C653 N649 1.279 . S
C653 C651 1.358 . S
C653 H695 0.930 . S
C654 C655 1.348 . S
C654 C656 1.356 . S
C654 O679 1.325 . S
C655 C654 1.348 . S
C655 C657 1.353 . S
C655 H696 0.929 . S
C656 C654 1.356 . S
C656 C658 1.358 . S
C656 H697 0.930 . S
C657 C655 1.353 . S
C657 N659 1.314 . S
C657 H698 0.930 . S
C658 C656 1.358 . S
C658 N659 1.279 . S
C658 H699 0.930 . S
N659 C657 1.314 . S
N659 C658 1.279 . S
C660 C662 1.353 . S
C660 N663 1.314 . S
C660 H666 0.930 . S
C661 N663 1.279 . S
C661 C664 1.358 . S
C661 H667 0.930 . S
C662 C660 1.353 . S
C662 C665 1.348 . S
C662 H700 0.929 . S
N663 Li618 1.990 . S
N663 C660 1.314 . S
N663 C661 1.279 . S
C664 C661 1.358 . S
C664 C665 1.356 . S
C664 H701 0.930 . S
C665 C662 1.348 . S
C665 C664 1.356 . S
H666 C660 0.930 . S
H667 C661 0.930 . S
C668 N669 1.314 . S
C668 C670 1.353 . S
C668 H674 0.930 . S
N669 Li619 1.990 . S
N669 C668 1.314 . S
N669 C672 1.279 . S
C670 C668 1.353 . S
C670 C673 1.348 . S
C670 H702 0.929 . S
C671 C672 1.358 . S
C671 C673 1.356 . S
C671 H703 0.930 . S
C672 N669 1.279 . S
C672 C671 1.358 . S
C672 H675 0.930 . S
C673 C670 1.348 . S
C673 C671 1.356 . S
H674 C668 0.930 . S
H675 C672 0.930 . S
O676 Li616 1.956 . S
O676 Li617 1.970 . S
O676 Li618 1.961 . S
O676 C620 1.325 . S
O677 Li616 1.970 . S
O677 Li617 1.956 . S
O677 Li619 1.961 . S
O677 C626 1.325 . S
O678 Li616 1.961 . S
O678 Li618 1.956 . S
O678 Li619 1.970 . S
O678 C648 1.325 . S
O679 Li617 1.961 . S
O679 Li618 1.970 . S
O679 Li619 1.956 . S
O679 C654 1.325 . S
H680 C622 0.929 . S
H681 C623 0.930 . S
H682 C624 0.930 . S
H683 C625 0.930 . S
H684 C627 0.930 . S
H685 C629 0.929 . S
H686 C630 0.930 . S
H687 C631 0.930 . S
H688 C634 0.930 . S
H689 C637 0.929 . S
H690 C642 0.929 . S
H691 C643 0.930 . S
H692 C650 0.929 . S
H693 C651 0.930 . S
H694 C652 0.930 . S
H695 C653 0.930 . S
H696 C655 0.929 . S
H697 C656 0.930 . S
H698 C657 0.930 . S
H699 C658 0.930 . S
H700 C662 0.929 . S
H701 C664 0.930 . S
H702 C670 0.929 . S
H703 C671 0.930 . S
Li704 N721 1.990 . S
Li704 O764 1.956 . S
Li704 O765 1.970 . S
Li704 O766 1.961 . S
Li705 N729 1.990 . S
Li705 O764 1.970 . S
Li705 O765 1.956 . S
Li705 O767 1.961 . S
Li706 N751 1.990 . S
Li706 O764 1.961 . S
Li706 O766 1.956 . S
Li706 O767 1.970 . S
Li707 N757 1.990 . S
Li707 O765 1.961 . S
Li707 O766 1.970 . S
Li707 O767 1.956 . S
C708 C710 1.348 . S
C708 C711 1.356 . S
C708 O764 1.325 . S
N709 C712 1.314 . S
N709 C713 1.279 . S
C710 C708 1.348 . S
C710 C712 1.353 . S
C710 H768 0.929 . S
C711 C708 1.356 . S
C711 C713 1.358 . S
C711 H769 0.930 . S
C712 N709 1.314 . S
C712 C710 1.353 . S
C712 H770 0.930 . S
C713 N709 1.279 . S
C713 C711 1.358 . S
C713 H771 0.930 . S
C714 C717 1.348 . S
C714 C718 1.356 . S
C714 O765 1.325 . S
C715 N716 1.279 . S
C715 C718 1.358 . S
C715 H772 0.930 . S
N716 C715 1.279 . S
N716 C719 1.314 . S
C717 C714 1.348 . S
C717 C719 1.353 . S
C717 H773 0.929 . S
C718 C714 1.356 . S
C718 C715 1.358 . S
C718 H774 0.930 . S
C719 N716 1.314 . S
C719 C717 1.353 . S
C719 H775 0.930 . S
C720 N721 1.314 . S
C720 C725 1.353 . S
C720 H726 0.930 . S
N721 Li704 1.990 . S
N721 C720 1.314 . S
N721 C723 1.279 . S
C722 C723 1.358 . S
C722 C724 1.356 . S
C722 H776 0.930 . S
C723 N721 1.279 . S
C723 C722 1.358 . S
C723 H727 0.930 . S
C724 C722 1.356 . S
C724 C725 1.348 . S
C725 C720 1.353 . S
C725 C724 1.348 . S
C725 H777 0.929 . S
H726 C720 0.930 . S
H727 C723 0.930 . S
C728 N729 1.314 . S
C728 C730 1.353 . S
C728 H734 0.930 . S
N729 Li705 1.990 . S
N729 C728 1.314 . S
N729 C732 1.279 . S
C730 C728 1.353 . S
C730 C733 1.348 . S
C730 H778 0.929 . S
C731 C732 1.358 . S
C731 C733 1.356 . S
C731 H779 0.930 . S
C732 N729 1.279 . S
C732 C731 1.358 . S
C732 H735 0.930 . S
C733 C730 1.348 . S
C733 C731 1.356 . S
H734 C728 0.930 . S
H735 C732 0.930 . S
C736 C738 1.348 . S
C736 C739 1.356 . S
C736 O766 1.325 . S
N737 C740 1.314 . S
N737 C741 1.279 . S
C738 C736 1.348 . S
C738 C740 1.353 . S
C738 H780 0.929 . S
C739 C736 1.356 . S
C739 C741 1.358 . S
C739 H781 0.930 . S
C740 N737 1.314 . S
C740 C738 1.353 . S
C740 H782 0.930 . S
C741 N737 1.279 . S
C741 C739 1.358 . S
C741 H783 0.930 . S
C742 C743 1.348 . S
C742 C744 1.356 . S
C742 O767 1.325 . S
C743 C742 1.348 . S
C743 C745 1.353 . S
C743 H784 0.929 . S
C744 C742 1.356 . S
C744 C746 1.358 . S
C744 H785 0.930 . S
C745 C743 1.353 . S
C745 N747 1.314 . S
C745 H786 0.930 . S
C746 C744 1.358 . S
C746 N747 1.279 . S
C746 H787 0.930 . S
N747 C745 1.314 . S
N747 C746 1.279 . S
C748 C750 1.353 . S
C748 N751 1.314 . S
C748 H754 0.930 . S
C749 N751 1.279 . S
C749 C752 1.358 . S
C749 H755 0.930 . S
C750 C748 1.353 . S
C750 C753 1.348 . S
C750 H788 0.929 . S
N751 Li706 1.990 . S
N751 C748 1.314 . S
N751 C749 1.279 . S
C752 C749 1.358 . S
C752 C753 1.356 . S
C752 H789 0.930 . S
C753 C750 1.348 . S
C753 C752 1.356 . S
H754 C748 0.930 . S
H755 C749 0.930 . S
C756 N757 1.314 . S
C756 C758 1.353 . S
C756 H762 0.930 . S
N757 Li707 1.990 . S
N757 C756 1.314 . S
N757 C760 1.279 . S
C758 C756 1.353 . S
C758 C761 1.348 . S
C758 H790 0.929 . S
C759 C760 1.358 . S
C759 C761 1.356 . S
C759 H791 0.930 . S
C760 N757 1.279 . S
C760 C759 1.358 . S
C760 H763 0.930 . S
C761 C758 1.348 . S
C761 C759 1.356 . S
H762 C756 0.930 . S
H763 C760 0.930 . S
O764 Li704 1.956 . S
O764 Li705 1.970 . S
O764 Li706 1.961 . S
O764 C708 1.325 . S
O765 Li704 1.970 . S
O765 Li705 1.956 . S
O765 Li707 1.961 . S
O765 C714 1.325 . S
O766 Li704 1.961 . S
O766 Li706 1.956 . S
O766 Li707 1.970 . S
O766 C736 1.325 . S
O767 Li705 1.961 . S
O767 Li706 1.970 . S
O767 Li707 1.956 . S
O767 C742 1.325 . S
H768 C710 0.929 . S
H769 C711 0.930 . S
H770 C712 0.930 . S
H771 C713 0.930 . S
H772 C715 0.930 . S
H773 C717 0.929 . S
H774 C718 0.930 . S
H775 C719 0.930 . S
H776 C722 0.930 . S
H777 C725 0.929 . S
H778 C730 0.929 . S
H779 C731 0.930 . S
H780 C738 0.929 . S
H781 C739 0.930 . S
H782 C740 0.930 . S
H783 C741 0.930 . S
H784 C743 0.929 . S
H785 C744 0.930 . S
H786 C745 0.930 . S
H787 C746 0.930 . S
H788 C750 0.929 . S
H789 C752 0.930 . S
H790 C758 0.929 . S
H791 C759 0.930 . S
Li792 N809 1.990 . S
Li792 O852 1.956 . S
Li792 O853 1.970 . S
Li792 O854 1.961 . S
Li793 N817 1.990 . S
Li793 O852 1.970 . S
Li793 O853 1.956 . S
Li793 O855 1.961 . S
Li794 N839 1.990 . S
Li794 O852 1.961 . S
Li794 O854 1.956 . S
Li794 O855 1.970 . S
Li795 N845 1.990 . S
Li795 O853 1.961 . S
Li795 O854 1.970 . S
Li795 O855 1.956 . S
C796 C798 1.348 . S
C796 C799 1.356 . S
C796 O852 1.325 . S
N797 C800 1.314 . S
N797 C801 1.279 . S
C798 C796 1.348 . S
C798 C800 1.353 . S
C798 H856 0.929 . S
C799 C796 1.356 . S
C799 C801 1.358 . S
C799 H857 0.930 . S
C800 N797 1.314 . S
C800 C798 1.353 . S
C800 H858 0.930 . S
C801 N797 1.279 . S
C801 C799 1.358 . S
C801 H859 0.930 . S
C802 C805 1.348 . S
C802 C806 1.356 . S
C802 O853 1.325 . S
C803 N804 1.279 . S
C803 C806 1.358 . S
C803 H860 0.930 . S
N804 C803 1.279 . S
N804 C807 1.314 . S
C805 C802 1.348 . S
C805 C807 1.353 . S
C805 H861 0.929 . S
C806 C802 1.356 . S
C806 C803 1.358 . S
C806 H862 0.930 . S
C807 N804 1.314 . S
C807 C805 1.353 . S
C807 H863 0.930 . S
C808 N809 1.314 . S
C808 C813 1.353 . S
C808 H814 0.930 . S
N809 Li792 1.990 . S
N809 C808 1.314 . S
N809 C811 1.279 . S
C810 C811 1.358 . S
C810 C812 1.356 . S
C810 H864 0.930 . S
C811 N809 1.279 . S
C811 C810 1.358 . S
C811 H815 0.930 . S
C812 C810 1.356 . S
C812 C813 1.348 . S
C813 C808 1.353 . S
C813 C812 1.348 . S
C813 H865 0.929 . S
H814 C808 0.930 . S
H815 C811 0.930 . S
C816 N817 1.314 . S
C816 C818 1.353 . S
C816 H822 0.930 . S
N817 Li793 1.990 . S
N817 C816 1.314 . S
N817 C820 1.279 . S
C818 C816 1.353 . S
C818 C821 1.348 . S
C818 H866 0.929 . S
C819 C820 1.358 . S
C819 C821 1.356 . S
C819 H867 0.930 . S
C820 N817 1.279 . S
C820 C819 1.358 . S
C820 H823 0.930 . S
C821 C818 1.348 . S
C821 C819 1.356 . S
H822 C816 0.930 . S
H823 C820 0.930 . S
C824 C826 1.348 . S
C824 C827 1.356 . S
C824 O854 1.325 . S
N825 C828 1.314 . S
N825 C829 1.279 . S
C826 C824 1.348 . S
C826 C828 1.353 . S
C826 H868 0.929 . S
C827 C824 1.356 . S
C827 C829 1.358 . S
C827 H869 0.930 . S
C828 N825 1.314 . S
C828 C826 1.353 . S
C828 H870 0.930 . S
C829 N825 1.279 . S
C829 C827 1.358 . S
C829 H871 0.930 . S
C830 C831 1.348 . S
C830 C832 1.356 . S
C830 O855 1.325 . S
C831 C830 1.348 . S
C831 C833 1.353 . S
C831 H872 0.929 . S
C832 C830 1.356 . S
C832 C834 1.358 . S
C832 H873 0.930 . S
C833 C831 1.353 . S
C833 N835 1.314 . S
C833 H874 0.930 . S
C834 C832 1.358 . S
C834 N835 1.279 . S
C834 H875 0.930 . S
N835 C833 1.314 . S
N835 C834 1.279 . S
C836 C838 1.353 . S
C836 N839 1.314 . S
C836 H842 0.930 . S
C837 N839 1.279 . S
C837 C840 1.358 . S
C837 H843 0.930 . S
C838 C836 1.353 . S
C838 C841 1.348 . S
C838 H876 0.929 . S
N839 Li794 1.990 . S
N839 C836 1.314 . S
N839 C837 1.279 . S
C840 C837 1.358 . S
C840 C841 1.356 . S
C840 H877 0.930 . S
C841 C838 1.348 . S
C841 C840 1.356 . S
H842 C836 0.930 . S
H843 C837 0.930 . S
C844 N845 1.314 . S
C844 C846 1.353 . S
C844 H850 0.930 . S
N845 Li795 1.990 . S
N845 C844 1.314 . S
N845 C848 1.279 . S
C846 C844 1.353 . S
C846 C849 1.348 . S
C846 H878 0.929 . S
C847 C848 1.358 . S
C847 C849 1.356 . S
C847 H879 0.930 . S
C848 N845 1.279 . S
C848 C847 1.358 . S
C848 H851 0.930 . S
C849 C846 1.348 . S
C849 C847 1.356 . S
H850 C844 0.930 . S
H851 C848 0.930 . S
O852 Li792 1.956 . S
O852 Li793 1.970 . S
O852 Li794 1.961 . S
O852 C796 1.325 . S
O853 Li792 1.970 . S
O853 Li793 1.956 . S
O853 Li795 1.961 . S
O853 C802 1.325 . S
O854 Li792 1.961 . S
O854 Li794 1.956 . S
O854 Li795 1.970 . S
O854 C824 1.325 . S
O855 Li793 1.961 . S
O855 Li794 1.970 . S
O855 Li795 1.956 . S
O855 C830 1.325 . S
H856 C798 0.929 . S
H857 C799 0.930 . S
H858 C800 0.930 . S
H859 C801 0.930 . S
H860 C803 0.930 . S
H861 C805 0.929 . S
H862 C806 0.930 . S
H863 C807 0.930 . S
H864 C810 0.930 . S
H865 C813 0.929 . S
H866 C818 0.929 . S
H867 C819 0.930 . S
H868 C826 0.929 . S
H869 C827 0.930 . S
H870 C828 0.930 . S
H871 C829 0.930 . S
H872 C831 0.929 . S
H873 C832 0.930 . S
H874 C833 0.930 . S
H875 C834 0.930 . S
H876 C838 0.929 . S
H877 C840 0.930 . S
H878 C846 0.929 . S
H879 C847 0.930 . S
Li880 N897 1.990 . S
Li880 O940 1.956 . S
Li880 O941 1.970 . S
Li880 O942 1.961 . S
Li881 N905 1.990 . S
Li881 O940 1.970 . S
Li881 O941 1.956 . S
Li881 O943 1.961 . S
Li882 N927 1.990 . S
Li882 O940 1.961 . S
Li882 O942 1.956 . S
Li882 O943 1.970 . S
Li883 N933 1.990 . S
Li883 O941 1.961 . S
Li883 O942 1.970 . S
Li883 O943 1.956 . S
C884 C886 1.348 . S
C884 C887 1.356 . S
C884 O940 1.325 . S
N885 C888 1.314 . S
N885 C889 1.279 . S
C886 C884 1.348 . S
C886 C888 1.353 . S
C886 H944 0.929 . S
C887 C884 1.356 . S
C887 C889 1.358 . S
C887 H945 0.930 . S
C888 N885 1.314 . S
C888 C886 1.353 . S
C888 H946 0.930 . S
C889 N885 1.279 . S
C889 C887 1.358 . S
C889 H947 0.930 . S
C890 C893 1.348 . S
C890 C894 1.356 . S
C890 O941 1.325 . S
C891 N892 1.279 . S
C891 C894 1.358 . S
C891 H948 0.930 . S
N892 C891 1.279 . S
N892 C895 1.314 . S
C893 C890 1.348 . S
C893 C895 1.353 . S
C893 H949 0.929 . S
C894 C890 1.356 . S
C894 C891 1.358 . S
C894 H950 0.930 . S
C895 N892 1.314 . S
C895 C893 1.353 . S
C895 H951 0.930 . S
C896 N897 1.314 . S
C896 C901 1.353 . S
C896 H902 0.930 . S
N897 Li880 1.990 . S
N897 C896 1.314 . S
N897 C899 1.279 . S
C898 C899 1.358 . S
C898 C900 1.356 . S
C898 H952 0.930 . S
C899 N897 1.279 . S
C899 C898 1.358 . S
C899 H903 0.930 . S
C900 C898 1.356 . S
C900 C901 1.348 . S
C901 C896 1.353 . S
C901 C900 1.348 . S
C901 H953 0.929 . S
H902 C896 0.930 . S
H903 C899 0.930 . S
C904 N905 1.314 . S
C904 C906 1.353 . S
C904 H910 0.930 . S
N905 Li881 1.990 . S
N905 C904 1.314 . S
N905 C908 1.279 . S
C906 C904 1.353 . S
C906 C909 1.348 . S
C906 H954 0.929 . S
C907 C908 1.358 . S
C907 C909 1.356 . S
C907 H955 0.930 . S
C908 N905 1.279 . S
C908 C907 1.358 . S
C908 H911 0.930 . S
C909 C906 1.348 . S
C909 C907 1.356 . S
H910 C904 0.930 . S
H911 C908 0.930 . S
C912 C914 1.348 . S
C912 C915 1.356 . S
C912 O942 1.325 . S
N913 C916 1.314 . S
N913 C917 1.279 . S
C914 C912 1.348 . S
C914 C916 1.353 . S
C914 H956 0.929 . S
C915 C912 1.356 . S
C915 C917 1.358 . S
C915 H957 0.930 . S
C916 N913 1.314 . S
C916 C914 1.353 . S
C916 H958 0.930 . S
C917 N913 1.279 . S
C917 C915 1.358 . S
C917 H959 0.930 . S
C918 C919 1.348 . S
C918 C920 1.356 . S
C918 O943 1.325 . S
C919 C918 1.348 . S
C919 C921 1.353 . S
C919 H960 0.929 . S
C920 C918 1.356 . S
C920 C922 1.358 . S
C920 H961 0.930 . S
C921 C919 1.353 . S
C921 N923 1.314 . S
C921 H962 0.930 . S
C922 C920 1.358 . S
C922 N923 1.279 . S
C922 H963 0.930 . S
N923 C921 1.314 . S
N923 C922 1.279 . S
C924 C926 1.353 . S
C924 N927 1.314 . S
C924 H930 0.930 . S
C925 N927 1.279 . S
C925 C928 1.358 . S
C925 H931 0.930 . S
C926 C924 1.353 . S
C926 C929 1.348 . S
C926 H964 0.929 . S
N927 Li882 1.990 . S
N927 C924 1.314 . S
N927 C925 1.279 . S
C928 C925 1.358 . S
C928 C929 1.356 . S
C928 H965 0.930 . S
C929 C926 1.348 . S
C929 C928 1.356 . S
H930 C924 0.930 . S
H931 C925 0.930 . S
C932 N933 1.314 . S
C932 C934 1.353 . S
C932 H938 0.930 . S
N933 Li883 1.990 . S
N933 C932 1.314 . S
N933 C936 1.279 . S
C934 C932 1.353 . S
C934 C937 1.348 . S
C934 H966 0.929 . S
C935 C936 1.358 . S
C935 C937 1.356 . S
C935 H967 0.930 . S
C936 N933 1.279 . S
C936 C935 1.358 . S
C936 H939 0.930 . S
C937 C934 1.348 . S
C937 C935 1.356 . S
H938 C932 0.930 . S
H939 C936 0.930 . S
O940 Li880 1.956 . S
O940 Li881 1.970 . S
O940 Li882 1.961 . S
O940 C884 1.325 . S
O941 Li880 1.970 . S
O941 Li881 1.956 . S
O941 Li883 1.961 . S
O941 C890 1.325 . S
O942 Li880 1.961 . S
O942 Li882 1.956 . S
O942 Li883 1.970 . S
O942 C912 1.325 . S
O943 Li881 1.961 . S
O943 Li882 1.970 . S
O943 Li883 1.956 . S
O943 C918 1.325 . S
H944 C886 0.929 . S
H945 C887 0.930 . S
H946 C888 0.930 . S
H947 C889 0.930 . S
H948 C891 0.930 . S
H949 C893 0.929 . S
H950 C894 0.930 . S
H951 C895 0.930 . S
H952 C898 0.930 . S
H953 C901 0.929 . S
H954 C906 0.929 . S
H955 C907 0.930 . S
H956 C914 0.929 . S
H957 C915 0.930 . S
H958 C916 0.930 . S
H959 C917 0.930 . S
H960 C919 0.929 . S
H961 C920 0.930 . S
H962 C921 0.930 . S
H963 C922 0.930 . S
H964 C926 0.929 . S
H965 C928 0.930 . S
H966 C934 0.929 . S
H967 C935 0.930 . S
Li968 N985 1.990 . S
Li968 O1028 1.956 . S
Li968 O1029 1.970 . S
Li968 O1030 1.961 . S
Li969 N993 1.990 . S
Li969 O1028 1.970 . S
Li969 O1029 1.956 . S
Li969 O1031 1.961 . S
Li970 N1015 1.990 . S
Li970 O1028 1.961 . S
Li970 O1030 1.956 . S
Li970 O1031 1.970 . S
Li971 N1021 1.990 . S
Li971 O1029 1.961 . S
Li971 O1030 1.970 . S
Li971 O1031 1.956 . S
C972 C974 1.348 . S
C972 C975 1.356 . S
C972 O1028 1.325 . S
N973 C976 1.314 . S
N973 C977 1.279 . S
C974 C972 1.348 . S
C974 C976 1.353 . S
C974 H1032 0.929 . S
C975 C972 1.356 . S
C975 C977 1.358 . S
C975 H1033 0.930 . S
C976 N973 1.314 . S
C976 C974 1.353 . S
C976 H1034 0.930 . S
C977 N973 1.279 . S
C977 C975 1.358 . S
C977 H1035 0.930 . S
C978 C981 1.348 . S
C978 C982 1.356 . S
C978 O1029 1.325 . S
C979 N980 1.279 . S
C979 C982 1.358 . S
C979 H1036 0.930 . S
N980 C979 1.279 . S
N980 C983 1.314 . S
C981 C978 1.348 . S
C981 C983 1.353 . S
C981 H1037 0.929 . S
C982 C978 1.356 . S
C982 C979 1.358 . S
C982 H1038 0.930 . S
C983 N980 1.314 . S
C983 C981 1.353 . S
C983 H1039 0.930 . S
C984 N985 1.314 . S
C984 C989 1.353 . S
C984 H990 0.930 . S
N985 Li968 1.990 . S
N985 C984 1.314 . S
N985 C987 1.279 . S
C986 C987 1.358 . S
C986 C988 1.356 . S
C986 H1040 0.930 . S
C987 N985 1.279 . S
C987 C986 1.358 . S
C987 H991 0.930 . S
C988 C986 1.356 . S
C988 C989 1.348 . S
C989 C984 1.353 . S
C989 C988 1.348 . S
C989 H1041 0.929 . S
H990 C984 0.930 . S
H991 C987 0.930 . S
C992 N993 1.314 . S
C992 C994 1.353 . S
C992 H998 0.930 . S
N993 Li969 1.990 . S
N993 C992 1.314 . S
N993 C996 1.279 . S
C994 C992 1.353 . S
C994 C997 1.348 . S
C994 H1042 0.929 . S
C995 C996 1.358 . S
C995 C997 1.356 . S
C995 H1043 0.930 . S
C996 N993 1.279 . S
C996 C995 1.358 . S
C996 H999 0.930 . S
C997 C994 1.348 . S
C997 C995 1.356 . S
H998 C992 0.930 . S
H999 C996 0.930 . S
C1000 C1002 1.348 . S
C1000 C1003 1.356 . S
C1000 O1030 1.325 . S
N1001 C1004 1.314 . S
N1001 C1005 1.279 . S
C1002 C1000 1.348 . S
C1002 C1004 1.353 . S
C1002 H1044 0.929 . S
C1003 C1000 1.356 . S
C1003 C1005 1.358 . S
C1003 H1045 0.930 . S
C1004 N1001 1.314 . S
C1004 C1002 1.353 . S
C1004 H1046 0.930 . S
C1005 N1001 1.279 . S
C1005 C1003 1.358 . S
C1005 H1047 0.930 . S
C1006 C1007 1.348 . S
C1006 C1008 1.356 . S
C1006 O1031 1.325 . S
C1007 C1006 1.348 . S
C1007 C1009 1.353 . S
C1007 H1048 0.929 . S
C1008 C1006 1.356 . S
C1008 C1010 1.358 . S
C1008 H1049 0.930 . S
C1009 C1007 1.353 . S
C1009 N1011 1.314 . S
C1009 H1050 0.930 . S
C1010 C1008 1.358 . S
C1010 N1011 1.279 . S
C1010 H1051 0.930 . S
N1011 C1009 1.314 . S
N1011 C1010 1.279 . S
C1012 C1014 1.353 . S
C1012 N1015 1.314 . S
C1012 H1018 0.930 . S
C1013 N1015 1.279 . S
C1013 C1016 1.358 . S
C1013 H1019 0.930 . S
C1014 C1012 1.353 . S
C1014 C1017 1.348 . S
C1014 H1052 0.929 . S
N1015 Li970 1.990 . S
N1015 C1012 1.314 . S
N1015 C1013 1.279 . S
C1016 C1013 1.358 . S
C1016 C1017 1.356 . S
C1016 H1053 0.930 . S
C1017 C1014 1.348 . S
C1017 C1016 1.356 . S
H1018 C1012 0.930 . S
H1019 C1013 0.930 . S
C1020 N1021 1.314 . S
C1020 C1022 1.353 . S
C1020 H1026 0.930 . S
N1021 Li971 1.990 . S
N1021 C1020 1.314 . S
N1021 C1024 1.279 . S
C1022 C1020 1.353 . S
C1022 C1025 1.348 . S
C1022 H1054 0.929 . S
C1023 C1024 1.358 . S
C1023 C1025 1.356 . S
C1023 H1055 0.930 . S
C1024 N1021 1.279 . S
C1024 C1023 1.358 . S
C1024 H1027 0.930 . S
C1025 C1022 1.348 . S
C1025 C1023 1.356 . S
H1026 C1020 0.930 . S
H1027 C1024 0.930 . S
O1028 Li968 1.956 . S
O1028 Li969 1.970 . S
O1028 Li970 1.961 . S
O1028 C972 1.325 . S
O1029 Li968 1.970 . S
O1029 Li969 1.956 . S
O1029 Li971 1.961 . S
O1029 C978 1.325 . S
O1030 Li968 1.961 . S
O1030 Li970 1.956 . S
O1030 Li971 1.970 . S
O1030 C1000 1.325 . S
O1031 Li969 1.961 . S
O1031 Li970 1.970 . S
O1031 Li971 1.956 . S
O1031 C1006 1.325 . S
H1032 C974 0.929 . S
H1033 C975 0.930 . S
H1034 C976 0.930 . S
H1035 C977 0.930 . S
H1036 C979 0.930 . S
H1037 C981 0.929 . S
H1038 C982 0.930 . S
H1039 C983 0.930 . S
H1040 C986 0.930 . S
H1041 C989 0.929 . S
H1042 C994 0.929 . S
H1043 C995 0.930 . S
H1044 C1002 0.929 . S
H1045 C1003 0.930 . S
H1046 C1004 0.930 . S
H1047 C1005 0.930 . S
H1048 C1007 0.929 . S
H1049 C1008 0.930 . S
H1050 C1009 0.930 . S
H1051 C1010 0.930 . S
H1052 C1014 0.929 . S
H1053 C1016 0.930 . S
H1054 C1022 0.929 . S
H1055 C1023 0.930 . S
H1056 C1068 0.930 . S
H1057 C1070 0.930 . S
H1058 C1071 0.930 . S
H1059 C1075 0.959 . S
H1060 C1075 0.959 . S
H1061 C1075 0.961 . S
H1062 C1076 0.960 1_554 S
H1063 C1076 0.953 . S
H1064 C1076 0.959 1_654 S
H1065 C1079 0.929 . S
H1066 C1080 0.931 . S
H1067 C1082 0.930 . S
C1068 H1056 0.930 . S
C1068 C1069 1.399 . S
C1068 C1073 1.399 . S
C1069 C1068 1.399 . S
C1069 C1070 1.376 . S
C1070 H1057 0.930 . S
C1070 C1069 1.376 . S
C1070 C1071 1.388 1_455 S
C1071 H1058 0.930 . S
C1071 C1070 1.388 1_655 S
C1071 C1072 1.390 . S
C1072 C1071 1.390 . S
C1072 C1073 1.394 1_655 S
C1072 C1078 1.465 1_554 S
C1073 C1068 1.399 . S
C1073 C1072 1.394 1_455 S
C1073 C1074 1.516 1_554 S
C1074 C1073 1.516 1_556 S
C1074 C1075 1.502 . S
C1074 C1076 1.561 . S
C1074 C1077 1.526 1_455 S
C1075 H1059 0.959 . S
C1075 H1060 0.959 . S
C1075 H1061 0.961 . S
C1075 C1074 1.502 . S
C1076 H1062 0.960 1_556 S
C1076 H1063 0.953 . S
C1076 H1064 0.959 1_456 S
C1076 C1074 1.561 . S
C1077 C1074 1.526 1_655 S
C1077 C1078 1.396 . S
C1077 C1082 1.390 . S
C1078 C1072 1.465 1_556 S
C1078 C1077 1.396 . S
C1078 C1079 1.399 . S
C1079 H1065 0.929 . S
C1079 C1078 1.399 . S
C1079 C1080 1.385 . S
C1080 H1066 0.931 . S
C1080 C1079 1.385 . S
C1080 C1081 1.389 . S
C1081 C1080 1.389 . S
C1081 C1082 1.387 . S
C1082 H1067 0.930 . S
C1082 C1077 1.390 . S
C1082 C1081 1.387 . S
H1083 C1095 0.930 . S
H1084 C1097 0.930 . S
H1085 C1098 0.930 . S
H1086 C1102 0.959 . S
H1087 C1102 0.959 1_545 S
H1088 C1102 0.961 . S
H1089 C1103 0.960 . S
H1090 C1103 0.961 . S
H1091 C1103 0.959 . S
H1092 C1106 0.929 . S
H1093 C1107 0.931 . S
H1094 C1109 0.930 . S
C1095 H1083 0.930 . S
C1095 C1096 1.399 . S
C1095 C1100 1.399 . S
C1096 C1095 1.399 . S
C1096 C1097 1.376 . S
C1097 H1084 0.930 . S
C1097 C1096 1.376 . S
C1097 C1098 1.388 . S
C1098 H1085 0.930 . S
C1098 C1097 1.388 . S
C1098 C1099 1.390 . S
C1099 C1098 1.390 . S
C1099 C1100 1.394 . S
C1099 C1105 1.465 1_565 S
C1100 C1095 1.399 . S
C1100 C1099 1.394 . S
C1100 C1101 1.516 1_565 S
C1101 C1100 1.516 1_545 S
C1101 C1102 1.502 1_545 S
C1101 C1103 1.561 . S
C1101 C1104 1.526 . S
C1102 H1086 0.959 . S
C1102 H1087 0.959 1_565 S
C1102 H1088 0.961 . S
C1102 C1101 1.502 1_565 S
C1103 H1089 0.960 . S
C1103 H1090 0.961 . S
C1103 H1091 0.959 . S
C1103 C1101 1.561 . S
C1104 C1101 1.526 . S
C1104 C1105 1.396 . S
C1104 C1109 1.390 . S
C1105 C1099 1.465 1_545 S
C1105 C1104 1.396 . S
C1105 C1106 1.399 . S
C1106 H1092 0.929 . S
C1106 C1105 1.399 . S
C1106 C1107 1.385 . S
C1107 H1093 0.931 . S
C1107 C1106 1.385 . S
C1107 C1108 1.389 . S
C1108 C1107 1.389 . S
C1108 C1109 1.387 . S
C1109 H1094 0.930 . S
C1109 C1104 1.390 . S
C1109 C1108 1.387 . S
H1110 C1122 0.930 . S
H1111 C1124 0.930 . S
H1112 C1125 0.930 . S
H1113 C1129 0.959 . S
H1114 C1129 0.959 . S
H1115 C1129 0.961 . S
H1116 C1130 0.960 1_554 S
H1117 C1130 0.961 . S
H1118 C1130 0.959 1_554 S
H1119 C1133 0.929 . S
H1120 C1134 0.931 . S
H1121 C1136 0.930 . S
C1122 H1110 0.930 . S
C1122 C1123 1.399 . S
C1122 C1127 1.399 . S
C1123 C1122 1.399 . S
C1123 C1124 1.376 . S
C1124 H1111 0.930 . S
C1124 C1123 1.376 . S
C1124 C1125 1.388 . S
C1125 H1112 0.930 . S
C1125 C1124 1.388 . S
C1125 C1126 1.390 . S
C1126 C1125 1.390 . S
C1126 C1127 1.394 . S
C1126 C1132 1.465 1_554 S
C1127 C1122 1.399 . S
C1127 C1126 1.394 . S
C1127 C1128 1.516 1_554 S
C1128 C1127 1.516 1_556 S
C1128 C1129 1.502 . S
C1128 C1130 1.561 . S
C1128 C1131 1.526 . S
C1129 H1113 0.959 . S
C1129 H1114 0.959 . S
C1129 H1115 0.961 . S
C1129 C1128 1.502 . S
C1130 H1116 0.960 1_556 S
C1130 H1117 0.961 . S
C1130 H1118 0.959 1_556 S
C1130 C1128 1.561 . S
C1131 C1128 1.526 . S
C1131 C1132 1.396 . S
C1131 C1136 1.390 . S
C1132 C1126 1.465 1_556 S
C1132 C1131 1.396 . S
C1132 C1133 1.399 . S
C1133 H1119 0.929 . S
C1133 C1132 1.399 . S
C1133 C1134 1.385 . S
C1134 H1120 0.931 . S
C1134 C1133 1.385 . S
C1134 C1135 1.389 . S
C1135 C1134 1.389 . S
C1135 C1136 1.387 . S
C1136 H1121 0.930 . S
C1136 C1131 1.390 . S
C1136 C1135 1.387 . S
H1137 C1149 0.930 . S
H1138 C1151 0.930 . S
H1139 C1152 0.930 . S
H1140 C1156 0.959 . S
H1141 C1156 0.959 . S
H1142 C1156 0.961 . S
H1143 C1157 0.960 1_455 S
H1144 C1157 0.961 . S
H1145 C1157 0.959 1_455 S
H1146 C1160 0.929 . S
H1147 C1161 0.931 . S
H1148 C1163 0.930 . S
C1149 H1137 0.930 . S
C1149 C1150 1.399 . S
C1149 C1154 1.399 . S
C1150 C1149 1.399 . S
C1150 C1151 1.376 . S
C1151 H1138 0.930 . S
C1151 C1150 1.376 . S
C1151 C1152 1.388 . S
C1152 H1139 0.930 . S
C1152 C1151 1.388 . S
C1152 C1153 1.390 . S
C1153 C1152 1.390 . S
C1153 C1154 1.394 . S
C1153 C1159 1.500 . S
C1154 C1149 1.399 . S
C1154 C1153 1.394 . S
C1154 C1155 1.516 1_455 S
C1155 C1154 1.516 1_655 S
C1155 C1156 1.502 . S
C1155 C1157 1.561 . S
C1155 C1158 1.526 . S
C1156 H1140 0.959 . S
C1156 H1141 0.959 . S
C1156 H1142 0.961 . S
C1156 C1155 1.502 . S
C1157 H1143 0.960 1_655 S
C1157 H1144 0.961 . S
C1157 H1145 0.959 1_655 S
C1157 C1155 1.561 . S
C1158 C1155 1.526 . S
C1158 C1159 1.383 1_655 S
C1158 C1163 1.390 . S
C1159 C1153 1.500 . S
C1159 C1158 1.383 1_455 S
C1159 C1160 1.382 . S
C1160 H1146 0.929 . S
C1160 C1159 1.382 . S
C1160 C1161 1.385 1_455 S
C1161 H1147 0.931 . S
C1161 C1160 1.385 1_655 S
C1161 C1162 1.389 . S
C1162 C1161 1.389 . S
C1162 C1163 1.387 . S
C1163 H1148 0.930 . S
C1163 C1158 1.390 . S
C1163 C1162 1.387 . S
H1164 C1176 0.919 1_565 S
H1165 C1178 0.930 . S
H1166 C1179 0.930 1_554 S
H1167 C1183 0.959 . S
H1168 C1183 0.959 . S
H1169 C1183 0.961 . S
H1170 C1184 0.960 . S
H1171 C1184 0.961 . S
H1172 C1184 0.959 . S
H1173 C1187 0.929 . S
H1174 C1188 0.931 . S
H1175 C1190 0.930 . S
C1176 H1164 0.919 1_545 S
C1176 C1177 1.399 . S
C1176 C1181 1.412 . S
C1177 C1176 1.399 . S
C1177 C1178 1.376 . S
C1178 H1165 0.930 . S
C1178 C1177 1.376 . S
C1178 C1179 1.388 . S
C1179 H1166 0.930 1_556 S
C1179 C1178 1.388 . S
C1179 C1180 1.390 . S
C1180 C1179 1.390 . S
C1180 C1181 1.407 . S
C1180 C1186 1.465 1_556 S
C1181 C1176 1.412 . S
C1181 C1180 1.407 . S
C1181 C1182 1.491 1_545 S
C1182 C1181 1.491 1_565 S
C1182 C1183 1.502 . S
C1182 C1184 1.561 . S
C1182 C1185 1.526 1_556 S
C1183 H1167 0.959 . S
C1183 H1168 0.959 . S
C1183 H1169 0.961 . S
C1183 C1182 1.502 . S
C1184 H1170 0.960 . S
C1184 H1171 0.961 . S
C1184 H1172 0.959 . S
C1184 C1182 1.561 . S
C1185 C1182 1.526 1_554 S
C1185 C1186 1.396 1_565 S
C1185 C1190 1.390 . S
C1186 C1180 1.465 1_554 S
C1186 C1185 1.396 1_545 S
C1186 C1187 1.399 . S
C1187 H1173 0.929 . S
C1187 C1186 1.399 . S
C1187 C1188 1.385 1_545 S
C1188 H1174 0.931 . S
C1188 C1187 1.385 1_565 S
C1188 C1189 1.389 . S
C1189 C1188 1.389 . S
C1189 C1190 1.387 . S
C1190 H1175 0.930 . S
C1190 C1185 1.390 . S
C1190 C1189 1.387 . S
H1191 C1203 0.930 . S
H1192 C1205 0.930 . S
H1193 C1206 0.930 . S
H1194 C1210 0.959 . S
H1195 C1210 0.959 . S
H1196 C1210 0.961 . S
H1197 C1211 0.960 . S
H1198 C1211 0.961 . S
H1199 C1211 0.959 . S
H1200 C1214 0.929 . S
H1201 C1215 0.931 . S
H1202 C1217 0.930 . S
C1203 H1191 0.930 . S
C1203 C1204 1.399 . S
C1203 C1208 1.399 . S
C1204 C1203 1.399 . S
C1204 C1205 1.376 . S
C1205 H1192 0.930 . S
C1205 C1204 1.376 . S
C1205 C1206 1.388 . S
C1206 H1193 0.930 . S
C1206 C1205 1.388 . S
C1206 C1207 1.390 . S
C1207 C1206 1.390 . S
C1207 C1208 1.394 . S
C1207 C1213 1.465 . S
C1208 C1203 1.399 . S
C1208 C1207 1.394 . S
C1208 C1209 1.516 . S
C1209 C1208 1.516 . S
C1209 C1210 1.502 . S
C1209 C1211 1.561 . S
C1209 C1212 1.526 . S
C1210 H1194 0.959 . S
C1210 H1195 0.959 . S
C1210 H1196 0.961 . S
C1210 C1209 1.502 . S
C1211 H1197 0.960 . S
C1211 H1198 0.961 . S
C1211 H1199 0.959 . S
C1211 C1209 1.561 . S
C1212 C1209 1.526 . S
C1212 C1213 1.396 . S
C1212 C1217 1.390 . S
C1213 C1207 1.465 . S
C1213 C1212 1.396 . S
C1213 C1214 1.399 . S
C1214 H1200 0.929 . S
C1214 C1213 1.399 . S
C1214 C1215 1.385 . S
C1215 H1201 0.931 . S
C1215 C1214 1.385 . S
C1215 C1216 1.389 . S
C1216 C1215 1.389 . S
C1216 C1217 1.387 . S
C1217 H1202 0.930 . S
C1217 C1212 1.390 . S
C1217 C1216 1.387 . S
H1218 C1230 0.930 . S
H1219 C1232 0.930 . S
H1220 C1233 0.930 . S
H1221 C1237 0.959 . S
H1222 C1237 0.959 . S
H1223 C1237 0.961 . S
H1224 C1238 0.960 1_556 S
H1225 C1238 0.961 . S
H1226 C1238 0.959 1_456 S
H1227 C1241 0.929 . S
H1228 C1242 0.931 . S
H1229 C1244 0.930 . S
C1230 H1218 0.930 . S
C1230 C1231 1.399 . S
C1230 C1235 1.399 . S
C1231 C1230 1.399 . S
C1231 C1232 1.376 . S
C1232 H1219 0.930 . S
C1232 C1231 1.376 . S
C1232 C1233 1.388 1_655 S
C1233 H1220 0.930 . S
C1233 C1232 1.388 1_455 S
C1233 C1234 1.390 . S
C1234 C1233 1.390 . S
C1234 C1235 1.394 1_455 S
C1234 C1240 1.465 1_556 S
C1235 C1230 1.399 . S
C1235 C1234 1.394 1_655 S
C1235 C1236 1.516 1_556 S
C1236 C1235 1.516 1_554 S
C1236 C1237 1.502 . S
C1236 C1238 1.561 . S
C1236 C1239 1.526 1_655 S
C1237 H1221 0.959 . S
C1237 H1222 0.959 . S
C1237 H1223 0.961 . S
C1237 C1236 1.502 . S
C1238 H1224 0.960 1_554 S
C1238 H1225 0.961 . S
C1238 H1226 0.959 1_654 S
C1238 C1236 1.561 . S
C1239 C1236 1.526 1_455 S
C1239 C1240 1.396 . S
C1239 C1244 1.390 . S
C1240 C1234 1.465 1_554 S
C1240 C1239 1.396 . S
C1240 C1241 1.399 . S
C1241 H1227 0.929 . S
C1241 C1240 1.399 . S
C1241 C1242 1.385 . S
C1242 H1228 0.931 . S
C1242 C1241 1.385 . S
C1242 C1243 1.389 . S
C1243 C1242 1.389 . S
C1243 C1244 1.387 . S
C1244 H1229 0.930 . S
C1244 C1239 1.390 . S
C1244 C1243 1.387 . S
H1245 C1257 0.930 . S
H1246 C1259 0.930 . S
H1247 C1260 0.930 . S
H1248 C1264 0.959 . S
H1249 C1264 0.959 . S
H1250 C1264 0.961 . S
H1251 C1265 0.960 . S
H1252 C1265 0.961 . S
H1253 C1265 0.959 . S
H1254 C1268 0.929 . S
H1255 C1269 0.931 . S
H1256 C1271 0.930 . S
C1257 H1245 0.930 . S
C1257 C1258 1.399 . S
C1257 C1262 1.399 . S
C1258 C1257 1.399 . S
C1258 C1259 1.376 . S
C1259 H1246 0.930 . S
C1259 C1258 1.376 . S
C1259 C1260 1.388 1_565 S
C1260 H1247 0.930 . S
C1260 C1259 1.388 1_545 S
C1260 C1261 1.389 . S
C1261 C1260 1.389 . S
C1261 C1262 1.381 1_545 S
C1261 C1267 1.479 . S
C1262 C1257 1.399 . S
C1262 C1261 1.381 1_565 S
C1262 C1263 1.516 . S
C1263 C1262 1.516 . S
C1263 C1264 1.502 . S
C1263 C1265 1.561 . S
C1263 C1266 1.526 1_565 S
C1264 H1248 0.959 . S
C1264 H1249 0.959 . S
C1264 H1250 0.961 . S
C1264 C1263 1.502 . S
C1265 H1251 0.960 . S
C1265 H1252 0.961 . S
C1265 H1253 0.959 . S
C1265 C1263 1.561 . S
C1266 C1263 1.526 1_545 S
C1266 C1267 1.396 . S
C1266 C1271 1.390 . S
C1267 C1261 1.479 . S
C1267 C1266 1.396 . S
C1267 C1268 1.399 . S
C1268 H1254 0.929 . S
C1268 C1267 1.399 . S
C1268 C1269 1.385 . S
C1269 H1255 0.931 . S
C1269 C1268 1.385 . S
C1269 C1270 1.389 . S
C1270 C1269 1.389 . S
C1270 C1271 1.387 . S
C1271 H1256 0.930 . S
C1271 C1266 1.390 . S
C1271 C1270 1.387 . S
H1272 C1284 0.930 . S
H1273 C1286 0.930 . S
H1274 C1287 0.930 . S
H1275 C1291 0.959 . S
H1276 C1291 0.959 1_554 S
H1277 C1291 0.961 . S
H1278 C1292 0.960 . S
H1279 C1292 0.961 . S
H1280 C1292 0.959 . S
H1281 C1295 0.929 . S
H1282 C1296 0.931 . S
H1283 C1298 0.930 . S
C1284 H1272 0.930 . S
C1284 C1285 1.399 . S
C1284 C1289 1.399 . S
C1285 C1284 1.399 . S
C1285 C1286 1.376 . S
C1286 H1273 0.930 . S
C1286 C1285 1.376 . S
C1286 C1287 1.388 . S
C1287 H1274 0.930 . S
C1287 C1286 1.388 . S
C1287 C1288 1.390 . S
C1288 C1287 1.390 . S
C1288 C1289 1.394 . S
C1288 C1294 1.465 1_556 S
C1289 C1284 1.399 . S
C1289 C1288 1.394 . S
C1289 C1290 1.516 1_556 S
C1290 C1289 1.516 1_554 S
C1290 C1291 1.502 1_554 S
C1290 C1292 1.561 . S
C1290 C1293 1.526 . S
C1291 H1275 0.959 . S
C1291 H1276 0.959 1_556 S
C1291 H1277 0.961 . S
C1291 C1290 1.502 1_556 S
C1292 H1278 0.960 . S
C1292 H1279 0.961 . S
C1292 H1280 0.959 . S
C1292 C1290 1.561 . S
C1293 C1290 1.526 . S
C1293 C1294 1.396 . S
C1293 C1298 1.390 . S
C1294 C1288 1.465 1_554 S
C1294 C1293 1.396 . S
C1294 C1295 1.399 . S
C1295 H1281 0.929 . S
C1295 C1294 1.399 . S
C1295 C1296 1.385 . S
C1296 H1282 0.931 . S
C1296 C1295 1.385 . S
C1296 C1297 1.389 . S
C1297 C1296 1.389 . S
C1297 C1298 1.387 . S
C1298 H1283 0.930 . S
C1298 C1293 1.390 . S
C1298 C1297 1.387 . S
H1299 C1311 0.930 . S
H1300 C1313 0.930 . S
H1301 C1314 0.930 . S
H1302 C1318 0.957 1_655 S
H1303 C1318 0.960 . S
H1304 C1318 0.959 1_655 S
H1305 C1319 0.960 . S
H1306 C1319 0.961 . S
H1307 C1319 0.959 . S
H1308 C1322 0.929 . S
H1309 C1323 0.931 . S
H1310 C1325 0.930 . S
C1311 H1299 0.930 . S
C1311 C1312 1.399 . S
C1311 C1316 1.399 . S
C1312 C1311 1.399 . S
C1312 C1313 1.376 . S
C1313 H1300 0.930 . S
C1313 C1312 1.376 . S
C1313 C1314 1.388 . S
C1314 H1301 0.930 . S
C1314 C1313 1.388 . S
C1314 C1315 1.390 . S
C1315 C1314 1.390 . S
C1315 C1316 1.394 . S
C1315 C1321 1.465 1_655 S
C1316 C1311 1.399 . S
C1316 C1315 1.394 . S
C1316 C1317 1.516 1_655 S
C1317 C1316 1.516 1_455 S
C1317 C1318 1.505 . S
C1317 C1319 1.561 . S
C1317 C1320 1.526 . S
C1318 H1302 0.957 1_455 S
C1318 H1303 0.960 . S
C1318 H1304 0.959 1_455 S
C1318 C1317 1.505 . S
C1319 H1305 0.960 . S
C1319 H1306 0.961 . S
C1319 H1307 0.959 . S
C1319 C1317 1.561 . S
C1320 C1317 1.526 . S
C1320 C1321 1.396 . S
C1320 C1325 1.390 . S
C1321 C1315 1.465 1_455 S
C1321 C1320 1.396 . S
C1321 C1322 1.399 . S
C1322 H1308 0.929 . S
C1322 C1321 1.399 . S
C1322 C1323 1.385 . S
C1323 H1309 0.931 . S
C1323 C1322 1.385 . S
C1323 C1324 1.389 . S
C1324 C1323 1.389 . S
C1324 C1325 1.387 . S
C1325 H1310 0.930 . S
C1325 C1320 1.390 . S
C1325 C1324 1.387 . S
H1326 C1338 0.931 . S
H1327 C1340 0.930 . S
H1328 C1341 0.915 1_554 S
H1329 C1345 0.959 . S
H1330 C1345 0.959 . S
H1331 C1345 0.961 . S
H1332 C1346 0.960 . S
H1333 C1346 0.961 . S
H1334 C1346 0.959 . S
H1335 C1349 0.929 . S
H1336 C1350 0.931 . S
H1337 C1352 0.930 . S
C1338 H1326 0.931 . S
C1338 C1339 1.399 . S
C1338 C1343 1.417 . S
C1339 C1338 1.399 . S
C1339 C1340 1.376 . S
C1340 H1327 0.930 . S
C1340 C1339 1.376 . S
C1340 C1341 1.388 . S
C1341 H1328 0.915 1_556 S
C1341 C1340 1.388 . S
C1341 C1342 1.390 . S
C1342 C1341 1.390 . S
C1342 C1343 1.409 . S
C1342 C1348 1.465 1_556 S
C1343 C1338 1.417 . S
C1343 C1342 1.409 . S
C1343 C1344 1.484 1_545 S
C1344 C1343 1.484 1_565 S
C1344 C1345 1.502 . S
C1344 C1346 1.561 . S
C1344 C1347 1.526 1_556 S
C1345 H1329 0.959 . S
C1345 H1330 0.959 . S
C1345 H1331 0.961 . S
C1345 C1344 1.502 . S
C1346 H1332 0.960 . S
C1346 H1333 0.961 . S
C1346 H1334 0.959 . S
C1346 C1344 1.561 . S
C1347 C1344 1.526 1_554 S
C1347 C1348 1.396 1_565 S
C1347 C1352 1.390 . S
C1348 C1342 1.465 1_554 S
C1348 C1347 1.396 1_545 S
C1348 C1349 1.399 . S
C1349 H1335 0.929 . S
C1349 C1348 1.399 . S
C1349 C1350 1.385 1_545 S
C1350 H1336 0.931 . S
C1350 C1349 1.385 1_565 S
C1350 C1351 1.389 . S
C1351 C1350 1.389 . S
C1351 C1352 1.387 . S
C1352 H1337 0.930 . S
C1352 C1347 1.390 . S
C1352 C1351 1.387 . S
H1353 C1365 0.930 . S
H1354 C1367 0.930 . S
H1355 C1368 0.930 . S
H1356 C1372 0.959 . S
H1357 C1372 0.959 . S
H1358 C1372 0.961 . S
H1359 C1373 0.960 . S
H1360 C1373 0.961 . S
H1361 C1373 0.959 . S
H1362 C1376 0.929 . S
H1363 C1377 0.931 . S
H1364 C1379 0.930 . S
C1365 H1353 0.930 . S
C1365 C1366 1.399 . S
C1365 C1370 1.399 . S
C1366 C1365 1.399 . S
C1366 C1367 1.376 . S
C1367 H1354 0.930 . S
C1367 C1366 1.376 . S
C1367 C1368 1.388 . S
C1368 H1355 0.930 . S
C1368 C1367 1.388 . S
C1368 C1369 1.390 . S
C1369 C1368 1.390 . S
C1369 C1370 1.394 . S
C1369 C1375 1.465 . S
C1370 C1365 1.399 . S
C1370 C1369 1.394 . S
C1370 C1371 1.516 . S
C1371 C1370 1.516 . S
C1371 C1372 1.502 . S
C1371 C1373 1.561 . S
C1371 C1374 1.526 . S
C1372 H1356 0.959 . S
C1372 H1357 0.959 . S
C1372 H1358 0.961 . S
C1372 C1371 1.502 . S
C1373 H1359 0.960 . S
C1373 H1360 0.961 . S
C1373 H1361 0.959 . S
C1373 C1371 1.561 . S
C1374 C1371 1.526 . S
C1374 C1375 1.396 . S
C1374 C1379 1.390 . S
C1375 C1369 1.465 . S
C1375 C1374 1.396 . S
C1375 C1376 1.399 . S
C1376 H1362 0.929 . S
C1376 C1375 1.399 . S
C1376 C1377 1.385 . S
C1377 H1363 0.931 . S
C1377 C1376 1.385 . S
C1377 C1378 1.389 . S
C1378 C1377 1.389 . S
C1378 C1379 1.387 . S
C1379 H1364 0.930 . S
C1379 C1374 1.390 . S
C1379 C1378 1.387 . S
H1380 C1392 0.930 . S
H1381 C1394 0.930 . S
H1382 C1395 0.930 . S
H1383 C1399 0.959 . S
H1384 C1399 0.959 . S
H1385 C1399 0.961 . S
H1386 C1400 0.960 . S
H1387 C1400 0.961 . S
H1388 C1400 0.959 . S
H1389 C1403 0.929 . S
H1390 C1404 0.931 . S
H1391 C1406 0.930 . S
C1392 H1380 0.930 . S
C1392 C1393 1.399 . S
C1392 C1397 1.399 . S
C1393 C1392 1.399 . S
C1393 C1394 1.376 . S
C1394 H1381 0.930 . S
C1394 C1393 1.376 . S
C1394 C1395 1.388 . S
C1395 H1382 0.930 . S
C1395 C1394 1.388 . S
C1395 C1396 1.390 . S
C1396 C1395 1.390 . S
C1396 C1397 1.394 . S
C1396 C1402 1.465 . S
C1397 C1392 1.399 . S
C1397 C1396 1.394 . S
C1397 C1398 1.516 . S
C1398 C1397 1.516 . S
C1398 C1399 1.502 . S
C1398 C1400 1.561 . S
C1398 C1401 1.526 . S
C1399 H1383 0.959 . S
C1399 H1384 0.959 . S
C1399 H1385 0.961 . S
C1399 C1398 1.502 . S
C1400 H1386 0.960 . S
C1400 H1387 0.961 . S
C1400 H1388 0.959 . S
C1400 C1398 1.561 . S
C1401 C1398 1.526 . S
C1401 C1402 1.396 . S
C1401 C1406 1.390 . S
C1402 C1396 1.465 . S
C1402 C1401 1.396 . S
C1402 C1403 1.399 . S
C1403 H1389 0.929 . S
C1403 C1402 1.399 . S
C1403 C1404 1.385 . S
C1404 H1390 0.931 . S
C1404 C1403 1.385 . S
C1404 C1405 1.389 . S
C1405 C1404 1.389 . S
C1405 C1406 1.387 . S
C1406 H1391 0.930 . S
C1406 C1401 1.390 . S
C1406 C1405 1.387 . S
H1407 C1419 0.930 . S
H1408 C1421 0.930 . S
H1409 C1422 0.930 . S
H1410 C1426 0.959 . S
H1411 C1426 0.959 . S
H1412 C1426 0.961 . S
H1413 C1427 0.960 . S
H1414 C1427 0.961 . S
H1415 C1427 0.959 . S
H1416 C1430 0.929 . S
H1417 C1431 0.931 . S
H1418 C1433 0.930 . S
C1419 H1407 0.930 . S
C1419 C1420 1.399 . S
C1419 C1424 1.399 . S
C1420 C1419 1.399 . S
C1420 C1421 1.376 . S
C1421 H1408 0.930 . S
C1421 C1420 1.376 . S
C1421 C1422 1.388 . S
C1422 H1409 0.930 . S
C1422 C1421 1.388 . S
C1422 C1423 1.390 . S
C1423 C1422 1.390 . S
C1423 C1424 1.394 . S
C1423 C1429 1.465 . S
C1424 C1419 1.399 . S
C1424 C1423 1.394 . S
C1424 C1425 1.516 . S
C1425 C1424 1.516 . S
C1425 C1426 1.502 . S
C1425 C1427 1.561 . S
C1425 C1428 1.526 . S
C1426 H1410 0.959 . S
C1426 H1411 0.959 . S
C1426 H1412 0.961 . S
C1426 C1425 1.502 . S
C1427 H1413 0.960 . S
C1427 H1414 0.961 . S
C1427 H1415 0.959 . S
C1427 C1425 1.561 . S
C1428 C1425 1.526 . S
C1428 C1429 1.396 . S
C1428 C1433 1.390 . S
C1429 C1423 1.465 . S
C1429 C1428 1.396 . S
C1429 C1430 1.399 . S
C1430 H1416 0.929 . S
C1430 C1429 1.399 . S
C1430 C1431 1.385 . S
C1431 H1417 0.931 . S
C1431 C1430 1.385 . S
C1431 C1432 1.389 . S
C1432 C1431 1.389 . S
C1432 C1433 1.387 . S
C1433 H1418 0.930 . S
C1433 C1428 1.390 . S
C1433 C1432 1.387 . S
H1434 C1446 0.930 . S
H1435 C1448 0.930 . S
H1436 C1449 0.930 . S
H1437 C1453 0.959 . S
H1438 C1453 0.959 . S
H1439 C1453 0.961 . S
H1440 C1454 0.960 . S
H1441 C1454 0.961 . S
H1442 C1454 0.959 . S
H1443 C1457 0.929 . S
H1444 C1458 0.931 . S
H1445 C1460 0.930 . S
C1446 H1434 0.930 . S
C1446 C1447 1.399 . S
C1446 C1451 1.399 . S
C1447 C1446 1.399 . S
C1447 C1448 1.376 . S
C1448 H1435 0.930 . S
C1448 C1447 1.376 . S
C1448 C1449 1.388 . S
C1449 H1436 0.930 . S
C1449 C1448 1.388 . S
C1449 C1450 1.390 . S
C1450 C1449 1.390 . S
C1450 C1451 1.394 . S
C1450 C1456 1.465 . S
C1451 C1446 1.399 . S
C1451 C1450 1.394 . S
C1451 C1452 1.516 . S
C1452 C1451 1.516 . S
C1452 C1453 1.502 . S
C1452 C1454 1.561 . S
C1452 C1455 1.526 . S
C1453 H1437 0.959 . S
C1453 H1438 0.959 . S
C1453 H1439 0.961 . S
C1453 C1452 1.502 . S
C1454 H1440 0.960 . S
C1454 H1441 0.961 . S
C1454 H1442 0.959 . S
C1454 C1452 1.561 . S
C1455 C1452 1.526 . S
C1455 C1456 1.396 . S
C1455 C1460 1.390 . S
C1456 C1450 1.465 . S
C1456 C1455 1.396 . S
C1456 C1457 1.399 . S
C1457 H1443 0.929 . S
C1457 C1456 1.399 . S
C1457 C1458 1.385 . S
C1458 H1444 0.931 . S
C1458 C1457 1.385 . S
C1458 C1459 1.389 . S
C1459 C1458 1.389 . S
C1459 C1460 1.387 . S
C1460 H1445 0.930 . S
C1460 C1455 1.390 . S
C1460 C1459 1.387 . S
H1461 C1473 0.930 . S
H1462 C1475 0.930 . S
H1463 C1476 0.930 . S
H1464 C1480 0.959 . S
H1465 C1480 0.959 . S
H1466 C1480 0.961 . S
H1467 C1481 0.960 . S
H1468 C1481 0.961 . S
H1469 C1481 0.959 . S
H1470 C1484 0.929 . S
H1471 C1485 0.931 . S
H1472 C1487 0.930 . S
C1473 H1461 0.930 . S
C1473 C1474 1.399 . S
C1473 C1478 1.399 . S
C1474 C1473 1.399 . S
C1474 C1475 1.376 . S
C1475 H1462 0.930 . S
C1475 C1474 1.376 . S
C1475 C1476 1.388 . S
C1476 H1463 0.930 . S
C1476 C1475 1.388 . S
C1476 C1477 1.390 . S
C1477 C1476 1.390 . S
C1477 C1478 1.394 . S
C1477 C1483 1.465 . S
C1478 C1473 1.399 . S
C1478 C1477 1.394 . S
C1478 C1479 1.516 . S
C1479 C1478 1.516 . S
C1479 C1480 1.502 . S
C1479 C1481 1.561 . S
C1479 C1482 1.526 . S
C1480 H1464 0.959 . S
C1480 H1465 0.959 . S
C1480 H1466 0.961 . S
C1480 C1479 1.502 . S
C1481 H1467 0.960 . S
C1481 H1468 0.961 . S
C1481 H1469 0.959 . S
C1481 C1479 1.561 . S
C1482 C1479 1.526 . S
C1482 C1483 1.396 . S
C1482 C1487 1.390 . S
C1483 C1477 1.465 . S
C1483 C1482 1.396 . S
C1483 C1484 1.399 . S
C1484 H1470 0.929 . S
C1484 C1483 1.399 . S
C1484 C1485 1.385 . S
C1485 H1471 0.931 . S
C1485 C1484 1.385 . S
C1485 C1486 1.389 . S
C1486 C1485 1.389 . S
C1486 C1487 1.387 . S
C1487 H1472 0.930 . S
C1487 C1482 1.390 . S
C1487 C1486 1.387 . S
H1488 C1500 0.930 . S
H1489 C1502 0.930 . S
H1490 C1503 0.930 . S
H1491 C1507 0.959 . S
H1492 C1507 0.959 . S
H1493 C1507 0.961 . S
H1494 C1508 0.960 . S
H1495 C1508 0.961 . S
H1496 C1508 0.959 . S
H1497 C1511 0.929 . S
H1498 C1512 0.931 . S
H1499 C1514 0.930 . S
C1500 H1488 0.930 . S
C1500 C1501 1.399 . S
C1500 C1505 1.399 . S
C1501 C1500 1.399 . S
C1501 C1502 1.376 . S
C1502 H1489 0.930 . S
C1502 C1501 1.376 . S
C1502 C1503 1.388 . S
C1503 H1490 0.930 . S
C1503 C1502 1.388 . S
C1503 C1504 1.390 . S
C1504 C1503 1.390 . S
C1504 C1505 1.394 . S
C1504 C1510 1.465 . S
C1505 C1500 1.399 . S
C1505 C1504 1.394 . S
C1505 C1506 1.516 . S
C1506 C1505 1.516 . S
C1506 C1507 1.502 . S
C1506 C1508 1.561 . S
C1506 C1509 1.526 . S
C1507 H1491 0.959 . S
C1507 H1492 0.959 . S
C1507 H1493 0.961 . S
C1507 C1506 1.502 . S
C1508 H1494 0.960 . S
C1508 H1495 0.961 . S
C1508 H1496 0.959 . S
C1508 C1506 1.561 . S
C1509 C1506 1.526 . S
C1509 C1510 1.396 . S
C1509 C1514 1.390 . S
C1510 C1504 1.465 . S
C1510 C1509 1.396 . S
C1510 C1511 1.399 . S
C1511 H1497 0.929 . S
C1511 C1510 1.399 . S
C1511 C1512 1.385 . S
C1512 H1498 0.931 . S
C1512 C1511 1.385 . S
C1512 C1513 1.389 . S
C1513 C1512 1.389 . S
C1513 C1514 1.387 . S
C1514 H1499 0.930 . S
C1514 C1509 1.390 . S
C1514 C1513 1.387 . S
H1515 C1527 0.930 . S
H1516 C1529 0.930 . S
H1517 C1530 0.930 . S
H1518 C1534 0.959 . S
H1519 C1534 0.959 . S
H1520 C1534 0.961 . S
H1521 C1535 0.960 . S
H1522 C1535 0.961 . S
H1523 C1535 0.959 . S
H1524 C1538 0.929 . S
H1525 C1539 0.931 . S
H1526 C1541 0.930 . S
C1527 H1515 0.930 . S
C1527 C1528 1.399 . S
C1527 C1532 1.399 . S
C1528 C1527 1.399 . S
C1528 C1529 1.376 . S
C1529 H1516 0.930 . S
C1529 C1528 1.376 . S
C1529 C1530 1.388 . S
C1530 H1517 0.930 . S
C1530 C1529 1.388 . S
C1530 C1531 1.390 . S
C1531 C1530 1.390 . S
C1531 C1532 1.394 . S
C1531 C1537 1.465 . S
C1532 C1527 1.399 . S
C1532 C1531 1.394 . S
C1532 C1533 1.516 . S
C1533 C1532 1.516 . S
C1533 C1534 1.502 . S
C1533 C1535 1.561 . S
C1533 C1536 1.526 . S
C1534 H1518 0.959 . S
C1534 H1519 0.959 . S
C1534 H1520 0.961 . S
C1534 C1533 1.502 . S
C1535 H1521 0.960 . S
C1535 H1522 0.961 . S
C1535 H1523 0.959 . S
C1535 C1533 1.561 . S
C1536 C1533 1.526 . S
C1536 C1537 1.396 . S
C1536 C1541 1.390 . S
C1537 C1531 1.465 . S
C1537 C1536 1.396 . S
C1537 C1538 1.399 . S
C1538 H1524 0.929 . S
C1538 C1537 1.399 . S
C1538 C1539 1.385 . S
C1539 H1525 0.931 . S
C1539 C1538 1.385 . S
C1539 C1540 1.389 . S
C1540 C1539 1.389 . S
C1540 C1541 1.387 . S
C1541 H1526 0.930 . S
C1541 C1536 1.390 . S
C1541 C1540 1.387 . S
H1542 C1554 0.930 . S
H1543 C1556 0.930 . S
H1544 C1557 0.930 . S
H1545 C1561 0.959 . S
H1546 C1561 0.959 . S
H1547 C1561 0.961 . S
H1548 C1562 0.960 . S
H1549 C1562 0.961 . S
H1550 C1562 0.959 . S
H1551 C1565 0.929 . S
H1552 C1566 0.931 . S
H1553 C1568 0.930 . S
C1554 H1542 0.930 . S
C1554 C1555 1.399 . S
C1554 C1559 1.399 . S
C1555 C1554 1.399 . S
C1555 C1556 1.376 . S
C1556 H1543 0.930 . S
C1556 C1555 1.376 . S
C1556 C1557 1.388 . S
C1557 H1544 0.930 . S
C1557 C1556 1.388 . S
C1557 C1558 1.390 . S
C1558 C1557 1.390 . S
C1558 C1559 1.394 . S
C1558 C1564 1.465 . S
C1559 C1554 1.399 . S
C1559 C1558 1.394 . S
C1559 C1560 1.516 . S
C1560 C1559 1.516 . S
C1560 C1561 1.502 . S
C1560 C1562 1.561 . S
C1560 C1563 1.526 . S
C1561 H1545 0.959 . S
C1561 H1546 0.959 . S
C1561 H1547 0.961 . S
C1561 C1560 1.502 . S
C1562 H1548 0.960 . S
C1562 H1549 0.961 . S
C1562 H1550 0.959 . S
C1562 C1560 1.561 . S
C1563 C1560 1.526 . S
C1563 C1564 1.396 . S
C1563 C1568 1.390 . S
C1564 C1558 1.465 . S
C1564 C1563 1.396 . S
C1564 C1565 1.399 . S
C1565 H1551 0.929 . S
C1565 C1564 1.399 . S
C1565 C1566 1.385 . S
C1566 H1552 0.931 . S
C1566 C1565 1.385 . S
C1566 C1567 1.389 . S
C1567 C1566 1.389 . S
C1567 C1568 1.387 . S
C1568 H1553 0.930 . S
C1568 C1563 1.390 . S
C1568 C1567 1.387 . S
H1569 C1581 0.930 . S
H1570 C1583 0.930 . S
H1571 C1584 0.930 . S
H1572 C1588 0.959 . S
H1573 C1588 0.959 . S
H1574 C1588 0.961 . S
H1575 C1589 0.960 . S
H1576 C1589 0.961 . S
H1577 C1589 0.959 . S
H1578 C1592 0.929 . S
H1579 C1593 0.931 . S
H1580 C1595 0.930 . S
C1581 H1569 0.930 . S
C1581 C1582 1.399 . S
C1581 C1586 1.399 . S
C1582 C1581 1.399 . S
C1582 C1583 1.376 . S
C1583 H1570 0.930 . S
C1583 C1582 1.376 . S
C1583 C1584 1.388 . S
C1584 H1571 0.930 . S
C1584 C1583 1.388 . S
C1584 C1585 1.390 . S
C1585 C1584 1.390 . S
C1585 C1586 1.394 . S
C1585 C1591 1.465 . S
C1586 C1581 1.399 . S
C1586 C1585 1.394 . S
C1586 C1587 1.516 . S
C1587 C1586 1.516 . S
C1587 C1588 1.502 . S
C1587 C1589 1.561 . S
C1587 C1590 1.526 . S
C1588 H1572 0.959 . S
C1588 H1573 0.959 . S
C1588 H1574 0.961 . S
C1588 C1587 1.502 . S
C1589 H1575 0.960 . S
C1589 H1576 0.961 . S
C1589 H1577 0.959 . S
C1589 C1587 1.561 . S
C1590 C1587 1.526 . S
C1590 C1591 1.396 . S
C1590 C1595 1.390 . S
C1591 C1585 1.465 . S
C1591 C1590 1.396 . S
C1591 C1592 1.399 . S
C1592 H1578 0.929 . S
C1592 C1591 1.399 . S
C1592 C1593 1.385 . S
C1593 H1579 0.931 . S
C1593 C1592 1.385 . S
C1593 C1594 1.389 . S
C1594 C1593 1.389 . S
C1594 C1595 1.387 . S
C1595 H1580 0.930 . S
C1595 C1590 1.390 . S
C1595 C1594 1.387 . S
H1596 C1608 0.930 . S
H1597 C1610 0.930 . S
H1598 C1611 0.930 . S
H1599 C1615 0.959 . S
H1600 C1615 0.959 . S
H1601 C1615 0.961 . S
H1602 C1616 0.960 . S
H1603 C1616 0.961 . S
H1604 C1616 0.959 . S
H1605 C1619 0.929 . S
H1606 C1620 0.931 . S
H1607 C1622 0.930 . S
C1608 H1596 0.930 . S
C1608 C1609 1.399 . S
C1608 C1613 1.399 . S
C1609 C1608 1.399 . S
C1609 C1610 1.376 . S
C1610 H1597 0.930 . S
C1610 C1609 1.376 . S
C1610 C1611 1.388 . S
C1611 H1598 0.930 . S
C1611 C1610 1.388 . S
C1611 C1612 1.390 . S
C1612 C1611 1.390 . S
C1612 C1613 1.394 . S
C1612 C1618 1.465 . S
C1613 C1608 1.399 . S
C1613 C1612 1.394 . S
C1613 C1614 1.516 . S
C1614 C1613 1.516 . S
C1614 C1615 1.502 . S
C1614 C1616 1.561 . S
C1614 C1617 1.526 . S
C1615 H1599 0.959 . S
C1615 H1600 0.959 . S
C1615 H1601 0.961 . S
C1615 C1614 1.502 . S
C1616 H1602 0.960 . S
C1616 H1603 0.961 . S
C1616 H1604 0.959 . S
C1616 C1614 1.561 . S
C1617 C1614 1.526 . S
C1617 C1618 1.396 . S
C1617 C1622 1.390 . S
C1618 C1612 1.465 . S
C1618 C1617 1.396 . S
C1618 C1619 1.399 . S
C1619 H1605 0.929 . S
C1619 C1618 1.399 . S
C1619 C1620 1.385 . S
C1620 H1606 0.931 . S
C1620 C1619 1.385 . S
C1620 C1621 1.389 . S
C1621 C1620 1.389 . S
C1621 C1622 1.387 . S
C1622 H1607 0.930 . S
C1622 C1617 1.390 . S
C1622 C1621 1.387 . S
H1623 C1635 0.930 . S
H1624 C1637 0.930 . S
H1625 C1638 0.930 . S
H1626 C1642 0.959 . S
H1627 C1642 0.959 . S
H1628 C1642 0.961 . S
H1629 C1643 0.960 . S
H1630 C1643 0.961 . S
H1631 C1643 0.959 . S
H1632 C1646 0.929 . S
H1633 C1647 0.931 . S
H1634 C1649 0.930 . S
C1635 H1623 0.930 . S
C1635 C1636 1.399 . S
C1635 C1640 1.399 . S
C1636 C1635 1.399 . S
C1636 C1637 1.376 . S
C1637 H1624 0.930 . S
C1637 C1636 1.376 . S
C1637 C1638 1.388 . S
C1638 H1625 0.930 . S
C1638 C1637 1.388 . S
C1638 C1639 1.390 . S
C1639 C1638 1.390 . S
C1639 C1640 1.394 . S
C1639 C1645 1.465 . S
C1640 C1635 1.399 . S
C1640 C1639 1.394 . S
C1640 C1641 1.516 . S
C1641 C1640 1.516 . S
C1641 C1642 1.502 . S
C1641 C1643 1.561 . S
C1641 C1644 1.526 . S
C1642 H1626 0.959 . S
C1642 H1627 0.959 . S
C1642 H1628 0.961 . S
C1642 C1641 1.502 . S
C1643 H1629 0.960 . S
C1643 H1630 0.961 . S
C1643 H1631 0.959 . S
C1643 C1641 1.561 . S
C1644 C1641 1.526 . S
C1644 C1645 1.396 . S
C1644 C1649 1.390 . S
C1645 C1639 1.465 . S
C1645 C1644 1.396 . S
C1645 C1646 1.399 . S
C1646 H1632 0.929 . S
C1646 C1645 1.399 . S
C1646 C1647 1.385 . S
C1647 H1633 0.931 . S
C1647 C1646 1.385 . S
C1647 C1648 1.389 . S
C1648 C1647 1.389 . S
C1648 C1649 1.387 . S
C1649 H1634 0.930 . S
C1649 C1644 1.390 . S
C1649 C1648 1.387 . S
H1650 C1662 0.930 . S
H1651 C1664 0.930 . S
H1652 C1665 0.930 . S
H1653 C1669 0.959 . S
H1654 C1669 0.959 . S
H1655 C1669 0.961 . S
H1656 C1670 0.960 . S
H1657 C1670 0.961 . S
H1658 C1670 0.959 . S
H1659 C1673 0.929 . S
H1660 C1674 0.931 . S
H1661 C1676 0.930 . S
C1662 H1650 0.930 . S
C1662 C1663 1.399 . S
C1662 C1667 1.399 . S
C1663 C1662 1.399 . S
C1663 C1664 1.376 . S
C1664 H1651 0.930 . S
C1664 C1663 1.376 . S
C1664 C1665 1.388 . S
C1665 H1652 0.930 . S
C1665 C1664 1.388 . S
C1665 C1666 1.390 . S
C1666 C1665 1.390 . S
C1666 C1667 1.394 . S
C1666 C1672 1.465 . S
C1667 C1662 1.399 . S
C1667 C1666 1.394 . S
C1667 C1668 1.516 . S
C1668 C1667 1.516 . S
C1668 C1669 1.502 . S
C1668 C1670 1.561 . S
C1668 C1671 1.526 . S
C1669 H1653 0.959 . S
C1669 H1654 0.959 . S
C1669 H1655 0.961 . S
C1669 C1668 1.502 . S
C1670 H1656 0.960 . S
C1670 H1657 0.961 . S
C1670 H1658 0.959 . S
C1670 C1668 1.561 . S
C1671 C1668 1.526 . S
C1671 C1672 1.396 . S
C1671 C1676 1.390 . S
C1672 C1666 1.465 . S
C1672 C1671 1.396 . S
C1672 C1673 1.399 . S
C1673 H1659 0.929 . S
C1673 C1672 1.399 . S
C1673 C1674 1.385 . S
C1674 H1660 0.931 . S
C1674 C1673 1.385 . S
C1674 C1675 1.389 . S
C1675 C1674 1.389 . S
C1675 C1676 1.387 . S
C1676 H1661 0.930 . S
C1676 C1671 1.390 . S
C1676 C1675 1.387 . S
H1677 C1689 0.930 . S
H1678 C1691 0.930 . S
H1679 C1692 0.930 . S
H1680 C1696 0.959 . S
H1681 C1696 0.959 . S
H1682 C1696 0.961 . S
H1683 C1697 0.960 . S
H1684 C1697 0.961 . S
H1685 C1697 0.959 . S
H1686 C1700 0.929 . S
H1687 C1701 0.931 . S
H1688 C1703 0.930 . S
C1689 H1677 0.930 . S
C1689 C1690 1.399 . S
C1689 C1694 1.399 . S
C1690 C1689 1.399 . S
C1690 C1691 1.376 . S
C1691 H1678 0.930 . S
C1691 C1690 1.376 . S
C1691 C1692 1.388 . S
C1692 H1679 0.930 . S
C1692 C1691 1.388 . S
C1692 C1693 1.390 . S
C1693 C1692 1.390 . S
C1693 C1694 1.394 . S
C1693 C1699 1.465 . S
C1694 C1689 1.399 . S
C1694 C1693 1.394 . S
C1694 C1695 1.516 . S
C1695 C1694 1.516 . S
C1695 C1696 1.502 . S
C1695 C1697 1.561 . S
C1695 C1698 1.526 . S
C1696 H1680 0.959 . S
C1696 H1681 0.959 . S
C1696 H1682 0.961 . S
C1696 C1695 1.502 . S
C1697 H1683 0.960 . S
C1697 H1684 0.961 . S
C1697 H1685 0.959 . S
C1697 C1695 1.561 . S
C1698 C1695 1.526 . S
C1698 C1699 1.396 . S
C1698 C1703 1.390 . S
C1699 C1693 1.465 . S
C1699 C1698 1.396 . S
C1699 C1700 1.399 . S
C1700 H1686 0.929 . S
C1700 C1699 1.399 . S
C1700 C1701 1.385 . S
C1701 H1687 0.931 . S
C1701 C1700 1.385 . S
C1701 C1702 1.389 . S
C1702 C1701 1.389 . S
C1702 C1703 1.387 . S
C1703 H1688 0.930 . S
C1703 C1698 1.390 . S
C1703 C1702 1.387 . S
C1069 C57 1.438 . S
C1081 C997 1.434 . S
C1096 C548 1.430 . S
C1108 C145 1.430 . S
C1123 C225 1.438 . S
C1135 C636 1.434 . S
C1150 C733 1.452 . S
C1162 C321 1.457 . S
C1177 C821 1.434 . S
C1189 C401 1.439 . S
C1204 C900 1.429 . S
C1216 C497 1.432 . S
C1231 C293 1.451 . S
C1243 C761 1.456 . S
C1258 C372 1.430 . S
C1270 C849 1.435 . S
C1285 C469 1.430 . S
C1297 C929 1.429 . S
C1312 C1025 1.463 . S
C1324 C29 1.463 . S
C1339 C117 1.459 . S
C1351 C577 1.455 . S
C1366 C196 1.462 . S
C1378 C665 1.463 . S
C1393 C753 1.460 . S
C1405 C20 1.455 . S
C1420 C841 1.443 . S
C1432 C108 1.439 . S
C1447 C205 1.438 . S
C1459 C937 1.444 . S
C1474 C284 1.436 . S
C1486 C1017 1.438 . S
C1501 C381 1.439 . S
C1513 C585 1.437 . S
C1528 C673 1.460 . S
C1540 C460 1.457 . S
C1555 C49 1.025 . S
C1567 C909 1.026 . S
C1582 C988 1.027 . S
C1594 C137 1.026 . S
C1609 C233 1.025 . S
C1621 C557 1.024 . S
C1636 C313 1.035 . S
C1648 C645 1.034 . S
C1663 C409 1.032 . S
C1675 C724 1.034 . S
C1690 C489 1.029 . S
C1702 C812 1.031 . S
