# Generated by pormake.
# Topology unb, (4)-cn, num edge types: 1
# Building blocks:
#     Node 0, Type 0, BuildingBlock: GALJAG_clean_sbu_0, # of connection points: 4
#     Node 1, Type 0, BuildingBlock: GALJAG_clean_sbu_0, # of connection points: 4
#     Node 2, Type 0, BuildingBlock: GALJAG_clean_sbu_0, # of connection points: 4
#     Node 3, Type 0, BuildingBlock: GALJAG_clean_sbu_0, # of connection points: 4
#     Node 4, Type 0, BuildingBlock: GALJAG_clean_sbu_0, # of connection points: 4
#     Node 5, Type 0, BuildingBlock: GALJAG_clean_sbu_0, # of connection points: 4
#     Node 6, Type 0, BuildingBlock: GALJAG_clean_sbu_0, # of connection points: 4
#     Node 7, Type 0, BuildingBlock: GALJAG_clean_sbu_0, # of connection points: 4
#     Node 8, Type 0, BuildingBlock: GALJAG_clean_sbu_0, # of connection points: 4
#     Node 9, Type 0, BuildingBlock: GALJAG_clean_sbu_0, # of connection points: 4
#     Node 10, Type 0, BuildingBlock: GALJAG_clean_sbu_0, # of connection points: 4
#     Node 11, Type 0, BuildingBlock: GALJAG_clean_sbu_0, # of connection points: 4
#     Node 12, Type 0, BuildingBlock: GALJAG_clean_sbu_0, # of connection points: 4
#     Node 13, Type 0, BuildingBlock: GALJAG_clean_sbu_0, # of connection points: 4
#     Node 14, Type 0, BuildingBlock: GALJAG_clean_sbu_0, # of connection points: 4
#     Node 15, Type 0, BuildingBlock: GALJAG_clean_sbu_0, # of connection points: 4
#     Node 16, Type 0, BuildingBlock: GALJAG_clean_sbu_0, # of connection points: 4
#     Node 17, Type 0, BuildingBlock: GALJAG_clean_sbu_0, # of connection points: 4
#     Edge 18, Type (0, 0), BuildingBlock: UVAHIK_clean_linker_0, # of connection points: 2
#     Edge 19, Type (0, 0), BuildingBlock: UVAHIK_clean_linker_0, # of connection points: 2
#     Edge 20, Type (0, 0), BuildingBlock: UVAHIK_clean_linker_0, # of connection points: 2
#     Edge 21, Type (0, 0), BuildingBlock: UVAHIK_clean_linker_0, # of connection points: 2
#     Edge 22, Type (0, 0), BuildingBlock: UVAHIK_clean_linker_0, # of connection points: 2
#     Edge 23, Type (0, 0), BuildingBlock: UVAHIK_clean_linker_0, # of connection points: 2
#     Edge 24, Type (0, 0), BuildingBlock: UVAHIK_clean_linker_0, # of connection points: 2
#     Edge 25, Type (0, 0), BuildingBlock: UVAHIK_clean_linker_0, # of connection points: 2
#     Edge 26, Type (0, 0), BuildingBlock: UVAHIK_clean_linker_0, # of connection points: 2
#     Edge 27, Type (0, 0), BuildingBlock: UVAHIK_clean_linker_0, # of connection points: 2
#     Edge 28, Type (0, 0), BuildingBlock: UVAHIK_clean_linker_0, # of connection points: 2
#     Edge 29, Type (0, 0), BuildingBlock: UVAHIK_clean_linker_0, # of connection points: 2
#     Edge 30, Type (0, 0), BuildingBlock: UVAHIK_clean_linker_0, # of connection points: 2
#     Edge 31, Type (0, 0), BuildingBlock: UVAHIK_clean_linker_0, # of connection points: 2
#     Edge 32, Type (0, 0), BuildingBlock: UVAHIK_clean_linker_0, # of connection points: 2
#     Edge 33, Type (0, 0), BuildingBlock: UVAHIK_clean_linker_0, # of connection points: 2
#     Edge 34, Type (0, 0), BuildingBlock: UVAHIK_clean_linker_0, # of connection points: 2
#     Edge 35, Type (0, 0), BuildingBlock: UVAHIK_clean_linker_0, # of connection points: 2
#     Edge 36, Type (0, 0), BuildingBlock: UVAHIK_clean_linker_0, # of connection points: 2
#     Edge 37, Type (0, 0), BuildingBlock: UVAHIK_clean_linker_0, # of connection points: 2
#     Edge 38, Type (0, 0), BuildingBlock: UVAHIK_clean_linker_0, # of connection points: 2
#     Edge 39, Type (0, 0), BuildingBlock: UVAHIK_clean_linker_0, # of connection points: 2
#     Edge 40, Type (0, 0), BuildingBlock: UVAHIK_clean_linker_0, # of connection points: 2
#     Edge 41, Type (0, 0), BuildingBlock: UVAHIK_clean_linker_0, # of connection points: 2
#     Edge 42, Type (0, 0), BuildingBlock: UVAHIK_clean_linker_0, # of connection points: 2
#     Edge 43, Type (0, 0), BuildingBlock: UVAHIK_clean_linker_0, # of connection points: 2
#     Edge 44, Type (0, 0), BuildingBlock: UVAHIK_clean_linker_0, # of connection points: 2
#     Edge 45, Type (0, 0), BuildingBlock: UVAHIK_clean_linker_0, # of connection points: 2
#     Edge 46, Type (0, 0), BuildingBlock: UVAHIK_clean_linker_0, # of connection points: 2
#     Edge 47, Type (0, 0), BuildingBlock: UVAHIK_clean_linker_0, # of connection points: 2
#     Edge 48, Type (0, 0), BuildingBlock: UVAHIK_clean_linker_0, # of connection points: 2
#     Edge 49, Type (0, 0), BuildingBlock: UVAHIK_clean_linker_0, # of connection points: 2
#     Edge 50, Type (0, 0), BuildingBlock: UVAHIK_clean_linker_0, # of connection points: 2
#     Edge 51, Type (0, 0), BuildingBlock: UVAHIK_clean_linker_0, # of connection points: 2
#     Edge 52, Type (0, 0), BuildingBlock: UVAHIK_clean_linker_0, # of connection points: 2
#     Edge 53, Type (0, 0), BuildingBlock: UVAHIK_clean_linker_0, # of connection points: 2
# Relax obj value: 0.185
# Max RMSD: 0.140
# Mean RMSD: 0.139
data_MOF--net-unb--node1-GALJAG_clean_sbu_0--edge1-UVAHIK_clean_linker_0
_symmetry_space_group_name_H-M    P1
_symmetry_Int_Tables_number       1
_symmetry_cell_setting            triclinic
loop_
_symmetry_equiv_pos_as_xyz
'x, y, z'
_cell_length_a     80.31161
_cell_length_b     80.286844
_cell_length_c     35.029219
_cell_angle_alpha  89.966845
_cell_angle_beta   90.030359
_cell_angle_gamma 120.02187
loop_
_atom_site_label
_atom_site_type_symbol
_atom_site_fract_x
_atom_site_fract_y
_atom_site_fract_z
_atom_type_partial_charge
In0 In 0.12455 0.26125 0.08021 0.0
O1 O 0.13435 0.28687 0.12022 0.0
O2 O 0.12358 0.25938 0.14554 0.0
C3 C 0.13494 0.28705 0.02299 0.0
C4 C 0.14433 0.24234 0.07467 0.0
C5 C 0.08766 0.23742 0.06007 0.0
O6 O 0.14549 0.28063 0.03473 0.0
O7 O 0.1194 0.28102 0.04109 0.0
O8 O 0.10174 0.23988 0.04003 0.0
O9 O 0.09213 0.2467 0.09108 0.0
C10 C 0.13051 0.2772 0.15054 0.0
O11 O 0.12631 0.23375 0.07849 0.0
O12 O 0.15242 0.26043 0.07539 0.0
In13 In 0.72067 0.86014 0.07367 0.0
O14 O 0.748 0.88916 0.06863 0.0
O15 O 0.72159 0.889 0.07502 0.0
C16 C 0.74035 0.84154 0.06138 0.0
C17 C 0.70337 0.8508 0.14284 0.0
C18 C 0.70096 0.85084 0.00737 0.0
O19 O 0.7484 0.85876 0.07268 0.0
O20 O 0.72235 0.83352 0.05798 0.0
O21 O 0.69491 0.8401 0.03639 0.0
O22 O 0.71667 0.86623 0.01209 0.0
C23 C 0.73955 0.89883 0.07006 0.0
O24 O 0.69493 0.85125 0.11289 0.0
O25 O 0.72064 0.85514 0.13807 0.0
In26 In 0.12407 0.85671 0.07238 0.0
O27 O 0.09354 0.85104 0.08193 0.0
O28 O 0.09714 0.82775 0.06381 0.0
C29 C 0.14125 0.89507 0.062 0.0
C30 C 0.13413 0.84853 0.14047 0.0
C31 C 0.13475 0.8497 0.00416 0.0
O32 O 0.12321 0.88439 0.06246 0.0
O33 O 0.15052 0.8865 0.06835 0.0
O34 O 0.14419 0.85154 0.03427 0.0
O35 O 0.11997 0.85115 0.00874 0.0
C36 C 0.08564 0.83361 0.07194 0.0
O37 O 0.1345 0.84048 0.10983 0.0
O38 O 0.12859 0.86063 0.13683 0.0
In39 In 0.25644 0.12553 0.90809 0.0
O40 O 0.28245 0.13474 0.86955 0.0
O41 O 0.25641 0.12928 0.84324 0.0
C42 C 0.27513 0.13479 0.97547 0.0
C43 C 0.23831 0.14582 0.91826 0.0
C44 C 0.23793 0.08678 0.91119 0.0
O45 O 0.28346 0.14243 0.94445 0.0
O46 O 0.25751 0.12254 0.97234 0.0
O47 O 0.22931 0.09603 0.90515 0.0
O48 O 0.25596 0.09704 0.91391 0.0
C49 C 0.2739 0.13426 0.83908 0.0
O50 O 0.22941 0.12784 0.91343 0.0
O51 O 0.25637 0.15369 0.91629 0.0
In52 In 0.85585 0.12822 0.91075 0.0
O53 O 0.83899 0.13749 0.87238 0.0
O54 O 0.85859 0.13074 0.84573 0.0
C55 C 0.85073 0.14182 0.97737 0.0
C56 C 0.83289 0.08983 0.91743 0.0
C57 C 0.89436 0.14471 0.91678 0.0
O58 O 0.8498 0.14874 0.94558 0.0
O59 O 0.85412 0.12813 0.97534 0.0
O60 O 0.88322 0.12676 0.91779 0.0
O61 O 0.88613 0.1544 0.91122 0.0
C62 C 0.84641 0.13614 0.84169 0.0
O63 O 0.85015 0.0975 0.90665 0.0
O64 O 0.82696 0.10148 0.92326 0.0
In65 In 0.85466 0.72581 0.91443 0.0
O66 O 0.88646 0.74899 0.91184 0.0
O67 O 0.87907 0.72263 0.9394 0.0
C68 C 0.83939 0.74905 0.91337 0.0
C69 C 0.84719 0.70811 0.84574 0.0
C70 C 0.83909 0.70678 0.97991 0.0
O71 O 0.85694 0.75516 0.92 0.0
O72 O 0.8297 0.73135 0.90568 0.0
O73 O 0.8403 0.6984 0.95039 0.0
O74 O 0.84557 0.72459 0.97614 0.0
C75 C 0.89215 0.73929 0.93036 0.0
O76 O 0.83755 0.70006 0.87529 0.0
O77 O 0.86063 0.72514 0.85072 0.0
In78 In 0.79305 0.59556 0.41185 0.0
O79 O 0.81088 0.62132 0.45057 0.0
O80 O 0.78977 0.59545 0.47667 0.0
C81 C 0.79925 0.61455 0.34526 0.0
C82 C 0.81469 0.57866 0.40585 0.0
C83 C 0.75451 0.57546 0.40407 0.0
O84 O 0.80019 0.62244 0.37699 0.0
O85 O 0.79545 0.59733 0.34739 0.0
O86 O 0.76472 0.56759 0.4037 0.0
O87 O 0.76366 0.59335 0.41006 0.0
C88 C 0.80275 0.61274 0.48102 0.0
O89 O 0.79752 0.56974 0.41751 0.0
O90 O 0.82112 0.59624 0.39879 0.0
In91 In 0.38868 0.19568 0.40733 0.0
O92 O 0.36272 0.18667 0.44598 0.0
O93 O 0.38875 0.19209 0.47224 0.0
C94 C 0.36991 0.18584 0.34007 0.0
C95 C 0.40716 0.23438 0.40213 0.0
C96 C 0.4071 0.1756 0.39841 0.0
O97 O 0.36168 0.17827 0.37121 0.0
O98 O 0.38747 0.19831 0.34303 0.0
O99 O 0.41582 0.19337 0.40563 0.0
O100 O 0.38903 0.16779 0.3974 0.0
C101 C 0.37129 0.18716 0.47644 0.0
O102 O 0.41586 0.22512 0.40705 0.0
O103 O 0.38907 0.22417 0.40166 0.0
In104 In 0.79081 0.19377 0.40819 0.0
O105 O 0.80744 0.18414 0.44637 0.0
O106 O 0.78693 0.18965 0.47281 0.0
C107 C 0.80507 0.18971 0.34157 0.0
C108 C 0.75296 0.1693 0.39671 0.0
C109 C 0.80685 0.23237 0.40667 0.0
O110 O 0.80572 0.18148 0.37182 0.0
O111 O 0.79726 0.19989 0.34509 0.0
O112 O 0.78908 0.22112 0.40186 0.0
O113 O 0.81637 0.22414 0.41394 0.0
C114 C 0.79935 0.18456 0.47687 0.0
O115 O 0.75913 0.18525 0.41337 0.0
O116 O 0.76578 0.16547 0.38711 0.0
In117 In 0.92783 0.46127 0.24673 0.0
O118 O 0.95463 0.47489 0.20913 0.0
O119 O 0.9276 0.45989 0.18142 0.0
C120 C 0.9498 0.47317 0.31043 0.0
C121 C 0.90599 0.47752 0.25938 0.0
C122 C 0.90689 0.42274 0.2527 0.0
O123 O 0.9432 0.45658 0.29665 0.0
O124 O 0.94598 0.48412 0.29129 0.0
O125 O 0.89931 0.43291 0.2455 0.0
O126 O 0.925 0.43197 0.25492 0.0
C127 C 0.94563 0.46945 0.17802 0.0
O128 O 0.90186 0.46127 0.27249 0.0
O129 O 0.92086 0.48538 0.23873 0.0
In130 In 0.52407 0.46379 0.24706 0.0
O131 O 0.49627 0.43497 0.2476 0.0
O132 O 0.52263 0.43474 0.2458 0.0
C133 C 0.56261 0.48315 0.25442 0.0
C134 C 0.51395 0.47327 0.18032 0.0
C135 C 0.51612 0.47176 0.31728 0.0
O136 O 0.55331 0.46556 0.24554 0.0
O137 O 0.55254 0.49108 0.258 0.0
O138 O 0.51696 0.45689 0.30968 0.0
O139 O 0.51897 0.48272 0.28915 0.0
C140 C 0.50451 0.42508 0.24784 0.0
O141 O 0.50496 0.47125 0.21103 0.0
O142 O 0.52805 0.47054 0.18324 0.0
In143 In 0.52108 0.05877 0.24925 0.0
O144 O 0.50662 0.03211 0.21138 0.0
O145 O 0.52293 0.05919 0.18416 0.0
C146 C 0.50736 0.041 0.31657 0.0
C147 C 0.55911 0.07265 0.2598 0.0
C148 C 0.5039 0.08021 0.25122 0.0
O149 O 0.50602 0.03178 0.2864 0.0
O150 O 0.51551 0.059 0.31256 0.0
O151 O 0.52185 0.08739 0.25454 0.0
O152 O 0.49471 0.0623 0.24529 0.0
C153 C 0.51265 0.04122 0.18045 0.0
O154 O 0.55264 0.08247 0.24438 0.0
O155 O 0.5465 0.05576 0.26858 0.0
In156 In 0.4608 0.92901 0.74616 0.0
O157 O 0.46961 0.95516 0.78444 0.0
O158 O 0.46406 0.92923 0.81115 0.0
C159 C 0.46655 0.95205 0.68558 0.0
C160 C 0.48309 0.91311 0.7341 0.0
C161 C 0.42323 0.90293 0.73725 0.0
O162 O 0.48014 0.95384 0.70651 0.0
O163 O 0.45008 0.93904 0.69583 0.0
O164 O 0.43649 0.90108 0.72218 0.0
O165 O 0.42895 0.91779 0.75766 0.0
C166 C 0.46888 0.94666 0.81512 0.0
O167 O 0.46806 0.90503 0.75419 0.0
O168 O 0.48706 0.9293 0.72107 0.0
In169 In 0.05585 0.52819 0.74209 0.0
O170 O 0.08335 0.55518 0.72398 0.0
O171 O 0.06088 0.55875 0.74687 0.0
C172 C 0.07723 0.51192 0.72394 0.0
C173 C 0.03951 0.51728 0.81198 0.0
C174 C 0.02881 0.51673 0.6874 0.0
O175 O 0.07699 0.51772 0.75733 0.0
O176 O 0.06678 0.51431 0.7004 0.0
O177 O 0.03217 0.50511 0.70544 0.0
O178 O 0.03853 0.53402 0.69814 0.0
C179 C 0.07747 0.56662 0.73235 0.0
O180 O 0.03029 0.51057 0.78142 0.0
O181 O 0.05705 0.52944 0.80743 0.0
In182 In 0.4591 0.52294 0.74015 0.0
O183 O 0.42674 0.50992 0.75162 0.0
O184 O 0.43571 0.50636 0.69672 0.0
C185 C 0.47008 0.55995 0.72545 0.0
C186 C 0.46403 0.51497 0.81305 0.0
C187 C 0.48089 0.51549 0.69211 0.0
O188 O 0.45405 0.54615 0.71501 0.0
O189 O 0.48034 0.55514 0.74462 0.0
O190 O 0.46666 0.50242 0.70971 0.0
O191 O 0.48472 0.5323 0.70028 0.0
C192 C 0.42191 0.50322 0.71826 0.0
O193 O 0.46106 0.50363 0.78572 0.0
O194 O 0.46434 0.53029 0.8038 0.0
In195 In 0.59011 0.78877 0.57563 0.0
O196 O 0.61595 0.79772 0.53694 0.0
O197 O 0.58987 0.79255 0.51099 0.0
C198 C 0.61332 0.79782 0.63722 0.0
C199 C 0.57202 0.80831 0.59424 0.0
C200 C 0.56608 0.75049 0.57238 0.0
O201 O 0.60025 0.78092 0.62988 0.0
O202 O 0.61513 0.81017 0.61286 0.0
O203 O 0.56015 0.76235 0.57454 0.0
O204 O 0.5841 0.75799 0.57001 0.0
C205 C 0.60731 0.79735 0.50661 0.0
O206 O 0.56787 0.79236 0.60886 0.0
O207 O 0.5851 0.81434 0.56929 0.0
In208 In 0.19457 0.79781 0.57554 0.0
O209 O 0.18941 0.81691 0.53451 0.0
O210 O 0.19047 0.79318 0.51096 0.0
C211 C 0.18715 0.81469 0.63461 0.0
C212 C 0.17217 0.75962 0.58715 0.0
C213 C 0.23179 0.80877 0.58799 0.0
O214 O 0.17434 0.80399 0.61104 0.0
O215 O 0.20365 0.81726 0.62767 0.0
O216 O 0.21804 0.79409 0.60321 0.0
O217 O 0.22679 0.81778 0.56545 0.0
C218 C 0.18824 0.80741 0.50504 0.0
O219 O 0.18814 0.7668 0.5702 0.0
O220 O 0.16724 0.77163 0.59705 0.0
In221 In 0.18806 0.38917 0.58462 0.0
O222 O 0.17137 0.36204 0.54843 0.0
O223 O 0.18734 0.38863 0.51941 0.0
C224 C 0.17438 0.36639 0.64673 0.0
C225 C 0.2268 0.40713 0.58552 0.0
C226 C 0.17624 0.41443 0.60079 0.0
O227 O 0.16413 0.37106 0.62726 0.0
O228 O 0.1911 0.37252 0.63388 0.0
O229 O 0.18869 0.41307 0.62031 0.0
O230 O 0.16993 0.40327 0.5724 0.0
C231 C 0.17648 0.37068 0.51685 0.0
O232 O 0.21777 0.41605 0.58029 0.0
O233 O 0.2163 0.38914 0.5886 0.0
C234 C 0.17559 0.37101 0.44552 0.0
C235 C 0.17047 0.36057 0.47985 0.0
C236 C 0.17017 0.36146 0.41047 0.0
C237 C 0.15641 0.31504 0.36532 0.0
H238 H 0.13729 0.33396 0.28434 0.0
C239 C 0.12881 0.27477 0.22188 0.0
C240 C 0.13403 0.28612 0.18873 0.0
C241 C 0.13233 0.28334 0.25795 0.0
C242 C 0.14279 0.32861 0.30651 0.0
H243 H 0.15562 0.33196 0.50448 0.0
H244 H 0.14618 0.31525 0.44318 0.0
H245 H 0.14521 0.34995 0.34627 0.0
H246 H 0.14703 0.31532 0.16725 0.0
H247 H 0.15346 0.33029 0.23002 0.0
H248 H 0.1543 0.29389 0.32545 0.0
C249 C 0.15447 0.33082 0.44339 0.0
C250 C 0.1473 0.33776 0.342 0.0
C251 C 0.15979 0.34038 0.47847 0.0
C252 C 0.14278 0.30619 0.1923 0.0
C253 C 0.14635 0.31476 0.2283 0.0
C254 C 0.15198 0.30594 0.32976 0.0
C255 C 0.15963 0.34126 0.40902 0.0
C256 C 0.15426 0.33115 0.37172 0.0
C257 C 0.14118 0.30345 0.26158 0.0
C258 C 0.14524 0.31269 0.29984 0.0
H259 H 0.18385 0.38659 0.44571 0.0
H260 H 0.17455 0.36989 0.38447 0.0
H261 H 0.16197 0.30976 0.38753 0.0
H262 H 0.12198 0.25925 0.21998 0.0
H263 H 0.12795 0.2742 0.28298 0.0
C264 C 0.63643 0.80753 0.46611 0.0
C265 C 0.617 0.80241 0.46912 0.0
C266 C 0.64576 0.8126 0.43083 0.0
C267 C 0.63662 0.80814 0.327 0.0
H268 H 0.68868 0.85136 0.32133 0.0
C269 C 0.6743 0.84039 0.1836 0.0
C270 C 0.69369 0.84542 0.18033 0.0
C271 C 0.665 0.83508 0.2189 0.0
C272 C 0.67423 0.83913 0.32251 0.0
H273 H 0.59207 0.79853 0.43761 0.0
H274 H 0.60841 0.80758 0.37595 0.0
H275 H 0.67223 0.84214 0.38275 0.0
H276 H 0.71859 0.84888 0.21136 0.0
H277 H 0.7023 0.83949 0.27308 0.0
H278 H 0.6386 0.80517 0.26672 0.0
C279 C 0.61638 0.80745 0.4008 0.0
C280 C 0.6648 0.83384 0.3577 0.0
C281 C 0.60704 0.80236 0.43612 0.0
C282 C 0.70364 0.84511 0.21306 0.0
C283 C 0.69434 0.83983 0.24841 0.0
C284 C 0.64604 0.81344 0.29181 0.0
C285 C 0.63586 0.81268 0.39777 0.0
C286 C 0.64588 0.81829 0.36035 0.0
C287 C 0.6749 0.83471 0.2517 0.0
C288 C 0.66494 0.829 0.28916 0.0
H289 H 0.64446 0.80763 0.49104 0.0
H290 H 0.66069 0.81629 0.42939 0.0
H291 H 0.62216 0.79591 0.32815 0.0
H292 H 0.66627 0.84054 0.15887 0.0
H293 H 0.65009 0.83148 0.22057 0.0
C294 C 0.18328 0.80148 0.43474 0.0
C295 C 0.18401 0.81225 0.46692 0.0
C296 C 0.17862 0.80566 0.39891 0.0
C297 C 0.1757 0.84381 0.34479 0.0
H298 H 0.14132 0.80147 0.27938 0.0
C299 C 0.14044 0.85452 0.21045 0.0
C300 C 0.13996 0.8443 0.17755 0.0
C301 C 0.14623 0.85071 0.24544 0.0
C302 C 0.15109 0.81345 0.29715 0.0
H303 H 0.18057 0.83591 0.48686 0.0
H304 H 0.17215 0.84304 0.42451 0.0
H305 H 0.15094 0.79478 0.34091 0.0
H306 H 0.1451 0.82205 0.15542 0.0
H307 H 0.15521 0.8154 0.21655 0.0
H308 H 0.17566 0.86246 0.30113 0.0
C309 C 0.17547 0.83155 0.42675 0.0
C310 C 0.15664 0.80962 0.33238 0.0
C311 C 0.18019 0.8274 0.46253 0.0
C312 C 0.14529 0.83013 0.18033 0.0
C313 C 0.15099 0.82626 0.21535 0.0
C314 C 0.1701 0.84763 0.30961 0.0
C315 C 0.17453 0.82067 0.39452 0.0
C316 C 0.16898 0.82476 0.35668 0.0
C317 C 0.15157 0.83654 0.24827 0.0
C318 C 0.15769 0.83249 0.28545 0.0
H319 H 0.18623 0.78975 0.43725 0.0
H320 H 0.1783 0.79718 0.37459 0.0
H321 H 0.18547 0.85581 0.36251 0.0
H322 H 0.13639 0.86551 0.20918 0.0
H323 H 0.1463 0.85871 0.27039 0.0
C324 C 0.37148 0.18254 0.54712 0.0
C325 C 0.36149 0.18207 0.51385 0.0
C326 C 0.36205 0.1774 0.58235 0.0
C327 C 0.31359 0.15013 0.62498 0.0
H328 H 0.33885 0.17981 0.71558 0.0
C329 C 0.27374 0.1389 0.7684 0.0
C330 C 0.28372 0.13938 0.8017 0.0
C331 C 0.2832 0.14402 0.73318 0.0
C332 C 0.33168 0.17125 0.69062 0.0
H333 H 0.33386 0.17602 0.49135 0.0
H334 H 0.31745 0.16723 0.55282 0.0
H335 H 0.35553 0.18901 0.65439 0.0
H336 H 0.31134 0.14544 0.82428 0.0
H337 H 0.32778 0.15419 0.76284 0.0
H338 H 0.28973 0.13237 0.6612 0.0
C339 C 0.33249 0.17131 0.55168 0.0
C340 C 0.34124 0.17652 0.65556 0.0
C341 C 0.34193 0.17646 0.5165 0.0
C342 C 0.30329 0.14499 0.7991 0.0
C343 C 0.31274 0.15011 0.76394 0.0
C344 C 0.30402 0.14486 0.66003 0.0
C345 C 0.34242 0.17167 0.585 0.0
C346 C 0.3323 0.16603 0.62233 0.0
C347 C 0.30282 0.14974 0.73058 0.0
C348 C 0.31296 0.15536 0.69326 0.0
H349 H 0.38657 0.18676 0.54592 0.0
H350 H 0.37005 0.17762 0.60742 0.0
H351 H 0.30641 0.14156 0.60001 0.0
H352 H 0.25866 0.13468 0.76955 0.0
H353 H 0.2752 0.14378 0.70807 0.0
C354 C 0.81792 0.17375 0.51707 0.0
C355 C 0.80405 0.17948 0.51429 0.0
C356 C 0.82238 0.16892 0.55243 0.0
C357 C 0.81981 0.17569 0.65594 0.0
H358 H 0.82685 0.13144 0.66426 0.0
C359 C 0.82753 0.14651 0.80138 0.0
C360 C 0.84135 0.14073 0.80413 0.0
C361 C 0.82287 0.15108 0.76596 0.0
C362 C 0.82514 0.14396 0.66233 0.0
H363 H 0.78394 0.1846 0.54628 0.0
H364 H 0.79163 0.17603 0.60805 0.0
H365 H 0.81892 0.13975 0.60255 0.0
H366 H 0.86113 0.13517 0.77203 0.0
H367 H 0.85313 0.14333 0.71015 0.0
H368 H 0.82607 0.17994 0.71569 0.0
C369 C 0.79921 0.17548 0.58296 0.0
C370 C 0.82059 0.14872 0.62698 0.0
C371 C 0.79473 0.18029 0.54756 0.0
C372 C 0.85037 0.13953 0.77076 0.0
C373 C 0.84572 0.14411 0.7353 0.0
C374 C 0.82437 0.17095 0.69129 0.0
C375 C 0.81308 0.16973 0.58579 0.0
C376 C 0.81787 0.16464 0.62338 0.0
C377 C 0.83194 0.14998 0.73251 0.0
C378 C 0.82709 0.15502 0.6949 0.0
H379 H 0.82537 0.17304 0.49191 0.0
H380 H 0.8333 0.16479 0.55371 0.0
H381 H 0.81809 0.18822 0.65401 0.0
H382 H 0.82029 0.14751 0.82662 0.0
H383 H 0.812 0.15529 0.76474 0.0
C384 C 0.82805 0.67918 0.80479 0.0
C385 C 0.84298 0.69832 0.80836 0.0
C386 C 0.82396 0.66989 0.76947 0.0
C387 C 0.84502 0.67217 0.67448 0.0
H388 H 0.7918 0.63933 0.64457 0.0
C389 C 0.82265 0.64152 0.52196 0.0
C390 C 0.80781 0.62231 0.51866 0.0
C391 C 0.82721 0.6507 0.55743 0.0
C392 C 0.80673 0.64828 0.65269 0.0
H393 H 0.86534 0.72279 0.7778 0.0
H394 H 0.85805 0.70664 0.71594 0.0
H395 H 0.79923 0.65566 0.70609 0.0
H396 H 0.78621 0.59758 0.54988 0.0
H397 H 0.79423 0.61359 0.6119 0.0
H398 H 0.8525 0.66483 0.62091 0.0
C399 C 0.84967 0.69871 0.74055 0.0
C400 C 0.811 0.65764 0.68795 0.0
C401 C 0.85377 0.708 0.77592 0.0
C402 C 0.79769 0.61242 0.55154 0.0
C403 C 0.80221 0.62162 0.587 0.0
C404 C 0.84075 0.66283 0.63916 0.0
C405 C 0.83468 0.67955 0.7369 0.0
C406 C 0.83019 0.66968 0.69929 0.0
C407 C 0.81698 0.64088 0.59033 0.0
C408 C 0.82156 0.65076 0.6279 0.0
H409 H 0.81953 0.67132 0.82934 0.0
H410 H 0.81251 0.65504 0.76778 0.0
H411 H 0.85996 0.68111 0.68258 0.0
H412 H 0.83068 0.64952 0.49708 0.0
H413 H 0.83852 0.66561 0.55898 0.0
C414 C 0.94488 0.46676 0.10679 0.0
C415 C 0.95546 0.47394 0.14067 0.0
C416 C 0.95424 0.47104 0.0715 0.0
C417 C -0.00087 0.50622 0.02403 0.0
H418 H 0.98394 0.46641 0.94729 0.0
C419 C 0.04125 0.51922 0.8833 0.0
C420 C 0.03034 0.51163 0.84991 0.0
C421 C 0.03242 0.51421 0.91912 0.0
C422 C 0.98822 0.47774 0.96826 0.0
H423 H 0.9841 0.4912 0.16428 0.0
H424 H 0.00044 0.49866 0.10267 0.0
H425 H 0.96779 0.45853 0.00909 0.0
H426 H 0.00169 0.49279 0.82775 0.0
H427 H 0.98623 0.48427 0.89014 0.0
H428 H 0.01941 0.5255 0.98316 0.0
C429 C 0.98491 0.48984 0.10334 0.0
C430 C 0.97897 0.47322 0.00366 0.0
C431 C 0.97556 0.48549 0.13862 0.0
C432 C 0.01048 0.49882 0.85301 0.0
C433 C 0.00164 0.49385 0.88879 0.0
C434 C 0.00834 0.51077 0.9886 0.0
C435 C 0.97436 0.48267 0.06939 0.0
C436 C 0.98429 0.48742 0.0319 0.0
C437 C 0.01249 0.50154 0.92227 0.0
C438 C 0.00297 0.49659 0.96025 0.0
H439 H 0.92937 0.45783 0.10752 0.0
H440 H 0.9457 0.46548 0.0458 0.0
H441 H 0.00337 0.51754 0.04503 0.0
H442 H 0.0566 0.52907 0.88177 0.0
H443 H 0.04123 0.52017 0.94436 0.0
C444 C 0.52066 0.48366 0.11208 0.0
C445 C 0.50834 0.47827 0.1438 0.0
C446 C 0.51533 0.48829 0.07744 0.0
C447 C 0.47341 0.47939 0.02125 0.0
H448 H 0.50945 0.5251 0.96533 0.0
C449 C 0.46413 0.49248 0.86227 0.0
C450 C 0.46753 0.51088 0.85242 0.0
C451 C 0.46816 0.48876 0.89908 0.0
C452 C 0.4992 0.51236 0.98076 0.0
H453 H 0.48078 0.47342 0.16421 0.0
H454 H 0.47132 0.48122 0.10336 0.0
H455 H 0.5186 0.5183 0.02754 0.0
H456 H 0.47764 0.53979 0.87335 0.0
H457 H 0.48497 0.53335 0.93765 0.0
H458 H 0.45413 0.47329 0.97417 0.0
C459 C 0.48512 0.48193 0.10541 0.0
C460 C 0.50449 0.5084 0.01615 0.0
C461 C 0.49057 0.47755 0.14022 0.0
C462 C 0.47487 0.52547 0.88017 0.0
C463 C 0.47914 0.52181 0.91686 0.0
C464 C 0.46822 0.48321 0.98561 0.0
C465 C 0.49747 0.48737 0.07372 0.0
C466 C 0.49166 0.49184 0.03668 0.0
C467 C 0.4759 0.50345 0.9266 0.0
C468 C 0.48109 0.49971 0.96499 0.0
H469 H 0.53445 0.48435 0.11404 0.0
H470 H 0.52504 0.49228 0.05335 0.0
H471 H 0.4633 0.46646 0.03639 0.0
H472 H 0.45848 0.48096 0.84144 0.0
H473 H 0.46567 0.47451 0.90575 0.0
C474 C 0.49839 0.01143 0.14057 0.0
C475 C 0.50806 0.03158 0.14291 0.0
C476 C 0.49413 0.00228 0.10508 0.0
C477 C 0.50791 0.0111 0.00291 0.0
H478 H 0.45945 0.9638 0.98822 0.0
C479 C 0.48074 0.97631 0.85485 0.0
C480 C 0.4733 0.95635 0.85258 0.0
C481 C 0.48501 0.98552 0.89026 0.0
C482 C 0.4731 0.97691 0.99203 0.0
H483 H 0.5207 0.058 0.11006 0.0
H484 H 0.51288 0.04207 0.04806 0.0
H485 H 0.46669 0.97996 0.04996 0.0
H486 H 0.46439 0.93035 0.88548 0.0
H487 H 0.47173 0.94646 0.94746 0.0
H488 H 0.51413 0.00814 0.94469 0.0
C489 C 0.50893 0.03329 0.07359 0.0
C490 C 0.47729 0.98616 0.02741 0.0
C491 C 0.51331 0.04243 0.1091 0.0
C492 C 0.47011 0.94576 0.88639 0.0
C493 C 0.47422 0.95495 0.92184 0.0
C494 C 0.50364 0.00193 0.96745 0.0
C495 C 0.49932 0.0131 0.07112 0.0
C496 C 0.49477 0.00335 0.03334 0.0
C497 C 0.48175 0.97493 0.92411 0.0
C498 C 0.48622 0.98472 0.96169 0.0
H499 H 0.49424 0.00269 0.16619 0.0
H500 H 0.487 0.98673 0.1043 0.0
H501 H 0.52164 0.02412 0.00662 0.0
H502 H 0.48333 0.98483 0.82924 0.0
H503 H 0.49063 0.00092 0.8912 0.0
C504 C 0.12575 0.30272 0.97195 0.0
C505 C 0.13945 0.29884 0.98815 0.0
C506 C 0.12904 0.31162 0.93624 0.0
C507 C 0.16709 0.33951 0.86517 0.0
H508 H 0.12555 0.31533 0.79159 0.0
C509 C 0.18092 0.35277 0.70492 0.0
C510 C 0.1683 0.35659 0.68396 0.0
C511 C 0.17649 0.34591 0.74225 0.0
C512 C 0.1372 0.32237 0.81193 0.0
H513 H 0.16766 0.30194 0.98064 0.0
H514 H 0.17341 0.3174 0.91848 0.0
H515 H 0.11995 0.30457 0.85798 0.0
H516 H 0.14079 0.35552 0.68499 0.0
H517 H 0.13299 0.34345 0.75047 0.0
H518 H 0.18442 0.35709 0.81909 0.0
C519 C 0.16017 0.31371 0.93331 0.0
C520 C 0.13399 0.31627 0.84996 0.0
C521 C 0.15685 0.30478 0.96887 0.0
C522 C 0.15076 0.35264 0.70048 0.0
C523 C 0.1463 0.34574 0.73792 0.0
C524 C 0.1703 0.34558 0.82722 0.0
C525 C 0.14614 0.31687 0.91624 0.0
C526 C 0.149 0.32458 0.87684 0.0
C527 C 0.15934 0.34274 0.75945 0.0
C528 C 0.15549 0.33686 0.80007 0.0
H529 H 0.1122 0.2983 0.98621 0.0
H530 H 0.11808 0.31409 0.92401 0.0
H531 H 0.17883 0.34641 0.88535 0.0
H532 H 0.19451 0.35559 0.69288 0.0
H533 H 0.18663 0.34334 0.75786 0.0
C534 C 0.61966 0.78891 0.70159 0.0
C535 C 0.62432 0.8029 0.67317 0.0
C536 C 0.62858 0.79402 0.73724 0.0
C537 C 0.65388 0.83612 0.80046 0.0
H538 H 0.66655 0.80256 0.85764 0.0
C539 C 0.69763 0.85896 0.94021 0.0
C540 C 0.69114 0.8455 0.97012 0.0
C541 C 0.68921 0.85373 0.90415 0.0
C542 C 0.66289 0.81196 0.84211 0.0
H543 H 0.64252 0.83305 0.65907 0.0
H544 H 0.65849 0.84194 0.72108 0.0
H545 H 0.65361 0.79361 0.79313 0.0
H546 H 0.67063 0.81613 0.98607 0.0
H547 H 0.6559 0.80694 0.92274 0.0
H548 H 0.66339 0.85457 0.84936 0.0
C549 C 0.64761 0.82708 0.71615 0.0
C550 C 0.6555 0.80686 0.80518 0.0
C551 C 0.63859 0.82198 0.68054 0.0
C552 C 0.67588 0.82679 0.9635 0.0
C553 C 0.66756 0.8215 0.92726 0.0
C554 C 0.66138 0.84127 0.83726 0.0
C555 C 0.64244 0.81322 0.74514 0.0
C556 C 0.65088 0.81887 0.78394 0.0
C557 C 0.67424 0.8349 0.89721 0.0
C558 C 0.66593 0.82924 0.85846 0.0
H559 H 0.60865 0.77409 0.69674 0.0
H560 H 0.62411 0.78302 0.75901 0.0
H561 H 0.65011 0.84551 0.78522 0.0
H562 H 0.70938 0.87349 0.94452 0.0
H563 H 0.69475 0.8643 0.88143 0.0
C564 C 0.15917 0.84942 0.96029 0.0
C565 C 0.1407 0.84672 0.96619 0.0
C566 C 0.16497 0.84745 0.92377 0.0
C567 C 0.15243 0.84647 0.82128 0.0
H568 H 0.18388 0.82272 0.80875 0.0
C569 C 0.1642 0.81832 0.67734 0.0
C570 C 0.18291 0.82201 0.6697 0.0
C571 C 0.15983 0.82332 0.71262 0.0
C572 C 0.17528 0.82958 0.81187 0.0
H573 H 0.11365 0.83945 0.93893 0.0
H574 H 0.12349 0.83537 0.87558 0.0
H575 H 0.17454 0.82687 0.8726 0.0
H576 H 0.2119 0.83453 0.69221 0.0
H577 H 0.20421 0.84316 0.7538 0.0
H578 H 0.15277 0.84861 0.76024 0.0
C579 C 0.13374 0.83956 0.89876 0.0
C580 C 0.16996 0.83201 0.84845 0.0
C581 C 0.12803 0.84173 0.93513 0.0
C582 C 0.19732 0.83145 0.69735 0.0
C583 C 0.19292 0.83629 0.73266 0.0
C584 C 0.15761 0.84386 0.78464 0.0
C585 C 0.15233 0.84254 0.89253 0.0
C586 C 0.1584 0.84041 0.85362 0.0
C587 C 0.17406 0.83194 0.7409 0.0
C588 C 0.16905 0.83536 0.77962 0.0
H589 H 0.16926 0.85341 0.98374 0.0
H590 H 0.17947 0.8501 0.91994 0.0
H591 H 0.14383 0.85333 0.82422 0.0
H592 H 0.15281 0.81105 0.65653 0.0
H593 H 0.14514 0.81972 0.71834 0.0
C594 C 0.34045 0.16639 0.30051 0.0
C595 C 0.35998 0.18048 0.3029 0.0
C596 C 0.3312 0.16128 0.2651 0.0
C597 C 0.34094 0.16252 0.16196 0.0
H598 H 0.28969 0.1553 0.15118 0.0
C599 C 0.30461 0.15376 0.01527 0.0
C600 C 0.28503 0.13983 0.01268 0.0
C601 C 0.31382 0.15861 0.05072 0.0
C602 C 0.30392 0.15706 0.15383 0.0
H603 H 0.38514 0.20035 0.27032 0.0
H604 H 0.36897 0.19156 0.20865 0.0
H605 H 0.30553 0.16384 0.21327 0.0
H606 H 0.25976 0.11993 0.04496 0.0
H607 H 0.27586 0.12827 0.10673 0.0
H608 H 0.33934 0.15576 0.1025 0.0
C609 C 0.36085 0.18428 0.23398 0.0
C610 C 0.31298 0.16194 0.18939 0.0
C611 C 0.37008 0.18939 0.26933 0.0
C612 C 0.27486 0.13078 0.04611 0.0
C613 C 0.28405 0.13563 0.08151 0.0
C614 C 0.33188 0.15764 0.1264 0.0
C615 C 0.34133 0.17015 0.23146 0.0
C616 C 0.3316 0.16475 0.19382 0.0
C617 C 0.30361 0.14963 0.08423 0.0
C618 C 0.31328 0.15487 0.12195 0.0
H619 H 0.33233 0.15926 0.32595 0.0
H620 H 0.31619 0.1502 0.26401 0.0
H621 H 0.35519 0.16431 0.1646 0.0
H622 H 0.31278 0.16099 0.98995 0.0
H623 H 0.32886 0.16961 0.05196 0.0
C624 C 0.84979 0.14091 0.04848 0.0
C625 C 0.84798 0.14898 0.01423 0.0
C626 C 0.84688 0.14729 0.08352 0.0
C627 C 0.82233 0.17067 0.12679 0.0
H628 H 0.85478 0.17674 0.21385 0.0
C629 C 0.81152 0.1972 0.27221 0.0
C630 C 0.81224 0.18721 0.30451 0.0
C631 C 0.81743 0.19425 0.23666 0.0
C632 C 0.84551 0.17497 0.18986 0.0
H633 H 0.84198 0.17021 0.9897 0.0
H634 H 0.83691 0.18145 0.05116 0.0
H635 H 0.86237 0.16866 0.15153 0.0
H636 H 0.82004 0.16658 0.3252 0.0
H637 H 0.83016 0.1612 0.26291 0.0
H638 H 0.80529 0.17665 0.16514 0.0
C639 C 0.84043 0.17007 0.0508 0.0
C640 C 0.84987 0.17037 0.1542 0.0
C641 C 0.8434 0.1637 0.01568 0.0
C642 C 0.81935 0.17449 0.30077 0.0
C643 C 0.82525 0.17151 0.26515 0.0
C644 C 0.81796 0.17525 0.16245 0.0
C645 C 0.84208 0.16187 0.08508 0.0
C646 C 0.83821 0.16798 0.12237 0.0
C647 C 0.82416 0.18122 0.23264 0.0
C648 C 0.8294 0.17727 0.19446 0.0
H649 H 0.8533 0.12952 0.04825 0.0
H650 H 0.84799 0.1405 0.10937 0.0
H651 H 0.81292 0.16866 0.10293 0.0
H652 H 0.80621 0.2072 0.2743 0.0
H653 H 0.81671 0.20217 0.21229 0.0
C654 C 0.82641 0.67742 0.02095 0.0
C655 C 0.83183 0.69688 0.01676 0.0
C656 C 0.82096 0.66854 0.05666 0.0
C657 C 0.82772 0.68022 0.15886 0.0
H658 H 0.78647 0.62755 0.17125 0.0
C659 C 0.80553 0.64336 0.30658 0.0
C660 C 0.80202 0.6244 0.30831 0.0
C661 C 0.8079 0.65245 0.2713 0.0
C662 C 0.79812 0.64223 0.16818 0.0
H663 H 0.83516 0.72214 0.04619 0.0
H664 H 0.82548 0.70658 0.10841 0.0
H665 H 0.79244 0.6428 0.10861 0.0
H666 H 0.79825 0.60007 0.27469 0.0
H667 H 0.80263 0.61596 0.21334 0.0
H668 H 0.8336 0.67958 0.21824 0.0
C669 C 0.82572 0.69827 0.08429 0.0
C670 C 0.80152 0.65095 0.13233 0.0
C671 C 0.83116 0.70714 0.04863 0.0
C672 C 0.8009 0.61469 0.27423 0.0
C673 C 0.80326 0.62374 0.23906 0.0
C674 C 0.82432 0.6715 0.19469 0.0
C675 C 0.82084 0.67896 0.08882 0.0
C676 C 0.81648 0.66998 0.12722 0.0
C677 C 0.80676 0.64271 0.23717 0.0
C678 C 0.80962 0.65234 0.19965 0.0
H679 H 0.82682 0.66918 -0.00314 0.0
H680 H 0.81745 0.65369 0.05932 0.0
H681 H 0.83954 0.69482 0.15572 0.0
H682 H 0.80638 0.65115 0.33242 0.0
H683 H 0.81042 0.66702 0.27074 0.0
C684 C 0.96148 0.46494 0.36947 0.0
C685 C 0.95941 0.47854 0.34791 0.0
C686 C 0.96862 0.46917 0.40665 0.0
C687 C 0.97431 0.5009 0.4876 0.0
H688 H 0.00821 0.48343 0.5263 0.0
C689 C 0.01472 0.52491 0.63187 0.0
C690 C 0.01666 0.51108 0.65291 0.0
C691 C 0.00602 0.52039 0.59593 0.0
C692 C -0.00147 0.48817 0.51605 0.0
H693 H 0.96374 0.50745 0.34778 0.0
H694 H 0.97663 0.51502 0.41261 0.0
H695 H -0.00201 0.47757 0.45984 0.0
H696 H 0.01001 0.48136 0.654 0.0
H697 H -0.00531 0.47342 0.59133 0.0
H698 H 0.97511 0.51173 0.54389 0.0
C699 C 0.97238 0.50094 0.40101 0.0
C700 C -0.00729 0.48485 0.47795 0.0
C701 C 0.96518 0.49669 0.36379 0.0
C702 C 0.00878 0.49234 0.63835 0.0
C703 C 0.00015 0.48784 0.60238 0.0
C704 C 0.9802 0.5043 0.52573 0.0
C705 C 0.97391 0.48712 0.42304 0.0
C706 C 0.98051 0.49114 0.46329 0.0
C707 C -0.00082 0.50196 0.58036 0.0
C708 C -0.00767 0.4979 0.54035 0.0
H709 H 0.95705 0.45079 0.35803 0.0
H710 H 0.96942 0.45812 0.42295 0.0
H711 H 0.96464 0.50566 0.47735 0.0
H712 H 0.02068 0.53948 0.6424 0.0
H713 H 0.00554 0.53159 0.57956 0.0
C714 C 0.50153 0.52611 0.63397 0.0
C715 C 0.48999 0.51138 0.6597 0.0
C716 C 0.50676 0.52172 0.59902 0.0
C717 C 0.48886 0.48109 0.5318 0.0
H718 H 0.53522 0.51528 0.47563 0.0
C719 C 0.50686 0.46196 0.38486 0.0
C720 C 0.51303 0.47622 0.35654 0.0
C721 C 0.50489 0.4662 0.4226 0.0
C722 C 0.52216 0.50569 0.49098 0.0
H723 H 0.47631 0.48077 0.6707 0.0
H724 H 0.48606 0.47315 0.61029 0.0
H725 H 0.53202 0.52241 0.54215 0.0
H726 H 0.52196 0.50608 0.34529 0.0
H727 H 0.51863 0.51359 0.41172 0.0
H728 H 0.47912 0.46431 0.48069 0.0
C729 C 0.4905 0.48802 0.61644 0.0
C730 C 0.52032 0.50974 0.52905 0.0
C731 C 0.48507 0.49238 0.65122 0.0
C732 C 0.51709 0.49481 0.36658 0.0
C733 C 0.51534 0.49913 0.40454 0.0
C734 C 0.49081 0.47695 0.49395 0.0
C735 C 0.50073 0.50254 0.58927 0.0
C736 C 0.50356 0.49756 0.54984 0.0
C737 C 0.50926 0.48485 0.43287 0.0
C738 C 0.50739 0.48928 0.4731 0.0
H739 H 0.5055 0.5409 0.63973 0.0
H740 H 0.51453 0.53328 0.5788 0.0
H741 H 0.47556 0.47162 0.54651 0.0
H742 H 0.50366 0.4475 0.37793 0.0
H743 H 0.50029 0.45497 0.44392 0.0
C744 C 0.45403 0.96001 0.62728 0.0
C745 C 0.46971 0.96314 0.65012 0.0
C746 C 0.45703 0.96915 0.59197 0.0
C747 C 0.49361 0.00947 0.53416 0.0
H748 H 0.46263 0.97876 0.44893 0.0
C749 C 0.5006 0.04254 0.38547 0.0
C750 C 0.50071 0.03172 0.35411 0.0
C751 C 0.49545 0.03423 0.42164 0.0
C752 C 0.47147 0.98749 0.47239 0.0
H753 H 0.50081 0.97861 0.65446 0.0
H754 H 0.50609 -0.00556 0.59264 0.0
H755 H 0.45674 0.96463 0.51255 0.0
H756 H 0.49518 0.00364 0.33569 0.0
H757 H 0.48655 0.98916 0.39914 0.0
H758 H 0.50881 0.0321 0.49387 0.0
C759 C 0.49146 0.98511 0.60215 0.0
C760 C 0.46793 0.97948 0.50894 0.0
C761 C 0.48845 0.97599 0.6375 0.0
C762 C 0.49516 0.01229 0.35939 0.0
C763 C 0.49013 0.00399 0.39569 0.0
C764 C 0.49718 0.01745 0.49762 0.0
C765 C 0.47578 0.98158 0.57876 0.0
C766 C 0.47904 0.99035 0.54021 0.0
C767 C 0.49045 0.01495 0.42731 0.0
C768 C 0.48621 0.00654 0.46627 0.0
H769 H 0.43941 0.9502 0.63634 0.0
H770 H 0.44465 0.96638 0.5749 0.0
H771 H 0.50229 0.01828 0.5577 0.0
H772 H 0.50465 0.05752 0.38216 0.0
H773 H 0.49547 0.04296 0.44522 0.0
C774 C 0.14475 0.21219 0.059 0.0
C775 C 0.15481 0.23215 0.06509 0.0
C776 C 0.15423 0.20293 0.04465 0.0
C777 C 0.19689 0.21314 0.98783 0.0
H778 H 0.18455 0.16199 0.01987 0.0
C779 C 0.23917 0.1762 0.9377 0.0
C780 C 0.2285 0.15641 0.92979 0.0
C781 C 0.2302 0.18573 0.9532 0.0
C782 C 0.18798 0.1762 0.01032 0.0
H783 H 0.18285 0.25796 0.06275 0.0
H784 H 0.19949 0.24175 0.03839 0.0
H785 H 0.16944 0.17799 0.05193 0.0
H786 H 0.19996 0.13123 0.93046 0.0
H787 H 0.18427 0.14791 0.95718 0.0
H788 H 0.21546 0.21133 0.94627 0.0
C789 C 0.1842 0.2333 0.04393 0.0
C790 C 0.17936 0.18538 0.02875 0.0
C791 C 0.1747 0.24255 0.05822 0.0
C792 C 0.20857 0.14648 0.93633 0.0
C793 C 0.19961 0.156 0.95194 0.0
C794 C 0.20555 0.20398 0.96948 0.0
C795 C 0.17398 0.21346 0.03617 0.0
C796 C 0.18367 0.20394 0.01765 0.0
C797 C 0.21039 0.17564 0.9612 0.0
C798 C 0.20112 0.18537 0.98042 0.0
H799 H 0.12939 0.20381 0.0639 0.0
H800 H 0.1459 0.18767 0.03873 0.0
H801 H 0.20026 0.2273 0.9781 0.0
H802 H 0.25457 0.1842 0.93305 0.0
H803 H 0.2389 0.20084 0.96023 0.0
C804 C 0.82979 0.05754 0.92596 0.0
C805 C 0.82139 0.06923 0.92722 0.0
C806 C 0.81996 0.03882 0.94032 0.0
C807 C 0.78161 0.00898 0.00883 0.0
H808 H 0.78654 0.96755 0.96382 0.0
C809 C 0.73919 0.92945 0.05937 0.0
C810 C 0.74944 0.91951 0.06071 0.0
C811 C 0.7478 0.94813 0.04469 0.0
C812 C 0.7852 0.97904 0.97691 0.0
H813 H 0.79578 0.07024 0.94273 0.0
H814 H 0.77838 0.03734 0.96701 0.0
H815 H 0.80076 -0.0014 0.93171 0.0
H816 H 0.77702 0.92165 0.04961 0.0
H817 H 0.79204 0.95426 0.02414 0.0
H818 H 0.76587 0.98923 0.05388 0.0
C819 C 0.79274 0.04279 0.95573 0.0
C820 C 0.79332 -0.00317 0.9585 0.0
C821 C 0.80263 0.06156 0.9415 0.0
C822 C 0.76873 0.92892 0.04885 0.0
C823 C 0.77728 0.94752 0.03397 0.0
C824 C 0.77337 0.99112 0.02712 0.0
C825 C 0.80147 0.03135 0.95608 0.0
C826 C 0.79179 0.01207 0.97441 0.0
C827 C 0.76676 0.95713 0.03088 0.0
C828 C 0.77526 0.97605 0.01152 0.0
H829 H 0.84427 0.0631 0.91527 0.0
H830 H 0.8272 0.03051 0.94048 0.0
H831 H 0.78042 0.02049 0.02221 0.0
H832 H 0.72428 0.92253 0.06827 0.0
H833 H 0.73934 0.95519 0.04257 0.0
C834 C 0.92675 0.7651 0.92999 0.0
C835 C 0.91213 0.74736 0.94378 0.0
C836 C 0.94529 0.77347 0.9453 0.0
C837 C 0.97706 0.76281 0.00573 0.0
H838 H 0.00551 0.81827 0.01681 0.0
C839 C 0.05748 0.80439 0.04486 0.0
C840 C 0.06476 0.8217 0.06527 0.0
C841 C 0.03827 0.79442 0.03341 0.0
C842 C -0.00233 0.80274 0.01456 0.0
H843 H 0.90538 0.72432 0.98406 0.0
H844 H 0.93743 0.73911 0.01159 0.0
H845 H 0.97348 0.80279 0.98935 0.0
H846 H 0.05743 0.84158 0.09171 0.0
H847 H 0.02363 0.82377 0.07307 0.0
H848 H 0.00095 0.76271 0.03236 0.0
C849 C 0.93486 0.74642 0.98832 0.0
C850 C 0.9794 0.79386 -0.00195 0.0
C851 C 0.91643 0.73796 0.97263 0.0
C852 C 0.05222 0.82832 0.0758 0.0
C853 C 0.0329 0.8182 0.06476 0.0
C854 C -0.00476 0.77167 0.0227 0.0
C855 C 0.9495 0.76439 0.97515 0.0
C856 C 0.96892 0.7738 0.99307 0.0
C857 C 0.0258 0.80139 0.04254 0.0
C858 C 0.00588 0.79177 0.02699 0.0
H859 H 0.92383 0.77263 0.90764 0.0
H860 H 0.95628 0.7871 0.93382 0.0
H861 H 0.96953 0.74735 0.00208 0.0
H862 H 0.06684 0.79898 0.03615 0.0
H863 H 0.03346 0.7817 0.01595 0.0
C864 C 0.84145 0.77994 0.93297 0.0
C865 C 0.83038 0.76094 0.91981 0.0
C866 C 0.83255 0.79015 0.94512 0.0
C867 C 0.78642 0.79027 0.94426 0.0
H868 H 0.80448 0.81637 0.04147 0.0
C869 C 0.74154 0.81365 0.03308 0.0
C870 C 0.75125 0.8322 0.04889 0.0
C871 C 0.75182 0.80562 0.01697 0.0
C872 C 0.79941 0.80934 0.01412 0.0
H873 H 0.80144 0.73808 0.90706 0.0
H874 H 0.78589 0.75583 0.92842 0.0
H875 H 0.82159 0.80205 0.01085 0.0
H876 H 0.77931 0.85667 0.0614 0.0
H877 H 0.79731 0.84261 0.03329 0.0
H878 H 0.76407 0.79732 0.94783 0.0
C879 C 0.80144 0.76292 0.92918 0.0
C880 C 0.80924 0.80119 -0.00352 0.0
C881 C 0.81034 0.75272 0.91703 0.0
C882 C 0.77145 0.84231 0.04953 0.0
C883 C 0.78174 0.83425 0.03347 0.0
C884 C 0.77657 0.79838 0.96193 0.0
C885 C 0.81241 0.78156 0.94431 0.0
C886 C 0.80276 0.79141 0.96151 0.0
C887 C 0.77202 0.81597 0.01638 0.0
C888 C 0.78284 0.80783 -0.00277 0.0
H889 H 0.85694 0.78667 0.93531 0.0
H890 H 0.84141 0.80461 0.95599 0.0
H891 H 0.78122 0.78307 0.91708 0.0
H892 H 0.72597 0.80549 0.03223 0.0
H893 H 0.74392 0.79135 0.00468 0.0
C894 C 0.17098 0.92631 0.04846 0.0
C895 C 0.15084 0.91552 0.0508 0.0
C896 C 0.18008 0.94495 0.03362 0.0
C897 C 0.17118 0.97598 0.96953 0.0
H898 H 0.21894 0.01653 0.01201 0.0
C899 C 0.20744 0.05563 0.92138 0.0
C900 C 0.22763 0.06599 0.91979 0.0
C901 C 0.19779 0.03678 0.93525 0.0
C902 C 0.20574 0.00528 -0.00049 0.0
H903 H 0.12442 0.91597 0.04072 0.0
H904 H 0.14036 0.94868 0.01523 0.0
H905 H 0.20244 0.98521 0.04316 0.0
H906 H 0.2535 0.06445 0.92945 0.0
H907 H 0.23664 0.03147 0.95315 0.0
H908 H 0.1745 -0.00387 0.92591 0.0
C909 C 0.14909 0.94261 0.02433 0.0
C910 C 0.19626 0.98736 0.01743 0.0
C911 C 0.13998 0.92395 0.03923 0.0
C912 C 0.23793 0.05685 0.93049 0.0
C913 C 0.22829 0.03802 0.94438 0.0
C914 C 0.18066 0.99394 0.95161 0.0
C915 C 0.16923 0.95319 0.02079 0.0
C916 C 0.1789 0.97248 0.00258 0.0
C917 C 0.20815 0.02795 0.94781 0.0
C918 C 0.1981 0.00875 0.96632 0.0
H919 H 0.17972 0.92016 0.05703 0.0
H920 H 0.19559 0.95263 0.03096 0.0
H921 H 0.15799 0.96472 0.95703 0.0
H922 H 0.19913 0.06233 0.9134 0.0
H923 H 0.18227 0.02943 0.9377 0.0
C924 C 0.92275 0.14225 0.93771 0.0
C925 C 0.91503 0.15368 0.92565 0.0
C926 C 0.94171 0.15077 0.95066 0.0
C927 C 0.97984 0.19633 0.99155 0.0
H928 H 0.01199 0.17384 0.97271 0.0
C929 C 0.05223 0.22366 0.069 0.0
C930 C 0.06765 0.22575 0.04661 0.0
C931 C 0.03347 0.21389 0.05466 0.0
C932 C 0.00325 0.18038 0.97806 0.0
H933 H 0.9213 0.18292 0.91601 0.0
H934 H 0.95459 0.19783 0.93772 0.0
H935 H 0.98023 0.15956 0.94361 0.0
H936 H 0.07553 0.21892 0.99204 0.0
H937 H 0.04295 0.2022 0.96684 0.0
H938 H 0.00305 0.21748 0.02506 0.0
C939 C 0.94586 0.18229 0.93806 0.0
C940 C 0.98496 0.17207 0.96167 0.0
C941 C 0.92686 0.17376 0.92529 0.0
C942 C 0.06392 0.21748 0.01004 0.0
C943 C 0.04521 0.2078 -0.00435 0.0
C944 C -0.00185 0.20468 0.00779 0.0
C945 C 0.95339 0.1709 0.95163 0.0
C946 C 0.97304 0.17996 0.9682 0.0
C947 C 0.02978 0.20609 0.01759 0.0
C948 C 0.01008 0.19681 0.00124 0.0
H949 H 0.91395 0.12672 0.93845 0.0
H950 H 0.94696 0.14156 0.96124 0.0
H951 H 0.97093 0.2026 -0.00231 0.0
H952 H 0.05468 0.22984 0.09735 0.0
H953 H 0.02186 0.21255 0.07254 0.0
C954 C 0.81745 0.54902 0.40298 0.0
C955 C 0.82556 0.56886 0.39659 0.0
C956 C 0.82663 0.53928 0.38956 0.0
C957 C 0.85967 0.54253 0.31418 0.0
H958 H 0.86317 0.50337 0.37258 0.0
C959 C 0.90274 0.50687 0.26224 0.0
C960 C 0.8954 0.48734 0.27076 0.0
C961 C 0.89391 0.51672 0.27689 0.0
C962 C 0.86206 0.51407 0.35568 0.0
H963 H 0.85 0.59422 0.37261 0.0
H964 H 0.86605 0.57722 0.34931 0.0
H965 H 0.8491 0.52106 0.40173 0.0
H966 H 0.87262 0.46255 0.29984 0.0
H967 H 0.85692 0.47959 0.32459 0.0
H968 H 0.87237 0.53541 0.26795 0.0
C969 C 0.8525 0.56917 0.36429 0.0
C970 C 0.85408 0.52425 0.37248 0.0
C971 C 0.84339 0.57891 0.3779 0.0
C972 C 0.87866 0.47765 0.29297 0.0
C973 C 0.86977 0.48745 0.30742 0.0
C974 C 0.86755 0.53227 0.2973 0.0
C975 C 0.84402 0.54919 0.36931 0.0
C976 C 0.85284 0.53861 0.35192 0.0
C977 C 0.8775 0.50719 0.30019 0.0
C978 C 0.86884 0.51792 0.31785 0.0
H979 H 0.80371 0.54089 0.41724 0.0
H980 H 0.81972 0.52386 0.39368 0.0
H981 H 0.8586 0.55329 0.29741 0.0
H982 H 0.91569 0.51473 0.24535 0.0
H983 H 0.90036 0.53196 0.27103 0.0
C984 C 0.474 0.3945 0.26141 0.0
C985 C 0.49403 0.40427 0.25619 0.0
C986 C 0.46445 0.37573 0.27566 0.0
C987 C 0.47364 0.34382 0.33575 0.0
H988 H 0.42354 0.30419 0.3005 0.0
C989 C 0.4374 0.26508 0.38792 0.0
C990 C 0.41732 0.25501 0.3922 0.0
C991 C 0.44679 0.28369 0.37288 0.0
C992 C 0.43741 0.3152 0.31104 0.0
H993 H 0.51963 0.40174 0.25978 0.0
H994 H 0.50291 0.36887 0.28433 0.0
H995 H 0.43984 0.33515 0.26777 0.0
H996 H 0.39141 0.25683 0.386 0.0
H997 H 0.40786 0.28948 0.36043 0.0
H998 H 0.4712 0.32397 0.37917 0.0
C999 C 0.49465 0.37584 0.27796 0.0
C1000 C 0.44677 0.33289 0.29215 0.0
C1001 C 0.50418 0.39458 0.26357 0.0
C1002 C 0.40691 0.26423 0.38291 0.0
C1003 C 0.4163 0.28285 0.36792 0.0
C1004 C 0.46427 0.32616 0.35471 0.0
C1005 C 0.47476 0.3664 0.28508 0.0
C1006 C 0.465 0.34738 0.30427 0.0
C1007 C 0.43629 0.29262 0.36188 0.0
C1008 C 0.44604 0.31164 0.34257 0.0
H1009 H 0.4658 0.40163 0.25604 0.0
H1010 H 0.44914 0.36888 0.28099 0.0
H1011 H 0.48752 0.35484 0.34623 0.0
H1012 H 0.4458 0.25832 0.39472 0.0
H1013 H 0.46218 0.29074 0.36837 0.0
C1014 C 0.5849 0.07084 0.29592 0.0
C1015 C 0.57951 0.08075 0.27024 0.0
C1016 C 0.60379 0.07927 0.30917 0.0
C1017 C 0.65345 0.11544 0.28821 0.0
H1018 H 0.66058 0.11781 0.3981 0.0
C1019 C 0.72747 0.14231 0.35875 0.0
C1020 C 0.73262 0.15696 0.3859 0.0
C1021 C 0.70861 0.13192 0.34527 0.0
C1022 C 0.65876 0.11721 0.36739 0.0
H1023 H 0.58972 0.10689 0.23713 0.0
H1024 H 0.62298 0.12148 0.25973 0.0
H1025 H 0.62802 0.10161 0.37144 0.0
H1026 H 0.72201 0.17177 0.42135 0.0
H1027 H 0.68883 0.15322 0.39835 0.0
H1028 H 0.68419 0.131 0.28416 0.0
C1029 C 0.6125 0.10726 0.26975 0.0
C1030 C 0.6402 0.10787 0.35216 0.0
C1031 C 0.59351 0.09895 0.25691 0.0
C1032 C 0.71841 0.16054 0.40043 0.0
C1033 C 0.69946 0.14993 0.38735 0.0
C1034 C 0.67202 0.12451 0.30342 0.0
C1035 C 0.6177 0.09763 0.29655 0.0
C1036 C 0.63739 0.10701 0.31245 0.0
C1037 C 0.6945 0.13578 0.35914 0.0
C1038 C 0.67482 0.12558 0.34315 0.0
H1039 H 0.5744 0.05681 0.30675 0.0
H1040 H 0.60751 0.0715 0.32957 0.0
H1041 H 0.65163 0.1149 0.2575 0.0
H1042 H 0.73814 0.13927 0.34698 0.0
H1043 H 0.70508 0.12095 0.32375 0.0
C1044 C 0.47404 0.08214 0.25986 0.0
C1045 C 0.4942 0.09135 0.25906 0.0
C1046 C 0.46483 0.0919 0.27292 0.0
C1047 C 0.47348 0.13191 0.33625 0.0
H1048 H 0.42605 0.125 0.29265 0.0
C1049 C 0.43746 0.17513 0.38556 0.0
C1050 C 0.41729 0.1653 0.38749 0.0
C1051 C 0.44704 0.16609 0.3706 0.0
C1052 C 0.43917 0.12688 0.30542 0.0
H1053 H 0.52055 0.11827 0.26933 0.0
H1054 H 0.50447 0.13541 0.2916 0.0
H1055 H 0.4426 0.11008 0.26201 0.0
H1056 H 0.39134 0.13809 0.37672 0.0
H1057 H 0.40807 0.12222 0.35108 0.0
H1058 H 0.47002 0.14866 0.37973 0.0
C1059 C 0.49578 0.12054 0.28283 0.0
C1060 C 0.44867 0.11839 0.28779 0.0
C1061 C 0.50498 0.11078 0.26976 0.0
C1062 C 0.4069 0.14604 0.37552 0.0
C1063 C 0.41647 0.13701 0.36052 0.0
C1064 C 0.46398 0.14041 0.35387 0.0
C1065 C 0.47562 0.11107 0.28543 0.0
C1066 C 0.46591 0.12076 0.30307 0.0
C1067 C 0.43662 0.14705 0.35723 0.0
C1068 C 0.44668 0.13793 0.33874 0.0
H1069 H 0.46536 0.06715 0.25187 0.0
H1070 H 0.44929 0.08415 0.27481 0.0
H1071 H 0.48654 0.13372 0.34915 0.0
H1072 H 0.44584 0.19001 0.39446 0.0
H1073 H 0.46256 0.17426 0.36822 0.0
C1074 C 0.80511 0.26136 0.38676 0.0
C1075 C 0.81614 0.25317 0.39873 0.0
C1076 C 0.81409 0.28029 0.37334 0.0
C1077 C 0.86109 0.32567 0.36843 0.0
H1078 H 0.84032 0.33368 0.27463 0.0
C1079 C 0.90489 0.39239 0.27552 0.0
C1080 C 0.89551 0.40225 0.26335 0.0
C1081 C 0.89445 0.37406 0.29145 0.0
C1082 C 0.84617 0.3317 0.301 0.0
H1083 H 0.84514 0.2586 0.4078 0.0
H1084 H 0.8608 0.2915 0.38413 0.0
H1085 H 0.82333 0.30261 0.30696 0.0
H1086 H 0.86775 0.40029 0.25651 0.0
H1087 H 0.84943 0.36809 0.28417 0.0
H1088 H 0.8841 0.35464 0.36206 0.0
C1089 C 0.84524 0.28344 0.38538 0.0
C1090 C 0.83641 0.31395 0.31965 0.0
C1091 C 0.83627 0.26455 0.39886 0.0
C1092 C 0.87535 0.39301 0.26559 0.0
C1093 C 0.86488 0.37459 0.28141 0.0
C1094 C 0.87088 0.34336 0.3497 0.0
C1095 C 0.83426 0.29137 0.3716 0.0
C1096 C 0.84386 0.31068 0.3534 0.0
C1097 C 0.87439 0.36517 0.29543 0.0
C1098 C 0.86363 0.34649 0.31558 0.0
H1099 H 0.78955 0.25294 0.38645 0.0
H1100 H 0.80523 0.2861 0.36359 0.0
H1101 H 0.86705 0.32373 0.39469 0.0
H1102 H 0.92041 0.39912 0.27406 0.0
H1103 H 0.90212 0.36698 0.30132 0.0
C1104 C 0.59339 0.48308 0.2648 0.0
C1105 C 0.58326 0.49315 0.26408 0.0
C1106 C 0.61223 0.49192 0.27863 0.0
C1107 C 0.65444 0.53919 0.30174 0.0
H1108 H 0.66641 0.50969 0.37309 0.0
C1109 C 0.72358 0.57482 0.39157 0.0
C1110 C 0.73395 0.56503 0.39368 0.0
C1111 C 0.70491 0.56567 0.37689 0.0
C1112 C 0.66336 0.51805 0.35296 0.0
H1113 H 0.58511 0.52054 0.27582 0.0
H1114 H 0.61795 0.53594 0.29996 0.0
H1115 H 0.63499 0.49466 0.34218 0.0
H1116 H 0.73269 0.53778 0.38349 0.0
H1117 H 0.70012 0.52182 0.35768 0.0
H1118 H 0.68278 0.56258 0.31251 0.0
C1119 C 0.61141 0.52128 0.28968 0.0
C1120 C 0.64538 0.50943 0.33515 0.0
C1121 C 0.59258 0.51244 0.27596 0.0
C1122 C 0.72502 0.54567 0.38231 0.0
C1123 C 0.70634 0.53652 0.3676 0.0
C1124 C 0.67241 0.5478 0.31951 0.0
C1125 C 0.62131 0.511 0.29186 0.0
C1126 C 0.6407 0.51993 0.30946 0.0
C1127 C 0.69624 0.54654 0.36399 0.0
C1128 C 0.67704 0.53736 0.34545 0.0
H1129 H 0.58657 0.4682 0.25578 0.0
H1130 H 0.6196 0.48373 0.27941 0.0
H1131 H 0.65136 0.54757 0.28171 0.0
H1132 H 0.73008 0.58974 0.40022 0.0
H1133 H 0.69736 0.57366 0.37516 0.0
C1134 C 0.54836 0.81165 0.6348 0.0
C1135 C 0.56298 0.81942 0.60716 0.0
C1136 C 0.54054 0.82247 0.64905 0.0
C1137 C 0.53506 0.86452 0.62835 0.0
H1138 H 0.52447 0.86203 0.73691 0.0
C1139 C 0.51001 0.91298 0.69881 0.0
C1140 C 0.49431 0.90378 0.72387 0.0
C1141 C 0.51956 0.90352 0.68609 0.0
C1142 C 0.52723 0.86276 0.70651 0.0
H1143 H 0.58071 0.84448 0.57234 0.0
H1144 H 0.56713 0.86352 0.59749 0.0
H1145 H 0.53864 0.8438 0.71068 0.0
H1146 H 0.47666 0.87774 0.75623 0.0
H1147 H 0.49336 0.86117 0.73396 0.0
H1148 H 0.52359 0.88344 0.6242 0.0
C1149 C 0.56158 0.84898 0.60786 0.0
C1150 C 0.53531 0.8523 0.69146 0.0
C1151 C 0.5694 0.83811 0.59353 0.0
C1152 C 0.48874 0.88519 0.73697 0.0
C1153 C 0.49834 0.87573 0.72432 0.0
C1154 C 0.52703 0.87501 0.64343 0.0
C1155 C 0.54719 0.84133 0.63607 0.0
C1156 C 0.53917 0.85294 0.65216 0.0
C1157 C 0.51364 0.88469 0.69824 0.0
C1158 C 0.52291 0.87414 0.68263 0.0
H1159 H 0.54307 0.79724 0.64575 0.0
H1160 H 0.52922 0.81602 0.67021 0.0
H1161 H 0.53763 0.86512 0.5979 0.0
H1162 H 0.51466 0.92734 0.68832 0.0
H1163 H 0.53148 0.91089 0.66646 0.0
C1164 C 0.16835 0.72681 0.59071 0.0
C1165 C 0.16104 0.73914 0.59795 0.0
C1166 C 0.15887 0.70798 0.60467 0.0
C1167 C 0.12525 0.6785 0.68062 0.0
H1168 H 0.12189 0.63589 0.62233 0.0
C1169 C 0.08029 0.59903 0.72842 0.0
C1170 C 0.08823 0.58717 0.72195 0.0
C1171 C 0.08946 0.61787 0.71454 0.0
C1172 C 0.12292 0.6477 0.63913 0.0
H1173 H 0.13772 0.74128 0.62414 0.0
H1174 H 0.12098 0.7083 0.64794 0.0
H1175 H 0.13647 0.66778 0.59354 0.0
H1176 H 0.11234 0.58592 0.69724 0.0
H1177 H 0.12843 0.61887 0.67336 0.0
H1178 H 0.11163 0.65837 0.72616 0.0
C1179 C 0.13423 0.71327 0.63213 0.0
C1180 C 0.13125 0.66595 0.62261 0.0
C1181 C 0.14372 0.7321 0.61824 0.0
C1182 C 0.10585 0.59471 0.70256 0.0
C1183 C 0.11498 0.61352 0.68862 0.0
C1184 C 0.11689 0.66023 0.69711 0.0
C1185 C 0.14187 0.70111 0.62609 0.0
C1186 C 0.13255 0.68158 0.64319 0.0
C1187 C 0.10671 0.62518 0.69385 0.0
C1188 C 0.1157 0.64465 0.67658 0.0
H1189 H 0.18172 0.73187 0.57528 0.0
H1190 H 0.16523 0.69904 0.5998 0.0
H1191 H 0.12633 0.69031 0.69748 0.0
H1192 H 0.06669 0.59357 0.74319 0.0
H1193 H 0.08267 0.62647 0.71881 0.0
C1194 C 0.39807 0.48809 0.66574 0.0
C1195 C 0.40186 0.49316 0.70447 0.0
C1196 C 0.37928 0.47904 0.65188 0.0
C1197 C 0.32906 0.44949 0.68094 0.0
H1198 H 0.31838 0.46679 0.58531 0.0
C1199 C 0.25643 0.40647 0.60423 0.0
C1200 C 0.24771 0.41703 0.59242 0.0
C1201 C 0.2756 0.41591 0.61599 0.0
C1202 C 0.32115 0.46185 0.61209 0.0
H1203 H 0.38899 0.4926 0.75916 0.0
H1204 H 0.35594 0.47655 0.73486 0.0
H1205 H 0.35099 0.48334 0.61135 0.0
H1206 H 0.25242 0.44569 0.582 0.0
H1207 H 0.28606 0.46222 0.60226 0.0
H1208 H 0.29921 0.42806 0.68178 0.0
C1209 C 0.36759 0.47961 0.71533 0.0
C1210 C 0.33981 0.47122 0.62685 0.0
C1211 C 0.38646 0.48883 0.7292 0.0
C1212 C 0.25878 0.43719 0.59091 0.0
C1213 C 0.27802 0.44664 0.60246 0.0
C1214 C 0.31044 0.44003 0.66602 0.0
C1215 C 0.36385 0.47474 0.67646 0.0
C1216 C 0.34395 0.46511 0.66139 0.0
C1217 C 0.28648 0.43609 0.61594 0.0
C1218 C 0.30631 0.44609 0.63141 0.0
H1219 H 0.40964 0.49123 0.64597 0.0
H1220 H 0.37681 0.47523 0.62192 0.0
H1221 H 0.33188 0.44439 0.70745 0.0
H1222 H 0.24826 0.39091 0.60565 0.0
H1223 H 0.28185 0.40742 0.62567 0.0
C1224 C 0.15514 0.42861 0.58927 0.0
C1225 C 0.16877 0.42718 0.61199 0.0
C1226 C 0.14711 0.43964 0.60142 0.0
C1227 C 0.13639 0.45759 0.68856 0.0
H1228 H 0.1281 0.4904 0.61924 0.0
C1229 C 0.10216 0.50262 0.73782 0.0
C1230 C 0.0889 0.50324 0.71258 0.0
C1231 C 0.11336 0.49466 0.72616 0.0
C1232 C 0.13015 0.48116 0.63889 0.0
H1233 H 0.18505 0.43649 0.66477 0.0
H1234 H 0.17098 0.4557 0.686 0.0
H1235 H 0.14513 0.47423 0.59697 0.0
H1236 H 0.07673 0.49582 0.65562 0.0
H1237 H 0.09583 0.48161 0.63567 0.0
H1238 H 0.12099 0.46408 0.73021 0.0
C1239 C 0.16642 0.44821 0.65894 0.0
C1240 C 0.13994 0.47195 0.62612 0.0
C1241 C 0.17454 0.43731 0.64667 0.0
C1242 C 0.08693 0.49566 0.67566 0.0
C1243 C 0.098 0.48764 0.66411 0.0
C1244 C 0.12648 0.4667 0.70128 0.0
C1245 C 0.15247 0.44932 0.63665 0.0
C1246 C 0.143 0.45993 0.65071 0.0
C1247 C 0.11142 0.48712 0.6891 0.0
C1248 C 0.12304 0.47842 0.67645 0.0
H1249 H 0.15041 0.42094 0.56243 0.0
H1250 H 0.13627 0.44011 0.5838 0.0
H1251 H 0.13836 0.44823 0.70803 0.0
H1252 H 0.10401 0.50843 0.7664 0.0
H1253 H 0.12369 0.49463 0.746 0.0
C1254 C 0.49424 0.59506 0.72714 0.0
C1255 C 0.47726 0.57981 0.71206 0.0
C1256 C 0.50229 0.61342 0.71113 0.0
C1257 C 0.49254 0.64344 0.64328 0.0
H1258 H 0.54817 0.67209 0.63741 0.0
C1259 C 0.53525 0.7229 0.59559 0.0
C1260 C 0.55332 0.72969 0.57851 0.0
C1261 C 0.52467 0.70389 0.6083 0.0
C1262 C 0.53261 0.66419 0.63813 0.0
H1263 H 0.45505 0.57183 0.6692 0.0
H1264 H 0.46937 0.60361 0.64045 0.0
H1265 H 0.53228 0.64092 0.66819 0.0
H1266 H 0.57386 0.72167 0.55851 0.0
H1267 H 0.555 0.68824 0.57891 0.0
H1268 H 0.4929 0.66642 0.61168 0.0
C1269 C 0.47631 0.60164 0.66517 0.0
C1270 C 0.52347 0.64642 0.6566 0.0
C1271 C 0.46811 0.58337 0.68157 0.0
C1272 C 0.56002 0.71682 0.5719 0.0
C1273 C 0.5493 0.69773 0.58401 0.0
C1274 C 0.50168 0.66114 0.6243 0.0
C1275 C 0.49371 0.61684 0.67926 0.0
C1276 C 0.50332 0.63586 0.65974 0.0
C1277 C 0.53182 0.6912 0.60365 0.0
C1278 C 0.52186 0.6718 0.62168 0.0
H1279 H 0.50151 0.59273 0.75082 0.0
H1280 H 0.51542 0.62487 0.72342 0.0
H1281 H 0.477 0.63583 0.64537 0.0
H1282 H 0.52978 0.73255 0.60124 0.0
H1283 H 0.51139 0.69951 0.62355 0.0
C1284 C 0.25624 0.80637 0.62787 0.0
C1285 C 0.25193 0.81601 0.59948 0.0
C1286 C 0.27486 0.81436 0.64246 0.0
C1287 C 0.31863 0.86133 0.65467 0.0
H1288 H 0.34174 0.83074 0.68335 0.0
C1289 C 0.3887 0.8941 0.74115 0.0
C1290 C 0.4028 0.89012 0.7276 0.0
C1291 C 0.36982 0.88362 0.72773 0.0
C1292 C 0.3355 0.83948 0.67537 0.0
H1293 H 0.26388 0.84111 0.5628 0.0
H1294 H 0.29654 0.85496 0.58781 0.0
H1295 H 0.31042 0.81535 0.65182 0.0
H1296 H 0.40804 0.87148 0.69091 0.0
H1297 H 0.37514 0.85329 0.6673 0.0
H1298 H 0.34383 0.88551 0.67739 0.0
C1299 C 0.28542 0.84139 0.59933 0.0
C1300 C 0.31751 0.83065 0.65756 0.0
C1301 C 0.26677 0.8334 0.58477 0.0
C1302 C 0.39747 0.87487 0.70185 0.0
C1303 C 0.37859 0.8644 0.68843 0.0
C1304 C 0.33659 0.87014 0.67244 0.0
C1305 C 0.28958 0.83216 0.62891 0.0
C1306 C 0.3089 0.8415 0.64693 0.0
C1307 C 0.36468 0.86898 0.7005 0.0
C1308 C 0.34524 0.85933 0.68299 0.0
H1309 H 0.24507 0.79294 0.63983 0.0
H1310 H 0.27752 0.80696 0.66544 0.0
H1311 H 0.31228 0.87005 0.6474 0.0
H1312 H 0.39238 0.90573 0.76114 0.0
H1313 H 0.35933 0.88725 0.73811 0.0
loop_
_geom_bond_atom_site_label_1
_geom_bond_atom_site_label_2
_geom_bond_distance
_geom_bond_site_symmetry_2
_ccdc_geom_bond_type
In0 O1 2.294 . S
In0 O2 2.326 . S
In0 O6 2.266 . S
In0 O7 2.326 1_554 S
In0 O8 2.266 . S
In0 O9 2.326 . S
In0 O11 2.294 . S
In0 O12 2.326 . S
O1 In0 2.294 . S
O1 C10 1.240 . S
O2 In0 2.326 . S
O2 C10 1.252 . S
C3 O6 1.252 1_556 S
C3 O7 1.260 . S
C4 O11 1.240 . S
C4 O12 1.252 . S
C5 O8 1.252 . S
C5 O9 1.260 . S
O6 In0 2.266 . S
O6 C3 1.252 1_554 S
O7 In0 2.326 1_556 S
O7 C3 1.260 . S
O8 In0 2.266 . S
O8 C5 1.252 . S
O9 In0 2.326 . S
O9 C5 1.260 . S
C10 O1 1.240 . S
C10 O2 1.252 . S
O11 In0 2.294 . S
O11 C4 1.240 . S
O12 In0 2.326 . S
O12 C4 1.252 . S
In13 O14 2.294 . S
In13 O15 2.326 . S
In13 O19 2.266 . S
In13 O20 2.326 . S
In13 O21 2.266 . S
In13 O22 2.326 1_554 S
In13 O24 2.294 . S
In13 O25 2.326 . S
O14 In13 2.294 . S
O14 C23 1.240 . S
O15 In13 2.326 . S
O15 C23 1.252 . S
C16 O19 1.252 . S
C16 O20 1.260 . S
C17 O24 1.240 . S
C17 O25 1.252 . S
C18 O21 1.252 1_556 S
C18 O22 1.260 . S
O19 In13 2.266 . S
O19 C16 1.252 . S
O20 In13 2.326 . S
O20 C16 1.260 . S
O21 In13 2.266 . S
O21 C18 1.252 1_554 S
O22 In13 2.326 1_556 S
O22 C18 1.260 . S
C23 O14 1.240 . S
C23 O15 1.252 . S
O24 In13 2.294 . S
O24 C17 1.240 . S
O25 In13 2.326 . S
O25 C17 1.252 . S
In26 O27 2.294 . S
In26 O28 2.326 . S
In26 O32 2.266 . S
In26 O33 2.326 . S
In26 O34 2.266 . S
In26 O35 2.326 1_554 S
In26 O37 2.294 . S
In26 O38 2.326 . S
O27 In26 2.294 . S
O27 C36 1.240 . S
O28 In26 2.326 . S
O28 C36 1.252 . S
C29 O32 1.252 . S
C29 O33 1.260 . S
C30 O37 1.240 . S
C30 O38 1.252 . S
C31 O34 1.252 1_556 S
C31 O35 1.260 . S
O32 In26 2.266 . S
O32 C29 1.252 . S
O33 In26 2.326 . S
O33 C29 1.260 . S
O34 In26 2.266 . S
O34 C31 1.252 1_554 S
O35 In26 2.326 1_556 S
O35 C31 1.260 . S
C36 O27 1.240 . S
C36 O28 1.252 . S
O37 In26 2.294 . S
O37 C30 1.240 . S
O38 In26 2.326 . S
O38 C30 1.252 . S
In39 O40 2.294 . S
In39 O41 2.326 . S
In39 O45 2.266 . S
In39 O46 2.326 1_556 S
In39 O47 2.266 . S
In39 O48 2.326 . S
In39 O50 2.294 . S
In39 O51 2.326 . S
O40 In39 2.294 . S
O40 C49 1.240 . S
O41 In39 2.326 . S
O41 C49 1.252 . S
C42 O45 1.252 1_554 S
C42 O46 1.260 . S
C43 O50 1.240 . S
C43 O51 1.252 . S
C44 O47 1.252 . S
C44 O48 1.260 . S
O45 In39 2.266 . S
O45 C42 1.252 1_556 S
O46 In39 2.326 1_554 S
O46 C42 1.260 . S
O47 In39 2.266 . S
O47 C44 1.252 . S
O48 In39 2.326 . S
O48 C44 1.260 . S
C49 O40 1.240 . S
C49 O41 1.252 . S
O50 In39 2.294 . S
O50 C43 1.240 . S
O51 In39 2.326 . S
O51 C43 1.252 . S
In52 O53 2.294 . S
In52 O54 2.326 . S
In52 O58 2.266 . S
In52 O59 2.326 1_556 S
In52 O60 2.266 . S
In52 O61 2.326 . S
In52 O63 2.294 . S
In52 O64 2.326 . S
O53 In52 2.294 . S
O53 C62 1.240 . S
O54 In52 2.326 . S
O54 C62 1.252 . S
C55 O58 1.252 1_554 S
C55 O59 1.260 . S
C56 O63 1.240 . S
C56 O64 1.252 . S
C57 O60 1.252 . S
C57 O61 1.260 . S
O58 In52 2.266 . S
O58 C55 1.252 1_556 S
O59 In52 2.326 1_554 S
O59 C55 1.260 . S
O60 In52 2.266 . S
O60 C57 1.252 . S
O61 In52 2.326 . S
O61 C57 1.260 . S
C62 O53 1.240 . S
C62 O54 1.252 . S
O63 In52 2.294 . S
O63 C56 1.240 . S
O64 In52 2.326 . S
O64 C56 1.252 . S
In65 O66 2.294 . S
In65 O67 2.326 . S
In65 O71 2.266 . S
In65 O72 2.326 . S
In65 O73 2.266 . S
In65 O74 2.326 1_556 S
In65 O76 2.294 . S
In65 O77 2.326 . S
O66 In65 2.294 . S
O66 C75 1.240 . S
O67 In65 2.326 . S
O67 C75 1.252 . S
C68 O71 1.252 . S
C68 O72 1.260 . S
C69 O76 1.240 . S
C69 O77 1.252 . S
C70 O73 1.252 1_554 S
C70 O74 1.260 . S
O71 In65 2.266 . S
O71 C68 1.252 . S
O72 In65 2.326 . S
O72 C68 1.260 . S
O73 In65 2.266 . S
O73 C70 1.252 1_556 S
O74 In65 2.326 1_554 S
O74 C70 1.260 . S
C75 O66 1.240 . S
C75 O67 1.252 . S
O76 In65 2.294 . S
O76 C69 1.240 . S
O77 In65 2.326 . S
O77 C69 1.252 . S
In78 O79 2.294 . S
In78 O80 2.326 . S
In78 O84 2.266 . S
In78 O85 2.326 . S
In78 O86 2.266 . S
In78 O87 2.326 . S
In78 O89 2.294 . S
In78 O90 2.326 . S
O79 In78 2.294 . S
O79 C88 1.240 . S
O80 In78 2.326 . S
O80 C88 1.252 . S
C81 O84 1.252 . S
C81 O85 1.260 . S
C82 O89 1.240 . S
C82 O90 1.252 . S
C83 O86 1.252 . S
C83 O87 1.260 . S
O84 In78 2.266 . S
O84 C81 1.252 . S
O85 In78 2.326 . S
O85 C81 1.260 . S
O86 In78 2.266 . S
O86 C83 1.252 . S
O87 In78 2.326 . S
O87 C83 1.260 . S
C88 O79 1.240 . S
C88 O80 1.252 . S
O89 In78 2.294 . S
O89 C82 1.240 . S
O90 In78 2.326 . S
O90 C82 1.252 . S
In91 O92 2.294 . S
In91 O93 2.326 . S
In91 O97 2.266 . S
In91 O98 2.326 . S
In91 O99 2.266 . S
In91 O100 2.326 . S
In91 O102 2.294 . S
In91 O103 2.326 . S
O92 In91 2.294 . S
O92 C101 1.240 . S
O93 In91 2.326 . S
O93 C101 1.252 . S
C94 O97 1.252 . S
C94 O98 1.260 . S
C95 O102 1.240 . S
C95 O103 1.252 . S
C96 O99 1.252 . S
C96 O100 1.260 . S
O97 In91 2.266 . S
O97 C94 1.252 . S
O98 In91 2.326 . S
O98 C94 1.260 . S
O99 In91 2.266 . S
O99 C96 1.252 . S
O100 In91 2.326 . S
O100 C96 1.260 . S
C101 O92 1.240 . S
C101 O93 1.252 . S
O102 In91 2.294 . S
O102 C95 1.240 . S
O103 In91 2.326 . S
O103 C95 1.252 . S
In104 O105 2.294 . S
In104 O106 2.326 . S
In104 O110 2.266 . S
In104 O111 2.326 . S
In104 O112 2.266 . S
In104 O113 2.326 . S
In104 O115 2.294 . S
In104 O116 2.326 . S
O105 In104 2.294 . S
O105 C114 1.240 . S
O106 In104 2.326 . S
O106 C114 1.252 . S
C107 O110 1.252 . S
C107 O111 1.260 . S
C108 O115 1.240 . S
C108 O116 1.252 . S
C109 O112 1.252 . S
C109 O113 1.260 . S
O110 In104 2.266 . S
O110 C107 1.252 . S
O111 In104 2.326 . S
O111 C107 1.260 . S
O112 In104 2.266 . S
O112 C109 1.252 . S
O113 In104 2.326 . S
O113 C109 1.260 . S
C114 O105 1.240 . S
C114 O106 1.252 . S
O115 In104 2.294 . S
O115 C108 1.240 . S
O116 In104 2.326 . S
O116 C108 1.252 . S
In117 O118 2.294 . S
In117 O119 2.326 . S
In117 O123 2.266 . S
In117 O124 2.326 . S
In117 O125 2.266 . S
In117 O126 2.326 . S
In117 O128 2.294 . S
In117 O129 2.326 . S
O118 In117 2.294 . S
O118 C127 1.240 . S
O119 In117 2.326 . S
O119 C127 1.252 . S
C120 O123 1.252 . S
C120 O124 1.260 . S
C121 O128 1.240 . S
C121 O129 1.252 . S
C122 O125 1.252 . S
C122 O126 1.260 . S
O123 In117 2.266 . S
O123 C120 1.252 . S
O124 In117 2.326 . S
O124 C120 1.260 . S
O125 In117 2.266 . S
O125 C122 1.252 . S
O126 In117 2.326 . S
O126 C122 1.260 . S
C127 O118 1.240 . S
C127 O119 1.252 . S
O128 In117 2.294 . S
O128 C121 1.240 . S
O129 In117 2.326 . S
O129 C121 1.252 . S
In130 O131 2.294 . S
In130 O132 2.326 . S
In130 O136 2.266 . S
In130 O137 2.326 . S
In130 O138 2.266 . S
In130 O139 2.326 . S
In130 O141 2.294 . S
In130 O142 2.326 . S
O131 In130 2.294 . S
O131 C140 1.240 . S
O132 In130 2.326 . S
O132 C140 1.252 . S
C133 O136 1.252 . S
C133 O137 1.260 . S
C134 O141 1.240 . S
C134 O142 1.252 . S
C135 O138 1.252 . S
C135 O139 1.260 . S
O136 In130 2.266 . S
O136 C133 1.252 . S
O137 In130 2.326 . S
O137 C133 1.260 . S
O138 In130 2.266 . S
O138 C135 1.252 . S
O139 In130 2.326 . S
O139 C135 1.260 . S
C140 O131 1.240 . S
C140 O132 1.252 . S
O141 In130 2.294 . S
O141 C134 1.240 . S
O142 In130 2.326 . S
O142 C134 1.252 . S
In143 O144 2.294 . S
In143 O145 2.326 . S
In143 O149 2.266 . S
In143 O150 2.326 . S
In143 O151 2.266 . S
In143 O152 2.326 . S
In143 O154 2.294 . S
In143 O155 2.326 . S
O144 In143 2.294 . S
O144 C153 1.240 . S
O145 In143 2.326 . S
O145 C153 1.252 . S
C146 O149 1.252 . S
C146 O150 1.260 . S
C147 O154 1.240 . S
C147 O155 1.252 . S
C148 O151 1.252 . S
C148 O152 1.260 . S
O149 In143 2.266 . S
O149 C146 1.252 . S
O150 In143 2.326 . S
O150 C146 1.260 . S
O151 In143 2.266 . S
O151 C148 1.252 . S
O152 In143 2.326 . S
O152 C148 1.260 . S
C153 O144 1.240 . S
C153 O145 1.252 . S
O154 In143 2.294 . S
O154 C147 1.240 . S
O155 In143 2.326 . S
O155 C147 1.252 . S
In156 O157 2.294 . S
In156 O158 2.326 . S
In156 O162 2.266 . S
In156 O163 2.326 . S
In156 O164 2.266 . S
In156 O165 2.326 . S
In156 O167 2.294 . S
In156 O168 2.326 . S
O157 In156 2.294 . S
O157 C166 1.240 . S
O158 In156 2.326 . S
O158 C166 1.252 . S
C159 O162 1.252 . S
C159 O163 1.260 . S
C160 O167 1.240 . S
C160 O168 1.252 . S
C161 O164 1.252 . S
C161 O165 1.260 . S
O162 In156 2.266 . S
O162 C159 1.252 . S
O163 In156 2.326 . S
O163 C159 1.260 . S
O164 In156 2.266 . S
O164 C161 1.252 . S
O165 In156 2.326 . S
O165 C161 1.260 . S
C166 O157 1.240 . S
C166 O158 1.252 . S
O167 In156 2.294 . S
O167 C160 1.240 . S
O168 In156 2.326 . S
O168 C160 1.252 . S
In169 O170 2.294 . S
In169 O171 2.326 . S
In169 O175 2.266 . S
In169 O176 2.326 . S
In169 O177 2.266 . S
In169 O178 2.326 . S
In169 O180 2.294 . S
In169 O181 2.326 . S
O170 In169 2.294 . S
O170 C179 1.240 . S
O171 In169 2.326 . S
O171 C179 1.252 . S
C172 O175 1.252 . S
C172 O176 1.260 . S
C173 O180 1.240 . S
C173 O181 1.252 . S
C174 O177 1.252 . S
C174 O178 1.260 . S
O175 In169 2.266 . S
O175 C172 1.252 . S
O176 In169 2.326 . S
O176 C172 1.260 . S
O177 In169 2.266 . S
O177 C174 1.252 . S
O178 In169 2.326 . S
O178 C174 1.260 . S
C179 O170 1.240 . S
C179 O171 1.252 . S
O180 In169 2.294 . S
O180 C173 1.240 . S
O181 In169 2.326 . S
O181 C173 1.252 . S
In182 O183 2.294 . S
In182 O184 2.326 . S
In182 O188 2.266 . S
In182 O189 2.326 . S
In182 O190 2.266 . S
In182 O191 2.326 . S
In182 O193 2.294 . S
In182 O194 2.326 . S
O183 In182 2.294 . S
O183 C192 1.240 . S
O184 In182 2.326 . S
O184 C192 1.252 . S
C185 O188 1.252 . S
C185 O189 1.260 . S
C186 O193 1.240 . S
C186 O194 1.252 . S
C187 O190 1.252 . S
C187 O191 1.260 . S
O188 In182 2.266 . S
O188 C185 1.252 . S
O189 In182 2.326 . S
O189 C185 1.260 . S
O190 In182 2.266 . S
O190 C187 1.252 . S
O191 In182 2.326 . S
O191 C187 1.260 . S
C192 O183 1.240 . S
C192 O184 1.252 . S
O193 In182 2.294 . S
O193 C186 1.240 . S
O194 In182 2.326 . S
O194 C186 1.252 . S
In195 O196 2.294 . S
In195 O197 2.326 . S
In195 O201 2.266 . S
In195 O202 2.326 . S
In195 O203 2.266 . S
In195 O204 2.326 . S
In195 O206 2.294 . S
In195 O207 2.326 . S
O196 In195 2.294 . S
O196 C205 1.240 . S
O197 In195 2.326 . S
O197 C205 1.252 . S
C198 O201 1.252 . S
C198 O202 1.260 . S
C199 O206 1.240 . S
C199 O207 1.252 . S
C200 O203 1.252 . S
C200 O204 1.260 . S
O201 In195 2.266 . S
O201 C198 1.252 . S
O202 In195 2.326 . S
O202 C198 1.260 . S
O203 In195 2.266 . S
O203 C200 1.252 . S
O204 In195 2.326 . S
O204 C200 1.260 . S
C205 O196 1.240 . S
C205 O197 1.252 . S
O206 In195 2.294 . S
O206 C199 1.240 . S
O207 In195 2.326 . S
O207 C199 1.252 . S
In208 O209 2.294 . S
In208 O210 2.326 . S
In208 O214 2.266 . S
In208 O215 2.326 . S
In208 O216 2.266 . S
In208 O217 2.326 . S
In208 O219 2.294 . S
In208 O220 2.326 . S
O209 In208 2.294 . S
O209 C218 1.240 . S
O210 In208 2.326 . S
O210 C218 1.252 . S
C211 O214 1.252 . S
C211 O215 1.260 . S
C212 O219 1.240 . S
C212 O220 1.252 . S
C213 O216 1.252 . S
C213 O217 1.260 . S
O214 In208 2.266 . S
O214 C211 1.252 . S
O215 In208 2.326 . S
O215 C211 1.260 . S
O216 In208 2.266 . S
O216 C213 1.252 . S
O217 In208 2.326 . S
O217 C213 1.260 . S
C218 O209 1.240 . S
C218 O210 1.252 . S
O219 In208 2.294 . S
O219 C212 1.240 . S
O220 In208 2.326 . S
O220 C212 1.252 . S
In221 O222 2.294 . S
In221 O223 2.326 . S
In221 O227 2.266 . S
In221 O228 2.326 . S
In221 O229 2.266 . S
In221 O230 2.326 . S
In221 O232 2.294 . S
In221 O233 2.326 . S
O222 In221 2.294 . S
O222 C231 1.240 . S
O223 In221 2.326 . S
O223 C231 1.252 . S
C224 O227 1.252 . S
C224 O228 1.260 . S
C225 O232 1.240 . S
C225 O233 1.252 . S
C226 O229 1.252 . S
C226 O230 1.260 . S
O227 In221 2.266 . S
O227 C224 1.252 . S
O228 In221 2.326 . S
O228 C224 1.260 . S
O229 In221 2.266 . S
O229 C226 1.252 . S
O230 In221 2.326 . S
O230 C226 1.260 . S
C231 O222 1.240 . S
C231 O223 1.252 . S
O232 In221 2.294 . S
O232 C225 1.240 . S
O233 In221 2.326 . S
O233 C225 1.252 . S
C234 C235 1.349 . S
C234 C236 1.327 . S
C234 H259 0.950 . S
C235 C234 1.349 . S
C235 C251 1.349 . S
C236 C234 1.327 . S
C236 C255 1.429 . S
C236 H260 0.950 . S
C237 C254 1.574 . S
C237 C256 1.368 . S
C237 H261 0.949 . S
H238 C242 0.949 . S
C239 C240 1.349 . S
C239 C241 1.327 . S
C239 H262 0.950 . S
C240 C239 1.349 . S
C240 C252 1.349 . S
C241 C239 1.327 . S
C241 C257 1.429 . S
C241 H263 0.950 . S
C242 H238 0.949 . S
C242 C250 1.574 . S
C242 C258 1.368 . S
H243 C251 0.950 . S
H244 C249 0.950 . S
H245 C250 0.949 . S
H246 C252 0.950 . S
H247 C253 0.950 . S
H248 C254 0.949 . S
C249 H244 0.950 . S
C249 C251 1.327 . S
C249 C255 1.429 . S
C250 C242 1.574 . S
C250 H245 0.949 . S
C250 C256 1.368 . S
C251 C235 1.349 . S
C251 H243 0.950 . S
C251 C249 1.327 . S
C252 C240 1.349 . S
C252 H246 0.950 . S
C252 C253 1.327 . S
C253 H247 0.950 . S
C253 C252 1.327 . S
C253 C257 1.429 . S
C254 C237 1.574 . S
C254 H248 0.949 . S
C254 C258 1.368 . S
C255 C236 1.429 . S
C255 C249 1.429 . S
C255 C256 1.523 . S
C256 C237 1.368 . S
C256 C250 1.368 . S
C256 C255 1.523 . S
C257 C241 1.429 . S
C257 C253 1.429 . S
C257 C258 1.523 . S
C258 C242 1.368 . S
C258 C254 1.368 . S
C258 C257 1.523 . S
H259 C234 0.950 . S
H260 C236 0.950 . S
H261 C237 0.949 . S
H262 C239 0.950 . S
H263 C241 0.950 . S
C264 C265 1.349 . S
C264 C266 1.327 . S
C264 H289 0.950 . S
C265 C264 1.349 . S
C265 C281 1.349 . S
C266 C264 1.327 . S
C266 C285 1.429 . S
C266 H290 0.950 . S
C267 C284 1.574 . S
C267 C286 1.368 . S
C267 H291 0.949 . S
H268 C272 0.949 . S
C269 C270 1.349 . S
C269 C271 1.327 . S
C269 H292 0.950 . S
C270 C269 1.349 . S
C270 C282 1.349 . S
C271 C269 1.327 . S
C271 C287 1.429 . S
C271 H293 0.950 . S
C272 H268 0.949 . S
C272 C280 1.574 . S
C272 C288 1.368 . S
H273 C281 0.950 . S
H274 C279 0.950 . S
H275 C280 0.949 . S
H276 C282 0.950 . S
H277 C283 0.950 . S
H278 C284 0.949 . S
C279 H274 0.950 . S
C279 C281 1.327 . S
C279 C285 1.429 . S
C280 C272 1.574 . S
C280 H275 0.949 . S
C280 C286 1.368 . S
C281 C265 1.349 . S
C281 H273 0.950 . S
C281 C279 1.327 . S
C282 C270 1.349 . S
C282 H276 0.950 . S
C282 C283 1.327 . S
C283 H277 0.950 . S
C283 C282 1.327 . S
C283 C287 1.429 . S
C284 C267 1.574 . S
C284 H278 0.949 . S
C284 C288 1.368 . S
C285 C266 1.429 . S
C285 C279 1.429 . S
C285 C286 1.523 . S
C286 C267 1.368 . S
C286 C280 1.368 . S
C286 C285 1.523 . S
C287 C271 1.429 . S
C287 C283 1.429 . S
C287 C288 1.523 . S
C288 C272 1.368 . S
C288 C284 1.368 . S
C288 C287 1.523 . S
H289 C264 0.950 . S
H290 C266 0.950 . S
H291 C267 0.949 . S
H292 C269 0.950 . S
H293 C271 0.950 . S
C294 C295 1.349 . S
C294 C296 1.327 . S
C294 H319 0.950 . S
C295 C294 1.349 . S
C295 C311 1.349 . S
C296 C294 1.327 . S
C296 C315 1.429 . S
C296 H320 0.950 . S
C297 C314 1.574 . S
C297 C316 1.368 . S
C297 H321 0.949 . S
H298 C302 0.949 . S
C299 C300 1.349 . S
C299 C301 1.327 . S
C299 H322 0.950 . S
C300 C299 1.349 . S
C300 C312 1.349 . S
C301 C299 1.327 . S
C301 C317 1.429 . S
C301 H323 0.950 . S
C302 H298 0.949 . S
C302 C310 1.574 . S
C302 C318 1.368 . S
H303 C311 0.950 . S
H304 C309 0.950 . S
H305 C310 0.949 . S
H306 C312 0.950 . S
H307 C313 0.950 . S
H308 C314 0.949 . S
C309 H304 0.950 . S
C309 C311 1.327 . S
C309 C315 1.429 . S
C310 C302 1.574 . S
C310 H305 0.949 . S
C310 C316 1.368 . S
C311 C295 1.349 . S
C311 H303 0.950 . S
C311 C309 1.327 . S
C312 C300 1.349 . S
C312 H306 0.950 . S
C312 C313 1.327 . S
C313 H307 0.950 . S
C313 C312 1.327 . S
C313 C317 1.429 . S
C314 C297 1.574 . S
C314 H308 0.949 . S
C314 C318 1.368 . S
C315 C296 1.429 . S
C315 C309 1.429 . S
C315 C316 1.523 . S
C316 C297 1.368 . S
C316 C310 1.368 . S
C316 C315 1.523 . S
C317 C301 1.429 . S
C317 C313 1.429 . S
C317 C318 1.523 . S
C318 C302 1.368 . S
C318 C314 1.368 . S
C318 C317 1.523 . S
H319 C294 0.950 . S
H320 C296 0.950 . S
H321 C297 0.949 . S
H322 C299 0.950 . S
H323 C301 0.950 . S
C324 C325 1.349 . S
C324 C326 1.327 . S
C324 H349 0.950 . S
C325 C324 1.349 . S
C325 C341 1.349 . S
C326 C324 1.327 . S
C326 C345 1.429 . S
C326 H350 0.950 . S
C327 C344 1.574 . S
C327 C346 1.368 . S
C327 H351 0.949 . S
H328 C332 0.949 . S
C329 C330 1.349 . S
C329 C331 1.327 . S
C329 H352 0.950 . S
C330 C329 1.349 . S
C330 C342 1.349 . S
C331 C329 1.327 . S
C331 C347 1.429 . S
C331 H353 0.950 . S
C332 H328 0.949 . S
C332 C340 1.574 . S
C332 C348 1.368 . S
H333 C341 0.950 . S
H334 C339 0.950 . S
H335 C340 0.949 . S
H336 C342 0.950 . S
H337 C343 0.950 . S
H338 C344 0.949 . S
C339 H334 0.950 . S
C339 C341 1.327 . S
C339 C345 1.429 . S
C340 C332 1.574 . S
C340 H335 0.949 . S
C340 C346 1.368 . S
C341 C325 1.349 . S
C341 H333 0.950 . S
C341 C339 1.327 . S
C342 C330 1.349 . S
C342 H336 0.950 . S
C342 C343 1.327 . S
C343 H337 0.950 . S
C343 C342 1.327 . S
C343 C347 1.429 . S
C344 C327 1.574 . S
C344 H338 0.949 . S
C344 C348 1.368 . S
C345 C326 1.429 . S
C345 C339 1.429 . S
C345 C346 1.523 . S
C346 C327 1.368 . S
C346 C340 1.368 . S
C346 C345 1.523 . S
C347 C331 1.429 . S
C347 C343 1.429 . S
C347 C348 1.523 . S
C348 C332 1.368 . S
C348 C344 1.368 . S
C348 C347 1.523 . S
H349 C324 0.950 . S
H350 C326 0.950 . S
H351 C327 0.949 . S
H352 C329 0.950 . S
H353 C331 0.950 . S
C354 C355 1.349 . S
C354 C356 1.327 . S
C354 H379 0.950 . S
C355 C354 1.349 . S
C355 C371 1.349 . S
C356 C354 1.327 . S
C356 C375 1.429 . S
C356 H380 0.950 . S
C357 C374 1.574 . S
C357 C376 1.368 . S
C357 H381 0.949 . S
H358 C362 0.949 . S
C359 C360 1.349 . S
C359 C361 1.327 . S
C359 H382 0.950 . S
C360 C359 1.349 . S
C360 C372 1.349 . S
C361 C359 1.327 . S
C361 C377 1.429 . S
C361 H383 0.950 . S
C362 H358 0.949 . S
C362 C370 1.574 . S
C362 C378 1.368 . S
H363 C371 0.950 . S
H364 C369 0.950 . S
H365 C370 0.949 . S
H366 C372 0.950 . S
H367 C373 0.950 . S
H368 C374 0.949 . S
C369 H364 0.950 . S
C369 C371 1.327 . S
C369 C375 1.429 . S
C370 C362 1.574 . S
C370 H365 0.949 . S
C370 C376 1.368 . S
C371 C355 1.349 . S
C371 H363 0.950 . S
C371 C369 1.327 . S
C372 C360 1.349 . S
C372 H366 0.950 . S
C372 C373 1.327 . S
C373 H367 0.950 . S
C373 C372 1.327 . S
C373 C377 1.429 . S
C374 C357 1.574 . S
C374 H368 0.949 . S
C374 C378 1.368 . S
C375 C356 1.429 . S
C375 C369 1.429 . S
C375 C376 1.523 . S
C376 C357 1.368 . S
C376 C370 1.368 . S
C376 C375 1.523 . S
C377 C361 1.429 . S
C377 C373 1.429 . S
C377 C378 1.523 . S
C378 C362 1.368 . S
C378 C374 1.368 . S
C378 C377 1.523 . S
H379 C354 0.950 . S
H380 C356 0.950 . S
H381 C357 0.949 . S
H382 C359 0.950 . S
H383 C361 0.950 . S
C384 C385 1.349 . S
C384 C386 1.327 . S
C384 H409 0.950 . S
C385 C384 1.349 . S
C385 C401 1.349 . S
C386 C384 1.327 . S
C386 C405 1.429 . S
C386 H410 0.950 . S
C387 C404 1.574 . S
C387 C406 1.368 . S
C387 H411 0.949 . S
H388 C392 0.949 . S
C389 C390 1.349 . S
C389 C391 1.327 . S
C389 H412 0.950 . S
C390 C389 1.349 . S
C390 C402 1.349 . S
C391 C389 1.327 . S
C391 C407 1.429 . S
C391 H413 0.950 . S
C392 H388 0.949 . S
C392 C400 1.574 . S
C392 C408 1.368 . S
H393 C401 0.950 . S
H394 C399 0.950 . S
H395 C400 0.949 . S
H396 C402 0.950 . S
H397 C403 0.950 . S
H398 C404 0.949 . S
C399 H394 0.950 . S
C399 C401 1.327 . S
C399 C405 1.429 . S
C400 C392 1.574 . S
C400 H395 0.949 . S
C400 C406 1.368 . S
C401 C385 1.349 . S
C401 H393 0.950 . S
C401 C399 1.327 . S
C402 C390 1.349 . S
C402 H396 0.950 . S
C402 C403 1.327 . S
C403 H397 0.950 . S
C403 C402 1.327 . S
C403 C407 1.429 . S
C404 C387 1.574 . S
C404 H398 0.949 . S
C404 C408 1.368 . S
C405 C386 1.429 . S
C405 C399 1.429 . S
C405 C406 1.523 . S
C406 C387 1.368 . S
C406 C400 1.368 . S
C406 C405 1.523 . S
C407 C391 1.429 . S
C407 C403 1.429 . S
C407 C408 1.523 . S
C408 C392 1.368 . S
C408 C404 1.368 . S
C408 C407 1.523 . S
H409 C384 0.950 . S
H410 C386 0.950 . S
H411 C387 0.949 . S
H412 C389 0.950 . S
H413 C391 0.950 . S
C414 C415 1.349 . S
C414 C416 1.327 . S
C414 H439 0.950 . S
C415 C414 1.349 . S
C415 C431 1.349 . S
C416 C414 1.327 . S
C416 C435 1.429 . S
C416 H440 0.950 . S
C417 C434 1.574 1_554 S
C417 C436 1.368 1_455 S
C417 H441 0.949 . S
H418 C422 0.949 . S
C419 C420 1.349 . S
C419 C421 1.327 . S
C419 H442 0.950 . S
C420 C419 1.349 . S
C420 C432 1.349 . S
C421 C419 1.327 . S
C421 C437 1.429 . S
C421 H443 0.950 . S
C422 H418 0.949 . S
C422 C430 1.574 1_556 S
C422 C438 1.368 1_655 S
H423 C431 0.969 . S
H424 C429 0.950 1_455 S
H425 C430 0.949 . S
H426 C432 0.928 1_655 S
H427 C433 0.918 1_655 S
H428 C434 0.949 . S
C429 H424 0.950 1_655 S
C429 C431 1.327 . S
C429 C435 1.429 . S
C430 C422 1.574 1_554 S
C430 H425 0.949 . S
C430 C436 1.368 . S
C431 C415 1.349 . S
C431 H423 0.969 . S
C431 C429 1.327 . S
C432 C420 1.349 . S
C432 H426 0.928 1_455 S
C432 C433 1.342 . S
C433 H427 0.918 1_455 S
C433 C432 1.342 . S
C433 C437 1.447 . S
C434 C417 1.574 1_556 S
C434 H428 0.949 . S
C434 C438 1.368 . S
C435 C416 1.429 . S
C435 C429 1.429 . S
C435 C436 1.523 . S
C436 C417 1.368 1_655 S
C436 C430 1.368 . S
C436 C435 1.523 . S
C437 C421 1.429 . S
C437 C433 1.447 . S
C437 C438 1.523 . S
C438 C422 1.368 1_455 S
C438 C434 1.368 . S
C438 C437 1.523 . S
H439 C414 0.950 . S
H440 C416 0.950 . S
H441 C417 0.949 . S
H442 C419 0.950 . S
H443 C421 0.950 . S
C444 C445 1.349 . S
C444 C446 1.327 . S
C444 H469 0.950 . S
C445 C444 1.349 . S
C445 C461 1.349 . S
C446 C444 1.327 . S
C446 C465 1.429 . S
C446 H470 0.950 . S
C447 C464 1.574 1_554 S
C447 C466 1.368 . S
C447 H471 0.949 . S
H448 C452 0.949 . S
C449 C450 1.349 . S
C449 C451 1.327 . S
C449 H472 0.950 . S
C450 C449 1.349 . S
C450 C462 1.349 . S
C451 C449 1.327 . S
C451 C467 1.429 . S
C451 H473 0.950 . S
C452 H448 0.949 . S
C452 C460 1.574 1_556 S
C452 C468 1.368 . S
H453 C461 0.950 . S
H454 C459 0.950 . S
H455 C460 0.949 . S
H456 C462 0.950 . S
H457 C463 0.950 . S
H458 C464 0.949 . S
C459 H454 0.950 . S
C459 C461 1.327 . S
C459 C465 1.429 . S
C460 C452 1.574 1_554 S
C460 H455 0.949 . S
C460 C466 1.368 . S
C461 C445 1.349 . S
C461 H453 0.950 . S
C461 C459 1.327 . S
C462 C450 1.349 . S
C462 H456 0.950 . S
C462 C463 1.327 . S
C463 H457 0.950 . S
C463 C462 1.327 . S
C463 C467 1.429 . S
C464 C447 1.574 1_556 S
C464 H458 0.949 . S
C464 C468 1.368 . S
C465 C446 1.429 . S
C465 C459 1.429 . S
C465 C466 1.523 . S
C466 C447 1.368 . S
C466 C460 1.368 . S
C466 C465 1.523 . S
C467 C451 1.429 . S
C467 C463 1.429 . S
C467 C468 1.523 . S
C468 C452 1.368 . S
C468 C464 1.368 . S
C468 C467 1.523 . S
H469 C444 0.950 . S
H470 C446 0.950 . S
H471 C447 0.949 . S
H472 C449 0.950 . S
H473 C451 0.950 . S
C474 C475 1.349 . S
C474 C476 1.327 . S
C474 H499 0.950 . S
C475 C474 1.349 . S
C475 C491 1.349 . S
C476 C474 1.327 . S
C476 C495 1.429 . S
C476 H500 0.950 1_545 S
C477 C494 1.574 1_554 S
C477 C496 1.368 . S
C477 H501 0.949 . S
H478 C482 0.949 . S
C479 C480 1.349 . S
C479 C481 1.327 . S
C479 H502 0.950 . S
C480 C479 1.349 . S
C480 C492 1.349 . S
C481 C479 1.327 . S
C481 C497 1.429 . S
C481 H503 0.949 1_565 S
C482 H478 0.949 . S
C482 C490 1.574 1_556 S
C482 C498 1.368 . S
H483 C491 0.950 . S
H484 C489 0.950 . S
H485 C490 0.949 . S
H486 C492 0.950 . S
H487 C493 0.950 . S
H488 C494 0.949 . S
C489 H484 0.950 . S
C489 C491 1.327 . S
C489 C495 1.429 . S
C490 C482 1.574 1_554 S
C490 H485 0.949 . S
C490 C496 1.368 1_565 S
C491 C475 1.349 . S
C491 H483 0.950 . S
C491 C489 1.327 . S
C492 C480 1.349 . S
C492 H486 0.950 . S
C492 C493 1.327 . S
C493 H487 0.950 . S
C493 C492 1.327 . S
C493 C497 1.429 . S
C494 C477 1.574 1_556 S
C494 H488 0.949 . S
C494 C498 1.368 1_545 S
C495 C476 1.429 . S
C495 C489 1.429 . S
C495 C496 1.523 . S
C496 C477 1.368 . S
C496 C490 1.368 1_545 S
C496 C495 1.523 . S
C497 C481 1.429 . S
C497 C493 1.429 . S
C497 C498 1.523 . S
C498 C482 1.368 . S
C498 C494 1.368 1_565 S
C498 C497 1.523 . S
H499 C474 0.950 . S
H500 C476 0.950 1_565 S
H501 C477 0.949 . S
H502 C479 0.950 . S
H503 C481 0.949 1_545 S
C504 C505 1.349 . S
C504 C506 1.327 . S
C504 H529 0.950 . S
C505 C504 1.349 . S
C505 C521 1.349 . S
C506 C504 1.327 . S
C506 C525 1.429 . S
C506 H530 0.950 . S
C507 C524 1.574 . S
C507 C526 1.368 . S
C507 H531 0.949 . S
H508 C512 0.949 . S
C509 C510 1.349 . S
C509 C511 1.327 . S
C509 H532 0.950 . S
C510 C509 1.349 . S
C510 C522 1.349 . S
C511 C509 1.327 . S
C511 C527 1.429 . S
C511 H533 0.950 . S
C512 H508 0.949 . S
C512 C520 1.574 . S
C512 C528 1.368 . S
H513 C521 0.950 . S
H514 C519 0.950 . S
H515 C520 0.949 . S
H516 C522 0.950 . S
H517 C523 0.950 . S
H518 C524 0.949 . S
C519 H514 0.950 . S
C519 C521 1.327 . S
C519 C525 1.429 . S
C520 C512 1.574 . S
C520 H515 0.949 . S
C520 C526 1.368 . S
C521 C505 1.349 . S
C521 H513 0.950 . S
C521 C519 1.327 . S
C522 C510 1.349 . S
C522 H516 0.950 . S
C522 C523 1.327 . S
C523 H517 0.950 . S
C523 C522 1.327 . S
C523 C527 1.429 . S
C524 C507 1.574 . S
C524 H518 0.949 . S
C524 C528 1.368 . S
C525 C506 1.429 . S
C525 C519 1.429 . S
C525 C526 1.523 . S
C526 C507 1.368 . S
C526 C520 1.368 . S
C526 C525 1.523 . S
C527 C511 1.429 . S
C527 C523 1.429 . S
C527 C528 1.523 . S
C528 C512 1.368 . S
C528 C524 1.368 . S
C528 C527 1.523 . S
H529 C504 0.950 . S
H530 C506 0.950 . S
H531 C507 0.949 . S
H532 C509 0.950 . S
H533 C511 0.950 . S
C534 C535 1.349 . S
C534 C536 1.327 . S
C534 H559 0.950 . S
C535 C534 1.349 . S
C535 C551 1.349 . S
C536 C534 1.327 . S
C536 C555 1.429 . S
C536 H560 0.950 . S
C537 C554 1.574 . S
C537 C556 1.368 . S
C537 H561 0.949 . S
H538 C542 0.949 . S
C539 C540 1.349 . S
C539 C541 1.327 . S
C539 H562 0.950 . S
C540 C539 1.349 . S
C540 C552 1.349 . S
C541 C539 1.327 . S
C541 C557 1.429 . S
C541 H563 0.950 . S
C542 H538 0.949 . S
C542 C550 1.574 . S
C542 C558 1.368 . S
H543 C551 0.950 . S
H544 C549 0.950 . S
H545 C550 0.949 . S
H546 C552 0.950 . S
H547 C553 0.950 . S
H548 C554 0.949 . S
C549 H544 0.950 . S
C549 C551 1.327 . S
C549 C555 1.429 . S
C550 C542 1.574 . S
C550 H545 0.949 . S
C550 C556 1.368 . S
C551 C535 1.349 . S
C551 H543 0.950 . S
C551 C549 1.327 . S
C552 C540 1.349 . S
C552 H546 0.950 . S
C552 C553 1.327 . S
C553 H547 0.950 . S
C553 C552 1.327 . S
C553 C557 1.429 . S
C554 C537 1.574 . S
C554 H548 0.949 . S
C554 C558 1.368 . S
C555 C536 1.429 . S
C555 C549 1.429 . S
C555 C556 1.523 . S
C556 C537 1.368 . S
C556 C550 1.368 . S
C556 C555 1.523 . S
C557 C541 1.429 . S
C557 C553 1.429 . S
C557 C558 1.523 . S
C558 C542 1.368 . S
C558 C554 1.368 . S
C558 C557 1.523 . S
H559 C534 0.950 . S
H560 C536 0.950 . S
H561 C537 0.949 . S
H562 C539 0.950 . S
H563 C541 0.950 . S
C564 C565 1.349 . S
C564 C566 1.327 . S
C564 H589 0.950 . S
C565 C564 1.349 . S
C565 C581 1.349 . S
C566 C564 1.327 . S
C566 C585 1.429 . S
C566 H590 0.950 . S
C567 C584 1.574 . S
C567 C586 1.368 . S
C567 H591 0.949 . S
H568 C572 0.949 . S
C569 C570 1.349 . S
C569 C571 1.327 . S
C569 H592 0.950 . S
C570 C569 1.349 . S
C570 C582 1.349 . S
C571 C569 1.327 . S
C571 C587 1.429 . S
C571 H593 0.950 . S
C572 H568 0.949 . S
C572 C580 1.574 . S
C572 C588 1.368 . S
H573 C581 0.950 . S
H574 C579 0.950 . S
H575 C580 0.949 . S
H576 C582 0.950 . S
H577 C583 0.950 . S
H578 C584 0.949 . S
C579 H574 0.950 . S
C579 C581 1.327 . S
C579 C585 1.429 . S
C580 C572 1.574 . S
C580 H575 0.949 . S
C580 C586 1.368 . S
C581 C565 1.349 . S
C581 H573 0.950 . S
C581 C579 1.327 . S
C582 C570 1.349 . S
C582 H576 0.950 . S
C582 C583 1.327 . S
C583 H577 0.950 . S
C583 C582 1.327 . S
C583 C587 1.429 . S
C584 C567 1.574 . S
C584 H578 0.949 . S
C584 C588 1.368 . S
C585 C566 1.429 . S
C585 C579 1.429 . S
C585 C586 1.523 . S
C586 C567 1.368 . S
C586 C580 1.368 . S
C586 C585 1.523 . S
C587 C571 1.429 . S
C587 C583 1.429 . S
C587 C588 1.523 . S
C588 C572 1.368 . S
C588 C584 1.368 . S
C588 C587 1.523 . S
H589 C564 0.950 . S
H590 C566 0.950 . S
H591 C567 0.949 . S
H592 C569 0.950 . S
H593 C571 0.950 . S
C594 C595 1.349 . S
C594 C596 1.327 . S
C594 H619 0.950 . S
C595 C594 1.349 . S
C595 C611 1.349 . S
C596 C594 1.327 . S
C596 C615 1.429 . S
C596 H620 0.950 . S
C597 C614 1.574 . S
C597 C616 1.368 . S
C597 H621 0.949 . S
H598 C602 0.949 . S
C599 C600 1.349 . S
C599 C601 1.327 . S
C599 H622 0.950 . S
C600 C599 1.349 . S
C600 C612 1.349 . S
C601 C599 1.327 . S
C601 C617 1.429 . S
C601 H623 0.950 . S
C602 H598 0.949 . S
C602 C610 1.574 . S
C602 C618 1.368 . S
H603 C611 0.950 . S
H604 C609 0.950 . S
H605 C610 0.949 . S
H606 C612 0.950 . S
H607 C613 0.950 . S
H608 C614 0.949 . S
C609 H604 0.950 . S
C609 C611 1.327 . S
C609 C615 1.429 . S
C610 C602 1.574 . S
C610 H605 0.949 . S
C610 C616 1.368 . S
C611 C595 1.349 . S
C611 H603 0.950 . S
C611 C609 1.327 . S
C612 C600 1.349 . S
C612 H606 0.950 . S
C612 C613 1.327 . S
C613 H607 0.950 . S
C613 C612 1.327 . S
C613 C617 1.429 . S
C614 C597 1.574 . S
C614 H608 0.949 . S
C614 C618 1.368 . S
C615 C596 1.429 . S
C615 C609 1.429 . S
C615 C616 1.523 . S
C616 C597 1.368 . S
C616 C610 1.368 . S
C616 C615 1.523 . S
C617 C601 1.429 . S
C617 C613 1.429 . S
C617 C618 1.523 . S
C618 C602 1.368 . S
C618 C614 1.368 . S
C618 C617 1.523 . S
H619 C594 0.950 . S
H620 C596 0.950 . S
H621 C597 0.949 . S
H622 C599 0.950 . S
H623 C601 0.950 . S
C624 C625 1.349 . S
C624 C626 1.327 . S
C624 H649 0.950 . S
C625 C624 1.349 . S
C625 C641 1.349 . S
C626 C624 1.327 . S
C626 C645 1.429 . S
C626 H650 0.950 . S
C627 C644 1.574 . S
C627 C646 1.368 . S
C627 H651 0.949 . S
H628 C632 0.949 . S
C629 C630 1.349 . S
C629 C631 1.327 . S
C629 H652 0.950 . S
C630 C629 1.349 . S
C630 C642 1.349 . S
C631 C629 1.327 . S
C631 C647 1.429 . S
C631 H653 0.950 . S
C632 H628 0.949 . S
C632 C640 1.574 . S
C632 C648 1.368 . S
H633 C641 0.965 . S
H634 C639 0.950 . S
H635 C640 0.949 . S
H636 C642 0.950 . S
H637 C643 0.950 . S
H638 C644 0.949 . S
C639 H634 0.950 . S
C639 C641 1.327 . S
C639 C645 1.429 . S
C640 C632 1.574 . S
C640 H635 0.949 . S
C640 C646 1.368 . S
C641 C625 1.349 . S
C641 H633 0.965 . S
C641 C639 1.327 . S
C642 C630 1.349 . S
C642 H636 0.950 . S
C642 C643 1.327 . S
C643 H637 0.950 . S
C643 C642 1.327 . S
C643 C647 1.429 . S
C644 C627 1.574 . S
C644 H638 0.949 . S
C644 C648 1.368 . S
C645 C626 1.429 . S
C645 C639 1.429 . S
C645 C646 1.523 . S
C646 C627 1.368 . S
C646 C640 1.368 . S
C646 C645 1.523 . S
C647 C631 1.429 . S
C647 C643 1.429 . S
C647 C648 1.523 . S
C648 C632 1.368 . S
C648 C644 1.368 . S
C648 C647 1.523 . S
H649 C624 0.950 . S
H650 C626 0.950 . S
H651 C627 0.949 . S
H652 C629 0.950 . S
H653 C631 0.950 . S
C654 C655 1.349 . S
C654 C656 1.327 . S
C654 H679 0.950 . S
C655 C654 1.349 . S
C655 C671 1.349 . S
C656 C654 1.327 . S
C656 C675 1.429 . S
C656 H680 0.950 . S
C657 C674 1.574 . S
C657 C676 1.368 . S
C657 H681 0.949 . S
H658 C662 0.949 . S
C659 C660 1.349 . S
C659 C661 1.327 . S
C659 H682 0.950 . S
C660 C659 1.349 . S
C660 C672 1.349 . S
C661 C659 1.327 . S
C661 C677 1.429 . S
C661 H683 0.950 . S
C662 H658 0.949 . S
C662 C670 1.574 . S
C662 C678 1.368 . S
H663 C671 0.950 . S
H664 C669 0.950 . S
H665 C670 0.949 . S
H666 C672 0.950 . S
H667 C673 0.950 . S
H668 C674 0.949 . S
C669 H664 0.950 . S
C669 C671 1.327 . S
C669 C675 1.429 . S
C670 C662 1.574 . S
C670 H665 0.949 . S
C670 C676 1.368 . S
C671 C655 1.349 . S
C671 H663 0.950 . S
C671 C669 1.327 . S
C672 C660 1.349 . S
C672 H666 0.950 . S
C672 C673 1.327 . S
C673 H667 0.950 . S
C673 C672 1.327 . S
C673 C677 1.429 . S
C674 C657 1.574 . S
C674 H668 0.949 . S
C674 C678 1.368 . S
C675 C656 1.429 . S
C675 C669 1.429 . S
C675 C676 1.523 . S
C676 C657 1.368 . S
C676 C670 1.368 . S
C676 C675 1.523 . S
C677 C661 1.429 . S
C677 C673 1.429 . S
C677 C678 1.523 . S
C678 C662 1.368 . S
C678 C674 1.368 . S
C678 C677 1.523 . S
H679 C654 0.950 . S
H680 C656 0.950 . S
H681 C657 0.949 . S
H682 C659 0.950 . S
H683 C661 0.950 . S
C684 C685 1.349 . S
C684 C686 1.327 . S
C684 H709 0.950 . S
C685 C684 1.349 . S
C685 C701 1.349 . S
C686 C684 1.327 . S
C686 C705 1.429 . S
C686 H710 0.950 . S
C687 C704 1.574 . S
C687 C706 1.368 . S
C687 H711 0.949 . S
H688 C692 0.949 . S
C689 C690 1.349 . S
C689 C691 1.327 . S
C689 H712 0.950 . S
C690 C689 1.349 . S
C690 C702 1.349 . S
C691 C689 1.327 . S
C691 C707 1.429 . S
C691 H713 0.950 . S
C692 H688 0.949 . S
C692 C700 1.580 . S
C692 C708 1.368 . S
H693 C701 0.950 . S
H694 C699 0.950 . S
H695 C700 0.930 . S
H696 C702 0.950 . S
H697 C703 0.950 . S
H698 C704 0.949 . S
C699 H694 0.950 . S
C699 C701 1.327 . S
C699 C705 1.429 . S
C700 C692 1.580 . S
C700 H695 0.930 . S
C700 C706 1.353 1_455 S
C701 C685 1.349 . S
C701 H693 0.950 . S
C701 C699 1.327 . S
C702 C690 1.349 . S
C702 H696 0.950 . S
C702 C703 1.327 . S
C703 H697 0.950 . S
C703 C702 1.327 . S
C703 C707 1.429 . S
C704 C687 1.574 . S
C704 H698 0.949 . S
C704 C708 1.368 1_655 S
C705 C686 1.429 . S
C705 C699 1.429 . S
C705 C706 1.523 . S
C706 C687 1.368 . S
C706 C700 1.353 1_655 S
C706 C705 1.523 . S
C707 C691 1.429 . S
C707 C703 1.429 . S
C707 C708 1.523 . S
C708 C692 1.368 . S
C708 C704 1.368 1_455 S
C708 C707 1.523 . S
H709 C684 0.950 . S
H710 C686 0.950 . S
H711 C687 0.949 . S
H712 C689 0.950 . S
H713 C691 0.950 . S
C714 C715 1.349 . S
C714 C716 1.327 . S
C714 H739 0.950 . S
C715 C714 1.349 . S
C715 C731 1.349 . S
C716 C714 1.327 . S
C716 C735 1.429 . S
C716 H740 0.950 . S
C717 C734 1.574 . S
C717 C736 1.368 . S
C717 H741 0.949 . S
H718 C722 0.949 . S
C719 C720 1.349 . S
C719 C721 1.327 . S
C719 H742 0.950 . S
C720 C719 1.349 . S
C720 C732 1.349 . S
C721 C719 1.327 . S
C721 C737 1.429 . S
C721 H743 0.950 . S
C722 H718 0.949 . S
C722 C730 1.574 . S
C722 C738 1.368 . S
H723 C731 0.950 . S
H724 C729 0.950 . S
H725 C730 0.949 . S
H726 C732 0.950 . S
H727 C733 0.950 . S
H728 C734 0.949 . S
C729 H724 0.950 . S
C729 C731 1.327 . S
C729 C735 1.429 . S
C730 C722 1.574 . S
C730 H725 0.949 . S
C730 C736 1.368 . S
C731 C715 1.349 . S
C731 H723 0.950 . S
C731 C729 1.327 . S
C732 C720 1.349 . S
C732 H726 0.950 . S
C732 C733 1.327 . S
C733 H727 0.950 . S
C733 C732 1.327 . S
C733 C737 1.429 . S
C734 C717 1.574 . S
C734 H728 0.949 . S
C734 C738 1.368 . S
C735 C716 1.429 . S
C735 C729 1.429 . S
C735 C736 1.523 . S
C736 C717 1.368 . S
C736 C730 1.368 . S
C736 C735 1.523 . S
C737 C721 1.429 . S
C737 C733 1.429 . S
C737 C738 1.523 . S
C738 C722 1.368 . S
C738 C734 1.368 . S
C738 C737 1.523 . S
H739 C714 0.950 . S
H740 C716 0.950 . S
H741 C717 0.949 . S
H742 C719 0.950 . S
H743 C721 0.950 . S
C744 C745 1.349 . S
C744 C746 1.327 . S
C744 H769 0.950 . S
C745 C744 1.349 . S
C745 C761 1.349 . S
C746 C744 1.327 . S
C746 C765 1.429 . S
C746 H770 0.950 . S
C747 C764 1.574 . S
C747 C766 1.368 1_545 S
C747 H771 0.949 . S
H748 C752 0.949 . S
C749 C750 1.349 . S
C749 C751 1.327 . S
C749 H772 0.950 . S
C750 C749 1.349 . S
C750 C762 1.349 . S
C751 C749 1.327 . S
C751 C767 1.429 . S
C751 H773 0.950 . S
C752 H748 0.949 . S
C752 C760 1.574 . S
C752 C768 1.368 1_565 S
H753 C761 0.930 1_545 S
H754 C759 0.950 1_545 S
H755 C760 0.949 . S
H756 C762 0.950 1_565 S
H757 C763 0.944 . S
H758 C764 0.949 . S
C759 H754 0.950 1_565 S
C759 C761 1.327 . S
C759 C765 1.429 . S
C760 C752 1.574 . S
C760 H755 0.949 . S
C760 C766 1.368 . S
C761 C745 1.349 . S
C761 H753 0.930 1_565 S
C761 C759 1.327 . S
C762 C750 1.349 . S
C762 H756 0.950 1_545 S
C762 C763 1.329 1_545 S
C763 H757 0.944 . S
C763 C762 1.329 1_565 S
C763 C767 1.432 1_565 S
C764 C747 1.574 . S
C764 H758 0.949 . S
C764 C768 1.368 . S
C765 C746 1.429 . S
C765 C759 1.429 . S
C765 C766 1.523 . S
C766 C747 1.368 1_565 S
C766 C760 1.368 . S
C766 C765 1.523 . S
C767 C751 1.429 . S
C767 C763 1.432 1_545 S
C767 C768 1.523 . S
C768 C752 1.368 1_545 S
C768 C764 1.368 . S
C768 C767 1.523 . S
H769 C744 0.950 . S
H770 C746 0.950 . S
H771 C747 0.949 . S
H772 C749 0.950 . S
H773 C751 0.950 . S
C774 C775 1.349 . S
C774 C776 1.327 . S
C774 H799 0.950 . S
C775 C774 1.349 . S
C775 C791 1.349 . S
C776 C774 1.327 . S
C776 C795 1.429 . S
C776 H800 0.950 . S
C777 C794 1.574 . S
C777 C796 1.368 1_556 S
C777 H801 0.949 . S
H778 C782 0.949 . S
C779 C780 1.349 . S
C779 C781 1.327 . S
C779 H802 0.950 . S
C780 C779 1.349 . S
C780 C792 1.349 . S
C781 C779 1.327 . S
C781 C797 1.429 . S
C781 H803 0.950 . S
C782 H778 0.949 . S
C782 C790 1.574 . S
C782 C798 1.368 1_554 S
H783 C791 0.948 1_556 S
H784 C789 0.950 1_556 S
H785 C790 0.949 . S
H786 C792 0.948 1_554 S
H787 C793 0.950 1_554 S
H788 C794 0.949 . S
C789 H784 0.950 1_554 S
C789 C791 1.327 . S
C789 C795 1.429 . S
C790 C782 1.574 . S
C790 H785 0.949 . S
C790 C796 1.368 . S
C791 C775 1.349 . S
C791 H783 0.948 1_554 S
C791 C789 1.327 . S
C792 C780 1.349 . S
C792 H786 0.948 1_556 S
C792 C793 1.327 . S
C793 H787 0.950 1_556 S
C793 C792 1.327 . S
C793 C797 1.429 . S
C794 C777 1.574 . S
C794 H788 0.949 . S
C794 C798 1.368 . S
C795 C776 1.429 . S
C795 C789 1.429 . S
C795 C796 1.523 . S
C796 C777 1.368 1_554 S
C796 C790 1.368 . S
C796 C795 1.523 . S
C797 C781 1.429 . S
C797 C793 1.429 . S
C797 C798 1.523 . S
C798 C782 1.368 1_556 S
C798 C794 1.368 . S
C798 C797 1.523 . S
H799 C774 0.950 . S
H800 C776 0.950 . S
H801 C777 0.949 . S
H802 C779 0.950 . S
H803 C781 0.950 . S
C804 C805 1.349 . S
C804 C806 1.327 . S
C804 H829 0.950 . S
C805 C804 1.349 . S
C805 C821 1.349 . S
C806 C804 1.327 . S
C806 C825 1.429 . S
C806 H830 0.950 . S
C807 C824 1.574 1_545 S
C807 C826 1.368 1_554 S
C807 H831 0.949 . S
H808 C812 0.949 . S
C809 C810 1.349 . S
C809 C811 1.327 . S
C809 H832 0.950 . S
C810 C809 1.349 . S
C810 C822 1.349 . S
C811 C809 1.327 . S
C811 C827 1.429 . S
C811 H833 0.950 . S
C812 H808 0.949 . S
C812 C820 1.574 1_565 S
C812 C828 1.368 1_556 S
H813 C821 0.950 . S
H814 C819 0.950 1_554 S
H815 C820 0.949 . S
H816 C822 0.950 . S
H817 C823 0.950 1_556 S
H818 C824 0.949 . S
C819 H814 0.950 1_556 S
C819 C821 1.327 . S
C819 C825 1.429 . S
C820 C812 1.574 1_545 S
C820 H815 0.949 . S
C820 C826 1.368 . S
C821 C805 1.349 . S
C821 H813 0.950 . S
C821 C819 1.327 . S
C822 C810 1.349 . S
C822 H816 0.950 . S
C822 C823 1.327 . S
C823 H817 0.950 1_554 S
C823 C822 1.327 . S
C823 C827 1.429 . S
C824 C807 1.574 1_565 S
C824 H818 0.949 . S
C824 C828 1.368 . S
C825 C806 1.429 . S
C825 C819 1.429 . S
C825 C826 1.523 . S
C826 C807 1.368 1_556 S
C826 C820 1.368 . S
C826 C825 1.523 . S
C827 C811 1.429 . S
C827 C823 1.429 . S
C827 C828 1.523 . S
C828 C812 1.368 1_554 S
C828 C824 1.368 . S
C828 C827 1.523 . S
H829 C804 0.950 . S
H830 C806 0.950 . S
H831 C807 0.949 . S
H832 C809 0.950 . S
H833 C811 0.950 . S
C834 C835 1.349 . S
C834 C836 1.327 . S
C834 H859 0.950 . S
C835 C834 1.349 . S
C835 C851 1.349 . S
C836 C834 1.327 . S
C836 C855 1.429 . S
C836 H860 0.950 . S
C837 C854 1.574 1_655 S
C837 C856 1.368 1_554 S
C837 H861 0.949 . S
H838 C842 0.949 . S
C839 C840 1.349 . S
C839 C841 1.327 . S
C839 H862 0.950 . S
C840 C839 1.349 . S
C840 C852 1.349 . S
C841 C839 1.327 . S
C841 C857 1.429 . S
C841 H863 0.950 . S
C842 H838 0.949 . S
C842 C850 1.574 1_455 S
C842 C858 1.368 1_556 S
H843 C851 0.950 . S
H844 C849 0.950 . S
H845 C850 0.949 . S
H846 C852 0.950 . S
H847 C853 0.950 . S
H848 C854 0.949 . S
C849 H844 0.950 . S
C849 C851 1.327 . S
C849 C855 1.429 . S
C850 C842 1.574 1_655 S
C850 H845 0.949 . S
C850 C856 1.368 . S
C851 C835 1.349 . S
C851 H843 0.950 . S
C851 C849 1.327 . S
C852 C840 1.349 . S
C852 H846 0.950 . S
C852 C853 1.327 . S
C853 H847 0.950 . S
C853 C852 1.327 . S
C853 C857 1.429 . S
C854 C837 1.574 1_455 S
C854 H848 0.949 . S
C854 C858 1.368 . S
C855 C836 1.429 . S
C855 C849 1.429 . S
C855 C856 1.523 . S
C856 C837 1.368 1_556 S
C856 C850 1.368 . S
C856 C855 1.523 . S
C857 C841 1.429 . S
C857 C853 1.429 . S
C857 C858 1.523 . S
C858 C842 1.368 1_554 S
C858 C854 1.368 . S
C858 C857 1.523 . S
H859 C834 0.950 . S
H860 C836 0.950 . S
H861 C837 0.949 . S
H862 C839 0.950 . S
H863 C841 0.950 . S
C864 C865 1.349 . S
C864 C866 1.325 1_556 S
C864 H889 0.950 1_556 S
C865 C864 1.349 . S
C865 C881 1.349 . S
C866 C864 1.325 1_554 S
C866 C885 1.424 1_554 S
C866 H890 0.957 . S
C867 C884 1.574 . S
C867 C886 1.368 . S
C867 H891 0.949 . S
H868 C872 0.949 . S
C869 C870 1.349 . S
C869 C871 1.325 1_554 S
C869 H892 0.950 1_554 S
C870 C869 1.349 . S
C870 C882 1.349 . S
C871 C869 1.325 1_556 S
C871 C887 1.424 1_556 S
C871 H893 0.957 . S
C872 H868 0.949 . S
C872 C880 1.574 . S
C872 C888 1.368 . S
H873 C881 0.950 . S
H874 C879 0.950 . S
H875 C880 0.949 . S
H876 C882 0.950 . S
H877 C883 0.950 . S
H878 C884 0.949 . S
C879 H874 0.950 . S
C879 C881 1.327 . S
C879 C885 1.429 . S
C880 C872 1.574 . S
C880 H875 0.949 . S
C880 C886 1.368 1_554 S
C881 C865 1.349 . S
C881 H873 0.950 . S
C881 C879 1.327 . S
C882 C870 1.349 . S
C882 H876 0.950 . S
C882 C883 1.327 . S
C883 H877 0.950 . S
C883 C882 1.327 . S
C883 C887 1.429 . S
C884 C867 1.574 . S
C884 H878 0.949 . S
C884 C888 1.368 1_556 S
C885 C866 1.424 1_556 S
C885 C879 1.429 . S
C885 C886 1.523 . S
C886 C867 1.368 . S
C886 C880 1.368 1_556 S
C886 C885 1.523 . S
C887 C871 1.424 1_554 S
C887 C883 1.429 . S
C887 C888 1.523 . S
C888 C872 1.368 . S
C888 C884 1.368 1_554 S
C888 C887 1.523 . S
H889 C864 0.950 1_554 S
H890 C866 0.957 . S
H891 C867 0.949 . S
H892 C869 0.950 1_556 S
H893 C871 0.957 . S
C894 C895 1.349 . S
C894 C896 1.327 . S
C894 H919 0.950 . S
C895 C894 1.349 . S
C895 C911 1.347 1_554 S
C896 C894 1.327 . S
C896 C915 1.429 . S
C896 H920 0.950 . S
C897 C914 1.574 1_565 S
C897 C916 1.368 1_556 S
C897 H921 0.949 . S
H898 C902 0.949 . S
C899 C900 1.349 . S
C899 C901 1.327 . S
C899 H922 0.950 . S
C900 C899 1.349 . S
C900 C912 1.347 1_556 S
C901 C899 1.327 . S
C901 C917 1.429 . S
C901 H923 0.950 . S
C902 H898 0.949 . S
C902 C910 1.574 1_545 S
C902 C918 1.368 1_554 S
H903 C911 0.951 . S
H904 C909 0.950 . S
H905 C910 0.949 . S
H906 C912 0.951 . S
H907 C913 0.950 . S
H908 C914 0.949 . S
C909 H904 0.950 . S
C909 C911 1.328 . S
C909 C915 1.429 1_556 S
C910 C902 1.574 1_565 S
C910 H905 0.949 . S
C910 C916 1.368 . S
C911 C895 1.347 1_556 S
C911 H903 0.951 . S
C911 C909 1.328 . S
C912 C900 1.347 1_554 S
C912 H906 0.951 . S
C912 C913 1.328 . S
C913 H907 0.950 . S
C913 C912 1.328 . S
C913 C917 1.429 1_554 S
C914 C897 1.574 1_545 S
C914 H908 0.949 . S
C914 C918 1.368 . S
C915 C896 1.429 . S
C915 C909 1.429 1_554 S
C915 C916 1.523 . S
C916 C897 1.368 1_554 S
C916 C910 1.368 . S
C916 C915 1.523 . S
C917 C901 1.429 . S
C917 C913 1.429 1_556 S
C917 C918 1.523 . S
C918 C902 1.368 1_556 S
C918 C914 1.368 . S
C918 C917 1.523 . S
H919 C894 0.950 . S
H920 C896 0.950 . S
H921 C897 0.949 . S
H922 C899 0.950 . S
H923 C901 0.950 . S
C924 C925 1.349 . S
C924 C926 1.327 . S
C924 H949 0.950 . S
C925 C924 1.349 . S
C925 C941 1.349 . S
C926 C924 1.327 . S
C926 C945 1.429 . S
C926 H950 0.950 . S
C927 C944 1.574 1_655 S
C927 C946 1.368 . S
C927 H951 0.949 . S
H928 C932 0.949 . S
C929 C930 1.349 . S
C929 C931 1.327 . S
C929 H952 0.950 . S
C930 C929 1.349 . S
C930 C942 1.349 . S
C931 C929 1.327 . S
C931 C947 1.429 . S
C931 H953 0.950 . S
C932 H928 0.949 . S
C932 C940 1.574 1_455 S
C932 C948 1.368 . S
H933 C941 0.950 . S
H934 C939 0.950 . S
H935 C940 0.949 . S
H936 C942 0.950 . S
H937 C943 0.950 . S
H938 C944 0.949 . S
C939 H934 0.950 . S
C939 C941 1.327 . S
C939 C945 1.429 . S
C940 C932 1.574 1_655 S
C940 H935 0.949 . S
C940 C946 1.368 1_554 S
C941 C925 1.349 . S
C941 H933 0.950 . S
C941 C939 1.327 . S
C942 C930 1.349 . S
C942 H936 0.950 . S
C942 C943 1.327 . S
C943 H937 0.950 . S
C943 C942 1.327 . S
C943 C947 1.429 . S
C944 C927 1.574 1_455 S
C944 H938 0.949 . S
C944 C948 1.368 1_556 S
C945 C926 1.429 . S
C945 C939 1.429 . S
C945 C946 1.523 . S
C946 C927 1.368 . S
C946 C940 1.368 1_556 S
C946 C945 1.523 . S
C947 C931 1.429 . S
C947 C943 1.429 . S
C947 C948 1.523 . S
C948 C932 1.368 . S
C948 C944 1.368 1_554 S
C948 C947 1.523 . S
H949 C924 0.950 . S
H950 C926 0.950 . S
H951 C927 0.949 . S
H952 C929 0.950 . S
H953 C931 0.950 . S
C954 C955 1.349 . S
C954 C956 1.327 . S
C954 H979 0.950 . S
C955 C954 1.349 . S
C955 C971 1.349 . S
C956 C954 1.327 . S
C956 C975 1.429 . S
C956 H980 0.950 . S
C957 C974 1.574 . S
C957 C976 1.368 . S
C957 H981 0.949 . S
H958 C962 0.949 . S
C959 C960 1.349 . S
C959 C961 1.327 . S
C959 H982 0.950 . S
C960 C959 1.349 . S
C960 C972 1.349 . S
C961 C959 1.327 . S
C961 C977 1.429 . S
C961 H983 0.950 . S
C962 H958 0.949 . S
C962 C970 1.574 . S
C962 C978 1.368 . S
H963 C971 0.950 . S
H964 C969 0.950 . S
H965 C970 0.949 . S
H966 C972 0.950 . S
H967 C973 0.950 . S
H968 C974 0.949 . S
C969 H964 0.950 . S
C969 C971 1.327 . S
C969 C975 1.429 . S
C970 C962 1.574 . S
C970 H965 0.949 . S
C970 C976 1.368 . S
C971 C955 1.349 . S
C971 H963 0.950 . S
C971 C969 1.327 . S
C972 C960 1.349 . S
C972 H966 0.950 . S
C972 C973 1.327 . S
C973 H967 0.950 . S
C973 C972 1.327 . S
C973 C977 1.429 . S
C974 C957 1.574 . S
C974 H968 0.949 . S
C974 C978 1.368 . S
C975 C956 1.429 . S
C975 C969 1.429 . S
C975 C976 1.523 . S
C976 C957 1.368 . S
C976 C970 1.368 . S
C976 C975 1.523 . S
C977 C961 1.429 . S
C977 C973 1.429 . S
C977 C978 1.523 . S
C978 C962 1.368 . S
C978 C974 1.368 . S
C978 C977 1.523 . S
H979 C954 0.950 . S
H980 C956 0.950 . S
H981 C957 0.949 . S
H982 C959 0.950 . S
H983 C961 0.950 . S
C984 C985 1.349 . S
C984 C986 1.327 . S
C984 H1009 0.950 . S
C985 C984 1.349 . S
C985 C1001 1.349 . S
C986 C984 1.327 . S
C986 C1005 1.429 . S
C986 H1010 0.950 . S
C987 C1004 1.574 . S
C987 C1006 1.368 . S
C987 H1011 0.949 . S
H988 C992 0.949 . S
C989 C990 1.349 . S
C989 C991 1.327 . S
C989 H1012 0.950 . S
C990 C989 1.349 . S
C990 C1002 1.349 . S
C991 C989 1.327 . S
C991 C1007 1.429 . S
C991 H1013 0.950 . S
C992 H988 0.949 . S
C992 C1000 1.574 . S
C992 C1008 1.368 . S
H993 C1001 0.950 . S
H994 C999 0.950 . S
H995 C1000 0.949 . S
H996 C1002 0.950 . S
H997 C1003 0.950 . S
H998 C1004 0.949 . S
C999 H994 0.950 . S
C999 C1001 1.327 . S
C999 C1005 1.429 . S
C1000 C992 1.574 . S
C1000 H995 0.949 . S
C1000 C1006 1.368 . S
C1001 C985 1.349 . S
C1001 H993 0.950 . S
C1001 C999 1.327 . S
C1002 C990 1.349 . S
C1002 H996 0.950 . S
C1002 C1003 1.327 . S
C1003 H997 0.950 . S
C1003 C1002 1.327 . S
C1003 C1007 1.429 . S
C1004 C987 1.574 . S
C1004 H998 0.949 . S
C1004 C1008 1.368 . S
C1005 C986 1.429 . S
C1005 C999 1.429 . S
C1005 C1006 1.523 . S
C1006 C987 1.368 . S
C1006 C1000 1.368 . S
C1006 C1005 1.523 . S
C1007 C991 1.429 . S
C1007 C1003 1.429 . S
C1007 C1008 1.523 . S
C1008 C992 1.368 . S
C1008 C1004 1.368 . S
C1008 C1007 1.523 . S
H1009 C984 0.950 . S
H1010 C986 0.950 . S
H1011 C987 0.949 . S
H1012 C989 0.950 . S
H1013 C991 0.950 . S
C1014 C1015 1.349 . S
C1014 C1016 1.327 . S
C1014 H1039 0.950 . S
C1015 C1014 1.349 . S
C1015 C1031 1.349 . S
C1016 C1014 1.327 . S
C1016 C1035 1.429 . S
C1016 H1040 0.950 . S
C1017 C1034 1.574 . S
C1017 C1036 1.368 . S
C1017 H1041 0.949 . S
H1018 C1022 0.949 . S
C1019 C1020 1.349 . S
C1019 C1021 1.327 . S
C1019 H1042 0.950 . S
C1020 C1019 1.349 . S
C1020 C1032 1.349 . S
C1021 C1019 1.327 . S
C1021 C1037 1.429 . S
C1021 H1043 0.950 . S
C1022 H1018 0.949 . S
C1022 C1030 1.574 . S
C1022 C1038 1.368 . S
H1023 C1031 0.950 . S
H1024 C1029 0.950 . S
H1025 C1030 0.949 . S
H1026 C1032 0.950 . S
H1027 C1033 0.950 . S
H1028 C1034 0.949 . S
C1029 H1024 0.950 . S
C1029 C1031 1.327 . S
C1029 C1035 1.429 . S
C1030 C1022 1.574 . S
C1030 H1025 0.949 . S
C1030 C1036 1.368 . S
C1031 C1015 1.349 . S
C1031 H1023 0.950 . S
C1031 C1029 1.327 . S
C1032 C1020 1.349 . S
C1032 H1026 0.950 . S
C1032 C1033 1.327 . S
C1033 H1027 0.950 . S
C1033 C1032 1.327 . S
C1033 C1037 1.429 . S
C1034 C1017 1.574 . S
C1034 H1028 0.949 . S
C1034 C1038 1.368 . S
C1035 C1016 1.429 . S
C1035 C1029 1.429 . S
C1035 C1036 1.523 . S
C1036 C1017 1.368 . S
C1036 C1030 1.368 . S
C1036 C1035 1.523 . S
C1037 C1021 1.429 . S
C1037 C1033 1.429 . S
C1037 C1038 1.523 . S
C1038 C1022 1.368 . S
C1038 C1034 1.368 . S
C1038 C1037 1.523 . S
H1039 C1014 0.950 . S
H1040 C1016 0.950 . S
H1041 C1017 0.949 . S
H1042 C1019 0.950 . S
H1043 C1021 0.950 . S
C1044 C1045 1.349 . S
C1044 C1046 1.327 . S
C1044 H1069 0.950 . S
C1045 C1044 1.349 . S
C1045 C1061 1.349 . S
C1046 C1044 1.327 . S
C1046 C1065 1.429 . S
C1046 H1070 0.950 . S
C1047 C1064 1.574 . S
C1047 C1066 1.368 . S
C1047 H1071 0.949 . S
H1048 C1052 0.949 . S
C1049 C1050 1.349 . S
C1049 C1051 1.327 . S
C1049 H1072 0.950 . S
C1050 C1049 1.349 . S
C1050 C1062 1.349 . S
C1051 C1049 1.327 . S
C1051 C1067 1.429 . S
C1051 H1073 0.950 . S
C1052 H1048 0.949 . S
C1052 C1060 1.574 . S
C1052 C1068 1.368 . S
H1053 C1061 0.950 . S
H1054 C1059 0.950 . S
H1055 C1060 0.949 . S
H1056 C1062 0.950 . S
H1057 C1063 0.950 . S
H1058 C1064 0.949 . S
C1059 H1054 0.950 . S
C1059 C1061 1.327 . S
C1059 C1065 1.429 . S
C1060 C1052 1.574 . S
C1060 H1055 0.949 . S
C1060 C1066 1.368 . S
C1061 C1045 1.349 . S
C1061 H1053 0.950 . S
C1061 C1059 1.327 . S
C1062 C1050 1.349 . S
C1062 H1056 0.950 . S
C1062 C1063 1.327 . S
C1063 H1057 0.950 . S
C1063 C1062 1.327 . S
C1063 C1067 1.429 . S
C1064 C1047 1.574 . S
C1064 H1058 0.949 . S
C1064 C1068 1.368 . S
C1065 C1046 1.429 . S
C1065 C1059 1.429 . S
C1065 C1066 1.523 . S
C1066 C1047 1.368 . S
C1066 C1060 1.368 . S
C1066 C1065 1.523 . S
C1067 C1051 1.429 . S
C1067 C1063 1.429 . S
C1067 C1068 1.523 . S
C1068 C1052 1.368 . S
C1068 C1064 1.368 . S
C1068 C1067 1.523 . S
H1069 C1044 0.950 . S
H1070 C1046 0.950 . S
H1071 C1047 0.949 . S
H1072 C1049 0.950 . S
H1073 C1051 0.950 . S
C1074 C1075 1.349 . S
C1074 C1076 1.327 . S
C1074 H1099 0.950 . S
C1075 C1074 1.349 . S
C1075 C1091 1.349 . S
C1076 C1074 1.327 . S
C1076 C1095 1.429 . S
C1076 H1100 0.950 . S
C1077 C1094 1.574 . S
C1077 C1096 1.368 . S
C1077 H1101 0.949 . S
H1078 C1082 0.949 . S
C1079 C1080 1.349 . S
C1079 C1081 1.327 . S
C1079 H1102 0.950 . S
C1080 C1079 1.349 . S
C1080 C1092 1.349 . S
C1081 C1079 1.327 . S
C1081 C1097 1.429 . S
C1081 H1103 0.950 . S
C1082 H1078 0.949 . S
C1082 C1090 1.574 . S
C1082 C1098 1.368 . S
H1083 C1091 0.950 . S
H1084 C1089 0.950 . S
H1085 C1090 0.949 . S
H1086 C1092 0.950 . S
H1087 C1093 0.950 . S
H1088 C1094 0.949 . S
C1089 H1084 0.950 . S
C1089 C1091 1.327 . S
C1089 C1095 1.429 . S
C1090 C1082 1.574 . S
C1090 H1085 0.949 . S
C1090 C1096 1.368 . S
C1091 C1075 1.349 . S
C1091 H1083 0.950 . S
C1091 C1089 1.327 . S
C1092 C1080 1.349 . S
C1092 H1086 0.950 . S
C1092 C1093 1.327 . S
C1093 H1087 0.950 . S
C1093 C1092 1.327 . S
C1093 C1097 1.429 . S
C1094 C1077 1.574 . S
C1094 H1088 0.949 . S
C1094 C1098 1.368 . S
C1095 C1076 1.429 . S
C1095 C1089 1.429 . S
C1095 C1096 1.523 . S
C1096 C1077 1.368 . S
C1096 C1090 1.368 . S
C1096 C1095 1.523 . S
C1097 C1081 1.429 . S
C1097 C1093 1.429 . S
C1097 C1098 1.523 . S
C1098 C1082 1.368 . S
C1098 C1094 1.368 . S
C1098 C1097 1.523 . S
H1099 C1074 0.950 . S
H1100 C1076 0.950 . S
H1101 C1077 0.949 . S
H1102 C1079 0.950 . S
H1103 C1081 0.950 . S
C1104 C1105 1.349 . S
C1104 C1106 1.327 . S
C1104 H1129 0.950 . S
C1105 C1104 1.349 . S
C1105 C1121 1.349 . S
C1106 C1104 1.327 . S
C1106 C1125 1.429 . S
C1106 H1130 0.950 . S
C1107 C1124 1.574 . S
C1107 C1126 1.368 . S
C1107 H1131 0.949 . S
H1108 C1112 0.949 . S
C1109 C1110 1.349 . S
C1109 C1111 1.327 . S
C1109 H1132 0.950 . S
C1110 C1109 1.349 . S
C1110 C1122 1.349 . S
C1111 C1109 1.327 . S
C1111 C1127 1.429 . S
C1111 H1133 0.950 . S
C1112 H1108 0.949 . S
C1112 C1120 1.574 . S
C1112 C1128 1.368 . S
H1113 C1121 0.950 . S
H1114 C1119 0.950 . S
H1115 C1120 0.949 . S
H1116 C1122 0.950 . S
H1117 C1123 0.950 . S
H1118 C1124 0.949 . S
C1119 H1114 0.950 . S
C1119 C1121 1.327 . S
C1119 C1125 1.429 . S
C1120 C1112 1.574 . S
C1120 H1115 0.949 . S
C1120 C1126 1.368 . S
C1121 C1105 1.349 . S
C1121 H1113 0.950 . S
C1121 C1119 1.327 . S
C1122 C1110 1.349 . S
C1122 H1116 0.950 . S
C1122 C1123 1.327 . S
C1123 H1117 0.950 . S
C1123 C1122 1.327 . S
C1123 C1127 1.429 . S
C1124 C1107 1.574 . S
C1124 H1118 0.949 . S
C1124 C1128 1.368 . S
C1125 C1106 1.429 . S
C1125 C1119 1.429 . S
C1125 C1126 1.523 . S
C1126 C1107 1.368 . S
C1126 C1120 1.368 . S
C1126 C1125 1.523 . S
C1127 C1111 1.429 . S
C1127 C1123 1.429 . S
C1127 C1128 1.523 . S
C1128 C1112 1.368 . S
C1128 C1124 1.368 . S
C1128 C1127 1.523 . S
H1129 C1104 0.950 . S
H1130 C1106 0.950 . S
H1131 C1107 0.949 . S
H1132 C1109 0.950 . S
H1133 C1111 0.950 . S
C1134 C1135 1.349 . S
C1134 C1136 1.327 . S
C1134 H1159 0.950 . S
C1135 C1134 1.349 . S
C1135 C1151 1.349 . S
C1136 C1134 1.327 . S
C1136 C1155 1.429 . S
C1136 H1160 0.950 . S
C1137 C1154 1.574 . S
C1137 C1156 1.368 . S
C1137 H1161 0.949 . S
H1138 C1142 0.949 . S
C1139 C1140 1.349 . S
C1139 C1141 1.327 . S
C1139 H1162 0.950 . S
C1140 C1139 1.349 . S
C1140 C1152 1.349 . S
C1141 C1139 1.327 . S
C1141 C1157 1.429 . S
C1141 H1163 0.950 . S
C1142 H1138 0.949 . S
C1142 C1150 1.574 . S
C1142 C1158 1.368 . S
H1143 C1151 0.950 . S
H1144 C1149 0.950 . S
H1145 C1150 0.949 . S
H1146 C1152 0.950 . S
H1147 C1153 0.950 . S
H1148 C1154 0.949 . S
C1149 H1144 0.950 . S
C1149 C1151 1.327 . S
C1149 C1155 1.429 . S
C1150 C1142 1.574 . S
C1150 H1145 0.949 . S
C1150 C1156 1.368 . S
C1151 C1135 1.349 . S
C1151 H1143 0.950 . S
C1151 C1149 1.327 . S
C1152 C1140 1.349 . S
C1152 H1146 0.950 . S
C1152 C1153 1.327 . S
C1153 H1147 0.950 . S
C1153 C1152 1.327 . S
C1153 C1157 1.429 . S
C1154 C1137 1.574 . S
C1154 H1148 0.949 . S
C1154 C1158 1.368 . S
C1155 C1136 1.429 . S
C1155 C1149 1.429 . S
C1155 C1156 1.523 . S
C1156 C1137 1.368 . S
C1156 C1150 1.368 . S
C1156 C1155 1.523 . S
C1157 C1141 1.429 . S
C1157 C1153 1.429 . S
C1157 C1158 1.523 . S
C1158 C1142 1.368 . S
C1158 C1154 1.368 . S
C1158 C1157 1.523 . S
H1159 C1134 0.950 . S
H1160 C1136 0.950 . S
H1161 C1137 0.949 . S
H1162 C1139 0.950 . S
H1163 C1141 0.950 . S
C1164 C1165 1.349 . S
C1164 C1166 1.327 . S
C1164 H1189 0.950 . S
C1165 C1164 1.349 . S
C1165 C1181 1.349 . S
C1166 C1164 1.327 . S
C1166 C1185 1.429 . S
C1166 H1190 0.950 . S
C1167 C1184 1.574 . S
C1167 C1186 1.368 . S
C1167 H1191 0.949 . S
H1168 C1172 0.949 . S
C1169 C1170 1.349 . S
C1169 C1171 1.327 . S
C1169 H1192 0.950 . S
C1170 C1169 1.349 . S
C1170 C1182 1.349 . S
C1171 C1169 1.327 . S
C1171 C1187 1.429 . S
C1171 H1193 0.950 . S
C1172 H1168 0.949 . S
C1172 C1180 1.574 . S
C1172 C1188 1.368 . S
H1173 C1181 0.950 . S
H1174 C1179 0.950 . S
H1175 C1180 0.949 . S
H1176 C1182 0.950 . S
H1177 C1183 0.950 . S
H1178 C1184 0.949 . S
C1179 H1174 0.950 . S
C1179 C1181 1.327 . S
C1179 C1185 1.429 . S
C1180 C1172 1.574 . S
C1180 H1175 0.949 . S
C1180 C1186 1.368 . S
C1181 C1165 1.349 . S
C1181 H1173 0.950 . S
C1181 C1179 1.327 . S
C1182 C1170 1.349 . S
C1182 H1176 0.950 . S
C1182 C1183 1.327 . S
C1183 H1177 0.950 . S
C1183 C1182 1.327 . S
C1183 C1187 1.429 . S
C1184 C1167 1.574 . S
C1184 H1178 0.949 . S
C1184 C1188 1.368 . S
C1185 C1166 1.429 . S
C1185 C1179 1.429 . S
C1185 C1186 1.523 . S
C1186 C1167 1.368 . S
C1186 C1180 1.368 . S
C1186 C1185 1.523 . S
C1187 C1171 1.429 . S
C1187 C1183 1.429 . S
C1187 C1188 1.523 . S
C1188 C1172 1.368 . S
C1188 C1184 1.368 . S
C1188 C1187 1.523 . S
H1189 C1164 0.950 . S
H1190 C1166 0.950 . S
H1191 C1167 0.949 . S
H1192 C1169 0.950 . S
H1193 C1171 0.950 . S
C1194 C1195 1.349 . S
C1194 C1196 1.327 . S
C1194 H1219 0.950 . S
C1195 C1194 1.349 . S
C1195 C1211 1.349 . S
C1196 C1194 1.327 . S
C1196 C1215 1.429 . S
C1196 H1220 0.950 . S
C1197 C1214 1.574 . S
C1197 C1216 1.368 . S
C1197 H1221 0.949 . S
H1198 C1202 0.949 . S
C1199 C1200 1.349 . S
C1199 C1201 1.327 . S
C1199 H1222 0.950 . S
C1200 C1199 1.349 . S
C1200 C1212 1.349 . S
C1201 C1199 1.327 . S
C1201 C1217 1.429 . S
C1201 H1223 0.950 . S
C1202 H1198 0.949 . S
C1202 C1210 1.574 . S
C1202 C1218 1.368 . S
H1203 C1211 0.950 . S
H1204 C1209 0.950 . S
H1205 C1210 0.949 . S
H1206 C1212 0.950 . S
H1207 C1213 0.950 . S
H1208 C1214 0.949 . S
C1209 H1204 0.950 . S
C1209 C1211 1.327 . S
C1209 C1215 1.429 . S
C1210 C1202 1.574 . S
C1210 H1205 0.949 . S
C1210 C1216 1.368 . S
C1211 C1195 1.349 . S
C1211 H1203 0.950 . S
C1211 C1209 1.327 . S
C1212 C1200 1.349 . S
C1212 H1206 0.950 . S
C1212 C1213 1.327 . S
C1213 H1207 0.950 . S
C1213 C1212 1.327 . S
C1213 C1217 1.429 . S
C1214 C1197 1.574 . S
C1214 H1208 0.949 . S
C1214 C1218 1.368 . S
C1215 C1196 1.429 . S
C1215 C1209 1.429 . S
C1215 C1216 1.523 . S
C1216 C1197 1.368 . S
C1216 C1210 1.368 . S
C1216 C1215 1.523 . S
C1217 C1201 1.429 . S
C1217 C1213 1.429 . S
C1217 C1218 1.523 . S
C1218 C1202 1.368 . S
C1218 C1214 1.368 . S
C1218 C1217 1.523 . S
H1219 C1194 0.950 . S
H1220 C1196 0.950 . S
H1221 C1197 0.949 . S
H1222 C1199 0.950 . S
H1223 C1201 0.950 . S
C1224 C1225 1.349 . S
C1224 C1226 1.327 . S
C1224 H1249 0.950 . S
C1225 C1224 1.349 . S
C1225 C1241 1.349 . S
C1226 C1224 1.327 . S
C1226 C1245 1.429 . S
C1226 H1250 0.950 . S
C1227 C1244 1.574 . S
C1227 C1246 1.368 . S
C1227 H1251 0.949 . S
H1228 C1232 0.949 . S
C1229 C1230 1.349 . S
C1229 C1231 1.327 . S
C1229 H1252 0.950 . S
C1230 C1229 1.349 . S
C1230 C1242 1.349 . S
C1231 C1229 1.327 . S
C1231 C1247 1.429 . S
C1231 H1253 0.950 . S
C1232 H1228 0.949 . S
C1232 C1240 1.574 . S
C1232 C1248 1.368 . S
H1233 C1241 0.950 . S
H1234 C1239 0.950 . S
H1235 C1240 0.949 . S
H1236 C1242 0.950 . S
H1237 C1243 0.950 . S
H1238 C1244 0.949 . S
C1239 H1234 0.950 . S
C1239 C1241 1.327 . S
C1239 C1245 1.429 . S
C1240 C1232 1.574 . S
C1240 H1235 0.949 . S
C1240 C1246 1.368 . S
C1241 C1225 1.349 . S
C1241 H1233 0.950 . S
C1241 C1239 1.327 . S
C1242 C1230 1.349 . S
C1242 H1236 0.950 . S
C1242 C1243 1.327 . S
C1243 H1237 0.950 . S
C1243 C1242 1.327 . S
C1243 C1247 1.429 . S
C1244 C1227 1.574 . S
C1244 H1238 0.949 . S
C1244 C1248 1.368 . S
C1245 C1226 1.429 . S
C1245 C1239 1.429 . S
C1245 C1246 1.523 . S
C1246 C1227 1.368 . S
C1246 C1240 1.368 . S
C1246 C1245 1.523 . S
C1247 C1231 1.429 . S
C1247 C1243 1.429 . S
C1247 C1248 1.523 . S
C1248 C1232 1.368 . S
C1248 C1244 1.368 . S
C1248 C1247 1.523 . S
H1249 C1224 0.950 . S
H1250 C1226 0.950 . S
H1251 C1227 0.949 . S
H1252 C1229 0.950 . S
H1253 C1231 0.950 . S
C1254 C1255 1.349 . S
C1254 C1256 1.327 . S
C1254 H1279 0.950 . S
C1255 C1254 1.349 . S
C1255 C1271 1.349 . S
C1256 C1254 1.327 . S
C1256 C1275 1.429 . S
C1256 H1280 0.950 . S
C1257 C1274 1.574 . S
C1257 C1276 1.368 . S
C1257 H1281 0.949 . S
H1258 C1262 0.949 . S
C1259 C1260 1.349 . S
C1259 C1261 1.327 . S
C1259 H1282 0.950 . S
C1260 C1259 1.349 . S
C1260 C1272 1.349 . S
C1261 C1259 1.327 . S
C1261 C1277 1.429 . S
C1261 H1283 0.950 . S
C1262 H1258 0.949 . S
C1262 C1270 1.574 . S
C1262 C1278 1.368 . S
H1263 C1271 0.950 . S
H1264 C1269 0.950 . S
H1265 C1270 0.949 . S
H1266 C1272 0.950 . S
H1267 C1273 0.950 . S
H1268 C1274 0.949 . S
C1269 H1264 0.950 . S
C1269 C1271 1.327 . S
C1269 C1275 1.429 . S
C1270 C1262 1.574 . S
C1270 H1265 0.949 . S
C1270 C1276 1.368 . S
C1271 C1255 1.349 . S
C1271 H1263 0.950 . S
C1271 C1269 1.327 . S
C1272 C1260 1.349 . S
C1272 H1266 0.950 . S
C1272 C1273 1.327 . S
C1273 H1267 0.950 . S
C1273 C1272 1.327 . S
C1273 C1277 1.429 . S
C1274 C1257 1.574 . S
C1274 H1268 0.949 . S
C1274 C1278 1.368 . S
C1275 C1256 1.429 . S
C1275 C1269 1.429 . S
C1275 C1276 1.523 . S
C1276 C1257 1.368 . S
C1276 C1270 1.368 . S
C1276 C1275 1.523 . S
C1277 C1261 1.429 . S
C1277 C1273 1.429 . S
C1277 C1278 1.523 . S
C1278 C1262 1.368 . S
C1278 C1274 1.368 . S
C1278 C1277 1.523 . S
H1279 C1254 0.950 . S
H1280 C1256 0.950 . S
H1281 C1257 0.949 . S
H1282 C1259 0.950 . S
H1283 C1261 0.950 . S
C1284 C1285 1.349 . S
C1284 C1286 1.327 . S
C1284 H1309 0.950 . S
C1285 C1284 1.349 . S
C1285 C1301 1.349 . S
C1286 C1284 1.327 . S
C1286 C1305 1.429 . S
C1286 H1310 0.950 . S
C1287 C1304 1.574 . S
C1287 C1306 1.368 . S
C1287 H1311 0.949 . S
H1288 C1292 0.949 . S
C1289 C1290 1.349 . S
C1289 C1291 1.327 . S
C1289 H1312 0.950 . S
C1290 C1289 1.349 . S
C1290 C1302 1.349 . S
C1291 C1289 1.327 . S
C1291 C1307 1.429 . S
C1291 H1313 0.950 . S
C1292 H1288 0.949 . S
C1292 C1300 1.574 . S
C1292 C1308 1.368 . S
H1293 C1301 0.950 . S
H1294 C1299 0.950 . S
H1295 C1300 0.949 . S
H1296 C1302 0.950 . S
H1297 C1303 0.950 . S
H1298 C1304 0.949 . S
C1299 H1294 0.950 . S
C1299 C1301 1.327 . S
C1299 C1305 1.429 . S
C1300 C1292 1.574 . S
C1300 H1295 0.949 . S
C1300 C1306 1.368 . S
C1301 C1285 1.349 . S
C1301 H1293 0.950 . S
C1301 C1299 1.327 . S
C1302 C1290 1.349 . S
C1302 H1296 0.950 . S
C1302 C1303 1.327 . S
C1303 H1297 0.950 . S
C1303 C1302 1.327 . S
C1303 C1307 1.429 . S
C1304 C1287 1.574 . S
C1304 H1298 0.949 . S
C1304 C1308 1.368 . S
C1305 C1286 1.429 . S
C1305 C1299 1.429 . S
C1305 C1306 1.523 . S
C1306 C1287 1.368 . S
C1306 C1300 1.368 . S
C1306 C1305 1.523 . S
C1307 C1291 1.429 . S
C1307 C1303 1.429 . S
C1307 C1308 1.523 . S
C1308 C1292 1.368 . S
C1308 C1304 1.368 . S
C1308 C1307 1.523 . S
H1309 C1284 0.950 . S
H1310 C1286 0.950 . S
H1311 C1287 0.949 . S
H1312 C1289 0.950 . S
H1313 C1291 0.950 . S
C235 C231 2.003 . S
C240 C10 2.003 . S
C265 C205 2.003 . S
C270 C17 2.003 . S
C295 C218 2.002 . S
C300 C30 2.002 . S
C325 C101 2.003 . S
C330 C49 2.003 . S
C355 C114 2.002 . S
C360 C62 2.002 . S
C385 C69 2.003 . S
C390 C88 2.003 . S
C415 C127 2.003 . S
C420 C173 2.003 . S
C445 C134 2.003 . S
C450 C186 2.003 . S
C475 C153 2.003 . S
C480 C166 2.003 . S
C505 C3 0.165 . S
C510 C224 0.165 . S
C535 C198 0.165 . S
C540 C18 0.165 . S
C565 C31 0.165 . S
C570 C211 0.165 . S
C595 C94 0.165 . S
C600 C42 0.165 . S
C625 C55 0.165 . S
C630 C107 0.165 . S
C655 C70 0.165 . S
C660 C81 0.165 . S
C685 C120 0.165 . S
C690 C174 0.165 . S
C715 C187 0.165 . S
C720 C135 0.165 . S
C745 C159 0.165 . S
C750 C146 0.165 . S
C775 C4 1.902 . S
C780 C43 1.902 . S
C805 C56 1.903 . S
C810 C23 1.903 . S
C835 C75 1.903 . S
C840 C36 1.903 . S
C865 C68 1.794 . S
C870 C16 1.794 . S
C895 C29 1.794 . S
C900 C44 1.794 . S
C925 C57 1.794 . S
C930 C5 1.794 . S
C955 C82 1.902 . S
C960 C121 1.902 . S
C985 C140 1.903 . S
C990 C95 1.903 . S
C1015 C147 1.903 . S
C1020 C108 1.903 . S
C1045 C148 1.794 . S
C1050 C96 1.794 . S
C1075 C109 1.794 . S
C1080 C122 1.794 . S
C1105 C133 1.794 . S
C1110 C83 1.794 . S
C1135 C199 1.902 . S
C1140 C160 1.902 . S
C1165 C212 1.903 . S
C1170 C179 1.903 . S
C1195 C192 1.903 . S
C1200 C225 1.903 . S
C1225 C226 1.794 . S
C1230 C172 1.794 . S
C1255 C185 1.794 . S
C1260 C200 1.794 . S
C1285 C213 1.794 . S
C1290 C161 1.794 . S
