# Generated by pormake.
# Topology qtz-e, (6)-cn, num edge types: 1
# Building blocks:
#     Node 0, Type 0, BuildingBlock: KUMJIN_clean_sbu_0, # of connection points: 6
#     Node 1, Type 0, BuildingBlock: KUMJIN_clean_sbu_0, # of connection points: 6
#     Node 2, Type 0, BuildingBlock: KUMJIN_clean_sbu_0, # of connection points: 6
#     Node 3, Type 0, BuildingBlock: KUMJIN_clean_sbu_0, # of connection points: 6
#     Node 4, Type 0, BuildingBlock: KUMJIN_clean_sbu_0, # of connection points: 6
#     Node 5, Type 0, BuildingBlock: KUMJIN_clean_sbu_0, # of connection points: 6
#     Edge 6, Type (0, 0), BuildingBlock: TEMPAE_clean_linker_10, # of connection points: 2
#     Edge 7, Type (0, 0), BuildingBlock: TEMPAE_clean_linker_10, # of connection points: 2
#     Edge 8, Type (0, 0), BuildingBlock: TEMPAE_clean_linker_10, # of connection points: 2
#     Edge 9, Type (0, 0), BuildingBlock: TEMPAE_clean_linker_10, # of connection points: 2
#     Edge 10, Type (0, 0), BuildingBlock: TEMPAE_clean_linker_10, # of connection points: 2
#     Edge 11, Type (0, 0), BuildingBlock: TEMPAE_clean_linker_10, # of connection points: 2
#     Edge 12, Type (0, 0), BuildingBlock: TEMPAE_clean_linker_10, # of connection points: 2
#     Edge 13, Type (0, 0), BuildingBlock: TEMPAE_clean_linker_10, # of connection points: 2
#     Edge 14, Type (0, 0), BuildingBlock: TEMPAE_clean_linker_10, # of connection points: 2
#     Edge 15, Type (0, 0), BuildingBlock: TEMPAE_clean_linker_10, # of connection points: 2
#     Edge 16, Type (0, 0), BuildingBlock: TEMPAE_clean_linker_10, # of connection points: 2
#     Edge 17, Type (0, 0), BuildingBlock: TEMPAE_clean_linker_10, # of connection points: 2
#     Edge 18, Type (0, 0), BuildingBlock: TEMPAE_clean_linker_10, # of connection points: 2
#     Edge 19, Type (0, 0), BuildingBlock: TEMPAE_clean_linker_10, # of connection points: 2
#     Edge 20, Type (0, 0), BuildingBlock: TEMPAE_clean_linker_10, # of connection points: 2
#     Edge 21, Type (0, 0), BuildingBlock: TEMPAE_clean_linker_10, # of connection points: 2
#     Edge 22, Type (0, 0), BuildingBlock: TEMPAE_clean_linker_10, # of connection points: 2
#     Edge 23, Type (0, 0), BuildingBlock: TEMPAE_clean_linker_10, # of connection points: 2
# Relax obj value: 0.058
# Max RMSD: 0.144
# Mean RMSD: 0.144
data_MOF--net-qtz-e--node1-KUMJIN_clean_sbu_0--edge1-TEMPAE_clean_linker_10
_symmetry_space_group_name_H-M    P1
_symmetry_Int_Tables_number       1
_symmetry_cell_setting            triclinic
loop_
_symmetry_equiv_pos_as_xyz
'x, y, z'
_cell_length_a     29.953408
_cell_length_b     29.923736
_cell_length_c     47.181881
_cell_angle_alpha  90.033008
_cell_angle_beta   89.922951
_cell_angle_gamma 120.1001
loop_
_atom_site_label
_atom_site_type_symbol
_atom_site_fract_x
_atom_site_fract_y
_atom_site_fract_z
_atom_type_partial_charge
Eu0 Eu 0.26417 0.49283 0.04668 0.0
C1 C 0.08748 0.26803 0.0268 0.0
C2 C 0.11146 0.22583 0.06245 0.0
C3 C 0.02149 0.18882 0.04899 0.0
C4 C 0.12504 0.26633 0.04288 0.0
C5 C 0.03529 0.22904 0.02944 0.0
C6 C 0.05952 0.18722 0.06545 0.0
C7 C 0.01443 0.27146 0.99255 0.0
N8 N 0.10197 0.30767 1.00839 0.0
C9 C 0.06664 0.30908 0.99068 0.0
C10 C 0.99858 0.23144 0.01219 0.0
Eu11 Eu 0.19076 0.37057 1.00614 0.0
N12 N 0.1748 0.30448 0.03957 0.0
C13 C 0.21317 0.30339 0.05469 0.0
C14 C 0.15047 0.22535 0.07844 0.0
C15 C 0.20157 0.2642 0.07444 0.0
H16 H 0.07878 0.33967 0.9752 0.0
H17 H 0.23209 0.26417 0.08668 0.0
H18 H 0.04838 0.15585 0.08037 0.0
H19 H 0.98651 0.27327 0.97878 0.0
H20 H 0.2528 0.33343 0.05242 0.0
H21 H 0.31097 0.65315 0.97423 0.0
H22 H 0.14158 0.19514 0.09383 0.0
H23 H 0.34091 0.48527 0.09617 0.0
H24 H 0.25434 0.57553 1.00238 0.0
H25 H 0.43337 0.52846 0.10843 0.0
H26 H 0.98159 0.15867 0.05142 0.0
H27 H 0.40575 0.6925 0.97736 0.0
H28 H 0.48185 0.6956 1.00155 0.0
H29 H 0.95812 0.20227 0.0136 0.0
H30 H 0.51511 0.6631 0.03905 0.0
N31 N 0.31599 0.56863 0.01971 0.0
C32 C 0.29555 0.59198 1.00371 0.0
C33 C 0.38101 0.65802 0.98949 0.0
C34 C 0.40186 0.63695 1.00812 0.0
C35 C 0.32757 0.6361 0.98778 0.0
C36 C 0.36791 0.59185 0.02332 0.0
H37 H 0.49715 0.60164 0.07954 0.0
N38 N 0.35245 0.53224 0.05994 0.0
C39 C 0.42078 0.54137 0.0903 0.0
C40 C 0.38671 0.57377 0.04449 0.0
C41 C 0.36842 0.51701 0.0833 0.0
C42 C 0.45671 0.58253 0.07382 0.0
C43 C 0.43985 0.59966 0.0508 0.0
O44 O 0.25678 0.50829 0.09109 0.0
O45 O 0.19885 0.41042 0.04788 0.0
O46 O 0.13699 0.4051 0.01213 0.0
O47 O 0.19448 0.49013 0.02664 0.0
O48 O 0.24885 0.4355 0.08177 0.0
O49 O 0.24687 0.55317 0.05822 0.0
O50 O 0.16832 0.34218 0.96263 0.0
O51 O 0.24829 0.45381 1.00467 0.0
O52 O 0.32264 0.47227 0.03297 0.0
O53 O 0.2754 0.38972 0.01301 0.0
O54 O 0.1943 0.42441 0.97185 0.0
O55 O 0.22872 0.335 0.983 0.0
C56 C 0.20636 0.39767 0.07224 0.0
C57 C 0.28952 0.59592 0.10033 0.0
C58 C 0.31783 0.64291 0.14466 0.0
C59 C 0.28128 0.60045 0.12905 0.0
C60 C 0.36342 0.68045 0.13154 0.0
C61 C 0.33432 0.63473 0.0871 0.0
C62 C 0.37141 0.67641 0.10276 0.0
C63 C 0.14859 0.45365 0.0177 0.0
C64 C 0.25295 0.54877 0.08524 0.0
C65 C 0.4741 0.6428 0.03462 0.0
C66 C 0.45517 0.66125 0.01322 0.0
C67 C 0.23453 0.46472 0.98166 0.0
C68 C 0.18555 0.27804 0.94431 0.0
C69 C 0.20984 0.27777 0.91847 0.0
C70 C 0.19332 0.2312 0.90313 0.0
C71 C 0.15261 0.18525 0.91456 0.0
C72 C 0.14514 0.23154 0.95486 0.0
C73 C 0.12893 0.18553 0.94007 0.0
C74 C 0.31913 0.43034 0.02205 0.0
C75 C 0.20197 0.32699 0.95985 0.0
H76 H 0.24638 0.571 0.13929 0.0
H77 H 0.39177 0.71377 0.14329 0.0
H78 H 0.34079 0.63302 0.0648 0.0
H79 H 0.40604 0.70592 0.09247 0.0
H80 H 0.24088 0.3138 0.91017 0.0
H81 H 0.13938 0.14861 0.90397 0.0
H82 H 0.1261 0.23087 0.97453 0.0
H83 H 0.09779 0.14973 0.94846 0.0
Eu84 Eu 0.74972 0.24981 0.37751 0.0
C85 C 0.80847 0.08179 0.35211 0.0
C86 C 0.86829 0.09582 0.39024 0.0
C87 C 0.81651 0.01 0.37013 0.0
C88 C 0.84498 0.11465 0.37142 0.0
C89 C 0.79466 0.02932 0.35083 0.0
C90 C 0.85321 0.04317 0.38982 0.0
C91 C 0.74172 0.01979 0.31009 0.0
N92 N 0.78805 0.10159 0.33376 0.0
C93 C 0.75673 0.07209 0.31214 0.0
C94 C 0.76023 0.99812 0.32974 0.0
Eu95 Eu 0.8147 0.19013 0.33909 0.0
N96 N 0.85856 0.16526 0.37141 0.0
C97 C 0.89745 0.19979 0.38844 0.0
C98 C 0.90661 0.13065 0.40863 0.0
C99 C 0.92154 0.18293 0.40756 0.0
H100 H 0.74265 0.08892 0.29681 0.0
H101 H 0.9516 0.21027 0.42144 0.0
H102 H 0.87029 0.02791 0.40431 0.0
H103 H 0.71604 0.9963 0.29331 0.0
H104 H 0.90928 0.24027 0.38783 0.0
H105 H 0.61227 0.25823 0.30469 0.0
H106 H 0.92554 0.11776 0.42336 0.0
H107 H 0.8377 0.34286 0.41969 0.0
H108 H 0.64879 0.21606 0.3338 0.0
H109 H 0.87719 0.43705 0.42657 0.0
H110 H 0.80599 0.96968 0.36967 0.0
H111 H 0.65198 0.35334 0.30552 0.0
H112 H 0.71846 0.43855 0.32604 0.0
H113 H 0.7487 0.95763 0.32805 0.0
H114 H 0.78981 0.48701 0.35949 0.0
N115 N 0.70985 0.28649 0.3502 0.0
C116 C 0.66659 0.25752 0.33435 0.0
C117 C 0.66819 0.33498 0.31837 0.0
C118 C 0.71046 0.3642 0.33609 0.0
C119 C 0.64565 0.28131 0.31786 0.0
C120 C 0.73028 0.33842 0.35226 0.0
H121 H 0.84854 0.48666 0.39735 0.0
N122 N 0.78755 0.33941 0.38681 0.0
C123 C 0.84712 0.41743 0.41093 0.0
C124 C 0.77 0.36566 0.37129 0.0
C125 C 0.82453 0.36409 0.40708 0.0
C126 C 0.83091 0.44532 0.39437 0.0
C127 C 0.79166 0.41946 0.37439 0.0
O128 O 0.72956 0.2515 0.42178 0.0
O129 O 0.78144 0.19636 0.38055 0.0
O130 O 0.73014 0.12566 0.34694 0.0
O131 O 0.69005 0.17372 0.35849 0.0
O132 O 0.79906 0.24735 0.41332 0.0
O133 O 0.66911 0.21156 0.39034 0.0
O134 O 0.83472 0.20511 0.294 0.0
O135 O 0.77765 0.23775 0.33621 0.0
O136 O 0.8207 0.31257 0.35731 0.0
O137 O 0.87187 0.2747 0.35414 0.0
O138 O 0.76138 0.18461 0.30372 0.0
O139 O 0.89287 0.21342 0.32322 0.0
C140 C 0.80217 0.20814 0.40473 0.0
C141 C 0.65279 0.25374 0.42795 0.0
C142 C 0.6203 0.27739 0.46906 0.0
C143 C 0.64722 0.25473 0.45738 0.0
C144 C 0.59966 0.29997 0.45117 0.0
C145 C 0.6322 0.27671 0.41024 0.0
C146 C 0.60597 0.2999 0.42188 0.0
C147 C 0.68847 0.1302 0.35129 0.0
C148 C 0.68021 0.22868 0.41634 0.0
C149 C 0.77333 0.44559 0.35761 0.0
C150 C 0.73279 0.41801 0.33851 0.0
C151 C 0.75342 0.2206 0.31321 0.0
C152 C 0.90012 0.19189 0.27501 0.0
C153 C 0.9339 0.22156 0.2526 0.0
C154 C 0.94588 0.19745 0.23 0.0
C155 C 0.92149 0.14292 0.23054 0.0
C156 C 0.88 0.13845 0.2753 0.0
C157 C 0.89012 0.11422 0.25312 0.0
C158 C 0.86604 0.31615 0.35453 0.0
C159 C 0.8821 0.21559 0.29666 0.0
H160 H 0.66268 0.23674 0.47114 0.0
H161 H 0.57862 0.31753 0.4599 0.0
H162 H 0.63591 0.27649 0.38749 0.0
H163 H 0.59008 0.3174 0.40815 0.0
H164 H 0.95038 0.26302 0.253 0.0
H165 H 0.92568 0.12141 0.21337 0.0
H166 H 0.85535 0.11515 0.29237 0.0
H167 H 0.8728 0.0726 0.25318 0.0
Eu168 Eu 0.51253 0.76706 0.71099 0.0
C169 C 0.7363 0.81484 0.68548 0.0
C170 C 0.78328 0.87481 0.72339 0.0
C171 C 0.8148 0.82055 0.70388 0.0
C172 C 0.74127 0.85234 0.70443 0.0
C173 C 0.77356 0.79924 0.68459 0.0
C174 C 0.81961 0.85821 0.72327 0.0
C175 C 0.72838 0.74522 0.64442 0.0
N176 N 0.69592 0.79482 0.66725 0.0
C177 C 0.69254 0.76206 0.64611 0.0
C178 C 0.76876 0.76341 0.66397 0.0
Eu179 Eu 0.63639 0.82435 0.67162 0.0
N180 N 0.70531 0.86725 0.70413 0.0
C181 C 0.7105 0.90639 0.72126 0.0
C182 C 0.78774 0.9136 0.74173 0.0
C183 C 0.75137 0.92969 0.74051 0.0
H184 H 0.66144 0.74824 0.63088 0.0
H185 H 0.75473 0.95998 0.75443 0.0
H186 H 0.8519 0.87471 0.73784 0.0
H187 H 0.72494 0.71837 0.62802 0.0
H188 H 0.68251 0.91897 0.72071 0.0
H189 H 0.35787 0.65067 0.63619 0.0
H190 H 0.8194 0.9318 0.75663 0.0
H191 H 0.51612 0.8498 0.76069 0.0
H192 H 0.43651 0.67582 0.6641 0.0
H193 H 0.4683 0.89399 0.77363 0.0
H194 H 0.84356 0.80871 0.70371 0.0
H195 H 0.31087 0.69847 0.642 0.0
H196 H 0.30111 0.76637 0.66806 0.0
H197 H 0.79658 0.75044 0.66259 0.0
H198 H 0.33045 0.8317 0.7059 0.0
N199 N 0.43568 0.73862 0.68449 0.0
C200 C 0.41649 0.69699 0.66678 0.0
C201 C 0.34548 0.70971 0.65425 0.0
C202 C 0.36304 0.74972 0.67413 0.0
C203 C 0.37182 0.68258 0.65096 0.0
C204 C 0.40851 0.763 0.68939 0.0
H205 H 0.3918 0.87833 0.74593 0.0
N206 N 0.46771 0.80989 0.72562 0.0
C207 C 0.45572 0.86759 0.75585 0.0
C208 C 0.42466 0.79936 0.71081 0.0
C209 C 0.48268 0.84234 0.74847 0.0
C210 C 0.41266 0.85879 0.74008 0.0
C211 C 0.39638 0.82408 0.71736 0.0
O212 O 0.49192 0.74036 0.75458 0.0
O213 O 0.59637 0.79116 0.71296 0.0
O214 O 0.60918 0.7379 0.67879 0.0
O215 O 0.52134 0.70458 0.6889 0.0
O216 O 0.5669 0.81007 0.74718 0.0
O217 O 0.46285 0.68525 0.71976 0.0
O218 O 0.64715 0.83848 0.62604 0.0
O219 O 0.55279 0.79577 0.66987 0.0
O220 O 0.52741 0.84397 0.69596 0.0
O221 O 0.61548 0.88676 0.68485 0.0
O222 O 0.58409 0.77482 0.63642 0.0
O223 O 0.68893 0.90228 0.65451 0.0
C224 C 0.6073 0.81044 0.73756 0.0
C225 C 0.40859 0.66865 0.75936 0.0
C226 C 0.35472 0.63362 0.80099 0.0
C227 C 0.40349 0.65788 0.78836 0.0
C228 C 0.31079 0.62068 0.78462 0.0
C229 C 0.36452 0.65608 0.74307 0.0
C230 C 0.31584 0.63235 0.75575 0.0
C231 C 0.56096 0.69864 0.68193 0.0
C232 C 0.46022 0.69286 0.7468 0.0
C233 C 0.3524 0.81272 0.70138 0.0
C234 C 0.33578 0.77563 0.67979 0.0
C235 C 0.54277 0.77239 0.64647 0.0
C236 C 0.72318 0.90871 0.60757 0.0
C237 C 0.72691 0.94313 0.58578 0.0
C238 C 0.76375 0.95743 0.56346 0.0
C239 C 0.79597 0.93546 0.56391 0.0
C240 C 0.75763 0.89006 0.6077 0.0
C241 C 0.79355 0.90323 0.58598 0.0
C242 C 0.57127 0.88601 0.69009 0.0
C243 C 0.67969 0.88771 0.62805 0.0
H244 H 0.43732 0.66718 0.80099 0.0
H245 H 0.27275 0.60149 0.79418 0.0
H246 H 0.36744 0.66406 0.72062 0.0
H247 H 0.28198 0.6225 0.74314 0.0
H248 H 0.70062 0.95799 0.58635 0.0
H249 H 0.82287 0.94194 0.54699 0.0
H250 H 0.75573 0.864 0.62415 0.0
H251 H 0.81904 0.88736 0.58586 0.0
Eu252 Eu 0.77198 0.50946 0.04093 0.0
C253 C 0.92621 0.73865 0.01648 0.0
C254 C 0.90558 0.77918 0.05485 0.0
C255 C 0.99313 0.81974 0.03643 0.0
C256 C 0.8906 0.7385 0.03525 0.0
C257 C 0.97756 0.77999 0.01634 0.0
C258 C 0.95724 0.81924 0.05571 0.0
C259 C 0.99323 0.74186 0.97506 0.0
N260 N 0.91006 0.69957 0.99747 0.0
C261 C 0.94192 0.70173 0.97606 0.0
C262 C 0.01137 0.78079 0.99555 0.0
Eu263 Eu 0.82314 0.63236 1.0012 0.0
N264 N 0.84105 0.69916 0.03397 0.0
C265 C 0.80374 0.69981 0.05032 0.0
C266 C 0.86801 0.77869 0.07273 0.0
C267 C 0.81675 0.73914 0.07021 0.0
H268 H 0.92777 0.67164 0.96016 0.0
H269 H 0.78727 0.73882 0.08363 0.0
H270 H 0.9696 0.85051 0.07083 0.0
H271 H 0.01869 0.7428 0.95849 0.0
H272 H 0.76408 0.66923 0.04866 0.0
H273 H 0.78117 0.36889 0.97066 0.0
H274 H 0.87799 0.8091 0.08815 0.0
H275 H 0.67487 0.49517 0.08287 0.0
H276 H 0.81511 0.45115 0.99625 0.0
H277 H 0.58288 0.43164 0.09123 0.0
H278 H 0.03258 0.85151 0.03689 0.0
H279 H 0.68922 0.30208 0.97527 0.0
H280 H 0.60203 0.27436 0.99599 0.0
H281 H 0.0511 0.81193 0.9947 0.0
H282 H 0.54809 0.29146 0.02856 0.0
N283 N 0.74259 0.43252 0.01438 0.0
C284 C 0.77472 0.42281 0.99825 0.0
C285 C 0.70369 0.33856 0.98622 0.0
C286 C 0.67127 0.34798 1.00346 0.0
C287 C 0.75567 0.37604 0.98371 0.0
C288 C 0.69231 0.39561 0.01787 0.0
H289 H 0.54067 0.34977 0.06422 0.0
N290 N 0.68414 0.45018 0.05097 0.0
C291 C 0.60474 0.4236 0.07582 0.0
C292 C 0.66219 0.40471 0.03665 0.0
C293 C 0.65683 0.45942 0.07109 0.0
C294 C 0.58104 0.37745 0.06051 0.0
C295 C 0.60991 0.36718 0.04092 0.0
O296 O 0.77134 0.48744 0.08512 0.0
O297 O 0.82022 0.59557 0.04334 0.0
O298 O 0.89139 0.61882 1.00894 0.0
O299 O 0.84942 0.53132 0.02215 0.0
O300 O 0.76923 0.55969 0.07596 0.0
O301 O 0.81924 0.477 0.05416 0.0
O302 O 0.81619 0.64182 0.95573 0.0
O303 O 0.78011 0.54736 0.99938 0.0
O304 O 0.70456 0.5109 0.02236 0.0
O305 O 0.73636 0.59847 0.01377 0.0
O306 O 0.82986 0.58464 0.96577 0.0
O307 O 0.79143 0.67995 0.98498 0.0
C308 C 0.80669 0.60334 0.06739 0.0
C309 C 0.77932 0.41332 0.08964 0.0
C310 C 0.75162 0.35246 0.12867 0.0
C311 C 0.77024 0.40275 0.11862 0.0
C312 C 0.74082 0.31231 0.10955 0.0
C313 C 0.76875 0.37283 0.0707 0.0
C314 C 0.74911 0.32254 0.08063 0.0
C315 C 0.89078 0.57487 0.01458 0.0
C316 C 0.79969 0.46659 0.07967 0.0
C317 C 0.58828 0.32059 0.02573 0.0
C318 C 0.61896 0.3109 1.00715 0.0
C319 C 0.79633 0.54026 0.97607 0.0
C320 C 0.8194 0.71758 0.93881 0.0
C321 C 0.79006 0.72057 0.91601 0.0
C322 C 0.81325 0.75997 0.89489 0.0
C323 C 0.86692 0.79489 0.8975 0.0
C324 C 0.87136 0.75542 0.9413 0.0
C325 C 0.89496 0.79331 0.92066 0.0
C326 C 0.69743 0.54989 0.01655 0.0
C327 C 0.79741 0.67246 0.95833 0.0
H328 H 0.7791 0.43386 0.13343 0.0
H329 H 0.72651 0.27324 0.11707 0.0
H330 H 0.776 0.37981 0.0483 0.0
H331 H 0.74102 0.2916 0.06593 0.0
H332 H 0.74957 0.69183 0.91501 0.0
H333 H 0.8886 0.82366 0.88163 0.0
H334 H 0.89421 0.75493 0.95881 0.0
H335 H 0.93573 0.82124 0.92232 0.0
Eu336 Eu 0.25043 0.7635 0.37529 0.0
C337 C 0.1891 0.92904 0.34929 0.0
C338 C 0.13127 0.91681 0.38828 0.0
C339 C 0.18188 1.00163 0.36678 0.0
C340 C 0.15354 0.8971 0.36927 0.0
C341 C 0.20274 0.9814 0.34736 0.0
C342 C 0.1463 0.96942 0.38724 0.0
C343 C 0.25326 0.98878 0.30577 0.0
N344 N 0.20862 0.90839 0.33088 0.0
C345 C 0.23846 0.93662 0.30851 0.0
C346 C 0.2359 0.01148 0.32551 0.0
Eu347 Eu 0.18222 0.8202 0.3371 0.0
N348 N 0.13994 0.84649 0.36979 0.0
C349 C 0.10219 0.81281 0.3877 0.0
C350 C 0.09406 0.88288 0.4075 0.0
C351 C 0.07919 0.83058 0.40705 0.0
H352 H 0.25164 0.91892 0.29316 0.0
H353 H 0.05002 0.80393 0.42161 0.0
H354 H 0.13 0.98537 0.40185 0.0
H355 H 0.27789 0.01137 0.2884 0.0
H356 H 0.09047 0.77234 0.3876 0.0
H357 H 0.39009 0.74783 0.30747 0.0
H358 H 0.07597 0.89647 0.42241 0.0
H359 H 0.16114 0.67499 0.41926 0.0
H360 H 0.34911 0.79174 0.33054 0.0
H361 H 0.12386 0.58273 0.43083 0.0
H362 H 0.19231 0.0419 0.36584 0.0
H363 H 0.356 0.65456 0.3156 0.0
H364 H 0.29122 0.57241 0.33939 0.0
H365 H 0.24725 0.05185 0.32329 0.0
H366 H 0.21881 0.52753 0.37273 0.0
N367 N 0.29101 0.72397 0.35109 0.0
C368 C 0.33328 0.75099 0.33413 0.0
C369 C 0.3375 0.67362 0.32564 0.0
C370 C 0.29511 0.64642 0.34362 0.0
C371 C 0.35687 0.72623 0.32103 0.0
C372 C 0.27289 0.67318 0.35657 0.0
H373 H 0.1565 0.53111 0.40699 0.0
N374 N 0.21378 0.6756 0.38868 0.0
C375 C 0.1546 0.60068 0.41536 0.0
C376 C 0.23292 0.64817 0.37579 0.0
C377 C 0.17602 0.65307 0.40883 0.0
C378 C 0.173 0.57164 0.40179 0.0
C379 C 0.21297 0.59538 0.38195 0.0
O380 O 0.27711 0.76868 0.41884 0.0
O381 O 0.21827 0.81664 0.37802 0.0
O382 O 0.26729 0.88444 0.34337 0.0
O383 O 0.30701 0.83498 0.35128 0.0
O384 O 0.20394 0.76858 0.41188 0.0
O385 O 0.33196 0.8107 0.38506 0.0
O386 O 0.16119 0.80813 0.29222 0.0
O387 O 0.21838 0.77194 0.33468 0.0
O388 O 0.1782 0.69838 0.35706 0.0
O389 O 0.12704 0.73671 0.35401 0.0
O390 O 0.22937 0.81905 0.29981 0.0
O391 O 0.10226 0.79246 0.32295 0.0
C392 C 0.19946 0.80665 0.40271 0.0
C393 C 0.36069 0.78013 0.42296 0.0
C394 C 0.40179 0.76736 0.46391 0.0
C395 C 0.36709 0.78067 0.45232 0.0
C396 C 0.42959 0.75253 0.44598 0.0
C397 C 0.38882 0.7654 0.40517 0.0
C398 C 0.42285 0.75136 0.41671 0.0
C399 C 0.30882 0.87902 0.34534 0.0
C400 C 0.32564 0.7965 0.41159 0.0
C401 C 0.23378 0.56815 0.36837 0.0
C402 C 0.27495 0.59368 0.34935 0.0
C403 C 0.23796 0.78414 0.31026 0.0
C404 C 0.09146 0.81633 0.27591 0.0
C405 C 0.05949 0.78693 0.25298 0.0
C406 C 0.04501 0.8104 0.23128 0.0
C407 C 0.06453 0.86422 0.23347 0.0
C408 C 0.10732 0.86884 0.27776 0.0
C409 C 0.09419 0.89255 0.25663 0.0
C410 C 0.1329 0.69531 0.35523 0.0
C411 C 0.11288 0.7937 0.29601 0.0
H412 H 0.34608 0.79278 0.4661 0.0
H413 H 0.45645 0.74189 0.45465 0.0
H414 H 0.38515 0.76524 0.38245 0.0
H415 H 0.44441 0.74005 0.40293 0.0
H416 H 0.04659 0.74612 0.25225 0.0
H417 H 0.05803 0.88557 0.21713 0.0
H418 H 0.13113 0.89195 0.29516 0.0
H419 H 0.10805 0.93359 0.25787 0.0
Eu420 Eu 0.48233 0.25107 0.71772 0.0
C421 C 0.26575 0.18465 0.68813 0.0
C422 C 0.22368 0.1124 0.72056 0.0
C423 C 0.18543 0.16582 0.71116 0.0
C424 C 0.26469 0.1435 0.70203 0.0
C425 C 0.22524 0.19526 0.69184 0.0
C426 C 0.18472 0.12452 0.72555 0.0
C427 C 0.26382 0.25998 0.65515 0.0
N428 N 0.30498 0.21263 0.66985 0.0
C429 C 0.30316 0.24806 0.65231 0.0
C430 C 0.22519 0.23415 0.6754 0.0
Eu431 Eu 0.37265 0.19315 0.6683 0.0
N432 N 0.30308 0.13304 0.6969 0.0
C433 C 0.30119 0.09011 0.70822 0.0
C434 C 0.22273 0.06966 0.73322 0.0
C435 C 0.2613 0.05809 0.72672 0.0
H436 H 0.33292 0.268 0.63652 0.0
H437 H 0.26059 0.02476 0.73612 0.0
H438 H 0.15329 0.10151 0.74 0.0
H439 H 0.26331 0.28905 0.64173 0.0
H440 H 0.33113 0.08116 0.70377 0.0
H441 H 0.64315 0.39778 0.65408 0.0
H442 H 0.19202 0.04495 0.74767 0.0
H443 H 0.4886 0.17385 0.76805 0.0
H444 H 0.56013 0.36018 0.67864 0.0
H445 H 0.54429 0.13752 0.77995 0.0
H446 H 0.1544 0.17389 0.71462 0.0
H447 H 0.69671 0.35661 0.65754 0.0
H448 H 0.71185 0.28959 0.67997 0.0
H449 H 0.1947 0.24341 0.67756 0.0
H450 H 0.68561 0.2196 0.71469 0.0
N451 N 0.5641 0.2957 0.69506 0.0
C452 C 0.58237 0.34113 0.68054 0.0
C453 C 0.65992 0.33952 0.66843 0.0
C454 C 0.64348 0.29603 0.68567 0.0
C455 C 0.62988 0.36297 0.6665 0.0
C456 C 0.5951 0.27511 0.69932 0.0
H457 H 0.62378 0.16333 0.75231 0.0
N458 N 0.53513 0.21802 0.73324 0.0
C459 C 0.55468 0.16474 0.76267 0.0
C460 C 0.58052 0.23567 0.71913 0.0
C461 C 0.52325 0.18537 0.75588 0.0
C462 C 0.59952 0.17941 0.747 0.0
C463 C 0.61359 0.21615 0.7254 0.0
O464 O 0.46278 0.29004 0.75061 0.0
O465 O 0.39731 0.21678 0.71333 0.0
O466 O 0.3936 0.27758 0.67681 0.0
O467 O 0.47651 0.31547 0.6967 0.0
O468 O 0.42217 0.18972 0.74644 0.0
O469 O 0.54007 0.30289 0.74816 0.0
O470 O 0.35987 0.19225 0.62273 0.0
O471 O 0.45764 0.22911 0.67279 0.0
O472 O 0.47278 0.174 0.70701 0.0
O473 O 0.40508 0.13743 0.67428 0.0
O474 O 0.43096 0.25229 0.63833 0.0
O475 O 0.33307 0.11988 0.64436 0.0
C476 C 0.38232 0.1892 0.73552 0.0
C477 C 0.50513 0.29449 0.79365 0.0
C478 C 0.55179 0.30386 0.83742 0.0
C479 C 0.55106 0.3178 0.80913 0.0
C480 C 0.50606 0.26529 0.85002 0.0
C481 C 0.45942 0.25687 0.80675 0.0
C482 C 0.4601 0.24196 0.83468 0.0
C483 C 0.43739 0.3182 0.68581 0.0
C484 C 0.50666 0.30765 0.76351 0.0
C485 C 0.66014 0.23474 0.71047 0.0
C486 C 0.675 0.27449 0.69063 0.0
C487 C 0.47147 0.25725 0.65092 0.0
C488 C 0.29105 0.11859 0.60074 0.0
C489 C 0.28653 0.08318 0.57932 0.0
C490 C 0.24743 0.06622 0.55811 0.0
C491 C 0.21392 0.08669 0.55924 0.0
C492 C 0.25501 0.13525 0.60172 0.0
C493 C 0.21703 0.11963 0.58105 0.0
C494 C 0.44257 0.1371 0.68936 0.0
C495 C 0.33625 0.14218 0.62011 0.0
H496 H 0.58641 0.34682 0.79908 0.0
H497 H 0.50553 0.25436 0.87196 0.0
H498 H 0.42332 0.23874 0.79545 0.0
H499 H 0.42483 0.21262 0.84453 0.0
H500 H 0.31391 0.06967 0.57931 0.0
H501 H 0.18534 0.07844 0.54308 0.0
H502 H 0.25719 0.16175 0.61795 0.0
H503 H 0.19041 0.13415 0.58154 0.0
C504 C 0.23644 0.70409 0.29444 0.0
C505 C 0.25841 0.75779 0.29317 0.0
C506 C 0.25019 0.67812 0.27471 0.0
C507 C 0.2848 0.70661 0.25262 0.0
C508 C 0.30889 0.76118 0.25214 0.0
C509 C 0.29519 0.78607 0.27246 0.0
C510 C 0.22547 0.62014 0.27653 0.0
C511 C 0.34559 0.793 0.22873 0.0
C512 C 0.33997 0.65917 0.19596 0.0
C513 C 0.30582 0.65085 0.17372 0.0
C514 C 0.3313 0.67308 0.22291 0.0
C515 C 0.28836 0.67998 0.22712 0.0
C516 C 0.25241 0.66891 0.20497 0.0
C517 C 0.2614 0.6539 0.17856 0.0
C518 C 0.36873 0.68198 0.24653 0.0
C519 C 0.20669 0.67692 0.20837 0.0
H520 H 0.2074 0.68218 0.31019 0.0
H521 H 0.3114 0.82757 0.27133 0.0
H522 H 0.19637 0.6018 0.25948 0.0
H523 H 0.25489 0.6084 0.27345 0.0
H524 H 0.20596 0.60499 0.29725 0.0
H525 H 0.36412 0.83515 0.23286 0.0
H526 H 0.3763 0.78296 0.22608 0.0
H527 H 0.32423 0.78442 0.20839 0.0
H528 H 0.37387 0.65583 0.19205 0.0
H529 H 0.23525 0.64753 0.16114 0.0
H530 H 0.348 0.65435 0.26393 0.0
H531 H 0.38477 0.72148 0.25529 0.0
H532 H 0.40118 0.6767 0.23945 0.0
H533 H 0.18346 0.65565 0.22714 0.0
H534 H 0.18114 0.66392 0.18948 0.0
H535 H 0.22053 0.71855 0.21185 0.0
C536 C 0.53506 0.23631 0.63064 0.0
C537 C 0.51772 0.27147 0.63414 0.0
C538 C 0.56637 0.24069 0.60748 0.0
C539 C 0.57999 0.28112 0.58771 0.0
C540 C 0.56879 0.3208 0.59373 0.0
C541 C 0.53667 0.31484 0.61663 0.0
C542 C 0.57851 0.1982 0.60222 0.0
C543 C 0.58447 0.36578 0.57386 0.0
C544 C 0.6523 0.29701 0.51896 0.0
C545 C 0.61107 0.27493 0.49979 0.0
C546 C 0.64318 0.2974 0.54815 0.0
C547 C 0.59172 0.27466 0.55802 0.0
C548 C 0.55008 0.24976 0.5387 0.0
C549 C 0.56037 0.2507 0.50977 0.0
C550 C 0.68849 0.32442 0.56802 0.0
C551 C 0.49447 0.22393 0.54838 0.0
H552 H 0.51967 0.20251 0.64403 0.0
H553 H 0.52342 0.34221 0.61965 0.0
H554 H 0.54893 0.16907 0.58783 0.0
H555 H 0.61673 0.21336 0.59192 0.0
H556 H 0.57797 0.17846 0.62226 0.0
H557 H 0.58225 0.39789 0.58431 0.0
H558 H 0.62433 0.38055 0.56595 0.0
H559 H 0.55821 0.35281 0.55529 0.0
H560 H 0.69156 0.31551 0.51102 0.0
H561 H 0.5287 0.23288 0.4948 0.0
H562 H 0.68056 0.30419 0.5887 0.0
H563 H 0.69598 0.3641 0.57215 0.0
H564 H 0.72401 0.32746 0.55873 0.0
H565 H 0.48767 0.1964 0.56584 0.0
H566 H 0.46699 0.20262 0.53096 0.0
H567 H 0.48574 0.25347 0.55662 0.0
C568 C 0.31759 0.52376 0.95826 0.0
C569 C 0.26581 0.50827 0.96324 0.0
C570 C 0.34365 0.55567 0.93515 0.0
C571 C 0.31675 0.57188 0.91706 0.0
C572 C 0.26633 0.56093 0.92417 0.0
C573 C 0.24096 0.52808 0.94688 0.0
C574 C 0.39759 0.56692 0.92858 0.0
C575 C 0.23689 0.57886 0.90596 0.0
C576 C 0.37037 0.65629 0.85218 0.0
C577 C 0.34952 0.61871 0.83088 0.0
C578 C 0.36295 0.64179 0.88082 0.0
C579 C 0.33489 0.58872 0.88783 0.0
C580 C 0.31691 0.55079 0.86618 0.0
C581 C 0.32394 0.56638 0.83788 0.0
C582 C 0.38267 0.68296 0.90346 0.0
C583 C 0.28778 0.49368 0.87285 0.0
H584 H 0.33642 0.50804 0.97111 0.0
H585 H 0.20083 0.51592 0.95112 0.0
H586 H 0.39539 0.53611 0.91453 0.0
H587 H 0.42043 0.60443 0.91752 0.0
H588 H 0.41819 0.56725 0.94823 0.0
H589 H 0.20258 0.57527 0.91715 0.0
H590 H 0.26195 0.61967 0.89943 0.0
H591 H 0.22351 0.55499 0.88644 0.0
H592 H 0.3908 0.69683 0.8464 0.0
H593 H 0.30897 0.53768 0.82113 0.0
H594 H 0.40333 0.67438 0.92016 0.0
H595 H 0.34962 0.68342 0.91381 0.0
H596 H 0.40901 0.722 0.89468 0.0
H597 H 0.30901 0.4843 0.88881 0.0
H598 H 0.2816 0.4696 0.85371 0.0
H599 H 0.24951 0.4829 0.88198 0.0
C600 C 0.69967 0.22022 0.27379 0.0
C601 C 0.73785 0.24839 0.29387 0.0
C602 C 0.69317 0.24476 0.25033 0.0
C603 C 0.72746 0.29823 0.24639 0.0
C604 C 0.76197 0.32774 0.26828 0.0
C605 C 0.76711 0.30219 0.29177 0.0
C606 C 0.65455 0.21216 0.22793 0.0
C607 C 0.7983 0.38507 0.26538 0.0
C608 C 0.7757 0.3218 0.17126 0.0
C609 C 0.74742 0.34246 0.15927 0.0
C610 C 0.77154 0.31009 0.20008 0.0
C611 C 0.73743 0.31849 0.21715 0.0
C612 C 0.71018 0.34128 0.20536 0.0
C613 C 0.71576 0.35336 0.17635 0.0
C614 C 0.80236 0.28697 0.21198 0.0
C615 C 0.67362 0.35076 0.22295 0.0
H616 H 0.67752 0.17849 0.27526 0.0
H617 H 0.79699 0.32384 0.30709 0.0
H618 H 0.6362 0.23285 0.21841 0.0
H619 H 0.6747 0.20382 0.21076 0.0
H620 H 0.62391 0.17478 0.23672 0.0
H621 H 0.80869 0.40401 0.2865 0.0
H622 H 0.83435 0.39174 0.25491 0.0
H623 H 0.78135 0.40365 0.25233 0.0
H624 H 0.80091 0.31451 0.15794 0.0
H625 H 0.69425 0.36978 0.16685 0.0
H626 H 0.77586 0.24661 0.21883 0.0
H627 H 0.82457 0.30907 0.23083 0.0
H628 H 0.82982 0.28662 0.19624 0.0
H629 H 0.63691 0.31379 0.22583 0.0
H630 H 0.66474 0.37872 0.21258 0.0
H631 H 0.68969 0.36539 0.24434 0.0
C632 C 0.48431 0.72326 0.60777 0.0
C633 C 0.5004 0.76282 0.6277 0.0
C634 C 0.45395 0.7209 0.58482 0.0
C635 C 0.44111 0.76014 0.58153 0.0
C636 C 0.45229 0.79665 0.60339 0.0
C637 C 0.48235 0.79777 0.62635 0.0
C638 C 0.4414 0.68031 0.56236 0.0
C639 C 0.43785 0.83808 0.60111 0.0
C640 C 0.46074 0.79893 0.50505 0.0
C641 C 0.41043 0.7707 0.49467 0.0
C642 C 0.47062 0.79935 0.53395 0.0
C643 C 0.42902 0.77017 0.55276 0.0
C644 C 0.3777 0.74452 0.54266 0.0
C645 C 0.36892 0.74512 0.51352 0.0
C646 C 0.52599 0.82828 0.54403 0.0
C647 C 0.33249 0.71375 0.56219 0.0
H648 H 0.49809 0.69602 0.60927 0.0
H649 H 0.49477 0.82819 0.64198 0.0
H650 H 0.40123 0.66429 0.55474 0.0
H651 H 0.46758 0.69814 0.54396 0.0
H652 H 0.44623 0.64806 0.57032 0.0
H653 H 0.43534 0.85269 0.62238 0.0
H654 H 0.46794 0.87102 0.58876 0.0
H655 H 0.40049 0.82367 0.59 0.0
H656 H 0.49252 0.81974 0.49039 0.0
H657 H 0.32989 0.72374 0.50533 0.0
H658 H 0.53778 0.80033 0.5511 0.0
H659 H 0.52998 0.85317 0.5624 0.0
H660 H 0.55303 0.85291 0.52715 0.0
H661 H 0.32805 0.67508 0.56573 0.0
H662 H 0.29596 0.70822 0.55293 0.0
H663 H 0.33861 0.73277 0.58315 0.0
C664 C 0.71393 0.46638 0.95934 0.0
C665 C 0.7677 0.49529 0.95761 0.0
C666 C 0.68525 0.42745 0.93981 0.0
C667 C 0.711 0.41895 0.91715 0.0
C668 C 0.76554 0.44611 0.91601 0.0
C669 C 0.79344 0.48453 0.93625 0.0
C670 C 0.62709 0.39835 0.94224 0.0
C671 C 0.7941 0.4367 0.89257 0.0
C672 C 0.6151 0.30696 0.873 0.0
C673 C 0.59922 0.33266 0.85435 0.0
C674 C 0.65579 0.33482 0.89196 0.0
C675 C 0.68012 0.38935 0.89242 0.0
C676 C 0.6669 0.41543 0.87203 0.0
C677 C 0.62653 0.38669 0.85323 0.0
C678 C 0.66922 0.30539 0.91289 0.0
C679 C 0.69188 0.47363 0.87177 0.0
H680 H 0.69384 0.47545 0.97518 0.0
H681 H 0.83519 0.50713 0.93494 0.0
H682 H 0.61054 0.41187 0.92555 0.0
H683 H 0.61147 0.35637 0.93912 0.0
H684 H 0.61382 0.40404 0.96319 0.0
H685 H 0.83579 0.45383 0.89747 0.0
H686 H 0.77717 0.39465 0.88879 0.0
H687 H 0.79035 0.45417 0.87263 0.0
H688 H 0.59458 0.26508 0.87347 0.0
H689 H 0.61418 0.40667 0.83888 0.0
H690 H 0.64238 0.29412 0.93117 0.0
H691 H 0.70935 0.3287 0.9208 0.0
H692 H 0.6643 0.26933 0.90322 0.0
H693 H 0.67892 0.48635 0.89061 0.0
H694 H 0.68178 0.48793 0.85248 0.0
H695 H 0.73447 0.49201 0.87293 0.0
C696 C 0.39318 0.4487 0.99095 0.0
C697 C 0.36954 0.434 0.01761 0.0
C698 C 0.44698 0.4705 0.98797 0.0
C699 C 0.47776 0.47755 0.01223 0.0
C700 C 0.45359 0.46119 0.03905 0.0
C701 C 0.39991 0.43983 0.04139 0.0
C702 C 0.4712 0.48822 0.95909 0.0
C703 C 0.48472 0.46801 0.0655 0.0
C704 C 0.60636 0.48282 1.00653 0.0
C705 C 0.64237 0.5351 0.012 0.0
C706 C 0.55329 0.46433 1.00548 0.0
C707 C 0.53476 0.49887 1.00959 0.0
C708 C 0.57076 0.55239 0.01335 0.0
C709 C 0.62427 0.56992 0.01466 0.0
C710 C 0.51692 0.40711 1.00131 0.0
C711 C 0.55308 0.59098 0.01757 0.0
H712 H 0.37006 0.44623 0.97271 0.0
H713 H 0.38186 0.43013 0.06213 0.0
H714 H 0.49827 0.53056 0.95945 0.0
H715 H 0.49398 0.4695 0.95353 0.0
H716 H 0.44198 0.4794 0.94228 0.0
H717 H 0.46008 0.45293 0.08471 0.0
H718 H 0.50705 0.44779 0.0631 0.0
H719 H 0.51284 0.50962 0.06875 0.0
H720 H 0.6194 0.45534 1.00384 0.0
H721 H 0.65149 0.61031 0.01877 0.0
H722 H 0.4897 0.40048 0.98375 0.0
H723 H 0.49367 0.3904 0.02082 0.0
H724 H 0.53763 0.38587 0.99654 0.0
H725 H 0.51663 0.57971 1.0061 0.0
H726 H 0.58298 0.63015 1.01049 0.0
H727 H 0.54633 0.59317 0.04049 0.0
C728 C 0.08834 0.61186 0.33003 0.0
C729 C 0.08878 0.64232 0.35273 0.0
C730 C 0.05532 0.55809 0.32989 0.0
C731 C 0.02198 0.53383 0.3532 0.0
C732 C 0.02203 0.56458 0.37617 0.0
C733 C 0.05544 0.61857 0.37564 0.0
C734 C 0.05657 0.52721 0.30489 0.0
C735 C 0.98722 0.54034 0.40144 0.0
C736 C 0.89903 0.4069 0.3397 0.0
C737 C 0.9098 0.37001 0.35131 0.0
C738 C 0.93506 0.45974 0.34019 0.0
C739 C 0.9841 0.47704 0.35231 0.0
C740 C 0.99641 0.44016 0.36316 0.0
C741 C 0.959 0.38685 0.36255 0.0
C742 C 0.91989 0.49716 0.32831 0.0
C743 C 0.04842 0.45721 0.37626 0.0
H744 H 0.11506 0.63013 0.31262 0.0
H745 H 0.05725 0.64187 0.39368 0.0
H746 H 0.06489 0.4969 0.31218 0.0
H747 H 0.01824 0.50738 0.29444 0.0
H748 H 0.0861 0.55173 0.28894 0.0
H749 H 0.99465 0.56883 0.41851 0.0
H750 H 0.9464 0.52288 0.39474 0.0
H751 H 0.9924 0.50883 0.41019 0.0
H752 H 0.86131 0.39465 0.33087 0.0
H753 H 0.96748 0.35885 0.37187 0.0
H754 H 0.94751 0.52129 0.31155 0.0
H755 H 0.9214 0.52355 0.34528 0.0
H756 H 0.88038 0.47726 0.31919 0.0
H757 H 0.07974 0.48295 0.36152 0.0
H758 H 0.05351 0.42399 0.38186 0.0
H759 H 0.05279 0.47979 0.39576 0.0
C760 C 0.51258 0.11816 0.67938 0.0
C761 C 0.45956 0.09916 0.68325 0.0
C762 C 0.53308 0.08526 0.67764 0.0
C763 C 0.4999 0.03137 0.68014 0.0
C764 C 0.44577 0.01141 0.68255 0.0
C765 C 0.42611 0.04565 0.68403 0.0
C766 C 0.59078 0.10872 0.67459 0.0
C767 C 0.40886 0.95418 0.68523 0.0
C768 C 0.55368 0.94348 0.66023 0.0
C769 C 0.56682 0.9326 0.68681 0.0
C770 C 0.53189 0.9755 0.65765 0.0
C771 C 0.52277 0.99694 0.68228 0.0
C772 C 0.53766 0.98731 0.70908 0.0
C773 C 0.5593 0.95515 0.711 0.0
C774 C 0.51665 0.9846 0.62869 0.0
C775 C 0.52882 0.00933 0.73591 0.0
H776 H 0.53869 0.1594 0.67838 0.0
H777 H 0.38518 0.0307 0.68716 0.0
H778 H 0.60727 0.10627 0.69519 0.0
H779 H 0.60015 0.0873 0.65871 0.0
H780 H 0.60993 0.14994 0.66813 0.0
H781 H 0.36845 0.94409 0.68079 0.0
H782 H 0.41962 0.93191 0.67072 0.0
H783 H 0.41059 0.94203 0.70719 0.0
H784 H 0.55764 0.92448 0.64161 0.0
H785 H 0.5679 0.9454 0.73163 0.0
H786 H 0.53389 0.02663 0.62473 0.0
H787 H 0.4741 0.96714 0.6277 0.0
H788 H 0.52895 0.96768 0.61152 0.0
H789 H 0.54831 0.05205 0.73443 0.0
H790 H 0.54331 0.99894 0.75501 0.0
H791 H 0.48694 0.99471 0.73867 0.0
C792 C 0.49717 0.60867 0.66758 0.0
C793 C 0.54762 0.64429 0.67637 0.0
C794 C 0.47905 0.55549 0.66661 0.0
C795 C 0.51228 0.53675 0.67424 0.0
C796 C 0.56442 0.57262 0.68138 0.0
C797 C 0.58156 0.62612 0.68239 0.0
C798 C 0.4233 0.51917 0.65884 0.0
C799 C 0.60142 0.55432 0.68917 0.0
C800 C 0.44849 0.40036 0.70484 0.0
C801 C 0.44716 0.37112 0.68137 0.0
C802 C 0.46938 0.45413 0.70275 0.0
C803 C 0.49086 0.47959 0.67669 0.0
C804 C 0.48922 0.44993 0.65282 0.0
C805 C 0.4671 0.39598 0.65543 0.0
C806 C 0.46928 0.48382 0.7286 0.0
C807 C 0.51215 0.47534 0.62477 0.0
H808 H 0.47089 0.62222 0.66221 0.0
H809 H 0.62058 0.65326 0.68913 0.0
H810 H 0.42067 0.4926 0.6417 0.0
H811 H 0.40237 0.49508 0.67748 0.0
H812 H 0.40337 0.54007 0.65176 0.0
H813 H 0.64178 0.58682 0.69087 0.0
H814 H 0.58994 0.53393 0.70983 0.0
H815 H 0.59995 0.5264 0.67318 0.0
H816 H 0.43448 0.38124 0.72511 0.0
H817 H 0.46746 0.37348 0.63752 0.0
H818 H 0.44866 0.50511 0.72389 0.0
H819 H 0.50946 0.51287 0.73441 0.0
H820 H 0.45052 0.45825 0.74714 0.0
H821 H 0.4927 0.49616 0.6169 0.0
H822 H 0.50866 0.44702 0.60842 0.0
H823 H 0.55358 0.5044 0.62753 0.0
C824 C 0.05766 0.43711 1.00906 0.0
C825 C 0.1107 0.47138 0.01244 0.0
C826 C 0.02275 0.45575 1.00662 0.0
C827 C 0.04137 0.50979 1.00752 0.0
C828 C 0.09495 0.54433 1.00969 0.0
C829 C 0.12861 0.52484 0.01208 0.0
C830 C 0.9658 0.41763 1.00409 0.0
C831 C 0.11681 0.60211 1.01081 0.0
C832 C 0.95606 0.56589 0.9862 0.0
C833 C 0.9378 0.57105 0.01263 0.0
C834 C 0.98983 0.54598 0.98408 0.0
C835 C 1.00522 0.53063 1.00897 0.0
C836 C 0.988 0.53755 0.03572 0.0
C837 C 0.95441 0.5574 0.03717 0.0
C838 C 0.00738 0.53945 0.95517 0.0
C839 C 1.00374 0.52243 0.06285 0.0
H840 H 0.04327 0.39588 1.00921 0.0
H841 H 0.16936 0.55221 0.01432 0.0
H842 H 0.94578 0.41865 0.02368 0.0
H843 H 0.94904 0.42835 0.98619 0.0
H844 H 0.95784 0.37752 1.00082 0.0
H845 H 0.15967 0.62392 1.01023 0.0
H846 H 0.10223 0.61494 0.99279 0.0
H847 H 0.104 0.6124 0.03061 0.0
H848 H 0.94157 0.57453 0.96716 0.0
H849 H 0.9389 0.55988 0.05753 0.0
H850 H 0.99247 0.49783 0.95101 0.0
H851 H 0.05011 0.55906 0.95437 0.0
H852 H 0.99383 0.55521 0.93803 0.0
H853 H 0.99071 0.48057 0.06249 0.0
H854 H 0.98727 0.53064 0.08193 0.0
H855 H 0.04641 0.5436 0.06477 0.0
C856 C 0.38419 0.9658 0.35711 0.0
C857 C 0.36142 0.92227 0.33954 0.0
C858 C 0.43828 0.99889 0.35734 0.0
C859 C 0.47007 0.9881 0.33953 0.0
C860 C 0.44666 0.94564 0.32071 0.0
C861 C 0.39285 0.91327 0.32108 0.0
C862 C 0.4616 0.04389 0.37764 0.0
C863 C 0.47854 0.93289 0.30106 0.0
C864 C 0.60655 0.09776 0.32526 0.0
C865 C 0.63606 0.08753 0.34443 0.0
C866 C 0.55302 0.06515 0.32292 0.0
C867 C 0.52773 0.02109 0.34051 0.0
C868 C 0.5576 0.00916 0.35915 0.0
C869 C 0.61159 0.04261 0.3609 0.0
C870 C 0.52332 0.07931 0.30248 0.0
C871 C 0.5322 0.96241 0.3782 0.0
H872 H 0.36017 0.97202 0.37196 0.0
H873 H 0.3754 0.87907 0.30785 0.0
H874 H 0.48585 0.03825 0.39338 0.0
H875 H 0.48711 0.08022 0.36606 0.0
H876 H 0.43175 0.04844 0.38917 0.0
H877 H 0.45423 0.90041 0.28654 0.0
H878 H 0.50476 0.96718 0.28816 0.0
H879 H 0.50303 0.92222 0.31368 0.0
H880 H 0.62518 0.13295 0.31294 0.0
H881 H 0.63405 0.03529 0.37626 0.0
H882 H 0.49726 0.08883 0.31445 0.0
H883 H 0.49881 0.04608 0.28851 0.0
H884 H 0.54916 0.11299 0.28902 0.0
H885 H 0.50611 0.96655 0.39333 0.0
H886 H 0.56081 0.95699 0.39042 0.0
H887 H 0.50817 0.92712 0.36549 0.0
C888 C 0.32887 0.22709 0.7534 0.0
C889 C 0.34352 0.18935 0.75549 0.0
C890 C 0.30164 0.23495 0.77549 0.0
C891 C 0.28917 0.20488 0.80062 0.0
C892 C 0.30181 0.16514 0.80218 0.0
C893 C 0.32852 0.15779 0.77966 0.0
C894 C 0.28862 0.2773 0.77247 0.0
C895 C 0.28927 0.13181 0.82828 0.0
C896 C 0.27186 0.2568 0.87192 0.0
C897 C 0.21803 0.22911 0.8756 0.0
C898 C 0.29533 0.25057 0.84733 0.0
C899 C 0.26451 0.21576 0.82565 0.0
C900 C 0.21012 0.18934 0.82872 0.0
C901 C 0.18771 0.19634 0.85345 0.0
C902 C 0.35341 0.27971 0.84516 0.0
C903 C 0.17552 0.15264 0.80609 0.0
H904 H 0.34084 0.25226 0.73504 0.0
H905 H 0.34008 0.12891 0.78159 0.0
H906 H 0.2477 0.26286 0.77819 0.0
H907 H 0.31279 0.30923 0.78727 0.0
H908 H 0.29539 0.29305 0.75057 0.0
H909 H 0.29878 0.10062 0.82559 0.0
H910 H 0.31136 0.15608 0.8466 0.0
H911 H 0.24767 0.11399 0.83351 0.0
H912 H 0.29591 0.28194 0.88877 0.0
H913 H 0.14607 0.17549 0.85556 0.0
H914 H 0.36602 0.29787 0.82397 0.0
H915 H 0.36775 0.25227 0.84776 0.0
H916 H 0.37163 0.31016 0.86164 0.0
H917 H 0.1833 0.17306 0.78548 0.0
H918 H 0.13394 0.13577 0.81126 0.0
H919 H 0.18386 0.12072 0.8033 0.0
C920 C 0.00662 0.20516 0.18977 0.0
C921 C 0.98267 0.22737 0.20577 0.0
C922 C 0.03847 0.23029 0.16625 0.0
C923 C 0.05061 0.28106 0.15912 0.0
C924 C 0.02838 0.30485 0.17548 0.0
C925 C 0.99403 0.27753 0.19802 0.0
C926 C 0.05963 0.20233 0.14913 0.0
C927 C 0.04186 0.35978 0.16959 0.0
C928 C 0.17988 0.35989 0.12079 0.0
C929 C 0.16526 0.36361 0.09298 0.0
C930 C 0.1432 0.33488 0.14243 0.0
C931 C 0.08979 0.31026 0.13614 0.0
C932 C 0.07457 0.31235 0.10785 0.0
C933 C 0.11237 0.34045 0.08692 0.0
C934 C 0.16187 0.33588 0.17227 0.0
C935 C 0.01839 0.28439 0.09958 0.0
H936 H 1.00138 0.16791 0.19558 0.0
H937 H 0.97629 0.29592 0.20947 0.0
H938 H 0.05506 0.20666 0.12615 0.0
H939 H 0.10145 0.21936 0.15333 0.0
H940 H 0.04008 0.16048 0.15427 0.0
H941 H 0.0224 0.37338 0.18445 0.0
H942 H 0.08422 0.3858 0.17135 0.0
H943 H 0.03079 0.36318 0.14763 0.0
H944 H 0.22056 0.37827 0.12596 0.0
H945 H 0.10049 0.34457 0.06588 0.0
H946 H 0.15107 0.29626 0.17906 0.0
H947 H 0.14317 0.35026 0.18716 0.0
H948 H 0.2044 0.36078 0.17421 0.0
H949 H 1.0012 0.2425 0.10401 0.0
H950 H 0.01279 0.28946 0.07678 0.0
H951 H 0.99691 0.29844 0.11245 0.0
C952 C 0.81459 0.02024 0.52349 0.0
C953 C 0.76861 0.9938 0.53951 0.0
C954 C 0.81932 0.05181 0.5002 0.0
C955 C 0.77845 0.06064 0.49328 0.0
C956 C 0.73253 0.03581 0.50967 0.0
C957 C 0.72771 1.00202 0.53198 0.0
C958 C 0.8681 0.07523 0.48265 0.0
C959 C 0.68856 0.04553 0.5039 0.0
C960 C 0.81798 0.18688 0.45373 0.0
C961 C 0.79942 0.16993 0.42619 0.0
C962 C 0.81033 0.15182 0.47569 0.0
C963 C 0.78518 0.09807 0.46997 0.0
C964 C 0.7675 0.08072 0.44199 0.0
C965 C 0.77328 0.1166 0.42077 0.0
C966 C 0.82833 0.17238 0.50523 0.0
C967 C 0.74261 0.02427 0.43438 0.0
H968 H 0.84783 0.01698 0.52903 0.0
H969 H 0.69149 0.98203 0.54332 0.0
H970 H 0.85831 0.06155 0.46045 0.0
H971 H 0.88658 0.11792 0.48228 0.0
H972 H 0.89655 0.06481 0.49067 0.0
H973 H 0.65638 0.02535 0.51927 0.0
H974 H 0.70259 0.08759 0.50492 0.0
H975 H 0.67335 0.03238 0.48223 0.0
H976 H 0.83732 0.22787 0.45837 0.0
H977 H 0.75695 0.10276 0.39997 0.0
H978 H 0.85867 0.16382 0.51206 0.0
H979 H 0.79576 0.15294 0.5204 0.0
H980 H 0.84415 0.21475 0.50661 0.0
H981 H 0.76854 0.00927 0.44026 0.0
H982 H 0.73379 0.01739 0.41139 0.0
H983 H 0.70626 1.00172 0.44647 0.0
C984 C 0.64558 0.82314 0.78593 0.0
C985 C 0.64229 0.80498 0.75812 0.0
C986 C 0.6718 0.8128 0.80736 0.0
C987 C 0.69782 0.78549 0.80081 0.0
C988 C 0.69595 0.76823 0.77253 0.0
C989 C 0.66677 0.7766 0.75183 0.0
C990 C 0.67069 0.83035 0.83725 0.0
C991 C 0.72505 0.74128 0.76404 0.0
C992 C 0.80405 0.81123 0.85402 0.0
C993 C 0.78315 0.7652 0.87019 0.0
C994 C 0.77826 0.81664 0.83049 0.0
C995 C 0.72801 0.77679 0.82354 0.0
C996 C 0.70554 0.73079 0.83989 0.0
C997 C 0.73362 0.72502 0.86234 0.0
C998 C 0.805 0.86551 0.81302 0.0
C999 C 0.6511 0.688 0.83414 0.0
H1000 H 0.62602 0.84425 0.79124 0.0
H1001 H 0.66289 0.76061 0.73079 0.0
H1002 H 0.65708 0.79729 0.85212 0.0
H1003 H 0.71013 0.85986 0.84391 0.0
H1004 H 0.64514 0.84715 0.83935 0.0
H1005 H 0.72145 0.73219 0.74103 0.0
H1006 H 0.76655 0.76605 0.76927 0.0
H1007 H 0.71056 0.70484 0.77613 0.0
H1008 H 0.84062 0.84432 0.85963 0.0
H1009 H 0.71601 0.68878 0.87367 0.0
H1010 H 0.78394 0.88709 0.81465 0.0
H1011 H 0.80493 0.85555 0.79036 0.0
H1012 H 0.84556 0.8914 0.81975 0.0
H1013 H 0.62413 0.70315 0.83598 0.0
H1014 H 0.63846 0.65507 0.84903 0.0
H1015 H 0.64797 0.67349 0.81219 0.0
C1016 C 1.00497 0.73262 0.19743 0.0
C1017 C 0.01094 0.78039 0.20624 0.0
C1018 C 0.97311 0.70493 0.17422 0.0
C1019 C 0.94807 0.72613 0.15821 0.0
C1020 C 0.95481 0.77462 0.16633 0.0
C1021 C 0.9843 0.79998 0.19051 0.0
C1022 C 0.96551 0.65236 0.16712 0.0
C1023 C 0.93076 0.79997 0.14938 0.0
C1024 C 0.89659 0.66887 0.08441 0.0
C1025 C 0.84319 0.63953 0.08922 0.0
C1026 C 0.931 0.69868 0.10625 0.0
C1027 C 0.91217 0.69642 0.13418 0.0
C1028 C 0.85837 0.66594 0.1392 0.0
C1029 C 0.82471 0.63902 0.11666 0.0
C1030 C 0.9875 0.73254 0.09939 0.0
C1031 C 0.8363 0.66044 0.16864 0.0
H1032 H 0.02514 0.71641 0.2085 0.0
H1033 H 0.98561 0.83524 0.197 0.0
H1034 H 0.92375 0.62315 0.16748 0.0
H1035 H 0.97978 0.65257 0.14541 0.0
H1036 H 0.98589 0.64017 0.18216 0.0
H1037 H 0.94305 0.83965 0.15694 0.0
H1038 H 0.9415 0.80202 0.1267 0.0
H1039 H 0.88809 0.7766 0.15065 0.0
H1040 H 0.91165 0.66811 0.06366 0.0
H1041 H 0.78366 0.61575 0.12081 0.0
H1042 H 0.01054 0.71904 0.11116 0.0
H1043 H 1.00087 0.7728 0.10623 0.0
H1044 H 0.99547 0.73266 0.07637 0.0
H1045 H 0.85572 0.64688 0.18349 0.0
H1046 H 0.7941 0.63283 0.16935 0.0
H1047 H 0.84349 0.69844 0.17643 0.0
C1048 C 0.19428 1.00073 0.51969 0.0
C1049 C 0.24137 0.02861 0.53459 0.0
C1050 C 0.18834 0.96812 0.49671 0.0
C1051 C 0.22904 0.95946 0.48912 0.0
C1052 C 0.27605 0.98553 0.50445 0.0
C1053 C 0.28208 0.02051 0.52635 0.0
C1054 C 0.13836 0.94333 0.48026 0.0
C1055 C 0.31986 0.97586 0.49801 0.0
C1056 C 0.18691 0.83097 0.45159 0.0
C1057 C 0.20343 0.8462 0.42358 0.0
C1058 C 0.19627 0.86736 0.47305 0.0
C1059 C 0.22093 0.9207 0.46635 0.0
C1060 C 0.23651 0.93632 0.4379 0.0
C1061 C 0.2292 0.89914 0.41715 0.0
C1062 C 0.18065 0.84865 0.50312 0.0
C1063 C 0.26071 0.99225 0.42928 0.0
H1064 H 0.16108 1.00358 0.52588 0.0
H1065 H 0.31905 0.04141 0.53683 0.0
H1066 H 0.14657 0.95494 0.45767 0.0
H1067 H 0.11978 0.90065 0.48103 0.0
H1068 H 0.11057 0.95459 0.48838 0.0
H1069 H 0.35295 0.99696 0.51269 0.0
H1070 H 0.30617 0.93392 0.49954 0.0
H1071 H 0.33367 0.98797 0.47601 0.0
H1072 H 0.16794 0.79029 0.45698 0.0
H1073 H 0.24408 0.91165 0.39595 0.0
H1074 H 0.15055 0.85722 0.51044 0.0
H1075 H 0.21429 0.86932 0.51746 0.0
H1076 H 0.16539 0.80646 0.50522 0.0
H1077 H 0.23507 0.00748 0.43541 0.0
H1078 H 0.268 0.99771 0.4061 0.0
H1079 H 0.29782 0.01562 0.44054 0.0
loop_
_geom_bond_atom_site_label_1
_geom_bond_atom_site_label_2
_geom_bond_distance
_geom_bond_site_symmetry_2
_ccdc_geom_bond_type
Eu0 N31 2.657 . S
Eu0 N38 2.609 . S
Eu0 O44 2.558 . S
Eu0 O45 2.612 . S
Eu0 O47 2.339 . S
Eu0 O48 2.563 . S
Eu0 O49 2.419 . S
Eu0 O51 2.380 1_554 S
Eu0 O52 2.432 . S
Eu0 C64 2.848 . S
C1 C4 1.429 . S
C1 C5 1.411 . S
C1 N8 1.377 1_554 S
C2 C4 1.420 . S
C2 C6 1.423 . S
C2 C14 1.392 . S
C3 C5 1.420 . S
C3 C6 1.351 . S
C3 H26 0.931 1_455 S
C4 C1 1.429 . S
C4 C2 1.420 . S
C4 N12 1.362 . S
C5 C1 1.411 . S
C5 C3 1.420 . S
C5 C10 1.395 1_454 S
C6 C2 1.423 . S
C6 C3 1.351 . S
C6 H18 0.930 . S
C7 C9 1.391 1_655 S
C7 C10 1.383 . S
C7 H19 0.941 . S
N8 C1 1.377 1_556 S
N8 C9 1.321 . S
N8 Eu11 2.609 . S
C9 C7 1.391 1_455 S
C9 N8 1.321 . S
C9 H16 0.930 . S
C10 C5 1.395 1_656 S
C10 C7 1.383 . S
C10 H29 0.930 . S
Eu11 N8 2.609 . S
Eu11 N12 2.657 1_556 S
Eu11 O45 2.380 1_556 S
Eu11 O46 2.432 . S
Eu11 O50 2.558 . S
Eu11 O51 2.612 . S
Eu11 O53 2.339 1_556 S
Eu11 O54 2.563 . S
Eu11 O55 2.419 . S
Eu11 C75 2.848 . S
N12 C4 1.362 . S
N12 Eu11 2.657 1_554 S
N12 C13 1.334 . S
C13 N12 1.334 . S
C13 C15 1.413 . S
C13 H20 0.929 . S
C14 C2 1.392 . S
C14 C15 1.367 . S
C14 H22 0.930 . S
C15 C13 1.413 . S
C15 C14 1.367 . S
C15 H17 0.930 . S
H16 C9 0.930 . S
H17 C15 0.930 . S
H18 C6 0.930 . S
H19 C7 0.941 . S
H20 C13 0.929 . S
H21 C35 0.930 . S
H22 C14 0.930 . S
H23 C41 0.930 . S
H24 C32 0.929 . S
H25 C39 0.930 . S
H26 C3 0.931 1_655 S
H27 C33 0.930 . S
H28 C66 0.930 . S
H29 C10 0.930 . S
H30 C65 0.931 . S
N31 Eu0 2.657 . S
N31 C32 1.334 1_554 S
N31 C36 1.362 . S
C32 H24 0.929 . S
C32 N31 1.334 1_556 S
C32 C35 1.413 . S
C33 H27 0.930 . S
C33 C34 1.392 . S
C33 C35 1.367 . S
C34 C33 1.392 . S
C34 C36 1.420 1_556 S
C34 C66 1.423 . S
C35 H21 0.930 . S
C35 C32 1.413 . S
C35 C33 1.367 . S
C36 N31 1.362 . S
C36 C34 1.420 1_554 S
C36 C40 1.429 . S
H37 C42 0.930 . S
N38 Eu0 2.609 . S
N38 C40 1.377 . S
N38 C41 1.321 . S
C39 H25 0.930 . S
C39 C41 1.400 . S
C39 C42 1.386 . S
C40 C36 1.429 . S
C40 N38 1.377 . S
C40 C43 1.411 . S
C41 H23 0.930 . S
C41 N38 1.321 . S
C41 C39 1.400 . S
C42 H37 0.930 . S
C42 C39 1.386 . S
C42 C43 1.395 . S
C43 C40 1.411 . S
C43 C42 1.395 . S
C43 C65 1.420 . S
O44 Eu0 2.558 . S
O44 C64 1.257 . S
O45 Eu0 2.612 . S
O45 Eu11 2.380 1_554 S
O45 C56 1.276 . S
O46 Eu11 2.432 . S
O46 C63 1.264 1_556 S
O47 Eu0 2.339 . S
O47 C63 1.254 . S
O48 Eu0 2.563 . S
O48 C56 1.235 . S
O49 Eu0 2.419 . S
O49 C64 1.249 . S
O50 Eu11 2.558 . S
O50 C75 1.257 . S
O51 Eu0 2.380 1_556 S
O51 Eu11 2.612 . S
O51 C67 1.276 . S
O52 Eu0 2.432 . S
O52 C74 1.264 . S
O53 Eu11 2.339 1_554 S
O53 C74 1.254 . S
O54 Eu11 2.563 . S
O54 C67 1.235 . S
O55 Eu11 2.419 . S
O55 C75 1.249 . S
C56 O45 1.276 . S
C56 O48 1.235 . S
C57 C59 1.393 . S
C57 C61 1.395 . S
C57 C64 1.492 . S
C58 C59 1.392 . S
C58 C60 1.386 . S
C59 C57 1.393 . S
C59 C58 1.392 . S
C59 H76 0.930 . S
C60 C58 1.386 . S
C60 C62 1.395 . S
C60 H77 0.930 . S
C61 C57 1.395 . S
C61 C62 1.379 . S
C61 H78 0.930 . S
C62 C60 1.395 . S
C62 C61 1.379 . S
C62 H79 0.930 . S
C63 O46 1.264 1_554 S
C63 O47 1.254 . S
C64 Eu0 2.848 . S
C64 O44 1.257 . S
C64 O49 1.249 . S
C64 C57 1.492 . S
C65 H30 0.931 . S
C65 C43 1.420 . S
C65 C66 1.351 1_554 S
C66 H28 0.930 . S
C66 C34 1.423 . S
C66 C65 1.351 1_556 S
C67 O51 1.276 . S
C67 O54 1.235 . S
C68 C69 1.393 . S
C68 C72 1.395 . S
C68 C75 1.492 . S
C69 C68 1.393 . S
C69 C70 1.392 . S
C69 H80 0.930 . S
C70 C69 1.392 . S
C70 C71 1.386 . S
C71 C70 1.386 . S
C71 C73 1.395 . S
C71 H81 0.930 . S
C72 C68 1.395 . S
C72 C73 1.379 . S
C72 H82 0.930 . S
C73 C71 1.395 . S
C73 C72 1.379 . S
C73 H83 0.930 . S
C74 O52 1.264 . S
C74 O53 1.254 . S
C75 Eu11 2.848 . S
C75 O50 1.257 . S
C75 O55 1.249 . S
C75 C68 1.492 . S
H76 C59 0.930 . S
H77 C60 0.930 . S
H78 C61 0.930 . S
H79 C62 0.930 . S
H80 C69 0.930 . S
H81 C71 0.930 . S
H82 C72 0.930 . S
H83 C73 0.930 . S
Eu84 N115 2.657 . S
Eu84 N122 2.609 . S
Eu84 O128 2.558 . S
Eu84 O129 2.612 . S
Eu84 O131 2.339 . S
Eu84 O132 2.563 . S
Eu84 O133 2.419 . S
Eu84 O135 2.380 . S
Eu84 O136 2.432 . S
Eu84 C148 2.848 . S
C85 C88 1.429 . S
C85 C89 1.411 . S
C85 N92 1.377 . S
C86 C88 1.420 . S
C86 C90 1.423 . S
C86 C98 1.392 . S
C87 C89 1.420 . S
C87 C90 1.351 . S
C87 H110 0.931 1_545 S
C88 C85 1.429 . S
C88 C86 1.420 . S
C88 N96 1.362 . S
C89 C85 1.411 . S
C89 C87 1.420 . S
C89 C94 1.395 1_545 S
C90 C86 1.423 . S
C90 C87 1.351 . S
C90 H102 0.930 . S
C91 C93 1.387 1_565 S
C91 C94 1.394 . S
C91 H103 0.934 . S
N92 C85 1.377 . S
N92 C93 1.321 . S
N92 Eu95 2.609 . S
C93 C91 1.387 1_545 S
C93 N92 1.321 . S
C93 H100 0.930 . S
C94 C89 1.395 1_565 S
C94 C91 1.394 . S
C94 H113 0.930 . S
Eu95 N92 2.609 . S
Eu95 N96 2.657 . S
Eu95 O129 2.380 . S
Eu95 O130 2.432 . S
Eu95 O134 2.558 . S
Eu95 O135 2.612 . S
Eu95 O137 2.339 . S
Eu95 O138 2.563 . S
Eu95 O139 2.419 . S
Eu95 C159 2.848 . S
N96 C88 1.362 . S
N96 Eu95 2.657 . S
N96 C97 1.334 . S
C97 N96 1.334 . S
C97 C99 1.413 . S
C97 H104 0.929 . S
C98 C86 1.392 . S
C98 C99 1.367 . S
C98 H106 0.930 . S
C99 C97 1.413 . S
C99 C98 1.367 . S
C99 H101 0.930 . S
H100 C93 0.930 . S
H101 C99 0.930 . S
H102 C90 0.930 . S
H103 C91 0.934 . S
H104 C97 0.929 . S
H105 C119 0.930 . S
H106 C98 0.930 . S
H107 C125 0.930 . S
H108 C116 0.929 . S
H109 C123 0.930 . S
H110 C87 0.931 1_565 S
H111 C117 0.930 . S
H112 C150 0.930 . S
H113 C94 0.930 . S
H114 C149 0.931 . S
N115 Eu84 2.657 . S
N115 C116 1.334 . S
N115 C120 1.362 . S
C116 H108 0.929 . S
C116 N115 1.334 . S
C116 C119 1.413 . S
C117 H111 0.930 . S
C117 C118 1.392 . S
C117 C119 1.367 . S
C118 C117 1.392 . S
C118 C120 1.420 . S
C118 C150 1.423 . S
C119 H105 0.930 . S
C119 C116 1.413 . S
C119 C117 1.367 . S
C120 N115 1.362 . S
C120 C118 1.420 . S
C120 C124 1.429 . S
H121 C126 0.930 . S
N122 Eu84 2.609 . S
N122 C124 1.377 . S
N122 C125 1.321 . S
C123 H109 0.930 . S
C123 C125 1.400 . S
C123 C126 1.386 . S
C124 C120 1.429 . S
C124 N122 1.377 . S
C124 C127 1.411 . S
C125 H107 0.930 . S
C125 N122 1.321 . S
C125 C123 1.400 . S
C126 H121 0.930 . S
C126 C123 1.386 . S
C126 C127 1.395 . S
C127 C124 1.411 . S
C127 C126 1.395 . S
C127 C149 1.420 . S
O128 Eu84 2.558 . S
O128 C148 1.257 . S
O129 Eu84 2.612 . S
O129 Eu95 2.380 . S
O129 C140 1.276 . S
O130 Eu95 2.432 . S
O130 C147 1.264 . S
O131 Eu84 2.339 . S
O131 C147 1.254 . S
O132 Eu84 2.563 . S
O132 C140 1.235 . S
O133 Eu84 2.419 . S
O133 C148 1.249 . S
O134 Eu95 2.558 . S
O134 C159 1.257 . S
O135 Eu84 2.380 . S
O135 Eu95 2.612 . S
O135 C151 1.276 . S
O136 Eu84 2.432 . S
O136 C158 1.264 . S
O137 Eu95 2.339 . S
O137 C158 1.254 . S
O138 Eu95 2.563 . S
O138 C151 1.235 . S
O139 Eu95 2.419 . S
O139 C159 1.249 . S
C140 O129 1.276 . S
C140 O132 1.235 . S
C141 C143 1.393 . S
C141 C145 1.395 . S
C141 C148 1.492 . S
C142 C143 1.392 . S
C142 C144 1.386 . S
C143 C141 1.393 . S
C143 C142 1.392 . S
C143 H160 0.930 . S
C144 C142 1.386 . S
C144 C146 1.395 . S
C144 H161 0.930 . S
C145 C141 1.395 . S
C145 C146 1.379 . S
C145 H162 0.930 . S
C146 C144 1.395 . S
C146 C145 1.379 . S
C146 H163 0.930 . S
C147 O130 1.264 . S
C147 O131 1.254 . S
C148 Eu84 2.848 . S
C148 O128 1.257 . S
C148 O133 1.249 . S
C148 C141 1.492 . S
C149 H114 0.931 . S
C149 C127 1.420 . S
C149 C150 1.351 . S
C150 H112 0.930 . S
C150 C118 1.423 . S
C150 C149 1.351 . S
C151 O135 1.276 . S
C151 O138 1.235 . S
C152 C153 1.393 . S
C152 C156 1.395 . S
C152 C159 1.492 . S
C153 C152 1.393 . S
C153 C154 1.392 . S
C153 H164 0.930 . S
C154 C153 1.392 . S
C154 C155 1.386 . S
C155 C154 1.386 . S
C155 C157 1.395 . S
C155 H165 0.930 . S
C156 C152 1.395 . S
C156 C157 1.379 . S
C156 H166 0.930 . S
C157 C155 1.395 . S
C157 C156 1.379 . S
C157 H167 0.930 . S
C158 O136 1.264 . S
C158 O137 1.254 . S
C159 Eu95 2.848 . S
C159 O134 1.257 . S
C159 O139 1.249 . S
C159 C152 1.492 . S
H160 C143 0.930 . S
H161 C144 0.930 . S
H162 C145 0.930 . S
H163 C146 0.930 . S
H164 C153 0.930 . S
H165 C155 0.930 . S
H166 C156 0.930 . S
H167 C157 0.930 . S
Eu168 N199 2.657 . S
Eu168 N206 2.609 . S
Eu168 O212 2.558 . S
Eu168 O213 2.612 . S
Eu168 O215 2.339 . S
Eu168 O216 2.563 . S
Eu168 O217 2.419 . S
Eu168 O219 2.380 . S
Eu168 O220 2.432 . S
Eu168 C232 2.848 . S
C169 C172 1.429 . S
C169 C173 1.411 . S
C169 N176 1.377 . S
C170 C172 1.420 . S
C170 C174 1.423 . S
C170 C182 1.392 . S
C171 C173 1.420 . S
C171 C174 1.351 . S
C171 H194 0.931 . S
C172 C169 1.429 . S
C172 C170 1.420 . S
C172 N180 1.362 . S
C173 C169 1.411 . S
C173 C171 1.420 . S
C173 C178 1.395 . S
C174 C170 1.423 . S
C174 C171 1.351 . S
C174 H186 0.930 . S
C175 C177 1.400 . S
C175 C178 1.386 . S
C175 H187 0.930 . S
N176 C169 1.377 . S
N176 C177 1.321 . S
N176 Eu179 2.609 . S
C177 C175 1.400 . S
C177 N176 1.321 . S
C177 H184 0.930 . S
C178 C173 1.395 . S
C178 C175 1.386 . S
C178 H197 0.930 . S
Eu179 N176 2.609 . S
Eu179 N180 2.657 . S
Eu179 O213 2.380 . S
Eu179 O214 2.432 . S
Eu179 O218 2.558 . S
Eu179 O219 2.612 . S
Eu179 O221 2.339 . S
Eu179 O222 2.563 . S
Eu179 O223 2.419 . S
Eu179 C243 2.848 . S
N180 C172 1.362 . S
N180 Eu179 2.657 . S
N180 C181 1.334 . S
C181 N180 1.334 . S
C181 C183 1.413 . S
C181 H188 0.929 . S
C182 C170 1.392 . S
C182 C183 1.367 . S
C182 H190 0.930 . S
C183 C181 1.413 . S
C183 C182 1.367 . S
C183 H185 0.930 . S
H184 C177 0.930 . S
H185 C183 0.930 . S
H186 C174 0.930 . S
H187 C175 0.930 . S
H188 C181 0.929 . S
H189 C203 0.930 . S
H190 C182 0.930 . S
H191 C209 0.930 . S
H192 C200 0.929 . S
H193 C207 0.930 . S
H194 C171 0.931 . S
H195 C201 0.930 . S
H196 C234 0.930 . S
H197 C178 0.930 . S
H198 C233 0.931 . S
N199 Eu168 2.657 . S
N199 C200 1.334 . S
N199 C204 1.362 . S
C200 H192 0.929 . S
C200 N199 1.334 . S
C200 C203 1.413 . S
C201 H195 0.930 . S
C201 C202 1.392 . S
C201 C203 1.367 . S
C202 C201 1.392 . S
C202 C204 1.420 . S
C202 C234 1.423 . S
C203 H189 0.930 . S
C203 C200 1.413 . S
C203 C201 1.367 . S
C204 N199 1.362 . S
C204 C202 1.420 . S
C204 C208 1.429 . S
H205 C210 0.930 . S
N206 Eu168 2.609 . S
N206 C208 1.377 . S
N206 C209 1.321 . S
C207 H193 0.930 . S
C207 C209 1.400 . S
C207 C210 1.386 . S
C208 C204 1.429 . S
C208 N206 1.377 . S
C208 C211 1.411 . S
C209 H191 0.930 . S
C209 N206 1.321 . S
C209 C207 1.400 . S
C210 H205 0.930 . S
C210 C207 1.386 . S
C210 C211 1.395 . S
C211 C208 1.411 . S
C211 C210 1.395 . S
C211 C233 1.420 . S
O212 Eu168 2.558 . S
O212 C232 1.257 . S
O213 Eu168 2.612 . S
O213 Eu179 2.380 . S
O213 C224 1.276 . S
O214 Eu179 2.432 . S
O214 C231 1.264 . S
O215 Eu168 2.339 . S
O215 C231 1.254 . S
O216 Eu168 2.563 . S
O216 C224 1.235 . S
O217 Eu168 2.419 . S
O217 C232 1.249 . S
O218 Eu179 2.558 . S
O218 C243 1.257 . S
O219 Eu168 2.380 . S
O219 Eu179 2.612 . S
O219 C235 1.276 . S
O220 Eu168 2.432 . S
O220 C242 1.264 . S
O221 Eu179 2.339 . S
O221 C242 1.254 . S
O222 Eu179 2.563 . S
O222 C235 1.235 . S
O223 Eu179 2.419 . S
O223 C243 1.249 . S
C224 O213 1.276 . S
C224 O216 1.235 . S
C225 C227 1.393 . S
C225 C229 1.395 . S
C225 C232 1.492 . S
C226 C227 1.392 . S
C226 C228 1.386 . S
C227 C225 1.393 . S
C227 C226 1.392 . S
C227 H244 0.930 . S
C228 C226 1.386 . S
C228 C230 1.395 . S
C228 H245 0.930 . S
C229 C225 1.395 . S
C229 C230 1.379 . S
C229 H246 0.930 . S
C230 C228 1.395 . S
C230 C229 1.379 . S
C230 H247 0.930 . S
C231 O214 1.264 . S
C231 O215 1.254 . S
C232 Eu168 2.848 . S
C232 O212 1.257 . S
C232 O217 1.249 . S
C232 C225 1.492 . S
C233 H198 0.931 . S
C233 C211 1.420 . S
C233 C234 1.351 . S
C234 H196 0.930 . S
C234 C202 1.423 . S
C234 C233 1.351 . S
C235 O219 1.276 . S
C235 O222 1.235 . S
C236 C237 1.393 . S
C236 C240 1.395 . S
C236 C243 1.492 . S
C237 C236 1.393 . S
C237 C238 1.392 . S
C237 H248 0.930 . S
C238 C237 1.392 . S
C238 C239 1.386 . S
C239 C238 1.386 . S
C239 C241 1.395 . S
C239 H249 0.930 . S
C240 C236 1.395 . S
C240 C241 1.379 . S
C240 H250 0.930 . S
C241 C239 1.395 . S
C241 C240 1.379 . S
C241 H251 0.930 . S
C242 O220 1.264 . S
C242 O221 1.254 . S
C243 Eu179 2.848 . S
C243 O218 1.257 . S
C243 O223 1.249 . S
C243 C236 1.492 . S
H244 C227 0.930 . S
H245 C228 0.930 . S
H246 C229 0.930 . S
H247 C230 0.930 . S
H248 C237 0.930 . S
H249 C239 0.930 . S
H250 C240 0.930 . S
H251 C241 0.930 . S
Eu252 N283 2.657 . S
Eu252 N290 2.609 . S
Eu252 O296 2.558 . S
Eu252 O297 2.612 . S
Eu252 O299 2.339 . S
Eu252 O300 2.563 . S
Eu252 O301 2.419 . S
Eu252 O303 2.380 1_554 S
Eu252 O304 2.432 . S
Eu252 C316 2.848 . S
C253 C256 1.429 . S
C253 C257 1.411 . S
C253 N260 1.377 1_554 S
C254 C256 1.420 . S
C254 C258 1.423 . S
C254 C266 1.392 . S
C255 C257 1.420 . S
C255 C258 1.351 . S
C255 H278 0.931 1_655 S
C256 C253 1.429 . S
C256 C254 1.420 . S
C256 N264 1.362 . S
C257 C253 1.411 . S
C257 C255 1.420 . S
C257 C262 1.395 1_654 S
C258 C254 1.423 . S
C258 C255 1.351 . S
C258 H270 0.930 . S
C259 C261 1.391 1_455 S
C259 C262 1.383 . S
C259 H271 0.940 . S
N260 C253 1.377 1_556 S
N260 C261 1.321 . S
N260 Eu263 2.609 . S
C261 C259 1.391 1_655 S
C261 N260 1.321 . S
C261 H268 0.930 . S
C262 C257 1.395 1_456 S
C262 C259 1.383 . S
C262 H281 0.930 . S
Eu263 N260 2.609 . S
Eu263 N264 2.657 1_556 S
Eu263 O297 2.380 1_556 S
Eu263 O298 2.432 . S
Eu263 O302 2.558 . S
Eu263 O303 2.612 . S
Eu263 O305 2.339 1_556 S
Eu263 O306 2.563 . S
Eu263 O307 2.419 . S
Eu263 C327 2.848 . S
N264 C256 1.362 . S
N264 Eu263 2.657 1_554 S
N264 C265 1.334 . S
C265 N264 1.334 . S
C265 C267 1.413 . S
C265 H272 0.929 . S
C266 C254 1.392 . S
C266 C267 1.367 . S
C266 H274 0.930 . S
C267 C265 1.413 . S
C267 C266 1.367 . S
C267 H269 0.930 . S
H268 C261 0.930 . S
H269 C267 0.930 . S
H270 C258 0.930 . S
H271 C259 0.940 . S
H272 C265 0.929 . S
H273 C287 0.930 . S
H274 C266 0.930 . S
H275 C293 0.930 . S
H276 C284 0.929 . S
H277 C291 0.930 . S
H278 C255 0.931 1_455 S
H279 C285 0.930 . S
H280 C318 0.930 . S
H281 C262 0.930 . S
H282 C317 0.931 . S
N283 Eu252 2.657 . S
N283 C284 1.334 1_554 S
N283 C288 1.362 . S
C284 H276 0.929 . S
C284 N283 1.334 1_556 S
C284 C287 1.413 . S
C285 H279 0.930 . S
C285 C286 1.392 . S
C285 C287 1.367 . S
C286 C285 1.392 . S
C286 C288 1.420 1_556 S
C286 C318 1.423 . S
C287 H273 0.930 . S
C287 C284 1.413 . S
C287 C285 1.367 . S
C288 N283 1.362 . S
C288 C286 1.420 1_554 S
C288 C292 1.429 . S
H289 C294 0.930 . S
N290 Eu252 2.609 . S
N290 C292 1.377 . S
N290 C293 1.321 . S
C291 H277 0.930 . S
C291 C293 1.400 . S
C291 C294 1.386 . S
C292 C288 1.429 . S
C292 N290 1.377 . S
C292 C295 1.411 . S
C293 H275 0.930 . S
C293 N290 1.321 . S
C293 C291 1.400 . S
C294 H289 0.930 . S
C294 C291 1.386 . S
C294 C295 1.395 . S
C295 C292 1.411 . S
C295 C294 1.395 . S
C295 C317 1.420 . S
O296 Eu252 2.558 . S
O296 C316 1.257 . S
O297 Eu252 2.612 . S
O297 Eu263 2.380 1_554 S
O297 C308 1.276 . S
O298 Eu263 2.432 . S
O298 C315 1.264 1_556 S
O299 Eu252 2.339 . S
O299 C315 1.254 . S
O300 Eu252 2.563 . S
O300 C308 1.235 . S
O301 Eu252 2.419 . S
O301 C316 1.249 . S
O302 Eu263 2.558 . S
O302 C327 1.257 . S
O303 Eu252 2.380 1_556 S
O303 Eu263 2.612 . S
O303 C319 1.276 . S
O304 Eu252 2.432 . S
O304 C326 1.264 . S
O305 Eu263 2.339 1_554 S
O305 C326 1.254 . S
O306 Eu263 2.563 . S
O306 C319 1.235 . S
O307 Eu263 2.419 . S
O307 C327 1.249 . S
C308 O297 1.276 . S
C308 O300 1.235 . S
C309 C311 1.393 . S
C309 C313 1.395 . S
C309 C316 1.492 . S
C310 C311 1.392 . S
C310 C312 1.386 . S
C311 C309 1.393 . S
C311 C310 1.392 . S
C311 H328 0.930 . S
C312 C310 1.386 . S
C312 C314 1.395 . S
C312 H329 0.930 . S
C313 C309 1.395 . S
C313 C314 1.379 . S
C313 H330 0.930 . S
C314 C312 1.395 . S
C314 C313 1.379 . S
C314 H331 0.930 . S
C315 O298 1.264 1_554 S
C315 O299 1.254 . S
C316 Eu252 2.848 . S
C316 O296 1.257 . S
C316 O301 1.249 . S
C316 C309 1.492 . S
C317 H282 0.931 . S
C317 C295 1.420 . S
C317 C318 1.351 1_554 S
C318 H280 0.930 . S
C318 C286 1.423 . S
C318 C317 1.351 1_556 S
C319 O303 1.276 . S
C319 O306 1.235 . S
C320 C321 1.393 . S
C320 C324 1.395 . S
C320 C327 1.492 . S
C321 C320 1.393 . S
C321 C322 1.392 . S
C321 H332 0.930 . S
C322 C321 1.392 . S
C322 C323 1.386 . S
C323 C322 1.386 . S
C323 C325 1.395 . S
C323 H333 0.930 . S
C324 C320 1.395 . S
C324 C325 1.379 . S
C324 H334 0.930 . S
C325 C323 1.395 . S
C325 C324 1.379 . S
C325 H335 0.930 . S
C326 O304 1.264 . S
C326 O305 1.254 . S
C327 Eu263 2.848 . S
C327 O302 1.257 . S
C327 O307 1.249 . S
C327 C320 1.492 . S
H328 C311 0.930 . S
H329 C312 0.930 . S
H330 C313 0.930 . S
H331 C314 0.930 . S
H332 C321 0.930 . S
H333 C323 0.930 . S
H334 C324 0.930 . S
H335 C325 0.930 . S
Eu336 N367 2.657 . S
Eu336 N374 2.609 . S
Eu336 O380 2.558 . S
Eu336 O381 2.612 . S
Eu336 O383 2.339 . S
Eu336 O384 2.563 . S
Eu336 O385 2.419 . S
Eu336 O387 2.380 . S
Eu336 O388 2.432 . S
Eu336 C400 2.848 . S
C337 C340 1.429 . S
C337 C341 1.411 . S
C337 N344 1.377 . S
C338 C340 1.420 . S
C338 C342 1.423 . S
C338 C350 1.392 . S
C339 C341 1.420 . S
C339 C342 1.351 . S
C339 H362 0.931 1_565 S
C340 C337 1.429 . S
C340 C338 1.420 . S
C340 N348 1.362 . S
C341 C337 1.411 . S
C341 C339 1.420 . S
C341 C346 1.395 1_565 S
C342 C338 1.423 . S
C342 C339 1.351 . S
C342 H354 0.930 . S
C343 C345 1.387 1_545 S
C343 C346 1.394 . S
C343 H355 0.934 . S
N344 C337 1.377 . S
N344 C345 1.321 . S
N344 Eu347 2.609 . S
C345 C343 1.387 1_565 S
C345 N344 1.321 . S
C345 H352 0.930 . S
C346 C341 1.395 1_545 S
C346 C343 1.394 . S
C346 H365 0.930 . S
Eu347 N344 2.609 . S
Eu347 N348 2.657 . S
Eu347 O381 2.380 . S
Eu347 O382 2.432 . S
Eu347 O386 2.558 . S
Eu347 O387 2.612 . S
Eu347 O389 2.339 . S
Eu347 O390 2.563 . S
Eu347 O391 2.419 . S
Eu347 C411 2.848 . S
N348 C340 1.362 . S
N348 Eu347 2.657 . S
N348 C349 1.334 . S
C349 N348 1.334 . S
C349 C351 1.413 . S
C349 H356 0.929 . S
C350 C338 1.392 . S
C350 C351 1.367 . S
C350 H358 0.930 . S
C351 C349 1.413 . S
C351 C350 1.367 . S
C351 H353 0.930 . S
H352 C345 0.930 . S
H353 C351 0.930 . S
H354 C342 0.930 . S
H355 C343 0.934 . S
H356 C349 0.929 . S
H357 C371 0.930 . S
H358 C350 0.930 . S
H359 C377 0.930 . S
H360 C368 0.929 . S
H361 C375 0.930 . S
H362 C339 0.931 1_545 S
H363 C369 0.930 . S
H364 C402 0.930 . S
H365 C346 0.930 . S
H366 C401 0.931 . S
N367 Eu336 2.657 . S
N367 C368 1.334 . S
N367 C372 1.362 . S
C368 H360 0.929 . S
C368 N367 1.334 . S
C368 C371 1.413 . S
C369 H363 0.930 . S
C369 C370 1.392 . S
C369 C371 1.367 . S
C370 C369 1.392 . S
C370 C372 1.420 . S
C370 C402 1.423 . S
C371 H357 0.930 . S
C371 C368 1.413 . S
C371 C369 1.367 . S
C372 N367 1.362 . S
C372 C370 1.420 . S
C372 C376 1.429 . S
H373 C378 0.930 . S
N374 Eu336 2.609 . S
N374 C376 1.377 . S
N374 C377 1.321 . S
C375 H361 0.930 . S
C375 C377 1.400 . S
C375 C378 1.386 . S
C376 C372 1.429 . S
C376 N374 1.377 . S
C376 C379 1.411 . S
C377 H359 0.930 . S
C377 N374 1.321 . S
C377 C375 1.400 . S
C378 H373 0.930 . S
C378 C375 1.386 . S
C378 C379 1.395 . S
C379 C376 1.411 . S
C379 C378 1.395 . S
C379 C401 1.420 . S
O380 Eu336 2.558 . S
O380 C400 1.257 . S
O381 Eu336 2.612 . S
O381 Eu347 2.380 . S
O381 C392 1.276 . S
O382 Eu347 2.432 . S
O382 C399 1.264 . S
O383 Eu336 2.339 . S
O383 C399 1.254 . S
O384 Eu336 2.563 . S
O384 C392 1.235 . S
O385 Eu336 2.419 . S
O385 C400 1.249 . S
O386 Eu347 2.558 . S
O386 C411 1.257 . S
O387 Eu336 2.380 . S
O387 Eu347 2.612 . S
O387 C403 1.276 . S
O388 Eu336 2.432 . S
O388 C410 1.264 . S
O389 Eu347 2.339 . S
O389 C410 1.254 . S
O390 Eu347 2.563 . S
O390 C403 1.235 . S
O391 Eu347 2.419 . S
O391 C411 1.249 . S
C392 O381 1.276 . S
C392 O384 1.235 . S
C393 C395 1.393 . S
C393 C397 1.395 . S
C393 C400 1.492 . S
C394 C395 1.392 . S
C394 C396 1.386 . S
C395 C393 1.393 . S
C395 C394 1.392 . S
C395 H412 0.930 . S
C396 C394 1.386 . S
C396 C398 1.395 . S
C396 H413 0.930 . S
C397 C393 1.395 . S
C397 C398 1.379 . S
C397 H414 0.930 . S
C398 C396 1.395 . S
C398 C397 1.379 . S
C398 H415 0.930 . S
C399 O382 1.264 . S
C399 O383 1.254 . S
C400 Eu336 2.848 . S
C400 O380 1.257 . S
C400 O385 1.249 . S
C400 C393 1.492 . S
C401 H366 0.931 . S
C401 C379 1.420 . S
C401 C402 1.351 . S
C402 H364 0.930 . S
C402 C370 1.423 . S
C402 C401 1.351 . S
C403 O387 1.276 . S
C403 O390 1.235 . S
C404 C405 1.393 . S
C404 C408 1.395 . S
C404 C411 1.492 . S
C405 C404 1.393 . S
C405 C406 1.392 . S
C405 H416 0.930 . S
C406 C405 1.392 . S
C406 C407 1.386 . S
C407 C406 1.386 . S
C407 C409 1.395 . S
C407 H417 0.930 . S
C408 C404 1.395 . S
C408 C409 1.379 . S
C408 H418 0.930 . S
C409 C407 1.395 . S
C409 C408 1.379 . S
C409 H419 0.930 . S
C410 O388 1.264 . S
C410 O389 1.254 . S
C411 Eu347 2.848 . S
C411 O386 1.257 . S
C411 O391 1.249 . S
C411 C404 1.492 . S
H412 C395 0.930 . S
H413 C396 0.930 . S
H414 C397 0.930 . S
H415 C398 0.930 . S
H416 C405 0.930 . S
H417 C407 0.930 . S
H418 C408 0.930 . S
H419 C409 0.930 . S
Eu420 N451 2.657 . S
Eu420 N458 2.609 . S
Eu420 O464 2.558 . S
Eu420 O465 2.612 . S
Eu420 O467 2.339 . S
Eu420 O468 2.563 . S
Eu420 O469 2.419 . S
Eu420 O471 2.380 . S
Eu420 O472 2.432 . S
Eu420 C484 2.848 . S
C421 C424 1.429 . S
C421 C425 1.411 . S
C421 N428 1.377 . S
C422 C424 1.420 . S
C422 C426 1.423 . S
C422 C434 1.392 . S
C423 C425 1.420 . S
C423 C426 1.351 . S
C423 H446 0.931 . S
C424 C421 1.429 . S
C424 C422 1.420 . S
C424 N432 1.362 . S
C425 C421 1.411 . S
C425 C423 1.420 . S
C425 C430 1.395 . S
C426 C422 1.423 . S
C426 C423 1.351 . S
C426 H438 0.930 . S
C427 C429 1.400 . S
C427 C430 1.386 . S
C427 H439 0.930 . S
N428 C421 1.377 . S
N428 C429 1.321 . S
N428 Eu431 2.609 . S
C429 C427 1.400 . S
C429 N428 1.321 . S
C429 H436 0.930 . S
C430 C425 1.395 . S
C430 C427 1.386 . S
C430 H449 0.930 . S
Eu431 N428 2.609 . S
Eu431 N432 2.657 . S
Eu431 O465 2.380 . S
Eu431 O466 2.432 . S
Eu431 O470 2.558 . S
Eu431 O471 2.612 . S
Eu431 O473 2.339 . S
Eu431 O474 2.563 . S
Eu431 O475 2.419 . S
Eu431 C495 2.848 . S
N432 C424 1.362 . S
N432 Eu431 2.657 . S
N432 C433 1.334 . S
C433 N432 1.334 . S
C433 C435 1.413 . S
C433 H440 0.929 . S
C434 C422 1.392 . S
C434 C435 1.367 . S
C434 H442 0.930 . S
C435 C433 1.413 . S
C435 C434 1.367 . S
C435 H437 0.930 . S
H436 C429 0.930 . S
H437 C435 0.930 . S
H438 C426 0.930 . S
H439 C427 0.930 . S
H440 C433 0.929 . S
H441 C455 0.930 . S
H442 C434 0.930 . S
H443 C461 0.930 . S
H444 C452 0.929 . S
H445 C459 0.930 . S
H446 C423 0.931 . S
H447 C453 0.930 . S
H448 C486 0.930 . S
H449 C430 0.930 . S
H450 C485 0.931 . S
N451 Eu420 2.657 . S
N451 C452 1.334 . S
N451 C456 1.362 . S
C452 H444 0.929 . S
C452 N451 1.334 . S
C452 C455 1.413 . S
C453 H447 0.930 . S
C453 C454 1.392 . S
C453 C455 1.367 . S
C454 C453 1.392 . S
C454 C456 1.420 . S
C454 C486 1.423 . S
C455 H441 0.930 . S
C455 C452 1.413 . S
C455 C453 1.367 . S
C456 N451 1.362 . S
C456 C454 1.420 . S
C456 C460 1.429 . S
H457 C462 0.930 . S
N458 Eu420 2.609 . S
N458 C460 1.377 . S
N458 C461 1.321 . S
C459 H445 0.930 . S
C459 C461 1.400 . S
C459 C462 1.386 . S
C460 C456 1.429 . S
C460 N458 1.377 . S
C460 C463 1.411 . S
C461 H443 0.930 . S
C461 N458 1.321 . S
C461 C459 1.400 . S
C462 H457 0.930 . S
C462 C459 1.386 . S
C462 C463 1.395 . S
C463 C460 1.411 . S
C463 C462 1.395 . S
C463 C485 1.420 . S
O464 Eu420 2.558 . S
O464 C484 1.257 . S
O465 Eu420 2.612 . S
O465 Eu431 2.380 . S
O465 C476 1.276 . S
O466 Eu431 2.432 . S
O466 C483 1.264 . S
O467 Eu420 2.339 . S
O467 C483 1.254 . S
O468 Eu420 2.563 . S
O468 C476 1.235 . S
O469 Eu420 2.419 . S
O469 C484 1.249 . S
O470 Eu431 2.558 . S
O470 C495 1.257 . S
O471 Eu420 2.380 . S
O471 Eu431 2.612 . S
O471 C487 1.276 . S
O472 Eu420 2.432 . S
O472 C494 1.264 . S
O473 Eu431 2.339 . S
O473 C494 1.254 . S
O474 Eu431 2.563 . S
O474 C487 1.235 . S
O475 Eu431 2.419 . S
O475 C495 1.249 . S
C476 O465 1.276 . S
C476 O468 1.235 . S
C477 C479 1.393 . S
C477 C481 1.395 . S
C477 C484 1.492 . S
C478 C479 1.392 . S
C478 C480 1.386 . S
C479 C477 1.393 . S
C479 C478 1.392 . S
C479 H496 0.930 . S
C480 C478 1.386 . S
C480 C482 1.395 . S
C480 H497 0.930 . S
C481 C477 1.395 . S
C481 C482 1.379 . S
C481 H498 0.930 . S
C482 C480 1.395 . S
C482 C481 1.379 . S
C482 H499 0.930 . S
C483 O466 1.264 . S
C483 O467 1.254 . S
C484 Eu420 2.848 . S
C484 O464 1.257 . S
C484 O469 1.249 . S
C484 C477 1.492 . S
C485 H450 0.931 . S
C485 C463 1.420 . S
C485 C486 1.351 . S
C486 H448 0.930 . S
C486 C454 1.423 . S
C486 C485 1.351 . S
C487 O471 1.276 . S
C487 O474 1.235 . S
C488 C489 1.393 . S
C488 C492 1.395 . S
C488 C495 1.492 . S
C489 C488 1.393 . S
C489 C490 1.392 . S
C489 H500 0.930 . S
C490 C489 1.392 . S
C490 C491 1.386 . S
C491 C490 1.386 . S
C491 C493 1.395 . S
C491 H501 0.930 . S
C492 C488 1.395 . S
C492 C493 1.379 . S
C492 H502 0.930 . S
C493 C491 1.395 . S
C493 C492 1.379 . S
C493 H503 0.930 . S
C494 O472 1.264 . S
C494 O473 1.254 . S
C495 Eu431 2.848 . S
C495 O470 1.257 . S
C495 O475 1.249 . S
C495 C488 1.492 . S
H496 C479 0.930 . S
H497 C480 0.930 . S
H498 C481 0.930 . S
H499 C482 0.930 . S
H500 C489 0.930 . S
H501 C491 0.930 . S
H502 C492 0.930 . S
H503 C493 0.930 . S
C504 C505 1.391 . S
C504 C506 1.394 . S
C504 H520 0.931 . S
C505 C504 1.391 . S
C505 C509 1.376 . S
C506 C504 1.394 . S
C506 C507 1.369 . S
C506 C510 1.531 . S
C507 C506 1.369 . S
C507 C508 1.410 . S
C507 C515 1.503 . S
C508 C507 1.410 . S
C508 C509 1.392 . S
C508 C511 1.511 . S
C509 C505 1.376 . S
C509 C508 1.392 . S
C509 H521 0.929 . S
C510 C506 1.531 . S
C510 H522 0.960 . S
C510 H523 0.962 . S
C510 H524 0.960 . S
C511 C508 1.511 . S
C511 H525 0.961 . S
C511 H526 0.961 . S
C511 H527 0.961 . S
C512 C513 1.370 . S
C512 C514 1.363 . S
C512 H528 0.931 . S
C513 C512 1.370 . S
C513 C517 1.408 . S
C514 C512 1.363 . S
C514 C515 1.370 . S
C514 C518 1.524 . S
C515 C507 1.503 . S
C515 C514 1.370 . S
C515 C516 1.403 . S
C516 C515 1.403 . S
C516 C517 1.404 . S
C516 C519 1.539 . S
C517 C513 1.408 . S
C517 C516 1.404 . S
C517 H529 0.930 . S
C518 C514 1.524 . S
C518 H530 0.956 . S
C518 H531 0.961 . S
C518 H532 0.961 . S
C519 C516 1.539 . S
C519 H533 0.958 . S
C519 H534 0.961 . S
C519 H535 0.960 . S
H520 C504 0.931 . S
H521 C509 0.929 . S
H522 C510 0.960 . S
H523 C510 0.962 . S
H524 C510 0.960 . S
H525 C511 0.961 . S
H526 C511 0.961 . S
H527 C511 0.961 . S
H528 C512 0.931 . S
H529 C517 0.930 . S
H530 C518 0.956 . S
H531 C518 0.961 . S
H532 C518 0.961 . S
H533 C519 0.958 . S
H534 C519 0.961 . S
H535 C519 0.960 . S
C536 C537 1.391 . S
C536 C538 1.394 . S
C536 H552 0.931 . S
C537 C536 1.391 . S
C537 C541 1.376 . S
C538 C536 1.394 . S
C538 C539 1.369 . S
C538 C542 1.531 . S
C539 C538 1.369 . S
C539 C540 1.410 . S
C539 C547 1.503 . S
C540 C539 1.410 . S
C540 C541 1.392 . S
C540 C543 1.511 . S
C541 C537 1.376 . S
C541 C540 1.392 . S
C541 H553 0.929 . S
C542 C538 1.531 . S
C542 H554 0.960 . S
C542 H555 0.962 . S
C542 H556 0.960 . S
C543 C540 1.511 . S
C543 H557 0.961 . S
C543 H558 0.961 . S
C543 H559 0.961 . S
C544 C545 1.370 . S
C544 C546 1.363 . S
C544 H560 0.931 . S
C545 C544 1.370 . S
C545 C549 1.408 . S
C546 C544 1.363 . S
C546 C547 1.370 . S
C546 C550 1.524 . S
C547 C539 1.503 . S
C547 C546 1.370 . S
C547 C548 1.403 . S
C548 C547 1.403 . S
C548 C549 1.404 . S
C548 C551 1.539 . S
C549 C545 1.408 . S
C549 C548 1.404 . S
C549 H561 0.930 . S
C550 C546 1.524 . S
C550 H562 0.956 . S
C550 H563 0.961 . S
C550 H564 0.961 . S
C551 C548 1.539 . S
C551 H565 0.958 . S
C551 H566 0.961 . S
C551 H567 0.960 . S
H552 C536 0.931 . S
H553 C541 0.929 . S
H554 C542 0.960 . S
H555 C542 0.962 . S
H556 C542 0.960 . S
H557 C543 0.961 . S
H558 C543 0.961 . S
H559 C543 0.961 . S
H560 C544 0.931 . S
H561 C549 0.930 . S
H562 C550 0.956 . S
H563 C550 0.961 . S
H564 C550 0.961 . S
H565 C551 0.958 . S
H566 C551 0.961 . S
H567 C551 0.960 . S
C568 C569 1.391 . S
C568 C570 1.394 . S
C568 H584 0.931 . S
C569 C568 1.391 . S
C569 C573 1.376 . S
C570 C568 1.394 . S
C570 C571 1.369 . S
C570 C574 1.531 . S
C571 C570 1.369 . S
C571 C572 1.410 . S
C571 C579 1.503 . S
C572 C571 1.410 . S
C572 C573 1.392 . S
C572 C575 1.511 . S
C573 C569 1.376 . S
C573 C572 1.392 . S
C573 H585 0.929 . S
C574 C570 1.531 . S
C574 H586 0.960 . S
C574 H587 0.962 . S
C574 H588 0.960 . S
C575 C572 1.511 . S
C575 H589 0.961 . S
C575 H590 0.961 . S
C575 H591 0.961 . S
C576 C577 1.370 . S
C576 C578 1.363 . S
C576 H592 0.931 . S
C577 C576 1.370 . S
C577 C581 1.408 . S
C578 C576 1.363 . S
C578 C579 1.370 . S
C578 C582 1.524 . S
C579 C571 1.503 . S
C579 C578 1.370 . S
C579 C580 1.403 . S
C580 C579 1.403 . S
C580 C581 1.404 . S
C580 C583 1.539 . S
C581 C577 1.408 . S
C581 C580 1.404 . S
C581 H593 0.930 . S
C582 C578 1.524 . S
C582 H594 0.956 . S
C582 H595 0.961 . S
C582 H596 0.961 . S
C583 C580 1.539 . S
C583 H597 0.958 . S
C583 H598 0.961 . S
C583 H599 0.960 . S
H584 C568 0.931 . S
H585 C573 0.929 . S
H586 C574 0.960 . S
H587 C574 0.962 . S
H588 C574 0.960 . S
H589 C575 0.961 . S
H590 C575 0.961 . S
H591 C575 0.961 . S
H592 C576 0.931 . S
H593 C581 0.930 . S
H594 C582 0.956 . S
H595 C582 0.961 . S
H596 C582 0.961 . S
H597 C583 0.958 . S
H598 C583 0.961 . S
H599 C583 0.960 . S
C600 C601 1.391 . S
C600 C602 1.394 . S
C600 H616 0.931 . S
C601 C600 1.391 . S
C601 C605 1.376 . S
C602 C600 1.394 . S
C602 C603 1.369 . S
C602 C606 1.531 . S
C603 C602 1.369 . S
C603 C604 1.410 . S
C603 C611 1.503 . S
C604 C603 1.410 . S
C604 C605 1.392 . S
C604 C607 1.511 . S
C605 C601 1.376 . S
C605 C604 1.392 . S
C605 H617 0.929 . S
C606 C602 1.531 . S
C606 H618 0.960 . S
C606 H619 0.962 . S
C606 H620 0.960 . S
C607 C604 1.511 . S
C607 H621 0.961 . S
C607 H622 0.961 . S
C607 H623 0.961 . S
C608 C609 1.370 . S
C608 C610 1.363 . S
C608 H624 0.931 . S
C609 C608 1.370 . S
C609 C613 1.408 . S
C610 C608 1.363 . S
C610 C611 1.370 . S
C610 C614 1.524 . S
C611 C603 1.503 . S
C611 C610 1.370 . S
C611 C612 1.403 . S
C612 C611 1.403 . S
C612 C613 1.404 . S
C612 C615 1.539 . S
C613 C609 1.408 . S
C613 C612 1.404 . S
C613 H625 0.930 . S
C614 C610 1.524 . S
C614 H626 0.956 . S
C614 H627 0.961 . S
C614 H628 0.961 . S
C615 C612 1.539 . S
C615 H629 0.958 . S
C615 H630 0.961 . S
C615 H631 0.960 . S
H616 C600 0.931 . S
H617 C605 0.929 . S
H618 C606 0.960 . S
H619 C606 0.962 . S
H620 C606 0.960 . S
H621 C607 0.961 . S
H622 C607 0.961 . S
H623 C607 0.961 . S
H624 C608 0.931 . S
H625 C613 0.930 . S
H626 C614 0.956 . S
H627 C614 0.961 . S
H628 C614 0.961 . S
H629 C615 0.958 . S
H630 C615 0.961 . S
H631 C615 0.960 . S
C632 C633 1.391 . S
C632 C634 1.394 . S
C632 H648 0.931 . S
C633 C632 1.391 . S
C633 C637 1.376 . S
C634 C632 1.394 . S
C634 C635 1.369 . S
C634 C638 1.531 . S
C635 C634 1.369 . S
C635 C636 1.410 . S
C635 C643 1.503 . S
C636 C635 1.410 . S
C636 C637 1.392 . S
C636 C639 1.511 . S
C637 C633 1.376 . S
C637 C636 1.392 . S
C637 H649 0.929 . S
C638 C634 1.531 . S
C638 H650 0.960 . S
C638 H651 0.962 . S
C638 H652 0.960 . S
C639 C636 1.511 . S
C639 H653 0.961 . S
C639 H654 0.961 . S
C639 H655 0.961 . S
C640 C641 1.370 . S
C640 C642 1.363 . S
C640 H656 0.931 . S
C641 C640 1.370 . S
C641 C645 1.408 . S
C642 C640 1.363 . S
C642 C643 1.370 . S
C642 C646 1.524 . S
C643 C635 1.503 . S
C643 C642 1.370 . S
C643 C644 1.403 . S
C644 C643 1.403 . S
C644 C645 1.404 . S
C644 C647 1.539 . S
C645 C641 1.408 . S
C645 C644 1.404 . S
C645 H657 0.930 . S
C646 C642 1.524 . S
C646 H658 0.956 . S
C646 H659 0.961 . S
C646 H660 0.961 . S
C647 C644 1.539 . S
C647 H661 0.958 . S
C647 H662 0.961 . S
C647 H663 0.960 . S
H648 C632 0.931 . S
H649 C637 0.929 . S
H650 C638 0.960 . S
H651 C638 0.962 . S
H652 C638 0.960 . S
H653 C639 0.961 . S
H654 C639 0.961 . S
H655 C639 0.961 . S
H656 C640 0.931 . S
H657 C645 0.930 . S
H658 C646 0.956 . S
H659 C646 0.961 . S
H660 C646 0.961 . S
H661 C647 0.958 . S
H662 C647 0.961 . S
H663 C647 0.960 . S
C664 C665 1.391 . S
C664 C666 1.394 . S
C664 H680 0.931 . S
C665 C664 1.391 . S
C665 C669 1.376 . S
C666 C664 1.394 . S
C666 C667 1.369 . S
C666 C670 1.531 . S
C667 C666 1.369 . S
C667 C668 1.410 . S
C667 C675 1.503 . S
C668 C667 1.410 . S
C668 C669 1.392 . S
C668 C671 1.511 . S
C669 C665 1.376 . S
C669 C668 1.392 . S
C669 H681 0.929 . S
C670 C666 1.531 . S
C670 H682 0.960 . S
C670 H683 0.962 . S
C670 H684 0.960 . S
C671 C668 1.511 . S
C671 H685 0.961 . S
C671 H686 0.961 . S
C671 H687 0.961 . S
C672 C673 1.370 . S
C672 C674 1.363 . S
C672 H688 0.931 . S
C673 C672 1.370 . S
C673 C677 1.408 . S
C674 C672 1.363 . S
C674 C675 1.370 . S
C674 C678 1.524 . S
C675 C667 1.503 . S
C675 C674 1.370 . S
C675 C676 1.403 . S
C676 C675 1.403 . S
C676 C677 1.404 . S
C676 C679 1.539 . S
C677 C673 1.408 . S
C677 C676 1.404 . S
C677 H689 0.930 . S
C678 C674 1.524 . S
C678 H690 0.956 . S
C678 H691 0.961 . S
C678 H692 0.961 . S
C679 C676 1.539 . S
C679 H693 0.958 . S
C679 H694 0.961 . S
C679 H695 0.960 . S
H680 C664 0.931 . S
H681 C669 0.929 . S
H682 C670 0.960 . S
H683 C670 0.962 . S
H684 C670 0.960 . S
H685 C671 0.961 . S
H686 C671 0.961 . S
H687 C671 0.961 . S
H688 C672 0.931 . S
H689 C677 0.930 . S
H690 C678 0.956 . S
H691 C678 0.961 . S
H692 C678 0.961 . S
H693 C679 0.958 . S
H694 C679 0.961 . S
H695 C679 0.960 . S
C696 C697 1.391 1_556 S
C696 C698 1.394 . S
C696 H712 0.931 . S
C697 C696 1.391 1_554 S
C697 C701 1.376 . S
C698 C696 1.394 . S
C698 C699 1.369 1_556 S
C698 C702 1.531 . S
C699 C698 1.369 1_554 S
C699 C700 1.410 . S
C699 C707 1.503 . S
C700 C699 1.410 . S
C700 C701 1.392 . S
C700 C703 1.511 . S
C701 C697 1.376 . S
C701 C700 1.392 . S
C701 H713 0.929 . S
C702 C698 1.531 . S
C702 H714 0.960 . S
C702 H715 0.962 . S
C702 H716 0.960 . S
C703 C700 1.511 . S
C703 H717 0.961 . S
C703 H718 0.961 . S
C703 H719 0.961 . S
C704 C705 1.370 . S
C704 C706 1.363 . S
C704 H720 0.931 1_554 S
C705 C704 1.370 . S
C705 C709 1.408 . S
C706 C704 1.363 . S
C706 C707 1.370 . S
C706 C710 1.524 1_554 S
C707 C699 1.503 . S
C707 C706 1.370 . S
C707 C708 1.403 . S
C708 C707 1.403 . S
C708 C709 1.404 . S
C708 C711 1.539 . S
C709 C705 1.408 . S
C709 C708 1.404 . S
C709 H721 0.930 . S
C710 C706 1.524 1_556 S
C710 H722 0.956 . S
C710 H723 0.961 1_556 S
C710 H724 0.961 . S
C711 C708 1.539 . S
C711 H725 0.958 . S
C711 H726 0.961 . S
C711 H727 0.960 . S
H712 C696 0.931 . S
H713 C701 0.929 . S
H714 C702 0.960 . S
H715 C702 0.962 . S
H716 C702 0.960 . S
H717 C703 0.961 . S
H718 C703 0.961 . S
H719 C703 0.961 . S
H720 C704 0.931 1_556 S
H721 C709 0.930 . S
H722 C710 0.956 . S
H723 C710 0.961 1_554 S
H724 C710 0.961 . S
H725 C711 0.958 . S
H726 C711 0.961 . S
H727 C711 0.960 . S
C728 C729 1.391 . S
C728 C730 1.394 . S
C728 H744 0.931 . S
C729 C728 1.391 . S
C729 C733 1.376 . S
C730 C728 1.394 . S
C730 C731 1.369 . S
C730 C734 1.531 . S
C731 C730 1.369 . S
C731 C732 1.410 . S
C731 C739 1.503 1_455 S
C732 C731 1.410 . S
C732 C733 1.392 . S
C732 C735 1.511 1_455 S
C733 C729 1.376 . S
C733 C732 1.392 . S
C733 H745 0.929 . S
C734 C730 1.531 . S
C734 H746 0.960 . S
C734 H747 0.962 . S
C734 H748 0.960 . S
C735 C732 1.511 1_655 S
C735 H749 0.961 . S
C735 H750 0.961 . S
C735 H751 0.961 . S
C736 C737 1.370 . S
C736 C738 1.363 . S
C736 H752 0.931 . S
C737 C736 1.370 . S
C737 C741 1.408 . S
C738 C736 1.363 . S
C738 C739 1.370 . S
C738 C742 1.524 . S
C739 C731 1.503 1_655 S
C739 C738 1.370 . S
C739 C740 1.403 . S
C740 C739 1.403 . S
C740 C741 1.404 . S
C740 C743 1.539 1_655 S
C741 C737 1.408 . S
C741 C740 1.404 . S
C741 H753 0.930 . S
C742 C738 1.524 . S
C742 H754 0.956 . S
C742 H755 0.961 . S
C742 H756 0.961 . S
C743 C740 1.539 1_455 S
C743 H757 0.958 . S
C743 H758 0.961 . S
C743 H759 0.960 . S
H744 C728 0.931 . S
H745 C733 0.929 . S
H746 C734 0.960 . S
H747 C734 0.962 . S
H748 C734 0.960 . S
H749 C735 0.961 . S
H750 C735 0.961 . S
H751 C735 0.961 . S
H752 C736 0.931 . S
H753 C741 0.930 . S
H754 C742 0.956 . S
H755 C742 0.961 . S
H756 C742 0.961 . S
H757 C743 0.958 . S
H758 C743 0.961 . S
H759 C743 0.960 . S
C760 C761 1.391 . S
C760 C762 1.394 . S
C760 H776 0.931 . S
C761 C760 1.391 . S
C761 C765 1.376 . S
C762 C760 1.394 . S
C762 C763 1.369 . S
C762 C766 1.531 . S
C763 C762 1.369 . S
C763 C764 1.410 1_545 S
C763 C771 1.503 1_545 S
C764 C763 1.410 1_565 S
C764 C765 1.392 1_565 S
C764 C767 1.511 . S
C765 C761 1.376 . S
C765 C764 1.392 1_545 S
C765 H777 0.929 . S
C766 C762 1.531 . S
C766 H778 0.960 . S
C766 H779 0.962 . S
C766 H780 0.960 . S
C767 C764 1.511 . S
C767 H781 0.961 . S
C767 H782 0.961 . S
C767 H783 0.961 . S
C768 C769 1.370 . S
C768 C770 1.363 . S
C768 H784 0.931 . S
C769 C768 1.370 . S
C769 C773 1.408 . S
C770 C768 1.363 . S
C770 C771 1.370 . S
C770 C774 1.524 . S
C771 C763 1.503 1_565 S
C771 C770 1.370 . S
C771 C772 1.403 . S
C772 C771 1.403 . S
C772 C773 1.404 . S
C772 C775 1.539 . S
C773 C769 1.408 . S
C773 C772 1.404 . S
C773 H785 0.930 . S
C774 C770 1.524 . S
C774 H786 0.956 1_565 S
C774 H787 0.961 . S
C774 H788 0.961 . S
C775 C772 1.539 . S
C775 H789 0.961 . S
C775 H790 0.961 . S
C775 H791 0.960 . S
H776 C760 0.931 . S
H777 C765 0.929 . S
H778 C766 0.960 . S
H779 C766 0.962 . S
H780 C766 0.960 . S
H781 C767 0.961 . S
H782 C767 0.961 . S
H783 C767 0.961 . S
H784 C768 0.931 . S
H785 C773 0.930 . S
H786 C774 0.956 1_545 S
H787 C774 0.961 . S
H788 C774 0.961 . S
H789 C775 0.961 . S
H790 C775 0.961 . S
H791 C775 0.960 . S
C792 C793 1.391 . S
C792 C794 1.394 . S
C792 H808 0.931 . S
C793 C792 1.391 . S
C793 C797 1.376 . S
C794 C792 1.394 . S
C794 C795 1.369 . S
C794 C798 1.531 . S
C795 C794 1.369 . S
C795 C796 1.410 . S
C795 C803 1.503 . S
C796 C795 1.410 . S
C796 C797 1.392 . S
C796 C799 1.511 . S
C797 C793 1.376 . S
C797 C796 1.392 . S
C797 H809 0.929 . S
C798 C794 1.531 . S
C798 H810 0.960 . S
C798 H811 0.962 . S
C798 H812 0.960 . S
C799 C796 1.511 . S
C799 H813 0.961 . S
C799 H814 0.961 . S
C799 H815 0.961 . S
C800 C801 1.370 . S
C800 C802 1.363 . S
C800 H816 0.931 . S
C801 C800 1.370 . S
C801 C805 1.408 . S
C802 C800 1.363 . S
C802 C803 1.370 . S
C802 C806 1.524 . S
C803 C795 1.503 . S
C803 C802 1.370 . S
C803 C804 1.403 . S
C804 C803 1.403 . S
C804 C805 1.404 . S
C804 C807 1.539 . S
C805 C801 1.408 . S
C805 C804 1.404 . S
C805 H817 0.930 . S
C806 C802 1.524 . S
C806 H818 0.956 . S
C806 H819 0.961 . S
C806 H820 0.961 . S
C807 C804 1.539 . S
C807 H821 0.958 . S
C807 H822 0.961 . S
C807 H823 0.960 . S
H808 C792 0.931 . S
H809 C797 0.929 . S
H810 C798 0.960 . S
H811 C798 0.962 . S
H812 C798 0.960 . S
H813 C799 0.961 . S
H814 C799 0.961 . S
H815 C799 0.961 . S
H816 C800 0.931 . S
H817 C805 0.930 . S
H818 C806 0.956 . S
H819 C806 0.961 . S
H820 C806 0.961 . S
H821 C807 0.958 . S
H822 C807 0.961 . S
H823 C807 0.960 . S
C824 C825 1.391 . S
C824 C826 1.394 1_455 S
C824 H840 0.931 1_554 S
C825 C824 1.391 . S
C825 C829 1.376 . S
C826 C824 1.394 1_655 S
C826 C827 1.369 1_655 S
C826 C830 1.531 1_554 S
C827 C826 1.369 1_455 S
C827 C828 1.410 . S
C827 C835 1.503 1_455 S
C828 C827 1.410 . S
C828 C829 1.392 . S
C828 C831 1.511 . S
C829 C825 1.376 . S
C829 C828 1.392 . S
C829 H841 0.929 . S
C830 C826 1.531 1_556 S
C830 H842 0.960 1_556 S
C830 H843 0.962 . S
C830 H844 0.960 . S
C831 C828 1.511 . S
C831 H845 0.961 . S
C831 H846 0.961 . S
C831 H847 0.961 . S
C832 C833 1.370 1_556 S
C832 C834 1.363 . S
C832 H848 0.931 . S
C833 C832 1.370 1_554 S
C833 C837 1.408 . S
C834 C832 1.363 . S
C834 C835 1.370 1_556 S
C834 C838 1.524 1_655 S
C835 C827 1.503 1_655 S
C835 C834 1.370 1_554 S
C835 C836 1.403 . S
C836 C835 1.403 . S
C836 C837 1.404 . S
C836 C839 1.539 . S
C837 C833 1.408 . S
C837 C836 1.404 . S
C837 H849 0.930 . S
C838 C834 1.524 1_455 S
C838 H850 0.956 . S
C838 H851 0.961 . S
C838 H852 0.961 . S
C839 C836 1.539 . S
C839 H853 0.958 . S
C839 H854 0.961 . S
C839 H855 0.960 . S
H840 C824 0.931 1_556 S
H841 C829 0.929 . S
H842 C830 0.960 1_554 S
H843 C830 0.962 . S
H844 C830 0.960 . S
H845 C831 0.961 . S
H846 C831 0.961 . S
H847 C831 0.961 . S
H848 C832 0.931 . S
H849 C837 0.930 . S
H850 C838 0.956 . S
H851 C838 0.961 . S
H852 C838 0.961 . S
H853 C839 0.958 . S
H854 C839 0.961 . S
H855 C839 0.960 . S
C856 C857 1.391 . S
C856 C858 1.394 . S
C856 H872 0.931 . S
C857 C856 1.391 . S
C857 C861 1.376 . S
C858 C856 1.394 . S
C858 C859 1.369 . S
C858 C862 1.531 1_565 S
C859 C858 1.369 . S
C859 C860 1.410 . S
C859 C867 1.503 1_565 S
C860 C859 1.410 . S
C860 C861 1.392 . S
C860 C863 1.511 . S
C861 C857 1.376 . S
C861 C860 1.392 . S
C861 H873 0.929 . S
C862 C858 1.531 1_545 S
C862 H874 0.960 . S
C862 H875 0.962 . S
C862 H876 0.960 . S
C863 C860 1.511 . S
C863 H877 0.961 . S
C863 H878 0.961 . S
C863 H879 0.961 . S
C864 C865 1.370 . S
C864 C866 1.363 . S
C864 H880 0.931 . S
C865 C864 1.370 . S
C865 C869 1.408 . S
C866 C864 1.363 . S
C866 C867 1.370 . S
C866 C870 1.524 . S
C867 C859 1.503 1_545 S
C867 C866 1.370 . S
C867 C868 1.403 . S
C868 C867 1.403 . S
C868 C869 1.404 . S
C868 C871 1.539 1_545 S
C869 C865 1.408 . S
C869 C868 1.404 . S
C869 H881 0.930 . S
C870 C866 1.524 . S
C870 H882 0.956 . S
C870 H883 0.961 . S
C870 H884 0.961 . S
C871 C868 1.539 1_565 S
C871 H885 0.958 . S
C871 H886 0.961 . S
C871 H887 0.960 . S
H872 C856 0.931 . S
H873 C861 0.929 . S
H874 C862 0.960 . S
H875 C862 0.962 . S
H876 C862 0.960 . S
H877 C863 0.961 . S
H878 C863 0.961 . S
H879 C863 0.961 . S
H880 C864 0.931 . S
H881 C869 0.930 . S
H882 C870 0.956 . S
H883 C870 0.961 . S
H884 C870 0.961 . S
H885 C871 0.958 . S
H886 C871 0.961 . S
H887 C871 0.960 . S
C888 C889 1.391 . S
C888 C890 1.394 . S
C888 H904 0.931 . S
C889 C888 1.391 . S
C889 C893 1.376 . S
C890 C888 1.394 . S
C890 C891 1.369 . S
C890 C894 1.531 . S
C891 C890 1.369 . S
C891 C892 1.410 . S
C891 C899 1.503 . S
C892 C891 1.410 . S
C892 C893 1.392 . S
C892 C895 1.511 . S
C893 C889 1.376 . S
C893 C892 1.392 . S
C893 H905 0.929 . S
C894 C890 1.531 . S
C894 H906 0.960 . S
C894 H907 0.962 . S
C894 H908 0.960 . S
C895 C892 1.511 . S
C895 H909 0.961 . S
C895 H910 0.961 . S
C895 H911 0.961 . S
C896 C897 1.370 . S
C896 C898 1.363 . S
C896 H912 0.931 . S
C897 C896 1.370 . S
C897 C901 1.408 . S
C898 C896 1.363 . S
C898 C899 1.370 . S
C898 C902 1.524 . S
C899 C891 1.503 . S
C899 C898 1.370 . S
C899 C900 1.403 . S
C900 C899 1.403 . S
C900 C901 1.404 . S
C900 C903 1.539 . S
C901 C897 1.408 . S
C901 C900 1.404 . S
C901 H913 0.930 . S
C902 C898 1.524 . S
C902 H914 0.956 . S
C902 H915 0.961 . S
C902 H916 0.961 . S
C903 C900 1.539 . S
C903 H917 0.958 . S
C903 H918 0.961 . S
C903 H919 0.960 . S
H904 C888 0.931 . S
H905 C893 0.929 . S
H906 C894 0.960 . S
H907 C894 0.962 . S
H908 C894 0.960 . S
H909 C895 0.961 . S
H910 C895 0.961 . S
H911 C895 0.961 . S
H912 C896 0.931 . S
H913 C901 0.930 . S
H914 C902 0.956 . S
H915 C902 0.961 . S
H916 C902 0.961 . S
H917 C903 0.958 . S
H918 C903 0.961 . S
H919 C903 0.960 . S
C920 C921 1.391 . S
C920 C922 1.394 1_655 S
C920 H936 0.931 . S
C921 C920 1.391 . S
C921 C925 1.376 1_655 S
C922 C920 1.394 1_455 S
C922 C923 1.369 . S
C922 C926 1.531 . S
C923 C922 1.369 . S
C923 C924 1.410 . S
C923 C931 1.503 . S
C924 C923 1.410 . S
C924 C925 1.392 . S
C924 C927 1.511 . S
C925 C921 1.376 1_455 S
C925 C924 1.392 . S
C925 H937 0.929 . S
C926 C922 1.531 . S
C926 H938 0.960 . S
C926 H939 0.962 . S
C926 H940 0.960 1_455 S
C927 C924 1.511 . S
C927 H941 0.961 . S
C927 H942 0.961 . S
C927 H943 0.961 . S
C928 C929 1.370 . S
C928 C930 1.363 . S
C928 H944 0.931 . S
C929 C928 1.370 . S
C929 C933 1.408 . S
C930 C928 1.363 . S
C930 C931 1.370 . S
C930 C934 1.524 . S
C931 C923 1.503 . S
C931 C930 1.370 . S
C931 C932 1.403 . S
C932 C931 1.403 . S
C932 C933 1.404 . S
C932 C935 1.539 . S
C933 C929 1.408 . S
C933 C932 1.404 . S
C933 H945 0.930 . S
C934 C930 1.524 . S
C934 H946 0.956 . S
C934 H947 0.961 . S
C934 H948 0.961 . S
C935 C932 1.539 . S
C935 H949 0.958 1_455 S
C935 H950 0.962 1_455 S
C935 H951 0.960 1_455 S
H936 C920 0.931 . S
H937 C925 0.929 . S
H938 C926 0.960 . S
H939 C926 0.962 . S
H940 C926 0.960 1_655 S
H941 C927 0.961 . S
H942 C927 0.961 . S
H943 C927 0.961 . S
H944 C928 0.931 . S
H945 C933 0.930 . S
H946 C934 0.956 . S
H947 C934 0.961 . S
H948 C934 0.961 . S
H949 C935 0.958 1_655 S
H950 C935 0.962 1_655 S
H951 C935 0.960 1_655 S
C952 C953 1.391 1_545 S
C952 C954 1.394 . S
C952 H968 0.931 . S
C953 C952 1.391 1_565 S
C953 C957 1.376 . S
C954 C952 1.394 . S
C954 C955 1.369 . S
C954 C958 1.531 . S
C955 C954 1.369 . S
C955 C956 1.410 . S
C955 C963 1.503 . S
C956 C955 1.410 . S
C956 C957 1.392 1_545 S
C956 C959 1.511 1_545 S
C957 C953 1.376 . S
C957 C956 1.392 1_565 S
C957 H969 0.929 . S
C958 C954 1.531 . S
C958 H970 0.960 . S
C958 H971 0.962 . S
C958 H972 0.960 . S
C959 C956 1.511 1_565 S
C959 H973 0.961 . S
C959 H974 0.961 1_565 S
C959 H975 0.961 . S
C960 C961 1.370 . S
C960 C962 1.363 . S
C960 H976 0.931 . S
C961 C960 1.370 . S
C961 C965 1.408 . S
C962 C960 1.363 . S
C962 C963 1.370 . S
C962 C966 1.524 . S
C963 C955 1.503 . S
C963 C962 1.370 . S
C963 C964 1.403 . S
C964 C963 1.403 . S
C964 C965 1.404 . S
C964 C967 1.539 . S
C965 C961 1.408 . S
C965 C964 1.404 . S
C965 H977 0.930 . S
C966 C962 1.524 . S
C966 H978 0.956 . S
C966 H979 0.961 . S
C966 H980 0.961 . S
C967 C964 1.539 . S
C967 H981 0.958 . S
C967 H982 0.961 . S
C967 H983 0.960 . S
H968 C952 0.931 . S
H969 C957 0.929 . S
H970 C958 0.960 . S
H971 C958 0.962 . S
H972 C958 0.960 . S
H973 C959 0.961 . S
H974 C959 0.961 1_545 S
H975 C959 0.961 . S
H976 C960 0.931 . S
H977 C965 0.930 . S
H978 C966 0.956 . S
H979 C966 0.961 . S
H980 C966 0.961 . S
H981 C967 0.958 . S
H982 C967 0.961 . S
H983 C967 0.960 . S
C984 C985 1.391 . S
C984 C986 1.394 . S
C984 H1000 0.931 . S
C985 C984 1.391 . S
C985 C989 1.376 . S
C986 C984 1.394 . S
C986 C987 1.369 . S
C986 C990 1.531 . S
C987 C986 1.369 . S
C987 C988 1.410 . S
C987 C995 1.503 . S
C988 C987 1.410 . S
C988 C989 1.392 . S
C988 C991 1.511 . S
C989 C985 1.376 . S
C989 C988 1.392 . S
C989 H1001 0.929 . S
C990 C986 1.531 . S
C990 H1002 0.960 . S
C990 H1003 0.962 . S
C990 H1004 0.960 . S
C991 C988 1.511 . S
C991 H1005 0.961 . S
C991 H1006 0.961 . S
C991 H1007 0.961 . S
C992 C993 1.370 . S
C992 C994 1.363 . S
C992 H1008 0.931 . S
C993 C992 1.370 . S
C993 C997 1.408 . S
C994 C992 1.363 . S
C994 C995 1.370 . S
C994 C998 1.524 . S
C995 C987 1.503 . S
C995 C994 1.370 . S
C995 C996 1.403 . S
C996 C995 1.403 . S
C996 C997 1.404 . S
C996 C999 1.539 . S
C997 C993 1.408 . S
C997 C996 1.404 . S
C997 H1009 0.930 . S
C998 C994 1.524 . S
C998 H1010 0.956 . S
C998 H1011 0.961 . S
C998 H1012 0.961 . S
C999 C996 1.539 . S
C999 H1013 0.958 . S
C999 H1014 0.961 . S
C999 H1015 0.960 . S
H1000 C984 0.931 . S
H1001 C989 0.929 . S
H1002 C990 0.960 . S
H1003 C990 0.962 . S
H1004 C990 0.960 . S
H1005 C991 0.961 . S
H1006 C991 0.961 . S
H1007 C991 0.961 . S
H1008 C992 0.931 . S
H1009 C997 0.930 . S
H1010 C998 0.956 . S
H1011 C998 0.961 . S
H1012 C998 0.961 . S
H1013 C999 0.958 . S
H1014 C999 0.961 . S
H1015 C999 0.960 . S
C1016 C1017 1.391 1_455 S
C1016 C1018 1.394 1_455 S
C1016 H1032 0.931 . S
C1017 C1016 1.391 1_655 S
C1017 C1021 1.376 . S
C1018 C1016 1.394 1_655 S
C1018 C1019 1.369 . S
C1018 C1022 1.531 . S
C1019 C1018 1.369 . S
C1019 C1020 1.410 . S
C1019 C1027 1.503 . S
C1020 C1019 1.410 . S
C1020 C1021 1.392 . S
C1020 C1023 1.511 . S
C1021 C1017 1.376 . S
C1021 C1020 1.392 . S
C1021 H1033 0.929 . S
C1022 C1018 1.531 . S
C1022 H1034 0.960 . S
C1022 H1035 0.962 1_655 S
C1022 H1036 0.960 1_655 S
C1023 C1020 1.511 . S
C1023 H1037 0.961 . S
C1023 H1038 0.961 . S
C1023 H1039 0.961 . S
C1024 C1025 1.370 . S
C1024 C1026 1.363 . S
C1024 H1040 0.931 . S
C1025 C1024 1.370 . S
C1025 C1029 1.408 . S
C1026 C1024 1.363 . S
C1026 C1027 1.370 . S
C1026 C1030 1.524 . S
C1027 C1019 1.503 . S
C1027 C1026 1.370 . S
C1027 C1028 1.403 . S
C1028 C1027 1.403 . S
C1028 C1029 1.404 . S
C1028 C1031 1.539 . S
C1029 C1025 1.408 . S
C1029 C1028 1.404 . S
C1029 H1041 0.930 . S
C1030 C1026 1.524 . S
C1030 H1042 0.956 1_655 S
C1030 H1043 0.961 . S
C1030 H1044 0.961 . S
C1031 C1028 1.539 . S
C1031 H1045 0.958 . S
C1031 H1046 0.961 . S
C1031 H1047 0.960 . S
H1032 C1016 0.931 . S
H1033 C1021 0.929 . S
H1034 C1022 0.960 . S
H1035 C1022 0.962 1_455 S
H1036 C1022 0.960 1_455 S
H1037 C1023 0.961 . S
H1038 C1023 0.961 . S
H1039 C1023 0.961 . S
H1040 C1024 0.931 . S
H1041 C1029 0.930 . S
H1042 C1030 0.956 1_455 S
H1043 C1030 0.961 . S
H1044 C1030 0.961 . S
H1045 C1031 0.958 . S
H1046 C1031 0.961 . S
H1047 C1031 0.960 . S
C1048 C1049 1.391 1_565 S
C1048 C1050 1.394 . S
C1048 H1064 0.931 . S
C1049 C1048 1.391 1_545 S
C1049 C1053 1.376 . S
C1050 C1048 1.394 . S
C1050 C1051 1.369 . S
C1050 C1054 1.531 . S
C1051 C1050 1.369 . S
C1051 C1052 1.410 . S
C1051 C1059 1.503 . S
C1052 C1051 1.410 . S
C1052 C1053 1.392 1_565 S
C1052 C1055 1.511 1_565 S
C1053 C1049 1.376 . S
C1053 C1052 1.392 1_545 S
C1053 H1065 0.929 . S
C1054 C1050 1.531 . S
C1054 H1066 0.960 . S
C1054 H1067 0.962 . S
C1054 H1068 0.960 . S
C1055 C1052 1.511 1_545 S
C1055 H1069 0.961 . S
C1055 H1070 0.961 1_545 S
C1055 H1071 0.961 . S
C1056 C1057 1.370 . S
C1056 C1058 1.363 . S
C1056 H1072 0.931 . S
C1057 C1056 1.370 . S
C1057 C1061 1.408 . S
C1058 C1056 1.363 . S
C1058 C1059 1.370 . S
C1058 C1062 1.524 . S
C1059 C1051 1.503 . S
C1059 C1058 1.370 . S
C1059 C1060 1.403 . S
C1060 C1059 1.403 . S
C1060 C1061 1.404 . S
C1060 C1063 1.539 . S
C1061 C1057 1.408 . S
C1061 C1060 1.404 . S
C1061 H1073 0.930 . S
C1062 C1058 1.524 . S
C1062 H1074 0.956 . S
C1062 H1075 0.961 . S
C1062 H1076 0.961 . S
C1063 C1060 1.539 . S
C1063 H1077 0.958 . S
C1063 H1078 0.961 . S
C1063 H1079 0.960 1_565 S
H1064 C1048 0.931 . S
H1065 C1053 0.929 . S
H1066 C1054 0.960 . S
H1067 C1054 0.962 . S
H1068 C1054 0.960 . S
H1069 C1055 0.961 . S
H1070 C1055 0.961 1_565 S
H1071 C1055 0.961 . S
H1072 C1056 0.931 . S
H1073 C1061 0.930 . S
H1074 C1062 0.956 . S
H1075 C1062 0.961 . S
H1076 C1062 0.961 . S
H1077 C1063 0.958 . S
H1078 C1063 0.961 . S
H1079 C1063 0.960 1_545 S
C505 C403 1.148 . S
C513 C58 1.051 . S
C537 C487 1.093 . S
C545 C142 1.034 . S
C569 C67 1.092 . S
C577 C226 1.020 . S
C601 C151 1.166 . S
C609 C310 1.045 . S
C633 C235 1.183 . S
C641 C394 0.991 . S
C665 C319 1.127 . S
C673 C478 1.052 . S
C697 C74 1.782 . S
C705 C326 1.811 . S
C729 C410 1.781 . S
C737 C158 1.805 . S
C761 C494 1.790 . S
C769 C242 1.800 . S
C793 C231 1.790 . S
C801 C483 1.791 . S
C825 C63 1.824 . S
C833 C315 1.806 . S
C857 C399 1.802 . S
C865 C147 1.814 . S
C889 C476 1.269 . S
C897 C70 1.190 . S
C921 C154 1.193 . S
C929 C56 1.228 . S
C953 C238 1.157 . S
C961 C140 1.244 . S
C985 C224 1.190 . S
C993 C322 1.223 . S
C1017 C406 1.259 1_655 S
C1025 C308 1.204 . S
C1049 C490 1.157 . S
C1057 C392 1.243 . S
