# Generated by pormake.
# Topology uol, (4)-cn, num edge types: 1
# Building blocks:
#     Node 0, Type 0, BuildingBlock: ESEHIV_clean_sbu_0, # of connection points: 4
#     Node 1, Type 0, BuildingBlock: ESEHIV_clean_sbu_0, # of connection points: 4
#     Node 2, Type 0, BuildingBlock: ESEHIV_clean_sbu_0, # of connection points: 4
#     Node 3, Type 0, BuildingBlock: ESEHIV_clean_sbu_0, # of connection points: 4
#     Node 4, Type 0, BuildingBlock: ESEHIV_clean_sbu_0, # of connection points: 4
#     Node 5, Type 0, BuildingBlock: ESEHIV_clean_sbu_0, # of connection points: 4
#     Node 6, Type 0, BuildingBlock: ESEHIV_clean_sbu_0, # of connection points: 4
#     Node 7, Type 0, BuildingBlock: ESEHIV_clean_sbu_0, # of connection points: 4
#     Node 8, Type 0, BuildingBlock: ESEHIV_clean_sbu_0, # of connection points: 4
#     Node 9, Type 0, BuildingBlock: ESEHIV_clean_sbu_0, # of connection points: 4
#     Node 10, Type 0, BuildingBlock: ESEHIV_clean_sbu_0, # of connection points: 4
#     Node 11, Type 0, BuildingBlock: ESEHIV_clean_sbu_0, # of connection points: 4
#     Edge 12, Type (0, 0), BuildingBlock: XUDNAN_clean_linker_2, # of connection points: 2
#     Edge 13, Type (0, 0), BuildingBlock: XUDNAN_clean_linker_2, # of connection points: 2
#     Edge 14, Type (0, 0), BuildingBlock: XUDNAN_clean_linker_2, # of connection points: 2
#     Edge 15, Type (0, 0), BuildingBlock: XUDNAN_clean_linker_2, # of connection points: 2
#     Edge 16, Type (0, 0), BuildingBlock: XUDNAN_clean_linker_2, # of connection points: 2
#     Edge 17, Type (0, 0), BuildingBlock: XUDNAN_clean_linker_2, # of connection points: 2
#     Edge 18, Type (0, 0), BuildingBlock: XUDNAN_clean_linker_2, # of connection points: 2
#     Edge 19, Type (0, 0), BuildingBlock: XUDNAN_clean_linker_2, # of connection points: 2
#     Edge 20, Type (0, 0), BuildingBlock: XUDNAN_clean_linker_2, # of connection points: 2
#     Edge 21, Type (0, 0), BuildingBlock: XUDNAN_clean_linker_2, # of connection points: 2
#     Edge 22, Type (0, 0), BuildingBlock: XUDNAN_clean_linker_2, # of connection points: 2
#     Edge 23, Type (0, 0), BuildingBlock: XUDNAN_clean_linker_2, # of connection points: 2
#     Edge 24, Type (0, 0), BuildingBlock: XUDNAN_clean_linker_2, # of connection points: 2
#     Edge 25, Type (0, 0), BuildingBlock: XUDNAN_clean_linker_2, # of connection points: 2
#     Edge 26, Type (0, 0), BuildingBlock: XUDNAN_clean_linker_2, # of connection points: 2
#     Edge 27, Type (0, 0), BuildingBlock: XUDNAN_clean_linker_2, # of connection points: 2
#     Edge 28, Type (0, 0), BuildingBlock: XUDNAN_clean_linker_2, # of connection points: 2
#     Edge 29, Type (0, 0), BuildingBlock: XUDNAN_clean_linker_2, # of connection points: 2
#     Edge 30, Type (0, 0), BuildingBlock: XUDNAN_clean_linker_2, # of connection points: 2
#     Edge 31, Type (0, 0), BuildingBlock: XUDNAN_clean_linker_2, # of connection points: 2
#     Edge 32, Type (0, 0), BuildingBlock: XUDNAN_clean_linker_2, # of connection points: 2
#     Edge 33, Type (0, 0), BuildingBlock: XUDNAN_clean_linker_2, # of connection points: 2
#     Edge 34, Type (0, 0), BuildingBlock: XUDNAN_clean_linker_2, # of connection points: 2
#     Edge 35, Type (0, 0), BuildingBlock: XUDNAN_clean_linker_2, # of connection points: 2
# Relax obj value: 0.152
# Max RMSD: 0.225
# Mean RMSD: 0.225
data_MOF--net-uol--node1-ESEHIV_clean_sbu_0--edge1-XUDNAN_clean_linker_2
_symmetry_space_group_name_H-M    P1
_symmetry_Int_Tables_number       1
_symmetry_cell_setting            triclinic
loop_
_symmetry_equiv_pos_as_xyz
'x, y, z'
_cell_length_a     39.560572
_cell_length_b     39.599349
_cell_length_c     57.616421
_cell_angle_alpha  90.080774
_cell_angle_beta   89.876564
_cell_angle_gamma 120.16871
loop_
_atom_site_label
_atom_site_type_symbol
_atom_site_fract_x
_atom_site_fract_y
_atom_site_fract_z
_atom_type_partial_charge
Cu0 Cu 0.13912 0.34778 0.11145 0.0
N1 N 0.17241 0.35433 0.13605 0.0
N2 N 0.20942 0.34371 0.16073 0.0
C3 C 0.1843 0.32946 0.14272 0.0
C4 C 0.21314 0.37873 0.16569 0.0
C5 C 0.19031 0.38524 0.15038 0.0
O6 O 0.15331 0.32651 0.08487 0.0
C7 C 0.07583 0.32215 0.14144 0.0
O8 O 0.09975 0.35615 0.15092 0.0
H9 H 0.17489 0.30162 0.13437 0.0
H10 H 0.18732 0.4109 0.14955 0.0
N11 N 0.14772 0.39724 0.1034 0.0
N12 N 0.1442 0.45154 0.10005 0.0
C13 C 0.12447 0.41304 0.10527 0.0
C14 C 0.18278 0.42665 0.09655 0.0
C15 C 0.18074 0.46006 0.09453 0.0
C16 C 0.18941 0.33878 0.08092 0.0
O17 O 0.21566 0.36439 0.09517 0.0
H18 H 0.0945 0.39728 0.11132 0.0
H19 H 0.20862 0.42441 0.09404 0.0
O20 O 0.08614 0.31289 0.12263 0.0
H21 H 0.23182 0.39869 0.17899 0.0
H22 H 0.20451 0.4887 0.0898 0.0
Cu23 Cu 0.80546 0.12856 0.28537 0.0
N24 N 0.8329 0.15962 0.3107 0.0
N25 N 0.88145 0.19353 0.3357 0.0
C26 C 0.86911 0.16889 0.3174 0.0
C27 C 0.85161 0.19957 0.34086 0.0
C28 C 0.82171 0.17868 0.32534 0.0
O29 O 0.8421 0.14194 0.25934 0.0
C30 C 0.7622 0.0638 0.31373 0.0
O31 O 0.75419 0.08872 0.32385 0.0
H32 H 0.88622 0.1582 0.30875 0.0
H33 H 0.79406 0.17799 0.32448 0.0
N34 N 0.76714 0.14071 0.27668 0.0
N35 N 0.7115 0.14178 0.27213 0.0
C36 C 0.72796 0.12108 0.27988 0.0
C37 C 0.77532 0.17444 0.26636 0.0
C38 C 0.74131 0.1752 0.26354 0.0
C39 C 0.86816 0.17769 0.25631 0.0
O40 O 0.87001 0.20394 0.27101 0.0
H41 H 0.712 0.09278 0.28815 0.0
H42 H 0.80417 0.19727 0.26139 0.0
O43 O 0.78316 0.07443 0.29542 0.0
H44 H 0.85185 0.21873 0.35435 0.0
H45 H 0.73873 0.19858 0.25563 0.0
Cu46 Cu 0.68155 0.80833 0.46355 0.0
N47 N 0.68843 0.84826 0.48394 0.0
N48 N 0.71027 0.90817 0.49833 0.0
C49 C 0.71241 0.88687 0.48066 0.0
C50 C 0.68405 0.88197 0.51335 0.0
C51 C 0.67048 0.84508 0.50438 0.0
O52 O 0.69574 0.83199 0.43276 0.0
C53 C 0.71465 0.77933 0.49492 0.0
O54 O 0.68884 0.78044 0.50877 0.0
H55 H 0.73114 0.89907 0.46562 0.0
H56 H 0.64869 0.81787 0.51212 0.0
N57 N 0.62891 0.76855 0.46387 0.0
N58 N 0.57312 0.71154 0.45944 0.0
C59 C 0.61262 0.73072 0.45744 0.0
C60 C 0.59881 0.7733 0.47018 0.0
C61 C 0.56457 0.73839 0.46755 0.0
C62 C 0.67875 0.85018 0.4257 0.0
O63 O 0.65097 0.84944 0.43861 0.0
H64 H 0.6293 0.71786 0.45093 0.0
H65 H 0.60153 0.80049 0.47607 0.0
O66 O 0.71569 0.78878 0.47368 0.0
H67 H 0.67469 0.889 0.52941 0.0
H68 H 0.53559 0.73325 0.47144 0.0
Cu69 Cu 0.88508 0.66269 0.62027 0.0
N70 N 0.84828 0.65989 0.64189 0.0
N71 N 0.8026 0.6697 0.65832 0.0
C72 C 0.82149 0.67087 0.63852 0.0
C73 C 0.81756 0.65658 0.67471 0.0
C74 C 0.84556 0.65036 0.66449 0.0
O75 O 0.88059 0.68843 0.5925 0.0
C76 C 0.94671 0.71835 0.6483 0.0
O77 O 0.92047 0.72809 0.65371 0.0
H78 H 0.81721 0.68132 0.6221 0.0
H79 H 0.86383 0.64113 0.67311 0.0
N80 N 0.87021 0.61156 0.61148 0.0
N81 N 0.86159 0.55141 0.60802 0.0
C82 C 0.88335 0.58724 0.6177 0.0
C83 C 0.83964 0.59049 0.59739 0.0
C84 C 0.83423 0.55358 0.59522 0.0
C85 C 0.88091 0.72072 0.59309 0.0
O86 O 0.88921 0.74032 0.61266 0.0
H87 H 0.90742 0.59519 0.62954 0.0
H88 H 0.82207 0.60125 0.58951 0.0
O89 O 0.93772 0.69076 0.63376 0.0
H90 H 0.80959 0.65264 0.69289 0.0
H91 H 0.81181 0.53005 0.585 0.0
Cu92 Cu 0.24373 0.89628 0.776 0.0
N93 N 0.22289 0.85969 0.79995 0.0
N94 N 0.1753 0.812 0.82083 0.0
C95 C 0.1873 0.82738 0.7995 0.0
C96 C 0.20459 0.83527 0.83533 0.0
C97 C 0.23416 0.86457 0.82233 0.0
O98 O 0.20921 0.87479 0.74918 0.0
C99 C 0.22914 0.94881 0.80309 0.0
O100 O 0.20006 0.91709 0.81222 0.0
H101 H 0.16896 0.81745 0.78422 0.0
H102 H 0.26039 0.88954 0.82897 0.0
N103 N 0.29388 0.90708 0.76754 0.0
N104 N 0.35097 0.90853 0.76401 0.0
C105 C 0.31417 0.88897 0.77274 0.0
C106 C 0.31851 0.93868 0.75506 0.0
C107 C 0.3536 0.93971 0.75287 0.0
C108 C 0.17558 0.87166 0.74841 0.0
O109 O 0.16455 0.88579 0.76559 0.0
H110 H 0.30265 0.86277 0.7832 0.0
H111 H 0.31146 0.95987 0.74829 0.0
O112 O 0.24922 0.9457 0.78676 0.0
H113 H 0.20369 0.83257 0.85404 0.0
H114 H 0.37912 0.96172 0.74371 0.0
Cu115 Cu 0.35284 0.2309 0.93879 0.0
N116 N 0.3484 0.19707 0.96268 0.0
N117 N 0.33768 0.14345 0.98165 0.0
C118 C 0.34272 0.16069 0.96072 0.0
C119 C 0.3408 0.17017 0.99733 0.0
C120 C 0.3475 0.2032 0.9856 0.0
O121 O 0.33393 0.20074 0.91022 0.0
C122 C 0.33325 0.27964 0.96407 0.0
O123 O 0.36907 0.29425 0.97193 0.0
H124 H 0.34068 0.14658 0.94427 0.0
H125 H 0.35051 0.22944 0.9933 0.0
N126 N 0.40603 0.26715 0.935 0.0
N127 N 0.46434 0.32043 0.92881 0.0
C128 C 0.42537 0.30606 0.93103 0.0
C129 C 0.43362 0.25684 0.93533 0.0
C130 C 0.46945 0.28945 0.93154 0.0
C131 C 0.30142 0.16883 0.90894 0.0
O132 O 0.27799 0.15703 0.92704 0.0
H133 H 0.41122 0.32331 0.9295 0.0
H134 H 0.42789 0.22741 0.93813 0.0
O135 O 0.3215 0.25401 0.94806 0.0
H136 H 0.33791 0.16597 1.01595 0.0
H137 H 0.49726 0.29035 0.93118 0.0
Cu138 Cu 0.69207 0.89842 0.74992 0.0
N139 N 0.6739 0.85958 0.72717 0.0
N140 N 0.6732 0.81341 0.7044 0.0
C141 C 0.69081 0.83823 0.72226 0.0
C142 C 0.64413 0.81972 0.69769 0.0
C143 C 0.6447 0.84831 0.71173 0.0
O144 O 0.7122 0.8814 0.77549 0.0
C145 C 0.72557 0.96314 0.72022 0.0
O146 O 0.68884 0.94822 0.71401 0.0
H147 H 0.71636 0.84182 0.7313 0.0
H148 H 0.62572 0.86052 0.71043 0.0
N149 N 0.65354 0.90865 0.76107 0.0
N150 N 0.59812 0.90938 0.76788 0.0
C151 C 0.61443 0.89007 0.75771 0.0
C152 C 0.66193 0.94022 0.77396 0.0
C153 C 0.62803 0.94081 0.77816 0.0
C154 C 0.69239 0.84629 0.78269 0.0
O155 O 0.65799 0.82303 0.77344 0.0
H156 H 0.59845 0.86368 0.74757 0.0
H157 H 0.69101 0.96175 0.77958 0.0
O158 O 0.73393 0.94613 0.73607 0.0
H159 H 0.62396 0.80495 0.68359 0.0
H160 H 0.62563 0.96282 0.78801 0.0
Cu161 Cu 0.81378 0.66382 0.90279 0.0
N162 N 0.84719 0.66499 0.87943 0.0
N163 N 0.89976 0.67341 0.85986 0.0
C164 C 0.88617 0.67944 0.88008 0.0
C165 C 0.86808 0.65452 0.84606 0.0
C166 C 0.83583 0.64931 0.85817 0.0
O167 O 0.84205 0.67832 0.93206 0.0
C168 C 0.77133 0.69104 0.87721 0.0
O169 O 0.75646 0.65662 0.86728 0.0
H170 H 0.90403 0.69328 0.89519 0.0
H171 H 0.80602 0.63469 0.85198 0.0
N172 N 0.77337 0.61192 0.90543 0.0
N173 N 0.71596 0.55626 0.9085 0.0
C174 C 0.73424 0.5958 0.90778 0.0
C175 C 0.7799 0.58176 0.90494 0.0
C176 C 0.74481 0.54758 0.90683 0.0
C177 C 0.87133 0.71193 0.93614 0.0
O178 O 0.88216 0.73954 0.92044 0.0
H179 H 0.71954 0.61259 0.90856 0.0
H180 H 0.80846 0.58459 0.90329 0.0
O181 O 0.79544 0.69943 0.89386 0.0
H182 H 0.86815 0.64538 0.82836 0.0
H183 H 0.741 0.51855 0.90727 0.0
Cu184 Cu 0.14239 0.79264 0.07509 0.0
N185 N 0.17534 0.8217 0.05081 0.0
N186 N 0.21691 0.87119 0.02829 0.0
C187 C 0.19929 0.86059 0.04928 0.0
C188 C 0.20366 0.83751 0.01634 0.0
C189 C 0.17809 0.80711 0.03028 0.0
O190 O 0.15697 0.82396 0.10332 0.0
C191 C 0.08035 0.79265 0.05141 0.0
O192 O 0.1077 0.82856 0.04653 0.0
H193 H 0.20329 0.88063 0.06318 0.0
H194 H 0.16179 0.77652 0.02562 0.0
N195 N 0.15295 0.7526 0.0807 0.0
N196 N 0.15007 0.69588 0.08823 0.0
C197 C 0.12926 0.71385 0.08396 0.0
C198 C 0.18957 0.75914 0.0828 0.0
C199 C 0.18796 0.72441 0.08738 0.0
C200 C 0.15585 0.85509 0.10693 0.0
O201 O 0.14103 0.86765 0.09105 0.0
H202 H 0.09767 0.69934 0.08354 0.0
H203 H 0.21569 0.78746 0.08108 0.0
O204 O 0.08847 0.77224 0.06492 0.0
H205 H 0.2107 0.83501 0.99849 0.0
H206 H 0.21292 0.72043 0.08953 0.0
Cu207 Cu 0.35939 0.12545 0.24331 0.0
N208 N 0.35399 0.15737 0.22163 0.0
N209 N 0.33726 0.19829 0.20585 0.0
C210 C 0.33759 0.17955 0.22529 0.0
C211 C 0.35387 0.18725 0.18926 0.0
C212 C 0.36419 0.16198 0.19907 0.0
O213 O 0.34531 0.13732 0.27353 0.0
C214 C 0.2937 0.06161 0.22299 0.0
O215 O 0.28145 0.08685 0.22186 0.0
H216 H 0.32512 0.181 0.24173 0.0
H217 H 0.37795 0.14774 0.1904 0.0
N218 N 0.41198 0.13885 0.24333 0.0
N219 N 0.46867 0.14067 0.24943 0.0
C220 C 0.42938 0.11985 0.25221 0.0
C221 C 0.44114 0.17236 0.23454 0.0
C222 C 0.47599 0.17359 0.23827 0.0
C223 C 0.36546 0.1726 0.28045 0.0
O224 O 0.39542 0.19738 0.26782 0.0
H225 H 0.41373 0.09191 0.26093 0.0
H226 H 0.43734 0.19468 0.22622 0.0
O227 O 0.32598 0.0715 0.23316 0.0
H228 H 0.35843 0.19687 0.17137 0.0
H229 H 0.50456 0.19688 0.23299 0.0
Cu230 Cu 0.25626 0.34811 0.414 0.0
N231 N 0.21646 0.33709 0.39271 0.0
N232 N 0.15691 0.31572 0.37792 0.0
C233 C 0.17785 0.31921 0.39717 0.0
C234 C 0.18344 0.33176 0.36065 0.0
C235 C 0.22012 0.34486 0.36983 0.0
O236 O 0.2318 0.33519 0.4446 0.0
C237 C 0.30044 0.32415 0.38777 0.0
O238 O 0.31228 0.35788 0.3775 0.0
H239 H 0.16534 0.30847 0.41414 0.0
H240 H 0.24758 0.35935 0.36051 0.0
N241 N 0.29342 0.4016 0.41221 0.0
N242 N 0.3459 0.46101 0.4173 0.0
C243 C 0.32898 0.4224 0.42222 0.0
C244 C 0.28793 0.42787 0.40057 0.0
C245 C 0.32006 0.4643 0.40361 0.0
C246 C 0.21526 0.35392 0.45155 0.0
O247 O 0.21841 0.38279 0.43873 0.0
H248 H 0.3417 0.40966 0.43328 0.0
H249 H 0.262 0.42107 0.39077 0.0
O250 O 0.27781 0.31515 0.40527 0.0
H251 H 0.17696 0.33447 0.34274 0.0
H252 H 0.32407 0.49118 0.3962 0.0
Cu253 Cu 0.93651 0.25018 0.59176 0.0
N254 N 0.8992 0.22796 0.56828 0.0
N255 N 0.85671 0.18216 0.54413 0.0
C256 C 0.8795 0.18968 0.56302 0.0
C257 C 0.86244 0.2172 0.53716 0.0
C258 C 0.88869 0.24544 0.55213 0.0
O259 O 0.91979 0.2125 0.61713 0.0
C260 C 1.00121 0.28498 0.56238 0.0
O261 O 0.98383 0.3044 0.55614 0.0
H262 H 0.88298 0.16798 0.57242 0.0
H263 H 0.90003 0.27657 0.55098 0.0
N264 N 0.94215 0.29764 0.60218 0.0
N265 N 0.93258 0.34792 0.6092 0.0
C266 C 0.9171 0.31126 0.60052 0.0
C267 C 0.97436 0.32644 0.61235 0.0
C268 C 0.96861 0.3574 0.61667 0.0
C269 C 0.88426 0.19581 0.6238 0.0
O270 O 0.86076 0.20634 0.61435 0.0
H271 H 0.88848 0.29492 0.59266 0.0
H272 H 1.00042 0.32508 0.61613 0.0
O273 O 0.98593 0.25971 0.57852 0.0
H274 H 0.84892 0.22212 0.52223 0.0
H275 H 0.98934 0.38466 0.62487 0.0
H276 H 0.18626 0.66575 0.11336 0.0
H277 H 0.08269 0.63332 0.07229 0.0
H278 H 0.06384 0.56359 0.07576 0.0
H279 H 0.21085 0.60369 0.08677 0.0
H280 H 0.22923 0.59263 0.11253 0.0
H281 H 0.23017 0.63833 0.11032 0.0
H282 H 0.19064 0.62336 0.14863 0.0
H283 H 0.18959 0.57746 0.15098 0.0
H284 H 0.14456 0.57848 0.15136 0.0
H285 H 0.06133 0.49772 0.07989 0.0
H286 H 0.077 0.44437 0.08296 0.0
H287 H 0.18332 0.52225 0.11984 0.0
C288 C 0.15932 0.64405 0.10531 0.0
C289 C 0.13605 0.65504 0.09246 0.0
C290 C 0.10079 0.62557 0.08243 0.0
C291 C 0.08991 0.5859 0.08429 0.0
C292 C 0.11441 0.57627 0.09646 0.0
C293 C 0.1483 0.6047 0.1069 0.0
C294 C 0.17189 0.58789 0.117 0.0
C295 C 0.21293 0.60674 0.10599 0.0
C296 C 0.17429 0.59204 0.14357 0.0
C297 C 0.14691 0.54572 0.10983 0.0
C298 C 0.11338 0.53912 0.09844 0.0
C299 C 0.08721 0.50253 0.08908 0.0
C300 C 0.09617 0.4724 0.09094 0.0
C301 C 0.13128 0.47948 0.10164 0.0
C302 C 0.15625 0.51625 0.11164 0.0
H303 H 0.68433 0.1919 0.27646 0.0
H304 H 0.647 0.06912 0.26929 0.0
H305 H 0.57802 0.05362 0.26651 0.0
H306 H 0.59931 0.17955 0.30971 0.0
H307 H 0.59956 0.21987 0.29506 0.0
H308 H 0.6447 0.21991 0.29932 0.0
H309 H 0.65826 0.22897 0.25505 0.0
H310 H 0.61322 0.22882 0.25065 0.0
H311 H 0.62224 0.1945 0.23519 0.0
H312 H 0.51331 0.05332 0.26056 0.0
H313 H 0.46072 0.06829 0.25199 0.0
H314 H 0.54255 0.19132 0.26307 0.0
C315 C 0.66169 0.16167 0.27449 0.0
C316 C 0.67104 0.13172 0.27294 0.0
C317 C 0.64043 0.09248 0.2707 0.0
C318 C 0.60123 0.08348 0.26905 0.0
C319 C 0.59321 0.11403 0.26999 0.0
C320 C 0.62275 0.15231 0.27287 0.0
C321 C 0.60734 0.18031 0.27198 0.0
C322 C 0.61307 0.20113 0.29541 0.0
C323 C 0.62639 0.20987 0.25203 0.0
C324 C 0.56463 0.15208 0.26732 0.0
C325 C 0.55668 0.11388 0.26653 0.0
C326 C 0.51924 0.08311 0.26142 0.0
C327 C 0.48951 0.09182 0.25665 0.0
C328 C 0.49761 0.13097 0.25675 0.0
C329 C 0.53552 0.16115 0.26262 0.0
H330 H 0.49732 0.68212 0.44673 0.0
H331 H 0.58534 0.64948 0.45874 0.0
H332 H 0.53646 0.58058 0.44981 0.0
H333 H 0.41708 0.59734 0.47262 0.0
H334 H 0.3821 0.59506 0.45176 0.0
H335 H 0.42429 0.64137 0.45889 0.0
H336 H 0.44359 0.65339 0.41538 0.0
H337 H 0.40144 0.60715 0.40811 0.0
H338 H 0.4495 0.61754 0.39937 0.0
H339 H 0.47585 0.514 0.43997 0.0
H340 H 0.41145 0.45818 0.42847 0.0
H341 H 0.36476 0.5363 0.424 0.0
C342 C 0.50644 0.6606 0.44774 0.0
C343 C 0.54527 0.67137 0.45363 0.0
C344 C 0.55591 0.64211 0.45415 0.0
C345 C 0.52824 0.60283 0.44923 0.0
C346 C 0.49007 0.59328 0.44376 0.0
C347 C 0.47936 0.62153 0.44291 0.0
C348 C 0.43681 0.60426 0.43641 0.0
C349 C 0.41372 0.60984 0.45609 0.0
C350 C 0.43261 0.62161 0.41346 0.0
C351 C 0.42504 0.56178 0.43364 0.0
C352 C 0.45594 0.55575 0.43802 0.0
C353 C 0.45154 0.51853 0.43651 0.0
C354 C 0.41481 0.48693 0.4301 0.0
C355 C 0.38304 0.49279 0.42515 0.0
C356 C 0.38848 0.53079 0.42724 0.0
H357 H 0.92849 0.54776 0.61194 0.0
H358 H 0.80206 0.47689 0.61016 0.0
H359 H 0.80662 0.41708 0.61139 0.0
H360 H 0.94689 0.48688 0.57502 0.0
H361 H 0.98948 0.49369 0.59043 0.0
H362 H 0.97656 0.53127 0.59108 0.0
H363 H 0.97525 0.52935 0.63603 0.0
H364 H 0.98839 0.49189 0.63551 0.0
H365 H 0.945 0.4836 0.65071 0.0
H366 H 0.82455 0.36484 0.61082 0.0
H367 H 0.85487 0.32358 0.60947 0.0
H368 H 0.96988 0.4277 0.61096 0.0
C369 C 0.90185 0.51963 0.61226 0.0
C370 C 0.8649 0.51698 0.61092 0.0
C371 C 0.83066 0.47961 0.61094 0.0
C372 C 0.83294 0.44545 0.61174 0.0
C373 C 0.86973 0.44897 0.61251 0.0
C374 C 0.90362 0.48504 0.61288 0.0
C375 C 0.93944 0.4804 0.61279 0.0
C376 C 0.96456 0.49917 0.59104 0.0
C377 C 0.96343 0.49731 0.63509 0.0
C378 C 0.92032 0.43619 0.61214 0.0
C379 C 0.8801 0.41867 0.61205 0.0
C380 C 0.85606 0.37821 0.61096 0.0
C381 C 0.87359 0.35498 0.61002 0.0
C382 C 0.91482 0.37216 0.61013 0.0
C383 C 0.93832 0.41343 0.61121 0.0
H384 H 0.5722 0.96103 0.76852 0.0
H385 H 0.53272 0.83732 0.76523 0.0
H386 H 0.46384 0.82252 0.76514 0.0
H387 H 0.49688 0.95425 0.80648 0.0
H388 H 0.49346 0.99271 0.79197 0.0
H389 H 0.53906 0.99286 0.79201 0.0
H390 H 0.5409 0.99564 0.74704 0.0
H391 H 0.4954 0.99563 0.74687 0.0
H392 H 0.4999 0.959 0.73079 0.0
H393 H 0.39836 0.82217 0.76633 0.0
H394 H 0.34405 0.83655 0.76546 0.0
H395 H 0.42837 0.96046 0.76757 0.0
C396 C 0.54915 0.93076 0.76802 0.0
C397 C 0.55789 0.90029 0.76711 0.0
C398 C 0.52673 0.86113 0.76586 0.0
C399 C 0.48754 0.85249 0.76595 0.0
C400 C 0.48004 0.88337 0.76713 0.0
C401 C 0.51016 0.92173 0.76794 0.0
C402 C 0.49485 0.94987 0.76849 0.0
C403 C 0.50677 0.97382 0.79108 0.0
C404 C 0.50857 0.9766 0.74702 0.0
C405 C 0.45132 0.92149 0.7678 0.0
C406 C 0.44311 0.8832 0.76724 0.0
C407 C 0.4046 0.85208 0.76671 0.0
C408 C 0.37393 0.86045 0.76635 0.0
C409 C 0.38198 0.89959 0.76627 0.0
C410 C 0.42125 0.93026 0.76727 0.0
H411 H 0.53165 0.34378 0.90522 0.0
H412 H 0.46686 0.38712 0.94351 0.0
H413 H 0.52304 0.45468 0.93987 0.0
H414 H 0.62197 0.40349 0.93106 0.0
H415 H 0.65019 0.41043 0.90507 0.0
H416 H 0.60347 0.36679 0.90861 0.0
H417 H 0.57974 0.38082 0.86981 0.0
H418 H 0.62656 0.42449 0.86608 0.0
H419 H 0.58243 0.42722 0.86563 0.0
H420 H 0.59017 0.51723 0.93491 0.0
H421 H 0.65973 0.56739 0.9287 0.0
H422 H 0.6782 0.48129 0.89326 0.0
C423 C 0.52908 0.36748 0.91269 0.0
C424 C 0.49494 0.36018 0.92474 0.0
C425 C 0.49261 0.3921 0.93402 0.0
C426 C 0.52443 0.43052 0.93209 0.0
C427 C 0.55812 0.43649 0.92057 0.0
C428 C 0.5603 0.40571 0.91083 0.0
C429 C 0.60007 0.41906 0.90029 0.0
C430 C 0.62009 0.39874 0.91196 0.0
C431 C 0.597 0.41251 0.87388 0.0
C432 C 0.62051 0.46205 0.90616 0.0
C433 C 0.59597 0.47186 0.91767 0.0
C434 C 0.60941 0.50984 0.92565 0.0
C435 C 0.64896 0.53821 0.92199 0.0
C436 C 0.67465 0.52836 0.91061 0.0
C437 C 0.65969 0.48985 0.9023 0.0
H438 H 0.30589 0.2101 0.16694 0.0
H439 H 0.33222 0.24399 0.23923 0.0
H440 H 0.3026 0.28568 0.23546 0.0
H441 H 0.32554 0.30449 0.14547 0.0
H442 H 0.28617 0.28347 0.12473 0.0
H443 H 0.31044 0.25719 0.13306 0.0
H444 H 0.24376 0.19786 0.14503 0.0
H445 H 0.21934 0.22406 0.13687 0.0
H446 H 0.21346 0.20456 0.16579 0.0
H447 H 0.26933 0.32304 0.22388 0.0
H448 H 0.23432 0.35289 0.20535 0.0
H449 H 0.23037 0.29481 0.14066 0.0
C450 C 0.30592 0.22669 0.18189 0.0
C451 C 0.32133 0.22374 0.20338 0.0
C452 C 0.32016 0.24542 0.22266 0.0
C453 C 0.3036 0.26935 0.22066 0.0
C454 C 0.28835 0.27128 0.19927 0.0
C455 C 0.2894 0.25058 0.18021 0.0
C456 C 0.27025 0.25709 0.15932 0.0
C457 C 0.29987 0.27674 0.13948 0.0
C458 C 0.23458 0.2186 0.15129 0.0
C459 C 0.25806 0.28451 0.16965 0.0
C460 C 0.26892 0.2925 0.19267 0.0
C461 C 0.26079 0.3171 0.20584 0.0
C462 C 0.24105 0.33403 0.19516 0.0
C463 C 0.22952 0.3261 0.1716 0.0
C464 C 0.23825 0.30099 0.15878 0.0
H465 H 0.9503 0.21134 0.3151 0.0
H466 H 0.89895 0.21727 0.38047 0.0
H467 H 0.96442 0.24948 0.39862 0.0
H468 H 1.02201 0.19059 0.33914 0.0
H469 H 0.05898 0.22007 0.31812 0.0
H470 H 1.00804 0.19728 0.3105 0.0
H471 H 1.01753 0.26472 0.29892 0.0
H472 H 0.06846 0.28777 0.3066 0.0
H473 H 0.03774 0.3041 0.3197 0.0
H474 H 0.03562 0.28098 0.40953 0.0
H475 H 0.10717 0.31023 0.41231 0.0
H476 H 0.11152 0.28284 0.33976 0.0
C477 C 0.9527 0.21894 0.3333 0.0
C478 C 0.91946 0.21162 0.34642 0.0
C479 C 0.92405 0.22286 0.37007 0.0
C480 C 0.96107 0.241 0.38054 0.0
C481 C 0.99321 0.24783 0.36707 0.0
C482 C 0.98938 0.23719 0.34396 0.0
C483 C 0.02858 0.24831 0.33321 0.0
C484 C 0.02944 0.21189 0.32476 0.0
C485 C 0.03866 0.27799 0.31344 0.0
C486 C 0.05509 0.26678 0.35392 0.0
C487 C 0.03414 0.26616 0.37329 0.0
C488 C 0.05231 0.2815 0.39449 0.0
C489 C 0.09298 0.29785 0.39593 0.0
C490 C 0.11509 0.29879 0.37627 0.0
C491 C 0.09565 0.28301 0.35504 0.0
H492 H 0.8204 0.11109 0.56502 0.0
H493 H 0.84044 0.16831 0.49816 0.0
H494 H 0.80351 0.10388 0.47902 0.0
H495 H 0.8317 0.0318 0.54623 0.0
H496 H 0.7938 0.99629 0.56481 0.0
H497 H 0.82034 0.0469 0.57327 0.0
H498 H 0.75532 0.0472 0.57735 0.0
H499 H 0.72847 0.99655 0.56895 0.0
H500 H 0.72203 0.03217 0.55315 0.0
H501 H 0.76764 0.0329 0.46703 0.0
H502 H 0.73225 0.96092 0.46336 0.0
H503 H 0.73514 0.95036 0.53814 0.0
C504 C 0.81701 0.11007 0.54636 0.0
C505 C 0.83338 0.14475 0.53307 0.0
C506 C 0.82782 0.14218 0.50871 0.0
C507 C 0.80709 0.1057 0.49768 0.0
C508 C 0.79179 0.0721 0.51129 0.0
C509 C 0.79619 0.07398 0.53513 0.0
C510 C 0.77716 0.03358 0.54579 0.0
C511 C 0.80757 0.02675 0.55825 0.0
C512 C 0.74376 0.027 0.56228 0.0
C513 C 0.76172 1.00861 0.52418 0.0
C514 C 0.77055 0.03135 0.50445 0.0
C515 C 0.76037 1.01481 0.48238 0.0
C516 C 0.74053 0.97395 0.48044 0.0
C517 C 0.73089 0.95009 0.50046 0.0
C518 C 0.74162 0.96783 0.52257 0.0
H519 H 0.7906 0.69976 0.69802 0.0
H520 H 0.75524 0.67439 0.62589 0.0
H521 H 0.71483 0.70528 0.63048 0.0
H522 H 0.6965 0.68392 0.72069 0.0
H523 H 0.71989 0.72346 0.74122 0.0
H524 H 0.74343 0.69647 0.73271 0.0
H525 H 0.80496 0.76102 0.72029 0.0
H526 H 0.7815 0.78809 0.72862 0.0
H527 H 0.80017 0.7924 0.69954 0.0
H528 H 0.68181 0.74307 0.64225 0.0
H529 H 0.65883 0.78449 0.66031 0.0
H530 H 0.71439 0.7834 0.725 0.0
C531 C 0.77364 0.69975 0.68332 0.0
C532 C 0.77612 0.68445 0.66159 0.0
C533 C 0.75414 0.68612 0.64266 0.0
C534 C 0.73089 0.70344 0.64513 0.0
C535 C 0.72971 0.71883 0.66667 0.0
C536 C 0.75032 0.71694 0.68548 0.0
C537 C 0.74572 0.73749 0.70642 0.0
C538 C 0.72515 0.7086 0.72644 0.0
C539 C 0.78545 0.77178 0.71416 0.0
C540 C 0.71985 0.7518 0.69633 0.0
C541 C 0.7107 0.74054 0.67344 0.0
C542 C 0.68839 0.75165 0.66026 0.0
C543 C 0.67531 0.77509 0.67072 0.0
C544 C 0.68472 0.78738 0.69412 0.0
C545 C 0.70693 0.775 0.70704 0.0
H546 H 0.9667 0.73427 0.87759 0.0
H547 H 0.92329 0.63847 0.82833 0.0
H548 H 0.99067 0.66054 0.81563 0.0
H549 H 0.03951 0.80461 0.842 0.0
H550 H 0.07508 0.82844 0.86469 0.0
H551 H 0.02376 0.80312 0.87156 0.0
H552 H 0.03437 0.76096 0.90175 0.0
H553 H 0.08584 0.78616 0.89496 0.0
H554 H 0.05747 0.73367 0.89291 0.0
H555 H 0.06131 0.69653 0.80524 0.0
H556 H 0.13144 0.74387 0.79857 0.0
H557 H 0.13027 0.81473 0.85552 0.0
C558 C 0.97141 0.71741 0.86453 0.0
C559 C 0.93953 0.68469 0.8539 0.0
C560 C 0.94705 0.66393 0.83651 0.0
C561 C 0.98531 0.67603 0.82931 0.0
C562 C 1.01594 0.70877 0.83981 0.0
C563 C 1.00955 0.72905 0.85716 0.0
C564 C 0.04757 0.76463 0.86459 0.0
C565 C 0.04639 0.80242 0.86045 0.0
C566 C 0.05685 0.76112 0.89007 0.0
C567 C 0.07611 0.76167 0.84826 0.0
C568 C 0.0572 0.72907 0.8342 0.0
C569 C 0.07663 0.72171 0.81645 0.0
C570 C 0.11631 0.74866 0.81275 0.0
C571 C 0.13619 0.78232 0.82681 0.0
C572 C 0.11595 0.78853 0.84503 0.0
H573 H 0.2211 0.93813 0.04398 0.0
H574 H 0.26904 0.89323 0.99265 0.0
H575 H 0.30777 0.95924 0.97596 0.0
H576 H 0.2112 1.00312 1.00748 0.0
H577 H 0.22501 0.04079 0.02906 0.0
H578 H 0.20288 0.99049 0.03783 0.0
H579 H 0.26194 1.00763 0.06458 0.0
H580 H 0.28425 0.0581 0.05597 0.0
H581 H 0.31067 0.03226 0.0526 0.0
H582 H 0.3378 0.02941 0.96321 0.0
H583 H 0.35852 0.09885 0.9564 0.0
H584 H 0.29215 0.09745 0.01676 0.0
C585 C 0.24032 0.94214 0.02957 0.0
C586 C 0.24183 0.91026 0.01964 0.0
C587 C 0.26688 0.91697 1.00041 0.0
C588 C 0.28924 0.95445 0.99089 0.0
C589 C 0.28653 0.98501 1.0009 0.0
C590 C 0.26294 0.97931 0.01994 0.0
C591 C 0.26416 0.01673 0.02698 0.0
C592 C 0.2234 1.01251 0.02522 0.0
C593 C 0.28129 0.02942 0.05149 0.0
C594 C 0.29166 0.04425 1.00869 0.0
C595 C 0.30431 0.02547 0.99382 0.0
C596 C 0.32843 0.04454 0.97489 0.0
C597 C 0.33985 0.08385 0.97108 0.0
C598 C 0.32722 0.10361 0.98615 0.0
C599 C 0.30301 0.08344 1.00525 0.0
H600 H 0.26418 0.35814 0.07031 0.0
H601 H 0.145 0.28999 0.0452 0.0
H602 H 0.16896 0.27005 1.01095 0.0
H603 H 0.31069 0.39265 1.01487 0.0
H604 H 0.35297 0.38923 0.02269 0.0
H605 H 0.32624 0.39845 0.04472 0.0
H606 H 0.31662 0.33813 0.06789 0.0
H607 H 0.34358 0.32893 0.04605 0.0
H608 H 0.29487 0.29118 0.05377 0.0
H609 H 0.20709 0.25683 0.97961 0.0
H610 H 0.25469 0.24926 0.95545 0.0
H611 H 0.34806 0.32709 1.00175 0.0
C612 C 0.24295 0.33911 0.05763 0.0
C613 C 0.20265 0.3257 0.06044 0.0
C614 C 0.176 0.30063 0.04343 0.0
C615 C 0.18938 0.28928 0.02389 0.0
C616 C 0.22945 0.30331 0.02164 0.0
C617 C 0.25573 0.32759 0.03817 0.0
C618 C 0.29712 0.33798 0.03226 0.0
C619 C 0.32329 0.3822 0.0284 0.0
C620 C 0.31402 0.32316 0.05111 0.0
C621 C 0.29022 0.31562 1.00983 0.0
C622 C 0.25108 0.29589 1.00386 0.0
C623 C 0.23779 0.27235 0.98411 0.0
C624 C 0.26509 0.26834 0.97043 0.0
C625 C 0.30521 0.28771 0.97659 0.0
C626 C 0.31774 0.31211 0.99637 0.0
H627 H 0.93001 0.25062 0.24885 0.0
H628 H 0.86842 0.13473 0.21842 0.0
H629 H 0.91353 0.15901 0.18463 0.0
H630 H 0.94754 0.30459 0.19637 0.0
H631 H 0.99526 0.34291 0.2052 0.0
H632 H 0.95827 0.31601 0.22672 0.0
H633 H 1.00478 0.29756 0.24757 0.0
H634 H 0.04203 0.32469 0.22625 0.0
H635 H 0.02621 0.27398 0.23139 0.0
H636 H 0.96649 0.1977 0.15375 0.0
H637 H 0.02297 0.24541 0.13022 0.0
H638 H 0.04784 0.33478 0.18187 0.0
C639 C 0.92582 0.23015 0.23514 0.0
C640 C 0.89554 0.19073 0.23628 0.0
C641 C 0.89144 0.16504 0.21795 0.0
C642 C 0.91685 0.17864 0.19867 0.0
C643 C 0.94619 0.21792 0.19804 0.0
C644 C 0.95077 0.24313 0.21594 0.0
C645 C 0.98463 0.28382 0.21154 0.0
C646 C 0.97057 0.31357 0.20985 0.0
C647 C 1.01628 0.29569 0.23029 0.0
C648 C 0.99857 0.27782 0.18828 0.0
C649 C 0.97613 0.23973 0.18064 0.0
C650 C 0.98415 0.22758 0.15961 0.0
C651 C 1.01621 0.25491 0.14631 0.0
C652 C 0.03987 0.29391 0.15412 0.0
C653 C 0.0304 0.3053 0.17528 0.0
H654 H 0.70956 0.02994 0.34896 0.0
H655 H 0.78841 1.01231 0.30488 0.0
H656 H 0.77323 0.95295 0.32733 0.0
H657 H 0.73427 1.00333 0.40137 0.0
H658 H 0.68537 0.97943 0.41305 0.0
H659 H 0.70021 0.01836 0.39236 0.0
H660 H 0.6422 0.9729 0.36568 0.0
H661 H 0.62703 0.93383 0.38638 0.0
H662 H 0.63638 0.92665 0.35667 0.0
H663 H 0.75356 0.89857 0.35765 0.0
H664 H 0.72843 0.85286 0.39104 0.0
H665 H 0.66142 0.90629 0.4137 0.0
C666 C 0.72326 1.01334 0.34375 0.0
C667 C 0.75018 0.0258 0.32513 0.0
C668 C 0.76749 1.00321 0.31898 0.0
C669 C 0.75913 0.96951 0.33169 0.0
C670 C 0.73305 0.95857 0.35031 0.0
C671 C 0.71506 0.97968 0.35609 0.0
C672 C 0.68915 0.96285 0.37722 0.0
C673 C 0.7031 0.99277 0.39717 0.0
C674 C 0.64614 0.94818 0.37111 0.0
C675 C 0.69575 0.9293 0.38276 0.0
C676 C 0.72118 0.92717 0.36714 0.0
C677 C 0.73318 0.89968 0.36974 0.0
C678 C 0.71884 0.87389 0.38878 0.0
C679 C 0.69261 0.87565 0.40486 0.0
C680 C 0.68087 0.90361 0.40155 0.0
H681 H 0.838 0.75677 0.59642 0.0
H682 H 0.88169 0.70578 0.54656 0.0
H683 H 0.84639 0.71801 0.51511 0.0
H684 H 0.74317 0.71299 0.57331 0.0
H685 H 0.73626 0.7538 0.57936 0.0
H686 H 0.76863 0.74539 0.59714 0.0
H687 H 0.82529 0.81538 0.5887 0.0
H688 H 0.79309 0.82431 0.57101 0.0
H689 H 0.8383 0.83125 0.55906 0.0
H690 H 0.80468 0.73544 0.48918 0.0
H691 H 0.75733 0.75197 0.47195 0.0
H692 H 0.73767 0.78599 0.53998 0.0
C693 C 0.84098 0.74908 0.57879 0.0
C694 C 0.86326 0.73114 0.57378 0.0
C695 C 0.86517 0.72007 0.55065 0.0
C696 C 0.84523 0.7269 0.53272 0.0
C697 C 0.823 0.74419 0.53833 0.0
C698 C 0.8206 0.75483 0.56088 0.0
C699 C 0.79236 0.76991 0.56285 0.0
C700 C 0.75807 0.74396 0.57912 0.0
C701 C 0.81354 0.81276 0.57087 0.0
C702 C 0.7791 0.76612 0.53789 0.0
C703 C 0.79744 0.75181 0.52387 0.0
C704 C 0.79008 0.74653 0.50005 0.0
C705 C 0.76322 0.75601 0.4904 0.0
C706 C 0.74357 0.76988 0.50465 0.0
C707 C 0.75182 0.77497 0.52866 0.0
H708 H 0.10218 0.86078 0.74141 0.0
H709 H 0.18504 0.83014 0.71316 0.0
H710 H 0.1363 0.78841 0.68377 0.0
H711 H 1.01767 0.7675 0.73531 0.0
H712 H 0.98599 0.78611 0.72748 0.0
H713 H 0.02803 0.81482 0.7455 0.0
H714 H 0.05302 0.87238 0.71642 0.0
H715 H 1.01093 0.84392 0.69835 0.0
H716 H 0.05941 0.86434 0.68632 0.0
H717 H 0.07626 0.74691 0.65849 0.0
H718 H 1.01182 0.71207 0.63892 0.0
H719 H 0.96973 0.77133 0.68372 0.0
C720 C 0.11032 0.84564 0.72893 0.0
C721 C 0.14756 0.84886 0.72962 0.0
C722 C 0.1568 0.82833 0.71296 0.0
C723 C 0.12925 0.80446 0.69621 0.0
C724 C 0.09261 0.80154 0.69623 0.0
C725 C 0.08329 0.82186 0.71208 0.0
C726 C 0.0418 0.81341 0.70875 0.0
C727 C 1.01692 0.79432 0.73055 0.0
C728 C 0.04128 0.85073 0.70206 0.0
C729 C 0.02902 0.78488 0.68869 0.0
C730 C 0.05861 0.77828 0.68167 0.0
C731 C 0.05301 0.75214 0.66377 0.0
C732 C 1.01629 0.73241 0.65277 0.0
C733 C 0.98569 0.73903 0.65966 0.0
C734 C 0.99247 0.76572 0.67786 0.0
H735 H 0.24269 0.09251 0.90436 0.0
H736 H 0.34059 0.18609 0.86736 0.0
H737 H 0.32929 0.14118 0.83467 0.0
H738 H 0.26249 0.01866 0.88877 0.0
H739 H 0.21202 0.98085 0.88599 0.0
H740 H 0.22516 0.02128 0.90533 0.0
H741 H 0.17678 0.03688 0.8843 0.0
H742 H 0.16339 0.99637 0.86489 0.0
H743 H 0.18081 0.04464 0.85335 0.0
H744 H 0.31054 0.08455 0.80732 0.0
H745 H 0.28615 0.02091 0.78774 0.0
H746 H 0.2006 0.9644 0.84269 0.0
C747 C 0.26129 0.10385 0.88919 0.0
C748 C 0.29239 0.143 0.88839 0.0
C749 C 0.31647 0.15633 0.86836 0.0
C750 C 0.31024 0.13102 0.84968 0.0
C751 C 0.27975 0.09244 0.85121 0.0
C752 C 0.25559 0.07895 0.87044 0.0
C753 C 0.2265 0.0356 0.86845 0.0
C754 C 0.23189 1.01277 0.88831 0.0
C755 C 0.18437 0.02793 0.8677 0.0
C756 C 0.23849 0.02664 0.84529 0.0
C757 C 0.26906 0.05985 0.83553 0.0
C758 C 0.28631 0.05845 0.81468 0.0
C759 C 0.27225 0.02212 0.80368 0.0
C760 C 0.24127 0.98759 0.81355 0.0
C761 C 0.22396 0.99022 0.83449 0.0
H762 H 0.67029 0.76987 0.79014 0.0
H763 H 0.75174 0.88723 0.81396 0.0
H764 H 0.77885 0.86021 0.84241 0.0
H765 H 0.65163 0.7207 0.8454 0.0
H766 H 0.65021 0.67803 0.83326 0.0
H767 H 0.63614 0.70664 0.81581 0.0
H768 H 0.68716 0.71522 0.78464 0.0
H769 H 0.70143 0.68664 0.80193 0.0
H770 H 0.73759 0.73518 0.79288 0.0
H771 H 0.797 0.81948 0.8683 0.0
H772 H 0.80788 0.76961 0.88715 0.0
H773 H 0.71592 0.67969 0.84488 0.0
C774 C 0.69354 0.78992 0.80151 0.0
C775 C 0.70863 0.83066 0.80003 0.0
C776 C 0.73965 0.85592 0.81487 0.0
C777 C 0.75512 0.84081 0.83111 0.0
C778 C 0.73952 0.80043 0.8321 0.0
C779 C 0.70963 0.77542 0.81751 0.0
C780 C 0.69932 0.73343 0.82107 0.0
C781 C 0.6568 0.70822 0.82938 0.0
C782 C 0.70684 0.71665 0.79881 0.0
C783 C 0.72796 0.73856 0.84003 0.0
C784 C 0.7507 0.77733 0.84634 0.0
C785 C 0.77933 0.78905 0.86347 0.0
C786 C 0.78521 0.76048 0.87415 0.0
C787 C 0.76279 0.7207 0.86753 0.0
C788 C 0.73358 0.7098 0.85038 0.0
H789 H 0.94005 0.77783 0.94813 0.0
H790 H 0.85719 0.66072 0.9719 0.0
H791 H 0.8995 0.66992 1.00558 0.0
H792 H 0.02505 0.775 0.96225 0.0
H793 H 0.05273 0.82532 0.97132 0.0
H794 H 1.01444 0.81062 0.95017 0.0
H795 H 0.98094 0.83913 0.97591 0.0
H796 H 1.01922 0.85401 0.99715 0.0
H797 H 0.96887 0.82319 1.00561 0.0
H798 H 0.9537 0.69033 0.03526 0.0
H799 H 1.01457 0.72077 0.05849 0.0
H800 H 0.06086 0.82457 1.01545 0.0
C801 C 0.93042 0.7543 0.96059 0.0
C802 C 0.89515 0.71859 0.95736 0.0
C803 C 0.88399 0.68842 0.97399 0.0
C804 C 0.90784 0.69336 0.99322 0.0
C805 C 0.94271 0.72872 0.99568 0.0
C806 C 0.95385 0.75874 0.97987 0.0
C807 C 0.99352 0.7932 0.98586 0.0
C808 C 0.02317 0.80149 0.96624 0.0
C809 C 0.99043 0.82953 0.99147 0.0
C810 C 1.00322 0.77772 1.00734 0.0
C811 C 0.97356 0.74053 1.0128 0.0
C812 C 0.97691 0.71965 0.0313 0.0
C813 C 1.01158 0.73714 0.0444 0.0
C814 C 0.04241 0.77518 0.03897 0.0
C815 C 0.03772 0.79569 0.02033 0.0
H816 H 0.16057 0.92417 0.12032 0.0
H817 H 0.19504 0.84037 0.14098 0.0
H818 H 0.23121 0.88223 0.17422 0.0
H819 H 0.25007 1.00896 0.1335 0.0
H820 H 0.22828 0.03645 0.14422 0.0
H821 H 0.203 0.99872 0.12291 0.0
H822 H 0.1426 0.96472 0.15001 0.0
H823 H 0.16768 1.00244 0.17141 0.0
H824 H 0.14839 0.95193 0.17916 0.0
H825 H 0.26837 0.93608 0.20349 0.0
H826 H 0.30078 0.99626 0.22732 0.0
H827 H 0.24 0.0434 0.18843 0.0
C828 C 0.17524 0.91431 0.132 0.0
C829 C 0.17482 0.87886 0.12798 0.0
C830 C 0.19473 0.86729 0.14366 0.0
C831 C 0.21543 0.89091 0.16262 0.0
C832 C 0.21575 0.92592 0.16588 0.0
C833 C 0.19588 0.93742 0.15111 0.0
C834 C 0.2018 0.97695 0.15806 0.0
C835 C 0.22199 1.00703 0.13851 0.0
C836 C 0.16279 0.9738 0.16508 0.0
C837 C 0.2285 0.98611 0.17882 0.0
C838 C 0.2363 0.95638 0.18305 0.0
C839 C 0.26202 0.95931 0.20054 0.0
C840 C 0.28033 0.99359 0.21398 0.0
C841 C 0.27259 0.02433 0.20997 0.0
C842 C 0.24601 0.02016 0.19227 0.0
H843 H 0.38858 0.24841 0.29022 0.0
H844 H 0.31363 0.13048 0.31557 0.0
H845 H 0.2921 0.15672 0.34796 0.0
H846 H 0.41766 0.29766 0.34583 0.0
H847 H 0.41598 0.33977 0.33556 0.0
H848 H 0.42734 0.31165 0.31572 0.0
H849 H 0.37039 0.30171 0.28899 0.0
H850 H 0.35893 0.32986 0.30868 0.0
H851 H 0.32179 0.28099 0.30087 0.0
H852 H 0.27767 0.19698 0.3771 0.0
H853 H 0.26827 0.24609 0.39831 0.0
H854 H 0.35154 0.33657 0.35235 0.0
C855 C 0.3681 0.228 0.30276 0.0
C856 C 0.35315 0.18737 0.30054 0.0
C857 C 0.32565 0.16172 0.31703 0.0
C858 C 0.31337 0.1764 0.3355 0.0
C859 C 0.32866 0.21673 0.33708 0.0
C860 C 0.35526 0.24205 0.321 0.0
C861 C 0.36549 0.2838 0.32544 0.0
C862 C 0.40921 0.30974 0.33097 0.0
C863 C 0.35342 0.30002 0.30477 0.0
C864 C 0.34046 0.27823 0.34656 0.0
C865 C 0.31966 0.23946 0.35322 0.0
C866 C 0.29396 0.2274 0.37205 0.0
C867 C 0.28891 0.25555 0.38405 0.0
C868 C 0.3092 0.29525 0.37705 0.0
C869 C 0.33567 0.30655 0.35824 0.0
H870 H 0.16496 0.37876 0.46453 0.0
H871 H 0.20363 0.29777 0.48396 0.0
H872 H 0.15504 0.2729 0.51595 0.0
H873 H 0.14545 0.40078 0.52247 0.0
H874 H 0.10277 0.40248 0.51336 0.0
H875 H 0.14235 0.4153 0.49327 0.0
H876 H 0.09409 0.36351 0.46421 0.0
H877 H 0.05439 0.35042 0.48421 0.0
H878 H 0.0644 0.31352 0.47352 0.0
H879 H 0.09947 0.25531 0.54512 0.0
H880 H 0.04217 0.24606 0.56786 0.0
H881 H 0.04046 0.33815 0.52806 0.0
C882 C 0.16377 0.35621 0.47569 0.0
C883 C 0.18842 0.34047 0.47184 0.0
C884 C 0.18524 0.31046 0.48665 0.0
C885 C 0.15772 0.29617 0.50486 0.0
C886 C 0.13354 0.31209 0.50796 0.0
C887 C 0.1364 0.34147 0.49371 0.0
C888 C 0.10594 0.35248 0.49974 0.0
C889 C 0.1253 0.3953 0.50769 0.0
C890 C 0.07806 0.34449 0.47921 0.0
C891 C 0.0853 0.32471 0.51963 0.0
C892 C 0.10162 0.3017 0.52426 0.0
C893 C 0.08665 0.27335 0.54167 0.0
C894 C 0.05411 0.26831 0.55452 0.0
C895 C 0.03679 0.29139 0.54982 0.0
C896 C 0.05297 0.32006 0.53221 0.0
H897 H 0.7156 1.00799 0.68786 0.0
H898 H 0.8054 0.99919 0.72594 0.0
H899 H 0.8563 0.05807 0.70568 0.0
H900 H 0.76737 0.03932 0.63373 0.0
H901 H 0.74938 0.07194 0.62712 0.0
H902 H 0.72044 0.02922 0.64462 0.0
H903 H 0.71731 0.07273 0.67728 0.0
H904 H 0.74627 0.11556 0.65988 0.0
H905 H 0.7621 0.11248 0.68871 0.0
H906 H 0.89762 0.11774 0.68008 0.0
H907 H 0.92504 0.17352 0.65266 0.0
H908 H 0.80743 0.14321 0.63262 0.0
C909 C 0.74595 0.01836 0.69201 0.0
C910 C 0.75645 0.99885 0.70852 0.0
C911 C 0.79658 1.0136 0.7134 0.0
C912 C 0.82571 0.04702 0.70194 0.0
C913 C 0.81426 0.06545 0.68571 0.0
C914 C 0.77527 0.05163 0.68084 0.0
C915 C 0.77045 0.07666 0.6628 0.0
C916 C 0.75075 0.05286 0.64077 0.0
C917 C 0.7477 0.09547 0.67277 0.0
C918 C 0.8128 0.10689 0.65831 0.0
C919 C 0.83775 0.09988 0.67152 0.0
C920 C 0.87828 0.12357 0.66977 0.0
C921 C 0.89361 0.15517 0.65415 0.0
C922 C 0.86844 0.163 0.64063 0.0
C923 C 0.82754 0.13842 0.64289 0.0
loop_
_geom_bond_atom_site_label_1
_geom_bond_atom_site_label_2
_geom_bond_distance
_geom_bond_site_symmetry_2
_ccdc_geom_bond_type
Cu0 N1 1.999 . S
Cu0 O6 1.974 . S
Cu0 N11 1.985 . S
Cu0 O20 1.959 . S
N1 Cu0 1.999 . S
N1 C3 1.263 . S
N1 C5 1.389 . S
N2 C3 1.358 . S
N2 C4 1.400 . S
C3 N1 1.263 . S
C3 N2 1.358 . S
C3 H9 0.930 . S
C4 N2 1.400 . S
C4 C5 1.351 . S
C4 H21 0.930 . S
C5 N1 1.389 . S
C5 C4 1.351 . S
C5 H10 0.930 . S
O6 Cu0 1.974 . S
O6 C16 1.282 . S
C7 O8 1.261 . S
C7 O20 1.251 . S
O8 C7 1.261 . S
H9 C3 0.930 . S
H10 C5 0.930 . S
N11 Cu0 1.985 . S
N11 C13 1.335 . S
N11 C14 1.390 . S
N12 C13 1.345 . S
N12 C15 1.336 . S
C13 N11 1.335 . S
C13 N12 1.345 . S
C13 H18 0.930 . S
C14 N11 1.390 . S
C14 C15 1.346 . S
C14 H19 0.930 . S
C15 N12 1.336 . S
C15 C14 1.346 . S
C15 H22 0.929 . S
C16 O6 1.282 . S
C16 O17 1.216 . S
O17 C16 1.216 . S
H18 C13 0.930 . S
H19 C14 0.930 . S
O20 Cu0 1.959 . S
O20 C7 1.251 . S
H21 C4 0.930 . S
H22 C15 0.929 . S
Cu23 N24 1.999 . S
Cu23 O29 1.974 . S
Cu23 N34 1.985 . S
Cu23 O43 1.959 . S
N24 Cu23 1.999 . S
N24 C26 1.263 . S
N24 C28 1.389 . S
N25 C26 1.358 . S
N25 C27 1.400 . S
C26 N24 1.263 . S
C26 N25 1.358 . S
C26 H32 0.930 . S
C27 N25 1.400 . S
C27 C28 1.351 . S
C27 H44 0.930 . S
C28 N24 1.389 . S
C28 C27 1.351 . S
C28 H33 0.930 . S
O29 Cu23 1.974 . S
O29 C39 1.282 . S
C30 O31 1.261 . S
C30 O43 1.251 . S
O31 C30 1.261 . S
H32 C26 0.930 . S
H33 C28 0.930 . S
N34 Cu23 1.985 . S
N34 C36 1.335 . S
N34 C37 1.390 . S
N35 C36 1.345 . S
N35 C38 1.336 . S
C36 N34 1.335 . S
C36 N35 1.345 . S
C36 H41 0.930 . S
C37 N34 1.390 . S
C37 C38 1.346 . S
C37 H42 0.930 . S
C38 N35 1.336 . S
C38 C37 1.346 . S
C38 H45 0.929 . S
C39 O29 1.282 . S
C39 O40 1.216 . S
O40 C39 1.216 . S
H41 C36 0.930 . S
H42 C37 0.930 . S
O43 Cu23 1.959 . S
O43 C30 1.251 . S
H44 C27 0.930 . S
H45 C38 0.929 . S
Cu46 N47 1.999 . S
Cu46 O52 1.974 . S
Cu46 N57 1.985 . S
Cu46 O66 1.959 . S
N47 Cu46 1.999 . S
N47 C49 1.263 . S
N47 C51 1.389 . S
N48 C49 1.358 . S
N48 C50 1.400 . S
C49 N47 1.263 . S
C49 N48 1.358 . S
C49 H55 0.930 . S
C50 N48 1.400 . S
C50 C51 1.351 . S
C50 H67 0.930 . S
C51 N47 1.389 . S
C51 C50 1.351 . S
C51 H56 0.930 . S
O52 Cu46 1.974 . S
O52 C62 1.282 . S
C53 O54 1.261 . S
C53 O66 1.251 . S
O54 C53 1.261 . S
H55 C49 0.930 . S
H56 C51 0.930 . S
N57 Cu46 1.985 . S
N57 C59 1.335 . S
N57 C60 1.390 . S
N58 C59 1.345 . S
N58 C61 1.336 . S
C59 N57 1.335 . S
C59 N58 1.345 . S
C59 H64 0.930 . S
C60 N57 1.390 . S
C60 C61 1.346 . S
C60 H65 0.930 . S
C61 N58 1.336 . S
C61 C60 1.346 . S
C61 H68 0.929 . S
C62 O52 1.282 . S
C62 O63 1.216 . S
O63 C62 1.216 . S
H64 C59 0.930 . S
H65 C60 0.930 . S
O66 Cu46 1.959 . S
O66 C53 1.251 . S
H67 C50 0.930 . S
H68 C61 0.929 . S
Cu69 N70 1.999 . S
Cu69 O75 1.974 . S
Cu69 N80 1.985 . S
Cu69 O89 1.959 . S
N70 Cu69 1.999 . S
N70 C72 1.263 . S
N70 C74 1.389 . S
N71 C72 1.358 . S
N71 C73 1.400 . S
C72 N70 1.263 . S
C72 N71 1.358 . S
C72 H78 0.930 . S
C73 N71 1.400 . S
C73 C74 1.351 . S
C73 H90 0.930 . S
C74 N70 1.389 . S
C74 C73 1.351 . S
C74 H79 0.930 . S
O75 Cu69 1.974 . S
O75 C85 1.282 . S
C76 O77 1.261 . S
C76 O89 1.251 . S
O77 C76 1.261 . S
H78 C72 0.930 . S
H79 C74 0.930 . S
N80 Cu69 1.985 . S
N80 C82 1.335 . S
N80 C83 1.390 . S
N81 C82 1.345 . S
N81 C84 1.336 . S
C82 N80 1.335 . S
C82 N81 1.345 . S
C82 H87 0.930 . S
C83 N80 1.390 . S
C83 C84 1.346 . S
C83 H88 0.930 . S
C84 N81 1.336 . S
C84 C83 1.346 . S
C84 H91 0.929 . S
C85 O75 1.282 . S
C85 O86 1.216 . S
O86 C85 1.216 . S
H87 C82 0.930 . S
H88 C83 0.930 . S
O89 Cu69 1.959 . S
O89 C76 1.251 . S
H90 C73 0.930 . S
H91 C84 0.929 . S
Cu92 N93 1.999 . S
Cu92 O98 1.974 . S
Cu92 N103 1.985 . S
Cu92 O112 1.959 . S
N93 Cu92 1.999 . S
N93 C95 1.263 . S
N93 C97 1.389 . S
N94 C95 1.358 . S
N94 C96 1.400 . S
C95 N93 1.263 . S
C95 N94 1.358 . S
C95 H101 0.930 . S
C96 N94 1.400 . S
C96 C97 1.351 . S
C96 H113 0.930 . S
C97 N93 1.389 . S
C97 C96 1.351 . S
C97 H102 0.930 . S
O98 Cu92 1.974 . S
O98 C108 1.282 . S
C99 O100 1.261 . S
C99 O112 1.251 . S
O100 C99 1.261 . S
H101 C95 0.930 . S
H102 C97 0.930 . S
N103 Cu92 1.985 . S
N103 C105 1.335 . S
N103 C106 1.390 . S
N104 C105 1.345 . S
N104 C107 1.336 . S
C105 N103 1.335 . S
C105 N104 1.345 . S
C105 H110 0.930 . S
C106 N103 1.390 . S
C106 C107 1.346 . S
C106 H111 0.930 . S
C107 N104 1.336 . S
C107 C106 1.346 . S
C107 H114 0.929 . S
C108 O98 1.282 . S
C108 O109 1.216 . S
O109 C108 1.216 . S
H110 C105 0.930 . S
H111 C106 0.930 . S
O112 Cu92 1.959 . S
O112 C99 1.251 . S
H113 C96 0.930 . S
H114 C107 0.929 . S
Cu115 N116 1.999 . S
Cu115 O121 1.974 . S
Cu115 N126 1.985 . S
Cu115 O135 1.959 . S
N116 Cu115 1.999 . S
N116 C118 1.263 . S
N116 C120 1.389 . S
N117 C118 1.358 . S
N117 C119 1.400 . S
C118 N116 1.263 . S
C118 N117 1.358 . S
C118 H124 0.930 . S
C119 N117 1.400 . S
C119 C120 1.351 . S
C119 H136 0.930 . S
C120 N116 1.389 . S
C120 C119 1.351 . S
C120 H125 0.930 . S
O121 Cu115 1.974 . S
O121 C131 1.282 . S
C122 O123 1.261 . S
C122 O135 1.251 . S
O123 C122 1.261 . S
H124 C118 0.930 . S
H125 C120 0.930 . S
N126 Cu115 1.985 . S
N126 C128 1.335 . S
N126 C129 1.390 . S
N127 C128 1.345 . S
N127 C130 1.336 . S
C128 N126 1.335 . S
C128 N127 1.345 . S
C128 H133 0.930 . S
C129 N126 1.390 . S
C129 C130 1.346 . S
C129 H134 0.930 . S
C130 N127 1.336 . S
C130 C129 1.346 . S
C130 H137 0.929 . S
C131 O121 1.282 . S
C131 O132 1.216 . S
O132 C131 1.216 . S
H133 C128 0.930 . S
H134 C129 0.930 . S
O135 Cu115 1.959 . S
O135 C122 1.251 . S
H136 C119 0.930 . S
H137 C130 0.929 . S
Cu138 N139 1.999 . S
Cu138 O144 1.974 . S
Cu138 N149 1.985 . S
Cu138 O158 1.959 . S
N139 Cu138 1.999 . S
N139 C141 1.263 . S
N139 C143 1.389 . S
N140 C141 1.358 . S
N140 C142 1.400 . S
C141 N139 1.263 . S
C141 N140 1.358 . S
C141 H147 0.930 . S
C142 N140 1.400 . S
C142 C143 1.351 . S
C142 H159 0.930 . S
C143 N139 1.389 . S
C143 C142 1.351 . S
C143 H148 0.930 . S
O144 Cu138 1.974 . S
O144 C154 1.282 . S
C145 O146 1.261 . S
C145 O158 1.251 . S
O146 C145 1.261 . S
H147 C141 0.930 . S
H148 C143 0.930 . S
N149 Cu138 1.985 . S
N149 C151 1.335 . S
N149 C152 1.390 . S
N150 C151 1.345 . S
N150 C153 1.336 . S
C151 N149 1.335 . S
C151 N150 1.345 . S
C151 H156 0.930 . S
C152 N149 1.390 . S
C152 C153 1.346 . S
C152 H157 0.930 . S
C153 N150 1.336 . S
C153 C152 1.346 . S
C153 H160 0.929 . S
C154 O144 1.282 . S
C154 O155 1.216 . S
O155 C154 1.216 . S
H156 C151 0.930 . S
H157 C152 0.930 . S
O158 Cu138 1.959 . S
O158 C145 1.251 . S
H159 C142 0.930 . S
H160 C153 0.929 . S
Cu161 N162 1.999 . S
Cu161 O167 1.974 . S
Cu161 N172 1.985 . S
Cu161 O181 1.959 . S
N162 Cu161 1.999 . S
N162 C164 1.263 . S
N162 C166 1.389 . S
N163 C164 1.358 . S
N163 C165 1.400 . S
C164 N162 1.263 . S
C164 N163 1.358 . S
C164 H170 0.930 . S
C165 N163 1.400 . S
C165 C166 1.351 . S
C165 H182 0.930 . S
C166 N162 1.389 . S
C166 C165 1.351 . S
C166 H171 0.930 . S
O167 Cu161 1.974 . S
O167 C177 1.282 . S
C168 O169 1.261 . S
C168 O181 1.251 . S
O169 C168 1.261 . S
H170 C164 0.930 . S
H171 C166 0.930 . S
N172 Cu161 1.985 . S
N172 C174 1.335 . S
N172 C175 1.390 . S
N173 C174 1.345 . S
N173 C176 1.336 . S
C174 N172 1.335 . S
C174 N173 1.345 . S
C174 H179 0.930 . S
C175 N172 1.390 . S
C175 C176 1.346 . S
C175 H180 0.930 . S
C176 N173 1.336 . S
C176 C175 1.346 . S
C176 H183 0.929 . S
C177 O167 1.282 . S
C177 O178 1.216 . S
O178 C177 1.216 . S
H179 C174 0.930 . S
H180 C175 0.930 . S
O181 Cu161 1.959 . S
O181 C168 1.251 . S
H182 C165 0.930 . S
H183 C176 0.929 . S
Cu184 N185 1.999 . S
Cu184 O190 1.974 . S
Cu184 N195 1.985 . S
Cu184 O204 1.959 . S
N185 Cu184 1.999 . S
N185 C187 1.263 . S
N185 C189 1.389 . S
N186 C187 1.358 . S
N186 C188 1.400 . S
C187 N185 1.263 . S
C187 N186 1.358 . S
C187 H193 0.930 . S
C188 N186 1.400 . S
C188 C189 1.351 . S
C188 H205 0.930 . S
C189 N185 1.389 . S
C189 C188 1.351 . S
C189 H194 0.930 . S
O190 Cu184 1.974 . S
O190 C200 1.282 . S
C191 O192 1.261 . S
C191 O204 1.251 . S
O192 C191 1.261 . S
H193 C187 0.930 . S
H194 C189 0.930 . S
N195 Cu184 1.985 . S
N195 C197 1.335 . S
N195 C198 1.390 . S
N196 C197 1.345 . S
N196 C199 1.336 . S
C197 N195 1.335 . S
C197 N196 1.345 . S
C197 H202 0.930 . S
C198 N195 1.390 . S
C198 C199 1.346 . S
C198 H203 0.930 . S
C199 N196 1.336 . S
C199 C198 1.346 . S
C199 H206 0.929 . S
C200 O190 1.282 . S
C200 O201 1.216 . S
O201 C200 1.216 . S
H202 C197 0.930 . S
H203 C198 0.930 . S
O204 Cu184 1.959 . S
O204 C191 1.251 . S
H205 C188 0.930 . S
H206 C199 0.929 . S
Cu207 N208 1.999 . S
Cu207 O213 1.974 . S
Cu207 N218 1.985 . S
Cu207 O227 1.959 . S
N208 Cu207 1.999 . S
N208 C210 1.263 . S
N208 C212 1.389 . S
N209 C210 1.358 . S
N209 C211 1.400 . S
C210 N208 1.263 . S
C210 N209 1.358 . S
C210 H216 0.930 . S
C211 N209 1.400 . S
C211 C212 1.351 . S
C211 H228 0.930 . S
C212 N208 1.389 . S
C212 C211 1.351 . S
C212 H217 0.930 . S
O213 Cu207 1.974 . S
O213 C223 1.282 . S
C214 O215 1.261 . S
C214 O227 1.251 . S
O215 C214 1.261 . S
H216 C210 0.930 . S
H217 C212 0.930 . S
N218 Cu207 1.985 . S
N218 C220 1.335 . S
N218 C221 1.390 . S
N219 C220 1.345 . S
N219 C222 1.336 . S
C220 N218 1.335 . S
C220 N219 1.345 . S
C220 H225 0.930 . S
C221 N218 1.390 . S
C221 C222 1.346 . S
C221 H226 0.930 . S
C222 N219 1.336 . S
C222 C221 1.346 . S
C222 H229 0.929 . S
C223 O213 1.282 . S
C223 O224 1.216 . S
O224 C223 1.216 . S
H225 C220 0.930 . S
H226 C221 0.930 . S
O227 Cu207 1.959 . S
O227 C214 1.251 . S
H228 C211 0.930 . S
H229 C222 0.929 . S
Cu230 N231 1.999 . S
Cu230 O236 1.974 . S
Cu230 N241 1.985 . S
Cu230 O250 1.959 . S
N231 Cu230 1.999 . S
N231 C233 1.263 . S
N231 C235 1.389 . S
N232 C233 1.358 . S
N232 C234 1.400 . S
C233 N231 1.263 . S
C233 N232 1.358 . S
C233 H239 0.930 . S
C234 N232 1.400 . S
C234 C235 1.351 . S
C234 H251 0.930 . S
C235 N231 1.389 . S
C235 C234 1.351 . S
C235 H240 0.930 . S
O236 Cu230 1.974 . S
O236 C246 1.282 . S
C237 O238 1.261 . S
C237 O250 1.251 . S
O238 C237 1.261 . S
H239 C233 0.930 . S
H240 C235 0.930 . S
N241 Cu230 1.985 . S
N241 C243 1.335 . S
N241 C244 1.390 . S
N242 C243 1.345 . S
N242 C245 1.336 . S
C243 N241 1.335 . S
C243 N242 1.345 . S
C243 H248 0.930 . S
C244 N241 1.390 . S
C244 C245 1.346 . S
C244 H249 0.930 . S
C245 N242 1.336 . S
C245 C244 1.346 . S
C245 H252 0.929 . S
C246 O236 1.282 . S
C246 O247 1.216 . S
O247 C246 1.216 . S
H248 C243 0.930 . S
H249 C244 0.930 . S
O250 Cu230 1.959 . S
O250 C237 1.251 . S
H251 C234 0.930 . S
H252 C245 0.929 . S
Cu253 N254 1.999 . S
Cu253 O259 1.974 . S
Cu253 N264 1.985 . S
Cu253 O273 1.959 . S
N254 Cu253 1.999 . S
N254 C256 1.263 . S
N254 C258 1.389 . S
N255 C256 1.358 . S
N255 C257 1.400 . S
C256 N254 1.263 . S
C256 N255 1.358 . S
C256 H262 0.930 . S
C257 N255 1.400 . S
C257 C258 1.351 . S
C257 H274 0.930 . S
C258 N254 1.389 . S
C258 C257 1.351 . S
C258 H263 0.930 . S
O259 Cu253 1.974 . S
O259 C269 1.282 . S
C260 O261 1.261 . S
C260 O273 1.251 . S
O261 C260 1.261 . S
H262 C256 0.930 . S
H263 C258 0.930 . S
N264 Cu253 1.985 . S
N264 C266 1.335 . S
N264 C267 1.390 . S
N265 C266 1.345 . S
N265 C268 1.336 . S
C266 N264 1.335 . S
C266 N265 1.345 . S
C266 H271 0.930 . S
C267 N264 1.390 . S
C267 C268 1.346 . S
C267 H272 0.930 . S
C268 N265 1.336 . S
C268 C267 1.346 . S
C268 H275 0.929 . S
C269 O259 1.282 . S
C269 O270 1.216 . S
O270 C269 1.216 . S
H271 C266 0.930 . S
H272 C267 0.930 . S
O273 Cu253 1.959 . S
O273 C260 1.251 . S
H274 C257 0.930 . S
H275 C268 0.929 . S
H276 C288 0.930 . S
H277 C290 0.930 . S
H278 C291 0.930 . S
H279 C295 0.959 . S
H280 C295 0.959 . S
H281 C295 0.961 . S
H282 C296 0.960 . S
H283 C296 0.961 . S
H284 C296 0.959 . S
H285 C299 0.929 . S
H286 C300 0.931 . S
H287 C302 0.930 . S
C288 H276 0.930 . S
C288 C289 1.399 . S
C288 C293 1.399 . S
C289 C288 1.399 . S
C289 C290 1.376 . S
C290 H277 0.930 . S
C290 C289 1.376 . S
C290 C291 1.388 . S
C291 H278 0.930 . S
C291 C290 1.388 . S
C291 C292 1.390 . S
C292 C291 1.390 . S
C292 C293 1.394 . S
C292 C298 1.465 . S
C293 C288 1.399 . S
C293 C292 1.394 . S
C293 C294 1.516 . S
C294 C293 1.516 . S
C294 C295 1.502 . S
C294 C296 1.561 . S
C294 C297 1.526 . S
C295 H279 0.959 . S
C295 H280 0.959 . S
C295 H281 0.961 . S
C295 C294 1.502 . S
C296 H282 0.960 . S
C296 H283 0.961 . S
C296 H284 0.959 . S
C296 C294 1.561 . S
C297 C294 1.526 . S
C297 C298 1.396 . S
C297 C302 1.390 . S
C298 C292 1.465 . S
C298 C297 1.396 . S
C298 C299 1.399 . S
C299 H285 0.929 . S
C299 C298 1.399 . S
C299 C300 1.385 . S
C300 H286 0.931 . S
C300 C299 1.385 . S
C300 C301 1.389 . S
C301 C300 1.389 . S
C301 C302 1.387 . S
C302 H287 0.930 . S
C302 C297 1.390 . S
C302 C301 1.387 . S
H303 C315 0.930 . S
H304 C317 0.930 . S
H305 C318 0.930 . S
H306 C322 0.959 . S
H307 C322 0.959 . S
H308 C322 0.961 . S
H309 C323 0.960 . S
H310 C323 0.961 . S
H311 C323 0.959 . S
H312 C326 0.929 . S
H313 C327 0.931 . S
H314 C329 0.930 . S
C315 H303 0.930 . S
C315 C316 1.399 . S
C315 C320 1.399 . S
C316 C315 1.399 . S
C316 C317 1.376 . S
C317 H304 0.930 . S
C317 C316 1.376 . S
C317 C318 1.388 . S
C318 H305 0.930 . S
C318 C317 1.388 . S
C318 C319 1.390 . S
C319 C318 1.390 . S
C319 C320 1.394 . S
C319 C325 1.465 . S
C320 C315 1.399 . S
C320 C319 1.394 . S
C320 C321 1.516 . S
C321 C320 1.516 . S
C321 C322 1.502 . S
C321 C323 1.561 . S
C321 C324 1.526 . S
C322 H306 0.959 . S
C322 H307 0.959 . S
C322 H308 0.961 . S
C322 C321 1.502 . S
C323 H309 0.960 . S
C323 H310 0.961 . S
C323 H311 0.959 . S
C323 C321 1.561 . S
C324 C321 1.526 . S
C324 C325 1.396 . S
C324 C329 1.390 . S
C325 C319 1.465 . S
C325 C324 1.396 . S
C325 C326 1.399 . S
C326 H312 0.929 . S
C326 C325 1.399 . S
C326 C327 1.385 . S
C327 H313 0.931 . S
C327 C326 1.385 . S
C327 C328 1.389 . S
C328 C327 1.389 . S
C328 C329 1.387 . S
C329 H314 0.930 . S
C329 C324 1.390 . S
C329 C328 1.387 . S
H330 C342 0.930 . S
H331 C344 0.930 . S
H332 C345 0.930 . S
H333 C349 0.959 . S
H334 C349 0.959 . S
H335 C349 0.961 . S
H336 C350 0.960 . S
H337 C350 0.961 . S
H338 C350 0.959 . S
H339 C353 0.929 . S
H340 C354 0.931 . S
H341 C356 0.930 . S
C342 H330 0.930 . S
C342 C343 1.399 . S
C342 C347 1.399 . S
C343 C342 1.399 . S
C343 C344 1.376 . S
C344 H331 0.930 . S
C344 C343 1.376 . S
C344 C345 1.388 . S
C345 H332 0.930 . S
C345 C344 1.388 . S
C345 C346 1.390 . S
C346 C345 1.390 . S
C346 C347 1.394 . S
C346 C352 1.465 . S
C347 C342 1.399 . S
C347 C346 1.394 . S
C347 C348 1.516 . S
C348 C347 1.516 . S
C348 C349 1.502 . S
C348 C350 1.561 . S
C348 C351 1.526 . S
C349 H333 0.959 . S
C349 H334 0.959 . S
C349 H335 0.961 . S
C349 C348 1.502 . S
C350 H336 0.960 . S
C350 H337 0.961 . S
C350 H338 0.959 . S
C350 C348 1.561 . S
C351 C348 1.526 . S
C351 C352 1.396 . S
C351 C356 1.390 . S
C352 C346 1.465 . S
C352 C351 1.396 . S
C352 C353 1.399 . S
C353 H339 0.929 . S
C353 C352 1.399 . S
C353 C354 1.385 . S
C354 H340 0.931 . S
C354 C353 1.385 . S
C354 C355 1.389 . S
C355 C354 1.389 . S
C355 C356 1.387 . S
C356 H341 0.930 . S
C356 C351 1.390 . S
C356 C355 1.387 . S
H357 C369 0.930 . S
H358 C371 0.930 . S
H359 C372 0.930 . S
H360 C376 0.959 . S
H361 C376 0.959 . S
H362 C376 0.961 . S
H363 C377 0.960 . S
H364 C377 0.961 . S
H365 C377 0.959 . S
H366 C380 0.929 . S
H367 C381 0.931 . S
H368 C383 0.930 . S
C369 H357 0.930 . S
C369 C370 1.399 . S
C369 C374 1.399 . S
C370 C369 1.399 . S
C370 C371 1.376 . S
C371 H358 0.930 . S
C371 C370 1.376 . S
C371 C372 1.388 . S
C372 H359 0.930 . S
C372 C371 1.388 . S
C372 C373 1.390 . S
C373 C372 1.390 . S
C373 C374 1.394 . S
C373 C379 1.465 . S
C374 C369 1.399 . S
C374 C373 1.394 . S
C374 C375 1.516 . S
C375 C374 1.516 . S
C375 C376 1.502 . S
C375 C377 1.561 . S
C375 C378 1.526 . S
C376 H360 0.959 . S
C376 H361 0.959 . S
C376 H362 0.961 . S
C376 C375 1.502 . S
C377 H363 0.960 . S
C377 H364 0.961 . S
C377 H365 0.959 . S
C377 C375 1.561 . S
C378 C375 1.526 . S
C378 C379 1.396 . S
C378 C383 1.390 . S
C379 C373 1.465 . S
C379 C378 1.396 . S
C379 C380 1.399 . S
C380 H366 0.929 . S
C380 C379 1.399 . S
C380 C381 1.385 . S
C381 H367 0.931 . S
C381 C380 1.385 . S
C381 C382 1.389 . S
C382 C381 1.389 . S
C382 C383 1.387 . S
C383 H368 0.930 . S
C383 C378 1.390 . S
C383 C382 1.387 . S
H384 C396 0.930 . S
H385 C398 0.930 . S
H386 C399 0.930 . S
H387 C403 0.959 . S
H388 C403 0.959 . S
H389 C403 0.961 . S
H390 C404 0.960 . S
H391 C404 0.961 . S
H392 C404 0.959 . S
H393 C407 0.929 . S
H394 C408 0.931 . S
H395 C410 0.930 . S
C396 H384 0.930 . S
C396 C397 1.399 . S
C396 C401 1.399 . S
C397 C396 1.399 . S
C397 C398 1.376 . S
C398 H385 0.930 . S
C398 C397 1.376 . S
C398 C399 1.388 . S
C399 H386 0.930 . S
C399 C398 1.388 . S
C399 C400 1.390 . S
C400 C399 1.390 . S
C400 C401 1.394 . S
C400 C406 1.465 . S
C401 C396 1.399 . S
C401 C400 1.394 . S
C401 C402 1.516 . S
C402 C401 1.516 . S
C402 C403 1.502 . S
C402 C404 1.561 . S
C402 C405 1.526 . S
C403 H387 0.959 . S
C403 H388 0.959 . S
C403 H389 0.961 . S
C403 C402 1.502 . S
C404 H390 0.960 . S
C404 H391 0.961 . S
C404 H392 0.959 . S
C404 C402 1.561 . S
C405 C402 1.526 . S
C405 C406 1.396 . S
C405 C410 1.390 . S
C406 C400 1.465 . S
C406 C405 1.396 . S
C406 C407 1.399 . S
C407 H393 0.929 . S
C407 C406 1.399 . S
C407 C408 1.385 . S
C408 H394 0.931 . S
C408 C407 1.385 . S
C408 C409 1.389 . S
C409 C408 1.389 . S
C409 C410 1.387 . S
C410 H395 0.930 . S
C410 C405 1.390 . S
C410 C409 1.387 . S
H411 C423 0.930 . S
H412 C425 0.930 . S
H413 C426 0.930 . S
H414 C430 0.959 . S
H415 C430 0.959 . S
H416 C430 0.961 . S
H417 C431 0.960 . S
H418 C431 0.961 . S
H419 C431 0.959 . S
H420 C434 0.929 . S
H421 C435 0.931 . S
H422 C437 0.930 . S
C423 H411 0.930 . S
C423 C424 1.399 . S
C423 C428 1.399 . S
C424 C423 1.399 . S
C424 C425 1.376 . S
C425 H412 0.930 . S
C425 C424 1.376 . S
C425 C426 1.388 . S
C426 H413 0.930 . S
C426 C425 1.388 . S
C426 C427 1.390 . S
C427 C426 1.390 . S
C427 C428 1.394 . S
C427 C433 1.465 . S
C428 C423 1.399 . S
C428 C427 1.394 . S
C428 C429 1.516 . S
C429 C428 1.516 . S
C429 C430 1.502 . S
C429 C431 1.561 . S
C429 C432 1.526 . S
C430 H414 0.959 . S
C430 H415 0.959 . S
C430 H416 0.961 . S
C430 C429 1.502 . S
C431 H417 0.960 . S
C431 H418 0.961 . S
C431 H419 0.959 . S
C431 C429 1.561 . S
C432 C429 1.526 . S
C432 C433 1.396 . S
C432 C437 1.390 . S
C433 C427 1.465 . S
C433 C432 1.396 . S
C433 C434 1.399 . S
C434 H420 0.929 . S
C434 C433 1.399 . S
C434 C435 1.385 . S
C435 H421 0.931 . S
C435 C434 1.385 . S
C435 C436 1.389 . S
C436 C435 1.389 . S
C436 C437 1.387 . S
C437 H422 0.930 . S
C437 C432 1.390 . S
C437 C436 1.387 . S
H438 C450 0.930 . S
H439 C452 0.930 . S
H440 C453 0.930 . S
H441 C457 0.959 . S
H442 C457 0.959 . S
H443 C457 0.961 . S
H444 C458 0.960 . S
H445 C458 0.961 . S
H446 C458 0.959 . S
H447 C461 0.929 . S
H448 C462 0.931 . S
H449 C464 0.930 . S
C450 H438 0.930 . S
C450 C451 1.399 . S
C450 C455 1.399 . S
C451 C450 1.399 . S
C451 C452 1.376 . S
C452 H439 0.930 . S
C452 C451 1.376 . S
C452 C453 1.388 . S
C453 H440 0.930 . S
C453 C452 1.388 . S
C453 C454 1.390 . S
C454 C453 1.390 . S
C454 C455 1.394 . S
C454 C460 1.465 . S
C455 C450 1.399 . S
C455 C454 1.394 . S
C455 C456 1.516 . S
C456 C455 1.516 . S
C456 C457 1.502 . S
C456 C458 1.561 . S
C456 C459 1.526 . S
C457 H441 0.959 . S
C457 H442 0.959 . S
C457 H443 0.961 . S
C457 C456 1.502 . S
C458 H444 0.960 . S
C458 H445 0.961 . S
C458 H446 0.959 . S
C458 C456 1.561 . S
C459 C456 1.526 . S
C459 C460 1.396 . S
C459 C464 1.390 . S
C460 C454 1.465 . S
C460 C459 1.396 . S
C460 C461 1.399 . S
C461 H447 0.929 . S
C461 C460 1.399 . S
C461 C462 1.385 . S
C462 H448 0.931 . S
C462 C461 1.385 . S
C462 C463 1.389 . S
C463 C462 1.389 . S
C463 C464 1.387 . S
C464 H449 0.930 . S
C464 C459 1.390 . S
C464 C463 1.387 . S
H465 C477 0.930 . S
H466 C479 0.930 . S
H467 C480 0.930 . S
H468 C484 0.959 . S
H469 C484 0.959 . S
H470 C484 0.961 . S
H471 C485 0.960 . S
H472 C485 0.961 . S
H473 C485 0.959 . S
H474 C488 0.929 1_655 S
H475 C489 0.931 . S
H476 C491 0.930 . S
C477 H465 0.930 . S
C477 C478 1.399 . S
C477 C482 1.399 . S
C478 C477 1.399 . S
C478 C479 1.376 . S
C479 H466 0.930 . S
C479 C478 1.376 . S
C479 C480 1.388 . S
C480 H467 0.930 . S
C480 C479 1.388 . S
C480 C481 1.390 . S
C481 C480 1.390 . S
C481 C482 1.394 . S
C481 C487 1.465 1_655 S
C482 C477 1.399 . S
C482 C481 1.394 . S
C482 C483 1.516 1_655 S
C483 C482 1.516 1_455 S
C483 C484 1.502 . S
C483 C485 1.561 . S
C483 C486 1.526 . S
C484 H468 0.959 . S
C484 H469 0.959 . S
C484 H470 0.961 . S
C484 C483 1.502 . S
C485 H471 0.960 . S
C485 H472 0.961 . S
C485 H473 0.959 . S
C485 C483 1.561 . S
C486 C483 1.526 . S
C486 C487 1.396 . S
C486 C491 1.390 . S
C487 C481 1.465 1_455 S
C487 C486 1.396 . S
C487 C488 1.399 . S
C488 H474 0.929 1_455 S
C488 C487 1.399 . S
C488 C489 1.385 . S
C489 H475 0.931 . S
C489 C488 1.385 . S
C489 C490 1.389 . S
C490 C489 1.389 . S
C490 C491 1.387 . S
C491 H476 0.930 . S
C491 C486 1.390 . S
C491 C490 1.387 . S
H492 C504 0.930 . S
H493 C506 0.930 . S
H494 C507 0.930 . S
H495 C511 0.959 . S
H496 C511 0.959 . S
H497 C511 0.961 . S
H498 C512 0.960 . S
H499 C512 0.961 . S
H500 C512 0.959 . S
H501 C515 0.929 1_545 S
H502 C516 0.931 . S
H503 C518 0.930 . S
C504 H492 0.930 . S
C504 C505 1.399 . S
C504 C509 1.399 . S
C505 C504 1.399 . S
C505 C506 1.376 . S
C506 H493 0.930 . S
C506 C505 1.376 . S
C506 C507 1.388 . S
C507 H494 0.930 . S
C507 C506 1.388 . S
C507 C508 1.390 . S
C508 C507 1.390 . S
C508 C509 1.394 . S
C508 C514 1.465 1_545 S
C509 C504 1.399 . S
C509 C508 1.394 . S
C509 C510 1.516 1_545 S
C510 C509 1.516 1_565 S
C510 C511 1.502 . S
C510 C512 1.561 . S
C510 C513 1.526 . S
C511 H495 0.959 . S
C511 H496 0.959 . S
C511 H497 0.961 . S
C511 C510 1.502 . S
C512 H498 0.960 . S
C512 H499 0.961 . S
C512 H500 0.959 . S
C512 C510 1.561 . S
C513 C510 1.526 . S
C513 C514 1.396 . S
C513 C518 1.390 . S
C514 C508 1.465 1_565 S
C514 C513 1.396 . S
C514 C515 1.399 . S
C515 H501 0.929 1_565 S
C515 C514 1.399 . S
C515 C516 1.385 . S
C516 H502 0.931 . S
C516 C515 1.385 . S
C516 C517 1.389 . S
C517 C516 1.389 . S
C517 C518 1.387 . S
C518 H503 0.930 . S
C518 C513 1.390 . S
C518 C517 1.387 . S
H519 C531 0.930 . S
H520 C533 0.930 . S
H521 C534 0.930 . S
H522 C538 0.959 . S
H523 C538 0.959 . S
H524 C538 0.961 . S
H525 C539 0.960 . S
H526 C539 0.961 . S
H527 C539 0.959 . S
H528 C542 0.929 . S
H529 C543 0.931 . S
H530 C545 0.930 . S
C531 H519 0.930 . S
C531 C532 1.399 . S
C531 C536 1.399 . S
C532 C531 1.399 . S
C532 C533 1.376 . S
C533 H520 0.930 . S
C533 C532 1.376 . S
C533 C534 1.388 . S
C534 H521 0.930 . S
C534 C533 1.388 . S
C534 C535 1.390 . S
C535 C534 1.390 . S
C535 C536 1.394 . S
C535 C541 1.465 . S
C536 C531 1.399 . S
C536 C535 1.394 . S
C536 C537 1.516 . S
C537 C536 1.516 . S
C537 C538 1.502 . S
C537 C539 1.561 . S
C537 C540 1.526 . S
C538 H522 0.959 . S
C538 H523 0.959 . S
C538 H524 0.961 . S
C538 C537 1.502 . S
C539 H525 0.960 . S
C539 H526 0.961 . S
C539 H527 0.959 . S
C539 C537 1.561 . S
C540 C537 1.526 . S
C540 C541 1.396 . S
C540 C545 1.390 . S
C541 C535 1.465 . S
C541 C540 1.396 . S
C541 C542 1.399 . S
C542 H528 0.929 . S
C542 C541 1.399 . S
C542 C543 1.385 . S
C543 H529 0.931 . S
C543 C542 1.385 . S
C543 C544 1.389 . S
C544 C543 1.389 . S
C544 C545 1.387 . S
C545 H530 0.930 . S
C545 C540 1.390 . S
C545 C544 1.387 . S
H546 C558 0.930 . S
H547 C560 0.930 . S
H548 C561 0.930 . S
H549 C565 0.959 . S
H550 C565 0.959 1_455 S
H551 C565 0.961 . S
H552 C566 0.960 . S
H553 C566 0.961 . S
H554 C566 0.959 . S
H555 C569 0.929 . S
H556 C570 0.931 . S
H557 C572 0.930 . S
C558 H546 0.930 . S
C558 C559 1.399 . S
C558 C563 1.399 . S
C559 C558 1.399 . S
C559 C560 1.376 . S
C560 H547 0.930 . S
C560 C559 1.376 . S
C560 C561 1.388 . S
C561 H548 0.930 . S
C561 C560 1.388 . S
C561 C562 1.390 . S
C562 C561 1.390 . S
C562 C563 1.394 . S
C562 C568 1.465 1_655 S
C563 C558 1.399 . S
C563 C562 1.394 . S
C563 C564 1.516 1_655 S
C564 C563 1.516 1_455 S
C564 C565 1.502 1_455 S
C564 C566 1.561 . S
C564 C567 1.526 . S
C565 H549 0.959 . S
C565 H550 0.959 1_655 S
C565 H551 0.961 . S
C565 C564 1.502 1_655 S
C566 H552 0.960 . S
C566 H553 0.961 . S
C566 H554 0.959 . S
C566 C564 1.561 . S
C567 C564 1.526 . S
C567 C568 1.396 . S
C567 C572 1.390 . S
C568 C562 1.465 1_455 S
C568 C567 1.396 . S
C568 C569 1.399 . S
C569 H555 0.929 . S
C569 C568 1.399 . S
C569 C570 1.385 . S
C570 H556 0.931 . S
C570 C569 1.385 . S
C570 C571 1.389 . S
C571 C570 1.389 . S
C571 C572 1.387 . S
C572 H557 0.930 . S
C572 C567 1.390 . S
C572 C571 1.387 . S
H573 C585 0.930 . S
H574 C587 0.930 . S
H575 C588 0.930 . S
H576 C592 0.959 . S
H577 C592 0.959 . S
H578 C592 0.961 . S
H579 C593 0.960 . S
H580 C593 0.961 . S
H581 C593 0.959 . S
H582 C596 0.929 1_565 S
H583 C597 0.931 . S
H584 C599 0.930 . S
C585 H573 0.930 . S
C585 C586 1.399 . S
C585 C590 1.399 . S
C586 C585 1.399 . S
C586 C587 1.376 . S
C587 H574 0.930 . S
C587 C586 1.376 . S
C587 C588 1.388 1_554 S
C588 H575 0.930 . S
C588 C587 1.388 1_556 S
C588 C589 1.390 . S
C589 C588 1.390 . S
C589 C590 1.394 1_556 S
C589 C595 1.465 1_565 S
C590 C585 1.399 . S
C590 C589 1.394 1_554 S
C590 C591 1.516 1_565 S
C591 C590 1.516 1_545 S
C591 C592 1.502 . S
C591 C593 1.561 . S
C591 C594 1.526 1_554 S
C592 H576 0.959 . S
C592 H577 0.959 . S
C592 H578 0.961 . S
C592 C591 1.502 . S
C593 H579 0.960 . S
C593 H580 0.961 . S
C593 H581 0.959 . S
C593 C591 1.561 . S
C594 C591 1.526 1_556 S
C594 C595 1.396 . S
C594 C599 1.390 . S
C595 C589 1.465 1_545 S
C595 C594 1.396 . S
C595 C596 1.399 . S
C596 H582 0.929 1_545 S
C596 C595 1.399 . S
C596 C597 1.385 . S
C597 H583 0.931 . S
C597 C596 1.385 . S
C597 C598 1.389 . S
C598 C597 1.389 . S
C598 C599 1.387 . S
C599 H584 0.930 . S
C599 C594 1.390 . S
C599 C598 1.387 . S
H600 C612 0.930 . S
H601 C614 0.930 . S
H602 C615 0.930 . S
H603 C619 0.959 . S
H604 C619 0.959 . S
H605 C619 0.961 . S
H606 C620 0.968 . S
H607 C620 0.932 1_556 S
H608 C620 0.985 . S
H609 C623 0.929 . S
H610 C624 0.930 1_554 S
H611 C626 0.930 . S
C612 H600 0.930 . S
C612 C613 1.399 . S
C612 C617 1.399 . S
C613 C612 1.399 . S
C613 C614 1.376 . S
C614 H601 0.930 . S
C614 C613 1.376 . S
C614 C615 1.388 . S
C615 H602 0.930 . S
C615 C614 1.388 . S
C615 C616 1.390 . S
C616 C615 1.390 . S
C616 C617 1.394 . S
C616 C622 1.465 . S
C617 C612 1.399 . S
C617 C616 1.394 . S
C617 C618 1.516 1_554 S
C618 C617 1.516 1_556 S
C618 C619 1.502 . S
C618 C620 1.556 1_556 S
C618 C621 1.526 . S
C619 H603 0.959 . S
C619 H604 0.959 . S
C619 H605 0.961 . S
C619 C618 1.502 . S
C620 H606 0.968 . S
C620 H607 0.932 1_554 S
C620 H608 0.985 . S
C620 C618 1.556 1_554 S
C621 C618 1.526 . S
C621 C622 1.396 1_556 S
C621 C626 1.390 . S
C622 C616 1.465 . S
C622 C621 1.396 1_554 S
C622 C623 1.399 . S
C623 H609 0.929 . S
C623 C622 1.399 . S
C623 C624 1.382 1_554 S
C624 H610 0.930 1_556 S
C624 C623 1.382 1_556 S
C624 C625 1.393 . S
C625 C624 1.393 . S
C625 C626 1.387 . S
C626 H611 0.930 . S
C626 C621 1.390 . S
C626 C625 1.387 . S
H627 C639 0.930 . S
H628 C641 0.930 . S
H629 C642 0.930 . S
H630 C646 0.959 . S
H631 C646 0.959 . S
H632 C646 0.961 . S
H633 C647 0.960 . S
H634 C647 0.961 . S
H635 C647 0.959 . S
H636 C650 0.929 . S
H637 C651 0.931 . S
H638 C653 0.930 . S
C639 H627 0.930 . S
C639 C640 1.399 . S
C639 C644 1.399 . S
C640 C639 1.399 . S
C640 C641 1.376 . S
C641 H628 0.930 . S
C641 C640 1.376 . S
C641 C642 1.388 . S
C642 H629 0.930 . S
C642 C641 1.388 . S
C642 C643 1.390 . S
C643 C642 1.390 . S
C643 C644 1.394 . S
C643 C649 1.465 . S
C644 C639 1.399 . S
C644 C643 1.394 . S
C644 C645 1.516 . S
C645 C644 1.516 . S
C645 C646 1.502 . S
C645 C647 1.561 . S
C645 C648 1.526 . S
C646 H630 0.959 . S
C646 H631 0.959 . S
C646 H632 0.961 . S
C646 C645 1.502 . S
C647 H633 0.960 . S
C647 H634 0.961 . S
C647 H635 0.959 . S
C647 C645 1.561 . S
C648 C645 1.526 . S
C648 C649 1.396 . S
C648 C653 1.390 1_655 S
C649 C643 1.465 . S
C649 C648 1.396 . S
C649 C650 1.399 . S
C650 H636 0.929 . S
C650 C649 1.399 . S
C650 C651 1.385 1_655 S
C651 H637 0.931 . S
C651 C650 1.385 1_455 S
C651 C652 1.389 . S
C652 C651 1.389 . S
C652 C653 1.387 . S
C653 H638 0.930 . S
C653 C648 1.390 1_455 S
C653 C652 1.387 . S
H654 C666 0.930 . S
H655 C668 0.930 . S
H656 C669 0.924 . S
H657 C673 0.959 . S
H658 C673 0.959 . S
H659 C673 0.961 . S
H660 C674 0.960 . S
H661 C674 0.961 . S
H662 C674 0.959 . S
H663 C677 0.929 . S
H664 C678 0.931 . S
H665 C680 0.930 . S
C666 H654 0.930 . S
C666 C667 1.399 1_565 S
C666 C671 1.399 . S
C667 C666 1.399 1_545 S
C667 C668 1.376 . S
C668 H655 0.930 . S
C668 C667 1.376 . S
C668 C669 1.388 1_545 S
C669 H656 0.924 . S
C669 C668 1.388 1_565 S
C669 C670 1.390 . S
C670 C669 1.390 . S
C670 C671 1.394 . S
C670 C676 1.465 . S
C671 C666 1.399 . S
C671 C670 1.394 . S
C671 C672 1.516 . S
C672 C671 1.516 . S
C672 C673 1.502 . S
C672 C674 1.561 . S
C672 C675 1.526 . S
C673 H657 0.959 . S
C673 H658 0.959 . S
C673 H659 0.961 . S
C673 C672 1.502 . S
C674 H660 0.960 . S
C674 H661 0.961 . S
C674 H662 0.959 . S
C674 C672 1.561 . S
C675 C672 1.526 . S
C675 C676 1.396 . S
C675 C680 1.390 . S
C676 C670 1.465 . S
C676 C675 1.396 . S
C676 C677 1.399 . S
C677 H663 0.929 . S
C677 C676 1.399 . S
C677 C678 1.385 . S
C678 H664 0.931 . S
C678 C677 1.385 . S
C678 C679 1.389 . S
C679 C678 1.389 . S
C679 C680 1.387 . S
C680 H665 0.930 . S
C680 C675 1.390 . S
C680 C679 1.387 . S
H681 C693 0.930 . S
H682 C695 0.930 . S
H683 C696 0.930 . S
H684 C700 0.959 . S
H685 C700 0.959 . S
H686 C700 0.961 . S
H687 C701 0.960 . S
H688 C701 0.961 . S
H689 C701 0.959 . S
H690 C704 0.929 . S
H691 C705 0.931 . S
H692 C707 0.930 . S
C693 H681 0.930 . S
C693 C694 1.399 . S
C693 C698 1.399 . S
C694 C693 1.399 . S
C694 C695 1.376 . S
C695 H682 0.930 . S
C695 C694 1.376 . S
C695 C696 1.388 . S
C696 H683 0.930 . S
C696 C695 1.388 . S
C696 C697 1.390 . S
C697 C696 1.390 . S
C697 C698 1.394 . S
C697 C703 1.465 . S
C698 C693 1.399 . S
C698 C697 1.394 . S
C698 C699 1.516 . S
C699 C698 1.516 . S
C699 C700 1.502 . S
C699 C701 1.561 . S
C699 C702 1.526 . S
C700 H684 0.959 . S
C700 H685 0.959 . S
C700 H686 0.961 . S
C700 C699 1.502 . S
C701 H687 0.960 . S
C701 H688 0.961 . S
C701 H689 0.959 . S
C701 C699 1.561 . S
C702 C699 1.526 . S
C702 C703 1.396 . S
C702 C707 1.390 . S
C703 C697 1.465 . S
C703 C702 1.396 . S
C703 C704 1.399 . S
C704 H690 0.929 . S
C704 C703 1.399 . S
C704 C705 1.385 . S
C705 H691 0.931 . S
C705 C704 1.385 . S
C705 C706 1.389 . S
C706 C705 1.389 . S
C706 C707 1.387 . S
C707 H692 0.930 . S
C707 C702 1.390 . S
C707 C706 1.387 . S
H708 C720 0.930 . S
H709 C722 0.930 . S
H710 C723 0.930 . S
H711 C727 0.959 . S
H712 C727 0.959 . S
H713 C727 0.961 . S
H714 C728 0.960 . S
H715 C728 0.961 . S
H716 C728 0.959 . S
H717 C731 0.929 . S
H718 C732 0.931 . S
H719 C734 0.930 . S
C720 H708 0.930 . S
C720 C721 1.399 . S
C720 C725 1.399 . S
C721 C720 1.399 . S
C721 C722 1.376 . S
C722 H709 0.930 . S
C722 C721 1.376 . S
C722 C723 1.388 . S
C723 H710 0.930 . S
C723 C722 1.388 . S
C723 C724 1.390 . S
C724 C723 1.390 . S
C724 C725 1.394 . S
C724 C730 1.465 . S
C725 C720 1.399 . S
C725 C724 1.394 . S
C725 C726 1.516 . S
C726 C725 1.516 . S
C726 C727 1.502 . S
C726 C728 1.561 . S
C726 C729 1.526 . S
C727 H711 0.959 . S
C727 H712 0.959 . S
C727 H713 0.961 . S
C727 C726 1.502 . S
C728 H714 0.960 . S
C728 H715 0.961 . S
C728 H716 0.959 . S
C728 C726 1.561 . S
C729 C726 1.526 . S
C729 C730 1.396 . S
C729 C734 1.390 1_455 S
C730 C724 1.465 . S
C730 C729 1.396 . S
C730 C731 1.399 . S
C731 H717 0.929 . S
C731 C730 1.399 . S
C731 C732 1.385 1_455 S
C732 H718 0.931 . S
C732 C731 1.385 1_655 S
C732 C733 1.389 . S
C733 C732 1.389 . S
C733 C734 1.387 . S
C734 H719 0.930 . S
C734 C729 1.390 1_655 S
C734 C733 1.387 . S
H735 C747 0.930 . S
H736 C749 0.930 . S
H737 C750 0.930 . S
H738 C754 0.959 . S
H739 C754 0.959 . S
H740 C754 0.961 . S
H741 C755 0.960 . S
H742 C755 0.961 . S
H743 C755 0.959 . S
H744 C758 0.929 . S
H745 C759 0.931 . S
H746 C761 0.930 . S
C747 H735 0.930 . S
C747 C748 1.399 . S
C747 C752 1.399 . S
C748 C747 1.399 . S
C748 C749 1.376 . S
C749 H736 0.930 . S
C749 C748 1.376 . S
C749 C750 1.388 . S
C750 H737 0.930 . S
C750 C749 1.388 . S
C750 C751 1.390 . S
C751 C750 1.390 . S
C751 C752 1.394 . S
C751 C757 1.465 . S
C752 C747 1.399 . S
C752 C751 1.394 . S
C752 C753 1.516 . S
C753 C752 1.516 . S
C753 C754 1.502 . S
C753 C755 1.561 . S
C753 C756 1.526 . S
C754 H738 0.959 . S
C754 H739 0.959 . S
C754 H740 0.961 . S
C754 C753 1.502 . S
C755 H741 0.960 . S
C755 H742 0.961 . S
C755 H743 0.959 . S
C755 C753 1.561 . S
C756 C753 1.526 . S
C756 C757 1.396 . S
C756 C761 1.390 1_545 S
C757 C751 1.465 . S
C757 C756 1.396 . S
C757 C758 1.399 . S
C758 H744 0.929 . S
C758 C757 1.399 . S
C758 C759 1.385 1_545 S
C759 H745 0.931 . S
C759 C758 1.385 1_565 S
C759 C760 1.389 . S
C760 C759 1.389 . S
C760 C761 1.387 . S
C761 H746 0.930 . S
C761 C756 1.390 1_565 S
C761 C760 1.387 . S
H762 C774 0.930 . S
H763 C776 0.930 . S
H764 C777 0.930 . S
H765 C781 0.959 . S
H766 C781 0.959 . S
H767 C781 0.961 . S
H768 C782 0.960 . S
H769 C782 0.961 . S
H770 C782 0.959 . S
H771 C785 0.929 . S
H772 C786 0.931 . S
H773 C788 0.930 . S
C774 H762 0.930 . S
C774 C775 1.399 . S
C774 C779 1.399 . S
C775 C774 1.399 . S
C775 C776 1.376 . S
C776 H763 0.930 . S
C776 C775 1.376 . S
C776 C777 1.388 . S
C777 H764 0.930 . S
C777 C776 1.388 . S
C777 C778 1.390 . S
C778 C777 1.390 . S
C778 C779 1.394 . S
C778 C784 1.465 . S
C779 C774 1.399 . S
C779 C778 1.394 . S
C779 C780 1.516 . S
C780 C779 1.516 . S
C780 C781 1.502 . S
C780 C782 1.561 . S
C780 C783 1.526 . S
C781 H765 0.959 . S
C781 H766 0.959 . S
C781 H767 0.961 . S
C781 C780 1.502 . S
C782 H768 0.960 . S
C782 H769 0.961 . S
C782 H770 0.959 . S
C782 C780 1.561 . S
C783 C780 1.526 . S
C783 C784 1.396 . S
C783 C788 1.390 . S
C784 C778 1.465 . S
C784 C783 1.396 . S
C784 C785 1.399 . S
C785 H771 0.929 . S
C785 C784 1.399 . S
C785 C786 1.385 . S
C786 H772 0.931 . S
C786 C785 1.385 . S
C786 C787 1.389 . S
C787 C786 1.389 . S
C787 C788 1.387 . S
C788 H773 0.930 . S
C788 C783 1.390 . S
C788 C787 1.387 . S
H789 C801 0.930 . S
H790 C803 0.930 . S
H791 C804 0.930 . S
H792 C808 0.959 . S
H793 C808 0.959 . S
H794 C808 0.961 . S
H795 C809 0.960 . S
H796 C809 0.961 . S
H797 C809 0.959 . S
H798 C812 0.923 1_556 S
H799 C813 0.931 . S
H800 C815 0.930 . S
C801 H789 0.930 . S
C801 C802 1.399 . S
C801 C806 1.399 . S
C802 C801 1.399 . S
C802 C803 1.376 . S
C803 H790 0.930 . S
C803 C802 1.376 . S
C803 C804 1.388 . S
C804 H791 0.930 . S
C804 C803 1.388 . S
C804 C805 1.390 . S
C805 C804 1.390 . S
C805 C806 1.394 . S
C805 C811 1.465 . S
C806 C801 1.399 . S
C806 C805 1.394 . S
C806 C807 1.516 . S
C807 C806 1.516 . S
C807 C808 1.502 . S
C807 C809 1.561 1_556 S
C807 C810 1.526 1_556 S
C808 H792 0.959 . S
C808 H793 0.959 . S
C808 H794 0.961 . S
C808 C807 1.502 . S
C809 H795 0.960 . S
C809 H796 0.961 . S
C809 H797 0.959 . S
C809 C807 1.561 1_554 S
C810 C807 1.526 1_554 S
C810 C811 1.396 1_554 S
C810 C815 1.390 1_655 S
C811 C805 1.465 . S
C811 C810 1.396 1_556 S
C811 C812 1.399 1_556 S
C812 H798 0.923 1_554 S
C812 C811 1.399 1_554 S
C812 C813 1.385 1_655 S
C813 H799 0.931 . S
C813 C812 1.385 1_455 S
C813 C814 1.389 . S
C814 C813 1.389 . S
C814 C815 1.387 . S
C815 H800 0.930 . S
C815 C810 1.390 1_455 S
C815 C814 1.387 . S
H816 C828 0.930 . S
H817 C830 0.930 . S
H818 C831 0.930 . S
H819 C835 0.959 . S
H820 C835 0.959 . S
H821 C835 0.961 . S
H822 C836 0.960 . S
H823 C836 0.961 1_545 S
H824 C836 0.959 . S
H825 C839 0.929 . S
H826 C840 0.931 1_545 S
H827 C842 0.930 . S
C828 H816 0.930 . S
C828 C829 1.399 . S
C828 C833 1.399 . S
C829 C828 1.399 . S
C829 C830 1.376 . S
C830 H817 0.930 . S
C830 C829 1.376 . S
C830 C831 1.388 . S
C831 H818 0.930 . S
C831 C830 1.388 . S
C831 C832 1.390 . S
C832 C831 1.390 . S
C832 C833 1.394 . S
C832 C838 1.465 . S
C833 C828 1.399 . S
C833 C832 1.394 . S
C833 C834 1.516 . S
C834 C833 1.516 . S
C834 C835 1.502 . S
C834 C836 1.561 . S
C834 C837 1.526 . S
C835 H819 0.959 . S
C835 H820 0.959 . S
C835 H821 0.961 . S
C835 C834 1.502 . S
C836 H822 0.960 . S
C836 H823 0.961 1_565 S
C836 H824 0.959 . S
C836 C834 1.561 . S
C837 C834 1.526 . S
C837 C838 1.396 . S
C837 C842 1.390 1_565 S
C838 C832 1.465 . S
C838 C837 1.396 . S
C838 C839 1.399 . S
C839 H825 0.929 . S
C839 C838 1.399 . S
C839 C840 1.385 . S
C840 H826 0.931 1_565 S
C840 C839 1.385 . S
C840 C841 1.389 1_565 S
C841 C840 1.389 1_545 S
C841 C842 1.387 . S
C842 H827 0.930 . S
C842 C837 1.390 1_545 S
C842 C841 1.387 . S
H843 C855 0.930 . S
H844 C857 0.930 . S
H845 C858 0.930 . S
H846 C862 0.959 . S
H847 C862 0.959 . S
H848 C862 0.961 . S
H849 C863 0.960 . S
H850 C863 0.961 . S
H851 C863 0.959 . S
H852 C866 0.929 . S
H853 C867 0.931 . S
H854 C869 0.930 . S
C855 H843 0.930 . S
C855 C856 1.399 . S
C855 C860 1.399 . S
C856 C855 1.399 . S
C856 C857 1.376 . S
C857 H844 0.930 . S
C857 C856 1.376 . S
C857 C858 1.388 . S
C858 H845 0.930 . S
C858 C857 1.388 . S
C858 C859 1.390 . S
C859 C858 1.390 . S
C859 C860 1.394 . S
C859 C865 1.465 . S
C860 C855 1.399 . S
C860 C859 1.394 . S
C860 C861 1.516 . S
C861 C860 1.516 . S
C861 C862 1.502 . S
C861 C863 1.561 . S
C861 C864 1.526 . S
C862 H846 0.959 . S
C862 H847 0.959 . S
C862 H848 0.961 . S
C862 C861 1.502 . S
C863 H849 0.960 . S
C863 H850 0.961 . S
C863 H851 0.959 . S
C863 C861 1.561 . S
C864 C861 1.526 . S
C864 C865 1.396 . S
C864 C869 1.390 . S
C865 C859 1.465 . S
C865 C864 1.396 . S
C865 C866 1.399 . S
C866 H852 0.929 . S
C866 C865 1.399 . S
C866 C867 1.385 . S
C867 H853 0.931 . S
C867 C866 1.385 . S
C867 C868 1.389 . S
C868 C867 1.389 . S
C868 C869 1.387 . S
C869 H854 0.930 . S
C869 C864 1.390 . S
C869 C868 1.387 . S
H870 C882 0.930 . S
H871 C884 0.930 . S
H872 C885 0.930 . S
H873 C889 0.959 . S
H874 C889 0.959 . S
H875 C889 0.961 . S
H876 C890 0.960 . S
H877 C890 0.961 . S
H878 C890 0.959 . S
H879 C893 0.929 . S
H880 C894 0.931 . S
H881 C896 0.930 . S
C882 H870 0.930 . S
C882 C883 1.399 . S
C882 C887 1.399 . S
C883 C882 1.399 . S
C883 C884 1.376 . S
C884 H871 0.930 . S
C884 C883 1.376 . S
C884 C885 1.388 . S
C885 H872 0.930 . S
C885 C884 1.388 . S
C885 C886 1.390 . S
C886 C885 1.390 . S
C886 C887 1.394 . S
C886 C892 1.465 . S
C887 C882 1.399 . S
C887 C886 1.394 . S
C887 C888 1.516 . S
C888 C887 1.516 . S
C888 C889 1.502 . S
C888 C890 1.561 . S
C888 C891 1.526 . S
C889 H873 0.959 . S
C889 H874 0.959 . S
C889 H875 0.961 . S
C889 C888 1.502 . S
C890 H876 0.960 . S
C890 H877 0.961 . S
C890 H878 0.959 . S
C890 C888 1.561 . S
C891 C888 1.526 . S
C891 C892 1.396 . S
C891 C896 1.390 1_455 S
C892 C886 1.465 . S
C892 C891 1.396 . S
C892 C893 1.399 . S
C893 H879 0.929 . S
C893 C892 1.399 . S
C893 C894 1.385 1_455 S
C894 H880 0.931 . S
C894 C893 1.385 1_655 S
C894 C895 1.389 . S
C895 C894 1.389 . S
C895 C896 1.387 . S
C896 H881 0.930 . S
C896 C891 1.390 1_655 S
C896 C895 1.387 . S
H897 C909 0.930 . S
H898 C911 0.930 . S
H899 C912 0.930 . S
H900 C916 0.959 . S
H901 C916 0.959 . S
H902 C916 0.961 . S
H903 C917 0.960 . S
H904 C917 0.961 . S
H905 C917 0.959 . S
H906 C920 0.929 . S
H907 C921 0.931 . S
H908 C923 0.930 . S
C909 H897 0.930 . S
C909 C910 1.399 1_545 S
C909 C914 1.399 . S
C910 C909 1.399 1_565 S
C910 C911 1.376 . S
C911 H898 0.930 . S
C911 C910 1.376 . S
C911 C912 1.388 . S
C912 H899 0.930 . S
C912 C911 1.388 . S
C912 C913 1.390 1_565 S
C913 C912 1.390 1_545 S
C913 C914 1.394 . S
C913 C919 1.465 . S
C914 C909 1.399 . S
C914 C913 1.394 . S
C914 C915 1.516 . S
C915 C914 1.516 . S
C915 C916 1.502 . S
C915 C917 1.561 . S
C915 C918 1.526 . S
C916 H900 0.959 . S
C916 H901 0.959 . S
C916 H902 0.961 . S
C916 C915 1.502 . S
C917 H903 0.960 . S
C917 H904 0.961 . S
C917 H905 0.959 . S
C917 C915 1.561 . S
C918 C915 1.526 . S
C918 C919 1.396 . S
C918 C923 1.390 . S
C919 C913 1.465 . S
C919 C918 1.396 . S
C919 C920 1.399 . S
C920 H906 0.929 . S
C920 C919 1.399 . S
C920 C921 1.385 . S
C921 H907 0.931 . S
C921 C920 1.385 . S
C921 C922 1.389 . S
C922 C921 1.389 . S
C922 C923 1.387 . S
C923 H908 0.930 . S
C923 C918 1.390 . S
C923 C922 1.387 . S
C289 N196 1.704 . S
C301 N12 1.694 . S
C316 N35 1.694 . S
C328 N219 1.704 . S
C343 N58 1.670 . S
C355 N242 1.686 . S
C370 N81 1.652 . S
C382 N265 1.660 . S
C397 N150 1.658 . S
C409 N104 1.653 . S
C424 N127 1.699 . S
C436 N173 1.686 . S
C451 N209 1.282 . S
C463 N2 1.163 . S
C478 N25 1.166 . S
C490 N232 1.288 . S
C505 N255 1.163 . S
C517 N48 1.286 . S
C532 N71 1.234 . S
C544 N140 1.190 . S
C559 N163 1.222 . S
C571 N94 1.201 . S
C586 N186 1.166 . S
C598 N117 1.268 . S
C613 C16 1.940 . S
C625 C122 1.915 . S
C640 C39 1.923 . S
C652 C7 1.894 . S
C667 C30 1.892 . S
C679 C62 1.923 . S
C694 C85 1.943 . S
C706 C53 1.919 . S
C721 C108 1.967 . S
C733 C76 1.948 . S
C748 C131 1.966 . S
C760 C99 1.947 . S
C775 C154 1.925 . S
C787 C168 1.897 . S
C802 C177 1.966 . S
C814 C191 1.947 . S
C829 C200 1.927 . S
C841 C214 1.900 . S
C856 C223 1.922 . S
C868 C237 1.893 . S
C883 C246 1.922 . S
C895 C260 1.893 . S
C910 C145 1.913 . S
C922 C269 1.940 . S
