# Generated by pormake.
# Topology smm, (6)-cn, num edge types: 1
# Building blocks:
#     Node 0, Type 0, BuildingBlock: BETDEL_clean_sbu_0, # of connection points: 6
#     Node 1, Type 0, BuildingBlock: BETDEL_clean_sbu_0, # of connection points: 6
#     Node 2, Type 0, BuildingBlock: BETDEL_clean_sbu_0, # of connection points: 6
#     Node 3, Type 0, BuildingBlock: BETDEL_clean_sbu_0, # of connection points: 6
#     Node 4, Type 0, BuildingBlock: BETDEL_clean_sbu_0, # of connection points: 6
#     Node 5, Type 0, BuildingBlock: BETDEL_clean_sbu_0, # of connection points: 6
#     Node 6, Type 0, BuildingBlock: BETDEL_clean_sbu_0, # of connection points: 6
#     Node 7, Type 0, BuildingBlock: BETDEL_clean_sbu_0, # of connection points: 6
#     Node 8, Type 0, BuildingBlock: BETDEL_clean_sbu_0, # of connection points: 6
#     Edge 9, Type (0, 0), BuildingBlock: KIFKEQ_clean_linker_1, # of connection points: 2
#     Edge 10, Type (0, 0), BuildingBlock: KIFKEQ_clean_linker_1, # of connection points: 2
#     Edge 11, Type (0, 0), BuildingBlock: KIFKEQ_clean_linker_1, # of connection points: 2
#     Edge 12, Type (0, 0), BuildingBlock: KIFKEQ_clean_linker_1, # of connection points: 2
#     Edge 13, Type (0, 0), BuildingBlock: KIFKEQ_clean_linker_1, # of connection points: 2
#     Edge 14, Type (0, 0), BuildingBlock: KIFKEQ_clean_linker_1, # of connection points: 2
#     Edge 15, Type (0, 0), BuildingBlock: KIFKEQ_clean_linker_1, # of connection points: 2
#     Edge 16, Type (0, 0), BuildingBlock: KIFKEQ_clean_linker_1, # of connection points: 2
#     Edge 17, Type (0, 0), BuildingBlock: KIFKEQ_clean_linker_1, # of connection points: 2
#     Edge 18, Type (0, 0), BuildingBlock: KIFKEQ_clean_linker_1, # of connection points: 2
#     Edge 19, Type (0, 0), BuildingBlock: KIFKEQ_clean_linker_1, # of connection points: 2
#     Edge 20, Type (0, 0), BuildingBlock: KIFKEQ_clean_linker_1, # of connection points: 2
#     Edge 21, Type (0, 0), BuildingBlock: KIFKEQ_clean_linker_1, # of connection points: 2
#     Edge 22, Type (0, 0), BuildingBlock: KIFKEQ_clean_linker_1, # of connection points: 2
#     Edge 23, Type (0, 0), BuildingBlock: KIFKEQ_clean_linker_1, # of connection points: 2
#     Edge 24, Type (0, 0), BuildingBlock: KIFKEQ_clean_linker_1, # of connection points: 2
#     Edge 25, Type (0, 0), BuildingBlock: KIFKEQ_clean_linker_1, # of connection points: 2
#     Edge 26, Type (0, 0), BuildingBlock: KIFKEQ_clean_linker_1, # of connection points: 2
#     Edge 27, Type (0, 0), BuildingBlock: KIFKEQ_clean_linker_1, # of connection points: 2
#     Edge 28, Type (0, 0), BuildingBlock: KIFKEQ_clean_linker_1, # of connection points: 2
#     Edge 29, Type (0, 0), BuildingBlock: KIFKEQ_clean_linker_1, # of connection points: 2
#     Edge 30, Type (0, 0), BuildingBlock: KIFKEQ_clean_linker_1, # of connection points: 2
#     Edge 31, Type (0, 0), BuildingBlock: KIFKEQ_clean_linker_1, # of connection points: 2
#     Edge 32, Type (0, 0), BuildingBlock: KIFKEQ_clean_linker_1, # of connection points: 2
#     Edge 33, Type (0, 0), BuildingBlock: KIFKEQ_clean_linker_1, # of connection points: 2
#     Edge 34, Type (0, 0), BuildingBlock: KIFKEQ_clean_linker_1, # of connection points: 2
#     Edge 35, Type (0, 0), BuildingBlock: KIFKEQ_clean_linker_1, # of connection points: 2
# Relax obj value: 0.069
# Max RMSD: 0.141
# Mean RMSD: 0.141
data_MOF--net-smm--node1-BETDEL_clean_sbu_0--edge1-KIFKEQ_clean_linker_1
_symmetry_space_group_name_H-M    P1
_symmetry_Int_Tables_number       1
_symmetry_cell_setting            triclinic
loop_
_symmetry_equiv_pos_as_xyz
'x, y, z'
_cell_length_a     57.358575
_cell_length_b     57.375788
_cell_length_c     14.539169
_cell_angle_alpha  90.016193
_cell_angle_beta   89.96829
_cell_angle_gamma 119.87909
loop_
_atom_site_label
_atom_site_type_symbol
_atom_site_fract_x
_atom_site_fract_y
_atom_site_fract_z
_atom_type_partial_charge
Dy0 Dy 0.06346 0.23189 0.9737 0.0
C1 C 0.98606 0.12003 0.01426 0.0
C2 C 0.09537 0.2813 0.89559 0.0
Dy3 Dy 1.01705 0.17474 0.002 0.0
O4 O 0.09736 0.27486 0.9797 0.0
O5 O 0.07613 0.26066 0.85389 0.0
O6 O 0.08017 0.23411 0.11344 0.0
O7 O 0.03839 0.20992 0.09127 0.0
C8 C 0.05722 0.21635 0.14852 0.0
C9 C 0.02529 0.19362 0.82991 0.0
O10 O 0.99403 0.19551 0.03662 0.0
O11 O 0.02698 0.23743 -0.01678 0.0
O12 O 1.00479 0.1333 0.95457 0.0
O13 O 0.98399 0.13678 0.06994 0.0
O14 O 1.00157 0.17875 0.86467 0.0
O15 O 0.04305 0.19684 0.88716 0.0
O16 O 0.08554 0.20891 0.95992 0.0
O17 O 0.05349 0.1721 0.04104 0.0
C18 C 1.00231 0.22099 0.01534 0.0
C19 C 0.07784 0.18602 0.00467 0.0
Dy20 Dy 0.84462 0.85755 0.97438 0.0
C21 C 0.95386 0.88241 0.04252 0.0
C22 C 0.79501 0.84056 0.89826 0.0
Dy23 Dy 0.90081 0.86529 0.00538 0.0
O24 O 0.80189 0.84932 -0.01814 0.0
O25 O 0.81541 0.84155 0.85569 0.0
O26 O 0.8438 0.87333 0.11344 0.0
O27 O 0.86563 0.85309 0.09261 0.0
C28 C 0.86056 0.86676 0.14896 0.0
C29 C 0.8835 0.85745 0.83089 0.0
O30 O 0.87721 0.82228 0.04894 0.0
O31 O 0.8371 0.81487 -0.01624 0.0
O32 O 0.93989 0.86642 0.97629 0.0
O33 O 0.93849 0.88831 0.09132 0.0
O34 O 0.89804 0.84807 0.86458 0.0
O35 O 0.88025 0.87155 0.88992 0.0
O36 O 0.86792 0.90234 0.95783 0.0
O37 O 0.90787 0.90739 0.01676 0.0
C38 C 0.85211 0.80579 0.02216 0.0
C39 C 0.89274 0.91761 -0.01056 0.0
Dy40 Dy 0.21627 1.01204 0.97963 0.0
C41 C 0.19094 0.09671 0.04033 0.0
C42 C 0.23376 0.97838 0.91606 0.0
Dy43 Dy 0.20737 0.05998 0.00721 0.0
O44 O 0.23683 0.98772 -0.00086 0.0
O45 O 0.22067 0.98711 0.86733 0.0
O46 O 0.19924 0.99549 0.11727 0.0
O47 O 0.21974 0.03754 0.09668 0.0
C48 C 0.20577 0.01881 0.15258 0.0
C49 C 0.21671 0.05071 0.83416 0.0
O50 O 0.25037 0.07953 0.05072 0.0
O51 O 0.25821 0.04838 0.97579 0.0
O52 O 0.2049 0.09671 0.97031 0.0
O53 O 0.1865 0.0769 0.09474 0.0
O54 O 0.22553 0.07455 0.8676 0.0
O55 O 0.20242 0.03333 0.89269 0.0
O56 O 0.17134 0.98946 0.96911 0.0
O57 O 0.16524 0.02476 0.01759 0.0
C58 C 0.26711 0.07178 0.01877 0.0
C59 C 0.15559 0.99907 -0.00431 0.0
Dy60 Dy 0.72686 0.5639 0.31677 0.0
C61 C 0.64819 0.45184 0.34882 0.0
C62 C 0.7595 0.61507 0.25348 0.0
Dy63 Dy 0.68011 0.50653 0.34009 0.0
O64 O 0.74765 0.60879 0.33296 0.0
O65 O 0.75388 0.5933 0.20845 0.0
O66 O 0.74359 0.56433 0.45478 0.0
O67 O 0.70171 0.54089 0.43279 0.0
C68 C 0.72055 0.54659 0.48939 0.0
C69 C 0.68821 0.52699 0.17003 0.0
O70 O 0.65771 0.52759 0.37782 0.0
O71 O 0.68949 0.56801 0.31199 0.0
O72 O 0.66621 0.46523 0.28708 0.0
O73 O 0.64736 0.46845 0.40843 0.0
O74 O 0.66453 0.51151 0.20414 0.0
O75 O 0.70594 0.52977 0.22659 0.0
O76 O 0.75003 0.5419 0.30797 0.0
O77 O 0.71625 0.50288 0.37484 0.0
C78 C 0.6655 0.55246 0.35027 0.0
C79 C 0.74129 0.51777 0.3449 0.0
Dy80 Dy 0.5095 0.1885 0.31162 0.0
C81 C 0.61971 0.21547 0.3754 0.0
C82 C 0.45838 0.16997 0.24666 0.0
Dy83 Dy 0.56658 0.19829 0.34008 0.0
O84 O 0.46452 0.16515 0.32761 0.0
O85 O 0.48027 0.18539 0.20104 0.0
O86 O 0.50909 0.20498 0.44968 0.0
O87 O 0.53161 0.18543 0.42909 0.0
C88 C 0.52632 0.19903 0.48503 0.0
C89 C 0.54837 0.18885 0.16651 0.0
O90 O 0.54358 0.15565 0.38578 0.0
O91 O 0.50536 0.14705 0.30484 0.0
O92 O 0.60572 0.19991 0.30836 0.0
O93 O 0.60438 0.22106 0.42582 0.0
O94 O 0.56384 0.18056 0.20008 0.0
O95 O 0.54476 0.20281 0.22506 0.0
O96 O 0.53103 0.23354 0.30289 0.0
O97 O 0.57281 0.24008 0.34859 0.0
C98 C 0.51976 0.1385 0.35062 0.0
C99 C 0.55648 0.24946 0.32762 0.0
Dy100 Dy 0.88147 0.34327 0.30542 0.0
C101 C 0.84931 0.42292 0.35062 0.0
C102 C 0.89899 0.31112 0.22822 0.0
Dy103 Dy 0.87172 0.39067 0.33357 0.0
O104 O 0.88946 0.30855 0.31102 0.0
O105 O 0.89856 0.33101 0.18719 0.0
O106 O 0.86655 0.32671 0.44505 0.0
O107 O 0.88472 0.36853 0.42274 0.0
C108 C 0.87198 0.34978 0.47994 0.0
C109 C 0.88219 0.3821 0.1615 0.0
O110 O 0.91561 0.41299 0.36704 0.0
O111 O 0.92362 0.37891 0.31794 0.0
O112 O 0.84347 0.4046 0.28886 0.0
O113 O 0.86779 0.42388 0.40543 0.0
O114 O 0.89109 0.40589 0.1959 0.0
O115 O 0.86757 0.36448 0.21892 0.0
O116 O 0.83665 0.32197 0.28986 0.0
O117 O 0.83212 0.35446 0.36981 0.0
C118 C 0.93228 0.4038 0.34841 0.0
C119 C 0.82159 0.33004 0.33366 0.0
Dy120 Dy 0.39496 0.89671 0.64633 0.0
C121 C 0.31522 0.78534 0.6891 0.0
C122 C 0.42705 0.9461 0.56862 0.0
Dy123 Dy 0.34768 0.83985 0.67379 0.0
O124 O 0.42933 0.93942 0.65213 0.0
O125 O 0.40747 0.92567 0.5272 0.0
O126 O 0.41165 0.89814 0.78551 0.0
O127 O 0.36976 0.87474 0.76367 0.0
C128 C 0.38857 0.88062 0.82057 0.0
C129 C 0.35625 0.85901 0.502 0.0
O130 O 0.32527 0.86141 0.70767 0.0
O131 O 0.3594 0.90346 0.65952 0.0
O132 O 0.33362 0.79785 0.62762 0.0
O133 O 0.31433 0.80274 0.74475 0.0
O134 O 0.33245 0.84428 0.53646 0.0
O135 O 0.37384 0.86183 0.55928 0.0
O136 O 0.41642 0.87328 0.63063 0.0
O137 O 0.38387 0.83616 0.70946 0.0
C138 C 0.33448 0.88727 0.68972 0.0
C139 C 0.40835 0.8501 0.67375 0.0
Dy140 Dy 0.17454 0.52272 0.64252 0.0
C141 C 0.28704 0.55767 0.6776 0.0
C142 C 0.12326 0.50404 0.57909 0.0
Dy143 Dy 0.23224 0.53393 0.66666 0.0
O144 O 0.12962 0.4987 0.65881 0.0
O145 O 0.14502 0.52 0.53374 0.0
O146 O 0.17358 0.53853 0.78104 0.0
O147 O 0.19759 0.52065 0.75865 0.0
C148 C 0.1915 0.53343 0.8156 0.0
C149 C 0.21217 0.52175 0.49609 0.0
O150 O 0.21163 0.49059 0.70388 0.0
O151 O 0.17108 0.48154 0.63748 0.0
O152 O 0.27362 0.56338 0.61917 0.0
O153 O 0.2704 0.5386 0.73258 0.0
O154 O 0.22806 0.51398 0.52999 0.0
O155 O 0.20893 0.53636 0.55293 0.0
O156 O 0.19622 0.56785 0.63529 0.0
O157 O 0.235 0.57306 0.70439 0.0
C158 C 0.18688 0.47336 0.67585 0.0
C159 C 0.22011 0.58317 0.6739 0.0
Dy160 Dy 0.55018 0.67993 0.64222 0.0
C161 C 0.52439 0.76381 0.71116 0.0
C162 C 0.56687 0.64704 0.56548 0.0
Dy163 Dy 0.54153 0.72781 0.6742 0.0
O164 O 0.55909 0.64586 0.65013 0.0
O165 O 0.56521 0.666 0.52238 0.0
O166 O 0.53469 0.66329 0.78151 0.0
O167 O 0.5544 0.70524 0.76071 0.0
C168 C 0.541 0.6865 0.81719 0.0
C169 C 0.54953 0.71858 0.49947 0.0
O170 O 0.58452 0.74732 0.71786 0.0
O171 O 0.59271 0.71559 0.64885 0.0
O172 O 0.53962 0.76522 0.64309 0.0
O173 O 0.5192 0.74307 0.76181 0.0
O174 O 0.55878 0.74241 0.5335 0.0
O175 O 0.53557 0.70117 0.55842 0.0
O176 O 0.50527 0.65815 0.62644 0.0
O177 O 0.49961 0.69265 0.68589 0.0
C178 C 0.60144 0.73943 0.68881 0.0
C179 C 0.48969 0.66741 0.65817 0.0
H180 H 0.1344 0.32647 0.97916 0.0
H181 H 0.09166 0.29762 0.72265 0.0
H182 H 0.15802 0.37213 0.91788 0.0
H183 H 0.11565 0.34323 0.66025 0.0
H184 H 0.13642 0.43205 0.6353 0.0
H185 H 0.11611 0.38526 0.68235 0.0
H186 H 0.19112 0.40157 0.80691 0.0
H187 H 0.21136 0.4486 0.76146 0.0
C188 C 0.13033 0.32987 0.90919 0.0
C189 C 0.11114 0.30854 0.85578 0.0
C190 C 0.14398 0.35602 0.87377 0.0
C191 C 0.13873 0.36143 0.78406 0.0
C192 C 0.11994 0.33988 0.72998 0.0
C193 C 0.1063 0.31372 0.76547 0.0
C194 C 0.14874 0.42567 0.67178 0.0
C195 C 0.17553 0.44424 0.69494 0.0
C196 C 0.13708 0.39872 0.69845 0.0
C197 C 0.1519 0.38961 0.74898 0.0
C198 C 0.17898 0.40797 0.76936 0.0
C199 C 0.19065 0.43494 0.74264 0.0
H200 H 0.77742 0.81897 0.72768 0.0
H201 H 0.75032 0.83491 -0.01533 0.0
H202 H 0.73125 0.79647 0.66978 0.0
H203 H 0.70416 0.81202 0.92796 0.0
H204 H 0.62677 0.78838 0.77517 0.0
H205 H 0.67393 0.81481 0.81885 0.0
H206 H 0.68927 0.75518 0.69618 0.0
H207 H 0.64222 0.72897 0.65081 0.0
C208 C 0.76159 0.81779 0.77154 0.0
C209 C 0.76744 0.82868 0.86065 0.0
C210 C 0.73511 0.80473 0.73868 0.0
C211 C 0.71389 0.80231 0.79423 0.0
C212 C 0.71997 0.81379 0.88273 0.0
C213 C 0.74643 0.82681 0.91552 0.0
C214 C 0.64021 0.78097 0.75673 0.0
C215 C 0.63057 0.75643 0.7097 0.0
C216 C 0.66727 0.79609 0.78237 0.0
C217 C 0.68545 0.7871 0.76164 0.0
C218 C 0.67595 0.7629 0.71249 0.0
C219 C 0.64887 0.74777 0.68686 0.0
H220 H 0.27197 0.9711 -0.0009 0.0
H221 H 0.22323 0.95038 0.75386 0.0
H222 H 0.2948 0.94801 0.93843 0.0
H223 H 0.24573 0.92644 0.69422 0.0
H224 H 0.27951 0.86237 0.71078 0.0
H225 H 0.253 0.88303 0.76159 0.0
H226 H 0.32547 0.96014 0.77791 0.0
H227 H 0.35181 0.94 0.72523 0.0
C228 C 0.26589 0.9613 0.93273 0.0
C229 C 0.24587 0.96258 0.88105 0.0
C230 C 0.279 0.94816 0.89804 0.0
C231 C 0.272 0.93551 0.81178 0.0
C232 C 0.25137 0.93597 0.76111 0.0
C233 C 0.2386 0.94968 0.79506 0.0
C234 C 0.2897 0.88378 0.72415 0.0
C235 C 0.31777 0.89952 0.71377 0.0
C236 C 0.27454 0.89556 0.75293 0.0
C237 C 0.28728 0.92311 0.77386 0.0
C238 C 0.31521 0.93884 0.76239 0.0
C239 C 0.33024 0.92727 0.7318 0.0
H240 H 0.44048 0.18461 0.09429 0.0
H241 H 0.41383 0.127 0.31619 0.0
H242 H 0.39437 0.16236 0.03252 0.0
H243 H 0.36827 0.10445 0.25295 0.0
H244 H 0.30359 0.05457 0.02852 0.0
H245 H 0.35025 0.07982 0.0805 0.0
H246 H 0.34344 0.15096 0.11044 0.0
H247 H 0.29627 0.12551 0.06079 0.0
C248 C 0.42479 0.16727 0.12978 0.0
C249 C 0.43067 0.15754 0.21006 0.0
C250 C 0.39851 0.15463 0.09461 0.0
C251 C 0.37792 0.13168 0.13793 0.0
C252 C 0.38385 0.12204 0.21815 0.0
C253 C 0.40987 0.13501 0.25441 0.0
C254 C 0.31205 0.07567 0.045 0.0
C255 C 0.29619 0.08803 0.04061 0.0
C256 C 0.33873 0.09005 0.0751 0.0
C257 C 0.35033 0.11726 0.09944 0.0
C258 C 0.33492 0.13 0.09165 0.0
C259 C 0.30797 0.11543 0.06351 0.0
H260 H 0.90366 0.27103 0.31141 0.0
H261 H 0.92145 0.31618 0.0587 0.0
H262 H 0.92663 0.24785 0.25313 0.0
H263 H 0.944 0.29267 -0.00069 0.0
H264 H 1.01211 0.27208 -0.01797 0.0
H265 H 0.98514 0.29202 0.02801 0.0
H266 H 0.9251 0.21584 0.14086 0.0
H267 H 0.95238 0.19592 0.09641 0.0
C268 C 0.91219 0.27572 0.24285 0.0
C269 C 0.91086 0.29547 0.18973 0.0
C270 C 0.92524 0.26234 0.20916 0.0
C271 C 0.9373 0.26843 0.12152 0.0
C272 C 0.93531 0.28774 0.06757 0.0
C273 C 0.92224 0.3011 0.1013 0.0
C274 C 0.99306 0.25944 0.01593 0.0
C275 C 0.98454 0.23236 0.03576 0.0
C276 C 0.97747 0.27089 0.04191 0.0
C277 C 0.95292 0.2556 0.08848 0.0
C278 C 0.94406 0.22833 0.10624 0.0
C279 C 0.95965 0.21684 0.0801 0.0
H280 H 0.87656 0.77615 0.05929 0.0
H281 H 0.79856 0.77015 0.04059 0.0
H282 H 0.855 0.72918 0.11072 0.0
H283 H 0.77735 0.72367 0.0939 0.0
H284 H 0.76058 0.65947 0.32243 0.0
H285 H 0.78353 0.70501 0.25939 0.0
H286 H 0.81635 0.67911 0.04105 0.0
H287 H 0.79264 0.63305 0.10285 0.0
C288 C 0.85486 0.76479 0.0655 0.0
C289 C 0.83927 0.77688 0.04592 0.0
C290 C 0.84258 0.73795 0.09459 0.0
C291 C 0.81458 0.72297 0.10655 0.0
C292 C 0.79899 0.73488 0.08551 0.0
C293 C 0.81116 0.76145 0.0546 0.0
C294 C 0.77277 0.66348 0.26119 0.0
C295 C 0.77483 0.64276 0.21738 0.0
C296 C 0.78578 0.68948 0.22502 0.0
C297 C 0.80158 0.69545 0.14535 0.0
C298 C 0.8043 0.67494 0.1027 0.0
C299 C 0.79075 0.64869 0.13787 0.0
H300 H 0.07867 0.46193 0.65193 0.0
H301 H 0.10519 0.51809 0.42564 0.0
H302 H 0.03304 0.43923 0.58985 0.0
H303 H 0.05902 0.49559 0.36454 0.0
H304 H 0.96164 0.45847 0.3774 0.0
H305 H 1.00857 0.48469 0.42926 0.0
H306 H 1.01464 0.41274 0.42864 0.0
H307 H 0.96836 0.38671 0.37528 0.0
C308 C 0.07467 0.4696 0.58941 0.0
C309 C 0.09547 0.49172 0.54342 0.0
C310 C 0.04859 0.45655 0.55382 0.0
C311 C 0.04259 0.46564 0.47238 0.0
C312 C 0.06317 0.48828 0.42762 0.0
C313 C 0.0895 0.50106 0.46236 0.0
C314 C 0.97312 0.44834 0.38725 0.0
C315 C 0.9612 0.42048 0.37218 0.0
C316 C 0.99994 0.46335 0.41663 0.0
C317 C 1.01507 0.45065 0.43335 0.0
C318 C 1.00334 0.42297 0.4167 0.0
C319 C 0.97684 0.40812 0.38568 0.0
H320 H 0.58614 0.64936 0.39188 0.0
H321 H 0.57312 0.60833 0.65169 0.0
H322 H 0.6073 0.62463 0.33105 0.0
H323 H 0.59466 0.58396 0.59192 0.0
H324 H 0.61677 0.52902 0.43906 0.0
H325 H 0.59046 0.54997 0.48366 0.0
H326 H 0.64874 0.62383 0.35244 0.0
H327 H 0.67475 0.60281 0.30635 0.0
C328 C 0.58768 0.63493 0.43577 0.0
C329 C 0.57804 0.6308 0.52655 0.0
C330 C 0.59994 0.62087 0.40117 0.0
C331 C 0.60281 0.60232 0.45658 0.0
C332 C 0.59252 0.59779 0.54679 0.0
C333 C 0.5803 0.61187 0.58133 0.0
C334 C 0.62382 0.54962 0.41861 0.0
C335 C 0.64798 0.56421 0.3693 0.0
C336 C 0.6088 0.56171 0.44485 0.0
C337 C 0.61753 0.58869 0.42231 0.0
C338 C 0.64121 0.60296 0.37027 0.0
C339 C 0.65624 0.59089 0.34416 0.0
H340 H 0.54328 0.11338 0.43921 0.0
H341 H 0.46913 0.09761 0.3088 0.0
H342 H 0.52254 0.06636 0.48445 0.0
H343 H 0.44822 0.05071 0.35595 0.0
H344 H 0.42334 0.96276 0.39622 0.0
H345 H 0.44729 1.00852 0.335 0.0
H346 H 0.48936 0.0369 0.5934 0.0
H347 H 0.46587 0.99111 0.65331 0.0
C348 C 0.52259 0.09988 0.41967 0.0
C349 C 0.50786 0.10938 0.37062 0.0
C350 C 0.51063 0.07291 0.44623 0.0
C351 C 0.48361 0.05471 0.42462 0.0
C352 C 0.46914 0.06404 0.37303 0.0
C353 C 0.48112 0.09102 0.34627 0.0
C354 C 0.43792 0.97879 0.43943 0.0
C355 C 0.44276 0.97342 0.52949 0.0
C356 C 0.45151 1.00503 0.40464 0.0
C357 C 0.47023 0.02649 0.45925 0.0
C358 C 0.4754 0.02089 0.54883 0.0
C359 C 0.46183 0.99466 0.58347 0.0
H360 H 0.15774 0.09696 0.17551 0.0
H361 H 0.19522 0.13449 0.9184 0.0
H362 H 0.13283 0.12132 0.17482 0.0
H363 H 0.16979 0.15804 0.91555 0.0
H364 H 0.13159 0.21005 0.95915 0.0
H365 H 0.16163 0.19162 0.97838 0.0
H366 H 0.09601 0.11899 0.09298 0.0
H367 H 0.06648 0.13758 0.07646 0.0
C368 C 0.16084 0.11063 0.1194 0.0
C369 C 0.17834 0.11376 0.04697 0.0
C370 C 0.1464 0.12443 0.11838 0.0
C371 C 0.14899 0.1415 0.04451 0.0
C372 C 0.1674 0.14537 0.97407 0.0
C373 C 0.18192 0.13172 0.97545 0.0
C374 C 0.12366 0.19021 -0.01117 0.0
C375 C 0.09659 0.17536 0.01615 0.0
C376 C 0.14086 0.17957 -0.00035 0.0
C377 C 0.13136 0.15378 0.03767 0.0
C378 C 0.10431 0.13911 0.06533 0.0
C379 C 0.08723 0.14975 0.05499 0.0
H380 H 0.94538 0.95482 0.01468 0.0
H381 H 0.86718 0.94754 0.97924 0.0
H382 H 0.96569 1.00324 0.02676 0.0
H383 H 0.88795 0.99669 -0.0084 0.0
H384 H 0.94121 0.08624 0.11812 0.0
H385 H 0.91628 0.03659 0.11407 0.0
H386 H 0.97094 0.03804 0.90703 0.0
H387 H 0.99538 0.08675 0.91063 0.0
C388 C 0.93244 0.9635 0.00957 0.0
C389 C 0.90462 0.94722 -0.00481 0.0
C390 C 0.94415 0.99132 0.01652 0.0
C391 C 0.92841 1.00372 0.00998 0.0
C392 C 0.9005 0.98758 -0.00255 0.0
C393 C 0.8887 0.95954 -0.01055 0.0
C394 C 0.94775 0.0758 0.07197 0.0
C395 C 0.97032 0.09033 0.01522 0.0
C396 C 0.93344 0.04752 0.06917 0.0
C397 C 0.94183 0.03353 0.01058 0.0
C398 C 0.96419 0.04823 0.95357 0.0
C399 C 0.97817 0.07619 0.95566 0.0
H400 H 0.98766 0.8745 0.93248 0.0
H401 H 0.98709 0.92162 0.16294 0.0
H402 H 0.0365 0.90149 0.92452 0.0
H403 H 0.03616 0.94831 0.15688 0.0
H404 H 0.11698 1.012 0.0385 0.0
H405 H 0.06899 0.98207 0.05745 0.0
H406 H 0.07901 0.91394 -0.0048 0.0
H407 H 0.12722 0.9441 0.97405 0.0
C408 C 0.99806 0.8903 -0.01721 0.0
C409 C 0.98355 0.89602 0.04817 0.0
C410 C 0.02613 0.90575 0.9784 0.0
C411 C 0.04038 0.92732 0.03941 0.0
C412 C 0.02585 0.93221 0.1076 0.0
C413 C 0.99774 0.91675 0.11182 0.0
C414 C 0.10905 0.99065 0.02861 0.0
C415 C 0.1261 0.98054 0.00443 0.0
C416 C 0.08145 0.9734 0.04045 0.0
C417 C 0.07002 0.94548 0.02875 0.0
C418 C 0.08703 0.93533 0.00412 0.0
C419 C 0.11472 0.95265 -0.00791 0.0
H420 H 0.72697 0.46616 0.38629 0.0
H421 H 0.79656 0.54308 0.32322 0.0
H422 H 0.7552 0.44583 0.39419 0.0
H423 H 0.8251 0.52226 0.33211 0.0
H424 H 0.86229 0.46797 0.45642 0.0
H425 H 0.83834 0.49378 0.45953 0.0
H426 H 0.78214 0.43977 0.25822 0.0
H427 H 0.80581 0.41456 0.25413 0.0
C428 C 0.74836 0.47889 0.37495 0.0
C429 C 0.75942 0.50631 0.35347 0.0
C430 C 0.76453 0.46714 0.37951 0.0
C431 C 0.79229 0.48245 0.36367 0.0
C432 C 0.80373 0.51007 0.34517 0.0
C433 C 0.78738 0.52189 0.33941 0.0
C434 C 0.84486 0.46178 0.41292 0.0
C435 C 0.83582 0.43918 0.35547 0.0
C436 C 0.83132 0.47659 0.41423 0.0
C437 C 0.80835 0.46865 0.35931 0.0
C438 C 0.79965 0.44623 0.30169 0.0
C439 C 0.81325 0.4318 0.29944 0.0
H440 H 0.60627 0.4179 0.46351 0.0
H441 H 0.65383 0.41866 0.23189 0.0
H442 H 0.58146 0.36825 0.45973 0.0
H443 H 0.62952 0.36993 0.22861 0.0
H444 H 0.60928 0.28772 0.33512 0.0
H445 H 0.62891 0.33609 0.34501 0.0
H446 H 0.54976 0.32745 0.34274 0.0
H447 H 0.52966 0.2783 0.33252 0.0
C448 C 0.61133 0.40752 0.41192 0.0
C449 C 0.63212 0.42213 0.34855 0.0
C450 C 0.59708 0.37923 0.40937 0.0
C451 C 0.60373 0.36531 0.34421 0.0
C452 C 0.62414 0.38008 0.28018 0.0
C453 C 0.63806 0.40805 0.28214 0.0
C454 C 0.59588 0.29592 0.33685 0.0
C455 C 0.56783 0.27903 0.33239 0.0
C456 C 0.60721 0.32372 0.34244 0.0
C457 C 0.59088 0.33553 0.34447 0.0
C458 C 0.56278 0.31881 0.3418 0.0
C459 C 0.55134 0.29076 0.33507 0.0
H460 H 0.653 0.25145 0.5045 0.0
H461 H 0.65335 0.20965 0.25823 0.0
H462 H 0.70215 0.27711 0.50187 0.0
H463 H 0.7022 0.23582 0.25315 0.0
H464 H 0.7924 0.27583 0.29651 0.0
H465 H 0.74414 0.24579 0.31736 0.0
H466 H 0.73614 0.31264 0.41486 0.0
H467 H 0.78416 0.34224 0.39697 0.0
C468 C 0.66362 0.24757 0.4504 0.0
C469 C 0.64936 0.2286 0.38155 0.0
C470 C 0.69178 0.26245 0.44819 0.0
C471 C 0.7063 0.25884 0.3766 0.0
C472 C 0.6919 0.23903 0.3099 0.0
C473 C 0.66381 0.22407 0.31256 0.0
C474 C 0.78032 0.28406 0.32262 0.0
C475 C 0.79224 0.31147 0.345 0.0
C476 C 0.75259 0.26685 0.33439 0.0
C477 C 0.73608 0.27667 0.36825 0.0
C478 C 0.74814 0.30411 0.3906 0.0
C479 C 0.77578 0.32121 0.37948 0.0
H480 H 0.48847 0.76091 0.84135 0.0
H481 H 0.52957 0.80306 0.59438 0.0
H482 H 0.46236 0.78403 0.83974 0.0
H483 H 0.50298 0.82538 0.59037 0.0
H484 H 0.46252 0.87516 0.63565 0.0
H485 H 0.49283 0.85714 0.65541 0.0
H486 H 0.42646 0.78238 0.75416 0.0
H487 H 0.39656 0.80063 0.73731 0.0
C488 C 0.49211 0.77534 0.78733 0.0
C489 C 0.51103 0.78015 0.71801 0.0
C490 C 0.47696 0.7884 0.78569 0.0
C491 C 0.48025 0.80643 0.71427 0.0
C492 C 0.5 0.81194 0.64705 0.0
C493 C 0.51522 0.79902 0.64909 0.0
C494 C 0.45444 0.85491 0.66181 0.0
C495 C 0.42707 0.83939 0.68477 0.0
C496 C 0.47182 0.84451 0.67293 0.0
C497 C 0.46222 0.81825 0.70673 0.0
C498 C 0.43482 0.80284 0.72982 0.0
C499 C 0.41754 0.81328 0.71931 0.0
H500 H 0.19472 0.61313 0.65106 0.0
H501 H 0.27133 0.62016 0.71971 0.0
H502 H 0.21539 0.66237 0.66229 0.0
H503 H 0.29147 0.66855 0.7299 0.0
H504 H 0.32315 0.75036 0.58975 0.0
H505 H 0.29756 0.7016 0.59148 0.0
H506 H 0.2439 0.70368 0.79516 0.0
H507 H 0.27009 0.75335 0.79444 0.0
C508 C 0.21579 0.62503 0.66901 0.0
C509 C 0.23135 0.61263 0.68392 0.0
C510 C 0.22751 0.65312 0.67611 0.0
C511 C 0.255 0.66915 0.69686 0.0
C512 C 0.27026 0.65666 0.71362 0.0
C513 C 0.25861 0.62884 0.70769 0.0
C514 C 0.30589 0.74057 0.63504 0.0
C515 C 0.29873 0.75569 0.69251 0.0
C516 C 0.29125 0.71261 0.63586 0.0
C517 C 0.26883 0.69892 0.69347 0.0
C518 C 0.26108 0.71386 0.74979 0.0
C519 C 0.27611 0.74215 0.74987 0.0
H520 H 0.46012 0.61203 0.64546 0.0
H521 H 0.45204 0.68241 0.68326 0.0
H522 H 0.41094 0.58347 0.65547 0.0
H523 H 0.4036 0.65414 0.69296 0.0
H524 H 0.32029 0.60067 0.57563 0.0
H525 H 0.36904 0.62507 0.57267 0.0
H526 H 0.37062 0.57111 0.77613 0.0
H527 H 0.32097 0.54629 0.77952 0.0
C528 C 0.44795 0.6214 0.65572 0.0
C529 C 0.46006 0.64954 0.66288 0.0
C530 C 0.41987 0.60504 0.66231 0.0
C531 C 0.40348 0.61661 0.67477 0.0
C532 C 0.41568 0.64466 0.68266 0.0
C533 C 0.44353 0.66087 0.67715 0.0
C534 C 0.33089 0.59388 0.61995 0.0
C535 C 0.31678 0.57166 0.67838 0.0
C536 C 0.35888 0.60793 0.61825 0.0
C537 C 0.37365 0.60011 0.6745 0.0
C538 C 0.35968 0.57749 0.73182 0.0
C539 C 0.33137 0.56344 0.73424 0.0
H540 H 0.98991 0.18962 0.69804 0.0
H541 H 0.0722 0.20914 0.73995 0.0
H542 H 0.99776 0.19543 0.53246 0.0
H543 H 0.07978 0.21351 0.57489 0.0
H544 H 0.09278 0.24436 0.28353 0.0
H545 H 0.08493 0.24048 0.44823 0.0
H546 H 1.00428 0.1744 0.40311 0.0
H547 H 1.01185 0.17949 0.23713 0.0
C548 C 1.00965 0.19514 0.67154 0.0
C549 C 0.03045 0.19894 0.73119 0.0
C550 C 1.0141 0.19819 0.57679 0.0
C551 C 0.03934 0.20472 0.54007 0.0
C552 C 0.06021 0.20887 0.60056 0.0
C553 C 0.05586 0.20625 0.6952 0.0
C554 C 0.07341 0.22894 0.30891 0.0
C555 C 0.05287 0.21223 0.24802 0.0
C556 C 0.06893 0.22661 0.40344 0.0
C557 C 0.04396 0.20713 0.43923 0.0
C558 C 0.02358 0.18998 0.37793 0.0
C559 C 0.02795 0.19266 0.28304 0.0
H560 H 0.87038 0.89096 0.74172 0.0
H561 H 0.88578 0.82542 0.69813 0.0
H562 H 0.86629 0.89469 0.57648 0.0
H563 H 0.8802 0.82797 0.5329 0.0
H564 H 0.89611 0.85621 0.23748 0.0
H565 H 0.90171 0.85443 0.40332 0.0
H566 H 0.83907 0.8743 0.44918 0.0
H567 H 0.83477 0.87758 0.28423 0.0
C568 C 0.87243 0.87706 0.69658 0.0
C569 C 0.8785 0.85799 0.73212 0.0
C570 C 0.86998 0.87909 0.60185 0.0
C571 C 0.87305 0.86172 0.54093 0.0
C572 C 0.87835 0.84211 0.57736 0.0
C573 C 0.88126 0.84042 0.672 0.0
C574 C 0.88381 0.86045 0.28345 0.0
C575 C 0.86505 0.86703 0.24848 0.0
C576 C 0.88677 0.85918 0.37837 0.0
C577 C 0.87069 0.86402 0.43996 0.0
C578 C 0.85212 0.87087 0.40423 0.0
C579 C 0.84953 0.87261 0.30954 0.0
H580 H 0.2487 0.08488 0.70123 0.0
H581 H 0.18287 1.00434 0.7453 0.0
H582 H 0.24561 0.07686 0.53579 0.0
H583 H 0.17856 0.99669 0.58015 0.0
H584 H 0.19469 0.9821 0.2872 0.0
H585 H 0.19844 0.98963 0.45204 0.0
H586 H 0.21875 0.07223 0.40748 0.0
H587 H 0.21655 0.06489 0.24152 0.0
C588 C 0.23355 0.06548 0.67517 0.0
C589 C 0.21605 0.04522 0.73542 0.0
C590 C 0.23154 0.06095 0.58047 0.0
C591 C 0.21166 0.0362 0.54428 0.0
C592 C 0.19438 0.01585 0.60535 0.0
C593 C 0.19674 0.02023 0.70003 0.0
C594 C 0.19982 1.00182 0.31276 0.0
C595 C 0.20545 0.02297 0.25203 0.0
C596 C 0.20185 1.00614 0.40739 0.0
C597 C 0.20899 0.03158 0.44341 0.0
C598 C 0.21379 0.05254 0.38222 0.0
C599 C 0.21225 0.04832 0.28728 0.0
H600 H 0.75612 0.57498 0.62369 0.0
H601 H 0.67517 0.50997 0.57846 0.0
H602 H 0.74807 0.57208 0.78801 0.0
H603 H 0.66743 0.50578 0.74448 0.0
H604 H 0.65286 0.52262 0.03719 0.0
H605 H 0.66081 0.52759 0.87144 0.0
H606 H 0.74282 0.54591 0.91644 0.0
H607 H 0.73519 0.54248 0.0812 0.0
C608 C 0.73672 0.55969 0.64932 0.0
C609 C 0.71622 0.54269 0.58884 0.0
C610 C 0.73212 0.55793 0.74366 0.0
C611 C 0.70709 0.5387 0.77974 0.0
C612 C 0.68676 0.52119 0.71895 0.0
C613 C 0.69124 0.52333 0.62413 0.0
C614 C 0.67264 0.52808 0.01114 0.0
C615 C 0.69342 0.53219 0.07137 0.0
C616 C 0.67713 0.53061 0.91637 0.0
C617 C 0.7024 0.53692 0.88041 0.0
C618 C 0.72324 0.54145 0.94149 0.0
C619 C 0.71887 0.53938 0.03602 0.0
H620 H 0.49974 0.2088 0.62009 0.0
H621 H 0.56269 0.18969 0.57353 0.0
H622 H 0.5038 0.20519 0.7849 0.0
H623 H 0.56806 0.18762 0.73939 0.0
H624 H 0.55193 0.15763 0.03325 0.0
H625 H 0.54666 0.16048 0.86788 0.0
H626 H 0.53048 0.22567 0.91285 0.0
H627 H 0.53421 0.22158 0.07792 0.0
C628 C 0.51482 0.20431 0.64545 0.0
C629 C 0.53085 0.19942 0.58448 0.0
C630 C 0.51726 0.20236 0.74006 0.0
C631 C 0.53621 0.19602 0.77581 0.0
C632 C 0.55283 0.19194 0.71436 0.0
C633 C 0.55001 0.1934 0.61947 0.0
C634 C 0.54695 0.17232 0.00734 0.0
C635 C 0.54344 0.18936 0.06775 0.0
C636 C 0.54423 0.1742 0.91267 0.0
C637 C 0.53839 0.19348 0.87666 0.0
C638 C 0.53458 0.21031 0.93789 0.0
C639 C 0.53682 0.20807 0.03254 0.0
H640 H 0.86364 0.31398 0.61516 0.0
H641 H 0.88128 0.39549 0.56844 0.0
H642 H 0.86778 0.32187 0.77979 0.0
H643 H 0.88392 0.40314 0.7344 0.0
H644 H 0.91369 0.41712 0.02901 0.0
H645 H 0.91129 0.40915 0.86345 0.0
H646 H 0.84663 0.32768 0.90699 0.0
H647 H 0.85022 0.33534 0.07199 0.0
C648 C 0.86796 0.33349 0.64046 0.0
C649 C 0.8722 0.35417 0.57946 0.0
C650 C 0.87021 0.33801 0.73497 0.0
C651 C 0.87621 0.36316 0.7707 0.0
C652 C 0.87982 0.38369 0.7093 0.0
C653 C 0.87803 0.37928 0.61441 0.0
C654 C 0.89923 0.39746 0.00275 0.0
C655 C 0.88215 0.37684 0.06273 0.0
C656 C 0.89762 0.39295 0.90799 0.0
C657 C 0.87861 0.36783 0.87156 0.0
C658 C 0.8618 0.34714 0.93238 0.0
C659 C 0.86374 0.35153 0.02702 0.0
H660 H 0.32119 0.85547 0.36948 0.0
H661 H 0.4031 0.87388 0.41264 0.0
H662 H 0.3292 0.86098 0.20393 0.0
H663 H 0.41081 0.87792 0.24767 0.0
H664 H 0.42437 0.90826 0.95549 0.0
H665 H 0.41648 0.9047 0.12015 0.0
H666 H 0.33535 0.8395 0.07535 0.0
H667 H 0.34298 0.8443 0.90937 0.0
C668 C 0.34089 0.86069 0.34326 0.0
C669 C 0.36153 0.86425 0.40327 0.0
C670 C 0.34542 0.86356 0.24853 0.0
C671 C 0.37059 0.86966 0.21217 0.0
C672 C 0.39131 0.87361 0.27302 0.0
C673 C 0.38689 0.87118 0.36763 0.0
C674 C 0.40489 0.89309 0.98093 0.0
C675 C 0.38423 0.87656 0.92011 0.0
C676 C 0.40038 0.89095 0.07545 0.0
C677 C 0.37526 0.87183 0.11133 0.0
C678 C 0.35477 0.85483 0.05011 0.0
C679 C 0.35917 0.85733 0.95522 0.0
H680 H 0.22866 0.5253 0.90425 0.0
H681 H 0.16278 0.54013 0.95021 0.0
H682 H 0.23314 0.52202 0.07024 0.0
H683 H 0.166 0.53527 0.11454 0.0
H684 H 0.19593 0.55267 0.40726 0.0
H685 H 0.19221 0.55658 0.24247 0.0
H686 H 0.21183 0.49372 0.19771 0.0
H687 H 0.21707 0.49104 0.3634 0.0
C688 C 0.21517 0.52781 0.95007 0.0
C689 C 0.19549 0.53305 0.915 0.0
C690 C 0.21748 0.52563 0.04488 0.0
C691 C 0.19983 0.52824 0.10588 0.0
C692 C 0.18026 0.53364 0.07 0.0
C693 C 0.17832 0.53632 0.97567 0.0
C694 C 0.19926 0.53957 0.36211 0.0
C695 C 0.20687 0.52163 0.39749 0.0
C696 C 0.19702 0.54171 0.26758 0.0
C697 C 0.20181 0.52553 0.20655 0.0
C698 C 0.20858 0.50691 0.24257 0.0
C699 C 0.21128 0.50512 0.33731 0.0
H700 H 0.58138 0.75304 0.36689 0.0
H701 H 0.51655 0.67194 0.40992 0.0
H702 H 0.57911 0.74497 0.20165 0.0
H703 H 0.5131 0.66417 0.24466 0.0
H704 H 0.53065 0.65008 0.95248 0.0
H705 H 0.53379 0.65763 0.11747 0.0
H706 H 0.55272 0.73976 0.07168 0.0
H707 H 0.55108 0.73241 0.90585 0.0
C708 C 0.5666 0.73351 0.34065 0.0
C709 C 0.54915 0.71311 0.40064 0.0
C710 C 0.56507 0.72894 0.24597 0.0
C711 C 0.54574 0.70399 0.20936 0.0
C712 C 0.52849 0.6835 0.27015 0.0
C713 C 0.53036 0.68795 0.3649 0.0
C714 C 0.53539 0.66971 0.97783 0.0
C715 C 0.54073 0.69072 0.91677 0.0
C716 C 0.53705 0.67403 0.07254 0.0
C717 C 0.54359 0.69934 0.10833 0.0
C718 C 0.54822 0.72017 0.04673 0.0
C719 C 0.54702 0.71595 0.95179 0.0
loop_
_geom_bond_atom_site_label_1
_geom_bond_atom_site_label_2
_geom_bond_distance
_geom_bond_site_symmetry_2
_ccdc_geom_bond_type
Dy0 O4 2.398 . S
Dy0 O5 2.491 1_554 S
Dy0 O6 2.403 . S
Dy0 O7 2.664 . S
Dy0 O11 2.326 . S
Dy0 O15 2.310 1_554 S
Dy0 O16 2.351 . S
C1 O12 1.185 1_554 S
C1 O13 1.355 . S
C2 O4 1.185 1_556 S
C2 O5 1.355 . S
Dy3 O7 2.310 1_655 S
Dy3 O10 2.351 . S
Dy3 O12 2.398 1_554 S
Dy3 O13 2.491 . S
Dy3 O14 2.403 1_554 S
Dy3 O15 2.664 1_654 S
Dy3 O17 2.326 1_654 S
O4 Dy0 2.398 . S
O4 C2 1.185 1_554 S
O5 Dy0 2.491 1_556 S
O5 C2 1.355 . S
O6 Dy0 2.403 . S
O6 C8 1.254 . S
O7 Dy0 2.664 . S
O7 Dy3 2.310 1_455 S
O7 C8 1.268 . S
C8 O6 1.254 . S
C8 O7 1.268 . S
C9 O14 1.254 1_455 S
C9 O15 1.268 . S
O10 Dy3 2.351 . S
O10 C18 1.249 . S
O11 Dy0 2.326 . S
O11 C18 1.267 1_455 S
O12 C1 1.185 1_556 S
O12 Dy3 2.398 1_556 S
O13 C1 1.355 . S
O13 Dy3 2.491 . S
O14 Dy3 2.403 1_556 S
O14 C9 1.254 1_655 S
O15 Dy0 2.310 1_556 S
O15 Dy3 2.664 1_456 S
O15 C9 1.268 . S
O16 Dy0 2.351 . S
O16 C19 1.249 1_554 S
O17 Dy3 2.326 1_456 S
O17 C19 1.267 . S
C18 O10 1.249 . S
C18 O11 1.267 1_655 S
C19 O16 1.249 1_556 S
C19 O17 1.267 . S
Dy20 O24 2.398 . S
Dy20 O25 2.491 1_554 S
Dy20 O26 2.403 . S
Dy20 O27 2.664 . S
Dy20 O31 2.326 . S
Dy20 O35 2.310 1_554 S
Dy20 O36 2.351 . S
C21 O32 1.185 1_554 S
C21 O33 1.355 . S
C22 O24 1.185 1_556 S
C22 O25 1.355 . S
Dy23 O27 2.310 . S
Dy23 O30 2.351 . S
Dy23 O32 2.398 1_554 S
Dy23 O33 2.491 . S
Dy23 O34 2.403 1_554 S
Dy23 O35 2.664 1_554 S
Dy23 O37 2.326 1_554 S
O24 Dy20 2.398 . S
O24 C22 1.185 1_554 S
O25 Dy20 2.491 1_556 S
O25 C22 1.355 . S
O26 Dy20 2.403 . S
O26 C28 1.254 . S
O27 Dy20 2.664 . S
O27 Dy23 2.310 . S
O27 C28 1.268 . S
C28 O26 1.254 . S
C28 O27 1.268 . S
C29 O34 1.254 . S
C29 O35 1.268 . S
O30 Dy23 2.351 . S
O30 C38 1.249 . S
O31 Dy20 2.326 . S
O31 C38 1.267 . S
O32 C21 1.185 1_556 S
O32 Dy23 2.398 1_556 S
O33 C21 1.355 . S
O33 Dy23 2.491 . S
O34 Dy23 2.403 1_556 S
O34 C29 1.254 . S
O35 Dy20 2.310 1_556 S
O35 Dy23 2.664 1_556 S
O35 C29 1.268 . S
O36 Dy20 2.351 . S
O36 C39 1.249 1_554 S
O37 Dy23 2.326 1_556 S
O37 C39 1.267 . S
C38 O30 1.249 . S
C38 O31 1.267 . S
C39 O36 1.249 1_556 S
C39 O37 1.267 . S
Dy40 O44 2.398 . S
Dy40 O45 2.491 1_554 S
Dy40 O46 2.403 . S
Dy40 O47 2.664 1_565 S
Dy40 O51 2.326 1_565 S
Dy40 O55 2.310 1_564 S
Dy40 O56 2.351 . S
C41 O52 1.185 1_554 S
C41 O53 1.355 . S
C42 O44 1.185 1_556 S
C42 O45 1.355 . S
Dy43 O47 2.310 . S
Dy43 O50 2.351 . S
Dy43 O52 2.398 1_554 S
Dy43 O53 2.491 . S
Dy43 O54 2.403 1_554 S
Dy43 O55 2.664 1_554 S
Dy43 O57 2.326 1_554 S
O44 Dy40 2.398 . S
O44 C42 1.185 1_554 S
O45 Dy40 2.491 1_556 S
O45 C42 1.355 . S
O46 Dy40 2.403 . S
O46 C48 1.254 1_565 S
O47 Dy40 2.664 1_545 S
O47 Dy43 2.310 . S
O47 C48 1.268 . S
C48 O46 1.254 1_545 S
C48 O47 1.268 . S
C49 O54 1.254 . S
C49 O55 1.268 . S
O50 Dy43 2.351 . S
O50 C58 1.249 . S
O51 Dy40 2.326 1_545 S
O51 C58 1.267 . S
O52 C41 1.185 1_556 S
O52 Dy43 2.398 1_556 S
O53 C41 1.355 . S
O53 Dy43 2.491 . S
O54 Dy43 2.403 1_556 S
O54 C49 1.254 . S
O55 Dy40 2.310 1_546 S
O55 Dy43 2.664 1_556 S
O55 C49 1.268 . S
O56 Dy40 2.351 . S
O56 C59 1.249 1_554 S
O57 Dy43 2.326 1_556 S
O57 C59 1.267 1_545 S
C58 O50 1.249 . S
C58 O51 1.267 . S
C59 O56 1.249 1_556 S
C59 O57 1.267 1_565 S
Dy60 O64 2.398 . S
Dy60 O65 2.491 . S
Dy60 O66 2.403 . S
Dy60 O67 2.664 . S
Dy60 O71 2.326 . S
Dy60 O75 2.310 . S
Dy60 O76 2.351 . S
C61 O72 1.185 . S
C61 O73 1.355 . S
C62 O64 1.185 . S
C62 O65 1.355 . S
Dy63 O67 2.310 . S
Dy63 O70 2.351 . S
Dy63 O72 2.398 . S
Dy63 O73 2.491 . S
Dy63 O74 2.403 . S
Dy63 O75 2.664 . S
Dy63 O77 2.326 . S
O64 Dy60 2.398 . S
O64 C62 1.185 . S
O65 Dy60 2.491 . S
O65 C62 1.355 . S
O66 Dy60 2.403 . S
O66 C68 1.254 . S
O67 Dy60 2.664 . S
O67 Dy63 2.310 . S
O67 C68 1.268 . S
C68 O66 1.254 . S
C68 O67 1.268 . S
C69 O74 1.254 . S
C69 O75 1.268 . S
O70 Dy63 2.351 . S
O70 C78 1.249 . S
O71 Dy60 2.326 . S
O71 C78 1.267 . S
O72 C61 1.185 . S
O72 Dy63 2.398 . S
O73 C61 1.355 . S
O73 Dy63 2.491 . S
O74 Dy63 2.403 . S
O74 C69 1.254 . S
O75 Dy60 2.310 . S
O75 Dy63 2.664 . S
O75 C69 1.268 . S
O76 Dy60 2.351 . S
O76 C79 1.249 . S
O77 Dy63 2.326 . S
O77 C79 1.267 . S
C78 O70 1.249 . S
C78 O71 1.267 . S
C79 O76 1.249 . S
C79 O77 1.267 . S
Dy80 O84 2.398 . S
Dy80 O85 2.491 . S
Dy80 O86 2.403 . S
Dy80 O87 2.664 . S
Dy80 O91 2.326 . S
Dy80 O95 2.310 . S
Dy80 O96 2.351 . S
C81 O92 1.185 . S
C81 O93 1.355 . S
C82 O84 1.185 . S
C82 O85 1.355 . S
Dy83 O87 2.310 . S
Dy83 O90 2.351 . S
Dy83 O92 2.398 . S
Dy83 O93 2.491 . S
Dy83 O94 2.403 . S
Dy83 O95 2.664 . S
Dy83 O97 2.326 . S
O84 Dy80 2.398 . S
O84 C82 1.185 . S
O85 Dy80 2.491 . S
O85 C82 1.355 . S
O86 Dy80 2.403 . S
O86 C88 1.254 . S
O87 Dy80 2.664 . S
O87 Dy83 2.310 . S
O87 C88 1.268 . S
C88 O86 1.254 . S
C88 O87 1.268 . S
C89 O94 1.254 . S
C89 O95 1.268 . S
O90 Dy83 2.351 . S
O90 C98 1.249 . S
O91 Dy80 2.326 . S
O91 C98 1.267 . S
O92 C81 1.185 . S
O92 Dy83 2.398 . S
O93 C81 1.355 . S
O93 Dy83 2.491 . S
O94 Dy83 2.403 . S
O94 C89 1.254 . S
O95 Dy80 2.310 . S
O95 Dy83 2.664 . S
O95 C89 1.268 . S
O96 Dy80 2.351 . S
O96 C99 1.249 . S
O97 Dy83 2.326 . S
O97 C99 1.267 . S
C98 O90 1.249 . S
C98 O91 1.267 . S
C99 O96 1.249 . S
C99 O97 1.267 . S
Dy100 O104 2.398 . S
Dy100 O105 2.491 . S
Dy100 O106 2.403 . S
Dy100 O107 2.664 . S
Dy100 O111 2.326 . S
Dy100 O115 2.310 . S
Dy100 O116 2.351 . S
C101 O112 1.185 . S
C101 O113 1.355 . S
C102 O104 1.185 . S
C102 O105 1.355 . S
Dy103 O107 2.310 . S
Dy103 O110 2.351 . S
Dy103 O112 2.398 . S
Dy103 O113 2.491 . S
Dy103 O114 2.403 . S
Dy103 O115 2.664 . S
Dy103 O117 2.326 . S
O104 Dy100 2.398 . S
O104 C102 1.185 . S
O105 Dy100 2.491 . S
O105 C102 1.355 . S
O106 Dy100 2.403 . S
O106 C108 1.254 . S
O107 Dy100 2.664 . S
O107 Dy103 2.310 . S
O107 C108 1.268 . S
C108 O106 1.254 . S
C108 O107 1.268 . S
C109 O114 1.254 . S
C109 O115 1.268 . S
O110 Dy103 2.351 . S
O110 C118 1.249 . S
O111 Dy100 2.326 . S
O111 C118 1.267 . S
O112 C101 1.185 . S
O112 Dy103 2.398 . S
O113 C101 1.355 . S
O113 Dy103 2.491 . S
O114 Dy103 2.403 . S
O114 C109 1.254 . S
O115 Dy100 2.310 . S
O115 Dy103 2.664 . S
O115 C109 1.268 . S
O116 Dy100 2.351 . S
O116 C119 1.249 . S
O117 Dy103 2.326 . S
O117 C119 1.267 . S
C118 O110 1.249 . S
C118 O111 1.267 . S
C119 O116 1.249 . S
C119 O117 1.267 . S
Dy120 O124 2.398 . S
Dy120 O125 2.491 . S
Dy120 O126 2.403 . S
Dy120 O127 2.664 . S
Dy120 O131 2.326 . S
Dy120 O135 2.310 . S
Dy120 O136 2.351 . S
C121 O132 1.185 . S
C121 O133 1.355 . S
C122 O124 1.185 . S
C122 O125 1.355 . S
Dy123 O127 2.310 . S
Dy123 O130 2.351 . S
Dy123 O132 2.398 . S
Dy123 O133 2.491 . S
Dy123 O134 2.403 . S
Dy123 O135 2.664 . S
Dy123 O137 2.326 . S
O124 Dy120 2.398 . S
O124 C122 1.185 . S
O125 Dy120 2.491 . S
O125 C122 1.355 . S
O126 Dy120 2.403 . S
O126 C128 1.254 . S
O127 Dy120 2.664 . S
O127 Dy123 2.310 . S
O127 C128 1.268 . S
C128 O126 1.254 . S
C128 O127 1.268 . S
C129 O134 1.254 . S
C129 O135 1.268 . S
O130 Dy123 2.351 . S
O130 C138 1.249 . S
O131 Dy120 2.326 . S
O131 C138 1.267 . S
O132 C121 1.185 . S
O132 Dy123 2.398 . S
O133 C121 1.355 . S
O133 Dy123 2.491 . S
O134 Dy123 2.403 . S
O134 C129 1.254 . S
O135 Dy120 2.310 . S
O135 Dy123 2.664 . S
O135 C129 1.268 . S
O136 Dy120 2.351 . S
O136 C139 1.249 . S
O137 Dy123 2.326 . S
O137 C139 1.267 . S
C138 O130 1.249 . S
C138 O131 1.267 . S
C139 O136 1.249 . S
C139 O137 1.267 . S
Dy140 O144 2.398 . S
Dy140 O145 2.491 . S
Dy140 O146 2.403 . S
Dy140 O147 2.664 . S
Dy140 O151 2.326 . S
Dy140 O155 2.310 . S
Dy140 O156 2.351 . S
C141 O152 1.185 . S
C141 O153 1.355 . S
C142 O144 1.185 . S
C142 O145 1.355 . S
Dy143 O147 2.310 . S
Dy143 O150 2.351 . S
Dy143 O152 2.398 . S
Dy143 O153 2.491 . S
Dy143 O154 2.403 . S
Dy143 O155 2.664 . S
Dy143 O157 2.326 . S
O144 Dy140 2.398 . S
O144 C142 1.185 . S
O145 Dy140 2.491 . S
O145 C142 1.355 . S
O146 Dy140 2.403 . S
O146 C148 1.254 . S
O147 Dy140 2.664 . S
O147 Dy143 2.310 . S
O147 C148 1.268 . S
C148 O146 1.254 . S
C148 O147 1.268 . S
C149 O154 1.254 . S
C149 O155 1.268 . S
O150 Dy143 2.351 . S
O150 C158 1.249 . S
O151 Dy140 2.326 . S
O151 C158 1.267 . S
O152 C141 1.185 . S
O152 Dy143 2.398 . S
O153 C141 1.355 . S
O153 Dy143 2.491 . S
O154 Dy143 2.403 . S
O154 C149 1.254 . S
O155 Dy140 2.310 . S
O155 Dy143 2.664 . S
O155 C149 1.268 . S
O156 Dy140 2.351 . S
O156 C159 1.249 . S
O157 Dy143 2.326 . S
O157 C159 1.267 . S
C158 O150 1.249 . S
C158 O151 1.267 . S
C159 O156 1.249 . S
C159 O157 1.267 . S
Dy160 O164 2.398 . S
Dy160 O165 2.491 . S
Dy160 O166 2.403 . S
Dy160 O167 2.664 . S
Dy160 O171 2.326 . S
Dy160 O175 2.310 . S
Dy160 O176 2.351 . S
C161 O172 1.185 . S
C161 O173 1.355 . S
C162 O164 1.185 . S
C162 O165 1.355 . S
Dy163 O167 2.310 . S
Dy163 O170 2.351 . S
Dy163 O172 2.398 . S
Dy163 O173 2.491 . S
Dy163 O174 2.403 . S
Dy163 O175 2.664 . S
Dy163 O177 2.326 . S
O164 Dy160 2.398 . S
O164 C162 1.185 . S
O165 Dy160 2.491 . S
O165 C162 1.355 . S
O166 Dy160 2.403 . S
O166 C168 1.254 . S
O167 Dy160 2.664 . S
O167 Dy163 2.310 . S
O167 C168 1.268 . S
C168 O166 1.254 . S
C168 O167 1.268 . S
C169 O174 1.254 . S
C169 O175 1.268 . S
O170 Dy163 2.351 . S
O170 C178 1.249 . S
O171 Dy160 2.326 . S
O171 C178 1.267 . S
O172 C161 1.185 . S
O172 Dy163 2.398 . S
O173 C161 1.355 . S
O173 Dy163 2.491 . S
O174 Dy163 2.403 . S
O174 C169 1.254 . S
O175 Dy160 2.310 . S
O175 Dy163 2.664 . S
O175 C169 1.268 . S
O176 Dy160 2.351 . S
O176 C179 1.249 . S
O177 Dy163 2.326 . S
O177 C179 1.267 . S
C178 O170 1.249 . S
C178 O171 1.267 . S
C179 O176 1.249 . S
C179 O177 1.267 . S
H180 C188 0.950 1_554 S
H181 C193 0.950 . S
H182 C190 0.950 . S
H183 C192 0.950 . S
H184 C194 0.950 . S
H185 C196 0.950 . S
H186 C198 0.950 . S
H187 C199 0.950 . S
C188 H180 0.950 1_556 S
C188 C189 1.386 . S
C188 C190 1.391 . S
C189 C188 1.386 . S
C189 C193 1.393 . S
C190 H182 0.950 . S
C190 C188 1.391 . S
C190 C191 1.400 . S
C191 C190 1.400 . S
C191 C192 1.398 . S
C191 C197 1.491 . S
C192 H183 0.950 . S
C192 C191 1.398 . S
C192 C193 1.391 . S
C193 H181 0.950 . S
C193 C189 1.393 . S
C193 C192 1.391 . S
C194 H184 0.950 . S
C194 C195 1.386 . S
C194 C196 1.391 . S
C195 C194 1.386 . S
C195 C199 1.393 . S
C196 H185 0.950 . S
C196 C194 1.391 . S
C196 C197 1.400 . S
C197 C191 1.491 . S
C197 C196 1.400 . S
C197 C198 1.398 . S
C198 H186 0.950 . S
C198 C197 1.398 . S
C198 C199 1.391 . S
C199 H187 0.950 . S
C199 C195 1.393 . S
C199 C198 1.391 . S
H200 C208 0.950 . S
H201 C213 0.950 . S
H202 C210 0.950 . S
H203 C212 0.950 . S
H204 C214 0.950 . S
H205 C216 0.950 . S
H206 C218 0.950 . S
H207 C219 0.950 . S
C208 H200 0.950 . S
C208 C209 1.386 . S
C208 C210 1.391 . S
C209 C208 1.386 . S
C209 C213 1.393 . S
C210 H202 0.950 . S
C210 C208 1.391 . S
C210 C211 1.400 . S
C211 C210 1.400 . S
C211 C212 1.398 . S
C211 C217 1.491 . S
C212 H203 0.950 . S
C212 C211 1.398 . S
C212 C213 1.391 . S
C213 H201 0.950 . S
C213 C209 1.393 . S
C213 C212 1.391 . S
C214 H204 0.950 . S
C214 C215 1.386 . S
C214 C216 1.391 . S
C215 C214 1.386 . S
C215 C219 1.393 . S
C216 H205 0.950 . S
C216 C214 1.391 . S
C216 C217 1.400 . S
C217 C211 1.491 . S
C217 C216 1.400 . S
C217 C218 1.398 . S
C218 H206 0.950 . S
C218 C217 1.398 . S
C218 C219 1.391 . S
C219 H207 0.950 . S
C219 C215 1.393 . S
C219 C218 1.391 . S
H220 C228 0.950 1_554 S
H221 C233 0.950 . S
H222 C230 0.950 . S
H223 C232 0.950 . S
H224 C234 0.950 . S
H225 C236 0.950 . S
H226 C238 0.950 . S
H227 C239 0.950 . S
C228 H220 0.950 1_556 S
C228 C229 1.386 . S
C228 C230 1.391 . S
C229 C228 1.386 . S
C229 C233 1.393 . S
C230 H222 0.950 . S
C230 C228 1.391 . S
C230 C231 1.400 . S
C231 C230 1.400 . S
C231 C232 1.398 . S
C231 C237 1.491 . S
C232 H223 0.950 . S
C232 C231 1.398 . S
C232 C233 1.391 . S
C233 H221 0.950 . S
C233 C229 1.393 . S
C233 C232 1.391 . S
C234 H224 0.950 . S
C234 C235 1.386 . S
C234 C236 1.391 . S
C235 C234 1.386 . S
C235 C239 1.393 . S
C236 H225 0.950 . S
C236 C234 1.391 . S
C236 C237 1.400 . S
C237 C231 1.491 . S
C237 C236 1.400 . S
C237 C238 1.398 . S
C238 H226 0.950 . S
C238 C237 1.398 . S
C238 C239 1.391 . S
C239 H227 0.950 . S
C239 C235 1.393 . S
C239 C238 1.391 . S
H240 C248 0.950 . S
H241 C253 0.950 . S
H242 C250 0.950 . S
H243 C252 0.950 . S
H244 C254 0.950 . S
H245 C256 0.950 . S
H246 C258 0.950 . S
H247 C259 0.950 1_556 S
C248 H240 0.950 . S
C248 C249 1.386 . S
C248 C250 1.391 . S
C249 C248 1.386 . S
C249 C253 1.393 . S
C250 H242 0.950 . S
C250 C248 1.391 . S
C250 C251 1.400 . S
C251 C250 1.400 . S
C251 C252 1.398 . S
C251 C257 1.491 . S
C252 H243 0.950 . S
C252 C251 1.398 . S
C252 C253 1.391 . S
C253 H241 0.950 . S
C253 C249 1.393 . S
C253 C252 1.391 . S
C254 H244 0.950 . S
C254 C255 1.386 . S
C254 C256 1.391 . S
C255 C254 1.386 . S
C255 C259 1.393 . S
C256 H245 0.950 . S
C256 C254 1.391 . S
C256 C257 1.400 . S
C257 C251 1.491 . S
C257 C256 1.400 . S
C257 C258 1.398 . S
C258 H246 0.950 . S
C258 C257 1.398 . S
C258 C259 1.391 . S
C259 H247 0.950 1_554 S
C259 C255 1.393 . S
C259 C258 1.391 . S
H260 C268 0.950 . S
H261 C273 0.950 . S
H262 C270 0.950 . S
H263 C272 0.950 . S
H264 C274 0.950 1_556 S
H265 C276 0.950 . S
H266 C278 0.950 . S
H267 C279 0.950 . S
C268 H260 0.950 . S
C268 C269 1.386 . S
C268 C270 1.391 . S
C269 C268 1.386 . S
C269 C273 1.393 . S
C270 H262 0.950 . S
C270 C268 1.391 . S
C270 C271 1.400 . S
C271 C270 1.400 . S
C271 C272 1.398 . S
C271 C277 1.491 . S
C272 H263 0.950 . S
C272 C271 1.398 . S
C272 C273 1.391 . S
C273 H261 0.950 . S
C273 C269 1.393 . S
C273 C272 1.391 . S
C274 H264 0.950 1_554 S
C274 C275 1.386 . S
C274 C276 1.391 . S
C275 C274 1.386 . S
C275 C279 1.393 . S
C276 H265 0.950 . S
C276 C274 1.391 . S
C276 C277 1.400 . S
C277 C271 1.491 . S
C277 C276 1.400 . S
C277 C278 1.398 . S
C278 H266 0.950 . S
C278 C277 1.398 . S
C278 C279 1.391 . S
C279 H267 0.950 . S
C279 C275 1.393 . S
C279 C278 1.391 . S
H280 C288 0.950 1_556 S
H281 C293 0.950 . S
H282 C290 0.950 . S
H283 C292 0.950 . S
H284 C294 0.950 . S
H285 C296 0.950 . S
H286 C298 0.950 . S
H287 C299 0.950 . S
C288 H280 0.950 1_554 S
C288 C289 1.386 . S
C288 C290 1.391 . S
C289 C288 1.386 . S
C289 C293 1.393 . S
C290 H282 0.950 . S
C290 C288 1.391 . S
C290 C291 1.400 . S
C291 C290 1.400 . S
C291 C292 1.398 . S
C291 C297 1.491 . S
C292 H283 0.950 . S
C292 C291 1.398 . S
C292 C293 1.391 . S
C293 H281 0.950 . S
C293 C289 1.393 . S
C293 C292 1.391 . S
C294 H284 0.950 . S
C294 C295 1.386 . S
C294 C296 1.391 . S
C295 C294 1.386 . S
C295 C299 1.393 . S
C296 H285 0.950 . S
C296 C294 1.391 . S
C296 C297 1.400 . S
C297 C291 1.491 . S
C297 C296 1.400 . S
C297 C298 1.398 . S
C298 H286 0.950 . S
C298 C297 1.398 . S
C298 C299 1.391 . S
C299 H287 0.950 . S
C299 C295 1.393 . S
C299 C298 1.391 . S
H300 C308 0.950 . S
H301 C313 0.950 . S
H302 C310 0.950 . S
H303 C312 0.950 . S
H304 C314 0.950 . S
H305 C316 0.950 . S
H306 C318 0.950 . S
H307 C319 0.950 . S
C308 H300 0.950 . S
C308 C309 1.386 . S
C308 C310 1.391 . S
C309 C308 1.386 . S
C309 C313 1.393 . S
C310 H302 0.950 . S
C310 C308 1.391 . S
C310 C311 1.400 . S
C311 C310 1.400 . S
C311 C312 1.398 . S
C311 C317 1.491 1_455 S
C312 H303 0.950 . S
C312 C311 1.398 . S
C312 C313 1.391 . S
C313 H301 0.950 . S
C313 C309 1.393 . S
C313 C312 1.391 . S
C314 H304 0.950 . S
C314 C315 1.386 . S
C314 C316 1.391 . S
C315 C314 1.386 . S
C315 C319 1.393 . S
C316 H305 0.950 . S
C316 C314 1.391 . S
C316 C317 1.400 . S
C317 C311 1.491 1_655 S
C317 C316 1.400 . S
C317 C318 1.398 . S
C318 H306 0.950 . S
C318 C317 1.398 . S
C318 C319 1.391 . S
C319 H307 0.950 . S
C319 C315 1.393 . S
C319 C318 1.391 . S
H320 C328 0.950 . S
H321 C333 0.950 . S
H322 C330 0.950 . S
H323 C332 0.950 . S
H324 C334 0.950 . S
H325 C336 0.950 . S
H326 C338 0.950 . S
H327 C339 0.950 . S
C328 H320 0.950 . S
C328 C329 1.386 . S
C328 C330 1.391 . S
C329 C328 1.386 . S
C329 C333 1.393 . S
C330 H322 0.950 . S
C330 C328 1.391 . S
C330 C331 1.400 . S
C331 C330 1.400 . S
C331 C332 1.398 . S
C331 C337 1.491 . S
C332 H323 0.950 . S
C332 C331 1.398 . S
C332 C333 1.391 . S
C333 H321 0.950 . S
C333 C329 1.393 . S
C333 C332 1.391 . S
C334 H324 0.950 . S
C334 C335 1.386 . S
C334 C336 1.391 . S
C335 C334 1.386 . S
C335 C339 1.393 . S
C336 H325 0.950 . S
C336 C334 1.391 . S
C336 C337 1.400 . S
C337 C331 1.491 . S
C337 C336 1.400 . S
C337 C338 1.398 . S
C338 H326 0.950 . S
C338 C337 1.398 . S
C338 C339 1.391 . S
C339 H327 0.950 . S
C339 C335 1.393 . S
C339 C338 1.391 . S
H340 C348 0.950 . S
H341 C353 0.950 . S
H342 C350 0.950 . S
H343 C352 0.950 . S
H344 C354 0.950 . S
H345 C356 0.941 1_545 S
H346 C358 0.950 . S
H347 C359 0.950 . S
C348 H340 0.950 . S
C348 C349 1.386 . S
C348 C350 1.391 . S
C349 C348 1.386 . S
C349 C353 1.393 . S
C350 H342 0.950 . S
C350 C348 1.391 . S
C350 C351 1.400 . S
C351 C350 1.400 . S
C351 C352 1.398 . S
C351 C357 1.491 . S
C352 H343 0.950 . S
C352 C351 1.398 . S
C352 C353 1.391 . S
C353 H341 0.950 . S
C353 C349 1.393 . S
C353 C352 1.391 . S
C354 H344 0.950 . S
C354 C355 1.386 . S
C354 C356 1.419 . S
C355 C354 1.386 . S
C355 C359 1.393 . S
C356 H345 0.941 1_565 S
C356 C354 1.419 . S
C356 C357 1.379 1_565 S
C357 C351 1.491 . S
C357 C356 1.379 1_545 S
C357 C358 1.398 . S
C358 H346 0.950 . S
C358 C357 1.398 . S
C358 C359 1.391 1_545 S
C359 H347 0.950 . S
C359 C355 1.393 . S
C359 C358 1.391 1_565 S
H360 C368 0.950 . S
H361 C373 0.950 1_556 S
H362 C370 0.950 . S
H363 C372 0.950 1_556 S
H364 C374 0.950 . S
H365 C376 0.950 . S
H366 C378 0.950 . S
H367 C379 0.950 . S
C368 H360 0.950 . S
C368 C369 1.386 . S
C368 C370 1.391 . S
C369 C368 1.386 . S
C369 C373 1.393 . S
C370 H362 0.950 . S
C370 C368 1.391 . S
C370 C371 1.400 . S
C371 C370 1.400 . S
C371 C372 1.398 . S
C371 C377 1.491 . S
C372 H363 0.950 1_554 S
C372 C371 1.398 . S
C372 C373 1.391 . S
C373 H361 0.950 1_554 S
C373 C369 1.393 . S
C373 C372 1.391 . S
C374 H364 0.950 . S
C374 C375 1.383 1_556 S
C374 C376 1.391 . S
C375 C374 1.383 1_554 S
C375 C379 1.396 . S
C376 H365 0.950 . S
C376 C374 1.391 . S
C376 C377 1.400 1_556 S
C377 C371 1.491 . S
C377 C376 1.400 1_554 S
C377 C378 1.398 . S
C378 H366 0.950 . S
C378 C377 1.398 . S
C378 C379 1.391 . S
C379 H367 0.950 . S
C379 C375 1.396 . S
C379 C378 1.391 . S
H380 C388 0.950 . S
H381 C393 0.950 . S
H382 C390 0.950 . S
H383 C392 0.950 . S
H384 C394 0.950 . S
H385 C396 0.950 . S
H386 C398 0.950 . S
H387 C399 0.950 . S
C388 H380 0.950 . S
C388 C389 1.386 1_556 S
C388 C390 1.391 . S
C389 C388 1.386 1_554 S
C389 C393 1.393 . S
C390 H382 0.950 . S
C390 C388 1.391 . S
C390 C391 1.400 1_556 S
C391 C390 1.400 1_554 S
C391 C392 1.398 . S
C391 C397 1.491 1_565 S
C392 H383 0.950 . S
C392 C391 1.398 . S
C392 C393 1.391 . S
C393 H381 0.950 . S
C393 C389 1.393 . S
C393 C392 1.391 . S
C394 H384 0.950 . S
C394 C395 1.386 . S
C394 C396 1.391 . S
C395 C394 1.386 . S
C395 C399 1.393 1_554 S
C396 H385 0.950 . S
C396 C394 1.391 . S
C396 C397 1.400 . S
C397 C391 1.491 1_545 S
C397 C396 1.400 . S
C397 C398 1.398 1_554 S
C398 H386 0.950 . S
C398 C397 1.398 1_556 S
C398 C399 1.391 . S
C399 H387 0.950 . S
C399 C395 1.393 1_556 S
C399 C398 1.391 . S
H400 C408 0.950 . S
H401 C413 0.950 . S
H402 C410 0.950 . S
H403 C412 0.950 . S
H404 C414 0.950 1_545 S
H405 C416 0.950 . S
H406 C418 0.950 . S
H407 C419 0.950 . S
C408 H400 0.950 . S
C408 C409 1.386 . S
C408 C410 1.391 1_655 S
C409 C408 1.386 . S
C409 C413 1.393 . S
C410 H402 0.950 . S
C410 C408 1.391 1_455 S
C410 C411 1.400 . S
C411 C410 1.400 . S
C411 C412 1.398 . S
C411 C417 1.491 . S
C412 H403 0.950 . S
C412 C411 1.398 . S
C412 C413 1.391 1_455 S
C413 H401 0.950 . S
C413 C409 1.393 . S
C413 C412 1.391 1_655 S
C414 H404 0.950 1_565 S
C414 C415 1.386 . S
C414 C416 1.391 . S
C415 C414 1.386 . S
C415 C419 1.393 . S
C416 H405 0.950 . S
C416 C414 1.391 . S
C416 C417 1.400 . S
C417 C411 1.491 . S
C417 C416 1.400 . S
C417 C418 1.398 . S
C418 H406 0.950 . S
C418 C417 1.398 . S
C418 C419 1.391 . S
C419 H407 0.950 . S
C419 C415 1.393 . S
C419 C418 1.391 . S
H420 C428 0.950 . S
H421 C433 0.950 . S
H422 C430 0.950 . S
H423 C432 0.950 . S
H424 C434 0.950 . S
H425 C436 0.950 . S
H426 C438 0.950 . S
H427 C439 0.950 . S
C428 H420 0.950 . S
C428 C429 1.386 . S
C428 C430 1.391 . S
C429 C428 1.386 . S
C429 C433 1.393 . S
C430 H422 0.950 . S
C430 C428 1.391 . S
C430 C431 1.400 . S
C431 C430 1.400 . S
C431 C432 1.398 . S
C431 C437 1.491 . S
C432 H423 0.950 . S
C432 C431 1.398 . S
C432 C433 1.391 . S
C433 H421 0.950 . S
C433 C429 1.393 . S
C433 C432 1.391 . S
C434 H424 0.950 . S
C434 C435 1.386 . S
C434 C436 1.391 . S
C435 C434 1.386 . S
C435 C439 1.393 . S
C436 H425 0.950 . S
C436 C434 1.391 . S
C436 C437 1.400 . S
C437 C431 1.491 . S
C437 C436 1.400 . S
C437 C438 1.398 . S
C438 H426 0.950 . S
C438 C437 1.398 . S
C438 C439 1.391 . S
C439 H427 0.950 . S
C439 C435 1.393 . S
C439 C438 1.391 . S
H440 C448 0.950 . S
H441 C453 0.950 . S
H442 C450 0.950 . S
H443 C452 0.950 . S
H444 C454 0.950 . S
H445 C456 0.950 . S
H446 C458 0.950 . S
H447 C459 0.950 . S
C448 H440 0.950 . S
C448 C449 1.386 . S
C448 C450 1.391 . S
C449 C448 1.386 . S
C449 C453 1.393 . S
C450 H442 0.950 . S
C450 C448 1.391 . S
C450 C451 1.400 . S
C451 C450 1.400 . S
C451 C452 1.398 . S
C451 C457 1.491 . S
C452 H443 0.950 . S
C452 C451 1.398 . S
C452 C453 1.391 . S
C453 H441 0.950 . S
C453 C449 1.393 . S
C453 C452 1.391 . S
C454 H444 0.950 . S
C454 C455 1.386 . S
C454 C456 1.391 . S
C455 C454 1.386 . S
C455 C459 1.393 . S
C456 H445 0.950 . S
C456 C454 1.391 . S
C456 C457 1.400 . S
C457 C451 1.491 . S
C457 C456 1.400 . S
C457 C458 1.398 . S
C458 H446 0.950 . S
C458 C457 1.398 . S
C458 C459 1.391 . S
C459 H447 0.950 . S
C459 C455 1.393 . S
C459 C458 1.391 . S
H460 C468 0.950 . S
H461 C473 0.950 . S
H462 C470 0.950 . S
H463 C472 0.950 . S
H464 C474 0.950 . S
H465 C476 0.950 . S
H466 C478 0.950 . S
H467 C479 0.950 . S
C468 H460 0.950 . S
C468 C469 1.386 . S
C468 C470 1.391 . S
C469 C468 1.386 . S
C469 C473 1.393 . S
C470 H462 0.950 . S
C470 C468 1.391 . S
C470 C471 1.400 . S
C471 C470 1.400 . S
C471 C472 1.398 . S
C471 C477 1.491 . S
C472 H463 0.950 . S
C472 C471 1.398 . S
C472 C473 1.391 . S
C473 H461 0.950 . S
C473 C469 1.393 . S
C473 C472 1.391 . S
C474 H464 0.950 . S
C474 C475 1.386 . S
C474 C476 1.391 . S
C475 C474 1.386 . S
C475 C479 1.393 . S
C476 H465 0.950 . S
C476 C474 1.391 . S
C476 C477 1.400 . S
C477 C471 1.491 . S
C477 C476 1.400 . S
C477 C478 1.398 . S
C478 H466 0.950 . S
C478 C477 1.398 . S
C478 C479 1.391 . S
C479 H467 0.950 . S
C479 C475 1.393 . S
C479 C478 1.391 . S
H480 C488 0.950 . S
H481 C493 0.950 . S
H482 C490 0.950 . S
H483 C492 0.950 . S
H484 C494 0.950 . S
H485 C496 0.950 . S
H486 C498 0.950 . S
H487 C499 0.950 . S
C488 H480 0.950 . S
C488 C489 1.386 . S
C488 C490 1.391 . S
C489 C488 1.386 . S
C489 C493 1.393 . S
C490 H482 0.950 . S
C490 C488 1.391 . S
C490 C491 1.400 . S
C491 C490 1.400 . S
C491 C492 1.398 . S
C491 C497 1.491 . S
C492 H483 0.950 . S
C492 C491 1.398 . S
C492 C493 1.391 . S
C493 H481 0.950 . S
C493 C489 1.393 . S
C493 C492 1.391 . S
C494 H484 0.950 . S
C494 C495 1.386 . S
C494 C496 1.391 . S
C495 C494 1.386 . S
C495 C499 1.393 . S
C496 H485 0.950 . S
C496 C494 1.391 . S
C496 C497 1.400 . S
C497 C491 1.491 . S
C497 C496 1.400 . S
C497 C498 1.398 . S
C498 H486 0.950 . S
C498 C497 1.398 . S
C498 C499 1.391 . S
C499 H487 0.950 . S
C499 C495 1.393 . S
C499 C498 1.391 . S
H500 C508 0.950 . S
H501 C513 0.950 . S
H502 C510 0.950 . S
H503 C512 0.950 . S
H504 C514 0.950 . S
H505 C516 0.950 . S
H506 C518 0.950 . S
H507 C519 0.950 . S
C508 H500 0.950 . S
C508 C509 1.386 . S
C508 C510 1.391 . S
C509 C508 1.386 . S
C509 C513 1.393 . S
C510 H502 0.950 . S
C510 C508 1.391 . S
C510 C511 1.400 . S
C511 C510 1.400 . S
C511 C512 1.398 . S
C511 C517 1.491 . S
C512 H503 0.950 . S
C512 C511 1.398 . S
C512 C513 1.391 . S
C513 H501 0.950 . S
C513 C509 1.393 . S
C513 C512 1.391 . S
C514 H504 0.950 . S
C514 C515 1.386 . S
C514 C516 1.391 . S
C515 C514 1.386 . S
C515 C519 1.393 . S
C516 H505 0.950 . S
C516 C514 1.391 . S
C516 C517 1.400 . S
C517 C511 1.491 . S
C517 C516 1.400 . S
C517 C518 1.398 . S
C518 H506 0.950 . S
C518 C517 1.398 . S
C518 C519 1.391 . S
C519 H507 0.950 . S
C519 C515 1.393 . S
C519 C518 1.391 . S
H520 C528 0.950 . S
H521 C533 0.950 . S
H522 C530 0.950 . S
H523 C532 0.950 . S
H524 C534 0.950 . S
H525 C536 0.950 . S
H526 C538 0.950 . S
H527 C539 0.950 . S
C528 H520 0.950 . S
C528 C529 1.386 . S
C528 C530 1.391 . S
C529 C528 1.386 . S
C529 C533 1.393 . S
C530 H522 0.950 . S
C530 C528 1.391 . S
C530 C531 1.400 . S
C531 C530 1.400 . S
C531 C532 1.398 . S
C531 C537 1.491 . S
C532 H523 0.950 . S
C532 C531 1.398 . S
C532 C533 1.391 . S
C533 H521 0.950 . S
C533 C529 1.393 . S
C533 C532 1.391 . S
C534 H524 0.950 . S
C534 C535 1.386 . S
C534 C536 1.391 . S
C535 C534 1.386 . S
C535 C539 1.393 . S
C536 H525 0.950 . S
C536 C534 1.391 . S
C536 C537 1.400 . S
C537 C531 1.491 . S
C537 C536 1.400 . S
C537 C538 1.398 . S
C538 H526 0.950 . S
C538 C537 1.398 . S
C538 C539 1.391 . S
C539 H527 0.950 . S
C539 C535 1.393 . S
C539 C538 1.391 . S
H540 C548 0.950 . S
H541 C553 0.950 . S
H542 C550 0.950 . S
H543 C552 0.950 . S
H544 C554 0.950 . S
H545 C556 0.950 . S
H546 C558 0.950 . S
H547 C559 0.950 . S
C548 H540 0.950 . S
C548 C549 1.386 . S
C548 C550 1.391 . S
C549 C548 1.386 . S
C549 C553 1.393 . S
C550 H542 0.950 . S
C550 C548 1.391 . S
C550 C551 1.400 . S
C551 C550 1.400 . S
C551 C552 1.398 . S
C551 C557 1.491 . S
C552 H543 0.950 . S
C552 C551 1.398 . S
C552 C553 1.391 . S
C553 H541 0.950 . S
C553 C549 1.393 . S
C553 C552 1.391 . S
C554 H544 0.950 . S
C554 C555 1.386 . S
C554 C556 1.391 . S
C555 C554 1.386 . S
C555 C559 1.393 . S
C556 H545 0.950 . S
C556 C554 1.391 . S
C556 C557 1.400 . S
C557 C551 1.491 . S
C557 C556 1.400 . S
C557 C558 1.398 . S
C558 H546 0.950 . S
C558 C557 1.398 . S
C558 C559 1.391 . S
C559 H547 0.950 . S
C559 C555 1.393 . S
C559 C558 1.391 . S
H560 C568 0.950 . S
H561 C573 0.950 . S
H562 C570 0.950 . S
H563 C572 0.950 . S
H564 C574 0.950 . S
H565 C576 0.950 . S
H566 C578 0.950 . S
H567 C579 0.950 . S
C568 H560 0.950 . S
C568 C569 1.386 . S
C568 C570 1.391 . S
C569 C568 1.386 . S
C569 C573 1.393 . S
C570 H562 0.950 . S
C570 C568 1.391 . S
C570 C571 1.400 . S
C571 C570 1.400 . S
C571 C572 1.398 . S
C571 C577 1.491 . S
C572 H563 0.950 . S
C572 C571 1.398 . S
C572 C573 1.391 . S
C573 H561 0.950 . S
C573 C569 1.393 . S
C573 C572 1.391 . S
C574 H564 0.950 . S
C574 C575 1.386 . S
C574 C576 1.391 . S
C575 C574 1.386 . S
C575 C579 1.393 . S
C576 H565 0.950 . S
C576 C574 1.391 . S
C576 C577 1.400 . S
C577 C571 1.491 . S
C577 C576 1.400 . S
C577 C578 1.398 . S
C578 H566 0.950 . S
C578 C577 1.398 . S
C578 C579 1.391 . S
C579 H567 0.950 . S
C579 C575 1.393 . S
C579 C578 1.391 . S
H580 C588 0.950 . S
H581 C593 0.948 1_565 S
H582 C590 0.950 . S
H583 C592 0.950 . S
H584 C594 0.950 . S
H585 C596 0.950 . S
H586 C598 0.950 . S
H587 C599 0.950 . S
C588 H580 0.950 . S
C588 C589 1.386 . S
C588 C590 1.391 . S
C589 C588 1.386 . S
C589 C593 1.395 . S
C590 H582 0.950 . S
C590 C588 1.391 . S
C590 C591 1.400 . S
C591 C590 1.400 . S
C591 C592 1.398 1_545 S
C591 C597 1.491 . S
C592 H583 0.950 . S
C592 C591 1.398 1_565 S
C592 C593 1.390 1_565 S
C593 H581 0.948 1_545 S
C593 C589 1.395 . S
C593 C592 1.390 1_545 S
C594 H584 0.950 . S
C594 C595 1.386 1_565 S
C594 C596 1.391 . S
C595 C594 1.386 1_545 S
C595 C599 1.393 . S
C596 H585 0.950 . S
C596 C594 1.391 . S
C596 C597 1.400 1_565 S
C597 C591 1.491 . S
C597 C596 1.400 1_545 S
C597 C598 1.398 . S
C598 H586 0.950 . S
C598 C597 1.398 . S
C598 C599 1.391 . S
C599 H587 0.950 . S
C599 C595 1.393 . S
C599 C598 1.391 . S
H600 C608 0.950 . S
H601 C613 0.950 . S
H602 C610 0.950 . S
H603 C612 0.950 . S
H604 C614 0.950 . S
H605 C616 0.950 . S
H606 C618 0.950 . S
H607 C619 0.950 . S
C608 H600 0.950 . S
C608 C609 1.386 . S
C608 C610 1.391 . S
C609 C608 1.386 . S
C609 C613 1.393 . S
C610 H602 0.950 . S
C610 C608 1.391 . S
C610 C611 1.400 . S
C611 C610 1.400 . S
C611 C612 1.398 . S
C611 C617 1.491 . S
C612 H603 0.950 . S
C612 C611 1.398 . S
C612 C613 1.391 . S
C613 H601 0.950 . S
C613 C609 1.393 . S
C613 C612 1.391 . S
C614 H604 0.950 . S
C614 C615 1.386 . S
C614 C616 1.391 1_554 S
C615 C614 1.386 . S
C615 C619 1.393 . S
C616 H605 0.950 . S
C616 C614 1.391 1_556 S
C616 C617 1.400 . S
C617 C611 1.491 . S
C617 C616 1.400 . S
C617 C618 1.398 . S
C618 H606 0.950 . S
C618 C617 1.398 . S
C618 C619 1.391 1_556 S
C619 H607 0.950 . S
C619 C615 1.393 . S
C619 C618 1.391 1_554 S
H620 C628 0.950 . S
H621 C633 0.950 . S
H622 C630 0.950 . S
H623 C632 0.950 . S
H624 C634 0.950 . S
H625 C636 0.950 . S
H626 C638 0.950 . S
H627 C639 0.950 . S
C628 H620 0.950 . S
C628 C629 1.386 . S
C628 C630 1.391 . S
C629 C628 1.386 . S
C629 C633 1.393 . S
C630 H622 0.950 . S
C630 C628 1.391 . S
C630 C631 1.400 . S
C631 C630 1.400 . S
C631 C632 1.398 . S
C631 C637 1.491 . S
C632 H623 0.950 . S
C632 C631 1.398 . S
C632 C633 1.391 . S
C633 H621 0.950 . S
C633 C629 1.393 . S
C633 C632 1.391 . S
C634 H624 0.950 . S
C634 C635 1.386 . S
C634 C636 1.391 1_554 S
C635 C634 1.386 . S
C635 C639 1.393 . S
C636 H625 0.950 . S
C636 C634 1.391 1_556 S
C636 C637 1.400 . S
C637 C631 1.491 . S
C637 C636 1.400 . S
C637 C638 1.398 . S
C638 H626 0.950 . S
C638 C637 1.398 . S
C638 C639 1.391 1_556 S
C639 H627 0.950 . S
C639 C635 1.393 . S
C639 C638 1.391 1_554 S
H640 C648 0.950 . S
H641 C653 0.950 . S
H642 C650 0.950 . S
H643 C652 0.950 . S
H644 C654 0.950 . S
H645 C656 0.950 . S
H646 C658 0.950 . S
H647 C659 0.950 . S
C648 H640 0.950 . S
C648 C649 1.386 . S
C648 C650 1.391 . S
C649 C648 1.386 . S
C649 C653 1.393 . S
C650 H642 0.950 . S
C650 C648 1.391 . S
C650 C651 1.400 . S
C651 C650 1.400 . S
C651 C652 1.398 . S
C651 C657 1.491 . S
C652 H643 0.950 . S
C652 C651 1.398 . S
C652 C653 1.391 . S
C653 H641 0.950 . S
C653 C649 1.393 . S
C653 C652 1.391 . S
C654 H644 0.950 . S
C654 C655 1.386 . S
C654 C656 1.391 1_554 S
C655 C654 1.386 . S
C655 C659 1.393 . S
C656 H645 0.950 . S
C656 C654 1.391 1_556 S
C656 C657 1.400 . S
C657 C651 1.491 . S
C657 C656 1.400 . S
C657 C658 1.398 . S
C658 H646 0.950 . S
C658 C657 1.398 . S
C658 C659 1.391 1_556 S
C659 H647 0.950 . S
C659 C655 1.393 . S
C659 C658 1.391 1_554 S
H660 C668 0.950 . S
H661 C673 0.950 . S
H662 C670 0.950 . S
H663 C672 0.950 . S
H664 C674 0.950 . S
H665 C676 0.950 . S
H666 C678 0.950 . S
H667 C679 0.950 . S
C668 H660 0.950 . S
C668 C669 1.386 . S
C668 C670 1.391 . S
C669 C668 1.386 . S
C669 C673 1.393 . S
C670 H662 0.950 . S
C670 C668 1.391 . S
C670 C671 1.400 . S
C671 C670 1.400 . S
C671 C672 1.398 . S
C671 C677 1.491 . S
C672 H663 0.950 . S
C672 C671 1.398 . S
C672 C673 1.391 . S
C673 H661 0.950 . S
C673 C669 1.393 . S
C673 C672 1.391 . S
C674 H664 0.950 . S
C674 C675 1.386 . S
C674 C676 1.391 1_556 S
C675 C674 1.386 . S
C675 C679 1.393 . S
C676 H665 0.950 . S
C676 C674 1.391 1_554 S
C676 C677 1.400 . S
C677 C671 1.491 . S
C677 C676 1.400 . S
C677 C678 1.398 . S
C678 H666 0.950 . S
C678 C677 1.398 . S
C678 C679 1.391 1_554 S
C679 H667 0.950 . S
C679 C675 1.393 . S
C679 C678 1.391 1_556 S
H680 C688 0.950 . S
H681 C693 0.950 . S
H682 C690 0.950 . S
H683 C692 0.950 . S
H684 C694 0.950 . S
H685 C696 0.950 . S
H686 C698 0.950 . S
H687 C699 0.950 . S
C688 H680 0.950 . S
C688 C689 1.386 . S
C688 C690 1.391 1_556 S
C689 C688 1.386 . S
C689 C693 1.393 . S
C690 H682 0.950 . S
C690 C688 1.391 1_554 S
C690 C691 1.400 . S
C691 C690 1.400 . S
C691 C692 1.398 . S
C691 C697 1.491 . S
C692 H683 0.950 . S
C692 C691 1.398 . S
C692 C693 1.391 1_554 S
C693 H681 0.950 . S
C693 C689 1.393 . S
C693 C692 1.391 1_556 S
C694 H684 0.950 . S
C694 C695 1.386 . S
C694 C696 1.391 . S
C695 C694 1.386 . S
C695 C699 1.393 . S
C696 H685 0.950 . S
C696 C694 1.391 . S
C696 C697 1.400 . S
C697 C691 1.491 . S
C697 C696 1.400 . S
C697 C698 1.398 . S
C698 H686 0.950 . S
C698 C697 1.398 . S
C698 C699 1.391 . S
C699 H687 0.950 . S
C699 C695 1.393 . S
C699 C698 1.391 . S
H700 C708 0.950 . S
H701 C713 0.950 . S
H702 C710 0.950 . S
H703 C712 0.950 . S
H704 C714 0.950 . S
H705 C716 0.950 . S
H706 C718 0.950 . S
H707 C719 0.950 . S
C708 H700 0.950 . S
C708 C709 1.386 . S
C708 C710 1.391 . S
C709 C708 1.386 . S
C709 C713 1.393 . S
C710 H702 0.950 . S
C710 C708 1.391 . S
C710 C711 1.400 . S
C711 C710 1.400 . S
C711 C712 1.398 . S
C711 C717 1.491 . S
C712 H703 0.950 . S
C712 C711 1.398 . S
C712 C713 1.391 . S
C713 H701 0.950 . S
C713 C709 1.393 . S
C713 C712 1.391 . S
C714 H704 0.950 . S
C714 C715 1.386 . S
C714 C716 1.391 1_556 S
C715 C714 1.386 . S
C715 C719 1.393 . S
C716 H705 0.950 . S
C716 C714 1.391 1_554 S
C716 C717 1.400 . S
C717 C711 1.491 . S
C717 C716 1.400 . S
C717 C718 1.398 . S
C718 H706 0.950 . S
C718 C717 1.398 . S
C718 C719 1.391 1_554 S
C719 H707 0.950 . S
C719 C715 1.393 . S
C719 C718 1.391 1_556 S
C189 C2 1.778 . S
C195 C158 1.729 . S
C209 C22 1.795 . S
C215 C178 1.749 . S
C229 C42 1.783 . S
C235 C138 1.742 . S
C249 C82 1.788 . S
C255 C58 1.728 . S
C269 C102 1.778 . S
C275 C18 1.730 . S
C289 C38 1.726 . S
C295 C62 1.786 . S
C309 C142 1.788 . S
C315 C118 1.748 . S
C329 C162 1.794 . S
C335 C78 1.737 . S
C349 C98 1.736 . S
C355 C122 1.780 . S
C369 C41 1.528 . S
C375 C19 1.545 1_554 S
C389 C39 1.546 1_554 S
C395 C1 1.535 . S
C409 C21 1.524 . S
C415 C59 1.551 1_554 S
C429 C79 1.545 . S
C435 C101 1.535 . S
C449 C61 1.518 . S
C455 C99 1.551 . S
C469 C81 1.526 . S
C475 C119 1.547 . S
C489 C161 1.532 . S
C495 C139 1.546 . S
C509 C159 1.551 . S
C515 C121 1.519 . S
C529 C179 1.551 . S
C535 C141 1.519 . S
C549 C9 1.010 . S
C555 C8 1.010 . S
C569 C29 0.988 . S
C575 C28 0.988 . S
C589 C49 1.014 . S
C595 C48 1.014 . S
C609 C68 1.006 . S
C615 C69 1.006 . S
C629 C88 1.005 . S
C635 C89 1.005 . S
C649 C108 0.990 . S
C655 C109 0.990 . S
C669 C129 1.014 . S
C675 C128 1.014 . S
C689 C148 0.992 . S
C695 C149 0.992 . S
C709 C169 1.005 . S
C715 C168 1.005 . S
