# Generated by pormake.
# Topology fnk, (5)-cn, num edge types: 1
# Building blocks:
#     Node 0, Type 0, BuildingBlock: XOMCOT_clean_sbu_1, # of connection points: 5
#     Node 1, Type 0, BuildingBlock: XOMCOT_clean_sbu_1, # of connection points: 5
#     Node 2, Type 0, BuildingBlock: XOMCOT_clean_sbu_1, # of connection points: 5
#     Node 3, Type 0, BuildingBlock: XOMCOT_clean_sbu_1, # of connection points: 5
#     Node 4, Type 0, BuildingBlock: XOMCOT_clean_sbu_1, # of connection points: 5
#     Node 5, Type 0, BuildingBlock: XOMCOT_clean_sbu_1, # of connection points: 5
#     Node 6, Type 0, BuildingBlock: XOMCOT_clean_sbu_1, # of connection points: 5
#     Node 7, Type 0, BuildingBlock: XOMCOT_clean_sbu_1, # of connection points: 5
#     Node 8, Type 0, BuildingBlock: XOMCOT_clean_sbu_1, # of connection points: 5
#     Node 9, Type 0, BuildingBlock: XOMCOT_clean_sbu_1, # of connection points: 5
#     Node 10, Type 0, BuildingBlock: XOMCOT_clean_sbu_1, # of connection points: 5
#     Node 11, Type 0, BuildingBlock: XOMCOT_clean_sbu_1, # of connection points: 5
#     Node 12, Type 0, BuildingBlock: XOMCOT_clean_sbu_1, # of connection points: 5
#     Node 13, Type 0, BuildingBlock: XOMCOT_clean_sbu_1, # of connection points: 5
#     Node 14, Type 0, BuildingBlock: XOMCOT_clean_sbu_1, # of connection points: 5
#     Node 15, Type 0, BuildingBlock: XOMCOT_clean_sbu_1, # of connection points: 5
#     Edge 16, Type (0, 0), BuildingBlock: TEMPAE_clean_linker_10, # of connection points: 2
#     Edge 17, Type (0, 0), BuildingBlock: TEMPAE_clean_linker_10, # of connection points: 2
#     Edge 18, Type (0, 0), BuildingBlock: TEMPAE_clean_linker_10, # of connection points: 2
#     Edge 19, Type (0, 0), BuildingBlock: TEMPAE_clean_linker_10, # of connection points: 2
#     Edge 20, Type (0, 0), BuildingBlock: TEMPAE_clean_linker_10, # of connection points: 2
#     Edge 21, Type (0, 0), BuildingBlock: TEMPAE_clean_linker_10, # of connection points: 2
#     Edge 22, Type (0, 0), BuildingBlock: TEMPAE_clean_linker_10, # of connection points: 2
#     Edge 23, Type (0, 0), BuildingBlock: TEMPAE_clean_linker_10, # of connection points: 2
#     Edge 24, Type (0, 0), BuildingBlock: TEMPAE_clean_linker_10, # of connection points: 2
#     Edge 25, Type (0, 0), BuildingBlock: TEMPAE_clean_linker_10, # of connection points: 2
#     Edge 26, Type (0, 0), BuildingBlock: TEMPAE_clean_linker_10, # of connection points: 2
#     Edge 27, Type (0, 0), BuildingBlock: TEMPAE_clean_linker_10, # of connection points: 2
#     Edge 28, Type (0, 0), BuildingBlock: TEMPAE_clean_linker_10, # of connection points: 2
#     Edge 29, Type (0, 0), BuildingBlock: TEMPAE_clean_linker_10, # of connection points: 2
#     Edge 30, Type (0, 0), BuildingBlock: TEMPAE_clean_linker_10, # of connection points: 2
#     Edge 31, Type (0, 0), BuildingBlock: TEMPAE_clean_linker_10, # of connection points: 2
#     Edge 32, Type (0, 0), BuildingBlock: TEMPAE_clean_linker_10, # of connection points: 2
#     Edge 33, Type (0, 0), BuildingBlock: TEMPAE_clean_linker_10, # of connection points: 2
#     Edge 34, Type (0, 0), BuildingBlock: TEMPAE_clean_linker_10, # of connection points: 2
#     Edge 35, Type (0, 0), BuildingBlock: TEMPAE_clean_linker_10, # of connection points: 2
#     Edge 36, Type (0, 0), BuildingBlock: TEMPAE_clean_linker_10, # of connection points: 2
#     Edge 37, Type (0, 0), BuildingBlock: TEMPAE_clean_linker_10, # of connection points: 2
#     Edge 38, Type (0, 0), BuildingBlock: TEMPAE_clean_linker_10, # of connection points: 2
#     Edge 39, Type (0, 0), BuildingBlock: TEMPAE_clean_linker_10, # of connection points: 2
#     Edge 40, Type (0, 0), BuildingBlock: TEMPAE_clean_linker_10, # of connection points: 2
#     Edge 41, Type (0, 0), BuildingBlock: TEMPAE_clean_linker_10, # of connection points: 2
#     Edge 42, Type (0, 0), BuildingBlock: TEMPAE_clean_linker_10, # of connection points: 2
#     Edge 43, Type (0, 0), BuildingBlock: TEMPAE_clean_linker_10, # of connection points: 2
#     Edge 44, Type (0, 0), BuildingBlock: TEMPAE_clean_linker_10, # of connection points: 2
#     Edge 45, Type (0, 0), BuildingBlock: TEMPAE_clean_linker_10, # of connection points: 2
#     Edge 46, Type (0, 0), BuildingBlock: TEMPAE_clean_linker_10, # of connection points: 2
#     Edge 47, Type (0, 0), BuildingBlock: TEMPAE_clean_linker_10, # of connection points: 2
#     Edge 48, Type (0, 0), BuildingBlock: TEMPAE_clean_linker_10, # of connection points: 2
#     Edge 49, Type (0, 0), BuildingBlock: TEMPAE_clean_linker_10, # of connection points: 2
#     Edge 50, Type (0, 0), BuildingBlock: TEMPAE_clean_linker_10, # of connection points: 2
#     Edge 51, Type (0, 0), BuildingBlock: TEMPAE_clean_linker_10, # of connection points: 2
#     Edge 52, Type (0, 0), BuildingBlock: TEMPAE_clean_linker_10, # of connection points: 2
#     Edge 53, Type (0, 0), BuildingBlock: TEMPAE_clean_linker_10, # of connection points: 2
#     Edge 54, Type (0, 0), BuildingBlock: TEMPAE_clean_linker_10, # of connection points: 2
#     Edge 55, Type (0, 0), BuildingBlock: TEMPAE_clean_linker_10, # of connection points: 2
# Relax obj value: 0.623
# Max RMSD: 0.261
# Mean RMSD: 0.261
data_MOF--net-fnk--node1-XOMCOT_clean_sbu_1--edge1-TEMPAE_clean_linker_10
_symmetry_space_group_name_H-M    P1
_symmetry_Int_Tables_number       1
_symmetry_cell_setting            triclinic
loop_
_symmetry_equiv_pos_as_xyz
'x, y, z'
_cell_length_a     45.44426
_cell_length_b     45.508423
_cell_length_c     47.918462
_cell_angle_alpha  89.871033
_cell_angle_beta   89.954546
_cell_angle_gamma 90.348166
loop_
_atom_site_label
_atom_site_type_symbol
_atom_site_fract_x
_atom_site_fract_y
_atom_site_fract_z
_atom_type_partial_charge
C0 C 0.17507 0.32412 0.15573 0.0
C1 C 0.19536 0.30714 0.16934 0.0
N2 N 0.21232 0.32478 0.18523 0.0
N3 N 0.17907 0.35251 0.16281 0.0
C4 C 0.20192 0.35227 0.18094 0.0
H5 H 0.15793 0.31612 0.14202 0.0
Co6 Co 0.15535 0.383 0.14941 0.0
C7 C 0.15361 0.42718 0.19352 0.0
O8 O 0.12491 0.42492 0.19119 0.0
N9 N 0.13158 0.41473 0.13533 0.0
C10 C 0.12238 0.46018 0.1201 0.0
C11 C 0.14379 0.43971 0.1251 0.0
C12 C 0.10231 0.42089 0.13608 0.0
N13 N 0.09619 0.44847 0.12722 0.0
O14 O 0.18542 0.39308 0.12279 0.0
H15 H 0.16714 0.44373 0.12301 0.0
H16 H 0.08576 0.40633 0.14448 0.0
O17 O 0.17018 0.41049 0.17872 0.0
C18 C 0.17734 0.3758 0.10312 0.0
O19 O 0.15385 0.35934 0.10682 0.0
N20 N 0.12515 0.36833 0.17146 0.0
C21 C 0.08117 0.33261 0.19392 0.0
C22 C 0.1034 0.34443 0.21112 0.0
C23 C 0.12563 0.36199 0.19932 0.0
C24 C 0.10495 0.35537 0.1545 0.0
C25 C 0.0824 0.33837 0.16523 0.0
H26 H 0.14359 0.36965 0.21224 0.0
H27 H 0.1061 0.3586 0.1322 0.0
H28 H 0.21062 0.37176 0.19094 0.0
H29 H 0.19674 0.28342 0.1684 0.0
H30 H 0.12619 0.4826 0.11341 0.0
H31 H 0.10384 0.33991 0.23331 0.0
H32 H 0.06574 0.33046 0.15093 0.0
C33 C 0.66412 0.20112 0.14187 0.0
C34 C 0.68528 0.21819 0.15438 0.0
N35 N 0.67587 0.22581 0.1801 0.0
N36 N 0.64126 0.19767 0.15941 0.0
C37 C 0.64895 0.2129 0.18258 0.0
H38 H 0.66563 0.19115 0.12147 0.0
Co39 Co 0.6091 0.17399 0.15056 0.0
C40 C 0.56827 0.17383 0.19974 0.0
O41 O 0.56229 0.14606 0.19479 0.0
N42 N 0.57631 0.14968 0.14063 0.0
C43 C 0.53011 0.13637 0.13148 0.0
C44 C 0.54898 0.15967 0.1353 0.0
C45 C 0.5734 0.11998 0.13925 0.0
N46 N 0.54531 0.11113 0.13415 0.0
O47 O 0.59228 0.20621 0.13032 0.0
H48 H 0.54262 0.18251 0.13568 0.0
H49 H 0.59134 0.1051 0.14286 0.0
O50 O 0.58742 0.18735 0.1846 0.0
C51 C 0.59237 0.21409 0.10465 0.0
O52 O 0.57856 0.23846 0.09818 0.0
N53 N 0.62767 0.14259 0.16885 0.0
C54 C 0.64996 0.08893 0.18611 0.0
C55 C 0.63642 0.1078 0.20534 0.0
C56 C 0.6262 0.13509 0.19641 0.0
C57 C 0.64493 0.12667 0.15127 0.0
C58 C 0.65595 0.09953 0.15929 0.0
H59 H 0.61658 0.14948 0.21161 0.0
H60 H 0.64912 0.13428 0.13042 0.0
H61 H 0.63518 0.21414 0.20093 0.0
H62 H 0.70641 0.22361 0.14529 0.0
H63 H 0.50668 0.13827 0.12824 0.0
H64 H 0.63229 0.10106 0.22668 0.0
H65 H 0.66786 0.08645 0.14423 0.0
C66 C 0.83869 0.68726 0.16152 0.0
C67 C 0.81909 0.70774 0.17113 0.0
N68 N 0.79519 0.69351 0.18086 0.0
N69 N 0.82805 0.65984 0.16605 0.0
C70 C 0.8006 0.66472 0.17624 0.0
H71 H 0.85989 0.69227 0.15241 0.0
Co72 Co 0.84921 0.62481 0.15662 0.0
C73 C 0.8068 0.59821 0.1969 0.0
O74 O 0.81288 0.62009 0.21386 0.0
N75 N 0.86964 0.59099 0.14585 0.0
C76 C 0.87812 0.54622 0.12957 0.0
C77 C 0.85693 0.56683 0.13484 0.0
C78 C 0.89871 0.58475 0.14667 0.0
N79 N 0.9045 0.55742 0.137 0.0
O80 O 0.83306 0.62737 0.11943 0.0
H81 H 0.83361 0.56429 0.13099 0.0
H82 H 0.91521 0.60001 0.15424 0.0
O83 O 0.81733 0.59862 0.17193 0.0
C84 C 0.85272 0.6423 0.10632 0.0
O85 O 0.87652 0.65023 0.12001 0.0
N86 N 0.86863 0.62392 0.19163 0.0
C87 C 0.90151 0.62432 0.24068 0.0
C88 C 0.88778 0.59843 0.23166 0.0
C89 C 0.87181 0.59858 0.20682 0.0
C90 C 0.88324 0.64875 0.19959 0.0
C91 C 0.89915 0.64966 0.22432 0.0
H92 H 0.86244 0.57812 0.19954 0.0
H93 H 0.88406 0.66769 0.18625 0.0
H94 H 0.78441 0.64774 0.17997 0.0
H95 H 0.82284 0.73123 0.17205 0.0
H96 H 0.87419 0.52441 0.12138 0.0
H97 H 0.88998 0.57813 0.24331 0.0
H98 H 0.91093 0.66962 0.22974 0.0
C99 C 0.34711 0.80503 0.15272 0.0
C100 C 0.32919 0.78753 0.16887 0.0
N101 N 0.3408 0.7856 0.19468 0.0
N102 N 0.37034 0.81421 0.16795 0.0
C103 C 0.3659 0.80186 0.19348 0.0
H104 H 0.3429 0.81092 0.13128 0.0
Co105 Co 0.4006 0.8403 0.15607 0.0
C106 C 0.45074 0.79835 0.17175 0.0
O107 O 0.46022 0.79187 0.14665 0.0
N108 N 0.43115 0.86637 0.14411 0.0
C109 C 0.47091 0.8833 0.12186 0.0
C110 C 0.45375 0.859 0.12723 0.0
C111 C 0.43503 0.89564 0.1484 0.0
N112 N 0.45923 0.90637 0.13528 0.0
O113 O 0.40283 0.82077 0.12024 0.0
H114 H 0.45726 0.83748 0.11853 0.0
H115 H 0.4201 0.90907 0.16036 0.0
O116 O 0.42904 0.81558 0.17496 0.0
C117 C 0.38705 0.8373 0.10459 0.0
O118 O 0.37337 0.85954 0.11618 0.0
N119 N 0.39611 0.86186 0.18839 0.0
C120 C 0.39197 0.91224 0.21977 0.0
C121 C 0.4163 0.89384 0.22301 0.0
C122 C 0.418 0.86833 0.20696 0.0
C123 C 0.37086 0.87772 0.18762 0.0
C124 C 0.36829 0.90319 0.20327 0.0
H125 H 0.43834 0.85616 0.20695 0.0
H126 H 0.35409 0.87248 0.17239 0.0
H127 H 0.38033 0.80558 0.2111 0.0
H128 H 0.30902 0.77708 0.16198 0.0
H129 H 0.49058 0.88391 0.1091 0.0
H130 H 0.43507 0.90069 0.23537 0.0
H131 H 0.34937 0.91724 0.20028 0.0
C132 C 0.18401 0.67908 0.36704 0.0
C133 C 0.20263 0.69907 0.35461 0.0
N134 N 0.22714 0.68501 0.34644 0.0
N135 N 0.19627 0.65215 0.36656 0.0
C136 C 0.22304 0.65671 0.3546 0.0
H137 H 0.16249 0.68389 0.37546 0.0
Co138 Co 0.17747 0.61792 0.38089 0.0
C139 C 0.19898 0.59418 0.3236 0.0
O140 O 0.20641 0.61932 0.31205 0.0
N141 N 0.15828 0.58389 0.39511 0.0
C142 C 0.13598 0.55107 0.42256 0.0
C143 C 0.1563 0.57364 0.4215 0.0
C144 C 0.13917 0.56676 0.38054 0.0
N145 N 0.12499 0.54689 0.39676 0.0
O146 O 0.21331 0.60736 0.39885 0.0
H147 H 0.16756 0.58264 0.43929 0.0
H148 H 0.13413 0.57029 0.35873 0.0
O149 O 0.18826 0.59361 0.34832 0.0
C150 C 0.22246 0.61233 0.42366 0.0
O151 O 0.24865 0.60253 0.43044 0.0
N152 N 0.14184 0.62938 0.36504 0.0
C153 C 0.08475 0.64117 0.34776 0.0
C154 C 0.10727 0.63663 0.32816 0.0
C155 C 0.13582 0.63115 0.33725 0.0
C156 C 0.12068 0.63542 0.38432 0.0
C157 C 0.09197 0.64142 0.37616 0.0
H158 H 0.15264 0.62768 0.3219 0.0
H159 H 0.12585 0.63428 0.40629 0.0
H160 H 0.23897 0.63946 0.35136 0.0
H161 H 0.19784 0.722 0.35075 0.0
H162 H 0.12909 0.53939 0.44118 0.0
H163 H 0.10278 0.63612 0.30598 0.0
H164 H 0.07549 0.64547 0.39201 0.0
C165 C 0.33631 0.19904 0.37097 0.0
C166 C 0.31679 0.21657 0.35696 0.0
N167 N 0.32965 0.22607 0.33325 0.0
N168 N 0.36169 0.19749 0.35642 0.0
C169 C 0.35696 0.21435 0.33351 0.0
H170 H 0.3316 0.18751 0.39016 0.0
Co171 Co 0.39444 0.17397 0.3651 0.0
C172 C 0.43751 0.22647 0.35572 0.0
O173 O 0.44177 0.23691 0.38093 0.0
N174 N 0.42753 0.15095 0.37372 0.0
C175 C 0.47216 0.13895 0.38841 0.0
C176 C 0.4516 0.16082 0.38723 0.0
C177 C 0.43377 0.12268 0.36738 0.0
N178 N 0.46107 0.11476 0.37591 0.0
O179 O 0.39297 0.18699 0.40332 0.0
H180 H 0.45423 0.18269 0.39557 0.0
H181 H 0.41853 0.10837 0.35656 0.0
O182 O 0.42055 0.20449 0.35206 0.0
C183 C 0.37858 0.16573 0.41458 0.0
O184 O 0.37086 0.14343 0.39871 0.0
N185 N 0.39362 0.15826 0.3296 0.0
C186 C 0.39254 0.11898 0.28554 0.0
C187 C 0.41615 0.13878 0.28855 0.0
C188 C 0.41645 0.15816 0.31107 0.0
C189 C 0.36948 0.14101 0.3256 0.0
C190 C 0.36839 0.12128 0.30363 0.0
H191 H 0.43611 0.1709 0.31497 0.0
H192 H 0.35202 0.14084 0.34095 0.0
H193 H 0.37272 0.21677 0.31672 0.0
H194 H 0.29459 0.2215 0.36357 0.0
H195 H 0.49384 0.14116 0.39745 0.0
H196 H 0.43514 0.13776 0.27493 0.0
H197 H 0.34997 0.10612 0.30257 0.0
C198 C 0.83742 0.33337 0.35469 0.0
C199 C 0.81764 0.31405 0.34297 0.0
N200 N 0.8056 0.32697 0.32047 0.0
N201 N 0.83791 0.3586 0.33983 0.0
C202 C 0.81828 0.35388 0.31897 0.0
H203 H 0.85148 0.32863 0.37222 0.0
Co204 Co 0.86514 0.38957 0.34517 0.0
C205 C 0.81197 0.42618 0.32552 0.0
O206 O 0.79032 0.41117 0.33698 0.0
N207 N 0.8924 0.42066 0.35042 0.0
C208 C 0.90877 0.46521 0.36167 0.0
C209 C 0.88437 0.44753 0.35935 0.0
C210 C 0.92214 0.42243 0.34792 0.0
N211 N 0.93264 0.44954 0.35445 0.0
O212 O 0.85139 0.39442 0.38305 0.0
H213 H 0.86208 0.45382 0.36439 0.0
H214 H 0.93582 0.40428 0.34152 0.0
O215 O 0.83852 0.41811 0.32901 0.0
C216 C 0.87045 0.3798 0.39695 0.0
O217 O 0.89335 0.36941 0.38355 0.0
N218 N 0.88058 0.38153 0.31055 0.0
C219 C 0.90076 0.35028 0.26492 0.0
C220 C 0.88107 0.37363 0.26113 0.0
C221 C 0.871 0.38911 0.2845 0.0
C222 C 0.90079 0.36005 0.31421 0.0
C223 C 0.91126 0.3443 0.2918 0.0
H224 H 0.8546 0.40592 0.28168 0.0
H225 H 0.90778 0.35413 0.33498 0.0
H226 H 0.81448 0.36918 0.30207 0.0
H227 H 0.81297 0.29192 0.35011 0.0
H228 H 0.90899 0.4877 0.36897 0.0
H229 H 0.87307 0.37931 0.24054 0.0
H230 H 0.9275 0.32743 0.29562 0.0
C231 C 0.66864 0.81578 0.36781 0.0
C232 C 0.68726 0.79768 0.35331 0.0
N233 N 0.67684 0.79445 0.32718 0.0
N234 N 0.64627 0.82407 0.35109 0.0
C235 C 0.65186 0.81045 0.32649 0.0
H236 H 0.67187 0.8228 0.38909 0.0
Co237 Co 0.61579 0.85103 0.35926 0.0
C238 C 0.57994 0.79644 0.34101 0.0
O239 O 0.59824 0.77557 0.34833 0.0
N240 N 0.58501 0.87698 0.3672 0.0
C241 C 0.54113 0.89144 0.3819 0.0
C242 C 0.5598 0.86809 0.37952 0.0
C243 C 0.58125 0.90608 0.36248 0.0
N244 N 0.55454 0.9155 0.37131 0.0
O245 O 0.61508 0.83845 0.39802 0.0
H246 H 0.55514 0.84581 0.38615 0.0
H247 H 0.59781 0.91998 0.35286 0.0
O248 O 0.58641 0.82321 0.34596 0.0
C249 C 0.63135 0.85828 0.40936 0.0
O250 O 0.64296 0.87846 0.39295 0.0
N251 N 0.61901 0.8665 0.32359 0.0
C252 C 0.62894 0.89704 0.27431 0.0
C253 C 0.6022 0.88216 0.27869 0.0
C254 C 0.59755 0.86712 0.30371 0.0
C255 C 0.64525 0.88037 0.31944 0.0
C256 C 0.65083 0.89551 0.29482 0.0
H257 H 0.57634 0.85732 0.30753 0.0
H258 H 0.66165 0.88032 0.33578 0.0
H259 H 0.63838 0.81314 0.30806 0.0
H260 H 0.70714 0.78788 0.36143 0.0
H261 H 0.51907 0.89047 0.39037 0.0
H262 H 0.58461 0.88325 0.26347 0.0
H263 H 0.67141 0.90744 0.29267 0.0
C264 C 0.81789 0.67431 0.84389 0.0
C265 C 0.79854 0.69484 0.83399 0.0
N266 N 0.81368 0.71942 0.82744 0.0
N267 N 0.84548 0.68543 0.84345 0.0
C268 C 0.84191 0.71353 0.8346 0.0
H269 H 0.81228 0.65193 0.8494 0.0
Co270 Co 0.8791 0.66148 0.84955 0.0
C271 C 0.90385 0.70204 0.80271 0.0
O272 O 0.87888 0.70572 0.78946 0.0
N273 N 0.91212 0.63701 0.85523 0.0
C274 C 0.95223 0.6116 0.84436 0.0
C275 C 0.93299 0.63266 0.83558 0.0
C276 C 0.91859 0.61713 0.87546 0.0
N277 N 0.94322 0.60175 0.86936 0.0
O278 O 0.88874 0.68346 0.88271 0.0
H279 H 0.93288 0.64216 0.81494 0.0
H280 H 0.9048 0.61298 0.89349 0.0
O281 O 0.9046 0.68656 0.82512 0.0
C282 C 0.87123 0.67299 0.90127 0.0
O283 O 0.85212 0.65273 0.89392 0.0
N284 N 0.86721 0.63674 0.82095 0.0
C285 C 0.84099 0.59074 0.79175 0.0
C286 C 0.85366 0.61472 0.7774 0.0
C287 C 0.8672 0.63745 0.79248 0.0
C288 C 0.85547 0.61344 0.8349 0.0
C289 C 0.84266 0.59026 0.82091 0.0
H290 H 0.87772 0.65485 0.78109 0.0
H291 H 0.85616 0.61282 0.85741 0.0
H292 H 0.85983 0.72903 0.83204 0.0
H293 H 0.77548 0.69093 0.82957 0.0
H294 H 0.97013 0.60244 0.8323 0.0
H295 H 0.85341 0.61588 0.75484 0.0
H296 H 0.83486 0.57179 0.83317 0.0
C297 C 0.30551 0.83035 0.85666 0.0
C298 C 0.28178 0.81771 0.84333 0.0
N299 N 0.28092 0.82766 0.81682 0.0
N300 N 0.3198 0.84846 0.83884 0.0
C301 C 0.30367 0.84692 0.81501 0.0
H302 H 0.31297 0.82471 0.87737 0.0
Co303 Co 0.35877 0.86324 0.84287 0.0
C304 C 0.35956 0.92103 0.8132 0.0
O305 O 0.38657 0.91577 0.80486 0.0
N306 N 0.39823 0.87746 0.84708 0.0
C307 C 0.44708 0.88089 0.84487 0.0
C308 C 0.42309 0.86316 0.84002 0.0
C309 C 0.40807 0.90355 0.85742 0.0
N310 N 0.43773 0.90654 0.85556 0.0
O311 O 0.35139 0.87429 0.88144 0.0
H312 H 0.42412 0.84132 0.83144 0.0
H313 H 0.39357 0.92045 0.86517 0.0
O314 O 0.34568 0.90188 0.82799 0.0
C315 C 0.36188 0.85285 0.89567 0.0
O316 O 0.37312 0.83063 0.88192 0.0
N317 N 0.36742 0.84806 0.80749 0.0
C318 C 0.39104 0.816 0.76353 0.0
C319 C 0.37733 0.84324 0.75863 0.0
C320 C 0.3658 0.85913 0.78103 0.0
C321 C 0.37562 0.81971 0.81158 0.0
C322 C 0.38802 0.80349 0.7902 0.0
H323 H 0.35578 0.88003 0.77682 0.0
H324 H 0.3749 0.81043 0.83233 0.0
H325 H 0.30993 0.85774 0.79584 0.0
H326 H 0.26736 0.8011 0.85214 0.0
H327 H 0.46964 0.87556 0.83984 0.0
H328 H 0.37689 0.85304 0.73804 0.0
H329 H 0.39751 0.78254 0.79566 0.0
C330 C 0.17829 0.34814 0.8486 0.0
C331 C 0.19623 0.33049 0.833 0.0
N332 N 0.17941 0.31063 0.81948 0.0
N333 N 0.15007 0.33962 0.84528 0.0
C334 C 0.1514 0.31669 0.82726 0.0
H335 H 0.18541 0.36686 0.86074 0.0
Co336 Co 0.11854 0.36039 0.86113 0.0
C337 C 0.06543 0.34256 0.83061 0.0
O338 O 0.05782 0.37031 0.83139 0.0
N339 N 0.08668 0.38181 0.87808 0.0
C340 C 0.04745 0.39068 0.90491 0.0
C341 C 0.06798 0.37013 0.89716 0.0
C342 C 0.07661 0.40969 0.87459 0.0
N343 N 0.05281 0.41554 0.89056 0.0
O344 O 0.12118 0.33613 0.89404 0.0
H345 H 0.06864 0.34771 0.90461 0.0
H346 H 0.08581 0.42544 0.86014 0.0
O347 O 0.08971 0.33441 0.84182 0.0
C348 C 0.13921 0.35158 0.90849 0.0
O349 O 0.14776 0.37716 0.89863 0.0
N350 N 0.12087 0.38601 0.83124 0.0
C351 C 0.14973 0.42212 0.79331 0.0
C352 C 0.13391 0.39749 0.7839 0.0
C353 C 0.11989 0.3792 0.80347 0.0
C354 C 0.13551 0.41035 0.84023 0.0
C355 C 0.14949 0.42895 0.82169 0.0
H356 H 0.11057 0.35859 0.79652 0.0
H357 H 0.13768 0.41463 0.86226 0.0
H358 H 0.13225 0.30507 0.81954 0.0
H359 H 0.21982 0.33302 0.83082 0.0
H360 H 0.02935 0.38722 0.91927 0.0
H361 H 0.13374 0.39164 0.76201 0.0
H362 H 0.16082 0.44817 0.82973 0.0
C363 C 0.69743 0.17028 0.885 0.0
C364 C 0.71666 0.18834 0.87072 0.0
N365 N 0.7185 0.17896 0.84414 0.0
N366 N 0.68706 0.14929 0.8677 0.0
C367 C 0.70036 0.15525 0.84289 0.0
H368 H 0.69097 0.17296 0.90653 0.0
Co369 Co 0.65734 0.12113 0.87631 0.0
C370 C 0.70308 0.08142 0.84891 0.0
O371 O 0.72702 0.09628 0.85524 0.0
N372 N 0.6278 0.09221 0.88453 0.0
C373 C 0.6086 0.05132 0.90298 0.0
C374 C 0.63303 0.069 0.90148 0.0
C375 C 0.59988 0.08739 0.87523 0.0
N376 N 0.58775 0.06275 0.88647 0.0
O377 O 0.67525 0.11372 0.91241 0.0
H378 H 0.65374 0.06447 0.91164 0.0
H379 H 0.58875 0.1013 0.8603 0.0
O380 O 0.67803 0.09038 0.85705 0.0
C381 C 0.65837 0.12846 0.92856 0.0
O382 O 0.63729 0.14408 0.91727 0.0
N383 N 0.63797 0.13167 0.84425 0.0
C384 C 0.6031 0.15748 0.80357 0.0
C385 C 0.62038 0.13272 0.79723 0.0
C386 C 0.63764 0.11984 0.81813 0.0
C387 C 0.62223 0.15605 0.85037 0.0
C388 C 0.60448 0.16906 0.83061 0.0
H389 H 0.65041 0.10055 0.81335 0.0
H390 H 0.62303 0.16518 0.87111 0.0
H391 H 0.69607 0.143 0.82399 0.0
H392 H 0.72823 0.2071 0.87931 0.0
H393 H 0.60669 0.03084 0.91441 0.0
H394 H 0.62022 0.12309 0.77661 0.0
H395 H 0.59101 0.18733 0.83716 0.0
C396 C 0.83859 0.2944 0.64405 0.0
C397 C 0.81998 0.27675 0.65938 0.0
N398 N 0.82859 0.27736 0.68624 0.0
N399 N 0.85925 0.30628 0.66091 0.0
C400 C 0.85255 0.29526 0.68659 0.0
H401 H 0.83633 0.29875 0.62203 0.0
Co402 Co 0.88763 0.33538 0.65052 0.0
C403 C 0.92731 0.29096 0.67987 0.0
O404 O 0.9127 0.26685 0.67371 0.0
N405 N 0.91632 0.36406 0.64038 0.0
C406 C 0.95843 0.38088 0.62247 0.0
C407 C 0.94204 0.35629 0.62841 0.0
C408 C 0.9179 0.39387 0.64191 0.0
N409 N 0.94336 0.40458 0.63093 0.0
O410 O 0.8956 0.31532 0.61599 0.0
H411 H 0.9486 0.33392 0.62425 0.0
H412 H 0.90074 0.40747 0.65057 0.0
O413 O 0.91824 0.31579 0.6712 0.0
C414 C 0.87936 0.32942 0.59879 0.0
O415 O 0.86198 0.34995 0.60847 0.0
N416 N 0.87715 0.35695 0.68121 0.0
C417 C 0.85157 0.39441 0.7198 0.0
C418 C 0.87564 0.37668 0.7274 0.0
C419 C 0.88848 0.35819 0.70753 0.0
C420 C 0.8534 0.3731 0.67389 0.0
C421 C 0.84059 0.39218 0.69254 0.0
H422 H 0.90721 0.34503 0.71333 0.0
H423 H 0.8447 0.37165 0.653 0.0
H424 H 0.86435 0.30111 0.70539 0.0
H425 H 0.80126 0.26466 0.65132 0.0
H426 H 0.98012 0.3813 0.6131 0.0
H427 H 0.88479 0.37733 0.74823 0.0
H428 H 0.82299 0.40592 0.68491 0.0
C429 C 0.65963 0.83031 0.6642 0.0
C430 C 0.68075 0.81075 0.67265 0.0
N431 N 0.70514 0.82587 0.68007 0.0
N432 N 0.67018 0.85792 0.66663 0.0
C433 C 0.69848 0.85437 0.67479 0.0
H434 H 0.63709 0.82486 0.65903 0.0
Co435 Co 0.64607 0.89169 0.66511 0.0
C436 C 0.68685 0.91127 0.71464 0.0
O437 O 0.69321 0.88531 0.72474 0.0
N438 N 0.6219 0.92568 0.66418 0.0
C439 C 0.59621 0.96254 0.68196 0.0
C440 C 0.61615 0.94106 0.68758 0.0
C441 C 0.60457 0.93829 0.64443 0.0
N442 N 0.5887 0.96104 0.65481 0.0
O443 O 0.66801 0.90565 0.63336 0.0
H444 H 0.62451 0.93592 0.70812 0.0
H445 H 0.60274 0.93021 0.62329 0.0
O446 O 0.67077 0.91357 0.69274 0.0
C447 C 0.65439 0.89192 0.61382 0.0
O448 O 0.63189 0.87506 0.62044 0.0
N449 N 0.62105 0.87492 0.69197 0.0
C450 C 0.58119 0.83388 0.71295 0.0
C451 C 0.60689 0.84056 0.72783 0.0
C452 C 0.62688 0.86114 0.71674 0.0
C453 C 0.59509 0.86982 0.67857 0.0
C454 C 0.57485 0.84974 0.68875 0.0
H455 H 0.64753 0.86385 0.72703 0.0
H456 H 0.59088 0.8796 0.65845 0.0
H457 H 0.71341 0.87251 0.67845 0.0
H458 H 0.67719 0.78743 0.67573 0.0
H459 H 0.5865 0.97684 0.69739 0.0
H460 H 0.61218 0.82892 0.74689 0.0
H461 H 0.55477 0.84587 0.6771 0.0
C462 C 0.17477 0.67006 0.64816 0.0
C463 C 0.19588 0.6896 0.65705 0.0
N464 N 0.18288 0.71535 0.66318 0.0
N465 N 0.14813 0.68287 0.649 0.0
C466 C 0.15406 0.71096 0.65673 0.0
H467 H 0.17829 0.64703 0.64389 0.0
Co468 Co 0.11338 0.65948 0.64751 0.0
C469 C 0.08772 0.70819 0.68801 0.0
O470 O 0.11163 0.7181 0.70013 0.0
N471 N 0.07878 0.6351 0.64674 0.0
C472 C 0.04005 0.61142 0.66491 0.0
C473 C 0.06076 0.63289 0.66915 0.0
C474 C 0.06897 0.61347 0.62943 0.0
N475 N 0.04515 0.59914 0.64001 0.0
O476 O 0.10355 0.67701 0.61198 0.0
H477 H 0.06389 0.64441 0.68861 0.0
H478 H 0.08004 0.60707 0.61042 0.0
O479 O 0.08941 0.68802 0.66939 0.0
C480 C 0.11638 0.65978 0.59474 0.0
O481 O 0.13003 0.63667 0.6047 0.0
N482 N 0.12602 0.6393 0.67891 0.0
C483 C 0.1602 0.60338 0.71239 0.0
C484 C 0.15198 0.63131 0.72181 0.0
C485 C 0.135 0.64929 0.7044 0.0
C486 C 0.13289 0.61171 0.67032 0.0
C487 C 0.14965 0.59338 0.68672 0.0
H488 H 0.13077 0.67138 0.71081 0.0
H489 H 0.12679 0.60438 0.6497 0.0
H490 H 0.1375 0.72771 0.65843 0.0
H491 H 0.21859 0.68412 0.66122 0.0
H492 H 0.02395 0.60372 0.67996 0.0
H493 H 0.15948 0.63945 0.74181 0.0
H494 H 0.15469 0.57158 0.67909 0.0
C495 C 0.33577 0.18743 0.66558 0.0
C496 C 0.31585 0.20841 0.67339 0.0
N497 N 0.2903 0.19499 0.68025 0.0
N498 N 0.32326 0.1606 0.66774 0.0
C499 C 0.2952 0.16601 0.67573 0.0
H500 H 0.35862 0.19136 0.66039 0.0
Co501 Co 0.34533 0.12573 0.66426 0.0
C502 C 0.3022 0.10224 0.7111 0.0
O503 O 0.29294 0.12628 0.72329 0.0
N504 N 0.36783 0.09066 0.66136 0.0
C505 C 0.39147 0.05125 0.67683 0.0
C506 C 0.37205 0.07281 0.68353 0.0
C507 C 0.38583 0.07955 0.64135 0.0
N508 N 0.40043 0.0553 0.65031 0.0
O509 O 0.3228 0.11495 0.63219 0.0
H510 H 0.36337 0.07638 0.70423 0.0
H511 H 0.38925 0.08983 0.62122 0.0
O512 O 0.32 0.10391 0.69045 0.0
C513 C 0.33709 0.12927 0.61348 0.0
O514 O 0.36038 0.14457 0.6209 0.0
N515 N 0.37029 0.13875 0.69218 0.0
C516 C 0.41373 0.16884 0.72134 0.0
C517 C 0.38611 0.16356 0.73368 0.0
C518 C 0.36438 0.1485 0.7185 0.0
C519 C 0.39711 0.14346 0.68034 0.0
C520 C 0.41916 0.15786 0.69461 0.0
H521 H 0.34274 0.14612 0.72731 0.0
H522 H 0.40119 0.13686 0.65906 0.0
H523 H 0.27886 0.14901 0.67889 0.0
H524 H 0.3207 0.23157 0.6759 0.0
H525 H 0.40013 0.03521 0.69132 0.0
H526 H 0.38116 0.17164 0.75438 0.0
H527 H 0.44036 0.16045 0.68451 0.0
C528 C 0.9558 0.55024 0.15328 0.0
C529 C 0.93254 0.5426 0.13538 0.0
C530 C 0.98272 0.53511 0.15244 0.0
C531 C 0.98649 0.5117 0.13333 0.0
C532 C 0.96319 0.504 0.11515 0.0
C533 C 0.93666 0.5196 0.11629 0.0
C534 C 0.0071 0.5441 0.17209 0.0
C535 C 0.96622 0.47917 0.09449 0.0
C536 C 0.06355 0.48867 0.11163 0.0
C537 C 0.06832 0.46374 0.12834 0.0
C538 C 0.03728 0.50468 0.11336 0.0
C539 C 0.01488 0.4954 0.13199 0.0
C540 C 0.0193 0.47009 0.1487 0.0
C541 C 0.04597 0.4547 0.1468 0.0
C542 C 0.03348 0.53155 0.09518 0.0
C543 C 0.99583 0.45927 0.16862 0.0
H544 H 0.95281 0.56769 0.16832 0.0
H545 H 0.91915 0.5138 0.102 0.0
H546 H 0.01317 0.52529 0.18562 0.0
H547 H 0.02701 0.55037 0.15999 0.0
H548 H 1.00078 0.56287 0.18557 0.0
H549 H 0.94584 0.47559 0.08213 0.0
H550 H 0.98461 0.48388 0.07988 0.0
H551 H 0.97158 0.45849 0.10563 0.0
H552 H 0.08035 0.49569 0.09701 0.0
H553 H 0.04939 0.43586 0.16019 0.0
H554 H 0.02866 0.55097 0.10833 0.0
H555 H 0.01448 0.52836 0.08097 0.0
H556 H 0.05334 0.53639 0.0824 0.0
H557 H 0.99082 0.47658 0.18415 0.0
H558 H 1.00252 0.43904 0.17993 0.0
H559 H 0.9752 0.45457 0.15705 0.0
C560 C 0.55055 0.05719 0.14224 0.0
C561 C 0.53333 0.08136 0.13413 0.0
C562 C 0.53882 0.02846 0.143 0.0
C563 C 0.509 0.02351 0.13574 0.0
C564 C 0.49146 0.04762 0.12761 0.0
C565 C 0.5038 0.07601 0.12666 0.0
C566 C 0.55849 1.00337 0.15134 0.0
C567 C 0.45945 0.04346 0.12004 0.0
C568 C 0.48439 0.94757 0.11139 0.0
C569 C 0.47072 0.93604 0.13533 0.0
C570 C 0.49701 0.97584 0.11131 0.0
C571 C 0.49623 0.99309 0.13586 0.0
C572 C 0.48261 0.98148 0.16019 0.0
C573 C 0.46981 0.9532 0.15957 0.0
C574 C 0.51127 0.98723 0.08491 0.0
C575 C 0.48222 0.99858 0.18709 0.0
H576 H 0.57325 0.06047 0.14823 0.0
H577 H 0.49001 0.09393 0.11999 0.0
H578 H 0.54851 0.99072 0.16878 0.0
H579 H 0.56107 0.98806 0.13353 0.0
H580 H 0.58061 0.01118 0.15783 0.0
H581 H 0.44869 0.06441 0.1141 0.0
H582 H 0.45734 0.02782 0.10242 0.0
H583 H 0.44739 0.03382 0.13803 0.0
H584 H 0.485 0.93446 0.09257 0.0
H585 H 0.45983 0.94414 0.17827 0.0
H586 H 0.53458 0.99318 0.08902 0.0
H587 H 0.49999 0.00747 0.07783 0.0
H588 H 0.51057 0.97088 0.06774 0.0
H589 H 0.50488 1.00025 0.19553 0.0
H590 H 0.46803 0.98795 0.20312 0.0
H591 H 0.47442 0.02131 0.18337 0.0
C592 C 0.98598 0.44159 0.36294 0.0
C593 C 0.96274 0.46011 0.35528 0.0
C594 C 0.01458 0.45295 0.36742 0.0
C595 C 0.02004 0.48351 0.36415 0.0
C596 C 0.99701 0.50188 0.35485 0.0
C597 C 0.9688 0.48999 0.35051 0.0
C598 C 0.03858 0.4325 0.37694 0.0
C599 C 1.00164 0.53448 0.35089 0.0
C600 C 0.07764 0.52265 0.40844 0.0
C601 C 0.10001 0.52873 0.38901 0.0
C602 C 0.0521 0.50708 0.4008 0.0
C603 C 0.04871 0.49701 0.37302 0.0
C604 C 0.07162 0.50221 0.35347 0.0
C605 C 0.0969 0.51811 0.36166 0.0
C606 C 0.02813 0.50251 0.42227 0.0
C607 C 0.06909 0.4917 0.32372 0.0
H608 H 0.98154 0.41851 0.36669 0.0
H609 H 0.95116 0.50433 0.34397 0.0
H610 H 0.05891 0.43625 0.36457 0.0
H611 H 0.04398 0.43707 0.39909 0.0
H612 H 0.03196 0.40905 0.37508 0.0
H613 H 0.98245 0.54497 0.3407 0.0
H614 H 0.00521 0.54499 0.37149 0.0
H615 H 0.0215 0.53887 0.33804 0.0
H616 H 0.07952 0.53109 0.42947 0.0
H617 H 0.11419 0.52242 0.34659 0.0
H618 H 0.02198 0.47892 0.42354 0.0
H619 H 0.00818 0.51477 0.41592 0.0
H620 H 0.03485 0.51008 0.44336 0.0
H621 H 0.06361 0.46791 0.32331 0.0
H622 H 0.08969 0.49545 0.31169 0.0
H623 H 0.05092 0.50342 0.31308 0.0
C624 C 0.55203 0.96541 0.35023 0.0
C625 C 0.54222 0.94474 0.37002 0.0
C626 C 0.53947 0.99362 0.34871 0.0
C627 C 0.51647 1.00127 0.36728 0.0
C628 C 0.5064 0.98045 0.38711 0.0
C629 C 0.51953 0.9527 0.3884 0.0
C630 C 0.551 0.01533 0.32744 0.0
C631 C 0.48186 0.98756 0.40727 0.0
C632 C 0.50099 0.08007 0.38814 0.0
C633 C 0.47568 0.08672 0.37251 0.0
C634 C 0.51526 0.05296 0.38553 0.0
C635 C 0.50373 0.03142 0.36727 0.0
C636 C 0.47852 0.03794 0.3511 0.0
C637 C 0.46498 0.06555 0.35369 0.0
C638 C 0.54221 0.04704 0.40307 0.0
C639 C 0.46531 0.01544 0.33166 0.0
H640 H 0.56929 0.95948 0.33575 0.0
H641 H 0.5121 0.93732 0.40418 0.0
H642 H 0.53278 0.02304 0.31393 0.0
H643 H 0.56016 0.0349 0.33822 0.0
H644 H 0.56842 0.00578 0.31401 0.0
H645 H 0.47546 0.96838 0.42035 0.0
H646 H 0.48882 0.00571 0.42125 0.0
H647 H 0.46218 0.99516 0.39568 0.0
H648 H 0.50953 0.09574 0.40303 0.0
H649 H 0.44588 0.07035 0.34105 0.0
H650 H 0.56034 0.03866 0.38982 0.0
H651 H 0.53709 0.02983 0.41881 0.0
H652 H 0.5501 0.06699 0.41417 0.0
H653 H 0.48209 0.00783 0.31653 0.0
H654 H 0.44627 0.02431 0.31996 0.0
H655 H 0.45785 0.99594 0.34375 0.0
C656 C 0.93959 0.54915 0.88027 0.0
C657 C 0.95488 0.57585 0.88233 0.0
C658 C 0.95402 0.52223 0.88475 0.0
C659 C 0.98437 0.52217 0.89169 0.0
C660 C 0.9992 0.54929 0.89586 0.0
C661 C 0.98435 0.57575 0.89078 0.0
C662 C 0.93738 0.49393 0.8798 0.0
C663 C 0.03136 0.55039 0.90367 0.0
C664 C 0.02144 0.45129 0.91548 0.0
C665 C 0.03557 0.44215 0.89094 0.0
C666 C 0.00458 0.47715 0.9161 0.0
C667 C 1.00143 0.49414 0.8915 0.0
C668 C 0.01536 0.4848 0.86658 0.0
C669 C 0.03234 0.45908 0.86665 0.0
C670 C 0.99047 0.4865 0.94316 0.0
C671 C 0.01236 0.50203 0.83976 0.0
H672 H 0.91702 0.54931 0.87299 0.0
H673 H 0.9962 0.59646 0.8918 0.0
H674 H 0.94528 0.48372 0.86018 0.0
H675 H 0.94146 0.47808 0.89695 0.0
H676 H 0.9133 0.49754 0.87798 0.0
H677 H 0.03854 0.57286 0.90976 0.0
H678 H 0.03591 0.53511 0.9212 0.0
H679 H 0.04486 0.54326 0.88563 0.0
H680 H 0.02403 0.43845 0.93437 0.0
H681 H 0.04273 0.45193 0.84751 0.0
H682 H 0.96637 0.48885 0.94034 0.0
H683 H 0.99921 0.50832 0.94947 0.0
H684 H 0.99452 0.4706 0.96034 0.0
H685 H 0.98877 0.50453 0.83438 0.0
H686 H 0.02376 0.49133 0.822 0.0
H687 H 0.0217 0.52442 0.84248 0.0
C688 C 0.44448 0.9608 0.85863 0.0
C689 C 0.4559 0.93225 0.86089 0.0
C690 C 0.46275 0.9858 0.86178 0.0
C691 C 0.49321 0.98225 0.86721 0.0
C692 C 0.50471 0.9535 0.86974 0.0
C693 C 0.48599 0.92904 0.86675 0.0
C694 C 0.44952 0.016 0.85914 0.0
C695 C 0.53698 0.94849 0.87554 0.0
C696 C 0.5526 0.04025 0.85342 0.0
C697 C 0.55997 0.04857 0.88066 0.0
C698 C 0.52953 0.02003 0.84841 0.0
C699 C 0.51327 0.00821 0.8712 0.0
C700 C 0.51923 0.01853 0.89851 0.0
C701 C 0.54266 0.03827 0.90289 0.0
C702 C 0.52418 0.00957 0.81899 0.0
C703 C 0.50231 0.00707 0.92341 0.0
H704 H 0.42141 0.96365 0.85375 0.0
H705 H 0.49504 0.90721 0.869 0.0
H706 H 0.45312 0.0285 0.87871 0.0
H707 H 0.46059 0.02839 0.84211 0.0
H708 H 0.42553 0.01512 0.85475 0.0
H709 H 0.54266 0.92478 0.87602 0.0
H710 H 0.5506 0.95947 0.85931 0.0
H711 H 0.54303 0.95832 0.89592 0.0
H712 H 0.56627 0.04785 0.83629 0.0
H713 H 0.54848 0.04468 0.92396 0.0
H714 H 0.50029 0.00906 0.81429 0.0
H715 H 0.5325 0.98682 0.81678 0.0
H716 H 0.53548 0.02372 0.80333 0.0
H717 H 0.47832 0.00708 0.91913 0.0
H718 H 0.5066 0.0203 0.94245 0.0
H719 H 0.50879 0.98403 0.92769 0.0
C720 C 0.96945 0.44383 0.60521 0.0
C721 C 0.95389 0.43455 0.629 0.0
C722 C 0.98347 0.47143 0.60411 0.0
C723 C 0.98244 0.49021 0.6276 0.0
C724 C 0.96589 0.48138 0.65139 0.0
C725 C 0.95158 0.45375 0.6517 0.0
C726 C 1.00016 0.4801 0.57807 0.0
C727 C 0.96436 0.50054 0.677 0.0
C728 C 0.0452 0.54528 0.63841 0.0
C729 C 0.03183 0.5719 0.63136 0.0
C730 C 0.02956 0.51852 0.63686 0.0
C731 C 0.99984 0.51835 0.62776 0.0
C732 C 0.98671 0.54516 0.61943 0.0
C733 C 1.00274 0.57164 0.62174 0.0
C734 C 0.0444 0.49062 0.64628 0.0
C735 C 0.95538 0.54605 0.60907 0.0
H736 H 0.97105 0.42911 0.58753 0.0
H737 H 0.93984 0.44653 0.6702 0.0
H738 H 0.99316 0.50217 0.57086 0.0
H739 H 0.02403 0.48146 0.58274 0.0
H740 H 0.99681 0.46416 0.56082 0.0
H741 H 0.94948 0.49125 0.69322 0.0
H742 H 0.9867 0.50308 0.68606 0.0
H743 H 0.95657 0.52282 0.67133 0.0
H744 H 0.06739 0.54572 0.6467 0.0
H745 H 0.99225 0.59239 0.61704 0.0
H746 H 0.04351 0.47393 0.62947 0.0
H747 H 0.03253 0.48133 0.66456 0.0
H748 H 0.06777 0.49433 0.65215 0.0
H749 H 0.95209 0.52971 0.59219 0.0
H750 H 0.94931 0.56812 0.60107 0.0
H751 H 0.94014 0.54009 0.6263 0.0
C752 C 0.44421 0.05342 0.61905 0.0
C753 C 0.42464 0.0396 0.63767 0.0
C754 C 0.47146 0.04046 0.61239 0.0
C755 C 0.47973 0.01377 0.62555 0.0
C756 C 0.45875 0.99847 0.64203 0.0
C757 C 0.4313 0.01121 0.64718 0.0
C758 C 0.49194 0.05639 0.59266 0.0
C759 C 0.46616 0.96992 0.65651 0.0
C760 C 0.54836 0.96656 0.61994 0.0
C761 C 0.56511 0.97775 0.64217 0.0
C762 C 0.52182 0.98011 0.61184 0.0
C763 C 0.51126 0.0046 0.62709 0.0
C764 C 0.52946 0.0174 0.64779 0.0
C765 C 0.5564 0.00435 0.65439 0.0
C766 C 0.50455 0.96703 0.58802 0.0
C767 C 0.51946 0.04346 0.6648 0.0
H768 H 0.43914 0.07505 0.61098 0.0
H769 H 0.41573 0.99971 0.66046 0.0
H770 H 0.50405 0.07378 0.60416 0.0
H771 H 0.50813 0.04132 0.58303 0.0
H772 H 0.47924 0.06736 0.57584 0.0
H773 H 0.44752 0.96118 0.66911 0.0
H774 H 0.47228 0.95311 0.6409 0.0
H775 H 0.48533 0.97318 0.67054 0.0
H776 H 0.55506 0.94646 0.60976 0.0
H777 H 0.56989 0.01415 0.67053 0.0
H778 H 0.48885 0.98295 0.57886 0.0
H779 H 0.49209 0.94753 0.59554 0.0
H780 H 0.51969 0.95939 0.57136 0.0
H781 H 0.5156 0.06257 0.65095 0.0
H782 H 0.53583 0.05004 0.68087 0.0
H783 H 0.49838 0.03821 0.67548 0.0
C784 C 0.23992 0.3301 0.22954 0.0
C785 C 0.23483 0.31517 0.20441 0.0
C786 C 0.25871 0.31835 0.25003 0.0
C787 C 0.27266 0.29103 0.24527 0.0
C788 C 0.26906 0.27689 0.21921 0.0
C789 C 0.25031 0.28916 0.19913 0.0
C790 C 0.26216 0.33429 0.27743 0.0
C791 C 0.28352 0.24779 0.21314 0.0
C792 C 0.33218 0.26162 0.29397 0.0
C793 C 0.31574 0.24279 0.3113 0.0
C794 C 0.31849 0.27804 0.27271 0.0
C795 C 0.28771 0.27531 0.26854 0.0
C796 C 0.2711 0.2563 0.28598 0.0
C797 C 0.28528 0.24037 0.30706 0.0
C798 C 0.33691 0.2982 0.25466 0.0
C799 C 0.23832 0.25235 0.28208 0.0
H800 H 0.22805 0.35016 0.23384 0.0
H801 H 0.24707 0.27786 0.17949 0.0
H802 H 0.25004 0.32215 0.29398 0.0
H803 H 0.28564 0.33519 0.28369 0.0
H804 H 0.2535 0.35704 0.27641 0.0
H805 H 0.28113 0.24127 0.19093 0.0
H806 H 0.30728 0.24873 0.21835 0.0
H807 H 0.27339 0.23043 0.22638 0.0
H808 H 0.35568 0.26376 0.29727 0.0
H809 H 0.27246 0.22547 0.31992 0.0
H810 H 0.32821 0.3209 0.25566 0.0
H811 H 0.33561 0.2911 0.23257 0.0
H812 H 0.36039 0.29855 0.2611 0.0
H813 H 0.22714 0.27389 0.28357 0.0
H814 H 0.22849 0.23724 0.29782 0.0
H815 H 0.23376 0.24342 0.26099 0.0
C816 C 0.78757 0.28365 0.29455 0.0
C817 C 0.78547 0.31365 0.30084 0.0
C818 C 0.7684 0.27026 0.27535 0.0
C819 C 0.74616 0.28714 0.26237 0.0
C820 C 0.74364 0.3174 0.26893 0.0
C821 C 0.76353 0.33036 0.28786 0.0
C822 C 0.77238 0.23815 0.26853 0.0
C823 C 0.71996 0.33607 0.25594 0.0
C824 C 0.71749 0.25882 0.19281 0.0
C825 C 0.69217 0.24283 0.20065 0.0
C826 C 0.73487 0.27364 0.21256 0.0
C827 C 0.72655 0.27328 0.241 0.0
C828 C 0.70043 0.25834 0.24905 0.0
C829 C 0.68372 0.24313 0.22889 0.0
C830 C 0.76271 0.28899 0.20303 0.0
C831 C 0.69048 0.25786 0.27912 0.0
H832 H 0.80474 0.27074 0.30421 0.0
H833 H 0.76169 0.35348 0.29288 0.0
H834 H 0.75177 0.2258 0.2729 0.0
H835 H 0.77721 0.23562 0.24596 0.0
H836 H 0.79053 0.22802 0.28065 0.0
H837 H 0.72009 0.35887 0.26417 0.0
H838 H 0.723 0.33699 0.23299 0.0
H839 H 0.69802 0.32607 0.25993 0.0
H840 H 0.72411 0.25967 0.17116 0.0
H841 H 0.66439 0.23102 0.23553 0.0
H842 H 0.78204 0.27887 0.21332 0.0
H843 H 0.76232 0.31244 0.20924 0.0
H844 H 0.76583 0.28778 0.18007 0.0
H845 H 0.70646 0.24535 0.2919 0.0
H846 H 0.66839 0.24761 0.28165 0.0
H847 H 0.68982 0.28054 0.28754 0.0
C848 C 0.67427 0.7677 0.28211 0.0
C849 C 0.69084 0.77905 0.3044 0.0
C850 C 0.68791 0.75275 0.2599 0.0
C851 C 0.71887 0.74911 0.25991 0.0
C852 C 0.73566 0.7606 0.28231 0.0
C853 C 0.7215 0.77538 0.30415 0.0
C854 C 0.66923 0.74077 0.23647 0.0
C855 C 0.76872 0.75741 0.28317 0.0
C856 C 0.7589 0.68975 0.2193 0.0
C857 C 0.77195 0.70608 0.19762 0.0
C858 C 0.74011 0.70309 0.23881 0.0
C859 C 0.73413 0.73353 0.23664 0.0
C860 C 0.74569 0.74969 0.21379 0.0
C861 C 0.76442 0.7358 0.1946 0.0
C862 C 0.72824 0.68498 0.26277 0.0
C863 C 0.7397 0.78211 0.2105 0.0
H864 H 0.65059 0.77017 0.2822 0.0
H865 H 0.73462 0.78451 0.32089 0.0
H866 H 0.67647 0.75039 0.21629 0.0
H867 H 0.67206 0.71663 0.23494 0.0
H868 H 0.64548 0.74554 0.23944 0.0
H869 H 0.77855 0.76738 0.30217 0.0
H870 H 0.7747 0.73382 0.28256 0.0
H871 H 0.77871 0.76806 0.26456 0.0
H872 H 0.76468 0.66688 0.22205 0.0
H873 H 0.77397 0.74848 0.17769 0.0
H874 H 0.70435 0.68888 0.26558 0.0
H875 H 0.73938 0.69167 0.28237 0.0
H876 H 0.7318 0.66108 0.25964 0.0
H877 H 0.71583 0.78654 0.21261 0.0
H878 H 0.74739 0.79073 0.19003 0.0
H879 H 0.75116 0.79444 0.22728 0.0
C880 C 0.25719 0.7274 0.33063 0.0
C881 C 0.25005 0.69739 0.32884 0.0
C882 C 0.27551 0.74114 0.31077 0.0
C883 C 0.28703 0.72458 0.28831 0.0
C884 C 0.28142 0.69388 0.28735 0.0
C885 C 0.2631 0.68065 0.30765 0.0
C886 C 0.28102 0.77381 0.3129 0.0
C887 C 0.29319 0.67531 0.26386 0.0
C888 C 0.29723 0.76565 0.21957 0.0
C889 C 0.32778 0.77053 0.21847 0.0
C890 C 0.28398 0.75054 0.24193 0.0
C891 C 0.30153 0.74 0.26417 0.0
C892 C 0.33239 0.74498 0.26343 0.0
C893 C 0.34514 0.76019 0.24064 0.0
C894 C 0.25101 0.74606 0.24178 0.0
C895 C 0.35192 0.73419 0.28669 0.0
H896 H 0.24761 0.74041 0.34717 0.0
H897 H 0.25764 0.65753 0.30595 0.0
H898 H 0.30476 0.77884 0.31021 0.0
H899 H 0.26902 0.78528 0.29596 0.0
H900 H 0.27359 0.78284 0.33323 0.0
H901 H 0.29012 0.65144 0.26792 0.0
H902 H 0.28157 0.68098 0.24423 0.0
H903 H 0.31694 0.67985 0.26052 0.0
H904 H 0.28341 0.77401 0.20302 0.0
H905 H 0.36874 0.7636 0.24001 0.0
H906 H 0.2411 0.75693 0.2602 0.0
H907 H 0.24567 0.72228 0.24328 0.0
H908 H 0.24054 0.75501 0.22265 0.0
H909 H 0.34492 0.74397 0.3068 0.0
H910 H 0.37545 0.73976 0.28308 0.0
H911 H 0.34971 0.71 0.28884 0.0
C912 C 0.74267 0.83281 0.71732 0.0
C913 C 0.72851 0.81462 0.69772 0.0
C914 C 0.75998 0.82097 0.7389 0.0
C915 C 0.76405 0.7902 0.74054 0.0
C916 C 0.75221 0.77202 0.71931 0.0
C917 C 0.73461 0.7844 0.69828 0.0
C918 C 0.77221 0.84124 0.76098 0.0
C919 C 0.75668 0.73917 0.71971 0.0
C920 C 0.82083 0.75411 0.78795 0.0
C921 C 0.8029 0.74236 0.80916 0.0
C922 C 0.80883 0.77085 0.76602 0.0
C923 C 0.77822 0.77655 0.76557 0.0
C924 C 0.7605 0.7669 0.78819 0.0
C925 C 0.773 0.74988 0.80957 0.0
C926 C 0.82861 0.78065 0.74241 0.0
C927 C 0.7279 0.77308 0.78901 0.0
H928 H 0.73905 0.85622 0.7169 0.0
H929 H 0.72468 0.77016 0.6828 0.0
H930 H 0.76003 0.83772 0.7808 0.0
H931 H 0.79568 0.83632 0.76512 0.0
H932 H 0.77026 0.86475 0.75499 0.0
H933 H 0.74869 0.7285 0.70029 0.0
H934 H 0.78033 0.73398 0.72244 0.0
H935 H 0.74463 0.72944 0.73768 0.0
H936 H 0.84395 0.74878 0.78744 0.0
H937 H 0.75909 0.74137 0.82612 0.0
H938 H 0.82448 0.80395 0.73692 0.0
H939 H 0.82375 0.76729 0.72361 0.0
H940 H 0.85228 0.7781 0.74762 0.0
H941 H 0.7238 0.79678 0.78531 0.0
H942 H 0.7178 0.76668 0.80927 0.0
H943 H 0.71669 0.76068 0.77212 0.0
C944 C 0.17821 0.75584 0.69785 0.0
C945 C 0.19579 0.73847 0.6803 0.0
C946 C 0.19075 0.77379 0.71871 0.0
C947 C 0.22171 0.77474 0.72212 0.0
C948 C 0.23966 0.75913 0.70312 0.0
C949 C 0.22654 0.74141 0.68246 0.0
C950 C 0.1707 0.79031 0.7382 0.0
C951 C 0.27277 0.75967 0.70565 0.0
C952 C 0.25925 0.83167 0.76925 0.0
C953 C 0.26403 0.81542 0.79381 0.0
C954 C 0.24494 0.81908 0.74598 0.0
C955 C 0.23523 0.78942 0.7471 0.0
C956 C 0.23945 0.77314 0.77201 0.0
C957 C 0.25368 0.78626 0.79491 0.0
C958 C 0.24072 0.83735 0.71999 0.0
C959 C 0.22965 0.74144 0.77423 0.0
H960 H 0.15455 0.75441 0.69637 0.0
H961 H 0.24053 0.72894 0.66862 0.0
H962 H 0.1713 0.77996 0.75918 0.0
H963 H 0.1783 0.81338 0.74057 0.0
H964 H 0.14753 0.79032 0.73079 0.0
H965 H 0.2837 0.74882 0.68771 0.0
H966 H 0.28097 0.78261 0.70713 0.0
H967 H 0.27938 0.74817 0.72509 0.0
H968 H 0.26685 0.85424 0.76814 0.0
H969 H 0.25758 0.77317 0.8134 0.0
H970 H 0.21724 0.83704 0.71365 0.0
H971 H 0.25355 0.82783 0.70255 0.0
H972 H 0.24782 0.86053 0.72296 0.0
H973 H 0.20585 0.73948 0.76939 0.0
H974 H 0.23357 0.73208 0.79533 0.0
H975 H 0.24168 0.728 0.75872 0.0
C976 C 0.26176 0.23896 0.69352 0.0
C977 C 0.26625 0.2085 0.69535 0.0
C978 C 0.24309 0.2536 0.71222 0.0
C979 C 0.22804 0.23743 0.73316 0.0
C980 C 0.23031 0.20639 0.73352 0.0
C981 C 0.24941 0.19231 0.71469 0.0
C982 C 0.24131 0.2867 0.71087 0.0
C983 C 0.21419 0.18817 0.75506 0.0
C984 C 0.21873 0.27878 0.80133 0.0
C985 C 0.18988 0.28942 0.79936 0.0
C986 C 0.23091 0.2611 0.7804 0.0
C987 C 0.21377 0.25336 0.75683 0.0
C988 C 0.18406 0.26263 0.75537 0.0
C989 C 0.17248 0.28065 0.7766 0.0
C990 C 0.26263 0.2517 0.78303 0.0
C991 C 0.16485 0.25449 0.73088 0.0
H992 H 0.27392 0.25165 0.67819 0.0
H993 H 0.25234 0.16881 0.71633 0.0
H994 H 0.21806 0.29391 0.71165 0.0
H995 H 0.25269 0.29628 0.72924 0.0
H996 H 0.25167 0.29574 0.69166 0.0
H997 H 0.21396 0.16446 0.74958 0.0
H998 H 0.22518 0.1907 0.77559 0.0
H999 H 0.19118 0.19577 0.75743 0.0
H1000 H 0.23212 0.28478 0.81913 0.0
H1001 H 0.1502 0.28876 0.7748 0.0
H1002 H 0.27577 0.26141 0.76576 0.0
H1003 H 0.26428 0.22746 0.7813 0.0
H1004 H 0.2726 0.25859 0.80316 0.0
H1005 H 0.17217 0.26688 0.71214 0.0
H1006 H 0.14132 0.25957 0.73478 0.0
H1007 H 0.16688 0.23075 0.72606 0.0
C1008 C 0.7831 0.25874 0.70882 0.0
C1009 C 0.81371 0.26329 0.70954 0.0
C1010 C 0.76814 0.24461 0.73082 0.0
C1011 C 0.78406 0.23443 0.75429 0.0
C1012 C 0.81498 0.23897 0.75524 0.0
C1013 C 0.82939 0.25349 0.73297 0.0
C1014 C 0.73516 0.24078 0.72901 0.0
C1015 C 0.83287 0.22834 0.77974 0.0
C1016 C 0.74089 0.22299 0.82191 0.0
C1017 C 0.73519 0.1926 0.82171 0.0
C1018 C 0.75703 0.23672 0.8004 0.0
C1019 C 0.76808 0.21974 0.77802 0.0
C1020 C 0.76265 0.18899 0.77777 0.0
C1021 C 0.74616 0.17585 0.79948 0.0
C1022 C 0.7618 0.26957 0.8014 0.0
C1023 C 0.77416 0.16999 0.75448 0.0
H1024 H 0.77066 0.26667 0.69111 0.0
H1025 H 0.85302 0.25669 0.73364 0.0
H1026 H 0.72927 0.21713 0.73036 0.0
H1027 H 0.72444 0.25193 0.74686 0.0
H1028 H 0.726 0.24983 0.70932 0.0
H1029 H 0.85673 0.23306 0.77716 0.0
H1030 H 0.82512 0.23901 0.79918 0.0
H1031 H 0.82975 0.2043 0.78245 0.0
H1032 H 0.73218 0.23625 0.83869 0.0
H1033 H 0.74218 0.15236 0.79926 0.0
H1034 H 0.75139 0.28002 0.78296 0.0
H1035 H 0.78566 0.27477 0.80048 0.0
H1036 H 0.75247 0.27956 0.82057 0.0
H1037 H 0.76428 0.17689 0.73436 0.0
H1038 H 0.76915 0.14632 0.75787 0.0
H1039 H 0.79834 0.17283 0.75252 0.0
C1040 C 0.18285 0.39617 0.05593 0.0
C1041 C 0.1906 0.37453 0.07529 0.0
C1042 C 0.17934 0.38909 0.02756 0.0
C1043 C 0.18351 0.35968 0.01862 0.0
C1044 C 0.19475 0.33874 0.03759 0.0
C1045 C 0.19838 0.34653 0.0657 0.0
C1046 C 0.16825 0.41237 0.00778 0.0
C1047 C 0.19972 0.30724 0.02907 0.0
C1048 C 0.13253 0.33893 0.95873 0.0
C1049 C 0.15117 0.34312 0.93585 0.0
C1050 C 0.14331 0.34236 0.9861 0.0
C1051 C 0.17325 0.35039 0.9904 0.0
C1052 C 0.19257 0.35202 0.96734 0.0
C1053 C 0.18127 0.34829 0.94037 0.0
C1054 C 0.12216 0.3397 0.01028 0.0
C1055 C 0.22455 0.3604 0.97083 0.0
H1056 H 0.17617 0.4176 0.06339 0.0
H1057 H 0.20379 0.32961 0.08081 0.0
H1058 H 0.18087 0.412 0.98796 0.0
H1059 H 0.14485 0.40781 1.00265 0.0
H1060 H 0.16984 0.43473 0.01692 0.0
H1061 H 0.21331 0.29525 0.04457 0.0
H1062 H 0.17815 0.29584 0.02731 0.0
H1063 H 0.21062 0.30603 0.00839 0.0
H1064 H 0.10918 0.33555 0.95523 0.0
H1065 H 0.19563 0.35185 0.92256 0.0
H1066 H 0.11826 0.36176 0.01932 0.0
H1067 H 0.13165 0.32573 0.02696 0.0
H1068 H 0.10064 0.33019 1.00383 0.0
H1069 H 0.22621 0.38415 0.97581 0.0
H1070 H 0.2375 0.3562 0.95159 0.0
H1071 H 0.23463 0.34814 0.98839 0.0
C1072 C 0.63217 0.11807 0.97212 0.0
C1073 C 0.65854 0.12679 0.95927 0.0
C1074 C 0.62449 0.1283 0.99873 0.0
C1075 C 0.64395 0.14736 0.0131 0.0
C1076 C 0.6723 0.15298 1.00177 0.0
C1077 C 0.67913 0.14304 0.97465 0.0
C1078 C 0.59432 0.12112 0.01016 0.0
C1079 C 0.69445 0.17146 0.01735 0.0
C1080 C 0.60791 0.20861 0.05468 0.0
C1081 C 0.60696 0.19703 0.08187 0.0
C1082 C 0.62029 0.19283 0.03243 0.0
C1083 C 0.63273 0.16478 0.03733 0.0
C1084 C 0.63211 0.15301 0.06472 0.0
C1085 C 0.6191 0.16925 0.08646 0.0
C1086 C 0.6191 0.20585 1.00342 0.0
C1087 C 0.64512 0.12341 0.07155 0.0
H1088 H 0.6161 0.10574 0.96008 0.0
H1089 H 0.69935 0.1502 0.96464 0.0
H1090 H 0.59608 0.11262 0.03181 0.0
H1091 H 0.5809 0.14142 0.01087 0.0
H1092 H 0.58254 0.10454 0.99728 0.0
H1093 H 0.71692 0.16924 0.00846 0.0
H1094 H 0.68805 0.19491 0.0162 0.0
H1095 H 0.69492 0.16507 0.03972 0.0
H1096 H 0.5985 0.23 0.05055 0.0
H1097 H 0.6181 0.16003 0.10699 0.0
H1098 H 0.60705 0.19072 0.98925 0.0
H1099 H 0.64168 0.20861 0.99498 0.0
H1100 H 0.60805 0.22756 1.00298 0.0
H1101 H 0.64797 0.10918 0.05301 0.0
H1102 H 0.6311 0.11155 0.08694 0.0
H1103 H 0.66707 0.12683 0.08119 0.0
C1104 C 0.84699 0.69035 0.94412 0.0
C1105 C 0.87262 0.68002 0.93123 0.0
C1106 C 0.84242 0.68698 0.97298 0.0
C1107 C 0.86376 0.67233 0.98932 0.0
C1108 C 0.89048 0.66335 0.97663 0.0
C1109 C 0.8946 0.66734 0.9477 0.0
C1110 C 0.81389 0.6974 0.98558 0.0
C1111 C 0.91387 0.6477 0.99323 0.0
C1112 C 0.86341 0.67805 0.0685 0.0
C1113 C 0.85052 0.65122 0.07662 0.0
C1114 C 0.86697 0.68557 0.04028 0.0
C1115 C 0.8578 0.66561 0.01942 0.0
C1116 C 0.84367 0.63892 0.02744 0.0
C1117 C 0.84001 0.6321 0.05602 0.0
C1118 C 0.88155 0.71445 0.03283 0.0
C1119 C 0.83357 0.61701 1.00584 0.0
H1120 H 0.82959 0.69933 0.93125 0.0
H1121 H 0.91391 0.65834 0.93761 0.0
H1122 H 0.80025 0.67815 0.99174 0.0
H1123 H 0.81819 0.7104 1.00473 0.0
H1124 H 0.80103 0.71107 0.97079 0.0
H1125 H 0.93408 0.64379 0.98076 0.0
H1126 H 0.91985 0.66067 0.01198 0.0
H1127 H 0.90516 0.6262 1.00059 0.0
H1128 H 0.8715 0.69298 0.08439 0.0
H1129 H 0.83043 0.6112 0.0622 0.0
H1130 H 0.86773 0.72682 0.01782 0.0
H1131 H 0.90297 0.7103 0.02248 0.0
H1132 H 0.88551 0.72844 0.05144 0.0
H1133 H 0.8186 0.62773 0.99069 0.0
H1134 H 0.82198 0.59788 0.01533 0.0
H1135 H 0.85284 0.60891 0.99394 0.0
C1136 C 0.36543 0.87588 0.94366 0.0
C1137 C 0.3619 0.85109 0.92667 0.0
C1138 C 0.36991 0.8728 0.97274 0.0
C1139 C 0.37056 0.84433 0.98504 0.0
C1140 C 0.36604 0.81943 0.96797 0.0
C1141 C 0.36189 0.82311 0.93918 0.0
C1142 C 0.37464 0.89994 0.99022 0.0
C1143 C 0.36597 0.78873 0.98006 0.0
C1144 C 0.40744 0.83227 0.0561 0.0
C1145 C 0.38322 0.83325 0.07416 0.0
C1146 C 0.40373 0.83594 0.02702 0.0
C1147 C 0.37512 0.84035 0.01582 0.0
C1148 C 0.35059 0.84006 0.03403 0.0
C1149 C 0.35498 0.83682 0.06288 0.0
C1150 C 0.43049 0.83618 0.00838 0.0
C1151 C 0.31967 0.84396 0.02314 0.0
H1152 H 0.36585 0.8975 0.93412 0.0
H1153 H 0.35903 0.80379 0.92624 0.0
H1154 H 0.35786 0.9009 0.00702 0.0
H1155 H 0.39651 0.89897 1.00046 0.0
H1156 H 0.37343 0.92044 0.97765 0.0
H1157 H 0.36168 0.77166 0.964 0.0
H1158 H 0.3875 0.78414 0.98999 0.0
H1159 H 0.3489 0.78678 0.99654 0.0
H1160 H 0.42935 0.83035 0.06483 0.0
H1161 H 0.33625 0.83799 0.07687 0.0
H1162 H 0.43237 0.85776 0.99767 0.0
H1163 H 0.42821 0.81917 0.99197 0.0
H1164 H 0.45112 0.83213 0.02017 0.0
H1165 H 0.31763 0.86578 0.013 0.0
H1166 H 0.30288 0.84221 0.03994 0.0
H1167 H 0.31474 0.82712 0.00707 0.0
C1168 C 0.21022 0.62084 0.47388 0.0
C1169 C 0.20412 0.62668 0.44568 0.0
C1170 C 0.19235 0.63173 0.4954 0.0
C1171 C 0.16779 0.64952 0.48887 0.0
C1172 C 0.16222 0.65671 0.46056 0.0
C1173 C 0.18028 0.64499 0.43934 0.0
C1174 C 0.19923 0.62322 0.52518 0.0
C1175 C 0.13675 0.67606 0.45255 0.0
C1176 C 0.11095 0.64243 0.54638 0.0
C1177 C 0.11941 0.66516 0.56444 0.0
C1178 C 0.12441 0.63886 0.52018 0.0
C1179 C 0.14717 0.65841 0.51184 0.0
C1180 C 0.15343 0.68333 0.52866 0.0
C1181 C 0.13955 0.68635 0.55487 0.0
C1182 C 0.11666 0.61215 0.50299 0.0
C1183 C 0.17698 0.70514 0.52037 0.0
H1184 H 0.22851 0.60673 0.47921 0.0
H1185 H 0.17552 0.65002 0.41786 0.0
H1186 H 0.20178 0.64317 0.53823 0.0
H1187 H 0.18073 0.61015 0.534 0.0
H1188 H 0.21966 0.61005 0.52687 0.0
H1189 H 0.13909 0.68472 0.43096 0.0
H1190 H 0.116 0.66314 0.45374 0.0
H1191 H 0.1347 0.69484 0.46714 0.0
H1192 H 0.0958 0.62568 0.55392 0.0
H1193 H 0.14672 0.70355 0.56899 0.0
H1194 H 0.1346 0.5958 0.5047 0.0
H1195 H 0.11446 0.61808 0.48063 0.0
H1196 H 0.09584 0.60162 0.51011 0.0
H1197 H 0.19894 0.69562 0.5247 0.0
H1198 H 0.17505 0.726 0.53222 0.0
H1199 H 0.17587 0.71006 0.4977 0.0
C1200 C 0.33959 0.15314 0.44864 0.0
C1201 C 0.36727 0.16598 0.44351 0.0
C1202 C 0.32974 0.14745 0.47583 0.0
C1203 C 0.34812 0.15448 0.49862 0.0
C1204 C 0.3755 0.16889 0.4937 0.0
C1205 C 0.38474 0.17464 0.46609 0.0
C1206 C 0.30027 0.13256 0.48003 0.0
C1207 C 0.39567 0.17686 0.51754 0.0
C1208 C 0.31885 0.15662 0.57298 0.0
C1209 C 0.32941 0.13007 0.5838 0.0
C1210 C 0.32355 0.16435 0.54492 0.0
C1211 C 0.33948 0.14514 0.52739 0.0
C1212 C 0.34821 0.1173 0.53774 0.0
C1213 C 0.34312 0.11014 0.5659 0.0
C1214 C 0.31351 0.19405 0.53471 0.0
C1215 C 0.36497 0.096 0.5197 0.0
H1216 H 0.3259 0.14658 0.43117 0.0
H1217 H 0.40621 0.1843 0.46215 0.0
H1218 H 0.30362 0.11 0.48821 0.0
H1219 H 0.28703 0.14461 0.49569 0.0
H1220 H 0.28746 0.13106 0.46034 0.0
H1221 H 0.41522 0.18963 0.51046 0.0
H1222 H 0.38363 0.18993 0.53332 0.0
H1223 H 0.40334 0.15652 0.52802 0.0
H1224 H 0.30918 0.17248 0.5871 0.0
H1225 H 0.35224 0.09011 0.57452 0.0
H1226 H 0.3023 0.19205 0.51424 0.0
H1227 H 0.33293 0.2086 0.5317 0.0
H1228 H 0.29831 0.20472 0.54971 0.0
H1229 H 0.35319 0.0923 0.49973 0.0
H1230 H 0.36819 0.07446 0.53018 0.0
H1231 H 0.38689 0.10543 0.51453 0.0
C1232 C 0.85825 0.38861 0.44757 0.0
C1233 C 0.86609 0.36958 0.42597 0.0
C1234 C 0.86004 0.37932 0.47566 0.0
C1235 C 0.86949 0.35032 0.48199 0.0
C1236 C 0.87585 0.33072 0.46004 0.0
C1237 C 0.87429 0.34064 0.43244 0.0
C1238 C 0.85306 0.40085 0.49857 0.0
C1239 C 0.88541 0.29952 0.46571 0.0
C1240 C 0.90414 0.33656 0.55325 0.0
C1241 C 0.88007 0.32571 0.56838 0.0
C1242 C 0.9012 0.34411 0.52489 0.0
C1243 C 0.87356 0.34056 0.51148 0.0
C1244 C 0.84979 0.32774 0.52632 0.0
C1245 C 0.8533 0.32073 0.55465 0.0
C1246 C 0.92713 0.35759 0.50976 0.0
C1247 C 0.82016 0.32301 0.51277 0.0
H1248 H 0.85229 0.41105 0.44263 0.0
H1249 H 0.88039 0.32581 0.41575 0.0
H1250 H 0.83626 0.3914 0.51287 0.0
H1251 H 0.87313 0.40517 0.51113 0.0
H1252 H 0.84482 0.42208 0.49028 0.0
H1253 H 0.88755 0.28647 0.44625 0.0
H1254 H 0.90697 0.29966 0.47655 0.0
H1255 H 0.86939 0.28832 0.47967 0.0
H1256 H 0.92452 0.3414 0.56414 0.0
H1257 H 0.83446 0.3131 0.56662 0.0
H1258 H 0.92196 0.38059 0.50388 0.0
H1259 H 0.93156 0.34542 0.49019 0.0
H1260 H 0.9474 0.35763 0.5227 0.0
H1261 H 0.81017 0.34458 0.50781 0.0
H1262 H 0.80477 0.31053 0.52645 0.0
H1263 H 0.82265 0.31095 0.49282 0.0
C1264 C 0.66401 0.87541 0.4477 0.0
C1265 C 0.63866 0.85969 0.43962 0.0
C1266 C 0.67024 0.88129 0.47581 0.0
C1267 C 0.6507 0.87124 0.49673 0.0
C1268 C 0.62563 0.85428 0.48891 0.0
C1269 C 0.61992 0.84862 0.4604 0.0
C1270 C 0.6973 0.89916 0.48301 0.0
C1271 C 0.60434 0.84296 0.51063 0.0
C1272 C 0.67591 0.86789 0.57267 0.0
C1273 C 0.66246 0.89277 0.58407 0.0
C1274 C 0.67307 0.86105 0.54416 0.0
C1275 C 0.65608 0.87942 0.52661 0.0
C1276 C 0.64393 0.90556 0.53773 0.0
C1277 C 0.64713 0.91181 0.56636 0.0
C1278 C 0.68662 0.83313 0.53327 0.0
C1279 C 0.62595 0.92599 0.51979 0.0
H1280 H 0.67888 0.88383 0.43185 0.0
H1281 H 0.60026 0.83663 0.45436 0.0
H1282 H 0.69064 0.92027 0.49261 0.0
H1283 H 0.71089 0.88731 0.49856 0.0
H1284 H 0.71112 0.90404 0.46441 0.0
H1285 H 0.58682 0.82889 0.50144 0.0
H1286 H 0.61625 0.83008 0.5267 0.0
H1287 H 0.59385 0.86175 0.5214 0.0
H1288 H 0.68674 0.8525 0.58655 0.0
H1289 H 0.63569 0.93039 0.57531 0.0
H1290 H 0.69944 0.83761 0.514 0.0
H1291 H 0.66893 0.81727 0.52776 0.0
H1292 H 0.70132 0.82266 0.54886 0.0
H1293 H 0.63848 0.93231 0.50081 0.0
H1294 H 0.61959 0.94627 0.5311 0.0
H1295 H 0.60563 0.91453 0.51283 0.0
C1296 C 0.1869 0.54061 0.31646 0.0
C1297 C 0.19901 0.56701 0.30629 0.0
C1298 C 0.18366 0.51591 0.29907 0.0
C1299 C 0.19281 0.51754 0.27081 0.0
C1300 C 0.20662 0.54354 0.26093 0.0
C1301 C 0.20956 0.56788 0.27874 0.0
C1302 C 0.16884 0.48867 0.31054 0.0
C1303 C 0.21653 0.5464 0.23095 0.0
C1304 C 0.19317 0.44861 0.22485 0.0
C1305 C 0.16535 0.45034 0.21233 0.0
C1306 C 0.20255 0.47018 0.24414 0.0
C1307 C 0.18383 0.49412 0.25063 0.0
C1308 C 0.15605 0.49612 0.2375 0.0
C1309 C 0.1472 0.47428 0.21872 0.0
C1310 C 0.23219 0.46715 0.25793 0.0
C1311 C 0.13543 0.52133 0.24338 0.0
H1312 H 0.17893 0.53951 0.33776 0.0
H1313 H 0.21924 0.588 0.27067 0.0
H1314 H 0.14665 0.48627 0.30114 0.0
H1315 H 0.18158 0.46881 0.30493 0.0
H1316 H 0.16634 0.4895 0.33359 0.0
H1317 H 0.23017 0.56641 0.22745 0.0
H1318 H 0.22938 0.52689 0.22458 0.0
H1319 H 0.19696 0.54755 0.21717 0.0
H1320 H 0.20721 0.4301 0.22012 0.0
H1321 H 0.12578 0.47605 0.20893 0.0
H1322 H 0.22934 0.46539 0.28088 0.0
H1323 H 0.2458 0.48703 0.25386 0.0
H1324 H 0.2443 0.44755 0.25045 0.0
H1325 H 0.12948 0.52156 0.26584 0.0
H1326 H 0.11484 0.51995 0.23096 0.0
H1327 H 0.14649 0.54255 0.2386 0.0
C1328 C 0.5395 0.17041 0.24395 0.0
C1329 C 0.55349 0.18813 0.22384 0.0
C1330 C 0.52292 0.18262 0.26565 0.0
C1331 C 0.51992 0.21351 0.26745 0.0
C1332 C 0.53483 0.2317 0.24785 0.0
C1333 C 0.55157 0.21879 0.22629 0.0
C1334 C 0.50774 0.16224 0.28614 0.0
C1335 C 0.53219 0.26469 0.24904 0.0
C1336 C 0.44889 0.23078 0.30509 0.0
C1337 C 0.45851 0.23299 0.3328 0.0
C1338 C 0.46897 0.22731 0.28306 0.0
C1339 C 0.49951 0.22597 0.28886 0.0
C1340 C 0.50945 0.23124 0.31647 0.0
C1341 C 0.4888 0.23476 0.33815 0.0
C1342 C 0.45719 0.22191 0.25407 0.0
C1343 C 0.54174 0.23016 0.32365 0.0
H1344 H 0.5411 0.14671 0.24253 0.0
H1345 H 0.56229 0.23265 0.21086 0.0
H1346 H 0.5139 0.16812 0.30783 0.0
H1347 H 0.48355 0.16466 0.28433 0.0
H1348 H 0.51332 0.13881 0.2826 0.0
H1349 H 0.54754 0.27585 0.23433 0.0
H1350 H 0.50937 0.2711 0.24368 0.0
H1351 H 0.53664 0.2727 0.27048 0.0
H1352 H 0.42548 0.22946 0.30086 0.0
H1353 H 0.4964 0.23623 0.35955 0.0
H1354 H 0.45835 0.19808 0.24936 0.0
H1355 H 0.47061 0.23373 0.23824 0.0
H1356 H 0.4339 0.2289 0.25202 0.0
H1357 H 0.54889 0.2069 0.32446 0.0
H1358 H 0.54633 0.24035 0.34425 0.0
H1359 H 0.55516 0.24148 0.30749 0.0
C1360 C 0.77934 0.45237 0.29104 0.0
C1361 C 0.80608 0.45057 0.30558 0.0
C1362 C 0.77479 0.47425 0.27059 0.0
C1363 C 0.79727 0.4952 0.26496 0.0
C1364 C 0.82415 0.49361 0.27985 0.0
C1365 C 0.82831 0.47122 0.29967 0.0
C1366 C 0.7461 0.47476 0.25478 0.0
C1367 C 0.84858 0.51573 0.27502 0.0
C1368 C 0.80505 0.54293 0.19984 0.0
C1369 C 0.79639 0.5704 0.21014 0.0
C1370 C 0.80323 0.51753 0.21672 0.0
C1371 C 0.79266 0.51971 0.24452 0.0
C1372 C 0.7814 0.54686 0.25397 0.0
C1373 C 0.78319 0.57172 0.23662 0.0
C1374 C 0.81487 0.4889 0.20553 0.0
C1375 C 0.77004 0.55045 0.28338 0.0
H1376 H 0.76223 0.43623 0.29513 0.0
H1377 H 0.84907 0.46999 0.3107 0.0
H1378 H 0.73468 0.49588 0.25843 0.0
H1379 H 0.75043 0.47323 0.23204 0.0
H1380 H 0.73116 0.45646 0.26099 0.0
H1381 H 0.86803 0.51159 0.28847 0.0
H1382 H 0.85572 0.51516 0.25289 0.0
H1383 H 0.84048 0.53824 0.27928 0.0
H1384 H 0.81534 0.54159 0.17949 0.0
H1385 H 0.77617 0.59279 0.24469 0.0
H1386 H 0.80016 0.47036 0.21145 0.0
H1387 H 0.83681 0.48456 0.21475 0.0
H1388 H 0.8172 0.48939 0.18245 0.0
H1389 H 0.75458 0.5324 0.28888 0.0
H1390 H 0.75867 0.57176 0.28635 0.0
H1391 H 0.78877 0.54939 0.2982 0.0
C1392 C 0.55482 0.76448 0.30501 0.0
C1393 C 0.5557 0.79051 0.3207 0.0
C1394 C 0.53573 0.76153 0.28194 0.0
C1395 C 0.51771 0.78543 0.27386 0.0
C1396 C 0.51731 0.81102 0.29063 0.0
C1397 C 0.53564 0.81286 0.31418 0.0
C1398 C 0.5359 0.73333 0.26546 0.0
C1399 C 0.49906 0.83738 0.28267 0.0
C1400 C 0.49878 0.79636 0.19696 0.0
C1401 C 0.46844 0.79079 0.19671 0.0
C1402 C 0.51516 0.79409 0.22179 0.0
C1403 C 0.50109 0.7849 0.24682 0.0
C1404 C 0.47071 0.7776 0.24622 0.0
C1405 C 0.45462 0.78134 0.22135 0.0
C1406 C 0.54719 0.80317 0.22157 0.0
C1407 C 0.45498 0.76663 0.272 0.0
H1408 H 0.56993 0.74689 0.30994 0.0
H1409 H 0.53541 0.8327 0.32665 0.0
H1410 H 0.51307 0.72625 0.26052 0.0
H1411 H 0.54754 0.73692 0.24538 0.0
H1412 H 0.5471 0.71533 0.2769 0.0
H1413 H 0.50059 0.8553 0.29832 0.0
H1414 H 0.50664 0.84609 0.26222 0.0
H1415 H 0.47562 0.831 0.28029 0.0
H1416 H 0.50939 0.80421 0.17806 0.0
H1417 H 0.4311 0.77712 0.22121 0.0
H1418 H 0.56108 0.78502 0.22947 0.0
H1419 H 0.55051 0.8222 0.23571 0.0
H1420 H 0.55497 0.80941 0.20037 0.0
H1421 H 0.46803 0.74922 0.28239 0.0
H1422 H 0.43276 0.75773 0.26711 0.0
H1423 H 0.45247 0.78487 0.28709 0.0
C1424 C 0.84248 0.55413 0.75284 0.0
C1425 C 0.8291 0.56444 0.77725 0.0
C1426 C 0.8378 0.5252 0.74401 0.0
C1427 C 0.82092 0.50592 0.76095 0.0
C1428 C 0.80453 0.5171 0.78351 0.0
C1429 C 0.80783 0.54671 0.79059 0.0
C1430 C 0.85313 0.51463 0.71796 0.0
C1431 C 0.78554 0.49742 0.80155 0.0
C1432 C 0.81136 0.42864 0.73419 0.0
C1433 C 0.84007 0.418 0.73817 0.0
C1434 C 0.80382 0.45707 0.7424 0.0
C1435 C 0.82455 0.47392 0.75749 0.0
C1436 C 0.8512 0.46095 0.76642 0.0
C1437 C 0.85914 0.4335 0.75587 0.0
C1438 C 0.7745 0.46906 0.73304 0.0
C1439 C 0.87256 0.47707 0.78517 0.0
H1440 H 0.85836 0.56764 0.74177 0.0
H1441 H 0.79574 0.5552 0.8083 0.0
H1442 H 0.87391 0.5035 0.72374 0.0
H1443 H 0.83914 0.4986 0.70653 0.0
H1444 H 0.85869 0.53318 0.70375 0.0
H1445 H 0.77655 0.50915 0.81996 0.0
H1446 H 0.76683 0.48884 0.78912 0.0
H1447 H 0.79842 0.4783 0.80901 0.0
H1448 H 0.79549 0.41586 0.72239 0.0
H1449 H 0.88111 0.42549 0.75991 0.0
H1450 H 0.77005 0.46263 0.71108 0.0
H1451 H 0.77298 0.4933 0.73461 0.0
H1452 H 0.75685 0.45908 0.74604 0.0
H1453 H 0.88574 0.49287 0.7726 0.0
H1454 H 0.88801 0.4617 0.79555 0.0
H1455 H 0.86067 0.48965 0.80144 0.0
C1456 C 0.54597 0.81408 0.74789 0.0
C1457 C 0.55985 0.81128 0.72204 0.0
C1458 C 0.51783 0.80206 0.75198 0.0
C1459 C 0.50356 0.78771 0.72942 0.0
C1460 C 0.51982 0.78016 0.70542 0.0
C1461 C 0.54811 0.79195 0.70208 0.0
C1462 C 0.5017 0.80893 0.7787 0.0
C1463 C 0.50596 0.76387 0.68138 0.0
C1464 C 0.42384 0.77509 0.7469 0.0
C1465 C 0.41367 0.80413 0.74399 0.0
C1466 C 0.45282 0.76785 0.73969 0.0
C1467 C 0.4711 0.78967 0.72775 0.0
C1468 C 0.4588 0.81674 0.71916 0.0
C1469 C 0.43032 0.8238 0.72769 0.0
C1470 C 0.46451 0.73817 0.74807 0.0
C1471 C 0.47697 0.84002 0.70444 0.0
H1472 H 0.55536 0.82852 0.76355 0.0
H1473 H 0.55946 0.78905 0.68236 0.0
H1474 H 0.48696 0.82796 0.77522 0.0
H1475 H 0.4879 0.78998 0.78535 0.0
H1476 H 0.51717 0.81461 0.79583 0.0
H1477 H 0.52277 0.75139 0.66953 0.0
H1478 H 0.48848 0.7485 0.68854 0.0
H1479 H 0.49585 0.77995 0.66687 0.0
H1480 H 0.4104 0.75877 0.75744 0.0
H1481 H 0.42285 0.84602 0.72416 0.0
H1482 H 0.47093 0.73884 0.7704 0.0
H1483 H 0.48407 0.73181 0.73568 0.0
H1484 H 0.44722 0.72099 0.74576 0.0
H1485 H 0.49254 0.85019 0.71948 0.0
H1486 H 0.46305 0.8577 0.69554 0.0
H1487 H 0.49006 0.83024 0.68732 0.0
C1488 C 0.19368 0.4527 0.78253 0.0
C1489 C 0.16595 0.44196 0.77439 0.0
C1490 C 0.20434 0.47944 0.77215 0.0
C1491 C 0.18706 0.49508 0.7528 0.0
C1492 C 0.16164 0.48172 0.74102 0.0
C1493 C 0.15119 0.4552 0.7522 0.0
C1494 C 0.23195 0.4924 0.78469 0.0
C1495 C 0.14335 0.49717 0.71921 0.0
C1496 C 0.16703 0.57409 0.75529 0.0
C1497 C 0.17775 0.58293 0.72927 0.0
C1498 C 0.1738 0.54618 0.76566 0.0
C1499 C 0.1912 0.52708 0.74921 0.0
C1500 C 0.20625 0.53806 0.7256 0.0
C1501 C 0.19959 0.56628 0.71604 0.0
C1502 C 0.15868 0.53566 0.79194 0.0
C1503 C 0.22576 0.51879 0.70803 0.0
H1504 H 0.20552 0.4418 0.79922 0.0
H1505 H 0.12999 0.44663 0.74563 0.0
H1506 H 0.24328 0.50763 0.77006 0.0
H1507 H 0.22603 0.50494 0.8037 0.0
H1508 H 0.24748 0.47483 0.79097 0.0
H1509 H 0.12716 0.48207 0.7093 0.0
H1510 H 0.1311 0.51543 0.7291 0.0
H1511 H 0.15762 0.50674 0.7027 0.0
H1512 H 0.15056 0.58724 0.76575 0.0
H1513 H 0.20851 0.5737 0.69621 0.0
H1514 H 0.17387 0.52235 0.80486 0.0
H1515 H 0.13961 0.52153 0.7863 0.0
H1516 H 0.1505 0.55429 0.80467 0.0
H1517 H 0.23717 0.50204 0.72083 0.0
H1518 H 0.24243 0.53212 0.6966 0.0
H1519 H 0.21205 0.50712 0.69237 0.0
C1520 C 0.44535 0.17545 0.76333 0.0
C1521 C 0.43815 0.18375 0.73607 0.0
C1522 C 0.47379 0.18042 0.77357 0.0
C1523 C 0.49536 0.19286 0.75565 0.0
C1524 C 0.48695 0.20516 0.72983 0.0
C1525 C 0.45801 0.2012 0.7207 0.0
C1526 C 0.48166 0.16904 0.8022 0.0
C1527 C 0.50916 0.2187 0.71012 0.0
C1528 C 0.57162 0.19865 0.78614 0.0
C1529 C 0.58069 0.16922 0.784 0.0
C1530 C 0.54429 0.20753 0.77581 0.0
C1531 C 0.52672 0.18696 0.76133 0.0
C1532 C 0.53796 0.15875 0.7551 0.0
C1533 C 0.56456 0.14995 0.76705 0.0
C1534 C 0.53329 0.23776 0.78324 0.0
C1535 C 0.52064 0.13679 0.73801 0.0
H1536 H 0.4299 0.16256 0.7756 0.0
H1537 H 0.45196 0.20884 0.70005 0.0
H1538 H 0.49269 0.14746 0.80017 0.0
H1539 H 0.49713 0.18432 0.8128 0.0
H1540 H 0.46181 0.16604 0.81548 0.0
H1541 H 0.4984 0.23292 0.69431 0.0
H1542 H 0.52587 0.23186 0.72149 0.0
H1543 H 0.52086 0.20087 0.69899 0.0
H1544 H 0.58468 0.21424 0.79797 0.0
H1545 H 0.5713 0.12729 0.76483 0.0
H1546 H 0.52271 0.23673 0.80411 0.0
H1547 H 0.51679 0.24606 0.76818 0.0
H1548 H 0.5518 0.25376 0.78447 0.0
H1549 H 0.50239 0.12764 0.75082 0.0
H1550 H 0.53455 0.11826 0.7309 0.0
H1551 H 0.51081 0.14754 0.71944 0.0
C1552 C 0.67953 0.03738 0.82692 0.0
C1553 C 0.70403 0.05618 0.82926 0.0
C1554 C 0.67874 0.01464 0.80717 0.0
C1555 C 0.70293 0.01062 0.78893 0.0
C1556 C 0.7278 0.02943 0.7912 0.0
C1557 C 0.72815 0.05186 0.81145 0.0
C1558 C 0.65193 0.99491 0.80584 0.0
C1559 C 0.75387 0.02611 0.77196 0.0
C1560 C 0.70878 0.93425 0.75737 0.0
C1561 C 0.69442 0.93769 0.7316 0.0
C1562 C 0.71266 0.95799 0.77571 0.0
C1563 C 0.70224 0.98614 0.76812 0.0
C1564 C 0.68913 0.99017 0.74154 0.0
C1565 C 0.68532 0.96592 0.72362 0.0
C1566 C 0.7266 0.95257 0.80384 0.0
C1567 C 0.67804 0.01989 0.73247 0.0
H1568 H 0.66076 0.04051 0.84057 0.0
H1569 H 0.74701 0.06648 0.81286 0.0
H1570 H 0.64186 0.99614 0.78479 0.0
H1571 H 0.65842 0.97174 0.80939 0.0
H1572 H 0.63501 1.0009 0.82155 0.0
H1573 H 0.77137 0.04266 0.77615 0.0
H1574 H 0.76338 0.00384 0.77426 0.0
H1575 H 0.74667 0.02839 0.74994 0.0
H1576 H 0.71613 0.91266 0.7638 0.0
H1577 H 0.67444 0.96895 0.70372 0.0
H1578 H 0.71 0.95587 0.82052 0.0
H1579 H 0.74473 0.96851 0.80755 0.0
H1580 H 0.73549 0.92997 0.80579 0.0
H1581 H 0.659 0.02621 0.7456 0.0
H1582 H 0.67102 0.02005 0.71026 0.0
H1583 H 0.69539 0.03685 0.73542 0.0
C1584 C 0.95854 0.69805 0.79551 0.0
C1585 C 0.9316 0.71086 0.78827 0.0
C1586 C 0.98337 0.70103 0.77817 0.0
C1587 C 0.98189 0.71896 0.75398 0.0
C1588 C 0.95565 0.73446 0.7482 0.0
C1589 C 0.93067 0.72971 0.76502 0.0
C1590 C 0.01064 0.68361 0.78494 0.0
C1591 C 0.95359 0.7553 0.72375 0.0
C1592 C 0.05724 0.7358 0.72288 0.0
C1593 C 0.05877 0.71532 0.701 0.0
C1594 C 0.03158 0.73878 0.73904 0.0
C1595 C 0.00723 0.71998 0.73405 0.0
C1596 C 0.00798 0.70057 0.71096 0.0
C1597 C 0.03331 0.69935 0.69413 0.0
C1598 C 0.03107 0.76121 0.76219 0.0
C1599 C 0.98281 0.67969 0.70504 0.0
H1600 H 0.95997 0.68446 0.81397 0.0
H1601 H 0.91017 0.74034 0.75955 0.0
H1602 H 0.01604 0.6689 0.76722 0.0
H1603 H 0.02967 0.6986 0.78796 0.0
H1604 H 0.00794 0.66998 0.80405 0.0
H1605 H 0.93411 0.76983 0.72538 0.0
H1606 H 0.9737 0.76918 0.72222 0.0
H1607 H 0.95172 0.7426 0.70411 0.0
H1608 H 0.07643 0.74898 0.728 0.0
H1609 H 0.03356 0.68471 0.67641 0.0
H1610 H 0.034 0.75005 0.78258 0.0
H1611 H 0.0096 0.77269 0.76275 0.0
H1612 H 0.04892 0.77783 0.75979 0.0
H1613 H 0.97887 0.66539 0.72349 0.0
H1614 H 0.98713 0.66548 0.68668 0.0
H1615 H 0.96232 0.69213 0.70121 0.0
C1616 C 0.29389 0.07302 0.75491 0.0
C1617 C 0.29967 0.07367 0.72611 0.0
C1618 C 0.29839 0.04734 0.77071 0.0
C1619 C 0.30875 0.02163 0.7574 0.0
C1620 C 0.31203 0.02147 0.72798 0.0
C1621 C 0.30735 0.04743 0.71271 0.0
C1622 C 0.29449 0.04853 0.80197 0.0
C1623 C 0.32284 0.99457 0.71282 0.0
C1624 C 0.36252 0.97233 0.79558 0.0
C1625 C 0.34506 0.94783 0.80241 0.0
C1626 C 0.35065 0.99675 0.78183 0.0
C1627 C 0.3205 0.99671 0.77436 0.0
C1628 C 0.30244 0.97246 0.78206 0.0
C1629 C 0.31492 0.94831 0.79618 0.0
C1630 C 0.37073 0.02221 0.77443 0.0
C1631 C 0.27028 0.97148 0.77432 0.0
H1632 H 0.2878 0.09309 0.76553 0.0
H1633 H 0.3114 0.04758 0.69041 0.0
H1634 H 0.283 0.02854 0.80971 0.0
H1635 H 0.31643 0.04935 0.81209 0.0
H1636 H 0.28189 0.06818 0.80856 0.0
H1637 H 0.31982 0.99644 0.68988 0.0
H1638 H 0.34664 0.99161 0.7171 0.0
H1639 H 0.31117 0.97458 0.72033 0.0
H1640 H 0.3858 0.97216 0.80055 0.0
H1641 H 0.30141 0.92929 0.80117 0.0
H1642 H 0.36146 0.04307 0.78238 0.0
H1643 H 0.37251 0.02425 0.75141 0.0
H1644 H 0.39321 0.01954 0.78314 0.0
H1645 H 0.25923 0.99205 0.78077 0.0
H1646 H 0.25864 0.9525 0.78403 0.0
H1647 H 0.26812 0.96978 0.75132 0.0
C1648 C 0.9563 0.26704 0.71857 0.0
C1649 C 0.95219 0.2906 0.70005 0.0
C1650 C 0.97705 0.26888 0.7404 0.0
C1651 C 0.99411 0.29484 0.7437 0.0
C1652 C 0.99129 0.31786 0.72393 0.0
C1653 C 0.97041 0.31548 0.70249 0.0
C1654 C 0.97943 0.2438 0.76088 0.0
C1655 C 0.00905 0.3459 0.72638 0.0
C1656 C 0.01669 0.32625 0.81354 0.0
C1657 C 0.04731 0.32289 0.81299 0.0
C1658 C 0.99884 0.31487 0.79224 0.0
C1659 C 0.01195 0.30004 0.76949 0.0
C1660 C 0.04266 0.29447 0.76999 0.0
C1661 C 0.06004 0.30592 0.79186 0.0
C1662 C 0.96623 0.32111 0.79291 0.0
C1663 C 0.05755 0.27865 0.74629 0.0
H1664 H 0.94235 0.24772 0.71689 0.0
H1665 H 0.96767 0.33369 0.68811 0.0
H1666 H 1.00282 0.23898 0.76554 0.0
H1667 H 0.96871 0.25003 0.7808 0.0
H1668 H 0.96861 0.2235 0.75298 0.0
H1669 H 0.00641 0.36041 0.70787 0.0
H1670 H 1.00193 0.35818 0.74517 0.0
H1671 H 0.03275 0.34087 0.72894 0.0
H1672 H 0.00683 0.33942 0.82987 0.0
H1673 H 0.08376 0.30364 0.79115 0.0
H1674 H 0.95339 0.30098 0.78799 0.0
H1675 H 0.9609 0.33783 0.77682 0.0
H1676 H 0.95898 0.32951 0.81354 0.0
H1677 H 0.04432 0.25937 0.73956 0.0
H1678 H 0.07996 0.27118 0.75213 0.0
H1679 H 0.05955 0.29371 0.72814 0.0
C1680 C 0.39988 0.96394 0.20647 0.0
C1681 C 0.39413 0.94327 0.22748 0.0
C1682 C 0.40109 0.99394 0.21252 0.0
C1683 C 0.39597 1.00328 0.24018 0.0
C1684 C 0.39013 0.98234 0.26151 0.0
C1685 C 0.38952 0.95235 0.25489 0.0
C1686 C 0.40704 0.01551 0.18917 0.0
C1687 C 0.38398 0.99166 0.29114 0.0
C1688 C 0.42155 0.07679 0.26755 0.0
C1689 C 0.39512 0.09257 0.26776 0.0
C1690 C 0.42254 0.04814 0.2571 0.0
C1691 C 0.39642 0.03494 0.24698 0.0
C1692 C 0.37022 0.05144 0.24522 0.0
C1693 C 0.37 0.08027 0.25529 0.0
C1694 C 0.45131 0.03172 0.25778 0.0
C1695 C 0.3419 0.038 0.23462 0.0
H1696 H 0.40325 0.95656 0.18521 0.0
H1697 H 0.38488 0.93609 0.27089 0.0
H1698 H 0.38625 0.02648 0.18322 0.0
H1699 H 0.42271 0.03288 0.19588 0.0
H1700 H 0.41596 0.00446 0.17035 0.0
H1701 H 0.38069 0.97261 0.30536 0.0
H1702 H 0.40245 0.00522 0.29912 0.0
H1703 H 0.36395 0.00549 0.29169 0.0
H1704 H 0.44107 0.086 0.27723 0.0
H1705 H 0.34968 0.09262 0.25492 0.0
H1706 H 0.45911 0.0285 0.23611 0.0
H1707 H 0.44839 0.00966 0.26732 0.0
H1708 H 0.46866 0.04379 0.26948 0.0
H1709 H 0.34537 0.02759 0.214 0.0
H1710 H 0.32406 0.05447 0.23266 0.0
H1711 H 0.33447 0.02049 0.24922 0.0
C1712 C 0.03919 0.29709 0.18869 0.0
C1713 C 0.05479 0.31736 0.2053 0.0
C1714 C 0.00916 0.2919 0.19314 0.0
C1715 C 0.99517 0.30591 0.21571 0.0
C1716 C 0.01223 0.32152 0.23563 0.0
C1717 C 0.04181 0.32756 0.22989 0.0
C1718 C 0.99224 0.27447 0.17167 0.0
C1719 C 0.99852 0.33507 0.26127 0.0
C1720 C 0.9273 0.34924 0.21982 0.0
C1721 C 0.91355 0.33373 0.24144 0.0
C1722 C 0.95189 0.33728 0.20651 0.0
C1723 C 0.96293 0.30997 0.21602 0.0
C1724 C 0.94529 0.29186 0.23322 0.0
C1725 C 0.92005 0.30385 0.24529 0.0
C1726 C 0.96897 0.35619 0.1862 0.0
C1727 C 0.95557 0.26213 0.243 0.0
H1728 H 0.0496 0.28758 0.1705 0.0
H1729 H 0.05368 0.34265 0.2433 0.0
H1730 H 0.97087 0.26617 0.17972 0.0
H1731 H 0.98785 0.28877 0.15337 0.0
H1732 H 0.00549 0.25559 0.16426 0.0
H1733 H 0.0154 0.34189 0.27675 0.0
H1734 H 0.98582 0.35481 0.25515 0.0
H1735 H 0.98314 0.31937 0.27148 0.0
H1736 H 0.92168 0.37202 0.21602 0.0
H1737 H 0.90832 0.29136 0.26113 0.0
H1738 H 0.97921 0.34253 0.16972 0.0
H1739 H 0.98683 0.36791 0.19751 0.0
H1740 H 0.95466 0.37288 0.17621 0.0
H1741 H 0.96962 0.25127 0.22721 0.0
H1742 H 0.93656 0.24757 0.24798 0.0
H1743 H 0.96874 0.26491 0.26233 0.0
C1744 C 0.65973 0.92142 0.2377 0.0
C1745 C 0.63249 0.91823 0.25119 0.0
C1746 C 0.66599 0.94647 0.22169 0.0
C1747 C 0.64448 0.96863 0.21935 0.0
C1748 C 0.61596 0.96405 0.23054 0.0
C1749 C 0.6103 0.93882 0.24635 0.0
C1750 C 0.69646 0.9503 0.20963 0.0
C1751 C 0.59228 0.98711 0.22834 0.0
C1752 C 0.66317 0.04928 0.21998 0.0
C1753 C 0.65476 0.0576 0.19301 0.0
C1754 C 0.66197 0.01981 0.22828 0.0
C1755 C 0.6525 0.99822 0.20898 0.0
C1756 C 0.64664 0.00607 0.18103 0.0
C1757 C 0.6476 0.03578 0.17339 0.0
C1758 C 0.66874 0.0121 0.25827 0.0
C1759 C 0.63769 0.98329 0.15973 0.0
H1760 H 0.67676 0.90523 0.24115 0.0
H1761 H 0.58929 0.93658 0.25691 0.0
H1762 H 0.69587 0.96198 0.1893 0.0
H1763 H 0.70999 0.96366 0.22416 0.0
H1764 H 0.70751 0.92881 0.20675 0.0
H1765 H 0.57025 0.97827 0.2341 0.0
H1766 H 0.59762 0.00559 0.24258 0.0
H1767 H 0.59115 0.99612 0.20688 0.0
H1768 H 0.66946 0.06596 0.23498 0.0
H1769 H 0.64096 0.04198 0.15248 0.0
H1770 H 0.68414 0.99332 0.25926 0.0
H1771 H 0.64816 0.00531 0.26904 0.0
H1772 H 0.67855 0.03089 0.26982 0.0
H1773 H 0.65531 0.96669 0.15761 0.0
H1774 H 0.63339 0.99311 0.13889 0.0
H1775 H 0.61759 0.97146 0.1668 0.0
C1776 C 0.94415 0.60338 0.26594 0.0
C1777 C 0.92182 0.62436 0.26464 0.0
C1778 C 0.96775 0.60689 0.28435 0.0
C1779 C 0.96878 0.63189 0.30189 0.0
C1780 C 0.94492 0.65165 0.30249 0.0
C1781 C 0.92169 0.64774 0.28364 0.0
C1782 C 0.99282 0.58529 0.28306 0.0
C1783 C 0.94496 0.67811 0.32141 0.0
C1784 C 0.0313 0.62888 0.3536 0.0
C1785 C 0.05371 0.64327 0.33856 0.0
C1786 C 1.00266 0.62689 0.34293 0.0
C1787 C 0.99657 0.63911 0.31644 0.0
C1788 C 0.01854 0.6553 0.30204 0.0
C1789 C 0.04677 0.65746 0.31345 0.0
C1790 C 0.97924 0.61093 0.35953 0.0
C1791 C 0.01279 0.66879 0.27373 0.0
H1792 H 0.94439 0.58544 0.25109 0.0
H1793 H 0.90416 0.66377 0.28276 0.0
H1794 H 0.01137 0.59529 0.27123 0.0
H1795 H 1.00099 0.57999 0.30425 0.0
H1796 H 0.98629 0.56453 0.27253 0.0
H1797 H 0.92275 0.68801 0.32313 0.0
H1798 H 0.95277 0.67216 0.34259 0.0
H1799 H 0.96027 0.695 0.31295 0.0
H1800 H 0.03638 0.61788 0.37307 0.0
H1801 H 0.06374 0.66939 0.30216 0.0
H1802 H 0.96707 0.59508 0.34624 0.0
H1803 H 0.96303 0.62706 0.36735 0.0
H1804 H 0.98853 0.59902 0.37773 0.0
H1805 H 0.00889 0.65109 0.25824 0.0
H1806 H 0.03151 0.68258 0.26636 0.0
H1807 H 0.99274 0.68253 0.27436 0.0
loop_
_geom_bond_atom_site_label_1
_geom_bond_atom_site_label_2
_geom_bond_distance
_geom_bond_site_symmetry_2
_ccdc_geom_bond_type
C0 C1 1.351 . S
C0 N3 1.368 . S
C0 H5 0.931 . S
C1 C0 1.351 . S
C1 N2 1.373 . S
C1 H29 0.930 . S
N2 C1 1.373 . S
N2 C4 1.340 . S
N3 C0 1.368 . S
N3 C4 1.321 . S
N3 Co6 2.135 . S
C4 N2 1.340 . S
C4 N3 1.321 . S
C4 H28 0.930 . S
H5 C0 0.931 . S
Co6 N3 2.135 . S
Co6 N9 2.121 . S
Co6 O14 2.055 . S
Co6 O17 2.039 . S
Co6 N20 2.140 . S
C7 O8 1.227 . S
C7 O17 1.265 . S
O8 C7 1.227 . S
N9 Co6 2.121 . S
N9 C11 1.375 . S
N9 C12 1.313 . S
C10 C11 1.338 . S
C10 N13 1.377 . S
C10 H30 0.930 . S
C11 N9 1.375 . S
C11 C10 1.338 . S
C11 H15 0.931 . S
C12 N9 1.313 . S
C12 N13 1.344 . S
C12 H16 0.930 . S
N13 C10 1.377 . S
N13 C12 1.344 . S
O14 Co6 2.055 . S
O14 C18 1.253 . S
H15 C11 0.931 . S
H16 C12 0.930 . S
O17 Co6 2.039 . S
O17 C7 1.265 . S
C18 O14 1.253 . S
C18 O19 1.227 . S
O19 C18 1.227 . S
N20 Co6 2.140 . S
N20 C23 1.346 . S
N20 C24 1.345 . S
C21 C22 1.387 . S
C21 C25 1.391 . S
C22 C21 1.387 . S
C22 C23 1.369 . S
C22 H31 0.929 . S
C23 N20 1.346 . S
C23 C22 1.369 . S
C23 H26 0.928 . S
C24 N20 1.345 . S
C24 C25 1.371 . S
C24 H27 0.931 . S
C25 C21 1.391 . S
C25 C24 1.371 . S
C25 H32 0.930 . S
H26 C23 0.928 . S
H27 C24 0.931 . S
H28 C4 0.930 . S
H29 C1 0.930 . S
H30 C10 0.930 . S
H31 C22 0.929 . S
H32 C25 0.930 . S
C33 C34 1.351 . S
C33 N36 1.368 . S
C33 H38 0.931 . S
C34 C33 1.351 . S
C34 N35 1.373 . S
C34 H62 0.930 . S
N35 C34 1.373 . S
N35 C37 1.340 . S
N36 C33 1.368 . S
N36 C37 1.321 . S
N36 Co39 2.135 . S
C37 N35 1.340 . S
C37 N36 1.321 . S
C37 H61 0.930 . S
H38 C33 0.931 . S
Co39 N36 2.135 . S
Co39 N42 2.121 . S
Co39 O47 2.055 . S
Co39 O50 2.039 . S
Co39 N53 2.140 . S
C40 O41 1.227 . S
C40 O50 1.265 . S
O41 C40 1.227 . S
N42 Co39 2.121 . S
N42 C44 1.375 . S
N42 C45 1.313 . S
C43 C44 1.338 . S
C43 N46 1.377 . S
C43 H63 0.930 . S
C44 N42 1.375 . S
C44 C43 1.338 . S
C44 H48 0.931 . S
C45 N42 1.313 . S
C45 N46 1.344 . S
C45 H49 0.930 . S
N46 C43 1.377 . S
N46 C45 1.344 . S
O47 Co39 2.055 . S
O47 C51 1.253 . S
H48 C44 0.931 . S
H49 C45 0.930 . S
O50 Co39 2.039 . S
O50 C40 1.265 . S
C51 O47 1.253 . S
C51 O52 1.227 . S
O52 C51 1.227 . S
N53 Co39 2.140 . S
N53 C56 1.346 . S
N53 C57 1.345 . S
C54 C55 1.387 . S
C54 C58 1.391 . S
C55 C54 1.387 . S
C55 C56 1.369 . S
C55 H64 0.929 . S
C56 N53 1.346 . S
C56 C55 1.369 . S
C56 H59 0.928 . S
C57 N53 1.345 . S
C57 C58 1.371 . S
C57 H60 0.931 . S
C58 C54 1.391 . S
C58 C57 1.371 . S
C58 H65 0.930 . S
H59 C56 0.928 . S
H60 C57 0.931 . S
H61 C37 0.930 . S
H62 C34 0.930 . S
H63 C43 0.930 . S
H64 C55 0.929 . S
H65 C58 0.930 . S
C66 C67 1.351 . S
C66 N69 1.368 . S
C66 H71 0.931 . S
C67 C66 1.351 . S
C67 N68 1.373 . S
C67 H95 0.930 . S
N68 C67 1.373 . S
N68 C70 1.340 . S
N69 C66 1.368 . S
N69 C70 1.321 . S
N69 Co72 2.135 . S
C70 N68 1.340 . S
C70 N69 1.321 . S
C70 H94 0.930 . S
H71 C66 0.931 . S
Co72 N69 2.135 . S
Co72 N75 2.121 . S
Co72 O80 2.055 . S
Co72 O83 2.039 . S
Co72 N86 2.140 . S
C73 O74 1.227 . S
C73 O83 1.265 . S
O74 C73 1.227 . S
N75 Co72 2.121 . S
N75 C77 1.375 . S
N75 C78 1.313 . S
C76 C77 1.338 . S
C76 N79 1.377 . S
C76 H96 0.930 . S
C77 N75 1.375 . S
C77 C76 1.338 . S
C77 H81 0.931 . S
C78 N75 1.313 . S
C78 N79 1.344 . S
C78 H82 0.930 . S
N79 C76 1.377 . S
N79 C78 1.344 . S
O80 Co72 2.055 . S
O80 C84 1.253 . S
H81 C77 0.931 . S
H82 C78 0.930 . S
O83 Co72 2.039 . S
O83 C73 1.265 . S
C84 O80 1.253 . S
C84 O85 1.227 . S
O85 C84 1.227 . S
N86 Co72 2.140 . S
N86 C89 1.346 . S
N86 C90 1.345 . S
C87 C88 1.387 . S
C87 C91 1.391 . S
C88 C87 1.387 . S
C88 C89 1.369 . S
C88 H97 0.929 . S
C89 N86 1.346 . S
C89 C88 1.369 . S
C89 H92 0.928 . S
C90 N86 1.345 . S
C90 C91 1.371 . S
C90 H93 0.931 . S
C91 C87 1.391 . S
C91 C90 1.371 . S
C91 H98 0.930 . S
H92 C89 0.928 . S
H93 C90 0.931 . S
H94 C70 0.930 . S
H95 C67 0.930 . S
H96 C76 0.930 . S
H97 C88 0.929 . S
H98 C91 0.930 . S
C99 C100 1.351 . S
C99 N102 1.368 . S
C99 H104 0.931 . S
C100 C99 1.351 . S
C100 N101 1.373 . S
C100 H128 0.930 . S
N101 C100 1.373 . S
N101 C103 1.340 . S
N102 C99 1.368 . S
N102 C103 1.321 . S
N102 Co105 2.135 . S
C103 N101 1.340 . S
C103 N102 1.321 . S
C103 H127 0.930 . S
H104 C99 0.931 . S
Co105 N102 2.135 . S
Co105 N108 2.121 . S
Co105 O113 2.055 . S
Co105 O116 2.039 . S
Co105 N119 2.140 . S
C106 O107 1.227 . S
C106 O116 1.265 . S
O107 C106 1.227 . S
N108 Co105 2.121 . S
N108 C110 1.375 . S
N108 C111 1.313 . S
C109 C110 1.338 . S
C109 N112 1.377 . S
C109 H129 0.930 . S
C110 N108 1.375 . S
C110 C109 1.338 . S
C110 H114 0.931 . S
C111 N108 1.313 . S
C111 N112 1.344 . S
C111 H115 0.930 . S
N112 C109 1.377 . S
N112 C111 1.344 . S
O113 Co105 2.055 . S
O113 C117 1.253 . S
H114 C110 0.931 . S
H115 C111 0.930 . S
O116 Co105 2.039 . S
O116 C106 1.265 . S
C117 O113 1.253 . S
C117 O118 1.227 . S
O118 C117 1.227 . S
N119 Co105 2.140 . S
N119 C122 1.346 . S
N119 C123 1.345 . S
C120 C121 1.387 . S
C120 C124 1.391 . S
C121 C120 1.387 . S
C121 C122 1.369 . S
C121 H130 0.929 . S
C122 N119 1.346 . S
C122 C121 1.369 . S
C122 H125 0.928 . S
C123 N119 1.345 . S
C123 C124 1.371 . S
C123 H126 0.931 . S
C124 C120 1.391 . S
C124 C123 1.371 . S
C124 H131 0.930 . S
H125 C122 0.928 . S
H126 C123 0.931 . S
H127 C103 0.930 . S
H128 C100 0.930 . S
H129 C109 0.930 . S
H130 C121 0.929 . S
H131 C124 0.930 . S
C132 C133 1.351 . S
C132 N135 1.368 . S
C132 H137 0.931 . S
C133 C132 1.351 . S
C133 N134 1.373 . S
C133 H161 0.930 . S
N134 C133 1.373 . S
N134 C136 1.340 . S
N135 C132 1.368 . S
N135 C136 1.321 . S
N135 Co138 2.135 . S
C136 N134 1.340 . S
C136 N135 1.321 . S
C136 H160 0.930 . S
H137 C132 0.931 . S
Co138 N135 2.135 . S
Co138 N141 2.121 . S
Co138 O146 2.055 . S
Co138 O149 2.039 . S
Co138 N152 2.140 . S
C139 O140 1.227 . S
C139 O149 1.265 . S
O140 C139 1.227 . S
N141 Co138 2.121 . S
N141 C143 1.375 . S
N141 C144 1.313 . S
C142 C143 1.338 . S
C142 N145 1.377 . S
C142 H162 0.930 . S
C143 N141 1.375 . S
C143 C142 1.338 . S
C143 H147 0.931 . S
C144 N141 1.313 . S
C144 N145 1.344 . S
C144 H148 0.930 . S
N145 C142 1.377 . S
N145 C144 1.344 . S
O146 Co138 2.055 . S
O146 C150 1.253 . S
H147 C143 0.931 . S
H148 C144 0.930 . S
O149 Co138 2.039 . S
O149 C139 1.265 . S
C150 O146 1.253 . S
C150 O151 1.227 . S
O151 C150 1.227 . S
N152 Co138 2.140 . S
N152 C155 1.346 . S
N152 C156 1.345 . S
C153 C154 1.387 . S
C153 C157 1.391 . S
C154 C153 1.387 . S
C154 C155 1.369 . S
C154 H163 0.929 . S
C155 N152 1.346 . S
C155 C154 1.369 . S
C155 H158 0.928 . S
C156 N152 1.345 . S
C156 C157 1.371 . S
C156 H159 0.931 . S
C157 C153 1.391 . S
C157 C156 1.371 . S
C157 H164 0.930 . S
H158 C155 0.928 . S
H159 C156 0.931 . S
H160 C136 0.930 . S
H161 C133 0.930 . S
H162 C142 0.930 . S
H163 C154 0.929 . S
H164 C157 0.930 . S
C165 C166 1.351 . S
C165 N168 1.368 . S
C165 H170 0.931 . S
C166 C165 1.351 . S
C166 N167 1.373 . S
C166 H194 0.930 . S
N167 C166 1.373 . S
N167 C169 1.340 . S
N168 C165 1.368 . S
N168 C169 1.321 . S
N168 Co171 2.135 . S
C169 N167 1.340 . S
C169 N168 1.321 . S
C169 H193 0.930 . S
H170 C165 0.931 . S
Co171 N168 2.135 . S
Co171 N174 2.121 . S
Co171 O179 2.055 . S
Co171 O182 2.039 . S
Co171 N185 2.140 . S
C172 O173 1.227 . S
C172 O182 1.265 . S
O173 C172 1.227 . S
N174 Co171 2.121 . S
N174 C176 1.375 . S
N174 C177 1.313 . S
C175 C176 1.338 . S
C175 N178 1.377 . S
C175 H195 0.930 . S
C176 N174 1.375 . S
C176 C175 1.338 . S
C176 H180 0.931 . S
C177 N174 1.313 . S
C177 N178 1.344 . S
C177 H181 0.930 . S
N178 C175 1.377 . S
N178 C177 1.344 . S
O179 Co171 2.055 . S
O179 C183 1.253 . S
H180 C176 0.931 . S
H181 C177 0.930 . S
O182 Co171 2.039 . S
O182 C172 1.265 . S
C183 O179 1.253 . S
C183 O184 1.227 . S
O184 C183 1.227 . S
N185 Co171 2.140 . S
N185 C188 1.346 . S
N185 C189 1.345 . S
C186 C187 1.387 . S
C186 C190 1.391 . S
C187 C186 1.387 . S
C187 C188 1.369 . S
C187 H196 0.929 . S
C188 N185 1.346 . S
C188 C187 1.369 . S
C188 H191 0.928 . S
C189 N185 1.345 . S
C189 C190 1.371 . S
C189 H192 0.931 . S
C190 C186 1.391 . S
C190 C189 1.371 . S
C190 H197 0.930 . S
H191 C188 0.928 . S
H192 C189 0.931 . S
H193 C169 0.930 . S
H194 C166 0.930 . S
H195 C175 0.930 . S
H196 C187 0.929 . S
H197 C190 0.930 . S
C198 C199 1.351 . S
C198 N201 1.368 . S
C198 H203 0.931 . S
C199 C198 1.351 . S
C199 N200 1.373 . S
C199 H227 0.930 . S
N200 C199 1.373 . S
N200 C202 1.340 . S
N201 C198 1.368 . S
N201 C202 1.321 . S
N201 Co204 2.135 . S
C202 N200 1.340 . S
C202 N201 1.321 . S
C202 H226 0.930 . S
H203 C198 0.931 . S
Co204 N201 2.135 . S
Co204 N207 2.121 . S
Co204 O212 2.055 . S
Co204 O215 2.039 . S
Co204 N218 2.140 . S
C205 O206 1.227 . S
C205 O215 1.265 . S
O206 C205 1.227 . S
N207 Co204 2.121 . S
N207 C209 1.375 . S
N207 C210 1.313 . S
C208 C209 1.338 . S
C208 N211 1.377 . S
C208 H228 0.930 . S
C209 N207 1.375 . S
C209 C208 1.338 . S
C209 H213 0.931 . S
C210 N207 1.313 . S
C210 N211 1.344 . S
C210 H214 0.930 . S
N211 C208 1.377 . S
N211 C210 1.344 . S
O212 Co204 2.055 . S
O212 C216 1.253 . S
H213 C209 0.931 . S
H214 C210 0.930 . S
O215 Co204 2.039 . S
O215 C205 1.265 . S
C216 O212 1.253 . S
C216 O217 1.227 . S
O217 C216 1.227 . S
N218 Co204 2.140 . S
N218 C221 1.346 . S
N218 C222 1.345 . S
C219 C220 1.387 . S
C219 C223 1.391 . S
C220 C219 1.387 . S
C220 C221 1.369 . S
C220 H229 0.929 . S
C221 N218 1.346 . S
C221 C220 1.369 . S
C221 H224 0.928 . S
C222 N218 1.345 . S
C222 C223 1.371 . S
C222 H225 0.931 . S
C223 C219 1.391 . S
C223 C222 1.371 . S
C223 H230 0.930 . S
H224 C221 0.928 . S
H225 C222 0.931 . S
H226 C202 0.930 . S
H227 C199 0.930 . S
H228 C208 0.930 . S
H229 C220 0.929 . S
H230 C223 0.930 . S
C231 C232 1.351 . S
C231 N234 1.368 . S
C231 H236 0.931 . S
C232 C231 1.351 . S
C232 N233 1.373 . S
C232 H260 0.930 . S
N233 C232 1.373 . S
N233 C235 1.340 . S
N234 C231 1.368 . S
N234 C235 1.321 . S
N234 Co237 2.135 . S
C235 N233 1.340 . S
C235 N234 1.321 . S
C235 H259 0.930 . S
H236 C231 0.931 . S
Co237 N234 2.135 . S
Co237 N240 2.121 . S
Co237 O245 2.055 . S
Co237 O248 2.039 . S
Co237 N251 2.140 . S
C238 O239 1.227 . S
C238 O248 1.265 . S
O239 C238 1.227 . S
N240 Co237 2.121 . S
N240 C242 1.375 . S
N240 C243 1.313 . S
C241 C242 1.338 . S
C241 N244 1.377 . S
C241 H261 0.930 . S
C242 N240 1.375 . S
C242 C241 1.338 . S
C242 H246 0.931 . S
C243 N240 1.313 . S
C243 N244 1.344 . S
C243 H247 0.930 . S
N244 C241 1.377 . S
N244 C243 1.344 . S
O245 Co237 2.055 . S
O245 C249 1.253 . S
H246 C242 0.931 . S
H247 C243 0.930 . S
O248 Co237 2.039 . S
O248 C238 1.265 . S
C249 O245 1.253 . S
C249 O250 1.227 . S
O250 C249 1.227 . S
N251 Co237 2.140 . S
N251 C254 1.346 . S
N251 C255 1.345 . S
C252 C253 1.387 . S
C252 C256 1.391 . S
C253 C252 1.387 . S
C253 C254 1.369 . S
C253 H262 0.929 . S
C254 N251 1.346 . S
C254 C253 1.369 . S
C254 H257 0.928 . S
C255 N251 1.345 . S
C255 C256 1.371 . S
C255 H258 0.931 . S
C256 C252 1.391 . S
C256 C255 1.371 . S
C256 H263 0.930 . S
H257 C254 0.928 . S
H258 C255 0.931 . S
H259 C235 0.930 . S
H260 C232 0.930 . S
H261 C241 0.930 . S
H262 C253 0.929 . S
H263 C256 0.930 . S
C264 C265 1.351 . S
C264 N267 1.368 . S
C264 H269 0.931 . S
C265 C264 1.351 . S
C265 N266 1.373 . S
C265 H293 0.930 . S
N266 C265 1.373 . S
N266 C268 1.340 . S
N267 C264 1.368 . S
N267 C268 1.321 . S
N267 Co270 2.135 . S
C268 N266 1.340 . S
C268 N267 1.321 . S
C268 H292 0.930 . S
H269 C264 0.931 . S
Co270 N267 2.135 . S
Co270 N273 2.121 . S
Co270 O278 2.055 . S
Co270 O281 2.039 . S
Co270 N284 2.140 . S
C271 O272 1.227 . S
C271 O281 1.265 . S
O272 C271 1.227 . S
N273 Co270 2.121 . S
N273 C275 1.375 . S
N273 C276 1.313 . S
C274 C275 1.338 . S
C274 N277 1.377 . S
C274 H294 0.930 . S
C275 N273 1.375 . S
C275 C274 1.338 . S
C275 H279 0.931 . S
C276 N273 1.313 . S
C276 N277 1.344 . S
C276 H280 0.930 . S
N277 C274 1.377 . S
N277 C276 1.344 . S
O278 Co270 2.055 . S
O278 C282 1.253 . S
H279 C275 0.931 . S
H280 C276 0.930 . S
O281 Co270 2.039 . S
O281 C271 1.265 . S
C282 O278 1.253 . S
C282 O283 1.227 . S
O283 C282 1.227 . S
N284 Co270 2.140 . S
N284 C287 1.346 . S
N284 C288 1.345 . S
C285 C286 1.387 . S
C285 C289 1.391 . S
C286 C285 1.387 . S
C286 C287 1.369 . S
C286 H295 0.929 . S
C287 N284 1.346 . S
C287 C286 1.369 . S
C287 H290 0.928 . S
C288 N284 1.345 . S
C288 C289 1.371 . S
C288 H291 0.931 . S
C289 C285 1.391 . S
C289 C288 1.371 . S
C289 H296 0.930 . S
H290 C287 0.928 . S
H291 C288 0.931 . S
H292 C268 0.930 . S
H293 C265 0.930 . S
H294 C274 0.930 . S
H295 C286 0.929 . S
H296 C289 0.930 . S
C297 C298 1.351 . S
C297 N300 1.368 . S
C297 H302 0.931 . S
C298 C297 1.351 . S
C298 N299 1.373 . S
C298 H326 0.930 . S
N299 C298 1.373 . S
N299 C301 1.340 . S
N300 C297 1.368 . S
N300 C301 1.321 . S
N300 Co303 2.135 . S
C301 N299 1.340 . S
C301 N300 1.321 . S
C301 H325 0.930 . S
H302 C297 0.931 . S
Co303 N300 2.135 . S
Co303 N306 2.121 . S
Co303 O311 2.055 . S
Co303 O314 2.039 . S
Co303 N317 2.140 . S
C304 O305 1.227 . S
C304 O314 1.265 . S
O305 C304 1.227 . S
N306 Co303 2.121 . S
N306 C308 1.375 . S
N306 C309 1.313 . S
C307 C308 1.338 . S
C307 N310 1.377 . S
C307 H327 0.930 . S
C308 N306 1.375 . S
C308 C307 1.338 . S
C308 H312 0.931 . S
C309 N306 1.313 . S
C309 N310 1.344 . S
C309 H313 0.930 . S
N310 C307 1.377 . S
N310 C309 1.344 . S
O311 Co303 2.055 . S
O311 C315 1.253 . S
H312 C308 0.931 . S
H313 C309 0.930 . S
O314 Co303 2.039 . S
O314 C304 1.265 . S
C315 O311 1.253 . S
C315 O316 1.227 . S
O316 C315 1.227 . S
N317 Co303 2.140 . S
N317 C320 1.346 . S
N317 C321 1.345 . S
C318 C319 1.387 . S
C318 C322 1.391 . S
C319 C318 1.387 . S
C319 C320 1.369 . S
C319 H328 0.929 . S
C320 N317 1.346 . S
C320 C319 1.369 . S
C320 H323 0.928 . S
C321 N317 1.345 . S
C321 C322 1.371 . S
C321 H324 0.931 . S
C322 C318 1.391 . S
C322 C321 1.371 . S
C322 H329 0.930 . S
H323 C320 0.928 . S
H324 C321 0.931 . S
H325 C301 0.930 . S
H326 C298 0.930 . S
H327 C307 0.930 . S
H328 C319 0.929 . S
H329 C322 0.930 . S
C330 C331 1.351 . S
C330 N333 1.368 . S
C330 H335 0.931 . S
C331 C330 1.351 . S
C331 N332 1.373 . S
C331 H359 0.930 . S
N332 C331 1.373 . S
N332 C334 1.340 . S
N333 C330 1.368 . S
N333 C334 1.321 . S
N333 Co336 2.135 . S
C334 N332 1.340 . S
C334 N333 1.321 . S
C334 H358 0.930 . S
H335 C330 0.931 . S
Co336 N333 2.135 . S
Co336 N339 2.121 . S
Co336 O344 2.055 . S
Co336 O347 2.039 . S
Co336 N350 2.140 . S
C337 O338 1.227 . S
C337 O347 1.265 . S
O338 C337 1.227 . S
N339 Co336 2.121 . S
N339 C341 1.375 . S
N339 C342 1.313 . S
C340 C341 1.338 . S
C340 N343 1.377 . S
C340 H360 0.930 . S
C341 N339 1.375 . S
C341 C340 1.338 . S
C341 H345 0.931 . S
C342 N339 1.313 . S
C342 N343 1.344 . S
C342 H346 0.930 . S
N343 C340 1.377 . S
N343 C342 1.344 . S
O344 Co336 2.055 . S
O344 C348 1.253 . S
H345 C341 0.931 . S
H346 C342 0.930 . S
O347 Co336 2.039 . S
O347 C337 1.265 . S
C348 O344 1.253 . S
C348 O349 1.227 . S
O349 C348 1.227 . S
N350 Co336 2.140 . S
N350 C353 1.346 . S
N350 C354 1.345 . S
C351 C352 1.387 . S
C351 C355 1.391 . S
C352 C351 1.387 . S
C352 C353 1.369 . S
C352 H361 0.929 . S
C353 N350 1.346 . S
C353 C352 1.369 . S
C353 H356 0.928 . S
C354 N350 1.345 . S
C354 C355 1.371 . S
C354 H357 0.931 . S
C355 C351 1.391 . S
C355 C354 1.371 . S
C355 H362 0.930 . S
H356 C353 0.928 . S
H357 C354 0.931 . S
H358 C334 0.930 . S
H359 C331 0.930 . S
H360 C340 0.930 . S
H361 C352 0.929 . S
H362 C355 0.930 . S
C363 C364 1.351 . S
C363 N366 1.368 . S
C363 H368 0.931 . S
C364 C363 1.351 . S
C364 N365 1.373 . S
C364 H392 0.930 . S
N365 C364 1.373 . S
N365 C367 1.340 . S
N366 C363 1.368 . S
N366 C367 1.321 . S
N366 Co369 2.135 . S
C367 N365 1.340 . S
C367 N366 1.321 . S
C367 H391 0.930 . S
H368 C363 0.931 . S
Co369 N366 2.135 . S
Co369 N372 2.121 . S
Co369 O377 2.055 . S
Co369 O380 2.039 . S
Co369 N383 2.140 . S
C370 O371 1.227 . S
C370 O380 1.265 . S
O371 C370 1.227 . S
N372 Co369 2.121 . S
N372 C374 1.375 . S
N372 C375 1.313 . S
C373 C374 1.338 . S
C373 N376 1.377 . S
C373 H393 0.930 . S
C374 N372 1.375 . S
C374 C373 1.338 . S
C374 H378 0.931 . S
C375 N372 1.313 . S
C375 N376 1.344 . S
C375 H379 0.930 . S
N376 C373 1.377 . S
N376 C375 1.344 . S
O377 Co369 2.055 . S
O377 C381 1.253 . S
H378 C374 0.931 . S
H379 C375 0.930 . S
O380 Co369 2.039 . S
O380 C370 1.265 . S
C381 O377 1.253 . S
C381 O382 1.227 . S
O382 C381 1.227 . S
N383 Co369 2.140 . S
N383 C386 1.346 . S
N383 C387 1.345 . S
C384 C385 1.387 . S
C384 C388 1.391 . S
C385 C384 1.387 . S
C385 C386 1.369 . S
C385 H394 0.929 . S
C386 N383 1.346 . S
C386 C385 1.369 . S
C386 H389 0.928 . S
C387 N383 1.345 . S
C387 C388 1.371 . S
C387 H390 0.931 . S
C388 C384 1.391 . S
C388 C387 1.371 . S
C388 H395 0.930 . S
H389 C386 0.928 . S
H390 C387 0.931 . S
H391 C367 0.930 . S
H392 C364 0.930 . S
H393 C373 0.930 . S
H394 C385 0.929 . S
H395 C388 0.930 . S
C396 C397 1.351 . S
C396 N399 1.368 . S
C396 H401 0.931 . S
C397 C396 1.351 . S
C397 N398 1.373 . S
C397 H425 0.930 . S
N398 C397 1.373 . S
N398 C400 1.340 . S
N399 C396 1.368 . S
N399 C400 1.321 . S
N399 Co402 2.135 . S
C400 N398 1.340 . S
C400 N399 1.321 . S
C400 H424 0.930 . S
H401 C396 0.931 . S
Co402 N399 2.135 . S
Co402 N405 2.121 . S
Co402 O410 2.055 . S
Co402 O413 2.039 . S
Co402 N416 2.140 . S
C403 O404 1.227 . S
C403 O413 1.265 . S
O404 C403 1.227 . S
N405 Co402 2.121 . S
N405 C407 1.375 . S
N405 C408 1.313 . S
C406 C407 1.338 . S
C406 N409 1.377 . S
C406 H426 0.930 . S
C407 N405 1.375 . S
C407 C406 1.338 . S
C407 H411 0.931 . S
C408 N405 1.313 . S
C408 N409 1.344 . S
C408 H412 0.930 . S
N409 C406 1.377 . S
N409 C408 1.344 . S
O410 Co402 2.055 . S
O410 C414 1.253 . S
H411 C407 0.931 . S
H412 C408 0.930 . S
O413 Co402 2.039 . S
O413 C403 1.265 . S
C414 O410 1.253 . S
C414 O415 1.227 . S
O415 C414 1.227 . S
N416 Co402 2.140 . S
N416 C419 1.346 . S
N416 C420 1.345 . S
C417 C418 1.387 . S
C417 C421 1.391 . S
C418 C417 1.387 . S
C418 C419 1.369 . S
C418 H427 0.929 . S
C419 N416 1.346 . S
C419 C418 1.369 . S
C419 H422 0.928 . S
C420 N416 1.345 . S
C420 C421 1.371 . S
C420 H423 0.931 . S
C421 C417 1.391 . S
C421 C420 1.371 . S
C421 H428 0.930 . S
H422 C419 0.928 . S
H423 C420 0.931 . S
H424 C400 0.930 . S
H425 C397 0.930 . S
H426 C406 0.930 . S
H427 C418 0.929 . S
H428 C421 0.930 . S
C429 C430 1.351 . S
C429 N432 1.368 . S
C429 H434 0.931 . S
C430 C429 1.351 . S
C430 N431 1.373 . S
C430 H458 0.930 . S
N431 C430 1.373 . S
N431 C433 1.340 . S
N432 C429 1.368 . S
N432 C433 1.321 . S
N432 Co435 2.135 . S
C433 N431 1.340 . S
C433 N432 1.321 . S
C433 H457 0.930 . S
H434 C429 0.931 . S
Co435 N432 2.135 . S
Co435 N438 2.121 . S
Co435 O443 2.055 . S
Co435 O446 2.039 . S
Co435 N449 2.140 . S
C436 O437 1.227 . S
C436 O446 1.265 . S
O437 C436 1.227 . S
N438 Co435 2.121 . S
N438 C440 1.375 . S
N438 C441 1.313 . S
C439 C440 1.338 . S
C439 N442 1.377 . S
C439 H459 0.930 . S
C440 N438 1.375 . S
C440 C439 1.338 . S
C440 H444 0.931 . S
C441 N438 1.313 . S
C441 N442 1.344 . S
C441 H445 0.930 . S
N442 C439 1.377 . S
N442 C441 1.344 . S
O443 Co435 2.055 . S
O443 C447 1.253 . S
H444 C440 0.931 . S
H445 C441 0.930 . S
O446 Co435 2.039 . S
O446 C436 1.265 . S
C447 O443 1.253 . S
C447 O448 1.227 . S
O448 C447 1.227 . S
N449 Co435 2.140 . S
N449 C452 1.346 . S
N449 C453 1.345 . S
C450 C451 1.387 . S
C450 C454 1.391 . S
C451 C450 1.387 . S
C451 C452 1.369 . S
C451 H460 0.929 . S
C452 N449 1.346 . S
C452 C451 1.369 . S
C452 H455 0.928 . S
C453 N449 1.345 . S
C453 C454 1.371 . S
C453 H456 0.931 . S
C454 C450 1.391 . S
C454 C453 1.371 . S
C454 H461 0.930 . S
H455 C452 0.928 . S
H456 C453 0.931 . S
H457 C433 0.930 . S
H458 C430 0.930 . S
H459 C439 0.930 . S
H460 C451 0.929 . S
H461 C454 0.930 . S
C462 C463 1.351 . S
C462 N465 1.368 . S
C462 H467 0.931 . S
C463 C462 1.351 . S
C463 N464 1.373 . S
C463 H491 0.930 . S
N464 C463 1.373 . S
N464 C466 1.340 . S
N465 C462 1.368 . S
N465 C466 1.321 . S
N465 Co468 2.135 . S
C466 N464 1.340 . S
C466 N465 1.321 . S
C466 H490 0.930 . S
H467 C462 0.931 . S
Co468 N465 2.135 . S
Co468 N471 2.121 . S
Co468 O476 2.055 . S
Co468 O479 2.039 . S
Co468 N482 2.140 . S
C469 O470 1.227 . S
C469 O479 1.265 . S
O470 C469 1.227 . S
N471 Co468 2.121 . S
N471 C473 1.375 . S
N471 C474 1.313 . S
C472 C473 1.338 . S
C472 N475 1.377 . S
C472 H492 0.930 . S
C473 N471 1.375 . S
C473 C472 1.338 . S
C473 H477 0.931 . S
C474 N471 1.313 . S
C474 N475 1.344 . S
C474 H478 0.930 . S
N475 C472 1.377 . S
N475 C474 1.344 . S
O476 Co468 2.055 . S
O476 C480 1.253 . S
H477 C473 0.931 . S
H478 C474 0.930 . S
O479 Co468 2.039 . S
O479 C469 1.265 . S
C480 O476 1.253 . S
C480 O481 1.227 . S
O481 C480 1.227 . S
N482 Co468 2.140 . S
N482 C485 1.346 . S
N482 C486 1.345 . S
C483 C484 1.387 . S
C483 C487 1.391 . S
C484 C483 1.387 . S
C484 C485 1.369 . S
C484 H493 0.929 . S
C485 N482 1.346 . S
C485 C484 1.369 . S
C485 H488 0.928 . S
C486 N482 1.345 . S
C486 C487 1.371 . S
C486 H489 0.931 . S
C487 C483 1.391 . S
C487 C486 1.371 . S
C487 H494 0.930 . S
H488 C485 0.928 . S
H489 C486 0.931 . S
H490 C466 0.930 . S
H491 C463 0.930 . S
H492 C472 0.930 . S
H493 C484 0.929 . S
H494 C487 0.930 . S
C495 C496 1.351 . S
C495 N498 1.368 . S
C495 H500 0.931 . S
C496 C495 1.351 . S
C496 N497 1.373 . S
C496 H524 0.930 . S
N497 C496 1.373 . S
N497 C499 1.340 . S
N498 C495 1.368 . S
N498 C499 1.321 . S
N498 Co501 2.135 . S
C499 N497 1.340 . S
C499 N498 1.321 . S
C499 H523 0.930 . S
H500 C495 0.931 . S
Co501 N498 2.135 . S
Co501 N504 2.121 . S
Co501 O509 2.055 . S
Co501 O512 2.039 . S
Co501 N515 2.140 . S
C502 O503 1.227 . S
C502 O512 1.265 . S
O503 C502 1.227 . S
N504 Co501 2.121 . S
N504 C506 1.375 . S
N504 C507 1.313 . S
C505 C506 1.338 . S
C505 N508 1.377 . S
C505 H525 0.930 . S
C506 N504 1.375 . S
C506 C505 1.338 . S
C506 H510 0.931 . S
C507 N504 1.313 . S
C507 N508 1.344 . S
C507 H511 0.930 . S
N508 C505 1.377 . S
N508 C507 1.344 . S
O509 Co501 2.055 . S
O509 C513 1.253 . S
H510 C506 0.931 . S
H511 C507 0.930 . S
O512 Co501 2.039 . S
O512 C502 1.265 . S
C513 O509 1.253 . S
C513 O514 1.227 . S
O514 C513 1.227 . S
N515 Co501 2.140 . S
N515 C518 1.346 . S
N515 C519 1.345 . S
C516 C517 1.387 . S
C516 C520 1.391 . S
C517 C516 1.387 . S
C517 C518 1.369 . S
C517 H526 0.929 . S
C518 N515 1.346 . S
C518 C517 1.369 . S
C518 H521 0.928 . S
C519 N515 1.345 . S
C519 C520 1.371 . S
C519 H522 0.931 . S
C520 C516 1.391 . S
C520 C519 1.371 . S
C520 H527 0.930 . S
H521 C518 0.928 . S
H522 C519 0.931 . S
H523 C499 0.930 . S
H524 C496 0.930 . S
H525 C505 0.930 . S
H526 C517 0.929 . S
H527 C520 0.930 . S
C528 C529 1.391 . S
C528 C530 1.394 . S
C528 H544 0.931 . S
C529 C528 1.391 . S
C529 C533 1.376 . S
C530 C528 1.394 . S
C530 C531 1.369 . S
C530 C534 1.531 1_655 S
C531 C530 1.369 . S
C531 C532 1.410 . S
C531 C539 1.503 1_655 S
C532 C531 1.410 . S
C532 C533 1.392 . S
C532 C535 1.511 . S
C533 C529 1.376 . S
C533 C532 1.392 . S
C533 H545 0.929 . S
C534 C530 1.531 1_455 S
C534 H546 0.960 . S
C534 H547 0.962 . S
C534 H548 0.960 . S
C535 C532 1.511 . S
C535 H549 0.961 . S
C535 H550 0.961 . S
C535 H551 0.961 . S
C536 C537 1.370 . S
C536 C538 1.363 . S
C536 H552 0.931 . S
C537 C536 1.370 . S
C537 C541 1.408 . S
C538 C536 1.363 . S
C538 C539 1.370 . S
C538 C542 1.524 . S
C539 C531 1.503 1_455 S
C539 C538 1.370 . S
C539 C540 1.403 . S
C540 C539 1.403 . S
C540 C541 1.404 . S
C540 C543 1.539 . S
C541 C537 1.408 . S
C541 C540 1.404 . S
C541 H553 0.930 . S
C542 C538 1.524 . S
C542 H554 0.956 . S
C542 H555 0.961 1_455 S
C542 H556 0.961 . S
C543 C540 1.539 . S
C543 H557 0.958 . S
C543 H558 0.961 . S
C543 H559 0.960 1_455 S
H544 C528 0.931 . S
H545 C533 0.929 . S
H546 C534 0.960 . S
H547 C534 0.962 . S
H548 C534 0.960 . S
H549 C535 0.961 . S
H550 C535 0.961 . S
H551 C535 0.961 . S
H552 C536 0.931 . S
H553 C541 0.930 . S
H554 C542 0.956 . S
H555 C542 0.961 1_655 S
H556 C542 0.961 . S
H557 C543 0.958 . S
H558 C543 0.961 . S
H559 C543 0.960 1_655 S
C560 C561 1.391 . S
C560 C562 1.394 . S
C560 H576 0.931 . S
C561 C560 1.391 . S
C561 C565 1.376 . S
C562 C560 1.394 . S
C562 C563 1.369 . S
C562 C566 1.531 1_545 S
C563 C562 1.369 . S
C563 C564 1.410 . S
C563 C571 1.503 1_545 S
C564 C563 1.410 . S
C564 C565 1.392 . S
C564 C567 1.511 . S
C565 C561 1.376 . S
C565 C564 1.392 . S
C565 H577 0.929 . S
C566 C562 1.531 1_565 S
C566 H578 0.960 . S
C566 H579 0.962 . S
C566 H580 0.960 . S
C567 C564 1.511 . S
C567 H581 0.961 . S
C567 H582 0.961 . S
C567 H583 0.961 . S
C568 C569 1.370 . S
C568 C570 1.363 . S
C568 H584 0.931 . S
C569 C568 1.370 . S
C569 C573 1.408 . S
C570 C568 1.363 . S
C570 C571 1.370 . S
C570 C574 1.524 . S
C571 C563 1.503 1_565 S
C571 C570 1.370 . S
C571 C572 1.403 . S
C572 C571 1.403 . S
C572 C573 1.404 . S
C572 C575 1.539 . S
C573 C569 1.408 . S
C573 C572 1.404 . S
C573 H585 0.930 . S
C574 C570 1.524 . S
C574 H586 0.956 . S
C574 H587 0.961 1_565 S
C574 H588 0.961 . S
C575 C572 1.539 . S
C575 H589 0.958 . S
C575 H590 0.961 . S
C575 H591 0.960 1_565 S
H576 C560 0.931 . S
H577 C565 0.929 . S
H578 C566 0.960 . S
H579 C566 0.962 . S
H580 C566 0.960 . S
H581 C567 0.961 . S
H582 C567 0.961 . S
H583 C567 0.961 . S
H584 C568 0.931 . S
H585 C573 0.930 . S
H586 C574 0.956 . S
H587 C574 0.961 1_545 S
H588 C574 0.961 . S
H589 C575 0.958 . S
H590 C575 0.961 . S
H591 C575 0.960 1_545 S
C592 C593 1.391 . S
C592 C594 1.394 . S
C592 H608 0.931 . S
C593 C592 1.391 . S
C593 C597 1.376 . S
C594 C592 1.394 . S
C594 C595 1.369 . S
C594 C598 1.531 1_655 S
C595 C594 1.369 . S
C595 C596 1.410 . S
C595 C603 1.503 1_655 S
C596 C595 1.410 . S
C596 C597 1.392 . S
C596 C599 1.511 . S
C597 C593 1.376 . S
C597 C596 1.392 . S
C597 H609 0.929 . S
C598 C594 1.531 1_455 S
C598 H610 0.960 . S
C598 H611 0.962 . S
C598 H612 0.960 . S
C599 C596 1.511 . S
C599 H613 0.961 . S
C599 H614 0.961 . S
C599 H615 0.961 . S
C600 C601 1.370 . S
C600 C602 1.363 . S
C600 H616 0.931 . S
C601 C600 1.370 . S
C601 C605 1.408 . S
C602 C600 1.363 . S
C602 C603 1.370 . S
C602 C606 1.524 . S
C603 C595 1.503 1_455 S
C603 C602 1.370 . S
C603 C604 1.403 . S
C604 C603 1.403 . S
C604 C605 1.404 . S
C604 C607 1.539 . S
C605 C601 1.408 . S
C605 C604 1.404 . S
C605 H617 0.930 . S
C606 C602 1.524 . S
C606 H618 0.956 . S
C606 H619 0.961 1_455 S
C606 H620 0.961 . S
C607 C604 1.539 . S
C607 H621 0.958 . S
C607 H622 0.961 . S
C607 H623 0.960 1_455 S
H608 C592 0.931 . S
H609 C597 0.929 . S
H610 C598 0.960 . S
H611 C598 0.962 . S
H612 C598 0.960 . S
H613 C599 0.961 . S
H614 C599 0.961 . S
H615 C599 0.961 . S
H616 C600 0.931 . S
H617 C605 0.930 . S
H618 C606 0.956 . S
H619 C606 0.961 1_655 S
H620 C606 0.961 . S
H621 C607 0.958 . S
H622 C607 0.961 . S
H623 C607 0.960 1_655 S
C624 C625 1.391 . S
C624 C626 1.394 . S
C624 H640 0.931 . S
C625 C624 1.391 . S
C625 C629 1.376 . S
C626 C624 1.394 . S
C626 C627 1.369 . S
C626 C630 1.531 1_565 S
C627 C626 1.369 . S
C627 C628 1.410 . S
C627 C635 1.503 1_565 S
C628 C627 1.410 . S
C628 C629 1.392 . S
C628 C631 1.511 . S
C629 C625 1.376 . S
C629 C628 1.392 . S
C629 H641 0.929 . S
C630 C626 1.531 1_545 S
C630 H642 0.960 . S
C630 H643 0.962 . S
C630 H644 0.973 . S
C631 C628 1.511 . S
C631 H645 0.961 . S
C631 H646 0.961 . S
C631 H647 0.961 . S
C632 C633 1.370 . S
C632 C634 1.363 . S
C632 H648 0.931 . S
C633 C632 1.370 . S
C633 C637 1.408 . S
C634 C632 1.363 . S
C634 C635 1.370 . S
C634 C638 1.524 . S
C635 C627 1.503 1_545 S
C635 C634 1.370 . S
C635 C636 1.403 . S
C636 C635 1.403 . S
C636 C637 1.404 . S
C636 C639 1.539 . S
C637 C633 1.408 . S
C637 C636 1.404 . S
C637 H649 0.930 . S
C638 C634 1.524 . S
C638 H650 0.956 . S
C638 H651 0.961 . S
C638 H652 0.961 . S
C639 C636 1.539 . S
C639 H653 0.958 . S
C639 H654 0.961 . S
C639 H655 0.960 1_545 S
H640 C624 0.931 . S
H641 C629 0.929 . S
H642 C630 0.960 . S
H643 C630 0.962 . S
H644 C630 0.973 . S
H645 C631 0.961 . S
H646 C631 0.961 . S
H647 C631 0.961 . S
H648 C632 0.931 . S
H649 C637 0.930 . S
H650 C638 0.956 . S
H651 C638 0.961 . S
H652 C638 0.961 . S
H653 C639 0.958 . S
H654 C639 0.961 . S
H655 C639 0.960 1_565 S
C656 C657 1.391 . S
C656 C658 1.394 . S
C656 H672 0.931 . S
C657 C656 1.391 . S
C657 C661 1.376 . S
C658 C656 1.394 . S
C658 C659 1.369 . S
C658 C662 1.531 . S
C659 C658 1.369 . S
C659 C660 1.410 1_655 S
C659 C667 1.503 1_655 S
C660 C659 1.410 1_455 S
C660 C661 1.392 1_455 S
C660 C663 1.511 . S
C661 C657 1.376 . S
C661 C660 1.392 1_655 S
C661 H673 0.929 1_655 S
C662 C658 1.531 . S
C662 H674 0.960 . S
C662 H675 0.962 . S
C662 H676 0.960 . S
C663 C660 1.511 . S
C663 H677 0.961 . S
C663 H678 0.961 . S
C663 H679 0.961 . S
C664 C665 1.370 . S
C664 C666 1.363 . S
C664 H680 0.931 . S
C665 C664 1.370 . S
C665 C669 1.408 . S
C666 C664 1.363 . S
C666 C667 1.370 . S
C666 C670 1.524 . S
C667 C659 1.503 1_455 S
C667 C666 1.370 . S
C667 C668 1.403 . S
C668 C667 1.403 . S
C668 C669 1.404 . S
C668 C671 1.539 . S
C669 C665 1.408 . S
C669 C668 1.404 . S
C669 H681 0.930 . S
C670 C666 1.524 . S
C670 H682 0.956 1_455 S
C670 H683 0.961 . S
C670 H684 0.961 . S
C671 C668 1.539 . S
C671 H685 0.958 1_455 S
C671 H686 0.961 . S
C671 H687 0.960 . S
H672 C656 0.931 . S
H673 C661 0.929 1_455 S
H674 C662 0.960 . S
H675 C662 0.962 . S
H676 C662 0.960 . S
H677 C663 0.961 . S
H678 C663 0.961 . S
H679 C663 0.961 . S
H680 C664 0.931 . S
H681 C669 0.930 . S
H682 C670 0.956 1_655 S
H683 C670 0.961 . S
H684 C670 0.961 . S
H685 C671 0.958 1_655 S
H686 C671 0.961 . S
H687 C671 0.960 . S
C688 C689 1.391 . S
C688 C690 1.394 1_565 S
C688 H704 0.931 . S
C689 C688 1.391 . S
C689 C693 1.376 . S
C690 C688 1.394 1_545 S
C690 C691 1.369 1_545 S
C690 C694 1.531 . S
C691 C690 1.369 1_565 S
C691 C692 1.410 . S
C691 C699 1.503 1_565 S
C692 C691 1.410 . S
C692 C693 1.392 . S
C692 C695 1.511 . S
C693 C689 1.376 . S
C693 C692 1.392 . S
C693 H705 0.929 . S
C694 C690 1.531 . S
C694 H706 0.960 . S
C694 H707 0.962 . S
C694 H708 0.960 . S
C695 C692 1.511 . S
C695 H709 0.961 . S
C695 H710 0.961 . S
C695 H711 0.961 . S
C696 C697 1.370 . S
C696 C698 1.363 . S
C696 H712 0.931 . S
C697 C696 1.370 . S
C697 C701 1.408 . S
C698 C696 1.363 . S
C698 C699 1.370 . S
C698 C702 1.524 . S
C699 C691 1.503 1_545 S
C699 C698 1.370 . S
C699 C700 1.403 . S
C700 C699 1.403 . S
C700 C701 1.404 . S
C700 C703 1.539 1_545 S
C701 C697 1.408 . S
C701 C700 1.404 . S
C701 H713 0.930 . S
C702 C698 1.524 . S
C702 H714 0.956 . S
C702 H715 0.961 . S
C702 H716 0.961 . S
C703 C700 1.539 1_565 S
C703 H717 0.958 . S
C703 H718 0.961 . S
C703 H719 0.960 . S
H704 C688 0.931 . S
H705 C693 0.929 . S
H706 C694 0.960 . S
H707 C694 0.962 . S
H708 C694 0.960 . S
H709 C695 0.961 . S
H710 C695 0.961 . S
H711 C695 0.961 . S
H712 C696 0.931 . S
H713 C701 0.930 . S
H714 C702 0.956 . S
H715 C702 0.961 . S
H716 C702 0.961 . S
H717 C703 0.958 . S
H718 C703 0.961 . S
H719 C703 0.960 . S
C720 C721 1.391 . S
C720 C722 1.394 1_655 S
C720 H736 0.931 . S
C721 C720 1.391 . S
C721 C725 1.376 . S
C722 C720 1.394 1_455 S
C722 C723 1.369 1_455 S
C722 C726 1.531 . S
C723 C722 1.369 1_655 S
C723 C724 1.410 . S
C723 C731 1.503 1_655 S
C724 C723 1.410 . S
C724 C725 1.392 . S
C724 C727 1.511 . S
C725 C721 1.376 . S
C725 C724 1.392 . S
C725 H737 0.929 . S
C726 C722 1.531 . S
C726 H738 0.960 . S
C726 H739 0.962 . S
C726 H740 0.960 . S
C727 C724 1.511 . S
C727 H741 0.961 . S
C727 H742 0.961 . S
C727 H743 0.961 . S
C728 C729 1.370 . S
C728 C730 1.363 . S
C728 H744 0.931 . S
C729 C728 1.370 . S
C729 C733 1.408 . S
C730 C728 1.363 . S
C730 C731 1.370 . S
C730 C734 1.524 . S
C731 C723 1.503 1_455 S
C731 C730 1.370 . S
C731 C732 1.403 . S
C732 C731 1.403 . S
C732 C733 1.404 . S
C732 C735 1.539 1_455 S
C733 C729 1.408 . S
C733 C732 1.404 . S
C733 H745 0.930 . S
C734 C730 1.524 . S
C734 H746 0.956 . S
C734 H747 0.961 . S
C734 H748 0.961 . S
C735 C732 1.539 1_655 S
C735 H749 0.958 . S
C735 H750 0.961 . S
C735 H751 0.960 . S
H736 C720 0.931 . S
H737 C725 0.929 . S
H738 C726 0.960 . S
H739 C726 0.962 . S
H740 C726 0.960 . S
H741 C727 0.961 . S
H742 C727 0.961 . S
H743 C727 0.961 . S
H744 C728 0.931 . S
H745 C733 0.930 . S
H746 C734 0.956 . S
H747 C734 0.961 . S
H748 C734 0.961 . S
H749 C735 0.958 . S
H750 C735 0.961 . S
H751 C735 0.960 . S
C752 C753 1.391 . S
C752 C754 1.394 . S
C752 H768 0.931 . S
C753 C752 1.391 . S
C753 C757 1.376 . S
C754 C752 1.394 . S
C754 C755 1.369 . S
C754 C758 1.531 . S
C755 C754 1.369 . S
C755 C756 1.410 . S
C755 C763 1.503 1_545 S
C756 C755 1.410 . S
C756 C757 1.392 . S
C756 C759 1.511 1_545 S
C757 C753 1.376 . S
C757 C756 1.392 . S
C757 H769 0.929 . S
C758 C754 1.531 . S
C758 H770 0.960 . S
C758 H771 0.962 . S
C758 H772 0.960 . S
C759 C756 1.511 1_565 S
C759 H773 0.961 . S
C759 H774 0.961 . S
C759 H775 0.961 . S
C760 C761 1.370 . S
C760 C762 1.363 . S
C760 H776 0.931 . S
C761 C760 1.370 . S
C761 C765 1.408 . S
C762 C760 1.363 . S
C762 C763 1.370 . S
C762 C766 1.524 . S
C763 C755 1.503 1_565 S
C763 C762 1.370 . S
C763 C764 1.403 1_565 S
C764 C763 1.403 1_545 S
C764 C765 1.404 1_545 S
C764 C767 1.539 . S
C765 C761 1.408 . S
C765 C764 1.404 1_565 S
C765 H777 0.930 . S
C766 C762 1.524 . S
C766 H778 0.956 . S
C766 H779 0.961 . S
C766 H780 0.961 . S
C767 C764 1.539 . S
C767 H781 0.958 . S
C767 H782 0.961 . S
C767 H783 0.960 . S
H768 C752 0.931 . S
H769 C757 0.929 . S
H770 C758 0.960 . S
H771 C758 0.962 . S
H772 C758 0.960 . S
H773 C759 0.961 . S
H774 C759 0.961 . S
H775 C759 0.961 . S
H776 C760 0.931 . S
H777 C765 0.930 . S
H778 C766 0.956 . S
H779 C766 0.961 . S
H780 C766 0.961 . S
H781 C767 0.958 . S
H782 C767 0.961 . S
H783 C767 0.960 . S
C784 C785 1.391 . S
C784 C786 1.394 . S
C784 H800 0.931 . S
C785 C784 1.391 . S
C785 C789 1.376 . S
C786 C784 1.394 . S
C786 C787 1.369 . S
C786 C790 1.531 . S
C787 C786 1.369 . S
C787 C788 1.410 . S
C787 C795 1.503 . S
C788 C787 1.410 . S
C788 C789 1.392 . S
C788 C791 1.511 . S
C789 C785 1.376 . S
C789 C788 1.392 . S
C789 H801 0.929 . S
C790 C786 1.531 . S
C790 H802 0.960 . S
C790 H803 0.962 . S
C790 H804 0.960 . S
C791 C788 1.511 . S
C791 H805 0.961 . S
C791 H806 0.961 . S
C791 H807 0.961 . S
C792 C793 1.370 . S
C792 C794 1.363 . S
C792 H808 0.931 . S
C793 C792 1.370 . S
C793 C797 1.408 . S
C794 C792 1.363 . S
C794 C795 1.370 . S
C794 C798 1.524 . S
C795 C787 1.503 . S
C795 C794 1.370 . S
C795 C796 1.403 . S
C796 C795 1.403 . S
C796 C797 1.404 . S
C796 C799 1.539 . S
C797 C793 1.408 . S
C797 C796 1.404 . S
C797 H809 0.930 . S
C798 C794 1.524 . S
C798 H810 0.956 . S
C798 H811 0.961 . S
C798 H812 0.961 . S
C799 C796 1.539 . S
C799 H813 0.958 . S
C799 H814 0.961 . S
C799 H815 0.960 . S
H800 C784 0.931 . S
H801 C789 0.929 . S
H802 C790 0.960 . S
H803 C790 0.962 . S
H804 C790 0.960 . S
H805 C791 0.961 . S
H806 C791 0.961 . S
H807 C791 0.961 . S
H808 C792 0.931 . S
H809 C797 0.930 . S
H810 C798 0.956 . S
H811 C798 0.961 . S
H812 C798 0.961 . S
H813 C799 0.958 . S
H814 C799 0.961 . S
H815 C799 0.960 . S
C816 C817 1.391 . S
C816 C818 1.394 . S
C816 H832 0.931 . S
C817 C816 1.391 . S
C817 C821 1.376 . S
C818 C816 1.394 . S
C818 C819 1.369 . S
C818 C822 1.531 . S
C819 C818 1.369 . S
C819 C820 1.410 . S
C819 C827 1.503 . S
C820 C819 1.410 . S
C820 C821 1.392 . S
C820 C823 1.511 . S
C821 C817 1.376 . S
C821 C820 1.392 . S
C821 H833 0.929 . S
C822 C818 1.531 . S
C822 H834 0.960 . S
C822 H835 0.962 . S
C822 H836 0.960 . S
C823 C820 1.511 . S
C823 H837 0.961 . S
C823 H838 0.961 . S
C823 H839 0.961 . S
C824 C825 1.370 . S
C824 C826 1.363 . S
C824 H840 0.931 . S
C825 C824 1.370 . S
C825 C829 1.408 . S
C826 C824 1.363 . S
C826 C827 1.370 . S
C826 C830 1.524 . S
C827 C819 1.503 . S
C827 C826 1.370 . S
C827 C828 1.403 . S
C828 C827 1.403 . S
C828 C829 1.404 . S
C828 C831 1.539 . S
C829 C825 1.408 . S
C829 C828 1.404 . S
C829 H841 0.930 . S
C830 C826 1.524 . S
C830 H842 0.956 . S
C830 H843 0.961 . S
C830 H844 0.961 . S
C831 C828 1.539 . S
C831 H845 0.958 . S
C831 H846 0.961 . S
C831 H847 0.960 . S
H832 C816 0.931 . S
H833 C821 0.929 . S
H834 C822 0.960 . S
H835 C822 0.962 . S
H836 C822 0.960 . S
H837 C823 0.961 . S
H838 C823 0.961 . S
H839 C823 0.961 . S
H840 C824 0.931 . S
H841 C829 0.930 . S
H842 C830 0.956 . S
H843 C830 0.961 . S
H844 C830 0.961 . S
H845 C831 0.958 . S
H846 C831 0.961 . S
H847 C831 0.960 . S
C848 C849 1.391 . S
C848 C850 1.394 . S
C848 H864 0.931 . S
C849 C848 1.391 . S
C849 C853 1.376 . S
C850 C848 1.394 . S
C850 C851 1.369 . S
C850 C854 1.531 . S
C851 C850 1.369 . S
C851 C852 1.410 . S
C851 C859 1.503 . S
C852 C851 1.410 . S
C852 C853 1.392 . S
C852 C855 1.511 . S
C853 C849 1.376 . S
C853 C852 1.392 . S
C853 H865 0.929 . S
C854 C850 1.531 . S
C854 H866 0.960 . S
C854 H867 0.962 . S
C854 H868 0.960 . S
C855 C852 1.511 . S
C855 H869 0.961 . S
C855 H870 0.961 . S
C855 H871 0.961 . S
C856 C857 1.370 . S
C856 C858 1.363 . S
C856 H872 0.931 . S
C857 C856 1.370 . S
C857 C861 1.408 . S
C858 C856 1.363 . S
C858 C859 1.370 . S
C858 C862 1.524 . S
C859 C851 1.503 . S
C859 C858 1.370 . S
C859 C860 1.403 . S
C860 C859 1.403 . S
C860 C861 1.404 . S
C860 C863 1.539 . S
C861 C857 1.408 . S
C861 C860 1.404 . S
C861 H873 0.930 . S
C862 C858 1.524 . S
C862 H874 0.956 . S
C862 H875 0.961 . S
C862 H876 0.961 . S
C863 C860 1.539 . S
C863 H877 0.958 . S
C863 H878 0.961 . S
C863 H879 0.960 . S
H864 C848 0.931 . S
H865 C853 0.929 . S
H866 C854 0.960 . S
H867 C854 0.962 . S
H868 C854 0.960 . S
H869 C855 0.961 . S
H870 C855 0.961 . S
H871 C855 0.961 . S
H872 C856 0.931 . S
H873 C861 0.930 . S
H874 C862 0.956 . S
H875 C862 0.961 . S
H876 C862 0.961 . S
H877 C863 0.958 . S
H878 C863 0.961 . S
H879 C863 0.960 . S
C880 C881 1.391 . S
C880 C882 1.394 . S
C880 H896 0.931 . S
C881 C880 1.391 . S
C881 C885 1.376 . S
C882 C880 1.394 . S
C882 C883 1.369 . S
C882 C886 1.531 . S
C883 C882 1.369 . S
C883 C884 1.410 . S
C883 C891 1.503 . S
C884 C883 1.410 . S
C884 C885 1.392 . S
C884 C887 1.511 . S
C885 C881 1.376 . S
C885 C884 1.392 . S
C885 H897 0.929 . S
C886 C882 1.531 . S
C886 H898 0.960 . S
C886 H899 0.962 . S
C886 H900 0.960 . S
C887 C884 1.511 . S
C887 H901 0.961 . S
C887 H902 0.961 . S
C887 H903 0.961 . S
C888 C889 1.370 . S
C888 C890 1.363 . S
C888 H904 0.931 . S
C889 C888 1.370 . S
C889 C893 1.408 . S
C890 C888 1.363 . S
C890 C891 1.370 . S
C890 C894 1.524 . S
C891 C883 1.503 . S
C891 C890 1.370 . S
C891 C892 1.403 . S
C892 C891 1.403 . S
C892 C893 1.404 . S
C892 C895 1.539 . S
C893 C889 1.408 . S
C893 C892 1.404 . S
C893 H905 0.930 . S
C894 C890 1.524 . S
C894 H906 0.956 . S
C894 H907 0.961 . S
C894 H908 0.961 . S
C895 C892 1.539 . S
C895 H909 0.958 . S
C895 H910 0.961 . S
C895 H911 0.960 . S
H896 C880 0.931 . S
H897 C885 0.929 . S
H898 C886 0.960 . S
H899 C886 0.962 . S
H900 C886 0.960 . S
H901 C887 0.961 . S
H902 C887 0.961 . S
H903 C887 0.961 . S
H904 C888 0.931 . S
H905 C893 0.930 . S
H906 C894 0.956 . S
H907 C894 0.961 . S
H908 C894 0.961 . S
H909 C895 0.958 . S
H910 C895 0.961 . S
H911 C895 0.960 . S
C912 C913 1.391 . S
C912 C914 1.394 . S
C912 H928 0.931 . S
C913 C912 1.391 . S
C913 C917 1.376 . S
C914 C912 1.394 . S
C914 C915 1.369 . S
C914 C918 1.531 . S
C915 C914 1.369 . S
C915 C916 1.410 . S
C915 C923 1.503 . S
C916 C915 1.410 . S
C916 C917 1.392 . S
C916 C919 1.511 . S
C917 C913 1.376 . S
C917 C916 1.392 . S
C917 H929 0.929 . S
C918 C914 1.531 . S
C918 H930 0.960 . S
C918 H931 0.962 . S
C918 H932 0.960 . S
C919 C916 1.511 . S
C919 H933 0.961 . S
C919 H934 0.961 . S
C919 H935 0.961 . S
C920 C921 1.370 . S
C920 C922 1.363 . S
C920 H936 0.931 . S
C921 C920 1.370 . S
C921 C925 1.408 . S
C922 C920 1.363 . S
C922 C923 1.370 . S
C922 C926 1.524 . S
C923 C915 1.503 . S
C923 C922 1.370 . S
C923 C924 1.403 . S
C924 C923 1.403 . S
C924 C925 1.404 . S
C924 C927 1.539 . S
C925 C921 1.408 . S
C925 C924 1.404 . S
C925 H937 0.930 . S
C926 C922 1.524 . S
C926 H938 0.956 . S
C926 H939 0.961 . S
C926 H940 0.961 . S
C927 C924 1.539 . S
C927 H941 0.958 . S
C927 H942 0.961 . S
C927 H943 0.960 . S
H928 C912 0.931 . S
H929 C917 0.929 . S
H930 C918 0.960 . S
H931 C918 0.962 . S
H932 C918 0.960 . S
H933 C919 0.961 . S
H934 C919 0.961 . S
H935 C919 0.961 . S
H936 C920 0.931 . S
H937 C925 0.930 . S
H938 C926 0.956 . S
H939 C926 0.961 . S
H940 C926 0.961 . S
H941 C927 0.958 . S
H942 C927 0.961 . S
H943 C927 0.960 . S
C944 C945 1.391 . S
C944 C946 1.394 . S
C944 H960 0.931 . S
C945 C944 1.391 . S
C945 C949 1.376 . S
C946 C944 1.394 . S
C946 C947 1.369 . S
C946 C950 1.531 . S
C947 C946 1.369 . S
C947 C948 1.410 . S
C947 C955 1.503 . S
C948 C947 1.410 . S
C948 C949 1.392 . S
C948 C951 1.511 . S
C949 C945 1.376 . S
C949 C948 1.392 . S
C949 H961 0.929 . S
C950 C946 1.531 . S
C950 H962 0.960 . S
C950 H963 0.962 . S
C950 H964 0.960 . S
C951 C948 1.511 . S
C951 H965 0.961 . S
C951 H966 0.961 . S
C951 H967 0.961 . S
C952 C953 1.370 . S
C952 C954 1.363 . S
C952 H968 0.931 . S
C953 C952 1.370 . S
C953 C957 1.408 . S
C954 C952 1.363 . S
C954 C955 1.370 . S
C954 C958 1.524 . S
C955 C947 1.503 . S
C955 C954 1.370 . S
C955 C956 1.403 . S
C956 C955 1.403 . S
C956 C957 1.404 . S
C956 C959 1.539 . S
C957 C953 1.408 . S
C957 C956 1.404 . S
C957 H969 0.930 . S
C958 C954 1.524 . S
C958 H970 0.956 . S
C958 H971 0.961 . S
C958 H972 0.961 . S
C959 C956 1.539 . S
C959 H973 0.958 . S
C959 H974 0.961 . S
C959 H975 0.960 . S
H960 C944 0.931 . S
H961 C949 0.929 . S
H962 C950 0.960 . S
H963 C950 0.962 . S
H964 C950 0.960 . S
H965 C951 0.961 . S
H966 C951 0.961 . S
H967 C951 0.961 . S
H968 C952 0.931 . S
H969 C957 0.930 . S
H970 C958 0.956 . S
H971 C958 0.961 . S
H972 C958 0.961 . S
H973 C959 0.958 . S
H974 C959 0.961 . S
H975 C959 0.960 . S
C976 C977 1.391 . S
C976 C978 1.394 . S
C976 H992 0.931 . S
C977 C976 1.391 . S
C977 C981 1.376 . S
C978 C976 1.394 . S
C978 C979 1.369 . S
C978 C982 1.531 . S
C979 C978 1.369 . S
C979 C980 1.410 . S
C979 C987 1.503 . S
C980 C979 1.410 . S
C980 C981 1.392 . S
C980 C983 1.511 . S
C981 C977 1.376 . S
C981 C980 1.392 . S
C981 H993 0.929 . S
C982 C978 1.531 . S
C982 H994 0.960 . S
C982 H995 0.962 . S
C982 H996 0.960 . S
C983 C980 1.511 . S
C983 H997 0.961 . S
C983 H998 0.961 . S
C983 H999 0.961 . S
C984 C985 1.370 . S
C984 C986 1.363 . S
C984 H1000 0.931 . S
C985 C984 1.370 . S
C985 C989 1.408 . S
C986 C984 1.363 . S
C986 C987 1.370 . S
C986 C990 1.524 . S
C987 C979 1.503 . S
C987 C986 1.370 . S
C987 C988 1.403 . S
C988 C987 1.403 . S
C988 C989 1.404 . S
C988 C991 1.539 . S
C989 C985 1.408 . S
C989 C988 1.404 . S
C989 H1001 0.930 . S
C990 C986 1.524 . S
C990 H1002 0.956 . S
C990 H1003 0.961 . S
C990 H1004 0.961 . S
C991 C988 1.539 . S
C991 H1005 0.958 . S
C991 H1006 0.961 . S
C991 H1007 0.960 . S
H992 C976 0.931 . S
H993 C981 0.929 . S
H994 C982 0.960 . S
H995 C982 0.962 . S
H996 C982 0.960 . S
H997 C983 0.961 . S
H998 C983 0.961 . S
H999 C983 0.961 . S
H1000 C984 0.931 . S
H1001 C989 0.930 . S
H1002 C990 0.956 . S
H1003 C990 0.961 . S
H1004 C990 0.961 . S
H1005 C991 0.958 . S
H1006 C991 0.961 . S
H1007 C991 0.960 . S
C1008 C1009 1.391 . S
C1008 C1010 1.394 . S
C1008 H1024 0.931 . S
C1009 C1008 1.391 . S
C1009 C1013 1.376 . S
C1010 C1008 1.394 . S
C1010 C1011 1.369 . S
C1010 C1014 1.531 . S
C1011 C1010 1.369 . S
C1011 C1012 1.410 . S
C1011 C1019 1.503 . S
C1012 C1011 1.410 . S
C1012 C1013 1.392 . S
C1012 C1015 1.511 . S
C1013 C1009 1.376 . S
C1013 C1012 1.392 . S
C1013 H1025 0.929 . S
C1014 C1010 1.531 . S
C1014 H1026 0.960 . S
C1014 H1027 0.962 . S
C1014 H1028 0.960 . S
C1015 C1012 1.511 . S
C1015 H1029 0.961 . S
C1015 H1030 0.961 . S
C1015 H1031 0.961 . S
C1016 C1017 1.370 . S
C1016 C1018 1.363 . S
C1016 H1032 0.931 . S
C1017 C1016 1.370 . S
C1017 C1021 1.408 . S
C1018 C1016 1.363 . S
C1018 C1019 1.370 . S
C1018 C1022 1.524 . S
C1019 C1011 1.503 . S
C1019 C1018 1.370 . S
C1019 C1020 1.403 . S
C1020 C1019 1.403 . S
C1020 C1021 1.404 . S
C1020 C1023 1.539 . S
C1021 C1017 1.408 . S
C1021 C1020 1.404 . S
C1021 H1033 0.930 . S
C1022 C1018 1.524 . S
C1022 H1034 0.956 . S
C1022 H1035 0.961 . S
C1022 H1036 0.961 . S
C1023 C1020 1.539 . S
C1023 H1037 0.958 . S
C1023 H1038 0.961 . S
C1023 H1039 0.960 . S
H1024 C1008 0.931 . S
H1025 C1013 0.929 . S
H1026 C1014 0.960 . S
H1027 C1014 0.962 . S
H1028 C1014 0.960 . S
H1029 C1015 0.961 . S
H1030 C1015 0.961 . S
H1031 C1015 0.961 . S
H1032 C1016 0.931 . S
H1033 C1021 0.930 . S
H1034 C1022 0.956 . S
H1035 C1022 0.961 . S
H1036 C1022 0.961 . S
H1037 C1023 0.958 . S
H1038 C1023 0.961 . S
H1039 C1023 0.960 . S
C1040 C1041 1.391 . S
C1040 C1042 1.394 . S
C1040 H1056 0.931 . S
C1041 C1040 1.391 . S
C1041 C1045 1.376 . S
C1042 C1040 1.394 . S
C1042 C1043 1.369 . S
C1042 C1046 1.531 . S
C1043 C1042 1.369 . S
C1043 C1044 1.410 . S
C1043 C1051 1.503 1_554 S
C1044 C1043 1.410 . S
C1044 C1045 1.392 . S
C1044 C1047 1.511 . S
C1045 C1041 1.376 . S
C1045 C1044 1.392 . S
C1045 H1057 0.929 . S
C1046 C1042 1.531 . S
C1046 H1058 0.960 1_554 S
C1046 H1059 0.962 . S
C1046 H1060 0.960 . S
C1047 C1044 1.511 . S
C1047 H1061 0.961 . S
C1047 H1062 0.961 1_554 S
C1047 H1063 0.961 . S
C1048 C1049 1.370 . S
C1048 C1050 1.363 . S
C1048 H1064 0.931 . S
C1049 C1048 1.370 . S
C1049 C1053 1.408 . S
C1050 C1048 1.363 . S
C1050 C1051 1.370 . S
C1050 C1054 1.524 . S
C1051 C1043 1.503 1_556 S
C1051 C1050 1.370 . S
C1051 C1052 1.403 . S
C1052 C1051 1.403 . S
C1052 C1053 1.404 . S
C1052 C1055 1.539 . S
C1053 C1049 1.408 . S
C1053 C1052 1.404 . S
C1053 H1065 0.930 . S
C1054 C1050 1.524 . S
C1054 H1066 0.956 1_556 S
C1054 H1067 0.961 1_556 S
C1054 H1068 0.961 . S
C1055 C1052 1.539 . S
C1055 H1069 0.958 . S
C1055 H1070 0.961 . S
C1055 H1071 0.960 . S
H1056 C1040 0.931 . S
H1057 C1045 0.929 . S
H1058 C1046 0.960 1_556 S
H1059 C1046 0.962 . S
H1060 C1046 0.960 . S
H1061 C1047 0.961 . S
H1062 C1047 0.961 1_556 S
H1063 C1047 0.961 . S
H1064 C1048 0.931 . S
H1065 C1053 0.930 . S
H1066 C1054 0.956 1_554 S
H1067 C1054 0.961 1_554 S
H1068 C1054 0.961 . S
H1069 C1055 0.958 . S
H1070 C1055 0.961 . S
H1071 C1055 0.960 . S
C1072 C1073 1.391 . S
C1072 C1074 1.394 . S
C1072 H1088 0.931 . S
C1073 C1072 1.391 . S
C1073 C1077 1.376 . S
C1074 C1072 1.394 . S
C1074 C1075 1.369 . S
C1074 C1078 1.531 . S
C1075 C1074 1.369 . S
C1075 C1076 1.410 . S
C1075 C1083 1.503 1_556 S
C1076 C1075 1.410 . S
C1076 C1077 1.392 . S
C1076 C1079 1.511 . S
C1077 C1073 1.376 . S
C1077 C1076 1.392 . S
C1077 H1089 0.929 . S
C1078 C1074 1.531 . S
C1078 H1090 0.932 1_556 S
C1078 H1091 0.962 . S
C1078 H1092 0.960 . S
C1079 C1076 1.511 . S
C1079 H1093 0.961 . S
C1079 H1094 0.961 1_556 S
C1079 H1095 0.961 . S
C1080 C1081 1.370 . S
C1080 C1082 1.363 . S
C1080 H1096 0.931 . S
C1081 C1080 1.370 . S
C1081 C1085 1.408 . S
C1082 C1080 1.363 . S
C1082 C1083 1.370 . S
C1082 C1086 1.524 . S
C1083 C1075 1.503 1_554 S
C1083 C1082 1.370 . S
C1083 C1084 1.403 . S
C1084 C1083 1.403 . S
C1084 C1085 1.404 . S
C1084 C1087 1.539 . S
C1085 C1081 1.408 . S
C1085 C1084 1.404 . S
C1085 H1097 0.930 . S
C1086 C1082 1.524 . S
C1086 H1098 0.956 1_554 S
C1086 H1099 0.961 1_554 S
C1086 H1100 0.961 . S
C1087 C1084 1.539 . S
C1087 H1101 0.958 . S
C1087 H1102 0.961 . S
C1087 H1103 0.960 . S
H1088 C1072 0.931 . S
H1089 C1077 0.929 . S
H1090 C1078 0.932 1_554 S
H1091 C1078 0.962 . S
H1092 C1078 0.960 . S
H1093 C1079 0.961 . S
H1094 C1079 0.961 1_554 S
H1095 C1079 0.961 . S
H1096 C1080 0.931 . S
H1097 C1085 0.930 . S
H1098 C1086 0.956 1_556 S
H1099 C1086 0.961 1_556 S
H1100 C1086 0.961 . S
H1101 C1087 0.958 . S
H1102 C1087 0.961 . S
H1103 C1087 0.960 . S
C1104 C1105 1.391 . S
C1104 C1106 1.394 . S
C1104 H1120 0.931 . S
C1105 C1104 1.391 . S
C1105 C1109 1.376 . S
C1106 C1104 1.394 . S
C1106 C1107 1.369 . S
C1106 C1110 1.531 . S
C1107 C1106 1.369 . S
C1107 C1108 1.410 . S
C1107 C1115 1.503 1_556 S
C1108 C1107 1.410 . S
C1108 C1109 1.392 . S
C1108 C1111 1.511 . S
C1109 C1105 1.376 . S
C1109 C1108 1.392 . S
C1109 H1121 0.929 . S
C1110 C1106 1.531 . S
C1110 H1122 0.960 . S
C1110 H1123 0.962 . S
C1110 H1124 0.960 . S
C1111 C1108 1.511 . S
C1111 H1125 0.961 . S
C1111 H1126 0.961 1_556 S
C1111 H1127 0.961 . S
C1112 C1113 1.370 . S
C1112 C1114 1.363 . S
C1112 H1128 0.931 . S
C1113 C1112 1.370 . S
C1113 C1117 1.408 . S
C1114 C1112 1.363 . S
C1114 C1115 1.370 . S
C1114 C1118 1.524 . S
C1115 C1107 1.503 1_554 S
C1115 C1114 1.370 . S
C1115 C1116 1.403 . S
C1116 C1115 1.403 . S
C1116 C1117 1.404 . S
C1116 C1119 1.539 . S
C1117 C1113 1.408 . S
C1117 C1116 1.404 . S
C1117 H1129 0.930 . S
C1118 C1114 1.524 . S
C1118 H1130 0.956 . S
C1118 H1131 0.961 . S
C1118 H1132 0.961 . S
C1119 C1116 1.539 . S
C1119 H1133 0.958 . S
C1119 H1134 0.961 . S
C1119 H1135 0.960 1_554 S
H1120 C1104 0.931 . S
H1121 C1109 0.929 . S
H1122 C1110 0.960 . S
H1123 C1110 0.962 . S
H1124 C1110 0.960 . S
H1125 C1111 0.961 . S
H1126 C1111 0.961 1_554 S
H1127 C1111 0.961 . S
H1128 C1112 0.931 . S
H1129 C1117 0.930 . S
H1130 C1118 0.956 . S
H1131 C1118 0.961 . S
H1132 C1118 0.961 . S
H1133 C1119 0.958 . S
H1134 C1119 0.961 . S
H1135 C1119 0.960 1_556 S
C1136 C1137 1.391 . S
C1136 C1138 1.394 . S
C1136 H1152 0.931 . S
C1137 C1136 1.391 . S
C1137 C1141 1.376 . S
C1138 C1136 1.394 . S
C1138 C1139 1.369 . S
C1138 C1142 1.531 . S
C1139 C1138 1.369 . S
C1139 C1140 1.410 . S
C1139 C1147 1.503 1_556 S
C1140 C1139 1.410 . S
C1140 C1141 1.392 . S
C1140 C1143 1.511 . S
C1141 C1137 1.376 . S
C1141 C1140 1.392 . S
C1141 H1153 0.929 . S
C1142 C1138 1.531 . S
C1142 H1154 0.960 1_556 S
C1142 H1155 0.962 . S
C1142 H1156 0.960 . S
C1143 C1140 1.511 . S
C1143 H1157 0.961 . S
C1143 H1158 0.936 1_556 S
C1143 H1159 0.961 . S
C1144 C1145 1.370 . S
C1144 C1146 1.363 . S
C1144 H1160 0.931 . S
C1145 C1144 1.370 . S
C1145 C1149 1.408 . S
C1146 C1144 1.363 . S
C1146 C1147 1.370 . S
C1146 C1150 1.524 . S
C1147 C1139 1.503 1_554 S
C1147 C1146 1.370 . S
C1147 C1148 1.403 . S
C1148 C1147 1.403 . S
C1148 C1149 1.404 . S
C1148 C1151 1.539 . S
C1149 C1145 1.408 . S
C1149 C1148 1.404 . S
C1149 H1161 0.930 . S
C1150 C1146 1.524 . S
C1150 H1162 0.956 . S
C1150 H1163 0.961 . S
C1150 H1164 0.961 . S
C1151 C1148 1.539 . S
C1151 H1165 0.958 . S
C1151 H1166 0.961 . S
C1151 H1167 0.960 1_554 S
H1152 C1136 0.931 . S
H1153 C1141 0.929 . S
H1154 C1142 0.960 1_554 S
H1155 C1142 0.962 . S
H1156 C1142 0.960 . S
H1157 C1143 0.961 . S
H1158 C1143 0.936 1_554 S
H1159 C1143 0.961 . S
H1160 C1144 0.931 . S
H1161 C1149 0.930 . S
H1162 C1150 0.956 . S
H1163 C1150 0.961 . S
H1164 C1150 0.961 . S
H1165 C1151 0.958 . S
H1166 C1151 0.961 . S
H1167 C1151 0.960 1_556 S
C1168 C1169 1.391 . S
C1168 C1170 1.394 . S
C1168 H1184 0.931 . S
C1169 C1168 1.391 . S
C1169 C1173 1.376 . S
C1170 C1168 1.394 . S
C1170 C1171 1.369 . S
C1170 C1174 1.531 . S
C1171 C1170 1.369 . S
C1171 C1172 1.410 . S
C1171 C1179 1.503 . S
C1172 C1171 1.410 . S
C1172 C1173 1.392 . S
C1172 C1175 1.511 . S
C1173 C1169 1.376 . S
C1173 C1172 1.392 . S
C1173 H1185 0.929 . S
C1174 C1170 1.531 . S
C1174 H1186 0.960 . S
C1174 H1187 0.962 . S
C1174 H1188 0.960 . S
C1175 C1172 1.511 . S
C1175 H1189 0.961 . S
C1175 H1190 0.961 . S
C1175 H1191 0.961 . S
C1176 C1177 1.370 . S
C1176 C1178 1.363 . S
C1176 H1192 0.931 . S
C1177 C1176 1.370 . S
C1177 C1181 1.408 . S
C1178 C1176 1.363 . S
C1178 C1179 1.370 . S
C1178 C1182 1.524 . S
C1179 C1171 1.503 . S
C1179 C1178 1.370 . S
C1179 C1180 1.403 . S
C1180 C1179 1.403 . S
C1180 C1181 1.404 . S
C1180 C1183 1.539 . S
C1181 C1177 1.408 . S
C1181 C1180 1.404 . S
C1181 H1193 0.930 . S
C1182 C1178 1.524 . S
C1182 H1194 0.956 . S
C1182 H1195 0.961 . S
C1182 H1196 0.961 . S
C1183 C1180 1.539 . S
C1183 H1197 0.958 . S
C1183 H1198 0.961 . S
C1183 H1199 0.960 . S
H1184 C1168 0.931 . S
H1185 C1173 0.929 . S
H1186 C1174 0.960 . S
H1187 C1174 0.962 . S
H1188 C1174 0.960 . S
H1189 C1175 0.961 . S
H1190 C1175 0.961 . S
H1191 C1175 0.961 . S
H1192 C1176 0.931 . S
H1193 C1181 0.930 . S
H1194 C1182 0.956 . S
H1195 C1182 0.961 . S
H1196 C1182 0.961 . S
H1197 C1183 0.958 . S
H1198 C1183 0.961 . S
H1199 C1183 0.960 . S
C1200 C1201 1.391 . S
C1200 C1202 1.394 . S
C1200 H1216 0.931 . S
C1201 C1200 1.391 . S
C1201 C1205 1.376 . S
C1202 C1200 1.394 . S
C1202 C1203 1.369 . S
C1202 C1206 1.531 . S
C1203 C1202 1.369 . S
C1203 C1204 1.410 . S
C1203 C1211 1.503 . S
C1204 C1203 1.410 . S
C1204 C1205 1.392 . S
C1204 C1207 1.511 . S
C1205 C1201 1.376 . S
C1205 C1204 1.392 . S
C1205 H1217 0.929 . S
C1206 C1202 1.531 . S
C1206 H1218 0.960 . S
C1206 H1219 0.962 . S
C1206 H1220 0.960 . S
C1207 C1204 1.511 . S
C1207 H1221 0.961 . S
C1207 H1222 0.961 . S
C1207 H1223 0.961 . S
C1208 C1209 1.370 . S
C1208 C1210 1.363 . S
C1208 H1224 0.931 . S
C1209 C1208 1.370 . S
C1209 C1213 1.408 . S
C1210 C1208 1.363 . S
C1210 C1211 1.370 . S
C1210 C1214 1.524 . S
C1211 C1203 1.503 . S
C1211 C1210 1.370 . S
C1211 C1212 1.403 . S
C1212 C1211 1.403 . S
C1212 C1213 1.404 . S
C1212 C1215 1.539 . S
C1213 C1209 1.408 . S
C1213 C1212 1.404 . S
C1213 H1225 0.930 . S
C1214 C1210 1.524 . S
C1214 H1226 0.956 . S
C1214 H1227 0.961 . S
C1214 H1228 0.961 . S
C1215 C1212 1.539 . S
C1215 H1229 0.958 . S
C1215 H1230 0.961 . S
C1215 H1231 0.960 . S
H1216 C1200 0.931 . S
H1217 C1205 0.929 . S
H1218 C1206 0.960 . S
H1219 C1206 0.962 . S
H1220 C1206 0.960 . S
H1221 C1207 0.961 . S
H1222 C1207 0.961 . S
H1223 C1207 0.961 . S
H1224 C1208 0.931 . S
H1225 C1213 0.930 . S
H1226 C1214 0.956 . S
H1227 C1214 0.961 . S
H1228 C1214 0.961 . S
H1229 C1215 0.958 . S
H1230 C1215 0.961 . S
H1231 C1215 0.960 . S
C1232 C1233 1.391 . S
C1232 C1234 1.394 . S
C1232 H1248 0.931 . S
C1233 C1232 1.391 . S
C1233 C1237 1.376 . S
C1234 C1232 1.394 . S
C1234 C1235 1.369 . S
C1234 C1238 1.531 . S
C1235 C1234 1.369 . S
C1235 C1236 1.410 . S
C1235 C1243 1.503 . S
C1236 C1235 1.410 . S
C1236 C1237 1.392 . S
C1236 C1239 1.511 . S
C1237 C1233 1.376 . S
C1237 C1236 1.392 . S
C1237 H1249 0.929 . S
C1238 C1234 1.531 . S
C1238 H1250 0.960 . S
C1238 H1251 0.962 . S
C1238 H1252 0.960 . S
C1239 C1236 1.511 . S
C1239 H1253 0.961 . S
C1239 H1254 0.961 . S
C1239 H1255 0.961 . S
C1240 C1241 1.370 . S
C1240 C1242 1.363 . S
C1240 H1256 0.931 . S
C1241 C1240 1.370 . S
C1241 C1245 1.408 . S
C1242 C1240 1.363 . S
C1242 C1243 1.370 . S
C1242 C1246 1.524 . S
C1243 C1235 1.503 . S
C1243 C1242 1.370 . S
C1243 C1244 1.403 . S
C1244 C1243 1.403 . S
C1244 C1245 1.404 . S
C1244 C1247 1.539 . S
C1245 C1241 1.408 . S
C1245 C1244 1.404 . S
C1245 H1257 0.930 . S
C1246 C1242 1.524 . S
C1246 H1258 0.956 . S
C1246 H1259 0.961 . S
C1246 H1260 0.961 . S
C1247 C1244 1.539 . S
C1247 H1261 0.958 . S
C1247 H1262 0.961 . S
C1247 H1263 0.960 . S
H1248 C1232 0.931 . S
H1249 C1237 0.929 . S
H1250 C1238 0.960 . S
H1251 C1238 0.962 . S
H1252 C1238 0.960 . S
H1253 C1239 0.961 . S
H1254 C1239 0.961 . S
H1255 C1239 0.961 . S
H1256 C1240 0.931 . S
H1257 C1245 0.930 . S
H1258 C1246 0.956 . S
H1259 C1246 0.961 . S
H1260 C1246 0.961 . S
H1261 C1247 0.958 . S
H1262 C1247 0.961 . S
H1263 C1247 0.960 . S
C1264 C1265 1.391 . S
C1264 C1266 1.394 . S
C1264 H1280 0.931 . S
C1265 C1264 1.391 . S
C1265 C1269 1.376 . S
C1266 C1264 1.394 . S
C1266 C1267 1.369 . S
C1266 C1270 1.531 . S
C1267 C1266 1.369 . S
C1267 C1268 1.410 . S
C1267 C1275 1.503 . S
C1268 C1267 1.410 . S
C1268 C1269 1.392 . S
C1268 C1271 1.511 . S
C1269 C1265 1.376 . S
C1269 C1268 1.392 . S
C1269 H1281 0.929 . S
C1270 C1266 1.531 . S
C1270 H1282 0.960 . S
C1270 H1283 0.962 . S
C1270 H1284 0.960 . S
C1271 C1268 1.511 . S
C1271 H1285 0.961 . S
C1271 H1286 0.961 . S
C1271 H1287 0.961 . S
C1272 C1273 1.370 . S
C1272 C1274 1.363 . S
C1272 H1288 0.931 . S
C1273 C1272 1.370 . S
C1273 C1277 1.408 . S
C1274 C1272 1.363 . S
C1274 C1275 1.370 . S
C1274 C1278 1.524 . S
C1275 C1267 1.503 . S
C1275 C1274 1.370 . S
C1275 C1276 1.403 . S
C1276 C1275 1.403 . S
C1276 C1277 1.404 . S
C1276 C1279 1.539 . S
C1277 C1273 1.408 . S
C1277 C1276 1.404 . S
C1277 H1289 0.930 . S
C1278 C1274 1.524 . S
C1278 H1290 0.956 . S
C1278 H1291 0.961 . S
C1278 H1292 0.961 . S
C1279 C1276 1.539 . S
C1279 H1293 0.958 . S
C1279 H1294 0.961 . S
C1279 H1295 0.960 . S
H1280 C1264 0.931 . S
H1281 C1269 0.929 . S
H1282 C1270 0.960 . S
H1283 C1270 0.962 . S
H1284 C1270 0.960 . S
H1285 C1271 0.961 . S
H1286 C1271 0.961 . S
H1287 C1271 0.961 . S
H1288 C1272 0.931 . S
H1289 C1277 0.930 . S
H1290 C1278 0.956 . S
H1291 C1278 0.961 . S
H1292 C1278 0.961 . S
H1293 C1279 0.958 . S
H1294 C1279 0.961 . S
H1295 C1279 0.960 . S
C1296 C1297 1.391 . S
C1296 C1298 1.394 . S
C1296 H1312 0.931 . S
C1297 C1296 1.391 . S
C1297 C1301 1.376 . S
C1298 C1296 1.394 . S
C1298 C1299 1.369 . S
C1298 C1302 1.531 . S
C1299 C1298 1.369 . S
C1299 C1300 1.410 . S
C1299 C1307 1.503 . S
C1300 C1299 1.410 . S
C1300 C1301 1.392 . S
C1300 C1303 1.511 . S
C1301 C1297 1.376 . S
C1301 C1300 1.392 . S
C1301 H1313 0.929 . S
C1302 C1298 1.531 . S
C1302 H1314 0.960 . S
C1302 H1315 0.962 . S
C1302 H1316 0.960 . S
C1303 C1300 1.511 . S
C1303 H1317 0.961 . S
C1303 H1318 0.961 . S
C1303 H1319 0.961 . S
C1304 C1305 1.370 . S
C1304 C1306 1.363 . S
C1304 H1320 0.931 . S
C1305 C1304 1.370 . S
C1305 C1309 1.408 . S
C1306 C1304 1.363 . S
C1306 C1307 1.370 . S
C1306 C1310 1.524 . S
C1307 C1299 1.503 . S
C1307 C1306 1.370 . S
C1307 C1308 1.403 . S
C1308 C1307 1.403 . S
C1308 C1309 1.404 . S
C1308 C1311 1.539 . S
C1309 C1305 1.408 . S
C1309 C1308 1.404 . S
C1309 H1321 0.930 . S
C1310 C1306 1.524 . S
C1310 H1322 0.956 . S
C1310 H1323 0.961 . S
C1310 H1324 0.961 . S
C1311 C1308 1.539 . S
C1311 H1325 0.958 . S
C1311 H1326 0.961 . S
C1311 H1327 0.960 . S
H1312 C1296 0.931 . S
H1313 C1301 0.929 . S
H1314 C1302 0.960 . S
H1315 C1302 0.962 . S
H1316 C1302 0.960 . S
H1317 C1303 0.961 . S
H1318 C1303 0.961 . S
H1319 C1303 0.961 . S
H1320 C1304 0.931 . S
H1321 C1309 0.930 . S
H1322 C1310 0.956 . S
H1323 C1310 0.961 . S
H1324 C1310 0.961 . S
H1325 C1311 0.958 . S
H1326 C1311 0.961 . S
H1327 C1311 0.960 . S
C1328 C1329 1.391 . S
C1328 C1330 1.394 . S
C1328 H1344 0.931 . S
C1329 C1328 1.391 . S
C1329 C1333 1.376 . S
C1330 C1328 1.394 . S
C1330 C1331 1.369 . S
C1330 C1334 1.531 . S
C1331 C1330 1.369 . S
C1331 C1332 1.410 . S
C1331 C1339 1.503 . S
C1332 C1331 1.410 . S
C1332 C1333 1.392 . S
C1332 C1335 1.511 . S
C1333 C1329 1.376 . S
C1333 C1332 1.392 . S
C1333 H1345 0.929 . S
C1334 C1330 1.531 . S
C1334 H1346 0.960 . S
C1334 H1347 0.962 . S
C1334 H1348 0.960 . S
C1335 C1332 1.511 . S
C1335 H1349 0.961 . S
C1335 H1350 0.961 . S
C1335 H1351 0.961 . S
C1336 C1337 1.370 . S
C1336 C1338 1.363 . S
C1336 H1352 0.931 . S
C1337 C1336 1.370 . S
C1337 C1341 1.408 . S
C1338 C1336 1.363 . S
C1338 C1339 1.370 . S
C1338 C1342 1.524 . S
C1339 C1331 1.503 . S
C1339 C1338 1.370 . S
C1339 C1340 1.403 . S
C1340 C1339 1.403 . S
C1340 C1341 1.404 . S
C1340 C1343 1.539 . S
C1341 C1337 1.408 . S
C1341 C1340 1.404 . S
C1341 H1353 0.930 . S
C1342 C1338 1.524 . S
C1342 H1354 0.956 . S
C1342 H1355 0.961 . S
C1342 H1356 0.961 . S
C1343 C1340 1.539 . S
C1343 H1357 0.958 . S
C1343 H1358 0.961 . S
C1343 H1359 0.960 . S
H1344 C1328 0.931 . S
H1345 C1333 0.929 . S
H1346 C1334 0.960 . S
H1347 C1334 0.962 . S
H1348 C1334 0.960 . S
H1349 C1335 0.961 . S
H1350 C1335 0.961 . S
H1351 C1335 0.961 . S
H1352 C1336 0.931 . S
H1353 C1341 0.930 . S
H1354 C1342 0.956 . S
H1355 C1342 0.961 . S
H1356 C1342 0.961 . S
H1357 C1343 0.958 . S
H1358 C1343 0.961 . S
H1359 C1343 0.960 . S
C1360 C1361 1.391 . S
C1360 C1362 1.394 . S
C1360 H1376 0.931 . S
C1361 C1360 1.391 . S
C1361 C1365 1.376 . S
C1362 C1360 1.394 . S
C1362 C1363 1.369 . S
C1362 C1366 1.531 . S
C1363 C1362 1.369 . S
C1363 C1364 1.410 . S
C1363 C1371 1.503 . S
C1364 C1363 1.410 . S
C1364 C1365 1.392 . S
C1364 C1367 1.511 . S
C1365 C1361 1.376 . S
C1365 C1364 1.392 . S
C1365 H1377 0.929 . S
C1366 C1362 1.531 . S
C1366 H1378 0.960 . S
C1366 H1379 0.962 . S
C1366 H1380 0.960 . S
C1367 C1364 1.511 . S
C1367 H1381 0.961 . S
C1367 H1382 0.961 . S
C1367 H1383 0.961 . S
C1368 C1369 1.370 . S
C1368 C1370 1.363 . S
C1368 H1384 0.931 . S
C1369 C1368 1.370 . S
C1369 C1373 1.408 . S
C1370 C1368 1.363 . S
C1370 C1371 1.370 . S
C1370 C1374 1.524 . S
C1371 C1363 1.503 . S
C1371 C1370 1.370 . S
C1371 C1372 1.403 . S
C1372 C1371 1.403 . S
C1372 C1373 1.404 . S
C1372 C1375 1.539 . S
C1373 C1369 1.408 . S
C1373 C1372 1.404 . S
C1373 H1385 0.930 . S
C1374 C1370 1.524 . S
C1374 H1386 0.956 . S
C1374 H1387 0.961 . S
C1374 H1388 0.961 . S
C1375 C1372 1.539 . S
C1375 H1389 0.958 . S
C1375 H1390 0.961 . S
C1375 H1391 0.960 . S
H1376 C1360 0.931 . S
H1377 C1365 0.929 . S
H1378 C1366 0.960 . S
H1379 C1366 0.962 . S
H1380 C1366 0.960 . S
H1381 C1367 0.961 . S
H1382 C1367 0.961 . S
H1383 C1367 0.961 . S
H1384 C1368 0.931 . S
H1385 C1373 0.930 . S
H1386 C1374 0.956 . S
H1387 C1374 0.961 . S
H1388 C1374 0.961 . S
H1389 C1375 0.958 . S
H1390 C1375 0.961 . S
H1391 C1375 0.960 . S
C1392 C1393 1.391 . S
C1392 C1394 1.394 . S
C1392 H1408 0.931 . S
C1393 C1392 1.391 . S
C1393 C1397 1.376 . S
C1394 C1392 1.394 . S
C1394 C1395 1.369 . S
C1394 C1398 1.531 . S
C1395 C1394 1.369 . S
C1395 C1396 1.410 . S
C1395 C1403 1.503 . S
C1396 C1395 1.410 . S
C1396 C1397 1.392 . S
C1396 C1399 1.511 . S
C1397 C1393 1.376 . S
C1397 C1396 1.392 . S
C1397 H1409 0.929 . S
C1398 C1394 1.531 . S
C1398 H1410 0.960 . S
C1398 H1411 0.962 . S
C1398 H1412 0.960 . S
C1399 C1396 1.511 . S
C1399 H1413 0.961 . S
C1399 H1414 0.961 . S
C1399 H1415 0.961 . S
C1400 C1401 1.370 . S
C1400 C1402 1.363 . S
C1400 H1416 0.931 . S
C1401 C1400 1.370 . S
C1401 C1405 1.408 . S
C1402 C1400 1.363 . S
C1402 C1403 1.370 . S
C1402 C1406 1.524 . S
C1403 C1395 1.503 . S
C1403 C1402 1.370 . S
C1403 C1404 1.403 . S
C1404 C1403 1.403 . S
C1404 C1405 1.404 . S
C1404 C1407 1.539 . S
C1405 C1401 1.408 . S
C1405 C1404 1.404 . S
C1405 H1417 0.930 . S
C1406 C1402 1.524 . S
C1406 H1418 0.956 . S
C1406 H1419 0.961 . S
C1406 H1420 0.961 . S
C1407 C1404 1.539 . S
C1407 H1421 0.958 . S
C1407 H1422 0.961 . S
C1407 H1423 0.960 . S
H1408 C1392 0.931 . S
H1409 C1397 0.929 . S
H1410 C1398 0.960 . S
H1411 C1398 0.962 . S
H1412 C1398 0.960 . S
H1413 C1399 0.961 . S
H1414 C1399 0.961 . S
H1415 C1399 0.961 . S
H1416 C1400 0.931 . S
H1417 C1405 0.930 . S
H1418 C1406 0.956 . S
H1419 C1406 0.961 . S
H1420 C1406 0.961 . S
H1421 C1407 0.958 . S
H1422 C1407 0.961 . S
H1423 C1407 0.960 . S
C1424 C1425 1.391 . S
C1424 C1426 1.394 . S
C1424 H1440 0.931 . S
C1425 C1424 1.391 . S
C1425 C1429 1.376 . S
C1426 C1424 1.394 . S
C1426 C1427 1.369 . S
C1426 C1430 1.531 . S
C1427 C1426 1.369 . S
C1427 C1428 1.410 . S
C1427 C1435 1.503 . S
C1428 C1427 1.410 . S
C1428 C1429 1.392 . S
C1428 C1431 1.511 . S
C1429 C1425 1.376 . S
C1429 C1428 1.392 . S
C1429 H1441 0.929 . S
C1430 C1426 1.531 . S
C1430 H1442 0.960 . S
C1430 H1443 0.962 . S
C1430 H1444 0.960 . S
C1431 C1428 1.511 . S
C1431 H1445 0.961 . S
C1431 H1446 0.961 . S
C1431 H1447 0.961 . S
C1432 C1433 1.370 . S
C1432 C1434 1.363 . S
C1432 H1448 0.931 . S
C1433 C1432 1.370 . S
C1433 C1437 1.408 . S
C1434 C1432 1.363 . S
C1434 C1435 1.370 . S
C1434 C1438 1.524 . S
C1435 C1427 1.503 . S
C1435 C1434 1.370 . S
C1435 C1436 1.403 . S
C1436 C1435 1.403 . S
C1436 C1437 1.404 . S
C1436 C1439 1.539 . S
C1437 C1433 1.408 . S
C1437 C1436 1.404 . S
C1437 H1449 0.930 . S
C1438 C1434 1.524 . S
C1438 H1450 0.956 . S
C1438 H1451 0.961 . S
C1438 H1452 0.961 . S
C1439 C1436 1.539 . S
C1439 H1453 0.958 . S
C1439 H1454 0.961 . S
C1439 H1455 0.960 . S
H1440 C1424 0.931 . S
H1441 C1429 0.929 . S
H1442 C1430 0.960 . S
H1443 C1430 0.962 . S
H1444 C1430 0.960 . S
H1445 C1431 0.961 . S
H1446 C1431 0.961 . S
H1447 C1431 0.961 . S
H1448 C1432 0.931 . S
H1449 C1437 0.930 . S
H1450 C1438 0.956 . S
H1451 C1438 0.961 . S
H1452 C1438 0.961 . S
H1453 C1439 0.958 . S
H1454 C1439 0.961 . S
H1455 C1439 0.960 . S
C1456 C1457 1.391 . S
C1456 C1458 1.394 . S
C1456 H1472 0.931 . S
C1457 C1456 1.391 . S
C1457 C1461 1.376 . S
C1458 C1456 1.394 . S
C1458 C1459 1.369 . S
C1458 C1462 1.531 . S
C1459 C1458 1.369 . S
C1459 C1460 1.410 . S
C1459 C1467 1.503 . S
C1460 C1459 1.410 . S
C1460 C1461 1.392 . S
C1460 C1463 1.511 . S
C1461 C1457 1.376 . S
C1461 C1460 1.392 . S
C1461 H1473 0.929 . S
C1462 C1458 1.531 . S
C1462 H1474 0.960 . S
C1462 H1475 0.962 . S
C1462 H1476 0.960 . S
C1463 C1460 1.511 . S
C1463 H1477 0.961 . S
C1463 H1478 0.961 . S
C1463 H1479 0.961 . S
C1464 C1465 1.370 . S
C1464 C1466 1.363 . S
C1464 H1480 0.931 . S
C1465 C1464 1.370 . S
C1465 C1469 1.408 . S
C1466 C1464 1.363 . S
C1466 C1467 1.370 . S
C1466 C1470 1.524 . S
C1467 C1459 1.503 . S
C1467 C1466 1.370 . S
C1467 C1468 1.403 . S
C1468 C1467 1.403 . S
C1468 C1469 1.404 . S
C1468 C1471 1.539 . S
C1469 C1465 1.408 . S
C1469 C1468 1.404 . S
C1469 H1481 0.930 . S
C1470 C1466 1.524 . S
C1470 H1482 0.956 . S
C1470 H1483 0.961 . S
C1470 H1484 0.961 . S
C1471 C1468 1.539 . S
C1471 H1485 0.958 . S
C1471 H1486 0.961 . S
C1471 H1487 0.960 . S
H1472 C1456 0.931 . S
H1473 C1461 0.929 . S
H1474 C1462 0.960 . S
H1475 C1462 0.962 . S
H1476 C1462 0.960 . S
H1477 C1463 0.961 . S
H1478 C1463 0.961 . S
H1479 C1463 0.961 . S
H1480 C1464 0.931 . S
H1481 C1469 0.930 . S
H1482 C1470 0.956 . S
H1483 C1470 0.961 . S
H1484 C1470 0.961 . S
H1485 C1471 0.958 . S
H1486 C1471 0.961 . S
H1487 C1471 0.960 . S
C1488 C1489 1.391 . S
C1488 C1490 1.394 . S
C1488 H1504 0.931 . S
C1489 C1488 1.391 . S
C1489 C1493 1.376 . S
C1490 C1488 1.394 . S
C1490 C1491 1.369 . S
C1490 C1494 1.531 . S
C1491 C1490 1.369 . S
C1491 C1492 1.410 . S
C1491 C1499 1.503 . S
C1492 C1491 1.410 . S
C1492 C1493 1.392 . S
C1492 C1495 1.511 . S
C1493 C1489 1.376 . S
C1493 C1492 1.392 . S
C1493 H1505 0.929 . S
C1494 C1490 1.531 . S
C1494 H1506 0.960 . S
C1494 H1507 0.962 . S
C1494 H1508 0.960 . S
C1495 C1492 1.511 . S
C1495 H1509 0.961 . S
C1495 H1510 0.961 . S
C1495 H1511 0.961 . S
C1496 C1497 1.370 . S
C1496 C1498 1.363 . S
C1496 H1512 0.931 . S
C1497 C1496 1.370 . S
C1497 C1501 1.408 . S
C1498 C1496 1.363 . S
C1498 C1499 1.370 . S
C1498 C1502 1.524 . S
C1499 C1491 1.503 . S
C1499 C1498 1.370 . S
C1499 C1500 1.403 . S
C1500 C1499 1.403 . S
C1500 C1501 1.404 . S
C1500 C1503 1.539 . S
C1501 C1497 1.408 . S
C1501 C1500 1.404 . S
C1501 H1513 0.930 . S
C1502 C1498 1.524 . S
C1502 H1514 0.956 . S
C1502 H1515 0.961 . S
C1502 H1516 0.961 . S
C1503 C1500 1.539 . S
C1503 H1517 0.958 . S
C1503 H1518 0.961 . S
C1503 H1519 0.960 . S
H1504 C1488 0.931 . S
H1505 C1493 0.929 . S
H1506 C1494 0.960 . S
H1507 C1494 0.962 . S
H1508 C1494 0.960 . S
H1509 C1495 0.961 . S
H1510 C1495 0.961 . S
H1511 C1495 0.961 . S
H1512 C1496 0.931 . S
H1513 C1501 0.930 . S
H1514 C1502 0.956 . S
H1515 C1502 0.961 . S
H1516 C1502 0.961 . S
H1517 C1503 0.958 . S
H1518 C1503 0.961 . S
H1519 C1503 0.960 . S
C1520 C1521 1.391 . S
C1520 C1522 1.394 . S
C1520 H1536 0.931 . S
C1521 C1520 1.391 . S
C1521 C1525 1.376 . S
C1522 C1520 1.394 . S
C1522 C1523 1.369 . S
C1522 C1526 1.531 . S
C1523 C1522 1.369 . S
C1523 C1524 1.410 . S
C1523 C1531 1.503 . S
C1524 C1523 1.410 . S
C1524 C1525 1.392 . S
C1524 C1527 1.511 . S
C1525 C1521 1.376 . S
C1525 C1524 1.392 . S
C1525 H1537 0.929 . S
C1526 C1522 1.531 . S
C1526 H1538 0.960 . S
C1526 H1539 0.962 . S
C1526 H1540 0.960 . S
C1527 C1524 1.511 . S
C1527 H1541 0.961 . S
C1527 H1542 0.961 . S
C1527 H1543 0.961 . S
C1528 C1529 1.370 . S
C1528 C1530 1.363 . S
C1528 H1544 0.931 . S
C1529 C1528 1.370 . S
C1529 C1533 1.408 . S
C1530 C1528 1.363 . S
C1530 C1531 1.370 . S
C1530 C1534 1.524 . S
C1531 C1523 1.503 . S
C1531 C1530 1.370 . S
C1531 C1532 1.403 . S
C1532 C1531 1.403 . S
C1532 C1533 1.404 . S
C1532 C1535 1.539 . S
C1533 C1529 1.408 . S
C1533 C1532 1.404 . S
C1533 H1545 0.930 . S
C1534 C1530 1.524 . S
C1534 H1546 0.956 . S
C1534 H1547 0.961 . S
C1534 H1548 0.961 . S
C1535 C1532 1.539 . S
C1535 H1549 0.958 . S
C1535 H1550 0.961 . S
C1535 H1551 0.960 . S
H1536 C1520 0.931 . S
H1537 C1525 0.929 . S
H1538 C1526 0.960 . S
H1539 C1526 0.962 . S
H1540 C1526 0.960 . S
H1541 C1527 0.961 . S
H1542 C1527 0.961 . S
H1543 C1527 0.961 . S
H1544 C1528 0.931 . S
H1545 C1533 0.930 . S
H1546 C1534 0.956 . S
H1547 C1534 0.961 . S
H1548 C1534 0.961 . S
H1549 C1535 0.958 . S
H1550 C1535 0.961 . S
H1551 C1535 0.960 . S
C1552 C1553 1.391 . S
C1552 C1554 1.394 . S
C1552 H1568 0.931 . S
C1553 C1552 1.391 . S
C1553 C1557 1.376 . S
C1554 C1552 1.394 . S
C1554 C1555 1.369 . S
C1554 C1558 1.531 . S
C1555 C1554 1.369 . S
C1555 C1556 1.410 . S
C1555 C1563 1.503 1_545 S
C1556 C1555 1.410 . S
C1556 C1557 1.392 . S
C1556 C1559 1.511 1_545 S
C1557 C1553 1.376 . S
C1557 C1556 1.392 . S
C1557 H1569 0.929 . S
C1558 C1554 1.531 . S
C1558 H1570 0.960 . S
C1558 H1571 0.962 . S
C1558 H1572 0.960 . S
C1559 C1556 1.511 1_565 S
C1559 H1573 0.961 . S
C1559 H1574 0.961 . S
C1559 H1575 0.961 . S
C1560 C1561 1.370 . S
C1560 C1562 1.363 . S
C1560 H1576 0.931 . S
C1561 C1560 1.370 . S
C1561 C1565 1.408 . S
C1562 C1560 1.363 . S
C1562 C1563 1.370 . S
C1562 C1566 1.524 . S
C1563 C1555 1.503 1_565 S
C1563 C1562 1.370 . S
C1563 C1564 1.403 . S
C1564 C1563 1.403 . S
C1564 C1565 1.404 . S
C1564 C1567 1.539 1_565 S
C1565 C1561 1.408 . S
C1565 C1564 1.404 . S
C1565 H1577 0.930 . S
C1566 C1562 1.524 . S
C1566 H1578 0.956 . S
C1566 H1579 0.961 . S
C1566 H1580 0.961 . S
C1567 C1564 1.539 1_545 S
C1567 H1581 0.958 . S
C1567 H1582 0.961 . S
C1567 H1583 0.960 . S
H1568 C1552 0.931 . S
H1569 C1557 0.929 . S
H1570 C1558 0.960 . S
H1571 C1558 0.962 . S
H1572 C1558 0.960 . S
H1573 C1559 0.961 . S
H1574 C1559 0.961 . S
H1575 C1559 0.961 . S
H1576 C1560 0.931 . S
H1577 C1565 0.930 . S
H1578 C1566 0.956 . S
H1579 C1566 0.961 . S
H1580 C1566 0.961 . S
H1581 C1567 0.958 . S
H1582 C1567 0.961 . S
H1583 C1567 0.960 . S
C1584 C1585 1.391 . S
C1584 C1586 1.394 . S
C1584 H1600 0.931 . S
C1585 C1584 1.391 . S
C1585 C1589 1.376 . S
C1586 C1584 1.394 . S
C1586 C1587 1.369 . S
C1586 C1590 1.531 1_655 S
C1587 C1586 1.369 . S
C1587 C1588 1.410 . S
C1587 C1595 1.503 1_655 S
C1588 C1587 1.410 . S
C1588 C1589 1.392 . S
C1588 C1591 1.511 . S
C1589 C1585 1.376 . S
C1589 C1588 1.392 . S
C1589 H1601 0.929 . S
C1590 C1586 1.531 1_455 S
C1590 H1602 0.960 . S
C1590 H1603 0.962 . S
C1590 H1604 0.960 . S
C1591 C1588 1.511 . S
C1591 H1605 0.961 . S
C1591 H1606 0.961 . S
C1591 H1607 0.961 . S
C1592 C1593 1.370 . S
C1592 C1594 1.363 . S
C1592 H1608 0.931 . S
C1593 C1592 1.370 . S
C1593 C1597 1.408 . S
C1594 C1592 1.363 . S
C1594 C1595 1.370 . S
C1594 C1598 1.524 . S
C1595 C1587 1.503 1_455 S
C1595 C1594 1.370 . S
C1595 C1596 1.403 . S
C1596 C1595 1.403 . S
C1596 C1597 1.404 . S
C1596 C1599 1.539 1_455 S
C1597 C1593 1.408 . S
C1597 C1596 1.404 . S
C1597 H1609 0.930 . S
C1598 C1594 1.524 . S
C1598 H1610 0.956 . S
C1598 H1611 0.961 . S
C1598 H1612 0.961 . S
C1599 C1596 1.539 1_655 S
C1599 H1613 0.958 . S
C1599 H1614 0.961 . S
C1599 H1615 0.960 . S
H1600 C1584 0.931 . S
H1601 C1589 0.929 . S
H1602 C1590 0.960 . S
H1603 C1590 0.962 . S
H1604 C1590 0.960 . S
H1605 C1591 0.961 . S
H1606 C1591 0.961 . S
H1607 C1591 0.961 . S
H1608 C1592 0.931 . S
H1609 C1597 0.930 . S
H1610 C1598 0.956 . S
H1611 C1598 0.961 . S
H1612 C1598 0.961 . S
H1613 C1599 0.958 . S
H1614 C1599 0.961 . S
H1615 C1599 0.960 . S
C1616 C1617 1.391 . S
C1616 C1618 1.394 . S
C1616 H1632 0.931 . S
C1617 C1616 1.391 . S
C1617 C1621 1.376 . S
C1618 C1616 1.394 . S
C1618 C1619 1.369 . S
C1618 C1622 1.531 . S
C1619 C1618 1.369 . S
C1619 C1620 1.410 . S
C1619 C1627 1.503 1_545 S
C1620 C1619 1.410 . S
C1620 C1621 1.392 . S
C1620 C1623 1.511 1_545 S
C1621 C1617 1.376 . S
C1621 C1620 1.392 . S
C1621 H1633 0.929 . S
C1622 C1618 1.531 . S
C1622 H1634 0.960 . S
C1622 H1635 0.962 . S
C1622 H1636 0.960 . S
C1623 C1620 1.511 1_565 S
C1623 H1637 0.961 . S
C1623 H1638 0.961 . S
C1623 H1639 0.961 . S
C1624 C1625 1.370 . S
C1624 C1626 1.363 . S
C1624 H1640 0.931 . S
C1625 C1624 1.370 . S
C1625 C1629 1.408 . S
C1626 C1624 1.363 . S
C1626 C1627 1.370 . S
C1626 C1630 1.524 . S
C1627 C1619 1.503 1_565 S
C1627 C1626 1.370 . S
C1627 C1628 1.403 . S
C1628 C1627 1.403 . S
C1628 C1629 1.404 . S
C1628 C1631 1.539 . S
C1629 C1625 1.408 . S
C1629 C1628 1.404 . S
C1629 H1641 0.930 . S
C1630 C1626 1.524 . S
C1630 H1642 0.930 1_565 S
C1630 H1643 0.961 . S
C1630 H1644 0.961 . S
C1631 C1628 1.539 . S
C1631 H1645 0.958 1_565 S
C1631 H1646 0.961 . S
C1631 H1647 0.960 1_565 S
H1632 C1616 0.931 . S
H1633 C1621 0.929 . S
H1634 C1622 0.960 . S
H1635 C1622 0.962 . S
H1636 C1622 0.960 . S
H1637 C1623 0.961 . S
H1638 C1623 0.961 . S
H1639 C1623 0.961 . S
H1640 C1624 0.931 . S
H1641 C1629 0.930 . S
H1642 C1630 0.930 1_545 S
H1643 C1630 0.961 . S
H1644 C1630 0.961 . S
H1645 C1631 0.958 1_545 S
H1646 C1631 0.961 . S
H1647 C1631 0.960 1_545 S
C1648 C1649 1.391 . S
C1648 C1650 1.394 . S
C1648 H1664 0.931 . S
C1649 C1648 1.391 . S
C1649 C1653 1.376 . S
C1650 C1648 1.394 . S
C1650 C1651 1.369 . S
C1650 C1654 1.531 1_655 S
C1651 C1650 1.369 . S
C1651 C1652 1.410 . S
C1651 C1659 1.503 1_655 S
C1652 C1651 1.410 . S
C1652 C1653 1.392 . S
C1652 C1655 1.511 . S
C1653 C1649 1.376 . S
C1653 C1652 1.392 . S
C1653 H1665 0.929 . S
C1654 C1650 1.531 1_455 S
C1654 H1666 0.960 . S
C1654 H1667 0.977 . S
C1654 H1668 0.960 . S
C1655 C1652 1.511 . S
C1655 H1669 0.961 . S
C1655 H1670 0.961 . S
C1655 H1671 0.961 . S
C1656 C1657 1.370 . S
C1656 C1658 1.363 . S
C1656 H1672 0.931 . S
C1657 C1656 1.370 . S
C1657 C1661 1.408 . S
C1658 C1656 1.363 . S
C1658 C1659 1.370 . S
C1658 C1662 1.524 1_455 S
C1659 C1651 1.503 1_455 S
C1659 C1658 1.370 . S
C1659 C1660 1.403 . S
C1660 C1659 1.403 . S
C1660 C1661 1.404 . S
C1660 C1663 1.539 . S
C1661 C1657 1.408 . S
C1661 C1660 1.404 . S
C1661 H1673 0.930 . S
C1662 C1658 1.524 1_655 S
C1662 H1674 0.956 . S
C1662 H1675 0.961 . S
C1662 H1676 0.961 . S
C1663 C1660 1.539 . S
C1663 H1677 0.958 . S
C1663 H1678 0.961 . S
C1663 H1679 0.960 . S
H1664 C1648 0.931 . S
H1665 C1653 0.929 . S
H1666 C1654 0.960 . S
H1667 C1654 0.977 . S
H1668 C1654 0.960 . S
H1669 C1655 0.961 . S
H1670 C1655 0.961 . S
H1671 C1655 0.961 . S
H1672 C1656 0.931 . S
H1673 C1661 0.930 . S
H1674 C1662 0.956 . S
H1675 C1662 0.961 . S
H1676 C1662 0.961 . S
H1677 C1663 0.958 . S
H1678 C1663 0.961 . S
H1679 C1663 0.960 . S
C1680 C1681 1.391 . S
C1680 C1682 1.394 . S
C1680 H1696 0.931 . S
C1681 C1680 1.391 . S
C1681 C1685 1.376 . S
C1682 C1680 1.394 . S
C1682 C1683 1.369 . S
C1682 C1686 1.531 1_565 S
C1683 C1682 1.369 . S
C1683 C1684 1.410 . S
C1683 C1691 1.503 1_565 S
C1684 C1683 1.410 . S
C1684 C1685 1.392 . S
C1684 C1687 1.511 . S
C1685 C1681 1.376 . S
C1685 C1684 1.392 . S
C1685 H1697 0.929 . S
C1686 C1682 1.531 1_545 S
C1686 H1698 0.960 . S
C1686 H1699 0.962 . S
C1686 H1700 0.960 . S
C1687 C1684 1.511 . S
C1687 H1701 0.961 . S
C1687 H1702 0.961 . S
C1687 H1703 0.961 . S
C1688 C1689 1.370 . S
C1688 C1690 1.363 . S
C1688 H1704 0.931 . S
C1689 C1688 1.370 . S
C1689 C1693 1.408 . S
C1690 C1688 1.363 . S
C1690 C1691 1.370 . S
C1690 C1694 1.524 1_545 S
C1691 C1683 1.503 1_545 S
C1691 C1690 1.370 . S
C1691 C1692 1.403 . S
C1692 C1691 1.403 . S
C1692 C1693 1.404 . S
C1692 C1695 1.539 . S
C1693 C1689 1.408 . S
C1693 C1692 1.404 . S
C1693 H1705 0.930 . S
C1694 C1690 1.524 1_565 S
C1694 H1706 0.956 . S
C1694 H1707 0.961 . S
C1694 H1708 0.961 . S
C1695 C1692 1.539 . S
C1695 H1709 0.958 . S
C1695 H1710 0.961 . S
C1695 H1711 0.960 . S
H1696 C1680 0.931 . S
H1697 C1685 0.929 . S
H1698 C1686 0.960 . S
H1699 C1686 0.962 . S
H1700 C1686 0.960 . S
H1701 C1687 0.961 . S
H1702 C1687 0.961 . S
H1703 C1687 0.961 . S
H1704 C1688 0.931 . S
H1705 C1693 0.930 . S
H1706 C1694 0.956 . S
H1707 C1694 0.961 . S
H1708 C1694 0.961 . S
H1709 C1695 0.958 . S
H1710 C1695 0.961 . S
H1711 C1695 0.960 . S
C1712 C1713 1.391 . S
C1712 C1714 1.394 . S
C1712 H1728 0.931 . S
C1713 C1712 1.391 . S
C1713 C1717 1.376 . S
C1714 C1712 1.394 . S
C1714 C1715 1.369 . S
C1714 C1718 1.531 1_455 S
C1715 C1714 1.369 . S
C1715 C1716 1.410 . S
C1715 C1723 1.503 1_455 S
C1716 C1715 1.410 . S
C1716 C1717 1.392 . S
C1716 C1719 1.511 . S
C1717 C1713 1.376 . S
C1717 C1716 1.392 . S
C1717 H1729 0.929 . S
C1718 C1714 1.531 1_655 S
C1718 H1730 0.960 . S
C1718 H1731 0.962 . S
C1718 H1732 0.960 . S
C1719 C1716 1.511 . S
C1719 H1733 0.961 . S
C1719 H1734 0.961 . S
C1719 H1735 0.961 . S
C1720 C1721 1.370 . S
C1720 C1722 1.363 . S
C1720 H1736 0.931 . S
C1721 C1720 1.370 . S
C1721 C1725 1.408 . S
C1722 C1720 1.363 . S
C1722 C1723 1.370 . S
C1722 C1726 1.524 . S
C1723 C1715 1.503 1_655 S
C1723 C1722 1.370 . S
C1723 C1724 1.403 . S
C1724 C1723 1.403 . S
C1724 C1725 1.404 . S
C1724 C1727 1.539 . S
C1725 C1721 1.408 . S
C1725 C1724 1.404 . S
C1725 H1737 0.930 . S
C1726 C1722 1.524 . S
C1726 H1738 0.956 . S
C1726 H1739 0.961 1_655 S
C1726 H1740 0.961 . S
C1727 C1724 1.539 . S
C1727 H1741 0.958 . S
C1727 H1742 0.961 . S
C1727 H1743 0.960 1_655 S
H1728 C1712 0.931 . S
H1729 C1717 0.929 . S
H1730 C1718 0.960 . S
H1731 C1718 0.962 . S
H1732 C1718 0.960 . S
H1733 C1719 0.961 . S
H1734 C1719 0.961 . S
H1735 C1719 0.961 . S
H1736 C1720 0.931 . S
H1737 C1725 0.930 . S
H1738 C1726 0.956 . S
H1739 C1726 0.961 1_455 S
H1740 C1726 0.961 . S
H1741 C1727 0.958 . S
H1742 C1727 0.961 . S
H1743 C1727 0.960 1_455 S
C1744 C1745 1.391 . S
C1744 C1746 1.394 . S
C1744 H1760 0.931 . S
C1745 C1744 1.391 . S
C1745 C1749 1.376 . S
C1746 C1744 1.394 . S
C1746 C1747 1.369 . S
C1746 C1750 1.531 . S
C1747 C1746 1.369 . S
C1747 C1748 1.410 . S
C1747 C1755 1.503 1_565 S
C1748 C1747 1.410 . S
C1748 C1749 1.392 . S
C1748 C1751 1.511 1_565 S
C1749 C1745 1.376 . S
C1749 C1748 1.392 . S
C1749 H1761 0.929 . S
C1750 C1746 1.531 . S
C1750 H1762 0.960 . S
C1750 H1763 0.962 . S
C1750 H1764 0.960 . S
C1751 C1748 1.511 1_545 S
C1751 H1765 0.961 . S
C1751 H1766 0.961 . S
C1751 H1767 0.961 . S
C1752 C1753 1.370 . S
C1752 C1754 1.363 . S
C1752 H1768 0.931 . S
C1753 C1752 1.370 . S
C1753 C1757 1.408 . S
C1754 C1752 1.363 . S
C1754 C1755 1.370 . S
C1754 C1758 1.524 . S
C1755 C1747 1.503 1_545 S
C1755 C1754 1.370 . S
C1755 C1756 1.403 . S
C1756 C1755 1.403 . S
C1756 C1757 1.404 . S
C1756 C1759 1.539 1_545 S
C1757 C1753 1.408 . S
C1757 C1756 1.404 . S
C1757 H1769 0.930 . S
C1758 C1754 1.524 . S
C1758 H1770 0.956 . S
C1758 H1771 0.961 . S
C1758 H1772 0.961 . S
C1759 C1756 1.539 1_565 S
C1759 H1773 0.958 . S
C1759 H1774 0.972 . S
C1759 H1775 0.960 . S
H1760 C1744 0.931 . S
H1761 C1749 0.929 . S
H1762 C1750 0.960 . S
H1763 C1750 0.962 . S
H1764 C1750 0.960 . S
H1765 C1751 0.961 . S
H1766 C1751 0.961 . S
H1767 C1751 0.961 . S
H1768 C1752 0.931 . S
H1769 C1757 0.930 . S
H1770 C1758 0.956 . S
H1771 C1758 0.961 . S
H1772 C1758 0.961 . S
H1773 C1759 0.958 . S
H1774 C1759 0.972 . S
H1775 C1759 0.960 . S
C1776 C1777 1.391 . S
C1776 C1778 1.394 . S
C1776 H1792 0.931 . S
C1777 C1776 1.391 . S
C1777 C1781 1.376 . S
C1778 C1776 1.394 . S
C1778 C1779 1.369 . S
C1778 C1782 1.531 1_655 S
C1779 C1778 1.369 . S
C1779 C1780 1.410 . S
C1779 C1787 1.503 1_655 S
C1780 C1779 1.410 . S
C1780 C1781 1.392 . S
C1780 C1783 1.511 . S
C1781 C1777 1.376 . S
C1781 C1780 1.392 . S
C1781 H1793 0.929 . S
C1782 C1778 1.531 1_455 S
C1782 H1794 0.960 . S
C1782 H1795 0.962 . S
C1782 H1796 0.960 . S
C1783 C1780 1.511 . S
C1783 H1797 0.961 . S
C1783 H1798 0.961 . S
C1783 H1799 0.961 . S
C1784 C1785 1.370 . S
C1784 C1786 1.363 . S
C1784 H1800 0.931 . S
C1785 C1784 1.370 . S
C1785 C1789 1.408 . S
C1786 C1784 1.363 . S
C1786 C1787 1.370 . S
C1786 C1790 1.524 1_455 S
C1787 C1779 1.503 1_455 S
C1787 C1786 1.370 . S
C1787 C1788 1.403 . S
C1788 C1787 1.403 . S
C1788 C1789 1.404 . S
C1788 C1791 1.539 . S
C1789 C1785 1.408 . S
C1789 C1788 1.404 . S
C1789 H1801 0.930 . S
C1790 C1786 1.524 1_655 S
C1790 H1802 0.956 . S
C1790 H1803 0.961 . S
C1790 H1804 0.961 . S
C1791 C1788 1.539 . S
C1791 H1805 0.958 . S
C1791 H1806 0.961 . S
C1791 H1807 0.960 . S
H1792 C1776 0.931 . S
H1793 C1781 0.929 . S
H1794 C1782 0.960 . S
H1795 C1782 0.962 . S
H1796 C1782 0.960 . S
H1797 C1783 0.961 . S
H1798 C1783 0.961 . S
H1799 C1783 0.961 . S
H1800 C1784 0.931 . S
H1801 C1789 0.930 . S
H1802 C1790 0.956 . S
H1803 C1790 0.961 . S
H1804 C1790 0.961 . S
H1805 C1791 0.958 . S
H1806 C1791 0.961 . S
H1807 C1791 0.960 . S
C529 N79 0.860 . S
C537 N13 0.900 . S
C561 N46 0.858 . S
C569 N112 0.899 . S
C593 N211 0.856 . S
C601 N145 0.897 . S
C625 N244 0.868 . S
C633 N178 0.903 . S
C657 N277 0.856 . S
C665 N343 0.897 . S
C689 N310 0.983 . S
C697 N376 0.949 . S
C721 N409 0.979 . S
C729 N475 0.947 . S
C753 N508 0.880 . S
C761 N442 0.905 . S
C785 N2 1.797 . S
C793 N167 1.808 . S
C817 N200 1.799 . S
C825 N35 1.811 . S
C849 N233 1.798 . S
C857 N68 1.807 . S
C881 N134 1.813 . S
C889 N101 1.815 . S
C913 N431 1.804 . S
C921 N266 1.807 . S
C945 N464 1.800 . S
C953 N299 1.807 . S
C977 N497 1.799 . S
C985 N332 1.811 . S
C1009 N398 1.815 . S
C1017 N365 1.812 . S
C1041 C18 1.177 . S
C1049 C348 1.168 . S
C1073 C381 1.164 . S
C1081 C51 1.163 . S
C1105 C282 1.149 . S
C1113 C84 1.167 . S
C1137 C315 1.165 . S
C1145 C117 1.175 . S
C1169 C150 1.170 . S
C1177 C480 1.176 . S
C1201 C183 1.145 . S
C1209 C513 1.162 . S
C1233 C216 1.183 . S
C1241 C414 1.179 . S
C1265 C249 1.146 . S
C1273 C447 1.161 . S
C1297 C139 0.995 . S
C1305 C7 1.029 . S
C1329 C40 1.046 . S
C1337 C172 1.035 . S
C1361 C205 1.003 . S
C1369 C73 0.997 . S
C1393 C238 1.044 . S
C1401 C106 1.009 . S
C1425 C285 0.487 . S
C1433 C417 0.531 . S
C1457 C450 0.526 . S
C1465 C318 0.552 . S
C1489 C351 0.552 . S
C1497 C483 0.551 . S
C1521 C516 0.554 . S
C1529 C384 0.564 . S
C1553 C370 1.027 . S
C1561 C436 1.036 . S
C1585 C271 0.968 . S
C1593 C469 1.011 . S
C1617 C502 1.049 . S
C1625 C304 1.035 . S
C1649 C403 1.018 . S
C1657 C337 0.999 . S
C1681 C120 0.611 . S
C1689 C186 0.586 . S
C1713 C21 0.639 . S
C1721 C219 0.594 . S
C1745 C252 0.513 . S
C1753 C54 0.537 . S
C1777 C87 0.617 . S
C1785 C153 0.588 . S
