# Generated by pormake.
# Topology sod, (4)-cn, num edge types: 1
# Building blocks:
#     Node 0, Type 0, BuildingBlock: UXUYUI_clean_sbu_0, # of connection points: 4
#     Node 1, Type 0, BuildingBlock: UXUYUI_clean_sbu_0, # of connection points: 4
#     Node 2, Type 0, BuildingBlock: UXUYUI_clean_sbu_0, # of connection points: 4
#     Node 3, Type 0, BuildingBlock: UXUYUI_clean_sbu_0, # of connection points: 4
#     Node 4, Type 0, BuildingBlock: UXUYUI_clean_sbu_0, # of connection points: 4
#     Node 5, Type 0, BuildingBlock: UXUYUI_clean_sbu_0, # of connection points: 4
#     Node 6, Type 0, BuildingBlock: UXUYUI_clean_sbu_0, # of connection points: 4
#     Node 7, Type 0, BuildingBlock: UXUYUI_clean_sbu_0, # of connection points: 4
#     Node 8, Type 0, BuildingBlock: UXUYUI_clean_sbu_0, # of connection points: 4
#     Node 9, Type 0, BuildingBlock: UXUYUI_clean_sbu_0, # of connection points: 4
#     Node 10, Type 0, BuildingBlock: UXUYUI_clean_sbu_0, # of connection points: 4
#     Node 11, Type 0, BuildingBlock: UXUYUI_clean_sbu_0, # of connection points: 4
#     Edge 12, Type (0, 0), BuildingBlock: AJUNOK_clean_linker_0, # of connection points: 2
#     Edge 13, Type (0, 0), BuildingBlock: AJUNOK_clean_linker_0, # of connection points: 2
#     Edge 14, Type (0, 0), BuildingBlock: AJUNOK_clean_linker_0, # of connection points: 2
#     Edge 15, Type (0, 0), BuildingBlock: AJUNOK_clean_linker_0, # of connection points: 2
#     Edge 16, Type (0, 0), BuildingBlock: AJUNOK_clean_linker_0, # of connection points: 2
#     Edge 17, Type (0, 0), BuildingBlock: AJUNOK_clean_linker_0, # of connection points: 2
#     Edge 18, Type (0, 0), BuildingBlock: AJUNOK_clean_linker_0, # of connection points: 2
#     Edge 19, Type (0, 0), BuildingBlock: AJUNOK_clean_linker_0, # of connection points: 2
#     Edge 20, Type (0, 0), BuildingBlock: AJUNOK_clean_linker_0, # of connection points: 2
#     Edge 21, Type (0, 0), BuildingBlock: AJUNOK_clean_linker_0, # of connection points: 2
#     Edge 22, Type (0, 0), BuildingBlock: AJUNOK_clean_linker_0, # of connection points: 2
#     Edge 23, Type (0, 0), BuildingBlock: AJUNOK_clean_linker_0, # of connection points: 2
#     Edge 24, Type (0, 0), BuildingBlock: AJUNOK_clean_linker_0, # of connection points: 2
#     Edge 25, Type (0, 0), BuildingBlock: AJUNOK_clean_linker_0, # of connection points: 2
#     Edge 26, Type (0, 0), BuildingBlock: AJUNOK_clean_linker_0, # of connection points: 2
#     Edge 27, Type (0, 0), BuildingBlock: AJUNOK_clean_linker_0, # of connection points: 2
#     Edge 28, Type (0, 0), BuildingBlock: AJUNOK_clean_linker_0, # of connection points: 2
#     Edge 29, Type (0, 0), BuildingBlock: AJUNOK_clean_linker_0, # of connection points: 2
#     Edge 30, Type (0, 0), BuildingBlock: AJUNOK_clean_linker_0, # of connection points: 2
#     Edge 31, Type (0, 0), BuildingBlock: AJUNOK_clean_linker_0, # of connection points: 2
#     Edge 32, Type (0, 0), BuildingBlock: AJUNOK_clean_linker_0, # of connection points: 2
#     Edge 33, Type (0, 0), BuildingBlock: AJUNOK_clean_linker_0, # of connection points: 2
#     Edge 34, Type (0, 0), BuildingBlock: AJUNOK_clean_linker_0, # of connection points: 2
#     Edge 35, Type (0, 0), BuildingBlock: AJUNOK_clean_linker_0, # of connection points: 2
# Relax obj value: 0.150
# Max RMSD: 0.167
# Mean RMSD: 0.167
data_MOF--net-sod--node1-UXUYUI_clean_sbu_0--edge1-AJUNOK_clean_linker_0
_symmetry_space_group_name_H-M    P1
_symmetry_Int_Tables_number       1
_symmetry_cell_setting            triclinic
loop_
_symmetry_equiv_pos_as_xyz
'x, y, z'
_cell_length_a     51.256459
_cell_length_b     51.251088
_cell_length_c     51.247807
_cell_angle_alpha  89.984658
_cell_angle_beta   89.995699
_cell_angle_gamma 89.999601
loop_
_atom_site_label
_atom_site_type_symbol
_atom_site_fract_x
_atom_site_fract_y
_atom_site_fract_z
_atom_type_partial_charge
Li0 Li 0.97837 0.23185 0.50199 0.0
Li1 Li 0.00289 0.26884 0.52626 0.0
Li2 Li 0.00263 0.26554 0.47836 0.0
Li3 Li 0.0263 0.23432 0.503 0.0
C4 C 0.95688 0.28607 0.48675 0.0
N5 N 0.92894 0.31819 0.45369 0.0
C6 C 0.95676 0.31304 0.49074 0.0
C7 C 0.9426 0.2754 0.46613 0.0
C8 C 0.94257 0.32897 0.47375 0.0
C9 C 0.92863 0.29197 0.44959 0.0
C10 C 0.01708 0.21486 0.54887 0.0
C11 C 0.05261 0.20939 0.57922 0.0
N12 N 0.04932 0.18307 0.5781 0.0
C13 C 0.01397 0.18779 0.54808 0.0
C14 C 0.0365 0.2258 0.56457 0.0
C15 C 0.03051 0.17204 0.56298 0.0
C16 C 0.95431 0.18321 0.49766 0.0
N17 N 0.94943 0.20882 0.50241 0.0
C18 C 0.90387 0.20011 0.50735 0.0
C19 C 0.92485 0.21757 0.50718 0.0
C20 C 0.90836 0.17343 0.50279 0.0
C21 C 0.934 0.16509 0.4978 0.0
H22 H 0.97407 0.17689 0.49374 0.0
H23 H 0.92154 0.23811 0.51074 0.0
C24 C 0.00773 0.31792 0.54921 0.0
N25 N 0.00255 0.2925 0.5547 0.0
C26 C 0.00754 0.33656 0.56906 0.0
C27 C 0.99728 0.30241 0.59998 0.0
C28 C 0.99732 0.28444 0.57944 0.0
C29 C 0.00238 0.32883 0.59481 0.0
H30 H 0.01196 0.32368 0.52934 0.0
H31 H 0.99316 0.26409 0.58319 0.0
C32 C 0.00328 0.21907 0.44822 0.0
N33 N 0.0036 0.20197 0.39711 0.0
C34 C 0.02671 0.21786 0.43433 0.0
C35 C 0.98005 0.21123 0.43626 0.0
C36 C 0.02645 0.20926 0.40847 0.0
C37 C 0.98061 0.20274 0.41036 0.0
C38 C 0.05722 0.27854 0.49641 0.0
C39 C 0.06707 0.27453 0.47132 0.0
C40 C 0.07327 0.28909 0.51575 0.0
C41 C 0.09307 0.28076 0.46607 0.0
C42 C 0.09918 0.29507 0.50972 0.0
N43 N 0.10846 0.29079 0.48523 0.0
C44 C 0.01062 0.31317 0.45395 0.0
C45 C 0.99537 0.28133 0.42407 0.0
C46 C 0.01046 0.33221 0.43449 0.0
N47 N 0.00299 0.28833 0.44854 0.0
C48 C 0.99539 0.29968 0.40388 0.0
C49 C 0.00278 0.32545 0.40917 0.0
H50 H 0.01632 0.3183 0.47362 0.0
H51 H 0.98876 0.26179 0.42018 0.0
C52 C 0.05241 0.1882 0.49144 0.0
N53 N 0.05606 0.21164 0.50331 0.0
C54 C 0.07251 0.1699 0.49056 0.0
C55 C 0.09976 0.19979 0.51477 0.0
C56 C 0.07908 0.21762 0.51511 0.0
C57 C 0.09665 0.1757 0.5021 0.0
H58 H 0.03371 0.18361 0.48286 0.0
H59 H 0.08133 0.23603 0.5251 0.0
O60 O 0.97155 0.27023 0.50243 0.0
O61 O 0.0017 0.23058 0.53378 0.0
O62 O 0.00314 0.22713 0.47364 0.0
O63 O 0.03186 0.27258 0.50202 0.0
H64 H 0.96777 0.32161 0.50657 0.0
H65 H 0.94263 0.25457 0.4627 0.0
H66 H 0.94246 0.3499 0.47646 0.0
H67 H 0.91766 0.284 0.43342 0.0
H68 H 0.06783 0.21756 0.59133 0.0
H69 H 0.99912 0.17902 0.53593 0.0
H70 H 0.0394 0.24671 0.56509 0.0
H71 H 0.02843 0.15104 0.56247 0.0
H72 H 0.88434 0.20745 0.51071 0.0
H73 H 0.93833 0.14471 0.49427 0.0
H74 H 0.01165 0.35677 0.5644 0.0
H75 H 0.99297 0.29583 0.6196 0.0
H76 H 0.04493 0.22332 0.44346 0.0
H77 H 0.96178 0.21184 0.4468 0.0
H78 H 0.04442 0.2083 0.39745 0.0
H79 H 0.96277 0.19676 0.4008 0.0
H80 H 0.05473 0.26681 0.45606 0.0
H81 H 0.06583 0.29243 0.53523 0.0
H82 H 0.101 0.27769 0.44675 0.0
H83 H 0.1119 0.3031 0.52452 0.0
H84 H 0.01618 0.35201 0.43916 0.0
H85 H 0.9891 0.294 0.38452 0.0
H86 H 0.06908 0.15124 0.48126 0.0
H87 H 0.11802 0.20483 0.52413 0.0
Li88 Li 0.73368 1.0009 0.52509 0.0
Li89 Li 0.76638 0.97858 0.50059 0.0
Li90 Li 0.76734 0.02469 0.50123 0.0
Li91 Li 0.73306 1.00079 0.47624 0.0
C92 C 0.77635 0.01573 0.55343 0.0
N93 N 0.78544 0.04533 0.59761 0.0
C94 C 0.79474 0.00761 0.57187 0.0
C95 C 0.76251 0.0389 0.55756 0.0
C96 C 0.79906 0.02284 0.59406 0.0
C97 C 0.76742 0.05359 0.57998 0.0
C98 C 0.7253 0.94554 0.50466 0.0
C99 C 0.71226 0.90304 0.48933 0.0
N100 N 0.71996 0.89251 0.51245 0.0
C101 C 0.73295 0.93436 0.52831 0.0
C102 C 0.71477 0.92984 0.48502 0.0
C103 C 0.73015 0.90748 0.53185 0.0
C104 C 0.68746 0.01216 0.55189 0.0
N105 N 0.71119 1.00065 0.55461 0.0
C106 C 0.70119 0.98844 0.59853 0.0
C107 C 0.71838 0.98899 0.57734 0.0
C108 C 0.67649 1.00006 0.59619 0.0
C109 C 0.66977 0.01224 0.5726 0.0
H110 H 0.6822 0.02105 0.53349 0.0
H111 H 0.73741 0.98002 0.57899 0.0
C112 C 0.81156 0.95188 0.51495 0.0
N113 N 0.78954 0.94909 0.50046 0.0
C114 C 0.83064 0.93247 0.51494 0.0
C115 C 0.80411 0.90748 0.48506 0.0
C116 C 0.78546 0.92736 0.48574 0.0
C117 C 0.82722 0.91008 0.49954 0.0
H118 H 0.81453 0.96946 0.52619 0.0
H119 H 0.76808 0.92568 0.47397 0.0
C120 C 0.72192 0.0529 0.48704 0.0
N121 N 0.708 0.09674 0.4589 0.0
C122 C 0.73511 0.05919 0.464 0.0
C123 C 0.70171 0.06896 0.49581 0.0
C124 C 0.72776 0.08141 0.45004 0.0
C125 C 0.69496 0.09104 0.4813 0.0
C126 C 0.78426 0.98611 0.45303 0.0
C127 C 0.81148 0.98713 0.45155 0.0
C128 C 0.77063 0.96818 0.43763 0.0
C129 C 0.82461 0.97013 0.43476 0.0
C130 C 0.78446 0.95159 0.42101 0.0
N131 N 0.81094 0.95287 0.41996 0.0
C132 C 0.81609 0.04831 0.50026 0.0
C133 C 0.78208 0.07918 0.50547 0.0
C134 C 0.83476 0.0681 0.50048 0.0
N135 N 0.79031 0.05413 0.50222 0.0
C136 C 0.80015 0.09964 0.50593 0.0
C137 C 0.82686 0.09416 0.50324 0.0
H138 H 0.82214 0.02819 0.4988 0.0
H139 H 0.76157 0.08337 0.50784 0.0
C140 C 0.68508 0.99292 0.45159 0.0
N141 N 0.70989 0.00117 0.44721 0.0
C142 C 0.66679 0.99308 0.43141 0.0
C143 C 0.69993 0.01022 0.40253 0.0
C144 C 0.71761 0.00971 0.42329 0.0
C145 C 0.67409 0.00198 0.40654 0.0
H146 H 0.6795 0.98633 0.47086 0.0
H147 H 0.7375 0.0161 0.42034 0.0
O148 O 0.77196 1.00083 0.53168 0.0
O149 O 0.72809 0.97175 0.5007 0.0
O150 O 0.72861 0.03114 0.501 0.0
O151 O 0.77103 0.0022 0.46976 0.0
H152 H 0.80552 0.98967 0.56911 0.0
H153 H 0.7481 0.04554 0.54372 0.0
H154 H 0.81324 0.01676 0.60846 0.0
H155 H 0.75687 0.07155 0.58337 0.0
H156 H 0.70425 0.89061 0.47428 0.0
H157 H 0.7413 0.94627 0.54361 0.0
H158 H 0.70879 0.93826 0.46658 0.0
H159 H 0.73614 0.89851 0.55 0.0
H160 H 0.70716 0.97915 0.61655 0.0
H161 H 0.65083 0.02126 0.57004 0.0
H162 H 0.84794 0.93502 0.5268 0.0
H163 H 0.80081 0.89056 0.47284 0.0
H164 H 0.75097 0.04717 0.45702 0.0
H165 H 0.69138 0.06446 0.51367 0.0
H166 H 0.73779 0.08649 0.43217 0.0
H167 H 0.67935 0.10364 0.48787 0.0
H168 H 0.82242 1.00078 0.46327 0.0
H169 H 0.74965 0.96663 0.43892 0.0
H170 H 0.84567 0.97065 0.43352 0.0
H171 H 0.77415 0.93753 0.40912 0.0
H172 H 0.85522 0.06308 0.49881 0.0
H173 H 0.7933 0.11952 0.50806 0.0
H174 H 0.64703 0.98668 0.4353 0.0
H175 H 0.70644 0.01678 0.38353 0.0
Li176 Li 0.02208 0.76786 0.50077 0.0
Li177 Li 0.99687 0.73482 0.52472 0.0
Li178 Li 0.99702 0.7333 0.47634 0.0
Li179 Li 0.9744 0.76704 0.50012 0.0
C180 C 0.0488 0.72085 0.48795 0.0
N181 N 0.09178 0.70336 0.46054 0.0
C182 C 0.06287 0.69928 0.49688 0.0
C183 C 0.05652 0.73348 0.46503 0.0
C184 C 0.08458 0.69075 0.48277 0.0
C185 C 0.07832 0.72435 0.45147 0.0
C186 C 0.00127 0.77463 0.55631 0.0
C187 C 0.984 0.77347 0.60006 0.0
N188 N 0.00857 0.77623 0.60968 0.0
C189 C 0.02634 0.7776 0.56661 0.0
C190 C 0.97989 0.7727 0.57312 0.0
C191 C 0.02963 0.77832 0.59366 0.0
C192 C 0.04516 0.81662 0.50077 0.0
N193 N 0.05139 0.79086 0.50132 0.0
C194 C 0.09691 0.80118 0.50239 0.0
C195 C 0.07667 0.78286 0.50274 0.0
C196 C 0.09101 0.82791 0.50084 0.0
C197 C 0.0647 0.83555 0.50051 0.0
H198 H 0.02489 0.82243 0.50073 0.0
H199 H 0.08123 0.76234 0.50419 0.0
C200 C 0.97572 0.698 0.55982 0.0
N201 N 0.99723 0.71263 0.55466 0.0
C202 C 0.97596 0.67984 0.58011 0.0
C203 C 0.02034 0.69243 0.58986 0.0
C204 C 0.01932 0.71025 0.56919 0.0
C205 C 0.99861 0.67663 0.59514 0.0
H206 H 0.95858 0.6999 0.54774 0.0
H207 H 0.03635 0.72172 0.56433 0.0
C208 C 0.98425 0.7846 0.45174 0.0
N209 N 0.95428 0.81187 0.41614 0.0
C210 C 0.96686 0.77136 0.43543 0.0
C211 C 0.98643 0.81172 0.44989 0.0
C212 C 0.9519 0.78548 0.41756 0.0
C213 C 0.97108 0.82516 0.4318 0.0
C214 C 0.94083 0.72743 0.49906 0.0
C215 C 0.92883 0.71844 0.47628 0.0
C216 C 0.92551 0.73487 0.52036 0.0
C217 C 0.90162 0.71732 0.4751 0.0
C218 C 0.89836 0.73351 0.51839 0.0
N219 N 0.88708 0.72484 0.49599 0.0
C220 C 0.98932 0.68515 0.45224 0.0
C221 C 0.00756 0.71687 0.42393 0.0
C222 C 0.9898 0.6665 0.43242 0.0
N223 N 0.99799 0.70977 0.44764 0.0
C224 C 0.00855 0.69876 0.40355 0.0
C225 C 0.99947 0.67321 0.40767 0.0
H226 H 0.98201 0.68004 0.47137 0.0
H227 H 0.01461 0.73654 0.42091 0.0
C228 C 0.94751 0.81184 0.51589 0.0
N229 N 0.94549 0.79101 0.49958 0.0
C230 C 0.9284 0.83124 0.51594 0.0
C231 C 0.90516 0.80738 0.4826 0.0
C232 C 0.92485 0.78853 0.48303 0.0
C233 C 0.90701 0.8292 0.499 0.0
H234 H 0.96422 0.81361 0.52863 0.0
H235 H 0.92378 0.77217 0.46984 0.0
O236 O 0.02728 0.72914 0.50135 0.0
O237 O 0.99767 0.77345 0.52991 0.0
O238 O 0.99889 0.7711 0.46954 0.0
O239 O 0.96745 0.72857 0.50062 0.0
H240 H 0.05704 0.68923 0.51454 0.0
H241 H 0.04587 0.75024 0.45786 0.0
H242 H 0.09567 0.67409 0.48946 0.0
H243 H 0.08453 0.73396 0.43373 0.0
H244 H 0.96765 0.77189 0.61331 0.0
H245 H 0.04311 0.77905 0.55387 0.0
H246 H 0.96035 0.77056 0.56543 0.0
H247 H 0.04893 0.78046 0.60192 0.0
H248 H 0.11695 0.79451 0.50302 0.0
H249 H 0.05927 0.85597 0.5003 0.0
H250 H 0.95875 0.66814 0.58377 0.0
H251 H 0.0382 0.69034 0.60097 0.0
H252 H 0.96457 0.75045 0.43684 0.0
H253 H 0.99976 0.82233 0.46229 0.0
H254 H 0.93827 0.77547 0.40493 0.0
H255 H 0.97253 0.84616 0.43021 0.0
H256 H 0.94037 0.71257 0.45962 0.0
H257 H 0.93448 0.74183 0.53814 0.0
H258 H 0.89207 0.71052 0.45755 0.0
H259 H 0.88626 0.73936 0.53466 0.0
H260 H 0.98255 0.64705 0.43638 0.0
H261 H 0.01671 0.70457 0.38495 0.0
H262 H 0.93034 0.84769 0.52907 0.0
H263 H 0.88899 0.80526 0.46916 0.0
Li264 Li 0.23327 0.02345 0.50256 0.0
Li265 Li 0.26704 0.99942 0.52666 0.0
Li266 Li 0.26688 0.99941 0.47859 0.0
Li267 Li 0.23383 0.97492 0.50261 0.0
C268 C 0.27747 0.05161 0.48833 0.0
N269 N 0.28947 0.09533 0.45914 0.0
C270 C 0.29842 0.06752 0.49548 0.0
C271 C 0.26261 0.05793 0.46634 0.0
C272 C 0.30418 0.08954 0.48047 0.0
C273 C 0.269 0.08011 0.45184 0.0
C274 C 0.22154 0.9951 0.55731 0.0
C275 C 0.21387 0.96609 0.59354 0.0
N276 N 0.20714 0.98689 0.60859 0.0
C277 C 0.2142 0.01615 0.57299 0.0
C278 C 0.22107 0.96983 0.56751 0.0
C279 C 0.20713 0.01162 0.59893 0.0
C280 C 0.18721 0.04978 0.49056 0.0
N281 N 0.21053 0.05269 0.5028 0.0
C282 C 0.19986 0.09657 0.51456 0.0
C283 C 0.21712 0.07541 0.51483 0.0
C284 C 0.17576 0.09423 0.50171 0.0
C285 C 0.16944 0.07038 0.48979 0.0
H286 H 0.1824 0.03134 0.48149 0.0
H287 H 0.23577 0.07708 0.52457 0.0
C288 C 0.3125 0.98643 0.55415 0.0
N289 N 0.2898 0.99999 0.55622 0.0
C290 C 0.33048 0.9864 0.57458 0.0
C291 C 0.30197 0.01517 0.59868 0.0
C292 C 0.28441 0.01448 0.57779 0.0
C293 C 0.32533 1.00088 0.59726 0.0
H294 H 0.31683 0.97582 0.53646 0.0
H295 H 0.26679 0.026 0.57857 0.0
C296 C 0.2225 0.98608 0.45001 0.0
N297 N 0.21044 0.95962 0.40463 0.0
C298 C 0.23368 0.96174 0.44496 0.0
C299 C 0.20523 0.99701 0.43197 0.0
C300 C 0.22732 0.94865 0.42193 0.0
C301 C 0.19938 0.98332 0.40913 0.0
C302 C 0.28047 0.94496 0.50744 0.0
C303 C 0.29105 0.92983 0.48735 0.0
C304 C 0.27861 0.93458 0.5326 0.0
C305 C 0.29932 0.90442 0.49273 0.0
C306 C 0.28713 0.90909 0.53719 0.0
N307 N 0.29719 0.89466 0.51732 0.0
C308 C 0.314 0.99017 0.45332 0.0
C309 C 0.28189 0.0081 0.42525 0.0
C310 C 0.33201 0.9893 0.43293 0.0
N311 N 0.28947 0.99929 0.44912 0.0
C312 C 0.29936 0.00768 0.40428 0.0
C313 C 0.32471 0.99797 0.40799 0.0
H314 H 0.31957 0.98363 0.4726 0.0
H315 H 0.26234 0.01553 0.42248 0.0
C316 C 0.18478 0.95274 0.50418 0.0
N317 N 0.21034 0.94589 0.50248 0.0
C318 C 0.16532 0.93369 0.50358 0.0
C319 C 0.19881 0.90071 0.49984 0.0
C320 C 0.21764 0.92044 0.50025 0.0
C321 C 0.17229 0.90732 0.50128 0.0
H322 H 0.17954 0.97312 0.50585 0.0
H323 H 0.23792 0.91531 0.49843 0.0
O324 O 0.27173 0.02995 0.50284 0.0
O325 O 0.22844 0.99922 0.53188 0.0
O326 O 0.22853 0.99936 0.47235 0.0
O327 O 0.27233 0.96989 0.50248 0.0
H328 H 0.31011 0.06287 0.51245 0.0
H329 H 0.24633 0.04589 0.46047 0.0
H330 H 0.32034 0.10203 0.48576 0.0
H331 H 0.25767 0.08522 0.43477 0.0
H332 H 0.21352 0.94664 0.60174 0.0
H333 H 0.21419 0.03581 0.56524 0.0
H334 H 0.226 0.95325 0.55544 0.0
H335 H 0.20162 0.02775 0.61137 0.0
H336 H 0.20538 0.11463 0.52405 0.0
H337 H 0.1508 0.06757 0.48024 0.0
H338 H 0.34831 0.97524 0.57259 0.0
H339 H 0.29762 0.02729 0.61543 0.0
H340 H 0.24713 0.95305 0.45865 0.0
H341 H 0.19653 0.01592 0.43552 0.0
H342 H 0.23581 0.92977 0.41779 0.0
H343 H 0.18605 0.99155 0.39498 0.0
H344 H 0.29276 0.93759 0.46779 0.0
H345 H 0.27088 0.94612 0.54845 0.0
H346 H 0.30744 0.89247 0.47735 0.0
H347 H 0.28579 0.90081 0.55656 0.0
H348 H 0.35157 0.98225 0.43672 0.0
H349 H 0.29307 0.01464 0.38534 0.0
H350 H 0.14505 0.93949 0.50503 0.0
H351 H 0.20486 0.88056 0.4979 0.0
Li352 Li 0.49948 0.02767 0.23553 0.0
Li353 Li 0.474 0.00297 0.26792 0.0
Li354 Li 0.52298 0.00321 0.26816 0.0
Li355 Li 0.49914 0.97859 0.23456 0.0
C356 C 0.49522 0.05899 0.2761 0.0
N357 N 0.48867 0.11241 0.27921 0.0
C358 C 0.47081 0.06946 0.28226 0.0
C359 C 0.51636 0.07567 0.27177 0.0
C360 C 0.46789 0.09653 0.2837 0.0
C361 C 0.51263 0.10262 0.27334 0.0
C362 C 0.44469 0.9986 0.22147 0.0
C363 C 0.40928 0.9685 0.21402 0.0
N364 N 0.39422 0.98854 0.20533 0.0
C365 C 0.42896 0.01885 0.21215 0.0
C366 C 0.43487 0.97317 0.22214 0.0
C367 C 0.40346 0.01339 0.2042 0.0
C368 C 0.52056 0.06033 0.19673 0.0
N369 N 0.50012 0.05781 0.21346 0.0
C370 C 0.48065 0.09679 0.19667 0.0
C371 C 0.48034 0.0755 0.21374 0.0
C372 C 0.50153 0.09985 0.17919 0.0
C373 C 0.52168 0.0813 0.17938 0.0
H374 H 0.53578 0.04576 0.19648 0.0
H375 H 0.46417 0.07297 0.22702 0.0
C376 C 0.44917 0.99229 0.31479 0.0
N377 N 0.44443 0.00213 0.29063 0.0
C378 C 0.4292 0.99068 0.3332 0.0
C379 C 0.39978 0.00996 0.30181 0.0
C380 C 0.42037 0.01115 0.28393 0.0
C381 C 0.40405 0.99938 0.32673 0.0
H382 H 0.4686 0.98573 0.31978 0.0
H383 H 0.41716 0.01955 0.2649 0.0
C384 C 0.55547 1.00094 0.22852 0.0
N385 N 0.60915 0.99633 0.2271 0.0
C386 C 0.567 0.97722 0.22161 0.0
C387 C 0.57123 0.02239 0.23445 0.0
C388 C 0.59419 0.97527 0.22105 0.0
C389 C 0.59833 0.01964 0.23372 0.0
C390 C 0.49324 0.94818 0.28005 0.0
C391 C 0.51311 0.93177 0.28897 0.0
C392 C 0.46761 0.93893 0.27904 0.0
C393 C 0.50709 0.90617 0.29617 0.0
C394 C 0.46236 0.91323 0.28644 0.0
N395 N 0.48205 0.8975 0.29474 0.0
C396 C 0.55489 0.02317 0.30815 0.0
C397 C 0.57013 0.98325 0.2905 0.0
C398 C 0.57559 0.0238 0.32583 0.0
N399 N 0.55255 0.00313 0.29094 0.0
C400 C 0.59117 0.9831 0.30786 0.0
C401 C 0.59409 0.0036 0.3258 0.0
H402 H 0.54042 0.03848 0.30846 0.0
H403 H 0.56775 0.96742 0.27678 0.0
C404 C 0.48814 0.95354 0.18756 0.0
N405 N 0.49921 0.9494 0.21131 0.0
C406 C 0.48818 0.93391 0.16871 0.0
C407 C 0.51129 0.90603 0.1989 0.0
C408 C 0.51066 0.92621 0.21728 0.0
C409 C 0.50023 0.90991 0.17412 0.0
H410 H 0.47945 0.97226 0.18317 0.0
H411 H 0.51993 0.92355 0.236 0.0
O412 O 0.4984 0.03256 0.27432 0.0
O413 O 0.46973 0.00364 0.22928 0.0
O414 O 0.52889 0.00313 0.22951 0.0
O415 O 0.49883 0.97335 0.27304 0.0
H416 H 0.45426 0.05685 0.28572 0.0
H417 H 0.5354 0.06788 0.26707 0.0
H418 H 0.44908 0.10491 0.28832 0.0
H419 H 0.52878 0.11576 0.26987 0.0
H420 H 0.40143 0.94891 0.21452 0.0
H421 H 0.43629 0.03859 0.21119 0.0
H422 H 0.44694 0.95713 0.22855 0.0
H423 H 0.39103 0.02891 0.19713 0.0
H424 H 0.46469 0.11063 0.19703 0.0
H425 H 0.53777 0.08256 0.16574 0.0
H426 H 0.43349 0.98306 0.35245 0.0
H427 H 0.38069 0.01709 0.29619 0.0
H428 H 0.55511 0.96046 0.21687 0.0
H429 H 0.56261 0.0409 0.23976 0.0
H430 H 0.60338 0.957 0.21585 0.0
H431 H 0.61076 0.03603 0.23844 0.0
H432 H 0.533 0.93864 0.29018 0.0
H433 H 0.45185 0.9515 0.27293 0.0
H434 H 0.52232 0.89321 0.30292 0.0
H435 H 0.44261 0.90582 0.28569 0.0
H436 H 0.57675 0.03961 0.3398 0.0
H437 H 0.60499 0.96712 0.30729 0.0
H438 H 0.47897 0.93754 0.15004 0.0
H439 H 0.52092 0.88785 0.20375 0.0
Li440 Li 0.97826 0.49837 0.23573 0.0
Li441 Li 0.00306 0.47451 0.26869 0.0
Li442 Li 0.00271 0.52264 0.26868 0.0
Li443 Li 0.0267 0.49848 0.23485 0.0
C444 C 0.94859 0.50428 0.28162 0.0
N445 N 0.89828 0.51641 0.29661 0.0
C446 C 0.93303 0.48548 0.29377 0.0
C447 C 0.93872 0.52933 0.27737 0.0
C448 C 0.9076 0.49197 0.30113 0.0
C449 C 0.9132 0.53506 0.28502 0.0
C450 C 0.98863 0.4465 0.22336 0.0
C451 C 0.98213 0.40921 0.19543 0.0
N452 N 0.96026 0.40296 0.20909 0.0
C453 C 0.9661 0.43971 0.23713 0.0
C454 C 0.99674 0.43117 0.20233 0.0
C455 C 0.95201 0.41763 0.22961 0.0
C456 C 0.95324 0.50831 0.18878 0.0
N457 N 0.94869 0.49873 0.21309 0.0
C458 C 0.90435 0.48935 0.20191 0.0
C459 C 0.92485 0.48926 0.21992 0.0
C460 C 0.90852 0.49922 0.17667 0.0
C461 C 0.93336 0.50877 0.17021 0.0
H462 H 0.97247 0.51542 0.18378 0.0
H463 H 0.92178 0.48119 0.23914 0.0
C464 C 0.99997 0.452 0.3176 0.0
N465 N 0.00341 0.44565 0.29211 0.0
C466 C 0.99955 0.4326 0.33669 0.0
C467 C 0.00624 0.40036 0.30295 0.0
C468 C 0.00696 0.42047 0.28451 0.0
C469 C 0.00222 0.40629 0.32945 0.0
H470 H 0.99763 0.47225 0.32308 0.0
H471 H 0.01025 0.41594 0.26419 0.0
C472 C 0.00171 0.55291 0.22185 0.0
N473 N 1.00064 0.60384 0.20426 0.0
C474 C 0.02482 0.56529 0.21435 0.0
C475 C 0.97801 0.56626 0.22 0.0
C476 C 0.02388 0.5911 0.20562 0.0
C477 C 0.97789 0.59205 0.21118 0.0
C478 C 0.05528 0.48478 0.27882 0.0
C479 C 0.07234 0.49314 0.29837 0.0
C480 C 0.06065 0.4618 0.26513 0.0
C481 C 0.09458 0.47838 0.30388 0.0
C482 C 0.08309 0.44758 0.27123 0.0
N483 N 0.09945 0.45609 0.29031 0.0
C484 C 0.99165 0.54798 0.3154 0.0
C485 C 0.01323 0.57548 0.28514 0.0
C486 C 0.99098 0.56799 0.33385 0.0
N487 N 0.00248 0.55207 0.29153 0.0
C488 C 0.01287 0.59612 0.30298 0.0
C489 C 0.00161 0.59245 0.32769 0.0
H490 H 0.98366 0.52904 0.32018 0.0
H491 H 0.02245 0.57812 0.26641 0.0
C492 C 0.05073 0.49123 0.18683 0.0
N493 N 0.05554 0.49931 0.21161 0.0
C494 C 0.07036 0.49224 0.16801 0.0
C495 C 0.0997 0.50959 0.20062 0.0
C496 C 0.07941 0.50836 0.21885 0.0
C497 C 0.09514 0.50177 0.17476 0.0
H498 H 0.03149 0.48426 0.18166 0.0
H499 H 0.0826 0.51495 0.23863 0.0
O500 O 0.97345 0.49815 0.27417 0.0
O501 O 0.00264 0.46816 0.23017 0.0
O502 O 0.00225 0.5276 0.23025 0.0
O503 O 0.03341 0.49905 0.27332 0.0
H504 H 0.94049 0.46604 0.29738 0.0
H505 H 0.95068 0.54419 0.2684 0.0
H506 H 0.89527 0.47758 0.31043 0.0
H507 H 0.90526 0.55435 0.28179 0.0
H508 H 0.98818 0.39716 0.17919 0.0
H509 H 0.95961 0.45129 0.25349 0.0
H510 H 0.01415 0.43619 0.19147 0.0
H511 H 0.93454 0.41215 0.24011 0.0
H512 H 0.88563 0.48127 0.20747 0.0
H513 H 0.93735 0.51657 0.15097 0.0
H514 H 0.9974 0.43822 0.35694 0.0
H515 H 0.00855 0.38037 0.29651 0.0
H516 H 0.0433 0.55515 0.21547 0.0
H517 H 0.95988 0.55677 0.22512 0.0
H518 H 0.04163 0.601 0.19992 0.0
H519 H 0.9597 0.60266 0.20974 0.0
H520 H 0.06841 0.51087 0.30916 0.0
H521 H 0.04771 0.45499 0.24994 0.0
H522 H 0.10797 0.48463 0.31895 0.0
H523 H 0.0875 0.42978 0.26079 0.0
H524 H 0.98217 0.5644 0.35273 0.0
H525 H 0.02179 0.61455 0.29774 0.0
H526 H 0.06622 0.48562 0.14837 0.0
H527 H 0.11856 0.5171 0.2065 0.0
Li528 Li 0.47666 1.0007 0.7356 0.0
Li529 Li 0.50148 0.97498 0.76765 0.0
Li530 Li 0.50147 0.02431 0.76864 0.0
Li531 Li 0.52593 1.00013 0.73493 0.0
C532 C 0.44553 0.99942 0.77759 0.0
N533 N 0.39197 0.99921 0.78385 0.0
C534 C 0.43246 0.97614 0.78315 0.0
C535 C 0.43141 0.02266 0.77565 0.0
C536 C 0.40537 0.97642 0.78614 0.0
C537 C 0.40433 0.02214 0.77875 0.0
C538 C 0.50302 0.94478 0.72406 0.0
C539 C 0.52888 0.90549 0.72228 0.0
N540 N 0.50747 0.89189 0.71449 0.0
C541 C 0.48136 0.93047 0.71572 0.0
C542 C 0.52705 0.93225 0.72709 0.0
C543 C 0.48397 0.90373 0.71109 0.0
C544 C 0.4454 0.02106 0.69537 0.0
N545 N 0.44646 0.00182 0.7136 0.0
C546 C 0.40649 0.98362 0.69771 0.0
C547 C 0.42749 0.98332 0.71514 0.0
C548 C 0.40498 0.00323 0.6786 0.0
C549 C 0.4247 0.02223 0.67772 0.0
H550 H 0.46092 0.03524 0.69412 0.0
H551 H 0.42896 0.96791 0.72944 0.0
C552 C 0.51878 0.94543 0.81025 0.0
N553 N 0.50229 0.94466 0.78949 0.0
C554 C 0.52019 0.92445 0.82756 0.0
C555 C 0.4871 0.90237 0.80227 0.0
C556 C 0.48652 0.92372 0.78527 0.0
C557 C 0.50421 0.90259 0.82366 0.0
H558 H 0.53059 0.96255 0.81366 0.0
H559 H 0.47312 0.92374 0.76901 0.0
C560 C 0.50218 0.05662 0.72698 0.0
N561 N 0.50343 0.1102 0.72096 0.0
C562 C 0.52493 0.06893 0.71837 0.0
C563 C 0.47994 0.07154 0.73215 0.0
C564 C 0.52521 0.09605 0.71553 0.0
C565 C 0.481 0.09861 0.72911 0.0
C566 C 0.55731 0.99904 0.77824 0.0
C567 C 0.57038 0.02181 0.78563 0.0
C568 C 0.57118 0.97565 0.7762 0.0
C569 C 0.59722 0.02091 0.79028 0.0
C570 C 0.59801 0.97554 0.78101 0.0
N571 N 0.61038 0.99799 0.78785 0.0
C572 C 0.48495 0.05183 0.8128 0.0
C573 C 0.51741 0.07439 0.78883 0.0
C574 C 0.48444 0.07154 0.83157 0.0
N575 N 0.5013 0.05351 0.79198 0.0
C576 C 0.51756 0.09457 0.80718 0.0
C577 C 0.50118 0.09307 0.82909 0.0
H578 H 0.47253 0.03495 0.81507 0.0
H579 H 0.53061 0.07514 0.77243 0.0
C580 C 0.55452 0.98365 0.6912 0.0
N581 N 0.5557 0.99972 0.71228 0.0
C582 C 0.57516 0.9826 0.67347 0.0
C583 C 0.59772 0.01519 0.69897 0.0
C584 C 0.57671 0.01544 0.71637 0.0
C585 C 0.59711 0.99849 0.67727 0.0
H586 H 0.53734 0.9719 0.68789 0.0
H587 H 0.57696 0.02861 0.7328 0.0
O588 O 0.47203 0.99948 0.77431 0.0
O589 O 0.50079 0.97095 0.72891 0.0
O590 O 0.50159 0.03009 0.73002 0.0
O591 O 0.53102 0.99958 0.77353 0.0
H592 H 0.44307 0.95802 0.78494 0.0
H593 H 0.44124 0.04091 0.77191 0.0
H594 H 0.39499 0.95851 0.79026 0.0
H595 H 0.39316 0.03997 0.77717 0.0
H596 H 0.54735 0.89555 0.72466 0.0
H597 H 0.4627 0.93985 0.71293 0.0
H598 H 0.54414 0.94311 0.73287 0.0
H599 H 0.46732 0.8924 0.7048 0.0
H600 H 0.39211 0.96818 0.69866 0.0
H601 H 0.42431 0.03766 0.66329 0.0
H602 H 0.53314 0.92562 0.84422 0.0
H603 H 0.4743 0.88592 0.79882 0.0
H604 H 0.54221 0.05772 0.71396 0.0
H605 H 0.46205 0.06232 0.73836 0.0
H606 H 0.54274 0.10583 0.70902 0.0
H607 H 0.46396 0.11038 0.73317 0.0
H608 H 0.55998 0.04001 0.78757 0.0
H609 H 0.56133 0.95771 0.77123 0.0
H610 H 0.60759 0.03844 0.79582 0.0
H611 H 0.60898 0.95758 0.7794 0.0
H612 H 0.4712 0.06987 0.84795 0.0
H613 H 0.53083 0.11082 0.80465 0.0
H614 H 0.57369 0.96996 0.65659 0.0
H615 H 0.61423 0.02793 0.70237 0.0
Li616 Li 0.00214 0.52798 0.73602 0.0
Li617 Li 0.97851 0.50327 0.76818 0.0
Li618 Li 0.02553 0.50333 0.77007 0.0
Li619 Li 0.00093 0.47804 0.73506 0.0
C620 C 0.00798 0.55877 0.77875 0.0
N621 N 0.02072 0.61048 0.78702 0.0
C622 C 0.98882 0.57651 0.78663 0.0
C623 C 0.03362 0.56729 0.77522 0.0
C624 C 0.99565 0.60259 0.79067 0.0
C625 C 0.03968 0.59352 0.77947 0.0
C626 C 0.94642 0.50709 0.72638 0.0
C627 C 0.90463 0.49099 0.71206 0.0
N628 N 0.89336 0.51368 0.71997 0.0
C629 C 0.93449 0.53031 0.73423 0.0
C630 C 0.93147 0.48728 0.71511 0.0
C631 C 0.9076 0.53323 0.73089 0.0
C632 C 0.01776 0.55428 0.6909 0.0
N633 N 0.0032 0.55722 0.71289 0.0
C634 C 0.98897 0.59937 0.69867 0.0
C635 C 0.98894 0.57922 0.71708 0.0
C636 C 0.00342 0.59657 0.67558 0.0
C637 C 0.01822 0.57383 0.67195 0.0
H638 H 0.02859 0.53645 0.68782 0.0
H639 H 0.97701 0.58092 0.73434 0.0
C640 C 0.95069 0.5178 0.81288 0.0
N641 N 0.9485 0.50339 0.79072 0.0
C642 C 0.93068 0.51784 0.83134 0.0
C643 C 0.90637 0.48817 0.80395 0.0
C644 C 0.92692 0.48864 0.78602 0.0
C645 C 0.90817 0.50287 0.82699 0.0
H646 H 0.96829 0.52882 0.81651 0.0
H647 H 0.92595 0.4766 0.76876 0.0
C648 C 0.05676 0.50016 0.72483 0.0
N649 N 0.10872 0.49481 0.71153 0.0
C650 C 0.06687 0.47558 0.71868 0.0
C651 C 0.07297 0.52206 0.72386 0.0
C652 C 0.09322 0.47328 0.71208 0.0
C653 C 0.09922 0.51894 0.71721 0.0
C654 C 0.98931 0.46002 0.79295 0.0
C655 C 0.99471 0.46645 0.81889 0.0
C656 C 0.96998 0.44162 0.78734 0.0
C657 C 0.9805 0.45448 0.83884 0.0
C658 C 0.95624 0.43004 0.80785 0.0
N659 N 0.96172 0.43668 0.83295 0.0
C660 C 0.05235 0.51716 0.8156 0.0
C661 C 0.07676 0.4889 0.78835 0.0
C662 C 0.07235 0.51741 0.83407 0.0
N663 N 0.0549 0.50318 0.79319 0.0
C664 C 0.09741 0.48883 0.8062 0.0
C665 C 0.09526 0.5032 0.82941 0.0
H666 H 0.03455 0.52786 0.81932 0.0
H667 H 0.07806 0.47718 0.77094 0.0
C668 C 0.00208 0.45524 0.68591 0.0
N669 N 0.00131 0.44932 0.71173 0.0
C670 C 0.00247 0.4354 0.66727 0.0
C671 C 0.00104 0.40367 0.70215 0.0
C672 C 0.00096 0.42417 0.72016 0.0
C673 C 0.00194 0.40917 0.67527 0.0
H674 H 0.00249 0.47545 0.67984 0.0
H675 H 1.00059 0.42001 0.74084 0.0
O676 O 0.00156 0.53323 0.77446 0.0
O677 O 0.97264 0.50372 0.72968 0.0
O678 O 0.031 0.50279 0.73122 0.0
O679 O 0.0025 0.4721 0.77315 0.0
H680 H 0.96882 0.57026 0.7893 0.0
H681 H 0.0487 0.55378 0.76933 0.0
H682 H 0.981 0.61656 0.79663 0.0
H683 H 0.05945 0.60038 0.77678 0.0
H684 H 0.89276 0.47581 0.70345 0.0
H685 H 0.94582 0.5457 0.74318 0.0
H686 H 0.94049 0.46921 0.70893 0.0
H687 H 0.89805 0.55102 0.73704 0.0
H688 H 0.97715 0.61657 0.70202 0.0
H689 H 0.0298 0.57108 0.65448 0.0
H690 H 0.93285 0.52936 0.84892 0.0
H691 H 0.88961 0.47587 0.80019 0.0
H692 H 0.05457 0.45843 0.71925 0.0
H693 H 0.06535 0.54129 0.72805 0.0
H694 H 0.10135 0.45436 0.70744 0.0
H695 H 0.11202 0.5357 0.71649 0.0
H696 H 0.00949 0.48076 0.82355 0.0
H697 H 0.96524 0.43674 0.76736 0.0
H698 H 0.98435 0.4594 0.859 0.0
H699 H 0.94109 0.41592 0.80379 0.0
H700 H 0.06996 0.52861 0.85184 0.0
H701 H 0.11458 0.47718 0.80221 0.0
H702 H 0.00338 0.44054 0.64679 0.0
H703 H 1.00007 0.38377 0.70919 0.0
Li704 Li 0.23589 0.50167 0.02615 0.0
Li705 Li 0.26882 0.47835 0.00198 0.0
Li706 Li 0.26881 0.5254 0.00228 0.0
Li707 Li 0.23531 0.50213 0.97909 0.0
C708 C 0.28043 0.48715 0.05389 0.0
N709 N 0.29337 0.45762 0.0971 0.0
C710 C 0.26545 0.46536 0.0606 0.0
C711 C 0.30198 0.49391 0.06914 0.0
C712 C 0.27232 0.45068 0.08252 0.0
C713 C 0.30821 0.47874 0.09092 0.0
C714 C 0.22459 0.44995 0.98797 0.0
C715 C 0.23296 0.42125 0.95162 0.0
N716 N 0.2121 0.40645 0.95869 0.0
C717 C 0.20327 0.43444 0.99489 0.0
C718 C 0.2396 0.44331 0.96618 0.0
C719 C 0.19726 0.41253 0.97983 0.0
C720 C 0.18817 0.49391 0.05015 0.0
N721 N 0.21295 0.50168 0.0554 0.0
C722 C 0.20166 0.51049 0.09983 0.0
C723 C 0.22006 0.50978 0.07966 0.0
C724 C 0.17578 0.50301 0.09479 0.0
C725 C 0.16921 0.49431 0.06965 0.0
H726 H 0.18311 0.48765 0.03064 0.0
H727 H 0.23988 0.51604 0.08329 0.0
C728 C 0.31573 0.45347 0.99086 0.0
N729 N 0.29183 0.44916 0.00148 0.0
C730 C 0.33414 0.43344 0.98986 0.0
C731 C 0.30313 0.40491 0.01109 0.0
C732 C 0.28521 0.42549 0.01153 0.0
C733 C 0.32788 0.40877 0.99998 0.0
H734 H 0.32052 0.47258 0.9833 0.0
H735 H 0.26607 0.4226 0.01992 0.0
C736 C 0.22522 0.55376 0.01784 0.0
N737 N 0.21397 0.597 0.04803 0.0
C738 C 0.20474 0.57037 0.01091 0.0
C739 C 0.24 0.55916 0.04013 0.0
C740 C 0.19936 0.59213 0.02642 0.0
C741 C 0.23399 0.5811 0.05513 0.0
C742 C 0.27837 0.51661 0.94992 0.0
C743 C 0.26424 0.53941 0.94496 0.0
C744 C 0.29781 0.50875 0.9325 0.0
C745 C 0.26985 0.55401 0.92264 0.0
C746 C 0.30283 0.52387 0.91038 0.0
N747 N 0.28886 0.546 0.90595 0.0
C748 C 0.31757 0.54837 0.00616 0.0
C749 C 0.2845 0.57924 0.99638 0.0
C750 C 0.33661 0.56782 0.00541 0.0
N751 N 0.29214 0.55436 0.00169 0.0
C752 C 0.30289 0.59939 0.99579 0.0
C753 C 0.32931 0.59367 1.00013 0.0
H754 H 0.32305 0.52838 0.01014 0.0
H755 H 0.26423 0.58344 0.99238 0.0
C756 C 0.18844 0.51358 0.95399 0.0
N757 N 0.21217 0.50249 0.94998 0.0
C758 C 0.16997 0.51415 0.934 0.0
C759 C 0.20057 0.49159 0.9061 0.0
C760 C 0.2186 0.49171 0.92659 0.0
C761 C 0.17587 0.50298 0.90966 0.0
H762 H 0.18383 0.52186 0.97284 0.0
H763 H 0.23759 0.48292 0.92392 0.0
O764 O 0.27429 0.50183 0.03246 0.0
O765 O 0.23059 0.47146 0.00261 0.0
O766 O 0.2305 0.53231 0.00284 0.0
O767 O 0.27336 0.5019 0.97164 0.0
H768 H 0.2487 0.45979 0.04907 0.0
H769 H 0.31378 0.51072 0.06416 0.0
H770 H 0.2609 0.43377 0.08793 0.0
H771 H 0.32484 0.48375 0.1029 0.0
H772 H 0.24439 0.41591 0.93471 0.0
H773 H 0.19148 0.4393 0.01173 0.0
H774 H 0.25619 0.45501 0.9605 0.0
H775 H 0.18079 0.40036 0.98496 0.0
H776 H 0.20744 0.51731 0.11897 0.0
H777 H 0.1496 0.48788 0.06512 0.0
H778 H 0.35321 0.43731 0.98161 0.0
H779 H 0.29765 0.38614 0.01911 0.0
H780 H 0.19313 0.5665 0.99369 0.0
H781 H 0.25598 0.54666 0.04581 0.0
H782 H 0.18356 0.60515 0.02127 0.0
H783 H 0.24527 0.5855 0.07242 0.0
H784 H 0.24908 0.54583 0.95813 0.0
H785 H 0.30889 0.49111 0.93603 0.0
H786 H 0.25907 0.57169 0.91857 0.0
H787 H 0.31782 0.51802 0.89673 0.0
H788 H 0.3568 0.56277 0.00906 0.0
H789 H 0.29664 0.61912 0.99151 0.0
H790 H 0.15123 0.52325 0.93756 0.0
H791 H 0.20575 0.48223 0.88789 0.0
Li792 Li 0.52559 0.26865 1.00006 0.0
Li793 Li 0.50174 0.23562 0.02599 0.0
Li794 Li 0.50177 0.23578 0.97661 0.0
Li795 Li 0.47779 0.26878 1.0006 0.0
C796 C 0.55776 0.22914 0.00437 0.0
N797 N 0.61126 0.22814 0.01085 0.0
C798 C 0.56849 0.22439 0.02899 0.0
C799 C 0.57424 0.23311 0.983 0.0
C800 C 0.59559 0.22402 0.03187 0.0
C801 C 0.60123 0.23262 0.98669 0.0
C802 C 0.48899 0.28312 0.05184 0.0
C803 C 0.45423 0.27917 0.0833 0.0
N804 N 0.46195 0.30197 0.09448 0.0
C805 C 0.49656 0.30652 0.06358 0.0
C806 C 0.46765 0.26932 0.06173 0.0
C807 C 0.48265 0.31572 0.08515 0.0
C808 C 0.56022 0.30661 0.97966 0.0
N809 N 0.55534 0.29105 1.00058 0.0
C810 C 0.59136 0.30955 0.02376 0.0
C811 C 0.57036 0.29221 0.02242 0.0
C812 C 0.59654 0.32628 0.00264 0.0
C813 C 0.58085 0.3244 0.98025 0.0
H814 H 0.5477 0.30568 0.96273 0.0
H815 H 0.5658 0.27991 0.03894 0.0
C816 C 0.49423 0.18839 0.05188 0.0
N817 N 0.50197 0.21344 0.05578 0.0
C818 C 0.49391 0.1707 0.07258 0.0
C819 C 0.5099 0.20482 0.10096 0.0
C820 C 0.50985 0.2219 0.07967 0.0
C821 C 0.5019 0.17882 0.09749 0.0
H822 H 0.48834 0.18216 0.03259 0.0
H823 H 0.51618 0.24188 0.08217 0.0
C824 C 0.49954 0.27494 0.94382 0.0
N825 N 0.49559 0.27577 0.89004 0.0
C826 C 0.47587 0.2814 0.93189 0.0
C827 C 0.52125 0.26911 0.92837 0.0
C828 C 0.47427 0.28168 0.90468 0.0
C829 C 0.51884 0.26955 0.90122 0.0
C830 C 0.44622 0.22525 0.99898 0.0
C831 C 0.43263 0.23323 0.97675 0.0
C832 C 0.43293 0.21229 0.01898 0.0
C833 C 0.40594 0.22806 0.97482 0.0
C834 C 0.40624 0.20745 0.01631 0.0
N835 N 0.39341 0.21536 0.99447 0.0
C836 C 0.52176 0.19414 0.94722 0.0
C837 C 0.48348 0.21227 0.92873 0.0
C838 C 0.52272 0.17514 0.92774 0.0
N839 N 0.50226 0.21213 0.94751 0.0
C840 C 0.48371 0.1936 0.90885 0.0
C841 C 0.50327 0.17445 0.90847 0.0
H842 H 0.53637 0.19423 0.9624 0.0
H843 H 0.46809 0.22659 0.92926 0.0
C844 C 0.45247 0.31549 0.98957 0.0
N845 N 0.44849 0.29204 0.0013 0.0
C846 C 0.43261 0.3341 0.98882 0.0
C847 C 0.40503 0.3045 0.01302 0.0
C848 C 0.4255 0.28646 0.01337 0.0
C849 C 0.40837 0.32857 1.00033 0.0
H850 H 0.47117 0.31974 0.98078 0.0
H851 H 0.42296 0.2681 0.02337 0.0
O852 O 0.53127 0.23001 0.00123 0.0
O853 O 0.50231 0.27397 0.03063 0.0
O854 O 0.50148 0.27438 0.97045 0.0
O855 O 0.47233 0.23028 0.00134 0.0
H856 H 0.55604 0.22125 0.04572 0.0
H857 H 0.56626 0.23665 0.96379 0.0
H858 H 0.60416 0.22051 0.05084 0.0
H859 H 0.61421 0.23581 0.97035 0.0
H860 H 0.43767 0.2687 0.09114 0.0
H861 H 0.51303 0.31744 0.05609 0.0
H862 H 0.46148 0.25124 0.0528 0.0
H863 H 0.4883 0.3338 0.09446 0.0
H864 H 0.60327 0.30997 0.0412 0.0
H865 H 0.58403 0.33708 0.96364 0.0
H866 H 0.48782 0.15077 0.06908 0.0
H867 H 0.5159 0.2119 0.11994 0.0
H868 H 0.45883 0.28593 0.94346 0.0
H869 H 0.53971 0.26412 0.93725 0.0
H870 H 0.45604 0.28652 0.8952 0.0
H871 H 0.53545 0.26493 0.88905 0.0
H872 H 0.44242 0.24387 0.96144 0.0
H873 H 0.44307 0.20615 0.03644 0.0
H874 H 0.39516 0.23428 0.95777 0.0
H875 H 0.39572 0.19745 0.03164 0.0
H876 H 0.53842 0.16099 0.92786 0.0
H877 H 0.46834 0.1937 0.89433 0.0
H878 H 0.43631 0.35274 0.97959 0.0
H879 H 0.38672 0.29961 0.02237 0.0
Li880 Li 0.73628 0.52515 0.00259 0.0
Li881 Li 0.76957 0.50074 0.02617 0.0
Li882 Li 0.76937 0.50096 0.9782 0.0
Li883 Li 0.73573 0.47679 0.00248 0.0
C884 C 0.78062 0.55531 0.99438 0.0
N885 N 0.79239 0.60532 0.97813 0.0
C886 C 0.79347 0.57249 0.01121 0.0
C887 C 0.77391 0.56348 0.96926 0.0
C888 C 0.7992 0.59773 0.00264 0.0
C889 C 0.78 0.58886 0.96141 0.0
C890 C 0.72493 0.51499 0.05457 0.0
C891 C 0.69699 0.52264 0.09164 0.0
N892 N 0.71173 0.54371 0.09822 0.0
C893 C 0.73981 0.53669 0.06171 0.0
C894 C 0.70336 0.50787 0.06963 0.0
C895 C 0.73282 0.55097 0.08384 0.0
C896 C 0.68943 0.55087 0.99239 0.0
N897 N 0.71356 0.55468 0.00268 0.0
C898 C 0.70275 0.59874 0.01366 0.0
C899 C 0.72048 0.57803 0.01326 0.0
C900 C 0.67757 0.59527 0.0034 0.0
C901 C 0.67107 0.57099 0.99248 0.0
H902 H 0.68435 0.53202 0.98438 0.0
H903 H 0.73962 0.58056 0.02167 0.0
C904 C 0.81701 0.5097 0.05105 0.0
N905 N 0.79255 0.50044 0.05534 0.0
C906 C 0.83541 0.50967 0.07112 0.0
C907 C 0.80311 0.49057 0.09971 0.0
C908 C 0.78528 0.49098 0.07905 0.0
C909 C 0.82855 0.50003 0.09583 0.0
H910 H 0.82223 0.51699 0.03194 0.0
H911 H 0.76575 0.48354 0.08187 0.0
C912 C 0.72297 0.49903 0.94784 0.0
N913 N 0.70631 0.49461 0.89676 0.0
C914 C 0.7183 0.47443 0.93704 0.0
C915 C 0.71871 0.5214 0.93282 0.0
C916 C 0.71001 0.4726 0.91114 0.0
C917 C 0.71042 0.51875 0.90699 0.0
C918 C 0.78065 0.44872 0.01596 0.0
C919 C 0.80189 0.4334 0.00841 0.0
C920 C 0.76628 0.44189 0.03812 0.0
C921 C 0.80839 0.4114 0.02315 0.0
C922 C 0.7734 0.41976 0.05235 0.0
N923 N 0.79413 0.4051 0.04463 0.0
C924 C 0.81487 0.5147 0.95125 0.0
C925 C 0.78732 0.48693 0.92667 0.0
C926 C 0.83313 0.51527 0.93106 0.0
N927 N 0.79232 0.50097 0.94864 0.0
C928 C 0.80511 0.4869 0.90596 0.0
C929 C 0.82835 0.50129 0.90801 0.0
H930 H 0.81887 0.52504 0.96918 0.0
H931 H 0.76985 0.4753 0.92536 0.0
C932 C 0.68768 0.45295 0.01005 0.0
N933 N 0.71254 0.44778 0.00249 0.0
C934 C 0.66912 0.43304 0.01084 0.0
C935 C 0.70206 0.40279 0.99588 0.0
C936 C 0.71999 0.42337 0.99522 0.0
C937 C 0.67629 0.40748 0.004 0.0
H938 H 0.68226 0.47265 0.01536 0.0
H939 H 0.73981 0.41985 0.98892 0.0
O940 O 0.77464 0.53064 0.00258 0.0
O941 O 0.73125 0.50075 0.0329 0.0
O942 O 0.73078 0.50123 0.97325 0.0
O943 O 0.77423 0.47041 0.00179 0.0
H944 H 0.7988 0.56642 0.03073 0.0
H945 H 0.76424 0.55031 0.95595 0.0
H946 H 0.80904 0.61128 0.01548 0.0
H947 H 0.7749 0.59546 0.94202 0.0
H948 H 0.68033 0.51737 0.10348 0.0
H949 H 0.75658 0.54249 0.05032 0.0
H950 H 0.69165 0.4911 0.06435 0.0
H951 H 0.74415 0.56782 0.08957 0.0
H952 H 0.70872 0.61728 0.02185 0.0
H953 H 0.65182 0.56746 0.98451 0.0
H954 H 0.8548 0.51721 0.06737 0.0
H955 H 0.79721 0.48252 0.11833 0.0
H956 H 0.72133 0.45693 0.94843 0.0
H957 H 0.72158 0.54062 0.94106 0.0
H958 H 0.70653 0.45368 0.90246 0.0
H959 H 0.70716 0.53588 0.8951 0.0
H960 H 0.81324 0.43848 0.99132 0.0
H961 H 0.74979 0.45351 0.04429 0.0
H962 H 0.82478 0.39936 0.01753 0.0
H963 H 0.76244 0.41425 0.06953 0.0
H964 H 0.85086 0.52652 0.93349 0.0
H965 H 0.80102 0.47524 0.88882 0.0
H966 H 0.64929 0.4377 0.01643 0.0
H967 H 0.70833 0.38339 0.99031 0.0
Li968 Li 0.50342 0.76814 0.02592 0.0
Li969 Li 0.47785 0.73488 0.00253 0.0
Li970 Li 0.52694 0.73444 0.00308 0.0
Li971 Li 0.50345 0.7672 0.97702 0.0
C972 C 0.49811 0.72945 0.05884 0.0
N973 N 0.48982 0.72988 0.11208 0.0
C974 C 0.47302 0.72563 0.06881 0.0
C975 C 0.51902 0.73328 0.07591 0.0
C976 C 0.46923 0.72594 0.0958 0.0
C977 C 0.51441 0.73351 0.10278 0.0
C978 C 0.44945 0.78176 0.99388 0.0
C979 C 0.41663 0.78738 0.96061 0.0
N980 N 0.40059 0.79863 0.9785 0.0
C981 C 0.43271 0.79357 0.01189 0.0
C982 C 0.44141 0.77879 0.96799 0.0
C983 C 0.40806 0.80189 0.00376 0.0
C984 C 0.52527 0.80628 0.05897 0.0
N985 N 0.50369 0.79133 0.05518 0.0
C986 C 0.48213 0.81207 0.09103 0.0
C987 C 0.48242 0.79368 0.07088 0.0
C988 C 0.50389 0.82828 0.0949 0.0
C989 C 0.52587 0.8248 0.07891 0.0
H990 H 0.54186 0.80422 0.04617 0.0
H991 H 0.46549 0.78159 0.06747 0.0
C992 C 0.45519 0.68613 0.00261 0.0
N993 N 0.44856 0.71179 0.00261 0.0
C994 C 0.43594 0.66689 0.00187 0.0
C995 C 0.40321 0.70079 0.00127 0.0
C996 C 0.42313 0.71942 0.00228 0.0
C997 C 0.40953 0.67412 1.00076 0.0
H998 H 0.47557 0.68064 0.00313 0.0
H999 H 0.41815 0.73983 0.00262 0.0
C1000 C 0.55964 0.774 0.99928 0.0
N1001 N 0.61332 0.77546 0.9947 0.0
C1002 C 0.57117 0.78132 0.97568 0.0
C1003 C 0.57539 0.76765 0.02062 0.0
C1004 C 0.59836 0.78191 0.97375 0.0
C1005 C 0.6025 0.76842 0.01789 0.0
C1006 C 0.49765 0.71927 0.94899 0.0
C1007 C 0.51794 0.70992 0.93334 0.0
C1008 C 0.472 0.71823 0.93977 0.0
C1009 C 0.5123 0.70027 0.90848 0.0
C1010 C 0.46715 0.70841 0.91481 0.0
N1011 N 0.48723 0.69974 0.8998 0.0
C1012 C 0.55789 0.69391 0.02361 0.0
C1013 C 0.57434 0.71183 0.98429 0.0
C1014 C 0.57835 0.67594 0.02453 0.0
N1015 N 0.55626 0.71137 0.00371 0.0
C1016 C 0.59522 0.6943 0.9845 0.0
C1017 C 0.59741 0.67603 0.00482 0.0
H1018 H 0.54302 0.69363 0.03856 0.0
H1019 H 0.57249 0.72571 0.96853 0.0
C1020 C 0.49327 0.81314 0.94952 0.0
N1021 N 0.50394 0.78901 0.94674 0.0
C1022 C 0.49288 0.83055 0.92859 0.0
C1023 C 0.51526 0.79834 0.90241 0.0
C1024 C 0.51498 0.78141 0.92383 0.0
C1025 C 0.50409 0.82325 0.90472 0.0
H1026 H 0.4851 0.81891 0.9681 0.0
H1027 H 0.52391 0.76242 0.92224 0.0
O1028 O 0.50215 0.72962 0.03247 0.0
O1029 O 0.47367 0.77354 0.00158 0.0
O1030 O 0.53306 0.77308 0.00147 0.0
O1031 O 0.50285 0.72857 0.97348 0.0
H1032 H 0.45662 0.7227 0.05585 0.0
H1033 H 0.53855 0.73624 0.06848 0.0
H1034 H 0.4499 0.72314 0.10381 0.0
H1035 H 0.53037 0.7366 0.11623 0.0
H1036 H 0.41017 0.78516 0.94064 0.0
H1037 H 0.43864 0.79624 0.03195 0.0
H1038 H 0.45421 0.77015 0.95366 0.0
H1039 H 0.39488 0.81096 0.01752 0.0
H1040 H 0.4648 0.81414 0.10295 0.0
H1041 H 0.54326 0.83649 0.08161 0.0
H1042 H 0.44171 0.64657 0.00233 0.0
H1043 H 0.38309 0.7072 1.00054 0.0
H1044 H 0.55928 0.78642 0.95901 0.0
H1045 H 0.56677 0.7619 0.03901 0.0
H1046 H 0.60756 0.78744 0.95557 0.0
H1047 H 0.61493 0.76337 0.03418 0.0
H1048 H 0.53786 0.71028 0.94022 0.0
H1049 H 0.45594 0.72471 0.95177 0.0
H1050 H 0.52785 0.69316 0.8961 0.0
H1051 H 0.44739 0.70759 0.90743 0.0
H1052 H 0.57887 0.66172 0.04015 0.0
H1053 H 0.60948 0.69498 0.96892 0.0
H1054 H 0.48435 0.84971 0.93117 0.0
H1055 H 0.52404 0.79203 0.88425 0.0
C1056 C 0.01982 0.34515 0.36796 0.0
C1057 C 0.00177 0.34553 0.38855 0.0
C1058 C 0.01971 0.36473 0.34881 0.0
C1059 C 0.00136 0.38522 0.34948 0.0
H1060 H 0.03443 0.3299 0.36697 0.0
H1061 H 0.03445 0.36409 0.33367 0.0
S1062 S 0.94832 0.3931 0.39828 0.0
N1063 N 0.96435 0.3669 0.40802 0.0
N1064 N 0.96334 0.40324 0.37162 0.0
C1065 C 0.98269 0.38521 0.36968 0.0
C1066 C 0.98308 0.36547 0.3893 0.0
C1067 C 0.63912 0.98051 0.37998 0.0
C1068 C 0.65468 0.00257 0.38501 0.0
C1069 C 0.62002 0.98083 0.3604 0.0
C1070 C 0.61557 0.0033 0.34526 0.0
H1071 H 0.64171 0.96285 0.39132 0.0
H1072 H 0.60822 0.96353 0.35751 0.0
S1073 S 0.65139 0.066 0.35026 0.0
N1074 N 0.66453 0.04742 0.37308 0.0
N1075 N 0.62887 0.04789 0.33603 0.0
C1076 C 0.63124 0.02536 0.34983 0.0
C1077 C 0.65075 0.02501 0.36971 0.0
C1078 C 0.01057 0.60874 0.37279 0.0
C1079 C 0.00153 0.61369 0.34736 0.0
C1080 C 0.01011 0.62818 0.392 0.0
C1081 C 1.00049 0.65332 0.38657 0.0
H1082 H 0.0182 0.58968 0.37786 0.0
H1083 H 0.01746 0.62349 0.41126 0.0
S1084 S 0.97326 0.67582 0.32335 0.0
N1085 N 0.98203 0.64529 0.31788 0.0
N1086 N 0.98089 0.68183 0.35407 0.0
C1087 C 0.99137 0.65854 0.36119 0.0
C1088 C 0.99195 0.63874 0.34159 0.0
C1089 C 0.34826 0.01994 0.37114 0.0
C1090 C 0.34375 0.99739 0.38616 0.0
C1091 C 0.36739 0.02027 0.35154 0.0
C1092 C 0.38267 0.99807 0.34626 0.0
H1093 H 0.33745 0.03767 0.37507 0.0
H1094 H 0.37076 0.03827 0.34097 0.0
S1095 S 0.37619 0.93324 0.37782 0.0
N1096 N 0.35452 0.95171 0.3929 0.0
N1097 N 0.39038 0.95231 0.35606 0.0
C1098 C 0.37765 0.97514 0.36048 0.0
C1099 C 0.35823 0.97481 0.38042 0.0
C1100 C 0.00783 0.64302 0.66069 0.0
C1101 C 0.00222 0.61678 0.65489 0.0
C1102 C 0.00692 0.66231 0.64123 0.0
C1103 C 0.99988 0.65605 0.61544 0.0
H1104 H 0.01322 0.64861 0.68035 0.0
H1105 H 0.01142 0.68229 0.64643 0.0
S1106 S 0.98316 0.5903 0.59029 0.0
N1107 N 0.98924 0.58561 0.62159 0.0
N1108 N 0.98749 0.6218 0.58509 0.0
C1109 C 0.99415 0.62991 0.60945 0.0
C1110 C 0.99534 0.61029 0.62914 0.0
C1111 C 0.39053 0.00644 0.63207 0.0
C1112 C 0.384 0.00307 0.65853 0.0
C1113 C 0.37144 0.00585 0.61255 0.0
C1114 C 0.34496 0.00186 0.61863 0.0
H1115 H 0.41068 0.0092 0.6263 0.0
H1116 H 0.37749 0.00865 0.59249 0.0
S1117 S 0.31744 0.99233 0.68493 0.0
N1118 N 0.34904 0.9962 0.68988 0.0
N1119 N 0.31317 0.99439 0.65306 0.0
C1120 C 0.33807 0.99861 0.64502 0.0
C1121 C 0.35757 0.99927 0.66496 0.0
C1122 C 0.98604 0.37064 0.61385 0.0
C1123 C 0.00203 0.34847 0.61603 0.0
C1124 C 0.98589 0.3899 0.63325 0.0
C1125 C 0.00193 0.38788 0.65549 0.0
H1126 H 0.97345 0.37304 0.59704 0.0
H1127 H 0.97303 0.4065 0.63083 0.0
S1128 S 0.04857 0.33424 0.66951 0.0
N1129 N 0.03477 0.32578 0.64165 0.0
N1130 N 0.03505 0.36226 0.6779 0.0
C1131 C 0.01812 0.36579 0.65781 0.0
C1132 C 0.01805 0.34604 0.63813 0.0
C1133 C 0.62656 0.02213 0.64633 0.0
C1134 C 0.61863 0.99855 0.65792 0.0
C1135 C 0.64552 0.02248 0.62659 0.0
C1136 C 0.6575 0.99931 0.61803 0.0
H1137 H 0.61752 0.04036 0.65205 0.0
H1138 H 0.65077 0.04101 0.61787 0.0
S1139 S 0.64435 0.93262 0.64287 0.0
N1140 N 0.62473 0.95158 0.66003 0.0
N1141 N 0.66041 0.95223 0.62296 0.0
C1142 C 0.65019 0.97569 0.6299 0.0
C1143 C 0.63071 0.97531 0.6498 0.0
C1144 C 0.37318 0.35449 0.02244 0.0
C1145 C 0.38692 0.34808 0.99953 0.0
C1146 C 0.35373 0.37377 0.02234 0.0
C1147 C 0.34738 0.38737 0.99935 0.0
H1148 H 0.37794 0.34501 0.04072 0.0
H1149 H 0.34406 0.37854 0.04053 0.0
S1150 S 0.37539 0.37585 0.93365 0.0
N1151 N 0.39122 0.35536 0.95283 0.0
N1152 N 0.35487 0.39172 0.95275 0.0
C1153 C 0.36039 0.3806 0.97619 0.0
C1154 C 0.3801 0.36094 0.97625 0.0
C1155 C 0.34717 0.63648 0.01543 0.0
C1156 C 0.3493 0.61451 0.99915 0.0
C1157 C 0.36658 0.6558 0.01566 0.0
C1158 C 0.38871 0.65392 0.99945 0.0
H1159 H 0.33069 0.63842 0.02852 0.0
H1160 H 0.3645 0.67203 0.02903 0.0
S1161 S 0.40171 0.60163 0.95103 0.0
N1162 N 0.37415 0.59279 0.96519 0.0
N1163 N 0.41033 0.62932 0.96507 0.0
C1164 C 0.39054 0.63243 0.98245 0.0
C1165 C 0.37091 0.61268 0.98242 0.0
C1166 C 0.63482 0.34963 0.98291 0.0
C1167 C 0.61763 0.3462 0.00407 0.0
C1168 C 0.65407 0.3691 0.98327 0.0
C1169 C 0.65677 0.38601 0.00473 0.0
H1170 H 0.63333 0.33722 0.96587 0.0
H1171 H 0.66652 0.37131 0.96633 0.0
S1172 S 0.61719 0.38478 0.06537 0.0
N1173 N 0.60473 0.36131 0.04717 0.0
N1174 N 0.64136 0.39732 0.04815 0.0
C1175 C 0.64005 0.38247 0.02622 0.0
C1176 C 0.62042 0.3627 0.02584 0.0
C1177 C 0.64342 0.62267 0.98161 0.0
C1178 C 0.65799 0.61667 0.0041 0.0
C1179 C 0.62425 0.64218 0.98192 0.0
C1180 C 0.61877 0.65638 0.00478 0.0
H1181 H 0.64686 0.61218 0.96359 0.0
H1182 H 0.61326 0.6458 0.96423 0.0
S1183 S 0.65169 0.6486 0.06879 0.0
N1184 N 0.66565 0.62657 0.04988 0.0
N1185 N 0.63006 0.66366 0.05028 0.0
C1186 C 0.63342 0.65083 0.02732 0.0
C1187 C 0.65295 0.63094 0.02701 0.0
C1188 C 0.48109 0.85402 0.87457 0.0
C1189 C 0.5044 0.84194 0.88262 0.0
C1190 C 0.48108 0.87298 0.85483 0.0
C1191 C 0.50443 0.88081 0.84272 0.0
H1192 H 0.46276 0.84892 0.88378 0.0
H1193 H 0.46278 0.88216 0.84957 0.0
S1194 S 0.57053 0.85468 0.8562 0.0
N1195 N 0.55131 0.8387 0.87656 0.0
N1196 N 0.5513 0.87442 0.8395 0.0
C1197 C 0.52778 0.86855 0.85025 0.0
C1198 C 0.52776 0.84906 0.87016 0.0
C1199 C 0.12991 0.49604 0.89445 0.0
C1200 C 0.15592 0.50268 0.88854 0.0
C1201 C 0.11051 0.49617 0.87519 0.0
C1202 C 0.11636 0.50273 0.84921 0.0
H1203 H 0.12449 0.49055 0.91413 0.0
H1204 H 0.09077 0.49091 0.88065 0.0
S1205 S 0.18094 0.52278 0.82358 0.0
N1206 N 0.18619 0.51697 0.85485 0.0
N1207 N 0.14971 0.51665 0.81857 0.0
C1208 C 0.14222 0.50929 0.84292 0.0
C1209 C 0.16199 0.50939 0.86258 0.0
C1210 C 0.50004 0.14009 0.84273 0.0
C1211 C 0.50197 0.11356 0.84957 0.0
C1212 C 0.50037 0.15968 0.86187 0.0
C1213 C 0.50298 0.15346 0.88849 0.0
H1214 H 0.49793 0.14571 0.82246 0.0
H1215 H 0.49879 0.17986 0.85578 0.0
S1216 S 0.50903 0.08699 0.91656 0.0
N1217 N 0.50702 0.08215 0.88477 0.0
N1218 N 0.50724 0.11889 0.9207 0.0
C1219 C 0.50504 0.12702 0.89555 0.0
C1220 C 0.5046 0.10711 0.87612 0.0
C1221 C 0.89373 0.49732 0.87328 0.0
C1222 C 0.88724 0.50193 0.84701 0.0
C1223 C 0.87454 0.4969 0.89274 0.0
C1224 C 0.84808 0.50112 0.88673 0.0
H1225 H 0.91383 0.49385 0.87883 0.0
H1226 H 0.88048 0.49311 0.91267 0.0
S1227 S 0.82102 0.51527 0.82109 0.0
N1228 N 0.85262 0.51147 0.81605 0.0
N1229 N 0.81649 0.5108 0.85269 0.0
C1230 C 0.8413 0.50571 0.86053 0.0
C1231 C 0.86088 0.50609 0.84067 0.0
C1232 C 0.47948 0.12567 0.14408 0.0
C1233 C 0.50159 0.12138 0.15978 0.0
C1234 C 0.47965 0.14454 0.12427 0.0
C1235 C 0.50184 0.16002 0.11956 0.0
H1236 H 0.46215 0.11385 0.14665 0.0
H1237 H 0.46231 0.14693 0.11243 0.0
S1238 S 0.56434 0.15724 0.15594 0.0
N1239 N 0.54591 0.13484 0.16998 0.0
N1240 N 0.54633 0.17012 0.13253 0.0
C1241 C 0.52386 0.15636 0.13551 0.0
C1242 C 0.52373 0.13705 0.15561 0.0
C1243 C 0.89253 0.48923 0.13164 0.0
C1244 C 0.88743 0.49897 0.15679 0.0
C1245 C 0.87331 0.48942 0.11221 0.0
C1246 C 0.84821 0.49936 0.11714 0.0
H1247 H 0.91155 0.48128 0.12695 0.0
H1248 H 0.87813 0.4816 0.09317 0.0
S1249 S 0.82525 0.52832 0.17938 0.0
N1250 N 0.85566 0.51951 0.18539 0.0
N1251 N 0.81949 0.5199 0.14882 0.0
C1252 C 0.84279 0.50912 0.14222 0.0
C1253 C 0.8624 0.50891 0.16204 0.0
C1254 C 0.4951 0.84382 0.14056 0.0
C1255 C 0.50336 0.84926 0.11493 0.0
C1256 C 0.49442 0.86343 0.15968 0.0
C1257 C 0.50169 0.88926 0.1538 0.0
H1258 H 0.48932 0.82421 0.14593 0.0
H1259 H 0.4878 0.85843 0.17913 0.0
S1260 S 0.52475 0.91367 0.08962 0.0
N1261 N 0.51865 0.88244 0.08464 0.0
N1262 N 0.51795 0.91906 0.12064 0.0
C1263 C 0.51007 0.89491 0.12827 0.0
C1264 C 0.51078 0.87498 0.10885 0.0
C1265 C 0.16017 0.49287 0.14011 0.0
C1266 C 0.15558 0.50425 0.11553 0.0
C1267 C 0.14071 0.49256 0.1594 0.0
C1268 C 0.116 0.50361 0.15476 0.0
H1269 H 0.17868 0.48353 0.14421 0.0
H1270 H 0.14479 0.48303 0.17782 0.0
S1271 S 0.09538 0.53878 0.09496 0.0
N1272 N 0.12537 0.52892 0.08854 0.0
N1273 N 0.08884 0.52825 0.1247 0.0
C1274 C 0.11153 0.51587 0.13063 0.0
C1275 C 0.1313 0.51622 0.11105 0.0
C1276 C 0.84113 0.86316 0.50152 0.0
C1277 C 0.84777 0.88964 0.49849 0.0
C1278 C 0.86036 0.84365 0.50136 0.0
C1279 C 0.88688 0.84996 0.49826 0.0
H1280 H 0.82099 0.85751 0.50454 0.0
H1281 H 0.85449 0.82354 0.50419 0.0
S1282 S 0.91419 0.91593 0.48661 0.0
N1283 N 0.88254 0.92084 0.49011 0.0
N1284 N 0.91861 0.88421 0.49016 0.0
C1285 C 0.8937 0.87625 0.49454 0.0
C1286 C 0.87417 0.89607 0.49457 0.0
C1287 C 0.88487 0.13546 0.48291 0.0
C1288 C 0.88659 0.15424 0.50288 0.0
C1289 C 0.86531 0.11637 0.48304 0.0
C1290 C 0.84659 0.11535 0.50308 0.0
H1291 H 0.89879 0.13551 0.467 0.0
H1292 H 0.86481 0.10227 0.4673 0.0
S1293 S 0.84296 0.15922 0.56049 0.0
N1294 N 0.86821 0.17011 0.54367 0.0
N1295 N 0.83124 0.13434 0.5437 0.0
C1296 C 0.84788 0.13409 0.52306 0.0
C1297 C 0.8679 0.15349 0.52301 0.0
C1298 C 0.13307 0.84656 0.51769 0.0
C1299 C 0.1121 0.84781 0.49998 0.0
C1300 C 0.15266 0.86569 0.51779 0.0
C1301 C 0.15192 0.88681 0.50028 0.0
H1302 H 0.13406 0.83098 0.53194 0.0
H1303 H 0.16822 0.86425 0.53203 0.0
S1304 S 0.10292 0.89762 0.44818 0.0
N1305 N 0.09302 0.87082 0.46309 0.0
N1306 N 0.12964 0.90691 0.4636 0.0
C1307 C 0.13147 0.88796 0.48207 0.0
C1308 C 0.11162 0.86844 0.48185 0.0
C1309 C 0.13104 0.14895 0.52443 0.0
C1310 C 0.11816 0.15631 0.50132 0.0
C1311 C 0.15011 0.12928 0.52433 0.0
C1312 C 0.15696 0.11629 0.50112 0.0
H1313 H 0.12578 0.15791 0.54284 0.0
H1314 H 0.15898 0.12366 0.54268 0.0
S1315 S 0.1314 0.13069 0.43494 0.0
N1316 N 0.11526 0.15073 0.45432 0.0
N1317 N 0.15106 0.11384 0.45412 0.0
C1318 C 0.14495 0.1242 0.47776 0.0
C1319 C 0.12557 0.14418 0.47786 0.0
loop_
_geom_bond_atom_site_label_1
_geom_bond_atom_site_label_2
_geom_bond_distance
_geom_bond_site_symmetry_2
_ccdc_geom_bond_type
Li0 N17 1.990 . S
Li0 O60 1.956 . S
Li0 O61 1.974 . S
Li0 O62 1.950 1_655 S
Li1 N25 1.991 . S
Li1 O60 1.955 1_455 S
Li1 O61 1.956 1_455 S
Li1 O63 1.976 . S
Li2 N47 1.991 . S
Li2 O60 1.969 . S
Li2 O62 1.956 1_655 S
Li2 O63 1.962 1_655 S
Li3 N53 1.990 . S
Li3 O61 1.957 1_455 S
Li3 O62 1.981 . S
Li3 O63 1.956 . S
C4 C6 1.348 . S
C4 C7 1.356 . S
C4 O60 1.325 . S
N5 C8 1.314 . S
N5 C9 1.279 . S
C6 C4 1.348 . S
C6 C8 1.353 . S
C6 H64 0.929 . S
C7 C4 1.356 . S
C7 C9 1.358 . S
C7 H65 0.930 . S
C8 N5 1.314 . S
C8 C6 1.353 . S
C8 H66 0.930 . S
C9 N5 1.279 . S
C9 C7 1.358 . S
C9 H67 0.930 . S
C10 C13 1.345 1_455 S
C10 C14 1.359 . S
C10 O61 1.325 1_455 S
C11 N12 1.279 . S
C11 C14 1.358 . S
C11 H68 0.930 . S
N12 C11 1.279 . S
N12 C15 1.314 1_455 S
C13 C10 1.345 1_655 S
C13 C15 1.353 . S
C13 H69 0.929 . S
C14 C10 1.359 . S
C14 C11 1.358 . S
C14 H70 0.930 . S
C15 N12 1.314 1_655 S
C15 C13 1.353 . S
C15 H71 0.930 . S
C16 N17 1.314 . S
C16 C21 1.353 . S
C16 H22 0.930 . S
N17 Li0 1.990 . S
N17 C16 1.314 . S
N17 C19 1.279 . S
C18 C19 1.358 . S
C18 C20 1.356 . S
C18 H72 0.930 . S
C19 N17 1.279 . S
C19 C18 1.358 . S
C19 H23 0.930 . S
C20 C18 1.356 . S
C20 C21 1.348 . S
C21 C16 1.353 . S
C21 C20 1.348 . S
C21 H73 0.929 . S
H22 C16 0.930 . S
H23 C19 0.930 . S
C24 N25 1.314 . S
C24 C26 1.353 . S
C24 H30 0.930 . S
N25 Li1 1.991 . S
N25 C24 1.314 . S
N25 C28 1.279 1_455 S
C26 C24 1.353 . S
C26 C29 1.346 . S
C26 H74 0.929 . S
C27 C28 1.358 . S
C27 C29 1.357 1_655 S
C27 H75 0.930 . S
C28 N25 1.279 1_655 S
C28 C27 1.358 . S
C28 H31 0.930 . S
C29 C26 1.346 . S
C29 C27 1.357 1_455 S
H30 C24 0.930 . S
H31 C28 0.930 . S
C32 C34 1.345 . S
C32 C35 1.359 1_455 S
C32 O62 1.325 . S
N33 C36 1.314 1_655 S
N33 C37 1.279 . S
C34 C32 1.345 . S
C34 C36 1.353 . S
C34 H76 0.929 . S
C35 C32 1.359 1_655 S
C35 C37 1.358 . S
C35 H77 0.930 . S
C36 N33 1.314 1_455 S
C36 C34 1.353 . S
C36 H78 0.930 . S
C37 N33 1.279 . S
C37 C35 1.358 . S
C37 H79 0.930 . S
C38 C39 1.348 . S
C38 C40 1.356 . S
C38 O63 1.325 . S
C39 C38 1.348 . S
C39 C41 1.353 . S
C39 H80 0.929 . S
C40 C38 1.356 . S
C40 C42 1.358 . S
C40 H81 0.930 . S
C41 C39 1.353 . S
C41 N43 1.314 . S
C41 H82 0.930 . S
C42 C40 1.358 . S
C42 N43 1.279 . S
C42 H83 0.930 . S
N43 C41 1.314 . S
N43 C42 1.279 . S
C44 C46 1.353 . S
C44 N47 1.314 . S
C44 H50 0.930 . S
C45 N47 1.279 1_455 S
C45 C48 1.358 . S
C45 H51 0.930 . S
C46 C44 1.353 . S
C46 C49 1.346 1_655 S
C46 H84 0.929 . S
N47 Li2 1.991 . S
N47 C44 1.314 . S
N47 C45 1.279 1_655 S
C48 C45 1.358 . S
C48 C49 1.357 . S
C48 H85 0.930 . S
C49 C46 1.346 1_455 S
C49 C48 1.357 . S
H50 C44 0.930 . S
H51 C45 0.930 . S
C52 N53 1.314 . S
C52 C54 1.353 . S
C52 H58 0.930 . S
N53 Li3 1.990 . S
N53 C52 1.314 . S
N53 C56 1.279 . S
C54 C52 1.353 . S
C54 C57 1.348 . S
C54 H86 0.929 . S
C55 C56 1.358 . S
C55 C57 1.356 . S
C55 H87 0.930 . S
C56 N53 1.279 . S
C56 C55 1.358 . S
C56 H59 0.930 . S
C57 C54 1.348 . S
C57 C55 1.356 . S
H58 C52 0.930 . S
H59 C56 0.930 . S
O60 Li0 1.956 . S
O60 Li1 1.955 1_655 S
O60 Li2 1.969 . S
O60 C4 1.325 . S
O61 Li0 1.974 . S
O61 Li1 1.956 1_655 S
O61 Li3 1.957 1_655 S
O61 C10 1.325 1_655 S
O62 Li0 1.950 1_455 S
O62 Li2 1.956 1_455 S
O62 Li3 1.981 . S
O62 C32 1.325 . S
O63 Li1 1.976 . S
O63 Li2 1.962 1_455 S
O63 Li3 1.956 . S
O63 C38 1.325 . S
H64 C6 0.929 . S
H65 C7 0.930 . S
H66 C8 0.930 . S
H67 C9 0.930 . S
H68 C11 0.930 . S
H69 C13 0.929 . S
H70 C14 0.930 . S
H71 C15 0.930 . S
H72 C18 0.930 . S
H73 C21 0.929 . S
H74 C26 0.929 . S
H75 C27 0.930 . S
H76 C34 0.929 . S
H77 C35 0.930 . S
H78 C36 0.930 . S
H79 C37 0.930 . S
H80 C39 0.929 . S
H81 C40 0.930 . S
H82 C41 0.930 . S
H83 C42 0.930 . S
H84 C46 0.929 . S
H85 C48 0.930 . S
H86 C54 0.929 . S
H87 C55 0.930 . S
Li88 N105 1.991 . S
Li88 O148 1.956 1_545 S
Li88 O149 1.955 1_545 S
Li88 O150 1.976 . S
Li89 N113 1.990 . S
Li89 O148 1.974 . S
Li89 O149 1.956 . S
Li89 O151 1.950 1_565 S
Li90 N135 1.990 . S
Li90 O148 1.957 1_545 S
Li90 O150 1.956 . S
Li90 O151 1.981 . S
Li91 N141 1.991 . S
Li91 O149 1.969 . S
Li91 O150 1.962 1_565 S
Li91 O151 1.956 1_565 S
C92 C94 1.345 1_545 S
C92 C95 1.359 . S
C92 O148 1.325 1_545 S
N93 C96 1.314 1_545 S
N93 C97 1.279 . S
C94 C92 1.345 1_565 S
C94 C96 1.353 . S
C94 H152 0.929 . S
C95 C92 1.359 . S
C95 C97 1.358 . S
C95 H153 0.930 . S
C96 N93 1.314 1_565 S
C96 C94 1.353 . S
C96 H154 0.930 . S
C97 N93 1.279 . S
C97 C95 1.358 . S
C97 H155 0.930 . S
C98 C101 1.348 . S
C98 C102 1.356 . S
C98 O149 1.325 . S
C99 N100 1.279 . S
C99 C102 1.358 . S
C99 H156 0.930 . S
N100 C99 1.279 . S
N100 C103 1.314 . S
C101 C98 1.348 . S
C101 C103 1.353 . S
C101 H157 0.929 . S
C102 C98 1.356 . S
C102 C99 1.358 . S
C102 H158 0.930 . S
C103 N100 1.314 . S
C103 C101 1.353 . S
C103 H159 0.930 . S
C104 N105 1.314 . S
C104 C109 1.353 . S
C104 H110 0.930 . S
N105 Li88 1.991 . S
N105 C104 1.314 . S
N105 C107 1.279 1_545 S
C106 C107 1.358 . S
C106 C108 1.357 1_565 S
C106 H160 0.930 . S
C107 N105 1.279 1_565 S
C107 C106 1.358 . S
C107 H111 0.930 . S
C108 C106 1.357 1_545 S
C108 C109 1.346 . S
C109 C104 1.353 . S
C109 C108 1.346 . S
C109 H161 0.929 . S
H110 C104 0.930 . S
H111 C107 0.930 . S
C112 N113 1.314 . S
C112 C114 1.353 . S
C112 H118 0.930 . S
N113 Li89 1.990 . S
N113 C112 1.314 . S
N113 C116 1.279 . S
C114 C112 1.353 . S
C114 C117 1.348 . S
C114 H162 0.929 . S
C115 C116 1.358 . S
C115 C117 1.356 . S
C115 H163 0.930 . S
C116 N113 1.279 . S
C116 C115 1.358 . S
C116 H119 0.930 . S
C117 C114 1.348 . S
C117 C115 1.356 . S
H118 C112 0.930 . S
H119 C116 0.930 . S
C120 C122 1.348 . S
C120 C123 1.356 . S
C120 O150 1.325 . S
N121 C124 1.314 . S
N121 C125 1.279 . S
C122 C120 1.348 . S
C122 C124 1.353 . S
C122 H164 0.929 . S
C123 C120 1.356 . S
C123 C125 1.358 . S
C123 H165 0.930 . S
C124 N121 1.314 . S
C124 C122 1.353 . S
C124 H166 0.930 . S
C125 N121 1.279 . S
C125 C123 1.358 . S
C125 H167 0.930 . S
C126 C127 1.345 . S
C126 C128 1.359 1_545 S
C126 O151 1.325 . S
C127 C126 1.345 . S
C127 C129 1.353 . S
C127 H168 0.929 . S
C128 C126 1.359 1_565 S
C128 C130 1.358 . S
C128 H169 0.930 . S
C129 C127 1.353 . S
C129 N131 1.314 1_545 S
C129 H170 0.930 . S
C130 C128 1.358 . S
C130 N131 1.279 . S
C130 H171 0.930 . S
N131 C129 1.314 1_565 S
N131 C130 1.279 . S
C132 C134 1.353 . S
C132 N135 1.314 . S
C132 H138 0.930 . S
C133 N135 1.279 . S
C133 C136 1.358 . S
C133 H139 0.930 . S
C134 C132 1.353 . S
C134 C137 1.348 . S
C134 H172 0.929 . S
N135 Li90 1.990 . S
N135 C132 1.314 . S
N135 C133 1.279 . S
C136 C133 1.358 . S
C136 C137 1.356 . S
C136 H173 0.930 . S
C137 C134 1.348 . S
C137 C136 1.356 . S
H138 C132 0.930 . S
H139 C133 0.930 . S
C140 N141 1.314 . S
C140 C142 1.353 . S
C140 H146 0.930 . S
N141 Li91 1.991 . S
N141 C140 1.314 . S
N141 C144 1.279 1_565 S
C142 C140 1.353 . S
C142 C145 1.346 1_565 S
C142 H174 0.929 . S
C143 C144 1.358 . S
C143 C145 1.357 . S
C143 H175 0.930 . S
C144 N141 1.279 1_545 S
C144 C143 1.358 . S
C144 H147 0.930 . S
C145 C142 1.346 1_545 S
C145 C143 1.357 . S
H146 C140 0.930 . S
H147 C144 0.930 . S
O148 Li88 1.956 1_565 S
O148 Li89 1.974 . S
O148 Li90 1.957 1_565 S
O148 C92 1.325 1_565 S
O149 Li88 1.955 1_565 S
O149 Li89 1.956 . S
O149 Li91 1.969 . S
O149 C98 1.325 . S
O150 Li88 1.976 . S
O150 Li90 1.956 . S
O150 Li91 1.962 1_545 S
O150 C120 1.325 . S
O151 Li89 1.950 1_545 S
O151 Li90 1.981 . S
O151 Li91 1.956 1_545 S
O151 C126 1.325 . S
H152 C94 0.929 . S
H153 C95 0.930 . S
H154 C96 0.930 . S
H155 C97 0.930 . S
H156 C99 0.930 . S
H157 C101 0.929 . S
H158 C102 0.930 . S
H159 C103 0.930 . S
H160 C106 0.930 . S
H161 C109 0.929 . S
H162 C114 0.929 . S
H163 C115 0.930 . S
H164 C122 0.929 . S
H165 C123 0.930 . S
H166 C124 0.930 . S
H167 C125 0.930 . S
H168 C127 0.929 . S
H169 C128 0.930 . S
H170 C129 0.930 . S
H171 C130 0.930 . S
H172 C134 0.929 . S
H173 C136 0.930 . S
H174 C142 0.929 . S
H175 C143 0.930 . S
Li176 N193 1.990 . S
Li176 O236 1.956 . S
Li176 O237 1.981 . S
Li176 O238 1.957 1_455 S
Li177 N201 1.991 . S
Li177 O236 1.962 1_655 S
Li177 O237 1.956 1_655 S
Li177 O239 1.969 . S
Li178 N223 1.991 . S
Li178 O236 1.976 . S
Li178 O238 1.956 1_455 S
Li178 O239 1.955 1_455 S
Li179 N229 1.990 . S
Li179 O237 1.950 1_655 S
Li179 O238 1.974 . S
Li179 O239 1.956 . S
C180 C182 1.348 . S
C180 C183 1.356 . S
C180 O236 1.325 . S
N181 C184 1.314 . S
N181 C185 1.279 . S
C182 C180 1.348 . S
C182 C184 1.353 . S
C182 H240 0.929 . S
C183 C180 1.356 . S
C183 C185 1.358 . S
C183 H241 0.930 . S
C184 N181 1.314 . S
C184 C182 1.353 . S
C184 H242 0.930 . S
C185 N181 1.279 . S
C185 C183 1.358 . S
C185 H243 0.930 . S
C186 C189 1.345 . S
C186 C190 1.359 1_455 S
C186 O237 1.325 . S
C187 N188 1.279 . S
C187 C190 1.358 . S
C187 H244 0.930 . S
N188 C187 1.279 . S
N188 C191 1.314 1_655 S
C189 C186 1.345 . S
C189 C191 1.353 . S
C189 H245 0.929 . S
C190 C186 1.359 1_655 S
C190 C187 1.358 . S
C190 H246 0.930 . S
C191 N188 1.314 1_455 S
C191 C189 1.353 . S
C191 H247 0.930 . S
C192 N193 1.314 . S
C192 C197 1.353 . S
C192 H198 0.930 . S
N193 Li176 1.990 . S
N193 C192 1.314 . S
N193 C195 1.279 . S
C194 C195 1.358 . S
C194 C196 1.356 . S
C194 H248 0.930 . S
C195 N193 1.279 . S
C195 C194 1.358 . S
C195 H199 0.930 . S
C196 C194 1.356 . S
C196 C197 1.348 . S
C197 C192 1.353 . S
C197 C196 1.348 . S
C197 H249 0.929 . S
H198 C192 0.930 . S
H199 C195 0.930 . S
C200 N201 1.314 . S
C200 C202 1.353 . S
C200 H206 0.930 . S
N201 Li177 1.991 . S
N201 C200 1.314 . S
N201 C204 1.279 1_655 S
C202 C200 1.353 . S
C202 C205 1.346 1_655 S
C202 H250 0.929 . S
C203 C204 1.358 . S
C203 C205 1.357 . S
C203 H251 0.930 . S
C204 N201 1.279 1_455 S
C204 C203 1.358 . S
C204 H207 0.930 . S
C205 C202 1.346 1_455 S
C205 C203 1.357 . S
H206 C200 0.930 . S
H207 C204 0.930 . S
C208 C210 1.345 1_455 S
C208 C211 1.359 . S
C208 O238 1.325 1_455 S
N209 C212 1.314 1_455 S
N209 C213 1.279 . S
C210 C208 1.345 1_655 S
C210 C212 1.353 . S
C210 H252 0.929 . S
C211 C208 1.359 . S
C211 C213 1.358 . S
C211 H253 0.930 . S
C212 N209 1.314 1_655 S
C212 C210 1.353 . S
C212 H254 0.930 . S
C213 N209 1.279 . S
C213 C211 1.358 . S
C213 H255 0.930 . S
C214 C215 1.348 . S
C214 C216 1.356 . S
C214 O239 1.325 . S
C215 C214 1.348 . S
C215 C217 1.353 . S
C215 H256 0.929 . S
C216 C214 1.356 . S
C216 C218 1.358 . S
C216 H257 0.930 . S
C217 C215 1.353 . S
C217 N219 1.314 . S
C217 H258 0.930 . S
C218 C216 1.358 . S
C218 N219 1.279 . S
C218 H259 0.930 . S
N219 C217 1.314 . S
N219 C218 1.279 . S
C220 C222 1.353 . S
C220 N223 1.314 . S
C220 H226 0.930 . S
C221 N223 1.279 1_655 S
C221 C224 1.358 . S
C221 H227 0.930 . S
C222 C220 1.353 . S
C222 C225 1.346 . S
C222 H260 0.929 . S
N223 Li178 1.991 . S
N223 C220 1.314 . S
N223 C221 1.279 1_455 S
C224 C221 1.358 . S
C224 C225 1.357 1_655 S
C224 H261 0.930 . S
C225 C222 1.346 . S
C225 C224 1.357 1_455 S
H226 C220 0.930 . S
H227 C221 0.930 . S
C228 N229 1.314 . S
C228 C230 1.353 . S
C228 H234 0.930 . S
N229 Li179 1.990 . S
N229 C228 1.314 . S
N229 C232 1.279 . S
C230 C228 1.353 . S
C230 C233 1.348 . S
C230 H262 0.929 . S
C231 C232 1.358 . S
C231 C233 1.356 . S
C231 H263 0.930 . S
C232 N229 1.279 . S
C232 C231 1.358 . S
C232 H235 0.930 . S
C233 C230 1.348 . S
C233 C231 1.356 . S
H234 C228 0.930 . S
H235 C232 0.930 . S
O236 Li176 1.956 . S
O236 Li177 1.962 1_455 S
O236 Li178 1.976 . S
O236 C180 1.325 . S
O237 Li176 1.981 . S
O237 Li177 1.956 1_455 S
O237 Li179 1.950 1_455 S
O237 C186 1.325 . S
O238 Li176 1.957 1_655 S
O238 Li178 1.956 1_655 S
O238 Li179 1.974 . S
O238 C208 1.325 1_655 S
O239 Li177 1.969 . S
O239 Li178 1.955 1_655 S
O239 Li179 1.956 . S
O239 C214 1.325 . S
H240 C182 0.929 . S
H241 C183 0.930 . S
H242 C184 0.930 . S
H243 C185 0.930 . S
H244 C187 0.930 . S
H245 C189 0.929 . S
H246 C190 0.930 . S
H247 C191 0.930 . S
H248 C194 0.930 . S
H249 C197 0.929 . S
H250 C202 0.929 . S
H251 C203 0.930 . S
H252 C210 0.929 . S
H253 C211 0.930 . S
H254 C212 0.930 . S
H255 C213 0.930 . S
H256 C215 0.929 . S
H257 C216 0.930 . S
H258 C217 0.930 . S
H259 C218 0.930 . S
H260 C222 0.929 . S
H261 C224 0.930 . S
H262 C230 0.929 . S
H263 C231 0.930 . S
Li264 N281 1.990 . S
Li264 O324 1.956 . S
Li264 O325 1.981 . S
Li264 O326 1.957 1_545 S
Li265 N289 1.991 . S
Li265 O324 1.962 1_565 S
Li265 O325 1.956 1_565 S
Li265 O327 1.969 . S
Li266 N311 1.991 . S
Li266 O324 1.976 . S
Li266 O326 1.956 1_545 S
Li266 O327 1.955 1_545 S
Li267 N317 1.990 . S
Li267 O325 1.950 1_565 S
Li267 O326 1.974 . S
Li267 O327 1.956 . S
C268 C270 1.348 . S
C268 C271 1.356 . S
C268 O324 1.325 . S
N269 C272 1.314 . S
N269 C273 1.279 . S
C270 C268 1.348 . S
C270 C272 1.353 . S
C270 H328 0.929 . S
C271 C268 1.356 . S
C271 C273 1.358 . S
C271 H329 0.930 . S
C272 N269 1.314 . S
C272 C270 1.353 . S
C272 H330 0.930 . S
C273 N269 1.279 . S
C273 C271 1.358 . S
C273 H331 0.930 . S
C274 C277 1.345 . S
C274 C278 1.359 1_545 S
C274 O325 1.325 . S
C275 N276 1.279 . S
C275 C278 1.358 . S
C275 H332 0.930 . S
N276 C275 1.279 . S
N276 C279 1.314 1_565 S
C277 C274 1.345 . S
C277 C279 1.353 . S
C277 H333 0.929 . S
C278 C274 1.359 1_565 S
C278 C275 1.358 . S
C278 H334 0.930 . S
C279 N276 1.314 1_545 S
C279 C277 1.353 . S
C279 H335 0.930 . S
C280 N281 1.314 . S
C280 C285 1.353 . S
C280 H286 0.930 . S
N281 Li264 1.990 . S
N281 C280 1.314 . S
N281 C283 1.279 . S
C282 C283 1.358 . S
C282 C284 1.356 . S
C282 H336 0.930 . S
C283 N281 1.279 . S
C283 C282 1.358 . S
C283 H287 0.930 . S
C284 C282 1.356 . S
C284 C285 1.348 . S
C285 C280 1.353 . S
C285 C284 1.348 . S
C285 H337 0.929 . S
H286 C280 0.930 . S
H287 C283 0.930 . S
C288 N289 1.314 . S
C288 C290 1.353 . S
C288 H294 0.930 . S
N289 Li265 1.991 . S
N289 C288 1.314 . S
N289 C292 1.279 1_565 S
C290 C288 1.353 . S
C290 C293 1.346 1_565 S
C290 H338 0.929 . S
C291 C292 1.358 . S
C291 C293 1.357 . S
C291 H339 0.930 . S
C292 N289 1.279 1_545 S
C292 C291 1.358 . S
C292 H295 0.930 . S
C293 C290 1.346 1_545 S
C293 C291 1.357 . S
H294 C288 0.930 . S
H295 C292 0.930 . S
C296 C298 1.345 1_545 S
C296 C299 1.359 . S
C296 O326 1.325 1_545 S
N297 C300 1.314 1_545 S
N297 C301 1.279 . S
C298 C296 1.345 1_565 S
C298 C300 1.353 . S
C298 H340 0.929 . S
C299 C296 1.359 . S
C299 C301 1.358 . S
C299 H341 0.930 . S
C300 N297 1.314 1_565 S
C300 C298 1.353 . S
C300 H342 0.930 . S
C301 N297 1.279 . S
C301 C299 1.358 . S
C301 H343 0.930 . S
C302 C303 1.348 . S
C302 C304 1.356 . S
C302 O327 1.325 . S
C303 C302 1.348 . S
C303 C305 1.353 . S
C303 H344 0.929 . S
C304 C302 1.356 . S
C304 C306 1.358 . S
C304 H345 0.930 . S
C305 C303 1.353 . S
C305 N307 1.314 . S
C305 H346 0.930 . S
C306 C304 1.358 . S
C306 N307 1.279 . S
C306 H347 0.930 . S
N307 C305 1.314 . S
N307 C306 1.279 . S
C308 C310 1.353 . S
C308 N311 1.314 . S
C308 H314 0.930 . S
C309 N311 1.279 1_565 S
C309 C312 1.358 . S
C309 H315 0.930 . S
C310 C308 1.353 . S
C310 C313 1.346 . S
C310 H348 0.929 . S
N311 Li266 1.991 . S
N311 C308 1.314 . S
N311 C309 1.279 1_545 S
C312 C309 1.358 . S
C312 C313 1.357 1_565 S
C312 H349 0.930 . S
C313 C310 1.346 . S
C313 C312 1.357 1_545 S
H314 C308 0.930 . S
H315 C309 0.930 . S
C316 N317 1.314 . S
C316 C318 1.353 . S
C316 H322 0.930 . S
N317 Li267 1.990 . S
N317 C316 1.314 . S
N317 C320 1.279 . S
C318 C316 1.353 . S
C318 C321 1.348 . S
C318 H350 0.929 . S
C319 C320 1.358 . S
C319 C321 1.356 . S
C319 H351 0.930 . S
C320 N317 1.279 . S
C320 C319 1.358 . S
C320 H323 0.930 . S
C321 C318 1.348 . S
C321 C319 1.356 . S
H322 C316 0.930 . S
H323 C320 0.930 . S
O324 Li264 1.956 . S
O324 Li265 1.962 1_545 S
O324 Li266 1.976 . S
O324 C268 1.325 . S
O325 Li264 1.981 . S
O325 Li265 1.956 1_545 S
O325 Li267 1.950 1_545 S
O325 C274 1.325 . S
O326 Li264 1.957 1_565 S
O326 Li266 1.956 1_565 S
O326 Li267 1.974 . S
O326 C296 1.325 1_565 S
O327 Li265 1.969 . S
O327 Li266 1.955 1_565 S
O327 Li267 1.956 . S
O327 C302 1.325 . S
H328 C270 0.929 . S
H329 C271 0.930 . S
H330 C272 0.930 . S
H331 C273 0.930 . S
H332 C275 0.930 . S
H333 C277 0.929 . S
H334 C278 0.930 . S
H335 C279 0.930 . S
H336 C282 0.930 . S
H337 C285 0.929 . S
H338 C290 0.929 . S
H339 C291 0.930 . S
H340 C298 0.929 . S
H341 C299 0.930 . S
H342 C300 0.930 . S
H343 C301 0.930 . S
H344 C303 0.929 . S
H345 C304 0.930 . S
H346 C305 0.930 . S
H347 C306 0.930 . S
H348 C310 0.929 . S
H349 C312 0.930 . S
H350 C318 0.929 . S
H351 C319 0.930 . S
Li352 N369 1.990 . S
Li352 O412 1.956 . S
Li352 O413 1.981 . S
Li352 O414 1.957 1_545 S
Li353 N377 1.991 . S
Li353 O412 1.962 1_565 S
Li353 O413 1.956 1_565 S
Li353 O415 1.969 . S
Li354 N399 1.991 . S
Li354 O412 1.976 . S
Li354 O414 1.956 1_545 S
Li354 O415 1.955 1_545 S
Li355 N405 1.990 . S
Li355 O413 1.950 1_565 S
Li355 O414 1.974 . S
Li355 O415 1.956 . S
C356 C358 1.348 . S
C356 C359 1.356 . S
C356 O412 1.325 . S
N357 C360 1.314 . S
N357 C361 1.279 . S
C358 C356 1.348 . S
C358 C360 1.353 . S
C358 H416 0.929 . S
C359 C356 1.356 . S
C359 C361 1.358 . S
C359 H417 0.930 . S
C360 N357 1.314 . S
C360 C358 1.353 . S
C360 H418 0.930 . S
C361 N357 1.279 . S
C361 C359 1.358 . S
C361 H419 0.930 . S
C362 C365 1.345 . S
C362 C366 1.359 1_545 S
C362 O413 1.325 . S
C363 N364 1.279 . S
C363 C366 1.358 . S
C363 H420 0.930 . S
N364 C363 1.279 . S
N364 C367 1.314 1_565 S
C365 C362 1.345 . S
C365 C367 1.353 . S
C365 H421 0.929 . S
C366 C362 1.359 1_565 S
C366 C363 1.358 . S
C366 H422 0.930 . S
C367 N364 1.314 1_545 S
C367 C365 1.353 . S
C367 H423 0.930 . S
C368 N369 1.314 . S
C368 C373 1.353 . S
C368 H374 0.930 . S
N369 Li352 1.990 . S
N369 C368 1.314 . S
N369 C371 1.279 . S
C370 C371 1.358 . S
C370 C372 1.356 . S
C370 H424 0.930 . S
C371 N369 1.279 . S
C371 C370 1.358 . S
C371 H375 0.930 . S
C372 C370 1.356 . S
C372 C373 1.348 . S
C373 C368 1.353 . S
C373 C372 1.348 . S
C373 H425 0.929 . S
H374 C368 0.930 . S
H375 C371 0.930 . S
C376 N377 1.314 . S
C376 C378 1.353 . S
C376 H382 0.930 . S
N377 Li353 1.991 . S
N377 C376 1.314 . S
N377 C380 1.279 1_565 S
C378 C376 1.353 . S
C378 C381 1.346 1_565 S
C378 H426 0.929 . S
C379 C380 1.358 . S
C379 C381 1.357 . S
C379 H427 0.930 . S
C380 N377 1.279 1_545 S
C380 C379 1.358 . S
C380 H383 0.930 . S
C381 C378 1.346 1_545 S
C381 C379 1.357 . S
H382 C376 0.930 . S
H383 C380 0.930 . S
C384 C386 1.345 1_545 S
C384 C387 1.359 . S
C384 O414 1.325 1_545 S
N385 C388 1.314 1_545 S
N385 C389 1.279 . S
C386 C384 1.345 1_565 S
C386 C388 1.353 . S
C386 H428 0.929 . S
C387 C384 1.359 . S
C387 C389 1.358 . S
C387 H429 0.930 . S
C388 N385 1.314 1_565 S
C388 C386 1.353 . S
C388 H430 0.930 . S
C389 N385 1.279 . S
C389 C387 1.358 . S
C389 H431 0.930 . S
C390 C391 1.348 . S
C390 C392 1.356 . S
C390 O415 1.325 . S
C391 C390 1.348 . S
C391 C393 1.353 . S
C391 H432 0.929 . S
C392 C390 1.356 . S
C392 C394 1.358 . S
C392 H433 0.930 . S
C393 C391 1.353 . S
C393 N395 1.314 . S
C393 H434 0.930 . S
C394 C392 1.358 . S
C394 N395 1.279 . S
C394 H435 0.930 . S
N395 C393 1.314 . S
N395 C394 1.279 . S
C396 C398 1.353 . S
C396 N399 1.314 . S
C396 H402 0.930 . S
C397 N399 1.279 1_565 S
C397 C400 1.358 . S
C397 H403 0.930 . S
C398 C396 1.353 . S
C398 C401 1.346 . S
C398 H436 0.929 . S
N399 Li354 1.991 . S
N399 C396 1.314 . S
N399 C397 1.279 1_545 S
C400 C397 1.358 . S
C400 C401 1.357 1_565 S
C400 H437 0.930 . S
C401 C398 1.346 . S
C401 C400 1.357 1_545 S
H402 C396 0.930 . S
H403 C397 0.930 . S
C404 N405 1.314 . S
C404 C406 1.353 . S
C404 H410 0.930 . S
N405 Li355 1.990 . S
N405 C404 1.314 . S
N405 C408 1.279 . S
C406 C404 1.353 . S
C406 C409 1.348 . S
C406 H438 0.929 . S
C407 C408 1.358 . S
C407 C409 1.356 . S
C407 H439 0.930 . S
C408 N405 1.279 . S
C408 C407 1.358 . S
C408 H411 0.930 . S
C409 C406 1.348 . S
C409 C407 1.356 . S
H410 C404 0.930 . S
H411 C408 0.930 . S
O412 Li352 1.956 . S
O412 Li353 1.962 1_545 S
O412 Li354 1.976 . S
O412 C356 1.325 . S
O413 Li352 1.981 . S
O413 Li353 1.956 1_545 S
O413 Li355 1.950 1_545 S
O413 C362 1.325 . S
O414 Li352 1.957 1_565 S
O414 Li354 1.956 1_565 S
O414 Li355 1.974 . S
O414 C384 1.325 1_565 S
O415 Li353 1.969 . S
O415 Li354 1.955 1_565 S
O415 Li355 1.956 . S
O415 C390 1.325 . S
H416 C358 0.929 . S
H417 C359 0.930 . S
H418 C360 0.930 . S
H419 C361 0.930 . S
H420 C363 0.930 . S
H421 C365 0.929 . S
H422 C366 0.930 . S
H423 C367 0.930 . S
H424 C370 0.930 . S
H425 C373 0.929 . S
H426 C378 0.929 . S
H427 C379 0.930 . S
H428 C386 0.929 . S
H429 C387 0.930 . S
H430 C388 0.930 . S
H431 C389 0.930 . S
H432 C391 0.929 . S
H433 C392 0.930 . S
H434 C393 0.930 . S
H435 C394 0.930 . S
H436 C398 0.929 . S
H437 C400 0.930 . S
H438 C406 0.929 . S
H439 C407 0.930 . S
Li440 N457 1.990 . S
Li440 O500 1.956 . S
Li440 O501 1.974 . S
Li440 O502 1.950 1_655 S
Li441 N465 1.991 . S
Li441 O500 1.955 1_455 S
Li441 O501 1.956 1_455 S
Li441 O503 1.976 . S
Li442 N487 1.991 . S
Li442 O500 1.969 . S
Li442 O502 1.956 1_655 S
Li442 O503 1.962 1_655 S
Li443 N493 1.990 . S
Li443 O501 1.957 1_455 S
Li443 O502 1.981 . S
Li443 O503 1.956 . S
C444 C446 1.348 . S
C444 C447 1.356 . S
C444 O500 1.325 . S
N445 C448 1.314 . S
N445 C449 1.279 . S
C446 C444 1.348 . S
C446 C448 1.353 . S
C446 H504 0.929 . S
C447 C444 1.356 . S
C447 C449 1.358 . S
C447 H505 0.930 . S
C448 N445 1.314 . S
C448 C446 1.353 . S
C448 H506 0.930 . S
C449 N445 1.279 . S
C449 C447 1.358 . S
C449 H507 0.930 . S
C450 C453 1.345 1_455 S
C450 C454 1.359 . S
C450 O501 1.325 1_455 S
C451 N452 1.279 . S
C451 C454 1.358 . S
C451 H508 0.930 . S
N452 C451 1.279 . S
N452 C455 1.314 1_455 S
C453 C450 1.345 1_655 S
C453 C455 1.353 . S
C453 H509 0.929 . S
C454 C450 1.359 . S
C454 C451 1.358 . S
C454 H510 0.930 . S
C455 N452 1.314 1_655 S
C455 C453 1.353 . S
C455 H511 0.930 . S
C456 N457 1.314 . S
C456 C461 1.353 . S
C456 H462 0.930 . S
N457 Li440 1.990 . S
N457 C456 1.314 . S
N457 C459 1.279 . S
C458 C459 1.358 . S
C458 C460 1.356 . S
C458 H512 0.930 . S
C459 N457 1.279 . S
C459 C458 1.358 . S
C459 H463 0.930 . S
C460 C458 1.356 . S
C460 C461 1.348 . S
C461 C456 1.353 . S
C461 C460 1.348 . S
C461 H513 0.929 . S
H462 C456 0.930 . S
H463 C459 0.930 . S
C464 N465 1.314 . S
C464 C466 1.353 . S
C464 H470 0.930 . S
N465 Li441 1.991 . S
N465 C464 1.314 . S
N465 C468 1.279 1_455 S
C466 C464 1.353 . S
C466 C469 1.346 . S
C466 H514 0.929 . S
C467 C468 1.358 . S
C467 C469 1.357 1_655 S
C467 H515 0.930 . S
C468 N465 1.279 1_655 S
C468 C467 1.358 . S
C468 H471 0.930 . S
C469 C466 1.346 . S
C469 C467 1.357 1_455 S
H470 C464 0.930 . S
H471 C468 0.930 . S
C472 C474 1.345 . S
C472 C475 1.359 1_455 S
C472 O502 1.325 . S
N473 C476 1.314 1_655 S
N473 C477 1.279 . S
C474 C472 1.345 . S
C474 C476 1.353 . S
C474 H516 0.929 . S
C475 C472 1.359 1_655 S
C475 C477 1.358 . S
C475 H517 0.930 . S
C476 N473 1.314 1_455 S
C476 C474 1.353 . S
C476 H518 0.930 . S
C477 N473 1.279 . S
C477 C475 1.358 . S
C477 H519 0.930 . S
C478 C479 1.348 . S
C478 C480 1.356 . S
C478 O503 1.325 . S
C479 C478 1.348 . S
C479 C481 1.353 . S
C479 H520 0.929 . S
C480 C478 1.356 . S
C480 C482 1.358 . S
C480 H521 0.930 . S
C481 C479 1.353 . S
C481 N483 1.314 . S
C481 H522 0.930 . S
C482 C480 1.358 . S
C482 N483 1.279 . S
C482 H523 0.930 . S
N483 C481 1.314 . S
N483 C482 1.279 . S
C484 C486 1.353 . S
C484 N487 1.314 . S
C484 H490 0.930 . S
C485 N487 1.279 1_455 S
C485 C488 1.358 . S
C485 H491 0.930 . S
C486 C484 1.353 . S
C486 C489 1.346 1_655 S
C486 H524 0.929 . S
N487 Li442 1.991 . S
N487 C484 1.314 . S
N487 C485 1.279 1_655 S
C488 C485 1.358 . S
C488 C489 1.357 . S
C488 H525 0.930 . S
C489 C486 1.346 1_455 S
C489 C488 1.357 . S
H490 C484 0.930 . S
H491 C485 0.930 . S
C492 N493 1.314 . S
C492 C494 1.353 . S
C492 H498 0.930 . S
N493 Li443 1.990 . S
N493 C492 1.314 . S
N493 C496 1.279 . S
C494 C492 1.353 . S
C494 C497 1.348 . S
C494 H526 0.929 . S
C495 C496 1.358 . S
C495 C497 1.356 . S
C495 H527 0.930 . S
C496 N493 1.279 . S
C496 C495 1.358 . S
C496 H499 0.930 . S
C497 C494 1.348 . S
C497 C495 1.356 . S
H498 C492 0.930 . S
H499 C496 0.930 . S
O500 Li440 1.956 . S
O500 Li441 1.955 1_655 S
O500 Li442 1.969 . S
O500 C444 1.325 . S
O501 Li440 1.974 . S
O501 Li441 1.956 1_655 S
O501 Li443 1.957 1_655 S
O501 C450 1.325 1_655 S
O502 Li440 1.950 1_455 S
O502 Li442 1.956 1_455 S
O502 Li443 1.981 . S
O502 C472 1.325 . S
O503 Li441 1.976 . S
O503 Li442 1.962 1_455 S
O503 Li443 1.956 . S
O503 C478 1.325 . S
H504 C446 0.929 . S
H505 C447 0.930 . S
H506 C448 0.930 . S
H507 C449 0.930 . S
H508 C451 0.930 . S
H509 C453 0.929 . S
H510 C454 0.930 . S
H511 C455 0.930 . S
H512 C458 0.930 . S
H513 C461 0.929 . S
H514 C466 0.929 . S
H515 C467 0.930 . S
H516 C474 0.929 . S
H517 C475 0.930 . S
H518 C476 0.930 . S
H519 C477 0.930 . S
H520 C479 0.929 . S
H521 C480 0.930 . S
H522 C481 0.930 . S
H523 C482 0.930 . S
H524 C486 0.929 . S
H525 C488 0.930 . S
H526 C494 0.929 . S
H527 C495 0.930 . S
Li528 N545 1.991 . S
Li528 O588 1.956 1_545 S
Li528 O589 1.955 1_545 S
Li528 O590 1.976 . S
Li529 N553 1.990 . S
Li529 O588 1.974 . S
Li529 O589 1.956 . S
Li529 O591 1.950 1_565 S
Li530 N575 1.990 . S
Li530 O588 1.957 1_545 S
Li530 O590 1.956 . S
Li530 O591 1.981 . S
Li531 N581 1.991 . S
Li531 O589 1.969 . S
Li531 O590 1.962 1_565 S
Li531 O591 1.956 1_565 S
C532 C534 1.345 1_545 S
C532 C535 1.359 . S
C532 O588 1.325 1_545 S
N533 C536 1.314 1_545 S
N533 C537 1.279 . S
C534 C532 1.345 1_565 S
C534 C536 1.353 . S
C534 H592 0.929 . S
C535 C532 1.359 . S
C535 C537 1.358 . S
C535 H593 0.930 . S
C536 N533 1.314 1_565 S
C536 C534 1.353 . S
C536 H594 0.930 . S
C537 N533 1.279 . S
C537 C535 1.358 . S
C537 H595 0.930 . S
C538 C541 1.348 . S
C538 C542 1.356 . S
C538 O589 1.325 . S
C539 N540 1.279 . S
C539 C542 1.358 . S
C539 H596 0.930 . S
N540 C539 1.279 . S
N540 C543 1.314 . S
C541 C538 1.348 . S
C541 C543 1.353 . S
C541 H597 0.929 . S
C542 C538 1.356 . S
C542 C539 1.358 . S
C542 H598 0.930 . S
C543 N540 1.314 . S
C543 C541 1.353 . S
C543 H599 0.930 . S
C544 N545 1.314 . S
C544 C549 1.353 . S
C544 H550 0.930 . S
N545 Li528 1.991 . S
N545 C544 1.314 . S
N545 C547 1.279 1_545 S
C546 C547 1.358 . S
C546 C548 1.357 1_565 S
C546 H600 0.930 . S
C547 N545 1.279 1_565 S
C547 C546 1.358 . S
C547 H551 0.930 . S
C548 C546 1.357 1_545 S
C548 C549 1.346 . S
C549 C544 1.353 . S
C549 C548 1.346 . S
C549 H601 0.929 . S
H550 C544 0.930 . S
H551 C547 0.930 . S
C552 N553 1.314 . S
C552 C554 1.353 . S
C552 H558 0.930 . S
N553 Li529 1.990 . S
N553 C552 1.314 . S
N553 C556 1.279 . S
C554 C552 1.353 . S
C554 C557 1.348 . S
C554 H602 0.929 . S
C555 C556 1.358 . S
C555 C557 1.356 . S
C555 H603 0.930 . S
C556 N553 1.279 . S
C556 C555 1.358 . S
C556 H559 0.930 . S
C557 C554 1.348 . S
C557 C555 1.356 . S
H558 C552 0.930 . S
H559 C556 0.930 . S
C560 C562 1.348 . S
C560 C563 1.356 . S
C560 O590 1.325 . S
N561 C564 1.314 . S
N561 C565 1.279 . S
C562 C560 1.348 . S
C562 C564 1.353 . S
C562 H604 0.929 . S
C563 C560 1.356 . S
C563 C565 1.358 . S
C563 H605 0.930 . S
C564 N561 1.314 . S
C564 C562 1.353 . S
C564 H606 0.930 . S
C565 N561 1.279 . S
C565 C563 1.358 . S
C565 H607 0.930 . S
C566 C567 1.345 . S
C566 C568 1.359 1_545 S
C566 O591 1.325 . S
C567 C566 1.345 . S
C567 C569 1.353 . S
C567 H608 0.929 . S
C568 C566 1.359 1_565 S
C568 C570 1.358 . S
C568 H609 0.930 . S
C569 C567 1.353 . S
C569 N571 1.314 1_545 S
C569 H610 0.930 . S
C570 C568 1.358 . S
C570 N571 1.279 . S
C570 H611 0.930 . S
N571 C569 1.314 1_565 S
N571 C570 1.279 . S
C572 C574 1.353 . S
C572 N575 1.314 . S
C572 H578 0.930 . S
C573 N575 1.279 . S
C573 C576 1.358 . S
C573 H579 0.930 . S
C574 C572 1.353 . S
C574 C577 1.348 . S
C574 H612 0.929 . S
N575 Li530 1.990 . S
N575 C572 1.314 . S
N575 C573 1.279 . S
C576 C573 1.358 . S
C576 C577 1.356 . S
C576 H613 0.930 . S
C577 C574 1.348 . S
C577 C576 1.356 . S
H578 C572 0.930 . S
H579 C573 0.930 . S
C580 N581 1.314 . S
C580 C582 1.353 . S
C580 H586 0.930 . S
N581 Li531 1.991 . S
N581 C580 1.314 . S
N581 C584 1.279 1_565 S
C582 C580 1.353 . S
C582 C585 1.346 1_565 S
C582 H614 0.929 . S
C583 C584 1.358 . S
C583 C585 1.357 . S
C583 H615 0.930 . S
C584 N581 1.279 1_545 S
C584 C583 1.358 . S
C584 H587 0.930 . S
C585 C582 1.346 1_545 S
C585 C583 1.357 . S
H586 C580 0.930 . S
H587 C584 0.930 . S
O588 Li528 1.956 1_565 S
O588 Li529 1.974 . S
O588 Li530 1.957 1_565 S
O588 C532 1.325 1_565 S
O589 Li528 1.955 1_565 S
O589 Li529 1.956 . S
O589 Li531 1.969 . S
O589 C538 1.325 . S
O590 Li528 1.976 . S
O590 Li530 1.956 . S
O590 Li531 1.962 1_545 S
O590 C560 1.325 . S
O591 Li529 1.950 1_545 S
O591 Li530 1.981 . S
O591 Li531 1.956 1_545 S
O591 C566 1.325 . S
H592 C534 0.929 . S
H593 C535 0.930 . S
H594 C536 0.930 . S
H595 C537 0.930 . S
H596 C539 0.930 . S
H597 C541 0.929 . S
H598 C542 0.930 . S
H599 C543 0.930 . S
H600 C546 0.930 . S
H601 C549 0.929 . S
H602 C554 0.929 . S
H603 C555 0.930 . S
H604 C562 0.929 . S
H605 C563 0.930 . S
H606 C564 0.930 . S
H607 C565 0.930 . S
H608 C567 0.929 . S
H609 C568 0.930 . S
H610 C569 0.930 . S
H611 C570 0.930 . S
H612 C574 0.929 . S
H613 C576 0.930 . S
H614 C582 0.929 . S
H615 C583 0.930 . S
Li616 N633 1.991 . S
Li616 O676 1.956 1_455 S
Li616 O677 1.955 1_455 S
Li616 O678 1.976 . S
Li617 N641 1.990 . S
Li617 O676 1.974 . S
Li617 O677 1.956 . S
Li617 O679 1.950 1_655 S
Li618 N663 1.990 . S
Li618 O676 1.957 1_455 S
Li618 O678 1.956 . S
Li618 O679 1.981 . S
Li619 N669 1.991 . S
Li619 O677 1.969 . S
Li619 O678 1.962 1_655 S
Li619 O679 1.956 1_655 S
C620 C622 1.345 1_455 S
C620 C623 1.359 . S
C620 O676 1.325 1_455 S
N621 C624 1.314 1_455 S
N621 C625 1.279 . S
C622 C620 1.345 1_655 S
C622 C624 1.353 . S
C622 H680 0.929 . S
C623 C620 1.359 . S
C623 C625 1.358 . S
C623 H681 0.930 . S
C624 N621 1.314 1_655 S
C624 C622 1.353 . S
C624 H682 0.930 . S
C625 N621 1.279 . S
C625 C623 1.358 . S
C625 H683 0.930 . S
C626 C629 1.348 . S
C626 C630 1.356 . S
C626 O677 1.325 . S
C627 N628 1.279 . S
C627 C630 1.358 . S
C627 H684 0.930 . S
N628 C627 1.279 . S
N628 C631 1.314 . S
C629 C626 1.348 . S
C629 C631 1.353 . S
C629 H685 0.929 . S
C630 C626 1.356 . S
C630 C627 1.358 . S
C630 H686 0.930 . S
C631 N628 1.314 . S
C631 C629 1.353 . S
C631 H687 0.930 . S
C632 N633 1.314 . S
C632 C637 1.353 . S
C632 H638 0.930 . S
N633 Li616 1.991 . S
N633 C632 1.314 . S
N633 C635 1.279 1_455 S
C634 C635 1.358 . S
C634 C636 1.357 1_655 S
C634 H688 0.930 . S
C635 N633 1.279 1_655 S
C635 C634 1.358 . S
C635 H639 0.930 . S
C636 C634 1.357 1_455 S
C636 C637 1.346 . S
C637 C632 1.353 . S
C637 C636 1.346 . S
C637 H689 0.929 . S
H638 C632 0.930 . S
H639 C635 0.930 . S
C640 N641 1.314 . S
C640 C642 1.353 . S
C640 H646 0.930 . S
N641 Li617 1.990 . S
N641 C640 1.314 . S
N641 C644 1.279 . S
C642 C640 1.353 . S
C642 C645 1.348 . S
C642 H690 0.929 . S
C643 C644 1.358 . S
C643 C645 1.356 . S
C643 H691 0.930 . S
C644 N641 1.279 . S
C644 C643 1.358 . S
C644 H647 0.930 . S
C645 C642 1.348 . S
C645 C643 1.356 . S
H646 C640 0.930 . S
H647 C644 0.930 . S
C648 C650 1.348 . S
C648 C651 1.356 . S
C648 O678 1.325 . S
N649 C652 1.314 . S
N649 C653 1.279 . S
C650 C648 1.348 . S
C650 C652 1.353 . S
C650 H692 0.929 . S
C651 C648 1.356 . S
C651 C653 1.358 . S
C651 H693 0.930 . S
C652 N649 1.314 . S
C652 C650 1.353 . S
C652 H694 0.930 . S
C653 N649 1.279 . S
C653 C651 1.358 . S
C653 H695 0.930 . S
C654 C655 1.345 . S
C654 C656 1.359 1_455 S
C654 O679 1.325 . S
C655 C654 1.345 . S
C655 C657 1.353 . S
C655 H696 0.929 . S
C656 C654 1.359 1_655 S
C656 C658 1.358 . S
C656 H697 0.930 . S
C657 C655 1.353 . S
C657 N659 1.314 1_455 S
C657 H698 0.930 . S
C658 C656 1.358 . S
C658 N659 1.279 . S
C658 H699 0.930 . S
N659 C657 1.314 1_655 S
N659 C658 1.279 . S
C660 C662 1.353 . S
C660 N663 1.314 . S
C660 H666 0.930 . S
C661 N663 1.279 . S
C661 C664 1.358 . S
C661 H667 0.930 . S
C662 C660 1.353 . S
C662 C665 1.348 . S
C662 H700 0.929 . S
N663 Li618 1.990 . S
N663 C660 1.314 . S
N663 C661 1.279 . S
C664 C661 1.358 . S
C664 C665 1.356 . S
C664 H701 0.930 . S
C665 C662 1.348 . S
C665 C664 1.356 . S
H666 C660 0.930 . S
H667 C661 0.930 . S
C668 N669 1.314 . S
C668 C670 1.353 . S
C668 H674 0.930 . S
N669 Li619 1.991 . S
N669 C668 1.314 . S
N669 C672 1.279 1_655 S
C670 C668 1.353 . S
C670 C673 1.346 1_655 S
C670 H702 0.929 . S
C671 C672 1.358 . S
C671 C673 1.357 . S
C671 H703 0.930 . S
C672 N669 1.279 1_455 S
C672 C671 1.358 . S
C672 H675 0.930 . S
C673 C670 1.346 1_455 S
C673 C671 1.357 . S
H674 C668 0.930 . S
H675 C672 0.930 . S
O676 Li616 1.956 1_655 S
O676 Li617 1.974 . S
O676 Li618 1.957 1_655 S
O676 C620 1.325 1_655 S
O677 Li616 1.955 1_655 S
O677 Li617 1.956 . S
O677 Li619 1.969 . S
O677 C626 1.325 . S
O678 Li616 1.976 . S
O678 Li618 1.956 . S
O678 Li619 1.962 1_455 S
O678 C648 1.325 . S
O679 Li617 1.950 1_455 S
O679 Li618 1.981 . S
O679 Li619 1.956 1_455 S
O679 C654 1.325 . S
H680 C622 0.929 . S
H681 C623 0.930 . S
H682 C624 0.930 . S
H683 C625 0.930 . S
H684 C627 0.930 . S
H685 C629 0.929 . S
H686 C630 0.930 . S
H687 C631 0.930 . S
H688 C634 0.930 . S
H689 C637 0.929 . S
H690 C642 0.929 . S
H691 C643 0.930 . S
H692 C650 0.929 . S
H693 C651 0.930 . S
H694 C652 0.930 . S
H695 C653 0.930 . S
H696 C655 0.929 . S
H697 C656 0.930 . S
H698 C657 0.930 . S
H699 C658 0.930 . S
H700 C662 0.929 . S
H701 C664 0.930 . S
H702 C670 0.929 . S
H703 C671 0.930 . S
Li704 N721 1.990 . S
Li704 O764 1.956 . S
Li704 O765 1.981 . S
Li704 O766 1.957 1_554 S
Li705 N729 1.991 . S
Li705 O764 1.962 1_556 S
Li705 O765 1.956 1_556 S
Li705 O767 1.969 . S
Li706 N751 1.991 . S
Li706 O764 1.976 . S
Li706 O766 1.956 1_554 S
Li706 O767 1.955 1_554 S
Li707 N757 1.990 . S
Li707 O765 1.950 1_556 S
Li707 O766 1.974 . S
Li707 O767 1.956 . S
C708 C710 1.348 . S
C708 C711 1.356 . S
C708 O764 1.325 . S
N709 C712 1.314 . S
N709 C713 1.279 . S
C710 C708 1.348 . S
C710 C712 1.353 . S
C710 H768 0.929 . S
C711 C708 1.356 . S
C711 C713 1.358 . S
C711 H769 0.930 . S
C712 N709 1.314 . S
C712 C710 1.353 . S
C712 H770 0.930 . S
C713 N709 1.279 . S
C713 C711 1.358 . S
C713 H771 0.930 . S
C714 C717 1.345 . S
C714 C718 1.359 1_554 S
C714 O765 1.325 . S
C715 N716 1.279 . S
C715 C718 1.358 . S
C715 H772 0.930 . S
N716 C715 1.279 . S
N716 C719 1.314 1_556 S
C717 C714 1.345 . S
C717 C719 1.353 . S
C717 H773 0.929 . S
C718 C714 1.359 1_556 S
C718 C715 1.358 . S
C718 H774 0.930 . S
C719 N716 1.314 1_554 S
C719 C717 1.353 . S
C719 H775 0.930 . S
C720 N721 1.314 . S
C720 C725 1.353 . S
C720 H726 0.930 . S
N721 Li704 1.990 . S
N721 C720 1.314 . S
N721 C723 1.279 . S
C722 C723 1.358 . S
C722 C724 1.356 . S
C722 H776 0.930 . S
C723 N721 1.279 . S
C723 C722 1.358 . S
C723 H727 0.930 . S
C724 C722 1.356 . S
C724 C725 1.348 . S
C725 C720 1.353 . S
C725 C724 1.348 . S
C725 H777 0.929 . S
H726 C720 0.930 . S
H727 C723 0.930 . S
C728 N729 1.314 . S
C728 C730 1.353 . S
C728 H734 0.930 . S
N729 Li705 1.991 . S
N729 C728 1.314 . S
N729 C732 1.279 1_556 S
C730 C728 1.353 . S
C730 C733 1.346 1_556 S
C730 H778 0.929 . S
C731 C732 1.358 . S
C731 C733 1.357 . S
C731 H779 0.930 . S
C732 N729 1.279 1_554 S
C732 C731 1.358 . S
C732 H735 0.930 . S
C733 C730 1.346 1_554 S
C733 C731 1.357 . S
H734 C728 0.930 . S
H735 C732 0.930 . S
C736 C738 1.345 1_554 S
C736 C739 1.359 . S
C736 O766 1.325 1_554 S
N737 C740 1.314 1_554 S
N737 C741 1.279 . S
C738 C736 1.345 1_556 S
C738 C740 1.353 . S
C738 H780 0.929 . S
C739 C736 1.359 . S
C739 C741 1.358 . S
C739 H781 0.930 . S
C740 N737 1.314 1_556 S
C740 C738 1.353 . S
C740 H782 0.930 . S
C741 N737 1.279 . S
C741 C739 1.358 . S
C741 H783 0.930 . S
C742 C743 1.348 . S
C742 C744 1.356 . S
C742 O767 1.325 . S
C743 C742 1.348 . S
C743 C745 1.353 . S
C743 H784 0.929 . S
C744 C742 1.356 . S
C744 C746 1.358 . S
C744 H785 0.930 . S
C745 C743 1.353 . S
C745 N747 1.314 . S
C745 H786 0.930 . S
C746 C744 1.358 . S
C746 N747 1.279 . S
C746 H787 0.930 . S
N747 C745 1.314 . S
N747 C746 1.279 . S
C748 C750 1.353 . S
C748 N751 1.314 . S
C748 H754 0.930 . S
C749 N751 1.279 1_556 S
C749 C752 1.358 . S
C749 H755 0.930 . S
C750 C748 1.353 . S
C750 C753 1.346 . S
C750 H788 0.929 . S
N751 Li706 1.991 . S
N751 C748 1.314 . S
N751 C749 1.279 1_554 S
C752 C749 1.358 . S
C752 C753 1.357 1_556 S
C752 H789 0.930 . S
C753 C750 1.346 . S
C753 C752 1.357 1_554 S
H754 C748 0.930 . S
H755 C749 0.930 . S
C756 N757 1.314 . S
C756 C758 1.353 . S
C756 H762 0.930 . S
N757 Li707 1.990 . S
N757 C756 1.314 . S
N757 C760 1.279 . S
C758 C756 1.353 . S
C758 C761 1.348 . S
C758 H790 0.929 . S
C759 C760 1.358 . S
C759 C761 1.356 . S
C759 H791 0.930 . S
C760 N757 1.279 . S
C760 C759 1.358 . S
C760 H763 0.930 . S
C761 C758 1.348 . S
C761 C759 1.356 . S
H762 C756 0.930 . S
H763 C760 0.930 . S
O764 Li704 1.956 . S
O764 Li705 1.962 1_554 S
O764 Li706 1.976 . S
O764 C708 1.325 . S
O765 Li704 1.981 . S
O765 Li705 1.956 1_554 S
O765 Li707 1.950 1_554 S
O765 C714 1.325 . S
O766 Li704 1.957 1_556 S
O766 Li706 1.956 1_556 S
O766 Li707 1.974 . S
O766 C736 1.325 1_556 S
O767 Li705 1.969 . S
O767 Li706 1.955 1_556 S
O767 Li707 1.956 . S
O767 C742 1.325 . S
H768 C710 0.929 . S
H769 C711 0.930 . S
H770 C712 0.930 . S
H771 C713 0.930 . S
H772 C715 0.930 . S
H773 C717 0.929 . S
H774 C718 0.930 . S
H775 C719 0.930 . S
H776 C722 0.930 . S
H777 C725 0.929 . S
H778 C730 0.929 . S
H779 C731 0.930 . S
H780 C738 0.929 . S
H781 C739 0.930 . S
H782 C740 0.930 . S
H783 C741 0.930 . S
H784 C743 0.929 . S
H785 C744 0.930 . S
H786 C745 0.930 . S
H787 C746 0.930 . S
H788 C750 0.929 . S
H789 C752 0.930 . S
H790 C758 0.929 . S
H791 C759 0.930 . S
Li792 N809 1.991 . S
Li792 O852 1.956 1_556 S
Li792 O853 1.962 1_556 S
Li792 O854 1.969 . S
Li793 N817 1.990 . S
Li793 O852 1.981 . S
Li793 O853 1.956 . S
Li793 O855 1.957 1_554 S
Li794 N839 1.990 . S
Li794 O852 1.950 1_556 S
Li794 O854 1.956 . S
Li794 O855 1.974 . S
Li795 N845 1.991 . S
Li795 O853 1.976 . S
Li795 O854 1.955 1_554 S
Li795 O855 1.956 1_554 S
C796 C798 1.345 . S
C796 C799 1.359 1_554 S
C796 O852 1.325 . S
N797 C800 1.314 1_556 S
N797 C801 1.279 . S
C798 C796 1.345 . S
C798 C800 1.353 . S
C798 H856 0.929 . S
C799 C796 1.359 1_556 S
C799 C801 1.358 . S
C799 H857 0.930 . S
C800 N797 1.314 1_554 S
C800 C798 1.353 . S
C800 H858 0.930 . S
C801 N797 1.279 . S
C801 C799 1.358 . S
C801 H859 0.930 . S
C802 C805 1.348 . S
C802 C806 1.356 . S
C802 O853 1.325 . S
C803 N804 1.279 . S
C803 C806 1.358 . S
C803 H860 0.930 . S
N804 C803 1.279 . S
N804 C807 1.314 . S
C805 C802 1.348 . S
C805 C807 1.353 . S
C805 H861 0.929 . S
C806 C802 1.356 . S
C806 C803 1.358 . S
C806 H862 0.930 . S
C807 N804 1.314 . S
C807 C805 1.353 . S
C807 H863 0.930 . S
C808 N809 1.314 . S
C808 C813 1.353 . S
C808 H814 0.930 . S
N809 Li792 1.991 . S
N809 C808 1.314 . S
N809 C811 1.279 1_556 S
C810 C811 1.358 . S
C810 C812 1.357 . S
C810 H864 0.930 . S
C811 N809 1.279 1_554 S
C811 C810 1.358 . S
C811 H815 0.930 . S
C812 C810 1.357 . S
C812 C813 1.346 1_554 S
C813 C808 1.353 . S
C813 C812 1.346 1_556 S
C813 H865 0.929 . S
H814 C808 0.930 . S
H815 C811 0.930 . S
C816 N817 1.314 . S
C816 C818 1.353 . S
C816 H822 0.930 . S
N817 Li793 1.990 . S
N817 C816 1.314 . S
N817 C820 1.279 . S
C818 C816 1.353 . S
C818 C821 1.348 . S
C818 H866 0.929 . S
C819 C820 1.358 . S
C819 C821 1.356 . S
C819 H867 0.930 . S
C820 N817 1.279 . S
C820 C819 1.358 . S
C820 H823 0.930 . S
C821 C818 1.348 . S
C821 C819 1.356 . S
H822 C816 0.930 . S
H823 C820 0.930 . S
C824 C826 1.348 . S
C824 C827 1.356 . S
C824 O854 1.325 . S
N825 C828 1.314 . S
N825 C829 1.279 . S
C826 C824 1.348 . S
C826 C828 1.353 . S
C826 H868 0.929 . S
C827 C824 1.356 . S
C827 C829 1.358 . S
C827 H869 0.930 . S
C828 N825 1.314 . S
C828 C826 1.353 . S
C828 H870 0.930 . S
C829 N825 1.279 . S
C829 C827 1.358 . S
C829 H871 0.930 . S
C830 C831 1.345 1_554 S
C830 C832 1.359 . S
C830 O855 1.325 1_554 S
C831 C830 1.345 1_556 S
C831 C833 1.353 . S
C831 H872 0.929 . S
C832 C830 1.359 . S
C832 C834 1.358 . S
C832 H873 0.930 . S
C833 C831 1.353 . S
C833 N835 1.314 1_556 S
C833 H874 0.930 . S
C834 C832 1.358 . S
C834 N835 1.279 . S
C834 H875 0.930 . S
N835 C833 1.314 1_554 S
N835 C834 1.279 . S
C836 C838 1.353 . S
C836 N839 1.314 . S
C836 H842 0.930 . S
C837 N839 1.279 . S
C837 C840 1.358 . S
C837 H843 0.930 . S
C838 C836 1.353 . S
C838 C841 1.348 . S
C838 H876 0.929 . S
N839 Li794 1.990 . S
N839 C836 1.314 . S
N839 C837 1.279 . S
C840 C837 1.358 . S
C840 C841 1.356 . S
C840 H877 0.930 . S
C841 C838 1.348 . S
C841 C840 1.356 . S
H842 C836 0.930 . S
H843 C837 0.930 . S
C844 N845 1.314 . S
C844 C846 1.353 . S
C844 H850 0.930 . S
N845 Li795 1.991 . S
N845 C844 1.314 . S
N845 C848 1.279 1_554 S
C846 C844 1.353 . S
C846 C849 1.346 . S
C846 H878 0.929 . S
C847 C848 1.358 . S
C847 C849 1.357 1_556 S
C847 H879 0.930 . S
C848 N845 1.279 1_556 S
C848 C847 1.358 . S
C848 H851 0.930 . S
C849 C846 1.346 . S
C849 C847 1.357 1_554 S
H850 C844 0.930 . S
H851 C848 0.930 . S
O852 Li792 1.956 1_554 S
O852 Li793 1.981 . S
O852 Li794 1.950 1_554 S
O852 C796 1.325 . S
O853 Li792 1.962 1_554 S
O853 Li793 1.956 . S
O853 Li795 1.976 . S
O853 C802 1.325 . S
O854 Li792 1.969 . S
O854 Li794 1.956 . S
O854 Li795 1.955 1_556 S
O854 C824 1.325 . S
O855 Li793 1.957 1_556 S
O855 Li794 1.974 . S
O855 Li795 1.956 1_556 S
O855 C830 1.325 1_556 S
H856 C798 0.929 . S
H857 C799 0.930 . S
H858 C800 0.930 . S
H859 C801 0.930 . S
H860 C803 0.930 . S
H861 C805 0.929 . S
H862 C806 0.930 . S
H863 C807 0.930 . S
H864 C810 0.930 . S
H865 C813 0.929 . S
H866 C818 0.929 . S
H867 C819 0.930 . S
H868 C826 0.929 . S
H869 C827 0.930 . S
H870 C828 0.930 . S
H871 C829 0.930 . S
H872 C831 0.929 . S
H873 C832 0.930 . S
H874 C833 0.930 . S
H875 C834 0.930 . S
H876 C838 0.929 . S
H877 C840 0.930 . S
H878 C846 0.929 . S
H879 C847 0.930 . S
Li880 N897 1.991 . S
Li880 O940 1.956 1_556 S
Li880 O941 1.962 1_556 S
Li880 O942 1.969 . S
Li881 N905 1.990 . S
Li881 O940 1.981 . S
Li881 O941 1.956 . S
Li881 O943 1.957 1_554 S
Li882 N927 1.990 . S
Li882 O940 1.950 1_556 S
Li882 O942 1.956 . S
Li882 O943 1.974 . S
Li883 N933 1.991 . S
Li883 O941 1.976 . S
Li883 O942 1.955 1_554 S
Li883 O943 1.956 1_554 S
C884 C886 1.345 . S
C884 C887 1.359 1_554 S
C884 O940 1.325 . S
N885 C888 1.314 1_556 S
N885 C889 1.279 . S
C886 C884 1.345 . S
C886 C888 1.353 . S
C886 H944 0.929 . S
C887 C884 1.359 1_556 S
C887 C889 1.358 . S
C887 H945 0.930 . S
C888 N885 1.314 1_554 S
C888 C886 1.353 . S
C888 H946 0.930 . S
C889 N885 1.279 . S
C889 C887 1.358 . S
C889 H947 0.930 . S
C890 C893 1.348 . S
C890 C894 1.356 . S
C890 O941 1.325 . S
C891 N892 1.279 . S
C891 C894 1.358 . S
C891 H948 0.930 . S
N892 C891 1.279 . S
N892 C895 1.314 . S
C893 C890 1.348 . S
C893 C895 1.353 . S
C893 H949 0.929 . S
C894 C890 1.356 . S
C894 C891 1.358 . S
C894 H950 0.930 . S
C895 N892 1.314 . S
C895 C893 1.353 . S
C895 H951 0.930 . S
C896 N897 1.314 . S
C896 C901 1.353 . S
C896 H902 0.930 . S
N897 Li880 1.991 . S
N897 C896 1.314 . S
N897 C899 1.279 1_556 S
C898 C899 1.358 . S
C898 C900 1.357 . S
C898 H952 0.930 . S
C899 N897 1.279 1_554 S
C899 C898 1.358 . S
C899 H903 0.930 . S
C900 C898 1.357 . S
C900 C901 1.346 1_554 S
C901 C896 1.353 . S
C901 C900 1.346 1_556 S
C901 H953 0.929 . S
H902 C896 0.930 . S
H903 C899 0.930 . S
C904 N905 1.314 . S
C904 C906 1.353 . S
C904 H910 0.930 . S
N905 Li881 1.990 . S
N905 C904 1.314 . S
N905 C908 1.279 . S
C906 C904 1.353 . S
C906 C909 1.348 . S
C906 H954 0.929 . S
C907 C908 1.358 . S
C907 C909 1.356 . S
C907 H955 0.930 . S
C908 N905 1.279 . S
C908 C907 1.358 . S
C908 H911 0.930 . S
C909 C906 1.348 . S
C909 C907 1.356 . S
H910 C904 0.930 . S
H911 C908 0.930 . S
C912 C914 1.348 . S
C912 C915 1.356 . S
C912 O942 1.325 . S
N913 C916 1.314 . S
N913 C917 1.279 . S
C914 C912 1.348 . S
C914 C916 1.353 . S
C914 H956 0.929 . S
C915 C912 1.356 . S
C915 C917 1.358 . S
C915 H957 0.930 . S
C916 N913 1.314 . S
C916 C914 1.353 . S
C916 H958 0.930 . S
C917 N913 1.279 . S
C917 C915 1.358 . S
C917 H959 0.930 . S
C918 C919 1.345 1_554 S
C918 C920 1.359 . S
C918 O943 1.325 1_554 S
C919 C918 1.345 1_556 S
C919 C921 1.353 . S
C919 H960 0.929 . S
C920 C918 1.359 . S
C920 C922 1.358 . S
C920 H961 0.930 . S
C921 C919 1.353 . S
C921 N923 1.314 1_556 S
C921 H962 0.930 . S
C922 C920 1.358 . S
C922 N923 1.279 . S
C922 H963 0.930 . S
N923 C921 1.314 1_554 S
N923 C922 1.279 . S
C924 C926 1.353 . S
C924 N927 1.314 . S
C924 H930 0.930 . S
C925 N927 1.279 . S
C925 C928 1.358 . S
C925 H931 0.930 . S
C926 C924 1.353 . S
C926 C929 1.348 . S
C926 H964 0.929 . S
N927 Li882 1.990 . S
N927 C924 1.314 . S
N927 C925 1.279 . S
C928 C925 1.358 . S
C928 C929 1.356 . S
C928 H965 0.930 . S
C929 C926 1.348 . S
C929 C928 1.356 . S
H930 C924 0.930 . S
H931 C925 0.930 . S
C932 N933 1.314 . S
C932 C934 1.353 . S
C932 H938 0.930 . S
N933 Li883 1.991 . S
N933 C932 1.314 . S
N933 C936 1.279 1_554 S
C934 C932 1.353 . S
C934 C937 1.346 . S
C934 H966 0.929 . S
C935 C936 1.358 . S
C935 C937 1.357 1_556 S
C935 H967 0.930 . S
C936 N933 1.279 1_556 S
C936 C935 1.358 . S
C936 H939 0.930 . S
C937 C934 1.346 . S
C937 C935 1.357 1_554 S
H938 C932 0.930 . S
H939 C936 0.930 . S
O940 Li880 1.956 1_554 S
O940 Li881 1.981 . S
O940 Li882 1.950 1_554 S
O940 C884 1.325 . S
O941 Li880 1.962 1_554 S
O941 Li881 1.956 . S
O941 Li883 1.976 . S
O941 C890 1.325 . S
O942 Li880 1.969 . S
O942 Li882 1.956 . S
O942 Li883 1.955 1_556 S
O942 C912 1.325 . S
O943 Li881 1.957 1_556 S
O943 Li882 1.974 . S
O943 Li883 1.956 1_556 S
O943 C918 1.325 1_556 S
H944 C886 0.929 . S
H945 C887 0.930 . S
H946 C888 0.930 . S
H947 C889 0.930 . S
H948 C891 0.930 . S
H949 C893 0.929 . S
H950 C894 0.930 . S
H951 C895 0.930 . S
H952 C898 0.930 . S
H953 C901 0.929 . S
H954 C906 0.929 . S
H955 C907 0.930 . S
H956 C914 0.929 . S
H957 C915 0.930 . S
H958 C916 0.930 . S
H959 C917 0.930 . S
H960 C919 0.929 . S
H961 C920 0.930 . S
H962 C921 0.930 . S
H963 C922 0.930 . S
H964 C926 0.929 . S
H965 C928 0.930 . S
H966 C934 0.929 . S
H967 C935 0.930 . S
Li968 N985 1.990 . S
Li968 O1028 1.956 . S
Li968 O1029 1.981 . S
Li968 O1030 1.957 1_554 S
Li969 N993 1.991 . S
Li969 O1028 1.962 1_556 S
Li969 O1029 1.956 1_556 S
Li969 O1031 1.969 . S
Li970 N1015 1.991 . S
Li970 O1028 1.976 . S
Li970 O1030 1.956 1_554 S
Li970 O1031 1.955 1_554 S
Li971 N1021 1.990 . S
Li971 O1029 1.950 1_556 S
Li971 O1030 1.974 . S
Li971 O1031 1.956 . S
C972 C974 1.348 . S
C972 C975 1.356 . S
C972 O1028 1.325 . S
N973 C976 1.314 . S
N973 C977 1.279 . S
C974 C972 1.348 . S
C974 C976 1.353 . S
C974 H1032 0.929 . S
C975 C972 1.356 . S
C975 C977 1.358 . S
C975 H1033 0.930 . S
C976 N973 1.314 . S
C976 C974 1.353 . S
C976 H1034 0.930 . S
C977 N973 1.279 . S
C977 C975 1.358 . S
C977 H1035 0.930 . S
C978 C981 1.345 . S
C978 C982 1.359 1_554 S
C978 O1029 1.325 . S
C979 N980 1.279 . S
C979 C982 1.358 . S
C979 H1036 0.930 . S
N980 C979 1.279 . S
N980 C983 1.314 1_556 S
C981 C978 1.345 . S
C981 C983 1.353 . S
C981 H1037 0.929 . S
C982 C978 1.359 1_556 S
C982 C979 1.358 . S
C982 H1038 0.930 . S
C983 N980 1.314 1_554 S
C983 C981 1.353 . S
C983 H1039 0.930 . S
C984 N985 1.314 . S
C984 C989 1.353 . S
C984 H990 0.930 . S
N985 Li968 1.990 . S
N985 C984 1.314 . S
N985 C987 1.279 . S
C986 C987 1.358 . S
C986 C988 1.356 . S
C986 H1040 0.930 . S
C987 N985 1.279 . S
C987 C986 1.358 . S
C987 H991 0.930 . S
C988 C986 1.356 . S
C988 C989 1.348 . S
C989 C984 1.353 . S
C989 C988 1.348 . S
C989 H1041 0.929 . S
H990 C984 0.930 . S
H991 C987 0.930 . S
C992 N993 1.314 . S
C992 C994 1.353 . S
C992 H998 0.930 . S
N993 Li969 1.991 . S
N993 C992 1.314 . S
N993 C996 1.279 1_556 S
C994 C992 1.353 . S
C994 C997 1.346 1_556 S
C994 H1042 0.929 . S
C995 C996 1.358 . S
C995 C997 1.357 . S
C995 H1043 0.930 . S
C996 N993 1.279 1_554 S
C996 C995 1.358 . S
C996 H999 0.930 . S
C997 C994 1.346 1_554 S
C997 C995 1.357 . S
H998 C992 0.930 . S
H999 C996 0.930 . S
C1000 C1002 1.345 1_554 S
C1000 C1003 1.359 . S
C1000 O1030 1.325 1_554 S
N1001 C1004 1.314 1_554 S
N1001 C1005 1.279 . S
C1002 C1000 1.345 1_556 S
C1002 C1004 1.353 . S
C1002 H1044 0.929 . S
C1003 C1000 1.359 . S
C1003 C1005 1.358 . S
C1003 H1045 0.930 . S
C1004 N1001 1.314 1_556 S
C1004 C1002 1.353 . S
C1004 H1046 0.930 . S
C1005 N1001 1.279 . S
C1005 C1003 1.358 . S
C1005 H1047 0.930 . S
C1006 C1007 1.348 . S
C1006 C1008 1.356 . S
C1006 O1031 1.325 . S
C1007 C1006 1.348 . S
C1007 C1009 1.353 . S
C1007 H1048 0.929 . S
C1008 C1006 1.356 . S
C1008 C1010 1.358 . S
C1008 H1049 0.930 . S
C1009 C1007 1.353 . S
C1009 N1011 1.314 . S
C1009 H1050 0.930 . S
C1010 C1008 1.358 . S
C1010 N1011 1.279 . S
C1010 H1051 0.930 . S
N1011 C1009 1.314 . S
N1011 C1010 1.279 . S
C1012 C1014 1.353 . S
C1012 N1015 1.314 . S
C1012 H1018 0.930 . S
C1013 N1015 1.279 1_556 S
C1013 C1016 1.358 . S
C1013 H1019 0.930 . S
C1014 C1012 1.353 . S
C1014 C1017 1.346 . S
C1014 H1052 0.929 . S
N1015 Li970 1.991 . S
N1015 C1012 1.314 . S
N1015 C1013 1.279 1_554 S
C1016 C1013 1.358 . S
C1016 C1017 1.357 1_556 S
C1016 H1053 0.930 . S
C1017 C1014 1.346 . S
C1017 C1016 1.357 1_554 S
H1018 C1012 0.930 . S
H1019 C1013 0.930 . S
C1020 N1021 1.314 . S
C1020 C1022 1.353 . S
C1020 H1026 0.930 . S
N1021 Li971 1.990 . S
N1021 C1020 1.314 . S
N1021 C1024 1.279 . S
C1022 C1020 1.353 . S
C1022 C1025 1.348 . S
C1022 H1054 0.929 . S
C1023 C1024 1.358 . S
C1023 C1025 1.356 . S
C1023 H1055 0.930 . S
C1024 N1021 1.279 . S
C1024 C1023 1.358 . S
C1024 H1027 0.930 . S
C1025 C1022 1.348 . S
C1025 C1023 1.356 . S
H1026 C1020 0.930 . S
H1027 C1024 0.930 . S
O1028 Li968 1.956 . S
O1028 Li969 1.962 1_554 S
O1028 Li970 1.976 . S
O1028 C972 1.325 . S
O1029 Li968 1.981 . S
O1029 Li969 1.956 1_554 S
O1029 Li971 1.950 1_554 S
O1029 C978 1.325 . S
O1030 Li968 1.957 1_556 S
O1030 Li970 1.956 1_556 S
O1030 Li971 1.974 . S
O1030 C1000 1.325 1_556 S
O1031 Li969 1.969 . S
O1031 Li970 1.955 1_556 S
O1031 Li971 1.956 . S
O1031 C1006 1.325 . S
H1032 C974 0.929 . S
H1033 C975 0.930 . S
H1034 C976 0.930 . S
H1035 C977 0.930 . S
H1036 C979 0.930 . S
H1037 C981 0.929 . S
H1038 C982 0.930 . S
H1039 C983 0.930 . S
H1040 C986 0.930 . S
H1041 C989 0.929 . S
H1042 C994 0.929 . S
H1043 C995 0.930 . S
H1044 C1002 0.929 . S
H1045 C1003 0.930 . S
H1046 C1004 0.930 . S
H1047 C1005 0.930 . S
H1048 C1007 0.929 . S
H1049 C1008 0.930 . S
H1050 C1009 0.930 . S
H1051 C1010 0.930 . S
H1052 C1014 0.929 . S
H1053 C1016 0.930 . S
H1054 C1022 0.929 . S
H1055 C1023 0.930 . S
C1056 C1057 1.369 . S
C1056 C1058 1.419 . S
C1056 H1060 0.930 . S
C1057 C1056 1.369 . S
C1057 C1066 1.429 1_455 S
C1058 C1056 1.419 . S
C1058 C1059 1.350 1_455 S
C1058 H1061 0.929 . S
C1059 C1058 1.350 1_655 S
C1059 C1065 1.442 . S
H1060 C1056 0.930 . S
H1061 C1058 0.929 . S
S1062 N1063 1.613 . S
S1062 N1064 1.610 . S
N1063 S1062 1.613 . S
N1063 C1066 1.350 . S
N1064 S1062 1.610 . S
N1064 C1065 1.351 . S
C1065 C1059 1.442 . S
C1065 N1064 1.351 . S
C1065 C1066 1.434 . S
C1066 C1057 1.429 1_655 S
C1066 N1063 1.350 . S
C1066 C1065 1.434 . S
C1067 C1068 1.342 1_565 S
C1067 C1069 1.419 . S
C1067 H1071 0.930 . S
C1068 C1067 1.342 1_545 S
C1068 C1077 1.457 . S
C1069 C1067 1.419 . S
C1069 C1070 1.366 1_565 S
C1069 H1072 0.929 . S
C1070 C1069 1.366 1_545 S
C1070 C1076 1.425 . S
H1071 C1067 0.930 . S
H1072 C1069 0.929 . S
S1073 N1074 1.613 . S
S1073 N1075 1.610 . S
N1074 S1073 1.613 . S
N1074 C1077 1.350 . S
N1075 S1073 1.610 . S
N1075 C1076 1.351 . S
C1076 C1070 1.425 . S
C1076 N1075 1.351 . S
C1076 C1077 1.434 . S
C1077 C1068 1.457 . S
C1077 N1074 1.350 . S
C1077 C1076 1.434 . S
C1078 C1079 1.375 . S
C1078 C1080 1.419 . S
C1078 H1082 0.930 . S
C1079 C1078 1.375 . S
C1079 C1088 1.422 1_455 S
C1080 C1078 1.419 . S
C1080 C1081 1.359 1_455 S
C1080 H1083 0.929 . S
C1081 C1080 1.359 1_655 S
C1081 C1087 1.432 . S
H1082 C1078 0.930 . S
H1083 C1080 0.929 . S
S1084 N1085 1.613 . S
S1084 N1086 1.610 . S
N1085 S1084 1.613 . S
N1085 C1088 1.350 . S
N1086 S1084 1.610 . S
N1086 C1087 1.351 . S
C1087 C1081 1.432 . S
C1087 N1086 1.351 . S
C1087 C1088 1.434 . S
C1088 C1079 1.422 1_655 S
C1088 N1085 1.350 . S
C1088 C1087 1.434 . S
C1089 C1090 1.367 1_545 S
C1089 C1091 1.419 . S
C1089 H1093 0.930 . S
C1090 C1089 1.367 1_565 S
C1090 C1099 1.431 . S
C1091 C1089 1.419 . S
C1091 C1092 1.369 . S
C1091 H1094 0.929 . S
C1092 C1091 1.369 . S
C1092 C1098 1.423 1_545 S
H1093 C1089 0.930 . S
H1094 C1091 0.929 . S
S1095 N1096 1.613 . S
S1095 N1097 1.610 . S
N1096 S1095 1.613 . S
N1096 C1099 1.350 . S
N1097 S1095 1.610 . S
N1097 C1098 1.351 . S
C1098 C1092 1.423 1_565 S
C1098 N1097 1.351 . S
C1098 C1099 1.434 . S
C1099 C1090 1.431 . S
C1099 N1096 1.350 . S
C1099 C1098 1.434 . S
C1100 C1101 1.368 1_455 S
C1100 C1102 1.419 . S
C1100 H1104 0.930 . S
C1101 C1100 1.368 1_655 S
C1101 C1110 1.429 . S
C1102 C1100 1.419 . S
C1102 C1103 1.367 . S
C1102 H1105 0.929 . S
C1103 C1102 1.367 . S
C1103 C1109 1.425 1_455 S
H1104 C1100 0.930 . S
H1105 C1102 0.929 . S
S1106 N1107 1.613 . S
S1106 N1108 1.610 . S
N1107 S1106 1.613 . S
N1107 C1110 1.350 . S
N1108 S1106 1.610 . S
N1108 C1109 1.351 . S
C1109 C1103 1.425 1_655 S
C1109 N1108 1.351 . S
C1109 C1110 1.434 . S
C1110 C1101 1.429 . S
C1110 N1107 1.350 . S
C1110 C1109 1.434 . S
C1111 C1112 1.370 . S
C1111 C1113 1.419 . S
C1111 H1115 0.930 . S
C1112 C1111 1.370 . S
C1112 C1121 1.428 1_565 S
C1113 C1111 1.419 . S
C1113 C1114 1.362 1_565 S
C1113 H1116 0.929 . S
C1114 C1113 1.362 1_545 S
C1114 C1120 1.429 . S
H1115 C1111 0.930 . S
H1116 C1113 0.929 . S
S1117 N1118 1.613 . S
S1117 N1119 1.611 . S
N1118 S1117 1.613 . S
N1118 C1121 1.350 . S
N1119 S1117 1.611 . S
N1119 C1120 1.351 . S
C1120 C1114 1.429 . S
C1120 N1119 1.351 . S
C1120 C1121 1.435 . S
C1121 C1112 1.428 1_545 S
C1121 N1118 1.350 . S
C1121 C1120 1.435 . S
C1122 C1123 1.366 . S
C1122 C1124 1.419 . S
C1122 H1126 0.930 . S
C1123 C1122 1.366 . S
C1123 C1132 1.431 1_655 S
C1124 C1122 1.419 . S
C1124 C1125 1.344 1_655 S
C1124 H1127 0.929 . S
C1125 C1124 1.344 1_455 S
C1125 C1131 1.447 . S
H1126 C1122 0.930 . S
H1127 C1124 0.929 . S
S1128 N1129 1.613 . S
S1128 N1130 1.610 . S
N1129 S1128 1.613 . S
N1129 C1132 1.350 . S
N1130 S1128 1.610 . S
N1130 C1131 1.351 . S
C1131 C1125 1.447 . S
C1131 N1130 1.351 . S
C1131 C1132 1.434 . S
C1132 C1123 1.431 1_455 S
C1132 N1129 1.350 . S
C1132 C1131 1.434 . S
C1133 C1134 1.369 . S
C1133 C1135 1.419 . S
C1133 H1137 0.930 . S
C1134 C1133 1.369 . S
C1134 C1143 1.429 1_545 S
C1135 C1133 1.419 . S
C1135 C1136 1.347 1_545 S
C1135 H1138 0.929 . S
C1136 C1135 1.347 1_565 S
C1136 C1142 1.445 . S
H1137 C1133 0.930 . S
H1138 C1135 0.929 . S
S1139 N1140 1.613 . S
S1139 N1141 1.610 . S
N1140 S1139 1.613 . S
N1140 C1143 1.350 . S
N1141 S1139 1.610 . S
N1141 C1142 1.351 . S
C1142 C1136 1.445 . S
C1142 N1141 1.351 . S
C1142 C1143 1.434 . S
C1143 C1134 1.429 1_565 S
C1143 N1140 1.350 . S
C1143 C1142 1.434 . S
C1144 C1145 1.361 1_554 S
C1144 C1146 1.419 . S
C1144 H1148 0.930 . S
C1145 C1144 1.361 1_556 S
C1145 C1154 1.437 . S
C1146 C1144 1.419 . S
C1146 C1147 1.370 . S
C1146 H1149 0.929 . S
C1147 C1146 1.370 . S
C1147 C1153 1.422 1_554 S
H1148 C1144 0.930 . S
H1149 C1146 0.929 . S
S1150 N1151 1.613 . S
S1150 N1152 1.610 . S
N1151 S1150 1.613 . S
N1151 C1154 1.350 . S
N1152 S1150 1.610 . S
N1152 C1153 1.351 . S
C1153 C1147 1.422 1_556 S
C1153 N1152 1.351 . S
C1153 C1154 1.434 . S
C1154 C1145 1.437 . S
C1154 N1151 1.350 . S
C1154 C1153 1.434 . S
C1155 C1156 1.367 1_554 S
C1155 C1157 1.419 . S
C1155 H1159 0.930 . S
C1156 C1155 1.367 1_556 S
C1156 C1165 1.431 . S
C1157 C1155 1.419 . S
C1157 C1158 1.368 . S
C1157 H1160 0.929 . S
C1158 C1157 1.368 . S
C1158 C1164 1.423 1_554 S
H1159 C1155 0.930 . S
H1160 C1157 0.929 . S
S1161 N1162 1.613 . S
S1161 N1163 1.610 . S
N1162 S1161 1.613 . S
N1162 C1165 1.350 . S
N1163 S1161 1.610 . S
N1163 C1164 1.351 . S
C1164 C1158 1.423 1_556 S
C1164 N1163 1.351 . S
C1164 C1165 1.434 . S
C1165 C1156 1.431 . S
C1165 N1162 1.350 . S
C1165 C1164 1.434 . S
C1166 C1167 1.341 1_556 S
C1166 C1168 1.419 . S
C1166 H1170 0.930 . S
C1167 C1166 1.341 1_554 S
C1167 C1176 1.457 . S
C1168 C1166 1.419 . S
C1168 C1169 1.366 1_556 S
C1168 H1171 0.929 . S
C1169 C1168 1.366 1_554 S
C1169 C1175 1.425 . S
H1170 C1166 0.930 . S
H1171 C1168 0.929 . S
S1172 N1173 1.613 . S
S1172 N1174 1.610 . S
N1173 S1172 1.613 . S
N1173 C1176 1.350 . S
N1174 S1172 1.610 . S
N1174 C1175 1.351 . S
C1175 C1169 1.425 . S
C1175 N1174 1.351 . S
C1175 C1176 1.434 . S
C1176 C1167 1.457 . S
C1176 N1173 1.350 . S
C1176 C1175 1.434 . S
C1177 C1178 1.344 1_556 S
C1177 C1179 1.419 . S
C1177 H1181 0.930 . S
C1178 C1177 1.344 1_554 S
C1178 C1187 1.454 . S
C1179 C1177 1.419 . S
C1179 C1180 1.360 . S
C1179 H1182 0.929 . S
C1180 C1179 1.360 . S
C1180 C1186 1.432 1_556 S
H1181 C1177 0.930 . S
H1182 C1179 0.929 . S
S1183 N1184 1.613 . S
S1183 N1185 1.610 . S
N1184 S1183 1.613 . S
N1184 C1187 1.350 . S
N1185 S1183 1.610 . S
N1185 C1186 1.351 . S
C1186 C1180 1.432 1_554 S
C1186 N1185 1.351 . S
C1186 C1187 1.434 . S
C1187 C1178 1.454 . S
C1187 N1184 1.350 . S
C1187 C1186 1.434 . S
C1188 C1189 1.369 . S
C1188 C1190 1.419 . S
C1188 H1192 0.930 . S
C1189 C1188 1.369 . S
C1189 C1198 1.429 . S
C1190 C1188 1.419 . S
C1190 C1191 1.363 . S
C1190 H1193 0.929 . S
C1191 C1190 1.363 . S
C1191 C1197 1.428 . S
H1192 C1188 0.930 . S
H1193 C1190 0.929 . S
S1194 N1195 1.613 . S
S1194 N1196 1.610 . S
N1195 S1194 1.613 . S
N1195 C1198 1.350 . S
N1196 S1194 1.610 . S
N1196 C1197 1.351 . S
C1197 C1191 1.428 . S
C1197 N1196 1.351 . S
C1197 C1198 1.434 . S
C1198 C1189 1.429 . S
C1198 N1195 1.350 . S
C1198 C1197 1.434 . S
C1199 C1200 1.369 . S
C1199 C1201 1.419 . S
C1199 H1203 0.930 . S
C1200 C1199 1.369 . S
C1200 C1209 1.429 . S
C1201 C1199 1.419 . S
C1201 C1202 1.363 . S
C1201 H1204 0.929 . S
C1202 C1201 1.363 . S
C1202 C1208 1.428 . S
H1203 C1199 0.930 . S
H1204 C1201 0.929 . S
S1205 N1206 1.613 . S
S1205 N1207 1.610 . S
N1206 S1205 1.613 . S
N1206 C1209 1.350 . S
N1207 S1205 1.610 . S
N1207 C1208 1.351 . S
C1208 C1202 1.428 . S
C1208 N1207 1.351 . S
C1208 C1209 1.434 . S
C1209 C1200 1.429 . S
C1209 N1206 1.350 . S
C1209 C1208 1.434 . S
C1210 C1211 1.369 . S
C1210 C1212 1.419 . S
C1210 H1214 0.930 . S
C1211 C1210 1.369 . S
C1211 C1220 1.429 . S
C1212 C1210 1.419 . S
C1212 C1213 1.363 . S
C1212 H1215 0.929 . S
C1213 C1212 1.363 . S
C1213 C1219 1.428 . S
H1214 C1210 0.930 . S
H1215 C1212 0.929 . S
S1216 N1217 1.613 . S
S1216 N1218 1.610 . S
N1217 S1216 1.613 . S
N1217 C1220 1.350 . S
N1218 S1216 1.610 . S
N1218 C1219 1.351 . S
C1219 C1213 1.428 . S
C1219 N1218 1.351 . S
C1219 C1220 1.434 . S
C1220 C1211 1.429 . S
C1220 N1217 1.350 . S
C1220 C1219 1.434 . S
C1221 C1222 1.369 . S
C1221 C1223 1.419 . S
C1221 H1225 0.930 . S
C1222 C1221 1.369 . S
C1222 C1231 1.429 . S
C1223 C1221 1.419 . S
C1223 C1224 1.363 . S
C1223 H1226 0.929 . S
C1224 C1223 1.363 . S
C1224 C1230 1.428 . S
H1225 C1221 0.930 . S
H1226 C1223 0.929 . S
S1227 N1228 1.613 . S
S1227 N1229 1.610 . S
N1228 S1227 1.613 . S
N1228 C1231 1.350 . S
N1229 S1227 1.610 . S
N1229 C1230 1.351 . S
C1230 C1224 1.428 . S
C1230 N1229 1.351 . S
C1230 C1231 1.434 . S
C1231 C1222 1.429 . S
C1231 N1228 1.350 . S
C1231 C1230 1.434 . S
C1232 C1233 1.369 . S
C1232 C1234 1.419 . S
C1232 H1236 0.930 . S
C1233 C1232 1.369 . S
C1233 C1242 1.429 . S
C1234 C1232 1.419 . S
C1234 C1235 1.363 . S
C1234 H1237 0.929 . S
C1235 C1234 1.363 . S
C1235 C1241 1.428 . S
H1236 C1232 0.930 . S
H1237 C1234 0.929 . S
S1238 N1239 1.613 . S
S1238 N1240 1.610 . S
N1239 S1238 1.613 . S
N1239 C1242 1.350 . S
N1240 S1238 1.610 . S
N1240 C1241 1.351 . S
C1241 C1235 1.428 . S
C1241 N1240 1.351 . S
C1241 C1242 1.434 . S
C1242 C1233 1.429 . S
C1242 N1239 1.350 . S
C1242 C1241 1.434 . S
C1243 C1244 1.369 . S
C1243 C1245 1.419 . S
C1243 H1247 0.930 . S
C1244 C1243 1.369 . S
C1244 C1253 1.429 . S
C1245 C1243 1.419 . S
C1245 C1246 1.363 . S
C1245 H1248 0.929 . S
C1246 C1245 1.363 . S
C1246 C1252 1.428 . S
H1247 C1243 0.930 . S
H1248 C1245 0.929 . S
S1249 N1250 1.613 . S
S1249 N1251 1.610 . S
N1250 S1249 1.613 . S
N1250 C1253 1.350 . S
N1251 S1249 1.610 . S
N1251 C1252 1.351 . S
C1252 C1246 1.428 . S
C1252 N1251 1.351 . S
C1252 C1253 1.434 . S
C1253 C1244 1.429 . S
C1253 N1250 1.350 . S
C1253 C1252 1.434 . S
C1254 C1255 1.369 . S
C1254 C1256 1.419 . S
C1254 H1258 0.930 . S
C1255 C1254 1.369 . S
C1255 C1264 1.429 . S
C1256 C1254 1.419 . S
C1256 C1257 1.363 . S
C1256 H1259 0.929 . S
C1257 C1256 1.363 . S
C1257 C1263 1.428 . S
H1258 C1254 0.930 . S
H1259 C1256 0.929 . S
S1260 N1261 1.613 . S
S1260 N1262 1.610 . S
N1261 S1260 1.613 . S
N1261 C1264 1.350 . S
N1262 S1260 1.610 . S
N1262 C1263 1.351 . S
C1263 C1257 1.428 . S
C1263 N1262 1.351 . S
C1263 C1264 1.434 . S
C1264 C1255 1.429 . S
C1264 N1261 1.350 . S
C1264 C1263 1.434 . S
C1265 C1266 1.369 . S
C1265 C1267 1.419 . S
C1265 H1269 0.930 . S
C1266 C1265 1.369 . S
C1266 C1275 1.429 . S
C1267 C1265 1.419 . S
C1267 C1268 1.363 . S
C1267 H1270 0.929 . S
C1268 C1267 1.363 . S
C1268 C1274 1.428 . S
H1269 C1265 0.930 . S
H1270 C1267 0.929 . S
S1271 N1272 1.613 . S
S1271 N1273 1.610 . S
N1272 S1271 1.613 . S
N1272 C1275 1.350 . S
N1273 S1271 1.610 . S
N1273 C1274 1.351 . S
C1274 C1268 1.428 . S
C1274 N1273 1.351 . S
C1274 C1275 1.434 . S
C1275 C1266 1.429 . S
C1275 N1272 1.350 . S
C1275 C1274 1.434 . S
C1276 C1277 1.369 . S
C1276 C1278 1.419 . S
C1276 H1280 0.930 . S
C1277 C1276 1.369 . S
C1277 C1286 1.429 . S
C1278 C1276 1.419 . S
C1278 C1279 1.363 . S
C1278 H1281 0.929 . S
C1279 C1278 1.363 . S
C1279 C1285 1.428 . S
H1280 C1276 0.930 . S
H1281 C1278 0.929 . S
S1282 N1283 1.613 . S
S1282 N1284 1.610 . S
N1283 S1282 1.613 . S
N1283 C1286 1.350 . S
N1284 S1282 1.610 . S
N1284 C1285 1.351 . S
C1285 C1279 1.428 . S
C1285 N1284 1.351 . S
C1285 C1286 1.434 . S
C1286 C1277 1.429 . S
C1286 N1283 1.350 . S
C1286 C1285 1.434 . S
C1287 C1288 1.369 . S
C1287 C1289 1.419 . S
C1287 H1291 0.930 . S
C1288 C1287 1.369 . S
C1288 C1297 1.429 . S
C1289 C1287 1.419 . S
C1289 C1290 1.363 . S
C1289 H1292 0.929 . S
C1290 C1289 1.363 . S
C1290 C1296 1.428 . S
H1291 C1287 0.930 . S
H1292 C1289 0.929 . S
S1293 N1294 1.613 . S
S1293 N1295 1.610 . S
N1294 S1293 1.613 . S
N1294 C1297 1.350 . S
N1295 S1293 1.610 . S
N1295 C1296 1.351 . S
C1296 C1290 1.428 . S
C1296 N1295 1.351 . S
C1296 C1297 1.434 . S
C1297 C1288 1.429 . S
C1297 N1294 1.350 . S
C1297 C1296 1.434 . S
C1298 C1299 1.369 . S
C1298 C1300 1.419 . S
C1298 H1302 0.930 . S
C1299 C1298 1.369 . S
C1299 C1308 1.429 . S
C1300 C1298 1.419 . S
C1300 C1301 1.363 . S
C1300 H1303 0.929 . S
C1301 C1300 1.363 . S
C1301 C1307 1.428 . S
H1302 C1298 0.930 . S
H1303 C1300 0.929 . S
S1304 N1305 1.613 . S
S1304 N1306 1.610 . S
N1305 S1304 1.613 . S
N1305 C1308 1.350 . S
N1306 S1304 1.610 . S
N1306 C1307 1.351 . S
C1307 C1301 1.428 . S
C1307 N1306 1.351 . S
C1307 C1308 1.434 . S
C1308 C1299 1.429 . S
C1308 N1305 1.350 . S
C1308 C1307 1.434 . S
C1309 C1310 1.369 . S
C1309 C1311 1.419 . S
C1309 H1313 0.930 . S
C1310 C1309 1.369 . S
C1310 C1319 1.429 . S
C1311 C1309 1.419 . S
C1311 C1312 1.363 . S
C1311 H1314 0.929 . S
C1312 C1311 1.363 . S
C1312 C1318 1.428 . S
H1313 C1309 0.930 . S
H1314 C1311 0.929 . S
S1315 N1316 1.613 . S
S1315 N1317 1.610 . S
N1316 S1315 1.613 . S
N1316 C1319 1.350 . S
N1317 S1315 1.610 . S
N1317 C1318 1.351 . S
C1318 C1312 1.428 . S
C1318 N1317 1.351 . S
C1318 C1319 1.434 . S
C1319 C1310 1.429 . S
C1319 N1316 1.350 . S
C1319 C1318 1.434 . S
C1057 C49 1.283 . S
C1059 C469 1.284 1_655 S
C1068 C145 1.284 . S
C1070 C401 1.284 . S
C1079 C489 1.285 . S
C1081 C225 1.285 1_655 S
C1090 C313 1.282 1_565 S
C1092 C381 1.283 . S
C1101 C636 1.282 1_655 S
C1103 C205 1.283 . S
C1112 C548 1.285 1_565 S
C1114 C293 1.285 . S
C1123 C29 1.285 1_655 S
C1125 C673 1.285 . S
C1134 C585 1.284 . S
C1136 C108 1.284 1_565 S
C1145 C849 1.283 1_556 S
C1147 C733 1.283 . S
C1156 C753 1.282 1_556 S
C1158 C997 1.283 . S
C1167 C812 1.284 . S
C1169 C937 1.283 . S
C1178 C900 1.283 . S
C1180 C1017 1.283 1_556 S
C1189 C1025 1.283 . S
C1191 C557 1.286 . S
C1200 C761 1.285 . S
C1202 C665 1.284 . S
C1211 C577 1.282 . S
C1213 C841 1.284 . S
C1222 C645 1.285 . S
C1224 C929 1.288 . S
C1233 C372 1.284 . S
C1235 C821 1.281 . S
C1244 C460 1.285 . S
C1246 C909 1.284 . S
C1255 C988 1.282 . S
C1257 C409 1.283 . S
C1266 C724 1.283 . S
C1268 C497 1.280 . S
C1277 C117 1.283 . S
C1279 C233 1.286 . S
C1288 C20 1.285 . S
C1290 C137 1.284 . S
C1299 C196 1.283 . S
C1301 C321 1.284 . S
C1310 C57 1.283 . S
C1312 C284 1.280 . S
