# Generated by pormake.
# Topology ukh, (4)-cn, num edge types: 1
# Building blocks:
#     Node 0, Type 0, BuildingBlock: CEKHIL_clean_sbu_0, # of connection points: 4
#     Node 1, Type 0, BuildingBlock: CEKHIL_clean_sbu_0, # of connection points: 4
#     Node 2, Type 0, BuildingBlock: CEKHIL_clean_sbu_0, # of connection points: 4
#     Node 3, Type 0, BuildingBlock: CEKHIL_clean_sbu_0, # of connection points: 4
#     Node 4, Type 0, BuildingBlock: CEKHIL_clean_sbu_0, # of connection points: 4
#     Node 5, Type 0, BuildingBlock: CEKHIL_clean_sbu_0, # of connection points: 4
#     Node 6, Type 0, BuildingBlock: CEKHIL_clean_sbu_0, # of connection points: 4
#     Node 7, Type 0, BuildingBlock: CEKHIL_clean_sbu_0, # of connection points: 4
#     Node 8, Type 0, BuildingBlock: CEKHIL_clean_sbu_0, # of connection points: 4
#     Node 9, Type 0, BuildingBlock: CEKHIL_clean_sbu_0, # of connection points: 4
#     Node 10, Type 0, BuildingBlock: CEKHIL_clean_sbu_0, # of connection points: 4
#     Node 11, Type 0, BuildingBlock: CEKHIL_clean_sbu_0, # of connection points: 4
#     Edge 12, Type (0, 0), BuildingBlock: CIFDUS_clean_linker_0, # of connection points: 2
#     Edge 13, Type (0, 0), BuildingBlock: CIFDUS_clean_linker_0, # of connection points: 2
#     Edge 14, Type (0, 0), BuildingBlock: CIFDUS_clean_linker_0, # of connection points: 2
#     Edge 15, Type (0, 0), BuildingBlock: CIFDUS_clean_linker_0, # of connection points: 2
#     Edge 16, Type (0, 0), BuildingBlock: CIFDUS_clean_linker_0, # of connection points: 2
#     Edge 17, Type (0, 0), BuildingBlock: CIFDUS_clean_linker_0, # of connection points: 2
#     Edge 18, Type (0, 0), BuildingBlock: CIFDUS_clean_linker_0, # of connection points: 2
#     Edge 19, Type (0, 0), BuildingBlock: CIFDUS_clean_linker_0, # of connection points: 2
#     Edge 20, Type (0, 0), BuildingBlock: CIFDUS_clean_linker_0, # of connection points: 2
#     Edge 21, Type (0, 0), BuildingBlock: CIFDUS_clean_linker_0, # of connection points: 2
#     Edge 22, Type (0, 0), BuildingBlock: CIFDUS_clean_linker_0, # of connection points: 2
#     Edge 23, Type (0, 0), BuildingBlock: CIFDUS_clean_linker_0, # of connection points: 2
#     Edge 24, Type (0, 0), BuildingBlock: CIFDUS_clean_linker_0, # of connection points: 2
#     Edge 25, Type (0, 0), BuildingBlock: CIFDUS_clean_linker_0, # of connection points: 2
#     Edge 26, Type (0, 0), BuildingBlock: CIFDUS_clean_linker_0, # of connection points: 2
#     Edge 27, Type (0, 0), BuildingBlock: CIFDUS_clean_linker_0, # of connection points: 2
#     Edge 28, Type (0, 0), BuildingBlock: CIFDUS_clean_linker_0, # of connection points: 2
#     Edge 29, Type (0, 0), BuildingBlock: CIFDUS_clean_linker_0, # of connection points: 2
#     Edge 30, Type (0, 0), BuildingBlock: CIFDUS_clean_linker_0, # of connection points: 2
#     Edge 31, Type (0, 0), BuildingBlock: CIFDUS_clean_linker_0, # of connection points: 2
#     Edge 32, Type (0, 0), BuildingBlock: CIFDUS_clean_linker_0, # of connection points: 2
#     Edge 33, Type (0, 0), BuildingBlock: CIFDUS_clean_linker_0, # of connection points: 2
#     Edge 34, Type (0, 0), BuildingBlock: CIFDUS_clean_linker_0, # of connection points: 2
#     Edge 35, Type (0, 0), BuildingBlock: CIFDUS_clean_linker_0, # of connection points: 2
# Relax obj value: 0.070
# Max RMSD: 0.091
# Mean RMSD: 0.091
data_MOF--net-ukh--node1-CEKHIL_clean_sbu_0--edge1-CIFDUS_clean_linker_0
_symmetry_space_group_name_H-M    P1
_symmetry_Int_Tables_number       1
_symmetry_cell_setting            triclinic
loop_
_symmetry_equiv_pos_as_xyz
'x, y, z'
_cell_length_a     28.408807
_cell_length_b     28.300629
_cell_length_c     53.232974
_cell_angle_alpha  90.073278
_cell_angle_beta   89.96254
_cell_angle_gamma 119.68695
loop_
_atom_site_label
_atom_site_type_symbol
_atom_site_fract_x
_atom_site_fract_y
_atom_site_fract_z
_atom_type_partial_charge
Co0 Co 0.33817 0.25364 0.04171 0.0
O1 O 0.36171 0.32896 0.04716 0.0
O2 O 0.41559 0.29832 0.03431 0.0
C3 C 0.26347 0.23673 0.01998 0.0
O4 O 0.32319 0.17641 0.03342 0.0
Co5 Co 0.22781 0.17328 0.06692 0.0
O6 O 0.2398 0.11884 0.04894 0.0
C7 C 0.3258 0.22855 0.09766 0.0
C8 C 0.40945 0.33984 0.04006 0.0
C9 C 0.28257 0.12812 0.03707 0.0
O10 O 0.35506 0.24528 0.07774 0.0
O11 O 0.27404 0.20445 0.09749 0.0
O12 O 0.30993 0.2567 0.00869 0.0
O13 O 0.26504 0.23332 0.04408 0.0
Co14 Co 0.06588 0.31504 0.38149 0.0
O15 O 0.01376 0.33613 0.39098 0.0
O16 O 0.09002 0.39032 0.37123 0.0
C17 C 1.00298 0.23492 0.36503 0.0
O18 O 0.12713 0.30266 0.36796 0.0
Co19 Co 0.05347 0.20946 0.40657 0.0
O20 O 0.11159 0.22123 0.3828 0.0
C21 C 0.10559 0.31351 0.43434 0.0
C22 C 0.04403 0.38248 0.38037 0.0
C23 C 0.13864 0.26379 0.36955 0.0
O24 O 0.10381 0.33998 0.41506 0.0
O25 O 0.0843 0.26176 0.43511 0.0
O26 O 0.0231 0.27897 0.35167 0.0
O27 O 0.01819 0.24148 0.38816 0.0
Co28 Co 0.74698 0.0769 0.71078 0.0
O29 O 0.67442 0.02988 0.72205 0.0
O30 O 0.70236 0.11013 0.70432 0.0
C31 C 0.75537 0.01167 0.69053 0.0
O32 O 0.81928 0.13388 0.69577 0.0
Co33 Co 0.83608 0.05339 0.73113 0.0
O34 O 0.88273 0.11237 0.70764 0.0
C35 C 0.79397 0.10784 0.76349 0.0
C36 C 0.66263 0.06564 0.7137 0.0
C37 C 0.8681 0.14187 0.6956 0.0
O38 O 0.76837 0.11331 0.74483 0.0
O39 O 0.81838 0.08018 0.76255 0.0
O40 O 0.73202 0.03566 0.67967 0.0
O41 O 0.76745 0.02354 0.71392 0.0
Co42 Co 0.67332 0.74845 0.04455 0.0
O43 O 0.64826 0.67423 0.05378 0.0
O44 O 0.59734 0.70283 0.03527 0.0
C45 C 0.75019 0.76189 0.02615 0.0
O46 O 0.68924 0.82307 0.03139 0.0
Co47 Co 0.78109 0.83571 0.06953 0.0
O48 O 0.77126 0.88515 0.04661 0.0
C49 C 0.67911 0.79136 0.09778 0.0
C50 C 0.60217 0.66227 0.04387 0.0
C51 C 0.7293 0.87224 0.03328 0.0
O52 O 0.652 0.76476 0.07837 0.0
O53 O 0.73086 0.81796 0.09871 0.0
O54 O 0.70478 0.73871 0.01392 0.0
O55 O 0.74662 0.77003 0.04977 0.0
Co56 Co 0.94586 0.68714 0.38315 0.0
O57 O 0.99804 0.6668 0.39352 0.0
O58 O 0.92341 0.61241 0.37267 0.0
C59 C 0.00798 0.76792 0.36729 0.0
O60 O 0.88539 0.69883 0.36837 0.0
Co61 Co 0.9537 0.79034 0.40855 0.0
O62 O 0.89712 0.77852 0.38376 0.0
C63 C 0.90864 0.68756 0.43641 0.0
C64 C 0.96899 0.62064 0.38245 0.0
C65 C 0.87269 0.73688 0.36961 0.0
O66 O 0.90583 0.66124 0.41622 0.0
O67 O 0.93223 0.73945 0.43768 0.0
O68 O 0.99006 0.72401 0.35391 0.0
O69 O 0.99184 0.76086 0.39031 0.0
Co70 Co 0.25846 0.93646 0.71685 0.0
O71 O 0.33221 0.98547 0.72595 0.0
O72 O 0.30249 0.9024 0.71104 0.0
C73 C 0.24745 0.99789 0.69459 0.0
O74 O 0.18478 0.87661 0.70426 0.0
Co75 Co 0.17028 0.96277 0.73633 0.0
O76 O 0.12214 0.90012 0.71499 0.0
C77 C 0.2107 0.90762 0.76964 0.0
C78 C 0.34318 0.94844 0.71855 0.0
C79 C 0.13587 0.86839 0.70435 0.0
O80 O 0.24096 0.90589 0.7521 0.0
O81 O 0.1824 0.93117 0.7675 0.0
O82 O 0.26989 0.97226 0.68442 0.0
O83 O 0.23772 0.98993 0.71837 0.0
Co84 Co 0.7474 0.67674 0.61675 0.0
O85 O 0.67598 0.65011 0.60352 0.0
O86 O 0.70443 0.59867 0.62194 0.0
C87 C 0.75005 0.74756 0.63744 0.0
O88 O 0.81823 0.69242 0.63371 0.0
Co89 Co 0.83715 0.79311 0.60039 0.0
O90 O 0.88115 0.77933 0.62491 0.0
C91 C 0.81054 0.69847 0.56779 0.0
C92 C 0.66483 0.60273 0.61179 0.0
C93 C 0.86627 0.73383 0.63562 0.0
O94 O 0.77494 0.66545 0.58345 0.0
O95 O 0.83672 0.75014 0.57055 0.0
O96 O 0.72668 0.69951 0.64744 0.0
O97 O 0.76587 0.75015 0.6145 0.0
Co98 Co 0.06736 0.75147 0.95022 0.0
O99 O 0.01153 0.67791 0.94466 0.0
O100 O 0.09519 0.70115 0.95562 0.0
C101 C 0.0146 0.77268 0.97401 0.0
O102 O 0.13345 0.82586 0.95842 0.0
Co103 Co 0.04337 0.83982 0.92835 0.0
O104 O 0.11269 0.8894 0.94522 0.0
C105 C 0.07552 0.77883 0.8947 0.0
C106 C 0.04596 0.66265 0.95059 0.0
C107 C 0.14462 0.8758 0.95568 0.0
O108 O 0.08897 0.75979 0.91359 0.0
O109 O 0.05056 0.80583 0.89669 0.0
O110 O 0.03947 0.74938 0.98409 0.0
O111 O 0.01869 0.77756 0.94994 0.0
Co112 Co 0.3233 0.0744 0.27643 0.0
O113 O 0.35231 0.02658 0.27163 0.0
O114 O 0.39857 0.10864 0.28816 0.0
C115 C 0.24474 0.0101 0.29319 0.0
O116 O 0.30182 0.13242 0.28482 0.0
Co117 Co 0.21813 0.04478 0.24596 0.0
O118 O 0.2213 0.10559 0.26573 0.0
C119 C 0.3234 0.09498 0.22052 0.0
C120 C 0.39688 0.06332 0.28164 0.0
C121 C 0.26032 0.13825 0.27981 0.0
O122 O 0.34809 0.10623 0.24178 0.0
O123 O 0.27208 0.06529 0.21813 0.0
O124 O 0.28739 0.0359 0.30727 0.0
O125 O 0.25263 0.02028 0.26953 0.0
Co126 Co 0.26088 0.32742 0.61445 0.0
O127 O 0.33511 0.35092 0.60684 0.0
O128 O 0.30515 0.40513 0.62052 0.0
C129 C 0.24635 0.25408 0.6368 0.0
O130 O 0.18641 0.31442 0.6254 0.0
Co131 Co 0.17448 0.2158 0.59263 0.0
O132 O 0.12424 0.22976 0.61297 0.0
C133 C 0.22928 0.31003 0.55946 0.0
C134 C 0.34599 0.39918 0.61364 0.0
C135 C 0.13739 0.2743 0.62433 0.0
O136 O 0.2479 0.34158 0.57864 0.0
O137 O 0.20431 0.25815 0.56091 0.0
O138 O 0.26848 0.30174 0.64729 0.0
O139 O 0.23928 0.25336 0.61281 0.0
Co140 Co 0.94954 0.262 0.94579 0.0
O141 O 1.00111 0.33187 0.93269 0.0
O142 O 0.92495 0.31475 0.95134 0.0
C143 C 0.01125 0.24891 0.9665 0.0
O144 O 0.88885 0.19314 0.96236 0.0
Co145 Co 0.96348 0.16381 0.92827 0.0
O146 O 0.90363 0.12382 0.95228 0.0
C147 C 0.90571 0.2032 0.89592 0.0
C148 C 0.97079 0.35038 0.94118 0.0
C149 C 0.87675 0.14271 0.96346 0.0
O150 O 0.91062 0.23886 0.91232 0.0
O151 O 0.92698 0.17279 0.89814 0.0
O152 O 0.99163 0.27715 0.97659 0.0
O153 O 0.99766 0.23474 0.94344 0.0
Co154 Co 0.67205 0.9306 0.28113 0.0
O155 O 0.64352 0.97708 0.27159 0.0
O156 O 0.59795 0.90134 0.29341 0.0
C157 C 0.75181 0.99844 0.29493 0.0
O158 O 0.69193 0.87518 0.29537 0.0
Co159 Co 0.77561 0.94622 0.2533 0.0
O160 O 0.7715 0.89218 0.27807 0.0
C161 C 0.66987 0.89015 0.22811 0.0
C162 C 0.59975 0.94441 0.28357 0.0
C163 C 0.73206 0.86596 0.29315 0.0
O164 O 0.64526 0.88766 0.24878 0.0
O165 O 0.72134 0.91707 0.22549 0.0
O166 O 0.70958 0.97819 0.30945 0.0
O167 O 0.74323 0.98101 0.27209 0.0
H168 H 0.61588 0.57428 0.04424 0.0
H169 H 0.49285 0.62069 0.03759 0.0
H170 H 0.42284 0.52455 0.03507 0.0
H171 H 0.39684 0.42791 0.03615 0.0
H172 H 0.51983 0.38113 0.041 0.0
H173 H 0.59022 0.4774 0.04256 0.0
C174 C 0.5737 0.56338 0.04227 0.0
C175 C 0.55938 0.60454 0.04144 0.0
C176 C 0.53399 0.5082 0.04043 0.0
C177 C 0.50479 0.58982 0.03838 0.0
C178 C 0.46486 0.5349 0.03696 0.0
C179 C 0.4391 0.43869 0.03746 0.0
C180 C 0.45317 0.3974 0.03871 0.0
C181 C 0.47902 0.49385 0.03817 0.0
C182 C 0.50804 0.41208 0.04001 0.0
C183 C 0.54816 0.46707 0.04101 0.0
H184 H 0.10116 0.49438 0.37911 0.0
H185 H 0.93945 0.35673 0.37598 0.0
H186 H 0.90124 0.41706 0.37459 0.0
H187 H 0.91294 0.50948 0.3765 0.0
H188 H 0.0743 0.64687 0.38281 0.0
H189 H 0.1129 0.58695 0.38064 0.0
C190 C 0.05769 0.47781 0.37786 0.0
C191 C 0.02334 0.42119 0.37768 0.0
C192 C 0.03559 0.51289 0.37781 0.0
C193 C 0.96691 0.40025 0.37632 0.0
C194 C 0.94487 0.43472 0.37551 0.0
C195 C 0.95648 0.52616 0.37722 0.0
C196 C 0.9905 0.58251 0.37992 0.0
C197 C 0.97867 0.49118 0.37661 0.0
C198 C 0.04698 0.60351 0.38098 0.0
C199 C 0.06928 0.56928 0.37968 0.0
H200 H 0.43231 0.0478 0.71639 0.0
H201 H 0.38156 0.87669 0.71758 0.0
H202 H 0.47657 0.89861 0.7164 0.0
H203 H 0.57347 0.96641 0.71556 0.0
H204 H 0.62414 0.13733 0.71178 0.0
H205 H 0.52913 0.11548 0.71336 0.0
C206 C 0.44203 0.01525 0.7165 0.0
C207 C 0.40008 0.96064 0.71741 0.0
C208 C 0.49647 0.0282 0.71532 0.0
C209 C 0.41317 0.91894 0.71701 0.0
C210 C 0.46741 0.93151 0.71635 0.0
C211 C 0.56376 0.99897 0.71515 0.0
C212 C 0.60571 0.05353 0.71386 0.0
C213 C 0.50929 0.98598 0.71562 0.0
C214 C 0.59254 0.09514 0.71285 0.0
C215 C 0.53832 0.08261 0.7138 0.0
H216 H 0.57511 0.61199 0.61361 0.0
H217 H 0.62797 0.49312 0.61045 0.0
H218 H 0.53323 0.41962 0.61033 0.0
H219 H 0.43607 0.38989 0.61116 0.0
H220 H 0.38341 0.50876 0.617 0.0
H221 H 0.47801 0.58212 0.61627 0.0
C222 C 0.56587 0.56995 0.61275 0.0
C223 C 0.60826 0.55776 0.61172 0.0
C224 C 0.51163 0.52826 0.61332 0.0
C225 C 0.59591 0.50329 0.61117 0.0
C226 C 0.54186 0.46144 0.6111 0.0
C227 C 0.44521 0.43188 0.61222 0.0
C228 C 0.40278 0.444 0.61389 0.0
C229 C 0.49949 0.47353 0.61216 0.0
C230 C 0.41533 0.49847 0.61563 0.0
C231 C 0.46934 0.54032 0.61516 0.0
H232 H 0.91942 0.40595 0.95674 0.0
H233 H 0.07025 0.42948 0.92614 0.0
H234 H 0.10891 0.5276 0.92823 0.0
H235 H 0.10017 0.60823 0.93812 0.0
H236 H 0.9479 0.58476 0.96643 0.0
H237 H 0.91029 0.48638 0.96615 0.0
C238 C 0.96058 0.43256 0.95041 0.0
C239 C 0.99154 0.41004 0.94123 0.0
C240 C 0.98282 0.48952 0.95145 0.0
C241 C 0.04505 0.44537 0.93317 0.0
C242 C 0.06753 0.50178 0.93445 0.0
C243 C 0.05909 0.58147 0.94452 0.0
C244 C 0.02706 0.60372 0.95242 0.0
C245 C 0.03693 0.52449 0.94359 0.0
C246 C 0.97345 0.56855 0.96025 0.0
C247 C 0.95175 0.5122 0.96004 0.0
H248 H 0.3885 0.9651 0.28865 0.0
H249 H 0.50646 0.13549 0.28232 0.0
H250 H 0.57981 0.11326 0.28287 0.0
H251 H 0.60949 0.04459 0.28249 0.0
H252 H 0.49139 0.87469 0.29098 0.0
H253 H 0.4186 0.89746 0.2923 0.0
C254 C 0.43034 0.99748 0.28758 0.0
C255 C 0.44211 0.05192 0.28516 0.0
C256 C 0.47199 0.98433 0.28812 0.0
C257 C 0.49642 0.09341 0.28421 0.0
C258 C 0.53824 0.0806 0.28437 0.0
C259 C 0.56778 0.01253 0.28471 0.0
C260 C 0.55568 0.95783 0.28626 0.0
C261 C 0.52639 0.02611 0.28587 0.0
C262 C 0.50167 0.91693 0.28964 0.0
C263 C 0.46012 0.92999 0.29034 0.0
H264 H 0.35181 0.19767 0.21035 0.0
H265 H 0.35355 0.05738 0.18021 0.0
H266 H 0.36943 0.0965 0.13794 0.0
H267 H 0.36045 0.1594 0.10922 0.0
H268 H 0.3422 0.29078 0.13915 0.0
H269 H 0.35627 0.2678 0.18184 0.0
C270 C 0.35826 0.17711 0.1946 0.0
C271 C 0.35241 0.12536 0.19813 0.0
C272 C 0.36331 0.19807 0.17028 0.0
C273 C 0.35891 0.09775 0.17775 0.0
C274 C 0.36725 0.11983 0.15361 0.0
C275 C 0.36191 0.18421 0.12509 0.0
C276 C 0.35101 0.22692 0.12135 0.0
C277 C 0.36634 0.16838 0.14953 0.0
C278 C 0.35123 0.25815 0.14183 0.0
C279 C 0.35875 0.24465 0.16616 0.0
H280 H 0.20078 0.32327 0.44565 0.0
H281 H 0.08207 0.36397 0.47204 0.0
H282 H 0.12108 0.37992 0.51443 0.0
H283 H 0.17453 0.36035 0.5451 0.0
H284 H 0.28407 0.30727 0.51861 0.0
H285 H 0.26453 0.31916 0.47507 0.0
C286 C 0.18515 0.33796 0.46053 0.0
C287 C 0.13908 0.34276 0.45602 0.0
C288 C 0.20577 0.34381 0.48489 0.0
C289 C 0.11806 0.3608 0.47524 0.0
C290 C 0.13992 0.36913 0.49947 0.0
C291 C 0.19559 0.35364 0.5297 0.0
C292 C 0.23074 0.33325 0.53473 0.0
C293 C 0.18171 0.35762 0.50477 0.0
C294 C 0.25715 0.32332 0.51491 0.0
C295 C 0.24564 0.32971 0.49011 0.0
H296 H 0.7533 0.0708 0.8094 0.0
H297 H 0.85759 0.21654 0.76821 0.0
H298 H 0.89726 0.26525 0.80753 0.0
H299 H 0.91477 0.25932 0.8528 0.0
H300 H 0.81024 0.1122 0.89324 0.0
H301 H 0.75703 0.07139 0.85539 0.0
C302 C 0.78305 0.11384 0.80923 0.0
C303 C 0.80269 0.14031 0.78624 0.0
C304 C 0.80609 0.14104 0.8318 0.0
C305 C 0.84166 0.1958 0.78591 0.0
C306 C 0.86474 0.22339 0.80834 0.0
C307 C 0.87903 0.21928 0.85339 0.0
C308 C 0.8663 0.18845 0.8755 0.0
C309 C 0.84919 0.19558 0.83133 0.0
C310 C 0.82044 0.13636 0.87624 0.0
C311 C 0.79029 0.1129 0.85461 0.0
H312 H 0.64088 0.73649 0.14175 0.0
H313 H 0.65927 0.87406 0.09932 0.0
H314 H 0.64435 0.91375 0.13715 0.0
H315 H 0.64864 0.91895 0.18322 0.0
H316 H 0.6303 0.78198 0.22601 0.0
H317 H 0.62065 0.73129 0.18728 0.0
C318 C 0.63904 0.77382 0.14074 0.0
C319 C 0.65117 0.80261 0.11806 0.0
C320 C 0.63105 0.7967 0.16269 0.0
C321 C 0.64958 0.8513 0.11674 0.0
C322 C 0.64154 0.8742 0.13837 0.0
C323 C 0.63959 0.87695 0.18397 0.0
C324 C 0.64011 0.85398 0.20718 0.0
C325 C 0.63533 0.84873 0.16164 0.0
C326 C 0.62931 0.79997 0.2082 0.0
C327 C 0.62468 0.77136 0.18605 0.0
H328 H 0.75595 0.64121 0.52593 0.0
H329 H 0.90928 0.71017 0.56447 0.0
H330 H 0.9524 0.69898 0.5271 0.0
H331 H 0.95063 0.68967 0.48152 0.0
H332 H 0.79966 0.6255 0.44159 0.0
H333 H 0.75094 0.61289 0.48127 0.0
C334 C 0.79824 0.65181 0.52624 0.0
C335 C 0.82981 0.67701 0.54759 0.0
C336 C 0.82321 0.64657 0.50435 0.0
C337 C 0.88461 0.69107 0.548 0.0
C338 C 0.90929 0.68485 0.52667 0.0
C339 C 0.90674 0.67047 0.48173 0.0
C340 C 0.87858 0.65853 0.45894 0.0
C341 C 0.87967 0.66546 0.5044 0.0
C342 C 0.82188 0.63433 0.4591 0.0
C343 C 0.79422 0.62801 0.48175 0.0
H344 H 0.17998 0.8292 0.88052 0.0
H345 H 0.01707 0.73037 0.85308 0.0
H346 H 0.04885 0.75459 0.80981 0.0
H347 H 0.11882 0.81872 0.78134 0.0
H348 H 0.28018 0.92516 0.80868 0.0
H349 H 0.25395 0.88321 0.8505 0.0
C350 C 0.15209 0.81128 0.86491 0.0
C351 C 0.09647 0.77778 0.86969 0.0
C352 C 0.17034 0.82794 0.84023 0.0
C353 C 0.06008 0.75575 0.8496 0.0
C354 C 0.07818 0.77009 0.82496 0.0
C355 C 0.14853 0.83139 0.79635 0.0
C356 C 0.20105 0.87475 0.79231 0.0
C357 C 0.13257 0.8084 0.82024 0.0
C358 C 0.23957 0.89151 0.81159 0.0
C359 C 0.22439 0.8678 0.83544 0.0
H360 H 0.1815 0.8892 0.0037 0.0
H361 H 0.21689 0.96628 0.93114 0.0
H362 H 0.27657 0.05448 0.95037 0.0
H363 H 0.2996 0.11156 0.98839 0.0
H364 H 0.2583 0.03478 0.06102 0.0
H365 H 0.2217 0.9453 0.04152 0.0
C366 C 0.20443 0.92491 0.99208 0.0
C367 C 0.19479 0.92141 0.9661 0.0
C368 C 0.23692 0.97608 0.00344 0.0
C369 C 0.22384 0.96815 0.95122 0.0
C370 C 0.25755 0.01874 0.96224 0.0
C371 C 0.28499 0.07538 -9e-05 0.0
C372 C 0.2814 0.0796 0.02604 0.0
C373 C 0.26177 0.0237 0.98845 0.0
C374 C 0.26141 0.03236 0.04082 0.0
C375 C 0.23996 0.9811 0.02965 0.0
H376 H 0.15435 0.27141 0.31895 0.0
H377 H 0.22143 0.25419 0.38854 0.0
H378 H 0.27514 0.22209 0.36596 0.0
H379 H 0.2875 0.18057 0.32743 0.0
H380 H 0.21642 0.1939 0.25817 0.0
H381 H 0.18106 0.24627 0.27925 0.0
C382 C 0.18265 0.26303 0.32897 0.0
C383 C 0.18409 0.26528 0.35532 0.0
C384 C 0.21188 0.24243 0.31589 0.0
C385 C 0.21997 0.25304 0.36819 0.0
C386 C 0.25025 0.23405 0.3553 0.0
C387 C 0.266 0.19667 0.31682 0.0
C388 C 0.25396 0.18259 0.29137 0.0
C389 C 0.24432 0.22576 0.32927 0.0
C390 C 0.22564 0.20351 0.2779 0.0
C391 C 0.20517 0.23339 0.28995 0.0
H392 H 0.9688 0.2194 0.70856 0.0
H393 H 0.8599 0.15442 0.64558 0.0
H394 H 0.93622 0.20036 0.61648 0.0
H395 H 0.03473 0.24178 0.60976 0.0
H396 H 0.14358 0.30676 0.6728 0.0
H397 H 0.06658 0.27939 0.70119 0.0
C398 C 0.96176 0.2172 0.68845 0.0
C399 C 0.90922 0.18346 0.67908 0.0
C400 C 0.00588 0.24309 0.67194 0.0
C401 C 0.90009 0.18057 0.6531 0.0
C402 C 0.94379 0.20629 0.63651 0.0
C403 C 0.0415 0.25172 0.6296 0.0
C404 C 0.09444 0.27561 0.63932 0.0
C405 C 0.99703 0.23519 0.64577 0.0
C406 C 0.10313 0.28863 0.66495 0.0
C407 C 0.05907 0.27239 0.6812 0.0
H408 H 0.76338 0.97558 0.04786 0.0
H409 H 0.70172 0.86827 0.98396 0.0
H410 H 0.73322 0.94676 0.95593 0.0
H411 H 0.79589 0.04462 0.94943 0.0
H412 H 0.86031 0.1517 0.01322 0.0
H413 H 0.80902 0.07487 0.04165 0.0
C414 C 0.75521 0.96947 0.02786 0.0
C415 C 0.73095 0.91641 0.01787 0.0
C416 C 0.77452 0.0148 0.01191 0.0
C417 C 0.72014 0.90871 0.99203 0.0
C418 C 0.73872 0.95363 0.97601 0.0
C419 C 0.79681 0.05132 0.96955 0.0
C420 C 0.8319 0.10344 0.97935 0.0
C421 C 0.76847 0.00673 0.98566 0.0
C422 C 0.83316 0.112 0.00533 0.0
C423 C 0.80443 0.06791 0.02155 0.0
H424 H 0.77003 0.79783 0.28126 0.0
H425 H 0.70635 0.8479 0.34295 0.0
H426 H 0.73692 0.80255 0.37259 0.0
H427 H 0.79618 0.76366 0.38111 0.0
H428 H 0.86013 0.71386 0.31947 0.0
H429 H 0.81399 0.7429 0.28953 0.0
C430 C 0.76155 0.79749 0.30115 0.0
C431 C 0.73657 0.82673 0.30998 0.0
C432 C 0.77972 0.77176 0.31804 0.0
C433 C 0.72532 0.82559 0.33571 0.0
C434 C 0.74328 0.80008 0.35266 0.0
C435 C 0.79846 0.75752 0.36112 0.0
C436 C 0.83179 0.73703 0.35244 0.0
C437 C 0.77256 0.77515 0.3441 0.0
C438 C 0.83441 0.72909 0.32657 0.0
C439 C 0.80858 0.74637 0.30947 0.0
H440 H 0.03473 0.7981 0.71993 0.0
H441 H 0.1411 0.8404 0.656 0.0
H442 H 0.063 0.78975 0.62831 0.0
H443 H 0.96506 0.75302 0.62179 0.0
H444 H 0.85883 0.71293 0.68563 0.0
H445 H 0.93607 0.74194 0.71411 0.0
C446 C 0.04073 0.79431 0.70005 0.0
C447 C 0.09318 0.82327 0.68983 0.0
C448 C 0.99564 0.76624 0.6843 0.0
C449 C 0.10099 0.81818 0.66418 0.0
C450 C 0.0563 0.7898 0.64835 0.0
C451 C 0.95879 0.7486 0.64196 0.0
C452 C 0.90685 0.73138 0.65178 0.0
C453 C 1.00347 0.76647 0.65807 0.0
C454 C 0.89859 0.72575 0.67781 0.0
C455 C 0.94281 0.74296 0.69403 0.0
H456 H 0.08539 0.22589 0.9468 0.0
H457 H 0.02069 0.24488 0.01702 0.0
H458 H 0.08954 0.23497 0.04016 0.0
H459 H 0.17357 0.23088 0.04012 0.0
H460 H 0.24358 0.22072 0.96981 0.0
H461 H 0.16691 0.21649 0.94693 0.0
C462 C 0.08598 0.22696 0.96718 0.0
C463 C 0.04853 0.23641 0.98026 0.0
C464 C 0.12679 0.22318 0.98027 0.0
C465 C 0.04963 0.23812 0.00662 0.0
C466 C 0.0889 0.23246 0.01983 0.0
C467 C 0.17151 0.22678 0.01983 0.0
C468 C 0.21404 0.22638 0.00659 0.0
C469 C 0.12853 0.22647 0.00682 0.0
C470 C 0.21127 0.22144 0.98032 0.0
C471 C 0.16758 0.21913 0.96726 0.0
H472 H 0.78859 0.01754 0.34266 0.0
H473 H 0.83473 0.07315 0.2665 0.0
H474 H 0.91975 0.14988 0.2814 0.0
H475 H 0.97662 0.2054 0.31647 0.0
H476 H 0.93183 0.14771 0.3925 0.0
H477 H 0.85089 0.06696 0.37726 0.0
C478 C 0.81757 0.04627 0.32937 0.0
C479 C 0.80537 0.04054 0.30364 0.0
C480 C 0.8664 0.08979 0.33803 0.0
C481 C 0.84339 0.07715 0.28645 0.0
C482 C 0.89184 0.12102 0.29495 0.0
C483 C 0.94945 0.17472 0.32962 0.0
C484 C 0.95953 0.18266 0.35552 0.0
C485 C 0.90315 0.1284 0.32074 0.0
C486 C 0.92466 0.14244 0.37244 0.0
C487 C 0.87827 0.09644 0.36377 0.0
H488 H 0.76858 0.84345 0.61795 0.0
H489 H 0.74675 0.75872 0.68804 0.0
H490 H 0.75238 0.83613 0.71108 0.0
H491 H 0.75712 0.92524 0.71097 0.0
H492 H 0.77051 0.0061 0.64056 0.0
H493 H 0.77522 0.93329 0.61791 0.0
C494 C 0.76565 0.84228 0.63828 0.0
C495 C 0.75719 0.79565 0.65132 0.0
C496 C 0.7673 0.88618 0.65129 0.0
C497 C 0.75299 0.79423 0.67763 0.0
C498 C 0.75625 0.83843 0.6908 0.0
C499 C 0.76185 0.92714 0.69071 0.0
C500 C 0.76354 0.97067 0.67736 0.0
C501 C 0.7625 0.88424 0.67779 0.0
C502 C 0.76892 0.97263 0.65112 0.0
C503 C 0.77156 0.93108 0.63819 0.0
H504 H 0.8418 0.77288 0.04751 0.0
H505 H 0.77302 0.78219 0.97672 0.0
H506 H 0.85365 0.79471 0.95461 0.0
H507 H 0.93832 0.79249 0.95487 0.0
H508 H 0.00406 0.77463 0.02494 0.0
H509 H 0.93057 0.77689 0.04798 0.0
C510 C 0.84507 0.77859 0.02731 0.0
C511 C 0.80167 0.77623 0.01367 0.0
C512 C 0.89079 0.7839 0.01462 0.0
C513 C 0.8059 0.78333 0.98752 0.0
C514 C 0.85192 0.79051 0.97488 0.0
C515 C 0.93713 0.79007 0.97522 0.0
C516 C 0.97615 0.78301 0.98822 0.0
C517 C 0.89385 0.78928 0.98815 0.0
C518 C 0.97412 0.77977 0.01456 0.0
C519 C 0.93207 0.78087 0.0277 0.0
H520 H 0.02779 0.79807 0.31872 0.0
H521 H 0.07903 0.85675 0.39415 0.0
H522 H 0.15555 0.94014 0.37771 0.0
H523 H 0.21281 0.9915 0.34188 0.0
H524 H 0.15982 0.93331 0.26647 0.0
H525 H 0.07859 0.85477 0.28289 0.0
C526 C 0.05539 0.82949 0.3315 0.0
C527 C 0.04858 0.82122 0.35752 0.0
C528 C 0.09903 0.87713 0.32194 0.0
C529 C 0.08381 0.86236 0.374 0.0
C530 C 0.12764 0.90984 0.36462 0.0
C531 C 0.18309 0.96191 0.32908 0.0
C532 C 0.19254 0.96751 0.30309 0.0
C533 C 0.13645 0.91693 0.33864 0.0
C534 C 0.15349 0.92955 0.28661 0.0
C535 C 0.10715 0.88457 0.29596 0.0
H536 H 0.2319 0.0783 0.71295 0.0
H537 H 0.24088 0.00334 0.64386 0.0
H538 H 0.23435 0.07309 0.61959 0.0
H539 H 0.23536 0.16023 0.61815 0.0
H540 H 0.2342 0.23924 0.6873 0.0
H541 H 0.22777 0.16285 0.71146 0.0
C542 C 0.23163 0.07688 0.69259 0.0
C543 C 0.23723 0.03618 0.68016 0.0
C544 C 0.22962 0.11803 0.6788 0.0
C545 C 0.23708 0.03473 0.65379 0.0
C546 C 0.23336 0.07454 0.63992 0.0
C547 C 0.23283 0.16023 0.63849 0.0
C548 C 0.23557 0.2052 0.651 0.0
C549 C 0.23102 0.11714 0.65223 0.0
C550 C 0.23259 0.20507 0.67733 0.0
C551 C 0.22897 0.1615 0.69113 0.0
loop_
_geom_bond_atom_site_label_1
_geom_bond_atom_site_label_2
_geom_bond_distance
_geom_bond_site_symmetry_2
_ccdc_geom_bond_type
Co0 O1 2.216 . S
Co0 O2 2.091 . S
Co0 O4 2.004 . S
Co0 O10 2.021 . S
Co0 O12 2.137 . S
Co0 O13 2.244 . S
O1 Co0 2.216 . S
O1 C8 1.247 . S
O2 Co0 2.091 . S
O2 C8 1.261 . S
C3 O12 1.247 . S
C3 O13 1.272 . S
O4 Co0 2.004 . S
O4 C9 1.259 . S
Co5 O6 2.061 . S
Co5 O11 2.052 . S
Co5 O13 2.135 . S
O6 Co5 2.061 . S
O6 C9 1.235 . S
C7 O10 1.238 . S
C7 O11 1.241 . S
C8 O1 1.247 . S
C8 O2 1.261 . S
C9 O4 1.259 . S
C9 O6 1.235 . S
O10 Co0 2.021 . S
O10 C7 1.238 . S
O11 Co5 2.052 . S
O11 C7 1.241 . S
O12 Co0 2.137 . S
O12 C3 1.247 . S
O13 Co0 2.244 . S
O13 C3 1.272 . S
O13 Co5 2.135 . S
Co14 O15 2.216 . S
Co14 O16 2.091 . S
Co14 O18 2.004 . S
Co14 O24 2.021 . S
Co14 O26 2.137 . S
Co14 O27 2.244 . S
O15 Co14 2.216 . S
O15 C22 1.247 . S
O16 Co14 2.091 . S
O16 C22 1.261 . S
C17 O26 1.247 . S
C17 O27 1.272 . S
O18 Co14 2.004 . S
O18 C23 1.259 . S
Co19 O20 2.061 . S
Co19 O25 2.052 . S
Co19 O27 2.135 . S
O20 Co19 2.061 . S
O20 C23 1.235 . S
C21 O24 1.238 . S
C21 O25 1.241 . S
C22 O15 1.247 . S
C22 O16 1.261 . S
C23 O18 1.259 . S
C23 O20 1.235 . S
O24 Co14 2.021 . S
O24 C21 1.238 . S
O25 Co19 2.052 . S
O25 C21 1.241 . S
O26 Co14 2.137 . S
O26 C17 1.247 . S
O27 Co14 2.244 . S
O27 C17 1.272 . S
O27 Co19 2.135 . S
Co28 O29 2.216 . S
Co28 O30 2.091 . S
Co28 O32 2.004 . S
Co28 O38 2.021 . S
Co28 O40 2.137 . S
Co28 O41 2.244 . S
O29 Co28 2.216 . S
O29 C36 1.247 . S
O30 Co28 2.091 . S
O30 C36 1.261 . S
C31 O40 1.247 . S
C31 O41 1.272 . S
O32 Co28 2.004 . S
O32 C37 1.259 . S
Co33 O34 2.061 . S
Co33 O39 2.052 . S
Co33 O41 2.135 . S
O34 Co33 2.061 . S
O34 C37 1.235 . S
C35 O38 1.238 . S
C35 O39 1.241 . S
C36 O29 1.247 . S
C36 O30 1.261 . S
C37 O32 1.259 . S
C37 O34 1.235 . S
O38 Co28 2.021 . S
O38 C35 1.238 . S
O39 Co33 2.052 . S
O39 C35 1.241 . S
O40 Co28 2.137 . S
O40 C31 1.247 . S
O41 Co28 2.244 . S
O41 C31 1.272 . S
O41 Co33 2.135 . S
Co42 O43 2.216 . S
Co42 O44 2.091 . S
Co42 O46 2.004 . S
Co42 O52 2.021 . S
Co42 O54 2.137 . S
Co42 O55 2.244 . S
O43 Co42 2.216 . S
O43 C50 1.247 . S
O44 Co42 2.091 . S
O44 C50 1.261 . S
C45 O54 1.247 . S
C45 O55 1.272 . S
O46 Co42 2.004 . S
O46 C51 1.259 . S
Co47 O48 2.061 . S
Co47 O53 2.052 . S
Co47 O55 2.135 . S
O48 Co47 2.061 . S
O48 C51 1.235 . S
C49 O52 1.238 . S
C49 O53 1.241 . S
C50 O43 1.247 . S
C50 O44 1.261 . S
C51 O46 1.259 . S
C51 O48 1.235 . S
O52 Co42 2.021 . S
O52 C49 1.238 . S
O53 Co47 2.052 . S
O53 C49 1.241 . S
O54 Co42 2.137 . S
O54 C45 1.247 . S
O55 Co42 2.244 . S
O55 C45 1.272 . S
O55 Co47 2.135 . S
Co56 O57 2.216 . S
Co56 O58 2.091 . S
Co56 O60 2.004 . S
Co56 O66 2.021 . S
Co56 O68 2.137 . S
Co56 O69 2.244 . S
O57 Co56 2.216 . S
O57 C64 1.247 . S
O58 Co56 2.091 . S
O58 C64 1.261 . S
C59 O68 1.247 . S
C59 O69 1.272 . S
O60 Co56 2.004 . S
O60 C65 1.259 . S
Co61 O62 2.061 . S
Co61 O67 2.052 . S
Co61 O69 2.135 . S
O62 Co61 2.061 . S
O62 C65 1.235 . S
C63 O66 1.238 . S
C63 O67 1.241 . S
C64 O57 1.247 . S
C64 O58 1.261 . S
C65 O60 1.259 . S
C65 O62 1.235 . S
O66 Co56 2.021 . S
O66 C63 1.238 . S
O67 Co61 2.052 . S
O67 C63 1.241 . S
O68 Co56 2.137 . S
O68 C59 1.247 . S
O69 Co56 2.244 . S
O69 C59 1.272 . S
O69 Co61 2.135 . S
Co70 O71 2.216 . S
Co70 O72 2.091 . S
Co70 O74 2.004 . S
Co70 O80 2.021 . S
Co70 O82 2.137 . S
Co70 O83 2.244 . S
O71 Co70 2.216 . S
O71 C78 1.247 . S
O72 Co70 2.091 . S
O72 C78 1.261 . S
C73 O82 1.247 . S
C73 O83 1.272 . S
O74 Co70 2.004 . S
O74 C79 1.259 . S
Co75 O76 2.061 . S
Co75 O81 2.052 . S
Co75 O83 2.135 . S
O76 Co75 2.061 . S
O76 C79 1.235 . S
C77 O80 1.238 . S
C77 O81 1.241 . S
C78 O71 1.247 . S
C78 O72 1.261 . S
C79 O74 1.259 . S
C79 O76 1.235 . S
O80 Co70 2.021 . S
O80 C77 1.238 . S
O81 Co75 2.052 . S
O81 C77 1.241 . S
O82 Co70 2.137 . S
O82 C73 1.247 . S
O83 Co70 2.244 . S
O83 C73 1.272 . S
O83 Co75 2.135 . S
Co84 O85 2.216 . S
Co84 O86 2.091 . S
Co84 O88 2.004 . S
Co84 O94 2.021 . S
Co84 O96 2.137 . S
Co84 O97 2.244 . S
O85 Co84 2.216 . S
O85 C92 1.247 . S
O86 Co84 2.091 . S
O86 C92 1.261 . S
C87 O96 1.247 . S
C87 O97 1.272 . S
O88 Co84 2.004 . S
O88 C93 1.259 . S
Co89 O90 2.061 . S
Co89 O95 2.052 . S
Co89 O97 2.135 . S
O90 Co89 2.061 . S
O90 C93 1.235 . S
C91 O94 1.238 . S
C91 O95 1.241 . S
C92 O85 1.247 . S
C92 O86 1.261 . S
C93 O88 1.259 . S
C93 O90 1.235 . S
O94 Co84 2.021 . S
O94 C91 1.238 . S
O95 Co89 2.052 . S
O95 C91 1.241 . S
O96 Co84 2.137 . S
O96 C87 1.247 . S
O97 Co84 2.244 . S
O97 C87 1.272 . S
O97 Co89 2.135 . S
Co98 O99 2.216 . S
Co98 O100 2.091 . S
Co98 O102 2.004 . S
Co98 O108 2.021 . S
Co98 O110 2.137 . S
Co98 O111 2.244 . S
O99 Co98 2.216 . S
O99 C106 1.247 . S
O100 Co98 2.091 . S
O100 C106 1.261 . S
C101 O110 1.247 . S
C101 O111 1.272 . S
O102 Co98 2.004 . S
O102 C107 1.259 . S
Co103 O104 2.061 . S
Co103 O109 2.052 . S
Co103 O111 2.135 . S
O104 Co103 2.061 . S
O104 C107 1.235 . S
C105 O108 1.238 . S
C105 O109 1.241 . S
C106 O99 1.247 . S
C106 O100 1.261 . S
C107 O102 1.259 . S
C107 O104 1.235 . S
O108 Co98 2.021 . S
O108 C105 1.238 . S
O109 Co103 2.052 . S
O109 C105 1.241 . S
O110 Co98 2.137 . S
O110 C101 1.247 . S
O111 Co98 2.244 . S
O111 C101 1.272 . S
O111 Co103 2.135 . S
Co112 O113 2.216 . S
Co112 O114 2.091 . S
Co112 O116 2.004 . S
Co112 O122 2.021 . S
Co112 O124 2.137 . S
Co112 O125 2.244 . S
O113 Co112 2.216 . S
O113 C120 1.247 . S
O114 Co112 2.091 . S
O114 C120 1.261 . S
C115 O124 1.247 . S
C115 O125 1.272 . S
O116 Co112 2.004 . S
O116 C121 1.259 . S
Co117 O118 2.061 . S
Co117 O123 2.052 . S
Co117 O125 2.135 . S
O118 Co117 2.061 . S
O118 C121 1.235 . S
C119 O122 1.238 . S
C119 O123 1.241 . S
C120 O113 1.247 . S
C120 O114 1.261 . S
C121 O116 1.259 . S
C121 O118 1.235 . S
O122 Co112 2.021 . S
O122 C119 1.238 . S
O123 Co117 2.052 . S
O123 C119 1.241 . S
O124 Co112 2.137 . S
O124 C115 1.247 . S
O125 Co112 2.244 . S
O125 C115 1.272 . S
O125 Co117 2.135 . S
Co126 O127 2.216 . S
Co126 O128 2.091 . S
Co126 O130 2.004 . S
Co126 O136 2.021 . S
Co126 O138 2.137 . S
Co126 O139 2.244 . S
O127 Co126 2.216 . S
O127 C134 1.247 . S
O128 Co126 2.091 . S
O128 C134 1.261 . S
C129 O138 1.247 . S
C129 O139 1.272 . S
O130 Co126 2.004 . S
O130 C135 1.259 . S
Co131 O132 2.061 . S
Co131 O137 2.052 . S
Co131 O139 2.135 . S
O132 Co131 2.061 . S
O132 C135 1.235 . S
C133 O136 1.238 . S
C133 O137 1.241 . S
C134 O127 1.247 . S
C134 O128 1.261 . S
C135 O130 1.259 . S
C135 O132 1.235 . S
O136 Co126 2.021 . S
O136 C133 1.238 . S
O137 Co131 2.052 . S
O137 C133 1.241 . S
O138 Co126 2.137 . S
O138 C129 1.247 . S
O139 Co126 2.244 . S
O139 C129 1.272 . S
O139 Co131 2.135 . S
Co140 O141 2.216 . S
Co140 O142 2.091 . S
Co140 O144 2.004 . S
Co140 O150 2.021 . S
Co140 O152 2.137 . S
Co140 O153 2.244 . S
O141 Co140 2.216 . S
O141 C148 1.247 . S
O142 Co140 2.091 . S
O142 C148 1.261 . S
C143 O152 1.247 . S
C143 O153 1.272 . S
O144 Co140 2.004 . S
O144 C149 1.259 . S
Co145 O146 2.061 . S
Co145 O151 2.052 . S
Co145 O153 2.135 . S
O146 Co145 2.061 . S
O146 C149 1.235 . S
C147 O150 1.238 . S
C147 O151 1.241 . S
C148 O141 1.247 . S
C148 O142 1.261 . S
C149 O144 1.259 . S
C149 O146 1.235 . S
O150 Co140 2.021 . S
O150 C147 1.238 . S
O151 Co145 2.052 . S
O151 C147 1.241 . S
O152 Co140 2.137 . S
O152 C143 1.247 . S
O153 Co140 2.244 . S
O153 C143 1.272 . S
O153 Co145 2.135 . S
Co154 O155 2.216 . S
Co154 O156 2.091 . S
Co154 O158 2.004 . S
Co154 O164 2.021 . S
Co154 O166 2.137 . S
Co154 O167 2.244 . S
O155 Co154 2.216 . S
O155 C162 1.247 . S
O156 Co154 2.091 . S
O156 C162 1.261 . S
C157 O166 1.247 . S
C157 O167 1.272 . S
O158 Co154 2.004 . S
O158 C163 1.259 . S
Co159 O160 2.061 . S
Co159 O165 2.052 . S
Co159 O167 2.135 . S
O160 Co159 2.061 . S
O160 C163 1.235 . S
C161 O164 1.238 . S
C161 O165 1.241 . S
C162 O155 1.247 . S
C162 O156 1.261 . S
C163 O158 1.259 . S
C163 O160 1.235 . S
O164 Co154 2.021 . S
O164 C161 1.238 . S
O165 Co159 2.052 . S
O165 C161 1.241 . S
O166 Co154 2.137 . S
O166 C157 1.247 . S
O167 Co154 2.244 . S
O167 C157 1.272 . S
O167 Co159 2.135 . S
H168 C174 0.930 . S
H169 C177 0.930 . S
H170 C178 0.930 . S
H171 C179 0.930 . S
H172 C182 0.930 . S
H173 C183 0.927 1_556 S
C174 H168 0.930 . S
C174 C175 1.355 . S
C174 C176 1.415 . S
C175 C174 1.355 . S
C175 C177 1.419 . S
C176 C174 1.415 . S
C176 C181 1.425 . S
C176 C183 1.409 . S
C177 H169 0.930 . S
C177 C175 1.419 . S
C177 C178 1.362 . S
C178 H170 0.930 . S
C178 C177 1.362 . S
C178 C181 1.409 . S
C179 H171 0.930 . S
C179 C180 1.355 . S
C179 C181 1.415 . S
C180 C179 1.355 . S
C180 C182 1.419 . S
C181 C176 1.425 . S
C181 C178 1.409 . S
C181 C179 1.415 . S
C182 H172 0.930 . S
C182 C180 1.419 . S
C182 C183 1.362 . S
C183 H173 0.927 1_554 S
C183 C176 1.409 . S
C183 C182 1.362 . S
H184 C190 0.930 . S
H185 C193 0.930 . S
H186 C194 0.930 . S
H187 C195 0.930 . S
H188 C198 0.930 . S
H189 C199 0.930 . S
C190 H184 0.930 . S
C190 C191 1.355 . S
C190 C192 1.415 . S
C191 C190 1.355 . S
C191 C193 1.419 1_455 S
C192 C190 1.415 . S
C192 C197 1.425 1_455 S
C192 C199 1.409 . S
C193 H185 0.930 . S
C193 C191 1.419 1_655 S
C193 C194 1.362 . S
C194 H186 0.930 . S
C194 C193 1.362 . S
C194 C197 1.409 . S
C195 H187 0.930 . S
C195 C196 1.355 . S
C195 C197 1.415 . S
C196 C195 1.355 . S
C196 C198 1.419 1_655 S
C197 C192 1.425 1_655 S
C197 C194 1.409 . S
C197 C195 1.415 . S
C198 H188 0.930 . S
C198 C196 1.419 1_455 S
C198 C199 1.362 . S
C199 H189 0.930 . S
C199 C192 1.409 . S
C199 C198 1.362 . S
H200 C206 0.930 . S
H201 C209 0.930 . S
H202 C210 0.930 . S
H203 C211 0.930 . S
H204 C214 0.930 . S
H205 C215 0.930 . S
C206 H200 0.930 . S
C206 C207 1.355 . S
C206 C208 1.415 . S
C207 C206 1.355 . S
C207 C209 1.419 . S
C208 C206 1.415 . S
C208 C213 1.425 1_565 S
C208 C215 1.409 . S
C209 H201 0.930 . S
C209 C207 1.419 . S
C209 C210 1.362 1_565 S
C210 H202 0.930 . S
C210 C209 1.362 1_545 S
C210 C213 1.409 . S
C211 H203 0.930 . S
C211 C212 1.355 . S
C211 C213 1.415 . S
C212 C211 1.355 . S
C212 C214 1.419 . S
C213 C208 1.425 1_545 S
C213 C210 1.409 . S
C213 C211 1.415 . S
C214 H204 0.930 . S
C214 C212 1.419 . S
C214 C215 1.362 1_545 S
C215 H205 0.930 . S
C215 C208 1.409 . S
C215 C214 1.362 1_565 S
H216 C222 0.930 . S
H217 C225 0.930 . S
H218 C226 0.930 . S
H219 C227 0.930 . S
H220 C230 0.930 . S
H221 C231 0.930 . S
C222 H216 0.930 . S
C222 C223 1.355 . S
C222 C224 1.415 . S
C223 C222 1.355 . S
C223 C225 1.419 . S
C224 C222 1.415 . S
C224 C229 1.425 . S
C224 C231 1.409 . S
C225 H217 0.930 . S
C225 C223 1.419 . S
C225 C226 1.362 . S
C226 H218 0.930 . S
C226 C225 1.362 . S
C226 C229 1.409 . S
C227 H219 0.930 . S
C227 C228 1.355 . S
C227 C229 1.415 . S
C228 C227 1.355 . S
C228 C230 1.419 . S
C229 C224 1.425 . S
C229 C226 1.409 . S
C229 C227 1.415 . S
C230 H220 0.930 . S
C230 C228 1.419 . S
C230 C231 1.362 . S
C231 H221 0.930 . S
C231 C224 1.409 . S
C231 C230 1.362 . S
H232 C238 0.930 . S
H233 C241 0.930 . S
H234 C242 0.930 . S
H235 C243 0.930 . S
H236 C246 0.930 . S
H237 C247 0.930 . S
C238 H232 0.930 . S
C238 C239 1.355 . S
C238 C240 1.415 . S
C239 C238 1.355 . S
C239 C241 1.419 1_655 S
C240 C238 1.415 . S
C240 C245 1.425 1_655 S
C240 C247 1.409 . S
C241 H233 0.930 . S
C241 C239 1.419 1_455 S
C241 C242 1.362 . S
C242 H234 0.930 . S
C242 C241 1.362 . S
C242 C245 1.409 . S
C243 H235 0.930 . S
C243 C244 1.355 . S
C243 C245 1.415 . S
C244 C243 1.355 . S
C244 C246 1.419 1_455 S
C245 C240 1.425 1_455 S
C245 C242 1.409 . S
C245 C243 1.415 . S
C246 H236 0.930 . S
C246 C244 1.419 1_655 S
C246 C247 1.362 . S
C247 H237 0.930 . S
C247 C240 1.409 . S
C247 C246 1.362 . S
H248 C254 0.930 . S
H249 C257 0.930 . S
H250 C258 0.930 . S
H251 C259 0.930 . S
H252 C262 0.930 . S
H253 C263 0.930 . S
C254 H248 0.930 . S
C254 C255 1.355 . S
C254 C256 1.415 1_545 S
C255 C254 1.355 . S
C255 C257 1.419 . S
C256 C254 1.415 1_565 S
C256 C261 1.425 1_565 S
C256 C263 1.409 . S
C257 H249 0.930 . S
C257 C255 1.419 . S
C257 C258 1.362 . S
C258 H250 0.930 . S
C258 C257 1.362 . S
C258 C261 1.409 . S
C259 H251 0.930 . S
C259 C260 1.355 . S
C259 C261 1.415 1_565 S
C260 C259 1.355 . S
C260 C262 1.419 . S
C261 C256 1.425 1_545 S
C261 C258 1.409 . S
C261 C259 1.415 1_545 S
C262 H252 0.930 . S
C262 C260 1.419 . S
C262 C263 1.362 . S
C263 H253 0.930 . S
C263 C256 1.409 . S
C263 C262 1.362 . S
H264 C270 0.930 . S
H265 C273 0.930 . S
H266 C274 0.930 . S
H267 C275 0.930 . S
H268 C278 0.930 . S
H269 C279 0.930 . S
C270 H264 0.930 . S
C270 C271 1.355 . S
C270 C272 1.415 . S
C271 C270 1.355 . S
C271 C273 1.419 . S
C272 C270 1.415 . S
C272 C277 1.425 . S
C272 C279 1.409 . S
C273 H265 0.930 . S
C273 C271 1.419 . S
C273 C274 1.362 . S
C274 H266 0.930 . S
C274 C273 1.362 . S
C274 C277 1.409 . S
C275 H267 0.930 . S
C275 C276 1.355 . S
C275 C277 1.415 . S
C276 C275 1.355 . S
C276 C278 1.419 . S
C277 C272 1.425 . S
C277 C274 1.409 . S
C277 C275 1.415 . S
C278 H268 0.930 . S
C278 C276 1.419 . S
C278 C279 1.362 . S
C279 H269 0.930 . S
C279 C272 1.409 . S
C279 C278 1.362 . S
H280 C286 0.930 . S
H281 C289 0.930 . S
H282 C290 0.930 . S
H283 C291 0.930 . S
H284 C294 0.930 . S
H285 C295 0.930 . S
C286 H280 0.930 . S
C286 C287 1.355 . S
C286 C288 1.415 . S
C287 C286 1.355 . S
C287 C289 1.419 . S
C288 C286 1.415 . S
C288 C293 1.425 . S
C288 C295 1.409 . S
C289 H281 0.930 . S
C289 C287 1.419 . S
C289 C290 1.362 . S
C290 H282 0.930 . S
C290 C289 1.362 . S
C290 C293 1.409 . S
C291 H283 0.930 . S
C291 C292 1.355 . S
C291 C293 1.415 . S
C292 C291 1.355 . S
C292 C294 1.419 . S
C293 C288 1.425 . S
C293 C290 1.409 . S
C293 C291 1.415 . S
C294 H284 0.930 . S
C294 C292 1.419 . S
C294 C295 1.362 . S
C295 H285 0.930 . S
C295 C288 1.409 . S
C295 C294 1.362 . S
H296 C302 0.930 . S
H297 C305 0.930 . S
H298 C306 0.930 . S
H299 C307 0.930 . S
H300 C310 0.930 . S
H301 C311 0.930 . S
C302 H296 0.930 . S
C302 C303 1.355 . S
C302 C304 1.415 . S
C303 C302 1.355 . S
C303 C305 1.419 . S
C304 C302 1.415 . S
C304 C309 1.425 . S
C304 C311 1.409 . S
C305 H297 0.930 . S
C305 C303 1.419 . S
C305 C306 1.362 . S
C306 H298 0.930 . S
C306 C305 1.362 . S
C306 C309 1.409 . S
C307 H299 0.930 . S
C307 C308 1.355 . S
C307 C309 1.415 . S
C308 C307 1.355 . S
C308 C310 1.419 . S
C309 C304 1.425 . S
C309 C306 1.409 . S
C309 C307 1.415 . S
C310 H300 0.930 . S
C310 C308 1.419 . S
C310 C311 1.362 . S
C311 H301 0.930 . S
C311 C304 1.409 . S
C311 C310 1.362 . S
H312 C318 0.930 . S
H313 C321 0.930 . S
H314 C322 0.930 . S
H315 C323 0.930 . S
H316 C326 0.930 . S
H317 C327 0.930 . S
C318 H312 0.930 . S
C318 C319 1.355 . S
C318 C320 1.415 . S
C319 C318 1.355 . S
C319 C321 1.419 . S
C320 C318 1.415 . S
C320 C325 1.425 . S
C320 C327 1.409 . S
C321 H313 0.930 . S
C321 C319 1.419 . S
C321 C322 1.362 . S
C322 H314 0.930 . S
C322 C321 1.362 . S
C322 C325 1.409 . S
C323 H315 0.930 . S
C323 C324 1.355 . S
C323 C325 1.415 . S
C324 C323 1.355 . S
C324 C326 1.419 . S
C325 C320 1.425 . S
C325 C322 1.409 . S
C325 C323 1.415 . S
C326 H316 0.930 . S
C326 C324 1.419 . S
C326 C327 1.362 . S
C327 H317 0.930 . S
C327 C320 1.409 . S
C327 C326 1.362 . S
H328 C334 0.930 . S
H329 C337 0.930 . S
H330 C338 0.930 . S
H331 C339 0.930 . S
H332 C342 0.930 . S
H333 C343 0.930 . S
C334 H328 0.930 . S
C334 C335 1.355 . S
C334 C336 1.415 . S
C335 C334 1.355 . S
C335 C337 1.419 . S
C336 C334 1.415 . S
C336 C341 1.425 . S
C336 C343 1.409 . S
C337 H329 0.930 . S
C337 C335 1.419 . S
C337 C338 1.362 . S
C338 H330 0.930 . S
C338 C337 1.362 . S
C338 C341 1.409 . S
C339 H331 0.930 . S
C339 C340 1.355 . S
C339 C341 1.415 . S
C340 C339 1.355 . S
C340 C342 1.419 . S
C341 C336 1.425 . S
C341 C338 1.409 . S
C341 C339 1.415 . S
C342 H332 0.930 . S
C342 C340 1.419 . S
C342 C343 1.362 . S
C343 H333 0.930 . S
C343 C336 1.409 . S
C343 C342 1.362 . S
H344 C350 0.930 . S
H345 C353 0.930 . S
H346 C354 0.930 . S
H347 C355 0.930 . S
H348 C358 0.930 . S
H349 C359 0.930 . S
C350 H344 0.930 . S
C350 C351 1.355 . S
C350 C352 1.415 . S
C351 C350 1.355 . S
C351 C353 1.419 . S
C352 C350 1.415 . S
C352 C357 1.425 . S
C352 C359 1.409 . S
C353 H345 0.930 . S
C353 C351 1.419 . S
C353 C354 1.362 . S
C354 H346 0.930 . S
C354 C353 1.362 . S
C354 C357 1.409 . S
C355 H347 0.930 . S
C355 C356 1.355 . S
C355 C357 1.415 . S
C356 C355 1.355 . S
C356 C358 1.419 . S
C357 C352 1.425 . S
C357 C354 1.409 . S
C357 C355 1.415 . S
C358 H348 0.930 . S
C358 C356 1.419 . S
C358 C359 1.362 . S
C359 H349 0.930 . S
C359 C352 1.409 . S
C359 C358 1.362 . S
H360 C366 0.930 . S
H361 C369 0.930 . S
H362 C370 0.930 1_545 S
H363 C371 0.930 . S
H364 C374 0.930 . S
H365 C375 0.930 1_565 S
C366 H360 0.930 . S
C366 C367 1.355 1_554 S
C366 C368 1.415 . S
C367 C366 1.355 1_556 S
C367 C369 1.419 . S
C368 C366 1.415 . S
C368 C373 1.425 1_564 S
C368 C375 1.409 1_565 S
C369 H361 0.930 . S
C369 C367 1.419 . S
C369 C370 1.362 . S
C370 H362 0.930 1_565 S
C370 C369 1.362 . S
C370 C373 1.409 1_565 S
C371 H363 0.930 . S
C371 C372 1.355 1_556 S
C371 C373 1.415 . S
C372 C371 1.355 1_554 S
C372 C374 1.419 . S
C373 C368 1.425 1_546 S
C373 C370 1.409 1_545 S
C373 C371 1.415 . S
C374 H364 0.930 . S
C374 C372 1.419 . S
C374 C375 1.362 . S
C375 H365 0.930 1_545 S
C375 C368 1.409 1_545 S
C375 C374 1.362 . S
H376 C382 0.930 . S
H377 C385 0.930 . S
H378 C386 0.930 . S
H379 C387 0.930 . S
H380 C390 0.930 . S
H381 C391 0.930 . S
C382 H376 0.930 . S
C382 C383 1.355 . S
C382 C384 1.415 . S
C383 C382 1.355 . S
C383 C385 1.419 . S
C384 C382 1.415 . S
C384 C389 1.425 . S
C384 C391 1.409 . S
C385 H377 0.930 . S
C385 C383 1.419 . S
C385 C386 1.362 . S
C386 H378 0.930 . S
C386 C385 1.362 . S
C386 C389 1.409 . S
C387 H379 0.930 . S
C387 C388 1.355 . S
C387 C389 1.415 . S
C388 C387 1.355 . S
C388 C390 1.419 . S
C389 C384 1.425 . S
C389 C386 1.409 . S
C389 C387 1.415 . S
C390 H380 0.930 . S
C390 C388 1.419 . S
C390 C391 1.362 . S
C391 H381 0.930 . S
C391 C384 1.409 . S
C391 C390 1.362 . S
H392 C398 0.930 . S
H393 C401 0.930 . S
H394 C402 0.930 . S
H395 C403 0.930 . S
H396 C406 0.930 . S
H397 C407 0.930 . S
C398 H392 0.930 . S
C398 C399 1.355 . S
C398 C400 1.415 . S
C399 C398 1.355 . S
C399 C401 1.419 . S
C400 C398 1.415 . S
C400 C405 1.425 1_655 S
C400 C407 1.409 1_655 S
C401 H393 0.930 . S
C401 C399 1.419 . S
C401 C402 1.362 . S
C402 H394 0.930 . S
C402 C401 1.362 . S
C402 C405 1.409 1_655 S
C403 H395 0.930 . S
C403 C404 1.355 . S
C403 C405 1.415 . S
C404 C403 1.355 . S
C404 C406 1.419 . S
C405 C400 1.425 1_455 S
C405 C402 1.409 1_455 S
C405 C403 1.415 . S
C406 H396 0.930 . S
C406 C404 1.419 . S
C406 C407 1.362 . S
C407 H397 0.930 . S
C407 C400 1.409 1_455 S
C407 C406 1.362 . S
H408 C414 0.930 . S
H409 C417 0.930 . S
H410 C418 0.931 1_556 S
H411 C419 0.930 . S
H412 C422 0.930 . S
H413 C423 0.931 1_554 S
C414 H408 0.930 . S
C414 C415 1.355 . S
C414 C416 1.415 . S
C415 C414 1.355 . S
C415 C417 1.419 . S
C416 C414 1.415 . S
C416 C421 1.425 1_564 S
C416 C423 1.409 1_564 S
C417 H409 0.930 . S
C417 C415 1.419 . S
C417 C418 1.362 . S
C418 H410 0.931 1_554 S
C418 C417 1.362 . S
C418 C421 1.409 1_564 S
C419 H411 0.930 . S
C419 C420 1.355 . S
C419 C421 1.415 . S
C420 C419 1.355 . S
C420 C422 1.419 . S
C421 C416 1.425 1_546 S
C421 C418 1.409 1_546 S
C421 C419 1.415 . S
C422 H412 0.930 . S
C422 C420 1.419 . S
C422 C423 1.362 . S
C423 H413 0.931 1_556 S
C423 C416 1.409 1_546 S
C423 C422 1.362 . S
H424 C430 0.930 . S
H425 C433 0.930 . S
H426 C434 0.930 . S
H427 C435 0.930 . S
H428 C438 0.930 . S
H429 C439 0.930 . S
C430 H424 0.930 . S
C430 C431 1.355 . S
C430 C432 1.415 . S
C431 C430 1.355 . S
C431 C433 1.419 . S
C432 C430 1.415 . S
C432 C437 1.425 . S
C432 C439 1.409 . S
C433 H425 0.930 . S
C433 C431 1.419 . S
C433 C434 1.362 . S
C434 H426 0.930 . S
C434 C433 1.362 . S
C434 C437 1.409 . S
C435 H427 0.930 . S
C435 C436 1.355 . S
C435 C437 1.415 . S
C436 C435 1.355 . S
C436 C438 1.419 . S
C437 C432 1.425 . S
C437 C434 1.409 . S
C437 C435 1.415 . S
C438 H428 0.930 . S
C438 C436 1.419 . S
C438 C439 1.362 . S
C439 H429 0.930 . S
C439 C432 1.409 . S
C439 C438 1.362 . S
H440 C446 0.930 . S
H441 C449 0.930 . S
H442 C450 0.930 . S
H443 C451 0.930 . S
H444 C454 0.930 . S
H445 C455 0.930 . S
C446 H440 0.930 . S
C446 C447 1.355 . S
C446 C448 1.421 . S
C447 C446 1.355 . S
C447 C449 1.419 . S
C448 C446 1.421 . S
C448 C453 1.423 1_455 S
C448 C455 1.404 1_455 S
C449 H441 0.930 . S
C449 C447 1.419 . S
C449 C450 1.362 . S
C450 H442 0.930 . S
C450 C449 1.362 . S
C450 C453 1.404 1_455 S
C451 H443 0.930 . S
C451 C452 1.355 . S
C451 C453 1.421 . S
C452 C451 1.355 . S
C452 C454 1.419 . S
C453 C448 1.423 1_655 S
C453 C450 1.404 1_655 S
C453 C451 1.421 . S
C454 H444 0.930 . S
C454 C452 1.419 . S
C454 C455 1.362 . S
C455 H445 0.930 . S
C455 C448 1.404 1_655 S
C455 C454 1.362 . S
H456 C462 0.930 . S
H457 C465 0.930 . S
H458 C466 0.930 . S
H459 C467 0.930 . S
H460 C470 0.930 . S
H461 C471 0.930 . S
C462 H456 0.930 . S
C462 C463 1.355 . S
C462 C464 1.415 . S
C463 C462 1.355 . S
C463 C465 1.419 1_556 S
C464 C462 1.415 . S
C464 C469 1.425 1_556 S
C464 C471 1.409 . S
C465 H457 0.930 . S
C465 C463 1.419 1_554 S
C465 C466 1.362 . S
C466 H458 0.930 . S
C466 C465 1.362 . S
C466 C469 1.409 . S
C467 H459 0.930 . S
C467 C468 1.355 . S
C467 C469 1.415 . S
C468 C467 1.355 . S
C468 C470 1.419 1_554 S
C469 C464 1.425 1_554 S
C469 C466 1.409 . S
C469 C467 1.415 . S
C470 H460 0.930 . S
C470 C468 1.419 1_556 S
C470 C471 1.362 . S
C471 H461 0.930 . S
C471 C464 1.409 . S
C471 C470 1.362 . S
H472 C478 0.930 . S
H473 C481 0.930 . S
H474 C482 0.930 . S
H475 C483 0.930 . S
H476 C486 0.930 . S
H477 C487 0.930 . S
C478 H472 0.930 . S
C478 C479 1.355 . S
C478 C480 1.415 . S
C479 C478 1.355 . S
C479 C481 1.419 . S
C480 C478 1.415 . S
C480 C485 1.425 . S
C480 C487 1.409 . S
C481 H473 0.930 . S
C481 C479 1.419 . S
C481 C482 1.362 . S
C482 H474 0.930 . S
C482 C481 1.362 . S
C482 C485 1.409 . S
C483 H475 0.930 . S
C483 C484 1.355 . S
C483 C485 1.415 . S
C484 C483 1.355 . S
C484 C486 1.419 . S
C485 C480 1.425 . S
C485 C482 1.409 . S
C485 C483 1.415 . S
C486 H476 0.930 . S
C486 C484 1.419 . S
C486 C487 1.362 . S
C487 H477 0.930 . S
C487 C480 1.409 . S
C487 C486 1.362 . S
H488 C494 0.930 . S
H489 C497 0.930 . S
H490 C498 0.930 . S
H491 C499 0.930 . S
H492 C502 0.930 1_545 S
H493 C503 0.930 . S
C494 H488 0.930 . S
C494 C495 1.355 . S
C494 C496 1.415 . S
C495 C494 1.355 . S
C495 C497 1.419 . S
C496 C494 1.415 . S
C496 C501 1.425 . S
C496 C503 1.409 . S
C497 H489 0.930 . S
C497 C495 1.419 . S
C497 C498 1.362 . S
C498 H490 0.930 . S
C498 C497 1.362 . S
C498 C501 1.409 . S
C499 H491 0.930 . S
C499 C500 1.355 . S
C499 C501 1.415 . S
C500 C499 1.355 . S
C500 C502 1.419 . S
C501 C496 1.425 . S
C501 C498 1.409 . S
C501 C499 1.415 . S
C502 H492 0.930 1_565 S
C502 C500 1.419 . S
C502 C503 1.362 . S
C503 H493 0.930 . S
C503 C496 1.409 . S
C503 C502 1.362 . S
H504 C510 0.930 . S
H505 C513 0.930 . S
H506 C514 0.930 . S
H507 C515 0.930 . S
H508 C518 0.930 . S
H509 C519 0.930 . S
C510 H504 0.930 . S
C510 C511 1.355 . S
C510 C512 1.415 . S
C511 C510 1.355 . S
C511 C513 1.419 1_554 S
C512 C510 1.415 . S
C512 C517 1.425 1_554 S
C512 C519 1.409 . S
C513 H505 0.930 . S
C513 C511 1.419 1_556 S
C513 C514 1.362 . S
C514 H506 0.930 . S
C514 C513 1.362 . S
C514 C517 1.409 . S
C515 H507 0.930 . S
C515 C516 1.355 . S
C515 C517 1.415 . S
C516 C515 1.355 . S
C516 C518 1.419 1_556 S
C517 C512 1.425 1_556 S
C517 C514 1.409 . S
C517 C515 1.415 . S
C518 H508 0.930 . S
C518 C516 1.419 1_554 S
C518 C519 1.362 . S
C519 H509 0.930 . S
C519 C512 1.409 . S
C519 C518 1.362 . S
H520 C526 0.930 . S
H521 C529 0.930 . S
H522 C530 0.930 . S
H523 C531 0.930 . S
H524 C534 0.930 . S
H525 C535 0.930 . S
C526 H520 0.930 . S
C526 C527 1.355 . S
C526 C528 1.415 . S
C527 C526 1.355 . S
C527 C529 1.419 . S
C528 C526 1.415 . S
C528 C533 1.425 . S
C528 C535 1.409 . S
C529 H521 0.930 . S
C529 C527 1.419 . S
C529 C530 1.362 . S
C530 H522 0.930 . S
C530 C529 1.362 . S
C530 C533 1.409 . S
C531 H523 0.930 . S
C531 C532 1.355 . S
C531 C533 1.415 . S
C532 C531 1.355 . S
C532 C534 1.419 . S
C533 C528 1.425 . S
C533 C530 1.409 . S
C533 C531 1.415 . S
C534 H524 0.930 . S
C534 C532 1.419 . S
C534 C535 1.362 . S
C535 H525 0.930 . S
C535 C528 1.409 . S
C535 C534 1.362 . S
H536 C542 0.930 . S
H537 C545 0.930 . S
H538 C546 0.930 . S
H539 C547 0.930 . S
H540 C550 0.930 . S
H541 C551 0.930 . S
C542 H536 0.930 . S
C542 C543 1.355 . S
C542 C544 1.415 . S
C543 C542 1.355 . S
C543 C545 1.419 . S
C544 C542 1.415 . S
C544 C549 1.425 . S
C544 C551 1.409 . S
C545 H537 0.930 . S
C545 C543 1.419 . S
C545 C546 1.362 . S
C546 H538 0.930 . S
C546 C545 1.362 . S
C546 C549 1.409 . S
C547 H539 0.930 . S
C547 C548 1.355 . S
C547 C549 1.415 . S
C548 C547 1.355 . S
C548 C550 1.419 . S
C549 C544 1.425 . S
C549 C546 1.409 . S
C549 C547 1.415 . S
C550 H540 0.930 . S
C550 C548 1.419 . S
C550 C551 1.362 . S
C551 H541 0.930 . S
C551 C544 1.409 . S
C551 C550 1.362 . S
C175 C50 1.411 . S
C180 C8 1.406 . S
C191 C22 1.387 . S
C196 C64 1.385 . S
C207 C78 1.391 . S
C212 C36 1.394 . S
C223 C92 1.403 . S
C228 C134 1.399 . S
C239 C148 1.387 . S
C244 C106 1.385 . S
C255 C120 1.428 . S
C260 C162 1.424 . S
C271 C119 1.536 . S
C276 C7 1.594 . S
C287 C21 1.592 . S
C292 C133 1.553 . S
C303 C35 1.595 . S
C308 C147 1.537 . S
C319 C49 1.536 . S
C324 C161 1.586 . S
C335 C91 1.561 . S
C340 C63 1.552 . S
C351 C105 1.567 . S
C356 C77 1.582 . S
C367 C107 1.200 . S
C372 C9 1.215 . S
C383 C23 1.228 . S
C388 C121 1.191 . S
C399 C37 1.237 . S
C404 C135 1.265 . S
C415 C51 1.201 . S
C420 C149 1.274 . S
C431 C163 1.242 . S
C436 C65 1.185 . S
C447 C79 1.253 . S
C452 C93 1.251 . S
C463 C143 1.468 1_455 S
C468 C3 1.471 . S
C479 C157 1.478 1_545 S
C484 C17 1.482 1_655 S
C495 C87 1.475 . S
C500 C31 1.470 1_565 S
C511 C45 1.469 . S
C516 C101 1.472 1_655 S
C527 C59 1.483 1_455 S
C532 C115 1.480 1_565 S
C543 C73 1.474 1_545 S
C548 C129 1.469 . S
