# Generated by pormake.
# Topology lig, (3)-cn, num edge types: 1
# Building blocks:
#     Node 0, Type 0, BuildingBlock: WUSLED_clean_sbu_0, # of connection points: 3
#     Node 1, Type 0, BuildingBlock: WUSLED_clean_sbu_0, # of connection points: 3
#     Node 2, Type 0, BuildingBlock: WUSLED_clean_sbu_0, # of connection points: 3
#     Node 3, Type 0, BuildingBlock: WUSLED_clean_sbu_0, # of connection points: 3
#     Node 4, Type 0, BuildingBlock: WUSLED_clean_sbu_0, # of connection points: 3
#     Node 5, Type 0, BuildingBlock: WUSLED_clean_sbu_0, # of connection points: 3
#     Node 6, Type 0, BuildingBlock: WUSLED_clean_sbu_0, # of connection points: 3
#     Node 7, Type 0, BuildingBlock: WUSLED_clean_sbu_0, # of connection points: 3
#     Node 8, Type 0, BuildingBlock: WUSLED_clean_sbu_0, # of connection points: 3
#     Node 9, Type 0, BuildingBlock: WUSLED_clean_sbu_0, # of connection points: 3
#     Node 10, Type 0, BuildingBlock: WUSLED_clean_sbu_0, # of connection points: 3
#     Node 11, Type 0, BuildingBlock: WUSLED_clean_sbu_0, # of connection points: 3
#     Node 12, Type 0, BuildingBlock: WUSLED_clean_sbu_0, # of connection points: 3
#     Node 13, Type 0, BuildingBlock: WUSLED_clean_sbu_0, # of connection points: 3
#     Node 14, Type 0, BuildingBlock: WUSLED_clean_sbu_0, # of connection points: 3
#     Node 15, Type 0, BuildingBlock: WUSLED_clean_sbu_0, # of connection points: 3
#     Edge 16, Type (0, 0), BuildingBlock: EZIPEK_clean_linker_0, # of connection points: 2
#     Edge 17, Type (0, 0), BuildingBlock: EZIPEK_clean_linker_0, # of connection points: 2
#     Edge 18, Type (0, 0), BuildingBlock: EZIPEK_clean_linker_0, # of connection points: 2
#     Edge 19, Type (0, 0), BuildingBlock: EZIPEK_clean_linker_0, # of connection points: 2
#     Edge 20, Type (0, 0), BuildingBlock: EZIPEK_clean_linker_0, # of connection points: 2
#     Edge 21, Type (0, 0), BuildingBlock: EZIPEK_clean_linker_0, # of connection points: 2
#     Edge 22, Type (0, 0), BuildingBlock: EZIPEK_clean_linker_0, # of connection points: 2
#     Edge 23, Type (0, 0), BuildingBlock: EZIPEK_clean_linker_0, # of connection points: 2
#     Edge 24, Type (0, 0), BuildingBlock: EZIPEK_clean_linker_0, # of connection points: 2
#     Edge 25, Type (0, 0), BuildingBlock: EZIPEK_clean_linker_0, # of connection points: 2
#     Edge 26, Type (0, 0), BuildingBlock: EZIPEK_clean_linker_0, # of connection points: 2
#     Edge 27, Type (0, 0), BuildingBlock: EZIPEK_clean_linker_0, # of connection points: 2
#     Edge 28, Type (0, 0), BuildingBlock: EZIPEK_clean_linker_0, # of connection points: 2
#     Edge 29, Type (0, 0), BuildingBlock: EZIPEK_clean_linker_0, # of connection points: 2
#     Edge 30, Type (0, 0), BuildingBlock: EZIPEK_clean_linker_0, # of connection points: 2
#     Edge 31, Type (0, 0), BuildingBlock: EZIPEK_clean_linker_0, # of connection points: 2
#     Edge 32, Type (0, 0), BuildingBlock: EZIPEK_clean_linker_0, # of connection points: 2
#     Edge 33, Type (0, 0), BuildingBlock: EZIPEK_clean_linker_0, # of connection points: 2
#     Edge 34, Type (0, 0), BuildingBlock: EZIPEK_clean_linker_0, # of connection points: 2
#     Edge 35, Type (0, 0), BuildingBlock: EZIPEK_clean_linker_0, # of connection points: 2
#     Edge 36, Type (0, 0), BuildingBlock: EZIPEK_clean_linker_0, # of connection points: 2
#     Edge 37, Type (0, 0), BuildingBlock: EZIPEK_clean_linker_0, # of connection points: 2
#     Edge 38, Type (0, 0), BuildingBlock: EZIPEK_clean_linker_0, # of connection points: 2
#     Edge 39, Type (0, 0), BuildingBlock: EZIPEK_clean_linker_0, # of connection points: 2
# Relax obj value: 0.000
# Max RMSD: 0.008
# Mean RMSD: 0.005
data_MOF--net-lig--node1-WUSLED_clean_sbu_0--edge1-EZIPEK_clean_linker_0
_symmetry_space_group_name_H-M    P1
_symmetry_Int_Tables_number       1
_symmetry_cell_setting            triclinic
loop_
_symmetry_equiv_pos_as_xyz
'x, y, z'
_cell_length_a     74.974009
_cell_length_b     75.705069
_cell_length_c     53.581648
_cell_angle_alpha  88.405184
_cell_angle_beta   89.899628
_cell_angle_gamma 91.548844
loop_
_atom_site_label
_atom_site_type_symbol
_atom_site_fract_x
_atom_site_fract_y
_atom_site_fract_z
_atom_type_partial_charge
C0 C 0.09858 1.02086 0.05536 0.0
C1 C 0.09117 1.02347 0.03148 0.0
C2 C 0.0613 1.02338 0.04954 0.0
C3 C 0.07263 1.02468 0.0286 0.0
C4 C 0.06877 1.0211 0.07337 0.0
C5 C 0.08724 1.01985 0.07623 0.0
U6 U 0.14841 0.0284 0.03789 0.0
O7 O 0.17134 0.03284 0.06278 0.0
O8 O 0.17019 1.00944 0.03958 0.0
C9 C 0.17872 1.01788 0.05723 0.0
C10 C 0.11792 1.01851 0.05908 0.0
C11 C 0.18493 1.00687 0.07849 0.0
C12 C 0.17982 0.99088 0.11805 0.0
C13 C 0.17345 1.00137 0.09815 0.0
C14 C 0.20911 0.99126 0.09882 0.0
C15 C 0.19771 0.98574 0.11849 0.0
C16 C 0.20277 1.00174 0.07901 0.0
C17 C 0.16155 0.05738 0.97964 0.0
C18 C 0.18992 0.07269 0.97052 0.0
C19 C 0.16783 0.06952 0.93791 0.0
C20 C 0.15642 0.06033 0.95473 0.0
C21 C 0.18457 0.07597 0.94573 0.0
C22 C 0.1785 0.06342 0.98737 0.0
C23 C 0.14861 0.04875 0.99727 0.0
O24 O 0.12611 1.00909 0.04253 0.0
O25 O 0.12724 0.03259 0.06559 0.0
O26 O 0.14829 0.05489 1.01998 0.0
O27 O 0.14724 0.03142 0.99684 0.0
H28 H 0.09967 1.02433 1.0151 0.0
H29 H 0.0671 0.0264 1.01006 0.0
H30 H 0.06026 1.02004 0.08973 0.0
H31 H 0.09267 1.01783 0.09479 0.0
H32 H 0.17082 0.98669 0.13303 0.0
H33 H 0.15962 1.00516 0.09806 0.0
H34 H 0.22292 0.98739 0.09879 0.0
H35 H 0.21181 1.00582 0.06401 0.0
H36 H 0.20278 0.07759 0.97691 0.0
H37 H 0.16345 0.07193 0.91888 0.0
H38 H 0.14341 0.0558 0.94838 0.0
H39 H 0.18277 0.06126 1.00649 0.0
C40 C 0.28076 0.85436 0.30256 0.0
C41 C 0.26507 0.84757 0.29161 0.0
C42 C 0.27654 0.81776 0.29456 0.0
C43 C 0.26297 0.82938 0.2877 0.0
C44 C 0.29226 0.82458 0.30521 0.0
C45 C 0.29434 0.84272 0.3092 0.0
U46 U 0.27339 0.90407 0.28894 0.0
O47 O 0.26881 0.92537 0.3151 0.0
O48 O 0.29272 0.92648 0.29136 0.0
C49 C 0.28401 0.93367 0.30963 0.0
C50 C 0.28322 0.87336 0.30776 0.0
C51 C 0.29479 0.93999 0.33089 0.0
C52 C 0.3034 0.93865 0.37476 0.0
C53 C 0.29432 0.93131 0.35446 0.0
C54 C 0.314 0.96308 0.34806 0.0
C55 C 0.31311 0.95472 0.37176 0.0
C56 C 0.3049 0.95579 0.32784 0.0
C57 C 0.24445 0.91856 0.23235 0.0
C58 C 0.24615 0.94421 0.20378 0.0
C59 C 0.21829 0.92753 0.20873 0.0
C60 C 0.22637 0.91615 0.2261 0.0
C61 C 0.22817 0.94149 0.19716 0.0
C62 C 0.25423 0.93286 0.22126 0.0
C63 C 0.25295 0.90531 0.24908 0.0
O64 O 0.29287 0.88277 0.29149 0.0
O65 O 0.26905 0.88158 0.31538 0.0
O66 O 0.24658 0.90364 0.27192 0.0
O67 O 0.27044 0.90453 0.2481 0.0
H68 H 0.25443 0.85629 0.28625 0.0
H69 H 0.25076 0.82434 0.2794 0.0
H70 H 0.30288 0.81583 0.31059 0.0
H71 H 0.30654 0.84767 0.31765 0.0
H72 H 0.30254 0.93202 0.39291 0.0
H73 H 0.28663 0.9191 0.35731 0.0
H74 H 0.32138 0.97549 0.34538 0.0
H75 H 0.30542 0.96274 0.30989 0.0
H76 H 0.25399 0.95491 0.19505 0.0
H77 H 0.20442 0.92522 0.20388 0.0
H78 H 0.21857 0.9052 0.23429 0.0
H79 H 0.26818 0.93509 0.2257 0.0
C80 C 0.36019 1.00918 0.49618 0.0
C81 C 0.36934 1.00917 0.47323 0.0
C82 C 0.34618 0.98994 0.45588 0.0
C83 C 0.36235 0.99965 0.45321 0.0
C84 C 0.33733 0.98957 0.479 0.0
C85 C 0.34426 0.99913 0.49894 0.0
U86 U 0.39646 0.03171 0.53678 0.0
O87 O 0.39671 0.05837 0.55246 0.0
O88 O 0.39705 0.03494 0.57748 0.0
C89 C 0.39577 0.05223 0.57564 0.0
C90 C 0.36635 1.02019 0.51704 0.0
C91 C 0.38268 0.06058 0.59221 0.0
C92 C 0.35996 0.05869 0.62494 0.0
C93 C 0.37093 0.05046 0.60777 0.0
C94 C 0.37191 0.08731 0.61098 0.0
C95 C 0.36052 0.07717 0.62688 0.0
C96 C 0.38292 0.0791 0.59389 0.0
C97 C 0.44652 0.02525 0.52083 0.0
C98 C 0.47314 0.02535 0.54696 0.0
C99 C 0.47609 0.028 0.50198 0.0
C100 C 0.45751 0.02719 0.49962 0.0
C101 C 0.48407 0.02686 0.52562 0.0
C102 C 0.45448 1.02457 0.54459 0.0
C103 C 0.42704 1.0227 0.5173 0.0
O104 O 0.37431 1.01193 0.53563 0.0
O105 O 0.37405 0.03552 0.51093 0.0
O106 O 0.41825 0.03658 0.50947 0.0
O107 O 0.41835 1.01308 0.5344 0.0
H108 H 0.38168 1.01679 0.47064 0.0
H109 H 0.36937 1.00011 0.4355 0.0
H110 H 0.32484 0.98219 0.48142 0.0
H111 H 0.33698 0.99895 0.51644 0.0
H112 H 0.35127 0.05063 0.63706 0.0
H113 H 0.37043 0.03617 0.60707 0.0
H114 H 0.37255 0.10157 0.61219 0.0
H115 H 0.39193 0.08722 0.58233 0.0
H116 H 0.47905 1.02441 0.56535 0.0
H117 H 0.48429 0.02913 0.48531 0.0
H118 H 0.45169 0.02767 0.48112 0.0
H119 H 0.44633 1.02306 0.56126 0.0
C120 C 0.28373 0.20676 0.77174 0.0
C121 C 0.26871 0.2121 0.78504 0.0
C122 C 0.27887 0.2429 0.78074 0.0
C123 C 0.26628 0.23006 0.78945 0.0
C124 C 0.29394 0.23752 0.76769 0.0
C125 C 0.29633 0.2196 0.76321 0.0
U126 U 0.27643 0.15683 0.78527 0.0
O127 O 0.27197 0.13519 0.7592 0.0
O128 O 0.29556 0.13528 0.78337 0.0
C129 C 0.28699 0.12755 0.7651 0.0
C130 C 0.28646 0.18798 0.76628 0.0
C131 C 0.29806 0.12163 0.74419 0.0
C132 C 0.31038 0.12526 0.70216 0.0
C133 C 0.30026 0.13169 0.72188 0.0
C134 C 0.31633 0.09882 0.72691 0.0
C135 C 0.31842 0.10873 0.70453 0.0
C136 C 0.30624 0.10521 0.74653 0.0
C137 C 0.24718 0.14186 0.84242 0.0
C138 C 0.22877 0.11525 0.85043 0.0
C139 C 0.23753 0.13374 0.88473 0.0
C140 C 0.24691 0.14514 0.86808 0.0
C141 C 0.22818 0.11884 0.87601 0.0
C142 C 0.23823 0.12665 0.83373 0.0
C143 C 0.25593 0.15509 0.82524 0.0
O144 O 0.29602 0.17908 0.78259 0.0
O145 O 0.27238 0.17897 0.75857 0.0
O146 O 0.2497 0.15626 0.80233 0.0
O147 O 0.27343 0.15637 0.82626 0.0
H148 H 0.25886 0.20241 0.79188 0.0
H149 H 0.25459 0.23397 0.7996 0.0
H150 H 0.30379 0.24722 0.76087 0.0
H151 H 0.30801 0.21576 0.75296 0.0
H152 H 0.3119 0.13312 0.68505 0.0
H153 H 0.2941 0.14441 0.71966 0.0
H154 H 0.32246 0.08608 0.72913 0.0
H155 H 0.3047 0.09723 0.76355 0.0
H156 H 0.22162 0.10383 0.84335 0.0
H157 H 0.23721 0.13675 0.90437 0.0
H158 H 0.25366 0.15679 0.87519 0.0
H159 H 0.23824 0.12379 0.81404 0.0
C160 C 0.8611 1.00912 0.08246 0.0
C161 C 0.87219 1.00846 0.10358 0.0
C162 C 0.85037 0.98935 0.12564 0.0
C163 C 0.86682 0.99871 0.12503 0.0
C164 C 0.83941 0.98981 0.10444 0.0
C165 C 0.84473 0.99966 0.08304 0.0
U166 U 0.89601 0.03055 0.0376 0.0
O167 O 0.89571 0.03337 0.99659 0.0
O168 O 0.89676 0.05702 1.01937 0.0
C169 C 0.8954 0.05073 0.99682 0.0
C170 C 0.86619 1.01982 0.05992 0.0
C171 C 0.8825 0.05942 0.98001 0.0
C172 C 0.85325 0.06128 0.96047 0.0
C173 C 0.86492 0.05284 0.97715 0.0
C174 C 0.87651 0.08299 0.94962 0.0
C175 C 0.85899 0.07642 0.94658 0.0
C176 C 0.88814 0.07456 0.96618 0.0
C177 C 0.94628 1.02365 0.05218 0.0
C178 C 0.97315 1.01831 0.02804 0.0
C179 C 0.97568 0.03146 0.0686 0.0
C180 C 0.95708 0.03075 0.07105 0.0
C181 C 0.98387 1.025 0.04726 0.0
C182 C 0.9545 1.01764 0.03046 0.0
C183 C 0.9268 1.02127 0.05672 0.0
O184 O 0.87415 0.03518 0.06385 0.0
O185 O 0.87354 1.01123 0.04174 0.0
O186 O 0.91764 1.01156 0.041 0.0
O187 O 0.91827 0.03526 0.06368 0.0
H188 H 0.88492 1.01558 0.10354 0.0
H189 H 0.87547 0.99848 0.1412 0.0
H190 H 0.82669 0.98266 0.10455 0.0
H191 H 0.83599 0.99998 0.06695 0.0
H192 H 0.83978 0.05601 0.95835 0.0
H193 H 0.86028 0.04118 0.98767 0.0
H194 H 0.88119 0.09463 0.93908 0.0
H195 H 0.90163 0.07984 0.96809 0.0
H196 H 0.97925 1.01324 1.01145 0.0
H197 H 0.98373 0.03663 0.08365 0.0
H198 H 0.95114 0.03533 0.08806 0.0
H199 H 0.9466 1.01202 1.0156 0.0
C200 C 0.76754 0.20659 0.77083 0.0
C201 C 0.75901 0.21581 0.78979 0.0
C202 C 0.77322 0.24351 0.77515 0.0
C203 C 0.76186 0.23411 0.79194 0.0
C204 C 0.78179 0.23437 0.75635 0.0
C205 C 0.77893 0.21614 0.75415 0.0
U206 U 0.77218 0.15659 0.78688 0.0
O207 O 0.75204 0.13482 0.78538 0.0
O208 O 0.77587 0.1346 0.76156 0.0
C209 C 0.76039 0.12696 0.76737 0.0
C210 C 0.76378 0.18744 0.76695 0.0
C211 C 0.74929 0.12077 0.74636 0.0
C212 C 0.73943 0.12275 0.70305 0.0
C213 C 0.74928 0.12968 0.72297 0.0
C214 C 0.72924 0.09816 0.72975 0.0
C215 C 0.7294 0.10688 0.70629 0.0
C216 C 0.7391 0.10504 0.74957 0.0
C217 C 0.80132 0.1426 0.84337 0.0
C218 C 0.80512 0.11247 0.85922 0.0
C219 C 0.82228 0.13661 0.87696 0.0
C220 C 0.81405 0.14855 0.86058 0.0
C221 C 0.81792 0.11848 0.87641 0.0
C222 C 0.79688 0.12446 0.84275 0.0
C223 C 0.79298 0.15566 0.82642 0.0
O224 O 0.77721 0.17819 0.75918 0.0
O225 O 0.75382 0.17879 0.7837 0.0
O226 O 0.77552 0.15656 0.82771 0.0
O227 O 0.79907 0.15653 0.80341 0.0
H228 H 0.74997 0.20896 0.80278 0.0
H229 H 0.7551 0.24096 0.80654 0.0
H230 H 0.79057 0.24141 0.74319 0.0
H231 H 0.78549 0.20954 0.73913 0.0
H232 H 0.73972 0.12968 0.68509 0.0
H233 H 0.75703 0.14184 0.72001 0.0
H234 H 0.7216 0.08592 0.73263 0.0
H235 H 0.73896 0.09791 0.7674 0.0
H236 H 0.80158 0.09852 0.85855 0.0
H237 H 0.83209 0.1415 0.89007 0.0
H238 H 0.81765 0.16248 0.86136 0.0
H239 H 0.78709 0.11962 0.82957 0.0
C240 C 0.59908 1.02326 0.52248 0.0
C241 C 0.58991 1.0152 0.54296 0.0
C242 C 0.56159 0.02565 0.5269 0.0
C243 C 0.57134 1.0164 0.54513 0.0
C244 C 0.57072 0.03406 0.50681 0.0
C245 C 0.58926 0.03283 0.50458 0.0
U246 U 0.64952 0.02902 0.53788 0.0
O247 O 0.67069 1.0094 0.53601 0.0
O248 O 0.67228 0.03347 0.51228 0.0
C249 C 0.67924 1.01811 0.51791 0.0
C250 C 0.61841 1.02056 0.51818 0.0
C251 C 0.68519 1.00756 0.49674 0.0
C252 C 0.68237 0.99772 0.45395 0.0
C253 C 0.67568 1.00695 0.47416 0.0
C254 C 0.70787 0.98925 0.47882 0.0
C255 C 0.69862 0.98894 0.45607 0.0
C256 C 0.70121 0.99848 0.49894 0.0
C257 C 0.66372 0.05625 0.59544 0.0
C258 C 0.69166 0.0721 0.60423 0.0
C259 C 0.67054 0.06541 0.63766 0.0
C260 C 0.65909 0.05709 0.62077 0.0
C261 C 0.68685 0.0731 0.62953 0.0
C262 C 0.68019 0.0637 0.5873 0.0
C263 C 0.65067 0.04835 0.57798 0.0
O264 O 0.62807 0.03451 0.51083 0.0
O265 O 0.62672 1.01035 0.53439 0.0
O266 O 0.64885 0.03102 0.57889 0.0
O267 O 0.65043 0.05508 0.5551 0.0
H268 H 0.59698 1.00761 0.55702 0.0
H269 H 0.56451 1.00977 0.56072 0.0
H270 H 0.56341 0.04119 0.4925 0.0
H271 H 0.59588 0.039 0.48847 0.0
H272 H 0.67506 0.99766 0.43654 0.0
H273 H 0.66326 1.01382 0.47204 0.0
H274 H 0.72042 0.98259 0.48082 0.0
H275 H 0.70877 0.99879 0.51615 0.0
H276 H 0.70419 0.07795 0.5976 0.0
H277 H 0.6666 0.06603 0.65707 0.0
H278 H 0.64645 0.0515 0.62746 0.0
H279 H 0.68407 0.06323 0.56786 0.0
C280 C 0.76259 0.85435 0.30343 0.0
C281 C 0.77284 0.8494 0.28292 0.0
C282 C 0.76764 0.81827 0.2943 0.0
C283 C 0.77534 0.83146 0.27838 0.0
C284 C 0.75739 0.82328 0.31476 0.0
C285 C 0.75489 0.84117 0.31927 0.0
U286 U 0.77038 0.90423 0.29019 0.0
O287 O 0.75148 0.92602 0.29239 0.0
O288 O 0.77513 0.92565 0.31647 0.0
C289 C 0.76016 0.93347 0.31081 0.0
C290 C 0.75985 0.87311 0.3088 0.0
C291 C 0.74929 0.93954 0.33189 0.0
C292 C 0.74102 0.93885 0.37597 0.0
C293 C 0.75009 0.93158 0.35591 0.0
C294 C 0.72978 0.96174 0.34821 0.0
C295 C 0.731 0.95414 0.37232 0.0
C296 C 0.73886 0.95452 0.32822 0.0
C297 C 0.80097 0.91955 0.2351 0.0
C298 C 0.80592 0.94995 0.22027 0.0
C299 C 0.82407 0.92701 0.20448 0.0
C300 C 0.81453 0.91445 0.21917 0.0
C301 C 0.82108 0.94537 0.20612 0.0
C302 C 0.79639 0.93735 0.23509 0.0
C303 C 0.79161 0.90598 0.25095 0.0
O304 O 0.77392 0.88195 0.31687 0.0
O305 O 0.75066 0.88212 0.29216 0.0
O306 O 0.77411 0.90524 0.24938 0.0
O307 O 0.7974 0.90435 0.274 0.0
H308 H 0.77891 0.85939 0.27051 0.0
H309 H 0.7833 0.82785 0.26253 0.0
H310 H 0.75136 0.81331 0.32724 0.0
H311 H 0.74695 0.84473 0.33519 0.0
H312 H 0.74214 0.93281 0.39444 0.0
H313 H 0.75803 0.92002 0.35929 0.0
H314 H 0.72215 0.97354 0.34501 0.0
H315 H 0.73809 0.96092 0.30992 0.0
H316 H 0.80074 0.96307 0.21979 0.0
H317 H 0.83359 0.92197 0.19152 0.0
H318 H 0.81771 0.90062 0.21791 0.0
H319 H 0.7853 0.94148 0.24633 0.0
C320 C 0.59868 0.52058 0.5517 0.0
C321 C 0.59099 0.53736 0.55162 0.0
C322 C 0.5613 0.52386 0.54765 0.0
C323 C 0.57244 0.53896 0.54964 0.0
C324 C 0.56897 0.50717 0.54715 0.0
C325 C 0.58747 0.50555 0.54922 0.0
U326 U 0.64874 0.52913 0.53617 0.0
O327 O 0.67151 0.53255 0.56165 0.0
O328 O 0.67069 0.51033 0.53617 0.0
C329 C 0.67908 0.51802 0.55463 0.0
C330 C 0.61806 0.51823 0.55585 0.0
C331 C 0.68606 0.50616 0.57451 0.0
C332 C 0.68571 0.49342 0.61687 0.0
C333 C 0.67809 0.50429 0.59829 0.0
C334 C 0.70914 0.48607 0.58808 0.0
C335 C 0.70135 0.4843 0.61186 0.0
C336 C 0.70158 0.49689 0.56962 0.0
C337 C 0.66178 0.56003 0.47992 0.0
C338 C 0.69217 0.56763 0.46661 0.0
C339 C 0.66716 0.57883 0.44297 0.0
C340 C 0.65534 0.57005 0.45962 0.0
C341 C 0.68566 0.57774 0.44634 0.0
C342 C 0.68029 0.55882 0.48332 0.0
C343 C 0.64886 0.55095 0.49703 0.0
O344 O 0.62653 0.50943 0.53888 0.0
O345 O 0.62737 0.5319 0.56389 0.0
O346 O 0.64877 0.55626 0.52018 0.0
O347 O 0.64754 0.53368 0.49545 0.0
H348 H 0.59924 0.54921 0.55351 0.0
H349 H 0.56675 0.55195 0.5501 0.0
H350 H 0.56058 0.49537 0.54569 0.0
H351 H 0.59302 0.49248 0.54937 0.0
H352 H 0.67949 0.49216 0.63512 0.0
H353 H 0.66609 0.51129 0.60252 0.0
H354 H 0.72118 0.47912 0.58385 0.0
H355 H 0.70798 0.49816 0.55148 0.0
H356 H 0.70641 0.56663 0.46948 0.0
H357 H 0.66189 0.58654 0.42747 0.0
H358 H 0.64111 0.57111 0.45666 0.0
H359 H 0.68551 0.5511 0.49886 0.0
C360 C 0.78047 0.35526 0.80197 0.0
C361 C 0.76972 0.34947 0.78235 0.0
C362 C 0.78087 0.31925 0.78743 0.0
C363 C 0.76945 0.33165 0.77574 0.0
C364 C 0.78973 0.32505 0.80922 0.0
C365 C 0.78995 0.3428 0.81589 0.0
U366 U 0.77233 0.40464 0.78856 0.0
O367 O 0.7669 0.42599 0.81435 0.0
O368 O 0.79124 0.42733 0.79148 0.0
C369 C 0.78211 0.43445 0.80941 0.0
C370 C 0.78212 0.37413 0.80813 0.0
C371 C 0.79253 0.44094 0.83094 0.0
C372 C 0.80013 0.44031 0.8752 0.0
C373 C 0.79112 0.4329 0.85489 0.0
C374 C 0.81247 0.46356 0.84784 0.0
C375 C 0.81072 0.45581 0.87186 0.0
C376 C 0.80344 0.4562 0.82761 0.0
C377 C 0.74566 0.4178 0.72906 0.0
C378 C 0.74639 0.4459 0.70589 0.0
C379 C 0.72501 0.42322 0.69499 0.0
C380 C 0.73123 0.41233 0.71445 0.0
C381 C 0.73376 0.43952 0.68832 0.0
C382 C 0.75267 0.435 0.72541 0.0
C383 C 0.75341 0.40512 0.7472 0.0
O384 O 0.79221 0.38394 0.79288 0.0
O385 O 0.76736 0.38187 0.81446 0.0
O386 O 0.74619 0.40406 0.76958 0.0
O387 O 0.77092 0.40461 0.74761 0.0
H388 H 0.76147 0.35873 0.77215 0.0
H389 H 0.75988 0.32797 0.76174 0.0
H390 H 0.79653 0.316 0.82161 0.0
H391 H 0.79763 0.3468 0.832 0.0
H392 H 0.7986 0.43416 0.8936 0.0
H393 H 0.78282 0.4211 0.85799 0.0
H394 H 0.82054 0.47552 0.84488 0.0
H395 H 0.8047 0.46266 0.80936 0.0
H396 H 0.75153 0.45932 0.70523 0.0
H397 H 0.71327 0.41855 0.68529 0.0
H398 H 0.72486 0.39947 0.71785 0.0
H399 H 0.7631 0.43998 0.73752 0.0
C400 C 0.8588 0.5097 0.99613 0.0
C401 C 0.86834 0.50887 0.97359 0.0
C402 C 0.84437 0.49088 0.95571 0.0
C403 C 0.86115 0.49955 0.9535 0.0
C404 C 0.83507 0.49141 0.97843 0.0
C405 C 0.84222 0.50075 0.99843 0.0
U406 U 0.89588 0.53117 0.0365 0.0
O407 O 0.89668 0.55738 0.05329 0.0
O408 O 0.89691 0.53352 0.07744 0.0
C409 C 0.89611 0.55084 0.07628 0.0
C410 C 0.86538 0.52034 1.01715 0.0
C411 C 0.88338 0.55885 0.09349 0.0
C412 C 0.85473 0.57182 0.10248 0.0
C413 C 0.86617 0.56358 0.08588 0.0
C414 C 0.87745 0.57047 0.13452 0.0
C415 C 0.86032 0.57537 0.12693 0.0
C416 C 0.88886 0.56231 0.11795 0.0
C417 C 0.94563 0.5245 1.01948 0.0
C418 C 0.97207 0.52634 0.04583 0.0
C419 C 0.97532 0.52558 1.0009 0.0
C420 C 0.95674 0.52473 0.99836 0.0
C421 C 0.98314 0.5262 1.02464 0.0
C422 C 0.95342 0.52552 0.04328 0.0
C423 C 0.92614 0.52217 1.01602 0.0
O424 O 0.87349 0.51169 0.03525 0.0
O425 O 0.87322 0.53564 1.01128 0.0
O426 O 0.91745 0.53628 1.00891 0.0
O427 O 0.9175 0.51233 0.03294 0.0
H428 H 0.88119 0.51564 0.97139 0.0
H429 H 0.86851 0.49931 0.93611 0.0
H430 H 0.82211 0.48484 0.98051 0.0
H431 H 0.83464 0.50122 1.01563 0.0
H432 H 0.84157 0.57549 0.09628 0.0
H433 H 0.86164 0.56103 0.0671 0.0
H434 H 0.88201 0.57308 0.15327 0.0
H435 H 0.90207 0.55881 0.12419 0.0
H436 H 0.97787 0.52677 0.06431 0.0
H437 H 0.98362 0.52542 0.98434 0.0
H438 H 0.95104 0.52391 0.97985 0.0
H439 H 0.94513 0.52536 0.05987 0.0
C440 C 0.78256 0.70735 0.26902 0.0
C441 C 0.76738 0.71269 0.28196 0.0
C442 C 0.77751 0.74349 0.27777 0.0
C443 C 0.76486 0.73065 0.28624 0.0
C444 C 0.79274 0.73812 0.26507 0.0
C445 C 0.79522 0.7202 0.26071 0.0
U446 U 0.77517 0.65741 0.28244 0.0
O447 O 0.77098 0.63578 0.25631 0.0
O448 O 0.79436 0.63585 0.2809 0.0
C449 C 0.78603 0.62823 0.26232 0.0
C450 C 0.78539 0.68857 0.26369 0.0
C451 C 0.79733 0.62234 0.24155 0.0
C452 C 0.80609 0.62277 0.19764 0.0
C453 C 0.79612 0.62964 0.21717 0.0
C454 C 0.81886 0.60151 0.22659 0.0
C455 C 0.81745 0.60857 0.20219 0.0
C456 C 0.80889 0.60831 0.24604 0.0
C457 C 0.74486 0.64256 0.33861 0.0
C458 C 0.74423 0.6152 0.36375 0.0
C459 C 0.71939 0.63494 0.36541 0.0
C460 C 0.72802 0.64646 0.34815 0.0
C461 C 0.72746 0.61929 0.3735 0.0
C462 C 0.75287 0.62673 0.34637 0.0
C463 C 0.754 0.65571 0.32173 0.0
O464 O 0.79473 0.6797 0.28029 0.0
O465 O 0.77144 0.67954 0.25561 0.0
O466 O 0.74808 0.6568 0.29868 0.0
O467 O 0.77149 0.65694 0.3232 0.0
H468 H 0.75747 0.70299 0.28863 0.0
H469 H 0.75305 0.73456 0.29613 0.0
H470 H 0.80265 0.74783 0.25842 0.0
H471 H 0.80703 0.71636 0.25073 0.0
H472 H 0.80481 0.62839 0.17894 0.0
H473 H 0.78731 0.64045 0.21314 0.0
H474 H 0.82754 0.59056 0.23049 0.0
H475 H 0.80998 0.6024 0.26461 0.0
H476 H 0.75067 0.60318 0.36979 0.0
H477 H 0.70648 0.63834 0.37272 0.0
H478 H 0.72163 0.6586 0.34251 0.0
H479 H 0.76586 0.62342 0.33928 0.0
C480 C 0.36006 0.50969 0.58082 0.0
C481 C 0.36358 0.49154 0.58321 0.0
C482 C 0.34532 0.48891 0.62086 0.0
C483 C 0.35625 0.48126 0.60304 0.0
C484 C 0.34213 0.50708 0.61885 0.0
C485 C 0.34937 0.51735 0.59897 0.0
U486 U 0.39659 0.53045 0.53706 0.0
O487 O 0.3967 0.5334 0.49599 0.0
O488 O 0.39822 0.55691 0.51901 0.0
C489 C 0.39676 0.55075 0.49637 0.0
C490 C 0.36632 0.52061 0.55889 0.0
C491 C 0.38401 0.55961 0.4795 0.0
C492 C 0.35569 0.57376 0.47144 0.0
C493 C 0.36706 0.56452 0.48767 0.0
C494 C 0.3779 0.57291 0.43862 0.0
C495 C 0.36111 0.57814 0.44685 0.0
C496 C 0.38923 0.56374 0.45481 0.0
C497 C 0.44628 0.5211 0.55186 0.0
C498 C 0.4732 0.53795 0.5396 0.0
C499 C 0.4755 0.50828 0.55718 0.0
C500 C 0.45691 0.50693 0.5593 0.0
C501 C 0.48381 0.52385 0.54756 0.0
C502 C 0.45454 0.53659 0.5417 0.0
C503 C 0.42681 0.51959 0.55628 0.0
O504 O 0.37492 0.5355 0.56367 0.0
O505 O 0.37331 0.51222 0.54021 0.0
O506 O 0.41744 0.51046 0.54014 0.0
O507 O 0.4189 0.53395 0.56322 0.0
H508 H 0.37173 0.4852 0.56957 0.0
H509 H 0.35887 0.46726 0.60428 0.0
H510 H 0.33374 0.51323 0.63241 0.0
H511 H 0.34634 0.53125 0.59751 0.0
H512 H 0.3428 0.57771 0.47814 0.0
H513 H 0.36273 0.56143 0.50663 0.0
H514 H 0.38232 0.57618 0.41976 0.0
H515 H 0.40224 0.56008 0.44814 0.0
H516 H 0.47939 0.55009 0.53218 0.0
H517 H 0.48345 0.49728 0.56346 0.0
H518 H 0.45084 0.49489 0.56724 0.0
H519 H 0.44661 0.5477 0.53582 0.0
C520 C 0.26413 0.70549 0.27194 0.0
C521 C 0.27503 0.71147 0.29145 0.0
C522 C 0.26849 0.74203 0.28012 0.0
C523 C 0.27719 0.72964 0.29551 0.0
C524 C 0.25759 0.736 0.26068 0.0
C525 C 0.25544 0.71788 0.25664 0.0
U526 U 0.27133 0.65596 0.28674 0.0
O527 O 0.25208 0.6335 0.28451 0.0
O528 O 0.27605 0.63446 0.2609 0.0
C529 C 0.26077 0.62626 0.26627 0.0
C530 C 0.26163 0.68649 0.26707 0.0
C531 C 0.24986 0.62003 0.24503 0.0
C532 C 0.24199 0.62037 0.20086 0.0
C533 C 0.25183 0.62737 0.22072 0.0
C534 C 0.22785 0.59885 0.22931 0.0
C535 C 0.22997 0.606 0.20501 0.0
C536 C 0.23772 0.60578 0.2491 0.0
C537 C 0.29974 0.64226 0.34432 0.0
C538 C 0.31814 0.61665 0.35237 0.0
C539 C 0.30854 0.63417 0.3868 0.0
C540 C 0.29945 0.64524 0.37007 0.0
C541 C 0.31817 0.61995 0.37806 0.0
C542 C 0.30897 0.62769 0.33562 0.0
C543 C 0.2913 0.65518 0.32709 0.0
O544 O 0.27591 0.67825 0.25998 0.0
O545 O 0.25193 0.67725 0.28348 0.0
O546 O 0.27379 0.65566 0.3278 0.0
O547 O 0.29783 0.65672 0.30431 0.0
H548 H 0.28184 0.7021 0.30346 0.0
H549 H 0.28566 0.73405 0.31059 0.0
H550 H 0.25077 0.74534 0.24863 0.0
H551 H 0.24698 0.71353 0.2415 0.0
H552 H 0.24381 0.62607 0.18223 0.0
H553 H 0.26109 0.63837 0.21702 0.0
H554 H 0.21867 0.58778 0.23291 0.0
H555 H 0.23602 0.59984 0.26761 0.0
H556 H 0.32551 0.60574 0.34527 0.0
H557 H 0.30841 0.63695 0.40652 0.0
H558 H 0.29248 0.65639 0.37722 0.0
H559 H 0.30941 0.62506 0.31586 0.0
C560 C 0.09816 0.52308 1.02211 0.0
C561 C 0.08922 0.51679 0.04388 0.0
C562 C 0.06067 0.52545 1.02641 0.0
C563 C 0.07064 0.51796 0.04598 0.0
C564 C 0.06959 0.53215 1.00498 0.0
C565 C 0.08813 0.53093 1.00283 0.0
U566 U 0.14851 0.52879 0.03809 0.0
O567 O 0.16963 0.50909 0.03661 0.0
O568 O 0.17142 0.53307 1.0127 0.0
C569 C 0.17832 0.51772 1.01855 0.0
C570 C 0.1175 0.52033 1.01811 0.0
C571 C 0.18439 0.50708 0.99756 0.0
C572 C 0.18173 0.49694 0.9549 0.0
C573 C 0.17492 0.50624 0.97497 0.0
C574 C 0.20727 0.48885 0.97995 0.0
C575 C 0.19805 0.48832 0.95719 0.0
C576 C 0.2005 0.49816 0.99993 0.0
C577 C 0.16265 0.5562 0.09532 0.0
C578 C 0.19194 0.56918 0.10452 0.0
C579 C 0.16899 0.56771 0.13644 0.0
C580 C 0.15723 0.55957 0.11978 0.0
C581 C 0.1864 0.57267 0.12895 0.0
C582 C 0.18015 0.56097 0.08781 0.0
C583 C 0.14954 0.54832 0.078 0.0
O584 O 0.12722 0.53424 1.01076 0.0
O585 O 0.12567 0.51018 0.03453 0.0
O586 O 0.14766 0.531 0.07905 0.0
O587 O 0.14945 0.55494 0.05505 0.0
H588 H 0.0965 0.51061 0.05906 0.0
H589 H 0.06398 0.51269 0.06263 0.0
H590 H 0.06212 0.53792 0.98965 0.0
H591 H 0.09461 0.53575 0.98578 0.0
H592 H 0.17445 0.4967 0.93747 0.0
H593 H 0.16244 0.51299 0.97272 0.0
H594 H 0.21988 0.48232 0.98208 0.0
H595 H 0.20802 0.49864 1.01715 0.0
H596 H 0.20532 0.57291 0.09839 0.0
H597 H 0.16446 0.57027 0.15518 0.0
H598 H 0.1438 0.55604 0.12593 0.0
H599 H 0.18463 0.55849 0.06903 0.0
C600 C 0.26399 0.35372 0.80682 0.0
C601 C 0.27382 0.34878 0.7859 0.0
C602 C 0.26919 0.31766 0.79773 0.0
C603 C 0.2764 0.33085 0.78138 0.0
C604 C 0.25941 0.32264 0.81863 0.0
C605 C 0.25683 0.34053 0.82313 0.0
U606 U 0.26948 0.40352 0.79126 0.0
O607 O 0.24974 0.42452 0.79382 0.0
O608 O 0.27423 0.42577 0.81617 0.0
C609 C 0.25874 0.43282 0.81119 0.0
C610 C 0.26096 0.37246 0.81193 0.0
C611 C 0.24833 0.43896 0.83265 0.0
C612 C 0.24078 0.43835 0.87697 0.0
C613 C 0.24962 0.43112 0.85668 0.0
C614 C 0.22883 0.46099 0.84942 0.0
C615 C 0.23049 0.45348 0.87352 0.0
C616 C 0.23768 0.4538 0.8292 0.0
C617 C 0.29639 0.41851 0.73221 0.0
C618 C 0.30888 0.44789 0.72208 0.0
C619 C 0.30731 0.42577 0.69028 0.0
C620 C 0.29953 0.41367 0.70753 0.0
C621 C 0.31214 0.44294 0.69743 0.0
C622 C 0.30103 0.43576 0.73938 0.0
C623 C 0.28868 0.40514 0.75005 0.0
O624 O 0.2751 0.38192 0.81829 0.0
O625 O 0.25065 0.38083 0.79598 0.0
O626 O 0.2712 0.40333 0.75017 0.0
O627 O 0.29565 0.40461 0.77255 0.0
H628 H 0.27944 0.35877 0.77309 0.0
H629 H 0.284 0.32725 0.76517 0.0
H630 H 0.25375 0.31267 0.83144 0.0
H631 H 0.24921 0.34407 0.83935 0.0
H632 H 0.24224 0.43239 0.89544 0.0
H633 H 0.25774 0.41965 0.85986 0.0
H634 H 0.22099 0.47266 0.84637 0.0
H635 H 0.23653 0.4601 0.81089 0.0
H636 H 0.31246 0.46111 0.7279 0.0
H637 H 0.30968 0.42173 0.67135 0.0
H638 H 0.29606 0.40045 0.70163 0.0
H639 H 0.29868 0.43979 0.75832 0.0
C640 C 0.21146 0.07971 0.91735 0.0
C641 C 0.19605 0.08692 0.92815 0.0
C642 C 0.20075 0.11416 0.90275 0.0
C643 C 0.217 0.1076 0.89361 0.0
N644 N 0.23929 0.08525 0.89485 0.0
N645 N 0.17774 0.11211 0.9346 0.0
C646 C 0.22277 0.09065 0.90163 0.0
C647 C 0.19118 0.10447 0.92181 0.0
N648 N 0.21498 0.06225 0.92148 0.0
N649 N 0.19413 0.12941 0.89261 0.0
H650 H 0.17045 0.10549 0.94876 0.0
H651 H 0.17486 0.12546 0.93278 0.0
H652 H 0.20069 0.13687 0.87854 0.0
H653 H 0.18143 0.13384 0.8965 0.0
H654 H 0.22485 0.0557 0.91202 0.0
H655 H 0.20709 0.0539 0.93301 0.0
H656 H 0.2451 0.07392 0.90226 0.0
H657 H 0.24786 0.09283 0.88324 0.0
C658 C 0.21548 0.97049 0.18227 0.0
C659 C 0.21988 0.9528 0.1773 0.0
C660 C 0.20732 0.9561 0.13513 0.0
C661 C 0.2046 0.97427 0.13923 0.0
N662 N 0.20812 0.99949 0.16544 0.0
N663 N 0.22257 0.9295 0.14781 0.0
C664 C 0.2092 0.98167 0.1625 0.0
C665 C 0.21646 0.94578 0.1534 0.0
N666 N 0.21681 0.97644 0.20607 0.0
N667 N 0.20078 0.9486 0.11398 0.0
H668 H 0.2294 0.92155 0.16059 0.0
H669 H 0.22226 0.92448 0.12992 0.0
H670 H 0.19407 0.95576 0.10015 0.0
H671 H 0.20058 0.93505 0.11114 0.0
H672 H 0.21202 0.98853 0.2115 0.0
H673 H 0.2214 0.96865 0.22096 0.0
H674 H 0.21318 1.006 0.18087 0.0
H675 H 0.20334 1.00805 0.15155 0.0
C676 C 0.33765 0.95697 0.40394 0.0
C677 C 0.32155 0.96342 0.39365 0.0
C678 C 0.32274 0.98814 0.42239 0.0
C679 C 0.33795 0.98086 0.43415 0.0
N680 N 0.35842 0.95699 0.43868 0.0
N681 N 0.297 0.98325 0.39591 0.0
C682 C 0.34502 0.96489 0.42561 0.0
C683 C 0.3136 0.97848 0.40369 0.0
N684 N 0.34618 0.94364 0.39254 0.0
N685 N 0.31738 1.0046 0.42851 0.0
H686 H 0.28983 0.9765 0.38232 0.0
H687 H 0.28966 0.99288 0.40446 0.0
H688 H 0.32376 1.01214 0.44202 0.0
H689 H 0.30764 1.01144 0.4187 0.0
H690 H 0.35892 0.93965 0.39742 0.0
H691 H 0.3411 0.93745 0.37681 0.0
H692 H 0.36284 0.94439 0.43507 0.0
H693 H 0.3642 0.96245 0.45449 0.0
C694 C 0.32052 0.09372 0.66313 0.0
C695 C 0.32917 0.10165 0.68374 0.0
C696 C 0.35822 0.09272 0.66775 0.0
C697 C 0.3497 0.08586 0.64628 0.0
N698 N 0.32319 0.0825 0.62131 0.0
N699 N 0.35634 0.11161 0.70346 0.0
C700 C 0.33095 0.08713 0.64333 0.0
C701 C 0.34807 0.10202 0.68537 0.0
N702 N 0.30233 0.09194 0.6629 0.0
N703 N 0.3759 0.08974 0.67184 0.0
H704 H 0.34934 0.11853 0.71673 0.0
H705 H 0.37007 0.11402 0.70403 0.0
H706 H 0.3838 0.08294 0.65948 0.0
H707 H 0.3824 0.09265 0.68844 0.0
H708 H 0.2953 0.0845 0.64994 0.0
H709 H 0.29423 0.09682 0.67684 0.0
H710 H 0.30993 0.08487 0.61693 0.0
H711 H 0.33039 0.07758 0.60647 0.0
C712 C 0.82793 0.97698 0.18807 0.0
C713 C 0.83245 0.95895 0.19086 0.0
C714 C 0.85276 0.96292 0.15503 0.0
C715 C 0.84467 0.97916 0.14865 0.0
N716 N 0.82494 1.00235 0.16009 0.0
N717 N 0.8594 0.94248 0.1889 0.0
C718 C 0.83235 0.98642 0.16546 0.0
C719 C 0.84793 0.95393 0.17778 0.0
N720 N 0.82281 0.98599 0.20844 0.0
N721 N 0.86465 0.95574 0.13914 0.0
H722 H 0.85751 0.93789 0.20731 0.0
H723 H 0.87176 0.93958 0.1813 0.0
H724 H 0.86858 0.96188 0.12227 0.0
H725 H 0.86948 0.94305 0.14192 0.0
H726 H 0.82077 0.99956 0.20802 0.0
H727 H 0.82362 0.98037 0.22641 0.0
H728 H 0.81452 1.00722 0.17059 0.0
H729 H 0.82844 1.01013 0.14437 0.0
C730 C 0.84983 0.08396 0.90248 0.0
C731 C 0.8469 0.08549 0.92851 0.0
C732 C 0.8224 0.10565 0.91973 0.0
C733 C 0.82696 0.10596 0.89398 0.0
N734 N 0.84619 0.09681 0.86089 0.0
N735 N 0.83158 0.09907 0.9623 0.0
C736 C 0.84091 0.09538 0.88531 0.0
C737 C 0.83339 0.09658 0.93726 0.0
N738 N 0.86094 0.07134 0.89418 0.0
N739 N 0.80735 0.1138 0.92733 0.0
H740 H 0.83923 0.09255 0.97573 0.0
H741 H 0.82343 0.10855 0.96972 0.0
H742 H 0.79902 0.12054 0.91497 0.0
H743 H 0.80225 0.11257 0.9454 0.0
H744 H 0.86225 0.0683 0.87544 0.0
H745 H 0.86765 0.06275 0.90624 0.0
H746 H 0.8576 0.09105 0.85407 0.0
H747 H 0.8399 0.10487 0.84768 0.0
C748 C 0.71436 0.07448 0.65666 0.0
C749 C 0.69863 0.08248 0.64763 0.0
C750 C 0.70301 0.10658 0.67703 0.0
C751 C 0.71925 0.09908 0.6851 0.0
N752 N 0.74225 0.07796 0.67913 0.0
N753 N 0.67992 0.10787 0.64541 0.0
C754 C 0.72549 0.08364 0.67384 0.0
C755 C 0.69355 0.09908 0.65668 0.0
N756 N 0.71829 0.0578 0.64962 0.0
N757 N 0.69624 0.12044 0.68947 0.0
H758 H 0.67274 0.1028 0.63043 0.0
H759 H 0.67677 0.12081 0.64935 0.0
H760 H 0.70279 0.12636 0.70436 0.0
H761 H 0.68351 0.12518 0.68637 0.0
H762 H 0.7284 0.05044 0.65774 0.0
H763 H 0.71056 0.05071 0.63699 0.0
H764 H 0.74832 0.06792 0.66962 0.0
H765 H 0.75078 0.08437 0.69154 0.0
C766 C 0.70675 0.95556 0.40502 0.0
C767 C 0.72261 0.96287 0.39391 0.0
C768 C 0.72139 0.98817 0.42157 0.0
C769 C 0.7065 0.98009 0.4342 0.0
N770 N 0.68642 0.95494 0.44041 0.0
N771 N 0.7468 0.98453 0.39433 0.0
C772 C 0.69954 0.96346 0.42658 0.0
C773 C 0.73042 0.97875 0.40295 0.0
N774 N 0.6983 0.94139 0.39452 0.0
N775 N 0.72658 1.00512 0.42684 0.0
H776 H 0.75388 0.97799 0.38076 0.0
H777 H 0.75409 0.99488 0.40215 0.0
H778 H 0.72029 1.01248 0.44029 0.0
H779 H 0.73605 1.01244 0.4164 0.0
H780 H 0.6857 0.93662 0.40001 0.0
H781 H 0.70326 0.9352 0.37891 0.0
H782 H 0.68214 0.94197 0.43751 0.0
H783 H 0.68073 0.96038 0.45612 0.0
C784 C 0.71779 0.61294 0.41791 0.0
C785 C 0.71838 0.60756 0.39275 0.0
C786 C 0.70054 0.58084 0.40422 0.0
C787 C 0.69805 0.58739 0.42852 0.0
N788 N 0.7027 0.61056 0.45799 0.0
N789 N 0.70898 0.5873 0.36111 0.0
C790 C 0.70635 0.60363 0.4353 0.0
C791 C 0.7095 0.59167 0.38569 0.0
N792 N 0.72846 0.62676 0.42527 0.0
N793 N 0.69461 0.56411 0.39903 0.0
H794 H 0.71553 0.59477 0.34706 0.0
H795 H 0.70103 0.57702 0.35434 0.0
H796 H 0.68798 0.55586 0.41215 0.0
H797 H 0.69759 0.55783 0.38255 0.0
H798 H 0.73006 0.63019 0.44382 0.0
H799 H 0.73701 0.63385 0.41304 0.0
H800 H 0.70662 0.6233 0.46289 0.0
H801 H 0.69458 0.60408 0.47136 0.0
C802 C 0.70572 0.45439 0.63217 0.0
C803 C 0.7099 0.47276 0.63115 0.0
C804 C 0.73512 0.46756 0.65927 0.0
C805 C 0.72842 0.45012 0.66475 0.0
N806 N 0.71759 0.42561 0.64079 0.0
N807 N 0.72863 0.49714 0.64443 0.0
C808 C 0.71643 0.44292 0.64689 0.0
C809 C 0.72457 0.47945 0.64501 0.0
N810 N 0.69152 0.44779 0.61911 0.0
N811 N 0.75274 0.47159 0.66289 0.0
H812 H 0.72142 0.50628 0.6339 0.0
H813 H 0.73825 0.50275 0.65606 0.0
H814 H 0.76182 0.46178 0.66732 0.0
H815 H 0.7587 0.48366 0.65731 0.0
H816 H 0.6869 0.43472 0.62127 0.0
H817 H 0.68354 0.45571 0.60775 0.0
H818 H 0.71038 0.41998 0.62628 0.0
H819 H 0.72775 0.41772 0.64778 0.0
C820 C 0.8216 0.48986 0.92125 0.0
C821 C 0.83605 0.48189 0.93396 0.0
C822 C 0.83476 0.45733 0.90484 0.0
C823 C 0.81932 0.46453 0.89362 0.0
N824 N 0.79613 0.486 0.89394 0.0
N825 N 0.85482 0.45683 0.94039 0.0
C826 C 0.81221 0.48035 0.90262 0.0
C827 C 0.84222 0.46528 0.92644 0.0
N828 N 0.81721 0.50679 0.92643 0.0
N829 N 0.84263 0.44322 0.89439 0.0
H830 H 0.86066 0.46229 0.95617 0.0
H831 H 0.85847 0.44386 0.93754 0.0
H832 H 0.83748 0.43699 0.87874 0.0
H833 H 0.85498 0.43855 0.89997 0.0
H834 H 0.80814 0.51403 0.91592 0.0
H835 H 0.8238 0.51423 0.93986 0.0
H836 H 0.7893 0.49631 0.90171 0.0
H837 H 0.7888 0.47938 0.88038 0.0
C838 C 0.85233 0.60214 0.15113 0.0
C839 C 0.84842 0.58437 0.14472 0.0
C840 C 0.82243 0.58375 0.17279 0.0
C841 C 0.82764 0.60069 0.18143 0.0
N842 N 0.84881 0.62524 0.18109 0.0
N843 N 0.8311 0.55737 0.15167 0.0
C844 C 0.84289 0.60973 0.17112 0.0
C845 C 0.83377 0.57494 0.15607 0.0
N846 N 0.86479 0.6119 0.13767 0.0
N847 N 0.8064 0.57625 0.18012 0.0
H848 H 0.83903 0.55046 0.13949 0.0
H849 H 0.82194 0.54929 0.16155 0.0
H850 H 0.79773 0.58233 0.19225 0.0
H851 H 0.80096 0.56482 0.17247 0.0
H852 H 0.86694 0.62543 0.13965 0.0
H853 H 0.87191 0.60679 0.12289 0.0
H854 H 0.86096 0.63144 0.17634 0.0
H855 H 0.84224 0.63127 0.19563 0.0
C856 C 0.34718 0.47108 0.66123 0.0
C857 C 0.33673 0.47774 0.64117 0.0
C858 C 0.30984 0.46382 0.6603 0.0
C859 C 0.32056 0.45564 0.67884 0.0
N860 N 0.34971 0.44957 0.6954 0.0
N861 N 0.30856 0.47841 0.61951 0.0
C862 C 0.33932 0.45879 0.67894 0.0
C863 C 0.31815 0.47361 0.64018 0.0
N864 N 0.36449 0.47689 0.66374 0.0
N865 N 0.29166 0.46255 0.66223 0.0
H866 H 0.31414 0.48551 0.60432 0.0
H867 H 0.29546 0.47411 0.61642 0.0
H868 H 0.28512 0.45541 0.67663 0.0
H869 H 0.28308 0.46978 0.65089 0.0
H870 H 0.37225 0.47402 0.67935 0.0
H871 H 0.37067 0.48587 0.65115 0.0
H872 H 0.36359 0.44972 0.69455 0.0
H873 H 0.34444 0.44067 0.70887 0.0
C874 C 0.32329 0.59164 0.40285 0.0
C875 C 0.32903 0.6091 0.39576 0.0
C876 C 0.35438 0.60688 0.42459 0.0
C877 C 0.34962 0.58888 0.42986 0.0
N878 N 0.33102 0.56327 0.42151 0.0
N879 N 0.35164 0.63236 0.39658 0.0
C880 C 0.33444 0.58102 0.41833 0.0
C881 C 0.34502 0.61646 0.40575 0.0
N882 N 0.30692 0.5854 0.3954 0.0
N883 N 0.36752 0.615 0.43813 0.0
H884 H 0.34526 0.63975 0.3827 0.0
H885 H 0.36421 0.63749 0.40109 0.0
H886 H 0.37465 0.60846 0.45213 0.0
H887 H 0.37028 0.62856 0.4371 0.0
H888 H 0.30111 0.57355 0.40211 0.0
H889 H 0.29847 0.59275 0.38398 0.0
H890 H 0.32137 0.55636 0.41146 0.0
H891 H 0.33878 0.55513 0.43287 0.0
C892 C 0.22421 0.58121 0.1754 0.0
C893 C 0.21973 0.59812 0.18395 0.0
C894 C 0.19555 0.5995 0.15311 0.0
C895 C 0.19862 0.58173 0.14681 0.0
N896 N 0.21452 0.55481 0.15404 0.0
N897 N 0.1998 0.62261 0.18317 0.0
C898 C 0.21266 0.57237 0.15843 0.0
C899 C 0.20508 0.60712 0.17331 0.0
N900 N 0.23977 0.57378 0.18306 0.0
N901 N 0.18377 0.60922 0.13937 0.0
H902 H 0.20644 0.62864 0.19788 0.0
H903 H 0.18803 0.62875 0.17814 0.0
H904 H 0.17661 0.60409 0.12443 0.0
H905 H 0.1823 0.62275 0.14129 0.0
H906 H 0.24473 0.56236 0.17553 0.0
H907 H 0.24858 0.5799 0.19538 0.0
H908 H 0.22314 0.54675 0.16409 0.0
H909 H 0.20642 0.54788 0.14165 0.0
C910 C 0.19924 0.46264 0.92807 0.0
C911 C 0.20604 0.47939 0.93546 0.0
C912 C 0.22989 0.47811 0.90409 0.0
C913 C 0.22219 0.46213 0.89525 0.0
N914 N 0.19812 0.44037 0.89629 0.0
N915 N 0.2259 0.50455 0.92778 0.0
C916 C 0.20646 0.4547 0.90656 0.0
C917 C 0.22083 0.48754 0.92269 0.0
N918 N 0.18625 0.45407 0.94208 0.0
N919 N 0.24617 0.48401 0.89526 0.0
H920 H 0.21959 0.51192 0.94122 0.0
H921 H 0.23527 0.51191 0.91723 0.0
H922 H 0.25325 0.47748 0.88169 0.0
H923 H 0.2534 0.49447 0.90292 0.0
H924 H 0.18209 0.44103 0.93936 0.0
H925 H 0.18055 0.45953 0.95777 0.0
H926 H 0.18559 0.4355 0.90192 0.0
H927 H 0.20311 0.43413 0.88074 0.0
C928 C 1.01392 0.04002 0.03989 0.0
C929 C 1.00372 1.02439 0.04583 0.0
C930 C 0.03129 1.00772 0.04981 0.0
C931 C 0.0415 1.0237 0.04672 0.0
N932 N 0.04273 0.05543 0.04133 0.0
N933 N 1.00252 0.99374 0.05945 0.0
C934 C 0.03287 0.03996 0.04228 0.0
C935 C 1.01236 1.00831 0.0515 0.0
N936 N 1.00549 0.05482 0.03151 0.0
N937 N 0.0397 0.99191 0.05054 0.0
H938 H 0.98863 0.99354 0.06066 0.0
H939 H 1.00815 0.98228 0.0667 0.0
H940 H 0.05353 0.99096 0.04935 0.0
H941 H 0.03297 0.97971 0.05009 0.0
H942 H 1.01219 0.06608 1.02436 0.0
H943 H 0.99165 0.05534 0.02976 0.0
H944 H 0.03713 0.06787 0.04098 0.0
H945 H 0.05661 0.05589 0.0427 0.0
C946 C 0.2819 0.77191 0.26781 0.0
C947 C 0.27078 0.7614 0.28416 0.0
C948 C 0.26439 0.78765 0.30832 0.0
C949 C 0.27432 0.79836 0.29078 0.0
N950 N 0.29045 0.80127 0.25189 0.0
N951 N 0.24935 0.75945 0.31777 0.0
C952 C 0.2825 0.79064 0.26996 0.0
C953 C 0.26146 0.76933 0.30385 0.0
N954 N 0.29232 0.76391 0.25072 0.0
N955 N 0.25818 0.79492 0.32963 0.0
H956 H 0.24697 0.74599 0.31523 0.0
H957 H 0.24065 0.76482 0.33051 0.0
H958 H 0.2598 0.80832 0.33335 0.0
H959 H 0.25264 0.7875 0.3445 0.0
H960 H 0.30214 0.77058 0.2401 0.0
H961 H 0.2922 0.75025 0.24855 0.0
H962 H 0.29491 0.79668 0.23491 0.0
H963 H 0.29133 0.81501 0.25298 0.0
C964 C 0.5127 1.01062 0.52153 0.0
C965 C 0.50391 0.0263 0.52771 0.0
C966 C 0.53289 0.04072 0.5367 0.0
C967 C 0.5417 0.0257 0.52798 0.0
N968 N 0.5402 0.99717 0.50906 0.0
N969 N 0.50544 0.05696 0.53866 0.0
C970 C 0.53165 1.01084 0.51964 0.0
C971 C 0.51395 0.04154 0.53474 0.0
N972 N 0.50292 0.99537 0.5181 0.0
N973 N 0.54264 0.05405 0.54732 0.0
H974 H 0.4916 0.05797 0.53773 0.0
H975 H 0.51208 0.06904 0.54108 0.0
H976 H 0.55651 0.05395 0.54877 0.0
H977 H 0.53696 0.06448 0.55645 0.0
H978 H 0.50858 0.98307 0.51623 0.0
H979 H 0.48903 0.9947 0.51931 0.0
H980 H 0.53358 0.98695 0.49994 0.0
H981 H 0.55405 0.99668 0.50763 0.0
C982 C 0.26154 0.28989 0.77461 0.0
C983 C 0.27185 0.29854 0.79307 0.0
C984 C 0.28556 0.27038 0.80489 0.0
C985 C 0.27628 0.26204 0.78517 0.0
N986 N 0.25744 0.2642 0.74887 0.0
N987 N 0.29562 0.29785 0.82328 0.0
C988 C 0.26482 0.2719 0.76934 0.0
C989 C 0.28441 0.289 0.80754 0.0
N990 N 0.24819 0.2987 0.76267 0.0
N991 N 0.2951 0.2604 0.82151 0.0
H992 H 0.29511 0.31144 0.82579 0.0
H993 H 0.30635 0.29205 0.83232 0.0
H994 H 0.29643 0.24679 0.81998 0.0
H995 H 0.30053 0.26529 0.83789 0.0
H996 H 0.23888 0.29261 0.7511 0.0
H997 H 0.2455 0.31189 0.76583 0.0
H998 H 0.25064 0.27117 0.73502 0.0
H999 H 0.25929 0.251 0.74465 0.0
C1000 C 0.79451 0.28829 0.79033 0.0
C1001 C 0.78225 0.30009 0.77905 0.0
C1002 C 0.76656 0.27463 0.76093 0.0
C1003 C 0.77619 0.26301 0.77679 0.0
N1004 N 0.79987 0.25877 0.80663 0.0
N1005 N 0.76861 0.30256 0.73848 0.0
C1006 C 0.79037 0.26983 0.79146 0.0
C1007 C 0.77133 0.29294 0.75995 0.0
N1008 N 0.81128 0.29431 0.79607 0.0
N1009 N 0.75286 0.26829 0.74669 0.0
H1010 H 0.77569 0.3144 0.73472 0.0
H1011 H 0.76199 0.29747 0.72305 0.0
H1012 H 0.7491 0.25492 0.74653 0.0
H1013 H 0.74446 0.2766 0.73661 0.0
H1014 H 0.82139 0.28606 0.80216 0.0
H1015 H 0.81568 0.30715 0.79122 0.0
H1016 H 0.8091 0.26339 0.81961 0.0
H1017 H 0.79757 0.24511 0.80752 0.0
C1018 C 0.78269 0.78961 0.3046 0.0
C1019 C 0.77034 0.79916 0.28975 0.0
C1020 C 0.76361 0.7725 0.26593 0.0
C1021 C 0.77486 0.76264 0.28208 0.0
N1022 N 0.79319 0.76102 0.31891 0.0
N1023 N 0.74714 0.79933 0.25868 0.0
C1024 C 0.78387 0.77099 0.30202 0.0
C1025 C 0.76028 0.7905 0.27103 0.0
N1026 N 0.79366 0.79847 0.32064 0.0
N1027 N 0.75648 0.76477 0.24531 0.0
H1028 H 0.74447 0.81256 0.26168 0.0
H1029 H 0.73799 0.79326 0.24687 0.0
H1030 H 0.75836 0.75155 0.24121 0.0
H1031 H 0.74986 0.77172 0.23127 0.0
H1032 H 0.80427 0.79267 0.32999 0.0
H1033 H 0.79311 0.81206 0.32313 0.0
H1034 H 0.79841 0.76592 0.33541 0.0
H1035 H 0.79455 0.74741 0.31744 0.0
C1036 C 0.51315 0.52327 0.52434 0.0
C1037 C 0.5037 0.52547 0.54699 0.0
C1038 C 0.532 0.52674 0.57003 0.0
C1039 C 0.54149 0.52532 0.54724 0.0
N1040 N 0.54153 0.52533 0.5023 0.0
N1041 N 0.504 0.53277 0.59048 0.0
C1042 C 0.53217 0.52454 0.52424 0.0
C1043 C 0.51312 0.52826 0.56957 0.0
N1044 N 0.50395 0.51931 0.50311 0.0
N1045 N 0.54099 0.52599 0.59221 0.0
H1046 H 0.49017 0.53397 0.59085 0.0
H1047 H 0.51019 0.53682 0.60681 0.0
H1048 H 0.55484 0.52523 0.59334 0.0
H1049 H 0.53469 0.52482 0.60952 0.0
H1050 H 0.51003 0.51557 0.48667 0.0
H1051 H 0.49005 0.51856 0.50239 0.0
H1052 H 0.53558 0.52671 0.48484 0.0
H1053 H 0.55544 0.52605 0.50162 0.0
C1054 C 1.01183 0.50977 1.02355 0.0
C1055 C 1.00298 0.52585 1.02709 0.0
C1056 C 0.03191 0.54106 0.03386 0.0
C1057 C 0.04078 0.52544 0.02764 0.0
N1058 N 0.03941 0.49544 1.01359 0.0
N1059 N 1.00438 0.55728 0.03313 0.0
C1060 C 0.03079 0.5099 1.02176 0.0
C1061 C 1.01296 0.54164 0.03171 0.0
N1062 N 1.0021 0.49426 1.0225 0.0
N1063 N 0.0416 0.55523 0.04228 0.0
H1064 H 0.99054 0.55816 0.03201 0.0
H1065 H 1.01097 0.56955 0.03364 0.0
H1066 H 0.05548 0.55531 0.04377 0.0
H1067 H 0.03589 0.56634 0.04964 0.0
H1068 H 1.00779 0.48187 1.02264 0.0
H1069 H 0.98821 0.49365 1.0237 0.0
H1070 H 0.03285 0.48449 1.00619 0.0
H1071 H 0.05327 0.49489 1.0124 0.0
loop_
_geom_bond_atom_site_label_1
_geom_bond_atom_site_label_2
_geom_bond_distance
_geom_bond_site_symmetry_2
_ccdc_geom_bond_type
C0 C1 1.264 1_554 S
C0 C5 1.479 1_545 S
C0 C10 1.465 . S
C1 C0 1.264 1_556 S
C1 C3 1.339 . S
C1 H28 0.931 . S
C2 C3 1.395 1_554 S
C2 C4 1.320 1_545 S
C3 C1 1.339 . S
C3 C2 1.395 1_556 S
C3 H29 0.929 . S
C4 C2 1.320 1_565 S
C4 C5 1.405 . S
C4 H30 0.930 . S
C5 C0 1.479 1_565 S
C5 C4 1.405 . S
C5 H31 0.931 . S
U6 O7 2.454 1_545 S
U6 O8 2.458 1_545 S
U6 C9 2.984 1_545 S
U6 C10 2.847 . S
U6 C23 2.882 1_554 S
U6 O24 2.440 1_545 S
U6 O25 2.420 . S
U6 O26 2.455 1_554 S
U6 O27 2.449 1_554 S
O7 U6 2.454 1_565 S
O7 C9 1.353 . S
O8 U6 2.458 1_565 S
O8 C9 1.286 . S
C9 U6 2.984 1_565 S
C9 O7 1.353 . S
C9 O8 1.286 . S
C9 C11 1.363 . S
C10 C0 1.465 . S
C10 U6 2.847 . S
C10 O24 1.246 1_545 S
C10 O25 1.202 . S
C11 C9 1.363 . S
C11 C13 1.408 . S
C11 C16 1.342 . S
C12 C13 1.310 . S
C12 C15 1.461 . S
C12 H32 0.932 . S
C13 C11 1.408 . S
C13 C12 1.310 . S
C13 H33 0.930 . S
C14 C15 1.474 . S
C14 C16 1.285 . S
C14 H34 0.929 . S
C15 C12 1.461 . S
C15 C14 1.474 . S
C16 C11 1.342 . S
C16 C14 1.285 . S
C16 H35 0.930 . S
C17 C20 1.424 . S
C17 C22 1.245 . S
C17 C23 1.428 . S
C18 C21 1.260 . S
C18 C22 1.477 . S
C18 H36 0.932 . S
C19 C20 1.384 . S
C19 C21 1.479 . S
C19 H37 0.929 . S
C20 C17 1.424 . S
C20 C19 1.384 . S
C20 H38 0.928 . S
C21 C18 1.260 . S
C21 C19 1.479 . S
C22 C17 1.245 . S
C22 C18 1.477 . S
C22 H39 0.932 . S
C23 U6 2.882 1_556 S
C23 C17 1.428 . S
C23 O26 1.301 . S
C23 O27 1.282 . S
O24 U6 2.440 1_565 S
O24 C10 1.246 1_565 S
O25 U6 2.420 . S
O25 C10 1.202 . S
O26 U6 2.455 1_556 S
O26 C23 1.301 . S
O27 U6 2.449 1_556 S
O27 C23 1.282 . S
H28 C1 0.931 . S
H29 C3 0.929 . S
H30 C4 0.930 . S
H31 C5 0.931 . S
H32 C12 0.932 . S
H33 C13 0.930 . S
H34 C14 0.929 . S
H35 C16 0.930 . S
H36 C18 0.932 . S
H37 C19 0.929 . S
H38 C20 0.928 . S
H39 C22 0.932 . S
C40 C41 1.264 . S
C40 C45 1.479 . S
C40 C50 1.465 . S
C41 C40 1.264 . S
C41 C43 1.339 . S
C41 H68 0.931 . S
C42 C43 1.395 . S
C42 C44 1.320 . S
C43 C41 1.339 . S
C43 C42 1.395 . S
C43 H69 0.929 . S
C44 C42 1.320 . S
C44 C45 1.405 . S
C44 H70 0.930 . S
C45 C40 1.479 . S
C45 C44 1.405 . S
C45 H71 0.931 . S
U46 O47 2.454 . S
U46 O48 2.458 . S
U46 C49 2.984 . S
U46 C50 2.847 . S
U46 C63 2.882 . S
U46 O64 2.441 . S
U46 O65 2.420 . S
U46 O66 2.455 . S
U46 O67 2.449 . S
O47 U46 2.454 . S
O47 C49 1.353 . S
O48 U46 2.458 . S
O48 C49 1.286 . S
C49 U46 2.984 . S
C49 O47 1.353 . S
C49 O48 1.286 . S
C49 C51 1.363 . S
C50 C40 1.465 . S
C50 U46 2.847 . S
C50 O64 1.249 . S
C50 O65 1.202 . S
C51 C49 1.363 . S
C51 C53 1.408 . S
C51 C56 1.342 . S
C52 C53 1.310 . S
C52 C55 1.461 . S
C52 H72 0.932 . S
C53 C51 1.408 . S
C53 C52 1.310 . S
C53 H73 0.930 . S
C54 C55 1.474 . S
C54 C56 1.285 . S
C54 H74 0.929 . S
C55 C52 1.461 . S
C55 C54 1.474 . S
C56 C51 1.342 . S
C56 C54 1.285 . S
C56 H75 0.930 . S
C57 C60 1.424 . S
C57 C62 1.245 . S
C57 C63 1.428 . S
C58 C61 1.260 . S
C58 C62 1.477 . S
C58 H76 0.932 . S
C59 C60 1.384 . S
C59 C61 1.479 . S
C59 H77 0.929 . S
C60 C57 1.424 . S
C60 C59 1.384 . S
C60 H78 0.928 . S
C61 C58 1.260 . S
C61 C59 1.479 . S
C62 C57 1.245 . S
C62 C58 1.477 . S
C62 H79 0.932 . S
C63 U46 2.882 . S
C63 C57 1.428 . S
C63 O66 1.301 . S
C63 O67 1.282 . S
O64 U46 2.441 . S
O64 C50 1.249 . S
O65 U46 2.420 . S
O65 C50 1.202 . S
O66 U46 2.455 . S
O66 C63 1.301 . S
O67 U46 2.449 . S
O67 C63 1.282 . S
H68 C41 0.931 . S
H69 C43 0.929 . S
H70 C44 0.930 . S
H71 C45 0.931 . S
H72 C52 0.932 . S
H73 C53 0.930 . S
H74 C54 0.929 . S
H75 C56 0.930 . S
H76 C58 0.932 . S
H77 C59 0.929 . S
H78 C60 0.928 . S
H79 C62 0.932 . S
C80 C81 1.264 . S
C80 C85 1.479 . S
C80 C90 1.428 1_565 S
C81 C80 1.264 . S
C81 C83 1.339 . S
C81 H108 0.931 . S
C82 C83 1.395 . S
C82 C84 1.320 . S
C83 C81 1.339 . S
C83 C82 1.395 . S
C83 H109 0.929 . S
C84 C82 1.320 . S
C84 C85 1.405 . S
C84 H110 0.930 . S
C85 C80 1.479 . S
C85 C84 1.405 . S
C85 H111 0.931 . S
U86 O87 2.454 . S
U86 O88 2.458 . S
U86 C89 2.984 . S
U86 C90 2.875 . S
U86 C103 2.882 . S
U86 O104 2.441 . S
U86 O105 2.420 . S
U86 O106 2.455 . S
U86 O107 2.449 . S
O87 U86 2.454 . S
O87 C89 1.353 . S
O88 U86 2.458 . S
O88 C89 1.286 . S
C89 U86 2.984 . S
C89 O87 1.353 . S
C89 O88 1.286 . S
C89 C91 1.363 . S
C90 C80 1.428 1_545 S
C90 U86 2.875 . S
C90 O104 1.277 . S
C90 O105 1.213 . S
C91 C89 1.363 . S
C91 C93 1.408 . S
C91 C96 1.342 . S
C92 C93 1.310 . S
C92 C95 1.461 . S
C92 H112 0.932 . S
C93 C91 1.408 . S
C93 C92 1.310 . S
C93 H113 0.930 . S
C94 C95 1.474 . S
C94 C96 1.285 . S
C94 H114 0.929 . S
C95 C92 1.461 . S
C95 C94 1.474 . S
C96 C91 1.342 . S
C96 C94 1.285 . S
C96 H115 0.930 . S
C97 C100 1.424 . S
C97 C102 1.245 . S
C97 C103 1.428 . S
C98 C101 1.260 . S
C98 C102 1.477 . S
C98 H116 0.932 . S
C99 C100 1.384 . S
C99 C101 1.479 . S
C99 H117 0.929 1_545 S
C100 C97 1.424 . S
C100 C99 1.384 . S
C100 H118 0.898 1_545 S
C101 C98 1.260 . S
C101 C99 1.479 . S
C102 C97 1.245 . S
C102 C98 1.477 . S
C102 H119 0.932 . S
C103 U86 2.882 . S
C103 C97 1.428 . S
C103 O106 1.301 . S
C103 O107 1.282 . S
O104 U86 2.441 . S
O104 C90 1.277 . S
O105 U86 2.420 . S
O105 C90 1.213 . S
O106 U86 2.455 . S
O106 C103 1.301 . S
O107 U86 2.449 . S
O107 C103 1.282 . S
H108 C81 0.931 . S
H109 C83 0.929 . S
H110 C84 0.930 . S
H111 C85 0.931 . S
H112 C92 0.932 . S
H113 C93 0.930 . S
H114 C94 0.929 . S
H115 C96 0.930 . S
H116 C98 0.932 . S
H117 C99 0.929 1_565 S
H118 C100 0.898 1_565 S
H119 C102 0.932 . S
C120 C121 1.264 . S
C120 C125 1.479 . S
C120 C130 1.465 . S
C121 C120 1.264 . S
C121 C123 1.339 . S
C121 H148 0.931 . S
C122 C123 1.395 . S
C122 C124 1.320 . S
C123 C121 1.339 . S
C123 C122 1.395 . S
C123 H149 0.929 . S
C124 C122 1.320 . S
C124 C125 1.405 . S
C124 H150 0.930 . S
C125 C120 1.479 . S
C125 C124 1.405 . S
C125 H151 0.931 . S
U126 O127 2.454 . S
U126 O128 2.458 . S
U126 C129 2.984 . S
U126 C130 2.847 . S
U126 C143 2.882 . S
U126 O144 2.441 . S
U126 O145 2.420 . S
U126 O146 2.455 . S
U126 O147 2.449 . S
O127 U126 2.454 . S
O127 C129 1.353 . S
O128 U126 2.458 . S
O128 C129 1.286 . S
C129 U126 2.984 . S
C129 O127 1.353 . S
C129 O128 1.286 . S
C129 C131 1.363 . S
C130 C120 1.465 . S
C130 U126 2.847 . S
C130 O144 1.249 . S
C130 O145 1.202 . S
C131 C129 1.363 . S
C131 C133 1.408 . S
C131 C136 1.342 . S
C132 C133 1.310 . S
C132 C135 1.461 . S
C132 H152 0.932 . S
C133 C131 1.408 . S
C133 C132 1.310 . S
C133 H153 0.930 . S
C134 C135 1.474 . S
C134 C136 1.285 . S
C134 H154 0.929 . S
C135 C132 1.461 . S
C135 C134 1.474 . S
C136 C131 1.342 . S
C136 C134 1.285 . S
C136 H155 0.930 . S
C137 C140 1.424 . S
C137 C142 1.245 . S
C137 C143 1.428 . S
C138 C141 1.260 . S
C138 C142 1.477 . S
C138 H156 0.932 . S
C139 C140 1.384 . S
C139 C141 1.479 . S
C139 H157 0.929 . S
C140 C137 1.424 . S
C140 C139 1.384 . S
C140 H158 0.928 . S
C141 C138 1.260 . S
C141 C139 1.479 . S
C142 C137 1.245 . S
C142 C138 1.477 . S
C142 H159 0.932 . S
C143 U126 2.882 . S
C143 C137 1.428 . S
C143 O146 1.301 . S
C143 O147 1.282 . S
O144 U126 2.441 . S
O144 C130 1.249 . S
O145 U126 2.420 . S
O145 C130 1.202 . S
O146 U126 2.455 . S
O146 C143 1.301 . S
O147 U126 2.449 . S
O147 C143 1.282 . S
H148 C121 0.931 . S
H149 C123 0.929 . S
H150 C124 0.930 . S
H151 C125 0.931 . S
H152 C132 0.932 . S
H153 C133 0.930 . S
H154 C134 0.929 . S
H155 C136 0.930 . S
H156 C138 0.932 . S
H157 C139 0.929 . S
H158 C140 0.928 . S
H159 C142 0.932 . S
C160 C161 1.264 . S
C160 C165 1.479 . S
C160 C170 1.465 . S
C161 C160 1.264 . S
C161 C163 1.339 . S
C161 H188 0.931 . S
C162 C163 1.395 . S
C162 C164 1.320 . S
C163 C161 1.339 . S
C163 C162 1.395 . S
C163 H189 0.929 . S
C164 C162 1.320 . S
C164 C165 1.405 . S
C164 H190 0.930 . S
C165 C160 1.479 . S
C165 C164 1.405 . S
C165 H191 0.931 . S
U166 O167 2.454 1_554 S
U166 O168 2.458 1_554 S
U166 C169 2.984 1_554 S
U166 C170 2.847 1_545 S
U166 C183 2.885 . S
U166 O184 2.441 1_545 S
U166 O185 2.420 1_545 S
U166 O186 2.455 1_554 S
U166 O187 2.449 1_545 S
O167 U166 2.454 1_556 S
O167 C169 1.353 . S
O168 U166 2.458 1_556 S
O168 C169 1.286 . S
C169 U166 2.984 1_556 S
C169 O167 1.353 . S
C169 O168 1.286 . S
C169 C171 1.363 . S
C170 C160 1.465 . S
C170 U166 2.847 1_565 S
C170 O184 1.249 . S
C170 O185 1.202 . S
C171 C169 1.363 . S
C171 C173 1.408 . S
C171 C176 1.342 . S
C172 C173 1.310 . S
C172 C175 1.461 . S
C172 H192 0.932 . S
C173 C171 1.408 . S
C173 C172 1.310 . S
C173 H193 0.930 . S
C174 C175 1.474 . S
C174 C176 1.285 . S
C174 H194 0.929 . S
C175 C172 1.461 . S
C175 C174 1.474 . S
C176 C171 1.342 . S
C176 C174 1.285 . S
C176 H195 0.930 . S
C177 C180 1.424 1_545 S
C177 C182 1.245 1_554 S
C177 C183 1.431 . S
C178 C181 1.260 1_556 S
C178 C182 1.477 . S
C178 H196 0.932 . S
C179 C180 1.384 . S
C179 C181 1.479 1_565 S
C179 H197 0.929 . S
C180 C177 1.424 1_565 S
C180 C179 1.384 . S
C180 H198 0.928 . S
C181 C178 1.260 1_554 S
C181 C179 1.479 1_545 S
C182 C177 1.245 1_556 S
C182 C178 1.477 . S
C182 H199 0.932 . S
C183 U166 2.885 . S
C183 C177 1.431 . S
C183 O186 1.317 1_554 S
C183 O187 1.265 1_545 S
O184 U166 2.441 1_565 S
O184 C170 1.249 . S
O185 U166 2.420 1_565 S
O185 C170 1.202 . S
O186 U166 2.455 1_556 S
O186 C183 1.317 1_556 S
O187 U166 2.449 1_565 S
O187 C183 1.265 1_565 S
H188 C161 0.931 . S
H189 C163 0.929 . S
H190 C164 0.930 . S
H191 C165 0.931 . S
H192 C172 0.932 . S
H193 C173 0.930 . S
H194 C174 0.929 . S
H195 C176 0.930 . S
H196 C178 0.932 . S
H197 C179 0.929 . S
H198 C180 0.928 . S
H199 C182 0.932 . S
C200 C201 1.264 . S
C200 C205 1.479 . S
C200 C210 1.465 . S
C201 C200 1.264 . S
C201 C203 1.339 . S
C201 H228 0.931 . S
C202 C203 1.395 . S
C202 C204 1.320 . S
C203 C201 1.339 . S
C203 C202 1.395 . S
C203 H229 0.929 . S
C204 C202 1.320 . S
C204 C205 1.405 . S
C204 H230 0.930 . S
C205 C200 1.479 . S
C205 C204 1.405 . S
C205 H231 0.931 . S
U206 O207 2.454 . S
U206 O208 2.458 . S
U206 C209 2.984 . S
U206 C210 2.847 . S
U206 C223 2.882 . S
U206 O224 2.441 . S
U206 O225 2.420 . S
U206 O226 2.455 . S
U206 O227 2.449 . S
O207 U206 2.454 . S
O207 C209 1.353 . S
O208 U206 2.458 . S
O208 C209 1.286 . S
C209 U206 2.984 . S
C209 O207 1.353 . S
C209 O208 1.286 . S
C209 C211 1.363 . S
C210 C200 1.465 . S
C210 U206 2.847 . S
C210 O224 1.249 . S
C210 O225 1.202 . S
C211 C209 1.363 . S
C211 C213 1.408 . S
C211 C216 1.342 . S
C212 C213 1.310 . S
C212 C215 1.461 . S
C212 H232 0.932 . S
C213 C211 1.408 . S
C213 C212 1.310 . S
C213 H233 0.930 . S
C214 C215 1.474 . S
C214 C216 1.285 . S
C214 H234 0.929 . S
C215 C212 1.461 . S
C215 C214 1.474 . S
C216 C211 1.342 . S
C216 C214 1.285 . S
C216 H235 0.930 . S
C217 C220 1.424 . S
C217 C222 1.245 . S
C217 C223 1.428 . S
C218 C221 1.260 . S
C218 C222 1.477 . S
C218 H236 0.932 . S
C219 C220 1.384 . S
C219 C221 1.479 . S
C219 H237 0.929 . S
C220 C217 1.424 . S
C220 C219 1.384 . S
C220 H238 0.928 . S
C221 C218 1.260 . S
C221 C219 1.479 . S
C222 C217 1.245 . S
C222 C218 1.477 . S
C222 H239 0.932 . S
C223 U206 2.882 . S
C223 C217 1.428 . S
C223 O226 1.301 . S
C223 O227 1.282 . S
O224 U206 2.441 . S
O224 C210 1.249 . S
O225 U206 2.420 . S
O225 C210 1.202 . S
O226 U206 2.455 . S
O226 C223 1.301 . S
O227 U206 2.449 . S
O227 C223 1.282 . S
H228 C201 0.931 . S
H229 C203 0.929 . S
H230 C204 0.930 . S
H231 C205 0.931 . S
H232 C212 0.932 . S
H233 C213 0.930 . S
H234 C214 0.929 . S
H235 C216 0.930 . S
H236 C218 0.932 . S
H237 C219 0.929 . S
H238 C220 0.928 . S
H239 C222 0.932 . S
C240 C241 1.264 1_565 S
C240 C245 1.479 . S
C240 C250 1.465 . S
C241 C240 1.264 1_545 S
C241 C243 1.339 . S
C241 H268 0.931 . S
C242 C243 1.396 . S
C242 C244 1.318 1_545 S
C243 C241 1.339 . S
C243 C242 1.396 . S
C243 H269 0.929 . S
C244 C242 1.318 1_565 S
C244 C245 1.405 . S
C244 H270 0.930 . S
C245 C240 1.479 . S
C245 C244 1.405 . S
C245 H271 0.931 . S
U246 O247 2.454 . S
U246 O248 2.458 . S
U246 C249 2.984 . S
U246 C250 2.847 . S
U246 C263 2.882 1_565 S
U246 O264 2.441 . S
U246 O265 2.420 . S
U246 O266 2.455 . S
U246 O267 2.449 1_565 S
O247 U246 2.454 . S
O247 C249 1.353 . S
O248 U246 2.458 . S
O248 C249 1.286 . S
C249 U246 2.984 . S
C249 O247 1.353 . S
C249 O248 1.286 . S
C249 C251 1.363 . S
C250 C240 1.465 . S
C250 U246 2.847 . S
C250 O264 1.249 . S
C250 O265 1.202 . S
C251 C249 1.363 . S
C251 C253 1.408 . S
C251 C256 1.342 . S
C252 C253 1.310 . S
C252 C255 1.461 . S
C252 H272 0.932 . S
C253 C251 1.408 . S
C253 C252 1.310 . S
C253 H273 0.930 . S
C254 C255 1.474 . S
C254 C256 1.285 . S
C254 H274 0.929 . S
C255 C252 1.461 . S
C255 C254 1.474 . S
C256 C251 1.342 . S
C256 C254 1.285 . S
C256 H275 0.930 . S
C257 C260 1.424 . S
C257 C262 1.245 . S
C257 C263 1.428 . S
C258 C261 1.260 . S
C258 C262 1.477 . S
C258 H276 0.932 . S
C259 C260 1.384 . S
C259 C261 1.479 . S
C259 H277 0.929 . S
C260 C257 1.424 . S
C260 C259 1.384 . S
C260 H278 0.928 . S
C261 C258 1.260 . S
C261 C259 1.479 . S
C262 C257 1.245 . S
C262 C258 1.477 . S
C262 H279 0.932 . S
C263 U246 2.882 1_545 S
C263 C257 1.428 . S
C263 O266 1.301 1_545 S
C263 O267 1.282 . S
O264 U246 2.441 . S
O264 C250 1.249 . S
O265 U246 2.420 . S
O265 C250 1.202 . S
O266 U246 2.455 . S
O266 C263 1.301 1_565 S
O267 U246 2.449 1_545 S
O267 C263 1.282 . S
H268 C241 0.931 . S
H269 C243 0.929 . S
H270 C244 0.930 . S
H271 C245 0.931 . S
H272 C252 0.932 . S
H273 C253 0.930 . S
H274 C254 0.929 . S
H275 C256 0.930 . S
H276 C258 0.932 . S
H277 C259 0.929 . S
H278 C260 0.928 . S
H279 C262 0.932 . S
C280 C281 1.264 . S
C280 C285 1.479 . S
C280 C290 1.465 . S
C281 C280 1.264 . S
C281 C283 1.339 . S
C281 H308 0.931 . S
C282 C283 1.395 . S
C282 C284 1.320 . S
C283 C281 1.339 . S
C283 C282 1.395 . S
C283 H309 0.929 . S
C284 C282 1.320 . S
C284 C285 1.405 . S
C284 H310 0.930 . S
C285 C280 1.479 . S
C285 C284 1.405 . S
C285 H311 0.931 . S
U286 O287 2.454 . S
U286 O288 2.458 . S
U286 C289 2.984 . S
U286 C290 2.847 . S
U286 C303 2.882 . S
U286 O304 2.441 . S
U286 O305 2.420 . S
U286 O306 2.455 . S
U286 O307 2.449 . S
O287 U286 2.454 . S
O287 C289 1.353 . S
O288 U286 2.458 . S
O288 C289 1.286 . S
C289 U286 2.984 . S
C289 O287 1.353 . S
C289 O288 1.286 . S
C289 C291 1.363 . S
C290 C280 1.465 . S
C290 U286 2.847 . S
C290 O304 1.249 . S
C290 O305 1.202 . S
C291 C289 1.363 . S
C291 C293 1.408 . S
C291 C296 1.342 . S
C292 C293 1.310 . S
C292 C295 1.461 . S
C292 H312 0.932 . S
C293 C291 1.408 . S
C293 C292 1.310 . S
C293 H313 0.930 . S
C294 C295 1.474 . S
C294 C296 1.285 . S
C294 H314 0.929 . S
C295 C292 1.461 . S
C295 C294 1.474 . S
C296 C291 1.342 . S
C296 C294 1.285 . S
C296 H315 0.930 . S
C297 C300 1.424 . S
C297 C302 1.245 . S
C297 C303 1.428 . S
C298 C301 1.260 . S
C298 C302 1.477 . S
C298 H316 0.932 . S
C299 C300 1.384 . S
C299 C301 1.479 . S
C299 H317 0.929 . S
C300 C297 1.424 . S
C300 C299 1.384 . S
C300 H318 0.928 . S
C301 C298 1.260 . S
C301 C299 1.479 . S
C302 C297 1.245 . S
C302 C298 1.477 . S
C302 H319 0.932 . S
C303 U286 2.882 . S
C303 C297 1.428 . S
C303 O306 1.301 . S
C303 O307 1.282 . S
O304 U286 2.441 . S
O304 C290 1.249 . S
O305 U286 2.420 . S
O305 C290 1.202 . S
O306 U286 2.455 . S
O306 C303 1.301 . S
O307 U286 2.449 . S
O307 C303 1.282 . S
H308 C281 0.931 . S
H309 C283 0.929 . S
H310 C284 0.930 . S
H311 C285 0.931 . S
H312 C292 0.932 . S
H313 C293 0.930 . S
H314 C294 0.929 . S
H315 C296 0.930 . S
H316 C298 0.932 . S
H317 C299 0.929 . S
H318 C300 0.928 . S
H319 C302 0.932 . S
C320 C321 1.264 . S
C320 C325 1.479 . S
C320 C330 1.465 . S
C321 C320 1.264 . S
C321 C323 1.339 . S
C321 H348 0.931 . S
C322 C323 1.395 . S
C322 C324 1.320 . S
C323 C321 1.339 . S
C323 C322 1.395 . S
C323 H349 0.929 . S
C324 C322 1.320 . S
C324 C325 1.405 . S
C324 H350 0.930 . S
C325 C320 1.479 . S
C325 C324 1.405 . S
C325 H351 0.931 . S
U326 O327 2.454 . S
U326 O328 2.458 . S
U326 C329 2.984 . S
U326 C330 2.847 . S
U326 C343 2.882 . S
U326 O344 2.441 . S
U326 O345 2.420 . S
U326 O346 2.455 . S
U326 O347 2.449 . S
O327 U326 2.454 . S
O327 C329 1.353 . S
O328 U326 2.458 . S
O328 C329 1.286 . S
C329 U326 2.984 . S
C329 O327 1.353 . S
C329 O328 1.286 . S
C329 C331 1.363 . S
C330 C320 1.465 . S
C330 U326 2.847 . S
C330 O344 1.249 . S
C330 O345 1.202 . S
C331 C329 1.363 . S
C331 C333 1.408 . S
C331 C336 1.342 . S
C332 C333 1.310 . S
C332 C335 1.461 . S
C332 H352 0.932 . S
C333 C331 1.408 . S
C333 C332 1.310 . S
C333 H353 0.930 . S
C334 C335 1.474 . S
C334 C336 1.285 . S
C334 H354 0.929 . S
C335 C332 1.461 . S
C335 C334 1.474 . S
C336 C331 1.342 . S
C336 C334 1.285 . S
C336 H355 0.930 . S
C337 C340 1.424 . S
C337 C342 1.245 . S
C337 C343 1.428 . S
C338 C341 1.260 . S
C338 C342 1.477 . S
C338 H356 0.932 . S
C339 C340 1.384 . S
C339 C341 1.479 . S
C339 H357 0.929 . S
C340 C337 1.424 . S
C340 C339 1.384 . S
C340 H358 0.928 . S
C341 C338 1.260 . S
C341 C339 1.479 . S
C342 C337 1.245 . S
C342 C338 1.477 . S
C342 H359 0.932 . S
C343 U326 2.882 . S
C343 C337 1.428 . S
C343 O346 1.301 . S
C343 O347 1.282 . S
O344 U326 2.441 . S
O344 C330 1.249 . S
O345 U326 2.420 . S
O345 C330 1.202 . S
O346 U326 2.455 . S
O346 C343 1.301 . S
O347 U326 2.449 . S
O347 C343 1.282 . S
H348 C321 0.931 . S
H349 C323 0.929 . S
H350 C324 0.930 . S
H351 C325 0.931 . S
H352 C332 0.932 . S
H353 C333 0.930 . S
H354 C334 0.929 . S
H355 C336 0.930 . S
H356 C338 0.932 . S
H357 C339 0.929 . S
H358 C340 0.928 . S
H359 C342 0.932 . S
C360 C361 1.264 . S
C360 C365 1.479 . S
C360 C370 1.465 . S
C361 C360 1.264 . S
C361 C363 1.339 . S
C361 H388 0.931 . S
C362 C363 1.395 . S
C362 C364 1.320 . S
C363 C361 1.339 . S
C363 C362 1.395 . S
C363 H389 0.929 . S
C364 C362 1.320 . S
C364 C365 1.405 . S
C364 H390 0.930 . S
C365 C360 1.479 . S
C365 C364 1.405 . S
C365 H391 0.931 . S
U366 O367 2.454 . S
U366 O368 2.458 . S
U366 C369 2.984 . S
U366 C370 2.847 . S
U366 C383 2.882 . S
U366 O384 2.441 . S
U366 O385 2.420 . S
U366 O386 2.455 . S
U366 O387 2.449 . S
O367 U366 2.454 . S
O367 C369 1.353 . S
O368 U366 2.458 . S
O368 C369 1.286 . S
C369 U366 2.984 . S
C369 O367 1.353 . S
C369 O368 1.286 . S
C369 C371 1.363 . S
C370 C360 1.465 . S
C370 U366 2.847 . S
C370 O384 1.249 . S
C370 O385 1.202 . S
C371 C369 1.363 . S
C371 C373 1.408 . S
C371 C376 1.342 . S
C372 C373 1.310 . S
C372 C375 1.461 . S
C372 H392 0.932 . S
C373 C371 1.408 . S
C373 C372 1.310 . S
C373 H393 0.930 . S
C374 C375 1.474 . S
C374 C376 1.285 . S
C374 H394 0.929 . S
C375 C372 1.461 . S
C375 C374 1.474 . S
C376 C371 1.342 . S
C376 C374 1.285 . S
C376 H395 0.930 . S
C377 C380 1.424 . S
C377 C382 1.245 . S
C377 C383 1.428 . S
C378 C381 1.260 . S
C378 C382 1.477 . S
C378 H396 0.932 . S
C379 C380 1.384 . S
C379 C381 1.479 . S
C379 H397 0.929 . S
C380 C377 1.424 . S
C380 C379 1.384 . S
C380 H398 0.928 . S
C381 C378 1.260 . S
C381 C379 1.479 . S
C382 C377 1.245 . S
C382 C378 1.477 . S
C382 H399 0.932 . S
C383 U366 2.882 . S
C383 C377 1.428 . S
C383 O386 1.301 . S
C383 O387 1.282 . S
O384 U366 2.441 . S
O384 C370 1.249 . S
O385 U366 2.420 . S
O385 C370 1.202 . S
O386 U366 2.455 . S
O386 C383 1.301 . S
O387 U366 2.449 . S
O387 C383 1.282 . S
H388 C361 0.931 . S
H389 C363 0.929 . S
H390 C364 0.930 . S
H391 C365 0.931 . S
H392 C372 0.932 . S
H393 C373 0.930 . S
H394 C374 0.929 . S
H395 C376 0.930 . S
H396 C378 0.932 . S
H397 C379 0.929 . S
H398 C380 0.928 . S
H399 C382 0.932 . S
C400 C401 1.264 . S
C400 C405 1.479 . S
C400 C410 1.465 . S
C401 C400 1.264 . S
C401 C403 1.339 . S
C401 H428 0.931 . S
C402 C403 1.395 . S
C402 C404 1.320 . S
C403 C401 1.339 . S
C403 C402 1.395 . S
C403 H429 0.929 . S
C404 C402 1.320 . S
C404 C405 1.405 . S
C404 H430 0.930 . S
C405 C400 1.479 . S
C405 C404 1.405 . S
C405 H431 0.931 . S
U406 O407 2.454 1_556 S
U406 O408 2.458 1_556 S
U406 C409 2.984 1_556 S
U406 C410 2.847 . S
U406 C423 2.882 . S
U406 O424 2.441 . S
U406 O425 2.420 . S
U406 O426 2.455 1_556 S
U406 O427 2.449 . S
O407 U406 2.454 1_554 S
O407 C409 1.353 . S
O408 U406 2.458 1_554 S
O408 C409 1.286 . S
C409 U406 2.984 1_554 S
C409 O407 1.353 . S
C409 O408 1.286 . S
C409 C411 1.363 . S
C410 C400 1.465 . S
C410 U406 2.847 . S
C410 O424 1.249 . S
C410 O425 1.202 . S
C411 C409 1.363 . S
C411 C413 1.408 . S
C411 C416 1.342 . S
C412 C413 1.310 . S
C412 C415 1.461 . S
C412 H432 0.932 . S
C413 C411 1.408 . S
C413 C412 1.310 . S
C413 H433 0.930 . S
C414 C415 1.474 . S
C414 C416 1.285 . S
C414 H434 0.929 . S
C415 C412 1.461 . S
C415 C414 1.474 . S
C416 C411 1.342 . S
C416 C414 1.285 . S
C416 H435 0.930 . S
C417 C420 1.420 1_554 S
C417 C422 1.250 . S
C417 C423 1.427 1_554 S
C418 C421 1.260 . S
C418 C422 1.477 . S
C418 H436 0.932 . S
C419 C420 1.384 . S
C419 C421 1.479 1_556 S
C419 H437 0.929 . S
C420 C417 1.420 1_556 S
C420 C419 1.384 . S
C420 H438 0.928 . S
C421 C418 1.260 . S
C421 C419 1.479 1_554 S
C422 C417 1.250 . S
C422 C418 1.477 . S
C422 H439 0.932 . S
C423 U406 2.882 . S
C423 C417 1.427 1_556 S
C423 O426 1.301 1_556 S
C423 O427 1.282 . S
O424 U406 2.441 . S
O424 C410 1.249 . S
O425 U406 2.420 . S
O425 C410 1.202 . S
O426 U406 2.455 1_554 S
O426 C423 1.301 1_554 S
O427 U406 2.449 . S
O427 C423 1.282 . S
H428 C401 0.931 . S
H429 C403 0.929 . S
H430 C404 0.930 . S
H431 C405 0.931 . S
H432 C412 0.932 . S
H433 C413 0.930 . S
H434 C414 0.929 . S
H435 C416 0.930 . S
H436 C418 0.932 . S
H437 C419 0.929 . S
H438 C420 0.928 . S
H439 C422 0.932 . S
C440 C441 1.264 . S
C440 C445 1.479 . S
C440 C450 1.465 . S
C441 C440 1.264 . S
C441 C443 1.339 . S
C441 H468 0.931 . S
C442 C443 1.395 . S
C442 C444 1.320 . S
C443 C441 1.339 . S
C443 C442 1.395 . S
C443 H469 0.929 . S
C444 C442 1.320 . S
C444 C445 1.405 . S
C444 H470 0.930 . S
C445 C440 1.479 . S
C445 C444 1.405 . S
C445 H471 0.931 . S
U446 O447 2.454 . S
U446 O448 2.458 . S
U446 C449 2.984 . S
U446 C450 2.847 . S
U446 C463 2.882 . S
U446 O464 2.441 . S
U446 O465 2.420 . S
U446 O466 2.455 . S
U446 O467 2.449 . S
O447 U446 2.454 . S
O447 C449 1.353 . S
O448 U446 2.458 . S
O448 C449 1.286 . S
C449 U446 2.984 . S
C449 O447 1.353 . S
C449 O448 1.286 . S
C449 C451 1.363 . S
C450 C440 1.465 . S
C450 U446 2.847 . S
C450 O464 1.249 . S
C450 O465 1.202 . S
C451 C449 1.363 . S
C451 C453 1.408 . S
C451 C456 1.342 . S
C452 C453 1.310 . S
C452 C455 1.461 . S
C452 H472 0.932 . S
C453 C451 1.408 . S
C453 C452 1.310 . S
C453 H473 0.930 . S
C454 C455 1.474 . S
C454 C456 1.285 . S
C454 H474 0.929 . S
C455 C452 1.461 . S
C455 C454 1.474 . S
C456 C451 1.342 . S
C456 C454 1.285 . S
C456 H475 0.930 . S
C457 C460 1.424 . S
C457 C462 1.245 . S
C457 C463 1.428 . S
C458 C461 1.260 . S
C458 C462 1.477 . S
C458 H476 0.932 . S
C459 C460 1.384 . S
C459 C461 1.479 . S
C459 H477 0.929 . S
C460 C457 1.424 . S
C460 C459 1.384 . S
C460 H478 0.928 . S
C461 C458 1.260 . S
C461 C459 1.479 . S
C462 C457 1.245 . S
C462 C458 1.477 . S
C462 H479 0.932 . S
C463 U446 2.882 . S
C463 C457 1.428 . S
C463 O466 1.301 . S
C463 O467 1.282 . S
O464 U446 2.441 . S
O464 C450 1.249 . S
O465 U446 2.420 . S
O465 C450 1.202 . S
O466 U446 2.455 . S
O466 C463 1.301 . S
O467 U446 2.449 . S
O467 C463 1.282 . S
H468 C441 0.931 . S
H469 C443 0.929 . S
H470 C444 0.930 . S
H471 C445 0.931 . S
H472 C452 0.932 . S
H473 C453 0.930 . S
H474 C454 0.929 . S
H475 C456 0.930 . S
H476 C458 0.932 . S
H477 C459 0.929 . S
H478 C460 0.928 . S
H479 C462 0.932 . S
C480 C481 1.264 . S
C480 C485 1.479 . S
C480 C490 1.465 . S
C481 C480 1.264 . S
C481 C483 1.339 . S
C481 H508 0.931 . S
C482 C483 1.395 . S
C482 C484 1.320 . S
C483 C481 1.339 . S
C483 C482 1.395 . S
C483 H509 0.929 . S
C484 C482 1.320 . S
C484 C485 1.405 . S
C484 H510 0.930 . S
C485 C480 1.479 . S
C485 C484 1.405 . S
C485 H511 0.931 . S
U486 O487 2.454 . S
U486 O488 2.458 . S
U486 C489 2.984 . S
U486 C490 2.847 . S
U486 C503 2.882 . S
U486 O504 2.441 . S
U486 O505 2.420 . S
U486 O506 2.455 . S
U486 O507 2.449 . S
O487 U486 2.454 . S
O487 C489 1.353 . S
O488 U486 2.458 . S
O488 C489 1.286 . S
C489 U486 2.984 . S
C489 O487 1.353 . S
C489 O488 1.286 . S
C489 C491 1.363 . S
C490 C480 1.465 . S
C490 U486 2.847 . S
C490 O504 1.249 . S
C490 O505 1.202 . S
C491 C489 1.363 . S
C491 C493 1.408 . S
C491 C496 1.342 . S
C492 C493 1.310 . S
C492 C495 1.461 . S
C492 H512 0.932 . S
C493 C491 1.408 . S
C493 C492 1.310 . S
C493 H513 0.930 . S
C494 C495 1.474 . S
C494 C496 1.285 . S
C494 H514 0.929 . S
C495 C492 1.461 . S
C495 C494 1.474 . S
C496 C491 1.342 . S
C496 C494 1.285 . S
C496 H515 0.930 . S
C497 C500 1.424 . S
C497 C502 1.245 . S
C497 C503 1.428 . S
C498 C501 1.260 . S
C498 C502 1.477 . S
C498 H516 0.932 . S
C499 C500 1.384 . S
C499 C501 1.479 . S
C499 H517 0.929 . S
C500 C497 1.424 . S
C500 C499 1.384 . S
C500 H518 0.928 . S
C501 C498 1.260 . S
C501 C499 1.479 . S
C502 C497 1.245 . S
C502 C498 1.477 . S
C502 H519 0.932 . S
C503 U486 2.882 . S
C503 C497 1.428 . S
C503 O506 1.301 . S
C503 O507 1.282 . S
O504 U486 2.441 . S
O504 C490 1.249 . S
O505 U486 2.420 . S
O505 C490 1.202 . S
O506 U486 2.455 . S
O506 C503 1.301 . S
O507 U486 2.449 . S
O507 C503 1.282 . S
H508 C481 0.931 . S
H509 C483 0.929 . S
H510 C484 0.930 . S
H511 C485 0.931 . S
H512 C492 0.932 . S
H513 C493 0.930 . S
H514 C494 0.929 . S
H515 C496 0.930 . S
H516 C498 0.932 . S
H517 C499 0.929 . S
H518 C500 0.928 . S
H519 C502 0.932 . S
C520 C521 1.264 . S
C520 C525 1.479 . S
C520 C530 1.465 . S
C521 C520 1.264 . S
C521 C523 1.339 . S
C521 H548 0.931 . S
C522 C523 1.395 . S
C522 C524 1.320 . S
C523 C521 1.339 . S
C523 C522 1.395 . S
C523 H549 0.929 . S
C524 C522 1.320 . S
C524 C525 1.405 . S
C524 H550 0.930 . S
C525 C520 1.479 . S
C525 C524 1.405 . S
C525 H551 0.931 . S
U526 O527 2.454 . S
U526 O528 2.458 . S
U526 C529 2.984 . S
U526 C530 2.847 . S
U526 C543 2.882 . S
U526 O544 2.441 . S
U526 O545 2.420 . S
U526 O546 2.455 . S
U526 O547 2.449 . S
O527 U526 2.454 . S
O527 C529 1.353 . S
O528 U526 2.458 . S
O528 C529 1.286 . S
C529 U526 2.984 . S
C529 O527 1.353 . S
C529 O528 1.286 . S
C529 C531 1.363 . S
C530 C520 1.465 . S
C530 U526 2.847 . S
C530 O544 1.249 . S
C530 O545 1.202 . S
C531 C529 1.363 . S
C531 C533 1.408 . S
C531 C536 1.342 . S
C532 C533 1.310 . S
C532 C535 1.461 . S
C532 H552 0.932 . S
C533 C531 1.408 . S
C533 C532 1.310 . S
C533 H553 0.930 . S
C534 C535 1.474 . S
C534 C536 1.285 . S
C534 H554 0.929 . S
C535 C532 1.461 . S
C535 C534 1.474 . S
C536 C531 1.342 . S
C536 C534 1.285 . S
C536 H555 0.930 . S
C537 C540 1.424 . S
C537 C542 1.245 . S
C537 C543 1.428 . S
C538 C541 1.260 . S
C538 C542 1.477 . S
C538 H556 0.932 . S
C539 C540 1.384 . S
C539 C541 1.479 . S
C539 H557 0.929 . S
C540 C537 1.424 . S
C540 C539 1.384 . S
C540 H558 0.928 . S
C541 C538 1.260 . S
C541 C539 1.479 . S
C542 C537 1.245 . S
C542 C538 1.477 . S
C542 H559 0.932 . S
C543 U526 2.882 . S
C543 C537 1.428 . S
C543 O546 1.301 . S
C543 O547 1.282 . S
O544 U526 2.441 . S
O544 C530 1.249 . S
O545 U526 2.420 . S
O545 C530 1.202 . S
O546 U526 2.455 . S
O546 C543 1.301 . S
O547 U526 2.449 . S
O547 C543 1.282 . S
H548 C521 0.931 . S
H549 C523 0.929 . S
H550 C524 0.930 . S
H551 C525 0.931 . S
H552 C532 0.932 . S
H553 C533 0.930 . S
H554 C534 0.929 . S
H555 C536 0.930 . S
H556 C538 0.932 . S
H557 C539 0.929 . S
H558 C540 0.928 . S
H559 C542 0.932 . S
C560 C561 1.264 . S
C560 C565 1.447 1_554 S
C560 C570 1.465 . S
C561 C560 1.264 . S
C561 C563 1.339 . S
C561 H588 0.931 . S
C562 C563 1.395 . S
C562 C564 1.320 1_554 S
C563 C561 1.339 . S
C563 C562 1.395 . S
C563 H589 0.929 . S
C564 C562 1.320 1_556 S
C564 C565 1.408 . S
C564 H590 0.930 . S
C565 C560 1.447 1_556 S
C565 C564 1.408 . S
C565 H591 0.959 . S
U566 O567 2.454 1_554 S
U566 O568 2.435 1_554 S
U566 C569 2.984 1_554 S
U566 C570 2.847 . S
U566 C583 2.882 . S
U566 O584 2.441 . S
U566 O585 2.420 . S
U566 O586 2.455 . S
U566 O587 2.449 . S
O567 U566 2.454 1_556 S
O567 C569 1.353 . S
O568 U566 2.435 1_556 S
O568 C569 1.322 . S
C569 U566 2.984 1_556 S
C569 O567 1.353 . S
C569 O568 1.322 . S
C569 C571 1.363 . S
C570 C560 1.465 . S
C570 U566 2.847 . S
C570 O584 1.249 . S
C570 O585 1.202 . S
C571 C569 1.363 . S
C571 C573 1.408 . S
C571 C576 1.342 . S
C572 C573 1.310 . S
C572 C575 1.461 . S
C572 H592 0.932 . S
C573 C571 1.408 . S
C573 C572 1.310 . S
C573 H593 0.930 . S
C574 C575 1.474 . S
C574 C576 1.285 . S
C574 H594 0.929 . S
C575 C572 1.461 . S
C575 C574 1.474 . S
C576 C571 1.342 . S
C576 C574 1.285 . S
C576 H595 0.930 . S
C577 C580 1.424 . S
C577 C582 1.245 . S
C577 C583 1.428 . S
C578 C581 1.260 . S
C578 C582 1.477 . S
C578 H596 0.932 . S
C579 C580 1.384 . S
C579 C581 1.479 . S
C579 H597 0.929 . S
C580 C577 1.424 . S
C580 C579 1.384 . S
C580 H598 0.928 . S
C581 C578 1.260 . S
C581 C579 1.479 . S
C582 C577 1.245 . S
C582 C578 1.477 . S
C582 H599 0.932 . S
C583 U566 2.882 . S
C583 C577 1.428 . S
C583 O586 1.301 . S
C583 O587 1.282 . S
O584 U566 2.441 . S
O584 C570 1.249 . S
O585 U566 2.420 . S
O585 C570 1.202 . S
O586 U566 2.455 . S
O586 C583 1.301 . S
O587 U566 2.449 . S
O587 C583 1.282 . S
H588 C561 0.931 . S
H589 C563 0.929 . S
H590 C564 0.930 . S
H591 C565 0.959 . S
H592 C572 0.932 . S
H593 C573 0.930 . S
H594 C574 0.929 . S
H595 C576 0.930 . S
H596 C578 0.932 . S
H597 C579 0.929 . S
H598 C580 0.928 . S
H599 C582 0.932 . S
C600 C601 1.264 . S
C600 C605 1.479 . S
C600 C610 1.465 . S
C601 C600 1.264 . S
C601 C603 1.339 . S
C601 H628 0.931 . S
C602 C603 1.395 . S
C602 C604 1.320 . S
C603 C601 1.339 . S
C603 C602 1.395 . S
C603 H629 0.929 . S
C604 C602 1.320 . S
C604 C605 1.405 . S
C604 H630 0.930 . S
C605 C600 1.479 . S
C605 C604 1.405 . S
C605 H631 0.931 . S
U606 O607 2.454 . S
U606 O608 2.458 . S
U606 C609 2.984 . S
U606 C610 2.847 . S
U606 C623 2.882 . S
U606 O624 2.441 . S
U606 O625 2.420 . S
U606 O626 2.455 . S
U606 O627 2.449 . S
O607 U606 2.454 . S
O607 C609 1.353 . S
O608 U606 2.458 . S
O608 C609 1.286 . S
C609 U606 2.984 . S
C609 O607 1.353 . S
C609 O608 1.286 . S
C609 C611 1.363 . S
C610 C600 1.465 . S
C610 U606 2.847 . S
C610 O624 1.249 . S
C610 O625 1.202 . S
C611 C609 1.363 . S
C611 C613 1.408 . S
C611 C616 1.342 . S
C612 C613 1.310 . S
C612 C615 1.461 . S
C612 H632 0.932 . S
C613 C611 1.408 . S
C613 C612 1.310 . S
C613 H633 0.930 . S
C614 C615 1.474 . S
C614 C616 1.285 . S
C614 H634 0.929 . S
C615 C612 1.461 . S
C615 C614 1.474 . S
C616 C611 1.342 . S
C616 C614 1.285 . S
C616 H635 0.930 . S
C617 C620 1.424 . S
C617 C622 1.245 . S
C617 C623 1.428 . S
C618 C621 1.260 . S
C618 C622 1.477 . S
C618 H636 0.932 . S
C619 C620 1.384 . S
C619 C621 1.479 . S
C619 H637 0.929 . S
C620 C617 1.424 . S
C620 C619 1.384 . S
C620 H638 0.928 . S
C621 C618 1.260 . S
C621 C619 1.479 . S
C622 C617 1.245 . S
C622 C618 1.477 . S
C622 H639 0.932 . S
C623 U606 2.882 . S
C623 C617 1.428 . S
C623 O626 1.301 . S
C623 O627 1.282 . S
O624 U606 2.441 . S
O624 C610 1.249 . S
O625 U606 2.420 . S
O625 C610 1.202 . S
O626 U606 2.455 . S
O626 C623 1.301 . S
O627 U606 2.449 . S
O627 C623 1.282 . S
H628 C601 0.931 . S
H629 C603 0.929 . S
H630 C604 0.930 . S
H631 C605 0.931 . S
H632 C612 0.932 . S
H633 C613 0.930 . S
H634 C614 0.929 . S
H635 C616 0.930 . S
H636 C618 0.932 . S
H637 C619 0.929 . S
H638 C620 0.928 . S
H639 C622 0.932 . S
C640 C641 1.363 . S
C640 C646 1.379 . S
C640 N648 1.356 . S
C641 C640 1.363 . S
C641 C647 1.363 . S
C642 C643 1.363 . S
C642 C647 1.379 . S
C642 N649 1.356 . S
C643 C642 1.363 . S
C643 C646 1.363 . S
N644 C646 1.356 . S
N644 H656 0.984 . S
N644 H657 0.985 . S
N645 C647 1.356 . S
N645 H650 0.984 . S
N645 H651 0.985 . S
C646 C640 1.379 . S
C646 C643 1.363 . S
C646 N644 1.356 . S
C647 C641 1.363 . S
C647 C642 1.379 . S
C647 N645 1.356 . S
N648 C640 1.356 . S
N648 H654 0.984 . S
N648 H655 0.984 . S
N649 C642 1.356 . S
N649 H652 0.984 . S
N649 H653 0.985 . S
H650 N645 0.984 . S
H651 N645 0.985 . S
H652 N649 0.984 . S
H653 N649 0.985 . S
H654 N648 0.984 . S
H655 N648 0.984 . S
H656 N644 0.984 . S
H657 N644 0.985 . S
C658 C659 1.363 . S
C658 C664 1.379 . S
C658 N666 1.356 . S
C659 C658 1.363 . S
C659 C665 1.363 . S
C660 C661 1.363 . S
C660 C665 1.379 . S
C660 N667 1.356 . S
C661 C660 1.363 . S
C661 C664 1.363 . S
N662 C664 1.356 . S
N662 H674 0.984 . S
N662 H675 0.985 . S
N663 C665 1.356 . S
N663 H668 0.984 . S
N663 H669 0.985 . S
C664 C658 1.379 . S
C664 C661 1.363 . S
C664 N662 1.356 . S
C665 C659 1.363 . S
C665 C660 1.379 . S
C665 N663 1.356 . S
N666 C658 1.356 . S
N666 H672 0.984 . S
N666 H673 0.984 . S
N667 C660 1.356 . S
N667 H670 0.984 . S
N667 H671 0.985 . S
H668 N663 0.984 . S
H669 N663 0.985 . S
H670 N667 0.984 . S
H671 N667 0.985 . S
H672 N666 0.984 . S
H673 N666 0.984 . S
H674 N662 0.984 . S
H675 N662 0.985 . S
C676 C677 1.363 . S
C676 C682 1.379 . S
C676 N684 1.356 . S
C677 C676 1.363 . S
C677 C683 1.363 . S
C678 C679 1.363 . S
C678 C683 1.379 . S
C678 N685 1.356 . S
C679 C678 1.363 . S
C679 C682 1.363 . S
N680 C682 1.356 . S
N680 H692 0.984 . S
N680 H693 0.985 . S
N681 C683 1.356 . S
N681 H686 0.984 . S
N681 H687 0.985 . S
C682 C676 1.379 . S
C682 C679 1.363 . S
C682 N680 1.356 . S
C683 C677 1.363 . S
C683 C678 1.379 . S
C683 N681 1.356 . S
N684 C676 1.356 . S
N684 H690 0.984 . S
N684 H691 0.984 . S
N685 C678 1.356 . S
N685 H688 0.984 . S
N685 H689 0.985 . S
H686 N681 0.984 . S
H687 N681 0.985 . S
H688 N685 0.984 . S
H689 N685 0.985 . S
H690 N684 0.984 . S
H691 N684 0.984 . S
H692 N680 0.984 . S
H693 N680 0.985 . S
C694 C695 1.363 . S
C694 C700 1.379 . S
C694 N702 1.356 . S
C695 C694 1.363 . S
C695 C701 1.363 . S
C696 C697 1.363 . S
C696 C701 1.379 . S
C696 N703 1.356 . S
C697 C696 1.363 . S
C697 C700 1.363 . S
N698 C700 1.356 . S
N698 H710 0.984 . S
N698 H711 0.985 . S
N699 C701 1.356 . S
N699 H704 0.984 . S
N699 H705 0.985 . S
C700 C694 1.379 . S
C700 C697 1.363 . S
C700 N698 1.356 . S
C701 C695 1.363 . S
C701 C696 1.379 . S
C701 N699 1.356 . S
N702 C694 1.356 . S
N702 H708 0.984 . S
N702 H709 0.984 . S
N703 C696 1.356 . S
N703 H706 0.984 . S
N703 H707 0.985 . S
H704 N699 0.984 . S
H705 N699 0.985 . S
H706 N703 0.984 . S
H707 N703 0.985 . S
H708 N702 0.984 . S
H709 N702 0.984 . S
H710 N698 0.984 . S
H711 N698 0.985 . S
C712 C713 1.363 . S
C712 C718 1.379 . S
C712 N720 1.356 . S
C713 C712 1.363 . S
C713 C719 1.363 . S
C714 C715 1.363 . S
C714 C719 1.379 . S
C714 N721 1.356 . S
C715 C714 1.363 . S
C715 C718 1.363 . S
N716 C718 1.356 . S
N716 H728 0.984 . S
N716 H729 0.985 . S
N717 C719 1.356 . S
N717 H722 0.984 . S
N717 H723 0.985 . S
C718 C712 1.379 . S
C718 C715 1.363 . S
C718 N716 1.356 . S
C719 C713 1.363 . S
C719 C714 1.379 . S
C719 N717 1.356 . S
N720 C712 1.356 . S
N720 H726 0.984 . S
N720 H727 0.984 . S
N721 C714 1.356 . S
N721 H724 0.984 . S
N721 H725 0.985 . S
H722 N717 0.984 . S
H723 N717 0.985 . S
H724 N721 0.984 . S
H725 N721 0.985 . S
H726 N720 0.984 . S
H727 N720 0.984 . S
H728 N716 0.984 . S
H729 N716 0.985 . S
C730 C731 1.363 . S
C730 C736 1.379 . S
C730 N738 1.356 . S
C731 C730 1.363 . S
C731 C737 1.363 . S
C732 C733 1.363 . S
C732 C737 1.379 . S
C732 N739 1.356 . S
C733 C732 1.363 . S
C733 C736 1.363 . S
N734 C736 1.356 . S
N734 H746 0.984 . S
N734 H747 0.985 . S
N735 C737 1.356 . S
N735 H740 0.984 . S
N735 H741 0.985 . S
C736 C730 1.379 . S
C736 C733 1.363 . S
C736 N734 1.356 . S
C737 C731 1.363 . S
C737 C732 1.379 . S
C737 N735 1.356 . S
N738 C730 1.356 . S
N738 H744 0.984 . S
N738 H745 0.984 . S
N739 C732 1.356 . S
N739 H742 0.984 . S
N739 H743 0.985 . S
H740 N735 0.984 . S
H741 N735 0.985 . S
H742 N739 0.984 . S
H743 N739 0.985 . S
H744 N738 0.984 . S
H745 N738 0.984 . S
H746 N734 0.984 . S
H747 N734 0.985 . S
C748 C749 1.363 . S
C748 C754 1.379 . S
C748 N756 1.356 . S
C749 C748 1.363 . S
C749 C755 1.363 . S
C750 C751 1.363 . S
C750 C755 1.379 . S
C750 N757 1.356 . S
C751 C750 1.363 . S
C751 C754 1.363 . S
N752 C754 1.356 . S
N752 H764 0.984 . S
N752 H765 0.985 . S
N753 C755 1.356 . S
N753 H758 0.984 . S
N753 H759 0.985 . S
C754 C748 1.379 . S
C754 C751 1.363 . S
C754 N752 1.356 . S
C755 C749 1.363 . S
C755 C750 1.379 . S
C755 N753 1.356 . S
N756 C748 1.356 . S
N756 H762 0.984 . S
N756 H763 0.984 . S
N757 C750 1.356 . S
N757 H760 0.984 . S
N757 H761 0.985 . S
H758 N753 0.984 . S
H759 N753 0.985 . S
H760 N757 0.984 . S
H761 N757 0.985 . S
H762 N756 0.984 . S
H763 N756 0.984 . S
H764 N752 0.984 . S
H765 N752 0.985 . S
C766 C767 1.363 . S
C766 C772 1.379 . S
C766 N774 1.356 . S
C767 C766 1.363 . S
C767 C773 1.363 . S
C768 C769 1.363 . S
C768 C773 1.379 . S
C768 N775 1.356 . S
C769 C768 1.363 . S
C769 C772 1.363 . S
N770 C772 1.356 . S
N770 H782 0.984 . S
N770 H783 0.985 . S
N771 C773 1.356 . S
N771 H776 0.984 . S
N771 H777 0.985 . S
C772 C766 1.379 . S
C772 C769 1.363 . S
C772 N770 1.356 . S
C773 C767 1.363 . S
C773 C768 1.379 . S
C773 N771 1.356 . S
N774 C766 1.356 . S
N774 H780 0.984 . S
N774 H781 0.984 . S
N775 C768 1.356 . S
N775 H778 0.984 . S
N775 H779 0.985 . S
H776 N771 0.984 . S
H777 N771 0.985 . S
H778 N775 0.984 . S
H779 N775 0.985 . S
H780 N774 0.984 . S
H781 N774 0.984 . S
H782 N770 0.984 . S
H783 N770 0.985 . S
C784 C785 1.363 . S
C784 C790 1.379 . S
C784 N792 1.356 . S
C785 C784 1.363 . S
C785 C791 1.363 . S
C786 C787 1.363 . S
C786 C791 1.379 . S
C786 N793 1.356 . S
C787 C786 1.363 . S
C787 C790 1.363 . S
N788 C790 1.356 . S
N788 H800 0.984 . S
N788 H801 0.985 . S
N789 C791 1.356 . S
N789 H794 0.984 . S
N789 H795 0.985 . S
C790 C784 1.379 . S
C790 C787 1.363 . S
C790 N788 1.356 . S
C791 C785 1.363 . S
C791 C786 1.379 . S
C791 N789 1.356 . S
N792 C784 1.356 . S
N792 H798 0.984 . S
N792 H799 0.984 . S
N793 C786 1.356 . S
N793 H796 0.984 . S
N793 H797 0.985 . S
H794 N789 0.984 . S
H795 N789 0.985 . S
H796 N793 0.984 . S
H797 N793 0.985 . S
H798 N792 0.984 . S
H799 N792 0.984 . S
H800 N788 0.984 . S
H801 N788 0.985 . S
C802 C803 1.363 . S
C802 C808 1.379 . S
C802 N810 1.356 . S
C803 C802 1.363 . S
C803 C809 1.363 . S
C804 C805 1.363 . S
C804 C809 1.379 . S
C804 N811 1.356 . S
C805 C804 1.363 . S
C805 C808 1.363 . S
N806 C808 1.356 . S
N806 H818 0.984 . S
N806 H819 0.985 . S
N807 C809 1.356 . S
N807 H812 0.984 . S
N807 H813 0.985 . S
C808 C802 1.379 . S
C808 C805 1.363 . S
C808 N806 1.356 . S
C809 C803 1.363 . S
C809 C804 1.379 . S
C809 N807 1.356 . S
N810 C802 1.356 . S
N810 H816 0.984 . S
N810 H817 0.984 . S
N811 C804 1.356 . S
N811 H814 0.984 . S
N811 H815 0.985 . S
H812 N807 0.984 . S
H813 N807 0.985 . S
H814 N811 0.984 . S
H815 N811 0.985 . S
H816 N810 0.984 . S
H817 N810 0.984 . S
H818 N806 0.984 . S
H819 N806 0.985 . S
C820 C821 1.363 . S
C820 C826 1.379 . S
C820 N828 1.356 . S
C821 C820 1.363 . S
C821 C827 1.363 . S
C822 C823 1.363 . S
C822 C827 1.379 . S
C822 N829 1.356 . S
C823 C822 1.363 . S
C823 C826 1.363 . S
N824 C826 1.356 . S
N824 H836 0.984 . S
N824 H837 0.985 . S
N825 C827 1.356 . S
N825 H830 0.984 . S
N825 H831 0.985 . S
C826 C820 1.379 . S
C826 C823 1.363 . S
C826 N824 1.356 . S
C827 C821 1.363 . S
C827 C822 1.379 . S
C827 N825 1.356 . S
N828 C820 1.356 . S
N828 H834 0.984 . S
N828 H835 0.984 . S
N829 C822 1.356 . S
N829 H832 0.984 . S
N829 H833 0.985 . S
H830 N825 0.984 . S
H831 N825 0.985 . S
H832 N829 0.984 . S
H833 N829 0.985 . S
H834 N828 0.984 . S
H835 N828 0.984 . S
H836 N824 0.984 . S
H837 N824 0.985 . S
C838 C839 1.363 . S
C838 C844 1.379 . S
C838 N846 1.356 . S
C839 C838 1.363 . S
C839 C845 1.363 . S
C840 C841 1.363 . S
C840 C845 1.379 . S
C840 N847 1.356 . S
C841 C840 1.363 . S
C841 C844 1.363 . S
N842 C844 1.356 . S
N842 H854 0.984 . S
N842 H855 0.985 . S
N843 C845 1.356 . S
N843 H848 0.984 . S
N843 H849 0.985 . S
C844 C838 1.379 . S
C844 C841 1.363 . S
C844 N842 1.356 . S
C845 C839 1.363 . S
C845 C840 1.379 . S
C845 N843 1.356 . S
N846 C838 1.356 . S
N846 H852 0.984 . S
N846 H853 0.984 . S
N847 C840 1.356 . S
N847 H850 0.984 . S
N847 H851 0.985 . S
H848 N843 0.984 . S
H849 N843 0.985 . S
H850 N847 0.984 . S
H851 N847 0.985 . S
H852 N846 0.984 . S
H853 N846 0.984 . S
H854 N842 0.984 . S
H855 N842 0.985 . S
C856 C857 1.363 . S
C856 C862 1.379 . S
C856 N864 1.356 . S
C857 C856 1.363 . S
C857 C863 1.363 . S
C858 C859 1.363 . S
C858 C863 1.379 . S
C858 N865 1.356 . S
C859 C858 1.363 . S
C859 C862 1.363 . S
N860 C862 1.356 . S
N860 H872 0.984 . S
N860 H873 0.985 . S
N861 C863 1.356 . S
N861 H866 0.984 . S
N861 H867 0.985 . S
C862 C856 1.379 . S
C862 C859 1.363 . S
C862 N860 1.356 . S
C863 C857 1.363 . S
C863 C858 1.379 . S
C863 N861 1.356 . S
N864 C856 1.356 . S
N864 H870 0.984 . S
N864 H871 0.984 . S
N865 C858 1.356 . S
N865 H868 0.984 . S
N865 H869 0.985 . S
H866 N861 0.984 . S
H867 N861 0.985 . S
H868 N865 0.984 . S
H869 N865 0.985 . S
H870 N864 0.984 . S
H871 N864 0.984 . S
H872 N860 0.984 . S
H873 N860 0.985 . S
C874 C875 1.363 . S
C874 C880 1.379 . S
C874 N882 1.356 . S
C875 C874 1.363 . S
C875 C881 1.363 . S
C876 C877 1.363 . S
C876 C881 1.379 . S
C876 N883 1.356 . S
C877 C876 1.363 . S
C877 C880 1.363 . S
N878 C880 1.356 . S
N878 H890 0.984 . S
N878 H891 0.985 . S
N879 C881 1.356 . S
N879 H884 0.984 . S
N879 H885 0.985 . S
C880 C874 1.379 . S
C880 C877 1.363 . S
C880 N878 1.356 . S
C881 C875 1.363 . S
C881 C876 1.379 . S
C881 N879 1.356 . S
N882 C874 1.356 . S
N882 H888 0.984 . S
N882 H889 0.984 . S
N883 C876 1.356 . S
N883 H886 0.984 . S
N883 H887 0.985 . S
H884 N879 0.984 . S
H885 N879 0.985 . S
H886 N883 0.984 . S
H887 N883 0.985 . S
H888 N882 0.984 . S
H889 N882 0.984 . S
H890 N878 0.984 . S
H891 N878 0.985 . S
C892 C893 1.363 . S
C892 C898 1.379 . S
C892 N900 1.356 . S
C893 C892 1.363 . S
C893 C899 1.363 . S
C894 C895 1.363 . S
C894 C899 1.379 . S
C894 N901 1.356 . S
C895 C894 1.363 . S
C895 C898 1.363 . S
N896 C898 1.356 . S
N896 H908 0.984 . S
N896 H909 0.985 . S
N897 C899 1.356 . S
N897 H902 0.984 . S
N897 H903 0.985 . S
C898 C892 1.379 . S
C898 C895 1.363 . S
C898 N896 1.356 . S
C899 C893 1.363 . S
C899 C894 1.379 . S
C899 N897 1.356 . S
N900 C892 1.356 . S
N900 H906 0.984 . S
N900 H907 0.984 . S
N901 C894 1.356 . S
N901 H904 0.984 . S
N901 H905 0.985 . S
H902 N897 0.984 . S
H903 N897 0.985 . S
H904 N901 0.984 . S
H905 N901 0.985 . S
H906 N900 0.984 . S
H907 N900 0.984 . S
H908 N896 0.984 . S
H909 N896 0.985 . S
C910 C911 1.363 . S
C910 C916 1.379 . S
C910 N918 1.356 . S
C911 C910 1.363 . S
C911 C917 1.363 . S
C912 C913 1.363 . S
C912 C917 1.379 . S
C912 N919 1.356 . S
C913 C912 1.363 . S
C913 C916 1.363 . S
N914 C916 1.356 . S
N914 H926 0.984 . S
N914 H927 0.985 . S
N915 C917 1.356 . S
N915 H920 0.984 . S
N915 H921 0.985 . S
C916 C910 1.379 . S
C916 C913 1.363 . S
C916 N914 1.356 . S
C917 C911 1.363 . S
C917 C912 1.379 . S
C917 N915 1.356 . S
N918 C910 1.356 . S
N918 H924 0.984 . S
N918 H925 0.984 . S
N919 C912 1.356 . S
N919 H922 0.984 . S
N919 H923 0.985 . S
H920 N915 0.984 . S
H921 N915 0.985 . S
H922 N919 0.984 . S
H923 N919 0.985 . S
H924 N918 0.984 . S
H925 N918 0.984 . S
H926 N914 0.984 . S
H927 N914 0.985 . S
C928 C929 1.363 . S
C928 C934 1.379 1_655 S
C928 N936 1.356 . S
C929 C928 1.363 . S
C929 C935 1.363 1_545 S
C930 C931 1.363 1_565 S
C930 C935 1.379 1_455 S
C930 N937 1.356 . S
C931 C930 1.363 1_545 S
C931 C934 1.363 . S
N932 C934 1.360 . S
N932 H944 0.982 1_554 S
N932 H945 0.984 . S
N933 C935 1.356 . S
N933 H938 0.984 . S
N933 H939 0.985 . S
C934 C928 1.379 1_455 S
C934 C931 1.363 . S
C934 N932 1.360 . S
C935 C929 1.363 1_565 S
C935 C930 1.379 1_655 S
C935 N933 1.356 . S
N936 C928 1.356 . S
N936 H942 0.984 . S
N936 H943 0.984 . S
N937 C930 1.356 . S
N937 H940 0.984 . S
N937 H941 0.985 . S
H938 N933 0.984 . S
H939 N933 0.985 . S
H940 N937 0.984 . S
H941 N937 0.985 . S
H942 N936 0.984 . S
H943 N936 0.984 . S
H944 N932 0.982 1_556 S
H945 N932 0.984 . S
C946 C947 1.363 . S
C946 C952 1.379 . S
C946 N954 1.356 . S
C947 C946 1.363 . S
C947 C953 1.363 . S
C948 C949 1.363 . S
C948 C953 1.379 . S
C948 N955 1.356 . S
C949 C948 1.363 . S
C949 C952 1.363 . S
N950 C952 1.356 . S
N950 H962 0.984 . S
N950 H963 0.985 . S
N951 C953 1.356 . S
N951 H956 0.984 . S
N951 H957 0.985 . S
C952 C946 1.379 . S
C952 C949 1.363 . S
C952 N950 1.356 . S
C953 C947 1.363 . S
C953 C948 1.379 . S
C953 N951 1.356 . S
N954 C946 1.356 . S
N954 H960 0.984 . S
N954 H961 0.984 . S
N955 C948 1.356 . S
N955 H958 0.984 . S
N955 H959 0.985 . S
H956 N951 0.984 . S
H957 N951 0.985 . S
H958 N955 0.984 . S
H959 N955 0.985 . S
H960 N954 0.984 . S
H961 N954 0.984 . S
H962 N950 0.984 . S
H963 N950 0.985 . S
C964 C965 1.363 1_565 S
C964 C970 1.379 . S
C964 N972 1.356 . S
C965 C964 1.363 1_545 S
C965 C971 1.363 . S
C966 C967 1.363 . S
C966 C971 1.379 . S
C966 N973 1.356 . S
C967 C966 1.363 . S
C967 C970 1.363 1_545 S
N968 C970 1.356 . S
N968 H980 0.984 . S
N968 H981 0.985 . S
N969 C971 1.356 . S
N969 H974 0.984 . S
N969 H975 0.985 . S
C970 C964 1.379 . S
C970 C967 1.363 1_565 S
C970 N968 1.356 . S
C971 C965 1.363 . S
C971 C966 1.379 . S
C971 N969 1.356 . S
N972 C964 1.356 . S
N972 H978 0.984 . S
N972 H979 0.984 . S
N973 C966 1.356 . S
N973 H976 0.984 . S
N973 H977 0.985 . S
H974 N969 0.984 . S
H975 N969 0.985 . S
H976 N973 0.984 . S
H977 N973 0.985 . S
H978 N972 0.984 . S
H979 N972 0.984 . S
H980 N968 0.984 . S
H981 N968 0.985 . S
C982 C983 1.363 . S
C982 C988 1.379 . S
C982 N990 1.356 . S
C983 C982 1.363 . S
C983 C989 1.363 . S
C984 C985 1.363 . S
C984 C989 1.379 . S
C984 N991 1.356 . S
C985 C984 1.363 . S
C985 C988 1.363 . S
N986 C988 1.356 . S
N986 H998 0.984 . S
N986 H999 0.985 . S
N987 C989 1.356 . S
N987 H992 0.984 . S
N987 H993 0.985 . S
C988 C982 1.379 . S
C988 C985 1.363 . S
C988 N986 1.356 . S
C989 C983 1.363 . S
C989 C984 1.379 . S
C989 N987 1.356 . S
N990 C982 1.356 . S
N990 H996 0.984 . S
N990 H997 0.984 . S
N991 C984 1.356 . S
N991 H994 0.984 . S
N991 H995 0.985 . S
H992 N987 0.984 . S
H993 N987 0.985 . S
H994 N991 0.984 . S
H995 N991 0.985 . S
H996 N990 0.984 . S
H997 N990 0.984 . S
H998 N986 0.984 . S
H999 N986 0.985 . S
C1000 C1001 1.363 . S
C1000 C1006 1.379 . S
C1000 N1008 1.356 . S
C1001 C1000 1.363 . S
C1001 C1007 1.363 . S
C1002 C1003 1.363 . S
C1002 C1007 1.379 . S
C1002 N1009 1.356 . S
C1003 C1002 1.363 . S
C1003 C1006 1.363 . S
N1004 C1006 1.356 . S
N1004 H1016 0.984 . S
N1004 H1017 0.985 . S
N1005 C1007 1.356 . S
N1005 H1010 0.984 . S
N1005 H1011 0.985 . S
C1006 C1000 1.379 . S
C1006 C1003 1.363 . S
C1006 N1004 1.356 . S
C1007 C1001 1.363 . S
C1007 C1002 1.379 . S
C1007 N1005 1.356 . S
N1008 C1000 1.356 . S
N1008 H1014 0.984 . S
N1008 H1015 0.984 . S
N1009 C1002 1.356 . S
N1009 H1012 0.984 . S
N1009 H1013 0.985 . S
H1010 N1005 0.984 . S
H1011 N1005 0.985 . S
H1012 N1009 0.984 . S
H1013 N1009 0.985 . S
H1014 N1008 0.984 . S
H1015 N1008 0.984 . S
H1016 N1004 0.984 . S
H1017 N1004 0.985 . S
C1018 C1019 1.363 . S
C1018 C1024 1.379 . S
C1018 N1026 1.356 . S
C1019 C1018 1.363 . S
C1019 C1025 1.363 . S
C1020 C1021 1.363 . S
C1020 C1025 1.379 . S
C1020 N1027 1.356 . S
C1021 C1020 1.363 . S
C1021 C1024 1.363 . S
N1022 C1024 1.356 . S
N1022 H1034 0.984 . S
N1022 H1035 0.985 . S
N1023 C1025 1.356 . S
N1023 H1028 0.984 . S
N1023 H1029 0.985 . S
C1024 C1018 1.379 . S
C1024 C1021 1.363 . S
C1024 N1022 1.356 . S
C1025 C1019 1.363 . S
C1025 C1020 1.379 . S
C1025 N1023 1.356 . S
N1026 C1018 1.356 . S
N1026 H1032 0.984 . S
N1026 H1033 0.984 . S
N1027 C1020 1.356 . S
N1027 H1030 0.984 . S
N1027 H1031 0.985 . S
H1028 N1023 0.984 . S
H1029 N1023 0.985 . S
H1030 N1027 0.984 . S
H1031 N1027 0.985 . S
H1032 N1026 0.984 . S
H1033 N1026 0.984 . S
H1034 N1022 0.984 . S
H1035 N1022 0.985 . S
C1036 C1037 1.363 . S
C1036 C1042 1.379 . S
C1036 N1044 1.356 . S
C1037 C1036 1.363 . S
C1037 C1043 1.363 . S
C1038 C1039 1.363 . S
C1038 C1043 1.379 . S
C1038 N1045 1.356 . S
C1039 C1038 1.363 . S
C1039 C1042 1.363 . S
N1040 C1042 1.356 . S
N1040 H1052 0.984 . S
N1040 H1053 0.985 . S
N1041 C1043 1.356 . S
N1041 H1046 0.984 . S
N1041 H1047 0.985 . S
C1042 C1036 1.379 . S
C1042 C1039 1.363 . S
C1042 N1040 1.356 . S
C1043 C1037 1.363 . S
C1043 C1038 1.379 . S
C1043 N1041 1.356 . S
N1044 C1036 1.356 . S
N1044 H1050 0.984 . S
N1044 H1051 0.984 . S
N1045 C1038 1.356 . S
N1045 H1048 0.984 . S
N1045 H1049 0.985 . S
H1046 N1041 0.984 . S
H1047 N1041 0.985 . S
H1048 N1045 0.984 . S
H1049 N1045 0.985 . S
H1050 N1044 0.984 . S
H1051 N1044 0.984 . S
H1052 N1040 0.984 . S
H1053 N1040 0.985 . S
C1054 C1055 1.363 . S
C1054 C1060 1.379 1_655 S
C1054 N1062 1.347 1_554 S
C1055 C1054 1.363 . S
C1055 C1061 1.363 . S
C1056 C1057 1.363 . S
C1056 C1061 1.379 1_455 S
C1056 N1063 1.356 . S
C1057 C1056 1.363 . S
C1057 C1060 1.363 . S
N1058 C1060 1.356 . S
N1058 H1070 0.976 1_554 S
N1058 H1071 0.985 . S
N1059 C1061 1.356 . S
N1059 H1064 0.984 . S
N1059 H1065 0.985 . S
C1060 C1054 1.379 1_455 S
C1060 C1057 1.363 . S
C1060 N1058 1.356 . S
C1061 C1055 1.363 . S
C1061 C1056 1.379 1_655 S
C1061 N1059 1.356 . S
N1062 C1054 1.347 1_556 S
N1062 H1068 0.995 . S
N1062 H1069 0.984 . S
N1063 C1056 1.356 . S
N1063 H1066 0.984 . S
N1063 H1067 0.985 . S
H1064 N1059 0.984 . S
H1065 N1059 0.985 . S
H1066 N1063 0.984 . S
H1067 N1063 0.985 . S
H1068 N1062 0.995 . S
H1069 N1062 0.984 . S
H1070 N1058 0.976 1_556 S
H1071 N1058 0.985 . S
C641 C21 1.486 . S
C643 C141 1.494 . S
C659 C61 1.491 . S
C661 C15 1.502 . S
C677 C55 1.503 . S
C679 C82 1.495 . S
C695 C135 1.504 . S
C697 C95 1.504 . S
C713 C301 1.490 . S
C715 C162 1.493 . S
C731 C175 1.503 . S
C733 C221 1.490 . S
C749 C261 1.500 . S
C751 C215 1.504 . S
C767 C295 1.506 . S
C769 C255 1.507 . S
C785 C461 1.496 . S
C787 C341 1.487 . S
C803 C335 1.503 . S
C805 C381 1.491 . S
C821 C402 1.497 . S
C823 C375 1.504 . S
C839 C415 1.505 . S
C841 C455 1.505 . S
C857 C482 1.495 . S
C859 C621 1.490 . S
C875 C541 1.491 . S
C877 C495 1.503 . S
C893 C535 1.504 . S
C895 C581 1.498 . S
C911 C575 1.508 . S
C913 C615 1.507 . S
C929 C181 1.488 . S
C931 C2 1.487 . S
C947 C522 1.487 . S
C949 C42 1.486 . S
C965 C101 1.508 . S
C967 C242 1.506 . S
C983 C602 1.485 . S
C985 C122 1.504 . S
C1001 C362 1.486 . S
C1003 C202 1.487 . S
C1019 C282 1.486 . S
C1021 C442 1.504 . S
C1037 C501 1.488 . S
C1039 C322 1.487 . S
C1055 C421 1.508 . S
C1057 C562 1.505 . S
