# Generated by pormake.
# Topology qdl, (4)-cn, num edge types: 1
# Building blocks:
#     Node 0, Type 0, BuildingBlock: KOZSID_clean_sbu_0, # of connection points: 4
#     Node 1, Type 0, BuildingBlock: KOZSID_clean_sbu_0, # of connection points: 4
#     Node 2, Type 0, BuildingBlock: KOZSID_clean_sbu_0, # of connection points: 4
#     Node 3, Type 0, BuildingBlock: KOZSID_clean_sbu_0, # of connection points: 4
#     Node 4, Type 0, BuildingBlock: KOZSID_clean_sbu_0, # of connection points: 4
#     Node 5, Type 0, BuildingBlock: KOZSID_clean_sbu_0, # of connection points: 4
#     Edge 6, Type (0, 0), BuildingBlock: UVAHIK_clean_linker_0, # of connection points: 2
#     Edge 7, Type (0, 0), BuildingBlock: UVAHIK_clean_linker_0, # of connection points: 2
#     Edge 8, Type (0, 0), BuildingBlock: UVAHIK_clean_linker_0, # of connection points: 2
#     Edge 9, Type (0, 0), BuildingBlock: UVAHIK_clean_linker_0, # of connection points: 2
#     Edge 10, Type (0, 0), BuildingBlock: UVAHIK_clean_linker_0, # of connection points: 2
#     Edge 11, Type (0, 0), BuildingBlock: UVAHIK_clean_linker_0, # of connection points: 2
#     Edge 12, Type (0, 0), BuildingBlock: UVAHIK_clean_linker_0, # of connection points: 2
#     Edge 13, Type (0, 0), BuildingBlock: UVAHIK_clean_linker_0, # of connection points: 2
#     Edge 14, Type (0, 0), BuildingBlock: UVAHIK_clean_linker_0, # of connection points: 2
#     Edge 15, Type (0, 0), BuildingBlock: UVAHIK_clean_linker_0, # of connection points: 2
#     Edge 16, Type (0, 0), BuildingBlock: UVAHIK_clean_linker_0, # of connection points: 2
#     Edge 17, Type (0, 0), BuildingBlock: UVAHIK_clean_linker_0, # of connection points: 2
# Relax obj value: 0.000
# Max RMSD: 0.052
# Mean RMSD: 0.047
data_MOF--net-qdl--node1-KOZSID_clean_sbu_0--edge1-UVAHIK_clean_linker_0
_symmetry_space_group_name_H-M    P1
_symmetry_Int_Tables_number       1
_symmetry_cell_setting            triclinic
loop_
_symmetry_equiv_pos_as_xyz
'x, y, z'
_cell_length_a     21.118191
_cell_length_b     21.110876
_cell_length_c     143.27513
_cell_angle_alpha  101.5525
_cell_angle_beta   101.52446
_cell_angle_gamma 120.03601
loop_
_atom_site_label
_atom_site_type_symbol
_atom_site_fract_x
_atom_site_fract_y
_atom_site_fract_z
_atom_type_partial_charge
C0 C 0.26078 0.47519 0.09849 0.0
C1 C 0.18899 0.46583 0.09667 0.0
C2 C 0.13341 0.38728 0.093 0.0
C3 C 0.17424 0.35337 0.09276 0.0
N4 N 0.25276 0.40553 0.09622 0.0
Co5 Co 0.33423 0.38218 0.09665 0.0
N6 N 0.25216 0.26665 0.09067 0.0
C7 C 0.1737 0.23025 0.08787 0.0
C8 C 0.13282 0.15023 0.08437 0.0
C9 C 0.18851 0.13448 0.08515 0.0
C10 C 0.26031 0.20618 0.08911 0.0
N11 N 0.41556 0.35888 0.09689 0.0
C12 C 0.40763 0.28929 0.09454 0.0
C13 C 0.47922 0.29872 0.09594 0.0
C14 C 0.53455 0.37727 0.09941 0.0
C15 C 0.49379 0.41112 0.09994 0.0
N16 N 0.41637 0.49757 0.10282 0.0
C17 C 0.49487 0.53378 0.10592 0.0
C18 C 0.53598 0.61378 0.10977 0.0
C19 C 0.48042 0.62974 0.10897 0.0
C20 C 0.40847 0.55817 0.10461 0.0
N21 N 0.34082 0.37756 0.1105 0.0
C22 C 0.34905 0.36563 0.1299 0.0
C23 C 0.41688 0.40563 0.12765 0.0
C24 C 0.41147 0.41066 0.11797 0.0
C25 C 0.27718 0.33259 0.12231 0.0
C26 C 0.27445 0.33936 0.11277 0.0
N27 N 0.32761 0.38665 0.08278 0.0
C28 C 0.38975 0.43713 0.07108 0.0
C29 C 0.31764 0.39322 0.06312 0.0
C30 C 0.25066 0.34639 0.06517 0.0
C31 C 0.25685 0.34441 0.07497 0.0
C32 C 0.39343 0.43264 0.08076 0.0
H33 H 0.20342 0.30851 0.07603 0.0
H34 H 0.45019 0.46691 0.08647 0.0
H35 H 0.46519 0.4409 0.1167 0.0
H36 H 0.21784 0.31278 0.10735 0.0
C37 C 0.14044 0.27292 0.08898 0.0
C38 C 0.33449 0.55096 0.10175 0.0
C39 C 0.33456 0.21377 0.09173 0.0
C40 C 0.52781 0.49133 0.10423 0.0
H41 H 0.1778 0.51102 0.09765 0.0
H42 H 0.07062 0.35831 0.09055 0.0
H43 H 0.07015 0.10842 0.08178 0.0
H44 H 0.17777 0.07685 0.08324 0.0
H45 H 0.49061 0.25369 0.09488 0.0
H46 H 0.59729 0.40631 0.10168 0.0
H47 H 0.59874 0.65555 0.1125 0.0
H48 H 0.49139 0.68747 0.11107 0.0
H49 H 0.47395 0.43168 0.13326 0.0
H50 H 0.22301 0.30204 0.12373 0.0
H51 H 0.44332 0.47389 0.06982 0.0
H52 H 0.19335 0.31216 0.05926 0.0
C53 C 0.36621 0.18677 0.42663 0.0
C54 C 0.43785 0.25837 0.43151 0.0
C55 C 0.42226 0.3142 0.43308 0.0
C56 C 0.34243 0.2737 0.42904 0.0
N57 N 0.30585 0.19516 0.42514 0.0
Co58 Co 0.19071 0.11416 0.41799 0.0
N59 N 0.1682 0.19666 0.41974 0.0
C60 C 0.22043 0.27504 0.42425 0.0
C61 C 0.18684 0.31627 0.4246 0.0
C62 C 0.10832 0.26087 0.42021 0.0
C63 C 0.09875 0.18888 0.41746 0.0
N64 N 0.07576 0.03329 0.41069 0.0
C65 C 0.01537 0.0416 0.40913 0.0
C66 C 0.94402 0.97022 0.40387 0.0
C67 C 0.95986 0.91464 0.40214 0.0
C68 C 0.03956 0.95504 0.40643 0.0
N69 N 0.21303 0.03158 0.41643 0.0
C70 C 0.16054 0.95311 0.41218 0.0
C71 C 0.19388 0.91165 0.41214 0.0
C72 C 0.27245 0.96693 0.41651 0.0
C73 C 0.28232 0.0391 0.41891 0.0
N74 N 0.17832 0.10637 0.43119 0.0
C75 C 0.15939 0.096 0.44989 0.0
C76 C 0.12146 0.02883 0.44123 0.0
C77 C 0.13163 0.0353 0.43204 0.0
C78 C 0.2068 0.1684 0.449 0.0
C79 C 0.21538 0.1722 0.43968 0.0
N80 N 0.20314 0.12195 0.40479 0.0
C81 C 0.18397 0.06078 0.38735 0.0
C82 C 0.22344 0.13339 0.38617 0.0
C83 C 0.25237 0.20009 0.39449 0.0
C84 C 0.24199 0.19313 0.40364 0.0
C85 C 0.17431 0.05643 0.39662 0.0
H86 H 0.26612 0.24631 0.40967 0.0
H87 H 0.14375 0.99938 0.39699 0.0
H88 H 0.10097 0.98196 0.42574 0.0
H89 H 0.25192 0.22917 0.43952 0.0
C90 C 0.30042 0.30789 0.42844 0.0
C91 C 0.35863 0.11297 0.42297 0.0
C92 C 0.02253 0.11479 0.41315 0.0
C93 C 0.08109 0.92059 0.40748 0.0
H94 H 0.4955 0.26929 0.43352 0.0
H95 H 0.46421 0.37695 0.4365 0.0
H96 H 0.21588 0.37897 0.42787 0.0
H97 H 0.06303 0.27192 0.41933 0.0
H98 H 0.8863 0.95913 0.40179 0.0
H99 H 0.91803 0.85195 0.39856 0.0
H100 H 0.16471 0.84886 0.409 0.0
H101 H 0.31759 0.95566 0.41754 0.0
H102 H 0.0847 0.97125 0.44154 0.0
H103 H 0.23645 0.22232 0.45543 0.0
H104 H 0.16134 1.00729 0.3812 0.0
H105 H 0.28229 0.25773 0.39395 0.0
C106 C 0.17242 0.40963 0.75569 0.0
C107 C 0.1694 0.4745 0.75634 0.0
C108 C 0.09294 0.44888 0.75433 0.0
C109 C 0.05397 0.37027 0.75258 0.0
N110 N 0.10108 0.34427 0.75353 0.0
Co111 Co 0.06916 0.23399 0.75127 0.0
N112 N 0.95594 0.19517 0.74755 0.0
C113 C 0.92524 0.23797 0.74716 0.0
C114 C 0.8458 0.19531 0.74476 0.0
C115 C 0.82448 0.12097 0.74371 0.0
C116 C 0.89253 0.12271 0.74551 0.0
N117 N 0.03721 0.12358 0.7489 0.0
C118 C 0.96581 0.05806 0.74665 0.0
C119 C 0.96858 0.99287 0.74573 0.0
C120 C 0.04497 0.01843 0.74766 0.0
C121 C 0.08413 0.09732 0.7496 0.0
N122 N 0.18247 0.27293 0.75511 0.0
C123 C 0.21329 0.23035 0.75572 0.0
C124 C 0.29294 0.27331 0.75833 0.0
C125 C 0.31429 0.34759 0.75933 0.0
C126 C 0.24605 0.34554 0.75726 0.0
N127 N 0.07832 0.25002 0.76575 0.0
C128 C 0.08864 0.26929 0.78618 0.0
C129 C 0.11852 0.23157 0.78144 0.0
C130 C 0.11278 0.22265 0.77133 0.0
C131 C 0.0539 0.29768 0.78052 0.0
C132 C 0.04933 0.28743 0.7704 0.0
N133 N 0.05997 0.21787 0.73679 0.0
C134 C 0.08955 0.17486 0.7223 0.0
C135 C 0.04831 0.19609 0.71627 0.0
C136 C 0.01318 0.22867 0.72071 0.0
C137 C 0.01986 0.23913 0.73089 0.0
C138 C 0.09443 0.18598 0.73242 0.0
H139 H 0.99213 0.26464 0.73382 0.0
H140 H 0.12691 0.16873 0.73657 0.0
H141 H 0.13648 0.19314 0.7682 0.0
H142 H 0.02153 0.30974 0.76649 0.0
C143 C 0.973 0.3188 0.74958 0.0
C144 C 0.24374 0.41242 0.75669 0.0
C145 C 0.89481 0.05549 0.74589 0.0
C146 C 0.16534 0.14911 0.75294 0.0
H147 H 0.21739 0.53382 0.75791 0.0
H148 H 0.06841 0.48307 0.75393 0.0
H149 H 0.80819 0.21621 0.74413 0.0
H150 H 0.76579 0.07157 0.74207 0.0
H151 H 0.92055 0.93343 0.7441 0.0
H152 H 0.0694 0.98408 0.74795 0.0
H153 H 0.33063 0.25253 0.75906 0.0
H154 H 0.37314 0.39708 0.76107 0.0
H155 H 0.1471 0.20955 0.78554 0.0
H156 H 0.0291 0.32661 0.78381 0.0
H157 H 0.11911 0.15069 0.7193 0.0
H158 H 0.97981 0.24537 0.71635 0.0
C159 C 0.95866 0.17 0.57816 0.0
C160 C 0.9679 0.24174 0.57992 0.0
C161 C 0.04639 0.29742 0.58357 0.0
C162 C 0.08041 0.2567 0.58385 0.0
N163 N 0.02835 0.17815 0.58044 0.0
Co164 Co 0.05185 0.09675 0.58002 0.0
N165 N 0.16726 0.17904 0.58616 0.0
C166 C 0.20349 0.25756 0.5891 0.0
C167 C 0.28349 0.29865 0.59275 0.0
C168 C 0.29942 0.24306 0.59193 0.0
C169 C 0.22786 0.1711 0.58779 0.0
N170 N 0.07532 0.01542 0.57969 0.0
C171 C 0.14498 0.02352 0.58205 0.0
C172 C 0.13566 0.95184 0.58049 0.0
C173 C 0.05715 0.89627 0.57688 0.0
C174 C 0.0232 0.93699 0.57644 0.0
N175 N 0.93653 0.01446 0.57379 0.0
C176 C 0.90041 0.93592 0.57068 0.0
C177 C 0.82042 0.89474 0.56689 0.0
C178 C 0.80438 0.95028 0.56777 0.0
C179 C 0.87589 0.0223 0.57209 0.0
N180 N 0.05735 0.09107 0.56621 0.0
C181 C 0.0707 0.08406 0.54689 0.0
C182 C 0.02856 0.01579 0.54897 0.0
C183 C 0.02285 0.0206 0.55861 0.0
C184 C 0.10512 0.15576 0.55461 0.0
C185 C 0.09762 0.15789 0.5641 0.0
N186 N 0.04647 0.10248 0.59383 0.0
C187 C 0.99738 0.03902 0.60549 0.0
C188 C 0.03703 0.11118 0.61337 0.0
C189 C 0.08156 0.17881 0.61128 0.0
C190 C 0.08522 0.17318 0.60156 0.0
C191 C 1.00298 0.03604 0.59587 0.0
H192 H 0.11975 0.22697 0.6005 0.0
H193 H 0.97118 0.97931 0.5902 0.0
H194 H 0.99092 0.96654 0.55974 0.0
H195 H 0.12538 0.2144 0.56962 0.0
C196 C 0.1608 0.2907 0.58784 0.0
C197 C 0.88304 0.09628 0.57499 0.0
C198 C 0.22057 0.09698 0.58506 0.0
C199 C 0.94298 0.90294 0.57221 0.0
H200 H 0.92268 0.25286 0.57894 0.0
H201 H 0.07526 0.36023 0.58604 0.0
H202 H 0.3252 0.36141 0.59543 0.0
H203 H 0.35711 0.254 0.59392 0.0
H204 H 0.1808 0.94062 0.58154 0.0
H205 H 0.02823 0.83348 0.5745 0.0
H206 H 0.77873 0.83194 0.56415 0.0
H207 H 0.74666 0.93926 0.56573 0.0
H208 H 1.00135 0.9588 0.54325 0.0
H209 H 0.13734 0.2103 0.55332 0.0
H210 H 0.96121 0.98485 0.60666 0.0
H211 H 0.11445 0.23617 0.61715 0.0
C212 C 0.04133 0.27996 0.92202 0.0
C213 C 0.97705 0.28371 0.92156 0.0
C214 C 1.00316 0.36035 0.92362 0.0
C215 C 0.08152 0.39881 0.92524 0.0
N216 N 0.1069 0.3512 0.92417 0.0
Co217 Co 0.21712 0.38271 0.92647 0.0
N218 N 0.25637 0.49599 0.93015 0.0
C219 C 0.21391 0.5271 0.93049 0.0
C220 C 0.25699 0.6066 0.93289 0.0
C221 C 0.3312 0.62744 0.93396 0.0
C222 C 0.32884 0.55905 0.93212 0.0
N223 N 0.32755 0.4143 0.92899 0.0
C224 C 0.39343 0.48564 0.93129 0.0
C225 C 0.45829 0.48225 0.93224 0.0
C226 C 0.43225 0.40575 0.93035 0.0
C227 C 0.35338 0.36699 0.92837 0.0
N228 N 0.17768 0.26928 0.92257 0.0
C229 C 0.21973 0.23798 0.92186 0.0
C230 C 0.17614 0.15813 0.91908 0.0
C231 C 0.10199 0.13722 0.91809 0.0
C232 C 0.10494 0.20592 0.92038 0.0
N233 N 0.20179 0.37368 0.91201 0.0
C234 C 0.17935 0.35953 0.89143 0.0
C235 C 0.21971 0.33248 0.89631 0.0
C236 C 0.23031 0.34023 0.9065 0.0
C237 C 0.15117 0.39466 0.89707 0.0
C238 C 0.16287 0.40101 0.90726 0.0
N239 N 0.23229 0.39149 0.94093 0.0
C240 C 0.26748 0.35528 0.95511 0.0
C241 C 0.248 0.39822 0.96117 0.0
C242 C 0.22154 0.43868 0.957 0.0
C243 C 0.21371 0.43415 0.94693 0.0
C244 C 0.2598 0.35319 0.94514 0.0
H245 H 0.19169 0.46495 0.94413 0.0
H246 H 0.27605 0.3197 0.94096 0.0
H247 H 0.26205 0.31891 0.90975 0.0
H248 H 0.13978 0.42813 0.91113 0.0
C249 C 0.13323 0.47972 0.92817 0.0
C250 C 0.03836 0.20847 0.92102 0.0
C251 C 0.39604 0.55654 0.93186 0.0
C252 C 0.3011 0.28569 0.92483 0.0
H253 H 0.91783 0.23628 0.92013 0.0
H254 H 0.96947 0.38535 0.92414 0.0
H255 H 0.23652 0.64458 0.93354 0.0
H256 H 0.38118 0.68603 0.93567 0.0
H257 H 0.51779 0.52968 0.9338 0.0
H258 H 0.46621 0.3809 0.93004 0.0
H259 H 0.19641 0.12002 0.91825 0.0
H260 H 0.05182 0.0784 0.91621 0.0
H261 H 0.24396 0.30613 0.89232 0.0
H262 H 0.11907 0.41612 0.89361 0.0
H263 H 0.28922 0.32379 0.95808 0.0
H264 H 0.20521 0.47229 0.96141 0.0
C265 C 0.25483 0.07899 0.25075 0.0
C266 C 0.18322 1.00737 0.24586 0.0
C267 C 0.12747 0.02305 0.24433 0.0
C268 C 0.16803 0.10292 0.24838 0.0
N269 N 0.24654 0.13943 0.25226 0.0
Co270 Co 0.32766 0.2546 0.2594 0.0
N271 N 0.24528 0.27723 0.25775 0.0
C272 C 0.16687 0.22503 0.2533 0.0
C273 C 0.12573 0.25871 0.25302 0.0
C274 C 0.1812 0.33725 0.25739 0.0
C275 C 0.25313 0.34674 0.26007 0.0
N276 N 0.40866 0.3696 0.26667 0.0
C277 C 0.40044 0.43008 0.26825 0.0
C278 C 0.47188 0.50145 0.27345 0.0
C279 C 0.52743 0.48555 0.27512 0.0
C280 C 0.48693 0.40579 0.27085 0.0
N281 N 0.41009 0.23213 0.26091 0.0
C282 C 0.48855 0.28455 0.26513 0.0
C283 C 0.52988 0.25108 0.26514 0.0
C284 C 0.47452 0.1725 0.26079 0.0
C285 C 0.40245 0.16275 0.25842 0.0
N286 N 0.3349 0.26679 0.24618 0.0
C287 C 0.34441 0.28475 0.22742 0.0
C288 C 0.41184 0.32234 0.23602 0.0
C289 C 0.4058 0.31269 0.24524 0.0
C290 C 0.27219 0.23834 0.2284 0.0
C291 C 0.26883 0.23022 0.23775 0.0
N292 N 0.3204 0.24232 0.27262 0.0
C293 C 0.38197 0.26182 0.29007 0.0
C294 C 0.30942 0.22139 0.29123 0.0
C295 C 0.2426 0.1921 0.28292 0.0
C296 C 0.24933 0.2028 0.27378 0.0
C297 C 0.38609 0.27174 0.2808 0.0
H298 H 0.19604 0.1783 0.26776 0.0
H299 H 0.44308 0.30291 0.28042 0.0
H300 H 0.45932 0.34305 0.2515 0.0
H301 H 0.21198 0.19437 0.23797 0.0
C302 C 0.13392 0.14499 0.24906 0.0
C303 C 0.32856 0.08648 0.25437 0.0
C304 C 0.32722 0.42295 0.26431 0.0
C305 C 0.52122 0.36411 0.26979 0.0
H306 H 0.17223 0.94966 0.24383 0.0
H307 H 0.06473 0.98113 0.24093 0.0
H308 H 0.06305 0.22972 0.2498 0.0
H309 H 0.17022 0.38261 0.25831 0.0
H310 H 0.48302 0.55922 0.27555 0.0
H311 H 0.59012 0.52737 0.27866 0.0
H312 H 0.59264 0.28019 0.26826 0.0
H313 H 0.48569 0.12727 0.25974 0.0
H314 H 0.46929 0.35838 0.23564 0.0
H315 H 0.21807 0.20907 0.22202 0.0
H316 H 0.43557 0.28489 0.29622 0.0
H317 H 0.18499 0.16152 0.28345 0.0
C318 C 0.3483 0.10375 0.08541 0.0
C319 C 0.33611 0.14643 0.09281 0.0
C320 C 0.34867 0.03954 0.08644 0.0
C321 C 0.2801 0.89497 0.0991 0.0
H322 H 0.43738 0.86556 0.09338 0.0
C323 C 0.32155 0.66129 0.10823 0.0
C324 C 0.33419 0.61919 0.10083 0.0
C325 C 0.32216 0.72623 0.10733 0.0
C326 C 0.3926 0.87256 0.0949 0.0
H327 H 0.31432 0.157 0.10697 0.0
H328 H 0.31543 0.0448 0.10886 0.0
H329 H 0.43746 0.97803 0.09157 0.0
H330 H 0.3577 0.61029 0.08678 0.0
H331 H 0.35803 0.72355 0.08509 0.0
H332 H 0.2351 0.78942 0.10241 0.0
C333 C 0.32409 0.06017 0.10224 0.0
C334 C 0.39266 0.93691 0.09386 0.0
C335 C 0.32387 0.12436 0.10121 0.0
C336 C 0.34783 0.64251 0.09255 0.0
C337 C 0.34847 0.70735 0.09164 0.0
C338 C 0.28001 0.83059 0.10013 0.0
C339 C 0.33646 0.01706 0.09486 0.0
C340 C 0.33639 0.94874 0.09595 0.0
C341 C 0.33565 0.74992 0.09902 0.0
C342 C 0.33621 0.81867 0.09803 0.0
H343 H 0.3572 0.12 0.07884 0.0
H344 H 0.35736 1.00681 0.08057 0.0
H345 H 0.23532 0.90199 0.10062 0.0
H346 H 0.31151 0.64401 0.1147 0.0
H347 H 0.3131 0.75847 0.11321 0.0
C348 C 0.48297 0.12501 0.43066 0.0
C349 C 0.42719 0.11322 0.4221 0.0
C350 C 0.54736 0.12463 0.42972 0.0
C351 C 0.61572 0.05636 0.4108 0.0
H352 H 0.82155 0.2126 0.43123 0.0
C353 C 0.89762 0.10203 0.40556 0.0
C354 C 0.9535 0.1134 0.41407 0.0
C355 C 0.83292 0.10155 0.40654 0.0
C356 C 0.76431 0.1681 0.42552 0.0
H357 H 0.39293 0.09141 0.40593 0.0
H358 H 0.50604 0.09146 0.40425 0.0
H359 H 0.70889 0.21219 0.433 0.0
H360 H 0.98761 0.13368 0.4302 0.0
H361 H 0.87404 0.13238 0.43196 0.0
H362 H 0.6712 0.0124 0.40331 0.0
C363 C 0.50006 0.10018 0.41165 0.0
C364 C 0.69983 0.16784 0.42654 0.0
C365 C 0.43581 0.1006 0.4126 0.0
C366 C 0.94465 0.12478 0.42357 0.0
C367 C 0.88013 0.12445 0.42456 0.0
C368 C 0.6802 0.05666 0.40978 0.0
C369 C 0.55654 0.11221 0.4202 0.0
C370 C 0.62488 0.11201 0.41918 0.0
C371 C 0.82358 0.11282 0.41606 0.0
C372 C 0.75515 0.11256 0.41713 0.0
H373 H 0.47649 0.13428 0.43803 0.0
H374 H 0.58938 0.13307 0.43642 0.0
H375 H 0.55849 1.01187 0.40509 0.0
H376 H 0.90428 0.09379 0.3982 0.0
H377 H 0.79082 0.09346 0.39989 0.0
C378 C 0.83209 0.98118 0.75644 0.0
C379 C 0.82817 0.98818 0.74687 0.0
C380 C 0.76902 0.91848 0.7575 0.0
C381 C 0.5571 0.77215 0.745 0.0
H382 H 0.59287 0.66562 0.76241 0.0
C383 C 0.30715 0.4862 0.74612 0.0
C384 C 0.31072 0.47945 0.75571 0.0
C385 C 0.37033 0.54883 0.74508 0.0
C386 C 0.58205 0.69539 0.75761 0.0
H387 H 0.75777 0.93638 0.73086 0.0
H388 H 0.6468 0.82556 0.73263 0.0
H389 H 0.70388 0.77333 0.76039 0.0
H390 H 0.38066 0.53167 0.77174 0.0
H391 H 0.49192 0.64229 0.76998 0.0
H392 H 0.43527 0.69416 0.74221 0.0
C393 C 0.69791 0.86889 0.73935 0.0
C394 C 0.64555 0.75697 0.75645 0.0
C395 C 0.76114 0.93167 0.73831 0.0
C396 C 0.37758 0.53613 0.76428 0.0
C397 C 0.44095 0.59882 0.76325 0.0
C398 C 0.4936 0.71055 0.74616 0.0
C399 C 0.70114 0.86181 0.74897 0.0
C400 C 0.63372 0.79598 0.75013 0.0
C401 C 0.438 0.60567 0.75362 0.0
C402 C 0.50543 0.67154 0.75247 0.0
H403 H 0.88373 0.02469 0.76311 0.0
H404 H 0.77287 0.91511 0.76502 0.0
H405 H 0.54625 0.80192 0.7402 0.0
H406 H 0.25565 0.44259 0.73945 0.0
H407 H 0.36672 0.55207 0.73756 0.0
C408 C 0.3306 0.08347 0.59149 0.0
C409 C 0.28841 0.09604 0.58409 0.0
C410 C 0.39494 0.08315 0.59051 0.0
C411 C 0.48325 0.05809 0.57153 0.0
H412 H 0.67197 0.16325 0.5952 0.0
C413 C 0.77263 0.1093 0.5686 0.0
C414 C 0.81493 0.09663 0.57597 0.0
C415 C 0.70801 0.10903 0.56957 0.0
C416 C 0.61939 0.13294 0.58854 0.0
H417 H 0.27916 0.11904 0.57001 0.0
H418 H 0.39235 0.11933 0.5683 0.0
H419 H 0.55934 0.16287 0.59698 0.0
H420 H 0.82411 0.07284 0.58999 0.0
H421 H 0.71049 0.07164 0.59171 0.0
H422 H 0.54336 0.02825 0.56309 0.0
C423 C 0.37539 0.10847 0.57476 0.0
C424 C 0.55491 0.13268 0.58956 0.0
C425 C 0.31116 0.10879 0.57574 0.0
C426 C 0.79203 0.08318 0.58428 0.0
C427 C 0.72754 0.08295 0.58527 0.0
C428 C 0.54774 0.05838 0.57051 0.0
C429 C 0.41794 0.09556 0.58213 0.0
C430 C 0.48619 0.09531 0.58107 0.0
C431 C 0.68488 0.09596 0.57793 0.0
C432 C 0.61648 0.09582 0.579 0.0
H433 H 0.31358 0.07375 0.59798 0.0
H434 H 0.4261 0.07228 0.59626 0.0
H435 H 0.43068 0.0278 0.56487 0.0
H436 H 0.78978 0.11956 0.56213 0.0
H437 H 0.67675 0.11999 0.56385 0.0
C438 C 0.53345 0.67487 0.93908 0.0
C439 C 0.46312 0.623 0.9308 0.0
C440 C 0.59615 0.73816 0.93804 0.0
C441 C 0.67374 0.80851 0.91869 0.0
H442 H 0.79516 1.0119 0.94023 0.0
C443 C 0.90127 0.08974 0.91381 0.0
C444 C 0.97186 0.14139 0.92206 0.0
C445 C 0.83893 0.02612 0.91486 0.0
C446 C 0.76227 0.95527 0.9342 0.0
H447 H 0.40126 0.59542 0.91505 0.0
H448 H 0.51062 0.70669 0.91318 0.0
H449 H 0.68676 0.90092 0.94215 0.0
H450 H 0.03459 0.16838 0.93774 0.0
H451 H 0.92573 0.05662 0.93962 0.0
H452 H 0.74917 0.86294 0.91073 0.0
C453 C 0.51818 0.69813 0.92043 0.0
C454 C 0.70029 0.89175 0.9353 0.0
C455 C 0.45564 0.63494 0.92149 0.0
C456 C 0.98001 0.12895 0.93134 0.0
C457 C 0.91778 0.0655 0.9324 0.0
C458 C 0.73568 0.87205 0.91759 0.0
C459 C 0.58913 0.75042 0.92869 0.0
C460 C 0.65536 0.81771 0.92756 0.0
C461 C 0.84656 0.01343 0.92418 0.0
C462 C 0.78058 0.94607 0.92533 0.0
H463 H 0.5397 0.66627 0.94633 0.0
H464 H 0.65033 0.777 0.9445 0.0
H465 H 0.64087 0.75189 0.91266 0.0
H466 H 0.8945 0.09882 0.9066 0.0
H467 H 0.78451 0.98742 0.90843 0.0
C468 C 0.31678 0.50051 0.25387 0.0
C469 C 0.32852 0.49193 0.26339 0.0
C470 C 0.31703 0.56498 0.25287 0.0
C471 C 0.38513 0.7652 0.26762 0.0
H472 H 0.22904 0.73603 0.24444 0.0
C473 C 0.34103 1.00948 0.26477 0.0
C474 C 0.32824 0.01789 0.25526 0.0
C475 C 0.34145 0.94525 0.26573 0.0
C476 C 0.27354 0.74521 0.25089 0.0
H477 H 0.34869 0.54156 0.27927 0.0
H478 H 0.34886 0.65495 0.27757 0.0
H479 H 0.22874 0.62343 0.24624 0.0
H480 H 0.30687 0.96824 0.23933 0.0
H481 H 0.30808 0.85535 0.24096 0.0
H482 H 0.42995 0.88697 0.27227 0.0
C483 C 0.34056 0.61267 0.27091 0.0
C484 C 0.27334 0.68078 0.25192 0.0
C485 C 0.34017 0.54802 0.2719 0.0
C486 C 0.31627 0.96191 0.24671 0.0
C487 C 0.31665 0.89754 0.24765 0.0
C488 C 0.38537 0.82964 0.26659 0.0
C489 C 0.32893 0.62174 0.26138 0.0
C490 C 0.3291 0.69012 0.2603 0.0
C491 C 0.32926 0.88858 0.25718 0.0
C492 C 0.32951 0.82029 0.25822 0.0
H493 H 0.30767 0.45737 0.24724 0.0
H494 H 0.30884 0.57087 0.24546 0.0
H495 H 0.42955 0.77433 0.27407 0.0
H496 H 0.35036 0.05253 0.27144 0.0
H497 H 0.35033 0.93944 0.27315 0.0
C498 C 0.29841 0.22962 0.20833 0.0
C499 C 0.34896 0.29378 0.21749 0.0
C500 C 0.30096 0.23828 0.19898 0.0
C501 C 0.42637 0.36421 0.18703 0.0
H502 H 0.22988 0.26633 0.16497 0.0
C503 C 0.40891 0.42182 0.14901 0.0
C504 C 0.35276 0.35786 0.14004 0.0
C505 C 0.41057 0.41477 0.15855 0.0
C506 C 0.2853 0.29322 0.171 0.0
H507 H 0.44207 0.4175 0.22396 0.0
H508 H 0.44686 0.43241 0.2076 0.0
H509 H 0.22912 0.25254 0.18142 0.0
H510 H 0.25622 0.23558 0.13402 0.0
H511 H 0.25945 0.22303 0.15061 0.0
H512 H 0.48255 0.40458 0.17658 0.0
C513 C 0.4057 0.37523 0.20769 0.0
C514 C 0.28483 0.28538 0.18044 0.0
C515 C 0.40299 0.36663 0.21706 0.0
C516 C 0.29925 0.28636 0.1408 0.0
C517 C 0.30107 0.27923 0.15031 0.0
C518 C 0.42686 0.37186 0.17756 0.0
C519 C 0.35429 0.31125 0.19854 0.0
C520 C 0.3553 0.32053 0.18855 0.0
C521 C 0.35628 0.34349 0.15931 0.0
C522 C 0.35628 0.33621 0.16942 0.0
H523 H 0.25713 0.17234 0.20838 0.0
H524 H 0.26152 0.18754 0.19207 0.0
H525 H 0.48164 0.39129 0.1931 0.0
H526 H 0.45043 0.4779 0.14868 0.0
H527 H 0.45328 0.46568 0.16532 0.0
C528 C 0.01528 0.02637 0.52776 0.0
C529 C 0.07928 0.08097 0.5368 0.0
C530 C 0.02315 0.02543 0.51827 0.0
C531 C 0.1481 0.15121 0.50617 0.0
H532 H 0.04762 0.95589 0.48374 0.0
C533 C 0.21354 0.14032 0.46896 0.0
C534 C 0.14958 0.0909 0.45976 0.0
C535 C 0.20419 0.13708 0.47827 0.0
C536 C 0.0754 1.01091 0.48991 0.0
H537 H 0.20238 0.1754 0.54298 0.0
H538 H 0.21628 0.17344 0.52647 0.0
H539 H 0.03292 0.95358 0.50017 0.0
H540 H 0.02548 0.99923 0.45317 0.0
H541 H 1.00932 0.99331 0.46944 0.0
H542 H 0.19082 0.20854 0.49593 0.0
C543 C 0.15951 0.13252 0.52669 0.0
C544 C 0.06694 1.00961 0.49932 0.0
C545 C 0.15159 0.13361 0.53615 0.0
C546 C 0.07619 0.03741 0.4601 0.0
C547 C 0.06689 0.03404 0.46942 0.0
C548 C 0.15671 0.15248 0.49678 0.0
C549 C 0.09526 0.0789 0.51763 0.0
C550 C 0.10344 0.07978 0.50757 0.0
C551 C 0.1307 0.08423 0.47861 0.0
C552 C 0.1207 0.08239 0.48855 0.0
H553 H 0.95861 0.98557 0.52801 0.0
H554 H 0.97225 0.98396 0.51145 0.0
H555 H 0.17572 0.20636 0.5123 0.0
H556 H 0.27118 0.18117 0.46897 0.0
H557 H 0.2548 0.17559 0.48521 0.0
C558 C 0.11256 0.34892 0.80369 0.0
C559 C 0.09383 0.27869 0.79692 0.0
C560 C 0.11984 0.35833 0.81388 0.0
C561 C 0.158 0.28122 0.83367 0.0
H562 H 0.07439 0.38153 0.84759 0.0
C563 C 0.14682 0.28124 0.87346 0.0
C564 C 0.16671 0.35072 0.88054 0.0
C565 C 0.13664 0.27323 0.86326 0.0
C566 C 0.09883 0.35419 0.84384 0.0
H567 H 0.06523 0.16231 0.79549 0.0
H568 H 0.07816 0.17883 0.81323 0.0
H569 H 0.05864 0.36611 0.82975 0.0
H570 H 0.19144 0.46632 0.88246 0.0
H571 H 0.17391 0.45244 0.86463 0.0
H572 H 0.19849 0.26948 0.84772 0.0
C573 C 0.08866 0.22716 0.81071 0.0
C574 C 0.08976 0.34532 0.83362 0.0
C575 C 0.08129 0.21771 0.80054 0.0
C576 C 0.17526 0.41172 0.87717 0.0
C577 C 0.16519 0.40374 0.86695 0.0
C578 C 0.16716 0.29018 0.84387 0.0
C579 C 0.10863 0.29777 0.81752 0.0
C580 C 0.1189 0.30835 0.82841 0.0
C581 C 0.14624 0.33455 0.85989 0.0
C582 C 0.13735 0.32638 0.84907 0.0
H583 H 0.12346 0.39736 0.80118 0.0
H584 H 0.13609 0.41374 0.81896 0.0
H585 H 0.18245 0.25383 0.82993 0.0
H586 H 0.13838 0.2326 0.87577 0.0
H587 H 0.12055 0.21858 0.85798 0.0
C588 C 0.35241 0.46757 0.05127 0.0
C589 C 0.31199 0.39581 0.05274 0.0
C590 C 0.34533 0.46981 0.04145 0.0
C591 C 0.21823 0.34884 0.01429 0.0
H592 H 0.39738 0.49975 0.00907 0.0
C593 C 0.22532 0.3302 0.97381 0.0
C594 C 0.25442 0.39986 0.97173 0.0
C595 C 0.23152 0.33142 0.98374 0.0
C596 C 0.34671 0.45778 0.01045 0.0
H597 H 0.23429 0.27009 0.04513 0.0
H598 H 0.22342 0.27357 0.02802 0.0
H599 H 0.41085 0.49817 0.02633 0.0
H600 H 0.31324 0.52541 0.97838 0.0
H601 H 0.32474 0.52763 0.99582 0.0
H602 H 0.1548 0.30734 0.99833 0.0
C603 C 0.25877 0.32844 0.0344 0.0
C604 C 0.35427 0.45694 0.02033 0.0
C605 C 0.26522 0.32631 0.04421 0.0
C606 C 0.28993 0.47082 0.97978 0.0
C607 C 0.29702 0.47216 0.98974 0.0
C608 C 0.21096 0.34917 1.0044 0.0
C609 C 0.29827 0.40023 0.03287 0.0
C610 C 0.29016 0.40225 0.02238 0.0
C611 C 0.26772 0.40242 0.99182 0.0
C612 C 0.27515 0.40347 1.00237 0.0
H613 H 0.38822 0.52211 0.05772 0.0
H614 H 0.37568 0.52623 0.04058 0.0
H615 H 0.16712 0.307 0.01559 0.0
H616 H 0.1971 0.2746 0.96774 0.0
H617 H 0.20893 0.27686 0.98513 0.0
C618 C 0.24069 0.13983 0.30105 0.0
C619 C 0.3032 0.20992 0.30102 0.0
C620 C 0.23335 0.12986 0.31021 0.0
C621 C 0.34384 0.20006 0.33748 0.0
H622 H 0.14141 0.11998 0.34032 0.0
C623 C 0.30336 0.20256 0.37622 0.0
C624 C 0.23407 0.13964 0.37634 0.0
C625 C 0.31259 0.20953 0.36701 0.0
C626 C 0.19809 0.14123 0.33963 0.0
H627 H 0.40724 0.32435 0.3107 0.0
H628 H 0.39507 0.30608 0.32669 0.0
H629 H 0.15641 0.13425 0.3243 0.0
H630 H 0.12021 0.03444 0.36677 0.0
H631 H 0.13751 0.04489 0.35075 0.0
H632 H 0.38549 0.2061 0.35273 0.0
C633 C 0.35197 0.25887 0.31958 0.0
C634 C 0.20667 0.14963 0.33044 0.0
C635 C 0.35898 0.26919 0.31041 0.0
C636 C 0.17472 0.08325 0.367 0.0
C637 C 0.1842 0.08988 0.35779 0.0
C638 C 0.33514 0.19097 0.34664 0.0
C639 C 0.28871 0.18936 0.31957 0.0
C640 C 0.27966 0.17939 0.32928 0.0
C641 C 0.25303 0.15341 0.35767 0.0
C642 C 0.26219 0.16171 0.34785 0.0
H643 H 0.19755 0.09224 0.29398 0.0
H644 H 0.18461 0.07519 0.30997 0.0
H645 H 0.4006 0.22229 0.33676 0.0
H646 H 0.35086 0.24651 0.38326 0.0
H647 H 0.36605 0.25971 0.36724 0.0
C648 C 0.02965 0.1763 0.62947 0.0
C649 C 0.03259 0.11615 0.62371 0.0
C650 C 0.02797 0.18252 0.6393 0.0
C651 C 0.07488 0.12131 0.66071 0.0
H652 H 0.95101 0.18696 0.67049 0.0
C653 C 0.03411 0.11799 0.69931 0.0
C654 C 0.04249 0.18463 0.70546 0.0
C655 C 0.03048 0.108 0.68923 0.0
C656 C 0.98634 0.16915 0.66789 0.0
H657 H 0.0355 0.01496 0.62379 0.0
H658 H 0.03004 0.02431 0.64079 0.0
H659 H 0.94769 0.17106 0.65302 0.0
H660 H 0.05381 0.29314 0.70579 0.0
H661 H 0.04628 0.27497 0.68815 0.0
H662 H 0.11295 0.11883 0.67557 0.0
C663 C 0.03047 0.06761 0.63778 0.0
C664 C 0.9846 0.16016 0.65788 0.0
C665 C 0.03253 0.06161 0.62796 0.0
C666 C 0.04614 0.24053 0.70123 0.0
C667 C 0.04199 0.23025 0.69113 0.0
C668 C 0.07619 0.1298 0.67069 0.0
C669 C 0.02874 0.12848 0.6436 0.0
C670 C 0.02909 0.1364 0.65418 0.0
C671 C 0.03458 0.1641 0.68504 0.0
C672 C 0.03217 0.15407 0.67439 0.0
H673 H 0.02846 0.21868 0.62639 0.0
H674 H 0.02747 0.23062 0.64359 0.0
H675 H 0.111 0.10434 0.65819 0.0
H676 H 0.02961 0.073 0.70224 0.0
H677 H 0.02361 0.05584 0.68468 0.0
loop_
_geom_bond_atom_site_label_1
_geom_bond_atom_site_label_2
_geom_bond_distance
_geom_bond_site_symmetry_2
_ccdc_geom_bond_type
C0 C1 1.443 . S
C0 N4 1.376 . S
C0 C38 1.389 . S
C1 C0 1.443 . S
C1 C2 1.340 . S
C1 H41 0.951 . S
C2 C1 1.340 . S
C2 C3 1.439 . S
C2 H42 0.950 . S
C3 C2 1.439 . S
C3 N4 1.374 . S
C3 C37 1.395 . S
N4 C0 1.376 . S
N4 C3 1.374 . S
N4 Co5 2.008 . S
Co5 N4 2.008 . S
Co5 N6 1.995 . S
Co5 N11 2.008 . S
Co5 N16 1.995 . S
Co5 N21 2.282 . S
Co5 N27 2.282 . S
N6 Co5 1.995 . S
N6 C7 1.376 . S
N6 C10 1.383 . S
C7 N6 1.376 . S
C7 C8 1.446 . S
C7 C37 1.391 . S
C8 C7 1.446 . S
C8 C9 1.339 . S
C8 H43 0.949 . S
C9 C8 1.339 . S
C9 C10 1.439 . S
C9 H44 0.950 . S
C10 N6 1.383 . S
C10 C9 1.439 . S
C10 C39 1.392 . S
N11 Co5 2.008 . S
N11 C12 1.376 . S
N11 C15 1.374 . S
C12 N11 1.376 . S
C12 C13 1.443 . S
C12 C39 1.389 . S
C13 C12 1.443 . S
C13 C14 1.340 . S
C13 H45 0.951 . S
C14 C13 1.340 . S
C14 C15 1.439 . S
C14 H46 0.950 . S
C15 N11 1.374 . S
C15 C14 1.439 . S
C15 C40 1.395 . S
N16 Co5 1.995 . S
N16 C17 1.376 . S
N16 C20 1.383 . S
C17 N16 1.376 . S
C17 C18 1.446 . S
C17 C40 1.391 . S
C18 C17 1.446 . S
C18 C19 1.339 . S
C18 H47 0.949 . S
C19 C18 1.339 . S
C19 C20 1.439 . S
C19 H48 0.950 . S
C20 N16 1.383 . S
C20 C19 1.439 . S
C20 C38 1.392 . S
N21 Co5 2.282 . S
N21 C24 1.332 . S
N21 C26 1.332 . S
C22 C23 1.386 . S
C22 C25 1.388 . S
C23 C22 1.386 . S
C23 C24 1.382 . S
C23 H49 0.950 . S
C24 N21 1.332 . S
C24 C23 1.382 . S
C24 H35 0.952 . S
C25 C22 1.388 . S
C25 C26 1.382 . S
C25 H50 0.950 . S
C26 N21 1.332 . S
C26 C25 1.382 . S
C26 H36 0.948 . S
N27 Co5 2.282 . S
N27 C31 1.332 . S
N27 C32 1.332 . S
C28 C29 1.388 . S
C28 C32 1.382 . S
C28 H51 0.950 . S
C29 C28 1.388 . S
C29 C30 1.386 . S
C30 C29 1.386 . S
C30 C31 1.382 . S
C30 H52 0.950 . S
C31 N27 1.332 . S
C31 C30 1.382 . S
C31 H33 0.952 . S
C32 N27 1.332 . S
C32 C28 1.382 . S
C32 H34 0.948 . S
H33 C31 0.952 . S
H34 C32 0.948 . S
H35 C24 0.952 . S
H36 C26 0.948 . S
C37 C3 1.395 . S
C37 C7 1.391 . S
C38 C0 1.389 . S
C38 C20 1.392 . S
C39 C10 1.392 . S
C39 C12 1.389 . S
C40 C15 1.395 . S
C40 C17 1.391 . S
H41 C1 0.951 . S
H42 C2 0.950 . S
H43 C8 0.949 . S
H44 C9 0.950 . S
H45 C13 0.951 . S
H46 C14 0.950 . S
H47 C18 0.949 . S
H48 C19 0.950 . S
H49 C23 0.950 . S
H50 C25 0.950 . S
H51 C28 0.950 . S
H52 C30 0.950 . S
C53 C54 1.443 . S
C53 N57 1.376 . S
C53 C91 1.389 . S
C54 C53 1.443 . S
C54 C55 1.340 . S
C54 H94 0.951 . S
C55 C54 1.340 . S
C55 C56 1.439 . S
C55 H95 0.950 . S
C56 C55 1.439 . S
C56 N57 1.374 . S
C56 C90 1.395 . S
N57 C53 1.376 . S
N57 C56 1.374 . S
N57 Co58 2.008 . S
Co58 N57 2.008 . S
Co58 N59 1.995 . S
Co58 N64 2.008 1_545 S
Co58 N69 1.995 1_545 S
Co58 N74 2.282 . S
Co58 N80 2.282 . S
N59 Co58 1.995 . S
N59 C60 1.376 . S
N59 C63 1.383 . S
C60 N59 1.376 . S
C60 C61 1.446 . S
C60 C90 1.391 . S
C61 C60 1.446 . S
C61 C62 1.339 . S
C61 H96 0.949 . S
C62 C61 1.339 . S
C62 C63 1.439 . S
C62 H97 0.950 . S
C63 N59 1.383 . S
C63 C62 1.439 . S
C63 C92 1.392 1_455 S
N64 Co58 2.008 1_565 S
N64 C65 1.376 1_455 S
N64 C68 1.374 1_455 S
C65 N64 1.376 1_655 S
C65 C66 1.443 . S
C65 C92 1.389 1_565 S
C66 C65 1.443 . S
C66 C67 1.340 . S
C66 H98 0.951 . S
C67 C66 1.340 . S
C67 C68 1.439 . S
C67 H99 0.950 . S
C68 N64 1.374 1_655 S
C68 C67 1.439 . S
C68 C93 1.395 1_655 S
N69 Co58 1.995 1_565 S
N69 C70 1.376 . S
N69 C73 1.383 . S
C70 N69 1.376 . S
C70 C71 1.446 . S
C70 C93 1.391 . S
C71 C70 1.446 . S
C71 C72 1.339 . S
C71 H100 0.949 . S
C72 C71 1.339 . S
C72 C73 1.439 . S
C72 H101 0.950 . S
C73 N69 1.383 . S
C73 C72 1.439 . S
C73 C91 1.392 1_565 S
N74 Co58 2.282 . S
N74 C77 1.332 1_545 S
N74 C79 1.332 . S
C75 C76 1.386 . S
C75 C78 1.388 1_565 S
C76 C75 1.386 . S
C76 C77 1.382 . S
C76 H102 0.950 . S
C77 N74 1.332 1_565 S
C77 C76 1.382 . S
C77 H88 0.952 . S
C78 C75 1.388 1_545 S
C78 C79 1.382 . S
C78 H103 0.950 . S
C79 N74 1.332 . S
C79 C78 1.382 . S
C79 H89 0.948 . S
N80 Co58 2.282 . S
N80 C84 1.332 . S
N80 C85 1.332 1_545 S
C81 C82 1.388 1_565 S
C81 C85 1.382 . S
C81 H104 0.950 . S
C82 C81 1.388 1_545 S
C82 C83 1.386 . S
C83 C82 1.386 . S
C83 C84 1.382 . S
C83 H105 0.950 . S
C84 N80 1.332 . S
C84 C83 1.382 . S
C84 H86 0.952 . S
C85 N80 1.332 1_565 S
C85 C81 1.382 . S
C85 H87 0.948 . S
H86 C84 0.952 . S
H87 C85 0.948 . S
H88 C77 0.952 . S
H89 C79 0.948 . S
C90 C56 1.395 . S
C90 C60 1.391 . S
C91 C53 1.389 . S
C91 C73 1.392 1_545 S
C92 C63 1.392 1_655 S
C92 C65 1.389 1_545 S
C93 C68 1.395 1_455 S
C93 C70 1.391 . S
H94 C54 0.951 . S
H95 C55 0.950 . S
H96 C61 0.949 . S
H97 C62 0.950 . S
H98 C66 0.951 . S
H99 C67 0.950 . S
H100 C71 0.949 . S
H101 C72 0.950 . S
H102 C76 0.950 . S
H103 C78 0.950 . S
H104 C81 0.950 . S
H105 C83 0.950 . S
C106 C107 1.443 . S
C106 N110 1.376 . S
C106 C144 1.389 . S
C107 C106 1.443 . S
C107 C108 1.340 . S
C107 H147 0.951 . S
C108 C107 1.340 . S
C108 C109 1.439 1_455 S
C108 H148 0.950 . S
C109 C108 1.439 1_655 S
C109 N110 1.374 1_655 S
C109 C143 1.395 . S
N110 C106 1.376 . S
N110 C109 1.374 1_455 S
N110 Co111 2.008 . S
Co111 N110 2.008 . S
Co111 N112 1.995 1_455 S
Co111 N117 2.006 . S
Co111 N122 1.995 . S
Co111 N127 2.282 . S
Co111 N133 2.282 . S
N112 Co111 1.995 1_655 S
N112 C113 1.376 . S
N112 C116 1.383 . S
C113 N112 1.376 . S
C113 C114 1.446 . S
C113 C143 1.391 . S
C114 C113 1.446 . S
C114 C115 1.339 . S
C114 H149 0.949 . S
C115 C114 1.339 . S
C115 C116 1.439 . S
C115 H150 0.950 . S
C116 N112 1.383 . S
C116 C115 1.439 . S
C116 C145 1.392 . S
N117 Co111 2.006 . S
N117 C118 1.373 1_455 S
N117 C121 1.379 . S
C118 N117 1.373 1_655 S
C118 C119 1.443 . S
C118 C145 1.389 . S
C119 C118 1.443 . S
C119 C120 1.340 1_655 S
C119 H151 0.951 1_545 S
C120 C119 1.340 1_455 S
C120 C121 1.439 . S
C120 H152 0.950 . S
C121 N117 1.379 . S
C121 C120 1.439 . S
C121 C146 1.395 . S
N122 Co111 1.995 . S
N122 C123 1.376 . S
N122 C126 1.383 . S
C123 N122 1.376 . S
C123 C124 1.446 . S
C123 C146 1.391 . S
C124 C123 1.446 . S
C124 C125 1.339 . S
C124 H153 0.949 . S
C125 C124 1.339 . S
C125 C126 1.439 . S
C125 H154 0.950 . S
C126 N122 1.383 . S
C126 C125 1.439 . S
C126 C144 1.392 . S
N127 Co111 2.282 . S
N127 C130 1.332 . S
N127 C132 1.332 1_455 S
C128 C129 1.386 . S
C128 C131 1.388 1_455 S
C129 C128 1.386 . S
C129 C130 1.382 . S
C129 H155 0.950 . S
C130 N127 1.332 . S
C130 C129 1.382 . S
C130 H141 0.952 . S
C131 C128 1.388 1_655 S
C131 C132 1.382 . S
C131 H156 0.950 . S
C132 N127 1.332 1_655 S
C132 C131 1.382 . S
C132 H142 0.948 . S
N133 Co111 2.282 . S
N133 C137 1.332 1_455 S
N133 C138 1.332 . S
C134 C135 1.388 . S
C134 C138 1.382 . S
C134 H157 0.950 . S
C135 C134 1.388 . S
C135 C136 1.386 1_455 S
C136 C135 1.386 1_655 S
C136 C137 1.382 . S
C136 H158 0.950 . S
C137 N133 1.332 1_655 S
C137 C136 1.382 . S
C137 H139 0.952 . S
C138 N133 1.332 . S
C138 C134 1.382 . S
C138 H140 0.948 . S
H139 C137 0.952 . S
H140 C138 0.948 . S
H141 C130 0.952 . S
H142 C132 0.948 . S
C143 C109 1.395 . S
C143 C113 1.391 . S
C144 C106 1.389 . S
C144 C126 1.392 . S
C145 C116 1.392 . S
C145 C118 1.389 . S
C146 C121 1.395 . S
C146 C123 1.391 . S
H147 C107 0.951 . S
H148 C108 0.950 . S
H149 C114 0.949 . S
H150 C115 0.950 . S
H151 C119 0.951 1_565 S
H152 C120 0.950 . S
H153 C124 0.949 . S
H154 C125 0.950 . S
H155 C129 0.950 . S
H156 C131 0.950 . S
H157 C134 0.950 . S
H158 C136 0.950 . S
C159 C160 1.443 . S
C159 N163 1.376 . S
C159 C197 1.389 . S
C160 C159 1.443 . S
C160 C161 1.340 1_655 S
C160 H200 0.951 . S
C161 C160 1.340 1_455 S
C161 C162 1.439 . S
C161 H201 0.950 . S
C162 C161 1.439 . S
C162 N163 1.374 1_455 S
C162 C196 1.395 . S
N163 C159 1.376 . S
N163 C162 1.374 1_655 S
N163 Co164 2.008 1_655 S
Co164 N163 2.008 1_455 S
Co164 N165 1.995 . S
Co164 N170 2.008 1_545 S
Co164 N175 1.995 1_445 S
Co164 N180 2.282 . S
Co164 N186 2.282 . S
N165 Co164 1.995 . S
N165 C166 1.376 . S
N165 C169 1.383 . S
C166 N165 1.376 . S
C166 C167 1.446 . S
C166 C196 1.391 . S
C167 C166 1.446 . S
C167 C168 1.339 . S
C167 H202 0.949 . S
C168 C167 1.339 . S
C168 C169 1.439 . S
C168 H203 0.950 . S
C169 N165 1.383 . S
C169 C168 1.439 . S
C169 C198 1.392 . S
N170 Co164 2.008 1_565 S
N170 C171 1.376 . S
N170 C174 1.374 1_455 S
C171 N170 1.376 . S
C171 C172 1.443 . S
C171 C198 1.389 1_565 S
C172 C171 1.443 . S
C172 C173 1.340 . S
C172 H204 0.951 . S
C173 C172 1.340 . S
C173 C174 1.439 1_455 S
C173 H205 0.950 1_455 S
C174 N170 1.374 1_655 S
C174 C173 1.439 1_655 S
C174 C199 1.395 . S
N175 Co164 1.995 1_665 S
N175 C176 1.376 . S
N175 C179 1.383 . S
C176 N175 1.376 . S
C176 C177 1.446 . S
C176 C199 1.391 . S
C177 C176 1.446 . S
C177 C178 1.339 . S
C177 H206 0.949 . S
C178 C177 1.339 . S
C178 C179 1.439 . S
C178 H207 0.950 . S
C179 N175 1.383 . S
C179 C178 1.439 . S
C179 C197 1.392 1_565 S
N180 Co164 2.282 . S
N180 C183 1.332 1_445 S
N180 C185 1.332 . S
C181 C182 1.386 1_455 S
C181 C184 1.388 1_565 S
C182 C181 1.386 1_655 S
C182 C183 1.382 . S
C182 H208 0.950 . S
C183 N180 1.332 1_665 S
C183 C182 1.382 . S
C183 H194 0.952 . S
C184 C181 1.388 1_545 S
C184 C185 1.382 . S
C184 H209 0.950 . S
C185 N180 1.332 . S
C185 C184 1.382 . S
C185 H195 0.948 . S
N186 Co164 2.282 . S
N186 C190 1.332 . S
N186 C191 1.332 1_445 S
C187 C188 1.389 1_565 S
C187 C191 1.382 . S
C187 H210 0.950 . S
C188 C187 1.389 1_545 S
C188 C189 1.380 1_655 S
C189 C188 1.380 1_455 S
C189 C190 1.382 . S
C189 H211 0.950 . S
C190 N186 1.332 . S
C190 C189 1.382 . S
C190 H192 0.952 . S
C191 N186 1.332 1_665 S
C191 C187 1.382 . S
C191 H193 0.948 . S
H192 C190 0.952 . S
H193 C191 0.948 . S
H194 C183 0.952 . S
H195 C185 0.948 . S
C196 C162 1.395 . S
C196 C166 1.391 . S
C197 C159 1.389 . S
C197 C179 1.392 1_545 S
C198 C169 1.392 . S
C198 C171 1.389 1_545 S
C199 C174 1.395 . S
C199 C176 1.391 . S
H200 C160 0.951 . S
H201 C161 0.950 . S
H202 C167 0.949 . S
H203 C168 0.950 . S
H204 C172 0.951 . S
H205 C173 0.950 1_655 S
H206 C177 0.949 . S
H207 C178 0.950 . S
H208 C182 0.950 . S
H209 C184 0.950 . S
H210 C187 0.950 . S
H211 C189 0.950 . S
C212 C213 1.443 . S
C212 N216 1.376 1_655 S
C212 C250 1.389 . S
C213 C212 1.443 . S
C213 C214 1.340 . S
C213 H253 0.951 . S
C214 C213 1.340 . S
C214 C215 1.439 1_655 S
C214 H254 0.950 . S
C215 C214 1.439 1_455 S
C215 N216 1.374 . S
C215 C249 1.395 . S
N216 C212 1.376 1_455 S
N216 C215 1.374 . S
N216 Co217 2.008 . S
Co217 N216 2.008 . S
Co217 N218 1.995 . S
Co217 N223 2.008 . S
Co217 N228 1.995 . S
Co217 N233 2.282 . S
Co217 N239 2.282 . S
N218 Co217 1.995 . S
N218 C219 1.376 . S
N218 C222 1.383 . S
C219 N218 1.376 . S
C219 C220 1.446 . S
C219 C249 1.391 . S
C220 C219 1.446 . S
C220 C221 1.339 . S
C220 H255 0.949 . S
C221 C220 1.339 . S
C221 C222 1.439 . S
C221 H256 0.950 . S
C222 N218 1.383 . S
C222 C221 1.439 . S
C222 C251 1.392 . S
N223 Co217 2.008 . S
N223 C224 1.376 . S
N223 C227 1.374 . S
C224 N223 1.376 . S
C224 C225 1.443 . S
C224 C251 1.389 . S
C225 C224 1.443 . S
C225 C226 1.340 . S
C225 H257 0.951 . S
C226 C225 1.340 . S
C226 C227 1.439 . S
C226 H258 0.950 . S
C227 N223 1.374 . S
C227 C226 1.439 . S
C227 C252 1.395 . S
N228 Co217 1.995 . S
N228 C229 1.376 . S
N228 C232 1.383 . S
C229 N228 1.376 . S
C229 C230 1.446 . S
C229 C252 1.391 . S
C230 C229 1.446 . S
C230 C231 1.339 . S
C230 H259 0.949 . S
C231 C230 1.339 . S
C231 C232 1.439 . S
C231 H260 0.950 . S
C232 N228 1.383 . S
C232 C231 1.439 . S
C232 C250 1.392 1_455 S
N233 Co217 2.282 . S
N233 C236 1.332 . S
N233 C238 1.332 . S
C234 C235 1.386 . S
C234 C237 1.388 . S
C235 C234 1.386 . S
C235 C236 1.382 . S
C235 H261 0.950 . S
C236 N233 1.332 . S
C236 C235 1.382 . S
C236 H247 0.952 . S
C237 C234 1.388 . S
C237 C238 1.382 . S
C237 H262 0.950 . S
C238 N233 1.332 . S
C238 C237 1.382 . S
C238 H248 0.948 . S
N239 Co217 2.282 . S
N239 C243 1.332 . S
N239 C244 1.332 . S
C240 C241 1.388 . S
C240 C244 1.382 . S
C240 H263 0.950 . S
C241 C240 1.388 . S
C241 C242 1.386 . S
C242 C241 1.386 . S
C242 C243 1.382 . S
C242 H264 0.950 . S
C243 N239 1.332 . S
C243 C242 1.382 . S
C243 H245 0.952 . S
C244 N239 1.332 . S
C244 C240 1.382 . S
C244 H246 0.948 . S
H245 C243 0.952 . S
H246 C244 0.948 . S
H247 C236 0.952 . S
H248 C238 0.948 . S
C249 C215 1.395 . S
C249 C219 1.391 . S
C250 C212 1.389 . S
C250 C232 1.392 1_655 S
C251 C222 1.392 . S
C251 C224 1.389 . S
C252 C227 1.395 . S
C252 C229 1.391 . S
H253 C213 0.951 . S
H254 C214 0.950 . S
H255 C220 0.949 . S
H256 C221 0.950 . S
H257 C225 0.951 . S
H258 C226 0.950 . S
H259 C230 0.949 . S
H260 C231 0.950 . S
H261 C235 0.950 . S
H262 C237 0.950 . S
H263 C240 0.950 . S
H264 C242 0.950 . S
C265 C266 1.443 . S
C265 N269 1.376 . S
C265 C303 1.389 . S
C266 C265 1.443 . S
C266 C267 1.340 . S
C266 H306 0.951 1_545 S
C267 C266 1.340 . S
C267 C268 1.439 . S
C267 H307 0.950 . S
C268 C267 1.439 . S
C268 N269 1.374 . S
C268 C302 1.395 . S
N269 C265 1.376 . S
N269 C268 1.374 . S
N269 Co270 2.008 . S
Co270 N269 2.008 . S
Co270 N271 1.995 . S
Co270 N276 2.008 . S
Co270 N281 1.995 . S
Co270 N286 2.282 . S
Co270 N292 2.282 . S
N271 Co270 1.995 . S
N271 C272 1.376 . S
N271 C275 1.383 . S
C272 N271 1.376 . S
C272 C273 1.446 . S
C272 C302 1.391 . S
C273 C272 1.446 . S
C273 C274 1.339 . S
C273 H308 0.949 . S
C274 C273 1.339 . S
C274 C275 1.439 . S
C274 H309 0.950 . S
C275 N271 1.383 . S
C275 C274 1.439 . S
C275 C304 1.392 . S
N276 Co270 2.008 . S
N276 C277 1.376 . S
N276 C280 1.374 . S
C277 N276 1.376 . S
C277 C278 1.443 . S
C277 C304 1.389 . S
C278 C277 1.443 . S
C278 C279 1.340 . S
C278 H310 0.951 . S
C279 C278 1.340 . S
C279 C280 1.439 . S
C279 H311 0.950 . S
C280 N276 1.374 . S
C280 C279 1.439 . S
C280 C305 1.395 . S
N281 Co270 1.995 . S
N281 C282 1.376 . S
N281 C285 1.383 . S
C282 N281 1.376 . S
C282 C283 1.446 . S
C282 C305 1.391 . S
C283 C282 1.446 . S
C283 C284 1.339 . S
C283 H312 0.949 . S
C284 C283 1.339 . S
C284 C285 1.439 . S
C284 H313 0.950 . S
C285 N281 1.383 . S
C285 C284 1.439 . S
C285 C303 1.392 . S
N286 Co270 2.282 . S
N286 C289 1.332 . S
N286 C291 1.332 . S
C287 C288 1.386 . S
C287 C290 1.388 . S
C288 C287 1.386 . S
C288 C289 1.382 . S
C288 H314 0.950 . S
C289 N286 1.332 . S
C289 C288 1.382 . S
C289 H300 0.952 . S
C290 C287 1.388 . S
C290 C291 1.382 . S
C290 H315 0.950 . S
C291 N286 1.332 . S
C291 C290 1.382 . S
C291 H301 0.948 . S
N292 Co270 2.282 . S
N292 C296 1.332 . S
N292 C297 1.332 . S
C293 C294 1.388 . S
C293 C297 1.382 . S
C293 H316 0.950 . S
C294 C293 1.388 . S
C294 C295 1.386 . S
C295 C294 1.386 . S
C295 C296 1.382 . S
C295 H317 0.950 . S
C296 N292 1.332 . S
C296 C295 1.382 . S
C296 H298 0.952 . S
C297 N292 1.332 . S
C297 C293 1.382 . S
C297 H299 0.948 . S
H298 C296 0.952 . S
H299 C297 0.948 . S
H300 C289 0.952 . S
H301 C291 0.948 . S
C302 C268 1.395 . S
C302 C272 1.391 . S
C303 C265 1.389 . S
C303 C285 1.392 . S
C304 C275 1.392 . S
C304 C277 1.389 . S
C305 C280 1.395 . S
C305 C282 1.391 . S
H306 C266 0.951 1_565 S
H307 C267 0.950 . S
H308 C273 0.949 . S
H309 C274 0.950 . S
H310 C278 0.951 . S
H311 C279 0.950 . S
H312 C283 0.949 . S
H313 C284 0.950 . S
H314 C288 0.950 . S
H315 C290 0.950 . S
H316 C293 0.950 . S
H317 C295 0.950 . S
C318 C319 1.349 . S
C318 C320 1.327 . S
C318 H343 0.950 . S
C319 C318 1.349 . S
C319 C335 1.349 . S
C320 C318 1.327 . S
C320 C339 1.429 . S
C320 H344 0.950 . S
C321 C338 1.574 . S
C321 C340 1.368 . S
C321 H345 0.949 . S
H322 C326 0.949 . S
C323 C324 1.349 . S
C323 C325 1.327 . S
C323 H346 0.950 . S
C324 C323 1.349 . S
C324 C336 1.349 . S
C325 C323 1.327 . S
C325 C341 1.429 . S
C325 H347 0.950 . S
C326 H322 0.949 . S
C326 C334 1.574 . S
C326 C342 1.368 . S
H327 C335 0.950 . S
H328 C333 0.950 . S
H329 C334 0.949 . S
H330 C336 0.950 . S
H331 C337 0.950 . S
H332 C338 0.949 . S
C333 H328 0.950 . S
C333 C335 1.327 . S
C333 C339 1.429 . S
C334 C326 1.574 . S
C334 H329 0.949 . S
C334 C340 1.368 . S
C335 C319 1.349 . S
C335 H327 0.950 . S
C335 C333 1.327 . S
C336 C324 1.349 . S
C336 H330 0.950 . S
C336 C337 1.327 . S
C337 H331 0.950 . S
C337 C336 1.327 . S
C337 C341 1.429 . S
C338 C321 1.574 . S
C338 H332 0.949 . S
C338 C342 1.368 . S
C339 C320 1.429 . S
C339 C333 1.429 . S
C339 C340 1.523 1_545 S
C340 C321 1.368 . S
C340 C334 1.368 . S
C340 C339 1.523 1_565 S
C341 C325 1.429 . S
C341 C337 1.429 . S
C341 C342 1.523 . S
C342 C326 1.368 . S
C342 C338 1.368 . S
C342 C341 1.523 . S
H343 C318 0.950 . S
H344 C320 0.950 . S
H345 C321 0.949 . S
H346 C323 0.950 . S
H347 C325 0.950 . S
C348 C349 1.349 . S
C348 C350 1.327 . S
C348 H373 0.950 . S
C349 C348 1.349 . S
C349 C365 1.349 1_545 S
C350 C348 1.327 . S
C350 C369 1.429 . S
C350 H374 0.950 . S
C351 C368 1.574 . S
C351 C370 1.368 1_565 S
C351 H375 0.949 . S
H352 C356 0.949 . S
C353 C354 1.349 1_565 S
C353 C355 1.327 . S
C353 H376 0.950 . S
C354 C353 1.349 1_545 S
C354 C366 1.349 . S
C355 C353 1.327 . S
C355 C371 1.429 1_565 S
C355 H377 0.950 . S
C356 H352 0.949 . S
C356 C364 1.574 . S
C356 C372 1.368 . S
H357 C365 0.950 . S
H358 C363 0.950 . S
H359 C364 0.949 . S
H360 C366 0.950 . S
H361 C367 0.950 . S
H362 C368 0.949 . S
C363 H358 0.950 . S
C363 C365 1.327 . S
C363 C369 1.429 1_565 S
C364 C356 1.574 . S
C364 H359 0.949 . S
C364 C370 1.368 . S
C365 C349 1.349 1_565 S
C365 H357 0.950 . S
C365 C363 1.327 . S
C366 C354 1.349 . S
C366 H360 0.950 . S
C366 C367 1.327 . S
C367 H361 0.950 . S
C367 C366 1.327 . S
C367 C371 1.429 . S
C368 C351 1.574 . S
C368 H362 0.949 . S
C368 C372 1.368 1_565 S
C369 C350 1.429 . S
C369 C363 1.429 1_545 S
C369 C370 1.523 . S
C370 C351 1.368 1_545 S
C370 C364 1.368 . S
C370 C369 1.523 . S
C371 C355 1.429 1_545 S
C371 C367 1.429 . S
C371 C372 1.523 . S
C372 C356 1.368 . S
C372 C368 1.368 1_545 S
C372 C371 1.523 . S
H373 C348 0.950 . S
H374 C350 0.950 . S
H375 C351 0.949 . S
H376 C353 0.950 . S
H377 C355 0.950 . S
C378 C379 1.349 1_565 S
C378 C380 1.327 . S
C378 H403 0.950 . S
C379 C378 1.349 1_545 S
C379 C395 1.349 . S
C380 C378 1.327 . S
C380 C399 1.429 . S
C380 H404 0.950 . S
C381 C398 1.574 . S
C381 C400 1.368 . S
C381 H405 0.949 . S
H382 C386 0.949 . S
C383 C384 1.349 . S
C383 C385 1.327 . S
C383 H406 0.950 . S
C384 C383 1.349 . S
C384 C396 1.349 . S
C385 C383 1.327 . S
C385 C401 1.429 . S
C385 H407 0.950 . S
C386 H382 0.949 . S
C386 C394 1.574 . S
C386 C402 1.368 . S
H387 C395 0.950 . S
H388 C393 0.950 . S
H389 C394 0.949 . S
H390 C396 0.950 . S
H391 C397 0.950 . S
H392 C398 0.949 . S
C393 H388 0.950 . S
C393 C395 1.327 1_565 S
C393 C399 1.429 . S
C394 C386 1.574 . S
C394 H389 0.949 . S
C394 C400 1.368 . S
C395 C379 1.349 . S
C395 H387 0.950 . S
C395 C393 1.327 1_545 S
C396 C384 1.349 . S
C396 H390 0.950 . S
C396 C397 1.327 . S
C397 H391 0.950 . S
C397 C396 1.327 . S
C397 C401 1.429 . S
C398 C381 1.574 . S
C398 H392 0.949 . S
C398 C402 1.368 . S
C399 C380 1.429 . S
C399 C393 1.429 . S
C399 C400 1.523 . S
C400 C381 1.368 . S
C400 C394 1.368 . S
C400 C399 1.523 . S
C401 C385 1.429 . S
C401 C397 1.429 . S
C401 C402 1.523 . S
C402 C386 1.368 . S
C402 C398 1.368 . S
C402 C401 1.523 . S
H403 C378 0.950 . S
H404 C380 0.950 . S
H405 C381 0.949 . S
H406 C383 0.950 . S
H407 C385 0.950 . S
C408 C409 1.349 . S
C408 C410 1.327 . S
C408 H433 0.950 . S
C409 C408 1.349 . S
C409 C425 1.350 . S
C410 C408 1.327 . S
C410 C429 1.429 . S
C410 H434 0.950 . S
C411 C428 1.574 . S
C411 C430 1.368 1_565 S
C411 H435 0.945 . S
H412 C416 0.949 . S
C413 C414 1.346 . S
C413 C415 1.331 . S
C413 H436 0.949 1_545 S
C414 C413 1.346 . S
C414 C426 1.349 . S
C415 C413 1.331 . S
C415 C431 1.429 . S
C415 H437 0.950 1_545 S
C416 H412 0.949 . S
C416 C424 1.574 . S
C416 C432 1.368 . S
H417 C425 0.953 1_565 S
H418 C423 0.949 1_565 S
H419 C424 0.949 . S
H420 C426 0.950 . S
H421 C427 0.950 . S
H422 C428 0.951 . S
C423 H418 0.949 1_545 S
C423 C425 1.323 . S
C423 C429 1.428 . S
C424 C416 1.574 . S
C424 H419 0.949 . S
C424 C430 1.368 . S
C425 C409 1.350 . S
C425 H417 0.953 1_545 S
C425 C423 1.323 . S
C426 C414 1.349 . S
C426 H420 0.950 . S
C426 C427 1.327 . S
C427 H421 0.950 . S
C427 C426 1.327 . S
C427 C431 1.429 . S
C428 C411 1.574 . S
C428 H422 0.951 . S
C428 C432 1.372 1_565 S
C429 C410 1.429 . S
C429 C423 1.428 . S
C429 C430 1.523 . S
C430 C411 1.368 1_545 S
C430 C424 1.368 . S
C430 C429 1.523 . S
C431 C415 1.429 . S
C431 C427 1.429 . S
C431 C432 1.523 . S
C432 C416 1.368 . S
C432 C428 1.372 1_545 S
C432 C431 1.523 . S
H433 C408 0.950 . S
H434 C410 0.950 . S
H435 C411 0.945 . S
H436 C413 0.949 1_565 S
H437 C415 0.950 1_565 S
C438 C439 1.349 . S
C438 C440 1.327 . S
C438 H463 0.950 . S
C439 C438 1.349 . S
C439 C455 1.349 . S
C440 C438 1.327 . S
C440 C459 1.429 . S
C440 H464 0.950 . S
C441 C458 1.574 . S
C441 C460 1.368 . S
C441 H465 0.949 . S
H442 C446 0.949 . S
C443 C444 1.349 . S
C443 C445 1.327 . S
C443 H466 0.950 . S
C444 C443 1.349 . S
C444 C456 1.349 . S
C445 C443 1.327 . S
C445 C461 1.429 . S
C445 H467 0.950 . S
C446 H442 0.949 . S
C446 C454 1.574 . S
C446 C462 1.368 . S
H447 C455 0.950 . S
H448 C453 0.950 . S
H449 C454 0.949 . S
H450 C456 0.950 . S
H451 C457 0.950 . S
H452 C458 0.949 . S
C453 H448 0.950 . S
C453 C455 1.327 . S
C453 C459 1.429 . S
C454 C446 1.574 . S
C454 H449 0.949 . S
C454 C460 1.368 . S
C455 C439 1.349 . S
C455 H447 0.950 . S
C455 C453 1.327 . S
C456 C444 1.349 . S
C456 H450 0.950 . S
C456 C457 1.327 . S
C457 H451 0.950 . S
C457 C456 1.327 . S
C457 C461 1.429 . S
C458 C441 1.574 . S
C458 H452 0.949 . S
C458 C462 1.368 . S
C459 C440 1.429 . S
C459 C453 1.429 . S
C459 C460 1.523 . S
C460 C441 1.368 . S
C460 C454 1.368 . S
C460 C459 1.523 . S
C461 C445 1.429 . S
C461 C457 1.429 . S
C461 C462 1.523 1_545 S
C462 C446 1.368 . S
C462 C458 1.368 . S
C462 C461 1.523 1_565 S
H463 C438 0.950 . S
H464 C440 0.950 . S
H465 C441 0.949 . S
H466 C443 0.950 . S
H467 C445 0.950 . S
C468 C469 1.349 . S
C468 C470 1.327 . S
C468 H493 0.950 . S
C469 C468 1.349 . S
C469 C485 1.349 . S
C470 C468 1.327 . S
C470 C489 1.429 . S
C470 H494 0.950 . S
C471 C488 1.574 . S
C471 C490 1.368 . S
C471 H495 0.949 . S
H472 C476 0.949 . S
C473 C474 1.349 . S
C473 C475 1.327 1_545 S
C473 H496 0.950 . S
C474 C473 1.349 . S
C474 C486 1.349 1_545 S
C475 C473 1.327 1_565 S
C475 C491 1.429 . S
C475 H497 0.942 . S
C476 H472 0.949 . S
C476 C484 1.574 . S
C476 C492 1.368 . S
H477 C485 0.950 . S
H478 C483 0.950 . S
H479 C484 0.949 . S
H480 C486 0.950 . S
H481 C487 0.950 . S
H482 C488 0.949 . S
C483 H478 0.950 . S
C483 C485 1.327 . S
C483 C489 1.429 . S
C484 C476 1.574 . S
C484 H479 0.949 . S
C484 C490 1.368 . S
C485 C469 1.349 . S
C485 H477 0.950 . S
C485 C483 1.327 . S
C486 C474 1.349 1_565 S
C486 H480 0.950 . S
C486 C487 1.327 . S
C487 H481 0.950 . S
C487 C486 1.327 . S
C487 C491 1.429 . S
C488 C471 1.574 . S
C488 H482 0.949 . S
C488 C492 1.368 . S
C489 C470 1.429 . S
C489 C483 1.429 . S
C489 C490 1.523 . S
C490 C471 1.368 . S
C490 C484 1.368 . S
C490 C489 1.523 . S
C491 C475 1.429 . S
C491 C487 1.429 . S
C491 C492 1.523 . S
C492 C476 1.368 . S
C492 C488 1.368 . S
C492 C491 1.523 . S
H493 C468 0.950 . S
H494 C470 0.950 . S
H495 C471 0.949 . S
H496 C473 0.950 . S
H497 C475 0.942 . S
C498 C499 1.349 . S
C498 C500 1.327 . S
C498 H523 0.950 . S
C499 C498 1.349 . S
C499 C515 1.349 . S
C500 C498 1.327 . S
C500 C519 1.429 . S
C500 H524 0.950 . S
C501 C518 1.574 . S
C501 C520 1.368 . S
C501 H525 0.949 . S
H502 C506 0.949 . S
C503 C504 1.349 . S
C503 C505 1.327 . S
C503 H526 0.950 . S
C504 C503 1.349 . S
C504 C516 1.349 . S
C505 C503 1.327 . S
C505 C521 1.429 . S
C505 H527 0.950 . S
C506 H502 0.949 . S
C506 C514 1.574 . S
C506 C522 1.368 . S
H507 C515 0.950 . S
H508 C513 0.950 . S
H509 C514 0.949 . S
H510 C516 0.950 . S
H511 C517 0.950 . S
H512 C518 0.949 . S
C513 H508 0.950 . S
C513 C515 1.327 . S
C513 C519 1.429 . S
C514 C506 1.574 . S
C514 H509 0.949 . S
C514 C520 1.368 . S
C515 C499 1.349 . S
C515 H507 0.950 . S
C515 C513 1.327 . S
C516 C504 1.349 . S
C516 H510 0.950 . S
C516 C517 1.327 . S
C517 H511 0.950 . S
C517 C516 1.327 . S
C517 C521 1.429 . S
C518 C501 1.574 . S
C518 H512 0.949 . S
C518 C522 1.368 . S
C519 C500 1.429 . S
C519 C513 1.429 . S
C519 C520 1.523 . S
C520 C501 1.368 . S
C520 C514 1.368 . S
C520 C519 1.523 . S
C521 C505 1.429 . S
C521 C517 1.429 . S
C521 C522 1.523 . S
C522 C506 1.368 . S
C522 C518 1.368 . S
C522 C521 1.523 . S
H523 C498 0.950 . S
H524 C500 0.950 . S
H525 C501 0.949 . S
H526 C503 0.950 . S
H527 C505 0.950 . S
C528 C529 1.349 1_655 S
C528 C530 1.327 . S
C528 H553 0.950 . S
C529 C528 1.349 1_455 S
C529 C545 1.349 1_565 S
C530 C528 1.327 . S
C530 C549 1.429 1_655 S
C530 H554 0.950 . S
C531 C548 1.574 . S
C531 C550 1.368 1_545 S
C531 H555 0.949 . S
H532 C536 0.949 . S
C533 C534 1.349 1_545 S
C533 C535 1.327 . S
C533 H556 0.950 . S
C534 C533 1.349 1_565 S
C534 C546 1.349 . S
C535 C533 1.327 . S
C535 C551 1.429 1_545 S
C535 H557 0.950 . S
C536 H532 0.949 . S
C536 C544 1.574 . S
C536 C552 1.368 1_655 S
H537 C545 0.950 . S
H538 C543 0.950 . S
H539 C544 0.949 . S
H540 C546 0.950 1_655 S
H541 C547 0.950 1_655 S
H542 C548 0.949 . S
C543 H538 0.950 . S
C543 C545 1.327 . S
C543 C549 1.429 1_545 S
C544 C536 1.574 . S
C544 H539 0.949 . S
C544 C550 1.368 1_655 S
C545 C529 1.349 1_545 S
C545 H537 0.950 . S
C545 C543 1.327 . S
C546 C534 1.349 . S
C546 H540 0.950 1_455 S
C546 C547 1.327 . S
C547 H541 0.950 1_455 S
C547 C546 1.327 . S
C547 C551 1.429 . S
C548 C531 1.574 . S
C548 H542 0.949 . S
C548 C552 1.368 1_545 S
C549 C530 1.429 1_455 S
C549 C543 1.429 1_565 S
C549 C550 1.523 . S
C550 C531 1.368 1_565 S
C550 C544 1.368 1_455 S
C550 C549 1.523 . S
C551 C535 1.429 1_565 S
C551 C547 1.429 . S
C551 C552 1.523 . S
C552 C536 1.368 1_455 S
C552 C548 1.368 1_565 S
C552 C551 1.523 . S
H553 C528 0.950 . S
H554 C530 0.950 . S
H555 C531 0.949 . S
H556 C533 0.950 . S
H557 C535 0.950 . S
C558 C559 1.349 . S
C558 C560 1.327 . S
C558 H583 0.950 . S
C559 C558 1.349 . S
C559 C575 1.349 . S
C560 C558 1.327 . S
C560 C579 1.429 . S
C560 H584 0.950 . S
C561 C578 1.574 . S
C561 C580 1.368 . S
C561 H585 0.949 . S
H562 C566 0.949 . S
C563 C564 1.349 . S
C563 C565 1.327 . S
C563 H586 0.950 . S
C564 C563 1.349 . S
C564 C576 1.349 . S
C565 C563 1.327 . S
C565 C581 1.429 . S
C565 H587 0.950 . S
C566 H562 0.949 . S
C566 C574 1.574 . S
C566 C582 1.368 . S
H567 C575 0.950 . S
H568 C573 0.950 . S
H569 C574 0.949 . S
H570 C576 0.950 . S
H571 C577 0.950 . S
H572 C578 0.949 . S
C573 H568 0.950 . S
C573 C575 1.327 . S
C573 C579 1.429 . S
C574 C566 1.574 . S
C574 H569 0.949 . S
C574 C580 1.368 . S
C575 C559 1.349 . S
C575 H567 0.950 . S
C575 C573 1.327 . S
C576 C564 1.349 . S
C576 H570 0.950 . S
C576 C577 1.327 . S
C577 H571 0.950 . S
C577 C576 1.327 . S
C577 C581 1.429 . S
C578 C561 1.574 . S
C578 H572 0.949 . S
C578 C582 1.368 . S
C579 C560 1.429 . S
C579 C573 1.429 . S
C579 C580 1.523 . S
C580 C561 1.368 . S
C580 C574 1.368 . S
C580 C579 1.523 . S
C581 C565 1.429 . S
C581 C577 1.429 . S
C581 C582 1.523 . S
C582 C566 1.368 . S
C582 C578 1.368 . S
C582 C581 1.523 . S
H583 C558 0.950 . S
H584 C560 0.950 . S
H585 C561 0.949 . S
H586 C563 0.950 . S
H587 C565 0.950 . S
C588 C589 1.349 . S
C588 C590 1.327 . S
C588 H613 0.950 . S
C589 C588 1.349 . S
C589 C605 1.349 . S
C590 C588 1.327 . S
C590 C609 1.429 . S
C590 H614 0.950 . S
C591 C608 1.587 . S
C591 C610 1.368 . S
C591 H615 0.949 . S
H592 C596 0.949 . S
C593 C594 1.349 . S
C593 C595 1.327 . S
C593 H616 0.950 . S
C594 C593 1.349 . S
C594 C606 1.349 . S
C595 C593 1.327 . S
C595 C611 1.429 . S
C595 H617 0.950 . S
C596 H592 0.949 . S
C596 C604 1.574 . S
C596 C612 1.368 1_554 S
H597 C605 0.950 . S
H598 C603 0.950 . S
H599 C604 0.949 . S
H600 C606 0.950 . S
H601 C607 0.950 . S
H602 C608 0.943 1_556 S
C603 H598 0.950 . S
C603 C605 1.327 . S
C603 C609 1.429 . S
C604 C596 1.574 . S
C604 H599 0.949 . S
C604 C610 1.368 . S
C605 C589 1.349 . S
C605 H597 0.950 . S
C605 C603 1.327 . S
C606 C594 1.349 . S
C606 H600 0.950 . S
C606 C607 1.327 . S
C607 H601 0.950 . S
C607 C606 1.327 . S
C607 C611 1.429 . S
C608 C591 1.587 . S
C608 H602 0.943 1_554 S
C608 C612 1.361 1_554 S
C609 C590 1.429 . S
C609 C603 1.429 . S
C609 C610 1.523 . S
C610 C591 1.368 . S
C610 C604 1.368 . S
C610 C609 1.523 . S
C611 C595 1.429 . S
C611 C607 1.429 . S
C611 C612 1.523 . S
C612 C596 1.368 1_556 S
C612 C608 1.361 1_556 S
C612 C611 1.523 . S
H613 C588 0.950 . S
H614 C590 0.950 . S
H615 C591 0.949 . S
H616 C593 0.950 . S
H617 C595 0.950 . S
C618 C619 1.349 . S
C618 C620 1.327 . S
C618 H643 0.950 . S
C619 C618 1.349 . S
C619 C635 1.349 . S
C620 C618 1.327 . S
C620 C639 1.429 . S
C620 H644 0.950 . S
C621 C638 1.574 . S
C621 C640 1.368 . S
C621 H645 0.949 . S
H622 C626 0.949 . S
C623 C624 1.349 . S
C623 C625 1.327 . S
C623 H646 0.950 . S
C624 C623 1.349 . S
C624 C636 1.349 . S
C625 C623 1.327 . S
C625 C641 1.429 . S
C625 H647 0.950 . S
C626 H622 0.949 . S
C626 C634 1.574 . S
C626 C642 1.368 . S
H627 C635 0.950 . S
H628 C633 0.950 . S
H629 C634 0.949 . S
H630 C636 0.950 1_565 S
H631 C637 0.950 . S
H632 C638 0.949 . S
C633 H628 0.950 . S
C633 C635 1.327 . S
C633 C639 1.429 . S
C634 C626 1.574 . S
C634 H629 0.949 . S
C634 C640 1.368 . S
C635 C619 1.349 . S
C635 H627 0.950 . S
C635 C633 1.327 . S
C636 C624 1.349 . S
C636 H630 0.950 1_545 S
C636 C637 1.327 . S
C637 H631 0.950 . S
C637 C636 1.327 . S
C637 C641 1.429 . S
C638 C621 1.574 . S
C638 H632 0.949 . S
C638 C642 1.368 . S
C639 C620 1.429 . S
C639 C633 1.429 . S
C639 C640 1.523 . S
C640 C621 1.368 . S
C640 C634 1.368 . S
C640 C639 1.523 . S
C641 C625 1.429 . S
C641 C637 1.429 . S
C641 C642 1.523 . S
C642 C626 1.368 . S
C642 C638 1.368 . S
C642 C641 1.523 . S
H643 C618 0.950 . S
H644 C620 0.950 . S
H645 C621 0.949 . S
H646 C623 0.950 . S
H647 C625 0.950 . S
C648 C649 1.349 . S
C648 C650 1.327 . S
C648 H673 0.950 . S
C649 C648 1.349 . S
C649 C665 1.349 1_655 S
C650 C648 1.327 . S
C650 C669 1.433 . S
C650 H674 0.950 . S
C651 C668 1.574 . S
C651 C670 1.371 . S
C651 H675 0.949 . S
H652 C656 0.949 . S
C653 C654 1.349 . S
C653 C655 1.327 . S
C653 H676 0.950 . S
C654 C653 1.349 . S
C654 C666 1.349 1_455 S
C655 C653 1.327 . S
C655 C671 1.429 . S
C655 H677 0.950 . S
C656 H652 0.949 . S
C656 C664 1.574 . S
C656 C672 1.368 1_655 S
H657 C665 0.950 1_565 S
H658 C663 0.951 1_565 S
H659 C664 0.949 . S
H660 C666 0.950 . S
H661 C667 0.950 . S
H662 C668 0.949 . S
C663 H658 0.951 1_545 S
C663 C665 1.327 . S
C663 C669 1.419 1_455 S
C664 C656 1.574 . S
C664 H659 0.949 . S
C664 C670 1.364 1_655 S
C665 C649 1.349 1_455 S
C665 H657 0.950 1_545 S
C665 C663 1.327 . S
C666 C654 1.349 1_655 S
C666 H660 0.950 . S
C666 C667 1.327 . S
C667 H661 0.950 . S
C667 C666 1.327 . S
C667 C671 1.429 1_655 S
C668 C651 1.574 . S
C668 H662 0.949 . S
C668 C672 1.368 . S
C669 C650 1.433 . S
C669 C663 1.419 1_655 S
C669 C670 1.530 1_655 S
C670 C651 1.371 . S
C670 C664 1.364 1_455 S
C670 C669 1.530 1_455 S
C671 C655 1.429 . S
C671 C667 1.429 1_455 S
C671 C672 1.523 . S
C672 C656 1.368 1_455 S
C672 C668 1.368 . S
C672 C671 1.523 . S
H673 C648 0.950 . S
H674 C650 0.950 . S
H675 C651 0.949 . S
H676 C653 0.950 . S
H677 C655 0.950 . S
C319 C39 1.499 . S
C324 C38 1.499 . S
C349 C91 1.500 . S
C354 C92 1.500 . S
C379 C145 1.501 . S
C384 C144 1.501 . S
C409 C198 1.500 . S
C414 C197 1.500 . S
C439 C251 1.501 . S
C444 C250 1.501 . S
C469 C304 1.499 . S
C474 C303 1.499 . S
C499 C287 1.552 . S
C504 C22 1.553 . S
C529 C181 1.552 . S
C534 C75 1.552 . S
C559 C128 1.548 . S
C564 C234 1.547 . S
C589 C29 1.559 . S
C594 C241 1.556 . S
C619 C294 1.579 . S
C624 C82 1.579 . S
C649 C188 1.564 . S
C654 C135 1.557 . S
