# Generated by pormake.
# Topology sxf, (6)-cn, num edge types: 1
# Building blocks:
#     Node 0, Type 0, BuildingBlock: IZENUY_clean_sbu_0, # of connection points: 6
#     Node 1, Type 0, BuildingBlock: IZENUY_clean_sbu_0, # of connection points: 6
#     Node 2, Type 0, BuildingBlock: IZENUY_clean_sbu_0, # of connection points: 6
#     Node 3, Type 0, BuildingBlock: IZENUY_clean_sbu_0, # of connection points: 6
#     Node 4, Type 0, BuildingBlock: IZENUY_clean_sbu_0, # of connection points: 6
#     Node 5, Type 0, BuildingBlock: IZENUY_clean_sbu_0, # of connection points: 6
#     Node 6, Type 0, BuildingBlock: IZENUY_clean_sbu_0, # of connection points: 6
#     Node 7, Type 0, BuildingBlock: IZENUY_clean_sbu_0, # of connection points: 6
#     Node 8, Type 0, BuildingBlock: IZENUY_clean_sbu_0, # of connection points: 6
#     Node 9, Type 0, BuildingBlock: IZENUY_clean_sbu_0, # of connection points: 6
#     Node 10, Type 0, BuildingBlock: IZENUY_clean_sbu_0, # of connection points: 6
#     Node 11, Type 0, BuildingBlock: IZENUY_clean_sbu_0, # of connection points: 6
#     Node 12, Type 0, BuildingBlock: IZENUY_clean_sbu_0, # of connection points: 6
#     Node 13, Type 0, BuildingBlock: IZENUY_clean_sbu_0, # of connection points: 6
#     Node 14, Type 0, BuildingBlock: IZENUY_clean_sbu_0, # of connection points: 6
#     Node 15, Type 0, BuildingBlock: IZENUY_clean_sbu_0, # of connection points: 6
#     Node 16, Type 0, BuildingBlock: IZENUY_clean_sbu_0, # of connection points: 6
#     Node 17, Type 0, BuildingBlock: IZENUY_clean_sbu_0, # of connection points: 6
#     Node 18, Type 0, BuildingBlock: IZENUY_clean_sbu_0, # of connection points: 6
#     Node 19, Type 0, BuildingBlock: IZENUY_clean_sbu_0, # of connection points: 6
#     Node 20, Type 0, BuildingBlock: IZENUY_clean_sbu_0, # of connection points: 6
#     Node 21, Type 0, BuildingBlock: IZENUY_clean_sbu_0, # of connection points: 6
#     Node 22, Type 0, BuildingBlock: IZENUY_clean_sbu_0, # of connection points: 6
#     Node 23, Type 0, BuildingBlock: IZENUY_clean_sbu_0, # of connection points: 6
#     Edge 24, Type (0, 0), BuildingBlock: UVAHIK_clean_linker_0, # of connection points: 2
#     Edge 25, Type (0, 0), BuildingBlock: UVAHIK_clean_linker_0, # of connection points: 2
#     Edge 26, Type (0, 0), BuildingBlock: UVAHIK_clean_linker_0, # of connection points: 2
#     Edge 27, Type (0, 0), BuildingBlock: UVAHIK_clean_linker_0, # of connection points: 2
#     Edge 28, Type (0, 0), BuildingBlock: UVAHIK_clean_linker_0, # of connection points: 2
#     Edge 29, Type (0, 0), BuildingBlock: UVAHIK_clean_linker_0, # of connection points: 2
#     Edge 30, Type (0, 0), BuildingBlock: UVAHIK_clean_linker_0, # of connection points: 2
#     Edge 31, Type (0, 0), BuildingBlock: UVAHIK_clean_linker_0, # of connection points: 2
#     Edge 32, Type (0, 0), BuildingBlock: UVAHIK_clean_linker_0, # of connection points: 2
#     Edge 33, Type (0, 0), BuildingBlock: UVAHIK_clean_linker_0, # of connection points: 2
#     Edge 34, Type (0, 0), BuildingBlock: UVAHIK_clean_linker_0, # of connection points: 2
#     Edge 35, Type (0, 0), BuildingBlock: UVAHIK_clean_linker_0, # of connection points: 2
#     Edge 36, Type (0, 0), BuildingBlock: UVAHIK_clean_linker_0, # of connection points: 2
#     Edge 37, Type (0, 0), BuildingBlock: UVAHIK_clean_linker_0, # of connection points: 2
#     Edge 38, Type (0, 0), BuildingBlock: UVAHIK_clean_linker_0, # of connection points: 2
#     Edge 39, Type (0, 0), BuildingBlock: UVAHIK_clean_linker_0, # of connection points: 2
#     Edge 40, Type (0, 0), BuildingBlock: UVAHIK_clean_linker_0, # of connection points: 2
#     Edge 41, Type (0, 0), BuildingBlock: UVAHIK_clean_linker_0, # of connection points: 2
#     Edge 42, Type (0, 0), BuildingBlock: UVAHIK_clean_linker_0, # of connection points: 2
#     Edge 43, Type (0, 0), BuildingBlock: UVAHIK_clean_linker_0, # of connection points: 2
#     Edge 44, Type (0, 0), BuildingBlock: UVAHIK_clean_linker_0, # of connection points: 2
#     Edge 45, Type (0, 0), BuildingBlock: UVAHIK_clean_linker_0, # of connection points: 2
#     Edge 46, Type (0, 0), BuildingBlock: UVAHIK_clean_linker_0, # of connection points: 2
#     Edge 47, Type (0, 0), BuildingBlock: UVAHIK_clean_linker_0, # of connection points: 2
#     Edge 48, Type (0, 0), BuildingBlock: UVAHIK_clean_linker_0, # of connection points: 2
#     Edge 49, Type (0, 0), BuildingBlock: UVAHIK_clean_linker_0, # of connection points: 2
#     Edge 50, Type (0, 0), BuildingBlock: UVAHIK_clean_linker_0, # of connection points: 2
#     Edge 51, Type (0, 0), BuildingBlock: UVAHIK_clean_linker_0, # of connection points: 2
#     Edge 52, Type (0, 0), BuildingBlock: UVAHIK_clean_linker_0, # of connection points: 2
#     Edge 53, Type (0, 0), BuildingBlock: UVAHIK_clean_linker_0, # of connection points: 2
#     Edge 54, Type (0, 0), BuildingBlock: UVAHIK_clean_linker_0, # of connection points: 2
#     Edge 55, Type (0, 0), BuildingBlock: UVAHIK_clean_linker_0, # of connection points: 2
#     Edge 56, Type (0, 0), BuildingBlock: UVAHIK_clean_linker_0, # of connection points: 2
#     Edge 57, Type (0, 0), BuildingBlock: UVAHIK_clean_linker_0, # of connection points: 2
#     Edge 58, Type (0, 0), BuildingBlock: UVAHIK_clean_linker_0, # of connection points: 2
#     Edge 59, Type (0, 0), BuildingBlock: UVAHIK_clean_linker_0, # of connection points: 2
#     Edge 60, Type (0, 0), BuildingBlock: UVAHIK_clean_linker_0, # of connection points: 2
#     Edge 61, Type (0, 0), BuildingBlock: UVAHIK_clean_linker_0, # of connection points: 2
#     Edge 62, Type (0, 0), BuildingBlock: UVAHIK_clean_linker_0, # of connection points: 2
#     Edge 63, Type (0, 0), BuildingBlock: UVAHIK_clean_linker_0, # of connection points: 2
#     Edge 64, Type (0, 0), BuildingBlock: UVAHIK_clean_linker_0, # of connection points: 2
#     Edge 65, Type (0, 0), BuildingBlock: UVAHIK_clean_linker_0, # of connection points: 2
#     Edge 66, Type (0, 0), BuildingBlock: UVAHIK_clean_linker_0, # of connection points: 2
#     Edge 67, Type (0, 0), BuildingBlock: UVAHIK_clean_linker_0, # of connection points: 2
#     Edge 68, Type (0, 0), BuildingBlock: UVAHIK_clean_linker_0, # of connection points: 2
#     Edge 69, Type (0, 0), BuildingBlock: UVAHIK_clean_linker_0, # of connection points: 2
#     Edge 70, Type (0, 0), BuildingBlock: UVAHIK_clean_linker_0, # of connection points: 2
#     Edge 71, Type (0, 0), BuildingBlock: UVAHIK_clean_linker_0, # of connection points: 2
#     Edge 72, Type (0, 0), BuildingBlock: UVAHIK_clean_linker_0, # of connection points: 2
#     Edge 73, Type (0, 0), BuildingBlock: UVAHIK_clean_linker_0, # of connection points: 2
#     Edge 74, Type (0, 0), BuildingBlock: UVAHIK_clean_linker_0, # of connection points: 2
#     Edge 75, Type (0, 0), BuildingBlock: UVAHIK_clean_linker_0, # of connection points: 2
#     Edge 76, Type (0, 0), BuildingBlock: UVAHIK_clean_linker_0, # of connection points: 2
#     Edge 77, Type (0, 0), BuildingBlock: UVAHIK_clean_linker_0, # of connection points: 2
#     Edge 78, Type (0, 0), BuildingBlock: UVAHIK_clean_linker_0, # of connection points: 2
#     Edge 79, Type (0, 0), BuildingBlock: UVAHIK_clean_linker_0, # of connection points: 2
#     Edge 80, Type (0, 0), BuildingBlock: UVAHIK_clean_linker_0, # of connection points: 2
#     Edge 81, Type (0, 0), BuildingBlock: UVAHIK_clean_linker_0, # of connection points: 2
#     Edge 82, Type (0, 0), BuildingBlock: UVAHIK_clean_linker_0, # of connection points: 2
#     Edge 83, Type (0, 0), BuildingBlock: UVAHIK_clean_linker_0, # of connection points: 2
#     Edge 84, Type (0, 0), BuildingBlock: UVAHIK_clean_linker_0, # of connection points: 2
#     Edge 85, Type (0, 0), BuildingBlock: UVAHIK_clean_linker_0, # of connection points: 2
#     Edge 86, Type (0, 0), BuildingBlock: UVAHIK_clean_linker_0, # of connection points: 2
#     Edge 87, Type (0, 0), BuildingBlock: UVAHIK_clean_linker_0, # of connection points: 2
#     Edge 88, Type (0, 0), BuildingBlock: UVAHIK_clean_linker_0, # of connection points: 2
#     Edge 89, Type (0, 0), BuildingBlock: UVAHIK_clean_linker_0, # of connection points: 2
#     Edge 90, Type (0, 0), BuildingBlock: UVAHIK_clean_linker_0, # of connection points: 2
#     Edge 91, Type (0, 0), BuildingBlock: UVAHIK_clean_linker_0, # of connection points: 2
#     Edge 92, Type (0, 0), BuildingBlock: UVAHIK_clean_linker_0, # of connection points: 2
#     Edge 93, Type (0, 0), BuildingBlock: UVAHIK_clean_linker_0, # of connection points: 2
#     Edge 94, Type (0, 0), BuildingBlock: UVAHIK_clean_linker_0, # of connection points: 2
#     Edge 95, Type (0, 0), BuildingBlock: UVAHIK_clean_linker_0, # of connection points: 2
# Relax obj value: 0.435
# Max RMSD: 0.176
# Mean RMSD: 0.176
data_MOF--net-sxf--node1-IZENUY_clean_sbu_0--edge1-UVAHIK_clean_linker_0
_symmetry_space_group_name_H-M    P1
_symmetry_Int_Tables_number       1
_symmetry_cell_setting            triclinic
loop_
_symmetry_equiv_pos_as_xyz
'x, y, z'
_cell_length_a     58.305493
_cell_length_b     58.309915
_cell_length_c     58.272394
_cell_angle_alpha  89.988496
_cell_angle_beta   89.957861
_cell_angle_gamma 90.004848
loop_
_atom_site_label
_atom_site_type_symbol
_atom_site_fract_x
_atom_site_fract_y
_atom_site_fract_z
_atom_type_partial_charge
Fe0 Fe 0.03574 0.43878 0.23675 0.0
Fe1 Fe 0.05867 0.39622 0.2156 0.0
O2 O 0.04176 0.4213 0.21266 0.0
Fe3 Fe 0.03083 0.42895 0.18556 0.0
O4 O 0.04653 0.45572 0.18589 0.0
O5 O 0.03528 0.46581 0.22044 0.0
O6 O 0.06588 0.44391 0.24113 0.0
C7 C 0.08079 0.42853 0.2437 0.0
C8 C 0.99436 0.43895 0.2155 0.0
O9 O 0.07665 0.40782 0.23876 0.0
C10 C 0.02321 0.38288 0.18542 0.0
O11 O 0.03502 0.41484 0.25724 0.0
O12 O 0.03845 0.38417 0.23555 0.0
O13 O 0.00477 0.44247 0.19679 0.0
O14 O 0.00513 0.43469 0.23368 0.0
C15 C 0.07522 0.41228 0.17508 0.0
O16 O 0.04336 0.38009 0.19315 0.0
O17 O 0.01462 0.40266 0.18396 0.0
C18 C 0.03121 0.39379 0.25347 0.0
O19 O 0.07998 0.4068 0.19546 0.0
O20 O 0.05476 0.41665 0.16931 0.0
C21 C 0.04447 0.47072 0.20134 0.0
Fe22 Fe 0.4526 0.55593 0.73142 0.0
Fe23 Fe 0.42242 0.59476 0.71259 0.0
O24 O 0.43919 0.56992 0.70801 0.0
Fe25 Fe 0.44239 0.55921 0.67993 0.0
O26 O 0.44437 0.52922 0.68867 0.0
O27 O 0.4374 0.52931 0.72574 0.0
O28 O 0.42957 0.56287 0.75188 0.0
C29 C 0.40869 0.56761 0.74805 0.0
C30 C 0.48602 0.55439 0.6962 0.0
O31 O 0.40277 0.5788 0.7305 0.0
C32 C 0.44601 0.607 0.6743 0.0
O33 O 0.46865 0.58153 0.73856 0.0
O34 O 0.43899 0.60464 0.73733 0.0
O35 O 0.4731 0.56289 0.68109 0.0
O36 O 0.47789 0.54673 0.71489 0.0
C37 C 0.39725 0.57059 0.67925 0.0
O38 O 0.4415 0.6118 0.69489 0.0
O39 O 0.44106 0.5875 0.66609 0.0
C40 C 0.45969 0.60079 0.74252 0.0
O41 O 0.40264 0.58944 0.68859 0.0
O42 O 0.4118 0.55478 0.6773 0.0
C43 C 0.43702 0.51936 0.70654 0.0
Fe44 Fe 0.56273 0.07532 0.77115 0.0
Fe45 Fe 0.53098 0.04226 0.79696 0.0
O46 O 0.54365 0.05166 0.77116 0.0
Fe47 Fe 0.53692 0.03738 0.74517 0.0
O48 O 0.56458 0.04329 0.73153 0.0
O49 O 0.58564 0.05808 0.75897 0.0
O50 O 0.57491 0.06906 0.79961 0.0
C51 C 0.57451 0.05106 0.81184 0.0
C52 C 0.53437 0.08247 0.73287 0.0
O53 O 0.55867 0.0365 0.80964 0.0
C54 C 0.49441 0.03782 0.76846 0.0
O55 O 0.54129 0.09432 0.78317 0.0
O56 O 0.52947 0.07072 0.81004 0.0
O57 O 0.52441 0.06328 0.73366 0.0
O58 O 0.55339 0.08572 0.74293 0.0
C59 C 0.54203 0.00106 0.77388 0.0
O60 O 0.50248 0.04758 0.78595 0.0
O61 O 0.50774 0.02889 0.75382 0.0
C62 C 0.52985 0.09045 0.80106 0.0
O63 O 0.53019 0.01201 0.78845 0.0
O64 O 0.54908 0.01065 0.75575 0.0
C65 C 0.58402 0.04757 0.74013 0.0
Fe66 Fe 0.94803 0.94407 0.30848 0.0
Fe67 Fe 0.95664 0.9457 0.25686 0.0
O68 O 0.94538 0.93127 0.28116 0.0
Fe69 Fe 0.93173 0.90417 0.27857 0.0
O70 O 0.90518 0.91463 0.29126 0.0
O71 O 0.92208 0.93121 0.32044 0.0
O72 O 0.93045 0.9679 0.29958 0.0
C73 C 0.93535 0.98089 0.28299 0.0
C74 C 0.95959 0.89985 0.31796 0.0
O75 O 0.94974 0.97472 0.2678 0.0
C76 C 0.96816 0.89918 0.24907 0.0
O77 O 0.97455 0.95977 0.3021 0.0
O78 O 0.98529 0.94627 0.26882 0.0
O79 O 0.94239 0.89347 0.30625 0.0
O80 O 0.96567 0.92062 0.3184 0.0
C81 C 0.91664 0.92872 0.23926 0.0
O82 O 0.96536 0.91946 0.24187 0.0
O83 O 0.957 0.89154 0.26591 0.0
C84 C 0.99008 0.95593 0.28747 0.0
O85 O 0.92911 0.94596 0.24297 0.0
O86 O 0.91909 0.91022 0.25037 0.0
C87 C 0.90415 0.92388 0.31077 0.0
Fe88 Fe 0.2211 0.07199 0.40134 0.0
Fe89 Fe 0.18634 0.05093 0.43445 0.0
O90 O 0.21488 0.05415 0.42508 0.0
Fe91 Fe 0.23721 0.03934 0.43928 0.0
O92 O 0.25885 0.06158 0.43395 0.0
O93 O 0.23927 0.09005 0.41886 0.0
O94 O 0.19767 0.09233 0.407 0.0
C95 C 0.18644 0.09659 0.42514 0.0
C96 C 0.24931 0.03362 0.39447 0.0
O97 O 0.18389 0.08137 0.44032 0.0
C98 C 0.20127 0.00683 0.43828 0.0
O99 O 0.20323 0.05482 0.38245 0.0
O100 O 0.17368 0.05423 0.40586 0.0
O101 O 0.24438 0.02407 0.41322 0.0
O102 O 0.24549 0.05477 0.39142 0.0
C103 C 0.21164 0.05245 0.47597 0.0
O104 O 0.18708 0.0203 0.42906 0.0
O105 O 0.21959 0.01445 0.44709 0.0
C106 C 0.18226 0.05109 0.38616 0.0
O107 O 0.19391 0.04696 0.46469 0.0
O108 O 0.231 0.05363 0.46635 0.0
C109 C 0.25637 0.08278 0.42993 0.0
Fe110 Fe 0.30745 0.9523 0.92622 0.0
Fe111 Fe 0.25591 0.9581 0.93285 0.0
O112 O 0.27918 0.94538 0.9181 0.0
Fe113 Fe 0.27419 0.92594 0.89535 0.0
O114 O 0.29952 0.90805 0.90156 0.0
O115 O 0.31341 0.92278 0.93342 0.0
O116 O 0.30045 0.95681 0.9566 0.0
C117 C 0.28416 0.94886 0.96858 0.0
C118 C 0.31035 0.94989 0.87791 0.0
O119 O 0.26475 0.94519 0.9598 0.0
C120 C 0.24187 0.96124 0.88837 0.0
O121 O 0.30292 0.9823 0.91937 0.0
O122 O 0.27103 0.98501 0.93921 0.0
O123 O 0.28985 0.94372 0.87517 0.0
O124 O 0.31972 0.94891 0.89745 0.0
C125 C 0.2408 0.91282 0.92545 0.0
O126 O 0.24604 0.97159 0.90688 0.0
O127 O 0.24822 0.94066 0.88528 0.0
C128 C 0.28766 0.99439 0.92882 0.0
O129 O 0.23648 0.93376 0.92898 0.0
O130 O 0.25814 0.90688 0.91399 0.0
C131 C 0.31144 0.90618 0.91968 0.0
Fe132 Fe 0.71953 0.44703 0.58211 0.0
Fe133 Fe 0.69153 0.4756 0.54833 0.0
O134 O 0.71823 0.46494 0.55754 0.0
Fe135 Fe 0.74332 0.47229 0.54209 0.0
O136 O 0.7495 0.44254 0.53653 0.0
O137 O 0.74365 0.42967 0.57155 0.0
O138 O 0.70047 0.42592 0.56937 0.0
C139 C 0.68056 0.4307 0.56249 0.0
C140 C 0.75683 0.47472 0.58861 0.0
O141 O 0.6748 0.4513 0.559 0.0
C142 C 0.72115 0.51298 0.53966 0.0
O143 O 0.69571 0.46159 0.597 0.0
O144 O 0.68802 0.49126 0.5749 0.0
O145 O 0.76188 0.47306 0.56753 0.0
O146 O 0.73838 0.46675 0.59649 0.0
C147 C 0.71039 0.46312 0.5076 0.0
O148 O 0.70298 0.50191 0.53557 0.0
O149 O 0.73883 0.50279 0.54656 0.0
C150 C 0.68795 0.48177 0.59437 0.0
O151 O 0.69405 0.46032 0.52151 0.0
O152 O 0.72891 0.47273 0.51383 0.0
C153 C 0.75124 0.42694 0.55136 0.0
Fe154 Fe 0.77787 0.55675 0.09152 0.0
Fe155 Fe 0.80982 0.53464 0.05627 0.0
O156 O 0.78192 0.54143 0.06558 0.0
Fe157 Fe 0.75821 0.53292 0.04877 0.0
O158 O 0.7497 0.56226 0.04514 0.0
O159 O 0.75224 0.5723 0.08147 0.0
O160 O 0.79462 0.58086 0.08124 0.0
C161 C 0.81494 0.57923 0.07411 0.0
C162 C 0.74345 0.52521 0.09427 0.0
O163 O 0.82342 0.55985 0.06926 0.0
C164 C 0.78449 0.49496 0.04446 0.0
O165 O 0.80275 0.54366 0.10596 0.0
O166 O 0.8145 0.51733 0.08153 0.0
O167 O 0.73891 0.52881 0.07333 0.0
O168 O 0.76103 0.53372 0.10344 0.0
C169 C 0.79026 0.54856 0.01632 0.0
O170 O 0.80148 0.50816 0.04137 0.0
O171 O 0.76563 0.50285 0.05139 0.0
C172 C 0.81242 0.52461 0.10181 0.0
O173 O 0.80608 0.55178 0.03069 0.0
O174 O 0.77329 0.53583 0.02107 0.0
C175 C 0.74597 0.57635 0.06105 0.0
Fe176 Fe 0.40458 0.21491 0.05205 0.0
Fe177 Fe 0.43489 0.17975 0.02745 0.0
O178 O 0.429 0.2084 0.03503 0.0
Fe179 Fe 0.44738 0.2306 0.02548 0.0
O180 O 0.44298 0.24837 0.05104 0.0
O181 O 0.42239 0.22692 0.07441 0.0
O182 O 0.40497 0.18773 0.06826 0.0
C183 C 0.42148 0.17408 0.07192 0.0
C184 C 0.40562 0.2504 0.01935 0.0
O185 O 0.4371 0.17152 0.05721 0.0
C186 C 0.44487 0.20122 0.98704 0.0
O187 O 0.38542 0.20341 0.03043 0.0
O188 O 0.40469 0.17128 0.02576 0.0
O189 O 0.42409 0.24409 0.01009 0.0
O190 O 0.39987 0.24317 0.03902 0.0
C191 C 0.47841 0.19794 0.03803 0.0
O192 O 0.43306 0.18626 -0.0028 0.0
O193 O 0.45519 0.21665 -0.00169 0.0
C194 C 0.38716 0.18353 0.02219 0.0
O195 O 0.46613 0.18321 0.02783 0.0
O196 O 0.47169 0.21833 0.04034 0.0
C197 C 0.43686 0.24266 0.07111 0.0
Fe198 Fe 0.93955 0.24982 0.95962 0.0
Fe199 Fe 0.89909 0.26997 0.93271 0.0
O200 O 0.92363 0.27378 0.95012 0.0
Fe201 Fe 0.93227 0.3016 0.95815 0.0
O202 O 0.96298 0.29482 0.95934 0.0
O203 O 0.96532 0.25999 0.94523 0.0
O204 O 0.93382 0.23259 0.93403 0.0
C205 C 0.92831 0.23869 0.91394 0.0
C206 C 0.93843 0.27868 -0.0016 0.0
O207 O 0.91588 0.25605 0.91061 0.0
C208 C 0.88385 0.30394 0.96066 0.0
O209 O 0.91484 0.23837 0.97453 0.0
O210 O 0.89089 0.2425 0.94571 0.0
O211 O 0.92837 0.29494 0.98826 0.0
O212 O 0.94797 0.26281 0.98704 0.0
C213 C 0.92078 0.30907 0.91357 0.0
O214 O 0.88068 0.28372 0.95377 0.0
O215 O 0.90318 0.31355 0.9584 0.0
C216 C 0.89572 0.23437 0.96528 0.0
O217 O 0.90303 0.29688 0.91666 0.0
O218 O 0.93651 0.3097 0.92842 0.0
C219 C 0.9743 0.27923 0.94933 0.0
Fe220 Fe 0.54933 0.72963 0.44751 0.0
Fe221 Fe 0.5912 0.71441 0.4193 0.0
O222 O 0.56803 0.7078 0.43793 0.0
Fe223 Fe 0.56358 0.67929 0.4471 0.0
O224 O 0.53228 0.6819 0.4494 0.0
O225 O 0.52465 0.7157 0.43474 0.0
O226 O 0.55145 0.74665 0.42126 0.0
C227 C 0.55717 0.74086 0.40115 0.0
C228 C 0.55541 0.70205 0.48704 0.0
O229 O 0.57205 0.72562 0.39764 0.0
C230 C 0.61179 0.68377 0.44783 0.0
O231 O 0.57271 0.74469 0.46093 0.0
O232 O 0.59634 0.74299 0.43157 0.0
O233 O 0.56748 0.68713 0.47701 0.0
O234 O 0.54394 0.71649 0.47556 0.0
C235 C 0.57346 0.67276 0.40178 0.0
O236 O 0.61195 0.70379 0.43983 0.0
O237 O 0.59405 0.67135 0.44639 0.0
C238 C 0.59095 0.75082 0.45114 0.0
O239 O 0.58998 0.68683 0.40372 0.0
O240 O 0.55926 0.67005 0.41789 0.0
C241 C 0.51839 0.69569 0.43999 0.0
Fe242 Fe 0.05444 0.80461 0.55405 0.0
Fe243 Fe 0.05476 0.7535 0.54263 0.0
O244 O 0.06793 0.77762 0.55538 0.0
Fe245 Fe 0.09485 0.77501 0.56912 0.0
O246 O 0.08921 0.79784 0.59021 0.0
O247 O 0.05286 0.80615 0.58505 0.0
O248 O 0.0252 0.79316 0.55416 0.0
C249 C 0.01724 0.77417 0.56095 0.0
C250 C 0.10064 0.81505 0.54578 0.0
O251 O 0.02936 0.7563 0.56058 0.0
C252 C 0.09942 0.74663 0.53034 0.0
O253 O 0.05553 0.80446 0.52309 0.0
O254 O 0.04156 0.76969 0.51902 0.0
O255 O 0.10787 0.79493 0.54896 0.0
O256 O 0.08121 0.82107 0.55332 0.0
C257 C 0.07327 0.73646 0.58417 0.0
O258 O 0.07903 0.74921 0.52375 0.0
O259 O 0.10527 0.75187 0.55057 0.0
C260 C 0.04718 0.78892 0.5106 0.0
O261 O 0.06586 0.73327 0.56397 0.0
O262 O 0.08331 0.75483 0.58967 0.0
C263 C 0.07054 0.80634 0.59753 0.0
Fe264 Fe 0.93719 0.59371 0.78048 0.0
Fe265 Fe 0.961 0.55943 0.81212 0.0
O266 O 0.95207 0.56752 0.78445 0.0
Fe267 Fe 0.95801 0.54949 0.76084 0.0
O268 O 0.92782 0.54672 0.75454 0.0
O269 O 0.92012 0.58357 0.75601 0.0
O270 O 0.91394 0.5845 0.79915 0.0
C271 C 0.91714 0.57858 0.81974 0.0
C272 C 0.96721 0.59388 0.74458 0.0
O273 O 0.93705 0.5735 0.82678 0.0
C274 C -0.00201 0.54499 0.78408 0.0
O275 O 0.95184 0.60866 0.80408 0.0
O276 O 0.979 0.5847 0.81448 0.0
O277 O 0.96181 0.57323 0.74054 0.0
O278 O 0.9596 0.60426 0.76195 0.0
C279 C 0.9452 0.51859 0.79598 0.0
O280 O 0.98649 0.54368 0.80247 0.0
O281 O 0.98862 0.55109 0.76565 0.0
C282 C 0.97126 0.60486 0.81308 0.0
O283 O 0.94341 0.53387 0.81117 0.0
O284 O 0.95543 0.52258 0.7772 0.0
C285 C 0.9147 0.56333 0.75036 0.0
Fe286 Fe 0.52809 0.43752 0.25421 0.0
Fe287 Fe 0.5584 0.40155 0.27775 0.0
O288 O 0.53902 0.42486 0.27947 0.0
Fe289 Fe 0.53049 0.43554 0.30642 0.0
O290 O 0.52726 0.46528 0.29667 0.0
O291 O 0.54076 0.46509 0.26145 0.0
O292 O 0.55378 0.43177 0.23707 0.0
C293 C 0.57434 0.42853 0.24321 0.0
C294 C 0.48976 0.43689 0.28375 0.0
O295 O 0.57891 0.41876 0.26196 0.0
C296 C 0.53049 0.38769 0.31266 0.0
O297 O 0.51496 0.41072 0.24578 0.0
O298 O 0.5459 0.38983 0.25131 0.0
O299 O 0.50077 0.429 0.30058 0.0
O300 O 0.50026 0.44545 0.26675 0.0
C301 C 0.57606 0.4284 0.31396 0.0
O302 O 0.539 0.38294 0.29336 0.0
O303 O 0.532 0.40771 0.32091 0.0
C304 C 0.52588 0.39223 0.2432 0.0
O305 O 0.57419 0.4092 0.30396 0.0
O306 O 0.55982 0.44266 0.31373 0.0
C307 C 0.53642 0.47557 0.27988 0.0
Fe308 Fe 0.42155 0.90024 0.21043 0.0
Fe309 Fe 0.45054 0.93212 0.18029 0.0
O310 O 0.43942 0.92472 0.20741 0.0
Fe311 Fe 0.44655 0.94169 0.23151 0.0
O312 O 0.41927 0.93672 0.24625 0.0
O313 O 0.39826 0.9174 0.22153 0.0
O314 O 0.40821 0.90334 0.18196 0.0
C315 C 0.40645 0.92094 0.16927 0.0
C316 C 0.45077 0.89827 0.24863 0.0
O317 O 0.42196 0.93604 0.16899 0.0
C318 C 0.4881 0.93918 0.20703 0.0
O319 O 0.44378 0.88131 0.19962 0.0
O320 O 0.45209 0.90266 0.16976 0.0
O321 O 0.46012 0.91742 0.24513 0.0
O322 O 0.43181 0.89315 0.23936 0.0
C323 C 0.43972 0.97514 0.19989 0.0
O324 O 0.47966 0.92839 0.19033 0.0
O325 O 0.47526 0.94967 0.22107 0.0
C326 C 0.45412 0.88416 0.18087 0.0
O327 O 0.45113 0.96309 0.18587 0.0
O328 O 0.43347 0.967 0.21893 0.0
C329 C 0.39993 0.93077 0.23841 0.0
Fe330 Fe 0.06658 0.09909 0.70699 0.0
Fe331 Fe 0.04193 0.06906 0.67152 0.0
O332 O 0.04848 0.0755 0.70035 0.0
Fe333 Fe 0.03684 0.05829 0.72248 0.0
O334 O 0.06504 0.05051 0.7321 0.0
O335 O 0.07954 0.08536 0.73228 0.0
O336 O 0.09011 0.08724 0.69051 0.0
C337 C 0.08871 0.08132 0.66979 0.0
C338 C 0.03342 0.10309 0.73989 0.0
O339 O 0.06942 0.07917 0.66008 0.0
C340 C -0.0002 0.06075 0.69453 0.0
O341 O 0.05669 0.11686 0.68284 0.0
O342 O 0.02856 0.0967 0.66783 0.0
O343 O 0.03468 0.0817 0.74322 0.0
O344 O 0.04429 0.11255 0.72381 0.0
C345 C 0.04901 0.02615 0.68848 0.0
O346 O 0.01312 0.05771 0.6776 0.0
O347 O 0.00776 0.06496 0.71414 0.0
C348 C 0.038 0.11574 0.67178 0.0
O349 O 0.05502 0.04097 0.67392 0.0
O350 O 0.03693 0.03164 0.70567 0.0
C351 C 0.08064 0.06433 0.73769 0.0
Fe352 Fe 0.78319 0.91163 0.59482 0.0
Fe353 Fe 0.8208 0.92878 0.56244 0.0
O354 O 0.79159 0.92768 0.57038 0.0
Fe355 Fe 0.77071 0.94265 0.55425 0.0
O356 O 0.74819 0.9213 0.5593 0.0
O357 O 0.76556 0.89299 0.57729 0.0
O358 O 0.80622 0.89015 0.59237 0.0
C359 C 0.81782 0.88396 0.57507 0.0
C360 C 0.75558 0.95103 0.59776 0.0
O361 O 0.82194 0.89796 0.55913 0.0
C362 C 0.80811 0.97342 0.55528 0.0
O363 O 0.80028 0.9298 0.61332 0.0
O364 O 0.83145 0.92751 0.59212 0.0
O365 O 0.76242 0.95947 0.57908 0.0
O366 O 0.75871 0.93001 0.60208 0.0
C367 C 0.79762 0.92544 0.51976 0.0
O368 O 0.82165 0.95973 0.5651 0.0
O369 O 0.78957 0.96647 0.54644 0.0
C370 C 0.82143 0.93333 0.61054 0.0
O371 O 0.81521 0.93031 0.53154 0.0
O372 O 0.77774 0.92705 0.5282 0.0
C373 C 0.74973 0.90021 0.56438 0.0
Fe374 Fe 0.72796 0.03006 0.05619 0.0
Fe375 Fe 0.71357 0.05386 0.101 0.0
O376 O 0.70665 0.03688 0.07672 0.0
Fe377 Fe 0.67854 0.02656 0.07336 0.0
O378 O 0.67529 0.04124 0.04623 0.0
O379 O 0.70816 0.02988 0.0316 0.0
O380 O 0.73257 0.06004 0.05028 0.0
C381 C 0.7386 0.07455 0.06507 0.0
C382 C 0.70582 0.98907 0.05968 0.0
O383 O 0.73611 0.07048 0.08629 0.0
C384 C 0.68427 0.0202 0.11922 0.0
O385 O 0.75135 0.02887 0.07739 0.0
O386 O 0.73358 0.03238 0.11054 0.0
O387 O 0.68696 -0.00026 0.05939 0.0
O388 O 0.72465 -0.00047 0.06067 0.0
C389 C 0.67234 0.07197 0.08952 0.0
O390 O 0.69245 0.04028 0.12035 0.0
O391 O 0.68035 0.01107 0.10009 0.0
C392 C 0.74968 0.02434 0.09861 0.0
O393 O 0.69341 0.07595 0.0925 0.0
O394 O 0.6651 0.05162 0.08691 0.0
C395 C 0.68833 0.03848 0.02917 0.0
Fe396 Fe 0.24799 0.53434 0.44429 0.0
Fe397 Fe 0.27424 0.55975 0.4061 0.0
O398 O 0.27412 0.54262 0.43124 0.0
Fe399 Fe 0.30031 0.53373 0.44346 0.0
O400 O 0.29408 0.54918 0.46962 0.0
O401 O 0.25944 0.53479 0.47376 0.0
O402 O 0.24013 0.56396 0.44865 0.0
C403 C 0.23927 0.5791 0.43325 0.0
C404 C 0.27211 0.49484 0.44896 0.0
O405 O 0.24835 0.57594 0.41377 0.0
C406 C 0.3083 0.5265 0.39792 0.0
O407 O 0.23201 0.53244 0.41723 0.0
O408 O 0.25802 0.53862 0.39057 0.0
O409 O 0.28902 0.50684 0.45527 0.0
O410 O 0.25441 0.50406 0.44076 0.0
C411 C 0.30993 0.57895 0.42925 0.0
O412 O 0.30001 0.54623 0.39402 0.0
O413 O 0.30757 0.5179 0.41778 0.0
C414 C 0.2392 0.53018 0.39685 0.0
O415 O 0.29071 0.58223 0.41996 0.0
O416 O 0.31657 0.55888 0.43408 0.0
C417 C 0.27657 0.54553 0.48179 0.0
Fe418 Fe 0.21267 0.42364 0.89672 0.0
Fe419 Fe 0.1757 0.44695 0.92593 0.0
O420 O 0.2049 0.44135 0.92022 0.0
Fe421 Fe 0.22617 0.45354 0.93816 0.0
O422 O 0.24629 0.42974 0.93508 0.0
O423 O 0.22758 0.4037 0.9152 0.0
O424 O 0.18734 0.4046 0.89924 0.0
C425 C 0.1739 0.40127 0.9161 0.0
C426 C 0.24533 0.45965 0.89587 0.0
O427 O 0.17012 0.41693 0.93051 0.0
C428 C 0.19378 0.48932 0.93328 0.0
O429 O 0.19854 0.44241 0.87642 0.0
O430 O 0.1665 0.44528 0.89591 0.0
O431 O 0.23877 0.46874 0.91436 0.0
O432 O 0.23907 0.4396 0.89022 0.0
C433 C 0.19446 0.44061 0.96993 0.0
O434 O 0.17978 0.47749 0.92177 0.0
O435 O 0.20983 0.47972 0.94436 0.0
C436 C 0.17769 0.44769 0.87748 0.0
O437 O 0.17932 0.44934 0.95707 0.0
O438 O 0.21492 0.43888 0.96321 0.0
C439 C 0.24324 0.40915 0.92903 0.0
Fe440 Fe 0.58906 0.77257 0.9329 0.0
Fe441 Fe 0.55821 0.80614 0.95903 0.0
O442 O 0.56468 0.77792 0.95029 0.0
Fe443 Fe 0.54686 0.75502 0.95904 0.0
O444 O 0.55153 0.73807 0.93297 0.0
O445 O 0.57141 0.76075 0.91032 0.0
O446 O 0.58758 0.80012 0.91753 0.0
C447 C 0.57062 0.81335 0.91442 0.0
C448 C 0.58924 0.73626 0.96469 0.0
O449 O 0.55522 0.81532 0.92952 0.0
C450 C 0.54942 0.7828 -0.00137 0.0
O451 O 0.60816 0.78398 0.95452 0.0
O452 O 0.58821 0.81546 0.96039 0.0
O453 O 0.5704 0.74149 0.97383 0.0
O454 O 0.59478 0.74417 0.94521 0.0
C455 C 0.51453 0.78712 0.9494 0.0
O456 O 0.56083 0.79846 0.98902 0.0
O457 O 0.53908 0.76783 0.98677 0.0
C458 C 0.60618 0.80364 0.96314 0.0
O459 O 0.52701 0.80181 0.95942 0.0
O460 O 0.52213 0.76741 0.94483 0.0
C461 C 0.55767 0.7443 0.91307 0.0
Fe462 Fe 0.04438 0.74165 0.04569 0.0
Fe463 Fe 0.08591 0.7152 0.06434 0.0
O464 O 0.05878 0.71546 0.05073 0.0
Fe465 Fe 0.04592 0.68958 0.04196 0.0
O466 O 0.02165 0.69452 0.06054 0.0
O467 O 0.01521 0.72947 0.04824 0.0
O468 O 0.04308 0.74732 0.0761 0.0
C469 C 0.06037 0.74816 0.08907 0.0
C470 C 0.03685 0.71962 0.00541 0.0
O471 O 0.07961 0.74014 0.08278 0.0
C472 C 0.09025 0.68203 0.02909 0.0
O473 O 0.07072 0.75865 0.04226 0.0
O474 O 0.09813 0.73289 0.04203 0.0
O475 O 0.03131 0.70213 0.01701 0.0
O476 O 0.04526 0.73708 0.01491 0.0
C477 C 0.06559 0.67829 0.0847 0.0
O478 O 0.09676 0.69032 0.04815 0.0
O479 O 0.06956 0.68326 0.023 0.0
C480 C 0.09061 0.75229 0.0363 0.0
O481 O 0.07546 0.6973 0.08755 0.0
O482 O 0.05814 0.6724 0.06519 0.0
C483 C 0.00862 0.71165 0.05885 0.0
Fe484 Fe 0.43065 0.31591 0.54648 0.0
Fe485 Fe 0.44531 0.26577 0.54624 0.0
O486 O 0.42565 0.28725 0.55458 0.0
Fe487 Fe 0.401 0.28027 0.57086 0.0
O488 O 0.40964 0.29909 0.59408 0.0
O489 O 0.41626 0.32848 0.57156 0.0
O490 O 0.45701 0.31662 0.5628 0.0
C491 C 0.47356 0.30312 0.55924 0.0
C492 C 0.38499 0.31215 0.538 0.0
O493 O 0.47065 0.28467 0.54803 0.0
C494 C 0.40211 0.24492 0.5401 0.0
O495 O 0.44603 0.30887 0.51989 0.0
O496 O 0.44102 0.27184 0.51604 0.0
O497 O 0.3828 0.30254 0.55745 0.0
O498 O 0.40457 0.31624 0.52977 0.0
C499 C 0.43599 0.25267 0.59019 0.0
O500 O 0.42353 0.24317 0.54323 0.0
O501 O 0.39089 0.26124 0.5487 0.0
C502 C 0.44519 0.29115 0.50739 0.0
O503 O 0.45083 0.2585 0.57565 0.0
O504 O 0.41487 0.25675 0.58687 0.0
C505 C 0.41285 0.32027 0.59138 0.0
Fe506 Fe 0.90237 0.21495 0.43531 0.0
Fe507 Fe 0.94194 0.19005 0.45892 0.0
O508 O 0.92907 0.21574 0.44978 0.0
Fe509 Fe 0.94295 0.24224 0.45493 0.0
O510 O 0.94461 0.24769 0.42452 0.0
O511 O 0.90829 0.24033 0.41745 0.0
O512 O 0.9141 0.19767 0.41225 0.0
C513 C 0.92365 0.17852 0.41535 0.0
C514 C 0.89622 0.25151 0.46367 0.0
O515 O 0.93076 0.17277 0.43508 0.0
C516 C 0.95011 0.22072 0.49558 0.0
O517 O 0.89163 0.18942 0.45062 0.0
O518 O 0.91774 0.18342 0.47706 0.0
O519 O 0.91606 0.25849 0.45804 0.0
O520 O 0.8892 0.23202 0.45752 0.0
C521 C 0.97948 0.21276 0.44305 0.0
O522 O 0.95521 0.20273 0.48448 0.0
O523 O 0.94219 0.23816 0.48564 0.0
C524 C 0.8975 0.1813 0.46992 0.0
O525 O 0.96695 0.19527 0.4413 0.0
O526 O 0.9723 0.23065 0.45302 0.0
C527 C 0.92749 0.24844 0.41139 0.0
C528 C 0.10957 0.42245 0.27451 0.0
C529 C 0.1021 0.43474 0.25528 0.0
C530 C 0.12758 0.43091 0.28783 0.0
C531 C 0.15549 0.48653 0.29994 0.0
H532 H 0.19531 0.44935 0.3381 0.0
C533 C 0.22753 0.52348 0.35633 0.0
C534 C 0.22494 0.51841 0.37976 0.0
C535 C 0.21436 0.51205 0.34002 0.0
C536 C 0.18425 0.45982 0.32745 0.0
H537 H 0.10838 0.46406 0.23341 0.0
H538 H 0.14081 0.47809 0.25564 0.0
H539 H 0.17052 0.43077 0.30979 0.0
H540 H 0.20709 0.49714 0.40454 0.0
H541 H 0.18424 0.47676 0.37572 0.0
H542 H 0.16968 0.51555 0.31733 0.0
C543 C 0.1322 0.46264 0.26131 0.0
C544 C 0.17001 0.44926 0.31135 0.0
C545 C 0.11382 0.45454 0.24844 0.0
C546 C 0.20921 0.50149 0.38659 0.0
C547 C 0.19635 0.48972 0.37018 0.0
C548 C 0.17004 0.49704 0.31565 0.0
C549 C 0.13865 0.45151 0.28173 0.0
C550 C 0.15526 0.4625 0.29757 0.0
C551 C 0.19877 0.49508 0.34685 0.0
C552 C 0.18428 0.48376 0.32966 0.0
H553 H 0.10057 0.40716 0.28006 0.0
H554 H 0.13191 0.42196 0.30352 0.0
H555 H 0.14396 0.4973 0.29016 0.0
H556 H 0.23956 0.53644 0.35063 0.0
H557 H 0.21639 0.51639 0.32204 0.0
C558 C 0.26215 0.46847 0.85752 0.0
C559 C 0.26182 0.47204 0.88135 0.0
C560 C 0.27748 0.48064 0.84371 0.0
C561 C 0.33311 0.50484 0.8422 0.0
H562 H 0.31127 0.54693 0.79555 0.0
C563 C 0.39661 0.55678 0.78767 0.0
C564 C 0.39108 0.56014 0.7645 0.0
C565 C 0.38026 0.54814 0.80287 0.0
C566 C 0.3177 0.535 0.80824 0.0
H567 H 0.2773 0.49079 0.90953 0.0
H568 H 0.30475 0.51144 0.88531 0.0
H569 H 0.28375 0.52663 0.81976 0.0
H570 H 0.36428 0.55727 0.73893 0.0
H571 H 0.33608 0.54113 0.76507 0.0
H572 H 0.36691 0.51198 0.83018 0.0
C573 C 0.29287 0.49953 0.87743 0.0
C574 C 0.30192 0.52355 0.82215 0.0
C575 C 0.27719 0.48779 0.89118 0.0
C576 C 0.36887 0.55506 0.75681 0.0
C577 C 0.35268 0.54591 0.77187 0.0
C578 C 0.34889 0.51587 0.82799 0.0
C579 C 0.29299 0.49611 0.85363 0.0
C580 C 0.30956 0.50842 0.83917 0.0
C581 C 0.35821 0.54213 0.79508 0.0
C582 C 0.3414 0.53109 0.81078 0.0
H583 H 0.25034 0.45654 0.84956 0.0
H584 H 0.27745 0.47777 0.82534 0.0
H585 H 0.33925 0.49306 0.8552 0.0
H586 H 0.41361 0.56078 0.79403 0.0
H587 H 0.38501 0.54603 0.82071 0.0
C588 C 0.62693 0.04574 0.73559 0.0
C589 C 0.60482 0.04206 0.72667 0.0
C590 C 0.64636 0.04017 0.72258 0.0
C591 C 0.66485 0.02812 0.66293 0.0
H592 H 0.71236 0.99131 0.69131 0.0
C593 C 0.73309 0.95539 0.63404 0.0
C594 C 0.74207 0.9652 0.61391 0.0
C595 C 0.71974 0.96841 0.64903 0.0
C596 C 0.69925 0.00164 0.68316 0.0
H597 H 0.58585 0.02977 0.69704 0.0
H598 H 0.61946 0.01999 0.67468 0.0
H599 H 0.68198 0.00772 0.71502 0.0
H600 H 0.74484 -0.00331 0.59422 0.0
H601 H 0.72152 0.01947 0.62053 0.0
H602 H 0.68129 0.02106 0.63093 0.0
C603 C 0.62189 0.02747 0.69152 0.0
C604 C 0.68201 0.01125 0.69678 0.0
C605 C 0.60258 0.0329 0.70447 0.0
C606 C 0.73794 0.98853 0.60945 0.0
C607 C 0.72458 0.00159 0.6245 0.0
C608 C 0.68204 0.01852 0.64933 0.0
C609 C 0.64399 0.031 0.70039 0.0
C610 C 0.66423 0.02398 0.68668 0.0
C611 C 0.71511 0.99159 0.64432 0.0
C612 C 0.69905 0.0046 0.6592 0.0
H613 H 0.62924 0.05276 0.75264 0.0
H614 H 0.6632 0.0431 0.72983 0.0
H615 H 0.65155 0.03818 0.65472 0.0
H616 H 0.73602 0.93751 0.63807 0.0
H617 H 0.71242 0.96006 0.66394 0.0
C618 C 0.87932 0.91716 0.22172 0.0
C619 C 0.89966 0.93 0.2207 0.0
C620 C 0.86224 0.92043 0.20524 0.0
C621 C 0.84953 0.94485 0.1485 0.0
H622 H 0.79458 0.96859 0.17741 0.0
C623 C 0.7891 0.00808 0.10302 0.0
C624 C 0.76597 0.0086 0.1095 0.0
C625 C 0.80432 0.99331 0.11418 0.0
C626 C 0.80944 0.96147 0.16885 0.0
H627 H 0.91897 0.95494 0.20093 0.0
H628 H 0.8893 0.96039 0.17204 0.0
H629 H 0.82339 0.94972 0.20064 0.0
H630 H 0.74004 0.99312 0.13121 0.0
H631 H 0.7662 0.96666 0.14987 0.0
H632 H 0.83575 0.95683 0.11669 0.0
C633 C 0.88647 0.94795 0.18557 0.0
C634 C 0.82596 0.95066 0.18225 0.0
C635 C 0.9033 0.94503 0.20223 0.0
C636 C 0.758 0.99343 0.12639 0.0
C637 C 0.77301 0.97829 0.13708 0.0
C638 C 0.83278 0.95532 0.13497 0.0
C639 C 0.86558 0.93617 0.1873 0.0
C640 C 0.84643 0.94293 0.1723 0.0
C641 C 0.79648 0.97843 0.13157 0.0
C642 C 0.81287 0.96443 0.14511 0.0
H643 H 0.87618 0.90544 0.23581 0.0
H644 H 0.84617 0.91124 0.20688 0.0
H645 H 0.86523 0.93891 0.14051 0.0
H646 H 0.79552 0.01958 0.08989 0.0
H647 H 0.82232 0.99415 0.10968 0.0
C648 C 0.39993 0.20602 0.52191 0.0
C649 C 0.3898 0.22736 0.52672 0.0
C650 C 0.38807 0.18964 0.50904 0.0
C651 C 0.34179 0.18335 0.46703 0.0
H652 H 0.33406 0.1224 0.49247 0.0
C653 C 0.27011 0.12265 0.43757 0.0
C654 C 0.27434 0.09895 0.43736 0.0
C655 C 0.28657 0.13779 0.44605 0.0
C656 C 0.33641 0.13917 0.48484 0.0
H657 H 0.35958 0.24848 0.52144 0.0
H658 H 0.33905 0.21996 0.49893 0.0
H659 H 0.35908 0.14978 0.51173 0.0
H660 H 0.29948 0.07258 0.44501 0.0
H661 H 0.3284 0.09906 0.4593 0.0
H662 H 0.31909 0.17291 0.44022 0.0
C663 C 0.3561 0.21591 0.50511 0.0
C664 C 0.3507 0.15484 0.49593 0.0
C665 C 0.36778 0.23212 0.51818 0.0
C666 C 0.29562 0.09075 0.44515 0.0
C667 C 0.31216 0.10591 0.45343 0.0
C668 C 0.32769 0.16763 0.45582 0.0
C669 C 0.3661 0.19452 0.50048 0.0
C670 C 0.35311 0.1772 0.48738 0.0
C671 C 0.30769 0.12957 0.45431 0.0
C672 C 0.32444 0.14552 0.46487 0.0
H673 H 0.4169 0.20191 0.52823 0.0
H674 H 0.39612 0.17325 0.50563 0.0
H675 H 0.34365 0.20044 0.45997 0.0
H676 H 0.25382 0.12947 0.4318 0.0
H677 H 0.28241 0.15588 0.44682 0.0
C678 C 0.23082 0.87207 0.93492 0.0
C679 C 0.2247 0.89537 0.93421 0.0
C680 C 0.21606 0.85597 0.94484 0.0
C681 C 0.1684 0.85254 0.98627 0.0
H682 H 0.15938 0.79175 0.96087 0.0
C683 C 0.0991 0.79116 0.02021 0.0
C684 C 0.10583 0.76832 0.02392 0.0
C685 C 0.11355 0.80629 0.00857 0.0
C686 C 0.1619 0.80862 0.96823 0.0
H687 H 0.19792 0.91991 0.94245 0.0
H688 H 0.17211 0.89186 0.95923 0.0
H689 H 0.18471 0.81883 0.94127 0.0
H690 H 0.13281 0.74333 0.01799 0.0
H691 H 0.15803 0.76986 -0.00227 0.0
H692 H 0.14555 0.84243 0.01313 0.0
C693 C 0.18851 0.88607 0.95269 0.0
C694 C 0.1764 0.82409 0.95705 0.0
C695 C 0.20327 0.90213 0.94294 0.0
C696 C 0.12718 0.76086 0.01551 0.0
C697 C 0.14156 0.77597 0.00376 0.0
C698 C 0.15386 0.83715 -0.00264 0.0
C699 C 0.19489 0.86289 0.95412 0.0
C700 C 0.17972 0.84625 0.96592 0.0
C701 C 0.13493 0.79885 0.0003 0.0
C702 C 0.15042 0.81507 0.98843 0.0
H703 H 0.24727 0.86637 0.9284 0.0
H704 H 0.22153 0.83825 0.94584 0.0
H705 H 0.17099 0.86932 0.99383 0.0
H706 H 0.08272 0.79741 0.02636 0.0
H707 H 0.10791 0.82378 0.00589 0.0
C708 C 0.85768 0.26015 0.48043 0.0
C709 C 0.88037 0.267 0.47593 0.0
C710 C 0.84254 0.27491 0.49163 0.0
C711 C 0.81154 0.31598 0.4993 0.0
H712 H 0.83045 0.35411 0.55046 0.0
C713 C 0.76762 0.40062 0.52199 0.0
C714 C 0.76371 0.40582 0.5452 0.0
C715 C 0.78006 0.3812 0.51585 0.0
C716 C 0.82483 0.34333 0.5364 0.0
H717 H 0.90513 0.29445 0.48025 0.0
H718 H 0.87857 0.32029 0.49964 0.0
H719 H 0.85634 0.32444 0.53597 0.0
H720 H 0.7694 0.39451 0.58021 0.0
H721 H 0.79154 0.36048 0.56937 0.0
H722 H 0.78026 0.33515 0.49939 0.0
C723 C 0.8726 0.30343 0.49463 0.0
C724 C 0.83971 0.32656 0.52797 0.0
C725 C 0.88773 0.28871 0.48334 0.0
C726 C 0.77218 0.39094 0.56218 0.0
C727 C 0.78489 0.37156 0.55601 0.0
C728 C 0.79675 0.33281 0.50762 0.0
C729 C 0.8498 0.29675 0.49868 0.0
C730 C 0.83335 0.31302 0.50908 0.0
C731 C 0.789 0.3666 0.53278 0.0
C732 C 0.80344 0.34694 0.52594 0.0
H733 H 0.85149 0.24346 0.47513 0.0
H734 H 0.82511 0.26925 0.49474 0.0
H735 H 0.80624 0.30589 0.48462 0.0
H736 H 0.76119 0.41165 0.50848 0.0
H737 H 0.78322 0.37793 0.49782 0.0
C738 C 0.71569 0.60524 0.07068 0.0
C739 C 0.73227 0.59665 0.05547 0.0
C740 C 0.70017 0.62196 0.06322 0.0
C741 C 0.67413 0.64008 0.00928 0.0
H742 H 0.65314 0.69383 0.04233 0.0
C743 C 0.62411 0.71153 0.96516 0.0
C744 C 0.60461 0.72004 0.97644 0.0
C745 C 0.63901 0.69669 0.97646 0.0
C746 C 0.65871 0.67871 0.03308 0.0
H747 H 0.74733 0.6001 0.02161 0.0
H748 H 0.72076 0.62952 0.00885 0.0
H749 H 0.6816 0.66835 0.06 0.0
H750 H 0.58556 0.71995 0.0085 0.0
H751 H 0.61172 0.69384 0.0282 0.0
H752 H 0.6516 0.65036 0.98233 0.0
C753 C 0.71911 0.62292 0.02616 0.0
C754 C 0.67494 0.66421 0.04315 0.0
C755 C 0.73435 0.60618 0.03347 0.0
C756 C 0.60037 0.71352 -0.0007 0.0
C757 C 0.61539 0.69876 0.01065 0.0
C758 C 0.65805 0.65451 -0.00074 0.0
C759 C 0.70129 0.63026 0.04058 0.0
C760 C 0.68311 0.64504 0.03108 0.0
C761 C 0.63476 0.69016 -0.00074 0.0
C762 C 0.65052 0.67416 0.01086 0.0
H763 H 0.71387 0.5981 0.08774 0.0
H764 H 0.68659 0.62745 0.07466 0.0
H765 H 0.67966 0.62504 -0.00014 0.0
H766 H 0.62793 0.71634 0.94761 0.0
H767 H 0.65401 0.69049 0.96741 0.0
C768 C 0.4683 0.26425 0.08972 0.0
C769 C 0.44586 0.2557 0.09064 0.0
C770 C 0.477 0.27718 0.10779 0.0
C771 C 0.46594 0.2942 0.16841 0.0
H772 H 0.5069 0.34406 0.15206 0.0
C773 C 0.49256 0.37257 0.22497 0.0
C774 C 0.51638 0.37442 0.22812 0.0
C775 C 0.48364 0.35629 0.20987 0.0
C776 C 0.49555 0.33011 0.15679 0.0
H777 H 0.41489 0.25353 0.11105 0.0
H778 H 0.42961 0.27728 0.14226 0.0
H779 H 0.49145 0.31954 0.12207 0.0
H780 H 0.54953 0.36059 0.21835 0.0
H781 H 0.53384 0.33265 0.19128 0.0
H782 H 0.46942 0.30591 0.20319 0.0
C783 C 0.44081 0.27343 0.12795 0.0
C784 C 0.48683 0.31592 0.1397 0.0
C785 C 0.43229 0.25997 0.11005 0.0
C786 C 0.5311 0.35948 0.21626 0.0
C787 C 0.5222 0.34357 0.20081 0.0
C788 C 0.47433 0.30878 0.18548 0.0
C789 C 0.46322 0.28238 0.12692 0.0
C790 C 0.4721 0.29762 0.14529 0.0
C791 C 0.49845 0.34202 0.19743 0.0
C792 C 0.48933 0.32665 0.17972 0.0
H793 H 0.47922 0.26076 0.07507 0.0
H794 H 0.49456 0.28313 0.10668 0.0
H795 H 0.45489 0.28013 0.1734 0.0
H796 H 0.48087 0.38379 0.23407 0.0
H797 H 0.46525 0.35535 0.20731 0.0
C798 C 0.92668 0.22794 0.8723 0.0
C799 C 0.93563 0.22442 0.89441 0.0
C800 C 0.93409 0.21439 0.85396 0.0
C801 C 0.96405 0.193 0.81677 0.0
H802 H 0.9785 0.12909 0.8281 0.0
C803 C 0.02366 0.1407 0.75797 0.0
C804 C 0.01953 0.11711 0.75558 0.0
C805 C 0.01051 0.15374 0.77314 0.0
C806 C 0.97421 0.14678 0.82443 0.0
H807 H 0.95961 0.20428 0.91458 0.0
H808 H 0.9728 0.18117 0.8827 0.0
H809 H 0.9598 0.15141 0.85776 0.0
H810 H -0.00228 0.08886 0.76609 0.0
H811 H 0.97435 0.11169 0.79199 0.0
H812 H 0.97812 0.18817 0.78321 0.0
C813 C 0.95962 0.19387 0.87954 0.0
C814 C 0.96377 0.15967 0.84159 0.0
C815 C 0.95215 0.20724 0.89782 0.0
C816 C 0.00158 0.10693 0.76799 0.0
C817 C 0.98821 0.12002 0.78284 0.0
C818 C 0.97429 0.18 0.79945 0.0
C819 C 0.95064 0.19721 0.85744 0.0
C820 C 0.95913 0.18305 0.83817 0.0
C821 C 0.99276 0.14349 0.78589 0.0
C822 C 0.97993 0.15687 0.80329 0.0
H823 H 0.91392 0.24107 0.86918 0.0
H824 H 0.92676 0.21724 0.83713 0.0
H825 H 0.96075 0.21101 0.81366 0.0
H826 H 0.03737 0.14897 0.74852 0.0
H827 H 0.01469 0.1717 0.77532 0.0
C828 C 0.44998 0.86428 0.27463 0.0
C829 C 0.46247 0.88133 0.26315 0.0
C830 C 0.46137 0.84749 0.28732 0.0
C831 C 0.51792 0.83449 0.31369 0.0
H832 H 0.4916 0.77359 0.3188 0.0
C833 C 0.5605 0.75889 0.36242 0.0
C834 C 0.54723 0.75339 0.38176 0.0
C835 C 0.55123 0.77249 0.34499 0.0
C836 C 0.49918 0.79049 0.31724 0.0
H837 H 0.49654 0.89404 0.25533 0.0
H838 H 0.51648 0.86427 0.27661 0.0
H839 H 0.47348 0.8019 0.29381 0.0
H840 H 0.51376 0.75645 0.39769 0.0
H841 H 0.49735 0.77959 0.36681 0.0
H842 H 0.54381 0.82269 0.33695 0.0
C843 C 0.49791 0.86422 0.27665 0.0
C844 C 0.48871 0.8068 0.30322 0.0
C845 C 0.4865 0.88129 0.26441 0.0
C846 C 0.52433 0.76069 0.38299 0.0
C847 C 0.51493 0.77373 0.36534 0.0
C848 C 0.52863 0.818 0.32729 0.0
C849 C 0.4855 0.84712 0.2883 0.0
C850 C 0.49764 0.82918 0.30171 0.0
C851 C 0.52843 0.78006 0.34648 0.0
C852 C 0.51905 0.7961 0.3295 0.0
H853 H 0.43142 0.864 0.27392 0.0
H854 H 0.4512 0.83495 0.29649 0.0
H855 H 0.52512 0.85159 0.31329 0.0
H856 H 0.57822 0.75344 0.36121 0.0
H857 H 0.56187 0.77735 0.33054 0.0
C858 C 0.08176 0.7188 0.62247 0.0
C859 C 0.07051 0.71797 0.60118 0.0
C860 C 0.07754 0.70199 0.63903 0.0
C861 C 0.04797 0.64575 0.64791 0.0
H862 H 0.03584 0.67055 0.7084 0.0
C863 C 0.98269 0.62995 0.7278 0.0
C864 C 0.98281 0.60594 0.72889 0.0
C865 C -0.00165 0.64144 0.71387 0.0
C866 C 0.03906 0.66337 0.69157 0.0
H867 H 0.04661 0.69855 0.58025 0.0
H868 H 0.03862 0.67 0.60917 0.0
H869 H 0.05519 0.69412 0.68008 0.0
H870 H -0.00028 0.57503 0.71697 0.0
H871 H 0.02755 0.59512 0.69309 0.0
H872 H 0.02997 0.61579 0.65869 0.0
C873 C 0.05122 0.68308 0.61303 0.0
C874 C 0.05057 0.67675 0.67543 0.0
C875 C 0.05563 0.69965 0.59646 0.0
C876 C -0.001 0.59358 0.71605 0.0
C877 C 0.01497 0.6051 0.70243 0.0
C878 C 0.03607 0.63253 0.6639 0.0
C879 C 0.0618 0.68423 0.63466 0.0
C880 C 0.05432 0.66842 0.65312 0.0
C881 C 0.01478 0.62917 0.70112 0.0
C882 C 0.0307 0.64155 0.68561 0.0
H883 H 0.09352 0.73261 0.62648 0.0
H884 H 0.0862 0.7032 0.65542 0.0
H885 H 0.05114 0.6386 0.63106 0.0
H886 H 0.97036 0.63986 0.73755 0.0
H887 H -0.00273 0.65995 0.71284 0.0
C888 C 0.88841 0.57545 0.71889 0.0
C889 C 0.89469 0.55932 0.73566 0.0
C890 C 0.87125 0.57021 0.70302 0.0
C891 C 0.82126 0.53549 0.69208 0.0
H892 H 0.84363 0.52759 0.62987 0.0
C893 C 0.77274 0.4799 0.62782 0.0
C894 C 0.77281 0.48595 0.60453 0.0
C895 C 0.78657 0.49158 0.64337 0.0
C896 C 0.83687 0.53018 0.64698 0.0
H897 H 0.88735 0.52583 0.75 0.0
H898 H 0.85673 0.51703 0.72271 0.0
H899 H 0.86837 0.54502 0.65875 0.0
H900 H 0.78723 0.50894 0.57912 0.0
H901 H 0.81094 0.52999 0.60645 0.0
H902 H 0.78973 0.52093 0.68057 0.0
C903 C 0.8653 0.53349 0.72167 0.0
C904 C 0.85108 0.54011 0.66348 0.0
C905 C 0.8828 0.53846 0.73714 0.0
C906 C 0.78711 0.50378 0.59698 0.0
C907 C 0.80067 0.51581 0.61265 0.0
C908 C 0.80688 0.52599 0.67552 0.0
C909 C 0.8598 0.54909 0.70421 0.0
C910 C 0.84355 0.54224 0.68623 0.0
C911 C 0.80043 0.50994 0.63608 0.0
C912 C 0.81477 0.52253 0.65293 0.0
H913 H 0.89748 0.5916 0.71737 0.0
H914 H 0.86722 0.5824 0.68958 0.0
H915 H 0.81517 0.53712 0.70958 0.0
H916 H 0.76198 0.46608 0.63404 0.0
H917 H 0.78644 0.4861 0.66113 0.0
C918 C 0.6156 0.43714 0.23504 0.0
C919 C 0.59291 0.43487 0.22731 0.0
C920 C 0.63272 0.44478 0.22009 0.0
C921 C 0.63909 0.47804 0.16688 0.0
H922 H 0.70114 0.45411 0.16695 0.0
C923 C 0.70554 0.50601 0.09998 0.0
C924 C 0.72702 0.51251 0.10872 0.0
C925 C 0.68975 0.49472 0.11395 0.0
C926 C 0.68388 0.46098 0.16687 0.0
H927 H 0.57051 0.43766 0.19769 0.0
H928 H 0.60035 0.45044 0.17162 0.0
H929 H 0.67241 0.43735 0.19257 0.0
H930 H 0.74913 0.51155 0.1387 0.0
H931 H 0.72142 0.49193 0.16309 0.0
H932 H 0.65048 0.50165 0.14126 0.0
C933 C 0.60487 0.44697 0.18931 0.0
C934 C 0.6675 0.45146 0.18153 0.0
C935 C 0.58779 0.43955 0.20424 0.0
C936 C 0.73263 0.50693 0.13151 0.0
C937 C 0.71688 0.49553 0.14543 0.0
C938 C 0.65539 0.48745 0.15219 0.0
C939 C 0.6274 0.45011 0.19717 0.0
C940 C 0.64493 0.4599 0.18164 0.0
C941 C 0.6952 0.48959 0.13685 0.0
C942 C 0.67792 0.47903 0.15205 0.0
H943 H 0.61999 0.43369 0.25277 0.0
H944 H 0.64992 0.44721 0.22666 0.0
H945 H 0.62197 0.48526 0.16693 0.0
H946 H 0.70077 0.50992 0.08244 0.0
H947 H 0.67322 0.49006 0.10687 0.0
C948 C 0.35995 0.9243 0.25253 0.0
C949 C 0.37917 0.93865 0.25023 0.0
C950 C 0.34089 0.93166 0.26511 0.0
C951 C 0.30921 0.98086 0.2837 0.0
H952 H 0.30366 0.95413 0.3444 0.0
C953 C 0.27236 0.03161 0.35853 0.0
C954 C 0.26054 0.02031 0.37618 0.0
C955 C 0.28259 0.01914 0.34091 0.0
C956 C 0.30444 0.96145 0.32734 0.0
H957 H 0.39336 0.9721 0.25806 0.0
H958 H 0.35973 0.98521 0.27939 0.0
H959 H 0.32852 0.93609 0.31596 0.0
H960 H 0.24955 0.98715 0.38901 0.0
H961 H 0.26701 0.9653 0.35785 0.0
H962 H 0.28549 0.0064 0.2949 0.0
C963 C 0.35958 0.96823 0.27181 0.0
C964 C 0.31869 0.9511 0.31113 0.0
C965 C 0.37878 0.9607 0.25981 0.0
C966 C 0.25887 -0.00372 0.37575 0.0
C967 C 0.26884 0.98378 0.3579 0.0
C968 C 0.29464 0.99098 0.29973 0.0
C969 C 0.34069 0.95367 0.27481 0.0
C970 C 0.32177 0.96125 0.28956 0.0
C971 C 0.28091 -0.00492 0.34032 0.0
C972 C 0.29288 0.98197 0.32207 0.0
H973 H 0.35998 0.90719 0.24528 0.0
H974 H 0.32645 0.92021 0.26744 0.0
H975 H 0.31143 0.98886 0.26706 0.0
H976 H 0.274 0.05012 0.35846 0.0
H977 H 0.29225 0.0284 0.32802 0.0
C978 C 0.22931 0.96547 0.84768 0.0
C979 C 0.2285 0.97303 0.87053 0.0
C980 C 0.21706 0.97704 0.8307 0.0
C981 C 0.17724 0.99406 0.80253 0.0
H982 H 0.1658 0.0595 0.80625 0.0
C983 C 0.0983 0.03404 0.76193 0.0
C984 C 0.09989 0.05573 0.75158 0.0
C985 C 0.11668 0.02513 0.77419 0.0
C986 C 0.16912 0.04129 0.80471 0.0
H987 H 0.21446 -0.00135 0.89359 0.0
H988 H 0.19233 0.01822 0.86423 0.0
H989 H 0.1944 0.04208 0.83125 0.0
H990 H 0.12196 0.08515 0.74595 0.0
H991 H 0.15444 0.06931 0.7673 0.0
H992 H 0.15223 0.99328 0.77583 0.0
C993 C 0.20292 0.00381 0.8592 0.0
C994 C 0.18527 0.03125 0.81923 0.0
C995 C 0.2154 0.99244 0.87609 0.0
C996 C 0.12022 0.06844 0.75391 0.0
C997 C 0.13878 0.05939 0.76609 0.0
C998 C 0.16132 0.00412 0.78787 0.0
C999 C 0.20355 -0.00379 0.83632 0.0
C1000 C 0.18896 0.00741 0.81879 0.0
C1001 C 0.13721 0.03755 0.77619 0.0
C1002 C 0.15652 0.02769 0.78935 0.0
H1003 H 0.23962 0.95077 0.84287 0.0
H1004 H 0.21818 0.97096 0.81318 0.0
H1005 H 0.17954 0.97565 0.80178 0.0
H1006 H 0.08279 0.02389 0.76063 0.0
H1007 H 0.11468 0.00853 0.78229 0.0
C1008 C 0.73416 0.8605 0.5589 0.0
C1009 C 0.73209 0.8843 0.55568 0.0
C1010 C 0.71816 0.84557 0.54912 0.0
C1011 C 0.69152 0.81913 0.51276 0.0
H1012 H 0.62674 0.83432 0.51194 0.0
C1013 C 0.62735 0.77352 0.45312 0.0
C1014 C 0.60619 0.76728 0.46283 0.0
C1015 C 0.64243 0.78773 0.46512 0.0
C1016 C 0.64475 0.82975 0.51217 0.0
H1017 H 0.71138 0.91111 0.54013 0.0
H1018 H 0.68377 0.88511 0.52308 0.0
H1019 H 0.65331 0.85837 0.53342 0.0
H1020 H 0.58414 0.77129 0.49264 0.0
H1021 H 0.61046 0.79591 0.51351 0.0
H1022 H 0.68289 0.79035 0.49169 0.0
C1023 C 0.69754 0.87798 0.53331 0.0
C1024 C 0.65997 0.84361 0.5243 0.0
C1025 C 0.71348 0.89286 0.54299 0.0
C1026 C 0.60025 0.77586 0.48459 0.0
C1027 C 0.61531 0.79003 0.49655 0.0
C1028 C 0.67628 0.80525 0.50061 0.0
C1029 C 0.69983 0.85419 0.53607 0.0
C1030 C 0.68352 0.83855 0.52456 0.0
C1031 C 0.63662 0.79596 0.48703 0.0
C1032 C 0.65277 0.81053 0.50006 0.0
H1033 H 0.74832 0.85339 0.56856 0.0
H1034 H 0.7202 0.82727 0.55169 0.0
H1035 H 0.70962 0.81496 0.51247 0.0
H1036 H 0.63245 0.76716 0.43641 0.0
H1037 H 0.65863 0.79229 0.45724 0.0
C1038 C 0.88267 0.21198 -0.00041 0.0
C1039 C 0.87925 0.21891 0.97672 0.0
C1040 C 0.8668 0.19767 0.01044 0.0
C1041 C 0.82306 0.15477 -0.00237 0.0
H1042 H 0.80004 0.16756 0.05879 0.0
C1043 C 0.74957 0.10223 0.03458 0.0
C1044 C 0.75186 0.09458 0.0573 0.0
C1045 C 0.76401 0.1192 0.02601 0.0
C1046 C 0.80649 0.16367 0.0418 0.0
H1047 H 0.85643 0.21642 0.9474 0.0
H1048 H 0.82892 0.19134 0.9663 0.0
H1049 H 0.82831 0.19328 0.04135 0.0
H1050 H 0.77022 0.09945 0.08927 0.0
H1051 H 0.79598 0.12886 0.07407 0.0
H1052 H 0.80175 0.12506 -0.00198 0.0
C1053 C 0.84391 0.19689 0.97576 0.0
C1054 C 0.82263 0.17836 0.03185 0.0
C1055 C 0.85964 0.21131 0.96498 0.0
C1056 C 0.7681 0.10505 0.07167 0.0
C1057 C 0.7828 0.12191 0.06298 0.0
C1058 C 0.80711 0.14006 0.00759 0.0
C1059 C 0.84737 0.18989 -0.00145 0.0
C1060 C 0.83087 0.17412 0.00958 0.0
C1061 C 0.78129 0.12868 0.03986 0.0
C1062 C 0.79844 0.14445 0.02967 0.0
H1063 H 0.89754 0.21769 0.00915 0.0
H1064 H 0.86991 0.19237 0.02798 0.0
H1065 H 0.82947 0.15087 0.98062 0.0
H1066 H 0.73691 0.09471 0.02324 0.0
H1067 H 0.76197 0.12451 0.00831 0.0
C1068 C 0.11112 0.73176 0.49176 0.0
C1069 C 0.11605 0.73516 0.51512 0.0
C1070 C 0.12651 0.71994 0.47771 0.0
C1071 C 0.18609 0.69662 0.4762 0.0
H1072 H 0.15876 0.64918 0.43841 0.0
C1073 C 0.2256 0.60872 0.46059 0.0
C1074 C 0.227 0.6006 0.43797 0.0
C1075 C 0.21421 0.62914 0.46537 0.0
C1076 C 0.16662 0.66266 0.44849 0.0
H1077 H 0.14126 0.72949 0.54191 0.0
H1078 H 0.16759 0.70828 0.51776 0.0
H1079 H 0.13438 0.67857 0.45546 0.0
H1080 H 0.21775 0.60734 0.40256 0.0
H1081 H 0.19683 0.64289 0.4112 0.0
H1082 H 0.21807 0.67943 0.47061 0.0
C1083 C 0.15218 0.71517 0.51003 0.0
C1084 C 0.15272 0.67954 0.45822 0.0
C1085 C 0.13694 0.72714 0.52398 0.0
C1086 C 0.21687 0.61329 0.42015 0.0
C1087 C 0.20499 0.63353 0.42503 0.0
C1088 C 0.1999 0.67954 0.46676 0.0
C1089 C 0.14704 0.71117 0.4868 0.0
C1090 C 0.1622 0.69619 0.4729 0.0
C1091 C 0.20367 0.64158 0.44768 0.0
C1092 C 0.19012 0.66204 0.45349 0.0
H1093 H 0.09527 0.73804 0.48438 0.0
H1094 H 0.12218 0.7174 0.45982 0.0
H1095 H 0.194 0.70956 0.48692 0.0
H1096 H 0.23345 0.59936 0.4746 0.0
H1097 H 0.21313 0.63493 0.483 0.0
C1098 C 0.37766 0.28253 0.02091 0.0
C1099 C 0.39121 0.26752 0.00786 0.0
C1100 C 0.36331 0.29824 0.01007 0.0
C1101 C 0.32751 0.3062 0.96204 0.0
H1102 H 0.33374 0.37147 0.9731 0.0
C1103 C 0.26518 0.37283 0.92299 0.0
C1104 C 0.25979 0.39183 0.93676 0.0
C1105 C 0.28228 0.3575 0.92982 0.0
C1106 C 0.33156 0.35329 0.97006 0.0
H1107 H 0.40043 0.25687 0.9734 0.0
H1108 H 0.37451 0.28408 0.95437 0.0
H1109 H 0.36223 0.34507 0.98854 0.0
H1110 H 0.26699 0.4092 0.96882 0.0
H1111 H 0.2959 0.38197 0.98129 0.0
H1112 H 0.29618 0.31406 0.94473 0.0
C1113 C 0.37543 0.28382 0.97294 0.0
C1114 C 0.348 0.33828 0.97871 0.0
C1115 C 0.39023 0.26844 0.98379 0.0
C1116 C 0.27111 0.39484 0.95776 0.0
C1117 C 0.28782 0.37934 0.96477 0.0
C1118 C 0.31077 0.32117 0.95374 0.0
C1119 C 0.36195 0.29879 0.98606 0.0
C1120 C 0.3459 0.31467 0.97497 0.0
C1121 C 0.29394 0.36072 0.95071 0.0
C1122 C 0.31243 0.34486 0.958 0.0
H1123 H 0.37818 0.28216 0.03949 0.0
H1124 H 0.35289 0.30964 0.02042 0.0
H1125 H 0.3256 0.28793 0.95919 0.0
H1126 H 0.25674 0.37025 0.90664 0.0
H1127 H 0.28668 0.34346 0.91849 0.0
C1128 C 0.49353 0.61294 0.76603 0.0
C1129 C 0.47253 0.61827 0.75549 0.0
C1130 C 0.50462 0.62917 0.7797 0.0
C1131 C 0.52866 0.67021 0.8016 0.0
H1132 H 0.48779 0.69995 0.84492 0.0
C1133 C 0.55835 0.73551 0.87095 0.0
C1134 C 0.54954 0.73123 0.89302 0.0
C1135 C 0.55004 0.72335 0.85204 0.0
C1136 C 0.49939 0.69181 0.8329 0.0
H1137 H 0.44755 0.64524 0.74959 0.0
H1138 H 0.46698 0.67352 0.77329 0.0
H1139 H 0.47187 0.67596 0.81478 0.0
H1140 H 0.52522 0.71085 0.91257 0.0
H1141 H 0.51083 0.68976 0.87966 0.0
H1142 H 0.55624 0.68558 0.82046 0.0
C1143 C 0.47459 0.65667 0.77142 0.0
C1144 C 0.49029 0.67828 0.81549 0.0
C1145 C 0.46348 0.64046 0.75787 0.0
C1146 C 0.53239 0.71455 0.89582 0.0
C1147 C 0.52402 0.70257 0.87697 0.0
C1148 C 0.53779 0.68388 0.81904 0.0
C1149 C 0.49495 0.651 0.78294 0.0
C1150 C 0.50483 0.66704 0.79989 0.0
C1151 C 0.53265 0.70695 0.85491 0.0
C1152 C 0.52321 0.69438 0.83509 0.0
H1153 H 0.50102 0.59602 0.76436 0.0
H1154 H 0.52022 0.62428 0.78853 0.0
H1155 H 0.54022 0.66187 0.78967 0.0
H1156 H 0.57157 0.74828 0.86826 0.0
H1157 H 0.55688 0.72705 0.83516 0.0
C1158 C 0.00238 0.89235 0.22416 0.0
C1159 C 0.98375 0.88363 0.23667 0.0
C1160 C 0.01696 0.87754 0.21221 0.0
C1161 C 0.03058 0.81515 0.20418 0.0
H1162 H 0.04903 0.83533 0.1435 0.0
C1163 C 0.03823 0.75948 0.12355 0.0
C1164 C 0.05845 0.76106 0.11059 0.0
C1165 C 0.03509 0.77336 0.14274 0.0
C1166 C 0.04442 0.82964 0.1606 0.0
H1167 H 0.9658 0.85267 0.24676 0.0
H1168 H 0.99026 0.827 0.225 0.0
H1169 H 0.03165 0.86262 0.16985 0.0
H1170 H 0.09151 0.77777 0.10762 0.0
H1171 H 0.08547 0.80305 0.14088 0.0
H1172 H 0.04156 0.7816 0.19378 0.0
C1173 C 0.99434 0.84511 0.22499 0.0
C1174 C 0.03449 0.84526 0.17578 0.0
C1175 C 0.9801 0.85986 0.23729 0.0
C1176 C 0.07584 0.77623 0.1175 0.0
C1177 C 0.07241 0.79062 0.13639 0.0
C1178 C 0.04003 0.79944 0.18878 0.0
C1179 C 0.0129 0.85373 0.21215 0.0
C1180 C 0.02677 0.83806 0.19752 0.0
C1181 C 0.05188 0.78942 0.14893 0.0
C1182 C 0.04647 0.80649 0.16671 0.0
H1183 H 0.00578 0.91061 0.22372 0.0
H1184 H 0.0313 0.8848 0.20291 0.0
H1185 H 0.02548 0.8091 0.22099 0.0
H1186 H 0.02465 0.74782 0.11853 0.0
H1187 H 0.01903 0.77238 0.15206 0.0
C1188 C 0.50781 0.09764 0.70292 0.0
C1189 C 0.52331 0.10167 0.72086 0.0
C1190 C 0.49623 0.11589 0.69264 0.0
C1191 C 0.49899 0.17908 0.68619 0.0
H1192 H 0.43905 0.16974 0.65897 0.0
C1193 C 0.4671 0.23444 0.61292 0.0
C1194 C 0.4436 0.23887 0.61003 0.0
C1195 C 0.47471 0.22021 0.63045 0.0
C1196 C 0.45556 0.17283 0.66689 0.0
H1197 H 0.53832 0.12771 0.74274 0.0
H1198 H 0.51754 0.15944 0.72549 0.0
H1199 H 0.45596 0.13962 0.68238 0.0
H1200 H 0.40966 0.2326 0.62396 0.0
H1201 H 0.42311 0.20778 0.6551 0.0
H1202 H 0.49838 0.21245 0.6712 0.0
C1203 C 0.51489 0.14238 0.71865 0.0
C1204 C 0.46547 0.15538 0.67997 0.0
C1205 C 0.52684 0.1242 0.72856 0.0
C1206 C 0.42788 0.22937 0.62567 0.0
C1207 C 0.43556 0.21511 0.64341 0.0
C1208 C 0.48893 0.19662 0.67349 0.0
C1209 C 0.49951 0.1385 0.70047 0.0
C1210 C 0.48767 0.15799 0.68909 0.0
C1211 C 0.45907 0.21017 0.64578 0.0
C1212 C 0.46751 0.19338 0.66292 0.0
H1213 H 0.50476 0.08039 0.69673 0.0
H1214 H 0.48496 0.11224 0.67835 0.0
H1215 H 0.51612 0.18178 0.69281 0.0
H1216 H 0.47976 0.24152 0.60129 0.0
H1217 H 0.49287 0.21645 0.63139 0.0
C1218 C 0.94866 0.25818 0.37607 0.0
C1219 C 0.92954 0.26167 0.39019 0.0
C1220 C 0.95279 0.2728 0.35766 0.0
C1221 C 0.95089 0.33111 0.345 0.0
H1222 H 0.96732 0.3127 0.28322 0.0
C1223 C 0.00038 0.39104 0.28306 0.0
C1224 C 0.01725 0.38034 0.2696 0.0
C1225 C 0.98497 0.37786 0.29585 0.0
C1226 C 0.9629 0.31811 0.30044 0.0
H1227 H 0.89929 0.28238 0.39615 0.0
H1228 H 0.90719 0.3089 0.36422 0.0
H1229 H 0.94679 0.28596 0.30806 0.0
H1230 H 0.03196 0.34769 0.25961 0.0
H1231 H 0.00598 0.32479 0.28274 0.0
H1232 H 0.96864 0.36245 0.33828 0.0
C1233 C 0.91853 0.29447 0.36712 0.0
C1234 C 0.9509 0.30292 0.31447 0.0
C1235 C 0.91403 0.27938 0.38522 0.0
C1236 C 0.01902 0.35636 0.26977 0.0
C1237 C 0.0039 0.34324 0.28277 0.0
C1238 C 0.96326 0.34619 0.33112 0.0
C1239 C 0.93816 0.29144 0.35351 0.0
C1240 C 0.94547 0.30907 0.33705 0.0
C1241 C 0.98638 0.35378 0.29558 0.0
C1242 C 0.97016 0.33949 0.30898 0.0
H1243 H 0.9608 0.24459 0.37973 0.0
H1244 H 0.96818 0.27037 0.34751 0.0
H1245 H 0.94708 0.33603 0.36253 0.0
H1246 H -0.00153 0.40952 0.28295 0.0
H1247 H 0.97163 0.38651 0.30546 0.0
C1248 C 0.20423 0.43127 0.01094 0.0
C1249 C 0.18792 0.43333 0.99328 0.0
C1250 C 0.1974 0.42467 0.03305 0.0
C1251 C 0.15111 0.39489 0.06366 0.0
H1252 H 0.1617 0.43708 0.11401 0.0
C1253 C 0.08597 0.40882 0.13394 0.0
C1254 C 0.09287 0.41068 0.15695 0.0
C1255 C 0.10216 0.40737 0.11648 0.0
C1256 C 0.15908 0.42481 0.1003 0.0
H1257 H 0.15194 0.42945 0.98467 0.0
H1258 H 0.14018 0.41776 0.0229 0.0
H1259 H 0.18263 0.44206 0.07784 0.0
H1260 H 0.12221 0.41258 0.17973 0.0
H1261 H 0.15082 0.41053 0.14873 0.0
H1262 H 0.1267 0.37839 0.08551 0.0
C1263 C 0.15816 0.42129 0.01979 0.0
C1264 C 0.17103 0.42766 0.07965 0.0
C1265 C 0.16487 0.42822 -0.00204 0.0
C1266 C 0.11643 0.41107 0.16213 0.0
C1267 C 0.13275 0.40994 0.14447 0.0
C1268 C 0.13926 0.39203 0.08422 0.0
C1269 C 0.1743 0.41953 0.03757 0.0
C1270 C 0.1663 0.41335 0.06084 0.0
C1271 C 0.12569 0.40795 0.12151 0.0
C1272 C 0.14232 0.40761 0.10233 0.0
H1273 H 0.22214 0.4351 0.00777 0.0
H1274 H 0.21011 0.42348 0.04654 0.0
H1275 H 0.14745 0.38342 0.0495 0.0
H1276 H 0.06798 0.40841 0.12933 0.0
H1277 H 0.09621 0.40628 0.0989 0.0
C1278 C 0.29084 0.56894 0.51444 0.0
C1279 C 0.27799 0.5502 0.50653 0.0
C1280 C 0.2949 0.57174 0.53784 0.0
C1281 C 0.30841 0.53735 0.58522 0.0
H1282 H 0.30459 0.59318 0.62111 0.0
C1283 C 0.36487 0.54709 0.66438 0.0
C1284 C 0.37551 0.56853 0.66669 0.0
C1285 C 0.34587 0.54453 0.65005 0.0
C1286 C 0.30593 0.57747 0.61131 0.0
H1287 H 0.25847 0.52022 0.5167 0.0
H1288 H 0.26648 0.52463 0.55778 0.0
H1289 H 0.28351 0.59019 0.58501 0.0
H1290 H 0.37425 0.6043 0.65682 0.0
H1291 H 0.34219 0.59971 0.63073 0.0
H1292 H 0.33247 0.52526 0.60979 0.0
C1293 C 0.27289 0.53736 0.54585 0.0
C1294 C 0.29363 0.57573 0.5908 0.0
C1295 C 0.26834 0.53487 0.52244 0.0
C1296 C 0.36625 0.58759 0.65536 0.0
C1297 C 0.34767 0.58493 0.64052 0.0
C1298 C 0.32113 0.53926 0.60536 0.0
C1299 C 0.28659 0.55556 0.55363 0.0
C1300 C 0.29532 0.55588 0.57734 0.0
C1301 C 0.33761 0.56321 0.63714 0.0
C1302 C 0.32069 0.55966 0.61832 0.0
H1303 H 0.29836 0.581 0.50245 0.0
H1304 H 0.30576 0.58573 0.54347 0.0
H1305 H 0.31017 0.52198 0.57491 0.0
H1306 H 0.37156 0.53221 0.67328 0.0
H1307 H 0.3382 0.52769 0.64851 0.0
C1308 C 0.6052 0.0669 0.83755 0.0
C1309 C 0.59058 0.04873 0.83137 0.0
C1310 C 0.61815 0.06577 0.85771 0.0
C1311 C 0.6507 0.05461 0.89746 0.0
H1312 H 0.61722 0.03169 0.95024 0.0
C1313 C 0.6922 0.03695 0.98629 0.0
C1314 C 0.67915 0.04252 0.00583 0.0
C1315 C 0.68273 0.03894 0.96434 0.0
C1316 C 0.62675 0.03831 0.93572 0.0
H1317 H 0.57931 0.0145 0.84075 0.0
H1318 H 0.60202 0.01249 0.8757 0.0
H1319 H 0.59897 0.03188 0.91274 0.0
H1320 H 0.6463 0.05564 0.0175 0.0
H1321 H 0.62992 0.0592 0.97927 0.0
H1322 H 0.67839 0.06135 0.92071 0.0
C1323 C 0.60308 0.02781 0.86523 0.0
C1324 C 0.61641 0.03812 0.91416 0.0
C1325 C 0.59015 0.02893 0.84513 0.0
C1326 C 0.65676 0.05095 0.00287 0.0
C1327 C 0.64732 0.0529 0.98096 0.0
C1328 C 0.66111 0.05472 0.91909 0.0
C1329 C 0.61675 0.04645 0.87206 0.0
C1330 C 0.62824 0.04625 0.89478 0.0
C1331 C 0.66003 0.0465 0.96149 0.0
C1332 C 0.64919 0.04665 0.93846 0.0
H1333 H 0.60599 0.08238 0.82731 0.0
H1334 H 0.62845 0.08044 0.86256 0.0
H1335 H 0.66027 0.06091 0.88282 0.0
H1336 H 0.70953 0.03048 0.98795 0.0
H1337 H 0.69291 0.03376 0.94967 0.0
C1338 C 0.78322 0.92432 0.47907 0.0
C1339 C 0.80066 0.91997 0.49515 0.0
C1340 C 0.78732 0.92128 0.45556 0.0
C1341 C 0.82699 0.89414 0.41388 0.0
H1342 H 0.81705 0.94859 0.37701 0.0
C1343 C 0.87828 0.94133 0.33964 0.0
C1344 C 0.88288 0.92324 0.32445 0.0
C1345 C 0.86103 0.93932 0.35609 0.0
C1346 C 0.81961 0.93311 0.38696 0.0
H1347 H 0.83554 0.90777 0.49937 0.0
H1348 H 0.84256 0.90224 0.45859 0.0
H1349 H 0.80051 0.94625 0.41549 0.0
H1350 H 0.87232 0.88935 0.31358 0.0
H1351 H 0.8422 0.88556 0.34287 0.0
H1352 H 0.84722 0.88156 0.38593 0.0
C1353 C 0.82577 0.90807 0.46402 0.0
C1354 C 0.81003 0.93171 0.40893 0.0
C1355 C 0.82182 0.91144 0.48738 0.0
C1356 C 0.86897 0.90359 0.32503 0.0
C1357 C 0.85189 0.90138 0.34185 0.0
C1358 C 0.8364 0.89545 0.39185 0.0
C1359 C 0.80876 0.91338 0.4478 0.0
C1360 C 0.81445 0.91262 0.42297 0.0
C1361 C 0.84821 0.919 0.35796 0.0
C1362 C 0.83361 0.91536 0.37854 0.0
H1363 H 0.76674 0.93091 0.48457 0.0
H1364 H 0.7739 0.92546 0.44342 0.0
H1365 H 0.83047 0.87912 0.42425 0.0
H1366 H 0.88878 0.95667 0.33949 0.0
H1367 H 0.85883 0.9531 0.36836 0.0
C1368 C 0.16141 0.1241 0.44671 0.0
C1369 C 0.17176 0.11724 0.42602 0.0
C1370 C 0.14441 0.14102 0.44672 0.0
C1371 C 0.09752 0.15692 0.41219 0.0
H1372 H 0.09099 0.21128 0.44989 0.0
C1373 C 0.01072 0.2019 0.41622 0.0
C1374 C 0.00392 0.21029 0.43767 0.0
C1375 C 0.03363 0.19618 0.41221 0.0
C1376 C 0.09238 0.19602 0.43941 0.0
H1377 H 0.17343 0.12375 0.38936 0.0
H1378 H 0.14325 0.15273 0.38942 0.0
H1379 H 0.12762 0.19085 0.44898 0.0
H1380 H 0.01535 0.21997 0.4716 0.0
H1381 H 0.05501 0.20857 0.46533 0.0
H1382 H 0.06221 0.16044 0.40397 0.0
C1383 C 0.14854 0.1452 0.40557 0.0
C1384 C 0.11345 0.18451 0.43878 0.0
C1385 C 0.16581 0.12863 0.40559 0.0
C1386 C 0.02039 0.21372 0.45482 0.0
C1387 C 0.04317 0.20727 0.4511 0.0
C1388 C 0.07638 0.16799 0.41326 0.0
C1389 C 0.13728 0.15103 0.42602 0.0
C1390 C 0.11606 0.16478 0.42529 0.0
C1391 C 0.05002 0.1978 0.42992 0.0
C1392 C 0.07335 0.18759 0.42708 0.0
H1393 H 0.16573 0.11571 0.46272 0.0
H1394 H 0.1358 0.14519 0.46267 0.0
H1395 H 0.09908 0.14149 0.40194 0.0
H1396 H -0.0018 0.19931 0.40273 0.0
H1397 H 0.03824 0.18977 0.3954 0.0
C1398 C 0.33877 0.88349 0.94355 0.0
C1399 C 0.32599 0.88572 0.92325 0.0
C1400 C 0.35462 0.8658 0.94604 0.0
C1401 C 0.39198 0.8298 0.91093 0.0
H1402 H 0.40882 0.80568 0.97062 0.0
C1403 C 0.47722 0.78092 0.92888 0.0
C1404 C 0.49002 0.79222 0.94591 0.0
C1405 C 0.4541 0.78647 0.92544 0.0
C1406 C 0.40414 0.81205 0.95379 0.0
H1407 H 0.31881 0.8702 0.89018 0.0
H1408 H 0.34653 0.83908 0.89462 0.0
H1409 H 0.37214 0.82527 0.96586 0.0
H1410 H 0.48859 0.81756 0.97313 0.0
H1411 H 0.44832 0.82687 0.96741 0.0
H1412 H 0.42443 0.81712 0.89915 0.0
C1413 C 0.34446 0.8513 0.90846 0.0
C1414 C 0.38323 0.82334 0.95107 0.0
C1415 C 0.32852 0.86907 0.90597 0.0
C1416 C 0.47921 0.80868 0.95977 0.0
C1417 C 0.45611 0.81385 0.95666 0.0
C1418 C 0.41282 0.81825 0.91362 0.0
C1419 C 0.35807 0.84979 0.92832 0.0
C1420 C 0.37741 0.8333 0.92988 0.0
C1421 C 0.44339 0.80295 0.93939 0.0
C1422 C 0.41947 0.81019 0.9353 0.0
H1423 H 0.33714 0.8959 0.9573 0.0
H1424 H 0.36501 0.86541 0.96144 0.0
H1425 H 0.38812 0.83737 0.89441 0.0
H1426 H 0.48519 0.76818 0.91794 0.0
H1427 H 0.4446 0.77795 0.91194 0.0
C1428 C 0.50034 0.32842 0.581 0.0
C1429 C 0.49699 0.31097 0.56475 0.0
C1430 C 0.52204 0.33795 0.58421 0.0
C1431 C 0.56232 0.36751 0.57229 0.0
H1432 H 0.62051 0.33595 0.56559 0.0
C1433 C 0.64255 0.41722 0.54896 0.0
C1434 C 0.66252 0.41297 0.56169 0.0
C1435 C 0.62394 0.40235 0.55027 0.0
C1436 C 0.60439 0.34494 0.56769 0.0
H1437 H 0.51394 0.28886 0.54009 0.0
H1438 H 0.55173 0.30602 0.54514 0.0
H1439 H 0.58499 0.3137 0.56884 0.0
H1440 H 0.67925 0.38907 0.58476 0.0
H1441 H 0.64631 0.36298 0.5873 0.0
H1442 H 0.58148 0.39864 0.57129 0.0
C1443 C 0.5377 0.31209 0.55572 0.0
C1444 C 0.58406 0.33224 0.56938 0.0
C1445 C 0.51601 0.30233 0.55271 0.0
C1446 C 0.66401 0.39278 0.5748 0.0
C1447 C 0.6452 0.37787 0.57623 0.0
C1448 C 0.58252 0.3801 0.57066 0.0
C1449 C 0.54081 0.33049 0.571 0.0
C1450 C 0.56276 0.34343 0.57139 0.0
C1451 C 0.62475 0.38294 0.5645 0.0
C1452 C 0.60373 0.36902 0.56786 0.0
H1453 H 0.48606 0.33513 0.59082 0.0
H1454 H 0.52395 0.3517 0.59655 0.0
H1455 H 0.54626 0.37676 0.57348 0.0
H1456 H 0.64105 0.43242 0.53836 0.0
H1457 H 0.60866 0.40637 0.5405 0.0
C1458 C 0.82489 0.61947 0.0859 0.0
C1459 C 0.82971 0.59975 0.07287 0.0
C1460 C 0.83974 0.63834 0.08526 0.0
C1461 C 0.88553 0.66516 0.0509 0.0
H1462 H 0.91203 0.68361 0.10906 0.0
C1463 C 0.96685 0.72007 0.0533 0.0
C1464 C 0.98434 0.70867 0.06533 0.0
C1465 C 0.94391 0.71371 0.05647 0.0
C1466 C 0.90454 0.67892 0.09272 0.0
H1467 H 0.85318 0.58469 0.04823 0.0
H1468 H 0.87882 0.61759 0.04692 0.0
H1469 H 0.87844 0.65845 0.10861 0.0
H1470 H 0.99155 0.68329 0.09154 0.0
H1471 H 0.95169 0.67238 0.0972 0.0
H1472 H 0.91233 0.68444 0.03494 0.0
C1473 C 0.86369 0.61848 0.05769 0.0
C1474 C 0.88527 0.66465 0.09246 0.0
C1475 C 0.84914 0.59955 0.05863 0.0
C1476 C 0.9784 0.69223 0.0819 0.0
C1477 C 0.95554 0.68612 0.08529 0.0
C1478 C 0.90464 0.67958 0.05115 0.0
C1479 C 0.85931 0.63795 0.07118 0.0
C1480 C 0.87622 0.65688 0.07153 0.0
C1481 C 0.93814 0.69615 0.07199 0.0
C1482 C 0.91491 0.68581 0.07204 0.0
H1483 H 0.81 0.62008 0.09701 0.0
H1484 H 0.83602 0.65316 0.09583 0.0
H1485 H 0.87871 0.65956 0.03454 0.0
H1486 H 0.97096 0.73281 0.04041 0.0
H1487 H 0.9308 0.72181 0.04609 0.0
C1488 C 0.41698 0.01158 0.20289 0.0
C1489 C 0.43632 -0.00034 0.19481 0.0
C1490 C 0.41326 0.03442 0.19633 0.0
C1491 C 0.44252 0.08546 0.17364 0.0
H1492 H 0.3875 0.09661 0.13801 0.0
C1493 C 0.44134 0.14647 0.09782 0.0
C1494 C 0.42155 0.15909 0.0924 0.0
C1495 C 0.44131 0.13109 0.11609 0.0
C1496 C 0.40269 0.09408 0.1484 0.0
H1497 H 0.46739 0.0024 0.17451 0.0
H1498 H 0.46118 0.04215 0.16357 0.0
H1499 H 0.39072 0.06159 0.16083 0.0
H1500 H 0.38641 0.16608 0.10249 0.0
H1501 H 0.38636 0.1389 0.13457 0.0
H1502 H 0.45496 0.11739 0.16057 0.0
C1503 C 0.44882 0.03394 0.17478 0.0
C1504 C 0.40451 0.07402 0.16145 0.0
C1505 C 0.45227 0.01113 0.18088 0.0
C1506 C 0.40191 0.15653 0.10619 0.0
C1507 C 0.40185 0.14094 0.1245 0.0
C1508 C 0.44065 0.10554 0.16078 0.0
C1509 C 0.42917 0.04572 0.18215 0.0
C1510 C 0.42487 0.0691 0.17332 0.0
C1511 C 0.4215 0.12788 0.12946 0.0
C1512 C 0.42117 0.10954 0.14714 0.0
H1513 H 0.40441 0.00304 0.21361 0.0
H1514 H 0.39794 0.04317 0.20214 0.0
H1515 H 0.45828 0.08215 0.18291 0.0
H1516 H 0.45682 0.14814 0.08766 0.0
H1517 H 0.45663 0.12104 0.11916 0.0
C1518 C 0.91867 0.49082 0.81456 0.0
C1519 C 0.93865 0.49499 0.80186 0.0
C1520 C 0.91349 0.46866 0.82201 0.0
C1521 C 0.93267 0.40715 0.81777 0.0
H1522 H 0.90515 0.40404 0.87829 0.0
C1523 C 0.94181 0.33518 0.88682 0.0
C1524 C 0.92098 0.32618 0.89495 0.0
C1525 C 0.94186 0.35341 0.87125 0.0
C1526 C 0.91261 0.40469 0.86126 0.0
H1527 H 0.96873 0.47954 0.78654 0.0
H1528 H 0.96065 0.44116 0.80074 0.0
H1529 H 0.90891 0.44092 0.85938 0.0
H1530 H 0.88391 0.32862 0.89266 0.0
H1531 H 0.88412 0.36108 0.86606 0.0
H1532 H 0.93784 0.37078 0.82091 0.0
C1533 C 0.94832 0.45458 0.80423 0.0
C1534 C 0.91463 0.42581 0.85025 0.0
C1535 C 0.9531 0.47664 0.79618 0.0
C1536 C 0.90022 0.33513 0.88658 0.0
C1537 C 0.90029 0.35367 0.87143 0.0
C1538 C 0.93115 0.38606 0.82911 0.0
C1539 C 0.92864 0.45034 0.81763 0.0
C1540 C 0.92486 0.42743 0.8284 0.0
C1541 C 0.9211 0.36315 0.86398 0.0
C1542 C 0.92122 0.38478 0.85097 0.0
H1543 H 0.90715 0.50475 0.81888 0.0
H1544 H 0.89781 0.46607 0.83161 0.0
H1545 H 0.94021 0.40753 0.80079 0.0
H1546 H 0.95804 0.32854 0.89297 0.0
H1547 H 0.95808 0.36067 0.86581 0.0
C1548 C 0.52551 0.51381 0.29501 0.0
C1549 C 0.54052 0.50042 0.2818 0.0
C1550 C 0.53057 0.53668 0.2996 0.0
C1551 C 0.57888 0.57298 0.31049 0.0
H1552 H 0.53198 0.61998 0.31433 0.0
C1553 C 0.59007 0.65463 0.36623 0.0
C1554 C 0.57151 0.65789 0.38132 0.0
C1555 C 0.58817 0.63936 0.34774 0.0
C1556 C 0.54534 0.60712 0.31322 0.0
H1557 H 0.57221 0.50045 0.26239 0.0
H1558 H 0.58151 0.54069 0.27109 0.0
H1559 H 0.52484 0.58536 0.29192 0.0
H1560 H 0.53616 0.6485 0.38826 0.0
H1561 H 0.53292 0.62206 0.35636 0.0
H1562 H 0.59877 0.59403 0.3331 0.0
C1563 C 0.56567 0.53344 0.27754 0.0
C1564 C 0.54128 0.58737 0.30034 0.0
C1565 C 0.56032 0.51054 0.2725 0.0
C1566 C 0.55085 0.64626 0.37709 0.0
C1567 C 0.5489 0.63127 0.3586 0.0
C1568 C 0.58292 0.59274 0.3235 0.0
C1569 C 0.55096 0.54659 0.29143 0.0
C1570 C 0.55758 0.56966 0.29972 0.0
C1571 C 0.56758 0.62741 0.34386 0.0
C1572 C 0.56573 0.60949 0.32586 0.0
H1573 H 0.51011 0.5064 0.30232 0.0
H1574 H 0.51907 0.54628 0.31061 0.0
H1575 H 0.59169 0.55952 0.31041 0.0
H1576 H 0.6062 0.6634 0.36903 0.0
H1577 H 0.60284 0.63672 0.33664 0.0
C1578 C 0.03862 0.98479 0.69121 0.0
C1579 C 0.05415 0.00182 0.68429 0.0
C1580 C 0.04314 0.96173 0.68667 0.0
C1581 C 0.07938 0.92515 0.64901 0.0
H1582 H 0.05324 0.87636 0.686 0.0
C1583 C 0.09218 0.83177 0.62428 0.0
C1584 C 0.07114 0.82236 0.61716 0.0
C1585 C 0.09259 0.85119 0.63824 0.0
C1586 C 0.0608 0.88987 0.67572 0.0
H1587 H 0.08704 0.00827 0.6683 0.0
H1588 H 0.09568 0.96798 0.6615 0.0
H1589 H 0.05025 0.91611 0.69904 0.0
H1590 H 0.03421 0.82418 0.6213 0.0
H1591 H 0.03505 0.85793 0.64619 0.0
H1592 H 0.09017 0.89878 0.62592 0.0
C1593 C 0.07948 0.9723 0.66948 0.0
C1594 C 0.0589 0.91266 0.68297 0.0
C1595 C 0.07463 -0.00458 0.67346 0.0
C1596 C 0.05066 0.8312 0.62634 0.0
C1597 C 0.05112 0.85042 0.64064 0.0
C1598 C 0.08174 0.90241 0.6421 0.0
C1599 C 0.06359 0.95514 0.67563 0.0
C1600 C 0.0677 0.93068 0.66941 0.0
C1601 C 0.07203 0.86119 0.64572 0.0
C1602 C 0.0721 0.88465 0.65514 0.0
H1603 H 0.02263 0.98935 0.69952 0.0
H1604 H 0.03022 0.94921 0.69126 0.0
H1605 H 0.08594 0.93838 0.63775 0.0
H1606 H 0.10828 0.82533 0.6176 0.0
H1607 H 0.10891 0.85923 0.64207 0.0
C1608 C 0.87579 0.58575 0.83045 0.0
C1609 C 0.89839 0.58011 0.83677 0.0
C1610 C 0.85855 0.58736 0.84719 0.0
C1611 C 0.85177 0.59613 0.90938 0.0
H1612 H 0.79563 0.56089 0.9046 0.0
C1613 C 0.79105 0.54316 0.97393 0.0
C1614 C 0.79323 0.55757 0.99304 0.0
C1615 C 0.79764 0.55093 0.95221 0.0
C1616 C 0.81119 0.57089 0.90619 0.0
H1617 H 0.92044 0.57131 0.86554 0.0
H1618 H 0.89072 0.57405 0.89424 0.0
H1619 H 0.82062 0.56489 0.87107 0.0
H1620 H 0.80148 0.59185 0.00453 0.0
H1621 H 0.81159 0.60599 0.96649 0.0
H1622 H 0.84388 0.60065 0.94464 0.0
C1623 C 0.88628 0.57763 0.87654 0.0
C1624 C 0.82532 0.5734 0.8869 0.0
C1625 C 0.90332 0.5759 0.85999 0.0
C1626 C 0.80011 0.58037 0.98997 0.0
C1627 C 0.806 0.58836 0.9682 0.0
C1628 C 0.83789 0.59346 0.92861 0.0
C1629 C 0.8638 0.58359 0.87042 0.0
C1630 C 0.84623 0.58521 0.88868 0.0
C1631 C 0.80601 0.57342 0.94922 0.0
C1632 C 0.81785 0.58005 0.92755 0.0
H1633 H 0.87145 0.58896 0.81267 0.0
H1634 H 0.84127 0.59185 0.84205 0.0
H1635 H 0.86763 0.60567 0.9111 0.0
H1636 H 0.78574 0.52547 0.97604 0.0
H1637 H 0.79757 0.53879 0.93815 0.0
C1638 C 0.60783 0.41487 0.33917 0.0
C1639 C 0.5962 0.433 0.32849 0.0
C1640 C 0.62573 0.4193 0.35442 0.0
C1641 C 0.64821 0.46624 0.3911 0.0
H1642 H 0.69453 0.42055 0.40493 0.0
C1643 C 0.71189 0.47504 0.46652 0.0
C1644 C 0.70595 0.45871 0.48321 0.0
C1645 C 0.70399 0.47263 0.44398 0.0
C1646 C 0.6819 0.43358 0.40096 0.0
H1647 H 0.59495 0.46986 0.32411 0.0
H1648 H 0.62701 0.47764 0.34978 0.0
H1649 H 0.67042 0.41593 0.37098 0.0
H1650 H 0.68859 0.42648 0.48947 0.0
H1651 H 0.67558 0.4218 0.44982 0.0
H1652 H 0.65994 0.48382 0.42115 0.0
C1653 C 0.62176 0.46002 0.34726 0.0
C1654 C 0.66787 0.43085 0.38172 0.0
C1655 C 0.60347 0.4556 0.33244 0.0
C1656 C 0.69336 0.43924 0.4768 0.0
C1657 C 0.68604 0.43652 0.4542 0.0
C1658 C 0.66262 0.46921 0.40997 0.0
C1659 C 0.63279 0.44196 0.35893 0.0
C1660 C 0.65024 0.44671 0.37702 0.0
C1661 C 0.6907 0.45353 0.43782 0.0
C1662 C 0.67904 0.45255 0.41543 0.0
H1663 H 0.60248 0.39728 0.33649 0.0
H1664 H 0.63335 0.4049 0.36333 0.0
H1665 H 0.6347 0.47868 0.38841 0.0
H1666 H 0.7214 0.49031 0.47119 0.0
H1667 H 0.70758 0.486 0.43158 0.0
C1668 C 0.27687 0.92877 0.0059 0.0
C1669 C 0.2875 0.94648 0.99348 0.0
C1670 C 0.28235 0.92528 0.02904 0.0
C1671 C 0.30867 0.95293 0.07946 0.0
H1672 H 0.33699 0.89397 0.09145 0.0
C1673 C 0.38428 0.94308 0.14007 0.0
C1674 C 0.38689 0.9231 0.15327 0.0
C1675 C 0.36627 0.94509 0.12452 0.0
C1676 C 0.32865 0.91034 0.08869 0.0
H1677 H 0.311 0.97521 -0.00441 0.0
H1678 H 0.32015 0.96946 0.03588 0.0
H1679 H 0.31421 0.89933 0.05673 0.0
H1680 H 0.37216 0.88977 0.16095 0.0
H1681 H 0.3406 0.89331 0.13356 0.0
H1682 H 0.32388 0.9643 0.11083 0.0
C1683 C 0.30776 0.95817 0.02786 0.0
C1684 C 0.31558 0.91338 0.06882 0.0
C1685 C 0.30269 0.96133 0.00476 0.0
C1686 C 0.37072 0.90534 0.15092 0.0
C1687 C 0.35266 0.90734 0.13524 0.0
C1688 C 0.32158 0.94987 0.09936 0.0
C1689 C 0.29804 0.93985 0.04011 0.0
C1690 C 0.30639 0.935 0.06355 0.0
C1691 C 0.35035 0.9272 0.12177 0.0
C1692 C 0.33261 0.92886 0.10362 0.0
H1693 H 0.26515 0.91707 -0.00252 0.0
H1694 H 0.27472 0.91099 0.03816 0.0
H1695 H 0.30149 0.96969 0.07587 0.0
H1696 H 0.39634 0.95715 0.14151 0.0
H1697 H 0.36526 0.96045 0.1141 0.0
C1698 C 0.19353 0.03987 0.51225 0.0
C1699 C 0.20973 0.05377 0.50113 0.0
C1700 C 0.18977 0.04199 0.53569 0.0
C1701 C 0.18897 0.08463 0.57994 0.0
H1702 H 0.17075 0.03194 0.61631 0.0
C1703 C 0.12992 0.09003 0.66066 0.0
C1704 C 0.10968 0.07771 0.65616 0.0
C1705 C 0.14929 0.08702 0.64671 0.0
C1706 C 0.17618 0.04684 0.6066 0.0
H1707 H 0.23534 0.08026 0.50582 0.0
H1708 H 0.22818 0.08453 0.54731 0.0
H1709 H 0.19414 0.02639 0.58199 0.0
H1710 H 0.09405 0.05192 0.63444 0.0
H1711 H 0.12786 0.04629 0.61055 0.0
H1712 H 0.16969 0.10487 0.60389 0.0
C1713 C 0.21865 0.0718 0.5377 0.0
C1714 C 0.18951 0.04369 0.58698 0.0
C1715 C 0.22276 0.06935 0.51409 0.0
C1716 C 0.10936 0.06179 0.63813 0.0
C1717 C 0.12877 0.0584 0.62463 0.0
C1718 C 0.17574 0.0878 0.59973 0.0
C1719 C 0.20191 0.05826 0.54864 0.0
C1720 C 0.19482 0.06239 0.57271 0.0
C1721 C 0.1488 0.07115 0.6286 0.0
C1722 C 0.16818 0.06877 0.61242 0.0
H1723 H 0.18339 0.02756 0.5027 0.0
H1724 H 0.17647 0.03158 0.54347 0.0
H1725 H 0.19275 0.09934 0.56923 0.0
H1726 H 0.13055 0.10242 0.6745 0.0
H1727 H 0.16454 0.09711 0.64996 0.0
C1728 C 0.97801 0.78061 0.5466 0.0
C1729 C 0.99233 0.77237 0.56404 0.0
C1730 C 0.95447 0.78233 0.55011 0.0
C1731 C 0.91538 0.79593 0.59548 0.0
H1732 H 0.87069 0.78942 0.54663 0.0
C1733 C 0.83268 0.84926 0.59579 0.0
C1734 C 0.83024 0.86183 0.57533 0.0
C1735 C 0.84741 0.83032 0.59672 0.0
C1736 C 0.88286 0.79117 0.56055 0.0
H1737 H 0.99357 0.75854 0.59847 0.0
H1738 H 0.95196 0.76222 0.60504 0.0
H1739 H 0.90719 0.76903 0.5442 0.0
H1740 H 0.83983 0.86329 0.53939 0.0
H1741 H 0.86548 0.83055 0.54102 0.0
H1742 H 0.89186 0.81938 0.61102 0.0
C1743 C 0.95902 0.767 0.58852 0.0
C1744 C 0.9037 0.77944 0.5592 0.0
C1745 C 0.9827 0.76485 0.58478 0.0
C1746 C 0.84151 0.85411 0.55548 0.0
C1747 C 0.85606 0.83515 0.55637 0.0
C1748 C 0.89454 0.80772 0.59681 0.0
C1749 C 0.94477 0.77622 0.57133 0.0
C1750 C 0.92063 0.78267 0.57605 0.0
C1751 C 0.85975 0.82347 0.57716 0.0
C1752 C 0.87859 0.80639 0.57876 0.0
H1753 H 0.98517 0.78649 0.53046 0.0
H1754 H 0.94407 0.78984 0.53667 0.0
H1755 H 0.92813 0.79888 0.60866 0.0
H1756 H 0.82413 0.85469 0.61138 0.0
H1757 H 0.84975 0.82154 0.61293 0.0
C1758 C 0.63218 0.08558 0.09411 0.0
C1759 C 0.65548 0.09079 0.09098 0.0
C1760 C 0.61577 0.10288 0.09399 0.0
C1761 C 0.60462 0.15868 0.06918 0.0
H1762 H 0.54939 0.15298 0.1059 0.0
C1763 C 0.51832 0.20698 0.05149 0.0
C1764 C 0.50083 0.19089 0.0473 0.0
C1765 C 0.53931 0.19988 0.06077 0.0
C1766 C 0.56485 0.15503 0.09578 0.0
H1767 H 0.67996 0.11834 0.08589 0.0
H1768 H 0.65095 0.14882 0.08544 0.0
H1769 H 0.58364 0.13145 0.1166 0.0
H1770 H 0.49129 0.15503 0.05002 0.0
H1771 H 0.52761 0.14283 0.06654 0.0
H1772 H 0.58528 0.18156 0.0478 0.0
C1773 C 0.64555 0.13124 0.08804 0.0
C1774 C 0.58439 0.14269 0.10182 0.0
C1775 C 0.66211 0.11384 0.08836 0.0
C1776 C 0.50453 0.16776 0.05283 0.0
C1777 C 0.5252 0.16081 0.06249 0.0
C1778 C 0.58507 0.17124 0.06325 0.0
C1779 C 0.62219 0.12586 0.09065 0.0
C1780 C 0.60406 0.14344 0.08789 0.0
C1781 C 0.54275 0.17677 0.06653 0.0
C1782 C 0.56475 0.16859 0.0759 0.0
H1783 H 0.62649 0.06803 0.09627 0.0
H1784 H 0.59789 0.09807 0.09561 0.0
H1785 H 0.61951 0.15954 0.05808 0.0
H1786 H 0.51585 0.22494 0.04743 0.0
H1787 H 0.55272 0.21241 0.06367 0.0
C1788 C 0.48568 0.67054 0.45109 0.0
C1789 C 0.49389 0.68937 0.4385 0.0
C1790 C 0.46252 0.66482 0.45065 0.0
C1791 C 0.41151 0.66656 0.4159 0.0
H1792 H 0.38205 0.64979 0.47322 0.0
C1793 C 0.32465 0.61819 0.419 0.0
C1794 C 0.32618 0.59811 0.43228 0.0
C1795 C 0.34168 0.63508 0.4206 0.0
C1796 C 0.38996 0.65457 0.45709 0.0
H1797 H 0.48428 0.71676 0.41519 0.0
H1798 H 0.4435 0.70624 0.414 0.0
H1799 H 0.41929 0.66885 0.47386 0.0
H1800 H 0.34587 0.58051 0.45848 0.0
H1801 H 0.3753 0.60977 0.4613 0.0
H1802 H 0.38275 0.65102 0.39911 0.0
C1803 C 0.45515 0.69621 0.42443 0.0
C1804 C 0.41123 0.66546 0.45745 0.0
C1805 C 0.47841 0.70219 0.42513 0.0
C1806 C 0.34433 0.59572 0.44789 0.0
C1807 C 0.36109 0.61261 0.44967 0.0
C1808 C 0.39019 0.65553 0.41552 0.0
C1809 C 0.44701 0.67761 0.43741 0.0
C1810 C 0.42262 0.67068 0.43687 0.0
C1811 C 0.3602 0.63228 0.43579 0.0
C1812 C 0.37972 0.64856 0.43612 0.0
H1813 H 0.4971 0.66031 0.46159 0.0
H1814 H 0.45675 0.65013 0.46048 0.0
H1815 H 0.41999 0.67039 0.3998 0.0
H1816 H 0.31081 0.62046 0.40683 0.0
H1817 H 0.34058 0.65012 0.40974 0.0
C1818 C 0.00965 0.27369 0.92531 0.0
C1819 C -0.00112 0.28311 0.94473 0.0
C1820 C 0.03245 0.27939 0.92013 0.0
C1821 C 0.08568 0.30141 0.94543 0.0
H1822 H 0.09486 0.33511 0.8888 0.0
C1823 C 0.1491 0.37481 0.93862 0.0
C1824 C 0.15996 0.38013 0.91777 0.0
C1825 C 0.13361 0.3567 0.94004 0.0
C1826 C 0.0929 0.32522 0.9044 0.0
H1827 H 0.00363 0.30493 0.97446 0.0
H1828 H 0.04342 0.31428 0.96583 0.0
H1829 H 0.05926 0.31381 0.89478 0.0
H1830 H 0.16395 0.36984 0.88224 0.0
H1831 H 0.13666 0.3379 0.88472 0.0
H1832 H 0.11885 0.31332 0.95549 0.0
C1833 C 0.03429 0.30272 0.95449 0.0
C1834 C 0.07247 0.31305 0.90782 0.0
C1835 C 0.01148 0.2975 0.95934 0.0
C1836 C 0.15581 0.36616 0.89855 0.0
C1837 C 0.1401 0.34798 0.89994 0.0
C1838 C 0.10616 0.31331 0.94193 0.0
C1839 C 0.0449 0.29404 0.93468 0.0
C1840 C 0.06831 0.30192 0.92878 0.0
C1841 C 0.1285 0.34333 0.92063 0.0
C1842 C 0.10954 0.32629 0.92186 0.0
H1843 H 0.00021 0.26264 0.91373 0.0
H1844 H 0.04029 0.27258 0.90472 0.0
H1845 H 0.08295 0.29271 0.96164 0.0
H1846 H 0.15202 0.38513 0.95381 0.0
H1847 H 0.12479 0.35393 0.95616 0.0
C1848 C 0.54929 0.83964 0.88816 0.0
C1849 C 0.56958 0.82788 0.89364 0.0
C1850 C 0.54824 0.85364 0.86879 0.0
C1851 C 0.58399 0.88911 0.83211 0.0
H1852 H 0.52836 0.89287 0.79585 0.0
C1853 C 0.56664 0.96584 0.77208 0.0
C1854 C 0.54577 0.97641 0.77781 0.0
C1855 C 0.57129 0.94349 0.77966 0.0
C1856 C 0.54411 0.89189 0.80566 0.0
H1857 H 0.60461 0.82129 0.88284 0.0
H1858 H 0.6028 0.84616 0.84905 0.0
H1859 H 0.53353 0.8611 0.82263 0.0
H1860 H 0.5128 0.9716 0.79431 0.0
H1861 H 0.52068 0.93285 0.8072 0.0
H1862 H 0.59398 0.92062 0.81611 0.0
C1863 C 0.58774 0.84442 0.8598 0.0
C1864 C 0.54703 0.87376 0.82101 0.0
C1865 C 0.58873 0.83019 0.87911 0.0
C1866 C 0.52909 0.96386 0.78978 0.0
C1867 C 0.53354 0.94157 0.79699 0.0
C1868 C 0.58104 0.90731 0.81676 0.0
C1869 C 0.56748 0.85633 0.8545 0.0
C1870 C 0.56655 0.87273 0.83508 0.0
C1871 C 0.55492 0.93135 0.79264 0.0
C1872 C 0.56061 0.90939 0.80413 0.0
H1873 H 0.53419 0.83813 0.8989 0.0
H1874 H 0.5325 0.86289 0.86536 0.0
H1875 H 0.59919 0.88878 0.84278 0.0
H1876 H 0.5798 0.97526 0.76293 0.0
H1877 H 0.58788 0.93598 0.77603 0.0
C1878 C 0.08057 0.66126 0.12132 0.0
C1879 C 0.06415 0.66165 0.10367 0.0
C1880 C 0.07997 0.64397 0.13799 0.0
C1881 C 0.08288 0.59407 0.15557 0.0
H1882 H 0.02555 0.57314 0.18214 0.0
C1883 C 0.06341 0.50006 0.17644 0.0
C1884 C 0.05041 0.49479 0.19605 0.0
C1885 C 0.06781 0.52284 0.17057 0.0
C1886 C 0.0418 0.57896 0.17525 0.0
H1887 H 0.03357 0.64526 0.09031 0.0
H1888 H 0.03234 0.61543 0.11947 0.0
H1889 H 0.02706 0.61012 0.16258 0.0
H1890 H 0.03259 0.50925 0.22539 0.0
H1891 H 0.04003 0.54913 0.21486 0.0
H1892 H 0.09733 0.56236 0.16725 0.0
C1893 C 0.04573 0.62828 0.12041 0.0
C1894 C 0.04261 0.60004 0.16394 0.0
C1895 C 0.04656 0.64522 0.1036 0.0
C1896 C 0.04257 0.51276 0.2101 0.0
C1897 C 0.04679 0.53557 0.20409 0.0
C1898 C 0.08202 0.57286 0.1667 0.0
C1899 C 0.06264 0.62722 0.13751 0.0
C1900 C 0.06296 0.60743 0.15337 0.0
C1901 C 0.05917 0.54082 0.18409 0.0
C1902 C 0.06128 0.5648 0.176 0.0
H1903 H 0.09431 0.67376 0.12173 0.0
H1904 H 0.09319 0.64347 0.15103 0.0
H1905 H 0.09875 0.59933 0.14744 0.0
H1906 H 0.06987 0.4866 0.16537 0.0
H1907 H 0.07717 0.52637 0.1549 0.0
C1908 C 0.43215 0.47901 0.72111 0.0
C1909 C 0.42822 0.49582 0.70429 0.0
C1910 C 0.42543 0.45624 0.71717 0.0
C1911 C 0.38854 0.42044 0.67984 0.0
H1912 H 0.43969 0.37801 0.6774 0.0
C1913 C 0.40245 0.35863 0.60678 0.0
C1914 C 0.40975 0.33607 0.61089 0.0
C1915 C 0.40014 0.37407 0.62485 0.0
C1916 C 0.42504 0.38936 0.67856 0.0
H1917 H 0.41301 0.5026 0.67106 0.0
H1918 H 0.40103 0.46334 0.66439 0.0
H1919 H 0.44344 0.41385 0.69888 0.0
H1920 H 0.42014 0.31182 0.63709 0.0
H1921 H 0.41684 0.33939 0.6689 0.0
H1922 H 0.37082 0.39689 0.65797 0.0
C1923 C 0.40935 0.46745 0.6805 0.0
C1924 C 0.42716 0.40985 0.69089 0.0
C1925 C 0.41644 0.48989 0.68419 0.0
C1926 C 0.41442 0.32913 0.63352 0.0
C1927 C 0.41256 0.34482 0.65165 0.0
C1928 C 0.38646 0.40007 0.66749 0.0
C1929 C 0.41414 0.45028 0.69669 0.0
C1930 C 0.40939 0.42612 0.69049 0.0
C1931 C 0.4054 0.36743 0.6474 0.0
C1932 C 0.40514 0.38499 0.66571 0.0
H1933 H 0.44122 0.48326 0.73676 0.0
H1934 H 0.42939 0.44325 0.72986 0.0
H1935 H 0.37447 0.43257 0.67956 0.0
H1936 H 0.39859 0.36443 0.58955 0.0
H1937 H 0.39497 0.39151 0.62104 0.0
C1938 C 0.9069 0.01025 0.29465 0.0
C1939 C 0.92829 0.00502 0.28495 0.0
C1940 C 0.90228 0.03236 0.30247 0.0
C1941 C 0.90843 0.0687 0.33796 0.0
H1942 H 0.93325 0.12676 0.31699 0.0
C1943 C 0.93185 0.13903 0.40106 0.0
C1944 C 0.92378 0.16131 0.39668 0.0
C1945 C 0.93054 0.12213 0.38424 0.0
C1946 C 0.92601 0.1107 0.3229 0.0
H1947 H 0.96087 0.01903 0.27388 0.0
H1948 H 0.95314 0.0576 0.28825 0.0
H1949 H 0.93205 0.09388 0.29068 0.0
H1950 H 0.90898 0.18357 0.37074 0.0
H1951 H 0.90679 0.15374 0.34116 0.0
H1952 H 0.90284 0.08516 0.3702 0.0
C1953 C 0.93972 0.04482 0.28944 0.0
C1954 C 0.92543 0.09189 0.30793 0.0
C1955 C 0.94419 0.02271 0.28122 0.0
C1956 C 0.91519 0.16651 0.37471 0.0
C1957 C 0.91401 0.14952 0.35776 0.0
C1958 C 0.9091 0.08735 0.35283 0.0
C1959 C 0.91918 0.04952 0.30124 0.0
C1960 C 0.917 0.07056 0.31547 0.0
C1961 C 0.92123 0.12706 0.36259 0.0
C1962 C 0.91841 0.10835 0.34567 0.0
H1963 H 0.89429 -0.00311 0.29749 0.0
H1964 H 0.88604 0.0356 0.31091 0.0
H1965 H 0.90218 0.0525 0.34455 0.0
H1966 H 0.93879 0.13443 0.41767 0.0
H1967 H 0.93663 0.10504 0.38827 0.0
C1968 C 0.9887 0.36679 0.16593 0.0
C1969 C 0.01077 0.36344 0.17499 0.0
C1970 C 0.97794 0.34944 0.15355 0.0
C1971 C 0.99427 0.30218 0.11649 0.0
H1972 H 0.92837 0.29803 0.10848 0.0
C1973 C 0.95664 0.26425 0.03449 0.0
C1974 C 0.94195 0.27988 0.02346 0.0
C1975 C 0.96199 0.26692 0.05768 0.0
C1976 C 0.9468 0.2988 0.11068 0.0
H1977 H 0.038 0.33856 0.17996 0.0
H1978 H 0.01904 0.30811 0.15834 0.0
H1979 H 0.94394 0.31616 0.14291 0.0
H1980 H 0.91995 0.30947 0.02853 0.0
H1981 H 0.9295 0.31428 0.06887 0.0
H1982 H -0.00282 0.28589 0.08383 0.0
C1983 C 0.0103 0.32436 0.16048 0.0
C1984 C 0.95572 0.30918 0.13033 0.0
C1985 C 0.02114 0.34179 0.17285 0.0
C1986 C 0.93155 0.29731 0.03645 0.0
C1987 C 0.93681 0.2999 0.05965 0.0
C1988 C 0.98536 0.29167 0.09696 0.0
C1989 C 0.98892 0.32828 0.15004 0.0
C1990 C 0.97954 0.31202 0.13286 0.0
C1991 C 0.95262 0.28515 0.07031 0.0
C1992 C 0.96156 0.29088 0.09336 0.0
H1993 H 0.98007 0.38317 0.16753 0.0
H1994 H 0.9616 0.35321 0.14555 0.0
H1995 H 0.01269 0.30422 0.11774 0.0
H1996 H 0.96473 0.25044 0.02504 0.0
H1997 H 0.97408 0.2552 0.06554 0.0
C1998 C 0.53743 0.71675 0.52302 0.0
C1999 C 0.55076 0.69999 0.5119 0.0
C2000 C 0.52914 0.71299 0.54515 0.0
C2001 C 0.49714 0.68884 0.57791 0.0
H2002 H 0.52734 0.65622 0.6274 0.0
C2003 C 0.45274 0.62342 0.6355 0.0
C2004 C 0.45662 0.62426 0.65924 0.0
C2005 C 0.46453 0.63811 0.6208 0.0
C2006 C 0.51879 0.66571 0.6139 0.0
H2007 H 0.56773 0.66715 0.51616 0.0
H2008 H 0.55304 0.66049 0.5548 0.0
H2009 H 0.55031 0.67267 0.5962 0.0
H2010 H 0.47551 0.64127 0.68638 0.0
H2011 H 0.49676 0.66673 0.66034 0.0
H2012 H 0.46558 0.6808 0.59488 0.0
C2013 C 0.54903 0.67655 0.54637 0.0
C2014 C 0.53187 0.67494 0.59602 0.0
C2015 C 0.55734 0.6803 0.52417 0.0
C2016 C 0.47211 0.64045 0.66812 0.0
C2017 C 0.48432 0.65487 0.6533 0.0
C2018 C 0.4841 0.67941 0.59559 0.0
C2019 C 0.53407 0.69243 0.55665 0.0
C2020 C 0.5211 0.68607 0.57756 0.0
C2021 C 0.48073 0.65365 0.62951 0.0
C2022 C 0.49475 0.66722 0.61337 0.0
H2023 H 0.5324 0.73232 0.51421 0.0
H2024 H 0.51796 0.72568 0.55284 0.0
H2025 H 0.48831 0.69709 0.5638 0.0
H2026 H 0.44088 0.6111 0.62823 0.0
H2027 H 0.46165 0.6367 0.60248 0.0
C2028 C 0.4642 0.21364 0.9506 0.0
C2029 C 0.44899 0.19886 0.96212 0.0
C2030 C 0.46979 0.20982 0.92757 0.0
C2031 C 0.454 0.17472 0.87635 0.0
H2032 H 0.51978 0.17195 0.86692 0.0
C2033 C 0.49875 0.10431 0.82664 0.0
C2034 C 0.51774 0.10931 0.81272 0.0
C2035 C 0.4879 0.12162 0.839 0.0
C2036 C 0.50135 0.17318 0.86896 0.0
H2037 H 0.42662 0.16937 0.95807 0.0
H2038 H 0.43666 0.16246 0.91834 0.0
H2039 H 0.50457 0.19176 0.90037 0.0
H2040 H 0.53981 0.13643 0.80002 0.0
H2041 H 0.52118 0.16682 0.8225 0.0
H2042 H 0.45103 0.15449 0.84583 0.0
C2043 C 0.44411 0.17719 0.92686 0.0
C2044 C 0.49259 0.18456 0.88814 0.0
C2045 C 0.43853 0.181 0.9498 0.0
C2046 C 0.52524 0.13213 0.81073 0.0
C2047 C 0.51461 0.14947 0.82351 0.0
C2048 C 0.46278 0.16319 0.8573 0.0
C2049 C 0.46023 0.19119 0.91563 0.0
C2050 C 0.46888 0.18447 0.89263 0.0
C2051 C 0.49601 0.14426 0.83795 0.0
C2052 C 0.48657 0.16142 0.85405 0.0
H2053 H 0.47235 0.22774 0.95953 0.0
H2054 H 0.48206 0.22106 0.91931 0.0
H2055 H 0.43561 0.17485 0.87904 0.0
H2056 H 0.49244 0.08689 0.82826 0.0
H2057 H 0.47381 0.11706 0.85024 0.0
C2058 C 0.05033 0.8143 0.47633 0.0
C2059 C 0.04185 0.79415 0.48644 0.0
C2060 C 0.04429 0.82008 0.45396 0.0
C2061 C -0.00271 0.81287 0.41406 0.0
H2062 H 0.03833 0.84501 0.37266 0.0
C2063 C 0.96359 0.86041 0.33447 0.0
C2064 C 0.97141 0.88316 0.33286 0.0
C2065 C 0.97428 0.84493 0.34927 0.0
C2066 C 0.0267 0.83598 0.38401 0.0
H2067 H 0.02121 0.7637 0.48071 0.0
H2068 H 0.01048 0.77398 0.44151 0.0
H2069 H 0.05393 0.82531 0.40618 0.0
H2070 H -0.00283 0.90726 0.3448 0.0
H2071 H 0.01553 0.8804 0.37083 0.0
H2072 H 0.96996 0.82442 0.39257 0.0
C2073 C 0.02172 0.7853 0.45103 0.0
C2074 C 0.03562 0.82471 0.40313 0.0
C2075 C 0.02788 0.77944 0.47342 0.0
C2076 C 0.9906 0.8899 0.34576 0.0
C2077 C 0.0013 0.87443 0.36049 0.0
C2078 C 0.98838 0.82415 0.39495 0.0
C2079 C 0.02959 0.80586 0.44123 0.0
C2080 C 0.0209 0.81377 0.41877 0.0
C2081 C 0.99307 0.85189 0.36263 0.0
C2082 C 0.00292 0.8365 0.38021 0.0
H2083 H 0.06132 0.82589 0.48584 0.0
H2084 H 0.05037 0.8362 0.44698 0.0
H2085 H 0.98551 0.80475 0.42593 0.0
H2086 H 0.94897 0.85462 0.32458 0.0
H2087 H 0.9677 0.8276 0.35047 0.0
C2088 C 0.17451 0.0314 0.34867 0.0
C2089 C 0.16685 0.04485 0.36716 0.0
C2090 C 0.15888 0.02344 0.33225 0.0
C2091 C 0.0999 0.03236 0.3104 0.0
H2092 H 0.09684 0.96606 0.30583 0.0
C2093 C 0.01587 0.98406 0.30656 0.0
C2094 C 0.01299 0.96616 0.29072 0.0
C2095 C 0.03715 0.99452 0.30926 0.0
C2096 C 0.09775 0.98461 0.30644 0.0
H2097 H 0.13733 0.06165 0.38233 0.0
H2098 H 0.11031 0.0481 0.35377 0.0
H2099 H 0.13112 0.98423 0.32184 0.0
H2100 H 0.03023 0.94493 0.26546 0.0
H2101 H 0.06794 0.96298 0.27078 0.0
H2102 H 0.06594 0.03268 0.29654 0.0
C2103 C 0.12823 0.0436 0.35182 0.0
C2104 C 0.11737 -0.00499 0.31553 0.0
C2105 C 0.14367 0.05118 0.36833 0.0
C2106 C 0.03197 0.95874 0.27777 0.0
C2107 C 0.05348 0.96902 0.28077 0.0
C2108 C 0.08033 0.02199 0.30144 0.0
C2109 C 0.13554 0.02928 0.33387 0.0
C2110 C 0.1181 0.01891 0.31863 0.0
C2111 C 0.05613 0.98715 0.2964 0.0
C2112 C 0.07867 -0.002 0.30042 0.0
H2113 H 0.19233 0.02625 0.34749 0.0
H2114 H 0.1649 0.01238 0.31858 0.0
H2115 H 0.1002 0.05085 0.31225 0.0
H2116 H 0.00159 0.99025 0.31673 0.0
H2117 H 0.03885 0.00819 0.32173 0.0
C2118 C 0.46105 0.01531 0.75339 0.0
C2119 C 0.46961 0.03258 0.76789 0.0
C2120 C 0.43862 0.00728 0.75608 0.0
C2121 C 0.40324 0.98066 0.78324 0.0
H2122 H 0.35182 0.01636 0.80581 0.0
C2123 C 0.34817 0.95354 0.85856 0.0
C2124 C 0.32431 0.95666 0.85795 0.0
C2125 C 0.36183 0.96114 0.8405 0.0
C2126 C 0.36578 0.00611 0.79906 0.0
H2127 H 0.46066 0.05663 0.79485 0.0
H2128 H 0.42175 0.04253 0.79966 0.0
H2129 H 0.38277 0.03544 0.78481 0.0
H2130 H 0.29591 0.96982 0.83788 0.0
H2131 H 0.32017 0.9839 0.80634 0.0
H2132 H 0.38697 0.95162 0.79872 0.0
C2133 C 0.43225 0.03514 0.78622 0.0
C2134 C 0.38355 0.01704 0.78722 0.0
C2135 C 0.45467 0.04308 0.78363 0.0
C2136 C 0.31429 0.96715 0.83868 0.0
C2137 C 0.32809 0.97521 0.82073 0.0
C2138 C 0.38558 0.96981 0.79519 0.0
C2139 C 0.42431 0.0165 0.77316 0.0
C2140 C 0.40294 0.00457 0.7801 0.0
C2141 C 0.352 0.97235 0.82159 0.0
C2142 C 0.36724 0.9826 0.80409 0.0
H2143 H 0.47206 0.00702 0.74092 0.0
H2144 H 0.43285 0.99307 0.74559 0.0
H2145 H 0.41797 0.97056 0.77815 0.0
H2146 H 0.35634 0.94541 0.87314 0.0
H2147 H 0.38025 0.95903 0.84176 0.0
C2148 C 0.67374 0.51648 0.61481 0.0
C2149 C 0.67462 0.49253 0.61289 0.0
C2150 C 0.65859 0.52681 0.63023 0.0
C2151 C 0.61295 0.54357 0.64678 0.0
H2152 H 0.58568 0.51158 0.69831 0.0
C2153 C 0.5185 0.55401 0.66835 0.0
C2154 C 0.51063 0.55144 0.69097 0.0
C2155 C 0.54152 0.5505 0.66304 0.0
C2156 C 0.59329 0.52109 0.68428 0.0
H2157 H 0.66139 0.46049 0.62621 0.0
H2158 H 0.634 0.47829 0.65199 0.0
H2159 H 0.6226 0.49911 0.68356 0.0
H2160 H 0.52088 0.54401 0.72596 0.0
H2161 H 0.56139 0.53842 0.71675 0.0
H2162 H 0.58398 0.56589 0.64785 0.0
C2163 C 0.64545 0.48933 0.6424 0.0
C2164 C 0.61436 0.51368 0.67555 0.0
C2165 C 0.66105 0.47903 0.62745 0.0
C2166 C 0.52642 0.54587 0.70831 0.0
C2167 C 0.54961 0.54262 0.70302 0.0
C2168 C 0.59219 0.55125 0.65581 0.0
C2169 C 0.64348 0.51339 0.64349 0.0
C2170 C 0.62393 0.52414 0.65598 0.0
C2171 C 0.55739 0.54468 0.68025 0.0
C2172 C 0.58153 0.53942 0.67392 0.0
H2173 H 0.68436 0.52723 0.60397 0.0
H2174 H 0.65815 0.54535 0.63107 0.0
H2175 H 0.61953 0.55214 0.63168 0.0
H2176 H 0.50679 0.5582 0.65456 0.0
H2177 H 0.54666 0.55168 0.64522 0.0
C2178 C 0.95549 0.42405 0.20827 0.0
C2179 C 0.96955 0.4419 0.21602 0.0
C2180 C 0.93247 0.42824 0.20334 0.0
C2181 C 0.88607 0.47209 0.20466 0.0
H2182 H 0.87801 0.45325 0.14139 0.0
C2183 C 0.83253 0.52308 0.13963 0.0
C2184 C 0.8234 0.51171 0.12049 0.0
C2185 C 0.84502 0.51089 0.15605 0.0
C2186 C 0.87943 0.45822 0.15924 0.0
H2187 H 0.97094 0.47753 0.22613 0.0
H2188 H 0.93066 0.48511 0.21721 0.0
H2189 H 0.90923 0.43754 0.16347 0.0
H2190 H 0.81814 0.4786 0.10448 0.0
H2191 H 0.83905 0.45716 0.13357 0.0
H2192 H 0.85655 0.49344 0.2 0.0
C2193 C 0.93711 0.46779 0.21538 0.0
C2194 C 0.89746 0.44915 0.17195 0.0
C2195 C 0.96014 0.46354 0.22039 0.0
C2196 C 0.82551 0.48781 0.11885 0.0
C2197 C 0.83752 0.47557 0.1355 0.0
C2198 C 0.86779 0.48104 0.19195 0.0
C2199 C 0.92335 0.45043 0.20579 0.0
C2200 C 0.90144 0.45653 0.19453 0.0
C2201 C 0.84819 0.48705 0.15383 0.0
C2202 C 0.86475 0.47478 0.16882 0.0
H2203 H 0.96265 0.40727 0.20472 0.0
H2204 H 0.9222 0.41451 0.19619 0.0
H2205 H 0.88867 0.47793 0.22211 0.0
H2206 H 0.83103 0.54152 0.1413 0.0
H2207 H 0.85317 0.52039 0.16977 0.0
C2208 C 0.37289 0.17352 0.98377 0.0
C2209 C 0.36915 0.17425 0.0075 0.0
C2210 C 0.35888 0.16011 0.9698 0.0
C2211 C 0.30643 0.12435 0.96753 0.0
H2212 H 0.34622 0.0817 0.93557 0.0
C2213 C 0.28093 0.03129 0.94941 0.0
C2214 C 0.29137 0.01928 0.93132 0.0
C2215 C 0.28651 0.05417 0.95357 0.0
C2216 C 0.33463 0.09369 0.94375 0.0
H2217 H 0.34743 0.163 0.03539 0.0
H2218 H 0.32272 0.13931 0.01095 0.0
H2219 H 0.36227 0.11613 0.95215 0.0
H2220 H 0.3143 0.02225 0.90219 0.0
H2221 H 0.32343 0.06252 0.90888 0.0
H2222 H 0.27882 0.10154 0.9595 0.0
C2223 C 0.33622 0.14933 0.00302 0.0
C2224 C 0.34391 0.11348 0.95335 0.0
C2225 C 0.35032 0.16278 0.01702 0.0
C2226 C 0.30632 0.03101 0.91652 0.0
C2227 C 0.31159 0.05405 0.92042 0.0
C2228 C 0.29703 0.10463 0.95762 0.0
C2229 C 0.34101 0.14712 0.97945 0.0
C2230 C 0.33006 0.12864 0.96594 0.0
C2231 C 0.30237 0.06569 0.93949 0.0
C2232 C 0.31119 0.08865 0.94629 0.0
H2233 H 0.38745 0.18228 0.97623 0.0
H2234 H 0.36281 0.15887 0.95167 0.0
H2235 H 0.29535 0.13589 0.97699 0.0
H2236 H 0.26932 0.0227 0.96112 0.0
H2237 H 0.27928 0.06236 0.96859 0.0
C2238 C 0.86379 0.3413 0.96163 0.0
C2239 C 0.86416 0.31803 0.96769 0.0
C2240 C 0.84591 0.35534 0.96876 0.0
C2241 C 0.80879 0.36529 0.01572 0.0
H2242 H 0.78513 0.41193 0.97458 0.0
C2243 C 0.77144 0.4539 0.04488 0.0
C2244 C 0.7857 0.47121 0.03594 0.0
C2245 C 0.773 0.43141 0.03651 0.0
C2246 C 0.79111 0.39875 0.98625 0.0
H2247 H 0.84605 0.29097 0.98562 0.0
H2248 H 0.81481 0.31613 -0.0009 0.0
H2249 H 0.80225 0.37714 0.95877 0.0
H2250 H 0.81227 0.47878 0.01098 0.0
H2251 H 0.81462 0.4399 -0.00381 0.0
H2252 H 0.79931 0.38793 0.04316 0.0
C2253 C 0.82827 0.32319 0.9884 0.0
C2254 C 0.80087 0.3789 0.97724 0.0
C2255 C 0.84605 0.3089 0.98075 0.0
C2256 C 0.80118 0.46579 0.01832 0.0
C2257 C 0.80236 0.44361 0.00968 0.0
C2258 C 0.79892 0.38521 0.02478 0.0
C2259 C 0.82814 0.34654 0.98244 0.0
C2260 C 0.81107 0.36271 0.99185 0.0
C2261 C 0.78836 0.42622 0.01869 0.0
C2262 C 0.79131 0.40265 0.01001 0.0
H2263 H 0.87744 0.34872 0.9514 0.0
H2264 H 0.84644 0.37336 0.96425 0.0
H2265 H 0.81662 0.35306 0.02732 0.0
H2266 H 0.75939 0.45768 0.05853 0.0
H2267 H 0.76221 0.41816 0.04381 0.0
C2268 C 0.63769 0.65041 0.4529 0.0
C2269 C 0.63318 0.67373 0.45662 0.0
C2270 C 0.65741 0.64041 0.46184 0.0
C2271 C 0.6911 0.63782 0.51021 0.0
H2272 H 0.73023 0.60016 0.47179 0.0
C2273 C 0.73192 0.55441 0.54394 0.0
C2274 C 0.723 0.5364 0.53069 0.0
C2275 C 0.73094 0.57701 0.53568 0.0
C2276 C 0.7199 0.61096 0.48285 0.0
H2277 H 0.64562 0.70501 0.4724 0.0
H2278 H 0.67997 0.68694 0.48919 0.0
H2279 H 0.70827 0.63141 0.45465 0.0
H2280 H 0.70769 0.52721 0.49812 0.0
H2281 H 0.70633 0.56616 0.48362 0.0
H2282 H 0.70057 0.61565 0.53792 0.0
C2283 C 0.66842 0.67675 0.4788 0.0
C2284 C 0.70742 0.62884 0.47305 0.0
C2285 C 0.64887 0.68699 0.46926 0.0
C2286 C 0.71448 0.54092 0.50869 0.0
C2287 C 0.71399 0.5632 0.5003 0.0
C2288 C 0.70345 0.61975 0.52001 0.0
C2289 C 0.67276 0.65339 0.47507 0.0
C2290 C 0.69187 0.6414 0.48641 0.0
C2291 C 0.72168 0.58157 0.51386 0.0
C2292 C 0.71665 0.60518 0.50604 0.0
H2293 H 0.62591 0.63988 0.44312 0.0
H2294 H 0.66031 0.62226 0.45907 0.0
H2295 H 0.67907 0.64728 0.52077 0.0
H2296 H 0.73857 0.55116 0.56098 0.0
H2297 H 0.73681 0.59091 0.54651 0.0
C2298 C 0.13229 0.8251 0.51838 0.0
C2299 C 0.11463 0.83202 0.53328 0.0
C2300 C 0.14341 0.84122 0.50445 0.0
C2301 C 0.1714 0.88189 0.48586 0.0
H2302 H 0.133 0.93049 0.46163 0.0
C2303 C 0.20647 0.96966 0.4589 0.0
C2304 C 0.19463 0.98275 0.44249 0.0
C2305 C 0.19847 0.94804 0.46527 0.0
C2306 C 0.144 0.91684 0.46776 0.0
H2307 H 0.09563 0.8613 0.54623 0.0
H2308 H 0.11532 0.88928 0.52256 0.0
H2309 H 0.11556 0.89893 0.48229 0.0
H2310 H 0.1663 0.98264 0.41841 0.0
H2311 H 0.15263 0.94456 0.42908 0.0
H2312 H 0.19988 0.89986 0.47117 0.0
C2313 C 0.12013 0.8714 0.521 0.0
C2314 C 0.134 0.89891 0.47998 0.0
C2315 C 0.10899 0.85538 0.53473 0.0
C2316 C 0.17555 0.97311 0.4314 0.0
C2317 C 0.16769 0.95133 0.43758 0.0
C2318 C 0.18144 0.8998 0.47344 0.0
C2319 C 0.13706 0.86447 0.5053 0.0
C2320 C 0.14764 0.88167 0.48984 0.0
C2321 C 0.17859 0.93888 0.45516 0.0
C2322 C 0.16791 0.91786 0.46485 0.0
H2323 H 0.13689 0.80717 0.51683 0.0
H2324 H 0.1564 0.83538 0.49252 0.0
H2325 H 0.18236 0.86879 0.49317 0.0
H2326 H 0.22129 0.97655 0.46773 0.0
H2327 H 0.20717 0.93912 0.47904 0.0
C2328 C 0.97005 0.64189 0.83435 0.0
C2329 C 0.98285 0.62342 0.82575 0.0
C2330 C 0.98027 0.65814 0.84859 0.0
C2331 C 0.02986 0.66351 0.88779 0.0
H2332 H 0.00279 0.72345 0.89784 0.0
C2333 C 0.05246 0.71967 0.96586 0.0
C2334 C 0.0334 0.71909 0.98056 0.0
C2335 C 0.04995 0.71393 0.9427 0.0
C2336 C 0.01078 0.70693 0.89492 0.0
H2337 H 0.01675 0.60835 0.8238 0.0
H2338 H 0.03499 0.63738 0.84779 0.0
H2339 H 0.99298 0.70184 0.86331 0.0
H2340 H -0.0032 0.71352 0.9829 0.0
H2341 H 0.99218 0.70454 0.94208 0.0
H2342 H 0.04756 0.66879 0.91954 0.0
C2343 C 0.0168 0.63885 0.84437 0.0
C2344 C 0.00499 0.69438 0.87534 0.0
C2345 C 0.00642 0.62226 0.83051 0.0
C2346 C 0.01161 0.7143 0.97167 0.0
C2347 C 0.009 0.70924 0.94843 0.0
C2348 C 0.03607 0.67633 0.90702 0.0
C2349 C 0.00371 0.65663 0.85421 0.0
C2350 C 0.0136 0.67202 0.87208 0.0
C2351 C 0.02825 0.70823 0.93399 0.0
C2352 C 0.02588 0.69769 0.91116 0.0
H2353 H 0.95181 0.64318 0.83104 0.0
H2354 H 0.96939 0.67118 0.85609 0.0
H2355 H 0.0367 0.64633 0.88621 0.0
H2356 H 0.06946 0.72295 0.97261 0.0
H2357 H 0.06501 0.71297 0.93185 0.0
C2358 C 0.52674 0.34672 0.32526 0.0
C2359 C 0.51949 0.36967 0.32649 0.0
C2360 C 0.51707 0.33023 0.33983 0.0
C2361 C 0.50735 0.31032 0.3881 0.0
H2362 H 0.44232 0.30841 0.40228 0.0
C2363 C 0.47049 0.30855 0.47793 0.0
C2364 C 0.4534 0.29258 0.48357 0.0
C2365 C 0.47853 0.31025 0.45552 0.0
C2366 C 0.46046 0.30825 0.3982 0.0
H2367 H 0.49557 0.39316 0.34257 0.0
H2368 H 0.47849 0.36441 0.36761 0.0
H2369 H 0.45535 0.32593 0.36635 0.0
H2370 H 0.43133 0.26574 0.4704 0.0
H2371 H 0.44478 0.26958 0.43048 0.0
H2372 H 0.51258 0.29458 0.42092 0.0
C2373 C 0.49169 0.35914 0.35562 0.0
C2374 C 0.4679 0.31834 0.37776 0.0
C2375 C 0.50166 0.37563 0.34152 0.0
C2376 C 0.44454 0.27818 0.46639 0.0
C2377 C 0.45221 0.28031 0.4437 0.0
C2378 C 0.49994 0.30057 0.40868 0.0
C2379 C 0.49961 0.33641 0.35526 0.0
C2380 C 0.49146 0.32034 0.37307 0.0
C2381 C 0.46933 0.29634 0.43819 0.0
C2382 C 0.47652 0.30038 0.41428 0.0
H2383 H 0.54043 0.34173 0.31372 0.0
H2384 H 0.52351 0.31282 0.33939 0.0
H2385 H 0.52561 0.31182 0.38494 0.0
H2386 H 0.47777 0.3197 0.49091 0.0
H2387 H 0.4915 0.32297 0.45157 0.0
C2388 C 0.55479 0.80176 0.03676 0.0
C2389 C 0.54542 0.78384 0.02367 0.0
C2390 C 0.54893 0.80425 0.05983 0.0
C2391 C 0.50052 0.79228 0.0975 0.0
H2392 H 0.5391 0.82406 0.14133 0.0
C2393 C 0.46197 0.84253 0.17324 0.0
C2394 C 0.46812 0.8657 0.17095 0.0
C2395 C 0.47434 0.82559 0.16149 0.0
C2396 C 0.5282 0.81481 0.12946 0.0
H2397 H 0.52404 0.75338 0.02503 0.0
H2398 H 0.51391 0.75772 0.06541 0.0
H2399 H 0.55651 0.80561 0.10797 0.0
H2400 H 0.49284 0.8893 0.15631 0.0
H2401 H 0.51452 0.85993 0.1362 0.0
H2402 H 0.47212 0.80258 0.11835 0.0
C2403 C 0.52544 0.77007 0.05768 0.0
C2404 C 0.53812 0.80439 0.11031 0.0
C2405 C 0.53126 0.7676 0.03455 0.0
C2406 C 0.48759 0.87156 0.15807 0.0
C2407 C 0.50017 0.8547 0.14681 0.0
C2408 C 0.49063 0.80256 0.11674 0.0
C2409 C 0.53367 0.78881 0.0704 0.0
C2410 C 0.52424 0.79414 0.09347 0.0
C2411 C 0.49334 0.83164 0.14788 0.0
C2412 C 0.50427 0.81499 0.13218 0.0
H2413 H 0.56594 0.81443 0.02899 0.0
H2414 H 0.55538 0.81907 0.06898 0.0
H2415 H 0.48928 0.78463 0.08485 0.0
H2416 H 0.44704 0.83765 0.18318 0.0
H2417 H 0.46873 0.80791 0.16249 0.0
C2418 C 0.96661 0.24043 0.52988 0.0
C2419 C 0.9552 0.22157 0.52016 0.0
C2420 C 0.97368 0.23967 0.55282 0.0
C2421 C 0.96535 0.21006 0.60758 0.0
H2422 H 0.03119 0.20089 0.60915 0.0
C2423 C 0.00531 0.13586 0.6532 0.0
C2424 C 0.02767 0.1367 0.66205 0.0
C2425 C -0.00436 0.15506 0.6429 0.0
C2426 C 0.0129 0.20412 0.60948 0.0
H2427 H 0.94083 0.18796 0.52666 0.0
H2428 H 0.95246 0.18692 0.56684 0.0
H2429 H 0.01389 0.22081 0.57676 0.0
H2430 H 0.05704 0.15874 0.66813 0.0
H2431 H 0.0401 0.19246 0.64964 0.0
H2432 H 0.96411 0.19204 0.6395 0.0
C2433 C 0.95615 0.20215 0.55683 0.0
C2434 C 0.00301 0.21555 0.5909 0.0
C2435 C 0.94972 0.20262 0.53386 0.0
C2436 C 0.03983 0.15752 0.66125 0.0
C2437 C 0.03014 0.17682 0.65074 0.0
C2438 C 0.97523 0.19891 0.62629 0.0
C2439 C 0.96867 0.22039 0.56634 0.0
C2440 C 0.97907 0.21714 0.58913 0.0
C2441 C 0.00806 0.17564 0.64114 0.0
C2442 C -0.00109 0.19431 0.62653 0.0
H2443 H 0.97104 0.25517 0.51946 0.0
H2444 H 0.98357 0.25376 0.55981 0.0
H2445 H 0.94683 0.2113 0.60657 0.0
H2446 H -0.00464 0.12017 0.65379 0.0
H2447 H 0.97878 0.15335 0.63528 0.0
C2448 C 0.8583 0.94128 0.63054 0.0
C2449 C 0.83467 0.94528 0.62838 0.0
C2450 C 0.87161 0.95511 0.64479 0.0
C2451 C 0.89354 0.98295 0.68361 0.0
H2452 H 0.89322 0.04592 0.66202 0.0
C2453 C 0.96287 0.04686 0.71142 0.0
C2454 C 0.97538 0.0545 0.69224 0.0
C2455 C 0.94123 0.03697 0.7086 0.0
C2456 C 0.89321 0.02851 0.66852 0.0
H2457 H 0.8062 0.96627 0.63991 0.0
H2458 H 0.82981 0.99106 0.66436 0.0
H2459 H 0.86315 0.01943 0.64943 0.0
H2460 H 0.9743 0.05966 0.65541 0.0
H2461 H 0.93632 0.04276 0.65056 0.0
H2462 H 0.92415 0.99168 0.70185 0.0
C2463 C 0.83783 0.97694 0.65533 0.0
C2464 C 0.87599 0.01343 0.66145 0.0
C2465 C 0.82438 0.96273 0.64146 0.0
C2466 C 0.96512 0.05375 0.67046 0.0
C2467 C 0.94333 0.04423 0.66771 0.0
C2468 C 0.91051 -0.00189 0.69099 0.0
C2469 C 0.8616 0.97348 0.65673 0.0
C2470 C 0.87655 0.99033 0.66827 0.0
C2471 C 0.93157 0.03502 0.68663 0.0
C2472 C 0.91097 0.02078 0.68282 0.0
H2473 H 0.8666 0.92794 0.62062 0.0
H2474 H 0.88996 0.95227 0.64543 0.0
H2475 H 0.89428 0.96519 0.68904 0.0
H2476 H 0.97033 0.04724 0.72844 0.0
H2477 H 0.93243 0.03004 0.72343 0.0
C2478 C 0.66215 0.02124 0.15587 0.0
C2479 C 0.67485 0.00882 0.13964 0.0
C2480 C 0.64798 0.00967 0.17142 0.0
C2481 C 0.61436 0.95769 0.16902 0.0
H2482 H 0.5916 0.97728 0.22836 0.0
C2483 C 0.52772 0.92532 0.19931 0.0
C2484 C 0.51312 0.9423 0.20806 0.0
C2485 C 0.55128 0.92924 0.19783 0.0
C2486 C 0.59777 0.9716 0.21177 0.0
H2487 H 0.68533 0.97491 0.12872 0.0
H2488 H 0.66118 0.9547 0.15626 0.0
H2489 H 0.62806 0.99242 0.21401 0.0
H2490 H 0.5116 0.97613 0.22336 0.0
H2491 H 0.55252 0.98357 0.21962 0.0
H2492 H 0.58374 0.93823 0.16574 0.0
C2493 C 0.66149 0.97327 0.15659 0.0
C2494 C 0.61868 0.9802 0.20364 0.0
C2495 C 0.67533 0.9848 0.14088 0.0
C2496 C 0.52255 0.96278 0.21649 0.0
C2497 C 0.54606 0.96693 0.21452 0.0
C2498 C 0.5935 0.94931 0.17699 0.0
C2499 C 0.64659 0.98557 0.171 0.0
C2500 C 0.62689 0.97373 0.18191 0.0
C2501 C 0.56062 0.95049 0.20448 0.0
C2502 C 0.58459 0.95659 0.19819 0.0
H2503 H 0.66154 0.0398 0.15518 0.0
H2504 H 0.63666 0.01964 0.18227 0.0
H2505 H 0.61988 0.9527 0.15198 0.0
H2506 H 0.52086 0.90919 0.19313 0.0
H2507 H 0.56203 0.91591 0.19064 0.0
C2508 C 0.45268 0.4542 0.27073 0.0
C2509 C 0.46471 0.43979 0.28588 0.0
C2510 C 0.4298 0.45982 0.27504 0.0
C2511 C 0.37981 0.44693 0.31273 0.0
H2512 H 0.37514 0.51315 0.31652 0.0
C2513 C 0.33075 0.49285 0.3837 0.0
C2514 C 0.32037 0.51415 0.37938 0.0
C2515 C 0.34282 0.48154 0.36642 0.0
C2516 C 0.37575 0.49464 0.31508 0.0
H2517 H 0.4616 0.41819 0.31605 0.0
H2518 H 0.42194 0.42823 0.32373 0.0
H2519 H 0.40635 0.49601 0.29503 0.0
H2520 H 0.31343 0.5397 0.35317 0.0
H2521 H 0.33458 0.5199 0.32298 0.0
H2522 H 0.34983 0.44569 0.33392 0.0
C2523 C 0.43005 0.43517 0.30851 0.0
C2524 C 0.39367 0.48479 0.30269 0.0
C2525 C 0.4529 0.42962 0.30427 0.0
C2526 C 0.32155 0.52347 0.35715 0.0
C2527 C 0.3336 0.51213 0.33984 0.0
C2528 C 0.36183 0.4568 0.32511 0.0
C2529 C 0.41854 0.45102 0.29446 0.0
C2530 C 0.39648 0.46086 0.30228 0.0
C2531 C 0.3447 0.49124 0.34441 0.0
C2532 C 0.36026 0.48076 0.32726 0.0
H2533 H 0.46124 0.46209 0.25624 0.0
H2534 H 0.42124 0.47188 0.26379 0.0
H2535 H 0.38137 0.42842 0.31237 0.0
H2536 H 0.32999 0.48508 0.40057 0.0
H2537 H 0.35148 0.46566 0.37061 0.0
C2538 C 0.17642 0.46737 0.83927 0.0
C2539 C 0.16546 0.45456 0.85653 0.0
C2540 C 0.16387 0.47557 0.8205 0.0
C2541 C 0.10858 0.46892 0.79014 0.0
H2542 H 0.10489 0.53531 0.7918 0.0
C2543 C 0.02693 0.51761 0.79887 0.0
C2544 C 0.02117 0.53506 0.78335 0.0
C2545 C 0.04836 0.50725 0.79788 0.0
C2546 C 0.10618 0.51683 0.7904 0.0
H2547 H 0.13339 0.43903 0.86715 0.0
H2548 H 0.11168 0.45294 0.83447 0.0
H2549 H 0.1383 0.51597 0.80819 0.0
H2550 H 0.03324 0.55557 0.75472 0.0
H2551 H 0.07166 0.53787 0.75378 0.0
H2552 H 0.07529 0.46973 0.77472 0.0
C2553 C 0.12985 0.45676 0.8353 0.0
C2554 C 0.12528 0.50575 0.79976 0.0
C2555 C 0.14219 0.44903 0.85417 0.0
C2556 C 0.03736 0.54212 0.76687 0.0
C2557 C 0.05917 0.53203 0.76625 0.0
C2558 C 0.08951 0.47997 0.78092 0.0
C2559 C 0.1404 0.47049 0.81853 0.0
C2560 C 0.12577 0.48169 0.80114 0.0
C2561 C 0.06462 0.51435 0.78163 0.0
C2562 C 0.08756 0.50389 0.7824 0.0
H2563 H 0.1944 0.47183 0.8408 0.0
H2564 H 0.17229 0.48629 0.80787 0.0
H2565 H 0.10875 0.45035 0.79076 0.0
H2566 H 0.01473 0.51167 0.81159 0.0
H2567 H 0.05241 0.49387 0.81015 0.0
C2568 C 0.6423 0.82599 0.96599 0.0
C2569 C 0.62488 0.81332 0.97663 0.0
C2570 C 0.65756 0.83881 0.97929 0.0
C2571 C 0.65507 0.87038 0.03237 0.0
H2572 H 0.71865 0.88501 0.01945 0.0
C2573 C 0.69315 0.95047 0.07161 0.0
C2574 C 0.70547 0.96424 0.05628 0.0
C2575 C 0.68929 0.92742 0.0666 0.0
C2576 C 0.70089 0.88114 0.02326 0.0
H2577 H 0.61019 0.80266 0.009 0.0
H2578 H 0.63698 0.82492 0.03239 0.0
H2579 H 0.70082 0.85173 0.00108 0.0
H2580 H 0.72451 0.96505 0.02446 0.0
H2581 H 0.71664 0.92508 0.01479 0.0
H2582 H 0.65423 0.90034 0.05305 0.0
C2583 C 0.63889 0.82511 0.01389 0.0
C2584 C 0.69076 0.86204 0.01282 0.0
C2585 C 0.62364 0.81237 0.0006 0.0
C2586 C 0.71503 0.95452 0.0365 0.0
C2587 C 0.71062 0.93159 0.03112 0.0
C2588 C 0.66504 0.88951 0.04253 0.0
C2589 C 0.65541 0.83917 0.00334 0.0
C2590 C 0.66759 0.85681 0.01692 0.0
C2591 C 0.69693 0.918 0.0457 0.0
C2592 C 0.68791 0.89551 0.03771 0.0
H2593 H 0.64327 0.82697 0.94745 0.0
H2594 H 0.66994 0.84969 0.97069 0.0
H2595 H 0.63706 0.86709 0.03553 0.0
H2596 H 0.68583 0.95775 0.08708 0.0
H2597 H 0.67931 0.91733 0.07859 0.0
C2598 C 0.20425 0.52708 0.95069 0.0
C2599 C 0.18926 0.51399 0.93707 0.0
C2600 C 0.19863 0.54952 0.95681 0.0
C2601 C 0.15871 0.59771 0.94528 0.0
H2602 H 0.16247 0.60671 0.01111 0.0
C2603 C 0.0986 0.65761 0.99483 0.0
C2604 C 0.1063 0.66829 0.01504 0.0
C2605 C 0.11297 0.64291 0.98261 0.0
C2606 C 0.16176 0.60484 0.99263 0.0
H2607 H 0.15742 0.51478 0.91781 0.0
H2608 H 0.14748 0.55386 0.92878 0.0
H2609 H 0.18036 0.57334 0.99388 0.0
H2610 H 0.13568 0.67314 0.03736 0.0
H2611 H 0.16089 0.64761 0.0158 0.0
H2612 H 0.13943 0.62894 0.94421 0.0
C2613 C 0.16364 0.5468 0.93462 0.0
C2614 C 0.17202 0.58564 0.98274 0.0
C2615 C 0.16925 0.52433 0.92848 0.0
C2616 C 0.12911 0.66492 0.02204 0.0
C2617 C 0.14354 0.65025 0.00973 0.0
C2618 C 0.14852 0.61702 0.95518 0.0
C2619 C 0.17794 0.55937 0.94942 0.0
C2620 C 0.17007 0.58153 0.95906 0.0
C2621 C 0.13544 0.63863 0.99019 0.0
C2622 C 0.14936 0.62044 0.97907 0.0
H2623 H 0.21998 0.51977 0.95731 0.0
H2624 H 0.21016 0.55894 0.96792 0.0
H2625 H 0.15722 0.59514 0.92694 0.0
H2626 H 0.0812 0.65998 0.9888 0.0
H2627 H 0.10605 0.63407 0.96781 0.0
C2628 C 0.36416 0.32248 0.50229 0.0
C2629 C 0.36499 0.32214 0.52633 0.0
C2630 C 0.34713 0.33486 0.49092 0.0
C2631 C 0.29433 0.37076 0.50042 0.0
H2632 H 0.31962 0.40508 0.44932 0.0
C2633 C 0.27324 0.464 0.47801 0.0
C2634 C 0.27201 0.47046 0.45489 0.0
C2635 C 0.27763 0.44126 0.48396 0.0
C2636 C 0.31204 0.39529 0.4632 0.0
H2637 H 0.3482 0.33341 0.55748 0.0
H2638 H 0.31919 0.35613 0.53782 0.0
H2639 H 0.34101 0.37321 0.46509 0.0
H2640 H 0.27348 0.4586 0.41976 0.0
H2641 H 0.28188 0.41859 0.43014 0.0
H2642 H 0.26622 0.39451 0.49949 0.0
C2643 C 0.33109 0.34627 0.52753 0.0
C2644 C 0.3243 0.37688 0.47229 0.0
C2645 C 0.34782 0.33336 0.53888 0.0
C2646 C 0.27412 0.45378 0.43771 0.0
C2647 C 0.27898 0.43103 0.44364 0.0
C2648 C 0.28225 0.3895 0.49154 0.0
C2649 C 0.33096 0.34778 0.50337 0.0
C2650 C 0.31596 0.36475 0.49147 0.0
C2651 C 0.2814 0.42473 0.46682 0.0
C2652 C 0.29133 0.40229 0.47324 0.0
H2653 H 0.3771 0.31364 0.49227 0.0
H2654 H 0.3472 0.33495 0.47234 0.0
H2655 H 0.28707 0.36153 0.51482 0.0
H2656 H 0.27185 0.47678 0.49146 0.0
H2657 H 0.27973 0.43696 0.50192 0.0
C2658 C 0.86706 0.15126 0.47028 0.0
C2659 C 0.88222 0.16551 0.48233 0.0
C2660 C 0.85558 0.13355 0.48163 0.0
C2661 C 0.82824 0.09972 0.50959 0.0
H2662 H 0.86472 0.0685 0.55558 0.0
C2663 C 0.79796 0.0144 0.54864 0.0
C2664 C 0.81483 -0.00245 0.55197 0.0
C2665 C 0.80416 0.03703 0.54393 0.0
C2666 C 0.85435 0.07688 0.54266 0.0
H2667 H 0.89588 0.17386 0.51586 0.0
H2668 H 0.87493 0.14379 0.53596 0.0
H2669 H 0.87829 0.10432 0.53954 0.0
H2670 H 0.85139 0.99114 0.55355 0.0
H2671 H 0.86233 0.03032 0.54427 0.0
H2672 H 0.80525 0.07132 0.51137 0.0
C2673 C 0.87261 0.14549 0.5176 0.0
C2674 C 0.86193 0.09775 0.53372 0.0
C2675 C 0.88446 0.16286 0.50616 0.0
C2676 C 0.83803 0.00383 0.55113 0.0
C2677 C 0.84426 0.02637 0.54596 0.0
C2678 C 0.82087 0.07863 0.51822 0.0
C2679 C 0.85869 0.13005 0.50535 0.0
C2680 C 0.84919 0.10926 0.51675 0.0
C2681 C 0.8274 0.04322 0.54199 0.0
C2682 C 0.83406 0.06672 0.53456 0.0
H2683 H 0.86517 0.15287 0.45186 0.0
H2684 H 0.84528 0.1219 0.4715 0.0
H2685 H 0.81772 0.10826 0.49689 0.0
H2686 H 0.77991 0.01005 0.54956 0.0
H2687 H 0.7907 0.04959 0.54156 0.0
loop_
_geom_bond_atom_site_label_1
_geom_bond_atom_site_label_2
_geom_bond_distance
_geom_bond_site_symmetry_2
_ccdc_geom_bond_type
Fe0 O2 1.918 . S
Fe0 O5 1.997 . S
Fe0 O6 2.002 . S
Fe0 O11 1.976 . S
Fe0 O14 1.996 . S
Fe1 O2 1.918 . S
Fe1 O9 1.997 . S
Fe1 O12 1.996 . S
Fe1 O16 1.976 . S
Fe1 O19 2.002 . S
O2 Fe0 1.918 . S
O2 Fe1 1.918 . S
O2 Fe3 1.918 . S
Fe3 O2 1.918 . S
Fe3 O4 2.002 . S
Fe3 O13 1.976 . S
Fe3 O17 1.996 . S
Fe3 O20 1.997 . S
O4 Fe3 2.002 . S
O4 C21 1.295 . S
O5 Fe0 1.997 . S
O5 C21 1.235 . S
O6 Fe0 2.002 . S
O6 C7 1.295 . S
C7 O6 1.295 . S
C7 O9 1.235 . S
C8 O13 1.287 1_655 S
C8 O14 1.255 1_655 S
O9 Fe1 1.997 . S
O9 C7 1.235 . S
C10 O16 1.287 . S
C10 O17 1.255 . S
O11 Fe0 1.976 . S
O11 C18 1.287 . S
O12 Fe1 1.996 . S
O12 C18 1.255 . S
O13 Fe3 1.976 . S
O13 C8 1.287 1_455 S
O14 Fe0 1.996 . S
O14 C8 1.255 1_455 S
C15 O19 1.295 . S
C15 O20 1.235 . S
O16 Fe1 1.976 . S
O16 C10 1.287 . S
O17 Fe3 1.996 . S
O17 C10 1.255 . S
C18 O11 1.287 . S
C18 O12 1.255 . S
O19 Fe1 2.002 . S
O19 C15 1.295 . S
O20 Fe3 1.997 . S
O20 C15 1.235 . S
C21 O4 1.295 . S
C21 O5 1.235 . S
Fe22 O24 1.918 . S
Fe22 O27 1.997 . S
Fe22 O28 2.002 . S
Fe22 O33 1.976 . S
Fe22 O36 1.996 . S
Fe23 O24 1.918 . S
Fe23 O31 1.997 . S
Fe23 O34 1.996 . S
Fe23 O38 1.976 . S
Fe23 O41 2.002 . S
O24 Fe22 1.918 . S
O24 Fe23 1.918 . S
O24 Fe25 1.918 . S
Fe25 O24 1.918 . S
Fe25 O26 2.002 . S
Fe25 O35 1.976 . S
Fe25 O39 1.996 . S
Fe25 O42 1.997 . S
O26 Fe25 2.002 . S
O26 C43 1.295 . S
O27 Fe22 1.997 . S
O27 C43 1.235 . S
O28 Fe22 2.002 . S
O28 C29 1.295 . S
C29 O28 1.295 . S
C29 O31 1.235 . S
C30 O35 1.287 . S
C30 O36 1.255 . S
O31 Fe23 1.997 . S
O31 C29 1.235 . S
C32 O38 1.287 . S
C32 O39 1.255 . S
O33 Fe22 1.976 . S
O33 C40 1.287 . S
O34 Fe23 1.996 . S
O34 C40 1.255 . S
O35 Fe25 1.976 . S
O35 C30 1.287 . S
O36 Fe22 1.996 . S
O36 C30 1.255 . S
C37 O41 1.295 . S
C37 O42 1.235 . S
O38 Fe23 1.976 . S
O38 C32 1.287 . S
O39 Fe25 1.996 . S
O39 C32 1.255 . S
C40 O33 1.287 . S
C40 O34 1.255 . S
O41 Fe23 2.002 . S
O41 C37 1.295 . S
O42 Fe25 1.997 . S
O42 C37 1.235 . S
C43 O26 1.295 . S
C43 O27 1.235 . S
Fe44 O46 1.918 . S
Fe44 O49 1.997 . S
Fe44 O50 2.002 . S
Fe44 O55 1.976 . S
Fe44 O58 1.996 . S
Fe45 O46 1.918 . S
Fe45 O53 1.997 . S
Fe45 O56 1.996 . S
Fe45 O60 1.976 . S
Fe45 O63 2.002 . S
O46 Fe44 1.918 . S
O46 Fe45 1.918 . S
O46 Fe47 1.918 . S
Fe47 O46 1.918 . S
Fe47 O48 2.002 . S
Fe47 O57 1.976 . S
Fe47 O61 1.996 . S
Fe47 O64 1.997 . S
O48 Fe47 2.002 . S
O48 C65 1.295 . S
O49 Fe44 1.997 . S
O49 C65 1.235 . S
O50 Fe44 2.002 . S
O50 C51 1.295 . S
C51 O50 1.295 . S
C51 O53 1.235 . S
C52 O57 1.287 . S
C52 O58 1.255 . S
O53 Fe45 1.997 . S
O53 C51 1.235 . S
C54 O60 1.287 . S
C54 O61 1.255 . S
O55 Fe44 1.976 . S
O55 C62 1.287 . S
O56 Fe45 1.996 . S
O56 C62 1.255 . S
O57 Fe47 1.976 . S
O57 C52 1.287 . S
O58 Fe44 1.996 . S
O58 C52 1.255 . S
C59 O63 1.295 . S
C59 O64 1.235 . S
O60 Fe45 1.976 . S
O60 C54 1.287 . S
O61 Fe47 1.996 . S
O61 C54 1.255 . S
C62 O55 1.287 . S
C62 O56 1.255 . S
O63 Fe45 2.002 . S
O63 C59 1.295 . S
O64 Fe47 1.997 . S
O64 C59 1.235 . S
C65 O48 1.295 . S
C65 O49 1.235 . S
Fe66 O68 1.918 . S
Fe66 O71 1.997 . S
Fe66 O72 2.002 . S
Fe66 O77 1.976 . S
Fe66 O80 1.996 . S
Fe67 O68 1.918 . S
Fe67 O75 1.997 . S
Fe67 O78 1.996 . S
Fe67 O82 1.976 . S
Fe67 O85 2.002 . S
O68 Fe66 1.918 . S
O68 Fe67 1.918 . S
O68 Fe69 1.918 . S
Fe69 O68 1.918 . S
Fe69 O70 2.002 . S
Fe69 O79 1.976 . S
Fe69 O83 1.996 . S
Fe69 O86 1.997 . S
O70 Fe69 2.002 . S
O70 C87 1.295 . S
O71 Fe66 1.997 . S
O71 C87 1.235 . S
O72 Fe66 2.002 . S
O72 C73 1.295 . S
C73 O72 1.295 . S
C73 O75 1.235 . S
C74 O79 1.287 . S
C74 O80 1.255 . S
O75 Fe67 1.997 . S
O75 C73 1.235 . S
C76 O82 1.287 . S
C76 O83 1.255 . S
O77 Fe66 1.976 . S
O77 C84 1.287 1_655 S
O78 Fe67 1.996 . S
O78 C84 1.255 1_655 S
O79 Fe69 1.976 . S
O79 C74 1.287 . S
O80 Fe66 1.996 . S
O80 C74 1.255 . S
C81 O85 1.295 . S
C81 O86 1.235 . S
O82 Fe67 1.976 . S
O82 C76 1.287 . S
O83 Fe69 1.996 . S
O83 C76 1.255 . S
C84 O77 1.287 1_455 S
C84 O78 1.255 1_455 S
O85 Fe67 2.002 . S
O85 C81 1.295 . S
O86 Fe69 1.997 . S
O86 C81 1.235 . S
C87 O70 1.295 . S
C87 O71 1.235 . S
Fe88 O90 1.918 . S
Fe88 O93 1.997 . S
Fe88 O94 2.002 . S
Fe88 O99 1.976 . S
Fe88 O102 1.996 . S
Fe89 O90 1.918 . S
Fe89 O97 1.997 . S
Fe89 O100 1.996 . S
Fe89 O104 1.976 . S
Fe89 O107 2.002 . S
O90 Fe88 1.918 . S
O90 Fe89 1.918 . S
O90 Fe91 1.918 . S
Fe91 O90 1.918 . S
Fe91 O92 2.002 . S
Fe91 O101 1.976 . S
Fe91 O105 1.996 . S
Fe91 O108 1.997 . S
O92 Fe91 2.002 . S
O92 C109 1.295 . S
O93 Fe88 1.997 . S
O93 C109 1.235 . S
O94 Fe88 2.002 . S
O94 C95 1.295 . S
C95 O94 1.295 . S
C95 O97 1.235 . S
C96 O101 1.287 . S
C96 O102 1.255 . S
O97 Fe89 1.997 . S
O97 C95 1.235 . S
C98 O104 1.287 1_565 S
C98 O105 1.255 1_565 S
O99 Fe88 1.976 . S
O99 C106 1.287 . S
O100 Fe89 1.996 . S
O100 C106 1.255 . S
O101 Fe91 1.976 . S
O101 C96 1.287 . S
O102 Fe88 1.996 . S
O102 C96 1.255 . S
C103 O107 1.295 . S
C103 O108 1.235 . S
O104 Fe89 1.976 . S
O104 C98 1.287 1_545 S
O105 Fe91 1.996 . S
O105 C98 1.255 1_545 S
C106 O99 1.287 . S
C106 O100 1.255 . S
O107 Fe89 2.002 . S
O107 C103 1.295 . S
O108 Fe91 1.997 . S
O108 C103 1.235 . S
C109 O92 1.295 . S
C109 O93 1.235 . S
Fe110 O112 1.918 . S
Fe110 O115 1.997 . S
Fe110 O116 2.002 . S
Fe110 O121 1.976 . S
Fe110 O124 1.996 . S
Fe111 O112 1.918 . S
Fe111 O119 1.997 . S
Fe111 O122 1.996 . S
Fe111 O126 1.976 . S
Fe111 O129 2.002 . S
O112 Fe110 1.918 . S
O112 Fe111 1.918 . S
O112 Fe113 1.918 . S
Fe113 O112 1.918 . S
Fe113 O114 2.002 . S
Fe113 O123 1.976 . S
Fe113 O127 1.996 . S
Fe113 O130 1.997 . S
O114 Fe113 2.002 . S
O114 C131 1.295 . S
O115 Fe110 1.997 . S
O115 C131 1.235 . S
O116 Fe110 2.002 . S
O116 C117 1.295 . S
C117 O116 1.295 . S
C117 O119 1.235 . S
C118 O123 1.287 . S
C118 O124 1.255 . S
O119 Fe111 1.997 . S
O119 C117 1.235 . S
C120 O126 1.287 . S
C120 O127 1.255 . S
O121 Fe110 1.976 . S
O121 C128 1.287 1_565 S
O122 Fe111 1.996 . S
O122 C128 1.255 1_565 S
O123 Fe113 1.976 . S
O123 C118 1.287 . S
O124 Fe110 1.996 . S
O124 C118 1.255 . S
C125 O129 1.295 . S
C125 O130 1.235 . S
O126 Fe111 1.976 . S
O126 C120 1.287 . S
O127 Fe113 1.996 . S
O127 C120 1.255 . S
C128 O121 1.287 1_545 S
C128 O122 1.255 1_545 S
O129 Fe111 2.002 . S
O129 C125 1.295 . S
O130 Fe113 1.997 . S
O130 C125 1.235 . S
C131 O114 1.295 . S
C131 O115 1.235 . S
Fe132 O134 1.918 . S
Fe132 O137 1.997 . S
Fe132 O138 2.002 . S
Fe132 O143 1.976 . S
Fe132 O146 1.996 . S
Fe133 O134 1.918 . S
Fe133 O141 1.997 . S
Fe133 O144 1.996 . S
Fe133 O148 1.976 . S
Fe133 O151 2.002 . S
O134 Fe132 1.918 . S
O134 Fe133 1.918 . S
O134 Fe135 1.918 . S
Fe135 O134 1.918 . S
Fe135 O136 2.002 . S
Fe135 O145 1.976 . S
Fe135 O149 1.996 . S
Fe135 O152 1.997 . S
O136 Fe135 2.002 . S
O136 C153 1.295 . S
O137 Fe132 1.997 . S
O137 C153 1.235 . S
O138 Fe132 2.002 . S
O138 C139 1.295 . S
C139 O138 1.295 . S
C139 O141 1.235 . S
C140 O145 1.287 . S
C140 O146 1.255 . S
O141 Fe133 1.997 . S
O141 C139 1.235 . S
C142 O148 1.287 . S
C142 O149 1.255 . S
O143 Fe132 1.976 . S
O143 C150 1.287 . S
O144 Fe133 1.996 . S
O144 C150 1.255 . S
O145 Fe135 1.976 . S
O145 C140 1.287 . S
O146 Fe132 1.996 . S
O146 C140 1.255 . S
C147 O151 1.295 . S
C147 O152 1.235 . S
O148 Fe133 1.976 . S
O148 C142 1.287 . S
O149 Fe135 1.996 . S
O149 C142 1.255 . S
C150 O143 1.287 . S
C150 O144 1.255 . S
O151 Fe133 2.002 . S
O151 C147 1.295 . S
O152 Fe135 1.997 . S
O152 C147 1.235 . S
C153 O136 1.295 . S
C153 O137 1.235 . S
Fe154 O156 1.918 . S
Fe154 O159 1.997 . S
Fe154 O160 2.002 . S
Fe154 O165 1.976 . S
Fe154 O168 1.996 . S
Fe155 O156 1.918 . S
Fe155 O163 1.997 . S
Fe155 O166 1.996 . S
Fe155 O170 1.976 . S
Fe155 O173 2.002 . S
O156 Fe154 1.918 . S
O156 Fe155 1.918 . S
O156 Fe157 1.918 . S
Fe157 O156 1.918 . S
Fe157 O158 2.002 . S
Fe157 O167 1.976 . S
Fe157 O171 1.996 . S
Fe157 O174 1.997 . S
O158 Fe157 2.002 . S
O158 C175 1.295 . S
O159 Fe154 1.997 . S
O159 C175 1.235 . S
O160 Fe154 2.002 . S
O160 C161 1.295 . S
C161 O160 1.295 . S
C161 O163 1.235 . S
C162 O167 1.287 . S
C162 O168 1.255 . S
O163 Fe155 1.997 . S
O163 C161 1.235 . S
C164 O170 1.287 . S
C164 O171 1.255 . S
O165 Fe154 1.976 . S
O165 C172 1.287 . S
O166 Fe155 1.996 . S
O166 C172 1.255 . S
O167 Fe157 1.976 . S
O167 C162 1.287 . S
O168 Fe154 1.996 . S
O168 C162 1.255 . S
C169 O173 1.295 . S
C169 O174 1.235 . S
O170 Fe155 1.976 . S
O170 C164 1.287 . S
O171 Fe157 1.996 . S
O171 C164 1.255 . S
C172 O165 1.287 . S
C172 O166 1.255 . S
O173 Fe155 2.002 . S
O173 C169 1.295 . S
O174 Fe157 1.997 . S
O174 C169 1.235 . S
C175 O158 1.295 . S
C175 O159 1.235 . S
Fe176 O178 1.918 . S
Fe176 O181 1.997 . S
Fe176 O182 2.002 . S
Fe176 O187 1.976 . S
Fe176 O190 1.996 . S
Fe177 O178 1.918 . S
Fe177 O185 1.997 . S
Fe177 O188 1.996 . S
Fe177 O192 1.976 . S
Fe177 O195 2.002 . S
O178 Fe176 1.918 . S
O178 Fe177 1.918 . S
O178 Fe179 1.918 . S
Fe179 O178 1.918 . S
Fe179 O180 2.002 . S
Fe179 O189 1.976 . S
Fe179 O193 1.996 . S
Fe179 O196 1.997 . S
O180 Fe179 2.002 . S
O180 C197 1.295 . S
O181 Fe176 1.997 . S
O181 C197 1.235 . S
O182 Fe176 2.002 . S
O182 C183 1.295 . S
C183 O182 1.295 . S
C183 O185 1.235 . S
C184 O189 1.287 . S
C184 O190 1.255 . S
O185 Fe177 1.997 . S
O185 C183 1.235 . S
C186 O192 1.287 1_556 S
C186 O193 1.255 1_556 S
O187 Fe176 1.976 . S
O187 C194 1.287 . S
O188 Fe177 1.996 . S
O188 C194 1.255 . S
O189 Fe179 1.976 . S
O189 C184 1.287 . S
O190 Fe176 1.996 . S
O190 C184 1.255 . S
C191 O195 1.295 . S
C191 O196 1.235 . S
O192 Fe177 1.976 . S
O192 C186 1.287 1_554 S
O193 Fe179 1.996 . S
O193 C186 1.255 1_554 S
C194 O187 1.287 . S
C194 O188 1.255 . S
O195 Fe177 2.002 . S
O195 C191 1.295 . S
O196 Fe179 1.997 . S
O196 C191 1.235 . S
C197 O180 1.295 . S
C197 O181 1.235 . S
Fe198 O200 1.918 . S
Fe198 O203 1.997 . S
Fe198 O204 2.002 . S
Fe198 O209 1.976 . S
Fe198 O212 1.996 . S
Fe199 O200 1.918 . S
Fe199 O207 1.997 . S
Fe199 O210 1.996 . S
Fe199 O214 1.976 . S
Fe199 O217 2.002 . S
O200 Fe198 1.918 . S
O200 Fe199 1.918 . S
O200 Fe201 1.918 . S
Fe201 O200 1.918 . S
Fe201 O202 2.002 . S
Fe201 O211 1.976 . S
Fe201 O215 1.996 . S
Fe201 O218 1.997 . S
O202 Fe201 2.002 . S
O202 C219 1.295 . S
O203 Fe198 1.997 . S
O203 C219 1.235 . S
O204 Fe198 2.002 . S
O204 C205 1.295 . S
C205 O204 1.295 . S
C205 O207 1.235 . S
C206 O211 1.287 1_554 S
C206 O212 1.255 1_554 S
O207 Fe199 1.997 . S
O207 C205 1.235 . S
C208 O214 1.287 . S
C208 O215 1.255 . S
O209 Fe198 1.976 . S
O209 C216 1.287 . S
O210 Fe199 1.996 . S
O210 C216 1.255 . S
O211 Fe201 1.976 . S
O211 C206 1.287 1_556 S
O212 Fe198 1.996 . S
O212 C206 1.255 1_556 S
C213 O217 1.295 . S
C213 O218 1.235 . S
O214 Fe199 1.976 . S
O214 C208 1.287 . S
O215 Fe201 1.996 . S
O215 C208 1.255 . S
C216 O209 1.287 . S
C216 O210 1.255 . S
O217 Fe199 2.002 . S
O217 C213 1.295 . S
O218 Fe201 1.997 . S
O218 C213 1.235 . S
C219 O202 1.295 . S
C219 O203 1.235 . S
Fe220 O222 1.918 . S
Fe220 O225 1.997 . S
Fe220 O226 2.002 . S
Fe220 O231 1.976 . S
Fe220 O234 1.996 . S
Fe221 O222 1.918 . S
Fe221 O229 1.997 . S
Fe221 O232 1.996 . S
Fe221 O236 1.976 . S
Fe221 O239 2.002 . S
O222 Fe220 1.918 . S
O222 Fe221 1.918 . S
O222 Fe223 1.918 . S
Fe223 O222 1.918 . S
Fe223 O224 2.002 . S
Fe223 O233 1.976 . S
Fe223 O237 1.996 . S
Fe223 O240 1.997 . S
O224 Fe223 2.002 . S
O224 C241 1.295 . S
O225 Fe220 1.997 . S
O225 C241 1.235 . S
O226 Fe220 2.002 . S
O226 C227 1.295 . S
C227 O226 1.295 . S
C227 O229 1.235 . S
C228 O233 1.287 . S
C228 O234 1.255 . S
O229 Fe221 1.997 . S
O229 C227 1.235 . S
C230 O236 1.287 . S
C230 O237 1.255 . S
O231 Fe220 1.976 . S
O231 C238 1.287 . S
O232 Fe221 1.996 . S
O232 C238 1.255 . S
O233 Fe223 1.976 . S
O233 C228 1.287 . S
O234 Fe220 1.996 . S
O234 C228 1.255 . S
C235 O239 1.295 . S
C235 O240 1.235 . S
O236 Fe221 1.976 . S
O236 C230 1.287 . S
O237 Fe223 1.996 . S
O237 C230 1.255 . S
C238 O231 1.287 . S
C238 O232 1.255 . S
O239 Fe221 2.002 . S
O239 C235 1.295 . S
O240 Fe223 1.997 . S
O240 C235 1.235 . S
C241 O224 1.295 . S
C241 O225 1.235 . S
Fe242 O244 1.918 . S
Fe242 O247 1.997 . S
Fe242 O248 2.002 . S
Fe242 O253 1.976 . S
Fe242 O256 1.996 . S
Fe243 O244 1.918 . S
Fe243 O251 1.997 . S
Fe243 O254 1.996 . S
Fe243 O258 1.976 . S
Fe243 O261 2.002 . S
O244 Fe242 1.918 . S
O244 Fe243 1.918 . S
O244 Fe245 1.918 . S
Fe245 O244 1.918 . S
Fe245 O246 2.002 . S
Fe245 O255 1.976 . S
Fe245 O259 1.996 . S
Fe245 O262 1.997 . S
O246 Fe245 2.002 . S
O246 C263 1.295 . S
O247 Fe242 1.997 . S
O247 C263 1.235 . S
O248 Fe242 2.002 . S
O248 C249 1.295 . S
C249 O248 1.295 . S
C249 O251 1.235 . S
C250 O255 1.287 . S
C250 O256 1.255 . S
O251 Fe243 1.997 . S
O251 C249 1.235 . S
C252 O258 1.287 . S
C252 O259 1.255 . S
O253 Fe242 1.976 . S
O253 C260 1.287 . S
O254 Fe243 1.996 . S
O254 C260 1.255 . S
O255 Fe245 1.976 . S
O255 C250 1.287 . S
O256 Fe242 1.996 . S
O256 C250 1.255 . S
C257 O261 1.295 . S
C257 O262 1.235 . S
O258 Fe243 1.976 . S
O258 C252 1.287 . S
O259 Fe245 1.996 . S
O259 C252 1.255 . S
C260 O253 1.287 . S
C260 O254 1.255 . S
O261 Fe243 2.002 . S
O261 C257 1.295 . S
O262 Fe245 1.997 . S
O262 C257 1.235 . S
C263 O246 1.295 . S
C263 O247 1.235 . S
Fe264 O266 1.918 . S
Fe264 O269 1.997 . S
Fe264 O270 2.002 . S
Fe264 O275 1.976 . S
Fe264 O278 1.996 . S
Fe265 O266 1.918 . S
Fe265 O273 1.997 . S
Fe265 O276 1.996 . S
Fe265 O280 1.976 . S
Fe265 O283 2.002 . S
O266 Fe264 1.918 . S
O266 Fe265 1.918 . S
O266 Fe267 1.918 . S
Fe267 O266 1.918 . S
Fe267 O268 2.002 . S
Fe267 O277 1.976 . S
Fe267 O281 1.996 . S
Fe267 O284 1.997 . S
O268 Fe267 2.002 . S
O268 C285 1.295 . S
O269 Fe264 1.997 . S
O269 C285 1.235 . S
O270 Fe264 2.002 . S
O270 C271 1.295 . S
C271 O270 1.295 . S
C271 O273 1.235 . S
C272 O277 1.287 . S
C272 O278 1.255 . S
O273 Fe265 1.997 . S
O273 C271 1.235 . S
C274 O280 1.287 1_455 S
C274 O281 1.255 1_455 S
O275 Fe264 1.976 . S
O275 C282 1.287 . S
O276 Fe265 1.996 . S
O276 C282 1.255 . S
O277 Fe267 1.976 . S
O277 C272 1.287 . S
O278 Fe264 1.996 . S
O278 C272 1.255 . S
C279 O283 1.295 . S
C279 O284 1.235 . S
O280 Fe265 1.976 . S
O280 C274 1.287 1_655 S
O281 Fe267 1.996 . S
O281 C274 1.255 1_655 S
C282 O275 1.287 . S
C282 O276 1.255 . S
O283 Fe265 2.002 . S
O283 C279 1.295 . S
O284 Fe267 1.997 . S
O284 C279 1.235 . S
C285 O268 1.295 . S
C285 O269 1.235 . S
Fe286 O288 1.918 . S
Fe286 O291 1.997 . S
Fe286 O292 2.002 . S
Fe286 O297 1.976 . S
Fe286 O300 1.996 . S
Fe287 O288 1.918 . S
Fe287 O295 1.997 . S
Fe287 O298 1.996 . S
Fe287 O302 1.976 . S
Fe287 O305 2.002 . S
O288 Fe286 1.918 . S
O288 Fe287 1.918 . S
O288 Fe289 1.918 . S
Fe289 O288 1.918 . S
Fe289 O290 2.002 . S
Fe289 O299 1.976 . S
Fe289 O303 1.996 . S
Fe289 O306 1.997 . S
O290 Fe289 2.002 . S
O290 C307 1.295 . S
O291 Fe286 1.997 . S
O291 C307 1.235 . S
O292 Fe286 2.002 . S
O292 C293 1.295 . S
C293 O292 1.295 . S
C293 O295 1.235 . S
C294 O299 1.287 . S
C294 O300 1.255 . S
O295 Fe287 1.997 . S
O295 C293 1.235 . S
C296 O302 1.287 . S
C296 O303 1.255 . S
O297 Fe286 1.976 . S
O297 C304 1.287 . S
O298 Fe287 1.996 . S
O298 C304 1.255 . S
O299 Fe289 1.976 . S
O299 C294 1.287 . S
O300 Fe286 1.996 . S
O300 C294 1.255 . S
C301 O305 1.295 . S
C301 O306 1.235 . S
O302 Fe287 1.976 . S
O302 C296 1.287 . S
O303 Fe289 1.996 . S
O303 C296 1.255 . S
C304 O297 1.287 . S
C304 O298 1.255 . S
O305 Fe287 2.002 . S
O305 C301 1.295 . S
O306 Fe289 1.997 . S
O306 C301 1.235 . S
C307 O290 1.295 . S
C307 O291 1.235 . S
Fe308 O310 1.918 . S
Fe308 O313 1.997 . S
Fe308 O314 2.002 . S
Fe308 O319 1.976 . S
Fe308 O322 1.996 . S
Fe309 O310 1.918 . S
Fe309 O317 1.997 . S
Fe309 O320 1.996 . S
Fe309 O324 1.976 . S
Fe309 O327 2.002 . S
O310 Fe308 1.918 . S
O310 Fe309 1.918 . S
O310 Fe311 1.918 . S
Fe311 O310 1.918 . S
Fe311 O312 2.002 . S
Fe311 O321 1.976 . S
Fe311 O325 1.996 . S
Fe311 O328 1.997 . S
O312 Fe311 2.002 . S
O312 C329 1.295 . S
O313 Fe308 1.997 . S
O313 C329 1.235 . S
O314 Fe308 2.002 . S
O314 C315 1.295 . S
C315 O314 1.295 . S
C315 O317 1.235 . S
C316 O321 1.287 . S
C316 O322 1.255 . S
O317 Fe309 1.997 . S
O317 C315 1.235 . S
C318 O324 1.287 . S
C318 O325 1.255 . S
O319 Fe308 1.976 . S
O319 C326 1.287 . S
O320 Fe309 1.996 . S
O320 C326 1.255 . S
O321 Fe311 1.976 . S
O321 C316 1.287 . S
O322 Fe308 1.996 . S
O322 C316 1.255 . S
C323 O327 1.295 . S
C323 O328 1.235 . S
O324 Fe309 1.976 . S
O324 C318 1.287 . S
O325 Fe311 1.996 . S
O325 C318 1.255 . S
C326 O319 1.287 . S
C326 O320 1.255 . S
O327 Fe309 2.002 . S
O327 C323 1.295 . S
O328 Fe311 1.997 . S
O328 C323 1.235 . S
C329 O312 1.295 . S
C329 O313 1.235 . S
Fe330 O332 1.918 . S
Fe330 O335 1.997 . S
Fe330 O336 2.002 . S
Fe330 O341 1.976 . S
Fe330 O344 1.996 . S
Fe331 O332 1.918 . S
Fe331 O339 1.997 . S
Fe331 O342 1.996 . S
Fe331 O346 1.976 . S
Fe331 O349 2.002 . S
O332 Fe330 1.918 . S
O332 Fe331 1.918 . S
O332 Fe333 1.918 . S
Fe333 O332 1.918 . S
Fe333 O334 2.002 . S
Fe333 O343 1.976 . S
Fe333 O347 1.996 . S
Fe333 O350 1.997 . S
O334 Fe333 2.002 . S
O334 C351 1.295 . S
O335 Fe330 1.997 . S
O335 C351 1.235 . S
O336 Fe330 2.002 . S
O336 C337 1.295 . S
C337 O336 1.295 . S
C337 O339 1.235 . S
C338 O343 1.287 . S
C338 O344 1.255 . S
O339 Fe331 1.997 . S
O339 C337 1.235 . S
C340 O346 1.287 1_655 S
C340 O347 1.255 1_655 S
O341 Fe330 1.976 . S
O341 C348 1.287 . S
O342 Fe331 1.996 . S
O342 C348 1.255 . S
O343 Fe333 1.976 . S
O343 C338 1.287 . S
O344 Fe330 1.996 . S
O344 C338 1.255 . S
C345 O349 1.295 . S
C345 O350 1.235 . S
O346 Fe331 1.976 . S
O346 C340 1.287 1_455 S
O347 Fe333 1.996 . S
O347 C340 1.255 1_455 S
C348 O341 1.287 . S
C348 O342 1.255 . S
O349 Fe331 2.002 . S
O349 C345 1.295 . S
O350 Fe333 1.997 . S
O350 C345 1.235 . S
C351 O334 1.295 . S
C351 O335 1.235 . S
Fe352 O354 1.918 . S
Fe352 O357 1.997 . S
Fe352 O358 2.002 . S
Fe352 O363 1.976 . S
Fe352 O366 1.996 . S
Fe353 O354 1.918 . S
Fe353 O361 1.997 . S
Fe353 O364 1.996 . S
Fe353 O368 1.976 . S
Fe353 O371 2.002 . S
O354 Fe352 1.918 . S
O354 Fe353 1.918 . S
O354 Fe355 1.918 . S
Fe355 O354 1.918 . S
Fe355 O356 2.002 . S
Fe355 O365 1.976 . S
Fe355 O369 1.996 . S
Fe355 O372 1.997 . S
O356 Fe355 2.002 . S
O356 C373 1.295 . S
O357 Fe352 1.997 . S
O357 C373 1.235 . S
O358 Fe352 2.002 . S
O358 C359 1.295 . S
C359 O358 1.295 . S
C359 O361 1.235 . S
C360 O365 1.287 . S
C360 O366 1.255 . S
O361 Fe353 1.997 . S
O361 C359 1.235 . S
C362 O368 1.287 1_545 S
C362 O369 1.255 1_545 S
O363 Fe352 1.976 . S
O363 C370 1.287 . S
O364 Fe353 1.996 . S
O364 C370 1.255 . S
O365 Fe355 1.976 . S
O365 C360 1.287 . S
O366 Fe352 1.996 . S
O366 C360 1.255 . S
C367 O371 1.295 . S
C367 O372 1.235 . S
O368 Fe353 1.976 . S
O368 C362 1.287 1_565 S
O369 Fe355 1.996 . S
O369 C362 1.255 1_565 S
C370 O363 1.287 . S
C370 O364 1.255 . S
O371 Fe353 2.002 . S
O371 C367 1.295 . S
O372 Fe355 1.997 . S
O372 C367 1.235 . S
C373 O356 1.295 . S
C373 O357 1.235 . S
Fe374 O376 1.918 . S
Fe374 O379 1.997 . S
Fe374 O380 2.002 . S
Fe374 O385 1.976 . S
Fe374 O388 1.996 . S
Fe375 O376 1.918 . S
Fe375 O383 1.997 . S
Fe375 O386 1.996 . S
Fe375 O390 1.976 . S
Fe375 O393 2.002 . S
O376 Fe374 1.918 . S
O376 Fe375 1.918 . S
O376 Fe377 1.918 . S
Fe377 O376 1.918 . S
Fe377 O378 2.002 . S
Fe377 O387 1.976 . S
Fe377 O391 1.996 . S
Fe377 O394 1.997 . S
O378 Fe377 2.002 . S
O378 C395 1.295 . S
O379 Fe374 1.997 . S
O379 C395 1.235 . S
O380 Fe374 2.002 . S
O380 C381 1.295 . S
C381 O380 1.295 . S
C381 O383 1.235 . S
C382 O387 1.287 1_565 S
C382 O388 1.255 1_565 S
O383 Fe375 1.997 . S
O383 C381 1.235 . S
C384 O390 1.287 . S
C384 O391 1.255 . S
O385 Fe374 1.976 . S
O385 C392 1.287 . S
O386 Fe375 1.996 . S
O386 C392 1.255 . S
O387 Fe377 1.976 . S
O387 C382 1.287 1_545 S
O388 Fe374 1.996 . S
O388 C382 1.255 1_545 S
C389 O393 1.295 . S
C389 O394 1.235 . S
O390 Fe375 1.976 . S
O390 C384 1.287 . S
O391 Fe377 1.996 . S
O391 C384 1.255 . S
C392 O385 1.287 . S
C392 O386 1.255 . S
O393 Fe375 2.002 . S
O393 C389 1.295 . S
O394 Fe377 1.997 . S
O394 C389 1.235 . S
C395 O378 1.295 . S
C395 O379 1.235 . S
Fe396 O398 1.918 . S
Fe396 O401 1.997 . S
Fe396 O402 2.002 . S
Fe396 O407 1.976 . S
Fe396 O410 1.996 . S
Fe397 O398 1.918 . S
Fe397 O405 1.997 . S
Fe397 O408 1.996 . S
Fe397 O412 1.976 . S
Fe397 O415 2.002 . S
O398 Fe396 1.918 . S
O398 Fe397 1.918 . S
O398 Fe399 1.918 . S
Fe399 O398 1.918 . S
Fe399 O400 2.002 . S
Fe399 O409 1.976 . S
Fe399 O413 1.996 . S
Fe399 O416 1.997 . S
O400 Fe399 2.002 . S
O400 C417 1.295 . S
O401 Fe396 1.997 . S
O401 C417 1.235 . S
O402 Fe396 2.002 . S
O402 C403 1.295 . S
C403 O402 1.295 . S
C403 O405 1.235 . S
C404 O409 1.287 . S
C404 O410 1.255 . S
O405 Fe397 1.997 . S
O405 C403 1.235 . S
C406 O412 1.287 . S
C406 O413 1.255 . S
O407 Fe396 1.976 . S
O407 C414 1.287 . S
O408 Fe397 1.996 . S
O408 C414 1.255 . S
O409 Fe399 1.976 . S
O409 C404 1.287 . S
O410 Fe396 1.996 . S
O410 C404 1.255 . S
C411 O415 1.295 . S
C411 O416 1.235 . S
O412 Fe397 1.976 . S
O412 C406 1.287 . S
O413 Fe399 1.996 . S
O413 C406 1.255 . S
C414 O407 1.287 . S
C414 O408 1.255 . S
O415 Fe397 2.002 . S
O415 C411 1.295 . S
O416 Fe399 1.997 . S
O416 C411 1.235 . S
C417 O400 1.295 . S
C417 O401 1.235 . S
Fe418 O420 1.918 . S
Fe418 O423 1.997 . S
Fe418 O424 2.002 . S
Fe418 O429 1.976 . S
Fe418 O432 1.996 . S
Fe419 O420 1.918 . S
Fe419 O427 1.997 . S
Fe419 O430 1.996 . S
Fe419 O434 1.976 . S
Fe419 O437 2.002 . S
O420 Fe418 1.918 . S
O420 Fe419 1.918 . S
O420 Fe421 1.918 . S
Fe421 O420 1.918 . S
Fe421 O422 2.002 . S
Fe421 O431 1.976 . S
Fe421 O435 1.996 . S
Fe421 O438 1.997 . S
O422 Fe421 2.002 . S
O422 C439 1.295 . S
O423 Fe418 1.997 . S
O423 C439 1.235 . S
O424 Fe418 2.002 . S
O424 C425 1.295 . S
C425 O424 1.295 . S
C425 O427 1.235 . S
C426 O431 1.287 . S
C426 O432 1.255 . S
O427 Fe419 1.997 . S
O427 C425 1.235 . S
C428 O434 1.287 . S
C428 O435 1.255 . S
O429 Fe418 1.976 . S
O429 C436 1.287 . S
O430 Fe419 1.996 . S
O430 C436 1.255 . S
O431 Fe421 1.976 . S
O431 C426 1.287 . S
O432 Fe418 1.996 . S
O432 C426 1.255 . S
C433 O437 1.295 . S
C433 O438 1.235 . S
O434 Fe419 1.976 . S
O434 C428 1.287 . S
O435 Fe421 1.996 . S
O435 C428 1.255 . S
C436 O429 1.287 . S
C436 O430 1.255 . S
O437 Fe419 2.002 . S
O437 C433 1.295 . S
O438 Fe421 1.997 . S
O438 C433 1.235 . S
C439 O422 1.295 . S
C439 O423 1.235 . S
Fe440 O442 1.918 . S
Fe440 O445 1.997 . S
Fe440 O446 2.002 . S
Fe440 O451 1.976 . S
Fe440 O454 1.996 . S
Fe441 O442 1.918 . S
Fe441 O449 1.997 . S
Fe441 O452 1.996 . S
Fe441 O456 1.976 . S
Fe441 O459 2.002 . S
O442 Fe440 1.918 . S
O442 Fe441 1.918 . S
O442 Fe443 1.918 . S
Fe443 O442 1.918 . S
Fe443 O444 2.002 . S
Fe443 O453 1.976 . S
Fe443 O457 1.996 . S
Fe443 O460 1.997 . S
O444 Fe443 2.002 . S
O444 C461 1.295 . S
O445 Fe440 1.997 . S
O445 C461 1.235 . S
O446 Fe440 2.002 . S
O446 C447 1.295 . S
C447 O446 1.295 . S
C447 O449 1.235 . S
C448 O453 1.287 . S
C448 O454 1.255 . S
O449 Fe441 1.997 . S
O449 C447 1.235 . S
C450 O456 1.287 1_554 S
C450 O457 1.255 1_554 S
O451 Fe440 1.976 . S
O451 C458 1.287 . S
O452 Fe441 1.996 . S
O452 C458 1.255 . S
O453 Fe443 1.976 . S
O453 C448 1.287 . S
O454 Fe440 1.996 . S
O454 C448 1.255 . S
C455 O459 1.295 . S
C455 O460 1.235 . S
O456 Fe441 1.976 . S
O456 C450 1.287 1_556 S
O457 Fe443 1.996 . S
O457 C450 1.255 1_556 S
C458 O451 1.287 . S
C458 O452 1.255 . S
O459 Fe441 2.002 . S
O459 C455 1.295 . S
O460 Fe443 1.997 . S
O460 C455 1.235 . S
C461 O444 1.295 . S
C461 O445 1.235 . S
Fe462 O464 1.918 . S
Fe462 O467 1.997 . S
Fe462 O468 2.002 . S
Fe462 O473 1.976 . S
Fe462 O476 1.996 . S
Fe463 O464 1.918 . S
Fe463 O471 1.997 . S
Fe463 O474 1.996 . S
Fe463 O478 1.976 . S
Fe463 O481 2.002 . S
O464 Fe462 1.918 . S
O464 Fe463 1.918 . S
O464 Fe465 1.918 . S
Fe465 O464 1.918 . S
Fe465 O466 2.002 . S
Fe465 O475 1.976 . S
Fe465 O479 1.996 . S
Fe465 O482 1.997 . S
O466 Fe465 2.002 . S
O466 C483 1.295 . S
O467 Fe462 1.997 . S
O467 C483 1.235 . S
O468 Fe462 2.002 . S
O468 C469 1.295 . S
C469 O468 1.295 . S
C469 O471 1.235 . S
C470 O475 1.287 1_556 S
C470 O476 1.255 1_556 S
O471 Fe463 1.997 . S
O471 C469 1.235 . S
C472 O478 1.287 . S
C472 O479 1.255 . S
O473 Fe462 1.976 . S
O473 C480 1.287 . S
O474 Fe463 1.996 . S
O474 C480 1.255 . S
O475 Fe465 1.976 . S
O475 C470 1.287 1_554 S
O476 Fe462 1.996 . S
O476 C470 1.255 1_554 S
C477 O481 1.295 . S
C477 O482 1.235 . S
O478 Fe463 1.976 . S
O478 C472 1.287 . S
O479 Fe465 1.996 . S
O479 C472 1.255 . S
C480 O473 1.287 . S
C480 O474 1.255 . S
O481 Fe463 2.002 . S
O481 C477 1.295 . S
O482 Fe465 1.997 . S
O482 C477 1.235 . S
C483 O466 1.295 . S
C483 O467 1.235 . S
Fe484 O486 1.918 . S
Fe484 O489 1.997 . S
Fe484 O490 2.002 . S
Fe484 O495 1.976 . S
Fe484 O498 1.996 . S
Fe485 O486 1.918 . S
Fe485 O493 1.997 . S
Fe485 O496 1.996 . S
Fe485 O500 1.976 . S
Fe485 O503 2.002 . S
O486 Fe484 1.918 . S
O486 Fe485 1.918 . S
O486 Fe487 1.918 . S
Fe487 O486 1.918 . S
Fe487 O488 2.002 . S
Fe487 O497 1.976 . S
Fe487 O501 1.996 . S
Fe487 O504 1.997 . S
O488 Fe487 2.002 . S
O488 C505 1.295 . S
O489 Fe484 1.997 . S
O489 C505 1.235 . S
O490 Fe484 2.002 . S
O490 C491 1.295 . S
C491 O490 1.295 . S
C491 O493 1.235 . S
C492 O497 1.287 . S
C492 O498 1.255 . S
O493 Fe485 1.997 . S
O493 C491 1.235 . S
C494 O500 1.287 . S
C494 O501 1.255 . S
O495 Fe484 1.976 . S
O495 C502 1.287 . S
O496 Fe485 1.996 . S
O496 C502 1.255 . S
O497 Fe487 1.976 . S
O497 C492 1.287 . S
O498 Fe484 1.996 . S
O498 C492 1.255 . S
C499 O503 1.295 . S
C499 O504 1.235 . S
O500 Fe485 1.976 . S
O500 C494 1.287 . S
O501 Fe487 1.996 . S
O501 C494 1.255 . S
C502 O495 1.287 . S
C502 O496 1.255 . S
O503 Fe485 2.002 . S
O503 C499 1.295 . S
O504 Fe487 1.997 . S
O504 C499 1.235 . S
C505 O488 1.295 . S
C505 O489 1.235 . S
Fe506 O508 1.918 . S
Fe506 O511 1.997 . S
Fe506 O512 2.002 . S
Fe506 O517 1.976 . S
Fe506 O520 1.996 . S
Fe507 O508 1.918 . S
Fe507 O515 1.997 . S
Fe507 O518 1.996 . S
Fe507 O522 1.976 . S
Fe507 O525 2.002 . S
O508 Fe506 1.918 . S
O508 Fe507 1.918 . S
O508 Fe509 1.918 . S
Fe509 O508 1.918 . S
Fe509 O510 2.002 . S
Fe509 O519 1.976 . S
Fe509 O523 1.996 . S
Fe509 O526 1.997 . S
O510 Fe509 2.002 . S
O510 C527 1.295 . S
O511 Fe506 1.997 . S
O511 C527 1.235 . S
O512 Fe506 2.002 . S
O512 C513 1.295 . S
C513 O512 1.295 . S
C513 O515 1.235 . S
C514 O519 1.287 . S
C514 O520 1.255 . S
O515 Fe507 1.997 . S
O515 C513 1.235 . S
C516 O522 1.287 . S
C516 O523 1.255 . S
O517 Fe506 1.976 . S
O517 C524 1.287 . S
O518 Fe507 1.996 . S
O518 C524 1.255 . S
O519 Fe509 1.976 . S
O519 C514 1.287 . S
O520 Fe506 1.996 . S
O520 C514 1.255 . S
C521 O525 1.295 . S
C521 O526 1.235 . S
O522 Fe507 1.976 . S
O522 C516 1.287 . S
O523 Fe509 1.996 . S
O523 C516 1.255 . S
C524 O517 1.287 . S
C524 O518 1.255 . S
O525 Fe507 2.002 . S
O525 C521 1.295 . S
O526 Fe509 1.997 . S
O526 C521 1.235 . S
C527 O510 1.295 . S
C527 O511 1.235 . S
C528 C529 1.349 . S
C528 C530 1.327 . S
C528 H553 0.950 . S
C529 C528 1.349 . S
C529 C545 1.349 . S
C530 C528 1.327 . S
C530 C549 1.429 . S
C530 H554 0.950 . S
C531 C548 1.574 . S
C531 C550 1.368 . S
C531 H555 0.949 . S
H532 C536 0.949 . S
C533 C534 1.349 . S
C533 C535 1.327 . S
C533 H556 0.950 . S
C534 C533 1.349 . S
C534 C546 1.349 . S
C535 C533 1.327 . S
C535 C551 1.429 . S
C535 H557 0.950 . S
C536 H532 0.949 . S
C536 C544 1.574 . S
C536 C552 1.368 . S
H537 C545 0.950 . S
H538 C543 0.950 . S
H539 C544 0.949 . S
H540 C546 0.950 . S
H541 C547 0.950 . S
H542 C548 0.949 . S
C543 H538 0.950 . S
C543 C545 1.327 . S
C543 C549 1.429 . S
C544 C536 1.574 . S
C544 H539 0.949 . S
C544 C550 1.368 . S
C545 C529 1.349 . S
C545 H537 0.950 . S
C545 C543 1.327 . S
C546 C534 1.349 . S
C546 H540 0.950 . S
C546 C547 1.327 . S
C547 H541 0.950 . S
C547 C546 1.327 . S
C547 C551 1.429 . S
C548 C531 1.574 . S
C548 H542 0.949 . S
C548 C552 1.368 . S
C549 C530 1.429 . S
C549 C543 1.429 . S
C549 C550 1.523 . S
C550 C531 1.368 . S
C550 C544 1.368 . S
C550 C549 1.523 . S
C551 C535 1.429 . S
C551 C547 1.429 . S
C551 C552 1.523 . S
C552 C536 1.368 . S
C552 C548 1.368 . S
C552 C551 1.523 . S
H553 C528 0.950 . S
H554 C530 0.950 . S
H555 C531 0.949 . S
H556 C533 0.950 . S
H557 C535 0.950 . S
C558 C559 1.349 . S
C558 C560 1.327 . S
C558 H583 0.950 . S
C559 C558 1.349 . S
C559 C575 1.349 . S
C560 C558 1.327 . S
C560 C579 1.429 . S
C560 H584 0.950 . S
C561 C578 1.574 . S
C561 C580 1.368 . S
C561 H585 0.949 . S
H562 C566 0.949 . S
C563 C564 1.349 . S
C563 C565 1.327 . S
C563 H586 0.950 . S
C564 C563 1.349 . S
C564 C576 1.349 . S
C565 C563 1.327 . S
C565 C581 1.429 . S
C565 H587 0.950 . S
C566 H562 0.949 . S
C566 C574 1.574 . S
C566 C582 1.368 . S
H567 C575 0.950 . S
H568 C573 0.950 . S
H569 C574 0.949 . S
H570 C576 0.950 . S
H571 C577 0.950 . S
H572 C578 0.949 . S
C573 H568 0.950 . S
C573 C575 1.327 . S
C573 C579 1.429 . S
C574 C566 1.574 . S
C574 H569 0.949 . S
C574 C580 1.368 . S
C575 C559 1.349 . S
C575 H567 0.950 . S
C575 C573 1.327 . S
C576 C564 1.349 . S
C576 H570 0.950 . S
C576 C577 1.327 . S
C577 H571 0.950 . S
C577 C576 1.327 . S
C577 C581 1.429 . S
C578 C561 1.574 . S
C578 H572 0.949 . S
C578 C582 1.368 . S
C579 C560 1.429 . S
C579 C573 1.429 . S
C579 C580 1.523 . S
C580 C561 1.368 . S
C580 C574 1.368 . S
C580 C579 1.523 . S
C581 C565 1.429 . S
C581 C577 1.429 . S
C581 C582 1.523 . S
C582 C566 1.368 . S
C582 C578 1.368 . S
C582 C581 1.523 . S
H583 C558 0.950 . S
H584 C560 0.950 . S
H585 C561 0.949 . S
H586 C563 0.950 . S
H587 C565 0.950 . S
C588 C589 1.349 . S
C588 C590 1.327 . S
C588 H613 0.950 . S
C589 C588 1.349 . S
C589 C605 1.349 . S
C590 C588 1.327 . S
C590 C609 1.429 . S
C590 H614 0.950 . S
C591 C608 1.568 1_545 S
C591 C610 1.382 . S
C591 H615 0.943 1_545 S
H592 C596 0.949 . S
C593 C594 1.349 . S
C593 C595 1.327 . S
C593 H616 0.950 . S
C594 C593 1.349 . S
C594 C606 1.349 . S
C595 C593 1.327 . S
C595 C611 1.429 . S
C595 H617 0.950 . S
C596 H592 0.949 . S
C596 C604 1.574 . S
C596 C612 1.368 . S
H597 C605 0.950 . S
H598 C603 0.950 . S
H599 C604 0.949 . S
H600 C606 0.950 1_545 S
H601 C607 0.950 . S
H602 C608 0.949 . S
C603 H598 0.950 . S
C603 C605 1.327 . S
C603 C609 1.429 . S
C604 C596 1.574 . S
C604 H599 0.949 . S
C604 C610 1.368 . S
C605 C589 1.349 . S
C605 H597 0.950 . S
C605 C603 1.327 . S
C606 C594 1.349 . S
C606 H600 0.950 1_565 S
C606 C607 1.327 1_565 S
C607 H601 0.950 . S
C607 C606 1.327 1_545 S
C607 C611 1.429 1_545 S
C608 C591 1.568 1_565 S
C608 H602 0.949 . S
C608 C612 1.368 1_565 S
C609 C590 1.429 . S
C609 C603 1.429 . S
C609 C610 1.523 . S
C610 C591 1.382 . S
C610 C604 1.368 . S
C610 C609 1.523 . S
C611 C595 1.429 . S
C611 C607 1.429 1_565 S
C611 C612 1.523 1_565 S
C612 C596 1.368 . S
C612 C608 1.368 1_545 S
C612 C611 1.523 1_545 S
H613 C588 0.950 . S
H614 C590 0.950 . S
H615 C591 0.943 1_565 S
H616 C593 0.950 . S
H617 C595 0.950 . S
C618 C619 1.349 . S
C618 C620 1.327 . S
C618 H643 0.950 . S
C619 C618 1.349 . S
C619 C635 1.349 . S
C620 C618 1.327 . S
C620 C639 1.429 . S
C620 H644 0.950 . S
C621 C638 1.574 . S
C621 C640 1.368 1_545 S
C621 H645 0.949 . S
H622 C626 0.949 . S
C623 C624 1.349 . S
C623 C625 1.327 . S
C623 H646 0.950 . S
C624 C623 1.349 . S
C624 C636 1.349 . S
C625 C623 1.327 . S
C625 C641 1.429 . S
C625 H647 0.950 . S
C626 H622 0.949 . S
C626 C634 1.574 . S
C626 C642 1.368 . S
H627 C635 0.950 . S
H628 C633 0.950 . S
H629 C634 0.949 . S
H630 C636 0.950 1_565 S
H631 C637 0.950 . S
H632 C638 0.949 . S
C633 H628 0.950 . S
C633 C635 1.327 . S
C633 C639 1.429 . S
C634 C626 1.574 . S
C634 H629 0.949 . S
C634 C640 1.368 . S
C635 C619 1.349 . S
C635 H627 0.950 . S
C635 C633 1.327 . S
C636 C624 1.349 . S
C636 H630 0.950 1_545 S
C636 C637 1.327 1_545 S
C637 H631 0.950 . S
C637 C636 1.327 1_565 S
C637 C641 1.429 1_565 S
C638 C621 1.574 . S
C638 H632 0.949 . S
C638 C642 1.368 1_545 S
C639 C620 1.429 . S
C639 C633 1.429 . S
C639 C640 1.523 . S
C640 C621 1.368 1_565 S
C640 C634 1.368 . S
C640 C639 1.523 . S
C641 C625 1.429 . S
C641 C637 1.429 1_545 S
C641 C642 1.523 1_545 S
C642 C626 1.368 . S
C642 C638 1.368 1_565 S
C642 C641 1.523 1_565 S
H643 C618 0.950 . S
H644 C620 0.950 . S
H645 C621 0.949 . S
H646 C623 0.950 . S
H647 C625 0.950 . S
C648 C649 1.349 . S
C648 C650 1.327 . S
C648 H673 0.950 . S
C649 C648 1.349 . S
C649 C665 1.349 . S
C650 C648 1.327 . S
C650 C669 1.429 . S
C650 H674 0.950 . S
C651 C668 1.574 . S
C651 C670 1.368 . S
C651 H675 0.949 . S
H652 C656 0.949 . S
C653 C654 1.349 . S
C653 C655 1.327 . S
C653 H676 0.950 . S
C654 C653 1.349 . S
C654 C666 1.349 . S
C655 C653 1.327 . S
C655 C671 1.429 . S
C655 H677 0.950 . S
C656 H652 0.949 . S
C656 C664 1.574 . S
C656 C672 1.368 . S
H657 C665 0.950 . S
H658 C663 0.950 . S
H659 C664 0.949 . S
H660 C666 0.950 . S
H661 C667 0.950 . S
H662 C668 0.949 . S
C663 H658 0.950 . S
C663 C665 1.327 . S
C663 C669 1.429 . S
C664 C656 1.574 . S
C664 H659 0.949 . S
C664 C670 1.368 . S
C665 C649 1.349 . S
C665 H657 0.950 . S
C665 C663 1.327 . S
C666 C654 1.349 . S
C666 H660 0.950 . S
C666 C667 1.327 . S
C667 H661 0.950 . S
C667 C666 1.327 . S
C667 C671 1.429 . S
C668 C651 1.574 . S
C668 H662 0.949 . S
C668 C672 1.368 . S
C669 C650 1.429 . S
C669 C663 1.429 . S
C669 C670 1.523 . S
C670 C651 1.368 . S
C670 C664 1.368 . S
C670 C669 1.523 . S
C671 C655 1.429 . S
C671 C667 1.429 . S
C671 C672 1.523 . S
C672 C656 1.368 . S
C672 C668 1.368 . S
C672 C671 1.523 . S
H673 C648 0.950 . S
H674 C650 0.950 . S
H675 C651 0.949 . S
H676 C653 0.950 . S
H677 C655 0.950 . S
C678 C679 1.349 . S
C678 C680 1.327 . S
C678 H703 0.950 . S
C679 C678 1.349 . S
C679 C695 1.349 . S
C680 C678 1.327 . S
C680 C699 1.429 . S
C680 H704 0.950 . S
C681 C698 1.574 1_556 S
C681 C700 1.368 . S
C681 H705 0.949 . S
H682 C686 0.949 . S
C683 C684 1.349 . S
C683 C685 1.327 . S
C683 H706 0.950 . S
C684 C683 1.349 . S
C684 C696 1.349 . S
C685 C683 1.327 . S
C685 C701 1.429 . S
C685 H707 0.950 . S
C686 H682 0.949 . S
C686 C694 1.574 . S
C686 C702 1.368 . S
H687 C695 0.950 . S
H688 C693 0.950 . S
H689 C694 0.949 . S
H690 C696 0.950 . S
H691 C697 0.950 1_556 S
H692 C698 0.949 . S
C693 H688 0.950 . S
C693 C695 1.327 . S
C693 C699 1.429 . S
C694 C686 1.574 . S
C694 H689 0.949 . S
C694 C700 1.368 . S
C695 C679 1.349 . S
C695 H687 0.950 . S
C695 C693 1.327 . S
C696 C684 1.349 . S
C696 H690 0.950 . S
C696 C697 1.327 . S
C697 H691 0.950 1_554 S
C697 C696 1.327 . S
C697 C701 1.429 . S
C698 C681 1.574 1_554 S
C698 H692 0.949 . S
C698 C702 1.368 1_554 S
C699 C680 1.429 . S
C699 C693 1.429 . S
C699 C700 1.523 . S
C700 C681 1.368 . S
C700 C694 1.368 . S
C700 C699 1.523 . S
C701 C685 1.429 . S
C701 C697 1.429 . S
C701 C702 1.523 1_554 S
C702 C686 1.368 . S
C702 C698 1.368 1_556 S
C702 C701 1.523 1_556 S
H703 C678 0.950 . S
H704 C680 0.950 . S
H705 C681 0.949 . S
H706 C683 0.950 . S
H707 C685 0.950 . S
C708 C709 1.349 . S
C708 C710 1.327 . S
C708 H733 0.950 . S
C709 C708 1.349 . S
C709 C725 1.349 . S
C710 C708 1.327 . S
C710 C729 1.429 . S
C710 H734 0.950 . S
C711 C728 1.574 . S
C711 C730 1.368 . S
C711 H735 0.949 . S
H712 C716 0.949 . S
C713 C714 1.349 . S
C713 C715 1.327 . S
C713 H736 0.950 . S
C714 C713 1.349 . S
C714 C726 1.349 . S
C715 C713 1.327 . S
C715 C731 1.429 . S
C715 H737 0.950 . S
C716 H712 0.949 . S
C716 C724 1.574 . S
C716 C732 1.368 . S
H717 C725 0.950 . S
H718 C723 0.950 . S
H719 C724 0.949 . S
H720 C726 0.950 . S
H721 C727 0.950 . S
H722 C728 0.949 . S
C723 H718 0.950 . S
C723 C725 1.327 . S
C723 C729 1.429 . S
C724 C716 1.574 . S
C724 H719 0.949 . S
C724 C730 1.368 . S
C725 C709 1.349 . S
C725 H717 0.950 . S
C725 C723 1.327 . S
C726 C714 1.349 . S
C726 H720 0.950 . S
C726 C727 1.327 . S
C727 H721 0.950 . S
C727 C726 1.327 . S
C727 C731 1.429 . S
C728 C711 1.574 . S
C728 H722 0.949 . S
C728 C732 1.368 . S
C729 C710 1.429 . S
C729 C723 1.429 . S
C729 C730 1.523 . S
C730 C711 1.368 . S
C730 C724 1.368 . S
C730 C729 1.523 . S
C731 C715 1.429 . S
C731 C727 1.429 . S
C731 C732 1.523 . S
C732 C716 1.368 . S
C732 C728 1.368 . S
C732 C731 1.523 . S
H733 C708 0.950 . S
H734 C710 0.950 . S
H735 C711 0.949 . S
H736 C713 0.950 . S
H737 C715 0.950 . S
C738 C739 1.349 . S
C738 C740 1.327 . S
C738 H763 0.950 . S
C739 C738 1.349 . S
C739 C755 1.349 . S
C740 C738 1.327 . S
C740 C759 1.429 . S
C740 H764 0.950 . S
C741 C758 1.574 . S
C741 C760 1.368 1_556 S
C741 H765 0.949 . S
H742 C746 0.949 . S
C743 C744 1.349 . S
C743 C745 1.327 . S
C743 H766 0.950 . S
C744 C743 1.349 . S
C744 C756 1.349 . S
C745 C743 1.327 . S
C745 C761 1.429 . S
C745 H767 0.950 . S
C746 H742 0.949 . S
C746 C754 1.574 . S
C746 C762 1.368 . S
H747 C755 0.950 . S
H748 C753 0.918 1_556 S
H749 C754 0.949 . S
H750 C756 0.950 1_554 S
H751 C757 0.950 . S
H752 C758 0.949 . S
C753 H748 0.918 1_554 S
C753 C755 1.327 . S
C753 C759 1.429 . S
C754 C746 1.574 . S
C754 H749 0.949 . S
C754 C760 1.368 . S
C755 C739 1.349 . S
C755 H747 0.950 . S
C755 C753 1.327 . S
C756 C744 1.349 . S
C756 H750 0.950 1_556 S
C756 C757 1.327 1_556 S
C757 H751 0.950 . S
C757 C756 1.327 1_554 S
C757 C761 1.429 1_554 S
C758 C741 1.574 . S
C758 H752 0.949 . S
C758 C762 1.368 1_556 S
C759 C740 1.429 . S
C759 C753 1.429 . S
C759 C760 1.523 . S
C760 C741 1.368 1_554 S
C760 C754 1.368 . S
C760 C759 1.523 . S
C761 C745 1.429 . S
C761 C757 1.429 1_556 S
C761 C762 1.523 1_556 S
C762 C746 1.368 . S
C762 C758 1.368 1_554 S
C762 C761 1.523 1_554 S
H763 C738 0.950 . S
H764 C740 0.950 . S
H765 C741 0.949 . S
H766 C743 0.950 . S
H767 C745 0.950 . S
C768 C769 1.349 . S
C768 C770 1.327 . S
C768 H793 0.950 . S
C769 C768 1.349 . S
C769 C785 1.349 . S
C770 C768 1.327 . S
C770 C789 1.429 . S
C770 H794 0.950 . S
C771 C788 1.574 . S
C771 C790 1.368 . S
C771 H795 0.949 . S
H772 C776 0.949 . S
C773 C774 1.349 . S
C773 C775 1.327 . S
C773 H796 0.950 . S
C774 C773 1.349 . S
C774 C786 1.349 . S
C775 C773 1.327 . S
C775 C791 1.429 . S
C775 H797 0.950 . S
C776 H772 0.949 . S
C776 C784 1.574 . S
C776 C792 1.368 . S
H777 C785 0.950 . S
H778 C783 0.950 . S
H779 C784 0.949 . S
H780 C786 0.950 . S
H781 C787 0.950 . S
H782 C788 0.949 . S
C783 H778 0.950 . S
C783 C785 1.327 . S
C783 C789 1.429 . S
C784 C776 1.574 . S
C784 H779 0.949 . S
C784 C790 1.368 . S
C785 C769 1.349 . S
C785 H777 0.950 . S
C785 C783 1.327 . S
C786 C774 1.349 . S
C786 H780 0.950 . S
C786 C787 1.327 . S
C787 H781 0.950 . S
C787 C786 1.327 . S
C787 C791 1.429 . S
C788 C771 1.574 . S
C788 H782 0.949 . S
C788 C792 1.368 . S
C789 C770 1.429 . S
C789 C783 1.429 . S
C789 C790 1.523 . S
C790 C771 1.368 . S
C790 C784 1.368 . S
C790 C789 1.523 . S
C791 C775 1.429 . S
C791 C787 1.429 . S
C791 C792 1.523 . S
C792 C776 1.368 . S
C792 C788 1.368 . S
C792 C791 1.523 . S
H793 C768 0.950 . S
H794 C770 0.950 . S
H795 C771 0.949 . S
H796 C773 0.950 . S
H797 C775 0.950 . S
C798 C799 1.349 . S
C798 C800 1.327 . S
C798 H823 0.950 . S
C799 C798 1.349 . S
C799 C815 1.349 . S
C800 C798 1.327 . S
C800 C819 1.429 . S
C800 H824 0.950 . S
C801 C818 1.574 . S
C801 C820 1.368 1_455 S
C801 H825 0.949 . S
H802 C806 0.949 . S
C803 C804 1.349 . S
C803 C805 1.327 . S
C803 H826 0.950 . S
C804 C803 1.349 . S
C804 C816 1.349 . S
C805 C803 1.327 . S
C805 C821 1.429 . S
C805 H827 0.950 . S
C806 H802 0.949 . S
C806 C814 1.574 . S
C806 C822 1.368 . S
H807 C815 0.950 . S
H808 C813 0.972 . S
H809 C814 0.949 . S
H810 C816 0.950 1_655 S
H811 C817 0.950 . S
H812 C818 0.949 . S
C813 H808 0.972 . S
C813 C815 1.327 . S
C813 C819 1.429 . S
C814 C806 1.574 . S
C814 H809 0.949 . S
C814 C820 1.368 . S
C815 C799 1.349 . S
C815 H807 0.950 . S
C815 C813 1.327 . S
C816 C804 1.349 . S
C816 H810 0.950 1_455 S
C816 C817 1.327 1_455 S
C817 H811 0.950 . S
C817 C816 1.327 1_655 S
C817 C821 1.429 1_655 S
C818 C801 1.574 . S
C818 H812 0.949 . S
C818 C822 1.368 1_455 S
C819 C800 1.429 . S
C819 C813 1.429 . S
C819 C820 1.523 . S
C820 C801 1.368 1_655 S
C820 C814 1.368 . S
C820 C819 1.523 . S
C821 C805 1.429 . S
C821 C817 1.429 1_455 S
C821 C822 1.523 1_455 S
C822 C806 1.368 . S
C822 C818 1.368 1_655 S
C822 C821 1.523 1_655 S
H823 C798 0.950 . S
H824 C800 0.950 . S
H825 C801 0.949 . S
H826 C803 0.950 . S
H827 C805 0.950 . S
C828 C829 1.349 . S
C828 C830 1.327 . S
C828 H853 0.950 . S
C829 C828 1.349 . S
C829 C845 1.349 . S
C830 C828 1.327 . S
C830 C849 1.429 . S
C830 H854 0.950 . S
C831 C848 1.574 . S
C831 C850 1.368 . S
C831 H855 0.949 . S
H832 C836 0.949 . S
C833 C834 1.349 . S
C833 C835 1.327 . S
C833 H856 0.950 . S
C834 C833 1.349 . S
C834 C846 1.349 . S
C835 C833 1.327 . S
C835 C851 1.429 . S
C835 H857 0.950 . S
C836 H832 0.949 . S
C836 C844 1.574 . S
C836 C852 1.368 . S
H837 C845 0.950 . S
H838 C843 0.950 . S
H839 C844 0.949 . S
H840 C846 0.950 . S
H841 C847 0.950 . S
H842 C848 0.949 . S
C843 H838 0.950 . S
C843 C845 1.327 . S
C843 C849 1.429 . S
C844 C836 1.574 . S
C844 H839 0.949 . S
C844 C850 1.368 . S
C845 C829 1.349 . S
C845 H837 0.950 . S
C845 C843 1.327 . S
C846 C834 1.349 . S
C846 H840 0.950 . S
C846 C847 1.327 . S
C847 H841 0.950 . S
C847 C846 1.327 . S
C847 C851 1.429 . S
C848 C831 1.574 . S
C848 H842 0.949 . S
C848 C852 1.368 . S
C849 C830 1.429 . S
C849 C843 1.429 . S
C849 C850 1.523 . S
C850 C831 1.368 . S
C850 C844 1.368 . S
C850 C849 1.523 . S
C851 C835 1.429 . S
C851 C847 1.429 . S
C851 C852 1.523 . S
C852 C836 1.368 . S
C852 C848 1.368 . S
C852 C851 1.523 . S
H853 C828 0.950 . S
H854 C830 0.950 . S
H855 C831 0.949 . S
H856 C833 0.950 . S
H857 C835 0.950 . S
C858 C859 1.349 . S
C858 C860 1.327 . S
C858 H883 0.950 . S
C859 C858 1.349 . S
C859 C875 1.349 . S
C860 C858 1.327 . S
C860 C879 1.429 . S
C860 H884 0.950 . S
C861 C878 1.574 . S
C861 C880 1.368 1_655 S
C861 H885 0.949 . S
H862 C866 0.949 . S
C863 C864 1.349 . S
C863 C865 1.327 . S
C863 H886 0.950 . S
C864 C863 1.349 . S
C864 C876 1.394 . S
C865 C863 1.327 . S
C865 C881 1.429 . S
C865 H887 0.950 . S
C866 H862 0.949 . S
C866 C874 1.574 . S
C866 C882 1.368 . S
H867 C875 0.950 . S
H868 C873 0.950 1_655 S
H869 C874 0.949 . S
H870 C876 0.922 1_455 S
H871 C877 0.950 . S
H872 C878 0.949 . S
C873 H868 0.950 1_455 S
C873 C875 1.327 . S
C873 C879 1.429 . S
C874 C866 1.574 . S
C874 H869 0.949 . S
C874 C880 1.368 . S
C875 C859 1.349 . S
C875 H867 0.950 . S
C875 C873 1.327 . S
C876 C864 1.394 . S
C876 H870 0.922 1_655 S
C876 C877 1.310 1_655 S
C877 H871 0.950 . S
C877 C876 1.310 1_455 S
C877 C881 1.429 1_455 S
C878 C861 1.574 . S
C878 H872 0.949 . S
C878 C882 1.368 1_655 S
C879 C860 1.429 . S
C879 C873 1.429 . S
C879 C880 1.523 . S
C880 C861 1.368 1_455 S
C880 C874 1.368 . S
C880 C879 1.523 . S
C881 C865 1.429 . S
C881 C877 1.429 1_655 S
C881 C882 1.523 1_655 S
C882 C866 1.368 . S
C882 C878 1.368 1_455 S
C882 C881 1.523 1_455 S
H883 C858 0.950 . S
H884 C860 0.950 . S
H885 C861 0.949 . S
H886 C863 0.950 . S
H887 C865 0.950 . S
C888 C889 1.349 . S
C888 C890 1.327 . S
C888 H913 0.950 . S
C889 C888 1.349 . S
C889 C905 1.349 . S
C890 C888 1.327 . S
C890 C909 1.429 . S
C890 H914 0.950 . S
C891 C908 1.574 . S
C891 C910 1.368 . S
C891 H915 0.949 . S
H892 C896 0.949 . S
C893 C894 1.349 . S
C893 C895 1.327 . S
C893 H916 0.950 . S
C894 C893 1.349 . S
C894 C906 1.349 . S
C895 C893 1.327 . S
C895 C911 1.429 . S
C895 H917 0.950 . S
C896 H892 0.949 . S
C896 C904 1.574 . S
C896 C912 1.368 . S
H897 C905 0.950 . S
H898 C903 0.950 . S
H899 C904 0.949 . S
H900 C906 0.950 . S
H901 C907 0.950 . S
H902 C908 0.949 . S
C903 H898 0.950 . S
C903 C905 1.327 . S
C903 C909 1.429 . S
C904 C896 1.574 . S
C904 H899 0.949 . S
C904 C910 1.368 . S
C905 C889 1.349 . S
C905 H897 0.950 . S
C905 C903 1.327 . S
C906 C894 1.349 . S
C906 H900 0.950 . S
C906 C907 1.327 . S
C907 H901 0.950 . S
C907 C906 1.327 . S
C907 C911 1.429 . S
C908 C891 1.574 . S
C908 H902 0.949 . S
C908 C912 1.368 . S
C909 C890 1.429 . S
C909 C903 1.429 . S
C909 C910 1.523 . S
C910 C891 1.368 . S
C910 C904 1.368 . S
C910 C909 1.523 . S
C911 C895 1.429 . S
C911 C907 1.429 . S
C911 C912 1.523 . S
C912 C896 1.368 . S
C912 C908 1.368 . S
C912 C911 1.523 . S
H913 C888 0.950 . S
H914 C890 0.950 . S
H915 C891 0.949 . S
H916 C893 0.950 . S
H917 C895 0.950 . S
C918 C919 1.349 . S
C918 C920 1.327 . S
C918 H943 0.950 . S
C919 C918 1.349 . S
C919 C935 1.349 . S
C920 C918 1.327 . S
C920 C939 1.429 . S
C920 H944 0.950 . S
C921 C938 1.574 . S
C921 C940 1.368 . S
C921 H945 0.949 . S
H922 C926 0.949 . S
C923 C924 1.349 . S
C923 C925 1.327 . S
C923 H946 0.950 . S
C924 C923 1.349 . S
C924 C936 1.349 . S
C925 C923 1.327 . S
C925 C941 1.429 . S
C925 H947 0.950 . S
C926 H922 0.949 . S
C926 C934 1.574 . S
C926 C942 1.368 . S
H927 C935 0.950 . S
H928 C933 0.950 . S
H929 C934 0.949 . S
H930 C936 0.950 . S
H931 C937 0.950 . S
H932 C938 0.949 . S
C933 H928 0.950 . S
C933 C935 1.327 . S
C933 C939 1.429 . S
C934 C926 1.574 . S
C934 H929 0.949 . S
C934 C940 1.368 . S
C935 C919 1.349 . S
C935 H927 0.950 . S
C935 C933 1.327 . S
C936 C924 1.349 . S
C936 H930 0.950 . S
C936 C937 1.327 . S
C937 H931 0.950 . S
C937 C936 1.327 . S
C937 C941 1.429 . S
C938 C921 1.574 . S
C938 H932 0.949 . S
C938 C942 1.368 . S
C939 C920 1.429 . S
C939 C933 1.429 . S
C939 C940 1.523 . S
C940 C921 1.368 . S
C940 C934 1.368 . S
C940 C939 1.523 . S
C941 C925 1.429 . S
C941 C937 1.429 . S
C941 C942 1.523 . S
C942 C926 1.368 . S
C942 C938 1.368 . S
C942 C941 1.523 . S
H943 C918 0.950 . S
H944 C920 0.950 . S
H945 C921 0.949 . S
H946 C923 0.950 . S
H947 C925 0.950 . S
C948 C949 1.349 . S
C948 C950 1.327 . S
C948 H973 0.950 . S
C949 C948 1.349 . S
C949 C965 1.349 . S
C950 C948 1.327 . S
C950 C969 1.429 . S
C950 H974 0.950 . S
C951 C968 1.574 . S
C951 C970 1.368 1_545 S
C951 H975 0.949 . S
H952 C956 0.949 . S
C953 C954 1.349 . S
C953 C955 1.327 . S
C953 H976 0.950 . S
C954 C953 1.349 . S
C954 C966 1.396 . S
C955 C953 1.327 . S
C955 C971 1.429 . S
C955 H977 0.950 . S
C956 H952 0.949 . S
C956 C964 1.574 . S
C956 C972 1.368 . S
H957 C965 0.950 . S
H958 C963 0.900 1_545 S
H959 C964 0.949 . S
H960 C966 0.922 1_565 S
H961 C967 0.950 . S
H962 C968 0.949 . S
C963 H958 0.900 1_565 S
C963 C965 1.327 . S
C963 C969 1.429 . S
C964 C956 1.574 . S
C964 H959 0.949 . S
C964 C970 1.368 . S
C965 C949 1.349 . S
C965 H957 0.950 . S
C965 C963 1.327 . S
C966 C954 1.396 . S
C966 H960 0.922 1_545 S
C966 C967 1.309 1_545 S
C967 H961 0.950 . S
C967 C966 1.309 1_565 S
C967 C971 1.429 1_565 S
C968 C951 1.574 . S
C968 H962 0.949 . S
C968 C972 1.368 1_545 S
C969 C950 1.429 . S
C969 C963 1.429 . S
C969 C970 1.523 . S
C970 C951 1.368 1_565 S
C970 C964 1.368 . S
C970 C969 1.523 . S
C971 C955 1.429 . S
C971 C967 1.429 1_545 S
C971 C972 1.523 1_545 S
C972 C956 1.368 . S
C972 C968 1.368 1_565 S
C972 C971 1.523 1_565 S
H973 C948 0.950 . S
H974 C950 0.950 . S
H975 C951 0.949 . S
H976 C953 0.950 . S
H977 C955 0.950 . S
C978 C979 1.349 . S
C978 C980 1.327 . S
C978 H1003 0.950 . S
C979 C978 1.349 . S
C979 C995 1.349 . S
C980 C978 1.327 . S
C980 C999 1.429 . S
C980 H1004 0.961 . S
C981 C998 1.574 . S
C981 C1000 1.368 . S
C981 H1005 0.949 1_545 S
H982 C986 0.949 . S
C983 C984 1.349 . S
C983 C985 1.327 . S
C983 H1006 0.950 . S
C984 C983 1.349 . S
C984 C996 1.349 . S
C985 C983 1.327 . S
C985 C1001 1.429 . S
C985 H1007 0.950 . S
C986 H982 0.949 . S
C986 C994 1.574 . S
C986 C1002 1.368 . S
H987 C995 0.950 . S
H988 C993 0.950 . S
H989 C994 0.949 . S
H990 C996 0.950 . S
H991 C997 0.950 . S
H992 C998 0.949 . S
C993 H988 0.950 . S
C993 C995 1.327 . S
C993 C999 1.429 . S
C994 C986 1.574 . S
C994 H989 0.949 . S
C994 C1000 1.368 . S
C995 C979 1.349 . S
C995 H987 0.950 . S
C995 C993 1.327 . S
C996 C984 1.349 . S
C996 H990 0.950 . S
C996 C997 1.327 . S
C997 H991 0.950 . S
C997 C996 1.327 . S
C997 C1001 1.429 . S
C998 C981 1.574 . S
C998 H992 0.949 . S
C998 C1002 1.368 . S
C999 C980 1.429 . S
C999 C993 1.429 . S
C999 C1000 1.523 1_565 S
C1000 C981 1.368 . S
C1000 C994 1.368 . S
C1000 C999 1.523 1_545 S
C1001 C985 1.429 . S
C1001 C997 1.429 . S
C1001 C1002 1.523 . S
C1002 C986 1.368 . S
C1002 C998 1.368 . S
C1002 C1001 1.523 . S
H1003 C978 0.950 . S
H1004 C980 0.961 . S
H1005 C981 0.949 1_565 S
H1006 C983 0.950 . S
H1007 C985 0.950 . S
C1008 C1009 1.349 . S
C1008 C1010 1.327 . S
C1008 H1033 0.950 . S
C1009 C1008 1.349 . S
C1009 C1025 1.349 . S
C1010 C1008 1.327 . S
C1010 C1029 1.429 . S
C1010 H1034 0.950 . S
C1011 C1028 1.574 . S
C1011 C1030 1.368 . S
C1011 H1035 0.949 . S
H1012 C1016 0.949 . S
C1013 C1014 1.349 . S
C1013 C1015 1.327 . S
C1013 H1036 0.950 . S
C1014 C1013 1.349 . S
C1014 C1026 1.349 . S
C1015 C1013 1.327 . S
C1015 C1031 1.429 . S
C1015 H1037 0.950 . S
C1016 H1012 0.949 . S
C1016 C1024 1.574 . S
C1016 C1032 1.368 . S
H1017 C1025 0.950 . S
H1018 C1023 0.950 . S
H1019 C1024 0.949 . S
H1020 C1026 0.950 . S
H1021 C1027 0.950 . S
H1022 C1028 0.949 . S
C1023 H1018 0.950 . S
C1023 C1025 1.327 . S
C1023 C1029 1.429 . S
C1024 C1016 1.574 . S
C1024 H1019 0.949 . S
C1024 C1030 1.368 . S
C1025 C1009 1.349 . S
C1025 H1017 0.950 . S
C1025 C1023 1.327 . S
C1026 C1014 1.349 . S
C1026 H1020 0.950 . S
C1026 C1027 1.327 . S
C1027 H1021 0.950 . S
C1027 C1026 1.327 . S
C1027 C1031 1.429 . S
C1028 C1011 1.574 . S
C1028 H1022 0.949 . S
C1028 C1032 1.368 . S
C1029 C1010 1.429 . S
C1029 C1023 1.429 . S
C1029 C1030 1.523 . S
C1030 C1011 1.368 . S
C1030 C1024 1.368 . S
C1030 C1029 1.523 . S
C1031 C1015 1.429 . S
C1031 C1027 1.429 . S
C1031 C1032 1.523 . S
C1032 C1016 1.368 . S
C1032 C1028 1.368 . S
C1032 C1031 1.523 . S
H1033 C1008 0.950 . S
H1034 C1010 0.950 . S
H1035 C1011 0.949 . S
H1036 C1013 0.950 . S
H1037 C1015 0.950 . S
C1038 C1039 1.349 . S
C1038 C1040 1.327 1_556 S
C1038 H1063 0.950 1_556 S
C1039 C1038 1.349 . S
C1039 C1055 1.349 . S
C1040 C1038 1.327 1_554 S
C1040 C1059 1.429 1_554 S
C1040 H1064 0.950 . S
C1041 C1058 1.574 . S
C1041 C1060 1.368 1_556 S
C1041 H1065 0.949 . S
H1042 C1046 0.949 . S
C1043 C1044 1.349 . S
C1043 C1045 1.327 . S
C1043 H1066 0.950 . S
C1044 C1043 1.349 . S
C1044 C1056 1.349 . S
C1045 C1043 1.327 . S
C1045 C1061 1.429 . S
C1045 H1067 0.950 . S
C1046 H1042 0.949 . S
C1046 C1054 1.574 . S
C1046 C1062 1.368 . S
H1047 C1055 0.950 . S
H1048 C1053 0.950 . S
H1049 C1054 0.949 . S
H1050 C1056 0.950 . S
H1051 C1057 0.950 . S
H1052 C1058 0.949 . S
C1053 H1048 0.950 . S
C1053 C1055 1.327 . S
C1053 C1059 1.429 . S
C1054 C1046 1.574 . S
C1054 H1049 0.949 . S
C1054 C1060 1.368 . S
C1055 C1039 1.349 . S
C1055 H1047 0.950 . S
C1055 C1053 1.327 . S
C1056 C1044 1.349 . S
C1056 H1050 0.950 . S
C1056 C1057 1.327 . S
C1057 H1051 0.950 . S
C1057 C1056 1.327 . S
C1057 C1061 1.429 . S
C1058 C1041 1.574 . S
C1058 H1052 0.949 . S
C1058 C1062 1.368 1_556 S
C1059 C1040 1.429 1_556 S
C1059 C1053 1.429 . S
C1059 C1060 1.523 1_556 S
C1060 C1041 1.368 1_554 S
C1060 C1054 1.368 . S
C1060 C1059 1.523 1_554 S
C1061 C1045 1.429 . S
C1061 C1057 1.429 . S
C1061 C1062 1.523 . S
C1062 C1046 1.368 . S
C1062 C1058 1.368 1_554 S
C1062 C1061 1.523 . S
H1063 C1038 0.950 1_554 S
H1064 C1040 0.950 . S
H1065 C1041 0.949 . S
H1066 C1043 0.950 . S
H1067 C1045 0.950 . S
C1068 C1069 1.349 . S
C1068 C1070 1.327 . S
C1068 H1093 0.950 . S
C1069 C1068 1.349 . S
C1069 C1085 1.349 . S
C1070 C1068 1.327 . S
C1070 C1089 1.429 . S
C1070 H1094 0.950 . S
C1071 C1088 1.574 . S
C1071 C1090 1.368 . S
C1071 H1095 0.949 . S
H1072 C1076 0.949 . S
C1073 C1074 1.349 . S
C1073 C1075 1.327 . S
C1073 H1096 0.950 . S
C1074 C1073 1.349 . S
C1074 C1086 1.349 . S
C1075 C1073 1.327 . S
C1075 C1091 1.429 . S
C1075 H1097 0.950 . S
C1076 H1072 0.949 . S
C1076 C1084 1.574 . S
C1076 C1092 1.368 . S
H1077 C1085 0.950 . S
H1078 C1083 0.950 . S
H1079 C1084 0.949 . S
H1080 C1086 0.950 . S
H1081 C1087 0.950 . S
H1082 C1088 0.949 . S
C1083 H1078 0.950 . S
C1083 C1085 1.327 . S
C1083 C1089 1.429 . S
C1084 C1076 1.574 . S
C1084 H1079 0.949 . S
C1084 C1090 1.368 . S
C1085 C1069 1.349 . S
C1085 H1077 0.950 . S
C1085 C1083 1.327 . S
C1086 C1074 1.349 . S
C1086 H1080 0.950 . S
C1086 C1087 1.327 . S
C1087 H1081 0.950 . S
C1087 C1086 1.327 . S
C1087 C1091 1.429 . S
C1088 C1071 1.574 . S
C1088 H1082 0.949 . S
C1088 C1092 1.368 . S
C1089 C1070 1.429 . S
C1089 C1083 1.429 . S
C1089 C1090 1.523 . S
C1090 C1071 1.368 . S
C1090 C1084 1.368 . S
C1090 C1089 1.523 . S
C1091 C1075 1.429 . S
C1091 C1087 1.429 . S
C1091 C1092 1.523 . S
C1092 C1076 1.368 . S
C1092 C1088 1.368 . S
C1092 C1091 1.523 . S
H1093 C1068 0.950 . S
H1094 C1070 0.950 . S
H1095 C1071 0.949 . S
H1096 C1073 0.950 . S
H1097 C1075 0.950 . S
C1098 C1099 1.349 . S
C1098 C1100 1.327 . S
C1098 H1123 0.950 . S
C1099 C1098 1.349 . S
C1099 C1115 1.349 . S
C1100 C1098 1.327 . S
C1100 C1119 1.429 . S
C1100 H1124 0.950 . S
C1101 C1118 1.574 . S
C1101 C1120 1.368 . S
C1101 H1125 0.949 . S
H1102 C1106 0.941 1_554 S
C1103 C1104 1.349 . S
C1103 C1105 1.327 . S
C1103 H1126 0.950 . S
C1104 C1103 1.349 . S
C1104 C1116 1.349 . S
C1105 C1103 1.327 . S
C1105 C1121 1.429 . S
C1105 H1127 0.950 . S
C1106 H1102 0.941 1_556 S
C1106 C1114 1.566 1_556 S
C1106 C1122 1.385 . S
H1107 C1115 0.950 1_556 S
H1108 C1113 0.950 . S
H1109 C1114 0.949 . S
H1110 C1116 0.950 . S
H1111 C1117 0.950 . S
H1112 C1118 0.949 . S
C1113 H1108 0.950 . S
C1113 C1115 1.327 1_556 S
C1113 C1119 1.429 1_556 S
C1114 C1106 1.566 1_554 S
C1114 H1109 0.949 . S
C1114 C1120 1.368 1_554 S
C1115 C1099 1.349 . S
C1115 H1107 0.950 1_554 S
C1115 C1113 1.327 1_554 S
C1116 C1104 1.349 . S
C1116 H1110 0.950 . S
C1116 C1117 1.327 . S
C1117 H1111 0.950 . S
C1117 C1116 1.327 . S
C1117 C1121 1.429 . S
C1118 C1101 1.574 . S
C1118 H1112 0.949 . S
C1118 C1122 1.368 . S
C1119 C1100 1.429 . S
C1119 C1113 1.429 1_554 S
C1119 C1120 1.523 1_554 S
C1120 C1101 1.368 . S
C1120 C1114 1.368 1_556 S
C1120 C1119 1.523 1_556 S
C1121 C1105 1.429 . S
C1121 C1117 1.429 . S
C1121 C1122 1.523 . S
C1122 C1106 1.385 . S
C1122 C1118 1.368 . S
C1122 C1121 1.523 . S
H1123 C1098 0.950 . S
H1124 C1100 0.950 . S
H1125 C1101 0.949 . S
H1126 C1103 0.950 . S
H1127 C1105 0.950 . S
C1128 C1129 1.349 . S
C1128 C1130 1.327 . S
C1128 H1153 0.950 . S
C1129 C1128 1.349 . S
C1129 C1145 1.349 . S
C1130 C1128 1.327 . S
C1130 C1149 1.429 . S
C1130 H1154 0.950 . S
C1131 C1148 1.574 . S
C1131 C1150 1.368 . S
C1131 H1155 0.949 . S
H1132 C1136 0.949 . S
C1133 C1134 1.349 . S
C1133 C1135 1.327 . S
C1133 H1156 0.950 . S
C1134 C1133 1.349 . S
C1134 C1146 1.349 . S
C1135 C1133 1.327 . S
C1135 C1151 1.429 . S
C1135 H1157 0.950 . S
C1136 H1132 0.949 . S
C1136 C1144 1.574 . S
C1136 C1152 1.368 . S
H1137 C1145 0.950 . S
H1138 C1143 0.950 . S
H1139 C1144 0.949 . S
H1140 C1146 0.950 . S
H1141 C1147 0.950 . S
H1142 C1148 0.949 . S
C1143 H1138 0.950 . S
C1143 C1145 1.327 . S
C1143 C1149 1.429 . S
C1144 C1136 1.574 . S
C1144 H1139 0.949 . S
C1144 C1150 1.368 . S
C1145 C1129 1.349 . S
C1145 H1137 0.950 . S
C1145 C1143 1.327 . S
C1146 C1134 1.349 . S
C1146 H1140 0.950 . S
C1146 C1147 1.327 . S
C1147 H1141 0.950 . S
C1147 C1146 1.327 . S
C1147 C1151 1.429 . S
C1148 C1131 1.574 . S
C1148 H1142 0.949 . S
C1148 C1152 1.368 . S
C1149 C1130 1.429 . S
C1149 C1143 1.429 . S
C1149 C1150 1.523 . S
C1150 C1131 1.368 . S
C1150 C1144 1.368 . S
C1150 C1149 1.523 . S
C1151 C1135 1.429 . S
C1151 C1147 1.429 . S
C1151 C1152 1.523 . S
C1152 C1136 1.368 . S
C1152 C1148 1.368 . S
C1152 C1151 1.523 . S
H1153 C1128 0.950 . S
H1154 C1130 0.950 . S
H1155 C1131 0.949 . S
H1156 C1133 0.950 . S
H1157 C1135 0.950 . S
C1158 C1159 1.349 . S
C1158 C1160 1.335 . S
C1158 H1183 0.950 . S
C1159 C1158 1.349 . S
C1159 C1175 1.349 . S
C1160 C1158 1.335 . S
C1160 C1179 1.433 . S
C1160 H1184 0.937 1_655 S
C1161 C1178 1.574 1_655 S
C1161 C1180 1.368 1_655 S
C1161 H1185 0.949 . S
H1162 C1166 0.949 . S
C1163 C1164 1.349 . S
C1163 C1165 1.327 . S
C1163 H1186 0.950 . S
C1164 C1163 1.349 . S
C1164 C1176 1.349 . S
C1165 C1163 1.327 . S
C1165 C1181 1.429 . S
C1165 H1187 0.950 . S
C1166 H1162 0.949 . S
C1166 C1174 1.574 . S
C1166 C1182 1.368 . S
H1167 C1175 0.950 . S
H1168 C1173 0.950 . S
H1169 C1174 0.949 . S
H1170 C1176 0.950 . S
H1171 C1177 0.950 . S
H1172 C1178 0.949 . S
C1173 H1168 0.950 . S
C1173 C1175 1.327 . S
C1173 C1179 1.429 . S
C1174 C1166 1.574 . S
C1174 H1169 0.949 . S
C1174 C1180 1.368 . S
C1175 C1159 1.349 . S
C1175 H1167 0.950 . S
C1175 C1173 1.327 . S
C1176 C1164 1.349 . S
C1176 H1170 0.950 . S
C1176 C1177 1.327 . S
C1177 H1171 0.950 . S
C1177 C1176 1.327 . S
C1177 C1181 1.429 . S
C1178 C1161 1.574 1_455 S
C1178 H1172 0.949 . S
C1178 C1182 1.368 . S
C1179 C1160 1.433 . S
C1179 C1173 1.429 . S
C1179 C1180 1.523 1_655 S
C1180 C1161 1.368 1_455 S
C1180 C1174 1.368 . S
C1180 C1179 1.523 1_455 S
C1181 C1165 1.429 . S
C1181 C1177 1.429 . S
C1181 C1182 1.523 . S
C1182 C1166 1.368 . S
C1182 C1178 1.368 . S
C1182 C1181 1.523 . S
H1183 C1158 0.950 . S
H1184 C1160 0.937 1_455 S
H1185 C1161 0.949 . S
H1186 C1163 0.950 . S
H1187 C1165 0.950 . S
C1188 C1189 1.349 . S
C1188 C1190 1.327 . S
C1188 H1213 0.950 . S
C1189 C1188 1.349 . S
C1189 C1205 1.349 . S
C1190 C1188 1.327 . S
C1190 C1209 1.429 . S
C1190 H1214 0.950 . S
C1191 C1208 1.574 . S
C1191 C1210 1.368 . S
C1191 H1215 0.949 . S
H1192 C1196 0.949 . S
C1193 C1194 1.349 . S
C1193 C1195 1.327 . S
C1193 H1216 0.950 . S
C1194 C1193 1.349 . S
C1194 C1206 1.349 . S
C1195 C1193 1.327 . S
C1195 C1211 1.429 . S
C1195 H1217 0.950 . S
C1196 H1192 0.949 . S
C1196 C1204 1.574 . S
C1196 C1212 1.368 . S
H1197 C1205 0.950 . S
H1198 C1203 0.950 . S
H1199 C1204 0.949 . S
H1200 C1206 0.950 . S
H1201 C1207 0.950 . S
H1202 C1208 0.949 . S
C1203 H1198 0.950 . S
C1203 C1205 1.327 . S
C1203 C1209 1.429 . S
C1204 C1196 1.574 . S
C1204 H1199 0.949 . S
C1204 C1210 1.368 . S
C1205 C1189 1.349 . S
C1205 H1197 0.950 . S
C1205 C1203 1.327 . S
C1206 C1194 1.349 . S
C1206 H1200 0.950 . S
C1206 C1207 1.327 . S
C1207 H1201 0.950 . S
C1207 C1206 1.327 . S
C1207 C1211 1.429 . S
C1208 C1191 1.574 . S
C1208 H1202 0.949 . S
C1208 C1212 1.368 . S
C1209 C1190 1.429 . S
C1209 C1203 1.429 . S
C1209 C1210 1.523 . S
C1210 C1191 1.368 . S
C1210 C1204 1.368 . S
C1210 C1209 1.523 . S
C1211 C1195 1.429 . S
C1211 C1207 1.429 . S
C1211 C1212 1.523 . S
C1212 C1196 1.368 . S
C1212 C1208 1.368 . S
C1212 C1211 1.523 . S
H1213 C1188 0.950 . S
H1214 C1190 0.950 . S
H1215 C1191 0.949 . S
H1216 C1193 0.950 . S
H1217 C1195 0.950 . S
C1218 C1219 1.349 . S
C1218 C1220 1.327 . S
C1218 H1243 0.950 . S
C1219 C1218 1.349 . S
C1219 C1235 1.349 . S
C1220 C1218 1.327 . S
C1220 C1239 1.429 . S
C1220 H1244 0.950 . S
C1221 C1238 1.574 . S
C1221 C1240 1.368 . S
C1221 H1245 0.949 . S
H1222 C1226 0.949 . S
C1223 C1224 1.349 . S
C1223 C1225 1.327 1_455 S
C1223 H1246 0.950 1_455 S
C1224 C1223 1.349 . S
C1224 C1236 1.349 . S
C1225 C1223 1.327 1_655 S
C1225 C1241 1.429 1_655 S
C1225 H1247 0.950 . S
C1226 H1222 0.949 . S
C1226 C1234 1.567 1_455 S
C1226 C1242 1.368 1_455 S
H1227 C1235 0.950 . S
H1228 C1233 0.950 . S
H1229 C1234 0.941 1_455 S
H1230 C1236 0.950 . S
H1231 C1237 0.950 . S
H1232 C1238 0.949 . S
C1233 H1228 0.950 . S
C1233 C1235 1.327 . S
C1233 C1239 1.429 . S
C1234 C1226 1.567 1_655 S
C1234 H1229 0.941 1_655 S
C1234 C1240 1.385 . S
C1235 C1219 1.349 . S
C1235 H1227 0.950 . S
C1235 C1233 1.327 . S
C1236 C1224 1.349 . S
C1236 H1230 0.950 . S
C1236 C1237 1.327 . S
C1237 H1231 0.950 . S
C1237 C1236 1.327 . S
C1237 C1241 1.429 . S
C1238 C1221 1.574 . S
C1238 H1232 0.949 . S
C1238 C1242 1.368 . S
C1239 C1220 1.429 . S
C1239 C1233 1.429 . S
C1239 C1240 1.523 . S
C1240 C1221 1.368 . S
C1240 C1234 1.385 . S
C1240 C1239 1.523 . S
C1241 C1225 1.429 1_455 S
C1241 C1237 1.429 . S
C1241 C1242 1.523 1_455 S
C1242 C1226 1.368 1_655 S
C1242 C1238 1.368 . S
C1242 C1241 1.523 1_655 S
H1243 C1218 0.950 . S
H1244 C1220 0.950 . S
H1245 C1221 0.949 . S
H1246 C1223 0.950 1_655 S
H1247 C1225 0.950 . S
C1248 C1249 1.349 . S
C1248 C1250 1.327 . S
C1248 H1273 0.950 . S
C1249 C1248 1.349 . S
C1249 C1265 1.349 . S
C1250 C1248 1.327 . S
C1250 C1269 1.429 . S
C1250 H1274 0.950 . S
C1251 C1268 1.574 . S
C1251 C1270 1.368 . S
C1251 H1275 0.949 . S
H1252 C1256 0.949 . S
C1253 C1254 1.349 . S
C1253 C1255 1.327 . S
C1253 H1276 0.950 . S
C1254 C1253 1.349 . S
C1254 C1266 1.349 . S
C1255 C1253 1.327 . S
C1255 C1271 1.429 . S
C1255 H1277 0.950 . S
C1256 H1252 0.949 . S
C1256 C1264 1.574 . S
C1256 C1272 1.368 . S
H1257 C1265 0.950 . S
H1258 C1263 0.950 . S
H1259 C1264 0.949 . S
H1260 C1266 0.950 . S
H1261 C1267 0.950 . S
H1262 C1268 0.949 . S
C1263 H1258 0.950 . S
C1263 C1265 1.327 . S
C1263 C1269 1.429 . S
C1264 C1256 1.574 . S
C1264 H1259 0.949 . S
C1264 C1270 1.368 . S
C1265 C1249 1.349 . S
C1265 H1257 0.950 . S
C1265 C1263 1.327 . S
C1266 C1254 1.349 . S
C1266 H1260 0.950 . S
C1266 C1267 1.327 . S
C1267 H1261 0.950 . S
C1267 C1266 1.327 . S
C1267 C1271 1.429 . S
C1268 C1251 1.574 . S
C1268 H1262 0.949 . S
C1268 C1272 1.368 . S
C1269 C1250 1.429 . S
C1269 C1263 1.429 . S
C1269 C1270 1.523 . S
C1270 C1251 1.368 . S
C1270 C1264 1.368 . S
C1270 C1269 1.523 . S
C1271 C1255 1.429 . S
C1271 C1267 1.429 . S
C1271 C1272 1.523 . S
C1272 C1256 1.368 . S
C1272 C1268 1.368 . S
C1272 C1271 1.523 . S
H1273 C1248 0.950 . S
H1274 C1250 0.950 . S
H1275 C1251 0.949 . S
H1276 C1253 0.950 . S
H1277 C1255 0.950 . S
C1278 C1279 1.349 . S
C1278 C1280 1.327 . S
C1278 H1303 0.950 . S
C1279 C1278 1.349 . S
C1279 C1295 1.349 . S
C1280 C1278 1.327 . S
C1280 C1299 1.429 . S
C1280 H1304 0.950 . S
C1281 C1298 1.574 . S
C1281 C1300 1.368 . S
C1281 H1305 0.949 . S
H1282 C1286 0.949 . S
C1283 C1284 1.349 . S
C1283 C1285 1.327 . S
C1283 H1306 0.950 . S
C1284 C1283 1.349 . S
C1284 C1296 1.349 . S
C1285 C1283 1.327 . S
C1285 C1301 1.429 . S
C1285 H1307 0.950 . S
C1286 H1282 0.949 . S
C1286 C1294 1.574 . S
C1286 C1302 1.368 . S
H1287 C1295 0.950 . S
H1288 C1293 0.950 . S
H1289 C1294 0.949 . S
H1290 C1296 0.950 . S
H1291 C1297 0.950 . S
H1292 C1298 0.949 . S
C1293 H1288 0.950 . S
C1293 C1295 1.327 . S
C1293 C1299 1.429 . S
C1294 C1286 1.574 . S
C1294 H1289 0.949 . S
C1294 C1300 1.368 . S
C1295 C1279 1.349 . S
C1295 H1287 0.950 . S
C1295 C1293 1.327 . S
C1296 C1284 1.349 . S
C1296 H1290 0.950 . S
C1296 C1297 1.327 . S
C1297 H1291 0.950 . S
C1297 C1296 1.327 . S
C1297 C1301 1.429 . S
C1298 C1281 1.574 . S
C1298 H1292 0.949 . S
C1298 C1302 1.368 . S
C1299 C1280 1.429 . S
C1299 C1293 1.429 . S
C1299 C1300 1.523 . S
C1300 C1281 1.368 . S
C1300 C1294 1.368 . S
C1300 C1299 1.523 . S
C1301 C1285 1.429 . S
C1301 C1297 1.429 . S
C1301 C1302 1.523 . S
C1302 C1286 1.368 . S
C1302 C1298 1.368 . S
C1302 C1301 1.523 . S
H1303 C1278 0.950 . S
H1304 C1280 0.950 . S
H1305 C1281 0.949 . S
H1306 C1283 0.950 . S
H1307 C1285 0.950 . S
C1308 C1309 1.349 . S
C1308 C1310 1.327 . S
C1308 H1333 0.950 . S
C1309 C1308 1.349 . S
C1309 C1325 1.349 . S
C1310 C1308 1.327 . S
C1310 C1329 1.429 . S
C1310 H1334 0.950 . S
C1311 C1328 1.574 . S
C1311 C1330 1.368 . S
C1311 H1335 0.949 . S
H1312 C1316 0.949 . S
C1313 C1314 1.349 . S
C1313 C1315 1.327 . S
C1313 H1336 0.950 . S
C1314 C1313 1.349 . S
C1314 C1326 1.349 . S
C1315 C1313 1.327 . S
C1315 C1331 1.429 . S
C1315 H1337 0.950 . S
C1316 H1312 0.949 . S
C1316 C1324 1.574 . S
C1316 C1332 1.368 . S
H1317 C1325 0.950 . S
H1318 C1323 0.950 . S
H1319 C1324 0.949 . S
H1320 C1326 0.950 1_554 S
H1321 C1327 0.950 . S
H1322 C1328 0.949 . S
C1323 H1318 0.950 . S
C1323 C1325 1.327 . S
C1323 C1329 1.429 . S
C1324 C1316 1.574 . S
C1324 H1319 0.949 . S
C1324 C1330 1.368 . S
C1325 C1309 1.349 . S
C1325 H1317 0.950 . S
C1325 C1323 1.327 . S
C1326 C1314 1.349 . S
C1326 H1320 0.950 1_556 S
C1326 C1327 1.327 . S
C1327 H1321 0.950 . S
C1327 C1326 1.327 . S
C1327 C1331 1.429 . S
C1328 C1311 1.574 . S
C1328 H1322 0.949 . S
C1328 C1332 1.368 . S
C1329 C1310 1.429 . S
C1329 C1323 1.429 . S
C1329 C1330 1.523 . S
C1330 C1311 1.368 . S
C1330 C1324 1.368 . S
C1330 C1329 1.523 . S
C1331 C1315 1.429 . S
C1331 C1327 1.429 . S
C1331 C1332 1.523 . S
C1332 C1316 1.368 . S
C1332 C1328 1.368 . S
C1332 C1331 1.523 . S
H1333 C1308 0.950 . S
H1334 C1310 0.950 . S
H1335 C1311 0.949 . S
H1336 C1313 0.950 . S
H1337 C1315 0.950 . S
C1338 C1339 1.349 . S
C1338 C1340 1.327 . S
C1338 H1363 0.950 . S
C1339 C1338 1.349 . S
C1339 C1355 1.349 . S
C1340 C1338 1.327 . S
C1340 C1359 1.429 . S
C1340 H1364 0.950 . S
C1341 C1358 1.574 . S
C1341 C1360 1.368 . S
C1341 H1365 0.949 . S
H1342 C1346 0.949 . S
C1343 C1344 1.349 . S
C1343 C1345 1.327 . S
C1343 H1366 0.950 . S
C1344 C1343 1.349 . S
C1344 C1356 1.349 . S
C1345 C1343 1.327 . S
C1345 C1361 1.429 . S
C1345 H1367 0.950 . S
C1346 H1342 0.949 . S
C1346 C1354 1.574 . S
C1346 C1362 1.368 . S
H1347 C1355 0.950 . S
H1348 C1353 0.950 . S
H1349 C1354 0.949 . S
H1350 C1356 0.950 . S
H1351 C1357 0.950 . S
H1352 C1358 0.949 . S
C1353 H1348 0.950 . S
C1353 C1355 1.327 . S
C1353 C1359 1.429 . S
C1354 C1346 1.574 . S
C1354 H1349 0.949 . S
C1354 C1360 1.368 . S
C1355 C1339 1.349 . S
C1355 H1347 0.950 . S
C1355 C1353 1.327 . S
C1356 C1344 1.349 . S
C1356 H1350 0.950 . S
C1356 C1357 1.327 . S
C1357 H1351 0.950 . S
C1357 C1356 1.327 . S
C1357 C1361 1.429 . S
C1358 C1341 1.574 . S
C1358 H1352 0.949 . S
C1358 C1362 1.368 . S
C1359 C1340 1.429 . S
C1359 C1353 1.429 . S
C1359 C1360 1.523 . S
C1360 C1341 1.368 . S
C1360 C1354 1.368 . S
C1360 C1359 1.523 . S
C1361 C1345 1.429 . S
C1361 C1357 1.429 . S
C1361 C1362 1.523 . S
C1362 C1346 1.368 . S
C1362 C1358 1.368 . S
C1362 C1361 1.523 . S
H1363 C1338 0.950 . S
H1364 C1340 0.950 . S
H1365 C1341 0.949 . S
H1366 C1343 0.950 . S
H1367 C1345 0.950 . S
C1368 C1369 1.349 . S
C1368 C1370 1.327 . S
C1368 H1393 0.950 . S
C1369 C1368 1.349 . S
C1369 C1385 1.349 . S
C1370 C1368 1.327 . S
C1370 C1389 1.429 . S
C1370 H1394 0.950 . S
C1371 C1388 1.574 . S
C1371 C1390 1.368 . S
C1371 H1395 0.949 . S
H1372 C1376 0.949 . S
C1373 C1374 1.349 . S
C1373 C1375 1.327 . S
C1373 H1396 0.950 1_455 S
C1374 C1373 1.349 . S
C1374 C1386 1.349 . S
C1375 C1373 1.327 . S
C1375 C1391 1.429 . S
C1375 H1397 0.950 . S
C1376 H1372 0.949 . S
C1376 C1384 1.574 . S
C1376 C1392 1.368 . S
H1377 C1385 0.950 . S
H1378 C1383 0.950 . S
H1379 C1384 0.949 . S
H1380 C1386 0.950 . S
H1381 C1387 0.950 . S
H1382 C1388 0.949 . S
C1383 H1378 0.950 . S
C1383 C1385 1.327 . S
C1383 C1389 1.429 . S
C1384 C1376 1.574 . S
C1384 H1379 0.949 . S
C1384 C1390 1.368 . S
C1385 C1369 1.349 . S
C1385 H1377 0.950 . S
C1385 C1383 1.327 . S
C1386 C1374 1.349 . S
C1386 H1380 0.950 . S
C1386 C1387 1.327 . S
C1387 H1381 0.950 . S
C1387 C1386 1.327 . S
C1387 C1391 1.429 . S
C1388 C1371 1.574 . S
C1388 H1382 0.949 . S
C1388 C1392 1.368 . S
C1389 C1370 1.429 . S
C1389 C1383 1.429 . S
C1389 C1390 1.523 . S
C1390 C1371 1.368 . S
C1390 C1384 1.368 . S
C1390 C1389 1.523 . S
C1391 C1375 1.429 . S
C1391 C1387 1.429 . S
C1391 C1392 1.523 . S
C1392 C1376 1.368 . S
C1392 C1388 1.368 . S
C1392 C1391 1.523 . S
H1393 C1368 0.950 . S
H1394 C1370 0.950 . S
H1395 C1371 0.949 . S
H1396 C1373 0.950 1_655 S
H1397 C1375 0.950 . S
C1398 C1399 1.349 . S
C1398 C1400 1.327 . S
C1398 H1423 0.950 . S
C1399 C1398 1.349 . S
C1399 C1415 1.349 . S
C1400 C1398 1.327 . S
C1400 C1419 1.429 . S
C1400 H1424 0.950 . S
C1401 C1418 1.574 . S
C1401 C1420 1.368 . S
C1401 H1425 0.949 . S
H1402 C1406 0.949 . S
C1403 C1404 1.349 . S
C1403 C1405 1.327 . S
C1403 H1426 0.950 . S
C1404 C1403 1.349 . S
C1404 C1416 1.349 . S
C1405 C1403 1.327 . S
C1405 C1421 1.429 . S
C1405 H1427 0.950 . S
C1406 H1402 0.949 . S
C1406 C1414 1.574 . S
C1406 C1422 1.368 . S
H1407 C1415 0.950 . S
H1408 C1413 0.950 . S
H1409 C1414 0.949 . S
H1410 C1416 0.950 . S
H1411 C1417 0.950 . S
H1412 C1418 0.949 . S
C1413 H1408 0.950 . S
C1413 C1415 1.327 . S
C1413 C1419 1.429 . S
C1414 C1406 1.574 . S
C1414 H1409 0.949 . S
C1414 C1420 1.368 . S
C1415 C1399 1.349 . S
C1415 H1407 0.950 . S
C1415 C1413 1.327 . S
C1416 C1404 1.349 . S
C1416 H1410 0.950 . S
C1416 C1417 1.327 . S
C1417 H1411 0.950 . S
C1417 C1416 1.327 . S
C1417 C1421 1.429 . S
C1418 C1401 1.574 . S
C1418 H1412 0.949 . S
C1418 C1422 1.368 . S
C1419 C1400 1.429 . S
C1419 C1413 1.429 . S
C1419 C1420 1.523 . S
C1420 C1401 1.368 . S
C1420 C1414 1.368 . S
C1420 C1419 1.523 . S
C1421 C1405 1.429 . S
C1421 C1417 1.429 . S
C1421 C1422 1.523 . S
C1422 C1406 1.368 . S
C1422 C1418 1.368 . S
C1422 C1421 1.523 . S
H1423 C1398 0.950 . S
H1424 C1400 0.950 . S
H1425 C1401 0.949 . S
H1426 C1403 0.950 . S
H1427 C1405 0.950 . S
C1428 C1429 1.349 . S
C1428 C1430 1.327 . S
C1428 H1453 0.950 . S
C1429 C1428 1.349 . S
C1429 C1445 1.349 . S
C1430 C1428 1.327 . S
C1430 C1449 1.429 . S
C1430 H1454 0.950 . S
C1431 C1448 1.574 . S
C1431 C1450 1.368 . S
C1431 H1455 0.949 . S
H1432 C1436 0.949 . S
C1433 C1434 1.349 . S
C1433 C1435 1.327 . S
C1433 H1456 0.950 . S
C1434 C1433 1.349 . S
C1434 C1446 1.349 . S
C1435 C1433 1.327 . S
C1435 C1451 1.429 . S
C1435 H1457 0.950 . S
C1436 H1432 0.949 . S
C1436 C1444 1.574 . S
C1436 C1452 1.368 . S
H1437 C1445 0.950 . S
H1438 C1443 0.950 . S
H1439 C1444 0.949 . S
H1440 C1446 0.950 . S
H1441 C1447 0.950 . S
H1442 C1448 0.949 . S
C1443 H1438 0.950 . S
C1443 C1445 1.327 . S
C1443 C1449 1.429 . S
C1444 C1436 1.574 . S
C1444 H1439 0.949 . S
C1444 C1450 1.368 . S
C1445 C1429 1.349 . S
C1445 H1437 0.950 . S
C1445 C1443 1.327 . S
C1446 C1434 1.349 . S
C1446 H1440 0.950 . S
C1446 C1447 1.327 . S
C1447 H1441 0.950 . S
C1447 C1446 1.327 . S
C1447 C1451 1.429 . S
C1448 C1431 1.574 . S
C1448 H1442 0.949 . S
C1448 C1452 1.368 . S
C1449 C1430 1.429 . S
C1449 C1443 1.429 . S
C1449 C1450 1.523 . S
C1450 C1431 1.368 . S
C1450 C1444 1.368 . S
C1450 C1449 1.523 . S
C1451 C1435 1.429 . S
C1451 C1447 1.429 . S
C1451 C1452 1.523 . S
C1452 C1436 1.368 . S
C1452 C1448 1.368 . S
C1452 C1451 1.523 . S
H1453 C1428 0.950 . S
H1454 C1430 0.950 . S
H1455 C1431 0.949 . S
H1456 C1433 0.950 . S
H1457 C1435 0.950 . S
C1458 C1459 1.349 . S
C1458 C1460 1.327 . S
C1458 H1483 0.950 . S
C1459 C1458 1.349 . S
C1459 C1475 1.349 . S
C1460 C1458 1.327 . S
C1460 C1479 1.429 . S
C1460 H1484 0.950 . S
C1461 C1478 1.574 . S
C1461 C1480 1.368 . S
C1461 H1485 0.949 . S
H1462 C1466 0.949 . S
C1463 C1464 1.349 . S
C1463 C1465 1.327 . S
C1463 H1486 0.950 . S
C1464 C1463 1.349 . S
C1464 C1476 1.349 . S
C1465 C1463 1.327 . S
C1465 C1481 1.429 . S
C1465 H1487 0.950 . S
C1466 H1462 0.949 . S
C1466 C1474 1.574 . S
C1466 C1482 1.368 . S
H1467 C1475 0.950 . S
H1468 C1473 0.950 . S
H1469 C1474 0.949 . S
H1470 C1476 0.950 . S
H1471 C1477 0.950 . S
H1472 C1478 0.949 . S
C1473 H1468 0.950 . S
C1473 C1475 1.327 . S
C1473 C1479 1.429 . S
C1474 C1466 1.574 . S
C1474 H1469 0.949 . S
C1474 C1480 1.368 . S
C1475 C1459 1.349 . S
C1475 H1467 0.950 . S
C1475 C1473 1.327 . S
C1476 C1464 1.349 . S
C1476 H1470 0.950 . S
C1476 C1477 1.327 . S
C1477 H1471 0.950 . S
C1477 C1476 1.327 . S
C1477 C1481 1.429 . S
C1478 C1461 1.574 . S
C1478 H1472 0.949 . S
C1478 C1482 1.368 . S
C1479 C1460 1.429 . S
C1479 C1473 1.429 . S
C1479 C1480 1.523 . S
C1480 C1461 1.368 . S
C1480 C1474 1.368 . S
C1480 C1479 1.523 . S
C1481 C1465 1.429 . S
C1481 C1477 1.429 . S
C1481 C1482 1.523 . S
C1482 C1466 1.368 . S
C1482 C1478 1.368 . S
C1482 C1481 1.523 . S
H1483 C1458 0.950 . S
H1484 C1460 0.950 . S
H1485 C1461 0.949 . S
H1486 C1463 0.950 . S
H1487 C1465 0.950 . S
C1488 C1489 1.349 . S
C1488 C1490 1.327 . S
C1488 H1513 0.950 1_545 S
C1489 C1488 1.349 . S
C1489 C1505 1.349 . S
C1490 C1488 1.327 . S
C1490 C1509 1.429 . S
C1490 H1514 0.950 . S
C1491 C1508 1.574 . S
C1491 C1510 1.368 . S
C1491 H1515 0.949 . S
H1492 C1496 0.949 . S
C1493 C1494 1.349 . S
C1493 C1495 1.327 . S
C1493 H1516 0.950 . S
C1494 C1493 1.349 . S
C1494 C1506 1.349 . S
C1495 C1493 1.327 . S
C1495 C1511 1.429 . S
C1495 H1517 0.950 . S
C1496 H1492 0.949 . S
C1496 C1504 1.574 . S
C1496 C1512 1.368 . S
H1497 C1505 0.950 . S
H1498 C1503 0.950 . S
H1499 C1504 0.949 . S
H1500 C1506 0.950 . S
H1501 C1507 0.950 . S
H1502 C1508 0.949 . S
C1503 H1498 0.950 . S
C1503 C1505 1.327 . S
C1503 C1509 1.429 . S
C1504 C1496 1.574 . S
C1504 H1499 0.949 . S
C1504 C1510 1.368 . S
C1505 C1489 1.349 . S
C1505 H1497 0.950 . S
C1505 C1503 1.327 . S
C1506 C1494 1.349 . S
C1506 H1500 0.950 . S
C1506 C1507 1.327 . S
C1507 H1501 0.950 . S
C1507 C1506 1.327 . S
C1507 C1511 1.429 . S
C1508 C1491 1.574 . S
C1508 H1502 0.949 . S
C1508 C1512 1.368 . S
C1509 C1490 1.429 . S
C1509 C1503 1.429 . S
C1509 C1510 1.523 . S
C1510 C1491 1.368 . S
C1510 C1504 1.368 . S
C1510 C1509 1.523 . S
C1511 C1495 1.429 . S
C1511 C1507 1.429 . S
C1511 C1512 1.523 . S
C1512 C1496 1.368 . S
C1512 C1508 1.368 . S
C1512 C1511 1.523 . S
H1513 C1488 0.950 1_565 S
H1514 C1490 0.950 . S
H1515 C1491 0.949 . S
H1516 C1493 0.950 . S
H1517 C1495 0.950 . S
C1518 C1519 1.349 . S
C1518 C1520 1.327 . S
C1518 H1543 0.950 . S
C1519 C1518 1.349 . S
C1519 C1535 1.349 . S
C1520 C1518 1.327 . S
C1520 C1539 1.429 . S
C1520 H1544 0.950 . S
C1521 C1538 1.574 . S
C1521 C1540 1.368 . S
C1521 H1545 0.949 . S
H1522 C1526 0.949 . S
C1523 C1524 1.349 . S
C1523 C1525 1.327 . S
C1523 H1546 0.950 . S
C1524 C1523 1.349 . S
C1524 C1536 1.349 . S
C1525 C1523 1.327 . S
C1525 C1541 1.429 . S
C1525 H1547 0.950 . S
C1526 H1522 0.949 . S
C1526 C1534 1.574 . S
C1526 C1542 1.368 . S
H1527 C1535 0.950 . S
H1528 C1533 0.950 . S
H1529 C1534 0.949 . S
H1530 C1536 0.950 . S
H1531 C1537 0.950 . S
H1532 C1538 0.949 . S
C1533 H1528 0.950 . S
C1533 C1535 1.327 . S
C1533 C1539 1.429 . S
C1534 C1526 1.574 . S
C1534 H1529 0.949 . S
C1534 C1540 1.368 . S
C1535 C1519 1.349 . S
C1535 H1527 0.950 . S
C1535 C1533 1.327 . S
C1536 C1524 1.349 . S
C1536 H1530 0.950 . S
C1536 C1537 1.327 . S
C1537 H1531 0.950 . S
C1537 C1536 1.327 . S
C1537 C1541 1.429 . S
C1538 C1521 1.574 . S
C1538 H1532 0.949 . S
C1538 C1542 1.368 . S
C1539 C1520 1.429 . S
C1539 C1533 1.429 . S
C1539 C1540 1.523 . S
C1540 C1521 1.368 . S
C1540 C1534 1.368 . S
C1540 C1539 1.523 . S
C1541 C1525 1.429 . S
C1541 C1537 1.429 . S
C1541 C1542 1.523 . S
C1542 C1526 1.368 . S
C1542 C1538 1.368 . S
C1542 C1541 1.523 . S
H1543 C1518 0.950 . S
H1544 C1520 0.950 . S
H1545 C1521 0.949 . S
H1546 C1523 0.950 . S
H1547 C1525 0.950 . S
C1548 C1549 1.349 . S
C1548 C1550 1.327 . S
C1548 H1573 0.950 . S
C1549 C1548 1.349 . S
C1549 C1565 1.349 . S
C1550 C1548 1.327 . S
C1550 C1569 1.429 . S
C1550 H1574 0.950 . S
C1551 C1568 1.574 . S
C1551 C1570 1.368 . S
C1551 H1575 0.949 . S
H1552 C1556 0.949 . S
C1553 C1554 1.349 . S
C1553 C1555 1.327 . S
C1553 H1576 0.950 . S
C1554 C1553 1.349 . S
C1554 C1566 1.349 . S
C1555 C1553 1.327 . S
C1555 C1571 1.429 . S
C1555 H1577 0.950 . S
C1556 H1552 0.949 . S
C1556 C1564 1.574 . S
C1556 C1572 1.368 . S
H1557 C1565 0.950 . S
H1558 C1563 0.950 . S
H1559 C1564 0.949 . S
H1560 C1566 0.950 . S
H1561 C1567 0.950 . S
H1562 C1568 0.949 . S
C1563 H1558 0.950 . S
C1563 C1565 1.327 . S
C1563 C1569 1.429 . S
C1564 C1556 1.574 . S
C1564 H1559 0.949 . S
C1564 C1570 1.368 . S
C1565 C1549 1.349 . S
C1565 H1557 0.950 . S
C1565 C1563 1.327 . S
C1566 C1554 1.349 . S
C1566 H1560 0.950 . S
C1566 C1567 1.327 . S
C1567 H1561 0.950 . S
C1567 C1566 1.327 . S
C1567 C1571 1.429 . S
C1568 C1551 1.574 . S
C1568 H1562 0.949 . S
C1568 C1572 1.368 . S
C1569 C1550 1.429 . S
C1569 C1563 1.429 . S
C1569 C1570 1.523 . S
C1570 C1551 1.368 . S
C1570 C1564 1.368 . S
C1570 C1569 1.523 . S
C1571 C1555 1.429 . S
C1571 C1567 1.429 . S
C1571 C1572 1.523 . S
C1572 C1556 1.368 . S
C1572 C1568 1.368 . S
C1572 C1571 1.523 . S
H1573 C1548 0.950 . S
H1574 C1550 0.950 . S
H1575 C1551 0.949 . S
H1576 C1553 0.950 . S
H1577 C1555 0.950 . S
C1578 C1579 1.349 . S
C1578 C1580 1.327 . S
C1578 H1603 0.950 . S
C1579 C1578 1.349 . S
C1579 C1595 1.349 . S
C1580 C1578 1.327 . S
C1580 C1599 1.429 . S
C1580 H1604 0.950 . S
C1581 C1598 1.574 . S
C1581 C1600 1.368 . S
C1581 H1605 0.949 . S
H1582 C1586 0.949 . S
C1583 C1584 1.349 . S
C1583 C1585 1.327 . S
C1583 H1606 0.950 . S
C1584 C1583 1.349 . S
C1584 C1596 1.349 . S
C1585 C1583 1.327 . S
C1585 C1601 1.429 . S
C1585 H1607 0.950 . S
C1586 H1582 0.949 . S
C1586 C1594 1.574 . S
C1586 C1602 1.368 . S
H1587 C1595 0.950 . S
H1588 C1593 0.950 . S
H1589 C1594 0.949 . S
H1590 C1596 0.950 . S
H1591 C1597 0.950 . S
H1592 C1598 0.949 . S
C1593 H1588 0.950 . S
C1593 C1595 1.327 . S
C1593 C1599 1.429 . S
C1594 C1586 1.574 . S
C1594 H1589 0.949 . S
C1594 C1600 1.368 . S
C1595 C1579 1.349 . S
C1595 H1587 0.950 . S
C1595 C1593 1.327 . S
C1596 C1584 1.349 . S
C1596 H1590 0.950 . S
C1596 C1597 1.327 . S
C1597 H1591 0.950 . S
C1597 C1596 1.327 . S
C1597 C1601 1.429 . S
C1598 C1581 1.574 . S
C1598 H1592 0.949 . S
C1598 C1602 1.368 . S
C1599 C1580 1.429 . S
C1599 C1593 1.429 . S
C1599 C1600 1.523 . S
C1600 C1581 1.368 . S
C1600 C1594 1.368 . S
C1600 C1599 1.523 . S
C1601 C1585 1.429 . S
C1601 C1597 1.429 . S
C1601 C1602 1.523 . S
C1602 C1586 1.368 . S
C1602 C1598 1.368 . S
C1602 C1601 1.523 . S
H1603 C1578 0.950 . S
H1604 C1580 0.950 . S
H1605 C1581 0.949 . S
H1606 C1583 0.950 . S
H1607 C1585 0.950 . S
C1608 C1609 1.349 . S
C1608 C1610 1.327 . S
C1608 H1633 0.950 . S
C1609 C1608 1.349 . S
C1609 C1625 1.349 . S
C1610 C1608 1.327 . S
C1610 C1629 1.429 . S
C1610 H1634 0.950 . S
C1611 C1628 1.574 . S
C1611 C1630 1.368 . S
C1611 H1635 0.949 . S
H1612 C1616 0.949 . S
C1613 C1614 1.349 . S
C1613 C1615 1.327 . S
C1613 H1636 0.950 . S
C1614 C1613 1.349 . S
C1614 C1626 1.349 . S
C1615 C1613 1.327 . S
C1615 C1631 1.429 . S
C1615 H1637 0.950 . S
C1616 H1612 0.949 . S
C1616 C1624 1.574 . S
C1616 C1632 1.368 . S
H1617 C1625 0.950 . S
H1618 C1623 0.950 . S
H1619 C1624 0.949 . S
H1620 C1626 0.950 . S
H1621 C1627 0.950 . S
H1622 C1628 0.949 . S
C1623 H1618 0.950 . S
C1623 C1625 1.327 . S
C1623 C1629 1.429 . S
C1624 C1616 1.574 . S
C1624 H1619 0.949 . S
C1624 C1630 1.368 . S
C1625 C1609 1.349 . S
C1625 H1617 0.950 . S
C1625 C1623 1.327 . S
C1626 C1614 1.349 . S
C1626 H1620 0.950 . S
C1626 C1627 1.327 . S
C1627 H1621 0.950 . S
C1627 C1626 1.327 . S
C1627 C1631 1.429 . S
C1628 C1611 1.574 . S
C1628 H1622 0.949 . S
C1628 C1632 1.368 . S
C1629 C1610 1.429 . S
C1629 C1623 1.429 . S
C1629 C1630 1.523 . S
C1630 C1611 1.368 . S
C1630 C1624 1.368 . S
C1630 C1629 1.523 . S
C1631 C1615 1.429 . S
C1631 C1627 1.429 . S
C1631 C1632 1.523 . S
C1632 C1616 1.368 . S
C1632 C1628 1.368 . S
C1632 C1631 1.523 . S
H1633 C1608 0.950 . S
H1634 C1610 0.950 . S
H1635 C1611 0.949 . S
H1636 C1613 0.950 . S
H1637 C1615 0.950 . S
C1638 C1639 1.349 . S
C1638 C1640 1.327 . S
C1638 H1663 0.950 . S
C1639 C1638 1.349 . S
C1639 C1655 1.349 . S
C1640 C1638 1.327 . S
C1640 C1659 1.429 . S
C1640 H1664 0.950 . S
C1641 C1658 1.574 . S
C1641 C1660 1.368 . S
C1641 H1665 0.949 . S
H1642 C1646 0.949 . S
C1643 C1644 1.349 . S
C1643 C1645 1.327 . S
C1643 H1666 0.950 . S
C1644 C1643 1.349 . S
C1644 C1656 1.349 . S
C1645 C1643 1.327 . S
C1645 C1661 1.429 . S
C1645 H1667 0.950 . S
C1646 H1642 0.949 . S
C1646 C1654 1.574 . S
C1646 C1662 1.368 . S
H1647 C1655 0.950 . S
H1648 C1653 0.950 . S
H1649 C1654 0.949 . S
H1650 C1656 0.950 . S
H1651 C1657 0.950 . S
H1652 C1658 0.949 . S
C1653 H1648 0.950 . S
C1653 C1655 1.327 . S
C1653 C1659 1.429 . S
C1654 C1646 1.574 . S
C1654 H1649 0.949 . S
C1654 C1660 1.368 . S
C1655 C1639 1.349 . S
C1655 H1647 0.950 . S
C1655 C1653 1.327 . S
C1656 C1644 1.349 . S
C1656 H1650 0.950 . S
C1656 C1657 1.327 . S
C1657 H1651 0.950 . S
C1657 C1656 1.327 . S
C1657 C1661 1.429 . S
C1658 C1641 1.574 . S
C1658 H1652 0.949 . S
C1658 C1662 1.368 . S
C1659 C1640 1.429 . S
C1659 C1653 1.429 . S
C1659 C1660 1.523 . S
C1660 C1641 1.368 . S
C1660 C1654 1.368 . S
C1660 C1659 1.523 . S
C1661 C1645 1.429 . S
C1661 C1657 1.429 . S
C1661 C1662 1.523 . S
C1662 C1646 1.368 . S
C1662 C1658 1.368 . S
C1662 C1661 1.523 . S
H1663 C1638 0.950 . S
H1664 C1640 0.950 . S
H1665 C1641 0.949 . S
H1666 C1643 0.950 . S
H1667 C1645 0.950 . S
C1668 C1669 1.349 . S
C1668 C1670 1.327 . S
C1668 H1693 0.950 1_554 S
C1669 C1668 1.349 . S
C1669 C1685 1.349 . S
C1670 C1668 1.327 . S
C1670 C1689 1.429 . S
C1670 H1694 0.950 . S
C1671 C1688 1.574 . S
C1671 C1690 1.368 . S
C1671 H1695 0.949 . S
H1672 C1676 0.949 . S
C1673 C1674 1.349 . S
C1673 C1675 1.327 . S
C1673 H1696 0.950 . S
C1674 C1673 1.349 . S
C1674 C1686 1.349 . S
C1675 C1673 1.327 . S
C1675 C1691 1.429 . S
C1675 H1697 0.950 . S
C1676 H1672 0.949 . S
C1676 C1684 1.574 . S
C1676 C1692 1.368 . S
H1677 C1685 0.950 . S
H1678 C1683 0.950 . S
H1679 C1684 0.949 . S
H1680 C1686 0.950 . S
H1681 C1687 0.950 . S
H1682 C1688 0.949 . S
C1683 H1678 0.950 . S
C1683 C1685 1.327 . S
C1683 C1689 1.429 . S
C1684 C1676 1.574 . S
C1684 H1679 0.949 . S
C1684 C1690 1.368 . S
C1685 C1669 1.349 . S
C1685 H1677 0.950 . S
C1685 C1683 1.327 . S
C1686 C1674 1.349 . S
C1686 H1680 0.950 . S
C1686 C1687 1.327 . S
C1687 H1681 0.950 . S
C1687 C1686 1.327 . S
C1687 C1691 1.429 . S
C1688 C1671 1.574 . S
C1688 H1682 0.949 . S
C1688 C1692 1.368 . S
C1689 C1670 1.429 . S
C1689 C1683 1.429 . S
C1689 C1690 1.523 . S
C1690 C1671 1.368 . S
C1690 C1684 1.368 . S
C1690 C1689 1.523 . S
C1691 C1675 1.429 . S
C1691 C1687 1.429 . S
C1691 C1692 1.523 . S
C1692 C1676 1.368 . S
C1692 C1688 1.368 . S
C1692 C1691 1.523 . S
H1693 C1668 0.950 1_556 S
H1694 C1670 0.950 . S
H1695 C1671 0.949 . S
H1696 C1673 0.950 . S
H1697 C1675 0.950 . S
C1698 C1699 1.349 . S
C1698 C1700 1.327 . S
C1698 H1723 0.950 . S
C1699 C1698 1.349 . S
C1699 C1715 1.349 . S
C1700 C1698 1.327 . S
C1700 C1719 1.429 . S
C1700 H1724 0.950 . S
C1701 C1718 1.574 . S
C1701 C1720 1.368 . S
C1701 H1725 0.949 . S
H1702 C1706 0.949 . S
C1703 C1704 1.349 . S
C1703 C1705 1.327 . S
C1703 H1726 0.950 . S
C1704 C1703 1.349 . S
C1704 C1716 1.349 . S
C1705 C1703 1.327 . S
C1705 C1721 1.429 . S
C1705 H1727 0.950 . S
C1706 H1702 0.949 . S
C1706 C1714 1.574 . S
C1706 C1722 1.368 . S
H1707 C1715 0.950 . S
H1708 C1713 0.950 . S
H1709 C1714 0.949 . S
H1710 C1716 0.950 . S
H1711 C1717 0.950 . S
H1712 C1718 0.949 . S
C1713 H1708 0.950 . S
C1713 C1715 1.327 . S
C1713 C1719 1.429 . S
C1714 C1706 1.574 . S
C1714 H1709 0.949 . S
C1714 C1720 1.368 . S
C1715 C1699 1.349 . S
C1715 H1707 0.950 . S
C1715 C1713 1.327 . S
C1716 C1704 1.349 . S
C1716 H1710 0.950 . S
C1716 C1717 1.327 . S
C1717 H1711 0.950 . S
C1717 C1716 1.327 . S
C1717 C1721 1.429 . S
C1718 C1701 1.574 . S
C1718 H1712 0.949 . S
C1718 C1722 1.368 . S
C1719 C1700 1.429 . S
C1719 C1713 1.429 . S
C1719 C1720 1.523 . S
C1720 C1701 1.368 . S
C1720 C1714 1.368 . S
C1720 C1719 1.523 . S
C1721 C1705 1.429 . S
C1721 C1717 1.429 . S
C1721 C1722 1.523 . S
C1722 C1706 1.368 . S
C1722 C1718 1.368 . S
C1722 C1721 1.523 . S
H1723 C1698 0.950 . S
H1724 C1700 0.950 . S
H1725 C1701 0.949 . S
H1726 C1703 0.950 . S
H1727 C1705 0.950 . S
C1728 C1729 1.349 . S
C1728 C1730 1.327 . S
C1728 H1753 0.950 . S
C1729 C1728 1.349 . S
C1729 C1745 1.349 . S
C1730 C1728 1.327 . S
C1730 C1749 1.429 . S
C1730 H1754 0.950 . S
C1731 C1748 1.574 . S
C1731 C1750 1.368 . S
C1731 H1755 0.949 . S
H1732 C1736 0.949 . S
C1733 C1734 1.349 . S
C1733 C1735 1.327 . S
C1733 H1756 0.950 . S
C1734 C1733 1.349 . S
C1734 C1746 1.349 . S
C1735 C1733 1.327 . S
C1735 C1751 1.429 . S
C1735 H1757 0.950 . S
C1736 H1732 0.949 . S
C1736 C1744 1.574 . S
C1736 C1752 1.368 . S
H1737 C1745 0.934 1_455 S
H1738 C1743 0.950 . S
H1739 C1744 0.949 . S
H1740 C1746 0.950 . S
H1741 C1747 0.950 . S
H1742 C1748 0.949 . S
C1743 H1738 0.950 . S
C1743 C1745 1.327 . S
C1743 C1749 1.429 . S
C1744 C1736 1.574 . S
C1744 H1739 0.949 . S
C1744 C1750 1.368 . S
C1745 C1729 1.349 . S
C1745 H1737 0.934 1_655 S
C1745 C1743 1.327 . S
C1746 C1734 1.349 . S
C1746 H1740 0.950 . S
C1746 C1747 1.327 . S
C1747 H1741 0.950 . S
C1747 C1746 1.327 . S
C1747 C1751 1.429 . S
C1748 C1731 1.574 . S
C1748 H1742 0.949 . S
C1748 C1752 1.368 . S
C1749 C1730 1.429 . S
C1749 C1743 1.429 . S
C1749 C1750 1.523 . S
C1750 C1731 1.368 . S
C1750 C1744 1.368 . S
C1750 C1749 1.523 . S
C1751 C1735 1.429 . S
C1751 C1747 1.429 . S
C1751 C1752 1.523 . S
C1752 C1736 1.368 . S
C1752 C1748 1.368 . S
C1752 C1751 1.523 . S
H1753 C1728 0.950 . S
H1754 C1730 0.950 . S
H1755 C1731 0.949 . S
H1756 C1733 0.950 . S
H1757 C1735 0.950 . S
C1758 C1759 1.349 . S
C1758 C1760 1.327 . S
C1758 H1783 0.950 . S
C1759 C1758 1.349 . S
C1759 C1775 1.349 . S
C1760 C1758 1.327 . S
C1760 C1779 1.429 . S
C1760 H1784 0.950 . S
C1761 C1778 1.574 . S
C1761 C1780 1.368 . S
C1761 H1785 0.949 . S
H1762 C1766 0.949 . S
C1763 C1764 1.349 . S
C1763 C1765 1.327 . S
C1763 H1786 0.950 . S
C1764 C1763 1.349 . S
C1764 C1776 1.349 . S
C1765 C1763 1.327 . S
C1765 C1781 1.429 . S
C1765 H1787 0.950 . S
C1766 H1762 0.949 . S
C1766 C1774 1.574 . S
C1766 C1782 1.368 . S
H1767 C1775 0.950 . S
H1768 C1773 0.950 . S
H1769 C1774 0.949 . S
H1770 C1776 0.950 . S
H1771 C1777 0.950 . S
H1772 C1778 0.949 . S
C1773 H1768 0.950 . S
C1773 C1775 1.327 . S
C1773 C1779 1.429 . S
C1774 C1766 1.574 . S
C1774 H1769 0.949 . S
C1774 C1780 1.368 . S
C1775 C1759 1.349 . S
C1775 H1767 0.950 . S
C1775 C1773 1.327 . S
C1776 C1764 1.349 . S
C1776 H1770 0.950 . S
C1776 C1777 1.327 . S
C1777 H1771 0.950 . S
C1777 C1776 1.327 . S
C1777 C1781 1.429 . S
C1778 C1761 1.574 . S
C1778 H1772 0.949 . S
C1778 C1782 1.368 . S
C1779 C1760 1.429 . S
C1779 C1773 1.429 . S
C1779 C1780 1.523 . S
C1780 C1761 1.368 . S
C1780 C1774 1.368 . S
C1780 C1779 1.523 . S
C1781 C1765 1.429 . S
C1781 C1777 1.429 . S
C1781 C1782 1.523 . S
C1782 C1766 1.368 . S
C1782 C1778 1.368 . S
C1782 C1781 1.523 . S
H1783 C1758 0.950 . S
H1784 C1760 0.950 . S
H1785 C1761 0.949 . S
H1786 C1763 0.950 . S
H1787 C1765 0.950 . S
C1788 C1789 1.349 . S
C1788 C1790 1.327 . S
C1788 H1813 0.950 . S
C1789 C1788 1.349 . S
C1789 C1805 1.349 . S
C1790 C1788 1.327 . S
C1790 C1809 1.429 . S
C1790 H1814 0.950 . S
C1791 C1808 1.574 . S
C1791 C1810 1.368 . S
C1791 H1815 0.949 . S
H1792 C1796 0.949 . S
C1793 C1794 1.349 . S
C1793 C1795 1.327 . S
C1793 H1816 0.950 . S
C1794 C1793 1.349 . S
C1794 C1806 1.349 . S
C1795 C1793 1.327 . S
C1795 C1811 1.429 . S
C1795 H1817 0.950 . S
C1796 H1792 0.949 . S
C1796 C1804 1.574 . S
C1796 C1812 1.368 . S
H1797 C1805 0.950 . S
H1798 C1803 0.950 . S
H1799 C1804 0.949 . S
H1800 C1806 0.950 . S
H1801 C1807 0.950 . S
H1802 C1808 0.949 . S
C1803 H1798 0.950 . S
C1803 C1805 1.327 . S
C1803 C1809 1.429 . S
C1804 C1796 1.574 . S
C1804 H1799 0.949 . S
C1804 C1810 1.368 . S
C1805 C1789 1.349 . S
C1805 H1797 0.950 . S
C1805 C1803 1.327 . S
C1806 C1794 1.349 . S
C1806 H1800 0.950 . S
C1806 C1807 1.327 . S
C1807 H1801 0.950 . S
C1807 C1806 1.327 . S
C1807 C1811 1.429 . S
C1808 C1791 1.574 . S
C1808 H1802 0.949 . S
C1808 C1812 1.368 . S
C1809 C1790 1.429 . S
C1809 C1803 1.429 . S
C1809 C1810 1.523 . S
C1810 C1791 1.368 . S
C1810 C1804 1.368 . S
C1810 C1809 1.523 . S
C1811 C1795 1.429 . S
C1811 C1807 1.429 . S
C1811 C1812 1.523 . S
C1812 C1796 1.368 . S
C1812 C1808 1.368 . S
C1812 C1811 1.523 . S
H1813 C1788 0.950 . S
H1814 C1790 0.950 . S
H1815 C1791 0.949 . S
H1816 C1793 0.950 . S
H1817 C1795 0.950 . S
C1818 C1819 1.349 . S
C1818 C1820 1.327 . S
C1818 H1843 0.950 1_455 S
C1819 C1818 1.349 . S
C1819 C1835 1.349 . S
C1820 C1818 1.327 . S
C1820 C1839 1.429 . S
C1820 H1844 0.950 . S
C1821 C1838 1.574 . S
C1821 C1840 1.368 . S
C1821 H1845 0.949 . S
H1822 C1826 0.949 . S
C1823 C1824 1.349 . S
C1823 C1825 1.327 . S
C1823 H1846 0.950 . S
C1824 C1823 1.349 . S
C1824 C1836 1.349 . S
C1825 C1823 1.327 . S
C1825 C1841 1.429 . S
C1825 H1847 0.950 . S
C1826 H1822 0.949 . S
C1826 C1834 1.574 . S
C1826 C1842 1.368 . S
H1827 C1835 0.950 . S
H1828 C1833 0.950 . S
H1829 C1834 0.949 . S
H1830 C1836 0.950 . S
H1831 C1837 0.950 . S
H1832 C1838 0.949 . S
C1833 H1828 0.950 . S
C1833 C1835 1.327 . S
C1833 C1839 1.429 . S
C1834 C1826 1.574 . S
C1834 H1829 0.949 . S
C1834 C1840 1.368 . S
C1835 C1819 1.349 . S
C1835 H1827 0.950 . S
C1835 C1833 1.327 . S
C1836 C1824 1.349 . S
C1836 H1830 0.950 . S
C1836 C1837 1.327 . S
C1837 H1831 0.950 . S
C1837 C1836 1.327 . S
C1837 C1841 1.429 . S
C1838 C1821 1.574 . S
C1838 H1832 0.949 . S
C1838 C1842 1.368 . S
C1839 C1820 1.429 . S
C1839 C1833 1.429 . S
C1839 C1840 1.523 . S
C1840 C1821 1.368 . S
C1840 C1834 1.368 . S
C1840 C1839 1.523 . S
C1841 C1825 1.429 . S
C1841 C1837 1.429 . S
C1841 C1842 1.523 . S
C1842 C1826 1.368 . S
C1842 C1838 1.368 . S
C1842 C1841 1.523 . S
H1843 C1818 0.950 1_655 S
H1844 C1820 0.950 . S
H1845 C1821 0.949 . S
H1846 C1823 0.950 . S
H1847 C1825 0.950 . S
C1848 C1849 1.349 . S
C1848 C1850 1.327 . S
C1848 H1873 0.950 . S
C1849 C1848 1.349 . S
C1849 C1865 1.349 . S
C1850 C1848 1.327 . S
C1850 C1869 1.429 . S
C1850 H1874 0.950 . S
C1851 C1868 1.574 . S
C1851 C1870 1.368 . S
C1851 H1875 0.949 . S
H1852 C1856 0.949 . S
C1853 C1854 1.349 . S
C1853 C1855 1.327 . S
C1853 H1876 0.950 1_565 S
C1854 C1853 1.349 . S
C1854 C1866 1.349 . S
C1855 C1853 1.327 . S
C1855 C1871 1.429 . S
C1855 H1877 0.950 . S
C1856 H1852 0.949 . S
C1856 C1864 1.574 . S
C1856 C1872 1.368 . S
H1857 C1865 0.950 . S
H1858 C1863 0.950 . S
H1859 C1864 0.949 . S
H1860 C1866 0.950 . S
H1861 C1867 0.950 . S
H1862 C1868 0.949 . S
C1863 H1858 0.950 . S
C1863 C1865 1.327 . S
C1863 C1869 1.429 . S
C1864 C1856 1.574 . S
C1864 H1859 0.949 . S
C1864 C1870 1.368 . S
C1865 C1849 1.349 . S
C1865 H1857 0.950 . S
C1865 C1863 1.327 . S
C1866 C1854 1.349 . S
C1866 H1860 0.950 . S
C1866 C1867 1.327 . S
C1867 H1861 0.950 . S
C1867 C1866 1.327 . S
C1867 C1871 1.429 . S
C1868 C1851 1.574 . S
C1868 H1862 0.949 . S
C1868 C1872 1.368 . S
C1869 C1850 1.429 . S
C1869 C1863 1.429 . S
C1869 C1870 1.523 . S
C1870 C1851 1.368 . S
C1870 C1864 1.368 . S
C1870 C1869 1.523 . S
C1871 C1855 1.429 . S
C1871 C1867 1.429 . S
C1871 C1872 1.523 . S
C1872 C1856 1.368 . S
C1872 C1868 1.368 . S
C1872 C1871 1.523 . S
H1873 C1848 0.950 . S
H1874 C1850 0.950 . S
H1875 C1851 0.949 . S
H1876 C1853 0.950 1_545 S
H1877 C1855 0.950 . S
C1878 C1879 1.349 . S
C1878 C1880 1.327 . S
C1878 H1903 0.950 . S
C1879 C1878 1.349 . S
C1879 C1895 1.349 . S
C1880 C1878 1.327 . S
C1880 C1899 1.429 . S
C1880 H1904 0.950 . S
C1881 C1898 1.574 . S
C1881 C1900 1.368 . S
C1881 H1905 0.949 . S
H1882 C1886 0.949 . S
C1883 C1884 1.349 . S
C1883 C1885 1.327 . S
C1883 H1906 0.950 . S
C1884 C1883 1.349 . S
C1884 C1896 1.349 . S
C1885 C1883 1.327 . S
C1885 C1901 1.429 . S
C1885 H1907 0.950 . S
C1886 H1882 0.949 . S
C1886 C1894 1.574 . S
C1886 C1902 1.368 . S
H1887 C1895 0.950 . S
H1888 C1893 0.950 . S
H1889 C1894 0.949 . S
H1890 C1896 0.950 . S
H1891 C1897 0.950 . S
H1892 C1898 0.949 . S
C1893 H1888 0.950 . S
C1893 C1895 1.327 . S
C1893 C1899 1.429 . S
C1894 C1886 1.574 . S
C1894 H1889 0.949 . S
C1894 C1900 1.368 . S
C1895 C1879 1.349 . S
C1895 H1887 0.950 . S
C1895 C1893 1.327 . S
C1896 C1884 1.349 . S
C1896 H1890 0.950 . S
C1896 C1897 1.327 . S
C1897 H1891 0.950 . S
C1897 C1896 1.327 . S
C1897 C1901 1.429 . S
C1898 C1881 1.574 . S
C1898 H1892 0.949 . S
C1898 C1902 1.368 . S
C1899 C1880 1.429 . S
C1899 C1893 1.429 . S
C1899 C1900 1.523 . S
C1900 C1881 1.368 . S
C1900 C1894 1.368 . S
C1900 C1899 1.523 . S
C1901 C1885 1.429 . S
C1901 C1897 1.429 . S
C1901 C1902 1.523 . S
C1902 C1886 1.368 . S
C1902 C1898 1.368 . S
C1902 C1901 1.523 . S
H1903 C1878 0.950 . S
H1904 C1880 0.950 . S
H1905 C1881 0.949 . S
H1906 C1883 0.950 . S
H1907 C1885 0.950 . S
C1908 C1909 1.349 . S
C1908 C1910 1.327 . S
C1908 H1933 0.950 . S
C1909 C1908 1.349 . S
C1909 C1925 1.349 . S
C1910 C1908 1.327 . S
C1910 C1929 1.429 . S
C1910 H1934 0.950 . S
C1911 C1928 1.574 . S
C1911 C1930 1.368 . S
C1911 H1935 0.949 . S
H1912 C1916 0.949 . S
C1913 C1914 1.349 . S
C1913 C1915 1.327 . S
C1913 H1936 0.950 . S
C1914 C1913 1.349 . S
C1914 C1926 1.349 . S
C1915 C1913 1.327 . S
C1915 C1931 1.429 . S
C1915 H1937 0.950 . S
C1916 H1912 0.949 . S
C1916 C1924 1.574 . S
C1916 C1932 1.368 . S
H1917 C1925 0.950 . S
H1918 C1923 0.950 . S
H1919 C1924 0.949 . S
H1920 C1926 0.950 . S
H1921 C1927 0.950 . S
H1922 C1928 0.949 . S
C1923 H1918 0.950 . S
C1923 C1925 1.327 . S
C1923 C1929 1.429 . S
C1924 C1916 1.574 . S
C1924 H1919 0.949 . S
C1924 C1930 1.368 . S
C1925 C1909 1.349 . S
C1925 H1917 0.950 . S
C1925 C1923 1.327 . S
C1926 C1914 1.349 . S
C1926 H1920 0.950 . S
C1926 C1927 1.327 . S
C1927 H1921 0.950 . S
C1927 C1926 1.327 . S
C1927 C1931 1.429 . S
C1928 C1911 1.574 . S
C1928 H1922 0.949 . S
C1928 C1932 1.368 . S
C1929 C1910 1.429 . S
C1929 C1923 1.429 . S
C1929 C1930 1.523 . S
C1930 C1911 1.368 . S
C1930 C1924 1.368 . S
C1930 C1929 1.523 . S
C1931 C1915 1.429 . S
C1931 C1927 1.429 . S
C1931 C1932 1.523 . S
C1932 C1916 1.368 . S
C1932 C1928 1.368 . S
C1932 C1931 1.523 . S
H1933 C1908 0.950 . S
H1934 C1910 0.950 . S
H1935 C1911 0.949 . S
H1936 C1913 0.950 . S
H1937 C1915 0.950 . S
C1938 C1939 1.349 . S
C1938 C1940 1.327 . S
C1938 H1963 0.950 . S
C1939 C1938 1.349 . S
C1939 C1955 1.349 . S
C1940 C1938 1.327 . S
C1940 C1959 1.429 . S
C1940 H1964 0.950 . S
C1941 C1958 1.574 . S
C1941 C1960 1.368 . S
C1941 H1965 0.949 . S
H1942 C1946 0.949 . S
C1943 C1944 1.349 . S
C1943 C1945 1.327 . S
C1943 H1966 0.950 . S
C1944 C1943 1.349 . S
C1944 C1956 1.349 . S
C1945 C1943 1.327 . S
C1945 C1961 1.429 . S
C1945 H1967 0.950 . S
C1946 H1942 0.949 . S
C1946 C1954 1.574 . S
C1946 C1962 1.368 . S
H1947 C1955 0.950 1_565 S
H1948 C1953 0.950 . S
H1949 C1954 0.949 . S
H1950 C1956 0.950 . S
H1951 C1957 0.950 . S
H1952 C1958 0.949 . S
C1953 H1948 0.950 . S
C1953 C1955 1.327 . S
C1953 C1959 1.429 . S
C1954 C1946 1.574 . S
C1954 H1949 0.949 . S
C1954 C1960 1.368 . S
C1955 C1939 1.349 . S
C1955 H1947 0.950 1_545 S
C1955 C1953 1.327 . S
C1956 C1944 1.349 . S
C1956 H1950 0.950 . S
C1956 C1957 1.327 . S
C1957 H1951 0.950 . S
C1957 C1956 1.327 . S
C1957 C1961 1.429 . S
C1958 C1941 1.574 . S
C1958 H1952 0.949 . S
C1958 C1962 1.368 . S
C1959 C1940 1.429 . S
C1959 C1953 1.429 . S
C1959 C1960 1.523 . S
C1960 C1941 1.368 . S
C1960 C1954 1.368 . S
C1960 C1959 1.523 . S
C1961 C1945 1.429 . S
C1961 C1957 1.429 . S
C1961 C1962 1.523 . S
C1962 C1946 1.368 . S
C1962 C1958 1.368 . S
C1962 C1961 1.523 . S
H1963 C1938 0.950 . S
H1964 C1940 0.950 . S
H1965 C1941 0.949 . S
H1966 C1943 0.950 . S
H1967 C1945 0.950 . S
C1968 C1969 1.349 . S
C1968 C1970 1.327 . S
C1968 H1993 0.950 . S
C1969 C1968 1.349 . S
C1969 C1985 1.349 . S
C1970 C1968 1.327 . S
C1970 C1989 1.429 . S
C1970 H1994 0.950 . S
C1971 C1988 1.574 1_455 S
C1971 C1990 1.368 . S
C1971 H1995 0.949 . S
H1972 C1976 0.949 . S
C1973 C1974 1.349 . S
C1973 C1975 1.327 . S
C1973 H1996 0.950 . S
C1974 C1973 1.349 . S
C1974 C1986 1.349 . S
C1975 C1973 1.327 . S
C1975 C1991 1.429 . S
C1975 H1997 0.950 . S
C1976 H1972 0.949 . S
C1976 C1984 1.574 . S
C1976 C1992 1.368 . S
H1977 C1985 0.950 . S
H1978 C1983 0.950 . S
H1979 C1984 0.949 . S
H1980 C1986 0.950 . S
H1981 C1987 0.950 . S
H1982 C1988 0.949 1_455 S
C1983 H1978 0.950 . S
C1983 C1985 1.327 . S
C1983 C1989 1.429 . S
C1984 C1976 1.574 . S
C1984 H1979 0.949 . S
C1984 C1990 1.368 1_655 S
C1985 C1969 1.349 . S
C1985 H1977 0.950 . S
C1985 C1983 1.327 . S
C1986 C1974 1.349 . S
C1986 H1980 0.950 . S
C1986 C1987 1.327 . S
C1987 H1981 0.950 . S
C1987 C1986 1.327 . S
C1987 C1991 1.429 . S
C1988 C1971 1.574 1_655 S
C1988 H1982 0.949 1_655 S
C1988 C1992 1.368 . S
C1989 C1970 1.429 . S
C1989 C1983 1.429 . S
C1989 C1990 1.523 . S
C1990 C1971 1.368 . S
C1990 C1984 1.368 1_455 S
C1990 C1989 1.523 . S
C1991 C1975 1.429 . S
C1991 C1987 1.429 . S
C1991 C1992 1.523 . S
C1992 C1976 1.368 . S
C1992 C1988 1.368 . S
C1992 C1991 1.523 . S
H1993 C1968 0.950 . S
H1994 C1970 0.950 . S
H1995 C1971 0.949 . S
H1996 C1973 0.950 . S
H1997 C1975 0.950 . S
C1998 C1999 1.349 . S
C1998 C2000 1.327 . S
C1998 H2023 0.950 . S
C1999 C1998 1.349 . S
C1999 C2015 1.349 . S
C2000 C1998 1.327 . S
C2000 C2019 1.429 . S
C2000 H2024 0.950 . S
C2001 C2018 1.574 . S
C2001 C2020 1.368 . S
C2001 H2025 0.949 . S
H2002 C2006 0.949 . S
C2003 C2004 1.349 . S
C2003 C2005 1.327 . S
C2003 H2026 0.950 . S
C2004 C2003 1.349 . S
C2004 C2016 1.349 . S
C2005 C2003 1.327 . S
C2005 C2021 1.429 . S
C2005 H2027 0.950 . S
C2006 H2002 0.949 . S
C2006 C2014 1.574 . S
C2006 C2022 1.368 . S
H2007 C2015 0.950 . S
H2008 C2013 0.950 . S
H2009 C2014 0.949 . S
H2010 C2016 0.950 . S
H2011 C2017 0.950 . S
H2012 C2018 0.949 . S
C2013 H2008 0.950 . S
C2013 C2015 1.327 . S
C2013 C2019 1.429 . S
C2014 C2006 1.574 . S
C2014 H2009 0.949 . S
C2014 C2020 1.368 . S
C2015 C1999 1.349 . S
C2015 H2007 0.950 . S
C2015 C2013 1.327 . S
C2016 C2004 1.349 . S
C2016 H2010 0.950 . S
C2016 C2017 1.327 . S
C2017 H2011 0.950 . S
C2017 C2016 1.327 . S
C2017 C2021 1.429 . S
C2018 C2001 1.574 . S
C2018 H2012 0.949 . S
C2018 C2022 1.368 . S
C2019 C2000 1.429 . S
C2019 C2013 1.429 . S
C2019 C2020 1.523 . S
C2020 C2001 1.368 . S
C2020 C2014 1.368 . S
C2020 C2019 1.523 . S
C2021 C2005 1.429 . S
C2021 C2017 1.429 . S
C2021 C2022 1.523 . S
C2022 C2006 1.368 . S
C2022 C2018 1.368 . S
C2022 C2021 1.523 . S
H2023 C1998 0.950 . S
H2024 C2000 0.950 . S
H2025 C2001 0.949 . S
H2026 C2003 0.950 . S
H2027 C2005 0.950 . S
C2028 C2029 1.349 . S
C2028 C2030 1.327 . S
C2028 H2053 0.950 . S
C2029 C2028 1.349 . S
C2029 C2045 1.349 . S
C2030 C2028 1.327 . S
C2030 C2049 1.429 . S
C2030 H2054 0.950 . S
C2031 C2048 1.574 . S
C2031 C2050 1.368 . S
C2031 H2055 0.949 . S
H2032 C2036 0.949 . S
C2033 C2034 1.349 . S
C2033 C2035 1.327 . S
C2033 H2056 0.950 . S
C2034 C2033 1.349 . S
C2034 C2046 1.349 . S
C2035 C2033 1.327 . S
C2035 C2051 1.429 . S
C2035 H2057 0.950 . S
C2036 H2032 0.949 . S
C2036 C2044 1.574 . S
C2036 C2052 1.368 . S
H2037 C2045 0.950 . S
H2038 C2043 0.950 . S
H2039 C2044 0.949 . S
H2040 C2046 0.950 . S
H2041 C2047 0.950 . S
H2042 C2048 0.949 . S
C2043 H2038 0.950 . S
C2043 C2045 1.327 . S
C2043 C2049 1.429 . S
C2044 C2036 1.574 . S
C2044 H2039 0.949 . S
C2044 C2050 1.368 . S
C2045 C2029 1.349 . S
C2045 H2037 0.950 . S
C2045 C2043 1.327 . S
C2046 C2034 1.349 . S
C2046 H2040 0.950 . S
C2046 C2047 1.327 . S
C2047 H2041 0.950 . S
C2047 C2046 1.327 . S
C2047 C2051 1.429 . S
C2048 C2031 1.574 . S
C2048 H2042 0.949 . S
C2048 C2052 1.368 . S
C2049 C2030 1.429 . S
C2049 C2043 1.429 . S
C2049 C2050 1.523 . S
C2050 C2031 1.368 . S
C2050 C2044 1.368 . S
C2050 C2049 1.523 . S
C2051 C2035 1.429 . S
C2051 C2047 1.429 . S
C2051 C2052 1.523 . S
C2052 C2036 1.368 . S
C2052 C2048 1.368 . S
C2052 C2051 1.523 . S
H2053 C2028 0.950 . S
H2054 C2030 0.950 . S
H2055 C2031 0.949 . S
H2056 C2033 0.950 . S
H2057 C2035 0.950 . S
C2058 C2059 1.349 . S
C2058 C2060 1.327 . S
C2058 H2083 0.950 . S
C2059 C2058 1.349 . S
C2059 C2075 1.349 . S
C2060 C2058 1.327 . S
C2060 C2079 1.429 . S
C2060 H2084 0.950 . S
C2061 C2078 1.574 1_455 S
C2061 C2080 1.368 . S
C2061 H2085 0.949 . S
H2062 C2066 0.948 1_655 S
C2063 C2064 1.349 . S
C2063 C2065 1.327 . S
C2063 H2086 0.950 . S
C2064 C2063 1.349 . S
C2064 C2076 1.349 . S
C2065 C2063 1.327 . S
C2065 C2081 1.429 . S
C2065 H2087 0.950 . S
C2066 H2062 0.948 1_455 S
C2066 C2074 1.574 . S
C2066 C2082 1.368 1_455 S
H2067 C2075 0.950 . S
H2068 C2073 0.950 . S
H2069 C2074 0.949 . S
H2070 C2076 0.950 . S
H2071 C2077 0.950 . S
H2072 C2078 0.949 . S
C2073 H2068 0.950 . S
C2073 C2075 1.327 . S
C2073 C2079 1.429 . S
C2074 C2066 1.574 . S
C2074 H2069 0.949 . S
C2074 C2080 1.368 . S
C2075 C2059 1.349 . S
C2075 H2067 0.950 . S
C2075 C2073 1.327 . S
C2076 C2064 1.349 . S
C2076 H2070 0.950 . S
C2076 C2077 1.327 . S
C2077 H2071 0.950 . S
C2077 C2076 1.327 . S
C2077 C2081 1.429 . S
C2078 C2061 1.574 1_655 S
C2078 H2072 0.949 . S
C2078 C2082 1.368 . S
C2079 C2060 1.429 . S
C2079 C2073 1.429 . S
C2079 C2080 1.523 . S
C2080 C2061 1.368 . S
C2080 C2074 1.368 . S
C2080 C2079 1.523 . S
C2081 C2065 1.429 . S
C2081 C2077 1.429 . S
C2081 C2082 1.523 . S
C2082 C2066 1.368 1_655 S
C2082 C2078 1.368 . S
C2082 C2081 1.523 . S
H2083 C2058 0.950 . S
H2084 C2060 0.950 . S
H2085 C2061 0.949 . S
H2086 C2063 0.950 . S
H2087 C2065 0.950 . S
C2088 C2089 1.349 . S
C2088 C2090 1.346 . S
C2088 H2113 0.962 . S
C2089 C2088 1.349 . S
C2089 C2105 1.349 . S
C2090 C2088 1.346 . S
C2090 C2109 1.455 . S
C2090 H2114 0.905 1_545 S
C2091 C2108 1.574 . S
C2091 C2110 1.368 . S
C2091 H2115 0.949 . S
H2092 C2096 0.949 . S
C2093 C2094 1.349 . S
C2093 C2095 1.327 . S
C2093 H2116 0.950 . S
C2094 C2093 1.349 . S
C2094 C2106 1.349 . S
C2095 C2093 1.327 . S
C2095 C2111 1.429 . S
C2095 H2117 0.950 1_565 S
C2096 H2092 0.949 . S
C2096 C2104 1.574 . S
C2096 C2112 1.368 . S
H2097 C2105 0.950 . S
H2098 C2103 0.950 . S
H2099 C2104 0.949 . S
H2100 C2106 0.950 . S
H2101 C2107 0.950 . S
H2102 C2108 0.949 . S
C2103 H2098 0.950 . S
C2103 C2105 1.327 . S
C2103 C2109 1.429 . S
C2104 C2096 1.574 . S
C2104 H2099 0.949 . S
C2104 C2110 1.368 1_565 S
C2105 C2089 1.349 . S
C2105 H2097 0.950 . S
C2105 C2103 1.327 . S
C2106 C2094 1.349 . S
C2106 H2100 0.950 . S
C2106 C2107 1.327 . S
C2107 H2101 0.950 . S
C2107 C2106 1.327 . S
C2107 C2111 1.429 . S
C2108 C2091 1.574 . S
C2108 H2102 0.949 . S
C2108 C2112 1.368 1_545 S
C2109 C2090 1.455 . S
C2109 C2103 1.429 . S
C2109 C2110 1.523 . S
C2110 C2091 1.368 . S
C2110 C2104 1.368 1_545 S
C2110 C2109 1.523 . S
C2111 C2095 1.429 . S
C2111 C2107 1.429 . S
C2111 C2112 1.523 . S
C2112 C2096 1.368 . S
C2112 C2108 1.368 1_565 S
C2112 C2111 1.523 . S
H2113 C2088 0.962 . S
H2114 C2090 0.905 1_565 S
H2115 C2091 0.949 . S
H2116 C2093 0.950 . S
H2117 C2095 0.950 1_545 S
C2118 C2119 1.349 . S
C2118 C2120 1.327 . S
C2118 H2143 0.950 . S
C2119 C2118 1.349 . S
C2119 C2135 1.349 . S
C2120 C2118 1.327 . S
C2120 C2139 1.429 . S
C2120 H2144 0.950 . S
C2121 C2138 1.574 . S
C2121 C2140 1.368 . S
C2121 H2145 0.949 . S
H2122 C2126 0.949 . S
C2123 C2124 1.349 . S
C2123 C2125 1.327 . S
C2123 H2146 0.950 . S
C2124 C2123 1.349 . S
C2124 C2136 1.349 . S
C2125 C2123 1.327 . S
C2125 C2141 1.429 . S
C2125 H2147 0.950 1_565 S
C2126 H2122 0.949 . S
C2126 C2134 1.574 . S
C2126 C2142 1.368 . S
H2127 C2135 0.950 . S
H2128 C2133 0.950 . S
H2129 C2134 0.949 . S
H2130 C2136 0.950 . S
H2131 C2137 0.950 . S
H2132 C2138 0.949 . S
C2133 H2128 0.950 . S
C2133 C2135 1.327 . S
C2133 C2139 1.429 . S
C2134 C2126 1.574 . S
C2134 H2129 0.949 . S
C2134 C2140 1.368 1_565 S
C2135 C2119 1.349 . S
C2135 H2127 0.950 . S
C2135 C2133 1.327 . S
C2136 C2124 1.349 . S
C2136 H2130 0.950 . S
C2136 C2137 1.327 . S
C2137 H2131 0.950 . S
C2137 C2136 1.327 . S
C2137 C2141 1.429 . S
C2138 C2121 1.574 . S
C2138 H2132 0.949 . S
C2138 C2142 1.368 1_545 S
C2139 C2120 1.429 . S
C2139 C2133 1.429 . S
C2139 C2140 1.523 . S
C2140 C2121 1.368 . S
C2140 C2134 1.368 1_545 S
C2140 C2139 1.523 . S
C2141 C2125 1.429 . S
C2141 C2137 1.429 . S
C2141 C2142 1.523 . S
C2142 C2126 1.368 . S
C2142 C2138 1.368 1_565 S
C2142 C2141 1.523 . S
H2143 C2118 0.950 . S
H2144 C2120 0.950 . S
H2145 C2121 0.949 . S
H2146 C2123 0.950 . S
H2147 C2125 0.950 1_545 S
C2148 C2149 1.349 . S
C2148 C2150 1.327 . S
C2148 H2173 0.950 . S
C2149 C2148 1.349 . S
C2149 C2165 1.349 . S
C2150 C2148 1.327 . S
C2150 C2169 1.429 . S
C2150 H2174 0.950 . S
C2151 C2168 1.574 . S
C2151 C2170 1.368 . S
C2151 H2175 0.949 . S
H2152 C2156 0.949 . S
C2153 C2154 1.349 . S
C2153 C2155 1.327 . S
C2153 H2176 0.950 . S
C2154 C2153 1.349 . S
C2154 C2166 1.349 . S
C2155 C2153 1.327 . S
C2155 C2171 1.429 . S
C2155 H2177 0.950 . S
C2156 H2152 0.949 . S
C2156 C2164 1.574 . S
C2156 C2172 1.368 . S
H2157 C2165 0.950 . S
H2158 C2163 0.950 . S
H2159 C2164 0.949 . S
H2160 C2166 0.950 . S
H2161 C2167 0.950 . S
H2162 C2168 0.949 . S
C2163 H2158 0.950 . S
C2163 C2165 1.327 . S
C2163 C2169 1.429 . S
C2164 C2156 1.574 . S
C2164 H2159 0.949 . S
C2164 C2170 1.368 . S
C2165 C2149 1.349 . S
C2165 H2157 0.950 . S
C2165 C2163 1.327 . S
C2166 C2154 1.349 . S
C2166 H2160 0.950 . S
C2166 C2167 1.327 . S
C2167 H2161 0.950 . S
C2167 C2166 1.327 . S
C2167 C2171 1.429 . S
C2168 C2151 1.574 . S
C2168 H2162 0.949 . S
C2168 C2172 1.368 . S
C2169 C2150 1.429 . S
C2169 C2163 1.429 . S
C2169 C2170 1.523 . S
C2170 C2151 1.368 . S
C2170 C2164 1.368 . S
C2170 C2169 1.523 . S
C2171 C2155 1.429 . S
C2171 C2167 1.429 . S
C2171 C2172 1.523 . S
C2172 C2156 1.368 . S
C2172 C2168 1.368 . S
C2172 C2171 1.523 . S
H2173 C2148 0.950 . S
H2174 C2150 0.950 . S
H2175 C2151 0.949 . S
H2176 C2153 0.950 . S
H2177 C2155 0.950 . S
C2178 C2179 1.349 . S
C2178 C2180 1.327 . S
C2178 H2203 0.950 . S
C2179 C2178 1.349 . S
C2179 C2195 1.349 . S
C2180 C2178 1.327 . S
C2180 C2199 1.429 . S
C2180 H2204 0.950 . S
C2181 C2198 1.574 . S
C2181 C2200 1.368 . S
C2181 H2205 0.949 . S
H2182 C2186 0.949 . S
C2183 C2184 1.349 . S
C2183 C2185 1.327 . S
C2183 H2206 0.950 . S
C2184 C2183 1.349 . S
C2184 C2196 1.349 . S
C2185 C2183 1.327 . S
C2185 C2201 1.429 . S
C2185 H2207 0.950 . S
C2186 H2182 0.949 . S
C2186 C2194 1.574 . S
C2186 C2202 1.368 . S
H2187 C2195 0.950 . S
H2188 C2193 0.950 . S
H2189 C2194 0.949 . S
H2190 C2196 0.950 . S
H2191 C2197 0.950 . S
H2192 C2198 0.949 . S
C2193 H2188 0.950 . S
C2193 C2195 1.327 . S
C2193 C2199 1.429 . S
C2194 C2186 1.574 . S
C2194 H2189 0.949 . S
C2194 C2200 1.368 . S
C2195 C2179 1.349 . S
C2195 H2187 0.950 . S
C2195 C2193 1.327 . S
C2196 C2184 1.349 . S
C2196 H2190 0.950 . S
C2196 C2197 1.327 . S
C2197 H2191 0.950 . S
C2197 C2196 1.327 . S
C2197 C2201 1.429 . S
C2198 C2181 1.574 . S
C2198 H2192 0.949 . S
C2198 C2202 1.368 . S
C2199 C2180 1.429 . S
C2199 C2193 1.429 . S
C2199 C2200 1.523 . S
C2200 C2181 1.368 . S
C2200 C2194 1.368 . S
C2200 C2199 1.523 . S
C2201 C2185 1.429 . S
C2201 C2197 1.429 . S
C2201 C2202 1.523 . S
C2202 C2186 1.368 . S
C2202 C2198 1.368 . S
C2202 C2201 1.523 . S
H2203 C2178 0.950 . S
H2204 C2180 0.950 . S
H2205 C2181 0.949 . S
H2206 C2183 0.950 . S
H2207 C2185 0.950 . S
C2208 C2209 1.349 . S
C2208 C2210 1.327 . S
C2208 H2233 0.950 . S
C2209 C2208 1.349 . S
C2209 C2225 1.349 . S
C2210 C2208 1.327 . S
C2210 C2229 1.429 . S
C2210 H2234 0.941 1_554 S
C2211 C2228 1.574 . S
C2211 C2230 1.368 . S
C2211 H2235 0.949 . S
H2212 C2216 0.949 . S
C2213 C2214 1.349 . S
C2213 C2215 1.327 . S
C2213 H2236 0.950 . S
C2214 C2213 1.349 . S
C2214 C2226 1.349 . S
C2215 C2213 1.327 . S
C2215 C2231 1.429 . S
C2215 H2237 0.950 . S
C2216 H2212 0.949 . S
C2216 C2224 1.574 . S
C2216 C2232 1.368 . S
H2217 C2225 0.950 . S
H2218 C2223 0.950 . S
H2219 C2224 0.949 . S
H2220 C2226 0.950 . S
H2221 C2227 0.950 . S
H2222 C2228 0.949 . S
C2223 H2218 0.950 . S
C2223 C2225 1.327 . S
C2223 C2229 1.429 . S
C2224 C2216 1.574 . S
C2224 H2219 0.949 . S
C2224 C2230 1.368 1_556 S
C2225 C2209 1.349 . S
C2225 H2217 0.950 . S
C2225 C2223 1.327 . S
C2226 C2214 1.349 . S
C2226 H2220 0.950 . S
C2226 C2227 1.327 . S
C2227 H2221 0.950 . S
C2227 C2226 1.327 . S
C2227 C2231 1.429 . S
C2228 C2211 1.574 . S
C2228 H2222 0.949 . S
C2228 C2232 1.368 1_554 S
C2229 C2210 1.429 . S
C2229 C2223 1.429 . S
C2229 C2230 1.523 . S
C2230 C2211 1.368 . S
C2230 C2224 1.368 1_554 S
C2230 C2229 1.523 . S
C2231 C2215 1.429 . S
C2231 C2227 1.429 . S
C2231 C2232 1.523 . S
C2232 C2216 1.368 . S
C2232 C2228 1.368 1_556 S
C2232 C2231 1.523 . S
H2233 C2208 0.950 . S
H2234 C2210 0.941 1_556 S
H2235 C2211 0.949 . S
H2236 C2213 0.950 . S
H2237 C2215 0.950 . S
C2238 C2239 1.349 . S
C2238 C2240 1.327 . S
C2238 H2263 0.950 . S
C2239 C2238 1.349 . S
C2239 C2255 1.349 . S
C2240 C2238 1.327 . S
C2240 C2259 1.429 . S
C2240 H2264 0.950 . S
C2241 C2258 1.574 . S
C2241 C2260 1.368 1_554 S
C2241 H2265 0.949 . S
H2242 C2246 0.949 . S
C2243 C2244 1.349 . S
C2243 C2245 1.327 . S
C2243 H2266 0.950 . S
C2244 C2243 1.349 . S
C2244 C2256 1.349 . S
C2245 C2243 1.327 . S
C2245 C2261 1.429 . S
C2245 H2267 0.950 . S
C2246 H2242 0.949 . S
C2246 C2254 1.574 . S
C2246 C2262 1.368 1_556 S
H2247 C2255 0.950 . S
H2248 C2253 0.950 1_554 S
H2249 C2254 0.949 . S
H2250 C2256 0.950 . S
H2251 C2257 0.950 1_556 S
H2252 C2258 0.949 . S
C2253 H2248 0.950 1_556 S
C2253 C2255 1.327 . S
C2253 C2259 1.429 . S
C2254 C2246 1.574 . S
C2254 H2249 0.949 . S
C2254 C2260 1.368 . S
C2255 C2239 1.349 . S
C2255 H2247 0.950 . S
C2255 C2253 1.327 . S
C2256 C2244 1.349 . S
C2256 H2250 0.950 . S
C2256 C2257 1.327 . S
C2257 H2251 0.950 1_554 S
C2257 C2256 1.327 . S
C2257 C2261 1.429 . S
C2258 C2241 1.574 . S
C2258 H2252 0.949 . S
C2258 C2262 1.368 . S
C2259 C2240 1.429 . S
C2259 C2253 1.429 . S
C2259 C2260 1.523 . S
C2260 C2241 1.368 1_556 S
C2260 C2254 1.368 . S
C2260 C2259 1.523 . S
C2261 C2245 1.429 . S
C2261 C2257 1.429 . S
C2261 C2262 1.523 . S
C2262 C2246 1.368 1_554 S
C2262 C2258 1.368 . S
C2262 C2261 1.523 . S
H2263 C2238 0.950 . S
H2264 C2240 0.950 . S
H2265 C2241 0.949 . S
H2266 C2243 0.950 . S
H2267 C2245 0.950 . S
C2268 C2269 1.349 . S
C2268 C2270 1.327 . S
C2268 H2293 0.950 . S
C2269 C2268 1.349 . S
C2269 C2285 1.349 . S
C2270 C2268 1.327 . S
C2270 C2289 1.429 . S
C2270 H2294 0.950 . S
C2271 C2288 1.574 . S
C2271 C2290 1.368 . S
C2271 H2295 0.949 . S
H2272 C2276 0.949 . S
C2273 C2274 1.349 . S
C2273 C2275 1.327 . S
C2273 H2296 0.950 . S
C2274 C2273 1.349 . S
C2274 C2286 1.349 . S
C2275 C2273 1.327 . S
C2275 C2291 1.429 . S
C2275 H2297 0.950 . S
C2276 H2272 0.949 . S
C2276 C2284 1.574 . S
C2276 C2292 1.368 . S
H2277 C2285 0.950 . S
H2278 C2283 0.950 . S
H2279 C2284 0.949 . S
H2280 C2286 0.950 . S
H2281 C2287 0.950 . S
H2282 C2288 0.949 . S
C2283 H2278 0.950 . S
C2283 C2285 1.327 . S
C2283 C2289 1.429 . S
C2284 C2276 1.574 . S
C2284 H2279 0.949 . S
C2284 C2290 1.368 . S
C2285 C2269 1.349 . S
C2285 H2277 0.950 . S
C2285 C2283 1.327 . S
C2286 C2274 1.349 . S
C2286 H2280 0.950 . S
C2286 C2287 1.327 . S
C2287 H2281 0.950 . S
C2287 C2286 1.327 . S
C2287 C2291 1.429 . S
C2288 C2271 1.574 . S
C2288 H2282 0.949 . S
C2288 C2292 1.368 . S
C2289 C2270 1.429 . S
C2289 C2283 1.429 . S
C2289 C2290 1.523 . S
C2290 C2271 1.368 . S
C2290 C2284 1.368 . S
C2290 C2289 1.523 . S
C2291 C2275 1.429 . S
C2291 C2287 1.429 . S
C2291 C2292 1.523 . S
C2292 C2276 1.368 . S
C2292 C2288 1.368 . S
C2292 C2291 1.523 . S
H2293 C2268 0.950 . S
H2294 C2270 0.950 . S
H2295 C2271 0.949 . S
H2296 C2273 0.950 . S
H2297 C2275 0.950 . S
C2298 C2299 1.349 . S
C2298 C2300 1.327 . S
C2298 H2323 0.950 . S
C2299 C2298 1.349 . S
C2299 C2315 1.349 . S
C2300 C2298 1.327 . S
C2300 C2319 1.429 . S
C2300 H2324 0.950 . S
C2301 C2318 1.574 . S
C2301 C2320 1.368 . S
C2301 H2325 0.949 . S
H2302 C2306 0.949 . S
C2303 C2304 1.349 . S
C2303 C2305 1.327 . S
C2303 H2326 0.950 . S
C2304 C2303 1.349 . S
C2304 C2316 1.349 . S
C2305 C2303 1.327 . S
C2305 C2321 1.429 . S
C2305 H2327 0.950 . S
C2306 H2302 0.949 . S
C2306 C2314 1.574 . S
C2306 C2322 1.368 . S
H2307 C2315 0.950 . S
H2308 C2313 0.950 . S
H2309 C2314 0.949 . S
H2310 C2316 0.950 . S
H2311 C2317 0.950 . S
H2312 C2318 0.949 . S
C2313 H2308 0.950 . S
C2313 C2315 1.327 . S
C2313 C2319 1.429 . S
C2314 C2306 1.574 . S
C2314 H2309 0.949 . S
C2314 C2320 1.368 . S
C2315 C2299 1.349 . S
C2315 H2307 0.950 . S
C2315 C2313 1.327 . S
C2316 C2304 1.349 . S
C2316 H2310 0.950 . S
C2316 C2317 1.327 . S
C2317 H2311 0.950 . S
C2317 C2316 1.327 . S
C2317 C2321 1.429 . S
C2318 C2301 1.574 . S
C2318 H2312 0.949 . S
C2318 C2322 1.368 . S
C2319 C2300 1.429 . S
C2319 C2313 1.429 . S
C2319 C2320 1.523 . S
C2320 C2301 1.368 . S
C2320 C2314 1.368 . S
C2320 C2319 1.523 . S
C2321 C2305 1.429 . S
C2321 C2317 1.429 . S
C2321 C2322 1.523 . S
C2322 C2306 1.368 . S
C2322 C2318 1.368 . S
C2322 C2321 1.523 . S
H2323 C2298 0.950 . S
H2324 C2300 0.950 . S
H2325 C2301 0.949 . S
H2326 C2303 0.950 . S
H2327 C2305 0.950 . S
C2328 C2329 1.349 . S
C2328 C2330 1.327 . S
C2328 H2353 0.950 . S
C2329 C2328 1.349 . S
C2329 C2345 1.349 . S
C2330 C2328 1.327 . S
C2330 C2349 1.429 . S
C2330 H2354 0.950 . S
C2331 C2348 1.574 . S
C2331 C2350 1.368 1_455 S
C2331 H2355 0.949 . S
H2332 C2336 0.949 . S
C2333 C2334 1.349 . S
C2333 C2335 1.327 . S
C2333 H2356 0.950 . S
C2334 C2333 1.349 . S
C2334 C2346 1.349 . S
C2335 C2333 1.327 . S
C2335 C2351 1.429 . S
C2335 H2357 0.950 . S
C2336 H2332 0.949 . S
C2336 C2344 1.574 . S
C2336 C2352 1.368 1_655 S
H2337 C2345 0.950 . S
H2338 C2343 0.960 . S
H2339 C2344 0.949 . S
H2340 C2346 0.950 . S
H2341 C2347 0.950 . S
H2342 C2348 0.949 . S
C2343 H2338 0.960 . S
C2343 C2345 1.327 . S
C2343 C2349 1.429 . S
C2344 C2336 1.574 . S
C2344 H2339 0.949 . S
C2344 C2350 1.368 . S
C2345 C2329 1.349 . S
C2345 H2337 0.950 . S
C2345 C2343 1.327 . S
C2346 C2334 1.349 . S
C2346 H2340 0.950 . S
C2346 C2347 1.327 . S
C2347 H2341 0.950 . S
C2347 C2346 1.327 . S
C2347 C2351 1.429 . S
C2348 C2331 1.574 . S
C2348 H2342 0.949 . S
C2348 C2352 1.368 . S
C2349 C2330 1.429 . S
C2349 C2343 1.429 . S
C2349 C2350 1.523 . S
C2350 C2331 1.368 1_655 S
C2350 C2344 1.368 . S
C2350 C2349 1.523 . S
C2351 C2335 1.429 . S
C2351 C2347 1.429 . S
C2351 C2352 1.523 . S
C2352 C2336 1.368 1_455 S
C2352 C2348 1.368 . S
C2352 C2351 1.523 . S
H2353 C2328 0.950 . S
H2354 C2330 0.950 . S
H2355 C2331 0.949 . S
H2356 C2333 0.950 . S
H2357 C2335 0.950 . S
C2358 C2359 1.349 . S
C2358 C2360 1.327 . S
C2358 H2383 0.950 . S
C2359 C2358 1.349 . S
C2359 C2375 1.349 . S
C2360 C2358 1.327 . S
C2360 C2379 1.429 . S
C2360 H2384 0.950 . S
C2361 C2378 1.574 . S
C2361 C2380 1.368 . S
C2361 H2385 0.949 . S
H2362 C2366 0.949 . S
C2363 C2364 1.349 . S
C2363 C2365 1.327 . S
C2363 H2386 0.950 . S
C2364 C2363 1.349 . S
C2364 C2376 1.349 . S
C2365 C2363 1.327 . S
C2365 C2381 1.429 . S
C2365 H2387 0.950 . S
C2366 H2362 0.949 . S
C2366 C2374 1.574 . S
C2366 C2382 1.368 . S
H2367 C2375 0.950 . S
H2368 C2373 0.950 . S
H2369 C2374 0.949 . S
H2370 C2376 0.950 . S
H2371 C2377 0.950 . S
H2372 C2378 0.949 . S
C2373 H2368 0.950 . S
C2373 C2375 1.327 . S
C2373 C2379 1.429 . S
C2374 C2366 1.574 . S
C2374 H2369 0.949 . S
C2374 C2380 1.368 . S
C2375 C2359 1.349 . S
C2375 H2367 0.950 . S
C2375 C2373 1.327 . S
C2376 C2364 1.349 . S
C2376 H2370 0.950 . S
C2376 C2377 1.327 . S
C2377 H2371 0.950 . S
C2377 C2376 1.327 . S
C2377 C2381 1.429 . S
C2378 C2361 1.574 . S
C2378 H2372 0.949 . S
C2378 C2382 1.368 . S
C2379 C2360 1.429 . S
C2379 C2373 1.429 . S
C2379 C2380 1.523 . S
C2380 C2361 1.368 . S
C2380 C2374 1.368 . S
C2380 C2379 1.523 . S
C2381 C2365 1.429 . S
C2381 C2377 1.429 . S
C2381 C2382 1.523 . S
C2382 C2366 1.368 . S
C2382 C2378 1.368 . S
C2382 C2381 1.523 . S
H2383 C2358 0.950 . S
H2384 C2360 0.950 . S
H2385 C2361 0.949 . S
H2386 C2363 0.950 . S
H2387 C2365 0.950 . S
C2388 C2389 1.349 . S
C2388 C2390 1.327 . S
C2388 H2413 0.950 . S
C2389 C2388 1.349 . S
C2389 C2405 1.349 . S
C2390 C2388 1.327 . S
C2390 C2409 1.429 . S
C2390 H2414 0.950 . S
C2391 C2408 1.574 . S
C2391 C2410 1.368 . S
C2391 H2415 0.949 . S
H2392 C2396 0.949 . S
C2393 C2394 1.349 . S
C2393 C2395 1.327 . S
C2393 H2416 0.950 . S
C2394 C2393 1.349 . S
C2394 C2406 1.349 . S
C2395 C2393 1.327 . S
C2395 C2411 1.429 . S
C2395 H2417 0.950 . S
C2396 H2392 0.949 . S
C2396 C2404 1.574 . S
C2396 C2412 1.368 . S
H2397 C2405 0.950 . S
H2398 C2403 0.950 . S
H2399 C2404 0.949 . S
H2400 C2406 0.950 . S
H2401 C2407 0.950 . S
H2402 C2408 0.949 . S
C2403 H2398 0.950 . S
C2403 C2405 1.327 . S
C2403 C2409 1.429 . S
C2404 C2396 1.574 . S
C2404 H2399 0.949 . S
C2404 C2410 1.368 . S
C2405 C2389 1.349 . S
C2405 H2397 0.950 . S
C2405 C2403 1.327 . S
C2406 C2394 1.349 . S
C2406 H2400 0.950 . S
C2406 C2407 1.327 . S
C2407 H2401 0.950 . S
C2407 C2406 1.327 . S
C2407 C2411 1.429 . S
C2408 C2391 1.574 . S
C2408 H2402 0.949 . S
C2408 C2412 1.368 . S
C2409 C2390 1.429 . S
C2409 C2403 1.429 . S
C2409 C2410 1.523 . S
C2410 C2391 1.368 . S
C2410 C2404 1.368 . S
C2410 C2409 1.523 . S
C2411 C2395 1.429 . S
C2411 C2407 1.429 . S
C2411 C2412 1.523 . S
C2412 C2396 1.368 . S
C2412 C2408 1.368 . S
C2412 C2411 1.523 . S
H2413 C2388 0.950 . S
H2414 C2390 0.950 . S
H2415 C2391 0.949 . S
H2416 C2393 0.950 . S
H2417 C2395 0.950 . S
C2418 C2419 1.349 . S
C2418 C2420 1.327 . S
C2418 H2443 0.950 . S
C2419 C2418 1.349 . S
C2419 C2435 1.349 . S
C2420 C2418 1.327 . S
C2420 C2439 1.429 . S
C2420 H2444 0.950 . S
C2421 C2438 1.574 . S
C2421 C2440 1.368 . S
C2421 H2445 0.949 . S
H2422 C2426 0.949 . S
C2423 C2424 1.349 . S
C2423 C2425 1.327 . S
C2423 H2446 0.950 . S
C2424 C2423 1.349 . S
C2424 C2436 1.349 . S
C2425 C2423 1.327 . S
C2425 C2441 1.429 . S
C2425 H2447 0.950 1_455 S
C2426 H2422 0.949 . S
C2426 C2434 1.574 . S
C2426 C2442 1.368 . S
H2427 C2435 0.950 . S
H2428 C2433 0.950 . S
H2429 C2434 0.949 . S
H2430 C2436 0.950 . S
H2431 C2437 0.950 . S
H2432 C2438 0.949 . S
C2433 H2428 0.950 . S
C2433 C2435 1.327 . S
C2433 C2439 1.429 . S
C2434 C2426 1.574 . S
C2434 H2429 0.949 . S
C2434 C2440 1.368 1_455 S
C2435 C2419 1.349 . S
C2435 H2427 0.950 . S
C2435 C2433 1.327 . S
C2436 C2424 1.349 . S
C2436 H2430 0.950 . S
C2436 C2437 1.327 . S
C2437 H2431 0.950 . S
C2437 C2436 1.327 . S
C2437 C2441 1.429 . S
C2438 C2421 1.574 . S
C2438 H2432 0.949 . S
C2438 C2442 1.368 1_655 S
C2439 C2420 1.429 . S
C2439 C2433 1.429 . S
C2439 C2440 1.523 . S
C2440 C2421 1.368 . S
C2440 C2434 1.368 1_655 S
C2440 C2439 1.523 . S
C2441 C2425 1.429 . S
C2441 C2437 1.429 . S
C2441 C2442 1.523 . S
C2442 C2426 1.368 . S
C2442 C2438 1.368 1_455 S
C2442 C2441 1.523 . S
H2443 C2418 0.950 . S
H2444 C2420 0.950 . S
H2445 C2421 0.949 . S
H2446 C2423 0.950 . S
H2447 C2425 0.950 1_655 S
C2448 C2449 1.349 . S
C2448 C2450 1.323 1_565 S
C2448 H2473 0.950 1_565 S
C2449 C2448 1.349 . S
C2449 C2465 1.349 . S
C2450 C2448 1.323 1_545 S
C2450 C2469 1.422 1_545 S
C2450 H2474 0.961 . S
C2451 C2468 1.574 . S
C2451 C2470 1.368 . S
C2451 H2475 0.949 . S
H2452 C2456 0.949 . S
C2453 C2454 1.349 . S
C2453 C2455 1.327 . S
C2453 H2476 0.950 . S
C2454 C2453 1.349 . S
C2454 C2466 1.349 . S
C2455 C2453 1.327 . S
C2455 C2471 1.429 . S
C2455 H2477 0.950 1_545 S
C2456 H2452 0.949 . S
C2456 C2464 1.574 . S
C2456 C2472 1.368 . S
H2457 C2465 0.950 . S
H2458 C2463 0.950 . S
H2459 C2464 0.949 . S
H2460 C2466 0.950 . S
H2461 C2467 0.950 . S
H2462 C2468 0.949 . S
C2463 H2458 0.950 . S
C2463 C2465 1.327 . S
C2463 C2469 1.429 . S
C2464 C2456 1.574 . S
C2464 H2459 0.949 . S
C2464 C2470 1.368 1_545 S
C2465 C2449 1.349 . S
C2465 H2457 0.950 . S
C2465 C2463 1.327 . S
C2466 C2454 1.349 . S
C2466 H2460 0.950 . S
C2466 C2467 1.327 . S
C2467 H2461 0.950 . S
C2467 C2466 1.327 . S
C2467 C2471 1.429 . S
C2468 C2451 1.574 . S
C2468 H2462 0.949 . S
C2468 C2472 1.368 1_565 S
C2469 C2450 1.422 1_565 S
C2469 C2463 1.429 . S
C2469 C2470 1.523 . S
C2470 C2451 1.368 . S
C2470 C2464 1.368 1_565 S
C2470 C2469 1.523 . S
C2471 C2455 1.429 . S
C2471 C2467 1.429 . S
C2471 C2472 1.523 . S
C2472 C2456 1.368 . S
C2472 C2468 1.368 1_545 S
C2472 C2471 1.523 . S
H2473 C2448 0.950 1_545 S
H2474 C2450 0.961 . S
H2475 C2451 0.949 . S
H2476 C2453 0.950 . S
H2477 C2455 0.950 1_565 S
C2478 C2479 1.349 . S
C2478 C2480 1.327 . S
C2478 H2503 0.950 . S
C2479 C2478 1.349 . S
C2479 C2495 1.349 . S
C2480 C2478 1.327 . S
C2480 C2499 1.429 . S
C2480 H2504 0.950 . S
C2481 C2498 1.574 . S
C2481 C2500 1.368 1_565 S
C2481 H2505 0.949 . S
H2482 C2486 0.949 . S
C2483 C2484 1.349 . S
C2483 C2485 1.327 . S
C2483 H2506 0.950 . S
C2484 C2483 1.349 . S
C2484 C2496 1.349 . S
C2485 C2483 1.327 . S
C2485 C2501 1.429 . S
C2485 H2507 0.950 . S
C2486 H2482 0.949 . S
C2486 C2494 1.574 . S
C2486 C2502 1.368 1_545 S
H2487 C2495 0.950 1_565 S
H2488 C2493 0.990 . S
H2489 C2494 0.949 . S
H2490 C2496 0.950 . S
H2491 C2497 0.950 1_545 S
H2492 C2498 0.949 . S
C2493 H2488 0.990 . S
C2493 C2495 1.313 1_565 S
C2493 C2499 1.405 1_565 S
C2494 C2486 1.574 . S
C2494 H2489 0.949 . S
C2494 C2500 1.368 . S
C2495 C2479 1.349 . S
C2495 H2487 0.950 1_545 S
C2495 C2493 1.313 1_545 S
C2496 C2484 1.349 . S
C2496 H2490 0.950 . S
C2496 C2497 1.327 . S
C2497 H2491 0.950 1_565 S
C2497 C2496 1.327 . S
C2497 C2501 1.429 . S
C2498 C2481 1.574 . S
C2498 H2492 0.949 . S
C2498 C2502 1.368 . S
C2499 C2480 1.429 . S
C2499 C2493 1.405 1_545 S
C2499 C2500 1.523 . S
C2500 C2481 1.368 1_545 S
C2500 C2494 1.368 . S
C2500 C2499 1.523 . S
C2501 C2485 1.429 . S
C2501 C2497 1.429 . S
C2501 C2502 1.523 . S
C2502 C2486 1.368 1_565 S
C2502 C2498 1.368 . S
C2502 C2501 1.523 . S
H2503 C2478 0.950 . S
H2504 C2480 0.950 . S
H2505 C2481 0.949 . S
H2506 C2483 0.950 . S
H2507 C2485 0.950 . S
C2508 C2509 1.349 . S
C2508 C2510 1.327 . S
C2508 H2533 0.950 . S
C2509 C2508 1.349 . S
C2509 C2525 1.349 . S
C2510 C2508 1.327 . S
C2510 C2529 1.429 . S
C2510 H2534 0.950 . S
C2511 C2528 1.574 . S
C2511 C2530 1.368 . S
C2511 H2535 0.949 . S
H2512 C2516 0.949 . S
C2513 C2514 1.349 . S
C2513 C2515 1.327 . S
C2513 H2536 0.950 . S
C2514 C2513 1.349 . S
C2514 C2526 1.349 . S
C2515 C2513 1.327 . S
C2515 C2531 1.429 . S
C2515 H2537 0.950 . S
C2516 H2512 0.949 . S
C2516 C2524 1.574 . S
C2516 C2532 1.368 . S
H2517 C2525 0.950 . S
H2518 C2523 0.950 . S
H2519 C2524 0.949 . S
H2520 C2526 0.950 . S
H2521 C2527 0.950 . S
H2522 C2528 0.949 . S
C2523 H2518 0.950 . S
C2523 C2525 1.327 . S
C2523 C2529 1.429 . S
C2524 C2516 1.574 . S
C2524 H2519 0.949 . S
C2524 C2530 1.368 . S
C2525 C2509 1.349 . S
C2525 H2517 0.950 . S
C2525 C2523 1.327 . S
C2526 C2514 1.349 . S
C2526 H2520 0.950 . S
C2526 C2527 1.327 . S
C2527 H2521 0.950 . S
C2527 C2526 1.327 . S
C2527 C2531 1.429 . S
C2528 C2511 1.574 . S
C2528 H2522 0.949 . S
C2528 C2532 1.368 . S
C2529 C2510 1.429 . S
C2529 C2523 1.429 . S
C2529 C2530 1.523 . S
C2530 C2511 1.368 . S
C2530 C2524 1.368 . S
C2530 C2529 1.523 . S
C2531 C2515 1.429 . S
C2531 C2527 1.429 . S
C2531 C2532 1.523 . S
C2532 C2516 1.368 . S
C2532 C2528 1.368 . S
C2532 C2531 1.523 . S
H2533 C2508 0.950 . S
H2534 C2510 0.950 . S
H2535 C2511 0.949 . S
H2536 C2513 0.950 . S
H2537 C2515 0.950 . S
C2538 C2539 1.349 . S
C2538 C2540 1.327 . S
C2538 H2563 0.950 . S
C2539 C2538 1.349 . S
C2539 C2555 1.349 . S
C2540 C2538 1.327 . S
C2540 C2559 1.429 . S
C2540 H2564 0.950 . S
C2541 C2558 1.574 . S
C2541 C2560 1.368 . S
C2541 H2565 0.949 . S
H2542 C2546 0.949 . S
C2543 C2544 1.349 . S
C2543 C2545 1.327 . S
C2543 H2566 0.950 . S
C2544 C2543 1.349 . S
C2544 C2556 1.349 . S
C2545 C2543 1.327 . S
C2545 C2561 1.429 . S
C2545 H2567 0.950 . S
C2546 H2542 0.949 . S
C2546 C2554 1.574 . S
C2546 C2562 1.368 . S
H2547 C2555 0.950 . S
H2548 C2553 0.950 . S
H2549 C2554 0.949 . S
H2550 C2556 0.950 . S
H2551 C2557 0.950 . S
H2552 C2558 0.949 . S
C2553 H2548 0.950 . S
C2553 C2555 1.327 . S
C2553 C2559 1.429 . S
C2554 C2546 1.574 . S
C2554 H2549 0.949 . S
C2554 C2560 1.368 . S
C2555 C2539 1.349 . S
C2555 H2547 0.950 . S
C2555 C2553 1.327 . S
C2556 C2544 1.349 . S
C2556 H2550 0.950 . S
C2556 C2557 1.327 . S
C2557 H2551 0.950 . S
C2557 C2556 1.327 . S
C2557 C2561 1.429 . S
C2558 C2541 1.574 . S
C2558 H2552 0.949 . S
C2558 C2562 1.368 . S
C2559 C2540 1.429 . S
C2559 C2553 1.429 . S
C2559 C2560 1.523 . S
C2560 C2541 1.368 . S
C2560 C2554 1.368 . S
C2560 C2559 1.523 . S
C2561 C2545 1.429 . S
C2561 C2557 1.429 . S
C2561 C2562 1.523 . S
C2562 C2546 1.368 . S
C2562 C2558 1.368 . S
C2562 C2561 1.523 . S
H2563 C2538 0.950 . S
H2564 C2540 0.950 . S
H2565 C2541 0.949 . S
H2566 C2543 0.950 . S
H2567 C2545 0.950 . S
C2568 C2569 1.349 . S
C2568 C2570 1.327 . S
C2568 H2593 0.950 . S
C2569 C2568 1.349 . S
C2569 C2585 1.349 . S
C2570 C2568 1.327 . S
C2570 C2589 1.429 . S
C2570 H2594 0.950 . S
C2571 C2588 1.574 . S
C2571 C2590 1.368 1_554 S
C2571 H2595 0.949 . S
H2572 C2576 0.949 . S
C2573 C2574 1.349 . S
C2573 C2575 1.327 . S
C2573 H2596 0.950 . S
C2574 C2573 1.349 . S
C2574 C2586 1.349 . S
C2575 C2573 1.327 . S
C2575 C2591 1.429 . S
C2575 H2597 0.950 . S
C2576 H2572 0.949 . S
C2576 C2584 1.574 . S
C2576 C2592 1.368 1_556 S
H2577 C2585 0.950 . S
H2578 C2583 0.950 1_554 S
H2579 C2584 0.949 . S
H2580 C2586 0.950 . S
H2581 C2587 0.950 1_556 S
H2582 C2588 0.949 . S
C2583 H2578 0.950 1_556 S
C2583 C2585 1.327 . S
C2583 C2589 1.429 . S
C2584 C2576 1.574 . S
C2584 H2579 0.949 . S
C2584 C2590 1.368 . S
C2585 C2569 1.349 . S
C2585 H2577 0.950 . S
C2585 C2583 1.327 . S
C2586 C2574 1.349 . S
C2586 H2580 0.950 . S
C2586 C2587 1.327 . S
C2587 H2581 0.950 1_554 S
C2587 C2586 1.327 . S
C2587 C2591 1.429 . S
C2588 C2571 1.574 . S
C2588 H2582 0.949 . S
C2588 C2592 1.368 . S
C2589 C2570 1.429 . S
C2589 C2583 1.429 . S
C2589 C2590 1.523 . S
C2590 C2571 1.368 1_556 S
C2590 C2584 1.368 . S
C2590 C2589 1.523 . S
C2591 C2575 1.429 . S
C2591 C2587 1.429 . S
C2591 C2592 1.523 . S
C2592 C2576 1.368 1_554 S
C2592 C2588 1.368 . S
C2592 C2591 1.523 . S
H2593 C2568 0.950 . S
H2594 C2570 0.950 . S
H2595 C2571 0.949 . S
H2596 C2573 0.950 . S
H2597 C2575 0.950 . S
C2598 C2599 1.349 . S
C2598 C2600 1.327 . S
C2598 H2623 0.950 . S
C2599 C2598 1.349 . S
C2599 C2615 1.349 . S
C2600 C2598 1.327 . S
C2600 C2619 1.429 . S
C2600 H2624 0.950 1_556 S
C2601 C2618 1.574 . S
C2601 C2620 1.368 . S
C2601 H2625 0.949 . S
H2602 C2606 0.949 . S
C2603 C2604 1.349 . S
C2603 C2605 1.312 1_554 S
C2603 H2626 0.950 1_554 S
C2604 C2603 1.349 . S
C2604 C2616 1.349 . S
C2605 C2603 1.312 1_556 S
C2605 C2621 1.405 1_556 S
C2605 H2627 0.990 . S
C2606 H2602 0.949 . S
C2606 C2614 1.574 . S
C2606 C2622 1.368 . S
H2607 C2615 0.950 . S
H2608 C2613 0.950 . S
H2609 C2614 0.949 . S
H2610 C2616 0.950 . S
H2611 C2617 0.950 . S
H2612 C2618 0.949 . S
C2613 H2608 0.950 . S
C2613 C2615 1.327 . S
C2613 C2619 1.429 . S
C2614 C2606 1.574 . S
C2614 H2609 0.949 . S
C2614 C2620 1.368 1_554 S
C2615 C2599 1.349 . S
C2615 H2607 0.950 . S
C2615 C2613 1.327 . S
C2616 C2604 1.349 . S
C2616 H2610 0.950 . S
C2616 C2617 1.327 . S
C2617 H2611 0.950 . S
C2617 C2616 1.327 . S
C2617 C2621 1.429 . S
C2618 C2601 1.574 . S
C2618 H2612 0.949 . S
C2618 C2622 1.368 1_556 S
C2619 C2600 1.429 . S
C2619 C2613 1.429 . S
C2619 C2620 1.523 . S
C2620 C2601 1.368 . S
C2620 C2614 1.368 1_556 S
C2620 C2619 1.523 . S
C2621 C2605 1.405 1_554 S
C2621 C2617 1.429 . S
C2621 C2622 1.523 . S
C2622 C2606 1.368 . S
C2622 C2618 1.368 1_554 S
C2622 C2621 1.523 . S
H2623 C2598 0.950 . S
H2624 C2600 0.950 1_554 S
H2625 C2601 0.949 . S
H2626 C2603 0.950 1_556 S
H2627 C2605 0.990 . S
C2628 C2629 1.349 . S
C2628 C2630 1.327 . S
C2628 H2653 0.950 . S
C2629 C2628 1.349 . S
C2629 C2645 1.349 . S
C2630 C2628 1.327 . S
C2630 C2649 1.429 . S
C2630 H2654 0.950 . S
C2631 C2648 1.574 . S
C2631 C2650 1.368 . S
C2631 H2655 0.949 . S
H2632 C2636 0.949 . S
C2633 C2634 1.349 . S
C2633 C2635 1.327 . S
C2633 H2656 0.950 . S
C2634 C2633 1.349 . S
C2634 C2646 1.349 . S
C2635 C2633 1.327 . S
C2635 C2651 1.429 . S
C2635 H2657 0.950 . S
C2636 H2632 0.949 . S
C2636 C2644 1.574 . S
C2636 C2652 1.368 . S
H2637 C2645 0.950 . S
H2638 C2643 0.950 . S
H2639 C2644 0.949 . S
H2640 C2646 0.950 . S
H2641 C2647 0.950 . S
H2642 C2648 0.949 . S
C2643 H2638 0.950 . S
C2643 C2645 1.327 . S
C2643 C2649 1.429 . S
C2644 C2636 1.574 . S
C2644 H2639 0.949 . S
C2644 C2650 1.368 . S
C2645 C2629 1.349 . S
C2645 H2637 0.950 . S
C2645 C2643 1.327 . S
C2646 C2634 1.349 . S
C2646 H2640 0.950 . S
C2646 C2647 1.327 . S
C2647 H2641 0.950 . S
C2647 C2646 1.327 . S
C2647 C2651 1.429 . S
C2648 C2631 1.574 . S
C2648 H2642 0.949 . S
C2648 C2652 1.368 . S
C2649 C2630 1.429 . S
C2649 C2643 1.429 . S
C2649 C2650 1.523 . S
C2650 C2631 1.368 . S
C2650 C2644 1.368 . S
C2650 C2649 1.523 . S
C2651 C2635 1.429 . S
C2651 C2647 1.429 . S
C2651 C2652 1.523 . S
C2652 C2636 1.368 . S
C2652 C2648 1.368 . S
C2652 C2651 1.523 . S
H2653 C2628 0.950 . S
H2654 C2630 0.950 . S
H2655 C2631 0.949 . S
H2656 C2633 0.950 . S
H2657 C2635 0.950 . S
C2658 C2659 1.349 . S
C2658 C2660 1.327 . S
C2658 H2683 0.950 . S
C2659 C2658 1.349 . S
C2659 C2675 1.349 . S
C2660 C2658 1.327 . S
C2660 C2679 1.429 . S
C2660 H2684 0.950 . S
C2661 C2678 1.574 . S
C2661 C2680 1.368 . S
C2661 H2685 0.949 . S
H2662 C2666 0.949 . S
C2663 C2664 1.349 . S
C2663 C2665 1.327 . S
C2663 H2686 0.950 . S
C2664 C2663 1.349 . S
C2664 C2676 1.349 . S
C2665 C2663 1.327 . S
C2665 C2681 1.429 . S
C2665 H2687 0.950 . S
C2666 H2662 0.949 . S
C2666 C2674 1.574 . S
C2666 C2682 1.368 . S
H2667 C2675 0.950 . S
H2668 C2673 0.950 . S
H2669 C2674 0.949 . S
H2670 C2676 0.950 . S
H2671 C2677 0.950 . S
H2672 C2678 0.949 . S
C2673 H2668 0.950 . S
C2673 C2675 1.327 . S
C2673 C2679 1.429 . S
C2674 C2666 1.574 . S
C2674 H2669 0.949 . S
C2674 C2680 1.368 . S
C2675 C2659 1.349 . S
C2675 H2667 0.950 . S
C2675 C2673 1.327 . S
C2676 C2664 1.349 . S
C2676 H2670 0.950 . S
C2676 C2677 1.327 . S
C2677 H2671 0.950 . S
C2677 C2676 1.327 . S
C2677 C2681 1.429 . S
C2678 C2661 1.574 . S
C2678 H2672 0.949 . S
C2678 C2682 1.368 . S
C2679 C2660 1.429 . S
C2679 C2673 1.429 . S
C2679 C2680 1.523 . S
C2680 C2661 1.368 . S
C2680 C2674 1.368 . S
C2680 C2679 1.523 . S
C2681 C2665 1.429 . S
C2681 C2677 1.429 . S
C2681 C2682 1.523 . S
C2682 C2666 1.368 . S
C2682 C2678 1.368 . S
C2682 C2681 1.523 . S
H2683 C2658 0.950 . S
H2684 C2660 0.950 . S
H2685 C2661 0.949 . S
H2686 C2663 0.950 . S
H2687 C2665 0.950 . S
C529 C7 1.077 . S
C534 C414 1.080 . S
C559 C426 1.080 . S
C564 C29 1.077 . S
C589 C65 1.077 . S
C594 C360 1.080 . S
C619 C81 1.077 . S
C624 C392 1.080 . S
C649 C494 1.080 . S
C654 C109 1.077 . S
C679 C125 1.077 . S
C684 C480 1.080 . S
C709 C514 1.080 . S
C714 C153 1.077 . S
C739 C175 1.077 . S
C744 C448 1.080 . S
C769 C197 1.077 . S
C774 C304 1.080 . S
C799 C205 1.077 . S
C804 C338 1.080 . S
C829 C316 1.080 . S
C834 C227 1.077 . S
C859 C257 1.077 . S
C864 C272 1.080 . S
C889 C285 1.077 . S
C894 C140 1.080 . S
C919 C293 1.077 . S
C924 C162 1.080 . S
C949 C329 1.077 . S
C954 C96 1.080 . S
C979 C120 1.080 . S
C984 C351 1.077 . S
C1009 C373 1.077 . S
C1014 C238 1.080 . S
C1039 C216 1.080 . S
C1044 C381 1.077 . S
C1069 C252 1.080 . S
C1074 C403 1.077 . S
C1099 C184 1.080 . S
C1104 C439 1.077 . S
C1129 C40 1.080 . S
C1134 C461 1.077 . S
C1159 C76 1.080 . S
C1164 C469 1.077 . S
C1189 C52 1.080 . S
C1194 C499 1.077 . S
C1219 C527 1.077 . S
C1224 C18 1.080 . S
C1249 C433 0.882 1_554 S
C1254 C15 0.884 . S
C1279 C417 0.882 . S
C1284 C37 0.884 . S
C1309 C51 0.884 . S
C1314 C395 0.882 1_556 S
C1339 C367 0.882 . S
C1344 C87 0.884 . S
C1369 C95 0.884 . S
C1374 C521 0.882 1_455 S
C1399 C131 0.884 . S
C1404 C455 0.882 . S
C1429 C491 0.882 . S
C1434 C139 0.884 . S
C1459 C161 0.884 . S
C1464 C483 0.882 1_655 S
C1489 C323 0.882 1_545 S
C1494 C183 0.884 . S
C1519 C279 0.882 . S
C1524 C213 0.884 . S
C1549 C307 0.882 . S
C1554 C235 0.884 . S
C1579 C345 0.882 1_565 S
C1584 C263 0.884 . S
C1609 C271 0.884 . S
C1614 C169 0.882 1_556 S
C1639 C301 0.884 . S
C1644 C147 0.882 . S
C1669 C117 0.882 1_554 S
C1674 C315 0.884 . S
C1699 C103 0.882 . S
C1704 C337 0.884 . S
C1729 C249 0.882 1_655 S
C1734 C359 0.884 . S
C1759 C389 0.884 . S
C1764 C191 0.882 . S
C1789 C241 0.882 . S
C1794 C411 0.884 . S
C1819 C219 0.882 1_455 S
C1824 C425 0.884 . S
C1849 C447 0.884 . S
C1854 C59 0.882 1_565 S
C1879 C477 0.884 . S
C1884 C21 0.882 . S
C1909 C43 0.882 . S
C1914 C505 0.884 . S
C1939 C73 0.882 1_545 S
C1944 C513 0.884 . S
C1969 C10 0.860 . S
C1974 C206 0.862 . S
C1999 C228 0.862 . S
C2004 C32 0.860 . S
C2029 C186 0.862 . S
C2034 C62 0.860 . S
C2059 C260 0.862 . S
C2064 C74 0.860 . S
C2089 C106 0.860 . S
C2094 C84 0.862 . S
C2119 C54 0.862 . S
C2124 C118 0.860 . S
C2149 C150 0.860 . S
C2154 C30 0.862 . S
C2179 C8 0.862 . S
C2184 C172 0.860 . S
C2209 C194 0.860 . S
C2214 C128 0.862 . S
C2239 C208 0.860 . S
C2244 C164 0.862 . S
C2269 C230 0.860 . S
C2274 C142 0.862 . S
C2299 C250 0.860 . S
C2304 C98 0.862 . S
C2329 C282 0.860 . S
C2334 C470 0.862 . S
C2359 C296 0.860 . S
C2364 C502 0.862 . S
C2389 C450 0.862 . S
C2394 C326 0.860 . S
C2419 C516 0.862 . S
C2424 C348 0.860 . S
C2449 C370 0.860 . S
C2454 C340 0.862 . S
C2479 C384 0.860 . S
C2484 C318 0.862 . S
C2509 C294 0.862 . S
C2514 C406 0.860 . S
C2539 C436 0.860 . S
C2544 C274 0.862 . S
C2569 C458 0.860 . S
C2574 C382 0.862 . S
C2599 C428 0.862 . S
C2604 C472 0.860 . S
C2629 C492 0.860 . S
C2634 C404 0.862 . S
C2659 C524 0.860 . S
C2664 C362 0.862 . S
