# Generated by pormake.
# Topology unu, (4)-cn, num edge types: 1
# Building blocks:
#     Node 0, Type 0, BuildingBlock: NAHDIM_clean_sbu_0, # of connection points: 4
#     Node 1, Type 0, BuildingBlock: NAHDIM_clean_sbu_0, # of connection points: 4
#     Node 2, Type 0, BuildingBlock: NAHDIM_clean_sbu_0, # of connection points: 4
#     Node 3, Type 0, BuildingBlock: NAHDIM_clean_sbu_0, # of connection points: 4
#     Node 4, Type 0, BuildingBlock: NAHDIM_clean_sbu_0, # of connection points: 4
#     Node 5, Type 0, BuildingBlock: NAHDIM_clean_sbu_0, # of connection points: 4
#     Node 6, Type 0, BuildingBlock: NAHDIM_clean_sbu_0, # of connection points: 4
#     Node 7, Type 0, BuildingBlock: NAHDIM_clean_sbu_0, # of connection points: 4
#     Node 8, Type 0, BuildingBlock: NAHDIM_clean_sbu_0, # of connection points: 4
#     Node 9, Type 0, BuildingBlock: NAHDIM_clean_sbu_0, # of connection points: 4
#     Node 10, Type 0, BuildingBlock: NAHDIM_clean_sbu_0, # of connection points: 4
#     Node 11, Type 0, BuildingBlock: NAHDIM_clean_sbu_0, # of connection points: 4
#     Node 12, Type 0, BuildingBlock: NAHDIM_clean_sbu_0, # of connection points: 4
#     Node 13, Type 0, BuildingBlock: NAHDIM_clean_sbu_0, # of connection points: 4
#     Node 14, Type 0, BuildingBlock: NAHDIM_clean_sbu_0, # of connection points: 4
#     Node 15, Type 0, BuildingBlock: NAHDIM_clean_sbu_0, # of connection points: 4
#     Node 16, Type 0, BuildingBlock: NAHDIM_clean_sbu_0, # of connection points: 4
#     Node 17, Type 0, BuildingBlock: NAHDIM_clean_sbu_0, # of connection points: 4
#     Node 18, Type 0, BuildingBlock: NAHDIM_clean_sbu_0, # of connection points: 4
#     Node 19, Type 0, BuildingBlock: NAHDIM_clean_sbu_0, # of connection points: 4
#     Node 20, Type 0, BuildingBlock: NAHDIM_clean_sbu_0, # of connection points: 4
#     Node 21, Type 0, BuildingBlock: NAHDIM_clean_sbu_0, # of connection points: 4
#     Node 22, Type 0, BuildingBlock: NAHDIM_clean_sbu_0, # of connection points: 4
#     Node 23, Type 0, BuildingBlock: NAHDIM_clean_sbu_0, # of connection points: 4
#     Node 24, Type 0, BuildingBlock: NAHDIM_clean_sbu_0, # of connection points: 4
#     Node 25, Type 0, BuildingBlock: NAHDIM_clean_sbu_0, # of connection points: 4
#     Node 26, Type 0, BuildingBlock: NAHDIM_clean_sbu_0, # of connection points: 4
#     Node 27, Type 0, BuildingBlock: NAHDIM_clean_sbu_0, # of connection points: 4
#     Node 28, Type 0, BuildingBlock: NAHDIM_clean_sbu_0, # of connection points: 4
#     Node 29, Type 0, BuildingBlock: NAHDIM_clean_sbu_0, # of connection points: 4
#     Node 30, Type 0, BuildingBlock: NAHDIM_clean_sbu_0, # of connection points: 4
#     Node 31, Type 0, BuildingBlock: NAHDIM_clean_sbu_0, # of connection points: 4
#     Node 32, Type 0, BuildingBlock: NAHDIM_clean_sbu_0, # of connection points: 4
#     Node 33, Type 0, BuildingBlock: NAHDIM_clean_sbu_0, # of connection points: 4
#     Node 34, Type 0, BuildingBlock: NAHDIM_clean_sbu_0, # of connection points: 4
#     Node 35, Type 0, BuildingBlock: NAHDIM_clean_sbu_0, # of connection points: 4
#     Edge 36, Type (0, 0), BuildingBlock: ZUJKAS_clean_linker_0, # of connection points: 2
#     Edge 37, Type (0, 0), BuildingBlock: ZUJKAS_clean_linker_0, # of connection points: 2
#     Edge 38, Type (0, 0), BuildingBlock: ZUJKAS_clean_linker_0, # of connection points: 2
#     Edge 39, Type (0, 0), BuildingBlock: ZUJKAS_clean_linker_0, # of connection points: 2
#     Edge 40, Type (0, 0), BuildingBlock: ZUJKAS_clean_linker_0, # of connection points: 2
#     Edge 41, Type (0, 0), BuildingBlock: ZUJKAS_clean_linker_0, # of connection points: 2
#     Edge 42, Type (0, 0), BuildingBlock: ZUJKAS_clean_linker_0, # of connection points: 2
#     Edge 43, Type (0, 0), BuildingBlock: ZUJKAS_clean_linker_0, # of connection points: 2
#     Edge 44, Type (0, 0), BuildingBlock: ZUJKAS_clean_linker_0, # of connection points: 2
#     Edge 45, Type (0, 0), BuildingBlock: ZUJKAS_clean_linker_0, # of connection points: 2
#     Edge 46, Type (0, 0), BuildingBlock: ZUJKAS_clean_linker_0, # of connection points: 2
#     Edge 47, Type (0, 0), BuildingBlock: ZUJKAS_clean_linker_0, # of connection points: 2
#     Edge 48, Type (0, 0), BuildingBlock: ZUJKAS_clean_linker_0, # of connection points: 2
#     Edge 49, Type (0, 0), BuildingBlock: ZUJKAS_clean_linker_0, # of connection points: 2
#     Edge 50, Type (0, 0), BuildingBlock: ZUJKAS_clean_linker_0, # of connection points: 2
#     Edge 51, Type (0, 0), BuildingBlock: ZUJKAS_clean_linker_0, # of connection points: 2
#     Edge 52, Type (0, 0), BuildingBlock: ZUJKAS_clean_linker_0, # of connection points: 2
#     Edge 53, Type (0, 0), BuildingBlock: ZUJKAS_clean_linker_0, # of connection points: 2
#     Edge 54, Type (0, 0), BuildingBlock: ZUJKAS_clean_linker_0, # of connection points: 2
#     Edge 55, Type (0, 0), BuildingBlock: ZUJKAS_clean_linker_0, # of connection points: 2
#     Edge 56, Type (0, 0), BuildingBlock: ZUJKAS_clean_linker_0, # of connection points: 2
#     Edge 57, Type (0, 0), BuildingBlock: ZUJKAS_clean_linker_0, # of connection points: 2
#     Edge 58, Type (0, 0), BuildingBlock: ZUJKAS_clean_linker_0, # of connection points: 2
#     Edge 59, Type (0, 0), BuildingBlock: ZUJKAS_clean_linker_0, # of connection points: 2
#     Edge 60, Type (0, 0), BuildingBlock: ZUJKAS_clean_linker_0, # of connection points: 2
#     Edge 61, Type (0, 0), BuildingBlock: ZUJKAS_clean_linker_0, # of connection points: 2
#     Edge 62, Type (0, 0), BuildingBlock: ZUJKAS_clean_linker_0, # of connection points: 2
#     Edge 63, Type (0, 0), BuildingBlock: ZUJKAS_clean_linker_0, # of connection points: 2
#     Edge 64, Type (0, 0), BuildingBlock: ZUJKAS_clean_linker_0, # of connection points: 2
#     Edge 65, Type (0, 0), BuildingBlock: ZUJKAS_clean_linker_0, # of connection points: 2
#     Edge 66, Type (0, 0), BuildingBlock: ZUJKAS_clean_linker_0, # of connection points: 2
#     Edge 67, Type (0, 0), BuildingBlock: ZUJKAS_clean_linker_0, # of connection points: 2
#     Edge 68, Type (0, 0), BuildingBlock: ZUJKAS_clean_linker_0, # of connection points: 2
#     Edge 69, Type (0, 0), BuildingBlock: ZUJKAS_clean_linker_0, # of connection points: 2
#     Edge 70, Type (0, 0), BuildingBlock: ZUJKAS_clean_linker_0, # of connection points: 2
#     Edge 71, Type (0, 0), BuildingBlock: ZUJKAS_clean_linker_0, # of connection points: 2
#     Edge 72, Type (0, 0), BuildingBlock: ZUJKAS_clean_linker_0, # of connection points: 2
#     Edge 73, Type (0, 0), BuildingBlock: ZUJKAS_clean_linker_0, # of connection points: 2
#     Edge 74, Type (0, 0), BuildingBlock: ZUJKAS_clean_linker_0, # of connection points: 2
#     Edge 75, Type (0, 0), BuildingBlock: ZUJKAS_clean_linker_0, # of connection points: 2
#     Edge 76, Type (0, 0), BuildingBlock: ZUJKAS_clean_linker_0, # of connection points: 2
#     Edge 77, Type (0, 0), BuildingBlock: ZUJKAS_clean_linker_0, # of connection points: 2
#     Edge 78, Type (0, 0), BuildingBlock: ZUJKAS_clean_linker_0, # of connection points: 2
#     Edge 79, Type (0, 0), BuildingBlock: ZUJKAS_clean_linker_0, # of connection points: 2
#     Edge 80, Type (0, 0), BuildingBlock: ZUJKAS_clean_linker_0, # of connection points: 2
#     Edge 81, Type (0, 0), BuildingBlock: ZUJKAS_clean_linker_0, # of connection points: 2
#     Edge 82, Type (0, 0), BuildingBlock: ZUJKAS_clean_linker_0, # of connection points: 2
#     Edge 83, Type (0, 0), BuildingBlock: ZUJKAS_clean_linker_0, # of connection points: 2
#     Edge 84, Type (0, 0), BuildingBlock: ZUJKAS_clean_linker_0, # of connection points: 2
#     Edge 85, Type (0, 0), BuildingBlock: ZUJKAS_clean_linker_0, # of connection points: 2
#     Edge 86, Type (0, 0), BuildingBlock: ZUJKAS_clean_linker_0, # of connection points: 2
#     Edge 87, Type (0, 0), BuildingBlock: ZUJKAS_clean_linker_0, # of connection points: 2
#     Edge 88, Type (0, 0), BuildingBlock: ZUJKAS_clean_linker_0, # of connection points: 2
#     Edge 89, Type (0, 0), BuildingBlock: ZUJKAS_clean_linker_0, # of connection points: 2
#     Edge 90, Type (0, 0), BuildingBlock: ZUJKAS_clean_linker_0, # of connection points: 2
#     Edge 91, Type (0, 0), BuildingBlock: ZUJKAS_clean_linker_0, # of connection points: 2
#     Edge 92, Type (0, 0), BuildingBlock: ZUJKAS_clean_linker_0, # of connection points: 2
#     Edge 93, Type (0, 0), BuildingBlock: ZUJKAS_clean_linker_0, # of connection points: 2
#     Edge 94, Type (0, 0), BuildingBlock: ZUJKAS_clean_linker_0, # of connection points: 2
#     Edge 95, Type (0, 0), BuildingBlock: ZUJKAS_clean_linker_0, # of connection points: 2
#     Edge 96, Type (0, 0), BuildingBlock: ZUJKAS_clean_linker_0, # of connection points: 2
#     Edge 97, Type (0, 0), BuildingBlock: ZUJKAS_clean_linker_0, # of connection points: 2
#     Edge 98, Type (0, 0), BuildingBlock: ZUJKAS_clean_linker_0, # of connection points: 2
#     Edge 99, Type (0, 0), BuildingBlock: ZUJKAS_clean_linker_0, # of connection points: 2
#     Edge 100, Type (0, 0), BuildingBlock: ZUJKAS_clean_linker_0, # of connection points: 2
#     Edge 101, Type (0, 0), BuildingBlock: ZUJKAS_clean_linker_0, # of connection points: 2
#     Edge 102, Type (0, 0), BuildingBlock: ZUJKAS_clean_linker_0, # of connection points: 2
#     Edge 103, Type (0, 0), BuildingBlock: ZUJKAS_clean_linker_0, # of connection points: 2
#     Edge 104, Type (0, 0), BuildingBlock: ZUJKAS_clean_linker_0, # of connection points: 2
#     Edge 105, Type (0, 0), BuildingBlock: ZUJKAS_clean_linker_0, # of connection points: 2
#     Edge 106, Type (0, 0), BuildingBlock: ZUJKAS_clean_linker_0, # of connection points: 2
#     Edge 107, Type (0, 0), BuildingBlock: ZUJKAS_clean_linker_0, # of connection points: 2
# Relax obj value: 0.299
# Max RMSD: 0.283
# Mean RMSD: 0.283
data_MOF--net-unu--node1-NAHDIM_clean_sbu_0--edge1-ZUJKAS_clean_linker_0
_symmetry_space_group_name_H-M    P1
_symmetry_Int_Tables_number       1
_symmetry_cell_setting            triclinic
loop_
_symmetry_equiv_pos_as_xyz
'x, y, z'
_cell_length_a     51.167291
_cell_length_b     51.176148
_cell_length_c     159.72757
_cell_angle_alpha  90.008387
_cell_angle_beta   89.996503
_cell_angle_gamma 120.00318
loop_
_atom_site_label
_atom_site_type_symbol
_atom_site_fract_x
_atom_site_fract_y
_atom_site_fract_z
_atom_type_partial_charge
C0 C 0.2779 0.09772 0.09581 0.0
O1 O 0.25032 0.08511 0.09281 0.0
O2 O 0.21473 0.0628 0.11042 0.0
Zn3 Zn 0.25087 0.10465 0.11111 0.0
O4 O 0.26908 0.11255 0.12258 0.0
C5 C 0.21631 0.12782 0.10332 0.0
O6 O 0.20783 0.10389 0.09859 0.0
O7 O 0.28304 0.10858 0.10316 0.0
C8 C 0.25584 0.11472 0.12904 0.0
O9 O 0.22847 0.11066 0.12833 0.0
C10 C 0.21579 0.03871 0.1094 0.0
O11 O 0.24214 0.04017 0.10904 0.0
O12 O 0.23633 0.13401 0.10888 0.0
C13 C 0.91232 0.20724 0.10437 0.0
O14 O 0.92492 0.21239 0.1118 0.0
O15 O 0.94885 0.15993 0.10751 0.0
Zn16 Zn 0.90616 0.15159 0.10854 0.0
O17 O 0.8973 0.15758 0.12041 0.0
C18 C 0.88529 0.09721 0.09909 0.0
O19 O 0.9074 0.11548 0.09411 0.0
O20 O 0.90124 0.18095 0.10125 0.0
C21 C 0.88704 0.13696 0.12592 0.0
O22 O 0.88235 0.11 0.12398 0.0
C23 C 0.97049 0.17687 0.11235 0.0
O24 O 0.96557 0.19058 0.11859 0.0
O25 O 0.879 0.10817 0.10539 0.0
C26 C 0.80655 0.71647 0.10141 0.0
O27 O 0.80328 0.72995 0.108 0.0
O28 O 0.85897 0.79484 0.10439 0.0
Zn29 Zn 0.86425 0.75867 0.10591 0.0
O30 O 0.85645 0.74407 0.11783 0.0
C31 C 0.92064 0.79131 0.09728 0.0
O32 O 0.90465 0.79931 0.09262 0.0
O33 O 0.8331 0.72499 0.09879 0.0
C34 C 0.87702 0.75157 0.12329 0.0
O35 O 0.90513 0.77091 0.12129 0.0
C36 C 0.84803 0.8052 0.10972 0.0
O37 O 0.83889 0.79182 0.11701 0.0
O38 O 0.90738 0.77172 0.10299 0.0
C39 C 0.11458 0.29741 0.39476 0.0
O40 O 0.13118 0.3071 0.38796 0.0
O41 O 0.05626 0.2046 0.38763 0.0
Zn42 Zn 0.0991 0.23899 0.38809 0.0
O43 O 0.11101 0.25872 0.37681 0.0
C44 C 0.147 0.22404 0.38697 0.0
O45 O 0.15622 0.24281 0.38061 0.0
O46 O 0.10077 0.26934 0.39641 0.0
C47 C 0.10461 0.2444 0.36993 0.0
O48 O 0.08931 0.21476 0.37001 0.0
C49 C 0.03353 0.2072 0.38952 0.0
O50 O 0.03757 0.23379 0.39162 0.0
O51 O 0.12468 0.22074 0.3913 0.0
C52 C 0.71628 0.8015 0.3915 0.0
O53 O 0.7332 0.80003 0.38553 0.0
O54 O 0.79128 0.85438 0.38873 0.0
Zn55 Zn 0.75537 0.86018 0.38732 0.0
O56 O 0.74298 0.85557 0.37525 0.0
C57 C 0.7867 0.91451 0.39692 0.0
O58 O 0.79515 0.89796 0.40114 0.0
O59 O 0.72094 0.82729 0.39377 0.0
C60 C 0.72484 0.86444 0.37304 0.0
O61 O 0.71557 0.87677 0.37865 0.0
C62 C 0.81243 0.86347 0.38339 0.0
O63 O 0.81083 0.87675 0.37653 0.0
O64 O 0.76765 0.90233 0.39103 0.0
C65 C 0.20385 0.89954 0.39369 0.0
O66 O 0.20832 0.90642 0.3857 0.0
O67 O 0.15903 0.94055 0.38951 0.0
Zn68 Zn 0.1498 0.89749 0.38919 0.0
O69 O 0.1549 0.88583 0.37755 0.0
C70 C 0.09549 0.8813 0.39814 0.0
O71 O 0.11428 0.90435 0.40277 0.0
O72 O 0.17876 0.89353 0.39695 0.0
C73 C 0.13605 0.88 0.37168 0.0
O74 O 0.11187 0.8821 0.37308 0.0
C75 C 0.17652 0.96181 0.38465 0.0
O76 O 0.19087 0.95644 0.37867 0.0
O77 O 0.10609 0.87224 0.39236 0.0
C78 C 0.7068 0.91392 0.89262 0.0
O79 O 0.71656 0.92986 0.88571 0.0
O80 O 0.78625 0.9486 0.88828 0.0
Zn81 Zn 0.75298 0.9054 0.88726 0.0
O82 O 0.73553 0.89577 0.87562 0.0
C83 C 0.7886 0.88044 0.8837 0.0
O84 O 0.79033 0.89578 0.87692 0.0
O85 O 0.7196 0.89948 0.89512 0.0
C86 C 0.71078 0.87123 0.87465 0.0
O87 O 0.69819 0.85367 0.88116 0.0
C88 C 0.79353 0.9693 0.88287 0.0
O89 O 0.77847 0.96314 0.8758 0.0
O90 O 0.77186 0.87978 0.88969 0.0
C91 C 0.11888 0.81042 0.89322 0.0
O92 O 0.12898 0.81399 0.8855 0.0
O93 O 0.05991 0.84467 0.8888 0.0
Zn94 Zn 0.10354 0.85565 0.88834 0.0
O95 O 0.11414 0.85125 0.87648 0.0
C96 C 0.11839 0.91001 0.89726 0.0
O97 O 0.09296 0.89182 0.90111 0.0
O98 O 0.10863 0.82695 0.89591 0.0
C99 C 0.1406 0.86826 0.87366 0.0
O100 O 0.16098 0.8892 0.87854 0.0
C101 C 0.04879 0.85361 0.88314 0.0
O102 O 0.0659 0.86927 0.87682 0.0
O103 O 0.12849 0.89913 0.89184 0.0
C104 C 0.18659 0.30726 0.89532 0.0
O105 O 0.18176 0.31368 0.88772 0.0
O106 O 0.14909 0.21056 0.89246 0.0
Zn107 Zn 0.14434 0.24656 0.89014 0.0
O108 O 0.15648 0.26013 0.87828 0.0
C109 C 0.08492 0.21482 0.89717 0.0
O110 O 0.09879 0.20714 0.90273 0.0
O111 O 0.17166 0.28017 0.89791 0.0
C112 C 0.13867 0.24703 0.8722 0.0
O113 O 0.11209 0.22335 0.87368 0.0
C114 C 0.17119 0.20816 0.8898 0.0
O115 O 0.19222 0.23006 0.88529 0.0
O116 O 0.1004 0.23349 0.89146 0.0
C117 C 0.919 0.73461 0.59601 0.0
O118 O 0.93001 0.76209 0.59306 0.0
O119 O 0.9521 0.79509 0.61203 0.0
Zn120 Zn 0.90999 0.75924 0.6116 0.0
O121 O 0.89843 0.73857 0.62274 0.0
C122 C 0.8903 0.79686 0.60389 0.0
O123 O 0.91644 0.80743 0.6001 0.0
O124 O 0.90843 0.72876 0.6034 0.0
C125 C 0.89093 0.74896 0.62893 0.0
O126 O 0.89173 0.77492 0.62818 0.0
C127 C 0.97599 0.79391 0.61072 0.0
O128 O 0.97398 0.76766 0.60933 0.0
O129 O 0.8816 0.77456 0.60883 0.0
C130 C 0.29556 0.20491 0.60341 0.0
O131 O 0.28461 0.20968 0.61032 0.0
O132 O 0.21483 0.15328 0.60683 0.0
Zn133 Zn 0.25109 0.14802 0.6082 0.0
O134 O 0.26705 0.15664 0.61996 0.0
C135 C 0.21772 0.09069 0.60007 0.0
O136 O 0.20886 0.106 0.59541 0.0
O137 O 0.28433 0.178 0.60074 0.0
C138 C 0.25397 0.13966 0.62619 0.0
O139 O 0.22762 0.11518 0.62514 0.0
C140 C 0.20611 0.1669 0.61175 0.0
O141 O 0.22157 0.17948 0.61859 0.0
O142 O 0.23773 0.1046 0.60563 0.0
C143 C 0.79929 0.09327 0.60296 0.0
O144 O 0.79326 0.08388 0.61075 0.0
O145 O 0.84791 0.05781 0.60755 0.0
Zn146 Zn 0.85452 0.09989 0.60827 0.0
O147 O 0.8457 0.10865 0.61985 0.0
C148 C 0.91058 0.12188 0.59963 0.0
O149 O 0.89333 0.09978 0.59452 0.0
O150 O 0.82584 0.1028 0.60017 0.0
C151 C 0.86509 0.11936 0.62569 0.0
O152 O 0.89259 0.12454 0.62432 0.0
C153 C 0.82908 0.03515 0.61179 0.0
O154 O 0.81192 0.03841 0.61732 0.0
O155 O 0.89839 0.12789 0.60569 0.0
C156 C 0.96685 0.42786 0.43746 0.0
O157 O 0.96609 0.42268 0.44553 0.0
O158 O 0.87991 0.38701 0.44205 0.0
Zn159 Zn 0.91465 0.4296 0.44229 0.0
O160 O 0.93231 0.44064 0.45383 0.0
C161 C 0.87867 0.44877 0.43339 0.0
O162 O 0.87424 0.42628 0.42849 0.0
O163 O 0.94677 0.43263 0.4343 0.0
C164 C 0.91829 0.44118 0.46033 0.0
O165 O 0.88983 0.4339 0.45972 0.0
C166 C 0.87911 0.36434 0.44555 0.0
O167 O 0.90251 0.36798 0.44989 0.0
O168 O 0.89736 0.45611 0.43939 0.0
C169 C 0.58016 0.52932 0.43578 0.0
O170 O 0.59734 0.53204 0.44221 0.0
O171 O 0.60197 0.47518 0.43958 0.0
Zn172 Zn 0.56064 0.47081 0.44057 0.0
O173 O 0.55145 0.47716 0.45238 0.0
C174 C 0.50559 0.41134 0.43992 0.0
O175 O 0.4948 0.42219 0.44555 0.0
O176 O 0.56017 0.50304 0.43347 0.0
C177 C 0.54746 0.45969 0.45849 0.0
O178 O 0.55011 0.43571 0.45731 0.0
C179 C 0.62317 0.48636 0.44494 0.0
O180 O 0.6191 0.49661 0.45207 0.0
O181 O 0.53144 0.42857 0.43676 0.0
C182 C 0.48267 0.04065 0.43497 0.0
O183 O 0.49095 0.03313 0.44193 0.0
O184 O 0.51385 0.1344 0.4401 0.0
Zn185 Zn 0.524 0.10125 0.4406 0.0
O186 O 0.51745 0.08473 0.45228 0.0
C187 C 0.58518 0.1118 0.44113 0.0
O188 O 0.57381 0.08981 0.44664 0.0
O189 O 0.49542 0.06831 0.43288 0.0
C190 C 0.52445 0.10096 0.45882 0.0
O191 O 0.53657 0.13033 0.45807 0.0
C192 C 0.48876 0.13079 0.44268 0.0
O193 O 0.46888 0.10474 0.44594 0.0
O194 O 0.56775 0.11916 0.43745 0.0
C195 C 0.74862 0.61643 0.72688 0.0
O196 O 0.73273 0.60482 0.72004 0.0
O197 O 0.71829 0.53856 0.72275 0.0
Zn198 Zn 0.76151 0.57252 0.72221 0.0
O199 O 0.77289 0.58925 0.71057 0.0
C200 C 0.81219 0.56109 0.72272 0.0
O201 O 0.82474 0.58289 0.71717 0.0
O202 O 0.7651 0.60612 0.72955 0.0
C203 C 0.77474 0.57528 0.70423 0.0
O204 O 0.76853 0.5472 0.70503 0.0
C205 C 0.69814 0.53156 0.71717 0.0
O206 O 0.70493 0.54723 0.7102 0.0
O207 O 0.78702 0.55489 0.72595 0.0
C208 C 0.36356 0.13213 0.72628 0.0
O209 O 0.36632 0.12863 0.71824 0.0
O210 O 0.45064 0.18265 0.72297 0.0
Zn211 Zn 0.41457 0.18834 0.7223 0.0
O212 O 0.39874 0.18268 0.71051 0.0
C213 C 0.42635 0.25042 0.72195 0.0
O214 O 0.40821 0.24139 0.71545 0.0
O215 O 0.3819 0.15714 0.72972 0.0
C216 C 0.41403 0.19532 0.70399 0.0
O217 O 0.44316 0.21423 0.70464 0.0
C218 C 0.45484 0.16309 0.71926 0.0
O219 O 0.434 0.14356 0.71419 0.0
O220 O 0.42994 0.2312 0.72608 0.0
C221 C 0.85645 0.22165 0.72538 0.0
O222 O 0.85492 0.21427 0.71745 0.0
O223 O 0.81447 0.27325 0.72152 0.0
Zn224 Zn 0.80739 0.23104 0.72065 0.0
O225 O 0.81442 0.22283 0.70881 0.0
C226 C 0.75189 0.21064 0.72942 0.0
O227 O 0.76932 0.2344 0.73401 0.0
O228 O 0.83715 0.22796 0.72833 0.0
C229 C 0.79389 0.21122 0.70328 0.0
O230 O 0.76636 0.205 0.70515 0.0
C231 C 0.83536 0.29608 0.71779 0.0
O232 O 0.85403 0.29268 0.71287 0.0
O233 O 0.76381 0.20304 0.72363 0.0
C234 C 0.37148 0.24414 0.22763 0.0
O235 O 0.37577 0.2516 0.21967 0.0
O236 O 0.45665 0.2826 0.22396 0.0
Zn237 Zn 0.42256 0.23965 0.22391 0.0
O238 O 0.40598 0.22623 0.21231 0.0
C239 C 0.43555 0.19024 0.22491 0.0
O240 O 0.41357 0.17672 0.21945 0.0
O241 O 0.38922 0.23701 0.23123 0.0
C242 C 0.42058 0.22586 0.20593 0.0
O243 O 0.44949 0.23506 0.20662 0.0
C244 C 0.46043 0.30409 0.21919 0.0
O245 O 0.44036 0.29923 0.21337 0.0
O246 O 0.44097 0.21533 0.22802 0.0
C247 C 0.74424 0.12517 0.22603 0.0
O248 O 0.72711 0.12193 0.21953 0.0
O249 O 0.71967 0.17384 0.22055 0.0
Zn250 Zn 0.7626 0.18228 0.22066 0.0
O251 O 0.77419 0.17581 0.20919 0.0
C252 C 0.78208 0.23646 0.23023 0.0
O253 O 0.7596 0.21805 0.23508 0.0
O254 O 0.76406 0.15167 0.22824 0.0
C255 C 0.78702 0.19665 0.20379 0.0
O256 O 0.79265 0.22403 0.20561 0.0
C257 C 0.7129 0.19305 0.21785 0.0
O258 O 0.73429 0.21877 0.21481 0.0
O259 O 0.78924 0.22558 0.22407 0.0
C260 C 0.87153 0.62347 0.22366 0.0
O261 O 0.87633 0.61048 0.21721 0.0
O262 O 0.82137 0.54548 0.21996 0.0
Zn263 Zn 0.81475 0.58081 0.21849 0.0
O264 O 0.82348 0.59617 0.20664 0.0
C265 C 0.75775 0.54756 0.22692 0.0
O266 O 0.77342 0.5396 0.23173 0.0
O267 O 0.84446 0.61438 0.22588 0.0
C268 C 0.803 0.5903 0.20125 0.0
O269 O 0.77462 0.57221 0.20327 0.0
C270 C 0.80715 0.5217 0.21558 0.0
O271 O 0.78867 0.52068 0.20972 0.0
O272 O 0.77126 0.56683 0.22116 0.0
C273 C 0.54987 0.02274 0.93768 0.0
O274 O 0.53676 0.01522 0.94505 0.0
O275 O 0.61175 0.11729 0.94243 0.0
Zn276 Zn 0.56899 0.08303 0.94352 0.0
O277 O 0.56217 0.06649 0.95523 0.0
C278 C 0.54662 0.11737 0.93505 0.0
O279 O 0.56723 0.12091 0.92954 0.0
O280 O 0.56335 0.05032 0.93547 0.0
C281 C 0.54843 0.07282 0.96078 0.0
O282 O 0.53917 0.09193 0.959 0.0
C283 C 0.61891 0.14282 0.94558 0.0
O284 O 0.59848 0.14583 0.94977 0.0
O285 O 0.54163 0.09991 0.94124 0.0
C286 C 0.95771 0.53816 0.93653 0.0
O287 O 0.94681 0.54216 0.94356 0.0
O288 O 0.88019 0.48937 0.94151 0.0
Zn289 Zn 0.91456 0.48079 0.94118 0.0
O290 O 0.93237 0.4858 0.95267 0.0
C291 C 0.87743 0.42721 0.93176 0.0
O292 O 0.87087 0.44567 0.92778 0.0
O293 O 0.94696 0.51148 0.93372 0.0
C294 C 0.92496 0.46424 0.9578 0.0
O295 O 0.904 0.43684 0.95569 0.0
C296 C 0.85528 0.47033 0.94484 0.0
O297 O 0.85301 0.44609 0.94837 0.0
O298 O 0.89779 0.43784 0.93736 0.0
C299 C 0.45754 0.41719 0.93834 0.0
O300 O 0.45289 0.40149 0.94524 0.0
O301 O 0.50411 0.38584 0.94295 0.0
Zn302 Zn 0.51401 0.4292 0.94311 0.0
O303 O 0.5088 0.44114 0.95471 0.0
C304 C 0.56787 0.44388 0.93417 0.0
O305 O 0.54915 0.41877 0.93026 0.0
O306 O 0.48441 0.43288 0.93564 0.0
C307 C 0.53051 0.45609 0.95974 0.0
O308 O 0.55811 0.46372 0.95747 0.0
C309 C 0.51715 0.37667 0.94794 0.0
O310 O 0.53595 0.39543 0.95355 0.0
O311 O 0.55739 0.45451 0.93955 0.0
C312 C 0.61444 0.74883 0.77136 0.0
O313 O 0.59691 0.72981 0.77712 0.0
O314 O 0.53912 0.72829 0.77422 0.0
Zn315 Zn 0.57602 0.76961 0.7756 0.0
O316 O 0.58909 0.7781 0.7876 0.0
C317 C 0.54648 0.79381 0.76575 0.0
O318 O 0.5376 0.76859 0.76159 0.0
O319 O 0.61016 0.77031 0.7692 0.0
C320 C 0.57639 0.78635 0.79298 0.0
O321 O 0.55289 0.78865 0.79076 0.0
C322 C 0.52512 0.7099 0.78013 0.0
O323 O 0.53479 0.71738 0.78786 0.0
O324 O 0.56515 0.80034 0.77172 0.0
C325 C 0.22093 0.85423 0.7692 0.0
O326 O 0.20543 0.84804 0.77619 0.0
O327 O 0.28156 0.82148 0.77586 0.0
Zn328 Zn 0.23873 0.81315 0.77596 0.0
O329 O 0.22935 0.82236 0.78741 0.0
C330 C 0.22126 0.757 0.7681 0.0
O331 O 0.24527 0.77461 0.76362 0.0
O332 O 0.23507 0.84033 0.76753 0.0
C333 C 0.2216 0.80358 0.79339 0.0
O334 O 0.21992 0.77743 0.7921 0.0
C335 C 0.30389 0.8458 0.77317 0.0
O336 O 0.2996 0.86771 0.77056 0.0
O337 O 0.2122 0.76893 0.7735 0.0
C338 C 0.12734 0.36927 0.77195 0.0
O339 O 0.12353 0.37764 0.77941 0.0
O340 O 0.17623 0.44595 0.77785 0.0
Zn341 Zn 0.18486 0.41173 0.77681 0.0
O342 O 0.18018 0.39191 0.78799 0.0
C343 C 0.23704 0.44953 0.76706 0.0
O344 O 0.21727 0.45406 0.76303 0.0
O345 O 0.15394 0.3811 0.769 0.0
C346 C 0.20153 0.39988 0.79323 0.0
O347 O 0.2284 0.42258 0.79143 0.0
C348 C 0.19607 0.47115 0.78085 0.0
O349 O 0.22131 0.47386 0.78378 0.0
O350 O 0.22775 0.42972 0.77282 0.0
C351 C 0.41947 0.95231 0.05938 0.0
O352 O 0.40481 0.93794 0.05259 0.0
O353 O 0.39659 0.87446 0.05758 0.0
Zn354 Zn 0.43779 0.91125 0.05636 0.0
O355 O 0.4464 0.92427 0.04434 0.0
C356 C 0.46097 0.88098 0.06629 0.0
O357 O 0.43598 0.873 0.07048 0.0
O358 O 0.43746 0.94502 0.06274 0.0
C359 C 0.45995 0.91602 0.03925 0.0
O360 O 0.46851 0.897 0.04175 0.0
C361 C 0.37647 0.8631 0.05192 0.0
O362 O 0.38201 0.87561 0.04447 0.0
O363 O 0.46809 0.89985 0.06035 0.0
C364 C 0.0317 0.47454 0.05927 0.0
O365 O 0.02372 0.48134 0.05215 0.0
O366 O 0.1277 0.51074 0.05411 0.0
Zn367 Zn 0.09137 0.5159 0.05321 0.0
O368 O 0.07485 0.50606 0.04153 0.0
C369 C 0.12141 0.57141 0.06218 0.0
O370 O 0.12427 0.55395 0.0677 0.0
O371 O 0.05948 0.48778 0.06126 0.0
C372 C 0.0848 0.52561 0.03572 0.0
O373 O 0.10727 0.55285 0.0373 0.0
C374 C 0.12714 0.48647 0.05616 0.0
O375 O 0.10109 0.46207 0.05763 0.0
O376 O 0.10593 0.55952 0.05563 0.0
C377 C 0.52774 0.55444 0.06122 0.0
O378 O 0.52115 0.54022 0.054 0.0
O379 O 0.48747 0.61065 0.05668 0.0
Zn380 Zn 0.48292 0.56931 0.05589 0.0
O381 O 0.49108 0.56195 0.04407 0.0
C382 C 0.42705 0.54555 0.06467 0.0
O383 O 0.44326 0.56981 0.06922 0.0
O384 O 0.51307 0.56719 0.06355 0.0
C385 C 0.47062 0.55127 0.03851 0.0
O386 O 0.44334 0.54574 0.04041 0.0
C387 C 0.51201 0.6345 0.05847 0.0
O388 O 0.53658 0.63292 0.05968 0.0
O389 O 0.43988 0.53928 0.05884 0.0
C390 C 0.03484 0.55782 0.56053 0.0
O391 O 0.02484 0.54234 0.55356 0.0
O392 O 0.12796 0.60502 0.55407 0.0
Zn393 Zn 0.091 0.56394 0.55485 0.0
O394 O 0.07171 0.55143 0.54354 0.0
C395 C 0.12603 0.54403 0.56379 0.0
O396 O 0.13608 0.57048 0.56737 0.0
O397 O 0.06202 0.56731 0.56274 0.0
C398 C 0.08466 0.54862 0.5371 0.0
O399 O 0.11272 0.55453 0.53766 0.0
C400 C 0.1267 0.62855 0.55229 0.0
O401 O 0.10043 0.62605 0.55057 0.0
O402 O 0.10453 0.535 0.55856 0.0
C403 C 0.45114 0.474 0.55917 0.0
O404 O 0.46356 0.47897 0.55171 0.0
O405 O 0.38888 0.50717 0.55516 0.0
Zn406 Zn 0.43041 0.51353 0.55311 0.0
O407 O 0.43394 0.50076 0.54147 0.0
C408 C 0.45674 0.57234 0.56046 0.0
O409 O 0.43843 0.55698 0.56662 0.0
O410 O 0.43759 0.48806 0.56135 0.0
C411 C 0.43994 0.51813 0.53521 0.0
O412 O 0.44209 0.5446 0.53626 0.0
C413 C 0.36428 0.48459 0.55275 0.0
O414 O 0.36497 0.46315 0.5484 0.0
O415 O 0.45901 0.55807 0.55426 0.0
C416 C 0.53567 0.95595 0.55373 0.0
O417 O 0.53843 0.94832 0.54607 0.0
O418 O 0.48903 0.87733 0.54901 0.0
Zn419 Zn 0.47824 0.90997 0.54985 0.0
O420 O 0.47985 0.92818 0.53852 0.0
C421 C 0.41499 0.89374 0.55153 0.0
O422 O 0.42156 0.91414 0.54568 0.0
O423 O 0.50989 0.94218 0.55723 0.0
C424 C 0.48399 0.95483 0.53828 0.0
O425 O 0.48614 0.9689 0.54535 0.0
C426 C 0.47238 0.85288 0.54512 0.0
O427 O 0.44871 0.84978 0.54103 0.0
O428 O 0.43589 0.88996 0.55453 0.0
C429 C 0.2126 0.36626 0.26858 0.0
O430 O 0.1946 0.35519 0.27508 0.0
O431 O 0.27044 0.45722 0.27736 0.0
Zn432 Zn 0.22756 0.4233 0.27615 0.0
O433 O 0.21348 0.40139 0.28707 0.0
C434 C 0.21159 0.46312 0.26805 0.0
O435 O 0.23742 0.47168 0.26425 0.0
O436 O 0.22708 0.39466 0.26745 0.0
C437 C 0.21689 0.41497 0.29398 0.0
O438 O 0.23025 0.44458 0.29406 0.0
C439 C 0.2928 0.45315 0.27634 0.0
O440 O 0.28788 0.42589 0.27472 0.0
O441 O 0.20168 0.44125 0.27318 0.0
C442 C 0.60786 0.85469 0.27063 0.0
O443 O 0.59217 0.85715 0.27678 0.0
O444 O 0.53279 0.80202 0.27402 0.0
Zn445 Zn 0.56884 0.79637 0.27543 0.0
O446 O 0.5825 0.80255 0.28746 0.0
C447 C 0.55962 0.73533 0.276 0.0
O448 O 0.57743 0.74528 0.28256 0.0
O449 O 0.60239 0.82852 0.26847 0.0
C450 C 0.61011 0.81167 0.28902 0.0
O451 O 0.62857 0.81603 0.28278 0.0
C452 C 0.52169 0.81135 0.2796 0.0
O453 O 0.53387 0.81794 0.28709 0.0
O454 O 0.55498 0.75368 0.27176 0.0
C455 C 0.13936 0.78644 0.26888 0.0
O456 O 0.14276 0.79805 0.2764 0.0
O457 O 0.17721 0.7293 0.27369 0.0
Zn458 Zn 0.18313 0.77098 0.27487 0.0
O459 O 0.17305 0.77736 0.28656 0.0
C460 C 0.23939 0.79478 0.26641 0.0
O461 O 0.22199 0.77466 0.26084 0.0
O462 O 0.1556 0.77525 0.26668 0.0
C463 C 0.19052 0.78162 0.29269 0.0
O464 O 0.21547 0.78078 0.29143 0.0
C465 C 0.15465 0.70504 0.27629 0.0
O466 O 0.13272 0.70619 0.28024 0.0
O467 O 0.22722 0.79928 0.27276 0.0
H468 H 0.23493 0.12211 0.14413 0.0
H469 H 0.26311 0.13991 0.15726 0.0
H470 H 0.34164 0.14615 0.14533 0.0
H471 H 0.31361 0.12792 0.13224 0.0
H472 H 0.33063 0.12007 0.16115 0.0
H473 H 0.32836 0.22742 0.16161 0.0
H474 H 0.2918 0.19418 0.16087 0.0
H475 H 0.31835 0.20366 0.15245 0.0
C476 C 0.25815 0.12715 0.14431 0.0
C477 C 0.27209 0.12382 0.13712 0.0
C478 C 0.27427 0.13749 0.1518 0.0
C479 C 0.30461 0.14489 0.15221 0.0
C480 C 0.3183 0.14074 0.14512 0.0
H481 H 0.44314 0.2183 0.19111 0.0
H482 H 0.41572 0.19843 0.17792 0.0
C483 C 0.30222 0.13034 0.13764 0.0
C484 C 0.32226 0.15717 0.15999 0.0
H485 H 0.34793 0.21618 0.17367 0.0
C486 C 0.33455 0.14114 0.16388 0.0
C487 C 0.32743 0.18475 0.16349 0.0
C488 C 0.31606 0.2037 0.15936 0.0
C489 C 0.35131 0.15162 0.17131 0.0
C490 C 0.3562 0.17903 0.17484 0.0
C491 C 0.34409 0.19515 0.17093 0.0
C492 C 0.37302 0.19099 0.18276 0.0
C493 C 0.36302 0.13295 0.17543 0.0
C494 C 0.35821 0.19394 0.18976 0.0
C495 C 0.37376 0.20536 0.19726 0.0
C496 C 0.40453 0.21424 0.19789 0.0
C497 C 0.41944 0.21157 0.19083 0.0
C498 C 0.40379 0.20007 0.18331 0.0
H499 H 0.35188 0.10956 0.17293 0.0
H500 H 0.38761 0.14354 0.17425 0.0
H501 H 0.35951 0.13196 0.18231 0.0
H502 H 0.33451 0.18719 0.18944 0.0
H503 H 0.36158 0.20718 0.20257 0.0
H504 H 0.81674 0.23604 0.19098 0.0
H505 H 0.83372 0.22524 0.17776 0.0
H506 H 0.79658 0.13229 0.18515 0.0
H507 H 0.77923 0.14268 0.19831 0.0
H508 H 0.87348 0.20245 0.17572 0.0
H509 H 0.76119 0.12602 0.1617 0.0
H510 H 0.7662 0.15042 0.17046 0.0
H511 H 0.7662 0.11566 0.17207 0.0
C512 C 0.81197 0.21325 0.18976 0.0
C513 C 0.79654 0.1902 0.19568 0.0
C514 C 0.82174 0.20715 0.18222 0.0
C515 C 0.81604 0.17791 0.18045 0.0
C516 C 0.80067 0.15488 0.18634 0.0
H517 H 0.85971 0.09709 0.13881 0.0
H518 H 0.84401 0.10713 0.15236 0.0
C519 C 0.79091 0.16092 0.19387 0.0
C520 C 0.82705 0.17164 0.17257 0.0
H521 H 0.8037 0.12938 0.15473 0.0
C522 C 0.85826 0.18658 0.1711 0.0
C523 C 0.80708 0.15081 0.16661 0.0
C524 C 0.77328 0.13497 0.16773 0.0
C525 C 0.8701 0.18096 0.16385 0.0
C526 C 0.85012 0.1602 0.15787 0.0
C527 C 0.81892 0.14517 0.15936 0.0
C528 C 0.86102 0.15451 0.14989 0.0
C529 C 0.90388 0.19691 0.1627 0.0
C530 C 0.87569 0.17783 0.14405 0.0
C531 C 0.88465 0.17221 0.13633 0.0
C532 C 0.87895 0.14307 0.13429 0.0
C533 C 0.8645 0.11978 0.1402 0.0
C534 C 0.85548 0.12545 0.14793 0.0
H535 H 0.91601 0.20567 0.16872 0.0
H536 H 0.91098 0.1816 0.15988 0.0
H537 H 0.91087 0.21636 0.15841 0.0
H538 H 0.87966 0.20028 0.14539 0.0
H539 H 0.89565 0.19064 0.13191 0.0
H540 H 0.85925 0.63064 0.19542 0.0
H541 H 0.87217 0.6583 0.18219 0.0
H542 H 0.77811 0.61287 0.17529 0.0
H543 H 0.7649 0.58481 0.18848 0.0
H544 H 0.81778 0.61577 0.16238 0.0
H545 H 0.85589 0.72781 0.17691 0.0
H546 H 0.87353 0.70771 0.181 0.0
H547 H 0.83377 0.69283 0.18251 0.0
C548 C 0.84128 0.62641 0.19108 0.0
C549 C 0.811 0.60565 0.19303 0.0
C550 C 0.84871 0.64239 0.18355 0.0
C551 C 0.82603 0.63801 0.17785 0.0
C552 C 0.79589 0.6167 0.17965 0.0
H553 H 0.82122 0.71091 0.12929 0.0
H554 H 0.80905 0.68379 0.14259 0.0
C555 C 0.78841 0.6007 0.18719 0.0
C556 C 0.83375 0.65559 0.16999 0.0
H557 H 0.86403 0.72722 0.16232 0.0
C558 C 0.82779 0.64012 0.16235 0.0
C559 C 0.84686 0.68735 0.17 0.0
C560 C 0.85269 0.70496 0.17803 0.0
C561 C 0.83502 0.65564 0.1547 0.0
C562 C 0.84804 0.6874 0.15471 0.0
C563 C 0.85407 0.70288 0.16235 0.0
C564 C 0.85534 0.7049 0.14684 0.0
C565 C 0.82923 0.63799 0.14668 0.0
C566 C 0.8853 0.72658 0.14498 0.0
C567 C 0.89236 0.74231 0.1374 0.0
C568 C 0.86951 0.73668 0.13158 0.0
C569 C 0.83939 0.71562 0.1336 0.0
C570 C 0.83239 0.69995 0.14117 0.0
H571 H 0.82656 0.61536 0.14781 0.0
H572 H 0.80808 0.63472 0.14379 0.0
H573 H 0.8479 0.65033 0.14214 0.0
H574 H 0.90329 0.73086 0.14932 0.0
H575 H 0.91575 0.75845 0.13604 0.0
H576 H 0.13508 0.30546 0.36779 0.0
H577 H 0.15316 0.33348 0.3547 0.0
H578 H 0.11683 0.24988 0.34099 0.0
H579 H 0.0982 0.2215 0.35407 0.0
H580 H 0.19372 0.33196 0.34336 0.0
H581 H 0.08275 0.29614 0.32842 0.0
H582 H 0.08655 0.29081 0.33944 0.0
H583 H 0.08813 0.26572 0.33184 0.0
C584 C 0.13075 0.29295 0.36199 0.0
C585 C 0.1151 0.26121 0.36196 0.0
C586 C 0.14114 0.30904 0.35452 0.0
C587 C 0.13601 0.29375 0.34689 0.0
C588 C 0.1205 0.26208 0.34682 0.0
H589 H 0.1874 0.35371 0.29576 0.0
H590 H 0.16856 0.3246 0.30867 0.0
C591 C 0.11002 0.24591 0.3543 0.0
C592 C 0.14774 0.31112 0.33904 0.0
H593 H 0.12625 0.3249 0.32009 0.0
C594 C 0.17899 0.33051 0.33827 0.0
C595 C 0.12841 0.30911 0.33244 0.0
C596 C 0.09457 0.28954 0.33307 0.0
C597 C 0.19152 0.34773 0.33101 0.0
C598 C 0.17219 0.34578 0.32443 0.0
C599 C 0.14095 0.3263 0.32517 0.0
C600 C 0.18395 0.36368 0.31667 0.0
C601 C 0.22534 0.36745 0.33039 0.0
C602 C 0.19861 0.3953 0.31691 0.0
C603 C 0.20943 0.41207 0.30954 0.0
C604 C 0.20564 0.39743 0.30181 0.0
C605 C 0.19076 0.36571 0.30161 0.0
C606 C 0.17994 0.349 0.30897 0.0
H607 H 0.23722 0.36098 0.33505 0.0
H608 H 0.2334 0.36618 0.32403 0.0
H609 H 0.23164 0.39125 0.33159 0.0
H610 H 0.20145 0.40699 0.32278 0.0
H611 H 0.22066 0.43644 0.3099 0.0
H612 H 0.68894 0.88406 0.36608 0.0
H613 H 0.66876 0.8752 0.35183 0.0
H614 H 0.71466 0.82606 0.3461 0.0
H615 H 0.73495 0.8347 0.36034 0.0
H616 H 0.70205 0.89115 0.33623 0.0
H617 H 0.62439 0.76775 0.33986 0.0
H618 H 0.6403 0.7929 0.3487 0.0
H619 H 0.66285 0.78122 0.34294 0.0
C620 C 0.69477 0.87137 0.36179 0.0
C621 C 0.71343 0.85995 0.36435 0.0
C622 C 0.68324 0.86637 0.35366 0.0
C623 C 0.68995 0.84967 0.34798 0.0
C624 C 0.70891 0.83862 0.35045 0.0
H625 H 0.66819 0.83401 0.29428 0.0
H626 H 0.68705 0.84378 0.30865 0.0
C627 C 0.72057 0.84371 0.35857 0.0
C628 C 0.67725 0.844 0.33943 0.0
H629 H 0.62977 0.78787 0.32619 0.0
C630 C 0.68619 0.86861 0.33402 0.0
C631 C 0.65632 0.81458 0.33665 0.0
C632 C 0.64513 0.78756 0.34234 0.0
C633 C 0.67516 0.8645 0.3258 0.0
C634 C 0.6549 0.83498 0.32294 0.0
C635 C 0.64548 0.81044 0.32841 0.0
C636 C 0.64339 0.82909 0.31426 0.0
C637 C 0.68503 0.89173 0.32027 0.0
C638 C 0.6125 0.81704 0.31269 0.0
C639 C 0.6016 0.81137 0.30449 0.0
C640 C 0.62143 0.81742 0.29772 0.0
C641 C 0.65233 0.82918 0.29934 0.0
C642 C 0.6632 0.83493 0.30755 0.0
H643 H 0.69481 0.91297 0.32395 0.0
H644 H 0.70255 0.89341 0.31585 0.0
H645 H 0.66578 0.88967 0.31653 0.0
H646 H 0.59688 0.81225 0.31782 0.0
H647 H 0.57766 0.80224 0.30345 0.0
H648 H 0.10006 0.86437 0.35774 0.0
H649 H 0.10826 0.84674 0.34427 0.0
H650 H 0.19113 0.85492 0.35358 0.0
H651 H 0.18342 0.87289 0.367 0.0
H652 H 0.19639 0.87986 0.33768 0.0
H653 H 0.09836 0.76335 0.3395 0.0
H654 H 0.08938 0.79283 0.34089 0.0
H655 H 0.11247 0.78795 0.34849 0.0
C656 C 0.12003 0.86241 0.35692 0.0
C657 C 0.14102 0.86992 0.36345 0.0
C658 C 0.12456 0.85216 0.34924 0.0
C659 C 0.15005 0.84908 0.34799 0.0
C660 C 0.17123 0.85698 0.35445 0.0
H661 H 0.22402 0.79452 0.30704 0.0
H662 H 0.21397 0.81033 0.32054 0.0
C663 C 0.16676 0.86724 0.36211 0.0
C664 C 0.15508 0.83819 0.33991 0.0
H665 H 0.12576 0.77746 0.32676 0.0
C666 C 0.18102 0.85745 0.33529 0.0
C667 C 0.13494 0.80894 0.33684 0.0
C668 C 0.10734 0.78691 0.3417 0.0
C669 C 0.18718 0.84839 0.32761 0.0
C670 C 0.16711 0.81911 0.32455 0.0
C671 C 0.1411 0.79987 0.32915 0.0
C672 C 0.17255 0.80819 0.31653 0.0
C673 C 0.2148 0.87044 0.32275 0.0
C674 C 0.15206 0.80081 0.30991 0.0
C675 C 0.15762 0.79161 0.30221 0.0
C676 C 0.18375 0.7895 0.30101 0.0
C677 C 0.2038 0.79609 0.30774 0.0
C678 C 0.19819 0.80529 0.31544 0.0
H679 H 0.22365 0.89402 0.32492 0.0
H680 H 0.23284 0.86467 0.32362 0.0
H681 H 0.20976 0.86929 0.31595 0.0
H682 H 0.13204 0.80275 0.31065 0.0
H683 H 0.14165 0.7866 0.29716 0.0
H684 H 0.55317 0.80134 0.8064 0.0
H685 H 0.57464 0.81537 0.82049 0.0
H686 H 0.64916 0.80374 0.81297 0.0
H687 H 0.62762 0.78908 0.79897 0.0
H688 H 0.6261 0.77792 0.82807 0.0
H689 H 0.64733 0.89542 0.82726 0.0
H690 H 0.60884 0.86721 0.82524 0.0
H691 H 0.6379 0.87217 0.81801 0.0
C692 C 0.57412 0.80177 0.80775 0.0
C693 C 0.58876 0.79423 0.80156 0.0
C694 C 0.58645 0.80998 0.81579 0.0
C695 C 0.61376 0.8111 0.81772 0.0
C696 C 0.62813 0.80314 0.81159 0.0
H697 H 0.73322 0.89933 0.85963 0.0
H698 H 0.70922 0.88413 0.84587 0.0
C699 C 0.61577 0.79478 0.80359 0.0
C700 C 0.62733 0.82017 0.82616 0.0
H701 H 0.6558 0.87822 0.84021 0.0
C702 C 0.63261 0.79984 0.83073 0.0
C703 C 0.63617 0.84896 0.82955 0.0
C704 C 0.63257 0.87234 0.82474 0.0
C705 C 0.64638 0.80745 0.83863 0.0
C706 C 0.65444 0.83591 0.84213 0.0
C707 C 0.64934 0.85632 0.83754 0.0
C708 C 0.6687 0.84514 0.85048 0.0
C709 C 0.65282 0.78523 0.84307 0.0
C710 C 0.65367 0.82848 0.85763 0.0
C711 C 0.66739 0.83696 0.86548 0.0
C712 C 0.69625 0.8625 0.86633 0.0
C713 C 0.71101 0.8795 0.85918 0.0
C714 C 0.69733 0.87088 0.85132 0.0
H715 H 0.65289 0.76847 0.83866 0.0
H716 H 0.67493 0.79696 0.84633 0.0
H717 H 0.63499 0.77272 0.84781 0.0
H718 H 0.63128 0.80894 0.85714 0.0
H719 H 0.6553 0.82355 0.87088 0.0
H720 H 0.19487 0.90071 0.86571 0.0
H721 H 0.20885 0.89139 0.85185 0.0
H722 H 0.11934 0.81509 0.84864 0.0
H723 H 0.10499 0.82445 0.86243 0.0
H724 H 0.20871 0.83995 0.8464 0.0
H725 H 0.13228 0.8627 0.82702 0.0
H726 H 0.14024 0.87394 0.83786 0.0
H727 H 0.11337 0.83554 0.83518 0.0
C728 C 0.17807 0.88209 0.86203 0.0
C729 C 0.14879 0.86338 0.86516 0.0
C730 C 0.18612 0.87679 0.85412 0.0
C731 C 0.16502 0.8528 0.84919 0.0
C732 C 0.13577 0.8341 0.85228 0.0
H733 H 0.20168 0.76783 0.80734 0.0
H734 H 0.18858 0.78017 0.82093 0.0
C735 C 0.12767 0.83941 0.86018 0.0
C736 C 0.17398 0.84661 0.84094 0.0
H737 H 0.15697 0.8398 0.82012 0.0
C738 C 0.19752 0.84005 0.84064 0.0
C739 C 0.15953 0.84709 0.83345 0.0
C740 C 0.13514 0.85548 0.83335 0.0
C741 C 0.20668 0.83343 0.83304 0.0
C742 C 0.19151 0.83287 0.82558 0.0
C743 C 0.16833 0.83995 0.82586 0.0
C744 C 0.19959 0.82536 0.81739 0.0
C745 C 0.23278 0.82754 0.83304 0.0
C746 C 0.20946 0.84644 0.81085 0.0
C747 C 0.21673 0.8394 0.80306 0.0
C748 C 0.21416 0.81106 0.80167 0.0
C749 C 0.2041 0.78992 0.80823 0.0
C750 C 0.19676 0.79698 0.81601 0.0
H751 H 0.2468 0.83653 0.83878 0.0
H752 H 0.2239 0.80284 0.83284 0.0
H753 H 0.24741 0.83783 0.82748 0.0
H754 H 0.21165 0.86843 0.81178 0.0
H755 H 0.22434 0.85618 0.79814 0.0
H756 H 0.10349 0.22891 0.85813 0.0
H757 H 0.11582 0.25316 0.84437 0.0
H758 H 0.20425 0.31887 0.85329 0.0
H759 H 0.19226 0.29478 0.86705 0.0
H760 H 0.13258 0.31494 0.84175 0.0
H761 H 0.22095 0.29023 0.83067 0.0
H762 H 0.1948 0.26904 0.83895 0.0
H763 H 0.22646 0.30579 0.84104 0.0
C764 C 0.12571 0.24826 0.85714 0.0
C765 C 0.14688 0.25995 0.86369 0.0
C766 C 0.13269 0.26209 0.84928 0.0
C767 C 0.16102 0.28759 0.84781 0.0
C768 C 0.18244 0.2989 0.85426 0.0
H769 H 0.2408 0.41256 0.80629 0.0
H770 H 0.23094 0.38542 0.8196 0.0
C771 C 0.17547 0.28518 0.86213 0.0
C772 C 0.16737 0.30368 0.83973 0.0
H773 H 0.21359 0.32504 0.82264 0.0
C774 C 0.15015 0.31702 0.83754 0.0
C775 C 0.19052 0.30654 0.83432 0.0
C776 C 0.20914 0.29197 0.8363 0.0
C777 C 0.15571 0.33355 0.83011 0.0
C778 C 0.17868 0.3362 0.82465 0.0
C779 C 0.19599 0.32293 0.82685 0.0
C780 C 0.18477 0.35234 0.81656 0.0
C781 C 0.1374 0.34859 0.82827 0.0
C782 C 0.16221 0.34242 0.81042 0.0
C783 C 0.16768 0.35791 0.80286 0.0
C784 C 0.19597 0.38347 0.80125 0.0
C785 C 0.21875 0.39303 0.80735 0.0
C786 C 0.21318 0.37754 0.81494 0.0
H787 H 0.12693 0.35147 0.83403 0.0
H788 H 0.15156 0.37107 0.82534 0.0
H789 H 0.11897 0.33435 0.82385 0.0
H790 H 0.14034 0.32262 0.81148 0.0
H791 H 0.14973 0.34977 0.79826 0.0
H792 H 0.78684 0.55488 0.68967 0.0
H793 H 0.80593 0.58273 0.67651 0.0
H794 H 0.80546 0.6596 0.6874 0.0
H795 H 0.78623 0.63205 0.70051 0.0
H796 H 0.77969 0.64341 0.67105 0.0
H797 H 0.89311 0.65383 0.67295 0.0
H798 H 0.86138 0.61628 0.67394 0.0
H799 H 0.86825 0.64382 0.68188 0.0
C800 C 0.79072 0.57768 0.68925 0.0
C801 C 0.78517 0.5913 0.69615 0.0
C802 C 0.80178 0.59359 0.68175 0.0
C803 C 0.80746 0.62332 0.68105 0.0
C804 C 0.80134 0.63671 0.68785 0.0
H805 H 0.87353 0.76429 0.64347 0.0
H806 H 0.85315 0.73345 0.65608 0.0
C807 C 0.79039 0.62091 0.69534 0.0
C808 C 0.81977 0.6407 0.67324 0.0
H809 H 0.88253 0.67339 0.66086 0.0
C810 C 0.80215 0.64997 0.6688 0.0
C811 C 0.84906 0.64913 0.67035 0.0
C812 C 0.86924 0.64051 0.67504 0.0
C813 C 0.81299 0.66736 0.6615 0.0
C814 C 0.84248 0.67621 0.65868 0.0
C815 C 0.85997 0.66664 0.66307 0.0
C816 C 0.85557 0.69529 0.65116 0.0
C817 C 0.7926 0.67567 0.6568 0.0
C818 C 0.86463 0.68445 0.64435 0.0
C819 C 0.87655 0.7021 0.63718 0.0
C820 C 0.8797 0.73099 0.6367 0.0
C821 C 0.87121 0.74206 0.64362 0.0
C822 C 0.85937 0.7244 0.6508 0.0
H823 H 0.76849 0.6606 0.65846 0.0
H824 H 0.79864 0.6991 0.65844 0.0
H825 H 0.79521 0.67458 0.64993 0.0
H826 H 0.86206 0.66211 0.64453 0.0
H827 H 0.88293 0.6929 0.63197 0.0
H828 H 0.35552 0.15377 0.7005 0.0
H829 H 0.32913 0.14491 0.68717 0.0
H830 H 0.41033 0.21516 0.6757 0.0
H831 H 0.43721 0.22386 0.68902 0.0
H832 H 0.31917 0.18447 0.67806 0.0
H833 H 0.38473 0.14529 0.65944 0.0
H834 H 0.38702 0.14818 0.67071 0.0
H835 H 0.40736 0.18136 0.66434 0.0
C836 C 0.36789 0.16725 0.69513 0.0
C837 C 0.39852 0.18949 0.69581 0.0
C838 C 0.35273 0.16214 0.68752 0.0
C839 C 0.36784 0.17912 0.68043 0.0
C840 C 0.39841 0.20138 0.68107 0.0
H841 H 0.31027 0.186 0.62994 0.0
H842 H 0.33708 0.19604 0.64326 0.0
C843 C 0.41369 0.20642 0.68869 0.0
C844 C 0.35117 0.17402 0.67246 0.0
H845 H 0.34946 0.15374 0.65202 0.0
C846 C 0.32572 0.17764 0.67237 0.0
C847 C 0.35977 0.16508 0.66506 0.0
C848 C 0.38604 0.15946 0.66488 0.0
C849 C 0.30881 0.17292 0.66504 0.0
C850 C 0.31748 0.16409 0.65765 0.0
C851 C 0.34297 0.16057 0.65772 0.0
C852 C 0.30048 0.15851 0.64974 0.0
C853 C 0.28211 0.17786 0.6652 0.0
C854 C 0.27098 0.13405 0.64901 0.0
C855 C 0.25554 0.12814 0.6414 0.0
C856 C 0.26942 0.14662 0.6344 0.0
C857 C 0.29887 0.17133 0.63521 0.0
C858 C 0.31429 0.17711 0.6428 0.0
H859 H 0.28217 0.19053 0.67086 0.0
H860 H 0.2819 0.19037 0.65955 0.0
H861 H 0.26098 0.15566 0.66523 0.0
H862 H 0.26012 0.11923 0.65429 0.0
H863 H 0.23294 0.10891 0.64097 0.0
H864 H 0.75515 0.18348 0.69018 0.0
H865 H 0.7663 0.16703 0.67691 0.0
H866 H 0.85901 0.2037 0.68449 0.0
H867 H 0.84817 0.22001 0.69775 0.0
H868 H 0.81034 0.2021 0.66441 0.0
H869 H 0.83087 0.11484 0.67857 0.0
H870 H 0.81176 0.13126 0.68409 0.0
H871 H 0.85218 0.15166 0.68318 0.0
C872 C 0.77793 0.18813 0.68901 0.0
C873 C 0.80072 0.20285 0.69505 0.0
C874 C 0.78423 0.17871 0.68144 0.0
C875 C 0.81332 0.1837 0.67981 0.0
C876 C 0.83628 0.19911 0.68571 0.0
H877 H 0.90163 0.14615 0.63925 0.0
H878 H 0.88837 0.16159 0.65235 0.0
C879 C 0.83004 0.20855 0.69327 0.0
C880 C 0.81985 0.17294 0.67193 0.0
H881 H 0.84355 0.12608 0.66421 0.0
C882 C 0.81741 0.18534 0.66434 0.0
C883 C 0.8291 0.15111 0.6719 0.0
C884 C 0.83091 0.1362 0.67986 0.0
C885 C 0.82472 0.177 0.65671 0.0
C886 C 0.83418 0.15532 0.65669 0.0
C887 C 0.83639 0.14276 0.66427 0.0
C888 C 0.8419 0.14537 0.64885 0.0
C889 C 0.82301 0.19202 0.64876 0.0
C890 C 0.81996 0.13059 0.64264 0.0
C891 C 0.82743 0.12177 0.63517 0.0
C892 C 0.85697 0.12742 0.63379 0.0
C893 C 0.87872 0.14155 0.64011 0.0
C894 C 0.8712 0.1504 0.64759 0.0
H895 H 0.82274 0.21321 0.65007 0.0
H896 H 0.84237 0.19727 0.64458 0.0
H897 H 0.80192 0.17648 0.64537 0.0
H898 H 0.79705 0.12593 0.64358 0.0
H899 H 0.81007 0.11073 0.63046 0.0
H900 H 0.10492 0.54028 0.522 0.0
H901 H 0.07625 0.52211 0.50894 0.0
H902 H 0.99757 0.51424 0.52122 0.0
H903 H 0.02598 0.53272 0.53423 0.0
H904 H 0.02322 0.46687 0.5061 0.0
H905 H 0.0049 0.56348 0.5003 0.0
H906 H 0.03257 0.56537 0.50766 0.0
H907 H 0.99333 0.54695 0.51051 0.0
C908 C 0.08157 0.53487 0.52191 0.0
C909 C 0.06779 0.53809 0.52914 0.0
C910 C 0.06524 0.52446 0.51445 0.0
C911 C 0.03495 0.51729 0.5141 0.0
C912 C 0.0211 0.52028 0.52132 0.0
H913 H 0.8966 0.44735 0.47546 0.0
H914 H 0.92431 0.46439 0.4887 0.0
C915 C 0.03737 0.5307 0.52876 0.0
C916 C 0.01748 0.50577 0.50626 0.0
H917 H 0.97738 0.5202 0.49173 0.0
C918 C 0.01332 0.47858 0.50293 0.0
C919 C 0.00449 0.52107 0.50217 0.0
C920 C 0.00923 0.55098 0.50529 0.0
C921 C 0.9961 0.466 0.49567 0.0
C922 C 0.98314 0.48132 0.49158 0.0
C923 C 0.98724 0.50847 0.49492 0.0
C924 C 0.9661 0.47009 0.48367 0.0
C925 C 0.9915 0.43619 0.49251 0.0
C926 C 0.98055 0.46792 0.47647 0.0
C927 C 0.96487 0.45822 0.46892 0.0
C928 C 0.93443 0.45069 0.46842 0.0
C929 C 0.91998 0.45291 0.47565 0.0
C930 C 0.93576 0.46265 0.48321 0.0
H931 H 0.99582 0.42364 0.49749 0.0
H932 H 0.9682 0.4218 0.49011 0.0
H933 H 0.00746 0.44036 0.4873 0.0
H934 H 0.00413 0.47415 0.47666 0.0
H935 H 0.97674 0.45691 0.46347 0.0
H936 H 0.45662 0.55107 0.52073 0.0
H937 H 0.47346 0.53916 0.50767 0.0
H938 H 0.45843 0.4553 0.5183 0.0
H939 H 0.4412 0.46675 0.53133 0.0
H940 H 0.52271 0.52996 0.50615 0.0
H941 H 0.41698 0.42926 0.49548 0.0
H942 H 0.41737 0.45475 0.50336 0.0
H943 H 0.42766 0.42698 0.50604 0.0
C944 C 0.45648 0.52989 0.52025 0.0
C945 C 0.44755 0.50985 0.52707 0.0
C946 C 0.46616 0.52316 0.5128 0.0
C947 C 0.4669 0.49623 0.512 0.0
C948 C 0.45749 0.47593 0.51873 0.0
H949 H 0.53081 0.42415 0.47254 0.0
H950 H 0.51265 0.4331 0.48584 0.0
C951 C 0.44778 0.48261 0.52619 0.0
C952 C 0.47926 0.49026 0.50433 0.0
H953 H 0.46176 0.44085 0.48809 0.0
C954 C 0.50937 0.51055 0.50218 0.0
C955 C 0.46184 0.46477 0.49921 0.0
C956 C 0.42909 0.44279 0.50108 0.0
C957 C 0.52262 0.50595 0.49506 0.0
C958 C 0.50513 0.48064 0.4899 0.0
C959 C 0.47511 0.46017 0.49209 0.0
C960 C 0.51718 0.47572 0.48201 0.0
C961 C 0.55534 0.52801 0.49318 0.0
C962 C 0.5256 0.49668 0.47548 0.0
C963 C 0.53596 0.49168 0.4679 0.0
C964 C 0.53795 0.4655 0.4667 0.0
C965 C 0.52966 0.44459 0.47328 0.0
C966 C 0.51922 0.44961 0.48087 0.0
H967 H 0.56759 0.54109 0.49883 0.0
H968 H 0.56697 0.51621 0.49072 0.0
H969 H 0.55669 0.54424 0.48836 0.0
H970 H 0.52367 0.5167 0.47618 0.0
H971 H 0.54204 0.50821 0.46295 0.0
H972 H 0.50337 0.04154 0.46229 0.0
H973 H 0.49526 0.0178 0.47601 0.0
H974 H 0.52517 0.10377 0.48794 0.0
H975 H 0.53391 0.12797 0.47419 0.0
H976 H 0.55125 0.07225 0.4946 0.0
H977 H 0.4271 0.99853 0.49239 0.0
H978 H 0.447 0.99421 0.48374 0.0
H979 H 0.44825 0.02962 0.48531 0.0
C980 C 0.50809 0.05544 0.46782 0.0
C981 C 0.51917 0.08665 0.46715 0.0
C982 C 0.50325 0.04176 0.47566 0.0
C983 C 0.50906 0.05893 0.48298 0.0
C984 C 0.52033 0.09012 0.48235 0.0
H985 H 0.49697 0.01285 0.53579 0.0
H986 H 0.50302 0.03862 0.52244 0.0
C987 C 0.52529 0.10389 0.4745 0.0
C988 C 0.50443 0.0444 0.49127 0.0
H989 H 0.4516 0.98797 0.5035 0.0
C990 C 0.52942 0.05402 0.49659 0.0
C991 C 0.47591 0.02059 0.49383 0.0
C992 C 0.44797 0.0103 0.48856 0.0
C993 C 0.52681 0.03991 0.50432 0.0
C994 C 0.49842 0.01582 0.5068 0.0
C995 C 0.47336 0.00638 0.50153 0.0
C996 C 0.49429 7e-05 0.51486 0.0
C997 C 0.55456 0.05035 0.50968 0.0
C998 C 0.48677 0.96969 0.51498 0.0
C999 C 0.48327 0.95485 0.52259 0.0
C1000 C 0.48699 0.97014 0.5302 0.0
C1001 C 0.49404 0.00046 0.53004 0.0
C1002 C 0.49764 0.01528 0.52243 0.0
H1003 H 0.57565 0.06473 0.50613 0.0
H1004 H 0.5536 0.06375 0.51501 0.0
H1005 H 0.55557 0.03075 0.51229 0.0
H1006 H 0.48395 0.95759 0.50917 0.0
H1007 H 0.47774 0.93148 0.52251 0.0
H1008 H 0.44508 0.95556 0.03231 0.0
H1009 H 0.45993 0.97993 0.01865 0.0
H1010 H 0.50666 0.9313 0.01327 0.0
H1011 H 0.4922 0.90695 0.02703 0.0
H1012 H 0.54094 0.99351 0.01019 0.0
H1013 H 0.42786 0.94429 0.99549 0.0
H1014 H 0.43018 0.96112 0.00553 0.0
H1015 H 0.43479 0.92858 0.00478 0.0
C1016 C 0.45829 0.94978 0.02821 0.0
C1017 C 0.46745 0.92927 0.03076 0.0
C1018 C 0.46661 0.96363 0.02038 0.0
C1019 C 0.48402 0.95708 0.01492 0.0
C1020 C 0.49305 0.93648 0.0174 0.0
H1021 H 0.56312 0.03117 0.96624 0.0
H1022 H 0.54853 0.00318 0.97942 0.0
C1023 C 0.48472 0.92257 0.02524 0.0
C1024 C 0.49402 0.973 0.00681 0.0
H1025 H 0.46805 0.98675 0.98861 0.0
C1026 C 0.52506 0.99183 0.00542 0.0
C1027 C 0.47319 0.97078 0.00063 0.0
C1028 C 0.43966 0.94989 0.00163 0.0
C1029 C 0.53582 0.00924 -0.00188 0.0
C1030 C 0.51495 0.00737 0.99201 0.0
C1031 C 0.48394 0.98823 0.99334 0.0
C1032 C 0.52478 0.02512 0.98418 0.0
C1033 C 0.56934 0.03012 0.99709 0.0
C1034 C 0.51596 0.04648 0.98247 0.0
C1035 C 0.52418 0.06248 0.97494 0.0
C1036 C 0.54118 0.0572 0.96896 0.0
C1037 C 0.55015 0.0359 0.97073 0.0
C1038 C 0.54195 0.01995 0.97827 0.0
H1039 H 0.58158 0.03415 0.00312 0.0
H1040 H 0.57837 0.01985 0.99267 0.0
H1041 H 0.57412 0.05218 0.99447 0.0
H1042 H 0.50259 0.05066 0.98696 0.0
H1043 H 0.51684 0.07866 0.97376 0.0
H1044 H 0.91448 0.42387 0.9704 0.0
H1045 H 0.9413 0.43367 0.98376 0.0
H1046 H 0.99807 0.52701 0.97684 0.0
H1047 H 0.97121 0.51763 0.96358 0.0
H1048 H 0.00267 0.45526 0.98642 0.0
H1049 H 0.96785 0.53297 0.0 0.0
H1050 H 0.94925 0.5094 0.99105 0.0
H1051 H 0.98449 0.54401 0.98979 0.0
C1052 C 0.93253 0.44653 0.97175 0.0
C1053 C 0.9406 0.47 0.96595 0.0
C1054 C 0.94784 0.45206 0.97937 0.0
C1055 C 0.97134 0.48115 0.98133 0.0
C1056 C 0.97957 0.50455 0.97553 0.0
H1057 H 0.09722 0.5632 0.02229 0.0
H1058 H 0.07038 0.55147 0.00891 0.0
C1059 C 0.96426 0.49908 0.96793 0.0
C1060 C 0.98792 0.48694 0.98933 0.0
H1061 H 0.00723 0.52995 0.00704 0.0
C1062 C 0.00352 0.47142 0.99096 0.0
C1063 C 0.98898 0.50808 0.99522 0.0
C1064 C 0.97152 0.52438 0.99398 0.0
C1065 C 0.02075 0.47699 -0.00173 0.0
C1066 C 0.02204 0.49835 0.00411 0.0
C1067 C 0.00631 0.51373 0.0025 0.0
C1068 C 0.03923 0.50482 0.01201 0.0
C1069 C 0.03794 0.46048 -0.0004 0.0
C1070 C 0.03052 0.48243 0.01815 0.0
C1071 C 0.04574 0.48904 0.0258 0.0
C1072 C 0.06988 0.51821 0.02744 0.0
C1073 C 0.07877 0.5405 0.02122 0.0
C1074 C 0.06346 0.53387 0.01358 0.0
H1075 H 0.04034 0.45036 0.9937 0.0
H1076 H 0.06077 0.47588 0.00217 0.0
H1077 H 0.02561 0.44199 0.00418 0.0
H1078 H 0.01153 0.46001 0.0171 0.0
H1079 H 0.03824 0.47138 0.03047 0.0
H1080 H 0.47666 0.44688 0.96582 0.0
H1081 H 0.46736 0.46446 0.97911 0.0
H1082 H 0.56155 0.50432 0.98551 0.0
H1083 H 0.57123 0.48726 0.97216 0.0
H1084 H 0.47676 0.45142 0.99527 0.0
H1085 H 0.54553 0.57427 0.98883 0.0
H1086 H 0.53488 0.54613 0.98073 0.0
H1087 H 0.56561 0.55405 0.98768 0.0
C1088 C 0.49545 0.45942 0.97005 0.0
C1089 C 0.52475 0.46583 0.96791 0.0
C1090 C 0.49007 0.46944 0.97763 0.0
C1091 C 0.51385 0.48611 0.98322 0.0
C1092 C 0.54301 0.49206 0.98119 0.0
H1093 H 0.52455 0.55982 0.03266 0.0
H1094 H 0.53458 0.54411 0.01916 0.0
C1095 C 0.54846 0.48212 0.97359 0.0
C1096 C 0.50788 0.49673 0.99122 0.0
H1097 H 0.52605 0.56008 0.0026 0.0
C1098 C 0.48742 0.47518 0.99686 0.0
C1099 C 0.52184 0.52774 0.99326 0.0
C1100 C 0.54299 0.55195 0.98728 0.0
C1101 C 0.48089 0.48379 0.00457 0.0
C1102 C 0.49489 0.51478 0.00661 0.0
C1103 C 0.51537 0.53634 0.00099 0.0
C1104 C 0.48883 0.5252 0.01463 0.0
C1105 C 0.45954 0.45965 0.01053 0.0
C1106 C 0.45989 0.52029 0.01645 0.0
C1107 C 0.45405 0.52926 0.02416 0.0
C1108 C 0.4771 0.54336 0.03016 0.0
C1109 C 0.50626 0.54892 0.0282 0.0
C1110 C 0.51207 0.53999 0.02049 0.0
H1111 H 0.45613 0.43707 0.00887 0.0
H1112 H 0.46808 0.46505 0.01706 0.0
H1113 H 0.43727 0.4584 0.01031 0.0
H1114 H 0.4418 0.50936 0.01193 0.0
H1115 H 0.4314 0.52478 0.02546 0.0
H1116 H 0.33466 0.11415 0.10132 0.0
H1117 H 0.3702 0.10117 0.09502 0.0
H1118 H 0.31006 0.06061 0.07406 0.0
H1119 H 0.27433 0.07346 0.0803 0.0
H1120 H 0.35243 0.04015 0.09197 0.0
H1121 H 0.39422 0.1084 0.06302 0.0
H1122 H 0.37793 0.11848 0.0716 0.0
H1123 H 0.35396 0.08991 0.06424 0.0
C1124 C 0.32925 0.10308 0.09527 0.0
C1125 C 0.30151 0.0946 0.09134 0.0
C1126 C 0.34963 0.09571 0.09169 0.0
C1127 C 0.34284 0.08016 0.08406 0.0
C1128 C 0.31595 0.07309 0.07989 0.0
H1129 H 0.37875 0.96804 0.05412 0.0
H1130 H 0.36619 0.00334 0.0606 0.0
C1131 C 0.29546 0.0803 0.08349 0.0
C1132 C 0.36168 0.06774 0.08098 0.0
H1133 H 0.39893 0.06404 0.06373 0.0
C1134 C 0.36319 0.04576 0.08587 0.0
C1135 C 0.37559 0.07519 0.07303 0.0
C1136 C 0.37564 0.0995 0.06769 0.0
C1137 C 0.37647 0.02947 0.08278 0.0
C1138 C 0.38921 0.03594 0.07466 0.0
C1139 C 0.38914 0.05912 0.06996 0.0
C1140 C 0.39917 0.01648 0.07053 0.0
C1141 C 0.37492 0.00417 0.08802 0.0
C1142 C 0.42232 0.01248 0.07389 0.0
C1143 C 0.42939 0.99189 0.07024 0.0
C1144 C 0.41362 0.97531 0.06312 0.0
C1145 C 0.39128 0.9803 0.05962 0.0
C1146 C 0.38412 0.00061 0.06329 0.0
H1147 H 0.35926 0.99845 0.09341 0.0
H1148 H 0.36743 0.98354 0.08417 0.0
H1149 H 0.39769 0.01107 0.09052 0.0
H1150 H 0.43461 0.02496 0.07939 0.0
H1151 H 0.44691 0.98874 0.07302 0.0
H1152 H 0.0399 0.45641 0.07464 0.0
H1153 H 0.00616 0.40895 0.08175 0.0
H1154 H 0.94001 0.38573 0.06222 0.0
H1155 H 0.9735 0.43332 0.05505 0.0
H1156 H 0.93259 0.37781 0.08542 0.0
H1157 H 0.97594 0.32231 0.06385 0.0
H1158 H 0.99908 0.36174 0.06649 0.0
H1159 H 0.96656 0.34971 0.05997 0.0
C1160 C 0.01794 0.44154 0.07193 0.0
C1161 C 0.00949 0.44849 0.06424 0.0
C1162 C 0.99869 0.41451 0.07602 0.0
C1163 C 0.97079 0.39399 0.07247 0.0
C1164 C 0.9615 0.40146 0.06504 0.0
H1165 H 0.88952 0.20572 0.08868 0.0
H1166 H 0.89538 0.24885 0.08048 0.0
C1167 C 0.98068 0.42862 0.06096 0.0
C1168 C 0.95322 0.36356 0.0761 0.0
H1169 H 0.94768 0.29444 0.07545 0.0
C1170 C 0.93534 0.35932 0.08318 0.0
C1171 C 0.95665 0.33955 0.07306 0.0
C1172 C 0.97556 0.34327 0.06542 0.0
C1173 C 0.92184 0.33184 0.08755 0.0
C1174 C 0.92721 0.30853 0.08488 0.0
C1175 C 0.9436 0.31229 0.0775 0.0
C1176 C 0.91958 0.28185 0.09017 0.0
C1177 C 0.90246 0.32831 0.09506 0.0
C1178 C 0.93112 0.28606 0.09833 0.0
C1179 C 0.92773 0.26159 0.10301 0.0
C1180 C 0.91313 0.23237 0.09959 0.0
C1181 C 0.90091 0.22798 0.09148 0.0
C1182 C 0.90418 0.25256 0.0868 0.0
H1183 H 0.89111 0.34186 0.09431 0.0
H1184 H 0.88501 0.30436 0.09609 0.0
H1185 H 0.91696 0.33675 0.10071 0.0
H1186 H 0.94392 0.30849 0.10097 0.0
H1187 H 0.93751 0.26583 0.10922 0.0
H1188 H 0.57127 0.54165 0.05624 0.0
H1189 H 0.61996 0.55786 0.06299 0.0
H1190 H 0.59475 0.59613 0.08334 0.0
H1191 H 0.54613 0.58013 0.07666 0.0
H1192 H 0.66056 0.61986 0.06621 0.0
H1193 H 0.63343 0.552 0.09523 0.0
H1194 H 0.60823 0.54057 0.08633 0.0
H1195 H 0.60973 0.56816 0.09359 0.0
C1196 C 0.57579 0.55291 0.06225 0.0
C1197 C 0.5549 0.55977 0.0659 0.0
C1198 C 0.60363 0.56214 0.06609 0.0
C1199 C 0.6108 0.57792 0.07369 0.0
C1200 C 0.58942 0.58349 0.07755 0.0
H1201 H 0.74797 0.69724 0.10521 0.0
H1202 H 0.70301 0.65964 0.09796 0.0
C1203 C 0.56171 0.5745 0.07369 0.0
C1204 C 0.64175 0.59192 0.07712 0.0
H1205 H 0.68063 0.59891 0.0951 0.0
C1206 C 0.66524 0.61489 0.07245 0.0
C1207 C 0.64761 0.58527 0.08524 0.0
C1208 C 0.62348 0.55994 0.09037 0.0
C1209 C 0.69397 0.63298 0.07595 0.0
C1210 C 0.69941 0.62741 0.08426 0.0
C1211 C 0.67638 0.60318 0.08873 0.0
C1212 C 0.72726 0.64876 0.0888 0.0
C1213 C 0.71756 0.65916 0.07092 0.0
C1214 C 0.75593 0.65491 0.08611 0.0
C1215 C 0.78193 0.67679 0.09022 0.0
C1216 C 0.77953 0.69256 0.09712 0.0
C1217 C 0.75071 0.68563 0.09991 0.0
C1218 C 0.7249 0.66401 0.09579 0.0
H1219 H 0.70797 0.66344 0.06519 0.0
H1220 H 0.72828 0.68007 0.07475 0.0
H1221 H 0.73543 0.65419 0.06897 0.0
H1222 H 0.75821 0.643 0.08081 0.0
H1223 H 0.80382 0.68146 0.08798 0.0
H1224 H 0.01306 0.42 0.44265 0.0
H1225 H 0.04485 0.40776 0.43413 0.0
H1226 H 0.00271 0.41649 0.41173 0.0
H1227 H 0.9701 0.42825 0.42028 0.0
H1228 H 0.00117 0.36329 0.41243 0.0
H1229 H 0.1174 0.45393 0.41926 0.0
H1230 H 0.09667 0.43793 0.42873 0.0
H1231 H 0.08478 0.45742 0.42166 0.0
C1232 C 0.01084 0.41988 0.4359 0.0
C1233 C 0.98887 0.42488 0.43214 0.0
C1234 C 0.02933 0.41318 0.43103 0.0
C1235 C 0.0265 0.41164 0.42229 0.0
C1236 C 0.00542 0.41782 0.41847 0.0
H1237 H 0.13288 0.35663 0.39146 0.0
H1238 H 0.11343 0.38708 0.3978 0.0
C1239 C 0.98682 0.42453 0.42336 0.0
C1240 C 0.04272 0.39972 0.41733 0.0
H1241 H 0.112 0.40637 0.41453 0.0
C1242 C 0.02546 0.37305 0.41277 0.0
C1243 C 0.07446 0.41258 0.41769 0.0
C1244 C 0.0944 0.44223 0.42203 0.0
C1245 C 0.03886 0.358 0.40895 0.0
C1246 C 0.07025 0.36963 0.40986 0.0
C1247 C 0.08782 0.3972 0.414 0.0
C1248 C 0.08484 0.35286 0.40672 0.0
C1249 C 0.01918 0.32951 0.40407 0.0
C1250 C 0.07617 0.32411 0.4099 0.0
C1251 C 0.08717 0.30665 0.40631 0.0
C1252 C 0.10719 0.31773 0.39949 0.0
C1253 C 0.11737 0.34736 0.39668 0.0
C1254 C 0.10628 0.3648 0.40028 0.0
H1255 H 0.99784 0.32829 0.40202 0.0
H1256 H 0.03116 0.32797 0.39846 0.0
H1257 H 0.01323 0.30966 0.40811 0.0
H1258 H 0.0601 0.31478 0.415 0.0
H1259 H 0.07905 0.28404 0.40867 0.0
H1260 H 0.54168 0.53586 0.42509 0.0
H1261 H 0.55164 0.5818 0.41756 0.0
H1262 H 0.64081 0.62934 0.42841 0.0
H1263 H 0.63054 0.58437 0.43617 0.0
H1264 H 0.61587 0.66364 0.4286 0.0
H1265 H 0.60186 0.61316 0.39688 0.0
H1266 H 0.56928 0.59565 0.40355 0.0
H1267 H 0.6024 0.59369 0.40621 0.0
C1268 C 0.56335 0.5562 0.42586 0.0
C1269 C 0.58539 0.55653 0.43118 0.0
C1270 C 0.56906 0.58236 0.42153 0.0
C1271 C 0.59715 0.60893 0.42232 0.0
C1272 C 0.61893 0.60919 0.42771 0.0
H1273 H 0.7139 0.74747 0.39138 0.0
H1274 H 0.67863 0.70159 0.3987 0.0
C1275 C 0.61306 0.58339 0.43213 0.0
C1276 C 0.60494 0.63657 0.41745 0.0
H1277 H 0.61993 0.665 0.3976 0.0
C1278 C 0.61643 0.66397 0.42181 0.0
C1279 C 0.60545 0.63686 0.40859 0.0
C1280 C 0.59432 0.60836 0.4035 0.0
C1281 C 0.63076 0.69179 0.41762 0.0
C1282 C 0.63249 0.69212 0.40878 0.0
C1283 C 0.61867 0.66465 0.40438 0.0
C1284 C 0.65243 0.72011 0.40405 0.0
C1285 C 0.64589 0.72039 0.42276 0.0
C1286 C 0.6494 0.7459 0.40454 0.0
C1287 C 0.67016 0.7726 0.40048 0.0
C1288 C 0.69372 0.77359 0.39571 0.0
C1289 C 0.69598 0.74745 0.395 0.0
C1290 C 0.67571 0.72111 0.39916 0.0
H1291 H 0.64749 0.71581 0.42948 0.0
H1292 H 0.669 0.73592 0.4204 0.0
H1293 H 0.63259 0.73204 0.4223 0.0
H1294 H 0.63119 0.74547 0.4081 0.0
H1295 H 0.6677 0.79236 0.40104 0.0
H1296 H 0.45809 0.04945 0.42083 0.0
H1297 H 0.4084 0.01545 0.41492 0.0
H1298 H 0.39475 0.94755 0.43311 0.0
H1299 H 0.44464 0.9814 0.43908 0.0
H1300 H 0.37369 0.92606 0.41575 0.0
H1301 H 0.33227 0.99879 0.42912 0.0
H1302 H 0.36623 0.01885 0.42305 0.0
H1303 H 0.36668 0.00046 0.43259 0.0
C1304 C 0.44481 0.02712 0.4235 0.0
C1305 C 0.45517 0.01829 0.4305 0.0
C1306 C 0.41638 0.00777 0.42013 0.0
C1307 C 0.39781 0.97931 0.42369 0.0
C1308 C 0.40877 0.96956 0.43032 0.0
H1309 H 0.2065 0.89631 0.41081 0.0
H1310 H 0.25117 0.90837 0.41924 0.0
C1311 C 0.43727 0.98894 0.43371 0.0
C1312 C 0.3663 0.96083 0.42081 0.0
H1313 H 0.3011 0.96299 0.41884 0.0
C1314 C 0.3576 0.93382 0.41651 0.0
C1315 C 0.34522 0.97067 0.42201 0.0
C1316 C 0.35289 0.99863 0.42702 0.0
C1317 C 0.32879 0.91735 0.4129 0.0
C1318 C 0.30852 0.92851 0.41354 0.0
C1319 C 0.31667 0.95451 0.4183 0.0
C1320 C 0.28027 0.91583 0.4086 0.0
C1321 C 0.32054 0.88846 0.40832 0.0
C1322 C 0.28171 0.91556 0.39983 0.0
C1323 C 0.25634 0.90872 0.39502 0.0
C1324 C 0.22905 0.9023 0.39887 0.0
C1325 C 0.2272 0.90118 0.40766 0.0
C1326 C 0.25268 0.90804 0.41248 0.0
H1327 H 0.33294 0.8776 0.4109 0.0
H1328 H 0.29593 0.87221 0.40868 0.0
H1329 H 0.32694 0.89363 0.40163 0.0
H1330 H 0.30288 0.92222 0.39669 0.0
H1331 H 0.25855 0.90972 0.38827 0.0
H1332 H 0.68207 0.88606 0.90763 0.0
H1333 H 0.6432 0.88959 0.91576 0.0
H1334 H 0.63787 0.94613 0.8966 0.0
H1335 H 0.6758 0.94227 0.88844 0.0
H1336 H 0.64839 0.94053 0.92211 0.0
H1337 H 0.54986 0.89007 0.90107 0.0
H1338 H 0.58177 0.88454 0.89958 0.0
H1339 H 0.5825 0.91783 0.89556 0.0
C1340 C 0.6722 0.89881 0.9051 0.0
C1341 C 0.68206 0.91394 0.8974 0.0
C1342 C 0.64998 0.90074 0.90974 0.0
C1343 C 0.63715 0.91759 0.9067 0.0
C1344 C 0.64669 0.93222 0.89896 0.0
H1345 H 0.5731 0.02979 0.92191 0.0
H1346 H 0.58804 0.99697 0.91481 0.0
C1347 C 0.66873 0.93028 0.89433 0.0
C1348 C 0.6165 0.9231 0.91195 0.0
H1349 H 0.55272 0.92852 0.91074 0.0
C1350 C 0.62702 0.93709 0.91975 0.0
C1351 C 0.58855 0.91851 0.90887 0.0
C1352 C 0.5749 0.9016 0.90084 0.0
C1353 C 0.61159 0.9488 0.92422 0.0
C1354 C 0.58494 0.94628 0.92081 0.0
C1355 C 0.57332 0.93058 0.91329 0.0
C1356 C 0.57111 0.96293 0.9245 0.0
C1357 C 0.6249 0.96557 0.9323 0.0
C1358 C 0.55568 0.95398 0.93215 0.0
C1359 C 0.54698 0.97262 0.93622 0.0
C1360 C 0.55385 0.00059 0.93271 0.0
C1361 C 0.56766 0.00851 0.9248 0.0
C1362 C 0.57615 0.98977 0.92072 0.0
H1363 H 0.64701 0.96746 0.93377 0.0
H1364 H 0.62798 0.98862 0.93193 0.0
H1365 H 0.60914 0.95361 0.93753 0.0
H1366 H 0.55153 0.93323 0.93513 0.0
H1367 H 0.5363 0.96582 0.9423 0.0
H1368 H 0.98086 0.59737 0.94047 0.0
H1369 H 0.01796 0.64126 0.9327 0.0
H1370 H 0.02621 0.58308 0.91465 0.0
H1371 H 0.98827 0.53868 0.92232 0.0
H1372 H 0.07719 0.66111 0.92835 0.0
H1373 H 0.00428 0.63456 0.90011 0.0
H1374 H 0.99006 0.61512 0.90992 0.0
H1375 H 0.01282 0.60601 0.90332 0.0
C1376 C 0.99054 0.59379 0.93486 0.0
C1377 C 0.98136 0.56451 0.93196 0.0
C1378 C 0.01188 0.61895 0.93045 0.0
C1379 C 0.02456 0.61543 0.92305 0.0
C1380 C 0.01626 0.58626 0.92027 0.0
H1381 H 0.12717 0.76408 0.88812 0.0
H1382 H 0.11101 0.71638 0.89541 0.0
C1383 C 0.99467 0.56095 0.92466 0.0
C1384 C 0.0454 0.64257 0.91817 0.0
H1385 H 0.05011 0.68019 0.9001 0.0
C1386 C 0.07152 0.66514 0.92212 0.0
C1387 C 0.03796 0.64773 0.91004 0.0
C1388 C 0.00967 0.62474 0.9056 0.0
C1389 C 0.08975 0.69321 0.91829 0.0
C1390 C 0.08149 0.69881 0.91034 0.0
C1391 C 0.05636 0.67571 0.9062 0.0
C1392 C 0.09634 0.72929 0.90658 0.0
C1393 C 0.11729 0.71687 0.92284 0.0
C1394 C 0.09397 0.75252 0.91053 0.0
C1395 C 0.10298 0.77971 0.90637 0.0
C1396 C 0.11444 0.78409 0.89817 0.0
C1397 C 0.11842 0.76143 0.89443 0.0
C1398 C 0.10921 0.73415 0.89858 0.0
H1399 H 0.12557 0.70653 0.92749 0.0
H1400 H 0.13581 0.73071 0.91839 0.0
H1401 H 0.11138 0.73208 0.92626 0.0
H1402 H 0.0836 0.74901 0.91664 0.0
H1403 H 0.09966 0.79672 0.90943 0.0
H1404 H 0.39806 0.38181 0.94206 0.0
H1405 H 0.35483 0.37648 0.93426 0.0
H1406 H 0.41449 0.44379 0.91661 0.0
H1407 H 0.45827 0.44878 0.92432 0.0
H1408 H 0.33603 0.41679 0.93014 0.0
H1409 H 0.3628 0.37192 0.90161 0.0
H1410 H 0.38181 0.3761 0.91144 0.0
H1411 H 0.39141 0.40862 0.90508 0.0
C1412 C 0.40212 0.39559 0.93653 0.0
C1413 C 0.43163 0.41549 0.93375 0.0
C1414 C 0.37733 0.3926 0.9321 0.0
C1415 C 0.38143 0.40946 0.92481 0.0
C1416 C 0.41084 0.43015 0.92215 0.0
H1417 H 0.2317 0.36243 0.89009 0.0
H1418 H 0.2795 0.39502 0.89724 0.0
C1419 C 0.4358 0.43304 0.92657 0.0
C1420 C 0.35458 0.4039 0.91989 0.0
H1421 H 0.31695 0.37159 0.90176 0.0
C1422 C 0.33202 0.40735 0.92388 0.0
C1423 C 0.34947 0.39169 0.91171 0.0
C1424 C 0.37248 0.3866 0.9072 0.0
C1425 C 0.30393 0.39758 0.92007 0.0
C1426 C 0.29828 0.38387 0.9121 0.0
C1427 C 0.32145 0.38216 0.90788 0.0
C1428 C 0.26764 0.36771 0.90844 0.0
C1429 C 0.28022 0.40116 0.92469 0.0
C1430 C 0.24496 0.34192 0.91245 0.0
C1431 C 0.21774 0.32314 0.90838 0.0
C1432 C 0.21276 0.32981 0.9002 0.0
C1433 C 0.23481 0.35665 0.89639 0.0
C1434 C 0.26215 0.37532 0.90045 0.0
H1435 H 0.29057 0.41989 0.92931 0.0
H1436 H 0.26603 0.40552 0.92029 0.0
H1437 H 0.26535 0.38005 0.92816 0.0
H1438 H 0.24896 0.33535 0.91855 0.0
H1439 H 0.20121 0.30267 0.91149 0.0
H1440 H 0.9409 0.73881 0.58012 0.0
H1441 H 0.95385 0.70394 0.5733 0.0
H1442 H 0.92127 0.64533 0.59484 0.0
H1443 H 0.90745 0.6794 0.60156 0.0
H1444 H 0.99486 0.69105 0.57883 0.0
H1445 H 0.88594 0.58452 0.57635 0.0
H1446 H 0.88824 0.62015 0.57864 0.0
H1447 H 0.89304 0.59878 0.58685 0.0
C1448 C 0.93587 0.71816 0.58332 0.0
C1449 C 0.9232 0.71193 0.59138 0.0
C1450 C 0.94332 0.69827 0.57942 0.0
C1451 C 0.93823 0.67184 0.58352 0.0
C1452 C 0.92472 0.66515 0.59146 0.0
H1453 H 0.04644 0.58717 0.57558 0.0
H1454 H 0.02105 0.61279 0.58144 0.0
C1455 C 0.91703 0.68484 0.59532 0.0
C1456 C 0.94988 0.65294 0.57992 0.0
H1457 H 0.9306 0.58034 0.57527 0.0
C1458 C 0.98072 0.66689 0.57797 0.0
C1459 C 0.9314 0.62145 0.57872 0.0
C1460 C 0.89776 0.60542 0.58017 0.0
C1461 C 0.99373 0.65018 0.57504 0.0
C1462 C 0.9756 0.61846 0.57429 0.0
C1463 C 0.94459 0.60457 0.57602 0.0
C1464 C 0.98834 0.5996 0.57142 0.0
C1465 C 0.02671 0.66683 0.57265 0.0
C1466 C 0.9771 0.58205 0.56416 0.0
C1467 C 0.99117 0.56689 0.56089 0.0
C1468 C 0.01686 0.56919 0.56481 0.0
C1469 C 0.02692 0.58526 0.57237 0.0
C1470 C 0.01259 0.60011 0.57568 0.0
H1471 H 0.03488 0.69101 0.57131 0.0
H1472 H 0.04026 0.66576 0.57792 0.0
H1473 H 0.03089 0.65658 0.56705 0.0
H1474 H 0.95823 0.58111 0.56081 0.0
H1475 H 0.98278 0.55463 0.55507 0.0
H1476 H 0.3232 0.20443 0.58868 0.0
H1477 H 0.36167 0.24832 0.58094 0.0
H1478 H 0.36029 0.3074 0.59998 0.0
H1479 H 0.32268 0.26409 0.60777 0.0
H1480 H 0.35473 0.29297 0.57442 0.0
H1481 H 0.44967 0.3433 0.59672 0.0
H1482 H 0.41868 0.30513 0.59782 0.0
H1483 H 0.41546 0.33648 0.60171 0.0
C1484 C 0.33147 0.22677 0.59127 0.0
C1485 C 0.31987 0.23078 0.59884 0.0
C1486 C 0.35347 0.25179 0.58685 0.0
C1487 C 0.36434 0.28111 0.58998 0.0
C1488 C 0.35299 0.285 0.59757 0.0
H1489 H 0.42792 0.45821 0.57496 0.0
H1490 H 0.41313 0.41067 0.58215 0.0
C1491 C 0.33116 0.26014 0.60198 0.0
C1492 C 0.38501 0.30797 0.58496 0.0
H1493 H 0.44722 0.37811 0.58674 0.0
C1494 C 0.37541 0.31128 0.57701 0.0
C1495 C 0.41204 0.33182 0.58834 0.0
C1496 C 0.4247 0.32885 0.59658 0.0
C1497 C 0.39084 0.3386 0.57262 0.0
C1498 C 0.41664 0.3631 0.57627 0.0
C1499 C 0.4273 0.35928 0.58399 0.0
C1500 C 0.43052 0.39358 0.57257 0.0
C1501 C 0.3784 0.34177 0.56435 0.0
C1502 C 0.44626 0.40008 0.56497 0.0
C1503 C 0.45484 0.42729 0.56084 0.0
C1504 C 0.4476 0.44826 0.56425 0.0
C1505 C 0.43363 0.44245 0.57214 0.0
C1506 C 0.42523 0.41534 0.57627 0.0
H1507 H 0.35639 0.32155 0.5628 0.0
H1508 H 0.37542 0.36182 0.56446 0.0
H1509 H 0.39464 0.34517 0.55928 0.0
H1510 H 0.4507 0.38356 0.56206 0.0
H1511 H 0.46568 0.43112 0.55479 0.0
H1512 H 0.74068 0.07278 0.60721 0.0
H1513 H 0.69825 0.05923 0.59782 0.0
H1514 H 0.75894 0.0915 0.57672 0.0
H1515 H 0.80173 0.10466 0.58609 0.0
H1516 H 0.68322 0.09015 0.58592 0.0
H1517 H 0.70212 0.00198 0.57146 0.0
H1518 H 0.72089 0.02142 0.58094 0.0
H1519 H 0.73354 0.03982 0.57098 0.0
C1520 C 0.74515 0.07734 0.60058 0.0
C1521 C 0.77453 0.08931 0.59737 0.0
C1522 C 0.72084 0.0697 0.59523 0.0
C1523 C 0.72542 0.07388 0.58658 0.0
C1524 C 0.75492 0.08761 0.58339 0.0
H1525 H 0.59125 0.99337 0.54721 0.0
H1526 H 0.63752 0.02686 0.55478 0.0
C1527 C 0.77933 0.0952 0.58874 0.0
C1528 C 0.69897 0.06138 0.58093 0.0
H1529 H 0.66079 0.00555 0.56661 0.0
C1530 C 0.67839 0.07184 0.58163 0.0
C1531 C 0.69269 0.03735 0.5754 0.0
C1532 C 0.71328 0.02423 0.57467 0.0
C1533 C 0.65152 0.05873 0.57697 0.0
C1534 C 0.64501 0.03431 0.57157 0.0
C1535 C 0.66593 0.02437 0.57074 0.0
C1536 C 0.61617 0.01768 0.56695 0.0
C1537 C 0.63036 0.07107 0.57785 0.0
C1538 C 0.58869 0.00177 0.57128 0.0
C1539 C 0.56208 0.98257 0.56696 0.0
C1540 C 0.56268 0.97875 0.55826 0.0
C1541 C 0.59005 0.99562 0.55392 0.0
C1542 C 0.61653 0.01486 0.55823 0.0
H1543 H 0.64224 0.09459 0.58026 0.0
H1544 H 0.61964 0.07061 0.57176 0.0
H1545 H 0.61224 0.05693 0.58236 0.0
H1546 H 0.58803 0.00315 0.57804 0.0
H1547 H 0.54135 0.96981 0.57047 0.0
H1548 H 0.70481 0.63093 0.72502 0.0
H1549 H 0.69755 0.66716 0.73296 0.0
H1550 H 0.77873 0.69206 0.74703 0.0
H1551 H 0.78541 0.65435 0.73927 0.0
H1552 H 0.73722 0.68509 0.7572 0.0
H1553 H 0.73371 0.75546 0.7319 0.0
H1554 H 0.70731 0.71712 0.72927 0.0
H1555 H 0.74698 0.7292 0.73014 0.0
C1556 C 0.7214 0.64433 0.72973 0.0
C1557 C 0.74574 0.63984 0.73151 0.0
C1558 C 0.71742 0.66541 0.7342 0.0
C1559 C 0.7381 0.68314 0.74042 0.0
C1560 C 0.76269 0.67894 0.74218 0.0
H1561 H 0.66447 0.79006 0.76263 0.0
H1562 H 0.70323 0.78168 0.75617 0.0
C1563 C 0.76644 0.65737 0.73777 0.0
C1564 C 0.73171 0.7034 0.7456 0.0
H1565 H 0.70023 0.74821 0.74397 0.0
C1566 C 0.72995 0.69959 0.75432 0.0
C1567 C 0.72333 0.72337 0.74196 0.0
C1568 C 0.72834 0.73176 0.73281 0.0
C1569 C 0.71692 0.71249 0.75935 0.0
C1570 C 0.70416 0.72846 0.7555 0.0
C1571 C 0.70905 0.73513 0.74692 0.0
C1572 C 0.68253 0.73485 0.75997 0.0
C1573 C 0.71617 0.70799 0.7687 0.0
C1574 C 0.65783 0.71131 0.76415 0.0
C1575 C 0.63609 0.71616 0.76792 0.0
C1576 C 0.63803 0.74445 0.7674 0.0
C1577 C 0.66244 0.768 0.76312 0.0
C1578 C 0.68461 0.76326 0.75946 0.0
H1579 H 0.73684 0.708 0.77083 0.0
H1580 H 0.71431 0.72582 0.77215 0.0
H1581 H 0.6966 0.68567 0.77033 0.0
H1582 H 0.65488 0.68884 0.76433 0.0
H1583 H 0.61733 0.69744 0.77107 0.0
H1584 H 0.32044 0.07726 0.7205 0.0
H1585 H 0.28853 0.03216 0.72866 0.0
H1586 H 0.32435 0.08251 0.75152 0.0
H1587 H 0.35692 0.12794 0.74336 0.0
H1588 H 0.32932 0.03216 0.75083 0.0
H1589 H 0.21261 0.00221 0.7426 0.0
H1590 H 0.23558 0.00877 0.73349 0.0
H1591 H 0.24464 0.03923 0.74068 0.0
C1592 C 0.3212 0.07897 0.72727 0.0
C1593 C 0.3414 0.10615 0.73129 0.0
C1594 C 0.30267 0.05317 0.73193 0.0
C1595 C 0.30375 0.05405 0.7407 0.0
C1596 C 0.32302 0.08144 0.74475 0.0
H1597 H 0.20139 0.89435 0.77226 0.0
H1598 H 0.21896 0.9432 0.76544 0.0
C1599 C 0.34161 0.10735 0.74008 0.0
C1600 C 0.28775 0.02559 0.74552 0.0
H1601 H 0.21922 0.96169 0.74797 0.0
C1602 C 0.30517 0.01699 0.75031 0.0
C1603 C 0.25622 0.00588 0.74488 0.0
C1604 C 0.23614 0.01463 0.7402 0.0
C1605 C 0.29216 0.98865 0.75417 0.0
C1606 C 0.261 0.96821 0.75308 0.0
C1607 C 0.24322 0.97727 0.74865 0.0
C1608 C 0.24694 0.93714 0.7564 0.0
C1609 C 0.31197 0.98063 0.75928 0.0
C1610 C 0.2559 0.91717 0.75332 0.0
C1611 C 0.24597 0.88932 0.75718 0.0
C1612 C 0.22683 0.88095 0.76419 0.0
C1613 C 0.21625 0.90018 0.7669 0.0
C1614 C 0.22624 0.9281 0.76302 0.0
H1615 H 0.33325 0.00104 0.76122 0.0
H1616 H 0.29997 0.96773 0.76497 0.0
H1617 H 0.318 0.96629 0.75546 0.0
H1618 H 0.27152 0.92364 0.74811 0.0
H1619 H 0.25436 0.87496 0.75489 0.0
H1620 H 0.90668 0.22075 0.72004 0.0
H1621 H 0.9537 0.23754 0.72774 0.0
H1622 H 0.91399 0.25274 0.74967 0.0
H1623 H 0.86683 0.23611 0.74202 0.0
H1624 H 0.98555 0.29755 0.73483 0.0
H1625 H 0.95828 0.20817 0.75853 0.0
H1626 H 0.93678 0.20154 0.749 0.0
H1627 H 0.93117 0.22063 0.75765 0.0
C1628 C 0.90767 0.22705 0.72656 0.0
C1629 C 0.88304 0.22726 0.73041 0.0
C1630 C 0.93459 0.23665 0.73093 0.0
C1631 C 0.93718 0.24615 0.73927 0.0
C1632 C 0.91224 0.24506 0.74327 0.0
H1633 H 0.06827 0.34316 0.77647 0.0
H1634 H 0.02403 0.31085 0.76803 0.0
C1635 C 0.88536 0.23569 0.73888 0.0
C1636 C 0.96684 0.2604 0.7435 0.0
H1637 H 0.00347 0.25519 0.7607 0.0
C1638 C 0.98973 0.28813 0.74042 0.0
C1639 C 0.972 0.248 0.75078 0.0
C1640 C 0.94838 0.21781 0.75417 0.0
C1641 C 0.01725 0.30461 0.74466 0.0
C1642 C 0.02221 0.29258 0.75208 0.0
C1643 C -0.00036 0.26431 0.755 0.0
C1644 C 0.04946 0.31023 0.75729 0.0
C1645 C 0.04007 0.33545 0.74142 0.0
C1646 C 0.07852 0.32011 0.75411 0.0
C1647 C 0.10402 0.33891 0.7589 0.0
C1648 C 0.10078 0.34785 0.76698 0.0
C1649 C 0.07161 0.33688 0.77025 0.0
C1650 C 0.04624 0.31828 0.76545 0.0
H1651 H 0.03009 0.34399 0.73673 0.0
H1652 H 0.04964 0.35201 0.74662 0.0
H1653 H 0.05886 0.33418 0.73835 0.0
H1654 H 0.08148 0.31365 0.74787 0.0
H1655 H 0.1262 0.34677 0.75624 0.0
H1656 H 0.36081 0.2382 0.24457 0.0
H1657 H 0.32558 0.24847 0.25234 0.0
H1658 H 0.2949 0.26712 0.22914 0.0
H1659 H 0.3294 0.25648 0.22136 0.0
H1660 H 0.32903 0.30301 0.25234 0.0
H1661 H 0.21582 0.21685 0.24133 0.0
H1662 H 0.24884 0.21316 0.23985 0.0
H1663 H 0.24091 0.23566 0.23275 0.0
C1664 C 0.34608 0.24386 0.24112 0.0
C1665 C 0.34802 0.2467 0.23235 0.0
C1666 C 0.32597 0.24969 0.24556 0.0
C1667 C 0.30732 0.25815 0.2413 0.0
C1668 C 0.3085 0.25991 0.23254 0.0
H1669 H 0.25122 0.3826 0.25528 0.0
H1670 H 0.27137 0.35309 0.24884 0.0
C1671 C 0.32853 0.25411 0.22811 0.0
C1672 C 0.2895 0.2689 0.24597 0.0
H1673 H 0.21989 0.26262 0.24703 0.0
C1674 C 0.30505 0.29381 0.25129 0.0
C1675 C 0.25817 0.25677 0.24465 0.0
C1676 C 0.23992 0.22893 0.2394 0.0
C1677 C 0.29049 0.3079 0.25499 0.0
C1678 C 0.25969 0.29708 0.2532 0.0
C1679 C 0.24366 0.27118 0.24825 0.0
C1680 C 0.24427 0.3131 0.25626 0.0
C1681 C 0.30832 0.33458 0.26069 0.0
C1682 C 0.22125 0.29976 0.26225 0.0
C1683 C 0.20952 0.31652 0.26593 0.0
C1684 C 0.22067 0.34685 0.26365 0.0
C1685 C 0.24231 0.3594 0.25723 0.0
C1686 C 0.25396 0.34263 0.25357 0.0
H1687 H 0.32892 0.33511 0.26312 0.0
H1688 H 0.31548 0.35573 0.25713 0.0
H1689 H 0.2944 0.33417 0.26608 0.0
H1690 H 0.21336 0.27688 0.26435 0.0
H1691 H 0.19278 0.30614 0.27082 0.0
H1692 H 0.61099 0.90901 0.27044 0.0
H1693 H 0.64681 0.95439 0.26303 0.0
H1694 H 0.69278 0.90878 0.25381 0.0
H1695 H 0.6557 0.86238 0.26097 0.0
H1696 H 0.70582 0.98989 0.26426 0.0
H1697 H 0.67785 0.93929 0.23235 0.0
H1698 H 0.65588 0.91943 0.2414 0.0
H1699 H 0.69204 0.92259 0.2396 0.0
C1700 C 0.62868 0.90853 0.26683 0.0
C1701 C 0.63041 0.88208 0.26622 0.0
C1702 C 0.64927 0.93458 0.26262 0.0
C1703 C 0.67236 0.93499 0.25778 0.0
C1704 C 0.67476 0.90883 0.25734 0.0
H1705 H 0.78328 0.11918 0.23663 0.0
H1706 H 0.77388 0.0734 0.24417 0.0
C1707 C 0.65366 0.8824 0.26145 0.0
C1708 C 0.69282 0.96284 0.25307 0.0
H1709 H 0.70944 0.99142 0.23326 0.0
C1710 C 0.70702 0.99028 0.25748 0.0
C1711 C 0.69452 0.96321 0.24422 0.0
C1712 C 0.67914 0.93464 0.23908 0.0
C1713 C 0.72042 0.0181 0.25329 0.0
C1714 C 0.72069 0.01844 0.24443 0.0
C1715 C 0.70901 0.99105 0.24005 0.0
C1716 C 0.72814 0.04606 0.23959 0.0
C1717 C 0.7319 0.04661 0.25839 0.0
C1718 C 0.70601 0.04566 0.23432 0.0
C1719 C 0.71156 0.07135 0.2299 0.0
C1720 C 0.73925 0.09826 0.23073 0.0
C1721 C 0.7616 0.09879 0.23597 0.0
C1722 C 0.75621 0.07272 0.24029 0.0
H1723 H 0.72478 0.04183 0.26505 0.0
H1724 H 0.75692 0.05932 0.25822 0.0
H1725 H 0.72365 0.06128 0.25578 0.0
H1726 H 0.68412 0.02546 0.23371 0.0
H1727 H 0.69384 0.07023 0.22594 0.0
H1728 H 0.93109 0.64458 0.22068 0.0
H1729 H 0.97416 0.68216 0.22861 0.0
H1730 H 0.91442 0.69514 0.24492 0.0
H1731 H 0.87076 0.65677 0.23708 0.0
H1732 H 0.99459 0.74251 0.23197 0.0
H1733 H 0.96248 0.67393 0.2612 0.0
H1734 H 0.94451 0.65835 0.25129 0.0
H1735 H 0.93506 0.68262 0.25706 0.0
C1736 C 0.92698 0.6554 0.22594 0.0
C1737 C 0.89745 0.64745 0.22831 0.0
C1738 C 0.95169 0.67701 0.23045 0.0
C1739 C 0.94748 0.69118 0.2374 0.0
C1740 C 0.91811 0.68406 0.23965 0.0
H1741 H 0.09312 0.79623 0.27307 0.0
H1742 H 0.04623 0.77982 0.2653 0.0
C1743 C 0.89323 0.66223 0.23515 0.0
C1744 C 0.9741 0.71237 0.24241 0.0
H1745 H 0.00902 0.7188 0.26112 0.0
C1746 C 0.9976 0.7376 0.23839 0.0
C1747 C 0.97791 0.70595 0.25079 0.0
C1748 C 0.95381 0.67866 0.25535 0.0
C1749 C 0.02529 0.75586 0.2424 0.0
C1750 C 0.0296 0.7485 0.25062 0.0
C1751 C 0.00556 0.72435 0.25481 0.0
C1752 C 0.05964 0.76315 0.25465 0.0
C1753 C 0.04995 0.78241 0.23776 0.0
C1754 C 0.08289 0.75969 0.25116 0.0
C1755 C 0.10962 0.76886 0.25559 0.0
C1756 C 0.11352 0.78158 0.26361 0.0
C1757 C 0.09084 0.78652 0.2669 0.0
C1758 C 0.06402 0.77716 0.26248 0.0
H1759 H 0.04055 0.79055 0.2328 0.0
H1760 H 0.06379 0.80136 0.24209 0.0
H1761 H 0.06498 0.77542 0.23471 0.0
H1762 H 0.07975 0.74842 0.24519 0.0
H1763 H 0.12664 0.76475 0.25288 0.0
H1764 H 0.98722 0.15027 0.1003 0.0
H1765 H 0.0359 0.15289 0.09871 0.0
H1766 H 0.07085 0.21334 0.11981 0.0
H1767 H 0.02193 0.21055 0.12155 0.0
H1768 H 0.09484 0.20249 0.09621 0.0
H1769 H 0.08408 0.14306 0.12632 0.0
H1770 H 0.05258 0.14387 0.12152 0.0
H1771 H 0.08102 0.17649 0.12694 0.0
C1772 C 0.00525 0.16424 0.1046 0.0
C1773 C 0.00059 0.17997 0.11111 0.0
C1774 C 0.0331 0.16579 0.10365 0.0
C1775 C 0.05682 0.183 0.1092 0.0
C1776 C 0.05264 0.19954 0.11555 0.0
H1777 H 0.22158 0.17233 0.11391 0.0
H1778 H 0.18736 0.19261 0.115 0.0
C1779 C 0.02471 0.19798 0.11651 0.0
C1780 C 0.08537 0.18241 0.10849 0.0
H1781 H 0.12697 0.15599 0.11818 0.0
C1782 C 0.10209 0.19262 0.10105 0.0
C1783 C 0.09478 0.1696 0.11482 0.0
C1784 C 0.07715 0.1574 0.12284 0.0
C1785 C 0.12763 0.18971 0.09969 0.0
C1786 C 0.13631 0.17581 0.10588 0.0
C1787 C 0.12031 0.16673 0.11346 0.0
C1788 C 0.15995 0.1677 0.10438 0.0
C1789 C 0.14488 0.20125 0.0916 0.0
C1790 C 0.15622 0.14741 0.09795 0.0
C1791 C 0.17568 0.13578 0.09731 0.0
C1792 C 0.19913 0.14403 0.10314 0.0
C1793 C 0.20375 0.16551 0.10932 0.0
C1794 C 0.18421 0.17711 0.10996 0.0
H1795 H 0.14187 0.21957 0.08889 0.0
H1796 H 0.16935 0.20984 0.09253 0.0
H1797 H 0.13623 0.18255 0.08699 0.0
H1798 H 0.1373 0.13934 0.09368 0.0
H1799 H 0.17147 0.11928 0.09248 0.0
H1800 H 0.89546 0.06611 0.08681 0.0
H1801 H 0.88169 0.01299 0.08707 0.0
H1802 H 0.83337 0.00075 0.1102 0.0
H1803 H 0.84648 0.05357 0.10991 0.0
H1804 H 0.9011 0.99086 0.09955 0.0
H1805 H 0.77635 0.92408 0.09774 0.0
H1806 H 0.79749 0.96345 0.09485 0.0
H1807 H 0.7897 0.9527 0.10568 0.0
C1808 C 0.88122 0.05194 0.09184 0.0
C1809 C 0.87226 0.06415 0.09837 0.0
C1810 C 0.8734 0.02158 0.09198 0.0
C1811 C 0.85637 0.00285 0.09863 0.0
C1812 C 0.846 0.01457 0.10492 0.0
H1813 H 0.82752 0.83482 0.11968 0.0
H1814 H 0.82804 0.88197 0.11655 0.0
C1815 C 0.8537 0.04489 0.10476 0.0
C1816 C 0.85293 0.97247 0.09957 0.0
H1817 H 0.80141 0.89797 0.10264 0.0
C1818 C 0.87928 0.9705 0.10011 0.0
C1819 C 0.82446 0.94599 0.1004 0.0
C1820 C 0.79538 0.94655 0.09956 0.0
C1821 C 0.878 0.94293 0.10163 0.0
C1822 C 0.84957 0.91651 0.10254 0.0
C1823 C 0.82316 0.91833 0.10195 0.0
C1824 C 0.84708 0.88689 0.10417 0.0
C1825 C 0.90712 0.94242 0.10251 0.0
C1826 C 0.85706 0.87385 0.09817 0.0
C1827 C 0.85691 0.84707 0.09994 0.0
C1828 C 0.84663 0.83273 0.10773 0.0
C1829 C 0.83572 0.84537 0.11363 0.0
C1830 C 0.8359 0.87223 0.11185 0.0
H1831 H 0.92677 0.96536 0.10351 0.0
H1832 H 0.90582 0.92776 0.10781 0.0
H1833 H 0.91121 0.93312 0.09669 0.0
H1834 H 0.8654 0.88466 0.09216 0.0
H1835 H 0.86525 0.83785 0.09522 0.0
H1836 H 0.96077 0.7847 0.10717 0.0
H1837 H 0.01465 0.82074 0.10882 0.0
H1838 H 0.0098 0.87558 0.08907 0.0
H1839 H 0.95614 0.83952 0.08726 0.0
H1840 H 0.06404 0.87346 0.08906 0.0
H1841 H 0.03696 0.90101 0.12043 0.0
H1842 H 0.02628 0.86218 0.11882 0.0
H1843 H 0.00815 0.87848 0.11289 0.0
C1844 C 0.97128 0.80408 0.10304 0.0
C1845 C 0.95403 0.80948 0.09717 0.0
C1846 C 0.00205 0.82472 0.10403 0.0
C1847 C 0.016 0.85114 0.0992 0.0
C1848 C 0.9994 0.85541 0.0929 0.0
H1849 H 0.15831 0.02903 0.10917 0.0
H1850 H 0.11163 0.98163 0.10676 0.0
C1851 C 0.96868 0.83476 0.09188 0.0
C1852 C 0.04693 0.87574 0.10118 0.0
H1853 H 0.08744 0.92865 0.11605 0.0
C1854 C 0.06933 0.88537 0.09498 0.0
C1855 C 0.05355 0.89144 0.10889 0.0
C1856 C 0.02998 0.88301 0.11563 0.0
C1857 C 0.09809 0.91066 0.09625 0.0
C1858 C 0.1046 0.92642 0.10394 0.0
C1859 C 0.08239 0.91637 0.11018 0.0
C1860 C 0.13335 0.95486 0.1054 0.0
C1861 C 0.12082 0.92108 0.08922 0.0
C1862 C 0.16109 0.95549 0.10553 0.0
C1863 C 0.18797 0.98268 0.1069 0.0
C1864 C 0.18748 0.00963 0.10821 0.0
C1865 C 0.15956 0.00874 0.10819 0.0
C1866 C 0.13281 0.98164 0.10681 0.0
H1867 H 0.11032 0.91005 0.08318 0.0
H1868 H 0.13189 0.94592 0.08841 0.0
H1869 H 0.13857 0.91545 0.09076 0.0
H1870 H 0.16194 0.93496 0.10461 0.0
H1871 H 0.20909 0.98258 0.10691 0.0
H1872 H 0.1865 0.21698 0.37697 0.0
H1873 H 0.19753 0.17566 0.3774 0.0
H1874 H 0.14437 0.14159 0.39988 0.0
H1875 H 0.13287 0.18251 0.39945 0.0
H1876 H 0.22205 0.15249 0.38978 0.0
H1877 H 0.10145 0.07312 0.38246 0.0
H1878 H 0.11831 0.11349 0.38142 0.0
H1879 H 0.10762 0.09609 0.39157 0.0
C1880 C 0.1776 0.20104 0.3821 0.0
C1881 C 0.15839 0.20276 0.3881 0.0
C1882 C 0.18395 0.17745 0.38233 0.0
C1883 C 0.17123 0.15529 0.38857 0.0
C1884 C 0.15392 0.1582 0.39492 0.0
H1885 H 0.15109 0.97993 0.39665 0.0
H1886 H 0.15294 0.02834 0.39775 0.0
C1887 C 0.14747 0.18167 0.39468 0.0
C1888 C 0.17388 0.12782 0.38806 0.0
H1889 H 0.13186 0.05156 0.3854 0.0
C1890 C 0.20241 0.13039 0.38881 0.0
C1891 C 0.14819 0.09912 0.3867 0.0
C1892 C 0.11718 0.09517 0.38541 0.0
C1893 C 0.20577 0.10477 0.38848 0.0
C1894 C 0.17998 0.07605 0.38724 0.0
C1895 C 0.15156 0.07361 0.38639 0.0
C1896 C 0.18156 0.04795 0.38691 0.0
C1897 C 0.23671 0.1085 0.38964 0.0
C1898 C 0.1972 0.04296 0.38046 0.0
C1899 C 0.19621 0.01519 0.37981 0.0
C1900 C 0.17937 0.99192 0.38556 0.0
C1901 C 0.16422 0.9973 0.3921 0.0
C1902 C 0.16527 0.02498 0.39275 0.0
H1903 H 0.25282 0.13076 0.39241 0.0
H1904 H 0.23563 0.09041 0.39372 0.0
H1905 H 0.24567 0.10683 0.38346 0.0
H1906 H 0.20943 0.0602 0.3758 0.0
H1907 H 0.20804 0.01174 0.37469 0.0
H1908 H 0.01789 0.14933 0.38554 0.0
H1909 H 0.96856 0.10408 0.38694 0.0
H1910 H 0.93083 0.15789 0.39573 0.0
H1911 H 0.98044 0.20353 0.39445 0.0
H1912 H 0.91536 0.10784 0.40568 0.0
H1913 H 0.89377 0.07473 0.37235 0.0
H1914 H 0.93006 0.08129 0.37566 0.0
H1915 H 0.92234 0.11198 0.37565 0.0
C1916 C 0.9991 0.15168 0.38769 0.0
C1917 C 0.00311 0.18008 0.38987 0.0
C1918 C 0.97084 0.12577 0.38844 0.0
C1919 C 0.94594 0.12769 0.39131 0.0
C1920 C 0.94974 0.15598 0.39344 0.0
H1921 H 0.77669 0.95574 0.38874 0.0
H1922 H 0.81038 0.0104 0.38822 0.0
C1923 C 0.97808 0.18201 0.39269 0.0
C1924 C 0.91648 0.09978 0.39248 0.0
H1925 H 0.86631 0.03518 0.38242 0.0
C1926 C 0.90427 0.09215 0.40057 0.0
C1927 C 0.90167 0.07962 0.38579 0.0
C1928 C 0.91246 0.08746 0.37686 0.0
C1929 C 0.87875 0.06396 0.40224 0.0
C1930 C 0.86555 0.04277 0.39567 0.0
C1931 C 0.87659 0.05126 0.38749 0.0
C1932 C 0.84229 0.01083 0.39719 0.0
C1933 C 0.86656 0.05703 0.41106 0.0
C1934 C 0.84859 0.993 0.40257 0.0
C1935 C 0.8293 0.9618 0.40293 0.0
C1936 C 0.80356 0.94776 0.3978 0.0
C1937 C 0.79639 0.96584 0.39275 0.0
C1938 C 0.81564 0.99709 0.39244 0.0
H1939 H 0.87133 0.07795 0.41443 0.0
H1940 H 0.84184 0.04113 0.41112 0.0
H1941 H 0.87783 0.04664 0.41454 0.0
H1942 H 0.86934 0.00292 0.40615 0.0
H1943 H 0.83556 0.94857 0.40686 0.0
H1944 H 0.05166 0.84177 0.38746 0.0
H1945 H 0.00054 0.83348 0.38596 0.0
H1946 H 0.01399 0.88902 0.40764 0.0
H1947 H 0.06537 0.89789 0.40913 0.0
H1948 H 0.94871 0.81215 0.39628 0.0
H1949 H 0.9992 0.93374 0.38843 0.0
H1950 H 0.02126 0.9152 0.38899 0.0
H1951 H 0.01025 0.92633 0.39842 0.0
C1952 C 0.04359 0.85174 0.39202 0.0
C1953 C 0.0628 0.87093 0.39833 0.0
C1954 C 0.01434 0.84697 0.39115 0.0
C1955 C 0.0038 0.86122 0.39657 0.0
C1956 C 0.02199 0.87834 0.40329 0.0
H1957 H 0.82443 0.84092 0.39748 0.0
H1958 H 0.86988 0.83847 0.40062 0.0
C1959 C 0.05129 0.88325 0.40415 0.0
C1960 C 0.97499 0.86034 0.39475 0.0
H1961 H 0.94608 0.9052 0.38917 0.0
C1962 C 0.94804 0.83246 0.39474 0.0
C1963 C 0.97436 0.88683 0.39258 0.0
C1964 C 0.0028 0.91721 0.39202 0.0
C1965 C 0.92035 0.83042 0.39272 0.0
C1966 C 0.91966 0.85705 0.39077 0.0
C1967 C 0.94666 0.88485 0.39071 0.0
C1968 C 0.89129 0.85678 0.38869 0.0
C1969 C 0.89221 0.79977 0.39252 0.0
C1970 C 0.88841 0.86831 0.38099 0.0
C1971 C 0.86258 0.87004 0.3792 0.0
C1972 C 0.83917 0.86034 0.3851 0.0
C1973 C 0.84197 0.84845 0.39278 0.0
C1974 C 0.86786 0.84683 0.39457 0.0
H1975 H 0.89766 0.78137 0.39196 0.0
H1976 H 0.87945 0.79626 0.39843 0.0
H1977 H 0.87737 0.79802 0.38722 0.0
H1978 H 0.90633 0.87626 0.37638 0.0
H1979 H 0.86115 0.8793 0.37323 0.0
H1980 H 0.82198 0.87438 0.87145 0.0
H1981 H 0.85923 0.85845 0.8729 0.0
H1982 H 0.83748 0.84017 0.89912 0.0
H1983 H 0.80013 0.8567 0.89774 0.0
H1984 H 0.89784 0.87634 0.89634 0.0
H1985 H 0.85444 0.77771 0.87534 0.0
H1986 H 0.85537 0.80917 0.87013 0.0
H1987 H 0.83104 0.79249 0.87905 0.0
C1988 C 0.82467 0.86651 0.87751 0.0
C1989 C 0.80817 0.86693 0.8845 0.0
C1990 C 0.84583 0.85711 0.87831 0.0
C1991 C 0.85081 0.84762 0.88608 0.0
C1992 C 0.83376 0.84713 0.89304 0.0
H1993 H 0.00998 0.82856 0.89637 0.0
H1994 H 0.95966 0.82264 0.89795 0.0
C1995 C 0.81243 0.85654 0.89224 0.0
C1996 C 0.87618 0.84164 0.88701 0.0
H1997 H 0.90869 0.80492 0.87764 0.0
C1998 C 0.89992 0.86018 0.89242 0.0
C1999 C 0.87885 0.82053 0.88188 0.0
C2000 C 0.85338 0.79864 0.87634 0.0
C2001 C 0.92709 0.85966 0.89241 0.0
C2002 C 0.9304 0.83991 0.88689 0.0
C2003 C 0.90611 0.82021 0.88181 0.0
C2004 C 0.95977 0.84132 0.8858 0.0
C2005 C 0.95272 0.88145 0.89793 0.0
C2006 C 0.9761 0.85317 0.87837 0.0
C2007 C 0.00481 0.85666 0.87745 0.0
C2008 C 0.01763 0.84814 0.88392 0.0
C2009 C 0.00078 0.8354 0.89127 0.0
C2010 C 0.97208 0.83206 0.8922 0.0
H2011 H 0.94774 0.89786 0.90106 0.0
H2012 H 0.957 0.86868 0.90283 0.0
H2013 H 0.97371 0.89411 0.8942 0.0
H2014 H 0.96689 0.86041 0.87336 0.0
H2015 H 0.01711 0.86642 0.8717 0.0
H2016 H 0.09725 0.94084 0.90632 0.0
H2017 H 0.11544 0.99495 0.90594 0.0
H2018 H 0.18904 0.0084 0.88994 0.0
H2019 H 0.17064 0.95411 0.89013 0.0
H2020 H 0.16978 0.04702 0.90986 0.0
H2021 H 0.1444 0.04012 0.87578 0.0
H2022 H 0.13171 0.007 0.88222 0.0
H2023 H 0.17028 0.02771 0.87877 0.0
C2024 C 0.11756 0.95531 0.90281 0.0
C2025 C 0.13223 0.9431 0.89815 0.0
C2026 C 0.12794 0.98626 0.90261 0.0
C2027 C 0.15319 0.00556 0.89776 0.0
C2028 C 0.1691 0.99376 0.89356 0.0
H2029 H 0.21158 0.1925 0.88372 0.0
H2030 H 0.21181 0.14533 0.88615 0.0
C2031 C 0.15863 0.96276 0.89372 0.0
C2032 C 0.1614 0.03752 0.89669 0.0
H2033 H 0.16348 0.08753 0.88218 0.0
C2034 C 0.16867 0.05599 0.9038 0.0
C2035 C 0.15986 0.04912 0.88877 0.0
C2036 C 0.15091 0.02997 0.88095 0.0
C2037 C 0.17401 0.08565 0.90322 0.0
C2038 C 0.17164 0.0969 0.89534 0.0
C2039 C 0.16537 0.07881 0.8882 0.0
C2040 C 0.17322 0.12644 0.89444 0.0
C2041 C 0.18191 0.10461 0.91105 0.0
C2042 C 0.15135 0.13131 0.89827 0.0
C2043 C 0.15103 0.15807 0.89686 0.0
C2044 C 0.17255 0.18047 0.89157 0.0
C2045 C 0.19473 0.17573 0.88784 0.0
C2046 C 0.19493 0.14883 0.88922 0.0
H2047 H 0.19134 0.09631 0.91596 0.0
H2048 H 0.1985 0.12861 0.90968 0.0
H2049 H 0.16118 0.10347 0.91359 0.0
H2050 H 0.13399 0.11404 0.90217 0.0
H2051 H 0.13361 0.16096 0.89983 0.0
H2052 H 0.04513 0.16948 0.90739 0.0
H2053 H 0.99149 0.13508 0.90481 0.0
H2054 H 0.99544 0.18646 0.88298 0.0
H2055 H 0.04925 0.22086 0.88543 0.0
H2056 H 0.93948 0.14227 0.90241 0.0
H2057 H 0.97077 0.10144 0.87388 0.0
H2058 H 0.99818 0.12442 0.88169 0.0
H2059 H 0.98421 0.14126 0.8744 0.0
C2060 C 0.03452 0.17384 0.90212 0.0
C2061 C 0.05159 0.19765 0.89654 0.0
C2062 C 0.00384 0.15416 0.90067 0.0
C2063 C 0.98971 0.15794 0.89362 0.0
C2064 C 0.00611 0.18291 0.88837 0.0
H2065 H 0.81759 0.01864 0.87249 0.0
H2066 H 0.86269 0.06783 0.87496 0.0
C2067 C 0.03683 0.2026 0.88981 0.0
C2068 C 0.9587 0.1342 0.89141 0.0
H2069 H 0.91954 0.0771 0.87747 0.0
C2070 C 0.93499 0.1282 0.89692 0.0
C2071 C 0.95298 0.11595 0.88422 0.0
C2072 C 0.97783 0.12081 0.87822 0.0
C2073 C 0.90573 0.10398 0.89551 0.0
C2074 C 0.9003 0.08499 0.8885 0.0
C2075 C 0.92376 0.09173 0.88283 0.0
C2076 C 0.87133 0.05651 0.88731 0.0
C2077 C 0.88099 0.09881 0.90157 0.0
C2078 C 0.86132 0.03384 0.89343 0.0
C2079 C 0.83569 0.00581 0.89204 0.0
C2080 C 0.81964 -0.00028 0.88446 0.0
C2081 C 0.82943 0.02261 0.87839 0.0
C2082 C 0.85515 0.05073 0.87979 0.0
H2083 H 0.88592 0.1201 0.90476 0.0
H2084 H 0.85883 0.08932 0.89836 0.0
H2085 H 0.87928 0.08261 0.90645 0.0
H2086 H 0.87389 0.03749 0.89918 0.0
H2087 H 0.82886 0.98869 0.89685 0.0
H2088 H 0.85967 0.02103 0.60036 0.0
H2089 H 0.85849 0.97317 0.59862 0.0
H2090 H 0.79318 0.93423 0.61854 0.0
H2091 H 0.79438 0.9824 0.6204 0.0
H2092 H 0.8421 0.92531 0.62031 0.0
H2093 H 0.7949 0.89346 0.58837 0.0
H2094 H 0.82604 0.93138 0.58886 0.0
H2095 H 0.7919 0.92146 0.59452 0.0
C2096 C 0.84479 0.00226 0.60433 0.0
C2097 C 0.82712 0.00556 0.61053 0.0
C2098 C 0.84395 0.9748 0.60327 0.0
C2099 C 0.82532 0.94999 0.60834 0.0
C2100 C 0.80747 0.95305 0.6145 0.0
H2101 H 0.83958 0.78593 0.61259 0.0
H2102 H 0.81759 0.81875 0.61351 0.0
C2103 C 0.80822 0.98058 0.61556 0.0
C2104 C 0.82667 0.92183 0.60761 0.0
H2105 H 0.82295 0.87024 0.5934 0.0
C2106 C 0.8373 0.91282 0.61449 0.0
C2107 C 0.82037 0.90563 0.6 0.0
C2108 C 0.80738 0.91328 0.59255 0.0
C2109 C 0.84367 0.88923 0.61381 0.0
C2110 C 0.83873 0.87395 0.60607 0.0
C2111 C 0.82675 0.88204 0.59931 0.0
C2112 C 0.84873 0.85169 0.60468 0.0
C2113 C 0.85729 0.88204 0.62122 0.0
C2114 C 0.87251 0.85861 0.59911 0.0
C2115 C 0.885 0.83989 0.59853 0.0
C2116 C 0.87389 0.81383 0.60351 0.0
C2117 C 0.84881 0.80595 0.60871 0.0
C2118 C 0.8363 0.82474 0.60928 0.0
H2119 H 0.86461 0.89946 0.6262 0.0
H2120 H 0.84029 0.86009 0.62395 0.0
H2121 H 0.87706 0.88008 0.61925 0.0
H2122 H 0.88231 0.87926 0.59548 0.0
H2123 H 0.90415 0.84652 0.59443 0.0
H2124 H 0.22699 0.05183 0.60974 0.0
H2125 H 0.19346 0.99737 0.61118 0.0
H2126 H 0.13554 -0.00024 0.59194 0.0
H2127 H 0.16914 0.05392 0.59033 0.0
H2128 H 0.13621 0.9728 0.61642 0.0
H2129 H 0.13694 0.92421 0.5856 0.0
H2130 H 0.1655 0.96183 0.58864 0.0
H2131 H 0.12977 0.95495 0.58457 0.0
C2132 C 0.20753 0.04064 0.60566 0.0
C2133 C 0.20066 0.05727 0.59995 0.0
C2134 C 0.18837 0.00951 0.6065 0.0
C2135 C 0.16211 0.99441 0.60163 0.0
C2136 C 0.156 0.01074 0.59565 0.0
H2137 H 0.98732 0.85144 0.61313 0.0
H2138 H 0.03516 0.89828 0.61146 0.0
C2139 C 0.17517 0.04182 0.59477 0.0
C2140 C 0.1392 0.96262 0.60348 0.0
H2141 H 0.09283 0.89465 0.59423 0.0
C2142 C 0.12712 0.95556 0.6116 0.0
C2143 C 0.12756 0.93998 0.59724 0.0
C2144 C 0.14086 0.94554 0.58855 0.0
C2145 C 0.10262 0.92704 0.61352 0.0
C2146 C 0.0895 0.90519 0.60711 0.0
C2147 C 0.10266 0.91159 0.59912 0.0
C2148 C 0.06089 0.87647 0.60843 0.0
C2149 C 0.09071 0.92075 0.62237 0.0
C2150 C 0.05934 0.8486 0.60713 0.0
C2151 C 0.03188 0.82165 0.60804 0.0
C2152 C 0.00547 0.82217 0.6102 0.0
C2153 C 0.00722 0.85017 0.61152 0.0
C2154 C 0.03461 0.87701 0.61061 0.0
H2155 H 0.10841 0.9354 0.62694 0.0
H2156 H 0.07188 0.92554 0.62291 0.0
H2157 H 0.08208 0.8968 0.6241 0.0
H2158 H 0.07935 0.84773 0.60538 0.0
H2159 H 0.03127 0.80047 0.60694 0.0
H2160 H 0.16951 0.14302 0.59812 0.0
H2161 H 0.12217 0.14192 0.59521 0.0
H2162 H 0.13146 0.19055 0.61809 0.0
H2163 H 0.1792 0.19208 0.62104 0.0
H2164 H 0.07149 0.11491 0.60553 0.0
H2165 H 0.11009 0.2364 0.60071 0.0
H2166 H 0.1355 0.22152 0.60031 0.0
H2167 H 0.1229 0.22768 0.61023 0.0
C2168 C 0.16171 0.15378 0.60251 0.0
C2169 C 0.17814 0.16761 0.60983 0.0
C2170 C 0.13464 0.15315 0.60082 0.0
C2171 C 0.1235 0.16646 0.60638 0.0
C2172 C 0.13998 0.18066 0.61364 0.0
H2173 H 0.95222 0.16027 0.61099 0.0
H2174 H 0.00517 0.17366 0.61202 0.0
C2175 C 0.16714 0.18132 0.61534 0.0
C2176 C 0.09351 0.16334 0.60485 0.0
H2177 H 0.05709 0.20301 0.60142 0.0
C2178 C 0.06836 0.13416 0.60457 0.0
C2179 C 0.08953 0.18853 0.60367 0.0
C2180 C 0.11593 0.22033 0.60367 0.0
C2181 C 0.03922 0.12941 0.60325 0.0
C2182 C 0.0352 0.15456 0.602 0.0
C2183 C 0.06032 0.1838 0.60232 0.0
C2184 C 0.00481 0.15062 0.60063 0.0
C2185 C 0.01289 0.09752 0.60343 0.0
C2186 C 0.98752 0.13443 0.59368 0.0
C2187 C 0.95722 0.12661 0.59308 0.0
C2188 C 0.94376 0.13505 0.5994 0.0
C2189 C 0.96183 0.15326 0.60603 0.0
C2190 C 0.99211 0.16096 0.60664 0.0
H2191 H 0.01896 0.08168 0.60643 0.0
H2192 H 0.99346 0.09638 0.60686 0.0
H2193 H 0.00558 0.08972 0.59692 0.0
H2194 H 0.99713 0.12677 0.58889 0.0
H2195 H 0.94404 0.11284 0.58785 0.0
H2196 H 0.67406 0.50959 0.4547 0.0
H2197 H 0.72079 0.50901 0.4518 0.0
H2198 H 0.68423 0.46468 0.42822 0.0
H2199 H 0.6375 0.46498 0.43105 0.0
H2200 H 0.70768 0.43626 0.43855 0.0
H2201 H 0.78911 0.55872 0.43473 0.0
H2202 H 0.76628 0.54838 0.44403 0.0
H2203 H 0.74876 0.54305 0.43396 0.0
C2204 C 0.67605 0.49994 0.44887 0.0
C2205 C 0.65201 0.48727 0.44312 0.0
C2206 C 0.70285 0.49983 0.4472 0.0
C2207 C 0.70606 0.48714 0.43975 0.0
C2208 C 0.68224 0.47475 0.43398 0.0
H2209 H 0.83583 0.43786 0.42153 0.0
H2210 H 0.79546 0.45015 0.42239 0.0
C2211 C 0.65553 0.47492 0.43562 0.0
C2212 C 0.73333 0.48476 0.43821 0.0
H2213 H 0.80952 0.52603 0.4351 0.0
C2214 C 0.72993 0.45586 0.43774 0.0
C2215 C 0.76229 0.51042 0.43721 0.0
C2216 C 0.76697 0.54194 0.43743 0.0
C2217 C 0.7548 0.45186 0.43645 0.0
C2218 C 0.78379 0.47749 0.43538 0.0
C2219 C 0.78724 0.50645 0.43585 0.0
C2220 C 0.81082 0.47441 0.4341 0.0
C2221 C 0.74989 0.4202 0.43649 0.0
C2222 C 0.83385 0.48562 0.44013 0.0
C2223 C 0.85716 0.47896 0.4396 0.0
C2224 C 0.85777 0.46087 0.43305 0.0
C2225 C 0.83584 0.45154 0.42671 0.0
C2226 C 0.81265 0.45839 0.42721 0.0
H2227 H 0.72803 0.4039 0.43944 0.0
H2228 H 0.74964 0.41279 0.42995 0.0
H2229 H 0.76833 0.41929 0.4399 0.0
H2230 H 0.83296 0.49824 0.44546 0.0
H2231 H 0.87377 0.48664 0.44458 0.0
H2232 H 0.52236 0.18479 0.43475 0.0
H2233 H 0.51211 0.22645 0.43378 0.0
H2234 H 0.43016 0.17531 0.44794 0.0
H2235 H 0.44014 0.13324 0.44896 0.0
H2236 H 0.45532 0.2242 0.42731 0.0
H2237 H 0.4836 0.25833 0.46074 0.0
H2238 H 0.4968 0.23589 0.45546 0.0
H2239 H 0.45785 0.21926 0.45835 0.0
C2240 C 0.5021 0.18229 0.43766 0.0
C2241 C 0.48213 0.15574 0.44197 0.0
C2242 C 0.49624 0.20608 0.43706 0.0
C2243 C 0.47047 0.20391 0.44081 0.0
C2244 C 0.45024 0.17737 0.44504 0.0
H2245 H 0.45651 0.36607 0.44802 0.0
H2246 H 0.43943 0.31204 0.44757 0.0
C2247 C 0.45599 0.15341 0.44561 0.0
C2248 C 0.46568 0.23007 0.44048 0.0
H2249 H 0.47521 0.2902 0.45204 0.0
C2250 C 0.45916 0.23844 0.43274 0.0
C2251 C 0.47041 0.24832 0.44759 0.0
C2252 C 0.47768 0.24025 0.45602 0.0
C2253 C 0.45846 0.26537 0.43185 0.0
C2254 C 0.46521 0.28469 0.43884 0.0
C2255 C 0.47003 0.2754 0.44668 0.0
C2256 C 0.47124 0.3161 0.43801 0.0
C2257 C 0.45101 0.27307 0.42339 0.0
C2258 C 0.49427 0.33621 0.43265 0.0
C2259 C 0.50397 0.36698 0.43286 0.0
C2260 C 0.49112 0.37839 0.43853 0.0
C2261 C 0.46689 0.35803 0.44357 0.0
C2262 C 0.45713 0.32714 0.44334 0.0
H2263 H 0.43568 0.25231 0.41983 0.0
H2264 H 0.44024 0.28719 0.42397 0.0
H2265 H 0.4721 0.28572 0.41971 0.0
H2266 H 0.50602 0.32842 0.42863 0.0
H2267 H 0.52268 0.382 0.42889 0.0
H2268 H 0.82854 0.3495 0.43641 0.0
H2269 H 0.78283 0.30034 0.43528 0.0
H2270 H 0.82181 0.26159 0.45151 0.0
H2271 H 0.86784 0.31097 0.45275 0.0
H2272 H 0.77577 0.24345 0.4297 0.0
H2273 H 0.74063 0.24122 0.46284 0.0
H2274 H 0.76877 0.27546 0.45784 0.0
H2275 H 0.77808 0.24753 0.46108 0.0
C2276 C 0.82751 0.33058 0.43974 0.0
C2277 C 0.85179 0.33422 0.44472 0.0
C2278 C 0.80138 0.30246 0.43906 0.0
C2279 C 0.79889 0.27745 0.44336 0.0
C2280 C 0.82322 0.28076 0.44822 0.0
H2281 H 0.62938 0.10667 0.44935 0.0
H2282 H 0.68362 0.14281 0.4493 0.0
C2283 C 0.84949 0.30895 0.4489 0.0
C2284 C 0.77032 0.24827 0.44288 0.0
H2285 H 0.70758 0.20126 0.45419 0.0
C2286 C 0.76097 0.23397 0.43507 0.0
C2287 C 0.7512 0.23593 0.4499 0.0
C2288 C 0.75993 0.25081 0.4584 0.0
C2289 C 0.73256 0.20804 0.43405 0.0
C2290 C 0.71283 0.19655 0.44099 0.0
C2291 C 0.72275 0.2101 0.44887 0.0
C2292 C 0.68088 0.17241 0.44011 0.0
C2293 C 0.72385 0.19343 0.42553 0.0
C2294 C 0.66141 0.17682 0.43487 0.0
C2295 C 0.63046 0.15623 0.43487 0.0
C2296 C 0.6183 0.13094 0.44018 0.0
C2297 C 0.638 0.1259 0.44518 0.0
C2298 C 0.66901 0.14654 0.44517 0.0
H2299 H 0.74409 0.19803 0.42182 0.0
H2300 H 0.70878 0.16863 0.42604 0.0
H2301 H 0.71174 0.2029 0.42204 0.0
H2302 H 0.66993 0.19695 0.43106 0.0
H2303 H 0.61595 0.16086 0.43096 0.0
H2304 H 0.79214 0.51464 0.73389 0.0
H2305 H 0.80342 0.47361 0.73391 0.0
H2306 H 0.86817 0.51733 0.71409 0.0
H2307 H 0.8572 0.55872 0.71405 0.0
H2308 H 0.79253 0.43928 0.71898 0.0
H2309 H 0.91059 0.48622 0.73019 0.0
H2310 H 0.88836 0.50384 0.73249 0.0
H2311 H 0.90447 0.50763 0.72228 0.0
C2312 C 0.80934 0.51598 0.72967 0.0
C2313 C 0.82355 0.53982 0.72391 0.0
C2314 C 0.81576 0.49249 0.7297 0.0
C2315 C 0.83664 0.49248 0.72401 0.0
C2316 C 0.85229 0.51714 0.71861 0.0
H2317 H 0.87266 0.34877 0.70947 0.0
H2318 H 0.87447 0.39738 0.7109 0.0
C2319 C 0.8459 0.54073 0.71858 0.0
C2320 C 0.83882 0.46489 0.72301 0.0
H2321 H 0.88612 0.43619 0.72492 0.0
C2322 C 0.81296 0.43857 0.72031 0.0
C2323 C 0.86564 0.46424 0.72461 0.0
C2324 C 0.89386 0.49189 0.72761 0.0
C2325 C 0.8131 0.4115 0.71921 0.0
C2326 C 0.83966 0.41054 0.72104 0.0
C2327 C 0.86576 0.437 0.72357 0.0
C2328 C 0.84022 0.38195 0.72054 0.0
C2329 C 0.78488 0.38424 0.716 0.0
C2330 C 0.82089 0.35748 0.72562 0.0
C2331 C 0.81962 0.32974 0.72478 0.0
C2332 C 0.83795 0.326 0.71889 0.0
C2333 C 0.85815 0.35089 0.71402 0.0
C2334 C 0.85928 0.37867 0.71485 0.0
H2335 H 0.76985 0.39075 0.71271 0.0
H2336 H 0.79047 0.37083 0.71164 0.0
H2337 H 0.77212 0.36962 0.72136 0.0
H2338 H 0.80644 0.35973 0.73017 0.0
H2339 H 0.80406 0.31116 0.7287 0.0
H2340 H 0.46565 0.27693 0.73496 0.0
H2341 H 0.50781 0.32869 0.73558 0.0
H2342 H 0.47856 0.34898 0.71238 0.0
H2343 H 0.43601 0.29748 0.7118 0.0
H2344 H 0.55107 0.34926 0.72355 0.0
H2345 H 0.50348 0.4254 0.72572 0.0
H2346 H 0.48166 0.38563 0.72812 0.0
H2347 H 0.48738 0.39826 0.71742 0.0
C2348 C 0.46766 0.29263 0.73011 0.0
C2349 C 0.44761 0.28299 0.72329 0.0
C2350 C 0.4918 0.32221 0.73047 0.0
C2351 C 0.49631 0.34274 0.72404 0.0
C2352 C 0.47525 0.33374 0.7175 0.0
H2353 H 0.64993 0.50861 0.70641 0.0
H2354 H 0.60026 0.46366 0.70844 0.0
C2355 C 0.45096 0.30417 0.71716 0.0
C2356 C 0.52509 0.37185 0.72357 0.0
H2357 H 0.55542 0.44812 0.72168 0.0
C2358 C 0.55202 0.3709 0.72325 0.0
C2359 C 0.52625 0.40001 0.72307 0.0
C2360 C 0.49817 0.4025 0.72368 0.0
C2361 C 0.58003 0.39723 0.72228 0.0
C2362 C 0.58122 0.42537 0.72175 0.0
C2363 C 0.55436 0.42645 0.72209 0.0
C2364 C 0.61031 0.4538 0.7208 0.0
C2365 C 0.60809 0.39464 0.72163 0.0
C2366 C 0.63209 0.46338 0.72715 0.0
C2367 C 0.66045 0.48889 0.72601 0.0
C2368 C 0.66753 0.50541 0.71849 0.0
C2369 C 0.64527 0.4963 0.71225 0.0
C2370 C 0.61686 0.47071 0.7134 0.0
H2371 H 0.60266 0.37119 0.72021 0.0
H2372 H 0.6234 0.40985 0.71668 0.0
H2373 H 0.62041 0.40138 0.72767 0.0
H2374 H 0.62729 0.45083 0.73295 0.0
H2375 H 0.67694 0.49541 0.73098 0.0
H2376 H 0.71949 0.22654 0.73969 0.0
H2377 H 0.66615 0.21123 0.73845 0.0
H2378 H 0.65569 0.14955 0.71863 0.0
H2379 H 0.70914 0.16472 0.7198 0.0
H2380 H 0.64464 0.21952 0.72204 0.0
H2381 H 0.57906 0.102 0.73421 0.0
H2382 H 0.6173 0.12781 0.73753 0.0
H2383 H 0.61035 0.111 0.72733 0.0
C2384 C 0.70575 0.20918 0.7352 0.0
C2385 C 0.71867 0.19706 0.72979 0.0
C2386 C 0.67526 0.20048 0.7345 0.0
C2387 C 0.65705 0.17926 0.72847 0.0
C2388 C 0.66934 0.16572 0.7234 0.0
H2389 H 0.47427 0.12767 0.71163 0.0
H2390 H 0.52297 0.12992 0.71358 0.0
C2391 C 0.69992 0.17451 0.72406 0.0
C2392 C 0.62649 0.17435 0.72678 0.0
H2393 H 0.55127 0.12303 0.72833 0.0
C2394 C 0.62421 0.19843 0.72342 0.0
C2395 C 0.60002 0.14666 0.72846 0.0
C2396 C 0.60154 0.12031 0.73213 0.0
C2397 C 0.59607 0.19572 0.72176 0.0
C2398 C 0.56949 0.16839 0.72371 0.0
C2399 C 0.57172 0.14398 0.72688 0.0
C2400 C 0.53934 0.16551 0.72284 0.0
C2401 C 0.59508 0.22212 0.71789 0.0
C2402 C 0.53225 0.18427 0.72753 0.0
C2403 C 0.5047 0.18317 0.72641 0.0
C2404 C 0.48347 0.16306 0.72062 0.0
C2405 C 0.49019 0.14353 0.71611 0.0
C2406 C 0.51793 0.14472 0.71722 0.0
H2407 H 0.61651 0.23761 0.71462 0.0
H2408 H 0.57618 0.21438 0.71336 0.0
H2409 H 0.59165 0.23515 0.7229 0.0
H2410 H 0.54824 0.20007 0.73202 0.0
H2411 H 0.50019 0.19833 0.73006 0.0
H2412 H 0.69218 0.23179 0.21443 0.0
H2413 H 0.64097 0.2229 0.21627 0.0
H2414 H 0.61142 0.13217 0.22461 0.0
H2415 H 0.66277 0.14104 0.22295 0.0
H2416 H 0.58786 0.18083 0.20891 0.0
H2417 H 0.58254 0.16543 0.24344 0.0
H2418 H 0.61741 0.1806 0.23765 0.0
H2419 H 0.59123 0.1407 0.23762 0.0
C2420 C 0.67481 0.20992 0.21665 0.0
C2421 C 0.68159 0.18718 0.21859 0.0
C2422 C 0.64555 0.20488 0.21769 0.0
C2423 C 0.6225 0.17704 0.2207 0.0
C2424 C 0.62901 0.15403 0.22246 0.0
H2425 H 0.43633 0.14232 0.21746 0.0
H2426 H 0.47885 0.13305 0.21699 0.0
C2427 C 0.65833 0.1591 0.22145 0.0
C2428 C 0.59172 0.17231 0.22191 0.0
H2429 H 0.53885 0.15991 0.23681 0.0
C2430 C 0.57699 0.17601 0.21499 0.0
C2431 C 0.57777 0.16623 0.22987 0.0
C2432 C 0.59307 0.16324 0.2376 0.0
C2433 C 0.54902 0.17456 0.21584 0.0
C2434 C 0.53505 0.16852 0.22381 0.0
C2435 C 0.54945 0.16414 0.2307 0.0
C2436 C 0.50723 0.17006 0.22524 0.0
C2437 C 0.53543 0.181 0.20828 0.0
C2438 C 0.50838 0.19261 0.23048 0.0
C2439 C 0.48406 0.19773 0.23085 0.0
C2440 C 0.45812 0.18043 0.22596 0.0
C2441 C 0.45608 0.15626 0.22124 0.0
C2442 C 0.48043 0.15105 0.22091 0.0
H2443 H 0.55198 0.19132 0.20309 0.0
H2444 H 0.5162 0.15956 0.20595 0.0
H2445 H 0.52682 0.19641 0.20992 0.0
H2446 H 0.52876 0.20739 0.23393 0.0
H2447 H 0.48632 0.21636 0.23461 0.0
H2448 H 0.81918 0.27963 0.21906 0.0
H2449 H 0.82977 0.33155 0.21824 0.0
H2450 H 0.78223 0.32008 0.24148 0.0
H2451 H 0.77078 0.26768 0.24223 0.0
H2452 H 0.7608 0.3399 0.22944 0.0
H2453 H 0.88517 0.41043 0.22953 0.0
H2454 H 0.87233 0.38125 0.22178 0.0
H2455 H 0.8659 0.37132 0.2327 0.0
C2456 C 0.81163 0.28832 0.22412 0.0
C2457 C 0.79392 0.2694 0.23068 0.0
C2458 C 0.81788 0.31816 0.22367 0.0
C2459 C 0.80701 0.32985 0.22983 0.0
C2460 C 0.79089 0.31155 0.23666 0.0
H2461 H 0.83818 0.51426 0.22845 0.0
H2462 H 0.83889 0.46832 0.23227 0.0
C2463 C 0.78441 0.28161 0.23708 0.0
C2464 C 0.80907 0.35957 0.22859 0.0
H2465 H 0.85783 0.43348 0.22385 0.0
C2466 C 0.78209 0.36044 0.22833 0.0
C2467 C 0.83683 0.38643 0.22721 0.0
C2468 C 0.8667 0.38741 0.2279 0.0
C2469 C 0.78197 0.38713 0.22646 0.0
C2470 C 0.80954 0.41356 0.22458 0.0
C2471 C 0.83667 0.41305 0.22514 0.0
C2472 C 0.81049 0.44183 0.22198 0.0
C2473 C 0.75228 0.38676 0.22653 0.0
C2474 C 0.79492 0.44237 0.21481 0.0
C2475 C 0.79432 0.46851 0.21263 0.0
C2476 C 0.80956 0.49471 0.21754 0.0
C2477 C 0.82611 0.49443 0.22455 0.0
C2478 C 0.82657 0.46822 0.22674 0.0
H2479 H 0.73512 0.36787 0.23038 0.0
H2480 H 0.75506 0.40828 0.22901 0.0
H2481 H 0.74349 0.3837 0.22004 0.0
H2482 H 0.78295 0.42244 0.21094 0.0
H2483 H 0.7816 0.46803 0.20715 0.0
H2484 H 0.71828 0.55342 0.21658 0.0
H2485 H 0.66371 0.51963 0.21561 0.0
H2486 H 0.66722 0.46847 0.2366 0.0
H2487 H 0.7216 0.50225 0.23768 0.0
H2488 H 0.63866 0.45929 0.21222 0.0
H2489 H 0.59276 0.47449 0.24202 0.0
H2490 H 0.62994 0.50155 0.23825 0.0
H2491 H 0.62376 0.46801 0.24362 0.0
C2492 C 0.70735 0.53543 0.22112 0.0
C2493 C 0.72434 0.53046 0.22719 0.0
C2494 C 0.67616 0.51612 0.22055 0.0
C2495 C 0.66135 0.49171 0.22608 0.0
C2496 C 0.67805 0.48753 0.23238 0.0
H2497 H 0.50539 0.32071 0.23069 0.0
H2498 H 0.55191 0.36904 0.23192 0.0
C2499 C 0.70922 0.50679 0.23295 0.0
C2500 C 0.62933 0.46853 0.22468 0.0
H2501 H 0.56165 0.42786 0.23464 0.0
C2502 C 0.6216 0.45278 0.21705 0.0
C2503 C 0.60719 0.4601 0.231 0.0
C2504 C 0.61373 0.47714 0.23915 0.0
C2505 C 0.59283 0.42768 0.21575 0.0
C2506 C 0.57109 0.41843 0.22222 0.0
C2507 C 0.5784 0.43498 0.22971 0.0
C2508 C 0.54177 0.38999 0.22163 0.0
C2509 C 0.5865 0.41025 0.20767 0.0
C2510 C 0.52038 0.38588 0.2155 0.0
C2511 C 0.49365 0.35808 0.21474 0.0
C2512 C 0.48791 0.33405 0.22013 0.0
C2513 C 0.5091 0.33864 0.2264 0.0
C2514 C 0.5357 0.36631 0.22715 0.0
H2515 H 0.60738 0.41715 0.20399 0.0
H2516 H 0.57547 0.38565 0.20893 0.0
H2517 H 0.57092 0.41431 0.20378 0.0
H2518 H 0.52447 0.40405 0.21126 0.0
H2519 H 0.47771 0.35535 0.20988 0.0
H2520 H 0.5554 0.16012 0.92336 0.0
H2521 H 0.54367 0.20072 0.92485 0.0
H2522 H 0.49988 0.16346 0.94844 0.0
H2523 H 0.51101 0.1225 0.94696 0.0
H2524 H 0.47054 0.18742 0.93874 0.0
H2525 H 0.59358 0.26745 0.94194 0.0
H2526 H 0.58285 0.24596 0.93241 0.0
H2527 H 0.57769 0.22707 0.94227 0.0
C2528 C 0.54274 0.16018 0.92879 0.0
C2529 C 0.53454 0.13831 0.93511 0.0
C2530 C 0.53619 0.18349 0.92964 0.0
C2531 C 0.52155 0.18544 0.93685 0.0
C2532 C 0.51139 0.16245 0.94286 0.0
H2533 H 0.53972 0.3492 0.9579 0.0
H2534 H 0.53779 0.30114 0.95542 0.0
C2535 C 0.5178 0.13906 0.942 0.0
C2536 C 0.5191 0.21263 0.93847 0.0
H2537 H 0.56169 0.2884 0.94195 0.0
C2538 C 0.49042 0.20954 0.93943 0.0
C2539 C 0.54512 0.24132 0.93953 0.0
C2540 C 0.57657 0.24575 0.93907 0.0
C2541 C 0.48706 0.23454 0.94132 0.0
C2542 C 0.51311 0.26335 0.94216 0.0
C2543 C 0.54175 0.26632 0.94126 0.0
C2544 C 0.51147 0.29087 0.94404 0.0
C2545 C 0.45575 0.22976 0.94259 0.0
C2546 C 0.49706 0.30092 0.93851 0.0
C2547 C 0.49797 0.32832 0.93994 0.0
C2548 C 0.51363 0.34634 0.94687 0.0
C2549 C 0.5275 0.3359 0.95249 0.0
C2550 C 0.52643 0.30844 0.95109 0.0
H2551 H 0.43917 0.20579 0.944 0.0
H2552 H 0.45539 0.24406 0.94777 0.0
H2553 H 0.44838 0.23604 0.93677 0.0
H2554 H 0.48595 0.28809 0.93294 0.0
H2555 H 0.48721 0.33581 0.93545 0.0
H2556 H 0.88404 0.38253 0.93912 0.0
H2557 H 0.84577 0.32917 0.94029 0.0
H2558 H 0.7856 0.34428 0.92476 0.0
H2559 H 0.8239 0.39727 0.92336 0.0
H2560 H 0.79339 0.31012 0.94781 0.0
H2561 H 0.77066 0.26514 0.91558 0.0
H2562 H 0.80377 0.30053 0.91824 0.0
H2563 H 0.76828 0.29885 0.91626 0.0
C2564 C 0.86298 0.3743 0.93575 0.0
C2565 C 0.85698 0.39419 0.93117 0.0
C2566 C 0.8411 0.3438 0.93644 0.0
C2567 C 0.81287 0.33261 0.93256 0.0
C2568 C 0.80743 0.35214 0.92765 0.0
H2569 H 0.63889 0.20137 0.94992 0.0
H2570 H 0.68794 0.24539 0.94694 0.0
C2571 C 0.82936 0.38256 0.9269 0.0
C2572 C 0.78784 0.30181 0.93451 0.0
H2573 H 0.73029 0.23845 0.92562 0.0
C2574 C 0.77994 0.29424 0.94295 0.0
C2575 C 0.77046 0.28086 0.9282 0.0
C2576 C 0.77895 0.28665 0.91907 0.0
C2577 C 0.7543 0.26703 0.94523 0.0
C2578 C 0.73562 0.24717 0.93889 0.0
C2579 C 0.74437 0.25393 0.93047 0.0
C2580 C 0.70616 0.22015 0.94084 0.0
C2581 C 0.74734 0.25999 0.9544 0.0
C2582 C 0.6998 0.19138 0.93823 0.0
C2583 C 0.67158 0.16611 0.93986 0.0
C2584 C 0.64921 0.16924 0.94411 0.0
C2585 C 0.65569 0.19811 0.94671 0.0
C2586 C 0.68381 0.22331 0.94505 0.0
H2587 H 0.76811 0.2718 0.95828 0.0
H2588 H 0.73171 0.26784 0.95647 0.0
H2589 H 0.73647 0.23537 0.95561 0.0
H2590 H 0.71667 0.18849 0.93492 0.0
H2591 H 0.66726 0.1442 0.93774 0.0
H2592 H 0.79721 0.42967 0.94909 0.0
H2593 H 0.75226 0.43377 0.94679 0.0
H2594 H 0.80733 0.52309 0.9366 0.0
H2595 H 0.85251 0.51891 0.9387 0.0
H2596 H 0.73615 0.47361 0.95275 0.0
H2597 H 0.74589 0.48076 0.91806 0.0
H2598 H 0.76823 0.47032 0.92448 0.0
H2599 H 0.7781 0.50921 0.92362 0.0
C2600 C 0.79984 0.45027 0.94639 0.0
C2601 C 0.82842 0.47388 0.94402 0.0
C2602 C 0.7741 0.45257 0.94508 0.0
C2603 C 0.77639 0.47852 0.94139 0.0
C2604 C 0.80498 0.50258 0.93927 0.0
H2605 H 0.61318 0.49462 0.94164 0.0
H2606 H 0.66632 0.50866 0.94283 0.0
C2607 C 0.83078 0.50022 0.94053 0.0
C2608 C 0.74861 0.47993 0.93973 0.0
H2609 H 0.70499 0.48314 0.92403 0.0
C2610 C 0.72942 0.47596 0.94648 0.0
C2611 C 0.73983 0.48274 0.93153 0.0
C2612 C 0.7589 0.48574 0.92399 0.0
C2613 C 0.70129 0.47386 0.94525 0.0
C2614 C 0.69246 0.47662 0.93704 0.0
C2615 C 0.71199 0.48137 0.93031 0.0
C2616 C 0.66184 0.47156 0.93525 0.0
C2617 C 0.68069 0.46717 0.95269 0.0
C2618 C 0.6422 0.44724 0.93016 0.0
C2619 C 0.61199 0.43944 0.92936 0.0
C2620 C 0.6008 0.45576 0.93368 0.0
C2621 C 0.62102 0.4814 0.9383 0.0
C2622 C 0.65134 0.48934 0.93904 0.0
H2623 H 0.68812 0.45915 0.95817 0.0
H2624 H 0.68071 0.48805 0.95457 0.0
H2625 H 0.65717 0.44978 0.95111 0.0
H2626 H 0.64989 0.43334 0.92714 0.0
H2627 H 0.5971 0.41966 0.92572 0.0
H2628 H 0.31923 0.80355 0.77738 0.0
H2629 H 0.36807 0.80674 0.77574 0.0
H2630 H 0.40575 0.89699 0.76592 0.0
H2631 H 0.35657 0.89387 0.76743 0.0
H2632 H 0.4203 0.86106 0.75638 0.0
H2633 H 0.44388 0.85342 0.78977 0.0
H2634 H 0.40729 0.82339 0.78679 0.0
H2635 H 0.41521 0.86185 0.78641 0.0
C2636 C 0.33791 0.82424 0.77494 0.0
C2637 C 0.33401 0.84852 0.77257 0.0
C2638 C 0.3659 0.82607 0.77405 0.0
C2639 C 0.39067 0.8523 0.77085 0.0
C2640 C 0.38695 0.87664 0.76847 0.0
H2641 H 0.55799 0.84614 0.77358 0.0
H2642 H 0.52543 0.86842 0.77386 0.0
C2643 C 0.35886 0.87482 0.76935 0.0
C2644 C 0.4199 0.85338 0.76965 0.0
H2645 H 0.47012 0.8393 0.77982 0.0
C2646 C 0.43158 0.85688 0.76152 0.0
C2647 C 0.43498 0.84862 0.77638 0.0
C2648 C 0.42487 0.84694 0.78534 0.0
C2649 C 0.45678 0.85364 0.75986 0.0
C2650 C 0.47016 0.84613 0.76649 0.0
C2651 C 0.4597 0.84472 0.7747 0.0
C2652 C 0.49291 0.83671 0.76505 0.0
C2653 C 0.46843 0.8578 0.751 0.0
C2654 C 0.48595 0.81202 0.75981 0.0
C2655 C 0.50463 0.7994 0.75958 0.0
C2656 C 0.53039 0.8109 0.7647 0.0
C2657 C 0.53825 0.83667 0.76958 0.0
C2658 C 0.51965 0.84943 0.76976 0.0
H2659 H 0.46397 0.874 0.74754 0.0
H2660 H 0.49304 0.86605 0.75085 0.0
H2661 H 0.4565 0.83586 0.74767 0.0
H2662 H 0.4651 0.80131 0.75627 0.0
H2663 H 0.49784 0.77952 0.75577 0.0
H2664 H 0.17295 0.71388 0.77695 0.0
H2665 H 0.15888 0.66096 0.7788 0.0
H2666 H 0.22864 0.67287 0.76147 0.0
H2667 H 0.24226 0.72538 0.75939 0.0
H2668 H 0.17773 0.61753 0.75981 0.0
H2669 H 0.21263 0.64176 0.79318 0.0
H2670 H 0.18291 0.6488 0.79016 0.0
H2671 H 0.21998 0.67116 0.78575 0.0
C2672 C 0.1849 0.70507 0.77341 0.0
C2673 C 0.20903 0.72397 0.76811 0.0
C2674 C 0.17697 0.67488 0.77452 0.0
C2675 C 0.19326 0.66323 0.77045 0.0
C2676 C 0.21592 0.68147 0.76473 0.0
H2677 H 0.23818 0.52981 0.78402 0.0
H2678 H 0.23366 0.5745 0.78167 0.0
C2679 C 0.2237 0.71153 0.76355 0.0
C2680 C 0.1885 0.63293 0.77254 0.0
H2681 H 0.19619 0.59254 0.78841 0.0
C2682 C 0.18144 0.61189 0.76607 0.0
C2683 C 0.19381 0.62586 0.78071 0.0
C2684 C 0.20301 0.64812 0.78785 0.0
C2685 C 0.18024 0.58422 0.7675 0.0
C2686 C 0.18559 0.5772 0.77566 0.0
C2687 C 0.19189 0.59793 0.78217 0.0
C2688 C 0.18727 0.54966 0.77746 0.0
C2689 C 0.17466 0.56344 0.76017 0.0
C2690 C 0.16245 0.52079 0.77605 0.0
C2691 C 0.16502 0.49514 0.77734 0.0
C2692 C 0.19236 0.49793 0.78016 0.0
C2693 C 0.21679 0.52684 0.78186 0.0
C2694 C 0.21426 0.55243 0.78051 0.0
H2695 H 0.17777 0.57512 0.75408 0.0
H2696 H 0.19006 0.55403 0.76039 0.0
H2697 H 0.15111 0.54435 0.76044 0.0
H2698 H 0.14121 0.51812 0.77387 0.0
H2699 H 0.14572 0.47316 0.77603 0.0
H2700 H 0.48667 0.66761 0.79132 0.0
H2701 H 0.44028 0.6203 0.78824 0.0
H2702 H 0.455 0.63879 0.7618 0.0
H2703 H 0.50143 0.68609 0.76479 0.0
H2704 H 0.39016 0.61609 0.77915 0.0
H2705 H 0.43706 0.55032 0.76415 0.0
H2706 H 0.45945 0.58286 0.77069 0.0
H2707 H 0.45088 0.58776 0.7601 0.0
C2708 C 0.48022 0.66151 0.78484 0.0
C2709 C 0.49775 0.68064 0.7783 0.0
C2710 C 0.45371 0.63447 0.7831 0.0
C2711 C 0.44446 0.62593 0.77479 0.0
C2712 C 0.46206 0.64475 0.76825 0.0
H2713 H 0.26393 0.50062 0.75749 0.0
H2714 H 0.31575 0.54247 0.7587 0.0
C2715 C 0.48847 0.67186 0.76998 0.0
C2716 C 0.41538 0.5983 0.773 0.0
H2717 H 0.38382 0.52921 0.76354 0.0
C2718 C 0.38876 0.59707 0.77576 0.0
C2719 C 0.41373 0.57352 0.76861 0.0
C2720 C 0.44178 0.57341 0.76576 0.0
C2721 C 0.36043 0.57181 0.77414 0.0
C2722 C 0.35872 0.5473 0.7696 0.0
C2723 C 0.38531 0.54826 0.76694 0.0
C2724 C 0.32928 0.52023 0.76779 0.0
C2725 C 0.33247 0.57136 0.77737 0.0
C2726 C 0.32027 0.49345 0.77224 0.0
C2727 C 0.29065 0.46945 0.77158 0.0
C2728 C 0.26964 0.4719 0.76643 0.0
C2729 C 0.27947 0.498 0.76153 0.0
C2730 C 0.30904 0.522 0.76222 0.0
H2731 H 0.33793 0.58961 0.78199 0.0
H2732 H 0.32031 0.57442 0.77205 0.0
H2733 H 0.31697 0.54931 0.78035 0.0
H2734 H 0.33568 0.49172 0.77655 0.0
H2735 H 0.28386 0.44963 0.77542 0.0
H2736 H 0.51055 0.88818 0.0577 0.0
H2737 H 0.52912 0.85248 0.05708 0.0
H2738 H 0.46443 0.7974 0.07588 0.0
H2739 H 0.44613 0.83316 0.07668 0.0
H2740 H 0.52003 0.79918 0.0774 0.0
H2741 H 0.47494 0.7727 0.0449 0.0
H2742 H 0.50279 0.81143 0.04681 0.0
H2743 H 0.46674 0.79525 0.05193 0.0
C2744 C 0.50073 0.86884 0.06185 0.0
C2745 C 0.47649 0.86325 0.06715 0.0
C2746 C 0.51127 0.84838 0.06144 0.0
C2747 C 0.49762 0.82195 0.06628 0.0
C2748 C 0.47512 0.81757 0.07205 0.0
H2749 H 0.46439 0.64428 0.05725 0.0
H2750 H 0.46454 0.69161 0.0592 0.0
C2751 C 0.46466 0.83805 0.07249 0.0
C2752 C 0.50444 0.79739 0.06478 0.0
H2753 H 0.49626 0.74487 0.05025 0.0
C2754 C 0.51518 0.78747 0.07144 0.0
C2755 C 0.49763 0.78192 0.05703 0.0
C2756 C 0.48465 0.79061 0.04976 0.0
C2757 C 0.51879 0.76211 0.0706 0.0
C2758 C 0.51182 0.74659 0.06286 0.0
C2759 C 0.50174 0.75695 0.05616 0.0
C2760 C 0.51241 0.71814 0.06175 0.0
C2761 C 0.52875 0.75135 0.07809 0.0
C2762 C 0.53937 0.71741 0.06245 0.0
C2763 C 0.53938 0.69027 0.06135 0.0
C2764 C 0.51242 0.66347 0.05948 0.0
C2765 C 0.48556 0.66446 0.05868 0.0
C2766 C 0.48558 0.69151 0.0598 0.0
H2767 H 0.52737 0.76211 0.08399 0.0
H2768 H 0.51474 0.72648 0.07877 0.0
H2769 H 0.55253 0.75704 0.07721 0.0
H2770 H 0.56042 0.73783 0.0638 0.0
H2771 H 0.56047 0.6903 0.06197 0.0
H2772 H 0.15918 0.60431 0.07495 0.0
H2773 H 0.19817 0.65757 0.07461 0.0
H2774 H 0.1678 0.66646 0.05014 0.0
H2775 H 0.12844 0.61349 0.05049 0.0
H2776 H 0.24268 0.6784 0.06294 0.0
H2777 H 0.18395 0.74443 0.06119 0.0
H2778 H 0.1652 0.70548 0.06451 0.0
H2779 H 0.17073 0.7148 0.05355 0.0
C2780 C 0.16025 0.61778 0.06959 0.0
C2781 C 0.14086 0.60458 0.06272 0.0
C2782 C 0.18257 0.64822 0.06941 0.0
C2783 C 0.1858 0.66603 0.06237 0.0
C2784 C 0.16537 0.65335 0.05571 0.0
H2785 H 0.32867 0.83156 0.0413 0.0
H2786 H 0.28166 0.78458 0.04427 0.0
C2787 C 0.14296 0.62295 0.0559 0.0
C2788 C 0.21283 0.69639 0.0615 0.0
H2789 H 0.23617 0.77025 0.05721 0.0
C2790 C 0.24126 0.69855 0.06181 0.0
C2791 C 0.21089 0.72257 0.05993 0.0
C2792 C 0.18105 0.72182 0.05985 0.0
C2793 C 0.2678 0.72602 0.06038 0.0
C2794 C 0.26587 0.75213 0.05871 0.0
C2795 C 0.2375 0.75012 0.05848 0.0
C2796 C 0.29322 0.78159 0.05712 0.0
C2797 C 0.29764 0.72669 0.06041 0.0
C2798 C 0.31493 0.79565 0.06342 0.0
C2799 C 0.34178 0.82233 0.06175 0.0
C2800 C 0.34737 0.83555 0.05375 0.0
C2801 C 0.32514 0.82188 0.04752 0.0
C2802 C 0.29824 0.79512 0.0492 0.0
H2803 H 0.29466 0.7037 0.0599 0.0
H2804 H 0.31216 0.74066 0.05516 0.0
H2805 H 0.30962 0.73684 0.06636 0.0
H2806 H 0.31125 0.78573 0.0696 0.0
H2807 H 0.3583 0.83238 0.06671 0.0
H2808 H 0.38641 0.49572 0.05584 0.0
H2809 H 0.33181 0.47511 0.05498 0.0
H2810 H 0.33778 0.53886 0.07361 0.0
H2811 H 0.39213 0.5591 0.07467 0.0
H2812 H 0.28577 0.48268 0.0752 0.0
H2813 H 0.30258 0.52526 0.04245 0.0
H2814 H 0.31483 0.49859 0.04456 0.0
H2815 H 0.33369 0.53503 0.04949 0.0
C2816 C 0.37603 0.50495 0.05987 0.0
C2817 C 0.3937 0.52939 0.06522 0.0
C2818 C 0.34484 0.49324 0.05934 0.0
C2819 C 0.3309 0.50596 0.06408 0.0
C2820 C 0.34814 0.52884 0.06986 0.0
H2821 H 0.18427 0.53418 0.05463 0.0
H2822 H 0.23172 0.53465 0.05658 0.0
C2823 C 0.37925 0.54043 0.07044 0.0
C2824 C 0.29911 0.49764 0.06252 0.0
H2825 H 0.25345 0.50289 0.04784 0.0
C2826 C 0.27852 0.48672 0.0692 0.0
C2827 C 0.28991 0.50334 0.0547 0.0
C2828 C 0.3114 0.51643 0.0474 0.0
C2829 C 0.24916 0.48208 0.06832 0.0
C2830 C 0.24013 0.48811 0.06053 0.0
C2831 C 0.26044 0.49814 0.05379 0.0
C2832 C 0.21086 0.48703 0.05941 0.0
C2833 C 0.22856 0.47216 0.07584 0.0
C2834 C 0.18332 0.45999 0.06029 0.0
C2835 C 0.15598 0.45964 0.05921 0.0
C2836 C 0.15582 0.48631 0.05716 0.0
C2837 C 0.18351 0.51322 0.05619 0.0
C2838 C 0.2107 0.51355 0.0573 0.0
H2839 H 0.24089 0.47408 0.08175 0.0
H2840 H 0.2173 0.48582 0.07645 0.0
H2841 H 0.21077 0.44821 0.07505 0.0
H2842 H 0.18296 0.43916 0.06177 0.0
H2843 H 0.13504 0.43852 0.05996 0.0
H2844 H 0.17851 0.5622 0.57237 0.0
H2845 H 0.21183 0.54105 0.57142 0.0
H2846 H 0.14634 0.46843 0.55606 0.0
H2847 H 0.11304 0.48988 0.55681 0.0
H2848 H 0.20779 0.48605 0.57505 0.0
H2849 H 0.21979 0.50908 0.54078 0.0
H2850 H 0.20178 0.52337 0.54762 0.0
H2851 H 0.182 0.4845 0.54441 0.0
C2852 C 0.1709 0.54146 0.5689 0.0
C2853 C 0.14332 0.52802 0.56454 0.0
C2854 C 0.19 0.52937 0.56836 0.0
C2855 C 0.18186 0.50358 0.5635 0.0
C2856 C 0.15335 0.48877 0.55968 0.0
H2857 H 0.30755 0.44338 0.5472 0.0
H2858 H 0.2601 0.44247 0.55026 0.0
C2859 C 0.13428 0.50097 0.56016 0.0
C2860 C 0.20433 0.49391 0.56196 0.0
H2861 H 0.24894 0.49012 0.54665 0.0
C2862 C 0.21655 0.48659 0.56883 0.0
C2863 C 0.21576 0.49465 0.55383 0.0
C2864 C 0.2044 0.50354 0.54623 0.0
C2865 C 0.24043 0.48076 0.56782 0.0
C2866 C 0.25255 0.48264 0.55974 0.0
C2867 C 0.23949 0.48863 0.55282 0.0
C2868 C 0.28058 0.48146 0.5584 0.0
C2869 C 0.2528 0.47312 0.57541 0.0
C2870 C 0.30774 0.50382 0.56192 0.0
C2871 C 0.3348 0.50454 0.56015 0.0
C2872 C 0.33526 0.48293 0.5548 0.0
C2873 C 0.30794 0.4603 0.55136 0.0
C2874 C 0.28083 0.45971 0.5531 0.0
H2875 H 0.23585 0.46371 0.58053 0.0
H2876 H 0.26012 0.4566 0.57384 0.0
H2877 H 0.27269 0.49396 0.57779 0.0
H2878 H 0.30815 0.52122 0.56587 0.0
H2879 H 0.35541 0.5223 0.5629 0.0
H2880 H 0.48416 0.60899 0.547 0.0
H2881 H 0.49489 0.66068 0.54511 0.0
H2882 H 0.46814 0.66233 0.57063 0.0
H2883 H 0.45652 0.6102 0.57251 0.0
H2884 H 0.43781 0.67705 0.55996 0.0
H2885 H 0.55918 0.74379 0.55213 0.0
H2886 H 0.53968 0.71104 0.54561 0.0
H2887 H 0.54247 0.70659 0.5567 0.0
C2888 C 0.48129 0.62056 0.55229 0.0
C2889 C 0.46922 0.60536 0.55989 0.0
C2890 C 0.48763 0.65026 0.55121 0.0
C2891 C 0.48253 0.66551 0.55774 0.0
C2892 C 0.47227 0.651 0.5655 0.0
H2893 H 0.51423 0.84934 0.55499 0.0
H2894 H 0.51812 0.80455 0.55797 0.0
C2895 C 0.46568 0.62121 0.56657 0.0
C2896 C 0.48405 0.69481 0.55615 0.0
H2897 H 0.52878 0.76572 0.54831 0.0
C2898 C 0.45784 0.69653 0.55751 0.0
C2899 C 0.51021 0.72031 0.55299 0.0
C2900 C 0.53956 0.72048 0.55185 0.0
C2901 C 0.4568 0.72272 0.5556 0.0
C2902 C 0.48243 0.74766 0.55203 0.0
C2903 C 0.50897 0.74636 0.5509 0.0
C2904 C 0.48205 0.77539 0.54957 0.0
C2905 C 0.42829 0.72348 0.55752 0.0
C2906 C 0.46118 0.77408 0.54364 0.0
C2907 C 0.45873 0.79957 0.54196 0.0
C2908 C 0.47737 0.82693 0.54612 0.0
C2909 C 0.49941 0.82858 0.55171 0.0
C2910 C 0.50171 0.80302 0.55342 0.0
H2911 H 0.41423 0.7063 0.56227 0.0
H2912 H 0.43352 0.74604 0.55984 0.0
H2913 H 0.41468 0.71853 0.55172 0.0
H2914 H 0.44626 0.75312 0.54045 0.0
H2915 H 0.44174 0.79761 0.53756 0.0
H2916 H 0.36462 0.89445 0.54611 0.0
H2917 H 0.31212 0.85408 0.54747 0.0
H2918 H 0.34072 0.80233 0.56225 0.0
H2919 H 0.39304 0.84272 0.56108 0.0
H2920 H 0.2909 0.79824 0.5413 0.0
H2921 H 0.26811 0.78987 0.57531 0.0
H2922 H 0.30008 0.82222 0.57066 0.0
H2923 H 0.30178 0.78866 0.57299 0.0
C2924 C 0.35967 0.87479 0.54982 0.0
C2925 C 0.38305 0.87178 0.55347 0.0
C2926 C 0.32965 0.85172 0.55058 0.0
C2927 C 0.32243 0.8253 0.55502 0.0
C2928 C 0.34561 0.82278 0.55895 0.0
H2929 H 0.18286 0.64171 0.55743 0.0
H2930 H 0.22856 0.6912 0.55807 0.0
C2931 C 0.3756 0.84588 0.55824 0.0
C2932 C 0.29133 0.79904 0.55479 0.0
H2933 H 0.23547 0.74584 0.56709 0.0
C2934 C 0.27852 0.78711 0.54694 0.0
C2935 C 0.27521 0.78451 0.56215 0.0
C2936 C 0.28689 0.79718 0.57075 0.0
C2937 C 0.2507 0.76028 0.54626 0.0
C2938 C 0.23527 0.74514 0.55361 0.0
C2939 C 0.24753 0.7575 0.56146 0.0
C2940 C 0.20726 0.71549 0.55328 0.0
C2941 C 0.23857 0.74756 0.53769 0.0
C2942 C 0.18018 0.7129 0.55039 0.0
C2943 C 0.15393 0.68461 0.55002 0.0
C2944 C 0.15444 0.65851 0.55252 0.0
C2945 C 0.18169 0.66132 0.55542 0.0
C2946 C 0.20781 0.68957 0.55583 0.0
H2947 H 0.2552 0.75993 0.53265 0.0
H2948 H 0.2321 0.72337 0.5374 0.0
H2949 H 0.218 0.74903 0.53646 0.0
H2950 H 0.17935 0.73275 0.54844 0.0
H2951 H 0.13329 0.68322 0.54778 0.0
H2952 H 0.15987 0.45385 0.2758 0.0
H2953 H 0.13966 0.48821 0.27616 0.0
H2954 H 0.2102 0.54889 0.25944 0.0
H2955 H 0.23019 0.51454 0.25891 0.0
H2956 H 0.1705 0.54511 0.28226 0.0
H2957 H 0.13765 0.54905 0.24953 0.0
H2958 H 0.14442 0.5197 0.25332 0.0
H2959 H 0.1755 0.55576 0.25021 0.0
C2960 C 0.17069 0.47419 0.27205 0.0
C2961 C 0.19673 0.48151 0.26735 0.0
C2962 C 0.15911 0.4938 0.27227 0.0
C2963 C 0.1732 0.52096 0.26776 0.0
C2964 C 0.19851 0.52775 0.26281 0.0
H2965 H 0.19464 0.69536 0.26747 0.0
H2966 H 0.19413 0.64787 0.26546 0.0
C2967 C 0.21005 0.50814 0.26257 0.0
C2968 C 0.16375 0.54379 0.26892 0.0
H2969 H 0.14728 0.59156 0.25825 0.0
C2970 C 0.16478 0.55485 0.27704 0.0
C2971 C 0.1563 0.55646 0.2621 0.0
C2972 C 0.15309 0.5444 0.25332 0.0
C2973 C 0.1603 0.57939 0.27845 0.0
C2974 C 0.15431 0.59297 0.27157 0.0
C2975 C 0.15199 0.58112 0.26351 0.0
C2976 C 0.15315 0.62112 0.27253 0.0
C2977 C 0.16361 0.59166 0.28722 0.0
C2978 C 0.13002 0.62169 0.2771 0.0
C2979 C 0.13022 0.64891 0.27828 0.0
C2980 C 0.15359 0.67592 0.2749 0.0
C2981 C 0.17638 0.67503 0.2702 0.0
C2982 C 0.17609 0.64789 0.26901 0.0
H2983 H 0.17279 0.58145 0.29163 0.0
H2984 H 0.17872 0.61653 0.28725 0.0
H2985 H 0.14119 0.58677 0.28956 0.0
H2986 H 0.11195 0.60115 0.2798 0.0
H2987 H 0.11227 0.64882 0.2819 0.0
H2988 H 0.55944 0.68926 0.28476 0.0
H2989 H 0.52091 0.63583 0.28429 0.0
H2990 H 0.47651 0.6538 0.26399 0.0
H2991 H 0.51512 0.70695 0.2643 0.0
H2992 H 0.46307 0.61694 0.28784 0.0
H2993 H 0.4689 0.57522 0.2564 0.0
H2994 H 0.4993 0.60982 0.26066 0.0
H2995 H 0.46741 0.60943 0.25575 0.0
C2996 C 0.54196 0.68171 0.28004 0.0
C2997 C 0.54022 0.70245 0.27462 0.0
C2998 C 0.51993 0.65114 0.27978 0.0
C2999 C 0.4959 0.64074 0.27408 0.0
C3000 C 0.49514 0.66111 0.26834 0.0
H3001 H 0.31047 0.51217 0.27948 0.0
H3002 H 0.36166 0.55533 0.27937 0.0
C3003 C 0.51719 0.69162 0.26856 0.0
C3004 C 0.46953 0.60988 0.27487 0.0
H3005 H 0.42064 0.54801 0.2635 0.0
C3006 C 0.45413 0.60163 0.28255 0.0
C3007 C 0.45799 0.58972 0.26801 0.0
C3008 C 0.47447 0.59638 0.25977 0.0
C3009 C 0.42667 0.57458 0.28343 0.0
C3010 C 0.41398 0.55556 0.2764 0.0
C3011 C 0.43019 0.56288 0.26885 0.0
C3012 C 0.38312 0.52905 0.27663 0.0
C3013 C 0.41123 0.56689 0.29185 0.0
C3014 C 0.37816 0.5 0.27496 0.0
C3015 C 0.34883 0.47521 0.27498 0.0
C3016 C 0.32396 0.47912 0.2766 0.0
C3017 C 0.32909 0.5083 0.27825 0.0
C3018 C 0.35836 0.53301 0.27824 0.0
H3019 H 0.42762 0.57831 0.29702 0.0
H3020 H 0.39449 0.57462 0.29205 0.0
H3021 H 0.39919 0.54217 0.29298 0.0
H3022 H 0.39698 0.49653 0.27365 0.0
H3023 H 0.34565 0.45305 0.27365 0.0
H3024 H 0.49137 0.8298 0.28999 0.0
H3025 H 0.44629 0.83306 0.28671 0.0
H3026 H 0.44732 0.80394 0.26144 0.0
H3027 H 0.49208 0.80034 0.26465 0.0
H3028 H 0.43593 0.8666 0.27364 0.0
H3029 H 0.36275 0.74226 0.2706 0.0
H3030 H 0.39929 0.75948 0.27558 0.0
H3031 H 0.3965 0.75864 0.26436 0.0
C3032 C 0.48204 0.82414 0.28373 0.0
C3033 C 0.49514 0.81451 0.27761 0.0
C3034 C 0.45638 0.82613 0.28186 0.0
C3035 C 0.44334 0.81839 0.27387 0.0
C3036 C 0.45682 0.80958 0.26768 0.0
H3037 H 0.27263 0.78801 0.2541 0.0
H3038 H 0.32471 0.79867 0.25513 0.0
C3039 C 0.48243 0.80759 0.26954 0.0
C3040 C 0.41504 0.81849 0.27205 0.0
H3041 H 0.34093 0.77195 0.26717 0.0
C3042 C 0.41512 0.84596 0.27222 0.0
C3043 C 0.38801 0.7915 0.27019 0.0
C3044 C 0.38639 0.76123 0.27023 0.0
C3045 C 0.3888 0.84715 0.27049 0.0
C3046 C 0.36171 0.8201 0.26869 0.0
C3047 C 0.36178 0.79271 0.26848 0.0
C3048 C 0.3325 0.81906 0.26742 0.0
C3049 C 0.39033 0.87736 0.27049 0.0
C3050 C 0.3199 0.82782 0.27388 0.0
C3051 C 0.29017 0.8219 0.27329 0.0
C3052 C 0.27238 0.80674 0.26627 0.0
C3053 C 0.28566 0.79961 0.2596 0.0
C3054 C 0.31542 0.80566 0.26018 0.0
H3055 H 0.41372 0.89611 0.26941 0.0
H3056 H 0.37535 0.87832 0.26562 0.0
H3057 H 0.38284 0.88101 0.27668 0.0
H3058 H 0.33241 0.83764 0.27959 0.0
H3059 H 0.28064 0.82762 0.27855 0.0
loop_
_geom_bond_atom_site_label_1
_geom_bond_atom_site_label_2
_geom_bond_distance
_geom_bond_site_symmetry_2
_ccdc_geom_bond_type
C0 O1 1.160 . S
C0 O7 1.185 . S
O1 C0 1.160 . S
O2 Zn3 1.899 . S
O2 C10 1.284 . S
Zn3 O2 1.899 . S
Zn3 O4 2.032 . S
Zn3 O7 2.086 . S
Zn3 O12 1.977 . S
O4 Zn3 2.032 . S
O4 C8 1.278 . S
C5 O6 1.203 . S
C5 O12 1.267 . S
O6 C5 1.203 . S
O7 C0 1.185 . S
O7 Zn3 2.086 . S
C8 O4 1.278 . S
C8 O9 1.211 . S
O9 C8 1.211 . S
C10 O2 1.284 . S
C10 O11 1.273 . S
O11 C10 1.273 . S
O12 Zn3 1.977 . S
O12 C5 1.267 . S
C13 O14 1.160 . S
C13 O20 1.185 . S
O14 C13 1.160 . S
O15 Zn16 1.899 . S
O15 C23 1.284 . S
Zn16 O15 1.899 . S
Zn16 O17 2.032 . S
Zn16 O20 2.086 . S
Zn16 O25 1.977 . S
O17 Zn16 2.032 . S
O17 C21 1.278 . S
C18 O19 1.203 . S
C18 O25 1.267 . S
O19 C18 1.203 . S
O20 C13 1.185 . S
O20 Zn16 2.086 . S
C21 O17 1.278 . S
C21 O22 1.211 . S
O22 C21 1.211 . S
C23 O15 1.284 . S
C23 O24 1.273 . S
O24 C23 1.273 . S
O25 Zn16 1.977 . S
O25 C18 1.267 . S
C26 O27 1.160 . S
C26 O33 1.185 . S
O27 C26 1.160 . S
O28 Zn29 1.899 . S
O28 C36 1.284 . S
Zn29 O28 1.899 . S
Zn29 O30 2.032 . S
Zn29 O33 2.086 . S
Zn29 O38 1.977 . S
O30 Zn29 2.032 . S
O30 C34 1.278 . S
C31 O32 1.203 . S
C31 O38 1.267 . S
O32 C31 1.203 . S
O33 C26 1.185 . S
O33 Zn29 2.086 . S
C34 O30 1.278 . S
C34 O35 1.211 . S
O35 C34 1.211 . S
C36 O28 1.284 . S
C36 O37 1.273 . S
O37 C36 1.273 . S
O38 Zn29 1.977 . S
O38 C31 1.267 . S
C39 O40 1.160 . S
C39 O46 1.185 . S
O40 C39 1.160 . S
O41 Zn42 1.899 . S
O41 C49 1.284 . S
Zn42 O41 1.899 . S
Zn42 O43 2.032 . S
Zn42 O46 2.086 . S
Zn42 O51 1.977 . S
O43 Zn42 2.032 . S
O43 C47 1.278 . S
C44 O45 1.203 . S
C44 O51 1.267 . S
O45 C44 1.203 . S
O46 C39 1.185 . S
O46 Zn42 2.086 . S
C47 O43 1.278 . S
C47 O48 1.211 . S
O48 C47 1.211 . S
C49 O41 1.284 . S
C49 O50 1.273 . S
O50 C49 1.273 . S
O51 Zn42 1.977 . S
O51 C44 1.267 . S
C52 O53 1.160 . S
C52 O59 1.185 . S
O53 C52 1.160 . S
O54 Zn55 1.899 . S
O54 C62 1.284 . S
Zn55 O54 1.899 . S
Zn55 O56 2.032 . S
Zn55 O59 2.086 . S
Zn55 O64 1.977 . S
O56 Zn55 2.032 . S
O56 C60 1.278 . S
C57 O58 1.203 . S
C57 O64 1.267 . S
O58 C57 1.203 . S
O59 C52 1.185 . S
O59 Zn55 2.086 . S
C60 O56 1.278 . S
C60 O61 1.211 . S
O61 C60 1.211 . S
C62 O54 1.284 . S
C62 O63 1.273 . S
O63 C62 1.273 . S
O64 Zn55 1.977 . S
O64 C57 1.267 . S
C65 O66 1.160 . S
C65 O72 1.185 . S
O66 C65 1.160 . S
O67 Zn68 1.899 . S
O67 C75 1.284 . S
Zn68 O67 1.899 . S
Zn68 O69 2.032 . S
Zn68 O72 2.086 . S
Zn68 O77 1.977 . S
O69 Zn68 2.032 . S
O69 C73 1.278 . S
C70 O71 1.203 . S
C70 O77 1.267 . S
O71 C70 1.203 . S
O72 C65 1.185 . S
O72 Zn68 2.086 . S
C73 O69 1.278 . S
C73 O74 1.211 . S
O74 C73 1.211 . S
C75 O67 1.284 . S
C75 O76 1.273 . S
O76 C75 1.273 . S
O77 Zn68 1.977 . S
O77 C70 1.267 . S
C78 O79 1.160 . S
C78 O85 1.185 . S
O79 C78 1.160 . S
O80 Zn81 1.899 . S
O80 C88 1.284 . S
Zn81 O80 1.899 . S
Zn81 O82 2.032 . S
Zn81 O85 2.086 . S
Zn81 O90 1.977 . S
O82 Zn81 2.032 . S
O82 C86 1.278 . S
C83 O84 1.203 . S
C83 O90 1.267 . S
O84 C83 1.203 . S
O85 C78 1.185 . S
O85 Zn81 2.086 . S
C86 O82 1.278 . S
C86 O87 1.211 . S
O87 C86 1.211 . S
C88 O80 1.284 . S
C88 O89 1.273 . S
O89 C88 1.273 . S
O90 Zn81 1.977 . S
O90 C83 1.267 . S
C91 O92 1.160 . S
C91 O98 1.185 . S
O92 C91 1.160 . S
O93 Zn94 1.899 . S
O93 C101 1.284 . S
Zn94 O93 1.899 . S
Zn94 O95 2.032 . S
Zn94 O98 2.086 . S
Zn94 O103 1.977 . S
O95 Zn94 2.032 . S
O95 C99 1.278 . S
C96 O97 1.203 . S
C96 O103 1.267 . S
O97 C96 1.203 . S
O98 C91 1.185 . S
O98 Zn94 2.086 . S
C99 O95 1.278 . S
C99 O100 1.211 . S
O100 C99 1.211 . S
C101 O93 1.284 . S
C101 O102 1.273 . S
O102 C101 1.273 . S
O103 Zn94 1.977 . S
O103 C96 1.267 . S
C104 O105 1.160 . S
C104 O111 1.185 . S
O105 C104 1.160 . S
O106 Zn107 1.899 . S
O106 C114 1.284 . S
Zn107 O106 1.899 . S
Zn107 O108 2.032 . S
Zn107 O111 2.086 . S
Zn107 O116 1.977 . S
O108 Zn107 2.032 . S
O108 C112 1.278 . S
C109 O110 1.203 . S
C109 O116 1.267 . S
O110 C109 1.203 . S
O111 C104 1.185 . S
O111 Zn107 2.086 . S
C112 O108 1.278 . S
C112 O113 1.211 . S
O113 C112 1.211 . S
C114 O106 1.284 . S
C114 O115 1.273 . S
O115 C114 1.273 . S
O116 Zn107 1.977 . S
O116 C109 1.267 . S
C117 O118 1.160 . S
C117 O124 1.185 . S
O118 C117 1.160 . S
O119 Zn120 1.899 . S
O119 C127 1.284 . S
Zn120 O119 1.899 . S
Zn120 O121 2.032 . S
Zn120 O124 2.086 . S
Zn120 O129 1.977 . S
O121 Zn120 2.032 . S
O121 C125 1.278 . S
C122 O123 1.203 . S
C122 O129 1.267 . S
O123 C122 1.203 . S
O124 C117 1.185 . S
O124 Zn120 2.086 . S
C125 O121 1.278 . S
C125 O126 1.211 . S
O126 C125 1.211 . S
C127 O119 1.284 . S
C127 O128 1.273 . S
O128 C127 1.273 . S
O129 Zn120 1.977 . S
O129 C122 1.267 . S
C130 O131 1.160 . S
C130 O137 1.185 . S
O131 C130 1.160 . S
O132 Zn133 1.899 . S
O132 C140 1.284 . S
Zn133 O132 1.899 . S
Zn133 O134 2.032 . S
Zn133 O137 2.086 . S
Zn133 O142 1.977 . S
O134 Zn133 2.032 . S
O134 C138 1.278 . S
C135 O136 1.203 . S
C135 O142 1.267 . S
O136 C135 1.203 . S
O137 C130 1.185 . S
O137 Zn133 2.086 . S
C138 O134 1.278 . S
C138 O139 1.211 . S
O139 C138 1.211 . S
C140 O132 1.284 . S
C140 O141 1.273 . S
O141 C140 1.273 . S
O142 Zn133 1.977 . S
O142 C135 1.267 . S
C143 O144 1.160 . S
C143 O150 1.185 . S
O144 C143 1.160 . S
O145 Zn146 1.899 . S
O145 C153 1.284 . S
Zn146 O145 1.899 . S
Zn146 O147 2.032 . S
Zn146 O150 2.086 . S
Zn146 O155 1.977 . S
O147 Zn146 2.032 . S
O147 C151 1.278 . S
C148 O149 1.203 . S
C148 O155 1.267 . S
O149 C148 1.203 . S
O150 C143 1.185 . S
O150 Zn146 2.086 . S
C151 O147 1.278 . S
C151 O152 1.211 . S
O152 C151 1.211 . S
C153 O145 1.284 . S
C153 O154 1.273 . S
O154 C153 1.273 . S
O155 Zn146 1.977 . S
O155 C148 1.267 . S
C156 O157 1.160 . S
C156 O163 1.185 . S
O157 C156 1.160 . S
O158 Zn159 1.899 . S
O158 C166 1.284 . S
Zn159 O158 1.899 . S
Zn159 O160 2.032 . S
Zn159 O163 2.086 . S
Zn159 O168 1.977 . S
O160 Zn159 2.032 . S
O160 C164 1.278 . S
C161 O162 1.203 . S
C161 O168 1.267 . S
O162 C161 1.203 . S
O163 C156 1.185 . S
O163 Zn159 2.086 . S
C164 O160 1.278 . S
C164 O165 1.211 . S
O165 C164 1.211 . S
C166 O158 1.284 . S
C166 O167 1.273 . S
O167 C166 1.273 . S
O168 Zn159 1.977 . S
O168 C161 1.267 . S
C169 O170 1.160 . S
C169 O176 1.185 . S
O170 C169 1.160 . S
O171 Zn172 1.899 . S
O171 C179 1.284 . S
Zn172 O171 1.899 . S
Zn172 O173 2.032 . S
Zn172 O176 2.086 . S
Zn172 O181 1.977 . S
O173 Zn172 2.032 . S
O173 C177 1.278 . S
C174 O175 1.203 . S
C174 O181 1.267 . S
O175 C174 1.203 . S
O176 C169 1.185 . S
O176 Zn172 2.086 . S
C177 O173 1.278 . S
C177 O178 1.211 . S
O178 C177 1.211 . S
C179 O171 1.284 . S
C179 O180 1.273 . S
O180 C179 1.273 . S
O181 Zn172 1.977 . S
O181 C174 1.267 . S
C182 O183 1.160 . S
C182 O189 1.185 . S
O183 C182 1.160 . S
O184 Zn185 1.899 . S
O184 C192 1.284 . S
Zn185 O184 1.899 . S
Zn185 O186 2.032 . S
Zn185 O189 2.086 . S
Zn185 O194 1.977 . S
O186 Zn185 2.032 . S
O186 C190 1.278 . S
C187 O188 1.203 . S
C187 O194 1.267 . S
O188 C187 1.203 . S
O189 C182 1.185 . S
O189 Zn185 2.086 . S
C190 O186 1.278 . S
C190 O191 1.211 . S
O191 C190 1.211 . S
C192 O184 1.284 . S
C192 O193 1.273 . S
O193 C192 1.273 . S
O194 Zn185 1.977 . S
O194 C187 1.267 . S
C195 O196 1.160 . S
C195 O202 1.185 . S
O196 C195 1.160 . S
O197 Zn198 1.899 . S
O197 C205 1.284 . S
Zn198 O197 1.899 . S
Zn198 O199 2.032 . S
Zn198 O202 2.086 . S
Zn198 O207 1.977 . S
O199 Zn198 2.032 . S
O199 C203 1.278 . S
C200 O201 1.203 . S
C200 O207 1.267 . S
O201 C200 1.203 . S
O202 C195 1.185 . S
O202 Zn198 2.086 . S
C203 O199 1.278 . S
C203 O204 1.211 . S
O204 C203 1.211 . S
C205 O197 1.284 . S
C205 O206 1.273 . S
O206 C205 1.273 . S
O207 Zn198 1.977 . S
O207 C200 1.267 . S
C208 O209 1.160 . S
C208 O215 1.185 . S
O209 C208 1.160 . S
O210 Zn211 1.899 . S
O210 C218 1.284 . S
Zn211 O210 1.899 . S
Zn211 O212 2.032 . S
Zn211 O215 2.086 . S
Zn211 O220 1.977 . S
O212 Zn211 2.032 . S
O212 C216 1.278 . S
C213 O214 1.203 . S
C213 O220 1.267 . S
O214 C213 1.203 . S
O215 C208 1.185 . S
O215 Zn211 2.086 . S
C216 O212 1.278 . S
C216 O217 1.211 . S
O217 C216 1.211 . S
C218 O210 1.284 . S
C218 O219 1.273 . S
O219 C218 1.273 . S
O220 Zn211 1.977 . S
O220 C213 1.267 . S
C221 O222 1.160 . S
C221 O228 1.185 . S
O222 C221 1.160 . S
O223 Zn224 1.899 . S
O223 C231 1.284 . S
Zn224 O223 1.899 . S
Zn224 O225 2.032 . S
Zn224 O228 2.086 . S
Zn224 O233 1.977 . S
O225 Zn224 2.032 . S
O225 C229 1.278 . S
C226 O227 1.203 . S
C226 O233 1.267 . S
O227 C226 1.203 . S
O228 C221 1.185 . S
O228 Zn224 2.086 . S
C229 O225 1.278 . S
C229 O230 1.211 . S
O230 C229 1.211 . S
C231 O223 1.284 . S
C231 O232 1.273 . S
O232 C231 1.273 . S
O233 Zn224 1.977 . S
O233 C226 1.267 . S
C234 O235 1.160 . S
C234 O241 1.185 . S
O235 C234 1.160 . S
O236 Zn237 1.899 . S
O236 C244 1.284 . S
Zn237 O236 1.899 . S
Zn237 O238 2.032 . S
Zn237 O241 2.086 . S
Zn237 O246 1.977 . S
O238 Zn237 2.032 . S
O238 C242 1.278 . S
C239 O240 1.203 . S
C239 O246 1.267 . S
O240 C239 1.203 . S
O241 C234 1.185 . S
O241 Zn237 2.086 . S
C242 O238 1.278 . S
C242 O243 1.211 . S
O243 C242 1.211 . S
C244 O236 1.284 . S
C244 O245 1.273 . S
O245 C244 1.273 . S
O246 Zn237 1.977 . S
O246 C239 1.267 . S
C247 O248 1.160 . S
C247 O254 1.185 . S
O248 C247 1.160 . S
O249 Zn250 1.899 . S
O249 C257 1.284 . S
Zn250 O249 1.899 . S
Zn250 O251 2.032 . S
Zn250 O254 2.086 . S
Zn250 O259 1.977 . S
O251 Zn250 2.032 . S
O251 C255 1.278 . S
C252 O253 1.203 . S
C252 O259 1.267 . S
O253 C252 1.203 . S
O254 C247 1.185 . S
O254 Zn250 2.086 . S
C255 O251 1.278 . S
C255 O256 1.211 . S
O256 C255 1.211 . S
C257 O249 1.284 . S
C257 O258 1.273 . S
O258 C257 1.273 . S
O259 Zn250 1.977 . S
O259 C252 1.267 . S
C260 O261 1.160 . S
C260 O267 1.185 . S
O261 C260 1.160 . S
O262 Zn263 1.899 . S
O262 C270 1.284 . S
Zn263 O262 1.899 . S
Zn263 O264 2.032 . S
Zn263 O267 2.086 . S
Zn263 O272 1.977 . S
O264 Zn263 2.032 . S
O264 C268 1.278 . S
C265 O266 1.203 . S
C265 O272 1.267 . S
O266 C265 1.203 . S
O267 C260 1.185 . S
O267 Zn263 2.086 . S
C268 O264 1.278 . S
C268 O269 1.211 . S
O269 C268 1.211 . S
C270 O262 1.284 . S
C270 O271 1.273 . S
O271 C270 1.273 . S
O272 Zn263 1.977 . S
O272 C265 1.267 . S
C273 O274 1.160 . S
C273 O280 1.185 . S
O274 C273 1.160 . S
O275 Zn276 1.899 . S
O275 C283 1.284 . S
Zn276 O275 1.899 . S
Zn276 O277 2.032 . S
Zn276 O280 2.086 . S
Zn276 O285 1.977 . S
O277 Zn276 2.032 . S
O277 C281 1.278 . S
C278 O279 1.203 . S
C278 O285 1.267 . S
O279 C278 1.203 . S
O280 C273 1.185 . S
O280 Zn276 2.086 . S
C281 O277 1.278 . S
C281 O282 1.211 . S
O282 C281 1.211 . S
C283 O275 1.284 . S
C283 O284 1.273 . S
O284 C283 1.273 . S
O285 Zn276 1.977 . S
O285 C278 1.267 . S
C286 O287 1.160 . S
C286 O293 1.185 . S
O287 C286 1.160 . S
O288 Zn289 1.899 . S
O288 C296 1.284 . S
Zn289 O288 1.899 . S
Zn289 O290 2.032 . S
Zn289 O293 2.086 . S
Zn289 O298 1.977 . S
O290 Zn289 2.032 . S
O290 C294 1.278 . S
C291 O292 1.203 . S
C291 O298 1.267 . S
O292 C291 1.203 . S
O293 C286 1.185 . S
O293 Zn289 2.086 . S
C294 O290 1.278 . S
C294 O295 1.211 . S
O295 C294 1.211 . S
C296 O288 1.284 . S
C296 O297 1.273 . S
O297 C296 1.273 . S
O298 Zn289 1.977 . S
O298 C291 1.267 . S
C299 O300 1.160 . S
C299 O306 1.185 . S
O300 C299 1.160 . S
O301 Zn302 1.899 . S
O301 C309 1.284 . S
Zn302 O301 1.899 . S
Zn302 O303 2.032 . S
Zn302 O306 2.086 . S
Zn302 O311 1.977 . S
O303 Zn302 2.032 . S
O303 C307 1.278 . S
C304 O305 1.203 . S
C304 O311 1.267 . S
O305 C304 1.203 . S
O306 C299 1.185 . S
O306 Zn302 2.086 . S
C307 O303 1.278 . S
C307 O308 1.211 . S
O308 C307 1.211 . S
C309 O301 1.284 . S
C309 O310 1.273 . S
O310 C309 1.273 . S
O311 Zn302 1.977 . S
O311 C304 1.267 . S
C312 O313 1.160 . S
C312 O319 1.185 . S
O313 C312 1.160 . S
O314 Zn315 1.899 . S
O314 C322 1.284 . S
Zn315 O314 1.899 . S
Zn315 O316 2.032 . S
Zn315 O319 2.086 . S
Zn315 O324 1.977 . S
O316 Zn315 2.032 . S
O316 C320 1.278 . S
C317 O318 1.203 . S
C317 O324 1.267 . S
O318 C317 1.203 . S
O319 C312 1.185 . S
O319 Zn315 2.086 . S
C320 O316 1.278 . S
C320 O321 1.211 . S
O321 C320 1.211 . S
C322 O314 1.284 . S
C322 O323 1.273 . S
O323 C322 1.273 . S
O324 Zn315 1.977 . S
O324 C317 1.267 . S
C325 O326 1.160 . S
C325 O332 1.185 . S
O326 C325 1.160 . S
O327 Zn328 1.899 . S
O327 C335 1.284 . S
Zn328 O327 1.899 . S
Zn328 O329 2.032 . S
Zn328 O332 2.086 . S
Zn328 O337 1.977 . S
O329 Zn328 2.032 . S
O329 C333 1.278 . S
C330 O331 1.203 . S
C330 O337 1.267 . S
O331 C330 1.203 . S
O332 C325 1.185 . S
O332 Zn328 2.086 . S
C333 O329 1.278 . S
C333 O334 1.211 . S
O334 C333 1.211 . S
C335 O327 1.284 . S
C335 O336 1.273 . S
O336 C335 1.273 . S
O337 Zn328 1.977 . S
O337 C330 1.267 . S
C338 O339 1.160 . S
C338 O345 1.185 . S
O339 C338 1.160 . S
O340 Zn341 1.899 . S
O340 C348 1.284 . S
Zn341 O340 1.899 . S
Zn341 O342 2.032 . S
Zn341 O345 2.086 . S
Zn341 O350 1.977 . S
O342 Zn341 2.032 . S
O342 C346 1.278 . S
C343 O344 1.203 . S
C343 O350 1.267 . S
O344 C343 1.203 . S
O345 C338 1.185 . S
O345 Zn341 2.086 . S
C346 O342 1.278 . S
C346 O347 1.211 . S
O347 C346 1.211 . S
C348 O340 1.284 . S
C348 O349 1.273 . S
O349 C348 1.273 . S
O350 Zn341 1.977 . S
O350 C343 1.267 . S
C351 O352 1.160 . S
C351 O358 1.185 . S
O352 C351 1.160 . S
O353 Zn354 1.899 . S
O353 C361 1.284 . S
Zn354 O353 1.899 . S
Zn354 O355 2.032 . S
Zn354 O358 2.086 . S
Zn354 O363 1.977 . S
O355 Zn354 2.032 . S
O355 C359 1.278 . S
C356 O357 1.203 . S
C356 O363 1.267 . S
O357 C356 1.203 . S
O358 C351 1.185 . S
O358 Zn354 2.086 . S
C359 O355 1.278 . S
C359 O360 1.211 . S
O360 C359 1.211 . S
C361 O353 1.284 . S
C361 O362 1.273 . S
O362 C361 1.273 . S
O363 Zn354 1.977 . S
O363 C356 1.267 . S
C364 O365 1.160 . S
C364 O371 1.185 . S
O365 C364 1.160 . S
O366 Zn367 1.899 . S
O366 C374 1.284 . S
Zn367 O366 1.899 . S
Zn367 O368 2.032 . S
Zn367 O371 2.086 . S
Zn367 O376 1.977 . S
O368 Zn367 2.032 . S
O368 C372 1.278 . S
C369 O370 1.203 . S
C369 O376 1.267 . S
O370 C369 1.203 . S
O371 C364 1.185 . S
O371 Zn367 2.086 . S
C372 O368 1.278 . S
C372 O373 1.211 . S
O373 C372 1.211 . S
C374 O366 1.284 . S
C374 O375 1.273 . S
O375 C374 1.273 . S
O376 Zn367 1.977 . S
O376 C369 1.267 . S
C377 O378 1.160 . S
C377 O384 1.185 . S
O378 C377 1.160 . S
O379 Zn380 1.899 . S
O379 C387 1.284 . S
Zn380 O379 1.899 . S
Zn380 O381 2.032 . S
Zn380 O384 2.086 . S
Zn380 O389 1.977 . S
O381 Zn380 2.032 . S
O381 C385 1.278 . S
C382 O383 1.203 . S
C382 O389 1.267 . S
O383 C382 1.203 . S
O384 C377 1.185 . S
O384 Zn380 2.086 . S
C385 O381 1.278 . S
C385 O386 1.211 . S
O386 C385 1.211 . S
C387 O379 1.284 . S
C387 O388 1.273 . S
O388 C387 1.273 . S
O389 Zn380 1.977 . S
O389 C382 1.267 . S
C390 O391 1.160 . S
C390 O397 1.185 . S
O391 C390 1.160 . S
O392 Zn393 1.899 . S
O392 C400 1.284 . S
Zn393 O392 1.899 . S
Zn393 O394 2.032 . S
Zn393 O397 2.086 . S
Zn393 O402 1.977 . S
O394 Zn393 2.032 . S
O394 C398 1.278 . S
C395 O396 1.203 . S
C395 O402 1.267 . S
O396 C395 1.203 . S
O397 C390 1.185 . S
O397 Zn393 2.086 . S
C398 O394 1.278 . S
C398 O399 1.211 . S
O399 C398 1.211 . S
C400 O392 1.284 . S
C400 O401 1.273 . S
O401 C400 1.273 . S
O402 Zn393 1.977 . S
O402 C395 1.267 . S
C403 O404 1.160 . S
C403 O410 1.185 . S
O404 C403 1.160 . S
O405 Zn406 1.899 . S
O405 C413 1.284 . S
Zn406 O405 1.899 . S
Zn406 O407 2.032 . S
Zn406 O410 2.086 . S
Zn406 O415 1.977 . S
O407 Zn406 2.032 . S
O407 C411 1.278 . S
C408 O409 1.203 . S
C408 O415 1.267 . S
O409 C408 1.203 . S
O410 C403 1.185 . S
O410 Zn406 2.086 . S
C411 O407 1.278 . S
C411 O412 1.211 . S
O412 C411 1.211 . S
C413 O405 1.284 . S
C413 O414 1.273 . S
O414 C413 1.273 . S
O415 Zn406 1.977 . S
O415 C408 1.267 . S
C416 O417 1.160 . S
C416 O423 1.185 . S
O417 C416 1.160 . S
O418 Zn419 1.899 . S
O418 C426 1.284 . S
Zn419 O418 1.899 . S
Zn419 O420 2.032 . S
Zn419 O423 2.086 . S
Zn419 O428 1.977 . S
O420 Zn419 2.032 . S
O420 C424 1.278 . S
C421 O422 1.203 . S
C421 O428 1.267 . S
O422 C421 1.203 . S
O423 C416 1.185 . S
O423 Zn419 2.086 . S
C424 O420 1.278 . S
C424 O425 1.211 . S
O425 C424 1.211 . S
C426 O418 1.284 . S
C426 O427 1.273 . S
O427 C426 1.273 . S
O428 Zn419 1.977 . S
O428 C421 1.267 . S
C429 O430 1.160 . S
C429 O436 1.185 . S
O430 C429 1.160 . S
O431 Zn432 1.899 . S
O431 C439 1.284 . S
Zn432 O431 1.899 . S
Zn432 O433 2.032 . S
Zn432 O436 2.086 . S
Zn432 O441 1.977 . S
O433 Zn432 2.032 . S
O433 C437 1.278 . S
C434 O435 1.203 . S
C434 O441 1.267 . S
O435 C434 1.203 . S
O436 C429 1.185 . S
O436 Zn432 2.086 . S
C437 O433 1.278 . S
C437 O438 1.211 . S
O438 C437 1.211 . S
C439 O431 1.284 . S
C439 O440 1.273 . S
O440 C439 1.273 . S
O441 Zn432 1.977 . S
O441 C434 1.267 . S
C442 O443 1.160 . S
C442 O449 1.185 . S
O443 C442 1.160 . S
O444 Zn445 1.899 . S
O444 C452 1.284 . S
Zn445 O444 1.899 . S
Zn445 O446 2.032 . S
Zn445 O449 2.086 . S
Zn445 O454 1.977 . S
O446 Zn445 2.032 . S
O446 C450 1.278 . S
C447 O448 1.203 . S
C447 O454 1.267 . S
O448 C447 1.203 . S
O449 C442 1.185 . S
O449 Zn445 2.086 . S
C450 O446 1.278 . S
C450 O451 1.211 . S
O451 C450 1.211 . S
C452 O444 1.284 . S
C452 O453 1.273 . S
O453 C452 1.273 . S
O454 Zn445 1.977 . S
O454 C447 1.267 . S
C455 O456 1.160 . S
C455 O462 1.185 . S
O456 C455 1.160 . S
O457 Zn458 1.899 . S
O457 C465 1.284 . S
Zn458 O457 1.899 . S
Zn458 O459 2.032 . S
Zn458 O462 2.086 . S
Zn458 O467 1.977 . S
O459 Zn458 2.032 . S
O459 C463 1.278 . S
C460 O461 1.203 . S
C460 O467 1.267 . S
O461 C460 1.203 . S
O462 C455 1.185 . S
O462 Zn458 2.086 . S
C463 O459 1.278 . S
C463 O464 1.211 . S
O464 C463 1.211 . S
C465 O457 1.284 . S
C465 O466 1.273 . S
O466 C465 1.273 . S
O467 Zn458 1.977 . S
O467 C460 1.267 . S
H468 C476 0.929 . S
H469 C478 0.930 . S
H470 C480 0.930 . S
H471 C483 0.929 . S
H472 C486 0.930 . S
H473 C488 0.960 . S
H474 C488 0.960 . S
H475 C488 0.960 . S
C476 H468 0.929 . S
C476 C477 1.377 . S
C476 C478 1.384 . S
C477 C476 1.377 . S
C477 C483 1.390 . S
C478 H469 0.930 . S
C478 C476 1.384 . S
C478 C479 1.372 . S
C479 C478 1.372 . S
C479 C480 1.400 . S
C479 C484 1.490 . S
C480 H470 0.930 . S
C480 C479 1.400 . S
C480 C483 1.386 . S
H481 C497 0.930 . S
H482 C498 0.931 . S
C483 H471 0.929 . S
C483 C477 1.390 . S
C483 C480 1.386 . S
C484 C479 1.490 . S
C484 C486 1.395 . S
C484 C487 1.403 . S
H485 C491 0.930 . S
C486 H472 0.930 . S
C486 C484 1.395 . S
C486 C489 1.403 . S
C487 C484 1.403 . S
C487 C488 1.524 . S
C487 C491 1.400 . S
C488 H473 0.960 . S
C488 H474 0.960 . S
C488 H475 0.960 . S
C488 C487 1.524 . S
C489 C486 1.403 . S
C489 C490 1.392 . S
C489 C493 1.495 . S
C490 C489 1.392 . S
C490 C491 1.385 . S
C490 C492 1.478 . S
C491 H485 0.930 . S
C491 C487 1.400 . S
C491 C490 1.385 . S
C492 C490 1.478 . S
C492 C494 1.381 . S
C492 C498 1.383 . S
C493 C489 1.495 . S
C493 H499 0.959 . S
C493 H500 0.961 . S
C493 H501 0.960 . S
C494 C492 1.381 . S
C494 C495 1.394 . S
C494 H502 0.930 . S
C495 C494 1.394 . S
C495 C496 1.383 . S
C495 H503 0.929 . S
C496 C495 1.383 . S
C496 C497 1.377 . S
C497 H481 0.930 . S
C497 C496 1.377 . S
C497 C498 1.379 . S
C498 H482 0.931 . S
C498 C492 1.383 . S
C498 C497 1.379 . S
H499 C493 0.959 . S
H500 C493 0.961 . S
H501 C493 0.960 . S
H502 C494 0.930 . S
H503 C495 0.929 . S
H504 C512 0.929 . S
H505 C514 0.930 . S
H506 C516 0.930 . S
H507 C519 0.929 . S
H508 C522 0.930 . S
H509 C524 0.960 . S
H510 C524 0.960 . S
H511 C524 0.960 . S
C512 H504 0.929 . S
C512 C513 1.377 . S
C512 C514 1.384 . S
C513 C512 1.377 . S
C513 C519 1.390 . S
C514 H505 0.930 . S
C514 C512 1.384 . S
C514 C515 1.372 . S
C515 C514 1.372 . S
C515 C516 1.400 . S
C515 C520 1.490 . S
C516 H506 0.930 . S
C516 C515 1.400 . S
C516 C519 1.386 . S
H517 C533 0.930 . S
H518 C534 0.931 . S
C519 H507 0.929 . S
C519 C513 1.390 . S
C519 C516 1.386 . S
C520 C515 1.490 . S
C520 C522 1.395 . S
C520 C523 1.403 . S
H521 C527 0.930 . S
C522 H508 0.930 . S
C522 C520 1.395 . S
C522 C525 1.403 . S
C523 C520 1.403 . S
C523 C524 1.524 . S
C523 C527 1.400 . S
C524 H509 0.960 . S
C524 H510 0.960 . S
C524 H511 0.960 . S
C524 C523 1.524 . S
C525 C522 1.403 . S
C525 C526 1.392 . S
C525 C529 1.495 . S
C526 C525 1.392 . S
C526 C527 1.385 . S
C526 C528 1.478 . S
C527 H521 0.930 . S
C527 C523 1.400 . S
C527 C526 1.385 . S
C528 C526 1.478 . S
C528 C530 1.381 . S
C528 C534 1.383 . S
C529 C525 1.495 . S
C529 H535 0.959 . S
C529 H536 0.961 . S
C529 H537 0.960 . S
C530 C528 1.381 . S
C530 C531 1.394 . S
C530 H538 0.930 . S
C531 C530 1.394 . S
C531 C532 1.383 . S
C531 H539 0.929 . S
C532 C531 1.383 . S
C532 C533 1.377 . S
C533 H517 0.930 . S
C533 C532 1.377 . S
C533 C534 1.379 . S
C534 H518 0.931 . S
C534 C528 1.383 . S
C534 C533 1.379 . S
H535 C529 0.959 . S
H536 C529 0.961 . S
H537 C529 0.960 . S
H538 C530 0.930 . S
H539 C531 0.929 . S
H540 C548 0.929 . S
H541 C550 0.930 . S
H542 C552 0.930 . S
H543 C555 0.929 . S
H544 C558 0.930 . S
H545 C560 0.960 . S
H546 C560 0.960 . S
H547 C560 0.960 . S
C548 H540 0.929 . S
C548 C549 1.377 . S
C548 C550 1.384 . S
C549 C548 1.377 . S
C549 C555 1.390 . S
C550 H541 0.930 . S
C550 C548 1.384 . S
C550 C551 1.372 . S
C551 C550 1.372 . S
C551 C552 1.400 . S
C551 C556 1.490 . S
C552 H542 0.930 . S
C552 C551 1.400 . S
C552 C555 1.386 . S
H553 C569 0.930 . S
H554 C570 0.931 . S
C555 H543 0.929 . S
C555 C549 1.390 . S
C555 C552 1.386 . S
C556 C551 1.490 . S
C556 C558 1.395 . S
C556 C559 1.403 . S
H557 C563 0.930 . S
C558 H544 0.930 . S
C558 C556 1.395 . S
C558 C561 1.403 . S
C559 C556 1.403 . S
C559 C560 1.524 . S
C559 C563 1.400 . S
C560 H545 0.960 . S
C560 H546 0.960 . S
C560 H547 0.960 . S
C560 C559 1.524 . S
C561 C558 1.403 . S
C561 C562 1.392 . S
C561 C565 1.495 . S
C562 C561 1.392 . S
C562 C563 1.385 . S
C562 C564 1.478 . S
C563 H557 0.930 . S
C563 C559 1.400 . S
C563 C562 1.385 . S
C564 C562 1.478 . S
C564 C566 1.381 . S
C564 C570 1.383 . S
C565 C561 1.495 . S
C565 H571 0.959 . S
C565 H572 0.961 . S
C565 H573 0.960 . S
C566 C564 1.381 . S
C566 C567 1.394 . S
C566 H574 0.930 . S
C567 C566 1.394 . S
C567 C568 1.383 . S
C567 H575 0.929 . S
C568 C567 1.383 . S
C568 C569 1.377 . S
C569 H553 0.930 . S
C569 C568 1.377 . S
C569 C570 1.379 . S
C570 H554 0.931 . S
C570 C564 1.383 . S
C570 C569 1.379 . S
H571 C565 0.959 . S
H572 C565 0.961 . S
H573 C565 0.960 . S
H574 C566 0.930 . S
H575 C567 0.929 . S
H576 C584 0.929 . S
H577 C586 0.930 . S
H578 C588 0.930 . S
H579 C591 0.929 . S
H580 C594 0.930 . S
H581 C596 0.960 . S
H582 C596 0.960 . S
H583 C596 0.960 . S
C584 H576 0.929 . S
C584 C585 1.377 . S
C584 C586 1.384 . S
C585 C584 1.377 . S
C585 C591 1.390 . S
C586 H577 0.930 . S
C586 C584 1.384 . S
C586 C587 1.372 . S
C587 C586 1.372 . S
C587 C588 1.400 . S
C587 C592 1.490 . S
C588 H578 0.930 . S
C588 C587 1.400 . S
C588 C591 1.386 . S
H589 C605 0.930 . S
H590 C606 0.931 . S
C591 H579 0.929 . S
C591 C585 1.390 . S
C591 C588 1.386 . S
C592 C587 1.490 . S
C592 C594 1.395 . S
C592 C595 1.403 . S
H593 C599 0.930 . S
C594 H580 0.930 . S
C594 C592 1.395 . S
C594 C597 1.403 . S
C595 C592 1.403 . S
C595 C596 1.524 . S
C595 C599 1.400 . S
C596 H581 0.960 . S
C596 H582 0.960 . S
C596 H583 0.960 . S
C596 C595 1.524 . S
C597 C594 1.403 . S
C597 C598 1.392 . S
C597 C601 1.495 . S
C598 C597 1.392 . S
C598 C599 1.385 . S
C598 C600 1.478 . S
C599 H593 0.930 . S
C599 C595 1.400 . S
C599 C598 1.385 . S
C600 C598 1.478 . S
C600 C602 1.381 . S
C600 C606 1.383 . S
C601 C597 1.495 . S
C601 H607 0.959 . S
C601 H608 0.961 . S
C601 H609 0.960 . S
C602 C600 1.381 . S
C602 C603 1.394 . S
C602 H610 0.930 . S
C603 C602 1.394 . S
C603 C604 1.383 . S
C603 H611 0.929 . S
C604 C603 1.383 . S
C604 C605 1.377 . S
C605 H589 0.930 . S
C605 C604 1.377 . S
C605 C606 1.379 . S
C606 H590 0.931 . S
C606 C600 1.383 . S
C606 C605 1.379 . S
H607 C601 0.959 . S
H608 C601 0.961 . S
H609 C601 0.960 . S
H610 C602 0.930 . S
H611 C603 0.929 . S
H612 C620 0.929 . S
H613 C622 0.930 . S
H614 C624 0.930 . S
H615 C627 0.929 . S
H616 C630 0.930 . S
H617 C632 0.960 . S
H618 C632 0.960 . S
H619 C632 0.960 . S
C620 H612 0.929 . S
C620 C621 1.377 . S
C620 C622 1.384 . S
C621 C620 1.377 . S
C621 C627 1.390 . S
C622 H613 0.930 . S
C622 C620 1.384 . S
C622 C623 1.372 . S
C623 C622 1.372 . S
C623 C624 1.400 . S
C623 C628 1.490 . S
C624 H614 0.930 . S
C624 C623 1.400 . S
C624 C627 1.386 . S
H625 C641 0.930 . S
H626 C642 0.931 . S
C627 H615 0.929 . S
C627 C621 1.390 . S
C627 C624 1.386 . S
C628 C623 1.490 . S
C628 C630 1.395 . S
C628 C631 1.403 . S
H629 C635 0.930 . S
C630 H616 0.930 . S
C630 C628 1.395 . S
C630 C633 1.403 . S
C631 C628 1.403 . S
C631 C632 1.524 . S
C631 C635 1.400 . S
C632 H617 0.960 . S
C632 H618 0.960 . S
C632 H619 0.960 . S
C632 C631 1.524 . S
C633 C630 1.403 . S
C633 C634 1.392 . S
C633 C637 1.495 . S
C634 C633 1.392 . S
C634 C635 1.385 . S
C634 C636 1.478 . S
C635 H629 0.930 . S
C635 C631 1.400 . S
C635 C634 1.385 . S
C636 C634 1.478 . S
C636 C638 1.381 . S
C636 C642 1.383 . S
C637 C633 1.495 . S
C637 H643 0.959 . S
C637 H644 0.961 . S
C637 H645 0.960 . S
C638 C636 1.381 . S
C638 C639 1.394 . S
C638 H646 0.930 . S
C639 C638 1.394 . S
C639 C640 1.383 . S
C639 H647 0.929 . S
C640 C639 1.383 . S
C640 C641 1.377 . S
C641 H625 0.930 . S
C641 C640 1.377 . S
C641 C642 1.379 . S
C642 H626 0.931 . S
C642 C636 1.383 . S
C642 C641 1.379 . S
H643 C637 0.959 . S
H644 C637 0.961 . S
H645 C637 0.960 . S
H646 C638 0.930 . S
H647 C639 0.929 . S
H648 C656 0.929 . S
H649 C658 0.930 . S
H650 C660 0.930 . S
H651 C663 0.929 . S
H652 C666 0.930 . S
H653 C668 0.960 . S
H654 C668 0.960 . S
H655 C668 0.960 . S
C656 H648 0.929 . S
C656 C657 1.377 . S
C656 C658 1.384 . S
C657 C656 1.377 . S
C657 C663 1.390 . S
C658 H649 0.930 . S
C658 C656 1.384 . S
C658 C659 1.372 . S
C659 C658 1.372 . S
C659 C660 1.400 . S
C659 C664 1.490 . S
C660 H650 0.930 . S
C660 C659 1.400 . S
C660 C663 1.386 . S
H661 C677 0.930 . S
H662 C678 0.931 . S
C663 H651 0.929 . S
C663 C657 1.390 . S
C663 C660 1.386 . S
C664 C659 1.490 . S
C664 C666 1.395 . S
C664 C667 1.403 . S
H665 C671 0.930 . S
C666 H652 0.930 . S
C666 C664 1.395 . S
C666 C669 1.403 . S
C667 C664 1.403 . S
C667 C668 1.524 . S
C667 C671 1.400 . S
C668 H653 0.960 . S
C668 H654 0.960 . S
C668 H655 0.960 . S
C668 C667 1.524 . S
C669 C666 1.403 . S
C669 C670 1.392 . S
C669 C673 1.495 . S
C670 C669 1.392 . S
C670 C671 1.385 . S
C670 C672 1.478 . S
C671 H665 0.930 . S
C671 C667 1.400 . S
C671 C670 1.385 . S
C672 C670 1.478 . S
C672 C674 1.381 . S
C672 C678 1.383 . S
C673 C669 1.495 . S
C673 H679 0.959 . S
C673 H680 0.961 . S
C673 H681 0.960 . S
C674 C672 1.381 . S
C674 C675 1.394 . S
C674 H682 0.930 . S
C675 C674 1.394 . S
C675 C676 1.383 . S
C675 H683 0.929 . S
C676 C675 1.383 . S
C676 C677 1.377 . S
C677 H661 0.930 . S
C677 C676 1.377 . S
C677 C678 1.379 . S
C678 H662 0.931 . S
C678 C672 1.383 . S
C678 C677 1.379 . S
H679 C673 0.959 . S
H680 C673 0.961 . S
H681 C673 0.960 . S
H682 C674 0.930 . S
H683 C675 0.929 . S
H684 C692 0.929 . S
H685 C694 0.930 . S
H686 C696 0.930 . S
H687 C699 0.929 . S
H688 C702 0.930 . S
H689 C704 0.960 . S
H690 C704 0.960 . S
H691 C704 0.960 . S
C692 H684 0.929 . S
C692 C693 1.377 . S
C692 C694 1.384 . S
C693 C692 1.377 . S
C693 C699 1.390 . S
C694 H685 0.930 . S
C694 C692 1.384 . S
C694 C695 1.372 . S
C695 C694 1.372 . S
C695 C696 1.400 . S
C695 C700 1.490 . S
C696 H686 0.930 . S
C696 C695 1.400 . S
C696 C699 1.386 . S
H697 C713 0.930 . S
H698 C714 0.931 . S
C699 H687 0.929 . S
C699 C693 1.390 . S
C699 C696 1.386 . S
C700 C695 1.490 . S
C700 C702 1.395 . S
C700 C703 1.403 . S
H701 C707 0.930 . S
C702 H688 0.930 . S
C702 C700 1.395 . S
C702 C705 1.403 . S
C703 C700 1.403 . S
C703 C704 1.524 . S
C703 C707 1.400 . S
C704 H689 0.960 . S
C704 H690 0.960 . S
C704 H691 0.960 . S
C704 C703 1.524 . S
C705 C702 1.403 . S
C705 C706 1.392 . S
C705 C709 1.495 . S
C706 C705 1.392 . S
C706 C707 1.385 . S
C706 C708 1.478 . S
C707 H701 0.930 . S
C707 C703 1.400 . S
C707 C706 1.385 . S
C708 C706 1.478 . S
C708 C710 1.381 . S
C708 C714 1.383 . S
C709 C705 1.495 . S
C709 H715 0.959 . S
C709 H716 0.961 . S
C709 H717 0.960 . S
C710 C708 1.381 . S
C710 C711 1.394 . S
C710 H718 0.930 . S
C711 C710 1.394 . S
C711 C712 1.383 . S
C711 H719 0.929 . S
C712 C711 1.383 . S
C712 C713 1.377 . S
C713 H697 0.930 . S
C713 C712 1.377 . S
C713 C714 1.379 . S
C714 H698 0.931 . S
C714 C708 1.383 . S
C714 C713 1.379 . S
H715 C709 0.959 . S
H716 C709 0.961 . S
H717 C709 0.960 . S
H718 C710 0.930 . S
H719 C711 0.929 . S
H720 C728 0.929 . S
H721 C730 0.930 . S
H722 C732 0.930 . S
H723 C735 0.929 . S
H724 C738 0.930 . S
H725 C740 0.960 . S
H726 C740 0.960 . S
H727 C740 0.960 . S
C728 H720 0.929 . S
C728 C729 1.377 . S
C728 C730 1.384 . S
C729 C728 1.377 . S
C729 C735 1.390 . S
C730 H721 0.930 . S
C730 C728 1.384 . S
C730 C731 1.372 . S
C731 C730 1.372 . S
C731 C732 1.400 . S
C731 C736 1.490 . S
C732 H722 0.930 . S
C732 C731 1.400 . S
C732 C735 1.386 . S
H733 C749 0.930 . S
H734 C750 0.931 . S
C735 H723 0.929 . S
C735 C729 1.390 . S
C735 C732 1.386 . S
C736 C731 1.490 . S
C736 C738 1.395 . S
C736 C739 1.403 . S
H737 C743 0.930 . S
C738 H724 0.930 . S
C738 C736 1.395 . S
C738 C741 1.403 . S
C739 C736 1.403 . S
C739 C740 1.524 . S
C739 C743 1.400 . S
C740 H725 0.960 . S
C740 H726 0.960 . S
C740 H727 0.960 . S
C740 C739 1.524 . S
C741 C738 1.403 . S
C741 C742 1.392 . S
C741 C745 1.495 . S
C742 C741 1.392 . S
C742 C743 1.385 . S
C742 C744 1.478 . S
C743 H737 0.930 . S
C743 C739 1.400 . S
C743 C742 1.385 . S
C744 C742 1.478 . S
C744 C746 1.381 . S
C744 C750 1.383 . S
C745 C741 1.495 . S
C745 H751 0.959 . S
C745 H752 0.961 . S
C745 H753 0.960 . S
C746 C744 1.381 . S
C746 C747 1.394 . S
C746 H754 0.930 . S
C747 C746 1.394 . S
C747 C748 1.383 . S
C747 H755 0.929 . S
C748 C747 1.383 . S
C748 C749 1.377 . S
C749 H733 0.930 . S
C749 C748 1.377 . S
C749 C750 1.379 . S
C750 H734 0.931 . S
C750 C744 1.383 . S
C750 C749 1.379 . S
H751 C745 0.959 . S
H752 C745 0.961 . S
H753 C745 0.960 . S
H754 C746 0.930 . S
H755 C747 0.929 . S
H756 C764 0.929 . S
H757 C766 0.930 . S
H758 C768 0.930 . S
H759 C771 0.929 . S
H760 C774 0.930 . S
H761 C776 0.960 . S
H762 C776 0.960 . S
H763 C776 0.960 . S
C764 H756 0.929 . S
C764 C765 1.377 . S
C764 C766 1.384 . S
C765 C764 1.377 . S
C765 C771 1.390 . S
C766 H757 0.930 . S
C766 C764 1.384 . S
C766 C767 1.372 . S
C767 C766 1.372 . S
C767 C768 1.400 . S
C767 C772 1.490 . S
C768 H758 0.930 . S
C768 C767 1.400 . S
C768 C771 1.386 . S
H769 C785 0.930 . S
H770 C786 0.931 . S
C771 H759 0.929 . S
C771 C765 1.390 . S
C771 C768 1.386 . S
C772 C767 1.490 . S
C772 C774 1.395 . S
C772 C775 1.403 . S
H773 C779 0.930 . S
C774 H760 0.930 . S
C774 C772 1.395 . S
C774 C777 1.403 . S
C775 C772 1.403 . S
C775 C776 1.524 . S
C775 C779 1.400 . S
C776 H761 0.960 . S
C776 H762 0.960 . S
C776 H763 0.960 . S
C776 C775 1.524 . S
C777 C774 1.403 . S
C777 C778 1.392 . S
C777 C781 1.495 . S
C778 C777 1.392 . S
C778 C779 1.385 . S
C778 C780 1.478 . S
C779 H773 0.930 . S
C779 C775 1.400 . S
C779 C778 1.385 . S
C780 C778 1.478 . S
C780 C782 1.381 . S
C780 C786 1.383 . S
C781 C777 1.495 . S
C781 H787 0.959 . S
C781 H788 0.961 . S
C781 H789 0.960 . S
C782 C780 1.381 . S
C782 C783 1.394 . S
C782 H790 0.930 . S
C783 C782 1.394 . S
C783 C784 1.383 . S
C783 H791 0.929 . S
C784 C783 1.383 . S
C784 C785 1.377 . S
C785 H769 0.930 . S
C785 C784 1.377 . S
C785 C786 1.379 . S
C786 H770 0.931 . S
C786 C780 1.383 . S
C786 C785 1.379 . S
H787 C781 0.959 . S
H788 C781 0.961 . S
H789 C781 0.960 . S
H790 C782 0.930 . S
H791 C783 0.929 . S
H792 C800 0.929 . S
H793 C802 0.930 . S
H794 C804 0.930 . S
H795 C807 0.929 . S
H796 C810 0.930 . S
H797 C812 0.960 . S
H798 C812 0.960 . S
H799 C812 0.960 . S
C800 H792 0.929 . S
C800 C801 1.377 . S
C800 C802 1.384 . S
C801 C800 1.377 . S
C801 C807 1.390 . S
C802 H793 0.930 . S
C802 C800 1.384 . S
C802 C803 1.372 . S
C803 C802 1.372 . S
C803 C804 1.400 . S
C803 C808 1.490 . S
C804 H794 0.930 . S
C804 C803 1.400 . S
C804 C807 1.386 . S
H805 C821 0.930 . S
H806 C822 0.931 . S
C807 H795 0.929 . S
C807 C801 1.390 . S
C807 C804 1.386 . S
C808 C803 1.490 . S
C808 C810 1.395 . S
C808 C811 1.403 . S
H809 C815 0.930 . S
C810 H796 0.930 . S
C810 C808 1.395 . S
C810 C813 1.403 . S
C811 C808 1.403 . S
C811 C812 1.524 . S
C811 C815 1.400 . S
C812 H797 0.960 . S
C812 H798 0.960 . S
C812 H799 0.960 . S
C812 C811 1.524 . S
C813 C810 1.403 . S
C813 C814 1.392 . S
C813 C817 1.495 . S
C814 C813 1.392 . S
C814 C815 1.385 . S
C814 C816 1.478 . S
C815 H809 0.930 . S
C815 C811 1.400 . S
C815 C814 1.385 . S
C816 C814 1.478 . S
C816 C818 1.381 . S
C816 C822 1.383 . S
C817 C813 1.495 . S
C817 H823 0.959 . S
C817 H824 0.961 . S
C817 H825 0.960 . S
C818 C816 1.381 . S
C818 C819 1.394 . S
C818 H826 0.930 . S
C819 C818 1.394 . S
C819 C820 1.383 . S
C819 H827 0.929 . S
C820 C819 1.383 . S
C820 C821 1.377 . S
C821 H805 0.930 . S
C821 C820 1.377 . S
C821 C822 1.379 . S
C822 H806 0.931 . S
C822 C816 1.383 . S
C822 C821 1.379 . S
H823 C817 0.959 . S
H824 C817 0.961 . S
H825 C817 0.960 . S
H826 C818 0.930 . S
H827 C819 0.929 . S
H828 C836 0.929 . S
H829 C838 0.930 . S
H830 C840 0.930 . S
H831 C843 0.929 . S
H832 C846 0.930 . S
H833 C848 0.960 . S
H834 C848 0.960 . S
H835 C848 0.960 . S
C836 H828 0.929 . S
C836 C837 1.377 . S
C836 C838 1.384 . S
C837 C836 1.377 . S
C837 C843 1.390 . S
C838 H829 0.930 . S
C838 C836 1.384 . S
C838 C839 1.372 . S
C839 C838 1.372 . S
C839 C840 1.400 . S
C839 C844 1.490 . S
C840 H830 0.930 . S
C840 C839 1.400 . S
C840 C843 1.386 . S
H841 C857 0.930 . S
H842 C858 0.931 . S
C843 H831 0.929 . S
C843 C837 1.390 . S
C843 C840 1.386 . S
C844 C839 1.490 . S
C844 C846 1.395 . S
C844 C847 1.403 . S
H845 C851 0.930 . S
C846 H832 0.930 . S
C846 C844 1.395 . S
C846 C849 1.403 . S
C847 C844 1.403 . S
C847 C848 1.524 . S
C847 C851 1.400 . S
C848 H833 0.960 . S
C848 H834 0.960 . S
C848 H835 0.960 . S
C848 C847 1.524 . S
C849 C846 1.403 . S
C849 C850 1.392 . S
C849 C853 1.495 . S
C850 C849 1.392 . S
C850 C851 1.385 . S
C850 C852 1.478 . S
C851 H845 0.930 . S
C851 C847 1.400 . S
C851 C850 1.385 . S
C852 C850 1.478 . S
C852 C854 1.381 . S
C852 C858 1.383 . S
C853 C849 1.495 . S
C853 H859 0.959 . S
C853 H860 0.961 . S
C853 H861 0.960 . S
C854 C852 1.381 . S
C854 C855 1.394 . S
C854 H862 0.930 . S
C855 C854 1.394 . S
C855 C856 1.383 . S
C855 H863 0.929 . S
C856 C855 1.383 . S
C856 C857 1.377 . S
C857 H841 0.930 . S
C857 C856 1.377 . S
C857 C858 1.379 . S
C858 H842 0.931 . S
C858 C852 1.383 . S
C858 C857 1.379 . S
H859 C853 0.959 . S
H860 C853 0.961 . S
H861 C853 0.960 . S
H862 C854 0.930 . S
H863 C855 0.929 . S
H864 C872 0.929 . S
H865 C874 0.930 . S
H866 C876 0.930 . S
H867 C879 0.929 . S
H868 C882 0.930 . S
H869 C884 0.960 . S
H870 C884 0.960 . S
H871 C884 0.960 . S
C872 H864 0.929 . S
C872 C873 1.377 . S
C872 C874 1.384 . S
C873 C872 1.377 . S
C873 C879 1.390 . S
C874 H865 0.930 . S
C874 C872 1.384 . S
C874 C875 1.372 . S
C875 C874 1.372 . S
C875 C876 1.400 . S
C875 C880 1.490 . S
C876 H866 0.930 . S
C876 C875 1.400 . S
C876 C879 1.386 . S
H877 C893 0.930 . S
H878 C894 0.931 . S
C879 H867 0.929 . S
C879 C873 1.390 . S
C879 C876 1.386 . S
C880 C875 1.490 . S
C880 C882 1.395 . S
C880 C883 1.403 . S
H881 C887 0.930 . S
C882 H868 0.930 . S
C882 C880 1.395 . S
C882 C885 1.403 . S
C883 C880 1.403 . S
C883 C884 1.524 . S
C883 C887 1.400 . S
C884 H869 0.960 . S
C884 H870 0.960 . S
C884 H871 0.960 . S
C884 C883 1.524 . S
C885 C882 1.403 . S
C885 C886 1.392 . S
C885 C889 1.495 . S
C886 C885 1.392 . S
C886 C887 1.385 . S
C886 C888 1.478 . S
C887 H881 0.930 . S
C887 C883 1.400 . S
C887 C886 1.385 . S
C888 C886 1.478 . S
C888 C890 1.381 . S
C888 C894 1.383 . S
C889 C885 1.495 . S
C889 H895 0.959 . S
C889 H896 0.961 . S
C889 H897 0.960 . S
C890 C888 1.381 . S
C890 C891 1.394 . S
C890 H898 0.930 . S
C891 C890 1.394 . S
C891 C892 1.383 . S
C891 H899 0.929 . S
C892 C891 1.383 . S
C892 C893 1.377 . S
C893 H877 0.930 . S
C893 C892 1.377 . S
C893 C894 1.379 . S
C894 H878 0.931 . S
C894 C888 1.383 . S
C894 C893 1.379 . S
H895 C889 0.959 . S
H896 C889 0.961 . S
H897 C889 0.960 . S
H898 C890 0.930 . S
H899 C891 0.929 . S
H900 C908 0.929 . S
H901 C910 0.930 . S
H902 C912 0.930 1_655 S
H903 C915 0.929 . S
H904 C918 0.930 . S
H905 C920 0.960 . S
H906 C920 0.960 1_455 S
H907 C920 0.960 . S
C908 H900 0.929 . S
C908 C909 1.377 . S
C908 C910 1.384 . S
C909 C908 1.377 . S
C909 C915 1.390 . S
C910 H901 0.930 . S
C910 C908 1.384 . S
C910 C911 1.372 . S
C911 C910 1.372 . S
C911 C912 1.400 . S
C911 C916 1.490 . S
C912 H902 0.930 1_455 S
C912 C911 1.400 . S
C912 C915 1.386 . S
H913 C929 0.930 . S
H914 C930 0.931 . S
C915 H903 0.929 . S
C915 C909 1.390 . S
C915 C912 1.386 . S
C916 C911 1.490 . S
C916 C918 1.395 . S
C916 C919 1.403 1_455 S
H917 C923 0.930 . S
C918 H904 0.930 . S
C918 C916 1.395 . S
C918 C921 1.403 . S
C919 C916 1.403 1_655 S
C919 C920 1.524 . S
C919 C923 1.400 . S
C920 H905 0.960 . S
C920 H906 0.960 1_655 S
C920 H907 0.960 . S
C920 C919 1.524 . S
C921 C918 1.403 . S
C921 C922 1.392 1_455 S
C921 C925 1.495 . S
C922 C921 1.392 1_655 S
C922 C923 1.385 . S
C922 C924 1.478 . S
C923 H917 0.930 . S
C923 C919 1.400 . S
C923 C922 1.385 . S
C924 C922 1.478 . S
C924 C926 1.381 . S
C924 C930 1.383 . S
C925 C921 1.495 . S
C925 H931 0.959 . S
C925 H932 0.961 . S
C925 H933 0.960 . S
C926 C924 1.381 . S
C926 C927 1.394 . S
C926 H934 0.930 1_655 S
C927 C926 1.394 . S
C927 C928 1.383 . S
C927 H935 0.929 . S
C928 C927 1.383 . S
C928 C929 1.377 . S
C929 H913 0.930 . S
C929 C928 1.377 . S
C929 C930 1.379 . S
C930 H914 0.931 . S
C930 C924 1.383 . S
C930 C929 1.379 . S
H931 C925 0.959 . S
H932 C925 0.961 . S
H933 C925 0.960 . S
H934 C926 0.930 1_455 S
H935 C927 0.929 . S
H936 C944 0.929 . S
H937 C946 0.930 . S
H938 C948 0.930 . S
H939 C951 0.929 . S
H940 C954 0.930 . S
H941 C956 0.960 . S
H942 C956 0.960 . S
H943 C956 0.960 . S
C944 H936 0.929 . S
C944 C945 1.377 . S
C944 C946 1.384 . S
C945 C944 1.377 . S
C945 C951 1.390 . S
C946 H937 0.930 . S
C946 C944 1.384 . S
C946 C947 1.372 . S
C947 C946 1.372 . S
C947 C948 1.400 . S
C947 C952 1.490 . S
C948 H938 0.930 . S
C948 C947 1.400 . S
C948 C951 1.386 . S
H949 C965 0.930 . S
H950 C966 0.931 . S
C951 H939 0.929 . S
C951 C945 1.390 . S
C951 C948 1.386 . S
C952 C947 1.490 . S
C952 C954 1.395 . S
C952 C955 1.403 . S
H953 C959 0.930 . S
C954 H940 0.930 . S
C954 C952 1.395 . S
C954 C957 1.403 . S
C955 C952 1.403 . S
C955 C956 1.524 . S
C955 C959 1.400 . S
C956 H941 0.960 . S
C956 H942 0.960 . S
C956 H943 0.960 . S
C956 C955 1.524 . S
C957 C954 1.403 . S
C957 C958 1.392 . S
C957 C961 1.495 . S
C958 C957 1.392 . S
C958 C959 1.385 . S
C958 C960 1.478 . S
C959 H953 0.930 . S
C959 C955 1.400 . S
C959 C958 1.385 . S
C960 C958 1.478 . S
C960 C962 1.381 . S
C960 C966 1.383 . S
C961 C957 1.495 . S
C961 H967 0.959 . S
C961 H968 0.961 . S
C961 H969 0.960 . S
C962 C960 1.381 . S
C962 C963 1.394 . S
C962 H970 0.930 . S
C963 C962 1.394 . S
C963 C964 1.383 . S
C963 H971 0.929 . S
C964 C963 1.383 . S
C964 C965 1.377 . S
C965 H949 0.930 . S
C965 C964 1.377 . S
C965 C966 1.379 . S
C966 H950 0.931 . S
C966 C960 1.383 . S
C966 C965 1.379 . S
H967 C961 0.959 . S
H968 C961 0.961 . S
H969 C961 0.960 . S
H970 C962 0.930 . S
H971 C963 0.929 . S
H972 C980 0.929 . S
H973 C982 0.930 . S
H974 C984 0.930 . S
H975 C987 0.929 . S
H976 C990 0.930 . S
H977 C992 0.960 . S
H978 C992 0.960 . S
H979 C992 0.960 . S
C980 H972 0.929 . S
C980 C981 1.377 . S
C980 C982 1.384 . S
C981 C980 1.377 . S
C981 C987 1.390 . S
C982 H973 0.930 . S
C982 C980 1.384 . S
C982 C983 1.372 . S
C983 C982 1.372 . S
C983 C984 1.400 . S
C983 C988 1.490 . S
C984 H974 0.930 . S
C984 C983 1.400 . S
C984 C987 1.386 . S
H985 C1001 0.930 . S
H986 C1002 0.931 . S
C987 H975 0.929 . S
C987 C981 1.390 . S
C987 C984 1.386 . S
C988 C983 1.490 . S
C988 C990 1.395 . S
C988 C991 1.403 1_545 S
H989 C995 0.930 . S
C990 H976 0.930 . S
C990 C988 1.395 . S
C990 C993 1.403 . S
C991 C988 1.403 1_565 S
C991 C992 1.524 . S
C991 C995 1.400 . S
C992 H977 0.960 . S
C992 H978 0.960 . S
C992 H979 0.960 . S
C992 C991 1.524 . S
C993 C990 1.403 . S
C993 C994 1.392 1_545 S
C993 C997 1.495 . S
C994 C993 1.392 1_565 S
C994 C995 1.385 . S
C994 C996 1.478 . S
C995 H989 0.930 . S
C995 C991 1.400 . S
C995 C994 1.385 . S
C996 C994 1.478 . S
C996 C998 1.381 . S
C996 C1002 1.383 . S
C997 C993 1.495 . S
C997 H1003 0.959 . S
C997 H1004 0.961 . S
C997 H1005 0.960 . S
C998 C996 1.381 . S
C998 C999 1.394 . S
C998 H1006 0.930 . S
C999 C998 1.394 . S
C999 C1000 1.383 . S
C999 H1007 0.929 . S
C1000 C999 1.383 . S
C1000 C1001 1.377 . S
C1001 H985 0.930 . S
C1001 C1000 1.377 . S
C1001 C1002 1.379 . S
C1002 H986 0.931 . S
C1002 C996 1.383 . S
C1002 C1001 1.379 . S
H1003 C997 0.959 . S
H1004 C997 0.961 . S
H1005 C997 0.960 . S
H1006 C998 0.930 . S
H1007 C999 0.929 . S
H1008 C1016 0.929 . S
H1009 C1018 0.930 1_545 S
H1010 C1020 0.930 . S
H1011 C1023 0.929 . S
H1012 C1026 0.915 1_565 S
H1013 C1028 0.960 1_556 S
H1014 C1028 0.960 . S
H1015 C1028 0.960 . S
C1016 H1008 0.929 . S
C1016 C1017 1.377 . S
C1016 C1018 1.384 . S
C1017 C1016 1.377 . S
C1017 C1023 1.390 . S
C1018 H1009 0.930 1_565 S
C1018 C1016 1.384 . S
C1018 C1019 1.372 . S
C1019 C1018 1.372 . S
C1019 C1020 1.400 . S
C1019 C1024 1.490 . S
C1020 H1010 0.930 . S
C1020 C1019 1.400 . S
C1020 C1023 1.386 . S
H1021 C1037 0.930 . S
H1022 C1038 0.931 1_565 S
C1023 H1011 0.929 . S
C1023 C1017 1.390 . S
C1023 C1020 1.386 . S
C1024 C1019 1.490 . S
C1024 C1026 1.397 1_565 S
C1024 C1027 1.403 . S
H1025 C1031 0.930 . S
C1026 H1012 0.915 1_545 S
C1026 C1024 1.397 1_545 S
C1026 C1029 1.399 1_554 S
C1027 C1024 1.403 . S
C1027 C1028 1.524 . S
C1027 C1031 1.400 1_564 S
C1028 H1013 0.960 1_554 S
C1028 H1014 0.960 . S
C1028 H1015 0.960 . S
C1028 C1027 1.524 . S
C1029 C1026 1.399 1_556 S
C1029 C1030 1.404 . S
C1029 C1033 1.494 . S
C1030 C1029 1.404 . S
C1030 C1031 1.385 . S
C1030 C1032 1.478 . S
C1031 H1025 0.930 . S
C1031 C1027 1.400 1_546 S
C1031 C1030 1.385 . S
C1032 C1030 1.478 . S
C1032 C1034 1.381 . S
C1032 C1038 1.383 . S
C1033 C1029 1.494 . S
C1033 H1039 0.893 1_556 S
C1033 H1040 1.020 . S
C1033 H1041 0.975 . S
C1034 C1032 1.381 . S
C1034 C1035 1.394 . S
C1034 H1042 0.930 . S
C1035 C1034 1.394 . S
C1035 C1036 1.383 . S
C1035 H1043 0.929 . S
C1036 C1035 1.383 . S
C1036 C1037 1.377 . S
C1037 H1021 0.930 . S
C1037 C1036 1.377 . S
C1037 C1038 1.379 . S
C1038 H1022 0.931 1_545 S
C1038 C1032 1.383 . S
C1038 C1037 1.379 . S
H1039 C1033 0.893 1_554 S
H1040 C1033 1.020 . S
H1041 C1033 0.975 . S
H1042 C1034 0.930 . S
H1043 C1035 0.929 . S
H1044 C1052 0.929 . S
H1045 C1054 0.930 . S
H1046 C1056 0.930 . S
H1047 C1059 0.929 . S
H1048 C1062 0.930 . S
H1049 C1064 0.880 1_554 S
H1050 C1064 0.973 . S
H1051 C1064 1.035 . S
C1052 H1044 0.929 . S
C1052 C1053 1.377 . S
C1052 C1054 1.384 . S
C1053 C1052 1.377 . S
C1053 C1059 1.390 . S
C1054 H1045 0.930 . S
C1054 C1052 1.384 . S
C1054 C1055 1.372 . S
C1055 C1054 1.372 . S
C1055 C1056 1.400 . S
C1055 C1060 1.490 . S
C1056 H1046 0.930 . S
C1056 C1055 1.400 . S
C1056 C1059 1.386 . S
H1057 C1073 0.930 . S
H1058 C1074 0.931 . S
C1059 H1047 0.929 . S
C1059 C1053 1.390 . S
C1059 C1056 1.386 . S
C1060 C1055 1.490 . S
C1060 C1062 1.395 . S
C1060 C1063 1.474 . S
H1061 C1067 0.930 . S
C1062 H1048 0.930 . S
C1062 C1060 1.395 . S
C1062 C1065 1.356 1_656 S
C1063 C1060 1.474 . S
C1063 C1064 1.524 . S
C1063 C1067 1.327 1_656 S
C1064 H1049 0.880 1_556 S
C1064 H1050 0.973 . S
C1064 H1051 1.035 . S
C1064 C1063 1.524 . S
C1065 C1062 1.356 1_454 S
C1065 C1066 1.437 . S
C1065 C1069 1.495 . S
C1066 C1065 1.437 . S
C1066 C1067 1.385 . S
C1066 C1068 1.478 . S
C1067 H1061 0.930 . S
C1067 C1063 1.327 1_454 S
C1067 C1066 1.385 . S
C1068 C1066 1.478 . S
C1068 C1070 1.381 . S
C1068 C1074 1.383 . S
C1069 C1065 1.495 . S
C1069 H1075 0.873 1_554 S
C1069 H1076 0.977 . S
C1069 H1077 1.041 . S
C1070 C1068 1.381 . S
C1070 C1071 1.394 . S
C1070 H1078 0.930 . S
C1071 C1070 1.394 . S
C1071 C1072 1.383 . S
C1071 H1079 0.929 . S
C1072 C1071 1.383 . S
C1072 C1073 1.377 . S
C1073 H1057 0.930 . S
C1073 C1072 1.377 . S
C1073 C1074 1.379 . S
C1074 H1058 0.931 . S
C1074 C1068 1.383 . S
C1074 C1073 1.379 . S
H1075 C1069 0.873 1_556 S
H1076 C1069 0.977 . S
H1077 C1069 1.041 . S
H1078 C1070 0.930 . S
H1079 C1071 0.929 . S
H1080 C1088 0.929 . S
H1081 C1090 0.930 . S
H1082 C1092 0.930 . S
H1083 C1095 0.929 . S
H1084 C1098 0.930 . S
H1085 C1100 0.960 . S
H1086 C1100 0.960 . S
H1087 C1100 0.960 . S
C1088 H1080 0.929 . S
C1088 C1089 1.377 . S
C1088 C1090 1.384 . S
C1089 C1088 1.377 . S
C1089 C1095 1.390 . S
C1090 H1081 0.930 . S
C1090 C1088 1.384 . S
C1090 C1091 1.372 . S
C1091 C1090 1.372 . S
C1091 C1092 1.400 . S
C1091 C1096 1.490 . S
C1092 H1082 0.930 . S
C1092 C1091 1.400 . S
C1092 C1095 1.386 . S
H1093 C1109 0.930 . S
H1094 C1110 0.931 . S
C1095 H1083 0.929 . S
C1095 C1089 1.390 . S
C1095 C1092 1.386 . S
C1096 C1091 1.490 . S
C1096 C1098 1.395 . S
C1096 C1099 1.403 . S
H1097 C1103 0.930 . S
C1098 H1084 0.930 . S
C1098 C1096 1.395 . S
C1098 C1101 1.403 1_556 S
C1099 C1096 1.403 . S
C1099 C1100 1.524 . S
C1099 C1103 1.400 1_556 S
C1100 H1085 0.960 . S
C1100 H1086 0.960 . S
C1100 H1087 0.960 . S
C1100 C1099 1.524 . S
C1101 C1098 1.403 1_554 S
C1101 C1102 1.392 . S
C1101 C1105 1.495 . S
C1102 C1101 1.392 . S
C1102 C1103 1.385 . S
C1102 C1104 1.478 . S
C1103 H1097 0.930 . S
C1103 C1099 1.400 1_554 S
C1103 C1102 1.385 . S
C1104 C1102 1.478 . S
C1104 C1106 1.381 . S
C1104 C1110 1.383 . S
C1105 C1101 1.495 . S
C1105 H1111 0.959 . S
C1105 H1112 0.961 . S
C1105 H1113 0.960 . S
C1106 C1104 1.381 . S
C1106 C1107 1.394 . S
C1106 H1114 0.930 . S
C1107 C1106 1.394 . S
C1107 C1108 1.383 . S
C1107 H1115 0.929 . S
C1108 C1107 1.383 . S
C1108 C1109 1.377 . S
C1109 H1093 0.930 . S
C1109 C1108 1.377 . S
C1109 C1110 1.379 . S
C1110 H1094 0.931 . S
C1110 C1104 1.383 . S
C1110 C1109 1.379 . S
H1111 C1105 0.959 . S
H1112 C1105 0.961 . S
H1113 C1105 0.960 . S
H1114 C1106 0.930 . S
H1115 C1107 0.929 . S
H1116 C1124 0.929 . S
H1117 C1126 0.930 . S
H1118 C1128 0.930 . S
H1119 C1131 0.929 . S
H1120 C1134 0.930 . S
H1121 C1136 0.960 . S
H1122 C1136 0.960 . S
H1123 C1136 0.960 . S
C1124 H1116 0.929 . S
C1124 C1125 1.377 . S
C1124 C1126 1.384 . S
C1125 C1124 1.377 . S
C1125 C1131 1.390 . S
C1126 H1117 0.930 . S
C1126 C1124 1.384 . S
C1126 C1127 1.372 . S
C1127 C1126 1.372 . S
C1127 C1128 1.400 . S
C1127 C1132 1.490 . S
C1128 H1118 0.930 . S
C1128 C1127 1.400 . S
C1128 C1131 1.386 . S
H1129 C1145 0.930 . S
H1130 C1146 0.931 . S
C1131 H1119 0.929 . S
C1131 C1125 1.390 . S
C1131 C1128 1.386 . S
C1132 C1127 1.490 . S
C1132 C1134 1.395 . S
C1132 C1135 1.403 . S
H1133 C1139 0.930 . S
C1134 H1120 0.930 . S
C1134 C1132 1.395 . S
C1134 C1137 1.403 . S
C1135 C1132 1.403 . S
C1135 C1136 1.524 . S
C1135 C1139 1.400 1_545 S
C1136 H1121 0.960 . S
C1136 H1122 0.960 . S
C1136 H1123 0.960 . S
C1136 C1135 1.524 . S
C1137 C1134 1.403 . S
C1137 C1138 1.392 1_545 S
C1137 C1141 1.502 . S
C1138 C1137 1.392 1_565 S
C1138 C1139 1.385 . S
C1138 C1140 1.478 . S
C1139 H1133 0.930 . S
C1139 C1135 1.400 1_565 S
C1139 C1138 1.385 . S
C1140 C1138 1.478 . S
C1140 C1142 1.381 . S
C1140 C1146 1.383 . S
C1141 C1137 1.502 . S
C1141 H1147 0.965 . S
C1141 H1148 0.949 1_545 S
C1141 H1149 0.960 . S
C1142 C1140 1.381 . S
C1142 C1143 1.394 . S
C1142 H1150 0.930 1_565 S
C1143 C1142 1.394 . S
C1143 C1144 1.383 . S
C1143 H1151 0.929 . S
C1144 C1143 1.383 . S
C1144 C1145 1.377 . S
C1145 H1129 0.930 . S
C1145 C1144 1.377 . S
C1145 C1146 1.379 . S
C1146 H1130 0.931 . S
C1146 C1140 1.383 . S
C1146 C1145 1.379 . S
H1147 C1141 0.965 . S
H1148 C1141 0.949 1_565 S
H1149 C1141 0.960 . S
H1150 C1142 0.930 1_545 S
H1151 C1143 0.929 . S
H1152 C1160 0.929 . S
H1153 C1162 0.930 . S
H1154 C1164 0.930 . S
H1155 C1167 0.929 . S
H1156 C1170 0.930 . S
H1157 C1172 0.960 . S
H1158 C1172 0.960 . S
H1159 C1172 0.960 . S
C1160 H1152 0.929 . S
C1160 C1161 1.377 . S
C1160 C1162 1.384 . S
C1161 C1160 1.377 . S
C1161 C1167 1.390 . S
C1162 H1153 0.930 . S
C1162 C1160 1.384 . S
C1162 C1163 1.372 . S
C1163 C1162 1.372 . S
C1163 C1164 1.400 . S
C1163 C1168 1.490 . S
C1164 H1154 0.930 . S
C1164 C1163 1.400 . S
C1164 C1167 1.386 . S
H1165 C1181 0.930 . S
H1166 C1182 0.931 . S
C1167 H1155 0.929 . S
C1167 C1161 1.390 . S
C1167 C1164 1.386 . S
C1168 C1163 1.490 . S
C1168 C1170 1.395 1_455 S
C1168 C1171 1.403 . S
H1169 C1175 0.930 . S
C1170 H1156 0.930 . S
C1170 C1168 1.395 1_655 S
C1170 C1173 1.403 . S
C1171 C1168 1.403 . S
C1171 C1172 1.524 . S
C1171 C1175 1.400 1_455 S
C1172 H1157 0.960 . S
C1172 H1158 0.960 . S
C1172 H1159 0.960 . S
C1172 C1171 1.524 . S
C1173 C1170 1.403 . S
C1173 C1174 1.392 . S
C1173 C1177 1.495 . S
C1174 C1173 1.392 . S
C1174 C1175 1.385 . S
C1174 C1176 1.478 . S
C1175 H1169 0.930 . S
C1175 C1171 1.400 1_655 S
C1175 C1174 1.385 . S
C1176 C1174 1.478 . S
C1176 C1178 1.381 . S
C1176 C1182 1.383 . S
C1177 C1173 1.495 . S
C1177 H1183 0.959 . S
C1177 H1184 0.961 . S
C1177 H1185 0.960 . S
C1178 C1176 1.381 . S
C1178 C1179 1.394 . S
C1178 H1186 0.930 . S
C1179 C1178 1.394 . S
C1179 C1180 1.383 . S
C1179 H1187 0.929 . S
C1180 C1179 1.383 . S
C1180 C1181 1.377 . S
C1181 H1165 0.930 . S
C1181 C1180 1.377 . S
C1181 C1182 1.379 . S
C1182 H1166 0.931 . S
C1182 C1176 1.383 . S
C1182 C1181 1.379 . S
H1183 C1177 0.959 . S
H1184 C1177 0.961 . S
H1185 C1177 0.960 . S
H1186 C1178 0.930 . S
H1187 C1179 0.929 . S
H1188 C1196 0.929 . S
H1189 C1198 0.930 . S
H1190 C1200 0.930 . S
H1191 C1203 0.929 . S
H1192 C1206 0.930 . S
H1193 C1208 0.960 . S
H1194 C1208 0.960 . S
H1195 C1208 0.960 . S
C1196 H1188 0.929 . S
C1196 C1197 1.377 . S
C1196 C1198 1.384 . S
C1197 C1196 1.377 . S
C1197 C1203 1.390 . S
C1198 H1189 0.930 . S
C1198 C1196 1.384 . S
C1198 C1199 1.372 . S
C1199 C1198 1.372 . S
C1199 C1200 1.400 . S
C1199 C1204 1.490 . S
C1200 H1190 0.930 . S
C1200 C1199 1.400 . S
C1200 C1203 1.386 . S
H1201 C1217 0.930 . S
H1202 C1218 0.931 . S
C1203 H1191 0.929 . S
C1203 C1197 1.390 . S
C1203 C1200 1.386 . S
C1204 C1199 1.490 . S
C1204 C1206 1.395 . S
C1204 C1207 1.403 . S
H1205 C1211 0.930 . S
C1206 H1192 0.930 . S
C1206 C1204 1.395 . S
C1206 C1209 1.403 . S
C1207 C1204 1.403 . S
C1207 C1208 1.524 . S
C1207 C1211 1.400 . S
C1208 H1193 0.960 . S
C1208 H1194 0.960 . S
C1208 H1195 0.960 . S
C1208 C1207 1.524 . S
C1209 C1206 1.403 . S
C1209 C1210 1.392 . S
C1209 C1213 1.495 . S
C1210 C1209 1.392 . S
C1210 C1211 1.385 . S
C1210 C1212 1.478 . S
C1211 H1205 0.930 . S
C1211 C1207 1.400 . S
C1211 C1210 1.385 . S
C1212 C1210 1.478 . S
C1212 C1214 1.381 . S
C1212 C1218 1.383 . S
C1213 C1209 1.495 . S
C1213 H1219 0.959 . S
C1213 H1220 0.961 . S
C1213 H1221 0.960 . S
C1214 C1212 1.381 . S
C1214 C1215 1.394 . S
C1214 H1222 0.930 . S
C1215 C1214 1.394 . S
C1215 C1216 1.383 . S
C1215 H1223 0.929 . S
C1216 C1215 1.383 . S
C1216 C1217 1.377 . S
C1217 H1201 0.930 . S
C1217 C1216 1.377 . S
C1217 C1218 1.379 . S
C1218 H1202 0.931 . S
C1218 C1212 1.383 . S
C1218 C1217 1.379 . S
H1219 C1213 0.959 . S
H1220 C1213 0.961 . S
H1221 C1213 0.960 . S
H1222 C1214 0.930 . S
H1223 C1215 0.929 . S
H1224 C1232 0.929 . S
H1225 C1234 0.930 . S
H1226 C1236 0.930 1_455 S
H1227 C1239 0.929 . S
H1228 C1242 0.930 . S
H1229 C1244 0.960 . S
H1230 C1244 0.960 . S
H1231 C1244 0.960 . S
C1232 H1224 0.929 . S
C1232 C1233 1.377 . S
C1232 C1234 1.384 . S
C1233 C1232 1.377 . S
C1233 C1239 1.390 . S
C1234 H1225 0.930 . S
C1234 C1232 1.384 . S
C1234 C1235 1.372 . S
C1235 C1234 1.372 . S
C1235 C1236 1.400 . S
C1235 C1240 1.490 . S
C1236 H1226 0.930 1_655 S
C1236 C1235 1.400 . S
C1236 C1239 1.386 . S
H1237 C1253 0.930 . S
H1238 C1254 0.931 . S
C1239 H1227 0.929 . S
C1239 C1233 1.390 . S
C1239 C1236 1.386 . S
C1240 C1235 1.490 . S
C1240 C1242 1.395 . S
C1240 C1243 1.403 1_655 S
H1241 C1247 0.930 . S
C1242 H1228 0.930 . S
C1242 C1240 1.395 . S
C1242 C1245 1.403 . S
C1243 C1240 1.403 1_455 S
C1243 C1244 1.524 . S
C1243 C1247 1.400 . S
C1244 H1229 0.960 . S
C1244 H1230 0.960 . S
C1244 H1231 0.960 . S
C1244 C1243 1.524 . S
C1245 C1242 1.403 . S
C1245 C1246 1.392 1_655 S
C1245 C1249 1.495 . S
C1246 C1245 1.392 1_455 S
C1246 C1247 1.385 . S
C1246 C1248 1.478 . S
C1247 H1241 0.930 . S
C1247 C1243 1.400 . S
C1247 C1246 1.385 . S
C1248 C1246 1.478 . S
C1248 C1250 1.381 . S
C1248 C1254 1.383 . S
C1249 C1245 1.495 . S
C1249 H1255 0.959 . S
C1249 H1256 0.961 . S
C1249 H1257 0.960 . S
C1250 C1248 1.381 . S
C1250 C1251 1.394 . S
C1250 H1258 0.930 . S
C1251 C1250 1.394 . S
C1251 C1252 1.383 . S
C1251 H1259 0.929 . S
C1252 C1251 1.383 . S
C1252 C1253 1.377 . S
C1253 H1237 0.930 . S
C1253 C1252 1.377 . S
C1253 C1254 1.379 . S
C1254 H1238 0.931 . S
C1254 C1248 1.383 . S
C1254 C1253 1.379 . S
H1255 C1249 0.959 . S
H1256 C1249 0.961 . S
H1257 C1249 0.960 . S
H1258 C1250 0.930 . S
H1259 C1251 0.929 . S
H1260 C1268 0.929 . S
H1261 C1270 0.930 . S
H1262 C1272 0.930 . S
H1263 C1275 0.929 . S
H1264 C1278 0.930 . S
H1265 C1280 0.960 . S
H1266 C1280 0.960 . S
H1267 C1280 0.960 . S
C1268 H1260 0.929 . S
C1268 C1269 1.377 . S
C1268 C1270 1.384 . S
C1269 C1268 1.377 . S
C1269 C1275 1.390 . S
C1270 H1261 0.930 . S
C1270 C1268 1.384 . S
C1270 C1271 1.372 . S
C1271 C1270 1.372 . S
C1271 C1272 1.400 . S
C1271 C1276 1.490 . S
C1272 H1262 0.930 . S
C1272 C1271 1.400 . S
C1272 C1275 1.386 . S
H1273 C1289 0.930 . S
H1274 C1290 0.931 . S
C1275 H1263 0.929 . S
C1275 C1269 1.390 . S
C1275 C1272 1.386 . S
C1276 C1271 1.490 . S
C1276 C1278 1.395 . S
C1276 C1279 1.403 . S
H1277 C1283 0.930 . S
C1278 H1264 0.930 . S
C1278 C1276 1.395 . S
C1278 C1281 1.403 . S
C1279 C1276 1.403 . S
C1279 C1280 1.524 . S
C1279 C1283 1.400 . S
C1280 H1265 0.960 . S
C1280 H1266 0.960 . S
C1280 H1267 0.960 . S
C1280 C1279 1.524 . S
C1281 C1278 1.403 . S
C1281 C1282 1.392 . S
C1281 C1285 1.495 . S
C1282 C1281 1.392 . S
C1282 C1283 1.385 . S
C1282 C1284 1.478 . S
C1283 H1277 0.930 . S
C1283 C1279 1.400 . S
C1283 C1282 1.385 . S
C1284 C1282 1.478 . S
C1284 C1286 1.381 . S
C1284 C1290 1.383 . S
C1285 C1281 1.495 . S
C1285 H1291 0.959 . S
C1285 H1292 0.961 . S
C1285 H1293 0.960 . S
C1286 C1284 1.381 . S
C1286 C1287 1.394 . S
C1286 H1294 0.930 . S
C1287 C1286 1.394 . S
C1287 C1288 1.383 . S
C1287 H1295 0.929 . S
C1288 C1287 1.383 . S
C1288 C1289 1.377 . S
C1289 H1273 0.930 . S
C1289 C1288 1.377 . S
C1289 C1290 1.379 . S
C1290 H1274 0.931 . S
C1290 C1284 1.383 . S
C1290 C1289 1.379 . S
H1291 C1285 0.959 . S
H1292 C1285 0.961 . S
H1293 C1285 0.960 . S
H1294 C1286 0.930 . S
H1295 C1287 0.929 . S
H1296 C1304 0.929 . S
H1297 C1306 0.930 . S
H1298 C1308 0.930 . S
H1299 C1311 0.929 . S
H1300 C1314 0.930 . S
H1301 C1316 0.960 . S
H1302 C1316 0.960 . S
H1303 C1316 0.960 . S
C1304 H1296 0.929 . S
C1304 C1305 1.377 . S
C1304 C1306 1.384 . S
C1305 C1304 1.377 . S
C1305 C1311 1.390 . S
C1306 H1297 0.930 . S
C1306 C1304 1.384 . S
C1306 C1307 1.372 . S
C1307 C1306 1.372 . S
C1307 C1308 1.400 . S
C1307 C1312 1.490 . S
C1308 H1298 0.930 . S
C1308 C1307 1.400 . S
C1308 C1311 1.386 . S
H1309 C1325 0.930 . S
H1310 C1326 0.931 . S
C1311 H1299 0.929 . S
C1311 C1305 1.390 . S
C1311 C1308 1.386 . S
C1312 C1307 1.490 . S
C1312 C1314 1.395 1_545 S
C1312 C1315 1.403 . S
H1313 C1319 0.930 . S
C1314 H1300 0.930 . S
C1314 C1312 1.395 1_565 S
C1314 C1317 1.403 . S
C1315 C1312 1.403 . S
C1315 C1316 1.524 . S
C1315 C1319 1.400 . S
C1316 H1301 0.960 . S
C1316 H1302 0.960 . S
C1316 H1303 0.960 . S
C1316 C1315 1.524 . S
C1317 C1314 1.403 . S
C1317 C1318 1.392 . S
C1317 C1321 1.495 . S
C1318 C1317 1.392 . S
C1318 C1319 1.385 1_565 S
C1318 C1320 1.478 . S
C1319 H1313 0.930 . S
C1319 C1315 1.400 . S
C1319 C1318 1.385 1_545 S
C1320 C1318 1.478 . S
C1320 C1322 1.381 . S
C1320 C1326 1.383 . S
C1321 C1317 1.495 . S
C1321 H1327 0.959 . S
C1321 H1328 0.961 . S
C1321 H1329 0.960 . S
C1322 C1320 1.381 . S
C1322 C1323 1.394 . S
C1322 H1330 0.930 . S
C1323 C1322 1.394 . S
C1323 C1324 1.383 . S
C1323 H1331 0.929 . S
C1324 C1323 1.383 . S
C1324 C1325 1.377 . S
C1325 H1309 0.930 . S
C1325 C1324 1.377 . S
C1325 C1326 1.379 . S
C1326 H1310 0.931 . S
C1326 C1320 1.383 . S
C1326 C1325 1.379 . S
H1327 C1321 0.959 . S
H1328 C1321 0.961 . S
H1329 C1321 0.960 . S
H1330 C1322 0.930 . S
H1331 C1323 0.929 . S
H1332 C1340 0.929 . S
H1333 C1342 0.930 . S
H1334 C1344 0.930 . S
H1335 C1347 0.929 . S
H1336 C1350 0.930 . S
H1337 C1352 0.960 . S
H1338 C1352 0.960 . S
H1339 C1352 0.960 . S
C1340 H1332 0.929 . S
C1340 C1341 1.377 . S
C1340 C1342 1.384 . S
C1341 C1340 1.377 . S
C1341 C1347 1.390 . S
C1342 H1333 0.930 . S
C1342 C1340 1.384 . S
C1342 C1343 1.372 . S
C1343 C1342 1.372 . S
C1343 C1344 1.400 . S
C1343 C1348 1.490 . S
C1344 H1334 0.930 . S
C1344 C1343 1.400 . S
C1344 C1347 1.386 . S
H1345 C1361 0.930 . S
H1346 C1362 0.931 . S
C1347 H1335 0.929 . S
C1347 C1341 1.390 . S
C1347 C1344 1.386 . S
C1348 C1343 1.490 . S
C1348 C1350 1.395 1_565 S
C1348 C1351 1.403 . S
H1349 C1355 0.930 . S
C1350 H1336 0.930 . S
C1350 C1348 1.395 1_545 S
C1350 C1353 1.403 . S
C1351 C1348 1.403 . S
C1351 C1352 1.524 . S
C1351 C1355 1.400 . S
C1352 H1337 0.960 . S
C1352 H1338 0.960 . S
C1352 H1339 0.960 . S
C1352 C1351 1.524 . S
C1353 C1350 1.403 . S
C1353 C1354 1.392 . S
C1353 C1357 1.495 . S
C1354 C1353 1.392 . S
C1354 C1355 1.385 1_545 S
C1354 C1356 1.478 . S
C1355 H1349 0.930 . S
C1355 C1351 1.400 . S
C1355 C1354 1.385 1_565 S
C1356 C1354 1.478 . S
C1356 C1358 1.381 . S
C1356 C1362 1.383 . S
C1357 C1353 1.495 . S
C1357 H1363 0.959 . S
C1357 H1364 0.961 . S
C1357 H1365 0.960 . S
C1358 C1356 1.381 . S
C1358 C1359 1.394 . S
C1358 H1366 0.930 . S
C1359 C1358 1.394 . S
C1359 C1360 1.383 . S
C1359 H1367 0.929 . S
C1360 C1359 1.383 . S
C1360 C1361 1.377 . S
C1361 H1345 0.930 . S
C1361 C1360 1.377 . S
C1361 C1362 1.379 . S
C1362 H1346 0.931 . S
C1362 C1356 1.383 . S
C1362 C1361 1.379 . S
H1363 C1357 0.959 . S
H1364 C1357 0.961 . S
H1365 C1357 0.960 . S
H1366 C1358 0.930 . S
H1367 C1359 0.929 . S
H1368 C1376 0.929 . S
H1369 C1378 0.930 . S
H1370 C1380 0.930 . S
H1371 C1383 0.929 . S
H1372 C1386 0.930 . S
H1373 C1388 0.960 . S
H1374 C1388 0.960 . S
H1375 C1388 0.960 . S
C1376 H1368 0.929 . S
C1376 C1377 1.377 . S
C1376 C1378 1.384 . S
C1377 C1376 1.377 . S
C1377 C1383 1.390 . S
C1378 H1369 0.930 . S
C1378 C1376 1.384 . S
C1378 C1379 1.372 . S
C1379 C1378 1.372 . S
C1379 C1380 1.400 . S
C1379 C1384 1.490 . S
C1380 H1370 0.930 . S
C1380 C1379 1.400 . S
C1380 C1383 1.386 . S
H1381 C1397 0.930 . S
H1382 C1398 0.931 . S
C1383 H1371 0.929 . S
C1383 C1377 1.390 . S
C1383 C1380 1.386 . S
C1384 C1379 1.490 . S
C1384 C1386 1.395 1_655 S
C1384 C1387 1.403 . S
H1385 C1391 0.930 . S
C1386 H1372 0.930 . S
C1386 C1384 1.395 1_455 S
C1386 C1389 1.403 . S
C1387 C1384 1.403 . S
C1387 C1388 1.524 . S
C1387 C1391 1.400 . S
C1388 H1373 0.960 . S
C1388 H1374 0.960 . S
C1388 H1375 0.960 . S
C1388 C1387 1.524 . S
C1389 C1386 1.403 . S
C1389 C1390 1.392 . S
C1389 C1393 1.495 . S
C1390 C1389 1.392 . S
C1390 C1391 1.385 1_455 S
C1390 C1392 1.478 . S
C1391 H1385 0.930 . S
C1391 C1387 1.400 . S
C1391 C1390 1.385 1_655 S
C1392 C1390 1.478 . S
C1392 C1394 1.381 . S
C1392 C1398 1.383 . S
C1393 C1389 1.495 . S
C1393 H1399 0.959 . S
C1393 H1400 0.961 . S
C1393 H1401 0.960 . S
C1394 C1392 1.381 . S
C1394 C1395 1.394 . S
C1394 H1402 0.930 . S
C1395 C1394 1.394 . S
C1395 C1396 1.383 . S
C1395 H1403 0.929 . S
C1396 C1395 1.383 . S
C1396 C1397 1.377 . S
C1397 H1381 0.930 . S
C1397 C1396 1.377 . S
C1397 C1398 1.379 . S
C1398 H1382 0.931 . S
C1398 C1392 1.383 . S
C1398 C1397 1.379 . S
H1399 C1393 0.959 . S
H1400 C1393 0.961 . S
H1401 C1393 0.960 . S
H1402 C1394 0.930 . S
H1403 C1395 0.929 . S
H1404 C1412 0.929 . S
H1405 C1414 0.930 . S
H1406 C1416 0.930 . S
H1407 C1419 0.929 . S
H1408 C1422 0.930 . S
H1409 C1424 0.960 . S
H1410 C1424 0.960 . S
H1411 C1424 0.960 . S
C1412 H1404 0.929 . S
C1412 C1413 1.377 . S
C1412 C1414 1.384 . S
C1413 C1412 1.377 . S
C1413 C1419 1.390 . S
C1414 H1405 0.930 . S
C1414 C1412 1.384 . S
C1414 C1415 1.372 . S
C1415 C1414 1.372 . S
C1415 C1416 1.400 . S
C1415 C1420 1.490 . S
C1416 H1406 0.930 . S
C1416 C1415 1.400 . S
C1416 C1419 1.386 . S
H1417 C1433 0.930 . S
H1418 C1434 0.931 . S
C1419 H1407 0.929 . S
C1419 C1413 1.390 . S
C1419 C1416 1.386 . S
C1420 C1415 1.490 . S
C1420 C1422 1.395 . S
C1420 C1423 1.403 . S
H1421 C1427 0.930 . S
C1422 H1408 0.930 . S
C1422 C1420 1.395 . S
C1422 C1425 1.403 . S
C1423 C1420 1.403 . S
C1423 C1424 1.524 . S
C1423 C1427 1.400 . S
C1424 H1409 0.960 . S
C1424 H1410 0.960 . S
C1424 H1411 0.960 . S
C1424 C1423 1.524 . S
C1425 C1422 1.403 . S
C1425 C1426 1.392 . S
C1425 C1429 1.495 . S
C1426 C1425 1.392 . S
C1426 C1427 1.385 . S
C1426 C1428 1.478 . S
C1427 H1421 0.930 . S
C1427 C1423 1.400 . S
C1427 C1426 1.385 . S
C1428 C1426 1.478 . S
C1428 C1430 1.381 . S
C1428 C1434 1.383 . S
C1429 C1425 1.495 . S
C1429 H1435 0.959 . S
C1429 H1436 0.961 . S
C1429 H1437 0.960 . S
C1430 C1428 1.381 . S
C1430 C1431 1.394 . S
C1430 H1438 0.930 . S
C1431 C1430 1.394 . S
C1431 C1432 1.383 . S
C1431 H1439 0.929 . S
C1432 C1431 1.383 . S
C1432 C1433 1.377 . S
C1433 H1417 0.930 . S
C1433 C1432 1.377 . S
C1433 C1434 1.379 . S
C1434 H1418 0.931 . S
C1434 C1428 1.383 . S
C1434 C1433 1.379 . S
H1435 C1429 0.959 . S
H1436 C1429 0.961 . S
H1437 C1429 0.960 . S
H1438 C1430 0.930 . S
H1439 C1431 0.929 . S
H1440 C1448 0.929 . S
H1441 C1450 0.930 1_455 S
H1442 C1452 0.930 . S
H1443 C1455 0.929 . S
H1444 C1458 0.930 . S
H1445 C1460 0.960 . S
H1446 C1460 0.960 . S
H1447 C1460 0.960 . S
C1448 H1440 0.929 . S
C1448 C1449 1.377 . S
C1448 C1450 1.384 . S
C1449 C1448 1.377 . S
C1449 C1455 1.390 . S
C1450 H1441 0.930 1_655 S
C1450 C1448 1.384 . S
C1450 C1451 1.372 . S
C1451 C1450 1.372 . S
C1451 C1452 1.400 . S
C1451 C1456 1.490 . S
C1452 H1442 0.930 . S
C1452 C1451 1.400 . S
C1452 C1455 1.386 . S
H1453 C1469 0.930 . S
H1454 C1470 0.931 1_655 S
C1455 H1443 0.929 . S
C1455 C1449 1.390 . S
C1455 C1452 1.386 . S
C1456 C1451 1.490 . S
C1456 C1458 1.395 1_655 S
C1456 C1459 1.403 . S
H1457 C1463 0.930 . S
C1458 H1444 0.930 . S
C1458 C1456 1.395 1_455 S
C1458 C1461 1.403 . S
C1459 C1456 1.403 . S
C1459 C1460 1.524 . S
C1459 C1463 1.400 . S
C1460 H1445 0.960 . S
C1460 H1446 0.960 . S
C1460 H1447 0.960 . S
C1460 C1459 1.524 . S
C1461 C1458 1.403 . S
C1461 C1462 1.392 . S
C1461 C1465 1.495 . S
C1462 C1461 1.392 . S
C1462 C1463 1.385 1_455 S
C1462 C1464 1.478 . S
C1463 H1457 0.930 . S
C1463 C1459 1.400 . S
C1463 C1462 1.385 1_655 S
C1464 C1462 1.478 . S
C1464 C1466 1.381 . S
C1464 C1470 1.383 . S
C1465 C1461 1.495 . S
C1465 H1471 0.959 . S
C1465 H1472 0.961 . S
C1465 H1473 0.960 . S
C1466 C1464 1.381 . S
C1466 C1467 1.394 . S
C1466 H1474 0.930 . S
C1467 C1466 1.394 . S
C1467 C1468 1.383 . S
C1467 H1475 0.929 . S
C1468 C1467 1.383 . S
C1468 C1469 1.377 . S
C1469 H1453 0.930 . S
C1469 C1468 1.377 . S
C1469 C1470 1.379 . S
C1470 H1454 0.931 1_455 S
C1470 C1464 1.383 . S
C1470 C1469 1.379 . S
H1471 C1465 0.959 . S
H1472 C1465 0.961 . S
H1473 C1465 0.960 . S
H1474 C1466 0.930 . S
H1475 C1467 0.929 . S
H1476 C1484 0.929 . S
H1477 C1486 0.930 . S
H1478 C1488 0.930 . S
H1479 C1491 0.929 . S
H1480 C1494 0.930 . S
H1481 C1496 0.960 . S
H1482 C1496 0.960 . S
H1483 C1496 0.960 . S
C1484 H1476 0.929 . S
C1484 C1485 1.377 . S
C1484 C1486 1.384 . S
C1485 C1484 1.377 . S
C1485 C1491 1.390 . S
C1486 H1477 0.930 . S
C1486 C1484 1.384 . S
C1486 C1487 1.372 . S
C1487 C1486 1.372 . S
C1487 C1488 1.400 . S
C1487 C1492 1.490 . S
C1488 H1478 0.930 . S
C1488 C1487 1.400 . S
C1488 C1491 1.386 . S
H1489 C1505 0.930 . S
H1490 C1506 0.931 . S
C1491 H1479 0.929 . S
C1491 C1485 1.390 . S
C1491 C1488 1.386 . S
C1492 C1487 1.490 . S
C1492 C1494 1.395 . S
C1492 C1495 1.403 . S
H1493 C1499 0.930 . S
C1494 H1480 0.930 . S
C1494 C1492 1.395 . S
C1494 C1497 1.403 . S
C1495 C1492 1.403 . S
C1495 C1496 1.524 . S
C1495 C1499 1.400 . S
C1496 H1481 0.960 . S
C1496 H1482 0.960 . S
C1496 H1483 0.960 . S
C1496 C1495 1.524 . S
C1497 C1494 1.403 . S
C1497 C1498 1.392 . S
C1497 C1501 1.495 . S
C1498 C1497 1.392 . S
C1498 C1499 1.385 . S
C1498 C1500 1.478 . S
C1499 H1493 0.930 . S
C1499 C1495 1.400 . S
C1499 C1498 1.385 . S
C1500 C1498 1.478 . S
C1500 C1502 1.381 . S
C1500 C1506 1.383 . S
C1501 C1497 1.495 . S
C1501 H1507 0.959 . S
C1501 H1508 0.961 . S
C1501 H1509 0.960 . S
C1502 C1500 1.381 . S
C1502 C1503 1.394 . S
C1502 H1510 0.930 . S
C1503 C1502 1.394 . S
C1503 C1504 1.383 . S
C1503 H1511 0.929 . S
C1504 C1503 1.383 . S
C1504 C1505 1.377 . S
C1505 H1489 0.930 . S
C1505 C1504 1.377 . S
C1505 C1506 1.379 . S
C1506 H1490 0.931 . S
C1506 C1500 1.383 . S
C1506 C1505 1.379 . S
H1507 C1501 0.959 . S
H1508 C1501 0.961 . S
H1509 C1501 0.960 . S
H1510 C1502 0.930 . S
H1511 C1503 0.929 . S
H1512 C1520 0.929 . S
H1513 C1522 0.930 . S
H1514 C1524 0.930 . S
H1515 C1527 0.929 . S
H1516 C1530 0.930 . S
H1517 C1532 0.960 . S
H1518 C1532 0.960 . S
H1519 C1532 0.960 1_545 S
C1520 H1512 0.929 . S
C1520 C1521 1.377 . S
C1520 C1522 1.384 . S
C1521 C1520 1.377 . S
C1521 C1527 1.390 . S
C1522 H1513 0.930 . S
C1522 C1520 1.384 . S
C1522 C1523 1.372 . S
C1523 C1522 1.372 . S
C1523 C1524 1.400 . S
C1523 C1528 1.490 . S
C1524 H1514 0.930 . S
C1524 C1523 1.400 . S
C1524 C1527 1.386 . S
H1525 C1541 0.930 . S
H1526 C1542 0.931 1_545 S
C1527 H1515 0.929 . S
C1527 C1521 1.390 . S
C1527 C1524 1.386 . S
C1528 C1523 1.490 . S
C1528 C1530 1.395 . S
C1528 C1531 1.403 . S
H1529 C1535 0.930 . S
C1530 H1516 0.930 . S
C1530 C1528 1.395 . S
C1530 C1533 1.403 . S
C1531 C1528 1.403 . S
C1531 C1532 1.524 1_545 S
C1531 C1535 1.400 1_545 S
C1532 H1517 0.960 . S
C1532 H1518 0.960 . S
C1532 H1519 0.960 1_565 S
C1532 C1531 1.524 1_565 S
C1533 C1530 1.403 . S
C1533 C1534 1.392 1_545 S
C1533 C1537 1.495 . S
C1534 C1533 1.392 1_565 S
C1534 C1535 1.385 . S
C1534 C1536 1.478 . S
C1535 H1529 0.930 . S
C1535 C1531 1.400 1_565 S
C1535 C1534 1.385 . S
C1536 C1534 1.478 . S
C1536 C1538 1.381 . S
C1536 C1542 1.383 . S
C1537 C1533 1.495 . S
C1537 H1543 0.959 . S
C1537 H1544 0.961 . S
C1537 H1545 0.960 1_545 S
C1538 C1536 1.381 . S
C1538 C1539 1.394 . S
C1538 H1546 0.930 . S
C1539 C1538 1.394 . S
C1539 C1540 1.383 . S
C1539 H1547 0.929 . S
C1540 C1539 1.383 . S
C1540 C1541 1.377 . S
C1541 H1525 0.930 . S
C1541 C1540 1.377 . S
C1541 C1542 1.379 . S
C1542 H1526 0.931 1_565 S
C1542 C1536 1.383 . S
C1542 C1541 1.379 . S
H1543 C1537 0.959 . S
H1544 C1537 0.961 . S
H1545 C1537 0.960 1_565 S
H1546 C1538 0.930 . S
H1547 C1539 0.929 . S
H1548 C1556 0.929 . S
H1549 C1558 0.930 . S
H1550 C1560 0.930 . S
H1551 C1563 0.929 . S
H1552 C1566 0.930 . S
H1553 C1568 0.960 . S
H1554 C1568 0.960 . S
H1555 C1568 0.960 . S
C1556 H1548 0.929 . S
C1556 C1557 1.377 . S
C1556 C1558 1.384 . S
C1557 C1556 1.377 . S
C1557 C1563 1.390 . S
C1558 H1549 0.930 . S
C1558 C1556 1.384 . S
C1558 C1559 1.372 . S
C1559 C1558 1.372 . S
C1559 C1560 1.400 . S
C1559 C1564 1.490 . S
C1560 H1550 0.930 . S
C1560 C1559 1.400 . S
C1560 C1563 1.386 . S
H1561 C1577 0.930 . S
H1562 C1578 0.931 . S
C1563 H1551 0.929 . S
C1563 C1557 1.390 . S
C1563 C1560 1.386 . S
C1564 C1559 1.490 . S
C1564 C1566 1.395 . S
C1564 C1567 1.403 . S
H1565 C1571 0.930 . S
C1566 H1552 0.930 . S
C1566 C1564 1.395 . S
C1566 C1569 1.403 . S
C1567 C1564 1.403 . S
C1567 C1568 1.524 . S
C1567 C1571 1.400 . S
C1568 H1553 0.960 . S
C1568 H1554 0.960 . S
C1568 H1555 0.960 . S
C1568 C1567 1.524 . S
C1569 C1566 1.403 . S
C1569 C1570 1.392 . S
C1569 C1573 1.495 . S
C1570 C1569 1.392 . S
C1570 C1571 1.385 . S
C1570 C1572 1.478 . S
C1571 H1565 0.930 . S
C1571 C1567 1.400 . S
C1571 C1570 1.385 . S
C1572 C1570 1.478 . S
C1572 C1574 1.381 . S
C1572 C1578 1.383 . S
C1573 C1569 1.495 . S
C1573 H1579 0.959 . S
C1573 H1580 0.961 . S
C1573 H1581 0.960 . S
C1574 C1572 1.381 . S
C1574 C1575 1.394 . S
C1574 H1582 0.930 . S
C1575 C1574 1.394 . S
C1575 C1576 1.383 . S
C1575 H1583 0.929 . S
C1576 C1575 1.383 . S
C1576 C1577 1.377 . S
C1577 H1561 0.930 . S
C1577 C1576 1.377 . S
C1577 C1578 1.379 . S
C1578 H1562 0.931 . S
C1578 C1572 1.383 . S
C1578 C1577 1.379 . S
H1579 C1573 0.959 . S
H1580 C1573 0.961 . S
H1581 C1573 0.960 . S
H1582 C1574 0.930 . S
H1583 C1575 0.929 . S
H1584 C1592 0.929 . S
H1585 C1594 0.930 . S
H1586 C1596 0.930 . S
H1587 C1599 0.929 . S
H1588 C1602 0.930 . S
H1589 C1604 0.960 . S
H1590 C1604 0.960 . S
H1591 C1604 0.960 . S
C1592 H1584 0.929 . S
C1592 C1593 1.377 . S
C1592 C1594 1.384 . S
C1593 C1592 1.377 . S
C1593 C1599 1.390 . S
C1594 H1585 0.930 . S
C1594 C1592 1.384 . S
C1594 C1595 1.372 . S
C1595 C1594 1.372 . S
C1595 C1596 1.400 . S
C1595 C1600 1.490 . S
C1596 H1586 0.930 . S
C1596 C1595 1.400 . S
C1596 C1599 1.386 . S
H1597 C1613 0.930 . S
H1598 C1614 0.931 . S
C1599 H1587 0.929 . S
C1599 C1593 1.390 . S
C1599 C1596 1.386 . S
C1600 C1595 1.490 . S
C1600 C1602 1.395 . S
C1600 C1603 1.403 . S
H1601 C1607 0.930 . S
C1602 H1588 0.930 . S
C1602 C1600 1.395 . S
C1602 C1605 1.403 1_545 S
C1603 C1600 1.403 . S
C1603 C1604 1.524 . S
C1603 C1607 1.400 1_545 S
C1604 H1589 0.960 . S
C1604 H1590 0.960 . S
C1604 H1591 0.960 . S
C1604 C1603 1.524 . S
C1605 C1602 1.403 1_565 S
C1605 C1606 1.392 . S
C1605 C1609 1.495 . S
C1606 C1605 1.392 . S
C1606 C1607 1.385 . S
C1606 C1608 1.478 . S
C1607 H1601 0.930 . S
C1607 C1603 1.400 1_565 S
C1607 C1606 1.385 . S
C1608 C1606 1.478 . S
C1608 C1610 1.381 . S
C1608 C1614 1.383 . S
C1609 C1605 1.495 . S
C1609 H1615 0.959 . S
C1609 H1616 0.961 . S
C1609 H1617 0.960 . S
C1610 C1608 1.381 . S
C1610 C1611 1.394 . S
C1610 H1618 0.930 . S
C1611 C1610 1.394 . S
C1611 C1612 1.383 . S
C1611 H1619 0.929 . S
C1612 C1611 1.383 . S
C1612 C1613 1.377 . S
C1613 H1597 0.930 . S
C1613 C1612 1.377 . S
C1613 C1614 1.379 . S
C1614 H1598 0.931 . S
C1614 C1608 1.383 . S
C1614 C1613 1.379 . S
H1615 C1609 0.959 . S
H1616 C1609 0.961 . S
H1617 C1609 0.960 . S
H1618 C1610 0.930 . S
H1619 C1611 0.929 . S
H1620 C1628 0.929 . S
H1621 C1630 0.930 . S
H1622 C1632 0.930 . S
H1623 C1635 0.929 . S
H1624 C1638 0.930 . S
H1625 C1640 0.960 . S
H1626 C1640 0.960 . S
H1627 C1640 0.960 . S
C1628 H1620 0.929 . S
C1628 C1629 1.377 . S
C1628 C1630 1.384 . S
C1629 C1628 1.377 . S
C1629 C1635 1.390 . S
C1630 H1621 0.930 . S
C1630 C1628 1.384 . S
C1630 C1631 1.372 . S
C1631 C1630 1.372 . S
C1631 C1632 1.400 . S
C1631 C1636 1.490 . S
C1632 H1622 0.930 . S
C1632 C1631 1.400 . S
C1632 C1635 1.386 . S
H1633 C1649 0.930 . S
H1634 C1650 0.931 . S
C1635 H1623 0.929 . S
C1635 C1629 1.390 . S
C1635 C1632 1.386 . S
C1636 C1631 1.490 . S
C1636 C1638 1.395 . S
C1636 C1639 1.403 . S
H1637 C1643 0.930 . S
C1638 H1624 0.930 . S
C1638 C1636 1.395 . S
C1638 C1641 1.403 1_655 S
C1639 C1636 1.403 . S
C1639 C1640 1.524 . S
C1639 C1643 1.400 1_655 S
C1640 H1625 0.960 . S
C1640 H1626 0.960 . S
C1640 H1627 0.960 . S
C1640 C1639 1.524 . S
C1641 C1638 1.403 1_455 S
C1641 C1642 1.392 . S
C1641 C1645 1.495 . S
C1642 C1641 1.392 . S
C1642 C1643 1.385 . S
C1642 C1644 1.478 . S
C1643 H1637 0.930 . S
C1643 C1639 1.400 1_455 S
C1643 C1642 1.385 . S
C1644 C1642 1.478 . S
C1644 C1646 1.381 . S
C1644 C1650 1.383 . S
C1645 C1641 1.495 . S
C1645 H1651 0.959 . S
C1645 H1652 0.961 . S
C1645 H1653 0.960 . S
C1646 C1644 1.381 . S
C1646 C1647 1.394 . S
C1646 H1654 0.930 . S
C1647 C1646 1.394 . S
C1647 C1648 1.383 . S
C1647 H1655 0.929 . S
C1648 C1647 1.383 . S
C1648 C1649 1.377 . S
C1649 H1633 0.930 . S
C1649 C1648 1.377 . S
C1649 C1650 1.379 . S
C1650 H1634 0.931 . S
C1650 C1644 1.383 . S
C1650 C1649 1.379 . S
H1651 C1645 0.959 . S
H1652 C1645 0.961 . S
H1653 C1645 0.960 . S
H1654 C1646 0.930 . S
H1655 C1647 0.929 . S
H1656 C1664 0.929 . S
H1657 C1666 0.930 . S
H1658 C1668 0.930 . S
H1659 C1671 0.929 . S
H1660 C1674 0.930 . S
H1661 C1676 0.960 . S
H1662 C1676 0.960 . S
H1663 C1676 0.960 . S
C1664 H1656 0.929 . S
C1664 C1665 1.377 . S
C1664 C1666 1.384 . S
C1665 C1664 1.377 . S
C1665 C1671 1.390 . S
C1666 H1657 0.930 . S
C1666 C1664 1.384 . S
C1666 C1667 1.372 . S
C1667 C1666 1.372 . S
C1667 C1668 1.400 . S
C1667 C1672 1.490 . S
C1668 H1658 0.930 . S
C1668 C1667 1.400 . S
C1668 C1671 1.386 . S
H1669 C1685 0.930 . S
H1670 C1686 0.931 . S
C1671 H1659 0.929 . S
C1671 C1665 1.390 . S
C1671 C1668 1.386 . S
C1672 C1667 1.490 . S
C1672 C1674 1.395 . S
C1672 C1675 1.403 . S
H1673 C1679 0.930 . S
C1674 H1660 0.930 . S
C1674 C1672 1.395 . S
C1674 C1677 1.403 . S
C1675 C1672 1.403 . S
C1675 C1676 1.524 . S
C1675 C1679 1.400 . S
C1676 H1661 0.960 . S
C1676 H1662 0.960 . S
C1676 H1663 0.960 . S
C1676 C1675 1.524 . S
C1677 C1674 1.403 . S
C1677 C1678 1.392 . S
C1677 C1681 1.495 . S
C1678 C1677 1.392 . S
C1678 C1679 1.385 . S
C1678 C1680 1.478 . S
C1679 H1673 0.930 . S
C1679 C1675 1.400 . S
C1679 C1678 1.385 . S
C1680 C1678 1.478 . S
C1680 C1682 1.381 . S
C1680 C1686 1.383 . S
C1681 C1677 1.495 . S
C1681 H1687 0.959 . S
C1681 H1688 0.961 . S
C1681 H1689 0.960 . S
C1682 C1680 1.381 . S
C1682 C1683 1.394 . S
C1682 H1690 0.930 . S
C1683 C1682 1.394 . S
C1683 C1684 1.383 . S
C1683 H1691 0.929 . S
C1684 C1683 1.383 . S
C1684 C1685 1.377 . S
C1685 H1669 0.930 . S
C1685 C1684 1.377 . S
C1685 C1686 1.379 . S
C1686 H1670 0.931 . S
C1686 C1680 1.383 . S
C1686 C1685 1.379 . S
H1687 C1681 0.959 . S
H1688 C1681 0.961 . S
H1689 C1681 0.960 . S
H1690 C1682 0.930 . S
H1691 C1683 0.929 . S
H1692 C1700 0.929 . S
H1693 C1702 0.930 . S
H1694 C1704 0.930 . S
H1695 C1707 0.929 . S
H1696 C1710 0.930 . S
H1697 C1712 0.960 . S
H1698 C1712 0.960 . S
H1699 C1712 0.960 . S
C1700 H1692 0.929 . S
C1700 C1701 1.377 . S
C1700 C1702 1.384 . S
C1701 C1700 1.377 . S
C1701 C1707 1.390 . S
C1702 H1693 0.930 . S
C1702 C1700 1.384 . S
C1702 C1703 1.372 . S
C1703 C1702 1.372 . S
C1703 C1704 1.400 . S
C1703 C1708 1.490 . S
C1704 H1694 0.930 . S
C1704 C1703 1.400 . S
C1704 C1707 1.386 . S
H1705 C1721 0.930 . S
H1706 C1722 0.931 . S
C1707 H1695 0.929 . S
C1707 C1701 1.390 . S
C1707 C1704 1.386 . S
C1708 C1703 1.490 . S
C1708 C1710 1.395 . S
C1708 C1711 1.403 . S
H1709 C1715 0.930 . S
C1710 H1696 0.930 . S
C1710 C1708 1.395 . S
C1710 C1713 1.403 1_565 S
C1711 C1708 1.403 . S
C1711 C1712 1.524 . S
C1711 C1715 1.400 1_565 S
C1712 H1697 0.960 . S
C1712 H1698 0.960 . S
C1712 H1699 0.960 . S
C1712 C1711 1.524 . S
C1713 C1710 1.403 1_545 S
C1713 C1714 1.392 . S
C1713 C1717 1.495 . S
C1714 C1713 1.392 . S
C1714 C1715 1.385 . S
C1714 C1716 1.478 . S
C1715 H1709 0.930 . S
C1715 C1711 1.400 1_545 S
C1715 C1714 1.385 . S
C1716 C1714 1.478 . S
C1716 C1718 1.381 . S
C1716 C1722 1.383 . S
C1717 C1713 1.495 . S
C1717 H1723 0.959 . S
C1717 H1724 0.961 . S
C1717 H1725 0.960 . S
C1718 C1716 1.381 . S
C1718 C1719 1.394 . S
C1718 H1726 0.930 . S
C1719 C1718 1.394 . S
C1719 C1720 1.383 . S
C1719 H1727 0.929 . S
C1720 C1719 1.383 . S
C1720 C1721 1.377 . S
C1721 H1705 0.930 . S
C1721 C1720 1.377 . S
C1721 C1722 1.379 . S
C1722 H1706 0.931 . S
C1722 C1716 1.383 . S
C1722 C1721 1.379 . S
H1723 C1717 0.959 . S
H1724 C1717 0.961 . S
H1725 C1717 0.960 . S
H1726 C1718 0.930 . S
H1727 C1719 0.929 . S
H1728 C1736 0.929 . S
H1729 C1738 0.930 . S
H1730 C1740 0.930 . S
H1731 C1743 0.929 . S
H1732 C1746 0.930 . S
H1733 C1748 0.960 . S
H1734 C1748 0.960 . S
H1735 C1748 0.960 . S
C1736 H1728 0.929 . S
C1736 C1737 1.377 . S
C1736 C1738 1.384 . S
C1737 C1736 1.377 . S
C1737 C1743 1.390 . S
C1738 H1729 0.930 . S
C1738 C1736 1.384 . S
C1738 C1739 1.372 . S
C1739 C1738 1.372 . S
C1739 C1740 1.400 . S
C1739 C1744 1.490 . S
C1740 H1730 0.930 . S
C1740 C1739 1.400 . S
C1740 C1743 1.386 . S
H1741 C1757 0.930 . S
H1742 C1758 0.931 . S
C1743 H1731 0.929 . S
C1743 C1737 1.390 . S
C1743 C1740 1.386 . S
C1744 C1739 1.490 . S
C1744 C1746 1.395 . S
C1744 C1747 1.403 . S
H1745 C1751 0.930 . S
C1746 H1732 0.930 . S
C1746 C1744 1.395 . S
C1746 C1749 1.403 1_655 S
C1747 C1744 1.403 . S
C1747 C1748 1.524 . S
C1747 C1751 1.400 1_655 S
C1748 H1733 0.960 . S
C1748 H1734 0.960 . S
C1748 H1735 0.960 . S
C1748 C1747 1.524 . S
C1749 C1746 1.403 1_455 S
C1749 C1750 1.392 . S
C1749 C1753 1.495 . S
C1750 C1749 1.392 . S
C1750 C1751 1.385 . S
C1750 C1752 1.478 . S
C1751 H1745 0.930 . S
C1751 C1747 1.400 1_455 S
C1751 C1750 1.385 . S
C1752 C1750 1.478 . S
C1752 C1754 1.381 . S
C1752 C1758 1.383 . S
C1753 C1749 1.495 . S
C1753 H1759 0.959 . S
C1753 H1760 0.961 . S
C1753 H1761 0.960 . S
C1754 C1752 1.381 . S
C1754 C1755 1.394 . S
C1754 H1762 0.930 . S
C1755 C1754 1.394 . S
C1755 C1756 1.383 . S
C1755 H1763 0.929 . S
C1756 C1755 1.383 . S
C1756 C1757 1.377 . S
C1757 H1741 0.930 . S
C1757 C1756 1.377 . S
C1757 C1758 1.379 . S
C1758 H1742 0.931 . S
C1758 C1752 1.383 . S
C1758 C1757 1.379 . S
H1759 C1753 0.959 . S
H1760 C1753 0.961 . S
H1761 C1753 0.960 . S
H1762 C1754 0.930 . S
H1763 C1755 0.929 . S
H1764 C1772 0.929 . S
H1765 C1774 0.930 . S
H1766 C1776 0.930 . S
H1767 C1779 0.931 1_655 S
H1768 C1782 0.930 . S
H1769 C1784 0.960 . S
H1770 C1784 0.960 . S
H1771 C1784 0.960 . S
C1772 H1764 0.929 . S
C1772 C1773 1.377 . S
C1772 C1774 1.384 1_655 S
C1773 C1772 1.377 . S
C1773 C1779 1.390 1_655 S
C1774 H1765 0.930 . S
C1774 C1772 1.384 1_455 S
C1774 C1775 1.372 . S
C1775 C1774 1.372 . S
C1775 C1776 1.400 . S
C1775 C1780 1.490 . S
C1776 H1766 0.930 . S
C1776 C1775 1.400 . S
C1776 C1779 1.386 . S
H1777 C1793 0.930 . S
H1778 C1794 0.931 . S
C1779 H1767 0.931 1_455 S
C1779 C1773 1.390 1_455 S
C1779 C1776 1.386 . S
C1780 C1775 1.490 . S
C1780 C1782 1.395 . S
C1780 C1783 1.403 . S
H1781 C1787 0.930 . S
C1782 H1768 0.930 . S
C1782 C1780 1.395 . S
C1782 C1785 1.403 . S
C1783 C1780 1.403 . S
C1783 C1784 1.524 . S
C1783 C1787 1.400 . S
C1784 H1769 0.960 . S
C1784 H1770 0.960 . S
C1784 H1771 0.960 . S
C1784 C1783 1.524 . S
C1785 C1782 1.403 . S
C1785 C1786 1.392 . S
C1785 C1789 1.495 . S
C1786 C1785 1.392 . S
C1786 C1787 1.385 . S
C1786 C1788 1.478 . S
C1787 H1781 0.930 . S
C1787 C1783 1.400 . S
C1787 C1786 1.385 . S
C1788 C1786 1.478 . S
C1788 C1790 1.381 . S
C1788 C1794 1.383 . S
C1789 C1785 1.495 . S
C1789 H1795 0.959 . S
C1789 H1796 0.961 . S
C1789 H1797 0.960 . S
C1790 C1788 1.381 . S
C1790 C1791 1.394 . S
C1790 H1798 0.930 . S
C1791 C1790 1.394 . S
C1791 C1792 1.383 . S
C1791 H1799 0.929 . S
C1792 C1791 1.383 . S
C1792 C1793 1.377 . S
C1793 H1777 0.930 . S
C1793 C1792 1.377 . S
C1793 C1794 1.379 . S
C1794 H1778 0.931 . S
C1794 C1788 1.383 . S
C1794 C1793 1.379 . S
H1795 C1789 0.959 . S
H1796 C1789 0.961 . S
H1797 C1789 0.960 . S
H1798 C1790 0.930 . S
H1799 C1791 0.929 . S
H1800 C1808 0.929 . S
H1801 C1810 0.930 . S
H1802 C1812 0.930 . S
H1803 C1815 0.929 . S
H1804 C1818 0.930 . S
H1805 C1820 0.960 . S
H1806 C1820 0.960 . S
H1807 C1820 0.960 . S
C1808 H1800 0.929 . S
C1808 C1809 1.377 . S
C1808 C1810 1.384 . S
C1809 C1808 1.377 . S
C1809 C1815 1.390 . S
C1810 H1801 0.930 . S
C1810 C1808 1.384 . S
C1810 C1811 1.372 . S
C1811 C1810 1.372 . S
C1811 C1812 1.400 . S
C1811 C1816 1.490 1_545 S
C1812 H1802 0.930 . S
C1812 C1811 1.400 . S
C1812 C1815 1.386 . S
H1813 C1829 0.930 . S
H1814 C1830 0.931 . S
C1815 H1803 0.929 . S
C1815 C1809 1.390 . S
C1815 C1812 1.386 . S
C1816 C1811 1.490 1_565 S
C1816 C1818 1.395 . S
C1816 C1819 1.403 . S
H1817 C1823 0.930 . S
C1818 H1804 0.930 . S
C1818 C1816 1.395 . S
C1818 C1821 1.403 . S
C1819 C1816 1.403 . S
C1819 C1820 1.524 . S
C1819 C1823 1.400 . S
C1820 H1805 0.960 . S
C1820 H1806 0.960 . S
C1820 H1807 0.960 . S
C1820 C1819 1.524 . S
C1821 C1818 1.403 . S
C1821 C1822 1.392 . S
C1821 C1825 1.495 . S
C1822 C1821 1.392 . S
C1822 C1823 1.385 . S
C1822 C1824 1.478 . S
C1823 H1817 0.930 . S
C1823 C1819 1.400 . S
C1823 C1822 1.385 . S
C1824 C1822 1.478 . S
C1824 C1826 1.381 . S
C1824 C1830 1.383 . S
C1825 C1821 1.495 . S
C1825 H1831 0.959 . S
C1825 H1832 0.961 . S
C1825 H1833 0.960 . S
C1826 C1824 1.381 . S
C1826 C1827 1.394 . S
C1826 H1834 0.930 . S
C1827 C1826 1.394 . S
C1827 C1828 1.383 . S
C1827 H1835 0.929 . S
C1828 C1827 1.383 . S
C1828 C1829 1.377 . S
C1829 H1813 0.930 . S
C1829 C1828 1.377 . S
C1829 C1830 1.379 . S
C1830 H1814 0.931 . S
C1830 C1824 1.383 . S
C1830 C1829 1.379 . S
H1831 C1825 0.959 . S
H1832 C1825 0.961 . S
H1833 C1825 0.960 . S
H1834 C1826 0.930 . S
H1835 C1827 0.929 . S
H1836 C1844 0.929 . S
H1837 C1846 0.930 . S
H1838 C1848 0.930 . S
H1839 C1851 0.929 . S
H1840 C1854 0.930 . S
H1841 C1856 0.960 1_455 S
H1842 C1856 0.960 . S
H1843 C1856 0.960 . S
C1844 H1836 0.929 . S
C1844 C1845 1.377 . S
C1844 C1846 1.384 . S
C1845 C1844 1.377 . S
C1845 C1851 1.390 . S
C1846 H1837 0.930 . S
C1846 C1844 1.384 . S
C1846 C1847 1.372 . S
C1847 C1846 1.372 . S
C1847 C1848 1.400 . S
C1847 C1852 1.490 1_655 S
C1848 H1838 0.930 . S
C1848 C1847 1.400 . S
C1848 C1851 1.386 . S
H1849 C1865 0.930 . S
H1850 C1866 0.931 . S
C1851 H1839 0.929 . S
C1851 C1845 1.390 . S
C1851 C1848 1.386 . S
C1852 C1847 1.490 1_455 S
C1852 C1854 1.395 . S
C1852 C1855 1.403 . S
H1853 C1859 0.930 . S
C1854 H1840 0.930 . S
C1854 C1852 1.395 . S
C1854 C1857 1.403 . S
C1855 C1852 1.403 . S
C1855 C1856 1.524 1_455 S
C1855 C1859 1.400 . S
C1856 H1841 0.960 1_655 S
C1856 H1842 0.960 . S
C1856 H1843 0.960 . S
C1856 C1855 1.524 1_655 S
C1857 C1854 1.403 . S
C1857 C1858 1.392 . S
C1857 C1861 1.495 . S
C1858 C1857 1.392 . S
C1858 C1859 1.385 . S
C1858 C1860 1.478 . S
C1859 H1853 0.930 . S
C1859 C1855 1.400 . S
C1859 C1858 1.385 . S
C1860 C1858 1.478 . S
C1860 C1862 1.381 . S
C1860 C1866 1.383 . S
C1861 C1857 1.495 . S
C1861 H1867 0.959 . S
C1861 H1868 0.961 . S
C1861 H1869 0.960 . S
C1862 C1860 1.381 . S
C1862 C1863 1.394 . S
C1862 H1870 0.930 . S
C1863 C1862 1.394 . S
C1863 C1864 1.383 1_565 S
C1863 H1871 0.929 . S
C1864 C1863 1.383 1_545 S
C1864 C1865 1.377 . S
C1865 H1849 0.930 . S
C1865 C1864 1.377 . S
C1865 C1866 1.379 1_545 S
C1866 H1850 0.931 . S
C1866 C1860 1.383 . S
C1866 C1865 1.379 1_565 S
H1867 C1861 0.959 . S
H1868 C1861 0.961 . S
H1869 C1861 0.960 . S
H1870 C1862 0.930 . S
H1871 C1863 0.929 . S
H1872 C1880 0.929 . S
H1873 C1882 0.930 . S
H1874 C1884 0.930 . S
H1875 C1887 0.929 . S
H1876 C1890 0.930 . S
H1877 C1892 0.960 . S
H1878 C1892 0.960 . S
H1879 C1892 0.960 . S
C1880 H1872 0.929 . S
C1880 C1881 1.377 . S
C1880 C1882 1.384 . S
C1881 C1880 1.377 . S
C1881 C1887 1.390 . S
C1882 H1873 0.930 . S
C1882 C1880 1.384 . S
C1882 C1883 1.372 . S
C1883 C1882 1.372 . S
C1883 C1884 1.400 . S
C1883 C1888 1.490 . S
C1884 H1874 0.930 . S
C1884 C1883 1.400 . S
C1884 C1887 1.386 . S
H1885 C1901 0.930 . S
H1886 C1902 0.931 . S
C1887 H1875 0.929 . S
C1887 C1881 1.390 . S
C1887 C1884 1.386 . S
C1888 C1883 1.490 . S
C1888 C1890 1.395 . S
C1888 C1891 1.403 . S
H1889 C1895 0.930 . S
C1890 H1876 0.930 . S
C1890 C1888 1.395 . S
C1890 C1893 1.403 . S
C1891 C1888 1.403 . S
C1891 C1892 1.524 . S
C1891 C1895 1.400 . S
C1892 H1877 0.960 . S
C1892 H1878 0.960 . S
C1892 H1879 0.960 . S
C1892 C1891 1.524 . S
C1893 C1890 1.403 . S
C1893 C1894 1.392 . S
C1893 C1897 1.495 . S
C1894 C1893 1.392 . S
C1894 C1895 1.385 . S
C1894 C1896 1.478 . S
C1895 H1889 0.930 . S
C1895 C1891 1.400 . S
C1895 C1894 1.385 . S
C1896 C1894 1.478 . S
C1896 C1898 1.381 . S
C1896 C1902 1.383 . S
C1897 C1893 1.495 . S
C1897 H1903 0.959 . S
C1897 H1904 0.961 . S
C1897 H1905 0.960 . S
C1898 C1896 1.381 . S
C1898 C1899 1.394 . S
C1898 H1906 0.930 . S
C1899 C1898 1.394 . S
C1899 C1900 1.383 1_545 S
C1899 H1907 0.929 . S
C1900 C1899 1.383 1_565 S
C1900 C1901 1.377 . S
C1901 H1885 0.930 . S
C1901 C1900 1.377 . S
C1901 C1902 1.379 1_565 S
C1902 H1886 0.931 . S
C1902 C1896 1.383 . S
C1902 C1901 1.379 1_545 S
H1903 C1897 0.959 . S
H1904 C1897 0.961 . S
H1905 C1897 0.960 . S
H1906 C1898 0.930 . S
H1907 C1899 0.929 . S
H1908 C1916 0.929 . S
H1909 C1918 0.930 . S
H1910 C1920 0.930 . S
H1911 C1923 0.929 . S
H1912 C1926 0.930 . S
H1913 C1928 0.960 . S
H1914 C1928 0.960 . S
H1915 C1928 0.960 . S
C1916 H1908 0.929 . S
C1916 C1917 1.377 . S
C1916 C1918 1.384 1_455 S
C1917 C1916 1.377 . S
C1917 C1923 1.390 1_455 S
C1918 H1909 0.930 . S
C1918 C1916 1.384 1_655 S
C1918 C1919 1.372 . S
C1919 C1918 1.372 . S
C1919 C1920 1.400 . S
C1919 C1924 1.490 . S
C1920 H1910 0.930 . S
C1920 C1919 1.400 . S
C1920 C1923 1.386 . S
H1921 C1937 0.930 . S
H1922 C1938 0.931 1_545 S
C1923 H1911 0.929 . S
C1923 C1917 1.390 1_655 S
C1923 C1920 1.386 . S
C1924 C1919 1.490 . S
C1924 C1926 1.395 . S
C1924 C1927 1.403 . S
H1925 C1931 0.930 . S
C1926 H1912 0.930 . S
C1926 C1924 1.395 . S
C1926 C1929 1.403 . S
C1927 C1924 1.403 . S
C1927 C1928 1.524 . S
C1927 C1931 1.400 . S
C1928 H1913 0.960 . S
C1928 H1914 0.960 . S
C1928 H1915 0.960 . S
C1928 C1927 1.524 . S
C1929 C1926 1.403 . S
C1929 C1930 1.392 . S
C1929 C1933 1.495 . S
C1930 C1929 1.392 . S
C1930 C1931 1.385 . S
C1930 C1932 1.478 1_545 S
C1931 H1925 0.930 . S
C1931 C1927 1.400 . S
C1931 C1930 1.385 . S
C1932 C1930 1.478 1_565 S
C1932 C1934 1.381 . S
C1932 C1938 1.383 . S
C1933 C1929 1.495 . S
C1933 H1939 0.959 . S
C1933 H1940 0.961 . S
C1933 H1941 0.960 . S
C1934 C1932 1.381 . S
C1934 C1935 1.394 . S
C1934 H1942 0.930 . S
C1935 C1934 1.394 . S
C1935 C1936 1.383 . S
C1935 H1943 0.929 . S
C1936 C1935 1.383 . S
C1936 C1937 1.377 . S
C1937 H1921 0.930 . S
C1937 C1936 1.377 . S
C1937 C1938 1.379 . S
C1938 H1922 0.931 1_565 S
C1938 C1932 1.383 . S
C1938 C1937 1.379 . S
H1939 C1933 0.959 . S
H1940 C1933 0.961 . S
H1941 C1933 0.960 . S
H1942 C1934 0.930 . S
H1943 C1935 0.929 . S
H1944 C1952 0.929 . S
H1945 C1954 0.930 . S
H1946 C1956 0.930 . S
H1947 C1959 0.929 . S
H1948 C1962 0.930 . S
H1949 C1964 0.960 . S
H1950 C1964 0.960 1_455 S
H1951 C1964 0.960 . S
C1952 H1944 0.929 . S
C1952 C1953 1.377 . S
C1952 C1954 1.384 . S
C1953 C1952 1.377 . S
C1953 C1959 1.390 . S
C1954 H1945 0.930 . S
C1954 C1952 1.384 . S
C1954 C1955 1.372 . S
C1955 C1954 1.372 . S
C1955 C1956 1.400 . S
C1955 C1960 1.490 1_455 S
C1956 H1946 0.930 . S
C1956 C1955 1.400 . S
C1956 C1959 1.386 . S
H1957 C1973 0.930 . S
H1958 C1974 0.931 . S
C1959 H1947 0.929 . S
C1959 C1953 1.390 . S
C1959 C1956 1.386 . S
C1960 C1955 1.490 1_655 S
C1960 C1962 1.395 . S
C1960 C1963 1.403 . S
H1961 C1967 0.930 . S
C1962 H1948 0.930 . S
C1962 C1960 1.395 . S
C1962 C1965 1.403 . S
C1963 C1960 1.403 . S
C1963 C1964 1.524 . S
C1963 C1967 1.400 . S
C1964 H1949 0.960 . S
C1964 H1950 0.960 1_655 S
C1964 H1951 0.960 . S
C1964 C1963 1.524 . S
C1965 C1962 1.403 . S
C1965 C1966 1.392 . S
C1965 C1969 1.495 . S
C1966 C1965 1.392 . S
C1966 C1967 1.385 . S
C1966 C1968 1.478 . S
C1967 H1961 0.930 . S
C1967 C1963 1.400 . S
C1967 C1966 1.385 . S
C1968 C1966 1.478 . S
C1968 C1970 1.381 . S
C1968 C1974 1.383 . S
C1969 C1965 1.495 . S
C1969 H1975 0.959 . S
C1969 H1976 0.961 . S
C1969 H1977 0.960 . S
C1970 C1968 1.381 . S
C1970 C1971 1.394 . S
C1970 H1978 0.930 . S
C1971 C1970 1.394 . S
C1971 C1972 1.383 . S
C1971 H1979 0.929 . S
C1972 C1971 1.383 . S
C1972 C1973 1.377 . S
C1973 H1957 0.930 . S
C1973 C1972 1.377 . S
C1973 C1974 1.379 . S
C1974 H1958 0.931 . S
C1974 C1968 1.383 . S
C1974 C1973 1.379 . S
H1975 C1969 0.959 . S
H1976 C1969 0.961 . S
H1977 C1969 0.960 . S
H1978 C1970 0.930 . S
H1979 C1971 0.929 . S
H1980 C1988 0.929 . S
H1981 C1990 0.930 . S
H1982 C1992 0.930 . S
H1983 C1995 0.929 . S
H1984 C1998 0.930 . S
H1985 C2000 0.960 . S
H1986 C2000 0.960 . S
H1987 C2000 0.960 . S
C1988 H1980 0.929 . S
C1988 C1989 1.377 . S
C1988 C1990 1.384 . S
C1989 C1988 1.377 . S
C1989 C1995 1.390 . S
C1990 H1981 0.930 . S
C1990 C1988 1.384 . S
C1990 C1991 1.372 . S
C1991 C1990 1.372 . S
C1991 C1992 1.400 . S
C1991 C1996 1.490 . S
C1992 H1982 0.930 . S
C1992 C1991 1.400 . S
C1992 C1995 1.386 . S
H1993 C2009 0.930 . S
H1994 C2010 0.931 . S
C1995 H1983 0.929 . S
C1995 C1989 1.390 . S
C1995 C1992 1.386 . S
C1996 C1991 1.490 . S
C1996 C1998 1.395 . S
C1996 C1999 1.403 . S
H1997 C2003 0.930 . S
C1998 H1984 0.930 . S
C1998 C1996 1.395 . S
C1998 C2001 1.403 . S
C1999 C1996 1.403 . S
C1999 C2000 1.524 . S
C1999 C2003 1.400 . S
C2000 H1985 0.960 . S
C2000 H1986 0.960 . S
C2000 H1987 0.960 . S
C2000 C1999 1.524 . S
C2001 C1998 1.403 . S
C2001 C2002 1.392 . S
C2001 C2005 1.495 . S
C2002 C2001 1.392 . S
C2002 C2003 1.385 . S
C2002 C2004 1.478 . S
C2003 H1997 0.930 . S
C2003 C1999 1.400 . S
C2003 C2002 1.385 . S
C2004 C2002 1.478 . S
C2004 C2006 1.381 . S
C2004 C2010 1.383 . S
C2005 C2001 1.495 . S
C2005 H2011 0.959 . S
C2005 H2012 0.961 . S
C2005 H2013 0.960 . S
C2006 C2004 1.381 . S
C2006 C2007 1.394 1_655 S
C2006 H2014 0.930 . S
C2007 C2006 1.394 1_455 S
C2007 C2008 1.383 . S
C2007 H2015 0.929 . S
C2008 C2007 1.383 . S
C2008 C2009 1.377 1_455 S
C2009 H1993 0.930 . S
C2009 C2008 1.377 1_655 S
C2009 C2010 1.379 . S
C2010 H1994 0.931 . S
C2010 C2004 1.383 . S
C2010 C2009 1.379 . S
H2011 C2005 0.959 . S
H2012 C2005 0.961 . S
H2013 C2005 0.960 . S
H2014 C2006 0.930 . S
H2015 C2007 0.929 . S
H2016 C2024 0.929 . S
H2017 C2026 0.930 . S
H2018 C2028 0.930 . S
H2019 C2031 0.929 . S
H2020 C2034 0.930 . S
H2021 C2036 0.984 . S
H2022 C2036 0.947 1_565 S
H2023 C2036 0.936 1_565 S
C2024 H2016 0.929 . S
C2024 C2025 1.377 . S
C2024 C2026 1.384 . S
C2025 C2024 1.377 . S
C2025 C2031 1.390 . S
C2026 H2017 0.930 . S
C2026 C2024 1.384 . S
C2026 C2027 1.372 . S
C2027 C2026 1.372 . S
C2027 C2028 1.400 . S
C2027 C2032 1.490 1_565 S
C2028 H2018 0.930 . S
C2028 C2027 1.400 . S
C2028 C2031 1.386 . S
H2029 C2045 0.930 . S
H2030 C2046 0.931 . S
C2031 H2019 0.929 . S
C2031 C2025 1.390 . S
C2031 C2028 1.386 . S
C2032 C2027 1.490 1_545 S
C2032 C2034 1.395 . S
C2032 C2035 1.403 . S
H2033 C2039 0.930 . S
C2034 H2020 0.930 . S
C2034 C2032 1.395 . S
C2034 C2037 1.403 . S
C2035 C2032 1.403 . S
C2035 C2036 1.539 . S
C2035 C2039 1.400 . S
C2036 H2021 0.984 . S
C2036 H2022 0.947 1_545 S
C2036 H2023 0.936 1_545 S
C2036 C2035 1.539 . S
C2037 C2034 1.403 . S
C2037 C2038 1.392 . S
C2037 C2041 1.495 . S
C2038 C2037 1.392 . S
C2038 C2039 1.385 . S
C2038 C2040 1.478 . S
C2039 H2033 0.930 . S
C2039 C2035 1.400 . S
C2039 C2038 1.385 . S
C2040 C2038 1.478 . S
C2040 C2042 1.381 . S
C2040 C2046 1.383 . S
C2041 C2037 1.495 . S
C2041 H2047 0.959 . S
C2041 H2048 0.961 . S
C2041 H2049 0.960 . S
C2042 C2040 1.381 . S
C2042 C2043 1.394 . S
C2042 H2050 0.930 . S
C2043 C2042 1.394 . S
C2043 C2044 1.383 . S
C2043 H2051 0.929 . S
C2044 C2043 1.383 . S
C2044 C2045 1.377 . S
C2045 H2029 0.930 . S
C2045 C2044 1.377 . S
C2045 C2046 1.379 . S
C2046 H2030 0.931 . S
C2046 C2040 1.383 . S
C2046 C2045 1.379 . S
H2047 C2041 0.959 . S
H2048 C2041 0.961 . S
H2049 C2041 0.960 . S
H2050 C2042 0.930 . S
H2051 C2043 0.929 . S
H2052 C2060 0.929 . S
H2053 C2062 0.930 . S
H2054 C2064 0.930 . S
H2055 C2067 0.929 . S
H2056 C2070 0.930 . S
H2057 C2072 0.960 1_655 S
H2058 C2072 0.960 . S
H2059 C2072 0.960 . S
C2060 H2052 0.929 . S
C2060 C2061 1.377 . S
C2060 C2062 1.384 . S
C2061 C2060 1.377 . S
C2061 C2067 1.390 . S
C2062 H2053 0.930 . S
C2062 C2060 1.384 . S
C2062 C2063 1.372 . S
C2063 C2062 1.372 . S
C2063 C2064 1.400 . S
C2063 C2068 1.490 1_455 S
C2064 H2054 0.930 . S
C2064 C2063 1.400 . S
C2064 C2067 1.386 . S
H2065 C2081 0.930 1_565 S
H2066 C2082 0.931 . S
C2067 H2055 0.929 . S
C2067 C2061 1.390 . S
C2067 C2064 1.386 . S
C2068 C2063 1.490 1_655 S
C2068 C2070 1.395 . S
C2068 C2071 1.403 . S
H2069 C2075 0.930 . S
C2070 H2056 0.930 . S
C2070 C2068 1.395 . S
C2070 C2073 1.403 . S
C2071 C2068 1.403 . S
C2071 C2072 1.524 1_655 S
C2071 C2075 1.400 . S
C2072 H2057 0.960 1_455 S
C2072 H2058 0.960 . S
C2072 H2059 0.960 . S
C2072 C2071 1.524 1_455 S
C2073 C2070 1.403 . S
C2073 C2074 1.392 . S
C2073 C2077 1.495 . S
C2074 C2073 1.392 . S
C2074 C2075 1.385 . S
C2074 C2076 1.478 . S
C2075 H2069 0.930 . S
C2075 C2071 1.400 . S
C2075 C2074 1.385 . S
C2076 C2074 1.478 . S
C2076 C2078 1.381 . S
C2076 C2082 1.383 . S
C2077 C2073 1.495 . S
C2077 H2083 0.959 . S
C2077 H2084 0.961 . S
C2077 H2085 0.960 . S
C2078 C2076 1.381 . S
C2078 C2079 1.394 1_545 S
C2078 H2086 0.930 . S
C2079 C2078 1.394 1_565 S
C2079 C2080 1.383 . S
C2079 H2087 0.929 . S
C2080 C2079 1.383 . S
C2080 C2081 1.377 1_565 S
C2081 H2065 0.930 1_545 S
C2081 C2080 1.377 1_545 S
C2081 C2082 1.379 . S
C2082 H2066 0.931 . S
C2082 C2076 1.383 . S
C2082 C2081 1.379 . S
H2083 C2077 0.959 . S
H2084 C2077 0.961 . S
H2085 C2077 0.960 . S
H2086 C2078 0.930 . S
H2087 C2079 0.929 . S
H2088 C2096 0.929 . S
H2089 C2098 0.930 . S
H2090 C2100 0.930 . S
H2091 C2103 0.929 . S
H2092 C2106 0.930 . S
H2093 C2108 0.960 . S
H2094 C2108 0.960 . S
H2095 C2108 0.960 . S
C2096 H2088 0.929 . S
C2096 C2097 1.377 . S
C2096 C2098 1.384 1_545 S
C2097 C2096 1.377 . S
C2097 C2103 1.390 1_545 S
C2098 H2089 0.930 . S
C2098 C2096 1.384 1_565 S
C2098 C2099 1.372 . S
C2099 C2098 1.372 . S
C2099 C2100 1.400 . S
C2099 C2104 1.490 . S
C2100 H2090 0.930 . S
C2100 C2099 1.400 . S
C2100 C2103 1.386 . S
H2101 C2117 0.930 . S
H2102 C2118 0.931 . S
C2103 H2091 0.929 . S
C2103 C2097 1.390 1_565 S
C2103 C2100 1.386 . S
C2104 C2099 1.490 . S
C2104 C2106 1.395 . S
C2104 C2107 1.403 . S
H2105 C2111 0.930 . S
C2106 H2092 0.930 . S
C2106 C2104 1.395 . S
C2106 C2109 1.403 . S
C2107 C2104 1.403 . S
C2107 C2108 1.524 . S
C2107 C2111 1.400 . S
C2108 H2093 0.960 . S
C2108 H2094 0.960 . S
C2108 H2095 0.960 . S
C2108 C2107 1.524 . S
C2109 C2106 1.403 . S
C2109 C2110 1.392 . S
C2109 C2113 1.495 . S
C2110 C2109 1.392 . S
C2110 C2111 1.385 . S
C2110 C2112 1.478 . S
C2111 H2105 0.930 . S
C2111 C2107 1.400 . S
C2111 C2110 1.385 . S
C2112 C2110 1.478 . S
C2112 C2114 1.381 . S
C2112 C2118 1.383 . S
C2113 C2109 1.495 . S
C2113 H2119 0.959 . S
C2113 H2120 0.961 . S
C2113 H2121 0.960 . S
C2114 C2112 1.381 . S
C2114 C2115 1.394 . S
C2114 H2122 0.930 . S
C2115 C2114 1.394 . S
C2115 C2116 1.383 . S
C2115 H2123 0.929 . S
C2116 C2115 1.383 . S
C2116 C2117 1.377 . S
C2117 H2101 0.930 . S
C2117 C2116 1.377 . S
C2117 C2118 1.379 . S
C2118 H2102 0.931 . S
C2118 C2112 1.383 . S
C2118 C2117 1.379 . S
H2119 C2113 0.959 . S
H2120 C2113 0.961 . S
H2121 C2113 0.960 . S
H2122 C2114 0.930 . S
H2123 C2115 0.929 . S
H2124 C2132 0.929 . S
H2125 C2134 0.930 1_565 S
H2126 C2136 0.930 . S
H2127 C2139 0.929 . S
H2128 C2142 0.930 . S
H2129 C2144 0.960 . S
H2130 C2144 0.960 . S
H2131 C2144 0.995 . S
C2132 H2124 0.929 . S
C2132 C2133 1.377 . S
C2132 C2134 1.384 . S
C2133 C2132 1.377 . S
C2133 C2139 1.390 . S
C2134 H2125 0.930 1_545 S
C2134 C2132 1.384 . S
C2134 C2135 1.372 . S
C2135 C2134 1.372 . S
C2135 C2136 1.400 . S
C2135 C2140 1.490 1_545 S
C2136 H2126 0.930 . S
C2136 C2135 1.400 . S
C2136 C2139 1.386 . S
H2137 C2153 0.930 . S
H2138 C2154 0.931 . S
C2139 H2127 0.929 . S
C2139 C2133 1.390 . S
C2139 C2136 1.386 . S
C2140 C2135 1.490 1_565 S
C2140 C2142 1.395 . S
C2140 C2143 1.403 . S
H2141 C2147 0.930 . S
C2142 H2128 0.930 . S
C2142 C2140 1.395 . S
C2142 C2145 1.403 . S
C2143 C2140 1.403 . S
C2143 C2144 1.524 . S
C2143 C2147 1.400 . S
C2144 H2129 0.960 . S
C2144 H2130 0.960 . S
C2144 H2131 0.995 . S
C2144 C2143 1.524 . S
C2145 C2142 1.403 . S
C2145 C2146 1.392 . S
C2145 C2149 1.495 . S
C2146 C2145 1.392 . S
C2146 C2147 1.385 . S
C2146 C2148 1.478 . S
C2147 H2141 0.930 . S
C2147 C2143 1.400 . S
C2147 C2146 1.385 . S
C2148 C2146 1.478 . S
C2148 C2150 1.381 . S
C2148 C2154 1.383 . S
C2149 C2145 1.495 . S
C2149 H2155 0.959 . S
C2149 H2156 0.961 . S
C2149 H2157 0.960 . S
C2150 C2148 1.381 . S
C2150 C2151 1.394 . S
C2150 H2158 0.930 . S
C2151 C2150 1.394 . S
C2151 C2152 1.383 1_455 S
C2151 H2159 0.929 . S
C2152 C2151 1.383 1_655 S
C2152 C2153 1.377 . S
C2153 H2137 0.930 . S
C2153 C2152 1.377 . S
C2153 C2154 1.379 1_655 S
C2154 H2138 0.931 . S
C2154 C2148 1.383 . S
C2154 C2153 1.379 1_455 S
H2155 C2149 0.959 . S
H2156 C2149 0.961 . S
H2157 C2149 0.960 . S
H2158 C2150 0.930 . S
H2159 C2151 0.929 . S
H2160 C2168 0.929 . S
H2161 C2170 0.930 . S
H2162 C2172 0.930 . S
H2163 C2175 0.929 . S
H2164 C2178 0.930 . S
H2165 C2180 0.960 . S
H2166 C2180 0.960 . S
H2167 C2180 0.960 . S
C2168 H2160 0.929 . S
C2168 C2169 1.377 . S
C2168 C2170 1.384 . S
C2169 C2168 1.377 . S
C2169 C2175 1.390 . S
C2170 H2161 0.930 . S
C2170 C2168 1.384 . S
C2170 C2171 1.372 . S
C2171 C2170 1.372 . S
C2171 C2172 1.400 . S
C2171 C2176 1.490 . S
C2172 H2162 0.930 . S
C2172 C2171 1.400 . S
C2172 C2175 1.386 . S
H2173 C2189 0.930 . S
H2174 C2190 0.931 . S
C2175 H2163 0.929 . S
C2175 C2169 1.390 . S
C2175 C2172 1.386 . S
C2176 C2171 1.490 . S
C2176 C2178 1.395 . S
C2176 C2179 1.403 . S
H2177 C2183 0.930 . S
C2178 H2164 0.930 . S
C2178 C2176 1.395 . S
C2178 C2181 1.403 . S
C2179 C2176 1.403 . S
C2179 C2180 1.524 . S
C2179 C2183 1.400 . S
C2180 H2165 0.960 . S
C2180 H2166 0.960 . S
C2180 H2167 0.960 . S
C2180 C2179 1.524 . S
C2181 C2178 1.403 . S
C2181 C2182 1.392 . S
C2181 C2185 1.495 . S
C2182 C2181 1.392 . S
C2182 C2183 1.385 . S
C2182 C2184 1.478 1_455 S
C2183 H2177 0.930 . S
C2183 C2179 1.400 . S
C2183 C2182 1.385 . S
C2184 C2182 1.478 1_655 S
C2184 C2186 1.381 . S
C2184 C2190 1.383 . S
C2185 C2181 1.495 . S
C2185 H2191 0.959 . S
C2185 H2192 0.961 1_455 S
C2185 H2193 0.960 1_455 S
C2186 C2184 1.381 . S
C2186 C2187 1.394 . S
C2186 H2194 0.930 . S
C2187 C2186 1.394 . S
C2187 C2188 1.383 . S
C2187 H2195 0.929 . S
C2188 C2187 1.383 . S
C2188 C2189 1.377 . S
C2189 H2173 0.930 . S
C2189 C2188 1.377 . S
C2189 C2190 1.379 . S
C2190 H2174 0.931 . S
C2190 C2184 1.383 . S
C2190 C2189 1.379 . S
H2191 C2185 0.959 . S
H2192 C2185 0.961 1_655 S
H2193 C2185 0.960 1_655 S
H2194 C2186 0.930 . S
H2195 C2187 0.929 . S
H2196 C2204 0.929 . S
H2197 C2206 0.930 . S
H2198 C2208 0.930 . S
H2199 C2211 0.929 . S
H2200 C2214 0.930 . S
H2201 C2216 0.960 . S
H2202 C2216 0.960 . S
H2203 C2216 0.960 . S
C2204 H2196 0.929 . S
C2204 C2205 1.377 . S
C2204 C2206 1.384 . S
C2205 C2204 1.377 . S
C2205 C2211 1.390 . S
C2206 H2197 0.930 . S
C2206 C2204 1.384 . S
C2206 C2207 1.372 . S
C2207 C2206 1.372 . S
C2207 C2208 1.400 . S
C2207 C2212 1.490 . S
C2208 H2198 0.930 . S
C2208 C2207 1.400 . S
C2208 C2211 1.386 . S
H2209 C2225 0.930 . S
H2210 C2226 0.931 . S
C2211 H2199 0.929 . S
C2211 C2205 1.390 . S
C2211 C2208 1.386 . S
C2212 C2207 1.490 . S
C2212 C2214 1.395 . S
C2212 C2215 1.403 . S
H2213 C2219 0.930 . S
C2214 H2200 0.930 . S
C2214 C2212 1.395 . S
C2214 C2217 1.403 . S
C2215 C2212 1.403 . S
C2215 C2216 1.524 . S
C2215 C2219 1.400 . S
C2216 H2201 0.960 . S
C2216 H2202 0.960 . S
C2216 H2203 0.960 . S
C2216 C2215 1.524 . S
C2217 C2214 1.403 . S
C2217 C2218 1.392 . S
C2217 C2221 1.495 . S
C2218 C2217 1.392 . S
C2218 C2219 1.385 . S
C2218 C2220 1.478 . S
C2219 H2213 0.930 . S
C2219 C2215 1.400 . S
C2219 C2218 1.385 . S
C2220 C2218 1.478 . S
C2220 C2222 1.381 . S
C2220 C2226 1.383 . S
C2221 C2217 1.495 . S
C2221 H2227 0.959 . S
C2221 H2228 0.961 . S
C2221 H2229 0.960 . S
C2222 C2220 1.381 . S
C2222 C2223 1.394 . S
C2222 H2230 0.930 . S
C2223 C2222 1.394 . S
C2223 C2224 1.383 . S
C2223 H2231 0.929 . S
C2224 C2223 1.383 . S
C2224 C2225 1.377 . S
C2225 H2209 0.930 . S
C2225 C2224 1.377 . S
C2225 C2226 1.379 . S
C2226 H2210 0.931 . S
C2226 C2220 1.383 . S
C2226 C2225 1.379 . S
H2227 C2221 0.959 . S
H2228 C2221 0.961 . S
H2229 C2221 0.960 . S
H2230 C2222 0.930 . S
H2231 C2223 0.929 . S
H2232 C2240 0.929 . S
H2233 C2242 0.930 . S
H2234 C2244 0.930 . S
H2235 C2247 0.929 . S
H2236 C2250 0.930 . S
H2237 C2252 0.960 . S
H2238 C2252 0.960 . S
H2239 C2252 0.960 . S
C2240 H2232 0.929 . S
C2240 C2241 1.377 . S
C2240 C2242 1.384 . S
C2241 C2240 1.377 . S
C2241 C2247 1.390 . S
C2242 H2233 0.930 . S
C2242 C2240 1.384 . S
C2242 C2243 1.372 . S
C2243 C2242 1.372 . S
C2243 C2244 1.400 . S
C2243 C2248 1.490 . S
C2244 H2234 0.930 . S
C2244 C2243 1.400 . S
C2244 C2247 1.386 . S
H2245 C2261 0.930 . S
H2246 C2262 0.931 . S
C2247 H2235 0.929 . S
C2247 C2241 1.390 . S
C2247 C2244 1.386 . S
C2248 C2243 1.490 . S
C2248 C2250 1.395 . S
C2248 C2251 1.403 . S
H2249 C2255 0.930 . S
C2250 H2236 0.930 . S
C2250 C2248 1.395 . S
C2250 C2253 1.403 . S
C2251 C2248 1.403 . S
C2251 C2252 1.524 . S
C2251 C2255 1.400 . S
C2252 H2237 0.960 . S
C2252 H2238 0.960 . S
C2252 H2239 0.960 . S
C2252 C2251 1.524 . S
C2253 C2250 1.403 . S
C2253 C2254 1.392 . S
C2253 C2257 1.495 . S
C2254 C2253 1.392 . S
C2254 C2255 1.385 . S
C2254 C2256 1.478 . S
C2255 H2249 0.930 . S
C2255 C2251 1.400 . S
C2255 C2254 1.385 . S
C2256 C2254 1.478 . S
C2256 C2258 1.381 . S
C2256 C2262 1.383 . S
C2257 C2253 1.495 . S
C2257 H2263 0.959 . S
C2257 H2264 0.961 . S
C2257 H2265 0.960 . S
C2258 C2256 1.381 . S
C2258 C2259 1.394 . S
C2258 H2266 0.930 . S
C2259 C2258 1.394 . S
C2259 C2260 1.383 . S
C2259 H2267 0.929 . S
C2260 C2259 1.383 . S
C2260 C2261 1.377 . S
C2261 H2245 0.930 . S
C2261 C2260 1.377 . S
C2261 C2262 1.379 . S
C2262 H2246 0.931 . S
C2262 C2256 1.383 . S
C2262 C2261 1.379 . S
H2263 C2257 0.959 . S
H2264 C2257 0.961 . S
H2265 C2257 0.960 . S
H2266 C2258 0.930 . S
H2267 C2259 0.929 . S
H2268 C2276 0.929 . S
H2269 C2278 0.930 . S
H2270 C2280 0.930 . S
H2271 C2283 0.929 . S
H2272 C2286 0.930 . S
H2273 C2288 0.960 . S
H2274 C2288 0.960 . S
H2275 C2288 0.960 . S
C2276 H2268 0.929 . S
C2276 C2277 1.377 . S
C2276 C2278 1.384 . S
C2277 C2276 1.377 . S
C2277 C2283 1.390 . S
C2278 H2269 0.930 . S
C2278 C2276 1.384 . S
C2278 C2279 1.372 . S
C2279 C2278 1.372 . S
C2279 C2280 1.400 . S
C2279 C2284 1.490 . S
C2280 H2270 0.930 . S
C2280 C2279 1.400 . S
C2280 C2283 1.386 . S
H2281 C2297 0.930 . S
H2282 C2298 0.931 . S
C2283 H2271 0.929 . S
C2283 C2277 1.390 . S
C2283 C2280 1.386 . S
C2284 C2279 1.490 . S
C2284 C2286 1.395 . S
C2284 C2287 1.403 . S
H2285 C2291 0.930 . S
C2286 H2272 0.930 . S
C2286 C2284 1.395 . S
C2286 C2289 1.403 . S
C2287 C2284 1.403 . S
C2287 C2288 1.524 . S
C2287 C2291 1.400 . S
C2288 H2273 0.960 . S
C2288 H2274 0.960 . S
C2288 H2275 0.960 . S
C2288 C2287 1.524 . S
C2289 C2286 1.403 . S
C2289 C2290 1.392 . S
C2289 C2293 1.495 . S
C2290 C2289 1.392 . S
C2290 C2291 1.385 . S
C2290 C2292 1.478 . S
C2291 H2285 0.930 . S
C2291 C2287 1.400 . S
C2291 C2290 1.385 . S
C2292 C2290 1.478 . S
C2292 C2294 1.381 . S
C2292 C2298 1.383 . S
C2293 C2289 1.495 . S
C2293 H2299 0.959 . S
C2293 H2300 0.961 . S
C2293 H2301 0.960 . S
C2294 C2292 1.381 . S
C2294 C2295 1.394 . S
C2294 H2302 0.930 . S
C2295 C2294 1.394 . S
C2295 C2296 1.383 . S
C2295 H2303 0.929 . S
C2296 C2295 1.383 . S
C2296 C2297 1.377 . S
C2297 H2281 0.930 . S
C2297 C2296 1.377 . S
C2297 C2298 1.379 . S
C2298 H2282 0.931 . S
C2298 C2292 1.383 . S
C2298 C2297 1.379 . S
H2299 C2293 0.959 . S
H2300 C2293 0.961 . S
H2301 C2293 0.960 . S
H2302 C2294 0.930 . S
H2303 C2295 0.929 . S
H2304 C2312 0.929 . S
H2305 C2314 0.930 . S
H2306 C2316 0.930 . S
H2307 C2319 0.929 . S
H2308 C2322 0.930 . S
H2309 C2324 0.960 . S
H2310 C2324 0.960 . S
H2311 C2324 0.960 . S
C2312 H2304 0.929 . S
C2312 C2313 1.377 . S
C2312 C2314 1.384 . S
C2313 C2312 1.377 . S
C2313 C2319 1.390 . S
C2314 H2305 0.930 . S
C2314 C2312 1.384 . S
C2314 C2315 1.372 . S
C2315 C2314 1.372 . S
C2315 C2316 1.400 . S
C2315 C2320 1.490 . S
C2316 H2306 0.930 . S
C2316 C2315 1.400 . S
C2316 C2319 1.386 . S
H2317 C2333 0.930 . S
H2318 C2334 0.931 . S
C2319 H2307 0.929 . S
C2319 C2313 1.390 . S
C2319 C2316 1.386 . S
C2320 C2315 1.490 . S
C2320 C2322 1.395 . S
C2320 C2323 1.403 . S
H2321 C2327 0.930 . S
C2322 H2308 0.930 . S
C2322 C2320 1.395 . S
C2322 C2325 1.403 . S
C2323 C2320 1.403 . S
C2323 C2324 1.524 . S
C2323 C2327 1.400 . S
C2324 H2309 0.960 . S
C2324 H2310 0.960 . S
C2324 H2311 0.960 . S
C2324 C2323 1.524 . S
C2325 C2322 1.403 . S
C2325 C2326 1.392 . S
C2325 C2329 1.495 . S
C2326 C2325 1.392 . S
C2326 C2327 1.385 . S
C2326 C2328 1.478 . S
C2327 H2321 0.930 . S
C2327 C2323 1.400 . S
C2327 C2326 1.385 . S
C2328 C2326 1.478 . S
C2328 C2330 1.381 . S
C2328 C2334 1.383 . S
C2329 C2325 1.495 . S
C2329 H2335 0.959 . S
C2329 H2336 0.961 . S
C2329 H2337 0.960 . S
C2330 C2328 1.381 . S
C2330 C2331 1.394 . S
C2330 H2338 0.930 . S
C2331 C2330 1.394 . S
C2331 C2332 1.383 . S
C2331 H2339 0.929 . S
C2332 C2331 1.383 . S
C2332 C2333 1.377 . S
C2333 H2317 0.930 . S
C2333 C2332 1.377 . S
C2333 C2334 1.379 . S
C2334 H2318 0.931 . S
C2334 C2328 1.383 . S
C2334 C2333 1.379 . S
H2335 C2329 0.959 . S
H2336 C2329 0.961 . S
H2337 C2329 0.960 . S
H2338 C2330 0.930 . S
H2339 C2331 0.929 . S
H2340 C2348 0.929 . S
H2341 C2350 0.930 . S
H2342 C2352 0.930 . S
H2343 C2355 0.929 . S
H2344 C2358 0.930 . S
H2345 C2360 0.960 . S
H2346 C2360 0.960 . S
H2347 C2360 0.960 . S
C2348 H2340 0.929 . S
C2348 C2349 1.377 . S
C2348 C2350 1.384 . S
C2349 C2348 1.377 . S
C2349 C2355 1.390 . S
C2350 H2341 0.930 . S
C2350 C2348 1.384 . S
C2350 C2351 1.372 . S
C2351 C2350 1.372 . S
C2351 C2352 1.400 . S
C2351 C2356 1.490 . S
C2352 H2342 0.930 . S
C2352 C2351 1.400 . S
C2352 C2355 1.386 . S
H2353 C2369 0.930 . S
H2354 C2370 0.931 . S
C2355 H2343 0.929 . S
C2355 C2349 1.390 . S
C2355 C2352 1.386 . S
C2356 C2351 1.490 . S
C2356 C2358 1.395 . S
C2356 C2359 1.403 . S
H2357 C2363 0.930 . S
C2358 H2344 0.930 . S
C2358 C2356 1.395 . S
C2358 C2361 1.403 . S
C2359 C2356 1.403 . S
C2359 C2360 1.524 . S
C2359 C2363 1.400 . S
C2360 H2345 0.960 . S
C2360 H2346 0.960 . S
C2360 H2347 0.960 . S
C2360 C2359 1.524 . S
C2361 C2358 1.403 . S
C2361 C2362 1.392 . S
C2361 C2365 1.495 . S
C2362 C2361 1.392 . S
C2362 C2363 1.385 . S
C2362 C2364 1.478 . S
C2363 H2357 0.930 . S
C2363 C2359 1.400 . S
C2363 C2362 1.385 . S
C2364 C2362 1.478 . S
C2364 C2366 1.381 . S
C2364 C2370 1.383 . S
C2365 C2361 1.495 . S
C2365 H2371 0.959 . S
C2365 H2372 0.961 . S
C2365 H2373 0.960 . S
C2366 C2364 1.381 . S
C2366 C2367 1.394 . S
C2366 H2374 0.930 . S
C2367 C2366 1.394 . S
C2367 C2368 1.383 . S
C2367 H2375 0.929 . S
C2368 C2367 1.383 . S
C2368 C2369 1.377 . S
C2369 H2353 0.930 . S
C2369 C2368 1.377 . S
C2369 C2370 1.379 . S
C2370 H2354 0.931 . S
C2370 C2364 1.383 . S
C2370 C2369 1.379 . S
H2371 C2365 0.959 . S
H2372 C2365 0.961 . S
H2373 C2365 0.960 . S
H2374 C2366 0.930 . S
H2375 C2367 0.929 . S
H2376 C2384 0.929 . S
H2377 C2386 0.930 . S
H2378 C2388 0.930 . S
H2379 C2391 0.929 . S
H2380 C2394 0.930 . S
H2381 C2396 0.960 . S
H2382 C2396 0.960 . S
H2383 C2396 0.960 . S
C2384 H2376 0.929 . S
C2384 C2385 1.377 . S
C2384 C2386 1.384 . S
C2385 C2384 1.377 . S
C2385 C2391 1.390 . S
C2386 H2377 0.930 . S
C2386 C2384 1.384 . S
C2386 C2387 1.372 . S
C2387 C2386 1.372 . S
C2387 C2388 1.400 . S
C2387 C2392 1.490 . S
C2388 H2378 0.930 . S
C2388 C2387 1.400 . S
C2388 C2391 1.386 . S
H2389 C2405 0.930 . S
H2390 C2406 0.931 . S
C2391 H2379 0.929 . S
C2391 C2385 1.390 . S
C2391 C2388 1.386 . S
C2392 C2387 1.490 . S
C2392 C2394 1.395 . S
C2392 C2395 1.403 . S
H2393 C2399 0.930 . S
C2394 H2380 0.930 . S
C2394 C2392 1.395 . S
C2394 C2397 1.403 . S
C2395 C2392 1.403 . S
C2395 C2396 1.524 . S
C2395 C2399 1.400 . S
C2396 H2381 0.960 . S
C2396 H2382 0.960 . S
C2396 H2383 0.960 . S
C2396 C2395 1.524 . S
C2397 C2394 1.403 . S
C2397 C2398 1.392 . S
C2397 C2401 1.495 . S
C2398 C2397 1.392 . S
C2398 C2399 1.385 . S
C2398 C2400 1.478 . S
C2399 H2393 0.930 . S
C2399 C2395 1.400 . S
C2399 C2398 1.385 . S
C2400 C2398 1.478 . S
C2400 C2402 1.381 . S
C2400 C2406 1.383 . S
C2401 C2397 1.495 . S
C2401 H2407 0.959 . S
C2401 H2408 0.961 . S
C2401 H2409 0.960 . S
C2402 C2400 1.381 . S
C2402 C2403 1.394 . S
C2402 H2410 0.930 . S
C2403 C2402 1.394 . S
C2403 C2404 1.383 . S
C2403 H2411 0.929 . S
C2404 C2403 1.383 . S
C2404 C2405 1.377 . S
C2405 H2389 0.930 . S
C2405 C2404 1.377 . S
C2405 C2406 1.379 . S
C2406 H2390 0.931 . S
C2406 C2400 1.383 . S
C2406 C2405 1.379 . S
H2407 C2401 0.959 . S
H2408 C2401 0.961 . S
H2409 C2401 0.960 . S
H2410 C2402 0.930 . S
H2411 C2403 0.929 . S
H2412 C2420 0.929 . S
H2413 C2422 0.930 . S
H2414 C2424 0.930 . S
H2415 C2427 0.929 . S
H2416 C2430 0.930 . S
H2417 C2432 0.960 . S
H2418 C2432 0.960 . S
H2419 C2432 0.960 . S
C2420 H2412 0.929 . S
C2420 C2421 1.377 . S
C2420 C2422 1.384 . S
C2421 C2420 1.377 . S
C2421 C2427 1.390 . S
C2422 H2413 0.930 . S
C2422 C2420 1.384 . S
C2422 C2423 1.372 . S
C2423 C2422 1.372 . S
C2423 C2424 1.400 . S
C2423 C2428 1.490 . S
C2424 H2414 0.930 . S
C2424 C2423 1.400 . S
C2424 C2427 1.386 . S
H2425 C2441 0.930 . S
H2426 C2442 0.931 . S
C2427 H2415 0.929 . S
C2427 C2421 1.390 . S
C2427 C2424 1.386 . S
C2428 C2423 1.490 . S
C2428 C2430 1.395 . S
C2428 C2431 1.403 . S
H2429 C2435 0.930 . S
C2430 H2416 0.930 . S
C2430 C2428 1.395 . S
C2430 C2433 1.403 . S
C2431 C2428 1.403 . S
C2431 C2432 1.524 . S
C2431 C2435 1.400 . S
C2432 H2417 0.960 . S
C2432 H2418 0.960 . S
C2432 H2419 0.960 . S
C2432 C2431 1.524 . S
C2433 C2430 1.403 . S
C2433 C2434 1.392 . S
C2433 C2437 1.495 . S
C2434 C2433 1.392 . S
C2434 C2435 1.385 . S
C2434 C2436 1.478 . S
C2435 H2429 0.930 . S
C2435 C2431 1.400 . S
C2435 C2434 1.385 . S
C2436 C2434 1.478 . S
C2436 C2438 1.381 . S
C2436 C2442 1.383 . S
C2437 C2433 1.495 . S
C2437 H2443 0.959 . S
C2437 H2444 0.961 . S
C2437 H2445 0.960 . S
C2438 C2436 1.381 . S
C2438 C2439 1.394 . S
C2438 H2446 0.930 . S
C2439 C2438 1.394 . S
C2439 C2440 1.383 . S
C2439 H2447 0.929 . S
C2440 C2439 1.383 . S
C2440 C2441 1.377 . S
C2441 H2425 0.930 . S
C2441 C2440 1.377 . S
C2441 C2442 1.379 . S
C2442 H2426 0.931 . S
C2442 C2436 1.383 . S
C2442 C2441 1.379 . S
H2443 C2437 0.959 . S
H2444 C2437 0.961 . S
H2445 C2437 0.960 . S
H2446 C2438 0.930 . S
H2447 C2439 0.929 . S
H2448 C2456 0.929 . S
H2449 C2458 0.930 . S
H2450 C2460 0.930 . S
H2451 C2463 0.929 . S
H2452 C2466 0.930 . S
H2453 C2468 0.960 . S
H2454 C2468 0.960 . S
H2455 C2468 0.960 . S
C2456 H2448 0.929 . S
C2456 C2457 1.377 . S
C2456 C2458 1.384 . S
C2457 C2456 1.377 . S
C2457 C2463 1.390 . S
C2458 H2449 0.930 . S
C2458 C2456 1.384 . S
C2458 C2459 1.372 . S
C2459 C2458 1.372 . S
C2459 C2460 1.400 . S
C2459 C2464 1.490 . S
C2460 H2450 0.930 . S
C2460 C2459 1.400 . S
C2460 C2463 1.386 . S
H2461 C2477 0.930 . S
H2462 C2478 0.931 . S
C2463 H2451 0.929 . S
C2463 C2457 1.390 . S
C2463 C2460 1.386 . S
C2464 C2459 1.490 . S
C2464 C2466 1.395 . S
C2464 C2467 1.403 . S
H2465 C2471 0.930 . S
C2466 H2452 0.930 . S
C2466 C2464 1.395 . S
C2466 C2469 1.403 . S
C2467 C2464 1.403 . S
C2467 C2468 1.524 . S
C2467 C2471 1.400 . S
C2468 H2453 0.960 . S
C2468 H2454 0.960 . S
C2468 H2455 0.960 . S
C2468 C2467 1.524 . S
C2469 C2466 1.403 . S
C2469 C2470 1.392 . S
C2469 C2473 1.495 . S
C2470 C2469 1.392 . S
C2470 C2471 1.385 . S
C2470 C2472 1.478 . S
C2471 H2465 0.930 . S
C2471 C2467 1.400 . S
C2471 C2470 1.385 . S
C2472 C2470 1.478 . S
C2472 C2474 1.381 . S
C2472 C2478 1.383 . S
C2473 C2469 1.495 . S
C2473 H2479 0.959 . S
C2473 H2480 0.961 . S
C2473 H2481 0.960 . S
C2474 C2472 1.381 . S
C2474 C2475 1.394 . S
C2474 H2482 0.930 . S
C2475 C2474 1.394 . S
C2475 C2476 1.383 . S
C2475 H2483 0.929 . S
C2476 C2475 1.383 . S
C2476 C2477 1.377 . S
C2477 H2461 0.930 . S
C2477 C2476 1.377 . S
C2477 C2478 1.379 . S
C2478 H2462 0.931 . S
C2478 C2472 1.383 . S
C2478 C2477 1.379 . S
H2479 C2473 0.959 . S
H2480 C2473 0.961 . S
H2481 C2473 0.960 . S
H2482 C2474 0.930 . S
H2483 C2475 0.929 . S
H2484 C2492 0.929 . S
H2485 C2494 0.930 . S
H2486 C2496 0.930 . S
H2487 C2499 0.929 . S
H2488 C2502 0.930 . S
H2489 C2504 0.960 . S
H2490 C2504 0.960 . S
H2491 C2504 0.960 . S
C2492 H2484 0.929 . S
C2492 C2493 1.377 . S
C2492 C2494 1.384 . S
C2493 C2492 1.377 . S
C2493 C2499 1.390 . S
C2494 H2485 0.930 . S
C2494 C2492 1.384 . S
C2494 C2495 1.372 . S
C2495 C2494 1.372 . S
C2495 C2496 1.400 . S
C2495 C2500 1.490 . S
C2496 H2486 0.930 . S
C2496 C2495 1.400 . S
C2496 C2499 1.386 . S
H2497 C2513 0.930 . S
H2498 C2514 0.931 . S
C2499 H2487 0.929 . S
C2499 C2493 1.390 . S
C2499 C2496 1.386 . S
C2500 C2495 1.490 . S
C2500 C2502 1.395 . S
C2500 C2503 1.403 . S
H2501 C2507 0.930 . S
C2502 H2488 0.930 . S
C2502 C2500 1.395 . S
C2502 C2505 1.403 . S
C2503 C2500 1.403 . S
C2503 C2504 1.524 . S
C2503 C2507 1.400 . S
C2504 H2489 0.960 . S
C2504 H2490 0.960 . S
C2504 H2491 0.960 . S
C2504 C2503 1.524 . S
C2505 C2502 1.403 . S
C2505 C2506 1.392 . S
C2505 C2509 1.495 . S
C2506 C2505 1.392 . S
C2506 C2507 1.385 . S
C2506 C2508 1.478 . S
C2507 H2501 0.930 . S
C2507 C2503 1.400 . S
C2507 C2506 1.385 . S
C2508 C2506 1.478 . S
C2508 C2510 1.381 . S
C2508 C2514 1.383 . S
C2509 C2505 1.495 . S
C2509 H2515 0.959 . S
C2509 H2516 0.961 . S
C2509 H2517 0.960 . S
C2510 C2508 1.381 . S
C2510 C2511 1.394 . S
C2510 H2518 0.930 . S
C2511 C2510 1.394 . S
C2511 C2512 1.383 . S
C2511 H2519 0.929 . S
C2512 C2511 1.383 . S
C2512 C2513 1.377 . S
C2513 H2497 0.930 . S
C2513 C2512 1.377 . S
C2513 C2514 1.379 . S
C2514 H2498 0.931 . S
C2514 C2508 1.383 . S
C2514 C2513 1.379 . S
H2515 C2509 0.959 . S
H2516 C2509 0.961 . S
H2517 C2509 0.960 . S
H2518 C2510 0.930 . S
H2519 C2511 0.929 . S
H2520 C2528 0.929 . S
H2521 C2530 0.930 . S
H2522 C2532 0.930 . S
H2523 C2535 0.929 . S
H2524 C2538 0.930 . S
H2525 C2540 0.960 . S
H2526 C2540 0.960 . S
H2527 C2540 0.960 . S
C2528 H2520 0.929 . S
C2528 C2529 1.377 . S
C2528 C2530 1.384 . S
C2529 C2528 1.377 . S
C2529 C2535 1.390 . S
C2530 H2521 0.930 . S
C2530 C2528 1.384 . S
C2530 C2531 1.372 . S
C2531 C2530 1.372 . S
C2531 C2532 1.400 . S
C2531 C2536 1.490 . S
C2532 H2522 0.930 . S
C2532 C2531 1.400 . S
C2532 C2535 1.386 . S
H2533 C2549 0.930 . S
H2534 C2550 0.931 . S
C2535 H2523 0.929 . S
C2535 C2529 1.390 . S
C2535 C2532 1.386 . S
C2536 C2531 1.490 . S
C2536 C2538 1.395 . S
C2536 C2539 1.403 . S
H2537 C2543 0.930 . S
C2538 H2524 0.930 . S
C2538 C2536 1.395 . S
C2538 C2541 1.403 . S
C2539 C2536 1.403 . S
C2539 C2540 1.524 . S
C2539 C2543 1.400 . S
C2540 H2525 0.960 . S
C2540 H2526 0.960 . S
C2540 H2527 0.960 . S
C2540 C2539 1.524 . S
C2541 C2538 1.403 . S
C2541 C2542 1.392 . S
C2541 C2545 1.495 . S
C2542 C2541 1.392 . S
C2542 C2543 1.385 . S
C2542 C2544 1.478 . S
C2543 H2537 0.930 . S
C2543 C2539 1.400 . S
C2543 C2542 1.385 . S
C2544 C2542 1.478 . S
C2544 C2546 1.381 . S
C2544 C2550 1.383 . S
C2545 C2541 1.495 . S
C2545 H2551 0.959 . S
C2545 H2552 0.961 . S
C2545 H2553 0.960 . S
C2546 C2544 1.381 . S
C2546 C2547 1.394 . S
C2546 H2554 0.930 . S
C2547 C2546 1.394 . S
C2547 C2548 1.383 . S
C2547 H2555 0.929 . S
C2548 C2547 1.383 . S
C2548 C2549 1.377 . S
C2549 H2533 0.930 . S
C2549 C2548 1.377 . S
C2549 C2550 1.379 . S
C2550 H2534 0.931 . S
C2550 C2544 1.383 . S
C2550 C2549 1.379 . S
H2551 C2545 0.959 . S
H2552 C2545 0.961 . S
H2553 C2545 0.960 . S
H2554 C2546 0.930 . S
H2555 C2547 0.929 . S
H2556 C2564 0.929 . S
H2557 C2566 0.930 . S
H2558 C2568 0.930 . S
H2559 C2571 0.929 . S
H2560 C2574 0.930 . S
H2561 C2576 0.960 . S
H2562 C2576 0.960 . S
H2563 C2576 0.960 . S
C2564 H2556 0.929 . S
C2564 C2565 1.377 . S
C2564 C2566 1.384 . S
C2565 C2564 1.377 . S
C2565 C2571 1.390 . S
C2566 H2557 0.930 . S
C2566 C2564 1.384 . S
C2566 C2567 1.372 . S
C2567 C2566 1.372 . S
C2567 C2568 1.400 . S
C2567 C2572 1.490 . S
C2568 H2558 0.930 . S
C2568 C2567 1.400 . S
C2568 C2571 1.386 . S
H2569 C2585 0.930 . S
H2570 C2586 0.931 . S
C2571 H2559 0.929 . S
C2571 C2565 1.390 . S
C2571 C2568 1.386 . S
C2572 C2567 1.490 . S
C2572 C2574 1.395 . S
C2572 C2575 1.403 . S
H2573 C2579 0.930 . S
C2574 H2560 0.930 . S
C2574 C2572 1.395 . S
C2574 C2577 1.403 . S
C2575 C2572 1.403 . S
C2575 C2576 1.524 . S
C2575 C2579 1.400 . S
C2576 H2561 0.960 . S
C2576 H2562 0.960 . S
C2576 H2563 0.960 . S
C2576 C2575 1.524 . S
C2577 C2574 1.403 . S
C2577 C2578 1.392 . S
C2577 C2581 1.495 . S
C2578 C2577 1.392 . S
C2578 C2579 1.385 . S
C2578 C2580 1.478 . S
C2579 H2573 0.930 . S
C2579 C2575 1.400 . S
C2579 C2578 1.385 . S
C2580 C2578 1.478 . S
C2580 C2582 1.381 . S
C2580 C2586 1.383 . S
C2581 C2577 1.495 . S
C2581 H2587 0.959 . S
C2581 H2588 0.961 . S
C2581 H2589 0.960 . S
C2582 C2580 1.381 . S
C2582 C2583 1.394 . S
C2582 H2590 0.930 . S
C2583 C2582 1.394 . S
C2583 C2584 1.383 . S
C2583 H2591 0.929 . S
C2584 C2583 1.383 . S
C2584 C2585 1.377 . S
C2585 H2569 0.930 . S
C2585 C2584 1.377 . S
C2585 C2586 1.379 . S
C2586 H2570 0.931 . S
C2586 C2580 1.383 . S
C2586 C2585 1.379 . S
H2587 C2581 0.959 . S
H2588 C2581 0.961 . S
H2589 C2581 0.960 . S
H2590 C2582 0.930 . S
H2591 C2583 0.929 . S
H2592 C2600 0.929 . S
H2593 C2602 0.930 . S
H2594 C2604 0.930 . S
H2595 C2607 0.929 . S
H2596 C2610 0.930 . S
H2597 C2612 0.960 . S
H2598 C2612 0.960 . S
H2599 C2612 0.960 . S
C2600 H2592 0.929 . S
C2600 C2601 1.377 . S
C2600 C2602 1.384 . S
C2601 C2600 1.377 . S
C2601 C2607 1.390 . S
C2602 H2593 0.930 . S
C2602 C2600 1.384 . S
C2602 C2603 1.372 . S
C2603 C2602 1.372 . S
C2603 C2604 1.400 . S
C2603 C2608 1.490 . S
C2604 H2594 0.930 . S
C2604 C2603 1.400 . S
C2604 C2607 1.386 . S
H2605 C2621 0.930 . S
H2606 C2622 0.931 . S
C2607 H2595 0.929 . S
C2607 C2601 1.390 . S
C2607 C2604 1.386 . S
C2608 C2603 1.490 . S
C2608 C2610 1.395 . S
C2608 C2611 1.403 . S
H2609 C2615 0.930 . S
C2610 H2596 0.930 . S
C2610 C2608 1.395 . S
C2610 C2613 1.403 . S
C2611 C2608 1.403 . S
C2611 C2612 1.524 . S
C2611 C2615 1.400 . S
C2612 H2597 0.960 . S
C2612 H2598 0.960 . S
C2612 H2599 0.960 . S
C2612 C2611 1.524 . S
C2613 C2610 1.403 . S
C2613 C2614 1.392 . S
C2613 C2617 1.495 . S
C2614 C2613 1.392 . S
C2614 C2615 1.385 . S
C2614 C2616 1.478 . S
C2615 H2609 0.930 . S
C2615 C2611 1.400 . S
C2615 C2614 1.385 . S
C2616 C2614 1.478 . S
C2616 C2618 1.381 . S
C2616 C2622 1.383 . S
C2617 C2613 1.495 . S
C2617 H2623 0.959 . S
C2617 H2624 0.961 . S
C2617 H2625 0.960 . S
C2618 C2616 1.381 . S
C2618 C2619 1.394 . S
C2618 H2626 0.930 . S
C2619 C2618 1.394 . S
C2619 C2620 1.383 . S
C2619 H2627 0.929 . S
C2620 C2619 1.383 . S
C2620 C2621 1.377 . S
C2621 H2605 0.930 . S
C2621 C2620 1.377 . S
C2621 C2622 1.379 . S
C2622 H2606 0.931 . S
C2622 C2616 1.383 . S
C2622 C2621 1.379 . S
H2623 C2617 0.959 . S
H2624 C2617 0.961 . S
H2625 C2617 0.960 . S
H2626 C2618 0.930 . S
H2627 C2619 0.929 . S
H2628 C2636 0.929 . S
H2629 C2638 0.930 . S
H2630 C2640 0.930 . S
H2631 C2643 0.929 . S
H2632 C2646 0.930 . S
H2633 C2648 0.960 . S
H2634 C2648 0.960 . S
H2635 C2648 0.960 . S
C2636 H2628 0.929 . S
C2636 C2637 1.377 . S
C2636 C2638 1.384 . S
C2637 C2636 1.377 . S
C2637 C2643 1.390 . S
C2638 H2629 0.930 . S
C2638 C2636 1.384 . S
C2638 C2639 1.372 . S
C2639 C2638 1.372 . S
C2639 C2640 1.400 . S
C2639 C2644 1.490 . S
C2640 H2630 0.930 . S
C2640 C2639 1.400 . S
C2640 C2643 1.386 . S
H2641 C2657 0.930 . S
H2642 C2658 0.931 . S
C2643 H2631 0.929 . S
C2643 C2637 1.390 . S
C2643 C2640 1.386 . S
C2644 C2639 1.490 . S
C2644 C2646 1.395 . S
C2644 C2647 1.403 . S
H2645 C2651 0.930 . S
C2646 H2632 0.930 . S
C2646 C2644 1.395 . S
C2646 C2649 1.403 . S
C2647 C2644 1.403 . S
C2647 C2648 1.524 . S
C2647 C2651 1.400 . S
C2648 H2633 0.960 . S
C2648 H2634 0.960 . S
C2648 H2635 0.960 . S
C2648 C2647 1.524 . S
C2649 C2646 1.403 . S
C2649 C2650 1.392 . S
C2649 C2653 1.495 . S
C2650 C2649 1.392 . S
C2650 C2651 1.385 . S
C2650 C2652 1.478 . S
C2651 H2645 0.930 . S
C2651 C2647 1.400 . S
C2651 C2650 1.385 . S
C2652 C2650 1.478 . S
C2652 C2654 1.381 . S
C2652 C2658 1.383 . S
C2653 C2649 1.495 . S
C2653 H2659 0.959 . S
C2653 H2660 0.961 . S
C2653 H2661 0.960 . S
C2654 C2652 1.381 . S
C2654 C2655 1.394 . S
C2654 H2662 0.930 . S
C2655 C2654 1.394 . S
C2655 C2656 1.383 . S
C2655 H2663 0.929 . S
C2656 C2655 1.383 . S
C2656 C2657 1.377 . S
C2657 H2641 0.930 . S
C2657 C2656 1.377 . S
C2657 C2658 1.379 . S
C2658 H2642 0.931 . S
C2658 C2652 1.383 . S
C2658 C2657 1.379 . S
H2659 C2653 0.959 . S
H2660 C2653 0.961 . S
H2661 C2653 0.960 . S
H2662 C2654 0.930 . S
H2663 C2655 0.929 . S
H2664 C2672 0.929 . S
H2665 C2674 0.930 . S
H2666 C2676 0.930 . S
H2667 C2679 0.929 . S
H2668 C2682 0.930 . S
H2669 C2684 0.960 . S
H2670 C2684 0.960 . S
H2671 C2684 0.960 . S
C2672 H2664 0.929 . S
C2672 C2673 1.377 . S
C2672 C2674 1.384 . S
C2673 C2672 1.377 . S
C2673 C2679 1.390 . S
C2674 H2665 0.930 . S
C2674 C2672 1.384 . S
C2674 C2675 1.372 . S
C2675 C2674 1.372 . S
C2675 C2676 1.400 . S
C2675 C2680 1.490 . S
C2676 H2666 0.930 . S
C2676 C2675 1.400 . S
C2676 C2679 1.386 . S
H2677 C2693 0.930 . S
H2678 C2694 0.931 . S
C2679 H2667 0.929 . S
C2679 C2673 1.390 . S
C2679 C2676 1.386 . S
C2680 C2675 1.490 . S
C2680 C2682 1.395 . S
C2680 C2683 1.403 . S
H2681 C2687 0.930 . S
C2682 H2668 0.930 . S
C2682 C2680 1.395 . S
C2682 C2685 1.403 . S
C2683 C2680 1.403 . S
C2683 C2684 1.524 . S
C2683 C2687 1.400 . S
C2684 H2669 0.960 . S
C2684 H2670 0.960 . S
C2684 H2671 0.960 . S
C2684 C2683 1.524 . S
C2685 C2682 1.403 . S
C2685 C2686 1.392 . S
C2685 C2689 1.495 . S
C2686 C2685 1.392 . S
C2686 C2687 1.385 . S
C2686 C2688 1.478 . S
C2687 H2681 0.930 . S
C2687 C2683 1.400 . S
C2687 C2686 1.385 . S
C2688 C2686 1.478 . S
C2688 C2690 1.381 . S
C2688 C2694 1.383 . S
C2689 C2685 1.495 . S
C2689 H2695 0.959 . S
C2689 H2696 0.961 . S
C2689 H2697 0.960 . S
C2690 C2688 1.381 . S
C2690 C2691 1.394 . S
C2690 H2698 0.930 . S
C2691 C2690 1.394 . S
C2691 C2692 1.383 . S
C2691 H2699 0.929 . S
C2692 C2691 1.383 . S
C2692 C2693 1.377 . S
C2693 H2677 0.930 . S
C2693 C2692 1.377 . S
C2693 C2694 1.379 . S
C2694 H2678 0.931 . S
C2694 C2688 1.383 . S
C2694 C2693 1.379 . S
H2695 C2689 0.959 . S
H2696 C2689 0.961 . S
H2697 C2689 0.960 . S
H2698 C2690 0.930 . S
H2699 C2691 0.929 . S
H2700 C2708 0.929 . S
H2701 C2710 0.930 . S
H2702 C2712 0.930 . S
H2703 C2715 0.929 . S
H2704 C2718 0.930 . S
H2705 C2720 0.960 . S
H2706 C2720 0.960 . S
H2707 C2720 0.960 . S
C2708 H2700 0.929 . S
C2708 C2709 1.377 . S
C2708 C2710 1.384 . S
C2709 C2708 1.377 . S
C2709 C2715 1.390 . S
C2710 H2701 0.930 . S
C2710 C2708 1.384 . S
C2710 C2711 1.372 . S
C2711 C2710 1.372 . S
C2711 C2712 1.400 . S
C2711 C2716 1.490 . S
C2712 H2702 0.930 . S
C2712 C2711 1.400 . S
C2712 C2715 1.386 . S
H2713 C2729 0.930 . S
H2714 C2730 0.931 . S
C2715 H2703 0.929 . S
C2715 C2709 1.390 . S
C2715 C2712 1.386 . S
C2716 C2711 1.490 . S
C2716 C2718 1.395 . S
C2716 C2719 1.403 . S
H2717 C2723 0.930 . S
C2718 H2704 0.930 . S
C2718 C2716 1.395 . S
C2718 C2721 1.403 . S
C2719 C2716 1.403 . S
C2719 C2720 1.524 . S
C2719 C2723 1.400 . S
C2720 H2705 0.960 . S
C2720 H2706 0.960 . S
C2720 H2707 0.960 . S
C2720 C2719 1.524 . S
C2721 C2718 1.403 . S
C2721 C2722 1.392 . S
C2721 C2725 1.495 . S
C2722 C2721 1.392 . S
C2722 C2723 1.385 . S
C2722 C2724 1.478 . S
C2723 H2717 0.930 . S
C2723 C2719 1.400 . S
C2723 C2722 1.385 . S
C2724 C2722 1.478 . S
C2724 C2726 1.381 . S
C2724 C2730 1.383 . S
C2725 C2721 1.495 . S
C2725 H2731 0.959 . S
C2725 H2732 0.961 . S
C2725 H2733 0.960 . S
C2726 C2724 1.381 . S
C2726 C2727 1.394 . S
C2726 H2734 0.930 . S
C2727 C2726 1.394 . S
C2727 C2728 1.383 . S
C2727 H2735 0.929 . S
C2728 C2727 1.383 . S
C2728 C2729 1.377 . S
C2729 H2713 0.930 . S
C2729 C2728 1.377 . S
C2729 C2730 1.379 . S
C2730 H2714 0.931 . S
C2730 C2724 1.383 . S
C2730 C2729 1.379 . S
H2731 C2725 0.959 . S
H2732 C2725 0.961 . S
H2733 C2725 0.960 . S
H2734 C2726 0.930 . S
H2735 C2727 0.929 . S
H2736 C2744 0.929 . S
H2737 C2746 0.930 . S
H2738 C2748 0.930 . S
H2739 C2751 0.929 . S
H2740 C2754 0.930 . S
H2741 C2756 0.960 . S
H2742 C2756 0.960 . S
H2743 C2756 0.960 . S
C2744 H2736 0.929 . S
C2744 C2745 1.377 . S
C2744 C2746 1.384 . S
C2745 C2744 1.377 . S
C2745 C2751 1.390 . S
C2746 H2737 0.930 . S
C2746 C2744 1.384 . S
C2746 C2747 1.372 . S
C2747 C2746 1.372 . S
C2747 C2748 1.400 . S
C2747 C2752 1.490 . S
C2748 H2738 0.930 . S
C2748 C2747 1.400 . S
C2748 C2751 1.386 . S
H2749 C2765 0.930 . S
H2750 C2766 0.931 . S
C2751 H2739 0.929 . S
C2751 C2745 1.390 . S
C2751 C2748 1.386 . S
C2752 C2747 1.490 . S
C2752 C2754 1.395 . S
C2752 C2755 1.403 . S
H2753 C2759 0.930 . S
C2754 H2740 0.930 . S
C2754 C2752 1.395 . S
C2754 C2757 1.403 . S
C2755 C2752 1.403 . S
C2755 C2756 1.524 . S
C2755 C2759 1.400 . S
C2756 H2741 0.960 . S
C2756 H2742 0.960 . S
C2756 H2743 0.960 . S
C2756 C2755 1.524 . S
C2757 C2754 1.403 . S
C2757 C2758 1.392 . S
C2757 C2761 1.495 . S
C2758 C2757 1.392 . S
C2758 C2759 1.385 . S
C2758 C2760 1.478 . S
C2759 H2753 0.930 . S
C2759 C2755 1.400 . S
C2759 C2758 1.385 . S
C2760 C2758 1.478 . S
C2760 C2762 1.381 . S
C2760 C2766 1.383 . S
C2761 C2757 1.495 . S
C2761 H2767 0.959 . S
C2761 H2768 0.961 . S
C2761 H2769 0.960 . S
C2762 C2760 1.381 . S
C2762 C2763 1.394 . S
C2762 H2770 0.930 . S
C2763 C2762 1.394 . S
C2763 C2764 1.383 . S
C2763 H2771 0.929 . S
C2764 C2763 1.383 . S
C2764 C2765 1.377 . S
C2765 H2749 0.930 . S
C2765 C2764 1.377 . S
C2765 C2766 1.379 . S
C2766 H2750 0.931 . S
C2766 C2760 1.383 . S
C2766 C2765 1.379 . S
H2767 C2761 0.959 . S
H2768 C2761 0.961 . S
H2769 C2761 0.960 . S
H2770 C2762 0.930 . S
H2771 C2763 0.929 . S
H2772 C2780 0.929 . S
H2773 C2782 0.930 . S
H2774 C2784 0.930 . S
H2775 C2787 0.929 . S
H2776 C2790 0.930 . S
H2777 C2792 0.960 . S
H2778 C2792 0.960 . S
H2779 C2792 0.960 . S
C2780 H2772 0.929 . S
C2780 C2781 1.377 . S
C2780 C2782 1.384 . S
C2781 C2780 1.377 . S
C2781 C2787 1.390 . S
C2782 H2773 0.930 . S
C2782 C2780 1.384 . S
C2782 C2783 1.372 . S
C2783 C2782 1.372 . S
C2783 C2784 1.400 . S
C2783 C2788 1.490 . S
C2784 H2774 0.930 . S
C2784 C2783 1.400 . S
C2784 C2787 1.386 . S
H2785 C2801 0.930 . S
H2786 C2802 0.931 . S
C2787 H2775 0.929 . S
C2787 C2781 1.390 . S
C2787 C2784 1.386 . S
C2788 C2783 1.490 . S
C2788 C2790 1.395 . S
C2788 C2791 1.403 . S
H2789 C2795 0.930 . S
C2790 H2776 0.930 . S
C2790 C2788 1.395 . S
C2790 C2793 1.403 . S
C2791 C2788 1.403 . S
C2791 C2792 1.524 . S
C2791 C2795 1.400 . S
C2792 H2777 0.960 . S
C2792 H2778 0.960 . S
C2792 H2779 0.960 . S
C2792 C2791 1.524 . S
C2793 C2790 1.403 . S
C2793 C2794 1.392 . S
C2793 C2797 1.495 . S
C2794 C2793 1.392 . S
C2794 C2795 1.385 . S
C2794 C2796 1.478 . S
C2795 H2789 0.930 . S
C2795 C2791 1.400 . S
C2795 C2794 1.385 . S
C2796 C2794 1.478 . S
C2796 C2798 1.381 . S
C2796 C2802 1.383 . S
C2797 C2793 1.495 . S
C2797 H2803 0.959 . S
C2797 H2804 0.961 . S
C2797 H2805 0.960 . S
C2798 C2796 1.381 . S
C2798 C2799 1.394 . S
C2798 H2806 0.930 . S
C2799 C2798 1.394 . S
C2799 C2800 1.383 . S
C2799 H2807 0.929 . S
C2800 C2799 1.383 . S
C2800 C2801 1.377 . S
C2801 H2785 0.930 . S
C2801 C2800 1.377 . S
C2801 C2802 1.379 . S
C2802 H2786 0.931 . S
C2802 C2796 1.383 . S
C2802 C2801 1.379 . S
H2803 C2797 0.959 . S
H2804 C2797 0.961 . S
H2805 C2797 0.960 . S
H2806 C2798 0.930 . S
H2807 C2799 0.929 . S
H2808 C2816 0.929 . S
H2809 C2818 0.930 . S
H2810 C2820 0.930 . S
H2811 C2823 0.929 . S
H2812 C2826 0.930 . S
H2813 C2828 0.960 . S
H2814 C2828 0.960 . S
H2815 C2828 0.960 . S
C2816 H2808 0.929 . S
C2816 C2817 1.377 . S
C2816 C2818 1.384 . S
C2817 C2816 1.377 . S
C2817 C2823 1.390 . S
C2818 H2809 0.930 . S
C2818 C2816 1.384 . S
C2818 C2819 1.372 . S
C2819 C2818 1.372 . S
C2819 C2820 1.400 . S
C2819 C2824 1.490 . S
C2820 H2810 0.930 . S
C2820 C2819 1.400 . S
C2820 C2823 1.386 . S
H2821 C2837 0.930 . S
H2822 C2838 0.931 . S
C2823 H2811 0.929 . S
C2823 C2817 1.390 . S
C2823 C2820 1.386 . S
C2824 C2819 1.490 . S
C2824 C2826 1.395 . S
C2824 C2827 1.403 . S
H2825 C2831 0.930 . S
C2826 H2812 0.930 . S
C2826 C2824 1.395 . S
C2826 C2829 1.403 . S
C2827 C2824 1.403 . S
C2827 C2828 1.524 . S
C2827 C2831 1.400 . S
C2828 H2813 0.960 . S
C2828 H2814 0.960 . S
C2828 H2815 0.960 . S
C2828 C2827 1.524 . S
C2829 C2826 1.403 . S
C2829 C2830 1.392 . S
C2829 C2833 1.495 . S
C2830 C2829 1.392 . S
C2830 C2831 1.385 . S
C2830 C2832 1.478 . S
C2831 H2825 0.930 . S
C2831 C2827 1.400 . S
C2831 C2830 1.385 . S
C2832 C2830 1.478 . S
C2832 C2834 1.381 . S
C2832 C2838 1.383 . S
C2833 C2829 1.495 . S
C2833 H2839 0.959 . S
C2833 H2840 0.961 . S
C2833 H2841 0.960 . S
C2834 C2832 1.381 . S
C2834 C2835 1.394 . S
C2834 H2842 0.930 . S
C2835 C2834 1.394 . S
C2835 C2836 1.383 . S
C2835 H2843 0.929 . S
C2836 C2835 1.383 . S
C2836 C2837 1.377 . S
C2837 H2821 0.930 . S
C2837 C2836 1.377 . S
C2837 C2838 1.379 . S
C2838 H2822 0.931 . S
C2838 C2832 1.383 . S
C2838 C2837 1.379 . S
H2839 C2833 0.959 . S
H2840 C2833 0.961 . S
H2841 C2833 0.960 . S
H2842 C2834 0.930 . S
H2843 C2835 0.929 . S
H2844 C2852 0.929 . S
H2845 C2854 0.930 . S
H2846 C2856 0.930 . S
H2847 C2859 0.929 . S
H2848 C2862 0.930 . S
H2849 C2864 0.960 . S
H2850 C2864 0.960 . S
H2851 C2864 0.960 . S
C2852 H2844 0.929 . S
C2852 C2853 1.377 . S
C2852 C2854 1.384 . S
C2853 C2852 1.377 . S
C2853 C2859 1.390 . S
C2854 H2845 0.930 . S
C2854 C2852 1.384 . S
C2854 C2855 1.372 . S
C2855 C2854 1.372 . S
C2855 C2856 1.400 . S
C2855 C2860 1.490 . S
C2856 H2846 0.930 . S
C2856 C2855 1.400 . S
C2856 C2859 1.386 . S
H2857 C2873 0.930 . S
H2858 C2874 0.931 . S
C2859 H2847 0.929 . S
C2859 C2853 1.390 . S
C2859 C2856 1.386 . S
C2860 C2855 1.490 . S
C2860 C2862 1.395 . S
C2860 C2863 1.403 . S
H2861 C2867 0.930 . S
C2862 H2848 0.930 . S
C2862 C2860 1.395 . S
C2862 C2865 1.403 . S
C2863 C2860 1.403 . S
C2863 C2864 1.524 . S
C2863 C2867 1.400 . S
C2864 H2849 0.960 . S
C2864 H2850 0.960 . S
C2864 H2851 0.960 . S
C2864 C2863 1.524 . S
C2865 C2862 1.403 . S
C2865 C2866 1.392 . S
C2865 C2869 1.495 . S
C2866 C2865 1.392 . S
C2866 C2867 1.385 . S
C2866 C2868 1.478 . S
C2867 H2861 0.930 . S
C2867 C2863 1.400 . S
C2867 C2866 1.385 . S
C2868 C2866 1.478 . S
C2868 C2870 1.381 . S
C2868 C2874 1.383 . S
C2869 C2865 1.495 . S
C2869 H2875 0.959 . S
C2869 H2876 0.961 . S
C2869 H2877 0.960 . S
C2870 C2868 1.381 . S
C2870 C2871 1.394 . S
C2870 H2878 0.930 . S
C2871 C2870 1.394 . S
C2871 C2872 1.383 . S
C2871 H2879 0.929 . S
C2872 C2871 1.383 . S
C2872 C2873 1.377 . S
C2873 H2857 0.930 . S
C2873 C2872 1.377 . S
C2873 C2874 1.379 . S
C2874 H2858 0.931 . S
C2874 C2868 1.383 . S
C2874 C2873 1.379 . S
H2875 C2869 0.959 . S
H2876 C2869 0.961 . S
H2877 C2869 0.960 . S
H2878 C2870 0.930 . S
H2879 C2871 0.929 . S
H2880 C2888 0.929 . S
H2881 C2890 0.930 . S
H2882 C2892 0.930 . S
H2883 C2895 0.929 . S
H2884 C2898 0.930 . S
H2885 C2900 0.960 . S
H2886 C2900 0.960 . S
H2887 C2900 0.960 . S
C2888 H2880 0.929 . S
C2888 C2889 1.377 . S
C2888 C2890 1.384 . S
C2889 C2888 1.377 . S
C2889 C2895 1.390 . S
C2890 H2881 0.930 . S
C2890 C2888 1.384 . S
C2890 C2891 1.372 . S
C2891 C2890 1.372 . S
C2891 C2892 1.400 . S
C2891 C2896 1.490 . S
C2892 H2882 0.930 . S
C2892 C2891 1.400 . S
C2892 C2895 1.386 . S
H2893 C2909 0.930 . S
H2894 C2910 0.931 . S
C2895 H2883 0.929 . S
C2895 C2889 1.390 . S
C2895 C2892 1.386 . S
C2896 C2891 1.490 . S
C2896 C2898 1.395 . S
C2896 C2899 1.403 . S
H2897 C2903 0.930 . S
C2898 H2884 0.930 . S
C2898 C2896 1.395 . S
C2898 C2901 1.403 . S
C2899 C2896 1.403 . S
C2899 C2900 1.524 . S
C2899 C2903 1.400 . S
C2900 H2885 0.960 . S
C2900 H2886 0.960 . S
C2900 H2887 0.960 . S
C2900 C2899 1.524 . S
C2901 C2898 1.403 . S
C2901 C2902 1.392 . S
C2901 C2905 1.495 . S
C2902 C2901 1.392 . S
C2902 C2903 1.385 . S
C2902 C2904 1.478 . S
C2903 H2897 0.930 . S
C2903 C2899 1.400 . S
C2903 C2902 1.385 . S
C2904 C2902 1.478 . S
C2904 C2906 1.381 . S
C2904 C2910 1.383 . S
C2905 C2901 1.495 . S
C2905 H2911 0.959 . S
C2905 H2912 0.961 . S
C2905 H2913 0.960 . S
C2906 C2904 1.381 . S
C2906 C2907 1.394 . S
C2906 H2914 0.930 . S
C2907 C2906 1.394 . S
C2907 C2908 1.383 . S
C2907 H2915 0.929 . S
C2908 C2907 1.383 . S
C2908 C2909 1.377 . S
C2909 H2893 0.930 . S
C2909 C2908 1.377 . S
C2909 C2910 1.379 . S
C2910 H2894 0.931 . S
C2910 C2904 1.383 . S
C2910 C2909 1.379 . S
H2911 C2905 0.959 . S
H2912 C2905 0.961 . S
H2913 C2905 0.960 . S
H2914 C2906 0.930 . S
H2915 C2907 0.929 . S
H2916 C2924 0.929 . S
H2917 C2926 0.930 . S
H2918 C2928 0.930 . S
H2919 C2931 0.929 . S
H2920 C2934 0.930 . S
H2921 C2936 0.960 . S
H2922 C2936 0.960 . S
H2923 C2936 0.960 . S
C2924 H2916 0.929 . S
C2924 C2925 1.377 . S
C2924 C2926 1.384 . S
C2925 C2924 1.377 . S
C2925 C2931 1.390 . S
C2926 H2917 0.930 . S
C2926 C2924 1.384 . S
C2926 C2927 1.372 . S
C2927 C2926 1.372 . S
C2927 C2928 1.400 . S
C2927 C2932 1.490 . S
C2928 H2918 0.930 . S
C2928 C2927 1.400 . S
C2928 C2931 1.386 . S
H2929 C2945 0.930 . S
H2930 C2946 0.931 . S
C2931 H2919 0.929 . S
C2931 C2925 1.390 . S
C2931 C2928 1.386 . S
C2932 C2927 1.490 . S
C2932 C2934 1.395 . S
C2932 C2935 1.403 . S
H2933 C2939 0.930 . S
C2934 H2920 0.930 . S
C2934 C2932 1.395 . S
C2934 C2937 1.403 . S
C2935 C2932 1.403 . S
C2935 C2936 1.524 . S
C2935 C2939 1.400 . S
C2936 H2921 0.960 . S
C2936 H2922 0.960 . S
C2936 H2923 0.960 . S
C2936 C2935 1.524 . S
C2937 C2934 1.403 . S
C2937 C2938 1.392 . S
C2937 C2941 1.495 . S
C2938 C2937 1.392 . S
C2938 C2939 1.385 . S
C2938 C2940 1.478 . S
C2939 H2933 0.930 . S
C2939 C2935 1.400 . S
C2939 C2938 1.385 . S
C2940 C2938 1.478 . S
C2940 C2942 1.381 . S
C2940 C2946 1.383 . S
C2941 C2937 1.495 . S
C2941 H2947 0.959 . S
C2941 H2948 0.961 . S
C2941 H2949 0.960 . S
C2942 C2940 1.381 . S
C2942 C2943 1.394 . S
C2942 H2950 0.930 . S
C2943 C2942 1.394 . S
C2943 C2944 1.383 . S
C2943 H2951 0.929 . S
C2944 C2943 1.383 . S
C2944 C2945 1.377 . S
C2945 H2929 0.930 . S
C2945 C2944 1.377 . S
C2945 C2946 1.379 . S
C2946 H2930 0.931 . S
C2946 C2940 1.383 . S
C2946 C2945 1.379 . S
H2947 C2941 0.959 . S
H2948 C2941 0.961 . S
H2949 C2941 0.960 . S
H2950 C2942 0.930 . S
H2951 C2943 0.929 . S
H2952 C2960 0.929 . S
H2953 C2962 0.930 . S
H2954 C2964 0.930 . S
H2955 C2967 0.929 . S
H2956 C2970 0.930 . S
H2957 C2972 0.960 . S
H2958 C2972 0.960 . S
H2959 C2972 0.960 . S
C2960 H2952 0.929 . S
C2960 C2961 1.377 . S
C2960 C2962 1.384 . S
C2961 C2960 1.377 . S
C2961 C2967 1.390 . S
C2962 H2953 0.930 . S
C2962 C2960 1.384 . S
C2962 C2963 1.372 . S
C2963 C2962 1.372 . S
C2963 C2964 1.400 . S
C2963 C2968 1.490 . S
C2964 H2954 0.930 . S
C2964 C2963 1.400 . S
C2964 C2967 1.386 . S
H2965 C2981 0.930 . S
H2966 C2982 0.931 . S
C2967 H2955 0.929 . S
C2967 C2961 1.390 . S
C2967 C2964 1.386 . S
C2968 C2963 1.490 . S
C2968 C2970 1.395 . S
C2968 C2971 1.403 . S
H2969 C2975 0.930 . S
C2970 H2956 0.930 . S
C2970 C2968 1.395 . S
C2970 C2973 1.403 . S
C2971 C2968 1.403 . S
C2971 C2972 1.524 . S
C2971 C2975 1.400 . S
C2972 H2957 0.960 . S
C2972 H2958 0.960 . S
C2972 H2959 0.960 . S
C2972 C2971 1.524 . S
C2973 C2970 1.403 . S
C2973 C2974 1.392 . S
C2973 C2977 1.495 . S
C2974 C2973 1.392 . S
C2974 C2975 1.385 . S
C2974 C2976 1.478 . S
C2975 H2969 0.930 . S
C2975 C2971 1.400 . S
C2975 C2974 1.385 . S
C2976 C2974 1.478 . S
C2976 C2978 1.381 . S
C2976 C2982 1.383 . S
C2977 C2973 1.495 . S
C2977 H2983 0.959 . S
C2977 H2984 0.961 . S
C2977 H2985 0.960 . S
C2978 C2976 1.381 . S
C2978 C2979 1.394 . S
C2978 H2986 0.930 . S
C2979 C2978 1.394 . S
C2979 C2980 1.383 . S
C2979 H2987 0.929 . S
C2980 C2979 1.383 . S
C2980 C2981 1.377 . S
C2981 H2965 0.930 . S
C2981 C2980 1.377 . S
C2981 C2982 1.379 . S
C2982 H2966 0.931 . S
C2982 C2976 1.383 . S
C2982 C2981 1.379 . S
H2983 C2977 0.959 . S
H2984 C2977 0.961 . S
H2985 C2977 0.960 . S
H2986 C2978 0.930 . S
H2987 C2979 0.929 . S
H2988 C2996 0.929 . S
H2989 C2998 0.930 . S
H2990 C3000 0.930 . S
H2991 C3003 0.929 . S
H2992 C3006 0.930 . S
H2993 C3008 0.960 . S
H2994 C3008 0.960 . S
H2995 C3008 0.960 . S
C2996 H2988 0.929 . S
C2996 C2997 1.377 . S
C2996 C2998 1.384 . S
C2997 C2996 1.377 . S
C2997 C3003 1.390 . S
C2998 H2989 0.930 . S
C2998 C2996 1.384 . S
C2998 C2999 1.372 . S
C2999 C2998 1.372 . S
C2999 C3000 1.400 . S
C2999 C3004 1.490 . S
C3000 H2990 0.930 . S
C3000 C2999 1.400 . S
C3000 C3003 1.386 . S
H3001 C3017 0.930 . S
H3002 C3018 0.931 . S
C3003 H2991 0.929 . S
C3003 C2997 1.390 . S
C3003 C3000 1.386 . S
C3004 C2999 1.490 . S
C3004 C3006 1.395 . S
C3004 C3007 1.403 . S
H3005 C3011 0.930 . S
C3006 H2992 0.930 . S
C3006 C3004 1.395 . S
C3006 C3009 1.403 . S
C3007 C3004 1.403 . S
C3007 C3008 1.524 . S
C3007 C3011 1.400 . S
C3008 H2993 0.960 . S
C3008 H2994 0.960 . S
C3008 H2995 0.960 . S
C3008 C3007 1.524 . S
C3009 C3006 1.403 . S
C3009 C3010 1.392 . S
C3009 C3013 1.495 . S
C3010 C3009 1.392 . S
C3010 C3011 1.385 . S
C3010 C3012 1.478 . S
C3011 H3005 0.930 . S
C3011 C3007 1.400 . S
C3011 C3010 1.385 . S
C3012 C3010 1.478 . S
C3012 C3014 1.381 . S
C3012 C3018 1.383 . S
C3013 C3009 1.495 . S
C3013 H3019 0.959 . S
C3013 H3020 0.961 . S
C3013 H3021 0.960 . S
C3014 C3012 1.381 . S
C3014 C3015 1.394 . S
C3014 H3022 0.930 . S
C3015 C3014 1.394 . S
C3015 C3016 1.383 . S
C3015 H3023 0.929 . S
C3016 C3015 1.383 . S
C3016 C3017 1.377 . S
C3017 H3001 0.930 . S
C3017 C3016 1.377 . S
C3017 C3018 1.379 . S
C3018 H3002 0.931 . S
C3018 C3012 1.383 . S
C3018 C3017 1.379 . S
H3019 C3013 0.959 . S
H3020 C3013 0.961 . S
H3021 C3013 0.960 . S
H3022 C3014 0.930 . S
H3023 C3015 0.929 . S
H3024 C3032 0.929 . S
H3025 C3034 0.930 . S
H3026 C3036 0.930 . S
H3027 C3039 0.929 . S
H3028 C3042 0.930 . S
H3029 C3044 0.960 . S
H3030 C3044 0.960 . S
H3031 C3044 0.960 . S
C3032 H3024 0.929 . S
C3032 C3033 1.377 . S
C3032 C3034 1.384 . S
C3033 C3032 1.377 . S
C3033 C3039 1.390 . S
C3034 H3025 0.930 . S
C3034 C3032 1.384 . S
C3034 C3035 1.372 . S
C3035 C3034 1.372 . S
C3035 C3036 1.400 . S
C3035 C3040 1.490 . S
C3036 H3026 0.930 . S
C3036 C3035 1.400 . S
C3036 C3039 1.386 . S
H3037 C3053 0.930 . S
H3038 C3054 0.931 . S
C3039 H3027 0.929 . S
C3039 C3033 1.390 . S
C3039 C3036 1.386 . S
C3040 C3035 1.490 . S
C3040 C3042 1.395 . S
C3040 C3043 1.403 . S
H3041 C3047 0.930 . S
C3042 H3028 0.930 . S
C3042 C3040 1.395 . S
C3042 C3045 1.403 . S
C3043 C3040 1.403 . S
C3043 C3044 1.524 . S
C3043 C3047 1.400 . S
C3044 H3029 0.960 . S
C3044 H3030 0.960 . S
C3044 H3031 0.960 . S
C3044 C3043 1.524 . S
C3045 C3042 1.403 . S
C3045 C3046 1.392 . S
C3045 C3049 1.495 . S
C3046 C3045 1.392 . S
C3046 C3047 1.385 . S
C3046 C3048 1.478 . S
C3047 H3041 0.930 . S
C3047 C3043 1.400 . S
C3047 C3046 1.385 . S
C3048 C3046 1.478 . S
C3048 C3050 1.381 . S
C3048 C3054 1.383 . S
C3049 C3045 1.495 . S
C3049 H3055 0.959 . S
C3049 H3056 0.961 . S
C3049 H3057 0.960 . S
C3050 C3048 1.381 . S
C3050 C3051 1.394 . S
C3050 H3058 0.930 . S
C3051 C3050 1.394 . S
C3051 C3052 1.383 . S
C3051 H3059 0.929 . S
C3052 C3051 1.383 . S
C3052 C3053 1.377 . S
C3053 H3037 0.930 . S
C3053 C3052 1.377 . S
C3053 C3054 1.379 . S
C3054 H3038 0.931 . S
C3054 C3048 1.383 . S
C3054 C3053 1.379 . S
H3055 C3049 0.959 . S
H3056 C3049 0.961 . S
H3057 C3049 0.960 . S
H3058 C3050 0.930 . S
H3059 C3051 0.929 . S
C477 C8 1.331 . S
C496 C242 1.304 . S
C513 C255 1.329 . S
C532 C21 1.335 . S
C549 C268 1.339 . S
C568 C34 1.335 . S
C585 C47 1.338 . S
C604 C437 1.343 . S
C621 C60 1.331 . S
C640 C450 1.346 . S
C657 C73 1.330 . S
C676 C463 1.305 . S
C693 C320 1.328 . S
C712 C86 1.309 . S
C729 C99 1.328 . S
C748 C333 1.327 . S
C765 C112 1.336 . S
C784 C346 1.357 . S
C801 C203 1.330 . S
C820 C125 1.304 . S
C837 C216 1.339 . S
C856 C138 1.345 . S
C873 C229 1.328 . S
C892 C151 1.325 . S
C909 C398 1.336 . S
C928 C164 1.357 . S
C945 C411 1.336 . S
C964 C177 1.356 . S
C981 C190 1.334 . S
C1000 C424 1.353 . S
C1017 C359 1.338 . S
C1036 C281 1.350 . S
C1053 C294 1.331 . S
C1072 C372 1.347 . S
C1089 C307 1.331 . S
C1108 C385 1.304 . S
C1125 C0 1.327 . S
C1144 C351 1.340 . S
C1161 C364 1.313 . S
C1180 C13 1.333 . S
C1197 C377 1.327 . S
C1216 C26 1.321 . S
C1233 C156 1.313 . S
C1252 C39 1.282 . S
C1269 C169 1.327 . S
C1288 C52 1.340 . S
C1305 C182 1.317 . S
C1324 C65 1.349 . S
C1341 C78 1.327 . S
C1360 C273 1.278 . S
C1377 C286 1.312 . S
C1396 C91 1.354 . S
C1413 C299 1.311 . S
C1432 C104 1.354 . S
C1449 C117 1.317 . S
C1468 C390 1.315 . S
C1485 C130 1.327 . S
C1504 C403 1.280 . S
C1521 C143 1.311 . S
C1540 C416 1.352 . S
C1557 C195 1.312 . S
C1576 C312 1.292 . S
C1593 C208 1.317 . S
C1612 C325 1.278 . S
C1629 C221 1.319 . S
C1648 C338 1.279 . S
C1665 C234 1.327 . S
C1684 C429 1.284 . S
C1701 C442 1.316 . S
C1720 C247 1.324 . S
C1737 C260 1.313 . S
C1756 C455 1.352 . S
C1773 C23 0.804 . S
C1792 C5 0.862 . S
C1809 C18 0.788 . S
C1828 C36 0.801 . S
C1845 C31 0.764 . S
C1864 C10 0.814 . S
C1881 C44 0.763 . S
C1900 C75 0.815 . S
C1917 C49 0.805 . S
C1936 C57 0.827 . S
C1953 C70 0.762 . S
C1972 C62 0.816 . S
C1989 C83 0.764 . S
C2008 C101 0.796 . S
C2025 C96 0.769 . S
C2044 C114 0.809 . S
C2061 C109 0.774 . S
C2080 C88 0.812 . S
C2097 C153 0.804 . S
C2116 C122 0.702 . S
C2133 C135 0.796 . S
C2152 C127 0.814 . S
C2169 C140 0.807 . S
C2188 C148 0.739 . S
C2205 C179 0.809 . S
C2224 C161 0.693 . S
C2241 C192 0.804 . S
C2260 C174 0.862 . S
C2277 C166 0.807 . S
C2296 C187 0.776 . S
C2313 C200 0.791 . S
C2332 C231 0.800 . S
C2349 C213 0.787 . S
C2368 C205 0.802 . S
C2385 C226 0.787 . S
C2404 C218 0.802 . S
C2421 C257 0.804 . S
C2440 C239 0.722 . S
C2457 C252 0.775 . S
C2476 C270 0.796 . S
C2493 C265 0.791 . S
C2512 C244 0.805 . S
C2529 C278 0.785 . S
C2548 C309 0.816 . S
C2565 C291 0.793 . S
C2584 C283 0.816 . S
C2601 C296 0.804 . S
C2620 C304 0.720 . S
C2637 C335 0.807 . S
C2656 C317 0.789 . S
C2673 C330 0.792 . S
C2692 C348 0.797 . S
C2709 C322 0.808 . S
C2728 C343 0.709 . S
C2745 C356 0.767 . S
C2764 C387 0.812 . S
C2781 C369 0.794 . S
C2800 C361 0.796 . S
C2817 C382 0.778 . S
C2836 C374 0.805 . S
C2853 C395 0.761 . S
C2872 C413 0.799 . S
C2889 C408 0.777 . S
C2908 C426 0.797 . S
C2925 C421 0.796 . S
C2944 C400 0.812 . S
C2961 C434 0.796 . S
C2980 C465 0.813 . S
C2997 C447 0.796 . S
C3016 C439 0.812 . S
C3033 C452 0.805 . S
C3052 C460 0.791 . S
