# Generated by pormake.
# Topology uoq, (4)-cn, num edge types: 1
# Building blocks:
#     Node 0, Type 0, BuildingBlock: UXUYUI_clean_sbu_0, # of connection points: 4
#     Node 1, Type 0, BuildingBlock: UXUYUI_clean_sbu_0, # of connection points: 4
#     Node 2, Type 0, BuildingBlock: UXUYUI_clean_sbu_0, # of connection points: 4
#     Node 3, Type 0, BuildingBlock: UXUYUI_clean_sbu_0, # of connection points: 4
#     Node 4, Type 0, BuildingBlock: UXUYUI_clean_sbu_0, # of connection points: 4
#     Node 5, Type 0, BuildingBlock: UXUYUI_clean_sbu_0, # of connection points: 4
#     Node 6, Type 0, BuildingBlock: UXUYUI_clean_sbu_0, # of connection points: 4
#     Node 7, Type 0, BuildingBlock: UXUYUI_clean_sbu_0, # of connection points: 4
#     Node 8, Type 0, BuildingBlock: UXUYUI_clean_sbu_0, # of connection points: 4
#     Node 9, Type 0, BuildingBlock: UXUYUI_clean_sbu_0, # of connection points: 4
#     Node 10, Type 0, BuildingBlock: UXUYUI_clean_sbu_0, # of connection points: 4
#     Node 11, Type 0, BuildingBlock: UXUYUI_clean_sbu_0, # of connection points: 4
#     Edge 12, Type (0, 0), BuildingBlock: MIFKUJ_clean_linker_0, # of connection points: 2
#     Edge 13, Type (0, 0), BuildingBlock: MIFKUJ_clean_linker_0, # of connection points: 2
#     Edge 14, Type (0, 0), BuildingBlock: MIFKUJ_clean_linker_0, # of connection points: 2
#     Edge 15, Type (0, 0), BuildingBlock: MIFKUJ_clean_linker_0, # of connection points: 2
#     Edge 16, Type (0, 0), BuildingBlock: MIFKUJ_clean_linker_0, # of connection points: 2
#     Edge 17, Type (0, 0), BuildingBlock: MIFKUJ_clean_linker_0, # of connection points: 2
#     Edge 18, Type (0, 0), BuildingBlock: MIFKUJ_clean_linker_0, # of connection points: 2
#     Edge 19, Type (0, 0), BuildingBlock: MIFKUJ_clean_linker_0, # of connection points: 2
#     Edge 20, Type (0, 0), BuildingBlock: MIFKUJ_clean_linker_0, # of connection points: 2
#     Edge 21, Type (0, 0), BuildingBlock: MIFKUJ_clean_linker_0, # of connection points: 2
#     Edge 22, Type (0, 0), BuildingBlock: MIFKUJ_clean_linker_0, # of connection points: 2
#     Edge 23, Type (0, 0), BuildingBlock: MIFKUJ_clean_linker_0, # of connection points: 2
#     Edge 24, Type (0, 0), BuildingBlock: MIFKUJ_clean_linker_0, # of connection points: 2
#     Edge 25, Type (0, 0), BuildingBlock: MIFKUJ_clean_linker_0, # of connection points: 2
#     Edge 26, Type (0, 0), BuildingBlock: MIFKUJ_clean_linker_0, # of connection points: 2
#     Edge 27, Type (0, 0), BuildingBlock: MIFKUJ_clean_linker_0, # of connection points: 2
#     Edge 28, Type (0, 0), BuildingBlock: MIFKUJ_clean_linker_0, # of connection points: 2
#     Edge 29, Type (0, 0), BuildingBlock: MIFKUJ_clean_linker_0, # of connection points: 2
#     Edge 30, Type (0, 0), BuildingBlock: MIFKUJ_clean_linker_0, # of connection points: 2
#     Edge 31, Type (0, 0), BuildingBlock: MIFKUJ_clean_linker_0, # of connection points: 2
#     Edge 32, Type (0, 0), BuildingBlock: MIFKUJ_clean_linker_0, # of connection points: 2
#     Edge 33, Type (0, 0), BuildingBlock: MIFKUJ_clean_linker_0, # of connection points: 2
#     Edge 34, Type (0, 0), BuildingBlock: MIFKUJ_clean_linker_0, # of connection points: 2
#     Edge 35, Type (0, 0), BuildingBlock: MIFKUJ_clean_linker_0, # of connection points: 2
# Relax obj value: 0.147
# Max RMSD: 0.104
# Mean RMSD: 0.104
data_MOF--net-uoq--node1-UXUYUI_clean_sbu_0--edge1-MIFKUJ_clean_linker_0
_symmetry_space_group_name_H-M    P1
_symmetry_Int_Tables_number       1
_symmetry_cell_setting            triclinic
loop_
_symmetry_equiv_pos_as_xyz
'x, y, z'
_cell_length_a     101.65778
_cell_length_b     101.66838
_cell_length_c     42.470806
_cell_angle_alpha  90.001458
_cell_angle_beta   89.998585
_cell_angle_gamma 120.01289
loop_
_atom_site_label
_atom_site_type_symbol
_atom_site_fract_x
_atom_site_fract_y
_atom_site_fract_z
_atom_type_partial_charge
Li0 Li 0.28965 0.44285 0.27555 0.0
Li1 Li 0.3053 0.43336 0.25276 0.0
Li2 Li 0.3151 0.46122 0.25206 0.0
Li3 Li 0.29469 0.44373 0.21917 0.0
C4 C 0.31382 0.45432 0.31728 0.0
N5 N 0.32136 0.46875 0.37502 0.0
C6 C 0.31946 0.44909 0.34122 0.0
C7 C 0.31197 0.46687 0.32269 0.0
C8 C 0.32322 0.45655 0.37026 0.0
C9 C 0.31586 0.47401 0.35204 0.0
C10 C 0.27815 0.41042 0.24637 0.0
C11 C 0.27644 0.38821 0.22189 0.0
N12 N 0.26879 0.3798 0.24747 0.0
C13 C 0.27012 0.40153 0.27224 0.0
C14 C 0.28119 0.40369 0.22083 0.0
C15 C 0.26554 0.38608 0.27241 0.0
C16 C 0.26926 0.44816 0.31253 0.0
N17 N 0.27683 0.44033 0.3103 0.0
C18 C 0.26834 0.42968 0.36149 0.0
C19 C 0.27657 0.43126 0.3341 0.0
C20 C 0.2603 0.43752 0.36435 0.0
C21 C 0.26074 0.44678 0.33938 0.0
H22 H 0.2701 0.45575 0.29387 0.0
H23 H 0.28302 0.42547 0.33199 0.0
C24 C 0.32058 0.41682 0.24043 0.0
N25 N 0.31157 0.41897 0.26094 0.0
C26 C 0.32633 0.40733 0.24854 0.0
C27 C 0.31308 0.40222 0.2983 0.0
C28 C 0.30765 0.41183 0.28929 0.0
C29 C 0.32276 0.40006 0.27803 0.0
H30 H 0.32361 0.42276 0.21815 0.0
H31 H 0.30064 0.41396 0.30527 0.0
C32 C 0.28532 0.46315 0.23038 0.0
N33 N 0.26512 0.46797 0.19563 0.0
C34 C 0.26993 0.45206 0.22939 0.0
C35 C 0.29042 0.47671 0.21375 0.0
C36 C 0.25991 0.45471 0.21166 0.0
C37 C 0.28003 0.47894 0.19634 0.0
C38 C 0.3203 0.45141 0.18797 0.0
C39 C 0.32916 0.46649 0.17819 0.0
C40 C 0.31584 0.43967 0.16607 0.0
C41 C 0.33318 0.46959 0.14647 0.0
C42 C 0.32006 0.44324 0.13456 0.0
N43 N 0.32856 0.458 0.12548 0.0
C44 C 0.34411 0.47939 0.27596 0.0
C45 C 0.3344 0.49373 0.25162 0.0
C46 C 0.35708 0.49261 0.28561 0.0
N47 N 0.33299 0.48016 0.25979 0.0
C48 C 0.34736 0.50729 0.26028 0.0
C49 C 0.35886 0.50688 0.27799 0.0
H50 H 0.34266 0.46842 0.28221 0.0
H51 H 0.3254 0.49403 0.23875 0.0
C52 C 0.27167 0.42907 0.17333 0.0
N53 N 0.28517 0.44189 0.17894 0.0
C54 C 0.26315 0.428 0.14668 0.0
C55 C 0.28278 0.45315 0.13139 0.0
C56 C 0.29087 0.45378 0.15846 0.0
C57 C 0.26859 0.44024 0.12555 0.0
H58 H 0.2672 0.4199 0.19022 0.0
H59 H 0.30135 0.46405 0.16387 0.0
O60 O 0.30995 0.44703 0.28883 0.0
O61 O 0.28303 0.42564 0.24601 0.0
O62 O 0.29536 0.4605 0.24682 0.0
O63 O 0.31627 0.44817 0.21893 0.0
H64 H 0.32092 0.43936 0.3374 0.0
H65 H 0.30755 0.47103 0.30447 0.0
H66 H 0.3276 0.45263 0.38902 0.0
H67 H 0.3145 0.48373 0.35656 0.0
H68 H 0.27883 0.38288 0.20239 0.0
H69 H 0.26745 0.40648 0.29198 0.0
H70 H 0.28725 0.41037 0.20051 0.0
H71 H 0.25939 0.37909 0.29236 0.0
H72 H 0.26827 0.42241 0.38023 0.0
H73 H 0.25492 0.45324 0.34098 0.0
H74 H 0.33365 0.40587 0.23213 0.0
H75 H 0.31022 0.39703 0.32141 0.0
H76 H 0.26581 0.4414 0.24175 0.0
H77 H 0.30228 0.48536 0.2139 0.0
H78 H 0.248 0.44617 0.2105 0.0
H79 H 0.28383 0.48935 0.18323 0.0
H80 H 0.33279 0.47571 0.19483 0.0
H81 H 0.30917 0.42794 0.17329 0.0
H82 H 0.33994 0.48122 0.13853 0.0
H83 H 0.3166 0.43427 0.11732 0.0
H84 H 0.36539 0.49159 0.2997 0.0
H85 H 0.34828 0.51796 0.25329 0.0
H86 H 0.2523 0.41781 0.14295 0.0
H87 H 0.28726 0.46294 0.11599 0.0
Li88 Li 0.84819 0.29257 0.61063 0.0
Li89 Li 0.87324 0.30754 0.58525 0.0
Li90 Li 0.85496 0.31622 0.58623 0.0
Li91 Li 0.84983 0.29413 0.55273 0.0
C92 C 0.87 0.32551 0.63997 0.0
N93 N 0.87981 0.35207 0.67376 0.0
C94 C 0.88523 0.33702 0.63867 0.0
C95 C 0.8598 0.32749 0.6587 0.0
C96 C 0.88996 0.35035 0.65591 0.0
C97 C 0.86497 0.34101 0.67549 0.0
C98 C 0.86366 0.2756 0.58809 0.0
C99 C 0.87164 0.25805 0.57089 0.0
N100 N 0.87403 0.25573 0.60138 0.0
C101 C 0.86604 0.2729 0.61927 0.0
C102 C 0.86635 0.268 0.56369 0.0
C103 C 0.87135 0.26288 0.6255 0.0
C104 C 0.82771 0.26436 0.63922 0.0
N105 N 0.83793 0.27923 0.64477 0.0
C106 C 0.83365 0.27562 0.70015 0.0
C107 C 0.84113 0.28492 0.67448 0.0
C108 C 0.82281 0.26027 0.6952 0.0
C109 C 0.81991 0.25463 0.66423 0.0
H110 H 0.82558 0.26011 0.61532 0.0
H111 H 0.84949 0.2967 0.67826 0.0
C112 C 0.90541 0.32423 0.5714 0.0
N113 N 0.89434 0.31384 0.59054 0.0
C114 C 0.92073 0.33001 0.57887 0.0
C115 C 0.91303 0.31434 0.62553 0.0
C116 C 0.8979 0.30892 0.61724 0.0
C117 C 0.92469 0.3252 0.60648 0.0
H118 H 0.90249 0.32856 0.55104 0.0
H119 H 0.88899 0.30136 0.63302 0.0
C120 C 0.82145 0.28779 0.59289 0.0
N121 N 0.79315 0.26883 0.61868 0.0
C122 C 0.81112 0.27446 0.5773 0.0
C123 C 0.81729 0.29157 0.62141 0.0
C124 C 0.79689 0.26501 0.59076 0.0
C125 C 0.80297 0.28181 0.63413 0.0
C126 C 0.8752 0.31753 0.52254 0.0
C127 C 0.88015 0.33041 0.50365 0.0
C128 C 0.87854 0.30626 0.51386 0.0
C129 C 0.88843 0.33182 0.47635 0.0
C130 C 0.88683 0.30808 0.48639 0.0
N131 N 0.89157 0.32072 0.46836 0.0
C132 C 0.86623 0.34779 0.58862 0.0
C133 C 0.83958 0.33276 0.59523 0.0
C134 C 0.86581 0.36095 0.59607 0.0
N135 N 0.8533 0.33403 0.58939 0.0
C136 C 0.83859 0.34564 0.6024 0.0
C137 C 0.85188 0.35995 0.6038 0.0
H138 H 0.87698 0.34845 0.5837 0.0
H139 H 0.82944 0.32171 0.59519 0.0
C140 C 0.83407 0.26771 0.51625 0.0
N141 N 0.84103 0.2831 0.51497 0.0
C142 C 0.82647 0.25896 0.48992 0.0
C143 C 0.83391 0.28211 0.461 0.0
C144 C 0.84114 0.2904 0.48809 0.0
C145 C 0.82622 0.26612 0.46173 0.0
H146 H 0.83403 0.26221 0.53809 0.0
H147 H 0.8467 0.30266 0.48775 0.0
O148 O 0.86509 0.31247 0.62279 0.0
O149 O 0.85825 0.2852 0.58144 0.0
O150 O 0.83557 0.29703 0.5804 0.0
O151 O 0.86693 0.31593 0.54911 0.0
H152 H 0.8933 0.33578 0.62426 0.0
H153 H 0.84798 0.31878 0.65994 0.0
H154 H 0.90169 0.35936 0.65497 0.0
H155 H 0.85716 0.34273 0.68983 0.0
H156 H 0.87381 0.25214 0.55223 0.0
H157 H 0.86394 0.27859 0.63848 0.0
H158 H 0.8643 0.26971 0.53943 0.0
H159 H 0.87334 0.26078 0.64952 0.0
H160 H 0.83614 0.28047 0.72358 0.0
H161 H 0.81179 0.24283 0.65942 0.0
H162 H 0.92937 0.33841 0.56357 0.0
H163 H 0.91555 0.31062 0.64747 0.0
H164 H 0.81405 0.27142 0.55509 0.0
H165 H 0.82513 0.30181 0.63383 0.0
H166 H 0.78882 0.25463 0.579 0.0
H167 H 0.79968 0.28453 0.65634 0.0
H168 H 0.87761 0.33921 0.51003 0.0
H169 H 0.87482 0.29627 0.52824 0.0
H170 H 0.89235 0.34173 0.46151 0.0
H171 H 0.88951 0.29945 0.47942 0.0
H172 H 0.87638 0.37165 0.5971 0.0
H173 H 0.82755 0.34434 0.60736 0.0
H174 H 0.82051 0.24671 0.49203 0.0
H175 H 0.83433 0.28821 0.4398 0.0
Li176 Li 0.56802 0.8716 0.92194 0.0
Li177 Li 0.55653 0.84618 0.94553 0.0
Li178 Li 0.55725 0.84961 0.88816 0.0
Li179 Li 0.54034 0.85434 0.92111 0.0
C180 C 0.5898 0.86416 0.9204 0.0
N181 N 0.62095 0.88126 0.92726 0.0
C182 C 0.59676 0.86268 0.94749 0.0
C183 C 0.59868 0.87422 0.89667 0.0
C184 C 0.61253 0.87146 0.95053 0.0
C185 C 0.61441 0.8828 0.90063 0.0
C186 C 0.54619 0.8681 0.97633 0.0
C187 C 0.52533 0.86269 0.01119 0.0
N188 N 0.52958 0.87768 0.01122 0.0
C189 C 0.55038 0.88346 0.97683 0.0
C190 C 0.53361 0.85764 0.9938 0.0
C191 C 0.54184 0.88807 0.9946 0.0
C192 C 0.58385 0.90359 0.91204 0.0
N193 N 0.58326 0.89208 0.92938 0.0
C194 C 0.60215 0.90972 0.96464 0.0
C195 C 0.59215 0.89485 0.9552 0.0
C196 C 0.60263 0.92193 0.9481 0.0
C197 C 0.59346 0.91869 0.92109 0.0
H198 H 0.57634 0.90103 0.89209 0.0
H199 H 0.59108 0.88548 0.96917 0.0
C200 C 0.56136 0.82368 0.97512 0.0
N201 N 0.55849 0.83525 0.97978 0.0
C202 C 0.56244 0.81569 0.00083 0.0
C203 C 0.55826 0.83211 0.0355 0.0
C204 C 0.55718 0.83969 0.00921 0.0
C205 C 0.56076 0.81982 0.03153 0.0
H206 H 0.5627 0.82061 0.95146 0.0
H207 H 0.55539 0.84921 0.01233 0.0
C208 C 0.552 0.8686 0.85542 0.0
N209 N 0.54826 0.87016 0.79139 0.0
C210 C 0.53742 0.86236 0.84264 0.0
C211 C 0.56468 0.87578 0.83573 0.0
C212 C 0.53576 0.86324 0.81018 0.0
C213 C 0.56255 0.8764 0.80339 0.0
C214 C 0.53452 0.82027 0.92347 0.0
C215 C 0.53821 0.81089 0.90608 0.0
C216 C 0.52569 0.81465 0.95069 0.0
C217 C 0.53304 0.79603 0.9163 0.0
C218 C 0.52078 0.79974 0.96016 0.0
N219 N 0.52452 0.79082 0.94291 0.0
C220 C 0.57191 0.84159 0.84135 0.0
C221 C 0.54613 0.83375 0.83091 0.0
C222 C 0.57267 0.83411 0.8144 0.0
N223 N 0.55875 0.84119 0.84913 0.0
C224 C 0.5464 0.82622 0.80364 0.0
C225 C 0.55974 0.82612 0.79528 0.0
H226 H 0.58169 0.8473 0.8566 0.0
H227 H 0.53571 0.83333 0.83802 0.0
C228 C 0.52093 0.86666 0.92454 0.0
N229 N 0.52125 0.85346 0.92458 0.0
C230 C 0.50756 0.86664 0.93214 0.0
C231 C 0.49488 0.83932 0.93752 0.0
C232 C 0.50852 0.83989 0.93004 0.0
C233 C 0.49439 0.85286 0.93942 0.0
H234 H 0.53123 0.87728 0.91989 0.0
H235 H 0.50908 0.82956 0.92968 0.0
O236 O 0.57437 0.85576 0.9171 0.0
O237 O 0.55417 0.86329 0.95844 0.0
O238 O 0.55384 0.86766 0.88704 0.0
O239 O 0.53959 0.83491 0.91403 0.0
H240 H 0.59006 0.85493 0.96606 0.0
H241 H 0.59345 0.87546 0.87555 0.0
H242 H 0.61808 0.87049 0.97143 0.0
H243 H 0.62142 0.8907 0.88254 0.0
H244 H 0.51549 0.8547 0.02455 0.0
H245 H 0.56003 0.89172 0.96341 0.0
H246 H 0.53014 0.84569 0.99354 0.0
H247 H 0.54491 0.89991 0.99507 0.0
H248 H 0.60915 0.91154 0.98521 0.0
H249 H 0.59316 0.92762 0.90783 0.0
H250 H 0.56435 0.80627 0.99667 0.0
H251 H 0.5573 0.83595 0.05872 0.0
H252 H 0.52749 0.85677 0.8576 0.0
H253 H 0.57603 0.88073 0.84533 0.0
H254 H 0.52455 0.85838 0.79992 0.0
H255 H 0.57225 0.88183 0.78783 0.0
H256 H 0.54509 0.81505 0.88507 0.0
H257 H 0.52286 0.82179 0.96464 0.0
H258 H 0.53585 0.78867 0.90312 0.0
H259 H 0.51403 0.79528 0.9813 0.0
H260 H 0.58312 0.83415 0.80929 0.0
H261 H 0.53621 0.82039 0.7895 0.0
H262 H 0.5076 0.87731 0.93292 0.0
H263 H 0.48501 0.82847 0.94311 0.0
Li264 Li 0.70772 0.55711 0.28091 0.0
Li265 Li 0.69491 0.56732 0.25203 0.0
Li266 Li 0.68333 0.53985 0.25564 0.0
Li267 Li 0.70758 0.55644 0.22291 0.0
C268 C 0.68635 0.56188 0.31518 0.0
N269 N 0.68381 0.57766 0.36556 0.0
C270 C 0.69836 0.57628 0.32287 0.0
C271 C 0.67305 0.55549 0.33313 0.0
C272 C 0.69685 0.58409 0.3484 0.0
C273 C 0.67199 0.56364 0.35853 0.0
C274 C 0.72721 0.58881 0.2448 0.0
C275 C 0.73999 0.60939 0.20778 0.0
N276 N 0.74821 0.61878 0.23178 0.0
C277 C 0.73593 0.59862 0.26905 0.0
C278 C 0.72936 0.5942 0.21387 0.0
C279 C 0.74643 0.61374 0.262 0.0
C280 C 0.73503 0.56584 0.3136 0.0
N281 N 0.71971 0.55907 0.31679 0.0
C282 C 0.72135 0.55451 0.37138 0.0
C283 C 0.71277 0.55337 0.34485 0.0
C284 C 0.73724 0.56138 0.36892 0.0
C285 C 0.74406 0.56706 0.33946 0.0
H286 H 0.74019 0.5701 0.29084 0.0
H287 H 0.70054 0.54784 0.34661 0.0
C288 C 0.67369 0.57638 0.26094 0.0
N289 N 0.68868 0.58229 0.25423 0.0
C290 C 0.66787 0.58589 0.26785 0.0
C291 C 0.69299 0.60753 0.26058 0.0
C292 C 0.69831 0.59757 0.25348 0.0
C293 C 0.67763 0.60168 0.26834 0.0
H294 H 0.66636 0.5642 0.26232 0.0
H295 H 0.71019 0.60212 0.24855 0.0
C296 C 0.70957 0.53289 0.26946 0.0
N297 N 0.72407 0.52111 0.30481 0.0
C298 C 0.72426 0.5362 0.26152 0.0
C299 C 0.70222 0.52353 0.29525 0.0
C300 C 0.7314 0.53014 0.27972 0.0
C301 C 0.70975 0.5177 0.31287 0.0
C302 C 0.67829 0.55744 0.19998 0.0
C303 C 0.66246 0.5501 0.20213 0.0
C304 C 0.68598 0.57024 0.18077 0.0
C305 C 0.65461 0.5559 0.18555 0.0
C306 C 0.67773 0.5757 0.16456 0.0
N307 N 0.66235 0.56849 0.1673 0.0
C308 C 0.65277 0.52174 0.27119 0.0
C309 C 0.66469 0.50767 0.25685 0.0
C310 C 0.63945 0.50844 0.27914 0.0
N311 N 0.66507 0.52113 0.26065 0.0
C312 C 0.6516 0.49406 0.26473 0.0
C313 C 0.63883 0.49435 0.27659 0.0
H314 H 0.65347 0.53264 0.27413 0.0
H315 H 0.67472 0.50755 0.24875 0.0
C316 C 0.73433 0.56442 0.18932 0.0
N317 N 0.71895 0.55719 0.18686 0.0
C318 C 0.74316 0.56502 0.16362 0.0
C319 C 0.72015 0.55065 0.13331 0.0
C320 C 0.71175 0.5504 0.15961 0.0
C321 C 0.7361 0.55799 0.13512 0.0
H322 H 0.73972 0.56973 0.21135 0.0
H323 H 0.69948 0.54467 0.15843 0.0
O324 O 0.68745 0.55418 0.28982 0.0
O325 O 0.71696 0.57394 0.2513 0.0
O326 O 0.70259 0.53913 0.2526 0.0
O327 O 0.68619 0.55208 0.21647 0.0
H328 H 0.70866 0.58141 0.3091 0.0
H329 H 0.66365 0.54435 0.3275 0.0
H330 H 0.70604 0.59527 0.35453 0.0
H331 H 0.66176 0.55884 0.37262 0.0
H332 H 0.74173 0.61372 0.18396 0.0
H333 H 0.73464 0.5946 0.29306 0.0
H334 H 0.72299 0.58673 0.19473 0.0
H335 H 0.75319 0.62147 0.28055 0.0
H336 H 0.71558 0.55015 0.39361 0.0
H337 H 0.7562 0.57219 0.33623 0.0
H338 H 0.65601 0.58089 0.27423 0.0
H339 H 0.70086 0.61965 0.2606 0.0
H340 H 0.73012 0.54349 0.24171 0.0
H341 H 0.69092 0.52101 0.30192 0.0
H342 H 0.74279 0.53266 0.27395 0.0
H343 H 0.70425 0.51053 0.33304 0.0
H344 H 0.65631 0.54008 0.21658 0.0
H345 H 0.69818 0.57592 0.17846 0.0
H346 H 0.64237 0.5504 0.1872 0.0
H347 H 0.68356 0.58566 0.14978 0.0
H348 H 0.62982 0.50922 0.28763 0.0
H349 H 0.65172 0.4835 0.26271 0.0
H350 H 0.75541 0.57101 0.16603 0.0
H351 H 0.71419 0.54492 0.11201 0.0
Li352 Li 0.14992 0.70812 0.60984 0.0
Li353 Li 0.12632 0.69346 0.58318 0.0
Li354 Li 0.14466 0.68422 0.58564 0.0
Li355 Li 0.15064 0.70823 0.55348 0.0
C356 C 0.12827 0.6803 0.64746 0.0
N357 N 0.11718 0.66573 0.70441 0.0
C358 C 0.11551 0.67982 0.66112 0.0
C359 C 0.1354 0.67339 0.66287 0.0
C360 C 0.11008 0.67239 0.68989 0.0
C361 C 0.12961 0.66607 0.6916 0.0
C362 C 0.14003 0.72697 0.59846 0.0
C363 C 0.14963 0.75347 0.60987 0.0
N364 N 0.14113 0.74952 0.6366 0.0
C365 C 0.13128 0.72317 0.62589 0.0
C366 C 0.1492 0.74224 0.59023 0.0
C367 C 0.13203 0.73473 0.64492 0.0
C368 C 0.172 0.73501 0.64031 0.0
N369 N 0.15966 0.72109 0.64558 0.0
C370 C 0.16163 0.72569 0.70105 0.0
C371 C 0.15428 0.71643 0.67523 0.0
C372 C 0.1747 0.73985 0.69636 0.0
C373 C 0.17985 0.74456 0.66551 0.0
H374 H 0.17583 0.73865 0.61648 0.0
H375 H 0.14432 0.70555 0.67908 0.0
C376 C 0.09638 0.67042 0.59049 0.0
N377 N 0.10501 0.68559 0.58529 0.0
C378 C 0.0811 0.66404 0.59849 0.0
C379 C 0.08367 0.68893 0.59433 0.0
C380 C 0.09891 0.69482 0.58608 0.0
C381 C 0.07467 0.67341 0.60165 0.0
H382 H 0.10161 0.6634 0.59008 0.0
H383 H 0.10606 0.70687 0.58196 0.0
C384 C 0.17719 0.71089 0.59844 0.0
N385 N 0.20424 0.7245 0.63141 0.0
C386 C 0.18984 0.72382 0.58637 0.0
C387 C 0.17836 0.70476 0.62705 0.0
C388 C 0.20341 0.73056 0.60345 0.0
C389 C 0.19211 0.71184 0.64344 0.0
C390 C 0.12178 0.67967 0.52837 0.0
C391 C 0.11316 0.66387 0.52587 0.0
C392 C 0.11735 0.68874 0.51201 0.0
C393 C 0.10013 0.65737 0.5071 0.0
C394 C 0.10424 0.6818 0.49349 0.0
N395 N 0.09597 0.66639 0.49145 0.0
C396 C 0.13311 0.65332 0.59608 0.0
C397 C 0.15988 0.66721 0.58994 0.0
C398 C 0.13356 0.64021 0.60373 0.0
N399 N 0.14616 0.66648 0.58985 0.0
C400 C 0.16086 0.65435 0.59752 0.0
C401 C 0.1476 0.64067 0.60505 0.0
H402 H 0.1224 0.6532 0.59638 0.0
H403 H 0.17008 0.67786 0.58504 0.0
C404 C 0.17066 0.73455 0.51965 0.0
N405 N 0.16051 0.71948 0.51663 0.0
C406 C 0.17854 0.74316 0.49339 0.0
C407 C 0.16554 0.72053 0.46141 0.0
C408 C 0.15783 0.71237 0.48828 0.0
C409 C 0.17608 0.73614 0.46379 0.0
H410 H 0.17286 0.73981 0.54261 0.0
H411 H 0.1498 0.70033 0.48661 0.0
O412 O 0.13371 0.68745 0.61917 0.0
O413 O 0.13972 0.71578 0.57998 0.0
O414 O 0.16373 0.70428 0.58233 0.0
O415 O 0.13437 0.68626 0.54718 0.0
H416 H 0.10988 0.68518 0.64978 0.0
H417 H 0.14528 0.67364 0.65279 0.0
H418 H 0.10023 0.67194 0.70069 0.0
H419 H 0.13501 0.66067 0.70373 0.0
H420 H 0.15673 0.76534 0.60386 0.0
H421 H 0.12419 0.71143 0.63267 0.0
H422 H 0.15592 0.7454 0.56894 0.0
H423 H 0.12543 0.73194 0.66636 0.0
H424 H 0.15734 0.72163 0.72451 0.0
H425 H 0.18979 0.75551 0.66095 0.0
H426 H 0.07455 0.65197 0.60326 0.0
H427 H 0.07925 0.69661 0.59665 0.0
H428 H 0.18917 0.72864 0.56415 0.0
H429 H 0.16869 0.69475 0.63666 0.0
H430 H 0.21326 0.74062 0.59449 0.0
H431 H 0.19313 0.70729 0.66575 0.0
H432 H 0.11646 0.65671 0.53843 0.0
H433 H 0.12389 0.70099 0.51387 0.0
H434 H 0.0933 0.64515 0.50502 0.0
H435 H 0.10062 0.68867 0.48079 0.0
H436 H 0.12308 0.63 0.60984 0.0
H437 H 0.1719 0.65516 0.59794 0.0
H438 H 0.18676 0.7551 0.49638 0.0
H439 H 0.16326 0.7147 0.439 0.0
Li440 Li 0.44399 0.1528 0.94735 0.0
Li441 Li 0.4342 0.12779 0.92097 0.0
Li442 Li 0.46119 0.14598 0.92429 0.0
Li443 Li 0.44502 0.15143 0.88926 0.0
C444 C 0.45486 0.13151 0.97831 0.0
N445 N 0.47221 0.12344 0.01486 0.0
C446 C 0.45233 0.11668 0.97733 0.0
C447 C 0.46609 0.14218 0.9982 0.0
C448 C 0.46124 0.11283 0.99594 0.0
C449 C 0.47478 0.1379 0.01637 0.0
C450 C 0.41203 0.13831 0.91872 0.0
C451 C 0.38781 0.13032 0.89397 0.0
N452 N 0.38156 0.12947 0.92274 0.0
C453 C 0.40538 0.13748 0.94802 0.0
C454 C 0.4032 0.13481 0.89143 0.0
C455 C 0.38995 0.13293 0.94957 0.0
C456 C 0.43815 0.17461 0.97668 0.0
N457 N 0.44029 0.16259 0.9815 0.0
C458 C 0.4373 0.1638 0.03696 0.0
C459 C 0.43966 0.15697 0.01081 0.0
C460 C 0.43566 0.17663 0.03298 0.0
C461 C 0.43598 0.18195 0.00225 0.0
H462 H 0.43836 0.17862 0.95301 0.0
H463 H 0.44091 0.14711 0.01389 0.0
C464 C 0.42271 0.0962 0.91267 0.0
N465 N 0.41948 0.10669 0.92451 0.0
C466 C 0.41339 0.0808 0.91975 0.0
C467 C 0.39721 0.08722 0.9498 0.0
C468 C 0.40696 0.10248 0.94254 0.0
C469 C 0.40058 0.07615 0.93914 0.0
H470 H 0.43298 0.09986 0.89918 0.0
H471 H 0.40486 0.11099 0.95255 0.0
C472 C 0.46656 0.17988 0.92901 0.0
N473 N 0.47637 0.20899 0.95066 0.0
C474 C 0.46457 0.19015 0.91058 0.0
C475 C 0.47372 0.18451 0.9583 0.0
C476 C 0.46958 0.2048 0.92197 0.0
C477 C 0.47854 0.19924 0.96888 0.0
C478 C 0.4439 0.1266 0.85877 0.0
C479 C 0.45351 0.12495 0.83763 0.0
C480 C 0.42857 0.12058 0.85131 0.0
C481 C 0.44759 0.11731 0.80923 0.0
C482 C 0.42307 0.11301 0.82271 0.0
N483 N 0.43262 0.11155 0.80242 0.0
C484 C 0.48155 0.13471 0.92624 0.0
C485 C 0.49257 0.16084 0.93881 0.0
C486 C 0.495 0.13495 0.93413 0.0
N487 N 0.4805 0.14746 0.92942 0.0
C488 C 0.50624 0.1616 0.94689 0.0
C489 C 0.50749 0.14846 0.94522 0.0
H490 H 0.47172 0.12422 0.91877 0.0
H491 H 0.49148 0.17083 0.94084 0.0
C492 C 0.43413 0.16642 0.85126 0.0
N493 N 0.44355 0.16055 0.85134 0.0
C494 C 0.43342 0.17431 0.82505 0.0
C495 C 0.45198 0.16979 0.7992 0.0
C496 C 0.45236 0.162 0.82602 0.0
C497 C 0.44255 0.17624 0.79865 0.0
H498 H 0.42746 0.16533 0.87195 0.0
H499 H 0.45993 0.15742 0.82693 0.0
O500 O 0.44652 0.1356 0.95961 0.0
O501 O 0.42719 0.143 0.91667 0.0
O502 O 0.46163 0.16545 0.91832 0.0
O503 O 0.44961 0.13423 0.88645 0.0
H504 H 0.44369 0.10825 0.96218 0.0
H505 H 0.46818 0.15369 0.99934 0.0
H506 H 0.45947 0.10142 0.99525 0.0
H507 H 0.4836 0.14609 0.03163 0.0
H508 H 0.38085 0.12755 0.87305 0.0
H509 H 0.41197 0.14009 0.96941 0.0
H510 H 0.40816 0.13565 0.86848 0.0
H511 H 0.38465 0.13214 0.97211 0.0
H512 H 0.43669 0.15901 0.06004 0.0
H513 H 0.43485 0.19184 0.99797 0.0
H514 H 0.41665 0.07278 0.91142 0.0
H515 H 0.38738 0.08422 0.96442 0.0
H516 H 0.45926 0.18689 0.88771 0.0
H517 H 0.47535 0.17674 0.97293 0.0
H518 H 0.46805 0.21283 0.90799 0.0
H519 H 0.48397 0.2029 0.99163 0.0
H520 H 0.46542 0.12958 0.84308 0.0
H521 H 0.42098 0.12164 0.86754 0.0
H522 H 0.45489 0.11597 0.7926 0.0
H523 H 0.41121 0.10828 0.81666 0.0
H524 H 0.49541 0.12452 0.93272 0.0
H525 H 0.51567 0.17232 0.95474 0.0
H526 H 0.42588 0.17895 0.82554 0.0
H527 H 0.45935 0.17116 0.77954 0.0
Li528 Li 0.53847 0.68171 0.41656 0.0
Li529 Li 0.55667 0.70566 0.44783 0.0
Li530 Li 0.55588 0.70569 0.39047 0.0
Li531 Li 0.56605 0.69189 0.41693 0.0
C532 C 0.5325 0.70936 0.40816 0.0
N533 N 0.51983 0.72551 0.38273 0.0
C534 C 0.53529 0.72301 0.42193 0.0
C535 C 0.52307 0.70381 0.38177 0.0
C536 C 0.52882 0.73103 0.40865 0.0
C537 C 0.51683 0.71218 0.36916 0.0
C538 C 0.55827 0.67761 0.47085 0.0
C539 C 0.5784 0.67996 0.50457 0.0
N540 N 0.5723 0.66462 0.50379 0.0
C541 C 0.55214 0.66187 0.47048 0.0
C542 C 0.57146 0.68675 0.4881 0.0
C543 C 0.55942 0.65552 0.48726 0.0
C544 C 0.51906 0.65113 0.40293 0.0
N545 N 0.51931 0.66378 0.41401 0.0
C546 C 0.49219 0.65109 0.41417 0.0
C547 C 0.50629 0.66397 0.42013 0.0
C548 C 0.49153 0.638 0.40131 0.0
C549 C 0.50527 0.63812 0.39612 0.0
H550 H 0.52964 0.6514 0.39801 0.0
H551 H 0.50687 0.67424 0.42885 0.0
C552 C 0.56725 0.73258 0.48255 0.0
N553 N 0.55884 0.7172 0.48449 0.0
C554 C 0.56832 0.74157 0.50837 0.0
C555 C 0.55235 0.71868 0.53792 0.0
C556 C 0.55155 0.71013 0.51146 0.0
C557 C 0.5607 0.73464 0.53651 0.0
H558 H 0.57281 0.73786 0.46063 0.0
H559 H 0.54495 0.69786 0.51226 0.0
C560 C 0.54818 0.67792 0.3529 0.0
N561 N 0.54034 0.66348 0.2951 0.0
C562 C 0.55866 0.67563 0.33596 0.0
C563 C 0.53372 0.6729 0.34033 0.0
C564 C 0.55448 0.66831 0.30681 0.0
C565 C 0.52997 0.66561 0.31112 0.0
C566 C 0.58712 0.72222 0.40131 0.0
C567 C 0.58859 0.71687 0.37195 0.0
C568 C 0.59902 0.73584 0.413 0.0
C569 C 0.60199 0.72523 0.3548 0.0
C570 C 0.61226 0.74387 0.39514 0.0
N571 N 0.61345 0.73844 0.36666 0.0
C572 C 0.56115 0.73284 0.36122 0.0
C573 C 0.55786 0.71366 0.32514 0.0
C574 C 0.56297 0.74267 0.33648 0.0
N575 N 0.55835 0.71852 0.35518 0.0
C576 C 0.55985 0.72317 0.29977 0.0
C577 C 0.56233 0.73782 0.3053 0.0
H578 H 0.56202 0.73664 0.38529 0.0
H579 H 0.5561 0.7025 0.32059 0.0
C580 C 0.57374 0.66991 0.40477 0.0
N581 N 0.58011 0.6847 0.41347 0.0
C582 C 0.58287 0.66382 0.3966 0.0
C583 C 0.60503 0.68811 0.40794 0.0
C584 C 0.59542 0.6937 0.41624 0.0
C585 C 0.59876 0.67309 0.39703 0.0
H586 H 0.56152 0.663 0.4029 0.0
H587 H 0.60022 0.70539 0.42362 0.0
O588 O 0.53891 0.70147 0.42057 0.0
O589 O 0.55156 0.6841 0.45394 0.0
O590 O 0.5521 0.68507 0.38154 0.0
O591 O 0.57408 0.71433 0.41851 0.0
H592 H 0.54245 0.72742 0.44251 0.0
H593 H 0.52066 0.69321 0.37102 0.0
H594 H 0.53097 0.74166 0.41894 0.0
H595 H 0.50961 0.70806 0.34858 0.0
H596 H 0.58867 0.68689 0.5179 0.0
H597 H 0.54194 0.65467 0.45714 0.0
H598 H 0.57636 0.69897 0.48847 0.0
H599 H 0.55486 0.64336 0.48708 0.0
H600 H 0.48196 0.65149 0.41916 0.0
H601 H 0.50547 0.6285 0.38571 0.0
H602 H 0.5747 0.75381 0.50598 0.0
H603 H 0.54648 0.71284 0.55922 0.0
H604 H 0.56997 0.67958 0.34504 0.0
H605 H 0.52546 0.67457 0.35296 0.0
H606 H 0.5625 0.66649 0.29346 0.0
H607 H 0.51881 0.66164 0.30118 0.0
H608 H 0.57951 0.70639 0.3625 0.0
H609 H 0.59805 0.74016 0.43566 0.0
H610 H 0.60328 0.7212 0.33207 0.0
H611 H 0.62157 0.75443 0.40392 0.0
H612 H 0.56508 0.754 0.34165 0.0
H613 H 0.55925 0.71901 0.27603 0.0
H614 H 0.5775 0.65207 0.38917 0.0
H615 H 0.6172 0.69569 0.40864 0.0
Li616 Li 0.85034 0.55671 0.77967 0.0
Li617 Li 0.85651 0.53935 0.74666 0.0
Li618 Li 0.87365 0.56686 0.74923 0.0
Li619 Li 0.84983 0.557 0.72235 0.0
C620 C 0.87984 0.5586 0.80278 0.0
N621 N 0.90638 0.57305 0.83727 0.0
C622 C 0.89005 0.5532 0.80211 0.0
C623 C 0.88304 0.57128 0.82111 0.0
C624 C 0.90344 0.56069 0.81969 0.0
C625 C 0.89655 0.57844 0.83835 0.0
C626 C 0.82254 0.53328 0.73993 0.0
C627 C 0.80344 0.51854 0.70115 0.0
N628 N 0.79328 0.52104 0.71705 0.0
C629 C 0.81187 0.53557 0.75607 0.0
C630 C 0.81826 0.52456 0.71242 0.0
C631 C 0.79715 0.52933 0.74407 0.0
C632 C 0.83525 0.56785 0.81693 0.0
N633 N 0.84074 0.5581 0.81674 0.0
C634 C 0.831 0.5494 0.86845 0.0
C635 C 0.83887 0.54902 0.84179 0.0
C636 C 0.82496 0.55919 0.86919 0.0
C637 C 0.82731 0.56859 0.84304 0.0
H638 H 0.83682 0.57485 0.79653 0.0
H639 H 0.84329 0.5413 0.84082 0.0
C640 C 0.86844 0.52044 0.73421 0.0
N641 N 0.85548 0.52034 0.74237 0.0
C642 C 0.86805 0.5069 0.7266 0.0
C643 C 0.84102 0.49337 0.73688 0.0
C644 C 0.84194 0.5072 0.74424 0.0
C645 C 0.85416 0.49313 0.7274 0.0
H646 H 0.87898 0.53113 0.73239 0.0
H647 H 0.83179 0.50752 0.75055 0.0
C648 C 0.86449 0.58798 0.73519 0.0
N649 N 0.87521 0.6148 0.70198 0.0
C650 C 0.87161 0.58979 0.70607 0.0
C651 C 0.86281 0.59982 0.7474 0.0
C652 C 0.87695 0.60342 0.68965 0.0
C653 C 0.86831 0.6133 0.73026 0.0
C654 C 0.8698 0.54966 0.68375 0.0
C655 C 0.88273 0.55991 0.6669 0.0
C656 C 0.85993 0.53538 0.67092 0.0
C657 C 0.88558 0.55567 0.63752 0.0
C658 C 0.86319 0.53157 0.64149 0.0
N659 N 0.87584 0.54171 0.62553 0.0
C660 C 0.9036 0.57534 0.73728 0.0
C661 C 0.90094 0.59629 0.75279 0.0
C662 C 0.91902 0.58488 0.73139 0.0
N663 N 0.89486 0.58118 0.74714 0.0
C664 C 0.91634 0.60631 0.7468 0.0
C665 C 0.92551 0.60061 0.7355 0.0
H666 H 0.89843 0.56327 0.73299 0.0
H667 H 0.8938 0.60064 0.7611 0.0
C668 C 0.82732 0.5616 0.69423 0.0
N669 N 0.83948 0.55989 0.6876 0.0
C670 C 0.819 0.56325 0.66995 0.0
C671 C 0.83653 0.56253 0.63252 0.0
C672 C 0.84432 0.56059 0.65745 0.0
C673 C 0.82359 0.56367 0.63866 0.0
H674 H 0.82406 0.56163 0.71843 0.0
H675 H 0.85425 0.55975 0.65255 0.0
O676 O 0.8669 0.55174 0.78504 0.0
O677 O 0.83706 0.53946 0.75116 0.0
O678 O 0.85912 0.57473 0.75177 0.0
O679 O 0.86688 0.55364 0.71263 0.0
H680 H 0.88773 0.54342 0.78796 0.0
H681 H 0.87525 0.57562 0.82169 0.0
H682 H 0.9115 0.5567 0.8193 0.0
H683 H 0.89923 0.58832 0.85251 0.0
H684 H 0.80001 0.51188 0.67974 0.0
H685 H 0.81493 0.54217 0.77752 0.0
H686 H 0.82631 0.52256 0.69977 0.0
H687 H 0.78881 0.5311 0.75621 0.0
H688 H 0.82932 0.54182 0.88789 0.0
H689 H 0.82304 0.57644 0.84272 0.0
H690 H 0.8784 0.50731 0.71892 0.0
H691 H 0.83012 0.48302 0.73816 0.0
H692 H 0.87306 0.58081 0.69624 0.0
H693 H 0.85735 0.59864 0.76993 0.0
H694 H 0.8825 0.60496 0.66711 0.0
H695 H 0.8671 0.62256 0.73945 0.0
H696 H 0.89044 0.57107 0.67627 0.0
H697 H 0.84989 0.5273 0.68352 0.0
H698 H 0.89553 0.5635 0.62422 0.0
H699 H 0.85566 0.52054 0.63134 0.0
H700 H 0.92565 0.58004 0.72241 0.0
H701 H 0.92098 0.61837 0.75055 0.0
H702 H 0.80918 0.56432 0.67555 0.0
H703 H 0.84041 0.56285 0.60862 0.0
Li704 Li 0.31766 0.85353 0.07788 0.0
Li705 Li 0.29418 0.84856 0.10926 0.0
Li706 Li 0.29391 0.84793 0.05218 0.0
Li707 Li 0.30856 0.87168 0.0788 0.0
C708 C 0.28802 0.82049 0.06954 0.0
N709 N 0.26849 0.79222 0.04438 0.0
C710 C 0.27382 0.81121 0.08331 0.0
C711 C 0.29236 0.81532 0.04319 0.0
C712 C 0.2641 0.79697 0.07021 0.0
C713 C 0.28229 0.80103 0.03073 0.0
C714 C 0.3217 0.87734 0.13346 0.0
C715 C 0.31797 0.89406 0.16782 0.0
N716 N 0.33324 0.90374 0.16832 0.0
C717 C 0.33736 0.8874 0.13437 0.0
C718 C 0.31191 0.88063 0.15035 0.0
C719 C 0.34297 0.90071 0.15212 0.0
C720 C 0.34864 0.8647 0.06981 0.0
N721 N 0.33527 0.85174 0.07517 0.0
C722 C 0.34706 0.8367 0.06803 0.0
C723 C 0.33426 0.8379 0.07493 0.0
C724 C 0.36096 0.84988 0.06143 0.0
C725 C 0.36171 0.86404 0.06297 0.0
H726 H 0.34898 0.8755 0.06946 0.0
H727 H 0.32341 0.82777 0.07894 0.0
C728 C 0.26969 0.83885 0.15235 0.0
N729 N 0.283 0.83922 0.14639 0.0
C730 C 0.26101 0.83109 0.17867 0.0
C731 C 0.27999 0.82435 0.19226 0.0
C732 C 0.28831 0.83228 0.16574 0.0
C733 C 0.26606 0.82358 0.19889 0.0
H734 H 0.26569 0.84435 0.13635 0.0
H735 H 0.29892 0.83272 0.16026 0.0
C736 C 0.32235 0.8667 0.01499 0.0
N737 N 0.3378 0.87199 0.95861 0.0
C738 C 0.32582 0.8796 0.99716 0.0
C739 C 0.32663 0.85642 0.00394 0.0
C740 C 0.33366 0.88209 0.96877 0.0
C741 C 0.33447 0.85932 0.97546 0.0
C742 C 0.27916 0.86434 0.06284 0.0
C743 C 0.28499 0.87065 0.0333 0.0
C744 C 0.26634 0.86446 0.07433 0.0
C745 C 0.27791 0.87699 0.0158 0.0
C746 C 0.25957 0.87091 0.05611 0.0
N747 N 0.26545 0.87699 0.02746 0.0
C748 C 0.26592 0.82807 0.02265 0.0
C749 C 0.28644 0.84043 0.987 0.0
C750 C 0.25606 0.8199 0.99804 0.0
N751 N 0.28089 0.83785 0.01685 0.0
C752 C 0.277 0.83266 0.96172 0.0
C753 C 0.26163 0.82203 0.96706 0.0
H754 H 0.26169 0.82646 0.04653 0.0
H755 H 0.29817 0.8485 0.9825 0.0
C756 C 0.33125 0.90073 0.06493 0.0
N757 N 0.3167 0.89308 0.07554 0.0
C758 C 0.3379 0.91597 0.05653 0.0
C759 C 0.31486 0.91558 0.07234 0.0
C760 C 0.30859 0.90024 0.08032 0.0
C761 C 0.32953 0.92347 0.05933 0.0
H762 H 0.33747 0.89476 0.06171 0.0
H763 H 0.29709 0.89394 0.08914 0.0
O764 O 0.29757 0.83459 0.08166 0.0
O765 O 0.31592 0.86449 0.11546 0.0
O766 O 0.31477 0.86417 0.04301 0.0
O767 O 0.2859 0.8581 0.0806 0.0
H768 H 0.27027 0.81503 0.1037 0.0
H769 H 0.30331 0.82233 0.03228 0.0
H770 H 0.25303 0.78971 0.0805 0.0
H771 H 0.28545 0.79694 0.01019 0.0
H772 H 0.31052 0.89681 0.18089 0.0
H773 H 0.34507 0.88502 0.12134 0.0
H774 H 0.29975 0.87299 0.14965 0.0
H775 H 0.35505 0.90865 0.15296 0.0
H776 H 0.34603 0.82557 0.06732 0.0
H777 H 0.37212 0.87445 0.05754 0.0
H778 H 0.25027 0.83063 0.18264 0.0
H779 H 0.28441 0.8189 0.20739 0.0
H780 H 0.3224 0.88757 0.00499 0.0
H781 H 0.32383 0.84625 0.01702 0.0
H782 H 0.33643 0.89203 0.95478 0.0
H783 H 0.33787 0.85147 0.9667 0.0
H784 H 0.29487 0.8707 0.02392 0.0
H785 H 0.26167 0.85966 0.09713 0.0
H786 H 0.28233 0.88191 0.99293 0.0
H787 H 0.24965 0.87109 0.06475 0.0
H788 H 0.24431 0.8118 0.00334 0.0
H789 H 0.28173 0.83503 0.93818 0.0
H790 H 0.34934 0.92173 0.04716 0.0
H791 H 0.30806 0.92099 0.0749 0.0
Li792 Li 0.45985 0.31626 0.41165 0.0
Li793 Li 0.44368 0.29361 0.44668 0.0
Li794 Li 0.44066 0.29139 0.38896 0.0
Li795 Li 0.43257 0.30624 0.41774 0.0
C796 C 0.46389 0.28743 0.40021 0.0
N797 N 0.47203 0.26872 0.36894 0.0
C798 C 0.46108 0.27375 0.41386 0.0
C799 C 0.47093 0.29164 0.37073 0.0
C800 C 0.46527 0.26445 0.39767 0.0
C801 C 0.47492 0.28201 0.35527 0.0
C802 C 0.44406 0.31771 0.47951 0.0
C803 C 0.42467 0.31125 0.51884 0.0
N804 N 0.43512 0.3222 0.53804 0.0
C805 C 0.4546 0.32895 0.49953 0.0
C806 C 0.42898 0.30882 0.48915 0.0
C807 C 0.44986 0.33103 0.52907 0.0
C808 C 0.48028 0.34773 0.40767 0.0
N809 N 0.47915 0.33386 0.40573 0.0
C810 C 0.50514 0.34514 0.39006 0.0
C811 C 0.49129 0.33237 0.39787 0.0
C812 C 0.50649 0.3596 0.39043 0.0
C813 C 0.49391 0.36082 0.39999 0.0
H814 H 0.47047 0.34858 0.4144 0.0
H815 H 0.49018 0.32124 0.39714 0.0
C816 C 0.43405 0.26758 0.48343 0.0
N817 N 0.4433 0.28291 0.48364 0.0
C818 C 0.43373 0.25888 0.50912 0.0
C819 C 0.45237 0.28191 0.53502 0.0
C820 C 0.45237 0.29018 0.5087 0.0
C821 C 0.44305 0.26601 0.53532 0.0
H822 H 0.42709 0.26209 0.46301 0.0
H823 H 0.45979 0.30236 0.50805 0.0
C824 C 0.43766 0.31744 0.35978 0.0
N825 N 0.42238 0.32865 0.32517 0.0
C826 C 0.4242 0.30749 0.34409 0.0
C827 C 0.44344 0.3331 0.35751 0.0
C828 C 0.41663 0.31337 0.32678 0.0
C829 C 0.43552 0.33854 0.34001 0.0
C830 C 0.4098 0.27396 0.42191 0.0
C831 C 0.40198 0.2678 0.39375 0.0
C832 C 0.40203 0.26922 0.45055 0.0
C833 C 0.38645 0.25727 0.39469 0.0
C834 C 0.38649 0.25866 0.4505 0.0
N835 N 0.37908 0.25296 0.42281 0.0
C836 C 0.4314 0.26312 0.35943 0.0
C837 C 0.44015 0.28422 0.32496 0.0
C838 C 0.42917 0.25346 0.3341 0.0
N839 N 0.43684 0.27817 0.35438 0.0
C840 C 0.43792 0.27497 0.29896 0.0
C841 C 0.43243 0.2594 0.30341 0.0
H842 H 0.42894 0.25867 0.38317 0.0
H843 H 0.44472 0.29629 0.32175 0.0
C844 C 0.42406 0.32837 0.42379 0.0
N845 N 0.41827 0.31334 0.41766 0.0
C846 C 0.41548 0.33533 0.41761 0.0
C847 C 0.39479 0.31105 0.40074 0.0
C848 C 0.40379 0.30458 0.40711 0.0
C849 C 0.40078 0.32672 0.40506 0.0
H850 H 0.43569 0.33513 0.4317 0.0
H851 H 0.3995 0.2928 0.40161 0.0
O852 O 0.45946 0.29647 0.41527 0.0
O853 O 0.44858 0.31545 0.45067 0.0
O854 O 0.44495 0.31185 0.37776 0.0
O855 O 0.42508 0.28411 0.42151 0.0
H856 H 0.45565 0.27032 0.43662 0.0
H857 H 0.47298 0.30207 0.3596 0.0
H858 H 0.46311 0.25381 0.4079 0.0
H859 H 0.48023 0.28505 0.33232 0.0
H860 H 0.41302 0.30444 0.5266 0.0
H861 H 0.46633 0.33594 0.49235 0.0
H862 H 0.42067 0.30023 0.47378 0.0
H863 H 0.45791 0.33966 0.54487 0.0
H864 H 0.51463 0.3437 0.3835 0.0
H865 H 0.4944 0.37171 0.40048 0.0
H866 H 0.42626 0.24668 0.50848 0.0
H867 H 0.45986 0.28785 0.55455 0.0
H868 H 0.41953 0.29535 0.34564 0.0
H869 H 0.45384 0.34097 0.3694 0.0
H870 H 0.40613 0.30579 0.31477 0.0
H871 H 0.43979 0.35063 0.33832 0.0
H872 H 0.40779 0.27118 0.37138 0.0
H873 H 0.40794 0.27354 0.47264 0.0
H874 H 0.38024 0.2525 0.37307 0.0
H875 H 0.38034 0.25493 0.47249 0.0
H876 H 0.42488 0.2415 0.3384 0.0
H877 H 0.44079 0.28 0.2757 0.0
H878 H 0.42048 0.34742 0.42157 0.0
H879 H 0.38361 0.30403 0.39068 0.0
Li880 Li 0.1447 0.46184 0.74609 0.0
Li881 Li 0.15129 0.44543 0.7802 0.0
Li882 Li 0.15144 0.44362 0.72233 0.0
Li883 Li 0.12793 0.4344 0.7498 0.0
C884 C 0.17794 0.46739 0.73486 0.0
N885 N 0.20492 0.47737 0.70267 0.0
C886 C 0.18915 0.46469 0.74698 0.0
C887 C 0.18049 0.47525 0.70644 0.0
C888 C 0.20271 0.46981 0.73035 0.0
C889 C 0.19419 0.48017 0.69049 0.0
C890 C 0.12657 0.44453 0.81218 0.0
C891 C 0.11343 0.42442 0.84999 0.0
N892 N 0.1119 0.43427 0.86924 0.0
C893 C 0.1248 0.45444 0.83222 0.0
C894 C 0.1208 0.4294 0.82103 0.0
C895 C 0.11737 0.44904 0.86101 0.0
C896 C 0.13242 0.48112 0.74187 0.0
N897 N 0.14567 0.48088 0.74146 0.0
C898 C 0.1596 0.50728 0.72847 0.0
C899 C 0.15916 0.49367 0.73578 0.0
C900 C 0.146 0.50771 0.72712 0.0
C901 C 0.13231 0.49446 0.73463 0.0
H902 H 0.12189 0.47084 0.74714 0.0
H903 H 0.16956 0.49325 0.73614 0.0
C904 C 0.1691 0.43684 0.81449 0.0
N905 N 0.16133 0.44446 0.81716 0.0
C906 C 0.17749 0.4362 0.83981 0.0
C907 C 0.16941 0.45089 0.87062 0.0
C908 C 0.1613 0.45142 0.84449 0.0
C909 C 0.17778 0.44335 0.86829 0.0
H910 H 0.16896 0.43147 0.7924 0.0
H911 H 0.1552 0.45757 0.84589 0.0
C912 C 0.12262 0.43988 0.6916 0.0
N913 N 0.09708 0.42381 0.65453 0.0
C914 C 0.12077 0.4275 0.67379 0.0
C915 C 0.11155 0.44419 0.69023 0.0
C916 C 0.10777 0.41951 0.65523 0.0
C917 C 0.09869 0.43588 0.67147 0.0
C918 C 0.13828 0.41223 0.75377 0.0
C919 C 0.13675 0.40451 0.72554 0.0
C920 C 0.13572 0.40451 0.78237 0.0
C921 C 0.1323 0.3891 0.72638 0.0
C922 C 0.1313 0.3891 0.78222 0.0
N923 N 0.12968 0.38178 0.75446 0.0
C924 C 0.17034 0.43418 0.69304 0.0
C925 C 0.16068 0.44592 0.65924 0.0
C926 C 0.17831 0.43245 0.66812 0.0
N927 N 0.16174 0.44077 0.6881 0.0
C928 C 0.16849 0.44448 0.63371 0.0
C929 C 0.17744 0.43765 0.63793 0.0
H930 H 0.17105 0.43032 0.71639 0.0
H931 H 0.15394 0.45135 0.65619 0.0
C932 C 0.09696 0.42464 0.7567 0.0
N933 N 0.10666 0.4197 0.74824 0.0
C934 C 0.08146 0.41581 0.75026 0.0
C935 C 0.08608 0.39666 0.72783 0.0
C936 C 0.10149 0.40586 0.73468 0.0
C937 C 0.0759 0.40179 0.73485 0.0
H938 H 0.10139 0.43583 0.76685 0.0
H939 H 0.10937 0.40233 0.72724 0.0
O940 O 0.16438 0.46202 0.75028 0.0
O941 O 0.13391 0.4497 0.78403 0.0
O942 O 0.13501 0.4475 0.7108 0.0
O943 O 0.14293 0.4274 0.75346 0.0
H944 H 0.18739 0.45864 0.76892 0.0
H945 H 0.17183 0.4772 0.69642 0.0
H946 H 0.21146 0.46775 0.73941 0.0
H947 H 0.19625 0.48613 0.66833 0.0
H948 H 0.10891 0.41273 0.85714 0.0
H949 H 0.12918 0.46619 0.82562 0.0
H950 H 0.12187 0.42156 0.80557 0.0
H951 H 0.11596 0.45658 0.87682 0.0
H952 H 0.1704 0.51719 0.72275 0.0
H953 H 0.12161 0.49436 0.73451 0.0
H954 H 0.18368 0.43015 0.83717 0.0
H955 H 0.16946 0.45665 0.89211 0.0
H956 H 0.12916 0.42396 0.67461 0.0
H957 H 0.11275 0.45371 0.70383 0.0
H958 H 0.10615 0.40984 0.64155 0.0
H959 H 0.08996 0.439 0.67047 0.0
H960 H 0.13885 0.4103 0.70319 0.0
H961 H 0.13725 0.41037 0.80452 0.0
H962 H 0.13096 0.38297 0.70469 0.0
H963 H 0.12923 0.38299 0.80419 0.0
H964 H 0.18497 0.42701 0.6724 0.0
H965 H 0.16773 0.44894 0.61104 0.0
H966 H 0.07399 0.42015 0.75633 0.0
H967 H 0.08235 0.38606 0.71546 0.0
Li968 Li 0.70698 0.1497 0.11171 0.0
Li969 Li 0.68452 0.14514 0.07992 0.0
Li970 Li 0.69321 0.12731 0.08021 0.0
Li971 Li 0.7082 0.15087 0.05422 0.0
C972 C 0.67832 0.12007 0.13232 0.0
N973 N 0.66429 0.09203 0.16156 0.0
C974 C 0.66251 0.11096 0.13157 0.0
C975 C 0.68699 0.11497 0.14813 0.0
C976 C 0.65563 0.09681 0.14644 0.0
C977 C 0.67969 0.10075 0.16273 0.0
C978 C 0.70423 0.17527 0.10001 0.0
C979 C 0.71128 0.20151 0.10735 0.0
N980 N 0.70337 0.19777 0.13486 0.0
C981 C 0.69617 0.17168 0.12837 0.0
C982 C 0.71187 0.19029 0.08942 0.0
C983 C 0.69587 0.18323 0.14564 0.0
C984 C 0.73187 0.17268 0.14316 0.0
N985 N 0.71871 0.15943 0.14824 0.0
C986 C 0.72276 0.16204 0.2039 0.0
C987 C 0.71398 0.15402 0.17784 0.0
C988 C 0.7363 0.17586 0.19934 0.0
C989 C 0.74084 0.18117 0.16851 0.0
H990 H 0.73527 0.17675 0.11935 0.0
H991 H 0.70331 0.14365 0.1813 0.0
C992 C 0.65399 0.1334 0.06731 0.0
N993 N 0.66666 0.14671 0.07485 0.0
C994 C 0.64064 0.13319 0.05876 0.0
C995 C 0.65348 0.16038 0.06629 0.0
C996 C 0.66664 0.16009 0.07449 0.0
C997 C 0.64032 0.14683 0.05781 0.0
H998 H 0.65446 0.12301 0.06676 0.0
H999 H 0.67694 0.17063 0.07925 0.0
C1000 C 0.72336 0.1351 0.06644 0.0
N1001 N 0.73918 0.12428 0.03259 0.0
C1002 C 0.71708 0.12657 0.0391 0.0
C1003 C 0.73769 0.13813 0.07655 0.0
C1004 C 0.72525 0.12119 0.02232 0.0
C1005 C 0.74551 0.13256 0.05911 0.0
C1006 C 0.68261 0.1389 0.01675 0.0
C1007 C 0.67403 0.1279 0.99422 0.0
C1008 C 0.68622 0.15396 0.01197 0.0
C1009 C 0.66916 0.13212 0.96727 0.0
C1010 C 0.68113 0.15773 0.98473 0.0
N1011 N 0.67278 0.14682 0.96313 0.0
C1012 C 0.67242 0.09847 0.05952 0.0
C1013 C 0.69315 0.09888 0.08608 0.0
C1014 C 0.66659 0.08327 0.05143 0.0
N1015 N 0.68562 0.10601 0.07594 0.0
C1016 C 0.6876 0.08357 0.07879 0.0
C1017 C 0.67434 0.07572 0.06059 0.0
H1018 H 0.66663 0.10441 0.05204 0.0
H1019 H 0.70365 0.10517 0.09906 0.0
C1020 C 0.73237 0.17552 0.02241 0.0
N1021 N 0.72101 0.16088 0.01921 0.0
C1022 C 0.74143 0.18336 0.99657 0.0
C1023 C 0.72704 0.16083 0.96488 0.0
C1024 C 0.71832 0.15344 0.99126 0.0
C1025 C 0.73868 0.17604 0.96724 0.0
H1026 H 0.73423 0.18114 0.04494 0.0
H1027 H 0.70925 0.1418 0.98928 0.0
O1028 O 0.68531 0.13382 0.11734 0.0
O1029 O 0.70495 0.16426 0.08288 0.0
O1030 O 0.71564 0.14054 0.08337 0.0
O1031 O 0.68732 0.13482 0.04335 0.0
H1032 H 0.65562 0.11477 0.11966 0.0
H1033 H 0.69926 0.12179 0.14857 0.0
H1034 H 0.64341 0.08962 0.14596 0.0
H1035 H 0.68627 0.09661 0.17483 0.0
H1036 H 0.71713 0.21318 0.09942 0.0
H1037 H 0.6902 0.16014 0.137 0.0
H1038 H 0.71819 0.19325 0.06756 0.0
H1039 H 0.68969 0.18062 0.16762 0.0
H1040 H 0.71881 0.15769 0.22738 0.0
H1041 H 0.75125 0.19175 0.16406 0.0
H1042 H 0.63073 0.12248 0.05249 0.0
H1043 H 0.65379 0.17118 0.06529 0.0
H1044 H 0.706 0.12406 0.03094 0.0
H1045 H 0.74271 0.14473 0.09766 0.0
H1046 H 0.72051 0.11456 0.00115 0.0
H1047 H 0.75662 0.13482 0.06666 0.0
H1048 H 0.67116 0.1162 0.99749 0.0
H1049 H 0.69285 0.16267 0.02903 0.0
H1050 H 0.6625 0.12372 0.94965 0.0
H1051 H 0.68383 0.16932 0.98076 0.0
H1052 H 0.6562 0.07753 0.03781 0.0
H1053 H 0.69389 0.0781 0.08621 0.0
H1054 H 0.75021 0.19512 0.99933 0.0
H1055 H 0.72469 0.1547 0.94283 0.0
H1056 H 0.35224 0.40699 0.27074 0.0
H1057 H 0.36431 0.39322 0.29136 0.0
H1058 H 0.32146 0.35914 0.33029 0.0
H1059 H 0.30929 0.37294 0.30974 0.0
H1060 H 0.34348 0.36775 0.37267 0.0
H1061 H 0.33682 0.35172 0.26527 0.0
H1062 H 0.3385 0.35481 0.20757 0.0
H1063 H 0.38717 0.3805 0.21341 0.0
H1064 H 0.38578 0.37774 0.27122 0.0
H1065 H 0.37041 0.31685 0.41182 0.0
H1066 H 0.35623 0.32832 0.38973 0.0
H1067 H 0.39771 0.36483 0.35098 0.0
H1068 H 0.41186 0.35323 0.3722 0.0
H1069 H 0.3751 0.35352 0.30804 0.0
H1070 H 0.38146 0.37032 0.41587 0.0
H1071 H 0.37959 0.36704 0.47353 0.0
H1072 H 0.33108 0.33941 0.46651 0.0
H1073 H 0.33268 0.34237 0.40874 0.0
C1074 C 0.34531 0.39642 0.28317 0.0
C1075 C 0.32979 0.39103 0.28851 0.0
C1076 C 0.35224 0.38856 0.29501 0.0
C1077 C 0.34377 0.37506 0.31214 0.0
C1078 C 0.32822 0.36955 0.31718 0.0
C1079 C 0.32129 0.37744 0.30546 0.0
C1080 C 0.3513 0.36708 0.32585 0.0
C1081 C 0.35018 0.3644 0.35844 0.0
C1082 C 0.36029 0.36298 0.30741 0.0
C1083 C 0.36118 0.36463 0.27262 0.0
C1084 C 0.34787 0.35813 0.25428 0.0
C1085 C 0.34878 0.3598 0.22155 0.0
C1086 C 0.36293 0.36788 0.20684 0.0
C1087 C 0.37621 0.37426 0.22484 0.0
C1088 C 0.37537 0.37263 0.25759 0.0
C1089 C 0.3765 0.32734 0.39865 0.0
C1090 C 0.39227 0.33418 0.39395 0.0
C1091 C 0.36841 0.33392 0.3862 0.0
C1092 C 0.37594 0.34749 0.36889 0.0
C1093 C 0.39168 0.35438 0.36432 0.0
C1094 C 0.39978 0.34782 0.37678 0.0
C1095 C 0.3674 0.35435 0.35486 0.0
C1096 C 0.36832 0.3568 0.3222 0.0
C1097 C 0.35819 0.35819 0.37322 0.0
C1098 C 0.35721 0.35644 0.40795 0.0
C1099 C 0.37041 0.36345 0.4266 0.0
C1100 C 0.36939 0.36166 0.4593 0.0
C1101 C 0.35523 0.35299 0.47367 0.0
C1102 C 0.34205 0.34611 0.45535 0.0
C1103 C 0.343 0.34785 0.42263 0.0
H1104 H 0.35447 0.35162 0.49899 0.0
H1105 H 0.3636 0.36916 0.1815 0.0
H1106 H 0.93925 0.31114 0.63185 0.0
H1107 H 0.96515 0.32312 0.6527 0.0
H1108 H 0.97228 0.36713 0.62572 0.0
H1109 H 0.94647 0.35523 0.60473 0.0
H1110 H 0.99687 0.36505 0.61294 0.0
H1111 H 0.96354 0.35418 0.70186 0.0
H1112 H 0.94201 0.33784 0.73654 0.0
H1113 H 0.96223 0.31045 0.75678 0.0
H1114 H 0.98378 0.32652 0.72186 0.0
H1115 H 0.05935 0.41321 0.70778 0.0
H1116 H 0.03373 0.39913 0.68601 0.0
H1117 H 0.03089 0.3569 0.71312 0.0
H1118 H 0.05642 0.37097 0.73594 0.0
H1119 H 0.00447 0.35682 0.72509 0.0
H1120 H 0.03865 0.36882 0.63821 0.0
H1121 H 0.06036 0.3857 0.60449 0.0
H1122 H 0.03862 0.41131 0.58079 0.0
H1123 H 0.01688 0.39474 0.61481 0.0
C1124 C 0.94636 0.32336 0.63029 0.0
C1125 C 0.94079 0.33224 0.61673 0.0
C1126 C 0.96115 0.3302 0.64223 0.0
C1127 C 0.97058 0.34605 0.6412 0.0
C1128 C 0.96521 0.35488 0.62676 0.0
C1129 C 0.95047 0.34805 0.61467 0.0
C1130 C 0.98589 0.35353 0.65591 0.0
C1131 C 0.9985 0.36336 0.63753 0.0
C1132 C 0.98809 0.35107 0.68784 0.0
C1133 C 0.97519 0.34145 0.70899 0.0
C1134 C 0.96333 0.34461 0.71353 0.0
C1135 C 0.95114 0.3354 0.73325 0.0
C1136 C 0.95073 0.32309 0.74879 0.0
C1137 C 0.96254 0.31998 0.74469 0.0
C1138 C 0.97476 0.32914 0.72495 0.0
C1139 C 0.05318 0.40094 0.7097 0.0
C1140 C 0.05992 0.3932 0.72365 0.0
C1141 C 0.0386 0.3929 0.6969 0.0
C1142 C 0.0305 0.37696 0.69751 0.0
C1143 C 0.03699 0.3692 0.71225 0.0
C1144 C 0.0516 0.37724 0.72509 0.0
C1145 C 0.01539 0.36845 0.6822 0.0
C1146 C 0.00283 0.35843 0.70045 0.0
C1147 C 0.01324 0.37076 0.65018 0.0
C1148 C 0.02619 0.3806 0.62928 0.0
C1149 C 0.03854 0.37811 0.62597 0.0
C1150 C 0.05085 0.38762 0.60679 0.0
C1151 C 0.05089 0.39959 0.59056 0.0
C1152 C 0.03859 0.40204 0.5934 0.0
C1153 C 0.02626 0.39259 0.61261 0.0
H1154 H 0.06043 0.40694 0.57573 0.0
H1155 H 0.94127 0.31598 0.76405 0.0
H1156 H 0.61737 0.94861 0.91417 0.0
H1157 H 0.63094 0.97448 0.9345 0.0
H1158 H 0.62329 0.9572 0.02954 0.0
H1159 H 0.60862 0.93143 0.00964 0.0
H1160 H 0.61823 0.97904 0.02841 0.0
H1161 H 0.65922 0.9733 0.99008 0.0
H1162 H 0.67367 0.96731 0.9517 0.0
H1163 H 0.67712 0.00249 0.89043 0.0
H1164 H 0.66251 0.00857 0.92827 0.0
H1165 H 0.67013 0.05137 0.09588 0.0
H1166 H 0.6598 0.02501 0.07806 0.0
H1167 H 0.65603 0.03833 0.98358 0.0
H1168 H 0.66626 0.06458 0.00122 0.0
H1169 H 0.6682 0.01852 0.98701 0.0
H1170 H 0.62567 0.02275 0.02665 0.0
H1171 H 0.61203 0.02867 0.06718 0.0
H1172 H 0.6129 0.99577 0.12923 0.0
H1173 H 0.62675 0.98981 0.08919 0.0
C1174 C 0.61844 0.95027 0.93941 0.0
C1175 C 0.61188 0.93779 0.96014 0.0
C1176 C 0.62644 0.96512 0.95103 0.0
C1177 C 0.62841 0.96785 0.98361 0.0
C1178 C 0.62202 0.95544 0.00431 0.0
C1179 C 0.61378 0.94062 0.99278 0.0
C1180 C 0.63648 0.98362 0.99626 0.0
C1181 C 0.62929 0.98756 0.01968 0.0
C1182 C 0.65083 0.99489 0.9847 0.0
C1183 C 0.65965 0.9913 0.9619 0.0
C1184 C 0.66297 0.97969 0.96832 0.0
C1185 C 0.6712 0.97629 0.94668 0.0
C1186 C 0.67628 0.98449 0.91861 0.0
C1187 C 0.67316 0.99614 0.91217 0.0
C1188 C 0.66492 0.99957 0.93372 0.0
C1189 C 0.66721 0.04865 0.07129 0.0
C1190 C 0.66885 0.05994 0.04997 0.0
C1191 C 0.66129 0.03363 0.06117 0.0
C1192 C 0.6571 0.02975 0.02954 0.0
C1193 C 0.6592 0.04111 0.00806 0.0
C1194 C 0.66493 0.05605 0.01822 0.0
C1195 C 0.6499 0.01377 0.01889 0.0
C1196 C 0.65723 0.00986 0.99584 0.0
C1197 C 0.6358 0.00246 0.03112 0.0
C1198 C 0.62739 0.00596 0.05507 0.0
C1199 C 0.62306 0.01687 0.04904 0.0
C1200 C 0.61528 0.02022 0.0719 0.0
C1201 C 0.61164 0.01263 0.1008 0.0
C1202 C 0.61575 0.00165 0.10686 0.0
C1203 C 0.62356 0.99828 0.08408 0.0
H1204 H 0.60561 0.01524 0.11847 0.0
H1205 H 0.68265 0.98184 0.90188 0.0
H1206 H 0.65135 0.60083 0.25088 0.0
H1207 H 0.64075 0.61589 0.27233 0.0
H1208 H 0.68019 0.64023 0.33159 0.0
H1209 H 0.69079 0.62507 0.31044 0.0
H1210 H 0.6533 0.62948 0.36423 0.0
H1211 H 0.67573 0.65812 0.2706 0.0
H1212 H 0.68121 0.66199 0.21373 0.0
H1213 H 0.63382 0.64406 0.1942 0.0
H1214 H 0.62801 0.63987 0.25093 0.0
H1215 H 0.62658 0.6785 0.41875 0.0
H1216 H 0.64266 0.66927 0.39637 0.0
H1217 H 0.60904 0.64517 0.32454 0.0
H1218 H 0.59334 0.65493 0.34564 0.0
H1219 H 0.63611 0.6586 0.29924 0.0
H1220 H 0.61313 0.6272 0.39074 0.0
H1221 H 0.60682 0.62215 0.44713 0.0
H1222 H 0.65427 0.64408 0.47013 0.0
H1223 H 0.66087 0.64942 0.41386 0.0
C1224 C 0.65781 0.60947 0.2683 0.0
C1225 C 0.6719 0.6118 0.27896 0.0
C1226 C 0.65179 0.61812 0.2804 0.0
C1227 C 0.65973 0.62924 0.30341 0.0
C1228 C 0.67391 0.63175 0.31377 0.0
C1229 C 0.68 0.62317 0.30149 0.0
C1230 C 0.65281 0.63765 0.3177 0.0
C1231 C 0.6498 0.63611 0.35016 0.0
C1232 C 0.64797 0.646 0.29918 0.0
C1233 C 0.65143 0.64858 0.26503 0.0
C1234 C 0.66646 0.65489 0.25417 0.0
C1235 C 0.66963 0.65716 0.22195 0.0
C1236 C 0.65787 0.65325 0.20036 0.0
C1237 C 0.64292 0.64708 0.21095 0.0
C1238 C 0.63968 0.64478 0.24314 0.0
C1239 C 0.62267 0.67134 0.39804 0.0
C1240 C 0.60857 0.66733 0.38424 0.0
C1241 C 0.63182 0.66596 0.38543 0.0
C1242 C 0.62698 0.65636 0.35897 0.0
C1243 C 0.61301 0.65252 0.345 0.0
C1244 C 0.60394 0.65796 0.3574 0.0
C1245 C 0.6363 0.65018 0.34571 0.0
C1246 C 0.63977 0.65214 0.31343 0.0
C1247 C 0.64144 0.64209 0.36434 0.0
C1248 C 0.63749 0.63887 0.39815 0.0
C1249 C 0.62222 0.63105 0.40785 0.0
C1250 C 0.61859 0.62811 0.43978 0.0
C1251 C 0.63014 0.63283 0.46221 0.0
C1252 C 0.64534 0.64046 0.45274 0.0
C1253 C 0.64903 0.64344 0.42083 0.0
H1254 H 0.62731 0.63055 0.48692 0.0
H1255 H 0.66035 0.65501 0.17543 0.0
H1256 H 0.93663 0.62642 0.70011 0.0
H1257 H 0.96239 0.64167 0.67897 0.0
H1258 H 0.97602 0.61312 0.72742 0.0
H1259 H 0.95034 0.59792 0.74882 0.0
H1260 H 0.99793 0.64398 0.73002 0.0
H1261 H 0.96616 0.60634 0.65281 0.0
H1262 H 0.94379 0.59331 0.61813 0.0
H1263 H 0.95694 0.63527 0.57011 0.0
H1264 H 0.97928 0.6486 0.60486 0.0
H1265 H 0.06161 0.65268 0.64908 0.0
H1266 H 0.03654 0.64292 0.67218 0.0
H1267 H 0.02768 0.67097 0.60949 0.0
H1268 H 0.05263 0.68031 0.585 0.0
H1269 H 0.00336 0.64338 0.61395 0.0
H1270 H 0.03656 0.6807 0.68722 0.0
H1271 H 0.05892 0.69395 0.72181 0.0
H1272 H 0.04327 0.65354 0.77734 0.0
H1273 H 0.02091 0.63996 0.74281 0.0
C1274 C 0.94521 0.62361 0.70677 0.0
C1275 C 0.94148 0.61095 0.72598 0.0
C1276 C 0.95987 0.63225 0.69451 0.0
C1277 C 0.97104 0.62841 0.70137 0.0
C1278 C 0.96755 0.61625 0.7218 0.0
C1279 C 0.95287 0.60753 0.73385 0.0
C1280 C 0.98611 0.63642 0.68585 0.0
C1281 C 0.99915 0.6438 0.70467 0.0
C1282 C 0.98764 0.63652 0.65272 0.0
C1283 C 0.97429 0.6285 0.63166 0.0
C1284 C 0.96421 0.61281 0.63503 0.0
C1285 C 0.95155 0.60537 0.61534 0.0
C1286 C 0.94892 0.61347 0.592 0.0
C1287 C 0.95898 0.62902 0.58824 0.0
C1288 C 0.97164 0.63652 0.60792 0.0
C1289 C 0.05428 0.65662 0.63972 0.0
C1290 C 0.05915 0.66725 0.615 0.0
C1291 C 0.04 0.65118 0.65335 0.0
C1292 C 0.03033 0.65643 0.643 0.0
C1293 C 0.03501 0.66686 0.61802 0.0
C1294 C 0.0493 0.67226 0.60419 0.0
C1295 C 0.01528 0.65077 0.65815 0.0
C1296 C 0.0022 0.6438 0.63927 0.0
C1297 C 0.01373 0.65113 0.69125 0.0
C1298 C 0.0271 0.65928 0.71227 0.0
C1299 C 0.03793 0.6746 0.70669 0.0
C1300 C 0.0506 0.68218 0.7263 0.0
C1301 C 0.05253 0.67458 0.75172 0.0
C1302 C 0.04176 0.6594 0.75763 0.0
C1303 C 0.02908 0.65177 0.73807 0.0
H1304 H 0.06235 0.68046 0.76687 0.0
H1305 H 0.93912 0.60769 0.57677 0.0
H1306 H 0.32968 0.94788 0.08722 0.0
H1307 H 0.34059 0.97373 0.0662 0.0
H1308 H 0.35401 0.95985 0.98176 0.0
H1309 H 0.34343 0.93422 0.00291 0.0
H1310 H 0.37633 0.98562 0.00062 0.0
H1311 H 0.32308 0.96593 0.98417 0.0
H1312 H 0.29607 0.95389 0.9991 0.0
H1313 H 0.30639 0.99025 0.06381 0.0
H1314 H 0.33352 0.00241 0.04957 0.0
H1315 H 0.39309 0.04997 0.90632 0.0
H1316 H 0.37995 0.02389 0.92625 0.0
H1317 H 0.37407 0.03981 0.01632 0.0
H1318 H 0.38765 0.0659 0.99721 0.0
H1319 H 0.34772 0.01328 0.99435 0.0
H1320 H 0.4013 0.03254 0.01004 0.0
H1321 H 0.42806 0.04445 0.99323 0.0
H1322 H 0.41644 0.00827 0.92722 0.0
H1323 H 0.38955 0.99626 0.94331 0.0
C1324 C 0.3349 0.95038 0.06413 0.0
C1325 C 0.3358 0.93909 0.04679 0.0
C1326 C 0.34109 0.96512 0.05208 0.0
C1327 C 0.34802 0.96872 0.02224 0.0
C1328 C 0.3488 0.95739 0.00488 0.0
C1329 C 0.34277 0.94275 0.01702 0.0
C1330 C 0.35483 0.98436 0.00926 0.0
C1331 C 0.36997 0.99155 0.99887 0.0
C1332 C 0.34666 0.99227 0.00747 0.0
C1333 C 0.33036 0.985 0.01603 0.0
C1334 C 0.31961 0.9713 0.00176 0.0
C1335 C 0.30428 0.96446 0.01007 0.0
C1336 C 0.29952 0.97128 0.03245 0.0
C1337 C 0.31009 0.98497 0.04651 0.0
C1338 C 0.32545 0.99185 0.03831 0.0
C1339 C 0.38906 0.04796 0.93041 0.0
C1340 C 0.3915 0.06012 0.95011 0.0
C1341 C 0.38148 0.03304 0.94168 0.0
C1342 C 0.37611 0.02997 0.97278 0.0
C1343 C 0.37805 0.04195 0.99219 0.0
C1344 C 0.38576 0.05688 0.98108 0.0
C1345 C 0.36909 0.01435 0.98562 0.0
C1346 C 0.35398 0.00724 0.99605 0.0
C1347 C 0.37722 0.00644 0.98719 0.0
C1348 C 0.39339 0.01359 0.97764 0.0
C1349 C 0.40443 0.02719 0.99175 0.0
C1350 C 0.41962 0.03395 0.98239 0.0
C1351 C 0.42394 0.02715 0.95911 0.0
C1352 C 0.41307 0.01354 0.94521 0.0
C1353 C 0.39786 0.00675 0.95446 0.0
H1354 H 0.43571 0.03239 0.95189 0.0
H1355 H 0.28764 0.96597 0.03885 0.0
H1356 H 0.20709 0.44939 0.86685 0.0
H1357 H 0.22235 0.44874 0.91062 0.0
H1358 H 0.18465 0.43603 0.9739 0.0
H1359 H 0.16946 0.43708 0.93016 0.0
H1360 H 0.20969 0.45607 0.00126 0.0
H1361 H 0.19462 0.4098 0.94533 0.0
H1362 H 0.19146 0.39381 0.89908 0.0
H1363 H 0.23983 0.41682 0.88633 0.0
H1364 H 0.24327 0.4331 0.93226 0.0
H1365 H 0.23825 0.43068 0.1256 0.0
H1366 H 0.22279 0.43096 0.08177 0.0
H1367 H 0.26204 0.44968 0.02103 0.0
H1368 H 0.27757 0.44923 0.06475 0.0
H1369 H 0.23608 0.42627 0.99292 0.0
H1370 H 0.2506 0.47244 0.05013 0.0
H1371 H 0.25311 0.48754 0.09752 0.0
H1372 H 0.20465 0.46337 0.10908 0.0
H1373 H 0.20187 0.44795 0.06201 0.0
C1374 C 0.20204 0.44639 0.89008 0.0
C1375 C 0.18705 0.44316 0.89508 0.0
C1376 C 0.21076 0.44599 0.91508 0.0
C1377 C 0.20457 0.44204 0.94551 0.0
C1378 C 0.18967 0.43906 0.95064 0.0
C1379 C 0.181 0.43967 0.92568 0.0
C1380 C 0.21368 0.44111 0.97193 0.0
C1381 C 0.21527 0.44936 0.99956 0.0
C1382 C 0.22122 0.43259 0.9696 0.0
C1383 C 0.21919 0.42276 0.94207 0.0
C1384 C 0.20458 0.41153 0.93253 0.0
C1385 C 0.20274 0.4024 0.90639 0.0
C1386 C 0.21543 0.40433 0.88973 0.0
C1387 C 0.23 0.41536 0.89923 0.0
C1388 C 0.23191 0.42453 0.92533 0.0
C1389 C 0.24356 0.43468 0.10281 0.0
C1390 C 0.25913 0.43991 0.09859 0.0
C1391 C 0.23473 0.43495 0.07788 0.0
C1392 C 0.2413 0.44047 0.04825 0.0
C1393 C 0.25677 0.44541 0.04375 0.0
C1394 C 0.26564 0.44524 0.06876 0.0
C1395 C 0.23206 0.44122 0.02205 0.0
C1396 C 0.23046 0.43293 0.99453 0.0
C1397 C 0.22439 0.44958 0.02459 0.0
C1398 C 0.22604 0.45894 0.05272 0.0
C1399 C 0.24049 0.47026 0.06291 0.0
C1400 C 0.24196 0.47889 0.0897 0.0
C1401 C 0.22905 0.47639 0.10635 0.0
C1402 C 0.21464 0.46528 0.09619 0.0
C1403 C 0.21311 0.4566 0.06944 0.0
H1404 H 0.23021 0.48308 0.12708 0.0
H1405 H 0.21399 0.39725 0.8695 0.0
H1406 H 0.82213 0.2385 0.44199 0.0
H1407 H 0.80685 0.223 0.39809 0.0
H1408 H 0.79627 0.25774 0.37252 0.0
H1409 H 0.81048 0.27277 0.41788 0.0
H1410 H 0.77208 0.2322 0.36759 0.0
H1411 H 0.82283 0.25091 0.33099 0.0
H1412 H 0.84924 0.25608 0.33268 0.0
H1413 H 0.83327 0.20822 0.3367 0.0
H1414 H 0.80674 0.20276 0.33545 0.0
H1415 H 0.74748 0.20602 0.21049 0.0
H1416 H 0.76284 0.22101 0.25536 0.0
H1417 H 0.76151 0.18117 0.29414 0.0
H1418 H 0.74596 0.16605 0.24944 0.0
H1419 H 0.79152 0.2088 0.29185 0.0
H1420 H 0.74017 0.1911 0.32709 0.0
H1421 H 0.71431 0.18728 0.32232 0.0
H1422 H 0.73264 0.23552 0.31687 0.0
H1423 H 0.75864 0.23962 0.32114 0.0
C1424 C 0.81643 0.24282 0.42733 0.0
C1425 C 0.81762 0.25697 0.43371 0.0
C1426 C 0.80785 0.234 0.40182 0.0
C1427 C 0.80057 0.23927 0.38154 0.0
C1428 C 0.80181 0.25341 0.38769 0.0
C1429 C 0.81015 0.26212 0.41351 0.0
C1430 C 0.79132 0.22989 0.35444 0.0
C1431 C 0.77646 0.22729 0.35084 0.0
C1432 C 0.79685 0.2232 0.33272 0.0
C1433 C 0.81279 0.22643 0.33344 0.0
C1434 C 0.82495 0.24149 0.33247 0.0
C1435 C 0.83994 0.24447 0.33331 0.0
C1436 C 0.84293 0.23249 0.33488 0.0
C1437 C 0.83094 0.21749 0.33553 0.0
C1438 C 0.81592 0.21445 0.33473 0.0
C1439 C 0.7505 0.20048 0.22856 0.0
C1440 C 0.74555 0.18488 0.22655 0.0
C1441 C 0.75921 0.20903 0.25418 0.0
C1442 C 0.76326 0.20217 0.27803 0.0
C1443 C 0.75849 0.18664 0.27593 0.0
C1444 C 0.74956 0.17802 0.25055 0.0
C1445 C 0.77245 0.21126 0.3052 0.0
C1446 C 0.78724 0.21377 0.30873 0.0
C1447 C 0.76698 0.2181 0.32649 0.0
C1448 C 0.75136 0.21565 0.32411 0.0
C1449 C 0.7387 0.20089 0.32459 0.0
C1450 C 0.72401 0.19867 0.32203 0.0
C1451 C 0.72184 0.21114 0.31921 0.0
C1452 C 0.73434 0.22586 0.31902 0.0
C1453 C 0.74905 0.22814 0.32153 0.0
H1454 H 0.71046 0.20941 0.31724 0.0
H1455 H 0.85455 0.23482 0.33553 0.0
H1456 H 0.58294 0.83349 0.75312 0.0
H1457 H 0.58357 0.81815 0.70953 0.0
H1458 H 0.53759 0.78341 0.73057 0.0
H1459 H 0.53713 0.79829 0.77515 0.0
H1460 H 0.55417 0.77083 0.71984 0.0
H1461 H 0.54657 0.80823 0.66706 0.0
H1462 H 0.55215 0.83407 0.65318 0.0
H1463 H 0.59575 0.84441 0.61708 0.0
H1464 H 0.59051 0.81868 0.63114 0.0
H1465 H 0.53742 0.72943 0.57652 0.0
H1466 H 0.53793 0.74511 0.62058 0.0
H1467 H 0.58513 0.777 0.60203 0.0
H1468 H 0.58482 0.76125 0.55817 0.0
H1469 H 0.56859 0.79119 0.6114 0.0
H1470 H 0.57547 0.75314 0.66351 0.0
H1471 H 0.56924 0.72703 0.67678 0.0
H1472 H 0.52605 0.71768 0.71351 0.0
H1473 H 0.53194 0.74367 0.70005 0.0
C1474 C 0.57299 0.82254 0.74864 0.0
C1475 C 0.55996 0.81718 0.76768 0.0
C1476 C 0.57331 0.81385 0.72344 0.0
C1477 C 0.56056 0.79969 0.71647 0.0
C1478 C 0.54755 0.79431 0.73539 0.0
C1479 C 0.54725 0.80294 0.7607 0.0
C1480 C 0.56084 0.79029 0.68993 0.0
C1481 C 0.55713 0.77524 0.69605 0.0
C1482 C 0.56505 0.79611 0.65899 0.0
C1483 C 0.56821 0.81158 0.65045 0.0
C1484 C 0.5574 0.81605 0.65639 0.0
C1485 C 0.56049 0.83067 0.64845 0.0
C1486 C 0.57431 0.84089 0.63434 0.0
C1487 C 0.58505 0.83649 0.62806 0.0
C1488 C 0.58203 0.82189 0.63598 0.0
C1489 C 0.54799 0.73965 0.58206 0.0
C1490 C 0.5611 0.74403 0.56382 0.0
C1491 C 0.54824 0.74864 0.6072 0.0
C1492 C 0.5616 0.76217 0.61474 0.0
C1493 C 0.57469 0.76662 0.59657 0.0
C1494 C 0.57447 0.75762 0.57145 0.0
C1495 C 0.56183 0.77176 0.64134 0.0
C1496 C 0.56566 0.78682 0.63522 0.0
C1497 C 0.55763 0.76593 0.67224 0.0
C1498 C 0.55409 0.75031 0.6805 0.0
C1499 C 0.5646 0.74548 0.67419 0.0
C1500 C 0.56113 0.73071 0.68179 0.0
C1501 C 0.54724 0.72069 0.69591 0.0
C1502 C 0.5368 0.72544 0.70254 0.0
C1503 C 0.5402 0.7402 0.69496 0.0
H1504 H 0.54458 0.70926 0.70178 0.0
H1505 H 0.57668 0.8522 0.62821 0.0
H1506 H 0.73162 0.5614 0.07259 0.0
H1507 H 0.74669 0.56152 0.02762 0.0
H1508 H 0.77665 0.55552 0.09028 0.0
H1509 H 0.76151 0.55509 0.13534 0.0
H1510 H 0.79232 0.57747 0.04605 0.0
H1511 H 0.75083 0.52606 0.04825 0.0
H1512 H 0.72391 0.50591 0.04919 0.0
H1513 H 0.71653 0.52152 0.96057 0.0
H1514 H 0.74338 0.54192 0.95933 0.0
H1515 H 0.83056 0.55769 0.93191 0.0
H1516 H 0.81549 0.55756 0.97691 0.0
H1517 H 0.78422 0.56128 0.91392 0.0
H1518 H 0.79892 0.56089 0.86878 0.0
H1519 H 0.76921 0.54059 0.95842 0.0
H1520 H 0.81049 0.59193 0.95582 0.0
H1521 H 0.83731 0.61232 0.95469 0.0
H1522 H 0.84503 0.59722 0.0436 0.0
H1523 H 0.81828 0.5766 0.04506 0.0
C1524 C 0.74131 0.55994 0.07683 0.0
C1525 C 0.74531 0.55821 0.10765 0.0
C1526 C 0.74995 0.56007 0.05109 0.0
C1527 C 0.76273 0.55842 0.0556 0.0
C1528 C 0.76686 0.55685 0.08628 0.0
C1529 C 0.75821 0.55667 0.11203 0.0
C1530 C 0.77182 0.55835 0.02831 0.0
C1531 C 0.78733 0.56929 0.02707 0.0
C1532 C 0.76521 0.5479 0.00322 0.0
C1533 C 0.74908 0.53561 0.00386 0.0
C1534 C 0.74344 0.52528 0.02909 0.0
C1535 C 0.7282 0.5138 0.02965 0.0
C1536 C 0.7185 0.51246 0.005 0.0
C1537 C 0.72405 0.52258 0.97968 0.0
C1538 C 0.73928 0.5341 0.97902 0.0
C1539 C 0.82042 0.55837 0.92761 0.0
C1540 C 0.81599 0.55936 0.89672 0.0
C1541 C 0.81189 0.55845 0.95338 0.0
C1542 C 0.79882 0.5596 0.94882 0.0
C1543 C 0.7943 0.56045 0.91802 0.0
C1544 C 0.80281 0.56037 0.89225 0.0
C1545 C 0.78974 0.55973 0.9761 0.0
C1546 C 0.77423 0.54879 0.97736 0.0
C1547 C 0.79634 0.57022 0.00116 0.0
C1548 C 0.81242 0.58262 0.00039 0.0
C1549 C 0.81793 0.59288 0.97501 0.0
C1550 C 0.83312 0.6045 0.97433 0.0
C1551 C 0.84287 0.60604 0.99902 0.0
C1552 C 0.83746 0.596 0.02448 0.0
C1553 C 0.82229 0.58435 0.02525 0.0
H1554 H 0.85463 0.61505 0.99845 0.0
H1555 H 0.70671 0.50356 0.00547 0.0
H1556 H 0.18981 0.72794 0.41867 0.0
H1557 H 0.20478 0.74291 0.37353 0.0
H1558 H 0.19711 0.77941 0.40067 0.0
H1559 H 0.18197 0.76442 0.4457 0.0
H1560 H 0.19345 0.77348 0.33644 0.0
H1561 H 0.23023 0.78233 0.4168 0.0
H1562 H 0.24282 0.77498 0.45706 0.0
H1563 H 0.25427 0.75203 0.38672 0.0
H1564 H 0.24154 0.75906 0.34609 0.0
H1565 H 0.25029 0.83122 0.24035 0.0
H1566 H 0.23469 0.81637 0.28492 0.0
H1567 H 0.24506 0.78102 0.26399 0.0
H1568 H 0.26066 0.79579 0.21943 0.0
H1569 H 0.24724 0.7865 0.32548 0.0
H1570 H 0.21051 0.77724 0.24515 0.0
H1571 H 0.19766 0.78407 0.20448 0.0
H1572 H 0.18582 0.80711 0.27387 0.0
H1573 H 0.19879 0.80059 0.31491 0.0
C1574 C 0.19118 0.73909 0.41485 0.0
C1575 C 0.18474 0.74502 0.43579 0.0
C1576 C 0.19983 0.74767 0.38919 0.0
C1577 C 0.20217 0.76233 0.38393 0.0
C1578 C 0.19548 0.76814 0.40436 0.0
C1579 C 0.18692 0.75961 0.43018 0.0
C1580 C 0.21177 0.77165 0.35732 0.0
C1581 C 0.20527 0.77651 0.33422 0.0
C1582 C 0.22708 0.77529 0.3541 0.0
C1583 C 0.23479 0.77109 0.37846 0.0
C1584 C 0.23532 0.77561 0.40996 0.0
C1585 C 0.2425 0.77152 0.43284 0.0
C1586 C 0.24931 0.76301 0.42447 0.0
C1587 C 0.24897 0.7586 0.39318 0.0
C1588 C 0.24178 0.76265 0.37021 0.0
C1589 C 0.24916 0.82023 0.24509 0.0
C1590 C 0.25671 0.81469 0.22629 0.0
C1591 C 0.24024 0.81175 0.2706 0.0
C1592 C 0.23856 0.79749 0.27763 0.0
C1593 C 0.2462 0.792 0.25908 0.0
C1594 C 0.25517 0.80049 0.23366 0.0
C1595 C 0.22893 0.78832 0.30444 0.0
C1596 C 0.23542 0.78349 0.32763 0.0
C1597 C 0.21359 0.78464 0.30764 0.0
C1598 C 0.20576 0.78856 0.28304 0.0
C1599 C 0.20527 0.78387 0.25169 0.0
C1600 C 0.19795 0.78766 0.22858 0.0
C1601 C 0.19097 0.79605 0.23657 0.0
C1602 C 0.19126 0.80063 0.26771 0.0
C1603 C 0.19859 0.79688 0.29091 0.0
H1604 H 0.1853 0.79898 0.21864 0.0
H1605 H 0.25487 0.75986 0.44222 0.0
H1606 H 0.44297 0.17019 0.73583 0.0
H1607 H 0.44324 0.18544 0.69098 0.0
H1608 H 0.44254 0.21815 0.75465 0.0
H1609 H 0.44229 0.203 0.79951 0.0
H1610 H 0.423 0.21209 0.70754 0.0
H1611 H 0.47521 0.22518 0.71698 0.0
H1612 H 0.49653 0.22018 0.72047 0.0
H1613 H 0.48523 0.19911 0.6293 0.0
H1614 H 0.4637 0.2038 0.62546 0.0
H1615 H 0.44353 0.27223 0.59825 0.0
H1616 H 0.44363 0.25696 0.64273 0.0
H1617 H 0.44279 0.22376 0.57829 0.0
H1618 H 0.44307 0.23913 0.53374 0.0
H1619 H 0.46304 0.22996 0.62546 0.0
H1620 H 0.41085 0.21705 0.61613 0.0
H1621 H 0.38965 0.22222 0.61276 0.0
H1622 H 0.40108 0.2432 0.70401 0.0
H1623 H 0.4225 0.23834 0.70773 0.0
C1624 C 0.44299 0.18069 0.74027 0.0
C1625 C 0.4426 0.18537 0.77125 0.0
C1626 C 0.44313 0.18939 0.71462 0.0
C1627 C 0.44305 0.20302 0.71945 0.0
C1628 C 0.44256 0.20766 0.75034 0.0
C1629 C 0.44236 0.19895 0.77596 0.0
C1630 C 0.4434 0.21245 0.69238 0.0
C1631 C 0.43187 0.21616 0.68982 0.0
C1632 C 0.45479 0.2175 0.66887 0.0
C1633 C 0.46775 0.2147 0.67107 0.0
C1634 C 0.4772 0.21937 0.69778 0.0
C1635 C 0.48934 0.21661 0.69981 0.0
C1636 C 0.49221 0.20929 0.67516 0.0
C1637 C 0.48298 0.20475 0.6484 0.0
C1638 C 0.47081 0.20747 0.64627 0.0
C1639 C 0.44349 0.26174 0.59356 0.0
C1640 C 0.44321 0.25685 0.56245 0.0
C1641 C 0.44342 0.25297 0.61899 0.0
C1642 C 0.44304 0.23913 0.61382 0.0
C1643 C 0.44302 0.23436 0.58282 0.0
C1644 C 0.44305 0.24309 0.55739 0.0
C1645 C 0.44266 0.22962 0.64071 0.0
C1646 C 0.45418 0.22588 0.6432 0.0
C1647 C 0.43128 0.22458 0.6642 0.0
C1648 C 0.41838 0.22747 0.66207 0.0
C1649 C 0.40892 0.22288 0.63537 0.0
C1650 C 0.39685 0.22573 0.63342 0.0
C1651 C 0.39404 0.23307 0.65812 0.0
C1652 C 0.40328 0.23754 0.68487 0.0
C1653 C 0.41538 0.23472 0.68693 0.0
H1654 H 0.38469 0.23527 0.65657 0.0
H1655 H 0.50161 0.20717 0.67677 0.0
H1656 H 0.20621 0.44171 0.63799 0.0
H1657 H 0.22041 0.44005 0.5932 0.0
H1658 H 0.18243 0.42927 0.53207 0.0
H1659 H 0.1679 0.43018 0.57694 0.0
H1660 H 0.19446 0.41217 0.51791 0.0
H1661 H 0.21347 0.46538 0.53615 0.0
H1662 H 0.22463 0.48894 0.56752 0.0
H1663 H 0.26446 0.48551 0.5843 0.0
H1664 H 0.25344 0.4618 0.55337 0.0
H1665 H 0.23163 0.43318 0.36946 0.0
H1666 H 0.21784 0.43179 0.41779 0.0
H1667 H 0.25601 0.43785 0.47332 0.0
H1668 H 0.26991 0.43936 0.42505 0.0
H1669 H 0.24471 0.45657 0.4919 0.0
H1670 H 0.22587 0.40389 0.47019 0.0
H1671 H 0.2145 0.38069 0.43769 0.0
H1672 H 0.17408 0.3836 0.42604 0.0
H1673 H 0.1853 0.40696 0.45811 0.0
C1674 C 0.20079 0.43875 0.61511 0.0
C1675 C 0.18595 0.43617 0.61102 0.0
C1676 C 0.20898 0.43796 0.58947 0.0
C1677 C 0.20256 0.43478 0.5592 0.0
C1678 C 0.18763 0.43182 0.55519 0.0
C1679 C 0.1794 0.43251 0.58082 0.0
C1680 C 0.21148 0.43482 0.53152 0.0
C1681 C 0.20538 0.42194 0.51206 0.0
C1682 C 0.22588 0.44744 0.52426 0.0
C1683 C 0.23256 0.46173 0.54274 0.0
C1684 C 0.22456 0.46959 0.54673 0.0
C1685 C 0.23087 0.48298 0.5644 0.0
C1686 C 0.24523 0.4887 0.57797 0.0
C1687 C 0.25333 0.48106 0.57382 0.0
C1688 C 0.24706 0.46764 0.55621 0.0
C1689 C 0.23707 0.43423 0.39198 0.0
C1690 C 0.25181 0.43634 0.39355 0.0
C1691 C 0.22916 0.43333 0.41953 0.0
C1692 C 0.23588 0.4346 0.44907 0.0
C1693 C 0.25062 0.43679 0.45071 0.0
C1694 C 0.25849 0.43755 0.42318 0.0
C1695 C 0.22762 0.43399 0.47821 0.0
C1696 C 0.23384 0.44677 0.49791 0.0
C1697 C 0.21329 0.42133 0.48555 0.0
C1698 C 0.20649 0.40726 0.46632 0.0
C1699 C 0.21461 0.39966 0.46048 0.0
C1700 C 0.20818 0.38646 0.44218 0.0
C1701 C 0.19359 0.38069 0.42975 0.0
C1702 C 0.18539 0.38809 0.43566 0.0
C1703 C 0.19177 0.4013 0.45392 0.0
H1704 H 0.18864 0.37047 0.41559 0.0
H1705 H 0.25009 0.49907 0.59164 0.0
H1706 H 0.79255 0.23917 0.69871 0.0
H1707 H 0.77853 0.22391 0.74432 0.0
H1708 H 0.81992 0.24405 0.79869 0.0
H1709 H 0.83411 0.25898 0.75287 0.0
H1710 H 0.80289 0.21391 0.80996 0.0
H1711 H 0.79511 0.25674 0.80639 0.0
H1712 H 0.78789 0.27422 0.78194 0.0
H1713 H 0.74251 0.23723 0.76764 0.0
H1714 H 0.74952 0.21948 0.79161 0.0
H1715 H 0.76938 0.19545 0.96279 0.0
H1716 H 0.78387 0.20906 0.91597 0.0
H1717 H 0.74262 0.18865 0.86113 0.0
H1718 H 0.72804 0.17532 0.9079 0.0
H1719 H 0.75967 0.21877 0.85004 0.0
H1720 H 0.76747 0.17598 0.85455 0.0
H1721 H 0.77482 0.15864 0.87919 0.0
H1722 H 0.82027 0.19571 0.89226 0.0
H1723 H 0.81313 0.21332 0.86808 0.0
C1724 C 0.79871 0.24017 0.72021 0.0
C1725 C 0.81443 0.25036 0.72225 0.0
C1726 C 0.79066 0.23155 0.74634 0.0
C1727 C 0.79816 0.23303 0.77502 0.0
C1728 C 0.81391 0.2428 0.77682 0.0
C1729 C 0.82197 0.25141 0.75071 0.0
C1730 C 0.7895 0.22473 0.8034 0.0
C1731 C 0.79355 0.2151 0.81897 0.0
C1732 C 0.77715 0.22609 0.81478 0.0
C1733 C 0.77288 0.23676 0.80051 0.0
C1734 C 0.78362 0.25231 0.79781 0.0
C1735 C 0.77956 0.26227 0.78407 0.0
C1736 C 0.76476 0.25683 0.77317 0.0
C1737 C 0.75397 0.24142 0.77606 0.0
C1738 C 0.75798 0.23141 0.78974 0.0
C1739 C 0.7634 0.19394 0.94079 0.0
C1740 C 0.74759 0.18427 0.93899 0.0
C1741 C 0.77171 0.20161 0.91402 0.0
C1742 C 0.76433 0.19973 0.88502 0.0
C1743 C 0.74854 0.1902 0.88325 0.0
C1744 C 0.74025 0.18251 0.90994 0.0
C1745 C 0.77301 0.2079 0.85657 0.0
C1746 C 0.76898 0.21755 0.84102 0.0
C1747 C 0.78539 0.20656 0.84529 0.0
C1748 C 0.78972 0.19599 0.8598 0.0
C1749 C 0.779 0.18046 0.86292 0.0
C1750 C 0.78314 0.17057 0.87676 0.0
C1751 C 0.79799 0.17607 0.88737 0.0
C1752 C 0.80876 0.19147 0.88408 0.0
C1753 C 0.80468 0.2014 0.87029 0.0
H1754 H 0.80118 0.1684 0.89806 0.0
H1755 H 0.76164 0.26456 0.76254 0.0
H1756 H 0.58024 0.80891 0.04164 0.0
H1757 H 0.58183 0.79563 0.08829 0.0
H1758 H 0.5451 0.79886 0.13125 0.0
H1759 H 0.54322 0.81184 0.08459 0.0
H1760 H 0.56927 0.8072 0.17166 0.0
H1761 H 0.53851 0.76601 0.10051 0.0
H1762 H 0.53289 0.75195 0.05041 0.0
H1763 H 0.57225 0.74718 0.06228 0.0
H1764 H 0.57823 0.76141 0.11227 0.0
H1765 H 0.54798 0.7541 0.29636 0.0
H1766 H 0.54936 0.76908 0.25009 0.0
H1767 H 0.58207 0.75919 0.20775 0.0
H1768 H 0.58037 0.74387 0.25364 0.0
H1769 H 0.56162 0.75508 0.16644 0.0
H1770 H 0.59211 0.79506 0.23823 0.0
H1771 H 0.59843 0.80946 0.28798 0.0
H1772 H 0.56094 0.81715 0.27485 0.0
H1773 H 0.55426 0.80262 0.22521 0.0
C1774 C 0.57238 0.80663 0.06085 0.0
C1775 C 0.56162 0.81146 0.0594 0.0
C1776 C 0.57335 0.79911 0.08753 0.0
C1777 C 0.56356 0.79626 0.11316 0.0
C1778 C 0.55283 0.80105 0.11179 0.0
C1779 C 0.5518 0.80851 0.08513 0.0
C1780 C 0.56446 0.78829 0.14151 0.0
C1781 C 0.56746 0.79574 0.17065 0.0
C1782 C 0.56254 0.77354 0.13991 0.0
C1783 C 0.5589 0.76492 0.10995 0.0
C1784 C 0.54604 0.76207 0.09231 0.0
C1785 C 0.54277 0.75405 0.06396 0.0
C1786 C 0.55223 0.74871 0.05312 0.0
C1787 C 0.56495 0.75134 0.07067 0.0
C1788 C 0.56827 0.75938 0.09902 0.0
C1789 C 0.55561 0.75532 0.27733 0.0
C1790 C 0.56407 0.74785 0.2785 0.0
C1791 C 0.55642 0.7639 0.25094 0.0
C1792 C 0.56595 0.76541 0.22554 0.0
C1793 C 0.57462 0.75817 0.227 0.0
C1794 C 0.57365 0.74943 0.25319 0.0
C1795 C 0.56633 0.77393 0.19686 0.0
C1796 C 0.56356 0.76658 0.16758 0.0
C1797 C 0.5686 0.78884 0.19832 0.0
C1798 C 0.57261 0.79764 0.22812 0.0
C1799 C 0.58515 0.79973 0.24606 0.0
C1800 C 0.5888 0.80793 0.27423 0.0
C1801 C 0.58007 0.81419 0.28461 0.0
C1802 C 0.56768 0.81229 0.2668 0.0
C1803 C 0.56397 0.80408 0.23863 0.0
H1804 H 0.58292 0.82053 0.30642 0.0
H1805 H 0.54968 0.7425 0.03117 0.0
H1806 H 0.73013 0.54055 0.41629 0.0
H1807 H 0.74515 0.54272 0.46287 0.0
H1808 H 0.78074 0.58643 0.43109 0.0
H1809 H 0.76556 0.58472 0.38497 0.0
H1810 H 0.79058 0.56563 0.45103 0.0
H1811 H 0.76011 0.58668 0.48736 0.0
H1812 H 0.73614 0.58669 0.49611 0.0
H1813 H 0.71947 0.54657 0.55303 0.0
H1814 H 0.74327 0.54619 0.54421 0.0
H1815 H 0.83422 0.58393 0.59021 0.0
H1816 H 0.81987 0.58519 0.54516 0.0
H1817 H 0.77897 0.54713 0.5823 0.0
H1818 H 0.79322 0.54632 0.62802 0.0
H1819 H 0.77223 0.56638 0.55893 0.0
H1820 H 0.80083 0.54368 0.52153 0.0
H1821 H 0.82383 0.5419 0.51206 0.0
H1822 H 0.84284 0.58262 0.45648 0.0
H1823 H 0.82003 0.58475 0.46599 0.0
C1824 C 0.74104 0.55075 0.41934 0.0
C1825 C 0.74656 0.56251 0.39688 0.0
C1826 C 0.74964 0.55191 0.44591 0.0
C1827 C 0.76398 0.56477 0.45043 0.0
C1828 C 0.76969 0.57641 0.42791 0.0
C1829 C 0.76102 0.57535 0.40149 0.0
C1830 C 0.77302 0.56597 0.47866 0.0
C1831 C 0.78673 0.56604 0.47465 0.0
C1832 C 0.7677 0.56606 0.50936 0.0
C1833 C 0.75342 0.56633 0.51488 0.0
C1834 C 0.75129 0.57779 0.50152 0.0
C1835 C 0.73774 0.57787 0.50654 0.0
C1836 C 0.72627 0.56662 0.52505 0.0
C1837 C 0.72835 0.55527 0.53866 0.0
C1838 C 0.74188 0.55513 0.53369 0.0
C1839 C 0.82214 0.57591 0.58874 0.0
C1840 C 0.8148 0.56498 0.61237 0.0
C1841 C 0.81397 0.57658 0.56297 0.0
C1842 C 0.79839 0.56604 0.55996 0.0
C1843 C 0.79098 0.55537 0.58404 0.0
C1844 C 0.7991 0.55489 0.61012 0.0
C1845 C 0.78985 0.56593 0.53148 0.0
C1846 C 0.77619 0.56605 0.53538 0.0
C1847 C 0.7951 0.56576 0.50064 0.0
C1848 C 0.80879 0.56446 0.49474 0.0
C1849 C 0.80996 0.55231 0.50747 0.0
C1850 C 0.82295 0.55123 0.50207 0.0
C1851 C 0.8348 0.56216 0.48375 0.0
C1852 C 0.83366 0.57417 0.47071 0.0
C1853 C 0.8207 0.57532 0.47608 0.0
H1854 H 0.84486 0.56131 0.4796 0.0
H1855 H 0.71579 0.5667 0.52891 0.0
H1856 H 0.1633 0.74716 0.74744 0.0
H1857 H 0.17722 0.76144 0.79431 0.0
H1858 H 0.219 0.76792 0.75397 0.0
H1859 H 0.20515 0.75368 0.70707 0.0
H1860 H 0.21342 0.75661 0.81642 0.0
H1861 H 0.21349 0.79677 0.7555 0.0
H1862 H 0.20155 0.80886 0.72569 0.0
H1863 H 0.17582 0.80707 0.80738 0.0
H1864 H 0.18745 0.79476 0.83757 0.0
H1865 H 0.26897 0.81029 0.91656 0.0
H1866 H 0.25308 0.79655 0.87181 0.0
H1867 H 0.21555 0.79904 0.91279 0.0
H1868 H 0.23171 0.81364 0.95702 0.0
H1869 H 0.21714 0.80484 0.85204 0.0
H1870 H 0.21701 0.76581 0.91406 0.0
H1871 H 0.2279 0.75305 0.94506 0.0
H1872 H 0.252 0.75138 0.86353 0.0
H1873 H 0.24143 0.76434 0.83212 0.0
C1874 C 0.17547 0.75171 0.74856 0.0
C1875 C 0.18318 0.74935 0.72368 0.0
C1876 C 0.18339 0.7599 0.77521 0.0
C1877 C 0.19911 0.76573 0.77749 0.0
C1878 C 0.20685 0.7635 0.75257 0.0
C1879 C 0.19897 0.75548 0.72577 0.0
C1880 C 0.20745 0.7737 0.80631 0.0
C1881 C 0.21441 0.76725 0.82407 0.0
C1882 C 0.20818 0.78725 0.8168 0.0
C1883 C 0.20121 0.79469 0.79869 0.0
C1884 C 0.20518 0.79883 0.76703 0.0
C1885 C 0.19849 0.80575 0.75008 0.0
C1886 C 0.1879 0.80869 0.7646 0.0
C1887 C 0.184 0.80476 0.79614 0.0
C1888 C 0.19065 0.79782 0.81319 0.0
C1889 C 0.25739 0.8081 0.91598 0.0
C1890 C 0.25165 0.81315 0.9404 0.0
C1891 C 0.24825 0.80004 0.89052 0.0
C1892 C 0.23304 0.79654 0.88916 0.0
C1893 C 0.22723 0.80155 0.91343 0.0
C1894 C 0.23644 0.80976 0.93885 0.0
C1895 C 0.22338 0.78788 0.86202 0.0
C1896 C 0.21611 0.79416 0.84459 0.0
C1897 C 0.22218 0.77403 0.85203 0.0
C1898 C 0.22852 0.76616 0.8708 0.0
C1899 C 0.22472 0.76282 0.90279 0.0
C1900 C 0.23082 0.75554 0.92042 0.0
C1901 C 0.24066 0.75144 0.90629 0.0
C1902 C 0.24439 0.75458 0.87445 0.0
C1903 C 0.23833 0.76188 0.85671 0.0
H1904 H 0.24538 0.7458 0.91999 0.0
H1905 H 0.18274 0.81405 0.75144 0.0
H1906 H 0.41796 0.18995 0.03844 0.0
H1907 H 0.41556 0.20327 0.08411 0.0
H1908 H 0.44632 0.19394 0.13642 0.0
H1909 H 0.44931 0.18117 0.09067 0.0
H1910 H 0.41944 0.18779 0.16987 0.0
H1911 H 0.45974 0.22745 0.1079 0.0
H1912 H 0.47082 0.2423 0.05945 0.0
H1913 H 0.4366 0.25528 0.05836 0.0
H1914 H 0.42518 0.24031 0.10659 0.0
H1915 H 0.44197 0.23877 0.29809 0.0
H1916 H 0.44021 0.22361 0.25193 0.0
H1917 H 0.4168 0.24261 0.20117 0.0
H1918 H 0.41887 0.25806 0.24714 0.0
H1919 H 0.43774 0.24307 0.16551 0.0
H1920 H 0.39815 0.20524 0.2286 0.0
H1921 H 0.38619 0.19011 0.27631 0.0
H1922 H 0.41728 0.17312 0.27467 0.0
H1923 H 0.42957 0.18832 0.22719 0.0
C1924 C 0.42435 0.19087 0.0595 0.0
C1925 C 0.43384 0.18447 0.06079 0.0
C1926 C 0.42287 0.19838 0.08564 0.0
C1927 C 0.43077 0.19955 0.11354 0.0
C1928 C 0.44005 0.19303 0.11512 0.0
C1929 C 0.44168 0.18567 0.08895 0.0
C1930 C 0.42966 0.20788 0.14099 0.0
C1931 C 0.42353 0.1999 0.1691 0.0
C1932 C 0.4346 0.22356 0.13951 0.0
C1933 C 0.44151 0.23262 0.11063 0.0
C1934 C 0.4545 0.23336 0.09717 0.0
C1935 C 0.46086 0.24182 0.06978 0.0
C1936 C 0.45439 0.24969 0.05578 0.0
C1937 C 0.44158 0.24916 0.0692 0.0
C1938 C 0.43517 0.24069 0.09657 0.0
C1939 C 0.43627 0.23954 0.2772 0.0
C1940 C 0.43053 0.24955 0.27615 0.0
C1941 C 0.43524 0.23086 0.25086 0.0
C1942 C 0.42819 0.23181 0.22318 0.0
C1943 C 0.42229 0.24168 0.22225 0.0
C1944 C 0.42348 0.2505 0.24847 0.0
C1945 C 0.42762 0.22304 0.19477 0.0
C1946 C 0.43346 0.23093 0.16638 0.0
C1947 C 0.42225 0.20723 0.19594 0.0
C1948 C 0.41487 0.19803 0.22446 0.0
C1949 C 0.40251 0.19837 0.23854 0.0
C1950 C 0.39566 0.18977 0.26553 0.0
C1951 C 0.40099 0.18069 0.27855 0.0
C1952 C 0.41317 0.18017 0.26457 0.0
C1953 C 0.42007 0.18877 0.2376 0.0
H1954 H 0.39567 0.17403 0.29944 0.0
H1955 H 0.45933 0.25624 0.03458 0.0
H1956 H 0.36037 0.53358 0.29639 0.0
H1957 H 0.38234 0.55643 0.31716 0.0
H1958 H 0.40967 0.53515 0.30841 0.0
H1959 H 0.38813 0.5126 0.28577 0.0
H1960 H 0.40893 0.54908 0.37161 0.0
H1961 H 0.41724 0.55914 0.25923 0.0
H1962 H 0.40951 0.56216 0.20591 0.0
H1963 H 0.40221 0.59791 0.23905 0.0
H1964 H 0.40969 0.59494 0.29271 0.0
H1965 H 0.48325 0.60777 0.40322 0.0
H1966 H 0.46016 0.58625 0.3829 0.0
H1967 H 0.44261 0.61588 0.35958 0.0
H1968 H 0.46625 0.63771 0.3773 0.0
H1969 H 0.43683 0.59789 0.31385 0.0
H1970 H 0.42917 0.58987 0.42417 0.0
H1971 H 0.43526 0.58718 0.47915 0.0
H1972 H 0.43898 0.54831 0.45361 0.0
H1973 H 0.43311 0.55088 0.39836 0.0
C1974 C 0.3711 0.53382 0.29814 0.0
C1975 C 0.37237 0.52112 0.2894 0.0
C1976 C 0.3836 0.54686 0.31033 0.0
C1977 C 0.39753 0.54738 0.31443 0.0
C1978 C 0.39893 0.53486 0.30562 0.0
C1979 C 0.38655 0.52194 0.29287 0.0
C1980 C 0.41062 0.56088 0.32846 0.0
C1981 C 0.41518 0.55974 0.35898 0.0
C1982 C 0.41828 0.57487 0.3123 0.0
C1983 C 0.41384 0.57669 0.28004 0.0
C1984 C 0.41383 0.56754 0.25522 0.0
C1985 C 0.40953 0.56926 0.22492 0.0
C1986 C 0.40532 0.58019 0.21912 0.0
C1987 C 0.40545 0.58944 0.24359 0.0
C1988 C 0.40973 0.58774 0.27394 0.0
C1989 C 0.47458 0.6098 0.39353 0.0
C1990 C 0.47676 0.62459 0.39187 0.0
C1991 C 0.46121 0.59738 0.38236 0.0
C1992 C 0.44947 0.59934 0.37011 0.0
C1993 C 0.45145 0.61403 0.36899 0.0
C1994 C 0.46496 0.62652 0.37959 0.0
C1995 C 0.43544 0.58617 0.35721 0.0
C1996 C 0.43062 0.58733 0.32682 0.0
C1997 C 0.42732 0.57227 0.37383 0.0
C1998 C 0.43083 0.57065 0.40706 0.0
C1999 C 0.43139 0.58081 0.43023 0.0
C2000 C 0.43479 0.5793 0.46145 0.0
C2001 C 0.43753 0.5676 0.46985 0.0
C2002 C 0.43686 0.55737 0.44706 0.0
C2003 C 0.43348 0.55884 0.41579 0.0
H2004 H 0.44016 0.56645 0.49404 0.0
H2005 H 0.402 0.58151 0.19564 0.0
H2006 H 0.87445 0.48336 0.73879 0.0
H2007 H 0.87405 0.46083 0.71745 0.0
H2008 H 0.8314 0.44768 0.67141 0.0
H2009 H 0.83202 0.47047 0.69156 0.0
H2010 H 0.85553 0.43124 0.72342 0.0
H2011 H 0.83036 0.43144 0.60089 0.0
H2012 H 0.82986 0.44984 0.56375 0.0
H2013 H 0.87183 0.48526 0.60197 0.0
H2014 H 0.87271 0.46703 0.63899 0.0
H2015 H 0.83364 0.36137 0.64968 0.0
H2016 H 0.83356 0.38377 0.66968 0.0
H2017 H 0.86948 0.412 0.6051 0.0
H2018 H 0.86897 0.3895 0.58346 0.0
H2019 H 0.85027 0.42175 0.60823 0.0
H2020 H 0.87639 0.40841 0.68409 0.0
H2021 H 0.87976 0.39142 0.72049 0.0
H2022 H 0.84139 0.38519 0.77468 0.0
H2023 H 0.83765 0.40196 0.7383 0.0
C2024 C 0.86501 0.47571 0.724 0.0
C2025 C 0.85332 0.47879 0.71673 0.0
C2026 C 0.86474 0.46277 0.71204 0.0
C2027 C 0.8528 0.45267 0.6925 0.0
C2028 C 0.84085 0.45544 0.68606 0.0
C2029 C 0.84114 0.46839 0.69791 0.0
C2030 C 0.85301 0.43943 0.67833 0.0
C2031 C 0.85435 0.42915 0.69824 0.0
C2032 C 0.85181 0.43687 0.64541 0.0
C2033 C 0.8515 0.44789 0.62293 0.0
C2034 C 0.83951 0.44314 0.60127 0.0
C2035 C 0.83916 0.45354 0.58026 0.0
C2036 C 0.85078 0.46872 0.58057 0.0
C2037 C 0.86281 0.47351 0.60183 0.0
C2038 C 0.86323 0.46315 0.62285 0.0
C2039 C 0.84131 0.37228 0.63917 0.0
C2040 C 0.85135 0.37358 0.61493 0.0
C2041 C 0.8414 0.38513 0.651 0.0
C2042 C 0.85172 0.39963 0.63936 0.0
C2043 C 0.86147 0.40095 0.61462 0.0
C2044 C 0.86127 0.38807 0.60248 0.0
C2045 C 0.85254 0.41341 0.65336 0.0
C2046 C 0.85139 0.4238 0.63342 0.0
C2047 C 0.85434 0.41629 0.68618 0.0
C2048 C 0.85666 0.40634 0.70831 0.0
C2049 C 0.86862 0.40334 0.70366 0.0
C2050 C 0.8706 0.39376 0.72429 0.0
C2051 C 0.86078 0.38721 0.74984 0.0
C2052 C 0.84898 0.39026 0.75486 0.0
C2053 C 0.84693 0.39982 0.73425 0.0
H2054 H 0.86233 0.37979 0.76579 0.0
H2055 H 0.85047 0.47676 0.56431 0.0
H2056 H 0.46486 0.83315 0.92288 0.0
H2057 H 0.44192 0.8321 0.94396 0.0
H2058 H 0.46956 0.871 0.00254 0.0
H2059 H 0.4925 0.87193 0.98205 0.0
H2060 H 0.44612 0.84836 0.03527 0.0
H2061 H 0.45295 0.8749 0.93774 0.0
H2062 H 0.45655 0.87884 0.8804 0.0
H2063 H 0.41399 0.83806 0.86422 0.0
H2064 H 0.41024 0.83375 0.92151 0.0
H2065 H 0.39064 0.86801 0.07904 0.0
H2066 H 0.41293 0.8676 0.05862 0.0
H2067 H 0.38399 0.82915 1.00011 0.0
H2068 H 0.36167 0.82972 0.01986 0.0
H2069 H 0.40772 0.85079 0.96725 0.0
H2070 H 0.40055 0.8245 0.06476 0.0
H2071 H 0.39691 0.82053 0.12209 0.0
H2072 H 0.44 0.86068 0.13837 0.0
H2073 H 0.4438 0.86501 0.08111 0.0
C2074 C 0.46603 0.84148 0.94024 0.0
C2075 C 0.48048 0.85267 0.95069 0.0
C2076 C 0.45294 0.84092 0.95212 0.0
C2077 C 0.45405 0.85153 0.97466 0.0
C2078 C 0.46845 0.86272 0.98511 0.0
C2079 C 0.48155 0.86333 0.97315 0.0
C2080 C 0.4402 0.85081 0.98781 0.0
C2081 C 0.43781 0.84908 0.02046 0.0
C2082 C 0.42918 0.85135 0.96836 0.0
C2083 C 0.4314 0.85392 0.93391 0.0
C2084 C 0.44442 0.8667 0.92195 0.0
C2085 C 0.44648 0.86901 0.88946 0.0
C2086 C 0.43552 0.85868 0.86867 0.0
C2087 C 0.42247 0.84604 0.88035 0.0
C2088 C 0.42037 0.84366 0.91283 0.0
C2089 C 0.38903 0.85945 0.06188 0.0
C2090 C 0.37439 0.84888 0.0511 0.0
C2091 C 0.40176 0.85916 0.0504 0.0
C2092 C 0.40011 0.84828 0.028 0.0
C2093 C 0.38551 0.83761 0.01745 0.0
C2094 C 0.37277 0.83787 0.02898 0.0
C2095 C 0.41366 0.84839 0.01475 0.0
C2096 C 0.416 0.85001 0.98207 0.0
C2097 C 0.42463 0.84774 0.03418 0.0
C2098 C 0.42239 0.84516 0.06864 0.0
C2099 C 0.40919 0.83256 0.08056 0.0
C2100 C 0.40711 0.83023 0.11305 0.0
C2101 C 0.4182 0.84037 0.13386 0.0
C2102 C 0.43141 0.85284 0.12222 0.0
C2103 C 0.43354 0.85523 0.08975 0.0
H2104 H 0.41657 0.83854 0.159 0.0
H2105 H 0.43713 0.8605 0.84353 0.0
H2106 H 0.62136 0.49069 0.32848 0.0
H2107 H 0.59922 0.46753 0.34713 0.0
H2108 H 0.60366 0.44255 0.26972 0.0
H2109 H 0.6255 0.4659 0.25001 0.0
H2110 H 0.57464 0.43467 0.2783 0.0
H2111 H 0.61516 0.43999 0.34444 0.0
H2112 H 0.63692 0.45321 0.38057 0.0
H2113 H 0.60842 0.45851 0.44795 0.0
H2114 H 0.58652 0.4455 0.41202 0.0
H2115 H 0.52444 0.36171 0.34048 0.0
H2116 H 0.54732 0.38418 0.32155 0.0
H2117 H 0.54334 0.41087 0.39594 0.0
H2118 H 0.52069 0.38828 0.41572 0.0
H2119 H 0.57245 0.4174 0.38846 0.0
H2120 H 0.53209 0.41252 0.32143 0.0
H2121 H 0.5104 0.39921 0.28517 0.0
H2122 H 0.53881 0.39289 0.2193 0.0
H2123 H 0.56063 0.40598 0.25539 0.0
C2124 C 0.61753 0.48034 0.31509 0.0
C2125 C 0.62522 0.48019 0.28766 0.0
C2126 C 0.60496 0.46704 0.32606 0.0
C2127 C 0.59992 0.45325 0.31012 0.0
C2128 C 0.60742 0.45306 0.2825 0.0
C2129 C 0.61997 0.46639 0.27141 0.0
C2130 C 0.58674 0.43907 0.32221 0.0
C2131 C 0.57427 0.43076 0.30223 0.0
C2132 C 0.5861 0.43414 0.35366 0.0
C2133 C 0.59923 0.44189 0.37541 0.0
C2134 C 0.61356 0.44407 0.36686 0.0
C2135 C 0.62591 0.45151 0.38732 0.0
C2136 C 0.62406 0.45673 0.4165 0.0
C2137 C 0.60984 0.45448 0.42532 0.0
C2138 C 0.59745 0.44706 0.40493 0.0
C2139 C 0.52854 0.3723 0.35313 0.0
C2140 C 0.52071 0.37319 0.37962 0.0
C2141 C 0.54154 0.38517 0.34206 0.0
C2142 C 0.54691 0.39924 0.35707 0.0
C2143 C 0.53934 0.40013 0.38391 0.0
C2144 C 0.52633 0.38724 0.39503 0.0
C2145 C 0.56036 0.41307 0.34459 0.0
C2146 C 0.57287 0.42129 0.36449 0.0
C2147 C 0.56104 0.4179 0.31306 0.0
C2148 C 0.54795 0.4101 0.29125 0.0
C2149 C 0.53368 0.40819 0.29932 0.0
C2150 C 0.52137 0.4007 0.27878 0.0
C2151 C 0.52321 0.39517 0.24999 0.0
C2152 C 0.53739 0.39716 0.24163 0.0
C2153 C 0.54974 0.40462 0.26211 0.0
H2154 H 0.51367 0.38938 0.23412 0.0
H2155 H 0.63364 0.46248 0.43231 0.0
H2156 H 0.12858 0.6108 0.5898 0.0
H2157 H 0.12879 0.58854 0.61101 0.0
H2158 H 0.16851 0.61772 0.66616 0.0
H2159 H 0.16834 0.64003 0.64518 0.0
H2160 H 0.17081 0.59473 0.63962 0.0
H2161 H 0.13384 0.59996 0.70008 0.0
H2162 H 0.11129 0.60268 0.7081 0.0
H2163 H 0.08329 0.55979 0.66256 0.0
H2164 H 0.10573 0.55692 0.65385 0.0
H2165 H 0.16618 0.53735 0.74245 0.0
H2166 H 0.16687 0.56022 0.72214 0.0
H2167 H 0.1267 0.53243 0.66697 0.0
H2168 H 0.12595 0.50956 0.68709 0.0
H2169 H 0.12497 0.55514 0.69469 0.0
H2170 H 0.16202 0.55012 0.63342 0.0
H2171 H 0.18459 0.54746 0.6252 0.0
H2172 H 0.21244 0.58995 0.67227 0.0
H2173 H 0.18999 0.59276 0.68116 0.0
C2174 C 0.13735 0.61248 0.60646 0.0
C2175 C 0.14839 0.62719 0.61592 0.0
C2176 C 0.13747 0.59975 0.61854 0.0
C2177 C 0.14854 0.60147 0.64052 0.0
C2178 C 0.15986 0.61613 0.64924 0.0
C2179 C 0.15978 0.62888 0.63712 0.0
C2180 C 0.1481 0.58795 0.65492 0.0
C2181 C 0.16087 0.58617 0.65202 0.0
C2182 C 0.13502 0.57666 0.67064 0.0
C2183 C 0.12149 0.5783 0.67605 0.0
C2184 C 0.12289 0.59117 0.69157 0.0
C2185 C 0.11013 0.59273 0.69627 0.0
C2186 C 0.09587 0.58143 0.68578 0.0
C2187 C 0.09434 0.56854 0.67064 0.0
C2188 C 0.10708 0.56693 0.66583 0.0
C2189 C 0.15752 0.53612 0.72594 0.0
C2190 C 0.14603 0.52163 0.71634 0.0
C2191 C 0.15792 0.54919 0.71435 0.0
C2192 C 0.14694 0.54804 0.69272 0.0
C2193 C 0.13527 0.53359 0.68366 0.0
C2194 C 0.13483 0.52053 0.6953 0.0
C2195 C 0.14764 0.56185 0.67922 0.0
C2196 C 0.13492 0.5637 0.68233 0.0
C2197 C 0.16077 0.5732 0.66371 0.0
C2198 C 0.1743 0.57157 0.65824 0.0
C2199 C 0.17294 0.55884 0.64223 0.0
C2200 C 0.18572 0.55731 0.63742 0.0
C2201 C 0.19994 0.5685 0.64828 0.0
C2202 C 0.20142 0.58127 0.66391 0.0
C2203 C 0.18867 0.58284 0.66883 0.0
H2204 H 0.20982 0.5673 0.64453 0.0
H2205 H 0.086 0.58266 0.68944 0.0
H2206 H 0.62716 0.16233 0.08276 0.0
H2207 H 0.6047 0.1628 0.06341 0.0
H2208 H 0.60003 0.13222 0.98824 0.0
H2209 H 0.62259 0.13189 0.00712 0.0
H2210 H 0.5969 0.15603 0.96741 0.0
H2211 H 0.57699 0.119 0.05044 0.0
H2212 H 0.5756 0.10942 0.10438 0.0
H2213 H 0.56713 0.14393 0.14059 0.0
H2214 H 0.56869 0.15385 0.08687 0.0
H2215 H 0.52196 0.13457 0.91846 0.0
H2216 H 0.54462 0.13451 0.93769 0.0
H2217 H 0.54752 0.16308 0.01559 0.0
H2218 H 0.5246 0.16276 0.99715 0.0
H2219 H 0.55172 0.14053 0.03516 0.0
H2220 H 0.57146 0.17759 0.95262 0.0
H2221 H 0.57304 0.18748 0.89891 0.0
H2222 H 0.58207 0.15346 0.86203 0.0
H2223 H 0.58034 0.14322 0.9155 0.0
C2224 C 0.62137 0.15575 0.06205 0.0
C2225 C 0.62658 0.147 0.04658 0.0
C2226 C 0.6085 0.15596 0.05115 0.0
C2227 C 0.60063 0.14744 0.02455 0.0
C2228 C 0.60591 0.13884 0.00886 0.0
C2229 C 0.61871 0.13855 0.01984 0.0
C2230 C 0.58692 0.14755 0.01295 0.0
C2231 C 0.58694 0.15246 0.98206 0.0
C2232 C 0.57409 0.14323 0.03236 0.0
C2233 C 0.57311 0.13727 0.06467 0.0
C2234 C 0.57496 0.12462 0.06993 0.0
C2235 C 0.57412 0.11912 0.10046 0.0
C2236 C 0.57132 0.12609 0.12591 0.0
C2237 C 0.56932 0.13856 0.12086 0.0
C2238 C 0.57017 0.14412 0.09037 0.0
C2239 C 0.52738 0.14078 0.93977 0.0
C2240 C 0.52152 0.14874 0.95617 0.0
C2241 C 0.5404 0.14085 0.95058 0.0
C2242 C 0.54787 0.14894 0.97789 0.0
C2243 C 0.54198 0.15681 0.9944 0.0
C2244 C 0.52897 0.15674 0.98363 0.0
C2245 C 0.56166 0.14901 0.98957 0.0
C2246 C 0.56168 0.14412 0.02048 0.0
C2247 C 0.57454 0.1534 0.97021 0.0
C2248 C 0.57562 0.15954 0.93803 0.0
C2249 C 0.57366 0.17214 0.93303 0.0
C2250 C 0.5746 0.17782 0.90263 0.0
C2251 C 0.57761 0.17108 0.87706 0.0
C2252 C 0.57972 0.15866 0.88185 0.0
C2253 C 0.57877 0.15292 0.9122 0.0
H2254 H 0.57834 0.1755 0.85355 0.0
H2255 H 0.57067 0.1218 0.14953 0.0
loop_
_geom_bond_atom_site_label_1
_geom_bond_atom_site_label_2
_geom_bond_distance
_geom_bond_site_symmetry_2
_ccdc_geom_bond_type
Li0 N17 1.990 . S
Li0 O60 1.956 . S
Li0 O61 1.970 . S
Li0 O62 1.961 . S
Li1 N25 1.990 . S
Li1 O60 1.970 . S
Li1 O61 1.956 . S
Li1 O63 1.961 . S
Li2 N47 1.990 . S
Li2 O60 1.961 . S
Li2 O62 1.956 . S
Li2 O63 1.970 . S
Li3 N53 1.990 . S
Li3 O61 1.961 . S
Li3 O62 1.970 . S
Li3 O63 1.956 . S
C4 C6 1.348 . S
C4 C7 1.356 . S
C4 O60 1.325 . S
N5 C8 1.314 . S
N5 C9 1.279 . S
C6 C4 1.348 . S
C6 C8 1.353 . S
C6 H64 0.929 . S
C7 C4 1.356 . S
C7 C9 1.358 . S
C7 H65 0.930 . S
C8 N5 1.314 . S
C8 C6 1.353 . S
C8 H66 0.930 . S
C9 N5 1.279 . S
C9 C7 1.358 . S
C9 H67 0.930 . S
C10 C13 1.348 . S
C10 C14 1.356 . S
C10 O61 1.325 . S
C11 N12 1.279 . S
C11 C14 1.358 . S
C11 H68 0.930 . S
N12 C11 1.279 . S
N12 C15 1.314 . S
C13 C10 1.348 . S
C13 C15 1.353 . S
C13 H69 0.929 . S
C14 C10 1.356 . S
C14 C11 1.358 . S
C14 H70 0.930 . S
C15 N12 1.314 . S
C15 C13 1.353 . S
C15 H71 0.930 . S
C16 N17 1.314 . S
C16 C21 1.353 . S
C16 H22 0.930 . S
N17 Li0 1.990 . S
N17 C16 1.314 . S
N17 C19 1.279 . S
C18 C19 1.358 . S
C18 C20 1.356 . S
C18 H72 0.930 . S
C19 N17 1.279 . S
C19 C18 1.358 . S
C19 H23 0.930 . S
C20 C18 1.356 . S
C20 C21 1.348 . S
C21 C16 1.353 . S
C21 C20 1.348 . S
C21 H73 0.929 . S
H22 C16 0.930 . S
H23 C19 0.930 . S
C24 N25 1.314 . S
C24 C26 1.353 . S
C24 H30 0.930 . S
N25 Li1 1.990 . S
N25 C24 1.314 . S
N25 C28 1.279 . S
C26 C24 1.353 . S
C26 C29 1.348 . S
C26 H74 0.929 . S
C27 C28 1.358 . S
C27 C29 1.356 . S
C27 H75 0.930 . S
C28 N25 1.279 . S
C28 C27 1.358 . S
C28 H31 0.930 . S
C29 C26 1.348 . S
C29 C27 1.356 . S
H30 C24 0.930 . S
H31 C28 0.930 . S
C32 C34 1.348 . S
C32 C35 1.356 . S
C32 O62 1.325 . S
N33 C36 1.314 . S
N33 C37 1.279 . S
C34 C32 1.348 . S
C34 C36 1.353 . S
C34 H76 0.929 . S
C35 C32 1.356 . S
C35 C37 1.358 . S
C35 H77 0.930 . S
C36 N33 1.314 . S
C36 C34 1.353 . S
C36 H78 0.930 . S
C37 N33 1.279 . S
C37 C35 1.358 . S
C37 H79 0.930 . S
C38 C39 1.348 . S
C38 C40 1.356 . S
C38 O63 1.325 . S
C39 C38 1.348 . S
C39 C41 1.353 . S
C39 H80 0.929 . S
C40 C38 1.356 . S
C40 C42 1.358 . S
C40 H81 0.930 . S
C41 C39 1.353 . S
C41 N43 1.314 . S
C41 H82 0.930 . S
C42 C40 1.358 . S
C42 N43 1.279 . S
C42 H83 0.930 . S
N43 C41 1.314 . S
N43 C42 1.279 . S
C44 C46 1.353 . S
C44 N47 1.314 . S
C44 H50 0.930 . S
C45 N47 1.279 . S
C45 C48 1.358 . S
C45 H51 0.930 . S
C46 C44 1.353 . S
C46 C49 1.348 . S
C46 H84 0.929 . S
N47 Li2 1.990 . S
N47 C44 1.314 . S
N47 C45 1.279 . S
C48 C45 1.358 . S
C48 C49 1.356 . S
C48 H85 0.930 . S
C49 C46 1.348 . S
C49 C48 1.356 . S
H50 C44 0.930 . S
H51 C45 0.930 . S
C52 N53 1.314 . S
C52 C54 1.353 . S
C52 H58 0.930 . S
N53 Li3 1.990 . S
N53 C52 1.314 . S
N53 C56 1.279 . S
C54 C52 1.353 . S
C54 C57 1.348 . S
C54 H86 0.929 . S
C55 C56 1.358 . S
C55 C57 1.356 . S
C55 H87 0.930 . S
C56 N53 1.279 . S
C56 C55 1.358 . S
C56 H59 0.930 . S
C57 C54 1.348 . S
C57 C55 1.356 . S
H58 C52 0.930 . S
H59 C56 0.930 . S
O60 Li0 1.956 . S
O60 Li1 1.970 . S
O60 Li2 1.961 . S
O60 C4 1.325 . S
O61 Li0 1.970 . S
O61 Li1 1.956 . S
O61 Li3 1.961 . S
O61 C10 1.325 . S
O62 Li0 1.961 . S
O62 Li2 1.956 . S
O62 Li3 1.970 . S
O62 C32 1.325 . S
O63 Li1 1.961 . S
O63 Li2 1.970 . S
O63 Li3 1.956 . S
O63 C38 1.325 . S
H64 C6 0.929 . S
H65 C7 0.930 . S
H66 C8 0.930 . S
H67 C9 0.930 . S
H68 C11 0.930 . S
H69 C13 0.929 . S
H70 C14 0.930 . S
H71 C15 0.930 . S
H72 C18 0.930 . S
H73 C21 0.929 . S
H74 C26 0.929 . S
H75 C27 0.930 . S
H76 C34 0.929 . S
H77 C35 0.930 . S
H78 C36 0.930 . S
H79 C37 0.930 . S
H80 C39 0.929 . S
H81 C40 0.930 . S
H82 C41 0.930 . S
H83 C42 0.930 . S
H84 C46 0.929 . S
H85 C48 0.930 . S
H86 C54 0.929 . S
H87 C55 0.930 . S
Li88 N105 1.990 . S
Li88 O148 1.956 . S
Li88 O149 1.970 . S
Li88 O150 1.961 . S
Li89 N113 1.990 . S
Li89 O148 1.970 . S
Li89 O149 1.956 . S
Li89 O151 1.961 . S
Li90 N135 1.990 . S
Li90 O148 1.961 . S
Li90 O150 1.956 . S
Li90 O151 1.970 . S
Li91 N141 1.990 . S
Li91 O149 1.961 . S
Li91 O150 1.970 . S
Li91 O151 1.956 . S
C92 C94 1.348 . S
C92 C95 1.356 . S
C92 O148 1.325 . S
N93 C96 1.314 . S
N93 C97 1.279 . S
C94 C92 1.348 . S
C94 C96 1.353 . S
C94 H152 0.929 . S
C95 C92 1.356 . S
C95 C97 1.358 . S
C95 H153 0.930 . S
C96 N93 1.314 . S
C96 C94 1.353 . S
C96 H154 0.930 . S
C97 N93 1.279 . S
C97 C95 1.358 . S
C97 H155 0.930 . S
C98 C101 1.348 . S
C98 C102 1.356 . S
C98 O149 1.325 . S
C99 N100 1.279 . S
C99 C102 1.358 . S
C99 H156 0.930 . S
N100 C99 1.279 . S
N100 C103 1.314 . S
C101 C98 1.348 . S
C101 C103 1.353 . S
C101 H157 0.929 . S
C102 C98 1.356 . S
C102 C99 1.358 . S
C102 H158 0.930 . S
C103 N100 1.314 . S
C103 C101 1.353 . S
C103 H159 0.930 . S
C104 N105 1.314 . S
C104 C109 1.353 . S
C104 H110 0.930 . S
N105 Li88 1.990 . S
N105 C104 1.314 . S
N105 C107 1.279 . S
C106 C107 1.358 . S
C106 C108 1.356 . S
C106 H160 0.930 . S
C107 N105 1.279 . S
C107 C106 1.358 . S
C107 H111 0.930 . S
C108 C106 1.356 . S
C108 C109 1.348 . S
C109 C104 1.353 . S
C109 C108 1.348 . S
C109 H161 0.929 . S
H110 C104 0.930 . S
H111 C107 0.930 . S
C112 N113 1.314 . S
C112 C114 1.353 . S
C112 H118 0.930 . S
N113 Li89 1.990 . S
N113 C112 1.314 . S
N113 C116 1.279 . S
C114 C112 1.353 . S
C114 C117 1.348 . S
C114 H162 0.929 . S
C115 C116 1.358 . S
C115 C117 1.356 . S
C115 H163 0.930 . S
C116 N113 1.279 . S
C116 C115 1.358 . S
C116 H119 0.930 . S
C117 C114 1.348 . S
C117 C115 1.356 . S
H118 C112 0.930 . S
H119 C116 0.930 . S
C120 C122 1.348 . S
C120 C123 1.356 . S
C120 O150 1.325 . S
N121 C124 1.314 . S
N121 C125 1.279 . S
C122 C120 1.348 . S
C122 C124 1.353 . S
C122 H164 0.929 . S
C123 C120 1.356 . S
C123 C125 1.358 . S
C123 H165 0.930 . S
C124 N121 1.314 . S
C124 C122 1.353 . S
C124 H166 0.930 . S
C125 N121 1.279 . S
C125 C123 1.358 . S
C125 H167 0.930 . S
C126 C127 1.348 . S
C126 C128 1.356 . S
C126 O151 1.325 . S
C127 C126 1.348 . S
C127 C129 1.353 . S
C127 H168 0.929 . S
C128 C126 1.356 . S
C128 C130 1.358 . S
C128 H169 0.930 . S
C129 C127 1.353 . S
C129 N131 1.314 . S
C129 H170 0.930 . S
C130 C128 1.358 . S
C130 N131 1.279 . S
C130 H171 0.930 . S
N131 C129 1.314 . S
N131 C130 1.279 . S
C132 C134 1.353 . S
C132 N135 1.314 . S
C132 H138 0.930 . S
C133 N135 1.279 . S
C133 C136 1.358 . S
C133 H139 0.930 . S
C134 C132 1.353 . S
C134 C137 1.348 . S
C134 H172 0.929 . S
N135 Li90 1.990 . S
N135 C132 1.314 . S
N135 C133 1.279 . S
C136 C133 1.358 . S
C136 C137 1.356 . S
C136 H173 0.930 . S
C137 C134 1.348 . S
C137 C136 1.356 . S
H138 C132 0.930 . S
H139 C133 0.930 . S
C140 N141 1.314 . S
C140 C142 1.353 . S
C140 H146 0.930 . S
N141 Li91 1.990 . S
N141 C140 1.314 . S
N141 C144 1.279 . S
C142 C140 1.353 . S
C142 C145 1.348 . S
C142 H174 0.929 . S
C143 C144 1.358 . S
C143 C145 1.356 . S
C143 H175 0.930 . S
C144 N141 1.279 . S
C144 C143 1.358 . S
C144 H147 0.930 . S
C145 C142 1.348 . S
C145 C143 1.356 . S
H146 C140 0.930 . S
H147 C144 0.930 . S
O148 Li88 1.956 . S
O148 Li89 1.970 . S
O148 Li90 1.961 . S
O148 C92 1.325 . S
O149 Li88 1.970 . S
O149 Li89 1.956 . S
O149 Li91 1.961 . S
O149 C98 1.325 . S
O150 Li88 1.961 . S
O150 Li90 1.956 . S
O150 Li91 1.970 . S
O150 C120 1.325 . S
O151 Li89 1.961 . S
O151 Li90 1.970 . S
O151 Li91 1.956 . S
O151 C126 1.325 . S
H152 C94 0.929 . S
H153 C95 0.930 . S
H154 C96 0.930 . S
H155 C97 0.930 . S
H156 C99 0.930 . S
H157 C101 0.929 . S
H158 C102 0.930 . S
H159 C103 0.930 . S
H160 C106 0.930 . S
H161 C109 0.929 . S
H162 C114 0.929 . S
H163 C115 0.930 . S
H164 C122 0.929 . S
H165 C123 0.930 . S
H166 C124 0.930 . S
H167 C125 0.930 . S
H168 C127 0.929 . S
H169 C128 0.930 . S
H170 C129 0.930 . S
H171 C130 0.930 . S
H172 C134 0.929 . S
H173 C136 0.930 . S
H174 C142 0.929 . S
H175 C143 0.930 . S
Li176 N193 1.990 . S
Li176 O236 1.956 . S
Li176 O237 1.970 . S
Li176 O238 1.961 . S
Li177 N201 1.990 1_556 S
Li177 O236 1.970 . S
Li177 O237 1.956 . S
Li177 O239 1.961 . S
Li178 N223 1.990 . S
Li178 O236 1.961 . S
Li178 O238 1.956 . S
Li178 O239 1.970 . S
Li179 N229 1.990 . S
Li179 O237 1.961 . S
Li179 O238 1.970 . S
Li179 O239 1.956 . S
C180 C182 1.348 . S
C180 C183 1.356 . S
C180 O236 1.325 . S
N181 C184 1.314 . S
N181 C185 1.279 . S
C182 C180 1.348 . S
C182 C184 1.353 . S
C182 H240 0.929 . S
C183 C180 1.356 . S
C183 C185 1.358 . S
C183 H241 0.930 . S
C184 N181 1.314 . S
C184 C182 1.353 . S
C184 H242 0.930 . S
C185 N181 1.279 . S
C185 C183 1.358 . S
C185 H243 0.930 . S
C186 C189 1.348 . S
C186 C190 1.356 . S
C186 O237 1.325 1_554 S
C187 N188 1.279 . S
C187 C190 1.358 . S
C187 H244 0.930 . S
N188 C187 1.279 . S
N188 C191 1.314 . S
C189 C186 1.348 . S
C189 C191 1.353 . S
C189 H245 0.929 . S
C190 C186 1.356 . S
C190 C187 1.358 . S
C190 H246 0.930 . S
C191 N188 1.314 . S
C191 C189 1.353 . S
C191 H247 0.930 . S
C192 N193 1.314 . S
C192 C197 1.353 . S
C192 H198 0.930 . S
N193 Li176 1.990 . S
N193 C192 1.314 . S
N193 C195 1.279 . S
C194 C195 1.358 . S
C194 C196 1.356 . S
C194 H248 0.930 . S
C195 N193 1.279 . S
C195 C194 1.358 . S
C195 H199 0.930 . S
C196 C194 1.356 . S
C196 C197 1.348 . S
C197 C192 1.353 . S
C197 C196 1.348 . S
C197 H249 0.929 . S
H198 C192 0.930 . S
H199 C195 0.930 . S
C200 N201 1.314 . S
C200 C202 1.353 . S
C200 H206 0.930 1_554 S
N201 Li177 1.990 1_554 S
N201 C200 1.314 . S
N201 C204 1.279 . S
C202 C200 1.353 . S
C202 C205 1.348 . S
C202 H250 0.929 . S
C203 C204 1.358 . S
C203 C205 1.356 . S
C203 H251 0.930 . S
C204 N201 1.279 . S
C204 C203 1.358 . S
C204 H207 0.930 . S
C205 C202 1.348 . S
C205 C203 1.356 . S
H206 C200 0.930 1_556 S
H207 C204 0.930 . S
C208 C210 1.348 . S
C208 C211 1.356 . S
C208 O238 1.325 . S
N209 C212 1.314 . S
N209 C213 1.279 . S
C210 C208 1.348 . S
C210 C212 1.353 . S
C210 H252 0.929 . S
C211 C208 1.356 . S
C211 C213 1.358 . S
C211 H253 0.930 . S
C212 N209 1.314 . S
C212 C210 1.353 . S
C212 H254 0.930 . S
C213 N209 1.279 . S
C213 C211 1.358 . S
C213 H255 0.930 . S
C214 C215 1.348 . S
C214 C216 1.356 . S
C214 O239 1.325 . S
C215 C214 1.348 . S
C215 C217 1.353 . S
C215 H256 0.929 . S
C216 C214 1.356 . S
C216 C218 1.358 . S
C216 H257 0.930 . S
C217 C215 1.353 . S
C217 N219 1.314 . S
C217 H258 0.930 . S
C218 C216 1.358 . S
C218 N219 1.279 . S
C218 H259 0.930 . S
N219 C217 1.314 . S
N219 C218 1.279 . S
C220 C222 1.353 . S
C220 N223 1.314 . S
C220 H226 0.930 . S
C221 N223 1.279 . S
C221 C224 1.358 . S
C221 H227 0.930 . S
C222 C220 1.353 . S
C222 C225 1.348 . S
C222 H260 0.929 . S
N223 Li178 1.990 . S
N223 C220 1.314 . S
N223 C221 1.279 . S
C224 C221 1.358 . S
C224 C225 1.356 . S
C224 H261 0.930 . S
C225 C222 1.348 . S
C225 C224 1.356 . S
H226 C220 0.930 . S
H227 C221 0.930 . S
C228 N229 1.314 . S
C228 C230 1.353 . S
C228 H234 0.930 . S
N229 Li179 1.990 . S
N229 C228 1.314 . S
N229 C232 1.279 . S
C230 C228 1.353 . S
C230 C233 1.348 . S
C230 H262 0.929 . S
C231 C232 1.358 . S
C231 C233 1.356 . S
C231 H263 0.930 . S
C232 N229 1.279 . S
C232 C231 1.358 . S
C232 H235 0.930 . S
C233 C230 1.348 . S
C233 C231 1.356 . S
H234 C228 0.930 . S
H235 C232 0.930 . S
O236 Li176 1.956 . S
O236 Li177 1.970 . S
O236 Li178 1.961 . S
O236 C180 1.325 . S
O237 Li176 1.970 . S
O237 Li177 1.956 . S
O237 Li179 1.961 . S
O237 C186 1.325 1_556 S
O238 Li176 1.961 . S
O238 Li178 1.956 . S
O238 Li179 1.970 . S
O238 C208 1.325 . S
O239 Li177 1.961 . S
O239 Li178 1.970 . S
O239 Li179 1.956 . S
O239 C214 1.325 . S
H240 C182 0.929 . S
H241 C183 0.930 . S
H242 C184 0.930 . S
H243 C185 0.930 . S
H244 C187 0.930 . S
H245 C189 0.929 . S
H246 C190 0.930 . S
H247 C191 0.930 . S
H248 C194 0.930 . S
H249 C197 0.929 . S
H250 C202 0.929 . S
H251 C203 0.930 . S
H252 C210 0.929 . S
H253 C211 0.930 . S
H254 C212 0.930 . S
H255 C213 0.930 . S
H256 C215 0.929 . S
H257 C216 0.930 . S
H258 C217 0.930 . S
H259 C218 0.930 . S
H260 C222 0.929 . S
H261 C224 0.930 . S
H262 C230 0.929 . S
H263 C231 0.930 . S
Li264 N281 1.990 . S
Li264 O324 1.956 . S
Li264 O325 1.970 . S
Li264 O326 1.961 . S
Li265 N289 1.990 . S
Li265 O324 1.970 . S
Li265 O325 1.956 . S
Li265 O327 1.961 . S
Li266 N311 1.990 . S
Li266 O324 1.961 . S
Li266 O326 1.956 . S
Li266 O327 1.970 . S
Li267 N317 1.990 . S
Li267 O325 1.961 . S
Li267 O326 1.970 . S
Li267 O327 1.956 . S
C268 C270 1.348 . S
C268 C271 1.356 . S
C268 O324 1.325 . S
N269 C272 1.314 . S
N269 C273 1.279 . S
C270 C268 1.348 . S
C270 C272 1.353 . S
C270 H328 0.929 . S
C271 C268 1.356 . S
C271 C273 1.358 . S
C271 H329 0.930 . S
C272 N269 1.314 . S
C272 C270 1.353 . S
C272 H330 0.930 . S
C273 N269 1.279 . S
C273 C271 1.358 . S
C273 H331 0.930 . S
C274 C277 1.348 . S
C274 C278 1.356 . S
C274 O325 1.325 . S
C275 N276 1.279 . S
C275 C278 1.358 . S
C275 H332 0.930 . S
N276 C275 1.279 . S
N276 C279 1.314 . S
C277 C274 1.348 . S
C277 C279 1.353 . S
C277 H333 0.929 . S
C278 C274 1.356 . S
C278 C275 1.358 . S
C278 H334 0.930 . S
C279 N276 1.314 . S
C279 C277 1.353 . S
C279 H335 0.930 . S
C280 N281 1.314 . S
C280 C285 1.353 . S
C280 H286 0.930 . S
N281 Li264 1.990 . S
N281 C280 1.314 . S
N281 C283 1.279 . S
C282 C283 1.358 . S
C282 C284 1.356 . S
C282 H336 0.930 . S
C283 N281 1.279 . S
C283 C282 1.358 . S
C283 H287 0.930 . S
C284 C282 1.356 . S
C284 C285 1.348 . S
C285 C280 1.353 . S
C285 C284 1.348 . S
C285 H337 0.929 . S
H286 C280 0.930 . S
H287 C283 0.930 . S
C288 N289 1.314 . S
C288 C290 1.353 . S
C288 H294 0.930 . S
N289 Li265 1.990 . S
N289 C288 1.314 . S
N289 C292 1.279 . S
C290 C288 1.353 . S
C290 C293 1.348 . S
C290 H338 0.929 . S
C291 C292 1.358 . S
C291 C293 1.356 . S
C291 H339 0.930 . S
C292 N289 1.279 . S
C292 C291 1.358 . S
C292 H295 0.930 . S
C293 C290 1.348 . S
C293 C291 1.356 . S
H294 C288 0.930 . S
H295 C292 0.930 . S
C296 C298 1.348 . S
C296 C299 1.356 . S
C296 O326 1.325 . S
N297 C300 1.314 . S
N297 C301 1.279 . S
C298 C296 1.348 . S
C298 C300 1.353 . S
C298 H340 0.929 . S
C299 C296 1.356 . S
C299 C301 1.358 . S
C299 H341 0.930 . S
C300 N297 1.314 . S
C300 C298 1.353 . S
C300 H342 0.930 . S
C301 N297 1.279 . S
C301 C299 1.358 . S
C301 H343 0.930 . S
C302 C303 1.348 . S
C302 C304 1.356 . S
C302 O327 1.325 . S
C303 C302 1.348 . S
C303 C305 1.353 . S
C303 H344 0.929 . S
C304 C302 1.356 . S
C304 C306 1.358 . S
C304 H345 0.930 . S
C305 C303 1.353 . S
C305 N307 1.314 . S
C305 H346 0.930 . S
C306 C304 1.358 . S
C306 N307 1.279 . S
C306 H347 0.930 . S
N307 C305 1.314 . S
N307 C306 1.279 . S
C308 C310 1.353 . S
C308 N311 1.314 . S
C308 H314 0.930 . S
C309 N311 1.279 . S
C309 C312 1.358 . S
C309 H315 0.930 . S
C310 C308 1.353 . S
C310 C313 1.348 . S
C310 H348 0.929 . S
N311 Li266 1.990 . S
N311 C308 1.314 . S
N311 C309 1.279 . S
C312 C309 1.358 . S
C312 C313 1.356 . S
C312 H349 0.930 . S
C313 C310 1.348 . S
C313 C312 1.356 . S
H314 C308 0.930 . S
H315 C309 0.930 . S
C316 N317 1.314 . S
C316 C318 1.353 . S
C316 H322 0.930 . S
N317 Li267 1.990 . S
N317 C316 1.314 . S
N317 C320 1.279 . S
C318 C316 1.353 . S
C318 C321 1.348 . S
C318 H350 0.929 . S
C319 C320 1.358 . S
C319 C321 1.356 . S
C319 H351 0.930 . S
C320 N317 1.279 . S
C320 C319 1.358 . S
C320 H323 0.930 . S
C321 C318 1.348 . S
C321 C319 1.356 . S
H322 C316 0.930 . S
H323 C320 0.930 . S
O324 Li264 1.956 . S
O324 Li265 1.970 . S
O324 Li266 1.961 . S
O324 C268 1.325 . S
O325 Li264 1.970 . S
O325 Li265 1.956 . S
O325 Li267 1.961 . S
O325 C274 1.325 . S
O326 Li264 1.961 . S
O326 Li266 1.956 . S
O326 Li267 1.970 . S
O326 C296 1.325 . S
O327 Li265 1.961 . S
O327 Li266 1.970 . S
O327 Li267 1.956 . S
O327 C302 1.325 . S
H328 C270 0.929 . S
H329 C271 0.930 . S
H330 C272 0.930 . S
H331 C273 0.930 . S
H332 C275 0.930 . S
H333 C277 0.929 . S
H334 C278 0.930 . S
H335 C279 0.930 . S
H336 C282 0.930 . S
H337 C285 0.929 . S
H338 C290 0.929 . S
H339 C291 0.930 . S
H340 C298 0.929 . S
H341 C299 0.930 . S
H342 C300 0.930 . S
H343 C301 0.930 . S
H344 C303 0.929 . S
H345 C304 0.930 . S
H346 C305 0.930 . S
H347 C306 0.930 . S
H348 C310 0.929 . S
H349 C312 0.930 . S
H350 C318 0.929 . S
H351 C319 0.930 . S
Li352 N369 1.990 . S
Li352 O412 1.956 . S
Li352 O413 1.970 . S
Li352 O414 1.961 . S
Li353 N377 1.990 . S
Li353 O412 1.970 . S
Li353 O413 1.956 . S
Li353 O415 1.961 . S
Li354 N399 1.990 . S
Li354 O412 1.961 . S
Li354 O414 1.956 . S
Li354 O415 1.970 . S
Li355 N405 1.990 . S
Li355 O413 1.961 . S
Li355 O414 1.970 . S
Li355 O415 1.956 . S
C356 C358 1.348 . S
C356 C359 1.356 . S
C356 O412 1.325 . S
N357 C360 1.314 . S
N357 C361 1.279 . S
C358 C356 1.348 . S
C358 C360 1.353 . S
C358 H416 0.929 . S
C359 C356 1.356 . S
C359 C361 1.358 . S
C359 H417 0.930 . S
C360 N357 1.314 . S
C360 C358 1.353 . S
C360 H418 0.930 . S
C361 N357 1.279 . S
C361 C359 1.358 . S
C361 H419 0.930 . S
C362 C365 1.348 . S
C362 C366 1.356 . S
C362 O413 1.325 . S
C363 N364 1.279 . S
C363 C366 1.358 . S
C363 H420 0.930 . S
N364 C363 1.279 . S
N364 C367 1.314 . S
C365 C362 1.348 . S
C365 C367 1.353 . S
C365 H421 0.929 . S
C366 C362 1.356 . S
C366 C363 1.358 . S
C366 H422 0.930 . S
C367 N364 1.314 . S
C367 C365 1.353 . S
C367 H423 0.930 . S
C368 N369 1.314 . S
C368 C373 1.353 . S
C368 H374 0.930 . S
N369 Li352 1.990 . S
N369 C368 1.314 . S
N369 C371 1.279 . S
C370 C371 1.358 . S
C370 C372 1.356 . S
C370 H424 0.930 . S
C371 N369 1.279 . S
C371 C370 1.358 . S
C371 H375 0.930 . S
C372 C370 1.356 . S
C372 C373 1.348 . S
C373 C368 1.353 . S
C373 C372 1.348 . S
C373 H425 0.929 . S
H374 C368 0.930 . S
H375 C371 0.930 . S
C376 N377 1.314 . S
C376 C378 1.353 . S
C376 H382 0.930 . S
N377 Li353 1.990 . S
N377 C376 1.314 . S
N377 C380 1.279 . S
C378 C376 1.353 . S
C378 C381 1.348 . S
C378 H426 0.929 . S
C379 C380 1.358 . S
C379 C381 1.356 . S
C379 H427 0.930 . S
C380 N377 1.279 . S
C380 C379 1.358 . S
C380 H383 0.930 . S
C381 C378 1.348 . S
C381 C379 1.356 . S
H382 C376 0.930 . S
H383 C380 0.930 . S
C384 C386 1.348 . S
C384 C387 1.356 . S
C384 O414 1.325 . S
N385 C388 1.314 . S
N385 C389 1.279 . S
C386 C384 1.348 . S
C386 C388 1.353 . S
C386 H428 0.929 . S
C387 C384 1.356 . S
C387 C389 1.358 . S
C387 H429 0.930 . S
C388 N385 1.314 . S
C388 C386 1.353 . S
C388 H430 0.930 . S
C389 N385 1.279 . S
C389 C387 1.358 . S
C389 H431 0.930 . S
C390 C391 1.348 . S
C390 C392 1.356 . S
C390 O415 1.325 . S
C391 C390 1.348 . S
C391 C393 1.353 . S
C391 H432 0.929 . S
C392 C390 1.356 . S
C392 C394 1.358 . S
C392 H433 0.930 . S
C393 C391 1.353 . S
C393 N395 1.314 . S
C393 H434 0.930 . S
C394 C392 1.358 . S
C394 N395 1.279 . S
C394 H435 0.930 . S
N395 C393 1.314 . S
N395 C394 1.279 . S
C396 C398 1.353 . S
C396 N399 1.314 . S
C396 H402 0.930 . S
C397 N399 1.279 . S
C397 C400 1.358 . S
C397 H403 0.930 . S
C398 C396 1.353 . S
C398 C401 1.348 . S
C398 H436 0.929 . S
N399 Li354 1.990 . S
N399 C396 1.314 . S
N399 C397 1.279 . S
C400 C397 1.358 . S
C400 C401 1.356 . S
C400 H437 0.930 . S
C401 C398 1.348 . S
C401 C400 1.356 . S
H402 C396 0.930 . S
H403 C397 0.930 . S
C404 N405 1.314 . S
C404 C406 1.353 . S
C404 H410 0.930 . S
N405 Li355 1.990 . S
N405 C404 1.314 . S
N405 C408 1.279 . S
C406 C404 1.353 . S
C406 C409 1.348 . S
C406 H438 0.929 . S
C407 C408 1.358 . S
C407 C409 1.356 . S
C407 H439 0.930 . S
C408 N405 1.279 . S
C408 C407 1.358 . S
C408 H411 0.930 . S
C409 C406 1.348 . S
C409 C407 1.356 . S
H410 C404 0.930 . S
H411 C408 0.930 . S
O412 Li352 1.956 . S
O412 Li353 1.970 . S
O412 Li354 1.961 . S
O412 C356 1.325 . S
O413 Li352 1.970 . S
O413 Li353 1.956 . S
O413 Li355 1.961 . S
O413 C362 1.325 . S
O414 Li352 1.961 . S
O414 Li354 1.956 . S
O414 Li355 1.970 . S
O414 C384 1.325 . S
O415 Li353 1.961 . S
O415 Li354 1.970 . S
O415 Li355 1.956 . S
O415 C390 1.325 . S
H416 C358 0.929 . S
H417 C359 0.930 . S
H418 C360 0.930 . S
H419 C361 0.930 . S
H420 C363 0.930 . S
H421 C365 0.929 . S
H422 C366 0.930 . S
H423 C367 0.930 . S
H424 C370 0.930 . S
H425 C373 0.929 . S
H426 C378 0.929 . S
H427 C379 0.930 . S
H428 C386 0.929 . S
H429 C387 0.930 . S
H430 C388 0.930 . S
H431 C389 0.930 . S
H432 C391 0.929 . S
H433 C392 0.930 . S
H434 C393 0.930 . S
H435 C394 0.930 . S
H436 C398 0.929 . S
H437 C400 0.930 . S
H438 C406 0.929 . S
H439 C407 0.930 . S
Li440 N457 1.990 1_556 S
Li440 O500 1.956 . S
Li440 O501 1.970 . S
Li440 O502 1.961 . S
Li441 N465 1.990 . S
Li441 O500 1.970 . S
Li441 O501 1.956 . S
Li441 O503 1.961 . S
Li442 N487 1.990 . S
Li442 O500 1.961 . S
Li442 O502 1.956 . S
Li442 O503 1.970 . S
Li443 N493 1.990 . S
Li443 O501 1.961 . S
Li443 O502 1.970 . S
Li443 O503 1.956 . S
C444 C446 1.348 . S
C444 C447 1.356 . S
C444 O500 1.325 1_554 S
N445 C448 1.314 . S
N445 C449 1.279 . S
C446 C444 1.348 . S
C446 C448 1.353 . S
C446 H504 0.929 . S
C447 C444 1.356 . S
C447 C449 1.358 . S
C447 H505 0.930 . S
C448 N445 1.314 . S
C448 C446 1.353 . S
C448 H506 0.930 . S
C449 N445 1.279 . S
C449 C447 1.358 . S
C449 H507 0.930 . S
C450 C453 1.348 . S
C450 C454 1.356 . S
C450 O501 1.325 . S
C451 N452 1.279 . S
C451 C454 1.358 . S
C451 H508 0.930 . S
N452 C451 1.279 . S
N452 C455 1.314 . S
C453 C450 1.348 . S
C453 C455 1.353 . S
C453 H509 0.929 . S
C454 C450 1.356 . S
C454 C451 1.358 . S
C454 H510 0.930 . S
C455 N452 1.314 . S
C455 C453 1.353 . S
C455 H511 0.930 . S
C456 N457 1.314 . S
C456 C461 1.353 . S
C456 H462 0.930 1_554 S
N457 Li440 1.990 1_554 S
N457 C456 1.314 . S
N457 C459 1.279 . S
C458 C459 1.358 . S
C458 C460 1.356 . S
C458 H512 0.930 . S
C459 N457 1.279 . S
C459 C458 1.358 . S
C459 H463 0.930 . S
C460 C458 1.356 . S
C460 C461 1.348 . S
C461 C456 1.353 . S
C461 C460 1.348 . S
C461 H513 0.929 . S
H462 C456 0.930 1_556 S
H463 C459 0.930 . S
C464 N465 1.314 . S
C464 C466 1.353 . S
C464 H470 0.930 . S
N465 Li441 1.990 . S
N465 C464 1.314 . S
N465 C468 1.279 . S
C466 C464 1.353 . S
C466 C469 1.348 . S
C466 H514 0.929 . S
C467 C468 1.358 . S
C467 C469 1.356 . S
C467 H515 0.930 . S
C468 N465 1.279 . S
C468 C467 1.358 . S
C468 H471 0.930 . S
C469 C466 1.348 . S
C469 C467 1.356 . S
H470 C464 0.930 . S
H471 C468 0.930 . S
C472 C474 1.348 . S
C472 C475 1.356 . S
C472 O502 1.325 . S
N473 C476 1.314 . S
N473 C477 1.279 . S
C474 C472 1.348 . S
C474 C476 1.353 . S
C474 H516 0.929 . S
C475 C472 1.356 . S
C475 C477 1.358 . S
C475 H517 0.930 . S
C476 N473 1.314 . S
C476 C474 1.353 . S
C476 H518 0.930 . S
C477 N473 1.279 . S
C477 C475 1.358 . S
C477 H519 0.930 . S
C478 C479 1.348 . S
C478 C480 1.356 . S
C478 O503 1.325 . S
C479 C478 1.348 . S
C479 C481 1.353 . S
C479 H520 0.929 . S
C480 C478 1.356 . S
C480 C482 1.358 . S
C480 H521 0.930 . S
C481 C479 1.353 . S
C481 N483 1.314 . S
C481 H522 0.930 . S
C482 C480 1.358 . S
C482 N483 1.279 . S
C482 H523 0.930 . S
N483 C481 1.314 . S
N483 C482 1.279 . S
C484 C486 1.353 . S
C484 N487 1.314 . S
C484 H490 0.930 . S
C485 N487 1.279 . S
C485 C488 1.358 . S
C485 H491 0.930 . S
C486 C484 1.353 . S
C486 C489 1.348 . S
C486 H524 0.929 . S
N487 Li442 1.990 . S
N487 C484 1.314 . S
N487 C485 1.279 . S
C488 C485 1.358 . S
C488 C489 1.356 . S
C488 H525 0.930 . S
C489 C486 1.348 . S
C489 C488 1.356 . S
H490 C484 0.930 . S
H491 C485 0.930 . S
C492 N493 1.314 . S
C492 C494 1.353 . S
C492 H498 0.930 . S
N493 Li443 1.990 . S
N493 C492 1.314 . S
N493 C496 1.279 . S
C494 C492 1.353 . S
C494 C497 1.348 . S
C494 H526 0.929 . S
C495 C496 1.358 . S
C495 C497 1.356 . S
C495 H527 0.930 . S
C496 N493 1.279 . S
C496 C495 1.358 . S
C496 H499 0.930 . S
C497 C494 1.348 . S
C497 C495 1.356 . S
H498 C492 0.930 . S
H499 C496 0.930 . S
O500 Li440 1.956 . S
O500 Li441 1.970 . S
O500 Li442 1.961 . S
O500 C444 1.325 1_556 S
O501 Li440 1.970 . S
O501 Li441 1.956 . S
O501 Li443 1.961 . S
O501 C450 1.325 . S
O502 Li440 1.961 . S
O502 Li442 1.956 . S
O502 Li443 1.970 . S
O502 C472 1.325 . S
O503 Li441 1.961 . S
O503 Li442 1.970 . S
O503 Li443 1.956 . S
O503 C478 1.325 . S
H504 C446 0.929 . S
H505 C447 0.930 . S
H506 C448 0.930 . S
H507 C449 0.930 . S
H508 C451 0.930 . S
H509 C453 0.929 . S
H510 C454 0.930 . S
H511 C455 0.930 . S
H512 C458 0.930 . S
H513 C461 0.929 . S
H514 C466 0.929 . S
H515 C467 0.930 . S
H516 C474 0.929 . S
H517 C475 0.930 . S
H518 C476 0.930 . S
H519 C477 0.930 . S
H520 C479 0.929 . S
H521 C480 0.930 . S
H522 C481 0.930 . S
H523 C482 0.930 . S
H524 C486 0.929 . S
H525 C488 0.930 . S
H526 C494 0.929 . S
H527 C495 0.930 . S
Li528 N545 1.990 . S
Li528 O588 1.956 . S
Li528 O589 1.970 . S
Li528 O590 1.961 . S
Li529 N553 1.990 . S
Li529 O588 1.970 . S
Li529 O589 1.956 . S
Li529 O591 1.961 . S
Li530 N575 1.990 . S
Li530 O588 1.961 . S
Li530 O590 1.956 . S
Li530 O591 1.970 . S
Li531 N581 1.990 . S
Li531 O589 1.961 . S
Li531 O590 1.970 . S
Li531 O591 1.956 . S
C532 C534 1.348 . S
C532 C535 1.356 . S
C532 O588 1.325 . S
N533 C536 1.314 . S
N533 C537 1.279 . S
C534 C532 1.348 . S
C534 C536 1.353 . S
C534 H592 0.929 . S
C535 C532 1.356 . S
C535 C537 1.358 . S
C535 H593 0.930 . S
C536 N533 1.314 . S
C536 C534 1.353 . S
C536 H594 0.930 . S
C537 N533 1.279 . S
C537 C535 1.358 . S
C537 H595 0.930 . S
C538 C541 1.348 . S
C538 C542 1.356 . S
C538 O589 1.325 . S
C539 N540 1.279 . S
C539 C542 1.358 . S
C539 H596 0.930 . S
N540 C539 1.279 . S
N540 C543 1.314 . S
C541 C538 1.348 . S
C541 C543 1.353 . S
C541 H597 0.929 . S
C542 C538 1.356 . S
C542 C539 1.358 . S
C542 H598 0.930 . S
C543 N540 1.314 . S
C543 C541 1.353 . S
C543 H599 0.930 . S
C544 N545 1.314 . S
C544 C549 1.353 . S
C544 H550 0.930 . S
N545 Li528 1.990 . S
N545 C544 1.314 . S
N545 C547 1.279 . S
C546 C547 1.358 . S
C546 C548 1.356 . S
C546 H600 0.930 . S
C547 N545 1.279 . S
C547 C546 1.358 . S
C547 H551 0.930 . S
C548 C546 1.356 . S
C548 C549 1.348 . S
C549 C544 1.353 . S
C549 C548 1.348 . S
C549 H601 0.929 . S
H550 C544 0.930 . S
H551 C547 0.930 . S
C552 N553 1.314 . S
C552 C554 1.353 . S
C552 H558 0.930 . S
N553 Li529 1.990 . S
N553 C552 1.314 . S
N553 C556 1.279 . S
C554 C552 1.353 . S
C554 C557 1.348 . S
C554 H602 0.929 . S
C555 C556 1.358 . S
C555 C557 1.356 . S
C555 H603 0.930 . S
C556 N553 1.279 . S
C556 C555 1.358 . S
C556 H559 0.930 . S
C557 C554 1.348 . S
C557 C555 1.356 . S
H558 C552 0.930 . S
H559 C556 0.930 . S
C560 C562 1.348 . S
C560 C563 1.356 . S
C560 O590 1.325 . S
N561 C564 1.314 . S
N561 C565 1.279 . S
C562 C560 1.348 . S
C562 C564 1.353 . S
C562 H604 0.929 . S
C563 C560 1.356 . S
C563 C565 1.358 . S
C563 H605 0.930 . S
C564 N561 1.314 . S
C564 C562 1.353 . S
C564 H606 0.930 . S
C565 N561 1.279 . S
C565 C563 1.358 . S
C565 H607 0.930 . S
C566 C567 1.348 . S
C566 C568 1.356 . S
C566 O591 1.325 . S
C567 C566 1.348 . S
C567 C569 1.353 . S
C567 H608 0.929 . S
C568 C566 1.356 . S
C568 C570 1.358 . S
C568 H609 0.930 . S
C569 C567 1.353 . S
C569 N571 1.314 . S
C569 H610 0.930 . S
C570 C568 1.358 . S
C570 N571 1.279 . S
C570 H611 0.930 . S
N571 C569 1.314 . S
N571 C570 1.279 . S
C572 C574 1.353 . S
C572 N575 1.314 . S
C572 H578 0.930 . S
C573 N575 1.279 . S
C573 C576 1.358 . S
C573 H579 0.930 . S
C574 C572 1.353 . S
C574 C577 1.348 . S
C574 H612 0.929 . S
N575 Li530 1.990 . S
N575 C572 1.314 . S
N575 C573 1.279 . S
C576 C573 1.358 . S
C576 C577 1.356 . S
C576 H613 0.930 . S
C577 C574 1.348 . S
C577 C576 1.356 . S
H578 C572 0.930 . S
H579 C573 0.930 . S
C580 N581 1.314 . S
C580 C582 1.353 . S
C580 H586 0.930 . S
N581 Li531 1.990 . S
N581 C580 1.314 . S
N581 C584 1.279 . S
C582 C580 1.353 . S
C582 C585 1.348 . S
C582 H614 0.929 . S
C583 C584 1.358 . S
C583 C585 1.356 . S
C583 H615 0.930 . S
C584 N581 1.279 . S
C584 C583 1.358 . S
C584 H587 0.930 . S
C585 C582 1.348 . S
C585 C583 1.356 . S
H586 C580 0.930 . S
H587 C584 0.930 . S
O588 Li528 1.956 . S
O588 Li529 1.970 . S
O588 Li530 1.961 . S
O588 C532 1.325 . S
O589 Li528 1.970 . S
O589 Li529 1.956 . S
O589 Li531 1.961 . S
O589 C538 1.325 . S
O590 Li528 1.961 . S
O590 Li530 1.956 . S
O590 Li531 1.970 . S
O590 C560 1.325 . S
O591 Li529 1.961 . S
O591 Li530 1.970 . S
O591 Li531 1.956 . S
O591 C566 1.325 . S
H592 C534 0.929 . S
H593 C535 0.930 . S
H594 C536 0.930 . S
H595 C537 0.930 . S
H596 C539 0.930 . S
H597 C541 0.929 . S
H598 C542 0.930 . S
H599 C543 0.930 . S
H600 C546 0.930 . S
H601 C549 0.929 . S
H602 C554 0.929 . S
H603 C555 0.930 . S
H604 C562 0.929 . S
H605 C563 0.930 . S
H606 C564 0.930 . S
H607 C565 0.930 . S
H608 C567 0.929 . S
H609 C568 0.930 . S
H610 C569 0.930 . S
H611 C570 0.930 . S
H612 C574 0.929 . S
H613 C576 0.930 . S
H614 C582 0.929 . S
H615 C583 0.930 . S
Li616 N633 1.990 . S
Li616 O676 1.956 . S
Li616 O677 1.970 . S
Li616 O678 1.961 . S
Li617 N641 1.990 . S
Li617 O676 1.970 . S
Li617 O677 1.956 . S
Li617 O679 1.961 . S
Li618 N663 1.990 . S
Li618 O676 1.961 . S
Li618 O678 1.956 . S
Li618 O679 1.970 . S
Li619 N669 1.990 . S
Li619 O677 1.961 . S
Li619 O678 1.970 . S
Li619 O679 1.956 . S
C620 C622 1.348 . S
C620 C623 1.356 . S
C620 O676 1.325 . S
N621 C624 1.314 . S
N621 C625 1.279 . S
C622 C620 1.348 . S
C622 C624 1.353 . S
C622 H680 0.929 . S
C623 C620 1.356 . S
C623 C625 1.358 . S
C623 H681 0.930 . S
C624 N621 1.314 . S
C624 C622 1.353 . S
C624 H682 0.930 . S
C625 N621 1.279 . S
C625 C623 1.358 . S
C625 H683 0.930 . S
C626 C629 1.348 . S
C626 C630 1.356 . S
C626 O677 1.325 . S
C627 N628 1.279 . S
C627 C630 1.358 . S
C627 H684 0.930 . S
N628 C627 1.279 . S
N628 C631 1.314 . S
C629 C626 1.348 . S
C629 C631 1.353 . S
C629 H685 0.929 . S
C630 C626 1.356 . S
C630 C627 1.358 . S
C630 H686 0.930 . S
C631 N628 1.314 . S
C631 C629 1.353 . S
C631 H687 0.930 . S
C632 N633 1.314 . S
C632 C637 1.353 . S
C632 H638 0.930 . S
N633 Li616 1.990 . S
N633 C632 1.314 . S
N633 C635 1.279 . S
C634 C635 1.358 . S
C634 C636 1.356 . S
C634 H688 0.930 . S
C635 N633 1.279 . S
C635 C634 1.358 . S
C635 H639 0.930 . S
C636 C634 1.356 . S
C636 C637 1.348 . S
C637 C632 1.353 . S
C637 C636 1.348 . S
C637 H689 0.929 . S
H638 C632 0.930 . S
H639 C635 0.930 . S
C640 N641 1.314 . S
C640 C642 1.353 . S
C640 H646 0.930 . S
N641 Li617 1.990 . S
N641 C640 1.314 . S
N641 C644 1.279 . S
C642 C640 1.353 . S
C642 C645 1.348 . S
C642 H690 0.929 . S
C643 C644 1.358 . S
C643 C645 1.356 . S
C643 H691 0.930 . S
C644 N641 1.279 . S
C644 C643 1.358 . S
C644 H647 0.930 . S
C645 C642 1.348 . S
C645 C643 1.356 . S
H646 C640 0.930 . S
H647 C644 0.930 . S
C648 C650 1.348 . S
C648 C651 1.356 . S
C648 O678 1.325 . S
N649 C652 1.314 . S
N649 C653 1.279 . S
C650 C648 1.348 . S
C650 C652 1.353 . S
C650 H692 0.929 . S
C651 C648 1.356 . S
C651 C653 1.358 . S
C651 H693 0.930 . S
C652 N649 1.314 . S
C652 C650 1.353 . S
C652 H694 0.930 . S
C653 N649 1.279 . S
C653 C651 1.358 . S
C653 H695 0.930 . S
C654 C655 1.348 . S
C654 C656 1.356 . S
C654 O679 1.325 . S
C655 C654 1.348 . S
C655 C657 1.353 . S
C655 H696 0.929 . S
C656 C654 1.356 . S
C656 C658 1.358 . S
C656 H697 0.930 . S
C657 C655 1.353 . S
C657 N659 1.314 . S
C657 H698 0.930 . S
C658 C656 1.358 . S
C658 N659 1.279 . S
C658 H699 0.930 . S
N659 C657 1.314 . S
N659 C658 1.279 . S
C660 C662 1.353 . S
C660 N663 1.314 . S
C660 H666 0.930 . S
C661 N663 1.279 . S
C661 C664 1.358 . S
C661 H667 0.930 . S
C662 C660 1.353 . S
C662 C665 1.348 . S
C662 H700 0.929 . S
N663 Li618 1.990 . S
N663 C660 1.314 . S
N663 C661 1.279 . S
C664 C661 1.358 . S
C664 C665 1.356 . S
C664 H701 0.930 . S
C665 C662 1.348 . S
C665 C664 1.356 . S
H666 C660 0.930 . S
H667 C661 0.930 . S
C668 N669 1.314 . S
C668 C670 1.353 . S
C668 H674 0.930 . S
N669 Li619 1.990 . S
N669 C668 1.314 . S
N669 C672 1.279 . S
C670 C668 1.353 . S
C670 C673 1.348 . S
C670 H702 0.929 . S
C671 C672 1.358 . S
C671 C673 1.356 . S
C671 H703 0.930 . S
C672 N669 1.279 . S
C672 C671 1.358 . S
C672 H675 0.930 . S
C673 C670 1.348 . S
C673 C671 1.356 . S
H674 C668 0.930 . S
H675 C672 0.930 . S
O676 Li616 1.956 . S
O676 Li617 1.970 . S
O676 Li618 1.961 . S
O676 C620 1.325 . S
O677 Li616 1.970 . S
O677 Li617 1.956 . S
O677 Li619 1.961 . S
O677 C626 1.325 . S
O678 Li616 1.961 . S
O678 Li618 1.956 . S
O678 Li619 1.970 . S
O678 C648 1.325 . S
O679 Li617 1.961 . S
O679 Li618 1.970 . S
O679 Li619 1.956 . S
O679 C654 1.325 . S
H680 C622 0.929 . S
H681 C623 0.930 . S
H682 C624 0.930 . S
H683 C625 0.930 . S
H684 C627 0.930 . S
H685 C629 0.929 . S
H686 C630 0.930 . S
H687 C631 0.930 . S
H688 C634 0.930 . S
H689 C637 0.929 . S
H690 C642 0.929 . S
H691 C643 0.930 . S
H692 C650 0.929 . S
H693 C651 0.930 . S
H694 C652 0.930 . S
H695 C653 0.930 . S
H696 C655 0.929 . S
H697 C656 0.930 . S
H698 C657 0.930 . S
H699 C658 0.930 . S
H700 C662 0.929 . S
H701 C664 0.930 . S
H702 C670 0.929 . S
H703 C671 0.930 . S
Li704 N721 1.990 . S
Li704 O764 1.956 . S
Li704 O765 1.970 . S
Li704 O766 1.961 . S
Li705 N729 1.990 . S
Li705 O764 1.970 . S
Li705 O765 1.956 . S
Li705 O767 1.961 . S
Li706 N751 1.990 1_554 S
Li706 O764 1.961 . S
Li706 O766 1.956 . S
Li706 O767 1.970 . S
Li707 N757 1.990 . S
Li707 O765 1.961 . S
Li707 O766 1.970 . S
Li707 O767 1.956 . S
C708 C710 1.348 . S
C708 C711 1.356 . S
C708 O764 1.325 . S
N709 C712 1.314 . S
N709 C713 1.279 . S
C710 C708 1.348 . S
C710 C712 1.353 . S
C710 H768 0.929 . S
C711 C708 1.356 . S
C711 C713 1.358 . S
C711 H769 0.930 . S
C712 N709 1.314 . S
C712 C710 1.353 . S
C712 H770 0.930 . S
C713 N709 1.279 . S
C713 C711 1.358 . S
C713 H771 0.930 . S
C714 C717 1.348 . S
C714 C718 1.356 . S
C714 O765 1.325 . S
C715 N716 1.279 . S
C715 C718 1.358 . S
C715 H772 0.930 . S
N716 C715 1.279 . S
N716 C719 1.314 . S
C717 C714 1.348 . S
C717 C719 1.353 . S
C717 H773 0.929 . S
C718 C714 1.356 . S
C718 C715 1.358 . S
C718 H774 0.930 . S
C719 N716 1.314 . S
C719 C717 1.353 . S
C719 H775 0.930 . S
C720 N721 1.314 . S
C720 C725 1.353 . S
C720 H726 0.930 . S
N721 Li704 1.990 . S
N721 C720 1.314 . S
N721 C723 1.279 . S
C722 C723 1.358 . S
C722 C724 1.356 . S
C722 H776 0.930 . S
C723 N721 1.279 . S
C723 C722 1.358 . S
C723 H727 0.930 . S
C724 C722 1.356 . S
C724 C725 1.348 . S
C725 C720 1.353 . S
C725 C724 1.348 . S
C725 H777 0.929 . S
H726 C720 0.930 . S
H727 C723 0.930 . S
C728 N729 1.314 . S
C728 C730 1.353 . S
C728 H734 0.930 . S
N729 Li705 1.990 . S
N729 C728 1.314 . S
N729 C732 1.279 . S
C730 C728 1.353 . S
C730 C733 1.348 . S
C730 H778 0.929 . S
C731 C732 1.358 . S
C731 C733 1.356 . S
C731 H779 0.930 . S
C732 N729 1.279 . S
C732 C731 1.358 . S
C732 H735 0.930 . S
C733 C730 1.348 . S
C733 C731 1.356 . S
H734 C728 0.930 . S
H735 C732 0.930 . S
C736 C738 1.348 . S
C736 C739 1.356 . S
C736 O766 1.325 1_556 S
N737 C740 1.314 . S
N737 C741 1.279 . S
C738 C736 1.348 . S
C738 C740 1.353 . S
C738 H780 0.929 . S
C739 C736 1.356 . S
C739 C741 1.358 . S
C739 H781 0.930 . S
C740 N737 1.314 . S
C740 C738 1.353 . S
C740 H782 0.930 . S
C741 N737 1.279 . S
C741 C739 1.358 . S
C741 H783 0.930 . S
C742 C743 1.348 . S
C742 C744 1.356 . S
C742 O767 1.325 . S
C743 C742 1.348 . S
C743 C745 1.353 . S
C743 H784 0.929 . S
C744 C742 1.356 . S
C744 C746 1.358 . S
C744 H785 0.930 . S
C745 C743 1.353 . S
C745 N747 1.314 . S
C745 H786 0.930 . S
C746 C744 1.358 . S
C746 N747 1.279 . S
C746 H787 0.930 . S
N747 C745 1.314 . S
N747 C746 1.279 . S
C748 C750 1.353 . S
C748 N751 1.314 . S
C748 H754 0.930 1_556 S
C749 N751 1.279 . S
C749 C752 1.358 . S
C749 H755 0.930 . S
C750 C748 1.353 . S
C750 C753 1.348 . S
C750 H788 0.929 . S
N751 Li706 1.990 1_556 S
N751 C748 1.314 . S
N751 C749 1.279 . S
C752 C749 1.358 . S
C752 C753 1.356 . S
C752 H789 0.930 . S
C753 C750 1.348 . S
C753 C752 1.356 . S
H754 C748 0.930 1_554 S
H755 C749 0.930 . S
C756 N757 1.314 . S
C756 C758 1.353 . S
C756 H762 0.930 . S
N757 Li707 1.990 . S
N757 C756 1.314 . S
N757 C760 1.279 . S
C758 C756 1.353 . S
C758 C761 1.348 . S
C758 H790 0.929 . S
C759 C760 1.358 . S
C759 C761 1.356 . S
C759 H791 0.930 . S
C760 N757 1.279 . S
C760 C759 1.358 . S
C760 H763 0.930 . S
C761 C758 1.348 . S
C761 C759 1.356 . S
H762 C756 0.930 . S
H763 C760 0.930 . S
O764 Li704 1.956 . S
O764 Li705 1.970 . S
O764 Li706 1.961 . S
O764 C708 1.325 . S
O765 Li704 1.970 . S
O765 Li705 1.956 . S
O765 Li707 1.961 . S
O765 C714 1.325 . S
O766 Li704 1.961 . S
O766 Li706 1.956 . S
O766 Li707 1.970 . S
O766 C736 1.325 1_554 S
O767 Li705 1.961 . S
O767 Li706 1.970 . S
O767 Li707 1.956 . S
O767 C742 1.325 . S
H768 C710 0.929 . S
H769 C711 0.930 . S
H770 C712 0.930 . S
H771 C713 0.930 . S
H772 C715 0.930 . S
H773 C717 0.929 . S
H774 C718 0.930 . S
H775 C719 0.930 . S
H776 C722 0.930 . S
H777 C725 0.929 . S
H778 C730 0.929 . S
H779 C731 0.930 . S
H780 C738 0.929 . S
H781 C739 0.930 . S
H782 C740 0.930 . S
H783 C741 0.930 . S
H784 C743 0.929 . S
H785 C744 0.930 . S
H786 C745 0.930 . S
H787 C746 0.930 . S
H788 C750 0.929 . S
H789 C752 0.930 . S
H790 C758 0.929 . S
H791 C759 0.930 . S
Li792 N809 1.990 . S
Li792 O852 1.956 . S
Li792 O853 1.970 . S
Li792 O854 1.961 . S
Li793 N817 1.990 . S
Li793 O852 1.970 . S
Li793 O853 1.956 . S
Li793 O855 1.961 . S
Li794 N839 1.990 . S
Li794 O852 1.961 . S
Li794 O854 1.956 . S
Li794 O855 1.970 . S
Li795 N845 1.990 . S
Li795 O853 1.961 . S
Li795 O854 1.970 . S
Li795 O855 1.956 . S
C796 C798 1.348 . S
C796 C799 1.356 . S
C796 O852 1.325 . S
N797 C800 1.314 . S
N797 C801 1.279 . S
C798 C796 1.348 . S
C798 C800 1.353 . S
C798 H856 0.929 . S
C799 C796 1.356 . S
C799 C801 1.358 . S
C799 H857 0.930 . S
C800 N797 1.314 . S
C800 C798 1.353 . S
C800 H858 0.930 . S
C801 N797 1.279 . S
C801 C799 1.358 . S
C801 H859 0.930 . S
C802 C805 1.348 . S
C802 C806 1.356 . S
C802 O853 1.325 . S
C803 N804 1.279 . S
C803 C806 1.358 . S
C803 H860 0.930 . S
N804 C803 1.279 . S
N804 C807 1.314 . S
C805 C802 1.348 . S
C805 C807 1.353 . S
C805 H861 0.929 . S
C806 C802 1.356 . S
C806 C803 1.358 . S
C806 H862 0.930 . S
C807 N804 1.314 . S
C807 C805 1.353 . S
C807 H863 0.930 . S
C808 N809 1.314 . S
C808 C813 1.353 . S
C808 H814 0.930 . S
N809 Li792 1.990 . S
N809 C808 1.314 . S
N809 C811 1.279 . S
C810 C811 1.358 . S
C810 C812 1.356 . S
C810 H864 0.930 . S
C811 N809 1.279 . S
C811 C810 1.358 . S
C811 H815 0.930 . S
C812 C810 1.356 . S
C812 C813 1.348 . S
C813 C808 1.353 . S
C813 C812 1.348 . S
C813 H865 0.929 . S
H814 C808 0.930 . S
H815 C811 0.930 . S
C816 N817 1.314 . S
C816 C818 1.353 . S
C816 H822 0.930 . S
N817 Li793 1.990 . S
N817 C816 1.314 . S
N817 C820 1.279 . S
C818 C816 1.353 . S
C818 C821 1.348 . S
C818 H866 0.929 . S
C819 C820 1.358 . S
C819 C821 1.356 . S
C819 H867 0.930 . S
C820 N817 1.279 . S
C820 C819 1.358 . S
C820 H823 0.930 . S
C821 C818 1.348 . S
C821 C819 1.356 . S
H822 C816 0.930 . S
H823 C820 0.930 . S
C824 C826 1.348 . S
C824 C827 1.356 . S
C824 O854 1.325 . S
N825 C828 1.314 . S
N825 C829 1.279 . S
C826 C824 1.348 . S
C826 C828 1.353 . S
C826 H868 0.929 . S
C827 C824 1.356 . S
C827 C829 1.358 . S
C827 H869 0.930 . S
C828 N825 1.314 . S
C828 C826 1.353 . S
C828 H870 0.930 . S
C829 N825 1.279 . S
C829 C827 1.358 . S
C829 H871 0.930 . S
C830 C831 1.348 . S
C830 C832 1.356 . S
C830 O855 1.325 . S
C831 C830 1.348 . S
C831 C833 1.353 . S
C831 H872 0.929 . S
C832 C830 1.356 . S
C832 C834 1.358 . S
C832 H873 0.930 . S
C833 C831 1.353 . S
C833 N835 1.314 . S
C833 H874 0.930 . S
C834 C832 1.358 . S
C834 N835 1.279 . S
C834 H875 0.930 . S
N835 C833 1.314 . S
N835 C834 1.279 . S
C836 C838 1.353 . S
C836 N839 1.314 . S
C836 H842 0.930 . S
C837 N839 1.279 . S
C837 C840 1.358 . S
C837 H843 0.930 . S
C838 C836 1.353 . S
C838 C841 1.348 . S
C838 H876 0.929 . S
N839 Li794 1.990 . S
N839 C836 1.314 . S
N839 C837 1.279 . S
C840 C837 1.358 . S
C840 C841 1.356 . S
C840 H877 0.930 . S
C841 C838 1.348 . S
C841 C840 1.356 . S
H842 C836 0.930 . S
H843 C837 0.930 . S
C844 N845 1.314 . S
C844 C846 1.353 . S
C844 H850 0.930 . S
N845 Li795 1.990 . S
N845 C844 1.314 . S
N845 C848 1.279 . S
C846 C844 1.353 . S
C846 C849 1.348 . S
C846 H878 0.929 . S
C847 C848 1.358 . S
C847 C849 1.356 . S
C847 H879 0.930 . S
C848 N845 1.279 . S
C848 C847 1.358 . S
C848 H851 0.930 . S
C849 C846 1.348 . S
C849 C847 1.356 . S
H850 C844 0.930 . S
H851 C848 0.930 . S
O852 Li792 1.956 . S
O852 Li793 1.970 . S
O852 Li794 1.961 . S
O852 C796 1.325 . S
O853 Li792 1.970 . S
O853 Li793 1.956 . S
O853 Li795 1.961 . S
O853 C802 1.325 . S
O854 Li792 1.961 . S
O854 Li794 1.956 . S
O854 Li795 1.970 . S
O854 C824 1.325 . S
O855 Li793 1.961 . S
O855 Li794 1.970 . S
O855 Li795 1.956 . S
O855 C830 1.325 . S
H856 C798 0.929 . S
H857 C799 0.930 . S
H858 C800 0.930 . S
H859 C801 0.930 . S
H860 C803 0.930 . S
H861 C805 0.929 . S
H862 C806 0.930 . S
H863 C807 0.930 . S
H864 C810 0.930 . S
H865 C813 0.929 . S
H866 C818 0.929 . S
H867 C819 0.930 . S
H868 C826 0.929 . S
H869 C827 0.930 . S
H870 C828 0.930 . S
H871 C829 0.930 . S
H872 C831 0.929 . S
H873 C832 0.930 . S
H874 C833 0.930 . S
H875 C834 0.930 . S
H876 C838 0.929 . S
H877 C840 0.930 . S
H878 C846 0.929 . S
H879 C847 0.930 . S
Li880 N897 1.990 . S
Li880 O940 1.956 . S
Li880 O941 1.970 . S
Li880 O942 1.961 . S
Li881 N905 1.990 . S
Li881 O940 1.970 . S
Li881 O941 1.956 . S
Li881 O943 1.961 . S
Li882 N927 1.990 . S
Li882 O940 1.961 . S
Li882 O942 1.956 . S
Li882 O943 1.970 . S
Li883 N933 1.990 . S
Li883 O941 1.961 . S
Li883 O942 1.970 . S
Li883 O943 1.956 . S
C884 C886 1.348 . S
C884 C887 1.356 . S
C884 O940 1.325 . S
N885 C888 1.314 . S
N885 C889 1.279 . S
C886 C884 1.348 . S
C886 C888 1.353 . S
C886 H944 0.929 . S
C887 C884 1.356 . S
C887 C889 1.358 . S
C887 H945 0.930 . S
C888 N885 1.314 . S
C888 C886 1.353 . S
C888 H946 0.930 . S
C889 N885 1.279 . S
C889 C887 1.358 . S
C889 H947 0.930 . S
C890 C893 1.348 . S
C890 C894 1.356 . S
C890 O941 1.325 . S
C891 N892 1.279 . S
C891 C894 1.358 . S
C891 H948 0.930 . S
N892 C891 1.279 . S
N892 C895 1.314 . S
C893 C890 1.348 . S
C893 C895 1.353 . S
C893 H949 0.929 . S
C894 C890 1.356 . S
C894 C891 1.358 . S
C894 H950 0.930 . S
C895 N892 1.314 . S
C895 C893 1.353 . S
C895 H951 0.930 . S
C896 N897 1.314 . S
C896 C901 1.353 . S
C896 H902 0.930 . S
N897 Li880 1.990 . S
N897 C896 1.314 . S
N897 C899 1.279 . S
C898 C899 1.358 . S
C898 C900 1.356 . S
C898 H952 0.930 . S
C899 N897 1.279 . S
C899 C898 1.358 . S
C899 H903 0.930 . S
C900 C898 1.356 . S
C900 C901 1.348 . S
C901 C896 1.353 . S
C901 C900 1.348 . S
C901 H953 0.929 . S
H902 C896 0.930 . S
H903 C899 0.930 . S
C904 N905 1.314 . S
C904 C906 1.353 . S
C904 H910 0.930 . S
N905 Li881 1.990 . S
N905 C904 1.314 . S
N905 C908 1.279 . S
C906 C904 1.353 . S
C906 C909 1.348 . S
C906 H954 0.929 . S
C907 C908 1.358 . S
C907 C909 1.356 . S
C907 H955 0.930 . S
C908 N905 1.279 . S
C908 C907 1.358 . S
C908 H911 0.930 . S
C909 C906 1.348 . S
C909 C907 1.356 . S
H910 C904 0.930 . S
H911 C908 0.930 . S
C912 C914 1.348 . S
C912 C915 1.356 . S
C912 O942 1.325 . S
N913 C916 1.314 . S
N913 C917 1.279 . S
C914 C912 1.348 . S
C914 C916 1.353 . S
C914 H956 0.929 . S
C915 C912 1.356 . S
C915 C917 1.358 . S
C915 H957 0.930 . S
C916 N913 1.314 . S
C916 C914 1.353 . S
C916 H958 0.930 . S
C917 N913 1.279 . S
C917 C915 1.358 . S
C917 H959 0.930 . S
C918 C919 1.348 . S
C918 C920 1.356 . S
C918 O943 1.325 . S
C919 C918 1.348 . S
C919 C921 1.353 . S
C919 H960 0.929 . S
C920 C918 1.356 . S
C920 C922 1.358 . S
C920 H961 0.930 . S
C921 C919 1.353 . S
C921 N923 1.314 . S
C921 H962 0.930 . S
C922 C920 1.358 . S
C922 N923 1.279 . S
C922 H963 0.930 . S
N923 C921 1.314 . S
N923 C922 1.279 . S
C924 C926 1.353 . S
C924 N927 1.314 . S
C924 H930 0.930 . S
C925 N927 1.279 . S
C925 C928 1.358 . S
C925 H931 0.930 . S
C926 C924 1.353 . S
C926 C929 1.348 . S
C926 H964 0.929 . S
N927 Li882 1.990 . S
N927 C924 1.314 . S
N927 C925 1.279 . S
C928 C925 1.358 . S
C928 C929 1.356 . S
C928 H965 0.930 . S
C929 C926 1.348 . S
C929 C928 1.356 . S
H930 C924 0.930 . S
H931 C925 0.930 . S
C932 N933 1.314 . S
C932 C934 1.353 . S
C932 H938 0.930 . S
N933 Li883 1.990 . S
N933 C932 1.314 . S
N933 C936 1.279 . S
C934 C932 1.353 . S
C934 C937 1.348 . S
C934 H966 0.929 . S
C935 C936 1.358 . S
C935 C937 1.356 . S
C935 H967 0.930 . S
C936 N933 1.279 . S
C936 C935 1.358 . S
C936 H939 0.930 . S
C937 C934 1.348 . S
C937 C935 1.356 . S
H938 C932 0.930 . S
H939 C936 0.930 . S
O940 Li880 1.956 . S
O940 Li881 1.970 . S
O940 Li882 1.961 . S
O940 C884 1.325 . S
O941 Li880 1.970 . S
O941 Li881 1.956 . S
O941 Li883 1.961 . S
O941 C890 1.325 . S
O942 Li880 1.961 . S
O942 Li882 1.956 . S
O942 Li883 1.970 . S
O942 C912 1.325 . S
O943 Li881 1.961 . S
O943 Li882 1.970 . S
O943 Li883 1.956 . S
O943 C918 1.325 . S
H944 C886 0.929 . S
H945 C887 0.930 . S
H946 C888 0.930 . S
H947 C889 0.930 . S
H948 C891 0.930 . S
H949 C893 0.929 . S
H950 C894 0.930 . S
H951 C895 0.930 . S
H952 C898 0.930 . S
H953 C901 0.929 . S
H954 C906 0.929 . S
H955 C907 0.930 . S
H956 C914 0.929 . S
H957 C915 0.930 . S
H958 C916 0.930 . S
H959 C917 0.930 . S
H960 C919 0.929 . S
H961 C920 0.930 . S
H962 C921 0.930 . S
H963 C922 0.930 . S
H964 C926 0.929 . S
H965 C928 0.930 . S
H966 C934 0.929 . S
H967 C935 0.930 . S
Li968 N985 1.990 . S
Li968 O1028 1.956 . S
Li968 O1029 1.970 . S
Li968 O1030 1.961 . S
Li969 N993 1.990 . S
Li969 O1028 1.970 . S
Li969 O1029 1.956 . S
Li969 O1031 1.961 . S
Li970 N1015 1.990 . S
Li970 O1028 1.961 . S
Li970 O1030 1.956 . S
Li970 O1031 1.970 . S
Li971 N1021 1.990 1_554 S
Li971 O1029 1.961 . S
Li971 O1030 1.970 . S
Li971 O1031 1.956 . S
C972 C974 1.348 . S
C972 C975 1.356 . S
C972 O1028 1.325 . S
N973 C976 1.314 . S
N973 C977 1.279 . S
C974 C972 1.348 . S
C974 C976 1.353 . S
C974 H1032 0.929 . S
C975 C972 1.356 . S
C975 C977 1.358 . S
C975 H1033 0.930 . S
C976 N973 1.314 . S
C976 C974 1.353 . S
C976 H1034 0.930 . S
C977 N973 1.279 . S
C977 C975 1.358 . S
C977 H1035 0.930 . S
C978 C981 1.348 . S
C978 C982 1.356 . S
C978 O1029 1.325 . S
C979 N980 1.279 . S
C979 C982 1.358 . S
C979 H1036 0.930 . S
N980 C979 1.279 . S
N980 C983 1.314 . S
C981 C978 1.348 . S
C981 C983 1.353 . S
C981 H1037 0.929 . S
C982 C978 1.356 . S
C982 C979 1.358 . S
C982 H1038 0.930 . S
C983 N980 1.314 . S
C983 C981 1.353 . S
C983 H1039 0.930 . S
C984 N985 1.314 . S
C984 C989 1.353 . S
C984 H990 0.930 . S
N985 Li968 1.990 . S
N985 C984 1.314 . S
N985 C987 1.279 . S
C986 C987 1.358 . S
C986 C988 1.356 . S
C986 H1040 0.930 . S
C987 N985 1.279 . S
C987 C986 1.358 . S
C987 H991 0.930 . S
C988 C986 1.356 . S
C988 C989 1.348 . S
C989 C984 1.353 . S
C989 C988 1.348 . S
C989 H1041 0.929 . S
H990 C984 0.930 . S
H991 C987 0.930 . S
C992 N993 1.314 . S
C992 C994 1.353 . S
C992 H998 0.930 . S
N993 Li969 1.990 . S
N993 C992 1.314 . S
N993 C996 1.279 . S
C994 C992 1.353 . S
C994 C997 1.348 . S
C994 H1042 0.929 . S
C995 C996 1.358 . S
C995 C997 1.356 . S
C995 H1043 0.930 . S
C996 N993 1.279 . S
C996 C995 1.358 . S
C996 H999 0.930 . S
C997 C994 1.348 . S
C997 C995 1.356 . S
H998 C992 0.930 . S
H999 C996 0.930 . S
C1000 C1002 1.348 . S
C1000 C1003 1.356 . S
C1000 O1030 1.325 . S
N1001 C1004 1.314 . S
N1001 C1005 1.279 . S
C1002 C1000 1.348 . S
C1002 C1004 1.353 . S
C1002 H1044 0.929 . S
C1003 C1000 1.356 . S
C1003 C1005 1.358 . S
C1003 H1045 0.930 . S
C1004 N1001 1.314 . S
C1004 C1002 1.353 . S
C1004 H1046 0.930 . S
C1005 N1001 1.279 . S
C1005 C1003 1.358 . S
C1005 H1047 0.930 . S
C1006 C1007 1.348 . S
C1006 C1008 1.356 . S
C1006 O1031 1.325 1_556 S
C1007 C1006 1.348 . S
C1007 C1009 1.353 . S
C1007 H1048 0.929 . S
C1008 C1006 1.356 . S
C1008 C1010 1.358 . S
C1008 H1049 0.930 . S
C1009 C1007 1.353 . S
C1009 N1011 1.314 . S
C1009 H1050 0.930 . S
C1010 C1008 1.358 . S
C1010 N1011 1.279 . S
C1010 H1051 0.930 . S
N1011 C1009 1.314 . S
N1011 C1010 1.279 . S
C1012 C1014 1.353 . S
C1012 N1015 1.314 . S
C1012 H1018 0.930 . S
C1013 N1015 1.279 . S
C1013 C1016 1.358 . S
C1013 H1019 0.930 . S
C1014 C1012 1.353 . S
C1014 C1017 1.348 . S
C1014 H1052 0.929 . S
N1015 Li970 1.990 . S
N1015 C1012 1.314 . S
N1015 C1013 1.279 . S
C1016 C1013 1.358 . S
C1016 C1017 1.356 . S
C1016 H1053 0.930 . S
C1017 C1014 1.348 . S
C1017 C1016 1.356 . S
H1018 C1012 0.930 . S
H1019 C1013 0.930 . S
C1020 N1021 1.314 . S
C1020 C1022 1.353 . S
C1020 H1026 0.930 1_556 S
N1021 Li971 1.990 1_556 S
N1021 C1020 1.314 . S
N1021 C1024 1.279 . S
C1022 C1020 1.353 . S
C1022 C1025 1.348 . S
C1022 H1054 0.929 . S
C1023 C1024 1.358 . S
C1023 C1025 1.356 . S
C1023 H1055 0.930 . S
C1024 N1021 1.279 . S
C1024 C1023 1.358 . S
C1024 H1027 0.930 . S
C1025 C1022 1.348 . S
C1025 C1023 1.356 . S
H1026 C1020 0.930 1_554 S
H1027 C1024 0.930 . S
O1028 Li968 1.956 . S
O1028 Li969 1.970 . S
O1028 Li970 1.961 . S
O1028 C972 1.325 . S
O1029 Li968 1.970 . S
O1029 Li969 1.956 . S
O1029 Li971 1.961 . S
O1029 C978 1.325 . S
O1030 Li968 1.961 . S
O1030 Li970 1.956 . S
O1030 Li971 1.970 . S
O1030 C1000 1.325 . S
O1031 Li969 1.961 . S
O1031 Li970 1.970 . S
O1031 Li971 1.956 . S
O1031 C1006 1.325 1_554 S
H1032 C974 0.929 . S
H1033 C975 0.930 . S
H1034 C976 0.930 . S
H1035 C977 0.930 . S
H1036 C979 0.930 . S
H1037 C981 0.929 . S
H1038 C982 0.930 . S
H1039 C983 0.930 . S
H1040 C986 0.930 . S
H1041 C989 0.929 . S
H1042 C994 0.929 . S
H1043 C995 0.930 . S
H1044 C1002 0.929 . S
H1045 C1003 0.930 . S
H1046 C1004 0.930 . S
H1047 C1005 0.930 . S
H1048 C1007 0.929 . S
H1049 C1008 0.930 . S
H1050 C1009 0.930 . S
H1051 C1010 0.930 . S
H1052 C1014 0.929 . S
H1053 C1016 0.930 . S
H1054 C1022 0.929 . S
H1055 C1023 0.930 . S
H1056 C1074 0.951 . S
H1057 C1076 0.951 . S
H1058 C1078 0.950 . S
H1059 C1079 0.950 . S
H1060 C1081 0.950 . S
H1061 C1084 0.950 . S
H1062 C1085 0.950 . S
H1063 C1087 0.950 . S
H1064 C1088 0.950 . S
H1065 C1089 0.951 . S
H1066 C1091 0.951 . S
H1067 C1093 0.950 . S
H1068 C1094 0.950 . S
H1069 C1096 0.950 . S
H1070 C1099 0.950 . S
H1071 C1100 0.950 . S
H1072 C1102 0.950 . S
H1073 C1103 0.950 . S
C1074 H1056 0.951 . S
C1074 C1075 1.366 . S
C1074 C1076 1.388 . S
C1075 C1074 1.366 . S
C1075 C1079 1.385 . S
C1076 H1057 0.951 . S
C1076 C1074 1.388 . S
C1076 C1077 1.366 . S
C1077 C1076 1.366 . S
C1077 C1078 1.414 . S
C1077 C1080 1.499 . S
C1078 H1058 0.950 . S
C1078 C1077 1.414 . S
C1078 C1079 1.374 . S
C1079 H1059 0.950 . S
C1079 C1075 1.385 . S
C1079 C1078 1.374 . S
C1080 C1077 1.499 . S
C1080 C1081 1.373 . S
C1080 C1082 1.389 . S
C1081 H1060 0.950 . S
C1081 C1080 1.373 . S
C1081 C1097 1.377 . S
C1082 C1080 1.389 . S
C1082 C1083 1.524 . S
C1082 C1096 1.377 . S
C1083 C1082 1.524 . S
C1083 C1084 1.397 . S
C1083 C1088 1.363 . S
C1084 H1061 0.950 . S
C1084 C1083 1.397 . S
C1084 C1085 1.334 . S
C1085 H1062 0.950 . S
C1085 C1084 1.334 . S
C1085 C1086 1.287 . S
C1086 C1085 1.287 . S
C1086 C1087 1.524 . S
C1086 H1105 0.913 . S
C1087 H1063 0.950 . S
C1087 C1086 1.524 . S
C1087 C1088 1.415 . S
C1088 H1064 0.950 . S
C1088 C1083 1.363 . S
C1088 C1087 1.415 . S
C1089 H1065 0.951 . S
C1089 C1090 1.366 . S
C1089 C1091 1.388 . S
C1090 C1089 1.366 . S
C1090 C1094 1.385 . S
C1091 H1066 0.951 . S
C1091 C1089 1.388 . S
C1091 C1092 1.366 . S
C1092 C1091 1.366 . S
C1092 C1093 1.414 . S
C1092 C1095 1.499 . S
C1093 H1067 0.950 . S
C1093 C1092 1.414 . S
C1093 C1094 1.374 . S
C1094 H1068 0.950 . S
C1094 C1090 1.385 . S
C1094 C1093 1.374 . S
C1095 C1092 1.499 . S
C1095 C1096 1.373 . S
C1095 C1097 1.389 . S
C1096 H1069 0.950 . S
C1096 C1082 1.377 . S
C1096 C1095 1.373 . S
C1097 C1081 1.377 . S
C1097 C1095 1.389 . S
C1097 C1098 1.524 . S
C1098 C1097 1.524 . S
C1098 C1099 1.397 . S
C1098 C1103 1.363 . S
C1099 H1070 0.950 . S
C1099 C1098 1.397 . S
C1099 C1100 1.334 . S
C1100 H1071 0.950 . S
C1100 C1099 1.334 . S
C1100 C1101 1.287 . S
C1101 C1100 1.287 . S
C1101 C1102 1.524 . S
C1101 H1104 0.999 . S
C1102 H1072 0.950 . S
C1102 C1101 1.524 . S
C1102 C1103 1.415 . S
C1103 H1073 0.950 . S
C1103 C1098 1.363 . S
C1103 C1102 1.415 . S
H1104 C1101 0.999 . S
H1105 C1086 0.913 . S
H1106 C1124 0.951 . S
H1107 C1126 0.951 . S
H1108 C1128 0.950 . S
H1109 C1129 0.950 . S
H1110 C1131 0.950 . S
H1111 C1134 0.950 . S
H1112 C1135 0.950 . S
H1113 C1137 0.950 . S
H1114 C1138 0.950 . S
H1115 C1139 0.951 . S
H1116 C1141 0.951 . S
H1117 C1143 0.950 . S
H1118 C1144 0.950 . S
H1119 C1146 0.950 . S
H1120 C1149 0.950 . S
H1121 C1150 0.950 . S
H1122 C1152 0.950 . S
H1123 C1153 0.950 . S
C1124 H1106 0.951 . S
C1124 C1125 1.366 . S
C1124 C1126 1.388 . S
C1125 C1124 1.366 . S
C1125 C1129 1.385 . S
C1126 H1107 0.951 . S
C1126 C1124 1.388 . S
C1126 C1127 1.366 . S
C1127 C1126 1.366 . S
C1127 C1128 1.414 . S
C1127 C1130 1.499 . S
C1128 H1108 0.950 . S
C1128 C1127 1.414 . S
C1128 C1129 1.374 . S
C1129 H1109 0.950 . S
C1129 C1125 1.385 . S
C1129 C1128 1.374 . S
C1130 C1127 1.499 . S
C1130 C1131 1.373 . S
C1130 C1132 1.389 . S
C1131 H1110 0.950 . S
C1131 C1130 1.373 . S
C1131 C1147 1.377 1_655 S
C1132 C1130 1.389 . S
C1132 C1133 1.524 . S
C1132 C1146 1.377 1_655 S
C1133 C1132 1.524 . S
C1133 C1134 1.397 . S
C1133 C1138 1.363 . S
C1134 H1111 0.950 . S
C1134 C1133 1.397 . S
C1134 C1135 1.334 . S
C1135 H1112 0.950 . S
C1135 C1134 1.334 . S
C1135 C1136 1.287 . S
C1136 C1135 1.287 . S
C1136 C1137 1.524 . S
C1136 H1155 0.913 . S
C1137 H1113 0.950 . S
C1137 C1136 1.524 . S
C1137 C1138 1.415 . S
C1138 H1114 0.950 . S
C1138 C1133 1.363 . S
C1138 C1137 1.415 . S
C1139 H1115 0.951 . S
C1139 C1140 1.366 . S
C1139 C1141 1.388 . S
C1140 C1139 1.366 . S
C1140 C1144 1.385 . S
C1141 H1116 0.951 . S
C1141 C1139 1.388 . S
C1141 C1142 1.366 . S
C1142 C1141 1.366 . S
C1142 C1143 1.414 . S
C1142 C1145 1.499 . S
C1143 H1117 0.950 . S
C1143 C1142 1.414 . S
C1143 C1144 1.374 . S
C1144 H1118 0.950 . S
C1144 C1140 1.385 . S
C1144 C1143 1.374 . S
C1145 C1142 1.499 . S
C1145 C1146 1.373 . S
C1145 C1147 1.389 . S
C1146 H1119 0.950 . S
C1146 C1132 1.377 1_455 S
C1146 C1145 1.373 . S
C1147 C1131 1.377 1_455 S
C1147 C1145 1.389 . S
C1147 C1148 1.524 . S
C1148 C1147 1.524 . S
C1148 C1149 1.397 . S
C1148 C1153 1.363 . S
C1149 H1120 0.950 . S
C1149 C1148 1.397 . S
C1149 C1150 1.334 . S
C1150 H1121 0.950 . S
C1150 C1149 1.334 . S
C1150 C1151 1.287 . S
C1151 C1150 1.287 . S
C1151 C1152 1.524 . S
C1151 H1154 0.999 . S
C1152 H1122 0.950 . S
C1152 C1151 1.524 . S
C1152 C1153 1.415 . S
C1153 H1123 0.950 . S
C1153 C1148 1.363 . S
C1153 C1152 1.415 . S
H1154 C1151 0.999 . S
H1155 C1136 0.913 . S
H1156 C1174 0.951 . S
H1157 C1176 0.951 . S
H1158 C1178 0.950 . S
H1159 C1179 0.950 1_554 S
H1160 C1181 0.950 . S
H1161 C1184 0.950 . S
H1162 C1185 0.950 . S
H1163 C1187 0.950 1_545 S
H1164 C1188 0.982 . S
H1165 C1189 0.951 . S
H1166 C1191 0.951 . S
H1167 C1193 0.950 . S
H1168 C1194 0.950 1_556 S
H1169 C1196 0.950 . S
H1170 C1199 0.950 . S
H1171 C1200 0.950 . S
H1172 C1202 0.950 1_565 S
H1173 C1203 0.980 . S
C1174 H1156 0.951 . S
C1174 C1175 1.366 . S
C1174 C1176 1.388 . S
C1175 C1174 1.366 . S
C1175 C1179 1.385 . S
C1176 H1157 0.951 . S
C1176 C1174 1.388 . S
C1176 C1177 1.366 . S
C1177 C1176 1.366 . S
C1177 C1178 1.414 1_556 S
C1177 C1180 1.499 . S
C1178 H1158 0.950 . S
C1178 C1177 1.414 1_554 S
C1178 C1179 1.374 1_554 S
C1179 H1159 0.950 1_556 S
C1179 C1175 1.385 . S
C1179 C1178 1.374 1_556 S
C1180 C1177 1.499 . S
C1180 C1181 1.373 1_556 S
C1180 C1182 1.389 . S
C1181 H1160 0.950 . S
C1181 C1180 1.373 1_554 S
C1181 C1197 1.377 1_565 S
C1182 C1180 1.389 . S
C1182 C1183 1.524 . S
C1182 C1196 1.377 1_565 S
C1183 C1182 1.524 . S
C1183 C1184 1.397 . S
C1183 C1188 1.344 1_565 S
C1184 H1161 0.950 . S
C1184 C1183 1.397 . S
C1184 C1185 1.334 . S
C1185 H1162 0.950 . S
C1185 C1184 1.334 . S
C1185 C1186 1.287 . S
C1186 C1185 1.287 . S
C1186 C1187 1.524 . S
C1186 H1205 0.913 . S
C1187 H1163 0.950 1_565 S
C1187 C1186 1.524 . S
C1187 C1188 1.403 1_565 S
C1188 H1164 0.982 . S
C1188 C1183 1.344 1_545 S
C1188 C1187 1.403 1_545 S
C1189 H1165 0.951 . S
C1189 C1190 1.366 . S
C1189 C1191 1.388 . S
C1190 C1189 1.366 . S
C1190 C1194 1.385 . S
C1191 H1166 0.951 . S
C1191 C1189 1.388 . S
C1191 C1192 1.366 . S
C1192 C1191 1.366 . S
C1192 C1193 1.414 1_554 S
C1192 C1195 1.499 . S
C1193 H1167 0.950 . S
C1193 C1192 1.414 1_556 S
C1193 C1194 1.374 1_556 S
C1194 H1168 0.950 1_554 S
C1194 C1190 1.385 . S
C1194 C1193 1.374 1_554 S
C1195 C1192 1.499 . S
C1195 C1196 1.373 1_554 S
C1195 C1197 1.389 . S
C1196 H1169 0.950 . S
C1196 C1182 1.377 1_545 S
C1196 C1195 1.373 1_556 S
C1197 C1181 1.377 1_545 S
C1197 C1195 1.389 . S
C1197 C1198 1.524 . S
C1198 C1197 1.524 . S
C1198 C1199 1.397 . S
C1198 C1203 1.345 1_545 S
C1199 H1170 0.950 . S
C1199 C1198 1.397 . S
C1199 C1200 1.334 . S
C1200 H1171 0.950 . S
C1200 C1199 1.334 . S
C1200 C1201 1.287 . S
C1201 C1200 1.287 . S
C1201 C1202 1.524 . S
C1201 H1204 0.999 . S
C1202 H1172 0.950 1_545 S
C1202 C1201 1.524 . S
C1202 C1203 1.404 1_545 S
C1203 H1173 0.980 . S
C1203 C1198 1.345 1_565 S
C1203 C1202 1.404 1_565 S
H1204 C1201 0.999 . S
H1205 C1186 0.913 . S
H1206 C1224 0.951 . S
H1207 C1226 0.951 . S
H1208 C1228 0.950 . S
H1209 C1229 0.950 . S
H1210 C1231 0.950 . S
H1211 C1234 0.950 . S
H1212 C1235 0.950 . S
H1213 C1237 0.950 . S
H1214 C1238 0.950 . S
H1215 C1239 0.951 . S
H1216 C1241 0.951 . S
H1217 C1243 0.950 . S
H1218 C1244 0.950 . S
H1219 C1246 0.950 . S
H1220 C1249 0.950 . S
H1221 C1250 0.950 . S
H1222 C1252 0.950 . S
H1223 C1253 0.950 . S
C1224 H1206 0.951 . S
C1224 C1225 1.366 . S
C1224 C1226 1.388 . S
C1225 C1224 1.366 . S
C1225 C1229 1.385 . S
C1226 H1207 0.951 . S
C1226 C1224 1.388 . S
C1226 C1227 1.366 . S
C1227 C1226 1.366 . S
C1227 C1228 1.414 . S
C1227 C1230 1.499 . S
C1228 H1208 0.950 . S
C1228 C1227 1.414 . S
C1228 C1229 1.374 . S
C1229 H1209 0.950 . S
C1229 C1225 1.385 . S
C1229 C1228 1.374 . S
C1230 C1227 1.499 . S
C1230 C1231 1.373 . S
C1230 C1232 1.389 . S
C1231 H1210 0.950 . S
C1231 C1230 1.373 . S
C1231 C1247 1.377 . S
C1232 C1230 1.389 . S
C1232 C1233 1.524 . S
C1232 C1246 1.377 . S
C1233 C1232 1.524 . S
C1233 C1234 1.397 . S
C1233 C1238 1.363 . S
C1234 H1211 0.950 . S
C1234 C1233 1.397 . S
C1234 C1235 1.334 . S
C1235 H1212 0.950 . S
C1235 C1234 1.334 . S
C1235 C1236 1.287 . S
C1236 C1235 1.287 . S
C1236 C1237 1.524 . S
C1236 H1255 0.913 . S
C1237 H1213 0.950 . S
C1237 C1236 1.524 . S
C1237 C1238 1.415 . S
C1238 H1214 0.950 . S
C1238 C1233 1.363 . S
C1238 C1237 1.415 . S
C1239 H1215 0.951 . S
C1239 C1240 1.366 . S
C1239 C1241 1.388 . S
C1240 C1239 1.366 . S
C1240 C1244 1.385 . S
C1241 H1216 0.951 . S
C1241 C1239 1.388 . S
C1241 C1242 1.366 . S
C1242 C1241 1.366 . S
C1242 C1243 1.414 . S
C1242 C1245 1.499 . S
C1243 H1217 0.950 . S
C1243 C1242 1.414 . S
C1243 C1244 1.374 . S
C1244 H1218 0.950 . S
C1244 C1240 1.385 . S
C1244 C1243 1.374 . S
C1245 C1242 1.499 . S
C1245 C1246 1.373 . S
C1245 C1247 1.389 . S
C1246 H1219 0.950 . S
C1246 C1232 1.377 . S
C1246 C1245 1.373 . S
C1247 C1231 1.377 . S
C1247 C1245 1.389 . S
C1247 C1248 1.524 . S
C1248 C1247 1.524 . S
C1248 C1249 1.397 . S
C1248 C1253 1.363 . S
C1249 H1220 0.950 . S
C1249 C1248 1.397 . S
C1249 C1250 1.334 . S
C1250 H1221 0.950 . S
C1250 C1249 1.334 . S
C1250 C1251 1.287 . S
C1251 C1250 1.287 . S
C1251 C1252 1.524 . S
C1251 H1254 0.999 . S
C1252 H1222 0.950 . S
C1252 C1251 1.524 . S
C1252 C1253 1.415 . S
C1253 H1223 0.950 . S
C1253 C1248 1.363 . S
C1253 C1252 1.415 . S
H1254 C1251 0.999 . S
H1255 C1236 0.913 . S
H1256 C1274 0.951 . S
H1257 C1276 0.951 . S
H1258 C1278 0.950 . S
H1259 C1279 0.950 . S
H1260 C1281 0.950 . S
H1261 C1284 0.950 . S
H1262 C1285 0.950 . S
H1263 C1287 0.950 . S
H1264 C1288 0.950 . S
H1265 C1289 0.951 . S
H1266 C1291 0.951 . S
H1267 C1293 0.950 . S
H1268 C1294 0.950 . S
H1269 C1296 0.950 . S
H1270 C1299 0.950 . S
H1271 C1300 0.950 . S
H1272 C1302 0.950 . S
H1273 C1303 0.950 . S
C1274 H1256 0.951 . S
C1274 C1275 1.366 . S
C1274 C1276 1.388 . S
C1275 C1274 1.366 . S
C1275 C1279 1.385 . S
C1276 H1257 0.951 . S
C1276 C1274 1.388 . S
C1276 C1277 1.366 . S
C1277 C1276 1.366 . S
C1277 C1278 1.414 . S
C1277 C1280 1.499 . S
C1278 H1258 0.950 . S
C1278 C1277 1.414 . S
C1278 C1279 1.374 . S
C1279 H1259 0.950 . S
C1279 C1275 1.385 . S
C1279 C1278 1.374 . S
C1280 C1277 1.499 . S
C1280 C1281 1.373 . S
C1280 C1282 1.389 . S
C1281 H1260 0.950 . S
C1281 C1280 1.373 . S
C1281 C1297 1.377 1_655 S
C1282 C1280 1.389 . S
C1282 C1283 1.524 . S
C1282 C1296 1.377 1_655 S
C1283 C1282 1.524 . S
C1283 C1284 1.397 . S
C1283 C1288 1.363 . S
C1284 H1261 0.950 . S
C1284 C1283 1.397 . S
C1284 C1285 1.334 . S
C1285 H1262 0.950 . S
C1285 C1284 1.334 . S
C1285 C1286 1.287 . S
C1286 C1285 1.287 . S
C1286 C1287 1.524 . S
C1286 H1305 0.913 . S
C1287 H1263 0.950 . S
C1287 C1286 1.524 . S
C1287 C1288 1.415 . S
C1288 H1264 0.950 . S
C1288 C1283 1.363 . S
C1288 C1287 1.415 . S
C1289 H1265 0.951 . S
C1289 C1290 1.366 . S
C1289 C1291 1.388 . S
C1290 C1289 1.366 . S
C1290 C1294 1.385 . S
C1291 H1266 0.951 . S
C1291 C1289 1.388 . S
C1291 C1292 1.366 . S
C1292 C1291 1.366 . S
C1292 C1293 1.414 . S
C1292 C1295 1.499 . S
C1293 H1267 0.950 . S
C1293 C1292 1.414 . S
C1293 C1294 1.374 . S
C1294 H1268 0.950 . S
C1294 C1290 1.385 . S
C1294 C1293 1.374 . S
C1295 C1292 1.499 . S
C1295 C1296 1.373 . S
C1295 C1297 1.389 . S
C1296 H1269 0.950 . S
C1296 C1282 1.377 1_455 S
C1296 C1295 1.373 . S
C1297 C1281 1.377 1_455 S
C1297 C1295 1.389 . S
C1297 C1298 1.524 . S
C1298 C1297 1.524 . S
C1298 C1299 1.397 . S
C1298 C1303 1.363 . S
C1299 H1270 0.950 . S
C1299 C1298 1.397 . S
C1299 C1300 1.334 . S
C1300 H1271 0.950 . S
C1300 C1299 1.334 . S
C1300 C1301 1.287 . S
C1301 C1300 1.287 . S
C1301 C1302 1.524 . S
C1301 H1304 0.999 . S
C1302 H1272 0.950 . S
C1302 C1301 1.524 . S
C1302 C1303 1.415 . S
C1303 H1273 0.950 . S
C1303 C1298 1.363 . S
C1303 C1302 1.415 . S
H1304 C1301 0.999 . S
H1305 C1286 0.913 . S
H1306 C1324 0.951 . S
H1307 C1326 0.951 . S
H1308 C1328 0.950 . S
H1309 C1329 0.950 1_556 S
H1310 C1331 0.950 . S
H1311 C1334 0.950 . S
H1312 C1335 0.950 . S
H1313 C1337 0.950 . S
H1314 C1338 0.950 1_545 S
H1315 C1339 0.951 . S
H1316 C1341 0.951 . S
H1317 C1343 0.950 . S
H1318 C1344 0.950 1_554 S
H1319 C1346 0.950 . S
H1320 C1349 0.950 . S
H1321 C1350 0.950 . S
H1322 C1352 0.950 . S
H1323 C1353 0.950 1_565 S
C1324 H1306 0.951 . S
C1324 C1325 1.366 . S
C1324 C1326 1.388 . S
C1325 C1324 1.366 . S
C1325 C1329 1.385 . S
C1326 H1307 0.951 . S
C1326 C1324 1.388 . S
C1326 C1327 1.366 . S
C1327 C1326 1.366 . S
C1327 C1328 1.414 1_554 S
C1327 C1330 1.499 . S
C1328 H1308 0.950 . S
C1328 C1327 1.414 1_556 S
C1328 C1329 1.374 1_556 S
C1329 H1309 0.950 1_554 S
C1329 C1325 1.385 . S
C1329 C1328 1.374 1_554 S
C1330 C1327 1.499 . S
C1330 C1331 1.371 1_554 S
C1330 C1332 1.389 . S
C1331 H1310 0.950 . S
C1331 C1330 1.371 1_556 S
C1331 C1347 1.378 1_565 S
C1332 C1330 1.389 . S
C1332 C1333 1.524 . S
C1332 C1346 1.378 1_565 S
C1333 C1332 1.524 . S
C1333 C1334 1.397 1_554 S
C1333 C1338 1.363 . S
C1334 H1311 0.950 . S
C1334 C1333 1.397 1_556 S
C1334 C1335 1.334 . S
C1335 H1312 0.950 . S
C1335 C1334 1.334 . S
C1335 C1336 1.287 1_556 S
C1336 C1335 1.287 1_554 S
C1336 C1337 1.524 . S
C1336 H1355 0.913 . S
C1337 H1313 0.950 . S
C1337 C1336 1.524 . S
C1337 C1338 1.415 . S
C1338 H1314 0.950 1_565 S
C1338 C1333 1.363 . S
C1338 C1337 1.415 . S
C1339 H1315 0.951 . S
C1339 C1340 1.366 . S
C1339 C1341 1.388 . S
C1340 C1339 1.366 . S
C1340 C1344 1.385 . S
C1341 H1316 0.951 . S
C1341 C1339 1.388 . S
C1341 C1342 1.366 . S
C1342 C1341 1.366 . S
C1342 C1343 1.414 1_556 S
C1342 C1345 1.499 . S
C1343 H1317 0.950 . S
C1343 C1342 1.414 1_554 S
C1343 C1344 1.374 1_554 S
C1344 H1318 0.950 1_556 S
C1344 C1340 1.385 . S
C1344 C1343 1.374 1_556 S
C1345 C1342 1.499 . S
C1345 C1346 1.371 1_556 S
C1345 C1347 1.389 . S
C1346 H1319 0.950 . S
C1346 C1332 1.378 1_545 S
C1346 C1345 1.371 1_554 S
C1347 C1331 1.378 1_545 S
C1347 C1345 1.389 . S
C1347 C1348 1.524 . S
C1348 C1347 1.524 . S
C1348 C1349 1.397 1_556 S
C1348 C1353 1.363 . S
C1349 H1320 0.950 . S
C1349 C1348 1.397 1_554 S
C1349 C1350 1.334 . S
C1350 H1321 0.950 . S
C1350 C1349 1.334 . S
C1350 C1351 1.287 1_554 S
C1351 C1350 1.287 1_556 S
C1351 C1352 1.524 . S
C1351 H1354 0.999 . S
C1352 H1322 0.950 . S
C1352 C1351 1.524 . S
C1352 C1353 1.415 . S
C1353 H1323 0.950 1_545 S
C1353 C1348 1.363 . S
C1353 C1352 1.415 . S
H1354 C1351 0.999 . S
H1355 C1336 0.913 . S
H1356 C1374 0.951 . S
H1357 C1376 0.951 . S
H1358 C1378 0.950 . S
H1359 C1379 0.950 . S
H1360 C1381 0.951 . S
H1361 C1384 0.950 . S
H1362 C1385 0.950 . S
H1363 C1387 0.950 . S
H1364 C1388 0.950 . S
H1365 C1389 0.951 . S
H1366 C1391 0.951 . S
H1367 C1393 0.950 . S
H1368 C1394 0.950 . S
H1369 C1396 0.951 . S
H1370 C1399 0.950 . S
H1371 C1400 0.950 . S
H1372 C1402 0.950 . S
H1373 C1403 0.950 . S
C1374 H1356 0.951 . S
C1374 C1375 1.366 . S
C1374 C1376 1.388 . S
C1375 C1374 1.366 . S
C1375 C1379 1.385 . S
C1376 H1357 0.951 . S
C1376 C1374 1.388 . S
C1376 C1377 1.366 . S
C1377 C1376 1.366 . S
C1377 C1378 1.414 . S
C1377 C1380 1.499 . S
C1378 H1358 0.950 . S
C1378 C1377 1.414 . S
C1378 C1379 1.374 . S
C1379 H1359 0.950 . S
C1379 C1375 1.385 . S
C1379 C1378 1.374 . S
C1380 C1377 1.499 . S
C1380 C1381 1.361 1_556 S
C1380 C1382 1.389 . S
C1381 H1360 0.951 . S
C1381 C1380 1.361 1_554 S
C1381 C1397 1.389 . S
C1382 C1380 1.389 . S
C1382 C1383 1.524 . S
C1382 C1396 1.388 . S
C1383 C1382 1.524 . S
C1383 C1384 1.397 . S
C1383 C1388 1.363 . S
C1384 H1361 0.950 . S
C1384 C1383 1.397 . S
C1384 C1385 1.334 . S
C1385 H1362 0.950 . S
C1385 C1384 1.334 . S
C1385 C1386 1.287 . S
C1386 C1385 1.287 . S
C1386 C1387 1.524 . S
C1386 H1405 0.913 . S
C1387 H1363 0.950 . S
C1387 C1386 1.524 . S
C1387 C1388 1.415 . S
C1388 H1364 0.950 . S
C1388 C1383 1.363 . S
C1388 C1387 1.415 . S
C1389 H1365 0.951 . S
C1389 C1390 1.366 . S
C1389 C1391 1.388 . S
C1390 C1389 1.366 . S
C1390 C1394 1.385 . S
C1391 H1366 0.951 . S
C1391 C1389 1.388 . S
C1391 C1392 1.366 . S
C1392 C1391 1.366 . S
C1392 C1393 1.414 . S
C1392 C1395 1.499 . S
C1393 H1367 0.950 . S
C1393 C1392 1.414 . S
C1393 C1394 1.374 . S
C1394 H1368 0.950 . S
C1394 C1390 1.385 . S
C1394 C1393 1.374 . S
C1395 C1392 1.499 . S
C1395 C1396 1.361 1_554 S
C1395 C1397 1.389 . S
C1396 H1369 0.951 . S
C1396 C1382 1.388 . S
C1396 C1395 1.361 1_556 S
C1397 C1381 1.389 . S
C1397 C1395 1.389 . S
C1397 C1398 1.524 . S
C1398 C1397 1.524 . S
C1398 C1399 1.397 . S
C1398 C1403 1.363 . S
C1399 H1370 0.950 . S
C1399 C1398 1.397 . S
C1399 C1400 1.334 . S
C1400 H1371 0.950 . S
C1400 C1399 1.334 . S
C1400 C1401 1.287 . S
C1401 C1400 1.287 . S
C1401 C1402 1.524 . S
C1401 H1404 0.999 . S
C1402 H1372 0.950 . S
C1402 C1401 1.524 . S
C1402 C1403 1.415 . S
C1403 H1373 0.950 . S
C1403 C1398 1.363 . S
C1403 C1402 1.415 . S
H1404 C1401 0.999 . S
H1405 C1386 0.913 . S
H1406 C1424 0.951 . S
H1407 C1426 0.951 . S
H1408 C1428 0.950 . S
H1409 C1429 0.950 . S
H1410 C1431 0.950 . S
H1411 C1434 0.950 . S
H1412 C1435 0.950 . S
H1413 C1437 0.950 . S
H1414 C1438 0.950 . S
H1415 C1439 0.951 . S
H1416 C1441 0.951 . S
H1417 C1443 0.950 . S
H1418 C1444 0.950 . S
H1419 C1446 0.950 . S
H1420 C1449 0.950 . S
H1421 C1450 0.950 . S
H1422 C1452 0.950 . S
H1423 C1453 0.950 . S
C1424 H1406 0.951 . S
C1424 C1425 1.366 . S
C1424 C1426 1.388 . S
C1425 C1424 1.366 . S
C1425 C1429 1.385 . S
C1426 H1407 0.951 . S
C1426 C1424 1.388 . S
C1426 C1427 1.366 . S
C1427 C1426 1.366 . S
C1427 C1428 1.414 . S
C1427 C1430 1.499 . S
C1428 H1408 0.950 . S
C1428 C1427 1.414 . S
C1428 C1429 1.374 . S
C1429 H1409 0.950 . S
C1429 C1425 1.385 . S
C1429 C1428 1.374 . S
C1430 C1427 1.499 . S
C1430 C1431 1.373 . S
C1430 C1432 1.389 . S
C1431 H1410 0.950 . S
C1431 C1430 1.373 . S
C1431 C1447 1.377 . S
C1432 C1430 1.389 . S
C1432 C1433 1.524 . S
C1432 C1446 1.377 . S
C1433 C1432 1.524 . S
C1433 C1434 1.397 . S
C1433 C1438 1.363 . S
C1434 H1411 0.950 . S
C1434 C1433 1.397 . S
C1434 C1435 1.334 . S
C1435 H1412 0.950 . S
C1435 C1434 1.334 . S
C1435 C1436 1.287 . S
C1436 C1435 1.287 . S
C1436 C1437 1.524 . S
C1436 H1455 0.913 . S
C1437 H1413 0.950 . S
C1437 C1436 1.524 . S
C1437 C1438 1.415 . S
C1438 H1414 0.950 . S
C1438 C1433 1.363 . S
C1438 C1437 1.415 . S
C1439 H1415 0.951 . S
C1439 C1440 1.366 . S
C1439 C1441 1.388 . S
C1440 C1439 1.366 . S
C1440 C1444 1.385 . S
C1441 H1416 0.951 . S
C1441 C1439 1.388 . S
C1441 C1442 1.366 . S
C1442 C1441 1.366 . S
C1442 C1443 1.414 . S
C1442 C1445 1.499 . S
C1443 H1417 0.950 . S
C1443 C1442 1.414 . S
C1443 C1444 1.374 . S
C1444 H1418 0.950 . S
C1444 C1440 1.385 . S
C1444 C1443 1.374 . S
C1445 C1442 1.499 . S
C1445 C1446 1.373 . S
C1445 C1447 1.389 . S
C1446 H1419 0.950 . S
C1446 C1432 1.377 . S
C1446 C1445 1.373 . S
C1447 C1431 1.377 . S
C1447 C1445 1.389 . S
C1447 C1448 1.524 . S
C1448 C1447 1.524 . S
C1448 C1449 1.397 . S
C1448 C1453 1.363 . S
C1449 H1420 0.950 . S
C1449 C1448 1.397 . S
C1449 C1450 1.334 . S
C1450 H1421 0.950 . S
C1450 C1449 1.334 . S
C1450 C1451 1.287 . S
C1451 C1450 1.287 . S
C1451 C1452 1.524 . S
C1451 H1454 0.999 . S
C1452 H1422 0.950 . S
C1452 C1451 1.524 . S
C1452 C1453 1.415 . S
C1453 H1423 0.950 . S
C1453 C1448 1.363 . S
C1453 C1452 1.415 . S
H1454 C1451 0.999 . S
H1455 C1436 0.913 . S
H1456 C1474 0.951 . S
H1457 C1476 0.951 . S
H1458 C1478 0.950 . S
H1459 C1479 0.950 . S
H1460 C1481 0.950 . S
H1461 C1484 0.950 . S
H1462 C1485 0.950 . S
H1463 C1487 0.950 . S
H1464 C1488 0.950 . S
H1465 C1489 0.951 . S
H1466 C1491 0.951 . S
H1467 C1493 0.950 . S
H1468 C1494 0.950 . S
H1469 C1496 0.950 . S
H1470 C1499 0.950 . S
H1471 C1500 0.950 . S
H1472 C1502 0.950 . S
H1473 C1503 0.950 . S
C1474 H1456 0.951 . S
C1474 C1475 1.366 . S
C1474 C1476 1.388 . S
C1475 C1474 1.366 . S
C1475 C1479 1.385 . S
C1476 H1457 0.951 . S
C1476 C1474 1.388 . S
C1476 C1477 1.366 . S
C1477 C1476 1.366 . S
C1477 C1478 1.414 . S
C1477 C1480 1.499 . S
C1478 H1458 0.950 . S
C1478 C1477 1.414 . S
C1478 C1479 1.374 . S
C1479 H1459 0.950 . S
C1479 C1475 1.385 . S
C1479 C1478 1.374 . S
C1480 C1477 1.499 . S
C1480 C1481 1.373 . S
C1480 C1482 1.389 . S
C1481 H1460 0.950 . S
C1481 C1480 1.373 . S
C1481 C1497 1.377 . S
C1482 C1480 1.389 . S
C1482 C1483 1.524 . S
C1482 C1496 1.377 . S
C1483 C1482 1.524 . S
C1483 C1484 1.397 . S
C1483 C1488 1.363 . S
C1484 H1461 0.950 . S
C1484 C1483 1.397 . S
C1484 C1485 1.334 . S
C1485 H1462 0.950 . S
C1485 C1484 1.334 . S
C1485 C1486 1.287 . S
C1486 C1485 1.287 . S
C1486 C1487 1.524 . S
C1486 H1505 0.913 . S
C1487 H1463 0.950 . S
C1487 C1486 1.524 . S
C1487 C1488 1.415 . S
C1488 H1464 0.950 . S
C1488 C1483 1.363 . S
C1488 C1487 1.415 . S
C1489 H1465 0.951 . S
C1489 C1490 1.366 . S
C1489 C1491 1.388 . S
C1490 C1489 1.366 . S
C1490 C1494 1.385 . S
C1491 H1466 0.951 . S
C1491 C1489 1.388 . S
C1491 C1492 1.366 . S
C1492 C1491 1.366 . S
C1492 C1493 1.414 . S
C1492 C1495 1.499 . S
C1493 H1467 0.950 . S
C1493 C1492 1.414 . S
C1493 C1494 1.374 . S
C1494 H1468 0.950 . S
C1494 C1490 1.385 . S
C1494 C1493 1.374 . S
C1495 C1492 1.499 . S
C1495 C1496 1.373 . S
C1495 C1497 1.389 . S
C1496 H1469 0.950 . S
C1496 C1482 1.377 . S
C1496 C1495 1.373 . S
C1497 C1481 1.377 . S
C1497 C1495 1.389 . S
C1497 C1498 1.524 . S
C1498 C1497 1.524 . S
C1498 C1499 1.397 . S
C1498 C1503 1.363 . S
C1499 H1470 0.950 . S
C1499 C1498 1.397 . S
C1499 C1500 1.334 . S
C1500 H1471 0.950 . S
C1500 C1499 1.334 . S
C1500 C1501 1.287 . S
C1501 C1500 1.287 . S
C1501 C1502 1.524 . S
C1501 H1504 0.999 . S
C1502 H1472 0.950 . S
C1502 C1501 1.524 . S
C1502 C1503 1.415 . S
C1503 H1473 0.950 . S
C1503 C1498 1.363 . S
C1503 C1502 1.415 . S
H1504 C1501 0.999 . S
H1505 C1486 0.913 . S
H1506 C1524 0.951 . S
H1507 C1526 0.951 . S
H1508 C1528 0.950 . S
H1509 C1529 0.950 . S
H1510 C1531 0.950 . S
H1511 C1534 0.950 . S
H1512 C1535 0.950 . S
H1513 C1537 0.950 . S
H1514 C1538 0.950 . S
H1515 C1539 0.951 . S
H1516 C1541 0.951 . S
H1517 C1543 0.950 . S
H1518 C1544 0.950 . S
H1519 C1546 0.950 . S
H1520 C1549 0.950 . S
H1521 C1550 0.950 . S
H1522 C1552 0.950 . S
H1523 C1553 0.950 . S
C1524 H1506 0.951 . S
C1524 C1525 1.366 . S
C1524 C1526 1.388 . S
C1525 C1524 1.366 . S
C1525 C1529 1.385 . S
C1526 H1507 0.951 . S
C1526 C1524 1.388 . S
C1526 C1527 1.366 . S
C1527 C1526 1.366 . S
C1527 C1528 1.414 . S
C1527 C1530 1.499 . S
C1528 H1508 0.950 . S
C1528 C1527 1.414 . S
C1528 C1529 1.374 . S
C1529 H1509 0.950 . S
C1529 C1525 1.385 . S
C1529 C1528 1.374 . S
C1530 C1527 1.499 . S
C1530 C1531 1.373 . S
C1530 C1532 1.389 . S
C1531 H1510 0.950 . S
C1531 C1530 1.373 . S
C1531 C1547 1.377 1_554 S
C1532 C1530 1.389 . S
C1532 C1533 1.524 . S
C1532 C1546 1.377 1_554 S
C1533 C1532 1.524 . S
C1533 C1534 1.397 . S
C1533 C1538 1.363 1_554 S
C1534 H1511 0.950 . S
C1534 C1533 1.397 . S
C1534 C1535 1.334 . S
C1535 H1512 0.950 . S
C1535 C1534 1.334 . S
C1535 C1536 1.287 . S
C1536 C1535 1.287 . S
C1536 C1537 1.524 1_554 S
C1536 H1555 0.913 . S
C1537 H1513 0.950 . S
C1537 C1536 1.524 1_556 S
C1537 C1538 1.415 . S
C1538 H1514 0.950 . S
C1538 C1533 1.363 1_556 S
C1538 C1537 1.415 . S
C1539 H1515 0.951 . S
C1539 C1540 1.366 . S
C1539 C1541 1.388 . S
C1540 C1539 1.366 . S
C1540 C1544 1.385 . S
C1541 H1516 0.951 . S
C1541 C1539 1.388 . S
C1541 C1542 1.366 . S
C1542 C1541 1.366 . S
C1542 C1543 1.414 . S
C1542 C1545 1.499 . S
C1543 H1517 0.950 . S
C1543 C1542 1.414 . S
C1543 C1544 1.374 . S
C1544 H1518 0.950 . S
C1544 C1540 1.385 . S
C1544 C1543 1.374 . S
C1545 C1542 1.499 . S
C1545 C1546 1.373 . S
C1545 C1547 1.389 . S
C1546 H1519 0.950 . S
C1546 C1532 1.377 1_556 S
C1546 C1545 1.373 . S
C1547 C1531 1.377 1_556 S
C1547 C1545 1.389 . S
C1547 C1548 1.524 . S
C1548 C1547 1.524 . S
C1548 C1549 1.397 . S
C1548 C1553 1.363 1_556 S
C1549 H1520 0.950 . S
C1549 C1548 1.397 . S
C1549 C1550 1.334 . S
C1550 H1521 0.950 . S
C1550 C1549 1.334 . S
C1550 C1551 1.287 . S
C1551 C1550 1.287 . S
C1551 C1552 1.524 1_556 S
C1551 H1554 0.999 . S
C1552 H1522 0.950 . S
C1552 C1551 1.524 1_554 S
C1552 C1553 1.415 . S
C1553 H1523 0.950 . S
C1553 C1548 1.363 1_554 S
C1553 C1552 1.415 . S
H1554 C1551 0.999 . S
H1555 C1536 0.913 . S
H1556 C1574 0.951 . S
H1557 C1576 0.951 . S
H1558 C1578 0.950 . S
H1559 C1579 0.950 . S
H1560 C1581 0.950 . S
H1561 C1584 0.950 . S
H1562 C1585 0.950 . S
H1563 C1587 0.950 . S
H1564 C1588 0.950 . S
H1565 C1589 0.951 . S
H1566 C1591 0.951 . S
H1567 C1593 0.950 . S
H1568 C1594 0.950 . S
H1569 C1596 0.950 . S
H1570 C1599 0.950 . S
H1571 C1600 0.950 . S
H1572 C1602 0.950 . S
H1573 C1603 0.950 . S
C1574 H1556 0.951 . S
C1574 C1575 1.366 . S
C1574 C1576 1.388 . S
C1575 C1574 1.366 . S
C1575 C1579 1.385 . S
C1576 H1557 0.951 . S
C1576 C1574 1.388 . S
C1576 C1577 1.366 . S
C1577 C1576 1.366 . S
C1577 C1578 1.414 . S
C1577 C1580 1.499 . S
C1578 H1558 0.950 . S
C1578 C1577 1.414 . S
C1578 C1579 1.374 . S
C1579 H1559 0.950 . S
C1579 C1575 1.385 . S
C1579 C1578 1.374 . S
C1580 C1577 1.499 . S
C1580 C1581 1.373 . S
C1580 C1582 1.389 . S
C1581 H1560 0.950 . S
C1581 C1580 1.373 . S
C1581 C1597 1.377 . S
C1582 C1580 1.389 . S
C1582 C1583 1.524 . S
C1582 C1596 1.377 . S
C1583 C1582 1.524 . S
C1583 C1584 1.397 . S
C1583 C1588 1.363 . S
C1584 H1561 0.950 . S
C1584 C1583 1.397 . S
C1584 C1585 1.334 . S
C1585 H1562 0.950 . S
C1585 C1584 1.334 . S
C1585 C1586 1.287 . S
C1586 C1585 1.287 . S
C1586 C1587 1.524 . S
C1586 H1605 0.913 . S
C1587 H1563 0.950 . S
C1587 C1586 1.524 . S
C1587 C1588 1.415 . S
C1588 H1564 0.950 . S
C1588 C1583 1.363 . S
C1588 C1587 1.415 . S
C1589 H1565 0.951 . S
C1589 C1590 1.366 . S
C1589 C1591 1.388 . S
C1590 C1589 1.366 . S
C1590 C1594 1.385 . S
C1591 H1566 0.951 . S
C1591 C1589 1.388 . S
C1591 C1592 1.366 . S
C1592 C1591 1.366 . S
C1592 C1593 1.414 . S
C1592 C1595 1.499 . S
C1593 H1567 0.950 . S
C1593 C1592 1.414 . S
C1593 C1594 1.374 . S
C1594 H1568 0.950 . S
C1594 C1590 1.385 . S
C1594 C1593 1.374 . S
C1595 C1592 1.499 . S
C1595 C1596 1.373 . S
C1595 C1597 1.389 . S
C1596 H1569 0.950 . S
C1596 C1582 1.377 . S
C1596 C1595 1.373 . S
C1597 C1581 1.377 . S
C1597 C1595 1.389 . S
C1597 C1598 1.524 . S
C1598 C1597 1.524 . S
C1598 C1599 1.397 . S
C1598 C1603 1.363 . S
C1599 H1570 0.950 . S
C1599 C1598 1.397 . S
C1599 C1600 1.334 . S
C1600 H1571 0.950 . S
C1600 C1599 1.334 . S
C1600 C1601 1.287 . S
C1601 C1600 1.287 . S
C1601 C1602 1.524 . S
C1601 H1604 0.999 . S
C1602 H1572 0.950 . S
C1602 C1601 1.524 . S
C1602 C1603 1.415 . S
C1603 H1573 0.950 . S
C1603 C1598 1.363 . S
C1603 C1602 1.415 . S
H1604 C1601 0.999 . S
H1605 C1586 0.913 . S
H1606 C1624 0.951 . S
H1607 C1626 0.951 . S
H1608 C1628 0.950 . S
H1609 C1629 0.950 . S
H1610 C1631 0.950 . S
H1611 C1634 0.950 . S
H1612 C1635 0.950 . S
H1613 C1637 0.950 . S
H1614 C1638 0.950 . S
H1615 C1639 0.951 . S
H1616 C1641 0.951 . S
H1617 C1643 0.950 . S
H1618 C1644 0.950 . S
H1619 C1646 0.950 . S
H1620 C1649 0.950 . S
H1621 C1650 0.950 . S
H1622 C1652 0.950 . S
H1623 C1653 0.950 . S
C1624 H1606 0.951 . S
C1624 C1625 1.366 . S
C1624 C1626 1.388 . S
C1625 C1624 1.366 . S
C1625 C1629 1.385 . S
C1626 H1607 0.951 . S
C1626 C1624 1.388 . S
C1626 C1627 1.366 . S
C1627 C1626 1.366 . S
C1627 C1628 1.414 . S
C1627 C1630 1.499 . S
C1628 H1608 0.950 . S
C1628 C1627 1.414 . S
C1628 C1629 1.374 . S
C1629 H1609 0.950 . S
C1629 C1625 1.385 . S
C1629 C1628 1.374 . S
C1630 C1627 1.499 . S
C1630 C1631 1.373 . S
C1630 C1632 1.389 . S
C1631 H1610 0.950 . S
C1631 C1630 1.373 . S
C1631 C1647 1.377 . S
C1632 C1630 1.389 . S
C1632 C1633 1.524 . S
C1632 C1646 1.377 . S
C1633 C1632 1.524 . S
C1633 C1634 1.397 . S
C1633 C1638 1.363 . S
C1634 H1611 0.950 . S
C1634 C1633 1.397 . S
C1634 C1635 1.334 . S
C1635 H1612 0.950 . S
C1635 C1634 1.334 . S
C1635 C1636 1.287 . S
C1636 C1635 1.287 . S
C1636 C1637 1.524 . S
C1636 H1655 0.913 . S
C1637 H1613 0.950 . S
C1637 C1636 1.524 . S
C1637 C1638 1.415 . S
C1638 H1614 0.950 . S
C1638 C1633 1.363 . S
C1638 C1637 1.415 . S
C1639 H1615 0.951 . S
C1639 C1640 1.366 . S
C1639 C1641 1.388 . S
C1640 C1639 1.366 . S
C1640 C1644 1.385 . S
C1641 H1616 0.951 . S
C1641 C1639 1.388 . S
C1641 C1642 1.366 . S
C1642 C1641 1.366 . S
C1642 C1643 1.414 . S
C1642 C1645 1.499 . S
C1643 H1617 0.950 . S
C1643 C1642 1.414 . S
C1643 C1644 1.374 . S
C1644 H1618 0.950 . S
C1644 C1640 1.385 . S
C1644 C1643 1.374 . S
C1645 C1642 1.499 . S
C1645 C1646 1.373 . S
C1645 C1647 1.389 . S
C1646 H1619 0.950 . S
C1646 C1632 1.377 . S
C1646 C1645 1.373 . S
C1647 C1631 1.377 . S
C1647 C1645 1.389 . S
C1647 C1648 1.524 . S
C1648 C1647 1.524 . S
C1648 C1649 1.397 . S
C1648 C1653 1.363 . S
C1649 H1620 0.950 . S
C1649 C1648 1.397 . S
C1649 C1650 1.334 . S
C1650 H1621 0.950 . S
C1650 C1649 1.334 . S
C1650 C1651 1.287 . S
C1651 C1650 1.287 . S
C1651 C1652 1.524 . S
C1651 H1654 0.999 . S
C1652 H1622 0.950 . S
C1652 C1651 1.524 . S
C1652 C1653 1.415 . S
C1653 H1623 0.950 . S
C1653 C1648 1.363 . S
C1653 C1652 1.415 . S
H1654 C1651 0.999 . S
H1655 C1636 0.913 . S
H1656 C1674 0.951 . S
H1657 C1676 0.951 . S
H1658 C1678 0.950 . S
H1659 C1679 0.950 . S
H1660 C1681 0.950 . S
H1661 C1684 0.950 . S
H1662 C1685 0.950 . S
H1663 C1687 0.950 . S
H1664 C1688 0.950 . S
H1665 C1689 0.951 . S
H1666 C1691 0.951 . S
H1667 C1693 0.950 . S
H1668 C1694 0.950 . S
H1669 C1696 0.950 . S
H1670 C1699 0.950 . S
H1671 C1700 0.950 . S
H1672 C1702 0.950 . S
H1673 C1703 0.950 . S
C1674 H1656 0.951 . S
C1674 C1675 1.366 . S
C1674 C1676 1.388 . S
C1675 C1674 1.366 . S
C1675 C1679 1.385 . S
C1676 H1657 0.951 . S
C1676 C1674 1.388 . S
C1676 C1677 1.366 . S
C1677 C1676 1.366 . S
C1677 C1678 1.414 . S
C1677 C1680 1.499 . S
C1678 H1658 0.950 . S
C1678 C1677 1.414 . S
C1678 C1679 1.374 . S
C1679 H1659 0.950 . S
C1679 C1675 1.385 . S
C1679 C1678 1.374 . S
C1680 C1677 1.499 . S
C1680 C1681 1.373 . S
C1680 C1682 1.389 . S
C1681 H1660 0.950 . S
C1681 C1680 1.373 . S
C1681 C1697 1.377 . S
C1682 C1680 1.389 . S
C1682 C1683 1.524 . S
C1682 C1696 1.377 . S
C1683 C1682 1.524 . S
C1683 C1684 1.397 . S
C1683 C1688 1.363 . S
C1684 H1661 0.950 . S
C1684 C1683 1.397 . S
C1684 C1685 1.334 . S
C1685 H1662 0.950 . S
C1685 C1684 1.334 . S
C1685 C1686 1.287 . S
C1686 C1685 1.287 . S
C1686 C1687 1.524 . S
C1686 H1705 0.913 . S
C1687 H1663 0.950 . S
C1687 C1686 1.524 . S
C1687 C1688 1.415 . S
C1688 H1664 0.950 . S
C1688 C1683 1.363 . S
C1688 C1687 1.415 . S
C1689 H1665 0.951 . S
C1689 C1690 1.366 . S
C1689 C1691 1.388 . S
C1690 C1689 1.366 . S
C1690 C1694 1.385 . S
C1691 H1666 0.951 . S
C1691 C1689 1.388 . S
C1691 C1692 1.366 . S
C1692 C1691 1.366 . S
C1692 C1693 1.414 . S
C1692 C1695 1.499 . S
C1693 H1667 0.950 . S
C1693 C1692 1.414 . S
C1693 C1694 1.374 . S
C1694 H1668 0.950 . S
C1694 C1690 1.385 . S
C1694 C1693 1.374 . S
C1695 C1692 1.499 . S
C1695 C1696 1.373 . S
C1695 C1697 1.389 . S
C1696 H1669 0.950 . S
C1696 C1682 1.377 . S
C1696 C1695 1.373 . S
C1697 C1681 1.377 . S
C1697 C1695 1.389 . S
C1697 C1698 1.524 . S
C1698 C1697 1.524 . S
C1698 C1699 1.397 . S
C1698 C1703 1.363 . S
C1699 H1670 0.950 . S
C1699 C1698 1.397 . S
C1699 C1700 1.334 . S
C1700 H1671 0.950 . S
C1700 C1699 1.334 . S
C1700 C1701 1.287 . S
C1701 C1700 1.287 . S
C1701 C1702 1.524 . S
C1701 H1704 0.999 . S
C1702 H1672 0.950 . S
C1702 C1701 1.524 . S
C1702 C1703 1.415 . S
C1703 H1673 0.950 . S
C1703 C1698 1.363 . S
C1703 C1702 1.415 . S
H1704 C1701 0.999 . S
H1705 C1686 0.913 . S
H1706 C1724 0.951 . S
H1707 C1726 0.951 . S
H1708 C1728 0.950 . S
H1709 C1729 0.950 . S
H1710 C1731 0.950 . S
H1711 C1734 0.950 . S
H1712 C1735 0.950 . S
H1713 C1737 0.950 . S
H1714 C1738 0.950 . S
H1715 C1739 0.951 . S
H1716 C1741 0.951 . S
H1717 C1743 0.950 . S
H1718 C1744 0.950 . S
H1719 C1746 0.950 . S
H1720 C1749 0.950 . S
H1721 C1750 0.950 . S
H1722 C1752 0.950 . S
H1723 C1753 0.950 . S
C1724 H1706 0.951 . S
C1724 C1725 1.366 . S
C1724 C1726 1.388 . S
C1725 C1724 1.366 . S
C1725 C1729 1.385 . S
C1726 H1707 0.951 . S
C1726 C1724 1.388 . S
C1726 C1727 1.366 . S
C1727 C1726 1.366 . S
C1727 C1728 1.414 . S
C1727 C1730 1.499 . S
C1728 H1708 0.950 . S
C1728 C1727 1.414 . S
C1728 C1729 1.374 . S
C1729 H1709 0.950 . S
C1729 C1725 1.385 . S
C1729 C1728 1.374 . S
C1730 C1727 1.499 . S
C1730 C1731 1.373 . S
C1730 C1732 1.389 . S
C1731 H1710 0.950 . S
C1731 C1730 1.373 . S
C1731 C1747 1.377 . S
C1732 C1730 1.389 . S
C1732 C1733 1.524 . S
C1732 C1746 1.377 . S
C1733 C1732 1.524 . S
C1733 C1734 1.397 . S
C1733 C1738 1.363 . S
C1734 H1711 0.950 . S
C1734 C1733 1.397 . S
C1734 C1735 1.334 . S
C1735 H1712 0.950 . S
C1735 C1734 1.334 . S
C1735 C1736 1.287 . S
C1736 C1735 1.287 . S
C1736 C1737 1.524 . S
C1736 H1755 0.913 . S
C1737 H1713 0.950 . S
C1737 C1736 1.524 . S
C1737 C1738 1.415 . S
C1738 H1714 0.950 . S
C1738 C1733 1.363 . S
C1738 C1737 1.415 . S
C1739 H1715 0.951 . S
C1739 C1740 1.366 . S
C1739 C1741 1.388 . S
C1740 C1739 1.366 . S
C1740 C1744 1.385 . S
C1741 H1716 0.951 . S
C1741 C1739 1.388 . S
C1741 C1742 1.366 . S
C1742 C1741 1.366 . S
C1742 C1743 1.414 . S
C1742 C1745 1.499 . S
C1743 H1717 0.950 . S
C1743 C1742 1.414 . S
C1743 C1744 1.374 . S
C1744 H1718 0.950 . S
C1744 C1740 1.385 . S
C1744 C1743 1.374 . S
C1745 C1742 1.499 . S
C1745 C1746 1.373 . S
C1745 C1747 1.389 . S
C1746 H1719 0.950 . S
C1746 C1732 1.377 . S
C1746 C1745 1.373 . S
C1747 C1731 1.377 . S
C1747 C1745 1.389 . S
C1747 C1748 1.524 . S
C1748 C1747 1.524 . S
C1748 C1749 1.397 . S
C1748 C1753 1.363 . S
C1749 H1720 0.950 . S
C1749 C1748 1.397 . S
C1749 C1750 1.334 . S
C1750 H1721 0.950 . S
C1750 C1749 1.334 . S
C1750 C1751 1.287 . S
C1751 C1750 1.287 . S
C1751 C1752 1.524 . S
C1751 H1754 0.999 . S
C1752 H1722 0.950 . S
C1752 C1751 1.524 . S
C1752 C1753 1.415 . S
C1753 H1723 0.950 . S
C1753 C1748 1.363 . S
C1753 C1752 1.415 . S
H1754 C1751 0.999 . S
H1755 C1736 0.913 . S
H1756 C1774 0.951 . S
H1757 C1776 0.951 . S
H1758 C1778 0.950 . S
H1759 C1779 0.950 . S
H1760 C1781 0.950 . S
H1761 C1784 0.950 . S
H1762 C1785 0.950 . S
H1763 C1787 0.950 . S
H1764 C1788 0.950 . S
H1765 C1789 0.951 . S
H1766 C1791 0.951 . S
H1767 C1793 0.950 . S
H1768 C1794 0.950 . S
H1769 C1796 0.950 . S
H1770 C1799 0.950 . S
H1771 C1800 0.950 . S
H1772 C1802 0.950 . S
H1773 C1803 0.950 . S
C1774 H1756 0.951 . S
C1774 C1775 1.366 . S
C1774 C1776 1.388 . S
C1775 C1774 1.366 . S
C1775 C1779 1.385 . S
C1776 H1757 0.951 . S
C1776 C1774 1.388 . S
C1776 C1777 1.366 . S
C1777 C1776 1.366 . S
C1777 C1778 1.414 . S
C1777 C1780 1.499 . S
C1778 H1758 0.950 . S
C1778 C1777 1.414 . S
C1778 C1779 1.374 . S
C1779 H1759 0.950 . S
C1779 C1775 1.385 . S
C1779 C1778 1.374 . S
C1780 C1777 1.499 . S
C1780 C1781 1.373 . S
C1780 C1782 1.389 . S
C1781 H1760 0.950 . S
C1781 C1780 1.373 . S
C1781 C1797 1.377 . S
C1782 C1780 1.389 . S
C1782 C1783 1.524 . S
C1782 C1796 1.377 . S
C1783 C1782 1.524 . S
C1783 C1784 1.397 . S
C1783 C1788 1.363 . S
C1784 H1761 0.950 . S
C1784 C1783 1.397 . S
C1784 C1785 1.334 . S
C1785 H1762 0.950 . S
C1785 C1784 1.334 . S
C1785 C1786 1.287 . S
C1786 C1785 1.287 . S
C1786 C1787 1.524 . S
C1786 H1805 0.913 . S
C1787 H1763 0.950 . S
C1787 C1786 1.524 . S
C1787 C1788 1.415 . S
C1788 H1764 0.950 . S
C1788 C1783 1.363 . S
C1788 C1787 1.415 . S
C1789 H1765 0.951 . S
C1789 C1790 1.366 . S
C1789 C1791 1.388 . S
C1790 C1789 1.366 . S
C1790 C1794 1.385 . S
C1791 H1766 0.951 . S
C1791 C1789 1.388 . S
C1791 C1792 1.366 . S
C1792 C1791 1.366 . S
C1792 C1793 1.414 . S
C1792 C1795 1.499 . S
C1793 H1767 0.950 . S
C1793 C1792 1.414 . S
C1793 C1794 1.374 . S
C1794 H1768 0.950 . S
C1794 C1790 1.385 . S
C1794 C1793 1.374 . S
C1795 C1792 1.499 . S
C1795 C1796 1.373 . S
C1795 C1797 1.389 . S
C1796 H1769 0.950 . S
C1796 C1782 1.377 . S
C1796 C1795 1.373 . S
C1797 C1781 1.377 . S
C1797 C1795 1.389 . S
C1797 C1798 1.524 . S
C1798 C1797 1.524 . S
C1798 C1799 1.397 . S
C1798 C1803 1.363 . S
C1799 H1770 0.950 . S
C1799 C1798 1.397 . S
C1799 C1800 1.334 . S
C1800 H1771 0.950 . S
C1800 C1799 1.334 . S
C1800 C1801 1.287 . S
C1801 C1800 1.287 . S
C1801 C1802 1.524 . S
C1801 H1804 0.999 . S
C1802 H1772 0.950 . S
C1802 C1801 1.524 . S
C1802 C1803 1.415 . S
C1803 H1773 0.950 . S
C1803 C1798 1.363 . S
C1803 C1802 1.415 . S
H1804 C1801 0.999 . S
H1805 C1786 0.913 . S
H1806 C1824 0.951 . S
H1807 C1826 0.951 . S
H1808 C1828 0.950 . S
H1809 C1829 0.950 . S
H1810 C1831 0.950 . S
H1811 C1834 0.950 . S
H1812 C1835 0.950 . S
H1813 C1837 0.950 . S
H1814 C1838 0.950 . S
H1815 C1839 0.951 . S
H1816 C1841 0.951 . S
H1817 C1843 0.950 . S
H1818 C1844 0.950 . S
H1819 C1846 0.950 . S
H1820 C1849 0.950 . S
H1821 C1850 0.950 . S
H1822 C1852 0.950 . S
H1823 C1853 0.950 . S
C1824 H1806 0.951 . S
C1824 C1825 1.366 . S
C1824 C1826 1.388 . S
C1825 C1824 1.366 . S
C1825 C1829 1.385 . S
C1826 H1807 0.951 . S
C1826 C1824 1.388 . S
C1826 C1827 1.366 . S
C1827 C1826 1.366 . S
C1827 C1828 1.414 . S
C1827 C1830 1.499 . S
C1828 H1808 0.950 . S
C1828 C1827 1.414 . S
C1828 C1829 1.374 . S
C1829 H1809 0.950 . S
C1829 C1825 1.385 . S
C1829 C1828 1.374 . S
C1830 C1827 1.499 . S
C1830 C1831 1.373 . S
C1830 C1832 1.389 . S
C1831 H1810 0.950 . S
C1831 C1830 1.373 . S
C1831 C1847 1.377 . S
C1832 C1830 1.389 . S
C1832 C1833 1.524 . S
C1832 C1846 1.377 . S
C1833 C1832 1.524 . S
C1833 C1834 1.397 . S
C1833 C1838 1.363 . S
C1834 H1811 0.950 . S
C1834 C1833 1.397 . S
C1834 C1835 1.334 . S
C1835 H1812 0.950 . S
C1835 C1834 1.334 . S
C1835 C1836 1.287 . S
C1836 C1835 1.287 . S
C1836 C1837 1.524 . S
C1836 H1855 0.913 . S
C1837 H1813 0.950 . S
C1837 C1836 1.524 . S
C1837 C1838 1.415 . S
C1838 H1814 0.950 . S
C1838 C1833 1.363 . S
C1838 C1837 1.415 . S
C1839 H1815 0.951 . S
C1839 C1840 1.366 . S
C1839 C1841 1.388 . S
C1840 C1839 1.366 . S
C1840 C1844 1.385 . S
C1841 H1816 0.951 . S
C1841 C1839 1.388 . S
C1841 C1842 1.366 . S
C1842 C1841 1.366 . S
C1842 C1843 1.414 . S
C1842 C1845 1.499 . S
C1843 H1817 0.950 . S
C1843 C1842 1.414 . S
C1843 C1844 1.374 . S
C1844 H1818 0.950 . S
C1844 C1840 1.385 . S
C1844 C1843 1.374 . S
C1845 C1842 1.499 . S
C1845 C1846 1.373 . S
C1845 C1847 1.389 . S
C1846 H1819 0.950 . S
C1846 C1832 1.377 . S
C1846 C1845 1.373 . S
C1847 C1831 1.377 . S
C1847 C1845 1.389 . S
C1847 C1848 1.524 . S
C1848 C1847 1.524 . S
C1848 C1849 1.397 . S
C1848 C1853 1.363 . S
C1849 H1820 0.950 . S
C1849 C1848 1.397 . S
C1849 C1850 1.334 . S
C1850 H1821 0.950 . S
C1850 C1849 1.334 . S
C1850 C1851 1.287 . S
C1851 C1850 1.287 . S
C1851 C1852 1.524 . S
C1851 H1854 0.999 . S
C1852 H1822 0.950 . S
C1852 C1851 1.524 . S
C1852 C1853 1.415 . S
C1853 H1823 0.950 . S
C1853 C1848 1.363 . S
C1853 C1852 1.415 . S
H1854 C1851 0.999 . S
H1855 C1836 0.913 . S
H1856 C1874 0.951 . S
H1857 C1876 0.951 . S
H1858 C1878 0.950 . S
H1859 C1879 0.950 . S
H1860 C1881 0.950 . S
H1861 C1884 0.950 . S
H1862 C1885 0.950 . S
H1863 C1887 0.950 . S
H1864 C1888 0.950 . S
H1865 C1889 0.951 . S
H1866 C1891 0.951 . S
H1867 C1893 0.950 . S
H1868 C1894 0.950 . S
H1869 C1896 0.950 . S
H1870 C1899 0.950 . S
H1871 C1900 0.950 . S
H1872 C1902 0.950 . S
H1873 C1903 0.950 . S
C1874 H1856 0.951 . S
C1874 C1875 1.366 . S
C1874 C1876 1.388 . S
C1875 C1874 1.366 . S
C1875 C1879 1.385 . S
C1876 H1857 0.951 . S
C1876 C1874 1.388 . S
C1876 C1877 1.366 . S
C1877 C1876 1.366 . S
C1877 C1878 1.414 . S
C1877 C1880 1.499 . S
C1878 H1858 0.950 . S
C1878 C1877 1.414 . S
C1878 C1879 1.374 . S
C1879 H1859 0.950 . S
C1879 C1875 1.385 . S
C1879 C1878 1.374 . S
C1880 C1877 1.499 . S
C1880 C1881 1.373 . S
C1880 C1882 1.389 . S
C1881 H1860 0.950 . S
C1881 C1880 1.373 . S
C1881 C1897 1.377 . S
C1882 C1880 1.389 . S
C1882 C1883 1.524 . S
C1882 C1896 1.377 . S
C1883 C1882 1.524 . S
C1883 C1884 1.397 . S
C1883 C1888 1.363 . S
C1884 H1861 0.950 . S
C1884 C1883 1.397 . S
C1884 C1885 1.334 . S
C1885 H1862 0.950 . S
C1885 C1884 1.334 . S
C1885 C1886 1.287 . S
C1886 C1885 1.287 . S
C1886 C1887 1.524 . S
C1886 H1905 0.913 . S
C1887 H1863 0.950 . S
C1887 C1886 1.524 . S
C1887 C1888 1.415 . S
C1888 H1864 0.950 . S
C1888 C1883 1.363 . S
C1888 C1887 1.415 . S
C1889 H1865 0.951 . S
C1889 C1890 1.366 . S
C1889 C1891 1.388 . S
C1890 C1889 1.366 . S
C1890 C1894 1.385 . S
C1891 H1866 0.951 . S
C1891 C1889 1.388 . S
C1891 C1892 1.366 . S
C1892 C1891 1.366 . S
C1892 C1893 1.414 . S
C1892 C1895 1.499 . S
C1893 H1867 0.950 . S
C1893 C1892 1.414 . S
C1893 C1894 1.374 . S
C1894 H1868 0.950 . S
C1894 C1890 1.385 . S
C1894 C1893 1.374 . S
C1895 C1892 1.499 . S
C1895 C1896 1.373 . S
C1895 C1897 1.389 . S
C1896 H1869 0.950 . S
C1896 C1882 1.377 . S
C1896 C1895 1.373 . S
C1897 C1881 1.377 . S
C1897 C1895 1.389 . S
C1897 C1898 1.524 . S
C1898 C1897 1.524 . S
C1898 C1899 1.397 . S
C1898 C1903 1.363 . S
C1899 H1870 0.950 . S
C1899 C1898 1.397 . S
C1899 C1900 1.334 . S
C1900 H1871 0.950 . S
C1900 C1899 1.334 . S
C1900 C1901 1.287 . S
C1901 C1900 1.287 . S
C1901 C1902 1.524 . S
C1901 H1904 0.999 . S
C1902 H1872 0.950 . S
C1902 C1901 1.524 . S
C1902 C1903 1.415 . S
C1903 H1873 0.950 . S
C1903 C1898 1.363 . S
C1903 C1902 1.415 . S
H1904 C1901 0.999 . S
H1905 C1886 0.913 . S
H1906 C1924 0.951 . S
H1907 C1926 0.951 . S
H1908 C1928 0.950 . S
H1909 C1929 0.950 . S
H1910 C1931 0.950 . S
H1911 C1934 0.950 . S
H1912 C1935 0.950 . S
H1913 C1937 0.950 . S
H1914 C1938 0.950 . S
H1915 C1939 0.951 . S
H1916 C1941 0.951 . S
H1917 C1943 0.950 . S
H1918 C1944 0.950 . S
H1919 C1946 0.950 . S
H1920 C1949 0.950 . S
H1921 C1950 0.950 . S
H1922 C1952 0.950 . S
H1923 C1953 0.950 . S
C1924 H1906 0.951 . S
C1924 C1925 1.366 . S
C1924 C1926 1.388 . S
C1925 C1924 1.366 . S
C1925 C1929 1.385 . S
C1926 H1907 0.951 . S
C1926 C1924 1.388 . S
C1926 C1927 1.366 . S
C1927 C1926 1.366 . S
C1927 C1928 1.414 . S
C1927 C1930 1.499 . S
C1928 H1908 0.950 . S
C1928 C1927 1.414 . S
C1928 C1929 1.374 . S
C1929 H1909 0.950 . S
C1929 C1925 1.385 . S
C1929 C1928 1.374 . S
C1930 C1927 1.499 . S
C1930 C1931 1.373 . S
C1930 C1932 1.389 . S
C1931 H1910 0.950 . S
C1931 C1930 1.373 . S
C1931 C1947 1.377 . S
C1932 C1930 1.389 . S
C1932 C1933 1.524 . S
C1932 C1946 1.377 . S
C1933 C1932 1.524 . S
C1933 C1934 1.397 . S
C1933 C1938 1.363 . S
C1934 H1911 0.950 . S
C1934 C1933 1.397 . S
C1934 C1935 1.334 . S
C1935 H1912 0.950 . S
C1935 C1934 1.334 . S
C1935 C1936 1.287 . S
C1936 C1935 1.287 . S
C1936 C1937 1.524 . S
C1936 H1955 0.913 . S
C1937 H1913 0.950 . S
C1937 C1936 1.524 . S
C1937 C1938 1.415 . S
C1938 H1914 0.950 . S
C1938 C1933 1.363 . S
C1938 C1937 1.415 . S
C1939 H1915 0.951 . S
C1939 C1940 1.366 . S
C1939 C1941 1.388 . S
C1940 C1939 1.366 . S
C1940 C1944 1.385 . S
C1941 H1916 0.951 . S
C1941 C1939 1.388 . S
C1941 C1942 1.366 . S
C1942 C1941 1.366 . S
C1942 C1943 1.414 . S
C1942 C1945 1.499 . S
C1943 H1917 0.950 . S
C1943 C1942 1.414 . S
C1943 C1944 1.374 . S
C1944 H1918 0.950 . S
C1944 C1940 1.385 . S
C1944 C1943 1.374 . S
C1945 C1942 1.499 . S
C1945 C1946 1.373 . S
C1945 C1947 1.389 . S
C1946 H1919 0.950 . S
C1946 C1932 1.377 . S
C1946 C1945 1.373 . S
C1947 C1931 1.377 . S
C1947 C1945 1.389 . S
C1947 C1948 1.524 . S
C1948 C1947 1.524 . S
C1948 C1949 1.397 . S
C1948 C1953 1.363 . S
C1949 H1920 0.950 . S
C1949 C1948 1.397 . S
C1949 C1950 1.334 . S
C1950 H1921 0.950 . S
C1950 C1949 1.334 . S
C1950 C1951 1.287 . S
C1951 C1950 1.287 . S
C1951 C1952 1.524 . S
C1951 H1954 0.999 . S
C1952 H1922 0.950 . S
C1952 C1951 1.524 . S
C1952 C1953 1.415 . S
C1953 H1923 0.950 . S
C1953 C1948 1.363 . S
C1953 C1952 1.415 . S
H1954 C1951 0.999 . S
H1955 C1936 0.913 . S
H1956 C1974 0.951 . S
H1957 C1976 0.951 . S
H1958 C1978 0.950 . S
H1959 C1979 0.950 . S
H1960 C1981 0.950 . S
H1961 C1984 0.950 . S
H1962 C1985 0.950 . S
H1963 C1987 0.950 . S
H1964 C1988 0.950 . S
H1965 C1989 0.951 . S
H1966 C1991 0.951 . S
H1967 C1993 0.950 . S
H1968 C1994 0.950 . S
H1969 C1996 0.950 . S
H1970 C1999 0.950 . S
H1971 C2000 0.950 . S
H1972 C2002 0.950 . S
H1973 C2003 0.950 . S
C1974 H1956 0.951 . S
C1974 C1975 1.366 . S
C1974 C1976 1.388 . S
C1975 C1974 1.366 . S
C1975 C1979 1.385 . S
C1976 H1957 0.951 . S
C1976 C1974 1.388 . S
C1976 C1977 1.366 . S
C1977 C1976 1.366 . S
C1977 C1978 1.414 . S
C1977 C1980 1.499 . S
C1978 H1958 0.950 . S
C1978 C1977 1.414 . S
C1978 C1979 1.374 . S
C1979 H1959 0.950 . S
C1979 C1975 1.385 . S
C1979 C1978 1.374 . S
C1980 C1977 1.499 . S
C1980 C1981 1.373 . S
C1980 C1982 1.389 . S
C1981 H1960 0.950 . S
C1981 C1980 1.373 . S
C1981 C1997 1.377 . S
C1982 C1980 1.389 . S
C1982 C1983 1.524 . S
C1982 C1996 1.377 . S
C1983 C1982 1.524 . S
C1983 C1984 1.397 . S
C1983 C1988 1.363 . S
C1984 H1961 0.950 . S
C1984 C1983 1.397 . S
C1984 C1985 1.334 . S
C1985 H1962 0.950 . S
C1985 C1984 1.334 . S
C1985 C1986 1.287 . S
C1986 C1985 1.287 . S
C1986 C1987 1.524 . S
C1986 H2005 0.913 . S
C1987 H1963 0.950 . S
C1987 C1986 1.524 . S
C1987 C1988 1.415 . S
C1988 H1964 0.950 . S
C1988 C1983 1.363 . S
C1988 C1987 1.415 . S
C1989 H1965 0.951 . S
C1989 C1990 1.366 . S
C1989 C1991 1.388 . S
C1990 C1989 1.366 . S
C1990 C1994 1.385 . S
C1991 H1966 0.951 . S
C1991 C1989 1.388 . S
C1991 C1992 1.366 . S
C1992 C1991 1.366 . S
C1992 C1993 1.414 . S
C1992 C1995 1.499 . S
C1993 H1967 0.950 . S
C1993 C1992 1.414 . S
C1993 C1994 1.374 . S
C1994 H1968 0.950 . S
C1994 C1990 1.385 . S
C1994 C1993 1.374 . S
C1995 C1992 1.499 . S
C1995 C1996 1.373 . S
C1995 C1997 1.389 . S
C1996 H1969 0.950 . S
C1996 C1982 1.377 . S
C1996 C1995 1.373 . S
C1997 C1981 1.377 . S
C1997 C1995 1.389 . S
C1997 C1998 1.524 . S
C1998 C1997 1.524 . S
C1998 C1999 1.397 . S
C1998 C2003 1.363 . S
C1999 H1970 0.950 . S
C1999 C1998 1.397 . S
C1999 C2000 1.334 . S
C2000 H1971 0.950 . S
C2000 C1999 1.334 . S
C2000 C2001 1.287 . S
C2001 C2000 1.287 . S
C2001 C2002 1.524 . S
C2001 H2004 0.999 . S
C2002 H1972 0.950 . S
C2002 C2001 1.524 . S
C2002 C2003 1.415 . S
C2003 H1973 0.950 . S
C2003 C1998 1.363 . S
C2003 C2002 1.415 . S
H2004 C2001 0.999 . S
H2005 C1986 0.913 . S
H2006 C2024 0.951 . S
H2007 C2026 0.951 . S
H2008 C2028 0.950 . S
H2009 C2029 0.950 . S
H2010 C2031 0.950 . S
H2011 C2034 0.950 . S
H2012 C2035 0.950 . S
H2013 C2037 0.950 . S
H2014 C2038 0.950 . S
H2015 C2039 0.951 . S
H2016 C2041 0.951 . S
H2017 C2043 0.950 . S
H2018 C2044 0.950 . S
H2019 C2046 0.950 . S
H2020 C2049 0.950 . S
H2021 C2050 0.950 . S
H2022 C2052 0.950 . S
H2023 C2053 0.950 . S
C2024 H2006 0.951 . S
C2024 C2025 1.366 . S
C2024 C2026 1.388 . S
C2025 C2024 1.366 . S
C2025 C2029 1.385 . S
C2026 H2007 0.951 . S
C2026 C2024 1.388 . S
C2026 C2027 1.366 . S
C2027 C2026 1.366 . S
C2027 C2028 1.414 . S
C2027 C2030 1.499 . S
C2028 H2008 0.950 . S
C2028 C2027 1.414 . S
C2028 C2029 1.374 . S
C2029 H2009 0.950 . S
C2029 C2025 1.385 . S
C2029 C2028 1.374 . S
C2030 C2027 1.499 . S
C2030 C2031 1.373 . S
C2030 C2032 1.389 . S
C2031 H2010 0.950 . S
C2031 C2030 1.373 . S
C2031 C2047 1.377 . S
C2032 C2030 1.389 . S
C2032 C2033 1.524 . S
C2032 C2046 1.377 . S
C2033 C2032 1.524 . S
C2033 C2034 1.397 . S
C2033 C2038 1.363 . S
C2034 H2011 0.950 . S
C2034 C2033 1.397 . S
C2034 C2035 1.334 . S
C2035 H2012 0.950 . S
C2035 C2034 1.334 . S
C2035 C2036 1.287 . S
C2036 C2035 1.287 . S
C2036 C2037 1.524 . S
C2036 H2055 0.913 . S
C2037 H2013 0.950 . S
C2037 C2036 1.524 . S
C2037 C2038 1.415 . S
C2038 H2014 0.950 . S
C2038 C2033 1.363 . S
C2038 C2037 1.415 . S
C2039 H2015 0.951 . S
C2039 C2040 1.366 . S
C2039 C2041 1.388 . S
C2040 C2039 1.366 . S
C2040 C2044 1.385 . S
C2041 H2016 0.951 . S
C2041 C2039 1.388 . S
C2041 C2042 1.366 . S
C2042 C2041 1.366 . S
C2042 C2043 1.414 . S
C2042 C2045 1.499 . S
C2043 H2017 0.950 . S
C2043 C2042 1.414 . S
C2043 C2044 1.374 . S
C2044 H2018 0.950 . S
C2044 C2040 1.385 . S
C2044 C2043 1.374 . S
C2045 C2042 1.499 . S
C2045 C2046 1.373 . S
C2045 C2047 1.389 . S
C2046 H2019 0.950 . S
C2046 C2032 1.377 . S
C2046 C2045 1.373 . S
C2047 C2031 1.377 . S
C2047 C2045 1.389 . S
C2047 C2048 1.524 . S
C2048 C2047 1.524 . S
C2048 C2049 1.397 . S
C2048 C2053 1.363 . S
C2049 H2020 0.950 . S
C2049 C2048 1.397 . S
C2049 C2050 1.334 . S
C2050 H2021 0.950 . S
C2050 C2049 1.334 . S
C2050 C2051 1.287 . S
C2051 C2050 1.287 . S
C2051 C2052 1.524 . S
C2051 H2054 0.999 . S
C2052 H2022 0.950 . S
C2052 C2051 1.524 . S
C2052 C2053 1.415 . S
C2053 H2023 0.950 . S
C2053 C2048 1.363 . S
C2053 C2052 1.415 . S
H2054 C2051 0.999 . S
H2055 C2036 0.913 . S
H2056 C2074 0.951 . S
H2057 C2076 0.951 . S
H2058 C2078 0.950 . S
H2059 C2079 0.950 1_554 S
H2060 C2081 0.950 . S
H2061 C2084 0.950 . S
H2062 C2085 0.950 . S
H2063 C2087 0.950 . S
H2064 C2088 0.950 . S
H2065 C2089 0.951 . S
H2066 C2091 0.951 . S
H2067 C2093 0.950 . S
H2068 C2094 0.950 1_556 S
H2069 C2096 0.950 . S
H2070 C2099 0.950 . S
H2071 C2100 0.950 . S
H2072 C2102 0.950 . S
H2073 C2103 0.950 . S
C2074 H2056 0.951 . S
C2074 C2075 1.366 . S
C2074 C2076 1.388 . S
C2075 C2074 1.366 . S
C2075 C2079 1.385 . S
C2076 H2057 0.951 . S
C2076 C2074 1.388 . S
C2076 C2077 1.366 . S
C2077 C2076 1.366 . S
C2077 C2078 1.414 1_556 S
C2077 C2080 1.499 . S
C2078 H2058 0.950 . S
C2078 C2077 1.414 1_554 S
C2078 C2079 1.374 1_554 S
C2079 H2059 0.950 1_556 S
C2079 C2075 1.385 . S
C2079 C2078 1.374 1_556 S
C2080 C2077 1.499 . S
C2080 C2081 1.373 1_556 S
C2080 C2082 1.389 . S
C2081 H2060 0.950 . S
C2081 C2080 1.373 1_554 S
C2081 C2097 1.377 . S
C2082 C2080 1.389 . S
C2082 C2083 1.524 . S
C2082 C2096 1.377 . S
C2083 C2082 1.524 . S
C2083 C2084 1.397 . S
C2083 C2088 1.363 . S
C2084 H2061 0.950 . S
C2084 C2083 1.397 . S
C2084 C2085 1.334 . S
C2085 H2062 0.950 . S
C2085 C2084 1.334 . S
C2085 C2086 1.287 . S
C2086 C2085 1.287 . S
C2086 C2087 1.524 . S
C2086 H2105 0.913 . S
C2087 H2063 0.950 . S
C2087 C2086 1.524 . S
C2087 C2088 1.415 . S
C2088 H2064 0.950 . S
C2088 C2083 1.363 . S
C2088 C2087 1.415 . S
C2089 H2065 0.951 . S
C2089 C2090 1.366 . S
C2089 C2091 1.388 . S
C2090 C2089 1.366 . S
C2090 C2094 1.385 . S
C2091 H2066 0.951 . S
C2091 C2089 1.388 . S
C2091 C2092 1.366 . S
C2092 C2091 1.366 . S
C2092 C2093 1.414 1_554 S
C2092 C2095 1.499 . S
C2093 H2067 0.950 . S
C2093 C2092 1.414 1_556 S
C2093 C2094 1.374 1_556 S
C2094 H2068 0.950 1_554 S
C2094 C2090 1.385 . S
C2094 C2093 1.374 1_554 S
C2095 C2092 1.499 . S
C2095 C2096 1.373 1_554 S
C2095 C2097 1.389 . S
C2096 H2069 0.950 . S
C2096 C2082 1.377 . S
C2096 C2095 1.373 1_556 S
C2097 C2081 1.377 . S
C2097 C2095 1.389 . S
C2097 C2098 1.524 . S
C2098 C2097 1.524 . S
C2098 C2099 1.397 . S
C2098 C2103 1.363 . S
C2099 H2070 0.950 . S
C2099 C2098 1.397 . S
C2099 C2100 1.334 . S
C2100 H2071 0.950 . S
C2100 C2099 1.334 . S
C2100 C2101 1.287 . S
C2101 C2100 1.287 . S
C2101 C2102 1.524 . S
C2101 H2104 0.999 . S
C2102 H2072 0.950 . S
C2102 C2101 1.524 . S
C2102 C2103 1.415 . S
C2103 H2073 0.950 . S
C2103 C2098 1.363 . S
C2103 C2102 1.415 . S
H2104 C2101 0.999 . S
H2105 C2086 0.913 . S
H2106 C2124 0.951 . S
H2107 C2126 0.951 . S
H2108 C2128 0.950 . S
H2109 C2129 0.950 . S
H2110 C2131 0.950 . S
H2111 C2134 0.950 . S
H2112 C2135 0.950 . S
H2113 C2137 0.950 . S
H2114 C2138 0.950 . S
H2115 C2139 0.951 . S
H2116 C2141 0.951 . S
H2117 C2143 0.950 . S
H2118 C2144 0.950 . S
H2119 C2146 0.950 . S
H2120 C2149 0.950 . S
H2121 C2150 0.950 . S
H2122 C2152 0.950 . S
H2123 C2153 0.950 . S
C2124 H2106 0.951 . S
C2124 C2125 1.366 . S
C2124 C2126 1.388 . S
C2125 C2124 1.366 . S
C2125 C2129 1.385 . S
C2126 H2107 0.951 . S
C2126 C2124 1.388 . S
C2126 C2127 1.366 . S
C2127 C2126 1.366 . S
C2127 C2128 1.414 . S
C2127 C2130 1.499 . S
C2128 H2108 0.950 . S
C2128 C2127 1.414 . S
C2128 C2129 1.374 . S
C2129 H2109 0.950 . S
C2129 C2125 1.385 . S
C2129 C2128 1.374 . S
C2130 C2127 1.499 . S
C2130 C2131 1.373 . S
C2130 C2132 1.389 . S
C2131 H2110 0.950 . S
C2131 C2130 1.373 . S
C2131 C2147 1.377 . S
C2132 C2130 1.389 . S
C2132 C2133 1.524 . S
C2132 C2146 1.377 . S
C2133 C2132 1.524 . S
C2133 C2134 1.397 . S
C2133 C2138 1.363 . S
C2134 H2111 0.950 . S
C2134 C2133 1.397 . S
C2134 C2135 1.334 . S
C2135 H2112 0.950 . S
C2135 C2134 1.334 . S
C2135 C2136 1.287 . S
C2136 C2135 1.287 . S
C2136 C2137 1.524 . S
C2136 H2155 0.913 . S
C2137 H2113 0.950 . S
C2137 C2136 1.524 . S
C2137 C2138 1.415 . S
C2138 H2114 0.950 . S
C2138 C2133 1.363 . S
C2138 C2137 1.415 . S
C2139 H2115 0.951 . S
C2139 C2140 1.366 . S
C2139 C2141 1.388 . S
C2140 C2139 1.366 . S
C2140 C2144 1.385 . S
C2141 H2116 0.951 . S
C2141 C2139 1.388 . S
C2141 C2142 1.366 . S
C2142 C2141 1.366 . S
C2142 C2143 1.414 . S
C2142 C2145 1.499 . S
C2143 H2117 0.950 . S
C2143 C2142 1.414 . S
C2143 C2144 1.374 . S
C2144 H2118 0.950 . S
C2144 C2140 1.385 . S
C2144 C2143 1.374 . S
C2145 C2142 1.499 . S
C2145 C2146 1.373 . S
C2145 C2147 1.389 . S
C2146 H2119 0.950 . S
C2146 C2132 1.377 . S
C2146 C2145 1.373 . S
C2147 C2131 1.377 . S
C2147 C2145 1.389 . S
C2147 C2148 1.524 . S
C2148 C2147 1.524 . S
C2148 C2149 1.397 . S
C2148 C2153 1.363 . S
C2149 H2120 0.950 . S
C2149 C2148 1.397 . S
C2149 C2150 1.334 . S
C2150 H2121 0.950 . S
C2150 C2149 1.334 . S
C2150 C2151 1.287 . S
C2151 C2150 1.287 . S
C2151 C2152 1.524 . S
C2151 H2154 0.999 . S
C2152 H2122 0.950 . S
C2152 C2151 1.524 . S
C2152 C2153 1.415 . S
C2153 H2123 0.950 . S
C2153 C2148 1.363 . S
C2153 C2152 1.415 . S
H2154 C2151 0.999 . S
H2155 C2136 0.913 . S
H2156 C2174 0.951 . S
H2157 C2176 0.951 . S
H2158 C2178 0.950 . S
H2159 C2179 0.950 . S
H2160 C2181 0.950 . S
H2161 C2184 0.950 . S
H2162 C2185 0.950 . S
H2163 C2187 0.950 . S
H2164 C2188 0.950 . S
H2165 C2189 0.951 . S
H2166 C2191 0.951 . S
H2167 C2193 0.950 . S
H2168 C2194 0.950 . S
H2169 C2196 0.950 . S
H2170 C2199 0.950 . S
H2171 C2200 0.950 . S
H2172 C2202 0.950 . S
H2173 C2203 0.950 . S
C2174 H2156 0.951 . S
C2174 C2175 1.366 . S
C2174 C2176 1.388 . S
C2175 C2174 1.366 . S
C2175 C2179 1.385 . S
C2176 H2157 0.951 . S
C2176 C2174 1.388 . S
C2176 C2177 1.366 . S
C2177 C2176 1.366 . S
C2177 C2178 1.414 . S
C2177 C2180 1.499 . S
C2178 H2158 0.950 . S
C2178 C2177 1.414 . S
C2178 C2179 1.374 . S
C2179 H2159 0.950 . S
C2179 C2175 1.385 . S
C2179 C2178 1.374 . S
C2180 C2177 1.499 . S
C2180 C2181 1.373 . S
C2180 C2182 1.389 . S
C2181 H2160 0.950 . S
C2181 C2180 1.373 . S
C2181 C2197 1.377 . S
C2182 C2180 1.389 . S
C2182 C2183 1.524 . S
C2182 C2196 1.377 . S
C2183 C2182 1.524 . S
C2183 C2184 1.397 . S
C2183 C2188 1.363 . S
C2184 H2161 0.950 . S
C2184 C2183 1.397 . S
C2184 C2185 1.334 . S
C2185 H2162 0.950 . S
C2185 C2184 1.334 . S
C2185 C2186 1.287 . S
C2186 C2185 1.287 . S
C2186 C2187 1.524 . S
C2186 H2205 0.913 . S
C2187 H2163 0.950 . S
C2187 C2186 1.524 . S
C2187 C2188 1.415 . S
C2188 H2164 0.950 . S
C2188 C2183 1.363 . S
C2188 C2187 1.415 . S
C2189 H2165 0.951 . S
C2189 C2190 1.366 . S
C2189 C2191 1.388 . S
C2190 C2189 1.366 . S
C2190 C2194 1.385 . S
C2191 H2166 0.951 . S
C2191 C2189 1.388 . S
C2191 C2192 1.366 . S
C2192 C2191 1.366 . S
C2192 C2193 1.414 . S
C2192 C2195 1.499 . S
C2193 H2167 0.950 . S
C2193 C2192 1.414 . S
C2193 C2194 1.374 . S
C2194 H2168 0.950 . S
C2194 C2190 1.385 . S
C2194 C2193 1.374 . S
C2195 C2192 1.499 . S
C2195 C2196 1.373 . S
C2195 C2197 1.389 . S
C2196 H2169 0.950 . S
C2196 C2182 1.377 . S
C2196 C2195 1.373 . S
C2197 C2181 1.377 . S
C2197 C2195 1.389 . S
C2197 C2198 1.524 . S
C2198 C2197 1.524 . S
C2198 C2199 1.397 . S
C2198 C2203 1.363 . S
C2199 H2170 0.950 . S
C2199 C2198 1.397 . S
C2199 C2200 1.334 . S
C2200 H2171 0.950 . S
C2200 C2199 1.334 . S
C2200 C2201 1.287 . S
C2201 C2200 1.287 . S
C2201 C2202 1.524 . S
C2201 H2204 0.999 . S
C2202 H2172 0.950 . S
C2202 C2201 1.524 . S
C2202 C2203 1.415 . S
C2203 H2173 0.950 . S
C2203 C2198 1.363 . S
C2203 C2202 1.415 . S
H2204 C2201 0.999 . S
H2205 C2186 0.913 . S
H2206 C2224 0.951 . S
H2207 C2226 0.951 . S
H2208 C2228 0.950 . S
H2209 C2229 0.950 1_556 S
H2210 C2231 0.950 . S
H2211 C2234 0.950 . S
H2212 C2235 0.950 . S
H2213 C2237 0.950 . S
H2214 C2238 0.950 . S
H2215 C2239 0.951 . S
H2216 C2241 0.951 . S
H2217 C2243 0.950 . S
H2218 C2244 0.950 1_554 S
H2219 C2246 0.950 . S
H2220 C2249 0.950 . S
H2221 C2250 0.950 . S
H2222 C2252 0.950 . S
H2223 C2253 0.950 . S
C2224 H2206 0.951 . S
C2224 C2225 1.366 . S
C2224 C2226 1.388 . S
C2225 C2224 1.366 . S
C2225 C2229 1.385 . S
C2226 H2207 0.951 . S
C2226 C2224 1.388 . S
C2226 C2227 1.366 . S
C2227 C2226 1.366 . S
C2227 C2228 1.414 1_554 S
C2227 C2230 1.499 . S
C2228 H2208 0.950 . S
C2228 C2227 1.414 1_556 S
C2228 C2229 1.374 1_556 S
C2229 H2209 0.950 1_554 S
C2229 C2225 1.385 . S
C2229 C2228 1.374 1_554 S
C2230 C2227 1.499 . S
C2230 C2231 1.373 1_554 S
C2230 C2232 1.389 . S
C2231 H2210 0.950 . S
C2231 C2230 1.373 1_556 S
C2231 C2247 1.377 . S
C2232 C2230 1.389 . S
C2232 C2233 1.524 . S
C2232 C2246 1.377 . S
C2233 C2232 1.524 . S
C2233 C2234 1.397 . S
C2233 C2238 1.363 . S
C2234 H2211 0.950 . S
C2234 C2233 1.397 . S
C2234 C2235 1.334 . S
C2235 H2212 0.950 . S
C2235 C2234 1.334 . S
C2235 C2236 1.287 . S
C2236 C2235 1.287 . S
C2236 C2237 1.524 . S
C2236 H2255 0.913 . S
C2237 H2213 0.950 . S
C2237 C2236 1.524 . S
C2237 C2238 1.415 . S
C2238 H2214 0.950 . S
C2238 C2233 1.363 . S
C2238 C2237 1.415 . S
C2239 H2215 0.951 . S
C2239 C2240 1.366 . S
C2239 C2241 1.388 . S
C2240 C2239 1.366 . S
C2240 C2244 1.385 . S
C2241 H2216 0.951 . S
C2241 C2239 1.388 . S
C2241 C2242 1.366 . S
C2242 C2241 1.366 . S
C2242 C2243 1.414 1_556 S
C2242 C2245 1.499 . S
C2243 H2217 0.950 . S
C2243 C2242 1.414 1_554 S
C2243 C2244 1.374 1_554 S
C2244 H2218 0.950 1_556 S
C2244 C2240 1.385 . S
C2244 C2243 1.374 1_556 S
C2245 C2242 1.499 . S
C2245 C2246 1.373 1_556 S
C2245 C2247 1.389 . S
C2246 H2219 0.950 . S
C2246 C2232 1.377 . S
C2246 C2245 1.373 1_554 S
C2247 C2231 1.377 . S
C2247 C2245 1.389 . S
C2247 C2248 1.524 . S
C2248 C2247 1.524 . S
C2248 C2249 1.397 . S
C2248 C2253 1.363 . S
C2249 H2220 0.950 . S
C2249 C2248 1.397 . S
C2249 C2250 1.334 . S
C2250 H2221 0.950 . S
C2250 C2249 1.334 . S
C2250 C2251 1.287 . S
C2251 C2250 1.287 . S
C2251 C2252 1.524 . S
C2251 H2254 0.999 . S
C2252 H2222 0.950 . S
C2252 C2251 1.524 . S
C2252 C2253 1.415 . S
C2253 H2223 0.950 . S
C2253 C2248 1.363 . S
C2253 C2252 1.415 . S
H2254 C2251 0.999 . S
H2255 C2236 0.913 . S
C1075 C29 1.319 . S
C1090 C849 1.319 . S
C1125 C117 1.319 . S
C1140 C937 1.319 . S
C1175 C196 1.319 . S
C1190 C1017 1.319 . S
C1225 C293 1.320 . S
C1240 C585 1.320 . S
C1275 C665 1.319 . S
C1290 C381 1.319 . S
C1325 C761 1.318 . S
C1340 C469 1.319 . S
C1375 C909 2.040 . S
C1390 C57 2.040 . S
C1425 C145 2.039 . S
C1440 C988 2.040 . S
C1475 C225 2.039 . S
C1490 C557 2.039 . S
C1525 C321 2.040 . S
C1540 C636 2.040 . S
C1575 C409 2.040 . S
C1590 C733 2.040 . S
C1625 C497 2.040 . S
C1640 C821 2.040 . S
C1675 C929 0.285 . S
C1690 C20 0.283 . S
C1725 C108 0.286 . S
C1740 C1025 0.284 . S
C1775 C205 0.283 . S
C1790 C577 0.283 . S
C1825 C284 0.284 . S
C1840 C673 0.285 . S
C1875 C372 0.283 . S
C1890 C753 0.285 . S
C1925 C460 0.284 . S
C1940 C841 0.283 . S
C1975 C49 1.679 . S
C1990 C548 1.679 . S
C2025 C645 1.679 . S
C2040 C137 1.679 . S
C2075 C233 1.679 . S
C2090 C724 1.679 . S
C2125 C313 1.679 . S
C2140 C812 1.679 . S
C2175 C401 1.679 . S
C2190 C900 1.679 . S
C2225 C997 1.679 . S
C2240 C489 1.679 . S
