# Generated by pormake.
# Topology lcy, (6)-cn, num edge types: 1
# Building blocks:
#     Node 0, Type 0, BuildingBlock: FUNLAD_clean_sbu_0, # of connection points: 6
#     Node 1, Type 0, BuildingBlock: FUNLAD_clean_sbu_0, # of connection points: 6
#     Node 2, Type 0, BuildingBlock: FUNLAD_clean_sbu_0, # of connection points: 6
#     Node 3, Type 0, BuildingBlock: FUNLAD_clean_sbu_0, # of connection points: 6
#     Edge 4, Type (0, 0), BuildingBlock: ZUJKAS_clean_linker_0, # of connection points: 2
#     Edge 5, Type (0, 0), BuildingBlock: ZUJKAS_clean_linker_0, # of connection points: 2
#     Edge 6, Type (0, 0), BuildingBlock: ZUJKAS_clean_linker_0, # of connection points: 2
#     Edge 7, Type (0, 0), BuildingBlock: ZUJKAS_clean_linker_0, # of connection points: 2
#     Edge 8, Type (0, 0), BuildingBlock: ZUJKAS_clean_linker_0, # of connection points: 2
#     Edge 9, Type (0, 0), BuildingBlock: ZUJKAS_clean_linker_0, # of connection points: 2
#     Edge 10, Type (0, 0), BuildingBlock: ZUJKAS_clean_linker_0, # of connection points: 2
#     Edge 11, Type (0, 0), BuildingBlock: ZUJKAS_clean_linker_0, # of connection points: 2
#     Edge 12, Type (0, 0), BuildingBlock: ZUJKAS_clean_linker_0, # of connection points: 2
#     Edge 13, Type (0, 0), BuildingBlock: ZUJKAS_clean_linker_0, # of connection points: 2
#     Edge 14, Type (0, 0), BuildingBlock: ZUJKAS_clean_linker_0, # of connection points: 2
#     Edge 15, Type (0, 0), BuildingBlock: ZUJKAS_clean_linker_0, # of connection points: 2
# Relax obj value: 0.581
# Max RMSD: 0.338
# Mean RMSD: 0.311
data_MOF--net-lcy--node1-FUNLAD_clean_sbu_0--edge1-ZUJKAS_clean_linker_0
_symmetry_space_group_name_H-M    P1
_symmetry_Int_Tables_number       1
_symmetry_cell_setting            triclinic
loop_
_symmetry_equiv_pos_as_xyz
'x, y, z'
_cell_length_a     34.864491
_cell_length_b     34.785849
_cell_length_c     34.197977
_cell_angle_alpha  82.596356
_cell_angle_beta   82.017941
_cell_angle_gamma 75.427725
loop_
_atom_site_label
_atom_site_type_symbol
_atom_site_fract_x
_atom_site_fract_y
_atom_site_fract_z
_atom_type_partial_charge
C0 C 0.31511 0.44102 0.34014 0.0
N1 N 0.42159 0.46408 0.36096 0.0
C2 C 0.427 0.47409 0.32114 0.0
C3 C 0.44669 0.50408 0.30603 0.0
C4 C 0.46109 0.52377 0.33218 0.0
C5 C 0.45678 0.51138 0.37294 0.0
C6 C 0.43668 0.48152 0.38676 0.0
Zn7 Zn 0.38623 0.42616 0.38361 0.0
C8 C 0.32801 0.45952 0.4525 0.0
N9 N 0.31098 0.34917 0.43321 0.0
C10 C 0.29486 0.33304 0.40717 0.0
C11 C 0.30177 0.34236 0.47306 0.0
C12 C 0.27441 0.31942 0.48804 0.0
C13 C 0.25625 0.30353 0.46173 0.0
C14 C 0.26729 0.31015 0.42081 0.0
Zn15 Zn 0.34726 0.38627 0.41079 0.0
O16 O 0.34578 0.45362 0.34234 0.0
C17 C 0.40624 0.3496 0.3461 0.0
O18 O 0.30713 0.41332 0.36579 0.0
H19 H 0.31506 0.35539 0.49321 0.0
H20 H 0.41472 0.45985 0.30118 0.0
H21 H 0.30261 0.33877 0.3756 0.0
O22 O 0.41677 0.38262 0.34201 0.0
O23 O 0.37827 0.34448 0.37261 0.0
H24 H 0.43204 0.47319 0.41831 0.0
O25 O 0.38915 0.35941 0.45386 0.0
O26 O 0.4265 0.39911 0.42399 0.0
O27 O 0.31643 0.42803 0.45079 0.0
O28 O 0.35591 0.46748 0.42693 0.0
C29 C 0.42074 0.37217 0.45123 0.0
H30 H 0.449 0.5129 0.27442 0.0
H31 H 0.46805 0.5252 0.3941 0.0
H32 H 0.26721 0.31461 0.51985 0.0
H33 H 0.25371 0.29903 0.39938 0.0
C34 C 0.78653 0.19635 0.61521 0.0
N35 N 0.84686 0.08026 0.59117 0.0
C36 C 0.81364 0.06785 0.58757 0.0
C37 C 0.81676 0.03465 0.56736 0.0
C38 C 0.85433 0.0146 0.55046 0.0
C39 C 0.88778 0.02905 0.55313 0.0
C40 C 0.8834 0.06193 0.57399 0.0
Zn41 Zn 0.84499 0.12053 0.62964 0.0
C42 C 0.90493 0.168 0.60536 0.0
N43 N 0.8463 0.19866 0.71517 0.0
C44 C 0.81374 0.22786 0.72596 0.0
C45 C 0.8819 0.19528 0.72896 0.0
C46 C 0.88592 0.22196 0.75428 0.0
C47 C 0.85329 0.25306 0.76482 0.0
C48 C 0.81674 0.2559 0.75058 0.0
Zn49 Zn 0.84469 0.16023 0.67523 0.0
O50 O 0.80048 0.16228 0.60261 0.0
C51 C 0.78622 0.11339 0.70136 0.0
O52 O 0.80083 0.20518 0.64436 0.0
H53 H 0.90768 0.17254 0.71942 0.0
H54 H 0.78495 0.08277 0.60159 0.0
H55 H 0.78568 0.23002 0.71476 0.0
O56 O 0.80101 0.09733 0.66954 0.0
O57 O 0.79864 0.14196 0.71035 0.0
H58 H 0.90962 0.07159 0.57797 0.0
O59 O 0.88711 0.11186 0.70609 0.0
O60 O 0.88805 0.0784 0.65612 0.0
O61 O 0.8916 0.17928 0.63949 0.0
O62 O 0.88964 0.14366 0.59179 0.0
C63 C 0.89982 0.07989 0.68899 0.0
H64 H 0.79022 0.02458 0.56517 0.0
H65 H 0.91718 0.0142 0.54044 0.0
H66 H 0.91478 0.21938 0.76411 0.0
H67 H 0.79104 0.27975 0.75803 0.0
C68 C 0.18176 0.58066 0.95798 0.0
N69 N 0.20425 0.68998 0.90598 0.0
C70 C 0.20692 0.69941 0.94273 0.0
C71 C 0.22908 0.72653 0.94726 0.0
C72 C 0.24875 0.74407 0.91366 0.0
C73 C 0.24612 0.73317 0.87617 0.0
C74 C 0.22353 0.70602 0.87298 0.0
Zn75 Zn 0.16777 0.65397 0.90003 0.0
C76 C 0.19946 0.59867 0.83725 0.0
N77 N 0.08875 0.58142 0.88981 0.0
C78 C 0.07437 0.55939 0.92167 0.0
C79 C 0.07884 0.5807 0.85288 0.0
C80 C 0.05379 0.55699 0.84682 0.0
C81 C 0.03913 0.53319 0.87895 0.0
C82 C 0.04958 0.53482 0.91686 0.0
Zn83 Zn 0.12616 0.61621 0.89649 0.0
O84 O 0.19291 0.61262 0.94579 0.0
C85 C 0.09038 0.67276 0.95455 0.0
O86 O 0.1552 0.57209 0.94079 0.0
H87 H 0.09058 0.59842 0.82794 0.0
H88 H 0.19136 0.68631 0.96855 0.0
H89 H 0.08245 0.56055 0.95083 0.0
O90 O 0.12191 0.68521 0.94294 0.0
O91 O 0.08607 0.64204 0.94115 0.0
H92 H 0.22073 0.69839 0.844 0.0
O93 O 0.09646 0.66351 0.85449 0.0
O94 O 0.143 0.69509 0.85649 0.0
O95 O 0.16636 0.59 0.84984 0.0
O96 O 0.21047 0.62376 0.85461 0.0
C97 C 0.11137 0.69358 0.84326 0.0
H98 H 0.23084 0.73363 0.97678 0.0
H99 H 0.26055 0.74623 0.84948 0.0
H100 H 0.04601 0.55739 0.81717 0.0
H101 H 0.03948 0.51669 0.94246 0.0
C102 C 0.5863 0.98784 0.1651 0.0
N103 N 0.69589 0.91268 0.19294 0.0
C104 C 0.70583 0.94234 0.20861 0.0
C105 C 0.73132 0.93296 0.23838 0.0
C106 C 0.74684 0.8927 0.25171 0.0
C107 C 0.73666 0.8629 0.23428 0.0
C108 C 0.7108 0.87357 0.2052 0.0
Zn109 Zn 0.65841 0.92327 0.15034 0.0
C110 C 0.60281 0.87011 0.16784 0.0
N111 N 0.58214 0.93664 0.06019 0.0
C112 C 0.55623 0.97165 0.04957 0.0
C113 C 0.58154 0.90213 0.04584 0.0
C114 C 0.55348 0.90155 0.0209 0.0
C115 C 0.52519 0.93672 0.01079 0.0
C116 C 0.52713 0.97233 0.02488 0.0
Zn117 Zn 0.61959 0.93119 0.10268 0.0
O118 O 0.61917 0.97049 0.17853 0.0
C119 C 0.67482 0.98316 0.08421 0.0
O120 O 0.57702 0.97572 0.13484 0.0
H121 H 0.60166 0.87442 0.05526 0.0
H122 H 0.69357 0.97319 0.19841 0.0
H123 H 0.5571 0.99875 0.06142 0.0
O124 O 0.68913 0.96435 0.11544 0.0
O125 O 0.64442 0.97583 0.07302 0.0
H126 H 0.70247 0.85031 0.19261 0.0
O127 O 0.6652 0.8884 0.06996 0.0
O128 O 0.69774 0.87734 0.12201 0.0
O129 O 0.59428 0.88528 0.13346 0.0
O130 O 0.62792 0.88214 0.18364 0.0
C131 C 0.69532 0.86966 0.08748 0.0
H132 H 0.73791 0.95696 0.2515 0.0
H133 H 0.74831 0.83155 0.24317 0.0
H134 H 0.55254 0.87324 0.01154 0.0
H135 H 0.50578 1.00007 0.01776 0.0
H136 H 0.24089 0.59012 0.99766 0.0
H137 H 0.25692 0.56104 0.06387 0.0
H138 H 0.17042 0.49047 0.07035 0.0
H139 H 0.1539 0.5197 0.00359 0.0
H140 H 0.19667 0.56867 0.13264 0.0
H141 H 0.27288 0.4106 0.11064 0.0
H142 H 0.26983 0.44982 0.07022 0.0
H143 H 0.22656 0.43166 0.08977 0.0
C144 C 0.22568 0.56785 0.01268 0.0
C145 C 0.19602 0.55732 0.9951 0.0
C146 C 0.23486 0.55133 0.05071 0.0
C147 C 0.21493 0.52357 0.07218 0.0
C148 C 0.18649 0.51155 0.05422 0.0
H149 H 0.25826 0.41038 0.31442 0.0
H150 H 0.22814 0.43014 0.25174 0.0
C151 C 0.17714 0.52824 0.01599 0.0
C152 C 0.22222 0.50988 0.11424 0.0
H153 H 0.26688 0.43005 0.17509 0.0
C154 C 0.21173 0.53826 0.14199 0.0
C155 C 0.24143 0.47013 0.1266 0.0
C156 C 0.25362 0.43863 0.09789 0.0
C157 C 0.22076 0.52829 0.18139 0.0
C158 C 0.2418 0.48901 0.19335 0.0
C159 C 0.25087 0.46017 0.16602 0.0
C160 C 0.25755 0.47836 0.23281 0.0
C161 C 0.20776 0.5601 0.2098 0.0
C162 C 0.28392 0.49889 0.24326 0.0
C163 C 0.30091 0.48786 0.27896 0.0
C164 C 0.29227 0.45572 0.30523 0.0
C165 C 0.26522 0.43556 0.29519 0.0
C166 C 0.24821 0.44664 0.2592 0.0
H167 H 0.18123 0.58313 0.2008 0.0
H168 H 0.20054 0.54716 0.24055 0.0
H169 H 0.23224 0.57525 0.20967 0.0
H170 H 0.29239 0.52284 0.22317 0.0
H171 H 0.32184 0.5039 0.28539 0.0
H172 H 0.74474 0.83321 0.31218 0.0
H173 H 0.77937 0.82064 0.37146 0.0
H174 H 0.83767 0.91578 0.32752 0.0
H175 H 0.80482 0.92728 0.26705 0.0
H176 H 0.88536 0.84791 0.37346 0.0
H177 H 0.73217 0.90801 0.44704 0.0
H178 H 0.74094 0.86397 0.42166 0.0
H179 H 0.74259 0.91105 0.39378 0.0
C180 C 0.76594 0.85062 0.3144 0.0
C181 C 0.77153 0.88179 0.28517 0.0
C182 C 0.78558 0.84341 0.34841 0.0
C183 C 0.81052 0.86763 0.35394 0.0
C184 C 0.81843 0.89678 0.32365 0.0
H185 H 0.89193 1.00096 0.47696 0.0
H186 H 0.89028 0.94745 0.4384 0.0
C187 C 0.79915 0.90377 0.28946 0.0
C188 C 0.82286 0.86801 0.39329 0.0
H189 H 0.7856 0.90927 0.4796 0.0
C190 C 0.86366 0.86024 0.39731 0.0
C191 C 0.79438 0.88335 0.42455 0.0
C192 C 0.75005 0.89229 0.42178 0.0
C193 C 0.87674 0.87102 0.43036 0.0
C194 C 0.8482 0.89092 0.45921 0.0
C195 C 0.80753 0.8943 0.45732 0.0
C196 C 0.8584 0.91617 0.48588 0.0
C197 C 0.92092 0.86294 0.43291 0.0
C198 C 0.84111 0.91655 0.5255 0.0
C199 C 0.84095 0.94796 0.54715 0.0
C200 C 0.85852 0.97907 0.52961 0.0
C201 C 0.87835 0.97715 0.49109 0.0
C202 C 0.87795 0.94617 0.46926 0.0
H203 H 0.93651 0.8338 0.42172 0.0
H204 H 0.93312 0.88633 0.41376 0.0
H205 H 0.92758 0.8627 0.46378 0.0
H206 H 0.8256 0.8939 0.53879 0.0
H207 H 0.82598 0.94866 0.5771 0.0
H208 H 0.18675 0.53944 0.79945 0.0
H209 H 0.21307 0.52188 0.7326 0.0
H210 H 0.28665 0.6063 0.72115 0.0
H211 H 0.26028 0.62424 0.78862 0.0
H212 H 0.20405 0.57866 0.66417 0.0
H213 H 0.36336 0.50413 0.67835 0.0
H214 H 0.32591 0.50945 0.72076 0.0
H215 H 0.34418 0.55173 0.6979 0.0
C216 C 0.20913 0.55384 0.78317 0.0
C217 C 0.22137 0.58332 0.79961 0.0
C218 C 0.22405 0.5438 0.74477 0.0
C219 C 0.25184 0.5627 0.72172 0.0
C220 C 0.26555 0.59095 0.73849 0.0
H221 H 0.35702 0.51845 0.47636 0.0
H222 H 0.33817 0.54887 0.53933 0.0
C223 C 0.25052 0.60112 0.77714 0.0
C224 C 0.26387 0.55448 0.6794 0.0
H225 H 0.34176 0.51008 0.61509 0.0
C226 C 0.23425 0.56389 0.6534 0.0
C227 C 0.30331 0.53561 0.66513 0.0
C228 C 0.33614 0.52432 0.69188 0.0
C229 C 0.24273 0.55427 0.61391 0.0
C230 C 0.28179 0.5338 0.60004 0.0
C231 C 0.31179 0.52567 0.62562 0.0
C232 C 0.29134 0.51808 0.56026 0.0
C233 C 0.20965 0.56619 0.58741 0.0
C234 C 0.27115 0.49092 0.55071 0.0
C235 C 0.28166 0.47373 0.51475 0.0
C236 C 0.3129 0.48298 0.48735 0.0
C237 C 0.3325 0.51098 0.49645 0.0
C238 C 0.32196 0.52817 0.53263 0.0
H239 H 0.18639 0.59232 0.5975 0.0
H240 H 0.2212 0.57361 0.55616 0.0
H241 H 0.19519 0.54102 0.58844 0.0
H242 H 0.24802 0.4819 0.57171 0.0
H243 H 0.26613 0.45203 0.50907 0.0
H244 H 0.74897 0.95893 0.04783 0.0
H245 H 0.76971 0.98443 0.98048 0.0
H246 H 0.66872 0.08584 0.98768 0.0
H247 H 0.64701 0.05918 0.05441 0.0
H248 H 0.66517 0.04093 0.93155 0.0
H249 H 0.81633 0.06918 0.91476 0.0
H250 H 0.8148 0.0211 0.94022 0.0
H251 H 0.78721 0.0655 0.96246 0.0
C252 C 0.73272 0.98793 0.03591 0.0
C253 C 0.69661 0.00735 0.05602 0.0
C254 C 0.74444 0.00241 0.99728 0.0
C255 C 0.72058 0.03691 0.97898 0.0
C256 C 0.68741 0.05908 0.00125 0.0
H257 H 0.72113 0.15148 0.7459 0.0
H258 H 0.69822 0.12652 0.8129 0.0
C259 C 0.6753 0.04418 0.0395 0.0
C260 C 0.72527 0.04521 0.93533 0.0
H261 H 0.79172 0.06032 0.85535 0.0
C262 C 0.69276 0.04557 0.91494 0.0
C263 C 0.76143 0.05054 0.91372 0.0
C264 C 0.79678 0.05195 0.93395 0.0
C265 C 0.69544 0.05131 0.87346 0.0
C266 C 0.73157 0.05644 0.85202 0.0
C267 C 0.76422 0.05567 0.87219 0.0
C268 C 0.73526 0.06679 0.80884 0.0
C269 C 0.65984 0.05184 0.85271 0.0
C270 C 0.76167 0.04059 0.78387 0.0
C271 C 0.77412 0.0546 0.74526 0.0
C272 C 0.76092 0.09509 0.73199 0.0
C273 C 0.7313 0.12004 0.75557 0.0
C274 C 0.71839 0.10589 0.79382 0.0
H275 H 0.63648 0.04051 0.873 0.0
H276 H 0.64666 0.08293 0.84093 0.0
H277 H 0.66909 0.03354 0.82717 0.0
H278 H 0.77506 0.01036 0.79528 0.0
H279 H 0.79749 0.03509 0.72775 0.0
H280 H 0.93676 0.22687 0.62217 0.0
H281 H -0.00087 0.24297 0.59238 0.0
H282 H 0.01607 0.15364 0.51099 0.0
H283 H 0.95301 0.13749 0.54047 0.0
H284 H 0.07361 0.18712 0.59133 0.0
H285 H 0.03834 0.2527 0.43935 0.0
H286 H -4e-05 0.24795 0.4797 0.0
H287 H 0.02781 0.20482 0.45589 0.0
C288 C 0.95336 0.21099 0.59752 0.0
C289 C 0.93999 0.18085 0.58369 0.0
C290 C 0.98905 0.2202 0.58061 0.0
C291 C 0.01211 0.19955 0.5495 0.0
C292 C 0.99839 0.17026 0.53467 0.0
H293 H 0.24256 0.23798 0.43408 0.0
H294 H 0.18601 0.20734 0.45487 0.0
C295 C 0.96241 0.16107 0.55154 0.0
C296 C 0.05153 0.20749 0.53462 0.0
H297 H 0.10288 0.2492 0.4551 0.0
C298 C 0.08016 0.2004 0.56144 0.0
C299 C 0.06001 0.22444 0.49553 0.0
C300 C 0.02993 0.23325 0.46588 0.0
C301 C 0.11666 0.21098 0.55058 0.0
C302 C 0.12444 0.22953 0.51208 0.0
C303 C 0.09663 0.23502 0.48465 0.0
C304 C 0.15976 0.24636 0.50082 0.0
C305 C 0.14638 0.20277 0.58055 0.0
C306 C 0.16353 0.27839 0.51983 0.0
C307 C 0.19545 0.29621 0.50783 0.0
C308 C 0.22423 0.28233 0.47652 0.0
C309 C 0.22068 0.24969 0.45799 0.0
C310 C 0.18855 0.23202 0.4699 0.0
H311 H 0.14098 0.17903 0.60418 0.0
H312 H 0.17738 0.19368 0.56605 0.0
H313 H 0.14361 0.23037 0.59486 0.0
H314 H 0.14114 0.29033 0.54328 0.0
H315 H 0.19674 0.32176 0.52221 0.0
H316 H 0.14333 0.75291 0.80438 0.0
H317 H 0.10809 0.81948 0.78089 0.0
H318 H 0.99638 0.78414 0.8059 0.0
H319 H 0.03174 0.71717 0.83161 0.0
H320 H 0.06541 0.84978 0.72454 0.0
H321 H 0.97068 0.8805 0.86649 0.0
H322 H 0.01104 0.83663 0.86182 0.0
H323 H 0.96351 0.83824 0.84592 0.0
C324 C 0.11126 0.759 0.80452 0.0
C325 C 0.09027 0.72981 0.82024 0.0
C326 C 0.0911 0.79725 0.79114 0.0
C327 C 0.04942 0.80733 0.79271 0.0
C328 C 0.02845 0.77746 0.80565 0.0
H329 H 0.91658 0.00729 0.66203 0.0
H330 H 0.95379 0.94443 0.69057 0.0
C331 C 0.04873 0.73897 0.81956 0.0
C332 C 0.02869 0.84922 0.78067 0.0
H333 H 0.95618 0.92924 0.81125 0.0
C334 C 0.04172 0.86712 0.74373 0.0
C335 C 0.99851 0.87242 0.80607 0.0
C336 C 0.98538 0.85615 0.84745 0.0
C337 C 0.02484 0.90696 0.73102 0.0
C338 C 0.99286 0.92931 0.75517 0.0
C339 C 0.98053 0.91201 0.79267 0.0
C340 C 0.96922 0.96869 0.73971 0.0
C341 C 0.04155 0.92468 0.69165 0.0
C342 C 0.96394 0.00351 0.75881 0.0
C343 C 0.9417 0.04034 0.74264 0.0
C344 C 0.92469 0.04255 0.70721 0.0
C345 C 0.92978 0.00727 0.68891 0.0
C346 C 0.95126 0.97097 0.70514 0.0
H347 H 0.0735 0.9099 0.68434 0.0
H348 H 0.02505 0.91998 0.66786 0.0
H349 H 0.03873 0.9572 0.69157 0.0
H350 H 0.97724 0.00222 0.78589 0.0
H351 H 0.9379 0.06683 0.75767 0.0
H352 H 0.22747 0.80532 0.96104 0.0
H353 H 0.26668 0.85211 0.97018 0.0
H354 H 0.36089 0.79649 0.88505 0.0
H355 H 0.32186 0.74966 0.87571 0.0
H356 H 0.33903 0.83112 0.99806 0.0
H357 H 0.35158 0.91421 0.84932 0.0
H358 H 0.31543 0.88444 0.86424 0.0
H359 H 0.36632 0.8611 0.8478 0.0
C360 C 0.25649 0.80316 0.94416 0.0
C361 C 0.27165 0.7737 0.91776 0.0
C362 C 0.27869 0.8301 0.94918 0.0
C363 C 0.31639 0.82824 0.9278 0.0
C364 C 0.33139 0.79922 0.90103 0.0
H365 H 0.52847 0.89668 0.94623 0.0
H366 H 0.47277 0.87839 0.92315 0.0
C367 C 0.30914 0.77233 0.89587 0.0
C368 C 0.34168 0.85387 0.93642 0.0
H369 H 0.39843 0.91822 0.89321 0.0
C370 C 0.35144 0.85074 0.97531 0.0
C371 C 0.35791 0.87932 0.90661 0.0
C372 C 0.34698 0.88532 0.86473 0.0
C373 C 0.37849 0.87085 0.98489 0.0
C374 C 0.39565 0.89542 0.95486 0.0
C375 C 0.38504 0.89952 0.91617 0.0
C376 C 0.42753 0.91366 0.96264 0.0
C377 C 0.39003 0.86396 0.02666 0.0
C378 C 0.42026 0.94129 0.9909 0.0
C379 C 0.45208 0.95155 0.00439 0.0
C380 C 0.49158 0.9344 0.98964 0.0
C381 C 0.49838 0.90981 0.95858 0.0
C382 C 0.46659 0.89951 0.94522 0.0
H383 H 0.37986 0.8384 0.04406 0.0
H384 H 0.42288 0.8582 0.02633 0.0
H385 H 0.37619 0.89104 0.04219 0.0
H386 H 0.39018 0.95299 0.00423 0.0
H387 H 0.44588 0.9705 0.02838 0.0
H388 H 0.39892 0.27332 0.36068 0.0
H389 H 0.42918 0.21738 0.32234 0.0
H390 H 0.48794 0.29274 0.23731 0.0
H391 H 0.45811 0.34964 0.27673 0.0
H392 H 0.42058 0.20704 0.2481 0.0
H393 H 0.57979 0.19835 0.26164 0.0
H394 H 0.53948 0.22891 0.29114 0.0
H395 H 0.55208 0.24515 0.24 0.0
C396 C 0.41834 0.27832 0.33389 0.0
C397 C 0.42607 0.31615 0.32181 0.0
C398 C 0.4356 0.24611 0.31189 0.0
C399 C 0.46101 0.25061 0.277 0.0
C400 C 0.46891 0.28834 0.26451 0.0
H401 H 0.53052 0.04753 0.12993 0.0
H402 H 0.49928 0.11319 0.15299 0.0
C403 C 0.45176 0.32086 0.28693 0.0
C404 C 0.47853 0.21521 0.25446 0.0
H405 H 0.56629 0.14954 0.22763 0.0
C406 C 0.45249 0.19463 0.24326 0.0
C407 C 0.52013 0.19885 0.24848 0.0
C408 C 0.54961 0.21866 0.26116 0.0
C409 C 0.4667 0.15751 0.22777 0.0
C410 C 0.50829 0.14091 0.22218 0.0
C411 C 0.53441 0.16222 0.23197 0.0
C412 C 0.5254 0.10051 0.2085 0.0
C413 C 0.43688 0.13557 0.21952 0.0
C414 C 0.55064 0.07145 0.23183 0.0
C415 C 0.56885 0.03413 0.21852 0.0
C416 C 0.56208 0.02486 0.18163 0.0
C417 C 0.53581 0.05348 0.15879 0.0
C418 C 0.51794 0.09109 0.17194 0.0
H419 H 0.40678 0.14726 0.23503 0.0
H420 H 0.43433 0.13944 0.18719 0.0
H421 H 0.4465 0.10315 0.22883 0.0
H422 H 0.55677 0.07788 0.26019 0.0
H423 H 0.58904 0.01284 0.23677 0.0
H424 H 0.73299 0.26013 0.64729 0.0
H425 H 0.66817 0.29508 0.62466 0.0
H426 H 0.69394 0.22521 0.52465 0.0
H427 H 0.75848 0.19101 0.5464 0.0
H428 H 0.6599 0.3032 0.50412 0.0
H429 H 0.57295 0.24361 0.63646 0.0
H430 H 0.60699 0.27119 0.6468 0.0
H431 H 0.62602 0.22471 0.62528 0.0
C432 C 0.72511 0.25286 0.62006 0.0
C433 C 0.75079 0.22265 0.59876 0.0
C434 C 0.68786 0.27244 0.60747 0.0
C435 C 0.67583 0.26203 0.57349 0.0
C436 C 0.70239 0.23347 0.55115 0.0
H437 H 0.44562 0.2955 0.48609 0.0
H438 H 0.50623 0.26905 0.51995 0.0
C439 C 0.73938 0.21399 0.56363 0.0
C440 C 0.63552 0.28008 0.56096 0.0
H441 H 0.53603 0.28679 0.58833 0.0
C442 C 0.63282 0.29981 0.52264 0.0
C443 C 0.60025 0.2749 0.58487 0.0
C444 C 0.60147 0.25217 0.62552 0.0
C445 C 0.59596 0.31446 0.50751 0.0
C446 C 0.56058 0.31014 0.5317 0.0
C447 C 0.56316 0.29032 0.57001 0.0
C448 C 0.52088 0.32632 0.51727 0.0
C449 C 0.59538 0.33356 0.46528 0.0
C450 C 0.50816 0.36734 0.50638 0.0
C451 C 0.47414 0.38223 0.48689 0.0
C452 C 0.45164 0.35654 0.47851 0.0
C453 C 0.46242 0.31589 0.49228 0.0
C454 C 0.49702 0.30082 0.51147 0.0
H455 H 0.62498 0.32502 0.44769 0.0
H456 H 0.57295 0.32503 0.4502 0.0
H457 H 0.58737 0.36651 0.46539 0.0
H458 H 0.52557 0.38765 0.5114 0.0
H459 H 0.4662 0.41382 0.47705 0.0
H460 H 0.04636 0.49029 0.81553 0.0
H461 H 0.00599 0.44575 0.80471 0.0
H462 H 0.9371 0.46679 0.91812 0.0
H463 H 0.9758 0.5137 0.92815 0.0
H464 H -0.0006 0.37781 0.84665 0.0
H465 H 0.84968 0.48197 0.84773 0.0
H466 H 0.89485 0.49905 0.84483 0.0
H467 H 0.87349 0.47927 0.89164 0.0
C468 C 0.02204 0.48634 0.83785 0.0
C469 C 0.01419 0.50601 0.87258 0.0
C470 C -0.0008 0.46047 0.83176 0.0
C471 C 0.96817 0.45329 0.86035 0.0
C472 C 0.96032 0.47252 0.89525 0.0
H473 H 0.88189 0.24277 0.83659 0.0
H474 H 0.90399 0.2922 0.86732 0.0
C475 C 0.98293 0.49887 0.90119 0.0
C476 C 0.94561 0.42417 0.85391 0.0
H477 H 0.85289 0.41395 0.84282 0.0
C478 C 0.96733 0.38567 0.84597 0.0
C479 C 0.90379 0.4346 0.85283 0.0
C480 C 0.87905 0.47606 0.85935 0.0
C481 C 0.94873 0.35762 0.83581 0.0
C482 C 0.90684 0.36783 0.83508 0.0
C483 C 0.8849 0.40606 0.8439 0.0
C484 C 0.8861 0.34031 0.82177 0.0
C485 C 0.97455 0.31808 0.82404 0.0
C486 C 0.86592 0.35182 0.78778 0.0
C487 C 0.85236 0.32392 0.77084 0.0
C488 C 0.85914 0.28409 0.78749 0.0
C489 C 0.87669 0.2733 0.8231 0.0
C490 C 0.88955 0.30139 0.84044 0.0
H491 H 0.00636 0.31909 0.81658 0.0
H492 H 0.97286 0.29476 0.84918 0.0
H493 H 0.96433 0.30905 0.79804 0.0
H494 H 0.86274 0.38175 0.773 0.0
H495 H 0.83906 0.33282 0.74326 0.0
H496 H 0.06643 0.75415 0.95393 0.0
H497 H 0.99868 0.79211 0.97513 0.0
H498 H 0.96662 0.68266 0.02492 0.0
H499 H 0.03377 0.6448 0.00393 0.0
H500 H 0.91879 0.73235 0.96315 0.0
H501 H 0.93327 0.81454 0.08781 0.0
H502 H 0.96857 0.81462 0.04398 0.0
H503 H 0.96902 0.76913 0.07537 0.0
C504 C 0.0454 0.73845 0.97087 0.0
C505 C 0.05536 0.69656 0.97739 0.0
C506 C 0.00663 0.76009 0.9826 0.0
C507 C 0.97764 0.74005 0.00124 0.0
C508 C 0.98851 0.6986 0.01036 0.0
H509 H 0.74477 0.80508 0.12107 0.0
H510 H 0.81267 0.77402 0.09474 0.0
C511 C 0.02698 0.67707 0.99863 0.0
C512 C 0.93511 0.76119 0.00824 0.0
H513 H 0.86887 0.82266 0.06956 0.0
C514 C 0.9078 0.75246 0.98613 0.0
C515 C 0.92108 0.78727 0.03821 0.0
C516 C 0.94929 0.79703 0.06299 0.0
C517 C 0.86657 0.76831 0.994 0.0
C518 C 0.85243 0.79362 0.02466 0.0
C519 C 0.87987 0.80322 0.04602 0.0
C520 C 0.80928 0.80816 0.0373 0.0
C521 C 0.8383 0.75669 0.97065 0.0
C522 C 0.78422 0.83641 0.01302 0.0
C523 C 0.74496 0.85392 0.02792 0.0
C524 C 0.73062 0.84358 0.06735 0.0
C525 C 0.75501 0.81342 0.0905 0.0
C526 C 0.79391 0.79591 0.07563 0.0
H527 H 0.85367 0.73225 0.95195 0.0
H528 H 0.81399 0.74703 0.99096 0.0
H529 H 0.82444 0.78297 0.95098 0.0
H530 H 0.79567 0.84652 0.98345 0.0
H531 H 0.72707 0.87769 0.00977 0.0
H532 H 0.61502 0.8305 0.24124 0.0
H533 H 0.5909 0.77212 0.27174 0.0
H534 H 0.52936 0.77556 0.16983 0.0
H535 H 0.55259 0.83428 0.13945 0.0
H536 H 0.48404 0.76258 0.24053 0.0
H537 H 0.63468 0.6599 0.23677 0.0
H538 H 0.62928 0.70327 0.26231 0.0
H539 H 0.6254 0.70892 0.20991 0.0
C540 C 0.5961 0.81901 0.22545 0.0
C541 C 0.58587 0.83688 0.18784 0.0
C542 C 0.58263 0.78549 0.24279 0.0
C543 C 0.55905 0.76912 0.22264 0.0
C544 C 0.54776 0.78764 0.18571 0.0
H545 H 0.5109 0.53392 0.26408 0.0
H546 H 0.53457 0.59379 0.23796 0.0
C547 C 0.56106 0.8212 0.16843 0.0
C548 C 0.54615 0.73257 0.23981 0.0
H549 H 0.58086 0.63386 0.26984 0.0
C550 C 0.50517 0.73442 0.24698 0.0
C551 C 0.57388 0.69579 0.24755 0.0
C552 C 0.61827 0.69158 0.23843 0.0
C553 C 0.49106 0.7005 0.26202 0.0
C554 C 0.51876 0.66399 0.27085 0.0
C555 C 0.55976 0.66202 0.26336 0.0
C556 C 0.50567 0.62739 0.28739 0.0
C557 C 0.44666 0.70386 0.26748 0.0
C558 C 0.48231 0.62628 0.32415 0.0
C559 C 0.46841 0.5924 0.33891 0.0
C560 C 0.47803 0.55874 0.31739 0.0
C561 C 0.50249 0.55953 0.28109 0.0
C562 C 0.51625 0.59357 0.26626 0.0
H563 H 0.43045 0.7305 0.24969 0.0
H564 H 0.43963 0.67688 0.25892 0.0
H565 H 0.43531 0.70679 0.29918 0.0
H566 H 0.47444 0.65184 0.34123 0.0
H567 H 0.44927 0.59304 0.36672 0.0
loop_
_geom_bond_atom_site_label_1
_geom_bond_atom_site_label_2
_geom_bond_distance
_geom_bond_site_symmetry_2
_ccdc_geom_bond_type
C0 O16 1.251 . S
C0 O18 1.254 . S
N1 C2 1.333 . S
N1 C6 1.307 . S
N1 Zn7 2.020 . S
C2 N1 1.333 . S
C2 C3 1.379 . S
C2 H20 0.952 . S
C3 C2 1.379 . S
C3 C4 1.390 . S
C3 H30 0.949 . S
C4 C3 1.390 . S
C4 C5 1.357 . S
C5 C4 1.357 . S
C5 C6 1.370 . S
C5 H31 0.950 . S
C6 N1 1.307 . S
C6 C5 1.370 . S
C6 H24 0.948 . S
Zn7 N1 2.020 . S
Zn7 O16 2.039 . S
Zn7 O22 2.034 . S
Zn7 O26 2.025 . S
Zn7 O28 2.024 . S
C8 O27 1.246 . S
C8 O28 1.249 . S
N9 C10 1.307 . S
N9 C11 1.333 . S
N9 Zn15 2.020 . S
C10 N9 1.307 . S
C10 C14 1.370 . S
C10 H21 0.948 . S
C11 N9 1.333 . S
C11 C12 1.379 . S
C11 H19 0.952 . S
C12 C11 1.379 . S
C12 C13 1.390 . S
C12 H32 0.949 . S
C13 C12 1.390 . S
C13 C14 1.357 . S
C14 C10 1.370 . S
C14 C13 1.357 . S
C14 H33 0.950 . S
Zn15 N9 2.020 . S
Zn15 O18 2.025 . S
Zn15 O23 2.024 . S
Zn15 O25 2.039 . S
Zn15 O27 2.034 . S
O16 C0 1.251 . S
O16 Zn7 2.039 . S
C17 O22 1.246 . S
C17 O23 1.249 . S
O18 C0 1.254 . S
O18 Zn15 2.025 . S
H19 C11 0.952 . S
H20 C2 0.952 . S
H21 C10 0.948 . S
O22 Zn7 2.034 . S
O22 C17 1.246 . S
O23 Zn15 2.024 . S
O23 C17 1.249 . S
H24 C6 0.948 . S
O25 Zn15 2.039 . S
O25 C29 1.251 . S
O26 Zn7 2.025 . S
O26 C29 1.254 . S
O27 C8 1.246 . S
O27 Zn15 2.034 . S
O28 Zn7 2.024 . S
O28 C8 1.249 . S
C29 O25 1.251 . S
C29 O26 1.254 . S
H30 C3 0.949 . S
H31 C5 0.950 . S
H32 C12 0.949 . S
H33 C14 0.950 . S
C34 O50 1.251 . S
C34 O52 1.254 . S
N35 C36 1.333 . S
N35 C40 1.307 . S
N35 Zn41 2.020 . S
C36 N35 1.333 . S
C36 C37 1.379 . S
C36 H54 0.952 . S
C37 C36 1.379 . S
C37 C38 1.390 . S
C37 H64 0.949 . S
C38 C37 1.390 . S
C38 C39 1.357 . S
C39 C38 1.357 . S
C39 C40 1.370 . S
C39 H65 0.950 1_545 S
C40 N35 1.307 . S
C40 C39 1.370 . S
C40 H58 0.948 . S
Zn41 N35 2.020 . S
Zn41 O50 2.039 . S
Zn41 O56 2.034 . S
Zn41 O60 2.025 . S
Zn41 O62 2.024 . S
C42 O61 1.246 . S
C42 O62 1.249 . S
N43 C44 1.307 . S
N43 C45 1.333 . S
N43 Zn49 2.020 . S
C44 N43 1.307 . S
C44 C48 1.370 . S
C44 H55 0.948 . S
C45 N43 1.333 . S
C45 C46 1.379 . S
C45 H53 0.952 . S
C46 C45 1.379 . S
C46 C47 1.390 . S
C46 H66 0.949 . S
C47 C46 1.390 . S
C47 C48 1.357 . S
C48 C44 1.370 . S
C48 C47 1.357 . S
C48 H67 0.950 . S
Zn49 N43 2.020 . S
Zn49 O52 2.025 . S
Zn49 O57 2.024 . S
Zn49 O59 2.039 . S
Zn49 O61 2.034 . S
O50 C34 1.251 . S
O50 Zn41 2.039 . S
C51 O56 1.246 . S
C51 O57 1.249 . S
O52 C34 1.254 . S
O52 Zn49 2.025 . S
H53 C45 0.952 . S
H54 C36 0.952 . S
H55 C44 0.948 . S
O56 Zn41 2.034 . S
O56 C51 1.246 . S
O57 Zn49 2.024 . S
O57 C51 1.249 . S
H58 C40 0.948 . S
O59 Zn49 2.039 . S
O59 C63 1.251 . S
O60 Zn41 2.025 . S
O60 C63 1.254 . S
O61 C42 1.246 . S
O61 Zn49 2.034 . S
O62 Zn41 2.024 . S
O62 C42 1.249 . S
C63 O59 1.251 . S
C63 O60 1.254 . S
H64 C37 0.949 . S
H65 C39 0.950 1_565 S
H66 C46 0.949 . S
H67 C48 0.950 . S
C68 O84 1.251 . S
C68 O86 1.254 . S
N69 C70 1.333 . S
N69 C74 1.307 . S
N69 Zn75 2.020 . S
C70 N69 1.333 . S
C70 C71 1.379 . S
C70 H88 0.952 . S
C71 C70 1.379 . S
C71 C72 1.390 . S
C71 H98 0.949 . S
C72 C71 1.390 . S
C72 C73 1.357 . S
C73 C72 1.357 . S
C73 C74 1.370 . S
C73 H99 0.950 . S
C74 N69 1.307 . S
C74 C73 1.370 . S
C74 H92 0.948 . S
Zn75 N69 2.020 . S
Zn75 O84 2.039 . S
Zn75 O90 2.034 . S
Zn75 O94 2.025 . S
Zn75 O96 2.024 . S
C76 O95 1.246 . S
C76 O96 1.249 . S
N77 C78 1.307 . S
N77 C79 1.333 . S
N77 Zn83 2.020 . S
C78 N77 1.307 . S
C78 C82 1.370 . S
C78 H89 0.948 . S
C79 N77 1.333 . S
C79 C80 1.379 . S
C79 H87 0.952 . S
C80 C79 1.379 . S
C80 C81 1.390 . S
C80 H100 0.949 . S
C81 C80 1.390 . S
C81 C82 1.357 . S
C82 C78 1.370 . S
C82 C81 1.357 . S
C82 H101 0.950 . S
Zn83 N77 2.020 . S
Zn83 O86 2.025 . S
Zn83 O91 2.024 . S
Zn83 O93 2.039 . S
Zn83 O95 2.034 . S
O84 C68 1.251 . S
O84 Zn75 2.039 . S
C85 O90 1.246 . S
C85 O91 1.249 . S
O86 C68 1.254 . S
O86 Zn83 2.025 . S
H87 C79 0.952 . S
H88 C70 0.952 . S
H89 C78 0.948 . S
O90 Zn75 2.034 . S
O90 C85 1.246 . S
O91 Zn83 2.024 . S
O91 C85 1.249 . S
H92 C74 0.948 . S
O93 Zn83 2.039 . S
O93 C97 1.251 . S
O94 Zn75 2.025 . S
O94 C97 1.254 . S
O95 C76 1.246 . S
O95 Zn83 2.034 . S
O96 Zn75 2.024 . S
O96 C76 1.249 . S
C97 O93 1.251 . S
C97 O94 1.254 . S
H98 C71 0.949 . S
H99 C73 0.950 . S
H100 C80 0.949 . S
H101 C82 0.950 . S
C102 O118 1.251 . S
C102 O120 1.254 . S
N103 C104 1.333 . S
N103 C108 1.307 . S
N103 Zn109 2.020 . S
C104 N103 1.333 . S
C104 C105 1.379 . S
C104 H122 0.952 . S
C105 C104 1.379 . S
C105 C106 1.390 . S
C105 H132 0.949 1_565 S
C106 C105 1.390 . S
C106 C107 1.357 . S
C107 C106 1.357 . S
C107 C108 1.370 . S
C107 H133 0.950 . S
C108 N103 1.307 . S
C108 C107 1.370 . S
C108 H126 0.948 . S
Zn109 N103 2.020 . S
Zn109 O118 2.039 . S
Zn109 O124 2.034 . S
Zn109 O128 2.025 . S
Zn109 O130 2.024 . S
C110 O129 1.246 . S
C110 O130 1.249 . S
N111 C112 1.307 . S
N111 C113 1.333 . S
N111 Zn117 2.020 . S
C112 N111 1.307 . S
C112 C116 1.370 . S
C112 H123 0.948 . S
C113 N111 1.333 . S
C113 C114 1.379 . S
C113 H121 0.952 . S
C114 C113 1.379 . S
C114 C115 1.390 . S
C114 H134 0.949 . S
C115 C114 1.390 . S
C115 C116 1.357 . S
C116 C112 1.370 . S
C116 C115 1.357 . S
C116 H135 0.950 . S
Zn117 N111 2.020 . S
Zn117 O120 2.025 . S
Zn117 O125 2.024 . S
Zn117 O127 2.039 . S
Zn117 O129 2.034 . S
O118 C102 1.251 . S
O118 Zn109 2.039 . S
C119 O124 1.246 . S
C119 O125 1.249 . S
O120 C102 1.254 . S
O120 Zn117 2.025 . S
H121 C113 0.952 . S
H122 C104 0.952 . S
H123 C112 0.948 . S
O124 Zn109 2.034 . S
O124 C119 1.246 . S
O125 Zn117 2.024 . S
O125 C119 1.249 . S
H126 C108 0.948 . S
O127 Zn117 2.039 . S
O127 C131 1.251 . S
O128 Zn109 2.025 . S
O128 C131 1.254 . S
O129 C110 1.246 . S
O129 Zn117 2.034 . S
O130 Zn109 2.024 . S
O130 C110 1.249 . S
C131 O127 1.251 . S
C131 O128 1.254 . S
H132 C105 0.949 1_545 S
H133 C107 0.950 . S
H134 C114 0.949 . S
H135 C116 0.950 . S
H136 C144 0.929 1_556 S
H137 C146 0.930 . S
H138 C148 0.930 . S
H139 C151 0.929 . S
H140 C154 0.930 . S
H141 C156 0.960 . S
H142 C156 0.960 . S
H143 C156 0.960 . S
C144 H136 0.929 1_554 S
C144 C145 1.377 1_554 S
C144 C146 1.384 . S
C145 C144 1.377 1_556 S
C145 C151 1.390 1_556 S
C146 H137 0.930 . S
C146 C144 1.384 . S
C146 C147 1.372 . S
C147 C146 1.372 . S
C147 C148 1.400 . S
C147 C152 1.490 . S
C148 H138 0.930 . S
C148 C147 1.400 . S
C148 C151 1.386 . S
H149 C165 0.930 . S
H150 C166 0.931 . S
C151 H139 0.929 . S
C151 C145 1.390 1_554 S
C151 C148 1.386 . S
C152 C147 1.490 . S
C152 C154 1.395 . S
C152 C155 1.403 . S
H153 C159 0.930 . S
C154 H140 0.930 . S
C154 C152 1.395 . S
C154 C157 1.403 . S
C155 C152 1.403 . S
C155 C156 1.524 . S
C155 C159 1.400 . S
C156 H141 0.960 . S
C156 H142 0.960 . S
C156 H143 0.960 . S
C156 C155 1.524 . S
C157 C154 1.403 . S
C157 C158 1.392 . S
C157 C161 1.495 . S
C158 C157 1.392 . S
C158 C159 1.385 . S
C158 C160 1.478 . S
C159 H153 0.930 . S
C159 C155 1.400 . S
C159 C158 1.385 . S
C160 C158 1.478 . S
C160 C162 1.381 . S
C160 C166 1.383 . S
C161 C157 1.495 . S
C161 H167 0.959 . S
C161 H168 0.961 . S
C161 H169 0.960 . S
C162 C160 1.381 . S
C162 C163 1.394 . S
C162 H170 0.930 . S
C163 C162 1.394 . S
C163 C164 1.383 . S
C163 H171 0.929 . S
C164 C163 1.383 . S
C164 C165 1.377 . S
C165 H149 0.930 . S
C165 C164 1.377 . S
C165 C166 1.379 . S
C166 H150 0.931 . S
C166 C160 1.383 . S
C166 C165 1.379 . S
H167 C161 0.959 . S
H168 C161 0.961 . S
H169 C161 0.960 . S
H170 C162 0.930 . S
H171 C163 0.929 . S
H172 C180 0.929 . S
H173 C182 0.930 . S
H174 C184 0.930 1_545 S
H175 C187 0.929 . S
H176 C190 0.930 . S
H177 C192 0.960 . S
H178 C192 0.960 . S
H179 C192 0.960 . S
C180 H172 0.929 . S
C180 C181 1.377 . S
C180 C182 1.384 . S
C181 C180 1.377 . S
C181 C187 1.390 . S
C182 H173 0.930 . S
C182 C180 1.384 . S
C182 C183 1.372 . S
C183 C182 1.372 . S
C183 C184 1.400 . S
C183 C188 1.490 . S
C184 H174 0.930 1_565 S
C184 C183 1.400 . S
C184 C187 1.386 . S
H185 C201 0.930 . S
H186 C202 0.931 . S
C187 H175 0.929 . S
C187 C181 1.390 . S
C187 C184 1.386 . S
C188 C183 1.490 . S
C188 C190 1.395 . S
C188 C191 1.403 1_565 S
H189 C195 0.930 . S
C190 H176 0.930 . S
C190 C188 1.395 . S
C190 C193 1.403 . S
C191 C188 1.403 1_545 S
C191 C192 1.524 . S
C191 C195 1.400 . S
C192 H177 0.960 . S
C192 H178 0.960 . S
C192 H179 0.960 . S
C192 C191 1.524 . S
C193 C190 1.403 . S
C193 C194 1.392 . S
C193 C197 1.495 . S
C194 C193 1.392 . S
C194 C195 1.385 1_565 S
C194 C196 1.478 . S
C195 H189 0.930 . S
C195 C191 1.400 . S
C195 C194 1.385 1_545 S
C196 C194 1.478 . S
C196 C198 1.381 . S
C196 C202 1.383 1_565 S
C197 C193 1.495 . S
C197 H203 0.959 . S
C197 H204 0.961 . S
C197 H205 0.960 . S
C198 C196 1.381 . S
C198 C199 1.394 . S
C198 H206 0.930 . S
C199 C198 1.394 . S
C199 C200 1.383 1_565 S
C199 H207 0.929 . S
C200 C199 1.383 1_545 S
C200 C201 1.377 . S
C201 H185 0.930 . S
C201 C200 1.377 . S
C201 C202 1.379 . S
C202 H186 0.931 . S
C202 C196 1.383 1_545 S
C202 C201 1.379 . S
H203 C197 0.959 . S
H204 C197 0.961 . S
H205 C197 0.960 . S
H206 C198 0.930 . S
H207 C199 0.929 . S
H208 C216 0.929 . S
H209 C218 0.930 . S
H210 C220 0.930 . S
H211 C223 0.929 . S
H212 C226 0.930 . S
H213 C228 0.960 . S
H214 C228 0.960 . S
H215 C228 0.960 . S
C216 H208 0.929 . S
C216 C217 1.377 . S
C216 C218 1.384 . S
C217 C216 1.377 . S
C217 C223 1.390 . S
C218 H209 0.930 . S
C218 C216 1.384 . S
C218 C219 1.372 . S
C219 C218 1.372 . S
C219 C220 1.400 . S
C219 C224 1.490 . S
C220 H210 0.930 . S
C220 C219 1.400 . S
C220 C223 1.386 . S
H221 C237 0.930 . S
H222 C238 0.931 . S
C223 H211 0.929 . S
C223 C217 1.390 . S
C223 C220 1.386 . S
C224 C219 1.490 . S
C224 C226 1.395 . S
C224 C227 1.403 . S
H225 C231 0.930 . S
C226 H212 0.930 . S
C226 C224 1.395 . S
C226 C229 1.403 . S
C227 C224 1.403 . S
C227 C228 1.524 . S
C227 C231 1.400 . S
C228 H213 0.960 . S
C228 H214 0.960 . S
C228 H215 0.960 . S
C228 C227 1.524 . S
C229 C226 1.403 . S
C229 C230 1.392 . S
C229 C233 1.495 . S
C230 C229 1.392 . S
C230 C231 1.385 . S
C230 C232 1.478 . S
C231 H225 0.930 . S
C231 C227 1.400 . S
C231 C230 1.385 . S
C232 C230 1.478 . S
C232 C234 1.381 . S
C232 C238 1.383 . S
C233 C229 1.495 . S
C233 H239 0.959 . S
C233 H240 0.961 . S
C233 H241 0.960 . S
C234 C232 1.381 . S
C234 C235 1.394 . S
C234 H242 0.930 . S
C235 C234 1.394 . S
C235 C236 1.383 . S
C235 H243 0.929 . S
C236 C235 1.383 . S
C236 C237 1.377 . S
C237 H221 0.930 . S
C237 C236 1.377 . S
C237 C238 1.379 . S
C238 H222 0.931 . S
C238 C232 1.383 . S
C238 C237 1.379 . S
H239 C233 0.959 . S
H240 C233 0.961 . S
H241 C233 0.960 . S
H242 C234 0.930 . S
H243 C235 0.929 . S
H244 C252 0.929 . S
H245 C254 0.930 . S
H246 C256 0.929 . S
H247 C259 0.929 . S
H248 C262 0.930 . S
H249 C264 0.960 . S
H250 C264 0.960 1_565 S
H251 C264 0.960 . S
C252 H244 0.929 . S
C252 C253 1.377 . S
C252 C254 1.384 1_554 S
C253 C252 1.377 . S
C253 C259 1.390 1_565 S
C254 H245 0.930 . S
C254 C252 1.384 1_556 S
C254 C255 1.372 1_565 S
C255 C254 1.372 1_545 S
C255 C256 1.400 1_556 S
C255 C260 1.490 . S
C256 H246 0.929 . S
C256 C255 1.400 1_554 S
C256 C259 1.386 . S
H257 C273 0.930 . S
H258 C274 0.931 . S
C259 H247 0.929 . S
C259 C253 1.390 1_545 S
C259 C256 1.386 . S
C260 C255 1.490 . S
C260 C262 1.395 . S
C260 C263 1.403 . S
H261 C267 0.930 . S
C262 H248 0.930 . S
C262 C260 1.395 . S
C262 C265 1.403 . S
C263 C260 1.403 . S
C263 C264 1.524 . S
C263 C267 1.400 . S
C264 H249 0.960 . S
C264 H250 0.960 1_545 S
C264 H251 0.960 . S
C264 C263 1.524 . S
C265 C262 1.403 . S
C265 C266 1.392 . S
C265 C269 1.495 . S
C266 C265 1.392 . S
C266 C267 1.385 . S
C266 C268 1.478 . S
C267 H261 0.930 . S
C267 C263 1.400 . S
C267 C266 1.385 . S
C268 C266 1.478 . S
C268 C270 1.381 . S
C268 C274 1.383 . S
C269 C265 1.495 . S
C269 H275 0.959 . S
C269 H276 0.961 . S
C269 H277 0.960 . S
C270 C268 1.381 . S
C270 C271 1.394 . S
C270 H278 0.930 . S
C271 C270 1.394 . S
C271 C272 1.383 . S
C271 H279 0.929 . S
C272 C271 1.383 . S
C272 C273 1.377 . S
C273 H257 0.930 . S
C273 C272 1.377 . S
C273 C274 1.379 . S
C274 H258 0.931 . S
C274 C268 1.383 . S
C274 C273 1.379 . S
H275 C269 0.959 . S
H276 C269 0.961 . S
H277 C269 0.960 . S
H278 C270 0.930 . S
H279 C271 0.929 . S
H280 C288 0.929 . S
H281 C290 0.930 1_455 S
H282 C292 0.930 1_455 S
H283 C295 0.929 . S
H284 C298 0.930 . S
H285 C300 0.960 . S
H286 C300 0.960 . S
H287 C300 0.960 . S
C288 H280 0.929 . S
C288 C289 1.377 . S
C288 C290 1.384 . S
C289 C288 1.377 . S
C289 C295 1.390 . S
C290 H281 0.930 1_655 S
C290 C288 1.384 . S
C290 C291 1.372 1_655 S
C291 C290 1.372 1_455 S
C291 C292 1.400 1_455 S
C291 C296 1.490 . S
C292 H282 0.930 1_655 S
C292 C291 1.400 1_655 S
C292 C295 1.386 . S
H293 C309 0.930 . S
H294 C310 0.931 . S
C295 H283 0.929 . S
C295 C289 1.390 . S
C295 C292 1.386 . S
C296 C291 1.490 . S
C296 C298 1.395 . S
C296 C299 1.403 . S
H297 C303 0.930 . S
C298 H284 0.930 . S
C298 C296 1.395 . S
C298 C301 1.403 . S
C299 C296 1.403 . S
C299 C300 1.524 . S
C299 C303 1.400 . S
C300 H285 0.960 . S
C300 H286 0.960 . S
C300 H287 0.960 . S
C300 C299 1.524 . S
C301 C298 1.403 . S
C301 C302 1.392 . S
C301 C305 1.495 . S
C302 C301 1.392 . S
C302 C303 1.385 . S
C302 C304 1.478 . S
C303 H297 0.930 . S
C303 C299 1.400 . S
C303 C302 1.385 . S
C304 C302 1.478 . S
C304 C306 1.381 . S
C304 C310 1.383 . S
C305 C301 1.495 . S
C305 H311 0.959 . S
C305 H312 0.961 . S
C305 H313 0.960 . S
C306 C304 1.381 . S
C306 C307 1.394 . S
C306 H314 0.930 . S
C307 C306 1.394 . S
C307 C308 1.383 . S
C307 H315 0.929 . S
C308 C307 1.383 . S
C308 C309 1.377 . S
C309 H293 0.930 . S
C309 C308 1.377 . S
C309 C310 1.379 . S
C310 H294 0.931 . S
C310 C304 1.383 . S
C310 C309 1.379 . S
H311 C305 0.959 . S
H312 C305 0.961 . S
H313 C305 0.960 . S
H314 C306 0.930 . S
H315 C307 0.929 . S
H316 C324 0.929 . S
H317 C326 0.930 . S
H318 C328 0.930 1_655 S
H319 C331 0.929 . S
H320 C334 0.930 . S
H321 C336 0.960 . S
H322 C336 0.960 . S
H323 C336 0.960 . S
C324 H316 0.929 . S
C324 C325 1.377 . S
C324 C326 1.384 . S
C325 C324 1.377 . S
C325 C331 1.390 . S
C326 H317 0.930 . S
C326 C324 1.384 . S
C326 C327 1.372 . S
C327 C326 1.372 . S
C327 C328 1.400 . S
C327 C332 1.490 . S
C328 H318 0.930 1_455 S
C328 C327 1.400 . S
C328 C331 1.386 . S
H329 C345 0.930 . S
H330 C346 0.931 . S
C331 H319 0.929 . S
C331 C325 1.390 . S
C331 C328 1.386 . S
C332 C327 1.490 . S
C332 C334 1.395 . S
C332 C335 1.403 1_455 S
H333 C339 0.930 . S
C334 H320 0.930 . S
C334 C332 1.395 . S
C334 C337 1.403 . S
C335 C332 1.403 1_655 S
C335 C336 1.524 . S
C335 C339 1.400 . S
C336 H321 0.960 . S
C336 H322 0.960 . S
C336 H323 0.960 . S
C336 C335 1.524 . S
C337 C334 1.403 . S
C337 C338 1.392 1_455 S
C337 C341 1.495 . S
C338 C337 1.392 1_655 S
C338 C339 1.385 . S
C338 C340 1.478 . S
C339 H333 0.930 . S
C339 C335 1.400 . S
C339 C338 1.385 . S
C340 C338 1.478 . S
C340 C342 1.381 1_565 S
C340 C346 1.383 . S
C341 C337 1.495 . S
C341 H347 0.959 . S
C341 H348 0.961 . S
C341 H349 0.960 . S
C342 C340 1.381 1_545 S
C342 C343 1.394 . S
C342 H350 0.930 1_655 S
C343 C342 1.394 . S
C343 C344 1.383 . S
C343 H351 0.929 . S
C344 C343 1.383 . S
C344 C345 1.377 . S
C345 H329 0.930 . S
C345 C344 1.377 . S
C345 C346 1.379 1_545 S
C346 H330 0.931 . S
C346 C340 1.383 . S
C346 C345 1.379 1_565 S
H347 C341 0.959 . S
H348 C341 0.961 . S
H349 C341 0.960 . S
H350 C342 0.930 1_455 S
H351 C343 0.929 . S
H352 C360 0.943 . S
H353 C362 0.930 1_554 S
H354 C364 0.930 . S
H355 C367 0.929 . S
H356 C370 0.930 1_554 S
H357 C372 0.960 . S
H358 C372 0.960 . S
H359 C372 0.960 . S
C360 H352 0.943 . S
C360 C361 1.377 . S
C360 C362 1.384 . S
C361 C360 1.377 . S
C361 C367 1.390 . S
C362 H353 0.930 1_556 S
C362 C360 1.384 . S
C362 C363 1.372 . S
C363 C362 1.372 . S
C363 C364 1.400 . S
C363 C368 1.490 . S
C364 H354 0.930 . S
C364 C363 1.400 . S
C364 C367 1.386 . S
H365 C381 0.930 . S
H366 C382 0.931 . S
C367 H355 0.929 . S
C367 C361 1.390 . S
C367 C364 1.386 . S
C368 C363 1.490 . S
C368 C370 1.395 . S
C368 C371 1.403 . S
H369 C375 0.930 . S
C370 H356 0.930 1_556 S
C370 C368 1.395 . S
C370 C373 1.403 1_556 S
C371 C368 1.403 . S
C371 C372 1.524 . S
C371 C375 1.400 . S
C372 H357 0.960 . S
C372 H358 0.960 . S
C372 H359 0.960 . S
C372 C371 1.524 . S
C373 C370 1.403 1_554 S
C373 C374 1.392 1_554 S
C373 C377 1.495 . S
C374 C373 1.392 1_556 S
C374 C375 1.385 . S
C374 C376 1.478 . S
C375 H369 0.930 . S
C375 C371 1.400 . S
C375 C374 1.385 . S
C376 C374 1.478 . S
C376 C378 1.381 1_556 S
C376 C382 1.383 . S
C377 C373 1.495 . S
C377 H383 0.959 . S
C377 H384 0.961 . S
C377 H385 0.960 . S
C378 C376 1.381 1_554 S
C378 C379 1.394 . S
C378 H386 0.930 . S
C379 C378 1.394 . S
C379 C380 1.383 1_554 S
C379 H387 0.929 . S
C380 C379 1.383 1_556 S
C380 C381 1.377 . S
C381 H365 0.930 . S
C381 C380 1.377 . S
C381 C382 1.379 . S
C382 H366 0.931 . S
C382 C376 1.383 . S
C382 C381 1.379 . S
H383 C377 0.959 . S
H384 C377 0.961 . S
H385 C377 0.960 . S
H386 C378 0.930 . S
H387 C379 0.929 . S
H388 C396 0.929 . S
H389 C398 0.930 . S
H390 C400 0.930 . S
H391 C403 0.929 . S
H392 C406 0.930 . S
H393 C408 0.960 . S
H394 C408 0.960 . S
H395 C408 0.960 . S
C396 H388 0.929 . S
C396 C397 1.377 . S
C396 C398 1.384 . S
C397 C396 1.377 . S
C397 C403 1.390 . S
C398 H389 0.930 . S
C398 C396 1.384 . S
C398 C399 1.372 . S
C399 C398 1.372 . S
C399 C400 1.400 . S
C399 C404 1.490 . S
C400 H390 0.930 . S
C400 C399 1.400 . S
C400 C403 1.386 . S
H401 C417 0.930 . S
H402 C418 0.931 . S
C403 H391 0.929 . S
C403 C397 1.390 . S
C403 C400 1.386 . S
C404 C399 1.490 . S
C404 C406 1.395 . S
C404 C407 1.403 . S
H405 C411 0.930 . S
C406 H392 0.930 . S
C406 C404 1.395 . S
C406 C409 1.403 . S
C407 C404 1.403 . S
C407 C408 1.524 . S
C407 C411 1.400 . S
C408 H393 0.960 . S
C408 H394 0.960 . S
C408 H395 0.960 . S
C408 C407 1.524 . S
C409 C406 1.403 . S
C409 C410 1.392 . S
C409 C413 1.495 . S
C410 C409 1.392 . S
C410 C411 1.385 . S
C410 C412 1.478 . S
C411 H405 0.930 . S
C411 C407 1.400 . S
C411 C410 1.385 . S
C412 C410 1.478 . S
C412 C414 1.381 . S
C412 C418 1.383 . S
C413 C409 1.495 . S
C413 H419 0.959 . S
C413 H420 0.961 . S
C413 H421 0.960 . S
C414 C412 1.381 . S
C414 C415 1.394 . S
C414 H422 0.930 . S
C415 C414 1.394 . S
C415 C416 1.383 . S
C415 H423 0.929 1_545 S
C416 C415 1.383 . S
C416 C417 1.377 . S
C417 H401 0.930 . S
C417 C416 1.377 . S
C417 C418 1.379 . S
C418 H402 0.931 . S
C418 C412 1.383 . S
C418 C417 1.379 . S
H419 C413 0.959 . S
H420 C413 0.961 . S
H421 C413 0.960 . S
H422 C414 0.930 . S
H423 C415 0.929 1_565 S
H424 C432 0.929 . S
H425 C434 0.930 . S
H426 C436 0.930 . S
H427 C439 0.929 . S
H428 C442 0.930 . S
H429 C444 0.960 . S
H430 C444 0.960 . S
H431 C444 0.960 . S
C432 H424 0.929 . S
C432 C433 1.377 . S
C432 C434 1.384 . S
C433 C432 1.377 . S
C433 C439 1.390 . S
C434 H425 0.930 . S
C434 C432 1.384 . S
C434 C435 1.372 . S
C435 C434 1.372 . S
C435 C436 1.400 . S
C435 C440 1.490 . S
C436 H426 0.930 . S
C436 C435 1.400 . S
C436 C439 1.386 . S
H437 C453 0.930 . S
H438 C454 0.931 . S
C439 H427 0.929 . S
C439 C433 1.390 . S
C439 C436 1.386 . S
C440 C435 1.490 . S
C440 C442 1.395 . S
C440 C443 1.403 . S
H441 C447 0.930 . S
C442 H428 0.930 . S
C442 C440 1.395 . S
C442 C445 1.403 . S
C443 C440 1.403 . S
C443 C444 1.524 . S
C443 C447 1.400 . S
C444 H429 0.960 . S
C444 H430 0.960 . S
C444 H431 0.960 . S
C444 C443 1.524 . S
C445 C442 1.403 . S
C445 C446 1.392 . S
C445 C449 1.495 . S
C446 C445 1.392 . S
C446 C447 1.385 . S
C446 C448 1.478 . S
C447 H441 0.930 . S
C447 C443 1.400 . S
C447 C446 1.385 . S
C448 C446 1.478 . S
C448 C450 1.381 . S
C448 C454 1.383 . S
C449 C445 1.495 . S
C449 H455 0.959 . S
C449 H456 0.961 . S
C449 H457 0.960 . S
C450 C448 1.381 . S
C450 C451 1.394 . S
C450 H458 0.930 . S
C451 C450 1.394 . S
C451 C452 1.383 . S
C451 H459 0.929 . S
C452 C451 1.383 . S
C452 C453 1.377 . S
C453 H437 0.930 . S
C453 C452 1.377 . S
C453 C454 1.379 . S
C454 H438 0.931 . S
C454 C448 1.383 . S
C454 C453 1.379 . S
H455 C449 0.959 . S
H456 C449 0.961 . S
H457 C449 0.960 . S
H458 C450 0.930 . S
H459 C451 0.929 . S
H460 C468 0.931 . S
H461 C470 0.930 . S
H462 C472 0.930 . S
H463 C475 0.929 . S
H464 C478 0.930 1_455 S
H465 C480 0.960 . S
H466 C480 0.960 . S
H467 C480 0.960 . S
C468 H460 0.931 . S
C468 C469 1.377 . S
C468 C470 1.384 . S
C469 C468 1.377 . S
C469 C475 1.390 . S
C470 H461 0.930 . S
C470 C468 1.384 . S
C470 C471 1.372 . S
C471 C470 1.372 . S
C471 C472 1.400 . S
C471 C476 1.490 . S
C472 H462 0.930 . S
C472 C471 1.400 . S
C472 C475 1.386 . S
H473 C489 0.930 . S
H474 C490 0.931 . S
C475 H463 0.929 . S
C475 C469 1.390 . S
C475 C472 1.386 . S
C476 C471 1.490 . S
C476 C478 1.395 . S
C476 C479 1.403 . S
H477 C483 0.930 . S
C478 H464 0.930 1_655 S
C478 C476 1.395 . S
C478 C481 1.403 . S
C479 C476 1.403 . S
C479 C480 1.524 . S
C479 C483 1.400 . S
C480 H465 0.960 . S
C480 H466 0.960 . S
C480 H467 0.960 . S
C480 C479 1.524 . S
C481 C478 1.403 . S
C481 C482 1.392 . S
C481 C485 1.495 1_655 S
C482 C481 1.392 . S
C482 C483 1.385 . S
C482 C484 1.478 . S
C483 H477 0.930 . S
C483 C479 1.400 . S
C483 C482 1.385 . S
C484 C482 1.478 . S
C484 C486 1.381 . S
C484 C490 1.383 . S
C485 C481 1.495 1_455 S
C485 H491 0.959 . S
C485 H492 0.961 . S
C485 H493 0.960 . S
C486 C484 1.381 . S
C486 C487 1.394 . S
C486 H494 0.930 . S
C487 C486 1.394 . S
C487 C488 1.383 . S
C487 H495 0.929 . S
C488 C487 1.383 . S
C488 C489 1.377 . S
C489 H473 0.930 . S
C489 C488 1.377 . S
C489 C490 1.379 . S
C490 H474 0.931 . S
C490 C484 1.383 . S
C490 C489 1.379 . S
H491 C485 0.959 . S
H492 C485 0.961 . S
H493 C485 0.960 . S
H494 C486 0.930 . S
H495 C487 0.929 . S
H496 C504 0.929 . S
H497 C506 0.930 . S
H498 C508 0.930 . S
H499 C511 0.929 1_554 S
H500 C514 0.930 . S
H501 C516 0.960 . S
H502 C516 0.960 . S
H503 C516 0.960 . S
C504 H496 0.929 . S
C504 C505 1.377 . S
C504 C506 1.384 1_455 S
C505 C504 1.377 . S
C505 C511 1.390 . S
C506 H497 0.930 . S
C506 C504 1.384 1_655 S
C506 C507 1.372 . S
C507 C506 1.372 . S
C507 C508 1.400 1_556 S
C507 C512 1.490 1_556 S
C508 H498 0.930 . S
C508 C507 1.400 1_554 S
C508 C511 1.386 1_654 S
H509 C525 0.930 . S
H510 C526 0.931 . S
C511 H499 0.929 1_556 S
C511 C505 1.390 . S
C511 C508 1.386 1_456 S
C512 C507 1.490 1_554 S
C512 C514 1.395 1_554 S
C512 C515 1.403 . S
H513 C519 0.930 . S
C514 H500 0.930 . S
C514 C512 1.395 1_556 S
C514 C517 1.403 . S
C515 C512 1.403 . S
C515 C516 1.524 . S
C515 C519 1.400 . S
C516 H501 0.960 . S
C516 H502 0.960 . S
C516 H503 0.960 . S
C516 C515 1.524 . S
C517 C514 1.403 . S
C517 C518 1.392 1_556 S
C517 C521 1.495 . S
C518 C517 1.392 1_554 S
C518 C519 1.385 . S
C518 C520 1.478 . S
C519 H513 0.930 . S
C519 C515 1.400 . S
C519 C518 1.385 . S
C520 C518 1.478 . S
C520 C522 1.381 . S
C520 C526 1.383 . S
C521 C517 1.495 . S
C521 H527 0.959 . S
C521 H528 0.961 . S
C521 H529 0.960 . S
C522 C520 1.381 . S
C522 C523 1.394 . S
C522 H530 0.930 . S
C523 C522 1.394 . S
C523 C524 1.383 . S
C523 H531 0.929 . S
C524 C523 1.383 . S
C524 C525 1.377 . S
C525 H509 0.930 . S
C525 C524 1.377 . S
C525 C526 1.379 . S
C526 H510 0.931 . S
C526 C520 1.383 . S
C526 C525 1.379 . S
H527 C521 0.959 . S
H528 C521 0.961 . S
H529 C521 0.960 . S
H530 C522 0.930 . S
H531 C523 0.929 . S
H532 C540 0.929 . S
H533 C542 0.930 . S
H534 C544 0.930 . S
H535 C547 0.929 . S
H536 C550 0.930 . S
H537 C552 0.960 . S
H538 C552 0.960 . S
H539 C552 0.960 . S
C540 H532 0.929 . S
C540 C541 1.377 . S
C540 C542 1.384 . S
C541 C540 1.377 . S
C541 C547 1.390 . S
C542 H533 0.930 . S
C542 C540 1.384 . S
C542 C543 1.372 . S
C543 C542 1.372 . S
C543 C544 1.400 . S
C543 C548 1.490 . S
C544 H534 0.930 . S
C544 C543 1.400 . S
C544 C547 1.386 . S
H545 C561 0.930 . S
H546 C562 0.931 . S
C547 H535 0.929 . S
C547 C541 1.390 . S
C547 C544 1.386 . S
C548 C543 1.490 . S
C548 C550 1.395 . S
C548 C551 1.403 . S
H549 C555 0.930 . S
C550 H536 0.930 . S
C550 C548 1.395 . S
C550 C553 1.403 . S
C551 C548 1.403 . S
C551 C552 1.524 . S
C551 C555 1.400 . S
C552 H537 0.960 . S
C552 H538 0.960 . S
C552 H539 0.960 . S
C552 C551 1.524 . S
C553 C550 1.403 . S
C553 C554 1.392 . S
C553 C557 1.495 . S
C554 C553 1.392 . S
C554 C555 1.385 . S
C554 C556 1.478 . S
C555 H549 0.930 . S
C555 C551 1.400 . S
C555 C554 1.385 . S
C556 C554 1.478 . S
C556 C558 1.381 . S
C556 C562 1.383 . S
C557 C553 1.495 . S
C557 H563 0.959 . S
C557 H564 0.961 . S
C557 H565 0.960 . S
C558 C556 1.381 . S
C558 C559 1.394 . S
C558 H566 0.930 . S
C559 C558 1.394 . S
C559 C560 1.383 . S
C559 H567 0.929 . S
C560 C559 1.383 . S
C560 C561 1.377 . S
C561 H545 0.930 . S
C561 C560 1.377 . S
C561 C562 1.379 . S
C562 H546 0.931 . S
C562 C556 1.383 . S
C562 C561 1.379 . S
H563 C557 0.959 . S
H564 C557 0.961 . S
H565 C557 0.960 . S
H566 C558 0.930 . S
H567 C559 0.929 . S
C145 C68 2.227 . S
C164 C0 2.246 . S
C181 C106 0.572 . S
C200 C38 0.621 . S
C217 C76 2.136 . S
C236 C8 2.161 . S
C253 C119 0.823 . S
C272 C51 0.851 . S
C289 C42 1.516 . S
C308 C13 1.547 . S
C325 C97 0.988 . S
C344 C63 1.009 . S
C361 C72 0.839 . S
C380 C115 0.800 1_556 S
C397 C17 1.898 . S
C416 C102 1.883 1_545 S
C433 C34 1.877 . S
C452 C29 1.891 . S
C469 C81 0.910 1_655 S
C488 C47 0.882 . S
C505 C85 0.990 . S
C524 C131 1.002 . S
C541 C110 1.426 . S
C560 C4 1.440 . S
