# Generated by pormake.
# Topology vbn, (6)-cn, num edge types: 1
# Building blocks:
#     Node 0, Type 0, BuildingBlock: VOLQOD_clean_sbu_1, # of connection points: 6
#     Node 1, Type 0, BuildingBlock: VOLQOD_clean_sbu_1, # of connection points: 6
#     Node 2, Type 0, BuildingBlock: VOLQOD_clean_sbu_1, # of connection points: 6
#     Node 3, Type 0, BuildingBlock: VOLQOD_clean_sbu_1, # of connection points: 6
#     Node 4, Type 0, BuildingBlock: VOLQOD_clean_sbu_1, # of connection points: 6
#     Node 5, Type 0, BuildingBlock: VOLQOD_clean_sbu_1, # of connection points: 6
#     Node 6, Type 0, BuildingBlock: VOLQOD_clean_sbu_1, # of connection points: 6
#     Node 7, Type 0, BuildingBlock: VOLQOD_clean_sbu_1, # of connection points: 6
#     Edge 8, Type (0, 0), BuildingBlock: OJICUG_clean_linker_0, # of connection points: 2
#     Edge 9, Type (0, 0), BuildingBlock: OJICUG_clean_linker_0, # of connection points: 2
#     Edge 10, Type (0, 0), BuildingBlock: OJICUG_clean_linker_0, # of connection points: 2
#     Edge 11, Type (0, 0), BuildingBlock: OJICUG_clean_linker_0, # of connection points: 2
#     Edge 12, Type (0, 0), BuildingBlock: OJICUG_clean_linker_0, # of connection points: 2
#     Edge 13, Type (0, 0), BuildingBlock: OJICUG_clean_linker_0, # of connection points: 2
#     Edge 14, Type (0, 0), BuildingBlock: OJICUG_clean_linker_0, # of connection points: 2
#     Edge 15, Type (0, 0), BuildingBlock: OJICUG_clean_linker_0, # of connection points: 2
#     Edge 16, Type (0, 0), BuildingBlock: OJICUG_clean_linker_0, # of connection points: 2
#     Edge 17, Type (0, 0), BuildingBlock: OJICUG_clean_linker_0, # of connection points: 2
#     Edge 18, Type (0, 0), BuildingBlock: OJICUG_clean_linker_0, # of connection points: 2
#     Edge 19, Type (0, 0), BuildingBlock: OJICUG_clean_linker_0, # of connection points: 2
#     Edge 20, Type (0, 0), BuildingBlock: OJICUG_clean_linker_0, # of connection points: 2
#     Edge 21, Type (0, 0), BuildingBlock: OJICUG_clean_linker_0, # of connection points: 2
#     Edge 22, Type (0, 0), BuildingBlock: OJICUG_clean_linker_0, # of connection points: 2
#     Edge 23, Type (0, 0), BuildingBlock: OJICUG_clean_linker_0, # of connection points: 2
#     Edge 24, Type (0, 0), BuildingBlock: OJICUG_clean_linker_0, # of connection points: 2
#     Edge 25, Type (0, 0), BuildingBlock: OJICUG_clean_linker_0, # of connection points: 2
#     Edge 26, Type (0, 0), BuildingBlock: OJICUG_clean_linker_0, # of connection points: 2
#     Edge 27, Type (0, 0), BuildingBlock: OJICUG_clean_linker_0, # of connection points: 2
#     Edge 28, Type (0, 0), BuildingBlock: OJICUG_clean_linker_0, # of connection points: 2
#     Edge 29, Type (0, 0), BuildingBlock: OJICUG_clean_linker_0, # of connection points: 2
#     Edge 30, Type (0, 0), BuildingBlock: OJICUG_clean_linker_0, # of connection points: 2
#     Edge 31, Type (0, 0), BuildingBlock: OJICUG_clean_linker_0, # of connection points: 2
# Relax obj value: 0.303
# Max RMSD: 0.245
# Mean RMSD: 0.245
data_MOF--net-vbn--node1-VOLQOD_clean_sbu_1--edge1-OJICUG_clean_linker_0
_symmetry_space_group_name_H-M    P1
_symmetry_Int_Tables_number       1
_symmetry_cell_setting            triclinic
loop_
_symmetry_equiv_pos_as_xyz
'x, y, z'
_cell_length_a     20.882355
_cell_length_b     21.977118
_cell_length_c     37.71176
_cell_angle_alpha  90.016279
_cell_angle_beta   89.987636
_cell_angle_gamma 89.995774
loop_
_atom_site_label
_atom_site_type_symbol
_atom_site_fract_x
_atom_site_fract_y
_atom_site_fract_z
_atom_type_partial_charge
O0 O 0.39079 0.38249 0.45749 0.0
Zn1 Zn 0.36283 0.29985 0.44297 0.0
O2 O 0.36306 0.29581 0.39223 0.0
Zn3 Zn 0.27821 0.28674 0.37335 0.0
Zn4 Zn 0.40449 0.36666 0.37431 0.0
Zn5 Zn 0.41716 0.23126 0.37764 0.0
O6 O 0.27368 0.20185 0.34927 0.0
O7 O 0.36319 0.15827 0.36969 0.0
O8 O 0.27385 0.2874 0.4636 0.0
O9 O 0.21569 0.28484 0.41426 0.0
O10 O 0.25272 0.36554 0.34621 0.0
O11 O 0.33756 0.42288 0.35907 0.0
O12 O 0.4533 0.35031 0.32966 0.0
O13 O 0.43407 0.24796 0.46335 0.0
O14 O 0.45339 0.24968 0.32966 0.0
O15 O 0.48666 0.22062 0.41453 0.0
C16 C 0.4342 0.41625 0.44436 0.0
C17 C 0.30909 0.15462 0.35411 0.0
C18 C 0.28144 0.41719 0.34661 0.0
C19 C 0.2196 0.2853 0.44801 0.0
C20 C 0.46465 0.3 0.31425 0.0
C21 C 0.48433 0.22738 0.44816 0.0
O22 O 0.45348 0.40943 0.41252 0.0
O23 O 0.09041 0.13227 0.95747 0.0
Zn24 Zn 0.11838 0.21489 0.94295 0.0
O25 O 0.11817 0.21891 0.89221 0.0
Zn26 Zn 0.20303 0.22796 0.87333 0.0
Zn27 Zn 0.0767 0.14807 0.87428 0.0
Zn28 Zn 0.0641 0.28349 0.87765 0.0
O29 O 0.2076 0.31283 0.84925 0.0
O30 O 0.1181 0.35645 0.8697 0.0
O31 O 0.20735 0.22735 0.96358 0.0
O32 O 0.26553 0.22988 0.91423 0.0
O33 O 0.22851 0.14913 0.84619 0.0
O34 O 0.14362 0.09183 0.85902 0.0
O35 O 0.02789 0.16444 0.82965 0.0
O36 O 0.04714 0.2668 0.96336 0.0
O37 O 0.02785 0.26507 0.82968 0.0
O38 O -0.0054 0.29418 0.91455 0.0
C39 C 0.04699 0.0985 0.94434 0.0
C40 C 0.17221 0.36008 0.8541 0.0
C41 C 0.19977 0.09749 0.84657 0.0
C42 C 0.26161 0.22945 0.94798 0.0
C43 C 0.01656 0.21476 0.81425 0.0
C44 C -0.00309 0.28741 0.94817 0.0
O45 O 0.02771 0.10531 0.9125 0.0
O46 O 0.89078 0.13231 0.52058 0.0
Zn47 Zn 0.8628 0.21494 0.53511 0.0
O48 O 0.86299 0.21897 0.58585 0.0
Zn49 Zn 0.77812 0.22806 0.60473 0.0
Zn50 Zn 0.90442 0.14811 0.60378 0.0
Zn51 Zn 0.91709 0.28352 0.60045 0.0
O52 O 0.77357 0.31295 0.6288 0.0
O53 O 0.86311 0.35651 0.6084 0.0
O54 O 0.77384 0.2274 0.51447 0.0
O55 O 0.71564 0.22996 0.56382 0.0
O56 O 0.75261 0.14926 0.63186 0.0
O57 O 0.83748 0.09191 0.61902 0.0
O58 O 0.95321 0.16447 0.64842 0.0
O59 O 0.93405 0.26684 0.51473 0.0
O60 O 0.95331 0.26509 0.64842 0.0
O61 O 0.9866 0.29417 0.56355 0.0
C62 C 0.93417 0.09853 0.53371 0.0
C63 C 0.80899 0.36017 0.62397 0.0
C64 C 0.78133 0.0976 0.63147 0.0
C65 C 0.71958 0.2295 0.53007 0.0
C66 C 0.96457 0.21478 0.66383 0.0
C67 C 0.98429 0.28741 0.52992 0.0
O68 O 0.95343 0.10533 0.56556 0.0
O69 O 0.5904 0.38258 0.02058 0.0
Zn70 Zn 0.61835 0.29994 0.03509 0.0
O71 O 0.61811 0.29592 0.08583 0.0
Zn72 Zn 0.70295 0.28687 0.10471 0.0
Zn73 Zn 0.57663 0.36676 0.10376 0.0
Zn74 Zn 0.56403 0.23135 0.10039 0.0
O75 O 0.70749 0.20201 0.12879 0.0
O76 O 0.61804 0.15839 0.10833 0.0
O77 O 0.70733 0.28748 0.01446 0.0
O78 O 0.76548 0.28494 0.06381 0.0
O79 O 0.72841 0.3657 0.13185 0.0
O80 O 0.64353 0.42301 0.11901 0.0
O81 O 0.52782 0.35039 0.1484 0.0
O82 O 0.54712 0.24805 0.01468 0.0
O83 O 0.52777 0.24976 0.14836 0.0
O84 O 0.49455 0.22066 0.06349 0.0
C85 C 0.54695 0.41633 0.03371 0.0
C86 C 0.67212 0.15476 0.12394 0.0
C87 C 0.69967 0.41735 0.13146 0.0
C88 C 0.76158 0.28538 0.03006 0.0
C89 C 0.51648 0.30007 0.1638 0.0
C90 C 0.49688 0.22744 0.02987 0.0
O91 O 0.52764 0.40951 0.06554 0.0
O92 O 0.59166 0.63207 0.52073 0.0
Zn93 Zn 0.61947 0.71478 0.53519 0.0
O94 O 0.61922 0.71893 0.58594 0.0
Zn95 Zn 0.70412 0.72804 0.60476 0.0
Zn96 Zn 0.5778 0.64809 0.60391 0.0
Zn97 Zn 0.56506 0.7835 0.6005 0.0
O98 O 0.70865 0.81294 0.62881 0.0
O99 O 0.61906 0.85648 0.60847 0.0
O100 O 0.70842 0.72731 0.51451 0.0
O101 O 0.76662 0.72994 0.56383 0.0
O102 O 0.72968 0.64927 0.63191 0.0
O103 O 0.64475 0.59195 0.61921 0.0
O104 O 0.52884 0.66449 0.6485 0.0
O105 O 0.54814 0.76653 0.51476 0.0
O106 O 0.52864 0.76512 0.64847 0.0
O107 O 0.49561 0.79414 0.56355 0.0
C108 C 0.54828 0.59829 0.53387 0.0
C109 C 0.67322 0.86015 0.624 0.0
C110 C 0.70093 0.59763 0.6316 0.0
C111 C 0.76269 0.72947 0.53008 0.0
C112 C 0.51735 0.71481 0.66388 0.0
C113 C 0.49792 0.78724 0.52993 0.0
O114 O 0.52893 0.60517 0.5657 0.0
O115 O 0.88945 0.8828 0.02075 0.0
Zn116 Zn 0.86163 0.8001 0.0352 0.0
O117 O 0.86187 0.79598 0.08595 0.0
Zn118 Zn 0.77695 0.7869 0.10478 0.0
Zn119 Zn 0.90331 0.86681 0.10393 0.0
Zn120 Zn 0.91599 0.73139 0.10049 0.0
O121 O 0.77238 0.70202 0.12883 0.0
O122 O 0.86195 0.65843 0.10846 0.0
O123 O 0.77268 0.78757 0.01453 0.0
O124 O 0.71446 0.78497 0.06386 0.0
O125 O 0.7514 0.8657 0.13193 0.0
O126 O 0.83637 0.92298 0.11925 0.0
O127 O 0.95227 0.85039 0.14852 0.0
O128 O 0.93295 0.74834 0.01475 0.0
O129 O 0.95242 0.74977 0.14845 0.0
O130 O 0.98543 0.72069 0.06353 0.0
C131 C 0.93284 0.91658 0.03389 0.0
C132 C 0.8078 0.65479 0.124 0.0
C133 C 0.78017 0.91732 0.13163 0.0
C134 C 0.71841 0.78542 0.03012 0.0
C135 C 0.96374 0.80007 0.16387 0.0
C136 C 0.98315 0.7276 0.02992 0.0
O137 O 0.95219 0.90971 0.06571 0.0
O138 O 0.09167 0.88272 0.4573 0.0
Zn139 Zn 0.1195 0.80001 0.44283 0.0
O140 O 0.11928 0.79589 0.39208 0.0
Zn141 Zn 0.2042 0.78677 0.37327 0.0
Zn142 Zn 0.07788 0.86674 0.37412 0.0
Zn143 Zn 0.06513 0.73133 0.37752 0.0
O144 O 0.20876 0.70187 0.34921 0.0
O145 O 0.11914 0.65834 0.36954 0.0
O146 O 0.20843 0.78748 0.46351 0.0
O147 O 0.26667 0.78486 0.41419 0.0
O148 O 0.22979 0.86554 0.34612 0.0
O149 O 0.14484 0.92287 0.35881 0.0
O150 O 0.02893 0.85034 0.32952 0.0
O151 O 0.04816 0.74827 0.46326 0.0
O152 O 0.02872 0.74972 0.32956 0.0
O153 O -0.00434 0.72067 0.41447 0.0
C154 C 0.04831 0.91652 0.44416 0.0
C155 C 0.17331 0.65466 0.35402 0.0
C156 C 0.20103 0.91718 0.34643 0.0
C157 C 0.26271 0.78532 0.44794 0.0
C158 C 0.01743 0.80003 0.31414 0.0
C159 C -0.00205 0.72757 0.44809 0.0
O160 O 0.02899 0.90966 0.41233 0.0
O161 O 0.38946 0.63205 0.95731 0.0
Zn162 Zn 0.36166 0.71475 0.94286 0.0
O163 O 0.36193 0.71887 0.89211 0.0
Zn164 Zn 0.27703 0.72795 0.87328 0.0
Zn165 Zn 0.40338 0.64803 0.87414 0.0
Zn166 Zn 0.41606 0.78345 0.87757 0.0
O167 O 0.27248 0.81282 0.84922 0.0
O168 O 0.36202 0.8564 0.86961 0.0
O169 O 0.2727 0.72729 0.96353 0.0
O170 O 0.21451 0.72989 0.9142 0.0
O171 O 0.2515 0.64915 0.84613 0.0
O172 O 0.33646 0.59185 0.85882 0.0
O173 O 0.45234 0.66444 0.82954 0.0
O174 O 0.43297 0.7665 0.96331 0.0
O175 O 0.4525 0.76506 0.82961 0.0
O176 O 0.48549 0.79414 0.91453 0.0
C177 C 0.43288 0.59827 0.94417 0.0
C178 C 0.30789 0.86005 0.85405 0.0
C179 C 0.28027 0.59751 0.84644 0.0
C180 C 0.21844 0.72944 0.94795 0.0
C181 C 0.46382 0.71476 0.81418 0.0
C182 C 0.48318 0.78723 0.94814 0.0
O183 O 0.45225 0.60514 0.91235 0.0
C184 C 0.29909 0.98259 0.34654 0.0
C185 C 0.23448 0.9746 0.3377 0.0
H186 H 0.37349 0.04607 0.35868 0.0
C187 C 0.19778 0.02605 0.32847 0.0
H188 H 0.32841 0.94399 0.35401 0.0
C189 C 0.22308 0.08467 0.33159 0.0
C190 C 0.28575 0.09312 0.344 0.0
H191 H 0.14778 0.02123 0.3213 0.0
H192 H 0.19222 0.12326 0.32639 0.0
C193 C 0.32449 0.04134 0.34969 0.0
C194 C 0.15681 0.47334 0.84967 0.0
C195 C 0.19557 0.42156 0.844 0.0
H196 H 0.15287 0.57069 0.85397 0.0
C197 C 0.25827 0.43 0.83162 0.0
H198 H 0.10779 0.46862 0.85863 0.0
C199 C 0.28357 0.48861 0.8285 0.0
C200 C 0.24684 0.54008 0.83771 0.0
H201 H 0.28914 0.3914 0.82644 0.0
H202 H 0.33359 0.49343 0.82136 0.0
C203 C 0.18221 0.53209 0.84652 0.0
C204 C 0.79899 0.5322 0.63151 0.0
C205 C 0.73436 0.5402 0.64034 0.0
H206 H 0.87341 0.46871 0.6194 0.0
C207 C 0.69765 0.48876 0.64958 0.0
H208 H 0.82831 0.57079 0.62405 0.0
C209 C 0.72295 0.43014 0.64647 0.0
C210 C 0.78563 0.42168 0.63407 0.0
H211 H 0.64764 0.4936 0.65673 0.0
H212 H 0.69208 0.39156 0.65166 0.0
C213 C 0.82439 0.47345 0.62838 0.0
C214 C 0.75814 0.08484 0.14645 0.0
C215 C 0.69547 0.09328 0.13406 0.0
H216 H 0.83345 0.02141 0.15673 0.0
C217 C 0.65672 0.0415 0.12838 0.0
H218 H 0.78901 0.12343 0.15164 0.0
C219 C 0.68212 0.98275 0.13154 0.0
C220 C 0.74674 0.97476 0.14036 0.0
H221 H 0.60771 0.04622 0.11941 0.0
H222 H 0.65279 0.94415 0.12409 0.0
C223 C 0.78345 0.02622 0.14958 0.0
C224 C 0.78464 0.98874 0.64944 0.0
C225 C 0.74791 0.04018 0.64023 0.0
H226 H 0.7902 0.89154 0.65155 0.0
C227 C 0.68326 0.03219 0.63148 0.0
H228 H 0.83467 0.99356 0.65654 0.0
C229 C 0.65784 0.97344 0.62839 0.0
C230 C 0.6966 0.92166 0.63406 0.0
H231 H 0.65392 0.07078 0.62404 0.0
H232 H 0.60879 0.9687 0.61947 0.0
C233 C 0.75932 0.93012 0.64638 0.0
C234 C 0.82317 0.54151 0.12841 0.0
C235 C 0.78439 0.59329 0.13406 0.0
H236 H 0.8271 0.44417 0.12407 0.0
C237 C 0.72165 0.58485 0.14636 0.0
H238 H 0.87223 0.54624 0.11951 0.0
C239 C 0.69632 0.52624 0.14942 0.0
C240 C 0.73307 0.47478 0.14023 0.0
H241 H 0.69076 0.62344 0.15152 0.0
H242 H 0.64627 0.52142 0.1565 0.0
C243 C 0.79774 0.48277 0.1315 0.0
C244 C 0.28478 0.52605 0.32863 0.0
C245 C 0.24803 0.47461 0.33783 0.0
H246 H 0.29034 0.62325 0.3265 0.0
C247 C 0.18336 0.48262 0.34656 0.0
H248 H 0.33482 0.52121 0.32154 0.0
C249 C 0.15793 0.54138 0.34964 0.0
C250 C 0.19671 0.59314 0.34397 0.0
H251 H 0.15401 0.44403 0.354 0.0
H252 H 0.10888 0.54612 0.35855 0.0
C253 C 0.25945 0.58467 0.33167 0.0
C254 C 0.29783 0.03207 0.84655 0.0
C255 C 0.23318 0.04005 0.8378 0.0
H256 H 0.37231 0.9686 0.85855 0.0
C257 C 0.19644 0.9886 0.82861 0.0
H258 H 0.32717 0.07067 0.85398 0.0
C259 C 0.22177 0.92999 0.83167 0.0
C260 C 0.2845 0.92154 0.84398 0.0
H261 H 0.14641 0.99342 0.82151 0.0
H262 H 0.19089 0.8914 0.82651 0.0
C263 C 0.32326 0.97332 0.84964 0.0
C264 C 0.44295 0.46981 0.50245 0.0
C265 C 0.46323 0.46312 0.46708 0.0
H266 H 0.45404 0.51763 0.55137 0.0
C267 C 0.51183 0.50095 0.45397 0.0
H268 H 0.4056 0.44123 0.5134 0.0
C269 C 0.53962 0.54465 0.47581 0.0
C270 C 0.51933 0.55135 0.51117 0.0
H271 H 0.52852 0.49683 0.42688 0.0
H272 H 0.57697 0.57323 0.46486 0.0
C273 C 0.47074 0.51351 0.52428 0.0
C274 C 0.94151 0.97018 0.97582 0.0
C275 C 0.96182 0.96349 0.01117 0.0
H276 H 0.95261 0.01796 0.92689 0.0
C277 C 0.01043 1.00131 0.02427 0.0
H278 H 0.90414 0.94161 0.96488 0.0
C279 C 0.03824 0.04498 0.00243 0.0
C280 C 0.01795 0.05166 0.96707 0.0
H281 H 0.02714 0.9972 0.05136 0.0
H282 H 0.07562 0.07355 0.01336 0.0
C283 C 0.96932 0.01385 0.95398 0.0
C284 C 0.01179 0.01381 0.52409 0.0
C285 C 0.96321 0.05167 0.51098 0.0
H286 H 0.07693 0.94152 0.51319 0.0
C287 C 0.94297 0.04501 0.47561 0.0
H288 H 0.02845 0.0179 0.55118 0.0
C289 C 0.97078 1.00132 0.45377 0.0
C290 C 0.01934 0.96345 0.46688 0.0
H291 H 0.90564 0.07361 0.46467 0.0
H292 H 0.95411 0.99722 0.42667 0.0
C293 C 0.0396 0.97012 0.50224 0.0
C294 C 0.51048 0.51355 0.95379 0.0
C295 C 0.46183 0.55136 0.96688 0.0
H296 H 0.57568 0.44132 0.9647 0.0
C297 C 0.44147 0.54465 0.00223 0.0
H298 H 0.52723 0.51768 0.92671 0.0
C299 C 0.46927 0.50097 0.02407 0.0
C300 C 0.51793 0.46318 0.01098 0.0
H301 H 0.40407 0.5732 0.01316 0.0
H302 H 0.45252 0.49685 0.05115 0.0
C303 C 0.53828 0.46987 0.97563 0.0
C304 C 0.49496 0.24498 0.22065 0.0
C305 C 0.49955 0.30008 0.20189 0.0
H306 H 0.48209 0.20166 0.27087 0.0
C307 C 0.49498 0.35516 0.22069 0.0
H308 H 0.49902 0.20169 0.2071 0.0
C309 C 0.48616 0.35514 0.25739 0.0
C310 C 0.48158 0.30004 0.27615 0.0
H311 H 0.49905 0.39846 0.20716 0.0
H312 H 0.48209 0.39843 0.27094 0.0
C313 C 0.48615 0.24496 0.25735 0.0
C314 C -0.005 0.26983 0.7574 0.0
C315 C -0.00041 0.21473 0.77617 0.0
H316 H 0.98207 0.31313 0.70718 0.0
C317 C -0.00502 0.15964 0.75738 0.0
H318 H -0.00092 0.31312 0.77094 0.0
C319 C 0.98611 0.15965 0.72068 0.0
C320 C 0.98153 0.21474 0.70191 0.0
H321 H -0.00094 0.11635 0.77091 0.0
H322 H 0.98202 0.11635 0.70714 0.0
C323 C 0.98614 0.26983 0.72071 0.0
C324 C 0.48595 0.76986 0.75738 0.0
C325 C 0.48113 0.71476 0.77613 0.0
H326 H 0.49947 0.81317 0.7072 0.0
C327 C 0.48593 0.65968 0.75735 0.0
H328 H 0.48173 0.81315 0.77092 0.0
C329 C 0.49523 0.65969 0.72068 0.0
C330 C 0.50005 0.71479 0.70193 0.0
H331 H 0.4817 0.61637 0.77086 0.0
H332 H 0.49945 0.6164 0.70715 0.0
C333 C 0.49524 0.76987 0.72072 0.0
C334 C 0.98592 0.74498 0.22067 0.0
C335 C 0.98108 0.80008 0.20191 0.0
H336 H -0.00051 0.70167 0.27084 0.0
C337 C 0.98593 0.85516 0.22069 0.0
H338 H 0.98168 0.70169 0.20713 0.0
C339 C -0.00473 0.85515 0.25735 0.0
C340 C 0.0001 0.80006 0.2761 0.0
H341 H 0.98169 0.89846 0.20718 0.0
H342 H -0.00048 0.89844 0.27088 0.0
C343 C -0.00475 0.74497 0.25733 0.0
C344 C 0.60378 0.21402 0.4526 0.0
C345 C 0.54399 0.22107 0.4694 0.0
H346 H 0.70591 0.21219 0.45827 0.0
C347 C 0.54271 0.22981 0.50634 0.0
H348 H 0.60677 0.20777 0.42416 0.0
C349 C 0.59959 0.23282 0.52583 0.0
C350 C 0.65944 0.22743 0.50895 0.0
H351 H 0.49772 0.23578 0.52021 0.0
H352 H 0.59649 0.24006 0.55419 0.0
C353 C 0.66079 0.21733 0.47212 0.0
C354 C 0.93847 0.28499 0.00635 0.0
C355 C 0.93723 0.29375 0.96941 0.0
H356 H 0.88463 0.27475 0.05419 0.0
C357 C 0.87747 0.30084 0.95262 0.0
H358 H 0.98344 0.27899 0.02022 0.0
C359 C 0.82043 0.29755 0.97213 0.0
C360 C 0.82174 0.28743 0.00895 0.0
H361 H 0.87451 0.30711 0.92418 0.0
H362 H 0.77533 0.30272 0.95828 0.0
C363 C 0.88157 0.282 0.02584 0.0
C364 C 0.10374 0.30078 0.52547 0.0
C365 C 0.04397 0.29373 0.50868 0.0
H366 H 0.20588 0.30262 0.5198 0.0
C367 C 0.04272 0.28498 0.47174 0.0
H368 H 0.10671 0.30703 0.55391 0.0
C369 C 0.09961 0.28198 0.45225 0.0
C370 C 0.15945 0.28737 0.46913 0.0
H371 H -0.00226 0.27901 0.45787 0.0
H372 H 0.09654 0.27474 0.42389 0.0
C373 C 0.16077 0.29747 0.50596 0.0
C374 C 0.43848 0.22986 0.97169 0.0
C375 C 0.43722 0.2211 0.00863 0.0
H376 H 0.38468 0.24009 0.92385 0.0
C377 C 0.37744 0.21401 0.02542 0.0
H378 H 0.48346 0.23586 0.95782 0.0
C379 C 0.32042 0.21728 0.00591 0.0
C380 C 0.32175 0.2274 0.96909 0.0
H381 H 0.37446 0.20774 0.05386 0.0
H382 H 0.27531 0.21211 0.01976 0.0
C383 C 0.3816 0.23283 0.9522 0.0
C384 C 0.43957 0.78479 0.47173 0.0
C385 C 0.43827 0.79358 0.50867 0.0
H386 H 0.38582 0.77458 0.42387 0.0
C387 C 0.37848 0.80072 0.52544 0.0
H388 H 0.48456 0.77875 0.45788 0.0
C389 C 0.32147 0.79747 0.50591 0.0
C390 C 0.32284 0.78733 0.46908 0.0
H391 H 0.37547 0.807 0.55388 0.0
H392 H 0.27635 0.80268 0.51974 0.0
C393 C 0.38271 0.78185 0.45222 0.0
C394 C 0.10258 0.71406 0.02543 0.0
C395 C 0.04281 0.72123 0.00865 0.0
H396 H 0.20472 0.71206 0.01974 0.0
C397 C 0.04156 0.73003 0.97172 0.0
H398 H 0.10556 0.70777 0.05386 0.0
C399 C 0.09844 0.73296 0.95222 0.0
C400 C 0.15828 0.72744 0.96908 0.0
H401 H -0.00342 0.73609 0.95786 0.0
H402 H 0.09536 0.74024 0.92386 0.0
C403 C 0.15961 0.71729 0.0059 0.0
C404 C 0.87851 0.71408 0.45258 0.0
C405 C 0.93829 0.72122 0.46935 0.0
H406 H 0.77638 0.71212 0.45828 0.0
C407 C 0.93956 0.73 0.50629 0.0
H408 H 0.87552 0.7078 0.42414 0.0
C409 C 0.88268 0.73294 0.5258 0.0
C410 C 0.82283 0.72746 0.50894 0.0
H411 H 0.98454 0.73603 0.52015 0.0
H412 H 0.88577 0.74021 0.55416 0.0
C413 C 0.82149 0.71733 0.47211 0.0
C414 C 0.59841 0.7819 0.02584 0.0
C415 C 0.65827 0.78741 0.00898 0.0
H416 H 0.49656 0.77875 0.0202 0.0
C417 C 0.65962 0.79755 0.97216 0.0
H418 H 0.59532 0.77462 0.0542 0.0
C419 C 0.60261 0.80078 0.95263 0.0
C420 C 0.54282 0.7936 0.96941 0.0
H421 H 0.70474 0.80279 0.95832 0.0
H422 H 0.60561 0.80707 0.9242 0.0
C423 C 0.54154 0.78481 0.00634 0.0
loop_
_geom_bond_atom_site_label_1
_geom_bond_atom_site_label_2
_geom_bond_distance
_geom_bond_site_symmetry_2
_ccdc_geom_bond_type
O0 Zn1 1.953 . S
O0 C16 1.225 . S
Zn1 O0 1.953 . S
Zn1 O2 1.949 . S
Zn1 O8 1.919 . S
Zn1 O13 1.924 . S
O2 Zn1 1.949 . S
O2 Zn3 1.923 . S
O2 Zn4 1.950 . S
O2 Zn5 1.945 . S
Zn3 O2 1.923 . S
Zn3 O6 1.933 . S
Zn3 O9 1.941 . S
Zn3 O10 1.965 . S
Zn4 O2 1.950 . S
Zn4 O11 1.938 . S
Zn4 O12 1.906 . S
Zn4 O22 1.953 . S
Zn5 O2 1.945 . S
Zn5 O7 1.932 . S
Zn5 O14 1.977 . S
Zn5 O15 1.910 . S
O6 Zn3 1.933 . S
O6 C17 1.226 . S
O7 Zn5 1.932 . S
O7 C17 1.307 . S
O8 Zn1 1.919 . S
O8 C19 1.253 . S
O9 Zn3 1.941 . S
O9 C19 1.283 . S
O10 Zn3 1.965 . S
O10 C18 1.303 . S
O11 Zn4 1.938 . S
O11 C18 1.247 . S
O12 Zn4 1.906 . S
O12 C20 1.304 . S
O13 Zn1 1.924 . S
O13 C21 1.311 . S
O14 Zn5 1.977 . S
O14 C20 1.272 . S
O15 Zn5 1.910 . S
O15 C21 1.231 . S
C16 O0 1.225 . S
C16 O22 1.298 . S
C17 O6 1.226 . S
C17 O7 1.307 . S
C18 O10 1.303 . S
C18 O11 1.247 . S
C19 O8 1.253 . S
C19 O9 1.283 . S
C20 O12 1.304 . S
C20 O14 1.272 . S
C21 O13 1.311 . S
C21 O15 1.231 . S
O22 Zn4 1.953 . S
O22 C16 1.298 . S
O23 Zn24 1.953 . S
O23 C39 1.225 . S
Zn24 O23 1.953 . S
Zn24 O25 1.949 . S
Zn24 O31 1.919 . S
Zn24 O36 1.924 . S
O25 Zn24 1.949 . S
O25 Zn26 1.923 . S
O25 Zn27 1.950 . S
O25 Zn28 1.945 . S
Zn26 O25 1.923 . S
Zn26 O29 1.933 . S
Zn26 O32 1.941 . S
Zn26 O33 1.965 . S
Zn27 O25 1.950 . S
Zn27 O34 1.938 . S
Zn27 O35 1.906 . S
Zn27 O45 1.953 . S
Zn28 O25 1.945 . S
Zn28 O30 1.932 . S
Zn28 O37 1.977 . S
Zn28 O38 1.910 . S
O29 Zn26 1.933 . S
O29 C40 1.226 . S
O30 Zn28 1.932 . S
O30 C40 1.307 . S
O31 Zn24 1.919 . S
O31 C42 1.253 . S
O32 Zn26 1.941 . S
O32 C42 1.283 . S
O33 Zn26 1.965 . S
O33 C41 1.303 . S
O34 Zn27 1.938 . S
O34 C41 1.247 . S
O35 Zn27 1.906 . S
O35 C43 1.304 . S
O36 Zn24 1.924 . S
O36 C44 1.311 1_455 S
O37 Zn28 1.977 . S
O37 C43 1.272 . S
O38 Zn28 1.910 . S
O38 C44 1.231 1_455 S
C39 O23 1.225 . S
C39 O45 1.298 . S
C40 O29 1.226 . S
C40 O30 1.307 . S
C41 O33 1.303 . S
C41 O34 1.247 . S
C42 O31 1.253 . S
C42 O32 1.283 . S
C43 O35 1.304 . S
C43 O37 1.272 . S
C44 O36 1.311 1_655 S
C44 O38 1.231 1_655 S
O45 Zn27 1.953 . S
O45 C39 1.298 . S
O46 Zn47 1.953 . S
O46 C62 1.225 . S
Zn47 O46 1.953 . S
Zn47 O48 1.949 . S
Zn47 O54 1.919 . S
Zn47 O59 1.924 . S
O48 Zn47 1.949 . S
O48 Zn49 1.923 . S
O48 Zn50 1.950 . S
O48 Zn51 1.945 . S
Zn49 O48 1.923 . S
Zn49 O52 1.933 . S
Zn49 O55 1.941 . S
Zn49 O56 1.965 . S
Zn50 O48 1.950 . S
Zn50 O57 1.938 . S
Zn50 O58 1.906 . S
Zn50 O68 1.953 . S
Zn51 O48 1.945 . S
Zn51 O53 1.932 . S
Zn51 O60 1.977 . S
Zn51 O61 1.910 . S
O52 Zn49 1.933 . S
O52 C63 1.226 . S
O53 Zn51 1.932 . S
O53 C63 1.307 . S
O54 Zn47 1.919 . S
O54 C65 1.253 . S
O55 Zn49 1.941 . S
O55 C65 1.283 . S
O56 Zn49 1.965 . S
O56 C64 1.303 . S
O57 Zn50 1.938 . S
O57 C64 1.247 . S
O58 Zn50 1.906 . S
O58 C66 1.304 . S
O59 Zn47 1.924 . S
O59 C67 1.311 1_655 S
O60 Zn51 1.977 . S
O60 C66 1.272 . S
O61 Zn51 1.910 . S
O61 C67 1.231 1_655 S
C62 O46 1.225 . S
C62 O68 1.298 . S
C63 O52 1.226 . S
C63 O53 1.307 . S
C64 O56 1.303 . S
C64 O57 1.247 . S
C65 O54 1.253 . S
C65 O55 1.283 . S
C66 O58 1.304 . S
C66 O60 1.272 . S
C67 O59 1.311 1_455 S
C67 O61 1.231 1_455 S
O68 Zn50 1.953 . S
O68 C62 1.298 . S
O69 Zn70 1.953 . S
O69 C85 1.225 . S
Zn70 O69 1.953 . S
Zn70 O71 1.949 . S
Zn70 O77 1.919 . S
Zn70 O82 1.924 . S
O71 Zn70 1.949 . S
O71 Zn72 1.923 . S
O71 Zn73 1.950 . S
O71 Zn74 1.945 . S
Zn72 O71 1.923 . S
Zn72 O75 1.933 . S
Zn72 O78 1.941 . S
Zn72 O79 1.965 . S
Zn73 O71 1.950 . S
Zn73 O80 1.938 . S
Zn73 O81 1.906 . S
Zn73 O91 1.953 . S
Zn74 O71 1.945 . S
Zn74 O76 1.932 . S
Zn74 O83 1.977 . S
Zn74 O84 1.910 . S
O75 Zn72 1.933 . S
O75 C86 1.226 . S
O76 Zn74 1.932 . S
O76 C86 1.307 . S
O77 Zn70 1.919 . S
O77 C88 1.253 . S
O78 Zn72 1.941 . S
O78 C88 1.283 . S
O79 Zn72 1.965 . S
O79 C87 1.303 . S
O80 Zn73 1.938 . S
O80 C87 1.247 . S
O81 Zn73 1.906 . S
O81 C89 1.304 . S
O82 Zn70 1.924 . S
O82 C90 1.311 . S
O83 Zn74 1.977 . S
O83 C89 1.272 . S
O84 Zn74 1.910 . S
O84 C90 1.231 . S
C85 O69 1.225 . S
C85 O91 1.298 . S
C86 O75 1.226 . S
C86 O76 1.307 . S
C87 O79 1.303 . S
C87 O80 1.247 . S
C88 O77 1.253 . S
C88 O78 1.283 . S
C89 O81 1.304 . S
C89 O83 1.272 . S
C90 O82 1.311 . S
C90 O84 1.231 . S
O91 Zn73 1.953 . S
O91 C85 1.298 . S
O92 Zn93 1.953 . S
O92 C108 1.225 . S
Zn93 O92 1.953 . S
Zn93 O94 1.949 . S
Zn93 O100 1.919 . S
Zn93 O105 1.924 . S
O94 Zn93 1.949 . S
O94 Zn95 1.923 . S
O94 Zn96 1.950 . S
O94 Zn97 1.945 . S
Zn95 O94 1.923 . S
Zn95 O98 1.933 . S
Zn95 O101 1.941 . S
Zn95 O102 1.965 . S
Zn96 O94 1.950 . S
Zn96 O103 1.938 . S
Zn96 O104 1.906 . S
Zn96 O114 1.953 . S
Zn97 O94 1.945 . S
Zn97 O99 1.932 . S
Zn97 O106 1.977 . S
Zn97 O107 1.910 . S
O98 Zn95 1.933 . S
O98 C109 1.226 . S
O99 Zn97 1.932 . S
O99 C109 1.307 . S
O100 Zn93 1.919 . S
O100 C111 1.253 . S
O101 Zn95 1.941 . S
O101 C111 1.283 . S
O102 Zn95 1.965 . S
O102 C110 1.303 . S
O103 Zn96 1.938 . S
O103 C110 1.247 . S
O104 Zn96 1.906 . S
O104 C112 1.304 . S
O105 Zn93 1.924 . S
O105 C113 1.311 . S
O106 Zn97 1.977 . S
O106 C112 1.272 . S
O107 Zn97 1.910 . S
O107 C113 1.231 . S
C108 O92 1.225 . S
C108 O114 1.298 . S
C109 O98 1.226 . S
C109 O99 1.307 . S
C110 O102 1.303 . S
C110 O103 1.247 . S
C111 O100 1.253 . S
C111 O101 1.283 . S
C112 O104 1.304 . S
C112 O106 1.272 . S
C113 O105 1.311 . S
C113 O107 1.231 . S
O114 Zn96 1.953 . S
O114 C108 1.298 . S
O115 Zn116 1.953 . S
O115 C131 1.225 . S
Zn116 O115 1.953 . S
Zn116 O117 1.949 . S
Zn116 O123 1.919 . S
Zn116 O128 1.924 . S
O117 Zn116 1.949 . S
O117 Zn118 1.923 . S
O117 Zn119 1.950 . S
O117 Zn120 1.945 . S
Zn118 O117 1.923 . S
Zn118 O121 1.933 . S
Zn118 O124 1.941 . S
Zn118 O125 1.965 . S
Zn119 O117 1.950 . S
Zn119 O126 1.938 . S
Zn119 O127 1.906 . S
Zn119 O137 1.953 . S
Zn120 O117 1.945 . S
Zn120 O122 1.932 . S
Zn120 O129 1.977 . S
Zn120 O130 1.910 . S
O121 Zn118 1.933 . S
O121 C132 1.226 . S
O122 Zn120 1.932 . S
O122 C132 1.307 . S
O123 Zn116 1.919 . S
O123 C134 1.253 . S
O124 Zn118 1.941 . S
O124 C134 1.283 . S
O125 Zn118 1.965 . S
O125 C133 1.303 . S
O126 Zn119 1.938 . S
O126 C133 1.247 . S
O127 Zn119 1.906 . S
O127 C135 1.304 . S
O128 Zn116 1.924 . S
O128 C136 1.311 1_655 S
O129 Zn120 1.977 . S
O129 C135 1.272 . S
O130 Zn120 1.910 . S
O130 C136 1.231 1_655 S
C131 O115 1.225 . S
C131 O137 1.298 . S
C132 O121 1.226 . S
C132 O122 1.307 . S
C133 O125 1.303 . S
C133 O126 1.247 . S
C134 O123 1.253 . S
C134 O124 1.283 . S
C135 O127 1.304 . S
C135 O129 1.272 . S
C136 O128 1.311 1_455 S
C136 O130 1.231 1_455 S
O137 Zn119 1.953 . S
O137 C131 1.298 . S
O138 Zn139 1.953 . S
O138 C154 1.225 . S
Zn139 O138 1.953 . S
Zn139 O140 1.949 . S
Zn139 O146 1.919 . S
Zn139 O151 1.924 . S
O140 Zn139 1.949 . S
O140 Zn141 1.923 . S
O140 Zn142 1.950 . S
O140 Zn143 1.945 . S
Zn141 O140 1.923 . S
Zn141 O144 1.933 . S
Zn141 O147 1.941 . S
Zn141 O148 1.965 . S
Zn142 O140 1.950 . S
Zn142 O149 1.938 . S
Zn142 O150 1.906 . S
Zn142 O160 1.953 . S
Zn143 O140 1.945 . S
Zn143 O145 1.932 . S
Zn143 O152 1.977 . S
Zn143 O153 1.910 . S
O144 Zn141 1.933 . S
O144 C155 1.226 . S
O145 Zn143 1.932 . S
O145 C155 1.307 . S
O146 Zn139 1.919 . S
O146 C157 1.253 . S
O147 Zn141 1.941 . S
O147 C157 1.283 . S
O148 Zn141 1.965 . S
O148 C156 1.303 . S
O149 Zn142 1.938 . S
O149 C156 1.247 . S
O150 Zn142 1.906 . S
O150 C158 1.304 . S
O151 Zn139 1.924 . S
O151 C159 1.311 1_455 S
O152 Zn143 1.977 . S
O152 C158 1.272 . S
O153 Zn143 1.910 . S
O153 C159 1.231 1_455 S
C154 O138 1.225 . S
C154 O160 1.298 . S
C155 O144 1.226 . S
C155 O145 1.307 . S
C156 O148 1.303 . S
C156 O149 1.247 . S
C157 O146 1.253 . S
C157 O147 1.283 . S
C158 O150 1.304 . S
C158 O152 1.272 . S
C159 O151 1.311 1_655 S
C159 O153 1.231 1_655 S
O160 Zn142 1.953 . S
O160 C154 1.298 . S
O161 Zn162 1.953 . S
O161 C177 1.225 . S
Zn162 O161 1.953 . S
Zn162 O163 1.949 . S
Zn162 O169 1.919 . S
Zn162 O174 1.924 . S
O163 Zn162 1.949 . S
O163 Zn164 1.923 . S
O163 Zn165 1.950 . S
O163 Zn166 1.945 . S
Zn164 O163 1.923 . S
Zn164 O167 1.933 . S
Zn164 O170 1.941 . S
Zn164 O171 1.965 . S
Zn165 O163 1.950 . S
Zn165 O172 1.938 . S
Zn165 O173 1.906 . S
Zn165 O183 1.953 . S
Zn166 O163 1.945 . S
Zn166 O168 1.932 . S
Zn166 O175 1.977 . S
Zn166 O176 1.910 . S
O167 Zn164 1.933 . S
O167 C178 1.226 . S
O168 Zn166 1.932 . S
O168 C178 1.307 . S
O169 Zn162 1.919 . S
O169 C180 1.253 . S
O170 Zn164 1.941 . S
O170 C180 1.283 . S
O171 Zn164 1.965 . S
O171 C179 1.303 . S
O172 Zn165 1.938 . S
O172 C179 1.247 . S
O173 Zn165 1.906 . S
O173 C181 1.304 . S
O174 Zn162 1.924 . S
O174 C182 1.311 . S
O175 Zn166 1.977 . S
O175 C181 1.272 . S
O176 Zn166 1.910 . S
O176 C182 1.231 . S
C177 O161 1.225 . S
C177 O183 1.298 . S
C178 O167 1.226 . S
C178 O168 1.307 . S
C179 O171 1.303 . S
C179 O172 1.247 . S
C180 O169 1.253 . S
C180 O170 1.283 . S
C181 O173 1.304 . S
C181 O175 1.272 . S
C182 O174 1.311 . S
C182 O176 1.231 . S
O183 Zn165 1.953 . S
O183 C177 1.298 . S
C184 C185 1.377 1_545 S
C184 H188 0.950 . S
C184 C193 1.390 . S
C185 C184 1.377 1_565 S
C185 C187 1.381 1_565 S
H186 C193 0.950 . S
C187 C185 1.381 1_545 S
C187 C189 1.390 . S
C187 H191 0.950 1_545 S
H188 C184 0.950 . S
C189 C187 1.390 . S
C189 C190 1.387 . S
C189 H192 0.950 . S
C190 C189 1.387 . S
C190 C193 1.387 . S
H191 C187 0.950 1_565 S
H192 C189 0.950 . S
C193 C184 1.390 . S
C193 H186 0.950 . S
C193 C190 1.387 . S
C194 C195 1.387 . S
C194 H198 0.950 . S
C194 C203 1.390 . S
C195 C194 1.387 . S
C195 C197 1.387 . S
H196 C203 0.950 . S
C197 C195 1.387 . S
C197 C199 1.390 . S
C197 H201 0.950 . S
H198 C194 0.950 . S
C199 C197 1.390 . S
C199 C200 1.387 . S
C199 H202 0.950 . S
C200 C199 1.387 . S
C200 C203 1.387 . S
H201 C197 0.950 . S
H202 C199 0.950 . S
C203 C194 1.390 . S
C203 H196 0.950 . S
C203 C200 1.387 . S
C204 C205 1.387 . S
C204 H208 0.950 . S
C204 C213 1.390 . S
C205 C204 1.387 . S
C205 C207 1.387 . S
H206 C213 0.950 . S
C207 C205 1.387 . S
C207 C209 1.390 . S
C207 H211 0.950 . S
H208 C204 0.950 . S
C209 C207 1.390 . S
C209 C210 1.387 . S
C209 H212 0.950 . S
C210 C209 1.387 . S
C210 C213 1.387 . S
H211 C207 0.950 . S
H212 C209 0.950 . S
C213 C204 1.390 . S
C213 H206 0.950 . S
C213 C210 1.387 . S
C214 C215 1.387 . S
C214 H218 0.950 . S
C214 C223 1.390 . S
C215 C214 1.387 . S
C215 C217 1.387 . S
H216 C223 0.950 . S
C217 C215 1.387 . S
C217 C219 1.390 . S
C217 H221 0.950 . S
H218 C214 0.950 . S
C219 C217 1.390 . S
C219 C220 1.382 1_545 S
C219 H222 0.950 1_545 S
C220 C219 1.382 1_565 S
C220 C223 1.375 1_565 S
H221 C217 0.950 . S
H222 C219 0.950 1_565 S
C223 C214 1.390 . S
C223 H216 0.950 . S
C223 C220 1.375 1_545 S
C224 C225 1.375 1_565 S
C224 H228 0.950 . S
C224 C233 1.390 . S
C225 C224 1.375 1_545 S
C225 C227 1.381 1_545 S
H226 C233 0.950 . S
C227 C225 1.381 1_565 S
C227 C229 1.390 . S
C227 H231 0.950 1_565 S
H228 C224 0.950 . S
C229 C227 1.390 . S
C229 C230 1.387 . S
C229 H232 0.950 . S
C230 C229 1.387 . S
C230 C233 1.387 . S
H231 C227 0.950 1_545 S
H232 C229 0.950 . S
C233 C224 1.390 . S
C233 H226 0.950 . S
C233 C230 1.387 . S
C234 C235 1.387 . S
C234 H238 0.950 . S
C234 C243 1.390 . S
C235 C234 1.387 . S
C235 C237 1.387 . S
H236 C243 0.950 . S
C237 C235 1.387 . S
C237 C239 1.390 . S
C237 H241 0.950 . S
H238 C234 0.950 . S
C239 C237 1.390 . S
C239 C240 1.387 . S
C239 H242 0.950 . S
C240 C239 1.387 . S
C240 C243 1.387 . S
H241 C237 0.950 . S
H242 C239 0.950 . S
C243 C234 1.390 . S
C243 H236 0.950 . S
C243 C240 1.387 . S
C244 C245 1.387 . S
C244 H248 0.950 . S
C244 C253 1.390 . S
C245 C244 1.387 . S
C245 C247 1.387 . S
H246 C253 0.950 . S
C247 C245 1.387 . S
C247 C249 1.390 . S
C247 H251 0.950 . S
H248 C244 0.950 . S
C249 C247 1.390 . S
C249 C250 1.387 . S
C249 H252 0.950 . S
C250 C249 1.387 . S
C250 C253 1.387 . S
H251 C247 0.950 . S
H252 C249 0.950 . S
C253 C244 1.390 . S
C253 H246 0.950 . S
C253 C250 1.387 . S
C254 C255 1.382 1_565 S
C254 H258 0.950 1_565 S
C254 C263 1.390 . S
C255 C254 1.382 1_545 S
C255 C257 1.375 1_545 S
H256 C263 0.950 . S
C257 C255 1.375 1_565 S
C257 C259 1.390 . S
C257 H261 0.950 . S
H258 C254 0.950 1_545 S
C259 C257 1.390 . S
C259 C260 1.387 . S
C259 H262 0.950 . S
C260 C259 1.387 . S
C260 C263 1.387 . S
H261 C257 0.950 . S
H262 C259 0.950 . S
C263 C254 1.390 . S
C263 H256 0.950 . S
C263 C260 1.387 . S
C264 C265 1.387 . S
C264 H268 0.950 . S
C264 C273 1.390 . S
C265 C264 1.387 . S
C265 C267 1.387 . S
H266 C273 0.950 . S
C267 C265 1.387 . S
C267 C269 1.390 . S
C267 H271 0.950 . S
H268 C264 0.950 . S
C269 C267 1.390 . S
C269 C270 1.387 . S
C269 H272 0.950 . S
C270 C269 1.387 . S
C270 C273 1.387 . S
H271 C267 0.950 . S
H272 C269 0.950 . S
C273 C264 1.390 . S
C273 H266 0.950 . S
C273 C270 1.387 . S
C274 C275 1.387 1_455 S
C274 H278 0.950 . S
C274 C283 1.390 1_554 S
C275 C274 1.387 1_655 S
C275 C277 1.387 1_565 S
H276 C283 0.950 . S
C277 C275 1.387 1_545 S
C277 C279 1.390 1_554 S
C277 H281 0.950 . S
H278 C274 0.950 . S
C279 C277 1.390 1_556 S
C279 C280 1.387 1_655 S
C279 H282 0.950 . S
C280 C279 1.387 1_455 S
C280 C283 1.387 1_545 S
H281 C277 0.950 . S
H282 C279 0.950 . S
C283 C274 1.390 1_556 S
C283 H276 0.950 . S
C283 C280 1.387 1_565 S
C284 C285 1.387 1_565 S
C284 H288 0.950 . S
C284 C293 1.390 . S
C285 C284 1.387 1_545 S
C285 C287 1.387 1_655 S
H286 C293 0.950 . S
C287 C285 1.387 1_455 S
C287 C289 1.390 . S
C287 H291 0.950 . S
H288 C284 0.950 . S
C289 C287 1.390 . S
C289 C290 1.387 1_545 S
C289 H292 0.950 . S
C290 C289 1.387 1_565 S
C290 C293 1.387 1_455 S
H291 C287 0.950 . S
H292 C289 0.950 . S
C293 C284 1.390 . S
C293 H286 0.950 . S
C293 C290 1.387 1_655 S
C294 C295 1.387 . S
C294 H298 0.950 . S
C294 C303 1.390 1_556 S
C295 C294 1.387 . S
C295 C297 1.387 . S
H296 C303 0.950 . S
C297 C295 1.387 . S
C297 C299 1.390 1_556 S
C297 H301 0.950 . S
H298 C294 0.950 . S
C299 C297 1.390 1_554 S
C299 C300 1.387 . S
C299 H302 0.950 . S
C300 C299 1.387 . S
C300 C303 1.387 . S
H301 C297 0.950 . S
H302 C299 0.950 . S
C303 C294 1.390 1_554 S
C303 H296 0.950 . S
C303 C300 1.387 . S
C304 C305 1.387 . S
C304 H308 0.950 . S
C304 C313 1.390 . S
C305 C304 1.387 . S
C305 C307 1.387 . S
H306 C313 0.950 . S
C307 C305 1.387 . S
C307 C309 1.390 . S
C307 H311 0.950 . S
H308 C304 0.950 . S
C309 C307 1.390 . S
C309 C310 1.387 . S
C309 H312 0.950 . S
C310 C309 1.387 . S
C310 C313 1.387 . S
H311 C307 0.950 . S
H312 C309 0.950 . S
C313 C304 1.390 . S
C313 H306 0.950 . S
C313 C310 1.387 . S
C314 C315 1.387 . S
C314 H318 0.950 . S
C314 C323 1.390 1_455 S
C315 C314 1.387 . S
C315 C317 1.387 . S
H316 C323 0.950 . S
C317 C315 1.387 . S
C317 C319 1.390 1_455 S
C317 H321 0.950 . S
H318 C314 0.950 . S
C319 C317 1.390 1_655 S
C319 C320 1.387 . S
C319 H322 0.950 . S
C320 C319 1.387 . S
C320 C323 1.387 . S
H321 C317 0.950 . S
H322 C319 0.950 . S
C323 C314 1.390 1_655 S
C323 H316 0.950 . S
C323 C320 1.387 . S
C324 C325 1.387 . S
C324 H328 0.950 . S
C324 C333 1.390 . S
C325 C324 1.387 . S
C325 C327 1.387 . S
H326 C333 0.950 . S
C327 C325 1.387 . S
C327 C329 1.390 . S
C327 H331 0.950 . S
H328 C324 0.950 . S
C329 C327 1.390 . S
C329 C330 1.387 . S
C329 H332 0.950 . S
C330 C329 1.387 . S
C330 C333 1.387 . S
H331 C327 0.950 . S
H332 C329 0.950 . S
C333 C324 1.390 . S
C333 H326 0.950 . S
C333 C330 1.387 . S
C334 C335 1.387 . S
C334 H338 0.950 . S
C334 C343 1.390 1_655 S
C335 C334 1.387 . S
C335 C337 1.387 . S
H336 C343 0.950 . S
C337 C335 1.387 . S
C337 C339 1.390 1_655 S
C337 H341 0.950 . S
H338 C334 0.950 . S
C339 C337 1.390 1_455 S
C339 C340 1.387 . S
C339 H342 0.950 . S
C340 C339 1.387 . S
C340 C343 1.387 . S
H341 C337 0.950 . S
H342 C339 0.950 . S
C343 C334 1.390 1_455 S
C343 H336 0.950 . S
C343 C340 1.387 . S
C344 C345 1.387 . S
C344 H348 0.950 . S
C344 C353 1.390 . S
C345 C344 1.387 . S
C345 C347 1.387 . S
H346 C353 0.950 . S
C347 C345 1.387 . S
C347 C349 1.390 . S
C347 H351 0.950 . S
H348 C344 0.950 . S
C349 C347 1.390 . S
C349 C350 1.387 . S
C349 H352 0.950 . S
C350 C349 1.387 . S
C350 C353 1.387 . S
H351 C347 0.950 . S
H352 C349 0.950 . S
C353 C344 1.390 . S
C353 H346 0.950 . S
C353 C350 1.387 . S
C354 C355 1.387 . S
C354 H358 0.950 . S
C354 C363 1.390 . S
C355 C354 1.387 . S
C355 C357 1.387 . S
H356 C363 0.950 1_554 S
C357 C355 1.387 . S
C357 C359 1.390 . S
C357 H361 0.950 . S
H358 C354 0.950 . S
C359 C357 1.390 . S
C359 C360 1.385 1_556 S
C359 H362 0.950 . S
C360 C359 1.385 1_554 S
C360 C363 1.386 1_554 S
H361 C357 0.950 . S
H362 C359 0.950 . S
C363 C354 1.390 . S
C363 H356 0.950 1_556 S
C363 C360 1.386 1_556 S
C364 C365 1.387 . S
C364 H368 0.950 . S
C364 C373 1.390 . S
C365 C364 1.387 . S
C365 C367 1.387 . S
H366 C373 0.950 . S
C367 C365 1.387 . S
C367 C369 1.390 . S
C367 H371 0.950 . S
H368 C364 0.950 . S
C369 C367 1.390 . S
C369 C370 1.387 . S
C369 H372 0.950 . S
C370 C369 1.387 . S
C370 C373 1.387 . S
H371 C367 0.950 . S
H372 C369 0.950 . S
C373 C364 1.390 . S
C373 H366 0.950 . S
C373 C370 1.387 . S
C374 C375 1.387 . S
C374 H378 0.950 . S
C374 C383 1.390 . S
C375 C374 1.387 . S
C375 C377 1.387 . S
H376 C383 0.950 1_556 S
C377 C375 1.387 . S
C377 C379 1.390 . S
C377 H381 0.950 . S
H378 C374 0.950 . S
C379 C377 1.390 . S
C379 C380 1.384 1_554 S
C379 H382 0.950 . S
C380 C379 1.384 1_556 S
C380 C383 1.386 1_556 S
H381 C377 0.950 . S
H382 C379 0.950 . S
C383 C374 1.390 . S
C383 H376 0.950 1_554 S
C383 C380 1.386 1_554 S
C384 C385 1.387 . S
C384 H388 0.950 . S
C384 C393 1.390 . S
C385 C384 1.387 . S
C385 C387 1.387 . S
H386 C393 0.950 . S
C387 C385 1.387 . S
C387 C389 1.390 . S
C387 H391 0.950 . S
H388 C384 0.950 . S
C389 C387 1.390 . S
C389 C390 1.387 . S
C389 H392 0.950 . S
C390 C389 1.387 . S
C390 C393 1.387 . S
H391 C387 0.950 . S
H392 C389 0.950 . S
C393 C384 1.390 . S
C393 H386 0.950 . S
C393 C390 1.387 . S
C394 C395 1.387 . S
C394 H398 0.950 . S
C394 C403 1.390 . S
C395 C394 1.387 . S
C395 C397 1.387 . S
H396 C403 0.950 . S
C397 C395 1.387 . S
C397 C399 1.390 . S
C397 H401 0.950 . S
H398 C394 0.950 . S
C399 C397 1.390 . S
C399 C400 1.386 1_554 S
C399 H402 0.950 1_554 S
C400 C399 1.386 1_556 S
C400 C403 1.384 1_556 S
H401 C397 0.950 . S
H402 C399 0.950 1_556 S
C403 C394 1.390 . S
C403 H396 0.950 . S
C403 C400 1.384 1_554 S
C404 C405 1.387 . S
C404 H408 0.950 . S
C404 C413 1.390 . S
C405 C404 1.387 . S
C405 C407 1.387 . S
H406 C413 0.950 . S
C407 C405 1.387 . S
C407 C409 1.390 . S
C407 H411 0.950 . S
H408 C404 0.950 . S
C409 C407 1.390 . S
C409 C410 1.387 . S
C409 H412 0.950 . S
C410 C409 1.387 . S
C410 C413 1.387 . S
H411 C407 0.950 . S
H412 C409 0.950 . S
C413 C404 1.390 . S
C413 H406 0.950 . S
C413 C410 1.387 . S
C414 C415 1.387 1_556 S
C414 H418 0.950 1_556 S
C414 C423 1.390 . S
C415 C414 1.387 1_554 S
C415 C417 1.387 1_554 S
H416 C423 0.950 . S
C417 C415 1.387 1_556 S
C417 C419 1.390 . S
C417 H421 0.950 . S
H418 C414 0.950 1_554 S
C419 C417 1.390 . S
C419 C420 1.387 . S
C419 H422 0.950 . S
C420 C419 1.387 . S
C420 C423 1.387 . S
H421 C417 0.950 . S
H422 C419 0.950 . S
C423 C414 1.390 . S
C423 H416 0.950 . S
C423 C420 1.387 . S
C185 C156 1.690 . S
C190 C17 1.660 . S
C195 C40 1.661 . S
C200 C179 1.674 . S
C205 C110 1.674 . S
C210 C63 1.660 . S
C215 C86 1.660 . S
C220 C133 1.691 . S
C225 C64 1.694 . S
C230 C109 1.662 . S
C235 C132 1.661 . S
C240 C87 1.676 . S
C245 C18 1.676 . S
C250 C155 1.662 . S
C255 C41 1.691 . S
C260 C178 1.660 . S
C265 C16 1.089 . S
C270 C108 1.089 . S
C275 C131 1.090 . S
C280 C39 1.090 . S
C285 C62 1.090 . S
C290 C154 1.090 . S
C295 C177 1.090 . S
C300 C85 1.090 . S
C305 C89 1.406 . S
C310 C20 1.406 . S
C315 C43 1.406 . S
C320 C66 1.406 . S
C325 C181 1.406 . S
C330 C112 1.406 . S
C335 C135 1.406 . S
C340 C158 1.406 . S
C345 C21 1.704 . S
C350 C65 1.630 . S
C355 C44 1.704 . S
C360 C88 1.634 . S
C365 C67 1.704 . S
C370 C19 1.630 . S
C375 C90 1.704 . S
C380 C42 1.634 . S
C385 C113 1.704 . S
C390 C157 1.631 . S
C395 C136 1.704 . S
C400 C180 1.634 . S
C405 C159 1.704 . S
C410 C111 1.628 . S
C415 C134 1.631 . S
C420 C182 1.704 . S
