# Generated by pormake.
# Topology uoi, (4)-cn, num edge types: 1
# Building blocks:
#     Node 0, Type 0, BuildingBlock: QUQFOY_clean_sbu_1, # of connection points: 4
#     Node 1, Type 0, BuildingBlock: QUQFOY_clean_sbu_1, # of connection points: 4
#     Node 2, Type 0, BuildingBlock: QUQFOY_clean_sbu_1, # of connection points: 4
#     Node 3, Type 0, BuildingBlock: QUQFOY_clean_sbu_1, # of connection points: 4
#     Node 4, Type 0, BuildingBlock: QUQFOY_clean_sbu_1, # of connection points: 4
#     Node 5, Type 0, BuildingBlock: QUQFOY_clean_sbu_1, # of connection points: 4
#     Node 6, Type 0, BuildingBlock: QUQFOY_clean_sbu_1, # of connection points: 4
#     Node 7, Type 0, BuildingBlock: QUQFOY_clean_sbu_1, # of connection points: 4
#     Node 8, Type 0, BuildingBlock: QUQFOY_clean_sbu_1, # of connection points: 4
#     Node 9, Type 0, BuildingBlock: QUQFOY_clean_sbu_1, # of connection points: 4
#     Node 10, Type 0, BuildingBlock: QUQFOY_clean_sbu_1, # of connection points: 4
#     Node 11, Type 0, BuildingBlock: QUQFOY_clean_sbu_1, # of connection points: 4
#     Node 12, Type 0, BuildingBlock: QUQFOY_clean_sbu_1, # of connection points: 4
#     Node 13, Type 0, BuildingBlock: QUQFOY_clean_sbu_1, # of connection points: 4
#     Node 14, Type 0, BuildingBlock: QUQFOY_clean_sbu_1, # of connection points: 4
#     Node 15, Type 0, BuildingBlock: QUQFOY_clean_sbu_1, # of connection points: 4
#     Node 16, Type 0, BuildingBlock: QUQFOY_clean_sbu_1, # of connection points: 4
#     Node 17, Type 0, BuildingBlock: QUQFOY_clean_sbu_1, # of connection points: 4
#     Node 18, Type 0, BuildingBlock: QUQFOY_clean_sbu_1, # of connection points: 4
#     Node 19, Type 0, BuildingBlock: QUQFOY_clean_sbu_1, # of connection points: 4
#     Node 20, Type 0, BuildingBlock: QUQFOY_clean_sbu_1, # of connection points: 4
#     Node 21, Type 0, BuildingBlock: QUQFOY_clean_sbu_1, # of connection points: 4
#     Node 22, Type 0, BuildingBlock: QUQFOY_clean_sbu_1, # of connection points: 4
#     Node 23, Type 0, BuildingBlock: QUQFOY_clean_sbu_1, # of connection points: 4
#     Node 24, Type 0, BuildingBlock: QUQFOY_clean_sbu_1, # of connection points: 4
#     Node 25, Type 0, BuildingBlock: QUQFOY_clean_sbu_1, # of connection points: 4
#     Node 26, Type 0, BuildingBlock: QUQFOY_clean_sbu_1, # of connection points: 4
#     Node 27, Type 0, BuildingBlock: QUQFOY_clean_sbu_1, # of connection points: 4
#     Node 28, Type 0, BuildingBlock: QUQFOY_clean_sbu_1, # of connection points: 4
#     Node 29, Type 0, BuildingBlock: QUQFOY_clean_sbu_1, # of connection points: 4
#     Node 30, Type 0, BuildingBlock: QUQFOY_clean_sbu_1, # of connection points: 4
#     Node 31, Type 0, BuildingBlock: QUQFOY_clean_sbu_1, # of connection points: 4
#     Edge 32, Type (0, 0), BuildingBlock: KIFKEQ_clean_linker_1, # of connection points: 2
#     Edge 33, Type (0, 0), BuildingBlock: KIFKEQ_clean_linker_1, # of connection points: 2
#     Edge 34, Type (0, 0), BuildingBlock: KIFKEQ_clean_linker_1, # of connection points: 2
#     Edge 35, Type (0, 0), BuildingBlock: KIFKEQ_clean_linker_1, # of connection points: 2
#     Edge 36, Type (0, 0), BuildingBlock: KIFKEQ_clean_linker_1, # of connection points: 2
#     Edge 37, Type (0, 0), BuildingBlock: KIFKEQ_clean_linker_1, # of connection points: 2
#     Edge 38, Type (0, 0), BuildingBlock: KIFKEQ_clean_linker_1, # of connection points: 2
#     Edge 39, Type (0, 0), BuildingBlock: KIFKEQ_clean_linker_1, # of connection points: 2
#     Edge 40, Type (0, 0), BuildingBlock: KIFKEQ_clean_linker_1, # of connection points: 2
#     Edge 41, Type (0, 0), BuildingBlock: KIFKEQ_clean_linker_1, # of connection points: 2
#     Edge 42, Type (0, 0), BuildingBlock: KIFKEQ_clean_linker_1, # of connection points: 2
#     Edge 43, Type (0, 0), BuildingBlock: KIFKEQ_clean_linker_1, # of connection points: 2
#     Edge 44, Type (0, 0), BuildingBlock: KIFKEQ_clean_linker_1, # of connection points: 2
#     Edge 45, Type (0, 0), BuildingBlock: KIFKEQ_clean_linker_1, # of connection points: 2
#     Edge 46, Type (0, 0), BuildingBlock: KIFKEQ_clean_linker_1, # of connection points: 2
#     Edge 47, Type (0, 0), BuildingBlock: KIFKEQ_clean_linker_1, # of connection points: 2
#     Edge 48, Type (0, 0), BuildingBlock: KIFKEQ_clean_linker_1, # of connection points: 2
#     Edge 49, Type (0, 0), BuildingBlock: KIFKEQ_clean_linker_1, # of connection points: 2
#     Edge 50, Type (0, 0), BuildingBlock: KIFKEQ_clean_linker_1, # of connection points: 2
#     Edge 51, Type (0, 0), BuildingBlock: KIFKEQ_clean_linker_1, # of connection points: 2
#     Edge 52, Type (0, 0), BuildingBlock: KIFKEQ_clean_linker_1, # of connection points: 2
#     Edge 53, Type (0, 0), BuildingBlock: KIFKEQ_clean_linker_1, # of connection points: 2
#     Edge 54, Type (0, 0), BuildingBlock: KIFKEQ_clean_linker_1, # of connection points: 2
#     Edge 55, Type (0, 0), BuildingBlock: KIFKEQ_clean_linker_1, # of connection points: 2
#     Edge 56, Type (0, 0), BuildingBlock: KIFKEQ_clean_linker_1, # of connection points: 2
#     Edge 57, Type (0, 0), BuildingBlock: KIFKEQ_clean_linker_1, # of connection points: 2
#     Edge 58, Type (0, 0), BuildingBlock: KIFKEQ_clean_linker_1, # of connection points: 2
#     Edge 59, Type (0, 0), BuildingBlock: KIFKEQ_clean_linker_1, # of connection points: 2
#     Edge 60, Type (0, 0), BuildingBlock: KIFKEQ_clean_linker_1, # of connection points: 2
#     Edge 61, Type (0, 0), BuildingBlock: KIFKEQ_clean_linker_1, # of connection points: 2
#     Edge 62, Type (0, 0), BuildingBlock: KIFKEQ_clean_linker_1, # of connection points: 2
#     Edge 63, Type (0, 0), BuildingBlock: KIFKEQ_clean_linker_1, # of connection points: 2
#     Edge 64, Type (0, 0), BuildingBlock: KIFKEQ_clean_linker_1, # of connection points: 2
#     Edge 65, Type (0, 0), BuildingBlock: KIFKEQ_clean_linker_1, # of connection points: 2
#     Edge 66, Type (0, 0), BuildingBlock: KIFKEQ_clean_linker_1, # of connection points: 2
#     Edge 67, Type (0, 0), BuildingBlock: KIFKEQ_clean_linker_1, # of connection points: 2
#     Edge 68, Type (0, 0), BuildingBlock: KIFKEQ_clean_linker_1, # of connection points: 2
#     Edge 69, Type (0, 0), BuildingBlock: KIFKEQ_clean_linker_1, # of connection points: 2
#     Edge 70, Type (0, 0), BuildingBlock: KIFKEQ_clean_linker_1, # of connection points: 2
#     Edge 71, Type (0, 0), BuildingBlock: KIFKEQ_clean_linker_1, # of connection points: 2
#     Edge 72, Type (0, 0), BuildingBlock: KIFKEQ_clean_linker_1, # of connection points: 2
#     Edge 73, Type (0, 0), BuildingBlock: KIFKEQ_clean_linker_1, # of connection points: 2
#     Edge 74, Type (0, 0), BuildingBlock: KIFKEQ_clean_linker_1, # of connection points: 2
#     Edge 75, Type (0, 0), BuildingBlock: KIFKEQ_clean_linker_1, # of connection points: 2
#     Edge 76, Type (0, 0), BuildingBlock: KIFKEQ_clean_linker_1, # of connection points: 2
#     Edge 77, Type (0, 0), BuildingBlock: KIFKEQ_clean_linker_1, # of connection points: 2
#     Edge 78, Type (0, 0), BuildingBlock: KIFKEQ_clean_linker_1, # of connection points: 2
#     Edge 79, Type (0, 0), BuildingBlock: KIFKEQ_clean_linker_1, # of connection points: 2
#     Edge 80, Type (0, 0), BuildingBlock: KIFKEQ_clean_linker_1, # of connection points: 2
#     Edge 81, Type (0, 0), BuildingBlock: KIFKEQ_clean_linker_1, # of connection points: 2
#     Edge 82, Type (0, 0), BuildingBlock: KIFKEQ_clean_linker_1, # of connection points: 2
#     Edge 83, Type (0, 0), BuildingBlock: KIFKEQ_clean_linker_1, # of connection points: 2
#     Edge 84, Type (0, 0), BuildingBlock: KIFKEQ_clean_linker_1, # of connection points: 2
#     Edge 85, Type (0, 0), BuildingBlock: KIFKEQ_clean_linker_1, # of connection points: 2
#     Edge 86, Type (0, 0), BuildingBlock: KIFKEQ_clean_linker_1, # of connection points: 2
#     Edge 87, Type (0, 0), BuildingBlock: KIFKEQ_clean_linker_1, # of connection points: 2
#     Edge 88, Type (0, 0), BuildingBlock: KIFKEQ_clean_linker_1, # of connection points: 2
#     Edge 89, Type (0, 0), BuildingBlock: KIFKEQ_clean_linker_1, # of connection points: 2
#     Edge 90, Type (0, 0), BuildingBlock: KIFKEQ_clean_linker_1, # of connection points: 2
#     Edge 91, Type (0, 0), BuildingBlock: KIFKEQ_clean_linker_1, # of connection points: 2
#     Edge 92, Type (0, 0), BuildingBlock: KIFKEQ_clean_linker_1, # of connection points: 2
#     Edge 93, Type (0, 0), BuildingBlock: KIFKEQ_clean_linker_1, # of connection points: 2
#     Edge 94, Type (0, 0), BuildingBlock: KIFKEQ_clean_linker_1, # of connection points: 2
#     Edge 95, Type (0, 0), BuildingBlock: KIFKEQ_clean_linker_1, # of connection points: 2
# Relax obj value: 0.227
# Max RMSD: 0.152
# Mean RMSD: 0.152
data_MOF--net-uoi--node1-QUQFOY_clean_sbu_1--edge1-KIFKEQ_clean_linker_1
_symmetry_space_group_name_H-M    P1
_symmetry_Int_Tables_number       1
_symmetry_cell_setting            triclinic
loop_
_symmetry_equiv_pos_as_xyz
'x, y, z'
_cell_length_a     89.053503
_cell_length_b     89.056345
_cell_length_c     20.628365
_cell_angle_alpha  90.086574
_cell_angle_beta   90.054868
_cell_angle_gamma 90.009531
loop_
_atom_site_label
_atom_site_type_symbol
_atom_site_fract_x
_atom_site_fract_y
_atom_site_fract_z
_atom_type_partial_charge
O0 O 0.17185 0.20356 0.17614 0.0
Cd1 Cd 0.16832 0.19177 0.25988 0.0
Cd2 Cd 0.19744 0.1911 0.25406 0.0
O3 O 0.19489 0.19578 0.15665 0.0
O4 O 0.1472 0.18453 0.25224 0.0
O5 O 0.16688 0.16936 0.2485 0.0
C6 C 0.15255 0.17126 0.24199 0.0
C7 C 0.21411 0.17465 0.30473 0.0
C8 C 0.18319 0.20291 0.139 0.0
C9 C 0.18323 0.21277 0.34639 0.0
O10 O 0.19432 0.20973 0.31015 0.0
O11 O 0.17132 0.20486 0.34279 0.0
O12 O 0.21886 0.18587 0.27101 0.0
O13 O 0.19987 0.1718 0.30385 0.0
O14 O 0.04841 0.92203 0.45832 0.0
Cd15 Cd 0.06349 0.91749 0.53014 0.0
Cd16 Cd 0.0604 0.94841 0.53744 0.0
O17 O 0.0503 0.94655 0.44684 0.0
O18 O 0.06862 0.89634 0.50691 0.0
O19 O 0.08543 0.91455 0.50643 0.0
C20 C 0.08203 0.90076 0.49354 0.0
C21 C 0.07481 0.96858 0.57588 0.0
C22 C 0.04482 0.93399 0.42892 0.0
C23 C 0.04597 0.92853 0.64019 0.0
O24 O 0.04693 0.94103 0.61106 0.0
O25 O 0.05329 0.91713 0.62031 0.0
O26 O 0.06116 0.9704 0.55673 0.0
O27 O 0.08089 0.95558 0.5668 0.0
O28 O 0.33359 0.80001 0.73739 0.0
Cd29 Cd 0.33594 0.81607 0.80744 0.0
Cd30 Cd 0.30619 0.81186 0.80931 0.0
O31 O 0.30929 0.80196 0.71894 0.0
O32 O 0.3564 0.82431 0.7907 0.0
O33 O 0.33573 0.83774 0.77837 0.0
C34 C 0.35013 0.83663 0.77213 0.0
C35 C 0.28599 0.82645 0.8449 0.0
C36 C 0.32205 0.79634 0.70491 0.0
C37 C 0.32502 0.79857 0.91658 0.0
O38 O 0.31296 0.79835 0.88385 0.0
O39 O 0.33594 0.80689 0.89945 0.0
O40 O 0.28408 0.81289 0.8246 0.0
O41 O 0.29915 0.83237 0.83815 0.0
O42 O 0.4548 0.08668 0.96177 0.0
Cd43 Cd 0.4404 0.08734 0.03898 0.0
Cd44 Cd 0.44154 0.05898 0.01955 0.0
O45 O 0.44831 0.06428 0.92633 0.0
O46 O 0.43125 0.10776 0.03636 0.0
O47 O 0.41849 0.08693 0.01554 0.0
C48 C 0.41901 0.10145 0.01641 0.0
C49 C 0.4244 0.04137 0.05759 0.0
C50 C 0.45553 0.07651 0.9187 0.0
C51 C 0.45956 0.07139 0.12892 0.0
O52 O 0.45846 0.06132 0.08563 0.0
O53 O 0.45104 0.08288 0.12671 0.0
O54 O 0.43627 0.03728 0.02626 0.0
O55 O 0.42132 0.05555 0.06007 0.0
O56 O 0.16943 0.79775 0.30229 0.0
Cd57 Cd 0.16737 0.81116 0.22236 0.0
Cd58 Cd 0.19626 0.81016 0.23717 0.0
O59 O 0.19229 0.80397 0.33243 0.0
O60 O 0.14599 0.8175 0.22892 0.0
O61 O 0.16493 0.83341 0.23868 0.0
C62 C 0.15068 0.83081 0.24313 0.0
C63 C 0.2134 0.82696 0.19268 0.0
C64 C 0.18002 0.79707 0.34336 0.0
C65 C 0.18255 0.79107 0.13348 0.0
O66 O 0.1931 0.79273 0.17425 0.0
O67 O 0.17099 0.79949 0.13641 0.0
O68 O 0.21784 0.81532 0.22466 0.0
O69 O 0.1992 0.83005 0.1929 0.0
O70 O 0.45009 0.92377 0.54018 0.0
Cd71 Cd 0.43645 0.91793 0.46446 0.0
Cd72 Cd 0.4387 0.94846 0.44559 0.0
O73 O 0.44778 0.94845 0.53814 0.0
O74 O 0.42984 0.89727 0.48851 0.0
O75 O 0.41418 0.91646 0.48285 0.0
C76 C 0.41653 0.90255 0.49748 0.0
C77 C 0.42445 0.96808 0.4011 0.0
C78 C 0.45295 0.93657 0.5643 0.0
C79 C 0.45516 0.9273 0.3544 0.0
O80 O 0.45326 0.94038 0.37744 0.0
O81 O 0.44804 0.91614 0.37766 0.0
O82 O 0.43794 0.97018 0.42169 0.0
O83 O 0.41845 0.95508 0.4108 0.0
O84 O 0.32887 0.20193 0.80082 0.0
Cd85 Cd 0.33504 0.18871 0.72438 0.0
Cd86 Cd 0.30425 0.19021 0.70576 0.0
O87 O 0.30423 0.19913 0.79863 0.0
O88 O 0.35588 0.18257 0.74844 0.0
O89 O 0.3371 0.16643 0.74154 0.0
C90 C 0.35094 0.1691 0.75669 0.0
C91 C 0.28473 0.17581 0.66088 0.0
C92 C 0.31602 0.20446 0.82505 0.0
C93 C 0.32497 0.20742 0.61516 0.0
O94 O 0.31196 0.20503 0.63799 0.0
O95 O 0.33637 0.20065 0.63824 0.0
O96 O 0.28251 0.18923 0.68197 0.0
O97 O 0.2978 0.16993 0.67044 0.0
O98 O 0.05052 0.08155 0.06994 0.0
Cd99 Cd 0.06195 0.08539 0.98554 0.0
Cd100 Cd 0.06179 0.0561 0.98831 0.0
O101 O 0.05761 0.05816 0.08642 0.0
O102 O 0.06902 0.10655 0.99479 0.0
O103 O 0.08442 0.08704 0.99513 0.0
C104 C 0.08239 0.10131 0.00329 0.0
C105 C 0.07745 0.03934 0.93355 0.0
C106 C 0.05094 0.06999 0.10584 0.0
C107 C 0.04009 0.07149 0.8999 0.0
O108 O 0.04295 0.06013 0.9348 0.0
O109 O 0.04841 0.08312 0.90362 0.0
O110 O 0.06633 0.03466 0.96807 0.0
O111 O 0.0807 0.05349 0.93581 0.0
O112 O 0.82999 0.80245 0.8024 0.0
Cd113 Cd 0.83349 0.81432 0.71884 0.0
Cd114 Cd 0.80437 0.8144 0.72364 0.0
O115 O 0.80678 0.80981 0.82116 0.0
O116 O 0.85446 0.82189 0.72769 0.0
O117 O 0.83454 0.83676 0.73034 0.0
C118 C 0.84887 0.83507 0.73776 0.0
C119 C 0.78737 0.83042 0.67241 0.0
C120 C 0.81858 0.80288 0.83917 0.0
C121 C 0.81924 0.79298 0.63205 0.0
O122 O 0.80802 0.79581 0.66789 0.0
O123 O 0.83096 0.80116 0.63586 0.0
O124 O 0.78285 0.81909 0.70603 0.0
O125 O 0.80153 0.83362 0.67361 0.0
O126 O 0.95075 0.08011 0.56982 0.0
Cd127 Cd 0.93932 0.0841 0.48545 0.0
Cd128 Cd 0.93999 0.05477 0.48658 0.0
O129 O 0.94427 0.05649 0.58481 0.0
O130 O 0.93252 0.10529 0.49604 0.0
O131 O 0.91685 0.08603 0.49458 0.0
C132 C 0.91907 0.10022 0.5038 0.0
C133 C 0.92429 0.03821 0.43063 0.0
C134 C 0.95065 0.06842 0.60496 0.0
C135 C 0.96144 0.07083 0.3994 0.0
O136 O 0.95873 0.05928 0.43333 0.0
O137 O 0.95294 0.08231 0.40378 0.0
O138 O 0.93551 0.03341 0.46435 0.0
O139 O 0.921 0.05233 0.43426 0.0
O140 O 0.67476 0.20312 0.2842 0.0
Cd141 Cd 0.66908 0.18973 0.20741 0.0
Cd142 Cd 0.69953 0.1917 0.19015 0.0
O143 O 0.69942 0.20052 0.28323 0.0
O144 O 0.64831 0.18305 0.22931 0.0
O145 O 0.66754 0.16742 0.22438 0.0
C146 C 0.65356 0.16971 0.23778 0.0
C147 C 0.71871 0.177 0.14481 0.0
C148 C 0.68754 0.20578 0.30906 0.0
C149 C 0.67894 0.20868 0.09897 0.0
O150 O 0.69193 0.20664 0.12266 0.0
O151 O 0.66767 0.20155 0.12113 0.0
O152 O 0.72124 0.19033 0.16647 0.0
O153 O 0.70552 0.17137 0.15423 0.0
O154 O 0.54724 0.91727 0.02878 0.0
Cd155 Cd 0.56159 0.91665 0.95131 0.0
Cd156 Cd 0.56045 0.94503 0.97106 0.0
O157 O 0.55367 0.93968 0.06424 0.0
O158 O 0.57055 0.89614 0.95307 0.0
O159 O 0.58354 0.91679 0.97412 0.0
C160 C 0.58288 0.90228 0.97271 0.0
C161 C 0.57761 0.96259 0.93288 0.0
C162 C 0.54648 0.92743 0.07187 0.0
C163 C 0.54242 0.93271 0.86162 0.0
O164 O 0.54352 0.94275 0.90502 0.0
O165 O 0.55093 0.92121 0.86375 0.0
O166 O 0.56578 0.96671 0.96438 0.0
O167 O 0.58066 0.9484 0.93037 0.0
O168 O 0.83557 0.20553 0.69482 0.0
Cd169 Cd 0.83625 0.19131 0.77257 0.0
Cd170 Cd 0.80785 0.19272 0.75386 0.0
O171 O 0.81304 0.19927 0.66019 0.0
O172 O 0.85674 0.1823 0.76979 0.0
O173 O 0.836 0.16933 0.75009 0.0
C174 C 0.85051 0.16997 0.7505 0.0
C175 C 0.79032 0.17576 0.79389 0.0
C176 C 0.82536 0.20632 0.652 0.0
C177 C 0.82056 0.21082 0.86223 0.0
O178 O 0.81044 0.20975 0.81916 0.0
O179 O 0.83196 0.20217 0.86003 0.0
O180 O 0.78616 0.18753 0.76208 0.0
O181 O 0.8045 0.17263 0.79557 0.0
O182 O 0.55201 0.08036 0.45025 0.0
Cd183 Cd 0.56559 0.08606 0.52641 0.0
Cd184 Cd 0.56333 0.05549 0.54453 0.0
O185 O 0.5543 0.05567 0.45188 0.0
O186 O 0.57221 0.10682 0.50389 0.0
O187 O 0.58787 0.0876 0.50856 0.0
C188 C 0.58555 0.10158 0.49508 0.0
C189 C 0.57758 0.03585 0.58885 0.0
C190 C 0.54915 0.06757 0.42589 0.0
C191 C 0.54682 0.07649 0.63604 0.0
O192 O 0.54872 0.06344 0.6127 0.0
O193 O 0.55396 0.08767 0.61312 0.0
O194 O 0.56413 0.03374 0.56791 0.0
O195 O 0.58357 0.04887 0.57949 0.0
O196 O 0.6728 0.80017 0.17992 0.0
Cd197 Cd 0.66688 0.81353 0.25635 0.0
Cd198 Cd 0.69751 0.81236 0.2734 0.0
O199 O 0.6974 0.80322 0.18094 0.0
O200 O 0.64605 0.81992 0.23349 0.0
O201 O 0.66506 0.83582 0.23929 0.0
C202 C 0.65114 0.83333 0.22505 0.0
C203 C 0.71676 0.82732 0.31686 0.0
C204 C 0.68561 0.7977 0.15526 0.0
C205 C 0.67733 0.7951 0.36567 0.0
O206 O 0.69026 0.79755 0.34214 0.0
O207 O 0.66581 0.80173 0.34289 0.0
O208 O 0.71926 0.81391 0.2962 0.0
O209 O 0.70353 0.83286 0.30753 0.0
O210 O 0.95167 0.92126 0.95962 0.0
Cd211 Cd 0.93621 0.91869 0.03176 0.0
Cd212 Cd 0.93971 0.94875 0.03157 0.0
O213 O 0.94923 0.94549 0.9406 0.0
O214 O 0.92846 0.89794 0.01649 0.0
O215 O 0.91438 0.91818 0.00468 0.0
C216 C 0.91589 0.90381 -0.00147 0.0
C217 C 0.92484 0.96863 0.06828 0.0
C218 C 0.95491 0.93277 0.92627 0.0
C219 C 0.95405 0.93074 0.1388 0.0
O220 O 0.95373 0.94268 0.10537 0.0
O221 O 0.94606 0.91946 0.12287 0.0
O222 O 0.93819 0.97086 0.04622 0.0
O223 O 0.9192 0.95533 0.06215 0.0
O224 O 0.67119 0.70244 0.68916 0.0
Cd225 Cd 0.67006 0.68812 0.76646 0.0
Cd226 Cd 0.69874 0.69033 0.75138 0.0
O227 O 0.69413 0.69699 0.65717 0.0
O228 O 0.64945 0.67945 0.76019 0.0
O229 O 0.67006 0.6661 0.74376 0.0
C230 C 0.65557 0.66702 0.74167 0.0
C231 C 0.71691 0.67442 0.79457 0.0
C232 C 0.68166 0.70368 0.64777 0.0
C233 C 0.68459 0.708 0.85804 0.0
O234 O 0.69498 0.70719 0.81619 0.0
O235 O 0.67343 0.69906 0.85463 0.0
O236 O 0.72062 0.68639 0.76319 0.0
O237 O 0.70293 0.67044 0.79377 0.0
O238 O 0.55105 0.41904 0.96136 0.0
Cd239 Cd 0.56701 0.41597 0.03121 0.0
Cd240 Cd 0.56307 0.446 0.03666 0.0
O241 O 0.55299 0.44346 0.94619 0.0
O242 O 0.57485 0.39549 0.01106 0.0
O243 O 0.58874 0.41595 0.0026 0.0
C244 C 0.58732 0.40165 0.99366 0.0
C245 C 0.57768 0.46601 0.07465 0.0
C246 C 0.54737 0.4308 0.93051 0.0
C247 C 0.54959 0.42653 0.1417 0.0
O248 O 0.54964 0.43882 0.11065 0.0
O249 O 0.55765 0.41553 0.12305 0.0
O250 O 0.56411 0.46802 0.05474 0.0
O251 O 0.5836 0.45291 0.06617 0.0
O252 O 0.83054 0.30305 0.18315 0.0
Cd253 Cd 0.83676 0.31629 0.25964 0.0
Cd254 Cd 0.80605 0.31457 0.27892 0.0
O255 O 0.80589 0.30563 0.18603 0.0
O256 O 0.85763 0.32235 0.23606 0.0
O257 O 0.83894 0.33856 0.24282 0.0
C258 C 0.85278 0.33586 0.22821 0.0
C259 C 0.78674 0.32907 0.32456 0.0
C260 C 0.81767 0.3004 0.15927 0.0
C261 C 0.82696 0.29751 0.36902 0.0
O262 O 0.8139 0.29975 0.34639 0.0
O263 O 0.83826 0.3044 0.34576 0.0
O264 O 0.78437 0.31568 0.30337 0.0
O265 O 0.79983 0.33487 0.31467 0.0
O266 O 0.94922 0.58019 0.44173 0.0
Cd267 Cd 0.93593 0.58646 0.51783 0.0
Cd268 Cd 0.93733 0.55563 0.53685 0.0
O269 O 0.94622 0.55558 0.44409 0.0
O270 O 0.92954 0.60724 0.49407 0.0
O271 O 0.91364 0.58825 0.50045 0.0
C272 C 0.91613 0.60214 0.48583 0.0
C273 C 0.9235 0.53572 0.58163 0.0
C274 C 0.95167 0.5673 0.4177 0.0
C275 C 0.95448 0.57648 0.62769 0.0
O276 O 0.95209 0.56347 0.60478 0.0
O277 O 0.94776 0.58788 0.60436 0.0
O278 O 0.93692 0.53386 0.56013 0.0
O279 O 0.91727 0.54864 0.57254 0.0
O280 O 0.66949 0.30063 0.77345 0.0
Cd281 Cd 0.66863 0.3149 0.69592 0.0
Cd282 Cd 0.69704 0.31361 0.71421 0.0
O283 O 0.69197 0.30709 0.80803 0.0
O284 O 0.64811 0.32379 0.69971 0.0
O285 O 0.66881 0.33686 0.71884 0.0
C286 C 0.6543 0.33612 0.71917 0.0
C287 C 0.71465 0.33046 0.674 0.0
C288 C 0.67972 0.29993 0.81625 0.0
C289 C 0.68422 0.29541 0.60618 0.0
O290 O 0.69437 0.29653 0.64914 0.0
O291 O 0.67282 0.30406 0.60832 0.0
O292 O 0.71875 0.31867 0.70581 0.0
O293 O 0.70049 0.33366 0.67234 0.0
O294 O 0.9561 0.42206 0.05542 0.0
Cd295 Cd 0.94405 0.41975 0.97142 0.0
Cd296 Cd 0.94382 0.44854 0.98242 0.0
O297 O 0.94873 0.44502 0.07917 0.0
O298 O 0.93595 0.3989 0.97448 0.0
O299 O 0.92165 0.41916 0.98309 0.0
C300 C 0.92294 0.40471 0.98619 0.0
C301 C 0.92658 0.46479 0.93461 0.0
C302 C 0.9557 0.43305 0.0946 0.0
C303 C 0.96499 0.43512 0.8865 0.0
O304 O 0.96226 0.44596 0.92471 0.0
O305 O 0.95692 0.42331 0.88873 0.0
O306 O 0.93777 0.46983 0.96804 0.0
O307 O 0.92426 0.45046 0.93427 0.0
O308 O 0.82695 0.70292 0.30271 0.0
Cd309 Cd 0.83078 0.69114 0.21898 0.0
Cd310 Cd 0.80144 0.69223 0.21965 0.0
O311 O 0.80317 0.69699 0.31753 0.0
O312 O 0.85188 0.68398 0.22914 0.0
O313 O 0.83231 0.66867 0.22925 0.0
C314 C 0.84658 0.67064 0.2375 0.0
C315 C 0.78468 0.67653 0.16462 0.0
C316 C 0.8152 0.70323 0.33748 0.0
C317 C 0.81792 0.71315 0.13154 0.0
O318 O 0.80628 0.71068 0.16523 0.0
O319 O 0.82928 0.70452 0.13659 0.0
O320 O 0.78003 0.68799 0.19722 0.0
O321 O 0.79874 0.67303 0.16892 0.0
O322 O 0.55257 0.58409 0.53139 0.0
Cd323 Cd 0.56681 0.58512 0.45377 0.0
Cd324 Cd 0.56477 0.55655 0.46956 0.0
O325 O 0.55836 0.5613 0.56401 0.0
O326 O 0.57557 0.6057 0.45931 0.0
O327 O 0.58884 0.58505 0.47618 0.0
C328 C 0.58798 0.59955 0.4779 0.0
C329 C 0.58085 0.53861 0.42586 0.0
C330 C 0.55154 0.57371 0.57324 0.0
C331 C 0.54684 0.57033 0.36327 0.0
O332 O 0.5477 0.56005 0.40558 0.0
O333 O 0.5558 0.58149 0.36596 0.0
O334 O 0.56908 0.53472 0.45831 0.0
O335 O 0.58455 0.55266 0.42572 0.0
O336 O 0.33235 0.29972 0.29062 0.0
Cd337 Cd 0.33355 0.31381 0.21249 0.0
Cd338 Cd 0.30487 0.31215 0.22873 0.0
O339 O 0.30956 0.30562 0.32305 0.0
O340 O 0.35439 0.32196 0.21674 0.0
O341 O 0.3342 0.33589 0.23397 0.0
C342 C 0.34867 0.33461 0.23491 0.0
C343 C 0.28723 0.3286 0.18537 0.0
C344 C 0.32193 0.29875 0.3324 0.0
C345 C 0.31837 0.29403 0.12221 0.0
O346 O 0.30808 0.29508 0.16442 0.0
O347 O 0.32969 0.30277 0.12498 0.0
O348 O 0.28314 0.31682 0.21725 0.0
O349 O 0.30134 0.33209 0.18576 0.0
O350 O 0.45492 0.58154 0.0404 0.0
Cd351 Cd 0.44146 0.58735 0.96423 0.0
Cd352 Cd 0.44287 0.55686 0.94712 0.0
O353 O 0.45175 0.55695 0.04007 0.0
O354 O 0.43483 0.60807 0.98751 0.0
O355 O 0.41919 0.58885 0.98224 0.0
C356 C 0.42153 0.60278 0.99669 0.0
C357 C 0.42799 0.53773 0.90239 0.0
C358 C 0.45731 0.56876 0.06548 0.0
C359 C 0.46011 0.57711 0.8554 0.0
O360 O 0.45785 0.56419 0.87927 0.0
O361 O 0.45322 0.58854 0.87758 0.0
O362 O 0.44128 0.53512 0.9241 0.0
O363 O 0.42249 0.55099 0.91133 0.0
O364 O 0.17265 0.69923 0.81091 0.0
Cd365 Cd 0.16692 0.68641 0.7325 0.0
Cd366 Cd 0.1975 0.68788 0.71704 0.0
O367 O 0.19724 0.69614 0.811 0.0
O368 O 0.14601 0.67999 0.7536 0.0
O369 O 0.16495 0.66404 0.7471 0.0
C370 C 0.15102 0.66653 0.76103 0.0
C371 C 0.21669 0.67317 0.672 0.0
C372 C 0.18539 0.70146 0.83677 0.0
C373 C 0.17752 0.70578 0.62651 0.0
O374 O 0.1904 0.70331 0.65051 0.0
O375 O 0.16602 0.69881 0.64749 0.0
O376 O 0.21929 0.68634 0.6952 0.0
O377 O 0.20338 0.66767 0.67946 0.0
O378 O 0.05558 0.42643 0.56439 0.0
Cd379 Cd 0.06707 0.42155 0.48092 0.0
Cd380 Cd 0.06553 0.45121 0.47605 0.0
O381 O 0.06122 0.45043 0.57426 0.0
O382 O 0.07376 0.40041 0.49521 0.0
O383 O 0.08956 0.41952 0.49019 0.0
C384 C 0.08727 0.40543 0.50144 0.0
C385 C 0.0799 0.46879 0.41898 0.0
C386 C 0.05521 0.43856 0.59681 0.0
C387 C 0.04457 0.4332 0.39261 0.0
O388 O 0.04701 0.44523 0.42386 0.0
O389 O 0.05339 0.42203 0.39902 0.0
O390 O 0.06824 0.47274 0.45181 0.0
O391 O 0.08432 0.455 0.42363 0.0
O392 O 0.33789 0.7047 0.2361 0.0
Cd393 Cd 0.34039 0.68886 0.30675 0.0
Cd394 Cd 0.31077 0.691 0.3038 0.0
O395 O 0.31403 0.70077 0.2136 0.0
O396 O 0.36096 0.68069 0.29208 0.0
O397 O 0.34034 0.66722 0.27768 0.0
C398 C 0.35477 0.66838 0.27259 0.0
C399 C 0.29141 0.67498 0.33581 0.0
C400 C 0.32643 0.70734 0.2014 0.0
C401 C 0.32748 0.70577 0.4138 0.0
O402 O 0.31574 0.70516 0.37901 0.0
O403 O 0.33906 0.69814 0.39869 0.0
O404 O 0.28869 0.68831 0.31465 0.0
O405 O 0.30504 0.67008 0.33198 0.0
O406 O 0.04677 0.58284 0.95433 0.0
Cd407 Cd 0.06103 0.58335 0.0322 0.0
Cd408 Cd 0.05911 0.55491 0.01373 0.0
O409 O 0.05238 0.5601 0.92015 0.0
O410 O 0.07005 0.60383 0.0301 0.0
O411 O 0.08304 0.58314 0.01017 0.0
C412 C 0.0824 0.59765 0.01108 0.0
C413 C 0.07613 0.53745 0.0541 0.0
C414 C 0.04564 0.57258 0.9118 0.0
C415 C 0.04136 0.56801 0.12212 0.0
O416 O 0.04224 0.5578 0.07934 0.0
O417 O 0.05016 0.57928 0.11961 0.0
O418 O 0.06425 0.53323 0.02307 0.0
O419 O 0.07931 0.55163 0.05475 0.0
O420 O 0.17697 0.30304 0.67426 0.0
Cd421 Cd 0.17296 0.31477 0.75799 0.0
Cd422 Cd 0.20243 0.31317 0.75902 0.0
O423 O 0.20092 0.30849 0.66103 0.0
O424 O 0.15188 0.3219 0.74657 0.0
O425 O 0.1714 0.33726 0.74815 0.0
C426 C 0.15717 0.33526 0.73894 0.0
C427 C 0.21958 0.32834 0.81476 0.0
C428 C 0.18883 0.30252 0.64025 0.0
C429 C 0.18523 0.29246 0.84577 0.0
O430 O 0.19703 0.29479 0.81292 0.0
O431 O 0.17402 0.30126 0.84016 0.0
O432 O 0.22392 0.31675 0.78223 0.0
O433 O 0.20563 0.33226 0.81011 0.0
O434 O 0.45514 0.41607 0.4592 0.0
Cd435 Cd 0.4395 0.41386 0.53092 0.0
Cd436 Cd 0.44247 0.44356 0.52869 0.0
O437 O 0.45207 0.44012 0.43816 0.0
O438 O 0.43088 0.39347 0.51587 0.0
O439 O 0.4177 0.41432 0.50382 0.0
C440 C 0.41857 0.39989 0.49783 0.0
C441 C 0.42711 0.46333 0.56236 0.0
C442 C 0.45813 0.42752 0.42502 0.0
C443 C 0.457 0.42636 0.63768 0.0
O444 O 0.45656 0.43815 0.60333 0.0
O445 O 0.44915 0.41493 0.62238 0.0
O446 O 0.44045 0.46571 0.54049 0.0
O447 O 0.42179 0.44986 0.5581 0.0
H448 H 0.28946 0.15565 0.56289 0.0
H449 H 0.25455 0.18062 0.66008 0.0
H450 H 0.27196 0.14963 0.47486 0.0
H451 H 0.23709 0.17445 0.573 0.0
H452 H 0.20657 0.15979 0.41591 0.0
H453 H 0.22324 0.15453 0.50742 0.0
H454 H 0.26135 0.16831 0.39289 0.0
H455 H 0.24473 0.17373 0.30189 0.0
C456 C 0.27791 0.15936 0.56672 0.0
C457 C 0.27339 0.16868 0.6182 0.0
C458 C 0.26793 0.156 0.51608 0.0
C459 C 0.25318 0.16165 0.51674 0.0
C460 C 0.24833 0.16982 0.5712 0.0
C461 C 0.25835 0.1734 0.62108 0.0
C462 C 0.21856 0.16118 0.40947 0.0
C463 C 0.22432 0.16731 0.35182 0.0
C464 C 0.22809 0.15826 0.46209 0.0
C465 C 0.24358 0.16115 0.45762 0.0
C466 C 0.24948 0.16588 0.39783 0.0
C467 C 0.23995 0.16902 0.34566 0.0
H468 H 0.09586 0.96453 0.67073 0.0
H469 H 0.06913 0.99865 0.57723 0.0
H470 H 0.10192 0.98217 0.75813 0.0
H471 H 0.07538 0.01629 0.66372 0.0
H472 H 0.07832 0.00872 0.93471 0.0
H473 H 0.08314 0.99226 0.84239 0.0
H474 H 0.09574 0.03062 0.72703 0.0
H475 H 0.09115 0.04712 0.81994 0.0
C476 C 0.09177 0.97596 0.66745 0.0
C477 C 0.08195 0.98019 0.61723 0.0
C478 C 0.09514 0.98602 0.71779 0.0
C479 C 0.08904 1.00058 0.71807 0.0
C480 C 0.08035 0.0052 0.66473 0.0
C481 C 0.07674 0.99507 0.61517 0.0
C482 C 0.08263 0.01359 0.89039 0.0
C483 C 0.08428 0.02922 0.88459 0.0
C484 C 0.08543 0.00415 0.83746 0.0
C485 C 0.08969 0.01016 0.77723 0.0
C486 C 0.0924 0.02568 0.77275 0.0
C487 C 0.08987 0.03511 0.82614 0.0
H488 H 0.20643 0.84216 0.08175 0.0
H489 H 0.24402 0.82777 0.19842 0.0
H490 H 0.22349 0.84749 0.9918 0.0
H491 H 0.26105 0.83334 0.10904 0.0
H492 H 0.25582 0.82133 0.84188 0.0
H493 H 0.23781 0.82731 0.92714 0.0
H494 H 0.27183 0.85267 0.02854 0.0
H495 H 0.28983 0.8469 0.94235 0.0
C496 C 0.21838 0.84071 0.08918 0.0
C497 C 0.22387 0.83444 0.14712 0.0
C498 C 0.22813 0.84366 0.03744 0.0
C499 C 0.24359 0.84071 0.04313 0.0
C500 C 0.24922 0.83583 0.10322 0.0
C501 C 0.23945 0.83261 0.15448 0.0
C502 C 0.2593 0.82866 0.88108 0.0
C503 C 0.27425 0.8336 0.88544 0.0
C504 C 0.24897 0.83211 0.92996 0.0
C505 C 0.25344 0.84036 0.98487 0.0
C506 C 0.26809 0.84624 0.98692 0.0
C507 C 0.27836 0.84303 0.93728 0.0
H508 H 0.42446 0.01076 0.04862 0.0
H509 H 0.40767 0.04734 0.16548 0.0
H510 H 0.41864 0.99318 0.13562 0.0
H511 H 0.40206 0.02973 0.25296 0.0
H512 H 0.40507 0.96346 0.30027 0.0
H513 H 0.39921 0.98134 0.21356 0.0
H514 H 0.42254 0.01618 0.3188 0.0
H515 H 0.42864 0.99832 0.40435 0.0
C516 C 0.41903 0.01498 0.09194 0.0
C517 C 0.41665 0.03046 0.1003 0.0
C518 C 0.41566 0.00489 0.14182 0.0
C519 C 0.41006 0.01011 0.20144 0.0
C520 C 0.40646 0.02541 0.20768 0.0
C521 C 0.40959 0.03548 0.15733 0.0
C522 C 0.40848 0.97507 0.30588 0.0
C523 C 0.41736 0.9795 0.35896 0.0
C524 C 0.40521 0.98526 0.25603 0.0
C525 C 0.41047 1.00014 0.25923 0.0
C526 C 0.4182 0.00485 0.31513 0.0
C527 C 0.42174 0.99461 0.36413 0.0
H528 H 0.71167 0.8476 0.41401 0.0
H529 H 0.74704 0.82316 0.31743 0.0
H530 H 0.72907 0.85414 0.50169 0.0
H531 H 0.76441 0.82984 0.40417 0.0
H532 H 0.75674 0.83076 0.6752 0.0
H533 H 0.74003 0.83576 0.58407 0.0
H534 H 0.77788 0.85012 0.46925 0.0
H535 H 0.79464 0.84528 0.56092 0.0
C536 C 0.72329 0.84412 0.41021 0.0
C537 C 0.72798 0.83479 0.35904 0.0
C538 C 0.73322 0.84777 0.46066 0.0
C539 C 0.74808 0.84242 0.4601 0.0
C540 C 0.75308 0.83425 0.40587 0.0
C541 C 0.74311 0.83038 0.35619 0.0
C542 C 0.76144 0.83551 0.63133 0.0
C543 C 0.77703 0.83751 0.62515 0.0
C544 C 0.75185 0.83841 0.57908 0.0
C545 C 0.75766 0.84318 0.5192 0.0
C546 C 0.7731 0.84635 0.51468 0.0
C547 C 0.78267 0.84368 0.56737 0.0
H548 H 0.91001 0.0464 0.31875 0.0
H549 H 0.92362 0.00758 0.42919 0.0
H550 H 0.90483 0.03026 0.22517 0.0
H551 H 0.91825 0.99148 0.33625 0.0
H552 H 0.9045 0.96422 0.16552 0.0
H553 H 0.89902 0.9816 0.25441 0.0
H554 H 0.9244 0.0162 0.15748 0.0
H555 H 0.93004 0.99883 0.06931 0.0
C556 C 0.91136 0.03437 0.32388 0.0
C557 C 0.91731 0.02827 0.3813 0.0
C558 C 0.9085 0.02515 0.2701 0.0
C559 C 0.91123 0.00961 0.27314 0.0
C560 C 0.91592 0.00338 0.33242 0.0
C561 C 0.91904 0.01262 0.3857 0.0
C562 C 0.90844 0.9757 0.16201 0.0
C563 C 0.91778 0.98013 0.11052 0.0
C564 C 0.9054 0.98561 0.21324 0.0
C565 C 0.9114 1.00022 0.2133 0.0
C566 C 0.91953 0.00506 0.15878 0.0
C567 C 0.92279 0.99509 0.1082 0.0
H568 H 0.79664 0.1592 0.9019 0.0
H569 H 0.75967 0.17613 0.78788 0.0
H570 H 0.77941 0.15393 0.99117 0.0
H571 H 0.74246 0.17067 0.87672 0.0
H572 H 0.71334 0.15775 0.04411 0.0
H573 H 0.73073 0.15165 0.95584 0.0
H574 H 0.7664 0.17438 0.05829 0.0
H575 H 0.74904 0.18069 0.1455 0.0
C576 C 0.78476 0.16123 0.89479 0.0
C577 C 0.77954 0.16823 0.83796 0.0
C578 C 0.77491 0.15831 0.94619 0.0
C579 C 0.75961 0.16205 0.94127 0.0
C580 C 0.75416 0.16759 0.88194 0.0
C581 C 0.76404 0.17075 0.831 0.0
C582 C 0.72503 0.16097 0.04877 0.0
C583 C 0.72983 0.16975 0.10159 0.0
C584 C 0.73494 0.15758 -0.00199 0.0
C585 C 0.74991 0.1626 -6e-05 0.0
C586 C 0.75499 0.17023 0.05554 0.0
C587 C 0.74503 0.17388 0.1055 0.0
H588 H 0.5776 0.9932 0.94171 0.0
H589 H 0.59424 0.95657 0.82474 0.0
H590 H 0.58339 0.01076 0.85456 0.0
H591 H 0.59982 0.97416 0.73713 0.0
H592 H 0.59695 0.04044 0.68977 0.0
H593 H 0.60277 0.02257 0.77652 0.0
H594 H 0.5794 0.98775 0.6713 0.0
H595 H 0.57335 0.00561 0.58568 0.0
C596 C 0.58299 0.98897 0.89832 0.0
C597 C 0.58534 0.97348 0.89 0.0
C598 C 0.58634 0.99904 0.84835 0.0
C599 C 0.59189 0.99381 0.78868 0.0
C600 C 0.59545 0.97849 0.78244 0.0
C601 C 0.59235 0.96844 0.83288 0.0
C602 C 0.59353 0.02884 0.68417 0.0
C603 C 0.58465 0.02442 0.63106 0.0
C604 C 0.59677 0.01865 0.73405 0.0
C605 C 0.59149 0.00378 0.73087 0.0
C606 C 0.58375 0.99908 0.67496 0.0
C607 C 0.58025 0.00932 0.62592 0.0
H608 H 0.74745 0.67738 0.79602 0.0
H609 H 0.71078 0.6567 0.89954 0.0
H610 H 0.76407 0.6726 0.88761 0.0
H611 H 0.72744 0.65198 0.99151 0.0
H612 H 0.75406 0.67729 0.16008 0.0
H613 H 0.73816 0.67133 0.06735 0.0
H614 H 0.77675 0.6545 0.96371 0.0
H615 H 0.79271 0.66038 0.05704 0.0
C616 C 0.74305 0.67135 0.83743 0.0
C617 C 0.72775 0.66754 0.84057 0.0
C618 C 0.7526 0.66858 0.89002 0.0
C619 C 0.74703 0.66209 0.94729 0.0
C620 C 0.73203 0.65715 0.94835 0.0
C621 C 0.72251 0.65974 0.89534 0.0
C622 C 0.75909 0.67188 0.11834 0.0
C623 C 0.77466 0.6694 0.11588 0.0
C624 C 0.74996 0.66841 0.06514 0.0
C625 C 0.7562 0.66255 0.00782 0.0
C626 C 0.77162 0.65911 0.00697 0.0
C627 C 0.78074 0.66237 0.06067 0.0
H628 H 0.58023 0.50795 0.431 0.0
H629 H 0.59605 0.5449 0.31425 0.0
H630 H 0.58485 0.49071 0.34106 0.0
H631 H 0.60038 0.52765 0.22378 0.0
H632 H 0.59793 0.46161 0.17234 0.0
H633 H 0.60403 0.47933 0.25943 0.0
H634 H 0.57923 0.51399 0.16004 0.0
H635 H 0.57286 0.49625 0.07396 0.0
C636 C 0.58518 0.51231 0.38692 0.0
C637 C 0.58772 0.5278 0.37978 0.0
C638 C 0.58783 0.50243 0.33533 0.0
C639 C 0.59284 0.50786 0.27512 0.0
C640 C 0.59645 0.52317 0.26952 0.0
C641 C 0.59408 0.53302 0.32158 0.0
C642 C 0.59423 0.47315 0.16796 0.0
C643 C 0.58488 0.47754 0.11633 0.0
C644 C 0.59763 0.48326 0.21811 0.0
C645 C 0.59205 0.49802 0.21676 0.0
C646 C 0.58381 0.50273 0.16227 0.0
C647 C 0.58014 0.49256 0.11294 0.0
H648 H 0.75644 0.32513 0.3236 0.0
H649 H 0.79188 0.34846 0.42499 0.0
H650 H 0.73895 0.33145 0.41031 0.0
H651 H 0.77437 0.35456 0.51281 0.0
H652 H 0.70844 0.34687 0.56547 0.0
H653 H 0.72578 0.35205 0.47647 0.0
H654 H 0.76261 0.3355 0.59216 0.0
H655 H 0.74529 0.33012 0.68072 0.0
C656 C 0.76037 0.33202 0.36349 0.0
C657 C 0.77553 0.33627 0.36754 0.0
C658 C 0.75033 0.33568 0.41315 0.0
C659 C 0.7553 0.34343 0.46862 0.0
C660 C 0.77024 0.34855 0.47072 0.0
C661 C 0.78023 0.34515 0.42023 0.0
C662 C 0.72032 0.34486 0.5729 0.0
C663 C 0.72547 0.33794 0.63 0.0
C664 C 0.73023 0.34774 0.52166 0.0
C665 C 0.74552 0.34403 0.52704 0.0
C666 C 0.7509 0.33856 0.5866 0.0
C667 C 0.74097 0.33545 0.63738 0.0
H668 H 0.925 0.4954 0.9386 0.0
H669 H 0.91092 0.45705 0.82553 0.0
H670 H 0.91842 0.51197 0.84904 0.0
H671 H 0.90447 0.47368 0.73549 0.0
H672 H 0.92877 0.50564 0.5804 0.0
H673 H 0.92356 0.48797 0.66759 0.0
H674 H 0.89884 0.52226 0.77004 0.0
H675 H 0.90388 0.53996 0.68185 0.0
C676 C 0.92003 0.49055 0.89543 0.0
C677 C 0.91862 0.4749 0.889 0.0
C678 C 0.9162 0.50006 0.8441 0.0
C679 C 0.91108 0.49411 0.78489 0.0
C680 C 0.90849 0.47857 0.78037 0.0
C681 C 0.9121 0.46906 0.83216 0.0
C682 C 0.92175 0.50926 0.62038 0.0
C683 C 0.91679 0.5242 0.6244 0.0
C684 C 0.91873 0.49911 0.67034 0.0
C685 C 0.91089 0.50376 0.72601 0.0
C686 C 0.90497 0.51839 0.72787 0.0
C687 C 0.90776 0.52849 0.67715 0.0
H688 H 0.25015 0.32674 0.81964 0.0
H689 H 0.21192 0.34466 0.92239 0.0
H690 H 0.26616 0.33225 0.91251 0.0
H691 H 0.22799 0.35011 0.01587 0.0
H692 H 0.29388 0.34611 0.08033 0.0
H693 H 0.27737 0.35128 0.98831 0.0
H694 H 0.24015 0.33173 0.09216 0.0
H695 H 0.25661 0.32651 0.18385 0.0
C696 C 0.24525 0.33227 0.86135 0.0
C697 C 0.22974 0.33518 0.86368 0.0
C698 C 0.25444 0.33549 0.91463 0.0
C699 C 0.24833 0.34151 0.97191 0.0
C700 C 0.23301 0.34537 0.97264 0.0
C701 C 0.22383 0.34235 0.91885 0.0
C702 C 0.28206 0.3434 0.08451 0.0
C703 C 0.2766 0.33576 0.13931 0.0
C704 C 0.27263 0.34625 0.03147 0.0
C705 C 0.25749 0.34174 0.0325 0.0
C706 C 0.25173 0.33542 0.08978 0.0
C707 C 0.26119 0.3324 0.14242 0.0
H708 H 0.43035 0.49372 0.55394 0.0
H709 H 0.40816 0.45912 0.66453 0.0
H710 H 0.42466 0.51197 0.6389 0.0
H711 H 0.4028 0.47735 0.75039 0.0
H712 H 0.43036 0.5073 0.90767 0.0
H713 H 0.42413 0.48954 0.82145 0.0
H714 H 0.40408 0.52537 0.71052 0.0
H715 H 0.40997 0.54312 0.79791 0.0
C716 C 0.42378 0.49014 0.59532 0.0
C717 C 0.41974 0.47498 0.60261 0.0
C718 C 0.42051 0.50059 0.64399 0.0
C719 C 0.4134 0.49604 0.70152 0.0
C720 C 0.40832 0.48114 0.7066 0.0
C721 C 0.4113 0.47074 0.65719 0.0
C722 C 0.42411 0.51127 0.86601 0.0
C723 C 0.42065 0.52658 0.85952 0.0
C724 C 0.42051 0.5011 0.81665 0.0
C725 C 0.41369 0.50609 0.75911 0.0
C726 C 0.40934 0.52123 0.75437 0.0
C727 C 0.41262 0.53136 0.80457 0.0
H728 H 0.2959 0.6556 0.43625 0.0
H729 H 0.26098 0.67748 0.3261 0.0
H730 H 0.27764 0.64937 0.52067 0.0
H731 H 0.24272 0.67097 0.40963 0.0
H732 H 0.24709 0.67556 0.6792 0.0
H733 H 0.26504 0.66984 0.59331 0.0
H734 H 0.22952 0.65016 0.47884 0.0
H735 H 0.21157 0.65556 0.56584 0.0
C736 C 0.28421 0.65849 0.42865 0.0
C737 C 0.27988 0.66711 0.37472 0.0
C738 C 0.27379 0.65501 0.47724 0.0
C739 C 0.25879 0.65978 0.47196 0.0
C740 C 0.25418 0.66705 0.41487 0.0
C741 C 0.26464 0.6708 0.36703 0.0
C742 C 0.24323 0.66949 0.6368 0.0
C743 C 0.22794 0.66602 0.6292 0.0
C744 C 0.25351 0.66618 0.58762 0.0
C745 C 0.24866 0.65963 0.52919 0.0
C746 C 0.23355 0.65522 0.52337 0.0
C747 C 0.22331 0.65822 0.57334 0.0
H748 H 0.07782 0.49931 0.41633 0.0
H749 H 0.09562 0.46165 0.3092 0.0
H750 H 0.08245 0.51565 0.3239 0.0
H751 H 0.10016 0.47805 0.21607 0.0
H752 H 0.09453 0.54404 0.15657 0.0
H753 H 0.10082 0.52733 0.24642 0.0
H754 H 0.08088 0.49013 0.14317 0.0
H755 H 0.07454 0.5068 0.05364 0.0
C756 C 0.08315 0.49461 0.37369 0.0
C757 C 0.08627 0.47917 0.37002 0.0
C758 C 0.08586 0.504 0.32067 0.0
C759 C 0.09157 0.49813 0.26234 0.0
C760 C 0.09566 0.48288 0.26018 0.0
C761 C 0.09316 0.47351 0.31372 0.0
C762 C 0.09196 0.53219 0.15197 0.0
C763 C 0.08388 0.52679 0.09814 0.0
C764 C 0.09547 0.52264 0.20377 0.0
C765 C 0.09118 0.50745 0.20237 0.0
C766 C 0.08442 0.50176 0.14577 0.0
C767 C 0.08074 0.51133 0.09439 0.0
H768 H 0.10893 0.09288 0.06016 0.0
H769 H 0.0827 0.13191 0.00959 0.0
H770 H 0.12618 0.10876 0.12185 0.0
H771 H 0.10012 0.14782 0.06911 0.0
H772 H 0.12193 0.17064 0.23816 0.0
H773 H 0.10596 0.15327 0.17861 0.0
H774 H 0.14507 0.12787 0.12074 0.0
H775 H 0.16102 0.14504 0.18243 0.0
C776 C 0.10705 0.10489 0.06086 0.0
C777 C 0.09439 0.1111 0.03014 0.0
C778 C 0.11693 0.11402 0.09641 0.0
C779 C 0.11442 0.12959 0.10176 0.0
C780 C 0.1022 0.13584 0.06791 0.0
C781 C 0.09228 0.12673 0.03294 0.0
C782 C 0.12711 0.1612 0.21367 0.0
C783 C 0.14277 0.15927 0.21503 0.0
C784 C 0.11796 0.15132 0.17869 0.0
C785 C 0.1242 0.1393 0.1434 0.0
C786 C 0.13982 0.13695 0.1473 0.0
C787 C 0.14898 0.14679 0.18285 0.0
H788 H 0.12306 0.8254 0.29309 0.0
H789 H 0.15496 0.86116 0.26232 0.0
H790 H 0.10727 0.84214 0.35483 0.0
H791 H 0.13852 0.8785 0.32083 0.0
H792 H 0.11288 0.90235 0.48439 0.0
H793 H 0.12944 0.88596 0.42138 0.0
H794 H 0.09064 0.86124 0.3534 0.0
H795 H 0.07454 0.87678 0.41961 0.0
C796 C 0.12651 0.83701 0.29794 0.0
C797 C 0.14025 0.84194 0.27227 0.0
C798 C 0.11736 0.84673 0.33342 0.0
C799 C 0.12143 0.86186 0.3431 0.0
C800 C 0.13504 0.86691 0.3157 0.0
C801 C 0.14441 0.85703 0.28126 0.0
C802 C 0.10801 0.89325 0.45658 0.0
C803 C 0.09244 0.8907 0.45793 0.0
C804 C 0.11746 0.88393 0.41968 0.0
C805 C 0.11151 0.87208 0.38207 0.0
C806 C 0.09585 0.86984 0.3829 0.0
C807 C 0.08652 0.87885 0.42088 0.0
H808 H 0.41711 0.87235 0.51773 0.0
H809 H 0.39004 0.91174 0.55311 0.0
H810 H 0.40039 0.85754 0.58519 0.0
H811 H 0.3734 0.89692 0.62246 0.0
H812 H 0.38059 0.83895 0.76709 0.0
H813 H 0.39551 0.85541 0.69884 0.0
H814 H 0.35502 0.87665 0.62881 0.0
H815 H 0.34003 0.86032 0.69885 0.0
C816 C 0.4075 0.87784 0.53951 0.0
C817 C 0.40497 0.89326 0.53025 0.0
C818 C 0.39798 0.86937 0.57887 0.0
C819 C 0.38571 0.87608 0.61062 0.0
C820 C 0.38273 0.89137 0.59884 0.0
C821 C 0.39226 0.89986 0.55898 0.0
C822 C 0.37485 0.84726 0.73788 0.0
C823 C 0.35911 0.84825 0.73823 0.0
C824 C 0.38341 0.85662 0.6981 0.0
C825 C 0.37647 0.86715 0.65705 0.0
C826 C 0.36075 0.86867 0.65973 0.0
C827 C 0.35215 0.85932 0.69997 0.0
H828 H 0.38098 0.17069 0.78079 0.0
H829 H 0.34248 0.14189 0.80774 0.0
H830 H 0.39614 0.15386 0.84642 0.0
H831 H 0.35763 0.12514 0.87523 0.0
H832 H 0.41572 0.1319 0.02147 0.0
H833 H 0.39863 0.14736 0.95821 0.0
H834 H 0.37826 0.10741 0.87792 0.0
H835 H 0.39516 0.0919 0.94287 0.0
C836 C 0.37576 0.16069 0.80039 0.0
C837 C 0.36049 0.15768 0.78908 0.0
C838 C 0.38443 0.15111 0.83878 0.0
C839 C 0.37806 0.13827 0.86744 0.0
C840 C 0.36292 0.1349 0.85396 0.0
C841 C 0.35424 0.1445 0.81515 0.0
C842 C 0.40742 0.12639 0.99124 0.0
C843 C 0.40687 0.11065 0.98708 0.0
C844 C 0.39772 0.13527 0.95428 0.0
C845 C 0.38726 0.12867 0.91166 0.0
C846 C 0.38615 0.1129 0.91016 0.0
C847 C 0.39583 0.10399 0.94754 0.0
H848 H 0.91496 0.87328 0.98994 0.0
H849 H 0.8911 0.91311 0.92997 0.0
H850 H 0.89846 0.85794 0.9233 0.0
H851 H 0.8747 0.89772 0.86161 0.0
H852 H 0.83982 0.8615 0.7942 0.0
H853 H 0.85513 0.8787 0.85894 0.0
H854 H 0.89473 0.85304 0.81037 0.0
H855 H 0.87943 0.83573 0.74735 0.0
C856 C 0.9061 0.87877 0.96288 0.0
C857 C 0.9044 0.89445 0.96524 0.0
C858 C 0.89672 0.86997 0.92394 0.0
C859 C 0.88541 0.87659 0.88581 0.0
C860 C 0.88327 0.89222 0.89028 0.0
C861 C 0.89266 0.90105 0.9296 0.0
C862 C 0.85184 0.85971 0.79635 0.0
C863 C 0.85837 0.84717 0.76589 0.0
C864 C 0.86063 0.86957 0.83364 0.0
C865 C 0.87615 0.86711 0.84116 0.0
C866 C 0.88276 0.85506 0.80734 0.0
C867 C 0.874 0.84521 0.77046 0.0
H868 H 0.88104 0.16729 0.75269 0.0
H869 H 0.84105 0.14546 0.68064 0.0
H870 H 0.8965 0.15 0.69045 0.0
H871 H 0.85657 0.1283 0.61684 0.0
H872 H 0.89179 0.09208 0.55493 0.0
H873 H 0.87469 0.10787 0.6179 0.0
H874 H 0.90258 0.14646 0.57822 0.0
H875 H 0.91977 0.13069 0.51691 0.0
C876 C 0.87553 0.15868 0.7241 0.0
C877 C 0.85979 0.15782 0.72155 0.0
C878 C 0.88441 0.14886 0.6877 0.0
C879 C 0.87781 0.13793 0.64733 0.0
C880 C 0.86206 0.13656 0.64732 0.0
C881 C 0.85315 0.14638 0.68406 0.0
C882 C 0.89411 0.10399 0.55869 0.0
C883 C 0.90721 0.1101 0.53114 0.0
C884 C 0.88432 0.11304 0.59498 0.0
C885 C 0.8874 0.1284 0.60441 0.0
C886 C 0.90006 0.13461 0.57367 0.0
C887 C 0.90984 0.12558 0.53775 0.0
H888 H 0.61136 0.09255 0.43376 0.0
H889 H 0.58584 0.13204 0.48478 0.0
H890 H 0.62815 0.10798 0.36787 0.0
H891 H 0.60283 0.1475 0.42137 0.0
H892 H 0.6626 0.14386 0.29867 0.0
H893 H 0.64717 0.12702 0.36432 0.0
H894 H 0.60763 0.15231 0.31098 0.0
H895 H 0.62309 0.16935 0.2478 0.0
C896 C 0.60954 0.10457 0.43209 0.0
C897 C 0.59721 0.11106 0.46415 0.0
C898 C 0.61916 0.11343 0.39423 0.0
C899 C 0.61671 0.12899 0.38804 0.0
C900 C 0.60483 0.13551 0.42314 0.0
C901 C 0.59516 0.12666 0.46025 0.0
C902 C 0.65058 0.14566 0.3003 0.0
C903 C 0.64408 0.158 0.26837 0.0
C904 C 0.64171 0.13601 0.33803 0.0
C905 C 0.62615 0.13844 0.34422 0.0
C906 C 0.61962 0.15033 0.3092 0.0
C907 C 0.62847 0.16002 0.27222 0.0
H908 H 0.58588 0.87183 0.96597 0.0
H909 H 0.60704 0.91143 0.04541 0.0
H910 H 0.60303 0.85604 0.02738 0.0
H911 H 0.62401 0.89558 0.1085 0.0
H912 H 0.62101 0.8321 0.20266 0.0
H913 H 0.6058 0.84924 0.13879 0.0
H914 H 0.64451 0.87764 0.10878 0.0
H915 H 0.65972 0.86056 0.1745 0.0
C916 C 0.59432 0.87718 0.996 0.0
C917 C 0.59502 0.8929 0.00095 0.0
C918 C 0.60406 0.86812 0.03189 0.0
C919 C 0.61472 0.8745 0.07419 0.0
C920 C 0.61597 0.89025 0.07647 0.0
C921 C 0.60625 0.89935 0.04017 0.0
C922 C 0.62627 0.84208 0.18315 0.0
C923 C 0.64161 0.84491 0.1936 0.0
C924 C 0.61757 0.85185 0.14579 0.0
C925 C 0.62397 0.8647 0.11732 0.0
C926 C 0.63919 0.86787 0.12993 0.0
C927 C 0.64791 0.85809 0.16772 0.0
H928 H 0.61331 0.59002 0.54212 0.0
H929 H 0.58939 0.63011 0.48557 0.0
H930 H 0.63017 0.60521 0.60921 0.0
H931 H 0.60628 0.64522 0.55154 0.0
H932 H 0.66506 0.64165 0.67751 0.0
H933 H 0.64986 0.62482 0.61026 0.0
H934 H 0.60989 0.64889 0.66733 0.0
H935 H 0.62501 0.66573 0.73346 0.0
C936 C 0.61184 0.60209 0.54284 0.0
C937 C 0.59992 0.60882 0.50867 0.0
C938 C 0.62149 0.6108 0.58147 0.0
C939 C 0.61941 0.62641 0.58691 0.0
C940 C 0.60799 0.63318 0.54992 0.0
C941 C 0.59838 0.62452 0.51141 0.0
C942 C 0.653 0.64317 0.67662 0.0
C943 C 0.64628 0.65511 0.71068 0.0
C944 C 0.64428 0.63354 0.63789 0.0
C945 C 0.62868 0.63568 0.63225 0.0
C946 C 0.62192 0.64714 0.66911 0.0
C947 C 0.6306 0.65672 0.70771 0.0
H948 H 0.61271 0.41171 0.93136 0.0
H949 H 0.58765 0.37139 0.97392 0.0
H950 H 0.62928 0.39726 0.85994 0.0
H951 H 0.60422 0.35702 0.90384 0.0
H952 H 0.66383 0.3608 0.78791 0.0
H953 H 0.6485 0.37733 0.85567 0.0
H954 H 0.60847 0.3548 0.78823 0.0
H955 H 0.62373 0.33818 0.72171 0.0
C956 C 0.61089 0.39974 0.92642 0.0
C957 C 0.59879 0.39273 0.95818 0.0
C958 C 0.62037 0.39146 0.88537 0.0
C959 C 0.61792 0.37602 0.87507 0.0
C960 C 0.60621 0.36896 0.90917 0.0
C961 C 0.59679 0.37719 0.95002 0.0
C962 C 0.65173 0.35958 0.78656 0.0
C963 C 0.64503 0.34807 0.74968 0.0
C964 C 0.64294 0.36905 0.82555 0.0
C965 C 0.62726 0.3672 0.82854 0.0
C966 C 0.62054 0.35629 0.78852 0.0
C967 C 0.62929 0.34684 0.74975 0.0
H968 H 0.84448 0.36274 0.17387 0.0
H969 H 0.88307 0.33469 0.21096 0.0
H970 H 0.86013 0.37964 0.10944 0.0
H971 H 0.89875 0.3517 0.1488 0.0
H972 H 0.92074 0.37418 0.98135 0.0
H973 H 0.90304 0.35829 0.03926 0.0
H974 H 0.88006 0.39775 0.11029 0.0
H975 H 0.89751 0.41364 0.05022 0.0
C976 C 0.85636 0.36034 0.16935 0.0
C977 C 0.86251 0.34733 0.19733 0.0
C978 C 0.86534 0.37002 0.1323 0.0
C979 C 0.88069 0.36693 0.12272 0.0
C980 C 0.88691 0.35425 0.15329 0.0
C981 C 0.87794 0.34455 0.18973 0.0
C982 C 0.91174 0.37947 0.0083 0.0
C983 C 0.91059 0.39518 0.01134 0.0
C984 C 0.90168 0.37036 0.04227 0.0
C985 C 0.89029 0.37671 0.08092 0.0
C986 C 0.88864 0.39243 0.08106 0.0
C987 C 0.89865 0.40156 0.04647 0.0
H988 H 0.87717 0.66966 0.23846 0.0
H989 H 0.83805 0.64476 0.29918 0.0
H990 H 0.8932 0.65243 0.29813 0.0
H991 H 0.85406 0.62777 0.36128 0.0
H992 H 0.91649 0.6325 0.47046 0.0
H993 H 0.89932 0.64787 0.40745 0.0
H994 H 0.87275 0.60855 0.36301 0.0
H995 H 0.88974 0.59324 0.42847 0.0
C996 C 0.872 0.6604 0.26408 0.0
C997 C 0.85633 0.65863 0.26418 0.0
C998 C 0.88119 0.6506 0.29911 0.0
C999 C 0.87495 0.63886 0.33606 0.0
C1000 C 0.85931 0.63663 0.33343 0.0
C1001 C 0.8501 0.64637 0.29767 0.0
C1002 C 0.90688 0.62715 0.44795 0.0
C1003 C 0.90451 0.61163 0.45445 0.0
C1004 C 0.8971 0.63595 0.41101 0.0
C1005 C 0.88476 0.62945 0.37871 0.0
C1006 C 0.88208 0.61399 0.3872 0.0
C1007 C 0.89182 0.60519 0.42484 0.0
H1008 H 0.41709 0.36948 0.48361 0.0
H1009 H 0.39332 0.41023 0.43522 0.0
H1010 H 0.39979 0.35508 0.41683 0.0
H1011 H 0.37603 0.39574 0.36713 0.0
H1012 H 0.37929 0.33551 0.2376 0.0
H1013 H 0.39521 0.35201 0.3018 0.0
H1014 H 0.35611 0.37646 0.36645 0.0
H1015 H 0.34011 0.36002 0.301 0.0
C1016 C 0.40808 0.37538 0.45918 0.0
C1017 C 0.40666 0.39104 0.46468 0.0
C1018 C 0.39823 0.36711 0.42022 0.0
C1019 C 0.38668 0.37426 0.38542 0.0
C1020 C 0.3848 0.38986 0.39318 0.0
C1021 C 0.3947 0.39817 0.43232 0.0
C1022 C 0.37407 0.34455 0.26457 0.0
C1023 C 0.35839 0.34636 0.26434 0.0
C1024 C 0.3832 0.35393 0.30203 0.0
C1025 C 0.37694 0.36538 0.34054 0.0
C1026 C 0.36133 0.36776 0.33747 0.0
C1027 C 0.35215 0.35835 0.2998 0.0
H1028 H 0.395 0.59358 0.05183 0.0
H1029 H 0.42217 0.63297 0.01817 0.0
H1030 H 0.37836 0.60833 0.12156 0.0
H1031 H 0.40543 0.64772 0.08604 0.0
H1032 H 0.34489 0.64464 0.19874 0.0
H1033 H 0.36 0.62846 0.1285 0.0
H1034 H 0.40033 0.64992 0.19934 0.0
H1035 H 0.38528 0.66626 0.26782 0.0
C1036 C 0.39724 0.60545 0.05815 0.0
C1037 C 0.40998 0.61207 0.02973 0.0
C1038 C 0.38771 0.6139 0.09825 0.0
C1039 C 0.3907 0.62917 0.11063 0.0
C1040 C 0.403 0.63591 0.07927 0.0
C1041 C 0.41253 0.62747 0.03965 0.0
C1042 C 0.35701 0.64572 0.20002 0.0
C1043 C 0.36387 0.65682 0.23862 0.0
C1044 C 0.36568 0.63646 0.15964 0.0
C1045 C 0.38139 0.63807 0.15713 0.0
C1046 C 0.38824 0.64863 0.19846 0.0
C1047 C 0.3796 0.65791 0.2384 0.0
H1048 H 0.12084 0.66771 0.78169 0.0
H1049 H 0.15947 0.6392 0.81096 0.0
H1050 H 0.10551 0.65053 0.84477 0.0
H1051 H 0.14414 0.62209 0.87589 0.0
H1052 H 0.10656 0.5884 0.93886 0.0
H1053 H 0.12359 0.60417 0.87583 0.0
H1054 H 0.10269 0.6438 0.95625 0.0
H1055 H 0.08548 0.62809 0.01759 0.0
C1056 C 0.12605 0.6577 0.80122 0.0
C1057 C 0.1414 0.65487 0.7914 0.0
C1058 C 0.11729 0.64791 0.83814 0.0
C1059 C 0.12363 0.63506 0.86677 0.0
C1060 C 0.13886 0.63186 0.85461 0.0
C1061 C 0.14765 0.64166 0.81726 0.0
C1062 C 0.10579 0.60048 0.94396 0.0
C1063 C 0.09458 0.60698 0.98296 0.0
C1064 C 0.11556 0.60953 0.90769 0.0
C1065 C 0.11433 0.62529 0.90978 0.0
C1066 C 0.10369 0.63172 0.95188 0.0
C1067 C 0.09391 0.6227 0.98773 0.0
H1068 H 0.12658 0.33603 0.73555 0.0
H1069 H 0.16576 0.36145 0.6798 0.0
H1070 H 0.11065 0.35351 0.67671 0.0
H1071 H 0.14986 0.37871 0.61854 0.0
H1072 H 0.11393 0.41379 0.55763 0.0
H1073 H 0.13113 0.39789 0.61924 0.0
H1074 H 0.10468 0.35894 0.56793 0.0
H1075 H 0.08729 0.37488 0.50876 0.0
C1076 C 0.13179 0.34545 0.71114 0.0
C1077 C 0.14745 0.34731 0.7123 0.0
C1078 C 0.12267 0.35539 0.67657 0.0
C1079 C 0.12895 0.36738 0.64135 0.0
C1080 C 0.14458 0.36966 0.64505 0.0
C1081 C 0.15372 0.35977 0.68034 0.0
C1082 C 0.11195 0.40179 0.5587 0.0
C1083 C 0.09919 0.39562 0.52853 0.0
C1084 C 0.12181 0.39266 0.59418 0.0
C1085 C 0.11918 0.37711 0.59989 0.0
C1086 C 0.10685 0.3709 0.56653 0.0
C1087 C 0.09695 0.38002 0.53176 0.0
H1088 H 0.15925 0.21404 0.07254 0.0
H1089 H 0.20771 0.21506 0.07968 0.0
H1090 H 0.15932 0.23505 0.99703 0.0
H1091 H 0.20782 0.23638 0.00623 0.0
H1092 H 0.20432 0.26878 0.84098 0.0
H1093 H 0.20332 0.2456 0.90155 0.0
H1094 H 0.16383 0.26146 0.00239 0.0
H1095 H 0.16446 0.28465 0.93893 0.0
C1096 C 0.16994 0.2186 0.05699 0.0
C1097 C 0.18348 0.21293 0.08209 0.0
C1098 C 0.16997 0.23077 0.01445 0.0
C1099 C 0.18354 0.23763 0.99649 0.0
C1100 C 0.19713 0.23134 0.01856 0.0
C1101 C 0.1971 0.21905 0.06056 0.0
C1102 C 0.19541 0.26741 0.87619 0.0
C1103 C 0.18451 0.27866 0.88554 0.0
C1104 C 0.19488 0.25406 0.91113 0.0
C1105 C 0.18356 0.25163 0.95716 0.0
C1106 C 0.1726 0.26286 0.96657 0.0
C1107 C 0.17302 0.27622 0.93076 0.0
H1108 H 0.96227 0.95272 0.22244 0.0
H1109 H 0.97211 0.90702 0.16755 0.0
H1110 H 0.98451 0.95326 0.29114 0.0
H1111 H 0.9949 0.90772 0.2329 0.0
H1112 H 0.02829 0.90938 0.39787 0.0
H1113 H 0.00566 0.90811 0.3341 0.0
H1114 H 0.0106 0.95502 0.28432 0.0
H1115 H 0.033 0.95652 0.35254 0.0
C1116 C 0.96913 0.9427 0.22599 0.0
C1117 C 0.96544 0.92977 0.19037 0.0
C1118 C 0.98205 0.94309 0.26435 0.0
C1119 C 0.99177 0.93066 0.26682 0.0
C1120 C 0.98767 0.91749 0.233 0.0
C1121 C 0.97455 0.91701 0.1957 0.0
C1122 C 0.0247 0.91946 0.37296 0.0
C1123 C 0.03249 0.93311 0.38071 0.0
C1124 C 0.01165 0.91868 0.33588 0.0
C1125 C 0.00611 0.93147 0.30416 0.0
C1126 C 0.01428 0.94501 0.30938 0.0
C1127 C 0.02726 0.94585 0.3477 0.0
H1128 H 0.35121 0.72315 0.45059 0.0
H1129 H 0.30447 0.71454 0.49094 0.0
H1130 H 0.35016 0.74575 0.51721 0.0
H1131 H 0.30351 0.73661 0.56052 0.0
H1132 H 0.30072 0.78523 0.62067 0.0
H1133 H 0.30273 0.76282 0.55284 0.0
H1134 H 0.34831 0.75621 0.61961 0.0
H1135 H 0.34658 0.77885 0.68366 0.0
C1136 C 0.34086 0.72582 0.47568 0.0
C1137 C 0.32794 0.71712 0.46583 0.0
C1138 C 0.3402 0.73883 0.51371 0.0
C1139 C 0.32665 0.74323 0.54361 0.0
C1140 C 0.314 0.73391 0.53674 0.0
C1141 C 0.3146 0.7211 0.49779 0.0
C1142 C 0.31122 0.77911 0.61983 0.0
C1143 C 0.32345 0.78388 0.65757 0.0
C1144 C 0.31235 0.76613 0.58165 0.0
C1145 C 0.32565 0.75751 0.58122 0.0
C1146 C 0.33796 0.76257 0.61778 0.0
C1147 C 0.33692 0.77562 0.6549 0.0
H1148 H 0.53649 0.05583 0.72127 0.0
H1149 H 0.52926 0.10132 0.65611 0.0
H1150 H 0.51337 0.05685 0.78352 0.0
H1151 H 0.50575 0.10225 0.71733 0.0
H1152 H 0.47236 0.10123 0.89066 0.0
H1153 H 0.49473 0.10231 0.82373 0.0
H1154 H 0.48686 0.05665 0.76114 0.0
H1155 H 0.46468 0.05537 0.83021 0.0
C1156 C 0.53002 0.06614 0.72096 0.0
C1157 C 0.53466 0.07849 0.68379 0.0
C1158 C 0.51664 0.06664 0.75584 0.0
C1159 C 0.50748 0.07947 0.75399 0.0
C1160 C 0.51253 0.09217 0.71965 0.0
C1161 C 0.52604 0.09169 0.68499 0.0
C1162 C 0.47523 0.09147 0.86183 0.0
C1163 C 0.46684 0.07811 0.8666 0.0
C1164 C 0.48808 0.09213 0.82325 0.0
C1165 C 0.4928 0.07947 0.78822 0.0
C1166 C 0.48376 0.06648 0.78908 0.0
C1167 C 0.47093 0.06579 0.82797 0.0
H1168 H 0.15377 0.7249 0.61029 0.0
H1169 H 0.1985 0.71539 0.54108 0.0
H1170 H 0.1539 0.74862 0.55091 0.0
H1171 H 0.19847 0.73867 0.47981 0.0
H1172 H 0.20195 0.78685 0.42626 0.0
H1173 H 0.20034 0.76495 0.49697 0.0
H1174 H 0.15341 0.7599 0.44775 0.0
H1175 H 0.15484 0.78205 0.38018 0.0
C1176 C 0.16343 0.72768 0.58083 0.0
C1177 C 0.17611 0.71831 0.5802 0.0
C1178 C 0.16358 0.74132 0.54713 0.0
C1179 C 0.17634 0.74575 0.51157 0.0
C1180 C 0.18866 0.73591 0.50835 0.0
C1181 C 0.18858 0.72243 0.54258 0.0
C1182 C 0.19121 0.7813 0.43204 0.0
C1183 C 0.1786 0.78611 0.39692 0.0
C1184 C 0.19032 0.7686 0.47176 0.0
C1185 C 0.17682 0.7604 0.47681 0.0
C1186 C 0.16398 0.76588 0.44525 0.0
C1187 C 0.16484 0.77861 0.40614 0.0
H1188 H 0.47065 0.96053 0.59743 0.0
H1189 H 0.46156 0.91425 0.64618 0.0
H1190 H 0.49301 0.95997 0.66586 0.0
H1191 H 0.48363 0.9138 0.71572 0.0
H1192 H 0.53273 0.9118 0.77249 0.0
H1193 H 0.51059 0.91354 0.70273 0.0
H1194 H 0.50198 0.95831 0.77481 0.0
H1195 H 0.5242 0.95678 0.84231 0.0
C1196 C 0.47318 0.95038 0.62418 0.0
C1197 C 0.46437 0.93743 0.61625 0.0
C1198 C 0.48605 0.95002 0.66314 0.0
C1199 C 0.49028 0.93673 0.69529 0.0
C1200 C 0.48095 0.92407 0.69018 0.0
C1201 C 0.46817 0.92441 0.65103 0.0
C1202 C 0.52624 0.92208 0.77257 0.0
C1203 C 0.53021 0.93409 0.81324 0.0
C1204 C 0.51345 0.92303 0.73322 0.0
C1205 C 0.50438 0.93601 0.73385 0.0
C1206 C 0.50872 0.9482 0.77273 0.0
C1207 C 0.52147 0.94727 0.81175 0.0
H1208 H 0.33811 0.21307 0.90834 0.0
H1209 H 0.29189 0.22192 0.85749 0.0
H1210 H 0.33831 0.23511 0.97819 0.0
H1211 H 0.29219 0.24424 0.92607 0.0
H1212 H 0.29459 0.27551 0.10158 0.0
H1213 H 0.2935 0.2532 0.03465 0.0
H1214 H 0.33847 0.26206 0.96597 0.0
H1215 H 0.33979 0.28432 0.03543 0.0
C1216 C 0.32791 0.21962 0.91284 0.0
C1217 C 0.31498 0.21576 0.87738 0.0
C1218 C 0.3281 0.23238 0.95214 0.0
C1219 C 0.31538 0.24164 0.95669 0.0
C1220 C 0.30218 0.23734 0.92385 0.0
C1221 C 0.30196 0.22449 0.8848 0.0
C1222 C 0.30426 0.27282 0.07196 0.0
C1223 C 0.31736 0.28167 0.07428 0.0
C1224 C 0.30358 0.26001 0.03322 0.0
C1225 C 0.31593 0.25573 0.99536 0.0
C1226 C 0.32886 0.26488 0.99566 0.0
C1227 C 0.32957 0.27774 0.03481 0.0
H1228 H 0.04128 0.09389 0.1766 0.0
H1229 H 0.03765 0.04565 0.16198 0.0
H1230 H 0.02029 0.09434 0.25218 0.0
H1231 H 0.01634 0.04609 0.23569 0.0
H1232 H 0.98396 0.05031 0.40164 0.0
H1233 H 0.0072 0.05035 0.34115 0.0
H1234 H 0.99365 0.09126 0.24493 0.0
H1235 H 0.97042 0.09156 0.30814 0.0
C1236 C 0.03617 0.08334 0.19061 0.0
C1237 C 0.04108 0.06973 0.16329 0.0
C1238 C 0.024 0.08363 0.23317 0.0
C1239 C 0.01638 0.07031 0.24898 0.0
C1240 C 0.02196 0.05658 0.22494 0.0
C1241 C 0.03425 0.05629 0.18284 0.0
C1242 C 0.98585 0.05934 0.36748 0.0
C1243 C 0.97524 0.07091 0.35943 0.0
C1244 C 0.99923 0.05931 0.33258 0.0
C1245 C 0.00234 0.07077 0.28799 0.0
C1246 C 0.99174 0.08238 0.27971 0.0
C1247 C 0.97835 0.08249 0.31536 0.0
H1248 H 0.84258 0.7922 0.90653 0.0
H1249 H 0.79417 0.79021 0.89724 0.0
H1250 H 0.84276 0.77111 0.98162 0.0
H1251 H 0.79432 0.7688 0.97027 0.0
H1252 H 0.7982 0.73633 0.13541 0.0
H1253 H 0.79877 0.75954 0.07497 0.0
H1254 H 0.83879 0.74462 0.97535 0.0
H1255 H 0.83858 0.7214 0.03866 0.0
C1256 C 0.83195 0.78741 0.92154 0.0
C1257 C 0.81835 0.79283 0.89594 0.0
C1258 C 0.83207 0.77519 0.96382 0.0
C1259 C 0.81859 0.76803 0.98101 0.0
C1260 C 0.80493 0.77407 0.95851 0.0
C1261 C 0.80481 0.78641 0.91675 0.0
C1262 C 0.80714 0.73791 0.10048 0.0
C1263 C 0.81831 0.72692 0.09149 0.0
C1264 C 0.80742 0.75127 0.06562 0.0
C1265 C 0.81877 0.75399 0.02004 0.0
C1266 C 0.82999 0.74301 0.01086 0.0
C1267 C 0.82981 0.72963 0.04656 0.0
H1268 H 0.01837 0.05009 0.90009 0.0
H1269 H 0.03046 0.09209 0.80919 0.0
H1270 H 0.9952 0.04944 0.83893 0.0
H1271 H 0.0073 0.09112 0.74539 0.0
H1272 H 0.95951 0.09234 0.67759 0.0
H1273 H 0.98055 0.09323 0.75304 0.0
H1274 H 0.98619 0.04524 0.7329 0.0
H1275 H 0.96484 0.04433 0.65918 0.0
C1276 C 0.01618 0.05915 0.86639 0.0
C1277 C 0.02636 0.07114 0.85932 0.0
C1278 C 0.00284 0.05872 0.83108 0.0
C1279 C 0.99934 0.07019 0.7871 0.0
C1280 C 0.00952 0.0822 0.77969 0.0
C1281 C 0.02287 0.0827 0.8157 0.0
C1282 C 0.96501 0.08192 0.69075 0.0
C1283 C 0.96055 0.06826 0.66241 0.0
C1284 C 0.97721 0.08247 0.73323 0.0
C1285 C 0.9853 0.06938 0.74799 0.0
C1286 C 0.9802 0.05555 0.72294 0.0
C1287 C 0.96788 0.05499 0.68087 0.0
H1288 H 0.66317 0.28576 0.51747 0.0
H1289 H 0.70805 0.27683 0.58759 0.0
H1290 H 0.66471 0.26351 0.44812 0.0
H1291 H 0.70936 0.25452 0.52064 0.0
H1292 H 0.71158 0.2232 0.34354 0.0
H1293 H 0.7111 0.24551 0.41217 0.0
H1294 H 0.66472 0.23656 0.46017 0.0
H1295 H 0.66511 0.21453 0.39032 0.0
C1296 C 0.67338 0.27915 0.51774 0.0
C1297 C 0.68543 0.28306 0.55829 0.0
C1298 C 0.67422 0.2663 0.47864 0.0
C1299 C 0.68711 0.25711 0.47942 0.0
C1300 C 0.69931 0.26135 0.51837 0.0
C1301 C 0.6985 0.27416 0.55709 0.0
C1302 C 0.7014 0.22581 0.36994 0.0
C1303 C 0.68839 0.21712 0.36136 0.0
C1304 C 0.70108 0.23866 0.40903 0.0
C1305 C 0.68777 0.24301 0.44074 0.0
C1306 C 0.67503 0.2338 0.43501 0.0
C1307 C 0.67532 0.22104 0.39569 0.0
H1308 H 0.46536 0.94785 0.26842 0.0
H1309 H 0.47282 0.9025 0.33489 0.0
H1310 H 0.48848 0.94686 0.2062 0.0
H1311 H 0.49634 0.9016 0.27362 0.0
H1312 H 0.52978 0.90263 0.10017 0.0
H1313 H 0.50739 0.90148 0.16704 0.0
H1314 H 0.515 0.94723 0.22902 0.0
H1315 H 0.53719 0.94858 0.16008 0.0
C1316 C 0.47188 0.93758 0.26901 0.0
C1317 C 0.46731 0.92526 0.30657 0.0
C1318 C 0.48526 0.93709 0.23414 0.0
C1319 C 0.49449 0.92431 0.23636 0.0
C1320 C 0.48951 0.91164 0.27103 0.0
C1321 C 0.47599 0.9121 0.30572 0.0
C1322 C 0.52685 0.9124 0.12886 0.0
C1323 C 0.53517 0.9258 0.12396 0.0
C1324 C 0.51399 0.9117 0.1674 0.0
C1325 C 0.50919 0.92436 0.20223 0.0
C1326 C 0.51816 0.9374 0.20124 0.0
C1327 C 0.531 0.93812 0.16242 0.0
H1328 H 0.8063 0.28773 0.45543 0.0
H1329 H 0.85133 0.2792 0.38722 0.0
H1330 H 0.80685 0.26456 0.51741 0.0
H1331 H 0.85177 0.25564 0.44815 0.0
H1332 H 0.85045 0.22234 0.62162 0.0
H1333 H 0.85191 0.24462 0.55435 0.0
H1334 H 0.80579 0.23807 0.49544 0.0
H1335 H 0.80413 0.21599 0.56493 0.0
C1336 C 0.81641 0.28095 0.45437 0.0
C1337 C 0.82877 0.28525 0.41647 0.0
C1338 C 0.81663 0.26755 0.4891 0.0
C1339 C 0.82919 0.25802 0.48635 0.0
C1340 C 0.8419 0.26271 0.45119 0.0
C1341 C 0.84171 0.27625 0.41669 0.0
C1342 C 0.84066 0.22548 0.59352 0.0
C1343 C 0.82708 0.2175 0.59948 0.0
C1344 C 0.84154 0.23827 0.55473 0.0
C1345 C 0.82888 0.24335 0.52065 0.0
C1346 C 0.81564 0.2347 0.52263 0.0
C1347 C 0.81473 0.22192 0.56174 0.0
H1348 H 0.47788 0.04738 0.14795 0.0
H1349 H 0.46924 0.09232 0.21804 0.0
H1350 H 0.50014 0.04591 0.21523 0.0
H1351 H 0.49142 0.09063 0.28765 0.0
H1352 H 0.54044 0.09 0.34464 0.0
H1353 H 0.51836 0.09047 0.27514 0.0
H1354 H 0.50915 0.04419 0.32383 0.0
H1355 H 0.53152 0.04362 0.39214 0.0
C1356 C 0.4806 0.0569 0.17853 0.0
C1357 C 0.47181 0.07005 0.17719 0.0
C1358 C 0.49337 0.056 0.21743 0.0
C1359 C 0.49768 0.06819 0.25638 0.0
C1360 C 0.48858 0.08114 0.25712 0.0
C1361 C 0.47577 0.08207 0.21786 0.0
C1362 C 0.53386 0.07983 0.33953 0.0
C1363 C 0.53772 0.06676 0.37394 0.0
C1364 C 0.52108 0.08017 0.3004 0.0
C1365 C 0.51179 0.06748 0.29495 0.0
C1366 C 0.51607 0.05417 0.32678 0.0
C1367 C 0.52895 0.0538 0.36568 0.0
H1368 H 0.66341 0.78848 0.07362 0.0
H1369 H 0.70991 0.78053 0.12248 0.0
H1370 H 0.66345 0.76637 0.00412 0.0
H1371 H 0.70985 0.75813 0.0545 0.0
H1372 H 0.70799 0.72692 0.8794 0.0
H1373 H 0.70863 0.74917 0.94657 0.0
H1374 H 0.66379 0.73945 0.0147 0.0
H1375 H 0.6629 0.71724 0.94473 0.0
C1376 C 0.67371 0.78211 0.0688 0.0
C1377 C 0.68667 0.78627 0.10346 0.0
C1378 C 0.67367 0.7693 0.02972 0.0
C1379 C 0.68655 0.76028 0.02466 0.0
C1380 C 0.69973 0.76484 0.05699 0.0
C1381 C 0.69981 0.77775 0.09572 0.0
C1382 C 0.69825 0.72941 0.90893 0.0
C1383 C 0.68532 0.72032 0.90626 0.0
C1384 C 0.69868 0.74219 0.94786 0.0
C1385 C 0.68624 0.74621 0.98571 0.0
C1386 C 0.67347 0.73683 0.98506 0.0
C1387 C 0.67301 0.72401 0.94563 0.0
H1388 H 0.02723 0.90493 0.66378 0.0
H1389 H 0.03829 0.94969 0.72844 0.0
H1390 H 0.00428 0.90562 0.72829 0.0
H1391 H 0.01582 0.95021 0.79541 0.0
H1392 H 0.96719 0.95482 0.84924 0.0
H1393 H 0.98966 0.95278 0.78213 0.0
H1394 H 0.99324 0.90571 0.8309 0.0
H1395 H 0.97054 0.90755 0.89452 0.0
C1396 C 0.02501 0.91469 0.69374 0.0
C1397 C 0.03451 0.92724 0.69133 0.0
C1398 C 0.01181 0.91516 0.73044 0.0
C1399 C 0.00798 0.92812 0.76616 0.0
C1400 C 0.01809 0.94024 0.76693 0.0
C1401 C 0.03112 0.93985 0.72951 0.0
C1402 C 0.97262 0.94399 0.84447 0.0
C1403 C 0.96707 0.9314 0.87756 0.0
C1404 C 0.98564 0.94284 0.80677 0.0
C1405 C 0.99349 0.92912 0.80197 0.0
C1406 C 0.98752 0.91643 0.83291 0.0
C1407 C 0.97446 0.91753 0.86976 0.0
H1408 H 0.65374 0.77582 0.3831 0.0
H1409 H 0.69823 0.78625 0.45308 0.0
H1410 H 0.65419 0.75226 0.44379 0.0
H1411 H 0.69855 0.7631 0.51524 0.0
H1412 H 0.70309 0.71464 0.56447 0.0
H1413 H 0.70088 0.73678 0.4955 0.0
H1414 H 0.65411 0.74101 0.54825 0.0
H1415 H 0.65614 0.71866 0.61454 0.0
C1416 C 0.66341 0.77329 0.41303 0.0
C1417 C 0.67595 0.78284 0.41336 0.0
C1418 C 0.66374 0.75974 0.44744 0.0
C1419 C 0.67657 0.75559 0.48322 0.0
C1420 C 0.6887 0.76565 0.4865 0.0
C1421 C 0.68842 0.77906 0.45173 0.0
C1422 C 0.69226 0.72007 0.55997 0.0
C1423 C 0.67986 0.71496 0.59562 0.0
C1424 C 0.69103 0.7329 0.52121 0.0
C1425 C 0.6774 0.74092 0.51758 0.0
C1426 C 0.66477 0.73517 0.54978 0.0
C1427 C 0.66598 0.72233 0.58807 0.0
H1428 H 0.46561 0.44907 0.71692 0.0
H1429 H 0.47448 0.40257 0.67247 0.0
H1430 H 0.48762 0.44985 0.7869 0.0
H1431 H 0.49703 0.40345 0.73943 0.0
H1432 H 0.52997 0.40635 0.9063 0.0
H1433 H 0.5074 0.40486 0.84186 0.0
H1434 H 0.51381 0.45083 0.78052 0.0
H1435 H 0.53615 0.4526 0.84892 0.0
C1436 C 0.47221 0.43894 0.72296 0.0
C1437 C 0.46831 0.42572 0.68979 0.0
C1438 C 0.48499 0.43945 0.76213 0.0
C1439 C 0.49437 0.42682 0.76802 0.0
C1440 C 0.49006 0.41339 0.73678 0.0
C1441 C 0.47708 0.41281 0.69854 0.0
C1442 C 0.5267 0.41616 0.87869 0.0
C1443 C 0.5349 0.42964 0.88304 0.0
C1444 C 0.5137 0.41525 0.8413 0.0
C1445 C 0.5086 0.42773 0.80606 0.0
C1446 C 0.51714 0.44108 0.80825 0.0
C1447 C 0.53009 0.44206 0.84674 0.0
H1448 H 0.83974 0.29183 0.07597 0.0
H1449 H 0.79355 0.28285 0.12682 0.0
H1450 H 0.83997 0.26977 0.0063 0.0
H1451 H 0.79389 0.26051 0.05823 0.0
H1452 H 0.7966 0.22916 0.88219 0.0
H1453 H 0.79529 0.25146 0.94931 0.0
H1454 H 0.8402 0.24281 0.01954 0.0
H1455 H 0.84172 0.22057 0.95014 0.0
C1456 C 0.82955 0.28525 0.07151 0.0
C1457 C 0.81662 0.28908 0.10697 0.0
C1458 C 0.82976 0.27248 0.03229 0.0
C1459 C 0.81707 0.26317 0.02777 0.0
C1460 C 0.80386 0.26744 0.0605 0.0
C1461 C 0.80363 0.28031 0.09954 0.0
C1462 C 0.8062 0.2319 0.91225 0.0
C1463 C 0.81934 0.22311 0.91036 0.0
C1464 C 0.80539 0.2447 0.95105 0.0
C1465 C 0.81768 0.24904 0.98932 0.0
C1466 C 0.83063 0.23994 0.98952 0.0
C1467 C 0.83146 0.2271 0.95039 0.0
H1468 H 0.96095 0.58931 0.33557 0.0
H1469 H 0.96855 0.54278 0.38478 0.0
H1470 H 0.98302 0.58902 0.26619 0.0
H1471 H 0.99091 0.54259 0.31665 0.0
H1472 H 0.02233 0.54457 0.14141 0.0
H1473 H 0.99999 0.54387 0.20814 0.0
H1474 H 0.00996 0.58843 0.27941 0.0
H1475 H 0.03224 0.58936 0.21031 0.0
C1476 C 0.96723 0.57894 0.33084 0.0
C1477 C 0.96301 0.56606 0.36571 0.0
C1478 C 0.98001 0.57885 0.2918 0.0
C1479 C 0.98893 0.56589 0.28693 0.0
C1480 C 0.98427 0.55276 0.31916 0.0
C1481 C 0.9714 0.55283 0.35795 0.0
C1482 C 0.01987 0.55422 0.17162 0.0
C1483 C 0.02904 0.5671 0.17011 0.0
C1484 C 0.00704 0.55376 0.21019 0.0
C1485 C 0.00306 0.56613 0.24864 0.0
C1486 C 0.01254 0.57882 0.24923 0.0
C1487 C 0.02541 0.5793 0.21029 0.0
H1488 H 0.70097 0.29061 0.90397 0.0
H1489 H 0.65485 0.28351 0.84593 0.0
H1490 H 0.69955 0.26853 0.97356 0.0
H1491 H 0.65364 0.26122 0.91315 0.0
H1492 H 0.65435 0.22659 0.07952 0.0
H1493 H 0.65371 0.25017 0.01885 0.0
H1494 H 0.69901 0.24207 0.95232 0.0
H1495 H 0.69976 0.21889 0.01422 0.0
C1496 C 0.69047 0.28452 0.90686 0.0
C1497 C 0.67811 0.28873 0.86873 0.0
C1498 C 0.6897 0.27173 0.94603 0.0
C1499 C 0.67659 0.26287 0.94763 0.0
C1500 C 0.66391 0.26773 0.91311 0.0
C1501 C 0.66465 0.28053 0.87432 0.0
C1502 C 0.66402 0.22973 0.05072 0.0
C1503 C 0.67711 0.22095 0.05167 0.0
C1504 C 0.66371 0.24328 0.01635 0.0
C1505 C 0.67645 0.2482 0.98199 0.0
C1506 C 0.68919 0.2389 0.98001 0.0
C1507 C 0.68953 0.22549 0.01466 0.0
H1508 H 0.96719 0.40833 0.15435 0.0
H1509 H 0.96738 0.4568 0.16155 0.0
H1510 H 0.98788 0.4076 0.23163 0.0
H1511 H 0.98837 0.45614 0.23684 0.0
H1512 H 0.02012 0.45107 0.40289 0.0
H1513 H 0.99706 0.45021 0.34108 0.0
H1514 H 0.01426 0.41263 0.23087 0.0
H1515 H 0.03734 0.41311 0.29552 0.0
C1516 C 0.9715 0.41883 0.17334 0.0
C1517 C 0.96568 0.43264 0.15178 0.0
C1518 C 0.98349 0.41841 0.21696 0.0
C1519 C 0.99001 0.43179 0.23967 0.0
C1520 C 0.98359 0.44558 0.2209 0.0
C1521 C 0.97149 0.44599 0.17777 0.0
C1522 C 0.01905 0.4426 0.36541 0.0
C1523 C 0.03066 0.43225 0.35352 0.0
C1524 C 0.00578 0.44215 0.32978 0.0
C1525 C 0.00379 0.43147 0.28049 0.0
C1526 C 0.01532 0.42092 0.26906 0.0
C1527 C 0.02861 0.42124 0.3056 0.0
H1528 H 0.83917 0.71216 0.40966 0.0
H1529 H 0.79125 0.71798 0.39024 0.0
H1530 H 0.84024 0.73339 0.48406 0.0
H1531 H 0.79233 0.73954 0.46283 0.0
H1532 H 0.79736 0.77173 0.63022 0.0
H1533 H 0.79642 0.74866 0.56848 0.0
H1534 H 0.8385 0.76013 0.47669 0.0
H1535 H 0.83976 0.78318 0.54117 0.0
C1536 C 0.82881 0.71782 0.42232 0.0
C1537 C 0.81512 0.71341 0.3941 0.0
C1538 C 0.82946 0.73014 0.4642 0.0
C1539 C 0.81644 0.73841 0.47845 0.0
C1540 C 0.80259 0.73341 0.45331 0.0
C1541 C 0.80193 0.72097 0.41188 0.0
C1542 C 0.80644 0.76943 0.59675 0.0
C1543 C 0.81864 0.77939 0.59051 0.0
C1544 C 0.80585 0.75615 0.56108 0.0
C1545 C 0.81735 0.75247 0.51748 0.0
C1546 C 0.82954 0.76247 0.51069 0.0
C1547 C 0.83021 0.77577 0.54708 0.0
H1548 H 0.54102 0.5523 0.65765 0.0
H1549 H 0.53627 0.59908 0.60607 0.0
H1550 H 0.51891 0.55431 0.72691 0.0
H1551 H 0.51394 0.60091 0.67271 0.0
H1552 H 0.47905 0.60098 0.83777 0.0
H1553 H 0.50267 0.60081 0.77731 0.0
H1554 H 0.49256 0.5562 0.70676 0.0
H1555 H 0.46936 0.55624 0.76865 0.0
C1556 C 0.53544 0.56306 0.66189 0.0
C1557 C 0.54033 0.57546 0.62569 0.0
C1558 C 0.52262 0.56418 0.70083 0.0
C1559 C 0.5144 0.57769 0.7041 0.0
C1560 C 0.51994 0.59034 0.67144 0.0
C1561 C 0.53277 0.58925 0.63295 0.0
C1562 C 0.48176 0.59131 0.80809 0.0
C1563 C 0.4724 0.57863 0.80791 0.0
C1564 C 0.49534 0.59114 0.77383 0.0
C1565 C 0.49971 0.57833 0.73838 0.0
C1566 C 0.48983 0.56605 0.73527 0.0
C1567 C 0.4764 0.56616 0.76988 0.0
H1568 H 0.34883 0.22644 0.59849 0.0
H1569 H 0.30427 0.21661 0.52752 0.0
H1570 H 0.34874 0.25003 0.53788 0.0
H1571 H 0.30432 0.2398 0.46561 0.0
H1572 H 0.30042 0.28825 0.41633 0.0
H1573 H 0.30234 0.26617 0.4858 0.0
H1574 H 0.34903 0.26123 0.43295 0.0
H1575 H 0.34728 0.28352 0.36602 0.0
C1576 C 0.33922 0.22911 0.56841 0.0
C1577 C 0.32656 0.21972 0.56775 0.0
C1578 C 0.3391 0.24268 0.53407 0.0
C1579 C 0.32636 0.24701 0.49808 0.0
C1580 C 0.3141 0.2371 0.49452 0.0
C1581 C 0.31417 0.22368 0.52917 0.0
C1582 C 0.31117 0.28268 0.42091 0.0
C1583 C 0.32362 0.28757 0.38499 0.0
C1584 C 0.31224 0.26989 0.45997 0.0
C1585 C 0.32576 0.26168 0.46368 0.0
C1586 C 0.33845 0.26722 0.43132 0.0
C1587 C 0.33741 0.28002 0.39268 0.0
H1588 H 0.52782 0.54693 0.34352 0.0
H1589 H 0.53763 0.59176 0.27549 0.0
H1590 H 0.50557 0.54613 0.2763 0.0
H1591 H 0.51542 0.59072 0.20563 0.0
H1592 H 0.46645 0.59108 0.14668 0.0
H1593 H 0.48848 0.59113 0.21656 0.0
H1594 H 0.4967 0.54462 0.16798 0.0
H1595 H 0.47438 0.54447 0.09947 0.0
C1596 C 0.52535 0.55658 0.31342 0.0
C1597 C 0.53448 0.56949 0.3153 0.0
C1598 C 0.51258 0.55606 0.27449 0.0
C1599 C 0.5086 0.56838 0.23591 0.0
C1600 C 0.51801 0.58112 0.23584 0.0
C1601 C 0.53083 0.58168 0.27522 0.0
C1602 C 0.4728 0.58077 0.15195 0.0
C1603 C 0.46867 0.56776 0.11759 0.0
C1604 C 0.48556 0.58087 0.19126 0.0
C1605 C 0.49455 0.56798 0.1969 0.0
C1606 C 0.49 0.55475 0.16498 0.0
C1607 C 0.47715 0.55461 0.12596 0.0
H1608 H 0.1613 0.7811 0.04631 0.0
H1609 H 0.20616 0.77211 0.11664 0.0
H1610 H 0.1627 0.75865 0.97812 0.0
H1611 H 0.20731 0.74961 0.05093 0.0
H1612 H 0.20952 0.71853 0.87284 0.0
H1613 H 0.20909 0.74065 0.94257 0.0
H1614 H 0.16266 0.73172 0.98988 0.0
H1615 H 0.16301 0.70989 0.91881 0.0
C1616 C 0.17146 0.77441 0.04699 0.0
C1617 C 0.18357 0.7784 0.08707 0.0
C1618 C 0.17222 0.76146 0.00854 0.0
C1619 C 0.18508 0.75222 0.0096 0.0
C1620 C 0.1973 0.75648 0.04841 0.0
C1621 C 0.19658 0.76941 0.08641 0.0
C1622 C 0.19935 0.72109 0.8994 0.0
C1623 C 0.1863 0.7125 0.89018 0.0
C1624 C 0.19905 0.73383 0.93912 0.0
C1625 C 0.18573 0.73814 0.97087 0.0
C1626 C 0.17297 0.72898 0.96471 0.0
C1627 C 0.17324 0.71634 0.9247 0.0
H1628 H 0.03996 0.46286 0.6435 0.0
H1629 H 0.04683 0.41542 0.67462 0.0
H1630 H 0.01817 0.46222 0.71472 0.0
H1631 H 0.02535 0.41482 0.74754 0.0
H1632 H 0.97543 0.41447 0.79786 0.0
H1633 H 0.99862 0.41588 0.73489 0.0
H1634 H 0.00849 0.45909 0.82064 0.0
H1635 H 0.98523 0.45797 0.88112 0.0
C1636 C 0.03715 0.45242 0.66749 0.0
C1637 C 0.04505 0.43919 0.65326 0.0
C1638 C 0.02459 0.45201 0.70808 0.0
C1639 C 0.01979 0.43838 0.73579 0.0
C1640 C 0.02845 0.42541 0.72547 0.0
C1641 C 0.0409 0.4258 0.68449 0.0
C1642 C 0.98249 0.42432 0.80267 0.0
C1643 C 0.97842 0.43609 0.84439 0.0
C1644 C 0.99588 0.42507 0.76722 0.0
C1645 C 0.00552 0.43756 0.77312 0.0
C1646 C 1.00131 0.44938 0.81428 0.0
C1647 C 0.98793 0.44869 0.84918 0.0
H1648 H 0.35009 0.72598 0.17931 0.0
H1649 H 0.30453 0.71717 0.11751 0.0
H1650 H 0.35038 0.74889 0.11651 0.0
H1651 H 0.30509 0.73986 0.05141 0.0
H1652 H 0.30339 0.78846 0.99762 0.0
H1653 H 0.30434 0.76611 0.06525 0.0
H1654 H 0.35101 0.75989 0.01376 0.0
H1655 H 0.35014 0.78272 0.94869 0.0
C1656 C 0.34021 0.72875 0.15109 0.0
C1657 C 0.32721 0.71976 0.15388 0.0
C1658 C 0.34041 0.74194 0.11479 0.0
C1659 C 0.3277 0.74641 0.07947 0.0
C1660 C 0.31496 0.737 0.0795 0.0
C1661 C 0.31468 0.72387 0.11664 0.0
C1662 C 0.31394 0.7825 0.00227 0.0
C1663 C 0.32671 0.78732 0.96827 0.0
C1664 C 0.31443 0.76954 0.04008 0.0
C1665 C 0.32764 0.76093 0.04379 0.0
C1666 C 0.34065 0.76623 0.01237 0.0
C1667 C 0.34021 0.77938 0.97534 0.0
H1668 H 0.97348 0.60035 0.64571 0.0
H1669 H 0.96347 0.55577 0.7154 0.0
H1670 H 0.997 0.60017 0.70724 0.0
H1671 H 0.9866 0.55571 0.77794 0.0
H1672 H 0.03511 0.55148 0.8258 0.0
H1673 H 0.01302 0.55372 0.7564 0.0
H1674 H 0.00809 0.60016 0.81347 0.0
H1675 H 0.03038 0.5981 0.88067 0.0
C1676 C 0.9761 0.59071 0.67567 0.0
C1677 C 0.96668 0.57806 0.67567 0.0
C1678 C 0.98962 0.59054 0.71051 0.0
C1679 C 0.99388 0.57776 0.74622 0.0
C1680 C 0.98394 0.56553 0.74923 0.0
C1681 C 0.97056 0.56566 0.71419 0.0
C1682 C 0.02954 0.56226 0.82224 0.0
C1683 C 0.03442 0.57454 0.85942 0.0
C1684 C 0.01675 0.5635 0.78318 0.0
C1685 C 0.00855 0.57703 0.78067 0.0
C1686 C 0.01408 0.58958 0.81426 0.0
C1687 C 0.02688 0.58836 0.853 0.0
H1688 H 0.2126 0.28707 0.58967 0.0
H1689 H 0.16497 0.2943 0.56589 0.0
H1690 H 0.21121 0.26548 0.51736 0.0
H1691 H 0.16362 0.27303 0.4918 0.0
H1692 H 0.16278 0.22322 0.43614 0.0
H1693 H 0.16453 0.24626 0.50042 0.0
H1694 H 0.2073 0.2563 0.4115 0.0
H1695 H 0.20585 0.23323 0.34993 0.0
C1696 C 0.20194 0.28438 0.56711 0.0
C1697 C 0.18889 0.29235 0.58361 0.0
C1698 C 0.2011 0.27193 0.52585 0.0
C1699 C 0.18722 0.2673 0.49965 0.0
C1700 C 0.1744 0.27599 0.51254 0.0
C1701 C 0.17521 0.28833 0.55423 0.0
C1702 C 0.17258 0.23031 0.43084 0.0
C1703 C 0.18418 0.2263 0.38816 0.0
C1704 C 0.17354 0.2436 0.4671 0.0
C1705 C 0.18605 0.25321 0.46096 0.0
C1706 C 0.19761 0.24912 0.41831 0.0
C1707 C 0.19673 0.23584 0.38273 0.0
H1708 H 0.47529 0.40296 0.39837 0.0
H1709 H 0.46927 0.44948 0.34469 0.0
H1710 H 0.49824 0.4019 0.33585 0.0
H1711 H 0.49199 0.44819 0.27895 0.0
H1712 H 0.5407 0.44772 0.22756 0.0
H1713 H 0.51822 0.4473 0.29444 0.0
H1714 H 0.50949 0.40165 0.2332 0.0
H1715 H 0.53246 0.40194 0.16872 0.0
C1716 C 0.47867 0.41291 0.37199 0.0
C1717 C 0.47046 0.42638 0.37707 0.0
C1718 C 0.49188 0.41226 0.33585 0.0
C1719 C 0.49716 0.42501 0.30305 0.0
C1720 C 0.4885 0.43826 0.30514 0.0
C1721 C 0.47534 0.43896 0.34206 0.0
C1722 C 0.53417 0.43746 0.22996 0.0
C1723 C 0.53832 0.42484 0.19333 0.0
C1724 C 0.52113 0.4373 0.26731 0.0
C1725 C 0.51177 0.42459 0.26799 0.0
C1726 C 0.51642 0.41164 0.2341 0.0
C1727 C 0.52964 0.41173 0.19746 0.0
loop_
_geom_bond_atom_site_label_1
_geom_bond_atom_site_label_2
_geom_bond_distance
_geom_bond_site_symmetry_2
_ccdc_geom_bond_type
O0 Cd1 2.223 . S
O0 C8 1.315 . S
Cd1 O0 2.223 . S
Cd1 O4 2.297 . S
Cd1 O5 2.439 . S
Cd1 O11 2.240 . S
Cd2 O3 2.240 . S
Cd2 O10 2.223 . S
Cd2 O12 2.297 . S
Cd2 O13 2.439 . S
O3 Cd2 2.240 . S
O3 C8 1.279 . S
O4 Cd1 2.297 . S
O4 C6 1.247 . S
O5 Cd1 2.439 . S
O5 C6 1.208 . S
C6 O4 1.247 . S
C6 O5 1.208 . S
C7 O12 1.247 . S
C7 O13 1.208 . S
C8 O0 1.315 . S
C8 O3 1.279 . S
C9 O10 1.315 . S
C9 O11 1.279 . S
O10 Cd2 2.223 . S
O10 C9 1.315 . S
O11 Cd1 2.240 . S
O11 C9 1.279 . S
O12 Cd2 2.297 . S
O12 C7 1.247 . S
O13 Cd2 2.439 . S
O13 C7 1.208 . S
O14 Cd15 2.223 . S
O14 C22 1.315 . S
Cd15 O14 2.223 . S
Cd15 O18 2.297 . S
Cd15 O19 2.439 . S
Cd15 O25 2.240 . S
Cd16 O17 2.240 . S
Cd16 O24 2.223 . S
Cd16 O26 2.297 . S
Cd16 O27 2.439 . S
O17 Cd16 2.240 . S
O17 C22 1.279 . S
O18 Cd15 2.297 . S
O18 C20 1.247 . S
O19 Cd15 2.439 . S
O19 C20 1.208 . S
C20 O18 1.247 . S
C20 O19 1.208 . S
C21 O26 1.247 . S
C21 O27 1.208 . S
C22 O14 1.315 . S
C22 O17 1.279 . S
C23 O24 1.315 . S
C23 O25 1.279 . S
O24 Cd16 2.223 . S
O24 C23 1.315 . S
O25 Cd15 2.240 . S
O25 C23 1.279 . S
O26 Cd16 2.297 . S
O26 C21 1.247 . S
O27 Cd16 2.439 . S
O27 C21 1.208 . S
O28 Cd29 2.223 . S
O28 C36 1.315 . S
Cd29 O28 2.223 . S
Cd29 O32 2.297 . S
Cd29 O33 2.439 . S
Cd29 O39 2.240 . S
Cd30 O31 2.240 . S
Cd30 O38 2.223 . S
Cd30 O40 2.297 . S
Cd30 O41 2.439 . S
O31 Cd30 2.240 . S
O31 C36 1.279 . S
O32 Cd29 2.297 . S
O32 C34 1.247 . S
O33 Cd29 2.439 . S
O33 C34 1.208 . S
C34 O32 1.247 . S
C34 O33 1.208 . S
C35 O40 1.247 . S
C35 O41 1.208 . S
C36 O28 1.315 . S
C36 O31 1.279 . S
C37 O38 1.315 . S
C37 O39 1.279 . S
O38 Cd30 2.223 . S
O38 C37 1.315 . S
O39 Cd29 2.240 . S
O39 C37 1.279 . S
O40 Cd30 2.297 . S
O40 C35 1.247 . S
O41 Cd30 2.439 . S
O41 C35 1.208 . S
O42 Cd43 2.223 . S
O42 C50 1.315 1_554 S
Cd43 O42 2.223 . S
Cd43 O46 2.297 . S
Cd43 O47 2.439 . S
Cd43 O53 2.240 . S
Cd44 O45 2.240 . S
Cd44 O52 2.223 . S
Cd44 O54 2.297 . S
Cd44 O55 2.439 . S
O45 Cd44 2.240 . S
O45 C50 1.279 1_554 S
O46 Cd43 2.297 . S
O46 C48 1.247 . S
O47 Cd43 2.439 . S
O47 C48 1.208 . S
C48 O46 1.247 . S
C48 O47 1.208 . S
C49 O54 1.247 . S
C49 O55 1.208 . S
C50 O42 1.315 1_556 S
C50 O45 1.279 1_556 S
C51 O52 1.315 . S
C51 O53 1.279 . S
O52 Cd44 2.223 . S
O52 C51 1.315 . S
O53 Cd43 2.240 . S
O53 C51 1.279 . S
O54 Cd44 2.297 . S
O54 C49 1.247 . S
O55 Cd44 2.439 . S
O55 C49 1.208 . S
O56 Cd57 2.223 . S
O56 C64 1.315 . S
Cd57 O56 2.223 . S
Cd57 O60 2.297 . S
Cd57 O61 2.439 . S
Cd57 O67 2.240 . S
Cd58 O59 2.240 . S
Cd58 O66 2.223 . S
Cd58 O68 2.297 . S
Cd58 O69 2.439 . S
O59 Cd58 2.240 . S
O59 C64 1.279 . S
O60 Cd57 2.297 . S
O60 C62 1.247 . S
O61 Cd57 2.439 . S
O61 C62 1.208 . S
C62 O60 1.247 . S
C62 O61 1.208 . S
C63 O68 1.247 . S
C63 O69 1.208 . S
C64 O56 1.315 . S
C64 O59 1.279 . S
C65 O66 1.315 . S
C65 O67 1.279 . S
O66 Cd58 2.223 . S
O66 C65 1.315 . S
O67 Cd57 2.240 . S
O67 C65 1.279 . S
O68 Cd58 2.297 . S
O68 C63 1.247 . S
O69 Cd58 2.439 . S
O69 C63 1.208 . S
O70 Cd71 2.223 . S
O70 C78 1.315 . S
Cd71 O70 2.223 . S
Cd71 O74 2.297 . S
Cd71 O75 2.439 . S
Cd71 O81 2.240 . S
Cd72 O73 2.240 . S
Cd72 O80 2.223 . S
Cd72 O82 2.297 . S
Cd72 O83 2.439 . S
O73 Cd72 2.240 . S
O73 C78 1.279 . S
O74 Cd71 2.297 . S
O74 C76 1.247 . S
O75 Cd71 2.439 . S
O75 C76 1.208 . S
C76 O74 1.247 . S
C76 O75 1.208 . S
C77 O82 1.247 . S
C77 O83 1.208 . S
C78 O70 1.315 . S
C78 O73 1.279 . S
C79 O80 1.315 . S
C79 O81 1.279 . S
O80 Cd72 2.223 . S
O80 C79 1.315 . S
O81 Cd71 2.240 . S
O81 C79 1.279 . S
O82 Cd72 2.297 . S
O82 C77 1.247 . S
O83 Cd72 2.439 . S
O83 C77 1.208 . S
O84 Cd85 2.223 . S
O84 C92 1.315 . S
Cd85 O84 2.223 . S
Cd85 O88 2.297 . S
Cd85 O89 2.439 . S
Cd85 O95 2.240 . S
Cd86 O87 2.240 . S
Cd86 O94 2.223 . S
Cd86 O96 2.297 . S
Cd86 O97 2.439 . S
O87 Cd86 2.240 . S
O87 C92 1.279 . S
O88 Cd85 2.297 . S
O88 C90 1.247 . S
O89 Cd85 2.439 . S
O89 C90 1.208 . S
C90 O88 1.247 . S
C90 O89 1.208 . S
C91 O96 1.247 . S
C91 O97 1.208 . S
C92 O84 1.315 . S
C92 O87 1.279 . S
C93 O94 1.315 . S
C93 O95 1.279 . S
O94 Cd86 2.223 . S
O94 C93 1.315 . S
O95 Cd85 2.240 . S
O95 C93 1.279 . S
O96 Cd86 2.297 . S
O96 C91 1.247 . S
O97 Cd86 2.439 . S
O97 C91 1.208 . S
O98 Cd99 2.223 . S
O98 C106 1.315 1_556 S
Cd99 O98 2.223 . S
Cd99 O102 2.297 . S
Cd99 O103 2.439 . S
Cd99 O109 2.240 . S
Cd100 O101 2.240 . S
Cd100 O108 2.223 . S
Cd100 O110 2.297 . S
Cd100 O111 2.439 . S
O101 Cd100 2.240 . S
O101 C106 1.279 1_556 S
O102 Cd99 2.297 . S
O102 C104 1.247 . S
O103 Cd99 2.439 . S
O103 C104 1.208 . S
C104 O102 1.247 . S
C104 O103 1.208 . S
C105 O110 1.247 . S
C105 O111 1.208 . S
C106 O98 1.315 1_554 S
C106 O101 1.279 1_554 S
C107 O108 1.315 . S
C107 O109 1.279 . S
O108 Cd100 2.223 . S
O108 C107 1.315 . S
O109 Cd99 2.240 . S
O109 C107 1.279 . S
O110 Cd100 2.297 . S
O110 C105 1.247 . S
O111 Cd100 2.439 . S
O111 C105 1.208 . S
O112 Cd113 2.223 . S
O112 C120 1.315 . S
Cd113 O112 2.223 . S
Cd113 O116 2.297 . S
Cd113 O117 2.439 . S
Cd113 O123 2.240 . S
Cd114 O115 2.240 . S
Cd114 O122 2.223 . S
Cd114 O124 2.297 . S
Cd114 O125 2.439 . S
O115 Cd114 2.240 . S
O115 C120 1.279 . S
O116 Cd113 2.297 . S
O116 C118 1.247 . S
O117 Cd113 2.439 . S
O117 C118 1.208 . S
C118 O116 1.247 . S
C118 O117 1.208 . S
C119 O124 1.247 . S
C119 O125 1.208 . S
C120 O112 1.315 . S
C120 O115 1.279 . S
C121 O122 1.315 . S
C121 O123 1.279 . S
O122 Cd114 2.223 . S
O122 C121 1.315 . S
O123 Cd113 2.240 . S
O123 C121 1.279 . S
O124 Cd114 2.297 . S
O124 C119 1.247 . S
O125 Cd114 2.439 . S
O125 C119 1.208 . S
O126 Cd127 2.223 . S
O126 C134 1.315 . S
Cd127 O126 2.223 . S
Cd127 O130 2.297 . S
Cd127 O131 2.439 . S
Cd127 O137 2.240 . S
Cd128 O129 2.240 . S
Cd128 O136 2.223 . S
Cd128 O138 2.297 . S
Cd128 O139 2.439 . S
O129 Cd128 2.240 . S
O129 C134 1.279 . S
O130 Cd127 2.297 . S
O130 C132 1.247 . S
O131 Cd127 2.439 . S
O131 C132 1.208 . S
C132 O130 1.247 . S
C132 O131 1.208 . S
C133 O138 1.247 . S
C133 O139 1.208 . S
C134 O126 1.315 . S
C134 O129 1.279 . S
C135 O136 1.315 . S
C135 O137 1.279 . S
O136 Cd128 2.223 . S
O136 C135 1.315 . S
O137 Cd127 2.240 . S
O137 C135 1.279 . S
O138 Cd128 2.297 . S
O138 C133 1.247 . S
O139 Cd128 2.439 . S
O139 C133 1.208 . S
O140 Cd141 2.223 . S
O140 C148 1.315 . S
Cd141 O140 2.223 . S
Cd141 O144 2.297 . S
Cd141 O145 2.439 . S
Cd141 O151 2.240 . S
Cd142 O143 2.240 . S
Cd142 O150 2.223 . S
Cd142 O152 2.297 . S
Cd142 O153 2.439 . S
O143 Cd142 2.240 . S
O143 C148 1.279 . S
O144 Cd141 2.297 . S
O144 C146 1.247 . S
O145 Cd141 2.439 . S
O145 C146 1.208 . S
C146 O144 1.247 . S
C146 O145 1.208 . S
C147 O152 1.247 . S
C147 O153 1.208 . S
C148 O140 1.315 . S
C148 O143 1.279 . S
C149 O150 1.315 . S
C149 O151 1.279 . S
O150 Cd142 2.223 . S
O150 C149 1.315 . S
O151 Cd141 2.240 . S
O151 C149 1.279 . S
O152 Cd142 2.297 . S
O152 C147 1.247 . S
O153 Cd142 2.439 . S
O153 C147 1.208 . S
O154 Cd155 2.223 . S
O154 C162 1.315 1_556 S
Cd155 O154 2.223 . S
Cd155 O158 2.297 . S
Cd155 O159 2.439 . S
Cd155 O165 2.240 . S
Cd156 O157 2.240 . S
Cd156 O164 2.223 . S
Cd156 O166 2.297 . S
Cd156 O167 2.439 . S
O157 Cd156 2.240 . S
O157 C162 1.279 1_556 S
O158 Cd155 2.297 . S
O158 C160 1.247 . S
O159 Cd155 2.439 . S
O159 C160 1.208 . S
C160 O158 1.247 . S
C160 O159 1.208 . S
C161 O166 1.247 . S
C161 O167 1.208 . S
C162 O154 1.315 1_554 S
C162 O157 1.279 1_554 S
C163 O164 1.315 . S
C163 O165 1.279 . S
O164 Cd156 2.223 . S
O164 C163 1.315 . S
O165 Cd155 2.240 . S
O165 C163 1.279 . S
O166 Cd156 2.297 . S
O166 C161 1.247 . S
O167 Cd156 2.439 . S
O167 C161 1.208 . S
O168 Cd169 2.223 . S
O168 C176 1.315 . S
Cd169 O168 2.223 . S
Cd169 O172 2.297 . S
Cd169 O173 2.439 . S
Cd169 O179 2.240 . S
Cd170 O171 2.240 . S
Cd170 O178 2.223 . S
Cd170 O180 2.297 . S
Cd170 O181 2.439 . S
O171 Cd170 2.240 . S
O171 C176 1.279 . S
O172 Cd169 2.297 . S
O172 C174 1.247 . S
O173 Cd169 2.439 . S
O173 C174 1.208 . S
C174 O172 1.247 . S
C174 O173 1.208 . S
C175 O180 1.247 . S
C175 O181 1.208 . S
C176 O168 1.315 . S
C176 O171 1.279 . S
C177 O178 1.315 . S
C177 O179 1.279 . S
O178 Cd170 2.223 . S
O178 C177 1.315 . S
O179 Cd169 2.240 . S
O179 C177 1.279 . S
O180 Cd170 2.297 . S
O180 C175 1.247 . S
O181 Cd170 2.439 . S
O181 C175 1.208 . S
O182 Cd183 2.223 . S
O182 C190 1.315 . S
Cd183 O182 2.223 . S
Cd183 O186 2.297 . S
Cd183 O187 2.439 . S
Cd183 O193 2.240 . S
Cd184 O185 2.240 . S
Cd184 O192 2.223 . S
Cd184 O194 2.297 . S
Cd184 O195 2.439 . S
O185 Cd184 2.240 . S
O185 C190 1.279 . S
O186 Cd183 2.297 . S
O186 C188 1.247 . S
O187 Cd183 2.439 . S
O187 C188 1.208 . S
C188 O186 1.247 . S
C188 O187 1.208 . S
C189 O194 1.247 . S
C189 O195 1.208 . S
C190 O182 1.315 . S
C190 O185 1.279 . S
C191 O192 1.315 . S
C191 O193 1.279 . S
O192 Cd184 2.223 . S
O192 C191 1.315 . S
O193 Cd183 2.240 . S
O193 C191 1.279 . S
O194 Cd184 2.297 . S
O194 C189 1.247 . S
O195 Cd184 2.439 . S
O195 C189 1.208 . S
O196 Cd197 2.223 . S
O196 C204 1.315 . S
Cd197 O196 2.223 . S
Cd197 O200 2.297 . S
Cd197 O201 2.439 . S
Cd197 O207 2.240 . S
Cd198 O199 2.240 . S
Cd198 O206 2.223 . S
Cd198 O208 2.297 . S
Cd198 O209 2.439 . S
O199 Cd198 2.240 . S
O199 C204 1.279 . S
O200 Cd197 2.297 . S
O200 C202 1.247 . S
O201 Cd197 2.439 . S
O201 C202 1.208 . S
C202 O200 1.247 . S
C202 O201 1.208 . S
C203 O208 1.247 . S
C203 O209 1.208 . S
C204 O196 1.315 . S
C204 O199 1.279 . S
C205 O206 1.315 . S
C205 O207 1.279 . S
O206 Cd198 2.223 . S
O206 C205 1.315 . S
O207 Cd197 2.240 . S
O207 C205 1.279 . S
O208 Cd198 2.297 . S
O208 C203 1.247 . S
O209 Cd198 2.439 . S
O209 C203 1.208 . S
O210 Cd211 2.223 . S
O210 C218 1.315 1_554 S
Cd211 O210 2.223 . S
Cd211 O214 2.297 . S
Cd211 O215 2.439 . S
Cd211 O221 2.240 . S
Cd212 O213 2.240 . S
Cd212 O220 2.223 . S
Cd212 O222 2.297 . S
Cd212 O223 2.439 . S
O213 Cd212 2.240 . S
O213 C218 1.279 1_554 S
O214 Cd211 2.297 . S
O214 C216 1.247 . S
O215 Cd211 2.439 . S
O215 C216 1.208 . S
C216 O214 1.247 . S
C216 O215 1.208 . S
C217 O222 1.247 . S
C217 O223 1.208 . S
C218 O210 1.315 1_556 S
C218 O213 1.279 1_556 S
C219 O220 1.315 . S
C219 O221 1.279 . S
O220 Cd212 2.223 . S
O220 C219 1.315 . S
O221 Cd211 2.240 . S
O221 C219 1.279 . S
O222 Cd212 2.297 . S
O222 C217 1.247 . S
O223 Cd212 2.439 . S
O223 C217 1.208 . S
O224 Cd225 2.223 . S
O224 C232 1.315 . S
Cd225 O224 2.223 . S
Cd225 O228 2.297 . S
Cd225 O229 2.439 . S
Cd225 O235 2.240 . S
Cd226 O227 2.240 . S
Cd226 O234 2.223 . S
Cd226 O236 2.297 . S
Cd226 O237 2.439 . S
O227 Cd226 2.240 . S
O227 C232 1.279 . S
O228 Cd225 2.297 . S
O228 C230 1.247 . S
O229 Cd225 2.439 . S
O229 C230 1.208 . S
C230 O228 1.247 . S
C230 O229 1.208 . S
C231 O236 1.247 . S
C231 O237 1.208 . S
C232 O224 1.315 . S
C232 O227 1.279 . S
C233 O234 1.315 . S
C233 O235 1.279 . S
O234 Cd226 2.223 . S
O234 C233 1.315 . S
O235 Cd225 2.240 . S
O235 C233 1.279 . S
O236 Cd226 2.297 . S
O236 C231 1.247 . S
O237 Cd226 2.439 . S
O237 C231 1.208 . S
O238 Cd239 2.223 . S
O238 C246 1.315 1_554 S
Cd239 O238 2.223 . S
Cd239 O242 2.297 . S
Cd239 O243 2.439 . S
Cd239 O249 2.240 . S
Cd240 O241 2.240 . S
Cd240 O248 2.223 . S
Cd240 O250 2.297 . S
Cd240 O251 2.439 . S
O241 Cd240 2.240 . S
O241 C246 1.279 1_554 S
O242 Cd239 2.297 . S
O242 C244 1.247 . S
O243 Cd239 2.439 . S
O243 C244 1.208 . S
C244 O242 1.247 . S
C244 O243 1.208 . S
C245 O250 1.247 . S
C245 O251 1.208 . S
C246 O238 1.315 1_556 S
C246 O241 1.279 1_556 S
C247 O248 1.315 . S
C247 O249 1.279 . S
O248 Cd240 2.223 . S
O248 C247 1.315 . S
O249 Cd239 2.240 . S
O249 C247 1.279 . S
O250 Cd240 2.297 . S
O250 C245 1.247 . S
O251 Cd240 2.439 . S
O251 C245 1.208 . S
O252 Cd253 2.223 . S
O252 C260 1.315 . S
Cd253 O252 2.223 . S
Cd253 O256 2.297 . S
Cd253 O257 2.439 . S
Cd253 O263 2.240 . S
Cd254 O255 2.240 . S
Cd254 O262 2.223 . S
Cd254 O264 2.297 . S
Cd254 O265 2.439 . S
O255 Cd254 2.240 . S
O255 C260 1.279 . S
O256 Cd253 2.297 . S
O256 C258 1.247 . S
O257 Cd253 2.439 . S
O257 C258 1.208 . S
C258 O256 1.247 . S
C258 O257 1.208 . S
C259 O264 1.247 . S
C259 O265 1.208 . S
C260 O252 1.315 . S
C260 O255 1.279 . S
C261 O262 1.315 . S
C261 O263 1.279 . S
O262 Cd254 2.223 . S
O262 C261 1.315 . S
O263 Cd253 2.240 . S
O263 C261 1.279 . S
O264 Cd254 2.297 . S
O264 C259 1.247 . S
O265 Cd254 2.439 . S
O265 C259 1.208 . S
O266 Cd267 2.223 . S
O266 C274 1.315 . S
Cd267 O266 2.223 . S
Cd267 O270 2.297 . S
Cd267 O271 2.439 . S
Cd267 O277 2.240 . S
Cd268 O269 2.240 . S
Cd268 O276 2.223 . S
Cd268 O278 2.297 . S
Cd268 O279 2.439 . S
O269 Cd268 2.240 . S
O269 C274 1.279 . S
O270 Cd267 2.297 . S
O270 C272 1.247 . S
O271 Cd267 2.439 . S
O271 C272 1.208 . S
C272 O270 1.247 . S
C272 O271 1.208 . S
C273 O278 1.247 . S
C273 O279 1.208 . S
C274 O266 1.315 . S
C274 O269 1.279 . S
C275 O276 1.315 . S
C275 O277 1.279 . S
O276 Cd268 2.223 . S
O276 C275 1.315 . S
O277 Cd267 2.240 . S
O277 C275 1.279 . S
O278 Cd268 2.297 . S
O278 C273 1.247 . S
O279 Cd268 2.439 . S
O279 C273 1.208 . S
O280 Cd281 2.223 . S
O280 C288 1.315 . S
Cd281 O280 2.223 . S
Cd281 O284 2.297 . S
Cd281 O285 2.439 . S
Cd281 O291 2.240 . S
Cd282 O283 2.240 . S
Cd282 O290 2.223 . S
Cd282 O292 2.297 . S
Cd282 O293 2.439 . S
O283 Cd282 2.240 . S
O283 C288 1.279 . S
O284 Cd281 2.297 . S
O284 C286 1.247 . S
O285 Cd281 2.439 . S
O285 C286 1.208 . S
C286 O284 1.247 . S
C286 O285 1.208 . S
C287 O292 1.247 . S
C287 O293 1.208 . S
C288 O280 1.315 . S
C288 O283 1.279 . S
C289 O290 1.315 . S
C289 O291 1.279 . S
O290 Cd282 2.223 . S
O290 C289 1.315 . S
O291 Cd281 2.240 . S
O291 C289 1.279 . S
O292 Cd282 2.297 . S
O292 C287 1.247 . S
O293 Cd282 2.439 . S
O293 C287 1.208 . S
O294 Cd295 2.223 . S
O294 C302 1.315 1_556 S
Cd295 O294 2.223 . S
Cd295 O298 2.297 . S
Cd295 O299 2.439 . S
Cd295 O305 2.240 . S
Cd296 O297 2.240 . S
Cd296 O304 2.223 . S
Cd296 O306 2.297 . S
Cd296 O307 2.439 . S
O297 Cd296 2.240 . S
O297 C302 1.279 1_556 S
O298 Cd295 2.297 . S
O298 C300 1.247 . S
O299 Cd295 2.439 . S
O299 C300 1.208 . S
C300 O298 1.247 . S
C300 O299 1.208 . S
C301 O306 1.247 . S
C301 O307 1.208 . S
C302 O294 1.315 1_554 S
C302 O297 1.279 1_554 S
C303 O304 1.315 . S
C303 O305 1.279 . S
O304 Cd296 2.223 . S
O304 C303 1.315 . S
O305 Cd295 2.240 . S
O305 C303 1.279 . S
O306 Cd296 2.297 . S
O306 C301 1.247 . S
O307 Cd296 2.439 . S
O307 C301 1.208 . S
O308 Cd309 2.223 . S
O308 C316 1.315 . S
Cd309 O308 2.223 . S
Cd309 O312 2.297 . S
Cd309 O313 2.439 . S
Cd309 O319 2.240 . S
Cd310 O311 2.240 . S
Cd310 O318 2.223 . S
Cd310 O320 2.297 . S
Cd310 O321 2.439 . S
O311 Cd310 2.240 . S
O311 C316 1.279 . S
O312 Cd309 2.297 . S
O312 C314 1.247 . S
O313 Cd309 2.439 . S
O313 C314 1.208 . S
C314 O312 1.247 . S
C314 O313 1.208 . S
C315 O320 1.247 . S
C315 O321 1.208 . S
C316 O308 1.315 . S
C316 O311 1.279 . S
C317 O318 1.315 . S
C317 O319 1.279 . S
O318 Cd310 2.223 . S
O318 C317 1.315 . S
O319 Cd309 2.240 . S
O319 C317 1.279 . S
O320 Cd310 2.297 . S
O320 C315 1.247 . S
O321 Cd310 2.439 . S
O321 C315 1.208 . S
O322 Cd323 2.223 . S
O322 C330 1.315 . S
Cd323 O322 2.223 . S
Cd323 O326 2.297 . S
Cd323 O327 2.439 . S
Cd323 O333 2.240 . S
Cd324 O325 2.240 . S
Cd324 O332 2.223 . S
Cd324 O334 2.297 . S
Cd324 O335 2.439 . S
O325 Cd324 2.240 . S
O325 C330 1.279 . S
O326 Cd323 2.297 . S
O326 C328 1.247 . S
O327 Cd323 2.439 . S
O327 C328 1.208 . S
C328 O326 1.247 . S
C328 O327 1.208 . S
C329 O334 1.247 . S
C329 O335 1.208 . S
C330 O322 1.315 . S
C330 O325 1.279 . S
C331 O332 1.315 . S
C331 O333 1.279 . S
O332 Cd324 2.223 . S
O332 C331 1.315 . S
O333 Cd323 2.240 . S
O333 C331 1.279 . S
O334 Cd324 2.297 . S
O334 C329 1.247 . S
O335 Cd324 2.439 . S
O335 C329 1.208 . S
O336 Cd337 2.223 . S
O336 C344 1.315 . S
Cd337 O336 2.223 . S
Cd337 O340 2.297 . S
Cd337 O341 2.439 . S
Cd337 O347 2.240 . S
Cd338 O339 2.240 . S
Cd338 O346 2.223 . S
Cd338 O348 2.297 . S
Cd338 O349 2.439 . S
O339 Cd338 2.240 . S
O339 C344 1.279 . S
O340 Cd337 2.297 . S
O340 C342 1.247 . S
O341 Cd337 2.439 . S
O341 C342 1.208 . S
C342 O340 1.247 . S
C342 O341 1.208 . S
C343 O348 1.247 . S
C343 O349 1.208 . S
C344 O336 1.315 . S
C344 O339 1.279 . S
C345 O346 1.315 . S
C345 O347 1.279 . S
O346 Cd338 2.223 . S
O346 C345 1.315 . S
O347 Cd337 2.240 . S
O347 C345 1.279 . S
O348 Cd338 2.297 . S
O348 C343 1.247 . S
O349 Cd338 2.439 . S
O349 C343 1.208 . S
O350 Cd351 2.223 . S
O350 C358 1.315 1_556 S
Cd351 O350 2.223 . S
Cd351 O354 2.297 . S
Cd351 O355 2.439 . S
Cd351 O361 2.240 . S
Cd352 O353 2.240 . S
Cd352 O360 2.223 . S
Cd352 O362 2.297 . S
Cd352 O363 2.439 . S
O353 Cd352 2.240 . S
O353 C358 1.279 1_556 S
O354 Cd351 2.297 . S
O354 C356 1.247 . S
O355 Cd351 2.439 . S
O355 C356 1.208 . S
C356 O354 1.247 . S
C356 O355 1.208 . S
C357 O362 1.247 . S
C357 O363 1.208 . S
C358 O350 1.315 1_554 S
C358 O353 1.279 1_554 S
C359 O360 1.315 . S
C359 O361 1.279 . S
O360 Cd352 2.223 . S
O360 C359 1.315 . S
O361 Cd351 2.240 . S
O361 C359 1.279 . S
O362 Cd352 2.297 . S
O362 C357 1.247 . S
O363 Cd352 2.439 . S
O363 C357 1.208 . S
O364 Cd365 2.223 . S
O364 C372 1.315 . S
Cd365 O364 2.223 . S
Cd365 O368 2.297 . S
Cd365 O369 2.439 . S
Cd365 O375 2.240 . S
Cd366 O367 2.240 . S
Cd366 O374 2.223 . S
Cd366 O376 2.297 . S
Cd366 O377 2.439 . S
O367 Cd366 2.240 . S
O367 C372 1.279 . S
O368 Cd365 2.297 . S
O368 C370 1.247 . S
O369 Cd365 2.439 . S
O369 C370 1.208 . S
C370 O368 1.247 . S
C370 O369 1.208 . S
C371 O376 1.247 . S
C371 O377 1.208 . S
C372 O364 1.315 . S
C372 O367 1.279 . S
C373 O374 1.315 . S
C373 O375 1.279 . S
O374 Cd366 2.223 . S
O374 C373 1.315 . S
O375 Cd365 2.240 . S
O375 C373 1.279 . S
O376 Cd366 2.297 . S
O376 C371 1.247 . S
O377 Cd366 2.439 . S
O377 C371 1.208 . S
O378 Cd379 2.223 . S
O378 C386 1.315 . S
Cd379 O378 2.223 . S
Cd379 O382 2.297 . S
Cd379 O383 2.439 . S
Cd379 O389 2.240 . S
Cd380 O381 2.240 . S
Cd380 O388 2.223 . S
Cd380 O390 2.297 . S
Cd380 O391 2.439 . S
O381 Cd380 2.240 . S
O381 C386 1.279 . S
O382 Cd379 2.297 . S
O382 C384 1.247 . S
O383 Cd379 2.439 . S
O383 C384 1.208 . S
C384 O382 1.247 . S
C384 O383 1.208 . S
C385 O390 1.247 . S
C385 O391 1.208 . S
C386 O378 1.315 . S
C386 O381 1.279 . S
C387 O388 1.315 . S
C387 O389 1.279 . S
O388 Cd380 2.223 . S
O388 C387 1.315 . S
O389 Cd379 2.240 . S
O389 C387 1.279 . S
O390 Cd380 2.297 . S
O390 C385 1.247 . S
O391 Cd380 2.439 . S
O391 C385 1.208 . S
O392 Cd393 2.223 . S
O392 C400 1.315 . S
Cd393 O392 2.223 . S
Cd393 O396 2.297 . S
Cd393 O397 2.439 . S
Cd393 O403 2.240 . S
Cd394 O395 2.240 . S
Cd394 O402 2.223 . S
Cd394 O404 2.297 . S
Cd394 O405 2.439 . S
O395 Cd394 2.240 . S
O395 C400 1.279 . S
O396 Cd393 2.297 . S
O396 C398 1.247 . S
O397 Cd393 2.439 . S
O397 C398 1.208 . S
C398 O396 1.247 . S
C398 O397 1.208 . S
C399 O404 1.247 . S
C399 O405 1.208 . S
C400 O392 1.315 . S
C400 O395 1.279 . S
C401 O402 1.315 . S
C401 O403 1.279 . S
O402 Cd394 2.223 . S
O402 C401 1.315 . S
O403 Cd393 2.240 . S
O403 C401 1.279 . S
O404 Cd394 2.297 . S
O404 C399 1.247 . S
O405 Cd394 2.439 . S
O405 C399 1.208 . S
O406 Cd407 2.223 . S
O406 C414 1.315 1_554 S
Cd407 O406 2.223 . S
Cd407 O410 2.297 . S
Cd407 O411 2.439 . S
Cd407 O417 2.240 . S
Cd408 O409 2.240 . S
Cd408 O416 2.223 . S
Cd408 O418 2.297 . S
Cd408 O419 2.439 . S
O409 Cd408 2.240 . S
O409 C414 1.279 1_554 S
O410 Cd407 2.297 . S
O410 C412 1.247 . S
O411 Cd407 2.439 . S
O411 C412 1.208 . S
C412 O410 1.247 . S
C412 O411 1.208 . S
C413 O418 1.247 . S
C413 O419 1.208 . S
C414 O406 1.315 1_556 S
C414 O409 1.279 1_556 S
C415 O416 1.315 . S
C415 O417 1.279 . S
O416 Cd408 2.223 . S
O416 C415 1.315 . S
O417 Cd407 2.240 . S
O417 C415 1.279 . S
O418 Cd408 2.297 . S
O418 C413 1.247 . S
O419 Cd408 2.439 . S
O419 C413 1.208 . S
O420 Cd421 2.223 . S
O420 C428 1.315 . S
Cd421 O420 2.223 . S
Cd421 O424 2.297 . S
Cd421 O425 2.439 . S
Cd421 O431 2.240 . S
Cd422 O423 2.240 . S
Cd422 O430 2.223 . S
Cd422 O432 2.297 . S
Cd422 O433 2.439 . S
O423 Cd422 2.240 . S
O423 C428 1.279 . S
O424 Cd421 2.297 . S
O424 C426 1.247 . S
O425 Cd421 2.439 . S
O425 C426 1.208 . S
C426 O424 1.247 . S
C426 O425 1.208 . S
C427 O432 1.247 . S
C427 O433 1.208 . S
C428 O420 1.315 . S
C428 O423 1.279 . S
C429 O430 1.315 . S
C429 O431 1.279 . S
O430 Cd422 2.223 . S
O430 C429 1.315 . S
O431 Cd421 2.240 . S
O431 C429 1.279 . S
O432 Cd422 2.297 . S
O432 C427 1.247 . S
O433 Cd422 2.439 . S
O433 C427 1.208 . S
O434 Cd435 2.223 . S
O434 C442 1.315 . S
Cd435 O434 2.223 . S
Cd435 O438 2.297 . S
Cd435 O439 2.439 . S
Cd435 O445 2.240 . S
Cd436 O437 2.240 . S
Cd436 O444 2.223 . S
Cd436 O446 2.297 . S
Cd436 O447 2.439 . S
O437 Cd436 2.240 . S
O437 C442 1.279 . S
O438 Cd435 2.297 . S
O438 C440 1.247 . S
O439 Cd435 2.439 . S
O439 C440 1.208 . S
C440 O438 1.247 . S
C440 O439 1.208 . S
C441 O446 1.247 . S
C441 O447 1.208 . S
C442 O434 1.315 . S
C442 O437 1.279 . S
C443 O444 1.315 . S
C443 O445 1.279 . S
O444 Cd436 2.223 . S
O444 C443 1.315 . S
O445 Cd435 2.240 . S
O445 C443 1.279 . S
O446 Cd436 2.297 . S
O446 C441 1.247 . S
O447 Cd436 2.439 . S
O447 C441 1.208 . S
H448 C456 0.950 . S
H449 C461 0.950 . S
H450 C458 0.950 . S
H451 C460 0.950 . S
H452 C462 0.950 . S
H453 C464 0.950 . S
H454 C466 0.950 . S
H455 C467 0.950 . S
C456 H448 0.950 . S
C456 C457 1.386 . S
C456 C458 1.391 . S
C457 C456 1.386 . S
C457 C461 1.393 . S
C458 H450 0.950 . S
C458 C456 1.391 . S
C458 C459 1.400 . S
C459 C458 1.400 . S
C459 C460 1.398 . S
C459 C465 1.491 . S
C460 H451 0.950 . S
C460 C459 1.398 . S
C460 C461 1.391 . S
C461 H449 0.950 . S
C461 C457 1.393 . S
C461 C460 1.391 . S
C462 H452 0.950 . S
C462 C463 1.386 . S
C462 C464 1.391 . S
C463 C462 1.386 . S
C463 C467 1.393 . S
C464 H453 0.950 . S
C464 C462 1.391 . S
C464 C465 1.400 . S
C465 C459 1.491 . S
C465 C464 1.400 . S
C465 C466 1.398 . S
C466 H454 0.950 . S
C466 C465 1.398 . S
C466 C467 1.391 . S
C467 H455 0.950 . S
C467 C463 1.393 . S
C467 C466 1.391 . S
H468 C476 0.950 . S
H469 C481 0.950 . S
H470 C478 0.950 . S
H471 C480 0.950 . S
H472 C482 0.950 . S
H473 C484 0.950 . S
H474 C486 0.950 . S
H475 C487 0.950 . S
C476 H468 0.950 . S
C476 C477 1.386 . S
C476 C478 1.391 . S
C477 C476 1.386 . S
C477 C481 1.393 . S
C478 H470 0.950 . S
C478 C476 1.391 . S
C478 C479 1.400 . S
C479 C478 1.400 . S
C479 C480 1.398 . S
C479 C485 1.491 1_565 S
C480 H471 0.950 . S
C480 C479 1.398 . S
C480 C481 1.391 . S
C481 H469 0.950 . S
C481 C477 1.393 . S
C481 C480 1.391 . S
C482 H472 0.950 . S
C482 C483 1.386 . S
C482 C484 1.391 . S
C483 C482 1.386 . S
C483 C487 1.393 . S
C484 H473 0.950 . S
C484 C482 1.391 . S
C484 C485 1.400 . S
C485 C479 1.491 1_545 S
C485 C484 1.400 . S
C485 C486 1.398 . S
C486 H474 0.950 . S
C486 C485 1.398 . S
C486 C487 1.391 . S
C487 H475 0.950 . S
C487 C483 1.393 . S
C487 C486 1.391 . S
H488 C496 0.950 . S
H489 C501 0.950 1_556 S
H490 C498 0.950 . S
H491 C500 0.950 . S
H492 C502 0.950 . S
H493 C504 0.950 . S
H494 C506 0.950 . S
H495 C507 0.950 1_554 S
C496 H488 0.950 . S
C496 C497 1.386 . S
C496 C498 1.391 . S
C497 C496 1.386 . S
C497 C501 1.393 . S
C498 H490 0.950 . S
C498 C496 1.391 . S
C498 C499 1.400 . S
C499 C498 1.400 . S
C499 C500 1.398 1_554 S
C499 C505 1.491 1_554 S
C500 H491 0.950 . S
C500 C499 1.398 1_556 S
C500 C501 1.391 1_556 S
C501 H489 0.950 1_554 S
C501 C497 1.393 . S
C501 C500 1.391 1_554 S
C502 H492 0.950 . S
C502 C503 1.386 . S
C502 C504 1.391 . S
C503 C502 1.386 . S
C503 C507 1.393 . S
C504 H493 0.950 . S
C504 C502 1.391 . S
C504 C505 1.400 . S
C505 C499 1.491 1_556 S
C505 C504 1.400 . S
C505 C506 1.398 1_556 S
C506 H494 0.950 . S
C506 C505 1.398 1_554 S
C506 C507 1.391 1_554 S
C507 H495 0.950 1_556 S
C507 C503 1.393 . S
C507 C506 1.391 1_556 S
H508 C516 0.950 . S
H509 C521 0.950 . S
H510 C518 0.950 . S
H511 C520 0.950 . S
H512 C522 0.950 . S
H513 C524 0.950 . S
H514 C526 0.950 . S
H515 C527 0.950 . S
C516 H508 0.950 . S
C516 C517 1.386 . S
C516 C518 1.391 . S
C517 C516 1.386 . S
C517 C521 1.393 . S
C518 H510 0.950 . S
C518 C516 1.391 . S
C518 C519 1.400 . S
C519 C518 1.400 . S
C519 C520 1.398 . S
C519 C525 1.491 1_545 S
C520 H511 0.950 . S
C520 C519 1.398 . S
C520 C521 1.391 . S
C521 H509 0.950 . S
C521 C517 1.393 . S
C521 C520 1.391 . S
C522 H512 0.950 . S
C522 C523 1.386 . S
C522 C524 1.391 . S
C523 C522 1.386 . S
C523 C527 1.393 . S
C524 H513 0.950 . S
C524 C522 1.391 . S
C524 C525 1.400 . S
C525 C519 1.491 1_565 S
C525 C524 1.400 . S
C525 C526 1.398 . S
C526 H514 0.950 . S
C526 C525 1.398 . S
C526 C527 1.391 . S
C527 H515 0.950 . S
C527 C523 1.393 . S
C527 C526 1.391 . S
H528 C536 0.950 . S
H529 C541 0.950 . S
H530 C538 0.950 . S
H531 C540 0.950 . S
H532 C542 0.950 . S
H533 C544 0.950 . S
H534 C546 0.950 . S
H535 C547 0.950 . S
C536 H528 0.950 . S
C536 C537 1.386 . S
C536 C538 1.391 . S
C537 C536 1.386 . S
C537 C541 1.393 . S
C538 H530 0.950 . S
C538 C536 1.391 . S
C538 C539 1.400 . S
C539 C538 1.400 . S
C539 C540 1.398 . S
C539 C545 1.491 . S
C540 H531 0.950 . S
C540 C539 1.398 . S
C540 C541 1.391 . S
C541 H529 0.950 . S
C541 C537 1.393 . S
C541 C540 1.391 . S
C542 H532 0.950 . S
C542 C543 1.386 . S
C542 C544 1.391 . S
C543 C542 1.386 . S
C543 C547 1.393 . S
C544 H533 0.950 . S
C544 C542 1.391 . S
C544 C545 1.400 . S
C545 C539 1.491 . S
C545 C544 1.400 . S
C545 C546 1.398 . S
C546 H534 0.950 . S
C546 C545 1.398 . S
C546 C547 1.391 . S
C547 H535 0.950 . S
C547 C543 1.393 . S
C547 C546 1.391 . S
H548 C556 0.950 . S
H549 C561 0.950 . S
H550 C558 0.950 . S
H551 C560 0.950 . S
H552 C562 0.950 . S
H553 C564 0.950 . S
H554 C566 0.950 . S
H555 C567 0.950 . S
C556 H548 0.950 . S
C556 C557 1.386 . S
C556 C558 1.391 . S
C557 C556 1.386 . S
C557 C561 1.393 . S
C558 H550 0.950 . S
C558 C556 1.391 . S
C558 C559 1.400 . S
C559 C558 1.400 . S
C559 C560 1.398 . S
C559 C565 1.491 1_545 S
C560 H551 0.950 . S
C560 C559 1.398 . S
C560 C561 1.391 . S
C561 H549 0.950 . S
C561 C557 1.393 . S
C561 C560 1.391 . S
C562 H552 0.950 . S
C562 C563 1.386 . S
C562 C564 1.391 . S
C563 C562 1.386 . S
C563 C567 1.393 . S
C564 H553 0.950 . S
C564 C562 1.391 . S
C564 C565 1.400 . S
C565 C559 1.491 1_565 S
C565 C564 1.400 . S
C565 C566 1.398 . S
C566 H554 0.950 . S
C566 C565 1.398 . S
C566 C567 1.391 . S
C567 H555 0.950 . S
C567 C563 1.393 . S
C567 C566 1.391 . S
H568 C576 0.950 . S
H569 C581 0.950 . S
H570 C578 0.950 1_554 S
H571 C580 0.950 . S
H572 C582 0.950 . S
H573 C584 0.950 1_556 S
H574 C586 0.950 . S
H575 C587 0.950 . S
C576 H568 0.950 . S
C576 C577 1.386 . S
C576 C578 1.391 . S
C577 C576 1.386 . S
C577 C581 1.393 . S
C578 H570 0.950 1_556 S
C578 C576 1.391 . S
C578 C579 1.400 . S
C579 C578 1.400 . S
C579 C580 1.398 . S
C579 C585 1.491 1_556 S
C580 H571 0.950 . S
C580 C579 1.398 . S
C580 C581 1.391 . S
C581 H569 0.950 . S
C581 C577 1.393 . S
C581 C580 1.391 . S
C582 H572 0.950 . S
C582 C583 1.386 . S
C582 C584 1.391 . S
C583 C582 1.386 . S
C583 C587 1.393 . S
C584 H573 0.950 1_554 S
C584 C582 1.391 . S
C584 C585 1.400 . S
C585 C579 1.491 1_554 S
C585 C584 1.400 . S
C585 C586 1.398 . S
C586 H574 0.950 . S
C586 C585 1.398 . S
C586 C587 1.391 . S
C587 H575 0.950 . S
C587 C583 1.393 . S
C587 C586 1.391 . S
H588 C596 0.950 . S
H589 C601 0.950 . S
H590 C598 0.950 . S
H591 C600 0.950 . S
H592 C602 0.950 . S
H593 C604 0.950 . S
H594 C606 0.950 . S
H595 C607 0.950 . S
C596 H588 0.950 . S
C596 C597 1.386 . S
C596 C598 1.391 . S
C597 C596 1.386 . S
C597 C601 1.393 . S
C598 H590 0.950 . S
C598 C596 1.391 . S
C598 C599 1.400 . S
C599 C598 1.400 . S
C599 C600 1.398 . S
C599 C605 1.491 1_565 S
C600 H591 0.950 . S
C600 C599 1.398 . S
C600 C601 1.391 . S
C601 H589 0.950 . S
C601 C597 1.393 . S
C601 C600 1.391 . S
C602 H592 0.950 . S
C602 C603 1.386 . S
C602 C604 1.391 . S
C603 C602 1.386 . S
C603 C607 1.393 . S
C604 H593 0.950 . S
C604 C602 1.391 . S
C604 C605 1.400 . S
C605 C599 1.491 1_545 S
C605 C604 1.400 . S
C605 C606 1.398 . S
C606 H594 0.950 . S
C606 C605 1.398 . S
C606 C607 1.391 . S
C607 H595 0.950 . S
C607 C603 1.393 . S
C607 C606 1.391 . S
H608 C616 0.950 . S
H609 C621 0.950 . S
H610 C618 0.950 . S
H611 C620 0.950 . S
H612 C622 0.950 . S
H613 C624 0.950 . S
H614 C626 0.950 . S
H615 C627 0.950 . S
C616 H608 0.950 . S
C616 C617 1.386 . S
C616 C618 1.391 . S
C617 C616 1.386 . S
C617 C621 1.393 . S
C618 H610 0.950 . S
C618 C616 1.391 . S
C618 C619 1.400 . S
C619 C618 1.400 . S
C619 C620 1.398 1_556 S
C619 C625 1.491 1_556 S
C620 H611 0.950 . S
C620 C619 1.398 1_554 S
C620 C621 1.391 1_554 S
C621 H609 0.950 . S
C621 C617 1.393 . S
C621 C620 1.391 1_556 S
C622 H612 0.950 . S
C622 C623 1.386 . S
C622 C624 1.391 . S
C623 C622 1.386 . S
C623 C627 1.393 . S
C624 H613 0.950 . S
C624 C622 1.391 . S
C624 C625 1.400 . S
C625 C619 1.491 1_554 S
C625 C624 1.400 . S
C625 C626 1.398 1_554 S
C626 H614 0.950 . S
C626 C625 1.398 1_556 S
C626 C627 1.391 1_556 S
C627 H615 0.950 . S
C627 C623 1.393 . S
C627 C626 1.391 1_554 S
H628 C636 0.950 . S
H629 C641 0.950 . S
H630 C638 0.950 . S
H631 C640 0.950 . S
H632 C642 0.950 . S
H633 C644 0.950 . S
H634 C646 0.950 . S
H635 C647 0.950 . S
C636 H628 0.950 . S
C636 C637 1.386 . S
C636 C638 1.391 . S
C637 C636 1.386 . S
C637 C641 1.393 . S
C638 H630 0.950 . S
C638 C636 1.391 . S
C638 C639 1.400 . S
C639 C638 1.400 . S
C639 C640 1.398 . S
C639 C645 1.491 . S
C640 H631 0.950 . S
C640 C639 1.398 . S
C640 C641 1.391 . S
C641 H629 0.950 . S
C641 C637 1.393 . S
C641 C640 1.391 . S
C642 H632 0.950 . S
C642 C643 1.386 . S
C642 C644 1.391 . S
C643 C642 1.386 . S
C643 C647 1.393 . S
C644 H633 0.950 . S
C644 C642 1.391 . S
C644 C645 1.400 . S
C645 C639 1.491 . S
C645 C644 1.400 . S
C645 C646 1.398 . S
C646 H634 0.950 . S
C646 C645 1.398 . S
C646 C647 1.391 . S
C647 H635 0.950 . S
C647 C643 1.393 . S
C647 C646 1.391 . S
H648 C656 0.950 . S
H649 C661 0.950 . S
H650 C658 0.950 . S
H651 C660 0.950 . S
H652 C662 0.950 . S
H653 C664 0.950 . S
H654 C666 0.950 . S
H655 C667 0.950 . S
C656 H648 0.950 . S
C656 C657 1.386 . S
C656 C658 1.391 . S
C657 C656 1.386 . S
C657 C661 1.393 . S
C658 H650 0.950 . S
C658 C656 1.391 . S
C658 C659 1.400 . S
C659 C658 1.400 . S
C659 C660 1.398 . S
C659 C665 1.491 . S
C660 H651 0.950 . S
C660 C659 1.398 . S
C660 C661 1.391 . S
C661 H649 0.950 . S
C661 C657 1.393 . S
C661 C660 1.391 . S
C662 H652 0.950 . S
C662 C663 1.386 . S
C662 C664 1.391 . S
C663 C662 1.386 . S
C663 C667 1.393 . S
C664 H653 0.950 . S
C664 C662 1.391 . S
C664 C665 1.400 . S
C665 C659 1.491 . S
C665 C664 1.400 . S
C665 C666 1.398 . S
C666 H654 0.950 . S
C666 C665 1.398 . S
C666 C667 1.391 . S
C667 H655 0.950 . S
C667 C663 1.393 . S
C667 C666 1.391 . S
H668 C676 0.950 . S
H669 C681 0.950 . S
H670 C678 0.950 . S
H671 C680 0.950 . S
H672 C682 0.950 . S
H673 C684 0.950 . S
H674 C686 0.950 . S
H675 C687 0.950 . S
C676 H668 0.950 . S
C676 C677 1.386 . S
C676 C678 1.391 . S
C677 C676 1.386 . S
C677 C681 1.393 . S
C678 H670 0.950 . S
C678 C676 1.391 . S
C678 C679 1.400 . S
C679 C678 1.400 . S
C679 C680 1.398 . S
C679 C685 1.491 . S
C680 H671 0.950 . S
C680 C679 1.398 . S
C680 C681 1.391 . S
C681 H669 0.950 . S
C681 C677 1.393 . S
C681 C680 1.391 . S
C682 H672 0.950 . S
C682 C683 1.386 . S
C682 C684 1.391 . S
C683 C682 1.386 . S
C683 C687 1.393 . S
C684 H673 0.950 . S
C684 C682 1.391 . S
C684 C685 1.400 . S
C685 C679 1.491 . S
C685 C684 1.400 . S
C685 C686 1.398 . S
C686 H674 0.950 . S
C686 C685 1.398 . S
C686 C687 1.391 . S
C687 H675 0.950 . S
C687 C683 1.393 . S
C687 C686 1.391 . S
H688 C696 0.950 . S
H689 C701 0.950 . S
H690 C698 0.950 . S
H691 C700 0.950 . S
H692 C702 0.950 . S
H693 C704 0.950 . S
H694 C706 0.950 . S
H695 C707 0.950 . S
C696 H688 0.950 . S
C696 C697 1.386 . S
C696 C698 1.391 1_556 S
C697 C696 1.386 . S
C697 C701 1.393 . S
C698 H690 0.950 . S
C698 C696 1.391 1_554 S
C698 C699 1.400 1_554 S
C699 C698 1.400 1_556 S
C699 C700 1.398 . S
C699 C705 1.491 1_556 S
C700 H691 0.950 . S
C700 C699 1.398 . S
C700 C701 1.391 . S
C701 H689 0.950 . S
C701 C697 1.393 . S
C701 C700 1.391 . S
C702 H692 0.950 . S
C702 C703 1.386 . S
C702 C704 1.391 1_554 S
C703 C702 1.386 . S
C703 C707 1.393 . S
C704 H693 0.950 . S
C704 C702 1.391 1_556 S
C704 C705 1.400 1_556 S
C705 C699 1.491 1_554 S
C705 C704 1.400 1_554 S
C705 C706 1.398 . S
C706 H694 0.950 . S
C706 C705 1.398 . S
C706 C707 1.391 . S
C707 H695 0.950 . S
C707 C703 1.393 . S
C707 C706 1.391 . S
H708 C716 0.950 . S
H709 C721 0.950 . S
H710 C718 0.950 . S
H711 C720 0.950 . S
H712 C722 0.950 . S
H713 C724 0.950 . S
H714 C726 0.950 . S
H715 C727 0.950 . S
C716 H708 0.950 . S
C716 C717 1.386 . S
C716 C718 1.391 . S
C717 C716 1.386 . S
C717 C721 1.393 . S
C718 H710 0.950 . S
C718 C716 1.391 . S
C718 C719 1.400 . S
C719 C718 1.400 . S
C719 C720 1.398 . S
C719 C725 1.491 . S
C720 H711 0.950 . S
C720 C719 1.398 . S
C720 C721 1.391 . S
C721 H709 0.950 . S
C721 C717 1.393 . S
C721 C720 1.391 . S
C722 H712 0.950 . S
C722 C723 1.386 . S
C722 C724 1.391 . S
C723 C722 1.386 . S
C723 C727 1.393 . S
C724 H713 0.950 . S
C724 C722 1.391 . S
C724 C725 1.400 . S
C725 C719 1.491 . S
C725 C724 1.400 . S
C725 C726 1.398 . S
C726 H714 0.950 . S
C726 C725 1.398 . S
C726 C727 1.391 . S
C727 H715 0.950 . S
C727 C723 1.393 . S
C727 C726 1.391 . S
H728 C736 0.950 . S
H729 C741 0.950 . S
H730 C738 0.950 . S
H731 C740 0.950 . S
H732 C742 0.950 . S
H733 C744 0.950 . S
H734 C746 0.950 . S
H735 C747 0.950 . S
C736 H728 0.950 . S
C736 C737 1.386 . S
C736 C738 1.391 . S
C737 C736 1.386 . S
C737 C741 1.393 . S
C738 H730 0.950 . S
C738 C736 1.391 . S
C738 C739 1.400 . S
C739 C738 1.400 . S
C739 C740 1.398 . S
C739 C745 1.491 . S
C740 H731 0.950 . S
C740 C739 1.398 . S
C740 C741 1.391 . S
C741 H729 0.950 . S
C741 C737 1.393 . S
C741 C740 1.391 . S
C742 H732 0.950 . S
C742 C743 1.386 . S
C742 C744 1.391 . S
C743 C742 1.386 . S
C743 C747 1.393 . S
C744 H733 0.950 . S
C744 C742 1.391 . S
C744 C745 1.400 . S
C745 C739 1.491 . S
C745 C744 1.400 . S
C745 C746 1.398 . S
C746 H734 0.950 . S
C746 C745 1.398 . S
C746 C747 1.391 . S
C747 H735 0.950 . S
C747 C743 1.393 . S
C747 C746 1.391 . S
H748 C756 0.950 . S
H749 C761 0.950 . S
H750 C758 0.950 . S
H751 C760 0.950 . S
H752 C762 0.950 . S
H753 C764 0.950 . S
H754 C766 0.950 . S
H755 C767 0.950 . S
C756 H748 0.950 . S
C756 C757 1.386 . S
C756 C758 1.391 . S
C757 C756 1.386 . S
C757 C761 1.393 . S
C758 H750 0.950 . S
C758 C756 1.391 . S
C758 C759 1.400 . S
C759 C758 1.400 . S
C759 C760 1.398 . S
C759 C765 1.491 . S
C760 H751 0.950 . S
C760 C759 1.398 . S
C760 C761 1.391 . S
C761 H749 0.950 . S
C761 C757 1.393 . S
C761 C760 1.391 . S
C762 H752 0.950 . S
C762 C763 1.386 . S
C762 C764 1.391 . S
C763 C762 1.386 . S
C763 C767 1.393 . S
C764 H753 0.950 . S
C764 C762 1.391 . S
C764 C765 1.400 . S
C765 C759 1.491 . S
C765 C764 1.400 . S
C765 C766 1.398 . S
C766 H754 0.950 . S
C766 C765 1.398 . S
C766 C767 1.391 . S
C767 H755 0.950 . S
C767 C763 1.393 . S
C767 C766 1.391 . S
H768 C776 0.950 . S
H769 C781 0.950 1_556 S
H770 C778 0.950 . S
H771 C780 0.950 . S
H772 C782 0.950 . S
H773 C784 0.950 . S
H774 C786 0.950 . S
H775 C787 0.950 . S
C776 H768 0.950 . S
C776 C777 1.386 . S
C776 C778 1.391 . S
C777 C776 1.386 . S
C777 C781 1.393 . S
C778 H770 0.950 . S
C778 C776 1.391 . S
C778 C779 1.400 . S
C779 C778 1.400 . S
C779 C780 1.398 . S
C779 C785 1.491 . S
C780 H771 0.950 . S
C780 C779 1.398 . S
C780 C781 1.391 . S
C781 H769 0.950 1_554 S
C781 C777 1.393 . S
C781 C780 1.391 . S
C782 H772 0.950 . S
C782 C783 1.386 . S
C782 C784 1.391 . S
C783 C782 1.386 . S
C783 C787 1.393 . S
C784 H773 0.950 . S
C784 C782 1.391 . S
C784 C785 1.400 . S
C785 C779 1.491 . S
C785 C784 1.400 . S
C785 C786 1.398 . S
C786 H774 0.950 . S
C786 C785 1.398 . S
C786 C787 1.391 . S
C787 H775 0.950 . S
C787 C783 1.393 . S
C787 C786 1.391 . S
H788 C796 0.950 . S
H789 C801 0.950 . S
H790 C798 0.950 . S
H791 C800 0.950 . S
H792 C802 0.950 . S
H793 C804 0.950 . S
H794 C806 0.950 . S
H795 C807 0.950 . S
C796 H788 0.950 . S
C796 C797 1.386 . S
C796 C798 1.391 . S
C797 C796 1.386 . S
C797 C801 1.393 . S
C798 H790 0.950 . S
C798 C796 1.391 . S
C798 C799 1.400 . S
C799 C798 1.400 . S
C799 C800 1.398 . S
C799 C805 1.491 . S
C800 H791 0.950 . S
C800 C799 1.398 . S
C800 C801 1.391 . S
C801 H789 0.950 . S
C801 C797 1.393 . S
C801 C800 1.391 . S
C802 H792 0.950 . S
C802 C803 1.386 . S
C802 C804 1.391 . S
C803 C802 1.386 . S
C803 C807 1.393 . S
C804 H793 0.950 . S
C804 C802 1.391 . S
C804 C805 1.400 . S
C805 C799 1.491 . S
C805 C804 1.400 . S
C805 C806 1.398 . S
C806 H794 0.950 . S
C806 C805 1.398 . S
C806 C807 1.391 . S
C807 H795 0.950 . S
C807 C803 1.393 . S
C807 C806 1.391 . S
H808 C816 0.950 . S
H809 C821 0.950 . S
H810 C818 0.950 . S
H811 C820 0.950 . S
H812 C822 0.950 . S
H813 C824 0.950 . S
H814 C826 0.950 . S
H815 C827 0.950 . S
C816 H808 0.950 . S
C816 C817 1.386 . S
C816 C818 1.391 . S
C817 C816 1.386 . S
C817 C821 1.393 . S
C818 H810 0.950 . S
C818 C816 1.391 . S
C818 C819 1.400 . S
C819 C818 1.400 . S
C819 C820 1.398 . S
C819 C825 1.491 . S
C820 H811 0.950 . S
C820 C819 1.398 . S
C820 C821 1.391 . S
C821 H809 0.950 . S
C821 C817 1.393 . S
C821 C820 1.391 . S
C822 H812 0.950 . S
C822 C823 1.386 . S
C822 C824 1.391 . S
C823 C822 1.386 . S
C823 C827 1.393 . S
C824 H813 0.950 . S
C824 C822 1.391 . S
C824 C825 1.400 . S
C825 C819 1.491 . S
C825 C824 1.400 . S
C825 C826 1.398 . S
C826 H814 0.950 . S
C826 C825 1.398 . S
C826 C827 1.391 . S
C827 H815 0.950 . S
C827 C823 1.393 . S
C827 C826 1.391 . S
H828 C836 0.950 . S
H829 C841 0.950 . S
H830 C838 0.950 . S
H831 C840 0.950 . S
H832 C842 0.950 . S
H833 C844 0.950 . S
H834 C846 0.950 . S
H835 C847 0.950 . S
C836 H828 0.950 . S
C836 C837 1.386 . S
C836 C838 1.391 . S
C837 C836 1.386 . S
C837 C841 1.393 . S
C838 H830 0.950 . S
C838 C836 1.391 . S
C838 C839 1.400 . S
C839 C838 1.400 . S
C839 C840 1.398 . S
C839 C845 1.491 . S
C840 H831 0.950 . S
C840 C839 1.398 . S
C840 C841 1.391 . S
C841 H829 0.950 . S
C841 C837 1.393 . S
C841 C840 1.391 . S
C842 H832 0.950 . S
C842 C843 1.386 1_554 S
C842 C844 1.391 1_554 S
C843 C842 1.386 1_556 S
C843 C847 1.393 . S
C844 H833 0.950 . S
C844 C842 1.391 1_556 S
C844 C845 1.400 . S
C845 C839 1.491 . S
C845 C844 1.400 . S
C845 C846 1.398 . S
C846 H834 0.950 . S
C846 C845 1.398 . S
C846 C847 1.391 . S
C847 H835 0.950 . S
C847 C843 1.393 . S
C847 C846 1.391 . S
H848 C856 0.960 . S
H849 C861 0.950 . S
H850 C858 0.950 . S
H851 C860 0.950 . S
H852 C862 0.950 . S
H853 C864 0.950 . S
H854 C866 0.950 . S
H855 C867 0.950 . S
C856 H848 0.960 . S
C856 C857 1.382 1_554 S
C856 C858 1.384 1_554 S
C857 C856 1.382 1_556 S
C857 C861 1.393 . S
C858 H850 0.950 . S
C858 C856 1.384 1_556 S
C858 C859 1.400 . S
C859 C858 1.400 . S
C859 C860 1.398 . S
C859 C865 1.491 . S
C860 H851 0.950 . S
C860 C859 1.398 . S
C860 C861 1.391 . S
C861 H849 0.950 . S
C861 C857 1.393 . S
C861 C860 1.391 . S
C862 H852 0.950 . S
C862 C863 1.386 . S
C862 C864 1.391 . S
C863 C862 1.386 . S
C863 C867 1.393 . S
C864 H853 0.950 . S
C864 C862 1.391 . S
C864 C865 1.400 . S
C865 C859 1.491 . S
C865 C864 1.400 . S
C865 C866 1.398 . S
C866 H854 0.950 . S
C866 C865 1.398 . S
C866 C867 1.391 . S
C867 H855 0.950 . S
C867 C863 1.393 . S
C867 C866 1.391 . S
H868 C876 0.950 . S
H869 C881 0.950 . S
H870 C878 0.950 . S
H871 C880 0.950 . S
H872 C882 0.950 . S
H873 C884 0.950 . S
H874 C886 0.950 . S
H875 C887 0.950 . S
C876 H868 0.950 . S
C876 C877 1.386 . S
C876 C878 1.391 . S
C877 C876 1.386 . S
C877 C881 1.393 . S
C878 H870 0.950 . S
C878 C876 1.391 . S
C878 C879 1.400 . S
C879 C878 1.400 . S
C879 C880 1.398 . S
C879 C885 1.491 . S
C880 H871 0.950 . S
C880 C879 1.398 . S
C880 C881 1.391 . S
C881 H869 0.950 . S
C881 C877 1.393 . S
C881 C880 1.391 . S
C882 H872 0.950 . S
C882 C883 1.386 . S
C882 C884 1.391 . S
C883 C882 1.386 . S
C883 C887 1.393 . S
C884 H873 0.950 . S
C884 C882 1.391 . S
C884 C885 1.400 . S
C885 C879 1.491 . S
C885 C884 1.400 . S
C885 C886 1.398 . S
C886 H874 0.950 . S
C886 C885 1.398 . S
C886 C887 1.391 . S
C887 H875 0.950 . S
C887 C883 1.393 . S
C887 C886 1.391 . S
H888 C896 0.950 . S
H889 C901 0.950 . S
H890 C898 0.950 . S
H891 C900 0.950 . S
H892 C902 0.950 . S
H893 C904 0.950 . S
H894 C906 0.950 . S
H895 C907 0.950 . S
C896 H888 0.950 . S
C896 C897 1.386 . S
C896 C898 1.391 . S
C897 C896 1.386 . S
C897 C901 1.393 . S
C898 H890 0.950 . S
C898 C896 1.391 . S
C898 C899 1.400 . S
C899 C898 1.400 . S
C899 C900 1.398 . S
C899 C905 1.491 . S
C900 H891 0.950 . S
C900 C899 1.398 . S
C900 C901 1.391 . S
C901 H889 0.950 . S
C901 C897 1.393 . S
C901 C900 1.391 . S
C902 H892 0.950 . S
C902 C903 1.386 . S
C902 C904 1.391 . S
C903 C902 1.386 . S
C903 C907 1.393 . S
C904 H893 0.950 . S
C904 C902 1.391 . S
C904 C905 1.400 . S
C905 C899 1.491 . S
C905 C904 1.400 . S
C905 C906 1.398 . S
C906 H894 0.950 . S
C906 C905 1.398 . S
C906 C907 1.391 . S
C907 H895 0.950 . S
C907 C903 1.393 . S
C907 C906 1.391 . S
H908 C916 0.950 1_556 S
H909 C921 0.950 . S
H910 C918 0.950 . S
H911 C920 0.950 . S
H912 C922 0.950 . S
H913 C924 0.950 . S
H914 C926 0.950 . S
H915 C927 0.950 . S
C916 H908 0.950 1_554 S
C916 C917 1.386 . S
C916 C918 1.391 . S
C917 C916 1.386 . S
C917 C921 1.393 . S
C918 H910 0.950 . S
C918 C916 1.391 . S
C918 C919 1.400 . S
C919 C918 1.400 . S
C919 C920 1.398 . S
C919 C925 1.491 . S
C920 H911 0.950 . S
C920 C919 1.398 . S
C920 C921 1.391 . S
C921 H909 0.950 . S
C921 C917 1.393 . S
C921 C920 1.391 . S
C922 H912 0.950 . S
C922 C923 1.386 . S
C922 C924 1.391 . S
C923 C922 1.386 . S
C923 C927 1.393 . S
C924 H913 0.950 . S
C924 C922 1.391 . S
C924 C925 1.400 . S
C925 C919 1.491 . S
C925 C924 1.400 . S
C925 C926 1.398 . S
C926 H914 0.950 . S
C926 C925 1.398 . S
C926 C927 1.391 . S
C927 H915 0.950 . S
C927 C923 1.393 . S
C927 C926 1.391 . S
H928 C936 0.950 . S
H929 C941 0.950 . S
H930 C938 0.950 . S
H931 C940 0.950 . S
H932 C942 0.950 . S
H933 C944 0.950 . S
H934 C946 0.950 . S
H935 C947 0.950 . S
C936 H928 0.950 . S
C936 C937 1.386 . S
C936 C938 1.391 . S
C937 C936 1.386 . S
C937 C941 1.393 . S
C938 H930 0.950 . S
C938 C936 1.391 . S
C938 C939 1.400 . S
C939 C938 1.400 . S
C939 C940 1.398 . S
C939 C945 1.491 . S
C940 H931 0.950 . S
C940 C939 1.398 . S
C940 C941 1.391 . S
C941 H929 0.950 . S
C941 C937 1.393 . S
C941 C940 1.391 . S
C942 H932 0.950 . S
C942 C943 1.386 . S
C942 C944 1.391 . S
C943 C942 1.386 . S
C943 C947 1.393 . S
C944 H933 0.950 . S
C944 C942 1.391 . S
C944 C945 1.400 . S
C945 C939 1.491 . S
C945 C944 1.400 . S
C945 C946 1.398 . S
C946 H934 0.950 . S
C946 C945 1.398 . S
C946 C947 1.391 . S
C947 H935 0.950 . S
C947 C943 1.393 . S
C947 C946 1.391 . S
H948 C956 0.950 . S
H949 C961 0.950 . S
H950 C958 0.950 . S
H951 C960 0.950 . S
H952 C962 0.950 . S
H953 C964 0.950 . S
H954 C966 0.950 . S
H955 C967 0.950 . S
C956 H948 0.950 . S
C956 C957 1.386 . S
C956 C958 1.391 . S
C957 C956 1.386 . S
C957 C961 1.393 1_556 S
C958 H950 0.950 . S
C958 C956 1.391 . S
C958 C959 1.400 . S
C959 C958 1.400 . S
C959 C960 1.398 . S
C959 C965 1.491 . S
C960 H951 0.950 . S
C960 C959 1.398 . S
C960 C961 1.391 1_556 S
C961 H949 0.950 . S
C961 C957 1.393 1_554 S
C961 C960 1.391 1_554 S
C962 H952 0.950 . S
C962 C963 1.386 . S
C962 C964 1.391 . S
C963 C962 1.386 . S
C963 C967 1.393 . S
C964 H953 0.950 . S
C964 C962 1.391 . S
C964 C965 1.400 . S
C965 C959 1.491 . S
C965 C964 1.400 . S
C965 C966 1.398 . S
C966 H954 0.950 . S
C966 C965 1.398 . S
C966 C967 1.391 . S
C967 H955 0.950 . S
C967 C963 1.393 . S
C967 C966 1.391 . S
H968 C976 0.950 . S
H969 C981 0.950 . S
H970 C978 0.950 . S
H971 C980 0.950 . S
H972 C982 0.950 . S
H973 C984 0.950 . S
H974 C986 0.950 . S
H975 C987 0.950 . S
C976 H968 0.950 . S
C976 C977 1.386 . S
C976 C978 1.391 . S
C977 C976 1.386 . S
C977 C981 1.393 . S
C978 H970 0.950 . S
C978 C976 1.391 . S
C978 C979 1.400 . S
C979 C978 1.400 . S
C979 C980 1.398 . S
C979 C985 1.491 . S
C980 H971 0.950 . S
C980 C979 1.398 . S
C980 C981 1.391 . S
C981 H969 0.950 . S
C981 C977 1.393 . S
C981 C980 1.391 . S
C982 H972 0.950 . S
C982 C983 1.386 . S
C982 C984 1.391 . S
C983 C982 1.386 . S
C983 C987 1.393 . S
C984 H973 0.950 . S
C984 C982 1.391 . S
C984 C985 1.400 . S
C985 C979 1.491 . S
C985 C984 1.400 . S
C985 C986 1.398 . S
C986 H974 0.950 . S
C986 C985 1.398 . S
C986 C987 1.391 . S
C987 H975 0.950 . S
C987 C983 1.393 . S
C987 C986 1.391 . S
H988 C996 0.950 . S
H989 C1001 0.950 . S
H990 C998 0.950 . S
H991 C1000 0.950 . S
H992 C1002 0.950 . S
H993 C1004 0.950 . S
H994 C1006 0.950 . S
H995 C1007 0.950 . S
C996 H988 0.950 . S
C996 C997 1.386 . S
C996 C998 1.391 . S
C997 C996 1.386 . S
C997 C1001 1.393 . S
C998 H990 0.950 . S
C998 C996 1.391 . S
C998 C999 1.400 . S
C999 C998 1.400 . S
C999 C1000 1.398 . S
C999 C1005 1.491 . S
C1000 H991 0.950 . S
C1000 C999 1.398 . S
C1000 C1001 1.391 . S
C1001 H989 0.950 . S
C1001 C997 1.393 . S
C1001 C1000 1.391 . S
C1002 H992 0.950 . S
C1002 C1003 1.386 . S
C1002 C1004 1.391 . S
C1003 C1002 1.386 . S
C1003 C1007 1.393 . S
C1004 H993 0.950 . S
C1004 C1002 1.391 . S
C1004 C1005 1.400 . S
C1005 C999 1.491 . S
C1005 C1004 1.400 . S
C1005 C1006 1.398 . S
C1006 H994 0.950 . S
C1006 C1005 1.398 . S
C1006 C1007 1.391 . S
C1007 H995 0.950 . S
C1007 C1003 1.393 . S
C1007 C1006 1.391 . S
H1008 C1016 0.950 . S
H1009 C1021 0.950 . S
H1010 C1018 0.950 . S
H1011 C1020 0.950 . S
H1012 C1022 0.950 . S
H1013 C1024 0.950 . S
H1014 C1026 0.950 . S
H1015 C1027 0.950 . S
C1016 H1008 0.950 . S
C1016 C1017 1.386 . S
C1016 C1018 1.391 . S
C1017 C1016 1.386 . S
C1017 C1021 1.393 . S
C1018 H1010 0.950 . S
C1018 C1016 1.391 . S
C1018 C1019 1.400 . S
C1019 C1018 1.400 . S
C1019 C1020 1.398 . S
C1019 C1025 1.491 . S
C1020 H1011 0.950 . S
C1020 C1019 1.398 . S
C1020 C1021 1.391 . S
C1021 H1009 0.950 . S
C1021 C1017 1.393 . S
C1021 C1020 1.391 . S
C1022 H1012 0.950 . S
C1022 C1023 1.386 . S
C1022 C1024 1.391 . S
C1023 C1022 1.386 . S
C1023 C1027 1.393 . S
C1024 H1013 0.950 . S
C1024 C1022 1.391 . S
C1024 C1025 1.400 . S
C1025 C1019 1.491 . S
C1025 C1024 1.400 . S
C1025 C1026 1.398 . S
C1026 H1014 0.950 . S
C1026 C1025 1.398 . S
C1026 C1027 1.391 . S
C1027 H1015 0.950 . S
C1027 C1023 1.393 . S
C1027 C1026 1.391 . S
H1028 C1036 0.950 . S
H1029 C1041 0.950 . S
H1030 C1038 0.950 . S
H1031 C1040 0.950 . S
H1032 C1042 0.950 . S
H1033 C1044 0.950 . S
H1034 C1046 0.950 . S
H1035 C1047 0.950 . S
C1036 H1028 0.950 . S
C1036 C1037 1.386 . S
C1036 C1038 1.391 . S
C1037 C1036 1.386 . S
C1037 C1041 1.393 1_554 S
C1038 H1030 0.950 . S
C1038 C1036 1.391 . S
C1038 C1039 1.400 . S
C1039 C1038 1.400 . S
C1039 C1040 1.398 . S
C1039 C1045 1.491 . S
C1040 H1031 0.950 . S
C1040 C1039 1.398 . S
C1040 C1041 1.391 1_554 S
C1041 H1029 0.950 . S
C1041 C1037 1.393 1_556 S
C1041 C1040 1.391 1_556 S
C1042 H1032 0.950 . S
C1042 C1043 1.386 . S
C1042 C1044 1.391 . S
C1043 C1042 1.386 . S
C1043 C1047 1.393 . S
C1044 H1033 0.950 . S
C1044 C1042 1.391 . S
C1044 C1045 1.400 . S
C1045 C1039 1.491 . S
C1045 C1044 1.400 . S
C1045 C1046 1.398 . S
C1046 H1034 0.950 . S
C1046 C1045 1.398 . S
C1046 C1047 1.391 . S
C1047 H1035 0.950 . S
C1047 C1043 1.393 . S
C1047 C1046 1.391 . S
H1048 C1056 0.950 . S
H1049 C1061 0.950 . S
H1050 C1058 0.950 . S
H1051 C1060 0.950 . S
H1052 C1062 0.950 . S
H1053 C1064 0.950 . S
H1054 C1066 0.950 . S
H1055 C1067 0.950 . S
C1056 H1048 0.950 . S
C1056 C1057 1.386 . S
C1056 C1058 1.391 . S
C1057 C1056 1.386 . S
C1057 C1061 1.393 . S
C1058 H1050 0.950 . S
C1058 C1056 1.391 . S
C1058 C1059 1.400 . S
C1059 C1058 1.400 . S
C1059 C1060 1.398 . S
C1059 C1065 1.491 . S
C1060 H1051 0.950 . S
C1060 C1059 1.398 . S
C1060 C1061 1.391 . S
C1061 H1049 0.950 . S
C1061 C1057 1.393 . S
C1061 C1060 1.391 . S
C1062 H1052 0.950 . S
C1062 C1063 1.386 . S
C1062 C1064 1.391 . S
C1063 C1062 1.386 . S
C1063 C1067 1.393 . S
C1064 H1053 0.950 . S
C1064 C1062 1.391 . S
C1064 C1065 1.400 . S
C1065 C1059 1.491 . S
C1065 C1064 1.400 . S
C1065 C1066 1.398 . S
C1066 H1054 0.950 . S
C1066 C1065 1.398 . S
C1066 C1067 1.391 . S
C1067 H1055 0.950 . S
C1067 C1063 1.393 . S
C1067 C1066 1.391 . S
H1068 C1076 0.950 . S
H1069 C1081 0.950 . S
H1070 C1078 0.950 . S
H1071 C1080 0.950 . S
H1072 C1082 0.950 . S
H1073 C1084 0.950 . S
H1074 C1086 0.950 . S
H1075 C1087 0.950 . S
C1076 H1068 0.950 . S
C1076 C1077 1.386 . S
C1076 C1078 1.391 . S
C1077 C1076 1.386 . S
C1077 C1081 1.393 . S
C1078 H1070 0.950 . S
C1078 C1076 1.391 . S
C1078 C1079 1.400 . S
C1079 C1078 1.400 . S
C1079 C1080 1.398 . S
C1079 C1085 1.491 . S
C1080 H1071 0.950 . S
C1080 C1079 1.398 . S
C1080 C1081 1.391 . S
C1081 H1069 0.950 . S
C1081 C1077 1.393 . S
C1081 C1080 1.391 . S
C1082 H1072 0.950 . S
C1082 C1083 1.386 . S
C1082 C1084 1.391 . S
C1083 C1082 1.386 . S
C1083 C1087 1.393 . S
C1084 H1073 0.950 . S
C1084 C1082 1.391 . S
C1084 C1085 1.400 . S
C1085 C1079 1.491 . S
C1085 C1084 1.400 . S
C1085 C1086 1.398 . S
C1086 H1074 0.950 . S
C1086 C1085 1.398 . S
C1086 C1087 1.391 . S
C1087 H1075 0.950 . S
C1087 C1083 1.393 . S
C1087 C1086 1.391 . S
H1088 C1096 0.950 . S
H1089 C1101 0.950 . S
H1090 C1098 0.950 . S
H1091 C1100 0.950 . S
H1092 C1102 0.950 . S
H1093 C1104 0.950 . S
H1094 C1106 0.950 . S
H1095 C1107 0.950 . S
C1096 H1088 0.950 . S
C1096 C1097 1.386 . S
C1096 C1098 1.391 . S
C1097 C1096 1.386 . S
C1097 C1101 1.393 . S
C1098 H1090 0.950 . S
C1098 C1096 1.391 . S
C1098 C1099 1.400 . S
C1099 C1098 1.400 . S
C1099 C1100 1.398 . S
C1099 C1105 1.491 . S
C1100 H1091 0.950 . S
C1100 C1099 1.398 . S
C1100 C1101 1.391 . S
C1101 H1089 0.950 . S
C1101 C1097 1.393 . S
C1101 C1100 1.391 . S
C1102 H1092 0.950 . S
C1102 C1103 1.386 . S
C1102 C1104 1.391 . S
C1103 C1102 1.386 . S
C1103 C1107 1.393 1_556 S
C1104 H1093 0.950 . S
C1104 C1102 1.391 . S
C1104 C1105 1.400 1_556 S
C1105 C1099 1.491 . S
C1105 C1104 1.400 1_554 S
C1105 C1106 1.398 . S
C1106 H1094 0.950 . S
C1106 C1105 1.398 . S
C1106 C1107 1.391 . S
C1107 H1095 0.950 . S
C1107 C1103 1.393 1_554 S
C1107 C1106 1.391 . S
H1108 C1116 0.950 . S
H1109 C1121 0.950 . S
H1110 C1118 0.950 . S
H1111 C1120 0.950 1_455 S
H1112 C1122 0.950 . S
H1113 C1124 0.950 . S
H1114 C1126 0.950 1_655 S
H1115 C1127 0.950 . S
C1116 H1108 0.950 . S
C1116 C1117 1.386 . S
C1116 C1118 1.391 . S
C1117 C1116 1.386 . S
C1117 C1121 1.393 . S
C1118 H1110 0.950 . S
C1118 C1116 1.391 . S
C1118 C1119 1.400 . S
C1119 C1118 1.400 . S
C1119 C1120 1.398 . S
C1119 C1125 1.491 1_655 S
C1120 H1111 0.950 1_655 S
C1120 C1119 1.398 . S
C1120 C1121 1.391 . S
C1121 H1109 0.950 . S
C1121 C1117 1.393 . S
C1121 C1120 1.391 . S
C1122 H1112 0.950 . S
C1122 C1123 1.386 . S
C1122 C1124 1.391 . S
C1123 C1122 1.386 . S
C1123 C1127 1.393 . S
C1124 H1113 0.950 . S
C1124 C1122 1.391 . S
C1124 C1125 1.400 . S
C1125 C1119 1.491 1_455 S
C1125 C1124 1.400 . S
C1125 C1126 1.398 . S
C1126 H1114 0.950 1_455 S
C1126 C1125 1.398 . S
C1126 C1127 1.391 . S
C1127 H1115 0.950 . S
C1127 C1123 1.393 . S
C1127 C1126 1.391 . S
H1128 C1136 0.950 . S
H1129 C1141 0.950 . S
H1130 C1138 0.950 . S
H1131 C1140 0.950 . S
H1132 C1142 0.950 . S
H1133 C1144 0.950 . S
H1134 C1146 0.950 . S
H1135 C1147 0.950 . S
C1136 H1128 0.950 . S
C1136 C1137 1.386 . S
C1136 C1138 1.391 . S
C1137 C1136 1.386 . S
C1137 C1141 1.393 . S
C1138 H1130 0.950 . S
C1138 C1136 1.391 . S
C1138 C1139 1.400 . S
C1139 C1138 1.400 . S
C1139 C1140 1.398 . S
C1139 C1145 1.491 . S
C1140 H1131 0.950 . S
C1140 C1139 1.398 . S
C1140 C1141 1.391 . S
C1141 H1129 0.950 . S
C1141 C1137 1.393 . S
C1141 C1140 1.391 . S
C1142 H1132 0.950 . S
C1142 C1143 1.386 . S
C1142 C1144 1.391 . S
C1143 C1142 1.386 . S
C1143 C1147 1.393 . S
C1144 H1133 0.950 . S
C1144 C1142 1.391 . S
C1144 C1145 1.400 . S
C1145 C1139 1.491 . S
C1145 C1144 1.400 . S
C1145 C1146 1.398 . S
C1146 H1134 0.950 . S
C1146 C1145 1.398 . S
C1146 C1147 1.391 . S
C1147 H1135 0.950 . S
C1147 C1143 1.393 . S
C1147 C1146 1.391 . S
H1148 C1156 0.950 . S
H1149 C1161 0.950 . S
H1150 C1158 0.950 . S
H1151 C1160 0.950 . S
H1152 C1162 0.950 . S
H1153 C1164 0.950 . S
H1154 C1166 0.950 . S
H1155 C1167 0.950 . S
C1156 H1148 0.950 . S
C1156 C1157 1.386 . S
C1156 C1158 1.391 . S
C1157 C1156 1.386 . S
C1157 C1161 1.393 . S
C1158 H1150 0.950 . S
C1158 C1156 1.391 . S
C1158 C1159 1.400 . S
C1159 C1158 1.400 . S
C1159 C1160 1.398 . S
C1159 C1165 1.491 . S
C1160 H1151 0.950 . S
C1160 C1159 1.398 . S
C1160 C1161 1.391 . S
C1161 H1149 0.950 . S
C1161 C1157 1.393 . S
C1161 C1160 1.391 . S
C1162 H1152 0.950 . S
C1162 C1163 1.386 . S
C1162 C1164 1.391 . S
C1163 C1162 1.386 . S
C1163 C1167 1.393 . S
C1164 H1153 0.950 . S
C1164 C1162 1.391 . S
C1164 C1165 1.400 . S
C1165 C1159 1.491 . S
C1165 C1164 1.400 . S
C1165 C1166 1.398 . S
C1166 H1154 0.950 . S
C1166 C1165 1.398 . S
C1166 C1167 1.391 . S
C1167 H1155 0.950 . S
C1167 C1163 1.393 . S
C1167 C1166 1.391 . S
H1168 C1176 0.950 . S
H1169 C1181 0.950 . S
H1170 C1178 0.950 . S
H1171 C1180 0.950 . S
H1172 C1182 0.950 . S
H1173 C1184 0.950 . S
H1174 C1186 0.950 . S
H1175 C1187 0.950 . S
C1176 H1168 0.950 . S
C1176 C1177 1.386 . S
C1176 C1178 1.391 . S
C1177 C1176 1.386 . S
C1177 C1181 1.393 . S
C1178 H1170 0.950 . S
C1178 C1176 1.391 . S
C1178 C1179 1.400 . S
C1179 C1178 1.400 . S
C1179 C1180 1.398 . S
C1179 C1185 1.491 . S
C1180 H1171 0.950 . S
C1180 C1179 1.398 . S
C1180 C1181 1.391 . S
C1181 H1169 0.950 . S
C1181 C1177 1.393 . S
C1181 C1180 1.391 . S
C1182 H1172 0.950 . S
C1182 C1183 1.386 . S
C1182 C1184 1.391 . S
C1183 C1182 1.386 . S
C1183 C1187 1.393 . S
C1184 H1173 0.950 . S
C1184 C1182 1.391 . S
C1184 C1185 1.400 . S
C1185 C1179 1.491 . S
C1185 C1184 1.400 . S
C1185 C1186 1.398 . S
C1186 H1174 0.950 . S
C1186 C1185 1.398 . S
C1186 C1187 1.391 . S
C1187 H1175 0.950 . S
C1187 C1183 1.393 . S
C1187 C1186 1.391 . S
H1188 C1196 0.950 . S
H1189 C1201 0.950 . S
H1190 C1198 0.950 . S
H1191 C1200 0.950 . S
H1192 C1202 0.950 . S
H1193 C1204 0.950 . S
H1194 C1206 0.950 . S
H1195 C1207 0.950 . S
C1196 H1188 0.950 . S
C1196 C1197 1.386 . S
C1196 C1198 1.391 . S
C1197 C1196 1.386 . S
C1197 C1201 1.393 . S
C1198 H1190 0.950 . S
C1198 C1196 1.391 . S
C1198 C1199 1.400 . S
C1199 C1198 1.400 . S
C1199 C1200 1.398 . S
C1199 C1205 1.491 . S
C1200 H1191 0.950 . S
C1200 C1199 1.398 . S
C1200 C1201 1.391 . S
C1201 H1189 0.950 . S
C1201 C1197 1.393 . S
C1201 C1200 1.391 . S
C1202 H1192 0.950 . S
C1202 C1203 1.386 . S
C1202 C1204 1.391 . S
C1203 C1202 1.386 . S
C1203 C1207 1.393 . S
C1204 H1193 0.950 . S
C1204 C1202 1.391 . S
C1204 C1205 1.400 . S
C1205 C1199 1.491 . S
C1205 C1204 1.400 . S
C1205 C1206 1.398 . S
C1206 H1194 0.950 . S
C1206 C1205 1.398 . S
C1206 C1207 1.391 . S
C1207 H1195 0.950 . S
C1207 C1203 1.393 . S
C1207 C1206 1.391 . S
H1208 C1216 0.950 . S
H1209 C1221 0.950 . S
H1210 C1218 0.950 . S
H1211 C1220 0.950 . S
H1212 C1222 0.950 . S
H1213 C1224 0.950 . S
H1214 C1226 0.950 . S
H1215 C1227 0.950 . S
C1216 H1208 0.950 . S
C1216 C1217 1.386 . S
C1216 C1218 1.391 . S
C1217 C1216 1.386 . S
C1217 C1221 1.393 . S
C1218 H1210 0.950 . S
C1218 C1216 1.391 . S
C1218 C1219 1.400 . S
C1219 C1218 1.400 . S
C1219 C1220 1.398 . S
C1219 C1225 1.491 . S
C1220 H1211 0.950 . S
C1220 C1219 1.398 . S
C1220 C1221 1.391 . S
C1221 H1209 0.950 . S
C1221 C1217 1.393 . S
C1221 C1220 1.391 . S
C1222 H1212 0.950 . S
C1222 C1223 1.386 . S
C1222 C1224 1.391 . S
C1223 C1222 1.386 . S
C1223 C1227 1.393 1_554 S
C1224 H1213 0.950 . S
C1224 C1222 1.391 . S
C1224 C1225 1.400 1_554 S
C1225 C1219 1.491 . S
C1225 C1224 1.400 1_556 S
C1225 C1226 1.398 . S
C1226 H1214 0.950 . S
C1226 C1225 1.398 . S
C1226 C1227 1.391 . S
C1227 H1215 0.950 . S
C1227 C1223 1.393 1_556 S
C1227 C1226 1.391 . S
H1228 C1236 0.950 . S
H1229 C1241 0.950 . S
H1230 C1238 0.950 . S
H1231 C1240 0.950 . S
H1232 C1242 0.950 . S
H1233 C1244 0.950 . S
H1234 C1246 0.950 . S
H1235 C1247 0.950 . S
C1236 H1228 0.950 . S
C1236 C1237 1.386 . S
C1236 C1238 1.391 . S
C1237 C1236 1.386 . S
C1237 C1241 1.393 . S
C1238 H1230 0.950 . S
C1238 C1236 1.391 . S
C1238 C1239 1.400 . S
C1239 C1238 1.400 . S
C1239 C1240 1.398 . S
C1239 C1245 1.491 1_455 S
C1240 H1231 0.950 . S
C1240 C1239 1.398 . S
C1240 C1241 1.391 . S
C1241 H1229 0.950 . S
C1241 C1237 1.393 . S
C1241 C1240 1.391 . S
C1242 H1232 0.950 . S
C1242 C1243 1.386 . S
C1242 C1244 1.391 . S
C1243 C1242 1.386 . S
C1243 C1247 1.393 . S
C1244 H1233 0.950 . S
C1244 C1242 1.391 . S
C1244 C1245 1.400 . S
C1245 C1239 1.491 1_655 S
C1245 C1244 1.400 . S
C1245 C1246 1.398 . S
C1246 H1234 0.950 . S
C1246 C1245 1.398 . S
C1246 C1247 1.391 . S
C1247 H1235 0.950 . S
C1247 C1243 1.393 . S
C1247 C1246 1.391 . S
H1248 C1256 0.950 . S
H1249 C1261 0.950 . S
H1250 C1258 0.950 . S
H1251 C1260 0.950 . S
H1252 C1262 0.950 . S
H1253 C1264 0.950 . S
H1254 C1266 0.950 . S
H1255 C1267 0.950 . S
C1256 H1248 0.950 . S
C1256 C1257 1.386 . S
C1256 C1258 1.391 . S
C1257 C1256 1.386 . S
C1257 C1261 1.393 . S
C1258 H1250 0.950 . S
C1258 C1256 1.391 . S
C1258 C1259 1.400 . S
C1259 C1258 1.400 . S
C1259 C1260 1.398 . S
C1259 C1265 1.491 . S
C1260 H1251 0.950 . S
C1260 C1259 1.398 . S
C1260 C1261 1.391 . S
C1261 H1249 0.950 . S
C1261 C1257 1.393 . S
C1261 C1260 1.391 . S
C1262 H1252 0.950 . S
C1262 C1263 1.386 . S
C1262 C1264 1.391 . S
C1263 C1262 1.386 . S
C1263 C1267 1.393 1_554 S
C1264 H1253 0.950 . S
C1264 C1262 1.391 . S
C1264 C1265 1.400 1_554 S
C1265 C1259 1.491 . S
C1265 C1264 1.400 1_556 S
C1265 C1266 1.398 . S
C1266 H1254 0.950 . S
C1266 C1265 1.398 . S
C1266 C1267 1.391 . S
C1267 H1255 0.950 . S
C1267 C1263 1.393 1_556 S
C1267 C1266 1.391 . S
H1268 C1276 0.950 . S
H1269 C1281 0.950 . S
H1270 C1278 0.950 1_655 S
H1271 C1280 0.950 . S
H1272 C1282 0.950 . S
H1273 C1284 0.950 1_455 S
H1274 C1286 0.950 . S
H1275 C1287 0.950 . S
C1276 H1268 0.950 . S
C1276 C1277 1.386 . S
C1276 C1278 1.391 . S
C1277 C1276 1.386 . S
C1277 C1281 1.393 . S
C1278 H1270 0.950 1_455 S
C1278 C1276 1.391 . S
C1278 C1279 1.400 . S
C1279 C1278 1.400 . S
C1279 C1280 1.398 . S
C1279 C1285 1.491 1_455 S
C1280 H1271 0.950 . S
C1280 C1279 1.398 . S
C1280 C1281 1.391 . S
C1281 H1269 0.950 . S
C1281 C1277 1.393 . S
C1281 C1280 1.391 . S
C1282 H1272 0.950 . S
C1282 C1283 1.386 . S
C1282 C1284 1.391 . S
C1283 C1282 1.386 . S
C1283 C1287 1.393 . S
C1284 H1273 0.950 1_655 S
C1284 C1282 1.391 . S
C1284 C1285 1.400 . S
C1285 C1279 1.491 1_655 S
C1285 C1284 1.400 . S
C1285 C1286 1.398 . S
C1286 H1274 0.950 . S
C1286 C1285 1.398 . S
C1286 C1287 1.391 . S
C1287 H1275 0.950 . S
C1287 C1283 1.393 . S
C1287 C1286 1.391 . S
H1288 C1296 0.950 . S
H1289 C1301 0.950 . S
H1290 C1298 0.950 . S
H1291 C1300 0.950 . S
H1292 C1302 0.950 . S
H1293 C1304 0.950 . S
H1294 C1306 0.950 . S
H1295 C1307 0.950 . S
C1296 H1288 0.950 . S
C1296 C1297 1.386 . S
C1296 C1298 1.391 . S
C1297 C1296 1.386 . S
C1297 C1301 1.393 . S
C1298 H1290 0.950 . S
C1298 C1296 1.391 . S
C1298 C1299 1.400 . S
C1299 C1298 1.400 . S
C1299 C1300 1.398 . S
C1299 C1305 1.491 . S
C1300 H1291 0.950 . S
C1300 C1299 1.398 . S
C1300 C1301 1.391 . S
C1301 H1289 0.950 . S
C1301 C1297 1.393 . S
C1301 C1300 1.391 . S
C1302 H1292 0.950 . S
C1302 C1303 1.386 . S
C1302 C1304 1.391 . S
C1303 C1302 1.386 . S
C1303 C1307 1.393 . S
C1304 H1293 0.950 . S
C1304 C1302 1.391 . S
C1304 C1305 1.400 . S
C1305 C1299 1.491 . S
C1305 C1304 1.400 . S
C1305 C1306 1.398 . S
C1306 H1294 0.950 . S
C1306 C1305 1.398 . S
C1306 C1307 1.391 . S
C1307 H1295 0.950 . S
C1307 C1303 1.393 . S
C1307 C1306 1.391 . S
H1308 C1316 0.950 . S
H1309 C1321 0.950 . S
H1310 C1318 0.950 . S
H1311 C1320 0.950 . S
H1312 C1322 0.950 . S
H1313 C1324 0.950 . S
H1314 C1326 0.950 . S
H1315 C1327 0.950 . S
C1316 H1308 0.950 . S
C1316 C1317 1.386 . S
C1316 C1318 1.391 . S
C1317 C1316 1.386 . S
C1317 C1321 1.393 . S
C1318 H1310 0.950 . S
C1318 C1316 1.391 . S
C1318 C1319 1.400 . S
C1319 C1318 1.400 . S
C1319 C1320 1.398 . S
C1319 C1325 1.491 . S
C1320 H1311 0.950 . S
C1320 C1319 1.398 . S
C1320 C1321 1.391 . S
C1321 H1309 0.950 . S
C1321 C1317 1.393 . S
C1321 C1320 1.391 . S
C1322 H1312 0.950 . S
C1322 C1323 1.386 . S
C1322 C1324 1.391 . S
C1323 C1322 1.386 . S
C1323 C1327 1.393 . S
C1324 H1313 0.950 . S
C1324 C1322 1.391 . S
C1324 C1325 1.400 . S
C1325 C1319 1.491 . S
C1325 C1324 1.400 . S
C1325 C1326 1.398 . S
C1326 H1314 0.950 . S
C1326 C1325 1.398 . S
C1326 C1327 1.391 . S
C1327 H1315 0.950 . S
C1327 C1323 1.393 . S
C1327 C1326 1.391 . S
H1328 C1336 0.950 . S
H1329 C1341 0.950 . S
H1330 C1338 0.950 . S
H1331 C1340 0.950 . S
H1332 C1342 0.950 . S
H1333 C1344 0.950 . S
H1334 C1346 0.950 . S
H1335 C1347 0.950 . S
C1336 H1328 0.950 . S
C1336 C1337 1.386 . S
C1336 C1338 1.391 . S
C1337 C1336 1.386 . S
C1337 C1341 1.393 . S
C1338 H1330 0.950 . S
C1338 C1336 1.391 . S
C1338 C1339 1.400 . S
C1339 C1338 1.400 . S
C1339 C1340 1.398 . S
C1339 C1345 1.491 . S
C1340 H1331 0.950 . S
C1340 C1339 1.398 . S
C1340 C1341 1.391 . S
C1341 H1329 0.950 . S
C1341 C1337 1.393 . S
C1341 C1340 1.391 . S
C1342 H1332 0.950 . S
C1342 C1343 1.386 . S
C1342 C1344 1.391 . S
C1343 C1342 1.386 . S
C1343 C1347 1.393 . S
C1344 H1333 0.950 . S
C1344 C1342 1.391 . S
C1344 C1345 1.400 . S
C1345 C1339 1.491 . S
C1345 C1344 1.400 . S
C1345 C1346 1.398 . S
C1346 H1334 0.950 . S
C1346 C1345 1.398 . S
C1346 C1347 1.391 . S
C1347 H1335 0.950 . S
C1347 C1343 1.393 . S
C1347 C1346 1.391 . S
H1348 C1356 0.950 . S
H1349 C1361 0.950 . S
H1350 C1358 0.950 . S
H1351 C1360 0.950 . S
H1352 C1362 0.950 . S
H1353 C1364 0.950 . S
H1354 C1366 0.950 . S
H1355 C1367 0.950 . S
C1356 H1348 0.950 . S
C1356 C1357 1.386 . S
C1356 C1358 1.391 . S
C1357 C1356 1.386 . S
C1357 C1361 1.393 . S
C1358 H1350 0.950 . S
C1358 C1356 1.391 . S
C1358 C1359 1.400 . S
C1359 C1358 1.400 . S
C1359 C1360 1.398 . S
C1359 C1365 1.491 . S
C1360 H1351 0.950 . S
C1360 C1359 1.398 . S
C1360 C1361 1.391 . S
C1361 H1349 0.950 . S
C1361 C1357 1.393 . S
C1361 C1360 1.391 . S
C1362 H1352 0.950 . S
C1362 C1363 1.386 . S
C1362 C1364 1.391 . S
C1363 C1362 1.386 . S
C1363 C1367 1.393 . S
C1364 H1353 0.950 . S
C1364 C1362 1.391 . S
C1364 C1365 1.400 . S
C1365 C1359 1.491 . S
C1365 C1364 1.400 . S
C1365 C1366 1.398 . S
C1366 H1354 0.950 . S
C1366 C1365 1.398 . S
C1366 C1367 1.391 . S
C1367 H1355 0.950 . S
C1367 C1363 1.393 . S
C1367 C1366 1.391 . S
H1368 C1376 0.950 . S
H1369 C1381 0.950 . S
H1370 C1378 0.950 . S
H1371 C1380 0.950 . S
H1372 C1382 0.950 . S
H1373 C1384 0.950 . S
H1374 C1386 0.950 . S
H1375 C1387 0.950 . S
C1376 H1368 0.950 . S
C1376 C1377 1.386 . S
C1376 C1378 1.391 . S
C1377 C1376 1.386 . S
C1377 C1381 1.393 . S
C1378 H1370 0.950 . S
C1378 C1376 1.391 . S
C1378 C1379 1.400 . S
C1379 C1378 1.400 . S
C1379 C1380 1.398 . S
C1379 C1385 1.491 . S
C1380 H1371 0.950 . S
C1380 C1379 1.398 . S
C1380 C1381 1.391 . S
C1381 H1369 0.950 . S
C1381 C1377 1.393 . S
C1381 C1380 1.391 . S
C1382 H1372 0.950 . S
C1382 C1383 1.386 . S
C1382 C1384 1.391 . S
C1383 C1382 1.386 . S
C1383 C1387 1.393 1_556 S
C1384 H1373 0.950 . S
C1384 C1382 1.391 . S
C1384 C1385 1.400 1_556 S
C1385 C1379 1.491 . S
C1385 C1384 1.400 1_554 S
C1385 C1386 1.398 . S
C1386 H1374 0.950 . S
C1386 C1385 1.398 . S
C1386 C1387 1.391 . S
C1387 H1375 0.950 . S
C1387 C1383 1.393 1_554 S
C1387 C1386 1.391 . S
H1388 C1396 0.950 . S
H1389 C1401 0.950 . S
H1390 C1398 0.950 1_655 S
H1391 C1400 0.950 . S
H1392 C1402 0.961 . S
H1393 C1404 0.950 1_455 S
H1394 C1406 0.950 . S
H1395 C1407 0.950 . S
C1396 H1388 0.950 . S
C1396 C1397 1.386 . S
C1396 C1398 1.391 . S
C1397 C1396 1.386 . S
C1397 C1401 1.393 . S
C1398 H1390 0.950 1_455 S
C1398 C1396 1.391 . S
C1398 C1399 1.400 . S
C1399 C1398 1.400 . S
C1399 C1400 1.398 . S
C1399 C1405 1.491 1_455 S
C1400 H1391 0.950 . S
C1400 C1399 1.398 . S
C1400 C1401 1.391 . S
C1401 H1389 0.950 . S
C1401 C1397 1.393 . S
C1401 C1400 1.391 . S
C1402 H1392 0.961 . S
C1402 C1403 1.386 . S
C1402 C1404 1.391 . S
C1403 C1402 1.386 . S
C1403 C1407 1.393 . S
C1404 H1393 0.950 1_655 S
C1404 C1402 1.391 . S
C1404 C1405 1.400 . S
C1405 C1399 1.491 1_655 S
C1405 C1404 1.400 . S
C1405 C1406 1.398 . S
C1406 H1394 0.950 . S
C1406 C1405 1.398 . S
C1406 C1407 1.391 . S
C1407 H1395 0.950 . S
C1407 C1403 1.393 . S
C1407 C1406 1.391 . S
H1408 C1416 0.950 . S
H1409 C1421 0.950 . S
H1410 C1418 0.950 . S
H1411 C1420 0.950 . S
H1412 C1422 0.950 . S
H1413 C1424 0.950 . S
H1414 C1426 0.950 . S
H1415 C1427 0.950 . S
C1416 H1408 0.950 . S
C1416 C1417 1.386 . S
C1416 C1418 1.391 . S
C1417 C1416 1.386 . S
C1417 C1421 1.393 . S
C1418 H1410 0.950 . S
C1418 C1416 1.391 . S
C1418 C1419 1.400 . S
C1419 C1418 1.400 . S
C1419 C1420 1.398 . S
C1419 C1425 1.491 . S
C1420 H1411 0.950 . S
C1420 C1419 1.398 . S
C1420 C1421 1.391 . S
C1421 H1409 0.950 . S
C1421 C1417 1.393 . S
C1421 C1420 1.391 . S
C1422 H1412 0.950 . S
C1422 C1423 1.386 . S
C1422 C1424 1.391 . S
C1423 C1422 1.386 . S
C1423 C1427 1.393 . S
C1424 H1413 0.950 . S
C1424 C1422 1.391 . S
C1424 C1425 1.400 . S
C1425 C1419 1.491 . S
C1425 C1424 1.400 . S
C1425 C1426 1.398 . S
C1426 H1414 0.950 . S
C1426 C1425 1.398 . S
C1426 C1427 1.391 . S
C1427 H1415 0.950 . S
C1427 C1423 1.393 . S
C1427 C1426 1.391 . S
H1428 C1436 0.950 . S
H1429 C1441 0.950 . S
H1430 C1438 0.950 . S
H1431 C1440 0.950 . S
H1432 C1442 0.950 . S
H1433 C1444 0.950 . S
H1434 C1446 0.950 . S
H1435 C1447 0.950 . S
C1436 H1428 0.950 . S
C1436 C1437 1.386 . S
C1436 C1438 1.391 . S
C1437 C1436 1.386 . S
C1437 C1441 1.393 . S
C1438 H1430 0.950 . S
C1438 C1436 1.391 . S
C1438 C1439 1.400 . S
C1439 C1438 1.400 . S
C1439 C1440 1.398 . S
C1439 C1445 1.491 . S
C1440 H1431 0.950 . S
C1440 C1439 1.398 . S
C1440 C1441 1.391 . S
C1441 H1429 0.950 . S
C1441 C1437 1.393 . S
C1441 C1440 1.391 . S
C1442 H1432 0.950 . S
C1442 C1443 1.386 . S
C1442 C1444 1.391 . S
C1443 C1442 1.386 . S
C1443 C1447 1.393 . S
C1444 H1433 0.950 . S
C1444 C1442 1.391 . S
C1444 C1445 1.400 . S
C1445 C1439 1.491 . S
C1445 C1444 1.400 . S
C1445 C1446 1.398 . S
C1446 H1434 0.950 . S
C1446 C1445 1.398 . S
C1446 C1447 1.391 . S
C1447 H1435 0.950 . S
C1447 C1443 1.393 . S
C1447 C1446 1.391 . S
H1448 C1456 0.950 . S
H1449 C1461 0.950 . S
H1450 C1458 0.950 . S
H1451 C1460 0.950 . S
H1452 C1462 0.950 . S
H1453 C1464 0.950 . S
H1454 C1466 0.950 . S
H1455 C1467 0.949 1_556 S
C1456 H1448 0.950 . S
C1456 C1457 1.386 . S
C1456 C1458 1.391 . S
C1457 C1456 1.386 . S
C1457 C1461 1.393 . S
C1458 H1450 0.950 . S
C1458 C1456 1.391 . S
C1458 C1459 1.400 . S
C1459 C1458 1.400 . S
C1459 C1460 1.398 . S
C1459 C1465 1.491 . S
C1460 H1451 0.950 . S
C1460 C1459 1.398 . S
C1460 C1461 1.391 . S
C1461 H1449 0.950 . S
C1461 C1457 1.393 . S
C1461 C1460 1.391 . S
C1462 H1452 0.950 . S
C1462 C1463 1.386 . S
C1462 C1464 1.391 1_556 S
C1463 C1462 1.386 . S
C1463 C1467 1.382 1_556 S
C1464 H1453 0.950 . S
C1464 C1462 1.391 1_554 S
C1464 C1465 1.400 . S
C1465 C1459 1.491 . S
C1465 C1464 1.400 . S
C1465 C1466 1.398 . S
C1466 H1454 0.950 . S
C1466 C1465 1.398 . S
C1466 C1467 1.402 . S
C1467 H1455 0.949 1_554 S
C1467 C1463 1.382 1_554 S
C1467 C1466 1.402 . S
H1468 C1476 0.950 . S
H1469 C1481 0.950 . S
H1470 C1478 0.950 . S
H1471 C1480 0.950 . S
H1472 C1482 0.950 . S
H1473 C1484 0.950 . S
H1474 C1486 0.950 . S
H1475 C1487 0.950 . S
C1476 H1468 0.950 . S
C1476 C1477 1.386 . S
C1476 C1478 1.391 . S
C1477 C1476 1.386 . S
C1477 C1481 1.393 . S
C1478 H1470 0.950 . S
C1478 C1476 1.391 . S
C1478 C1479 1.400 . S
C1479 C1478 1.400 . S
C1479 C1480 1.398 . S
C1479 C1485 1.491 1_655 S
C1480 H1471 0.950 . S
C1480 C1479 1.398 . S
C1480 C1481 1.391 . S
C1481 H1469 0.950 . S
C1481 C1477 1.393 . S
C1481 C1480 1.391 . S
C1482 H1472 0.950 . S
C1482 C1483 1.386 . S
C1482 C1484 1.391 . S
C1483 C1482 1.386 . S
C1483 C1487 1.393 . S
C1484 H1473 0.950 . S
C1484 C1482 1.391 . S
C1484 C1485 1.400 . S
C1485 C1479 1.491 1_455 S
C1485 C1484 1.400 . S
C1485 C1486 1.398 . S
C1486 H1474 0.950 . S
C1486 C1485 1.398 . S
C1486 C1487 1.391 . S
C1487 H1475 0.950 . S
C1487 C1483 1.393 . S
C1487 C1486 1.391 . S
H1488 C1496 0.950 . S
H1489 C1501 0.950 . S
H1490 C1498 0.950 . S
H1491 C1500 0.950 . S
H1492 C1502 0.950 . S
H1493 C1504 0.950 . S
H1494 C1506 0.950 . S
H1495 C1507 0.950 . S
C1496 H1488 0.950 . S
C1496 C1497 1.386 . S
C1496 C1498 1.391 . S
C1497 C1496 1.386 . S
C1497 C1501 1.393 . S
C1498 H1490 0.950 . S
C1498 C1496 1.391 . S
C1498 C1499 1.400 . S
C1499 C1498 1.400 . S
C1499 C1500 1.398 . S
C1499 C1505 1.491 . S
C1500 H1491 0.950 . S
C1500 C1499 1.398 . S
C1500 C1501 1.391 . S
C1501 H1489 0.950 . S
C1501 C1497 1.393 . S
C1501 C1500 1.391 . S
C1502 H1492 0.950 . S
C1502 C1503 1.386 . S
C1502 C1504 1.391 1_554 S
C1503 C1502 1.386 . S
C1503 C1507 1.393 . S
C1504 H1493 0.950 . S
C1504 C1502 1.391 1_556 S
C1504 C1505 1.400 . S
C1505 C1499 1.491 . S
C1505 C1504 1.400 . S
C1505 C1506 1.398 . S
C1506 H1494 0.950 . S
C1506 C1505 1.398 . S
C1506 C1507 1.391 1_556 S
C1507 H1495 0.950 . S
C1507 C1503 1.393 . S
C1507 C1506 1.391 1_554 S
H1508 C1516 0.950 1_556 S
H1509 C1521 0.950 . S
H1510 C1518 0.950 1_455 S
H1511 C1520 0.950 . S
H1512 C1522 0.950 . S
H1513 C1524 0.950 1_655 S
H1514 C1526 0.950 . S
H1515 C1527 0.950 . S
C1516 H1508 0.950 1_554 S
C1516 C1517 1.386 . S
C1516 C1518 1.391 . S
C1517 C1516 1.386 . S
C1517 C1521 1.393 . S
C1518 H1510 0.950 1_655 S
C1518 C1516 1.391 . S
C1518 C1519 1.400 . S
C1519 C1518 1.400 . S
C1519 C1520 1.398 . S
C1519 C1525 1.491 1_655 S
C1520 H1511 0.950 . S
C1520 C1519 1.398 . S
C1520 C1521 1.391 . S
C1521 H1509 0.950 . S
C1521 C1517 1.393 . S
C1521 C1520 1.391 . S
C1522 H1512 0.950 . S
C1522 C1523 1.386 . S
C1522 C1524 1.391 . S
C1523 C1522 1.386 . S
C1523 C1527 1.393 . S
C1524 H1513 0.950 1_455 S
C1524 C1522 1.391 . S
C1524 C1525 1.400 . S
C1525 C1519 1.491 1_455 S
C1525 C1524 1.400 . S
C1525 C1526 1.398 . S
C1526 H1514 0.950 . S
C1526 C1525 1.398 . S
C1526 C1527 1.391 . S
C1527 H1515 0.950 . S
C1527 C1523 1.393 . S
C1527 C1526 1.391 . S
H1528 C1536 0.950 . S
H1529 C1541 0.950 . S
H1530 C1538 0.950 . S
H1531 C1540 0.950 . S
H1532 C1542 0.950 . S
H1533 C1544 0.950 . S
H1534 C1546 0.950 . S
H1535 C1547 0.950 . S
C1536 H1528 0.950 . S
C1536 C1537 1.386 . S
C1536 C1538 1.391 . S
C1537 C1536 1.386 . S
C1537 C1541 1.393 . S
C1538 H1530 0.950 . S
C1538 C1536 1.391 . S
C1538 C1539 1.400 . S
C1539 C1538 1.400 . S
C1539 C1540 1.398 . S
C1539 C1545 1.491 . S
C1540 H1531 0.950 . S
C1540 C1539 1.398 . S
C1540 C1541 1.391 . S
C1541 H1529 0.950 . S
C1541 C1537 1.393 . S
C1541 C1540 1.391 . S
C1542 H1532 0.950 . S
C1542 C1543 1.386 . S
C1542 C1544 1.391 . S
C1543 C1542 1.386 . S
C1543 C1547 1.393 . S
C1544 H1533 0.950 . S
C1544 C1542 1.391 . S
C1544 C1545 1.400 . S
C1545 C1539 1.491 . S
C1545 C1544 1.400 . S
C1545 C1546 1.398 . S
C1546 H1534 0.950 . S
C1546 C1545 1.398 . S
C1546 C1547 1.391 . S
C1547 H1535 0.950 . S
C1547 C1543 1.393 . S
C1547 C1546 1.391 . S
H1548 C1556 0.950 . S
H1549 C1561 0.950 . S
H1550 C1558 0.950 . S
H1551 C1560 0.950 . S
H1552 C1562 0.950 . S
H1553 C1564 0.950 . S
H1554 C1566 0.950 . S
H1555 C1567 0.950 . S
C1556 H1548 0.950 . S
C1556 C1557 1.386 . S
C1556 C1558 1.391 . S
C1557 C1556 1.386 . S
C1557 C1561 1.393 . S
C1558 H1550 0.950 . S
C1558 C1556 1.391 . S
C1558 C1559 1.400 . S
C1559 C1558 1.400 . S
C1559 C1560 1.398 . S
C1559 C1565 1.491 . S
C1560 H1551 0.950 . S
C1560 C1559 1.398 . S
C1560 C1561 1.391 . S
C1561 H1549 0.950 . S
C1561 C1557 1.393 . S
C1561 C1560 1.391 . S
C1562 H1552 0.950 . S
C1562 C1563 1.386 . S
C1562 C1564 1.391 . S
C1563 C1562 1.386 . S
C1563 C1567 1.393 . S
C1564 H1553 0.950 . S
C1564 C1562 1.391 . S
C1564 C1565 1.400 . S
C1565 C1559 1.491 . S
C1565 C1564 1.400 . S
C1565 C1566 1.398 . S
C1566 H1554 0.950 . S
C1566 C1565 1.398 . S
C1566 C1567 1.391 . S
C1567 H1555 0.950 . S
C1567 C1563 1.393 . S
C1567 C1566 1.391 . S
H1568 C1576 0.950 . S
H1569 C1581 0.950 . S
H1570 C1578 0.950 . S
H1571 C1580 0.950 . S
H1572 C1582 0.950 . S
H1573 C1584 0.950 . S
H1574 C1586 0.950 . S
H1575 C1587 0.950 . S
C1576 H1568 0.950 . S
C1576 C1577 1.386 . S
C1576 C1578 1.391 . S
C1577 C1576 1.386 . S
C1577 C1581 1.393 . S
C1578 H1570 0.950 . S
C1578 C1576 1.391 . S
C1578 C1579 1.400 . S
C1579 C1578 1.400 . S
C1579 C1580 1.398 . S
C1579 C1585 1.491 . S
C1580 H1571 0.950 . S
C1580 C1579 1.398 . S
C1580 C1581 1.391 . S
C1581 H1569 0.950 . S
C1581 C1577 1.393 . S
C1581 C1580 1.391 . S
C1582 H1572 0.950 . S
C1582 C1583 1.386 . S
C1582 C1584 1.391 . S
C1583 C1582 1.386 . S
C1583 C1587 1.393 . S
C1584 H1573 0.950 . S
C1584 C1582 1.391 . S
C1584 C1585 1.400 . S
C1585 C1579 1.491 . S
C1585 C1584 1.400 . S
C1585 C1586 1.398 . S
C1586 H1574 0.950 . S
C1586 C1585 1.398 . S
C1586 C1587 1.391 . S
C1587 H1575 0.950 . S
C1587 C1583 1.393 . S
C1587 C1586 1.391 . S
H1588 C1596 0.950 . S
H1589 C1601 0.950 . S
H1590 C1598 0.950 . S
H1591 C1600 0.950 . S
H1592 C1602 0.950 . S
H1593 C1604 0.950 . S
H1594 C1606 0.950 . S
H1595 C1607 0.950 . S
C1596 H1588 0.950 . S
C1596 C1597 1.386 . S
C1596 C1598 1.391 . S
C1597 C1596 1.386 . S
C1597 C1601 1.393 . S
C1598 H1590 0.950 . S
C1598 C1596 1.391 . S
C1598 C1599 1.400 . S
C1599 C1598 1.400 . S
C1599 C1600 1.398 . S
C1599 C1605 1.491 . S
C1600 H1591 0.950 . S
C1600 C1599 1.398 . S
C1600 C1601 1.391 . S
C1601 H1589 0.950 . S
C1601 C1597 1.393 . S
C1601 C1600 1.391 . S
C1602 H1592 0.950 . S
C1602 C1603 1.386 . S
C1602 C1604 1.391 . S
C1603 C1602 1.386 . S
C1603 C1607 1.393 . S
C1604 H1593 0.950 . S
C1604 C1602 1.391 . S
C1604 C1605 1.400 . S
C1605 C1599 1.491 . S
C1605 C1604 1.400 . S
C1605 C1606 1.398 . S
C1606 H1594 0.950 . S
C1606 C1605 1.398 . S
C1606 C1607 1.391 . S
C1607 H1595 0.950 . S
C1607 C1603 1.393 . S
C1607 C1606 1.391 . S
H1608 C1616 0.950 . S
H1609 C1621 0.950 . S
H1610 C1618 0.950 . S
H1611 C1620 0.950 . S
H1612 C1622 0.950 . S
H1613 C1624 0.950 . S
H1614 C1626 0.950 . S
H1615 C1627 0.950 . S
C1616 H1608 0.950 . S
C1616 C1617 1.386 1_556 S
C1616 C1618 1.391 . S
C1617 C1616 1.386 1_554 S
C1617 C1621 1.393 . S
C1618 H1610 0.950 . S
C1618 C1616 1.391 . S
C1618 C1619 1.400 . S
C1619 C1618 1.400 . S
C1619 C1620 1.398 1_556 S
C1619 C1625 1.491 . S
C1620 H1611 0.950 . S
C1620 C1619 1.398 1_554 S
C1620 C1621 1.391 . S
C1621 H1609 0.950 . S
C1621 C1617 1.393 . S
C1621 C1620 1.391 . S
C1622 H1612 0.950 . S
C1622 C1623 1.386 . S
C1622 C1624 1.391 . S
C1623 C1622 1.386 . S
C1623 C1627 1.393 . S
C1624 H1613 0.950 . S
C1624 C1622 1.391 . S
C1624 C1625 1.400 . S
C1625 C1619 1.491 . S
C1625 C1624 1.400 . S
C1625 C1626 1.398 . S
C1626 H1614 0.950 . S
C1626 C1625 1.398 . S
C1626 C1627 1.391 . S
C1627 H1615 0.950 . S
C1627 C1623 1.393 . S
C1627 C1626 1.391 . S
H1628 C1636 0.950 . S
H1629 C1641 0.950 . S
H1630 C1638 0.950 . S
H1631 C1640 0.950 . S
H1632 C1642 0.950 . S
H1633 C1644 0.950 . S
H1634 C1646 0.950 . S
H1635 C1647 0.950 . S
C1636 H1628 0.950 . S
C1636 C1637 1.386 . S
C1636 C1638 1.391 . S
C1637 C1636 1.386 . S
C1637 C1641 1.393 . S
C1638 H1630 0.950 . S
C1638 C1636 1.391 . S
C1638 C1639 1.400 . S
C1639 C1638 1.400 . S
C1639 C1640 1.398 . S
C1639 C1645 1.491 1_455 S
C1640 H1631 0.950 . S
C1640 C1639 1.398 . S
C1640 C1641 1.391 . S
C1641 H1629 0.950 . S
C1641 C1637 1.393 . S
C1641 C1640 1.391 . S
C1642 H1632 0.950 . S
C1642 C1643 1.386 . S
C1642 C1644 1.391 . S
C1643 C1642 1.386 . S
C1643 C1647 1.393 . S
C1644 H1633 0.950 . S
C1644 C1642 1.391 . S
C1644 C1645 1.400 . S
C1645 C1639 1.491 1_655 S
C1645 C1644 1.400 . S
C1645 C1646 1.398 . S
C1646 H1634 0.950 . S
C1646 C1645 1.398 . S
C1646 C1647 1.391 . S
C1647 H1635 0.950 . S
C1647 C1643 1.393 . S
C1647 C1646 1.391 . S
H1648 C1656 0.950 . S
H1649 C1661 0.950 . S
H1650 C1658 0.950 . S
H1651 C1660 0.950 . S
H1652 C1662 0.950 . S
H1653 C1664 0.950 . S
H1654 C1666 0.950 . S
H1655 C1667 0.950 . S
C1656 H1648 0.950 . S
C1656 C1657 1.386 . S
C1656 C1658 1.391 . S
C1657 C1656 1.386 . S
C1657 C1661 1.393 . S
C1658 H1650 0.950 . S
C1658 C1656 1.391 . S
C1658 C1659 1.400 . S
C1659 C1658 1.400 . S
C1659 C1660 1.398 . S
C1659 C1665 1.491 . S
C1660 H1651 0.950 . S
C1660 C1659 1.398 . S
C1660 C1661 1.391 . S
C1661 H1649 0.950 . S
C1661 C1657 1.393 . S
C1661 C1660 1.391 . S
C1662 H1652 0.950 . S
C1662 C1663 1.386 1_554 S
C1662 C1664 1.391 . S
C1663 C1662 1.386 1_556 S
C1663 C1667 1.393 . S
C1664 H1653 0.950 . S
C1664 C1662 1.391 . S
C1664 C1665 1.400 . S
C1665 C1659 1.491 . S
C1665 C1664 1.400 . S
C1665 C1666 1.398 . S
C1666 H1654 0.950 . S
C1666 C1665 1.398 . S
C1666 C1667 1.391 1_554 S
C1667 H1655 0.950 . S
C1667 C1663 1.393 . S
C1667 C1666 1.391 1_556 S
H1668 C1676 0.950 . S
H1669 C1681 0.950 . S
H1670 C1678 0.950 1_455 S
H1671 C1680 0.950 . S
H1672 C1682 0.949 1_554 S
H1673 C1684 0.950 1_655 S
H1674 C1686 0.950 . S
H1675 C1687 0.950 . S
C1676 H1668 0.950 . S
C1676 C1677 1.386 . S
C1676 C1678 1.391 . S
C1677 C1676 1.386 . S
C1677 C1681 1.393 . S
C1678 H1670 0.950 1_655 S
C1678 C1676 1.391 . S
C1678 C1679 1.400 . S
C1679 C1678 1.400 . S
C1679 C1680 1.398 . S
C1679 C1685 1.491 1_655 S
C1680 H1671 0.950 . S
C1680 C1679 1.398 . S
C1680 C1681 1.391 . S
C1681 H1669 0.950 . S
C1681 C1677 1.393 . S
C1681 C1680 1.391 . S
C1682 H1672 0.949 1_556 S
C1682 C1683 1.386 . S
C1682 C1684 1.391 . S
C1683 C1682 1.386 . S
C1683 C1687 1.393 . S
C1684 H1673 0.950 1_455 S
C1684 C1682 1.391 . S
C1684 C1685 1.400 . S
C1685 C1679 1.491 1_455 S
C1685 C1684 1.400 . S
C1685 C1686 1.398 . S
C1686 H1674 0.950 . S
C1686 C1685 1.398 . S
C1686 C1687 1.391 . S
C1687 H1675 0.950 . S
C1687 C1683 1.393 . S
C1687 C1686 1.391 . S
H1688 C1696 0.950 . S
H1689 C1701 0.950 . S
H1690 C1698 0.950 . S
H1691 C1700 0.950 . S
H1692 C1702 0.950 . S
H1693 C1704 0.950 . S
H1694 C1706 0.950 . S
H1695 C1707 0.950 . S
C1696 H1688 0.950 . S
C1696 C1697 1.386 . S
C1696 C1698 1.391 . S
C1697 C1696 1.386 . S
C1697 C1701 1.393 . S
C1698 H1690 0.950 . S
C1698 C1696 1.391 . S
C1698 C1699 1.400 . S
C1699 C1698 1.400 . S
C1699 C1700 1.398 . S
C1699 C1705 1.491 . S
C1700 H1691 0.950 . S
C1700 C1699 1.398 . S
C1700 C1701 1.391 . S
C1701 H1689 0.950 . S
C1701 C1697 1.393 . S
C1701 C1700 1.391 . S
C1702 H1692 0.950 . S
C1702 C1703 1.386 . S
C1702 C1704 1.391 . S
C1703 C1702 1.386 . S
C1703 C1707 1.393 . S
C1704 H1693 0.950 . S
C1704 C1702 1.391 . S
C1704 C1705 1.400 . S
C1705 C1699 1.491 . S
C1705 C1704 1.400 . S
C1705 C1706 1.398 . S
C1706 H1694 0.950 . S
C1706 C1705 1.398 . S
C1706 C1707 1.391 . S
C1707 H1695 0.950 . S
C1707 C1703 1.393 . S
C1707 C1706 1.391 . S
H1708 C1716 0.950 . S
H1709 C1721 0.950 . S
H1710 C1718 0.950 . S
H1711 C1720 0.950 . S
H1712 C1722 0.950 . S
H1713 C1724 0.950 . S
H1714 C1726 0.950 . S
H1715 C1727 0.950 . S
C1716 H1708 0.950 . S
C1716 C1717 1.386 . S
C1716 C1718 1.391 . S
C1717 C1716 1.386 . S
C1717 C1721 1.393 . S
C1718 H1710 0.950 . S
C1718 C1716 1.391 . S
C1718 C1719 1.400 . S
C1719 C1718 1.400 . S
C1719 C1720 1.398 . S
C1719 C1725 1.491 . S
C1720 H1711 0.950 . S
C1720 C1719 1.398 . S
C1720 C1721 1.391 . S
C1721 H1709 0.950 . S
C1721 C1717 1.393 . S
C1721 C1720 1.391 . S
C1722 H1712 0.950 . S
C1722 C1723 1.386 . S
C1722 C1724 1.391 . S
C1723 C1722 1.386 . S
C1723 C1727 1.393 . S
C1724 H1713 0.950 . S
C1724 C1722 1.391 . S
C1724 C1725 1.400 . S
C1725 C1719 1.491 . S
C1725 C1724 1.400 . S
C1725 C1726 1.398 . S
C1726 H1714 0.950 . S
C1726 C1725 1.398 . S
C1726 C1727 1.391 . S
C1727 H1715 0.950 . S
C1727 C1723 1.393 . S
C1727 C1726 1.391 . S
C457 C91 1.266 . S
C463 C7 1.247 . S
C477 C21 1.231 . S
C483 C105 1.269 . S
C497 C63 1.230 . S
C503 C35 1.262 . S
C517 C49 1.270 . S
C523 C77 1.233 . S
C537 C203 1.270 . S
C543 C119 1.237 . S
C557 C133 1.242 . S
C563 C217 1.242 . S
C577 C175 1.237 . S
C583 C147 1.248 . S
C597 C161 1.231 . S
C603 C189 1.257 . S
C617 C231 1.246 . S
C623 C315 1.267 . S
C637 C329 1.269 . S
C643 C245 1.232 . S
C657 C259 1.238 . S
C663 C287 1.270 . S
C677 C301 1.253 . S
C683 C273 1.262 . S
C697 C427 1.232 . S
C703 C343 1.255 . S
C717 C441 1.264 . S
C723 C357 1.251 . S
C737 C399 1.270 . S
C743 C371 1.239 . S
C757 C385 1.264 . S
C763 C413 1.230 . S
C777 C104 1.038 1_554 S
C783 C6 1.016 . S
C797 C62 1.034 . S
C803 C20 1.016 . S
C817 C76 1.010 . S
C823 C34 1.043 . S
C837 C90 1.009 . S
C843 C48 1.043 1_556 S
C857 C216 1.042 1_556 S
C863 C118 1.011 . S
C877 C174 1.023 . S
C883 C132 1.031 . S
C897 C188 1.010 . S
C903 C146 1.042 . S
C917 C160 1.033 1_554 S
C923 C202 1.017 . S
C937 C328 1.043 . S
C943 C230 1.009 . S
C957 C244 1.042 1_556 S
C963 C286 1.009 . S
C977 C258 1.022 . S
C983 C300 1.032 1_554 S
C997 C314 1.010 . S
C1003 C272 1.041 . S
C1017 C440 1.038 . S
C1023 C342 1.012 . S
C1037 C356 1.010 1_554 S
C1043 C398 1.042 . S
C1057 C370 1.028 . S
C1063 C412 1.026 1_556 S
C1077 C426 1.038 . S
C1083 C384 1.016 . S
C1097 C8 1.541 . S
C1103 C429 1.501 . S
C1117 C219 1.504 . S
C1123 C22 1.541 . S
C1137 C401 1.480 . S
C1143 C36 1.535 . S
C1157 C191 1.488 . S
C1163 C50 1.536 . S
C1177 C373 1.480 . S
C1183 C64 1.535 . S
C1197 C78 1.534 . S
C1203 C163 1.480 . S
C1217 C92 1.541 . S
C1223 C345 1.502 . S
C1237 C106 1.538 . S
C1243 C135 1.492 . S
C1257 C120 1.535 . S
C1263 C317 1.482 . S
C1277 C107 1.504 . S
C1283 C134 1.541 . S
C1297 C289 1.480 . S
C1303 C148 1.534 . S
C1317 C79 1.487 . S
C1323 C162 1.537 . S
C1337 C261 1.489 . S
C1343 C176 1.538 . S
C1357 C51 1.503 . S
C1363 C190 1.541 . S
C1377 C204 1.535 . S
C1383 C233 1.484 . S
C1397 C23 1.502 . S
C1403 C218 1.540 . S
C1417 C205 1.480 . S
C1423 C232 1.534 . S
C1437 C443 1.496 . S
C1443 C246 1.538 . S
C1457 C260 1.540 . S
C1463 C177 1.498 . S
C1477 C274 1.539 . S
C1483 C415 1.495 . S
C1497 C288 1.537 . S
C1503 C149 1.493 . S
C1517 C302 1.541 . S
C1523 C387 1.504 . S
C1537 C316 1.538 . S
C1543 C121 1.490 . S
C1557 C330 1.539 . S
C1563 C359 1.500 . S
C1577 C93 1.490 . S
C1583 C344 1.536 . S
C1597 C331 1.495 . S
C1603 C358 1.539 . S
C1617 C65 1.482 . S
C1623 C372 1.535 . S
C1637 C386 1.537 . S
C1643 C303 1.485 . S
C1657 C400 1.540 . S
C1663 C37 1.501 . S
C1677 C275 1.503 . S
C1683 C414 1.540 . S
C1697 C428 1.539 . S
C1703 C9 1.494 . S
C1717 C442 1.537 . S
C1723 C247 1.493 . S
