# Generated by pormake.
# Topology snk, (6)-cn, num edge types: 1
# Building blocks:
#     Node 0, Type 0, BuildingBlock: JUFBIX_clean_sbu_0, # of connection points: 6
#     Node 1, Type 0, BuildingBlock: JUFBIX_clean_sbu_0, # of connection points: 6
#     Node 2, Type 0, BuildingBlock: JUFBIX_clean_sbu_0, # of connection points: 6
#     Node 3, Type 0, BuildingBlock: JUFBIX_clean_sbu_0, # of connection points: 6
#     Node 4, Type 0, BuildingBlock: JUFBIX_clean_sbu_0, # of connection points: 6
#     Node 5, Type 0, BuildingBlock: JUFBIX_clean_sbu_0, # of connection points: 6
#     Node 6, Type 0, BuildingBlock: JUFBIX_clean_sbu_0, # of connection points: 6
#     Node 7, Type 0, BuildingBlock: JUFBIX_clean_sbu_0, # of connection points: 6
#     Edge 8, Type (0, 0), BuildingBlock: OJICUG_clean_linker_0, # of connection points: 2
#     Edge 9, Type (0, 0), BuildingBlock: OJICUG_clean_linker_0, # of connection points: 2
#     Edge 10, Type (0, 0), BuildingBlock: OJICUG_clean_linker_0, # of connection points: 2
#     Edge 11, Type (0, 0), BuildingBlock: OJICUG_clean_linker_0, # of connection points: 2
#     Edge 12, Type (0, 0), BuildingBlock: OJICUG_clean_linker_0, # of connection points: 2
#     Edge 13, Type (0, 0), BuildingBlock: OJICUG_clean_linker_0, # of connection points: 2
#     Edge 14, Type (0, 0), BuildingBlock: OJICUG_clean_linker_0, # of connection points: 2
#     Edge 15, Type (0, 0), BuildingBlock: OJICUG_clean_linker_0, # of connection points: 2
#     Edge 16, Type (0, 0), BuildingBlock: OJICUG_clean_linker_0, # of connection points: 2
#     Edge 17, Type (0, 0), BuildingBlock: OJICUG_clean_linker_0, # of connection points: 2
#     Edge 18, Type (0, 0), BuildingBlock: OJICUG_clean_linker_0, # of connection points: 2
#     Edge 19, Type (0, 0), BuildingBlock: OJICUG_clean_linker_0, # of connection points: 2
#     Edge 20, Type (0, 0), BuildingBlock: OJICUG_clean_linker_0, # of connection points: 2
#     Edge 21, Type (0, 0), BuildingBlock: OJICUG_clean_linker_0, # of connection points: 2
#     Edge 22, Type (0, 0), BuildingBlock: OJICUG_clean_linker_0, # of connection points: 2
#     Edge 23, Type (0, 0), BuildingBlock: OJICUG_clean_linker_0, # of connection points: 2
#     Edge 24, Type (0, 0), BuildingBlock: OJICUG_clean_linker_0, # of connection points: 2
#     Edge 25, Type (0, 0), BuildingBlock: OJICUG_clean_linker_0, # of connection points: 2
#     Edge 26, Type (0, 0), BuildingBlock: OJICUG_clean_linker_0, # of connection points: 2
#     Edge 27, Type (0, 0), BuildingBlock: OJICUG_clean_linker_0, # of connection points: 2
#     Edge 28, Type (0, 0), BuildingBlock: OJICUG_clean_linker_0, # of connection points: 2
#     Edge 29, Type (0, 0), BuildingBlock: OJICUG_clean_linker_0, # of connection points: 2
#     Edge 30, Type (0, 0), BuildingBlock: OJICUG_clean_linker_0, # of connection points: 2
#     Edge 31, Type (0, 0), BuildingBlock: OJICUG_clean_linker_0, # of connection points: 2
# Relax obj value: 0.206
# Max RMSD: 0.117
# Mean RMSD: 0.081
data_MOF--net-snk--node1-JUFBIX_clean_sbu_0--edge1-OJICUG_clean_linker_0
_symmetry_space_group_name_H-M    P1
_symmetry_Int_Tables_number       1
_symmetry_cell_setting            triclinic
loop_
_symmetry_equiv_pos_as_xyz
'x, y, z'
_cell_length_a     35.533465
_cell_length_b     35.565893
_cell_length_c     10.952891
_cell_angle_alpha  101.68833
_cell_angle_beta   101.64698
_cell_angle_gamma 93.852231
loop_
_atom_site_label
_atom_site_type_symbol
_atom_site_fract_x
_atom_site_fract_y
_atom_site_fract_z
_atom_type_partial_charge
Co0 Co 1.03414 1.02667 0.48159 0.0
C1 C 0.99219 0.08718 0.48643 0.0
Co2 Co 0.07341 0.07968 0.55458 0.0
C3 C 1.0199 0.95178 0.5047 0.0
C4 C 0.97539 0.96145 0.35481 0.0
N5 N 1.0081 0.97838 0.43889 0.0
N6 N 0.99538 0.9194 0.47107 0.0
C7 C 0.96728 0.92498 0.37525 0.0
H8 H 1.04451 0.95738 0.58485 0.0
H9 H 0.95744 0.97553 0.28971 0.0
C10 C 0.11508 1.01876 0.54654 0.0
N11 N 0.10013 0.12777 0.59797 0.0
C12 C 0.08784 0.15545 0.5379 0.0
C13 C 0.13591 0.14178 0.66695 0.0
N14 N 0.11506 0.18522 0.5576 0.0
C15 C 0.1453 0.17727 0.64169 0.0
C16 C 1.05246 0.05564 0.75317 0.0
O17 O 0.08081 1.00282 0.50246 0.0
O18 O 0.12059 0.05544 0.57774 0.0
O19 O 0.07296 0.08228 0.72766 0.0
O20 O 1.03297 1.0293 0.66089 0.0
O21 O 1.02628 0.10351 0.53371 0.0
H22 H 0.15517 0.12576 0.72109 0.0
H23 H 0.0609 0.15175 0.46812 0.0
O24 O 0.98702 0.05046 0.45637 0.0
O25 O 1.03493 1.02404 0.30858 0.0
O26 O 0.07429 0.07748 0.37562 0.0
C27 C 0.05504 0.05103 0.28326 0.0
H28 H 0.94077 0.90592 0.33274 0.0
H29 H 0.17382 0.1933 0.66989 0.0
Co30 Co 0.32238 0.77871 0.75062 0.0
C31 C 0.23906 0.74614 0.68595 0.0
Co32 Co 0.28175 0.82343 0.75062 0.0
C33 C 0.38099 0.72868 0.83372 0.0
C34 C 0.34833 0.70785 0.64181 0.0
N35 N 0.35373 0.7382 0.74231 0.0
N36 N 0.39215 0.69336 0.7941 0.0
C37 C 0.37173 0.68046 0.67311 0.0
H38 H 0.39088 0.74627 0.92955 0.0
H39 H 0.32734 0.70496 0.55299 0.0
C40 C 0.36478 0.85572 0.81254 0.0
N41 N 0.25154 0.86533 0.76416 0.0
C42 C 0.22881 0.8807 0.67557 0.0
C43 C 0.25605 0.89228 0.87407 0.0
N44 N 0.21961 0.91608 0.72685 0.0
C45 C 0.23653 0.92299 0.8518 0.0
C46 C 0.3045 0.80163 0.98678 0.0
O47 O 0.36962 0.8196 0.79811 0.0
O48 O 0.32946 0.86326 0.7989 0.0
O49 O 0.28413 0.82309 0.92748 0.0
O50 O 0.32472 0.77962 0.92714 0.0
O51 O 0.23423 0.78238 0.70078 0.0
H52 H 0.27431 0.89106 0.9646 0.0
H53 H 0.22099 0.86732 0.57461 0.0
O54 O 0.27451 0.73864 0.70236 0.0
O55 O 0.31976 0.7783 0.5733 0.0
O56 O 0.2798 0.82272 0.57447 0.0
C57 C 0.29968 0.8002 0.5145 0.0
H58 H 0.37306 0.65274 0.61215 0.0
H59 H 0.23546 0.94884 0.9223 0.0
Co60 Co 0.57361 1.02991 0.98551 0.0
C61 C 0.60615 0.11318 0.05025 0.0
Co62 Co 0.52883 0.07047 0.98564 0.0
C63 C 0.62362 0.97131 0.90231 0.0
C64 C 0.64457 1.00407 0.09404 0.0
N65 N 0.61415 0.99861 -0.00629 0.0
N66 N 0.65897 0.96016 0.94175 0.0
C67 C 0.67195 0.98064 0.06263 0.0
H68 H 0.60597 0.96136 0.80661 0.0
H69 H 0.6475 1.0251 0.18281 0.0
C70 C 0.49656 0.98749 0.92365 0.0
N71 N 0.4869 0.10061 0.97219 0.0
C72 C 0.47157 0.12341 0.06079 0.0
C73 C 0.45988 0.09601 0.86239 0.0
N74 N 0.43614 0.13256 0.00963 0.0
C75 C 0.42916 0.11554 0.88475 0.0
C76 C 0.55067 1.04775 0.74941 0.0
O77 O 0.53272 0.98268 0.93802 0.0
O78 O 0.489 1.02277 0.93735 0.0
O79 O 0.52918 0.06809 0.80879 0.0
O80 O 0.57271 1.02756 0.80897 0.0
O81 O 0.56988 0.11798 0.03549 0.0
H82 H 0.46107 0.07769 0.77191 0.0
H83 H 0.48501 0.13132 0.16169 0.0
O84 O 0.61368 0.07777 0.03377 0.0
O85 O 0.57402 1.03253 0.16283 0.0
O86 O 0.52954 0.07243 0.1618 0.0
C87 C 0.55209 0.05258 0.2217 0.0
H88 H 0.69971 0.97934 0.12343 0.0
H89 H 0.40327 0.11657 0.81436 0.0
Co90 Co 0.3258 0.31819 0.25512 0.0
C91 C 0.26532 0.36018 0.25033 0.0
Co92 Co 0.27272 0.279 0.18218 0.0
C93 C 0.40078 0.33228 0.23182 0.0
C94 C 0.39111 0.3769 0.38143 0.0
N95 N 0.37417 0.34414 0.2977 0.0
N96 N 0.43315 0.35681 0.26498 0.0
C97 C 0.42758 0.38497 0.36066 0.0
H98 H 0.39515 0.30764 0.15176 0.0
H99 H 0.37701 0.39492 0.44638 0.0
C100 C 0.3336 0.23729 0.19012 0.0
N101 N 0.22456 0.25237 0.13889 0.0
C102 C 0.1969 0.26467 0.19922 0.0
C103 C 0.21049 0.21664 0.0698 0.0
N104 N 0.16709 0.23749 0.17959 0.0
C105 C 0.17499 0.20728 0.09526 0.0
C106 C 0.29681 0.29986 0.98355 0.0
O107 O 0.3496 0.27151 0.2342 0.0
O108 O 0.29689 0.23182 0.15894 0.0
O109 O 0.27012 0.27941 0.00909 0.0
O110 O 0.32319 0.31932 0.07581 0.0
O111 O 0.24894 0.32612 0.20313 0.0
H112 H 0.22649 0.19739 0.01546 0.0
H113 H 0.20065 0.29158 0.26915 0.0
O114 O 0.30206 0.36531 0.28037 0.0
O115 O 0.32842 0.31745 0.42815 0.0
O116 O 0.27491 0.27816 0.36115 0.0
C117 C 0.30139 0.29738 0.45349 0.0
H118 H 0.44662 0.41151 0.40271 0.0
H119 H 0.15892 0.17879 0.06704 0.0
Co120 Co 0.82317 0.27663 0.24873 0.0
C121 C 0.73933 0.24553 0.18443 0.0
Co122 Co 0.78323 0.32216 0.24965 0.0
C123 C 0.87688 0.2208 0.32513 0.0
C124 C 0.84803 0.20652 0.12779 0.0
N125 N 0.85298 0.23456 0.235 0.0
N126 N 0.8864 0.18522 0.27792 0.0
C127 C 0.86843 0.17654 0.15351 0.0
H128 H 0.88542 0.23555 0.42477 0.0
H129 H 0.8291 0.20675 0.03735 0.0
C130 C 0.86698 0.35312 0.31144 0.0
N131 N 0.75413 0.36494 0.26806 0.0
C132 C 0.72986 0.38081 0.18468 0.0
C133 C 0.76133 0.39193 0.3788 0.0
N134 N 0.7223 0.41651 0.24013 0.0
C135 C 0.74192 0.4231 0.36228 0.0
C136 C 0.80594 0.29934 0.48513 0.0
O137 O 0.87136 0.31682 0.29675 0.0
O138 O 0.83177 0.36105 0.29777 0.0
O139 O 0.78601 0.32116 0.4261 0.0
O140 O 0.8258 0.27691 0.42524 0.0
O141 O 0.73496 0.2819 0.1999 0.0
H142 H 0.78131 0.39033 0.46568 0.0
H143 H 0.71971 0.36751 0.08416 0.0
O144 O 0.77462 0.23759 0.20026 0.0
O145 O 0.82013 0.27715 0.0719 0.0
O146 O 0.78078 0.32212 0.07352 0.0
C147 C 0.8004 0.29931 0.01334 0.0
H148 H 0.86942 0.15002 0.08584 0.0
H149 H 0.74273 0.44907 0.43462 0.0
Co150 Co 0.81292 0.8112 0.71157 0.0
C151 C 0.74804 0.84815 0.71109 0.0
Co152 Co 0.7616 0.76961 0.64082 0.0
C153 C 0.88694 0.83627 0.70028 0.0
C154 C 0.87603 0.86508 0.87845 0.0
N155 N 0.85887 0.84169 0.765 0.0
N156 N 0.92136 0.85471 0.76746 0.0
C157 C 0.91458 0.87346 0.87988 0.0
H158 H 0.88194 0.81839 0.60507 0.0
H159 H 0.86188 0.87419 0.95643 0.0
C160 C 0.82795 0.73346 0.64846 0.0
N161 N 0.71647 0.73764 0.58782 0.0
C162 C 0.68798 0.74199 0.65097 0.0
C163 C 0.70871 0.70166 0.51413 0.0
N164 N 0.66479 0.70905 0.63163 0.0
C165 C 0.67676 0.68389 0.54128 0.0
C166 C 0.78513 0.7936 0.44264 0.0
O167 O 0.84191 0.76832 0.69195 0.0
O168 O 0.79135 0.72579 0.61748 0.0
O169 O 0.75936 0.77231 0.46928 0.0
O170 O 0.81109 0.814 0.53424 0.0
O171 O 0.73242 0.81358 0.66491 0.0
H172 H 0.72797 0.68755 0.45939 0.0
H173 H 0.68927 0.76612 0.73065 0.0
O174 O 0.7847 0.85465 0.73513 0.0
O175 O 0.81449 0.80848 0.88316 0.0
O176 O 0.7633 0.76627 0.81742 0.0
C177 C 0.78892 0.78685 0.90936 0.0
H178 H 0.93567 0.89209 0.9574 0.0
H179 H 0.66777 0.65309 0.51504 0.0
Co180 Co 0.54084 0.53918 0.02383 0.0
C181 C 0.50397 0.60408 0.02442 0.0
Co182 Co 0.58254 0.59041 0.09464 0.0
C183 C 0.51564 0.46526 0.03508 0.0
C184 C 0.487 0.47609 0.85669 0.0
N185 N 0.51026 0.49329 0.97033 0.0
N186 N 0.49732 0.43083 0.96769 0.0
C187 C 0.47866 0.43755 0.85515 0.0
H188 H 0.53344 0.47028 0.13042 0.0
H189 H 0.47797 0.49019 0.7786 0.0
C190 C 0.61862 0.52405 0.08696 0.0
N191 N 0.6146 0.63547 0.14767 0.0
C192 C 0.61023 0.66397 0.08471 0.0
C193 C 0.65063 0.64318 0.22107 0.0
N194 N 0.6432 0.68712 0.10394 0.0
C195 C 0.66842 0.6751 0.19395 0.0
C196 C 0.55845 0.56696 0.2928 0.0
O197 O 0.58372 0.51014 0.04348 0.0
O198 O 0.62635 0.56062 0.11786 0.0
O199 O 0.57982 0.59267 0.26618 0.0
O200 O 0.53799 0.54106 0.20117 0.0
O201 O 0.53858 0.61964 0.07069 0.0
H202 H 0.66476 0.6239 0.2756 0.0
H203 H 0.58605 0.66272 0.00522 0.0
O204 O 0.4974 0.56745 0.00027 0.0
O205 O 0.54362 0.53758 0.85225 0.0
O206 O 0.5859 0.5887 0.91803 0.0
C207 C 0.56529 0.56311 0.82607 0.0
H208 H 0.46016 0.41643 0.77744 0.0
H209 H 0.69924 0.68407 0.21997 0.0
Co210 Co 0.07568 0.52916 0.4874 0.0
C211 C 0.10672 0.61295 0.55176 0.0
Co212 Co 1.03008 0.56901 0.48659 0.0
C213 C 0.13161 0.47551 0.41115 0.0
C214 C 0.14588 0.50448 0.6084 0.0
N215 N 0.11781 0.49943 0.50121 0.0
N216 N 0.16723 0.46606 0.4584 0.0
C217 C 0.1759 0.4841 0.58275 0.0
H218 H 0.11684 0.4669 0.31154 0.0
H219 H 0.14563 0.52345 0.69877 0.0
C220 C 0.99917 0.48529 0.42473 0.0
N221 N 0.98723 0.598 0.46808 0.0
C222 C 0.97131 0.62227 0.55137 0.0
C223 C 0.96023 0.59072 0.35734 0.0
N224 N 0.93556 0.62975 0.49586 0.0
C225 C 0.929 0.61009 0.37376 0.0
C226 C 0.05296 0.54633 0.25105 0.0
O227 O 1.03551 0.48096 0.43937 0.0
O228 O 0.99121 0.52047 0.43845 0.0
O229 O 1.03112 0.56622 0.31016 0.0
O230 O 0.07543 0.5265 0.31087 0.0
O231 O 0.07031 0.61728 0.53634 0.0
H232 H 0.96187 0.57072 0.27052 0.0
H233 H 0.98459 0.63249 0.65187 0.0
O234 O 0.1147 0.57771 0.53587 0.0
O235 O 0.07513 0.53221 0.6642 0.0
O236 O 1.03008 0.57148 0.66273 0.0
C237 C 0.05294 0.5519 0.72284 0.0
H238 H 0.20244 0.48317 0.65042 0.0
H239 H 0.90303 0.60921 0.30137 0.0
C240 C 0.0985 0.19419 0.33617 0.0
C241 C 0.11763 0.20828 0.46565 0.0
H242 H 0.09956 0.19322 0.14126 0.0
C243 C 0.14523 0.24049 0.49747 0.0
H244 H 0.07628 0.16992 0.30625 0.0
C245 C 0.15833 0.2539 0.40134 0.0
C246 C 0.14409 0.23489 0.27179 0.0
H247 H 0.15947 0.25266 0.59623 0.0
H248 H 0.18266 0.27605 0.43123 0.0
C249 C 0.11182 0.20737 0.24004 0.0
C250 C 0.13936 0.95358 0.5216 0.0
C251 C 0.14619 0.99371 0.57471 0.0
H252 H 0.15753 0.89743 0.52756 0.0
C253 C 0.18027 1.00806 0.66737 0.0
H254 H 0.11339 0.94147 0.44959 0.0
C255 C 0.20537 0.98263 0.71241 0.0
C256 C 0.19717 0.94228 0.66525 0.0
H257 H 0.18644 1.03867 0.7104 0.0
H258 H 0.23065 0.9945 0.78747 0.0
C259 C 0.16465 0.92821 0.5658 0.0
C260 C 0.39286 0.92859 0.85557 0.0
C261 C 0.39919 0.889 0.84203 0.0
H262 H 0.41611 0.98866 0.88978 0.0
C263 C 0.43884 0.88254 0.85543 0.0
H264 H 0.36355 0.93611 0.84652 0.0
C265 C 0.46977 0.91348 0.88069 0.0
C266 C 0.46328 0.95308 0.89416 0.0
H267 H 0.44622 0.85322 0.84621 0.0
H268 H 0.49913 0.90613 0.88987 0.0
C269 C 0.42365 0.95938 0.88068 0.0
C270 C 0.42412 0.1876 0.1706 0.0
C271 C 0.40997 0.15507 0.07131 0.0
H272 H 0.41094 0.23891 0.28673 0.0
C273 C 0.36959 0.14691 0.0244 0.0
H274 H 0.45493 0.19468 0.20865 0.0
C275 C 0.34418 0.17206 0.06949 0.0
C276 C 0.35861 0.20614 0.16195 0.0
H277 H 0.35766 0.12162 0.94948 0.0
H278 H 0.31354 0.16592 0.02663 0.0
C279 C 0.39878 0.21294 0.21487 0.0
C280 C 0.97148 0.85751 0.50872 0.0
C281 C 0.99117 0.89454 0.55617 0.0
H282 H 0.93682 0.81229 0.54741 0.0
C283 C 0.99967 0.91007 0.68901 0.0
H284 H 0.96627 0.84418 0.40785 0.0
C285 C 0.98114 0.89312 0.76745 0.0
C286 C 0.95438 0.86037 0.71353 0.0
H287 H 1.01614 0.93799 0.73039 0.0
H288 H 0.98389 0.90871 0.86497 0.0
C289 C 0.95428 0.83972 0.58885 0.0
C290 C 0.9276 0.09571 0.35581 0.0
C291 C 0.96102 0.11151 0.45007 0.0
H292 H 0.87757 0.10675 0.22784 0.0
C293 C 0.96717 0.15198 0.49599 0.0
H294 H 0.92198 0.06479 0.31778 0.0
C295 C 0.94171 0.17611 0.44422 0.0
C296 C 0.90972 0.16045 0.34404 0.0
H297 H 0.99264 0.16523 0.56856 0.0
H298 H 0.94822 0.20711 0.4779 0.0
C299 C 0.90239 0.11987 0.30315 0.0
C300 C 0.66472 0.21864 0.13315 0.0
C301 C 0.70447 0.21223 0.14956 0.0
H302 H 0.60416 0.19502 0.09126 0.0
C303 C 0.71048 0.17246 0.1325 0.0
H304 H 0.65746 0.24804 0.14449 0.0
C305 C 0.67943 0.14157 0.10151 0.0
C306 C 0.63971 0.1478 0.08508 0.0
H307 H 0.73978 0.16484 0.14322 0.0
H308 H 0.68688 0.11223 0.0903 0.0
C309 C 0.63352 0.18759 0.1021 0.0
C310 C 0.68359 0.87234 0.72857 0.0
C311 C 0.72427 0.87921 0.75353 0.0
H312 H 0.63076 0.89305 0.76812 0.0
C313 C 0.74239 0.91468 0.83239 0.0
H314 H 0.66864 0.8453 0.66859 0.0
C315 C 0.72075 0.94157 0.89034 0.0
C316 C 0.68032 0.93405 0.87005 0.0
H317 H 0.77356 0.92108 0.85407 0.0
H318 H 0.7358 0.9681 0.95335 0.0
C319 C 0.66182 0.89964 0.78542 0.0
C320 C 0.67668 0.67495 0.93038 0.0
C321 C 0.65285 0.69768 -0.00546 0.0
H322 H 0.69676 0.65861 0.75916 0.0
C323 C 0.62975 0.72136 0.93101 0.0
H324 H 0.69353 0.65523 0.97552 0.0
C325 C 0.6307 0.7224 0.80513 0.0
C326 C 0.65432 0.69933 0.74107 0.0
H327 H 0.61013 0.7379 0.97783 0.0
H328 H 0.61414 0.74207 0.75873 0.0
C329 C 0.67708 0.67544 0.8047 0.0
C330 C 0.70954 0.48368 0.23025 0.0
C331 C 0.6992 0.44347 0.18512 0.0
H332 H 0.69273 0.54074 0.23367 0.0
C333 C 0.66416 0.43052 0.096 0.0
H334 H 0.73667 0.49466 0.2976 0.0
C335 C 0.63891 0.45698 0.05972 0.0
C336 C 0.64831 0.49711 0.11042 0.0
H337 H 0.65534 0.39987 0.05991 0.0
H338 H 0.6113 0.44582 -0.00477 0.0
C339 C 0.6845 0.51018 0.19302 0.0
C340 C 0.97239 0.41094 0.38096 0.0
C341 C 0.96596 0.45061 0.39473 0.0
H342 H 0.94876 0.3506 0.34576 0.0
C343 C 0.92628 0.4568 0.38091 0.0
H344 H 1.00175 0.40359 0.3903 0.0
C345 C 0.89545 0.42597 0.35531 0.0
C346 C 0.90167 0.38633 0.34144 0.0
H347 H 0.91869 0.48606 0.39012 0.0
H348 H 0.86616 0.43354 0.34614 0.0
C349 C 0.94138 0.37993 0.35515 0.0
C350 C 0.89503 0.71312 0.67607 0.0
C351 C 0.85488 0.70376 0.62516 0.0
H352 H 0.95218 0.69666 0.67615 0.0
C353 C 0.8418 0.66759 0.54253 0.0
H354 H 0.90619 0.74071 0.74061 0.0
C355 C 0.86833 0.64254 0.50544 0.0
C356 C 0.90856 0.65285 0.55074 0.0
H357 H 0.81123 0.65939 0.50175 0.0
H358 H 0.85735 0.61543 0.43807 0.0
C359 C 0.92151 0.68786 0.63991 0.0
C360 C 0.49496 0.38063 0.2262 0.0
C361 C 0.45787 0.361 0.17933 0.0
H362 H 0.54009 0.41526 0.18676 0.0
C363 C 0.44211 0.35258 0.04664 0.0
H364 H 0.50845 0.38579 0.32692 0.0
C365 C 0.45892 0.37112 0.96794 0.0
C366 C 0.49176 0.3978 0.02143 0.0
H367 H 0.41413 0.33616 0.00571 0.0
H368 H 0.44314 0.36848 0.87069 0.0
C369 C 0.51261 0.39783 0.14576 0.0
C370 C 0.43746 0.60987 0.90296 0.0
C371 C 0.47295 0.6279 0.98204 0.0
H372 H 0.38409 0.61656 0.78192 0.0
C373 C 0.47987 0.66855 0.00729 0.0
H374 H 0.43102 0.57872 0.88103 0.0
C375 C 0.45262 0.69037 0.95055 0.0
C376 C 0.4182 0.67196 0.8657 0.0
H377 H 0.50693 0.68345 0.06744 0.0
H378 H 0.45927 0.72141 0.96809 0.0
C379 C 0.41062 0.63156 0.84511 0.0
C380 C 0.16461 0.71874 0.63416 0.0
C381 C 0.20444 0.71259 0.65112 0.0
H382 H 0.10413 0.69476 0.59182 0.0
C383 C 0.21072 0.6729 0.63463 0.0
H384 H 0.15715 0.74806 0.64505 0.0
C385 C 0.17983 0.64185 0.60363 0.0
C386 C 0.14002 0.64782 0.58664 0.0
H387 H 0.24008 0.66549 0.64578 0.0
H388 H 0.18748 0.61259 0.59286 0.0
C389 C 0.13356 0.68752 0.60311 0.0
C390 C 0.2005 0.38524 0.24061 0.0
C391 C 0.241 0.39137 0.28656 0.0
H392 H 0.14533 0.40422 0.2586 0.0
C393 C 0.25681 0.42479 0.38071 0.0
H394 H 0.18723 0.35976 0.16811 0.0
C395 C 0.23263 0.45003 0.43326 0.0
C396 C 0.19203 0.44272 0.39237 0.0
H397 H 0.28775 0.4304 0.41875 0.0
H398 H 0.24576 0.47486 0.5085 0.0
C399 C 0.17635 0.41071 0.29228 0.0
C400 C 1.03017 1.02536 0.91916 0.0
C401 C 0.05256 0.05478 0.88874 0.0
H402 H 1.0136 1.0009 0.06637 0.0
C403 C 0.07594 0.08302 0.98967 0.0
H404 H 1.01169 1.00332 0.84426 0.0
C405 C 0.07701 0.08174 0.11746 0.0
C406 C 0.05477 0.05216 0.1478 0.0
H407 H 0.09363 0.10614 0.97014 0.0
H408 H 0.09531 0.10393 0.19243 0.0
C409 C 1.03132 1.02401 0.04688 0.0
C410 C 0.32333 0.77608 0.31373 0.0
C411 C 0.30053 0.80026 0.37894 0.0
H412 H 0.34265 0.75763 0.14011 0.0
C413 C 0.27931 0.82507 0.31404 0.0
H414 H 0.34014 0.75664 0.36055 0.0
C415 C 0.28083 0.82568 0.18747 0.0
C416 C 0.30364 0.80152 0.12228 0.0
H417 H 0.26153 0.84417 0.36108 0.0
H418 H 0.26401 0.84512 0.14065 0.0
C419 C 0.32487 0.77671 0.18718 0.0
C420 C 0.57562 1.02742 0.54892 0.0
C421 C 0.55077 1.04862 0.61391 0.0
H422 H 0.59571 1.01218 0.37548 0.0
C423 C 0.52657 0.07138 0.54882 0.0
H424 H 0.59474 1.00967 0.59591 0.0
C425 C 0.52718 0.07291 0.42226 0.0
C426 C 0.55203 0.05172 0.35726 0.0
H427 H 0.50711 0.08817 0.59571 0.0
H428 H 0.50805 0.09066 0.37529 0.0
C429 C 0.57625 1.02897 0.42237 0.0
C430 C 0.26948 0.27633 0.74706 0.0
C431 C 0.29766 0.29978 0.84799 0.0
H432 H 0.2486 0.25692 0.5443 0.0
C433 C 0.327 0.32229 0.81758 0.0
H434 H 0.24641 0.25855 0.76658 0.0
C435 C 0.32835 0.32117 0.68987 0.0
C436 C 0.30026 0.29763 0.58894 0.0
H437 H 0.34898 0.34085 0.89248 0.0
H438 H 0.3514 0.33898 0.67038 0.0
C439 C 0.27075 0.27529 0.61927 0.0
C440 C 0.82382 0.27428 0.81282 0.0
C441 C 0.80142 0.29909 0.87769 0.0
H442 H 0.84301 0.25494 0.63937 0.0
C443 C 0.78078 0.32413 0.81229 0.0
H444 H 0.8402 0.25463 0.86 0.0
C445 C 0.78249 0.32434 0.68558 0.0
C446 C 0.8049 0.29954 0.62073 0.0
H447 H 0.76332 0.3437 0.85903 0.0
H448 H 0.76612 0.34399 0.6384 0.0
C449 C 0.82555 0.27451 0.68613 0.0
C450 C 0.81605 0.81305 0.27343 0.0
C451 C 0.78576 0.79259 0.30625 0.0
H452 H 0.84097 0.82699 0.12352 0.0
C453 C 0.7567 0.76961 0.20686 0.0
H454 H 0.83904 0.83077 0.34705 0.0
C455 C 0.75789 0.76721 0.07826 0.0
C456 C 0.78818 0.7877 0.04552 0.0
H457 H 0.73293 0.75332 0.22826 0.0
H458 H 0.7349 0.74953 0.00455 0.0
C459 C 0.81722 0.81066 0.14489 0.0
C460 C 0.58492 0.59414 0.65719 0.0
C461 C 0.56442 0.56386 0.6899 0.0
H462 H 0.59879 0.61909 0.50722 0.0
C463 C 0.54142 0.53486 0.59051 0.0
H464 H 0.60263 0.61709 0.73091 0.0
C465 C 0.539 0.53606 0.46199 0.0
C466 C 0.55947 0.56632 0.42919 0.0
H467 H 0.52508 0.51113 0.61186 0.0
H468 H 0.52125 0.5131 0.38835 0.0
C469 C 0.58249 0.59534 0.5286 0.0
C470 C 1.02809 0.57146 0.92401 0.0
C471 C 0.05317 0.55087 0.85849 0.0
H472 H 1.00822 0.58606 0.098 0.0
C473 C 0.07803 0.52851 0.92324 0.0
H474 H 1.00848 0.58888 0.87737 0.0
C475 C 0.07783 0.52678 0.04993 0.0
C476 C 0.05276 0.54737 0.11545 0.0
H477 H 0.09771 0.51218 0.87596 0.0
H478 H 0.09743 0.50935 0.09659 0.0
C479 C 1.0279 0.56974 0.05072 0.0
loop_
_geom_bond_atom_site_label_1
_geom_bond_atom_site_label_2
_geom_bond_distance
_geom_bond_site_symmetry_2
_ccdc_geom_bond_type
Co0 N5 2.057 . S
Co0 O17 2.021 1_655 S
Co0 O20 2.062 . S
Co0 O24 2.117 1_565 S
Co0 O25 2.020 . S
C1 O21 1.259 . S
C1 O24 1.258 . S
Co2 N11 2.057 . S
Co2 O18 2.117 1_545 S
Co2 O19 2.020 . S
Co2 O21 2.021 1_455 S
Co2 O26 2.062 . S
C3 N5 1.316 . S
C3 N6 1.347 . S
C3 H8 0.931 . S
C4 N5 1.375 . S
C4 C7 1.350 . S
C4 H9 0.930 . S
N5 Co0 2.057 . S
N5 C3 1.316 . S
N5 C4 1.375 . S
N6 C3 1.347 . S
N6 C7 1.373 . S
C7 C4 1.350 . S
C7 N6 1.373 . S
C7 H28 0.931 . S
H8 C3 0.931 . S
H9 C4 0.930 . S
C10 O17 1.259 . S
C10 O18 1.258 . S
N11 Co2 2.057 . S
N11 C12 1.316 . S
N11 C13 1.375 . S
C12 N11 1.316 . S
C12 N14 1.347 . S
C12 H23 0.931 . S
C13 N11 1.375 . S
C13 C15 1.350 . S
C13 H22 0.930 . S
N14 C12 1.347 . S
N14 C15 1.373 . S
C15 C13 1.350 . S
C15 N14 1.373 . S
C15 H29 0.931 . S
C16 O19 1.256 . S
C16 O20 1.255 1_445 S
O17 Co0 2.021 1_455 S
O17 C10 1.259 . S
O18 Co2 2.117 1_565 S
O18 C10 1.258 . S
O19 Co2 2.020 . S
O19 C16 1.256 . S
O20 Co0 2.062 . S
O20 C16 1.255 1_665 S
O21 C1 1.259 . S
O21 Co2 2.021 1_655 S
H22 C13 0.930 . S
H23 C12 0.931 . S
O24 Co0 2.117 1_545 S
O24 C1 1.258 . S
O25 Co0 2.020 . S
O25 C27 1.256 . S
O26 Co2 2.062 . S
O26 C27 1.255 1_445 S
C27 O25 1.256 . S
C27 O26 1.255 1_665 S
H28 C7 0.931 . S
H29 C15 0.931 . S
Co30 N35 2.057 . S
Co30 O47 2.021 . S
Co30 O50 2.062 . S
Co30 O54 2.117 . S
Co30 O55 2.020 . S
C31 O51 1.259 . S
C31 O54 1.258 . S
Co32 N41 2.057 . S
Co32 O48 2.117 . S
Co32 O49 2.020 . S
Co32 O51 2.021 . S
Co32 O56 2.062 . S
C33 N35 1.316 . S
C33 N36 1.347 . S
C33 H38 0.931 . S
C34 N35 1.375 . S
C34 C37 1.350 . S
C34 H39 0.930 . S
N35 Co30 2.057 . S
N35 C33 1.316 . S
N35 C34 1.375 . S
N36 C33 1.347 . S
N36 C37 1.373 . S
C37 C34 1.350 . S
C37 N36 1.373 . S
C37 H58 0.931 . S
H38 C33 0.931 . S
H39 C34 0.930 . S
C40 O47 1.259 . S
C40 O48 1.258 . S
N41 Co32 2.057 . S
N41 C42 1.316 . S
N41 C43 1.375 . S
C42 N41 1.316 . S
C42 N44 1.347 . S
C42 H53 0.931 . S
C43 N41 1.375 . S
C43 C45 1.350 . S
C43 H52 0.930 . S
N44 C42 1.347 . S
N44 C45 1.373 . S
C45 C43 1.350 . S
C45 N44 1.373 . S
C45 H59 0.931 . S
C46 O49 1.256 . S
C46 O50 1.255 . S
O47 Co30 2.021 . S
O47 C40 1.259 . S
O48 Co32 2.117 . S
O48 C40 1.258 . S
O49 Co32 2.020 . S
O49 C46 1.256 . S
O50 Co30 2.062 . S
O50 C46 1.255 . S
O51 C31 1.259 . S
O51 Co32 2.021 . S
H52 C43 0.930 . S
H53 C42 0.931 . S
O54 Co30 2.117 . S
O54 C31 1.258 . S
O55 Co30 2.020 . S
O55 C57 1.256 . S
O56 Co32 2.062 . S
O56 C57 1.255 . S
C57 O55 1.256 . S
C57 O56 1.255 . S
H58 C37 0.931 . S
H59 C45 0.931 . S
Co60 N65 2.057 . S
Co60 O77 2.021 . S
Co60 O80 2.062 . S
Co60 O84 2.117 1_566 S
Co60 O85 2.020 1_556 S
C61 O81 1.259 . S
C61 O84 1.258 . S
Co62 N71 2.057 . S
Co62 O78 2.117 1_544 S
Co62 O79 2.020 1_554 S
Co62 O81 2.021 . S
Co62 O86 2.062 . S
C63 N65 1.316 . S
C63 N66 1.347 . S
C63 H68 0.931 . S
C64 N65 1.375 1_554 S
C64 C67 1.350 1_554 S
C64 H69 0.930 . S
N65 Co60 2.057 . S
N65 C63 1.316 . S
N65 C64 1.375 1_556 S
N66 C63 1.347 . S
N66 C67 1.373 . S
C67 C64 1.350 1_556 S
C67 N66 1.373 . S
C67 H88 0.931 . S
H68 C63 0.931 . S
H69 C64 0.930 . S
C70 O77 1.259 . S
C70 O78 1.258 . S
N71 Co62 2.057 . S
N71 C72 1.316 . S
N71 C73 1.375 1_554 S
C72 N71 1.316 . S
C72 N74 1.347 . S
C72 H83 0.931 . S
C73 N71 1.375 1_556 S
C73 C75 1.350 1_556 S
C73 H82 0.930 . S
N74 C72 1.347 . S
N74 C75 1.373 . S
C75 C73 1.350 1_554 S
C75 N74 1.373 . S
C75 H89 0.931 . S
C76 O79 1.256 1_565 S
C76 O80 1.255 . S
O77 Co60 2.021 . S
O77 C70 1.259 . S
O78 Co62 2.117 1_566 S
O78 C70 1.258 . S
O79 Co62 2.020 1_556 S
O79 C76 1.256 1_545 S
O80 Co60 2.062 . S
O80 C76 1.255 . S
O81 C61 1.259 . S
O81 Co62 2.021 . S
H82 C73 0.930 . S
H83 C72 0.931 . S
O84 Co60 2.117 1_544 S
O84 C61 1.258 . S
O85 Co60 2.020 1_554 S
O85 C87 1.256 1_565 S
O86 Co62 2.062 . S
O86 C87 1.255 . S
C87 O85 1.256 1_545 S
C87 O86 1.255 . S
H88 C67 0.931 . S
H89 C75 0.931 . S
Co90 N95 2.057 . S
Co90 O107 2.021 . S
Co90 O110 2.062 . S
Co90 O114 2.117 . S
Co90 O115 2.020 . S
C91 O111 1.259 . S
C91 O114 1.258 . S
Co92 N101 2.057 . S
Co92 O108 2.117 . S
Co92 O109 2.020 . S
Co92 O111 2.021 . S
Co92 O116 2.062 . S
C93 N95 1.316 . S
C93 N96 1.347 . S
C93 H98 0.931 . S
C94 N95 1.375 . S
C94 C97 1.350 . S
C94 H99 0.930 . S
N95 Co90 2.057 . S
N95 C93 1.316 . S
N95 C94 1.375 . S
N96 C93 1.347 . S
N96 C97 1.373 . S
C97 C94 1.350 . S
C97 N96 1.373 . S
C97 H118 0.931 . S
H98 C93 0.931 . S
H99 C94 0.930 . S
C100 O107 1.259 . S
C100 O108 1.258 . S
N101 Co92 2.057 . S
N101 C102 1.316 . S
N101 C103 1.375 . S
C102 N101 1.316 . S
C102 N104 1.347 . S
C102 H113 0.931 . S
C103 N101 1.375 . S
C103 C105 1.350 . S
C103 H112 0.930 . S
N104 C102 1.347 . S
N104 C105 1.373 . S
C105 C103 1.350 . S
C105 N104 1.373 . S
C105 H119 0.931 . S
C106 O109 1.256 . S
C106 O110 1.255 . S
O107 Co90 2.021 . S
O107 C100 1.259 . S
O108 Co92 2.117 . S
O108 C100 1.258 . S
O109 Co92 2.020 . S
O109 C106 1.256 . S
O110 Co90 2.062 . S
O110 C106 1.255 . S
O111 C91 1.259 . S
O111 Co92 2.021 . S
H112 C103 0.930 . S
H113 C102 0.931 . S
O114 Co90 2.117 . S
O114 C91 1.258 . S
O115 Co90 2.020 . S
O115 C117 1.256 . S
O116 Co92 2.062 . S
O116 C117 1.255 . S
C117 O115 1.256 . S
C117 O116 1.255 . S
H118 C97 0.931 . S
H119 C105 0.931 . S
Co120 N125 2.057 . S
Co120 O137 2.021 . S
Co120 O140 2.062 . S
Co120 O144 2.117 . S
Co120 O145 2.020 . S
C121 O141 1.259 . S
C121 O144 1.258 . S
Co122 N131 2.057 . S
Co122 O138 2.117 . S
Co122 O139 2.020 . S
Co122 O141 2.021 . S
Co122 O146 2.062 . S
C123 N125 1.316 . S
C123 N126 1.347 . S
C123 H128 0.931 . S
C124 N125 1.375 . S
C124 C127 1.350 . S
C124 H129 0.930 . S
N125 Co120 2.057 . S
N125 C123 1.316 . S
N125 C124 1.375 . S
N126 C123 1.347 . S
N126 C127 1.373 . S
C127 C124 1.350 . S
C127 N126 1.373 . S
C127 H148 0.931 . S
H128 C123 0.931 . S
H129 C124 0.930 . S
C130 O137 1.259 . S
C130 O138 1.258 . S
N131 Co122 2.057 . S
N131 C132 1.316 . S
N131 C133 1.375 . S
C132 N131 1.316 . S
C132 N134 1.347 . S
C132 H143 0.931 . S
C133 N131 1.375 . S
C133 C135 1.350 . S
C133 H142 0.930 . S
N134 C132 1.347 . S
N134 C135 1.373 . S
C135 C133 1.350 . S
C135 N134 1.373 . S
C135 H149 0.931 . S
C136 O139 1.256 . S
C136 O140 1.255 . S
O137 Co120 2.021 . S
O137 C130 1.259 . S
O138 Co122 2.117 . S
O138 C130 1.258 . S
O139 Co122 2.020 . S
O139 C136 1.256 . S
O140 Co120 2.062 . S
O140 C136 1.255 . S
O141 C121 1.259 . S
O141 Co122 2.021 . S
H142 C133 0.930 . S
H143 C132 0.931 . S
O144 Co120 2.117 . S
O144 C121 1.258 . S
O145 Co120 2.020 . S
O145 C147 1.256 . S
O146 Co122 2.062 . S
O146 C147 1.255 . S
C147 O145 1.256 . S
C147 O146 1.255 . S
H148 C127 0.931 . S
H149 C135 0.931 . S
Co150 N155 2.057 . S
Co150 O167 2.021 . S
Co150 O170 2.062 . S
Co150 O174 2.117 . S
Co150 O175 2.020 . S
C151 O171 1.259 . S
C151 O174 1.258 . S
Co152 N161 2.057 . S
Co152 O168 2.117 . S
Co152 O169 2.020 . S
Co152 O171 2.021 . S
Co152 O176 2.062 . S
C153 N155 1.316 . S
C153 N156 1.347 . S
C153 H158 0.931 . S
C154 N155 1.375 . S
C154 C157 1.350 . S
C154 H159 0.930 . S
N155 Co150 2.057 . S
N155 C153 1.316 . S
N155 C154 1.375 . S
N156 C153 1.347 . S
N156 C157 1.373 . S
C157 C154 1.350 . S
C157 N156 1.373 . S
C157 H178 0.931 . S
H158 C153 0.931 . S
H159 C154 0.930 . S
C160 O167 1.259 . S
C160 O168 1.258 . S
N161 Co152 2.057 . S
N161 C162 1.316 . S
N161 C163 1.375 . S
C162 N161 1.316 . S
C162 N164 1.347 . S
C162 H173 0.931 . S
C163 N161 1.375 . S
C163 C165 1.350 . S
C163 H172 0.930 . S
N164 C162 1.347 . S
N164 C165 1.373 . S
C165 C163 1.350 . S
C165 N164 1.373 . S
C165 H179 0.931 . S
C166 O169 1.256 . S
C166 O170 1.255 . S
O167 Co150 2.021 . S
O167 C160 1.259 . S
O168 Co152 2.117 . S
O168 C160 1.258 . S
O169 Co152 2.020 . S
O169 C166 1.256 . S
O170 Co150 2.062 . S
O170 C166 1.255 . S
O171 C151 1.259 . S
O171 Co152 2.021 . S
H172 C163 0.930 . S
H173 C162 0.931 . S
O174 Co150 2.117 . S
O174 C151 1.258 . S
O175 Co150 2.020 . S
O175 C177 1.256 . S
O176 Co152 2.062 . S
O176 C177 1.255 . S
C177 O175 1.256 . S
C177 O176 1.255 . S
H178 C157 0.931 . S
H179 C165 0.931 . S
Co180 N185 2.057 . S
Co180 O197 2.021 1_556 S
Co180 O200 2.062 1_556 S
Co180 O204 2.117 . S
Co180 O205 2.020 . S
C181 O201 1.259 . S
C181 O204 1.258 . S
Co182 N191 2.057 . S
Co182 O198 2.117 . S
Co182 O199 2.020 . S
Co182 O201 2.021 1_554 S
Co182 O206 2.062 1_554 S
C183 N185 1.316 1_554 S
C183 N186 1.347 . S
C183 H188 0.931 . S
C184 N185 1.375 . S
C184 C187 1.350 . S
C184 H189 0.930 . S
N185 Co180 2.057 . S
N185 C183 1.316 1_556 S
N185 C184 1.375 . S
N186 C183 1.347 . S
N186 C187 1.373 1_554 S
C187 C184 1.350 . S
C187 N186 1.373 1_556 S
C187 H208 0.931 . S
H188 C183 0.931 . S
H189 C184 0.930 . S
C190 O197 1.259 . S
C190 O198 1.258 . S
N191 Co182 2.057 . S
N191 C192 1.316 1_554 S
N191 C193 1.375 . S
C192 N191 1.316 1_556 S
C192 N194 1.347 . S
C192 H203 0.931 . S
C193 N191 1.375 . S
C193 C195 1.350 . S
C193 H202 0.930 . S
N194 C192 1.347 . S
N194 C195 1.373 1_556 S
C195 C193 1.350 . S
C195 N194 1.373 1_554 S
C195 H209 0.931 . S
C196 O199 1.256 . S
C196 O200 1.255 . S
O197 Co180 2.021 1_554 S
O197 C190 1.259 . S
O198 Co182 2.117 . S
O198 C190 1.258 . S
O199 Co182 2.020 . S
O199 C196 1.256 . S
O200 Co180 2.062 1_554 S
O200 C196 1.255 . S
O201 C181 1.259 . S
O201 Co182 2.021 1_556 S
H202 C193 0.930 . S
H203 C192 0.931 . S
O204 Co180 2.117 . S
O204 C181 1.258 . S
O205 Co180 2.020 . S
O205 C207 1.256 . S
O206 Co182 2.062 1_556 S
O206 C207 1.255 . S
C207 O205 1.256 . S
C207 O206 1.255 . S
H208 C187 0.931 . S
H209 C195 0.931 . S
Co210 N215 2.057 . S
Co210 O227 2.021 1_455 S
Co210 O230 2.062 . S
Co210 O234 2.117 . S
Co210 O235 2.020 . S
C211 O231 1.259 . S
C211 O234 1.258 . S
Co212 N221 2.057 . S
Co212 O228 2.117 . S
Co212 O229 2.020 . S
Co212 O231 2.021 1_655 S
Co212 O236 2.062 . S
C213 N215 1.316 . S
C213 N216 1.347 . S
C213 H218 0.931 . S
C214 N215 1.375 . S
C214 C217 1.350 . S
C214 H219 0.930 . S
N215 Co210 2.057 . S
N215 C213 1.316 . S
N215 C214 1.375 . S
N216 C213 1.347 . S
N216 C217 1.373 . S
C217 C214 1.350 . S
C217 N216 1.373 . S
C217 H238 0.931 . S
H218 C213 0.931 . S
H219 C214 0.930 . S
C220 O227 1.259 . S
C220 O228 1.258 . S
N221 Co212 2.057 . S
N221 C222 1.316 . S
N221 C223 1.375 . S
C222 N221 1.316 . S
C222 N224 1.347 . S
C222 H233 0.931 . S
C223 N221 1.375 . S
C223 C225 1.350 . S
C223 H232 0.930 . S
N224 C222 1.347 . S
N224 C225 1.373 . S
C225 C223 1.350 . S
C225 N224 1.373 . S
C225 H239 0.931 . S
C226 O229 1.256 . S
C226 O230 1.255 1_655 S
O227 Co210 2.021 1_655 S
O227 C220 1.259 . S
O228 Co212 2.117 . S
O228 C220 1.258 . S
O229 Co212 2.020 . S
O229 C226 1.256 . S
O230 Co210 2.062 . S
O230 C226 1.255 1_455 S
O231 C211 1.259 . S
O231 Co212 2.021 1_455 S
H232 C223 0.930 . S
H233 C222 0.931 . S
O234 Co210 2.117 . S
O234 C211 1.258 . S
O235 Co210 2.020 . S
O235 C237 1.256 . S
O236 Co212 2.062 . S
O236 C237 1.255 1_655 S
C237 O235 1.256 . S
C237 O236 1.255 1_455 S
H238 C217 0.931 . S
H239 C225 0.931 . S
C240 C241 1.387 . S
C240 H244 0.950 . S
C240 C249 1.390 . S
C241 C240 1.387 . S
C241 C243 1.387 . S
H242 C249 0.950 . S
C243 C241 1.387 . S
C243 C245 1.390 . S
C243 H247 0.950 . S
H244 C240 0.950 . S
C245 C243 1.390 . S
C245 C246 1.387 . S
C245 H248 0.950 . S
C246 C245 1.387 . S
C246 C249 1.387 . S
H247 C243 0.950 . S
H248 C245 0.950 . S
C249 C240 1.390 . S
C249 H242 0.950 . S
C249 C246 1.387 . S
C250 C251 1.387 . S
C250 H254 0.950 . S
C250 C259 1.390 . S
C251 C250 1.387 . S
C251 C253 1.387 . S
H252 C259 0.950 . S
C253 C251 1.387 . S
C253 C255 1.390 . S
C253 H257 0.950 . S
H254 C250 0.950 . S
C255 C253 1.390 . S
C255 C256 1.387 . S
C255 H258 0.950 . S
C256 C255 1.387 . S
C256 C259 1.387 . S
H257 C253 0.950 . S
H258 C255 0.950 . S
C259 C250 1.390 . S
C259 H252 0.950 . S
C259 C256 1.387 . S
C260 C261 1.387 . S
C260 H264 0.950 . S
C260 C269 1.390 . S
C261 C260 1.387 . S
C261 C263 1.387 . S
H262 C269 0.950 . S
C263 C261 1.387 . S
C263 C265 1.390 . S
C263 H267 0.950 1_556 S
H264 C260 0.950 . S
C265 C263 1.390 . S
C265 C266 1.387 . S
C265 H268 0.950 1_556 S
C266 C265 1.387 . S
C266 C269 1.387 . S
H267 C263 0.950 1_554 S
H268 C265 0.950 1_554 S
C269 C260 1.390 . S
C269 H262 0.950 . S
C269 C266 1.387 . S
C270 C271 1.387 . S
C270 H274 0.950 . S
C270 C279 1.390 . S
C271 C270 1.387 . S
C271 C273 1.387 . S
H272 C279 0.950 . S
C273 C271 1.387 . S
C273 C275 1.390 . S
C273 H277 0.950 1_554 S
H274 C270 0.950 . S
C275 C273 1.390 . S
C275 C276 1.387 . S
C275 H278 0.950 . S
C276 C275 1.387 . S
C276 C279 1.387 . S
H277 C273 0.950 1_556 S
H278 C275 0.950 . S
C279 C270 1.390 . S
C279 H272 0.950 . S
C279 C276 1.387 . S
C280 C281 1.387 . S
C280 H284 0.950 . S
C280 C289 1.390 . S
C281 C280 1.387 . S
C281 C283 1.387 . S
H282 C289 0.950 . S
C283 C281 1.387 . S
C283 C285 1.390 . S
C283 H287 0.950 . S
H284 C280 0.950 . S
C285 C283 1.390 . S
C285 C286 1.387 . S
C285 H288 0.950 . S
C286 C285 1.387 . S
C286 C289 1.387 . S
H287 C283 0.950 . S
H288 C285 0.950 . S
C289 C280 1.390 . S
C289 H282 0.950 . S
C289 C286 1.387 . S
C290 C291 1.387 . S
C290 H294 0.950 . S
C290 C299 1.390 . S
C291 C290 1.387 . S
C291 C293 1.387 . S
H292 C299 0.950 . S
C293 C291 1.387 . S
C293 C295 1.390 . S
C293 H297 0.950 . S
H294 C290 0.950 . S
C295 C293 1.390 . S
C295 C296 1.387 . S
C295 H298 0.950 . S
C296 C295 1.387 . S
C296 C299 1.387 . S
H297 C293 0.950 . S
H298 C295 0.950 . S
C299 C290 1.390 . S
C299 H292 0.950 . S
C299 C296 1.387 . S
C300 C301 1.387 . S
C300 H304 0.950 . S
C300 C309 1.390 . S
C301 C300 1.387 . S
C301 C303 1.387 . S
H302 C309 0.950 . S
C303 C301 1.387 . S
C303 C305 1.390 . S
C303 H307 0.950 1_554 S
H304 C300 0.950 . S
C305 C303 1.390 . S
C305 C306 1.387 . S
C305 H308 0.950 1_554 S
C306 C305 1.387 . S
C306 C309 1.387 . S
H307 C303 0.950 1_556 S
H308 C305 0.950 1_556 S
C309 C300 1.390 . S
C309 H302 0.950 . S
C309 C306 1.387 . S
C310 C311 1.387 . S
C310 H314 0.950 . S
C310 C319 1.390 . S
C311 C310 1.387 . S
C311 C313 1.387 . S
H312 C319 0.950 . S
C313 C311 1.387 . S
C313 C315 1.390 . S
C313 H317 0.950 1_556 S
H314 C310 0.950 . S
C315 C313 1.390 . S
C315 C316 1.387 . S
C315 H318 0.950 1_556 S
C316 C315 1.387 . S
C316 C319 1.387 . S
H317 C313 0.950 1_554 S
H318 C315 0.950 1_554 S
C319 C310 1.390 . S
C319 H312 0.950 . S
C319 C316 1.387 . S
C320 C321 1.387 . S
C320 H324 0.950 . S
C320 C329 1.390 . S
C321 C320 1.387 . S
C321 C323 1.387 . S
H322 C329 0.950 . S
C323 C321 1.387 . S
C323 C325 1.390 . S
C323 H327 0.950 1_556 S
H324 C320 0.950 . S
C325 C323 1.390 . S
C325 C326 1.387 . S
C325 H328 0.950 . S
C326 C325 1.387 . S
C326 C329 1.387 . S
H327 C323 0.950 1_554 S
H328 C325 0.950 . S
C329 C320 1.390 . S
C329 H322 0.950 . S
C329 C326 1.387 . S
C330 C331 1.387 . S
C330 H334 0.950 . S
C330 C339 1.390 . S
C331 C330 1.387 . S
C331 C333 1.387 1_554 S
H332 C339 0.950 . S
C333 C331 1.387 1_556 S
C333 C335 1.390 . S
C333 H337 0.950 . S
H334 C330 0.950 . S
C335 C333 1.390 . S
C335 C336 1.387 1_556 S
C335 H338 0.950 . S
C336 C335 1.387 1_554 S
C336 C339 1.387 . S
H337 C333 0.950 . S
H338 C335 0.950 . S
C339 C330 1.390 . S
C339 H332 0.950 . S
C339 C336 1.387 . S
C340 C341 1.387 . S
C340 H344 0.950 . S
C340 C349 1.390 . S
C341 C340 1.387 . S
C341 C343 1.387 . S
H342 C349 0.950 . S
C343 C341 1.387 . S
C343 C345 1.390 . S
C343 H347 0.950 . S
H344 C340 0.950 . S
C345 C343 1.390 . S
C345 C346 1.387 . S
C345 H348 0.950 . S
C346 C345 1.387 . S
C346 C349 1.387 . S
H347 C343 0.950 . S
H348 C345 0.950 . S
C349 C340 1.390 . S
C349 H342 0.950 . S
C349 C346 1.387 . S
C350 C351 1.387 . S
C350 H354 0.950 . S
C350 C359 1.390 . S
C351 C350 1.387 . S
C351 C353 1.387 . S
H352 C359 0.950 . S
C353 C351 1.387 . S
C353 C355 1.390 . S
C353 H357 0.950 . S
H354 C350 0.950 . S
C355 C353 1.390 . S
C355 C356 1.387 . S
C355 H358 0.950 . S
C356 C355 1.387 . S
C356 C359 1.387 . S
H357 C353 0.950 . S
H358 C355 0.950 . S
C359 C350 1.390 . S
C359 H352 0.950 . S
C359 C356 1.387 . S
C360 C361 1.387 . S
C360 H364 0.950 . S
C360 C369 1.390 . S
C361 C360 1.387 . S
C361 C363 1.387 . S
H362 C369 0.950 . S
C363 C361 1.387 . S
C363 C365 1.390 . S
C363 H367 0.950 . S
H364 C360 0.950 . S
C365 C363 1.390 . S
C365 C366 1.387 . S
C365 H368 0.950 1_554 S
C366 C365 1.387 . S
C366 C369 1.387 . S
H367 C363 0.950 . S
H368 C365 0.950 1_556 S
C369 C360 1.390 . S
C369 H362 0.950 . S
C369 C366 1.387 . S
C370 C371 1.387 . S
C370 H374 0.950 . S
C370 C379 1.390 . S
C371 C370 1.387 . S
C371 C373 1.387 . S
H372 C379 0.950 . S
C373 C371 1.387 . S
C373 C375 1.390 . S
C373 H377 0.950 1_556 S
H374 C370 0.950 . S
C375 C373 1.390 . S
C375 C376 1.387 . S
C375 H378 0.950 . S
C376 C375 1.387 . S
C376 C379 1.387 . S
H377 C373 0.950 1_554 S
H378 C375 0.950 . S
C379 C370 1.390 . S
C379 H372 0.950 . S
C379 C376 1.387 . S
C380 C381 1.387 . S
C380 H384 0.950 . S
C380 C389 1.390 . S
C381 C380 1.387 . S
C381 C383 1.387 . S
H382 C389 0.950 . S
C383 C381 1.387 . S
C383 C385 1.390 . S
C383 H387 0.950 . S
H384 C380 0.950 . S
C385 C383 1.390 . S
C385 C386 1.387 . S
C385 H388 0.950 . S
C386 C385 1.387 . S
C386 C389 1.387 . S
H387 C383 0.950 . S
H388 C385 0.950 . S
C389 C380 1.390 . S
C389 H382 0.950 . S
C389 C386 1.387 . S
C390 C391 1.387 . S
C390 H394 0.950 . S
C390 C399 1.390 . S
C391 C390 1.387 . S
C391 C393 1.387 . S
H392 C399 0.950 . S
C393 C391 1.387 . S
C393 C395 1.390 . S
C393 H397 0.950 . S
H394 C390 0.950 . S
C395 C393 1.390 . S
C395 C396 1.387 . S
C395 H398 0.950 . S
C396 C395 1.387 . S
C396 C399 1.387 . S
H397 C393 0.950 . S
H398 C395 0.950 . S
C399 C390 1.390 . S
C399 H392 0.950 . S
C399 C396 1.387 . S
C400 C401 1.387 1_565 S
C400 H404 0.950 . S
C400 C409 1.390 1_556 S
C401 C400 1.387 1_545 S
C401 C403 1.387 1_455 S
H402 C409 0.950 . S
C403 C401 1.387 1_655 S
C403 C405 1.390 1_556 S
C403 H407 0.950 . S
H404 C400 0.950 . S
C405 C403 1.390 1_554 S
C405 C406 1.387 1_545 S
C405 H408 0.950 . S
C406 C405 1.387 1_565 S
C406 C409 1.387 1_655 S
H407 C403 0.950 . S
H408 C405 0.950 . S
C409 C400 1.390 1_554 S
C409 H402 0.950 . S
C409 C406 1.387 1_455 S
C410 C411 1.387 . S
C410 H414 0.950 . S
C410 C419 1.390 . S
C411 C410 1.387 . S
C411 C413 1.387 . S
H412 C419 0.950 . S
C413 C411 1.387 . S
C413 C415 1.390 . S
C413 H417 0.950 . S
H414 C410 0.950 . S
C415 C413 1.390 . S
C415 C416 1.387 . S
C415 H418 0.950 . S
C416 C415 1.387 . S
C416 C419 1.387 . S
H417 C413 0.950 . S
H418 C415 0.950 . S
C419 C410 1.390 . S
C419 H412 0.950 . S
C419 C416 1.387 . S
C420 C421 1.388 . S
C420 H424 0.950 . S
C420 C429 1.390 . S
C421 C420 1.388 . S
C421 C423 1.383 1_565 S
H422 C429 0.950 . S
C423 C421 1.383 1_545 S
C423 C425 1.390 . S
C423 H427 0.950 . S
H424 C420 0.950 . S
C425 C423 1.390 . S
C425 C426 1.388 . S
C425 H428 0.950 . S
C426 C425 1.388 . S
C426 C429 1.381 1_545 S
H427 C423 0.950 . S
H428 C425 0.950 . S
C429 C420 1.390 . S
C429 H422 0.950 . S
C429 C426 1.381 1_565 S
C430 C431 1.387 . S
C430 H434 0.950 . S
C430 C439 1.390 . S
C431 C430 1.387 . S
C431 C433 1.387 . S
H432 C439 0.950 . S
C433 C431 1.387 . S
C433 C435 1.390 . S
C433 H437 0.950 . S
H434 C430 0.950 . S
C435 C433 1.390 . S
C435 C436 1.387 . S
C435 H438 0.950 . S
C436 C435 1.387 . S
C436 C439 1.387 . S
H437 C433 0.950 . S
H438 C435 0.950 . S
C439 C430 1.390 . S
C439 H432 0.950 . S
C439 C436 1.387 . S
C440 C441 1.387 . S
C440 H444 0.950 . S
C440 C449 1.390 . S
C441 C440 1.387 . S
C441 C443 1.387 . S
H442 C449 0.950 . S
C443 C441 1.387 . S
C443 C445 1.390 . S
C443 H447 0.950 . S
H444 C440 0.950 . S
C445 C443 1.390 . S
C445 C446 1.387 . S
C445 H448 0.950 . S
C446 C445 1.387 . S
C446 C449 1.387 . S
H447 C443 0.950 . S
H448 C445 0.950 . S
C449 C440 1.390 . S
C449 H442 0.950 . S
C449 C446 1.387 . S
C450 C451 1.387 . S
C450 H454 0.950 . S
C450 C459 1.390 . S
C451 C450 1.387 . S
C451 C453 1.387 . S
H452 C459 0.950 . S
C453 C451 1.387 . S
C453 C455 1.390 . S
C453 H457 0.950 . S
H454 C450 0.950 . S
C455 C453 1.390 . S
C455 C456 1.387 . S
C455 H458 0.950 . S
C456 C455 1.387 . S
C456 C459 1.387 . S
H457 C453 0.950 . S
H458 C455 0.950 . S
C459 C450 1.390 . S
C459 H452 0.950 . S
C459 C456 1.387 . S
C460 C461 1.387 . S
C460 H464 0.950 . S
C460 C469 1.390 . S
C461 C460 1.387 . S
C461 C463 1.387 . S
H462 C469 0.950 . S
C463 C461 1.387 . S
C463 C465 1.390 . S
C463 H467 0.950 . S
H464 C460 0.950 . S
C465 C463 1.390 . S
C465 C466 1.387 . S
C465 H468 0.950 . S
C466 C465 1.387 . S
C466 C469 1.387 . S
H467 C463 0.950 . S
H468 C465 0.950 . S
C469 C460 1.390 . S
C469 H462 0.950 . S
C469 C466 1.387 . S
C470 C471 1.387 . S
C470 H474 0.950 . S
C470 C479 1.390 1_556 S
C471 C470 1.387 . S
C471 C473 1.387 1_455 S
H472 C479 0.950 . S
C473 C471 1.387 1_655 S
C473 C475 1.390 1_556 S
C473 H477 0.950 . S
H474 C470 0.950 . S
C475 C473 1.390 1_554 S
C475 C476 1.387 . S
C475 H478 0.950 . S
C476 C475 1.387 . S
C476 C479 1.387 1_655 S
H477 C473 0.950 . S
H478 C475 0.950 . S
C479 C470 1.390 1_554 S
C479 H472 0.950 . S
C479 C476 1.387 1_455 S
C241 N14 0.760 . S
C246 N104 0.759 . S
C251 C10 1.505 . S
C256 N44 1.475 . S
C261 C40 2.817 . S
C266 C70 2.820 . S
C271 N74 1.476 . S
C276 C100 1.502 . S
C281 N6 0.761 . S
C286 N156 0.769 . S
C291 C1 1.506 . S
C296 N126 1.478 . S
C301 C121 2.817 . S
C306 C61 2.815 . S
C311 C151 1.506 . S
C316 N66 1.481 . S
C321 N194 0.762 . S
C326 N164 0.764 . S
C331 N134 1.478 . S
C336 C190 1.506 . S
C341 C220 2.817 . S
C346 C130 2.820 . S
C351 C160 1.505 . S
C356 N224 1.478 . S
C361 N96 0.760 . S
C366 N186 0.763 . S
C371 C181 1.505 . S
C376 N36 1.477 . S
C381 C31 2.818 . S
C386 C211 2.814 . S
C391 C91 1.506 . S
C396 N216 1.476 . S
C401 C16 1.387 . S
C406 C27 1.387 . S
C411 C57 1.330 . S
C416 C46 1.330 1_554 S
C421 C76 1.335 . S
C426 C87 1.336 . S
C431 C106 1.387 1_556 S
C436 C117 1.387 . S
C441 C147 1.330 1_556 S
C446 C136 1.330 . S
C451 C166 1.387 . S
C456 C177 1.387 1_554 S
C461 C207 1.388 . S
C466 C196 1.388 . S
C471 C237 1.330 . S
C476 C226 1.330 . S
