# Generated by pormake.
# Topology sml, (6)-cn, num edge types: 1
# Building blocks:
#     Node 0, Type 0, BuildingBlock: FUNLAD_clean_sbu_0, # of connection points: 6
#     Node 1, Type 0, BuildingBlock: FUNLAD_clean_sbu_0, # of connection points: 6
#     Node 2, Type 0, BuildingBlock: FUNLAD_clean_sbu_0, # of connection points: 6
#     Node 3, Type 0, BuildingBlock: FUNLAD_clean_sbu_0, # of connection points: 6
#     Node 4, Type 0, BuildingBlock: FUNLAD_clean_sbu_0, # of connection points: 6
#     Node 5, Type 0, BuildingBlock: FUNLAD_clean_sbu_0, # of connection points: 6
#     Edge 6, Type (0, 0), BuildingBlock: KIFKEQ_clean_linker_1, # of connection points: 2
#     Edge 7, Type (0, 0), BuildingBlock: KIFKEQ_clean_linker_1, # of connection points: 2
#     Edge 8, Type (0, 0), BuildingBlock: KIFKEQ_clean_linker_1, # of connection points: 2
#     Edge 9, Type (0, 0), BuildingBlock: KIFKEQ_clean_linker_1, # of connection points: 2
#     Edge 10, Type (0, 0), BuildingBlock: KIFKEQ_clean_linker_1, # of connection points: 2
#     Edge 11, Type (0, 0), BuildingBlock: KIFKEQ_clean_linker_1, # of connection points: 2
#     Edge 12, Type (0, 0), BuildingBlock: KIFKEQ_clean_linker_1, # of connection points: 2
#     Edge 13, Type (0, 0), BuildingBlock: KIFKEQ_clean_linker_1, # of connection points: 2
#     Edge 14, Type (0, 0), BuildingBlock: KIFKEQ_clean_linker_1, # of connection points: 2
#     Edge 15, Type (0, 0), BuildingBlock: KIFKEQ_clean_linker_1, # of connection points: 2
#     Edge 16, Type (0, 0), BuildingBlock: KIFKEQ_clean_linker_1, # of connection points: 2
#     Edge 17, Type (0, 0), BuildingBlock: KIFKEQ_clean_linker_1, # of connection points: 2
#     Edge 18, Type (0, 0), BuildingBlock: KIFKEQ_clean_linker_1, # of connection points: 2
#     Edge 19, Type (0, 0), BuildingBlock: KIFKEQ_clean_linker_1, # of connection points: 2
#     Edge 20, Type (0, 0), BuildingBlock: KIFKEQ_clean_linker_1, # of connection points: 2
#     Edge 21, Type (0, 0), BuildingBlock: KIFKEQ_clean_linker_1, # of connection points: 2
#     Edge 22, Type (0, 0), BuildingBlock: KIFKEQ_clean_linker_1, # of connection points: 2
#     Edge 23, Type (0, 0), BuildingBlock: KIFKEQ_clean_linker_1, # of connection points: 2
# Relax obj value: 0.384
# Max RMSD: 0.211
# Mean RMSD: 0.211
data_MOF--net-sml--node1-FUNLAD_clean_sbu_0--edge1-KIFKEQ_clean_linker_1
_symmetry_space_group_name_H-M    P1
_symmetry_Int_Tables_number       1
_symmetry_cell_setting            triclinic
loop_
_symmetry_equiv_pos_as_xyz
'x, y, z'
_cell_length_a     48.069566
_cell_length_b     48.096364
_cell_length_c     15.227242
_cell_angle_alpha  90.340542
_cell_angle_beta   89.599314
_cell_angle_gamma 119.92638
loop_
_atom_site_label
_atom_site_type_symbol
_atom_site_fract_x
_atom_site_fract_y
_atom_site_fract_z
_atom_type_partial_charge
C0 C 0.15298 0.39954 0.84415 0.0
N1 N 0.17553 0.34261 -0.00209 0.0
C2 C 0.15501 0.31745 0.94662 0.0
C3 C 0.16321 0.29466 0.91849 0.0
C4 C 0.19297 0.29824 0.94239 0.0
C5 C 0.21278 0.32334 -0.00072 0.0
C6 C 0.20346 0.34522 0.02686 0.0
Zn7 Zn 0.16929 0.38155 0.01587 0.0
C8 C 0.23043 0.44261 -0.02425 0.0
N9 N 0.15992 0.46543 0.03954 0.0
C10 C 0.13378 0.46782 0.01723 0.0
C11 C 0.18543 0.49006 0.08077 0.0
C12 C 0.1857 0.51849 0.09955 0.0
C13 C 0.15926 0.52177 0.07741 0.0
C14 C 0.13283 0.49595 0.03642 0.0
Zn15 Zn 0.16335 0.4248 0.02084 0.0
O16 O 0.15906 0.38023 0.88458 0.0
C17 C 0.10211 0.36494 0.06101 0.0
O18 O 0.15199 0.422 0.8861 0.0
H19 H 0.20563 0.4876 0.10057 0.0
H20 H 0.13309 0.316 0.92351 0.0
H21 H 0.11357 0.44787 -0.01459 0.0
O22 O 0.11895 0.35163 0.04618 0.0
O23 O 0.11494 0.39521 0.05378 0.0
H24 H 0.21946 0.36535 0.06752 0.0
O25 O 0.17477 0.42666 0.15425 0.0
O26 O 0.17915 0.38332 0.1488 0.0
O27 O 0.21165 0.45362 -0.01233 0.0
O28 O 0.21961 0.41268 -0.01525 0.0
C29 C 0.17946 0.40601 0.19251 0.0
H30 H 0.14738 0.27562 0.87437 0.0
H31 H 0.23578 0.32666 0.01974 0.0
H32 H 0.20627 0.53761 0.13286 0.0
H33 H 0.11193 0.49764 0.01879 0.0
C34 C 0.81738 0.23573 0.46536 0.0
N35 N 0.79536 0.15559 0.31127 0.0
C36 C 0.81191 0.15029 0.37497 0.0
C37 C 0.80221 0.11903 0.40247 0.0
C38 C 0.77552 0.09285 0.36312 0.0
C39 C 0.76074 0.09907 0.2924 0.0
C40 C 0.77076 0.13066 0.26836 0.0
Zn41 Zn 0.80195 0.20088 0.29267 0.0
C42 C 0.74049 0.20097 0.33124 0.0
N43 N 0.8117 0.29408 0.26843 0.0
C44 C 0.83778 0.32248 0.29197 0.0
C45 C 0.78755 0.29339 0.2206 0.0
C46 C 0.78948 0.32166 0.19175 0.0
C47 C 0.81651 0.35125 0.21192 0.0
C48 C 0.84059 0.35164 0.26467 0.0
Zn49 Zn 0.80766 0.24998 0.28924 0.0
O50 O 0.81129 0.21034 0.42431 0.0
C51 C 0.86922 0.25072 0.25136 0.0
O52 O 0.81857 0.25922 0.42401 0.0
H53 H 0.76708 0.27074 0.2018 0.0
H54 H 0.83148 0.17035 0.40832 0.0
H55 H 0.85684 0.32253 0.32943 0.0
O56 O 0.85221 0.22066 0.26542 0.0
O57 O 0.85641 0.26829 0.25791 0.0
H58 H 0.75767 0.13522 0.21843 0.0
O59 O 0.79679 0.23997 0.15571 0.0
O60 O 0.79312 0.19261 0.15919 0.0
O61 O 0.75901 0.23085 0.32078 0.0
O62 O 0.75165 0.18209 0.32112 0.0
C63 C 0.79259 0.21487 0.11642 0.0
H64 H 0.81439 0.11571 0.45748 0.0
H65 H 0.7407 0.0798 0.258 0.0
H66 H 0.7701 0.32032 0.15261 0.0
H67 H 0.86179 0.37406 0.28169 0.0
C68 C 0.56599 0.72985 0.53368 0.0
N69 N 0.62336 0.80937 0.6927 0.0
C70 C 0.64573 0.81542 0.62914 0.0
C71 C 0.66744 0.84698 0.60423 0.0
C72 C 0.66654 0.8727 0.64609 0.0
C73 C 0.64506 0.86565 0.71681 0.0
C74 C 0.62334 0.83379 0.73816 0.0
Zn75 Zn 0.58431 0.76398 0.70663 0.0
C76 C 0.52352 0.76457 0.66737 0.0
N77 N 0.50044 0.67072 0.72456 0.0
C78 C 0.499 0.64278 0.69939 0.0
C79 C 0.47498 0.6706 0.76461 0.0
C80 C 0.44662 0.64194 0.77919 0.0
C81 C 0.44434 0.61282 0.75393 0.0
C82 C 0.47102 0.61327 0.7143 0.0
Zn83 Zn 0.5409 0.71494 0.7099 0.0
O84 O 0.58611 0.7555 0.57221 0.0
C85 C 0.60074 0.71329 0.74865 0.0
O86 O 0.54378 0.70708 0.57721 0.0
H87 H 0.47667 0.69281 0.78638 0.0
H88 H 0.64552 0.79576 0.59375 0.0
H89 H 0.51958 0.64335 0.66831 0.0
O90 O 0.61416 0.74345 0.73537 0.0
O91 O 0.57047 0.69599 0.74085 0.0
H92 H 0.60526 0.82868 0.78788 0.0
O93 O 0.53824 0.72321 0.84151 0.0
O94 O 0.58123 0.77097 0.84257 0.0
O95 O 0.51222 0.73475 0.67871 0.0
O96 O 0.5535 0.78347 0.67683 0.0
C97 C 0.55811 0.74801 0.88328 0.0
H98 H 0.68331 0.85092 0.54912 0.0
H99 H 0.64397 0.8845 0.75312 0.0
H100 H 0.42674 0.64251 0.81143 0.0
H101 H 0.47008 0.59118 0.69426 0.0
C102 C 0.73377 0.55994 0.1422 0.0
N103 N 0.81216 0.6192 -0.01538 0.0
C104 C 0.81781 0.6406 0.0506 0.0
C105 C 0.84927 0.66232 0.07633 0.0
C106 C 0.87524 0.66242 0.03279 0.0
C107 C 0.86858 0.6421 0.95963 0.0
C108 C 0.83685 0.62032 0.9375 0.0
Zn109 Zn 0.76727 0.57959 -0.03099 0.0
C110 C 0.76993 0.51968 0.00166 0.0
N111 N 0.67521 0.49418 0.94925 0.0
C112 C 0.64657 0.49046 -0.0226 0.0
C113 C 0.67667 0.47013 0.90572 0.0
C114 C 0.64905 0.44086 0.89096 0.0
C115 C 0.61927 0.43614 0.91973 0.0
C116 C 0.61799 0.46144 -0.03749 0.0
Zn117 Zn 0.71863 0.53558 -0.03445 0.0
O118 O 0.75899 0.57955 0.10125 0.0
C119 C 0.71546 0.59496 0.93242 0.0
O120 O 0.71041 0.53756 0.10066 0.0
H121 H 0.69938 0.47358 0.88175 0.0
H122 H 0.79795 0.63952 0.08727 0.0
H123 H 0.64587 0.50995 0.01122 0.0
O124 O 0.74562 0.60852 0.94586 0.0
O125 O 0.69842 0.56454 0.93729 0.0
H126 H 0.83208 0.60302 0.88586 0.0
O127 O 0.7275 0.53431 0.83162 0.0
O128 O 0.77423 0.57877 0.83507 0.0
O129 O 0.73986 0.50771 -0.00628 0.0
O130 O 0.78813 0.54977 -0.00716 0.0
C131 C 0.75221 0.55569 0.79227 0.0
H132 H 0.85295 0.67733 0.13327 0.0
H133 H 0.88767 0.64186 0.92208 0.0
H134 H 0.65093 0.42212 0.85628 0.0
H135 H 0.59533 0.45861 -0.0147 0.0
C136 C 0.23937 0.81029 0.19183 0.0
N137 N 0.15969 0.78824 0.35199 0.0
C138 C 0.15383 0.80499 0.29016 0.0
C139 C 0.1223 0.79566 0.2663 0.0
C140 C 0.09646 0.76912 0.30738 0.0
C141 C 0.10334 0.7541 0.37614 0.0
C142 C 0.13515 0.76375 0.39652 0.0
Zn143 Zn 0.20507 0.79465 0.36576 0.0
C144 C 0.20512 0.73377 0.32559 0.0
N145 N 0.29904 0.80541 0.3826 0.0
C146 C 0.3272 0.83186 0.3591 0.0
C147 C 0.29887 0.78025 0.42357 0.0
C148 C 0.32743 0.7807 0.44109 0.0
C149 C 0.35678 0.80752 0.41795 0.0
C150 C 0.35663 0.83354 0.37702 0.0
Zn151 Zn 0.25466 0.80142 0.36665 0.0
O152 O 0.21385 0.80499 0.2314 0.0
C153 C 0.25524 0.86246 0.40497 0.0
O154 O 0.26232 0.81094 0.23422 0.0
H155 H 0.27651 0.75983 0.44443 0.0
H156 H 0.17359 0.82446 0.25554 0.0
H157 H 0.32689 0.85177 0.32747 0.0
O158 O 0.22497 0.84465 0.39621 0.0
O159 O 0.27335 0.85041 0.39462 0.0
H160 H 0.14015 0.75048 0.44491 0.0
O161 O 0.24653 0.79169 0.49871 0.0
O162 O 0.19776 0.78452 0.50088 0.0
O163 O 0.23491 0.75248 0.33716 0.0
O164 O 0.18601 0.74467 0.33474 0.0
C165 C 0.22139 0.78571 0.54097 0.0
H166 H 0.11846 0.808 0.21263 0.0
H167 H 0.08437 0.73415 0.4117 0.0
H168 H 0.32656 0.76043 0.47438 0.0
H169 H 0.37891 0.8547 0.35863 0.0
C170 C 0.40669 0.14043 0.84769 0.0
N171 N 0.3513 0.16585 0.69539 0.0
C172 C 0.35193 0.18094 0.77196 0.0
C173 C 0.32814 0.18851 0.79136 0.0
C174 C 0.30369 0.18131 0.73065 0.0
C175 C 0.30356 0.16606 0.65152 0.0
C176 C 0.3276 0.15816 0.63548 0.0
Zn177 Zn 0.38898 0.15748 0.67508 0.0
C178 C 0.45184 0.2176 0.71185 0.0
N179 N 0.46994 0.14328 0.65164 0.0
C180 C 0.49605 0.15816 0.70466 0.0
C181 C 0.47046 0.12736 0.57799 0.0
C182 C 0.49859 0.12777 0.5521 0.0
C183 C 0.52656 0.14464 0.60256 0.0
C184 C 0.52467 0.15902 0.68146 0.0
Zn185 Zn 0.43129 0.14989 0.6715 0.0
O186 O 0.3871 0.14584 0.8064 0.0
C187 C 0.3692 0.08963 0.63489 0.0
O188 O 0.4296 0.14007 0.80655 0.0
H189 H 0.44952 0.11578 0.53641 0.0
H190 H 0.37131 0.18775 0.81793 0.0
H191 H 0.49518 0.1707 0.7629 0.0
O192 O 0.35728 0.10798 0.64339 0.0
O193 O 0.39919 0.10106 0.64546 0.0
H194 H 0.32758 0.14637 0.57476 0.0
O195 O 0.43234 0.16008 0.53731 0.0
O196 O 0.3913 0.16834 0.5429 0.0
O197 O 0.46254 0.1986 0.69781 0.0
O198 O 0.4218 0.20702 0.70633 0.0
C199 C 0.41295 0.16664 0.49911 0.0
H200 H 0.32946 0.20089 0.85223 0.0
H201 H 0.28513 0.16033 0.60289 0.0
H202 H 0.49885 0.11659 0.4904 0.0
H203 H 0.54542 0.17181 0.72336 0.0
H204 H 0.28848 0.21795 0.62768 0.0
H205 H 0.26649 0.16916 0.87702 0.0
H206 H 0.25708 0.24336 0.67043 0.0
H207 H 0.23483 0.19422 0.9194 0.0
H208 H 0.16343 0.23252 0.93885 0.0
H209 H 0.18496 0.1996 0.87736 0.0
H210 H 0.27031 0.28559 0.79326 0.0
H211 H 0.24913 0.31822 0.85552 0.0
C212 C 0.27619 0.212 0.69053 0.0
C213 C 0.27996 0.19173 0.74922 0.0
C214 C 0.25843 0.22666 0.71522 0.0
C215 C 0.2437 0.22087 0.79841 0.0
C216 C 0.24576 0.19896 0.85473 0.0
C217 C 0.26395 0.18474 0.83066 0.0
C218 C 0.18668 0.24422 0.90669 0.0
C219 C 0.2048 0.27785 0.90257 0.0
C220 C 0.19898 0.22547 0.87171 0.0
C221 C 0.22921 0.24008 0.83016 0.0
C222 C 0.2468 0.27367 0.82396 0.0
C223 C 0.23484 0.29234 0.86032 0.0
H224 H 0.06037 0.29971 0.04821 0.0
H225 H 0.06744 0.38786 0.14263 0.0
H226 H 1.00381 0.27032 0.09388 0.0
H227 H 1.01215 0.35878 0.1912 0.0
H228 H 0.90561 0.30914 0.17682 0.0
H229 H 0.96099 0.33427 0.12918 0.0
H230 H 0.96626 0.25161 0.21598 0.0
H231 H 0.90966 0.2256 0.26066 0.0
C232 C 0.04993 0.31273 0.07918 0.0
C233 C 0.06823 0.34617 0.09046 0.0
C234 C 0.01761 0.29591 0.10587 0.0
C235 C 1.00315 0.3122 0.1451 0.0
C236 C 0.02201 0.34547 0.15884 0.0
C237 C 0.05391 0.3622 0.13127 0.0
C238 C 0.91849 0.29624 0.18613 0.0
C239 C 0.90327 0.26548 0.22354 0.0
C240 C 0.95044 0.31077 0.1591 0.0
C241 C 0.96845 0.29528 0.16998 0.0
C242 C 0.95313 0.26421 0.20617 0.0
C243 C 0.92078 0.24938 0.23234 0.0
H244 H 0.71195 0.0468 0.37264 0.0
H245 H 0.80639 0.06382 0.44086 0.0
H246 H 0.68803 0.99434 0.43874 0.0
H247 H 0.78196 0.01186 0.51395 0.0
H248 H 0.72666 0.90268 0.56772 0.0
H249 H 0.75378 0.95497 0.49638 0.0
H250 H 0.67693 0.97148 0.57799 0.0
H251 H 0.64875 0.91869 0.64223 0.0
C252 C 0.72779 0.03937 0.401 0.0
C253 C 0.76129 0.05983 0.4006 0.0
C254 C 0.71389 0.00933 0.44089 0.0
C255 C 0.73292 0.99889 0.48338 0.0
C256 C 0.76648 0.01897 0.48173 0.0
C257 C 0.7805 0.04901 0.44061 0.0
C258 C 0.71539 0.91734 0.56982 0.0
C259 C 0.68529 0.90608 0.61082 0.0
C260 C 0.7312 0.94759 0.52973 0.0
C261 C 0.71743 0.96745 0.53019 0.0
C262 C 0.688 0.95666 0.57416 0.0
C263 C 0.67206 0.92641 0.61297 0.0
H264 H 0.66596 0.7364 0.73587 0.0
H265 H 0.57745 0.65567 0.82827 0.0
H266 H 0.69512 0.70907 0.78047 0.0
H267 H 0.60633 0.6293 0.876 0.0
H268 H 0.65641 0.5724 0.86117 0.0
H269 H 0.63091 0.60237 0.8153 0.0
H270 H 0.71369 0.69053 0.90109 0.0
H271 H 0.74002 0.66028 0.94375 0.0
C272 C 0.65281 0.71298 0.76618 0.0
C273 C 0.61935 0.698 0.77724 0.0
C274 C 0.66951 0.69738 0.79229 0.0
C275 C 0.65307 0.66669 0.83083 0.0
C276 C 0.61976 0.65241 0.8442 0.0
C277 C 0.60315 0.66768 0.81713 0.0
C278 C 0.66923 0.59817 0.87067 0.0
C279 C 0.70016 0.61389 0.90694 0.0
C280 C 0.65449 0.61543 0.84467 0.0
C281 C 0.66996 0.64894 0.85551 0.0
C282 C 0.70111 0.66481 0.89112 0.0
C283 C 0.71612 0.64746 0.9162 0.0
H284 H 0.06696 0.80056 0.2359 0.0
H285 H 0.04993 0.70576 0.29934 0.0
H286 H 0.01436 0.77661 0.16648 0.0
H287 H 0.99693 0.68232 0.23687 0.0
H288 H 0.92127 0.64474 0.033 0.0
H289 H 0.97406 0.67236 0.09722 0.0
H290 H 0.95725 0.74812 0.18722 0.0
H291 H 0.90483 0.72151 0.11627 0.0
C292 C 0.05201 0.77469 0.23595 0.0
C293 C 0.06303 0.75523 0.27327 0.0
C294 C 0.02163 0.76097 0.19699 0.0
C295 C 1.00144 0.72745 0.19487 0.0
C296 C 1.01201 0.70816 0.23517 0.0
C297 C 0.04238 0.72177 0.27291 0.0
C298 C 0.92891 0.6677 0.0642 0.0
C299 C 0.90852 0.68083 0.06865 0.0
C300 C 0.95916 0.6833 0.10294 0.0
C301 C 0.96986 0.71226 0.14905 0.0
C302 C 0.94989 0.72589 0.15212 0.0
C303 C 0.91961 0.7104 0.1122 0.0
H304 H 0.38425 0.04243 0.64837 0.0
H305 H 0.30922 0.05998 0.55986 0.0
H306 H 0.35477 0.98802 0.59215 0.0
H307 H 0.27986 1.00531 0.50057 0.0
H308 H 0.22509 0.89332 0.4756 0.0
H309 H 0.2505 0.94805 0.53442 0.0
H310 H 0.34318 0.96317 0.4514 0.0
H311 H 0.31809 0.90864 0.39564 0.0
C312 C 0.36137 0.03463 0.61691 0.0
C313 C 0.3492 0.05563 0.60804 0.0
C314 C 0.34454 1.00344 0.58393 0.0
C315 C 0.31521 0.99241 0.54008 0.0
C316 C 0.30235 0.01299 0.53406 0.0
C317 C 0.31916 0.04431 0.56795 0.0
C318 C 0.25086 0.90851 0.46934 0.0
C319 C 0.26961 0.89653 0.43181 0.0
C320 C 0.26541 0.93988 0.50291 0.0
C321 C 0.29898 0.95987 0.49915 0.0
C322 C 0.3174 0.9482 0.45784 0.0
C323 C 0.30296 0.91694 0.42515 0.0
H324 H 0.1431 0.43752 0.72895 0.0
H325 H 0.16109 0.35799 0.74187 0.0
H326 H 0.14923 0.43848 0.56927 0.0
H327 H 0.16934 0.3604 0.58577 0.0
H328 H 0.1564 0.35339 0.2945 0.0
H329 H 0.14527 0.35027 0.45058 0.0
H330 H 0.19052 0.4538 0.46326 0.0
H331 H 0.19955 0.45651 0.30486 0.0
C332 C 0.14807 0.42015 0.69774 0.0
C333 C 0.15172 0.39782 0.74786 0.0
C334 C 0.15204 0.42096 0.60664 0.0
C335 C 0.16016 0.39975 0.56484 0.0
C336 C 0.16264 0.37678 0.61519 0.0
C337 C 0.15806 0.37555 0.70529 0.0
C338 C 0.16451 0.37549 0.33105 0.0
C339 C 0.17908 0.4052 0.28837 0.0
C340 C 0.15805 0.37375 0.42053 0.0
C341 C 0.16687 0.4018 0.46952 0.0
C342 C 0.1827 0.43169 0.4271 0.0
C343 C 0.18842 0.43334 0.33693 0.0
H344 H 0.77089 0.24405 0.00659 0.0
H345 H 0.81751 0.18712 0.01241 0.0
H346 H 0.77983 0.25091 0.84835 0.0
H347 H 0.82851 0.19569 0.85633 0.0
H348 H 0.81118 0.18678 0.56549 0.0
H349 H 0.80379 0.18094 0.72168 0.0
H350 H 0.82088 0.27804 0.7422 0.0
H351 H 0.82619 0.28317 0.58239 0.0
C352 C 0.78277 0.23279 -0.0265 0.0
C353 C 0.79308 0.21466 0.02065 0.0
C354 C 0.78843 0.23719 0.88348 0.0
C355 C 0.80517 0.22413 0.83984 0.0
C356 C 0.81504 0.20561 0.88744 0.0
C357 C 0.80863 0.20054 -0.02319 0.0
C358 C 0.81369 0.20713 0.60292 0.0
C359 C 0.81894 0.23539 0.56151 0.0
C360 C 0.80965 0.2038 0.69306 0.0
C361 C 0.81154 0.22893 0.74456 0.0
C362 C 0.81857 0.25796 0.70388 0.0
C363 C 0.82204 0.2611 0.61272 0.0
H364 H 0.61615 0.76171 0.42118 0.0
H365 H 0.5135 0.69816 0.43211 0.0
H366 H 0.61301 0.76722 0.26293 0.0
H367 H 0.50987 0.70527 0.2761 0.0
H368 H 0.51847 0.69737 -0.01577 0.0
H369 H 0.52123 0.69192 0.14027 0.0
H370 H 0.59566 0.79157 0.15863 0.0
H371 H 0.59437 0.79645 -0.00076 0.0
C372 C 0.59301 0.74872 0.38927 0.0
C373 C 0.56513 0.72919 0.43791 0.0
C374 C 0.59109 0.7523 0.29922 0.0
C375 C 0.56115 0.73697 0.25705 0.0
C376 C 0.53339 0.71698 0.30607 0.0
C377 C 0.53544 0.71279 0.39545 0.0
C378 C 0.53525 0.71833 0.02131 0.0
C379 C 0.55642 0.74734 -0.02054 0.0
C380 C 0.5367 0.7152 0.11126 0.0
C381 C 0.55879 0.74123 0.162 0.0
C382 C 0.57888 0.77084 0.12089 0.0
C383 C 0.57788 0.7738 0.03 0.0
H384 H 0.77999 0.60832 0.69005 0.0
H385 H 0.7231 0.50488 0.68117 0.0
H386 H 0.77212 0.61076 0.53386 0.0
H387 H 0.71684 0.50702 0.52288 0.0
H388 H 0.68563 0.52206 0.25748 0.0
H389 H 0.69004 0.52178 0.41733 0.0
H390 H 0.78809 0.59998 0.39997 0.0
H391 H 0.7831 0.60158 0.2435 0.0
C392 C 0.76666 0.58606 0.65382 0.0
C393 C 0.75238 0.55641 0.69671 0.0
C394 C 0.76201 0.58741 0.56449 0.0
C395 C 0.74373 0.55906 0.51614 0.0
C396 C 0.73041 0.52929 0.55881 0.0
C397 C 0.73443 0.528 0.64879 0.0
C398 C 0.7078 0.53953 0.28849 0.0
C399 C 0.73401 0.56168 0.23822 0.0
C400 C 0.71049 0.53916 0.37959 0.0
C401 C 0.73953 0.56067 0.421 0.0
C402 C 0.76523 0.58341 0.37048 0.0
C403 C 0.76238 0.58415 0.28034 0.0
H404 H 0.1726 0.77229 0.65768 0.0
H405 H 0.27244 0.79766 0.64075 0.0
H406 H 0.1773 0.77792 0.81734 0.0
H407 H 0.27762 0.80522 0.79724 0.0
H408 H 0.2712 0.7898 0.0879 0.0
H409 H 0.26413 0.77939 0.93146 0.0
H410 H 0.20132 0.81974 0.92325 0.0
H411 H 0.20687 0.82816 0.08179 0.0
C412 C 0.19538 0.77882 0.68805 0.0
C413 C 0.22212 0.78462 0.63698 0.0
C414 C 0.19822 0.78245 0.77908 0.0
C415 C 0.22794 0.79236 0.81974 0.0
C416 C 0.25427 0.7971 0.76842 0.0
C417 C 0.25129 0.7929 0.67828 0.0
C418 C 0.25637 0.79697 0.05227 0.0
C419 C 0.23977 0.81 0.09611 0.0
C420 C 0.25219 0.79092 -0.0373 0.0
C421 C 0.23202 0.7986 0.91499 0.0
C422 C 0.21641 0.81285 0.95858 0.0
C423 C 0.21999 0.81819 0.04879 0.0
H424 H 0.46334 0.18509 0.3873 0.0
H425 H 0.3606 0.14549 0.39701 0.0
H426 H 0.46062 0.17634 0.22889 0.0
H427 H 0.35734 0.13453 0.24074 0.0
H428 H 0.366 0.15021 0.94926 0.0
H429 H 0.36836 0.15848 0.10533 0.0
H430 H 0.44432 0.13525 0.12302 0.0
H431 H 0.44352 0.12921 -0.03655 0.0
C432 C 0.44026 0.17479 0.35503 0.0
C433 C 0.41224 0.16638 0.40334 0.0
C434 C 0.43858 0.16923 0.26485 0.0
C435 C 0.40873 0.15441 0.22218 0.0
C436 C 0.3808 0.14652 0.27098 0.0
C437 C 0.38262 0.15288 0.36051 0.0
C438 C 0.38309 0.14653 -0.01389 0.0
C439 C 0.40483 0.13933 0.94394 0.0
C440 C 0.38428 0.15111 0.07619 0.0
C441 C 0.40665 0.14774 0.12689 0.0
C442 C 0.4273 0.13878 0.08543 0.0
C443 C 0.42658 0.13486 -0.00563 0.0
H444 H 0.20587 0.58192 0.03575 0.0
H445 H 0.11483 0.53015 0.1704 0.0
H446 H 0.2132 0.63227 0.09501 0.0
H447 H 0.12232 0.58092 0.23116 0.0
H448 H 0.14514 0.68897 0.26513 0.0
H449 H 0.12984 0.63678 0.19746 0.0
H450 H 0.22464 0.65193 0.24882 0.0
H451 H 0.2399 0.70348 0.31518 0.0
C452 C 0.18719 0.58144 0.07709 0.0
C453 C 0.15999 0.55218 0.0994 0.0
C454 C 0.19145 0.61021 0.11144 0.0
C455 C 0.16869 0.61045 0.16942 0.0
C456 C 0.14029 0.58143 0.18683 0.0
C457 C 0.13596 0.55245 0.15198 0.0
C458 C 0.16251 0.68089 0.26281 0.0
C459 C 0.19384 0.70055 0.29473 0.0
C460 C 0.15376 0.65107 0.22403 0.0
C461 C 0.17627 0.64062 0.21616 0.0
C462 C 0.20701 0.65969 0.25179 0.0
C463 C 0.21568 0.6892 0.29046 0.0
H464 H 0.70798 0.23373 0.33259 0.0
H465 H 0.69775 0.14199 0.40072 0.0
H466 H 0.65611 0.21788 0.39874 0.0
H467 H 0.64565 0.12624 0.46906 0.0
H468 H 0.53943 0.1023 0.51278 0.0
H469 H 0.58993 0.11373 0.44247 0.0
H470 H 0.63542 0.21015 0.54678 0.0
H471 H 0.585 0.19934 0.6132 0.0
C472 C 0.69456 0.21005 0.36137 0.0
C473 C 0.70714 0.18922 0.36198 0.0
C474 C 0.66488 0.20106 0.40002 0.0
C475 C 0.64699 0.17104 0.44087 0.0
C476 C 0.65884 0.14954 0.43814 0.0
C477 C 0.68866 0.15855 0.39899 0.0
C478 C 0.56023 0.12594 0.52064 0.0
C479 C 0.558 0.14992 0.56848 0.0
C480 C 0.58924 0.13239 0.48092 0.0
C481 C 0.61662 0.16298 0.48794 0.0
C482 C 0.61464 0.1865 0.53851 0.0
C483 C 0.58576 0.18011 0.57795 0.0
H484 H 0.2603 0.50748 -0.02951 0.0
H485 H 0.27602 0.42814 0.91444 0.0
H486 H 0.31237 0.5445 0.90893 0.0
H487 H 0.32893 0.4659 0.8516 0.0
H488 H 0.43566 0.55941 0.84186 0.0
H489 H 0.3843 0.51465 0.89411 0.0
H490 H 0.33372 0.55405 0.75591 0.0
H491 H 0.38463 0.59857 0.70529 0.0
C492 C 0.27493 0.49788 0.94527 0.0
C493 C 0.26379 0.46475 0.94652 0.0
C494 C 0.30477 0.51916 0.90942 0.0
C495 C 0.32442 0.50803 0.87364 0.0
C496 C 0.31414 0.47508 0.87831 0.0
C497 C 0.28394 0.45354 0.91429 0.0
C498 C 0.41344 0.55791 0.82112 0.0
C499 C 0.41398 0.58257 0.77069 0.0
C500 C 0.38413 0.53239 0.85101 0.0
C501 C 0.3551 0.53129 0.83061 0.0
C502 C 0.35576 0.55469 0.77444 0.0
C503 C 0.38484 0.58008 0.74513 0.0
H504 H 0.80708 0.36179 0.04282 0.0
H505 H 0.83177 0.4076 0.29729 0.0
H506 H 0.80181 0.40607 -0.01472 0.0
H507 H 0.8264 0.45227 0.23932 0.0
H508 H 0.82781 0.53548 0.07763 0.0
H509 H 0.84593 0.49825 0.12455 0.0
H510 H 0.75859 0.41877 0.0228 0.0
H511 H 0.74062 0.45543 -0.0232 0.0
C512 C 0.81177 0.38159 0.08617 0.0
C513 C 0.81919 0.38098 0.17498 0.0
C514 C 0.80879 0.40694 0.0532 0.0
C515 C 0.81315 0.43233 0.10818 0.0
C516 C 0.82297 0.43301 0.19542 0.0
C517 C 0.82599 0.40749 0.22862 0.0
C518 C 0.81278 0.51008 0.06446 0.0
C519 C 0.78281 0.49835 0.02357 0.0
C520 C 0.82304 0.48882 0.09177 0.0
C521 C 0.80375 0.45565 0.07692 0.0
C522 C 0.77421 0.44422 0.0341 0.0
C523 C 0.76382 0.46524 0.00816 0.0
H524 H 0.40883 0.85286 0.50973 0.0
H525 H 0.37206 0.762 0.37581 0.0
H526 H 0.4527 0.84658 0.57032 0.0
H527 H 0.41562 0.75586 0.43506 0.0
H528 H 0.45857 0.73029 0.65993 0.0
H529 H 0.42249 0.74526 0.59232 0.0
H530 H 0.50224 0.83938 0.53509 0.0
H531 H 0.53902 0.82433 0.60379 0.0
C532 C 0.41069 0.83205 0.49134 0.0
C533 C 0.3869 0.80768 0.43917 0.0
C534 C 0.43569 0.82843 0.52607 0.0
C535 C 0.43711 0.8004 0.50893 0.0
C536 C 0.41469 0.77736 0.4511 0.0
C537 C 0.38985 0.78092 0.41684 0.0
C538 C 0.4686 0.75431 0.63368 0.0
C539 C 0.50179 0.77599 0.63644 0.0
C540 C 0.44787 0.76281 0.59435 0.0
C541 C 0.45964 0.79323 0.55663 0.0
C542 C 0.49258 0.81569 0.56323 0.0
C543 C 0.51356 0.80709 0.60263 0.0
H544 H 0.61006 0.37778 -0.03547 0.0
H545 H 0.56356 0.42356 0.83754 0.0
H546 H 0.56713 0.32549 0.91704 0.0
H547 H 0.52049 0.37091 0.78786 0.0
H548 H 0.43756 0.26326 0.77141 0.0
H549 H 0.47519 0.31664 0.82992 0.0
H550 H 0.55416 0.30051 0.7727 0.0
H551 H 0.51699 0.24756 0.7161 0.0
C552 C 0.59036 0.37652 0.92719 0.0
C553 C 0.59023 0.40463 0.90387 0.0
C554 C 0.56589 0.34663 0.89941 0.0
C555 C 0.5408 0.3441 0.84684 0.0
C556 C 0.53952 0.37208 0.82817 0.0
C557 C 0.56407 0.40216 0.85664 0.0
C558 C 0.463 0.2713 0.77079 0.0
C559 C 0.47424 0.25105 0.7397 0.0
C560 C 0.48451 0.30185 0.80425 0.0
C561 C 0.51759 0.31258 0.80745 0.0
C562 C 0.52876 0.29268 0.77339 0.0
C563 C 0.50742 0.26235 0.7402 0.0
loop_
_geom_bond_atom_site_label_1
_geom_bond_atom_site_label_2
_geom_bond_distance
_geom_bond_site_symmetry_2
_ccdc_geom_bond_type
C0 O16 1.251 . S
C0 O18 1.254 . S
N1 C2 1.333 1_554 S
N1 C6 1.307 . S
N1 Zn7 2.020 . S
C2 N1 1.333 1_556 S
C2 C3 1.379 . S
C2 H20 0.952 . S
C3 C2 1.379 . S
C3 C4 1.390 1_556 S
C3 H30 0.949 . S
C4 C3 1.390 1_554 S
C4 C5 1.357 . S
C5 C4 1.357 . S
C5 C6 1.370 . S
C5 H31 0.950 . S
C6 N1 1.307 . S
C6 C5 1.370 . S
C6 H24 0.948 . S
Zn7 N1 2.020 . S
Zn7 O16 2.039 1_554 S
Zn7 O22 2.034 . S
Zn7 O26 2.025 . S
Zn7 O28 2.024 . S
C8 O27 1.246 . S
C8 O28 1.249 . S
N9 C10 1.307 . S
N9 C11 1.333 . S
N9 Zn15 2.020 . S
C10 N9 1.307 . S
C10 C14 1.370 . S
C10 H21 0.948 . S
C11 N9 1.333 . S
C11 C12 1.379 . S
C11 H19 0.952 . S
C12 C11 1.379 . S
C12 C13 1.390 . S
C12 H32 0.949 . S
C13 C12 1.390 . S
C13 C14 1.357 . S
C14 C10 1.370 . S
C14 C13 1.357 . S
C14 H33 0.950 . S
Zn15 N9 2.020 . S
Zn15 O18 2.025 1_554 S
Zn15 O23 2.024 . S
Zn15 O25 2.039 . S
Zn15 O27 2.034 . S
O16 C0 1.251 . S
O16 Zn7 2.039 1_556 S
C17 O22 1.246 . S
C17 O23 1.249 . S
O18 C0 1.254 . S
O18 Zn15 2.025 1_556 S
H19 C11 0.952 . S
H20 C2 0.952 . S
H21 C10 0.948 . S
O22 Zn7 2.034 . S
O22 C17 1.246 . S
O23 Zn15 2.024 . S
O23 C17 1.249 . S
H24 C6 0.948 . S
O25 Zn15 2.039 . S
O25 C29 1.251 . S
O26 Zn7 2.025 . S
O26 C29 1.254 . S
O27 C8 1.246 . S
O27 Zn15 2.034 . S
O28 Zn7 2.024 . S
O28 C8 1.249 . S
C29 O25 1.251 . S
C29 O26 1.254 . S
H30 C3 0.949 . S
H31 C5 0.950 . S
H32 C12 0.949 . S
H33 C14 0.950 . S
C34 O50 1.251 . S
C34 O52 1.254 . S
N35 C36 1.333 . S
N35 C40 1.307 . S
N35 Zn41 2.020 . S
C36 N35 1.333 . S
C36 C37 1.379 . S
C36 H54 0.952 . S
C37 C36 1.379 . S
C37 C38 1.390 . S
C37 H64 0.949 . S
C38 C37 1.390 . S
C38 C39 1.357 . S
C39 C38 1.357 . S
C39 C40 1.370 . S
C39 H65 0.950 . S
C40 N35 1.307 . S
C40 C39 1.370 . S
C40 H58 0.948 . S
Zn41 N35 2.020 . S
Zn41 O50 2.039 . S
Zn41 O56 2.034 . S
Zn41 O60 2.025 . S
Zn41 O62 2.024 . S
C42 O61 1.246 . S
C42 O62 1.249 . S
N43 C44 1.307 . S
N43 C45 1.333 . S
N43 Zn49 2.020 . S
C44 N43 1.307 . S
C44 C48 1.370 . S
C44 H55 0.948 . S
C45 N43 1.333 . S
C45 C46 1.379 . S
C45 H53 0.952 . S
C46 C45 1.379 . S
C46 C47 1.390 . S
C46 H66 0.949 . S
C47 C46 1.390 . S
C47 C48 1.357 . S
C48 C44 1.370 . S
C48 C47 1.357 . S
C48 H67 0.950 . S
Zn49 N43 2.020 . S
Zn49 O52 2.025 . S
Zn49 O57 2.024 . S
Zn49 O59 2.039 . S
Zn49 O61 2.034 . S
O50 C34 1.251 . S
O50 Zn41 2.039 . S
C51 O56 1.246 . S
C51 O57 1.249 . S
O52 C34 1.254 . S
O52 Zn49 2.025 . S
H53 C45 0.952 . S
H54 C36 0.952 . S
H55 C44 0.948 . S
O56 Zn41 2.034 . S
O56 C51 1.246 . S
O57 Zn49 2.024 . S
O57 C51 1.249 . S
H58 C40 0.948 . S
O59 Zn49 2.039 . S
O59 C63 1.251 . S
O60 Zn41 2.025 . S
O60 C63 1.254 . S
O61 C42 1.246 . S
O61 Zn49 2.034 . S
O62 Zn41 2.024 . S
O62 C42 1.249 . S
C63 O59 1.251 . S
C63 O60 1.254 . S
H64 C37 0.949 . S
H65 C39 0.950 . S
H66 C46 0.949 . S
H67 C48 0.950 . S
C68 O84 1.251 . S
C68 O86 1.254 . S
N69 C70 1.333 . S
N69 C74 1.307 . S
N69 Zn75 2.020 . S
C70 N69 1.333 . S
C70 C71 1.379 . S
C70 H88 0.952 . S
C71 C70 1.379 . S
C71 C72 1.390 . S
C71 H98 0.949 . S
C72 C71 1.390 . S
C72 C73 1.357 . S
C73 C72 1.357 . S
C73 C74 1.370 . S
C73 H99 0.950 . S
C74 N69 1.307 . S
C74 C73 1.370 . S
C74 H92 0.948 . S
Zn75 N69 2.020 . S
Zn75 O84 2.039 . S
Zn75 O90 2.034 . S
Zn75 O94 2.025 . S
Zn75 O96 2.024 . S
C76 O95 1.246 . S
C76 O96 1.249 . S
N77 C78 1.307 . S
N77 C79 1.333 . S
N77 Zn83 2.020 . S
C78 N77 1.307 . S
C78 C82 1.370 . S
C78 H89 0.948 . S
C79 N77 1.333 . S
C79 C80 1.379 . S
C79 H87 0.952 . S
C80 C79 1.379 . S
C80 C81 1.390 . S
C80 H100 0.949 . S
C81 C80 1.390 . S
C81 C82 1.357 . S
C82 C78 1.370 . S
C82 C81 1.357 . S
C82 H101 0.950 . S
Zn83 N77 2.020 . S
Zn83 O86 2.025 . S
Zn83 O91 2.024 . S
Zn83 O93 2.039 . S
Zn83 O95 2.034 . S
O84 C68 1.251 . S
O84 Zn75 2.039 . S
C85 O90 1.246 . S
C85 O91 1.249 . S
O86 C68 1.254 . S
O86 Zn83 2.025 . S
H87 C79 0.952 . S
H88 C70 0.952 . S
H89 C78 0.948 . S
O90 Zn75 2.034 . S
O90 C85 1.246 . S
O91 Zn83 2.024 . S
O91 C85 1.249 . S
H92 C74 0.948 . S
O93 Zn83 2.039 . S
O93 C97 1.251 . S
O94 Zn75 2.025 . S
O94 C97 1.254 . S
O95 C76 1.246 . S
O95 Zn83 2.034 . S
O96 Zn75 2.024 . S
O96 C76 1.249 . S
C97 O93 1.251 . S
C97 O94 1.254 . S
H98 C71 0.949 . S
H99 C73 0.950 . S
H100 C80 0.949 . S
H101 C82 0.950 . S
C102 O118 1.251 . S
C102 O120 1.254 . S
N103 C104 1.333 . S
N103 C108 1.307 1_554 S
N103 Zn109 2.020 . S
C104 N103 1.333 . S
C104 C105 1.379 . S
C104 H122 0.952 . S
C105 C104 1.379 . S
C105 C106 1.390 . S
C105 H132 0.949 . S
C106 C105 1.390 . S
C106 C107 1.357 1_554 S
C107 C106 1.357 1_556 S
C107 C108 1.370 . S
C107 H133 0.950 . S
C108 N103 1.307 1_556 S
C108 C107 1.370 . S
C108 H126 0.948 . S
Zn109 N103 2.020 . S
Zn109 O118 2.039 . S
Zn109 O124 2.034 1_554 S
Zn109 O128 2.025 1_554 S
Zn109 O130 2.024 . S
C110 O129 1.246 . S
C110 O130 1.249 . S
N111 C112 1.307 1_556 S
N111 C113 1.333 . S
N111 Zn117 2.020 . S
C112 N111 1.307 1_554 S
C112 C116 1.370 . S
C112 H123 0.948 . S
C113 N111 1.333 . S
C113 C114 1.379 . S
C113 H121 0.952 . S
C114 C113 1.379 . S
C114 C115 1.390 . S
C114 H134 0.949 . S
C115 C114 1.390 . S
C115 C116 1.357 1_556 S
C116 C112 1.370 . S
C116 C115 1.357 1_554 S
C116 H135 0.950 . S
Zn117 N111 2.020 . S
Zn117 O120 2.025 1_556 S
Zn117 O125 2.024 . S
Zn117 O127 2.039 . S
Zn117 O129 2.034 1_556 S
O118 C102 1.251 . S
O118 Zn109 2.039 . S
C119 O124 1.246 . S
C119 O125 1.249 . S
O120 C102 1.254 . S
O120 Zn117 2.025 1_554 S
H121 C113 0.952 . S
H122 C104 0.952 . S
H123 C112 0.948 . S
O124 Zn109 2.034 1_556 S
O124 C119 1.246 . S
O125 Zn117 2.024 . S
O125 C119 1.249 . S
H126 C108 0.948 . S
O127 Zn117 2.039 . S
O127 C131 1.251 . S
O128 Zn109 2.025 1_556 S
O128 C131 1.254 . S
O129 C110 1.246 . S
O129 Zn117 2.034 1_554 S
O130 Zn109 2.024 . S
O130 C110 1.249 . S
C131 O127 1.251 . S
C131 O128 1.254 . S
H132 C105 0.949 . S
H133 C107 0.950 . S
H134 C114 0.949 . S
H135 C116 0.950 . S
C136 O152 1.251 . S
C136 O154 1.254 . S
N137 C138 1.333 . S
N137 C142 1.307 . S
N137 Zn143 2.020 . S
C138 N137 1.333 . S
C138 C139 1.379 . S
C138 H156 0.952 . S
C139 C138 1.379 . S
C139 C140 1.390 . S
C139 H166 0.949 . S
C140 C139 1.390 . S
C140 C141 1.357 . S
C141 C140 1.357 . S
C141 C142 1.370 . S
C141 H167 0.950 . S
C142 N137 1.307 . S
C142 C141 1.370 . S
C142 H160 0.948 . S
Zn143 N137 2.020 . S
Zn143 O152 2.039 . S
Zn143 O158 2.034 . S
Zn143 O162 2.025 . S
Zn143 O164 2.024 . S
C144 O163 1.246 . S
C144 O164 1.249 . S
N145 C146 1.307 . S
N145 C147 1.333 . S
N145 Zn151 2.020 . S
C146 N145 1.307 . S
C146 C150 1.370 . S
C146 H157 0.948 . S
C147 N145 1.333 . S
C147 C148 1.379 . S
C147 H155 0.952 . S
C148 C147 1.379 . S
C148 C149 1.390 . S
C148 H168 0.949 . S
C149 C148 1.390 . S
C149 C150 1.357 . S
C150 C146 1.370 . S
C150 C149 1.357 . S
C150 H169 0.950 . S
Zn151 N145 2.020 . S
Zn151 O154 2.025 . S
Zn151 O159 2.024 . S
Zn151 O161 2.039 . S
Zn151 O163 2.034 . S
O152 C136 1.251 . S
O152 Zn143 2.039 . S
C153 O158 1.246 . S
C153 O159 1.249 . S
O154 C136 1.254 . S
O154 Zn151 2.025 . S
H155 C147 0.952 . S
H156 C138 0.952 . S
H157 C146 0.948 . S
O158 Zn143 2.034 . S
O158 C153 1.246 . S
O159 Zn151 2.024 . S
O159 C153 1.249 . S
H160 C142 0.948 . S
O161 Zn151 2.039 . S
O161 C165 1.251 . S
O162 Zn143 2.025 . S
O162 C165 1.254 . S
O163 C144 1.246 . S
O163 Zn151 2.034 . S
O164 Zn143 2.024 . S
O164 C144 1.249 . S
C165 O161 1.251 . S
C165 O162 1.254 . S
H166 C139 0.949 . S
H167 C141 0.950 . S
H168 C148 0.949 . S
H169 C150 0.950 . S
C170 O186 1.251 . S
C170 O188 1.254 . S
N171 C172 1.333 . S
N171 C176 1.307 . S
N171 Zn177 2.020 . S
C172 N171 1.333 . S
C172 C173 1.379 . S
C172 H190 0.952 . S
C173 C172 1.379 . S
C173 C174 1.390 . S
C173 H200 0.949 . S
C174 C173 1.390 . S
C174 C175 1.357 . S
C175 C174 1.357 . S
C175 C176 1.370 . S
C175 H201 0.950 . S
C176 N171 1.307 . S
C176 C175 1.370 . S
C176 H194 0.948 . S
Zn177 N171 2.020 . S
Zn177 O186 2.039 . S
Zn177 O192 2.034 . S
Zn177 O196 2.025 . S
Zn177 O198 2.024 . S
C178 O197 1.246 . S
C178 O198 1.249 . S
N179 C180 1.307 . S
N179 C181 1.333 . S
N179 Zn185 2.020 . S
C180 N179 1.307 . S
C180 C184 1.370 . S
C180 H191 0.948 . S
C181 N179 1.333 . S
C181 C182 1.379 . S
C181 H189 0.952 . S
C182 C181 1.379 . S
C182 C183 1.390 . S
C182 H202 0.949 . S
C183 C182 1.390 . S
C183 C184 1.357 . S
C184 C180 1.370 . S
C184 C183 1.357 . S
C184 H203 0.950 . S
Zn185 N179 2.020 . S
Zn185 O188 2.025 . S
Zn185 O193 2.024 . S
Zn185 O195 2.039 . S
Zn185 O197 2.034 . S
O186 C170 1.251 . S
O186 Zn177 2.039 . S
C187 O192 1.246 . S
C187 O193 1.249 . S
O188 C170 1.254 . S
O188 Zn185 2.025 . S
H189 C181 0.952 . S
H190 C172 0.952 . S
H191 C180 0.948 . S
O192 Zn177 2.034 . S
O192 C187 1.246 . S
O193 Zn185 2.024 . S
O193 C187 1.249 . S
H194 C176 0.948 . S
O195 Zn185 2.039 . S
O195 C199 1.251 . S
O196 Zn177 2.025 . S
O196 C199 1.254 . S
O197 C178 1.246 . S
O197 Zn185 2.034 . S
O198 Zn177 2.024 . S
O198 C178 1.249 . S
C199 O195 1.251 . S
C199 O196 1.254 . S
H200 C173 0.949 . S
H201 C175 0.950 . S
H202 C182 0.949 . S
H203 C184 0.950 . S
H204 C212 0.950 . S
H205 C217 0.950 . S
H206 C214 0.950 . S
H207 C216 0.950 . S
H208 C218 0.950 . S
H209 C220 0.950 . S
H210 C222 0.950 . S
H211 C223 0.950 . S
C212 H204 0.950 . S
C212 C213 1.386 . S
C212 C214 1.391 . S
C213 C212 1.386 . S
C213 C217 1.393 . S
C214 H206 0.950 . S
C214 C212 1.391 . S
C214 C215 1.400 . S
C215 C214 1.400 . S
C215 C216 1.398 . S
C215 C221 1.491 . S
C216 H207 0.950 . S
C216 C215 1.398 . S
C216 C217 1.391 . S
C217 H205 0.950 . S
C217 C213 1.393 . S
C217 C216 1.391 . S
C218 H208 0.950 . S
C218 C219 1.386 1_554 S
C218 C220 1.391 1_554 S
C219 C218 1.386 1_556 S
C219 C223 1.393 . S
C220 H209 0.950 . S
C220 C218 1.391 1_556 S
C220 C221 1.400 . S
C221 C215 1.491 . S
C221 C220 1.400 . S
C221 C222 1.398 . S
C222 H210 0.950 . S
C222 C221 1.398 . S
C222 C223 1.391 . S
C223 H211 0.950 . S
C223 C219 1.393 . S
C223 C222 1.391 . S
H224 C232 0.950 . S
H225 C237 0.950 . S
H226 C234 0.950 . S
H227 C236 0.950 . S
H228 C238 0.950 . S
H229 C240 0.950 . S
H230 C242 0.950 . S
H231 C243 0.950 . S
C232 H224 0.950 . S
C232 C233 1.386 . S
C232 C234 1.391 . S
C233 C232 1.386 . S
C233 C237 1.393 . S
C234 H226 0.950 . S
C234 C232 1.391 . S
C234 C235 1.400 1_455 S
C235 C234 1.400 1_655 S
C235 C236 1.398 . S
C235 C241 1.491 . S
C236 H227 0.950 . S
C236 C235 1.398 . S
C236 C237 1.391 1_655 S
C237 H225 0.950 . S
C237 C233 1.393 . S
C237 C236 1.391 1_455 S
C238 H228 0.950 . S
C238 C239 1.386 . S
C238 C240 1.391 . S
C239 C238 1.386 . S
C239 C243 1.393 . S
C240 H229 0.950 . S
C240 C238 1.391 . S
C240 C241 1.400 . S
C241 C235 1.491 . S
C241 C240 1.400 . S
C241 C242 1.398 . S
C242 H230 0.950 . S
C242 C241 1.398 . S
C242 C243 1.391 . S
C243 H231 0.950 . S
C243 C239 1.393 . S
C243 C242 1.391 . S
H244 C252 0.950 . S
H245 C257 0.950 . S
H246 C254 0.950 1_565 S
H247 C256 0.950 1_565 S
H248 C258 0.950 . S
H249 C260 0.950 . S
H250 C262 0.950 . S
H251 C263 0.950 . S
C252 H244 0.950 . S
C252 C253 1.386 . S
C252 C254 1.398 . S
C253 C252 1.386 . S
C253 C257 1.393 . S
C254 H246 0.950 1_545 S
C254 C252 1.398 . S
C254 C255 1.394 1_545 S
C255 C254 1.394 1_565 S
C255 C256 1.398 1_565 S
C255 C261 1.491 . S
C256 H247 0.950 1_545 S
C256 C255 1.398 1_545 S
C256 C257 1.391 . S
C257 H245 0.950 . S
C257 C253 1.393 . S
C257 C256 1.391 . S
C258 H248 0.950 . S
C258 C259 1.386 . S
C258 C260 1.391 . S
C259 C258 1.386 . S
C259 C263 1.393 . S
C260 H249 0.950 . S
C260 C258 1.391 . S
C260 C261 1.400 . S
C261 C255 1.491 . S
C261 C260 1.400 . S
C261 C262 1.398 . S
C262 H250 0.950 . S
C262 C261 1.398 . S
C262 C263 1.391 . S
C263 H251 0.950 . S
C263 C259 1.393 . S
C263 C262 1.391 . S
H264 C272 0.950 . S
H265 C277 0.950 . S
H266 C274 0.950 . S
H267 C276 0.950 . S
H268 C278 0.950 1_554 S
H269 C280 0.950 . S
H270 C282 0.950 . S
H271 C283 0.950 . S
C272 H264 0.950 . S
C272 C273 1.386 . S
C272 C274 1.391 . S
C273 C272 1.386 . S
C273 C277 1.393 . S
C274 H266 0.950 . S
C274 C272 1.391 . S
C274 C275 1.400 . S
C275 C274 1.400 . S
C275 C276 1.398 . S
C275 C281 1.491 . S
C276 H267 0.950 . S
C276 C275 1.398 . S
C276 C277 1.391 . S
C277 H265 0.950 . S
C277 C273 1.393 . S
C277 C276 1.391 . S
C278 H268 0.950 1_556 S
C278 C279 1.386 . S
C278 C280 1.391 . S
C279 C278 1.386 . S
C279 C283 1.393 . S
C280 H269 0.950 . S
C280 C278 1.391 . S
C280 C281 1.400 . S
C281 C275 1.491 . S
C281 C280 1.400 . S
C281 C282 1.398 . S
C282 H270 0.950 . S
C282 C281 1.398 . S
C282 C283 1.391 . S
C283 H271 0.950 . S
C283 C279 1.393 . S
C283 C282 1.391 . S
H284 C292 0.950 . S
H285 C297 0.950 . S
H286 C294 0.950 1_655 S
H287 C296 0.950 1_655 S
H288 C298 0.950 . S
H289 C300 0.950 . S
H290 C302 0.950 . S
H291 C303 0.950 . S
C292 H284 0.950 . S
C292 C293 1.386 . S
C292 C294 1.391 . S
C293 C292 1.386 . S
C293 C297 1.393 . S
C294 H286 0.950 1_455 S
C294 C292 1.391 . S
C294 C295 1.400 1_455 S
C295 C294 1.400 1_655 S
C295 C296 1.398 1_655 S
C295 C301 1.491 . S
C296 H287 0.950 1_455 S
C296 C295 1.398 1_455 S
C296 C297 1.391 . S
C297 H285 0.950 . S
C297 C293 1.393 . S
C297 C296 1.391 . S
C298 H288 0.950 . S
C298 C299 1.386 . S
C298 C300 1.391 . S
C299 C298 1.386 . S
C299 C303 1.393 . S
C300 H289 0.950 . S
C300 C298 1.391 . S
C300 C301 1.400 . S
C301 C295 1.491 . S
C301 C300 1.400 . S
C301 C302 1.398 . S
C302 H290 0.950 . S
C302 C301 1.398 . S
C302 C303 1.391 . S
C303 H291 0.950 . S
C303 C299 1.393 . S
C303 C302 1.391 . S
H304 C312 0.950 . S
H305 C317 0.950 . S
H306 C314 0.950 1_565 S
H307 C316 0.950 1_565 S
H308 C318 0.950 . S
H309 C320 0.950 . S
H310 C322 0.950 . S
H311 C323 0.950 . S
C312 H304 0.950 . S
C312 C313 1.386 . S
C312 C314 1.391 . S
C313 C312 1.386 . S
C313 C317 1.393 . S
C314 H306 0.950 1_545 S
C314 C312 1.391 . S
C314 C315 1.400 1_545 S
C315 C314 1.400 1_565 S
C315 C316 1.398 1_565 S
C315 C321 1.491 . S
C316 H307 0.950 1_545 S
C316 C315 1.398 1_545 S
C316 C317 1.391 . S
C317 H305 0.950 . S
C317 C313 1.393 . S
C317 C316 1.391 . S
C318 H308 0.950 . S
C318 C319 1.386 . S
C318 C320 1.391 . S
C319 C318 1.386 . S
C319 C323 1.393 . S
C320 H309 0.950 . S
C320 C318 1.391 . S
C320 C321 1.400 . S
C321 C315 1.491 . S
C321 C320 1.400 . S
C321 C322 1.398 . S
C322 H310 0.950 . S
C322 C321 1.398 . S
C322 C323 1.391 . S
C323 H311 0.950 . S
C323 C319 1.393 . S
C323 C322 1.391 . S
H324 C332 0.950 . S
H325 C337 0.950 . S
H326 C334 0.950 . S
H327 C336 0.950 . S
H328 C338 0.950 . S
H329 C340 0.950 . S
H330 C342 0.950 . S
H331 C343 0.950 . S
C332 H324 0.950 . S
C332 C333 1.386 . S
C332 C334 1.391 . S
C333 C332 1.386 . S
C333 C337 1.393 . S
C334 H326 0.950 . S
C334 C332 1.391 . S
C334 C335 1.400 . S
C335 C334 1.400 . S
C335 C336 1.398 . S
C335 C341 1.491 . S
C336 H327 0.950 . S
C336 C335 1.398 . S
C336 C337 1.391 . S
C337 H325 0.950 . S
C337 C333 1.393 . S
C337 C336 1.391 . S
C338 H328 0.950 . S
C338 C339 1.386 . S
C338 C340 1.391 . S
C339 C338 1.386 . S
C339 C343 1.393 . S
C340 H329 0.950 . S
C340 C338 1.391 . S
C340 C341 1.400 . S
C341 C335 1.491 . S
C341 C340 1.400 . S
C341 C342 1.398 . S
C342 H330 0.950 . S
C342 C341 1.398 . S
C342 C343 1.391 . S
C343 H331 0.950 . S
C343 C339 1.393 . S
C343 C342 1.391 . S
H344 C352 0.950 . S
H345 C357 0.950 . S
H346 C354 0.950 . S
H347 C356 0.950 . S
H348 C358 0.950 . S
H349 C360 0.950 . S
H350 C362 0.950 . S
H351 C363 0.950 . S
C352 H344 0.950 . S
C352 C353 1.386 . S
C352 C354 1.391 1_554 S
C353 C352 1.386 . S
C353 C357 1.393 . S
C354 H346 0.950 . S
C354 C352 1.391 1_556 S
C354 C355 1.400 . S
C355 C354 1.400 . S
C355 C356 1.398 . S
C355 C361 1.491 . S
C356 H347 0.950 . S
C356 C355 1.398 . S
C356 C357 1.391 1_556 S
C357 H345 0.950 . S
C357 C353 1.393 . S
C357 C356 1.391 1_554 S
C358 H348 0.950 . S
C358 C359 1.386 . S
C358 C360 1.391 . S
C359 C358 1.386 . S
C359 C363 1.393 . S
C360 H349 0.950 . S
C360 C358 1.391 . S
C360 C361 1.400 . S
C361 C355 1.491 . S
C361 C360 1.400 . S
C361 C362 1.398 . S
C362 H350 0.950 . S
C362 C361 1.398 . S
C362 C363 1.391 . S
C363 H351 0.950 . S
C363 C359 1.393 . S
C363 C362 1.391 . S
H364 C372 0.950 . S
H365 C377 0.950 . S
H366 C374 0.950 . S
H367 C376 0.950 . S
H368 C378 0.950 1_556 S
H369 C380 0.950 . S
H370 C382 0.950 . S
H371 C383 0.950 . S
C372 H364 0.950 . S
C372 C373 1.386 . S
C372 C374 1.391 . S
C373 C372 1.386 . S
C373 C377 1.393 . S
C374 H366 0.950 . S
C374 C372 1.391 . S
C374 C375 1.400 . S
C375 C374 1.400 . S
C375 C376 1.398 . S
C375 C381 1.491 . S
C376 H367 0.950 . S
C376 C375 1.398 . S
C376 C377 1.391 . S
C377 H365 0.950 . S
C377 C373 1.393 . S
C377 C376 1.391 . S
C378 H368 0.950 1_554 S
C378 C379 1.386 1_554 S
C378 C380 1.391 . S
C379 C378 1.386 1_556 S
C379 C383 1.393 1_556 S
C380 H369 0.950 . S
C380 C378 1.391 . S
C380 C381 1.400 . S
C381 C375 1.491 . S
C381 C380 1.400 . S
C381 C382 1.398 . S
C382 H370 0.950 . S
C382 C381 1.398 . S
C382 C383 1.391 . S
C383 H371 0.950 . S
C383 C379 1.393 1_554 S
C383 C382 1.391 . S
H384 C392 0.950 . S
H385 C397 0.950 . S
H386 C394 0.950 . S
H387 C396 0.950 . S
H388 C398 0.950 . S
H389 C400 0.950 . S
H390 C402 0.950 . S
H391 C403 0.950 . S
C392 H384 0.950 . S
C392 C393 1.386 . S
C392 C394 1.391 . S
C393 C392 1.386 . S
C393 C397 1.393 . S
C394 H386 0.950 . S
C394 C392 1.391 . S
C394 C395 1.400 . S
C395 C394 1.400 . S
C395 C396 1.398 . S
C395 C401 1.491 . S
C396 H387 0.950 . S
C396 C395 1.398 . S
C396 C397 1.391 . S
C397 H385 0.950 . S
C397 C393 1.393 . S
C397 C396 1.391 . S
C398 H388 0.950 . S
C398 C399 1.386 . S
C398 C400 1.391 . S
C399 C398 1.386 . S
C399 C403 1.393 . S
C400 H389 0.950 . S
C400 C398 1.391 . S
C400 C401 1.400 . S
C401 C395 1.491 . S
C401 C400 1.400 . S
C401 C402 1.398 . S
C402 H390 0.950 . S
C402 C401 1.398 . S
C402 C403 1.391 . S
C403 H391 0.950 . S
C403 C399 1.393 . S
C403 C402 1.391 . S
H404 C412 0.950 . S
H405 C417 0.950 . S
H406 C414 0.950 . S
H407 C416 0.950 . S
H408 C418 0.950 . S
H409 C420 0.950 1_556 S
H410 C422 0.950 . S
H411 C423 0.950 . S
C412 H404 0.950 . S
C412 C413 1.386 . S
C412 C414 1.391 . S
C413 C412 1.386 . S
C413 C417 1.393 . S
C414 H406 0.950 . S
C414 C412 1.391 . S
C414 C415 1.400 . S
C415 C414 1.400 . S
C415 C416 1.398 . S
C415 C421 1.491 . S
C416 H407 0.950 . S
C416 C415 1.398 . S
C416 C417 1.391 . S
C417 H405 0.950 . S
C417 C413 1.393 . S
C417 C416 1.391 . S
C418 H408 0.950 . S
C418 C419 1.386 . S
C418 C420 1.391 . S
C419 C418 1.386 . S
C419 C423 1.393 . S
C420 H409 0.950 1_554 S
C420 C418 1.391 . S
C420 C421 1.400 1_554 S
C421 C415 1.491 . S
C421 C420 1.400 1_556 S
C421 C422 1.398 1_556 S
C422 H410 0.950 . S
C422 C421 1.398 1_554 S
C422 C423 1.391 . S
C423 H411 0.950 . S
C423 C419 1.393 . S
C423 C422 1.391 . S
H424 C432 0.950 . S
H425 C437 0.950 . S
H426 C434 0.950 . S
H427 C436 0.950 . S
H428 C438 0.950 . S
H429 C440 0.950 . S
H430 C442 0.950 . S
H431 C443 0.950 . S
C432 H424 0.950 . S
C432 C433 1.386 . S
C432 C434 1.391 . S
C433 C432 1.386 . S
C433 C437 1.393 . S
C434 H426 0.950 . S
C434 C432 1.391 . S
C434 C435 1.400 . S
C435 C434 1.400 . S
C435 C436 1.398 . S
C435 C441 1.491 . S
C436 H427 0.950 . S
C436 C435 1.398 . S
C436 C437 1.391 . S
C437 H425 0.950 . S
C437 C433 1.393 . S
C437 C436 1.391 . S
C438 H428 0.950 . S
C438 C439 1.386 . S
C438 C440 1.391 1_556 S
C439 C438 1.386 . S
C439 C443 1.393 . S
C440 H429 0.950 . S
C440 C438 1.391 1_554 S
C440 C441 1.400 . S
C441 C435 1.491 . S
C441 C440 1.400 . S
C441 C442 1.398 . S
C442 H430 0.950 . S
C442 C441 1.398 . S
C442 C443 1.391 1_554 S
C443 H431 0.950 . S
C443 C439 1.393 . S
C443 C442 1.391 1_556 S
H444 C452 0.950 . S
H445 C457 0.950 . S
H446 C454 0.950 . S
H447 C456 0.950 . S
H448 C458 0.950 . S
H449 C460 0.950 . S
H450 C462 0.950 . S
H451 C463 0.950 . S
C452 H444 0.950 . S
C452 C453 1.386 . S
C452 C454 1.391 . S
C453 C452 1.386 . S
C453 C457 1.393 . S
C454 H446 0.950 . S
C454 C452 1.391 . S
C454 C455 1.400 . S
C455 C454 1.400 . S
C455 C456 1.398 . S
C455 C461 1.491 . S
C456 H447 0.950 . S
C456 C455 1.398 . S
C456 C457 1.391 . S
C457 H445 0.950 . S
C457 C453 1.393 . S
C457 C456 1.391 . S
C458 H448 0.950 . S
C458 C459 1.386 . S
C458 C460 1.391 . S
C459 C458 1.386 . S
C459 C463 1.393 . S
C460 H449 0.950 . S
C460 C458 1.391 . S
C460 C461 1.400 . S
C461 C455 1.491 . S
C461 C460 1.400 . S
C461 C462 1.398 . S
C462 H450 0.950 . S
C462 C461 1.398 . S
C462 C463 1.391 . S
C463 H451 0.950 . S
C463 C459 1.393 . S
C463 C462 1.391 . S
H464 C472 0.950 . S
H465 C477 0.950 . S
H466 C474 0.950 . S
H467 C476 0.950 . S
H468 C478 0.950 . S
H469 C480 0.950 . S
H470 C482 0.950 . S
H471 C483 0.950 . S
C472 H464 0.950 . S
C472 C473 1.386 . S
C472 C474 1.391 . S
C473 C472 1.386 . S
C473 C477 1.393 . S
C474 H466 0.950 . S
C474 C472 1.391 . S
C474 C475 1.400 . S
C475 C474 1.400 . S
C475 C476 1.398 . S
C475 C481 1.491 . S
C476 H467 0.950 . S
C476 C475 1.398 . S
C476 C477 1.391 . S
C477 H465 0.950 . S
C477 C473 1.393 . S
C477 C476 1.391 . S
C478 H468 0.950 . S
C478 C479 1.386 . S
C478 C480 1.391 . S
C479 C478 1.386 . S
C479 C483 1.393 . S
C480 H469 0.950 . S
C480 C478 1.391 . S
C480 C481 1.400 . S
C481 C475 1.491 . S
C481 C480 1.400 . S
C481 C482 1.398 . S
C482 H470 0.950 . S
C482 C481 1.398 . S
C482 C483 1.391 . S
C483 H471 0.950 . S
C483 C479 1.393 . S
C483 C482 1.391 . S
H484 C492 0.950 . S
H485 C497 0.949 1_554 S
H486 C494 0.950 . S
H487 C496 0.950 . S
H488 C498 0.950 . S
H489 C500 0.950 . S
H490 C502 0.950 . S
H491 C503 0.950 . S
C492 H484 0.950 . S
C492 C493 1.386 . S
C492 C494 1.391 1_554 S
C493 C492 1.386 . S
C493 C497 1.392 1_554 S
C494 H486 0.950 . S
C494 C492 1.391 1_556 S
C494 C495 1.400 . S
C495 C494 1.400 . S
C495 C496 1.398 . S
C495 C501 1.491 . S
C496 H487 0.950 . S
C496 C495 1.398 . S
C496 C497 1.392 . S
C497 H485 0.949 1_556 S
C497 C493 1.392 1_556 S
C497 C496 1.392 . S
C498 H488 0.950 . S
C498 C499 1.386 . S
C498 C500 1.391 . S
C499 C498 1.386 . S
C499 C503 1.393 . S
C500 H489 0.950 . S
C500 C498 1.391 . S
C500 C501 1.400 . S
C501 C495 1.491 . S
C501 C500 1.400 . S
C501 C502 1.398 . S
C502 H490 0.950 . S
C502 C501 1.398 . S
C502 C503 1.391 . S
C503 H491 0.950 . S
C503 C499 1.393 . S
C503 C502 1.391 . S
H504 C512 0.950 . S
H505 C517 0.950 . S
H506 C514 0.950 . S
H507 C516 0.950 . S
H508 C518 0.950 . S
H509 C520 0.950 . S
H510 C522 0.950 1_556 S
H511 C523 0.950 1_556 S
C512 H504 0.950 . S
C512 C513 1.386 . S
C512 C514 1.391 . S
C513 C512 1.386 . S
C513 C517 1.393 . S
C514 H506 0.950 . S
C514 C512 1.391 . S
C514 C515 1.400 . S
C515 C514 1.400 . S
C515 C516 1.398 . S
C515 C521 1.491 . S
C516 H507 0.950 . S
C516 C515 1.398 . S
C516 C517 1.391 . S
C517 H505 0.950 . S
C517 C513 1.393 . S
C517 C516 1.391 . S
C518 H508 0.950 . S
C518 C519 1.386 . S
C518 C520 1.391 . S
C519 C518 1.386 . S
C519 C523 1.393 . S
C520 H509 0.950 . S
C520 C518 1.391 . S
C520 C521 1.400 . S
C521 C515 1.491 . S
C521 C520 1.400 . S
C521 C522 1.398 . S
C522 H510 0.950 1_554 S
C522 C521 1.398 . S
C522 C523 1.391 . S
C523 H511 0.950 1_554 S
C523 C519 1.393 . S
C523 C522 1.391 . S
H524 C532 0.950 . S
H525 C537 0.950 . S
H526 C534 0.950 . S
H527 C536 0.950 . S
H528 C538 0.950 . S
H529 C540 0.950 . S
H530 C542 0.950 . S
H531 C543 0.950 . S
C532 H524 0.950 . S
C532 C533 1.386 . S
C532 C534 1.391 . S
C533 C532 1.386 . S
C533 C537 1.393 . S
C534 H526 0.950 . S
C534 C532 1.391 . S
C534 C535 1.400 . S
C535 C534 1.400 . S
C535 C536 1.398 . S
C535 C541 1.491 . S
C536 H527 0.950 . S
C536 C535 1.398 . S
C536 C537 1.391 . S
C537 H525 0.950 . S
C537 C533 1.393 . S
C537 C536 1.391 . S
C538 H528 0.950 . S
C538 C539 1.386 . S
C538 C540 1.391 . S
C539 C538 1.386 . S
C539 C543 1.393 . S
C540 H529 0.950 . S
C540 C538 1.391 . S
C540 C541 1.400 . S
C541 C535 1.491 . S
C541 C540 1.400 . S
C541 C542 1.398 . S
C542 H530 0.950 . S
C542 C541 1.398 . S
C542 C543 1.391 . S
C543 H531 0.950 . S
C543 C539 1.393 . S
C543 C542 1.391 . S
H544 C552 0.950 . S
H545 C557 0.950 . S
H546 C554 0.950 . S
H547 C556 0.950 . S
H548 C558 0.950 . S
H549 C560 0.950 . S
H550 C562 0.950 . S
H551 C563 0.950 . S
C552 H544 0.950 . S
C552 C553 1.386 . S
C552 C554 1.391 . S
C553 C552 1.386 . S
C553 C557 1.393 . S
C554 H546 0.950 . S
C554 C552 1.391 . S
C554 C555 1.400 . S
C555 C554 1.400 . S
C555 C556 1.398 . S
C555 C561 1.491 . S
C556 H547 0.950 . S
C556 C555 1.398 . S
C556 C557 1.391 . S
C557 H545 0.950 . S
C557 C553 1.393 . S
C557 C556 1.391 . S
C558 H548 0.950 . S
C558 C559 1.386 . S
C558 C560 1.391 . S
C559 C558 1.386 . S
C559 C563 1.393 . S
C560 H549 0.950 . S
C560 C558 1.391 . S
C560 C561 1.400 . S
C561 C555 1.491 . S
C561 C560 1.400 . S
C561 C562 1.398 . S
C562 H550 0.950 . S
C562 C561 1.398 . S
C562 C563 1.391 . S
C563 H551 0.950 . S
C563 C559 1.393 . S
C563 C562 1.391 . S
C213 C174 1.441 . S
C219 C4 1.430 1_556 S
C233 C17 1.645 . S
C239 C51 1.656 . S
C253 C38 1.438 . S
C259 C72 1.433 . S
C273 C85 1.655 . S
C279 C119 1.647 . S
C293 C140 1.427 . S
C299 C106 1.431 . S
C313 C187 1.653 . S
C319 C153 1.648 . S
C333 C0 0.918 . S
C339 C29 0.918 . S
C353 C63 0.912 . S
C359 C34 0.912 . S
C373 C68 0.926 . S
C379 C97 0.926 . S
C393 C131 0.927 . S
C399 C102 0.927 . S
C413 C165 0.923 . S
C419 C136 0.923 . S
C433 C199 0.915 . S
C439 C170 0.915 . S
C453 C13 1.702 . S
C459 C144 1.756 . S
C473 C42 1.754 . S
C479 C183 1.695 . S
C493 C8 1.756 . S
C499 C81 1.700 . S
C513 C47 1.694 . S
C519 C110 1.754 . S
C533 C149 1.694 . S
C539 C76 1.753 . S
C553 C115 1.701 . S
C559 C178 1.756 . S
