# Generated by pormake.
# Topology snp, (6)-cn, num edge types: 1
# Building blocks:
#     Node 0, Type 0, BuildingBlock: BETFAJ_clean_sbu_0, # of connection points: 6
#     Node 1, Type 0, BuildingBlock: BETFAJ_clean_sbu_0, # of connection points: 6
#     Node 2, Type 0, BuildingBlock: BETFAJ_clean_sbu_0, # of connection points: 6
#     Node 3, Type 0, BuildingBlock: BETFAJ_clean_sbu_0, # of connection points: 6
#     Edge 4, Type (0, 0), BuildingBlock: AJUNOK_clean_linker_0, # of connection points: 2
#     Edge 5, Type (0, 0), BuildingBlock: AJUNOK_clean_linker_0, # of connection points: 2
#     Edge 6, Type (0, 0), BuildingBlock: AJUNOK_clean_linker_0, # of connection points: 2
#     Edge 7, Type (0, 0), BuildingBlock: AJUNOK_clean_linker_0, # of connection points: 2
#     Edge 8, Type (0, 0), BuildingBlock: AJUNOK_clean_linker_0, # of connection points: 2
#     Edge 9, Type (0, 0), BuildingBlock: AJUNOK_clean_linker_0, # of connection points: 2
#     Edge 10, Type (0, 0), BuildingBlock: AJUNOK_clean_linker_0, # of connection points: 2
#     Edge 11, Type (0, 0), BuildingBlock: AJUNOK_clean_linker_0, # of connection points: 2
#     Edge 12, Type (0, 0), BuildingBlock: AJUNOK_clean_linker_0, # of connection points: 2
#     Edge 13, Type (0, 0), BuildingBlock: AJUNOK_clean_linker_0, # of connection points: 2
#     Edge 14, Type (0, 0), BuildingBlock: AJUNOK_clean_linker_0, # of connection points: 2
#     Edge 15, Type (0, 0), BuildingBlock: AJUNOK_clean_linker_0, # of connection points: 2
# Relax obj value: 0.242
# Max RMSD: 0.245
# Mean RMSD: 0.238
data_MOF--net-snp--node1-BETFAJ_clean_sbu_0--edge1-AJUNOK_clean_linker_0
_symmetry_space_group_name_H-M    P1
_symmetry_Int_Tables_number       1
_symmetry_cell_setting            triclinic
loop_
_symmetry_equiv_pos_as_xyz
'x, y, z'
_cell_length_a     19.114089
_cell_length_b     19.250449
_cell_length_c     28.893152
_cell_angle_alpha  80.501167
_cell_angle_beta   106.20587
_cell_angle_gamma 99.380428
loop_
_atom_site_label
_atom_site_type_symbol
_atom_site_fract_x
_atom_site_fract_y
_atom_site_fract_z
_atom_type_partial_charge
Sm0 Sm 0.26574 0.12051 0.15051 0.0
Sm1 Sm 0.26298 -0.02168 0.10825 0.0
C2 C 0.24574 0.21889 0.19852 0.0
C3 C 0.24172 0.22618 0.24815 0.0
C4 C 0.17497 0.20841 0.26154 0.0
C5 C 0.1707 0.21858 0.30754 0.0
C6 C 0.23289 0.24717 0.34114 0.0
C7 C 0.29973 0.26404 0.32802 0.0
C8 C 0.30402 0.25405 0.28202 0.0
C9 C 0.39907 0.07552 0.15797 0.0
C10 C 0.25334 0.96786 0.22014 0.0
C11 C 0.29955 0.88404 0.06527 0.0
C12 C 0.27906 0.86549 1.01501 0.0
C13 C 0.32727 0.88758 0.98499 0.0
C14 C 0.30611 0.87429 0.9365 0.0
C15 C 0.23637 0.83864 0.91716 0.0
C16 C 0.18934 0.81417 0.94766 0.0
C17 C 0.21033 0.8275 0.99598 0.0
C18 C 0.12881 0.0037 0.10977 0.0
C19 C 0.24395 0.13409 1.03466 0.0
O20 O 0.19191 0.17917 0.17252 0.0
O21 O 0.30976 0.21203 0.19283 0.0
O22 O 0.34212 0.03794 0.16441 0.0
O23 O 0.38864 0.1421 0.14809 0.0
O24 O 0.23938 0.03423 0.20941 0.0
O25 O 0.27501 0.93587 0.19006 0.0
O26 O 0.33926 0.9456 0.07253 0.0
O27 O 0.24833 0.86944 0.08884 0.0
O28 O 0.18011 0.05067 0.10146 0.0
O29 O 0.14341 0.94078 0.10764 0.0
O30 O 0.25777 0.06702 0.0412 0.0
O31 O 0.24012 0.1662 0.07069 0.0
H32 H 0.12576 0.187 0.23642 0.0
H33 H 0.11871 0.20377 0.31687 0.0
H34 H 0.3485 0.28649 0.35302 0.0
H35 H 0.35608 0.26899 0.2728 0.0
H36 H 0.38084 0.91634 0.99875 0.0
H37 H 0.34351 0.89346 0.91379 0.0
H38 H 0.13595 0.785 0.93402 0.0
H39 H 0.17206 0.8088 1.01811 0.0
Sm40 Sm 0.97312 0.23403 0.74705 0.0
Sm41 Sm 0.11868 0.28483 0.72018 0.0
C42 C 0.86769 0.16954 0.78728 0.0
C43 C 0.85286 0.16482 0.83522 0.0
C44 C 0.84539 0.09822 0.86272 0.0
C45 C 0.83324 0.09249 0.90867 0.0
C46 C 0.82757 0.15324 0.92797 0.0
C47 C 0.83473 0.22 0.90035 0.0
C48 C 0.84764 0.22582 0.85447 0.0
C49 C 1.00191 0.37793 0.72641 0.0
C50 C 0.13014 0.24842 0.83383 0.0
C51 C 0.21679 0.34559 0.67264 0.0
C52 C 0.22518 0.33217 0.62544 0.0
C53 C 0.22212 0.3873 0.58673 0.0
C54 C 0.22284 0.37363 0.54069 0.0
C55 C 0.22674 0.3045 0.53242 0.0
C56 C 0.23168 0.24975 0.57146 0.0
C57 C 0.23024 0.26321 0.6173 0.0
C58 C 0.08277 0.13951 0.72809 0.0
C59 C 0.96364 0.25467 0.63358 0.0
O60 O 0.92296 0.1382 0.78611 0.0
O61 O 0.86373 0.23092 0.75997 0.0
O62 O 0.04867 0.33752 0.75103 0.0
O63 O 0.93664 0.34328 0.71589 0.0
O64 O 0.06044 0.22169 0.82042 0.0
O65 O 0.16551 0.28478 0.80247 0.0
O66 O 0.15842 0.37449 0.67063 0.0
O67 O 0.23031 0.29481 0.70891 0.0
O68 O 0.0394 0.18521 0.71067 0.0
O69 O 0.14897 0.17107 0.74234 0.0
O70 O 0.03087 0.28851 0.64592 0.0
O71 O 0.93091 0.21951 0.66654 0.0
H72 H 0.84957 0.05054 0.84878 0.0
H73 H 0.82892 0.04035 0.92937 0.0
H74 H 0.82955 0.26758 0.91394 0.0
H75 H 0.8535 0.27805 0.83417 0.0
H76 H 0.21782 0.44078 0.5919 0.0
H77 H 0.22045 0.41721 0.51155 0.0
H78 H 0.23464 0.19598 0.5662 0.0
H79 H 0.23157 0.21912 0.64604 0.0
Sm80 Sm 0.81607 0.07331 0.23739 0.0
Sm81 Sm 0.81102 0.92825 0.19727 0.0
C82 C 0.78415 0.16709 0.28287 0.0
C83 C 0.8075 0.18429 0.33339 0.0
C84 C 0.75856 0.16712 0.36312 0.0
C85 C 0.7818 0.17852 0.41196 0.0
C86 C 0.85436 0.20739 0.43185 0.0
C87 C 0.90239 0.22692 0.40165 0.0
C88 C 0.87942 0.21531 0.35303 0.0
C89 C 0.94676 0.05012 0.22776 0.0
C90 C 0.84705 0.9213 0.31431 0.0
C91 C 0.82567 0.83172 0.14553 0.0
C92 C 0.82896 0.82751 0.09526 0.0
C93 C 0.87558 0.87668 0.07211 0.0
C94 C 0.87958 0.8697 1.0253 0.0
C95 C 0.83659 0.81391 1.00044 0.0
C96 C 0.78991 0.76514 1.02366 0.0
C97 C 0.7862 0.77189 0.07044 0.0
C98 C 0.67958 0.96793 0.19875 0.0
C99 C 0.80602 0.0803 0.12394 0.0
O100 O 0.74349 0.10593 0.27586 0.0
O101 O 0.83367 0.18177 0.25791 0.0
O102 O 0.89932 0.00271 0.24078 0.0
O103 O 0.93027 0.11345 0.22682 0.0
O104 O 0.83431 -0.01122 0.30625 0.0
O105 O 0.84403 0.88483 0.27855 0.0
O106 O 0.88086 0.86832 0.17271 0.0
O107 O 0.76248 0.8404 0.15159 0.0
O108 O 0.73252 0.00718 0.1874 0.0
O109 O 0.69304 0.90216 0.20858 0.0
O110 O 0.8248 0.01534 0.13451 0.0
O111 O 0.78864 0.11274 0.15544 0.0
H112 H 0.70271 0.14356 0.34883 0.0
H113 H 0.74361 0.16314 0.43445 0.0
H114 H 0.95809 0.25081 0.41579 0.0
H115 H 0.91854 0.22979 0.33118 0.0
H116 H 0.90926 0.92029 0.09023 0.0
H117 H 0.91598 0.90816 1.00838 0.0
H118 H 0.75716 0.7208 1.00596 0.0
H119 H 0.75031 0.73301 0.08753 0.0
Sm120 Sm 0.98203 0.76223 0.62646 0.0
Sm121 Sm 0.12829 0.79429 0.60404 0.0
C122 C 0.87757 0.71849 0.67238 0.0
C123 C 0.87005 0.73272 0.71996 0.0
C124 C 0.90867 0.69785 0.76427 0.0
C125 C 0.90335 0.71366 0.8088 0.0
C126 C 0.85901 0.76444 0.8103 0.0
C127 C 0.82102 0.79979 0.76604 0.0
C128 C 0.82618 0.78391 0.72153 0.0
C129 C 0.02954 0.90527 0.61738 0.0
C130 C 0.13478 0.78449 0.71606 0.0
C131 C 0.24066 0.83382 0.56476 0.0
C132 C 0.24723 0.8351 0.5152 0.0
C133 C 0.31153 0.8671 0.50226 0.0
C134 C 0.31463 0.87415 0.45384 0.0
C135 C 0.25336 0.84939 0.41808 0.0
C136 C 0.19039 0.81434 0.43156 0.0
C137 C 0.18748 0.8069 0.47987 0.0
C138 C 0.08603 0.6531 0.62782 0.0
C139 C 0.97469 0.80024 0.51447 0.0
O140 O 0.92819 0.67947 0.67341 0.0
O141 O 0.87386 0.77219 0.63794 0.0
O142 O 0.06929 0.85703 0.63727 0.0
O143 O 0.96354 0.87752 0.59797 0.0
O144 O 0.06622 0.75437 0.70226 0.0
O145 O 0.17132 0.81414 0.68377 0.0
O146 O 0.19954 0.87851 0.57005 0.0
O147 O 0.22806 0.77073 0.58773 0.0
O148 O 0.04426 0.69558 0.59956 0.0
O149 O 0.15213 0.68425 0.64231 0.0
O150 O 0.04482 0.82341 0.53101 0.0
O151 O 0.93721 0.7609 0.54366 0.0
H152 H 0.94343 0.65847 0.7647 0.0
H153 H 0.93339 0.68547 0.84216 0.0
H154 H 0.78781 0.84045 0.76577 0.0
H155 H 0.79625 0.81236 0.68824 0.0
H156 H 0.35813 0.88897 0.52915 0.0
H157 H 0.36303 0.90275 0.44382 0.0
H158 H 0.14213 0.79621 0.40427 0.0
H159 H 0.13757 0.78151 0.48932 0.0
C160 C 0.01524 0.09172 0.16501 0.0
C161 C 0.99597 0.03757 0.20001 0.0
C162 C 0.05594 0.07955 0.13447 0.0
C163 C 0.07953 0.01319 0.1385 0.0
H164 H 0.99819 0.14378 0.16079 0.0
H165 H 0.06956 0.12249 0.10784 0.0
S166 S 0.0508 0.8565 0.22855 0.0
N167 N 0.00871 0.91756 0.24006 0.0
N168 N 0.08395 0.89328 0.18202 0.0
C169 C 0.06136 0.95867 0.17387 0.0
C170 C 0.02028 -0.02859 0.20508 0.0
C171 C 0.11297 -0.00196 0.66249 0.0
C172 C 0.04081 0.96848 0.64217 0.0
C173 C 0.12708 0.0503 0.69336 0.0
C174 C 0.06935 0.07436 0.70516 0.0
H175 H 0.15895 -0.01991 0.65479 0.0
H176 H 0.18336 0.0734 0.70675 0.0
S177 S 0.87117 0.00957 0.66537 0.0
N178 N 0.91109 0.96442 0.63831 0.0
N179 N 0.93818 0.06191 0.69701 0.0
C180 C 0.99721 0.04377 0.68633 0.0
C181 C 0.98266 -0.00869 0.65441 0.0
C182 C 0.60228 0.0667 0.17841 0.0
C183 C 0.60786 -0.00661 0.19073 0.0
C184 C 0.53458 0.09302 0.16738 0.0
C185 C 0.46995 0.04699 0.16821 0.0
H186 H 0.6506 0.10429 0.1769 0.0
H187 H 0.53299 0.14973 0.15826 0.0
S188 S 0.45487 0.85034 0.1979 0.0
N189 N 0.54321 0.87534 0.20307 0.0
N190 N 0.41585 0.92409 0.18226 0.0
C191 C 0.47487 -0.02653 0.18061 0.0
C192 C 0.54388 0.94683 0.19197 0.0
C193 C 0.09312 0.48227 0.7138 0.0
C194 C 0.02061 0.44914 0.70176 0.0
C195 C 0.11348 0.5477 0.68892 0.0
C196 C 0.06204 0.58264 0.65115 0.0
H197 H 0.13472 0.45725 0.74242 0.0
H198 H 0.17017 0.57114 0.6997 0.0
S199 S 0.86499 0.51807 0.60527 0.0
N200 N 0.89678 0.45594 0.6494 0.0
N201 N 0.93568 0.57916 0.60253 0.0
C202 C 0.98929 0.55024 0.63866 0.0
C203 C 0.96836 0.4835 0.66411 0.0
C204 C 0.27954 0.25112 0.47793 0.0
C205 C 0.22595 0.28919 0.48334 0.0
C206 C 0.28101 0.23734 0.43199 0.0
C207 C 0.22845 0.26034 0.38963 0.0
H208 H 0.32148 0.23283 0.50942 0.0
H209 H 0.32363 0.20828 0.42961 0.0
S210 S 0.07516 0.36013 0.38414 0.0
N211 N 0.11758 0.34769 0.44253 0.0
N212 N 0.12088 0.32264 0.35622 0.0
C213 C 0.17384 0.29746 0.39462 0.0
C214 C 0.17257 0.31179 0.44139 0.0
C215 C 0.76107 0.09084 0.9889 0.0
C216 C 0.81381 0.14555 0.97675 0.0
C217 C 0.75458 0.07425 1.03654 0.0
C218 C 0.79943 0.11262 0.07358 0.0
H219 H 0.72671 0.05844 0.9618 0.0
H220 H 0.71681 0.02855 0.04502 0.0
S221 S 0.94171 0.2643 0.06073 0.0
N222 N 0.90917 0.24064 1.00555 0.0
N223 N 0.89428 0.21063 0.09503 0.0
C224 C 0.84854 0.17065 0.06161 0.0
C225 C 0.8563 0.18696 1.01309 0.0
C226 C 0.88764 0.78845 0.43071 0.0
C227 C 0.93741 0.83031 0.46424 0.0
C228 C 0.85815 0.81758 0.38206 0.0
C229 C 0.87566 0.88999 0.36581 0.0
H230 H 0.87323 0.73257 0.44168 0.0
H231 H 0.82133 0.78333 0.35709 0.0
S232 S 1.00237 0.0221 0.43969 0.0
N233 N 1.00211 0.94791 0.47754 0.0
N234 N 0.9462 0.00219 0.3876 0.0
C235 C 0.92417 0.93227 0.39946 0.0
C236 C 0.95505 0.90259 0.44822 0.0
C237 C 0.23212 0.78582 0.79487 0.0
C238 C 0.16211 0.80013 0.76658 0.0
C239 C 0.25643 0.79914 0.84358 0.0
C240 C 0.2117 0.8279 0.86508 0.0
H241 H 0.26743 0.7628 0.77963 0.0
H242 H 0.3099 0.78557 0.8648 0.0
S243 S 0.02902 0.88607 0.80297 0.0
N244 N 0.05168 0.85135 0.76143 0.0
N245 N 0.09777 0.87792 0.85224 0.0
C246 C 0.143 0.84551 0.83613 0.0
C247 C 0.11813 0.83127 0.78701 0.0
C248 C 0.91002 0.80443 0.94195 0.0
C249 C 0.84141 0.80526 0.95093 0.0
C250 C 0.91532 0.79154 0.89652 0.0
C251 C 0.85229 0.77998 0.85792 0.0
H252 H 0.95999 0.81206 0.97064 0.0
H253 H 0.9693 0.79062 0.89162 0.0
S254 S 0.65979 0.77977 0.86204 0.0
N255 N 0.70933 0.79598 0.91678 0.0
N256 N 0.71905 0.77125 0.83191 0.0
C257 C 0.7835 0.78217 0.8662 0.0
C258 C 0.77813 0.79482 0.91249 0.0
C259 C 0.28579 0.87386 0.29189 0.0
C260 C 0.24781 0.93233 0.26889 0.0
C261 C 0.28704 0.84569 0.34029 0.0
C262 C 0.24893 0.87422 0.36642 0.0
H263 H 0.31686 0.85149 0.27311 0.0
H264 H 0.31856 0.80214 0.35754 0.0
S265 S 0.1389 0.02457 0.32326 0.0
N266 N 0.17014 0.01652 0.27689 0.0
N267 N 0.17097 0.96152 0.36635 0.0
C268 C 0.20906 0.93072 0.34357 0.0
C269 C 0.20884 0.96031 0.29515 0.0
C270 C 0.22698 0.19024 0.89919 0.0
C271 C 0.16867 0.23187 0.88561 0.0
C272 C 0.25265 0.15981 0.94774 0.0
C273 C 0.22195 0.17147 0.98441 0.0
H274 H 0.24992 0.17765 0.87171 0.0
H275 H 0.29566 0.12582 0.95642 0.0
S276 S 0.0692 0.27839 0.9671 0.0
N277 N 0.08169 0.28381 0.91229 0.0
N278 N 0.13092 0.22937 1.00334 0.0
C279 C 0.16556 0.21554 0.97128 0.0
C280 C 0.13863 0.24497 0.92192 0.0
C281 C 0.83981 0.24898 0.50627 0.0
C282 C 0.88075 0.21636 0.48414 0.0
C283 C 0.86609 0.26075 0.55519 0.0
C284 C 0.9343 0.24092 0.58298 0.0
H285 H 0.78793 0.26679 0.48539 0.0
H286 H 0.83383 0.28678 0.57101 0.0
S287 S 0.05731 0.14476 0.54476 0.0
N288 N 0.98904 0.15767 0.4958 0.0
N289 N 0.03892 0.18151 0.58707 0.0
C290 C 0.97444 0.20623 0.56196 0.0
C291 C 0.94755 0.19354 0.51263 0.0
loop_
_geom_bond_atom_site_label_1
_geom_bond_atom_site_label_2
_geom_bond_distance
_geom_bond_site_symmetry_2
_ccdc_geom_bond_type
Sm0 C2 2.846 . S
Sm0 O20 2.543 . S
Sm0 O21 2.450 . S
Sm0 O22 2.681 . S
Sm0 O23 2.464 . S
Sm0 O24 2.396 . S
Sm0 O28 2.386 . S
Sm0 O31 2.408 . S
Sm1 C11 2.846 1_544 S
Sm1 O22 2.386 . S
Sm1 O25 2.408 1_545 S
Sm1 O26 2.543 1_545 S
Sm1 O27 2.450 1_544 S
Sm1 O28 2.681 . S
Sm1 O29 2.464 . S
Sm1 O30 2.396 . S
C2 Sm0 2.846 . S
C2 C3 1.506 . S
C2 O20 1.261 . S
C2 O21 1.242 . S
C3 C2 1.506 . S
C3 C4 1.358 . S
C3 C8 1.382 . S
C4 C3 1.358 . S
C4 C5 1.385 . S
C4 H32 0.930 . S
C5 C4 1.385 . S
C5 C6 1.395 . S
C5 H33 0.929 . S
C6 C5 1.395 . S
C6 C7 1.335 . S
C7 C6 1.335 . S
C7 C8 1.398 . S
C7 H34 0.930 . S
C8 C3 1.382 . S
C8 C7 1.398 . S
C8 H35 0.929 . S
C9 O22 1.271 . S
C9 O23 1.251 . S
C10 O24 1.252 . S
C10 O25 1.272 1_545 S
C11 Sm1 2.846 1_566 S
C11 C12 1.506 . S
C11 O26 1.261 1_556 S
C11 O27 1.242 . S
C12 C11 1.506 . S
C12 C13 1.358 . S
C12 C17 1.382 . S
C13 C12 1.358 . S
C13 C14 1.385 . S
C13 H36 0.930 . S
C14 C13 1.385 . S
C14 C15 1.395 . S
C14 H37 0.929 . S
C15 C14 1.395 . S
C15 C16 1.335 . S
C16 C15 1.335 . S
C16 C17 1.398 . S
C16 H38 0.930 . S
C17 C12 1.382 . S
C17 C16 1.398 . S
C17 H39 0.929 . S
C18 O28 1.271 . S
C18 O29 1.251 . S
C19 O30 1.252 . S
C19 O31 1.272 . S
O20 Sm0 2.543 . S
O20 C2 1.261 . S
O21 Sm0 2.450 . S
O21 C2 1.242 . S
O22 Sm0 2.681 . S
O22 Sm1 2.386 . S
O22 C9 1.271 . S
O23 Sm0 2.464 . S
O23 C9 1.251 . S
O24 Sm0 2.396 . S
O24 C10 1.252 . S
O25 Sm1 2.408 1_565 S
O25 C10 1.272 1_565 S
O26 Sm1 2.543 1_565 S
O26 C11 1.261 1_554 S
O27 Sm1 2.450 1_566 S
O27 C11 1.242 . S
O28 Sm0 2.386 . S
O28 Sm1 2.681 . S
O28 C18 1.271 . S
O29 Sm1 2.464 . S
O29 C18 1.251 . S
O30 Sm1 2.396 . S
O30 C19 1.252 . S
O31 Sm0 2.408 . S
O31 C19 1.272 . S
H32 C4 0.930 . S
H33 C5 0.929 . S
H34 C7 0.930 . S
H35 C8 0.929 . S
H36 C13 0.930 . S
H37 C14 0.929 . S
H38 C16 0.930 . S
H39 C17 0.929 . S
Sm40 C42 2.846 . S
Sm40 O60 2.543 . S
Sm40 O61 2.450 . S
Sm40 O62 2.681 1_655 S
Sm40 O63 2.464 . S
Sm40 O64 2.396 1_655 S
Sm40 O68 2.386 1_655 S
Sm40 O71 2.408 . S
Sm41 C51 2.846 . S
Sm41 O62 2.386 . S
Sm41 O65 2.408 . S
Sm41 O66 2.543 . S
Sm41 O67 2.450 . S
Sm41 O68 2.681 . S
Sm41 O69 2.464 . S
Sm41 O70 2.396 . S
C42 Sm40 2.846 . S
C42 C43 1.506 . S
C42 O60 1.261 . S
C42 O61 1.242 . S
C43 C42 1.506 . S
C43 C44 1.358 . S
C43 C48 1.382 . S
C44 C43 1.358 . S
C44 C45 1.385 . S
C44 H72 0.930 . S
C45 C44 1.385 . S
C45 C46 1.395 . S
C45 H73 0.929 . S
C46 C45 1.395 . S
C46 C47 1.335 . S
C47 C46 1.335 . S
C47 C48 1.398 . S
C47 H74 0.930 . S
C48 C43 1.382 . S
C48 C47 1.398 . S
C48 H75 0.929 . S
C49 O62 1.271 . S
C49 O63 1.251 1_455 S
C50 O64 1.252 . S
C50 O65 1.272 . S
C51 Sm41 2.846 . S
C51 C52 1.506 . S
C51 O66 1.261 . S
C51 O67 1.242 . S
C52 C51 1.506 . S
C52 C53 1.358 . S
C52 C57 1.382 . S
C53 C52 1.358 . S
C53 C54 1.385 . S
C53 H76 0.930 . S
C54 C53 1.385 . S
C54 C55 1.395 . S
C54 H77 0.929 . S
C55 C54 1.395 . S
C55 C56 1.335 . S
C56 C55 1.335 . S
C56 C57 1.398 . S
C56 H78 0.930 . S
C57 C52 1.382 . S
C57 C56 1.398 . S
C57 H79 0.929 . S
C58 O68 1.271 . S
C58 O69 1.251 . S
C59 O70 1.252 1_655 S
C59 O71 1.272 . S
O60 Sm40 2.543 . S
O60 C42 1.261 . S
O61 Sm40 2.450 . S
O61 C42 1.242 . S
O62 Sm40 2.681 1_455 S
O62 Sm41 2.386 . S
O62 C49 1.271 . S
O63 Sm40 2.464 . S
O63 C49 1.251 1_655 S
O64 Sm40 2.396 1_455 S
O64 C50 1.252 . S
O65 Sm41 2.408 . S
O65 C50 1.272 . S
O66 Sm41 2.543 . S
O66 C51 1.261 . S
O67 Sm41 2.450 . S
O67 C51 1.242 . S
O68 Sm40 2.386 1_455 S
O68 Sm41 2.681 . S
O68 C58 1.271 . S
O69 Sm41 2.464 . S
O69 C58 1.251 . S
O70 Sm41 2.396 . S
O70 C59 1.252 1_455 S
O71 Sm40 2.408 . S
O71 C59 1.272 . S
H72 C44 0.930 . S
H73 C45 0.929 . S
H74 C47 0.930 . S
H75 C48 0.929 . S
H76 C53 0.930 . S
H77 C54 0.929 . S
H78 C56 0.930 . S
H79 C57 0.929 . S
Sm80 C82 2.846 . S
Sm80 O100 2.543 . S
Sm80 O101 2.450 . S
Sm80 O102 2.681 1_545 S
Sm80 O103 2.464 . S
Sm80 O104 2.396 1_545 S
Sm80 O108 2.386 . S
Sm80 O111 2.408 . S
Sm81 C91 2.846 . S
Sm81 O102 2.386 . S
Sm81 O105 2.408 . S
Sm81 O106 2.543 . S
Sm81 O107 2.450 . S
Sm81 O108 2.681 1_565 S
Sm81 O109 2.464 . S
Sm81 O110 2.396 1_565 S
C82 Sm80 2.846 . S
C82 C83 1.506 . S
C82 O100 1.261 . S
C82 O101 1.242 . S
C83 C82 1.506 . S
C83 C84 1.358 . S
C83 C88 1.382 . S
C84 C83 1.358 . S
C84 C85 1.385 . S
C84 H112 0.930 . S
C85 C84 1.385 . S
C85 C86 1.395 . S
C85 H113 0.929 . S
C86 C85 1.395 . S
C86 C87 1.335 . S
C87 C86 1.335 . S
C87 C88 1.398 . S
C87 H114 0.930 . S
C88 C83 1.382 . S
C88 C87 1.398 . S
C88 H115 0.929 . S
C89 O102 1.271 1_545 S
C89 O103 1.251 . S
C90 O104 1.252 . S
C90 O105 1.272 . S
C91 Sm81 2.846 . S
C91 C92 1.506 . S
C91 O106 1.261 . S
C91 O107 1.242 . S
C92 C91 1.506 . S
C92 C93 1.371 . S
C92 C97 1.382 1_554 S
C93 C92 1.371 . S
C93 C94 1.367 1_554 S
C93 H116 0.936 . S
C94 C93 1.367 1_556 S
C94 C95 1.395 . S
C94 H117 0.929 . S
C95 C94 1.395 . S
C95 C96 1.335 . S
C96 C95 1.335 . S
C96 C97 1.398 . S
C96 H118 0.930 . S
C97 C92 1.382 1_556 S
C97 C96 1.398 . S
C97 H119 0.929 1_556 S
C98 O108 1.271 1_565 S
C98 O109 1.251 . S
C99 O110 1.252 . S
C99 O111 1.272 . S
O100 Sm80 2.543 . S
O100 C82 1.261 . S
O101 Sm80 2.450 . S
O101 C82 1.242 . S
O102 Sm80 2.681 1_565 S
O102 Sm81 2.386 . S
O102 C89 1.271 1_565 S
O103 Sm80 2.464 . S
O103 C89 1.251 . S
O104 Sm80 2.396 1_565 S
O104 C90 1.252 . S
O105 Sm81 2.408 . S
O105 C90 1.272 . S
O106 Sm81 2.543 . S
O106 C91 1.261 . S
O107 Sm81 2.450 . S
O107 C91 1.242 . S
O108 Sm80 2.386 . S
O108 Sm81 2.681 1_545 S
O108 C98 1.271 1_545 S
O109 Sm81 2.464 . S
O109 C98 1.251 . S
O110 Sm81 2.396 1_545 S
O110 C99 1.252 . S
O111 Sm80 2.408 . S
O111 C99 1.272 . S
H112 C84 0.930 . S
H113 C85 0.929 . S
H114 C87 0.930 . S
H115 C88 0.929 . S
H116 C93 0.936 . S
H117 C94 0.929 . S
H118 C96 0.930 . S
H119 C97 0.929 1_554 S
Sm120 C122 2.846 . S
Sm120 O140 2.543 . S
Sm120 O141 2.450 . S
Sm120 O142 2.681 1_655 S
Sm120 O143 2.464 . S
Sm120 O144 2.396 1_655 S
Sm120 O148 2.386 1_655 S
Sm120 O151 2.408 . S
Sm121 C131 2.846 . S
Sm121 O142 2.386 . S
Sm121 O145 2.408 . S
Sm121 O146 2.543 . S
Sm121 O147 2.450 . S
Sm121 O148 2.681 . S
Sm121 O149 2.464 . S
Sm121 O150 2.396 . S
C122 Sm120 2.846 . S
C122 C123 1.506 . S
C122 O140 1.261 . S
C122 O141 1.242 . S
C123 C122 1.506 . S
C123 C124 1.358 . S
C123 C128 1.382 . S
C124 C123 1.358 . S
C124 C125 1.385 . S
C124 H152 0.930 . S
C125 C124 1.385 . S
C125 C126 1.395 . S
C125 H153 0.929 . S
C126 C125 1.395 . S
C126 C127 1.335 . S
C127 C126 1.335 . S
C127 C128 1.398 . S
C127 H154 0.930 . S
C128 C123 1.382 . S
C128 C127 1.398 . S
C128 H155 0.929 . S
C129 O142 1.271 . S
C129 O143 1.251 1_455 S
C130 O144 1.252 . S
C130 O145 1.272 . S
C131 Sm121 2.846 . S
C131 C132 1.506 . S
C131 O146 1.261 . S
C131 O147 1.242 . S
C132 C131 1.506 . S
C132 C133 1.358 . S
C132 C137 1.382 . S
C133 C132 1.358 . S
C133 C134 1.385 . S
C133 H156 0.930 . S
C134 C133 1.385 . S
C134 C135 1.395 . S
C134 H157 0.929 1_565 S
C135 C134 1.395 . S
C135 C136 1.335 . S
C136 C135 1.335 . S
C136 C137 1.398 . S
C136 H158 0.930 . S
C137 C132 1.382 . S
C137 C136 1.398 . S
C137 H159 0.929 . S
C138 O148 1.271 . S
C138 O149 1.251 . S
C139 O150 1.252 1_655 S
C139 O151 1.272 . S
O140 Sm120 2.543 . S
O140 C122 1.261 . S
O141 Sm120 2.450 . S
O141 C122 1.242 . S
O142 Sm120 2.681 1_455 S
O142 Sm121 2.386 . S
O142 C129 1.271 . S
O143 Sm120 2.464 . S
O143 C129 1.251 1_655 S
O144 Sm120 2.396 1_455 S
O144 C130 1.252 . S
O145 Sm121 2.408 . S
O145 C130 1.272 . S
O146 Sm121 2.543 . S
O146 C131 1.261 . S
O147 Sm121 2.450 . S
O147 C131 1.242 . S
O148 Sm120 2.386 1_455 S
O148 Sm121 2.681 . S
O148 C138 1.271 . S
O149 Sm121 2.464 . S
O149 C138 1.251 . S
O150 Sm121 2.396 . S
O150 C139 1.252 1_455 S
O151 Sm120 2.408 . S
O151 C139 1.272 . S
H152 C124 0.930 . S
H153 C125 0.929 . S
H154 C127 0.930 . S
H155 C128 0.929 . S
H156 C133 0.930 . S
H157 C134 0.929 1_545 S
H158 C136 0.930 . S
H159 C137 0.929 . S
C160 C161 1.370 . S
C160 C162 1.419 . S
C160 H164 0.930 . S
C161 C160 1.370 . S
C161 C170 1.426 1_655 S
C162 C160 1.419 . S
C162 C163 1.363 1_655 S
C162 H165 0.929 . S
C163 C162 1.363 1_455 S
C163 C169 1.428 . S
H164 C160 0.930 . S
H165 C162 0.929 . S
S166 N167 1.613 . S
S166 N168 1.610 . S
N167 S166 1.613 . S
N167 C170 1.350 . S
N168 S166 1.610 . S
N168 C169 1.351 . S
C169 C163 1.428 . S
C169 N168 1.351 . S
C169 C170 1.434 . S
C170 C161 1.426 1_455 S
C170 N167 1.350 . S
C170 C169 1.434 . S
C171 C172 1.369 1_565 S
C171 C173 1.419 1_565 S
C171 H175 0.930 . S
C172 C171 1.369 1_545 S
C172 C181 1.429 . S
C173 C171 1.419 1_545 S
C173 C174 1.363 . S
C173 H176 0.929 1_545 S
C174 C173 1.363 . S
C174 C180 1.428 . S
H175 C171 0.930 . S
H176 C173 0.929 1_565 S
S177 N178 1.613 . S
S177 N179 1.610 . S
N178 S177 1.613 . S
N178 C181 1.350 1_655 S
N179 S177 1.610 . S
N179 C180 1.351 1_655 S
C180 C174 1.428 . S
C180 N179 1.351 1_455 S
C180 C181 1.434 . S
C181 C172 1.429 . S
C181 N178 1.350 1_455 S
C181 C180 1.434 . S
C182 C183 1.369 . S
C182 C184 1.419 . S
C182 H186 0.930 . S
C183 C182 1.369 . S
C183 C192 1.429 1_545 S
C184 C182 1.419 . S
C184 C185 1.363 . S
C184 H187 0.929 . S
C185 C184 1.363 . S
C185 C191 1.428 . S
H186 C182 0.930 . S
H187 C184 0.929 . S
S188 N189 1.613 . S
S188 N190 1.610 . S
N189 S188 1.613 . S
N189 C192 1.350 . S
N190 S188 1.610 . S
N190 C191 1.351 1_565 S
C191 C185 1.428 . S
C191 N190 1.351 1_545 S
C191 C192 1.434 1_545 S
C192 C183 1.429 1_565 S
C192 N189 1.350 . S
C192 C191 1.434 1_565 S
C193 C194 1.369 . S
C193 C195 1.419 . S
C193 H197 0.930 . S
C194 C193 1.369 . S
C194 C203 1.429 . S
C195 C193 1.419 . S
C195 C196 1.363 . S
C195 H198 0.929 . S
C196 C195 1.363 . S
C196 C202 1.428 . S
H197 C193 0.930 . S
H198 C195 0.929 . S
S199 N200 1.613 . S
S199 N201 1.610 . S
N200 S199 1.613 . S
N200 C203 1.350 . S
N201 S199 1.610 . S
N201 C202 1.351 . S
C202 C196 1.428 . S
C202 N201 1.351 . S
C202 C203 1.434 . S
C203 C194 1.429 . S
C203 N200 1.350 . S
C203 C202 1.434 . S
C204 C205 1.369 . S
C204 C206 1.419 . S
C204 H208 0.930 . S
C205 C204 1.369 . S
C205 C214 1.429 . S
C206 C204 1.419 . S
C206 C207 1.363 . S
C206 H209 0.929 . S
C207 C206 1.363 . S
C207 C213 1.428 . S
H208 C204 0.930 . S
H209 C206 0.929 . S
S210 N211 1.613 . S
S210 N212 1.610 . S
N211 S210 1.613 . S
N211 C214 1.350 . S
N212 S210 1.610 . S
N212 C213 1.351 . S
C213 C207 1.428 . S
C213 N212 1.351 . S
C213 C214 1.434 . S
C214 C205 1.429 . S
C214 N211 1.350 . S
C214 C213 1.434 . S
C215 C216 1.369 . S
C215 C217 1.419 1_556 S
C215 H219 0.930 . S
C216 C215 1.369 . S
C216 C225 1.429 . S
C217 C215 1.419 1_554 S
C217 C218 1.363 . S
C217 H220 0.929 . S
C218 C217 1.363 . S
C218 C224 1.428 . S
H219 C215 0.930 . S
H220 C217 0.929 . S
S221 N222 1.613 1_554 S
S221 N223 1.610 . S
N222 S221 1.613 1_556 S
N222 C225 1.350 . S
N223 S221 1.610 . S
N223 C224 1.351 . S
C224 C218 1.428 . S
C224 N223 1.351 . S
C224 C225 1.434 1_554 S
C225 C216 1.429 . S
C225 N222 1.350 . S
C225 C224 1.434 1_556 S
C226 C227 1.369 . S
C226 C228 1.419 . S
C226 H230 0.930 . S
C227 C226 1.369 . S
C227 C236 1.429 . S
C228 C226 1.419 . S
C228 C229 1.363 . S
C228 H231 0.929 . S
C229 C228 1.363 . S
C229 C235 1.428 . S
H230 C226 0.930 . S
H231 C228 0.929 . S
S232 N233 1.613 1_545 S
S232 N234 1.610 . S
N233 S232 1.613 1_565 S
N233 C236 1.350 . S
N234 S232 1.610 . S
N234 C235 1.351 1_545 S
C235 C229 1.428 . S
C235 N234 1.351 1_565 S
C235 C236 1.434 . S
C236 C227 1.429 . S
C236 N233 1.350 . S
C236 C235 1.434 . S
C237 C238 1.369 . S
C237 C239 1.419 . S
C237 H241 0.930 . S
C238 C237 1.369 . S
C238 C247 1.429 . S
C239 C237 1.419 . S
C239 C240 1.363 . S
C239 H242 0.929 . S
C240 C239 1.363 . S
C240 C246 1.428 . S
H241 C237 0.930 . S
H242 C239 0.929 . S
S243 N244 1.613 . S
S243 N245 1.610 . S
N244 S243 1.613 . S
N244 C247 1.350 . S
N245 S243 1.610 . S
N245 C246 1.351 . S
C246 C240 1.428 . S
C246 N245 1.351 . S
C246 C247 1.434 . S
C247 C238 1.429 . S
C247 N244 1.350 . S
C247 C246 1.434 . S
C248 C249 1.369 . S
C248 C250 1.419 . S
C248 H252 0.930 . S
C249 C248 1.369 . S
C249 C258 1.429 . S
C250 C248 1.419 . S
C250 C251 1.363 . S
C250 H253 0.929 . S
C251 C250 1.363 . S
C251 C257 1.428 . S
H252 C248 0.930 . S
H253 C250 0.929 . S
S254 N255 1.613 . S
S254 N256 1.610 . S
N255 S254 1.613 . S
N255 C258 1.350 . S
N256 S254 1.610 . S
N256 C257 1.351 . S
C257 C251 1.428 . S
C257 N256 1.351 . S
C257 C258 1.434 . S
C258 C249 1.429 . S
C258 N255 1.350 . S
C258 C257 1.434 . S
C259 C260 1.369 . S
C259 C261 1.419 . S
C259 H263 0.930 . S
C260 C259 1.369 . S
C260 C269 1.429 1_565 S
C261 C259 1.419 . S
C261 C262 1.363 . S
C261 H264 0.929 . S
C262 C261 1.363 . S
C262 C268 1.428 . S
H263 C259 0.930 . S
H264 C261 0.929 . S
S265 N266 1.613 . S
S265 N267 1.610 1_545 S
N266 S265 1.613 . S
N266 C269 1.350 . S
N267 S265 1.610 1_565 S
N267 C268 1.351 . S
C268 C262 1.428 . S
C268 N267 1.351 . S
C268 C269 1.434 1_565 S
C269 C260 1.429 1_545 S
C269 N266 1.350 . S
C269 C268 1.434 1_545 S
C270 C271 1.369 . S
C270 C272 1.419 . S
C270 H274 0.930 . S
C271 C270 1.369 . S
C271 C280 1.429 . S
C272 C270 1.419 . S
C272 C273 1.363 . S
C272 H275 0.929 . S
C273 C272 1.363 . S
C273 C279 1.428 . S
H274 C270 0.930 . S
H275 C272 0.929 . S
S276 N277 1.613 . S
S276 N278 1.610 . S
N277 S276 1.613 . S
N277 C280 1.350 . S
N278 S276 1.610 . S
N278 C279 1.351 . S
C279 C273 1.428 . S
C279 N278 1.351 . S
C279 C280 1.434 . S
C280 C271 1.429 . S
C280 N277 1.350 . S
C280 C279 1.434 . S
C281 C282 1.369 . S
C281 C283 1.419 . S
C281 H285 0.930 . S
C282 C281 1.369 . S
C282 C291 1.429 . S
C283 C281 1.419 . S
C283 C284 1.363 . S
C283 H286 0.929 . S
C284 C283 1.363 . S
C284 C290 1.428 . S
H285 C281 0.930 . S
H286 C283 0.929 . S
S287 N288 1.613 . S
S287 N289 1.610 . S
N288 S287 1.613 . S
N288 C291 1.350 1_455 S
N289 S287 1.610 . S
N289 C290 1.351 1_455 S
C290 C284 1.428 . S
C290 N289 1.351 1_655 S
C290 C291 1.434 . S
C291 C282 1.429 . S
C291 N288 1.350 1_655 S
C291 C290 1.434 . S
C161 C89 1.313 . S
C163 C18 1.302 . S
C172 C129 1.257 1_545 S
C174 C58 1.240 . S
C183 C98 1.307 1_545 S
C185 C9 1.305 . S
C194 C49 1.167 . S
C196 C138 1.167 . S
C205 C55 1.115 . S
C207 C6 1.121 . S
C216 C46 1.624 . S
C218 C99 1.641 . S
C227 C139 2.143 . S
C229 C90 2.075 . S
C238 C130 1.386 . S
C240 C15 1.411 . S
C249 C95 1.129 . S
C251 C126 1.119 . S
C260 C10 1.641 1_565 S
C262 C135 1.623 . S
C271 C50 2.144 . S
C273 C19 2.075 1_556 S
C282 C86 1.411 . S
C284 C59 1.389 . S
