# Generated by pormake.
# Topology ecf, (8)-cn, num edge types: 1
# Building blocks:
#     Node 0, Type 0, BuildingBlock: TAGTUT_clean_sbu_3, # of connection points: 8
#     Node 1, Type 0, BuildingBlock: TAGTUT_clean_sbu_3, # of connection points: 8
#     Node 2, Type 0, BuildingBlock: TAGTUT_clean_sbu_3, # of connection points: 8
#     Node 3, Type 0, BuildingBlock: TAGTUT_clean_sbu_3, # of connection points: 8
#     Node 4, Type 0, BuildingBlock: TAGTUT_clean_sbu_3, # of connection points: 8
#     Node 5, Type 0, BuildingBlock: TAGTUT_clean_sbu_3, # of connection points: 8
#     Edge 6, Type (0, 0), BuildingBlock: UVAHIK_clean_linker_0, # of connection points: 2
#     Edge 7, Type (0, 0), BuildingBlock: UVAHIK_clean_linker_0, # of connection points: 2
#     Edge 8, Type (0, 0), BuildingBlock: UVAHIK_clean_linker_0, # of connection points: 2
#     Edge 9, Type (0, 0), BuildingBlock: UVAHIK_clean_linker_0, # of connection points: 2
#     Edge 10, Type (0, 0), BuildingBlock: UVAHIK_clean_linker_0, # of connection points: 2
#     Edge 11, Type (0, 0), BuildingBlock: UVAHIK_clean_linker_0, # of connection points: 2
#     Edge 12, Type (0, 0), BuildingBlock: UVAHIK_clean_linker_0, # of connection points: 2
#     Edge 13, Type (0, 0), BuildingBlock: UVAHIK_clean_linker_0, # of connection points: 2
#     Edge 14, Type (0, 0), BuildingBlock: UVAHIK_clean_linker_0, # of connection points: 2
#     Edge 15, Type (0, 0), BuildingBlock: UVAHIK_clean_linker_0, # of connection points: 2
#     Edge 16, Type (0, 0), BuildingBlock: UVAHIK_clean_linker_0, # of connection points: 2
#     Edge 17, Type (0, 0), BuildingBlock: UVAHIK_clean_linker_0, # of connection points: 2
#     Edge 18, Type (0, 0), BuildingBlock: UVAHIK_clean_linker_0, # of connection points: 2
#     Edge 19, Type (0, 0), BuildingBlock: UVAHIK_clean_linker_0, # of connection points: 2
#     Edge 20, Type (0, 0), BuildingBlock: UVAHIK_clean_linker_0, # of connection points: 2
#     Edge 21, Type (0, 0), BuildingBlock: UVAHIK_clean_linker_0, # of connection points: 2
#     Edge 22, Type (0, 0), BuildingBlock: UVAHIK_clean_linker_0, # of connection points: 2
#     Edge 23, Type (0, 0), BuildingBlock: UVAHIK_clean_linker_0, # of connection points: 2
#     Edge 24, Type (0, 0), BuildingBlock: UVAHIK_clean_linker_0, # of connection points: 2
#     Edge 25, Type (0, 0), BuildingBlock: UVAHIK_clean_linker_0, # of connection points: 2
#     Edge 26, Type (0, 0), BuildingBlock: UVAHIK_clean_linker_0, # of connection points: 2
#     Edge 27, Type (0, 0), BuildingBlock: UVAHIK_clean_linker_0, # of connection points: 2
#     Edge 28, Type (0, 0), BuildingBlock: UVAHIK_clean_linker_0, # of connection points: 2
#     Edge 29, Type (0, 0), BuildingBlock: UVAHIK_clean_linker_0, # of connection points: 2
# Relax obj value: 0.232
# Max RMSD: 0.186
# Mean RMSD: 0.186
data_MOF--net-ecf--node1-TAGTUT_clean_sbu_3--edge1-UVAHIK_clean_linker_0
_symmetry_space_group_name_H-M    P1
_symmetry_Int_Tables_number       1
_symmetry_cell_setting            triclinic
loop_
_symmetry_equiv_pos_as_xyz
'x, y, z'
_cell_length_a     41.791815
_cell_length_b     41.759001
_cell_length_c     34.320626
_cell_angle_alpha  90.054527
_cell_angle_beta   90.014848
_cell_angle_gamma 119.92683
loop_
_atom_site_label
_atom_site_type_symbol
_atom_site_fract_x
_atom_site_fract_y
_atom_site_fract_z
_atom_type_partial_charge
C0 C 0.15272 0.32717 0.1813 0.0
C1 C 0.06076 0.26891 0.30244 0.0
C2 C 0.1612 0.3345 0.36697 0.0
Mg3 Mg 0.24489 0.36468 0.18515 0.0
Mg4 Mg 0.29108 0.34771 0.25365 0.0
O5 O 0.25163 0.35474 0.24078 0.0
Mg6 Mg 0.19965 0.32337 0.25615 0.0
O7 O 0.14606 0.29582 0.26971 0.0
Mg8 Mg 0.13988 0.34114 0.27372 0.0
Mg9 Mg 0.13353 0.26699 0.31462 0.0
C10 C 0.25012 0.32018 0.33437 0.0
O11 O 0.19819 0.26855 0.25038 0.0
O12 O 0.30777 0.40961 0.18597 0.0
O13 O 0.15911 0.23455 0.29846 0.0
O14 O 0.2584 0.31907 0.16447 0.0
O15 O 0.33549 0.40058 0.23749 0.0
O16 O 0.28704 0.30813 0.21346 0.0
O17 O 0.20021 0.37807 0.26222 0.0
O18 O 0.2317 0.4072 0.2089 0.0
C19 C 0.21291 0.40575 0.23892 0.0
C20 C 0.33602 0.41982 0.20825 0.0
O21 O 0.22087 0.3197 0.32087 0.0
O22 O 0.07885 0.30049 0.28588 0.0
O23 O 0.27871 0.32955 0.31327 0.0
O24 O 0.15169 0.34971 0.34052 0.0
O25 O 0.07584 0.25081 0.31555 0.0
O26 O 0.15923 0.30344 0.36173 0.0
O27 O 0.1802 0.32254 0.19134 0.0
O28 O 0.13391 0.33327 0.20699 0.0
C29 C 0.27381 0.30179 0.17913 0.0
C30 C 0.18295 0.23965 0.27196 0.0
C31 C 0.80568 0.21656 0.73234 0.0
C32 C 0.91977 0.33995 0.70552 0.0
C33 C 0.97302 0.27272 0.68449 0.0
Mg34 Mg 0.79459 0.14351 0.77019 0.0
Mg35 Mg 0.85853 0.13964 0.82137 0.0
O36 O 0.84635 0.15012 0.77252 0.0
Mg37 Mg 0.87358 0.20357 0.75786 0.0
O38 O 0.89552 0.25545 0.74118 0.0
Mg39 Mg 0.88196 0.24806 0.68436 0.0
Mg40 Mg 0.94266 0.29328 0.75492 0.0
C41 C 0.93869 0.18834 0.78502 0.0
O42 O 0.89468 0.22579 0.82395 0.0
O43 O 0.77402 0.08255 0.78425 0.0
O44 O 0.94476 0.28213 0.81574 0.0
O45 O 0.79151 0.15573 0.83552 0.0
O46 O 0.81803 0.08155 0.82155 0.0
O47 O 0.84363 0.16629 0.86422 0.0
O48 O 0.85881 0.18348 0.69212 0.0
O49 O 0.80128 0.1369 0.70473 0.0
C50 C 0.82751 0.15579 0.68049 0.0
C51 C 0.78645 0.06534 0.80455 0.0
O52 O 0.92725 0.20205 0.75867 0.0
O53 O 0.90113 0.31148 0.6836 0.0
O54 O 0.91751 0.16583 0.81132 0.0
O55 O 0.9413 0.25958 0.66806 0.0
O56 O 0.93771 0.33904 0.73532 0.0
O57 O 0.97901 0.28584 0.71886 0.0
O58 O 0.81926 0.20405 0.75763 0.0
O59 O 0.82491 0.23563 0.70332 0.0
C60 C 0.81353 0.16683 0.8646 0.0
C61 C 0.92366 0.25482 0.8376 0.0
C62 C 0.6648 0.82808 0.17644 0.0
C63 C 0.72704 0.7932 0.29135 0.0
C64 C 0.66277 0.82774 0.36188 0.0
Mg65 Mg 0.62581 0.88124 0.18354 0.0
Mg66 Mg 0.6461 0.94558 0.25188 0.0
O67 O 0.63793 0.8986 0.2391 0.0
Mg68 Mg 0.66987 0.87807 0.25294 0.0
O69 O 0.698 0.85205 0.26438 0.0
Mg70 Mg 0.65324 0.80047 0.26823 0.0
Mg71 Mg 0.72895 0.86722 0.30779 0.0
C72 C 0.67494 0.93156 0.33216 0.0
O73 O 0.72451 0.93189 0.24752 0.0
O74 O 0.58082 0.89877 0.1871 0.0
O75 O 0.76088 0.9249 0.29153 0.0
O76 O 0.66894 0.9399 0.16102 0.0
O77 O 0.5923 0.93679 0.23812 0.0
O78 O 0.68407 0.98069 0.20972 0.0
O79 O 0.61564 0.82344 0.25942 0.0
O80 O 0.58458 0.82541 0.20772 0.0
C81 C 0.58727 0.80816 0.23709 0.0
C82 C 0.57168 0.91738 0.20988 0.0
O83 O 0.67462 0.90235 0.31856 0.0
O84 O 0.69441 0.78 0.27739 0.0
O85 O 0.66589 0.95116 0.31112 0.0
O86 O 0.6465 0.80401 0.33476 0.0
O87 O 0.74582 0.82629 0.3045 0.0
O88 O 0.69441 0.85607 0.35691 0.0
O89 O 0.66927 0.85998 0.18725 0.0
O90 O 0.65944 0.80303 0.20159 0.0
C91 C 0.68756 0.9728 0.17474 0.0
C92 C 0.75459 0.94446 0.26714 0.0
C93 C 0.77894 0.58761 0.73788 0.0
C94 C 0.65324 0.5712 0.71024 0.0
C95 C 0.71351 0.6876 0.6768 0.0
Mg96 Mg 0.8519 0.65396 0.7697 0.0
Mg97 Mg 0.86001 0.72977 0.80829 0.0
O98 O 0.84455 0.69848 0.76526 0.0
Mg99 Mg 0.7904 0.66992 0.75395 0.0
O100 O 0.73803 0.6374 0.74036 0.0
Mg101 Mg 0.74356 0.62581 0.68477 0.0
Mg102 Mg 0.69884 0.64497 0.75307 0.0
C103 C 0.80883 0.75527 0.76628 0.0
O104 O 0.77064 0.67496 0.81925 0.0
O105 O 0.91329 0.69544 0.77903 0.0
O106 O 0.7126 0.66485 0.81212 0.0
O107 O 0.84179 0.64746 0.83647 0.0
O108 O 0.91782 0.74673 0.80592 0.0
O109 O 0.83578 0.69496 0.85692 0.0
O110 O 0.80792 0.66921 0.68862 0.0
O111 O 0.85546 0.66 0.70306 0.0
C112 C 0.83551 0.66502 0.67792 0.0
C113 C 0.9324 0.72809 0.79306 0.0
O114 O 0.79078 0.72457 0.74775 0.0
O115 O 0.68114 0.58067 0.68769 0.0
O116 O 0.83481 0.76191 0.79063 0.0
O117 O 0.72838 0.66952 0.66297 0.0
O118 O 0.65417 0.59139 0.73879 0.0
O119 O 0.70138 0.68305 0.71151 0.0
O120 O 0.79148 0.61585 0.76048 0.0
O121 O 0.75857 0.58459 0.70873 0.0
C122 C 0.83317 0.66366 0.86265 0.0
C123 C 0.74151 0.6747 0.8329 0.0
C124 C 0.16121 0.83734 0.17676 0.0
C125 C 0.19233 0.93172 0.29431 0.0
C126 C 0.16124 0.83245 0.36187 0.0
Mg127 Mg 0.10865 0.74532 0.18203 0.0
Mg128 Mg 0.04737 0.69909 0.25188 0.0
O129 O 0.09319 0.73884 0.23811 0.0
Mg130 Mg 0.11205 0.79088 0.2524 0.0
O131 O 0.13632 0.84462 0.26479 0.0
Mg132 Mg 0.18849 0.8527 0.26862 0.0
Mg133 Mg 0.11954 0.85785 0.30899 0.0
C134 C 0.06074 0.74072 0.33199 0.0
O135 O 0.05757 0.79011 0.24654 0.0
O136 O 0.09194 0.68279 0.18316 0.0
O137 O 0.06134 0.82998 0.29325 0.0
O138 O 0.04866 0.73021 0.16277 0.0
O139 O 0.05585 0.65491 0.23499 0.0
O140 O 0.01064 0.70212 0.21298 0.0
O141 O 0.16725 0.79249 0.25797 0.0
O142 O 0.16543 0.76067 0.20492 0.0
C143 C 0.18277 0.78039 0.23454 0.0
C144 C 0.07425 0.6545 0.20542 0.0
O145 O 0.0884 0.77039 0.31771 0.0
O146 O 0.20663 0.9135 0.27963 0.0
O147 O 0.04212 0.71151 0.31152 0.0
O148 O 0.18559 0.8416 0.33515 0.0
O149 O 0.15909 0.91618 0.30722 0.0
O150 O 0.13209 0.83437 0.35695 0.0
O151 O 0.12963 0.80956 0.18741 0.0
O152 O 0.18602 0.85735 0.20202 0.0
C153 C 0.01642 0.71466 0.17843 0.0
C154 C 0.04317 0.8052 0.2673 0.0
C155 C 0.40074 0.18274 0.73325 0.0
C156 C 0.41715 0.07417 0.70374 0.0
C157 C 0.29911 0.01646 0.67755 0.0
Mg158 Mg 0.33535 0.18984 0.7679 0.0
Mg159 Mg 0.26196 0.12148 0.80927 0.0
O160 O 0.29076 0.1379 0.76435 0.0
Mg161 Mg 0.31939 0.11279 0.75153 0.0
O162 O 0.35185 0.09318 0.73687 0.0
Mg163 Mg 0.36067 0.10864 0.68082 0.0
Mg164 Mg 0.34618 0.0475 0.75088 0.0
C165 C 0.23634 0.04469 0.76753 0.0
O166 O 0.31638 0.08909 0.81675 0.0
O167 O 0.29375 0.20926 0.77956 0.0
O168 O 0.32853 0.04244 0.81062 0.0
O169 O 0.34403 0.18737 0.83452 0.0
O170 O 0.24458 0.1621 0.80921 0.0
O171 O 0.2985 0.13368 0.85664 0.0
O172 O 0.31794 0.1303 0.68645 0.0
O173 O 0.32747 0.18707 0.7015 0.0
C174 C 0.32197 0.16211 0.67612 0.0
C175 C 0.26201 0.19518 0.79584 0.0
O176 O 0.26536 0.05872 0.74614 0.0
O177 O 0.40608 0.09145 0.68141 0.0
O178 O 0.23058 0.06322 0.7938 0.0
O179 O 0.31548 0.04874 0.66191 0.0
O180 O 0.39891 0.05624 0.73377 0.0
O181 O 0.30637 0.01066 0.71192 0.0
O182 O 0.37329 0.16746 0.75681 0.0
O183 O 0.40264 0.1653 0.70346 0.0
C184 C 0.32928 0.16313 0.86142 0.0
C185 C 0.31812 0.06126 0.83107 0.0
C186 C 0.17192 0.4284 0.26673 0.0
C187 C 0.20057 0.4333 0.24159 0.0
C188 C 0.15688 0.45171 0.26413 0.0
C189 C 0.17515 0.54185 0.22533 0.0
H190 H 0.06852 0.49526 0.2184 0.0
C191 C 0.10797 0.62492 0.17604 0.0
C192 C 0.08014 0.62258 0.20085 0.0
C193 C 0.11964 0.59895 0.17866 0.0
C194 C 0.09832 0.50864 0.22047 0.0
H195 H 0.23779 0.46838 0.19618 0.0
H196 H 0.21182 0.50863 0.19187 0.0
H197 H 0.09699 0.4577 0.23286 0.0
H198 H 0.04019 0.58902 0.24502 0.0
H199 H 0.06071 0.54398 0.2496 0.0
H200 H 0.17667 0.59269 0.21291 0.0
C201 C 0.20068 0.48673 0.21335 0.0
C202 C 0.11458 0.48722 0.22901 0.0
C203 C 0.21544 0.46342 0.21573 0.0
C204 C 0.06198 0.59188 0.22574 0.0
C205 C 0.07364 0.56593 0.22831 0.0
C206 C 0.15896 0.56319 0.21676 0.0
C207 C 0.1707 0.48065 0.23683 0.0
C208 C 0.15319 0.50361 0.23119 0.0
C209 C 0.10363 0.57012 0.206 0.0
C210 C 0.1204 0.5468 0.21389 0.0
H211 H 0.16028 0.40598 0.28751 0.0
H212 H 0.13417 0.44683 0.28308 0.0
H213 H 0.20496 0.55533 0.22737 0.0
H214 H 0.12236 0.64801 0.1563 0.0
H215 H 0.14228 0.60234 0.16043 0.0
C216 C 0.46912 0.06472 0.72496 0.0
C217 C 0.4548 0.07992 0.69826 0.0
C218 C 0.50677 0.07644 0.72542 0.0
C219 C 0.5941 0.15906 0.70083 0.0
H220 H 0.63718 0.09862 0.72829 0.0
C221 C 0.75064 0.21468 0.70156 0.0
C222 C 0.76556 0.20335 0.73174 0.0
C223 C 0.71259 0.19926 0.69762 0.0
C224 C 0.62543 0.11586 0.72105 0.0
H225 H 0.46832 0.1167 0.64867 0.0
H226 H 0.5339 0.13654 0.64907 0.0
H227 H 0.57076 0.06934 0.71659 0.0
H228 H 0.7519 0.16837 0.78282 0.0
H229 H 0.68519 0.14126 0.77578 0.0
H230 H 0.64863 0.20554 0.70538 0.0
C231 C 0.5161 0.11634 0.67035 0.0
C232 C 0.58748 0.0991 0.71417 0.0
C233 C 0.47844 0.1047 0.66992 0.0
C234 C 0.74143 0.17732 0.7589 0.0
C235 C 0.70321 0.16167 0.7548 0.0
C236 C 0.63197 0.17576 0.70761 0.0
C237 C 0.53087 0.10345 0.6991 0.0
C238 C 0.5714 0.12055 0.70401 0.0
C239 C 0.68845 0.17213 0.72375 0.0
C240 C 0.64803 0.15436 0.71783 0.0
H241 H 0.4517 0.04537 0.74705 0.0
H242 H 0.51723 0.06598 0.74799 0.0
H243 H 0.58248 0.1765 0.69401 0.0
H244 H 0.76829 0.23479 0.68014 0.0
H245 H 0.70206 0.20774 0.67326 0.0
C246 C 0.36586 0.48336 0.1794 0.0
C247 C 0.36797 0.45769 0.20418 0.0
C248 C 0.39195 0.52092 0.1821 0.0
C249 C 0.48285 0.58937 0.22317 0.0
H250 H 0.43786 0.65108 0.22835 0.0
C251 C 0.56573 0.74468 0.26506 0.0
C252 C 0.56019 0.76812 0.24001 0.0
C253 C 0.54235 0.7063 0.26317 0.0
C254 C 0.45091 0.63429 0.22674 0.0
H255 H 0.40117 0.45109 0.24872 0.0
H256 H 0.44652 0.51654 0.25336 0.0
H257 H 0.3995 0.58528 0.21556 0.0
H258 H 0.5242 0.76954 0.19512 0.0
H259 H 0.48397 0.70335 0.19196 0.0
H260 H 0.53439 0.6387 0.2342 0.0
C261 C 0.42461 0.50766 0.232 0.0
C262 C 0.42896 0.59661 0.21918 0.0
C263 C 0.39849 0.4701 0.22938 0.0
C264 C 0.52963 0.75245 0.21468 0.0
C265 C 0.50631 0.71436 0.21296 0.0
C266 C 0.5049 0.62722 0.23066 0.0
C267 C 0.42077 0.53361 0.2095 0.0
C268 C 0.44469 0.57377 0.2169 0.0
C269 C 0.51274 0.69076 0.23662 0.0
C270 C 0.48918 0.65013 0.23213 0.0
H271 H 0.3429 0.47482 0.15946 0.0
H272 H 0.38877 0.54024 0.16373 0.0
H273 H 0.49576 0.57245 0.22155 0.0
H274 H 0.58856 0.75575 0.28536 0.0
H275 H 0.54762 0.68877 0.28222 0.0
C276 C 0.93511 0.40392 0.72479 0.0
C277 C 0.91549 0.37291 0.70049 0.0
C278 C 0.92532 0.43133 0.7269 0.0
C279 C 0.86998 0.46761 0.67996 0.0
H280 H 0.85717 0.49184 0.78591 0.0
C281 C 0.7805 0.53232 0.71273 0.0
C282 C 0.79378 0.56188 0.73937 0.0
C283 C 0.79768 0.51122 0.70891 0.0
C284 C 0.86107 0.48581 0.75616 0.0
H285 H 0.87209 0.34808 0.65703 0.0
H286 H 0.85514 0.39598 0.66064 0.0
H287 H 0.88565 0.45396 0.77437 0.0
H288 H 0.83383 0.59013 0.78532 0.0
H289 H 0.86436 0.5535 0.77816 0.0
H290 H 0.84502 0.49904 0.66173 0.0
C291 C 0.87807 0.39903 0.67814 0.0
C292 C 0.87746 0.46416 0.7495 0.0
C293 C 0.88783 0.37153 0.67605 0.0
C294 C 0.82331 0.56818 0.76394 0.0
C295 C 0.8407 0.54702 0.75998 0.0
C296 C 0.85369 0.4893 0.68661 0.0
C297 C 0.89581 0.42851 0.70465 0.0
C298 C 0.8816 0.45436 0.71134 0.0
C299 C 0.82867 0.51899 0.73159 0.0
C300 C 0.8484 0.49809 0.72481 0.0
H301 H 0.95685 0.40615 0.74375 0.0
H302 H 0.94006 0.45413 0.74696 0.0
H303 H 0.87327 0.46101 0.65023 0.0
H304 H 0.75737 0.52603 0.69376 0.0
H305 H 0.78691 0.48906 0.68767 0.0
C306 C 0.24576 0.82149 0.26386 0.0
C307 C 0.22294 0.79394 0.23711 0.0
C308 C 0.28416 0.83663 0.26268 0.0
C309 C 0.35668 0.81858 0.2248 0.0
H310 H 0.41961 0.9251 0.22834 0.0
C311 C 0.50827 0.88582 0.18068 0.0
C312 C 0.53375 0.91162 0.2072 0.0
C313 C 0.47079 0.87457 0.18345 0.0
C314 C 0.40237 0.89531 0.22754 0.0
H315 H 0.22269 0.75964 0.1893 0.0
H316 H 0.28893 0.78589 0.18727 0.0
H317 H 0.35306 0.89759 0.23869 0.0
H318 H 0.54006 0.94808 0.2554 0.0
H319 H 0.47465 0.92837 0.26013 0.0
H320 H 0.40565 0.81613 0.21339 0.0
C321 C 0.27739 0.79584 0.20923 0.0
C322 C 0.36434 0.87956 0.23369 0.0
C323 C 0.23927 0.7809 0.2103 0.0
C324 C 0.52123 0.92799 0.23462 0.0
C325 C 0.4837 0.91676 0.23732 0.0
C326 C 0.39451 0.83427 0.21855 0.0
C327 C 0.30036 0.82418 0.23503 0.0
C328 C 0.34105 0.84102 0.23191 0.0
C329 C 0.45796 0.88894 0.2127 0.0
C330 C 0.41774 0.87281 0.21937 0.0
H331 H 0.23414 0.83192 0.28517 0.0
H332 H 0.30117 0.85812 0.28328 0.0
H333 H 0.3396 0.78877 0.22399 0.0
H334 H 0.5169 0.87283 0.15895 0.0
H335 H 0.45165 0.85367 0.16348 0.0
C336 C 0.42337 0.24578 0.7628 0.0
C337 C 0.42767 0.2228 0.73588 0.0
C338 C 0.44678 0.28415 0.76155 0.0
C339 C 0.53697 0.35626 0.72334 0.0
H340 H 0.49345 0.41937 0.72629 0.0
C341 C 0.62172 0.5081 0.68022 0.0
C342 C 0.62112 0.53338 0.70685 0.0
C343 C 0.59542 0.47062 0.68248 0.0
C344 C 0.50598 0.40208 0.72565 0.0
H345 H 0.46122 0.22213 0.68782 0.0
H346 H 0.50154 0.28837 0.68573 0.0
H347 H 0.45446 0.35283 0.7368 0.0
H348 H 0.5904 0.53944 0.75459 0.0
H349 H 0.54465 0.47404 0.75849 0.0
H350 H 0.58835 0.40519 0.71203 0.0
C351 C 0.4802 0.27697 0.70781 0.0
C352 C 0.48373 0.36408 0.73189 0.0
C353 C 0.45685 0.23887 0.70892 0.0
C354 C 0.59189 0.52073 0.73377 0.0
C355 C 0.56555 0.48321 0.73598 0.0
C356 C 0.5591 0.3941 0.71703 0.0
C357 C 0.47516 0.30011 0.73368 0.0
C358 C 0.49898 0.34074 0.73038 0.0
C359 C 0.5679 0.45762 0.71132 0.0
C360 C 0.54381 0.41738 0.71769 0.0
H361 H 0.40153 0.23434 0.78427 0.0
H362 H 0.4426 0.30133 0.78222 0.0
H363 H 0.54965 0.3391 0.72268 0.0
H364 H 0.6436 0.51687 0.65887 0.0
H365 H 0.59738 0.45158 0.66249 0.0
C366 C 0.21863 0.21458 0.23791 0.0
C367 C 0.19768 0.21424 0.2701 0.0
C368 C 0.23673 0.19412 0.23858 0.0
C369 C 0.26572 0.14421 0.30664 0.0
H370 H 0.24292 0.07628 0.22035 0.0
C371 C 0.20681 0.99253 0.32188 0.0
C372 C 0.21457 0.9722 0.29482 0.0
C373 C 0.22471 0.03086 0.31939 0.0
C374 C 0.25082 0.0958 0.2442 0.0
H375 H 0.17886 0.19195 0.32803 0.0
H376 H 0.20919 0.15538 0.32867 0.0
H377 H 0.23471 0.12952 0.21268 0.0
H378 H 0.24885 0.97579 0.24562 0.0
H379 H 0.27914 0.04311 0.24033 0.0
H380 H 0.2781 0.10811 0.33933 0.0
C381 C 0.21262 0.17224 0.30333 0.0
C382 C 0.24598 0.12628 0.23985 0.0
C383 C 0.19452 0.19254 0.30262 0.0
C384 C 0.24226 0.99092 0.26674 0.0
C385 C 0.25971 0.02932 0.26378 0.0
C386 C 0.27024 0.11355 0.31108 0.0
C387 C 0.23424 0.17312 0.27154 0.0
C388 C 0.25086 0.14916 0.27193 0.0
C389 C 0.25023 0.04942 0.2894 0.0
C390 C 0.26031 0.08782 0.28072 0.0
H391 H 0.22124 0.23087 0.21237 0.0
H392 H 0.25278 0.19484 0.21349 0.0
H393 H 0.27076 0.16218 0.33145 0.0
H394 H 0.18594 0.97875 0.34411 0.0
H395 H 0.21648 0.04569 0.33916 0.0
C396 C 0.00239 0.21686 0.75699 0.0
C397 C 0.97856 0.20331 0.78915 0.0
C398 C 0.04034 0.23134 0.7621 0.0
C399 C 0.10115 0.22126 0.83151 0.0
H400 H 0.1792 0.29249 0.76503 0.0
C401 C 0.235 0.22431 0.83651 0.0
C402 C 0.24476 0.21789 0.79957 0.0
C403 C 0.21263 0.24006 0.84002 0.0
C404 C 0.15771 0.27289 0.7841 0.0
H405 H 0.97573 0.1972 0.85202 0.0
H406 H 0.04146 0.22422 0.8612 0.0
H407 H 0.11746 0.28562 0.76154 0.0
H408 H 0.24258 0.22566 0.73754 0.0
H409 H 0.20103 0.25077 0.7433 0.0
H410 H 0.13995 0.20698 0.85284 0.0
C411 C 0.03107 0.22205 0.83182 0.0
C412 C 0.12241 0.2688 0.78195 0.0
C413 C 0.99332 0.20652 0.82657 0.0
C414 C 0.23483 0.23024 0.76626 0.0
C415 C 0.21149 0.24502 0.76966 0.0
C416 C 0.13612 0.22548 0.83382 0.0
C417 C 0.05489 0.23327 0.7996 0.0
C418 C 0.09358 0.24219 0.80498 0.0
C419 C 0.19849 0.24802 0.80652 0.0
C420 C 0.16455 0.25053 0.80943 0.0
H421 H 0.9916 0.21523 0.7279 0.0
H422 H 0.05793 0.23956 0.73662 0.0
H423 H 0.07954 0.19978 0.84898 0.0
H424 H 0.24321 0.21554 0.86252 0.0
H425 H 0.20381 0.24301 0.86883 0.0
C426 C 0.00301 0.24027 0.34084 0.0
C427 C 0.02076 0.25182 0.30482 0.0
C428 C 0.96476 0.21795 0.34234 0.0
C429 C 0.88176 0.1638 0.27769 0.0
H430 H 0.87066 0.08461 0.34531 0.0
C431 C 0.81769 -0.00218 0.27584 0.0
C432 C 0.7805 0.98431 0.26658 0.0
C433 C 0.84073 0.03528 0.28308 0.0
C434 C 0.87327 0.10651 0.32633 0.0
H435 H 0.01347 0.25284 0.24258 0.0
H436 H 0.94721 0.21132 0.24449 0.0
H437 H 0.92047 0.1464 0.35677 0.0
H438 H 0.73827 -0.0009 0.25684 0.0
H439 H 0.77888 0.06498 0.26895 0.0
H440 H 0.83602 0.12218 0.2452 0.0
C441 C 0.96187 0.22029 0.27191 0.0
C442 C 0.90149 0.14232 0.33332 0.0
C443 C -3e-05 0.24372 0.27061 0.0
C444 C 0.76711 0.00906 0.26286 0.0
C445 C 0.79017 0.04662 0.27025 0.0
C446 C 0.85366 0.12764 0.27038 0.0
C447 C 0.94411 0.20533 0.30766 0.0
C448 C 0.90749 0.17111 0.30773 0.0
C449 C 0.82684 0.05976 0.28166 0.0
C450 C 0.85071 0.09855 0.29341 0.0
H451 H 0.01886 0.24717 0.36761 0.0
H452 H 0.95182 0.20817 0.37048 0.0
H453 H 0.88487 0.18551 0.25813 0.0
H454 H 0.82861 0.97924 0.27885 0.0
H455 H 0.86926 0.04497 0.2908 0.0
C456 C 0.76113 0.00623 0.84063 0.0
C457 C 0.76521 0.025 0.80559 0.0
C458 C 0.74796 0.9683 0.84031 0.0
C459 C 0.7218 0.8879 0.77238 0.0
H460 H 0.79183 0.87747 0.83752 0.0
C461 C 0.82106 0.81961 0.77151 0.0
C462 C 0.79628 0.78231 0.76366 0.0
C463 C 0.80811 0.84415 0.77696 0.0
C464 C 0.77214 0.87998 0.81908 0.0
H465 H 0.75579 0.01929 0.74336 0.0
H466 H 0.73575 0.95385 0.74209 0.0
H467 H 0.77968 0.92707 0.85012 0.0
H468 H 0.73884 0.74158 0.75369 0.0
H469 H 0.71606 0.78471 0.76317 0.0
H470 H 0.71709 0.84203 0.73946 0.0
C471 C 0.74109 0.96746 0.77013 0.0
C472 C 0.76443 0.90805 0.8268 0.0
C473 C 0.75297 0.00513 0.77069 0.0
C474 C 0.75855 0.77037 0.75902 0.0
C475 C 0.74548 0.79494 0.76476 0.0
C476 C 0.72996 0.85991 0.76434 0.0
C477 C 0.74055 0.94906 0.80471 0.0
C478 C 0.7404 0.91347 0.80255 0.0
C479 C 0.77007 0.83171 0.77523 0.0
C480 C 0.75654 0.85695 0.7866 0.0
H481 H 0.76976 0.02117 0.86798 0.0
H482 H 0.74641 0.95473 0.86768 0.0
H483 H 0.70246 0.89068 0.75369 0.0
H484 H 0.85031 0.82951 0.77493 0.0
H485 H 0.8278 0.87268 0.78384 0.0
C486 C 0.73556 0.74378 0.26076 0.0
C487 C 0.74427 0.77001 0.29054 0.0
C488 C 0.75622 0.72609 0.2564 0.0
C489 C 0.83193 0.73601 0.23659 0.0
H490 H 0.87665 0.71126 0.3217 0.0
C491 C 0.98351 0.79024 0.29783 0.0
C492 C 0.00301 0.78958 0.26491 0.0
C493 C 0.94513 0.77155 0.29755 0.0
C494 C 0.86421 0.71767 0.29744 0.0
H495 H 0.77838 0.79558 0.34137 0.0
H496 H 0.81415 0.76453 0.33409 0.0
H497 H 0.8149 0.70291 0.32959 0.0
H498 H -0.002 0.76997 0.20554 0.0
H499 H 0.93043 0.7375 0.20484 0.0
H500 H 0.88254 0.75446 0.2059 0.0
C501 C 0.7916 0.75764 0.31401 0.0
C502 C 0.82883 0.71255 0.30186 0.0
C503 C 0.77154 0.77584 0.31788 0.0
C504 C 0.98346 0.77051 0.2314 0.0
C505 C 0.94493 0.7519 0.23103 0.0
C506 C 0.86745 0.74142 0.23229 0.0
C507 C 0.78516 0.73383 0.28232 0.0
C508 C 0.81361 0.72419 0.27249 0.0
C509 C 0.92541 0.75188 0.26432 0.0
C510 C 0.88481 0.73482 0.26378 0.0
H511 H 0.71448 0.73875 0.23939 0.0
H512 H 0.75098 0.708 0.23165 0.0
H513 H 0.82077 0.74525 0.21351 0.0
H514 H -0.00217 0.80443 0.32421 0.0
H515 H 0.93092 0.77307 0.32327 0.0
C516 C 0.21122 0.98443 0.73256 0.0
C517 C 0.21156 0.00451 0.76558 0.0
C518 C 0.19131 0.94587 0.7328 0.0
C519 C 0.14458 0.86613 0.80038 0.0
H520 H 0.07432 0.82127 0.71602 0.0
C521 C -0.00609 0.77313 0.81988 0.0
C522 C 0.97279 0.74549 0.79271 0.0
C523 C 0.03213 0.79328 0.81636 0.0
C524 C 0.09451 0.83282 0.73927 0.0
H525 H 0.19118 0.00021 0.82458 0.0
H526 H 0.15556 0.93326 0.8246 0.0
H527 H 0.12668 0.88305 0.70794 0.0
H528 H 0.97484 0.71515 0.74229 0.0
H529 H 0.04202 0.75178 0.73518 0.0
H530 H 0.11 0.8172 0.83306 0.0
C531 C 0.17144 0.94709 0.79886 0.0
C532 C 0.12449 0.86834 0.73468 0.0
C533 C 0.19116 0.9855 0.79855 0.0
C534 C 0.99062 0.73653 0.76352 0.0
C535 C 0.02893 0.75725 0.75952 0.0
C536 C 0.11443 0.83074 0.80506 0.0
C537 C 0.17162 0.92686 0.76617 0.0
C538 C 0.14818 0.88622 0.76623 0.0
C539 C 0.0498 0.78655 0.7852 0.0
C540 C 0.08783 0.81501 0.77549 0.0
H541 H 0.22647 -0.00145 0.70666 0.0
H542 H 0.19143 0.93096 0.70702 0.0
H543 H 0.16321 0.87896 0.82472 0.0
H544 H 0.98078 0.78018 0.84293 0.0
H545 H 0.04753 0.8161 0.83624 0.0
C546 C 0.30322 0.26324 0.16924 0.0
C547 C 0.27968 0.27579 0.15528 0.0
C548 C 0.31296 0.24244 0.14557 0.0
C549 C 0.2889 0.18481 0.05943 0.0
H550 H 0.39375 0.23664 0.03568 0.0
C551 C 0.36473 0.20749 0.91447 0.0
C552 C 0.34493 0.17096 0.90094 0.0
C553 C 0.36777 0.21451 0.95446 0.0
C554 C 0.36461 0.22139 0.04274 0.0
H555 H 0.24598 0.27424 0.10647 0.0
H556 H 0.26282 0.23719 0.06499 0.0
H557 H 0.37063 0.25772 0.08978 0.0
H558 H 0.31917 0.1133 0.91778 0.0
H559 H 0.32433 0.12563 0.98747 0.0
H560 H 0.28233 0.14974 1.01133 0.0
C561 C 0.27376 0.24388 0.09434 0.0
C562 C 0.35139 0.23339 0.07351 0.0
C563 C 0.26432 0.26519 0.11791 0.0
C564 C 0.33363 0.14174 0.92758 0.0
C565 C 0.33674 0.14874 0.96744 0.0
C566 C 0.30213 0.17245 0.02916 0.0
C567 C 0.29893 0.23331 0.10774 0.0
C568 C 0.31329 0.2161 0.08087 0.0
C569 C 0.35112 0.18503 0.98101 0.0
C570 C 0.33988 0.19161 0.0195 0.0
H571 H 0.31537 0.27058 0.19804 0.0
H572 H 0.33223 0.23433 0.15642 0.0
H573 H 0.25945 0.17107 0.06488 0.0
H574 H 0.37411 0.23052 0.8945 0.0
H575 H 0.37913 0.24281 0.96422 0.0
C576 C 0.00084 0.26327 0.624 0.0
C577 C 0.00502 0.27679 0.66221 0.0
C578 C 0.03192 0.27277 0.60111 0.0
C579 C 0.10673 0.2891 0.56637 0.0
H580 H 0.15514 0.39437 0.54495 0.0
C581 C 0.18985 0.33949 0.43156 0.0
C582 C 0.16995 0.34989 0.4066 0.0
C583 C 0.18701 0.34158 0.47177 0.0
C584 C 0.14263 0.36516 0.55135 0.0
H585 H 0.04512 0.3083 0.70745 0.0
H586 H 0.09903 0.32574 0.66677 0.0
H587 H 0.11284 0.36874 0.60037 0.0
H588 H 0.13674 0.37637 0.40346 0.0
H589 H 0.13143 0.37975 0.47387 0.0
H590 H 0.13454 0.28489 0.51627 0.0
C591 C 0.07178 0.30779 0.65482 0.0
C592 C 0.11854 0.35052 0.58293 0.0
C593 C 0.04083 0.29778 0.67792 0.0
C594 C 0.15204 0.36784 0.42214 0.0
C595 C 0.14914 0.36989 0.46249 0.0
C596 C 0.13128 0.30377 0.53533 0.0
C597 C 0.06746 0.29621 0.61599 0.0
C598 C 0.09921 0.31221 0.58942 0.0
C599 C 0.16422 0.35408 0.4874 0.0
C600 C 0.14807 0.34165 0.52646 0.0
H601 H 0.9737 0.24681 0.61121 0.0
H602 H 0.02813 0.26371 0.57102 0.0
H603 H 0.092 0.25949 0.571 0.0
H604 H 0.20463 0.32639 0.42017 0.0
H605 H 0.19938 0.32981 0.49047 0.0
C606 C 0.69735 0.00256 0.10994 0.0
C607 C 0.70922 0.00396 0.14844 0.0
C608 C 0.71187 0.03475 0.0878 0.0
C609 C 0.72787 0.11276 0.06563 0.0
H610 H 0.8282 0.15826 0.02729 0.0
C611 C 0.82854 0.19708 0.92962 0.0
C612 C 0.80191 0.17528 0.90172 0.0
C613 C 0.81865 0.19504 0.96871 0.0
C614 C 0.80049 0.14721 0.03859 0.0
H615 H 0.74723 0.03931 0.19316 0.0
H616 H 0.774 0.09541 0.15334 0.0
H617 H 0.80906 0.11368 0.07975 0.0
H618 H 0.7435 0.13923 0.89122 0.0
H619 H 0.72638 0.13404 0.95907 0.0
H620 H 0.7187 0.14521 0.0238 0.0
C621 C 0.75273 0.0696 0.14101 0.0
C622 C 0.78955 0.12131 0.06848 0.0
C623 C 0.73767 0.03754 0.16349 0.0
C624 C 0.76461 0.15586 0.91235 0.0
C625 C 0.75482 0.15317 0.95151 0.0
C626 C 0.73897 0.13926 0.03629 0.0
C627 C 0.7389 0.06855 0.1036 0.0
C628 C 0.75265 0.10234 0.08033 0.0
C629 C 0.78224 0.17028 0.9804 0.0
C630 C 0.77466 0.15472 0.02041 0.0
H631 H 0.67525 0.97716 0.09779 0.0
H632 H 0.70149 0.03343 0.05856 0.0
H633 H 0.69936 0.09876 0.07516 0.0
H634 H 0.85746 0.21319 0.92177 0.0
H635 H 0.84019 0.20981 0.99007 0.0
C636 C 0.68845 0.73001 0.66618 0.0
C637 C 0.705 0.71044 0.65086 0.0
C638 C 0.67263 0.74475 0.64148 0.0
C639 C 0.63337 0.72936 0.54316 0.0
H640 H 0.64639 0.82765 0.55241 0.0
C641 C 0.66654 0.84433 0.43201 0.0
C642 C 0.64645 0.82068 0.40117 0.0
C643 C 0.65689 0.83287 0.47035 0.0
C644 C 0.64203 0.79991 0.54968 0.0
H645 H 0.72115 0.69419 0.59767 0.0
H646 H 0.69453 0.72092 0.55452 0.0
H647 H 0.66985 0.80424 0.60352 0.0
H648 H 0.59621 0.77015 0.38598 0.0
H649 H 0.57869 0.75055 0.45319 0.0
H650 H 0.60885 0.72577 0.48811 0.0
C651 C 0.69253 0.72354 0.58571 0.0
C652 C 0.65541 0.78652 0.579 0.0
C653 C 0.70825 0.7087 0.61037 0.0
C654 C 0.61307 0.78828 0.40925 0.0
C655 C 0.60302 0.7771 0.44777 0.0
C656 C 0.62046 0.74282 0.51376 0.0
C657 C 0.67325 0.7403 0.60108 0.0
C658 C 0.65311 0.752 0.57469 0.0
C659 C 0.62676 0.79767 0.4785 0.0
C660 C 0.62685 0.77923 0.51541 0.0
H661 H 0.68595 0.73231 0.69734 0.0
H662 H 0.65835 0.75793 0.65406 0.0
H663 H 0.62993 0.702 0.53995 0.0
H664 H 0.69174 0.87019 0.42675 0.0
H665 H 0.67574 0.84993 0.49301 0.0
C666 C 0.83805 0.62718 0.91731 0.0
C667 C 0.82315 0.64802 0.902 0.0
C668 C 0.83852 0.62272 0.95755 0.0
C669 C 0.8563 0.6865 0.03343 0.0
H670 H 0.87316 0.6174 0.09275 0.0
C671 C 0.98717 0.72452 0.11925 0.0
C672 C 0.98376 0.70808 0.15575 0.0
C673 C 0.95569 0.71519 0.09709 0.0
C674 C 0.86791 0.63678 0.07698 0.0
H675 H 0.79108 0.67444 0.91533 0.0
H676 H 0.79178 0.66654 0.98544 0.0
H677 H 0.83016 0.59499 0.03778 0.0
H678 H 0.94453 0.6703 0.19848 0.0
H679 H 0.89013 0.65371 0.15927 0.0
H680 H 0.89642 0.7287 0.07048 0.0
C681 C 0.80384 0.65446 0.96672 0.0
C682 C 0.84337 0.62395 0.04566 0.0
C683 C 0.80367 0.65918 0.92664 0.0
C684 C 0.94827 0.68335 0.1703 0.0
C685 C 0.91701 0.67379 0.14803 0.0
C686 C 0.88112 0.69932 0.06436 0.0
C687 C 0.82394 0.63896 0.98259 0.0
C688 C 0.83881 0.64903 0.02245 0.0
C689 C 0.92053 0.68907 0.11102 0.0
C690 C 0.88835 0.6748 0.08507 0.0
H691 H 0.85278 0.61784 0.89881 0.0
H692 H 0.85416 0.61052 0.969 0.0
H693 H 0.85368 0.70661 0.01586 0.0
H694 H 0.01408 0.74378 0.10745 0.0
H695 H 0.95893 0.72702 0.06828 0.0
C696 C 0.25934 0.98738 0.61877 0.0
C697 C 0.2728 0.98383 0.65496 0.0
C698 C 0.23703 0.95597 0.59655 0.0
C699 C 0.17804 0.88135 0.56404 0.0
H700 H 0.23148 0.83103 0.5349 0.0
C701 C 0.13808 0.8033 0.42639 0.0
C702 C 0.16799 0.82279 0.40095 0.0
C703 C 0.14402 0.80386 0.46632 0.0
C704 C 0.21573 0.84407 0.54349 0.0
H705 H 0.27197 0.94443 0.69714 0.0
H706 H 0.23392 0.89013 0.65778 0.0
H707 H 0.2528 0.87385 0.5901 0.0
H708 H 0.22762 0.85288 0.39618 0.0
H709 H 0.23811 0.85489 0.46609 0.0
H710 H 0.14251 0.85388 0.51605 0.0
C711 C 0.24048 0.91706 0.64684 0.0
C712 C 0.22786 0.8685 0.57495 0.0
C713 C 0.26231 0.94827 0.66919 0.0
C714 C 0.20409 0.83812 0.41529 0.0
C715 C 0.21006 0.83897 0.45537 0.0
C716 C 0.16563 0.85662 0.53299 0.0
C717 C 0.22829 0.92075 0.61011 0.0
C718 C 0.21018 0.88868 0.58399 0.0
C719 C 0.17993 0.82434 0.48124 0.0
C720 C 0.18558 0.83934 0.52112 0.0
H721 H 0.26674 0.01434 0.60723 0.0
H722 H 0.22809 0.95933 0.56797 0.0
H723 H 0.16391 0.89648 0.57087 0.0
H724 H 0.10997 0.79039 0.41586 0.0
H725 H 0.1204 0.79176 0.48567 0.0
C726 C 0.76857 0.72452 0.88508 0.0
C727 C 0.74082 0.6893 0.87268 0.0
C728 C 0.76324 0.74166 0.91811 0.0
C729 C 0.70289 0.72212 1.00667 0.0
H730 H 0.73145 0.8257 1.00104 0.0
C731 C 0.64729 0.7839 0.12067 0.0
C732 C 0.67063 0.81966 0.13539 0.0
C733 C 0.65697 0.77069 0.08767 0.0
C734 C 0.72353 0.79683 1.00345 0.0
H735 H 0.68603 0.64453 0.88598 0.0
H736 H 0.67712 0.67346 0.94339 0.0
H737 H 0.74818 0.79732 0.94817 0.0
H738 H 0.72248 0.86994 0.12567 0.0
H739 H 0.73959 0.84703 0.06779 0.0
H740 H 0.67846 0.7213 0.06171 0.0
C741 C 0.70319 0.68809 0.9281 0.0
C742 C 0.73327 0.78048 0.97298 0.0
C743 C 0.70833 0.6713 0.89503 0.0
C744 C 0.70334 0.84259 0.1147 0.0
C745 C 0.71329 0.82919 0.08159 0.0
C746 C 0.69329 0.73839 0.03702 0.0
C747 C 0.73013 0.72393 0.93988 0.0
C748 C 0.72262 0.74262 0.97376 0.0
C749 C 0.69082 0.79246 0.06827 0.0
C750 C 0.70281 0.77593 0.03584 0.0
H751 H 0.79357 0.73965 0.86809 0.0
H752 H 0.78486 0.76908 0.92621 0.0
H753 H 0.69479 0.6932 1.00914 0.0
H754 H 0.62205 0.76529 0.13595 0.0
H755 H 0.63813 0.74276 0.07806 0.0
C756 C 0.03212 0.70746 0.39427 0.0
C757 C 0.04583 0.73988 0.37191 0.0
C758 C 0.00963 0.70162 0.42693 0.0
C759 C 0.97306 0.74611 0.49607 0.0
H760 H 0.89492 0.64464 0.50946 0.0
C761 C 0.85709 0.70227 0.61529 0.0
C762 C 0.84918 0.67042 0.63677 0.0
C763 C 0.87902 0.71173 0.58121 0.0
C764 C 0.91664 0.67314 0.50651 0.0
H765 H 0.047 0.79211 0.36734 0.0
H766 H 0.00752 0.78202 0.42432 0.0
H767 H 0.93872 0.66039 0.45645 0.0
H768 H 0.85738 0.62321 0.63835 0.0
H769 H 0.8941 0.63877 0.57911 0.0
H770 H 0.95041 0.7586 0.54635 0.0
C771 C 0.01469 0.76116 0.41698 0.0
C772 C 0.94214 0.68226 0.47597 0.0
C773 C 0.03764 0.76716 0.38431 0.0
C774 C 0.86228 0.64755 0.62223 0.0
C775 C 0.88359 0.65664 0.58813 0.0
C776 C 0.94731 0.73695 0.52669 0.0
C777 C -0.00073 0.72768 0.43816 0.0
C778 C 0.97128 0.71879 0.47045 0.0
C779 C 0.89319 0.68935 0.56744 0.0
C780 C 0.91895 0.70015 0.53279 0.0
H781 H 0.0376 0.68572 0.3855 0.0
H782 H -0.00044 0.67598 0.44281 0.0
H783 H -0.00505 0.77452 0.4932 0.0
H784 H 0.84828 0.72101 0.62608 0.0
H785 H 0.88544 0.73697 0.56606 0.0
C786 C 0.32088 0.0306 0.89281 0.0
C787 C 0.3037 0.04631 0.87094 0.0
C788 C 0.30355 0.00829 0.92539 0.0
C789 C 0.22345 0.97577 0.99524 0.0
H790 H 0.24113 0.89365 1.00792 0.0
C791 C 0.14706 0.86045 0.11426 0.0
C792 C 0.16976 0.85072 0.13554 0.0
C793 C 0.16031 0.88234 0.08021 0.0
C794 C 0.23594 0.91649 1.00517 0.0
H795 H 0.25466 0.05125 0.86732 0.0
H796 H 0.22409 0.01209 0.9241 0.0
H797 H 0.27064 0.9371 0.95493 0.0
H798 H 0.22385 0.85578 0.13691 0.0
H799 H 0.24631 0.89236 0.07766 0.0
H800 H 0.18835 0.95454 0.04567 0.0
C801 C 0.25146 0.01752 0.91642 0.0
C802 C 0.25318 0.9418 0.97464 0.0
C803 C 0.26913 0.0403 0.88384 0.0
C804 C 0.20529 0.86203 0.12087 0.0
C805 C 0.21827 0.88328 0.08679 0.0
C806 C 0.20597 0.9502 0.02582 0.0
C807 C 0.2679 0.00011 0.93708 0.0
C808 C 0.24786 0.97236 0.96936 0.0
C809 C 0.19646 0.89468 0.06628 0.0
C810 C 0.21236 0.92038 0.03168 0.0
H811 H 0.34739 0.0344 0.88373 0.0
H812 H 0.31795 -0.00333 0.94087 0.0
H813 H 0.21852 -0.00122 0.99259 0.0
H814 H 0.11994 0.8531 0.1252 0.0
H815 H 0.14247 0.89018 0.06522 0.0
C816 C 0.34082 0.20618 0.62035 0.0
C817 C 0.31644 0.1708 0.63518 0.0
C818 C 0.33171 0.22001 0.58748 0.0
C819 C 0.26444 0.19601 0.50421 0.0
H820 H 0.29777 0.30076 0.50971 0.0
C821 C 0.22209 0.2716 0.38749 0.0
C822 C 0.25094 0.30579 0.37415 0.0
C823 C 0.22697 0.25409 0.42038 0.0
C824 C 0.28837 0.27152 0.50734 0.0
H825 H 0.26335 0.12183 0.62597 0.0
H826 H 0.24718 0.14583 0.56837 0.0
H827 H 0.31303 0.27149 0.56195 0.0
H828 H 0.30716 0.34853 0.38584 0.0
H829 H 0.31531 0.31901 0.44315 0.0
H830 H 0.2395 0.19638 0.4494 0.0
C831 C 0.27385 0.16285 0.58189 0.0
C832 C 0.29735 0.25457 0.53746 0.0
C833 C 0.28324 0.14882 0.61483 0.0
C834 C 0.2841 0.32257 0.39557 0.0
C835 C 0.28879 0.30546 0.42856 0.0
C836 C 0.25528 0.21303 0.47401 0.0
C837 C 0.29744 0.19927 0.56844 0.0
C838 C 0.28617 0.21661 0.53628 0.0
C839 C 0.2607 0.2705 0.44114 0.0
C840 C 0.26757 0.25126 0.47477 0.0
H841 H 0.36646 0.22406 0.63545 0.0
H842 H 0.35135 0.24761 0.57771 0.0
H843 H 0.25525 0.16683 0.50182 0.0
H844 H 0.19647 0.25743 0.3713 0.0
H845 H 0.2045 0.22739 0.42916 0.0
C846 C 0.12805 0.34599 0.12461 0.0
C847 C 0.13766 0.32087 0.1406 0.0
C848 C 0.10557 0.33708 0.0913 0.0
C849 C 0.03212 0.25716 0.03641 0.0
H850 H 0.05059 0.33119 0.95825 0.0
C851 C 0.93818 0.2269 0.89637 0.0
C852 C 0.9373 0.25685 0.87862 0.0
C853 C 0.96105 0.2324 0.92912 0.0
C854 C 0.04426 0.31015 0.98003 0.0
H855 H 0.13048 0.26618 0.13366 0.0
H856 H 0.09108 0.25043 0.07529 0.0
H857 H 0.0946 0.3453 1.01073 0.0
H858 H 0.95731 0.31547 0.88418 0.0
H859 H -0.00548 0.3246 0.9418 0.0
H860 H 0.98127 0.22221 1.00606 0.0
C861 C 0.10141 0.27739 0.08846 0.0
C862 C 0.06997 0.3183 1.01025 0.0
C863 C 0.12462 0.28666 0.12157 0.0
C864 C 0.95735 0.29168 0.89669 0.0
C865 C 0.97949 0.29706 0.92958 0.0
C866 C 0.00604 0.24907 1.00627 0.0
C867 C 0.09102 0.30229 0.07309 0.0
C868 C 0.06433 0.29217 0.03926 0.0
C869 C 0.98327 0.26798 0.94551 0.0
C870 C 0.01134 0.27561 0.97767 0.0
H871 H 0.13673 0.37218 0.139 0.0
H872 H 0.09811 0.35698 0.08094 0.0
H873 H 0.02642 0.23628 0.05824 0.0
H874 H 0.92334 0.1997 0.88332 0.0
H875 H 0.96268 0.20901 0.94021 0.0
C876 C 0.78591 0.13263 0.62239 0.0
C877 C 0.82015 0.14181 0.63926 0.0
C878 C 0.77269 0.11012 0.58909 0.0
C879 C 0.79721 0.06482 0.50789 0.0
H880 H 0.69136 -0.00163 0.50742 0.0
C881 C 0.72182 0.94966 0.38733 0.0
C882 C 0.68885 0.94633 0.3724 0.0
C883 C 0.73891 0.97138 0.42089 0.0
C884 C 0.72094 0.01682 0.50665 0.0
H885 H 0.86766 0.13459 0.6332 0.0
H886 H 0.84477 0.09522 0.57482 0.0
H887 H 0.71985 0.04161 0.56086 0.0
H888 H 0.64785 0.9627 0.38214 0.0
H889 H 0.67655 -0.00086 0.44029 0.0
H890 H 0.79792 0.03941 0.45343 0.0
C891 C 0.8282 0.10602 0.5871 0.0
C892 C 0.73748 0.04204 0.53752 0.0
C893 C 0.84164 0.129 0.62052 0.0
C894 C 0.67286 0.96405 0.39295 0.0
C895 C 0.68951 0.98517 0.42651 0.0
C896 C 0.78058 0.03934 0.4769 0.0
C897 C 0.79283 0.09511 0.57151 0.0
C898 C 0.77587 0.06709 0.53857 0.0
C899 C 0.72327 0.98999 0.44079 0.0
C900 C 0.74199 0.01523 0.4754 0.0
H901 H 0.76835 0.14157 0.63619 0.0
H902 H 0.74596 0.10369 0.57777 0.0
H903 H 0.82675 0.08343 0.50717 0.0
H904 H 0.73547 0.9372 0.37191 0.0
H905 H 0.76467 0.974 0.43092 0.0
loop_
_geom_bond_atom_site_label_1
_geom_bond_atom_site_label_2
_geom_bond_distance
_geom_bond_site_symmetry_2
_ccdc_geom_bond_type
C0 O27 1.312 . S
C0 O28 1.208 . S
C1 O22 1.331 . S
C1 O25 1.244 . S
C2 O24 1.264 . S
C2 O26 1.273 . S
Mg3 O5 1.936 . S
Mg3 O12 2.081 . S
Mg3 O14 2.023 . S
Mg3 O18 2.031 . S
Mg3 O27 2.291 . S
Mg4 O5 1.963 . S
Mg4 O15 1.942 . S
Mg4 O16 1.955 . S
Mg4 O23 1.986 . S
O5 Mg3 1.936 . S
O5 Mg4 1.963 . S
O5 Mg6 1.915 . S
Mg6 O5 1.915 . S
Mg6 O7 1.915 . S
Mg6 O11 2.013 . S
Mg6 O17 2.114 . S
Mg6 O21 2.013 . S
Mg6 O27 2.114 . S
O7 Mg6 1.915 . S
O7 Mg8 1.936 . S
O7 Mg9 1.963 . S
Mg8 O7 1.936 . S
Mg8 O17 2.291 . S
Mg8 O22 2.081 . S
Mg8 O24 2.023 . S
Mg8 O28 2.031 . S
Mg9 O7 1.963 . S
Mg9 O13 1.986 . S
Mg9 O25 1.942 . S
Mg9 O26 1.955 . S
C10 O21 1.191 . S
C10 O23 1.307 . S
O11 Mg6 2.013 . S
O11 C30 1.191 . S
O12 Mg3 2.081 . S
O12 C20 1.331 . S
O13 Mg9 1.986 . S
O13 C30 1.307 . S
O14 Mg3 2.023 . S
O14 C29 1.264 . S
O15 Mg4 1.942 . S
O15 C20 1.244 . S
O16 Mg4 1.955 . S
O16 C29 1.273 . S
O17 Mg6 2.114 . S
O17 Mg8 2.291 . S
O17 C19 1.312 . S
O18 Mg3 2.031 . S
O18 C19 1.208 . S
C19 O17 1.312 . S
C19 O18 1.208 . S
C20 O12 1.331 . S
C20 O15 1.244 . S
O21 Mg6 2.013 . S
O21 C10 1.191 . S
O22 C1 1.331 . S
O22 Mg8 2.081 . S
O23 Mg4 1.986 . S
O23 C10 1.307 . S
O24 C2 1.264 . S
O24 Mg8 2.023 . S
O25 C1 1.244 . S
O25 Mg9 1.942 . S
O26 C2 1.273 . S
O26 Mg9 1.955 . S
O27 C0 1.312 . S
O27 Mg3 2.291 . S
O27 Mg6 2.114 . S
O28 C0 1.208 . S
O28 Mg8 2.031 . S
C29 O14 1.264 . S
C29 O16 1.273 . S
C30 O11 1.191 . S
C30 O13 1.307 . S
C31 O58 1.312 . S
C31 O59 1.208 . S
C32 O53 1.331 . S
C32 O56 1.244 . S
C33 O55 1.264 . S
C33 O57 1.273 . S
Mg34 O36 1.936 . S
Mg34 O43 2.081 . S
Mg34 O45 2.023 . S
Mg34 O49 2.031 . S
Mg34 O58 2.291 . S
Mg35 O36 1.963 . S
Mg35 O46 1.942 . S
Mg35 O47 1.955 . S
Mg35 O54 1.986 . S
O36 Mg34 1.936 . S
O36 Mg35 1.963 . S
O36 Mg37 1.915 . S
Mg37 O36 1.915 . S
Mg37 O38 1.915 . S
Mg37 O42 2.013 . S
Mg37 O48 2.114 . S
Mg37 O52 2.013 . S
Mg37 O58 2.114 . S
O38 Mg37 1.915 . S
O38 Mg39 1.936 . S
O38 Mg40 1.963 . S
Mg39 O38 1.936 . S
Mg39 O48 2.291 . S
Mg39 O53 2.081 . S
Mg39 O55 2.023 . S
Mg39 O59 2.031 . S
Mg40 O38 1.963 . S
Mg40 O44 1.986 . S
Mg40 O56 1.942 . S
Mg40 O57 1.955 . S
C41 O52 1.191 . S
C41 O54 1.307 . S
O42 Mg37 2.013 . S
O42 C61 1.191 . S
O43 Mg34 2.081 . S
O43 C51 1.331 . S
O44 Mg40 1.986 . S
O44 C61 1.307 . S
O45 Mg34 2.023 . S
O45 C60 1.264 . S
O46 Mg35 1.942 . S
O46 C51 1.244 . S
O47 Mg35 1.955 . S
O47 C60 1.273 . S
O48 Mg37 2.114 . S
O48 Mg39 2.291 . S
O48 C50 1.312 . S
O49 Mg34 2.031 . S
O49 C50 1.208 . S
C50 O48 1.312 . S
C50 O49 1.208 . S
C51 O43 1.331 . S
C51 O46 1.244 . S
O52 Mg37 2.013 . S
O52 C41 1.191 . S
O53 C32 1.331 . S
O53 Mg39 2.081 . S
O54 Mg35 1.986 . S
O54 C41 1.307 . S
O55 C33 1.264 . S
O55 Mg39 2.023 . S
O56 C32 1.244 . S
O56 Mg40 1.942 . S
O57 C33 1.273 . S
O57 Mg40 1.955 . S
O58 C31 1.312 . S
O58 Mg34 2.291 . S
O58 Mg37 2.114 . S
O59 C31 1.208 . S
O59 Mg39 2.031 . S
C60 O45 1.264 . S
C60 O47 1.273 . S
C61 O42 1.191 . S
C61 O44 1.307 . S
C62 O89 1.312 . S
C62 O90 1.208 . S
C63 O84 1.331 . S
C63 O87 1.244 . S
C64 O86 1.264 . S
C64 O88 1.273 . S
Mg65 O67 1.936 . S
Mg65 O74 2.081 . S
Mg65 O76 2.023 . S
Mg65 O80 2.031 . S
Mg65 O89 2.291 . S
Mg66 O67 1.963 . S
Mg66 O77 1.942 . S
Mg66 O78 1.955 . S
Mg66 O85 1.986 . S
O67 Mg65 1.936 . S
O67 Mg66 1.963 . S
O67 Mg68 1.915 . S
Mg68 O67 1.915 . S
Mg68 O69 1.915 . S
Mg68 O73 2.013 . S
Mg68 O79 2.114 . S
Mg68 O83 2.013 . S
Mg68 O89 2.114 . S
O69 Mg68 1.915 . S
O69 Mg70 1.936 . S
O69 Mg71 1.963 . S
Mg70 O69 1.936 . S
Mg70 O79 2.291 . S
Mg70 O84 2.081 . S
Mg70 O86 2.023 . S
Mg70 O90 2.031 . S
Mg71 O69 1.963 . S
Mg71 O75 1.986 . S
Mg71 O87 1.942 . S
Mg71 O88 1.955 . S
C72 O83 1.191 . S
C72 O85 1.307 . S
O73 Mg68 2.013 . S
O73 C92 1.191 . S
O74 Mg65 2.081 . S
O74 C82 1.331 . S
O75 Mg71 1.986 . S
O75 C92 1.307 . S
O76 Mg65 2.023 . S
O76 C91 1.264 . S
O77 Mg66 1.942 . S
O77 C82 1.244 . S
O78 Mg66 1.955 . S
O78 C91 1.273 . S
O79 Mg68 2.114 . S
O79 Mg70 2.291 . S
O79 C81 1.312 . S
O80 Mg65 2.031 . S
O80 C81 1.208 . S
C81 O79 1.312 . S
C81 O80 1.208 . S
C82 O74 1.331 . S
C82 O77 1.244 . S
O83 Mg68 2.013 . S
O83 C72 1.191 . S
O84 C63 1.331 . S
O84 Mg70 2.081 . S
O85 Mg66 1.986 . S
O85 C72 1.307 . S
O86 C64 1.264 . S
O86 Mg70 2.023 . S
O87 C63 1.244 . S
O87 Mg71 1.942 . S
O88 C64 1.273 . S
O88 Mg71 1.955 . S
O89 C62 1.312 . S
O89 Mg65 2.291 . S
O89 Mg68 2.114 . S
O90 C62 1.208 . S
O90 Mg70 2.031 . S
C91 O76 1.264 . S
C91 O78 1.273 . S
C92 O73 1.191 . S
C92 O75 1.307 . S
C93 O120 1.312 . S
C93 O121 1.208 . S
C94 O115 1.331 . S
C94 O118 1.244 . S
C95 O117 1.264 . S
C95 O119 1.273 . S
Mg96 O98 1.936 . S
Mg96 O105 2.081 . S
Mg96 O107 2.023 . S
Mg96 O111 2.031 . S
Mg96 O120 2.291 . S
Mg97 O98 1.963 . S
Mg97 O108 1.942 . S
Mg97 O109 1.955 . S
Mg97 O116 1.986 . S
O98 Mg96 1.936 . S
O98 Mg97 1.963 . S
O98 Mg99 1.915 . S
Mg99 O98 1.915 . S
Mg99 O100 1.915 . S
Mg99 O104 2.013 . S
Mg99 O110 2.114 . S
Mg99 O114 2.013 . S
Mg99 O120 2.114 . S
O100 Mg99 1.915 . S
O100 Mg101 1.936 . S
O100 Mg102 1.963 . S
Mg101 O100 1.936 . S
Mg101 O110 2.291 . S
Mg101 O115 2.081 . S
Mg101 O117 2.023 . S
Mg101 O121 2.031 . S
Mg102 O100 1.963 . S
Mg102 O106 1.986 . S
Mg102 O118 1.942 . S
Mg102 O119 1.955 . S
C103 O114 1.191 . S
C103 O116 1.307 . S
O104 Mg99 2.013 . S
O104 C123 1.191 . S
O105 Mg96 2.081 . S
O105 C113 1.331 . S
O106 Mg102 1.986 . S
O106 C123 1.307 . S
O107 Mg96 2.023 . S
O107 C122 1.264 . S
O108 Mg97 1.942 . S
O108 C113 1.244 . S
O109 Mg97 1.955 . S
O109 C122 1.273 . S
O110 Mg99 2.114 . S
O110 Mg101 2.291 . S
O110 C112 1.312 . S
O111 Mg96 2.031 . S
O111 C112 1.208 . S
C112 O110 1.312 . S
C112 O111 1.208 . S
C113 O105 1.331 . S
C113 O108 1.244 . S
O114 Mg99 2.013 . S
O114 C103 1.191 . S
O115 C94 1.331 . S
O115 Mg101 2.081 . S
O116 Mg97 1.986 . S
O116 C103 1.307 . S
O117 C95 1.264 . S
O117 Mg101 2.023 . S
O118 C94 1.244 . S
O118 Mg102 1.942 . S
O119 C95 1.273 . S
O119 Mg102 1.955 . S
O120 C93 1.312 . S
O120 Mg96 2.291 . S
O120 Mg99 2.114 . S
O121 C93 1.208 . S
O121 Mg101 2.031 . S
C122 O107 1.264 . S
C122 O109 1.273 . S
C123 O104 1.191 . S
C123 O106 1.307 . S
C124 O151 1.312 . S
C124 O152 1.208 . S
C125 O146 1.331 . S
C125 O149 1.244 . S
C126 O148 1.264 . S
C126 O150 1.273 . S
Mg127 O129 1.936 . S
Mg127 O136 2.081 . S
Mg127 O138 2.023 . S
Mg127 O142 2.031 . S
Mg127 O151 2.291 . S
Mg128 O129 1.963 . S
Mg128 O139 1.942 . S
Mg128 O140 1.955 . S
Mg128 O147 1.986 . S
O129 Mg127 1.936 . S
O129 Mg128 1.963 . S
O129 Mg130 1.915 . S
Mg130 O129 1.915 . S
Mg130 O131 1.915 . S
Mg130 O135 2.013 . S
Mg130 O141 2.114 . S
Mg130 O145 2.013 . S
Mg130 O151 2.114 . S
O131 Mg130 1.915 . S
O131 Mg132 1.936 . S
O131 Mg133 1.963 . S
Mg132 O131 1.936 . S
Mg132 O141 2.291 . S
Mg132 O146 2.081 . S
Mg132 O148 2.023 . S
Mg132 O152 2.031 . S
Mg133 O131 1.963 . S
Mg133 O137 1.986 . S
Mg133 O149 1.942 . S
Mg133 O150 1.955 . S
C134 O145 1.191 . S
C134 O147 1.307 . S
O135 Mg130 2.013 . S
O135 C154 1.191 . S
O136 Mg127 2.081 . S
O136 C144 1.331 . S
O137 Mg133 1.986 . S
O137 C154 1.307 . S
O138 Mg127 2.023 . S
O138 C153 1.264 . S
O139 Mg128 1.942 . S
O139 C144 1.244 . S
O140 Mg128 1.955 . S
O140 C153 1.273 . S
O141 Mg130 2.114 . S
O141 Mg132 2.291 . S
O141 C143 1.312 . S
O142 Mg127 2.031 . S
O142 C143 1.208 . S
C143 O141 1.312 . S
C143 O142 1.208 . S
C144 O136 1.331 . S
C144 O139 1.244 . S
O145 Mg130 2.013 . S
O145 C134 1.191 . S
O146 C125 1.331 . S
O146 Mg132 2.081 . S
O147 Mg128 1.986 . S
O147 C134 1.307 . S
O148 C126 1.264 . S
O148 Mg132 2.023 . S
O149 C125 1.244 . S
O149 Mg133 1.942 . S
O150 C126 1.273 . S
O150 Mg133 1.955 . S
O151 C124 1.312 . S
O151 Mg127 2.291 . S
O151 Mg130 2.114 . S
O152 C124 1.208 . S
O152 Mg132 2.031 . S
C153 O138 1.264 . S
C153 O140 1.273 . S
C154 O135 1.191 . S
C154 O137 1.307 . S
C155 O182 1.312 . S
C155 O183 1.208 . S
C156 O177 1.331 . S
C156 O180 1.244 . S
C157 O179 1.264 . S
C157 O181 1.273 . S
Mg158 O160 1.936 . S
Mg158 O167 2.081 . S
Mg158 O169 2.023 . S
Mg158 O173 2.031 . S
Mg158 O182 2.291 . S
Mg159 O160 1.963 . S
Mg159 O170 1.942 . S
Mg159 O171 1.955 . S
Mg159 O178 1.986 . S
O160 Mg158 1.936 . S
O160 Mg159 1.963 . S
O160 Mg161 1.915 . S
Mg161 O160 1.915 . S
Mg161 O162 1.915 . S
Mg161 O166 2.013 . S
Mg161 O172 2.114 . S
Mg161 O176 2.013 . S
Mg161 O182 2.114 . S
O162 Mg161 1.915 . S
O162 Mg163 1.936 . S
O162 Mg164 1.963 . S
Mg163 O162 1.936 . S
Mg163 O172 2.291 . S
Mg163 O177 2.081 . S
Mg163 O179 2.023 . S
Mg163 O183 2.031 . S
Mg164 O162 1.963 . S
Mg164 O168 1.986 . S
Mg164 O180 1.942 . S
Mg164 O181 1.955 . S
C165 O176 1.191 . S
C165 O178 1.307 . S
O166 Mg161 2.013 . S
O166 C185 1.191 . S
O167 Mg158 2.081 . S
O167 C175 1.331 . S
O168 Mg164 1.986 . S
O168 C185 1.307 . S
O169 Mg158 2.023 . S
O169 C184 1.264 . S
O170 Mg159 1.942 . S
O170 C175 1.244 . S
O171 Mg159 1.955 . S
O171 C184 1.273 . S
O172 Mg161 2.114 . S
O172 Mg163 2.291 . S
O172 C174 1.312 . S
O173 Mg158 2.031 . S
O173 C174 1.208 . S
C174 O172 1.312 . S
C174 O173 1.208 . S
C175 O167 1.331 . S
C175 O170 1.244 . S
O176 Mg161 2.013 . S
O176 C165 1.191 . S
O177 C156 1.331 . S
O177 Mg163 2.081 . S
O178 Mg159 1.986 . S
O178 C165 1.307 . S
O179 C157 1.264 . S
O179 Mg163 2.023 . S
O180 C156 1.244 . S
O180 Mg164 1.942 . S
O181 C157 1.273 . S
O181 Mg164 1.955 . S
O182 C155 1.312 . S
O182 Mg158 2.291 . S
O182 Mg161 2.114 . S
O183 C155 1.208 . S
O183 Mg163 2.031 . S
C184 O169 1.264 . S
C184 O171 1.273 . S
C185 O166 1.191 . S
C185 O168 1.307 . S
C186 C187 1.349 . S
C186 C188 1.327 . S
C186 H211 0.950 . S
C187 C186 1.349 . S
C187 C203 1.349 . S
C188 C186 1.327 . S
C188 C207 1.429 . S
C188 H212 0.950 . S
C189 C206 1.574 . S
C189 C208 1.368 . S
C189 H213 0.949 . S
H190 C194 0.949 . S
C191 C192 1.349 . S
C191 C193 1.327 . S
C191 H214 0.950 . S
C192 C191 1.349 . S
C192 C204 1.349 . S
C193 C191 1.327 . S
C193 C209 1.429 . S
C193 H215 0.950 . S
C194 H190 0.949 . S
C194 C202 1.574 . S
C194 C210 1.368 . S
H195 C203 0.950 . S
H196 C201 0.950 . S
H197 C202 0.949 . S
H198 C204 0.950 . S
H199 C205 0.950 . S
H200 C206 0.949 . S
C201 H196 0.950 . S
C201 C203 1.327 . S
C201 C207 1.429 . S
C202 C194 1.574 . S
C202 H197 0.949 . S
C202 C208 1.368 . S
C203 C187 1.349 . S
C203 H195 0.950 . S
C203 C201 1.327 . S
C204 C192 1.349 . S
C204 H198 0.950 . S
C204 C205 1.327 . S
C205 H199 0.950 . S
C205 C204 1.327 . S
C205 C209 1.429 . S
C206 C189 1.574 . S
C206 H200 0.949 . S
C206 C210 1.368 . S
C207 C188 1.429 . S
C207 C201 1.429 . S
C207 C208 1.523 . S
C208 C189 1.368 . S
C208 C202 1.368 . S
C208 C207 1.523 . S
C209 C193 1.429 . S
C209 C205 1.429 . S
C209 C210 1.523 . S
C210 C194 1.368 . S
C210 C206 1.368 . S
C210 C209 1.523 . S
H211 C186 0.950 . S
H212 C188 0.950 . S
H213 C189 0.949 . S
H214 C191 0.950 . S
H215 C193 0.950 . S
C216 C217 1.349 . S
C216 C218 1.327 . S
C216 H241 0.950 . S
C217 C216 1.349 . S
C217 C233 1.349 . S
C218 C216 1.327 . S
C218 C237 1.429 . S
C218 H242 0.950 . S
C219 C236 1.574 . S
C219 C238 1.368 . S
C219 H243 0.949 . S
H220 C224 0.949 . S
C221 C222 1.349 . S
C221 C223 1.327 . S
C221 H244 0.950 . S
C222 C221 1.349 . S
C222 C234 1.349 . S
C223 C221 1.327 . S
C223 C239 1.429 . S
C223 H245 0.950 . S
C224 H220 0.949 . S
C224 C232 1.574 . S
C224 C240 1.368 . S
H225 C233 0.950 . S
H226 C231 0.950 . S
H227 C232 0.949 . S
H228 C234 0.950 . S
H229 C235 0.950 . S
H230 C236 0.949 . S
C231 H226 0.950 . S
C231 C233 1.327 . S
C231 C237 1.429 . S
C232 C224 1.574 . S
C232 H227 0.949 . S
C232 C238 1.368 . S
C233 C217 1.349 . S
C233 H225 0.950 . S
C233 C231 1.327 . S
C234 C222 1.349 . S
C234 H228 0.950 . S
C234 C235 1.327 . S
C235 H229 0.950 . S
C235 C234 1.327 . S
C235 C239 1.429 . S
C236 C219 1.574 . S
C236 H230 0.949 . S
C236 C240 1.368 . S
C237 C218 1.429 . S
C237 C231 1.429 . S
C237 C238 1.523 . S
C238 C219 1.368 . S
C238 C232 1.368 . S
C238 C237 1.523 . S
C239 C223 1.429 . S
C239 C235 1.429 . S
C239 C240 1.523 . S
C240 C224 1.368 . S
C240 C236 1.368 . S
C240 C239 1.523 . S
H241 C216 0.950 . S
H242 C218 0.950 . S
H243 C219 0.949 . S
H244 C221 0.950 . S
H245 C223 0.950 . S
C246 C247 1.349 . S
C246 C248 1.327 . S
C246 H271 0.950 . S
C247 C246 1.349 . S
C247 C263 1.349 . S
C248 C246 1.327 . S
C248 C267 1.429 . S
C248 H272 0.950 . S
C249 C266 1.574 . S
C249 C268 1.368 . S
C249 H273 0.949 . S
H250 C254 0.949 . S
C251 C252 1.349 . S
C251 C253 1.327 . S
C251 H274 0.950 . S
C252 C251 1.349 . S
C252 C264 1.349 . S
C253 C251 1.327 . S
C253 C269 1.429 . S
C253 H275 0.950 . S
C254 H250 0.949 . S
C254 C262 1.574 . S
C254 C270 1.368 . S
H255 C263 0.950 . S
H256 C261 0.950 . S
H257 C262 0.949 . S
H258 C264 0.950 . S
H259 C265 0.950 . S
H260 C266 0.949 . S
C261 H256 0.950 . S
C261 C263 1.327 . S
C261 C267 1.429 . S
C262 C254 1.574 . S
C262 H257 0.949 . S
C262 C268 1.368 . S
C263 C247 1.349 . S
C263 H255 0.950 . S
C263 C261 1.327 . S
C264 C252 1.349 . S
C264 H258 0.950 . S
C264 C265 1.327 . S
C265 H259 0.950 . S
C265 C264 1.327 . S
C265 C269 1.429 . S
C266 C249 1.574 . S
C266 H260 0.949 . S
C266 C270 1.368 . S
C267 C248 1.429 . S
C267 C261 1.429 . S
C267 C268 1.523 . S
C268 C249 1.368 . S
C268 C262 1.368 . S
C268 C267 1.523 . S
C269 C253 1.429 . S
C269 C265 1.429 . S
C269 C270 1.523 . S
C270 C254 1.368 . S
C270 C266 1.368 . S
C270 C269 1.523 . S
H271 C246 0.950 . S
H272 C248 0.950 . S
H273 C249 0.949 . S
H274 C251 0.950 . S
H275 C253 0.950 . S
C276 C277 1.349 . S
C276 C278 1.327 . S
C276 H301 0.950 . S
C277 C276 1.349 . S
C277 C293 1.349 . S
C278 C276 1.327 . S
C278 C297 1.429 . S
C278 H302 0.950 . S
C279 C296 1.574 . S
C279 C298 1.368 . S
C279 H303 0.949 . S
H280 C284 0.949 . S
C281 C282 1.349 . S
C281 C283 1.327 . S
C281 H304 0.950 . S
C282 C281 1.349 . S
C282 C294 1.349 . S
C283 C281 1.327 . S
C283 C299 1.429 . S
C283 H305 0.950 . S
C284 H280 0.949 . S
C284 C292 1.574 . S
C284 C300 1.368 . S
H285 C293 0.950 . S
H286 C291 0.950 . S
H287 C292 0.949 . S
H288 C294 0.950 . S
H289 C295 0.950 . S
H290 C296 0.949 . S
C291 H286 0.950 . S
C291 C293 1.327 . S
C291 C297 1.429 . S
C292 C284 1.574 . S
C292 H287 0.949 . S
C292 C298 1.368 . S
C293 C277 1.349 . S
C293 H285 0.950 . S
C293 C291 1.327 . S
C294 C282 1.349 . S
C294 H288 0.950 . S
C294 C295 1.327 . S
C295 H289 0.950 . S
C295 C294 1.327 . S
C295 C299 1.429 . S
C296 C279 1.574 . S
C296 H290 0.949 . S
C296 C300 1.368 . S
C297 C278 1.429 . S
C297 C291 1.429 . S
C297 C298 1.523 . S
C298 C279 1.368 . S
C298 C292 1.368 . S
C298 C297 1.523 . S
C299 C283 1.429 . S
C299 C295 1.429 . S
C299 C300 1.523 . S
C300 C284 1.368 . S
C300 C296 1.368 . S
C300 C299 1.523 . S
H301 C276 0.950 . S
H302 C278 0.950 . S
H303 C279 0.949 . S
H304 C281 0.950 . S
H305 C283 0.950 . S
C306 C307 1.349 . S
C306 C308 1.327 . S
C306 H331 0.950 . S
C307 C306 1.349 . S
C307 C323 1.349 . S
C308 C306 1.327 . S
C308 C327 1.429 . S
C308 H332 0.950 . S
C309 C326 1.574 . S
C309 C328 1.368 . S
C309 H333 0.949 . S
H310 C314 0.949 . S
C311 C312 1.349 . S
C311 C313 1.327 . S
C311 H334 0.950 . S
C312 C311 1.349 . S
C312 C324 1.349 . S
C313 C311 1.327 . S
C313 C329 1.429 . S
C313 H335 0.950 . S
C314 H310 0.949 . S
C314 C322 1.574 . S
C314 C330 1.368 . S
H315 C323 0.950 . S
H316 C321 0.950 . S
H317 C322 0.949 . S
H318 C324 0.950 . S
H319 C325 0.950 . S
H320 C326 0.949 . S
C321 H316 0.950 . S
C321 C323 1.327 . S
C321 C327 1.429 . S
C322 C314 1.574 . S
C322 H317 0.949 . S
C322 C328 1.368 . S
C323 C307 1.349 . S
C323 H315 0.950 . S
C323 C321 1.327 . S
C324 C312 1.349 . S
C324 H318 0.950 . S
C324 C325 1.327 . S
C325 H319 0.950 . S
C325 C324 1.327 . S
C325 C329 1.429 . S
C326 C309 1.574 . S
C326 H320 0.949 . S
C326 C330 1.368 . S
C327 C308 1.429 . S
C327 C321 1.429 . S
C327 C328 1.523 . S
C328 C309 1.368 . S
C328 C322 1.368 . S
C328 C327 1.523 . S
C329 C313 1.429 . S
C329 C325 1.429 . S
C329 C330 1.523 . S
C330 C314 1.368 . S
C330 C326 1.368 . S
C330 C329 1.523 . S
H331 C306 0.950 . S
H332 C308 0.950 . S
H333 C309 0.949 . S
H334 C311 0.950 . S
H335 C313 0.950 . S
C336 C337 1.349 . S
C336 C338 1.327 . S
C336 H361 0.950 . S
C337 C336 1.349 . S
C337 C353 1.349 . S
C338 C336 1.327 . S
C338 C357 1.429 . S
C338 H362 0.950 . S
C339 C356 1.574 . S
C339 C358 1.368 . S
C339 H363 0.949 . S
H340 C344 0.949 . S
C341 C342 1.349 . S
C341 C343 1.327 . S
C341 H364 0.950 . S
C342 C341 1.349 . S
C342 C354 1.349 . S
C343 C341 1.327 . S
C343 C359 1.429 . S
C343 H365 0.950 . S
C344 H340 0.949 . S
C344 C352 1.574 . S
C344 C360 1.368 . S
H345 C353 0.950 . S
H346 C351 0.950 . S
H347 C352 0.949 . S
H348 C354 0.950 . S
H349 C355 0.950 . S
H350 C356 0.949 . S
C351 H346 0.950 . S
C351 C353 1.327 . S
C351 C357 1.429 . S
C352 C344 1.574 . S
C352 H347 0.949 . S
C352 C358 1.368 . S
C353 C337 1.349 . S
C353 H345 0.950 . S
C353 C351 1.327 . S
C354 C342 1.349 . S
C354 H348 0.950 . S
C354 C355 1.327 . S
C355 H349 0.950 . S
C355 C354 1.327 . S
C355 C359 1.429 . S
C356 C339 1.574 . S
C356 H350 0.949 . S
C356 C360 1.368 . S
C357 C338 1.429 . S
C357 C351 1.429 . S
C357 C358 1.523 . S
C358 C339 1.368 . S
C358 C352 1.368 . S
C358 C357 1.523 . S
C359 C343 1.429 . S
C359 C355 1.429 . S
C359 C360 1.523 . S
C360 C344 1.368 . S
C360 C356 1.368 . S
C360 C359 1.523 . S
H361 C336 0.950 . S
H362 C338 0.950 . S
H363 C339 0.949 . S
H364 C341 0.950 . S
H365 C343 0.950 . S
C366 C367 1.349 . S
C366 C368 1.327 . S
C366 H391 0.950 . S
C367 C366 1.349 . S
C367 C383 1.349 . S
C368 C366 1.327 . S
C368 C387 1.429 . S
C368 H392 0.950 . S
C369 C386 1.574 . S
C369 C388 1.368 . S
C369 H393 0.949 . S
H370 C374 0.949 . S
C371 C372 1.349 1_545 S
C371 C373 1.327 . S
C371 H394 0.950 1_545 S
C372 C371 1.349 1_565 S
C372 C384 1.349 1_565 S
C373 C371 1.327 . S
C373 C389 1.429 . S
C373 H395 0.950 . S
C374 H370 0.949 . S
C374 C382 1.574 . S
C374 C390 1.368 . S
H375 C383 0.950 . S
H376 C381 0.950 . S
H377 C382 0.949 . S
H378 C384 0.950 . S
H379 C385 0.950 . S
H380 C386 0.949 . S
C381 H376 0.950 . S
C381 C383 1.327 . S
C381 C387 1.429 . S
C382 C374 1.574 . S
C382 H377 0.949 . S
C382 C388 1.368 . S
C383 C367 1.349 . S
C383 H375 0.950 . S
C383 C381 1.327 . S
C384 C372 1.349 1_545 S
C384 H378 0.950 . S
C384 C385 1.327 . S
C385 H379 0.950 . S
C385 C384 1.327 . S
C385 C389 1.429 . S
C386 C369 1.574 . S
C386 H380 0.949 . S
C386 C390 1.368 . S
C387 C368 1.429 . S
C387 C381 1.429 . S
C387 C388 1.523 . S
C388 C369 1.368 . S
C388 C382 1.368 . S
C388 C387 1.523 . S
C389 C373 1.429 . S
C389 C385 1.429 . S
C389 C390 1.523 . S
C390 C374 1.368 . S
C390 C386 1.368 . S
C390 C389 1.523 . S
H391 C366 0.950 . S
H392 C368 0.950 . S
H393 C369 0.949 . S
H394 C371 0.950 1_565 S
H395 C373 0.950 . S
C396 C397 1.349 . S
C396 C398 1.327 . S
C396 H421 0.950 . S
C397 C396 1.349 . S
C397 C413 1.349 . S
C398 C396 1.327 . S
C398 C417 1.429 . S
C398 H422 0.950 . S
C399 C416 1.574 . S
C399 C418 1.368 . S
C399 H423 0.949 . S
H400 C404 0.949 . S
C401 C402 1.349 . S
C401 C403 1.327 . S
C401 H424 0.950 . S
C402 C401 1.349 . S
C402 C414 1.349 . S
C403 C401 1.327 . S
C403 C419 1.429 . S
C403 H425 0.950 . S
C404 H400 0.949 . S
C404 C412 1.574 . S
C404 C420 1.368 . S
H405 C413 0.950 . S
H406 C411 0.950 . S
H407 C412 0.949 . S
H408 C414 0.950 . S
H409 C415 0.950 . S
H410 C416 0.949 . S
C411 H406 0.950 . S
C411 C413 1.327 . S
C411 C417 1.429 . S
C412 C404 1.574 . S
C412 H407 0.949 . S
C412 C418 1.368 . S
C413 C397 1.349 . S
C413 H405 0.950 . S
C413 C411 1.327 . S
C414 C402 1.349 . S
C414 H408 0.950 . S
C414 C415 1.327 . S
C415 H409 0.950 . S
C415 C414 1.327 . S
C415 C419 1.429 . S
C416 C399 1.574 . S
C416 H410 0.949 . S
C416 C420 1.368 . S
C417 C398 1.429 . S
C417 C411 1.429 . S
C417 C418 1.523 1_655 S
C418 C399 1.368 . S
C418 C412 1.368 . S
C418 C417 1.523 1_455 S
C419 C403 1.429 . S
C419 C415 1.429 . S
C419 C420 1.523 . S
C420 C404 1.368 . S
C420 C416 1.368 . S
C420 C419 1.523 . S
H421 C396 0.950 . S
H422 C398 0.950 . S
H423 C399 0.949 . S
H424 C401 0.950 . S
H425 C403 0.950 . S
C426 C427 1.349 1_655 S
C426 C428 1.327 . S
C426 H451 0.950 . S
C427 C426 1.349 1_455 S
C427 C443 1.349 . S
C428 C426 1.327 . S
C428 C447 1.429 . S
C428 H452 0.950 . S
C429 C446 1.574 . S
C429 C448 1.368 . S
C429 H453 0.949 . S
H430 C434 0.949 . S
C431 C432 1.349 . S
C431 C433 1.327 . S
C431 H454 0.950 . S
C432 C431 1.349 . S
C432 C444 1.349 . S
C433 C431 1.327 . S
C433 C449 1.429 . S
C433 H455 0.950 . S
C434 H430 0.949 . S
C434 C442 1.574 . S
C434 C450 1.368 . S
H435 C443 0.950 . S
H436 C441 0.950 . S
H437 C442 0.949 . S
H438 C444 0.950 . S
H439 C445 0.950 . S
H440 C446 0.949 . S
C441 H436 0.950 . S
C441 C443 1.327 1_655 S
C441 C447 1.429 . S
C442 C434 1.574 . S
C442 H437 0.949 . S
C442 C448 1.368 . S
C443 C427 1.349 . S
C443 H435 0.950 . S
C443 C441 1.327 1_455 S
C444 C432 1.349 . S
C444 H438 0.950 . S
C444 C445 1.327 . S
C445 H439 0.950 . S
C445 C444 1.327 . S
C445 C449 1.429 . S
C446 C429 1.574 . S
C446 H440 0.949 . S
C446 C450 1.368 . S
C447 C428 1.429 . S
C447 C441 1.429 . S
C447 C448 1.523 . S
C448 C429 1.368 . S
C448 C442 1.368 . S
C448 C447 1.523 . S
C449 C433 1.429 . S
C449 C445 1.429 . S
C449 C450 1.523 1_565 S
C450 C434 1.368 . S
C450 C446 1.368 . S
C450 C449 1.523 1_545 S
H451 C426 0.950 . S
H452 C428 0.950 . S
H453 C429 0.949 . S
H454 C431 0.950 . S
H455 C433 0.950 . S
C456 C457 1.349 1_565 S
C456 C458 1.327 . S
C456 H481 0.950 . S
C457 C456 1.349 1_545 S
C457 C473 1.348 1_545 S
C458 C456 1.327 . S
C458 C477 1.429 . S
C458 H482 0.950 . S
C459 C476 1.574 . S
C459 C478 1.368 . S
C459 H483 0.949 . S
H460 C464 0.949 . S
C461 C462 1.349 . S
C461 C463 1.327 . S
C461 H484 0.950 . S
C462 C461 1.349 . S
C462 C474 1.349 . S
C463 C461 1.327 . S
C463 C479 1.429 . S
C463 H485 0.950 . S
C464 H460 0.949 . S
C464 C472 1.574 . S
C464 C480 1.368 . S
H465 C473 0.948 1_545 S
H466 C471 0.950 . S
H467 C472 0.949 . S
H468 C474 0.950 . S
H469 C475 0.950 . S
H470 C476 0.949 . S
C471 H466 0.950 . S
C471 C473 1.329 . S
C471 C477 1.429 . S
C472 C464 1.574 . S
C472 H467 0.949 . S
C472 C478 1.368 . S
C473 C457 1.348 1_565 S
C473 H465 0.948 1_565 S
C473 C471 1.329 . S
C474 C462 1.349 . S
C474 H468 0.950 . S
C474 C475 1.327 . S
C475 H469 0.950 . S
C475 C474 1.327 . S
C475 C479 1.429 . S
C476 C459 1.574 . S
C476 H470 0.949 . S
C476 C480 1.368 . S
C477 C458 1.429 . S
C477 C471 1.429 . S
C477 C478 1.523 . S
C478 C459 1.368 . S
C478 C472 1.368 . S
C478 C477 1.523 . S
C479 C463 1.429 . S
C479 C475 1.429 . S
C479 C480 1.523 . S
C480 C464 1.368 . S
C480 C476 1.368 . S
C480 C479 1.523 . S
H481 C456 0.950 . S
H482 C458 0.950 . S
H483 C459 0.949 . S
H484 C461 0.950 . S
H485 C463 0.950 . S
C486 C487 1.349 . S
C486 C488 1.327 . S
C486 H511 0.950 . S
C487 C486 1.349 . S
C487 C503 1.349 . S
C488 C486 1.327 . S
C488 C507 1.429 . S
C488 H512 0.950 . S
C489 C506 1.574 . S
C489 C508 1.368 . S
C489 H513 0.949 . S
H490 C494 0.949 . S
C491 C492 1.349 . S
C491 C493 1.327 . S
C491 H514 0.950 . S
C492 C491 1.349 . S
C492 C504 1.349 . S
C493 C491 1.327 . S
C493 C509 1.429 . S
C493 H515 0.950 . S
C494 H490 0.949 . S
C494 C502 1.574 . S
C494 C510 1.368 . S
H495 C503 0.950 . S
H496 C501 0.950 . S
H497 C502 0.949 . S
H498 C504 0.950 . S
H499 C505 0.950 . S
H500 C506 0.949 . S
C501 H496 0.950 . S
C501 C503 1.327 . S
C501 C507 1.429 . S
C502 C494 1.574 . S
C502 H497 0.949 . S
C502 C508 1.368 . S
C503 C487 1.349 . S
C503 H495 0.950 . S
C503 C501 1.327 . S
C504 C492 1.349 . S
C504 H498 0.950 . S
C504 C505 1.327 . S
C505 H499 0.950 . S
C505 C504 1.327 . S
C505 C509 1.429 . S
C506 C489 1.574 . S
C506 H500 0.949 . S
C506 C510 1.368 . S
C507 C488 1.429 . S
C507 C501 1.429 . S
C507 C508 1.523 . S
C508 C489 1.368 . S
C508 C502 1.368 . S
C508 C507 1.523 . S
C509 C493 1.429 . S
C509 C505 1.429 . S
C509 C510 1.523 1_455 S
C510 C494 1.368 . S
C510 C506 1.368 . S
C510 C509 1.523 1_655 S
H511 C486 0.950 . S
H512 C488 0.950 . S
H513 C489 0.949 . S
H514 C491 0.950 . S
H515 C493 0.950 . S
C516 C517 1.349 . S
C516 C518 1.327 . S
C516 H541 0.950 . S
C517 C516 1.349 . S
C517 C533 1.349 . S
C518 C516 1.327 . S
C518 C537 1.429 . S
C518 H542 0.950 . S
C519 C536 1.574 . S
C519 C538 1.368 . S
C519 H543 0.949 . S
H520 C524 0.949 . S
C521 C522 1.349 1_455 S
C521 C523 1.327 . S
C521 H544 0.950 1_455 S
C522 C521 1.349 1_655 S
C522 C534 1.349 1_655 S
C523 C521 1.327 . S
C523 C539 1.429 . S
C523 H545 0.950 . S
C524 H520 0.949 . S
C524 C532 1.574 . S
C524 C540 1.368 . S
H525 C533 0.950 . S
H526 C531 0.950 . S
H527 C532 0.949 . S
H528 C534 0.950 . S
H529 C535 0.950 . S
H530 C536 0.949 . S
C531 H526 0.950 . S
C531 C533 1.327 . S
C531 C537 1.429 . S
C532 C524 1.574 . S
C532 H527 0.949 . S
C532 C538 1.368 . S
C533 C517 1.349 . S
C533 H525 0.950 . S
C533 C531 1.327 . S
C534 C522 1.349 1_455 S
C534 H528 0.950 . S
C534 C535 1.327 . S
C535 H529 0.950 . S
C535 C534 1.327 . S
C535 C539 1.429 . S
C536 C519 1.574 . S
C536 H530 0.949 . S
C536 C540 1.368 . S
C537 C518 1.429 . S
C537 C531 1.429 . S
C537 C538 1.523 1_545 S
C538 C519 1.368 . S
C538 C532 1.368 . S
C538 C537 1.523 1_565 S
C539 C523 1.429 . S
C539 C535 1.429 . S
C539 C540 1.523 . S
C540 C524 1.368 . S
C540 C536 1.368 . S
C540 C539 1.523 . S
H541 C516 0.950 . S
H542 C518 0.950 . S
H543 C519 0.949 . S
H544 C521 0.950 1_655 S
H545 C523 0.950 . S
C546 C547 1.349 . S
C546 C548 1.327 . S
C546 H571 0.950 . S
C547 C546 1.349 . S
C547 C563 1.349 . S
C548 C546 1.327 . S
C548 C567 1.429 . S
C548 H572 0.950 . S
C549 C566 1.574 1_554 S
C549 C568 1.368 . S
C549 H573 0.949 . S
H550 C554 0.949 . S
C551 C552 1.349 . S
C551 C553 1.327 . S
C551 H574 0.950 . S
C552 C551 1.349 . S
C552 C564 1.349 . S
C553 C551 1.327 . S
C553 C569 1.429 . S
C553 H575 0.950 . S
C554 H550 0.949 . S
C554 C562 1.574 1_556 S
C554 C570 1.368 . S
H555 C563 0.950 . S
H556 C561 0.950 . S
H557 C562 0.949 . S
H558 C564 0.950 . S
H559 C565 0.950 . S
H560 C566 0.949 . S
C561 H556 0.950 . S
C561 C563 1.327 . S
C561 C567 1.429 . S
C562 C554 1.574 1_554 S
C562 H557 0.949 . S
C562 C568 1.368 . S
C563 C547 1.349 . S
C563 H555 0.950 . S
C563 C561 1.327 . S
C564 C552 1.349 . S
C564 H558 0.950 . S
C564 C565 1.327 . S
C565 H559 0.950 . S
C565 C564 1.327 . S
C565 C569 1.429 . S
C566 C549 1.574 1_556 S
C566 H560 0.949 . S
C566 C570 1.368 . S
C567 C548 1.429 . S
C567 C561 1.429 . S
C567 C568 1.523 . S
C568 C549 1.368 . S
C568 C562 1.368 . S
C568 C567 1.523 . S
C569 C553 1.429 . S
C569 C565 1.429 . S
C569 C570 1.523 . S
C570 C554 1.368 . S
C570 C566 1.368 . S
C570 C569 1.523 . S
H571 C546 0.950 . S
H572 C548 0.950 . S
H573 C549 0.949 . S
H574 C551 0.950 . S
H575 C553 0.950 . S
C576 C577 1.349 . S
C576 C578 1.327 . S
C576 H601 0.950 . S
C577 C576 1.349 . S
C577 C593 1.349 . S
C578 C576 1.327 . S
C578 C597 1.429 . S
C578 H602 0.950 . S
C579 C596 1.581 . S
C579 C598 1.358 1_455 S
C579 H603 0.953 . S
H580 C584 0.949 . S
C581 C582 1.349 . S
C581 C583 1.327 . S
C581 H604 0.950 . S
C582 C581 1.349 . S
C582 C594 1.349 . S
C583 C581 1.327 . S
C583 C599 1.429 . S
C583 H605 0.950 . S
C584 H580 0.949 . S
C584 C592 1.574 . S
C584 C600 1.368 1_655 S
H585 C593 0.950 . S
H586 C591 0.950 . S
H587 C592 0.949 . S
H588 C594 0.950 . S
H589 C595 0.950 1_655 S
H590 C596 0.949 . S
C591 H586 0.950 . S
C591 C593 1.327 . S
C591 C597 1.429 . S
C592 C584 1.574 . S
C592 H587 0.949 . S
C592 C598 1.368 . S
C593 C577 1.349 . S
C593 H585 0.950 . S
C593 C591 1.327 . S
C594 C582 1.349 . S
C594 H588 0.950 . S
C594 C595 1.327 . S
C595 H589 0.950 1_455 S
C595 C594 1.327 . S
C595 C599 1.429 . S
C596 C579 1.581 . S
C596 H590 0.949 . S
C596 C600 1.368 . S
C597 C578 1.429 . S
C597 C591 1.429 . S
C597 C598 1.523 . S
C598 C579 1.358 1_655 S
C598 C592 1.368 . S
C598 C597 1.523 . S
C599 C583 1.429 . S
C599 C595 1.429 . S
C599 C600 1.523 . S
C600 C584 1.368 1_455 S
C600 C596 1.368 . S
C600 C599 1.523 . S
H601 C576 0.950 . S
H602 C578 0.950 . S
H603 C579 0.953 . S
H604 C581 0.950 . S
H605 C583 0.950 . S
C606 C607 1.349 . S
C606 C608 1.327 . S
C606 H631 0.950 . S
C607 C606 1.349 . S
C607 C623 1.349 . S
C608 C606 1.327 . S
C608 C627 1.429 . S
C608 H632 0.950 . S
C609 C626 1.574 1_564 S
C609 C628 1.368 . S
C609 H633 0.949 . S
H610 C614 0.949 . S
C611 C612 1.349 . S
C611 C613 1.327 . S
C611 H634 0.950 . S
C612 C611 1.349 . S
C612 C624 1.349 . S
C613 C611 1.327 . S
C613 C629 1.429 . S
C613 H635 0.950 . S
C614 H610 0.949 . S
C614 C622 1.574 1_556 S
C614 C630 1.368 1_565 S
H615 C623 0.950 . S
H616 C621 0.950 . S
H617 C622 0.949 . S
H618 C624 0.950 . S
H619 C625 0.950 . S
H620 C626 0.949 . S
C621 H616 0.950 . S
C621 C623 1.327 . S
C621 C627 1.429 . S
C622 C614 1.574 1_554 S
C622 H617 0.949 . S
C622 C628 1.368 . S
C623 C607 1.349 . S
C623 H615 0.950 . S
C623 C621 1.327 . S
C624 C612 1.349 . S
C624 H618 0.950 . S
C624 C625 1.327 . S
C625 H619 0.950 . S
C625 C624 1.327 . S
C625 C629 1.429 . S
C626 C609 1.574 1_546 S
C626 H620 0.949 . S
C626 C630 1.368 . S
C627 C608 1.429 . S
C627 C621 1.429 . S
C627 C628 1.523 . S
C628 C609 1.368 . S
C628 C622 1.368 . S
C628 C627 1.523 . S
C629 C613 1.429 . S
C629 C625 1.429 . S
C629 C630 1.523 . S
C630 C614 1.368 1_545 S
C630 C626 1.368 . S
C630 C629 1.523 . S
H631 C606 0.950 . S
H632 C608 0.950 . S
H633 C609 0.949 . S
H634 C611 0.950 . S
H635 C613 0.950 . S
C636 C637 1.349 . S
C636 C638 1.327 . S
C636 H661 0.950 . S
C637 C636 1.349 . S
C637 C653 1.349 . S
C638 C636 1.327 . S
C638 C657 1.429 . S
C638 H662 0.950 . S
C639 C656 1.574 . S
C639 C658 1.368 . S
C639 H663 0.949 . S
H640 C644 0.949 . S
C641 C642 1.349 . S
C641 C643 1.327 . S
C641 H664 0.950 . S
C642 C641 1.349 . S
C642 C654 1.349 . S
C643 C641 1.327 . S
C643 C659 1.429 . S
C643 H665 0.950 . S
C644 H640 0.949 . S
C644 C652 1.574 . S
C644 C660 1.368 . S
H645 C653 0.950 . S
H646 C651 0.950 . S
H647 C652 0.949 . S
H648 C654 0.950 . S
H649 C655 0.950 . S
H650 C656 0.949 . S
C651 H646 0.950 . S
C651 C653 1.327 . S
C651 C657 1.429 . S
C652 C644 1.574 . S
C652 H647 0.949 . S
C652 C658 1.368 . S
C653 C637 1.349 . S
C653 H645 0.950 . S
C653 C651 1.327 . S
C654 C642 1.349 . S
C654 H648 0.950 . S
C654 C655 1.327 . S
C655 H649 0.950 . S
C655 C654 1.327 . S
C655 C659 1.429 . S
C656 C639 1.574 . S
C656 H650 0.949 . S
C656 C660 1.368 . S
C657 C638 1.429 . S
C657 C651 1.429 . S
C657 C658 1.523 . S
C658 C639 1.368 . S
C658 C652 1.368 . S
C658 C657 1.523 . S
C659 C643 1.429 . S
C659 C655 1.429 . S
C659 C660 1.523 . S
C660 C644 1.368 . S
C660 C656 1.368 . S
C660 C659 1.523 . S
H661 C636 0.950 . S
H662 C638 0.950 . S
H663 C639 0.949 . S
H664 C641 0.950 . S
H665 C643 0.950 . S
C666 C667 1.349 . S
C666 C668 1.327 . S
C666 H691 0.950 . S
C667 C666 1.349 . S
C667 C683 1.349 . S
C668 C666 1.327 . S
C668 C687 1.429 . S
C668 H692 0.950 . S
C669 C686 1.574 1_556 S
C669 C688 1.368 1_455 S
C669 H693 0.949 1_455 S
H670 C674 0.949 . S
C671 C672 1.349 . S
C671 C673 1.327 . S
C671 H694 0.950 . S
C672 C671 1.349 . S
C672 C684 1.349 . S
C673 C671 1.327 . S
C673 C689 1.429 . S
C673 H695 0.950 . S
C674 H670 0.949 . S
C674 C682 1.574 1_554 S
C674 C690 1.368 . S
H675 C683 0.950 . S
H676 C681 0.950 . S
H677 C682 0.949 1_655 S
H678 C684 0.950 . S
H679 C685 0.950 . S
H680 C686 0.949 . S
C681 H676 0.950 . S
C681 C683 1.327 . S
C681 C687 1.429 . S
C682 C674 1.574 1_556 S
C682 H677 0.949 1_455 S
C682 C688 1.368 1_455 S
C683 C667 1.349 . S
C683 H675 0.950 . S
C683 C681 1.327 . S
C684 C672 1.349 . S
C684 H678 0.950 . S
C684 C685 1.327 . S
C685 H679 0.950 . S
C685 C684 1.327 . S
C685 C689 1.429 . S
C686 C669 1.574 1_554 S
C686 H680 0.949 . S
C686 C690 1.368 . S
C687 C668 1.429 . S
C687 C681 1.429 . S
C687 C688 1.523 . S
C688 C669 1.368 1_655 S
C688 C682 1.368 1_655 S
C688 C687 1.523 . S
C689 C673 1.429 . S
C689 C685 1.429 . S
C689 C690 1.523 . S
C690 C674 1.368 . S
C690 C686 1.368 . S
C690 C689 1.523 . S
H691 C666 0.950 . S
H692 C668 0.950 . S
H693 C669 0.949 1_655 S
H694 C671 0.950 . S
H695 C673 0.950 . S
C696 C697 1.349 . S
C696 C698 1.327 . S
C696 H721 0.950 . S
C697 C696 1.349 . S
C697 C713 1.349 . S
C698 C696 1.327 . S
C698 C717 1.429 . S
C698 H722 0.950 . S
C699 C716 1.587 . S
C699 C718 1.343 1_565 S
C699 H723 0.960 . S
H700 C704 0.949 . S
C701 C702 1.349 . S
C701 C703 1.327 . S
C701 H724 0.950 . S
C702 C701 1.349 . S
C702 C714 1.349 . S
C703 C701 1.327 . S
C703 C719 1.429 . S
C703 H725 0.950 . S
C704 H700 0.949 . S
C704 C712 1.574 . S
C704 C720 1.368 1_545 S
H705 C713 0.950 . S
H706 C711 0.950 . S
H707 C712 0.949 . S
H708 C714 0.950 . S
H709 C715 0.950 1_545 S
H710 C716 0.949 . S
C711 H706 0.950 . S
C711 C713 1.327 . S
C711 C717 1.429 . S
C712 C704 1.574 . S
C712 H707 0.949 . S
C712 C718 1.368 . S
C713 C697 1.349 . S
C713 H705 0.950 . S
C713 C711 1.327 . S
C714 C702 1.349 . S
C714 H708 0.950 . S
C714 C715 1.327 . S
C715 H709 0.950 1_565 S
C715 C714 1.327 . S
C715 C719 1.429 . S
C716 C699 1.587 . S
C716 H710 0.949 . S
C716 C720 1.368 . S
C717 C698 1.429 . S
C717 C711 1.429 . S
C717 C718 1.523 . S
C718 C699 1.343 1_545 S
C718 C712 1.368 . S
C718 C717 1.523 . S
C719 C703 1.429 . S
C719 C715 1.429 . S
C719 C720 1.523 . S
C720 C704 1.368 1_565 S
C720 C716 1.368 . S
C720 C719 1.523 . S
H721 C696 0.950 . S
H722 C698 0.950 . S
H723 C699 0.960 . S
H724 C701 0.950 . S
H725 C703 0.950 . S
C726 C727 1.349 . S
C726 C728 1.327 . S
C726 H751 0.950 . S
C727 C726 1.349 . S
C727 C743 1.349 . S
C728 C726 1.327 . S
C728 C747 1.429 . S
C728 H752 0.950 . S
C729 C746 1.574 . S
C729 C748 1.368 1_554 S
C729 H753 0.949 . S
H730 C734 0.949 . S
C731 C732 1.349 . S
C731 C733 1.327 . S
C731 H754 0.950 . S
C732 C731 1.349 . S
C732 C744 1.349 . S
C733 C731 1.327 . S
C733 C749 1.429 . S
C733 H755 0.950 . S
C734 H730 0.949 . S
C734 C742 1.574 . S
C734 C750 1.368 1_556 S
H735 C743 0.950 . S
H736 C741 0.950 . S
H737 C742 0.949 . S
H738 C744 0.950 . S
H739 C745 0.950 . S
H740 C746 0.949 . S
C741 H736 0.950 . S
C741 C743 1.327 . S
C741 C747 1.429 . S
C742 C734 1.574 . S
C742 H737 0.949 . S
C742 C748 1.368 . S
C743 C727 1.349 . S
C743 H735 0.950 . S
C743 C741 1.327 . S
C744 C732 1.349 . S
C744 H738 0.950 . S
C744 C745 1.327 . S
C745 H739 0.950 . S
C745 C744 1.327 . S
C745 C749 1.429 . S
C746 C729 1.574 . S
C746 H740 0.949 . S
C746 C750 1.368 . S
C747 C728 1.429 . S
C747 C741 1.429 . S
C747 C748 1.523 . S
C748 C729 1.368 1_556 S
C748 C742 1.368 . S
C748 C747 1.523 . S
C749 C733 1.429 . S
C749 C745 1.429 . S
C749 C750 1.523 . S
C750 C734 1.368 1_554 S
C750 C746 1.368 . S
C750 C749 1.523 . S
H751 C726 0.950 . S
H752 C728 0.950 . S
H753 C729 0.949 . S
H754 C731 0.950 . S
H755 C733 0.950 . S
C756 C757 1.349 . S
C756 C758 1.327 . S
C756 H781 0.950 . S
C757 C756 1.349 . S
C757 C773 1.349 . S
C758 C756 1.327 . S
C758 C777 1.429 . S
C758 H782 0.950 . S
C759 C776 1.574 . S
C759 C778 1.368 . S
C759 H783 0.949 . S
H760 C764 0.949 . S
C761 C762 1.349 . S
C761 C763 1.327 . S
C761 H784 0.950 . S
C762 C761 1.349 . S
C762 C774 1.349 . S
C763 C761 1.327 . S
C763 C779 1.429 . S
C763 H785 0.950 . S
C764 H760 0.949 . S
C764 C772 1.574 1_655 S
C764 C780 1.368 . S
H765 C773 0.950 . S
H766 C771 0.950 . S
H767 C772 0.949 . S
H768 C774 0.950 . S
H769 C775 0.950 . S
H770 C776 0.949 . S
C771 H766 0.950 . S
C771 C773 1.327 . S
C771 C777 1.429 . S
C772 C764 1.574 1_455 S
C772 H767 0.949 . S
C772 C778 1.368 . S
C773 C757 1.349 . S
C773 H765 0.950 . S
C773 C771 1.327 . S
C774 C762 1.349 . S
C774 H768 0.950 . S
C774 C775 1.327 . S
C775 H769 0.950 . S
C775 C774 1.327 . S
C775 C779 1.429 . S
C776 C759 1.574 . S
C776 H770 0.949 . S
C776 C780 1.368 1_455 S
C777 C758 1.429 . S
C777 C771 1.429 . S
C777 C778 1.523 . S
C778 C759 1.368 . S
C778 C772 1.368 . S
C778 C777 1.523 . S
C779 C763 1.429 . S
C779 C775 1.429 . S
C779 C780 1.523 . S
C780 C764 1.368 . S
C780 C776 1.368 1_655 S
C780 C779 1.523 . S
H781 C756 0.950 . S
H782 C758 0.950 . S
H783 C759 0.949 . S
H784 C761 0.950 . S
H785 C763 0.950 . S
C786 C787 1.349 . S
C786 C788 1.327 . S
C786 H811 0.950 . S
C787 C786 1.349 . S
C787 C803 1.349 . S
C788 C786 1.327 . S
C788 C807 1.429 . S
C788 H812 0.950 . S
C789 C806 1.574 . S
C789 C808 1.368 1_554 S
C789 H813 0.950 . S
H790 C794 0.949 1_554 S
C791 C792 1.349 . S
C791 C793 1.327 . S
C791 H814 0.950 . S
C792 C791 1.349 . S
C792 C804 1.349 . S
C793 C791 1.327 . S
C793 C809 1.429 . S
C793 H815 0.950 1_565 S
C794 H790 0.949 1_556 S
C794 C802 1.574 1_565 S
C794 C810 1.368 1_556 S
H795 C803 0.950 . S
H796 C801 0.950 . S
H797 C802 0.949 . S
H798 C804 0.950 . S
H799 C805 0.950 . S
H800 C806 0.949 . S
C801 H796 0.950 . S
C801 C803 1.327 . S
C801 C807 1.429 . S
C802 C794 1.574 1_545 S
C802 H797 0.949 . S
C802 C808 1.368 . S
C803 C787 1.349 . S
C803 H795 0.950 . S
C803 C801 1.327 . S
C804 C792 1.349 . S
C804 H798 0.950 . S
C804 C805 1.327 . S
C805 H799 0.950 . S
C805 C804 1.327 . S
C805 C809 1.429 . S
C806 C789 1.574 . S
C806 H800 0.949 . S
C806 C810 1.368 1_545 S
C807 C788 1.429 . S
C807 C801 1.429 . S
C807 C808 1.523 . S
C808 C789 1.368 1_556 S
C808 C802 1.368 . S
C808 C807 1.523 . S
C809 C793 1.429 . S
C809 C805 1.429 . S
C809 C810 1.523 . S
C810 C794 1.368 1_554 S
C810 C806 1.368 1_565 S
C810 C809 1.523 . S
H811 C786 0.950 . S
H812 C788 0.950 . S
H813 C789 0.950 . S
H814 C791 0.950 . S
H815 C793 0.950 1_545 S
C816 C817 1.349 . S
C816 C818 1.327 . S
C816 H841 0.950 . S
C817 C816 1.349 . S
C817 C833 1.349 . S
C818 C816 1.327 . S
C818 C837 1.429 . S
C818 H842 0.950 . S
C819 C836 1.574 . S
C819 C838 1.368 . S
C819 H843 0.949 . S
H820 C824 0.949 . S
C821 C822 1.349 . S
C821 C823 1.327 . S
C821 H844 0.950 . S
C822 C821 1.349 . S
C822 C834 1.349 . S
C823 C821 1.327 . S
C823 C839 1.429 . S
C823 H845 0.950 . S
C824 H820 0.949 . S
C824 C832 1.574 . S
C824 C840 1.368 . S
H825 C833 0.950 . S
H826 C831 0.950 . S
H827 C832 0.949 . S
H828 C834 0.950 . S
H829 C835 0.950 . S
H830 C836 0.949 . S
C831 H826 0.950 . S
C831 C833 1.327 . S
C831 C837 1.429 . S
C832 C824 1.574 . S
C832 H827 0.949 . S
C832 C838 1.368 . S
C833 C817 1.349 . S
C833 H825 0.950 . S
C833 C831 1.327 . S
C834 C822 1.349 . S
C834 H828 0.950 . S
C834 C835 1.327 . S
C835 H829 0.950 . S
C835 C834 1.327 . S
C835 C839 1.429 . S
C836 C819 1.574 . S
C836 H830 0.949 . S
C836 C840 1.368 . S
C837 C818 1.429 . S
C837 C831 1.429 . S
C837 C838 1.523 . S
C838 C819 1.368 . S
C838 C832 1.368 . S
C838 C837 1.523 . S
C839 C823 1.429 . S
C839 C835 1.429 . S
C839 C840 1.523 . S
C840 C824 1.368 . S
C840 C836 1.368 . S
C840 C839 1.523 . S
H841 C816 0.950 . S
H842 C818 0.950 . S
H843 C819 0.949 . S
H844 C821 0.950 . S
H845 C823 0.950 . S
C846 C847 1.349 . S
C846 C848 1.327 . S
C846 H871 0.950 . S
C847 C846 1.349 . S
C847 C863 1.349 . S
C848 C846 1.327 . S
C848 C867 1.429 . S
C848 H872 0.950 . S
C849 C866 1.574 . S
C849 C868 1.368 1_655 S
C849 H873 0.949 . S
H850 C854 0.949 . S
C851 C852 1.349 . S
C851 C853 1.327 . S
C851 H874 0.950 . S
C852 C851 1.349 . S
C852 C864 1.349 . S
C853 C851 1.327 . S
C853 C869 1.429 . S
C853 H875 0.950 . S
C854 H850 0.949 . S
C854 C862 1.583 1_655 S
C854 C870 1.368 . S
H855 C863 0.950 . S
H856 C861 0.950 1_655 S
H857 C862 0.949 . S
H858 C864 0.950 . S
H859 C865 0.950 . S
H860 C866 0.949 . S
C861 H856 0.950 1_455 S
C861 C863 1.327 . S
C861 C867 1.429 . S
C862 C854 1.583 1_455 S
C862 H857 0.949 . S
C862 C868 1.359 1_556 S
C863 C847 1.349 . S
C863 H855 0.950 . S
C863 C861 1.327 . S
C864 C852 1.349 . S
C864 H858 0.950 . S
C864 C865 1.327 . S
C865 H859 0.950 . S
C865 C864 1.327 . S
C865 C869 1.429 . S
C866 C849 1.574 . S
C866 H860 0.949 . S
C866 C870 1.368 1_554 S
C867 C848 1.429 . S
C867 C861 1.429 . S
C867 C868 1.523 . S
C868 C849 1.368 1_455 S
C868 C862 1.359 1_554 S
C868 C867 1.523 . S
C869 C853 1.429 . S
C869 C865 1.429 . S
C869 C870 1.523 . S
C870 C854 1.368 . S
C870 C866 1.368 1_556 S
C870 C869 1.523 . S
H871 C846 0.950 . S
H872 C848 0.950 . S
H873 C849 0.949 . S
H874 C851 0.950 . S
H875 C853 0.950 . S
C876 C877 1.349 . S
C876 C878 1.327 . S
C876 H901 0.950 . S
C877 C876 1.349 . S
C877 C893 1.349 . S
C878 C876 1.327 . S
C878 C897 1.429 . S
C878 H902 0.950 . S
C879 C896 1.574 1_545 S
C879 C898 1.368 . S
C879 H903 0.949 . S
H880 C884 0.949 . S
C881 C882 1.349 . S
C881 C883 1.327 . S
C881 H904 0.950 . S
C882 C881 1.349 . S
C882 C894 1.349 . S
C883 C881 1.327 . S
C883 C899 1.429 . S
C883 H905 0.950 . S
C884 H880 0.949 . S
C884 C892 1.574 . S
C884 C900 1.368 . S
H885 C893 0.950 . S
H886 C891 0.950 . S
H887 C892 0.949 . S
H888 C894 0.950 . S
H889 C895 0.950 . S
H890 C896 0.949 . S
C891 H886 0.950 . S
C891 C893 1.327 . S
C891 C897 1.429 . S
C892 C884 1.574 . S
C892 H887 0.949 . S
C892 C898 1.368 1_565 S
C893 C877 1.349 . S
C893 H885 0.950 . S
C893 C891 1.327 . S
C894 C882 1.349 . S
C894 H888 0.950 . S
C894 C895 1.327 . S
C895 H889 0.950 . S
C895 C894 1.327 . S
C895 C899 1.429 . S
C896 C879 1.574 1_565 S
C896 H890 0.949 . S
C896 C900 1.368 . S
C897 C878 1.429 . S
C897 C891 1.429 . S
C897 C898 1.523 . S
C898 C879 1.368 . S
C898 C892 1.368 1_545 S
C898 C897 1.523 . S
C899 C883 1.429 . S
C899 C895 1.429 . S
C899 C900 1.523 . S
C900 C884 1.368 . S
C900 C896 1.368 . S
C900 C899 1.523 . S
H901 C876 0.950 . S
H902 C878 0.950 . S
H903 C879 0.949 . S
H904 C881 0.950 . S
H905 C883 0.950 . S
C187 C19 1.123 . S
C192 C144 1.187 . S
C217 C156 1.187 . S
C222 C31 1.123 . S
C247 C20 1.187 . S
C252 C81 1.123 . S
C277 C32 1.187 . S
C282 C93 1.123 . S
C307 C143 1.123 . S
C312 C82 1.187 . S
C337 C155 1.123 . S
C342 C94 1.187 . S
C367 C30 0.896 . S
C372 C125 0.908 . S
C397 C41 0.896 . S
C402 C175 0.908 . S
C427 C1 0.908 . S
C432 C92 0.896 . S
C457 C51 0.908 . S
C462 C103 0.896 . S
C487 C63 0.908 . S
C492 C154 0.896 . S
C517 C165 0.896 . S
C522 C113 0.908 . S
C547 C29 0.977 . S
C552 C184 0.946 . S
C577 C33 0.977 . S
C582 C2 0.946 . S
C607 C91 0.977 . S
C612 C60 0.947 . S
C637 C95 0.977 . S
C642 C64 0.946 . S
C667 C122 0.946 . S
C672 C153 0.977 . S
C697 C157 0.977 . S
C702 C126 0.947 . S
C727 C123 2.219 . S
C732 C62 2.253 . S
C757 C134 2.219 . S
C762 C112 2.253 . S
C787 C185 2.219 . S
C792 C124 2.253 . S
C817 C174 2.253 . S
C822 C10 2.219 . S
C847 C0 2.253 . S
C852 C61 2.219 . S
C877 C50 2.253 . S
C882 C72 2.219 . S
