# Generated by pormake.
# Topology vby, (6)-cn, num edge types: 1
# Building blocks:
#     Node 0, Type 0, BuildingBlock: FUNLAD_clean_sbu_0, # of connection points: 6
#     Node 1, Type 0, BuildingBlock: FUNLAD_clean_sbu_0, # of connection points: 6
#     Node 2, Type 0, BuildingBlock: FUNLAD_clean_sbu_0, # of connection points: 6
#     Node 3, Type 0, BuildingBlock: FUNLAD_clean_sbu_0, # of connection points: 6
#     Node 4, Type 0, BuildingBlock: FUNLAD_clean_sbu_0, # of connection points: 6
#     Node 5, Type 0, BuildingBlock: FUNLAD_clean_sbu_0, # of connection points: 6
#     Node 6, Type 0, BuildingBlock: FUNLAD_clean_sbu_0, # of connection points: 6
#     Node 7, Type 0, BuildingBlock: FUNLAD_clean_sbu_0, # of connection points: 6
#     Edge 8, Type (0, 0), BuildingBlock: CIFDUS_clean_linker_0, # of connection points: 2
#     Edge 9, Type (0, 0), BuildingBlock: CIFDUS_clean_linker_0, # of connection points: 2
#     Edge 10, Type (0, 0), BuildingBlock: CIFDUS_clean_linker_0, # of connection points: 2
#     Edge 11, Type (0, 0), BuildingBlock: CIFDUS_clean_linker_0, # of connection points: 2
#     Edge 12, Type (0, 0), BuildingBlock: CIFDUS_clean_linker_0, # of connection points: 2
#     Edge 13, Type (0, 0), BuildingBlock: CIFDUS_clean_linker_0, # of connection points: 2
#     Edge 14, Type (0, 0), BuildingBlock: CIFDUS_clean_linker_0, # of connection points: 2
#     Edge 15, Type (0, 0), BuildingBlock: CIFDUS_clean_linker_0, # of connection points: 2
#     Edge 16, Type (0, 0), BuildingBlock: CIFDUS_clean_linker_0, # of connection points: 2
#     Edge 17, Type (0, 0), BuildingBlock: CIFDUS_clean_linker_0, # of connection points: 2
#     Edge 18, Type (0, 0), BuildingBlock: CIFDUS_clean_linker_0, # of connection points: 2
#     Edge 19, Type (0, 0), BuildingBlock: CIFDUS_clean_linker_0, # of connection points: 2
#     Edge 20, Type (0, 0), BuildingBlock: CIFDUS_clean_linker_0, # of connection points: 2
#     Edge 21, Type (0, 0), BuildingBlock: CIFDUS_clean_linker_0, # of connection points: 2
#     Edge 22, Type (0, 0), BuildingBlock: CIFDUS_clean_linker_0, # of connection points: 2
#     Edge 23, Type (0, 0), BuildingBlock: CIFDUS_clean_linker_0, # of connection points: 2
#     Edge 24, Type (0, 0), BuildingBlock: CIFDUS_clean_linker_0, # of connection points: 2
#     Edge 25, Type (0, 0), BuildingBlock: CIFDUS_clean_linker_0, # of connection points: 2
#     Edge 26, Type (0, 0), BuildingBlock: CIFDUS_clean_linker_0, # of connection points: 2
#     Edge 27, Type (0, 0), BuildingBlock: CIFDUS_clean_linker_0, # of connection points: 2
#     Edge 28, Type (0, 0), BuildingBlock: CIFDUS_clean_linker_0, # of connection points: 2
#     Edge 29, Type (0, 0), BuildingBlock: CIFDUS_clean_linker_0, # of connection points: 2
#     Edge 30, Type (0, 0), BuildingBlock: CIFDUS_clean_linker_0, # of connection points: 2
#     Edge 31, Type (0, 0), BuildingBlock: CIFDUS_clean_linker_0, # of connection points: 2
# Relax obj value: 0.045
# Max RMSD: 0.110
# Mean RMSD: 0.105
data_MOF--net-vby--node1-FUNLAD_clean_sbu_0--edge1-CIFDUS_clean_linker_0
_symmetry_space_group_name_H-M    P1
_symmetry_Int_Tables_number       1
_symmetry_cell_setting            triclinic
loop_
_symmetry_equiv_pos_as_xyz
'x, y, z'
_cell_length_a     13.399304
_cell_length_b     51.192695
_cell_length_c     39.460467
_cell_angle_alpha  88.925459
_cell_angle_beta   90.267498
_cell_angle_gamma 89.913074
loop_
_atom_site_label
_atom_site_type_symbol
_atom_site_fract_x
_atom_site_fract_y
_atom_site_fract_z
_atom_type_partial_charge
C0 C 0.00735 0.42077 0.02196 0.0
N1 N 0.04949 0.37112 0.1076 0.0
C2 C 0.10821 0.38932 0.12259 0.0
C3 C 0.10851 0.39176 0.15792 0.0
C4 C 0.04668 0.37559 0.17789 0.0
C5 C -0.01187 0.35679 0.16175 0.0
C6 C -0.00883 0.35476 0.12654 0.0
Zn7 Zn 0.03928 0.3686 0.0556 0.0
C8 C 0.82846 0.36248 0.0339 0.0
N9 N 0.00797 0.3633 0.94763 0.0
C10 C 0.05692 0.37974 0.92589 0.0
C11 C 0.94135 0.34549 0.93598 0.0
C12 C 0.9191 0.34432 0.90146 0.0
C13 C 0.9669 0.36136 0.87853 0.0
C14 C 0.03794 0.37895 0.89101 0.0
Zn15 Zn 0.02521 0.36625 0.99919 0.0
O16 O 0.02086 0.40966 0.05075 0.0
C17 C 0.23567 0.37244 0.02089 0.0
O18 O 0.00529 0.40704 0.99547 0.0
H19 H 0.90371 0.33246 0.95358 0.0
H20 H 0.15368 0.40222 0.10711 0.0
H21 H 0.10915 0.39385 0.93567 0.0
O22 O 0.19546 0.3725 0.05006 0.0
O23 O 0.18096 0.37077 0.99457 0.0
H24 H 0.94554 0.34029 0.11429 0.0
O25 O 0.04922 0.32551 1.00364 0.0
O26 O 0.06019 0.32764 0.05908 0.0
O27 O 0.86895 0.36198 1.00491 0.0
O28 O 0.8831 0.36464 0.06003 0.0
C29 C 0.06559 0.31439 0.03221 0.0
H30 H 0.15461 0.40656 0.16941 0.0
H31 H 0.9406 0.34368 0.17625 0.0
H32 H 0.86482 0.33026 0.89277 0.0
H33 H 0.07605 0.39249 0.87409 0.0
C34 C 0.94279 0.57495 0.04002 0.0
N35 N 0.94185 0.62764 0.11909 0.0
C36 C 0.8921 0.61003 0.13896 0.0
C37 C 0.91021 0.60877 0.17387 0.0
C38 C -0.01896 0.62555 0.18815 0.0
C39 C 0.02991 0.64375 0.16714 0.0
C40 C 0.00865 0.64458 0.13257 0.0
Zn41 Zn 0.92587 0.62812 0.06772 0.0
C42 C 0.12142 0.63374 0.03407 0.0
N43 N 0.90264 0.62959 0.95957 0.0
C44 C 0.85651 0.61048 0.94179 0.0
C45 C 0.95728 0.64844 0.94352 0.0
C46 C -0.02835 0.64781 0.90858 0.0
C47 C 0.92881 0.62771 0.88976 0.0
C48 C 0.86815 0.60927 0.90657 0.0
Zn49 Zn 0.90925 0.62864 1.01159 0.0
O50 O 0.94204 0.58763 0.06733 0.0
C51 C 0.71413 0.62293 0.04508 0.0
O52 O 0.93172 0.58717 1.01184 0.0
H53 H -0.00639 0.66343 0.95804 0.0
H54 H 0.83968 0.59667 0.12765 0.0
H55 H 0.81407 0.59556 0.95506 0.0
O56 O 0.76912 0.62423 0.07139 0.0
O57 O 0.75397 0.62342 1.01585 0.0
H58 H 0.04689 0.65855 0.11639 0.0
O59 O 0.88281 0.66988 1.01316 0.0
O60 O 0.90741 0.66869 0.06818 0.0
O61 O 0.06585 0.6339 1.00797 0.0
O62 O 0.08182 0.63174 0.0631 0.0
C63 C 0.88466 0.68149 0.04142 0.0
H64 H 0.87116 0.59445 0.18939 0.0
H65 H 0.08381 0.65729 0.17737 0.0
H66 H 0.01775 0.6626 0.89648 0.0
H67 H 0.83403 0.59343 0.8929 0.0
C68 C 0.00534 0.57484 0.53451 0.0
N69 N 0.04029 0.63197 0.45926 0.0
C70 C 0.09223 0.61403 0.44136 0.0
C71 C 0.0815 0.61307 0.40614 0.0
C72 C 0.01602 0.63056 0.38952 0.0
C73 C 0.96746 0.64963 0.40844 0.0
C74 C -0.01905 0.65004 0.44341 0.0
Zn75 Zn 0.03304 0.62978 0.51082 0.0
C76 C 0.82322 0.63318 0.53323 0.0
N77 N 0.00562 0.62485 0.61878 0.0
C78 C 0.05626 0.60711 0.63846 0.0
C79 C 0.93867 0.64156 0.63261 0.0
C80 C 0.91796 0.6403 0.66719 0.0
C81 C 0.96803 0.62203 0.68802 0.0
C82 C 0.03918 0.60554 0.67345 0.0
Zn83 Zn 0.02155 0.62655 0.56701 0.0
O84 O 0.01877 0.58939 0.50859 0.0
C85 C 0.23093 0.62306 0.54449 0.0
O86 O 0.00195 0.58505 0.5637 0.0
H87 H 0.90004 0.65575 0.6167 0.0
H88 H 0.1385 0.59976 0.45453 0.0
H89 H 0.10895 0.59396 0.62698 0.0
O90 O 0.18981 0.6262 0.51553 0.0
O91 O 0.17703 0.62166 0.57091 0.0
H92 H 0.94025 0.66412 0.45806 0.0
O93 O 0.04564 0.66811 0.56881 0.0
O94 O 0.04861 0.67003 0.51321 0.0
O95 O 0.86475 0.63128 0.56213 0.0
O96 O 0.87695 0.63328 0.50691 0.0
C97 C 0.05604 0.68134 0.5414 0.0
H98 H 0.12009 0.59806 0.3923 0.0
H99 H 0.91758 0.6637 0.39639 0.0
H100 H 0.86365 0.65359 0.67762 0.0
H101 H 0.07925 0.59121 0.68882 0.0
C102 C 0.86385 0.315 0.51848 0.0
N103 N 0.91539 0.37528 0.44701 0.0
C104 C -0.02025 0.35949 0.4303 0.0
C105 C -0.01079 0.36145 0.3951 0.0
C106 C 0.93088 0.37959 0.37667 0.0
C107 C 0.86498 0.39567 0.39448 0.0
C108 C 0.85883 0.3933 0.42984 0.0
Zn109 Zn 0.90426 0.37056 0.49889 0.0
C110 C 0.6936 0.37354 0.5229 0.0
N111 N 0.8859 0.35934 0.60672 0.0
C112 C 0.94497 0.3403 0.62067 0.0
C113 C 0.83616 0.37646 0.62656 0.0
C114 C 0.84879 0.37554 0.66182 0.0
C115 C 0.91414 0.35706 0.6766 0.0
C116 C 0.96054 0.33889 0.65564 0.0
Zn117 Zn 0.89027 0.36452 0.55499 0.0
O118 O 0.88257 0.32972 0.49297 0.0
C119 C 0.10126 0.36158 0.53107 0.0
O120 O 0.86684 0.32439 0.54804 0.0
H121 H 0.79021 0.39157 0.61497 0.0
H122 H 0.02328 0.34506 0.44425 0.0
H123 H -0.01611 0.32687 0.60452 0.0
O124 O 0.0606 0.36593 0.5024 0.0
O125 O 0.04681 0.35942 0.55718 0.0
H126 H 0.80827 0.40572 0.44353 0.0
O127 O 0.91056 0.4049 0.56107 0.0
O128 O 0.92275 0.4113 0.50604 0.0
O129 O 0.73429 0.36968 0.55179 0.0
O130 O 0.7478 0.37527 0.49657 0.0
C131 C 0.92251 0.42037 0.53588 0.0
H132 H 0.03983 0.34842 0.38234 0.0
H133 H 0.81897 0.41 0.38122 0.0
H134 H 0.81195 0.38997 0.67715 0.0
H135 H 0.01047 0.32413 0.66612 0.0
C136 C 0.52478 0.92142 0.0449 0.0
N137 N 0.53083 0.86552 0.12418 0.0
C138 C 0.58237 0.88321 0.1427 0.0
C139 C 0.56744 0.88488 0.17764 0.0
C140 C 0.49788 0.86841 0.19391 0.0
C141 C 0.44754 0.84989 0.17423 0.0
C142 C 0.46539 0.84874 0.13935 0.0
Zn143 Zn 0.54382 0.8667 0.07207 0.0
C144 C 0.34579 0.8631 0.03824 0.0
N145 N 0.56303 0.87087 0.96357 0.0
C146 C 0.62182 0.8885 0.94687 0.0
C147 C 0.50365 0.85411 0.9463 0.0
C148 C 0.49971 0.85509 0.91099 0.0
C149 C 0.55817 0.87332 0.89307 0.0
C150 C 0.621 0.88995 0.91137 0.0
Zn151 Zn 0.55552 0.86941 1.01554 0.0
O152 O 0.52227 0.90786 0.07222 0.0
C153 C 0.75333 0.87301 0.04938 0.0
O154 O 0.53954 0.91016 1.01695 0.0
H155 H 0.45802 0.84009 0.95994 0.0
H156 H 0.63369 0.8965 0.13023 0.0
H157 H 0.66828 0.9017 0.96107 0.0
O158 O 0.69934 0.87162 0.07576 0.0
O159 O 0.71236 0.87278 0.02021 0.0
H160 H 0.42472 0.83489 0.12423 0.0
O161 O 0.57256 0.82882 1.01476 0.0
O162 O 0.56934 0.82546 0.07038 0.0
O163 O 0.39942 0.86598 1.01205 0.0
O164 O 0.38722 0.86191 0.06726 0.0
C165 C 0.58042 0.81494 0.04161 0.0
H166 H 0.60966 0.89913 0.19167 0.0
H167 H 0.39244 0.83694 0.18539 0.0
H168 H 0.45146 0.84165 0.89781 0.0
H169 H 0.667 0.90433 0.89844 0.0
C170 C 0.43084 0.07405 1.01505 0.0
N171 N 0.38815 0.12598 0.09483 0.0
C172 C 0.35473 0.10447 0.11217 0.0
C173 C 0.36893 0.10222 0.14726 0.0
C174 C 0.41598 0.12252 0.16446 0.0
C175 C 0.44546 0.14494 0.14636 0.0
C176 C 0.43168 0.14618 0.11131 0.0
Zn177 Zn 0.39261 0.12675 0.04284 0.0
C178 C 0.60304 0.13374 0.01988 0.0
N179 N 0.4184 0.12833 0.93483 0.0
C180 C 0.36907 0.11038 0.91606 0.0
C181 C 0.48226 0.14574 0.92009 0.0
C182 C 0.50094 0.14501 0.88536 0.0
C183 C 0.45276 0.12634 0.86548 0.0
C184 C 0.38483 0.10913 0.88113 0.0
Zn185 Zn 0.40575 0.12772 0.98653 0.0
O186 O 0.41887 0.08593 0.04272 0.0
C187 C 0.19558 0.12071 1.00974 0.0
O188 O 0.4276 0.08693 0.98725 0.0
H189 H 0.52049 0.1599 0.93543 0.0
H190 H 0.32064 0.08859 0.09867 0.0
H191 H 0.31919 0.0966 0.92831 0.0
O192 O 0.23676 0.12084 0.03889 0.0
O193 O 0.24938 0.12267 0.98332 0.0
H194 H 0.45987 0.16283 0.09713 0.0
O195 O 0.3811 0.16864 0.9863 0.0
O196 O 0.3635 0.16735 0.04157 0.0
O197 O 0.56217 0.13253 0.99087 0.0
O198 O 0.54869 0.1328 0.04613 0.0
C199 C 0.36024 0.18014 1.01368 0.0
H200 H 0.34547 0.08465 0.16069 0.0
H201 H 0.4827 0.16083 0.159 0.0
H202 H 0.5528 0.15886 0.87417 0.0
H203 H 0.34661 0.09436 0.8667 0.0
C204 C 0.50582 0.07368 0.51137 0.0
N205 N 0.54518 0.13074 0.4338 0.0
C206 C 0.56942 0.10975 0.4148 0.0
C207 C 0.55069 0.11006 0.37986 0.0
C208 C 0.50829 0.13239 0.36411 0.0
C209 C 0.49086 0.15434 0.38412 0.0
C210 C 0.50806 0.15294 0.41895 0.0
Zn211 Zn 0.54147 0.12819 0.48596 0.0
C212 C 0.33062 0.13329 0.50895 0.0
N213 N 0.51387 0.12402 0.59398 0.0
C214 C 0.56583 0.10647 0.61354 0.0
C215 C 0.44768 0.14082 0.608 0.0
C216 C 0.42948 0.13995 0.64273 0.0
C217 C 0.48087 0.12189 0.66347 0.0
C218 C 0.55093 0.10521 0.64865 0.0
Zn219 Zn 0.52766 0.12565 0.54226 0.0
O220 O 0.51518 0.08715 0.48417 0.0
C221 C 0.73819 0.1205 0.5189 0.0
O222 O 0.50993 0.08499 0.53973 0.0
H223 H 0.40792 0.15484 0.59216 0.0
H224 H 0.5987 0.09221 0.42689 0.0
H225 H 0.61796 0.09326 0.60188 0.0
O226 O 0.69706 0.12191 0.48974 0.0
O227 O 0.68438 0.12122 0.54539 0.0
H228 H 0.487 0.16932 0.43423 0.0
O229 O 0.54799 0.16639 0.54455 0.0
O230 O 0.57123 0.16885 0.48965 0.0
O231 O 0.37121 0.12983 0.53779 0.0
O232 O 0.38532 0.13459 0.48281 0.0
C233 C 0.57064 0.17977 0.51829 0.0
H234 H 0.56503 0.09251 0.36579 0.0
H235 H 0.4612 0.17233 0.37327 0.0
H236 H 0.37599 0.1534 0.65332 0.0
H237 H 0.59186 0.09099 0.66391 0.0
C238 C 0.35909 0.81433 0.55083 0.0
N239 N 0.38118 0.86373 0.46444 0.0
C240 C 0.43183 0.84336 0.45098 0.0
C241 C 0.43832 0.84066 0.41594 0.0
C242 C 0.3924 0.85909 0.39413 0.0
C243 C 0.33952 0.87984 0.40865 0.0
C244 C 0.33473 0.88178 0.44404 0.0
Zn245 Zn 0.38682 0.86684 0.51652 0.0
C246 C 0.19106 0.87324 0.5488 0.0
N247 N 0.41365 0.8699 0.62474 0.0
C248 C 0.47835 0.8538 0.64175 0.0
C249 C 0.3575 0.88766 0.64147 0.0
C250 C 0.36472 0.88955 0.67669 0.0
C251 C 0.43125 0.87325 0.69483 0.0
C252 C 0.48882 0.85526 0.6769 0.0
Zn253 Zn 0.40247 0.86752 0.57298 0.0
O254 O 0.35988 0.82613 0.52216 0.0
C255 C 0.59847 0.8611 0.54052 0.0
O256 O 0.38162 0.82678 0.57731 0.0
H257 H 0.30706 0.90041 0.62748 0.0
H258 H 0.46942 0.82937 0.46747 0.0
H259 H 0.5219 0.83971 0.62804 0.0
O260 O 0.54317 0.86119 0.51431 0.0
O261 O 0.55877 0.86315 0.5695 0.0
H262 H 0.29516 0.89791 0.45518 0.0
O263 O 0.42044 0.90814 0.56823 0.0
O264 O 0.41006 0.90796 0.51265 0.0
O265 O 0.24588 0.87203 0.5752 0.0
O266 O 0.23104 0.87241 0.51963 0.0
C267 C 0.4216 0.92047 0.53998 0.0
H268 H 0.48145 0.82461 0.40608 0.0
H269 H 0.30223 0.89441 0.39287 0.0
H270 H 0.31951 0.9038 0.68957 0.0
H271 H 0.54007 0.84213 0.69001 0.0
H272 H 0.37257 0.36798 0.07163 0.0
H273 H 0.34534 0.37577 0.96281 0.0
H274 H 0.52618 0.37229 0.95722 0.0
H275 H 0.69165 0.36679 0.98312 0.0
H276 H 0.71884 0.35909 0.09195 0.0
H277 H 0.53796 0.36247 0.09753 0.0
C278 C 0.40615 0.36912 0.04669 0.0
C279 C 0.34549 0.37222 1.0177 0.0
C280 C 0.51001 0.36684 0.0436 0.0
C281 C 0.39028 0.37345 0.98556 0.0
C282 C 0.49367 0.37137 0.98231 0.0
C283 C 0.65802 0.36564 1.00806 0.0
C284 C 0.71866 0.36262 0.03706 0.0
C285 C 0.55415 0.3679 1.01114 0.0
C286 C 0.67388 0.36138 0.06919 0.0
C287 C 0.57048 0.3634 0.07244 0.0
H288 H 0.25899 0.62648 0.08403 0.0
H289 H 0.23005 0.64045 0.97616 0.0
H290 H 0.41088 0.63731 0.96993 0.0
H291 H 0.57669 0.63025 0.99502 0.0
H292 H 0.60536 0.61636 0.10291 0.0
H293 H 0.42461 0.61951 0.1091 0.0
C294 C 0.29219 0.62903 0.05917 0.0
C295 C 0.23112 0.63375 0.03062 0.0
C296 C 0.39595 0.62693 0.05571 0.0
C297 C 0.27538 0.63685 0.99857 0.0
C298 C 0.37873 0.63496 0.99496 0.0
C299 C 0.54341 0.62769 0.01986 0.0
C300 C 0.6044 0.62296 0.04843 0.0
C301 C 0.43961 0.62983 0.02331 0.0
C302 C 0.56009 0.61995 0.08048 0.0
C303 C 0.45678 0.62184 0.08408 0.0
H304 H 0.68784 0.62408 0.583 0.0
H305 H 0.71237 0.64232 0.47607 0.0
H306 H 0.53131 0.63996 0.46996 0.0
H307 H 0.3665 0.63237 0.49481 0.0
H308 H 0.34194 0.61391 0.60169 0.0
H309 H 0.52293 0.61642 0.60784 0.0
C310 C 0.65356 0.62772 0.5584 0.0
C311 C 0.71344 0.63343 0.53007 0.0
C312 C 0.54959 0.62604 0.55496 0.0
C313 C 0.66792 0.63791 0.49832 0.0
C314 C 0.56443 0.63649 0.49476 0.0
C315 C 0.40069 0.62871 0.51942 0.0
C316 C 0.34077 0.62289 0.5477 0.0
C317 C 0.50465 0.6304 0.52286 0.0
C318 C 0.38633 0.61838 0.57946 0.0
C319 C 0.4898 0.6199 0.58304 0.0
H320 H 0.55708 0.36085 0.57108 0.0
H321 H 0.5838 0.38642 0.46661 0.0
H322 H 0.40307 0.38389 0.45958 0.0
H323 H 0.23784 0.37417 0.4829 0.0
H324 H 0.21098 0.34863 0.58738 0.0
H325 H 0.39177 0.3511 0.59441 0.0
C326 C 0.52336 0.36609 0.54685 0.0
C327 C 0.58382 0.37391 0.51947 0.0
C328 C 0.41955 0.36432 0.54284 0.0
C329 C 0.53895 0.38039 0.48814 0.0
C330 C 0.43564 0.37886 0.48404 0.0
C331 C 0.27153 0.36894 0.50714 0.0
C332 C 0.21104 0.36116 0.53452 0.0
C333 C 0.37533 0.37069 0.51115 0.0
C334 C 0.25587 0.35464 0.56585 0.0
C335 C 0.35921 0.35614 0.56995 0.0
H336 H 0.8897 0.86804 0.99921 0.0
H337 H 0.86343 0.87699 0.10741 0.0
H338 H 0.04423 0.87356 0.11367 0.0
H339 H 0.2096 0.8678 0.08852 0.0
H340 H 0.23577 0.85906 0.98029 0.0
H341 H 0.05491 0.86232 0.97407 0.0
C342 C 0.92351 0.86944 0.02414 0.0
C343 C 0.86315 0.87284 0.05276 0.0
C344 C 0.02738 0.86721 0.02763 0.0
C345 C 0.90818 0.87442 0.08492 0.0
C346 C 0.01155 0.87237 0.08856 0.0
C347 C 0.17569 0.86638 0.06361 0.0
C348 C 0.23601 0.86312 0.03495 0.0
C349 C 0.07179 0.8686 0.06012 0.0
C350 C 0.19098 0.86155 1.00279 0.0
C351 C 0.0876 0.8635 0.99918 0.0
H352 H 0.05945 0.12851 0.05942 0.0
H353 H 0.08481 0.11403 0.95236 0.0
H354 H 0.90418 0.11805 0.94581 0.0
H355 H 0.73935 0.126 0.9703 0.0
H356 H 0.71372 0.14049 0.07736 0.0
H357 H 0.89442 0.13651 0.08393 0.0
C358 C 0.02542 0.12596 0.03471 0.0
C359 C 0.08558 0.12084 1.00647 0.0
C360 C 0.92162 0.12865 0.03101 0.0
C361 C 0.04027 0.11791 0.97456 0.0
C362 C 0.937 0.12031 0.97074 0.0
C363 C 0.77329 0.12853 0.99503 0.0
C364 C 0.71305 0.13364 0.02325 0.0
C365 C 0.87706 0.12587 0.99874 0.0
C366 C 0.75831 0.13662 0.05517 0.0
C367 C 0.86163 0.13423 0.059 0.0
H368 H 0.19447 0.12316 0.55821 0.0
H369 H 0.21986 0.14293 0.45173 0.0
H370 H 0.03906 0.13956 0.44514 0.0
H371 H 0.87408 0.13062 0.46947 0.0
H372 H 0.84907 0.11096 0.57598 0.0
H373 H 0.02979 0.11432 0.58252 0.0
C374 C 0.1605 0.12695 0.53359 0.0
C375 C 0.22066 0.13338 0.50554 0.0
C376 C 0.05671 0.12467 0.52987 0.0
C377 C 0.17532 0.13803 0.47378 0.0
C378 C 0.07196 0.13598 0.46994 0.0
C379 C 0.9082 0.12681 0.49405 0.0
C380 C 0.84815 0.12041 0.52214 0.0
C381 C 0.01204 0.12912 0.49776 0.0
C382 C 0.89355 0.11585 0.5539 0.0
C383 C -0.00313 0.11787 0.55771 0.0
H384 H 0.73692 0.87015 0.58936 0.0
H385 H 0.7062 0.85238 0.48328 0.0
H386 H 0.88663 0.8557 0.47616 0.0
H387 H 0.05282 0.86406 0.49989 0.0
H388 H 0.08329 0.88179 0.60598 0.0
H389 H 0.90295 0.87841 0.61309 0.0
C390 C 0.7697 0.86678 0.56474 0.0
C391 C 0.70818 0.86095 0.53694 0.0
C392 C 0.8733 0.86903 0.5607 0.0
C393 C 0.75187 0.85685 0.50514 0.0
C394 C 0.85501 0.85885 0.50099 0.0
C395 C 0.01994 0.86744 0.52449 0.0
C396 C 0.08137 0.8733 0.55231 0.0
C397 C 0.91633 0.86514 0.52853 0.0
C398 C 0.03766 0.87732 0.58412 0.0
C399 C 0.93457 0.87529 0.58826 0.0
H400 H 0.94476 0.5408 0.98758 0.0
H401 H -0.02831 0.54463 0.09653 0.0
H402 H -0.00588 0.49755 0.10038 0.0
H403 H 0.00592 0.45524 0.07328 0.0
H404 H -0.02112 0.45067 0.96449 0.0
H405 H 0.95674 0.498 0.96024 0.0
C406 C 0.9556 0.53132 1.01213 0.0
C407 C 0.95653 0.54629 0.04165 0.0
C408 C -0.03157 0.50408 1.01429 0.0
C409 C -0.02941 0.53366 0.07332 0.0
C410 C -0.01654 0.50668 0.07562 0.0
C411 C -0.00479 0.46455 0.04861 0.0
C412 C -0.00595 0.44942 0.01929 0.0
C413 C -0.01753 0.49171 0.04632 0.0
C414 C -0.01995 0.46186 0.98752 0.0
C415 C 0.96739 0.48894 0.98504 0.0
H416 H 0.95684 0.45834 0.48846 0.0
H417 H 0.91926 0.44585 0.59614 0.0
H418 H 0.94217 0.49245 0.60552 0.0
H419 H -0.0276 0.53698 0.58304 0.0
H420 H 0.01023 0.5488 0.47516 0.0
H421 H -0.01216 0.50237 0.46618 0.0
C422 C 0.9536 0.46578 0.51399 0.0
C423 C 0.93629 0.44862 0.54148 0.0
C424 C 0.96696 0.49256 0.51926 0.0
C425 C 0.93251 0.45863 0.57444 0.0
C426 C 0.94559 0.4853 0.57988 0.0
C427 C -0.02415 0.52937 0.55761 0.0
C428 C -0.00713 0.54642 0.52991 0.0
C429 C 0.96285 0.50248 0.55246 0.0
C430 C -0.00284 0.5362 0.49705 0.0
C431 C -0.01567 0.50959 0.49179 0.0
H432 H 0.51537 0.9548 0.99083 0.0
H433 H 0.4968 0.95215 0.10007 0.0
H434 H 0.46603 -0.0008 0.10046 0.0
H435 H 0.44314 0.04097 0.06972 0.0
H436 H 0.4609 0.04322 0.96042 0.0
H437 H 0.49308 0.99634 0.96023 0.0
C438 C 0.50486 0.96448 1.01478 0.0
C439 C 0.5084 0.94997 0.04536 0.0
C440 C 0.48678 0.99144 1.01482 0.0
C441 C 0.49441 0.96285 0.07614 0.0
C442 C 0.47674 0.98975 0.0764 0.0
C443 C 0.454 0.03121 0.04585 0.0
C444 C 0.44953 0.0456 1.01514 0.0
C445 C 0.47249 0.00422 0.04588 0.0
C446 C 0.46384 0.03264 0.98444 0.0
C447 C 0.48234 0.00582 0.98428 0.0
H448 H 0.48731 0.04029 0.56489 0.0
H449 H 0.48879 0.04286 0.45549 0.0
H450 H 0.46209 0.9956 0.45444 0.0
H451 H 0.43855 0.95345 0.4849 0.0
H452 H 0.43844 0.95189 0.59444 0.0
H453 H 0.46427 -0.00116 0.59497 0.0
C454 C 0.4818 0.03058 0.54075 0.0
C455 C 0.49 0.04511 0.51034 0.0
C456 C 0.46663 0.00353 0.54033 0.0
C457 C 0.48276 0.03214 0.47931 0.0
C458 C 0.46745 0.00511 0.47869 0.0
C459 C 0.44408 0.96341 0.50885 0.0
C460 C 0.43658 0.9491 0.53954 0.0
C461 C 0.45927 0.99059 0.50908 0.0
C462 C 0.44405 0.96233 0.57038 0.0
C463 C 0.45882 0.98923 0.57078 0.0
H464 H 0.15529 0.28865 0.98136 0.0
H465 H 0.0755 0.28088 0.0869 0.0
H466 H 0.1656 0.23933 0.091 0.0
H467 H 0.26901 0.20569 0.06479 0.0
H468 H 0.3511 0.21405 0.95944 0.0
H469 H 0.25997 0.25534 0.95537 0.0
C470 C 0.15614 0.27767 1.00514 0.0
C471 C 0.10765 0.28768 0.03369 0.0
C472 C 0.21033 0.25423 1.00755 0.0
C473 C 0.11142 0.27347 0.06449 0.0
C474 C 0.16359 0.24984 0.06691 0.0
C475 C 0.2682 0.21669 0.04103 0.0
C476 C 0.31736 0.20681 1.0125 0.0
C477 C 0.21428 0.2402 0.0387 0.0
C478 C 0.31446 0.22124 0.98185 0.0
C479 C 0.26168 0.24475 0.97941 0.0
H480 H 0.70294 0.78913 0.08558 0.0
H481 H 0.54963 0.78151 0.98996 0.0
H482 H 0.63665 0.74037 0.98001 0.0
H483 H 0.75918 0.70708 0.99792 0.0
H484 H 0.91446 0.71506 0.09321 0.0
H485 H 0.826 0.75589 0.10341 0.0
C486 C 0.68705 0.77814 0.06295 0.0
C487 C 0.6189 0.78807 0.03879 0.0
C488 C 0.7398 0.75496 0.05688 0.0
C489 C 0.601 0.77404 1.0091 0.0
C490 C 0.65146 0.75068 1.00324 0.0
C491 C 0.77505 0.71801 0.0206 0.0
C492 C 0.84408 0.70819 0.04458 0.0
C493 C 0.72222 0.74117 0.02669 0.0
C494 C 0.86224 0.72232 0.0742 0.0
C495 C 0.81101 0.74554 0.08022 0.0
H496 H 0.17081 0.70466 0.58921 0.0
H497 H 0.02725 0.71829 0.49236 0.0
H498 H 0.1138 0.75994 0.48591 0.0
H499 H 0.23532 0.79143 0.5063 0.0
H500 H 0.37884 0.77888 0.60334 0.0
H501 H 0.28906 0.73751 0.61087 0.0
C502 C 0.1568 0.71708 0.56712 0.0
C503 C 0.09225 0.70853 0.5414 0.0
C504 C 0.20889 0.74078 0.56316 0.0
C505 C 0.07624 0.72454 0.51256 0.0
C506 C 0.12638 0.74823 0.5087 0.0
C507 C 0.2482 0.77949 0.52891 0.0
C508 C 0.31498 0.78796 0.55395 0.0
C509 C 0.19444 0.75624 0.53346 0.0
C510 C 0.32875 0.77258 0.58349 0.0
C511 C 0.2768 0.74906 0.58793 0.0
H512 H 0.75653 0.28637 0.56347 0.0
H513 H 0.87352 0.28501 0.4618 0.0
H514 H 0.78683 0.24376 0.45186 0.0
H515 H 0.67675 0.20833 0.4721 0.0
H516 H 0.55828 0.21062 0.5736 0.0
H517 H 0.64486 0.25171 0.58321 0.0
C518 C 0.7644 0.27689 0.53926 0.0
C519 C 0.82249 0.28857 0.51355 0.0
C520 C 0.71237 0.25366 0.53346 0.0
C521 C 0.83005 0.27628 0.48212 0.0
C522 C 0.77988 0.25282 0.47634 0.0
C523 C 0.66859 0.21803 0.49614 0.0
C524 C 0.6107 0.20646 0.52204 0.0
C525 C 0.72003 0.24147 0.50173 0.0
C526 C 0.60201 0.21913 0.55319 0.0
C527 C 0.6521 0.24254 0.55881 0.0
H528 H 0.88119 0.37825 0.21722 0.0
H529 H 0.20263 0.3789 0.2225 0.0
H530 H 0.19555 0.38085 0.28441 0.0
H531 H 0.09753 0.38082 0.33723 0.0
H532 H 0.776 0.38109 0.33159 0.0
H533 H 0.78341 0.38047 0.26972 0.0
C534 C 0.94965 0.3788 0.23197 0.0
C535 C 0.04233 0.37821 0.21534 0.0
C536 C 0.94491 0.38009 0.26749 0.0
C537 C 0.13042 0.37941 0.23471 0.0
C538 C 0.12637 0.38041 0.2701 0.0
C539 C 0.02917 0.38076 0.32241 0.0
C540 C 0.93632 0.38089 0.33901 0.0
C541 C 0.03403 0.38052 0.28679 0.0
C542 C 0.84835 0.38119 0.31946 0.0
C543 C 0.85255 0.38069 0.28408 0.0
H544 H 0.84975 0.6254 0.24007 0.0
H545 H 0.16445 0.62331 0.21803 0.0
H546 H 0.20371 0.62362 0.27864 0.0
H547 H 0.14818 0.62611 0.3379 0.0
H548 H 0.83333 0.62973 0.35953 0.0
H549 H 0.79427 0.62717 0.29917 0.0
C550 C 0.92678 0.62472 0.24864 0.0
C551 C 0.0041 0.62433 0.22481 0.0
C552 C 0.9487 0.62535 0.2834 0.0
C553 C 0.10377 0.62381 0.23606 0.0
C554 C 0.12621 0.62394 0.27064 0.0
C555 C 0.07116 0.62612 0.32931 0.0
C556 C -0.00622 0.62824 0.35296 0.0
C557 C 0.04929 0.62497 0.29454 0.0
C558 C 0.89415 0.62845 0.34163 0.0
C559 C 0.87175 0.62688 0.30719 0.0
H560 H 0.79917 0.62015 0.83738 0.0
H561 H 0.1116 0.63014 0.86028 0.0
H562 H 0.15228 0.62778 0.80014 0.0
H563 H 0.09861 0.62434 0.74065 0.0
H564 H 0.78573 0.61655 0.71731 0.0
H565 H 0.74556 0.61632 0.77777 0.0
C566 C 0.8761 0.62159 0.82913 0.0
C567 C 0.95217 0.62542 0.85318 0.0
C568 C 0.89886 0.62061 0.7944 0.0
C569 C 0.05158 0.62749 0.84218 0.0
C570 C 0.07498 0.62604 0.80782 0.0
C571 C 0.02187 0.62232 0.74893 0.0
C572 C 0.94523 0.62041 0.72471 0.0
C573 C -0.00078 0.62281 0.78367 0.0
C574 C 0.84584 0.61816 0.7356 0.0
C575 C 0.8229 0.61802 0.77012 0.0
H576 H 0.78654 0.35997 0.73005 0.0
H577 H 0.09911 0.35585 0.70516 0.0
H578 H 0.14346 0.35739 0.7652 0.0
H579 H 0.09356 0.35972 0.825 0.0
H580 H 0.78108 0.36228 0.85023 0.0
H581 H 0.73647 0.36158 0.79007 0.0
C582 C 0.86425 0.3595 0.73786 0.0
C583 C 0.93938 0.35773 0.71325 0.0
C584 C 0.88925 0.3601 0.77251 0.0
C585 C 0.03986 0.3569 0.72368 0.0
C586 C 0.06533 0.3579 0.75798 0.0
C587 C 0.01581 0.36027 0.81724 0.0
C588 C 0.94076 0.3611 0.84195 0.0
C589 C -0.00929 0.35948 0.78264 0.0
C590 C 0.84017 0.36146 0.83163 0.0
C591 C 0.81463 0.36113 0.79726 0.0
H592 H 0.45698 0.82963 0.24066 0.0
H593 H 0.48882 0.91334 0.23062 0.0
H594 H 0.45721 0.91791 0.29098 0.0
H595 H 0.42381 0.89817 0.34713 0.0
H596 H 0.38471 0.81469 0.35661 0.0
H597 H 0.41444 0.81017 0.29607 0.0
C598 C 0.45583 0.84894 0.25148 0.0
C599 C 0.47635 0.87105 0.23087 0.0
C600 C 0.43615 0.85153 0.28628 0.0
C601 C 0.47565 0.89585 0.24577 0.0
C602 C 0.45664 0.89854 0.28035 0.0
C603 C 0.42025 0.87902 0.33591 0.0
C604 C 0.40265 0.85681 0.35663 0.0
C605 C 0.43722 0.87652 0.30091 0.0
C606 C 0.3997 0.83212 0.34152 0.0
C607 C 0.41634 0.8295 0.3068 0.0
H608 H 0.32565 0.14654 0.21635 0.0
H609 H 0.56281 0.09308 0.19308 0.0
H610 H 0.61449 0.09155 0.25282 0.0
H611 H 0.59557 0.10694 0.31107 0.0
H612 H 0.34791 0.15758 0.33474 0.0
H613 H 0.29859 0.15913 0.2755 0.0
C614 C 0.38791 0.13439 0.22462 0.0
C615 C 0.4405 0.11989 0.20078 0.0
C616 C 0.41626 0.13343 0.25893 0.0
C617 C 0.5212 0.10422 0.21135 0.0
C618 C 0.55088 0.10347 0.24537 0.0
C619 C 0.52996 0.11804 0.30352 0.0
C620 C 0.47723 0.13252 0.32766 0.0
C621 C 0.49939 0.11818 0.26937 0.0
C622 C 0.3927 0.14693 0.31689 0.0
C623 C 0.36329 0.1476 0.28292 0.0
H624 H 0.32018 0.12174 0.8136 0.0
H625 H 0.63526 0.12703 0.83514 0.0
H626 H 0.67248 0.12484 0.77466 0.0
H627 H 0.615 0.12252 0.71535 0.0
H628 H 0.29964 0.11867 0.69391 0.0
H629 H 0.26291 0.11893 0.75453 0.0
C630 C 0.39697 0.12219 0.80503 0.0
C631 C 0.47478 0.12459 0.82876 0.0
C632 C 0.41774 0.12117 0.77022 0.0
C633 C 0.57395 0.12548 0.81729 0.0
C634 C 0.59533 0.1241 0.78275 0.0
C635 C 0.53843 0.12146 0.72407 0.0
C636 C 0.46013 0.12057 0.70032 0.0
C637 C 0.51781 0.12208 0.75895 0.0
C638 C 0.36106 0.11955 0.71181 0.0
C639 C 0.34004 0.11966 0.74642 0.0
H640 H 0.60021 0.87485 0.7334 0.0
H641 H 0.27903 0.87453 0.74026 0.0
H642 H 0.29008 0.87516 0.80207 0.0
H643 H 0.39084 0.87468 0.8542 0.0
H644 H 0.71195 0.8757 0.84779 0.0
H645 H 0.70136 0.87609 0.78579 0.0
C646 C 0.53277 0.87487 0.74849 0.0
C647 C 0.43893 0.87454 0.73231 0.0
C648 C 0.53972 0.87538 0.78405 0.0
C649 C 0.35207 0.87496 0.75212 0.0
C650 C 0.35835 0.8752 0.78745 0.0
C651 C 0.45847 0.87493 0.83919 0.0
C652 C 0.55205 0.87495 0.8555 0.0
C653 C 0.45171 0.87524 0.80367 0.0
C654 C 0.63908 0.87578 0.83579 0.0
C655 C 0.63302 0.87587 0.80037 0.0
loop_
_geom_bond_atom_site_label_1
_geom_bond_atom_site_label_2
_geom_bond_distance
_geom_bond_site_symmetry_2
_ccdc_geom_bond_type
C0 O16 1.251 . S
C0 O18 1.254 1_554 S
N1 C2 1.333 . S
N1 C6 1.307 . S
N1 Zn7 2.020 . S
C2 N1 1.333 . S
C2 C3 1.379 . S
C2 H20 0.952 . S
C3 C2 1.379 . S
C3 C4 1.390 . S
C3 H30 0.949 . S
C4 C3 1.390 . S
C4 C5 1.357 . S
C5 C4 1.357 . S
C5 C6 1.370 . S
C5 H31 0.950 . S
C6 N1 1.307 . S
C6 C5 1.370 . S
C6 H24 0.948 . S
Zn7 N1 2.020 . S
Zn7 O16 2.039 . S
Zn7 O22 2.034 . S
Zn7 O26 2.025 . S
Zn7 O28 2.024 1_455 S
C8 O27 1.246 1_554 S
C8 O28 1.249 . S
N9 C10 1.307 . S
N9 C11 1.333 . S
N9 Zn15 2.020 . S
C10 N9 1.307 . S
C10 C14 1.370 . S
C10 H21 0.948 . S
C11 N9 1.333 . S
C11 C12 1.379 . S
C11 H19 0.952 . S
C12 C11 1.379 . S
C12 C13 1.390 . S
C12 H32 0.949 . S
C13 C12 1.390 . S
C13 C14 1.357 . S
C14 C10 1.370 . S
C14 C13 1.357 . S
C14 H33 0.950 . S
Zn15 N9 2.020 . S
Zn15 O18 2.025 . S
Zn15 O23 2.024 . S
Zn15 O25 2.039 . S
Zn15 O27 2.034 1_455 S
O16 C0 1.251 . S
O16 Zn7 2.039 . S
C17 O22 1.246 . S
C17 O23 1.249 1_554 S
O18 C0 1.254 1_556 S
O18 Zn15 2.025 . S
H19 C11 0.952 . S
H20 C2 0.952 . S
H21 C10 0.948 . S
O22 Zn7 2.034 . S
O22 C17 1.246 . S
O23 Zn15 2.024 . S
O23 C17 1.249 1_556 S
H24 C6 0.948 . S
O25 Zn15 2.039 . S
O25 C29 1.251 1_556 S
O26 Zn7 2.025 . S
O26 C29 1.254 . S
O27 C8 1.246 1_556 S
O27 Zn15 2.034 1_655 S
O28 Zn7 2.024 1_655 S
O28 C8 1.249 . S
C29 O25 1.251 1_554 S
C29 O26 1.254 . S
H30 C3 0.949 . S
H31 C5 0.950 . S
H32 C12 0.949 . S
H33 C14 0.950 . S
C34 O50 1.251 . S
C34 O52 1.254 1_554 S
N35 C36 1.333 . S
N35 C40 1.307 . S
N35 Zn41 2.020 . S
C36 N35 1.333 . S
C36 C37 1.379 . S
C36 H54 0.952 . S
C37 C36 1.379 . S
C37 C38 1.390 . S
C37 H64 0.949 . S
C38 C37 1.390 . S
C38 C39 1.357 . S
C39 C38 1.357 . S
C39 C40 1.370 . S
C39 H65 0.950 . S
C40 N35 1.307 . S
C40 C39 1.370 . S
C40 H58 0.949 . S
Zn41 N35 2.020 . S
Zn41 O50 2.039 . S
Zn41 O56 2.034 . S
Zn41 O60 2.025 . S
Zn41 O62 2.024 1_655 S
C42 O61 1.246 1_554 S
C42 O62 1.249 . S
N43 C44 1.307 . S
N43 C45 1.333 . S
N43 Zn49 2.020 . S
C44 N43 1.307 . S
C44 C48 1.370 . S
C44 H55 0.948 . S
C45 N43 1.333 . S
C45 C46 1.379 . S
C45 H53 0.952 . S
C46 C45 1.379 . S
C46 C47 1.390 . S
C46 H66 0.949 . S
C47 C46 1.390 . S
C47 C48 1.357 . S
C48 C44 1.370 . S
C48 C47 1.357 . S
C48 H67 0.950 . S
Zn49 N43 2.020 . S
Zn49 O52 2.025 . S
Zn49 O57 2.024 . S
Zn49 O59 2.039 . S
Zn49 O61 2.034 1_655 S
O50 C34 1.251 . S
O50 Zn41 2.039 . S
C51 O56 1.246 . S
C51 O57 1.249 1_554 S
O52 C34 1.254 1_556 S
O52 Zn49 2.025 . S
H53 C45 0.952 . S
H54 C36 0.952 . S
H55 C44 0.948 . S
O56 Zn41 2.034 . S
O56 C51 1.246 . S
O57 Zn49 2.024 . S
O57 C51 1.249 1_556 S
H58 C40 0.949 . S
O59 Zn49 2.039 . S
O59 C63 1.251 1_556 S
O60 Zn41 2.025 . S
O60 C63 1.254 . S
O61 C42 1.246 1_556 S
O61 Zn49 2.034 1_455 S
O62 Zn41 2.024 1_455 S
O62 C42 1.249 . S
C63 O59 1.251 1_554 S
C63 O60 1.254 . S
H64 C37 0.949 . S
H65 C39 0.950 . S
H66 C46 0.949 . S
H67 C48 0.950 . S
C68 O84 1.251 . S
C68 O86 1.254 . S
N69 C70 1.333 . S
N69 C74 1.307 . S
N69 Zn75 2.020 . S
C70 N69 1.333 . S
C70 C71 1.379 . S
C70 H88 0.952 . S
C71 C70 1.379 . S
C71 C72 1.390 . S
C71 H98 0.949 . S
C72 C71 1.390 . S
C72 C73 1.357 . S
C73 C72 1.357 . S
C73 C74 1.370 . S
C73 H99 0.950 . S
C74 N69 1.307 . S
C74 C73 1.370 . S
C74 H92 0.948 . S
Zn75 N69 2.020 . S
Zn75 O84 2.039 . S
Zn75 O90 2.034 . S
Zn75 O94 2.025 . S
Zn75 O96 2.024 1_455 S
C76 O95 1.246 . S
C76 O96 1.249 . S
N77 C78 1.307 . S
N77 C79 1.333 . S
N77 Zn83 2.020 . S
C78 N77 1.307 . S
C78 C82 1.370 . S
C78 H89 0.948 . S
C79 N77 1.333 . S
C79 C80 1.379 . S
C79 H87 0.952 . S
C80 C79 1.379 . S
C80 C81 1.390 . S
C80 H100 0.949 . S
C81 C80 1.390 . S
C81 C82 1.357 . S
C82 C78 1.370 . S
C82 C81 1.357 . S
C82 H101 0.950 . S
Zn83 N77 2.020 . S
Zn83 O86 2.025 . S
Zn83 O91 2.024 . S
Zn83 O93 2.039 . S
Zn83 O95 2.034 1_455 S
O84 C68 1.251 . S
O84 Zn75 2.039 . S
C85 O90 1.246 . S
C85 O91 1.249 . S
O86 C68 1.254 . S
O86 Zn83 2.025 . S
H87 C79 0.952 . S
H88 C70 0.952 . S
H89 C78 0.948 . S
O90 Zn75 2.034 . S
O90 C85 1.246 . S
O91 Zn83 2.024 . S
O91 C85 1.249 . S
H92 C74 0.948 . S
O93 Zn83 2.039 . S
O93 C97 1.251 . S
O94 Zn75 2.025 . S
O94 C97 1.254 . S
O95 C76 1.246 . S
O95 Zn83 2.034 1_655 S
O96 Zn75 2.024 1_655 S
O96 C76 1.249 . S
C97 O93 1.251 . S
C97 O94 1.254 . S
H98 C71 0.949 . S
H99 C73 0.950 . S
H100 C80 0.949 . S
H101 C82 0.950 . S
C102 O118 1.251 . S
C102 O120 1.254 . S
N103 C104 1.333 . S
N103 C108 1.307 . S
N103 Zn109 2.020 . S
C104 N103 1.333 . S
C104 C105 1.379 . S
C104 H122 0.952 . S
C105 C104 1.379 . S
C105 C106 1.390 . S
C105 H132 0.949 . S
C106 C105 1.390 . S
C106 C107 1.357 . S
C107 C106 1.357 . S
C107 C108 1.370 . S
C107 H133 0.950 . S
C108 N103 1.307 . S
C108 C107 1.370 . S
C108 H126 0.948 . S
Zn109 N103 2.020 . S
Zn109 O118 2.039 . S
Zn109 O124 2.034 1_655 S
Zn109 O128 2.025 . S
Zn109 O130 2.024 . S
C110 O129 1.246 . S
C110 O130 1.249 . S
N111 C112 1.307 . S
N111 C113 1.333 . S
N111 Zn117 2.020 . S
C112 N111 1.307 . S
C112 C116 1.370 . S
C112 H123 0.948 . S
C113 N111 1.333 . S
C113 C114 1.379 . S
C113 H121 0.952 . S
C114 C113 1.379 . S
C114 C115 1.390 . S
C114 H134 0.949 . S
C115 C114 1.390 . S
C115 C116 1.357 . S
C116 C112 1.370 . S
C116 C115 1.357 . S
C116 H135 0.950 . S
Zn117 N111 2.020 . S
Zn117 O120 2.025 . S
Zn117 O125 2.024 1_655 S
Zn117 O127 2.039 . S
Zn117 O129 2.034 . S
O118 C102 1.251 . S
O118 Zn109 2.039 . S
C119 O124 1.246 . S
C119 O125 1.249 . S
O120 C102 1.254 . S
O120 Zn117 2.025 . S
H121 C113 0.952 . S
H122 C104 0.952 . S
H123 C112 0.948 . S
O124 Zn109 2.034 1_455 S
O124 C119 1.246 . S
O125 Zn117 2.024 1_455 S
O125 C119 1.249 . S
H126 C108 0.948 . S
O127 Zn117 2.039 . S
O127 C131 1.251 . S
O128 Zn109 2.025 . S
O128 C131 1.254 . S
O129 C110 1.246 . S
O129 Zn117 2.034 . S
O130 Zn109 2.024 . S
O130 C110 1.249 . S
C131 O127 1.251 . S
C131 O128 1.254 . S
H132 C105 0.949 . S
H133 C107 0.950 . S
H134 C114 0.949 . S
H135 C116 0.950 . S
C136 O152 1.251 . S
C136 O154 1.254 1_554 S
N137 C138 1.333 . S
N137 C142 1.307 . S
N137 Zn143 2.020 . S
C138 N137 1.333 . S
C138 C139 1.379 . S
C138 H156 0.952 . S
C139 C138 1.379 . S
C139 C140 1.390 . S
C139 H166 0.949 . S
C140 C139 1.390 . S
C140 C141 1.357 . S
C141 C140 1.357 . S
C141 C142 1.370 . S
C141 H167 0.950 . S
C142 N137 1.307 . S
C142 C141 1.370 . S
C142 H160 0.948 . S
Zn143 N137 2.020 . S
Zn143 O152 2.039 . S
Zn143 O158 2.034 . S
Zn143 O162 2.025 . S
Zn143 O164 2.024 . S
C144 O163 1.246 1_554 S
C144 O164 1.249 . S
N145 C146 1.307 . S
N145 C147 1.333 . S
N145 Zn151 2.020 . S
C146 N145 1.307 . S
C146 C150 1.370 . S
C146 H157 0.948 . S
C147 N145 1.333 . S
C147 C148 1.379 . S
C147 H155 0.952 . S
C148 C147 1.379 . S
C148 C149 1.390 . S
C148 H168 0.949 . S
C149 C148 1.390 . S
C149 C150 1.357 . S
C150 C146 1.370 . S
C150 C149 1.357 . S
C150 H169 0.950 . S
Zn151 N145 2.020 . S
Zn151 O154 2.025 . S
Zn151 O159 2.024 . S
Zn151 O161 2.039 . S
Zn151 O163 2.034 . S
O152 C136 1.251 . S
O152 Zn143 2.039 . S
C153 O158 1.246 . S
C153 O159 1.249 1_554 S
O154 C136 1.254 1_556 S
O154 Zn151 2.025 . S
H155 C147 0.952 . S
H156 C138 0.952 . S
H157 C146 0.948 . S
O158 Zn143 2.034 . S
O158 C153 1.246 . S
O159 Zn151 2.024 . S
O159 C153 1.249 1_556 S
H160 C142 0.948 . S
O161 Zn151 2.039 . S
O161 C165 1.251 1_556 S
O162 Zn143 2.025 . S
O162 C165 1.254 . S
O163 C144 1.246 1_556 S
O163 Zn151 2.034 . S
O164 Zn143 2.024 . S
O164 C144 1.249 . S
C165 O161 1.251 1_554 S
C165 O162 1.254 . S
H166 C139 0.949 . S
H167 C141 0.950 . S
H168 C148 0.949 . S
H169 C150 0.950 . S
C170 O186 1.251 . S
C170 O188 1.254 1_554 S
N171 C172 1.333 . S
N171 C176 1.307 . S
N171 Zn177 2.020 . S
C172 N171 1.333 . S
C172 C173 1.379 . S
C172 H190 0.952 . S
C173 C172 1.379 . S
C173 C174 1.390 . S
C173 H200 0.949 . S
C174 C173 1.390 . S
C174 C175 1.357 . S
C175 C174 1.357 . S
C175 C176 1.370 . S
C175 H201 0.950 . S
C176 N171 1.307 . S
C176 C175 1.370 . S
C176 H194 0.948 . S
Zn177 N171 2.020 . S
Zn177 O186 2.039 . S
Zn177 O192 2.034 . S
Zn177 O196 2.025 . S
Zn177 O198 2.024 . S
C178 O197 1.246 1_554 S
C178 O198 1.249 . S
N179 C180 1.307 . S
N179 C181 1.333 . S
N179 Zn185 2.020 . S
C180 N179 1.307 . S
C180 C184 1.370 . S
C180 H191 0.948 . S
C181 N179 1.333 . S
C181 C182 1.379 . S
C181 H189 0.952 . S
C182 C181 1.379 . S
C182 C183 1.390 . S
C182 H202 0.949 . S
C183 C182 1.390 . S
C183 C184 1.357 . S
C184 C180 1.370 . S
C184 C183 1.357 . S
C184 H203 0.950 . S
Zn185 N179 2.020 . S
Zn185 O188 2.025 . S
Zn185 O193 2.024 . S
Zn185 O195 2.039 . S
Zn185 O197 2.034 . S
O186 C170 1.251 . S
O186 Zn177 2.039 . S
C187 O192 1.246 . S
C187 O193 1.249 1_554 S
O188 C170 1.254 1_556 S
O188 Zn185 2.025 . S
H189 C181 0.952 . S
H190 C172 0.952 . S
H191 C180 0.948 . S
O192 Zn177 2.034 . S
O192 C187 1.246 . S
O193 Zn185 2.024 . S
O193 C187 1.249 1_556 S
H194 C176 0.948 . S
O195 Zn185 2.039 . S
O195 C199 1.251 1_556 S
O196 Zn177 2.025 . S
O196 C199 1.254 . S
O197 C178 1.246 1_556 S
O197 Zn185 2.034 . S
O198 Zn177 2.024 . S
O198 C178 1.249 . S
C199 O195 1.251 1_554 S
C199 O196 1.254 . S
H200 C173 0.949 . S
H201 C175 0.950 . S
H202 C182 0.949 . S
H203 C184 0.950 . S
C204 O220 1.251 . S
C204 O222 1.254 . S
N205 C206 1.333 . S
N205 C210 1.307 . S
N205 Zn211 2.020 . S
C206 N205 1.333 . S
C206 C207 1.379 . S
C206 H224 0.952 . S
C207 C206 1.379 . S
C207 C208 1.390 . S
C207 H234 0.949 . S
C208 C207 1.390 . S
C208 C209 1.357 . S
C209 C208 1.357 . S
C209 C210 1.370 . S
C209 H235 0.950 . S
C210 N205 1.307 . S
C210 C209 1.370 . S
C210 H228 0.948 . S
Zn211 N205 2.020 . S
Zn211 O220 2.039 . S
Zn211 O226 2.034 . S
Zn211 O230 2.025 . S
Zn211 O232 2.024 . S
C212 O231 1.246 . S
C212 O232 1.249 . S
N213 C214 1.307 . S
N213 C215 1.333 . S
N213 Zn219 2.020 . S
C214 N213 1.307 . S
C214 C218 1.370 . S
C214 H225 0.948 . S
C215 N213 1.333 . S
C215 C216 1.379 . S
C215 H223 0.952 . S
C216 C215 1.379 . S
C216 C217 1.390 . S
C216 H236 0.949 . S
C217 C216 1.390 . S
C217 C218 1.357 . S
C218 C214 1.370 . S
C218 C217 1.357 . S
C218 H237 0.950 . S
Zn219 N213 2.020 . S
Zn219 O222 2.025 . S
Zn219 O227 2.024 . S
Zn219 O229 2.039 . S
Zn219 O231 2.034 . S
O220 C204 1.251 . S
O220 Zn211 2.039 . S
C221 O226 1.246 . S
C221 O227 1.249 . S
O222 C204 1.254 . S
O222 Zn219 2.025 . S
H223 C215 0.952 . S
H224 C206 0.952 . S
H225 C214 0.948 . S
O226 Zn211 2.034 . S
O226 C221 1.246 . S
O227 Zn219 2.024 . S
O227 C221 1.249 . S
H228 C210 0.948 . S
O229 Zn219 2.039 . S
O229 C233 1.251 . S
O230 Zn211 2.025 . S
O230 C233 1.254 . S
O231 C212 1.246 . S
O231 Zn219 2.034 . S
O232 Zn211 2.024 . S
O232 C212 1.249 . S
C233 O229 1.251 . S
C233 O230 1.254 . S
H234 C207 0.949 . S
H235 C209 0.950 . S
H236 C216 0.949 . S
H237 C218 0.950 . S
C238 O254 1.251 . S
C238 O256 1.254 . S
N239 C240 1.333 . S
N239 C244 1.307 . S
N239 Zn245 2.020 . S
C240 N239 1.333 . S
C240 C241 1.379 . S
C240 H258 0.952 . S
C241 C240 1.379 . S
C241 C242 1.390 . S
C241 H268 0.949 . S
C242 C241 1.390 . S
C242 C243 1.357 . S
C243 C242 1.357 . S
C243 C244 1.370 . S
C243 H269 0.950 . S
C244 N239 1.307 . S
C244 C243 1.370 . S
C244 H262 0.948 . S
Zn245 N239 2.020 . S
Zn245 O254 2.039 . S
Zn245 O260 2.034 . S
Zn245 O264 2.025 . S
Zn245 O266 2.024 . S
C246 O265 1.246 . S
C246 O266 1.249 . S
N247 C248 1.307 . S
N247 C249 1.333 . S
N247 Zn253 2.020 . S
C248 N247 1.307 . S
C248 C252 1.370 . S
C248 H259 0.948 . S
C249 N247 1.333 . S
C249 C250 1.379 . S
C249 H257 0.952 . S
C250 C249 1.379 . S
C250 C251 1.390 . S
C250 H270 0.949 . S
C251 C250 1.390 . S
C251 C252 1.357 . S
C252 C248 1.370 . S
C252 C251 1.357 . S
C252 H271 0.950 . S
Zn253 N247 2.020 . S
Zn253 O256 2.025 . S
Zn253 O261 2.024 . S
Zn253 O263 2.039 . S
Zn253 O265 2.034 . S
O254 C238 1.251 . S
O254 Zn245 2.039 . S
C255 O260 1.246 . S
C255 O261 1.249 . S
O256 C238 1.254 . S
O256 Zn253 2.025 . S
H257 C249 0.952 . S
H258 C240 0.952 . S
H259 C248 0.948 . S
O260 Zn245 2.034 . S
O260 C255 1.246 . S
O261 Zn253 2.024 . S
O261 C255 1.249 . S
H262 C244 0.948 . S
O263 Zn253 2.039 . S
O263 C267 1.251 . S
O264 Zn245 2.025 . S
O264 C267 1.254 . S
O265 C246 1.246 . S
O265 Zn253 2.034 . S
O266 Zn245 2.024 . S
O266 C246 1.249 . S
C267 O263 1.251 . S
C267 O264 1.254 . S
H268 C241 0.949 . S
H269 C243 0.950 . S
H270 C250 0.949 . S
H271 C252 0.950 . S
H272 C278 0.930 . S
H273 C281 0.930 . S
H274 C282 0.930 . S
H275 C283 0.930 . S
H276 C286 0.930 . S
H277 C287 0.930 . S
C278 H272 0.930 . S
C278 C279 1.355 . S
C278 C280 1.415 . S
C279 C278 1.355 . S
C279 C281 1.419 . S
C280 C278 1.415 . S
C280 C285 1.425 . S
C280 C287 1.409 . S
C281 H273 0.930 . S
C281 C279 1.419 . S
C281 C282 1.362 . S
C282 H274 0.930 . S
C282 C281 1.362 . S
C282 C285 1.409 . S
C283 H275 0.930 . S
C283 C284 1.355 . S
C283 C285 1.415 . S
C284 C283 1.355 . S
C284 C286 1.419 . S
C285 C280 1.425 . S
C285 C282 1.409 . S
C285 C283 1.415 . S
C286 H276 0.930 . S
C286 C284 1.419 . S
C286 C287 1.362 . S
C287 H277 0.930 . S
C287 C280 1.409 . S
C287 C286 1.362 . S
H288 C294 0.930 . S
H289 C297 0.930 . S
H290 C298 0.930 . S
H291 C299 0.930 . S
H292 C302 0.930 . S
H293 C303 0.930 . S
C294 H288 0.930 . S
C294 C295 1.355 . S
C294 C296 1.415 . S
C295 C294 1.355 . S
C295 C297 1.419 1_554 S
C296 C294 1.415 . S
C296 C301 1.425 . S
C296 C303 1.409 . S
C297 H289 0.930 . S
C297 C295 1.419 1_556 S
C297 C298 1.362 . S
C298 H290 0.930 . S
C298 C297 1.362 . S
C298 C301 1.409 1_556 S
C299 H291 0.930 . S
C299 C300 1.355 1_556 S
C299 C301 1.415 1_556 S
C300 C299 1.355 1_554 S
C300 C302 1.419 . S
C301 C296 1.425 . S
C301 C298 1.409 1_554 S
C301 C299 1.415 1_554 S
C302 H292 0.930 . S
C302 C300 1.419 . S
C302 C303 1.362 . S
C303 H293 0.930 . S
C303 C296 1.409 . S
C303 C302 1.362 . S
H304 C310 0.930 . S
H305 C313 0.930 . S
H306 C314 0.930 . S
H307 C315 0.930 . S
H308 C318 0.930 . S
H309 C319 0.930 . S
C310 H304 0.930 . S
C310 C311 1.355 . S
C310 C312 1.415 . S
C311 C310 1.355 . S
C311 C313 1.419 . S
C312 C310 1.415 . S
C312 C317 1.425 . S
C312 C319 1.409 . S
C313 H305 0.930 . S
C313 C311 1.419 . S
C313 C314 1.362 . S
C314 H306 0.930 . S
C314 C313 1.362 . S
C314 C317 1.409 . S
C315 H307 0.930 . S
C315 C316 1.355 . S
C315 C317 1.415 . S
C316 C315 1.355 . S
C316 C318 1.419 . S
C317 C312 1.425 . S
C317 C314 1.409 . S
C317 C315 1.415 . S
C318 H308 0.930 . S
C318 C316 1.419 . S
C318 C319 1.362 . S
C319 H309 0.930 . S
C319 C312 1.409 . S
C319 C318 1.362 . S
H320 C326 0.930 . S
H321 C329 0.930 . S
H322 C330 0.930 . S
H323 C331 0.930 . S
H324 C334 0.930 . S
H325 C335 0.930 . S
C326 H320 0.930 . S
C326 C327 1.355 . S
C326 C328 1.415 . S
C327 C326 1.355 . S
C327 C329 1.419 . S
C328 C326 1.415 . S
C328 C333 1.425 . S
C328 C335 1.409 . S
C329 H321 0.930 . S
C329 C327 1.419 . S
C329 C330 1.362 . S
C330 H322 0.930 . S
C330 C329 1.362 . S
C330 C333 1.409 . S
C331 H323 0.930 . S
C331 C332 1.355 . S
C331 C333 1.415 . S
C332 C331 1.355 . S
C332 C334 1.419 . S
C333 C328 1.425 . S
C333 C330 1.409 . S
C333 C331 1.415 . S
C334 H324 0.930 . S
C334 C332 1.419 . S
C334 C335 1.362 . S
C335 H325 0.930 . S
C335 C328 1.409 . S
C335 C334 1.362 . S
H336 C342 0.922 1_556 S
H337 C345 0.930 . S
H338 C346 0.930 . S
H339 C347 0.930 . S
H340 C350 0.930 . S
H341 C351 0.930 . S
C342 H336 0.922 1_554 S
C342 C343 1.355 . S
C342 C344 1.415 1_655 S
C343 C342 1.355 . S
C343 C345 1.419 . S
C344 C342 1.415 1_455 S
C344 C349 1.425 . S
C344 C351 1.409 1_554 S
C345 H337 0.930 . S
C345 C343 1.419 . S
C345 C346 1.362 1_655 S
C346 H338 0.930 . S
C346 C345 1.362 1_455 S
C346 C349 1.409 . S
C347 H339 0.930 . S
C347 C348 1.355 . S
C347 C349 1.415 . S
C348 C347 1.355 . S
C348 C350 1.419 1_554 S
C349 C344 1.425 . S
C349 C346 1.409 . S
C349 C347 1.415 . S
C350 H340 0.930 . S
C350 C348 1.419 1_556 S
C350 C351 1.362 . S
C351 H341 0.930 . S
C351 C344 1.409 1_556 S
C351 C350 1.362 . S
H352 C358 0.930 . S
H353 C361 0.930 . S
H354 C362 0.930 1_655 S
H355 C363 0.914 1_556 S
H356 C366 0.930 . S
H357 C367 0.930 . S
C358 H352 0.930 . S
C358 C359 1.355 . S
C358 C360 1.415 1_455 S
C359 C358 1.355 . S
C359 C361 1.419 1_554 S
C360 C358 1.415 1_655 S
C360 C365 1.425 . S
C360 C367 1.409 . S
C361 H353 0.930 . S
C361 C359 1.419 1_556 S
C361 C362 1.362 . S
C362 H354 0.930 1_455 S
C362 C361 1.362 . S
C362 C365 1.409 1_456 S
C363 H355 0.914 1_554 S
C363 C364 1.369 . S
C363 C365 1.418 . S
C364 C363 1.369 . S
C364 C366 1.419 . S
C365 C360 1.425 . S
C365 C362 1.409 1_654 S
C365 C363 1.418 . S
C366 H356 0.930 . S
C366 C364 1.419 . S
C366 C367 1.362 . S
C367 H357 0.930 . S
C367 C360 1.409 . S
C367 C366 1.362 . S
H368 C374 0.930 . S
H369 C377 0.930 . S
H370 C378 0.930 . S
H371 C379 0.930 . S
H372 C382 0.930 . S
H373 C383 0.930 . S
C374 H368 0.930 . S
C374 C375 1.355 . S
C374 C376 1.415 . S
C375 C374 1.355 . S
C375 C377 1.419 . S
C376 C374 1.415 . S
C376 C381 1.425 . S
C376 C383 1.409 . S
C377 H369 0.930 . S
C377 C375 1.419 . S
C377 C378 1.362 . S
C378 H370 0.930 . S
C378 C377 1.362 . S
C378 C381 1.409 . S
C379 H371 0.930 . S
C379 C380 1.355 . S
C379 C381 1.415 1_655 S
C380 C379 1.355 . S
C380 C382 1.419 . S
C381 C376 1.425 . S
C381 C378 1.409 . S
C381 C379 1.415 1_455 S
C382 H372 0.930 . S
C382 C380 1.419 . S
C382 C383 1.362 1_655 S
C383 H373 0.930 . S
C383 C376 1.409 . S
C383 C382 1.362 1_455 S
H384 C390 0.930 . S
H385 C393 0.930 . S
H386 C394 0.930 . S
H387 C395 0.930 . S
H388 C398 0.930 . S
H389 C399 0.930 . S
C390 H384 0.930 . S
C390 C391 1.355 . S
C390 C392 1.415 . S
C391 C390 1.355 . S
C391 C393 1.419 . S
C392 C390 1.415 . S
C392 C397 1.425 . S
C392 C399 1.409 . S
C393 H385 0.930 . S
C393 C391 1.419 . S
C393 C394 1.362 . S
C394 H386 0.930 . S
C394 C393 1.362 . S
C394 C397 1.409 . S
C395 H387 0.930 . S
C395 C396 1.355 . S
C395 C397 1.415 1_455 S
C396 C395 1.355 . S
C396 C398 1.419 . S
C397 C392 1.425 . S
C397 C394 1.409 . S
C397 C395 1.415 1_655 S
C398 H388 0.930 . S
C398 C396 1.419 . S
C398 C399 1.362 1_455 S
C399 H389 0.930 . S
C399 C392 1.409 . S
C399 C398 1.362 1_655 S
H400 C406 0.930 . S
H401 C409 0.930 . S
H402 C410 0.930 . S
H403 C411 0.930 . S
H404 C414 0.930 . S
H405 C415 0.930 . S
C406 H400 0.930 . S
C406 C407 1.355 . S
C406 C408 1.415 . S
C407 C406 1.355 . S
C407 C409 1.419 1_655 S
C408 C406 1.415 . S
C408 C413 1.425 1_655 S
C408 C415 1.409 . S
C409 H401 0.930 . S
C409 C407 1.419 1_455 S
C409 C410 1.362 . S
C410 H402 0.930 . S
C410 C409 1.362 . S
C410 C413 1.409 . S
C411 H403 0.930 . S
C411 C412 1.355 . S
C411 C413 1.415 . S
C412 C411 1.355 . S
C412 C414 1.419 1_455 S
C413 C408 1.425 1_455 S
C413 C410 1.409 . S
C413 C411 1.415 . S
C414 H404 0.930 . S
C414 C412 1.419 1_655 S
C414 C415 1.362 . S
C415 H405 0.930 . S
C415 C408 1.409 . S
C415 C414 1.362 . S
H416 C422 0.930 . S
H417 C425 0.930 . S
H418 C426 0.930 . S
H419 C427 0.930 . S
H420 C430 0.930 . S
H421 C431 0.930 . S
C422 H416 0.930 . S
C422 C423 1.355 . S
C422 C424 1.415 . S
C423 C422 1.355 . S
C423 C425 1.419 1_655 S
C424 C422 1.415 . S
C424 C429 1.425 1_655 S
C424 C431 1.409 . S
C425 H417 0.930 . S
C425 C423 1.419 1_455 S
C425 C426 1.362 . S
C426 H418 0.930 . S
C426 C425 1.362 . S
C426 C429 1.409 . S
C427 H419 0.930 . S
C427 C428 1.355 . S
C427 C429 1.415 . S
C428 C427 1.355 . S
C428 C430 1.419 1_455 S
C429 C424 1.425 1_455 S
C429 C426 1.409 . S
C429 C427 1.415 . S
C430 H420 0.930 . S
C430 C428 1.419 1_655 S
C430 C431 1.362 . S
C431 H421 0.930 . S
C431 C424 1.409 . S
C431 C430 1.362 . S
H432 C438 0.930 . S
H433 C441 0.930 . S
H434 C442 0.930 . S
H435 C443 0.930 . S
H436 C446 0.930 . S
H437 C447 0.930 . S
C438 H432 0.930 . S
C438 C439 1.355 1_556 S
C438 C440 1.411 1_556 S
C439 C438 1.355 1_554 S
C439 C441 1.419 . S
C440 C438 1.411 1_554 S
C440 C445 1.443 1_565 S
C440 C447 1.396 1_564 S
C441 H433 0.930 . S
C441 C439 1.419 . S
C441 C442 1.362 . S
C442 H434 0.930 . S
C442 C441 1.362 . S
C442 C445 1.409 1_565 S
C443 H435 0.930 . S
C443 C444 1.355 . S
C443 C445 1.415 . S
C444 C443 1.355 . S
C444 C446 1.419 1_554 S
C445 C440 1.443 1_545 S
C445 C442 1.409 1_545 S
C445 C443 1.415 . S
C446 H436 0.930 . S
C446 C444 1.419 1_556 S
C446 C447 1.362 . S
C447 H437 0.930 . S
C447 C440 1.396 1_546 S
C447 C446 1.362 . S
H448 C454 0.930 . S
H449 C457 0.930 . S
H450 C458 0.930 . S
H451 C459 0.930 . S
H452 C462 0.930 . S
H453 C463 0.930 . S
C454 H448 0.930 . S
C454 C455 1.355 . S
C454 C456 1.415 . S
C455 C454 1.355 . S
C455 C457 1.419 . S
C456 C454 1.415 . S
C456 C461 1.425 1_545 S
C456 C463 1.409 1_545 S
C457 H449 0.930 . S
C457 C455 1.419 . S
C457 C458 1.362 . S
C458 H450 0.930 . S
C458 C457 1.362 . S
C458 C461 1.409 1_545 S
C459 H451 0.930 . S
C459 C460 1.355 . S
C459 C461 1.415 . S
C460 C459 1.355 . S
C460 C462 1.419 . S
C461 C456 1.425 1_565 S
C461 C458 1.409 1_565 S
C461 C459 1.415 . S
C462 H452 0.930 . S
C462 C460 1.419 . S
C462 C463 1.362 . S
C463 H453 0.930 . S
C463 C456 1.409 1_565 S
C463 C462 1.362 . S
H464 C470 0.930 . S
H465 C473 0.930 1_655 S
H466 C474 0.930 . S
H467 C475 0.930 . S
H468 C478 0.930 . S
H469 C479 0.930 . S
C470 H464 0.930 . S
C470 C471 1.355 . S
C470 C472 1.415 . S
C471 C470 1.355 . S
C471 C473 1.419 . S
C472 C470 1.415 . S
C472 C477 1.425 . S
C472 C479 1.409 . S
C473 H465 0.930 1_455 S
C473 C471 1.419 . S
C473 C474 1.362 . S
C474 H466 0.930 . S
C474 C473 1.362 . S
C474 C477 1.409 . S
C475 H467 0.930 . S
C475 C476 1.355 . S
C475 C477 1.415 . S
C476 C475 1.355 . S
C476 C478 1.419 . S
C477 C472 1.425 . S
C477 C474 1.409 . S
C477 C475 1.415 . S
C478 H468 0.930 . S
C478 C476 1.419 . S
C478 C479 1.362 . S
C479 H469 0.930 . S
C479 C472 1.409 . S
C479 C478 1.362 . S
H480 C486 0.930 . S
H481 C489 0.930 . S
H482 C490 0.930 . S
H483 C491 0.930 . S
H484 C494 0.930 . S
H485 C495 0.930 . S
C486 H480 0.930 . S
C486 C487 1.355 . S
C486 C488 1.415 . S
C487 C486 1.355 . S
C487 C489 1.419 1_554 S
C488 C486 1.415 . S
C488 C493 1.442 . S
C488 C495 1.409 . S
C489 H481 0.930 . S
C489 C487 1.419 1_556 S
C489 C490 1.362 . S
C490 H482 0.930 . S
C490 C489 1.362 . S
C490 C493 1.399 1_556 S
C491 H483 0.930 . S
C491 C492 1.355 1_556 S
C491 C493 1.410 1_556 S
C492 C491 1.355 1_554 S
C492 C494 1.419 . S
C493 C488 1.442 . S
C493 C490 1.399 1_554 S
C493 C491 1.410 1_554 S
C494 H484 0.930 . S
C494 C492 1.419 . S
C494 C495 1.362 . S
C495 H485 0.930 . S
C495 C488 1.409 . S
C495 C494 1.362 . S
H496 C502 0.930 . S
H497 C505 0.930 . S
H498 C506 0.930 . S
H499 C507 0.930 . S
H500 C510 0.930 . S
H501 C511 0.930 . S
C502 H496 0.930 . S
C502 C503 1.355 . S
C502 C504 1.415 . S
C503 C502 1.355 . S
C503 C505 1.419 . S
C504 C502 1.415 . S
C504 C509 1.425 . S
C504 C511 1.409 . S
C505 H497 0.930 . S
C505 C503 1.419 . S
C505 C506 1.362 . S
C506 H498 0.930 . S
C506 C505 1.362 . S
C506 C509 1.409 . S
C507 H499 0.930 . S
C507 C508 1.355 . S
C507 C509 1.415 . S
C508 C507 1.355 . S
C508 C510 1.419 . S
C509 C504 1.425 . S
C509 C506 1.409 . S
C509 C507 1.415 . S
C510 H500 0.930 . S
C510 C508 1.419 . S
C510 C511 1.362 . S
C511 H501 0.930 . S
C511 C504 1.409 . S
C511 C510 1.362 . S
H512 C518 0.930 . S
H513 C521 0.930 . S
H514 C522 0.930 . S
H515 C523 0.930 . S
H516 C526 0.930 . S
H517 C527 0.930 . S
C518 H512 0.930 . S
C518 C519 1.355 . S
C518 C520 1.415 . S
C519 C518 1.355 . S
C519 C521 1.419 . S
C520 C518 1.415 . S
C520 C525 1.425 . S
C520 C527 1.409 . S
C521 H513 0.930 . S
C521 C519 1.419 . S
C521 C522 1.362 . S
C522 H514 0.930 . S
C522 C521 1.362 . S
C522 C525 1.409 . S
C523 H515 0.930 . S
C523 C524 1.355 . S
C523 C525 1.415 . S
C524 C523 1.355 . S
C524 C526 1.419 . S
C525 C520 1.425 . S
C525 C522 1.409 . S
C525 C523 1.415 . S
C526 H516 0.930 . S
C526 C524 1.419 . S
C526 C527 1.362 . S
C527 H517 0.930 . S
C527 C520 1.409 . S
C527 C526 1.362 . S
H528 C534 0.930 . S
H529 C537 0.930 . S
H530 C538 0.930 . S
H531 C539 0.930 . S
H532 C542 0.930 . S
H533 C543 0.930 . S
C534 H528 0.930 . S
C534 C535 1.355 1_655 S
C534 C536 1.415 . S
C535 C534 1.355 1_455 S
C535 C537 1.419 . S
C536 C534 1.415 . S
C536 C541 1.425 1_655 S
C536 C543 1.409 . S
C537 H529 0.930 . S
C537 C535 1.419 . S
C537 C538 1.362 . S
C538 H530 0.930 . S
C538 C537 1.362 . S
C538 C541 1.409 . S
C539 H531 0.930 . S
C539 C540 1.355 1_455 S
C539 C541 1.415 . S
C540 C539 1.355 1_655 S
C540 C542 1.419 . S
C541 C536 1.425 1_455 S
C541 C538 1.409 . S
C541 C539 1.415 . S
C542 H532 0.930 . S
C542 C540 1.419 . S
C542 C543 1.362 . S
C543 H533 0.930 . S
C543 C536 1.409 . S
C543 C542 1.362 . S
H544 C550 0.930 . S
H545 C553 0.930 . S
H546 C554 0.930 . S
H547 C555 0.930 . S
H548 C558 0.930 . S
H549 C559 0.930 . S
C550 H544 0.930 . S
C550 C551 1.355 . S
C550 C552 1.415 . S
C551 C550 1.355 . S
C551 C553 1.419 1_655 S
C552 C550 1.415 . S
C552 C557 1.425 1_655 S
C552 C559 1.409 . S
C553 H545 0.930 . S
C553 C551 1.419 1_455 S
C553 C554 1.362 . S
C554 H546 0.930 . S
C554 C553 1.362 . S
C554 C557 1.409 . S
C555 H547 0.930 . S
C555 C556 1.355 . S
C555 C557 1.415 . S
C556 C555 1.355 . S
C556 C558 1.419 1_455 S
C557 C552 1.425 1_455 S
C557 C554 1.409 . S
C557 C555 1.415 . S
C558 H548 0.930 . S
C558 C556 1.419 1_655 S
C558 C559 1.362 . S
C559 H549 0.930 . S
C559 C552 1.409 . S
C559 C558 1.362 . S
H560 C566 0.930 . S
H561 C569 0.930 . S
H562 C570 0.930 . S
H563 C571 0.930 . S
H564 C574 0.930 . S
H565 C575 0.930 . S
C566 H560 0.930 . S
C566 C567 1.355 . S
C566 C568 1.415 . S
C567 C566 1.355 . S
C567 C569 1.419 1_655 S
C568 C566 1.415 . S
C568 C573 1.425 1_655 S
C568 C575 1.409 . S
C569 H561 0.930 . S
C569 C567 1.419 1_455 S
C569 C570 1.362 . S
C570 H562 0.930 . S
C570 C569 1.362 . S
C570 C573 1.409 . S
C571 H563 0.930 . S
C571 C572 1.355 . S
C571 C573 1.415 . S
C572 C571 1.355 . S
C572 C574 1.419 1_455 S
C573 C568 1.425 1_455 S
C573 C570 1.409 . S
C573 C571 1.415 . S
C574 H564 0.930 . S
C574 C572 1.419 1_655 S
C574 C575 1.362 . S
C575 H565 0.930 . S
C575 C568 1.409 . S
C575 C574 1.362 . S
H576 C582 0.930 . S
H577 C585 0.930 . S
H578 C586 0.930 . S
H579 C587 0.930 . S
H580 C590 0.930 . S
H581 C591 0.930 . S
C582 H576 0.930 . S
C582 C583 1.355 . S
C582 C584 1.415 . S
C583 C582 1.355 . S
C583 C585 1.419 1_655 S
C584 C582 1.415 . S
C584 C589 1.425 1_655 S
C584 C591 1.409 . S
C585 H577 0.930 . S
C585 C583 1.419 1_455 S
C585 C586 1.362 . S
C586 H578 0.930 . S
C586 C585 1.362 . S
C586 C589 1.409 . S
C587 H579 0.930 . S
C587 C588 1.355 . S
C587 C589 1.415 . S
C588 C587 1.355 . S
C588 C590 1.419 1_455 S
C589 C584 1.425 1_455 S
C589 C586 1.409 . S
C589 C587 1.415 . S
C590 H580 0.930 . S
C590 C588 1.419 1_655 S
C590 C591 1.362 . S
C591 H581 0.930 . S
C591 C584 1.409 . S
C591 C590 1.362 . S
H592 C598 0.930 . S
H593 C601 0.930 . S
H594 C602 0.930 . S
H595 C603 0.930 . S
H596 C606 0.930 . S
H597 C607 0.930 . S
C598 H592 0.930 . S
C598 C599 1.355 . S
C598 C600 1.415 . S
C599 C598 1.355 . S
C599 C601 1.419 . S
C600 C598 1.415 . S
C600 C605 1.425 . S
C600 C607 1.409 . S
C601 H593 0.930 . S
C601 C599 1.419 . S
C601 C602 1.362 . S
C602 H594 0.930 . S
C602 C601 1.362 . S
C602 C605 1.409 . S
C603 H595 0.930 . S
C603 C604 1.355 . S
C603 C605 1.415 . S
C604 C603 1.355 . S
C604 C606 1.419 . S
C605 C600 1.425 . S
C605 C602 1.409 . S
C605 C603 1.415 . S
C606 H596 0.930 . S
C606 C604 1.419 . S
C606 C607 1.362 . S
C607 H597 0.930 . S
C607 C600 1.409 . S
C607 C606 1.362 . S
H608 C614 0.930 . S
H609 C617 0.930 . S
H610 C618 0.930 . S
H611 C619 0.930 . S
H612 C622 0.930 . S
H613 C623 0.930 . S
C614 H608 0.930 . S
C614 C615 1.355 . S
C614 C616 1.415 . S
C615 C614 1.355 . S
C615 C617 1.419 . S
C616 C614 1.415 . S
C616 C621 1.425 . S
C616 C623 1.409 . S
C617 H609 0.930 . S
C617 C615 1.419 . S
C617 C618 1.362 . S
C618 H610 0.930 . S
C618 C617 1.362 . S
C618 C621 1.409 . S
C619 H611 0.930 . S
C619 C620 1.355 . S
C619 C621 1.415 . S
C620 C619 1.355 . S
C620 C622 1.419 . S
C621 C616 1.425 . S
C621 C618 1.409 . S
C621 C619 1.415 . S
C622 H612 0.930 . S
C622 C620 1.419 . S
C622 C623 1.362 . S
C623 H613 0.930 . S
C623 C616 1.409 . S
C623 C622 1.362 . S
H624 C630 0.930 . S
H625 C633 0.930 . S
H626 C634 0.930 . S
H627 C635 0.930 . S
H628 C638 0.930 . S
H629 C639 0.930 . S
C630 H624 0.930 . S
C630 C631 1.355 . S
C630 C632 1.415 . S
C631 C630 1.355 . S
C631 C633 1.419 . S
C632 C630 1.415 . S
C632 C637 1.425 . S
C632 C639 1.409 . S
C633 H625 0.930 . S
C633 C631 1.419 . S
C633 C634 1.362 . S
C634 H626 0.930 . S
C634 C633 1.362 . S
C634 C637 1.409 . S
C635 H627 0.930 . S
C635 C636 1.355 . S
C635 C637 1.415 . S
C636 C635 1.355 . S
C636 C638 1.419 . S
C637 C632 1.425 . S
C637 C634 1.409 . S
C637 C635 1.415 . S
C638 H628 0.930 . S
C638 C636 1.419 . S
C638 C639 1.362 . S
C639 H629 0.930 . S
C639 C632 1.409 . S
C639 C638 1.362 . S
H640 C646 0.930 . S
H641 C649 0.930 . S
H642 C650 0.930 . S
H643 C651 0.930 . S
H644 C654 0.930 . S
H645 C655 0.930 . S
C646 H640 0.930 . S
C646 C647 1.355 . S
C646 C648 1.415 . S
C647 C646 1.355 . S
C647 C649 1.419 . S
C648 C646 1.415 . S
C648 C653 1.425 . S
C648 C655 1.409 . S
C649 H641 0.930 . S
C649 C647 1.419 . S
C649 C650 1.362 . S
C650 H642 0.930 . S
C650 C649 1.362 . S
C650 C653 1.409 . S
C651 H643 0.930 . S
C651 C652 1.355 . S
C651 C653 1.415 . S
C652 C651 1.355 . S
C652 C654 1.419 . S
C653 C648 1.425 . S
C653 C650 1.409 . S
C653 C651 1.415 . S
C654 H644 0.930 . S
C654 C652 1.419 . S
C654 C655 1.362 . S
C655 H645 0.930 . S
C655 C648 1.409 . S
C655 C654 1.362 . S
C279 C17 1.232 . S
C284 C8 1.232 . S
C295 C42 1.233 . S
C300 C51 1.233 . S
C311 C76 1.229 . S
C316 C85 1.229 . S
C327 C110 1.227 . S
C332 C119 1.227 . S
C343 C153 1.234 . S
C348 C144 1.234 . S
C359 C187 1.221 . S
C364 C178 1.221 . S
C375 C212 1.226 . S
C380 C221 1.226 . S
C391 C255 1.234 . S
C396 C246 1.234 . S
C407 C34 1.543 . S
C412 C0 1.541 . S
C423 C131 1.540 . S
C428 C68 1.540 . S
C439 C136 1.537 . S
C444 C170 1.529 . S
C455 C204 1.538 . S
C460 C267 1.538 . S
C471 C29 1.658 . S
C476 C199 1.655 . S
C487 C165 1.614 . S
C492 C63 1.612 . S
C503 C97 1.656 . S
C508 C238 1.656 . S
C519 C102 1.620 . S
C524 C233 1.620 . S
C535 C4 1.578 . S
C540 C106 1.577 . S
C551 C38 1.556 . S
C556 C72 1.559 . S
C567 C47 1.545 . S
C572 C81 1.545 . S
C583 C115 1.563 . S
C588 C13 1.559 . S
C599 C140 1.574 . S
C604 C242 1.571 . S
C615 C174 1.559 . S
C620 C208 1.559 . S
C631 C183 1.538 . S
C636 C217 1.548 . S
C647 C251 1.575 . S
C652 C149 1.574 . S
