# Generated by pormake.
# Topology wiv, (6)-cn, num edge types: 1
# Building blocks:
#     Node 0, Type 0, BuildingBlock: MIFKUJ_clean_sbu_0, # of connection points: 6
#     Node 1, Type 0, BuildingBlock: MIFKUJ_clean_sbu_0, # of connection points: 6
#     Node 2, Type 0, BuildingBlock: MIFKUJ_clean_sbu_0, # of connection points: 6
#     Node 3, Type 0, BuildingBlock: MIFKUJ_clean_sbu_0, # of connection points: 6
#     Node 4, Type 0, BuildingBlock: MIFKUJ_clean_sbu_0, # of connection points: 6
#     Node 5, Type 0, BuildingBlock: MIFKUJ_clean_sbu_0, # of connection points: 6
#     Node 6, Type 0, BuildingBlock: MIFKUJ_clean_sbu_0, # of connection points: 6
#     Node 7, Type 0, BuildingBlock: MIFKUJ_clean_sbu_0, # of connection points: 6
#     Node 8, Type 0, BuildingBlock: MIFKUJ_clean_sbu_0, # of connection points: 6
#     Node 9, Type 0, BuildingBlock: MIFKUJ_clean_sbu_0, # of connection points: 6
#     Node 10, Type 0, BuildingBlock: MIFKUJ_clean_sbu_0, # of connection points: 6
#     Node 11, Type 0, BuildingBlock: MIFKUJ_clean_sbu_0, # of connection points: 6
#     Node 12, Type 0, BuildingBlock: MIFKUJ_clean_sbu_0, # of connection points: 6
#     Node 13, Type 0, BuildingBlock: MIFKUJ_clean_sbu_0, # of connection points: 6
#     Node 14, Type 0, BuildingBlock: MIFKUJ_clean_sbu_0, # of connection points: 6
#     Node 15, Type 0, BuildingBlock: MIFKUJ_clean_sbu_0, # of connection points: 6
#     Edge 16, Type (0, 0), BuildingBlock: UVAHIK_clean_linker_0, # of connection points: 2
#     Edge 17, Type (0, 0), BuildingBlock: UVAHIK_clean_linker_0, # of connection points: 2
#     Edge 18, Type (0, 0), BuildingBlock: UVAHIK_clean_linker_0, # of connection points: 2
#     Edge 19, Type (0, 0), BuildingBlock: UVAHIK_clean_linker_0, # of connection points: 2
#     Edge 20, Type (0, 0), BuildingBlock: UVAHIK_clean_linker_0, # of connection points: 2
#     Edge 21, Type (0, 0), BuildingBlock: UVAHIK_clean_linker_0, # of connection points: 2
#     Edge 22, Type (0, 0), BuildingBlock: UVAHIK_clean_linker_0, # of connection points: 2
#     Edge 23, Type (0, 0), BuildingBlock: UVAHIK_clean_linker_0, # of connection points: 2
#     Edge 24, Type (0, 0), BuildingBlock: UVAHIK_clean_linker_0, # of connection points: 2
#     Edge 25, Type (0, 0), BuildingBlock: UVAHIK_clean_linker_0, # of connection points: 2
#     Edge 26, Type (0, 0), BuildingBlock: UVAHIK_clean_linker_0, # of connection points: 2
#     Edge 27, Type (0, 0), BuildingBlock: UVAHIK_clean_linker_0, # of connection points: 2
#     Edge 28, Type (0, 0), BuildingBlock: UVAHIK_clean_linker_0, # of connection points: 2
#     Edge 29, Type (0, 0), BuildingBlock: UVAHIK_clean_linker_0, # of connection points: 2
#     Edge 30, Type (0, 0), BuildingBlock: UVAHIK_clean_linker_0, # of connection points: 2
#     Edge 31, Type (0, 0), BuildingBlock: UVAHIK_clean_linker_0, # of connection points: 2
#     Edge 32, Type (0, 0), BuildingBlock: UVAHIK_clean_linker_0, # of connection points: 2
#     Edge 33, Type (0, 0), BuildingBlock: UVAHIK_clean_linker_0, # of connection points: 2
#     Edge 34, Type (0, 0), BuildingBlock: UVAHIK_clean_linker_0, # of connection points: 2
#     Edge 35, Type (0, 0), BuildingBlock: UVAHIK_clean_linker_0, # of connection points: 2
#     Edge 36, Type (0, 0), BuildingBlock: UVAHIK_clean_linker_0, # of connection points: 2
#     Edge 37, Type (0, 0), BuildingBlock: UVAHIK_clean_linker_0, # of connection points: 2
#     Edge 38, Type (0, 0), BuildingBlock: UVAHIK_clean_linker_0, # of connection points: 2
#     Edge 39, Type (0, 0), BuildingBlock: UVAHIK_clean_linker_0, # of connection points: 2
#     Edge 40, Type (0, 0), BuildingBlock: UVAHIK_clean_linker_0, # of connection points: 2
#     Edge 41, Type (0, 0), BuildingBlock: UVAHIK_clean_linker_0, # of connection points: 2
#     Edge 42, Type (0, 0), BuildingBlock: UVAHIK_clean_linker_0, # of connection points: 2
#     Edge 43, Type (0, 0), BuildingBlock: UVAHIK_clean_linker_0, # of connection points: 2
#     Edge 44, Type (0, 0), BuildingBlock: UVAHIK_clean_linker_0, # of connection points: 2
#     Edge 45, Type (0, 0), BuildingBlock: UVAHIK_clean_linker_0, # of connection points: 2
#     Edge 46, Type (0, 0), BuildingBlock: UVAHIK_clean_linker_0, # of connection points: 2
#     Edge 47, Type (0, 0), BuildingBlock: UVAHIK_clean_linker_0, # of connection points: 2
#     Edge 48, Type (0, 0), BuildingBlock: UVAHIK_clean_linker_0, # of connection points: 2
#     Edge 49, Type (0, 0), BuildingBlock: UVAHIK_clean_linker_0, # of connection points: 2
#     Edge 50, Type (0, 0), BuildingBlock: UVAHIK_clean_linker_0, # of connection points: 2
#     Edge 51, Type (0, 0), BuildingBlock: UVAHIK_clean_linker_0, # of connection points: 2
#     Edge 52, Type (0, 0), BuildingBlock: UVAHIK_clean_linker_0, # of connection points: 2
#     Edge 53, Type (0, 0), BuildingBlock: UVAHIK_clean_linker_0, # of connection points: 2
#     Edge 54, Type (0, 0), BuildingBlock: UVAHIK_clean_linker_0, # of connection points: 2
#     Edge 55, Type (0, 0), BuildingBlock: UVAHIK_clean_linker_0, # of connection points: 2
#     Edge 56, Type (0, 0), BuildingBlock: UVAHIK_clean_linker_0, # of connection points: 2
#     Edge 57, Type (0, 0), BuildingBlock: UVAHIK_clean_linker_0, # of connection points: 2
#     Edge 58, Type (0, 0), BuildingBlock: UVAHIK_clean_linker_0, # of connection points: 2
#     Edge 59, Type (0, 0), BuildingBlock: UVAHIK_clean_linker_0, # of connection points: 2
#     Edge 60, Type (0, 0), BuildingBlock: UVAHIK_clean_linker_0, # of connection points: 2
#     Edge 61, Type (0, 0), BuildingBlock: UVAHIK_clean_linker_0, # of connection points: 2
#     Edge 62, Type (0, 0), BuildingBlock: UVAHIK_clean_linker_0, # of connection points: 2
#     Edge 63, Type (0, 0), BuildingBlock: UVAHIK_clean_linker_0, # of connection points: 2
# Relax obj value: 0.041
# Max RMSD: 0.116
# Mean RMSD: 0.116
data_MOF--net-wiv--node1-MIFKUJ_clean_sbu_0--edge1-UVAHIK_clean_linker_0
_symmetry_space_group_name_H-M    P1
_symmetry_Int_Tables_number       1
_symmetry_cell_setting            triclinic
loop_
_symmetry_equiv_pos_as_xyz
'x, y, z'
_cell_length_a     75.892092
_cell_length_b     75.790359
_cell_length_c     22.713646
_cell_angle_alpha  90.045104
_cell_angle_beta   89.899723
_cell_angle_gamma 89.961958
loop_
_atom_site_label
_atom_site_type_symbol
_atom_site_fract_x
_atom_site_fract_y
_atom_site_fract_z
_atom_type_partial_charge
Zn0 Zn 0.35152 0.12092 0.08735 0.0
Zn1 Zn 0.38115 0.12554 0.23598 0.0
C2 C 0.32198 0.10705 0.02479 0.0
O3 O 0.3319 0.09284 0.02527 0.0
C4 C 0.41639 0.13802 0.21774 0.0
O5 O 0.40861 0.15345 0.22222 0.0
O6 O 0.36728 0.11941 0.01604 0.0
O7 O 0.35444 0.14494 0.12406 0.0
O8 O 0.37093 0.14809 0.20393 0.0
C9 C 0.36602 0.13261 0.98176 0.0
O10 O 0.35638 0.14613 0.99847 0.0
O11 O 0.3273 0.12082 0.05133 0.0
C12 C 0.38662 0.11616 0.35675 0.0
O13 O 0.39424 0.10241 0.33228 0.0
O14 O 0.37976 0.12788 0.32399 0.0
O15 O 0.36993 0.10224 0.21672 0.0
O16 O 0.35344 0.09888 0.13683 0.0
O17 O 0.40707 0.12411 0.21889 0.0
C18 C 0.36123 0.15456 0.16383 0.0
C19 C 0.3604 0.09275 0.18344 0.0
Zn20 Zn 0.13709 0.63062 0.81359 0.0
Zn21 Zn 0.13195 0.63605 0.95662 0.0
C22 C 0.15221 0.59596 0.82165 0.0
O23 O 0.1658 0.6044 0.7995 0.0
C24 C 0.11836 0.66908 0.99663 0.0
O25 O 0.10436 0.65904 0.0027 0.0
O26 O 0.1408 0.63045 0.72673 0.0
O27 O 0.11269 0.63935 0.82486 0.0
O28 O 0.1087 0.63006 0.9162 0.0
C29 C 0.13052 0.62098 0.696 0.0
O30 O 0.11782 0.6122 0.72225 0.0
O31 O 0.13851 0.60471 0.83574 0.0
C32 C 0.14413 0.62909 0.06917 0.0
O33 O 0.15704 0.63846 0.04663 0.0
O34 O 0.13089 0.6255 0.03715 0.0
O35 O 0.15607 0.6285 0.92591 0.0
O36 O 0.1566 0.64512 0.84725 0.0
O37 O 0.13223 0.66241 0.97413 0.0
C38 C 0.10255 0.63473 0.86646 0.0
C39 C 0.16463 0.63796 0.88975 0.0
Zn40 Zn 0.62969 0.88597 0.06085 0.0
Zn41 Zn 0.63031 0.88163 0.1978 0.0
C42 C 0.66421 0.89676 0.0245 0.0
O43 O 0.65525 0.9112 0.01311 0.0
C44 C 0.59477 0.87239 0.22631 0.0
O45 O 0.60358 0.86201 0.26201 0.0
O46 O 0.62119 0.88754 0.97774 0.0
O47 O 0.6201 0.86264 0.09145 0.0
O48 O 0.6404 0.86016 0.15943 0.0
C49 C 0.62537 0.87449 0.94541 0.0
O50 O 0.63356 0.86102 0.96936 0.0
O51 O 0.65631 0.88394 0.04936 0.0
C52 C 0.62883 0.89196 0.31651 0.0
O53 O 0.62113 0.90551 0.29125 0.0
O54 O 0.63477 0.87956 0.28441 0.0
O55 O 0.64117 0.90462 0.17577 0.0
O56 O 0.62376 0.90938 0.10038 0.0
O57 O 0.60332 0.8821 0.19042 0.0
C58 C 0.63043 0.85305 0.12159 0.0
C59 C 0.63318 0.91528 0.1422 0.0
Zn60 Zn 0.86451 0.36707 0.77596 0.0
Zn61 Zn 0.86936 0.37138 0.90762 0.0
C62 C 0.85057 0.40155 0.76084 0.0
O63 O 0.83887 0.3923 0.73147 0.0
C64 C 0.88539 0.33897 0.93854 0.0
O65 O 0.89839 0.34994 0.94937 0.0
O66 O 0.86247 0.3636 0.68827 0.0
O67 O 0.88858 0.35884 0.79787 0.0
O68 O 0.89117 0.37988 0.86384 0.0
C69 C 0.87391 0.37157 0.65714 0.0
O70 O 0.88636 0.38058 0.68378 0.0
O71 O 0.86307 0.3935 0.78659 0.0
C72 C 0.85909 0.37324 0.02564 0.0
O73 O 0.84682 0.36313 0.00271 0.0
O74 O 0.87084 0.37964 0.99185 0.0
O75 O 0.84458 0.37728 0.88035 0.0
O76 O 0.84385 0.35568 0.81592 0.0
O77 O 0.87122 0.34497 0.91645 0.0
C78 C 0.89818 0.36963 0.82602 0.0
C79 C 0.83593 0.3656 0.85243 0.0
Zn80 Zn 0.36625 0.37718 0.13841 0.0
Zn81 Zn 0.36297 0.37167 0.00543 0.0
C82 C 0.33355 0.39224 0.1724 0.0
O83 O 0.34402 0.40576 0.18152 0.0
C84 C 0.39722 0.35797 0.99086 0.0
O85 O 0.38776 0.34646 0.96138 0.0
O86 O 0.37486 0.37907 0.22196 0.0
O87 O 0.37253 0.3523 0.11234 0.0
O88 O 0.35218 0.35048 0.04399 0.0
C89 C 0.36897 0.36711 0.25597 0.0
O90 O 0.35914 0.35454 0.2335 0.0
O91 O 0.3399 0.37831 0.14942 0.0
C92 C 0.36747 0.38143 0.88706 0.0
O93 O 0.376 0.39415 0.91415 0.0
O94 O 0.35984 0.36966 0.91773 0.0
O95 O 0.35371 0.39553 0.02693 0.0
O96 O 0.37418 0.39915 0.09389 0.0
O97 O 0.3894 0.37062 0.01687 0.0
C98 C 0.36168 0.34308 0.08278 0.0
C99 C 0.36397 0.40566 0.0552 0.0
Zn100 Zn 0.38215 0.62614 0.9647 0.0
Zn101 Zn 0.38615 0.64023 0.8121 0.0
C102 C 0.3647 0.59326 0.95722 0.0
O103 O 0.35321 0.60235 0.98822 0.0
C104 C 0.39653 0.67219 0.75584 0.0
O105 O 0.41124 0.66311 0.75176 0.0
O106 O 0.37955 0.62457 0.05201 0.0
O107 O 0.40699 0.63311 0.95114 0.0
O108 O 0.40945 0.63938 0.85626 0.0
C109 C 0.39049 0.61554 0.08165 0.0
O110 O 0.40371 0.60781 0.0545 0.0
O111 O 0.37818 0.60116 0.93689 0.0
C112 C 0.37497 0.62652 0.70528 0.0
O113 O 0.36084 0.63475 0.72453 0.0
O114 O 0.38862 0.62625 0.7376 0.0
O115 O 0.36252 0.63296 0.84716 0.0
O116 O 0.36327 0.64282 0.93824 0.0
O117 O 0.38344 0.66533 0.78239 0.0
C118 C 0.41628 0.63725 0.90687 0.0
C119 C 0.35464 0.63879 0.89253 0.0
Zn120 Zn 0.63307 0.6309 0.13981 0.0
Zn121 Zn 0.63905 0.63463 0.00775 0.0
C122 C 0.66562 0.61617 0.17433 0.0
O123 O 0.65491 0.60291 0.18465 0.0
C124 C 0.60459 0.64654 0.97952 0.0
O125 O 0.61408 0.65754 0.94799 0.0
O126 O 0.62479 0.62948 0.22423 0.0
O127 O 0.62601 0.65495 0.10924 0.0
O128 O 0.64826 0.65647 0.0473 0.0
C129 C 0.63092 0.6415 0.25754 0.0
O130 O 0.64035 0.65418 0.23377 0.0
O131 O 0.65951 0.63003 0.15023 0.0
C132 C 0.63746 0.62388 0.88884 0.0
O133 O 0.62858 0.61116 0.91465 0.0
O134 O 0.64435 0.63585 0.92063 0.0
O135 O 0.64756 0.61108 0.03569 0.0
O136 O 0.62511 0.60895 0.09636 0.0
O137 O 0.61242 0.63525 0.01159 0.0
C138 C 0.63706 0.66409 0.08023 0.0
C139 C 0.63603 0.6017 0.06134 0.0
Zn140 Zn 0.61791 0.38122 0.98403 0.0
Zn141 Zn 0.61413 0.35623 0.82857 0.0
C142 C 0.63073 0.41567 0.95112 0.0
O143 O 0.64611 0.4077 0.95145 0.0
C144 C 0.60176 0.32641 0.76119 0.0
O145 O 0.58688 0.33529 0.76149 0.0
O146 O 0.61942 0.38169 0.07252 0.0
O147 O 0.59479 0.36982 0.96439 0.0
O148 O 0.59197 0.35637 0.87794 0.0
C149 C 0.60756 0.38942 0.1026 0.0
O150 O 0.59414 0.39665 0.07522 0.0
O151 O 0.61687 0.40673 0.96066 0.0
C152 C 0.62512 0.37203 0.72394 0.0
O153 O 0.63849 0.36172 0.73692 0.0
O154 O 0.61244 0.37319 0.76041 0.0
O155 O 0.63777 0.35824 0.86785 0.0
O156 O 0.64063 0.3704 0.95624 0.0
O157 O 0.61497 0.33256 0.78866 0.0
C158 C 0.58564 0.36131 0.92717 0.0
C159 C 0.64716 0.36266 0.91167 0.0
Zn160 Zn 0.85118 0.61946 0.59636 0.0
Zn161 Zn 0.88124 0.62164 0.74614 0.0
C162 C 0.82166 0.60695 0.52996 0.0
O163 O 0.83168 0.59285 0.52636 0.0
C164 C 0.91521 0.63374 0.76829 0.0
O165 O 0.90541 0.64449 0.79984 0.0
O166 O 0.86684 0.61862 0.5251 0.0
O167 O 0.85437 0.64295 0.63622 0.0
O168 O 0.87109 0.64426 0.71611 0.0
C169 C 0.8653 0.63177 0.4908 0.0
O170 O 0.85545 0.64513 0.50759 0.0
O171 O 0.82687 0.61999 0.56057 0.0
C172 C 0.88441 0.61099 0.86695 0.0
O173 O 0.89349 0.59801 0.84334 0.0
O174 O 0.87741 0.62246 0.83359 0.0
O175 O 0.87084 0.59854 0.72047 0.0
O176 O 0.85351 0.59675 0.64191 0.0
O177 O 0.90769 0.62221 0.73627 0.0
C178 C 0.86147 0.65165 0.67767 0.0
C179 C 0.86111 0.58969 0.68583 0.0
Zn180 Zn 0.63551 0.13628 0.28216 0.0
Zn181 Zn 0.63123 0.13045 0.41322 0.0
C182 C 0.64787 0.10144 0.26054 0.0
O183 O 0.66033 0.11052 0.23415 0.0
C184 C 0.61573 0.16282 0.44628 0.0
O185 O 0.6029 0.15179 0.45857 0.0
O186 O 0.63713 0.14078 0.19468 0.0
O187 O 0.61202 0.14511 0.3087 0.0
O188 O 0.60938 0.12252 0.36856 0.0
C189 C 0.62534 0.13344 0.16334 0.0
O190 O 0.61266 0.12467 0.18977 0.0
O191 O 0.63575 0.1097 0.28769 0.0
C192 C 0.64137 0.12844 0.53142 0.0
O193 O 0.6539 0.1382 0.50827 0.0
O194 O 0.62954 0.12219 0.49767 0.0
O195 O 0.65586 0.1242 0.38496 0.0
O196 O 0.6569 0.14618 0.32199 0.0
O197 O 0.62974 0.15689 0.42267 0.0
C198 C 0.60236 0.13381 0.3344 0.0
C199 C 0.66468 0.13584 0.35741 0.0
Zn200 Zn 0.14861 0.38189 0.5984 0.0
Zn201 Zn 0.12128 0.37642 0.75084 0.0
C202 C 0.17756 0.39548 0.53134 0.0
O203 O 0.16763 0.40968 0.53196 0.0
C204 C 0.08638 0.36457 0.75251 0.0
O205 O 0.09462 0.35166 0.77954 0.0
O206 O 0.13219 0.3837 0.52899 0.0
O207 O 0.14612 0.35765 0.63489 0.0
O208 O 0.13147 0.35384 0.71853 0.0
C209 C 0.13351 0.3709 0.49298 0.0
O210 O 0.14362 0.35747 0.50711 0.0
O211 O 0.17249 0.38188 0.55937 0.0
C212 C 0.11505 0.38651 0.86999 0.0
O213 O 0.10781 0.40004 0.84316 0.0
O214 O 0.12216 0.37442 0.83923 0.0
O215 O 0.13264 0.39973 0.73201 0.0
O216 O 0.14752 0.40396 0.64897 0.0
O217 O 0.0954 0.37731 0.73207 0.0
C218 C 0.14036 0.34771 0.67566 0.0
C219 C 0.14154 0.40958 0.6979 0.0
Zn220 Zn 0.37218 0.87025 0.27126 0.0
Zn221 Zn 0.37693 0.87052 0.40717 0.0
C222 C 0.35764 0.90445 0.26234 0.0
O223 O 0.3459 0.89501 0.23382 0.0
C224 C 0.39105 0.83749 0.44254 0.0
O225 O 0.40469 0.8478 0.45162 0.0
O226 O 0.3696 0.868 0.18393 0.0
O227 O 0.39665 0.86155 0.28819 0.0
O228 O 0.39979 0.87816 0.3669 0.0
C229 C 0.3804 0.87669 0.1525 0.0
O230 O 0.39274 0.886 0.17853 0.0
O231 O 0.37066 0.8966 0.28589 0.0
C232 C 0.36545 0.87419 0.52284 0.0
O233 O 0.35281 0.86465 0.4994 0.0
O234 O 0.37803 0.87937 0.49019 0.0
O235 O 0.3525 0.87785 0.37894 0.0
O236 O 0.35108 0.85837 0.30782 0.0
O237 O 0.37731 0.84401 0.41904 0.0
C238 C 0.40651 0.87009 0.32311 0.0
C239 C 0.34336 0.86772 0.34645 0.0
Zn240 Zn 0.86744 0.87474 0.70078 0.0
Zn241 Zn 0.86756 0.87071 0.56325 0.0
C242 C 0.83431 0.88898 0.73864 0.0
O243 O 0.84466 0.90254 0.74869 0.0
C244 C 0.9031 0.85973 0.54727 0.0
O245 O 0.89444 0.84687 0.52149 0.0
O246 O 0.87651 0.8767 0.78308 0.0
O247 O 0.8746 0.85007 0.67425 0.0
O248 O 0.85775 0.84847 0.5959 0.0
C249 C 0.87151 0.86434 0.81694 0.0
O250 O 0.86217 0.85134 0.79481 0.0
O251 O 0.8408 0.87536 0.71386 0.0
C252 C 0.87118 0.88179 0.44563 0.0
O253 O 0.87932 0.8948 0.47248 0.0
O254 O 0.8643 0.86957 0.47624 0.0
O255 O 0.8557 0.89291 0.58844 0.0
O256 O 0.87543 0.89688 0.65726 0.0
O257 O 0.89433 0.87184 0.57297 0.0
C258 C 0.86565 0.84095 0.63808 0.0
C259 C 0.86539 0.90322 0.61791 0.0
Zn260 Zn 0.88329 0.1209 0.484 0.0
Zn261 Zn 0.88645 0.14703 0.32882 0.0
C262 C 0.87133 0.08579 0.453 0.0
O263 O 0.85613 0.0937 0.44459 0.0
C264 C 0.89848 0.17682 0.26147 0.0
O265 O 0.91325 0.16776 0.26099 0.0
O266 O 0.88194 0.12174 0.57236 0.0
O267 O 0.90612 0.13248 0.46196 0.0
O268 O 0.90871 0.14687 0.37723 0.0
C269 C 0.89385 0.1142 0.6026 0.0
O270 O 0.90711 0.10661 0.57528 0.0
O271 O 0.88476 0.09499 0.46604 0.0
C272 C 0.87561 0.13134 0.22405 0.0
O273 O 0.86214 0.14149 0.23746 0.0
O274 O 0.88833 0.13028 0.26025 0.0
O275 O 0.86291 0.14422 0.36851 0.0
O276 O 0.86038 0.13095 0.45522 0.0
O277 O 0.88531 0.17082 0.28965 0.0
C278 C 0.91516 0.14142 0.42553 0.0
C279 C 0.85365 0.13903 0.41178 0.0
Zn280 Zn 0.13225 0.12525 0.64154 0.0
Zn281 Zn 0.13715 0.12989 0.51045 0.0
C282 C 0.16471 0.10957 0.67458 0.0
O283 O 0.15393 0.09645 0.68605 0.0
C284 C 0.10323 0.14415 0.4921 0.0
O285 O 0.11303 0.15538 0.46259 0.0
O286 O 0.12413 0.12361 0.72602 0.0
O287 O 0.12666 0.15027 0.61559 0.0
O288 O 0.14766 0.1514 0.54898 0.0
C289 C 0.13072 0.13525 0.75985 0.0
O290 O 0.14083 0.14751 0.73679 0.0
O291 O 0.15861 0.12343 0.65056 0.0
C292 C 0.13334 0.11985 0.39158 0.0
O293 O 0.1242 0.10747 0.41817 0.0
O294 O 0.14113 0.1314 0.42275 0.0
O295 O 0.14546 0.10574 0.53498 0.0
O296 O 0.12345 0.10354 0.59722 0.0
O297 O 0.1107 0.13151 0.51915 0.0
C298 C 0.13792 0.15917 0.58654 0.0
C299 C 0.13424 0.09625 0.56177 0.0
Zn300 Zn 0.12396 0.87202 0.47295 0.0
Zn301 Zn 0.11917 0.87062 0.33639 0.0
C302 C 0.13602 0.90783 0.46986 0.0
O303 O 0.15039 0.9 0.48868 0.0
C304 C 0.10757 0.83673 0.29668 0.0
O305 O 0.09338 0.8461 0.28566 0.0
O306 O 0.12667 0.87075 0.5602 0.0
O307 O 0.10083 0.86037 0.45632 0.0
O308 O 0.09596 0.87686 0.37865 0.0
C309 C 0.1149 0.87824 0.59127 0.0
O310 O 0.10152 0.88588 0.56492 0.0
O311 O 0.12268 0.89843 0.45683 0.0
C312 C 0.12984 0.87546 0.2206 0.0
O313 O 0.14311 0.86661 0.24307 0.0
O314 O 0.11707 0.87974 0.25396 0.0
O315 O 0.14361 0.87895 0.36268 0.0
O316 O 0.14578 0.86119 0.43835 0.0
O317 O 0.12041 0.84411 0.3229 0.0
C318 C 0.09009 0.86815 0.42241 0.0
C319 C 0.15308 0.86963 0.39678 0.0
C320 C 0.36875 0.93441 0.29224 0.0
C321 C 0.35636 0.92396 0.26228 0.0
C322 C 0.36808 0.95284 0.28828 0.0
C323 C 0.35276 0.98788 0.18959 0.0
H324 H 0.35892 0.01874 0.32414 0.0
C325 C 0.34614 0.06327 0.16653 0.0
C326 C 0.3582 0.07378 0.19773 0.0
C327 C 0.34486 0.04518 0.17779 0.0
C328 C 0.35737 0.01032 0.28597 0.0
H329 H 0.33325 0.92471 0.20612 0.0
H330 H 0.33217 0.95673 0.19917 0.0
H331 H 0.35902 0.98678 0.33808 0.0
H332 H 0.37818 0.07346 0.26599 0.0
H333 H 0.37626 0.04195 0.2845 0.0
H334 H 0.35156 0.01121 0.13708 0.0
C335 C 0.34248 0.9507 0.22527 0.0
C336 C 0.3574 0.99201 0.29406 0.0
C337 C 0.34306 0.93233 0.22956 0.0
C338 C 0.36869 0.06581 0.24126 0.0
C339 C 0.36751 0.04769 0.25214 0.0
C340 C 0.35289 0.00614 0.1814 0.0
C341 C 0.35511 0.96115 0.25391 0.0
C342 C 0.35505 0.9806 0.24594 0.0
C343 C 0.35571 0.03709 0.22015 0.0
C344 C 0.35518 0.01763 0.22945 0.0
H345 H 0.37915 0.92836 0.31786 0.0
H346 H 0.37804 0.96057 0.31061 0.0
H347 H 0.35121 0.97942 0.15148 0.0
H348 H 0.33775 0.06899 0.13306 0.0
H349 H 0.33536 0.03752 0.1531 0.0
C350 C 0.942 0.64187 0.82524 0.0
C351 C 0.93457 0.63413 0.77491 0.0
C352 C 0.9602 0.64187 0.83358 0.0
C353 C 0.00153 0.62034 0.78122 0.0
H354 H 0.02312 0.65923 0.86559 0.0
C355 C 0.07687 0.63248 0.79825 0.0
C356 C 0.08335 0.63437 0.85589 0.0
C357 C 0.05875 0.63211 0.7877 0.0
C358 C 0.01722 0.64826 0.84226 0.0
H359 H 0.94036 0.62054 0.69326 0.0
H360 H 0.97231 0.62123 0.70624 0.0
H361 H 0.99163 0.6599 0.84527 0.0
H362 H 0.07598 0.63746 0.94756 0.0
H363 H 0.04417 0.63739 0.92867 0.0
H364 H 0.02749 0.60917 0.77645 0.0
C365 C 0.96405 0.62684 0.74036 0.0
C366 C 0.99915 0.64855 0.8308 0.0
C367 C 0.94575 0.62654 0.73259 0.0
C368 C 0.07135 0.63596 0.90275 0.0
C369 C 0.0532 0.63598 0.89198 0.0
C370 C 0.01969 0.62026 0.79167 0.0
C371 C 0.97153 0.63444 0.79119 0.0
C372 C 0.99098 0.63449 0.80073 0.0
C373 C 0.04678 0.63399 0.83439 0.0
C374 C 0.02762 0.63413 0.82279 0.0
H375 H 0.93372 0.64762 0.85912 0.0
H376 H 0.9653 0.64743 0.874 0.0
H377 H 0.99576 0.60914 0.75886 0.0
H378 H 0.0858 0.63114 0.76126 0.0
H379 H 0.05408 0.63064 0.74291 0.0
C380 C 0.62619 0.94687 0.11724 0.0
C381 C 0.63468 0.93447 0.15344 0.0
C382 C 0.62761 0.96495 0.1291 0.0
C383 C 0.65553 0.99723 0.20758 0.0
H384 H 0.61456 0.02763 0.19657 0.0
C385 C 0.66024 0.07309 0.22205 0.0
C386 C 0.64701 0.08205 0.25343 0.0
C387 C 0.65883 0.05501 0.21119 0.0
C388 C 0.62609 0.01928 0.2003 0.0
H389 H 0.65121 0.93139 0.23076 0.0
H390 H 0.65354 0.96272 0.25138 0.0
H391 H 0.61177 0.99625 0.17388 0.0
H392 H 0.62208 0.07897 0.2992 0.0
H393 H 0.61972 0.04733 0.28071 0.0
H394 H 0.6698 0.02014 0.23491 0.0
C395 C 0.64601 0.95855 0.21339 0.0
C396 C 0.62454 1.00136 0.18657 0.0
C397 C 0.64459 0.94055 0.20164 0.0
C398 C 0.6325 0.07246 0.27483 0.0
C399 C 0.63108 0.05436 0.26382 0.0
C400 C 0.65709 0.01513 0.22117 0.0
C401 C 0.63757 0.97098 0.17727 0.0
C402 C 0.63923 0.99012 0.19024 0.0
C403 C 0.64415 0.04546 0.23139 0.0
C404 C 0.64239 0.02637 0.21776 0.0
H405 H 0.61847 0.94262 0.07976 0.0
H406 H 0.62108 0.97422 0.10014 0.0
H407 H 0.66715 0.98897 0.21028 0.0
H408 H 0.67157 0.08008 0.20484 0.0
H409 H 0.66905 0.04859 0.18558 0.0
C410 C 0.92878 0.37985 0.85067 0.0
C411 C 0.91736 0.37013 0.8144 0.0
C412 C 0.94694 0.37984 0.83994 0.0
C413 C 0.98156 0.35362 0.76567 0.0
H414 H 0.00984 0.39569 0.7875 0.0
C415 C 0.05721 0.35123 0.7773 0.0
C416 C 0.06689 0.36501 0.7515 0.0
C417 C 0.03888 0.3521 0.78077 0.0
C418 C 0.0021 0.38388 0.78054 0.0
H419 H 0.91601 0.35319 0.73742 0.0
H420 H 0.94751 0.35341 0.71829 0.0
H421 H 0.97797 0.39719 0.80137 0.0
H422 H 0.06484 0.39036 0.70776 0.0
H423 H 0.03271 0.39176 0.71305 0.0
H424 H 0.00558 0.34035 0.74399 0.0
C425 C 0.94254 0.36073 0.75579 0.0
C426 C 0.98386 0.38468 0.78927 0.0
C427 C 0.92445 0.36066 0.76665 0.0
C428 C 0.05777 0.37953 0.72798 0.0
C429 C 0.03937 0.3804 0.73142 0.0
C430 C 0.99975 0.35283 0.75685 0.0
C431 C 0.95405 0.37017 0.79258 0.0
C432 C 0.97339 0.36953 0.78223 0.0
C433 C 0.02973 0.36676 0.75837 0.0
C434 C 0.01026 0.3679 0.76464 0.0
H435 H 0.92372 0.38724 0.88787 0.0
H436 H 0.95545 0.3871 0.86953 0.0
H437 H 0.97394 0.34164 0.7605 0.0
H438 H 0.06381 0.33987 0.79604 0.0
H439 H 0.03191 0.34147 0.80252 0.0
C440 C 0.35419 0.43142 0.99452 0.0
C441 C 0.36415 0.4248 0.04178 0.0
C442 C 0.35429 0.44941 0.98122 0.0
C443 C 0.37964 0.49059 0.00437 0.0
H444 H 0.33576 0.51301 0.95916 0.0
C445 C 0.37718 0.56354 0.93107 0.0
C446 C 0.36345 0.57375 0.95511 0.0
C447 C 0.37702 0.54514 0.93636 0.0
C448 C 0.34812 0.50698 0.97191 0.0
H449 H 0.38205 0.43197 0.11214 0.0
H450 H 0.38202 0.46347 0.08946 0.0
H451 H 0.33614 0.48163 0.98194 0.0
H452 H 0.33845 0.57252 0.00138 0.0
H453 H 0.33825 0.54058 0.01091 0.0
H454 H 0.3915 0.51608 0.99612 0.0
C455 C 0.37432 0.45467 0.06212 0.0
C456 C 0.34838 0.48893 0.9844 0.0
C457 C 0.37426 0.43662 0.07537 0.0
C458 C 0.34923 0.56509 0.9823 0.0
C459 C 0.34908 0.54672 0.98758 0.0
C460 C 0.37938 0.50866 0.99192 0.0
C461 C 0.3643 0.46129 0.01492 0.0
C462 C 0.36412 0.4805 0.00104 0.0
C463 C 0.36313 0.53653 0.9657 0.0
C464 C 0.36359 0.51711 0.97584 0.0
H465 H 0.34636 0.42269 0.96736 0.0
H466 H 0.34665 0.45397 0.94399 0.0
H467 H 0.39204 0.4845 0.01637 0.0
H468 H 0.38832 0.56978 0.90973 0.0
H469 H 0.38791 0.53766 0.91811 0.0
C470 C 0.57696 0.65627 0.92942 0.0
C471 C 0.58517 0.64665 0.97463 0.0
C472 C 0.55868 0.65582 0.9227 0.0
C473 C 0.51742 0.64758 0.00144 0.0
H474 H 0.49832 0.6383 0.84621 0.0
C475 C 0.44371 0.63301 0.96619 0.0
C476 C 0.43556 0.63921 0.91462 0.0
C477 C 0.46191 0.63443 0.97354 0.0
C478 C 0.50338 0.6412 0.88969 0.0
H479 H 0.58061 0.6293 0.04898 0.0
H480 H 0.54855 0.62875 0.03769 0.0
H481 H 0.53013 0.64 0.85966 0.0
H482 H 0.44018 0.65201 0.83067 0.0
H483 H 0.47191 0.65497 0.84418 0.0
H484 H 0.49076 0.64913 0.03152 0.0
C485 C 0.55633 0.63657 0.0074 0.0
C486 C 0.52163 0.64209 0.89738 0.0
C487 C 0.57467 0.63683 0.0137 0.0
C488 C 0.44605 0.64701 0.87076 0.0
C489 C 0.46427 0.64861 0.87841 0.0
C490 C 0.49917 0.64689 0.99367 0.0
C491 C 0.54819 0.64593 0.96147 0.0
C492 C 0.52882 0.6452 0.95337 0.0
C493 C 0.47245 0.64227 0.92983 0.0
C494 C 0.4919 0.64358 0.93774 0.0
H495 H 0.58467 0.66394 0.89851 0.0
H496 H 0.55273 0.66329 0.88728 0.0
H497 H 0.52262 0.65022 0.04495 0.0
H498 H 0.43607 0.62678 0.0007 0.0
H499 H 0.46773 0.62908 0.01318 0.0
C500 C 0.61979 0.57296 0.06337 0.0
C501 C 0.63486 0.58266 0.048 0.0
C502 C 0.61843 0.55513 0.04829 0.0
C503 C 0.63784 0.52123 0.94883 0.0
H504 H 0.61599 0.48865 0.05829 0.0
C505 C 0.64494 0.4452 0.9375 0.0
C506 C 0.62978 0.43514 0.9491 0.0
C507 C 0.64455 0.46356 0.94322 0.0
C508 C 0.62193 0.49764 0.02697 0.0
H509 H 0.66049 0.58123 0.00583 0.0
H510 H 0.65841 0.55006 0.98136 0.0
H511 H 0.6176 0.51986 0.08307 0.0
H512 H 0.6021 0.43652 0.9731 0.0
H513 H 0.60152 0.46854 0.98341 0.0
H514 H 0.64265 0.49875 0.89373 0.0
C515 C 0.64738 0.55628 0.0035 0.0
C516 C 0.62283 0.51554 0.04108 0.0
C517 C 0.64865 0.57413 0.01799 0.0
C518 C 0.61403 0.44387 0.96399 0.0
C519 C 0.6137 0.46219 0.97026 0.0
C520 C 0.6371 0.50328 0.93504 0.0
C521 C 0.63221 0.54657 0.0181 0.0
C522 C 0.63086 0.52757 0.00231 0.0
C523 C 0.62904 0.47217 0.96114 0.0
C524 C 0.62917 0.49132 0.97406 0.0
H525 H 0.60888 0.57921 0.08607 0.0
H526 H 0.60644 0.54815 0.05951 0.0
H527 H 0.64381 0.53015 0.9174 0.0
H528 H 0.65726 0.43887 0.92579 0.0
H529 H 0.65659 0.47094 0.93616 0.0
C530 C 0.42708 0.368 0.025 0.0
C531 C 0.41668 0.3567 0.99033 0.0
C532 C 0.44549 0.36717 0.02195 0.0
C533 C 0.48108 0.35443 0.92153 0.0
H534 H 0.51058 0.35495 0.06067 0.0
C535 C 0.55644 0.34754 0.90296 0.0
C536 C 0.56668 0.35835 0.9397 0.0
C537 C 0.53828 0.34594 0.91219 0.0
C538 C 0.50255 0.35499 0.02132 0.0
H539 H 0.41748 0.33549 0.92608 0.0
H540 H 0.44949 0.33419 0.92056 0.0
H541 H 0.47855 0.35536 0.07133 0.0
H542 H 0.56588 0.37565 0.01591 0.0
H543 H 0.53429 0.37323 0.03098 0.0
H544 H 0.50489 0.35456 0.87128 0.0
C545 C 0.44342 0.34371 0.94987 0.0
C546 C 0.48421 0.35519 0.02752 0.0
C547 C 0.42508 0.34441 0.95331 0.0
C548 C 0.55842 0.36715 0.98682 0.0
C549 C 0.54027 0.36568 0.9957 0.0
C550 C 0.49939 0.3544 0.91529 0.0
C551 C 0.45383 0.35516 0.98374 0.0
C552 C 0.47329 0.35489 0.97766 0.0
C553 C 0.52991 0.35525 0.95803 0.0
C554 C 0.51039 0.35468 0.96507 0.0
H555 H 0.421 0.37759 0.05402 0.0
H556 H 0.45319 0.37623 0.04831 0.0
H557 H 0.47299 0.35446 0.88227 0.0
H558 H 0.56239 0.34045 0.86656 0.0
H559 H 0.5308 0.33749 0.88304 0.0
C560 C 0.83746 0.42979 0.72464 0.0
C561 C 0.84995 0.42105 0.75972 0.0
C562 C 0.83762 0.44815 0.71981 0.0
C563 C 0.85337 0.48892 0.79049 0.0
H564 H 0.85023 0.5083 0.63286 0.0
C565 C 0.86887 0.56193 0.73993 0.0
C566 C 0.85875 0.57056 0.69686 0.0
C567 C 0.86699 0.54382 0.74949 0.0
C568 C 0.85084 0.50316 0.67729 0.0
H569 H 0.87208 0.42479 0.81878 0.0
H570 H 0.8723 0.45693 0.81045 0.0
H571 H 0.84815 0.47654 0.64723 0.0
H572 H 0.83841 0.56692 0.63091 0.0
H573 H 0.83488 0.53542 0.64843 0.0
H574 H 0.85598 0.51555 0.82065 0.0
C575 C 0.86237 0.44953 0.78677 0.0
C576 C 0.84969 0.48494 0.68548 0.0
C577 C 0.86229 0.43113 0.79132 0.0
C578 C 0.84652 0.56068 0.66414 0.0
C579 C 0.84456 0.54259 0.67399 0.0
C580 C 0.85441 0.50718 0.78235 0.0
C581 C 0.85021 0.45821 0.75023 0.0
C582 C 0.85101 0.47762 0.74211 0.0
C583 C 0.85486 0.5339 0.71651 0.0
C584 C 0.85324 0.51452 0.72559 0.0
H585 H 0.82773 0.42244 0.69987 0.0
H586 H 0.82793 0.45449 0.69196 0.0
H587 H 0.85424 0.48366 0.83472 0.0
H588 H 0.87848 0.56909 0.76581 0.0
H589 H 0.87534 0.53755 0.78196 0.0
C590 C 0.5752 0.14857 0.29705 0.0
C591 C 0.58318 0.13384 0.32352 0.0
C592 C 0.55719 0.1486 0.28498 0.0
C593 C 0.51997 0.1196 0.25511 0.0
H594 H 0.49175 0.16036 0.29749 0.0
C595 C 0.44402 0.12068 0.23431 0.0
C596 C 0.43581 0.13677 0.22028 0.0
C597 C 0.46217 0.11994 0.24404 0.0
C598 C 0.49946 0.14899 0.28438 0.0
H599 H 0.57854 0.10759 0.35813 0.0
H600 H 0.54693 0.1076 0.33624 0.0
H601 H 0.52294 0.15974 0.32224 0.0
H602 H 0.44033 0.16448 0.20227 0.0
H603 H 0.47207 0.16309 0.2172 0.0
H604 H 0.49663 0.10896 0.21617 0.0
C605 C 0.55471 0.1191 0.32503 0.0
C606 C 0.51731 0.14861 0.29896 0.0
C607 C 0.57274 0.11914 0.33786 0.0
C608 C 0.44625 0.15192 0.21352 0.0
C609 C 0.46443 0.15114 0.22261 0.0
C610 C 0.50213 0.12005 0.23993 0.0
C611 C 0.54679 0.13385 0.2985 0.0
C612 C 0.52774 0.13393 0.28443 0.0
C613 C 0.47257 0.13523 0.23936 0.0
C614 C 0.49165 0.13477 0.25431 0.0
H615 H 0.58287 0.16011 0.28557 0.0
H616 H 0.55145 0.16009 0.26408 0.0
H617 H 0.52779 0.10821 0.24281 0.0
H618 H 0.43633 0.10877 0.24016 0.0
H619 H 0.46792 0.1075 0.25743 0.0
C620 C 0.13591 0.56715 0.82305 0.0
C621 C 0.15195 0.57639 0.82129 0.0
C622 C 0.13553 0.54884 0.81473 0.0
C623 C 0.16259 0.51244 0.75126 0.0
H624 H 0.12698 0.48304 0.8241 0.0
C625 C 0.14967 0.4409 0.67314 0.0
C626 C 0.14433 0.42831 0.71493 0.0
C627 C 0.15128 0.45871 0.68871 0.0
C628 C 0.13719 0.49095 0.80386 0.0
H629 H 0.18025 0.57354 0.81255 0.0
H630 H 0.17969 0.54162 0.80044 0.0
H631 H 0.12885 0.51406 0.85034 0.0
H632 H 0.13709 0.42456 0.80652 0.0
H633 H 0.14046 0.45537 0.83406 0.0
H634 H 0.17133 0.48922 0.70628 0.0
C635 C 0.16731 0.5485 0.80616 0.0
C636 C 0.13809 0.50889 0.81832 0.0
C637 C 0.16766 0.56683 0.8137 0.0
C638 C 0.14106 0.43391 0.773 0.0
C639 C 0.14288 0.45166 0.78873 0.0
C640 C 0.16182 0.49447 0.73727 0.0
C641 C 0.15121 0.53928 0.80518 0.0
C642 C 0.15072 0.51994 0.7919 0.0
C643 C 0.14781 0.46438 0.74669 0.0
C644 C 0.14901 0.48347 0.76299 0.0
H645 H 0.12355 0.57414 0.8283 0.0
H646 H 0.12285 0.54233 0.81359 0.0
H647 H 0.17235 0.52049 0.72919 0.0
H648 H 0.15219 0.43708 0.62793 0.0
H649 H 0.15484 0.46808 0.65477 0.0
C650 C 0.5674 0.86958 0.28659 0.0
C651 C 0.57533 0.87357 0.23218 0.0
C652 C 0.54913 0.87051 0.29359 0.0
C653 C 0.50785 0.86498 0.21874 0.0
H654 H 0.48773 0.8934 0.34394 0.0
C655 C 0.43228 0.86866 0.25394 0.0
C656 C 0.42574 0.8711 0.3113 0.0
C657 C 0.45036 0.86991 0.24219 0.0
C658 C 0.49304 0.88512 0.30938 0.0
H659 H 0.57027 0.88156 0.14226 0.0
H660 H 0.538 0.88252 0.15402 0.0
H661 H 0.51943 0.8938 0.32695 0.0
H662 H 0.43312 0.87642 0.40159 0.0
H663 H 0.46466 0.87765 0.3821 0.0
H664 H 0.48181 0.85543 0.2029 0.0
C665 C 0.54611 0.87895 0.19135 0.0
C666 C 0.51125 0.88553 0.29931 0.0
C667 C 0.56453 0.87845 0.18469 0.0
C668 C 0.43773 0.87462 0.35682 0.0
C669 C 0.45587 0.87548 0.34535 0.0
C670 C 0.48968 0.86424 0.22959 0.0
C671 C 0.53828 0.87506 0.24603 0.0
C672 C 0.51884 0.87545 0.25402 0.0
C673 C 0.46251 0.87324 0.28772 0.0
C674 C 0.48194 0.87426 0.27529 0.0
H675 H 0.57536 0.86588 0.32417 0.0
H676 H 0.54344 0.86736 0.33607 0.0
H677 H 0.51342 0.8569 0.184 0.0
H678 H 0.42338 0.86609 0.21772 0.0
H679 H 0.45471 0.86848 0.19704 0.0
C680 C 0.85301 0.92923 0.56484 0.0
C681 C 0.866 0.92211 0.60198 0.0
C682 C 0.85393 0.94678 0.5467 0.0
C683 C 0.8849 0.98287 0.52195 0.0
H684 H 0.84318 0.01239 0.52792 0.0
C685 C 0.88688 0.05817 0.48346 0.0
C686 C 0.87215 0.06635 0.45777 0.0
C687 C 0.88665 0.04016 0.49628 0.0
C688 C 0.85489 0.00426 0.52487 0.0
H689 H 0.89008 0.92786 0.64954 0.0
H690 H 0.89172 0.95865 0.61734 0.0
H691 H 0.84164 0.98204 0.56251 0.0
H692 H 0.8461 0.06184 0.42182 0.0
H693 H 0.84589 0.03028 0.44245 0.0
H694 H 0.89813 0.00499 0.48358 0.0
C695 C 0.88087 0.95054 0.60234 0.0
C696 C 0.85401 0.9869 0.5451 0.0
C697 C 0.87985 0.93299 0.62109 0.0
C698 C 0.85759 0.05595 0.44213 0.0
C699 C 0.85742 0.03789 0.45444 0.0
C700 C 0.88575 1.00021 0.50116 0.0
C701 C 0.86793 0.95757 0.56482 0.0
C702 C 0.86901 0.97606 0.54403 0.0
C703 C 0.87175 0.02987 0.48318 0.0
C704 C 0.87076 0.01115 0.50255 0.0
H705 H 0.84217 0.9212 0.54932 0.0
H706 H 0.84386 0.95181 0.51742 0.0
H707 H 0.8966 0.9747 0.51987 0.0
H708 H 0.89831 0.06581 0.49626 0.0
H709 H 0.89786 0.0345 0.51888 0.0
C710 C 0.07314 0.13467 0.52545 0.0
C711 C 0.08382 0.14574 0.49089 0.0
C712 C 0.05477 0.13578 0.52197 0.0
C713 C 0.01966 0.14896 0.42084 0.0
H714 H 0.98982 0.1483 0.55955 0.0
C715 C 0.94427 0.15548 0.40179 0.0
C716 C 0.93409 0.14443 0.43801 0.0
C717 C 0.96239 0.15723 0.41118 0.0
C718 C 0.99795 0.14832 0.52032 0.0
H719 H 0.08358 0.16686 0.42637 0.0
H720 H 0.05159 0.16868 0.42016 0.0
H721 H 0.02182 0.1479 0.57068 0.0
H722 H 0.93496 0.12687 0.51344 0.0
H723 H 0.96649 0.12958 0.52879 0.0
H724 H 0.99595 0.14886 0.37026 0.0
C725 C 0.05742 0.1591 0.44969 0.0
C726 C 0.01627 0.14812 0.52678 0.0
C727 C 0.07575 0.1581 0.45352 0.0
C728 C 0.94237 0.13554 0.48474 0.0
C729 C 0.96049 0.13718 0.4938 0.0
C730 C 0.00136 0.14899 0.41434 0.0
C731 C 0.04674 0.14787 0.48349 0.0
C732 C 0.0273 0.1484 0.47708 0.0
C733 C 0.97078 0.14787 0.4567 0.0
C734 C 0.99026 0.14862 0.46397 0.0
H735 H 0.07897 0.12502 0.55472 0.0
H736 H 0.04685 0.12687 0.54824 0.0
H737 H 0.02783 0.14893 0.38169 0.0
H738 H 0.9383 0.16264 0.3657 0.0
H739 H 0.96984 0.16586 0.38244 0.0
C740 C 0.11879 0.93608 0.47692 0.0
C741 C 0.135 0.92735 0.47012 0.0
C742 C 0.1182 0.95444 0.48443 0.0
C743 C 0.14731 0.99212 0.52713 0.0
H744 H 0.10799 0.02056 0.47368 0.0
C745 C 0.14846 0.06836 0.52625 0.0
C746 C 0.13383 0.07693 0.55147 0.0
C747 C 0.14819 0.05017 0.51609 0.0
C748 C 0.119 0.01273 0.48916 0.0
H749 H 0.16321 0.93108 0.46251 0.0
H750 H 0.16218 0.963 0.47251 0.0
H751 H 0.10841 0.98892 0.45291 0.0
H752 H 0.10736 0.0731 0.5851 0.0
H753 H 0.10678 0.04125 0.56609 0.0
H754 H 0.15809 0.0161 0.56177 0.0
C755 C 0.14992 0.95575 0.47469 0.0
C756 C 0.11924 0.99457 0.47748 0.0
C757 C 0.15052 0.93741 0.46829 0.0
C758 C 0.11886 0.06688 0.56584 0.0
C759 C 0.11848 0.04868 0.55465 0.0
C760 C 0.14719 0.01028 0.5379 0.0
C761 C 0.1338 0.96453 0.48437 0.0
C762 C 0.13343 0.98397 0.49623 0.0
C763 C 0.13319 0.04014 0.52995 0.0
C764 C 0.13305 0.02079 0.51906 0.0
H765 H 0.10661 0.92865 0.47899 0.0
H766 H 0.10554 0.96059 0.49234 0.0
H767 H 0.15826 0.98446 0.54385 0.0
H768 H 0.16021 0.0757 0.51473 0.0
H769 H 0.15967 0.04395 0.49666 0.0
C770 C 0.06481 0.85881 0.48665 0.0
C771 C 0.07089 0.86763 0.43604 0.0
C772 C 0.04686 0.8584 0.50057 0.0
C773 C 0.00423 0.88083 0.47167 0.0
H774 H 0.98454 0.83731 0.53255 0.0
C775 C 0.93204 0.87587 0.55788 0.0
C776 C 0.9226 0.86072 0.54111 0.0
C777 C 0.95025 0.87706 0.54745 0.0
C778 C 0.98977 0.84956 0.51537 0.0
H779 H 0.06267 0.88302 0.36048 0.0
H780 H 0.03124 0.88214 0.38449 0.0
H781 H 0.01567 0.83867 0.50718 0.0
H782 H 0.92505 0.83482 0.50108 0.0
H783 H 0.95653 0.8369 0.483 0.0
H784 H 0.97814 0.89157 0.47876 0.0
C785 C 0.04046 0.87569 0.41378 0.0
C786 C 0.00771 0.8504 0.50136 0.0
C787 C 0.05848 0.87609 0.39977 0.0
C788 C 0.93186 0.84669 0.51478 0.0
C789 C 0.94999 0.84784 0.50462 0.0
C790 C 0.98624 0.88 0.48587 0.0
C791 C 0.0344 0.86679 0.46433 0.0
C792 C 0.01521 0.86602 0.47916 0.0
C793 C 0.95945 0.86307 0.52037 0.0
C794 C 0.97875 0.86431 0.50761 0.0
H795 H 0.07395 0.85225 0.51597 0.0
H796 H 0.04277 0.85166 0.54032 0.0
H797 H 0.00955 0.89314 0.45528 0.0
H798 H 0.92533 0.88695 0.57808 0.0
H799 H 0.95714 0.88892 0.56074 0.0
C800 C 0.34836 0.18156 0.11638 0.0
C801 C 0.35895 0.17399 0.16042 0.0
C802 C 0.34735 0.19988 0.11006 0.0
C803 C 0.35649 0.2422 0.18669 0.0
H804 H 0.35842 0.26091 0.02794 0.0
C805 C 0.37032 0.31573 0.13768 0.0
C806 C 0.36052 0.32379 0.09259 0.0
C807 C 0.36926 0.29753 0.14704 0.0
C808 C 0.35765 0.25591 0.07253 0.0
H809 H 0.37647 0.17989 0.23329 0.0
H810 H 0.37485 0.21178 0.22181 0.0
H811 H 0.3578 0.2291 0.04307 0.0
H812 H 0.34186 0.31899 0.02213 0.0
H813 H 0.33999 0.28725 0.03862 0.0
H814 H 0.35657 0.26906 0.21607 0.0
C815 C 0.36715 0.20355 0.19255 0.0
C816 C 0.35727 0.23766 0.08124 0.0
C817 C 0.36814 0.18523 0.19897 0.0
C818 C 0.34961 0.31322 0.05716 0.0
C819 C 0.34861 0.295 0.06641 0.0
C820 C 0.35691 0.26046 0.17797 0.0
C821 C 0.35693 0.21111 0.14752 0.0
C822 C 0.35675 0.23056 0.13843 0.0
C823 C 0.35843 0.28694 0.11143 0.0
C824 C 0.35757 0.26753 0.12078 0.0
H825 H 0.34102 0.17334 0.08607 0.0
H826 H 0.33911 0.20526 0.07556 0.0
H827 H 0.35584 0.2372 0.2313 0.0
H828 H 0.37885 0.32347 0.16583 0.0
H829 H 0.37717 0.29171 0.18162 0.0
C830 C 0.32608 0.6476 0.94026 0.0
C831 C 0.33513 0.63946 0.89349 0.0
C832 C 0.30766 0.64808 0.94105 0.0
C833 C 0.26885 0.63859 0.94902 0.0
H834 H 0.2435 0.64436 0.80227 0.0
C835 C 0.19355 0.62818 0.93186 0.0
C836 C 0.18407 0.63909 0.89322 0.0
C837 C 0.21196 0.62881 0.93335 0.0
C838 C 0.25033 0.64295 0.8438 0.0
H839 H 0.33188 0.62526 0.81123 0.0
H840 H 0.29988 0.62571 0.81333 0.0
H841 H 0.27549 0.64493 0.80201 0.0
H842 H 0.18645 0.65959 0.82708 0.0
H843 H 0.21845 0.66101 0.83075 0.0
H844 H 0.24363 0.63715 0.99102 0.0
C845 C 0.30696 0.63212 0.84874 0.0
C846 C 0.26873 0.64301 0.84353 0.0
C847 C 0.32535 0.63177 0.8477 0.0
C848 C 0.19337 0.65089 0.85699 0.0
C849 C 0.21174 0.65162 0.85884 0.0
C850 C 0.25042 0.63866 0.94935 0.0
C851 C 0.29786 0.64032 0.89532 0.0
C852 C 0.27824 0.64071 0.89605 0.0
C853 C 0.2213 0.64047 0.8966 0.0
C854 C 0.24092 0.64076 0.89669 0.0
H855 H 0.33323 0.65371 0.97612 0.0
H856 H 0.30112 0.65473 0.9772 0.0
H857 H 0.27571 0.6366 0.99024 0.0
H858 H 0.18679 0.61891 0.96024 0.0
H859 H 0.21887 0.61985 0.96241 0.0
C860 C 0.61577 0.8248 0.09268 0.0
C861 C 0.63072 0.83377 0.11348 0.0
C862 C 0.616 0.80644 0.08676 0.0
C863 C 0.6435 0.76925 0.05631 0.0
H864 H 0.61276 0.74126 0.15564 0.0
C865 C 0.65119 0.69374 0.07199 0.0
C866 C 0.63611 0.6835 0.08204 0.0
C867 C 0.65026 0.71214 0.07437 0.0
C868 C 0.6212 0.7488 0.12659 0.0
H869 H 0.65773 0.83073 0.14281 0.0
H870 H 0.65827 0.79864 0.13039 0.0
H871 H 0.61119 0.77337 0.15973 0.0
H872 H 0.60811 0.68433 0.10066 0.0
H873 H 0.60622 0.71636 0.1018 0.0
H874 H 0.65315 0.74495 0.0213 0.0
C875 C 0.64636 0.80584 0.11971 0.0
C876 C 0.62033 0.76719 0.12937 0.0
C877 C 0.646 0.82412 0.12702 0.0
C878 C 0.62001 0.69194 0.09353 0.0
C879 C 0.61897 0.71033 0.09454 0.0
C880 C 0.6441 0.75086 0.05247 0.0
C881 C 0.63132 0.79687 0.10006 0.0
C882 C 0.63159 0.77751 0.09469 0.0
C883 C 0.63411 0.72071 0.08546 0.0
C884 C 0.63309 0.74035 0.08805 0.0
H885 H 0.60382 0.83193 0.08212 0.0
H886 H 0.60428 0.7997 0.07149 0.0
H887 H 0.65223 0.77705 0.02898 0.0
H888 H 0.6638 0.68752 0.06343 0.0
H889 H 0.6623 0.71958 0.06839 0.0
C890 C 0.80802 0.34814 0.8474 0.0
C891 C 0.81672 0.36394 0.86124 0.0
C892 C 0.78985 0.34654 0.85617 0.0
C893 C 0.75025 0.34918 0.84659 0.0
H894 H 0.72731 0.37526 0.97193 0.0
C895 C 0.6749 0.35801 0.85409 0.0
C896 C 0.66645 0.35991 0.9088 0.0
C897 C 0.69325 0.35706 0.85061 0.0
C898 C 0.73346 0.36762 0.93725 0.0
H899 H 0.81326 0.39055 0.8943 0.0
H900 H 0.78153 0.38811 0.90697 0.0
H901 H 0.75913 0.376 0.96344 0.0
H902 H 0.67058 0.36149 0.00305 0.0
H903 H 0.70254 0.35896 0.99738 0.0
H904 H 0.72466 0.34013 0.82209 0.0
C905 C 0.78871 0.37668 0.89139 0.0
C906 C 0.75178 0.36832 0.93166 0.0
C907 C 0.80692 0.37815 0.88369 0.0
C908 C 0.67672 0.36018 0.96018 0.0
C909 C 0.69508 0.35888 0.95681 0.0
C910 C 0.73196 0.34822 0.85283 0.0
C911 C 0.7799 0.36083 0.87793 0.0
C912 C 0.76043 0.35933 0.88572 0.0
C913 C 0.70363 0.35763 0.90187 0.0
C914 C 0.72326 0.35764 0.8977 0.0
H915 H 0.81528 0.33691 0.83057 0.0
H916 H 0.78368 0.33401 0.84639 0.0
H917 H 0.75633 0.34223 0.8102 0.0
H918 H 0.66739 0.35793 0.8136 0.0
H919 H 0.69926 0.35645 0.8074 0.0
C920 C 0.8682 0.68121 0.72197 0.0
C921 C 0.85961 0.67111 0.67865 0.0
C922 C 0.86772 0.69962 0.72 0.0
C923 C 0.86176 0.73598 0.61503 0.0
H924 H 0.85737 0.76481 0.75545 0.0
C925 C 0.85503 0.8115 0.60333 0.0
C926 C 0.86461 0.82155 0.64432 0.0
C927 C 0.85392 0.79321 0.60895 0.0
C928 C 0.8588 0.75693 0.71593 0.0
H929 H 0.84323 0.67253 0.60052 0.0
H930 H 0.84228 0.70464 0.59753 0.0
H931 H 0.85566 0.73272 0.76342 0.0
H932 H 0.88047 0.82023 0.72358 0.0
H933 H 0.87867 0.78819 0.733 0.0
H934 H 0.86503 0.7601 0.56755 0.0
C935 C 0.84962 0.69829 0.63246 0.0
C936 C 0.85778 0.73856 0.72049 0.0
C937 C 0.85007 0.67987 0.63442 0.0
C938 C 0.873 0.81287 0.69123 0.0
C939 C 0.87187 0.79453 0.69687 0.0
C940 C 0.86278 0.75431 0.61049 0.0
C941 C 0.85866 0.70836 0.67468 0.0
C942 C 0.85926 0.72789 0.67005 0.0
C943 C 0.86235 0.7845 0.65566 0.0
C944 C 0.86131 0.765 0.66085 0.0
H945 H 0.87568 0.67491 0.75669 0.0
H946 H 0.87495 0.707 0.75289 0.0
H947 H 0.86329 0.72813 0.57549 0.0
H948 H 0.84834 0.81776 0.56679 0.0
H949 H 0.84627 0.7859 0.57696 0.0
C950 C 0.82407 0.14027 0.46101 0.0
C951 C 0.8343 0.14131 0.40951 0.0
C952 C 0.8057 0.14125 0.45813 0.0
C953 C 0.76736 0.13237 0.43833 0.0
H954 H 0.74421 0.15911 0.31541 0.0
C955 C 0.69363 0.12272 0.38646 0.0
C956 C 0.6839 0.13722 0.36602 0.0
C957 C 0.71187 0.12398 0.39372 0.0
C958 C 0.75036 0.15176 0.35068 0.0
H959 H 0.83326 0.14425 0.31464 0.0
H960 H 0.80136 0.14519 0.3092 0.0
H961 H 0.77588 0.16114 0.32653 0.0
H962 H 0.68549 0.16456 0.33874 0.0
H963 H 0.71711 0.16708 0.35391 0.0
H964 H 0.74175 0.12366 0.46433 0.0
C965 C 0.80741 0.14422 0.35219 0.0
C966 C 0.76866 0.15269 0.35641 0.0
C967 C 0.82577 0.14358 0.35521 0.0
C968 C 0.6927 0.1531 0.35391 0.0
C969 C 0.71088 0.15448 0.3623 0.0
C970 C 0.74902 0.13169 0.43329 0.0
C971 C 0.79708 0.14295 0.40355 0.0
C972 C 0.77746 0.14282 0.3998 0.0
C973 C 0.72077 0.1399 0.38184 0.0
C974 C 0.74027 0.1412 0.38891 0.0
H975 H 0.83027 0.13864 0.50359 0.0
H976 H 0.79827 0.14062 0.49881 0.0
H977 H 0.7736 0.12437 0.47183 0.0
H978 H 0.6872 0.11027 0.39576 0.0
H979 H 0.719 0.11234 0.40766 0.0
C980 C 0.13426 0.31676 0.70985 0.0
C981 C 0.14272 0.32828 0.67036 0.0
C982 C 0.1352 0.29847 0.70196 0.0
C983 C 0.1438 0.26478 0.58693 0.0
H984 H 0.14544 0.23291 0.72022 0.0
C985 C 0.15029 0.18892 0.55996 0.0
C986 C 0.13945 0.17849 0.59619 0.0
C987 C 0.15164 0.20714 0.56928 0.0
C988 C 0.14484 0.24163 0.68253 0.0
H989 H 0.15932 0.32944 0.59254 0.0
H990 H 0.16123 0.29757 0.57952 0.0
H991 H 0.14662 0.26468 0.73673 0.0
H992 H 0.12159 0.17911 0.6709 0.0
H993 H 0.12393 0.2108 0.68699 0.0
H994 H 0.14202 0.24169 0.5328 0.0
C995 C 0.15355 0.30269 0.61595 0.0
C996 C 0.1455 0.25987 0.69199 0.0
C997 C 0.15256 0.321 0.62371 0.0
C998 C 0.13006 0.18671 0.64209 0.0
C999 C 0.1315 0.20489 0.65162 0.0
C1000 C 0.14322 0.24654 0.57748 0.0
C1001 C 0.14469 0.29118 0.65451 0.0
C1002 C 0.14484 0.27171 0.64435 0.0
C1003 C 0.14228 0.21534 0.61531 0.0
C1004 C 0.14358 0.23474 0.62519 0.0
H1005 H 0.12649 0.32185 0.74612 0.0
H1006 H 0.12801 0.29007 0.73214 0.0
H1007 H 0.14296 0.27346 0.54919 0.0
H1008 H 0.15771 0.18303 0.52423 0.0
H1009 H 0.16018 0.21478 0.54083 0.0
C1010 C 0.31345 0.8573 0.31348 0.0
C1011 C 0.32381 0.86771 0.35124 0.0
C1012 C 0.29503 0.85752 0.31773 0.0
C1013 C 0.2562 0.86803 0.314 0.0
H1014 H 0.23429 0.86987 0.4682 0.0
C1015 C 0.18102 0.87903 0.34558 0.0
C1016 C 0.17259 0.86937 0.39038 0.0
C1017 C 0.19942 0.87883 0.34011 0.0
C1018 C 0.24016 0.86922 0.42476 0.0
H1019 H 0.32281 0.88656 0.42312 0.0
H1020 H 0.29079 0.88707 0.43011 0.0
H1021 H 0.26628 0.86907 0.46014 0.0
H1022 H 0.17703 0.85178 0.46423 0.0
H1023 H 0.20896 0.85129 0.45432 0.0
H1024 H 0.23003 0.86782 0.2787 0.0
C1025 C 0.29688 0.87854 0.39766 0.0
C1026 C 0.25855 0.86898 0.42011 0.0
C1027 C 0.31528 0.87832 0.3934 0.0
C1028 C 0.18304 0.85945 0.42934 0.0
C1029 C 0.2014 0.85925 0.42389 0.0
C1030 C 0.23778 0.86829 0.31865 0.0
C1031 C 0.28648 0.86814 0.35989 0.0
C1032 C 0.26684 0.86837 0.36468 0.0
C1033 C 0.20987 0.86897 0.37933 0.0
C1034 C 0.2295 0.86886 0.37412 0.0
H1035 H 0.31956 0.84895 0.28054 0.0
H1036 H 0.28749 0.84917 0.28841 0.0
H1037 H 0.26209 0.86775 0.27056 0.0
H1038 H 0.17341 0.88683 0.31481 0.0
H1039 H 0.20547 0.88663 0.30567 0.0
C1040 C 0.19211 0.12516 0.70712 0.0
C1041 C 0.1828 0.10933 0.69862 0.0
C1042 C 0.20803 0.12521 0.73799 0.0
C1043 C 0.24456 0.09726 0.78927 0.0
H1044 H 0.24728 0.1306 0.91854 0.0
C1045 C 0.29843 0.0918 0.96695 0.0
C1046 C 0.30568 0.10749 0.9892 0.0
C1047 C 0.28366 0.09227 0.9303 0.0
C1048 C 0.24692 0.12138 0.88213 0.0
H1049 H 0.18334 0.08105 0.71295 0.0
H1050 H 0.2113 0.08113 0.76595 0.0
H1051 H 0.222 0.13125 0.85263 0.0
H1052 H 0.3031 0.13599 0.99059 0.0
H1053 H 0.27765 0.13685 0.92557 0.0
H1054 H 0.26954 0.08749 0.81805 0.0
C1055 C 0.20622 0.09349 0.74908 0.0
C1056 C 0.2324 0.12176 0.84439 0.0
C1057 C 0.19019 0.09346 0.71889 0.0
C1058 C 0.29773 0.12365 0.97458 0.0
C1059 C 0.28308 0.12413 0.93739 0.0
C1060 C 0.25919 0.09701 0.8266 0.0
C1061 C 0.21507 0.10941 0.76021 0.0
C1062 C 0.23101 0.10962 0.79787 0.0
C1063 C 0.2759 0.10845 0.91444 0.0
C1064 C 0.26049 0.10896 0.87388 0.0
H1065 H 0.18673 0.13762 0.6922 0.0
H1066 H 0.21468 0.13765 0.74545 0.0
H1067 H 0.24389 0.08785 0.75343 0.0
H1068 H 0.30419 0.07913 0.97768 0.0
H1069 H 0.2783 0.0799 0.91458 0.0
C1070 C 0.13406 0.6962 0.03354 0.0
C1071 C 0.11826 0.68724 0.02117 0.0
C1072 C 0.13377 0.71263 0.06201 0.0
C1073 C 0.10499 0.75082 0.09432 0.0
H1074 H 0.13546 0.75817 0.22894 0.0
C1075 C 0.09443 0.80999 0.24915 0.0
C1076 C 0.10931 0.81872 0.27153 0.0
C1077 C 0.09613 0.79388 0.21959 0.0
C1078 C 0.12702 0.75648 0.19099 0.0
H1079 H 0.08978 0.68879 0.02746 0.0
H1080 H 0.08929 0.71745 0.07608 0.0
H1081 H 0.13772 0.73086 0.17221 0.0
H1082 H 0.13767 0.81712 0.28143 0.0
H1083 H 0.14072 0.78916 0.22889 0.0
H1084 H 0.09438 0.77639 0.11222 0.0
C1085 C 0.1019 0.7118 0.064 0.0
C1086 C 0.12833 0.74079 0.15847 0.0
C1087 C 0.10219 0.69532 0.0363 0.0
C1088 C 0.12592 0.81068 0.2651 0.0
C1089 C 0.12765 0.79461 0.23498 0.0
C1090 C 0.10378 0.76652 0.12642 0.0
C1091 C 0.11767 0.72056 0.07791 0.0
C1092 C 0.11717 0.73769 0.11017 0.0
C1093 C 0.1128 0.78612 0.21092 0.0
C1094 C 0.1146 0.76951 0.17575 0.0
H1095 H 0.14665 0.69029 0.02273 0.0
H1096 H 0.14614 0.71913 0.0717 0.0
H1097 H 0.09639 0.74896 0.0568 0.0
H1098 H 0.08142 0.81573 0.25369 0.0
H1099 H 0.08432 0.78757 0.20318 0.0
C1100 C 0.69036 0.87829 0.99429 0.0
C1101 C 0.68256 0.89497 0.00233 0.0
C1102 C 0.70697 0.87672 0.96745 0.0
C1103 C 0.74748 0.90181 0.93266 0.0
H1104 H 0.75353 0.86808 0.80577 0.0
C1105 C 0.80835 0.90485 0.78166 0.0
C1106 C 0.81607 0.88897 0.76271 0.0
C1107 C 0.79199 0.90489 0.81014 0.0
C1108 C 0.7522 0.87741 0.84162 0.0
H1109 H 0.68637 0.92308 0.99002 0.0
H1110 H 0.71532 0.92037 0.94439 0.0
H1111 H 0.72575 0.86905 0.86023 0.0
H1112 H 0.81241 0.86065 0.75784 0.0
H1113 H 0.78399 0.86065 0.80861 0.0
H1114 H 0.77387 0.91009 0.91501 0.0
C1115 C 0.70863 0.90848 0.95857 0.0
C1116 C 0.73624 0.87796 0.87285 0.0
C1117 C 0.69198 0.91003 0.9846 0.0
C1118 C 0.80678 0.87314 0.7715 0.0
C1119 C 0.79044 0.87316 0.80061 0.0
C1120 C 0.76346 0.90116 0.9019 0.0
C1121 C 0.71625 0.89181 0.9489 0.0
C1122 C 0.73361 0.89033 0.91827 0.0
C1123 C 0.78294 0.88903 0.82124 0.0
C1124 C 0.766 0.88914 0.85531 0.0
H1125 H 0.68342 0.86642 0.00711 0.0
H1126 H 0.71254 0.8637 0.96107 0.0
H1127 H 0.74601 0.9113 0.96801 0.0
H1128 H 0.81506 0.91731 0.77519 0.0
H1129 H 0.7865 0.91744 0.82376 0.0
C1130 C 0.90276 0.31336 0.97627 0.0
C1131 C 0.88645 0.32055 0.95962 0.0
C1132 C 0.90364 0.29679 0.00297 0.0
C1133 C 0.87753 0.26771 0.09586 0.0
H1134 H 0.9129 0.23258 0.05748 0.0
C1135 C 0.88018 0.20045 0.21466 0.0
C1136 C 0.89684 0.19318 0.22642 0.0
C1137 C 0.87854 0.21544 0.17932 0.0
C1138 C 0.90308 0.24234 0.06932 0.0
H1139 H 0.85829 0.31576 0.9561 0.0
H1140 H 0.85983 0.28683 0.00337 0.0
H1141 H 0.91068 0.25935 0.99831 0.0
H1142 H 0.92489 0.19614 0.21121 0.0
H1143 H 0.92212 0.22263 0.15126 0.0
H1144 H 0.87026 0.25113 0.16795 0.0
C1145 C 0.87192 0.29406 0.99573 0.0
C1146 C 0.90176 0.25762 0.03513 0.0
C1147 C 0.87107 0.31056 0.96831 0.0
C1148 C 0.91186 0.20137 0.20272 0.0
C1149 C 0.91024 0.21649 0.1679 0.0
C1150 C 0.87897 0.25254 0.13044 0.0
C1151 C 0.88819 0.28715 0.0142 0.0
C1152 C 0.88901 0.27048 0.04819 0.0
C1153 C 0.89355 0.22366 0.1554 0.0
C1154 C 0.89181 0.23968 0.11782 0.0
H1155 H 0.91485 0.32074 0.97004 0.0
H1156 H 0.91634 0.29184 0.01705 0.0
H1157 H 0.86776 0.27754 0.10752 0.0
H1158 H 0.86833 0.19435 0.23181 0.0
H1159 H 0.86546 0.22039 0.16997 0.0
C1160 C 0.30665 0.37635 0.20829 0.0
C1161 C 0.31556 0.39229 0.1976 0.0
C1162 C 0.29083 0.37626 0.23995 0.0
C1163 C 0.25385 0.40401 0.28994 0.0
H1164 H 0.25196 0.37176 0.42227 0.0
C1165 C 0.20059 0.41041 0.47004 0.0
C1166 C 0.19363 0.39487 0.49434 0.0
C1167 C 0.21518 0.40977 0.43242 0.0
C1168 C 0.25209 0.38067 0.38502 0.0
H1169 H 0.31443 0.42068 0.20903 0.0
H1170 H 0.28666 0.42051 0.26342 0.0
H1171 H 0.27708 0.37092 0.35538 0.0
H1172 H 0.19653 0.36642 0.49824 0.0
H1173 H 0.22167 0.36523 0.43159 0.0
H1174 H 0.22882 0.41367 0.31892 0.0
C1175 C 0.29196 0.4081 0.24762 0.0
C1176 C 0.26652 0.38018 0.34671 0.0
C1177 C 0.30788 0.40819 0.21664 0.0
C1178 C 0.20167 0.37866 0.48065 0.0
C1179 C 0.21615 0.37799 0.44252 0.0
C1180 C 0.23932 0.40438 0.32786 0.0
C1181 C 0.28349 0.39211 0.26082 0.0
C1182 C 0.26762 0.39194 0.29908 0.0
C1183 C 0.22305 0.39353 0.41763 0.0
C1184 C 0.23832 0.39282 0.37628 0.0
H1185 H 0.31226 0.36388 0.19438 0.0
H1186 H 0.28447 0.36375 0.24899 0.0
H1187 H 0.25428 0.41312 0.25324 0.0
H1188 H 0.19475 0.42312 0.47997 0.0
H1189 H 0.22033 0.42204 0.41518 0.0
C1190 C 0.3786 0.69752 0.71656 0.0
C1191 C 0.3951 0.68963 0.72671 0.0
C1192 C 0.37739 0.71349 0.68573 0.0
C1193 C 0.40318 0.75274 0.64411 0.0
H1194 H 0.36977 0.75738 0.51609 0.0
C1195 C 0.40685 0.81159 0.48559 0.0
C1196 C 0.39099 0.81938 0.46719 0.0
C1197 C 0.4068 0.79545 0.51531 0.0
C1198 C 0.37902 0.75642 0.55217 0.0
H1199 H 0.42326 0.69252 0.71342 0.0
H1200 H 0.42115 0.72039 0.66054 0.0
H1201 H 0.37032 0.73034 0.57462 0.0
H1202 H 0.36263 0.81608 0.4642 0.0
H1203 H 0.36249 0.78805 0.51713 0.0
H1204 H 0.41178 0.77878 0.6227 0.0
C1205 C 0.40915 0.71425 0.67628 0.0
C1206 C 0.37933 0.7409 0.58568 0.0
C1207 C 0.41035 0.69823 0.70639 0.0
C1208 C 0.37509 0.81037 0.47746 0.0
C1209 C 0.37502 0.79427 0.50779 0.0
C1210 C 0.40278 0.76827 0.61104 0.0
C1211 C 0.39266 0.72201 0.66517 0.0
C1212 C 0.39156 0.73882 0.6316 0.0
C1213 C 0.39087 0.78676 0.52811 0.0
C1214 C 0.39085 0.77027 0.5641 0.0
H1215 H 0.3666 0.69119 0.73145 0.0
H1216 H 0.36451 0.71922 0.67822 0.0
H1217 H 0.41256 0.75165 0.67983 0.0
H1218 H 0.41934 0.81811 0.47794 0.0
H1219 H 0.4193 0.78989 0.52879 0.0
C1220 C 0.69125 0.59974 0.216 0.0
C1221 C 0.68362 0.61585 0.1991 0.0
C1222 C 0.70718 0.59943 0.24673 0.0
C1223 C 0.73273 0.62591 0.34943 0.0
H1224 H 0.77023 0.59261 0.31599 0.0
C1225 C 0.79747 0.62472 0.48379 0.0
C1226 C 0.80544 0.60827 0.49406 0.0
C1227 C 0.78298 0.62614 0.44609 0.0
C1228 C 0.75978 0.60183 0.32652 0.0
H1229 H 0.68696 0.64427 0.19958 0.0
H1230 H 0.71478 0.64371 0.25396 0.0
H1231 H 0.74485 0.59431 0.25051 0.0
H1232 H 0.80412 0.58032 0.47428 0.0
H1233 H 0.77851 0.58265 0.41034 0.0
H1234 H 0.74725 0.63307 0.4264 0.0
C1235 C 0.70839 0.63134 0.24328 0.0
C1236 C 0.74531 0.60287 0.2887 0.0
C1237 C 0.69257 0.63164 0.21174 0.0
C1238 C 0.79834 0.59321 0.46699 0.0
C1239 C 0.78374 0.59458 0.42984 0.0
C1240 C 0.74711 0.62474 0.38767 0.0
C1241 C 0.7157 0.61523 0.26191 0.0
C1242 C 0.73159 0.61486 0.29989 0.0
C1243 C 0.77599 0.6111 0.41823 0.0
C1244 C 0.76079 0.61261 0.37694 0.0
H1245 H 0.68467 0.58736 0.20686 0.0
H1246 H 0.71244 0.58683 0.2608 0.0
H1247 H 0.72222 0.6351 0.35965 0.0
H1248 H 0.80272 0.63662 0.50358 0.0
H1249 H 0.77755 0.6391 0.43773 0.0
C1250 C 0.62991 0.19149 0.47393 0.0
C1251 C 0.6146 0.18131 0.46659 0.0
C1252 C 0.62898 0.20814 0.50036 0.0
C1253 C 0.59886 0.24452 0.53863 0.0
H1254 H 0.63059 0.25216 0.66981 0.0
C1255 C 0.58849 0.30154 0.70364 0.0
C1256 C 0.60347 0.31 0.72635 0.0
C1257 C 0.59019 0.28629 0.66939 0.0
C1258 C 0.62181 0.25043 0.63272 0.0
H1259 H 0.58624 0.18091 0.47835 0.0
H1260 H 0.5846 0.21007 0.52364 0.0
H1261 H 0.63326 0.22543 0.61091 0.0
H1262 H 0.63202 0.30921 0.73042 0.0
H1263 H 0.63503 0.28296 0.66958 0.0
H1264 H 0.58747 0.26955 0.5599 0.0
C1265 C 0.59731 0.20516 0.50928 0.0
C1266 C 0.62335 0.23508 0.59902 0.0
C1267 C 0.59827 0.18844 0.48359 0.0
C1268 C 0.62019 0.30291 0.71406 0.0
C1269 C 0.62191 0.28779 0.6793 0.0
C1270 C 0.59743 0.25998 0.57193 0.0
C1271 C 0.6127 0.21501 0.51912 0.0
C1272 C 0.61179 0.23189 0.552 0.0
C1273 C 0.60694 0.27926 0.65651 0.0
C1274 C 0.60878 0.26306 0.61981 0.0
H1275 H 0.6427 0.18633 0.4614 0.0
H1276 H 0.64102 0.21555 0.50698 0.0
H1277 H 0.58987 0.24246 0.50228 0.0
H1278 H 0.57542 0.30664 0.71255 0.0
H1279 H 0.57835 0.27992 0.65357 0.0
C1280 C 0.39191 0.10429 0.45821 0.0
C1281 C 0.38622 0.1181 0.42157 0.0
C1282 C 0.39137 0.1061 0.51947 0.0
C1283 C 0.36966 0.1323 0.63644 0.0
H1284 H 0.40649 0.1131 0.73587 0.0
C1285 C 0.37077 0.14652 0.88353 0.0
C1286 C 0.37269 0.1318 0.92057 0.0
C1287 C 0.3744 0.1452 0.82349 0.0
C1288 C 0.39608 0.11844 0.7086 0.0
H1289 H 0.37588 0.14479 0.42048 0.0
H1290 H 0.37526 0.14808 0.527 0.0
H1291 H 0.40871 0.1101 0.62886 0.0
H1292 H 0.38098 0.10443 0.92419 0.0
H1293 H 0.38737 0.10214 0.81885 0.0
H1294 H 0.35706 0.14068 0.71588 0.0
C1295 C 0.37977 0.13568 0.5086 0.0
C1296 C 0.3973 0.11668 0.64736 0.0
C1297 C 0.3802 0.13383 0.44745 0.0
C1298 C 0.37935 0.116 0.8968 0.0
C1299 C 0.38303 0.1147 0.83652 0.0
C1300 C 0.3685 0.13414 0.69742 0.0
C1301 C 0.38522 0.1218 0.54542 0.0
C1302 C 0.3841 0.12362 0.61055 0.0
C1303 C 0.38008 0.12915 0.79902 0.0
C1304 C 0.3817 0.12728 0.73419 0.0
H1305 H 0.39659 0.09198 0.43964 0.0
H1306 H 0.39546 0.09507 0.54646 0.0
H1307 H 0.35905 0.13745 0.60965 0.0
H1308 H 0.36584 0.15895 0.90048 0.0
H1309 H 0.37235 0.15667 0.79587 0.0
C1310 C 0.14792 0.62702 0.60485 0.0
C1311 C 0.1329 0.61978 0.63168 0.0
C1312 C 0.15008 0.62614 0.54395 0.0
C1313 C 0.13419 0.6033 0.40995 0.0
H1314 H 0.1518 0.64532 0.33237 0.0
C1315 C 0.1297 0.61635 0.15884 0.0
C1316 C 0.14431 0.62448 0.13223 0.0
C1317 C 0.12926 0.61378 0.21974 0.0
C1318 C 0.14709 0.6334 0.35346 0.0
H1319 H 0.10844 0.60574 0.61595 0.0
H1320 H 0.11201 0.60458 0.50933 0.0
H1321 H 0.14904 0.64491 0.43895 0.0
H1322 H 0.17033 0.63539 0.14801 0.0
H1323 H 0.16954 0.63088 0.25401 0.0
H1324 H 0.13189 0.59201 0.32371 0.0
C1325 C 0.12228 0.61066 0.53546 0.0
C1326 C 0.14552 0.63315 0.41454 0.0
C1327 C 0.12017 0.61144 0.5965 0.0
C1328 C 0.15879 0.62925 0.16723 0.0
C1329 C 0.15833 0.62673 0.22796 0.0
C1330 C 0.13567 0.60359 0.34861 0.0
C1331 C 0.13719 0.61812 0.5085 0.0
C1332 C 0.13907 0.61811 0.44353 0.0
C1333 C 0.1434 0.61936 0.25495 0.0
C1334 C 0.14217 0.61865 0.31988 0.0
H1335 H 0.15805 0.63337 0.63086 0.0
H1336 H 0.16187 0.63173 0.52464 0.0
H1337 H 0.12936 0.59144 0.43107 0.0
H1338 H 0.11836 0.61248 0.13296 0.0
H1339 H 0.11755 0.60814 0.23951 0.0
C1340 C 0.6353 0.87497 0.40838 0.0
C1341 C 0.62902 0.8904 0.38128 0.0
C1342 C 0.63443 0.87307 0.46944 0.0
C1343 C 0.61078 0.88991 0.59986 0.0
H1344 H 0.6496 0.86874 0.68527 0.0
C1345 C 0.61642 0.89057 0.85388 0.0
C1346 C 0.62307 0.87529 0.88094 0.0
C1347 C 0.61606 0.89193 0.79256 0.0
C1348 C 0.63855 0.87447 0.66193 0.0
H1349 H 0.61725 0.91608 0.39701 0.0
H1350 H 0.61598 0.91285 0.50365 0.0
H1351 H 0.65178 0.87245 0.57901 0.0
H1352 H 0.63377 0.84914 0.86499 0.0
H1353 H 0.63297 0.8515 0.75815 0.0
H1354 H 0.59763 0.89204 0.68307 0.0
C1355 C 0.62129 0.90211 0.47761 0.0
C1356 C 0.63981 0.87661 0.60108 0.0
C1357 C 0.62215 0.904 0.41655 0.0
C1358 C 0.62868 0.86115 0.84552 0.0
C1359 C 0.62834 0.86253 0.78431 0.0
C1360 C 0.60954 0.88779 0.6608 0.0
C1361 C 0.62729 0.88656 0.50467 0.0
C1362 C 0.62595 0.88435 0.56937 0.0
C1363 C 0.62235 0.87806 0.75721 0.0
C1364 C 0.62341 0.88004 0.69243 0.0
H1365 H 0.6406 0.86421 0.3824 0.0
H1366 H 0.63898 0.86086 0.48893 0.0
H1367 H 0.59976 0.89567 0.57651 0.0
H1368 H 0.612 0.90169 0.88 0.0
H1369 H 0.61146 0.90411 0.7729 0.0
C1370 C 0.84693 0.36815 0.12649 0.0
C1371 C 0.86 0.37558 0.09028 0.0
C1372 C 0.84833 0.36899 0.18768 0.0
C1373 C 0.88123 0.37383 0.30538 0.0
H1374 H 0.84007 0.38064 0.40428 0.0
C1375 C 0.8856 0.38047 0.55848 0.0
C1376 C 0.8727 0.37175 0.59211 0.0
C1377 C 0.88416 0.38139 0.49727 0.0
C1378 C 0.85165 0.37854 0.37726 0.0
H1379 H 0.88456 0.39019 0.09002 0.0
H1380 H 0.88692 0.39183 0.1972 0.0
H1381 H 0.83719 0.38246 0.29755 0.0
H1382 H 0.84827 0.35698 0.58767 0.0
H1383 H 0.84584 0.35847 0.48062 0.0
H1384 H 0.89568 0.36983 0.38514 0.0
C1385 C 0.8757 0.38513 0.17807 0.0
C1386 C 0.85001 0.37962 0.3161 0.0
C1387 C 0.87429 0.3843 0.11669 0.0
C1388 C 0.85843 0.3638 0.56306 0.0
C1389 C 0.85696 0.36477 0.50177 0.0
C1390 C 0.88287 0.37278 0.36657 0.0
C1391 C 0.86283 0.3773 0.21426 0.0
C1392 C 0.86476 0.37715 0.2794 0.0
C1393 C 0.86977 0.37366 0.46821 0.0
C1394 C 0.86808 0.375 0.40319 0.0
H1395 H 0.83575 0.36132 0.10764 0.0
H1396 H 0.83829 0.36264 0.21414 0.0
H1397 H 0.8928 0.37158 0.2784 0.0
H1398 H 0.89676 0.38676 0.57945 0.0
H1399 H 0.89416 0.38849 0.47279 0.0
C1400 C 0.36477 0.35471 0.35681 0.0
C1401 C 0.37156 0.36808 0.32042 0.0
C1402 C 0.36578 0.35614 0.41794 0.0
C1403 C 0.3696 0.38923 0.53562 0.0
H1404 H 0.37821 0.34829 0.63382 0.0
C1405 C 0.37604 0.39362 0.78879 0.0
C1406 C 0.36778 0.38034 0.82204 0.0
C1407 C 0.37709 0.3923 0.72755 0.0
C1408 C 0.37562 0.3598 0.60698 0.0
H1409 H 0.3852 0.39321 0.31972 0.0
H1410 H 0.38713 0.39562 0.42685 0.0
H1411 H 0.38006 0.34552 0.52702 0.0
H1412 H 0.35394 0.35536 0.81698 0.0
H1413 H 0.35565 0.35312 0.70991 0.0
H1414 H 0.36507 0.40348 0.61564 0.0
C1415 C 0.38081 0.38414 0.40789 0.0
C1416 C 0.37671 0.35823 0.5458 0.0
C1417 C 0.37983 0.3827 0.34655 0.0
C1418 C 0.36041 0.3658 0.79265 0.0
C1419 C 0.3615 0.36446 0.73136 0.0
C1420 C 0.36854 0.3908 0.59683 0.0
C1421 C 0.37361 0.37096 0.44427 0.0
C1422 C 0.37356 0.37289 0.50938 0.0
C1423 C 0.36994 0.37765 0.69817 0.0
C1424 C 0.37139 0.37607 0.63317 0.0
H1425 H 0.3583 0.34327 0.33816 0.0
H1426 H 0.3599 0.34585 0.44459 0.0
H1427 H 0.36683 0.40071 0.50882 0.0
H1428 H 0.38189 0.40499 0.81006 0.0
H1429 H 0.38382 0.4026 0.70331 0.0
C1430 C 0.40201 0.6073 0.18108 0.0
C1431 C 0.38824 0.61371 0.14584 0.0
C1432 C 0.39998 0.6062 0.24213 0.0
C1433 C 0.37316 0.62512 0.36225 0.0
H1434 H 0.39373 0.58754 0.45552 0.0
C1435 C 0.36036 0.621 0.60892 0.0
C1436 C 0.37555 0.62002 0.64405 0.0
C1437 C 0.36129 0.61748 0.5488 0.0
C1438 C 0.38797 0.59811 0.42988 0.0
H1439 H 0.36128 0.62324 0.14638 0.0
H1440 H 0.35757 0.6209 0.25239 0.0
H1441 H 0.39643 0.58681 0.3481 0.0
H1442 H 0.40336 0.61337 0.64455 0.0
H1443 H 0.40496 0.60722 0.53895 0.0
H1444 H 0.36468 0.63641 0.44365 0.0
C1445 C 0.37014 0.61721 0.23331 0.0
C1446 C 0.38955 0.59775 0.36851 0.0
C1447 C 0.37223 0.6185 0.1725 0.0
C1448 C 0.39145 0.61431 0.61853 0.0
C1449 C 0.39236 0.61073 0.55819 0.0
C1450 C 0.37145 0.62539 0.42326 0.0
C1451 C 0.38407 0.61133 0.26899 0.0
C1452 C 0.38218 0.61128 0.33404 0.0
C1453 C 0.3774 0.61286 0.52255 0.0
C1454 C 0.37884 0.61192 0.4577 0.0
H1455 H 0.41451 0.60351 0.16168 0.0
H1456 H 0.41104 0.60179 0.26835 0.0
H1457 H 0.36769 0.63599 0.33729 0.0
H1458 H 0.34785 0.62515 0.62735 0.0
H1459 H 0.3495 0.61892 0.52242 0.0
C1460 C 0.64515 0.6398 0.79532 0.0
C1461 C 0.63786 0.62504 0.82374 0.0
C1462 C 0.64432 0.64138 0.73401 0.0
C1463 C 0.6192 0.62527 0.6052 0.0
H1464 H 0.65853 0.64423 0.51652 0.0
C1465 C 0.62216 0.62528 0.34962 0.0
C1466 C 0.62949 0.64024 0.32247 0.0
C1467 C 0.62254 0.62348 0.41098 0.0
C1468 C 0.64734 0.6391 0.54071 0.0
H1469 H 0.6244 0.60013 0.80981 0.0
H1470 H 0.6232 0.60277 0.70308 0.0
H1471 H 0.66106 0.64071 0.62278 0.0
H1472 H 0.64236 0.66535 0.33869 0.0
H1473 H 0.64282 0.66229 0.44523 0.0
H1474 H 0.60551 0.62363 0.52295 0.0
C1475 C 0.62927 0.61329 0.72816 0.0
C1476 C 0.6488 0.63708 0.60166 0.0
C1477 C 0.63008 0.61172 0.78939 0.0
C1478 C 0.63669 0.65359 0.35807 0.0
C1479 C 0.63708 0.65179 0.41921 0.0
C1480 C 0.61775 0.62728 0.54418 0.0
C1481 C 0.63621 0.62822 0.69973 0.0
C1482 C 0.63474 0.63018 0.63471 0.0
C1483 C 0.63029 0.63659 0.44639 0.0
C1484 C 0.63178 0.63429 0.51124 0.0
H1485 H 0.65117 0.65033 0.82049 0.0
H1486 H 0.64965 0.65314 0.71361 0.0
H1487 H 0.60801 0.62016 0.62941 0.0
H1488 H 0.61657 0.61473 0.32345 0.0
H1489 H 0.61729 0.61156 0.43051 0.0
C1490 C 0.60802 0.38745 0.64441 0.0
C1491 C 0.62375 0.37964 0.66408 0.0
C1492 C 0.60603 0.39218 0.5852 0.0
C1493 C 0.63085 0.39845 0.44473 0.0
H1494 H 0.58707 0.38345 0.37262 0.0
C1495 C 0.62439 0.38484 0.1962 0.0
C1496 C 0.60903 0.39058 0.1675 0.0
C1497 C 0.62584 0.38604 0.25739 0.0
C1498 C 0.59927 0.38795 0.39217 0.0
H1499 H 0.65005 0.3716 0.6377 0.0
H1500 H 0.64653 0.37959 0.53502 0.0
H1501 H 0.59031 0.38198 0.47922 0.0
H1502 H 0.58315 0.40213 0.18066 0.0
H1503 H 0.58567 0.4041 0.28765 0.0
H1504 H 0.63999 0.40384 0.3573 0.0
C1505 C 0.63575 0.38224 0.56505 0.0
C1506 C 0.60112 0.38718 0.45335 0.0
C1507 C 0.63774 0.37754 0.62405 0.0
C1508 C 0.59515 0.39756 0.2014 0.0
C1509 C 0.59656 0.39865 0.2627 0.0
C1510 C 0.62903 0.39913 0.38356 0.0
C1511 C 0.61974 0.38923 0.54453 0.0
C1512 C 0.61706 0.3921 0.48032 0.0
C1513 C 0.61193 0.39291 0.29135 0.0
C1514 C 0.61334 0.39359 0.35653 0.0
H1515 H 0.59701 0.3893 0.67419 0.0
H1516 H 0.59362 0.3978 0.57103 0.0
H1517 H 0.64319 0.40265 0.46409 0.0
H1518 H 0.63533 0.37941 0.17142 0.0
H1519 H 0.63775 0.38129 0.27824 0.0
C1520 C 0.88991 0.59976 0.96909 0.0
C1521 C 0.88332 0.61295 0.93161 0.0
C1522 C 0.88927 0.60192 0.03021 0.0
C1523 C 0.86644 0.62762 0.14611 0.0
H1524 H 0.90538 0.61243 0.24427 0.0
C1525 C 0.86858 0.64499 0.39083 0.0
C1526 C 0.87168 0.63083 0.42933 0.0
C1527 C 0.87187 0.64324 0.33068 0.0
C1528 C 0.89439 0.61665 0.21735 0.0
H1529 H 0.87109 0.63882 0.92885 0.0
H1530 H 0.87026 0.6427 0.03502 0.0
H1531 H 0.90694 0.60824 0.13759 0.0
H1532 H 0.88174 0.60409 0.43544 0.0
H1533 H 0.88755 0.60106 0.33003 0.0
H1534 H 0.85392 0.6361 0.22558 0.0
C1535 C 0.87558 0.63052 0.01744 0.0
C1536 C 0.89523 0.61419 0.15634 0.0
C1537 C 0.87612 0.62833 0.95648 0.0
C1538 C 0.87918 0.61524 0.40689 0.0
C1539 C 0.88254 0.61351 0.34657 0.0
C1540 C 0.86565 0.63016 0.20685 0.0
C1541 C 0.88211 0.61734 0.0551 0.0
C1542 C 0.88127 0.61969 0.12001 0.0
C1543 C 0.8784 0.62731 0.3077 0.0
C1544 C 0.87962 0.62476 0.24311 0.0
H1545 H 0.89552 0.58775 0.95126 0.0
H1546 H 0.89419 0.5914 0.05794 0.0
H1547 H 0.85528 0.63166 0.11969 0.0
H1548 H 0.86295 0.65724 0.40671 0.0
H1549 H 0.86888 0.65422 0.30187 0.0
C1550 C 0.62554 0.11854 0.62304 0.0
C1551 C 0.64024 0.12647 0.59623 0.0
C1552 C 0.62394 0.11822 0.68448 0.0
C1553 C 0.64951 0.12371 0.82271 0.0
H1554 H 0.60407 0.1356 0.89028 0.0
C1555 C 0.64115 0.14074 0.06919 0.0
C1556 C 0.62652 0.13342 0.09822 0.0
C1557 C 0.64268 0.13962 0.00787 0.0
C1558 C 0.61681 0.13208 0.87216 0.0
H1559 H 0.66502 0.13982 0.61308 0.0
H1560 H 0.66217 0.13937 0.71959 0.0
H1561 H 0.60715 0.13305 0.78373 0.0
H1562 H 0.60187 0.11944 0.08542 0.0
H1563 H 0.60457 0.11747 0.97883 0.0
H1564 H 0.6592 0.12288 0.91113 0.0
C1565 C 0.65193 0.13325 0.69343 0.0
C1566 C 0.61856 0.13057 0.81105 0.0
C1567 C 0.65352 0.13359 0.6322 0.0
C1568 C 0.6133 0.12526 0.0645 0.0
C1569 C 0.61481 0.12419 0.00328 0.0
C1570 C 0.64776 0.12525 0.88378 0.0
C1571 C 0.63703 0.12577 0.72038 0.0
C1572 C 0.63496 0.12646 0.78554 0.0
C1573 C 0.62958 0.13121 0.97424 0.0
C1574 C 0.63141 0.12954 0.90924 0.0
H1575 H 0.61508 0.11293 0.5966 0.0
H1576 H 0.6124 0.11214 0.70387 0.0
H1577 H 0.66227 0.12027 0.80461 0.0
H1578 H 0.65157 0.14711 0.09384 0.0
H1579 H 0.65411 0.14539 0.98678 0.0
C1580 C 0.11866 0.38784 0.41192 0.0
C1581 C 0.12625 0.37211 0.43267 0.0
C1582 C 0.11417 0.38962 0.35244 0.0
C1583 C 0.10793 0.36419 0.21338 0.0
H1584 H 0.12322 0.40761 0.13902 0.0
C1585 C 0.12026 0.36981 0.9636 0.0
C1586 C 0.11451 0.38521 0.935 0.0
C1587 C 0.11953 0.36852 0.02494 0.0
C1588 C 0.11865 0.3955 0.1592 0.0
H1589 H 0.1342 0.34561 0.40789 0.0
H1590 H 0.12661 0.34877 0.30474 0.0
H1591 H 0.1248 0.40475 0.24573 0.0
H1592 H 0.10346 0.41132 0.94844 0.0
H1593 H 0.10227 0.40907 0.05556 0.0
H1594 H 0.10229 0.35478 0.12649 0.0
C1595 C 0.12395 0.35971 0.33414 0.0
C1596 C 0.11949 0.39388 0.22043 0.0
C1597 C 0.12842 0.35794 0.3934 0.0
C1598 C 0.10803 0.39929 0.9691 0.0
C1599 C 0.1074 0.39803 0.03048 0.0
C1600 C 0.10718 0.36579 0.15214 0.0
C1601 C 0.11714 0.3757 0.31259 0.0
C1602 C 0.11441 0.37809 0.24822 0.0
C1603 C 0.11312 0.38263 0.05907 0.0
C1604 C 0.11278 0.38136 0.12431 0.0
H1605 H 0.11678 0.399 0.44108 0.0
H1606 H 0.1087 0.40203 0.33744 0.0
H1607 H 0.10362 0.35196 0.23339 0.0
H1608 H 0.12531 0.35872 0.93864 0.0
H1609 H 0.12425 0.35657 0.04572 0.0
C1610 C 0.39127 0.8857 0.053 0.0
C1611 C 0.37869 0.87694 0.08778 0.0
C1612 C 0.38948 0.88626 0.99186 0.0
C1613 C 0.36748 0.86358 0.86852 0.0
H1614 H 0.37838 0.90649 0.78287 0.0
C1615 C 0.3522 0.87047 0.62265 0.0
C1616 C 0.36582 0.87714 0.58709 0.0
C1617 C 0.35324 0.87164 0.6838 0.0
C1618 C 0.37541 0.89439 0.80623 0.0
H1619 H 0.35432 0.86202 0.08584 0.0
H1620 H 0.35108 0.86319 0.97927 0.0
H1621 H 0.38134 0.90591 0.88995 0.0
H1622 H 0.39088 0.89091 0.58765 0.0
H1623 H 0.39269 0.89291 0.69483 0.0
H1624 H 0.36152 0.85207 0.78497 0.0
C1625 C 0.36248 0.86938 -0.00088 0.0
C1626 C 0.37714 0.89404 0.86746 0.0
C1627 C 0.3643 0.86876 0.06022 0.0
C1628 C 0.38018 0.88563 0.6139 0.0
C1629 C 0.3812 0.88683 0.67522 0.0
C1630 C 0.36569 0.86397 0.80746 0.0
C1631 C 0.37506 0.87813 0.96424 0.0
C1632 C 0.37319 0.87861 0.89926 0.0
C1633 C 0.3679 0.87953 0.71074 0.0
C1634 C 0.36962 0.87937 0.77568 0.0
H1635 H 0.40254 0.8921 0.07293 0.0
H1636 H 0.39953 0.89289 0.96618 0.0
H1637 H 0.36465 0.8514 0.89155 0.0
H1638 H 0.34089 0.86397 0.60339 0.0
H1639 H 0.34265 0.86617 0.71008 0.0
C1640 C 0.86367 0.86605 0.35233 0.0
C1641 C 0.87106 0.88075 0.38077 0.0
C1642 C 0.86425 0.86465 0.29114 0.0
C1643 C 0.88838 0.88072 0.16105 0.0
H1644 H 0.8478 0.86259 0.07706 0.0
C1645 C 0.88186 0.88058 0.90655 0.0
C1646 C 0.87419 0.86553 0.88113 0.0
C1647 C 0.88255 0.88242 0.96773 0.0
C1648 C 0.85931 0.86749 0.09999 0.0
H1649 H 0.88462 0.90563 0.36735 0.0
H1650 H 0.88539 0.90326 0.26026 0.0
H1651 H 0.84628 0.8664 0.18336 0.0
H1652 H 0.86204 0.84021 0.89979 0.0
H1653 H 0.86338 0.84339 0.00626 0.0
H1654 H 0.90135 0.88188 0.07725 0.0
C1655 C 0.8794 0.89272 0.28543 0.0
C1656 C 0.85843 0.86968 0.16084 0.0
C1657 C 0.87884 0.89412 0.34672 0.0
C1658 C 0.8679 0.85204 0.91798 0.0
C1659 C 0.86857 0.8539 0.97897 0.0
C1660 C 0.88924 0.87857 0.10001 0.0
C1661 C 0.87218 0.87792 0.25704 0.0
C1662 C 0.87299 0.8762 0.19211 0.0
C1663 C 0.87555 0.86926 0.00445 0.0
C1664 C 0.87475 0.87179 0.069 0.0
H1665 H 0.85766 0.85548 0.37732 0.0
H1666 H 0.85878 0.85297 0.27062 0.0
H1667 H 0.89989 0.88558 0.18405 0.0
H1668 H 0.88683 0.8912 0.87928 0.0
H1669 H 0.88795 0.89443 0.98622 0.0
C1670 C 0.86311 0.12598 0.12406 0.0
C1671 C 0.87705 0.12383 0.16407 0.0
C1672 C 0.86519 0.12138 0.06498 0.0
C1673 C 0.89999 0.11674 0.95344 0.0
H1674 H 0.86133 0.10013 0.85675 0.0
C1675 C 0.90629 0.10643 0.70142 0.0
C1676 C 0.89245 0.11339 0.66754 0.0
C1677 C 0.90485 0.10543 0.76271 0.0
C1678 C 0.87222 0.10483 0.8832 0.0
H1679 H 0.90378 0.11417 0.17408 0.0
H1680 H 0.90733 0.10584 0.07077 0.0
H1681 H 0.85796 0.1011 0.96354 0.0
H1682 H 0.86619 0.12468 0.67147 0.0
H1683 H 0.8637 0.12295 0.77832 0.0
H1684 H 0.91416 0.12065 0.87289 0.0
C1685 C 0.89489 0.11142 0.08503 0.0
C1686 C 0.87031 0.10538 0.94436 0.0
C1687 C 0.89281 0.11606 0.14431 0.0
C1688 C 0.87711 0.11927 0.69625 0.0
C1689 C 0.87561 0.11814 0.75744 0.0
C1690 C 0.90194 0.11608 0.89227 0.0
C1691 C 0.88124 0.11443 0.04439 0.0
C1692 C 0.88403 0.1117 0.98017 0.0
C1693 C 0.88947 0.11122 0.79134 0.0
C1694 C 0.88795 0.11047 0.85644 0.0
H1695 H 0.85077 0.13189 0.1378 0.0
H1696 H 0.85445 0.12407 0.03495 0.0
H1697 H 0.91074 0.12192 0.97952 0.0
H1698 H 0.91828 0.10176 0.68064 0.0
H1699 H 0.91569 0.09994 0.78766 0.0
C1700 C 0.13619 0.14722 0.86067 0.0
C1701 C 0.12863 0.1342 0.82458 0.0
C1702 C 0.13561 0.1457 0.92187 0.0
C1703 C 0.13118 0.1126 0.0395 0.0
H1704 H 0.12459 0.1537 0.13896 0.0
C1705 C 0.12477 0.10801 0.2928 0.0
C1706 C 0.13338 0.12096 0.32649 0.0
C1707 C 0.12392 0.10944 0.23156 0.0
C1708 C 0.12664 0.14213 0.11179 0.0
H1709 H 0.11411 0.10956 0.82459 0.0
H1710 H 0.11291 0.107 0.93183 0.0
H1711 H 0.12253 0.1567 0.03233 0.0
H1712 H 0.14809 0.14545 0.32209 0.0
H1713 H 0.14673 0.14787 0.21501 0.0
H1714 H 0.13535 0.09804 0.11903 0.0
C1715 C 0.1195 0.11828 0.91257 0.0
C1716 C 0.12542 0.14384 0.05067 0.0
C1717 C 0.12007 0.11982 0.85116 0.0
C1718 C 0.14135 0.13526 0.29745 0.0
C1719 C 0.14045 0.13671 0.23613 0.0
C1720 C 0.13238 0.11088 0.10066 0.0
C1721 C 0.12744 0.13112 0.94862 0.0
C1722 C 0.12779 0.12912 0.01375 0.0
C1723 C 0.13161 0.12388 0.20252 0.0
C1724 C 0.13023 0.12565 0.1375 0.0
H1725 H 0.14291 0.15847 0.84169 0.0
H1726 H 0.14204 0.15572 0.94819 0.0
H1727 H 0.13336 0.10104 0.01235 0.0
H1728 H 0.11846 0.09684 0.31375 0.0
H1729 H 0.11687 0.09943 0.20706 0.0
C1730 C 0.13155 0.87198 0.68378 0.0
C1731 C 0.11649 0.87877 0.656 0.0
C1732 C 0.13316 0.87266 0.74491 0.0
C1733 C 0.116 0.89541 0.877 0.0
H1734 H 0.13517 0.85468 0.95792 0.0
C1735 C 0.114 0.886 0.13043 0.0
C1736 C 0.12909 0.87865 0.15656 0.0
C1737 C 0.11277 0.88733 0.06919 0.0
C1738 C 0.12999 0.86624 0.93589 0.0
H1739 H 0.09127 0.89158 0.67047 0.0
H1740 H 0.09395 0.8925 0.77737 0.0
H1741 H 0.13217 0.85408 0.85132 0.0
H1742 H 0.15504 0.86772 0.13922 0.0
H1743 H 0.1529 0.87015 0.03271 0.0
H1744 H 0.11366 0.90744 0.96208 0.0
C1745 C 0.10464 0.8869 0.7518 0.0
C1746 C 0.12827 0.8659 0.87482 0.0
C1747 C 0.10306 0.88626 0.69059 0.0
C1748 C 0.14316 0.87331 0.12047 0.0
C1749 C 0.14192 0.8746 0.05942 0.0
C1750 C 0.11766 0.89572 0.93826 0.0
C1751 C 0.1197 0.88008 0.77962 0.0
C1752 C 0.12133 0.88049 0.84464 0.0
C1753 C 0.12658 0.8813 0.03311 0.0
C1754 C 0.12476 0.88116 0.96823 0.0
H1755 H 0.14219 0.86623 0.65834 0.0
H1756 H 0.14504 0.86753 0.76495 0.0
H1757 H 0.11079 0.90694 0.85491 0.0
H1758 H 0.10294 0.89025 0.15711 0.0
H1759 H 0.10076 0.89247 0.05005 0.0
loop_
_geom_bond_atom_site_label_1
_geom_bond_atom_site_label_2
_geom_bond_distance
_geom_bond_site_symmetry_2
_ccdc_geom_bond_type
Zn0 O6 1.969 1_554 S
Zn0 O7 1.965 . S
Zn0 O11 2.024 . S
Zn0 O16 1.969 . S
Zn1 O8 1.969 . S
Zn1 O14 1.969 . S
Zn1 O15 1.965 . S
Zn1 O17 2.024 . S
C2 O3 1.229 . S
C2 O11 1.058 . S
O3 C2 1.229 . S
C4 O5 1.229 . S
C4 O17 1.058 . S
O5 C4 1.229 . S
O6 Zn0 1.969 1_556 S
O6 C9 1.267 . S
O7 Zn0 1.965 . S
O7 C18 1.260 . S
O8 Zn1 1.969 . S
O8 C18 1.258 . S
C9 O6 1.267 . S
C9 O10 1.228 . S
O10 C9 1.228 . S
O11 Zn0 2.024 . S
O11 C2 1.058 . S
C12 O13 1.228 . S
C12 O14 1.267 . S
O13 C12 1.228 . S
O14 Zn1 1.969 . S
O14 C12 1.267 . S
O15 Zn1 1.965 . S
O15 C19 1.260 . S
O16 Zn0 1.969 . S
O16 C19 1.258 . S
O17 Zn1 2.024 . S
O17 C4 1.058 . S
C18 O7 1.260 . S
C18 O8 1.258 . S
C19 O15 1.260 . S
C19 O16 1.258 . S
Zn20 O26 1.969 . S
Zn20 O27 1.965 . S
Zn20 O31 2.024 . S
Zn20 O36 1.969 . S
Zn21 O28 1.969 . S
Zn21 O34 1.969 1_556 S
Zn21 O35 1.965 . S
Zn21 O37 2.024 . S
C22 O23 1.229 . S
C22 O31 1.058 . S
O23 C22 1.229 . S
C24 O25 1.229 . S
C24 O37 1.058 . S
O25 C24 1.229 . S
O26 Zn20 1.969 . S
O26 C29 1.267 . S
O27 Zn20 1.965 . S
O27 C38 1.260 . S
O28 Zn21 1.969 . S
O28 C38 1.258 . S
C29 O26 1.267 . S
C29 O30 1.228 . S
O30 C29 1.228 . S
O31 Zn20 2.024 . S
O31 C22 1.058 . S
C32 O33 1.228 . S
C32 O34 1.267 . S
O33 C32 1.228 . S
O34 Zn21 1.969 1_554 S
O34 C32 1.267 . S
O35 Zn21 1.965 . S
O35 C39 1.260 . S
O36 Zn20 1.969 . S
O36 C39 1.258 . S
O37 Zn21 2.024 . S
O37 C24 1.058 . S
C38 O27 1.260 . S
C38 O28 1.258 . S
C39 O35 1.260 . S
C39 O36 1.258 . S
Zn40 O46 1.969 1_554 S
Zn40 O47 1.965 . S
Zn40 O51 2.024 . S
Zn40 O56 1.969 . S
Zn41 O48 1.969 . S
Zn41 O54 1.969 . S
Zn41 O55 1.965 . S
Zn41 O57 2.024 . S
C42 O43 1.229 . S
C42 O51 1.058 . S
O43 C42 1.229 . S
C44 O45 1.229 . S
C44 O57 1.058 . S
O45 C44 1.229 . S
O46 Zn40 1.969 1_556 S
O46 C49 1.267 . S
O47 Zn40 1.965 . S
O47 C58 1.260 . S
O48 Zn41 1.969 . S
O48 C58 1.258 . S
C49 O46 1.267 . S
C49 O50 1.228 . S
O50 C49 1.228 . S
O51 Zn40 2.024 . S
O51 C42 1.058 . S
C52 O53 1.228 . S
C52 O54 1.267 . S
O53 C52 1.228 . S
O54 Zn41 1.969 . S
O54 C52 1.267 . S
O55 Zn41 1.965 . S
O55 C59 1.260 . S
O56 Zn40 1.969 . S
O56 C59 1.258 . S
O57 Zn41 2.024 . S
O57 C44 1.058 . S
C58 O47 1.260 . S
C58 O48 1.258 . S
C59 O55 1.260 . S
C59 O56 1.258 . S
Zn60 O66 1.969 . S
Zn60 O67 1.965 . S
Zn60 O71 2.024 . S
Zn60 O76 1.969 . S
Zn61 O68 1.969 . S
Zn61 O74 1.969 1_556 S
Zn61 O75 1.965 . S
Zn61 O77 2.024 . S
C62 O63 1.229 . S
C62 O71 1.058 . S
O63 C62 1.229 . S
C64 O65 1.229 . S
C64 O77 1.058 . S
O65 C64 1.229 . S
O66 Zn60 1.969 . S
O66 C69 1.267 . S
O67 Zn60 1.965 . S
O67 C78 1.260 . S
O68 Zn61 1.969 . S
O68 C78 1.258 . S
C69 O66 1.267 . S
C69 O70 1.228 . S
O70 C69 1.228 . S
O71 Zn60 2.024 . S
O71 C62 1.058 . S
C72 O73 1.228 . S
C72 O74 1.267 . S
O73 C72 1.228 . S
O74 Zn61 1.969 1_554 S
O74 C72 1.267 . S
O75 Zn61 1.965 . S
O75 C79 1.260 . S
O76 Zn60 1.969 . S
O76 C79 1.258 . S
O77 Zn61 2.024 . S
O77 C64 1.058 . S
C78 O67 1.260 . S
C78 O68 1.258 . S
C79 O75 1.260 . S
C79 O76 1.258 . S
Zn80 O86 1.969 . S
Zn80 O87 1.965 . S
Zn80 O91 2.024 . S
Zn80 O96 1.969 . S
Zn81 O88 1.969 . S
Zn81 O94 1.969 1_554 S
Zn81 O95 1.965 . S
Zn81 O97 2.024 . S
C82 O83 1.229 . S
C82 O91 1.058 . S
O83 C82 1.229 . S
C84 O85 1.229 1_554 S
C84 O97 1.058 . S
O85 C84 1.229 1_556 S
O86 Zn80 1.969 . S
O86 C89 1.267 . S
O87 Zn80 1.965 . S
O87 C98 1.260 . S
O88 Zn81 1.969 . S
O88 C98 1.258 . S
C89 O86 1.267 . S
C89 O90 1.228 . S
O90 C89 1.228 . S
O91 Zn80 2.024 . S
O91 C82 1.058 . S
C92 O93 1.228 . S
C92 O94 1.267 . S
O93 C92 1.228 . S
O94 Zn81 1.969 1_556 S
O94 C92 1.267 . S
O95 Zn81 1.965 . S
O95 C99 1.260 . S
O96 Zn80 1.969 . S
O96 C99 1.258 . S
O97 Zn81 2.024 . S
O97 C84 1.058 . S
C98 O87 1.260 . S
C98 O88 1.258 . S
C99 O95 1.260 . S
C99 O96 1.258 . S
Zn100 O106 1.969 1_556 S
Zn100 O107 1.965 . S
Zn100 O111 2.024 . S
Zn100 O116 1.969 . S
Zn101 O108 1.969 . S
Zn101 O114 1.969 . S
Zn101 O115 1.965 . S
Zn101 O117 2.024 . S
C102 O103 1.229 1_556 S
C102 O111 1.058 . S
O103 C102 1.229 1_554 S
C104 O105 1.229 . S
C104 O117 1.058 . S
O105 C104 1.229 . S
O106 Zn100 1.969 1_554 S
O106 C109 1.267 . S
O107 Zn100 1.965 . S
O107 C118 1.260 . S
O108 Zn101 1.969 . S
O108 C118 1.258 . S
C109 O106 1.267 . S
C109 O110 1.228 . S
O110 C109 1.228 . S
O111 Zn100 2.024 . S
O111 C102 1.058 . S
C112 O113 1.228 . S
C112 O114 1.267 . S
O113 C112 1.228 . S
O114 Zn101 1.969 . S
O114 C112 1.267 . S
O115 Zn101 1.965 . S
O115 C119 1.260 . S
O116 Zn100 1.969 . S
O116 C119 1.258 . S
O117 Zn101 2.024 . S
O117 C104 1.058 . S
C118 O107 1.260 . S
C118 O108 1.258 . S
C119 O115 1.260 . S
C119 O116 1.258 . S
Zn120 O126 1.969 . S
Zn120 O127 1.965 . S
Zn120 O131 2.024 . S
Zn120 O136 1.969 . S
Zn121 O128 1.969 . S
Zn121 O134 1.969 1_554 S
Zn121 O135 1.965 . S
Zn121 O137 2.024 . S
C122 O123 1.229 . S
C122 O131 1.058 . S
O123 C122 1.229 . S
C124 O125 1.229 1_554 S
C124 O137 1.058 . S
O125 C124 1.229 1_556 S
O126 Zn120 1.969 . S
O126 C129 1.267 . S
O127 Zn120 1.965 . S
O127 C138 1.260 . S
O128 Zn121 1.969 . S
O128 C138 1.258 . S
C129 O126 1.267 . S
C129 O130 1.228 . S
O130 C129 1.228 . S
O131 Zn120 2.024 . S
O131 C122 1.058 . S
C132 O133 1.228 . S
C132 O134 1.267 . S
O133 C132 1.228 . S
O134 Zn121 1.969 1_556 S
O134 C132 1.267 . S
O135 Zn121 1.965 . S
O135 C139 1.260 . S
O136 Zn120 1.969 . S
O136 C139 1.258 . S
O137 Zn121 2.024 . S
O137 C124 1.058 . S
C138 O127 1.260 . S
C138 O128 1.258 . S
C139 O135 1.260 . S
C139 O136 1.258 . S
Zn140 O146 1.969 1_556 S
Zn140 O147 1.965 . S
Zn140 O151 2.024 . S
Zn140 O156 1.969 . S
Zn141 O148 1.969 . S
Zn141 O154 1.969 . S
Zn141 O155 1.965 . S
Zn141 O157 2.024 . S
C142 O143 1.229 1_556 S
C142 O151 1.058 . S
O143 C142 1.229 1_554 S
C144 O145 1.229 . S
C144 O157 1.058 . S
O145 C144 1.229 . S
O146 Zn140 1.969 1_554 S
O146 C149 1.267 . S
O147 Zn140 1.965 . S
O147 C158 1.260 . S
O148 Zn141 1.969 . S
O148 C158 1.258 . S
C149 O146 1.267 . S
C149 O150 1.228 . S
O150 C149 1.228 . S
O151 Zn140 2.024 . S
O151 C142 1.058 . S
C152 O153 1.228 . S
C152 O154 1.267 . S
O153 C152 1.228 . S
O154 Zn141 1.969 . S
O154 C152 1.267 . S
O155 Zn141 1.965 . S
O155 C159 1.260 . S
O156 Zn140 1.969 . S
O156 C159 1.258 . S
O157 Zn141 2.024 . S
O157 C144 1.058 . S
C158 O147 1.260 . S
C158 O148 1.258 . S
C159 O155 1.260 . S
C159 O156 1.258 . S
Zn160 O166 1.969 . S
Zn160 O167 1.965 . S
Zn160 O171 2.024 . S
Zn160 O176 1.969 . S
Zn161 O168 1.969 . S
Zn161 O174 1.969 . S
Zn161 O175 1.965 . S
Zn161 O177 2.024 . S
C162 O163 1.229 . S
C162 O171 1.058 . S
O163 C162 1.229 . S
C164 O165 1.229 . S
C164 O177 1.058 . S
O165 C164 1.229 . S
O166 Zn160 1.969 . S
O166 C169 1.267 . S
O167 Zn160 1.965 . S
O167 C178 1.260 . S
O168 Zn161 1.969 . S
O168 C178 1.258 . S
C169 O166 1.267 . S
C169 O170 1.228 . S
O170 C169 1.228 . S
O171 Zn160 2.024 . S
O171 C162 1.058 . S
C172 O173 1.228 . S
C172 O174 1.267 . S
O173 C172 1.228 . S
O174 Zn161 1.969 . S
O174 C172 1.267 . S
O175 Zn161 1.965 . S
O175 C179 1.260 . S
O176 Zn160 1.969 . S
O176 C179 1.258 . S
O177 Zn161 2.024 . S
O177 C164 1.058 . S
C178 O167 1.260 . S
C178 O168 1.258 . S
C179 O175 1.260 . S
C179 O176 1.258 . S
Zn180 O186 1.969 . S
Zn180 O187 1.965 . S
Zn180 O191 2.024 . S
Zn180 O196 1.969 . S
Zn181 O188 1.969 . S
Zn181 O194 1.969 . S
Zn181 O195 1.965 . S
Zn181 O197 2.024 . S
C182 O183 1.229 . S
C182 O191 1.058 . S
O183 C182 1.229 . S
C184 O185 1.229 . S
C184 O197 1.058 . S
O185 C184 1.229 . S
O186 Zn180 1.969 . S
O186 C189 1.267 . S
O187 Zn180 1.965 . S
O187 C198 1.260 . S
O188 Zn181 1.969 . S
O188 C198 1.258 . S
C189 O186 1.267 . S
C189 O190 1.228 . S
O190 C189 1.228 . S
O191 Zn180 2.024 . S
O191 C182 1.058 . S
C192 O193 1.228 . S
C192 O194 1.267 . S
O193 C192 1.228 . S
O194 Zn181 1.969 . S
O194 C192 1.267 . S
O195 Zn181 1.965 . S
O195 C199 1.260 . S
O196 Zn180 1.969 . S
O196 C199 1.258 . S
O197 Zn181 2.024 . S
O197 C184 1.058 . S
C198 O187 1.260 . S
C198 O188 1.258 . S
C199 O195 1.260 . S
C199 O196 1.258 . S
Zn200 O206 1.969 . S
Zn200 O207 1.965 . S
Zn200 O211 2.024 . S
Zn200 O216 1.969 . S
Zn201 O208 1.969 . S
Zn201 O214 1.969 . S
Zn201 O215 1.965 . S
Zn201 O217 2.024 . S
C202 O203 1.229 . S
C202 O211 1.058 . S
O203 C202 1.229 . S
C204 O205 1.229 . S
C204 O217 1.058 . S
O205 C204 1.229 . S
O206 Zn200 1.969 . S
O206 C209 1.267 . S
O207 Zn200 1.965 . S
O207 C218 1.260 . S
O208 Zn201 1.969 . S
O208 C218 1.258 . S
C209 O206 1.267 . S
C209 O210 1.228 . S
O210 C209 1.228 . S
O211 Zn200 2.024 . S
O211 C202 1.058 . S
C212 O213 1.228 . S
C212 O214 1.267 . S
O213 C212 1.228 . S
O214 Zn201 1.969 . S
O214 C212 1.267 . S
O215 Zn201 1.965 . S
O215 C219 1.260 . S
O216 Zn200 1.969 . S
O216 C219 1.258 . S
O217 Zn201 2.024 . S
O217 C204 1.058 . S
C218 O207 1.260 . S
C218 O208 1.258 . S
C219 O215 1.260 . S
C219 O216 1.258 . S
Zn220 O226 1.969 . S
Zn220 O227 1.965 . S
Zn220 O231 2.024 . S
Zn220 O236 1.969 . S
Zn221 O228 1.969 . S
Zn221 O234 1.969 . S
Zn221 O235 1.965 . S
Zn221 O237 2.024 . S
C222 O223 1.229 . S
C222 O231 1.058 . S
O223 C222 1.229 . S
C224 O225 1.229 . S
C224 O237 1.058 . S
O225 C224 1.229 . S
O226 Zn220 1.969 . S
O226 C229 1.267 . S
O227 Zn220 1.965 . S
O227 C238 1.260 . S
O228 Zn221 1.969 . S
O228 C238 1.258 . S
C229 O226 1.267 . S
C229 O230 1.228 . S
O230 C229 1.228 . S
O231 Zn220 2.024 . S
O231 C222 1.058 . S
C232 O233 1.228 . S
C232 O234 1.267 . S
O233 C232 1.228 . S
O234 Zn221 1.969 . S
O234 C232 1.267 . S
O235 Zn221 1.965 . S
O235 C239 1.260 . S
O236 Zn220 1.969 . S
O236 C239 1.258 . S
O237 Zn221 2.024 . S
O237 C224 1.058 . S
C238 O227 1.260 . S
C238 O228 1.258 . S
C239 O235 1.260 . S
C239 O236 1.258 . S
Zn240 O246 1.969 . S
Zn240 O247 1.965 . S
Zn240 O251 2.024 . S
Zn240 O256 1.969 . S
Zn241 O248 1.969 . S
Zn241 O254 1.969 . S
Zn241 O255 1.965 . S
Zn241 O257 2.024 . S
C242 O243 1.229 . S
C242 O251 1.058 . S
O243 C242 1.229 . S
C244 O245 1.229 . S
C244 O257 1.058 . S
O245 C244 1.229 . S
O246 Zn240 1.969 . S
O246 C249 1.267 . S
O247 Zn240 1.965 . S
O247 C258 1.260 . S
O248 Zn241 1.969 . S
O248 C258 1.258 . S
C249 O246 1.267 . S
C249 O250 1.228 . S
O250 C249 1.228 . S
O251 Zn240 2.024 . S
O251 C242 1.058 . S
C252 O253 1.228 . S
C252 O254 1.267 . S
O253 C252 1.228 . S
O254 Zn241 1.969 . S
O254 C252 1.267 . S
O255 Zn241 1.965 . S
O255 C259 1.260 . S
O256 Zn240 1.969 . S
O256 C259 1.258 . S
O257 Zn241 2.024 . S
O257 C244 1.058 . S
C258 O247 1.260 . S
C258 O248 1.258 . S
C259 O255 1.260 . S
C259 O256 1.258 . S
Zn260 O266 1.969 . S
Zn260 O267 1.965 . S
Zn260 O271 2.024 . S
Zn260 O276 1.969 . S
Zn261 O268 1.969 . S
Zn261 O274 1.969 . S
Zn261 O275 1.965 . S
Zn261 O277 2.024 . S
C262 O263 1.229 . S
C262 O271 1.058 . S
O263 C262 1.229 . S
C264 O265 1.229 . S
C264 O277 1.058 . S
O265 C264 1.229 . S
O266 Zn260 1.969 . S
O266 C269 1.267 . S
O267 Zn260 1.965 . S
O267 C278 1.260 . S
O268 Zn261 1.969 . S
O268 C278 1.258 . S
C269 O266 1.267 . S
C269 O270 1.228 . S
O270 C269 1.228 . S
O271 Zn260 2.024 . S
O271 C262 1.058 . S
C272 O273 1.228 . S
C272 O274 1.267 . S
O273 C272 1.228 . S
O274 Zn261 1.969 . S
O274 C272 1.267 . S
O275 Zn261 1.965 . S
O275 C279 1.260 . S
O276 Zn260 1.969 . S
O276 C279 1.258 . S
O277 Zn261 2.024 . S
O277 C264 1.058 . S
C278 O267 1.260 . S
C278 O268 1.258 . S
C279 O275 1.260 . S
C279 O276 1.258 . S
Zn280 O286 1.969 . S
Zn280 O287 1.965 . S
Zn280 O291 2.024 . S
Zn280 O296 1.969 . S
Zn281 O288 1.969 . S
Zn281 O294 1.969 . S
Zn281 O295 1.965 . S
Zn281 O297 2.024 . S
C282 O283 1.229 . S
C282 O291 1.058 . S
O283 C282 1.229 . S
C284 O285 1.229 . S
C284 O297 1.058 . S
O285 C284 1.229 . S
O286 Zn280 1.969 . S
O286 C289 1.267 . S
O287 Zn280 1.965 . S
O287 C298 1.260 . S
O288 Zn281 1.969 . S
O288 C298 1.258 . S
C289 O286 1.267 . S
C289 O290 1.228 . S
O290 C289 1.228 . S
O291 Zn280 2.024 . S
O291 C282 1.058 . S
C292 O293 1.228 . S
C292 O294 1.267 . S
O293 C292 1.228 . S
O294 Zn281 1.969 . S
O294 C292 1.267 . S
O295 Zn281 1.965 . S
O295 C299 1.260 . S
O296 Zn280 1.969 . S
O296 C299 1.258 . S
O297 Zn281 2.024 . S
O297 C284 1.058 . S
C298 O287 1.260 . S
C298 O288 1.258 . S
C299 O295 1.260 . S
C299 O296 1.258 . S
Zn300 O306 1.969 . S
Zn300 O307 1.965 . S
Zn300 O311 2.024 . S
Zn300 O316 1.969 . S
Zn301 O308 1.969 . S
Zn301 O314 1.969 . S
Zn301 O315 1.965 . S
Zn301 O317 2.024 . S
C302 O303 1.229 . S
C302 O311 1.058 . S
O303 C302 1.229 . S
C304 O305 1.229 . S
C304 O317 1.058 . S
O305 C304 1.229 . S
O306 Zn300 1.969 . S
O306 C309 1.267 . S
O307 Zn300 1.965 . S
O307 C318 1.260 . S
O308 Zn301 1.969 . S
O308 C318 1.258 . S
C309 O306 1.267 . S
C309 O310 1.228 . S
O310 C309 1.228 . S
O311 Zn300 2.024 . S
O311 C302 1.058 . S
C312 O313 1.228 . S
C312 O314 1.267 . S
O313 C312 1.228 . S
O314 Zn301 1.969 . S
O314 C312 1.267 . S
O315 Zn301 1.965 . S
O315 C319 1.260 . S
O316 Zn300 1.969 . S
O316 C319 1.258 . S
O317 Zn301 2.024 . S
O317 C304 1.058 . S
C318 O307 1.260 . S
C318 O308 1.258 . S
C319 O315 1.260 . S
C319 O316 1.258 . S
C320 C321 1.349 . S
C320 C322 1.327 . S
C320 H345 0.950 . S
C321 C320 1.349 . S
C321 C337 1.349 . S
C322 C320 1.327 . S
C322 C341 1.429 . S
C322 H346 0.950 . S
C323 C340 1.579 1_565 S
C323 C342 1.367 . S
C323 H347 0.945 . S
H324 C328 0.949 . S
C325 C326 1.349 . S
C325 C327 1.327 . S
C325 H348 0.950 . S
C326 C325 1.349 . S
C326 C338 1.349 . S
C327 C325 1.327 . S
C327 C343 1.429 . S
C327 H349 0.950 . S
C328 H324 0.949 . S
C328 C336 1.574 . S
C328 C344 1.368 . S
H329 C337 0.950 . S
H330 C335 0.950 . S
H331 C336 0.960 . S
H332 C338 0.950 . S
H333 C339 0.950 . S
H334 C340 0.949 . S
C335 H330 0.950 . S
C335 C337 1.327 . S
C335 C341 1.429 . S
C336 C328 1.574 . S
C336 H331 0.960 . S
C336 C342 1.368 1_545 S
C337 C321 1.349 . S
C337 H329 0.950 . S
C337 C335 1.327 . S
C338 C326 1.349 . S
C338 H332 0.950 . S
C338 C339 1.327 . S
C339 H333 0.950 . S
C339 C338 1.327 . S
C339 C343 1.429 . S
C340 C323 1.579 1_545 S
C340 H334 0.949 . S
C340 C344 1.368 . S
C341 C322 1.429 . S
C341 C335 1.429 . S
C341 C342 1.523 . S
C342 C323 1.367 . S
C342 C336 1.368 1_565 S
C342 C341 1.523 . S
C343 C327 1.429 . S
C343 C339 1.429 . S
C343 C344 1.523 . S
C344 C328 1.368 . S
C344 C340 1.368 . S
C344 C343 1.523 . S
H345 C320 0.950 . S
H346 C322 0.950 . S
H347 C323 0.945 . S
H348 C325 0.950 . S
H349 C327 0.950 . S
C350 C351 1.349 . S
C350 C352 1.327 . S
C350 H375 0.950 . S
C351 C350 1.349 . S
C351 C367 1.349 . S
C352 C350 1.327 . S
C352 C371 1.429 . S
C352 H376 0.950 . S
C353 C370 1.574 . S
C353 C372 1.368 1_455 S
C353 H377 0.949 . S
H354 C358 0.949 . S
C355 C356 1.349 . S
C355 C357 1.327 . S
C355 H378 0.950 . S
C356 C355 1.349 . S
C356 C368 1.349 . S
C357 C355 1.327 . S
C357 C373 1.429 . S
C357 H379 0.950 . S
C358 H354 0.949 . S
C358 C366 1.517 1_455 S
C358 C374 1.368 . S
H359 C367 0.950 . S
H360 C365 0.950 . S
H361 C366 0.992 . S
H362 C368 0.950 . S
H363 C369 0.950 . S
H364 C370 0.949 . S
C365 H360 0.950 . S
C365 C367 1.327 . S
C365 C371 1.429 . S
C366 C358 1.517 1_655 S
C366 H361 0.992 . S
C366 C372 1.380 . S
C367 C351 1.349 . S
C367 H359 0.950 . S
C367 C365 1.327 . S
C368 C356 1.349 . S
C368 H362 0.950 . S
C368 C369 1.327 . S
C369 H363 0.950 . S
C369 C368 1.327 . S
C369 C373 1.429 . S
C370 C353 1.574 . S
C370 H364 0.949 . S
C370 C374 1.368 . S
C371 C352 1.429 . S
C371 C365 1.429 . S
C371 C372 1.523 . S
C372 C353 1.368 1_655 S
C372 C366 1.380 . S
C372 C371 1.523 . S
C373 C357 1.429 . S
C373 C369 1.429 . S
C373 C374 1.523 . S
C374 C358 1.368 . S
C374 C370 1.368 . S
C374 C373 1.523 . S
H375 C350 0.950 . S
H376 C352 0.950 . S
H377 C353 0.949 . S
H378 C355 0.950 . S
H379 C357 0.950 . S
C380 C381 1.349 . S
C380 C382 1.327 . S
C380 H405 0.950 . S
C381 C380 1.349 . S
C381 C397 1.349 . S
C382 C380 1.327 . S
C382 C401 1.429 . S
C382 H406 0.950 . S
C383 C400 1.574 . S
C383 C402 1.368 . S
C383 H407 0.949 . S
H384 C388 0.989 . S
C385 C386 1.349 . S
C385 C387 1.327 . S
C385 H408 0.950 . S
C386 C385 1.349 . S
C386 C398 1.349 . S
C387 C385 1.327 . S
C387 C403 1.429 . S
C387 H409 0.950 . S
C388 H384 0.989 . S
C388 C396 1.520 1_545 S
C388 C404 1.379 . S
H389 C397 0.950 . S
H390 C395 0.950 . S
H391 C396 0.949 . S
H392 C398 0.950 . S
H393 C399 0.950 . S
H394 C400 0.949 . S
C395 H390 0.950 . S
C395 C397 1.327 . S
C395 C401 1.429 . S
C396 C388 1.520 1_565 S
C396 H391 0.949 . S
C396 C402 1.368 . S
C397 C381 1.349 . S
C397 H389 0.950 . S
C397 C395 1.327 . S
C398 C386 1.349 . S
C398 H392 0.950 . S
C398 C399 1.327 . S
C399 H393 0.950 . S
C399 C398 1.327 . S
C399 C403 1.429 . S
C400 C383 1.574 . S
C400 H394 0.949 . S
C400 C404 1.368 1_565 S
C401 C382 1.429 . S
C401 C395 1.429 . S
C401 C402 1.523 . S
C402 C383 1.368 . S
C402 C396 1.368 . S
C402 C401 1.523 . S
C403 C387 1.429 . S
C403 C399 1.429 . S
C403 C404 1.523 . S
C404 C388 1.379 . S
C404 C400 1.368 1_545 S
C404 C403 1.523 . S
H405 C380 0.950 . S
H406 C382 0.950 . S
H407 C383 0.949 . S
H408 C385 0.950 . S
H409 C387 0.950 . S
C410 C411 1.349 . S
C410 C412 1.327 . S
C410 H435 0.950 . S
C411 C410 1.349 . S
C411 C427 1.349 . S
C412 C410 1.327 . S
C412 C431 1.429 . S
C412 H436 0.950 . S
C413 C430 1.574 . S
C413 C432 1.368 . S
C413 H437 0.949 . S
H414 C418 0.984 . S
C415 C416 1.349 . S
C415 C417 1.327 . S
C415 H438 0.950 . S
C416 C415 1.349 . S
C416 C428 1.349 . S
C417 C415 1.327 . S
C417 C433 1.429 . S
C417 H439 0.950 . S
C418 H414 0.984 . S
C418 C426 1.527 1_455 S
C418 C434 1.378 . S
H419 C427 0.950 . S
H420 C425 0.950 . S
H421 C426 0.949 . S
H422 C428 0.950 . S
H423 C429 0.950 . S
H424 C430 0.949 . S
C425 H420 0.950 . S
C425 C427 1.327 . S
C425 C431 1.429 . S
C426 C418 1.527 1_655 S
C426 H421 0.949 . S
C426 C432 1.368 . S
C427 C411 1.349 . S
C427 H419 0.950 . S
C427 C425 1.327 . S
C428 C416 1.349 . S
C428 H422 0.950 . S
C428 C429 1.327 . S
C429 H423 0.950 . S
C429 C428 1.327 . S
C429 C433 1.429 . S
C430 C413 1.574 . S
C430 H424 0.949 . S
C430 C434 1.368 1_655 S
C431 C412 1.429 . S
C431 C425 1.429 . S
C431 C432 1.523 . S
C432 C413 1.368 . S
C432 C426 1.368 . S
C432 C431 1.523 . S
C433 C417 1.429 . S
C433 C429 1.429 . S
C433 C434 1.523 . S
C434 C418 1.378 . S
C434 C430 1.368 1_455 S
C434 C433 1.523 . S
H435 C410 0.950 . S
H436 C412 0.950 . S
H437 C413 0.949 . S
H438 C415 0.950 . S
H439 C417 0.950 . S
C440 C441 1.349 . S
C440 C442 1.327 . S
C440 H465 0.950 . S
C441 C440 1.349 . S
C441 C457 1.349 . S
C442 C440 1.327 . S
C442 C461 1.429 . S
C442 H466 0.950 . S
C443 C460 1.574 . S
C443 C462 1.368 . S
C443 H467 0.949 . S
H444 C448 0.949 . S
C445 C446 1.349 1_554 S
C445 C447 1.327 . S
C445 H468 0.950 . S
C446 C445 1.349 1_556 S
C446 C458 1.349 . S
C447 C445 1.327 . S
C447 C463 1.429 . S
C447 H469 0.950 . S
C448 H444 0.949 . S
C448 C456 1.574 1_556 S
C448 C464 1.368 1_556 S
H449 C457 0.950 . S
H450 C455 0.950 . S
H451 C456 0.949 1_556 S
H452 C458 0.950 . S
H453 C459 0.950 . S
H454 C460 0.949 . S
C455 H450 0.950 . S
C455 C457 1.327 . S
C455 C461 1.429 . S
C456 C448 1.574 1_554 S
C456 H451 0.949 1_554 S
C456 C462 1.368 . S
C457 C441 1.349 . S
C457 H449 0.950 . S
C457 C455 1.327 . S
C458 C446 1.349 . S
C458 H452 0.950 . S
C458 C459 1.327 . S
C459 H453 0.950 . S
C459 C458 1.327 . S
C459 C463 1.429 1_556 S
C460 C443 1.574 . S
C460 H454 0.949 . S
C460 C464 1.368 . S
C461 C442 1.429 . S
C461 C455 1.429 . S
C461 C462 1.523 . S
C462 C443 1.368 . S
C462 C456 1.368 . S
C462 C461 1.523 . S
C463 C447 1.429 . S
C463 C459 1.429 1_554 S
C463 C464 1.523 . S
C464 C448 1.368 1_554 S
C464 C460 1.368 . S
C464 C463 1.523 . S
H465 C440 0.950 . S
H466 C442 0.950 . S
H467 C443 0.949 . S
H468 C445 0.950 . S
H469 C447 0.950 . S
C470 C471 1.349 1_556 S
C470 C472 1.327 . S
C470 H495 0.950 . S
C471 C470 1.349 1_554 S
C471 C487 1.349 . S
C472 C470 1.327 . S
C472 C491 1.429 . S
C472 H496 0.950 . S
C473 C490 1.572 1_554 S
C473 C492 1.368 1_554 S
C473 H497 0.949 . S
H474 C478 0.949 . S
C475 C476 1.349 . S
C475 C477 1.327 . S
C475 H498 0.950 . S
C476 C475 1.349 . S
C476 C488 1.349 . S
C477 C475 1.327 . S
C477 C493 1.429 . S
C477 H499 0.950 . S
C478 H474 0.949 . S
C478 C486 1.574 . S
C478 C494 1.368 . S
H479 C487 0.950 . S
H480 C485 0.950 . S
H481 C486 0.949 . S
H482 C488 0.950 . S
H483 C489 0.950 . S
H484 C490 0.945 1_554 S
C485 H480 0.950 . S
C485 C487 1.327 . S
C485 C491 1.429 1_554 S
C486 C478 1.574 . S
C486 H481 0.949 . S
C486 C492 1.368 . S
C487 C471 1.349 . S
C487 H479 0.950 . S
C487 C485 1.327 . S
C488 C476 1.349 . S
C488 H482 0.950 . S
C488 C489 1.327 . S
C489 H483 0.950 . S
C489 C488 1.327 . S
C489 C493 1.429 . S
C490 C473 1.572 1_556 S
C490 H484 0.945 1_556 S
C490 C494 1.375 . S
C491 C472 1.429 . S
C491 C485 1.429 1_556 S
C491 C492 1.523 . S
C492 C473 1.368 1_556 S
C492 C486 1.368 . S
C492 C491 1.523 . S
C493 C477 1.429 . S
C493 C489 1.429 . S
C493 C494 1.523 . S
C494 C478 1.368 . S
C494 C490 1.375 . S
C494 C493 1.523 . S
H495 C470 0.950 . S
H496 C472 0.950 . S
H497 C473 0.949 . S
H498 C475 0.950 . S
H499 C477 0.950 . S
C500 C501 1.349 . S
C500 C502 1.327 . S
C500 H525 0.950 . S
C501 C500 1.349 . S
C501 C517 1.349 . S
C502 C500 1.327 . S
C502 C521 1.429 . S
C502 H526 0.950 . S
C503 C520 1.574 . S
C503 C522 1.368 1_556 S
C503 H527 0.949 . S
H504 C508 0.949 . S
C505 C506 1.349 . S
C505 C507 1.327 . S
C505 H528 0.950 . S
C506 C505 1.349 . S
C506 C518 1.349 1_556 S
C507 C505 1.327 . S
C507 C523 1.429 1_556 S
C507 H529 0.950 . S
C508 H504 0.949 . S
C508 C516 1.574 . S
C508 C524 1.368 . S
H509 C517 0.950 . S
H510 C515 0.950 1_556 S
H511 C516 0.949 . S
H512 C518 0.950 . S
H513 C519 0.950 . S
H514 C520 0.949 . S
C515 H510 0.950 1_554 S
C515 C517 1.327 . S
C515 C521 1.429 . S
C516 C508 1.574 . S
C516 H511 0.949 . S
C516 C522 1.368 . S
C517 C501 1.349 . S
C517 H509 0.950 . S
C517 C515 1.327 . S
C518 C506 1.349 1_554 S
C518 H512 0.950 . S
C518 C519 1.327 . S
C519 H513 0.950 . S
C519 C518 1.327 . S
C519 C523 1.429 . S
C520 C503 1.574 . S
C520 H514 0.949 . S
C520 C524 1.368 1_556 S
C521 C502 1.429 . S
C521 C515 1.429 . S
C521 C522 1.523 . S
C522 C503 1.368 1_554 S
C522 C516 1.368 . S
C522 C521 1.523 . S
C523 C507 1.429 1_554 S
C523 C519 1.429 . S
C523 C524 1.523 . S
C524 C508 1.368 . S
C524 C520 1.368 1_554 S
C524 C523 1.523 . S
H525 C500 0.950 . S
H526 C502 0.950 . S
H527 C503 0.949 . S
H528 C505 0.950 . S
H529 C507 0.950 . S
C530 C531 1.349 . S
C530 C532 1.327 . S
C530 H555 0.950 . S
C531 C530 1.349 . S
C531 C547 1.349 1_554 S
C532 C530 1.327 . S
C532 C551 1.429 1_554 S
C532 H556 0.950 . S
C533 C550 1.574 . S
C533 C552 1.368 . S
C533 H557 0.949 . S
H534 C538 0.949 . S
C535 C536 1.349 . S
C535 C537 1.327 . S
C535 H558 0.950 . S
C536 C535 1.349 . S
C536 C548 1.349 . S
C537 C535 1.327 . S
C537 C553 1.429 . S
C537 H559 0.950 . S
C538 H534 0.949 . S
C538 C546 1.574 . S
C538 C554 1.368 1_554 S
H539 C547 0.950 . S
H540 C545 0.950 . S
H541 C546 0.949 . S
H542 C548 0.950 . S
H543 C549 0.935 1_554 S
H544 C550 0.949 . S
C545 H540 0.950 . S
C545 C547 1.327 . S
C545 C551 1.429 . S
C546 C538 1.574 . S
C546 H541 0.949 . S
C546 C552 1.368 1_554 S
C547 C531 1.349 1_556 S
C547 H539 0.950 . S
C547 C545 1.327 . S
C548 C536 1.349 . S
C548 H542 0.950 . S
C548 C549 1.327 . S
C549 H543 0.935 1_556 S
C549 C548 1.327 . S
C549 C553 1.429 . S
C550 C533 1.574 . S
C550 H544 0.949 . S
C550 C554 1.368 . S
C551 C532 1.429 1_556 S
C551 C545 1.429 . S
C551 C552 1.523 . S
C552 C533 1.368 . S
C552 C546 1.368 1_556 S
C552 C551 1.523 . S
C553 C537 1.429 . S
C553 C549 1.429 . S
C553 C554 1.523 . S
C554 C538 1.368 1_556 S
C554 C550 1.368 . S
C554 C553 1.523 . S
H555 C530 0.950 . S
H556 C532 0.950 . S
H557 C533 0.949 . S
H558 C535 0.950 . S
H559 C537 0.950 . S
C560 C561 1.349 . S
C560 C562 1.327 . S
C560 H585 0.950 . S
C561 C560 1.349 . S
C561 C577 1.349 . S
C562 C560 1.327 . S
C562 C581 1.429 . S
C562 H586 0.950 . S
C563 C580 1.574 . S
C563 C582 1.368 . S
C563 H587 0.949 . S
H564 C568 0.949 . S
C565 C566 1.349 . S
C565 C567 1.327 . S
C565 H588 0.950 . S
C566 C565 1.349 . S
C566 C578 1.349 . S
C567 C565 1.327 . S
C567 C583 1.429 . S
C567 H589 0.950 . S
C568 H564 0.949 . S
C568 C576 1.574 . S
C568 C584 1.368 . S
H569 C577 0.950 . S
H570 C575 0.950 . S
H571 C576 0.949 . S
H572 C578 0.950 . S
H573 C579 0.950 . S
H574 C580 0.949 . S
C575 H570 0.950 . S
C575 C577 1.327 . S
C575 C581 1.429 . S
C576 C568 1.574 . S
C576 H571 0.949 . S
C576 C582 1.368 . S
C577 C561 1.349 . S
C577 H569 0.950 . S
C577 C575 1.327 . S
C578 C566 1.349 . S
C578 H572 0.950 . S
C578 C579 1.327 . S
C579 H573 0.950 . S
C579 C578 1.327 . S
C579 C583 1.429 . S
C580 C563 1.574 . S
C580 H574 0.949 . S
C580 C584 1.368 . S
C581 C562 1.429 . S
C581 C575 1.429 . S
C581 C582 1.523 . S
C582 C563 1.368 . S
C582 C576 1.368 . S
C582 C581 1.523 . S
C583 C567 1.429 . S
C583 C579 1.429 . S
C583 C584 1.523 . S
C584 C568 1.368 . S
C584 C580 1.368 . S
C584 C583 1.523 . S
H585 C560 0.950 . S
H586 C562 0.950 . S
H587 C563 0.949 . S
H588 C565 0.950 . S
H589 C567 0.950 . S
C590 C591 1.349 . S
C590 C592 1.327 . S
C590 H615 0.950 . S
C591 C590 1.349 . S
C591 C607 1.349 . S
C592 C590 1.327 . S
C592 C611 1.429 . S
C592 H616 0.950 . S
C593 C610 1.574 . S
C593 C612 1.368 . S
C593 H617 0.949 . S
H594 C598 0.949 . S
C595 C596 1.349 . S
C595 C597 1.327 . S
C595 H618 0.950 . S
C596 C595 1.349 . S
C596 C608 1.349 . S
C597 C595 1.327 . S
C597 C613 1.429 . S
C597 H619 0.950 . S
C598 H594 0.949 . S
C598 C606 1.574 . S
C598 C614 1.368 . S
H599 C607 0.950 . S
H600 C605 0.950 . S
H601 C606 0.949 . S
H602 C608 0.950 . S
H603 C609 0.950 . S
H604 C610 0.949 . S
C605 H600 0.950 . S
C605 C607 1.327 . S
C605 C611 1.429 . S
C606 C598 1.574 . S
C606 H601 0.949 . S
C606 C612 1.368 . S
C607 C591 1.349 . S
C607 H599 0.950 . S
C607 C605 1.327 . S
C608 C596 1.349 . S
C608 H602 0.950 . S
C608 C609 1.327 . S
C609 H603 0.950 . S
C609 C608 1.327 . S
C609 C613 1.429 . S
C610 C593 1.574 . S
C610 H604 0.949 . S
C610 C614 1.368 . S
C611 C592 1.429 . S
C611 C605 1.429 . S
C611 C612 1.523 . S
C612 C593 1.368 . S
C612 C606 1.368 . S
C612 C611 1.523 . S
C613 C597 1.429 . S
C613 C609 1.429 . S
C613 C614 1.523 . S
C614 C598 1.368 . S
C614 C610 1.368 . S
C614 C613 1.523 . S
H615 C590 0.950 . S
H616 C592 0.950 . S
H617 C593 0.949 . S
H618 C595 0.950 . S
H619 C597 0.950 . S
C620 C621 1.349 . S
C620 C622 1.327 . S
C620 H645 0.950 . S
C621 C620 1.349 . S
C621 C637 1.349 . S
C622 C620 1.327 . S
C622 C641 1.429 . S
C622 H646 0.950 . S
C623 C640 1.574 . S
C623 C642 1.368 . S
C623 H647 0.949 . S
H624 C628 0.949 . S
C625 C626 1.349 . S
C625 C627 1.327 . S
C625 H648 0.950 . S
C626 C625 1.349 . S
C626 C638 1.349 . S
C627 C625 1.327 . S
C627 C643 1.429 . S
C627 H649 0.950 . S
C628 H624 0.949 . S
C628 C636 1.574 . S
C628 C644 1.368 . S
H629 C637 0.950 . S
H630 C635 0.950 . S
H631 C636 0.949 . S
H632 C638 0.950 . S
H633 C639 0.950 . S
H634 C640 0.949 . S
C635 H630 0.950 . S
C635 C637 1.327 . S
C635 C641 1.429 . S
C636 C628 1.574 . S
C636 H631 0.949 . S
C636 C642 1.368 . S
C637 C621 1.349 . S
C637 H629 0.950 . S
C637 C635 1.327 . S
C638 C626 1.349 . S
C638 H632 0.950 . S
C638 C639 1.327 . S
C639 H633 0.950 . S
C639 C638 1.327 . S
C639 C643 1.429 . S
C640 C623 1.574 . S
C640 H634 0.949 . S
C640 C644 1.368 . S
C641 C622 1.429 . S
C641 C635 1.429 . S
C641 C642 1.523 . S
C642 C623 1.368 . S
C642 C636 1.368 . S
C642 C641 1.523 . S
C643 C627 1.429 . S
C643 C639 1.429 . S
C643 C644 1.523 . S
C644 C628 1.368 . S
C644 C640 1.368 . S
C644 C643 1.523 . S
H645 C620 0.950 . S
H646 C622 0.950 . S
H647 C623 0.949 . S
H648 C625 0.950 . S
H649 C627 0.950 . S
C650 C651 1.349 . S
C650 C652 1.327 . S
C650 H675 0.950 . S
C651 C650 1.349 . S
C651 C667 1.349 . S
C652 C650 1.327 . S
C652 C671 1.429 . S
C652 H676 0.950 . S
C653 C670 1.574 . S
C653 C672 1.368 . S
C653 H677 0.949 . S
H654 C658 0.949 . S
C655 C656 1.349 . S
C655 C657 1.327 . S
C655 H678 0.950 . S
C656 C655 1.349 . S
C656 C668 1.349 . S
C657 C655 1.327 . S
C657 C673 1.429 . S
C657 H679 0.950 . S
C658 H654 0.949 . S
C658 C666 1.574 . S
C658 C674 1.368 . S
H659 C667 0.950 . S
H660 C665 0.950 . S
H661 C666 0.949 . S
H662 C668 0.950 . S
H663 C669 0.950 . S
H664 C670 0.949 . S
C665 H660 0.950 . S
C665 C667 1.327 . S
C665 C671 1.429 . S
C666 C658 1.574 . S
C666 H661 0.949 . S
C666 C672 1.368 . S
C667 C651 1.349 . S
C667 H659 0.950 . S
C667 C665 1.327 . S
C668 C656 1.349 . S
C668 H662 0.950 . S
C668 C669 1.327 . S
C669 H663 0.950 . S
C669 C668 1.327 . S
C669 C673 1.429 . S
C670 C653 1.574 . S
C670 H664 0.949 . S
C670 C674 1.368 . S
C671 C652 1.429 . S
C671 C665 1.429 . S
C671 C672 1.523 . S
C672 C653 1.368 . S
C672 C666 1.368 . S
C672 C671 1.523 . S
C673 C657 1.429 . S
C673 C669 1.429 . S
C673 C674 1.523 . S
C674 C658 1.368 . S
C674 C670 1.368 . S
C674 C673 1.523 . S
H675 C650 0.950 . S
H676 C652 0.950 . S
H677 C653 0.949 . S
H678 C655 0.950 . S
H679 C657 0.950 . S
C680 C681 1.349 . S
C680 C682 1.327 . S
C680 H705 0.950 . S
C681 C680 1.349 . S
C681 C697 1.349 . S
C682 C680 1.327 . S
C682 C701 1.429 . S
C682 H706 0.950 . S
C683 C700 1.520 1_565 S
C683 C702 1.368 . S
C683 H707 0.949 . S
H684 C688 0.949 . S
C685 C686 1.349 . S
C685 C687 1.327 . S
C685 H708 0.950 . S
C686 C685 1.349 . S
C686 C698 1.349 . S
C687 C685 1.327 . S
C687 C703 1.429 . S
C687 H709 0.950 . S
C688 H684 0.949 . S
C688 C696 1.574 . S
C688 C704 1.368 1_565 S
H689 C697 0.950 . S
H690 C695 0.950 . S
H691 C696 0.949 . S
H692 C698 0.950 . S
H693 C699 0.950 . S
H694 C700 0.990 . S
C695 H690 0.950 . S
C695 C697 1.327 . S
C695 C701 1.429 . S
C696 C688 1.574 . S
C696 H691 0.949 . S
C696 C702 1.368 . S
C697 C681 1.349 . S
C697 H689 0.950 . S
C697 C695 1.327 . S
C698 C686 1.349 . S
C698 H692 0.950 . S
C698 C699 1.327 . S
C699 H693 0.950 . S
C699 C698 1.327 . S
C699 C703 1.429 . S
C700 C683 1.520 1_545 S
C700 H694 0.990 . S
C700 C704 1.379 . S
C701 C682 1.429 . S
C701 C695 1.429 . S
C701 C702 1.523 . S
C702 C683 1.368 . S
C702 C696 1.368 . S
C702 C701 1.523 . S
C703 C687 1.429 . S
C703 C699 1.429 . S
C703 C704 1.523 . S
C704 C688 1.368 1_545 S
C704 C700 1.379 . S
C704 C703 1.523 . S
H705 C680 0.950 . S
H706 C682 0.950 . S
H707 C683 0.949 . S
H708 C685 0.950 . S
H709 C687 0.950 . S
C710 C711 1.349 . S
C710 C712 1.327 . S
C710 H735 0.950 . S
C711 C710 1.349 . S
C711 C727 1.349 . S
C712 C710 1.327 . S
C712 C731 1.429 . S
C712 H736 0.950 . S
C713 C730 1.547 1_455 S
C713 C732 1.374 . S
C713 H737 0.969 . S
H714 C718 0.949 . S
C715 C716 1.349 . S
C715 C717 1.327 . S
C715 H738 0.950 . S
C716 C715 1.349 . S
C716 C728 1.349 . S
C717 C715 1.327 . S
C717 C733 1.429 . S
C717 H739 0.950 . S
C718 H714 0.949 . S
C718 C726 1.574 . S
C718 C734 1.368 . S
H719 C727 0.950 . S
H720 C725 0.950 . S
H721 C726 0.949 . S
H722 C728 0.950 . S
H723 C729 0.950 . S
H724 C730 0.949 . S
C725 H720 0.950 . S
C725 C727 1.327 . S
C725 C731 1.429 . S
C726 C718 1.574 . S
C726 H721 0.949 . S
C726 C732 1.368 1_655 S
C727 C711 1.349 . S
C727 H719 0.950 . S
C727 C725 1.327 . S
C728 C716 1.349 . S
C728 H722 0.950 . S
C728 C729 1.327 . S
C729 H723 0.950 . S
C729 C728 1.327 . S
C729 C733 1.429 . S
C730 C713 1.547 1_655 S
C730 H724 0.949 . S
C730 C734 1.368 . S
C731 C712 1.429 . S
C731 C725 1.429 . S
C731 C732 1.523 . S
C732 C713 1.374 . S
C732 C726 1.368 1_455 S
C732 C731 1.523 . S
C733 C717 1.429 . S
C733 C729 1.429 . S
C733 C734 1.523 . S
C734 C718 1.368 . S
C734 C730 1.368 . S
C734 C733 1.523 . S
H735 C710 0.950 . S
H736 C712 0.950 . S
H737 C713 0.969 . S
H738 C715 0.950 . S
H739 C717 0.950 . S
C740 C741 1.349 . S
C740 C742 1.327 . S
C740 H765 0.950 . S
C741 C740 1.349 . S
C741 C757 1.349 . S
C742 C740 1.327 . S
C742 C761 1.429 . S
C742 H766 0.950 . S
C743 C760 1.574 . S
C743 C762 1.368 1_545 S
C743 H767 0.949 1_545 S
H744 C748 0.949 . S
C745 C746 1.349 . S
C745 C747 1.327 . S
C745 H768 0.950 . S
C746 C745 1.349 . S
C746 C758 1.349 . S
C747 C745 1.327 . S
C747 C763 1.429 . S
C747 H769 0.950 . S
C748 H744 0.949 . S
C748 C756 1.574 . S
C748 C764 1.368 . S
H749 C757 0.950 . S
H750 C755 0.950 . S
H751 C756 0.949 1_565 S
H752 C758 0.950 . S
H753 C759 0.950 . S
H754 C760 0.949 . S
C755 H750 0.950 . S
C755 C757 1.327 . S
C755 C761 1.429 . S
C756 C748 1.574 . S
C756 H751 0.949 1_545 S
C756 C762 1.368 1_545 S
C757 C741 1.349 . S
C757 H749 0.950 . S
C757 C755 1.327 . S
C758 C746 1.349 . S
C758 H752 0.950 . S
C758 C759 1.327 . S
C759 H753 0.950 . S
C759 C758 1.327 . S
C759 C763 1.429 . S
C760 C743 1.574 . S
C760 H754 0.949 . S
C760 C764 1.368 . S
C761 C742 1.429 . S
C761 C755 1.429 . S
C761 C762 1.523 . S
C762 C743 1.368 1_565 S
C762 C756 1.368 1_565 S
C762 C761 1.523 . S
C763 C747 1.429 . S
C763 C759 1.429 . S
C763 C764 1.523 . S
C764 C748 1.368 . S
C764 C760 1.368 . S
C764 C763 1.523 . S
H765 C740 0.950 . S
H766 C742 0.950 . S
H767 C743 0.949 1_565 S
H768 C745 0.950 . S
H769 C747 0.950 . S
C770 C771 1.349 . S
C770 C772 1.327 . S
C770 H795 0.950 . S
C771 C770 1.349 . S
C771 C787 1.349 . S
C772 C770 1.327 . S
C772 C791 1.429 . S
C772 H796 0.950 . S
C773 C790 1.588 . S
C773 C792 1.368 . S
C773 H797 0.949 . S
H774 C778 0.950 1_655 S
C775 C776 1.349 . S
C775 C777 1.327 . S
C775 H798 0.950 . S
C776 C775 1.349 . S
C776 C788 1.349 . S
C777 C775 1.327 . S
C777 C793 1.429 . S
C777 H799 0.950 . S
C778 H774 0.950 1_455 S
C778 C786 1.574 . S
C778 C794 1.368 1_455 S
H779 C787 0.950 . S
H780 C785 0.950 . S
H781 C786 0.949 . S
H782 C788 0.950 . S
H783 C789 0.950 . S
H784 C790 0.940 1_655 S
C785 H780 0.950 . S
C785 C787 1.327 . S
C785 C791 1.429 . S
C786 C778 1.574 . S
C786 H781 0.949 . S
C786 C792 1.368 . S
C787 C771 1.349 . S
C787 H779 0.950 . S
C787 C785 1.327 . S
C788 C776 1.349 . S
C788 H782 0.950 . S
C788 C789 1.327 . S
C789 H783 0.950 . S
C789 C788 1.327 . S
C789 C793 1.429 . S
C790 C773 1.588 . S
C790 H784 0.940 1_455 S
C790 C794 1.365 1_455 S
C791 C772 1.429 . S
C791 C785 1.429 . S
C791 C792 1.523 . S
C792 C773 1.368 . S
C792 C786 1.368 . S
C792 C791 1.523 . S
C793 C777 1.429 . S
C793 C789 1.429 . S
C793 C794 1.523 . S
C794 C778 1.368 1_655 S
C794 C790 1.365 1_655 S
C794 C793 1.523 . S
H795 C770 0.950 . S
H796 C772 0.950 . S
H797 C773 0.949 . S
H798 C775 0.950 . S
H799 C777 0.950 . S
C800 C801 1.349 . S
C800 C802 1.327 . S
C800 H825 0.950 . S
C801 C800 1.349 . S
C801 C817 1.349 . S
C802 C800 1.327 . S
C802 C821 1.429 . S
C802 H826 0.950 . S
C803 C820 1.574 . S
C803 C822 1.368 . S
C803 H827 0.949 . S
H804 C808 0.949 . S
C805 C806 1.349 . S
C805 C807 1.327 . S
C805 H828 0.950 . S
C806 C805 1.349 . S
C806 C818 1.349 . S
C807 C805 1.327 . S
C807 C823 1.429 . S
C807 H829 0.950 . S
C808 H804 0.949 . S
C808 C816 1.574 . S
C808 C824 1.368 . S
H809 C817 0.950 . S
H810 C815 0.950 . S
H811 C816 0.949 . S
H812 C818 0.950 . S
H813 C819 0.950 . S
H814 C820 0.949 . S
C815 H810 0.950 . S
C815 C817 1.327 . S
C815 C821 1.429 . S
C816 C808 1.574 . S
C816 H811 0.949 . S
C816 C822 1.368 . S
C817 C801 1.349 . S
C817 H809 0.950 . S
C817 C815 1.327 . S
C818 C806 1.349 . S
C818 H812 0.950 . S
C818 C819 1.327 . S
C819 H813 0.950 . S
C819 C818 1.327 . S
C819 C823 1.429 . S
C820 C803 1.574 . S
C820 H814 0.949 . S
C820 C824 1.368 . S
C821 C802 1.429 . S
C821 C815 1.429 . S
C821 C822 1.523 . S
C822 C803 1.368 . S
C822 C816 1.368 . S
C822 C821 1.523 . S
C823 C807 1.429 . S
C823 C819 1.429 . S
C823 C824 1.523 . S
C824 C808 1.368 . S
C824 C820 1.368 . S
C824 C823 1.523 . S
H825 C800 0.950 . S
H826 C802 0.950 . S
H827 C803 0.949 . S
H828 C805 0.950 . S
H829 C807 0.950 . S
C830 C831 1.349 . S
C830 C832 1.327 . S
C830 H855 0.950 . S
C831 C830 1.349 . S
C831 C847 1.349 . S
C832 C830 1.327 . S
C832 C851 1.429 . S
C832 H856 0.950 . S
C833 C850 1.574 . S
C833 C852 1.368 . S
C833 H857 0.949 . S
H834 C838 0.949 . S
C835 C836 1.349 . S
C835 C837 1.327 . S
C835 H858 0.950 . S
C836 C835 1.349 . S
C836 C848 1.349 . S
C837 C835 1.327 . S
C837 C853 1.429 . S
C837 H859 0.950 . S
C838 H834 0.949 . S
C838 C846 1.574 . S
C838 C854 1.368 . S
H839 C847 0.950 . S
H840 C845 0.950 . S
H841 C846 0.949 . S
H842 C848 0.950 . S
H843 C849 0.950 . S
H844 C850 0.949 . S
C845 H840 0.950 . S
C845 C847 1.327 . S
C845 C851 1.429 . S
C846 C838 1.574 . S
C846 H841 0.949 . S
C846 C852 1.368 . S
C847 C831 1.349 . S
C847 H839 0.950 . S
C847 C845 1.327 . S
C848 C836 1.349 . S
C848 H842 0.950 . S
C848 C849 1.327 . S
C849 H843 0.950 . S
C849 C848 1.327 . S
C849 C853 1.429 . S
C850 C833 1.574 . S
C850 H844 0.949 . S
C850 C854 1.368 . S
C851 C832 1.429 . S
C851 C845 1.429 . S
C851 C852 1.523 . S
C852 C833 1.368 . S
C852 C846 1.368 . S
C852 C851 1.523 . S
C853 C837 1.429 . S
C853 C849 1.429 . S
C853 C854 1.523 . S
C854 C838 1.368 . S
C854 C850 1.368 . S
C854 C853 1.523 . S
H855 C830 0.950 . S
H856 C832 0.950 . S
H857 C833 0.949 . S
H858 C835 0.950 . S
H859 C837 0.950 . S
C860 C861 1.349 . S
C860 C862 1.327 . S
C860 H885 0.950 . S
C861 C860 1.349 . S
C861 C877 1.349 . S
C862 C860 1.327 . S
C862 C881 1.429 . S
C862 H886 0.950 . S
C863 C880 1.574 . S
C863 C882 1.368 . S
C863 H887 0.949 . S
H864 C868 0.949 . S
C865 C866 1.349 . S
C865 C867 1.327 . S
C865 H888 0.950 . S
C866 C865 1.349 . S
C866 C878 1.349 . S
C867 C865 1.327 . S
C867 C883 1.429 . S
C867 H889 0.950 . S
C868 H864 0.949 . S
C868 C876 1.574 . S
C868 C884 1.368 . S
H869 C877 0.950 . S
H870 C875 0.950 . S
H871 C876 0.949 . S
H872 C878 0.950 . S
H873 C879 0.950 . S
H874 C880 0.949 . S
C875 H870 0.950 . S
C875 C877 1.327 . S
C875 C881 1.429 . S
C876 C868 1.574 . S
C876 H871 0.949 . S
C876 C882 1.368 . S
C877 C861 1.349 . S
C877 H869 0.950 . S
C877 C875 1.327 . S
C878 C866 1.349 . S
C878 H872 0.950 . S
C878 C879 1.327 . S
C879 H873 0.950 . S
C879 C878 1.327 . S
C879 C883 1.429 . S
C880 C863 1.574 . S
C880 H874 0.949 . S
C880 C884 1.368 . S
C881 C862 1.429 . S
C881 C875 1.429 . S
C881 C882 1.523 . S
C882 C863 1.368 . S
C882 C876 1.368 . S
C882 C881 1.523 . S
C883 C867 1.429 . S
C883 C879 1.429 . S
C883 C884 1.523 . S
C884 C868 1.368 . S
C884 C880 1.368 . S
C884 C883 1.523 . S
H885 C860 0.950 . S
H886 C862 0.950 . S
H887 C863 0.949 . S
H888 C865 0.950 . S
H889 C867 0.950 . S
C890 C891 1.349 . S
C890 C892 1.327 . S
C890 H915 0.950 . S
C891 C890 1.349 . S
C891 C907 1.349 . S
C892 C890 1.327 . S
C892 C911 1.429 . S
C892 H916 0.950 . S
C893 C910 1.574 . S
C893 C912 1.368 . S
C893 H917 0.949 . S
H894 C898 0.949 . S
C895 C896 1.349 . S
C895 C897 1.327 . S
C895 H918 0.950 . S
C896 C895 1.349 . S
C896 C908 1.349 . S
C897 C895 1.327 . S
C897 C913 1.429 . S
C897 H919 0.950 . S
C898 H894 0.949 . S
C898 C906 1.574 . S
C898 C914 1.368 . S
H899 C907 0.950 . S
H900 C905 0.950 . S
H901 C906 0.949 . S
H902 C908 0.950 . S
H903 C909 0.950 . S
H904 C910 0.949 . S
C905 H900 0.950 . S
C905 C907 1.327 . S
C905 C911 1.429 . S
C906 C898 1.574 . S
C906 H901 0.949 . S
C906 C912 1.368 . S
C907 C891 1.349 . S
C907 H899 0.950 . S
C907 C905 1.327 . S
C908 C896 1.349 . S
C908 H902 0.950 . S
C908 C909 1.327 . S
C909 H903 0.950 . S
C909 C908 1.327 . S
C909 C913 1.429 . S
C910 C893 1.574 . S
C910 H904 0.949 . S
C910 C914 1.368 . S
C911 C892 1.429 . S
C911 C905 1.429 . S
C911 C912 1.523 . S
C912 C893 1.368 . S
C912 C906 1.368 . S
C912 C911 1.523 . S
C913 C897 1.429 . S
C913 C909 1.429 . S
C913 C914 1.523 . S
C914 C898 1.368 . S
C914 C910 1.368 . S
C914 C913 1.523 . S
H915 C890 0.950 . S
H916 C892 0.950 . S
H917 C893 0.949 . S
H918 C895 0.950 . S
H919 C897 0.950 . S
C920 C921 1.349 . S
C920 C922 1.327 . S
C920 H945 0.950 . S
C921 C920 1.349 . S
C921 C937 1.349 . S
C922 C920 1.327 . S
C922 C941 1.429 . S
C922 H946 0.950 . S
C923 C940 1.574 . S
C923 C942 1.368 . S
C923 H947 0.949 . S
H924 C928 0.949 . S
C925 C926 1.349 . S
C925 C927 1.327 . S
C925 H948 0.950 . S
C926 C925 1.349 . S
C926 C938 1.349 . S
C927 C925 1.327 . S
C927 C943 1.429 . S
C927 H949 0.950 . S
C928 H924 0.949 . S
C928 C936 1.574 . S
C928 C944 1.368 . S
H929 C937 0.950 . S
H930 C935 0.950 . S
H931 C936 0.949 . S
H932 C938 0.950 . S
H933 C939 0.950 . S
H934 C940 0.949 . S
C935 H930 0.950 . S
C935 C937 1.327 . S
C935 C941 1.429 . S
C936 C928 1.574 . S
C936 H931 0.949 . S
C936 C942 1.368 . S
C937 C921 1.349 . S
C937 H929 0.950 . S
C937 C935 1.327 . S
C938 C926 1.349 . S
C938 H932 0.950 . S
C938 C939 1.327 . S
C939 H933 0.950 . S
C939 C938 1.327 . S
C939 C943 1.429 . S
C940 C923 1.574 . S
C940 H934 0.949 . S
C940 C944 1.368 . S
C941 C922 1.429 . S
C941 C935 1.429 . S
C941 C942 1.523 . S
C942 C923 1.368 . S
C942 C936 1.368 . S
C942 C941 1.523 . S
C943 C927 1.429 . S
C943 C939 1.429 . S
C943 C944 1.523 . S
C944 C928 1.368 . S
C944 C940 1.368 . S
C944 C943 1.523 . S
H945 C920 0.950 . S
H946 C922 0.950 . S
H947 C923 0.949 . S
H948 C925 0.950 . S
H949 C927 0.950 . S
C950 C951 1.349 . S
C950 C952 1.327 . S
C950 H975 0.950 . S
C951 C950 1.349 . S
C951 C967 1.349 . S
C952 C950 1.327 . S
C952 C971 1.429 . S
C952 H976 0.950 . S
C953 C970 1.574 . S
C953 C972 1.368 . S
C953 H977 0.949 . S
H954 C958 0.949 . S
C955 C956 1.349 . S
C955 C957 1.327 . S
C955 H978 0.950 . S
C956 C955 1.349 . S
C956 C968 1.349 . S
C957 C955 1.327 . S
C957 C973 1.429 . S
C957 H979 0.950 . S
C958 H954 0.949 . S
C958 C966 1.574 . S
C958 C974 1.368 . S
H959 C967 0.950 . S
H960 C965 0.950 . S
H961 C966 0.949 . S
H962 C968 0.950 . S
H963 C969 0.950 . S
H964 C970 0.949 . S
C965 H960 0.950 . S
C965 C967 1.327 . S
C965 C971 1.429 . S
C966 C958 1.574 . S
C966 H961 0.949 . S
C966 C972 1.368 . S
C967 C951 1.349 . S
C967 H959 0.950 . S
C967 C965 1.327 . S
C968 C956 1.349 . S
C968 H962 0.950 . S
C968 C969 1.327 . S
C969 H963 0.950 . S
C969 C968 1.327 . S
C969 C973 1.429 . S
C970 C953 1.574 . S
C970 H964 0.949 . S
C970 C974 1.368 . S
C971 C952 1.429 . S
C971 C965 1.429 . S
C971 C972 1.523 . S
C972 C953 1.368 . S
C972 C966 1.368 . S
C972 C971 1.523 . S
C973 C957 1.429 . S
C973 C969 1.429 . S
C973 C974 1.523 . S
C974 C958 1.368 . S
C974 C970 1.368 . S
C974 C973 1.523 . S
H975 C950 0.950 . S
H976 C952 0.950 . S
H977 C953 0.949 . S
H978 C955 0.950 . S
H979 C957 0.950 . S
C980 C981 1.349 . S
C980 C982 1.327 . S
C980 H1005 0.950 . S
C981 C980 1.349 . S
C981 C997 1.349 . S
C982 C980 1.327 . S
C982 C1001 1.429 . S
C982 H1006 0.950 . S
C983 C1000 1.574 . S
C983 C1002 1.368 . S
C983 H1007 0.949 . S
H984 C988 0.949 . S
C985 C986 1.349 . S
C985 C987 1.327 . S
C985 H1008 0.950 . S
C986 C985 1.349 . S
C986 C998 1.349 . S
C987 C985 1.327 . S
C987 C1003 1.429 . S
C987 H1009 0.950 . S
C988 H984 0.949 . S
C988 C996 1.574 . S
C988 C1004 1.368 . S
H989 C997 0.950 . S
H990 C995 0.950 . S
H991 C996 0.949 . S
H992 C998 0.950 . S
H993 C999 0.950 . S
H994 C1000 0.949 . S
C995 H990 0.950 . S
C995 C997 1.327 . S
C995 C1001 1.429 . S
C996 C988 1.574 . S
C996 H991 0.949 . S
C996 C1002 1.368 . S
C997 C981 1.349 . S
C997 H989 0.950 . S
C997 C995 1.327 . S
C998 C986 1.349 . S
C998 H992 0.950 . S
C998 C999 1.327 . S
C999 H993 0.950 . S
C999 C998 1.327 . S
C999 C1003 1.429 . S
C1000 C983 1.574 . S
C1000 H994 0.949 . S
C1000 C1004 1.368 . S
C1001 C982 1.429 . S
C1001 C995 1.429 . S
C1001 C1002 1.523 . S
C1002 C983 1.368 . S
C1002 C996 1.368 . S
C1002 C1001 1.523 . S
C1003 C987 1.429 . S
C1003 C999 1.429 . S
C1003 C1004 1.523 . S
C1004 C988 1.368 . S
C1004 C1000 1.368 . S
C1004 C1003 1.523 . S
H1005 C980 0.950 . S
H1006 C982 0.950 . S
H1007 C983 0.949 . S
H1008 C985 0.950 . S
H1009 C987 0.950 . S
C1010 C1011 1.349 . S
C1010 C1012 1.327 . S
C1010 H1035 0.950 . S
C1011 C1010 1.349 . S
C1011 C1027 1.349 . S
C1012 C1010 1.327 . S
C1012 C1031 1.429 . S
C1012 H1036 0.950 . S
C1013 C1030 1.574 . S
C1013 C1032 1.368 . S
C1013 H1037 0.949 . S
H1014 C1018 0.949 . S
C1015 C1016 1.349 . S
C1015 C1017 1.327 . S
C1015 H1038 0.950 . S
C1016 C1015 1.349 . S
C1016 C1028 1.349 . S
C1017 C1015 1.327 . S
C1017 C1033 1.429 . S
C1017 H1039 0.950 . S
C1018 H1014 0.949 . S
C1018 C1026 1.574 . S
C1018 C1034 1.368 . S
H1019 C1027 0.950 . S
H1020 C1025 0.950 . S
H1021 C1026 0.949 . S
H1022 C1028 0.950 . S
H1023 C1029 0.950 . S
H1024 C1030 0.949 . S
C1025 H1020 0.950 . S
C1025 C1027 1.327 . S
C1025 C1031 1.429 . S
C1026 C1018 1.574 . S
C1026 H1021 0.949 . S
C1026 C1032 1.368 . S
C1027 C1011 1.349 . S
C1027 H1019 0.950 . S
C1027 C1025 1.327 . S
C1028 C1016 1.349 . S
C1028 H1022 0.950 . S
C1028 C1029 1.327 . S
C1029 H1023 0.950 . S
C1029 C1028 1.327 . S
C1029 C1033 1.429 . S
C1030 C1013 1.574 . S
C1030 H1024 0.949 . S
C1030 C1034 1.368 . S
C1031 C1012 1.429 . S
C1031 C1025 1.429 . S
C1031 C1032 1.523 . S
C1032 C1013 1.368 . S
C1032 C1026 1.368 . S
C1032 C1031 1.523 . S
C1033 C1017 1.429 . S
C1033 C1029 1.429 . S
C1033 C1034 1.523 . S
C1034 C1018 1.368 . S
C1034 C1030 1.368 . S
C1034 C1033 1.523 . S
H1035 C1010 0.950 . S
H1036 C1012 0.950 . S
H1037 C1013 0.949 . S
H1038 C1015 0.950 . S
H1039 C1017 0.950 . S
C1040 C1041 1.349 . S
C1040 C1042 1.327 . S
C1040 H1065 0.950 . S
C1041 C1040 1.349 . S
C1041 C1057 1.349 . S
C1042 C1040 1.327 . S
C1042 C1061 1.429 . S
C1042 H1066 0.950 . S
C1043 C1060 1.574 . S
C1043 C1062 1.368 . S
C1043 H1067 0.949 . S
H1044 C1048 0.949 . S
C1045 C1046 1.349 1_556 S
C1045 C1047 1.327 . S
C1045 H1068 0.950 . S
C1046 C1045 1.349 1_554 S
C1046 C1058 1.349 . S
C1047 C1045 1.327 . S
C1047 C1063 1.429 . S
C1047 H1069 0.950 . S
C1048 H1044 0.949 . S
C1048 C1056 1.574 . S
C1048 C1064 1.368 . S
H1049 C1057 0.950 . S
H1050 C1055 0.950 . S
H1051 C1056 0.949 . S
H1052 C1058 0.950 . S
H1053 C1059 0.951 . S
H1054 C1060 0.949 . S
C1055 H1050 0.950 . S
C1055 C1057 1.327 . S
C1055 C1061 1.429 . S
C1056 C1048 1.574 . S
C1056 H1051 0.949 . S
C1056 C1062 1.368 . S
C1057 C1041 1.349 . S
C1057 H1049 0.950 . S
C1057 C1055 1.327 . S
C1058 C1046 1.349 . S
C1058 H1052 0.950 . S
C1058 C1059 1.327 1_554 S
C1059 H1053 0.951 . S
C1059 C1058 1.327 1_556 S
C1059 C1063 1.429 . S
C1060 C1043 1.574 . S
C1060 H1054 0.949 . S
C1060 C1064 1.368 . S
C1061 C1042 1.429 . S
C1061 C1055 1.429 . S
C1061 C1062 1.523 . S
C1062 C1043 1.368 . S
C1062 C1056 1.368 . S
C1062 C1061 1.523 . S
C1063 C1047 1.429 . S
C1063 C1059 1.429 . S
C1063 C1064 1.523 . S
C1064 C1048 1.368 . S
C1064 C1060 1.368 . S
C1064 C1063 1.523 . S
H1065 C1040 0.950 . S
H1066 C1042 0.950 . S
H1067 C1043 0.949 . S
H1068 C1045 0.950 . S
H1069 C1047 0.950 . S
C1070 C1071 1.349 1_554 S
C1070 C1072 1.327 . S
C1070 H1095 0.950 . S
C1071 C1070 1.349 1_556 S
C1071 C1087 1.349 . S
C1072 C1070 1.327 . S
C1072 C1091 1.429 . S
C1072 H1096 0.950 . S
C1073 C1090 1.574 . S
C1073 C1092 1.368 . S
C1073 H1097 0.949 . S
H1074 C1078 0.949 . S
C1075 C1076 1.349 . S
C1075 C1077 1.327 . S
C1075 H1098 0.950 . S
C1076 C1075 1.349 . S
C1076 C1088 1.349 . S
C1077 C1075 1.327 . S
C1077 C1093 1.429 . S
C1077 H1099 0.950 . S
C1078 H1074 0.949 . S
C1078 C1086 1.574 . S
C1078 C1094 1.368 . S
H1079 C1087 0.950 . S
H1080 C1085 0.947 1_556 S
H1081 C1086 0.949 . S
H1082 C1088 0.950 . S
H1083 C1089 0.950 . S
H1084 C1090 0.949 . S
C1085 H1080 0.947 1_554 S
C1085 C1087 1.320 1_554 S
C1085 C1091 1.439 . S
C1086 C1078 1.574 . S
C1086 H1081 0.949 . S
C1086 C1092 1.368 . S
C1087 C1071 1.349 . S
C1087 H1079 0.950 . S
C1087 C1085 1.320 1_556 S
C1088 C1076 1.349 . S
C1088 H1082 0.950 . S
C1088 C1089 1.327 . S
C1089 H1083 0.950 . S
C1089 C1088 1.327 . S
C1089 C1093 1.429 . S
C1090 C1073 1.574 . S
C1090 H1084 0.949 . S
C1090 C1094 1.368 . S
C1091 C1072 1.429 . S
C1091 C1085 1.439 . S
C1091 C1092 1.523 . S
C1092 C1073 1.368 . S
C1092 C1086 1.368 . S
C1092 C1091 1.523 . S
C1093 C1077 1.429 . S
C1093 C1089 1.429 . S
C1093 C1094 1.523 . S
C1094 C1078 1.368 . S
C1094 C1090 1.368 . S
C1094 C1093 1.523 . S
H1095 C1070 0.950 . S
H1096 C1072 0.950 . S
H1097 C1073 0.949 . S
H1098 C1075 0.950 . S
H1099 C1077 0.950 . S
C1100 C1101 1.349 1_556 S
C1100 C1102 1.327 . S
C1100 H1125 0.950 . S
C1101 C1100 1.349 1_554 S
C1101 C1117 1.349 . S
C1102 C1100 1.327 . S
C1102 C1121 1.429 . S
C1102 H1126 0.950 . S
C1103 C1120 1.574 . S
C1103 C1122 1.368 . S
C1103 H1127 0.949 . S
H1104 C1108 0.949 . S
C1105 C1106 1.349 . S
C1105 C1107 1.327 . S
C1105 H1128 0.950 . S
C1106 C1105 1.349 . S
C1106 C1118 1.349 . S
C1107 C1105 1.327 . S
C1107 C1123 1.429 . S
C1107 H1129 0.950 . S
C1108 H1104 0.949 . S
C1108 C1116 1.574 . S
C1108 C1124 1.368 . S
H1109 C1117 0.950 . S
H1110 C1115 0.951 . S
H1111 C1116 0.949 . S
H1112 C1118 0.950 . S
H1113 C1119 0.950 . S
H1114 C1120 0.949 . S
C1115 H1110 0.951 . S
C1115 C1117 1.327 1_556 S
C1115 C1121 1.429 . S
C1116 C1108 1.574 . S
C1116 H1111 0.949 . S
C1116 C1122 1.368 . S
C1117 C1101 1.349 . S
C1117 H1109 0.950 . S
C1117 C1115 1.327 1_554 S
C1118 C1106 1.349 . S
C1118 H1112 0.950 . S
C1118 C1119 1.327 . S
C1119 H1113 0.950 . S
C1119 C1118 1.327 . S
C1119 C1123 1.429 . S
C1120 C1103 1.574 . S
C1120 H1114 0.949 . S
C1120 C1124 1.368 . S
C1121 C1102 1.429 . S
C1121 C1115 1.429 . S
C1121 C1122 1.523 . S
C1122 C1103 1.368 . S
C1122 C1116 1.368 . S
C1122 C1121 1.523 . S
C1123 C1107 1.429 . S
C1123 C1119 1.429 . S
C1123 C1124 1.523 . S
C1124 C1108 1.368 . S
C1124 C1120 1.368 . S
C1124 C1123 1.523 . S
H1125 C1100 0.950 . S
H1126 C1102 0.950 . S
H1127 C1103 0.949 . S
H1128 C1105 0.950 . S
H1129 C1107 0.950 . S
C1130 C1131 1.349 . S
C1130 C1132 1.327 . S
C1130 H1155 0.950 . S
C1131 C1130 1.349 . S
C1131 C1147 1.349 1_556 S
C1132 C1130 1.327 . S
C1132 C1151 1.429 1_556 S
C1132 H1156 0.950 . S
C1133 C1150 1.574 . S
C1133 C1152 1.368 . S
C1133 H1157 0.949 . S
H1134 C1138 0.949 . S
C1135 C1136 1.349 . S
C1135 C1137 1.327 . S
C1135 H1158 0.950 . S
C1136 C1135 1.349 . S
C1136 C1148 1.349 . S
C1137 C1135 1.327 . S
C1137 C1153 1.429 . S
C1137 H1159 0.950 . S
C1138 H1134 0.949 . S
C1138 C1146 1.574 . S
C1138 C1154 1.368 . S
H1139 C1147 0.950 . S
H1140 C1145 0.950 . S
H1141 C1146 0.949 . S
H1142 C1148 0.950 . S
H1143 C1149 0.950 . S
H1144 C1150 0.949 . S
C1145 H1140 0.950 . S
C1145 C1147 1.327 . S
C1145 C1151 1.429 . S
C1146 C1138 1.574 . S
C1146 H1141 0.949 . S
C1146 C1152 1.368 . S
C1147 C1131 1.349 1_554 S
C1147 H1139 0.950 . S
C1147 C1145 1.327 . S
C1148 C1136 1.349 . S
C1148 H1142 0.950 . S
C1148 C1149 1.327 . S
C1149 H1143 0.950 . S
C1149 C1148 1.327 . S
C1149 C1153 1.429 . S
C1150 C1133 1.574 . S
C1150 H1144 0.949 . S
C1150 C1154 1.368 . S
C1151 C1132 1.429 1_554 S
C1151 C1145 1.429 . S
C1151 C1152 1.523 . S
C1152 C1133 1.368 . S
C1152 C1146 1.368 . S
C1152 C1151 1.523 . S
C1153 C1137 1.429 . S
C1153 C1149 1.429 . S
C1153 C1154 1.523 . S
C1154 C1138 1.368 . S
C1154 C1150 1.368 . S
C1154 C1153 1.523 . S
H1155 C1130 0.950 . S
H1156 C1132 0.950 . S
H1157 C1133 0.949 . S
H1158 C1135 0.950 . S
H1159 C1137 0.950 . S
C1160 C1161 1.349 . S
C1160 C1162 1.327 . S
C1160 H1185 0.950 . S
C1161 C1160 1.349 . S
C1161 C1177 1.349 . S
C1162 C1160 1.327 . S
C1162 C1181 1.429 . S
C1162 H1186 0.950 . S
C1163 C1180 1.574 . S
C1163 C1182 1.368 . S
C1163 H1187 0.949 . S
H1164 C1168 0.949 . S
C1165 C1166 1.349 . S
C1165 C1167 1.327 . S
C1165 H1188 0.950 . S
C1166 C1165 1.349 . S
C1166 C1178 1.349 . S
C1167 C1165 1.327 . S
C1167 C1183 1.429 . S
C1167 H1189 0.950 . S
C1168 H1164 0.949 . S
C1168 C1176 1.574 . S
C1168 C1184 1.368 . S
H1169 C1177 0.950 . S
H1170 C1175 0.950 . S
H1171 C1176 0.949 . S
H1172 C1178 0.950 . S
H1173 C1179 0.950 . S
H1174 C1180 0.949 . S
C1175 H1170 0.950 . S
C1175 C1177 1.327 . S
C1175 C1181 1.429 . S
C1176 C1168 1.574 . S
C1176 H1171 0.949 . S
C1176 C1182 1.368 . S
C1177 C1161 1.349 . S
C1177 H1169 0.950 . S
C1177 C1175 1.327 . S
C1178 C1166 1.349 . S
C1178 H1172 0.950 . S
C1178 C1179 1.327 . S
C1179 H1173 0.950 . S
C1179 C1178 1.327 . S
C1179 C1183 1.429 . S
C1180 C1163 1.574 . S
C1180 H1174 0.949 . S
C1180 C1184 1.368 . S
C1181 C1162 1.429 . S
C1181 C1175 1.429 . S
C1181 C1182 1.523 . S
C1182 C1163 1.368 . S
C1182 C1176 1.368 . S
C1182 C1181 1.523 . S
C1183 C1167 1.429 . S
C1183 C1179 1.429 . S
C1183 C1184 1.523 . S
C1184 C1168 1.368 . S
C1184 C1180 1.368 . S
C1184 C1183 1.523 . S
H1185 C1160 0.950 . S
H1186 C1162 0.950 . S
H1187 C1163 0.949 . S
H1188 C1165 0.950 . S
H1189 C1167 0.950 . S
C1190 C1191 1.349 . S
C1190 C1192 1.327 . S
C1190 H1215 0.950 . S
C1191 C1190 1.349 . S
C1191 C1207 1.349 . S
C1192 C1190 1.327 . S
C1192 C1211 1.429 . S
C1192 H1216 0.950 . S
C1193 C1210 1.574 . S
C1193 C1212 1.368 . S
C1193 H1217 0.949 . S
H1194 C1198 0.949 . S
C1195 C1196 1.349 . S
C1195 C1197 1.327 . S
C1195 H1218 0.950 . S
C1196 C1195 1.349 . S
C1196 C1208 1.349 . S
C1197 C1195 1.327 . S
C1197 C1213 1.429 . S
C1197 H1219 0.950 . S
C1198 H1194 0.949 . S
C1198 C1206 1.574 . S
C1198 C1214 1.368 . S
H1199 C1207 0.950 . S
H1200 C1205 0.950 . S
H1201 C1206 0.949 . S
H1202 C1208 0.950 . S
H1203 C1209 0.950 . S
H1204 C1210 0.949 . S
C1205 H1200 0.950 . S
C1205 C1207 1.327 . S
C1205 C1211 1.429 . S
C1206 C1198 1.574 . S
C1206 H1201 0.949 . S
C1206 C1212 1.368 . S
C1207 C1191 1.349 . S
C1207 H1199 0.950 . S
C1207 C1205 1.327 . S
C1208 C1196 1.349 . S
C1208 H1202 0.950 . S
C1208 C1209 1.327 . S
C1209 H1203 0.950 . S
C1209 C1208 1.327 . S
C1209 C1213 1.429 . S
C1210 C1193 1.574 . S
C1210 H1204 0.949 . S
C1210 C1214 1.368 . S
C1211 C1192 1.429 . S
C1211 C1205 1.429 . S
C1211 C1212 1.523 . S
C1212 C1193 1.368 . S
C1212 C1206 1.368 . S
C1212 C1211 1.523 . S
C1213 C1197 1.429 . S
C1213 C1209 1.429 . S
C1213 C1214 1.523 . S
C1214 C1198 1.368 . S
C1214 C1210 1.368 . S
C1214 C1213 1.523 . S
H1215 C1190 0.950 . S
H1216 C1192 0.950 . S
H1217 C1193 0.949 . S
H1218 C1195 0.950 . S
H1219 C1197 0.950 . S
C1220 C1221 1.349 . S
C1220 C1222 1.327 . S
C1220 H1245 0.950 . S
C1221 C1220 1.349 . S
C1221 C1237 1.349 . S
C1222 C1220 1.327 . S
C1222 C1241 1.429 . S
C1222 H1246 0.950 . S
C1223 C1240 1.574 . S
C1223 C1242 1.368 . S
C1223 H1247 0.949 . S
H1224 C1228 0.949 . S
C1225 C1226 1.349 . S
C1225 C1227 1.327 . S
C1225 H1248 0.950 . S
C1226 C1225 1.349 . S
C1226 C1238 1.349 . S
C1227 C1225 1.327 . S
C1227 C1243 1.429 . S
C1227 H1249 0.950 . S
C1228 H1224 0.949 . S
C1228 C1236 1.574 . S
C1228 C1244 1.368 . S
H1229 C1237 0.950 . S
H1230 C1235 0.950 . S
H1231 C1236 0.949 . S
H1232 C1238 0.950 . S
H1233 C1239 0.950 . S
H1234 C1240 0.949 . S
C1235 H1230 0.950 . S
C1235 C1237 1.327 . S
C1235 C1241 1.429 . S
C1236 C1228 1.574 . S
C1236 H1231 0.949 . S
C1236 C1242 1.368 . S
C1237 C1221 1.349 . S
C1237 H1229 0.950 . S
C1237 C1235 1.327 . S
C1238 C1226 1.349 . S
C1238 H1232 0.950 . S
C1238 C1239 1.327 . S
C1239 H1233 0.950 . S
C1239 C1238 1.327 . S
C1239 C1243 1.429 . S
C1240 C1223 1.574 . S
C1240 H1234 0.949 . S
C1240 C1244 1.368 . S
C1241 C1222 1.429 . S
C1241 C1235 1.429 . S
C1241 C1242 1.523 . S
C1242 C1223 1.368 . S
C1242 C1236 1.368 . S
C1242 C1241 1.523 . S
C1243 C1227 1.429 . S
C1243 C1239 1.429 . S
C1243 C1244 1.523 . S
C1244 C1228 1.368 . S
C1244 C1240 1.368 . S
C1244 C1243 1.523 . S
H1245 C1220 0.950 . S
H1246 C1222 0.950 . S
H1247 C1223 0.949 . S
H1248 C1225 0.950 . S
H1249 C1227 0.950 . S
C1250 C1251 1.349 . S
C1250 C1252 1.327 . S
C1250 H1275 0.950 . S
C1251 C1250 1.349 . S
C1251 C1267 1.349 . S
C1252 C1250 1.327 . S
C1252 C1271 1.429 . S
C1252 H1276 0.950 . S
C1253 C1270 1.574 . S
C1253 C1272 1.368 . S
C1253 H1277 0.949 . S
H1254 C1258 0.949 . S
C1255 C1256 1.349 . S
C1255 C1257 1.327 . S
C1255 H1278 0.950 . S
C1256 C1255 1.349 . S
C1256 C1268 1.349 . S
C1257 C1255 1.327 . S
C1257 C1273 1.429 . S
C1257 H1279 0.950 . S
C1258 H1254 0.949 . S
C1258 C1266 1.574 . S
C1258 C1274 1.368 . S
H1259 C1267 0.950 . S
H1260 C1265 0.950 . S
H1261 C1266 0.949 . S
H1262 C1268 0.950 . S
H1263 C1269 0.950 . S
H1264 C1270 0.949 . S
C1265 H1260 0.950 . S
C1265 C1267 1.327 . S
C1265 C1271 1.429 . S
C1266 C1258 1.574 . S
C1266 H1261 0.949 . S
C1266 C1272 1.368 . S
C1267 C1251 1.349 . S
C1267 H1259 0.950 . S
C1267 C1265 1.327 . S
C1268 C1256 1.349 . S
C1268 H1262 0.950 . S
C1268 C1269 1.327 . S
C1269 H1263 0.950 . S
C1269 C1268 1.327 . S
C1269 C1273 1.429 . S
C1270 C1253 1.574 . S
C1270 H1264 0.949 . S
C1270 C1274 1.368 . S
C1271 C1252 1.429 . S
C1271 C1265 1.429 . S
C1271 C1272 1.523 . S
C1272 C1253 1.368 . S
C1272 C1266 1.368 . S
C1272 C1271 1.523 . S
C1273 C1257 1.429 . S
C1273 C1269 1.429 . S
C1273 C1274 1.523 . S
C1274 C1258 1.368 . S
C1274 C1270 1.368 . S
C1274 C1273 1.523 . S
H1275 C1250 0.950 . S
H1276 C1252 0.950 . S
H1277 C1253 0.949 . S
H1278 C1255 0.950 . S
H1279 C1257 0.950 . S
C1280 C1281 1.349 . S
C1280 C1282 1.327 . S
C1280 H1305 0.950 . S
C1281 C1280 1.349 . S
C1281 C1297 1.349 . S
C1282 C1280 1.327 . S
C1282 C1301 1.429 . S
C1282 H1306 0.950 . S
C1283 C1300 1.574 . S
C1283 C1302 1.368 . S
C1283 H1307 0.949 . S
H1284 C1288 0.949 . S
C1285 C1286 1.349 . S
C1285 C1287 1.327 . S
C1285 H1308 0.950 . S
C1286 C1285 1.349 . S
C1286 C1298 1.349 . S
C1287 C1285 1.327 . S
C1287 C1303 1.429 . S
C1287 H1309 0.950 . S
C1288 H1284 0.949 . S
C1288 C1296 1.574 . S
C1288 C1304 1.368 . S
H1289 C1297 0.950 . S
H1290 C1295 0.950 . S
H1291 C1296 0.949 . S
H1292 C1298 0.950 . S
H1293 C1299 0.950 . S
H1294 C1300 0.949 . S
C1295 H1290 0.950 . S
C1295 C1297 1.327 . S
C1295 C1301 1.429 . S
C1296 C1288 1.574 . S
C1296 H1291 0.949 . S
C1296 C1302 1.368 . S
C1297 C1281 1.349 . S
C1297 H1289 0.950 . S
C1297 C1295 1.327 . S
C1298 C1286 1.349 . S
C1298 H1292 0.950 . S
C1298 C1299 1.327 . S
C1299 H1293 0.950 . S
C1299 C1298 1.327 . S
C1299 C1303 1.429 . S
C1300 C1283 1.574 . S
C1300 H1294 0.949 . S
C1300 C1304 1.368 . S
C1301 C1282 1.429 . S
C1301 C1295 1.429 . S
C1301 C1302 1.523 . S
C1302 C1283 1.368 . S
C1302 C1296 1.368 . S
C1302 C1301 1.523 . S
C1303 C1287 1.429 . S
C1303 C1299 1.429 . S
C1303 C1304 1.523 . S
C1304 C1288 1.368 . S
C1304 C1300 1.368 . S
C1304 C1303 1.523 . S
H1305 C1280 0.950 . S
H1306 C1282 0.950 . S
H1307 C1283 0.949 . S
H1308 C1285 0.950 . S
H1309 C1287 0.950 . S
C1310 C1311 1.349 . S
C1310 C1312 1.327 . S
C1310 H1335 0.950 . S
C1311 C1310 1.349 . S
C1311 C1327 1.349 . S
C1312 C1310 1.327 . S
C1312 C1331 1.429 . S
C1312 H1336 0.950 . S
C1313 C1330 1.574 . S
C1313 C1332 1.368 . S
C1313 H1337 0.949 . S
H1314 C1318 0.949 . S
C1315 C1316 1.349 . S
C1315 C1317 1.327 . S
C1315 H1338 0.950 . S
C1316 C1315 1.349 . S
C1316 C1328 1.349 . S
C1317 C1315 1.327 . S
C1317 C1333 1.429 . S
C1317 H1339 0.950 . S
C1318 H1314 0.949 . S
C1318 C1326 1.574 . S
C1318 C1334 1.368 . S
H1319 C1327 0.950 . S
H1320 C1325 0.950 . S
H1321 C1326 0.949 . S
H1322 C1328 0.950 . S
H1323 C1329 0.950 . S
H1324 C1330 0.949 . S
C1325 H1320 0.950 . S
C1325 C1327 1.327 . S
C1325 C1331 1.429 . S
C1326 C1318 1.574 . S
C1326 H1321 0.949 . S
C1326 C1332 1.368 . S
C1327 C1311 1.349 . S
C1327 H1319 0.950 . S
C1327 C1325 1.327 . S
C1328 C1316 1.349 . S
C1328 H1322 0.950 . S
C1328 C1329 1.327 . S
C1329 H1323 0.950 . S
C1329 C1328 1.327 . S
C1329 C1333 1.429 . S
C1330 C1313 1.574 . S
C1330 H1324 0.949 . S
C1330 C1334 1.368 . S
C1331 C1312 1.429 . S
C1331 C1325 1.429 . S
C1331 C1332 1.523 . S
C1332 C1313 1.368 . S
C1332 C1326 1.368 . S
C1332 C1331 1.523 . S
C1333 C1317 1.429 . S
C1333 C1329 1.429 . S
C1333 C1334 1.523 . S
C1334 C1318 1.368 . S
C1334 C1330 1.368 . S
C1334 C1333 1.523 . S
H1335 C1310 0.950 . S
H1336 C1312 0.950 . S
H1337 C1313 0.949 . S
H1338 C1315 0.950 . S
H1339 C1317 0.950 . S
C1340 C1341 1.349 . S
C1340 C1342 1.327 . S
C1340 H1365 0.950 . S
C1341 C1340 1.349 . S
C1341 C1357 1.349 . S
C1342 C1340 1.327 . S
C1342 C1361 1.429 . S
C1342 H1366 0.950 . S
C1343 C1360 1.574 . S
C1343 C1362 1.368 . S
C1343 H1367 0.949 . S
H1344 C1348 0.949 . S
C1345 C1346 1.349 . S
C1345 C1347 1.327 . S
C1345 H1368 0.950 . S
C1346 C1345 1.349 . S
C1346 C1358 1.349 . S
C1347 C1345 1.327 . S
C1347 C1363 1.429 . S
C1347 H1369 0.950 . S
C1348 H1344 0.949 . S
C1348 C1356 1.574 . S
C1348 C1364 1.368 . S
H1349 C1357 0.950 . S
H1350 C1355 0.950 . S
H1351 C1356 0.949 . S
H1352 C1358 0.950 . S
H1353 C1359 0.950 . S
H1354 C1360 0.949 . S
C1355 H1350 0.950 . S
C1355 C1357 1.327 . S
C1355 C1361 1.429 . S
C1356 C1348 1.574 . S
C1356 H1351 0.949 . S
C1356 C1362 1.368 . S
C1357 C1341 1.349 . S
C1357 H1349 0.950 . S
C1357 C1355 1.327 . S
C1358 C1346 1.349 . S
C1358 H1352 0.950 . S
C1358 C1359 1.327 . S
C1359 H1353 0.950 . S
C1359 C1358 1.327 . S
C1359 C1363 1.429 . S
C1360 C1343 1.574 . S
C1360 H1354 0.949 . S
C1360 C1364 1.368 . S
C1361 C1342 1.429 . S
C1361 C1355 1.429 . S
C1361 C1362 1.523 . S
C1362 C1343 1.368 . S
C1362 C1356 1.368 . S
C1362 C1361 1.523 . S
C1363 C1347 1.429 . S
C1363 C1359 1.429 . S
C1363 C1364 1.523 . S
C1364 C1348 1.368 . S
C1364 C1360 1.368 . S
C1364 C1363 1.523 . S
H1365 C1340 0.950 . S
H1366 C1342 0.950 . S
H1367 C1343 0.949 . S
H1368 C1345 0.950 . S
H1369 C1347 0.950 . S
C1370 C1371 1.349 . S
C1370 C1372 1.327 . S
C1370 H1395 0.950 . S
C1371 C1370 1.349 . S
C1371 C1387 1.349 . S
C1372 C1370 1.327 . S
C1372 C1391 1.429 . S
C1372 H1396 0.950 . S
C1373 C1390 1.574 . S
C1373 C1392 1.368 . S
C1373 H1397 0.949 . S
H1374 C1378 0.949 . S
C1375 C1376 1.349 . S
C1375 C1377 1.327 . S
C1375 H1398 0.950 . S
C1376 C1375 1.349 . S
C1376 C1388 1.349 . S
C1377 C1375 1.327 . S
C1377 C1393 1.429 . S
C1377 H1399 0.950 . S
C1378 H1374 0.949 . S
C1378 C1386 1.574 . S
C1378 C1394 1.368 . S
H1379 C1387 0.950 . S
H1380 C1385 0.950 . S
H1381 C1386 0.949 . S
H1382 C1388 0.950 . S
H1383 C1389 0.950 . S
H1384 C1390 0.949 . S
C1385 H1380 0.950 . S
C1385 C1387 1.327 . S
C1385 C1391 1.429 . S
C1386 C1378 1.574 . S
C1386 H1381 0.949 . S
C1386 C1392 1.368 . S
C1387 C1371 1.349 . S
C1387 H1379 0.950 . S
C1387 C1385 1.327 . S
C1388 C1376 1.349 . S
C1388 H1382 0.950 . S
C1388 C1389 1.327 . S
C1389 H1383 0.950 . S
C1389 C1388 1.327 . S
C1389 C1393 1.429 . S
C1390 C1373 1.574 . S
C1390 H1384 0.949 . S
C1390 C1394 1.368 . S
C1391 C1372 1.429 . S
C1391 C1385 1.429 . S
C1391 C1392 1.523 . S
C1392 C1373 1.368 . S
C1392 C1386 1.368 . S
C1392 C1391 1.523 . S
C1393 C1377 1.429 . S
C1393 C1389 1.429 . S
C1393 C1394 1.523 . S
C1394 C1378 1.368 . S
C1394 C1390 1.368 . S
C1394 C1393 1.523 . S
H1395 C1370 0.950 . S
H1396 C1372 0.950 . S
H1397 C1373 0.949 . S
H1398 C1375 0.950 . S
H1399 C1377 0.950 . S
C1400 C1401 1.349 . S
C1400 C1402 1.327 . S
C1400 H1425 0.950 . S
C1401 C1400 1.349 . S
C1401 C1417 1.349 . S
C1402 C1400 1.327 . S
C1402 C1421 1.429 . S
C1402 H1426 0.950 . S
C1403 C1420 1.574 . S
C1403 C1422 1.368 . S
C1403 H1427 0.949 . S
H1404 C1408 0.949 . S
C1405 C1406 1.349 . S
C1405 C1407 1.327 . S
C1405 H1428 0.950 . S
C1406 C1405 1.349 . S
C1406 C1418 1.349 . S
C1407 C1405 1.327 . S
C1407 C1423 1.429 . S
C1407 H1429 0.950 . S
C1408 H1404 0.949 . S
C1408 C1416 1.574 . S
C1408 C1424 1.368 . S
H1409 C1417 0.950 . S
H1410 C1415 0.950 . S
H1411 C1416 0.949 . S
H1412 C1418 0.950 . S
H1413 C1419 0.950 . S
H1414 C1420 0.949 . S
C1415 H1410 0.950 . S
C1415 C1417 1.327 . S
C1415 C1421 1.429 . S
C1416 C1408 1.574 . S
C1416 H1411 0.949 . S
C1416 C1422 1.368 . S
C1417 C1401 1.349 . S
C1417 H1409 0.950 . S
C1417 C1415 1.327 . S
C1418 C1406 1.349 . S
C1418 H1412 0.950 . S
C1418 C1419 1.327 . S
C1419 H1413 0.950 . S
C1419 C1418 1.327 . S
C1419 C1423 1.429 . S
C1420 C1403 1.574 . S
C1420 H1414 0.949 . S
C1420 C1424 1.368 . S
C1421 C1402 1.429 . S
C1421 C1415 1.429 . S
C1421 C1422 1.523 . S
C1422 C1403 1.368 . S
C1422 C1416 1.368 . S
C1422 C1421 1.523 . S
C1423 C1407 1.429 . S
C1423 C1419 1.429 . S
C1423 C1424 1.523 . S
C1424 C1408 1.368 . S
C1424 C1420 1.368 . S
C1424 C1423 1.523 . S
H1425 C1400 0.950 . S
H1426 C1402 0.950 . S
H1427 C1403 0.949 . S
H1428 C1405 0.950 . S
H1429 C1407 0.950 . S
C1430 C1431 1.349 . S
C1430 C1432 1.327 . S
C1430 H1455 0.950 . S
C1431 C1430 1.349 . S
C1431 C1447 1.349 . S
C1432 C1430 1.327 . S
C1432 C1451 1.429 . S
C1432 H1456 0.950 . S
C1433 C1450 1.574 . S
C1433 C1452 1.368 . S
C1433 H1457 0.949 . S
H1434 C1438 0.949 . S
C1435 C1436 1.349 . S
C1435 C1437 1.327 . S
C1435 H1458 0.950 . S
C1436 C1435 1.349 . S
C1436 C1448 1.349 . S
C1437 C1435 1.327 . S
C1437 C1453 1.429 . S
C1437 H1459 0.950 . S
C1438 H1434 0.949 . S
C1438 C1446 1.574 . S
C1438 C1454 1.368 . S
H1439 C1447 0.950 . S
H1440 C1445 0.950 . S
H1441 C1446 0.949 . S
H1442 C1448 0.950 . S
H1443 C1449 0.950 . S
H1444 C1450 0.949 . S
C1445 H1440 0.950 . S
C1445 C1447 1.327 . S
C1445 C1451 1.429 . S
C1446 C1438 1.574 . S
C1446 H1441 0.949 . S
C1446 C1452 1.368 . S
C1447 C1431 1.349 . S
C1447 H1439 0.950 . S
C1447 C1445 1.327 . S
C1448 C1436 1.349 . S
C1448 H1442 0.950 . S
C1448 C1449 1.327 . S
C1449 H1443 0.950 . S
C1449 C1448 1.327 . S
C1449 C1453 1.429 . S
C1450 C1433 1.574 . S
C1450 H1444 0.949 . S
C1450 C1454 1.368 . S
C1451 C1432 1.429 . S
C1451 C1445 1.429 . S
C1451 C1452 1.523 . S
C1452 C1433 1.368 . S
C1452 C1446 1.368 . S
C1452 C1451 1.523 . S
C1453 C1437 1.429 . S
C1453 C1449 1.429 . S
C1453 C1454 1.523 . S
C1454 C1438 1.368 . S
C1454 C1450 1.368 . S
C1454 C1453 1.523 . S
H1455 C1430 0.950 . S
H1456 C1432 0.950 . S
H1457 C1433 0.949 . S
H1458 C1435 0.950 . S
H1459 C1437 0.950 . S
C1460 C1461 1.349 . S
C1460 C1462 1.327 . S
C1460 H1485 0.950 . S
C1461 C1460 1.349 . S
C1461 C1477 1.349 . S
C1462 C1460 1.327 . S
C1462 C1481 1.429 . S
C1462 H1486 0.950 . S
C1463 C1480 1.574 . S
C1463 C1482 1.368 . S
C1463 H1487 0.949 . S
H1464 C1468 0.949 . S
C1465 C1466 1.349 . S
C1465 C1467 1.327 . S
C1465 H1488 0.950 . S
C1466 C1465 1.349 . S
C1466 C1478 1.349 . S
C1467 C1465 1.327 . S
C1467 C1483 1.429 . S
C1467 H1489 0.950 . S
C1468 H1464 0.949 . S
C1468 C1476 1.574 . S
C1468 C1484 1.368 . S
H1469 C1477 0.950 . S
H1470 C1475 0.950 . S
H1471 C1476 0.949 . S
H1472 C1478 0.950 . S
H1473 C1479 0.950 . S
H1474 C1480 0.949 . S
C1475 H1470 0.950 . S
C1475 C1477 1.327 . S
C1475 C1481 1.429 . S
C1476 C1468 1.574 . S
C1476 H1471 0.949 . S
C1476 C1482 1.368 . S
C1477 C1461 1.349 . S
C1477 H1469 0.950 . S
C1477 C1475 1.327 . S
C1478 C1466 1.349 . S
C1478 H1472 0.950 . S
C1478 C1479 1.327 . S
C1479 H1473 0.950 . S
C1479 C1478 1.327 . S
C1479 C1483 1.429 . S
C1480 C1463 1.574 . S
C1480 H1474 0.949 . S
C1480 C1484 1.368 . S
C1481 C1462 1.429 . S
C1481 C1475 1.429 . S
C1481 C1482 1.523 . S
C1482 C1463 1.368 . S
C1482 C1476 1.368 . S
C1482 C1481 1.523 . S
C1483 C1467 1.429 . S
C1483 C1479 1.429 . S
C1483 C1484 1.523 . S
C1484 C1468 1.368 . S
C1484 C1480 1.368 . S
C1484 C1483 1.523 . S
H1485 C1460 0.950 . S
H1486 C1462 0.950 . S
H1487 C1463 0.949 . S
H1488 C1465 0.950 . S
H1489 C1467 0.950 . S
C1490 C1491 1.349 . S
C1490 C1492 1.327 . S
C1490 H1515 0.950 . S
C1491 C1490 1.349 . S
C1491 C1507 1.349 . S
C1492 C1490 1.327 . S
C1492 C1511 1.429 . S
C1492 H1516 0.950 . S
C1493 C1510 1.574 . S
C1493 C1512 1.368 . S
C1493 H1517 0.949 . S
H1494 C1498 0.949 . S
C1495 C1496 1.349 . S
C1495 C1497 1.327 . S
C1495 H1518 0.950 . S
C1496 C1495 1.349 . S
C1496 C1508 1.349 . S
C1497 C1495 1.327 . S
C1497 C1513 1.429 . S
C1497 H1519 0.950 . S
C1498 H1494 0.949 . S
C1498 C1506 1.574 . S
C1498 C1514 1.368 . S
H1499 C1507 0.950 . S
H1500 C1505 0.950 . S
H1501 C1506 0.949 . S
H1502 C1508 0.950 . S
H1503 C1509 0.950 . S
H1504 C1510 0.949 . S
C1505 H1500 0.950 . S
C1505 C1507 1.327 . S
C1505 C1511 1.429 . S
C1506 C1498 1.574 . S
C1506 H1501 0.949 . S
C1506 C1512 1.368 . S
C1507 C1491 1.349 . S
C1507 H1499 0.950 . S
C1507 C1505 1.327 . S
C1508 C1496 1.349 . S
C1508 H1502 0.950 . S
C1508 C1509 1.327 . S
C1509 H1503 0.950 . S
C1509 C1508 1.327 . S
C1509 C1513 1.429 . S
C1510 C1493 1.574 . S
C1510 H1504 0.949 . S
C1510 C1514 1.368 . S
C1511 C1492 1.429 . S
C1511 C1505 1.429 . S
C1511 C1512 1.523 . S
C1512 C1493 1.368 . S
C1512 C1506 1.368 . S
C1512 C1511 1.523 . S
C1513 C1497 1.429 . S
C1513 C1509 1.429 . S
C1513 C1514 1.523 . S
C1514 C1498 1.368 . S
C1514 C1510 1.368 . S
C1514 C1513 1.523 . S
H1515 C1490 0.950 . S
H1516 C1492 0.950 . S
H1517 C1493 0.949 . S
H1518 C1495 0.950 . S
H1519 C1497 0.950 . S
C1520 C1521 1.349 . S
C1520 C1522 1.327 . S
C1520 H1545 0.950 . S
C1521 C1520 1.349 . S
C1521 C1537 1.349 . S
C1522 C1520 1.327 . S
C1522 C1541 1.429 1_556 S
C1522 H1546 0.950 . S
C1523 C1540 1.574 . S
C1523 C1542 1.368 . S
C1523 H1547 0.949 . S
H1524 C1528 0.949 . S
C1525 C1526 1.349 . S
C1525 C1527 1.327 . S
C1525 H1548 0.950 . S
C1526 C1525 1.349 . S
C1526 C1538 1.349 . S
C1527 C1525 1.327 . S
C1527 C1543 1.429 . S
C1527 H1549 0.950 . S
C1528 H1524 0.949 . S
C1528 C1536 1.574 . S
C1528 C1544 1.368 . S
H1529 C1537 0.950 . S
H1530 C1535 0.950 . S
H1531 C1536 0.949 . S
H1532 C1538 0.950 . S
H1533 C1539 0.950 . S
H1534 C1540 0.949 . S
C1535 H1530 0.950 . S
C1535 C1537 1.327 . S
C1535 C1541 1.429 1_556 S
C1536 C1528 1.574 . S
C1536 H1531 0.949 . S
C1536 C1542 1.368 . S
C1537 C1521 1.349 . S
C1537 H1529 0.950 . S
C1537 C1535 1.327 . S
C1538 C1526 1.349 . S
C1538 H1532 0.950 . S
C1538 C1539 1.327 . S
C1539 H1533 0.950 . S
C1539 C1538 1.327 . S
C1539 C1543 1.429 . S
C1540 C1523 1.574 . S
C1540 H1534 0.949 . S
C1540 C1544 1.368 . S
C1541 C1522 1.429 1_554 S
C1541 C1535 1.429 1_554 S
C1541 C1542 1.523 . S
C1542 C1523 1.368 . S
C1542 C1536 1.368 . S
C1542 C1541 1.523 . S
C1543 C1527 1.429 . S
C1543 C1539 1.429 . S
C1543 C1544 1.523 . S
C1544 C1528 1.368 . S
C1544 C1540 1.368 . S
C1544 C1543 1.523 . S
H1545 C1520 0.950 . S
H1546 C1522 0.950 . S
H1547 C1523 0.949 . S
H1548 C1525 0.950 . S
H1549 C1527 0.950 . S
C1550 C1551 1.349 . S
C1550 C1552 1.327 . S
C1550 H1575 0.950 . S
C1551 C1550 1.349 . S
C1551 C1567 1.349 . S
C1552 C1550 1.327 . S
C1552 C1571 1.429 . S
C1552 H1576 0.950 . S
C1553 C1570 1.574 . S
C1553 C1572 1.368 . S
C1553 H1577 0.949 . S
H1554 C1558 0.949 . S
C1555 C1556 1.349 . S
C1555 C1557 1.327 . S
C1555 H1578 0.950 . S
C1556 C1555 1.349 . S
C1556 C1568 1.349 . S
C1557 C1555 1.327 . S
C1557 C1573 1.429 1_554 S
C1557 H1579 0.950 . S
C1558 H1554 0.949 . S
C1558 C1566 1.574 . S
C1558 C1574 1.368 . S
H1559 C1567 0.950 . S
H1560 C1565 0.950 . S
H1561 C1566 0.949 . S
H1562 C1568 0.950 . S
H1563 C1569 0.950 . S
H1564 C1570 0.949 . S
C1565 H1560 0.950 . S
C1565 C1567 1.327 . S
C1565 C1571 1.429 . S
C1566 C1558 1.574 . S
C1566 H1561 0.949 . S
C1566 C1572 1.368 . S
C1567 C1551 1.349 . S
C1567 H1559 0.950 . S
C1567 C1565 1.327 . S
C1568 C1556 1.349 . S
C1568 H1562 0.950 . S
C1568 C1569 1.327 . S
C1569 H1563 0.950 . S
C1569 C1568 1.327 . S
C1569 C1573 1.429 1_554 S
C1570 C1553 1.574 . S
C1570 H1564 0.949 . S
C1570 C1574 1.368 . S
C1571 C1552 1.429 . S
C1571 C1565 1.429 . S
C1571 C1572 1.523 . S
C1572 C1553 1.368 . S
C1572 C1566 1.368 . S
C1572 C1571 1.523 . S
C1573 C1557 1.429 1_556 S
C1573 C1569 1.429 1_556 S
C1573 C1574 1.523 . S
C1574 C1558 1.368 . S
C1574 C1570 1.368 . S
C1574 C1573 1.523 . S
H1575 C1550 0.950 . S
H1576 C1552 0.950 . S
H1577 C1553 0.949 . S
H1578 C1555 0.950 . S
H1579 C1557 0.950 . S
C1580 C1581 1.349 . S
C1580 C1582 1.327 . S
C1580 H1605 0.950 . S
C1581 C1580 1.349 . S
C1581 C1597 1.349 . S
C1582 C1580 1.327 . S
C1582 C1601 1.429 . S
C1582 H1606 0.950 . S
C1583 C1600 1.574 . S
C1583 C1602 1.368 . S
C1583 H1607 0.949 . S
H1584 C1588 0.949 . S
C1585 C1586 1.349 . S
C1585 C1587 1.327 . S
C1585 H1608 0.950 . S
C1586 C1585 1.349 . S
C1586 C1598 1.349 . S
C1587 C1585 1.327 . S
C1587 C1603 1.429 1_556 S
C1587 H1609 0.950 . S
C1588 H1584 0.949 . S
C1588 C1596 1.574 . S
C1588 C1604 1.368 . S
H1589 C1597 0.950 . S
H1590 C1595 0.950 . S
H1591 C1596 0.949 . S
H1592 C1598 0.950 . S
H1593 C1599 0.950 . S
H1594 C1600 0.949 . S
C1595 H1590 0.950 . S
C1595 C1597 1.327 . S
C1595 C1601 1.429 . S
C1596 C1588 1.574 . S
C1596 H1591 0.949 . S
C1596 C1602 1.368 . S
C1597 C1581 1.349 . S
C1597 H1589 0.950 . S
C1597 C1595 1.327 . S
C1598 C1586 1.349 . S
C1598 H1592 0.950 . S
C1598 C1599 1.327 . S
C1599 H1593 0.950 . S
C1599 C1598 1.327 . S
C1599 C1603 1.429 1_556 S
C1600 C1583 1.574 . S
C1600 H1594 0.949 . S
C1600 C1604 1.368 . S
C1601 C1582 1.429 . S
C1601 C1595 1.429 . S
C1601 C1602 1.523 . S
C1602 C1583 1.368 . S
C1602 C1596 1.368 . S
C1602 C1601 1.523 . S
C1603 C1587 1.429 1_554 S
C1603 C1599 1.429 1_554 S
C1603 C1604 1.523 . S
C1604 C1588 1.368 . S
C1604 C1600 1.368 . S
C1604 C1603 1.523 . S
H1605 C1580 0.950 . S
H1606 C1582 0.950 . S
H1607 C1583 0.949 . S
H1608 C1585 0.950 . S
H1609 C1587 0.950 . S
C1610 C1611 1.349 . S
C1610 C1612 1.327 . S
C1610 H1635 0.950 . S
C1611 C1610 1.349 . S
C1611 C1627 1.349 . S
C1612 C1610 1.327 . S
C1612 C1631 1.429 1_554 S
C1612 H1636 0.950 . S
C1613 C1630 1.574 . S
C1613 C1632 1.368 . S
C1613 H1637 0.949 . S
H1614 C1618 0.949 . S
C1615 C1616 1.349 . S
C1615 C1617 1.327 . S
C1615 H1638 0.950 . S
C1616 C1615 1.349 . S
C1616 C1628 1.349 . S
C1617 C1615 1.327 . S
C1617 C1633 1.429 . S
C1617 H1639 0.950 . S
C1618 H1614 0.949 . S
C1618 C1626 1.574 . S
C1618 C1634 1.368 . S
H1619 C1627 0.950 . S
H1620 C1625 0.950 . S
H1621 C1626 0.949 . S
H1622 C1628 0.950 . S
H1623 C1629 0.950 . S
H1624 C1630 0.949 . S
C1625 H1620 0.950 . S
C1625 C1627 1.327 . S
C1625 C1631 1.429 1_554 S
C1626 C1618 1.574 . S
C1626 H1621 0.949 . S
C1626 C1632 1.368 . S
C1627 C1611 1.349 . S
C1627 H1619 0.950 . S
C1627 C1625 1.327 . S
C1628 C1616 1.349 . S
C1628 H1622 0.950 . S
C1628 C1629 1.327 . S
C1629 H1623 0.950 . S
C1629 C1628 1.327 . S
C1629 C1633 1.429 . S
C1630 C1613 1.574 . S
C1630 H1624 0.949 . S
C1630 C1634 1.368 . S
C1631 C1612 1.429 1_556 S
C1631 C1625 1.429 1_556 S
C1631 C1632 1.523 . S
C1632 C1613 1.368 . S
C1632 C1626 1.368 . S
C1632 C1631 1.523 . S
C1633 C1617 1.429 . S
C1633 C1629 1.429 . S
C1633 C1634 1.523 . S
C1634 C1618 1.368 . S
C1634 C1630 1.368 . S
C1634 C1633 1.523 . S
H1635 C1610 0.950 . S
H1636 C1612 0.950 . S
H1637 C1613 0.949 . S
H1638 C1615 0.950 . S
H1639 C1617 0.950 . S
C1640 C1641 1.349 . S
C1640 C1642 1.327 . S
C1640 H1665 0.950 . S
C1641 C1640 1.349 . S
C1641 C1657 1.349 . S
C1642 C1640 1.327 . S
C1642 C1661 1.429 . S
C1642 H1666 0.950 . S
C1643 C1660 1.574 . S
C1643 C1662 1.368 . S
C1643 H1667 0.949 . S
H1644 C1648 0.949 . S
C1645 C1646 1.349 . S
C1645 C1647 1.327 . S
C1645 H1668 0.950 . S
C1646 C1645 1.349 . S
C1646 C1658 1.349 . S
C1647 C1645 1.327 . S
C1647 C1663 1.429 . S
C1647 H1669 0.950 . S
C1648 H1644 0.949 . S
C1648 C1656 1.574 . S
C1648 C1664 1.368 . S
H1649 C1657 0.950 . S
H1650 C1655 0.950 . S
H1651 C1656 0.949 . S
H1652 C1658 0.950 . S
H1653 C1659 0.950 . S
H1654 C1660 0.949 . S
C1655 H1650 0.950 . S
C1655 C1657 1.327 . S
C1655 C1661 1.429 . S
C1656 C1648 1.574 . S
C1656 H1651 0.949 . S
C1656 C1662 1.368 . S
C1657 C1641 1.349 . S
C1657 H1649 0.950 . S
C1657 C1655 1.327 . S
C1658 C1646 1.349 . S
C1658 H1652 0.950 . S
C1658 C1659 1.327 . S
C1659 H1653 0.950 . S
C1659 C1658 1.327 . S
C1659 C1663 1.429 . S
C1660 C1643 1.574 . S
C1660 H1654 0.949 . S
C1660 C1664 1.368 . S
C1661 C1642 1.429 . S
C1661 C1655 1.429 . S
C1661 C1662 1.523 . S
C1662 C1643 1.368 . S
C1662 C1656 1.368 . S
C1662 C1661 1.523 . S
C1663 C1647 1.429 . S
C1663 C1659 1.429 . S
C1663 C1664 1.523 1_556 S
C1664 C1648 1.368 . S
C1664 C1660 1.368 . S
C1664 C1663 1.523 1_554 S
H1665 C1640 0.950 . S
H1666 C1642 0.950 . S
H1667 C1643 0.949 . S
H1668 C1645 0.950 . S
H1669 C1647 0.950 . S
C1670 C1671 1.349 . S
C1670 C1672 1.327 . S
C1670 H1695 0.950 . S
C1671 C1670 1.349 . S
C1671 C1687 1.349 . S
C1672 C1670 1.327 . S
C1672 C1691 1.429 . S
C1672 H1696 0.950 . S
C1673 C1690 1.574 . S
C1673 C1692 1.368 . S
C1673 H1697 0.949 . S
H1674 C1678 0.949 . S
C1675 C1676 1.349 . S
C1675 C1677 1.327 . S
C1675 H1698 0.950 . S
C1676 C1675 1.349 . S
C1676 C1688 1.349 . S
C1677 C1675 1.327 . S
C1677 C1693 1.429 . S
C1677 H1699 0.950 . S
C1678 H1674 0.949 . S
C1678 C1686 1.574 . S
C1678 C1694 1.368 . S
H1679 C1687 0.950 . S
H1680 C1685 0.950 . S
H1681 C1686 0.949 . S
H1682 C1688 0.950 . S
H1683 C1689 0.950 . S
H1684 C1690 0.949 . S
C1685 H1680 0.950 . S
C1685 C1687 1.327 . S
C1685 C1691 1.429 . S
C1686 C1678 1.574 . S
C1686 H1681 0.949 . S
C1686 C1692 1.368 . S
C1687 C1671 1.349 . S
C1687 H1679 0.950 . S
C1687 C1685 1.327 . S
C1688 C1676 1.349 . S
C1688 H1682 0.950 . S
C1688 C1689 1.327 . S
C1689 H1683 0.950 . S
C1689 C1688 1.327 . S
C1689 C1693 1.429 . S
C1690 C1673 1.574 . S
C1690 H1684 0.949 . S
C1690 C1694 1.368 . S
C1691 C1672 1.429 . S
C1691 C1685 1.429 . S
C1691 C1692 1.523 1_554 S
C1692 C1673 1.368 . S
C1692 C1686 1.368 . S
C1692 C1691 1.523 1_556 S
C1693 C1677 1.429 . S
C1693 C1689 1.429 . S
C1693 C1694 1.523 . S
C1694 C1678 1.368 . S
C1694 C1690 1.368 . S
C1694 C1693 1.523 . S
H1695 C1670 0.950 . S
H1696 C1672 0.950 . S
H1697 C1673 0.949 . S
H1698 C1675 0.950 . S
H1699 C1677 0.950 . S
C1700 C1701 1.349 . S
C1700 C1702 1.327 . S
C1700 H1725 0.950 . S
C1701 C1700 1.349 . S
C1701 C1717 1.349 . S
C1702 C1700 1.327 . S
C1702 C1721 1.429 . S
C1702 H1726 0.950 . S
C1703 C1720 1.574 . S
C1703 C1722 1.368 . S
C1703 H1727 0.949 . S
H1704 C1708 0.949 . S
C1705 C1706 1.349 . S
C1705 C1707 1.327 . S
C1705 H1728 0.950 . S
C1706 C1705 1.349 . S
C1706 C1718 1.349 . S
C1707 C1705 1.327 . S
C1707 C1723 1.429 . S
C1707 H1729 0.950 . S
C1708 H1704 0.949 . S
C1708 C1716 1.574 . S
C1708 C1724 1.368 . S
H1709 C1717 0.950 . S
H1710 C1715 0.950 . S
H1711 C1716 0.949 . S
H1712 C1718 0.950 . S
H1713 C1719 0.950 . S
H1714 C1720 0.949 . S
C1715 H1710 0.950 . S
C1715 C1717 1.327 . S
C1715 C1721 1.429 . S
C1716 C1708 1.574 . S
C1716 H1711 0.949 . S
C1716 C1722 1.368 . S
C1717 C1701 1.349 . S
C1717 H1709 0.950 . S
C1717 C1715 1.327 . S
C1718 C1706 1.349 . S
C1718 H1712 0.950 . S
C1718 C1719 1.327 . S
C1719 H1713 0.950 . S
C1719 C1718 1.327 . S
C1719 C1723 1.429 . S
C1720 C1703 1.574 . S
C1720 H1714 0.949 . S
C1720 C1724 1.368 . S
C1721 C1702 1.429 . S
C1721 C1715 1.429 . S
C1721 C1722 1.523 1_556 S
C1722 C1703 1.368 . S
C1722 C1716 1.368 . S
C1722 C1721 1.523 1_554 S
C1723 C1707 1.429 . S
C1723 C1719 1.429 . S
C1723 C1724 1.523 . S
C1724 C1708 1.368 . S
C1724 C1720 1.368 . S
C1724 C1723 1.523 . S
H1725 C1700 0.950 . S
H1726 C1702 0.950 . S
H1727 C1703 0.949 . S
H1728 C1705 0.950 . S
H1729 C1707 0.950 . S
C1730 C1731 1.349 . S
C1730 C1732 1.327 . S
C1730 H1755 0.950 . S
C1731 C1730 1.349 . S
C1731 C1747 1.349 . S
C1732 C1730 1.327 . S
C1732 C1751 1.429 . S
C1732 H1756 0.950 . S
C1733 C1750 1.574 . S
C1733 C1752 1.368 . S
C1733 H1757 0.949 . S
H1734 C1738 0.949 . S
C1735 C1736 1.349 . S
C1735 C1737 1.327 . S
C1735 H1758 0.950 . S
C1736 C1735 1.349 . S
C1736 C1748 1.349 . S
C1737 C1735 1.327 . S
C1737 C1753 1.429 . S
C1737 H1759 0.950 . S
C1738 H1734 0.949 . S
C1738 C1746 1.574 . S
C1738 C1754 1.368 . S
H1739 C1747 0.950 . S
H1740 C1745 0.950 . S
H1741 C1746 0.949 . S
H1742 C1748 0.950 . S
H1743 C1749 0.950 . S
H1744 C1750 0.949 . S
C1745 H1740 0.950 . S
C1745 C1747 1.327 . S
C1745 C1751 1.429 . S
C1746 C1738 1.574 . S
C1746 H1741 0.949 . S
C1746 C1752 1.368 . S
C1747 C1731 1.349 . S
C1747 H1739 0.950 . S
C1747 C1745 1.327 . S
C1748 C1736 1.349 . S
C1748 H1742 0.950 . S
C1748 C1749 1.327 . S
C1749 H1743 0.950 . S
C1749 C1748 1.327 . S
C1749 C1753 1.429 . S
C1750 C1733 1.574 . S
C1750 H1744 0.949 . S
C1750 C1754 1.368 . S
C1751 C1732 1.429 . S
C1751 C1745 1.429 . S
C1751 C1752 1.523 . S
C1752 C1733 1.368 . S
C1752 C1746 1.368 . S
C1752 C1751 1.523 . S
C1753 C1737 1.429 . S
C1753 C1749 1.429 . S
C1753 C1754 1.523 1_554 S
C1754 C1738 1.368 . S
C1754 C1750 1.368 . S
C1754 C1753 1.523 1_556 S
H1755 C1730 0.950 . S
H1756 C1732 0.950 . S
H1757 C1733 0.949 . S
H1758 C1735 0.950 . S
H1759 C1737 0.950 . S
C321 C222 1.551 . S
C326 C19 1.581 . S
C351 C164 1.551 . S
C356 C38 1.581 . S
C381 C59 1.581 . S
C386 C182 1.551 . S
C411 C78 1.581 . S
C416 C204 1.551 . S
C441 C99 1.581 . S
C446 C102 1.551 . S
C471 C124 1.551 . S
C476 C118 1.581 . S
C501 C139 1.581 . S
C506 C142 1.551 . S
C531 C84 1.551 . S
C536 C158 1.581 . S
C561 C62 1.551 . S
C566 C179 1.581 . S
C591 C198 1.581 . S
C596 C4 1.551 . S
C621 C22 1.551 . S
C626 C219 1.581 . S
C651 C44 1.551 . S
C656 C238 1.581 . S
C681 C259 1.581 . S
C686 C262 1.551 . S
C711 C284 1.551 . S
C716 C278 1.581 . S
C741 C302 1.551 . S
C746 C299 1.581 . S
C771 C318 1.581 . S
C776 C244 1.551 . S
C801 C18 1.445 . S
C806 C98 1.445 . S
C831 C119 1.445 . S
C836 C39 1.445 . S
C861 C58 1.445 . S
C866 C138 1.445 . S
C891 C79 1.445 . S
C896 C159 1.445 . S
C921 C178 1.445 . S
C926 C258 1.445 . S
C951 C279 1.445 . S
C956 C199 1.445 . S
C981 C218 1.445 . S
C986 C298 1.445 . S
C1011 C239 1.445 . S
C1016 C319 1.445 . S
C1041 C282 1.572 . S
C1046 C2 1.572 . S
C1071 C24 1.572 . S
C1076 C304 1.572 . S
C1101 C42 1.572 . S
C1106 C242 1.572 . S
C1131 C64 1.572 . S
C1136 C264 1.572 . S
C1161 C82 1.572 . S
C1166 C202 1.572 . S
C1191 C104 1.572 . S
C1196 C224 1.572 . S
C1221 C122 1.572 . S
C1226 C162 1.572 . S
C1251 C184 1.572 . S
C1256 C144 1.572 . S
C1281 C12 1.305 . S
C1286 C9 1.305 . S
C1311 C29 1.305 . S
C1316 C32 1.305 . S
C1341 C52 1.305 . S
C1346 C49 1.305 . S
C1371 C72 1.305 . S
C1376 C69 1.305 . S
C1401 C89 1.305 . S
C1406 C92 1.305 . S
C1431 C109 1.305 . S
C1436 C112 1.305 . S
C1461 C132 1.305 . S
C1466 C129 1.305 . S
C1491 C152 1.305 . S
C1496 C149 1.305 . S
C1521 C172 1.305 . S
C1526 C169 1.305 . S
C1551 C192 1.305 . S
C1556 C189 1.305 . S
C1581 C209 1.305 . S
C1586 C212 1.305 . S
C1611 C229 1.305 . S
C1616 C232 1.305 . S
C1641 C252 1.305 . S
C1646 C249 1.305 . S
C1671 C272 1.305 . S
C1676 C269 1.305 . S
C1701 C289 1.305 . S
C1706 C292 1.305 . S
C1731 C309 1.305 . S
C1736 C312 1.305 . S
