# Generated by pormake.
# Topology wgp, (5)-cn, num edge types: 1
# Building blocks:
#     Node 0, Type 0, BuildingBlock: BEQFEK_clean_sbu_0, # of connection points: 5
#     Node 1, Type 0, BuildingBlock: BEQFEK_clean_sbu_0, # of connection points: 5
#     Node 2, Type 0, BuildingBlock: BEQFEK_clean_sbu_0, # of connection points: 5
#     Node 3, Type 0, BuildingBlock: BEQFEK_clean_sbu_0, # of connection points: 5
#     Node 4, Type 0, BuildingBlock: BEQFEK_clean_sbu_0, # of connection points: 5
#     Node 5, Type 0, BuildingBlock: BEQFEK_clean_sbu_0, # of connection points: 5
#     Node 6, Type 0, BuildingBlock: BEQFEK_clean_sbu_0, # of connection points: 5
#     Node 7, Type 0, BuildingBlock: BEQFEK_clean_sbu_0, # of connection points: 5
#     Node 8, Type 0, BuildingBlock: BEQFEK_clean_sbu_0, # of connection points: 5
#     Node 9, Type 0, BuildingBlock: BEQFEK_clean_sbu_0, # of connection points: 5
#     Node 10, Type 0, BuildingBlock: BEQFEK_clean_sbu_0, # of connection points: 5
#     Node 11, Type 0, BuildingBlock: BEQFEK_clean_sbu_0, # of connection points: 5
#     Node 12, Type 0, BuildingBlock: BEQFEK_clean_sbu_0, # of connection points: 5
#     Node 13, Type 0, BuildingBlock: BEQFEK_clean_sbu_0, # of connection points: 5
#     Node 14, Type 0, BuildingBlock: BEQFEK_clean_sbu_0, # of connection points: 5
#     Node 15, Type 0, BuildingBlock: BEQFEK_clean_sbu_0, # of connection points: 5
#     Node 16, Type 0, BuildingBlock: BEQFEK_clean_sbu_0, # of connection points: 5
#     Node 17, Type 0, BuildingBlock: BEQFEK_clean_sbu_0, # of connection points: 5
#     Node 18, Type 0, BuildingBlock: BEQFEK_clean_sbu_0, # of connection points: 5
#     Node 19, Type 0, BuildingBlock: BEQFEK_clean_sbu_0, # of connection points: 5
#     Node 20, Type 0, BuildingBlock: BEQFEK_clean_sbu_0, # of connection points: 5
#     Node 21, Type 0, BuildingBlock: BEQFEK_clean_sbu_0, # of connection points: 5
#     Node 22, Type 0, BuildingBlock: BEQFEK_clean_sbu_0, # of connection points: 5
#     Node 23, Type 0, BuildingBlock: BEQFEK_clean_sbu_0, # of connection points: 5
#     Node 24, Type 0, BuildingBlock: BEQFEK_clean_sbu_0, # of connection points: 5
#     Node 25, Type 0, BuildingBlock: BEQFEK_clean_sbu_0, # of connection points: 5
#     Node 26, Type 0, BuildingBlock: BEQFEK_clean_sbu_0, # of connection points: 5
#     Node 27, Type 0, BuildingBlock: BEQFEK_clean_sbu_0, # of connection points: 5
#     Node 28, Type 0, BuildingBlock: BEQFEK_clean_sbu_0, # of connection points: 5
#     Node 29, Type 0, BuildingBlock: BEQFEK_clean_sbu_0, # of connection points: 5
#     Node 30, Type 0, BuildingBlock: BEQFEK_clean_sbu_0, # of connection points: 5
#     Node 31, Type 0, BuildingBlock: BEQFEK_clean_sbu_0, # of connection points: 5
#     Edge 32, Type (0, 0), BuildingBlock: EZIPEK_clean_linker_0, # of connection points: 2
#     Edge 33, Type (0, 0), BuildingBlock: EZIPEK_clean_linker_0, # of connection points: 2
#     Edge 34, Type (0, 0), BuildingBlock: EZIPEK_clean_linker_0, # of connection points: 2
#     Edge 35, Type (0, 0), BuildingBlock: EZIPEK_clean_linker_0, # of connection points: 2
#     Edge 36, Type (0, 0), BuildingBlock: EZIPEK_clean_linker_0, # of connection points: 2
#     Edge 37, Type (0, 0), BuildingBlock: EZIPEK_clean_linker_0, # of connection points: 2
#     Edge 38, Type (0, 0), BuildingBlock: EZIPEK_clean_linker_0, # of connection points: 2
#     Edge 39, Type (0, 0), BuildingBlock: EZIPEK_clean_linker_0, # of connection points: 2
#     Edge 40, Type (0, 0), BuildingBlock: EZIPEK_clean_linker_0, # of connection points: 2
#     Edge 41, Type (0, 0), BuildingBlock: EZIPEK_clean_linker_0, # of connection points: 2
#     Edge 42, Type (0, 0), BuildingBlock: EZIPEK_clean_linker_0, # of connection points: 2
#     Edge 43, Type (0, 0), BuildingBlock: EZIPEK_clean_linker_0, # of connection points: 2
#     Edge 44, Type (0, 0), BuildingBlock: EZIPEK_clean_linker_0, # of connection points: 2
#     Edge 45, Type (0, 0), BuildingBlock: EZIPEK_clean_linker_0, # of connection points: 2
#     Edge 46, Type (0, 0), BuildingBlock: EZIPEK_clean_linker_0, # of connection points: 2
#     Edge 47, Type (0, 0), BuildingBlock: EZIPEK_clean_linker_0, # of connection points: 2
#     Edge 48, Type (0, 0), BuildingBlock: EZIPEK_clean_linker_0, # of connection points: 2
#     Edge 49, Type (0, 0), BuildingBlock: EZIPEK_clean_linker_0, # of connection points: 2
#     Edge 50, Type (0, 0), BuildingBlock: EZIPEK_clean_linker_0, # of connection points: 2
#     Edge 51, Type (0, 0), BuildingBlock: EZIPEK_clean_linker_0, # of connection points: 2
#     Edge 52, Type (0, 0), BuildingBlock: EZIPEK_clean_linker_0, # of connection points: 2
#     Edge 53, Type (0, 0), BuildingBlock: EZIPEK_clean_linker_0, # of connection points: 2
#     Edge 54, Type (0, 0), BuildingBlock: EZIPEK_clean_linker_0, # of connection points: 2
#     Edge 55, Type (0, 0), BuildingBlock: EZIPEK_clean_linker_0, # of connection points: 2
#     Edge 56, Type (0, 0), BuildingBlock: EZIPEK_clean_linker_0, # of connection points: 2
#     Edge 57, Type (0, 0), BuildingBlock: EZIPEK_clean_linker_0, # of connection points: 2
#     Edge 58, Type (0, 0), BuildingBlock: EZIPEK_clean_linker_0, # of connection points: 2
#     Edge 59, Type (0, 0), BuildingBlock: EZIPEK_clean_linker_0, # of connection points: 2
#     Edge 60, Type (0, 0), BuildingBlock: EZIPEK_clean_linker_0, # of connection points: 2
#     Edge 61, Type (0, 0), BuildingBlock: EZIPEK_clean_linker_0, # of connection points: 2
#     Edge 62, Type (0, 0), BuildingBlock: EZIPEK_clean_linker_0, # of connection points: 2
#     Edge 63, Type (0, 0), BuildingBlock: EZIPEK_clean_linker_0, # of connection points: 2
#     Edge 64, Type (0, 0), BuildingBlock: EZIPEK_clean_linker_0, # of connection points: 2
#     Edge 65, Type (0, 0), BuildingBlock: EZIPEK_clean_linker_0, # of connection points: 2
#     Edge 66, Type (0, 0), BuildingBlock: EZIPEK_clean_linker_0, # of connection points: 2
#     Edge 67, Type (0, 0), BuildingBlock: EZIPEK_clean_linker_0, # of connection points: 2
#     Edge 68, Type (0, 0), BuildingBlock: EZIPEK_clean_linker_0, # of connection points: 2
#     Edge 69, Type (0, 0), BuildingBlock: EZIPEK_clean_linker_0, # of connection points: 2
#     Edge 70, Type (0, 0), BuildingBlock: EZIPEK_clean_linker_0, # of connection points: 2
#     Edge 71, Type (0, 0), BuildingBlock: EZIPEK_clean_linker_0, # of connection points: 2
#     Edge 72, Type (0, 0), BuildingBlock: EZIPEK_clean_linker_0, # of connection points: 2
#     Edge 73, Type (0, 0), BuildingBlock: EZIPEK_clean_linker_0, # of connection points: 2
#     Edge 74, Type (0, 0), BuildingBlock: EZIPEK_clean_linker_0, # of connection points: 2
#     Edge 75, Type (0, 0), BuildingBlock: EZIPEK_clean_linker_0, # of connection points: 2
#     Edge 76, Type (0, 0), BuildingBlock: EZIPEK_clean_linker_0, # of connection points: 2
#     Edge 77, Type (0, 0), BuildingBlock: EZIPEK_clean_linker_0, # of connection points: 2
#     Edge 78, Type (0, 0), BuildingBlock: EZIPEK_clean_linker_0, # of connection points: 2
#     Edge 79, Type (0, 0), BuildingBlock: EZIPEK_clean_linker_0, # of connection points: 2
#     Edge 80, Type (0, 0), BuildingBlock: EZIPEK_clean_linker_0, # of connection points: 2
#     Edge 81, Type (0, 0), BuildingBlock: EZIPEK_clean_linker_0, # of connection points: 2
#     Edge 82, Type (0, 0), BuildingBlock: EZIPEK_clean_linker_0, # of connection points: 2
#     Edge 83, Type (0, 0), BuildingBlock: EZIPEK_clean_linker_0, # of connection points: 2
#     Edge 84, Type (0, 0), BuildingBlock: EZIPEK_clean_linker_0, # of connection points: 2
#     Edge 85, Type (0, 0), BuildingBlock: EZIPEK_clean_linker_0, # of connection points: 2
#     Edge 86, Type (0, 0), BuildingBlock: EZIPEK_clean_linker_0, # of connection points: 2
#     Edge 87, Type (0, 0), BuildingBlock: EZIPEK_clean_linker_0, # of connection points: 2
#     Edge 88, Type (0, 0), BuildingBlock: EZIPEK_clean_linker_0, # of connection points: 2
#     Edge 89, Type (0, 0), BuildingBlock: EZIPEK_clean_linker_0, # of connection points: 2
#     Edge 90, Type (0, 0), BuildingBlock: EZIPEK_clean_linker_0, # of connection points: 2
#     Edge 91, Type (0, 0), BuildingBlock: EZIPEK_clean_linker_0, # of connection points: 2
#     Edge 92, Type (0, 0), BuildingBlock: EZIPEK_clean_linker_0, # of connection points: 2
#     Edge 93, Type (0, 0), BuildingBlock: EZIPEK_clean_linker_0, # of connection points: 2
#     Edge 94, Type (0, 0), BuildingBlock: EZIPEK_clean_linker_0, # of connection points: 2
#     Edge 95, Type (0, 0), BuildingBlock: EZIPEK_clean_linker_0, # of connection points: 2
#     Edge 96, Type (0, 0), BuildingBlock: EZIPEK_clean_linker_0, # of connection points: 2
#     Edge 97, Type (0, 0), BuildingBlock: EZIPEK_clean_linker_0, # of connection points: 2
#     Edge 98, Type (0, 0), BuildingBlock: EZIPEK_clean_linker_0, # of connection points: 2
#     Edge 99, Type (0, 0), BuildingBlock: EZIPEK_clean_linker_0, # of connection points: 2
#     Edge 100, Type (0, 0), BuildingBlock: EZIPEK_clean_linker_0, # of connection points: 2
#     Edge 101, Type (0, 0), BuildingBlock: EZIPEK_clean_linker_0, # of connection points: 2
#     Edge 102, Type (0, 0), BuildingBlock: EZIPEK_clean_linker_0, # of connection points: 2
#     Edge 103, Type (0, 0), BuildingBlock: EZIPEK_clean_linker_0, # of connection points: 2
#     Edge 104, Type (0, 0), BuildingBlock: EZIPEK_clean_linker_0, # of connection points: 2
#     Edge 105, Type (0, 0), BuildingBlock: EZIPEK_clean_linker_0, # of connection points: 2
#     Edge 106, Type (0, 0), BuildingBlock: EZIPEK_clean_linker_0, # of connection points: 2
#     Edge 107, Type (0, 0), BuildingBlock: EZIPEK_clean_linker_0, # of connection points: 2
#     Edge 108, Type (0, 0), BuildingBlock: EZIPEK_clean_linker_0, # of connection points: 2
#     Edge 109, Type (0, 0), BuildingBlock: EZIPEK_clean_linker_0, # of connection points: 2
#     Edge 110, Type (0, 0), BuildingBlock: EZIPEK_clean_linker_0, # of connection points: 2
#     Edge 111, Type (0, 0), BuildingBlock: EZIPEK_clean_linker_0, # of connection points: 2
# Relax obj value: 0.313
# Max RMSD: 0.177
# Mean RMSD: 0.177
data_MOF--net-wgp--node1-BEQFEK_clean_sbu_0--edge1-EZIPEK_clean_linker_0
_symmetry_space_group_name_H-M    P1
_symmetry_Int_Tables_number       1
_symmetry_cell_setting            triclinic
loop_
_symmetry_equiv_pos_as_xyz
'x, y, z'
_cell_length_a     27.534116
_cell_length_b     27.530772
_cell_length_c     83.038613
_cell_angle_alpha  89.994815
_cell_angle_beta   89.962087
_cell_angle_gamma 89.771731
loop_
_atom_site_label
_atom_site_type_symbol
_atom_site_fract_x
_atom_site_fract_y
_atom_site_fract_z
_atom_type_partial_charge
Co0 Co 0.30648 0.2103 0.08145 0.0
Co1 Co 0.36217 0.11381 0.07637 0.0
C2 C 0.30212 0.15847 0.04946 0.0
O3 O 0.29042 0.19363 0.05861 0.0
O4 O 0.32953 0.12435 0.05461 0.0
C5 C 0.22971 0.27963 0.0781 0.0
O6 O 0.21544 0.25063 0.0665 0.0
C7 C 0.36088 0.00962 0.07253 0.0
C8 C 0.4335 0.98612 0.08077 0.0
C9 C 0.38858 0.9689 0.07588 0.0
N10 N 0.3874 0.04926 0.07571 0.0
N11 N 0.43117 0.0351 0.08035 0.0
C12 C 0.30868 0.01086 0.0675 0.0
H13 H 0.30672 1.00623 0.05424 0.0
H14 H 0.29168 0.04616 0.07069 0.0
H15 H 0.28825 0.98062 0.07314 0.0
C16 C 0.25858 0.15264 0.10804 0.0
N17 N 0.29096 0.15788 0.09585 0.0
N18 N 0.31626 0.11751 0.09433 0.0
C19 C 0.30154 0.086 0.10595 0.0
C20 C 0.26382 0.10657 0.11487 0.0
C21 C 0.22317 0.19109 0.11301 0.0
H22 H 0.24319 0.22464 0.11621 0.0
H23 H 0.19909 0.19987 0.1027 0.0
H24 H 0.20086 0.17922 0.12343 0.0
O25 O 0.37758 0.23068 0.08276 0.0
O26 O 0.41792 0.16169 0.07875 0.0
H27 H 0.31954 0.02699 0.122 0.0
H28 H 0.30653 0.00973 0.1017 0.0
C29 C 0.32434 0.0377 0.10921 0.0
H30 H 0.36363 0.03899 0.10642 0.0
H31 H 0.45865 0.05875 0.08393 0.0
O32 O 0.26627 0.26801 0.08667 0.0
C33 C 0.41774 0.20758 0.08118 0.0
Co34 Co 0.04811 0.05353 0.33209 0.0
Co35 Co 0.14949 0.09879 0.32625 0.0
C36 C 0.10531 0.04266 0.29983 0.0
O37 O 0.06891 0.03426 0.30902 0.0
O38 O 0.14052 0.0685 0.30475 0.0
C39 C 0.98569 0.97195 0.33042 0.0
O40 O 0.02344 0.95285 0.32308 0.0
C41 C 0.25393 0.11169 0.31879 0.0
C42 C 0.28039 0.13553 0.34258 0.0
C43 C 0.2962 0.11843 0.32776 0.0
N44 N 0.21531 0.12127 0.32828 0.0
N45 N 0.23157 0.13724 0.34227 0.0
C46 C 0.25011 0.09599 0.30156 0.0
H47 H 0.22509 0.12086 0.29506 0.0
H48 H 0.23427 0.05907 0.3009 0.0
H49 H 0.28621 0.09596 0.2956 0.0
C50 C 0.10145 0.01336 0.36185 0.0
N51 N 0.09798 0.03852 0.34779 0.0
N52 N 0.14184 0.04987 0.34301 0.0
C53 C 0.17435 0.02706 0.35262 0.0
C54 C 0.15069 1.00451 0.36547 0.0
C55 C 0.05884 1.00266 0.37242 0.0
H56 H 0.02726 0.02558 0.36897 0.0
H57 H 0.04854 0.96411 0.37121 0.0
H58 H 0.06844 0.00909 0.38523 0.0
O59 O 0.03013 0.12438 0.33254 0.0
O60 O 0.10252 0.15776 0.32862 0.0
H61 H 0.24958 0.04692 0.35282 0.0
H62 H 0.23898 0.9827 0.35237 0.0
C63 C 0.22584 0.01837 0.34786 0.0
H64 H 0.22759 0.01872 0.3346 0.0
H65 H 0.20931 0.14533 0.3521 0.0
O66 O 0.98849 0.01463 0.33623 0.0
C67 C 0.05653 0.16204 0.33085 0.0
Co68 Co 0.21184 0.80196 0.58261 0.0
Co69 Co 0.15714 0.90018 0.57783 0.0
C70 C 0.21804 0.85615 0.551 0.0
O71 O 0.22926 0.82009 0.55987 0.0
O72 O 0.19049 0.88988 0.55632 0.0
C73 C 0.29268 0.73653 0.58036 0.0
O74 O 0.31123 0.77242 0.57198 0.0
C75 C 0.16016 1.00461 0.57401 0.0
C76 C 0.08739 0.02901 0.58183 0.0
C77 C 0.1327 0.0457 0.5771 0.0
N78 N 0.13306 0.96528 0.57715 0.0
N79 N 0.08923 0.98001 0.58153 0.0
C80 C 0.21258 1.00275 0.56922 0.0
H81 H 0.2291 0.96738 0.5726 0.0
H82 H 0.23301 0.03294 0.57488 0.0
H83 H 0.21522 1.007 0.55596 0.0
C84 C 0.25974 0.86016 0.60949 0.0
N85 N 0.22737 0.85455 0.59732 0.0
N86 N 0.20232 0.89515 0.59577 0.0
C87 C 0.21714 0.92684 0.6073 0.0
C88 C 0.25473 0.90636 0.61618 0.0
C89 C 0.295 0.82212 0.61465 0.0
H90 H 0.27442 0.78961 0.61853 0.0
H91 H 0.31822 0.81206 0.60425 0.0
H92 H 0.31823 0.83483 0.62471 0.0
O93 O 0.13981 0.78308 0.58355 0.0
O94 O 0.1009 0.85316 0.58002 0.0
H95 H 0.19864 0.98493 0.62356 0.0
H96 H 0.21258 1.00336 0.60344 0.0
C97 C 0.19429 0.97504 0.61068 0.0
H98 H 0.1551 0.97409 0.60775 0.0
H99 H 0.06128 0.95673 0.58499 0.0
O100 O 0.25134 0.74195 0.58705 0.0
C101 C 0.1001 0.80715 0.58216 0.0
Co102 Co 0.45908 0.96119 0.83117 0.0
Co103 Co 0.35966 0.91167 0.82573 0.0
C104 C 0.40653 0.97021 0.7992 0.0
O105 O 0.44218 0.98027 0.80833 0.0
O106 O 0.37216 0.94355 0.80428 0.0
C107 C 0.52329 0.04115 0.82928 0.0
O108 O 0.48882 0.05911 0.8201 0.0
C109 C 0.25647 0.91262 0.81706 0.0
C110 C 0.22601 0.86141 0.83479 0.0
C111 C 0.21303 0.89656 0.82362 0.0
N112 N 0.29345 0.88969 0.8246 0.0
N113 N 0.27483 0.85775 0.83473 0.0
C114 C 0.26282 0.95293 0.80515 0.0
H115 H 0.28613 0.98164 0.81041 0.0
H116 H 0.22734 0.96877 0.80151 0.0
H117 H 0.28144 0.93856 0.79429 0.0
C118 C 0.40667 1.00612 0.85954 0.0
N119 N 0.40852 0.97738 0.84625 0.0
N120 N 0.3658 0.95752 0.8439 0.0
C121 C 0.33531 0.97393 0.85559 0.0
C122 C 0.35939 1.00634 0.86589 0.0
C123 C 0.45064 0.02938 0.86673 0.0
H124 H 0.48128 1.00307 0.86673 0.0
H125 H 0.46159 0.06079 0.85921 0.0
H126 H 0.44363 0.04185 0.87923 0.0
O127 O 0.47695 0.88939 0.83204 0.0
O128 O 0.40571 0.85336 0.82826 0.0
H129 H 0.28223 0.92383 0.86428 0.0
H130 H 0.26077 0.98624 0.86289 0.0
C131 C 0.28394 0.95798 0.85723 0.0
H132 H 0.26984 0.94977 0.84539 0.0
H133 H 0.29544 0.83673 0.84267 0.0
O134 O 0.51725 1.00015 0.83608 0.0
C135 C 0.45171 0.85071 0.83055 0.0
Co136 Co 0.3027 0.8054 0.45282 0.0
Co137 Co 0.35187 0.90432 0.45869 0.0
C138 C 0.29598 0.85965 0.4853 0.0
O139 O 0.28634 0.82429 0.47592 0.0
O140 O 0.32209 0.89485 0.48049 0.0
C141 C 0.22569 0.73772 0.45696 0.0
O142 O 0.21118 0.7687 0.46799 0.0
C143 C 0.36082 0.00975 0.46315 0.0
C144 C 0.42464 0.02644 0.44803 0.0
C145 C 0.38716 0.04784 0.45667 0.0
N146 N 0.38003 0.96774 0.45784 0.0
N147 N 0.41902 0.97795 0.44919 0.0
C148 C 0.31667 0.0136 0.47364 0.0
H149 H 0.29475 0.98 0.47304 0.0
H150 H 0.29411 0.04539 0.47013 0.0
H151 H 0.32842 0.01897 0.48629 0.0
C152 C 0.25892 0.85931 0.42451 0.0
N153 N 0.28715 0.85647 0.43787 0.0
N154 N 0.30252 0.90004 0.44166 0.0
C155 C 0.28087 0.93248 0.43162 0.0
C156 C 0.25326 0.90819 0.41994 0.0
C157 C 0.24023 0.81541 0.41593 0.0
H158 H 0.26837 0.78643 0.416 0.0
H159 H 0.20811 0.80116 0.42245 0.0
H160 H 0.22993 0.82407 0.40333 0.0
O161 O 0.37279 0.78482 0.45146 0.0
O162 O 0.40854 0.85559 0.45588 0.0
H163 H 0.32058 0.99835 0.43262 0.0
H164 H 0.25885 1.00644 0.42568 0.0
C165 C 0.2827 0.98617 0.43406 0.0
H166 H 0.27011 0.99465 0.44635 0.0
H167 H 0.44022 0.95191 0.44332 0.0
O168 O 0.26244 0.74763 0.44826 0.0
C169 C 0.41131 0.80982 0.45321 0.0
Co170 Co 0.46264 0.05032 0.70197 0.0
Co171 Co 0.36511 0.10677 0.70571 0.0
C172 C 0.4085 0.04649 0.73325 0.0
O173 O 0.44436 0.03364 0.72459 0.0
O174 O 0.37577 0.07457 0.72757 0.0
C175 C 0.52534 0.96823 0.70446 0.0
O176 O 0.48729 0.95004 0.71183 0.0
C177 C 0.26149 0.10274 0.71191 0.0
C178 C 0.23211 0.15751 0.69511 0.0
C179 C 0.21856 0.11933 0.70505 0.0
N180 N 0.29874 0.12807 0.70567 0.0
N181 N 0.28078 0.16193 0.69606 0.0
C182 C 0.26745 0.06196 0.72371 0.0
H183 H 0.2855 0.07589 0.7347 0.0
H184 H 0.29109 0.03335 0.71842 0.0
H185 H 0.23207 0.04613 0.72727 0.0
C186 C 0.40427 1.0008 0.67511 0.0
N187 N 0.41061 0.03376 0.68712 0.0
N188 N 0.37182 0.06185 0.68773 0.0
C189 C 0.34168 0.0497 0.67543 0.0
C190 C 0.36021 0.00953 0.66737 0.0
C191 C 0.4401 0.96253 0.67052 0.0
H192 H 0.46927 0.97971 0.66332 0.0
H193 H 0.45602 0.94596 0.68145 0.0
H194 H 0.4229 0.93385 0.66309 0.0
O195 O 0.48108 0.12299 0.70084 0.0
O196 O 0.41118 0.16312 0.70353 0.0
H197 H 0.31296 0.11901 0.66875 0.0
H198 H 0.28836 0.06904 0.65733 0.0
C199 C 0.30081 0.08072 0.66943 0.0
H200 H 0.26977 0.07882 0.6777 0.0
H201 H 0.30194 0.18553 0.6892 0.0
O202 O 0.52244 0.01036 0.69815 0.0
C203 C 0.45733 0.16313 0.70179 0.0
Co204 Co 0.2063 0.21427 0.9514 0.0
Co205 Co 0.16573 0.11222 0.95872 0.0
C206 C 0.22243 0.16146 0.98401 0.0
O207 O 0.22884 0.19724 0.9744 0.0
O208 O 0.19739 0.12497 0.97973 0.0
C209 C 0.28879 0.27282 0.9483 0.0
O210 O 0.30754 0.23487 0.9556 0.0
C211 C 0.1624 1.00714 0.96675 0.0
C212 C 0.11925 0.97931 0.94639 0.0
C213 C 0.14687 0.96449 0.95944 0.0
N214 N 0.14549 0.04528 0.95819 0.0
N215 N 0.11866 0.02822 0.94629 0.0
C216 C 0.19498 0.01142 0.9811 0.0
H217 H 0.22809 0.03202 0.97786 0.0
H218 H 0.20537 0.97515 0.98585 0.0
H219 H 0.17587 0.03222 0.99066 0.0
C220 C 0.24742 0.16083 0.92216 0.0
N221 N 0.22183 0.16413 0.93614 0.0
N222 N 0.21217 0.12037 0.94129 0.0
C223 C 0.23635 0.08827 0.93197 0.0
C224 C 0.25835 0.11166 0.91891 0.0
C225 C 0.25782 0.2039 0.91174 0.0
H226 H 0.22659 0.2295 0.91215 0.0
H227 H 0.28992 0.22345 0.91647 0.0
H228 H 0.26481 0.19279 0.8991 0.0
O229 O 0.13513 0.22973 0.95135 0.0
O230 O 0.10482 0.15654 0.95636 0.0
H231 H 0.21454 0.01492 0.93488 0.0
H232 H 0.27916 0.02232 0.93154 0.0
C233 C 0.24646 0.03802 0.9374 0.0
H234 H 0.25286 0.03962 0.95053 0.0
H235 H 0.10274 0.04991 0.93742 0.0
O236 O 0.24336 0.27261 0.94552 0.0
C237 C 0.09868 0.20207 0.95359 0.0
Co238 Co 0.06068 0.96493 0.20207 0.0
Co239 Co 0.15621 0.90803 0.20594 0.0
C240 C 0.11167 0.96833 0.23358 0.0
O241 O 0.07644 0.9815 0.22474 0.0
O242 O 0.14489 0.94051 0.22797 0.0
C243 C 0.99769 0.04786 0.20244 0.0
O244 O 0.03099 0.06481 0.21224 0.0
C245 C 0.25961 0.91708 0.20979 0.0
C246 C 0.28912 0.84831 0.20015 0.0
C247 C 0.30253 0.89386 0.20568 0.0
N248 N 0.22241 0.88725 0.20651 0.0
N249 N 0.24024 0.84569 0.20109 0.0
C250 C 0.25349 0.9684 0.21544 0.0
H251 H 0.24238 0.96808 0.22828 0.0
H252 H 0.22409 0.9865 0.20852 0.0
H253 H 0.28768 0.98931 0.21428 0.0
C254 C 0.11821 0.01457 0.17555 0.0
N255 N 0.11249 0.98148 0.18752 0.0
N256 N 0.15015 0.95206 0.18761 0.0
C257 C 0.17886 0.96312 0.17482 0.0
C258 C 0.16099 1.00447 0.16715 0.0
C259 C 0.08301 0.05463 0.17202 0.0
H260 H 0.07968 0.0784 0.18275 0.0
H261 H 0.09483 0.0767 0.16155 0.0
H262 H 0.04674 0.03894 0.16951 0.0
O263 O 0.04146 0.89262 0.20057 0.0
O264 O 0.11057 0.85143 0.20361 0.0
H265 H 0.24365 0.94904 0.16097 0.0
H266 H 0.22972 0.90323 0.17613 0.0
C267 C 0.21448 0.92886 0.16729 0.0
H268 H 0.19519 0.90718 0.15804 0.0
H269 H 0.21902 0.81677 0.19709 0.0
O270 O 1.00342 1.00509 0.19693 0.0
C271 C 0.06456 0.85212 0.20156 0.0
Co272 Co 0.71279 0.80205 0.95319 0.0
Co273 Co 0.65799 0.89991 0.95838 0.0
C274 C 0.71866 0.85453 0.98511 0.0
O275 O 0.73009 0.81896 0.97605 0.0
O276 O 0.69123 0.88856 0.97992 0.0
C277 C 0.79324 0.73594 0.95495 0.0
O278 O 0.81207 0.77122 0.96354 0.0
C279 C 0.66116 1.00446 0.96227 0.0
C280 C 0.58812 0.02878 0.95474 0.0
C281 C 0.63357 0.04555 0.95924 0.0
N282 N 0.63397 0.96509 0.95928 0.0
N283 N 0.58999 0.97978 0.95507 0.0
C284 C 0.71374 1.00266 0.96684 0.0
H285 H 0.73 0.96703 0.96362 0.0
H286 H 0.73406 0.03245 0.96089 0.0
H287 H 0.71689 1.0077 0.98005 0.0
C288 C 0.76154 0.86183 0.92667 0.0
N289 N 0.72876 0.85536 0.93871 0.0
N290 N 0.70323 0.89563 0.94033 0.0
C291 C 0.71792 0.9278 0.92891 0.0
C292 C 0.75613 0.90814 0.92006 0.0
C293 C 0.79761 0.82452 0.92151 0.0
H294 H 0.77774 0.79395 0.91589 0.0
H295 H 0.81747 0.81085 0.9322 0.0
H296 H 0.8239 0.83943 0.91267 0.0
O297 O 0.64059 0.78321 0.95225 0.0
O298 O 0.60152 0.85302 0.9561 0.0
H299 H 0.69806 0.98523 0.91258 0.0
H300 H 0.71232 1.00436 0.93259 0.0
C301 C 0.69422 0.97558 0.9255 0.0
H302 H 0.65514 0.97413 0.92859 0.0
H303 H 0.56194 0.95647 0.95174 0.0
O304 O 0.75186 0.74202 0.94837 0.0
C305 C 0.60078 0.80706 0.95383 0.0
Co306 Co 0.95532 0.95975 0.70376 0.0
Co307 Co 0.85624 0.91078 0.71009 0.0
C308 C 0.90078 0.96942 0.73637 0.0
O309 O 0.93507 0.9788 0.72651 0.0
O310 O 0.86603 0.94182 0.73198 0.0
C311 C 0.0257 0.03506 0.70792 0.0
O312 O 0.99682 0.04878 0.71966 0.0
C313 C 0.75027 0.9002 0.7137 0.0
C314 C 0.73563 0.83635 0.69844 0.0
C315 C 0.71305 0.87375 0.70678 0.0
N316 N 0.793 0.88137 0.70893 0.0
N317 N 0.78394 0.84223 0.70021 0.0
C318 C 0.74517 0.94498 0.72369 0.0
H319 H 0.77808 0.96731 0.72237 0.0
H320 H 0.71257 0.96631 0.72017 0.0
H321 H 0.7414 0.93441 0.73653 0.0
C322 C 0.90181 1.00093 0.67505 0.0
N323 N 0.90445 0.97381 0.68865 0.0
N324 N 0.86072 0.9594 0.69271 0.0
C325 C 0.82843 0.98085 0.68256 0.0
C326 C 0.85294 1.00702 0.67056 0.0
C327 C 0.94584 0.01822 0.6662 0.0
H328 H 0.9744 0.98965 0.6665 0.0
H329 H 0.96069 0.05066 0.67238 0.0
H330 H 0.93714 0.02754 0.65352 0.0
O331 O 0.97593 0.88929 0.70297 0.0
O332 O 0.90499 0.85403 0.70739 0.0
H333 H 0.76148 0.9432 0.68452 0.0
H334 H 0.75475 1.00381 0.67652 0.0
C335 C 0.77477 0.98084 0.68522 0.0
H336 H 0.76699 0.9959 0.69726 0.0
H337 H 0.8107 0.82125 0.69461 0.0
O338 O 0.01366 0.99959 0.69893 0.0
C339 C 0.95077 0.85085 0.70479 0.0
Co340 Co 0.80447 0.20904 0.45378 0.0
Co341 Co 0.85743 0.11098 0.45717 0.0
C342 C 0.79846 0.15272 0.48474 0.0
O343 O 0.78753 0.18916 0.47609 0.0
O344 O 0.82539 0.11885 0.47916 0.0
C345 C 0.72136 0.27311 0.45472 0.0
O346 O 0.69584 0.23353 0.45704 0.0
C347 C 0.85648 1.00611 0.4595 0.0
C348 C 0.92926 0.98448 0.45081 0.0
C349 C 0.88468 0.9662 0.4556 0.0
N350 N 0.88245 0.0464 0.45676 0.0
N351 N 0.92632 0.03332 0.45187 0.0
C352 C 0.80442 1.00607 0.46471 0.0
H353 H 0.78707 0.04172 0.46221 0.0
H354 H 0.78412 0.97662 0.45859 0.0
H355 H 0.80284 0.99918 0.47787 0.0
C356 C 0.75488 0.15597 0.42586 0.0
N357 N 0.78698 0.15949 0.43824 0.0
N358 N 0.81129 0.11831 0.43937 0.0
C359 C 0.79606 0.08818 0.42746 0.0
C360 C 0.75907 0.11027 0.41869 0.0
C361 C 0.7204 0.19526 0.42094 0.0
H362 H 0.68685 0.19241 0.42827 0.0
H363 H 0.71017 0.19156 0.40808 0.0
H364 H 0.73697 0.2313 0.42302 0.0
O365 O 0.87602 0.2278 0.45242 0.0
O366 O 0.91427 0.15723 0.4552 0.0
H367 H 0.80008 0.01145 0.43073 0.0
H368 H 0.85753 0.04058 0.42629 0.0
C369 C 0.8182 0.04005 0.42356 0.0
H370 H 0.81311 0.03105 0.41064 0.0
H371 H 0.95348 0.0577 0.44857 0.0
O372 O 0.76655 0.26944 0.45169 0.0
C373 C 0.91547 0.20327 0.45336 0.0
Co374 Co 0.55484 0.0621 0.20312 0.0
Co375 Co 0.65661 0.10375 0.20958 0.0
C376 C 0.60959 0.04785 0.23543 0.0
O377 O 0.5735 0.04111 0.22601 0.0
O378 O 0.64591 0.07281 0.23089 0.0
C379 C 0.4935 0.98051 0.20173 0.0
O380 O 0.53408 0.95719 0.20494 0.0
C381 C 0.76197 0.11028 0.21638 0.0
C382 C 0.78679 0.14616 0.19409 0.0
C383 C 0.8035 0.12206 0.20766 0.0
N384 N 0.72274 0.12495 0.20794 0.0
N385 N 0.73803 0.14772 0.19489 0.0
C386 C 0.75932 0.08501 0.23232 0.0
H387 H 0.73981 0.05007 0.23098 0.0
H388 H 0.79612 0.07834 0.23733 0.0
H389 H 0.73801 0.10771 0.24084 0.0
C390 C 0.60784 0.0185 0.17392 0.0
N391 N 0.60442 0.0451 0.18768 0.0
N392 N 0.64826 0.05597 0.19254 0.0
C393 C 0.68061 0.03185 0.18325 0.0
C394 C 0.65708 0.00851 0.17052 0.0
C395 C 0.5648 1.00559 0.16386 0.0
H396 H 0.53768 0.0355 0.16431 0.0
H397 H 0.54745 0.97259 0.16886 0.0
H398 H 0.57558 0.99857 0.15118 0.0
O399 O 0.53906 0.13315 0.20269 0.0
O400 O 0.61198 0.16423 0.2073 0.0
H401 H 0.7549 0.05355 0.18457 0.0
H402 H 0.7463 0.98877 0.18326 0.0
C403 C 0.73159 0.02302 0.18839 0.0
H404 H 0.73157 0.02038 0.20166 0.0
H405 H 0.71507 0.16089 0.18589 0.0
O406 O 0.49454 0.02599 0.19913 0.0
C407 C 0.56638 0.16991 0.2047 0.0
Co408 Co 0.70881 0.21132 0.58257 0.0
Co409 Co 0.66214 0.11057 0.5762 0.0
C410 C 0.71883 0.15587 0.55014 0.0
O411 O 0.72756 0.19155 0.55954 0.0
O412 O 0.69245 0.12065 0.55473 0.0
C413 C 0.7893 0.2759 0.58008 0.0
O414 O 0.80797 0.2394 0.57196 0.0
C415 C 0.65441 1.0043 0.57183 0.0
C416 C 0.59224 0.9874 0.58765 0.0
C417 C 0.6292 0.96609 0.57875 0.0
N418 N 0.63522 0.04635 0.57718 0.0
N419 N 0.59713 0.03591 0.58623 0.0
C420 C 0.69768 1.0004 0.56095 0.0
H421 H 0.71833 0.03481 0.56067 0.0
H422 H 0.72172 0.97009 0.5648 0.0
H423 H 0.68503 0.99233 0.54856 0.0
C424 C 0.74967 0.15637 0.61166 0.0
N425 N 0.72381 0.15993 0.59777 0.0
N426 N 0.71104 0.11615 0.5932 0.0
C427 C 0.73321 0.0834 0.60295 0.0
C428 C 0.75717 0.10714 0.61553 0.0
C429 C 0.76348 0.19937 0.62161 0.0
H430 H 0.73824 0.23011 0.61928 0.0
H431 H 0.80053 0.21103 0.61829 0.0
H432 H 0.76332 0.18996 0.63461 0.0
O433 O 0.63797 0.22992 0.58332 0.0
O434 O 0.60436 0.1581 0.57882 0.0
H435 H 0.76331 0.01125 0.607 0.0
H436 H 0.74961 0.02619 0.58665 0.0
C437 C 0.73695 0.03049 0.59918 0.0
H438 H 0.70084 0.0139 0.60051 0.0
H439 H 0.57616 0.06187 0.59224 0.0
O440 O 0.7479 0.27122 0.58675 0.0
C441 C 0.60021 0.2038 0.58145 0.0
Co442 Co 0.55445 0.96539 0.33232 0.0
Co443 Co 0.65131 0.90972 0.32843 0.0
C444 C 0.60925 0.96868 0.30091 0.0
O445 O 0.57343 0.98081 0.30969 0.0
O446 O 0.64276 0.94125 0.30643 0.0
C447 C 0.49345 0.0486 0.32902 0.0
O448 O 0.53158 0.06692 0.32175 0.0
C449 C 0.75566 0.91059 0.32514 0.0
C450 C 0.77862 0.83841 0.33397 0.0
C451 C 0.79614 0.88287 0.32874 0.0
N452 N 0.71584 0.88449 0.32844 0.0
N453 N 0.72967 0.84099 0.33346 0.0
C454 C 0.75482 0.96243 0.31968 0.0
H455 H 0.71966 0.97992 0.32277 0.0
H456 H 0.78522 0.98301 0.32516 0.0
H457 H 0.7594 0.96344 0.30641 0.0
C458 C 0.60986 0.01416 0.35946 0.0
N459 N 0.60546 0.98161 0.34727 0.0
N460 N 0.64604 0.95642 0.3461 0.0
C461 C 0.67682 0.97151 0.35785 0.0
C462 C 0.65557 0.00923 0.36654 0.0
C463 C 0.57122 0.0497 0.36414 0.0
H464 H 0.53553 0.0312 0.36461 0.0
H465 H 0.56905 0.07856 0.35484 0.0
H466 H 0.57926 0.06665 0.37597 0.0
O467 O 0.53392 0.89405 0.33387 0.0
O468 O 0.60353 0.85403 0.33077 0.0
H469 H 0.72403 0.90955 0.35898 0.0
H470 H 0.73497 0.95461 0.37433 0.0
C471 C 0.72501 0.949 0.36151 0.0
H472 H 0.75331 0.96643 0.35402 0.0
H473 H 0.7058 0.81384 0.33717 0.0
O474 O 0.49631 1.00678 0.33555 0.0
C475 C 0.55748 0.85395 0.3328 0.0
Co476 Co 0.80706 0.80411 0.08354 0.0
Co477 Co 0.85296 0.90498 0.07692 0.0
C478 C 0.79535 0.85523 0.05106 0.0
O479 O 0.78682 0.81977 0.06051 0.0
O480 O 0.82101 0.89085 0.05573 0.0
C481 C 0.72382 0.74528 0.08513 0.0
O482 O 0.70692 0.78237 0.07692 0.0
C483 C 0.85461 1.0081 0.0673 0.0
C484 C 0.90146 0.03929 0.08616 0.0
C485 C 0.87003 0.05186 0.07381 0.0
N486 N 0.87451 0.97143 0.07588 0.0
N487 N 0.90382 0.99045 0.08675 0.0
C488 C 0.81795 1.00134 0.0542 0.0
H489 H 0.78659 0.98044 0.05889 0.0
H490 H 0.80516 0.03675 0.04937 0.0
H491 H 0.83457 0.97995 0.04429 0.0
C492 C 0.76385 0.8581 0.11217 0.0
N493 N 0.79089 0.85544 0.09848 0.0
N494 N 0.80738 0.89887 0.095 0.0
C495 C 0.78915 0.93066 0.10595 0.0
C496 C 0.76052 0.90655 0.11734 0.0
C497 C 0.74556 0.81439 0.12092 0.0
H498 H 0.77425 0.78601 0.12099 0.0
H499 H 0.7135 0.79963 0.11453 0.0
H500 H 0.73524 0.82336 0.1335 0.0
O501 O 0.87886 0.78781 0.08428 0.0
O502 O 0.91217 0.85999 0.07965 0.0
H503 H 0.83197 0.99346 0.11087 0.0
H504 H 0.76694 1.00468 0.11073 0.0
C505 C 0.79704 0.98391 0.10507 0.0
H506 H 0.79937 0.99339 0.09238 0.0
H507 H 0.92226 0.97022 0.09546 0.0
O508 O 0.76843 0.74601 0.08916 0.0
C509 C 0.9165 0.8143 0.08237 0.0
Co510 Co 0.95788 0.05777 0.83348 0.0
Co511 Co 0.85994 0.11147 0.82984 0.0
C512 C 0.90352 0.0499 0.8024 0.0
O513 O 0.93896 0.03876 0.81141 0.0
O514 O 0.8698 0.07773 0.80775 0.0
C515 C 0.02002 0.97501 0.83205 0.0
O516 O 0.97963 0.95111 0.82941 0.0
C517 C 0.75533 0.11636 0.82345 0.0
C518 C 0.72974 0.16301 0.84329 0.0
C519 C 0.71378 0.13057 0.83167 0.0
N520 N 0.79428 0.13621 0.83063 0.0
N521 N 0.77848 0.16606 0.84197 0.0
C522 C 0.75798 0.08178 0.80965 0.0
H523 H 0.78267 0.09628 0.80028 0.0
H524 H 0.77273 0.04694 0.81412 0.0
H525 H 0.72168 0.07555 0.80425 0.0
C526 C 0.9047 0.00846 0.86126 0.0
N527 N 0.9082 0.04073 0.84893 0.0
N528 N 0.8676 0.06615 0.84811 0.0
C529 C 0.83833 0.05203 0.86047 0.0
C530 C 0.85988 0.01392 0.86886 0.0
C531 C 0.9437 0.97352 0.86606 0.0
H532 H 0.97984 0.98998 0.86411 0.0
H533 H 0.94077 0.94031 0.85858 0.0
H534 H 0.93974 0.96288 0.87889 0.0
O535 O 0.97675 0.12968 0.83432 0.0
O536 O 0.90641 0.16843 0.83157 0.0
H537 H 0.8043 0.11636 0.86931 0.0
H538 H 0.77721 0.06118 0.8767 0.0
C539 C 0.79409 0.07871 0.86605 0.0
H540 H 0.76714 0.08037 0.8564 0.0
H541 H 0.80116 0.18505 0.84979 0.0
O542 O 0.01784 0.0198 0.83579 0.0
C543 C 0.95256 0.16936 0.83325 0.0
Co544 Co 0.80013 0.71092 0.58169 0.0
Co545 Co 0.85428 0.61265 0.5765 0.0
C546 C 0.79536 0.65933 0.54957 0.0
O547 O 0.78376 0.69452 0.55875 0.0
O548 O 0.82222 0.62481 0.55475 0.0
C549 C 0.71863 0.7752 0.57995 0.0
O550 O 0.69931 0.73807 0.5724 0.0
C551 C 0.85001 0.50797 0.5729 0.0
C552 C 0.92256 0.48302 0.58071 0.0
C553 C 0.87693 0.46664 0.57623 0.0
N554 N 0.87768 0.54713 0.57573 0.0
N555 N 0.92138 0.53202 0.5801 0.0
C556 C 0.79753 0.51028 0.56824 0.0
H557 H 0.78186 0.54648 0.57108 0.0
H558 H 0.77663 0.4814 0.57446 0.0
H559 H 0.79443 0.50405 0.55509 0.0
C560 C 0.75233 0.65238 0.60867 0.0
N561 N 0.7838 0.65794 0.5962 0.0
N562 N 0.80878 0.61734 0.59449 0.0
C563 C 0.79488 0.58579 0.6062 0.0
C564 C 0.75796 0.60633 0.61538 0.0
C565 C 0.71842 0.69078 0.61451 0.0
H566 H 0.74021 0.72064 0.61974 0.0
H567 H 0.69707 0.70509 0.60425 0.0
H568 H 0.69334 0.67663 0.62386 0.0
O569 O 0.87212 0.72911 0.58305 0.0
O570 O 0.91099 0.65909 0.57918 0.0
H571 H 0.81497 0.52841 0.62257 0.0
H572 H 0.80027 0.50924 0.60259 0.0
C573 C 0.81854 0.53802 0.60964 0.0
H574 H 0.85756 0.53941 0.60648 0.0
H575 H 0.94966 0.55509 0.5834 0.0
O576 O 0.76084 0.77087 0.58609 0.0
C577 C 0.91179 0.70497 0.58164 0.0
Co578 Co 0.55451 0.55109 0.83113 0.0
Co579 Co 0.65096 0.60735 0.82684 0.0
C580 C 0.60927 0.54593 0.79971 0.0
O581 O 0.57321 0.53407 0.80844 0.0
O582 O 0.64219 0.57393 0.80518 0.0
C583 C 0.49076 0.4688 0.82984 0.0
O584 O 0.52131 0.45535 0.81854 0.0
C585 C 0.75544 0.60598 0.82344 0.0
C586 C 0.77806 0.67871 0.83167 0.0
C587 C 0.79584 0.63381 0.82682 0.0
N588 N 0.71546 0.63248 0.82651 0.0
N589 N 0.72912 0.67628 0.83117 0.0
C590 C 0.75483 0.55373 0.81844 0.0
H591 H 0.75935 0.55165 0.80518 0.0
H592 H 0.71977 0.5366 0.8217 0.0
H593 H 0.78536 0.53351 0.82408 0.0
C594 C 0.61198 0.50361 0.85817 0.0
N595 N 0.60658 0.53608 0.84598 0.0
N596 N 0.64659 0.56183 0.84476 0.0
C597 C 0.67776 0.54742 0.85653 0.0
C598 C 0.65746 0.50943 0.86526 0.0
C599 C 0.57437 0.46755 0.86302 0.0
H600 H 0.54179 0.48734 0.86735 0.0
H601 H 0.56386 0.44548 0.85242 0.0
H602 H 0.58776 0.44322 0.87272 0.0
O603 O 0.53333 0.62247 0.83219 0.0
O604 O 0.60233 0.66295 0.82893 0.0
H605 H 0.7353 0.56593 0.87298 0.0
H606 H 0.75423 0.5529 0.85282 0.0
C607 C 0.72549 0.57061 0.86011 0.0
H608 H 0.7239 0.60988 0.85728 0.0
H609 H 0.70514 0.70378 0.83466 0.0
O610 O 0.49723 0.51012 0.83637 0.0
C611 C 0.55624 0.66271 0.83093 0.0
Co612 Co 0.7148 0.31197 0.0796 0.0
Co613 Co 0.65888 0.40831 0.07762 0.0
C614 C 0.71834 0.36925 0.04925 0.0
O615 O 0.73127 0.33265 0.05747 0.0
O616 O 0.69047 0.40148 0.05537 0.0
C617 C 0.79803 0.24835 0.07817 0.0
O618 O 0.82328 0.28793 0.07556 0.0
C619 C 0.66403 0.51274 0.07472 0.0
C620 C 0.59775 0.53791 0.08721 0.0
C621 C 0.64127 0.55396 0.08071 0.0
N622 N 0.63641 0.47396 0.07821 0.0
N623 N 0.59609 0.48932 0.08523 0.0
C624 C 0.713 0.50946 0.06693 0.0
H625 H 0.7085 0.49738 0.05427 0.0
H626 H 0.73542 0.48172 0.07321 0.0
H627 H 0.73188 0.54499 0.06696 0.0
C628 C 0.76567 0.36441 0.10743 0.0
N629 N 0.73243 0.36075 0.09539 0.0
N630 N 0.70458 0.39977 0.09558 0.0
C631 C 0.71747 0.42754 0.10844 0.0
C632 C 0.75795 0.40743 0.11592 0.0
C633 C 0.80324 0.32696 0.11131 0.0
H634 H 0.78845 0.29017 0.10926 0.0
H635 H 0.83513 0.33233 0.10335 0.0
H636 H 0.81548 0.33034 0.12399 0.0
O637 O 0.64308 0.29227 0.08102 0.0
O638 O 0.60226 0.36183 0.07941 0.0
H639 H 0.66389 0.44885 0.12553 0.0
H640 H 0.70908 0.49393 0.12192 0.0
C641 C 0.68635 0.46591 0.116 0.0
H642 H 0.6614 0.48261 0.10733 0.0
H643 H 0.56914 0.46642 0.0897 0.0
O644 O 0.75299 0.25193 0.08143 0.0
C645 C 0.60271 0.31552 0.08065 0.0
Co646 Co 0.96762 0.46156 0.33218 0.0
Co647 Co 0.86622 0.41816 0.32498 0.0
C648 C 0.91448 0.47331 0.29922 0.0
O649 O 0.94984 0.48106 0.3089 0.0
O650 O 0.87816 0.44812 0.30362 0.0
C651 C 0.02871 0.54359 0.3323 0.0
O652 O 0.98976 0.5637 0.32601 0.0
C653 C 0.76086 0.41115 0.31767 0.0
C654 C 0.73514 0.37623 0.34 0.0
C655 C 0.71889 0.39991 0.32629 0.0
N656 N 0.7998 0.39663 0.32631 0.0
N657 N 0.78394 0.37446 0.33939 0.0
C658 C 0.76419 0.43554 0.30159 0.0
H659 H 0.78584 0.41238 0.29331 0.0
H660 H 0.78369 0.47053 0.30281 0.0
H661 H 0.7276 0.44195 0.29637 0.0
C662 C 0.91112 0.50389 0.36096 0.0
N663 N 0.91616 0.47774 0.34715 0.0
N664 N 0.87286 0.46688 0.34178 0.0
C665 C 0.83946 0.49082 0.35072 0.0
C666 C 0.86156 0.51383 0.36379 0.0
C667 C 0.95265 0.51576 0.37182 0.0
H668 H 0.98263 0.48918 0.37008 0.0
H669 H 0.96646 0.55231 0.36882 0.0
H670 H 0.94075 0.51589 0.38459 0.0
O671 O 0.98443 0.39051 0.33287 0.0
O672 O 0.91209 0.35846 0.32789 0.0
H673 H 0.76519 0.46971 0.34861 0.0
H674 H 0.77416 0.53436 0.34992 0.0
C675 C 0.78911 0.49994 0.34498 0.0
H676 H 0.79037 0.5024 0.33171 0.0
H677 H 0.80651 0.36162 0.34855 0.0
O678 O 0.02723 0.49955 0.3369 0.0
C679 C 0.95771 0.3533 0.33073 0.0
Co680 Co 0.79782 0.30353 0.95256 0.0
Co681 Co 0.85586 0.39978 0.95595 0.0
C682 C 0.79314 0.36188 0.98332 0.0
O683 O 0.78035 0.32524 0.97501 0.0
O684 O 0.82218 0.39329 0.97752 0.0
C685 C 0.71723 0.23822 0.95598 0.0
O686 O 0.69947 0.27369 0.96479 0.0
C687 C 0.85394 0.504 0.95913 0.0
C688 C 0.92661 0.52746 0.95111 0.0
C689 C 0.8815 0.54468 0.95597 0.0
N690 N 0.88081 0.46432 0.956 0.0
N691 N 0.92458 0.47845 0.95145 0.0
C692 C 0.80157 0.5029 0.964 0.0
H693 H 0.78462 0.46801 0.96048 0.0
H694 H 0.78135 0.53366 0.9585 0.0
H695 H 0.79916 0.50665 0.97728 0.0
C696 C 0.75188 0.3603 0.92484 0.0
N697 N 0.78418 0.3547 0.93706 0.0
N698 N 0.81076 0.39426 0.93803 0.0
C699 C 0.79706 0.42516 0.9261 0.0
C700 C 0.75866 0.40537 0.91748 0.0
C701 C 0.71444 0.32366 0.92052 0.0
H702 H 0.69194 0.31587 0.93129 0.0
H703 H 0.6908 0.33658 0.91057 0.0
H704 H 0.73306 0.28963 0.91682 0.0
O705 O 0.86934 0.28191 0.95201 0.0
O706 O 0.91084 0.35061 0.95444 0.0
H707 H 0.81667 0.48163 0.90939 0.0
H708 H 0.80357 0.50168 0.92944 0.0
C709 C 0.82105 0.47238 0.92233 0.0
H710 H 0.86025 0.47044 0.92521 0.0
H711 H 0.95238 0.45478 0.948 0.0
O712 O 0.75753 0.244 0.94868 0.0
C713 C 0.90992 0.30434 0.95299 0.0
Co714 Co 0.96686 0.55207 0.20143 0.0
Co715 Co 0.86942 0.60783 0.20573 0.0
C716 C 0.91451 0.54842 0.2331 0.0
O717 O 0.95018 0.53627 0.22425 0.0
O718 O 0.88067 0.57548 0.22757 0.0
C719 C 0.0321 0.47183 0.20421 0.0
O720 O 0.99601 0.45389 0.21265 0.0
C721 C 0.7652 0.60291 0.21045 0.0
C722 C 0.73873 0.67141 0.19971 0.0
C723 C 0.72322 0.62738 0.20595 0.0
N724 N 0.8037 0.63036 0.20649 0.0
N725 N 0.78765 0.67184 0.20045 0.0
C726 C 0.76916 0.5528 0.21735 0.0
H727 H 0.78453 0.55512 0.22967 0.0
H728 H 0.79465 0.53077 0.20996 0.0
H729 H 0.73327 0.53471 0.21798 0.0
C730 C 0.90757 0.50136 0.17521 0.0
N731 N 0.91393 0.53494 0.18701 0.0
N732 N 0.87508 0.56296 0.18758 0.0
C733 C 0.84491 0.55016 0.17534 0.0
C734 C 0.86336 0.50954 0.16749 0.0
C735 C 0.94366 0.46303 0.17094 0.0
H736 H 0.95739 0.4455 0.18205 0.0
H737 H 0.92752 0.43517 0.16292 0.0
H738 H 0.97442 0.48047 0.16458 0.0
O739 O 0.98522 0.62456 0.2 0.0
O740 O 0.91542 0.66424 0.20338 0.0
H741 H 0.82094 0.60245 0.15825 0.0
H742 H 0.77584 0.55902 0.16354 0.0
C743 C 0.80563 0.58158 0.16849 0.0
H744 H 0.79164 0.60786 0.1773 0.0
H745 H 0.81007 0.69912 0.19593 0.0
O746 O 0.02686 0.51266 0.19718 0.0
C747 C 0.9614 0.66455 0.20122 0.0
Co748 Co 0.71081 0.71723 0.45097 0.0
Co749 Co 0.66313 0.61636 0.45714 0.0
C750 C 0.72208 0.66459 0.48317 0.0
O751 O 0.73155 0.70023 0.47387 0.0
O752 O 0.69552 0.62987 0.47831 0.0
C753 C 0.7924 0.77898 0.45036 0.0
O754 O 0.81321 0.7398 0.45624 0.0
C755 C 0.66253 0.51292 0.46654 0.0
C756 C 0.61506 0.48174 0.44786 0.0
C757 C 0.64746 0.46913 0.45993 0.0
N758 N 0.64165 0.54966 0.45823 0.0
N759 N 0.61194 0.53058 0.44748 0.0
C760 C 0.69989 0.5197 0.47942 0.0
H761 H 0.68361 0.54053 0.48952 0.0
H762 H 0.73071 0.54113 0.4746 0.0
H763 H 0.7134 0.48429 0.48403 0.0
C764 C 0.75353 0.66305 0.42213 0.0
N765 N 0.72623 0.66592 0.43575 0.0
N766 N 0.70851 0.62272 0.43895 0.0
C767 C 0.72596 0.59101 0.42781 0.0
C768 C 0.75566 0.61485 0.41668 0.0
C769 C 0.774 0.70633 0.4138 0.0
H770 H 0.74813 0.73718 0.4148 0.0
H771 H 0.80843 0.71654 0.41979 0.0
H772 H 0.78145 0.69852 0.40091 0.0
O773 O 0.63899 0.73386 0.45072 0.0
O774 O 0.60419 0.66211 0.45476 0.0
H775 H 0.68075 0.53045 0.4222 0.0
H776 H 0.7453 0.5166 0.4223 0.0
C777 C 0.71598 0.53803 0.42813 0.0
H778 H 0.71311 0.52725 0.44066 0.0
H779 H 0.59278 0.55083 0.43895 0.0
O780 O 0.74804 0.77743 0.44613 0.0
C781 C 0.60079 0.70812 0.45248 0.0
Co782 Co 0.55503 0.46307 0.70242 0.0
Co783 Co 0.6524 0.40768 0.70686 0.0
C784 C 0.6094 0.46844 0.73395 0.0
O785 O 0.57323 0.47997 0.72519 0.0
O786 O 0.64283 0.44077 0.7285 0.0
C787 C 0.49011 0.54499 0.70394 0.0
O788 O 0.52071 0.55817 0.71521 0.0
C789 C 0.75645 0.40963 0.71068 0.0
C790 C 0.7805 0.33686 0.70273 0.0
C791 C 0.79733 0.38188 0.70767 0.0
N792 N 0.71705 0.38295 0.70736 0.0
N793 N 0.73151 0.33912 0.70287 0.0
C794 C 0.75494 0.46196 0.71557 0.0
H795 H 0.75924 0.46431 0.72883 0.0
H796 H 0.71971 0.47881 0.71222 0.0
H797 H 0.78527 0.48229 0.70994 0.0
C798 C 0.61223 0.51076 0.67538 0.0
N799 N 0.60716 0.47851 0.68764 0.0
N800 N 0.64755 0.4531 0.68897 0.0
C801 C 0.67869 0.46749 0.67722 0.0
C802 C 0.65797 0.5051 0.66834 0.0
C803 C 0.57418 0.54669 0.67054 0.0
H804 H 0.54157 0.52683 0.66639 0.0
H805 H 0.56371 0.56896 0.68112 0.0
H806 H 0.58715 0.57084 0.66075 0.0
O807 O 0.5354 0.39134 0.70115 0.0
O808 O 0.60519 0.35179 0.70456 0.0
H809 H 0.73669 0.44907 0.66087 0.0
H810 H 0.75511 0.46227 0.68107 0.0
C811 C 0.72673 0.44442 0.67373 0.0
H812 H 0.72556 0.40516 0.6766 0.0
H813 H 0.70808 0.31146 0.69928 0.0
O814 O 0.49698 0.50388 0.69725 0.0
C815 C 0.55924 0.35143 0.70236 0.0
Co816 Co 0.21602 0.30218 0.4535 0.0
Co817 Co 0.15794 0.39852 0.45682 0.0
C818 C 0.21858 0.35677 0.48463 0.0
O819 O 0.2322 0.32092 0.4761 0.0
O820 O 0.19007 0.3889 0.47879 0.0
C821 C 0.29712 0.23793 0.45638 0.0
O822 O 0.31547 0.27475 0.46436 0.0
C823 C 0.15923 0.50219 0.46279 0.0
C824 C 0.10508 0.52987 0.44546 0.0
C825 C 0.14231 0.5445 0.45561 0.0
N826 N 0.13511 0.46426 0.45652 0.0
N827 N 0.1015 0.48117 0.44662 0.0
C828 C 0.19931 0.49747 0.4749 0.0
H829 H 0.18513 0.47909 0.48581 0.0
H830 H 0.22895 0.47463 0.46986 0.0
H831 H 0.21385 0.53333 0.47854 0.0
C832 C 0.26587 0.36109 0.42676 0.0
N833 N 0.23233 0.35416 0.43856 0.0
N834 N 0.20322 0.39221 0.43888 0.0
C835 C 0.21519 0.42225 0.42653 0.0
C836 C 0.2563 0.40458 0.41874 0.0
C837 C 0.30642 0.327 0.42293 0.0
H838 H 0.3199 0.30954 0.43406 0.0
H839 H 0.33671 0.34629 0.41688 0.0
H840 H 0.29266 0.29884 0.41457 0.0
O841 O 0.14373 0.28265 0.45227 0.0
O842 O 0.10238 0.35184 0.45471 0.0
H843 H 0.19487 0.47357 0.40794 0.0
H844 H 0.18489 0.49389 0.42813 0.0
C845 C 0.18343 0.46206 0.42018 0.0
H846 H 0.14536 0.44921 0.41965 0.0
H847 H 0.07879 0.45929 0.43969 0.0
O848 O 0.25574 0.24244 0.44967 0.0
C849 C 0.1032 0.30571 0.45306 0.0
Co850 Co 0.46328 0.46969 0.20451 0.0
Co851 Co 0.3675 0.41197 0.20823 0.0
C852 C 0.40685 0.47379 0.2356 0.0
O853 O 0.44319 0.48641 0.22711 0.0
O854 O 0.37476 0.44526 0.2299 0.0
C855 C 0.52842 0.55119 0.20649 0.0
O856 O 0.49939 0.56366 0.21834 0.0
C857 C 0.26312 0.41204 0.21128 0.0
C858 C 0.24139 0.33934 0.20276 0.0
C859 C 0.2231 0.384 0.20764 0.0
N860 N 0.30341 0.38596 0.20829 0.0
N861 N 0.29029 0.34214 0.20348 0.0
C862 C 0.26311 0.46419 0.21641 0.0
H863 H 0.29799 0.48179 0.21323 0.0
H864 H 0.23241 0.48425 0.21081 0.0
H865 H 0.2585 0.46588 0.22968 0.0
C866 C 0.40611 0.51695 0.17736 0.0
N867 N 0.41162 0.48413 0.18943 0.0
N868 N 0.37196 0.45779 0.19043 0.0
C869 C 0.34092 0.47213 0.17862 0.0
C870 C 0.3609 0.51072 0.1701 0.0
C871 C 0.44334 0.55376 0.1728 0.0
H872 H 0.47559 0.53467 0.16789 0.0
H873 H 0.45468 0.57424 0.18365 0.0
H874 H 0.42922 0.57942 0.1636 0.0
O875 O 0.48557 0.39866 0.20355 0.0
O876 O 0.41699 0.35726 0.20634 0.0
H877 H 0.28379 0.45341 0.16201 0.0
H878 H 0.26446 0.46578 0.18216 0.0
C879 C 0.2935 0.44854 0.17488 0.0
H880 H 0.29548 0.40922 0.1776 0.0
H881 H 0.31463 0.31492 0.20002 0.0
O882 O 0.52046 0.51095 0.19944 0.0
C883 C 0.46316 0.35812 0.2046 0.0
Co884 Co 0.30107 0.70442 0.95603 0.0
Co885 Co 0.35814 0.60895 0.95802 0.0
C886 C 0.29767 0.64709 0.9864 0.0
O887 O 0.28443 0.68352 0.97814 0.0
O888 O 0.32619 0.61527 0.98033 0.0
C889 C 0.21638 0.7667 0.9568 0.0
O890 O 0.19156 0.72683 0.95936 0.0
C891 C 0.352 0.5046 0.96057 0.0
C892 C 0.41289 0.47953 0.94534 0.0
C893 C 0.37138 0.46371 0.95321 0.0
N894 N 0.37939 0.54313 0.95658 0.0
N895 N 0.41651 0.52776 0.94785 0.0
C896 C 0.30644 0.50782 0.97038 0.0
H897 H 0.31581 0.51938 0.98279 0.0
H898 H 0.28197 0.53587 0.96518 0.0
H899 H 0.28749 0.47237 0.97099 0.0
C900 C 0.25139 0.6506 0.92807 0.0
N901 N 0.28407 0.65557 0.94023 0.0
N902 N 0.31323 0.61762 0.9401 0.0
C903 C 0.30229 0.5895 0.92718 0.0
C904 C 0.26123 0.60799 0.91955 0.0
C905 C 0.21214 0.68627 0.92418 0.0
H906 H 0.22526 0.7237 0.92617 0.0
H907 H 0.18059 0.67955 0.93217 0.0
H908 H 0.19993 0.6823 0.91151 0.0
O909 O 0.3732 0.72448 0.95459 0.0
O910 O 0.41477 0.65532 0.95627 0.0
H911 H 0.37402 0.56894 0.91992 0.0
H912 H 0.32649 0.54536 0.90711 0.0
C913 C 0.33675 0.55377 0.91973 0.0
H914 H 0.3375 0.51968 0.92654 0.0
H915 H 0.44222 0.5506 0.9426 0.0
O916 O 0.26179 0.76371 0.95401 0.0
C917 C 0.41388 0.7016 0.95498 0.0
Co918 Co 0.0536 0.54995 0.70386 0.0
Co919 Co 0.14974 0.6076 0.70695 0.0
C920 C 0.10937 0.54582 0.73475 0.0
O921 O 0.07298 0.53298 0.72638 0.0
O922 O 0.1414 0.57407 0.7288 0.0
C923 C 0.98738 0.47058 0.7068 0.0
O924 O 0.02266 0.45214 0.71554 0.0
C925 C 0.25436 0.60129 0.71027 0.0
C926 C 0.2802 0.66984 0.69955 0.0
C927 C 0.29605 0.62519 0.70531 0.0
N928 N 0.21565 0.62964 0.70702 0.0
N929 N 0.2314 0.67113 0.70098 0.0
C930 C 0.25075 0.55095 0.71698 0.0
H931 H 0.2241 0.52971 0.70988 0.0
H932 H 0.28648 0.53217 0.71701 0.0
H933 H 0.23707 0.55301 0.72953 0.0
C934 C 0.11164 0.50038 0.67691 0.0
N935 N 0.10527 0.534 0.68871 0.0
N936 N 0.14292 0.56335 0.68867 0.0
C937 C 0.17191 0.55153 0.67597 0.0
C938 C 0.15418 0.51018 0.66844 0.0
C939 C 0.07753 0.4599 0.67341 0.0
H940 H 0.04838 0.47388 0.66543 0.0
H941 H 0.0614 0.44632 0.68476 0.0
H942 H 0.09636 0.4297 0.66708 0.0
O943 O 0.03366 0.62231 0.70294 0.0
O944 O 0.1023 0.66397 0.70536 0.0
H945 H 0.19206 0.60612 0.65916 0.0
H946 H 0.23855 0.56212 0.66284 0.0
C947 C 0.20951 0.58391 0.66871 0.0
H948 H 0.22495 0.60908 0.67755 0.0
H949 H 0.20874 0.699 0.69691 0.0
O950 O 0.99351 0.51118 0.69974 0.0
C951 C 0.05607 0.663 0.70386 0.0
Co952 Co 0.21871 0.71437 0.08257 0.0
Co953 Co 0.15949 0.61854 0.08029 0.0
C954 C 0.22166 0.65628 0.05219 0.0
O955 O 0.2357 0.69287 0.06024 0.0
O956 O 0.19224 0.62584 0.05837 0.0
C957 C 0.29884 0.77939 0.07889 0.0
O958 O 0.31657 0.74325 0.07037 0.0
C959 C 0.16137 0.51452 0.07488 0.0
C960 C 0.10727 0.48737 0.09226 0.0
C961 C 0.14449 0.4724 0.0821 0.0
N962 N 0.1371 0.55272 0.08106 0.0
N963 N 0.10359 0.53611 0.09102 0.0
C964 C 0.20164 0.51869 0.06281 0.0
H965 H 0.1875 0.53652 0.05178 0.0
H966 H 0.23107 0.54164 0.0678 0.0
H967 H 0.21651 0.48271 0.05933 0.0
C968 C 0.26779 0.65718 0.10978 0.0
N969 N 0.23409 0.66356 0.09801 0.0
N970 N 0.20469 0.62598 0.09812 0.0
C971 C 0.2167 0.59681 0.11071 0.0
C972 C 0.25808 0.61453 0.11822 0.0
C973 C 0.30866 0.69104 0.11304 0.0
H974 H 0.2947 0.72156 0.12045 0.0
H975 H 0.3231 0.70541 0.10155 0.0
H976 H 0.33819 0.67261 0.11982 0.0
O977 O 0.14643 0.73476 0.08352 0.0
O978 O 0.10404 0.66626 0.08197 0.0
H979 H 0.14697 0.5709 0.11791 0.0
H980 H 0.19669 0.54673 0.12966 0.0
C981 C 0.18501 0.55767 0.11738 0.0
H982 H 0.18624 0.52542 0.10961 0.0
H983 H 0.08074 0.55821 0.09791 0.0
O984 O 0.25839 0.77429 0.08614 0.0
C985 C 0.10555 0.71255 0.08305 0.0
Co986 Co 0.05489 0.46901 0.83231 0.0
Co987 Co 0.15107 0.41075 0.82875 0.0
C988 C 0.10982 0.47247 0.80112 0.0
O989 O 0.07366 0.4855 0.80964 0.0
O990 O 0.1421 0.44406 0.80694 0.0
C991 C 0.98858 0.54902 0.82928 0.0
O992 O 0.02381 0.56706 0.82048 0.0
C993 C 0.25537 0.41473 0.82461 0.0
C994 C 0.28099 0.34635 0.83565 0.0
C995 C 0.29699 0.39028 0.82945 0.0
N996 N 0.21655 0.38743 0.82835 0.0
N997 N 0.23211 0.34598 0.83455 0.0
C998 C 0.25197 0.46478 0.81763 0.0
H999 H 0.238 0.46229 0.80513 0.0
H1000 H 0.22565 0.4868 0.82469 0.0
H1001 H 0.28784 0.483 0.81738 0.0
C1002 C 0.11318 0.51756 0.85918 0.0
N1003 N 0.10703 0.48446 0.84723 0.0
N1004 N 0.14508 0.45531 0.847 0.0
C1005 C 0.17436 0.46689 0.85961 0.0
C1006 C 0.15632 0.50787 0.86738 0.0
C1007 C 0.07777 0.55682 0.86312 0.0
H1008 H 0.04625 0.54028 0.86934 0.0
H1009 H 0.06503 0.57429 0.85186 0.0
H1010 H 0.09412 0.5845 0.87116 0.0
O1011 O 0.03509 0.39686 0.83355 0.0
O1012 O 0.10382 0.35502 0.83073 0.0
H1013 H 0.19623 0.41232 0.87626 0.0
H1014 H 0.24202 0.45638 0.87217 0.0
C1015 C 0.21274 0.43455 0.86656 0.0
H1016 H 0.22772 0.40937 0.8576 0.0
H1017 H 0.20935 0.31887 0.83899 0.0
O1018 O 0.99488 0.50863 0.83649 0.0
C1019 C 0.05773 0.35613 0.83258 0.0
Co1020 Co 0.29876 0.3026 0.58229 0.0
Co1021 Co 0.35454 0.3997 0.57779 0.0
C1022 C 0.29319 0.35755 0.55078 0.0
O1023 O 0.28142 0.32154 0.55956 0.0
O1024 O 0.32114 0.39054 0.55621 0.0
C1025 C 0.21801 0.23759 0.57981 0.0
O1026 O 0.19967 0.27329 0.57123 0.0
C1027 C 0.35209 0.50409 0.57422 0.0
C1028 C 0.42497 0.52756 0.58199 0.0
C1029 C 0.37969 0.54482 0.57736 0.0
N1030 N 0.37909 0.46442 0.57724 0.0
N1031 N 0.42299 0.47858 0.5816 0.0
C1032 C 0.29962 0.50292 0.5695 0.0
H1033 H 0.29685 0.50767 0.55627 0.0
H1034 H 0.28305 0.46761 0.57278 0.0
H1035 H 0.27931 0.53313 0.57531 0.0
C1036 C 0.25167 0.3609 0.6095 0.0
N1037 N 0.28381 0.35503 0.59723 0.0
N1038 N 0.30935 0.39515 0.59579 0.0
C1039 C 0.29508 0.42675 0.60747 0.0
C1040 C 0.25733 0.40678 0.61637 0.0
C1041 C 0.21592 0.32342 0.61453 0.0
H1042 H 0.19236 0.31449 0.60413 0.0
H1043 H 0.19311 0.33614 0.62473 0.0
H1044 H 0.23601 0.29016 0.61814 0.0
O1045 O 0.37064 0.28222 0.58311 0.0
O1046 O 0.41042 0.35159 0.57982 0.0
H1047 H 0.3005 0.50326 0.60383 0.0
H1048 H 0.35768 0.47274 0.60794 0.0
C1049 C 0.31855 0.47439 0.61096 0.0
H1050 H 0.31448 0.48401 0.62388 0.0
H1051 H 0.45089 0.45492 0.58498 0.0
O1052 O 0.25902 0.24306 0.58667 0.0
C1053 C 0.41068 0.30548 0.5818 0.0
Co1054 Co 0.45787 0.55464 0.33267 0.0
Co1055 Co 0.36053 0.60971 0.32889 0.0
C1056 C 0.40257 0.54968 0.30145 0.0
O1057 O 0.43891 0.53785 0.31008 0.0
O1058 O 0.36923 0.57723 0.30707 0.0
C1059 C 0.52325 0.47244 0.33125 0.0
O1060 O 0.49062 0.45537 0.32123 0.0
C1061 C 0.25594 0.60927 0.32579 0.0
C1062 C 0.23362 0.68161 0.33467 0.0
C1063 C 0.21572 0.63724 0.32952 0.0
N1064 N 0.29601 0.63515 0.32894 0.0
N1065 N 0.28253 0.67876 0.33396 0.0
C1066 C 0.25631 0.55744 0.32034 0.0
H1067 H 0.2513 0.55647 0.30709 0.0
H1068 H 0.29147 0.53975 0.3233 0.0
H1069 H 0.22595 0.53703 0.32592 0.0
C1070 C 0.40286 0.50582 0.35983 0.0
N1071 N 0.40695 0.53859 0.3477 0.0
N1072 N 0.36619 0.56348 0.34661 0.0
C1073 C 0.33561 0.54801 0.35837 0.0
C1074 C 0.35719 0.5103 0.36698 0.0
C1075 C 0.44179 0.47048 0.36443 0.0
H1076 H 0.47663 0.48999 0.36603 0.0
H1077 H 0.44666 0.44379 0.35455 0.0
H1078 H 0.43241 0.45086 0.37568 0.0
O1079 O 0.47804 0.62624 0.33389 0.0
O1080 O 0.40803 0.6656 0.33104 0.0
H1081 H 0.27703 0.56411 0.3748 0.0
H1082 H 0.2592 0.55218 0.35446 0.0
C1083 C 0.28716 0.56989 0.36201 0.0
H1084 H 0.28783 0.60937 0.35949 0.0
H1085 H 0.30665 0.70579 0.33758 0.0
O1086 O 0.51598 0.51438 0.33724 0.0
C1087 C 0.45414 0.66613 0.33288 0.0
C1088 C 0.25535 0.08181 0.14433 0.0
C1089 C 0.23552 0.08337 0.12852 0.0
C1090 C 0.16673 0.03275 0.13785 0.0
C1091 C 0.18539 0.03316 0.15382 0.0
N1092 N 0.24334 0.06483 0.17281 0.0
N1093 N 0.16898 0.06593 0.11066 0.0
C1094 C 0.22863 0.05957 0.15718 0.0
C1095 C 0.19008 0.06061 0.12546 0.0
N1096 N 0.3004 0.10084 0.14701 0.0
N1097 N 0.12781 1.00396 0.13437 0.0
H1098 H 0.18561 0.08439 0.10119 0.0
H1099 H 0.13366 0.05516 0.10806 0.0
H1100 H 0.10975 0.98358 0.14309 0.0
H1101 H 0.11544 0.99738 0.12274 0.0
H1102 H 0.31996 0.09551 0.15759 0.0
H1103 H 0.31986 0.11954 0.13821 0.0
H1104 H 0.27141 0.08761 0.17638 0.0
H1105 H 0.22489 0.04946 0.18251 0.0
C1106 C 0.15807 0.93445 0.38629 0.0
C1107 C 0.17493 0.97926 0.3798 0.0
C1108 C 0.24776 0.96911 0.39666 0.0
C1109 C 0.22632 0.93066 0.40561 0.0
N1110 N 0.15156 0.88727 0.41077 0.0
N1111 N 0.22999 0.0463 0.38432 0.0
C1112 C 0.17858 0.91625 0.40099 0.0
C1113 C 0.21806 0.99879 0.38663 0.0
N1114 N 0.12514 0.9073 0.37807 0.0
N1115 N 0.29659 0.97697 0.39727 0.0
H1116 H 0.20696 0.07073 0.37847 0.0
H1117 H 0.25985 0.06218 0.38996 0.0
H1118 H 0.32028 0.95378 0.40338 0.0
H1119 H 0.31349 1.00324 0.39016 0.0
H1120 H 0.11422 0.87306 0.38201 0.0
H1121 H 0.11426 0.91617 0.3664 0.0
H1122 H 0.11559 0.87851 0.40816 0.0
H1123 H 0.16309 0.87731 0.42227 0.0
C1124 C 0.31902 0.96663 0.62524 0.0
C1125 C 0.28434 0.93039 0.6293 0.0
C1126 C 0.30446 0.9417 0.65808 0.0
C1127 C 0.33601 0.98075 0.6541 0.0
N1128 N 0.37017 0.03356 0.63404 0.0
N1129 N 0.24007 0.8869 0.64967 0.0
C1130 C 0.34249 0.99395 0.63769 0.0
C1131 C 0.27624 0.91868 0.64576 0.0
N1132 N 0.33054 0.974 0.60941 0.0
N1133 N 0.30195 0.92613 0.6737 0.0
H1134 H 0.21937 0.86887 0.64104 0.0
H1135 H 0.22813 0.88083 0.66139 0.0
H1136 H 0.32086 0.94277 0.68306 0.0
H1137 H 0.2841 0.89467 0.67726 0.0
H1138 H 0.3589 0.99602 0.60556 0.0
H1139 H 0.31413 0.95497 0.60002 0.0
H1140 H 0.37195 0.04901 0.62262 0.0
H1141 H 0.38918 0.05314 0.64273 0.0
C1142 C 0.34684 0.08452 0.88318 0.0
C1143 C 0.33784 0.03422 0.8802 0.0
C1144 C 0.27093 0.04019 0.89954 0.0
C1145 C 0.28553 0.08698 0.90497 0.0
N1146 N 0.35214 0.14421 0.9045 0.0
N1147 N 0.30417 0.96216 0.89245 0.0
C1148 C 0.32785 0.10674 0.89753 0.0
C1149 C 0.304 0.01128 0.89056 0.0
N1150 N 0.37111 0.11208 0.87222 0.0
N1151 N 0.22506 0.02361 0.90216 0.0
H1152 H 0.33104 0.94028 0.88728 0.0
H1153 H 0.2809 0.94483 0.90053 0.0
H1154 H 0.19772 0.04564 0.90694 0.0
H1155 H 0.21346 0.99012 0.89772 0.0
H1156 H 0.37573 0.14941 0.87373 0.0
H1157 H 0.38102 0.0989 0.86092 0.0
H1158 H 0.38455 0.15762 0.89978 0.0
H1159 H 0.34352 0.15673 0.916 0.0
C1160 C 0.80991 0.94186 0.87843 0.0
C1161 C 0.83742 0.98399 0.88225 0.0
C1162 C 0.81713 0.9721 0.91103 0.0
C1163 C 0.78578 0.93287 0.90702 0.0
N1164 N 0.74794 0.88397 0.88657 0.0
N1165 N 0.86379 0.04201 0.90201 0.0
C1166 C 0.78131 0.9185 0.89062 0.0
C1167 C 0.84014 0.99975 0.89853 0.0
N1168 N 0.81144 0.92382 0.86311 0.0
N1169 N 0.82619 0.98199 0.92687 0.0
H1170 H 0.88267 0.0619 0.89335 0.0
H1171 H 0.86227 0.05903 0.91319 0.0
H1172 H 0.81041 0.96258 0.93629 0.0
H1173 H 0.85233 1.00656 0.93074 0.0
H1174 H 0.79683 0.89045 0.85983 0.0
H1175 H 0.83075 0.94047 0.85383 0.0
H1176 H 0.73857 0.8756 0.87476 0.0
H1177 H 0.72666 0.86603 0.89508 0.0
C1178 C 0.79124 0.01201 0.64754 0.0
C1179 C 0.83056 0.03325 0.65609 0.0
C1180 C 0.82771 0.0998 0.63613 0.0
C1181 C 0.78227 0.08346 0.63 0.0
N1182 N 0.71397 0.03057 0.63538 0.0
N1183 N 0.87562 0.10749 0.6604 0.0
C1184 C 0.7618 0.04163 0.63742 0.0
C1185 C 0.84587 0.08022 0.65096 0.0
N1186 N 0.78231 0.96342 0.64859 0.0
N1187 N 0.85531 0.13144 0.62751 0.0
H1188 H 0.8855 0.09682 0.67199 0.0
H1189 H 0.88509 0.14302 0.6574 0.0
H1190 H 0.84633 0.14157 0.61578 0.0
H1191 H 0.88992 0.1419 0.63122 0.0
H1192 H 0.75535 0.94661 0.64177 0.0
H1193 H 0.80523 0.93967 0.65479 0.0
H1194 H 0.69761 1.00157 0.64136 0.0
H1195 H 0.68992 0.05356 0.62934 0.0
C1196 C 0.70776 0.07916 0.37653 0.0
C1197 C 0.67829 0.03819 0.38008 0.0
C1198 C 0.69574 0.04976 0.40905 0.0
C1199 C 0.72903 0.08764 0.40536 0.0
N1200 N 0.77102 0.13469 0.38532 0.0
N1201 N 0.64786 0.98131 0.39959 0.0
C1202 C 0.73592 0.10155 0.38902 0.0
C1203 C 0.67318 0.02277 0.39634 0.0
N1204 N 0.70839 0.09711 0.36119 0.0
N1205 N 0.6846 0.04044 0.4248 0.0
H1206 H 0.62953 0.96173 0.39074 0.0
H1207 H 0.64758 0.96448 0.41082 0.0
H1208 H 0.70008 0.0594 0.43437 0.0
H1209 H 0.65711 0.01696 0.42838 0.0
H1210 H 0.7247 0.1298 0.35804 0.0
H1211 H 0.68914 0.0812 0.35175 0.0
H1212 H 0.78202 0.14249 0.37361 0.0
H1213 H 0.79185 0.15208 0.39407 0.0
C1214 C 0.72645 0.99814 0.15022 0.0
C1215 C 0.68158 0.98119 0.15661 0.0
C1216 C 0.68467 0.91707 0.13576 0.0
C1217 C 0.73356 0.92909 0.13166 0.0
N1218 N 0.80508 0.97079 0.14122 0.0
N1219 N 0.62811 0.91176 0.15802 0.0
C1220 C 0.75583 0.96634 0.14086 0.0
C1221 C 0.66337 0.93687 0.15013 0.0
N1222 N 0.74053 0.04513 0.1523 0.0
N1223 N 0.6574 0.88895 0.12578 0.0
H1224 H 0.61617 0.92168 0.16947 0.0
H1225 H 0.61603 0.8779 0.15409 0.0
H1226 H 0.66969 0.87776 0.1145 0.0
H1227 H 0.62076 0.88209 0.12798 0.0
H1228 H 0.7721 0.0588 0.14705 0.0
H1229 H 0.71787 0.07128 0.15747 0.0
H1230 H 0.82237 0.99622 0.14854 0.0
H1231 H 0.82803 0.94552 0.1357 0.0
C1232 C 0.68848 0.55448 0.6259 0.0
C1233 C 0.7303 0.58308 0.62913 0.0
C1234 C 0.72035 0.56594 0.65819 0.0
C1235 C 0.68129 0.53375 0.65481 0.0
N1236 N 0.63178 0.49289 0.63519 0.0
N1237 N 0.7892 0.61224 0.64816 0.0
C1238 C 0.66616 0.52707 0.63858 0.0
C1239 C 0.74699 0.58781 0.64525 0.0
N1240 N 0.6696 0.55408 0.61068 0.0
N1241 N 0.73103 0.57685 0.67385 0.0
H1242 H 0.80864 0.62999 0.63913 0.0
H1243 H 0.80677 0.61227 0.65925 0.0
H1244 H 0.71238 0.56184 0.68358 0.0
H1245 H 0.75546 0.60371 0.67724 0.0
H1246 H 0.63631 0.5386 0.60778 0.0
H1247 H 0.68548 0.5726 0.60108 0.0
H1248 H 0.62293 0.48198 0.62356 0.0
H1249 H 0.61442 0.47258 0.64408 0.0
C1250 C 0.69931 0.47015 0.90775 0.0
C1251 C 0.72965 0.42954 0.90417 0.0
C1252 C 0.70712 0.43742 0.87542 0.0
C1253 C 0.68058 0.4807 0.87882 0.0
N1254 N 0.65505 0.54104 0.89804 0.0
N1255 N 0.76678 0.37767 0.8843 0.0
C1256 C 0.67766 0.49773 0.89496 0.0
C1257 C 0.73442 0.41384 0.88792 0.0
N1258 N 0.68985 0.48142 0.92349 0.0
N1259 N 0.7058 0.41849 0.86021 0.0
H1260 H 0.78687 0.35934 0.89306 0.0
H1261 H 0.77644 0.36806 0.87261 0.0
H1262 H 0.6876 0.43538 0.85071 0.0
H1263 H 0.71957 0.3844 0.85723 0.0
H1264 H 0.66428 0.50718 0.92706 0.0
H1265 H 0.7046 0.46202 0.93311 0.0
H1266 H 0.65659 0.55873 0.9091 0.0
H1267 H 0.63722 0.56113 0.88916 0.0
C1268 C 0.77207 0.42611 0.14567 0.0
C1269 C 0.78772 0.42969 0.12939 0.0
C1270 C 0.85356 0.48514 0.13799 0.0
C1271 C 0.83889 0.48031 0.15433 0.0
N1272 N 0.78854 0.44088 0.17407 0.0
N1273 N 0.84735 0.45718 0.11025 0.0
C1274 C 0.79929 0.44927 0.15823 0.0
C1275 C 0.8298 0.45749 0.12565 0.0
N1276 N 0.73052 0.40112 0.14909 0.0
N1277 N 0.88894 0.51789 0.13417 0.0
H1278 H 0.83019 0.43905 0.10082 0.0
H1279 H 0.88065 0.47189 0.10694 0.0
H1280 H 0.90749 0.53799 0.14284 0.0
H1281 H 0.8978 0.52777 0.12244 0.0
H1282 H 0.71322 0.40192 0.16023 0.0
H1283 H 0.71162 0.3813 0.14043 0.0
H1284 H 0.7636 0.41516 0.17798 0.0
H1285 H 0.80728 0.45721 0.18353 0.0
C1286 C 0.85405 0.58472 0.38434 0.0
C1287 C 0.83581 0.54096 0.37749 0.0
C1288 C 0.76073 0.55614 0.3928 0.0
C1289 C 0.78307 0.59237 0.40243 0.0
N1290 N 0.85982 0.63008 0.40919 0.0
N1291 N 0.7755 0.47779 0.38093 0.0
C1292 C 0.83241 0.60367 0.39876 0.0
C1293 C 0.7902 0.52441 0.38341 0.0
N1294 N 0.88946 0.6103 0.37672 0.0
N1295 N 0.71145 0.55263 0.39205 0.0
H1296 H 0.79815 0.45155 0.37581 0.0
H1297 H 0.74331 0.46439 0.38584 0.0
H1298 H 0.68863 0.57799 0.39759 0.0
H1299 H 0.69419 0.52797 0.38444 0.0
H1300 H 0.90172 0.6437 0.381 0.0
H1301 H 0.90101 0.60146 0.36512 0.0
H1302 H 0.89665 0.63655 0.40718 0.0
H1303 H 0.84742 0.63978 0.42061 0.0
C1304 C 0.28341 0.41228 0.38941 0.0
C1305 C 0.28523 0.42934 0.40557 0.0
C1306 C 0.335 0.49897 0.39654 0.0
C1307 C 0.33485 0.48087 0.3805 0.0
N1308 N 0.31493 0.41658 0.36203 0.0
N1309 N 0.31983 0.48416 0.42499 0.0
C1310 C 0.31096 0.43627 0.37709 0.0
C1311 C 0.31304 0.47141 0.40924 0.0
N1312 N 0.25356 0.37434 0.3857 0.0
N1313 N 0.35526 0.54327 0.39959 0.0
H1314 H 0.30457 0.46503 0.43457 0.0
H1315 H 0.34375 0.51108 0.42871 0.0
H1316 H 0.37356 0.56333 0.39084 0.0
H1317 H 0.35138 0.56166 0.41047 0.0
H1318 H 0.24597 0.36334 0.37399 0.0
H1319 H 0.2334 0.35578 0.39436 0.0
H1320 H 0.30319 0.3818 0.3591 0.0
H1321 H 0.33332 0.4337 0.35264 0.0
C1322 C 0.33811 0.52107 0.14056 0.0
C1323 C 0.33763 0.53947 0.15657 0.0
C1324 C 0.2853 0.60763 0.14752 0.0
C1325 C 0.28736 0.59021 0.13141 0.0
N1326 N 0.32224 0.53495 0.11209 0.0
N1327 N 0.31638 0.60376 0.17496 0.0
C1328 C 0.31561 0.54816 0.12782 0.0
C1329 C 0.31299 0.58393 0.15991 0.0
N1330 N 0.35929 0.47698 0.13758 0.0
N1331 N 0.25516 0.64569 0.15112 0.0
H1332 H 0.33463 0.58675 0.18442 0.0
H1333 H 0.30414 0.63849 0.17784 0.0
H1334 H 0.23507 0.66418 0.1424 0.0
H1335 H 0.24734 0.65699 0.1628 0.0
H1336 H 0.35579 0.4583 0.12675 0.0
H1337 H 0.3781 0.45736 0.14635 0.0
H1338 H 0.34636 0.50799 0.10838 0.0
H1339 H 0.30649 0.55366 0.10249 0.0
C1340 C 0.17579 0.5198 0.89718 0.0
C1341 C 0.18013 0.53591 0.88097 0.0
C1342 C 0.23799 0.59923 0.88992 0.0
C1343 C 0.2321 0.58438 0.9062 0.0
N1344 N 0.19051 0.53482 0.92567 0.0
N1345 N 0.21064 0.59472 0.86207 0.0
C1346 C 0.19963 0.54578 0.90989 0.0
C1347 C 0.2098 0.57685 0.87743 0.0
N1348 N 0.14948 0.47892 0.90039 0.0
N1349 N 0.27203 0.63359 0.88633 0.0
H1350 H 0.19205 0.57852 0.85255 0.0
H1351 H 0.22691 0.62738 0.85887 0.0
H1352 H 0.29237 0.65127 0.89514 0.0
H1353 H 0.28258 0.64245 0.87466 0.0
H1354 H 0.14962 0.46121 0.91146 0.0
H1355 H 0.12932 0.46086 0.89162 0.0
H1356 H 0.1637 0.51081 0.92942 0.0
H1357 H 0.20755 0.55239 0.93524 0.0
C1358 C 0.19386 0.46795 0.62594 0.0
C1359 C 0.22836 0.43097 0.62971 0.0
C1360 C 0.20945 0.44191 0.65865 0.0
C1361 C 0.17789 0.48148 0.65495 0.0
N1362 N 0.14293 0.535 0.63518 0.0
N1363 N 0.27303 0.38627 0.64975 0.0
C1364 C 0.17089 0.49518 0.63859 0.0
C1365 C 0.23697 0.41873 0.64611 0.0
N1366 N 0.18198 0.47606 0.61018 0.0
N1367 N 0.21273 0.42606 0.67422 0.0
H1368 H 0.29319 0.3681 0.64096 0.0
H1369 H 0.28544 0.37969 0.66138 0.0
H1370 H 0.19467 0.44296 0.68375 0.0
H1371 H 0.23046 0.39422 0.67761 0.0
H1372 H 0.15373 0.49869 0.6065 0.0
H1373 H 0.19801 0.45715 0.60066 0.0
H1374 H 0.14081 0.55089 0.62383 0.0
H1375 H 0.12383 0.55417 0.64399 0.0
C1376 C 0.2946 0.16061 1.00311 0.0
C1377 C 0.24346 0.16217 1.00071 0.0
C1378 C 0.2314 0.15489 0.03008 0.0
C1379 C 0.28241 0.15753 0.03258 0.0
N1380 N 0.36231 0.17065 0.02158 0.0
N1381 N 0.16324 0.16922 1.01212 0.0
C1382 C 0.31397 0.1624 0.01911 0.0
C1383 C 0.21191 0.16156 1.01428 0.0
N1384 N 0.32474 0.15552 0.99013 0.0
N1385 N 0.20156 0.14423 0.04275 0.0
H1386 H 0.14766 0.17482 1.00082 0.0
H1387 H 0.13896 0.17455 0.02158 0.0
H1388 H 0.2144 0.13856 0.05442 0.0
H1389 H 0.16476 0.13657 0.04148 0.0
H1390 H 0.36184 0.14871 0.99112 0.0
H1391 H 0.31206 0.15411 0.97831 0.0
H1392 H 0.3863 0.18006 1.01241 0.0
H1393 H 0.37785 0.17201 0.03303 0.0
C1394 C 0.10818 0.97202 0.28003 0.0
C1395 C 0.10673 0.02298 0.2829 0.0
C1396 C 0.11658 0.03718 0.2537 0.0
C1397 C 0.11332 0.98645 0.25068 0.0
N1398 N 0.09864 0.90588 0.2609 0.0
N1399 N 0.10149 0.10411 0.27211 0.0
C1400 C 0.10727 0.95392 0.26385 0.0
C1401 C 0.10889 0.05555 0.26962 0.0
N1402 N 0.11232 0.94081 0.29276 0.0
N1403 N 0.12857 0.06783 0.24138 0.0
H1404 H 0.09495 0.11894 0.28347 0.0
H1405 H 0.09725 0.12914 0.26281 0.0
H1406 H 0.135 0.05575 0.22966 0.0
H1407 H 0.13664 0.10441 0.24304 0.0
H1408 H 0.11891 0.90374 0.29146 0.0
H1409 H 0.11337 0.95253 0.3047 0.0
H1410 H 0.08825 0.88135 0.26979 0.0
H1411 H 0.09805 0.89119 0.24932 0.0
C1412 C 0.28882 0.86116 0.53156 0.0
C1413 C 0.23781 0.85871 0.53415 0.0
C1414 C 0.22497 0.86208 0.50474 0.0
C1415 C 0.276 0.85982 0.50215 0.0
N1416 N 0.3564 0.84949 0.51312 0.0
N1417 N 0.15748 0.84922 0.52309 0.0
C1418 C 0.30791 0.85739 0.51558 0.0
C1419 C 0.20591 0.85726 0.52069 0.0
N1420 N 0.31907 0.86891 0.54435 0.0
N1421 N 0.19466 0.87058 0.49201 0.0
H1422 H 0.14213 0.84537 0.5345 0.0
H1423 H 0.13317 0.8422 0.51378 0.0
H1424 H 0.20713 0.87457 0.48022 0.0
H1425 H 0.15774 0.87795 0.49328 0.0
H1426 H 0.35595 0.87627 0.54313 0.0
H1427 H 0.30655 0.87245 0.55615 0.0
H1428 H 0.38076 0.84183 0.52237 0.0
H1429 H 0.37174 0.84633 0.50167 0.0
C1430 C 0.40637 0.95771 0.76891 0.0
C1431 C 0.40509 0.98989 0.7823 0.0
C1432 C 0.40693 0.05962 0.76357 0.0
C1433 C 0.40486 0.02744 0.75019 0.0
N1434 N 0.39296 0.94611 0.74026 0.0
N1435 N 0.39488 0.07146 0.79231 0.0
C1436 C 0.40185 0.97652 0.75292 0.0
C1437 C 0.40277 0.04088 0.77959 0.0
N1438 N 0.41401 0.90919 0.7714 0.0
N1439 N 0.41498 0.10798 0.76104 0.0
H1440 H 0.39123 0.05919 0.80413 0.0
H1441 H 0.38759 0.10839 0.791 0.0
H1442 H 0.41816 0.12311 0.74958 0.0
H1443 H 0.42252 0.13244 0.77026 0.0
H1444 H 0.4209 0.88461 0.76214 0.0
H1445 H 0.41774 0.89399 0.78284 0.0
H1446 H 0.38523 0.90934 0.74161 0.0
H1447 H 0.38866 0.95848 0.72846 0.0
C1448 C 0.78891 0.85873 1.00479 0.0
C1449 C 0.738 0.85606 1.00206 0.0
C1450 C 0.72447 0.8569 0.03148 0.0
C1451 C 0.77546 0.85506 0.03418 0.0
N1452 N 0.85619 0.84648 0.02328 0.0
N1453 N 0.65752 0.845 1.01286 0.0
C1454 C 0.80766 0.85397 0.02078 0.0
C1455 C 0.70582 0.8532 1.01544 0.0
N1456 N 0.81938 0.86763 0.99213 0.0
N1457 N 0.69379 0.86406 0.04422 0.0
H1458 H 0.64248 0.84211 1.00138 0.0
H1459 H 0.63305 0.83698 0.02204 0.0
H1460 H 0.70595 0.86724 0.05606 0.0
H1461 H 0.65681 0.87109 0.04294 0.0
H1462 H 0.85616 0.87528 0.99348 0.0
H1463 H 0.80712 0.87182 0.98032 0.0
H1464 H 0.88088 0.83984 1.01403 0.0
H1465 H 0.87128 0.84254 0.03472 0.0
C1466 C 0.8594 0.01283 0.7783 0.0
C1467 C 0.90284 0.03018 0.78536 0.0
C1468 C 0.94655 0.99948 0.76145 0.0
C1469 C 0.90185 0.99091 0.75323 0.0
N1470 N 0.81557 1.00786 0.75333 0.0
N1471 N 0.98734 0.05051 0.78086 0.0
C1472 C 0.8581 1.00287 0.76151 0.0
C1473 C 0.94638 0.02671 0.77611 0.0
N1474 N 0.82021 1.0025 0.78765 0.0
N1475 N 0.98901 0.97973 0.75596 0.0
H1476 H 0.98817 0.07377 0.79076 0.0
H1477 H 0.01858 0.05182 0.77377 0.0
H1478 H 0.99072 0.9555 0.74635 0.0
H1479 H 0.02148 0.98227 0.76236 0.0
H1480 H 0.78849 0.98741 0.78299 0.0
H1481 H 0.82285 1.0019 0.80016 0.0
H1482 H 0.78335 0.01863 0.75894 0.0
H1483 H 0.81486 0.00927 0.74083 0.0
C1484 C 0.70822 0.15675 0.51987 0.0
C1485 C 0.73968 0.15504 0.53343 0.0
C1486 C 0.81031 0.15262 0.51509 0.0
C1487 C 0.77866 0.1504 0.50158 0.0
N1488 N 0.69734 0.14186 0.49127 0.0
N1489 N 0.82036 0.14318 0.544 0.0
C1490 C 0.72753 0.15011 0.50404 0.0
C1491 C 0.79068 0.15075 0.53104 0.0
N1492 N 0.65997 0.16667 0.52207 0.0
N1493 N 0.85904 0.15868 0.51272 0.0
H1494 H 0.8075 0.14164 0.55581 0.0
H1495 H 0.85704 0.13438 0.54297 0.0
H1496 H 0.87483 0.16012 0.50131 0.0
H1497 H 0.88333 0.16626 0.52199 0.0
H1498 H 0.63608 0.17388 0.51264 0.0
H1499 H 0.64453 0.17211 0.53341 0.0
H1500 H 0.66016 0.13613 0.49246 0.0
H1501 H 0.71006 0.13615 0.47958 0.0
C1502 C 0.60498 0.95678 0.27062 0.0
C1503 C 0.61178 0.9881 0.28404 0.0
C1504 C 0.61192 0.0586 0.2657 0.0
C1505 C 0.60922 0.02705 0.25216 0.0
N1506 N 0.61092 0.94541 0.24165 0.0
N1507 N 0.62988 0.06798 0.29416 0.0
C1508 C 0.60776 0.9759 0.25461 0.0
C1509 C 0.61755 0.0388 0.2815 0.0
N1510 N 0.59405 0.909 0.27317 0.0
N1511 N 0.60689 0.1076 0.26354 0.0
H1512 H 0.63456 0.05485 0.30585 0.0
H1513 H 0.63979 0.10423 0.29287 0.0
H1514 H 0.6018 0.1235 0.25226 0.0
H1515 H 0.60314 0.13214 0.273 0.0
H1516 H 0.58304 0.88554 0.26405 0.0
H1517 H 0.59227 0.8936 0.28463 0.0
H1518 H 0.61535 0.90797 0.24267 0.0
H1519 H 0.61326 0.95785 0.22982 0.0
C1520 C 0.8099 0.66389 0.51935 0.0
C1521 C 0.77705 0.65911 0.53249 0.0
C1522 C 0.70841 0.66321 0.51339 0.0
C1523 C 0.74128 0.6637 0.50015 0.0
N1524 N 0.82359 0.65663 0.49052 0.0
N1525 N 0.69521 0.64619 0.54177 0.0
C1526 C 0.79215 0.66199 0.50314 0.0
C1527 C 0.72632 0.65659 0.52941 0.0
N1528 N 0.85797 0.67221 0.52233 0.0
N1529 N 0.66002 0.67115 0.51073 0.0
H1530 H 0.70687 0.64076 0.55359 0.0
H1531 H 0.65855 0.63856 0.5401 0.0
H1532 H 0.64555 0.67684 0.49928 0.0
H1533 H 0.63489 0.67664 0.51993 0.0
H1534 H 0.88282 0.68161 0.51342 0.0
H1535 H 0.87238 0.67377 0.53394 0.0
H1536 H 0.86055 0.64975 0.49194 0.0
H1537 H 0.81214 0.65484 0.47857 0.0
C1538 C 0.61483 0.53915 0.75341 0.0
C1539 C 0.61245 0.48812 0.75082 0.0
C1540 C 0.61565 0.47533 0.78023 0.0
C1541 C 0.61262 0.52633 0.78283 0.0
N1542 N 0.60219 0.60669 0.77178 0.0
N1543 N 0.6035 0.40771 0.7619 0.0
C1544 C 0.61054 0.55824 0.76938 0.0
C1545 C 0.6112 0.4562 0.76428 0.0
N1546 N 0.6228 0.56941 0.74064 0.0
N1547 N 0.62434 0.44512 0.79298 0.0
H1548 H 0.59983 0.39229 0.7505 0.0
H1549 H 0.59659 0.38338 0.77122 0.0
H1550 H 0.62835 0.4577 0.80476 0.0
H1551 H 0.63207 0.40826 0.79173 0.0
H1552 H 0.63007 0.60632 0.74187 0.0
H1553 H 0.62667 0.55688 0.72885 0.0
H1554 H 0.59463 0.63094 0.76249 0.0
H1555 H 0.59865 0.6221 0.7832 0.0
C1556 C 0.80624 0.36727 1.01353 0.0
C1557 C 0.77394 0.36777 1.00017 0.0
C1558 C 0.7044 0.37126 0.01897 0.0
C1559 C 0.73683 0.3735 0.03227 0.0
N1560 N 0.81856 0.38388 0.04197 0.0
N1561 N 0.69277 0.38024 0.9901 0.0
C1562 C 0.78776 0.37459 0.02944 0.0
C1563 C 0.72313 0.37271 1.00289 0.0
N1564 N 0.8544 0.35738 1.01114 0.0
N1565 N 0.65579 0.36532 0.02164 0.0
H1566 H 0.70509 0.38196 0.97823 0.0
H1567 H 0.65619 0.38922 0.99134 0.0
H1568 H 0.64057 0.36433 0.03313 0.0
H1569 H 0.63101 0.35758 1.01253 0.0
H1570 H 0.87876 0.35083 0.02048 0.0
H1571 H 0.86938 0.35144 0.99977 0.0
H1572 H 0.85557 0.3901 0.0405 0.0
H1573 H 0.80635 0.39012 0.05369 0.0
C1574 C 0.91428 0.54407 0.27952 0.0
C1575 C 0.91557 0.49311 0.28234 0.0
C1576 C 0.90968 0.47905 0.25303 0.0
C1577 C 0.91266 0.52985 0.25013 0.0
N1578 N 0.92526 0.61048 0.26058 0.0
N1579 N 0.92279 0.41209 0.27158 0.0
C1580 C 0.91689 0.56232 0.26339 0.0
C1581 C 0.91546 0.46062 0.26902 0.0
N1582 N 0.90863 0.57513 0.29223 0.0
N1583 N 0.89954 0.44837 0.24054 0.0
H1584 H 0.92776 0.39726 0.28303 0.0
H1585 H 0.92848 0.38713 0.26235 0.0
H1586 H 0.89451 0.46045 0.22874 0.0
H1587 H 0.89164 0.4117 0.24205 0.0
H1588 H 0.90199 0.61217 0.29092 0.0
H1589 H 0.9065 0.56329 0.30414 0.0
H1590 H 0.93432 0.6351 0.2696 0.0
H1591 H 0.927 0.62523 0.24903 0.0
C1592 C 0.30651 0.35947 0.52049 0.0
C1593 C 0.27406 0.36066 0.53382 0.0
C1594 C 0.20473 0.35908 0.51494 0.0
C1595 C 0.23718 0.36101 0.50162 0.0
N1596 N 0.31869 0.37317 0.49187 0.0
N1597 N 0.19233 0.37124 0.54364 0.0
C1598 C 0.28802 0.36414 0.50447 0.0
C1599 C 0.22315 0.36323 0.531 0.0
N1600 N 0.35494 0.35157 0.52305 0.0
N1601 N 0.15642 0.35104 0.51232 0.0
H1602 H 0.20439 0.37502 0.55548 0.0
H1603 H 0.15546 0.37863 0.54226 0.0
H1604 H 0.14149 0.34785 0.50084 0.0
H1605 H 0.1318 0.34354 0.52151 0.0
H1606 H 0.37962 0.34465 0.51381 0.0
H1607 H 0.36996 0.34768 0.5345 0.0
H1608 H 0.3554 0.38096 0.49331 0.0
H1609 H 0.30655 0.37757 0.48006 0.0
C1610 C 0.39829 0.54394 0.25515 0.0
C1611 C 0.40208 0.49303 0.25247 0.0
C1612 C 0.39756 0.47958 0.28182 0.0
C1613 C 0.39949 0.53055 0.28454 0.0
N1614 N 0.40825 0.61132 0.27372 0.0
N1615 N 0.412 0.41248 0.26343 0.0
C1616 C 0.40132 0.56279 0.27117 0.0
C1617 C 0.40321 0.46084 0.26586 0.0
N1618 N 0.39023 0.57431 0.24239 0.0
N1619 N 0.38886 0.44904 0.29447 0.0
H1620 H 0.41653 0.39731 0.25203 0.0
H1621 H 0.41891 0.38806 0.27274 0.0
H1622 H 0.38399 0.46138 0.30624 0.0
H1623 H 0.38192 0.41211 0.29311 0.0
H1624 H 0.382 0.61106 0.24366 0.0
H1625 H 0.38725 0.56193 0.23056 0.0
H1626 H 0.41565 0.6359 0.26451 0.0
H1627 H 0.41064 0.62659 0.28518 0.0
C1628 C 0.20888 0.64905 0.02194 0.0
C1629 C 0.24087 0.64884 0.03538 0.0
C1630 C 0.31085 0.64492 1.01675 0.0
C1631 C 0.27877 0.64264 1.00335 0.0
N1632 N 0.19725 0.63198 0.99349 0.0
N1633 N 0.32175 0.63578 0.04563 0.0
C1634 C 0.22776 0.64149 1.00608 0.0
C1635 C 0.29172 0.64354 0.03277 0.0
N1636 N 0.16067 0.65896 0.02421 0.0
N1637 N 0.35951 0.65096 1.01422 0.0
H1638 H 0.30913 0.63389 0.05746 0.0
H1639 H 0.35831 0.62662 0.04446 0.0
H1640 H 0.37504 0.65207 1.00277 0.0
H1641 H 0.384 0.65877 0.0234 0.0
H1642 H 0.13651 0.66531 1.01479 0.0
H1643 H 0.14542 0.66501 0.03553 0.0
H1644 H 0.1602 0.62578 0.99488 0.0
H1645 H 0.20976 0.62553 0.98182 0.0
C1646 C 0.11668 0.54183 0.78113 0.0
C1647 C 0.11391 0.491 0.7841 0.0
C1648 C 0.11688 0.47649 0.75474 0.0
C1649 C 0.1139 0.52733 0.75177 0.0
N1650 N 0.104 0.60833 0.76234 0.0
N1651 N 0.10446 0.41002 0.77352 0.0
C1652 C 0.11223 0.56001 0.76503 0.0
C1653 C 0.11246 0.45832 0.77083 0.0
N1654 N 0.12506 0.5728 0.79368 0.0
N1655 N 0.12539 0.4455 0.74218 0.0
H1656 H 0.10075 0.39525 0.78502 0.0
H1657 H 0.09734 0.38523 0.76436 0.0
H1658 H 0.12942 0.4574 0.73033 0.0
H1659 H 0.13305 0.4087 0.74367 0.0
H1660 H 0.13256 0.60957 0.79217 0.0
H1661 H 0.12912 0.56091 0.80553 0.0
H1662 H 0.09668 0.63313 0.77151 0.0
H1663 H 0.10034 0.62313 0.75085 0.0
C1664 C 0.32908 0.85106 0.06322 0.0
C1665 C 0.32303 0.82747 0.07831 0.0
C1666 C 0.3616 0.89633 0.09196 0.0
C1667 C 0.37057 0.91822 0.07675 0.0
N1668 N 0.37137 0.91269 0.04782 0.0
N1669 N 0.33977 0.82398 0.10677 0.0
C1670 C 0.35691 0.89435 0.06235 0.0
C1671 C 0.34099 0.84912 0.09261 0.0
N1672 N 0.30606 0.83355 0.04984 0.0
N1673 N 0.37087 0.92129 0.10585 0.0
H1674 H 0.32364 0.79012 0.10782 0.0
H1675 H 0.35782 0.83492 0.11717 0.0
H1676 H 0.38813 0.95481 0.1061 0.0
H1677 H 0.35864 0.91028 0.11714 0.0
H1678 H 0.30479 0.85205 0.03891 0.0
H1679 H 0.28411 0.80277 0.05001 0.0
H1680 H 0.36696 0.89435 0.03696 0.0
H1681 H 0.39192 0.94431 0.04678 0.0
C1682 C 0.43339 0.11805 0.33112 0.0
C1683 C 0.44492 0.07017 0.32614 0.0
C1684 C 0.35991 0.05492 0.31987 0.0
C1685 C 0.34761 0.10341 0.32446 0.0
N1686 N 0.37576 0.18479 0.32966 0.0
N1687 N 0.4226 1.00133 0.30984 0.0
C1688 C 0.38549 0.13621 0.32852 0.0
C1689 C 0.4093 0.04142 0.31854 0.0
N1690 N 0.46729 0.14542 0.33892 0.0
N1691 N 0.32534 0.02013 0.31798 0.0
H1692 H 0.45876 0.99104 0.30814 0.0
H1693 H 0.39815 0.98183 0.30279 0.0
H1694 H 0.28869 0.02667 0.31925 0.0
H1695 H 0.33359 0.98335 0.31664 0.0
H1696 H 0.45926 0.17857 0.34438 0.0
H1697 H 0.50267 0.13328 0.34098 0.0
H1698 H 0.40261 0.2109 0.33126 0.0
H1699 H 0.34146 0.1993 0.32723 0.0
C1700 C 0.19151 0.16415 0.56427 0.0
C1701 C 0.19484 0.18899 0.57923 0.0
C1702 C 0.15751 0.11955 0.59293 0.0
C1703 C 0.15078 0.09642 0.5778 0.0
N1704 N 0.1531 0.10015 0.54884 0.0
N1705 N 0.17337 0.19419 0.60731 0.0
C1706 C 0.16531 0.11982 0.56339 0.0
C1707 C 0.17574 0.16773 0.59343 0.0
N1708 N 0.2153 0.18172 0.55104 0.0
N1709 N 0.14838 0.09496 0.60691 0.0
H1710 H 0.18644 0.22942 0.60811 0.0
H1711 H 0.15469 0.18295 0.61756 0.0
H1712 H 0.13357 0.06026 0.60724 0.0
H1713 H 0.15883 0.10749 0.61821 0.0
H1714 H 0.21864 0.16251 0.54029 0.0
H1715 H 0.23568 0.21357 0.5512 0.0
H1716 H 0.15814 0.11799 0.53791 0.0
H1717 H 0.13377 0.06778 0.54776 0.0
C1718 C 0.12513 0.89827 0.81512 0.0
C1719 C 0.16452 0.92048 0.82318 0.0
C1720 C 0.10775 0.96837 0.83907 0.0
C1721 C 0.06841 0.95195 0.82959 0.0
N1722 N 0.04375 0.91055 0.80503 0.0
N1723 N 0.19056 0.99306 0.8371 0.0
C1724 C 0.07788 0.91917 0.8166 0.0
C1725 C 0.15528 0.96041 0.83348 0.0
N1726 N 0.13276 0.858 0.80586 0.0
N1727 N 0.10028 0.99101 0.85349 0.0
H1728 H 0.2233 0.99385 0.83092 0.0
H1729 H 0.18395 0.02393 0.84407 0.0
H1730 H 0.06601 0.99433 0.85872 0.0
H1731 H 0.12891 1.0007 0.86105 0.0
H1732 H 0.10441 0.8376 0.80107 0.0
H1733 H 0.16735 0.84364 0.80379 0.0
H1734 H 0.05105 0.8901 0.79474 0.0
H1735 H 0.01038 0.92834 0.80454 0.0
C1736 C 0.33391 0.16744 0.44131 0.0
C1737 C 0.32321 0.19059 0.45617 0.0
C1738 C 0.36642 0.12571 0.47058 0.0
C1739 C 0.37116 0.09945 0.456 0.0
N1740 N 0.35483 0.09344 0.42737 0.0
N1741 N 0.32174 0.18716 0.48527 0.0
C1742 C 0.35407 0.1199 0.4413 0.0
C1743 C 0.33778 0.16873 0.47091 0.0
N1744 N 0.32628 0.19138 0.42712 0.0
N1745 N 0.38975 0.10965 0.48411 0.0
H1746 H 0.29872 0.21721 0.48613 0.0
H1747 H 0.32705 0.1697 0.49626 0.0
H1748 H 0.41134 0.0784 0.48419 0.0
H1749 H 0.39161 0.12972 0.49472 0.0
H1750 H 0.33922 0.17906 0.41606 0.0
H1751 H 0.31057 0.22567 0.42653 0.0
H1752 H 0.33582 0.10355 0.41705 0.0
H1753 H 0.3718 0.05988 0.4262 0.0
C1754 C 0.11619 0.02602 0.70591 0.0
C1755 C 0.07477 0.05664 0.70668 0.0
C1756 C 0.12808 0.12738 0.70897 0.0
C1757 C 0.16914 0.09733 0.70588 0.0
N1758 N 0.19861 0.01843 0.69687 0.0
N1759 N 0.04138 0.13779 0.70551 0.0
C1760 C 0.16221 0.0468 0.70297 0.0
C1761 C 0.08068 0.10779 0.70721 0.0
N1762 N 0.11249 0.97732 0.7089 0.0
N1763 N 0.1341 0.174 0.71422 0.0
H1764 H 1.00631 0.12485 0.70357 0.0
H1765 H 0.04441 0.17534 0.70429 0.0
H1766 H 0.1681 0.18913 0.71642 0.0
H1767 H 0.1053 0.19577 0.71807 0.0
H1768 H 0.14277 0.95469 0.70997 0.0
H1769 H 0.08018 0.96053 0.71226 0.0
H1770 H 0.19294 0.98291 0.69295 0.0
H1771 H 0.23312 0.03117 0.69432 0.0
C1772 C 0.15602 0.82857 0.96863 0.0
C1773 C 0.1932 0.81566 0.95731 0.0
C1774 C 0.20821 0.90103 0.95278 0.0
C1775 C 0.16604 0.91422 0.96139 0.0
N1776 N 0.09515 0.88878 0.97607 0.0
N1777 N 0.2408 0.84247 0.93439 0.0
C1778 C 0.13805 0.87734 0.96875 0.0
C1779 C 0.21447 0.85275 0.94791 0.0
N1780 N 0.14011 0.79627 0.97992 0.0
N1781 N 0.24465 0.93327 0.95051 0.0
H1782 H 0.24318 0.80758 0.92957 0.0
H1783 H 0.25475 0.86975 0.927 0.0
H1784 H 0.24586 0.9646 0.95739 0.0
H1785 H 0.27703 0.92427 0.94466 0.0
H1786 H 0.11629 0.80606 0.98914 0.0
H1787 H 0.15431 0.76151 0.98133 0.0
H1788 H 0.07102 0.8625 0.98022 0.0
H1789 H 0.08266 0.92451 0.97708 0.0
C1790 C 0.38721 0.90361 0.2165 0.0
C1791 C 0.35189 0.91534 0.2047 0.0
C1792 C 0.41252 0.96197 0.1897 0.0
C1793 C 0.44612 0.95525 0.20241 0.0
N1794 N 0.46165 0.92791 0.22965 0.0
N1795 N 0.32844 0.96499 0.18195 0.0
C1796 C 0.43271 0.92795 0.21627 0.0
C1797 C 0.36379 0.94721 0.19184 0.0
N1798 N 0.37717 0.86972 0.22804 0.0
N1799 N 0.42734 0.9812 0.17535 0.0
H1800 H 0.29212 0.95659 0.18347 0.0
H1801 H 0.33437 0.9923 0.17349 0.0
H1802 H 0.46302 0.99162 0.17315 0.0
H1803 H 0.40549 0.98204 0.16511 0.0
H1804 H 0.40341 0.85574 0.23582 0.0
H1805 H 0.34341 0.85295 0.22911 0.0
H1806 H 0.45115 0.91284 0.24061 0.0
H1807 H 0.49406 0.94717 0.23043 0.0
C1808 C 0.65671 0.11982 0.94328 0.0
C1809 C 0.65149 0.09635 0.95843 0.0
C1810 C 0.69269 0.16431 0.97167 0.0
C1811 C 0.69441 0.18946 0.95673 0.0
N1812 N 0.67009 0.19505 0.92893 0.0
N1813 N 0.65608 0.09983 0.98738 0.0
C1814 C 0.67422 0.16828 0.9427 0.0
C1815 C 0.66699 0.11972 0.97273 0.0
N1816 N 0.64685 0.09532 0.92935 0.0
N1817 N 0.71751 0.18185 0.98468 0.0
H1818 H 0.63707 0.06733 0.9886 0.0
H1819 H 0.66187 0.11763 0.99827 0.0
H1820 H 0.73756 0.2139 0.98437 0.0
H1821 H 0.72202 0.16244 0.99534 0.0
H1822 H 0.65613 0.10827 0.91798 0.0
H1823 H 0.63278 0.06032 0.92909 0.0
H1824 H 0.65068 0.18371 0.91886 0.0
H1825 H 0.68231 0.23061 0.92811 0.0
C1826 C 0.63385 0.89509 0.71966 0.0
C1827 C 0.66164 0.89008 0.7054 0.0
C1828 C 0.59664 0.93024 0.69004 0.0
C1829 C 0.57213 0.94108 0.70466 0.0
N1830 N 0.57212 0.94105 0.73378 0.0
N1831 N 0.67129 0.90674 0.6769 0.0
C1832 C 0.59175 0.92508 0.71959 0.0
C1833 C 0.64339 0.90825 0.69052 0.0
N1834 N 0.64774 0.87088 0.73328 0.0
N1835 N 0.57472 0.93959 0.67562 0.0
H1836 H 0.70424 0.88841 0.67608 0.0
H1837 H 0.66309 0.92633 0.66651 0.0
H1838 H 0.5413 0.95692 0.6747 0.0
H1839 H 0.58777 0.92673 0.66464 0.0
H1840 H 0.62648 0.86924 0.74365 0.0
H1841 H 0.67835 0.84841 0.73364 0.0
H1842 H 0.58804 0.93467 0.74496 0.0
H1843 H 0.54275 0.965 0.73438 0.0
C1844 C 0.8541 0.89759 0.43854 0.0
C1845 C 0.86716 0.91563 0.45396 0.0
C1846 C 0.82928 0.84535 0.4669 0.0
C1847 C 0.81777 0.82627 0.45147 0.0
N1848 N 0.82339 0.83096 0.42256 0.0
N1849 N 0.87569 0.90353 0.4825 0.0
C1850 C 0.83131 0.85154 0.43727 0.0
C1851 C 0.85734 0.88843 0.46805 0.0
N1852 N 0.86182 0.92529 0.42511 0.0
N1853 N 0.81117 0.82368 0.48046 0.0
H1854 H 0.89636 0.93502 0.48369 0.0
H1855 H 0.87427 0.8829 0.493 0.0
H1856 H 0.78967 0.79259 0.48017 0.0
H1857 H 0.81372 0.8387 0.49193 0.0
H1858 H 0.84665 0.91794 0.4139 0.0
H1859 H 0.88176 0.95729 0.42524 0.0
H1860 H 0.83811 0.84389 0.41184 0.0
H1861 H 0.80401 0.79903 0.42112 0.0
C1862 C 0.90889 0.04514 0.19644 0.0
C1863 C 0.94953 0.07305 0.2009 0.0
C1864 C 0.89315 0.13682 0.21038 0.0
C1865 C 0.85419 0.10333 0.20905 0.0
N1866 N 0.83152 0.01908 0.20584 0.0
N1867 N 0.98018 0.15135 0.20899 0.0
C1868 C 0.86394 0.05553 0.20362 0.0
C1869 C 0.9417 0.12082 0.20705 0.0
N1870 N 0.91218 0.01022 0.18482 0.0
N1871 N 0.88339 0.18387 0.21457 0.0
H1872 H 0.01391 0.14444 0.20373 0.0
H1873 H 0.97849 0.18383 0.21538 0.0
H1874 H 0.84878 0.19535 0.21807 0.0
H1875 H 0.90883 0.21168 0.21421 0.0
H1876 H 0.88194 0.99098 0.1808 0.0
H1877 H 0.94279 1.00645 0.17751 0.0
H1878 H 0.83883 0.98322 0.20253 0.0
H1879 H 0.80171 0.02318 0.2133 0.0
C1880 C 0.67824 0.84406 0.5651 0.0
C1881 C 0.69315 0.82298 0.57994 0.0
C1882 C 0.6638 0.89515 0.59439 0.0
C1883 C 0.64603 0.9147 0.57963 0.0
N1884 N 0.62615 0.90261 0.5517 0.0
N1885 N 0.69124 0.82431 0.60898 0.0
C1886 C 0.65 0.8874 0.56523 0.0
C1887 C 0.68338 0.84736 0.59465 0.0
N1888 N 0.69347 0.82446 0.55082 0.0
N1889 N 0.66415 0.92262 0.60811 0.0
H1890 H 0.70622 0.78976 0.60972 0.0
H1891 H 0.67901 0.8376 0.62001 0.0
H1892 H 0.64796 0.95662 0.6091 0.0
H1893 H 0.68354 0.91295 0.6184 0.0
H1894 H 0.68793 0.84126 0.53973 0.0
H1895 H 0.71604 0.79405 0.55009 0.0
H1896 H 0.62368 0.88177 0.54127 0.0
H1897 H 0.60476 0.93399 0.55147 0.0
C1898 C 0.86953 0.91013 0.34429 0.0
C1899 C 0.84702 0.90029 0.32925 0.0
C1900 C 0.91471 0.93898 0.31506 0.0
C1901 C 0.93845 0.94639 0.33004 0.0
N1902 N 0.94321 0.93106 0.35854 0.0
N1903 N 0.85182 0.89647 0.30032 0.0
C1904 C 0.91719 0.92966 0.34456 0.0
C1905 C 0.87082 0.91199 0.31463 0.0
N1906 N 0.84473 0.90278 0.35835 0.0
N1907 N 0.93283 0.95972 0.30136 0.0
H1908 H 0.81976 0.87649 0.29961 0.0
H1909 H 0.8699 0.89945 0.28935 0.0
H1910 H 0.96459 0.98022 0.30116 0.0
H1911 H 0.9143 0.96023 0.29043 0.0
H1912 H 0.85662 0.9154 0.36948 0.0
H1913 H 0.81051 0.88695 0.35885 0.0
H1914 H 0.9321 0.91448 0.36919 0.0
H1915 H 0.97812 0.94522 0.35909 0.0
C1916 C 0.87441 0.13877 0.06423 0.0
C1917 C 0.84837 0.10112 0.07196 0.0
C1918 C 0.80016 0.16126 0.08621 0.0
C1919 C 0.82019 0.19909 0.0768 0.0
N1920 N 0.86891 0.21993 0.0533 0.0
N1921 N 0.77141 0.07991 0.08396 0.0
C1922 C 0.85559 0.1871 0.0648 0.0
C1923 C 0.80677 0.11312 0.08111 0.0
N1924 N 0.91639 0.12844 0.05616 0.0
N1925 N 0.77523 0.1707 0.10008 0.0
H1926 H 0.76976 0.04784 0.07743 0.0
H1927 H 0.73962 0.08837 0.09023 0.0
H1928 H 0.7729 0.20535 0.10509 0.0
H1929 H 0.76255 0.14299 0.10755 0.0
H1930 H 0.93933 0.15536 0.05173 0.0
H1931 H 0.92937 0.09302 0.05476 0.0
H1932 H 0.89147 0.21086 0.04366 0.0
H1933 H 0.85333 0.25422 0.05214 0.0
C1934 C 0.65934 0.05653 0.83099 0.0
C1935 C 0.66457 0.10802 0.83097 0.0
C1936 C 0.57581 0.11568 0.83222 0.0
C1937 C 0.57144 0.06484 0.82974 0.0
N1938 N 0.61086 0.99034 0.82128 0.0
N1939 N 0.62601 0.18668 0.82828 0.0
C1940 C 0.61367 0.03624 0.82748 0.0
C1941 C 0.62224 0.13775 0.83065 0.0
N1942 N 0.69681 0.02639 0.83507 0.0
N1943 N 0.53628 0.14268 0.83666 0.0
H1944 H 0.65913 0.20405 0.82644 0.0
H1945 H 0.59594 0.20913 0.82647 0.0
H1946 H 0.50209 0.12759 0.83857 0.0
H1947 H 0.53867 0.17902 0.84007 0.0
H1948 H 0.69232 0.9891 0.83668 0.0
H1949 H 0.73075 0.03861 0.83852 0.0
H1950 H 0.64164 0.97012 0.81822 0.0
H1951 H 0.57852 0.97496 0.81726 0.0
C1952 C 0.83238 0.34578 0.59329 0.0
C1953 C 0.81286 0.32424 0.57923 0.0
C1954 C 0.84307 0.39231 0.56298 0.0
C1955 C 0.85824 0.41611 0.57725 0.0
N1956 N 0.86207 0.4184 0.60633 0.0
N1957 N 0.79244 0.33025 0.55102 0.0
C1958 C 0.85169 0.39357 0.59251 0.0
C1959 C 0.8164 0.3483 0.56413 0.0
N1960 N 0.83393 0.31991 0.60732 0.0
N1961 N 0.85527 0.4112 0.54831 0.0
H1962 H 0.77191 0.29851 0.55137 0.0
H1963 H 0.78918 0.34892 0.54017 0.0
H1964 H 0.87503 0.44323 0.54703 0.0
H1965 H 0.8498 0.393 0.53747 0.0
H1966 H 0.85281 0.3311 0.61752 0.0
H1967 H 0.81959 0.28515 0.60834 0.0
H1968 H 0.85192 0.40654 0.61775 0.0
H1969 H 0.87787 0.45265 0.60644 0.0
C1970 C 0.86982 0.60869 0.84263 0.0
C1971 C 0.84689 0.61632 0.82751 0.0
C1972 C 0.9151 0.57637 0.81382 0.0
C1973 C 0.93974 0.57211 0.8288 0.0
N1974 N 0.94421 0.59146 0.85706 0.0
N1975 N 0.85122 0.61596 0.79854 0.0
C1976 C 0.91809 0.59027 0.8431 0.0
C1977 C 0.87068 0.60275 0.81304 0.0
N1978 N 0.84492 0.61712 0.85661 0.0
N1979 N 0.93282 0.55311 0.80049 0.0
H1980 H 0.81879 0.63546 0.79754 0.0
H1981 H 0.86933 0.61161 0.78762 0.0
H1982 H 0.96453 0.53229 0.80059 0.0
H1983 H 0.91374 0.55051 0.7897 0.0
H1984 H 0.85729 0.60602 0.86788 0.0
H1985 H 0.81019 0.63209 0.85696 0.0
H1986 H 0.93272 0.6095 0.86741 0.0
H1987 H 0.97936 0.57785 0.85788 0.0
C1988 C 0.65136 0.69171 0.0783 0.0
C1989 C 0.69455 0.69983 0.08725 0.0
C1990 C 0.70006 0.61308 0.09336 0.0
C1991 C 0.66101 0.60393 0.08254 0.0
N1992 N 0.60235 0.63422 0.06342 0.0
N1993 N 0.74099 0.67219 0.10998 0.0
C1994 C 0.63714 0.64324 0.07476 0.0
C1995 C 0.71351 0.66161 0.09675 0.0
N1996 N 0.62138 0.72973 0.07459 0.0
N1997 N 0.72566 0.57568 0.10006 0.0
H1998 H 0.74633 0.70775 0.11386 0.0
H1999 H 0.75218 0.64637 0.11838 0.0
H2000 H 0.71751 0.53953 0.09808 0.0
H2001 H 0.75805 0.58034 0.10634 0.0
H2002 H 0.58773 0.72561 0.06905 0.0
H2003 H 0.62607 0.76427 0.07945 0.0
H2004 H 0.58776 0.66104 0.05599 0.0
H2005 H 0.59134 0.59923 0.06033 0.0
C2006 C 0.62925 0.38451 0.32355 0.0
C2007 C 0.66802 0.41832 0.32461 0.0
C2008 C 0.6127 0.47727 0.33664 0.0
C2009 C 0.5722 0.44843 0.33259 0.0
N2010 N 0.54236 0.36932 0.32506 0.0
N2011 N 0.69003 0.50298 0.32701 0.0
C2012 C 0.58055 0.40034 0.32678 0.0
C2013 C 0.65779 0.46654 0.32953 0.0
N2014 N 0.63936 0.33724 0.31975 0.0
N2015 N 0.60936 0.51321 0.34791 0.0
H2016 H 0.72026 0.4983 0.31977 0.0
H2017 H 0.68238 0.53913 0.32987 0.0
H2018 H 0.57916 0.51713 0.35539 0.0
H2019 H 0.63948 0.53316 0.35163 0.0
H2020 H 0.61417 0.30924 0.32038 0.0
H2021 H 0.67402 0.32579 0.31629 0.0
H2022 H 0.54435 0.33649 0.31888 0.0
H2023 H 0.50852 0.37624 0.33024 0.0
C2024 C 0.85116 0.61884 0.97024 0.0
C2025 C 0.86355 0.59557 0.95558 0.0
C2026 C 0.83352 0.66606 0.94041 0.0
C2027 C 0.81693 0.68732 0.955 0.0
N2028 N 0.80198 0.6799 0.98356 0.0
N2029 N 0.8614 0.59389 0.92651 0.0
C2030 C 0.82379 0.66272 0.96988 0.0
C2031 C 0.85356 0.61839 0.9406 0.0
N2032 N 0.86638 0.59933 0.98453 0.0
N2033 N 0.83161 0.692 0.92642 0.0
H2034 H 0.87796 0.55988 0.92596 0.0
H2035 H 0.8486 0.60577 0.91538 0.0
H2036 H 0.81613 0.72636 0.92575 0.0
H2037 H 0.84857 0.68116 0.91579 0.0
H2038 H 0.86297 0.61711 0.99554 0.0
H2039 H 0.88652 0.56721 0.9852 0.0
H2040 H 0.80127 0.66079 0.99438 0.0
H2041 H 0.78042 0.71112 0.98378 0.0
C2042 C 0.65882 0.57243 0.19432 0.0
C2043 C 0.6723 0.60932 0.20545 0.0
C2044 C 0.58655 0.62017 0.21281 0.0
C2045 C 0.57444 0.57891 0.20338 0.0
N2046 N 0.59401 0.53712 0.17871 0.0
N2047 N 0.64956 0.66565 0.22641 0.0
C2048 C 0.60909 0.56096 0.19223 0.0
C2049 C 0.63621 0.63283 0.21489 0.0
N2050 N 0.69335 0.54723 0.18596 0.0
N2051 N 0.55056 0.65002 0.21839 0.0
H2052 H 0.68559 0.67543 0.22845 0.0
H2053 H 0.62553 0.67976 0.23491 0.0
H2054 H 0.51445 0.6461 0.21487 0.0
H2055 H 0.55706 0.68271 0.2243 0.0
H2056 H 0.68593 0.51602 0.17931 0.0
H2057 H 0.7301 0.55447 0.18684 0.0
H2058 H 0.61722 0.52682 0.1694 0.0
H2059 H 0.55752 0.53474 0.17555 0.0
C2060 C 0.66398 0.3337 0.46845 0.0
C2061 C 0.6993 0.3224 0.45636 0.0
C2062 C 0.71151 0.40877 0.45222 0.0
C2063 C 0.66984 0.42 0.46148 0.0
N2064 N 0.60262 0.39133 0.47739 0.0
N2065 N 0.74414 0.35178 0.43321 0.0
C2066 C 0.64454 0.38178 0.46919 0.0
C2067 C 0.71894 0.3607 0.44707 0.0
N2068 N 0.65133 0.30041 0.47989 0.0
N2069 N 0.7461 0.44271 0.44925 0.0
H2070 H 0.74713 0.31721 0.42818 0.0
H2071 H 0.75638 0.37972 0.42576 0.0
H2072 H 0.74707 0.47512 0.45561 0.0
H2073 H 0.778 0.43484 0.44296 0.0
H2074 H 0.62884 0.30892 0.4896 0.0
H2075 H 0.66748 0.26634 0.48093 0.0
H2076 H 0.58015 0.364 0.48181 0.0
H2077 H 0.58917 0.42653 0.47893 0.0
C2078 C 0.87108 0.41196 0.722 0.0
C2079 C 0.84803 0.39974 0.70732 0.0
C2080 C 0.91799 0.43055 0.69218 0.0
C2081 C 0.93905 0.44683 0.70681 0.0
N2082 N 0.93137 0.46133 0.73539 0.0
N2083 N 0.84637 0.40219 0.67824 0.0
C2084 C 0.91457 0.43956 0.72169 0.0
C2085 C 0.87071 0.41008 0.69234 0.0
N2086 N 0.85172 0.39642 0.73626 0.0
N2087 N 0.94375 0.43325 0.67816 0.0
H2088 H 0.81278 0.3851 0.67766 0.0
H2089 H 0.85796 0.41535 0.66714 0.0
H2090 H 0.97756 0.44962 0.67744 0.0
H2091 H 0.93327 0.41634 0.66751 0.0
H2092 H 0.86942 0.39972 0.74728 0.0
H2093 H 0.81985 0.37612 0.73689 0.0
H2094 H 0.91226 0.46169 0.74622 0.0
H2095 H 0.96216 0.48325 0.73563 0.0
C2096 C 0.23485 0.64724 0.45646 0.0
C2097 C 0.20409 0.68859 0.45644 0.0
C2098 C 0.13339 0.63524 0.45861 0.0
C2099 C 0.16386 0.5941 0.45616 0.0
N2100 N 0.24357 0.5645 0.44798 0.0
N2101 N 0.12295 0.72158 0.45421 0.0
C2102 C 0.21455 0.60103 0.45363 0.0
C2103 C 0.15294 0.68257 0.45657 0.0
N2104 N 0.28313 0.65126 0.46006 0.0
N2105 N 0.08638 0.62942 0.46349 0.0
H2106 H 0.1359 0.75653 0.45205 0.0
H2107 H 0.08554 0.71826 0.4527 0.0
H2108 H 0.07121 0.59551 0.46585 0.0
H2109 H 0.06417 0.65842 0.46687 0.0
H2110 H 0.30566 0.62107 0.46162 0.0
H2111 H 0.29936 0.68378 0.4635 0.0
H2112 H 0.27942 0.57021 0.44441 0.0
H2113 H 0.23114 0.52991 0.44537 0.0
C2114 C 0.10272 0.43008 0.19065 0.0
C2115 C 0.08045 0.44785 0.2049 0.0
C2116 C 0.14755 0.41462 0.221 0.0
C2117 C 0.1721 0.40142 0.20665 0.0
N2118 N 0.176 0.40167 0.17756 0.0
N2119 N 0.08554 0.46477 0.2334 0.0
C2120 C 0.15041 0.41026 0.19139 0.0
C2121 C 0.10379 0.442 0.22004 0.0
N2122 N 0.07773 0.43068 0.17646 0.0
N2123 N 0.16573 0.40019 0.23556 0.0
H2124 H 0.05435 0.48637 0.23319 0.0
H2125 H 0.10378 0.46619 0.24437 0.0
H2126 H 0.19768 0.37994 0.23666 0.0
H2127 H 0.14699 0.40428 0.24637 0.0
H2128 H 0.08941 0.41288 0.16608 0.0
H2129 H 0.04327 0.4458 0.17539 0.0
H2130 H 0.16486 0.41374 0.16626 0.0
H2131 H 0.21011 0.38531 0.17739 0.0
C2132 C 0.36229 0.32598 0.95399 0.0
C2133 C 0.31717 0.31869 0.9461 0.0
C2134 C 0.30835 0.40621 0.94205 0.0
C2135 C 0.35045 0.41419 0.95166 0.0
N2136 N 0.4146 0.38184 0.96832 0.0
N2137 N 0.26485 0.34935 0.92527 0.0
C2138 C 0.37688 0.37404 0.95794 0.0
C2139 C 0.29529 0.35811 0.93793 0.0
N2140 N 0.39334 0.28777 0.95624 0.0
N2141 N 0.27932 0.44394 0.93735 0.0
H2142 H 0.25907 0.31439 0.92085 0.0
H2143 H 0.25127 0.37652 0.91777 0.0
H2144 H 0.28551 0.47977 0.94049 0.0
H2145 H 0.24568 0.43914 0.93185 0.0
H2146 H 0.42822 0.29135 0.96091 0.0
H2147 H 0.38757 0.25392 0.95099 0.0
H2148 H 0.43168 0.35416 0.97475 0.0
H2149 H 0.42581 0.41649 0.97174 0.0
C2150 C 0.43337 0.61544 0.71044 0.0
C2151 C 0.44401 0.57337 0.70116 0.0
C2152 C 0.3587 0.56881 0.69294 0.0
C2153 C 0.34678 0.60627 0.70413 0.0
N2154 N 0.37247 0.66237 0.72471 0.0
N2155 N 0.42164 0.53048 0.67703 0.0
C2156 C 0.38413 0.62913 0.71309 0.0
C2157 C 0.40807 0.55567 0.69049 0.0
N2158 N 0.47019 0.64507 0.71534 0.0
N2159 N 0.323 0.54477 0.68485 0.0
H2160 H 0.45784 0.52677 0.67359 0.0
H2161 H 0.39759 0.52016 0.668 0.0
H2162 H 0.28656 0.55365 0.68586 0.0
H2163 H 0.32908 0.51316 0.67824 0.0
H2164 H 0.46454 0.67823 0.72109 0.0
H2165 H 0.50582 0.64044 0.71135 0.0
H2166 H 0.39764 0.676 0.73289 0.0
H2167 H 0.33683 0.67292 0.72721 0.0
C2168 C 0.15631 0.3343 0.07964 0.0
C2169 C 0.20755 0.32851 0.07964 0.0
C2170 C 0.21682 0.4156 0.08394 0.0
C2171 C 0.16613 0.42268 0.08139 0.0
N2172 N 0.08897 0.38806 0.07368 0.0
N2173 N 0.28626 0.36666 0.07694 0.0
C2174 C 0.13612 0.38178 0.07839 0.0
C2175 C 0.23781 0.36992 0.08044 0.0
N2176 N 0.12686 0.29482 0.08136 0.0
N2177 N 0.24521 0.45163 0.09009 0.0
H2178 H 0.30304 0.33476 0.07305 0.0
H2179 H 0.30847 0.39711 0.07594 0.0
H2180 H 0.23217 0.48586 0.09304 0.0
H2181 H 0.28105 0.44577 0.09368 0.0
H2182 H 0.08941 0.29768 0.08295 0.0
H2183 H 0.1403 0.25966 0.08292 0.0
H2184 H 0.06712 0.35947 0.06986 0.0
H2185 H 0.07322 0.42216 0.07196 0.0
C2186 C 0.40957 0.45856 0.8437 0.0
C2187 C 0.44505 0.44051 0.83287 0.0
C2188 C 0.38476 0.38504 0.82132 0.0
C2189 C 0.34779 0.40854 0.83038 0.0
N2190 N 0.32483 0.47096 0.84954 0.0
N2191 N 0.47079 0.36865 0.81858 0.0
C2192 C 0.36014 0.44608 0.84144 0.0
C2193 C 0.4341 0.39845 0.82368 0.0
N2194 N 0.42362 0.48356 0.85711 0.0
N2195 N 0.3726 0.35148 0.8099 0.0
H2196 H 0.50659 0.37316 0.82237 0.0
H2197 H 0.46503 0.3355 0.81287 0.0
H2198 H 0.33685 0.34106 0.80766 0.0
H2199 H 0.39737 0.33732 0.80164 0.0
H2200 H 0.39987 0.49398 0.86626 0.0
H2201 H 0.45993 0.48703 0.86038 0.0
H2202 H 0.33137 0.5026 0.85606 0.0
H2203 H 0.28827 0.46287 0.8486 0.0
C2204 C 0.34744 0.61948 0.56378 0.0
C2205 C 0.36163 0.59566 0.57817 0.0
C2206 C 0.33488 0.66622 0.59396 0.0
C2207 C 0.31622 0.68791 0.57975 0.0
N2208 N 0.29735 0.68164 0.55142 0.0
N2209 N 0.36328 0.59332 0.60726 0.0
C2210 C 0.32067 0.66367 0.5647 0.0
C2211 C 0.35404 0.61825 0.59335 0.0
N2212 N 0.3605 0.60029 0.54921 0.0
N2213 N 0.3359 0.69207 0.60798 0.0
H2214 H 0.3791 0.55895 0.60751 0.0
H2215 H 0.35215 0.60524 0.61858 0.0
H2216 H 0.32176 0.72696 0.6089 0.0
H2217 H 0.3543 0.68069 0.61827 0.0
H2218 H 0.35574 0.61844 0.53832 0.0
H2219 H 0.38023 0.56802 0.54812 0.0
H2220 H 0.29483 0.66286 0.54057 0.0
H2221 H 0.27651 0.71335 0.55161 0.0
C2222 C 0.09615 0.58222 0.31664 0.0
C2223 C 0.07562 0.5698 0.33179 0.0
C2224 C 0.14539 0.60581 0.34569 0.0
C2225 C 0.16497 0.61967 0.33054 0.0
N2226 N 0.15561 0.62974 0.30194 0.0
N2227 N 0.07707 0.5743 0.36076 0.0
C2228 C 0.13918 0.61055 0.31612 0.0
C2229 C 0.09928 0.58286 0.34633 0.0
N2230 N 0.07599 0.56467 0.30276 0.0
N2231 N 0.1717 0.6129 0.35944 0.0
H2232 H 0.04477 0.55517 0.36171 0.0
H2233 H 0.08893 0.58842 0.37169 0.0
H2234 H 0.20374 0.63276 0.35975 0.0
H2235 H 0.16316 0.59726 0.37049 0.0
H2236 H 0.09217 0.56789 0.29148 0.0
H2237 H 0.04503 0.54298 0.30259 0.0
H2238 H 0.13602 0.6288 0.29123 0.0
H2239 H 0.18709 0.65062 0.3012 0.0
C2240 C 0.52254 0.29125 0.06766 0.0
C2241 C 0.55521 0.28788 0.08092 0.0
C2242 C 0.49956 0.22885 0.09383 0.0
C2243 C 0.46517 0.23528 0.08119 0.0
N2244 N 0.44204 0.27657 0.05672 0.0
N2245 N 0.57136 0.25871 0.10773 0.0
C2246 C 0.47608 0.26792 0.06837 0.0
C2247 C 0.54285 0.25781 0.09426 0.0
N2248 N 0.53707 0.31448 0.05393 0.0
N2249 N 0.49089 0.1949 0.10548 0.0
H2250 H 0.60271 0.27968 0.10858 0.0
H2251 H 0.562 0.24208 0.11854 0.0
H2252 H 0.45866 0.17524 0.10616 0.0
H2253 H 0.51671 0.18395 0.1139 0.0
H2254 H 0.51771 0.31364 0.04317 0.0
H2255 H 0.57084 0.3311 0.05274 0.0
H2256 H 0.44478 0.30451 0.04833 0.0
H2257 H 0.40937 0.2577 0.05597 0.0
C2258 C 0.0086 0.28774 0.34465 0.0
C2259 C 0.98132 0.30328 0.33097 0.0
C2260 C 1.00189 0.22536 0.31753 0.0
C2261 C 0.03218 0.21158 0.33069 0.0
N2262 N 0.06897 0.23261 0.35602 0.0
N2263 N 0.95948 0.28987 0.30321 0.0
C2264 C 0.03701 0.24384 0.34398 0.0
C2265 C 0.97972 0.27268 0.31714 0.0
N2266 N 1.00548 0.31383 0.35862 0.0
N2267 N 0.99422 0.19313 0.30527 0.0
H2268 H 0.94362 0.32418 0.30227 0.0
H2269 H 0.96208 0.27204 0.29219 0.0
H2270 H 0.01226 0.15984 0.30443 0.0
H2271 H 0.96781 0.198 0.29645 0.0
H2272 H 0.02006 0.30223 0.36953 0.0
H2273 H 0.9843 0.34515 0.35972 0.0
H2274 H 0.07866 0.25676 0.3651 0.0
H2275 H 0.08863 0.20017 0.35631 0.0
C2276 C 0.03707 0.75246 0.59566 0.0
C2277 C 0.05183 0.78076 0.58216 0.0
C2278 C 0.97324 0.76236 0.56896 0.0
C2279 C 0.95997 0.73131 0.58195 0.0
N2280 N 0.98203 0.69216 0.60685 0.0
N2281 N 0.03734 0.80492 0.55467 0.0
C2282 C 0.9929 0.72486 0.59501 0.0
C2283 C 0.02061 0.78384 0.56851 0.0
N2284 N 0.06409 0.75382 0.60945 0.0
N2285 N 0.94055 0.7713 0.55692 0.0
H2286 H 0.07191 0.8199 0.55363 0.0
H2287 H 0.01896 0.80364 0.54373 0.0
H2288 H 0.90709 0.75389 0.5561 0.0
H2289 H 0.9452 0.79826 0.54827 0.0
H2290 H 0.05298 0.73856 0.62031 0.0
H2291 H 0.09597 0.7739 0.61048 0.0
H2292 H 1.00666 0.68117 0.61564 0.0
H2293 H 0.94918 0.67347 0.6073 0.0
C2294 C 0.47488 0.77002 0.81736 0.0
C2295 C 0.47702 0.80163 0.83093 0.0
C2296 C 0.53335 0.74343 0.84416 0.0
C2297 C 0.52838 0.71032 0.83109 0.0
N2298 N 0.48961 0.68989 0.80597 0.0
N2299 N 0.50216 0.81438 0.85837 0.0
C2300 C 0.49741 0.72292 0.81798 0.0
C2301 C 0.50483 0.78725 0.84461 0.0
N2302 N 0.45381 0.78614 0.80342 0.0
N2303 N 0.56559 0.73311 0.85621 0.0
H2304 H 0.48117 0.84588 0.85927 0.0
H2305 H 0.51707 0.80359 0.86932 0.0
H2306 H 0.58482 0.70045 0.85685 0.0
H2307 H 0.57564 0.758 0.86502 0.0
H2308 H 0.45586 0.76756 0.79253 0.0
H2309 H 0.43784 0.82036 0.80229 0.0
H2310 H 0.46287 0.69398 0.79722 0.0
H2311 H 0.5078 0.65666 0.80529 0.0
C2312 C 0.5367 0.76206 0.43909 0.0
C2313 C 0.5515 0.73304 0.45246 0.0
C2314 C 0.4732 0.75227 0.46584 0.0
C2315 C 0.46015 0.78425 0.45304 0.0
N2316 N 0.48246 0.82418 0.42834 0.0
N2317 N 0.53698 0.70801 0.47987 0.0
C2318 C 0.49298 0.79063 0.43997 0.0
C2319 C 0.52038 0.72991 0.46614 0.0
N2320 N 0.56325 0.76045 0.42518 0.0
N2321 N 0.44046 0.74323 0.47785 0.0
H2322 H 0.57129 0.69215 0.48078 0.0
H2323 H 0.5187 0.70932 0.49084 0.0
H2324 H 0.40723 0.7613 0.47882 0.0
H2325 H 0.44486 0.71567 0.48632 0.0
H2326 H 0.55209 0.77639 0.41443 0.0
H2327 H 0.59451 0.73928 0.42392 0.0
H2328 H 0.50712 0.83496 0.41955 0.0
H2329 H 0.45006 0.84393 0.42813 0.0
C2330 C 0.51243 0.22587 0.68836 0.0
C2331 C 0.48408 0.21114 0.70184 0.0
C2332 C 0.50174 0.28999 0.71498 0.0
C2333 C 0.53274 0.30336 0.70199 0.0
N2334 N 0.57209 0.28143 0.67709 0.0
N2335 N 0.45932 0.22577 0.72927 0.0
C2336 C 0.53953 0.27034 0.68896 0.0
C2337 C 0.48058 0.24248 0.71545 0.0
N2338 N 0.51158 0.19849 0.67463 0.0
N2339 N 0.49255 0.32269 0.72701 0.0
H2340 H 0.44451 0.19111 0.73029 0.0
H2341 H 0.46027 0.24424 0.7402 0.0
H2342 H 0.50975 0.35627 0.72781 0.0
H2343 H 0.46561 0.31795 0.73566 0.0
H2344 H 0.52681 0.20951 0.66376 0.0
H2345 H 0.49208 0.16623 0.67368 0.0
H2346 H 0.58341 0.25681 0.66834 0.0
H2347 H 0.59024 0.31457 0.67654 0.0
C2348 C 0.98813 0.27882 0.96707 0.0
C2349 C 0.95718 0.27583 0.95337 0.0
C2350 C 0.01535 0.2176 0.94101 0.0
C2351 C 0.04848 0.22472 0.95395 0.0
N2352 N 0.06784 0.2652 0.97886 0.0
N2353 N 0.94411 0.24635 0.92641 0.0
C2354 C 0.0352 0.25633 0.96682 0.0
C2355 C 0.97137 0.24586 0.94016 0.0
N2356 N 0.97151 0.30117 0.98072 0.0
N2357 N 0.02595 0.18377 0.92948 0.0
H2358 H 0.9123 0.26675 0.92525 0.0
H2359 H 0.95481 0.22984 0.9157 0.0
H2360 H 0.05835 0.16402 0.92936 0.0
H2361 H 1.00138 0.17266 0.92072 0.0
H2362 H 0.98967 0.30011 0.99171 0.0
H2363 H 0.93719 0.31709 0.98156 0.0
H2364 H 0.06341 0.2926 0.98738 0.0
H2365 H 0.10095 0.2469 0.97985 0.0
C2366 C 0.01556 0.7275 0.18749 0.0
C2367 C 0.98797 0.71266 0.20113 0.0
C2368 C 1.00667 0.79127 0.21427 0.0
C2369 C 0.03715 0.80459 0.20115 0.0
N2370 N 0.07492 0.78289 0.17596 0.0
N2371 N 0.96468 0.72712 0.22871 0.0
C2372 C 0.04297 0.77179 0.188 0.0
C2373 C 0.98528 0.74388 0.2148 0.0
N2374 N 0.01372 0.7004 0.17371 0.0
N2375 N 0.99822 0.82391 0.22638 0.0
H2376 H 0.94973 0.69255 0.22979 0.0
H2377 H 0.9663 0.74547 0.23966 0.0
H2378 H 0.01557 0.85742 0.22712 0.0
H2379 H 0.97165 0.81921 0.23516 0.0
H2380 H 0.02837 0.71153 0.16277 0.0
H2381 H 0.9939 0.6683 0.17283 0.0
H2382 H 0.08557 0.75836 0.16708 0.0
H2383 H 0.09322 0.81594 0.17536 0.0
C2384 C 0.49357 0.72452 0.94108 0.0
C2385 C 0.46132 0.72948 0.95443 0.0
C2386 C 0.52193 0.7824 0.96777 0.0
C2387 C 0.55257 0.78039 0.95393 0.0
N2388 N 0.56372 0.75519 0.92641 0.0
N2389 N 0.44282 0.76774 0.97984 0.0
C2390 C 0.5374 0.7527 0.94035 0.0
C2391 C 0.47488 0.76009 0.96751 0.0
N2392 N 0.48233 0.69273 0.92902 0.0
N2393 N 0.53901 0.8032 0.9816 0.0
H2394 H 0.40982 0.74955 0.98083 0.0
H2395 H 0.44745 0.79437 0.9886 0.0
H2396 H 0.5733 0.81887 0.98247 0.0
H2397 H 0.52127 0.80112 0.99265 0.0
H2398 H 0.50661 0.68256 0.92 0.0
H2399 H 0.44947 0.67409 0.9285 0.0
H2400 H 0.55228 0.74051 0.91552 0.0
H2401 H 0.59535 0.77566 0.92535 0.0
C2402 C 0.99712 0.72284 0.71708 0.0
C2403 C 0.02755 0.71033 0.7038 0.0
C2404 C 1.0029 0.78715 0.6904 0.0
C2405 C 0.97584 0.80157 0.70425 0.0
N2406 N 0.95392 0.78591 0.73187 0.0
N2407 N 0.06316 0.73317 0.67841 0.0
C2408 C 0.97442 0.76989 0.71782 0.0
C2409 C 0.03161 0.74342 0.69068 0.0
N2410 N 0.99006 0.6898 0.72914 0.0
N2411 N 0.99931 0.81414 0.67663 0.0
H2412 H 0.08234 0.70051 0.67762 0.0
H2413 H 0.07267 0.75809 0.66954 0.0
H2414 H 0.97809 0.84551 0.67583 0.0
H2415 H 0.01361 0.80332 0.66558 0.0
H2416 H 0.96371 0.69378 0.73804 0.0
H2417 H 0.00841 0.65665 0.72972 0.0
H2418 H 0.95651 0.76731 0.74275 0.0
H2419 H 0.93787 0.82007 0.73309 0.0
C2420 C 0.97726 0.25946 0.46634 0.0
C2421 C 0.96383 0.22915 0.45319 0.0
C2422 C 0.0411 0.25024 0.43956 0.0
C2423 C 0.0557 0.27822 0.45312 0.0
N2424 N 0.04137 0.30181 0.48067 0.0
N2425 N 0.98561 0.19091 0.42808 0.0
C2426 C 0.02459 0.28092 0.46681 0.0
C2427 C 0.99673 0.22297 0.44008 0.0
N2428 N 0.94474 0.26776 0.47849 0.0
N2429 N 0.06849 0.25161 0.42583 0.0
H2430 H 0.95255 0.17264 0.42751 0.0
H2431 H 0.01014 0.18008 0.41923 0.0
H2432 H 0.10077 0.27113 0.42496 0.0
H2433 H 0.05755 0.23672 0.4149 0.0
H2434 H 0.94942 0.2943 0.48728 0.0
H2435 H 0.9114 0.25012 0.47933 0.0
H2436 H 0.02311 0.30032 0.49164 0.0
H2437 H 0.0759 0.31691 0.48167 0.0
C2438 C 0.54976 0.25313 0.19218 0.0
C2439 C 0.54327 0.21988 0.20512 0.0
C2440 C 0.48929 0.27982 0.21849 0.0
C2441 C 0.49167 0.31088 0.2048 0.0
N2442 N 0.52011 0.32432 0.17773 0.0
N2443 N 0.50373 0.2001 0.23018 0.0
C2444 C 0.52123 0.29694 0.19146 0.0
C2445 C 0.512 0.23287 0.21812 0.0
N2446 N 0.58324 0.24279 0.1805 0.0
N2447 N 0.46739 0.29623 0.23226 0.0
H2448 H 0.52228 0.16711 0.23111 0.0
H2449 H 0.47656 0.2043 0.2388 0.0
H2450 H 0.45137 0.33049 0.23319 0.0
H2451 H 0.46894 0.27799 0.24322 0.0
H2452 H 0.59393 0.26749 0.17171 0.0
H2453 H 0.60315 0.21049 0.18028 0.0
H2454 H 0.53634 0.31381 0.16695 0.0
H2455 H 0.49948 0.356 0.17667 0.0
C2456 C 0.53739 0.25948 0.56845 0.0
C2457 C 0.55066 0.228 0.58135 0.0
C2458 C 0.47311 0.24877 0.59499 0.0
C2459 C 0.45866 0.27807 0.58166 0.0
N2460 N 0.4734 0.30295 0.55426 0.0
N2461 N 0.52802 0.18742 0.6059 0.0
C2462 C 0.48999 0.28128 0.56803 0.0
C2463 C 0.51737 0.2209 0.59426 0.0
N2464 N 0.57022 0.26868 0.55647 0.0
N2465 N 0.44579 0.24951 0.60874 0.0
H2466 H 0.56072 0.16819 0.60621 0.0
H2467 H 0.50327 0.17616 0.6146 0.0
H2468 H 0.41387 0.26976 0.60983 0.0
H2469 H 0.45664 0.23349 0.61951 0.0
H2470 H 0.56565 0.29601 0.54793 0.0
H2471 H 0.60364 0.25091 0.55558 0.0
H2472 H 0.49191 0.30188 0.54333 0.0
H2473 H 0.4388 0.31815 0.55326 0.0
C2474 C 0.49912 0.7934 0.32008 0.0
C2475 C 0.53048 0.80607 0.33305 0.0
C2476 C 0.50932 0.72845 0.34649 0.0
C2477 C 0.48071 0.71432 0.333 0.0
N2478 N 0.4558 0.73006 0.30567 0.0
N2479 N 0.56968 0.78304 0.35785 0.0
C2480 C 0.47738 0.74613 0.3195 0.0
C2481 C 0.53695 0.77262 0.34598 0.0
N2482 N 0.4902 0.82651 0.30816 0.0
N2483 N 0.50822 0.70077 0.36015 0.0
H2484 H 0.58815 0.81597 0.35849 0.0
H2485 H 0.5808 0.75804 0.36652 0.0
H2486 H 0.4882 0.66881 0.36106 0.0
H2487 H 0.52368 0.71133 0.37103 0.0
H2488 H 0.46301 0.82236 0.29956 0.0
H2489 H 0.50792 0.85981 0.30736 0.0
H2490 H 0.45686 0.74885 0.2948 0.0
H2491 H 0.44056 0.69563 0.30455 0.0
C2492 C 0.02621 0.73761 0.09668 0.0
C2493 C 0.05842 0.74111 0.0833 0.0
C2494 C 0.99735 0.79194 0.06916 0.0
C2495 C 0.96635 0.79078 0.0829 0.0
N2496 N 0.95538 0.76946 0.11079 0.0
N2497 N 0.07716 0.77693 0.05754 0.0
C2498 C 0.98193 0.76533 0.09693 0.0
C2499 C 0.04481 0.77023 0.06984 0.0
N2500 N 0.03783 0.70748 0.10919 0.0
N2501 N 0.98033 0.8112 0.05506 0.0
H2502 H 0.11068 0.75928 0.05697 0.0
H2503 H 0.07225 0.8024 0.04842 0.0
H2504 H 0.9459 0.82669 0.05392 0.0
H2505 H 0.99844 0.80822 0.04409 0.0
H2506 H 0.01362 0.69827 0.11832 0.0
H2507 H 0.07101 0.68924 0.11001 0.0
H2508 H 0.96695 0.75637 0.1219 0.0
H2509 H 0.92351 0.78994 0.11153 0.0
C2510 C 0.9983 0.2961 0.82009 0.0
C2511 C 0.02972 0.30884 0.83304 0.0
C2512 C 1.00742 0.232 0.84677 0.0
C2513 C 0.97894 0.21765 0.83328 0.0
N2514 N 0.9542 0.23281 0.8059 0.0
N2515 N 0.06815 0.28634 0.85803 0.0
C2516 C 0.97598 0.24907 0.81967 0.0
C2517 C 0.03554 0.27584 0.84613 0.0
N2518 N 0.9899 0.32891 0.80804 0.0
N2519 N 1.00579 0.20486 0.86054 0.0
H2520 H 0.08689 0.31914 0.85861 0.0
H2521 H 0.07888 0.26152 0.8668 0.0
H2522 H 0.98539 0.17316 0.86155 0.0
H2523 H 0.02114 0.21567 0.87141 0.0
H2524 H 0.96282 0.32478 0.79941 0.0
H2525 H 1.00796 0.36202 0.80718 0.0
H2526 H 0.9555 0.25123 0.79496 0.0
H2527 H 0.93842 0.19858 0.80492 0.0
loop_
_geom_bond_atom_site_label_1
_geom_bond_atom_site_label_2
_geom_bond_distance
_geom_bond_site_symmetry_2
_ccdc_geom_bond_type
Co0 O3 1.970 . S
Co0 N17 1.989 . S
Co0 O25 1.967 . S
Co0 O32 1.920 . S
Co1 O4 1.966 . S
Co1 N10 2.022 . S
Co1 N18 1.993 . S
Co1 O26 1.941 . S
C2 O3 1.258 . S
C2 O4 1.263 . S
O3 Co0 1.970 . S
O3 C2 1.258 . S
O4 Co1 1.966 . S
O4 C2 1.263 . S
C5 O6 1.235 . S
C5 O32 1.289 . S
O6 C5 1.235 . S
C7 C9 1.400 1_545 S
C7 N10 1.351 . S
C7 C12 1.501 . S
C8 C9 1.387 . S
C8 N11 1.341 1_565 S
C9 C7 1.400 1_565 S
C9 C8 1.387 . S
N10 Co1 2.022 . S
N10 C7 1.351 . S
N10 N11 1.365 . S
N11 C8 1.341 1_545 S
N11 N10 1.365 . S
N11 H31 0.862 . S
C12 C7 1.501 . S
C12 H13 0.961 . S
C12 H14 0.961 . S
C12 H15 0.960 . S
H13 C12 0.961 . S
H14 C12 0.961 . S
H15 C12 0.960 . S
C16 N17 1.342 . S
C16 C20 1.401 . S
C16 C21 1.499 . S
N17 Co0 1.989 . S
N17 C16 1.342 . S
N17 N18 1.388 . S
N18 Co1 1.993 . S
N18 N17 1.388 . S
N18 C19 1.346 . S
C19 N18 1.346 . S
C19 C20 1.396 . S
C19 C29 1.510 . S
C20 C16 1.401 . S
C20 C19 1.396 . S
C21 C16 1.499 . S
C21 H22 0.959 . S
C21 H23 0.960 . S
C21 H24 0.961 . S
H22 C21 0.959 . S
H23 C21 0.960 . S
H24 C21 0.961 . S
O25 Co0 1.967 . S
O25 C33 1.258 . S
O26 Co1 1.941 . S
O26 C33 1.266 . S
H27 C29 0.959 . S
H28 C29 0.961 . S
C29 C19 1.510 . S
C29 H27 0.959 . S
C29 H28 0.961 . S
C29 H30 0.960 . S
H30 C29 0.960 . S
H31 N11 0.862 . S
O32 Co0 1.920 . S
O32 C5 1.289 . S
C33 O25 1.258 . S
C33 O26 1.266 . S
Co34 O37 1.970 . S
Co34 N51 1.989 1_545 S
Co34 O59 1.967 . S
Co34 O66 1.920 1_455 S
Co35 O38 1.966 . S
Co35 N44 2.022 . S
Co35 N52 1.993 . S
Co35 O60 1.941 . S
C36 O37 1.258 . S
C36 O38 1.263 . S
O37 Co34 1.970 . S
O37 C36 1.258 . S
O38 Co35 1.966 . S
O38 C36 1.263 . S
C39 O40 1.235 . S
C39 O66 1.289 1_565 S
O40 C39 1.235 . S
C41 C43 1.400 . S
C41 N44 1.351 . S
C41 C46 1.501 . S
C42 C43 1.387 . S
C42 N45 1.341 . S
C43 C41 1.400 . S
C43 C42 1.387 . S
N44 Co35 2.022 . S
N44 C41 1.351 . S
N44 N45 1.365 . S
N45 C42 1.341 . S
N45 N44 1.365 . S
N45 H65 0.862 . S
C46 C41 1.501 . S
C46 H47 0.961 . S
C46 H48 0.961 1_545 S
C46 H49 0.960 . S
H47 C46 0.961 . S
H48 C46 0.961 1_565 S
H49 C46 0.960 . S
C50 N51 1.342 . S
C50 C54 1.401 . S
C50 C55 1.499 1_455 S
N51 Co34 1.989 1_565 S
N51 C50 1.342 . S
N51 N52 1.388 1_565 S
N52 Co35 1.993 . S
N52 N51 1.388 1_545 S
N52 C53 1.346 1_545 S
C53 N52 1.346 1_565 S
C53 C54 1.396 . S
C53 C63 1.510 . S
C54 C50 1.401 . S
C54 C53 1.396 . S
C55 C50 1.499 1_655 S
C55 H56 0.959 . S
C55 H57 0.960 . S
C55 H58 0.961 . S
H56 C55 0.959 . S
H57 C55 0.960 . S
H58 C55 0.961 . S
O59 Co34 1.967 . S
O59 C67 1.258 . S
O60 Co35 1.941 . S
O60 C67 1.266 . S
H61 C63 0.959 . S
H62 C63 0.961 . S
C63 C53 1.510 . S
C63 H61 0.959 . S
C63 H62 0.961 . S
C63 H64 0.960 . S
H64 C63 0.960 . S
H65 N45 0.862 . S
O66 Co34 1.920 1_655 S
O66 C39 1.289 1_545 S
C67 O59 1.258 . S
C67 O60 1.266 . S
Co68 O71 1.970 . S
Co68 N85 1.989 . S
Co68 O93 1.967 . S
Co68 O100 1.920 . S
Co69 O72 1.966 . S
Co69 N78 2.022 . S
Co69 N86 1.993 . S
Co69 O94 1.941 . S
C70 O71 1.258 . S
C70 O72 1.263 . S
O71 Co68 1.970 . S
O71 C70 1.258 . S
O72 Co69 1.966 . S
O72 C70 1.263 . S
C73 O74 1.235 . S
C73 O100 1.289 . S
O74 C73 1.235 . S
C75 C77 1.400 1_565 S
C75 N78 1.351 . S
C75 C80 1.501 . S
C76 C77 1.387 . S
C76 N79 1.341 1_545 S
C77 C75 1.400 1_545 S
C77 C76 1.387 . S
N78 Co69 2.022 . S
N78 C75 1.351 . S
N78 N79 1.365 . S
N79 C76 1.341 1_565 S
N79 N78 1.365 . S
N79 H99 0.862 . S
C80 C75 1.501 . S
C80 H81 0.961 . S
C80 H82 0.961 . S
C80 H83 0.960 . S
H81 C80 0.961 . S
H82 C80 0.961 . S
H83 C80 0.960 . S
C84 N85 1.342 . S
C84 C88 1.401 . S
C84 C89 1.499 . S
N85 Co68 1.989 . S
N85 C84 1.342 . S
N85 N86 1.388 . S
N86 Co69 1.993 . S
N86 N85 1.388 . S
N86 C87 1.346 . S
C87 N86 1.346 . S
C87 C88 1.396 . S
C87 C97 1.510 . S
C88 C84 1.401 . S
C88 C87 1.396 . S
C89 C84 1.499 . S
C89 H90 0.959 . S
C89 H91 0.960 . S
C89 H92 0.961 . S
H90 C89 0.959 . S
H91 C89 0.960 . S
H92 C89 0.961 . S
O93 Co68 1.967 . S
O93 C101 1.258 . S
O94 Co69 1.941 . S
O94 C101 1.266 . S
H95 C97 0.959 . S
H96 C97 0.961 . S
C97 C87 1.510 . S
C97 H95 0.959 . S
C97 H96 0.961 . S
C97 H98 0.960 . S
H98 C97 0.960 . S
H99 N79 0.862 . S
O100 Co68 1.920 . S
O100 C73 1.289 . S
C101 O93 1.258 . S
C101 O94 1.266 . S
Co102 O105 1.970 . S
Co102 N119 1.989 1_565 S
Co102 O127 1.967 . S
Co102 O134 1.920 . S
Co103 O106 1.966 . S
Co103 N112 2.022 . S
Co103 N120 1.993 . S
Co103 O128 1.941 . S
C104 O105 1.258 . S
C104 O106 1.263 . S
O105 Co102 1.970 . S
O105 C104 1.258 . S
O106 Co103 1.966 . S
O106 C104 1.263 . S
C107 O108 1.235 . S
C107 O134 1.289 1_545 S
O108 C107 1.235 . S
C109 C111 1.400 . S
C109 N112 1.351 . S
C109 C114 1.501 . S
C110 C111 1.387 . S
C110 N113 1.341 . S
C111 C109 1.400 . S
C111 C110 1.387 . S
N112 Co103 2.022 . S
N112 C109 1.351 . S
N112 N113 1.365 . S
N113 C110 1.341 . S
N113 N112 1.365 . S
N113 H133 0.862 . S
C114 C109 1.501 . S
C114 H115 0.961 . S
C114 H116 0.961 1_565 S
C114 H117 0.960 . S
H115 C114 0.961 . S
H116 C114 0.961 1_545 S
H117 C114 0.960 . S
C118 N119 1.342 . S
C118 C122 1.401 . S
C118 C123 1.499 . S
N119 Co102 1.989 1_545 S
N119 C118 1.342 . S
N119 N120 1.388 1_545 S
N120 Co103 1.993 . S
N120 N119 1.388 1_565 S
N120 C121 1.346 1_565 S
C121 N120 1.346 1_545 S
C121 C122 1.396 . S
C121 C131 1.510 . S
C122 C118 1.401 . S
C122 C121 1.396 . S
C123 C118 1.499 . S
C123 H124 0.959 . S
C123 H125 0.960 . S
C123 H126 0.961 . S
H124 C123 0.959 . S
H125 C123 0.960 . S
H126 C123 0.961 . S
O127 Co102 1.967 . S
O127 C135 1.258 . S
O128 Co103 1.941 . S
O128 C135 1.266 . S
H129 C131 0.959 . S
H130 C131 0.961 . S
C131 C121 1.510 . S
C131 H129 0.959 . S
C131 H130 0.961 . S
C131 H132 0.960 . S
H132 C131 0.960 . S
H133 N113 0.862 . S
O134 Co102 1.920 . S
O134 C107 1.289 1_565 S
C135 O127 1.258 . S
C135 O128 1.266 . S
Co136 O139 1.970 . S
Co136 N153 1.989 . S
Co136 O161 1.967 . S
Co136 O168 1.920 . S
Co137 O140 1.966 . S
Co137 N146 2.022 . S
Co137 N154 1.993 . S
Co137 O162 1.941 . S
C138 O139 1.258 . S
C138 O140 1.263 . S
O139 Co136 1.970 . S
O139 C138 1.258 . S
O140 Co137 1.966 . S
O140 C138 1.263 . S
C141 O142 1.235 . S
C141 O168 1.289 . S
O142 C141 1.235 . S
C143 C145 1.400 1_565 S
C143 N146 1.351 . S
C143 C148 1.501 . S
C144 C145 1.387 . S
C144 N147 1.341 1_545 S
C145 C143 1.400 1_545 S
C145 C144 1.387 . S
N146 Co137 2.022 . S
N146 C143 1.351 . S
N146 N147 1.365 . S
N147 C144 1.341 1_565 S
N147 N146 1.365 . S
N147 H167 0.862 . S
C148 C143 1.501 . S
C148 H149 0.961 . S
C148 H150 0.961 . S
C148 H151 0.960 . S
H149 C148 0.961 . S
H150 C148 0.961 . S
H151 C148 0.960 . S
C152 N153 1.342 . S
C152 C156 1.401 . S
C152 C157 1.499 . S
N153 Co136 1.989 . S
N153 C152 1.342 . S
N153 N154 1.388 . S
N154 Co137 1.993 . S
N154 N153 1.388 . S
N154 C155 1.346 . S
C155 N154 1.346 . S
C155 C156 1.396 . S
C155 C165 1.510 . S
C156 C152 1.401 . S
C156 C155 1.396 . S
C157 C152 1.499 . S
C157 H158 0.959 . S
C157 H159 0.960 . S
C157 H160 0.961 . S
H158 C157 0.959 . S
H159 C157 0.960 . S
H160 C157 0.961 . S
O161 Co136 1.967 . S
O161 C169 1.258 . S
O162 Co137 1.941 . S
O162 C169 1.266 . S
H163 C165 0.959 . S
H164 C165 0.961 . S
C165 C155 1.510 . S
C165 H163 0.959 . S
C165 H164 0.961 . S
C165 H166 0.960 . S
H166 C165 0.960 . S
H167 N147 0.862 . S
O168 Co136 1.920 . S
O168 C141 1.289 . S
C169 O161 1.258 . S
C169 O162 1.266 . S
Co170 O173 1.970 . S
Co170 N187 1.989 1_545 S
Co170 O195 1.967 . S
Co170 O202 1.920 . S
Co171 O174 1.966 . S
Co171 N180 2.022 . S
Co171 N188 1.993 . S
Co171 O196 1.941 . S
C172 O173 1.258 . S
C172 O174 1.263 . S
O173 Co170 1.970 . S
O173 C172 1.258 . S
O174 Co171 1.966 . S
O174 C172 1.263 . S
C175 O176 1.235 . S
C175 O202 1.289 1_565 S
O176 C175 1.235 . S
C177 C179 1.400 . S
C177 N180 1.351 . S
C177 C182 1.501 . S
C178 C179 1.387 . S
C178 N181 1.341 . S
C179 C177 1.400 . S
C179 C178 1.387 . S
N180 Co171 2.022 . S
N180 C177 1.351 . S
N180 N181 1.365 . S
N181 C178 1.341 . S
N181 N180 1.365 . S
N181 H201 0.862 . S
C182 C177 1.501 . S
C182 H183 0.961 . S
C182 H184 0.961 1_545 S
C182 H185 0.960 . S
H183 C182 0.961 . S
H184 C182 0.961 1_565 S
H185 C182 0.960 . S
C186 N187 1.342 . S
C186 C190 1.401 . S
C186 C191 1.499 . S
N187 Co170 1.989 1_565 S
N187 C186 1.342 . S
N187 N188 1.388 1_565 S
N188 Co171 1.993 . S
N188 N187 1.388 1_545 S
N188 C189 1.346 1_545 S
C189 N188 1.346 1_565 S
C189 C190 1.396 . S
C189 C199 1.510 . S
C190 C186 1.401 . S
C190 C189 1.396 . S
C191 C186 1.499 . S
C191 H192 0.959 . S
C191 H193 0.960 . S
C191 H194 0.961 . S
H192 C191 0.959 . S
H193 C191 0.960 . S
H194 C191 0.961 . S
O195 Co170 1.967 . S
O195 C203 1.258 . S
O196 Co171 1.941 . S
O196 C203 1.266 . S
H197 C199 0.959 . S
H198 C199 0.961 . S
C199 C189 1.510 . S
C199 H197 0.959 . S
C199 H198 0.961 . S
C199 H200 0.960 . S
H200 C199 0.960 . S
H201 N181 0.862 . S
O202 Co170 1.920 . S
O202 C175 1.289 1_545 S
C203 O195 1.258 . S
C203 O196 1.266 . S
Co204 O207 1.970 . S
Co204 N221 1.989 . S
Co204 O229 1.967 . S
Co204 O236 1.920 . S
Co205 O208 1.966 . S
Co205 N214 2.022 . S
Co205 N222 1.993 . S
Co205 O230 1.941 . S
C206 O207 1.258 . S
C206 O208 1.263 . S
O207 Co204 1.970 . S
O207 C206 1.258 . S
O208 Co205 1.966 . S
O208 C206 1.263 . S
C209 O210 1.235 . S
C209 O236 1.289 . S
O210 C209 1.235 . S
C211 C213 1.400 1_545 S
C211 N214 1.351 . S
C211 C216 1.501 . S
C212 C213 1.387 . S
C212 N215 1.341 1_565 S
C213 C211 1.400 1_565 S
C213 C212 1.387 . S
N214 Co205 2.022 . S
N214 C211 1.351 . S
N214 N215 1.365 . S
N215 C212 1.341 1_545 S
N215 N214 1.365 . S
N215 H235 0.862 . S
C216 C211 1.501 . S
C216 H217 0.961 . S
C216 H218 0.961 . S
C216 H219 0.960 . S
H217 C216 0.961 . S
H218 C216 0.961 . S
H219 C216 0.960 . S
C220 N221 1.342 . S
C220 C224 1.401 . S
C220 C225 1.499 . S
N221 Co204 1.989 . S
N221 C220 1.342 . S
N221 N222 1.388 . S
N222 Co205 1.993 . S
N222 N221 1.388 . S
N222 C223 1.346 . S
C223 N222 1.346 . S
C223 C224 1.396 . S
C223 C233 1.510 . S
C224 C220 1.401 . S
C224 C223 1.396 . S
C225 C220 1.499 . S
C225 H226 0.959 . S
C225 H227 0.960 . S
C225 H228 0.961 . S
H226 C225 0.959 . S
H227 C225 0.960 . S
H228 C225 0.961 . S
O229 Co204 1.967 . S
O229 C237 1.258 . S
O230 Co205 1.941 . S
O230 C237 1.266 . S
H231 C233 0.959 . S
H232 C233 0.961 . S
C233 C223 1.510 . S
C233 H231 0.959 . S
C233 H232 0.961 . S
C233 H234 0.960 . S
H234 C233 0.960 . S
H235 N215 0.862 . S
O236 Co204 1.920 . S
O236 C209 1.289 . S
C237 O229 1.258 . S
C237 O230 1.266 . S
Co238 O241 1.970 . S
Co238 N255 1.989 1_565 S
Co238 O263 1.967 . S
Co238 O270 1.920 1_455 S
Co239 O242 1.966 . S
Co239 N248 2.022 . S
Co239 N256 1.993 . S
Co239 O264 1.941 . S
C240 O241 1.258 . S
C240 O242 1.263 . S
O241 Co238 1.970 . S
O241 C240 1.258 . S
O242 Co239 1.966 . S
O242 C240 1.263 . S
C243 O244 1.235 . S
C243 O270 1.289 1_545 S
O244 C243 1.235 . S
C245 C247 1.400 . S
C245 N248 1.351 . S
C245 C250 1.501 . S
C246 C247 1.387 . S
C246 N249 1.341 . S
C247 C245 1.400 . S
C247 C246 1.387 . S
N248 Co239 2.022 . S
N248 C245 1.351 . S
N248 N249 1.365 . S
N249 C246 1.341 . S
N249 N248 1.365 . S
N249 H269 0.862 . S
C250 C245 1.501 . S
C250 H251 0.961 . S
C250 H252 0.961 1_565 S
C250 H253 0.960 . S
H251 C250 0.961 . S
H252 C250 0.961 1_545 S
H253 C250 0.960 . S
C254 N255 1.342 . S
C254 C258 1.401 . S
C254 C259 1.499 1_455 S
N255 Co238 1.989 1_545 S
N255 C254 1.342 . S
N255 N256 1.388 1_545 S
N256 Co239 1.993 . S
N256 N255 1.388 1_565 S
N256 C257 1.346 1_565 S
C257 N256 1.346 1_545 S
C257 C258 1.396 . S
C257 C267 1.510 . S
C258 C254 1.401 . S
C258 C257 1.396 . S
C259 C254 1.499 1_655 S
C259 H260 0.959 . S
C259 H261 0.960 . S
C259 H262 0.961 . S
H260 C259 0.959 . S
H261 C259 0.960 . S
H262 C259 0.961 . S
O263 Co238 1.967 . S
O263 C271 1.258 . S
O264 Co239 1.941 . S
O264 C271 1.266 . S
H265 C267 0.959 . S
H266 C267 0.961 . S
C267 C257 1.510 . S
C267 H265 0.959 . S
C267 H266 0.961 . S
C267 H268 0.960 . S
H268 C267 0.960 . S
H269 N249 0.862 . S
O270 Co238 1.920 1_655 S
O270 C243 1.289 1_565 S
C271 O263 1.258 . S
C271 O264 1.266 . S
Co272 O275 1.970 . S
Co272 N289 1.989 . S
Co272 O297 1.967 . S
Co272 O304 1.920 . S
Co273 O276 1.966 . S
Co273 N282 2.022 . S
Co273 N290 1.993 . S
Co273 O298 1.941 . S
C274 O275 1.258 . S
C274 O276 1.263 . S
O275 Co272 1.970 . S
O275 C274 1.258 . S
O276 Co273 1.966 . S
O276 C274 1.263 . S
C277 O278 1.235 . S
C277 O304 1.289 . S
O278 C277 1.235 . S
C279 C281 1.400 1_565 S
C279 N282 1.351 . S
C279 C284 1.501 . S
C280 C281 1.387 . S
C280 N283 1.341 1_545 S
C281 C279 1.400 1_545 S
C281 C280 1.387 . S
N282 Co273 2.022 . S
N282 C279 1.351 . S
N282 N283 1.365 . S
N283 C280 1.341 1_565 S
N283 N282 1.365 . S
N283 H303 0.862 . S
C284 C279 1.501 . S
C284 H285 0.961 . S
C284 H286 0.961 . S
C284 H287 0.960 . S
H285 C284 0.961 . S
H286 C284 0.961 . S
H287 C284 0.960 . S
C288 N289 1.342 . S
C288 C292 1.401 . S
C288 C293 1.499 . S
N289 Co272 1.989 . S
N289 C288 1.342 . S
N289 N290 1.388 . S
N290 Co273 1.993 . S
N290 N289 1.388 . S
N290 C291 1.346 . S
C291 N290 1.346 . S
C291 C292 1.396 . S
C291 C301 1.510 . S
C292 C288 1.401 . S
C292 C291 1.396 . S
C293 C288 1.499 . S
C293 H294 0.959 . S
C293 H295 0.960 . S
C293 H296 0.961 . S
H294 C293 0.959 . S
H295 C293 0.960 . S
H296 C293 0.961 . S
O297 Co272 1.967 . S
O297 C305 1.258 . S
O298 Co273 1.941 . S
O298 C305 1.266 . S
H299 C301 0.959 . S
H300 C301 0.961 . S
C301 C291 1.510 . S
C301 H299 0.959 . S
C301 H300 0.961 . S
C301 H302 0.960 . S
H302 C301 0.960 . S
H303 N283 0.862 . S
O304 Co272 1.920 . S
O304 C277 1.289 . S
C305 O297 1.258 . S
C305 O298 1.266 . S
Co306 O309 1.970 . S
Co306 N323 1.989 1_565 S
Co306 O331 1.967 . S
Co306 O338 1.920 1_655 S
Co307 O310 1.966 . S
Co307 N316 2.022 . S
Co307 N324 1.993 . S
Co307 O332 1.941 . S
C308 O309 1.258 . S
C308 O310 1.263 . S
O309 Co306 1.970 . S
O309 C308 1.258 . S
O310 Co307 1.966 . S
O310 C308 1.263 . S
C311 O312 1.235 . S
C311 O338 1.289 1_545 S
O312 C311 1.235 . S
C313 C315 1.400 . S
C313 N316 1.351 . S
C313 C318 1.501 . S
C314 C315 1.387 . S
C314 N317 1.341 . S
C315 C313 1.400 . S
C315 C314 1.387 . S
N316 Co307 2.022 . S
N316 C313 1.351 . S
N316 N317 1.365 . S
N317 C314 1.341 . S
N317 N316 1.365 . S
N317 H337 0.862 . S
C318 C313 1.501 . S
C318 H319 0.961 . S
C318 H320 0.961 1_565 S
C318 H321 0.960 . S
H319 C318 0.961 . S
H320 C318 0.961 1_545 S
H321 C318 0.960 . S
C322 N323 1.342 . S
C322 C326 1.401 . S
C322 C327 1.499 1_655 S
N323 Co306 1.989 1_545 S
N323 C322 1.342 . S
N323 N324 1.388 1_545 S
N324 Co307 1.993 . S
N324 N323 1.388 1_565 S
N324 C325 1.346 1_565 S
C325 N324 1.346 1_545 S
C325 C326 1.396 . S
C325 C335 1.510 . S
C326 C322 1.401 . S
C326 C325 1.396 . S
C327 C322 1.499 1_455 S
C327 H328 0.959 . S
C327 H329 0.960 . S
C327 H330 0.961 . S
H328 C327 0.959 . S
H329 C327 0.960 . S
H330 C327 0.961 . S
O331 Co306 1.967 . S
O331 C339 1.258 . S
O332 Co307 1.941 . S
O332 C339 1.266 . S
H333 C335 0.959 . S
H334 C335 0.961 . S
C335 C325 1.510 . S
C335 H333 0.959 . S
C335 H334 0.961 . S
C335 H336 0.960 . S
H336 C335 0.960 . S
H337 N317 0.862 . S
O338 Co306 1.920 1_455 S
O338 C311 1.289 1_565 S
C339 O331 1.258 . S
C339 O332 1.266 . S
Co340 O343 1.970 . S
Co340 N357 1.989 . S
Co340 O365 1.967 . S
Co340 O372 1.920 . S
Co341 O344 1.966 . S
Co341 N350 2.022 . S
Co341 N358 1.993 . S
Co341 O366 1.941 . S
C342 O343 1.258 . S
C342 O344 1.263 . S
O343 Co340 1.970 . S
O343 C342 1.258 . S
O344 Co341 1.966 . S
O344 C342 1.263 . S
C345 O346 1.235 . S
C345 O372 1.289 . S
O346 C345 1.235 . S
C347 C349 1.400 1_545 S
C347 N350 1.351 . S
C347 C352 1.501 . S
C348 C349 1.387 . S
C348 N351 1.341 1_565 S
C349 C347 1.400 1_565 S
C349 C348 1.387 . S
N350 Co341 2.022 . S
N350 C347 1.351 . S
N350 N351 1.365 . S
N351 C348 1.341 1_545 S
N351 N350 1.365 . S
N351 H371 0.862 . S
C352 C347 1.501 . S
C352 H353 0.961 . S
C352 H354 0.961 . S
C352 H355 0.960 . S
H353 C352 0.961 . S
H354 C352 0.961 . S
H355 C352 0.960 . S
C356 N357 1.342 . S
C356 C360 1.401 . S
C356 C361 1.499 . S
N357 Co340 1.989 . S
N357 C356 1.342 . S
N357 N358 1.388 . S
N358 Co341 1.993 . S
N358 N357 1.388 . S
N358 C359 1.346 . S
C359 N358 1.346 . S
C359 C360 1.396 . S
C359 C369 1.510 . S
C360 C356 1.401 . S
C360 C359 1.396 . S
C361 C356 1.499 . S
C361 H362 0.959 . S
C361 H363 0.960 . S
C361 H364 0.961 . S
H362 C361 0.959 . S
H363 C361 0.960 . S
H364 C361 0.961 . S
O365 Co340 1.967 . S
O365 C373 1.258 . S
O366 Co341 1.941 . S
O366 C373 1.266 . S
H367 C369 0.959 . S
H368 C369 0.961 . S
C369 C359 1.510 . S
C369 H367 0.959 . S
C369 H368 0.961 . S
C369 H370 0.960 . S
H370 C369 0.960 . S
H371 N351 0.862 . S
O372 Co340 1.920 . S
O372 C345 1.289 . S
C373 O365 1.258 . S
C373 O366 1.266 . S
Co374 O377 1.970 . S
Co374 N391 1.989 1_545 S
Co374 O399 1.967 . S
Co374 O406 1.920 . S
Co375 O378 1.966 . S
Co375 N384 2.022 . S
Co375 N392 1.993 . S
Co375 O400 1.941 . S
C376 O377 1.258 . S
C376 O378 1.263 . S
O377 Co374 1.970 . S
O377 C376 1.258 . S
O378 Co375 1.966 . S
O378 C376 1.263 . S
C379 O380 1.235 . S
C379 O406 1.289 1_565 S
O380 C379 1.235 . S
C381 C383 1.400 . S
C381 N384 1.351 . S
C381 C386 1.501 . S
C382 C383 1.387 . S
C382 N385 1.341 . S
C383 C381 1.400 . S
C383 C382 1.387 . S
N384 Co375 2.022 . S
N384 C381 1.351 . S
N384 N385 1.365 . S
N385 C382 1.341 . S
N385 N384 1.365 . S
N385 H405 0.862 . S
C386 C381 1.501 . S
C386 H387 0.961 . S
C386 H388 0.961 1_545 S
C386 H389 0.960 . S
H387 C386 0.961 . S
H388 C386 0.961 1_565 S
H389 C386 0.960 . S
C390 N391 1.342 . S
C390 C394 1.401 . S
C390 C395 1.499 . S
N391 Co374 1.989 1_565 S
N391 C390 1.342 . S
N391 N392 1.388 1_565 S
N392 Co375 1.993 . S
N392 N391 1.388 1_545 S
N392 C393 1.346 1_545 S
C393 N392 1.346 1_565 S
C393 C394 1.396 . S
C393 C403 1.510 . S
C394 C390 1.401 . S
C394 C393 1.396 . S
C395 C390 1.499 . S
C395 H396 0.959 . S
C395 H397 0.960 . S
C395 H398 0.961 . S
H396 C395 0.959 . S
H397 C395 0.960 . S
H398 C395 0.961 . S
O399 Co374 1.967 . S
O399 C407 1.258 . S
O400 Co375 1.941 . S
O400 C407 1.266 . S
H401 C403 0.959 . S
H402 C403 0.961 . S
C403 C393 1.510 . S
C403 H401 0.959 . S
C403 H402 0.961 . S
C403 H404 0.960 . S
H404 C403 0.960 . S
H405 N385 0.862 . S
O406 Co374 1.920 . S
O406 C379 1.289 1_545 S
C407 O399 1.258 . S
C407 O400 1.266 . S
Co408 O411 1.970 . S
Co408 N425 1.989 . S
Co408 O433 1.967 . S
Co408 O440 1.920 . S
Co409 O412 1.966 . S
Co409 N418 2.022 . S
Co409 N426 1.993 . S
Co409 O434 1.941 . S
C410 O411 1.258 . S
C410 O412 1.263 . S
O411 Co408 1.970 . S
O411 C410 1.258 . S
O412 Co409 1.966 . S
O412 C410 1.263 . S
C413 O414 1.235 . S
C413 O440 1.289 . S
O414 C413 1.235 . S
C415 C417 1.400 1_545 S
C415 N418 1.351 . S
C415 C420 1.501 . S
C416 C417 1.387 . S
C416 N419 1.341 1_565 S
C417 C415 1.400 1_565 S
C417 C416 1.387 . S
N418 Co409 2.022 . S
N418 C415 1.351 . S
N418 N419 1.365 . S
N419 C416 1.341 1_545 S
N419 N418 1.365 . S
N419 H439 0.862 . S
C420 C415 1.501 . S
C420 H421 0.961 . S
C420 H422 0.961 . S
C420 H423 0.960 . S
H421 C420 0.961 . S
H422 C420 0.961 . S
H423 C420 0.960 . S
C424 N425 1.342 . S
C424 C428 1.401 . S
C424 C429 1.499 . S
N425 Co408 1.989 . S
N425 C424 1.342 . S
N425 N426 1.388 . S
N426 Co409 1.993 . S
N426 N425 1.388 . S
N426 C427 1.346 . S
C427 N426 1.346 . S
C427 C428 1.396 . S
C427 C437 1.510 . S
C428 C424 1.401 . S
C428 C427 1.396 . S
C429 C424 1.499 . S
C429 H430 0.959 . S
C429 H431 0.960 . S
C429 H432 0.961 . S
H430 C429 0.959 . S
H431 C429 0.960 . S
H432 C429 0.961 . S
O433 Co408 1.967 . S
O433 C441 1.258 . S
O434 Co409 1.941 . S
O434 C441 1.266 . S
H435 C437 0.959 . S
H436 C437 0.961 . S
C437 C427 1.510 . S
C437 H435 0.959 . S
C437 H436 0.961 . S
C437 H438 0.960 . S
H438 C437 0.960 . S
H439 N419 0.862 . S
O440 Co408 1.920 . S
O440 C413 1.289 . S
C441 O433 1.258 . S
C441 O434 1.266 . S
Co442 O445 1.970 . S
Co442 N459 1.989 1_565 S
Co442 O467 1.967 . S
Co442 O474 1.920 . S
Co443 O446 1.966 . S
Co443 N452 2.022 . S
Co443 N460 1.993 . S
Co443 O468 1.941 . S
C444 O445 1.258 . S
C444 O446 1.263 . S
O445 Co442 1.970 . S
O445 C444 1.258 . S
O446 Co443 1.966 . S
O446 C444 1.263 . S
C447 O448 1.235 . S
C447 O474 1.289 1_545 S
O448 C447 1.235 . S
C449 C451 1.400 . S
C449 N452 1.351 . S
C449 C454 1.501 . S
C450 C451 1.387 . S
C450 N453 1.341 . S
C451 C449 1.400 . S
C451 C450 1.387 . S
N452 Co443 2.022 . S
N452 C449 1.351 . S
N452 N453 1.365 . S
N453 C450 1.341 . S
N453 N452 1.365 . S
N453 H473 0.862 . S
C454 C449 1.501 . S
C454 H455 0.961 . S
C454 H456 0.961 1_565 S
C454 H457 0.960 . S
H455 C454 0.961 . S
H456 C454 0.961 1_545 S
H457 C454 0.960 . S
C458 N459 1.342 . S
C458 C462 1.401 . S
C458 C463 1.499 . S
N459 Co442 1.989 1_545 S
N459 C458 1.342 . S
N459 N460 1.388 1_545 S
N460 Co443 1.993 . S
N460 N459 1.388 1_565 S
N460 C461 1.346 1_565 S
C461 N460 1.346 1_545 S
C461 C462 1.396 . S
C461 C471 1.510 . S
C462 C458 1.401 . S
C462 C461 1.396 . S
C463 C458 1.499 . S
C463 H464 0.959 . S
C463 H465 0.960 . S
C463 H466 0.961 . S
H464 C463 0.959 . S
H465 C463 0.960 . S
H466 C463 0.961 . S
O467 Co442 1.967 . S
O467 C475 1.258 . S
O468 Co443 1.941 . S
O468 C475 1.266 . S
H469 C471 0.959 . S
H470 C471 0.961 . S
C471 C461 1.510 . S
C471 H469 0.959 . S
C471 H470 0.961 . S
C471 H472 0.960 . S
H472 C471 0.960 . S
H473 N453 0.862 . S
O474 Co442 1.920 . S
O474 C447 1.289 1_565 S
C475 O467 1.258 . S
C475 O468 1.266 . S
Co476 O479 1.970 . S
Co476 N493 1.989 . S
Co476 O501 1.967 . S
Co476 O508 1.920 . S
Co477 O480 1.966 . S
Co477 N486 2.022 . S
Co477 N494 1.993 . S
Co477 O502 1.941 . S
C478 O479 1.258 . S
C478 O480 1.263 . S
O479 Co476 1.970 . S
O479 C478 1.258 . S
O480 Co477 1.966 . S
O480 C478 1.263 . S
C481 O482 1.235 . S
C481 O508 1.289 . S
O482 C481 1.235 . S
C483 C485 1.400 1_565 S
C483 N486 1.351 . S
C483 C488 1.501 . S
C484 C485 1.387 . S
C484 N487 1.341 1_545 S
C485 C483 1.400 1_545 S
C485 C484 1.387 . S
N486 Co477 2.022 . S
N486 C483 1.351 . S
N486 N487 1.365 . S
N487 C484 1.341 1_565 S
N487 N486 1.365 . S
N487 H507 0.862 . S
C488 C483 1.501 . S
C488 H489 0.961 . S
C488 H490 0.961 . S
C488 H491 0.960 . S
H489 C488 0.961 . S
H490 C488 0.961 . S
H491 C488 0.960 . S
C492 N493 1.342 . S
C492 C496 1.401 . S
C492 C497 1.499 . S
N493 Co476 1.989 . S
N493 C492 1.342 . S
N493 N494 1.388 . S
N494 Co477 1.993 . S
N494 N493 1.388 . S
N494 C495 1.346 . S
C495 N494 1.346 . S
C495 C496 1.396 . S
C495 C505 1.510 . S
C496 C492 1.401 . S
C496 C495 1.396 . S
C497 C492 1.499 . S
C497 H498 0.959 . S
C497 H499 0.960 . S
C497 H500 0.961 . S
H498 C497 0.959 . S
H499 C497 0.960 . S
H500 C497 0.961 . S
O501 Co476 1.967 . S
O501 C509 1.258 . S
O502 Co477 1.941 . S
O502 C509 1.266 . S
H503 C505 0.959 . S
H504 C505 0.961 . S
C505 C495 1.510 . S
C505 H503 0.959 . S
C505 H504 0.961 . S
C505 H506 0.960 . S
H506 C505 0.960 . S
H507 N487 0.862 . S
O508 Co476 1.920 . S
O508 C481 1.289 . S
C509 O501 1.258 . S
C509 O502 1.266 . S
Co510 O513 1.970 . S
Co510 N527 1.989 1_545 S
Co510 O535 1.967 . S
Co510 O542 1.920 1_655 S
Co511 O514 1.966 . S
Co511 N520 2.022 . S
Co511 N528 1.993 . S
Co511 O536 1.941 . S
C512 O513 1.258 . S
C512 O514 1.263 . S
O513 Co510 1.970 . S
O513 C512 1.258 . S
O514 Co511 1.966 . S
O514 C512 1.263 . S
C515 O516 1.235 . S
C515 O542 1.289 1_565 S
O516 C515 1.235 . S
C517 C519 1.400 . S
C517 N520 1.351 . S
C517 C522 1.501 . S
C518 C519 1.387 . S
C518 N521 1.341 . S
C519 C517 1.400 . S
C519 C518 1.387 . S
N520 Co511 2.022 . S
N520 C517 1.351 . S
N520 N521 1.365 . S
N521 C518 1.341 . S
N521 N520 1.365 . S
N521 H541 0.862 . S
C522 C517 1.501 . S
C522 H523 0.961 . S
C522 H524 0.961 1_545 S
C522 H525 0.960 . S
H523 C522 0.961 . S
H524 C522 0.961 1_565 S
H525 C522 0.960 . S
C526 N527 1.342 . S
C526 C530 1.401 . S
C526 C531 1.499 1_655 S
N527 Co510 1.989 1_565 S
N527 C526 1.342 . S
N527 N528 1.388 1_565 S
N528 Co511 1.993 . S
N528 N527 1.388 1_545 S
N528 C529 1.346 1_545 S
C529 N528 1.346 1_565 S
C529 C530 1.396 . S
C529 C539 1.510 . S
C530 C526 1.401 . S
C530 C529 1.396 . S
C531 C526 1.499 1_455 S
C531 H532 0.959 . S
C531 H533 0.960 . S
C531 H534 0.961 . S
H532 C531 0.959 . S
H533 C531 0.960 . S
H534 C531 0.961 . S
O535 Co510 1.967 . S
O535 C543 1.258 . S
O536 Co511 1.941 . S
O536 C543 1.266 . S
H537 C539 0.959 . S
H538 C539 0.961 . S
C539 C529 1.510 . S
C539 H537 0.959 . S
C539 H538 0.961 . S
C539 H540 0.960 . S
H540 C539 0.960 . S
H541 N521 0.862 . S
O542 Co510 1.920 1_455 S
O542 C515 1.289 1_545 S
C543 O535 1.258 . S
C543 O536 1.266 . S
Co544 O547 1.970 . S
Co544 N561 1.989 . S
Co544 O569 1.967 . S
Co544 O576 1.920 . S
Co545 O548 1.966 . S
Co545 N554 2.022 . S
Co545 N562 1.993 . S
Co545 O570 1.941 . S
C546 O547 1.258 . S
C546 O548 1.263 . S
O547 Co544 1.970 . S
O547 C546 1.258 . S
O548 Co545 1.966 . S
O548 C546 1.263 . S
C549 O550 1.235 . S
C549 O576 1.289 . S
O550 C549 1.235 . S
C551 C553 1.400 . S
C551 N554 1.351 . S
C551 C556 1.501 . S
C552 C553 1.387 . S
C552 N555 1.341 . S
C553 C551 1.400 . S
C553 C552 1.387 . S
N554 Co545 2.022 . S
N554 C551 1.351 . S
N554 N555 1.365 . S
N555 C552 1.341 . S
N555 N554 1.365 . S
N555 H575 0.862 . S
C556 C551 1.501 . S
C556 H557 0.961 . S
C556 H558 0.961 . S
C556 H559 0.960 . S
H557 C556 0.961 . S
H558 C556 0.961 . S
H559 C556 0.960 . S
C560 N561 1.342 . S
C560 C564 1.401 . S
C560 C565 1.499 . S
N561 Co544 1.989 . S
N561 C560 1.342 . S
N561 N562 1.388 . S
N562 Co545 1.993 . S
N562 N561 1.388 . S
N562 C563 1.346 . S
C563 N562 1.346 . S
C563 C564 1.396 . S
C563 C573 1.510 . S
C564 C560 1.401 . S
C564 C563 1.396 . S
C565 C560 1.499 . S
C565 H566 0.959 . S
C565 H567 0.960 . S
C565 H568 0.961 . S
H566 C565 0.959 . S
H567 C565 0.960 . S
H568 C565 0.961 . S
O569 Co544 1.967 . S
O569 C577 1.258 . S
O570 Co545 1.941 . S
O570 C577 1.266 . S
H571 C573 0.959 . S
H572 C573 0.961 . S
C573 C563 1.510 . S
C573 H571 0.959 . S
C573 H572 0.961 . S
C573 H574 0.960 . S
H574 C573 0.960 . S
H575 N555 0.862 . S
O576 Co544 1.920 . S
O576 C549 1.289 . S
C577 O569 1.258 . S
C577 O570 1.266 . S
Co578 O581 1.970 . S
Co578 N595 1.989 . S
Co578 O603 1.967 . S
Co578 O610 1.920 . S
Co579 O582 1.966 . S
Co579 N588 2.022 . S
Co579 N596 1.993 . S
Co579 O604 1.941 . S
C580 O581 1.258 . S
C580 O582 1.263 . S
O581 Co578 1.970 . S
O581 C580 1.258 . S
O582 Co579 1.966 . S
O582 C580 1.263 . S
C583 O584 1.235 . S
C583 O610 1.289 . S
O584 C583 1.235 . S
C585 C587 1.400 . S
C585 N588 1.351 . S
C585 C590 1.501 . S
C586 C587 1.387 . S
C586 N589 1.341 . S
C587 C585 1.400 . S
C587 C586 1.387 . S
N588 Co579 2.022 . S
N588 C585 1.351 . S
N588 N589 1.365 . S
N589 C586 1.341 . S
N589 N588 1.365 . S
N589 H609 0.862 . S
C590 C585 1.501 . S
C590 H591 0.961 . S
C590 H592 0.961 . S
C590 H593 0.960 . S
H591 C590 0.961 . S
H592 C590 0.961 . S
H593 C590 0.960 . S
C594 N595 1.342 . S
C594 C598 1.401 . S
C594 C599 1.499 . S
N595 Co578 1.989 . S
N595 C594 1.342 . S
N595 N596 1.388 . S
N596 Co579 1.993 . S
N596 N595 1.388 . S
N596 C597 1.346 . S
C597 N596 1.346 . S
C597 C598 1.396 . S
C597 C607 1.510 . S
C598 C594 1.401 . S
C598 C597 1.396 . S
C599 C594 1.499 . S
C599 H600 0.959 . S
C599 H601 0.960 . S
C599 H602 0.961 . S
H600 C599 0.959 . S
H601 C599 0.960 . S
H602 C599 0.961 . S
O603 Co578 1.967 . S
O603 C611 1.258 . S
O604 Co579 1.941 . S
O604 C611 1.266 . S
H605 C607 0.959 . S
H606 C607 0.961 . S
C607 C597 1.510 . S
C607 H605 0.959 . S
C607 H606 0.961 . S
C607 H608 0.960 . S
H608 C607 0.960 . S
H609 N589 0.862 . S
O610 Co578 1.920 . S
O610 C583 1.289 . S
C611 O603 1.258 . S
C611 O604 1.266 . S
Co612 O615 1.970 . S
Co612 N629 1.989 . S
Co612 O637 1.967 . S
Co612 O644 1.920 . S
Co613 O616 1.966 . S
Co613 N622 2.022 . S
Co613 N630 1.993 . S
Co613 O638 1.941 . S
C614 O615 1.258 . S
C614 O616 1.263 . S
O615 Co612 1.970 . S
O615 C614 1.258 . S
O616 Co613 1.966 . S
O616 C614 1.263 . S
C617 O618 1.235 . S
C617 O644 1.289 . S
O618 C617 1.235 . S
C619 C621 1.400 . S
C619 N622 1.351 . S
C619 C624 1.501 . S
C620 C621 1.387 . S
C620 N623 1.341 . S
C621 C619 1.400 . S
C621 C620 1.387 . S
N622 Co613 2.022 . S
N622 C619 1.351 . S
N622 N623 1.365 . S
N623 C620 1.341 . S
N623 N622 1.365 . S
N623 H643 0.862 . S
C624 C619 1.501 . S
C624 H625 0.961 . S
C624 H626 0.961 . S
C624 H627 0.960 . S
H625 C624 0.961 . S
H626 C624 0.961 . S
H627 C624 0.960 . S
C628 N629 1.342 . S
C628 C632 1.401 . S
C628 C633 1.499 . S
N629 Co612 1.989 . S
N629 C628 1.342 . S
N629 N630 1.388 . S
N630 Co613 1.993 . S
N630 N629 1.388 . S
N630 C631 1.346 . S
C631 N630 1.346 . S
C631 C632 1.396 . S
C631 C641 1.510 . S
C632 C628 1.401 . S
C632 C631 1.396 . S
C633 C628 1.499 . S
C633 H634 0.959 . S
C633 H635 0.960 . S
C633 H636 0.961 . S
H634 C633 0.959 . S
H635 C633 0.960 . S
H636 C633 0.961 . S
O637 Co612 1.967 . S
O637 C645 1.258 . S
O638 Co613 1.941 . S
O638 C645 1.266 . S
H639 C641 0.959 . S
H640 C641 0.961 . S
C641 C631 1.510 . S
C641 H639 0.959 . S
C641 H640 0.961 . S
C641 H642 0.960 . S
H642 C641 0.960 . S
H643 N623 0.862 . S
O644 Co612 1.920 . S
O644 C617 1.289 . S
C645 O637 1.258 . S
C645 O638 1.266 . S
Co646 O649 1.970 . S
Co646 N663 1.989 . S
Co646 O671 1.967 . S
Co646 O678 1.920 1_655 S
Co647 O650 1.966 . S
Co647 N656 2.022 . S
Co647 N664 1.993 . S
Co647 O672 1.941 . S
C648 O649 1.258 . S
C648 O650 1.263 . S
O649 Co646 1.970 . S
O649 C648 1.258 . S
O650 Co647 1.966 . S
O650 C648 1.263 . S
C651 O652 1.235 . S
C651 O678 1.289 . S
O652 C651 1.235 . S
C653 C655 1.400 . S
C653 N656 1.351 . S
C653 C658 1.501 . S
C654 C655 1.387 . S
C654 N657 1.341 . S
C655 C653 1.400 . S
C655 C654 1.387 . S
N656 Co647 2.022 . S
N656 C653 1.351 . S
N656 N657 1.365 . S
N657 C654 1.341 . S
N657 N656 1.365 . S
N657 H677 0.862 . S
C658 C653 1.501 . S
C658 H659 0.961 . S
C658 H660 0.961 . S
C658 H661 0.960 . S
H659 C658 0.961 . S
H660 C658 0.961 . S
H661 C658 0.960 . S
C662 N663 1.342 . S
C662 C666 1.401 . S
C662 C667 1.499 1_655 S
N663 Co646 1.989 . S
N663 C662 1.342 . S
N663 N664 1.388 . S
N664 Co647 1.993 . S
N664 N663 1.388 . S
N664 C665 1.346 . S
C665 N664 1.346 . S
C665 C666 1.396 . S
C665 C675 1.510 . S
C666 C662 1.401 . S
C666 C665 1.396 . S
C667 C662 1.499 1_455 S
C667 H668 0.959 . S
C667 H669 0.960 . S
C667 H670 0.961 . S
H668 C667 0.959 . S
H669 C667 0.960 . S
H670 C667 0.961 . S
O671 Co646 1.967 . S
O671 C679 1.258 . S
O672 Co647 1.941 . S
O672 C679 1.266 . S
H673 C675 0.959 . S
H674 C675 0.961 . S
C675 C665 1.510 . S
C675 H673 0.959 . S
C675 H674 0.961 . S
C675 H676 0.960 . S
H676 C675 0.960 . S
H677 N657 0.862 . S
O678 Co646 1.920 1_455 S
O678 C651 1.289 . S
C679 O671 1.258 . S
C679 O672 1.266 . S
Co680 O683 1.970 . S
Co680 N697 1.989 . S
Co680 O705 1.967 . S
Co680 O712 1.920 . S
Co681 O684 1.966 . S
Co681 N690 2.022 . S
Co681 N698 1.993 . S
Co681 O706 1.941 . S
C682 O683 1.258 . S
C682 O684 1.263 . S
O683 Co680 1.970 . S
O683 C682 1.258 . S
O684 Co681 1.966 . S
O684 C682 1.263 . S
C685 O686 1.235 . S
C685 O712 1.289 . S
O686 C685 1.235 . S
C687 C689 1.400 . S
C687 N690 1.351 . S
C687 C692 1.501 . S
C688 C689 1.387 . S
C688 N691 1.341 . S
C689 C687 1.400 . S
C689 C688 1.387 . S
N690 Co681 2.022 . S
N690 C687 1.351 . S
N690 N691 1.365 . S
N691 C688 1.341 . S
N691 N690 1.365 . S
N691 H711 0.862 . S
C692 C687 1.501 . S
C692 H693 0.961 . S
C692 H694 0.961 . S
C692 H695 0.960 . S
H693 C692 0.961 . S
H694 C692 0.961 . S
H695 C692 0.960 . S
C696 N697 1.342 . S
C696 C700 1.401 . S
C696 C701 1.499 . S
N697 Co680 1.989 . S
N697 C696 1.342 . S
N697 N698 1.388 . S
N698 Co681 1.993 . S
N698 N697 1.388 . S
N698 C699 1.346 . S
C699 N698 1.346 . S
C699 C700 1.396 . S
C699 C709 1.510 . S
C700 C696 1.401 . S
C700 C699 1.396 . S
C701 C696 1.499 . S
C701 H702 0.959 . S
C701 H703 0.960 . S
C701 H704 0.961 . S
H702 C701 0.959 . S
H703 C701 0.960 . S
H704 C701 0.961 . S
O705 Co680 1.967 . S
O705 C713 1.258 . S
O706 Co681 1.941 . S
O706 C713 1.266 . S
H707 C709 0.959 . S
H708 C709 0.961 . S
C709 C699 1.510 . S
C709 H707 0.959 . S
C709 H708 0.961 . S
C709 H710 0.960 . S
H710 C709 0.960 . S
H711 N691 0.862 . S
O712 Co680 1.920 . S
O712 C685 1.289 . S
C713 O705 1.258 . S
C713 O706 1.266 . S
Co714 O717 1.970 . S
Co714 N731 1.989 . S
Co714 O739 1.967 . S
Co714 O746 1.920 1_655 S
Co715 O718 1.966 . S
Co715 N724 2.022 . S
Co715 N732 1.993 . S
Co715 O740 1.941 . S
C716 O717 1.258 . S
C716 O718 1.263 . S
O717 Co714 1.970 . S
O717 C716 1.258 . S
O718 Co715 1.966 . S
O718 C716 1.263 . S
C719 O720 1.235 . S
C719 O746 1.289 . S
O720 C719 1.235 . S
C721 C723 1.400 . S
C721 N724 1.351 . S
C721 C726 1.501 . S
C722 C723 1.387 . S
C722 N725 1.341 . S
C723 C721 1.400 . S
C723 C722 1.387 . S
N724 Co715 2.022 . S
N724 C721 1.351 . S
N724 N725 1.365 . S
N725 C722 1.341 . S
N725 N724 1.365 . S
N725 H745 0.862 . S
C726 C721 1.501 . S
C726 H727 0.961 . S
C726 H728 0.961 . S
C726 H729 0.960 . S
H727 C726 0.961 . S
H728 C726 0.961 . S
H729 C726 0.960 . S
C730 N731 1.342 . S
C730 C734 1.401 . S
C730 C735 1.499 1_655 S
N731 Co714 1.989 . S
N731 C730 1.342 . S
N731 N732 1.388 . S
N732 Co715 1.993 . S
N732 N731 1.388 . S
N732 C733 1.346 . S
C733 N732 1.346 . S
C733 C734 1.396 . S
C733 C743 1.510 . S
C734 C730 1.401 . S
C734 C733 1.396 . S
C735 C730 1.499 1_455 S
C735 H736 0.959 . S
C735 H737 0.960 . S
C735 H738 0.961 . S
H736 C735 0.959 . S
H737 C735 0.960 . S
H738 C735 0.961 . S
O739 Co714 1.967 . S
O739 C747 1.258 . S
O740 Co715 1.941 . S
O740 C747 1.266 . S
H741 C743 0.959 . S
H742 C743 0.961 . S
C743 C733 1.510 . S
C743 H741 0.959 . S
C743 H742 0.961 . S
C743 H744 0.960 . S
H744 C743 0.960 . S
H745 N725 0.862 . S
O746 Co714 1.920 1_455 S
O746 C719 1.289 . S
C747 O739 1.258 . S
C747 O740 1.266 . S
Co748 O751 1.970 . S
Co748 N765 1.989 . S
Co748 O773 1.967 . S
Co748 O780 1.920 . S
Co749 O752 1.966 . S
Co749 N758 2.022 . S
Co749 N766 1.993 . S
Co749 O774 1.941 . S
C750 O751 1.258 . S
C750 O752 1.263 . S
O751 Co748 1.970 . S
O751 C750 1.258 . S
O752 Co749 1.966 . S
O752 C750 1.263 . S
C753 O754 1.235 . S
C753 O780 1.289 . S
O754 C753 1.235 . S
C755 C757 1.400 . S
C755 N758 1.351 . S
C755 C760 1.501 . S
C756 C757 1.387 . S
C756 N759 1.341 . S
C757 C755 1.400 . S
C757 C756 1.387 . S
N758 Co749 2.022 . S
N758 C755 1.351 . S
N758 N759 1.365 . S
N759 C756 1.341 . S
N759 N758 1.365 . S
N759 H779 0.862 . S
C760 C755 1.501 . S
C760 H761 0.961 . S
C760 H762 0.961 . S
C760 H763 0.960 . S
H761 C760 0.961 . S
H762 C760 0.961 . S
H763 C760 0.960 . S
C764 N765 1.342 . S
C764 C768 1.401 . S
C764 C769 1.499 . S
N765 Co748 1.989 . S
N765 C764 1.342 . S
N765 N766 1.388 . S
N766 Co749 1.993 . S
N766 N765 1.388 . S
N766 C767 1.346 . S
C767 N766 1.346 . S
C767 C768 1.396 . S
C767 C777 1.510 . S
C768 C764 1.401 . S
C768 C767 1.396 . S
C769 C764 1.499 . S
C769 H770 0.959 . S
C769 H771 0.960 . S
C769 H772 0.961 . S
H770 C769 0.959 . S
H771 C769 0.960 . S
H772 C769 0.961 . S
O773 Co748 1.967 . S
O773 C781 1.258 . S
O774 Co749 1.941 . S
O774 C781 1.266 . S
H775 C777 0.959 . S
H776 C777 0.961 . S
C777 C767 1.510 . S
C777 H775 0.959 . S
C777 H776 0.961 . S
C777 H778 0.960 . S
H778 C777 0.960 . S
H779 N759 0.862 . S
O780 Co748 1.920 . S
O780 C753 1.289 . S
C781 O773 1.258 . S
C781 O774 1.266 . S
Co782 O785 1.970 . S
Co782 N799 1.989 . S
Co782 O807 1.967 . S
Co782 O814 1.920 . S
Co783 O786 1.966 . S
Co783 N792 2.022 . S
Co783 N800 1.993 . S
Co783 O808 1.941 . S
C784 O785 1.258 . S
C784 O786 1.263 . S
O785 Co782 1.970 . S
O785 C784 1.258 . S
O786 Co783 1.966 . S
O786 C784 1.263 . S
C787 O788 1.235 . S
C787 O814 1.289 . S
O788 C787 1.235 . S
C789 C791 1.400 . S
C789 N792 1.351 . S
C789 C794 1.501 . S
C790 C791 1.387 . S
C790 N793 1.341 . S
C791 C789 1.400 . S
C791 C790 1.387 . S
N792 Co783 2.022 . S
N792 C789 1.351 . S
N792 N793 1.365 . S
N793 C790 1.341 . S
N793 N792 1.365 . S
N793 H813 0.862 . S
C794 C789 1.501 . S
C794 H795 0.961 . S
C794 H796 0.961 . S
C794 H797 0.960 . S
H795 C794 0.961 . S
H796 C794 0.961 . S
H797 C794 0.960 . S
C798 N799 1.342 . S
C798 C802 1.401 . S
C798 C803 1.499 . S
N799 Co782 1.989 . S
N799 C798 1.342 . S
N799 N800 1.388 . S
N800 Co783 1.993 . S
N800 N799 1.388 . S
N800 C801 1.346 . S
C801 N800 1.346 . S
C801 C802 1.396 . S
C801 C811 1.510 . S
C802 C798 1.401 . S
C802 C801 1.396 . S
C803 C798 1.499 . S
C803 H804 0.959 . S
C803 H805 0.960 . S
C803 H806 0.961 . S
H804 C803 0.959 . S
H805 C803 0.960 . S
H806 C803 0.961 . S
O807 Co782 1.967 . S
O807 C815 1.258 . S
O808 Co783 1.941 . S
O808 C815 1.266 . S
H809 C811 0.959 . S
H810 C811 0.961 . S
C811 C801 1.510 . S
C811 H809 0.959 . S
C811 H810 0.961 . S
C811 H812 0.960 . S
H812 C811 0.960 . S
H813 N793 0.862 . S
O814 Co782 1.920 . S
O814 C787 1.289 . S
C815 O807 1.258 . S
C815 O808 1.266 . S
Co816 O819 1.970 . S
Co816 N833 1.989 . S
Co816 O841 1.967 . S
Co816 O848 1.920 . S
Co817 O820 1.966 . S
Co817 N826 2.022 . S
Co817 N834 1.993 . S
Co817 O842 1.941 . S
C818 O819 1.258 . S
C818 O820 1.263 . S
O819 Co816 1.970 . S
O819 C818 1.258 . S
O820 Co817 1.966 . S
O820 C818 1.263 . S
C821 O822 1.235 . S
C821 O848 1.289 . S
O822 C821 1.235 . S
C823 C825 1.400 . S
C823 N826 1.351 . S
C823 C828 1.501 . S
C824 C825 1.387 . S
C824 N827 1.341 . S
C825 C823 1.400 . S
C825 C824 1.387 . S
N826 Co817 2.022 . S
N826 C823 1.351 . S
N826 N827 1.365 . S
N827 C824 1.341 . S
N827 N826 1.365 . S
N827 H847 0.862 . S
C828 C823 1.501 . S
C828 H829 0.961 . S
C828 H830 0.961 . S
C828 H831 0.960 . S
H829 C828 0.961 . S
H830 C828 0.961 . S
H831 C828 0.960 . S
C832 N833 1.342 . S
C832 C836 1.401 . S
C832 C837 1.499 . S
N833 Co816 1.989 . S
N833 C832 1.342 . S
N833 N834 1.388 . S
N834 Co817 1.993 . S
N834 N833 1.388 . S
N834 C835 1.346 . S
C835 N834 1.346 . S
C835 C836 1.396 . S
C835 C845 1.510 . S
C836 C832 1.401 . S
C836 C835 1.396 . S
C837 C832 1.499 . S
C837 H838 0.959 . S
C837 H839 0.960 . S
C837 H840 0.961 . S
H838 C837 0.959 . S
H839 C837 0.960 . S
H840 C837 0.961 . S
O841 Co816 1.967 . S
O841 C849 1.258 . S
O842 Co817 1.941 . S
O842 C849 1.266 . S
H843 C845 0.959 . S
H844 C845 0.961 . S
C845 C835 1.510 . S
C845 H843 0.959 . S
C845 H844 0.961 . S
C845 H846 0.960 . S
H846 C845 0.960 . S
H847 N827 0.862 . S
O848 Co816 1.920 . S
O848 C821 1.289 . S
C849 O841 1.258 . S
C849 O842 1.266 . S
Co850 O853 1.970 . S
Co850 N867 1.989 . S
Co850 O875 1.967 . S
Co850 O882 1.920 . S
Co851 O854 1.966 . S
Co851 N860 2.022 . S
Co851 N868 1.993 . S
Co851 O876 1.941 . S
C852 O853 1.258 . S
C852 O854 1.263 . S
O853 Co850 1.970 . S
O853 C852 1.258 . S
O854 Co851 1.966 . S
O854 C852 1.263 . S
C855 O856 1.235 . S
C855 O882 1.289 . S
O856 C855 1.235 . S
C857 C859 1.400 . S
C857 N860 1.351 . S
C857 C862 1.501 . S
C858 C859 1.387 . S
C858 N861 1.341 . S
C859 C857 1.400 . S
C859 C858 1.387 . S
N860 Co851 2.022 . S
N860 C857 1.351 . S
N860 N861 1.365 . S
N861 C858 1.341 . S
N861 N860 1.365 . S
N861 H881 0.862 . S
C862 C857 1.501 . S
C862 H863 0.961 . S
C862 H864 0.961 . S
C862 H865 0.960 . S
H863 C862 0.961 . S
H864 C862 0.961 . S
H865 C862 0.960 . S
C866 N867 1.342 . S
C866 C870 1.401 . S
C866 C871 1.499 . S
N867 Co850 1.989 . S
N867 C866 1.342 . S
N867 N868 1.388 . S
N868 Co851 1.993 . S
N868 N867 1.388 . S
N868 C869 1.346 . S
C869 N868 1.346 . S
C869 C870 1.396 . S
C869 C879 1.510 . S
C870 C866 1.401 . S
C870 C869 1.396 . S
C871 C866 1.499 . S
C871 H872 0.959 . S
C871 H873 0.960 . S
C871 H874 0.961 . S
H872 C871 0.959 . S
H873 C871 0.960 . S
H874 C871 0.961 . S
O875 Co850 1.967 . S
O875 C883 1.258 . S
O876 Co851 1.941 . S
O876 C883 1.266 . S
H877 C879 0.959 . S
H878 C879 0.961 . S
C879 C869 1.510 . S
C879 H877 0.959 . S
C879 H878 0.961 . S
C879 H880 0.960 . S
H880 C879 0.960 . S
H881 N861 0.862 . S
O882 Co850 1.920 . S
O882 C855 1.289 . S
C883 O875 1.258 . S
C883 O876 1.266 . S
Co884 O887 1.970 . S
Co884 N901 1.989 . S
Co884 O909 1.967 . S
Co884 O916 1.920 . S
Co885 O888 1.966 . S
Co885 N894 2.022 . S
Co885 N902 1.993 . S
Co885 O910 1.941 . S
C886 O887 1.258 . S
C886 O888 1.263 . S
O887 Co884 1.970 . S
O887 C886 1.258 . S
O888 Co885 1.966 . S
O888 C886 1.263 . S
C889 O890 1.235 . S
C889 O916 1.289 . S
O890 C889 1.235 . S
C891 C893 1.400 . S
C891 N894 1.351 . S
C891 C896 1.501 . S
C892 C893 1.387 . S
C892 N895 1.341 . S
C893 C891 1.400 . S
C893 C892 1.387 . S
N894 Co885 2.022 . S
N894 C891 1.351 . S
N894 N895 1.365 . S
N895 C892 1.341 . S
N895 N894 1.365 . S
N895 H915 0.862 . S
C896 C891 1.501 . S
C896 H897 0.961 . S
C896 H898 0.961 . S
C896 H899 0.960 . S
H897 C896 0.961 . S
H898 C896 0.961 . S
H899 C896 0.960 . S
C900 N901 1.342 . S
C900 C904 1.401 . S
C900 C905 1.499 . S
N901 Co884 1.989 . S
N901 C900 1.342 . S
N901 N902 1.388 . S
N902 Co885 1.993 . S
N902 N901 1.388 . S
N902 C903 1.346 . S
C903 N902 1.346 . S
C903 C904 1.396 . S
C903 C913 1.510 . S
C904 C900 1.401 . S
C904 C903 1.396 . S
C905 C900 1.499 . S
C905 H906 0.959 . S
C905 H907 0.960 . S
C905 H908 0.961 . S
H906 C905 0.959 . S
H907 C905 0.960 . S
H908 C905 0.961 . S
O909 Co884 1.967 . S
O909 C917 1.258 . S
O910 Co885 1.941 . S
O910 C917 1.266 . S
H911 C913 0.959 . S
H912 C913 0.961 . S
C913 C903 1.510 . S
C913 H911 0.959 . S
C913 H912 0.961 . S
C913 H914 0.960 . S
H914 C913 0.960 . S
H915 N895 0.862 . S
O916 Co884 1.920 . S
O916 C889 1.289 . S
C917 O909 1.258 . S
C917 O910 1.266 . S
Co918 O921 1.970 . S
Co918 N935 1.989 . S
Co918 O943 1.967 . S
Co918 O950 1.920 1_455 S
Co919 O922 1.966 . S
Co919 N928 2.022 . S
Co919 N936 1.993 . S
Co919 O944 1.941 . S
C920 O921 1.258 . S
C920 O922 1.263 . S
O921 Co918 1.970 . S
O921 C920 1.258 . S
O922 Co919 1.966 . S
O922 C920 1.263 . S
C923 O924 1.235 . S
C923 O950 1.289 . S
O924 C923 1.235 . S
C925 C927 1.400 . S
C925 N928 1.351 . S
C925 C930 1.501 . S
C926 C927 1.387 . S
C926 N929 1.341 . S
C927 C925 1.400 . S
C927 C926 1.387 . S
N928 Co919 2.022 . S
N928 C925 1.351 . S
N928 N929 1.365 . S
N929 C926 1.341 . S
N929 N928 1.365 . S
N929 H949 0.862 . S
C930 C925 1.501 . S
C930 H931 0.961 . S
C930 H932 0.961 . S
C930 H933 0.960 . S
H931 C930 0.961 . S
H932 C930 0.961 . S
H933 C930 0.960 . S
C934 N935 1.342 . S
C934 C938 1.401 . S
C934 C939 1.499 1_455 S
N935 Co918 1.989 . S
N935 C934 1.342 . S
N935 N936 1.388 . S
N936 Co919 1.993 . S
N936 N935 1.388 . S
N936 C937 1.346 . S
C937 N936 1.346 . S
C937 C938 1.396 . S
C937 C947 1.510 . S
C938 C934 1.401 . S
C938 C937 1.396 . S
C939 C934 1.499 1_655 S
C939 H940 0.959 . S
C939 H941 0.960 . S
C939 H942 0.961 . S
H940 C939 0.959 . S
H941 C939 0.960 . S
H942 C939 0.961 . S
O943 Co918 1.967 . S
O943 C951 1.258 . S
O944 Co919 1.941 . S
O944 C951 1.266 . S
H945 C947 0.959 . S
H946 C947 0.961 . S
C947 C937 1.510 . S
C947 H945 0.959 . S
C947 H946 0.961 . S
C947 H948 0.960 . S
H948 C947 0.960 . S
H949 N929 0.862 . S
O950 Co918 1.920 1_655 S
O950 C923 1.289 . S
C951 O943 1.258 . S
C951 O944 1.266 . S
Co952 O955 1.970 . S
Co952 N969 1.989 . S
Co952 O977 1.967 . S
Co952 O984 1.920 . S
Co953 O956 1.966 . S
Co953 N962 2.022 . S
Co953 N970 1.993 . S
Co953 O978 1.941 . S
C954 O955 1.258 . S
C954 O956 1.263 . S
O955 Co952 1.970 . S
O955 C954 1.258 . S
O956 Co953 1.966 . S
O956 C954 1.263 . S
C957 O958 1.235 . S
C957 O984 1.289 . S
O958 C957 1.235 . S
C959 C961 1.400 . S
C959 N962 1.351 . S
C959 C964 1.501 . S
C960 C961 1.387 . S
C960 N963 1.341 . S
C961 C959 1.400 . S
C961 C960 1.387 . S
N962 Co953 2.022 . S
N962 C959 1.351 . S
N962 N963 1.365 . S
N963 C960 1.341 . S
N963 N962 1.365 . S
N963 H983 0.862 . S
C964 C959 1.501 . S
C964 H965 0.961 . S
C964 H966 0.961 . S
C964 H967 0.960 . S
H965 C964 0.961 . S
H966 C964 0.961 . S
H967 C964 0.960 . S
C968 N969 1.342 . S
C968 C972 1.401 . S
C968 C973 1.499 . S
N969 Co952 1.989 . S
N969 C968 1.342 . S
N969 N970 1.388 . S
N970 Co953 1.993 . S
N970 N969 1.388 . S
N970 C971 1.346 . S
C971 N970 1.346 . S
C971 C972 1.396 . S
C971 C981 1.510 . S
C972 C968 1.401 . S
C972 C971 1.396 . S
C973 C968 1.499 . S
C973 H974 0.959 . S
C973 H975 0.960 . S
C973 H976 0.961 . S
H974 C973 0.959 . S
H975 C973 0.960 . S
H976 C973 0.961 . S
O977 Co952 1.967 . S
O977 C985 1.258 . S
O978 Co953 1.941 . S
O978 C985 1.266 . S
H979 C981 0.959 . S
H980 C981 0.961 . S
C981 C971 1.510 . S
C981 H979 0.959 . S
C981 H980 0.961 . S
C981 H982 0.960 . S
H982 C981 0.960 . S
H983 N963 0.862 . S
O984 Co952 1.920 . S
O984 C957 1.289 . S
C985 O977 1.258 . S
C985 O978 1.266 . S
Co986 O989 1.970 . S
Co986 N1003 1.989 . S
Co986 O1011 1.967 . S
Co986 O1018 1.920 1_455 S
Co987 O990 1.966 . S
Co987 N996 2.022 . S
Co987 N1004 1.993 . S
Co987 O1012 1.941 . S
C988 O989 1.258 . S
C988 O990 1.263 . S
O989 Co986 1.970 . S
O989 C988 1.258 . S
O990 Co987 1.966 . S
O990 C988 1.263 . S
C991 O992 1.235 . S
C991 O1018 1.289 . S
O992 C991 1.235 . S
C993 C995 1.400 . S
C993 N996 1.351 . S
C993 C998 1.501 . S
C994 C995 1.387 . S
C994 N997 1.341 . S
C995 C993 1.400 . S
C995 C994 1.387 . S
N996 Co987 2.022 . S
N996 C993 1.351 . S
N996 N997 1.365 . S
N997 C994 1.341 . S
N997 N996 1.365 . S
N997 H1017 0.862 . S
C998 C993 1.501 . S
C998 H999 0.961 . S
C998 H1000 0.961 . S
C998 H1001 0.960 . S
H999 C998 0.961 . S
H1000 C998 0.961 . S
H1001 C998 0.960 . S
C1002 N1003 1.342 . S
C1002 C1006 1.401 . S
C1002 C1007 1.499 1_455 S
N1003 Co986 1.989 . S
N1003 C1002 1.342 . S
N1003 N1004 1.388 . S
N1004 Co987 1.993 . S
N1004 N1003 1.388 . S
N1004 C1005 1.346 . S
C1005 N1004 1.346 . S
C1005 C1006 1.396 . S
C1005 C1015 1.510 . S
C1006 C1002 1.401 . S
C1006 C1005 1.396 . S
C1007 C1002 1.499 1_655 S
C1007 H1008 0.959 . S
C1007 H1009 0.960 . S
C1007 H1010 0.961 . S
H1008 C1007 0.959 . S
H1009 C1007 0.960 . S
H1010 C1007 0.961 . S
O1011 Co986 1.967 . S
O1011 C1019 1.258 . S
O1012 Co987 1.941 . S
O1012 C1019 1.266 . S
H1013 C1015 0.959 . S
H1014 C1015 0.961 . S
C1015 C1005 1.510 . S
C1015 H1013 0.959 . S
C1015 H1014 0.961 . S
C1015 H1016 0.960 . S
H1016 C1015 0.960 . S
H1017 N997 0.862 . S
O1018 Co986 1.920 1_655 S
O1018 C991 1.289 . S
C1019 O1011 1.258 . S
C1019 O1012 1.266 . S
Co1020 O1023 1.970 . S
Co1020 N1037 1.989 . S
Co1020 O1045 1.967 . S
Co1020 O1052 1.920 . S
Co1021 O1024 1.966 . S
Co1021 N1030 2.022 . S
Co1021 N1038 1.993 . S
Co1021 O1046 1.941 . S
C1022 O1023 1.258 . S
C1022 O1024 1.263 . S
O1023 Co1020 1.970 . S
O1023 C1022 1.258 . S
O1024 Co1021 1.966 . S
O1024 C1022 1.263 . S
C1025 O1026 1.235 . S
C1025 O1052 1.289 . S
O1026 C1025 1.235 . S
C1027 C1029 1.400 . S
C1027 N1030 1.351 . S
C1027 C1032 1.501 . S
C1028 C1029 1.387 . S
C1028 N1031 1.341 . S
C1029 C1027 1.400 . S
C1029 C1028 1.387 . S
N1030 Co1021 2.022 . S
N1030 C1027 1.351 . S
N1030 N1031 1.365 . S
N1031 C1028 1.341 . S
N1031 N1030 1.365 . S
N1031 H1051 0.862 . S
C1032 C1027 1.501 . S
C1032 H1033 0.961 . S
C1032 H1034 0.961 . S
C1032 H1035 0.960 . S
H1033 C1032 0.961 . S
H1034 C1032 0.961 . S
H1035 C1032 0.960 . S
C1036 N1037 1.342 . S
C1036 C1040 1.401 . S
C1036 C1041 1.499 . S
N1037 Co1020 1.989 . S
N1037 C1036 1.342 . S
N1037 N1038 1.388 . S
N1038 Co1021 1.993 . S
N1038 N1037 1.388 . S
N1038 C1039 1.346 . S
C1039 N1038 1.346 . S
C1039 C1040 1.396 . S
C1039 C1049 1.510 . S
C1040 C1036 1.401 . S
C1040 C1039 1.396 . S
C1041 C1036 1.499 . S
C1041 H1042 0.959 . S
C1041 H1043 0.960 . S
C1041 H1044 0.961 . S
H1042 C1041 0.959 . S
H1043 C1041 0.960 . S
H1044 C1041 0.961 . S
O1045 Co1020 1.967 . S
O1045 C1053 1.258 . S
O1046 Co1021 1.941 . S
O1046 C1053 1.266 . S
H1047 C1049 0.959 . S
H1048 C1049 0.961 . S
C1049 C1039 1.510 . S
C1049 H1047 0.959 . S
C1049 H1048 0.961 . S
C1049 H1050 0.960 . S
H1050 C1049 0.960 . S
H1051 N1031 0.862 . S
O1052 Co1020 1.920 . S
O1052 C1025 1.289 . S
C1053 O1045 1.258 . S
C1053 O1046 1.266 . S
Co1054 O1057 1.970 . S
Co1054 N1071 1.989 . S
Co1054 O1079 1.967 . S
Co1054 O1086 1.920 . S
Co1055 O1058 1.966 . S
Co1055 N1064 2.022 . S
Co1055 N1072 1.993 . S
Co1055 O1080 1.941 . S
C1056 O1057 1.258 . S
C1056 O1058 1.263 . S
O1057 Co1054 1.970 . S
O1057 C1056 1.258 . S
O1058 Co1055 1.966 . S
O1058 C1056 1.263 . S
C1059 O1060 1.235 . S
C1059 O1086 1.289 . S
O1060 C1059 1.235 . S
C1061 C1063 1.400 . S
C1061 N1064 1.351 . S
C1061 C1066 1.501 . S
C1062 C1063 1.387 . S
C1062 N1065 1.341 . S
C1063 C1061 1.400 . S
C1063 C1062 1.387 . S
N1064 Co1055 2.022 . S
N1064 C1061 1.351 . S
N1064 N1065 1.365 . S
N1065 C1062 1.341 . S
N1065 N1064 1.365 . S
N1065 H1085 0.862 . S
C1066 C1061 1.501 . S
C1066 H1067 0.961 . S
C1066 H1068 0.961 . S
C1066 H1069 0.960 . S
H1067 C1066 0.961 . S
H1068 C1066 0.961 . S
H1069 C1066 0.960 . S
C1070 N1071 1.342 . S
C1070 C1074 1.401 . S
C1070 C1075 1.499 . S
N1071 Co1054 1.989 . S
N1071 C1070 1.342 . S
N1071 N1072 1.388 . S
N1072 Co1055 1.993 . S
N1072 N1071 1.388 . S
N1072 C1073 1.346 . S
C1073 N1072 1.346 . S
C1073 C1074 1.396 . S
C1073 C1083 1.510 . S
C1074 C1070 1.401 . S
C1074 C1073 1.396 . S
C1075 C1070 1.499 . S
C1075 H1076 0.959 . S
C1075 H1077 0.960 . S
C1075 H1078 0.961 . S
H1076 C1075 0.959 . S
H1077 C1075 0.960 . S
H1078 C1075 0.961 . S
O1079 Co1054 1.967 . S
O1079 C1087 1.258 . S
O1080 Co1055 1.941 . S
O1080 C1087 1.266 . S
H1081 C1083 0.959 . S
H1082 C1083 0.961 . S
C1083 C1073 1.510 . S
C1083 H1081 0.959 . S
C1083 H1082 0.961 . S
C1083 H1084 0.960 . S
H1084 C1083 0.960 . S
H1085 N1065 0.862 . S
O1086 Co1054 1.920 . S
O1086 C1059 1.289 . S
C1087 O1079 1.258 . S
C1087 O1080 1.266 . S
C1088 C1089 1.363 . S
C1088 C1094 1.379 . S
C1088 N1096 1.356 . S
C1089 C1088 1.363 . S
C1089 C1095 1.363 . S
C1090 C1091 1.363 . S
C1090 C1095 1.379 . S
C1090 N1097 1.356 . S
C1091 C1090 1.363 . S
C1091 C1094 1.363 . S
N1092 C1094 1.356 . S
N1092 H1104 0.984 . S
N1092 H1105 0.985 . S
N1093 C1095 1.356 . S
N1093 H1098 0.984 . S
N1093 H1099 0.985 . S
C1094 C1088 1.379 . S
C1094 C1091 1.363 . S
C1094 N1092 1.356 . S
C1095 C1089 1.363 . S
C1095 C1090 1.379 . S
C1095 N1093 1.356 . S
N1096 C1088 1.356 . S
N1096 H1102 0.984 . S
N1096 H1103 0.984 . S
N1097 C1090 1.356 . S
N1097 H1100 0.984 . S
N1097 H1101 0.985 . S
H1098 N1093 0.984 . S
H1099 N1093 0.985 . S
H1100 N1097 0.984 . S
H1101 N1097 0.985 . S
H1102 N1096 0.984 . S
H1103 N1096 0.984 . S
H1104 N1092 0.984 . S
H1105 N1092 0.985 . S
C1106 C1107 1.363 . S
C1106 C1112 1.379 . S
C1106 N1114 1.356 . S
C1107 C1106 1.363 . S
C1107 C1113 1.363 . S
C1108 C1109 1.363 . S
C1108 C1113 1.379 . S
C1108 N1115 1.356 . S
C1109 C1108 1.363 . S
C1109 C1112 1.363 . S
N1110 C1112 1.356 . S
N1110 H1122 0.984 . S
N1110 H1123 0.985 . S
N1111 C1113 1.356 . S
N1111 H1116 0.984 1_565 S
N1111 H1117 0.985 1_565 S
C1112 C1106 1.379 . S
C1112 C1109 1.363 . S
C1112 N1110 1.356 . S
C1113 C1107 1.363 . S
C1113 C1108 1.379 . S
C1113 N1111 1.356 . S
N1114 C1106 1.356 . S
N1114 H1120 0.984 . S
N1114 H1121 0.984 . S
N1115 C1108 1.356 . S
N1115 H1118 0.984 . S
N1115 H1119 0.985 . S
H1116 N1111 0.984 1_545 S
H1117 N1111 0.985 1_545 S
H1118 N1115 0.984 . S
H1119 N1115 0.985 . S
H1120 N1114 0.984 . S
H1121 N1114 0.984 . S
H1122 N1110 0.984 . S
H1123 N1110 0.985 . S
C1124 C1125 1.363 . S
C1124 C1130 1.379 . S
C1124 N1132 1.356 . S
C1125 C1124 1.363 . S
C1125 C1131 1.363 . S
C1126 C1127 1.363 . S
C1126 C1131 1.379 . S
C1126 N1133 1.356 . S
C1127 C1126 1.363 . S
C1127 C1130 1.363 . S
N1128 C1130 1.356 . S
N1128 H1140 0.984 . S
N1128 H1141 0.985 . S
N1129 C1131 1.356 . S
N1129 H1134 0.984 . S
N1129 H1135 0.985 . S
C1130 C1124 1.379 . S
C1130 C1127 1.363 . S
C1130 N1128 1.356 . S
C1131 C1125 1.363 . S
C1131 C1126 1.379 . S
C1131 N1129 1.356 . S
N1132 C1124 1.356 . S
N1132 H1138 0.984 . S
N1132 H1139 0.984 . S
N1133 C1126 1.356 . S
N1133 H1136 0.984 . S
N1133 H1137 0.985 . S
H1134 N1129 0.984 . S
H1135 N1129 0.985 . S
H1136 N1133 0.984 . S
H1137 N1133 0.985 . S
H1138 N1132 0.984 . S
H1139 N1132 0.984 . S
H1140 N1128 0.984 . S
H1141 N1128 0.985 . S
C1142 C1143 1.363 . S
C1142 C1148 1.379 . S
C1142 N1150 1.356 . S
C1143 C1142 1.363 . S
C1143 C1149 1.363 . S
C1144 C1145 1.363 . S
C1144 C1149 1.379 . S
C1144 N1151 1.356 . S
C1145 C1144 1.363 . S
C1145 C1148 1.363 . S
N1146 C1148 1.356 . S
N1146 H1158 0.984 . S
N1146 H1159 0.985 . S
N1147 C1149 1.356 . S
N1147 H1152 0.984 1_545 S
N1147 H1153 0.985 1_545 S
C1148 C1142 1.379 . S
C1148 C1145 1.363 . S
C1148 N1146 1.356 . S
C1149 C1143 1.363 . S
C1149 C1144 1.379 . S
C1149 N1147 1.356 . S
N1150 C1142 1.356 . S
N1150 H1156 0.984 . S
N1150 H1157 0.984 . S
N1151 C1144 1.356 . S
N1151 H1154 0.984 . S
N1151 H1155 0.985 . S
H1152 N1147 0.984 1_565 S
H1153 N1147 0.985 1_565 S
H1154 N1151 0.984 . S
H1155 N1151 0.985 . S
H1156 N1150 0.984 . S
H1157 N1150 0.984 . S
H1158 N1146 0.984 . S
H1159 N1146 0.985 . S
C1160 C1161 1.363 . S
C1160 C1166 1.379 . S
C1160 N1168 1.356 . S
C1161 C1160 1.363 . S
C1161 C1167 1.363 . S
C1162 C1163 1.363 . S
C1162 C1167 1.379 . S
C1162 N1169 1.356 . S
C1163 C1162 1.363 . S
C1163 C1166 1.363 . S
N1164 C1166 1.356 . S
N1164 H1176 0.984 . S
N1164 H1177 0.985 . S
N1165 C1167 1.356 . S
N1165 H1170 0.984 . S
N1165 H1171 0.985 . S
C1166 C1160 1.379 . S
C1166 C1163 1.363 . S
C1166 N1164 1.356 . S
C1167 C1161 1.363 . S
C1167 C1162 1.379 . S
C1167 N1165 1.356 . S
N1168 C1160 1.356 . S
N1168 H1174 0.984 . S
N1168 H1175 0.984 . S
N1169 C1162 1.356 . S
N1169 H1172 0.984 . S
N1169 H1173 0.985 . S
H1170 N1165 0.984 . S
H1171 N1165 0.985 . S
H1172 N1169 0.984 . S
H1173 N1169 0.985 . S
H1174 N1168 0.984 . S
H1175 N1168 0.984 . S
H1176 N1164 0.984 . S
H1177 N1164 0.985 . S
C1178 C1179 1.363 . S
C1178 C1184 1.379 . S
C1178 N1186 1.356 . S
C1179 C1178 1.363 . S
C1179 C1185 1.363 . S
C1180 C1181 1.363 . S
C1180 C1185 1.379 . S
C1180 N1187 1.356 . S
C1181 C1180 1.363 . S
C1181 C1184 1.363 . S
N1182 C1184 1.356 . S
N1182 H1194 0.984 . S
N1182 H1195 0.985 . S
N1183 C1185 1.356 . S
N1183 H1188 0.984 . S
N1183 H1189 0.985 . S
C1184 C1178 1.379 . S
C1184 C1181 1.363 . S
C1184 N1182 1.356 . S
C1185 C1179 1.363 . S
C1185 C1180 1.379 . S
C1185 N1183 1.356 . S
N1186 C1178 1.356 . S
N1186 H1192 0.984 . S
N1186 H1193 0.984 . S
N1187 C1180 1.356 . S
N1187 H1190 0.984 . S
N1187 H1191 0.985 . S
H1188 N1183 0.984 . S
H1189 N1183 0.985 . S
H1190 N1187 0.984 . S
H1191 N1187 0.985 . S
H1192 N1186 0.984 . S
H1193 N1186 0.984 . S
H1194 N1182 0.984 . S
H1195 N1182 0.985 . S
C1196 C1197 1.363 . S
C1196 C1202 1.379 . S
C1196 N1204 1.356 . S
C1197 C1196 1.363 . S
C1197 C1203 1.363 . S
C1198 C1199 1.363 . S
C1198 C1203 1.379 . S
C1198 N1205 1.356 . S
C1199 C1198 1.363 . S
C1199 C1202 1.363 . S
N1200 C1202 1.356 . S
N1200 H1212 0.984 . S
N1200 H1213 0.985 . S
N1201 C1203 1.356 . S
N1201 H1206 0.984 1_545 S
N1201 H1207 0.985 1_545 S
C1202 C1196 1.379 . S
C1202 C1199 1.363 . S
C1202 N1200 1.356 . S
C1203 C1197 1.363 . S
C1203 C1198 1.379 . S
C1203 N1201 1.356 . S
N1204 C1196 1.356 . S
N1204 H1210 0.984 . S
N1204 H1211 0.984 . S
N1205 C1198 1.356 . S
N1205 H1208 0.984 . S
N1205 H1209 0.985 . S
H1206 N1201 0.984 1_565 S
H1207 N1201 0.985 1_565 S
H1208 N1205 0.984 . S
H1209 N1205 0.985 . S
H1210 N1204 0.984 . S
H1211 N1204 0.984 . S
H1212 N1200 0.984 . S
H1213 N1200 0.985 . S
C1214 C1215 1.363 . S
C1214 C1220 1.379 . S
C1214 N1222 1.356 . S
C1215 C1214 1.363 . S
C1215 C1221 1.363 . S
C1216 C1217 1.363 . S
C1216 C1221 1.379 . S
C1216 N1223 1.356 . S
C1217 C1216 1.363 . S
C1217 C1220 1.363 . S
N1218 C1220 1.356 . S
N1218 H1230 0.984 . S
N1218 H1231 0.985 . S
N1219 C1221 1.356 . S
N1219 H1224 0.984 . S
N1219 H1225 0.985 . S
C1220 C1214 1.379 . S
C1220 C1217 1.363 . S
C1220 N1218 1.356 . S
C1221 C1215 1.363 . S
C1221 C1216 1.379 . S
C1221 N1219 1.356 . S
N1222 C1214 1.356 . S
N1222 H1228 0.984 . S
N1222 H1229 0.984 . S
N1223 C1216 1.356 . S
N1223 H1226 0.984 . S
N1223 H1227 0.985 . S
H1224 N1219 0.984 . S
H1225 N1219 0.985 . S
H1226 N1223 0.984 . S
H1227 N1223 0.985 . S
H1228 N1222 0.984 . S
H1229 N1222 0.984 . S
H1230 N1218 0.984 . S
H1231 N1218 0.985 . S
C1232 C1233 1.363 . S
C1232 C1238 1.379 . S
C1232 N1240 1.356 . S
C1233 C1232 1.363 . S
C1233 C1239 1.363 . S
C1234 C1235 1.363 . S
C1234 C1239 1.379 . S
C1234 N1241 1.356 . S
C1235 C1234 1.363 . S
C1235 C1238 1.363 . S
N1236 C1238 1.356 . S
N1236 H1248 0.984 . S
N1236 H1249 0.985 . S
N1237 C1239 1.356 . S
N1237 H1242 0.984 . S
N1237 H1243 0.985 . S
C1238 C1232 1.379 . S
C1238 C1235 1.363 . S
C1238 N1236 1.356 . S
C1239 C1233 1.363 . S
C1239 C1234 1.379 . S
C1239 N1237 1.356 . S
N1240 C1232 1.356 . S
N1240 H1246 0.984 . S
N1240 H1247 0.984 . S
N1241 C1234 1.356 . S
N1241 H1244 0.984 . S
N1241 H1245 0.985 . S
H1242 N1237 0.984 . S
H1243 N1237 0.985 . S
H1244 N1241 0.984 . S
H1245 N1241 0.985 . S
H1246 N1240 0.984 . S
H1247 N1240 0.984 . S
H1248 N1236 0.984 . S
H1249 N1236 0.985 . S
C1250 C1251 1.363 . S
C1250 C1256 1.379 . S
C1250 N1258 1.356 . S
C1251 C1250 1.363 . S
C1251 C1257 1.363 . S
C1252 C1253 1.363 . S
C1252 C1257 1.379 . S
C1252 N1259 1.356 . S
C1253 C1252 1.363 . S
C1253 C1256 1.363 . S
N1254 C1256 1.356 . S
N1254 H1266 0.984 . S
N1254 H1267 0.985 . S
N1255 C1257 1.356 . S
N1255 H1260 0.984 . S
N1255 H1261 0.985 . S
C1256 C1250 1.379 . S
C1256 C1253 1.363 . S
C1256 N1254 1.356 . S
C1257 C1251 1.363 . S
C1257 C1252 1.379 . S
C1257 N1255 1.356 . S
N1258 C1250 1.356 . S
N1258 H1264 0.984 . S
N1258 H1265 0.984 . S
N1259 C1252 1.356 . S
N1259 H1262 0.984 . S
N1259 H1263 0.985 . S
H1260 N1255 0.984 . S
H1261 N1255 0.985 . S
H1262 N1259 0.984 . S
H1263 N1259 0.985 . S
H1264 N1258 0.984 . S
H1265 N1258 0.984 . S
H1266 N1254 0.984 . S
H1267 N1254 0.985 . S
C1268 C1269 1.363 . S
C1268 C1274 1.379 . S
C1268 N1276 1.356 . S
C1269 C1268 1.363 . S
C1269 C1275 1.363 . S
C1270 C1271 1.363 . S
C1270 C1275 1.379 . S
C1270 N1277 1.356 . S
C1271 C1270 1.363 . S
C1271 C1274 1.363 . S
N1272 C1274 1.356 . S
N1272 H1284 0.984 . S
N1272 H1285 0.985 . S
N1273 C1275 1.356 . S
N1273 H1278 0.984 . S
N1273 H1279 0.985 . S
C1274 C1268 1.379 . S
C1274 C1271 1.363 . S
C1274 N1272 1.356 . S
C1275 C1269 1.363 . S
C1275 C1270 1.379 . S
C1275 N1273 1.356 . S
N1276 C1268 1.356 . S
N1276 H1282 0.984 . S
N1276 H1283 0.984 . S
N1277 C1270 1.356 . S
N1277 H1280 0.984 . S
N1277 H1281 0.985 . S
H1278 N1273 0.984 . S
H1279 N1273 0.985 . S
H1280 N1277 0.984 . S
H1281 N1277 0.985 . S
H1282 N1276 0.984 . S
H1283 N1276 0.984 . S
H1284 N1272 0.984 . S
H1285 N1272 0.985 . S
C1286 C1287 1.363 . S
C1286 C1292 1.379 . S
C1286 N1294 1.356 . S
C1287 C1286 1.363 . S
C1287 C1293 1.363 . S
C1288 C1289 1.363 . S
C1288 C1293 1.379 . S
C1288 N1295 1.356 . S
C1289 C1288 1.363 . S
C1289 C1292 1.363 . S
N1290 C1292 1.356 . S
N1290 H1302 0.984 . S
N1290 H1303 0.985 . S
N1291 C1293 1.356 . S
N1291 H1296 0.984 . S
N1291 H1297 0.985 . S
C1292 C1286 1.379 . S
C1292 C1289 1.363 . S
C1292 N1290 1.356 . S
C1293 C1287 1.363 . S
C1293 C1288 1.379 . S
C1293 N1291 1.356 . S
N1294 C1286 1.356 . S
N1294 H1300 0.984 . S
N1294 H1301 0.984 . S
N1295 C1288 1.356 . S
N1295 H1298 0.984 . S
N1295 H1299 0.985 . S
H1296 N1291 0.984 . S
H1297 N1291 0.985 . S
H1298 N1295 0.984 . S
H1299 N1295 0.985 . S
H1300 N1294 0.984 . S
H1301 N1294 0.984 . S
H1302 N1290 0.984 . S
H1303 N1290 0.985 . S
C1304 C1305 1.363 . S
C1304 C1310 1.379 . S
C1304 N1312 1.356 . S
C1305 C1304 1.363 . S
C1305 C1311 1.363 . S
C1306 C1307 1.363 . S
C1306 C1311 1.379 . S
C1306 N1313 1.356 . S
C1307 C1306 1.363 . S
C1307 C1310 1.363 . S
N1308 C1310 1.356 . S
N1308 H1320 0.984 . S
N1308 H1321 0.985 . S
N1309 C1311 1.356 . S
N1309 H1314 0.984 . S
N1309 H1315 0.985 . S
C1310 C1304 1.379 . S
C1310 C1307 1.363 . S
C1310 N1308 1.356 . S
C1311 C1305 1.363 . S
C1311 C1306 1.379 . S
C1311 N1309 1.356 . S
N1312 C1304 1.356 . S
N1312 H1318 0.984 . S
N1312 H1319 0.984 . S
N1313 C1306 1.356 . S
N1313 H1316 0.984 . S
N1313 H1317 0.985 . S
H1314 N1309 0.984 . S
H1315 N1309 0.985 . S
H1316 N1313 0.984 . S
H1317 N1313 0.985 . S
H1318 N1312 0.984 . S
H1319 N1312 0.984 . S
H1320 N1308 0.984 . S
H1321 N1308 0.985 . S
C1322 C1323 1.363 . S
C1322 C1328 1.379 . S
C1322 N1330 1.356 . S
C1323 C1322 1.363 . S
C1323 C1329 1.363 . S
C1324 C1325 1.363 . S
C1324 C1329 1.379 . S
C1324 N1331 1.356 . S
C1325 C1324 1.363 . S
C1325 C1328 1.363 . S
N1326 C1328 1.356 . S
N1326 H1338 0.984 . S
N1326 H1339 0.985 . S
N1327 C1329 1.356 . S
N1327 H1332 0.984 . S
N1327 H1333 0.985 . S
C1328 C1322 1.379 . S
C1328 C1325 1.363 . S
C1328 N1326 1.356 . S
C1329 C1323 1.363 . S
C1329 C1324 1.379 . S
C1329 N1327 1.356 . S
N1330 C1322 1.356 . S
N1330 H1336 0.984 . S
N1330 H1337 0.984 . S
N1331 C1324 1.356 . S
N1331 H1334 0.984 . S
N1331 H1335 0.985 . S
H1332 N1327 0.984 . S
H1333 N1327 0.985 . S
H1334 N1331 0.984 . S
H1335 N1331 0.985 . S
H1336 N1330 0.984 . S
H1337 N1330 0.984 . S
H1338 N1326 0.984 . S
H1339 N1326 0.985 . S
C1340 C1341 1.363 . S
C1340 C1346 1.379 . S
C1340 N1348 1.356 . S
C1341 C1340 1.363 . S
C1341 C1347 1.363 . S
C1342 C1343 1.363 . S
C1342 C1347 1.379 . S
C1342 N1349 1.356 . S
C1343 C1342 1.363 . S
C1343 C1346 1.363 . S
N1344 C1346 1.356 . S
N1344 H1356 0.984 . S
N1344 H1357 0.985 . S
N1345 C1347 1.356 . S
N1345 H1350 0.984 . S
N1345 H1351 0.985 . S
C1346 C1340 1.379 . S
C1346 C1343 1.363 . S
C1346 N1344 1.356 . S
C1347 C1341 1.363 . S
C1347 C1342 1.379 . S
C1347 N1345 1.356 . S
N1348 C1340 1.356 . S
N1348 H1354 0.984 . S
N1348 H1355 0.984 . S
N1349 C1342 1.356 . S
N1349 H1352 0.984 . S
N1349 H1353 0.985 . S
H1350 N1345 0.984 . S
H1351 N1345 0.985 . S
H1352 N1349 0.984 . S
H1353 N1349 0.985 . S
H1354 N1348 0.984 . S
H1355 N1348 0.984 . S
H1356 N1344 0.984 . S
H1357 N1344 0.985 . S
C1358 C1359 1.363 . S
C1358 C1364 1.379 . S
C1358 N1366 1.356 . S
C1359 C1358 1.363 . S
C1359 C1365 1.363 . S
C1360 C1361 1.363 . S
C1360 C1365 1.379 . S
C1360 N1367 1.356 . S
C1361 C1360 1.363 . S
C1361 C1364 1.363 . S
N1362 C1364 1.356 . S
N1362 H1374 0.984 . S
N1362 H1375 0.985 . S
N1363 C1365 1.356 . S
N1363 H1368 0.984 . S
N1363 H1369 0.985 . S
C1364 C1358 1.379 . S
C1364 C1361 1.363 . S
C1364 N1362 1.356 . S
C1365 C1359 1.363 . S
C1365 C1360 1.379 . S
C1365 N1363 1.356 . S
N1366 C1358 1.356 . S
N1366 H1372 0.984 . S
N1366 H1373 0.984 . S
N1367 C1360 1.356 . S
N1367 H1370 0.984 . S
N1367 H1371 0.985 . S
H1368 N1363 0.984 . S
H1369 N1363 0.985 . S
H1370 N1367 0.984 . S
H1371 N1367 0.985 . S
H1372 N1366 0.984 . S
H1373 N1366 0.984 . S
H1374 N1362 0.984 . S
H1375 N1362 0.985 . S
C1376 C1377 1.363 . S
C1376 C1382 1.379 1_556 S
C1376 N1384 1.356 . S
C1377 C1376 1.363 . S
C1377 C1383 1.363 . S
C1378 C1379 1.363 . S
C1378 C1383 1.379 1_554 S
C1378 N1385 1.356 . S
C1379 C1378 1.363 . S
C1379 C1382 1.363 . S
N1380 C1382 1.356 . S
N1380 H1392 0.984 . S
N1380 H1393 0.985 . S
N1381 C1383 1.356 . S
N1381 H1386 0.984 . S
N1381 H1387 0.985 . S
C1382 C1376 1.379 1_554 S
C1382 C1379 1.363 . S
C1382 N1380 1.356 . S
C1383 C1377 1.363 . S
C1383 C1378 1.379 1_556 S
C1383 N1381 1.356 . S
N1384 C1376 1.356 . S
N1384 H1390 0.984 . S
N1384 H1391 0.984 . S
N1385 C1378 1.356 . S
N1385 H1388 0.984 . S
N1385 H1389 0.985 . S
H1386 N1381 0.984 . S
H1387 N1381 0.985 . S
H1388 N1385 0.984 . S
H1389 N1385 0.985 . S
H1390 N1384 0.984 . S
H1391 N1384 0.984 . S
H1392 N1380 0.984 . S
H1393 N1380 0.985 . S
C1394 C1395 1.363 1_565 S
C1394 C1400 1.379 . S
C1394 N1402 1.356 . S
C1395 C1394 1.363 1_545 S
C1395 C1401 1.363 . S
C1396 C1397 1.363 1_545 S
C1396 C1401 1.379 . S
C1396 N1403 1.356 . S
C1397 C1396 1.363 1_565 S
C1397 C1400 1.363 . S
N1398 C1400 1.356 . S
N1398 H1410 0.984 . S
N1398 H1411 0.985 . S
N1399 C1401 1.356 . S
N1399 H1404 0.984 . S
N1399 H1405 0.985 1_455 S
C1400 C1394 1.379 . S
C1400 C1397 1.363 . S
C1400 N1398 1.356 . S
C1401 C1395 1.363 . S
C1401 C1396 1.379 . S
C1401 N1399 1.356 . S
N1402 C1394 1.356 . S
N1402 H1408 0.984 . S
N1402 H1409 0.984 . S
N1403 C1396 1.356 . S
N1403 H1406 0.984 . S
N1403 H1407 0.985 1_455 S
H1404 N1399 0.984 . S
H1405 N1399 0.985 1_655 S
H1406 N1403 0.984 . S
H1407 N1403 0.985 1_655 S
H1408 N1402 0.984 . S
H1409 N1402 0.984 . S
H1410 N1398 0.984 . S
H1411 N1398 0.985 . S
C1412 C1413 1.363 . S
C1412 C1418 1.379 . S
C1412 N1420 1.356 . S
C1413 C1412 1.363 . S
C1413 C1419 1.363 . S
C1414 C1415 1.363 . S
C1414 C1419 1.379 . S
C1414 N1421 1.356 . S
C1415 C1414 1.363 . S
C1415 C1418 1.363 . S
N1416 C1418 1.356 . S
N1416 H1428 0.984 . S
N1416 H1429 0.985 . S
N1417 C1419 1.356 . S
N1417 H1422 0.984 . S
N1417 H1423 0.985 . S
C1418 C1412 1.379 . S
C1418 C1415 1.363 . S
C1418 N1416 1.356 . S
C1419 C1413 1.363 . S
C1419 C1414 1.379 . S
C1419 N1417 1.356 . S
N1420 C1412 1.356 . S
N1420 H1426 0.984 . S
N1420 H1427 0.984 . S
N1421 C1414 1.356 . S
N1421 H1424 0.984 . S
N1421 H1425 0.985 . S
H1422 N1417 0.984 . S
H1423 N1417 0.985 . S
H1424 N1421 0.984 . S
H1425 N1421 0.985 . S
H1426 N1420 0.984 . S
H1427 N1420 0.984 . S
H1428 N1416 0.984 . S
H1429 N1416 0.985 . S
C1430 C1431 1.363 . S
C1430 C1436 1.379 . S
C1430 N1438 1.356 . S
C1431 C1430 1.363 . S
C1431 C1437 1.363 1_565 S
C1432 C1433 1.363 . S
C1432 C1437 1.379 . S
C1432 N1439 1.356 . S
C1433 C1432 1.363 . S
C1433 C1436 1.363 1_545 S
N1434 C1436 1.356 . S
N1434 H1446 0.984 . S
N1434 H1447 0.985 . S
N1435 C1437 1.356 . S
N1435 H1440 0.984 . S
N1435 H1441 0.985 . S
C1436 C1430 1.379 . S
C1436 C1433 1.363 1_565 S
C1436 N1434 1.356 . S
C1437 C1431 1.363 1_545 S
C1437 C1432 1.379 . S
C1437 N1435 1.356 . S
N1438 C1430 1.356 . S
N1438 H1444 0.984 . S
N1438 H1445 0.984 . S
N1439 C1432 1.356 . S
N1439 H1442 0.984 . S
N1439 H1443 0.985 . S
H1440 N1435 0.984 . S
H1441 N1435 0.985 . S
H1442 N1439 0.984 . S
H1443 N1439 0.985 . S
H1444 N1438 0.984 . S
H1445 N1438 0.984 . S
H1446 N1434 0.984 . S
H1447 N1434 0.985 . S
C1448 C1449 1.363 . S
C1448 C1454 1.379 1_556 S
C1448 N1456 1.356 . S
C1449 C1448 1.363 . S
C1449 C1455 1.363 . S
C1450 C1451 1.363 . S
C1450 C1455 1.379 1_554 S
C1450 N1457 1.356 . S
C1451 C1450 1.363 . S
C1451 C1454 1.363 . S
N1452 C1454 1.356 . S
N1452 H1464 0.984 . S
N1452 H1465 0.985 . S
N1453 C1455 1.356 . S
N1453 H1458 0.984 . S
N1453 H1459 0.985 . S
C1454 C1448 1.379 1_554 S
C1454 C1451 1.363 . S
C1454 N1452 1.356 . S
C1455 C1449 1.363 . S
C1455 C1450 1.379 1_556 S
C1455 N1453 1.356 . S
N1456 C1448 1.356 . S
N1456 H1462 0.984 . S
N1456 H1463 0.984 . S
N1457 C1450 1.356 . S
N1457 H1460 0.984 . S
N1457 H1461 0.985 . S
H1458 N1453 0.984 . S
H1459 N1453 0.985 . S
H1460 N1457 0.984 . S
H1461 N1457 0.985 . S
H1462 N1456 0.984 . S
H1463 N1456 0.984 . S
H1464 N1452 0.984 . S
H1465 N1452 0.985 . S
C1466 C1467 1.363 1_565 S
C1466 C1472 1.379 . S
C1466 N1474 1.356 . S
C1467 C1466 1.363 1_545 S
C1467 C1473 1.363 . S
C1468 C1469 1.363 1_545 S
C1468 C1473 1.379 . S
C1468 N1475 1.356 1_655 S
C1469 C1468 1.363 1_565 S
C1469 C1472 1.363 . S
N1470 C1472 1.356 . S
N1470 H1482 0.984 . S
N1470 H1483 0.985 . S
N1471 C1473 1.356 1_455 S
N1471 H1476 0.984 . S
N1471 H1477 0.985 . S
C1472 C1466 1.379 . S
C1472 C1469 1.363 . S
C1472 N1470 1.356 . S
C1473 C1467 1.363 . S
C1473 C1468 1.379 . S
C1473 N1471 1.356 1_655 S
N1474 C1466 1.356 . S
N1474 H1480 0.984 . S
N1474 H1481 0.984 1_565 S
N1475 C1468 1.356 1_455 S
N1475 H1478 0.984 1_545 S
N1475 H1479 0.985 . S
H1476 N1471 0.984 . S
H1477 N1471 0.985 . S
H1478 N1475 0.984 1_565 S
H1479 N1475 0.985 . S
H1480 N1474 0.984 . S
H1481 N1474 0.984 1_545 S
H1482 N1470 0.984 . S
H1483 N1470 0.985 . S
C1484 C1485 1.363 . S
C1484 C1490 1.379 . S
C1484 N1492 1.356 . S
C1485 C1484 1.363 . S
C1485 C1491 1.363 . S
C1486 C1487 1.363 . S
C1486 C1491 1.379 . S
C1486 N1493 1.356 . S
C1487 C1486 1.363 . S
C1487 C1490 1.363 . S
N1488 C1490 1.356 . S
N1488 H1500 0.984 . S
N1488 H1501 0.985 . S
N1489 C1491 1.356 . S
N1489 H1494 0.984 . S
N1489 H1495 0.985 . S
C1490 C1484 1.379 . S
C1490 C1487 1.363 . S
C1490 N1488 1.356 . S
C1491 C1485 1.363 . S
C1491 C1486 1.379 . S
C1491 N1489 1.356 . S
N1492 C1484 1.356 . S
N1492 H1498 0.984 . S
N1492 H1499 0.984 . S
N1493 C1486 1.356 . S
N1493 H1496 0.984 . S
N1493 H1497 0.985 . S
H1494 N1489 0.984 . S
H1495 N1489 0.985 . S
H1496 N1493 0.984 . S
H1497 N1493 0.985 . S
H1498 N1492 0.984 . S
H1499 N1492 0.984 . S
H1500 N1488 0.984 . S
H1501 N1488 0.985 . S
C1502 C1503 1.363 . S
C1502 C1508 1.379 . S
C1502 N1510 1.356 . S
C1503 C1502 1.363 . S
C1503 C1509 1.363 1_565 S
C1504 C1505 1.363 . S
C1504 C1509 1.379 . S
C1504 N1511 1.356 . S
C1505 C1504 1.363 . S
C1505 C1508 1.363 1_545 S
N1506 C1508 1.356 . S
N1506 H1518 0.984 . S
N1506 H1519 0.985 . S
N1507 C1509 1.356 . S
N1507 H1512 0.984 . S
N1507 H1513 0.985 . S
C1508 C1502 1.379 . S
C1508 C1505 1.363 1_565 S
C1508 N1506 1.356 . S
C1509 C1503 1.363 1_545 S
C1509 C1504 1.379 . S
C1509 N1507 1.356 . S
N1510 C1502 1.356 . S
N1510 H1516 0.984 . S
N1510 H1517 0.984 . S
N1511 C1504 1.356 . S
N1511 H1514 0.984 . S
N1511 H1515 0.985 . S
H1512 N1507 0.984 . S
H1513 N1507 0.985 . S
H1514 N1511 0.984 . S
H1515 N1511 0.985 . S
H1516 N1510 0.984 . S
H1517 N1510 0.984 . S
H1518 N1506 0.984 . S
H1519 N1506 0.985 . S
C1520 C1521 1.363 . S
C1520 C1526 1.379 . S
C1520 N1528 1.356 . S
C1521 C1520 1.363 . S
C1521 C1527 1.363 . S
C1522 C1523 1.363 . S
C1522 C1527 1.379 . S
C1522 N1529 1.356 . S
C1523 C1522 1.363 . S
C1523 C1526 1.363 . S
N1524 C1526 1.356 . S
N1524 H1536 0.984 . S
N1524 H1537 0.985 . S
N1525 C1527 1.356 . S
N1525 H1530 0.984 . S
N1525 H1531 0.985 . S
C1526 C1520 1.379 . S
C1526 C1523 1.363 . S
C1526 N1524 1.356 . S
C1527 C1521 1.363 . S
C1527 C1522 1.379 . S
C1527 N1525 1.356 . S
N1528 C1520 1.356 . S
N1528 H1534 0.984 . S
N1528 H1535 0.984 . S
N1529 C1522 1.356 . S
N1529 H1532 0.984 . S
N1529 H1533 0.985 . S
H1530 N1525 0.984 . S
H1531 N1525 0.985 . S
H1532 N1529 0.984 . S
H1533 N1529 0.985 . S
H1534 N1528 0.984 . S
H1535 N1528 0.984 . S
H1536 N1524 0.984 . S
H1537 N1524 0.985 . S
C1538 C1539 1.363 . S
C1538 C1544 1.379 . S
C1538 N1546 1.356 . S
C1539 C1538 1.363 . S
C1539 C1545 1.363 . S
C1540 C1541 1.363 . S
C1540 C1545 1.379 . S
C1540 N1547 1.356 . S
C1541 C1540 1.363 . S
C1541 C1544 1.363 . S
N1542 C1544 1.356 . S
N1542 H1554 0.984 . S
N1542 H1555 0.985 . S
N1543 C1545 1.356 . S
N1543 H1548 0.984 . S
N1543 H1549 0.985 . S
C1544 C1538 1.379 . S
C1544 C1541 1.363 . S
C1544 N1542 1.356 . S
C1545 C1539 1.363 . S
C1545 C1540 1.379 . S
C1545 N1543 1.356 . S
N1546 C1538 1.356 . S
N1546 H1552 0.984 . S
N1546 H1553 0.984 . S
N1547 C1540 1.356 . S
N1547 H1550 0.984 . S
N1547 H1551 0.985 . S
H1548 N1543 0.984 . S
H1549 N1543 0.985 . S
H1550 N1547 0.984 . S
H1551 N1547 0.985 . S
H1552 N1546 0.984 . S
H1553 N1546 0.984 . S
H1554 N1542 0.984 . S
H1555 N1542 0.985 . S
C1556 C1557 1.363 . S
C1556 C1562 1.379 1_556 S
C1556 N1564 1.356 . S
C1557 C1556 1.363 . S
C1557 C1563 1.363 . S
C1558 C1559 1.363 . S
C1558 C1563 1.379 1_554 S
C1558 N1565 1.356 . S
C1559 C1558 1.363 . S
C1559 C1562 1.363 . S
N1560 C1562 1.356 . S
N1560 H1572 0.984 . S
N1560 H1573 0.985 . S
N1561 C1563 1.356 . S
N1561 H1566 0.984 . S
N1561 H1567 0.985 . S
C1562 C1556 1.379 1_554 S
C1562 C1559 1.363 . S
C1562 N1560 1.356 . S
C1563 C1557 1.363 . S
C1563 C1558 1.379 1_556 S
C1563 N1561 1.356 . S
N1564 C1556 1.356 . S
N1564 H1570 0.984 . S
N1564 H1571 0.984 . S
N1565 C1558 1.356 . S
N1565 H1568 0.984 . S
N1565 H1569 0.985 . S
H1566 N1561 0.984 . S
H1567 N1561 0.985 . S
H1568 N1565 0.984 . S
H1569 N1565 0.985 . S
H1570 N1564 0.984 . S
H1571 N1564 0.984 . S
H1572 N1560 0.984 . S
H1573 N1560 0.985 . S
C1574 C1575 1.363 . S
C1574 C1580 1.379 . S
C1574 N1582 1.356 . S
C1575 C1574 1.363 . S
C1575 C1581 1.363 . S
C1576 C1577 1.363 . S
C1576 C1581 1.379 . S
C1576 N1583 1.356 . S
C1577 C1576 1.363 . S
C1577 C1580 1.363 . S
N1578 C1580 1.356 . S
N1578 H1590 0.984 . S
N1578 H1591 0.985 . S
N1579 C1581 1.356 . S
N1579 H1584 0.984 . S
N1579 H1585 0.985 1_655 S
C1580 C1574 1.379 . S
C1580 C1577 1.363 . S
C1580 N1578 1.356 . S
C1581 C1575 1.363 . S
C1581 C1576 1.379 . S
C1581 N1579 1.356 . S
N1582 C1574 1.356 . S
N1582 H1588 0.984 . S
N1582 H1589 0.984 . S
N1583 C1576 1.356 . S
N1583 H1586 0.984 . S
N1583 H1587 0.985 1_655 S
H1584 N1579 0.984 . S
H1585 N1579 0.985 1_455 S
H1586 N1583 0.984 . S
H1587 N1583 0.985 1_455 S
H1588 N1582 0.984 . S
H1589 N1582 0.984 . S
H1590 N1578 0.984 . S
H1591 N1578 0.985 . S
C1592 C1593 1.363 . S
C1592 C1598 1.379 . S
C1592 N1600 1.356 . S
C1593 C1592 1.363 . S
C1593 C1599 1.363 . S
C1594 C1595 1.363 . S
C1594 C1599 1.379 . S
C1594 N1601 1.356 . S
C1595 C1594 1.363 . S
C1595 C1598 1.363 . S
N1596 C1598 1.356 . S
N1596 H1608 0.984 . S
N1596 H1609 0.985 . S
N1597 C1599 1.356 . S
N1597 H1602 0.984 . S
N1597 H1603 0.985 . S
C1598 C1592 1.379 . S
C1598 C1595 1.363 . S
C1598 N1596 1.356 . S
C1599 C1593 1.363 . S
C1599 C1594 1.379 . S
C1599 N1597 1.356 . S
N1600 C1592 1.356 . S
N1600 H1606 0.984 . S
N1600 H1607 0.984 . S
N1601 C1594 1.356 . S
N1601 H1604 0.984 . S
N1601 H1605 0.985 . S
H1602 N1597 0.984 . S
H1603 N1597 0.985 . S
H1604 N1601 0.984 . S
H1605 N1601 0.985 . S
H1606 N1600 0.984 . S
H1607 N1600 0.984 . S
H1608 N1596 0.984 . S
H1609 N1596 0.985 . S
C1610 C1611 1.363 . S
C1610 C1616 1.379 . S
C1610 N1618 1.356 . S
C1611 C1610 1.363 . S
C1611 C1617 1.363 . S
C1612 C1613 1.363 . S
C1612 C1617 1.379 . S
C1612 N1619 1.356 . S
C1613 C1612 1.363 . S
C1613 C1616 1.363 . S
N1614 C1616 1.356 . S
N1614 H1626 0.984 . S
N1614 H1627 0.985 . S
N1615 C1617 1.356 . S
N1615 H1620 0.984 . S
N1615 H1621 0.985 . S
C1616 C1610 1.379 . S
C1616 C1613 1.363 . S
C1616 N1614 1.356 . S
C1617 C1611 1.363 . S
C1617 C1612 1.379 . S
C1617 N1615 1.356 . S
N1618 C1610 1.356 . S
N1618 H1624 0.984 . S
N1618 H1625 0.984 . S
N1619 C1612 1.356 . S
N1619 H1622 0.984 . S
N1619 H1623 0.985 . S
H1620 N1615 0.984 . S
H1621 N1615 0.985 . S
H1622 N1619 0.984 . S
H1623 N1619 0.985 . S
H1624 N1618 0.984 . S
H1625 N1618 0.984 . S
H1626 N1614 0.984 . S
H1627 N1614 0.985 . S
C1628 C1629 1.363 . S
C1628 C1634 1.379 1_554 S
C1628 N1636 1.356 . S
C1629 C1628 1.363 . S
C1629 C1635 1.363 . S
C1630 C1631 1.363 . S
C1630 C1635 1.379 1_556 S
C1630 N1637 1.356 . S
C1631 C1630 1.363 . S
C1631 C1634 1.363 . S
N1632 C1634 1.356 . S
N1632 H1644 0.984 . S
N1632 H1645 0.985 . S
N1633 C1635 1.356 . S
N1633 H1638 0.984 . S
N1633 H1639 0.985 . S
C1634 C1628 1.379 1_556 S
C1634 C1631 1.363 . S
C1634 N1632 1.356 . S
C1635 C1629 1.363 . S
C1635 C1630 1.379 1_554 S
C1635 N1633 1.356 . S
N1636 C1628 1.356 . S
N1636 H1642 0.984 . S
N1636 H1643 0.984 . S
N1637 C1630 1.356 . S
N1637 H1640 0.984 . S
N1637 H1641 0.985 . S
H1638 N1633 0.984 . S
H1639 N1633 0.985 . S
H1640 N1637 0.984 . S
H1641 N1637 0.985 . S
H1642 N1636 0.984 . S
H1643 N1636 0.984 . S
H1644 N1632 0.984 . S
H1645 N1632 0.985 . S
C1646 C1647 1.363 . S
C1646 C1652 1.379 . S
C1646 N1654 1.356 . S
C1647 C1646 1.363 . S
C1647 C1653 1.363 . S
C1648 C1649 1.363 . S
C1648 C1653 1.379 . S
C1648 N1655 1.356 . S
C1649 C1648 1.363 . S
C1649 C1652 1.363 . S
N1650 C1652 1.356 . S
N1650 H1662 0.984 1_455 S
N1650 H1663 0.985 . S
N1651 C1653 1.356 . S
N1651 H1656 0.984 . S
N1651 H1657 0.985 . S
C1652 C1646 1.379 . S
C1652 C1649 1.363 . S
C1652 N1650 1.356 . S
C1653 C1647 1.363 . S
C1653 C1648 1.379 . S
C1653 N1651 1.356 . S
N1654 C1646 1.356 . S
N1654 H1660 0.984 1_455 S
N1654 H1661 0.984 . S
N1655 C1648 1.356 . S
N1655 H1658 0.984 . S
N1655 H1659 0.985 . S
H1656 N1651 0.984 . S
H1657 N1651 0.985 . S
H1658 N1655 0.984 . S
H1659 N1655 0.985 . S
H1660 N1654 0.984 1_655 S
H1661 N1654 0.984 . S
H1662 N1650 0.984 1_655 S
H1663 N1650 0.985 . S
C1664 C1665 1.363 . S
C1664 C1670 1.379 . S
C1664 N1672 1.356 . S
C1665 C1664 1.363 . S
C1665 C1671 1.363 . S
C1666 C1667 1.363 . S
C1666 C1671 1.379 . S
C1666 N1673 1.356 . S
C1667 C1666 1.363 . S
C1667 C1670 1.363 . S
N1668 C1670 1.356 . S
N1668 H1680 0.984 . S
N1668 H1681 0.985 . S
N1669 C1671 1.356 . S
N1669 H1674 0.984 . S
N1669 H1675 0.985 . S
C1670 C1664 1.379 . S
C1670 C1667 1.363 . S
C1670 N1668 1.356 . S
C1671 C1665 1.363 . S
C1671 C1666 1.379 . S
C1671 N1669 1.356 . S
N1672 C1664 1.356 . S
N1672 H1678 0.984 . S
N1672 H1679 0.984 . S
N1673 C1666 1.356 . S
N1673 H1676 0.984 1_565 S
N1673 H1677 0.985 . S
H1674 N1669 0.984 . S
H1675 N1669 0.985 . S
H1676 N1673 0.984 1_545 S
H1677 N1673 0.985 . S
H1678 N1672 0.984 . S
H1679 N1672 0.984 . S
H1680 N1668 0.984 . S
H1681 N1668 0.985 . S
C1682 C1683 1.363 . S
C1682 C1688 1.379 . S
C1682 N1690 1.356 . S
C1683 C1682 1.363 . S
C1683 C1689 1.363 1_545 S
C1684 C1685 1.363 1_565 S
C1684 C1689 1.379 . S
C1684 N1691 1.356 . S
C1685 C1684 1.363 1_545 S
C1685 C1688 1.363 . S
N1686 C1688 1.356 . S
N1686 H1698 0.984 . S
N1686 H1699 0.985 . S
N1687 C1689 1.356 . S
N1687 H1692 0.984 . S
N1687 H1693 0.985 . S
C1688 C1682 1.379 . S
C1688 C1685 1.363 . S
C1688 N1686 1.356 . S
C1689 C1683 1.363 1_565 S
C1689 C1684 1.379 . S
C1689 N1687 1.356 . S
N1690 C1682 1.356 . S
N1690 H1696 0.984 . S
N1690 H1697 0.984 . S
N1691 C1684 1.356 . S
N1691 H1694 0.984 . S
N1691 H1695 0.985 . S
H1692 N1687 0.984 . S
H1693 N1687 0.985 . S
H1694 N1691 0.984 . S
H1695 N1691 0.985 . S
H1696 N1690 0.984 . S
H1697 N1690 0.984 . S
H1698 N1686 0.984 . S
H1699 N1686 0.985 . S
C1700 C1701 1.363 . S
C1700 C1706 1.379 . S
C1700 N1708 1.356 . S
C1701 C1700 1.363 . S
C1701 C1707 1.363 . S
C1702 C1703 1.363 . S
C1702 C1707 1.379 . S
C1702 N1709 1.356 . S
C1703 C1702 1.363 . S
C1703 C1706 1.363 . S
N1704 C1706 1.356 . S
N1704 H1716 0.984 . S
N1704 H1717 0.985 . S
N1705 C1707 1.356 . S
N1705 H1710 0.984 . S
N1705 H1711 0.985 . S
C1706 C1700 1.379 . S
C1706 C1703 1.363 . S
C1706 N1704 1.356 . S
C1707 C1701 1.363 . S
C1707 C1702 1.379 . S
C1707 N1705 1.356 . S
N1708 C1700 1.356 . S
N1708 H1714 0.984 . S
N1708 H1715 0.984 . S
N1709 C1702 1.356 . S
N1709 H1712 0.984 1_545 S
N1709 H1713 0.985 . S
H1710 N1705 0.984 . S
H1711 N1705 0.985 . S
H1712 N1709 0.984 1_565 S
H1713 N1709 0.985 . S
H1714 N1708 0.984 . S
H1715 N1708 0.984 . S
H1716 N1704 0.984 . S
H1717 N1704 0.985 . S
C1718 C1719 1.363 . S
C1718 C1724 1.379 . S
C1718 N1726 1.356 . S
C1719 C1718 1.363 . S
C1719 C1725 1.363 1_565 S
C1720 C1721 1.363 1_545 S
C1720 C1725 1.379 . S
C1720 N1727 1.356 . S
C1721 C1720 1.363 1_565 S
C1721 C1724 1.363 . S
N1722 C1724 1.356 . S
N1722 H1734 0.984 . S
N1722 H1735 0.985 . S
N1723 C1725 1.356 . S
N1723 H1728 0.984 . S
N1723 H1729 0.985 . S
C1724 C1718 1.379 . S
C1724 C1721 1.363 . S
C1724 N1722 1.356 . S
C1725 C1719 1.363 1_545 S
C1725 C1720 1.379 . S
C1725 N1723 1.356 . S
N1726 C1718 1.356 . S
N1726 H1732 0.984 . S
N1726 H1733 0.984 . S
N1727 C1720 1.356 . S
N1727 H1730 0.984 . S
N1727 H1731 0.985 . S
H1728 N1723 0.984 . S
H1729 N1723 0.985 . S
H1730 N1727 0.984 . S
H1731 N1727 0.985 . S
H1732 N1726 0.984 . S
H1733 N1726 0.984 . S
H1734 N1722 0.984 . S
H1735 N1722 0.985 . S
C1736 C1737 1.363 . S
C1736 C1742 1.379 . S
C1736 N1744 1.356 . S
C1737 C1736 1.363 . S
C1737 C1743 1.363 . S
C1738 C1739 1.363 . S
C1738 C1743 1.379 . S
C1738 N1745 1.356 . S
C1739 C1738 1.363 . S
C1739 C1742 1.363 . S
N1740 C1742 1.356 . S
N1740 H1752 0.984 . S
N1740 H1753 0.985 1_545 S
N1741 C1743 1.356 . S
N1741 H1746 0.984 . S
N1741 H1747 0.985 . S
C1742 C1736 1.379 . S
C1742 C1739 1.363 . S
C1742 N1740 1.356 . S
C1743 C1737 1.363 . S
C1743 C1738 1.379 . S
C1743 N1741 1.356 . S
N1744 C1736 1.356 . S
N1744 H1750 0.984 . S
N1744 H1751 0.984 . S
N1745 C1738 1.356 . S
N1745 H1748 0.984 . S
N1745 H1749 0.985 . S
H1746 N1741 0.984 . S
H1747 N1741 0.985 . S
H1748 N1745 0.984 . S
H1749 N1745 0.985 . S
H1750 N1744 0.984 . S
H1751 N1744 0.984 . S
H1752 N1740 0.984 . S
H1753 N1740 0.985 1_565 S
C1754 C1755 1.363 1_565 S
C1754 C1760 1.379 . S
C1754 N1762 1.356 . S
C1755 C1754 1.363 1_545 S
C1755 C1761 1.363 . S
C1756 C1757 1.363 . S
C1756 C1761 1.379 . S
C1756 N1763 1.356 . S
C1757 C1756 1.363 . S
C1757 C1760 1.363 1_545 S
N1758 C1760 1.356 . S
N1758 H1770 0.984 . S
N1758 H1771 0.985 . S
N1759 C1761 1.356 . S
N1759 H1764 0.984 . S
N1759 H1765 0.985 . S
C1760 C1754 1.379 . S
C1760 C1757 1.363 1_565 S
C1760 N1758 1.356 . S
C1761 C1755 1.363 . S
C1761 C1756 1.379 . S
C1761 N1759 1.356 . S
N1762 C1754 1.356 . S
N1762 H1768 0.984 . S
N1762 H1769 0.984 . S
N1763 C1756 1.356 . S
N1763 H1766 0.984 . S
N1763 H1767 0.985 . S
H1764 N1759 0.984 . S
H1765 N1759 0.985 . S
H1766 N1763 0.984 . S
H1767 N1763 0.985 . S
H1768 N1762 0.984 . S
H1769 N1762 0.984 . S
H1770 N1758 0.984 . S
H1771 N1758 0.985 . S
C1772 C1773 1.363 . S
C1772 C1778 1.379 . S
C1772 N1780 1.356 . S
C1773 C1772 1.363 . S
C1773 C1779 1.363 . S
C1774 C1775 1.363 . S
C1774 C1779 1.379 . S
C1774 N1781 1.356 . S
C1775 C1774 1.363 . S
C1775 C1778 1.363 . S
N1776 C1778 1.356 . S
N1776 H1788 0.984 . S
N1776 H1789 0.985 . S
N1777 C1779 1.356 . S
N1777 H1782 0.984 . S
N1777 H1783 0.985 . S
C1778 C1772 1.379 . S
C1778 C1775 1.363 . S
C1778 N1776 1.356 . S
C1779 C1773 1.363 . S
C1779 C1774 1.379 . S
C1779 N1777 1.356 . S
N1780 C1772 1.356 . S
N1780 H1786 0.984 . S
N1780 H1787 0.984 . S
N1781 C1774 1.356 . S
N1781 H1784 0.984 1_565 S
N1781 H1785 0.985 . S
H1782 N1777 0.984 . S
H1783 N1777 0.985 . S
H1784 N1781 0.984 1_545 S
H1785 N1781 0.985 . S
H1786 N1780 0.984 . S
H1787 N1780 0.984 . S
H1788 N1776 0.984 . S
H1789 N1776 0.985 . S
C1790 C1791 1.363 . S
C1790 C1796 1.379 . S
C1790 N1798 1.356 . S
C1791 C1790 1.363 . S
C1791 C1797 1.363 1_565 S
C1792 C1793 1.363 1_545 S
C1792 C1797 1.379 . S
C1792 N1799 1.356 . S
C1793 C1792 1.363 1_565 S
C1793 C1796 1.363 . S
N1794 C1796 1.356 . S
N1794 H1806 0.984 . S
N1794 H1807 0.985 . S
N1795 C1797 1.356 . S
N1795 H1800 0.984 . S
N1795 H1801 0.985 . S
C1796 C1790 1.379 . S
C1796 C1793 1.363 . S
C1796 N1794 1.356 . S
C1797 C1791 1.363 1_545 S
C1797 C1792 1.379 . S
C1797 N1795 1.356 . S
N1798 C1790 1.356 . S
N1798 H1804 0.984 . S
N1798 H1805 0.984 . S
N1799 C1792 1.356 . S
N1799 H1802 0.984 . S
N1799 H1803 0.985 . S
H1800 N1795 0.984 . S
H1801 N1795 0.985 . S
H1802 N1799 0.984 . S
H1803 N1799 0.985 . S
H1804 N1798 0.984 . S
H1805 N1798 0.984 . S
H1806 N1794 0.984 . S
H1807 N1794 0.985 . S
C1808 C1809 1.363 . S
C1808 C1814 1.379 . S
C1808 N1816 1.356 . S
C1809 C1808 1.363 . S
C1809 C1815 1.363 . S
C1810 C1811 1.363 . S
C1810 C1815 1.379 . S
C1810 N1817 1.356 . S
C1811 C1810 1.363 . S
C1811 C1814 1.363 . S
N1812 C1814 1.356 . S
N1812 H1824 0.984 . S
N1812 H1825 0.985 . S
N1813 C1815 1.356 . S
N1813 H1818 0.984 . S
N1813 H1819 0.985 . S
C1814 C1808 1.379 . S
C1814 C1811 1.363 . S
C1814 N1812 1.356 . S
C1815 C1809 1.363 . S
C1815 C1810 1.379 . S
C1815 N1813 1.356 . S
N1816 C1808 1.356 . S
N1816 H1822 0.984 . S
N1816 H1823 0.984 1_545 S
N1817 C1810 1.356 . S
N1817 H1820 0.984 . S
N1817 H1821 0.985 . S
H1818 N1813 0.984 . S
H1819 N1813 0.985 . S
H1820 N1817 0.984 . S
H1821 N1817 0.985 . S
H1822 N1816 0.984 . S
H1823 N1816 0.984 1_565 S
H1824 N1812 0.984 . S
H1825 N1812 0.985 . S
C1826 C1827 1.363 1_545 S
C1826 C1832 1.379 . S
C1826 N1834 1.356 . S
C1827 C1826 1.363 1_565 S
C1827 C1833 1.363 . S
C1828 C1829 1.363 . S
C1828 C1833 1.379 . S
C1828 N1835 1.356 . S
C1829 C1828 1.363 . S
C1829 C1832 1.363 1_565 S
N1830 C1832 1.356 . S
N1830 H1842 0.984 . S
N1830 H1843 0.985 . S
N1831 C1833 1.356 . S
N1831 H1836 0.984 . S
N1831 H1837 0.985 . S
C1832 C1826 1.379 . S
C1832 C1829 1.363 1_545 S
C1832 N1830 1.356 . S
C1833 C1827 1.363 . S
C1833 C1828 1.379 . S
C1833 N1831 1.356 . S
N1834 C1826 1.356 . S
N1834 H1840 0.984 . S
N1834 H1841 0.984 . S
N1835 C1828 1.356 . S
N1835 H1838 0.984 . S
N1835 H1839 0.985 . S
H1836 N1831 0.984 . S
H1837 N1831 0.985 . S
H1838 N1835 0.984 . S
H1839 N1835 0.985 . S
H1840 N1834 0.984 . S
H1841 N1834 0.984 . S
H1842 N1830 0.984 . S
H1843 N1830 0.985 . S
C1844 C1845 1.363 . S
C1844 C1850 1.379 . S
C1844 N1852 1.356 . S
C1845 C1844 1.363 . S
C1845 C1851 1.363 . S
C1846 C1847 1.363 . S
C1846 C1851 1.379 . S
C1846 N1853 1.356 . S
C1847 C1846 1.363 . S
C1847 C1850 1.363 . S
N1848 C1850 1.356 . S
N1848 H1860 0.984 . S
N1848 H1861 0.985 . S
N1849 C1851 1.356 . S
N1849 H1854 0.984 . S
N1849 H1855 0.985 . S
C1850 C1844 1.379 . S
C1850 C1847 1.363 . S
C1850 N1848 1.356 . S
C1851 C1845 1.363 . S
C1851 C1846 1.379 . S
C1851 N1849 1.356 . S
N1852 C1844 1.356 . S
N1852 H1858 0.984 . S
N1852 H1859 0.984 1_565 S
N1853 C1846 1.356 . S
N1853 H1856 0.984 . S
N1853 H1857 0.985 . S
H1854 N1849 0.984 . S
H1855 N1849 0.985 . S
H1856 N1853 0.984 . S
H1857 N1853 0.985 . S
H1858 N1852 0.984 . S
H1859 N1852 0.984 1_545 S
H1860 N1848 0.984 . S
H1861 N1848 0.985 . S
C1862 C1863 1.363 1_565 S
C1862 C1868 1.379 . S
C1862 N1870 1.356 . S
C1863 C1862 1.363 1_545 S
C1863 C1869 1.363 . S
C1864 C1865 1.363 . S
C1864 C1869 1.379 . S
C1864 N1871 1.356 . S
C1865 C1864 1.363 . S
C1865 C1868 1.363 1_545 S
N1866 C1868 1.356 . S
N1866 H1878 0.984 . S
N1866 H1879 0.985 . S
N1867 C1869 1.356 . S
N1867 H1872 0.984 . S
N1867 H1873 0.985 . S
C1868 C1862 1.379 . S
C1868 C1865 1.363 1_565 S
C1868 N1866 1.356 . S
C1869 C1863 1.363 . S
C1869 C1864 1.379 . S
C1869 N1867 1.356 . S
N1870 C1862 1.356 . S
N1870 H1876 0.984 . S
N1870 H1877 0.984 . S
N1871 C1864 1.356 . S
N1871 H1874 0.984 . S
N1871 H1875 0.985 . S
H1872 N1867 0.984 . S
H1873 N1867 0.985 . S
H1874 N1871 0.984 . S
H1875 N1871 0.985 . S
H1876 N1870 0.984 . S
H1877 N1870 0.984 . S
H1878 N1866 0.984 . S
H1879 N1866 0.985 . S
C1880 C1881 1.363 . S
C1880 C1886 1.379 . S
C1880 N1888 1.356 . S
C1881 C1880 1.363 . S
C1881 C1887 1.363 . S
C1882 C1883 1.363 . S
C1882 C1887 1.379 . S
C1882 N1889 1.356 . S
C1883 C1882 1.363 . S
C1883 C1886 1.363 . S
N1884 C1886 1.356 . S
N1884 H1896 0.984 . S
N1884 H1897 0.985 . S
N1885 C1887 1.356 . S
N1885 H1890 0.984 . S
N1885 H1891 0.985 . S
C1886 C1880 1.379 . S
C1886 C1883 1.363 . S
C1886 N1884 1.356 . S
C1887 C1881 1.363 . S
C1887 C1882 1.379 . S
C1887 N1885 1.356 . S
N1888 C1880 1.356 . S
N1888 H1894 0.984 . S
N1888 H1895 0.984 . S
N1889 C1882 1.356 . S
N1889 H1892 0.984 1_565 S
N1889 H1893 0.985 . S
H1890 N1885 0.984 . S
H1891 N1885 0.985 . S
H1892 N1889 0.984 1_545 S
H1893 N1889 0.985 . S
H1894 N1888 0.984 . S
H1895 N1888 0.984 . S
H1896 N1884 0.984 . S
H1897 N1884 0.985 . S
C1898 C1899 1.363 . S
C1898 C1904 1.379 . S
C1898 N1906 1.356 . S
C1899 C1898 1.363 . S
C1899 C1905 1.363 . S
C1900 C1901 1.363 . S
C1900 C1905 1.379 . S
C1900 N1907 1.356 . S
C1901 C1900 1.363 . S
C1901 C1904 1.363 . S
N1902 C1904 1.356 . S
N1902 H1914 0.984 . S
N1902 H1915 0.985 . S
N1903 C1905 1.360 . S
N1903 H1908 0.985 . S
N1903 H1909 0.981 1_565 S
C1904 C1898 1.379 . S
C1904 C1901 1.363 . S
C1904 N1902 1.356 . S
C1905 C1899 1.363 . S
C1905 C1900 1.379 . S
C1905 N1903 1.360 . S
N1906 C1898 1.356 . S
N1906 H1912 0.984 . S
N1906 H1913 0.984 . S
N1907 C1900 1.356 . S
N1907 H1910 0.984 . S
N1907 H1911 0.985 1_565 S
H1908 N1903 0.985 . S
H1909 N1903 0.981 1_545 S
H1910 N1907 0.984 . S
H1911 N1907 0.985 1_545 S
H1912 N1906 0.984 . S
H1913 N1906 0.984 . S
H1914 N1902 0.984 . S
H1915 N1902 0.985 . S
C1916 C1917 1.363 . S
C1916 C1922 1.379 . S
C1916 N1924 1.356 . S
C1917 C1916 1.363 . S
C1917 C1923 1.363 . S
C1918 C1919 1.363 . S
C1918 C1923 1.379 . S
C1918 N1925 1.356 . S
C1919 C1918 1.363 . S
C1919 C1922 1.363 . S
N1920 C1922 1.356 . S
N1920 H1932 0.984 . S
N1920 H1933 0.985 . S
N1921 C1923 1.356 . S
N1921 H1926 0.984 1_545 S
N1921 H1927 0.985 . S
C1922 C1916 1.379 . S
C1922 C1919 1.363 . S
C1922 N1920 1.356 . S
C1923 C1917 1.363 . S
C1923 C1918 1.379 . S
C1923 N1921 1.356 . S
N1924 C1916 1.356 . S
N1924 H1930 0.984 . S
N1924 H1931 0.984 . S
N1925 C1918 1.356 . S
N1925 H1928 0.984 . S
N1925 H1929 0.985 . S
H1926 N1921 0.984 1_565 S
H1927 N1921 0.985 . S
H1928 N1925 0.984 . S
H1929 N1925 0.985 . S
H1930 N1924 0.984 . S
H1931 N1924 0.984 . S
H1932 N1920 0.984 . S
H1933 N1920 0.985 . S
C1934 C1935 1.363 1_565 S
C1934 C1940 1.379 . S
C1934 N1942 1.356 . S
C1935 C1934 1.363 1_545 S
C1935 C1941 1.363 . S
C1936 C1937 1.363 . S
C1936 C1941 1.379 . S
C1936 N1943 1.356 . S
C1937 C1936 1.363 . S
C1937 C1940 1.363 1_545 S
N1938 C1940 1.356 . S
N1938 H1950 0.984 . S
N1938 H1951 0.985 . S
N1939 C1941 1.356 . S
N1939 H1944 0.984 . S
N1939 H1945 0.985 . S
C1940 C1934 1.379 . S
C1940 C1937 1.363 1_565 S
C1940 N1938 1.356 . S
C1941 C1935 1.363 . S
C1941 C1936 1.379 . S
C1941 N1939 1.356 . S
N1942 C1934 1.356 . S
N1942 H1948 0.984 . S
N1942 H1949 0.984 . S
N1943 C1936 1.356 . S
N1943 H1946 0.984 . S
N1943 H1947 0.985 . S
H1944 N1939 0.984 . S
H1945 N1939 0.985 . S
H1946 N1943 0.984 . S
H1947 N1943 0.985 . S
H1948 N1942 0.984 . S
H1949 N1942 0.984 . S
H1950 N1938 0.984 . S
H1951 N1938 0.985 . S
C1952 C1953 1.363 . S
C1952 C1958 1.379 . S
C1952 N1960 1.356 . S
C1953 C1952 1.363 . S
C1953 C1959 1.363 . S
C1954 C1955 1.363 . S
C1954 C1959 1.379 . S
C1954 N1961 1.356 . S
C1955 C1954 1.363 . S
C1955 C1958 1.363 . S
N1956 C1958 1.356 . S
N1956 H1968 0.984 . S
N1956 H1969 0.985 . S
N1957 C1959 1.356 . S
N1957 H1962 0.984 . S
N1957 H1963 0.985 . S
C1958 C1952 1.379 . S
C1958 C1955 1.363 . S
C1958 N1956 1.356 . S
C1959 C1953 1.363 . S
C1959 C1954 1.379 . S
C1959 N1957 1.356 . S
N1960 C1952 1.356 . S
N1960 H1966 0.984 . S
N1960 H1967 0.984 . S
N1961 C1954 1.356 . S
N1961 H1964 0.984 . S
N1961 H1965 0.985 . S
H1962 N1957 0.984 . S
H1963 N1957 0.985 . S
H1964 N1961 0.984 . S
H1965 N1961 0.985 . S
H1966 N1960 0.984 . S
H1967 N1960 0.984 . S
H1968 N1956 0.984 . S
H1969 N1956 0.985 . S
C1970 C1971 1.363 . S
C1970 C1976 1.379 . S
C1970 N1978 1.356 . S
C1971 C1970 1.363 . S
C1971 C1977 1.363 . S
C1972 C1973 1.363 . S
C1972 C1977 1.379 . S
C1972 N1979 1.356 . S
C1973 C1972 1.363 . S
C1973 C1976 1.363 . S
N1974 C1976 1.356 . S
N1974 H1986 0.984 . S
N1974 H1987 0.985 . S
N1975 C1977 1.356 . S
N1975 H1980 0.984 . S
N1975 H1981 0.985 . S
C1976 C1970 1.379 . S
C1976 C1973 1.363 . S
C1976 N1974 1.356 . S
C1977 C1971 1.363 . S
C1977 C1972 1.379 . S
C1977 N1975 1.356 . S
N1978 C1970 1.356 . S
N1978 H1984 0.984 . S
N1978 H1985 0.984 . S
N1979 C1972 1.356 . S
N1979 H1982 0.984 . S
N1979 H1983 0.985 . S
H1980 N1975 0.984 . S
H1981 N1975 0.985 . S
H1982 N1979 0.984 . S
H1983 N1979 0.985 . S
H1984 N1978 0.984 . S
H1985 N1978 0.984 . S
H1986 N1974 0.984 . S
H1987 N1974 0.985 . S
C1988 C1989 1.363 . S
C1988 C1994 1.379 . S
C1988 N1996 1.356 . S
C1989 C1988 1.363 . S
C1989 C1995 1.363 . S
C1990 C1991 1.363 . S
C1990 C1995 1.379 . S
C1990 N1997 1.356 . S
C1991 C1990 1.363 . S
C1991 C1994 1.363 . S
N1992 C1994 1.356 . S
N1992 H2004 0.984 . S
N1992 H2005 0.985 . S
N1993 C1995 1.356 . S
N1993 H1998 0.984 . S
N1993 H1999 0.985 . S
C1994 C1988 1.379 . S
C1994 C1991 1.363 . S
C1994 N1992 1.356 . S
C1995 C1989 1.363 . S
C1995 C1990 1.379 . S
C1995 N1993 1.356 . S
N1996 C1988 1.356 . S
N1996 H2002 0.984 . S
N1996 H2003 0.984 . S
N1997 C1990 1.356 . S
N1997 H2000 0.984 . S
N1997 H2001 0.985 . S
H1998 N1993 0.984 . S
H1999 N1993 0.985 . S
H2000 N1997 0.984 . S
H2001 N1997 0.985 . S
H2002 N1996 0.984 . S
H2003 N1996 0.984 . S
H2004 N1992 0.984 . S
H2005 N1992 0.985 . S
C2006 C2007 1.363 . S
C2006 C2012 1.379 . S
C2006 N2014 1.356 . S
C2007 C2006 1.363 . S
C2007 C2013 1.363 . S
C2008 C2009 1.363 . S
C2008 C2013 1.379 . S
C2008 N2015 1.356 . S
C2009 C2008 1.363 . S
C2009 C2012 1.363 . S
N2010 C2012 1.356 . S
N2010 H2022 0.984 . S
N2010 H2023 0.985 . S
N2011 C2013 1.356 . S
N2011 H2016 0.984 . S
N2011 H2017 0.985 . S
C2012 C2006 1.379 . S
C2012 C2009 1.363 . S
C2012 N2010 1.356 . S
C2013 C2007 1.363 . S
C2013 C2008 1.379 . S
C2013 N2011 1.356 . S
N2014 C2006 1.356 . S
N2014 H2020 0.984 . S
N2014 H2021 0.984 . S
N2015 C2008 1.356 . S
N2015 H2018 0.984 . S
N2015 H2019 0.985 . S
H2016 N2011 0.984 . S
H2017 N2011 0.985 . S
H2018 N2015 0.984 . S
H2019 N2015 0.985 . S
H2020 N2014 0.984 . S
H2021 N2014 0.984 . S
H2022 N2010 0.984 . S
H2023 N2010 0.985 . S
C2024 C2025 1.363 . S
C2024 C2030 1.379 . S
C2024 N2032 1.356 . S
C2025 C2024 1.363 . S
C2025 C2031 1.363 . S
C2026 C2027 1.363 . S
C2026 C2031 1.379 . S
C2026 N2033 1.356 . S
C2027 C2026 1.363 . S
C2027 C2030 1.363 . S
N2028 C2030 1.356 . S
N2028 H2040 0.984 . S
N2028 H2041 0.985 . S
N2029 C2031 1.356 . S
N2029 H2034 0.984 . S
N2029 H2035 0.985 . S
C2030 C2024 1.379 . S
C2030 C2027 1.363 . S
C2030 N2028 1.356 . S
C2031 C2025 1.363 . S
C2031 C2026 1.379 . S
C2031 N2029 1.356 . S
N2032 C2024 1.356 . S
N2032 H2038 0.984 . S
N2032 H2039 0.984 . S
N2033 C2026 1.356 . S
N2033 H2036 0.984 . S
N2033 H2037 0.985 . S
H2034 N2029 0.984 . S
H2035 N2029 0.985 . S
H2036 N2033 0.984 . S
H2037 N2033 0.985 . S
H2038 N2032 0.984 . S
H2039 N2032 0.984 . S
H2040 N2028 0.984 . S
H2041 N2028 0.985 . S
C2042 C2043 1.363 . S
C2042 C2048 1.379 . S
C2042 N2050 1.356 . S
C2043 C2042 1.363 . S
C2043 C2049 1.363 . S
C2044 C2045 1.363 . S
C2044 C2049 1.379 . S
C2044 N2051 1.356 . S
C2045 C2044 1.363 . S
C2045 C2048 1.363 . S
N2046 C2048 1.356 . S
N2046 H2058 0.984 . S
N2046 H2059 0.985 . S
N2047 C2049 1.356 . S
N2047 H2052 0.984 . S
N2047 H2053 0.985 . S
C2048 C2042 1.379 . S
C2048 C2045 1.363 . S
C2048 N2046 1.356 . S
C2049 C2043 1.363 . S
C2049 C2044 1.379 . S
C2049 N2047 1.356 . S
N2050 C2042 1.356 . S
N2050 H2056 0.984 . S
N2050 H2057 0.984 . S
N2051 C2044 1.356 . S
N2051 H2054 0.984 . S
N2051 H2055 0.985 . S
H2052 N2047 0.984 . S
H2053 N2047 0.985 . S
H2054 N2051 0.984 . S
H2055 N2051 0.985 . S
H2056 N2050 0.984 . S
H2057 N2050 0.984 . S
H2058 N2046 0.984 . S
H2059 N2046 0.985 . S
C2060 C2061 1.363 . S
C2060 C2066 1.379 . S
C2060 N2068 1.356 . S
C2061 C2060 1.363 . S
C2061 C2067 1.363 . S
C2062 C2063 1.363 . S
C2062 C2067 1.379 . S
C2062 N2069 1.356 . S
C2063 C2062 1.363 . S
C2063 C2066 1.363 . S
N2064 C2066 1.356 . S
N2064 H2076 0.984 . S
N2064 H2077 0.985 . S
N2065 C2067 1.356 . S
N2065 H2070 0.984 . S
N2065 H2071 0.985 . S
C2066 C2060 1.379 . S
C2066 C2063 1.363 . S
C2066 N2064 1.356 . S
C2067 C2061 1.363 . S
C2067 C2062 1.379 . S
C2067 N2065 1.356 . S
N2068 C2060 1.356 . S
N2068 H2074 0.984 . S
N2068 H2075 0.984 . S
N2069 C2062 1.356 . S
N2069 H2072 0.984 . S
N2069 H2073 0.985 . S
H2070 N2065 0.984 . S
H2071 N2065 0.985 . S
H2072 N2069 0.984 . S
H2073 N2069 0.985 . S
H2074 N2068 0.984 . S
H2075 N2068 0.984 . S
H2076 N2064 0.984 . S
H2077 N2064 0.985 . S
C2078 C2079 1.363 . S
C2078 C2084 1.379 . S
C2078 N2086 1.356 . S
C2079 C2078 1.363 . S
C2079 C2085 1.363 . S
C2080 C2081 1.363 . S
C2080 C2085 1.379 . S
C2080 N2087 1.356 . S
C2081 C2080 1.363 . S
C2081 C2084 1.363 . S
N2082 C2084 1.356 . S
N2082 H2094 0.984 . S
N2082 H2095 0.985 . S
N2083 C2085 1.356 . S
N2083 H2088 0.984 . S
N2083 H2089 0.985 . S
C2084 C2078 1.379 . S
C2084 C2081 1.363 . S
C2084 N2082 1.356 . S
C2085 C2079 1.363 . S
C2085 C2080 1.379 . S
C2085 N2083 1.356 . S
N2086 C2078 1.356 . S
N2086 H2092 0.984 . S
N2086 H2093 0.984 . S
N2087 C2080 1.356 . S
N2087 H2090 0.984 . S
N2087 H2091 0.985 . S
H2088 N2083 0.984 . S
H2089 N2083 0.985 . S
H2090 N2087 0.984 . S
H2091 N2087 0.985 . S
H2092 N2086 0.984 . S
H2093 N2086 0.984 . S
H2094 N2082 0.984 . S
H2095 N2082 0.985 . S
C2096 C2097 1.363 . S
C2096 C2102 1.379 . S
C2096 N2104 1.356 . S
C2097 C2096 1.363 . S
C2097 C2103 1.363 . S
C2098 C2099 1.363 . S
C2098 C2103 1.379 . S
C2098 N2105 1.356 . S
C2099 C2098 1.363 . S
C2099 C2102 1.363 . S
N2100 C2102 1.356 . S
N2100 H2112 0.984 . S
N2100 H2113 0.985 . S
N2101 C2103 1.356 . S
N2101 H2106 0.984 . S
N2101 H2107 0.985 . S
C2102 C2096 1.379 . S
C2102 C2099 1.363 . S
C2102 N2100 1.356 . S
C2103 C2097 1.363 . S
C2103 C2098 1.379 . S
C2103 N2101 1.356 . S
N2104 C2096 1.356 . S
N2104 H2110 0.984 . S
N2104 H2111 0.984 . S
N2105 C2098 1.356 . S
N2105 H2108 0.984 . S
N2105 H2109 0.985 . S
H2106 N2101 0.984 . S
H2107 N2101 0.985 . S
H2108 N2105 0.984 . S
H2109 N2105 0.985 . S
H2110 N2104 0.984 . S
H2111 N2104 0.984 . S
H2112 N2100 0.984 . S
H2113 N2100 0.985 . S
C2114 C2115 1.363 . S
C2114 C2120 1.379 . S
C2114 N2122 1.356 . S
C2115 C2114 1.363 . S
C2115 C2121 1.363 . S
C2116 C2117 1.363 . S
C2116 C2121 1.379 . S
C2116 N2123 1.356 . S
C2117 C2116 1.363 . S
C2117 C2120 1.363 . S
N2118 C2120 1.356 . S
N2118 H2130 0.984 . S
N2118 H2131 0.985 . S
N2119 C2121 1.356 . S
N2119 H2124 0.984 . S
N2119 H2125 0.985 . S
C2120 C2114 1.379 . S
C2120 C2117 1.363 . S
C2120 N2118 1.356 . S
C2121 C2115 1.363 . S
C2121 C2116 1.379 . S
C2121 N2119 1.356 . S
N2122 C2114 1.356 . S
N2122 H2128 0.984 . S
N2122 H2129 0.984 . S
N2123 C2116 1.356 . S
N2123 H2126 0.984 . S
N2123 H2127 0.985 . S
H2124 N2119 0.984 . S
H2125 N2119 0.985 . S
H2126 N2123 0.984 . S
H2127 N2123 0.985 . S
H2128 N2122 0.984 . S
H2129 N2122 0.984 . S
H2130 N2118 0.984 . S
H2131 N2118 0.985 . S
C2132 C2133 1.363 . S
C2132 C2138 1.379 . S
C2132 N2140 1.356 . S
C2133 C2132 1.363 . S
C2133 C2139 1.363 . S
C2134 C2135 1.363 . S
C2134 C2139 1.379 . S
C2134 N2141 1.356 . S
C2135 C2134 1.363 . S
C2135 C2138 1.363 . S
N2136 C2138 1.356 . S
N2136 H2148 0.984 . S
N2136 H2149 0.985 . S
N2137 C2139 1.356 . S
N2137 H2142 0.984 . S
N2137 H2143 0.985 . S
C2138 C2132 1.379 . S
C2138 C2135 1.363 . S
C2138 N2136 1.356 . S
C2139 C2133 1.363 . S
C2139 C2134 1.379 . S
C2139 N2137 1.356 . S
N2140 C2132 1.356 . S
N2140 H2146 0.984 . S
N2140 H2147 0.984 . S
N2141 C2134 1.356 . S
N2141 H2144 0.984 . S
N2141 H2145 0.985 . S
H2142 N2137 0.984 . S
H2143 N2137 0.985 . S
H2144 N2141 0.984 . S
H2145 N2141 0.985 . S
H2146 N2140 0.984 . S
H2147 N2140 0.984 . S
H2148 N2136 0.984 . S
H2149 N2136 0.985 . S
C2150 C2151 1.363 . S
C2150 C2156 1.379 . S
C2150 N2158 1.356 . S
C2151 C2150 1.363 . S
C2151 C2157 1.363 . S
C2152 C2153 1.363 . S
C2152 C2157 1.379 . S
C2152 N2159 1.356 . S
C2153 C2152 1.363 . S
C2153 C2156 1.363 . S
N2154 C2156 1.356 . S
N2154 H2166 0.984 . S
N2154 H2167 0.985 . S
N2155 C2157 1.356 . S
N2155 H2160 0.984 . S
N2155 H2161 0.985 . S
C2156 C2150 1.379 . S
C2156 C2153 1.363 . S
C2156 N2154 1.356 . S
C2157 C2151 1.363 . S
C2157 C2152 1.379 . S
C2157 N2155 1.356 . S
N2158 C2150 1.356 . S
N2158 H2164 0.984 . S
N2158 H2165 0.984 . S
N2159 C2152 1.356 . S
N2159 H2162 0.984 . S
N2159 H2163 0.985 . S
H2160 N2155 0.984 . S
H2161 N2155 0.985 . S
H2162 N2159 0.984 . S
H2163 N2159 0.985 . S
H2164 N2158 0.984 . S
H2165 N2158 0.984 . S
H2166 N2154 0.984 . S
H2167 N2154 0.985 . S
C2168 C2169 1.363 . S
C2168 C2174 1.379 . S
C2168 N2176 1.356 . S
C2169 C2168 1.363 . S
C2169 C2175 1.363 . S
C2170 C2171 1.363 . S
C2170 C2175 1.379 . S
C2170 N2177 1.356 . S
C2171 C2170 1.363 . S
C2171 C2174 1.363 . S
N2172 C2174 1.356 . S
N2172 H2184 0.984 . S
N2172 H2185 0.985 . S
N2173 C2175 1.356 . S
N2173 H2178 0.984 . S
N2173 H2179 0.985 . S
C2174 C2168 1.379 . S
C2174 C2171 1.363 . S
C2174 N2172 1.356 . S
C2175 C2169 1.363 . S
C2175 C2170 1.379 . S
C2175 N2173 1.356 . S
N2176 C2168 1.356 . S
N2176 H2182 0.984 . S
N2176 H2183 0.984 . S
N2177 C2170 1.356 . S
N2177 H2180 0.984 . S
N2177 H2181 0.985 . S
H2178 N2173 0.984 . S
H2179 N2173 0.985 . S
H2180 N2177 0.984 . S
H2181 N2177 0.985 . S
H2182 N2176 0.984 . S
H2183 N2176 0.984 . S
H2184 N2172 0.984 . S
H2185 N2172 0.985 . S
C2186 C2187 1.363 . S
C2186 C2192 1.379 . S
C2186 N2194 1.356 . S
C2187 C2186 1.363 . S
C2187 C2193 1.363 . S
C2188 C2189 1.363 . S
C2188 C2193 1.379 . S
C2188 N2195 1.356 . S
C2189 C2188 1.363 . S
C2189 C2192 1.363 . S
N2190 C2192 1.356 . S
N2190 H2202 0.984 . S
N2190 H2203 0.985 . S
N2191 C2193 1.356 . S
N2191 H2196 0.984 . S
N2191 H2197 0.985 . S
C2192 C2186 1.379 . S
C2192 C2189 1.363 . S
C2192 N2190 1.356 . S
C2193 C2187 1.363 . S
C2193 C2188 1.379 . S
C2193 N2191 1.356 . S
N2194 C2186 1.356 . S
N2194 H2200 0.984 . S
N2194 H2201 0.984 . S
N2195 C2188 1.356 . S
N2195 H2198 0.984 . S
N2195 H2199 0.985 . S
H2196 N2191 0.984 . S
H2197 N2191 0.985 . S
H2198 N2195 0.984 . S
H2199 N2195 0.985 . S
H2200 N2194 0.984 . S
H2201 N2194 0.984 . S
H2202 N2190 0.984 . S
H2203 N2190 0.985 . S
C2204 C2205 1.363 . S
C2204 C2210 1.379 . S
C2204 N2212 1.356 . S
C2205 C2204 1.363 . S
C2205 C2211 1.363 . S
C2206 C2207 1.363 . S
C2206 C2211 1.379 . S
C2206 N2213 1.356 . S
C2207 C2206 1.363 . S
C2207 C2210 1.363 . S
N2208 C2210 1.356 . S
N2208 H2220 0.984 . S
N2208 H2221 0.985 . S
N2209 C2211 1.356 . S
N2209 H2214 0.984 . S
N2209 H2215 0.985 . S
C2210 C2204 1.379 . S
C2210 C2207 1.363 . S
C2210 N2208 1.356 . S
C2211 C2205 1.363 . S
C2211 C2206 1.379 . S
C2211 N2209 1.356 . S
N2212 C2204 1.356 . S
N2212 H2218 0.984 . S
N2212 H2219 0.984 . S
N2213 C2206 1.356 . S
N2213 H2216 0.984 . S
N2213 H2217 0.985 . S
H2214 N2209 0.984 . S
H2215 N2209 0.985 . S
H2216 N2213 0.984 . S
H2217 N2213 0.985 . S
H2218 N2212 0.984 . S
H2219 N2212 0.984 . S
H2220 N2208 0.984 . S
H2221 N2208 0.985 . S
C2222 C2223 1.363 . S
C2222 C2228 1.379 . S
C2222 N2230 1.356 . S
C2223 C2222 1.363 . S
C2223 C2229 1.363 . S
C2224 C2225 1.363 . S
C2224 C2229 1.379 . S
C2224 N2231 1.356 . S
C2225 C2224 1.363 . S
C2225 C2228 1.363 . S
N2226 C2228 1.356 . S
N2226 H2238 0.984 . S
N2226 H2239 0.985 . S
N2227 C2229 1.356 . S
N2227 H2232 0.984 . S
N2227 H2233 0.985 . S
C2228 C2222 1.379 . S
C2228 C2225 1.363 . S
C2228 N2226 1.356 . S
C2229 C2223 1.363 . S
C2229 C2224 1.379 . S
C2229 N2227 1.356 . S
N2230 C2222 1.356 . S
N2230 H2236 0.984 . S
N2230 H2237 0.984 . S
N2231 C2224 1.356 . S
N2231 H2234 0.984 . S
N2231 H2235 0.985 . S
H2232 N2227 0.984 . S
H2233 N2227 0.985 . S
H2234 N2231 0.984 . S
H2235 N2231 0.985 . S
H2236 N2230 0.984 . S
H2237 N2230 0.984 . S
H2238 N2226 0.984 . S
H2239 N2226 0.985 . S
C2240 C2241 1.363 . S
C2240 C2246 1.379 . S
C2240 N2248 1.356 . S
C2241 C2240 1.363 . S
C2241 C2247 1.363 . S
C2242 C2243 1.363 . S
C2242 C2247 1.379 . S
C2242 N2249 1.356 . S
C2243 C2242 1.363 . S
C2243 C2246 1.363 . S
N2244 C2246 1.356 . S
N2244 H2256 0.984 . S
N2244 H2257 0.985 . S
N2245 C2247 1.356 . S
N2245 H2250 0.984 . S
N2245 H2251 0.985 . S
C2246 C2240 1.379 . S
C2246 C2243 1.363 . S
C2246 N2244 1.356 . S
C2247 C2241 1.363 . S
C2247 C2242 1.379 . S
C2247 N2245 1.356 . S
N2248 C2240 1.356 . S
N2248 H2254 0.984 . S
N2248 H2255 0.984 . S
N2249 C2242 1.356 . S
N2249 H2252 0.984 . S
N2249 H2253 0.985 . S
H2250 N2245 0.984 . S
H2251 N2245 0.985 . S
H2252 N2249 0.984 . S
H2253 N2249 0.985 . S
H2254 N2248 0.984 . S
H2255 N2248 0.984 . S
H2256 N2244 0.984 . S
H2257 N2244 0.985 . S
C2258 C2259 1.363 1_455 S
C2258 C2264 1.379 . S
C2258 N2266 1.356 . S
C2259 C2258 1.363 1_655 S
C2259 C2265 1.363 . S
C2260 C2261 1.363 1_655 S
C2260 C2265 1.379 . S
C2260 N2267 1.356 . S
C2261 C2260 1.363 1_455 S
C2261 C2264 1.363 . S
N2262 C2264 1.356 . S
N2262 H2274 0.984 . S
N2262 H2275 0.985 . S
N2263 C2265 1.356 . S
N2263 H2268 0.984 . S
N2263 H2269 0.985 . S
C2264 C2258 1.379 . S
C2264 C2261 1.363 . S
C2264 N2262 1.356 . S
C2265 C2259 1.363 . S
C2265 C2260 1.379 . S
C2265 N2263 1.356 . S
N2266 C2258 1.356 . S
N2266 H2272 0.984 . S
N2266 H2273 0.984 . S
N2267 C2260 1.356 . S
N2267 H2270 0.984 . S
N2267 H2271 0.985 . S
H2268 N2263 0.984 . S
H2269 N2263 0.985 . S
H2270 N2267 0.984 . S
H2271 N2267 0.985 . S
H2272 N2266 0.984 . S
H2273 N2266 0.984 . S
H2274 N2262 0.984 . S
H2275 N2262 0.985 . S
C2276 C2277 1.363 . S
C2276 C2282 1.379 1_455 S
C2276 N2284 1.356 . S
C2277 C2276 1.363 . S
C2277 C2283 1.363 . S
C2278 C2279 1.363 . S
C2278 C2283 1.379 1_655 S
C2278 N2285 1.356 . S
C2279 C2278 1.363 . S
C2279 C2282 1.363 . S
N2280 C2282 1.356 . S
N2280 H2292 0.984 . S
N2280 H2293 0.985 . S
N2281 C2283 1.356 . S
N2281 H2286 0.984 . S
N2281 H2287 0.985 . S
C2282 C2276 1.379 1_655 S
C2282 C2279 1.363 . S
C2282 N2280 1.356 . S
C2283 C2277 1.363 . S
C2283 C2278 1.379 1_455 S
C2283 N2281 1.356 . S
N2284 C2276 1.356 . S
N2284 H2290 0.984 . S
N2284 H2291 0.984 . S
N2285 C2278 1.356 . S
N2285 H2288 0.984 . S
N2285 H2289 0.985 . S
H2286 N2281 0.984 . S
H2287 N2281 0.985 . S
H2288 N2285 0.984 . S
H2289 N2285 0.985 . S
H2290 N2284 0.984 . S
H2291 N2284 0.984 . S
H2292 N2280 0.984 . S
H2293 N2280 0.985 . S
C2294 C2295 1.363 . S
C2294 C2300 1.379 . S
C2294 N2302 1.356 . S
C2295 C2294 1.363 . S
C2295 C2301 1.363 . S
C2296 C2297 1.363 . S
C2296 C2301 1.379 . S
C2296 N2303 1.356 . S
C2297 C2296 1.363 . S
C2297 C2300 1.363 . S
N2298 C2300 1.356 . S
N2298 H2310 0.984 . S
N2298 H2311 0.985 . S
N2299 C2301 1.356 . S
N2299 H2304 0.984 . S
N2299 H2305 0.985 . S
C2300 C2294 1.379 . S
C2300 C2297 1.363 . S
C2300 N2298 1.356 . S
C2301 C2295 1.363 . S
C2301 C2296 1.379 . S
C2301 N2299 1.356 . S
N2302 C2294 1.356 . S
N2302 H2308 0.984 . S
N2302 H2309 0.984 . S
N2303 C2296 1.356 . S
N2303 H2306 0.984 . S
N2303 H2307 0.985 . S
H2304 N2299 0.984 . S
H2305 N2299 0.985 . S
H2306 N2303 0.984 . S
H2307 N2303 0.985 . S
H2308 N2302 0.984 . S
H2309 N2302 0.984 . S
H2310 N2298 0.984 . S
H2311 N2298 0.985 . S
C2312 C2313 1.363 . S
C2312 C2318 1.379 . S
C2312 N2320 1.356 . S
C2313 C2312 1.363 . S
C2313 C2319 1.363 . S
C2314 C2315 1.363 . S
C2314 C2319 1.379 . S
C2314 N2321 1.356 . S
C2315 C2314 1.363 . S
C2315 C2318 1.363 . S
N2316 C2318 1.356 . S
N2316 H2328 0.984 . S
N2316 H2329 0.985 . S
N2317 C2319 1.356 . S
N2317 H2322 0.984 . S
N2317 H2323 0.985 . S
C2318 C2312 1.379 . S
C2318 C2315 1.363 . S
C2318 N2316 1.356 . S
C2319 C2313 1.363 . S
C2319 C2314 1.379 . S
C2319 N2317 1.356 . S
N2320 C2312 1.356 . S
N2320 H2326 0.984 . S
N2320 H2327 0.984 . S
N2321 C2314 1.356 . S
N2321 H2324 0.984 . S
N2321 H2325 0.985 . S
H2322 N2317 0.984 . S
H2323 N2317 0.985 . S
H2324 N2321 0.984 . S
H2325 N2321 0.985 . S
H2326 N2320 0.984 . S
H2327 N2320 0.984 . S
H2328 N2316 0.984 . S
H2329 N2316 0.985 . S
C2330 C2331 1.363 . S
C2330 C2336 1.379 . S
C2330 N2338 1.356 . S
C2331 C2330 1.363 . S
C2331 C2337 1.363 . S
C2332 C2333 1.363 . S
C2332 C2337 1.379 . S
C2332 N2339 1.356 . S
C2333 C2332 1.363 . S
C2333 C2336 1.363 . S
N2334 C2336 1.356 . S
N2334 H2346 0.984 . S
N2334 H2347 0.985 . S
N2335 C2337 1.356 . S
N2335 H2340 0.984 . S
N2335 H2341 0.985 . S
C2336 C2330 1.379 . S
C2336 C2333 1.363 . S
C2336 N2334 1.356 . S
C2337 C2331 1.363 . S
C2337 C2332 1.379 . S
C2337 N2335 1.356 . S
N2338 C2330 1.356 . S
N2338 H2344 0.984 . S
N2338 H2345 0.984 . S
N2339 C2332 1.356 . S
N2339 H2342 0.984 . S
N2339 H2343 0.985 . S
H2340 N2335 0.984 . S
H2341 N2335 0.985 . S
H2342 N2339 0.984 . S
H2343 N2339 0.985 . S
H2344 N2338 0.984 . S
H2345 N2338 0.984 . S
H2346 N2334 0.984 . S
H2347 N2334 0.985 . S
C2348 C2349 1.363 . S
C2348 C2354 1.379 1_655 S
C2348 N2356 1.356 . S
C2349 C2348 1.363 . S
C2349 C2355 1.363 . S
C2350 C2351 1.363 . S
C2350 C2355 1.379 1_455 S
C2350 N2357 1.356 . S
C2351 C2350 1.363 . S
C2351 C2354 1.363 . S
N2352 C2354 1.356 . S
N2352 H2364 0.984 . S
N2352 H2365 0.985 . S
N2353 C2355 1.356 . S
N2353 H2358 0.984 . S
N2353 H2359 0.985 . S
C2354 C2348 1.379 1_455 S
C2354 C2351 1.363 . S
C2354 N2352 1.356 . S
C2355 C2349 1.363 . S
C2355 C2350 1.379 1_655 S
C2355 N2353 1.356 . S
N2356 C2348 1.356 . S
N2356 H2362 0.984 . S
N2356 H2363 0.984 . S
N2357 C2350 1.356 . S
N2357 H2360 0.984 . S
N2357 H2361 0.985 . S
H2358 N2353 0.984 . S
H2359 N2353 0.985 . S
H2360 N2357 0.984 . S
H2361 N2357 0.985 . S
H2362 N2356 0.984 . S
H2363 N2356 0.984 . S
H2364 N2352 0.984 . S
H2365 N2352 0.985 . S
C2366 C2367 1.363 1_455 S
C2366 C2372 1.379 . S
C2366 N2374 1.356 . S
C2367 C2366 1.363 1_655 S
C2367 C2373 1.363 . S
C2368 C2369 1.363 1_655 S
C2368 C2373 1.379 . S
C2368 N2375 1.356 . S
C2369 C2368 1.363 1_455 S
C2369 C2372 1.363 . S
N2370 C2372 1.356 . S
N2370 H2382 0.984 . S
N2370 H2383 0.985 . S
N2371 C2373 1.356 . S
N2371 H2376 0.984 . S
N2371 H2377 0.985 . S
C2372 C2366 1.379 . S
C2372 C2369 1.363 . S
C2372 N2370 1.356 . S
C2373 C2367 1.363 . S
C2373 C2368 1.379 . S
C2373 N2371 1.356 . S
N2374 C2366 1.356 . S
N2374 H2380 0.984 . S
N2374 H2381 0.984 . S
N2375 C2368 1.356 . S
N2375 H2378 0.984 . S
N2375 H2379 0.985 . S
H2376 N2371 0.984 . S
H2377 N2371 0.985 . S
H2378 N2375 0.984 . S
H2379 N2375 0.985 . S
H2380 N2374 0.984 . S
H2381 N2374 0.984 . S
H2382 N2370 0.984 . S
H2383 N2370 0.985 . S
C2384 C2385 1.363 . S
C2384 C2390 1.379 . S
C2384 N2392 1.356 . S
C2385 C2384 1.363 . S
C2385 C2391 1.363 . S
C2386 C2387 1.363 . S
C2386 C2391 1.379 . S
C2386 N2393 1.356 . S
C2387 C2386 1.363 . S
C2387 C2390 1.363 . S
N2388 C2390 1.356 . S
N2388 H2400 0.984 . S
N2388 H2401 0.985 . S
N2389 C2391 1.356 . S
N2389 H2394 0.984 . S
N2389 H2395 0.985 . S
C2390 C2384 1.379 . S
C2390 C2387 1.363 . S
C2390 N2388 1.356 . S
C2391 C2385 1.363 . S
C2391 C2386 1.379 . S
C2391 N2389 1.356 . S
N2392 C2384 1.356 . S
N2392 H2398 0.984 . S
N2392 H2399 0.984 . S
N2393 C2386 1.356 . S
N2393 H2396 0.984 . S
N2393 H2397 0.985 . S
H2394 N2389 0.984 . S
H2395 N2389 0.985 . S
H2396 N2393 0.984 . S
H2397 N2393 0.985 . S
H2398 N2392 0.984 . S
H2399 N2392 0.984 . S
H2400 N2388 0.984 . S
H2401 N2388 0.985 . S
C2402 C2403 1.363 1_655 S
C2402 C2408 1.379 . S
C2402 N2410 1.356 . S
C2403 C2402 1.363 1_455 S
C2403 C2409 1.363 . S
C2404 C2405 1.363 1_455 S
C2404 C2409 1.379 . S
C2404 N2411 1.356 . S
C2405 C2404 1.363 1_655 S
C2405 C2408 1.363 . S
N2406 C2408 1.356 . S
N2406 H2418 0.984 . S
N2406 H2419 0.985 . S
N2407 C2409 1.356 . S
N2407 H2412 0.984 . S
N2407 H2413 0.985 . S
C2408 C2402 1.379 . S
C2408 C2405 1.363 . S
C2408 N2406 1.356 . S
C2409 C2403 1.363 . S
C2409 C2404 1.379 . S
C2409 N2407 1.356 . S
N2410 C2402 1.356 . S
N2410 H2416 0.984 . S
N2410 H2417 0.984 . S
N2411 C2404 1.356 . S
N2411 H2414 0.984 . S
N2411 H2415 0.985 . S
H2412 N2407 0.984 . S
H2413 N2407 0.985 . S
H2414 N2411 0.984 . S
H2415 N2411 0.985 . S
H2416 N2410 0.984 . S
H2417 N2410 0.984 . S
H2418 N2406 0.984 . S
H2419 N2406 0.985 . S
C2420 C2421 1.363 . S
C2420 C2426 1.379 1_655 S
C2420 N2428 1.356 . S
C2421 C2420 1.363 . S
C2421 C2427 1.363 . S
C2422 C2423 1.363 . S
C2422 C2427 1.379 1_455 S
C2422 N2429 1.356 . S
C2423 C2422 1.363 . S
C2423 C2426 1.363 . S
N2424 C2426 1.356 . S
N2424 H2436 0.984 . S
N2424 H2437 0.985 . S
N2425 C2427 1.356 . S
N2425 H2430 0.984 . S
N2425 H2431 0.985 . S
C2426 C2420 1.379 1_455 S
C2426 C2423 1.363 . S
C2426 N2424 1.356 . S
C2427 C2421 1.363 . S
C2427 C2422 1.379 1_655 S
C2427 N2425 1.356 . S
N2428 C2420 1.356 . S
N2428 H2434 0.984 . S
N2428 H2435 0.984 . S
N2429 C2422 1.356 . S
N2429 H2432 0.984 . S
N2429 H2433 0.985 . S
H2430 N2425 0.984 . S
H2431 N2425 0.985 . S
H2432 N2429 0.984 . S
H2433 N2429 0.985 . S
H2434 N2428 0.984 . S
H2435 N2428 0.984 . S
H2436 N2424 0.984 . S
H2437 N2424 0.985 . S
C2438 C2439 1.363 . S
C2438 C2444 1.379 . S
C2438 N2446 1.356 . S
C2439 C2438 1.363 . S
C2439 C2445 1.363 . S
C2440 C2441 1.363 . S
C2440 C2445 1.379 . S
C2440 N2447 1.356 . S
C2441 C2440 1.363 . S
C2441 C2444 1.363 . S
N2442 C2444 1.356 . S
N2442 H2454 0.984 . S
N2442 H2455 0.985 . S
N2443 C2445 1.356 . S
N2443 H2448 0.984 . S
N2443 H2449 0.985 . S
C2444 C2438 1.379 . S
C2444 C2441 1.363 . S
C2444 N2442 1.356 . S
C2445 C2439 1.363 . S
C2445 C2440 1.379 . S
C2445 N2443 1.356 . S
N2446 C2438 1.356 . S
N2446 H2452 0.984 . S
N2446 H2453 0.984 . S
N2447 C2440 1.356 . S
N2447 H2450 0.984 . S
N2447 H2451 0.985 . S
H2448 N2443 0.984 . S
H2449 N2443 0.985 . S
H2450 N2447 0.984 . S
H2451 N2447 0.985 . S
H2452 N2446 0.984 . S
H2453 N2446 0.984 . S
H2454 N2442 0.984 . S
H2455 N2442 0.985 . S
C2456 C2457 1.363 . S
C2456 C2462 1.379 . S
C2456 N2464 1.356 . S
C2457 C2456 1.363 . S
C2457 C2463 1.363 . S
C2458 C2459 1.363 . S
C2458 C2463 1.379 . S
C2458 N2465 1.356 . S
C2459 C2458 1.363 . S
C2459 C2462 1.363 . S
N2460 C2462 1.356 . S
N2460 H2472 0.984 . S
N2460 H2473 0.985 . S
N2461 C2463 1.356 . S
N2461 H2466 0.984 . S
N2461 H2467 0.985 . S
C2462 C2456 1.379 . S
C2462 C2459 1.363 . S
C2462 N2460 1.356 . S
C2463 C2457 1.363 . S
C2463 C2458 1.379 . S
C2463 N2461 1.356 . S
N2464 C2456 1.356 . S
N2464 H2470 0.984 . S
N2464 H2471 0.984 . S
N2465 C2458 1.356 . S
N2465 H2468 0.984 . S
N2465 H2469 0.985 . S
H2466 N2461 0.984 . S
H2467 N2461 0.985 . S
H2468 N2465 0.984 . S
H2469 N2465 0.985 . S
H2470 N2464 0.984 . S
H2471 N2464 0.984 . S
H2472 N2460 0.984 . S
H2473 N2460 0.985 . S
C2474 C2475 1.363 . S
C2474 C2480 1.379 . S
C2474 N2482 1.356 . S
C2475 C2474 1.363 . S
C2475 C2481 1.363 . S
C2476 C2477 1.363 . S
C2476 C2481 1.379 . S
C2476 N2483 1.356 . S
C2477 C2476 1.363 . S
C2477 C2480 1.363 . S
N2478 C2480 1.356 . S
N2478 H2490 0.984 . S
N2478 H2491 0.985 . S
N2479 C2481 1.356 . S
N2479 H2484 0.984 . S
N2479 H2485 0.985 . S
C2480 C2474 1.379 . S
C2480 C2477 1.363 . S
C2480 N2478 1.356 . S
C2481 C2475 1.363 . S
C2481 C2476 1.379 . S
C2481 N2479 1.356 . S
N2482 C2474 1.356 . S
N2482 H2488 0.984 . S
N2482 H2489 0.984 . S
N2483 C2476 1.356 . S
N2483 H2486 0.984 . S
N2483 H2487 0.985 . S
H2484 N2479 0.984 . S
H2485 N2479 0.985 . S
H2486 N2483 0.984 . S
H2487 N2483 0.985 . S
H2488 N2482 0.984 . S
H2489 N2482 0.984 . S
H2490 N2478 0.984 . S
H2491 N2478 0.985 . S
C2492 C2493 1.363 . S
C2492 C2498 1.379 1_455 S
C2492 N2500 1.356 . S
C2493 C2492 1.363 . S
C2493 C2499 1.363 . S
C2494 C2495 1.363 . S
C2494 C2499 1.379 1_655 S
C2494 N2501 1.356 . S
C2495 C2494 1.363 . S
C2495 C2498 1.363 . S
N2496 C2498 1.356 . S
N2496 H2508 0.984 . S
N2496 H2509 0.985 . S
N2497 C2499 1.356 . S
N2497 H2502 0.984 . S
N2497 H2503 0.985 . S
C2498 C2492 1.379 1_655 S
C2498 C2495 1.363 . S
C2498 N2496 1.356 . S
C2499 C2493 1.363 . S
C2499 C2494 1.379 1_455 S
C2499 N2497 1.356 . S
N2500 C2492 1.356 . S
N2500 H2506 0.984 . S
N2500 H2507 0.984 . S
N2501 C2494 1.356 . S
N2501 H2504 0.984 . S
N2501 H2505 0.985 . S
H2502 N2497 0.984 . S
H2503 N2497 0.985 . S
H2504 N2501 0.984 . S
H2505 N2501 0.985 . S
H2506 N2500 0.984 . S
H2507 N2500 0.984 . S
H2508 N2496 0.984 . S
H2509 N2496 0.985 . S
C2510 C2511 1.363 1_655 S
C2510 C2516 1.379 . S
C2510 N2518 1.356 . S
C2511 C2510 1.363 1_455 S
C2511 C2517 1.363 . S
C2512 C2513 1.363 1_455 S
C2512 C2517 1.379 . S
C2512 N2519 1.356 . S
C2513 C2512 1.363 1_655 S
C2513 C2516 1.363 . S
N2514 C2516 1.356 . S
N2514 H2526 0.984 . S
N2514 H2527 0.985 . S
N2515 C2517 1.356 . S
N2515 H2520 0.984 . S
N2515 H2521 0.985 . S
C2516 C2510 1.379 . S
C2516 C2513 1.363 . S
C2516 N2514 1.356 . S
C2517 C2511 1.363 . S
C2517 C2512 1.379 . S
C2517 N2515 1.356 . S
N2518 C2510 1.356 . S
N2518 H2524 0.984 . S
N2518 H2525 0.984 . S
N2519 C2512 1.356 . S
N2519 H2522 0.984 . S
N2519 H2523 0.985 . S
H2520 N2515 0.984 . S
H2521 N2515 0.985 . S
H2522 N2519 0.984 . S
H2523 N2519 0.985 . S
H2524 N2518 0.984 . S
H2525 N2518 0.984 . S
H2526 N2514 0.984 . S
H2527 N2514 0.985 . S
C1089 C20 1.905 . S
C1091 C258 1.905 . S
C1107 C54 1.905 . S
C1109 C156 1.905 . S
C1125 C88 1.905 . S
C1127 C190 1.905 . S
C1143 C122 1.905 . S
C1145 C224 1.905 . S
C1161 C530 1.905 . S
C1163 C292 1.905 . S
C1179 C326 1.905 . S
C1181 C428 1.905 . S
C1197 C462 1.905 . S
C1199 C360 1.905 . S
C1215 C394 1.905 . S
C1217 C496 1.905 . S
C1233 C564 1.905 . S
C1235 C802 1.905 . S
C1251 C700 1.905 . S
C1253 C598 1.905 . S
C1269 C632 1.905 . S
C1271 C734 1.905 . S
C1287 C666 1.905 . S
C1289 C768 1.905 . S
C1305 C836 1.905 . S
C1307 C1074 1.905 . S
C1323 C870 1.905 . S
C1325 C972 1.905 . S
C1341 C1006 1.905 . S
C1343 C904 1.905 . S
C1359 C1040 1.905 . S
C1361 C938 1.905 . S
C1377 C206 1.634 . S
C1379 C2 1.634 . S
C1395 C36 1.633 . S
C1397 C240 1.633 . S
C1413 C70 1.633 . S
C1415 C138 1.633 . S
C1431 C104 1.634 . S
C1433 C172 1.634 . S
C1449 C274 1.634 . S
C1451 C478 1.634 . S
C1467 C512 1.633 . S
C1469 C308 1.633 . S
C1485 C410 1.633 . S
C1487 C342 1.633 . S
C1503 C444 1.634 . S
C1505 C376 1.634 . S
C1521 C546 1.634 . S
C1523 C750 1.634 . S
C1539 C784 1.634 . S
C1541 C580 1.634 . S
C1557 C682 1.633 . S
C1559 C614 1.633 . S
C1575 C648 1.633 . S
C1577 C716 1.633 . S
C1593 C1022 1.634 . S
C1595 C818 1.634 . S
C1611 C852 1.634 . S
C1613 C1056 1.634 . S
C1629 C954 1.633 . S
C1631 C886 1.633 . S
C1647 C988 1.633 . S
C1649 C920 1.633 . S
C1665 C957 0.859 . S
C1667 C9 0.834 . S
C1683 C447 0.859 . S
C1685 C43 0.834 . S
C1701 C1025 0.859 . S
C1703 C77 0.834 . S
C1719 C111 0.834 . S
C1721 C515 0.859 . S
C1737 C821 0.859 . S
C1739 C145 0.834 . S
C1755 C311 0.859 . S
C1757 C179 0.834 . S
C1773 C889 0.859 . S
C1775 C213 0.834 . S
C1791 C247 0.834 . S
C1793 C379 0.859 . S
C1809 C281 0.834 . S
C1811 C685 0.859 . S
C1827 C315 0.834 . S
C1829 C175 0.859 . S
C1845 C349 0.834 . S
C1847 C753 0.859 . S
C1863 C243 0.859 . S
C1865 C383 0.834 . S
C1881 C549 0.859 . S
C1883 C417 0.834 . S
C1899 C451 0.834 . S
C1901 C39 0.859 . S
C1917 C485 0.834 . S
C1919 C617 0.859 . S
C1935 C519 0.834 . S
C1937 C107 0.859 . S
C1953 C413 0.859 . S
C1955 C553 0.834 . S
C1971 C587 0.834 . S
C1973 C991 0.859 . S
C1989 C481 0.859 . S
C1991 C621 0.834 . S
C2007 C655 0.834 . S
C2009 C1059 0.859 . S
C2025 C689 0.834 . S
C2027 C277 0.859 . S
C2043 C723 0.834 . S
C2045 C855 0.859 . S
C2061 C345 0.859 . S
C2063 C757 0.834 . S
C2079 C791 0.834 . S
C2081 C923 0.859 . S
C2097 C141 0.859 . S
C2099 C825 0.834 . S
C2115 C719 0.859 . S
C2117 C859 0.834 . S
C2133 C209 0.859 . S
C2135 C893 0.834 . S
C2151 C787 0.859 . S
C2153 C927 0.834 . S
C2169 C5 0.859 . S
C2171 C961 0.834 . S
C2187 C583 0.859 . S
C2189 C995 0.834 . S
C2205 C1029 0.834 . S
C2207 C73 0.859 . S
C2223 C651 0.859 . S
C2225 C1063 0.834 . S
C2241 C645 2.376 . S
C2243 C33 2.376 . S
C2259 C679 2.376 . S
C2261 C67 2.376 . S
C2277 C101 2.376 . S
C2279 C577 2.376 . S
C2295 C135 2.376 . S
C2297 C611 2.376 . S
C2313 C781 2.376 . S
C2315 C169 2.376 . S
C2331 C203 2.376 . S
C2333 C815 2.376 . S
C2349 C713 2.376 . S
C2351 C237 2.376 . S
C2367 C747 2.376 . S
C2369 C271 2.376 . S
C2385 C917 2.376 . S
C2387 C305 2.376 . S
C2403 C951 2.376 . S
C2405 C339 2.376 . S
C2421 C373 2.376 . S
C2423 C849 2.376 . S
C2439 C407 2.376 . S
C2441 C883 2.376 . S
C2457 C441 2.376 . S
C2459 C1053 2.376 . S
C2475 C475 2.376 . S
C2477 C1087 2.376 . S
C2493 C985 2.376 . S
C2495 C509 2.376 . S
C2511 C1019 2.376 . S
C2513 C543 2.376 . S
