# Generated by pormake.
# Topology vbm, (6)-cn, num edge types: 1
# Building blocks:
#     Node 0, Type 0, BuildingBlock: NUHQIS_clean_sbu_0, # of connection points: 6
#     Node 1, Type 0, BuildingBlock: NUHQIS_clean_sbu_0, # of connection points: 6
#     Node 2, Type 0, BuildingBlock: NUHQIS_clean_sbu_0, # of connection points: 6
#     Node 3, Type 0, BuildingBlock: NUHQIS_clean_sbu_0, # of connection points: 6
#     Node 4, Type 0, BuildingBlock: NUHQIS_clean_sbu_0, # of connection points: 6
#     Node 5, Type 0, BuildingBlock: NUHQIS_clean_sbu_0, # of connection points: 6
#     Node 6, Type 0, BuildingBlock: NUHQIS_clean_sbu_0, # of connection points: 6
#     Node 7, Type 0, BuildingBlock: NUHQIS_clean_sbu_0, # of connection points: 6
#     Node 8, Type 0, BuildingBlock: NUHQIS_clean_sbu_0, # of connection points: 6
#     Node 9, Type 0, BuildingBlock: NUHQIS_clean_sbu_0, # of connection points: 6
#     Node 10, Type 0, BuildingBlock: NUHQIS_clean_sbu_0, # of connection points: 6
#     Node 11, Type 0, BuildingBlock: NUHQIS_clean_sbu_0, # of connection points: 6
#     Node 12, Type 0, BuildingBlock: NUHQIS_clean_sbu_0, # of connection points: 6
#     Node 13, Type 0, BuildingBlock: NUHQIS_clean_sbu_0, # of connection points: 6
#     Node 14, Type 0, BuildingBlock: NUHQIS_clean_sbu_0, # of connection points: 6
#     Node 15, Type 0, BuildingBlock: NUHQIS_clean_sbu_0, # of connection points: 6
#     Edge 16, Type (0, 0), BuildingBlock: OJICUG_clean_linker_0, # of connection points: 2
#     Edge 17, Type (0, 0), BuildingBlock: OJICUG_clean_linker_0, # of connection points: 2
#     Edge 18, Type (0, 0), BuildingBlock: OJICUG_clean_linker_0, # of connection points: 2
#     Edge 19, Type (0, 0), BuildingBlock: OJICUG_clean_linker_0, # of connection points: 2
#     Edge 20, Type (0, 0), BuildingBlock: OJICUG_clean_linker_0, # of connection points: 2
#     Edge 21, Type (0, 0), BuildingBlock: OJICUG_clean_linker_0, # of connection points: 2
#     Edge 22, Type (0, 0), BuildingBlock: OJICUG_clean_linker_0, # of connection points: 2
#     Edge 23, Type (0, 0), BuildingBlock: OJICUG_clean_linker_0, # of connection points: 2
#     Edge 24, Type (0, 0), BuildingBlock: OJICUG_clean_linker_0, # of connection points: 2
#     Edge 25, Type (0, 0), BuildingBlock: OJICUG_clean_linker_0, # of connection points: 2
#     Edge 26, Type (0, 0), BuildingBlock: OJICUG_clean_linker_0, # of connection points: 2
#     Edge 27, Type (0, 0), BuildingBlock: OJICUG_clean_linker_0, # of connection points: 2
#     Edge 28, Type (0, 0), BuildingBlock: OJICUG_clean_linker_0, # of connection points: 2
#     Edge 29, Type (0, 0), BuildingBlock: OJICUG_clean_linker_0, # of connection points: 2
#     Edge 30, Type (0, 0), BuildingBlock: OJICUG_clean_linker_0, # of connection points: 2
#     Edge 31, Type (0, 0), BuildingBlock: OJICUG_clean_linker_0, # of connection points: 2
#     Edge 32, Type (0, 0), BuildingBlock: OJICUG_clean_linker_0, # of connection points: 2
#     Edge 33, Type (0, 0), BuildingBlock: OJICUG_clean_linker_0, # of connection points: 2
#     Edge 34, Type (0, 0), BuildingBlock: OJICUG_clean_linker_0, # of connection points: 2
#     Edge 35, Type (0, 0), BuildingBlock: OJICUG_clean_linker_0, # of connection points: 2
#     Edge 36, Type (0, 0), BuildingBlock: OJICUG_clean_linker_0, # of connection points: 2
#     Edge 37, Type (0, 0), BuildingBlock: OJICUG_clean_linker_0, # of connection points: 2
#     Edge 38, Type (0, 0), BuildingBlock: OJICUG_clean_linker_0, # of connection points: 2
#     Edge 39, Type (0, 0), BuildingBlock: OJICUG_clean_linker_0, # of connection points: 2
#     Edge 40, Type (0, 0), BuildingBlock: OJICUG_clean_linker_0, # of connection points: 2
#     Edge 41, Type (0, 0), BuildingBlock: OJICUG_clean_linker_0, # of connection points: 2
#     Edge 42, Type (0, 0), BuildingBlock: OJICUG_clean_linker_0, # of connection points: 2
#     Edge 43, Type (0, 0), BuildingBlock: OJICUG_clean_linker_0, # of connection points: 2
#     Edge 44, Type (0, 0), BuildingBlock: OJICUG_clean_linker_0, # of connection points: 2
#     Edge 45, Type (0, 0), BuildingBlock: OJICUG_clean_linker_0, # of connection points: 2
#     Edge 46, Type (0, 0), BuildingBlock: OJICUG_clean_linker_0, # of connection points: 2
#     Edge 47, Type (0, 0), BuildingBlock: OJICUG_clean_linker_0, # of connection points: 2
#     Edge 48, Type (0, 0), BuildingBlock: OJICUG_clean_linker_0, # of connection points: 2
#     Edge 49, Type (0, 0), BuildingBlock: OJICUG_clean_linker_0, # of connection points: 2
#     Edge 50, Type (0, 0), BuildingBlock: OJICUG_clean_linker_0, # of connection points: 2
#     Edge 51, Type (0, 0), BuildingBlock: OJICUG_clean_linker_0, # of connection points: 2
#     Edge 52, Type (0, 0), BuildingBlock: OJICUG_clean_linker_0, # of connection points: 2
#     Edge 53, Type (0, 0), BuildingBlock: OJICUG_clean_linker_0, # of connection points: 2
#     Edge 54, Type (0, 0), BuildingBlock: OJICUG_clean_linker_0, # of connection points: 2
#     Edge 55, Type (0, 0), BuildingBlock: OJICUG_clean_linker_0, # of connection points: 2
#     Edge 56, Type (0, 0), BuildingBlock: OJICUG_clean_linker_0, # of connection points: 2
#     Edge 57, Type (0, 0), BuildingBlock: OJICUG_clean_linker_0, # of connection points: 2
#     Edge 58, Type (0, 0), BuildingBlock: OJICUG_clean_linker_0, # of connection points: 2
#     Edge 59, Type (0, 0), BuildingBlock: OJICUG_clean_linker_0, # of connection points: 2
#     Edge 60, Type (0, 0), BuildingBlock: OJICUG_clean_linker_0, # of connection points: 2
#     Edge 61, Type (0, 0), BuildingBlock: OJICUG_clean_linker_0, # of connection points: 2
#     Edge 62, Type (0, 0), BuildingBlock: OJICUG_clean_linker_0, # of connection points: 2
#     Edge 63, Type (0, 0), BuildingBlock: OJICUG_clean_linker_0, # of connection points: 2
# Relax obj value: 0.061
# Max RMSD: 0.151
# Mean RMSD: 0.151
data_MOF--net-vbm--node1-NUHQIS_clean_sbu_0--edge1-OJICUG_clean_linker_0
_symmetry_space_group_name_H-M    P1
_symmetry_Int_Tables_number       1
_symmetry_cell_setting            triclinic
loop_
_symmetry_equiv_pos_as_xyz
'x, y, z'
_cell_length_a     39.157319
_cell_length_b     21.101312
_cell_length_c     41.449265
_cell_angle_alpha  89.991124
_cell_angle_beta   89.911469
_cell_angle_gamma 90.005069
loop_
_atom_site_label
_atom_site_type_symbol
_atom_site_fract_x
_atom_site_fract_y
_atom_site_fract_z
_atom_type_partial_charge
Tb0 Tb 0.13885 0.0978 0.12874 0.0
Eu1 Eu 0.10316 0.23068 0.15368 0.0
C2 C 0.11238 0.19866 0.07934 0.0
C3 C 0.18197 0.21929 0.13959 0.0
C4 C 0.15911 0.92687 0.12061 0.0
C5 C 0.17319 0.81525 0.11507 0.0
C6 C 0.1801 0.87894 0.10819 0.0
C7 C 0.13141 0.91052 0.14045 0.0
C8 C 0.12441 0.84689 0.14728 0.0
C9 C 0.14505 0.79834 0.13447 0.0
C10 C 0.16543 0.99346 0.11184 0.0
O11 O 0.14509 0.10303 0.1808 0.0
O12 O 0.0973 0.1593 0.19431 0.0
O13 O 0.06008 0.16747 0.13882 0.0
O14 O 0.08725 0.071 0.14328 0.0
C15 C 0.12095 0.1174 0.20151 0.0
O16 O 0.10024 0.306 0.18967 0.0
O17 O 0.06871 0.31088 0.14691 0.0
O18 O 0.11651 0.24396 0.10073 0.0
O19 O 0.11294 0.13879 0.08769 0.0
O20 O 0.1756 0.17364 0.1189 0.0
O21 O 0.15954 0.23536 0.16146 0.0
C22 C 0.05928 0.10536 0.14056 0.0
O23 O 0.14076 1.02137 0.09639 0.0
O24 O 0.17769 1.02965 0.13448 0.0
C25 C 0.09 0.40701 0.1675 0.0
C26 C 0.10933 0.53451 0.15752 0.0
C27 C 0.0799 0.51949 0.17555 0.0
C28 C 0.07034 0.45629 0.18046 0.0
C29 C 0.11944 0.42151 0.14962 0.0
C30 C 0.12901 0.48467 0.14466 0.0
C31 C 0.07958 0.34073 0.17247 0.0
H32 H 0.18993 0.77926 0.10521 0.0
H33 H 0.20166 0.89073 0.09291 0.0
H34 H 0.11487 0.94694 0.15023 0.0
H35 H 0.10232 0.83573 0.16197 0.0
H36 H 0.06391 0.55661 0.18543 0.0
H37 H 0.04747 0.44591 0.19423 0.0
H38 H 0.13498 0.38393 0.13949 0.0
H39 H 0.15202 0.49443 0.131 0.0
Tb40 Tb 0.84802 0.98996 0.12874 0.0
Eu41 Eu 0.88358 0.85705 0.15374 0.0
C42 C 0.87442 0.88884 0.07936 0.0
C43 C 0.80484 0.86855 0.1397 0.0
C44 C 0.82763 0.16086 0.12071 0.0
C45 C 0.81359 0.27248 0.11507 0.0
C46 C 0.80679 0.20878 0.10813 0.0
C47 C 0.85507 0.17723 0.1408 0.0
C48 C 0.86195 0.24086 0.14771 0.0
C49 C 0.84147 0.28941 0.1347 0.0
C50 C 0.8215 0.09429 0.11182 0.0
O51 O 0.84171 0.98492 0.18081 0.0
O52 O 0.88943 0.92851 0.19431 0.0
O53 O 0.92674 0.92013 0.13879 0.0
O54 O 0.8996 1.01665 0.14321 0.0
C55 C 0.86581 0.97054 0.2015 0.0
O56 O 0.88632 0.7818 0.1898 0.0
O57 O 0.91798 0.77671 0.14703 0.0
O58 O 0.87029 0.84363 0.10083 0.0
O59 O 0.87388 0.94875 0.08764 0.0
O60 O 0.81129 0.91412 0.11896 0.0
O61 O 0.82719 0.85262 0.16161 0.0
C62 C 0.92757 0.98224 0.14049 0.0
O63 O 0.84636 0.06658 0.09649 0.0
O64 O 0.80905 0.05791 0.13433 0.0
C65 C 0.89651 0.6807 0.16771 0.0
C66 C 0.87709 0.55323 0.1578 0.0
C67 C 0.90628 0.56821 0.17609 0.0
C68 C 0.91589 0.63139 0.18096 0.0
C69 C 0.86729 0.66625 0.14959 0.0
C70 C 0.85767 0.60311 0.14466 0.0
C71 C 0.90699 0.74696 0.17262 0.0
H72 H 0.79697 0.30846 0.10506 0.0
H73 H 0.78544 0.19699 0.09265 0.0
H74 H 0.87149 0.14082 0.15071 0.0
H75 H 0.88384 0.25204 0.16259 0.0
H76 H 0.92207 0.53107 0.18619 0.0
H77 H 0.93858 0.64173 0.19492 0.0
H78 H 0.85195 0.70384 0.13924 0.0
H79 H 0.83483 0.59338 0.13081 0.0
Tb80 Tb 0.13878 0.99039 0.3924 0.0
Eu81 Eu 0.10329 0.85752 0.36728 0.0
C82 C 0.11243 0.88898 0.44168 0.0
C83 C 0.18205 0.86918 0.3813 0.0
C84 C 0.15869 0.16125 0.40038 0.0
C85 C 0.17108 0.27339 0.40685 0.0
C86 C 0.17839 0.2099 0.41388 0.0
C87 C 0.13193 0.17668 0.37932 0.0
C88 C 0.12452 0.24007 0.37236 0.0
C89 C 0.14379 0.2893 0.38629 0.0
C90 C 0.16515 0.09484 0.40936 0.0
O91 O 0.14508 0.98558 0.34032 0.0
O92 O 0.09741 0.92912 0.32678 0.0
O93 O 0.06012 0.92044 0.38232 0.0
O94 O 0.08718 1.01703 0.37795 0.0
C95 C 0.121 0.97122 0.31962 0.0
O96 O 0.10077 0.78221 0.33125 0.0
O97 O 0.06871 0.7774 0.37376 0.0
O98 O 0.11657 0.84385 0.42018 0.0
O99 O 0.11296 0.94893 0.43346 0.0
O100 O 0.17559 0.91465 0.40209 0.0
O101 O 0.15969 0.85321 0.35941 0.0
C102 C 0.05924 0.98256 0.38066 0.0
O103 O 0.1404 0.06687 0.42474 0.0
O104 O 0.17765 0.05855 0.38683 0.0
C105 C 0.0899 0.68114 0.35315 0.0
C106 C 0.10834 0.55316 0.36309 0.0
C107 C 0.08004 0.56902 0.34376 0.0
C108 C 0.07092 0.63242 0.33887 0.0
C109 C 0.11829 0.66586 0.37225 0.0
C110 C 0.12744 0.60246 0.37718 0.0
C111 C 0.0798 0.7476 0.34825 0.0
H112 H 0.18623 0.31003 0.41822 0.0
H113 H 0.19908 0.19883 0.43026 0.0
H114 H 0.1165 0.13968 0.36856 0.0
H115 H 0.10369 0.25052 0.35605 0.0
H116 H 0.06505 0.53243 0.33215 0.0
H117 H 0.04901 0.64341 0.32395 0.0
H118 H 0.13322 0.703 0.38352 0.0
H119 H 0.1491 0.59208 0.3925 0.0
Tb120 Tb 0.84783 0.0974 0.39234 0.0
Eu121 Eu 0.88341 0.23032 0.36728 0.0
C122 C 0.87413 0.19856 0.44166 0.0
C123 C 0.8046 0.2187 0.38134 0.0
C124 C 0.82756 0.92647 0.40048 0.0
C125 C 0.81337 0.81487 0.40592 0.0
C126 C 0.80652 0.87855 0.41285 0.0
C127 C 0.85525 0.91011 0.38063 0.0
C128 C 0.86218 0.84648 0.37374 0.0
C129 C 0.84149 0.79794 0.38651 0.0
C130 C 0.82131 0.99304 0.40931 0.0
O131 O 0.84162 0.10241 0.34028 0.0
O132 O 0.88935 0.15884 0.32672 0.0
O133 O 0.92654 0.16733 0.38224 0.0
O134 O 0.89946 0.07076 0.37785 0.0
C135 C 0.86575 0.11681 0.31956 0.0
O136 O 0.88624 0.30558 0.33123 0.0
O137 O 0.91782 0.31062 0.37396 0.0
O138 O 0.87 0.24376 0.42021 0.0
O139 O 0.87361 0.13864 0.4334 0.0
O140 O 0.81102 0.17317 0.4021 0.0
O141 O 0.82703 0.23477 0.35946 0.0
C142 C 0.92741 0.10522 0.38056 0.0
O143 O 0.84606 1.0209 0.42467 0.0
O144 O 0.80895 1.02929 0.38674 0.0
C145 C 0.89644 0.40666 0.35333 0.0
C146 C 0.87709 0.53413 0.36331 0.0
C147 C 0.90653 0.51915 0.3453 0.0
C148 C 0.91611 0.45597 0.3404 0.0
C149 C 0.86698 0.42111 0.37118 0.0
C150 C 0.85739 0.48426 0.37614 0.0
C151 C 0.9069 0.34039 0.34839 0.0
H152 H 0.79659 0.77889 0.41574 0.0
H153 H 0.78497 0.89035 0.42814 0.0
H154 H 0.87183 0.94651 0.37089 0.0
H155 H 0.88427 0.83531 0.35905 0.0
H156 H 0.92254 0.5563 0.33545 0.0
H157 H 0.939 0.44563 0.32665 0.0
H158 H 0.85143 0.38351 0.38129 0.0
H159 H 0.83437 0.49399 0.38977 0.0
Tb160 Tb 0.88039 0.86602 0.86914 0.0
Eu161 Eu 0.84508 0.99858 0.89481 0.0
C162 C 0.86144 0.97477 0.82096 0.0
C163 C 0.92563 0.98778 0.88054 0.0
C164 C 0.8925 0.69355 0.85566 0.0
C165 C 0.90302 0.58116 0.84798 0.0
C166 C 0.91209 0.64438 0.84253 0.0
C167 C 0.8635 0.67888 0.87416 0.0
C168 C 0.85438 0.61561 0.87963 0.0
C169 C 0.87414 0.56589 0.86674 0.0
C170 C 0.90278 0.75978 0.85031 0.0
O171 O 0.86868 0.85164 0.92054 0.0
O172 O 0.87341 0.95531 0.93598 0.0
O173 O 0.80789 0.91926 0.90564 0.0
O174 O 0.82555 0.8596 0.86288 0.0
C175 C 0.8742 0.89481 0.94284 0.0
O176 O 0.84244 0.07804 0.92836 0.0
O177 O 0.80581 0.07159 0.8896 0.0
O178 O 0.83744 0.99116 0.84132 0.0
O179 O 0.88535 0.93407 0.82926 0.0
O180 O 0.92333 0.92569 0.88219 0.0
O181 O 0.89846 1.02448 0.87899 0.0
C182 C 0.80291 0.87274 0.88517 0.0
O183 O 0.8815 0.79452 0.83386 0.0
O184 O 0.91419 0.78976 0.87556 0.0
C185 C 0.82489 0.17353 0.90441 0.0
C186 C 0.83951 0.30197 0.89094 0.0
C187 C 0.81123 0.28533 0.91021 0.0
C188 C 0.80404 0.22163 0.91691 0.0
C189 C 0.85271 0.18969 0.88469 0.0
C190 C 0.85996 0.25325 0.87803 0.0
C191 C 0.81819 0.10682 0.91262 0.0
H192 H 0.91852 0.5442 0.83727 0.0
H193 H 0.93449 0.65489 0.82811 0.0
H194 H 0.8481 0.71637 0.88457 0.0
H195 H 0.83222 0.60566 0.89446 0.0
H196 H 0.79512 0.32156 0.92076 0.0
H197 H 0.78247 0.20998 0.9322 0.0
H198 H 0.869 0.1531 0.87468 0.0
H199 H 0.88158 0.26421 0.86268 0.0
Tb200 Tb 0.1058 0.22121 0.86911 0.0
Eu201 Eu 0.14106 0.08855 0.89464 0.0
C202 C 0.12474 0.11254 0.82084 0.0
C203 C 0.06052 0.09952 0.88056 0.0
C204 C 0.09432 0.39367 0.85556 0.0
C205 C 0.08359 0.50637 0.84932 0.0
C206 C 0.07388 0.44335 0.84423 0.0
C207 C 0.12469 0.40763 0.87203 0.0
C208 C 0.13445 0.47067 0.87715 0.0
C209 C 0.11399 0.52089 0.86588 0.0
C210 C 0.08357 0.32763 0.85044 0.0
O211 O 0.11757 0.23547 0.92048 0.0
O212 O 0.11284 0.13179 0.93595 0.0
O213 O 0.17822 0.16787 0.90544 0.0
O214 O 0.16064 0.22754 0.8627 0.0
C215 C 0.11207 0.19229 0.9428 0.0
O216 O 0.1435 1.00866 0.92794 0.0
O217 O 0.18057 1.0159 0.88946 0.0
O218 O 0.14872 0.09609 0.84114 0.0
O219 O 0.10083 0.15324 0.82923 0.0
O220 O 0.06283 0.1616 0.88227 0.0
O221 O 0.08768 0.0628 0.87891 0.0
C222 C 0.18323 0.21441 0.88496 0.0
O223 O 0.10442 0.29242 0.8337 0.0
O224 O 0.07235 0.29796 0.8759 0.0
C225 C 0.16178 0.91352 0.90395 0.0
C226 C 0.14865 0.78478 0.88985 0.0
C227 C 0.17785 0.80248 0.90751 0.0
C228 C 0.18432 0.8663 0.91448 0.0
C229 C 0.13291 0.89635 0.88595 0.0
C230 C 0.12638 0.83263 0.879 0.0
C231 C 0.16803 0.98033 0.91231 0.0
H232 H 0.06697 0.54374 0.84074 0.0
H233 H 0.05027 0.4334 0.83161 0.0
H234 H 0.14082 0.36975 0.88095 0.0
H235 H 0.15818 0.48004 0.88966 0.0
H236 H 0.19579 0.76703 0.91584 0.0
H237 H 0.20683 0.87875 0.92827 0.0
H238 H 0.1152 0.93221 0.87761 0.0
H239 H 0.10346 0.8208 0.86571 0.0
Tb240 Tb 0.8803 0.22083 0.65188 0.0
Eu241 Eu 0.8452 0.08814 0.6262 0.0
C242 C 0.86142 0.11186 0.70006 0.0
C243 C 0.92568 0.09927 0.64042 0.0
C244 C 0.89174 0.39327 0.66546 0.0
C245 C 0.90207 0.50596 0.67234 0.0
C246 C 0.91173 0.44293 0.6775 0.0
C247 C 0.86186 0.40725 0.64822 0.0
C248 C 0.85215 0.47028 0.64303 0.0
C249 C 0.87217 0.52049 0.655 0.0
C250 C 0.90245 0.32723 0.67066 0.0
O251 O 0.86861 0.23527 0.60052 0.0
O252 O 0.87345 0.13166 0.58496 0.0
O253 O 0.80799 0.1674 0.6154 0.0
O254 O 0.82544 0.22697 0.65821 0.0
C255 C 0.87418 0.19219 0.57816 0.0
O256 O 0.84304 1.00826 0.59289 0.0
O257 O 0.80565 1.01548 0.63108 0.0
O258 O 0.8375 0.09528 0.67971 0.0
O259 O 0.88526 0.15277 0.69174 0.0
O260 O 0.92333 0.16135 0.63874 0.0
O261 O 0.89855 0.06248 0.64201 0.0
C262 C 0.8029 0.21385 0.6359 0.0
O263 O 0.88149 0.29204 0.68729 0.0
O264 O 0.9138 0.29754 0.64526 0.0
C265 C 0.82455 0.91312 0.61672 0.0
C266 C 0.83765 0.78437 0.63082 0.0
C267 C 0.80898 0.80195 0.61238 0.0
C268 C 0.80252 0.86577 0.6054 0.0
C269 C 0.85288 0.89607 0.63549 0.0
C270 C 0.8594 0.83234 0.64245 0.0
C271 C 0.81838 0.97993 0.60832 0.0
H272 H 0.91835 0.54332 0.68149 0.0
H273 H 0.93497 0.43297 0.69073 0.0
H274 H 0.84607 0.36938 0.63877 0.0
H275 H 0.8288 0.47967 0.6299 0.0
H276 H 0.79143 0.7664 0.60343 0.0
H277 H 0.78043 0.87812 0.59099 0.0
H278 H 0.87021 0.93204 0.64442 0.0
H279 H 0.88192 0.82061 0.65635 0.0
Tb280 Tb 0.10605 0.8664 0.65189 0.0
Eu281 Eu 0.14115 0.99911 0.62609 0.0
C282 C 0.12484 0.97543 0.69998 0.0
C283 C 0.06065 0.98791 0.64045 0.0
C284 C 0.09463 0.69395 0.66556 0.0
C285 C 0.08446 0.58127 0.6727 0.0
C286 C 0.07478 0.64429 0.67787 0.0
C287 C 0.1244 0.67998 0.64805 0.0
C288 C 0.13411 0.61695 0.64284 0.0
C289 C 0.11422 0.56674 0.65506 0.0
C290 C 0.08391 0.75999 0.67076 0.0
O291 O 0.11778 0.85194 0.60051 0.0
O292 O 0.11298 0.95554 0.58492 0.0
O293 O 0.17838 0.91987 0.61525 0.0
O294 O 0.1609 0.86033 0.65813 0.0
C295 C 0.11224 0.895 0.57815 0.0
O296 O 0.14328 0.07905 0.5928 0.0
O297 O 0.18071 0.07174 0.63085 0.0
O298 O 0.14878 0.99199 0.67959 0.0
O299 O 0.10101 0.9345 0.69173 0.0
O300 O 0.06302 0.92582 0.6388 0.0
O301 O 0.08777 1.02472 0.64199 0.0
C302 C 0.18347 0.87347 0.63578 0.0
O303 O 0.10486 0.79521 0.68733 0.0
O304 O 0.07256 0.78966 0.64539 0.0
C305 C 0.16182 0.17414 0.61658 0.0
C306 C 0.14873 0.30287 0.63075 0.0
C307 C 0.17727 0.28534 0.61204 0.0
C308 C 0.18373 0.22153 0.60503 0.0
C309 C 0.13361 0.19114 0.63562 0.0
C310 C 0.12711 0.25486 0.64261 0.0
C311 C 0.16797 0.10734 0.60815 0.0
H312 H 0.06827 0.5439 0.68206 0.0
H313 H 0.05165 0.65425 0.69132 0.0
H314 H 0.14008 0.71785 0.63839 0.0
H315 H 0.15736 0.60757 0.62949 0.0
H316 H 0.19472 0.32093 0.60291 0.0
H317 H 0.20571 0.20922 0.59041 0.0
H318 H 0.11638 0.15513 0.64474 0.0
H319 H 0.10468 0.26656 0.65673 0.0
Tb320 Tb 0.63902 0.59715 0.12843 0.0
Eu321 Eu 0.60345 0.72999 0.15359 0.0
C322 C 0.61269 0.69851 0.07918 0.0
C323 C 0.68225 0.71839 0.13949 0.0
C324 C 0.65893 0.42629 0.12042 0.0
C325 C 0.67134 0.31416 0.11394 0.0
C326 C 0.67867 0.37765 0.10692 0.0
C327 C 0.6321 0.41086 0.14149 0.0
C328 C 0.62468 0.34746 0.14844 0.0
C329 C 0.64399 0.29824 0.13451 0.0
C330 C 0.66544 0.49271 0.11146 0.0
O331 O 0.6452 0.60197 0.18051 0.0
O332 O 0.59748 0.65838 0.19409 0.0
O333 O 0.56032 0.66706 0.13858 0.0
O334 O 0.58738 0.57047 0.1429 0.0
C335 C 0.62107 0.61631 0.20122 0.0
O336 O 0.60086 0.80531 0.18962 0.0
O337 O 0.56888 0.81009 0.14715 0.0
O338 O 0.61679 0.74365 0.10066 0.0
O339 O 0.61327 0.63855 0.08739 0.0
O340 O 0.67584 0.67292 0.11871 0.0
O341 O 0.65983 0.73432 0.16141 0.0
C342 C 0.55945 0.60494 0.14022 0.0
O343 O 0.64075 0.5207 0.09607 0.0
O344 O 0.67787 0.52898 0.13399 0.0
C345 C 0.59003 0.90638 0.16773 0.0
C346 C 0.60848 1.03436 0.15775 0.0
C347 C 0.58012 1.0185 0.1771 0.0
C348 C 0.571 0.95509 0.182 0.0
C349 C 0.61847 0.92165 0.14861 0.0
C350 C 0.62762 0.98506 0.14367 0.0
C351 C 0.57992 0.83991 0.17265 0.0
H352 H 0.68652 0.27752 0.10256 0.0
H353 H 0.69942 0.38872 0.09053 0.0
H354 H 0.61665 0.44785 0.15225 0.0
H355 H 0.60379 0.337 0.16476 0.0
H356 H 0.5651 0.05508 0.1887 0.0
H357 H 0.54904 0.9441 0.19693 0.0
H358 H 0.63344 0.88452 0.13735 0.0
H359 H 0.64933 0.99544 0.12833 0.0
Tb360 Tb 0.34806 0.49018 0.12843 0.0
Eu361 Eu 0.38353 0.35726 0.15349 0.0
C362 C 0.37436 0.3889 0.0791 0.0
C363 C 0.30477 0.36892 0.13949 0.0
C364 C 0.32779 0.66111 0.12032 0.0
C365 C 0.31364 0.7727 0.11485 0.0
C366 C 0.30683 0.70901 0.10789 0.0
C367 C 0.35535 0.67747 0.14026 0.0
C368 C 0.36223 0.7411 0.14718 0.0
C369 C 0.34163 0.78964 0.13434 0.0
C370 C 0.32161 0.59454 0.11145 0.0
O371 O 0.34174 0.48526 0.1805 0.0
O372 O 0.38942 0.42877 0.19403 0.0
O373 O 0.42672 0.4202 0.13846 0.0
O374 O 0.39966 0.51678 0.14289 0.0
C375 C 0.36582 0.47085 0.2012 0.0
O376 O 0.38626 0.28204 0.18955 0.0
O377 O 0.41794 0.27693 0.14681 0.0
O378 O 0.37019 0.34374 0.10059 0.0
O379 O 0.37388 0.44883 0.08735 0.0
O380 O 0.31125 0.41444 0.11872 0.0
O381 O 0.32714 0.35288 0.16137 0.0
C382 C 0.4276 0.48231 0.14016 0.0
O383 O 0.34646 0.56674 0.09614 0.0
O384 O 0.30914 0.55824 0.13398 0.0
C385 C 0.39649 0.18093 0.16748 0.0
C386 C 0.37714 0.05345 0.15754 0.0
C387 C 0.40648 0.06844 0.17562 0.0
C388 C 0.41605 0.13163 0.18051 0.0
C389 C 0.36713 0.16647 0.14957 0.0
C390 C 0.35755 0.10332 0.14462 0.0
C391 C 0.40695 0.2472 0.17239 0.0
H392 H 0.29693 0.80867 0.10497 0.0
H393 H 0.28539 0.69722 0.09253 0.0
H394 H 0.37186 0.64107 0.15006 0.0
H395 H 0.38422 0.75228 0.16194 0.0
H396 H 0.4224 1.03131 0.18554 0.0
H397 H 0.43886 0.14198 0.19431 0.0
H398 H 0.35166 0.20406 0.13939 0.0
H399 H 0.3346 0.09358 0.13094 0.0
Tb400 Tb 0.63859 0.48969 0.3921 0.0
Eu401 Eu 0.60299 0.3568 0.36719 0.0
C402 C 0.61212 0.38872 0.44153 0.0
C403 C 0.68177 0.36824 0.3812 0.0
C404 C 0.65883 0.66062 0.40022 0.0
C405 C 0.67296 0.77224 0.40567 0.0
C406 C 0.67984 0.70855 0.41255 0.0
C407 C 0.63114 0.67698 0.38045 0.0
C408 C 0.62417 0.74061 0.37361 0.0
C409 C 0.64483 0.78916 0.38634 0.0
C410 C 0.66511 0.59404 0.40901 0.0
O411 O 0.64494 0.48453 0.34004 0.0
O412 O 0.59721 0.42817 0.32656 0.0
O413 O 0.55986 0.41996 0.3821 0.0
O414 O 0.58703 0.51643 0.3776 0.0
C415 C 0.62086 0.47013 0.31935 0.0
O416 O 0.60015 0.28149 0.33119 0.0
O417 O 0.56853 0.27657 0.37399 0.0
O418 O 0.61629 0.34346 0.42011 0.0
O419 O 0.61264 0.44861 0.43319 0.0
O420 O 0.67534 0.41389 0.4019 0.0
O421 O 0.65939 0.35215 0.35935 0.0
C422 C 0.55905 0.48207 0.38034 0.0
O423 O 0.64037 0.56614 0.42445 0.0
O424 O 0.67746 0.55784 0.38638 0.0
C425 C 0.58987 0.18047 0.35336 0.0
C426 C 0.60919 0.05297 0.36331 0.0
C427 C 0.57975 0.06798 0.34538 0.0
C428 C 0.5702 0.13117 0.34049 0.0
C429 C 0.61932 0.16598 0.37114 0.0
C430 C 0.62889 0.10282 0.37609 0.0
C431 C 0.57945 0.24674 0.34841 0.0
H432 H 0.68972 0.80822 0.41546 0.0
H433 H 0.70139 0.69675 0.42778 0.0
H434 H 0.61458 0.64057 0.37073 0.0
H435 H 0.60208 0.75178 0.35898 0.0
H436 H 0.56375 1.03085 0.33557 0.0
H437 H 0.54732 0.14154 0.32679 0.0
H438 H 0.63488 0.20357 0.3812 0.0
H439 H 0.65191 0.09307 0.38966 0.0
Tb440 Tb 0.34775 0.5976 0.39198 0.0
Eu441 Eu 0.38347 0.73049 0.36704 0.0
C442 C 0.37418 0.69848 0.44139 0.0
C443 C 0.30467 0.7191 0.38111 0.0
C444 C 0.32737 0.42667 0.39996 0.0
C445 C 0.3129 0.31512 0.40503 0.0
C446 C 0.30605 0.37882 0.41196 0.0
C447 C 0.35534 0.41025 0.38048 0.0
C448 C 0.36227 0.34662 0.37359 0.0
C449 C 0.3413 0.29813 0.386 0.0
C450 C 0.32111 0.49324 0.4088 0.0
O451 O 0.34157 0.60289 0.33992 0.0
O452 O 0.38941 0.65907 0.32645 0.0
O453 O 0.42655 0.66733 0.38194 0.0
O454 O 0.39938 0.57084 0.37752 0.0
C455 C 0.36575 0.61717 0.31924 0.0
O456 O 0.38642 0.80573 0.33099 0.0
O457 O 0.41784 0.81084 0.37383 0.0
O458 O 0.3701 0.74377 0.41998 0.0
O459 O 0.37357 0.63859 0.43308 0.0
O460 O 0.31103 0.67346 0.40182 0.0
O461 O 0.3271 0.73509 0.35921 0.0
C462 C 0.42736 0.60521 0.38024 0.0
O463 O 0.3458 0.52105 0.42427 0.0
O464 O 0.30886 0.52955 0.3862 0.0
C465 C 0.39649 0.90684 0.35311 0.0
C466 C 0.37703 1.03431 0.36299 0.0
C467 C 0.40674 1.01937 0.34536 0.0
C468 C 0.41637 0.9562 0.3405 0.0
C469 C 0.36677 0.92126 0.37058 0.0
C470 C 0.35713 0.9844 0.37549 0.0
C471 C 0.407 0.84059 0.34822 0.0
H472 H 0.29591 0.27919 0.41456 0.0
H473 H 0.28428 0.39066 0.42695 0.0
H474 H 0.37213 0.4466 0.37101 0.0
H475 H 0.38457 0.3354 0.3592 0.0
H476 H 0.42291 0.05654 0.33577 0.0
H477 H 0.43946 0.94589 0.32705 0.0
H478 H 0.35106 0.88363 0.38044 0.0
H479 H 0.3339 0.99409 0.38882 0.0
Tb480 Tb 0.3801 0.36677 0.86889 0.0
Eu481 Eu 0.34494 0.49935 0.89471 0.0
C482 C 0.36131 0.47582 0.82082 0.0
C483 C 0.42547 0.48832 0.88043 0.0
C484 C 0.39205 0.1943 0.85526 0.0
C485 C 0.40265 0.0819 0.84772 0.0
C486 C 0.41172 0.14512 0.84226 0.0
C487 C 0.36296 0.17966 0.87364 0.0
C488 C 0.35383 0.11639 0.87912 0.0
C489 C 0.37368 0.06666 0.86636 0.0
C490 C 0.40236 0.26053 0.84993 0.0
O491 O 0.36842 0.35218 0.92027 0.0
O492 O 0.37317 0.45579 0.93586 0.0
O493 O 0.30771 0.42007 0.90552 0.0
O494 O 0.32526 0.36063 0.86264 0.0
C495 C 0.37396 0.39525 0.94262 0.0
O496 O 0.34246 0.57889 0.92823 0.0
O497 O 0.30559 0.57228 0.88967 0.0
O498 O 0.33733 0.49223 0.84121 0.0
O499 O 0.38516 0.43495 0.82908 0.0
O500 O 0.4231 0.42623 0.88201 0.0
O501 O 0.39834 0.52513 0.87892 0.0
C502 C 0.30268 0.37367 0.88499 0.0
O503 O 0.38108 0.29537 0.83356 0.0
O504 O 0.41386 0.2904 0.87518 0.0
C505 C 0.32471 0.67429 0.90431 0.0
C506 C 0.33919 0.80273 0.89072 0.0
C507 C 0.31084 0.78604 0.90988 0.0
C508 C 0.30372 0.72234 0.91664 0.0
C509 C 0.35259 0.6905 0.88468 0.0
C510 C 0.35977 0.75406 0.87796 0.0
C511 C 0.3181 0.60758 0.9126 0.0
H512 H 0.41822 0.04493 0.83712 0.0
H513 H 0.4342 0.1556 0.82794 0.0
H514 H 0.34751 0.21717 0.88395 0.0
H515 H 0.33161 0.10646 0.89386 0.0
H516 H 0.29462 0.82224 0.9203 0.0
H517 H 0.28209 0.71065 0.93185 0.0
H518 H 0.36899 0.65395 0.87479 0.0
H519 H 0.38144 0.76506 0.86268 0.0
Tb520 Tb 0.60598 0.72088 0.86895 0.0
Eu521 Eu 0.64098 0.58816 0.89471 0.0
C522 C 0.62479 0.61181 0.82084 0.0
C523 C 0.5605 0.59948 0.88049 0.0
C524 C 0.59469 0.89333 0.85524 0.0
C525 C 0.58471 1.00601 0.84791 0.0
C526 C 0.575 0.943 0.84278 0.0
C527 C 0.62432 0.90727 0.87287 0.0
C528 C 0.63407 0.9703 0.87804 0.0
C529 C 0.61434 1.02052 0.86566 0.0
C530 C 0.58393 0.82731 0.85008 0.0
O531 O 0.61767 0.7354 0.92031 0.0
O532 O 0.61284 0.63182 0.93596 0.0
O533 O 0.67821 0.66737 0.90551 0.0
O534 O 0.66084 0.72687 0.86264 0.0
C535 C 0.61213 0.69237 0.94271 0.0
O536 O 0.64295 0.50807 0.92791 0.0
O537 O 0.68063 0.51568 0.88998 0.0
O538 O 0.64869 0.59521 0.8412 0.0
O539 O 0.60097 0.65277 0.82913 0.0
O540 O 0.5629 0.66156 0.88215 0.0
O541 O 0.5876 0.56262 0.87889 0.0
C542 C 0.68335 0.71377 0.88498 0.0
O543 O 0.60488 0.79204 0.8335 0.0
O544 O 0.57253 0.79769 0.87549 0.0
C545 C 0.66176 0.41315 0.90409 0.0
C546 C 0.64882 0.2844 0.88988 0.0
C547 C 0.67719 0.30196 0.90874 0.0
C548 C 0.68357 0.36579 0.91577 0.0
C549 C 0.63375 0.39611 0.88489 0.0
C550 C 0.62732 0.33238 0.87787 0.0
C551 C 0.66778 0.47994 0.9126 0.0
H552 H 0.56866 1.0434 0.83843 0.0
H553 H 0.55197 0.93306 0.82923 0.0
H554 H 0.63988 0.86939 0.88265 0.0
H555 H 0.65722 0.97966 0.89149 0.0
H556 H 0.69455 0.2664 0.91799 0.0
H557 H 0.7054 0.37813 0.93052 0.0
H558 H 0.61659 0.4321 0.87568 0.0
H559 H 0.60503 0.32065 0.86363 0.0
Tb560 Tb 0.38055 0.72145 0.6516 0.0
Eu561 Eu 0.34528 0.58879 0.62611 0.0
C562 C 0.36151 0.61286 0.69992 0.0
C563 C 0.42578 0.59964 0.6403 0.0
C564 C 0.39219 0.8939 0.66502 0.0
C565 C 0.40272 1.00658 0.67166 0.0
C566 C 0.41237 0.94354 0.6768 0.0
C567 C 0.36214 0.90791 0.64804 0.0
C568 C 0.35245 0.97096 0.64286 0.0
C569 C 0.37265 1.02114 0.65459 0.0
C570 C 0.40286 0.82784 0.67022 0.0
O571 O 0.36883 0.73564 0.60023 0.0
O572 O 0.37363 0.63195 0.58484 0.0
O573 O 0.30812 0.6681 0.61528 0.0
O574 O 0.32571 0.72792 0.65797 0.0
C575 C 0.37438 0.69243 0.57794 0.0
O576 O 0.34284 0.50904 0.59273 0.0
O577 O 0.30583 0.51602 0.63127 0.0
O578 O 0.33755 0.59634 0.6796 0.0
O579 O 0.38543 0.65355 0.69154 0.0
O580 O 0.42351 0.66173 0.63854 0.0
O581 O 0.3986 0.56297 0.64194 0.0
C582 C 0.3031 0.71469 0.63573 0.0
O583 O 0.38193 0.79276 0.68695 0.0
O584 O 0.41409 0.79806 0.64481 0.0
C585 C 0.32466 0.41376 0.61665 0.0
C586 C 0.33796 0.28502 0.63061 0.0
C587 C 0.30907 0.30258 0.61247 0.0
C588 C 0.30251 0.3664 0.60557 0.0
C589 C 0.35323 0.39673 0.63511 0.0
C590 C 0.35985 0.33301 0.64199 0.0
C591 C 0.31836 0.48058 0.60837 0.0
H592 H 0.41914 0.04392 0.68061 0.0
H593 H 0.43573 0.93355 0.68983 0.0
H594 H 0.34622 0.87006 0.63878 0.0
H595 H 0.32897 0.98037 0.62995 0.0
H596 H 0.29142 0.26702 0.60372 0.0
H597 H 0.28025 0.37874 0.5914 0.0
H598 H 0.37066 0.43271 0.64386 0.0
H599 H 0.38253 0.32129 0.65566 0.0
Tb600 Tb 0.60586 0.36597 0.65176 0.0
Eu601 Eu 0.64115 0.49863 0.62612 0.0
C602 C 0.62477 0.47471 0.69998 0.0
C603 C 0.56061 0.48771 0.64041 0.0
C604 C 0.59429 0.19351 0.66528 0.0
C605 C 0.58396 0.08082 0.67221 0.0
C606 C 0.57429 0.14385 0.67737 0.0
C607 C 0.62419 0.17952 0.64797 0.0
C608 C 0.63389 0.11648 0.64277 0.0
C609 C 0.61386 0.06628 0.65479 0.0
C610 C 0.58359 0.25956 0.67049 0.0
O611 O 0.61763 0.3517 0.60037 0.0
O612 O 0.61291 0.45537 0.58491 0.0
O613 O 0.67834 0.41932 0.61528 0.0
O614 O 0.6607 0.35964 0.65805 0.0
C615 C 0.61212 0.39488 0.57806 0.0
O616 O 0.64355 0.57846 0.59277 0.0
O617 O 0.68063 0.57136 0.63114 0.0
O618 O 0.64876 0.49121 0.67961 0.0
O619 O 0.60088 0.43395 0.69166 0.0
O620 O 0.56291 0.42562 0.63872 0.0
O621 O 0.58778 0.52441 0.64199 0.0
C622 C 0.68333 0.37281 0.63577 0.0
O623 O 0.60452 0.29468 0.68714 0.0
O624 O 0.57235 0.28932 0.64511 0.0
C625 C 0.6618 0.67367 0.61663 0.0
C626 C 0.64854 0.80241 0.63066 0.0
C627 C 0.67726 0.78489 0.6122 0.0
C628 C 0.68381 0.72107 0.60527 0.0
C629 C 0.6334 0.69066 0.63541 0.0
C630 C 0.6268 0.75438 0.64233 0.0
C631 C 0.66808 0.60686 0.6083 0.0
H632 H 0.56766 1.04347 0.6814 0.0
H633 H 0.55105 0.15382 0.69066 0.0
H634 H 0.63998 0.21738 0.63847 0.0
H635 H 0.65725 0.10709 0.62959 0.0
H636 H 0.6948 0.82048 0.60322 0.0
H637 H 0.70595 0.70877 0.59085 0.0
H638 H 0.61609 0.65465 0.64438 0.0
H639 H 0.60424 0.76607 0.65625 0.0
C640 C 0.22902 0.27423 0.10927 0.0
C641 C 0.21421 0.25511 0.13861 0.0
H642 H 0.26912 0.32793 0.08647 0.0
C643 C 0.22875 0.27532 0.16774 0.0
H644 H 0.21786 0.2599 0.08651 0.0
C645 C 0.25785 0.31318 0.16772 0.0
C646 C 0.27253 0.33316 0.13855 0.0
H647 H 0.21767 0.26151 0.19067 0.0
H648 H 0.26883 0.32718 0.19062 0.0
C649 C 0.25785 0.3138 0.10924 0.0
C650 C 0.7581 0.81206 0.16781 0.0
C651 C 0.77267 0.83257 0.13869 0.0
H652 H 0.71806 0.75984 0.19064 0.0
C653 C 0.75795 0.81356 0.10934 0.0
H654 H 0.76911 0.82577 0.19074 0.0
C655 C 0.72918 0.77384 0.10928 0.0
C656 C 0.71447 0.75421 0.13857 0.0
H657 H 0.76914 0.8281 0.08659 0.0
H658 H 0.71797 0.75983 0.08649 0.0
C659 C 0.72907 0.77404 0.16775 0.0
C660 C 0.25768 0.77409 0.41147 0.0
C661 C 0.27249 0.75506 0.38212 0.0
H662 H 0.21762 0.82781 0.43431 0.0
C663 C 0.258 0.77551 0.353 0.0
H664 H 0.2688 0.75958 0.43421 0.0
C665 C 0.22896 0.8135 0.35305 0.0
C666 C 0.21428 0.83336 0.38223 0.0
H667 H 0.26908 0.76178 0.33006 0.0
H668 H 0.21801 0.82767 0.33015 0.0
C669 C 0.2289 0.81378 0.41152 0.0
C670 C 0.7576 0.27389 0.41157 0.0
C671 C 0.77233 0.25441 0.38227 0.0
H672 H 0.71755 0.32787 0.43429 0.0
C673 C 0.75771 0.27421 0.3531 0.0
H674 H 0.76883 0.25989 0.43436 0.0
C675 C 0.7286 0.31204 0.35306 0.0
C676 C 0.714 0.33241 0.38219 0.0
H677 H 0.76874 0.26012 0.3302 0.0
H678 H 0.71756 0.32573 0.33014 0.0
C679 C 0.72876 0.31344 0.41153 0.0
C680 C 0.72906 0.77237 0.91524 0.0
C681 C 0.71476 0.75217 0.8859 0.0
H682 H 0.7679 0.82893 0.93808 0.0
C683 C 0.72901 0.77345 0.85678 0.0
H684 H 0.71812 0.75725 0.93799 0.0
C685 C 0.75735 0.81334 0.85683 0.0
C686 C 0.77148 0.83439 0.886 0.0
H687 H 0.71833 0.75885 0.83385 0.0
H688 H 0.76813 0.82811 0.83393 0.0
C689 C 0.75706 0.81398 0.91529 0.0
C690 C 0.25698 0.31462 0.91517 0.0
C691 C 0.27126 0.33529 0.88587 0.0
H692 H 0.2182 0.2576 0.93793 0.0
C693 C 0.25701 0.31443 0.85671 0.0
H694 H 0.26793 0.32942 0.93795 0.0
C695 C 0.22871 0.27446 0.8567 0.0
C696 C 0.21461 0.25291 0.88584 0.0
H697 H 0.26768 0.3294 0.83381 0.0
H698 H 0.21794 0.26001 0.83378 0.0
C699 C 0.22902 0.27293 0.91515 0.0
C700 C 0.72893 0.31344 0.66408 0.0
C701 C 0.71477 0.33447 0.63492 0.0
H702 H 0.76797 0.25899 0.68705 0.0
C703 C 0.72916 0.31403 0.60563 0.0
H704 H 0.71817 0.32822 0.68698 0.0
C705 C 0.75715 0.27242 0.60567 0.0
C706 C 0.77149 0.25225 0.63499 0.0
H707 H 0.71829 0.32896 0.58284 0.0
H708 H 0.76807 0.25728 0.5829 0.0
C709 C 0.75727 0.27356 0.66412 0.0
C710 C 0.2292 0.81433 0.66403 0.0
C711 C 0.21492 0.83519 0.63488 0.0
H712 H 0.26835 0.76004 0.68693 0.0
C713 C 0.22922 0.81464 0.60557 0.0
H714 H 0.21852 0.8292 0.68694 0.0
C715 C 0.25723 0.77308 0.60557 0.0
C716 C 0.27168 0.75307 0.63487 0.0
H717 H 0.21826 0.82943 0.5828 0.0
H718 H 0.26807 0.75784 0.58279 0.0
C719 C 0.25756 0.7745 0.66402 0.0
C720 C 0.15114 1.02617 0.27459 0.0
C721 C 0.1203 1.0062 0.28865 0.0
H722 H 0.17537 0.07671 0.23606 0.0
C723 C 0.08932 1.0249 0.27441 0.0
H724 H 0.17539 1.01287 0.28516 0.0
C725 C 0.0893 0.06346 0.24675 0.0
C726 C 0.12027 0.08258 0.23252 0.0
H727 H 0.06518 1.011 0.28508 0.0
H728 H 0.06515 0.077 0.23605 0.0
C729 C 0.15112 0.06308 0.24662 0.0
C730 C 0.89744 0.06294 0.27433 0.0
C731 C 0.86646 0.08192 0.28857 0.0
H732 H 0.9216 1.01058 0.236 0.0
C733 C 0.83562 0.06222 0.27451 0.0
H734 H 0.92158 0.07664 0.285 0.0
C735 C 0.83564 1.02527 0.24656 0.0
C736 C 0.86648 1.00547 0.23247 0.0
H737 H 0.81137 0.07574 0.28508 0.0
H738 H 0.81139 1.01184 0.23601 0.0
C739 C 0.89746 1.02435 0.24669 0.0
C740 C 0.89318 0.0617 0.7463 0.0
C741 C 0.86219 0.07937 0.73172 0.0
H742 H 0.91733 1.01245 0.78564 0.0
C743 C 0.83136 0.06056 0.74618 0.0
H744 H 0.91732 0.07473 0.73535 0.0
C745 C 0.83137 1.02573 0.77483 0.0
C746 C 0.86221 1.00724 0.78929 0.0
H747 H 0.8071 0.0731 0.73539 0.0
H748 H 0.80711 1.01294 0.78564 0.0
C749 C 0.89319 1.02523 0.7747 0.0
C750 C 0.15483 0.06163 0.77465 0.0
C751 C 0.12398 0.08011 0.78917 0.0
H752 H 0.17913 1.01423 0.73517 0.0
C753 C 0.09301 0.0621 0.77467 0.0
H754 H 0.17908 0.07443 0.78539 0.0
C755 C 0.09304 1.02561 0.74628 0.0
C756 C 0.12404 1.00794 0.73163 0.0
H757 H 0.06886 0.07487 0.78566 0.0
H758 H 0.06891 1.01256 0.73539 0.0
C759 C 0.15486 1.02677 0.74602 0.0
C760 C 0.58927 0.52399 0.27414 0.0
C761 C 0.62022 0.50497 0.28834 0.0
H762 H 0.5652 0.57638 0.23583 0.0
C763 C 0.65109 0.52456 0.27422 0.0
H764 H 0.56511 0.51038 0.28485 0.0
C765 C 0.65114 0.56147 0.24624 0.0
C766 C 0.62033 0.58134 0.2322 0.0
H767 H 0.67532 0.511 0.28475 0.0
H768 H 0.67541 0.57483 0.23565 0.0
C769 C 0.58932 0.56255 0.24647 0.0
C770 C 0.33564 0.56265 0.27417 0.0
C771 C 0.36647 0.58228 0.28825 0.0
H772 H 0.3114 0.51231 0.23566 0.0
C773 C 0.39746 0.56321 0.27405 0.0
H774 H 0.31138 0.57623 0.28471 0.0
C775 C 0.39747 0.5246 0.24641 0.0
C776 C 0.3665 0.50579 0.23217 0.0
H777 H 0.4216 0.57684 0.28473 0.0
H778 H 0.42162 0.51075 0.23574 0.0
C779 C 0.33565 0.52568 0.24622 0.0
C780 C 0.33132 0.52723 0.77478 0.0
C781 C 0.36213 0.50838 0.78918 0.0
H782 H 0.30713 0.57487 0.73538 0.0
C783 C 0.39314 0.52602 0.77454 0.0
H784 H 0.30704 0.51471 0.78563 0.0
C785 C 0.39319 0.56247 0.74614 0.0
C786 C 0.36223 0.58048 0.73161 0.0
H787 H 0.41726 0.51294 0.78543 0.0
H788 H 0.41735 0.57521 0.73514 0.0
C789 C 0.33137 0.56205 0.74614 0.0
C790 C 0.65484 0.5604 0.77475 0.0
C791 C 0.62401 0.57929 0.78919 0.0
H792 H 0.67909 0.51271 0.73533 0.0
C793 C 0.59303 0.56166 0.7746 0.0
H794 H 0.67911 0.57291 0.78556 0.0
C795 C 0.59301 0.52518 0.74621 0.0
C796 C 0.62399 0.50712 0.73165 0.0
H797 H 0.56889 0.57475 0.78552 0.0
H798 H 0.56887 0.51244 0.73525 0.0
C799 C 0.65483 0.52556 0.74612 0.0
C800 C 0.12715 0.25273 0.99332 0.0
C801 C 0.10623 0.20914 0.97693 0.0
H802 H 0.14546 0.28427 0.03968 0.0
C803 C 0.08323 0.17194 0.99468 0.0
H804 H 0.14531 0.28149 0.98009 0.0
C805 C 0.08331 0.17352 0.02822 0.0
C806 C 0.1064 0.21233 0.04488 0.0
H807 H 0.06665 0.13833 0.98262 0.0
H808 H 0.06679 0.14108 0.0412 0.0
C809 C 0.12723 0.25432 0.0273 0.0
C810 C 0.85929 0.83452 0.9935 0.0
C811 C 0.88019 0.87798 0.97693 0.0
H812 H 0.84112 0.80319 0.04001 0.0
C813 C 0.9033 0.91515 0.9945 0.0
H814 H 0.84104 0.80579 0.98042 0.0
C815 C 0.90335 0.91368 0.02804 0.0
C816 C 0.88029 0.87501 0.04489 0.0
H817 H 0.91987 0.94867 0.98231 0.0
H818 H 0.91995 0.94611 0.04088 0.0
C819 C 0.85934 0.83304 0.02748 0.0
C820 C 0.08321 0.91337 0.4929 0.0
C821 C 0.10647 0.875 0.47612 0.0
H822 H 0.06644 0.94818 0.53858 0.0
C823 C 0.12752 0.8333 0.49358 0.0
H824 H 0.06654 0.94559 0.48 0.0
C825 C 0.12746 0.83479 0.52757 0.0
C826 C 0.10635 0.87799 0.54407 0.0
H827 H 0.14588 0.8037 0.48111 0.0
H828 H 0.14579 0.80632 0.5407 0.0
C829 C 0.08315 0.91484 0.52643 0.0
C830 C 0.85906 0.25254 0.52763 0.0
C831 C 0.88009 0.20919 0.54406 0.0
H832 H 0.84073 0.28386 0.48123 0.0
C833 C 0.90325 0.17227 0.52636 0.0
H834 H 0.84077 0.28108 0.54082 0.0
C835 C 0.90323 0.17384 0.49282 0.0
C836 C 0.88005 0.21238 0.47611 0.0
H837 H 0.9199 0.13883 0.53845 0.0
H838 H 0.91988 0.14158 0.47988 0.0
C839 C 0.85904 0.25413 0.49364 0.0
C840 C 0.58333 0.67411 0.02812 0.0
C841 C 0.60665 0.71247 0.04476 0.0
H842 H 0.56642 0.63929 0.98254 0.0
C843 C 0.62767 0.75412 0.02717 0.0
H844 H 0.56668 0.64192 0.04112 0.0
C845 C 0.62751 0.75261 0.99319 0.0
C846 C 0.60634 0.70942 0.97681 0.0
H847 H 0.64608 0.78371 0.03954 0.0
H848 H 0.64582 0.78104 0.97995 0.0
C849 C 0.58317 0.67262 0.99458 0.0
C850 C 0.35898 0.3349 0.99324 0.0
C851 C 0.37998 0.37821 0.97668 0.0
H852 H 0.34079 0.30364 0.03975 0.0
C853 C 0.40323 0.41508 0.99425 0.0
H854 H 0.34062 0.30641 0.98016 0.0
C855 C 0.40333 0.4135 0.02778 0.0
C856 C 0.38018 0.37501 0.04463 0.0
H857 H 0.41987 0.44848 0.98205 0.0
H858 H 0.42005 0.44573 0.04063 0.0
C859 C 0.35908 0.33331 0.02723 0.0
C860 C 0.6271 0.333 0.49346 0.0
C861 C 0.60621 0.37499 0.476 0.0
H862 H 0.6453 0.30576 0.54056 0.0
C863 C 0.58315 0.41373 0.4928 0.0
H864 H 0.64531 0.30309 0.48097 0.0
C865 C 0.58314 0.41523 0.52634 0.0
C866 C 0.60619 0.37803 0.54396 0.0
H867 H 0.56659 0.44617 0.47992 0.0
H868 H 0.56658 0.4488 0.53849 0.0
C869 C 0.62709 0.33452 0.52745 0.0
C870 C 0.40324 0.67191 0.5261 0.0
C871 C 0.38026 0.7092 0.54381 0.0
H872 H 0.41969 0.64088 0.47962 0.0
C873 C 0.35937 0.75277 0.52737 0.0
H874 H 0.4198 0.6383 0.53819 0.0
C875 C 0.35931 0.75426 0.49338 0.0
C876 C 0.38013 0.71219 0.47585 0.0
H877 H 0.34122 0.78161 0.54055 0.0
H878 H 0.34111 0.78423 0.48096 0.0
C879 C 0.40318 0.67338 0.49256 0.0
C880 C 0.96356 0.08023 0.1407 0.0
C881 C 0.96122 1.01386 0.14061 0.0
H882 H -0.00371 0.16114 0.14068 0.0
C883 C 0.99143 0.97773 0.14062 0.0
H884 H 0.94082 0.10945 0.14068 0.0
C885 C 0.02329 1.00734 0.14071 0.0
C886 C 0.02563 0.07371 0.14066 0.0
H887 H 0.99056 0.92643 0.14061 0.0
H888 H 0.04604 0.97812 0.14069 0.0
C889 C -0.00457 0.10983 0.14066 0.0
C890 C 0.96349 1.00733 0.38047 0.0
C891 C 0.96108 0.07369 0.38049 0.0
H892 H -0.0037 0.92654 0.38059 0.0
C893 C 0.99126 0.10993 0.38048 0.0
H894 H 0.94077 0.97803 0.3805 0.0
C895 C 0.02315 0.08043 0.38045 0.0
C896 C 0.02556 1.01407 0.38055 0.0
H897 H 0.99035 0.16123 0.38044 0.0
H898 H 0.04587 0.10973 0.38045 0.0
C899 C -0.00461 0.97784 0.38057 0.0
C900 C 0.02199 1.00467 0.87991 0.0
C901 C 0.02606 0.07076 0.88009 0.0
H902 H 0.98722 0.92671 0.87994 0.0
C903 C -0.00324 0.10945 0.88004 0.0
H904 H 0.04397 0.97349 0.87993 0.0
C905 C 0.96415 0.08265 0.87998 0.0
C906 C 0.96008 1.01656 0.88007 0.0
H907 H -0.00108 0.16062 0.8801 0.0
H908 H 0.94217 0.11383 0.88005 0.0
C909 C 0.98938 0.97788 0.87995 0.0
C910 C 0.96427 1.00452 0.64106 0.0
C911 C 0.96016 0.0706 0.6409 0.0
H912 H -0.0009 0.92664 0.64102 0.0
C913 C 0.98942 0.10936 0.64098 0.0
H914 H 0.94231 0.97328 0.64103 0.0
C915 C 0.02206 0.08266 0.64103 0.0
C916 C 0.02617 1.01657 0.64092 0.0
H917 H 0.98723 0.16053 0.64093 0.0
H918 H 0.04401 0.11389 0.64097 0.0
C919 C -0.0031 0.97781 0.64103 0.0
C920 C 0.4637 0.58017 0.14033 0.0
C921 C 0.46129 0.51381 0.14025 0.0
H922 H 0.49652 0.66096 0.14031 0.0
C923 C 0.49145 0.47757 0.14025 0.0
H924 H 0.44099 0.60947 0.14032 0.0
C925 C 0.52335 0.50706 0.14033 0.0
C926 C 0.52577 0.57342 0.14029 0.0
H927 H 0.49054 0.42627 0.14024 0.0
H928 H 0.54607 0.47776 0.14031 0.0
C929 C 0.4956 0.60966 0.14029 0.0
C930 C 0.49121 0.60968 0.38014 0.0
C931 C 0.461 0.57356 0.38016 0.0
H932 H 0.54582 0.60929 0.38011 0.0
C933 C 0.46333 0.50719 0.38014 0.0
H934 H 0.49035 0.66099 0.3801 0.0
C935 C 0.49519 0.47758 0.38024 0.0
C936 C 0.52541 0.5137 0.38022 0.0
H937 H 0.44058 0.47797 0.38018 0.0
H938 H 0.49605 0.42627 0.38027 0.0
C939 C 0.52307 0.58007 0.38011 0.0
C940 C 0.4641 0.58304 0.87992 0.0
C941 C 0.45996 0.51697 0.87998 0.0
H942 H 0.49898 0.66086 0.88007 0.0
C943 C 0.4892 0.47816 0.87983 0.0
H944 H 0.44216 0.61431 0.88001 0.0
C945 C 0.52185 0.50481 0.87981 0.0
C946 C 0.526 0.57088 0.88002 0.0
H947 H 0.48698 0.427 0.8798 0.0
H948 H 0.54379 0.47353 0.87981 0.0
C949 C 0.49675 0.6097 0.87998 0.0
C950 C 0.46425 0.50472 0.641 0.0
C951 C 0.46022 0.57082 0.64081 0.0
H952 H 0.49899 0.4267 0.641 0.0
C953 C 0.48954 0.60946 0.64089 0.0
H954 H 0.44226 0.47358 0.64097 0.0
C955 C 0.52214 0.58262 0.64097 0.0
C956 C 0.52617 0.51652 0.64088 0.0
H957 H 0.4874 0.66063 0.64082 0.0
H958 H 0.54413 0.61376 0.6409 0.0
C959 C 0.49686 0.47787 0.64099 0.0
C960 C 0.12491 0.71055 0.17112 0.0
C961 C 0.13675 0.73041 0.14069 0.0
H962 H 0.1075 0.6334 0.20043 0.0
C963 C 0.13997 0.68501 0.11601 0.0
H964 H 0.12262 0.74394 0.19084 0.0
C965 C 0.13133 0.62159 0.12153 0.0
C966 C 0.1192 0.60185 0.15187 0.0
H967 H 0.14845 0.6987 0.09212 0.0
H968 H 0.13346 0.58824 0.10177 0.0
C969 C 0.11623 0.64711 0.17663 0.0
C970 C 0.84685 0.40267 0.11619 0.0
C971 C 0.8497 0.35734 0.14094 0.0
H972 H 0.85364 0.49936 0.1019 0.0
C973 C 0.86114 0.37729 0.17146 0.0
H974 H 0.8387 0.38891 0.09224 0.0
C975 C 0.8698 0.44072 0.17698 0.0
C976 C 0.8672 0.48591 0.15215 0.0
H977 H 0.86315 0.34395 0.19123 0.0
H978 H 0.87822 0.45449 0.20085 0.0
C979 C 0.85546 0.46609 0.12172 0.0
C980 C 0.10053 0.37626 0.37923 0.0
C981 C 0.13488 0.35687 0.38002 0.0
H982 H 0.06528 0.45299 0.3739 0.0
C983 C 0.16051 0.40263 0.37516 0.0
H984 H 0.08014 0.34256 0.38347 0.0
C985 C 0.15196 0.46614 0.3696 0.0
C986 C 0.11758 0.48551 0.36882 0.0
H987 H 0.18721 0.38924 0.37523 0.0
H988 H 0.17233 0.49993 0.36548 0.0
C989 C 0.09199 0.43969 0.37373 0.0
C990 C 0.87023 0.64679 0.34426 0.0
C991 C 0.86722 0.60146 0.36899 0.0
H992 H 0.86391 0.74368 0.33011 0.0
C993 C 0.85507 0.62112 0.39933 0.0
H994 H 0.87898 0.63315 0.32046 0.0
C995 C 0.84647 0.68454 0.40489 0.0
C996 C 0.84973 0.73002 0.38025 0.0
H997 H 0.85291 0.58772 0.41907 0.0
H998 H 0.83798 0.69817 0.42878 0.0
C999 C 0.86158 0.71022 0.34981 0.0
C1000 C 0.88236 0.39004 0.88522 0.0
C1001 C 0.84815 0.36974 0.88483 0.0
H1002 H 0.91728 0.46744 0.88044 0.0
C1003 C 0.82243 0.41471 0.8787 0.0
H1004 H 0.90278 0.35703 0.89049 0.0
C1005 C 0.83078 0.47826 0.8729 0.0
C1006 C 0.86504 0.4984 0.8731 0.0
H1007 H 0.79585 0.40062 0.87786 0.0
H1008 H 0.81039 0.5114 0.86771 0.0
C1009 C 0.89069 0.45346 0.87945 0.0
C1010 C 0.13794 0.60691 0.90141 0.0
C1011 C 0.124 0.58812 0.87165 0.0
H1012 H 0.15618 0.68338 0.93064 0.0
C1013 C 0.11915 0.63433 0.84762 0.0
H1014 H 0.1416 0.57281 0.92062 0.0
C1015 C 0.12754 0.69778 0.85336 0.0
C1016 C 0.14101 0.71675 0.88328 0.0
H1017 H 0.10905 0.62141 0.82422 0.0
H1018 H 0.12365 0.73196 0.83422 0.0
C1019 C 0.14633 0.6704 0.90715 0.0
C1020 C 0.84088 0.67024 0.61324 0.0
C1021 C 0.8453 0.71635 0.63739 0.0
H1022 H 0.84627 0.57286 0.59963 0.0
C1023 C 0.85785 0.69713 0.66764 0.0
H1024 H 0.83175 0.68343 0.58952 0.0
C1025 C 0.8662 0.63368 0.67343 0.0
C1026 C 0.86223 0.58772 0.64914 0.0
H1027 H 0.86103 0.73111 0.68698 0.0
H1028 H 0.87557 0.62055 0.69707 0.0
C1029 C 0.84923 0.60676 0.61904 0.0
C1030 C 0.12875 0.39015 0.6677 0.0
C1031 C 0.14107 0.37089 0.63735 0.0
H1032 H 0.11121 0.46677 0.69725 0.0
C1033 C 0.14527 0.41694 0.61311 0.0
H1034 H 0.12574 0.35621 0.6871 0.0
C1035 C 0.13692 0.48042 0.61894 0.0
C1036 C 0.12415 0.49951 0.64916 0.0
H1037 H 0.15421 0.40372 0.58931 0.0
H1038 H 0.1397 0.51428 0.59948 0.0
C1039 C 0.1204 0.4536 0.67353 0.0
C1040 C 0.59216 0.14782 0.1471 0.0
C1041 C 0.61773 0.10202 0.152 0.0
H1042 H 0.58033 0.24494 0.13735 0.0
C1043 C 0.65211 0.1214 0.15121 0.0
H1044 H 0.56545 0.1345 0.14694 0.0
C1045 C 0.66067 0.18491 0.14563 0.0
C1046 C 0.63506 0.23066 0.14078 0.0
H1047 H 0.67247 0.08763 0.15533 0.0
H1048 H 0.68737 0.19832 0.14556 0.0
C1049 C 0.6007 0.21126 0.14159 0.0
C1050 C 0.36149 0.8774 0.17107 0.0
C1051 C 0.34984 0.85757 0.14061 0.0
H1052 H 0.37871 0.95451 0.20045 0.0
C1053 C 0.34676 0.903 0.11593 0.0
H1054 H 0.36368 0.84397 0.19079 0.0
C1055 C 0.35534 0.96643 0.12149 0.0
C1056 C 0.36729 0.98613 0.15186 0.0
H1057 H 0.33843 0.88934 0.09202 0.0
H1058 H 0.35332 0.99979 0.10173 0.0
C1059 C 0.37012 0.94083 0.17662 0.0
C1060 C 0.63119 0.96594 0.39926 0.0
C1061 C 0.61905 0.98564 0.36895 0.0
H1062 H 0.64829 0.88885 0.42864 0.0
C1063 C 0.61605 0.94035 0.34422 0.0
H1064 H 0.63334 0.99931 0.419 0.0
C1065 C 0.62472 0.87691 0.34972 0.0
C1066 C 0.63657 0.85708 0.38012 0.0
H1067 H 0.60731 0.95403 0.32044 0.0
H1068 H 0.6224 0.84349 0.33002 0.0
C1069 C 0.63981 0.90251 0.40478 0.0
C1070 C 0.37055 0.14707 0.34397 0.0
C1071 C 0.3671 0.10163 0.3686 0.0
H1072 H 0.36455 0.24404 0.32985 0.0
C1073 C 0.35446 0.12118 0.39878 0.0
H1074 H 0.37967 0.13352 0.32028 0.0
C1075 C 0.34582 0.18461 0.4043 0.0
C1076 C 0.34954 0.23019 0.37976 0.0
H1077 H 0.35195 0.0877 0.41845 0.0
H1078 H 0.33696 0.19814 0.42808 0.0
C1079 C 0.36186 0.2105 0.34947 0.0
C1080 C 0.32205 0.91537 0.87828 0.0
C1081 C 0.34778 0.87052 0.88458 0.0
H1082 H 0.30998 1.01197 0.86711 0.0
C1083 C 0.38197 0.89094 0.88512 0.0
H1084 H 0.29549 0.90119 0.87732 0.0
C1085 C 0.39026 0.95436 0.87931 0.0
C1086 C 0.3646 0.99918 0.87278 0.0
H1087 H 0.40239 0.85803 0.89053 0.0
H1088 H 0.41683 0.96843 0.88041 0.0
C1089 C 0.33036 0.97892 0.87244 0.0
C1090 C 0.62916 0.197 0.8529 0.0
C1091 C 0.64121 0.21636 0.8833 0.0
H1092 H 0.61184 0.1203 0.82333 0.0
C1093 C 0.64514 0.1704 0.90761 0.0
H1094 H 0.62636 0.23087 0.83345 0.0
C1095 C 0.6368 0.10692 0.9018 0.0
C1096 C 0.6243 0.08774 0.87153 0.0
H1097 H 0.65386 0.1837 0.93144 0.0
H1098 H 0.63936 0.07314 0.92132 0.0
C1099 C 0.62082 0.13355 0.8471 0.0
C1100 C 0.34936 0.10738 0.6188 0.0
C1101 C 0.36269 0.08839 0.64878 0.0
H1102 H 0.33157 0.184 0.58942 0.0
C1103 C 0.36698 0.1344 0.67299 0.0
H1104 H 0.34616 0.07343 0.59944 0.0
C1105 C 0.35858 0.19785 0.66725 0.0
C1106 C 0.34569 0.21701 0.63713 0.0
H1107 H 0.3766 0.12131 0.69655 0.0
H1108 H 0.362 0.23186 0.68654 0.0
C1109 C 0.34097 0.17086 0.61305 0.0
C1110 C 0.6282 0.88964 0.66746 0.0
C1111 C 0.64081 0.87042 0.63721 0.0
H1112 H 0.6104 0.96622 0.6969 0.0
C1113 C 0.64525 0.91651 0.61303 0.0
H1114 H 0.625 0.85567 0.68682 0.0
C1115 C 0.63687 0.97999 0.61882 0.0
C1116 C 0.62382 0.99904 0.64893 0.0
H1117 H 0.65442 0.90332 0.5893 0.0
H1118 H 0.63984 1.01388 0.59939 0.0
C1119 C 0.61981 0.95309 0.67324 0.0
loop_
_geom_bond_atom_site_label_1
_geom_bond_atom_site_label_2
_geom_bond_distance
_geom_bond_site_symmetry_2
_ccdc_geom_bond_type
Tb0 C10 2.825 1_545 S
Tb0 O11 2.347 . S
Tb0 O14 2.366 . S
Tb0 O19 2.418 . S
Tb0 O20 2.384 . S
Tb0 O23 2.479 1_545 S
Tb0 O24 2.471 1_545 S
Eu1 O12 2.418 . S
Eu1 O13 2.384 . S
Eu1 O16 2.479 . S
Eu1 O17 2.471 . S
Eu1 O18 2.347 . S
Eu1 O21 2.366 . S
Eu1 C31 2.825 . S
C2 O18 1.259 . S
C2 O19 1.265 . S
C3 O20 1.255 . S
C3 O21 1.265 . S
C4 C6 1.380 . S
C4 C7 1.374 . S
C4 C10 1.507 . S
C5 C6 1.384 . S
C5 C9 1.387 . S
C5 H32 0.930 . S
C6 C4 1.380 . S
C6 C5 1.384 . S
C6 H33 0.931 . S
C7 C4 1.374 . S
C7 C8 1.390 . S
C7 H34 0.930 . S
C8 C7 1.390 . S
C8 C9 1.391 . S
C8 H35 0.930 . S
C9 C5 1.387 . S
C9 C8 1.391 . S
C10 Tb0 2.825 1_565 S
C10 C4 1.507 . S
C10 O23 1.238 . S
C10 O24 1.247 . S
O11 Tb0 2.347 . S
O11 C15 1.259 . S
O12 Eu1 2.418 . S
O12 C15 1.265 . S
O13 Eu1 2.384 . S
O13 C22 1.255 . S
O14 Tb0 2.366 . S
O14 C22 1.265 . S
C15 O11 1.259 . S
C15 O12 1.265 . S
O16 Eu1 2.479 . S
O16 C31 1.238 . S
O17 Eu1 2.471 . S
O17 C31 1.247 . S
O18 Eu1 2.347 . S
O18 C2 1.259 . S
O19 Tb0 2.418 . S
O19 C2 1.265 . S
O20 Tb0 2.384 . S
O20 C3 1.255 . S
O21 Eu1 2.366 . S
O21 C3 1.265 . S
C22 O13 1.255 . S
C22 O14 1.265 . S
O23 Tb0 2.479 1_565 S
O23 C10 1.238 . S
O24 Tb0 2.471 1_565 S
O24 C10 1.247 . S
C25 C28 1.380 . S
C25 C29 1.374 . S
C25 C31 1.507 . S
C26 C27 1.387 . S
C26 C30 1.391 . S
C27 C26 1.387 . S
C27 C28 1.384 . S
C27 H36 0.930 . S
C28 C25 1.380 . S
C28 C27 1.384 . S
C28 H37 0.931 . S
C29 C25 1.374 . S
C29 C30 1.390 . S
C29 H38 0.930 . S
C30 C26 1.391 . S
C30 C29 1.390 . S
C30 H39 0.930 . S
C31 Eu1 2.825 . S
C31 O16 1.238 . S
C31 O17 1.247 . S
C31 C25 1.507 . S
H32 C5 0.930 . S
H33 C6 0.931 . S
H34 C7 0.930 . S
H35 C8 0.930 . S
H36 C27 0.930 . S
H37 C28 0.931 . S
H38 C29 0.930 . S
H39 C30 0.930 . S
Tb40 C50 2.825 1_565 S
Tb40 O51 2.347 . S
Tb40 O54 2.366 . S
Tb40 O59 2.418 . S
Tb40 O60 2.384 . S
Tb40 O63 2.479 1_565 S
Tb40 O64 2.471 1_565 S
Eu41 O52 2.418 . S
Eu41 O53 2.384 . S
Eu41 O56 2.479 . S
Eu41 O57 2.471 . S
Eu41 O58 2.347 . S
Eu41 O61 2.366 . S
Eu41 C71 2.825 . S
C42 O58 1.259 . S
C42 O59 1.265 . S
C43 O60 1.255 . S
C43 O61 1.265 . S
C44 C46 1.380 . S
C44 C47 1.374 . S
C44 C50 1.507 . S
C45 C46 1.384 . S
C45 C49 1.387 . S
C45 H72 0.930 . S
C46 C44 1.380 . S
C46 C45 1.384 . S
C46 H73 0.931 . S
C47 C44 1.374 . S
C47 C48 1.390 . S
C47 H74 0.930 . S
C48 C47 1.390 . S
C48 C49 1.391 . S
C48 H75 0.930 . S
C49 C45 1.387 . S
C49 C48 1.391 . S
C50 Tb40 2.825 1_545 S
C50 C44 1.507 . S
C50 O63 1.238 . S
C50 O64 1.247 . S
O51 Tb40 2.347 . S
O51 C55 1.259 . S
O52 Eu41 2.418 . S
O52 C55 1.265 . S
O53 Eu41 2.384 . S
O53 C62 1.255 . S
O54 Tb40 2.366 . S
O54 C62 1.265 . S
C55 O51 1.259 . S
C55 O52 1.265 . S
O56 Eu41 2.479 . S
O56 C71 1.238 . S
O57 Eu41 2.471 . S
O57 C71 1.247 . S
O58 Eu41 2.347 . S
O58 C42 1.259 . S
O59 Tb40 2.418 . S
O59 C42 1.265 . S
O60 Tb40 2.384 . S
O60 C43 1.255 . S
O61 Eu41 2.366 . S
O61 C43 1.265 . S
C62 O53 1.255 . S
C62 O54 1.265 . S
O63 Tb40 2.479 1_545 S
O63 C50 1.238 . S
O64 Tb40 2.471 1_545 S
O64 C50 1.247 . S
C65 C68 1.380 . S
C65 C69 1.374 . S
C65 C71 1.507 . S
C66 C67 1.387 . S
C66 C70 1.391 . S
C67 C66 1.387 . S
C67 C68 1.384 . S
C67 H76 0.930 . S
C68 C65 1.380 . S
C68 C67 1.384 . S
C68 H77 0.931 . S
C69 C65 1.374 . S
C69 C70 1.390 . S
C69 H78 0.930 . S
C70 C66 1.391 . S
C70 C69 1.390 . S
C70 H79 0.930 . S
C71 Eu41 2.825 . S
C71 O56 1.238 . S
C71 O57 1.247 . S
C71 C65 1.507 . S
H72 C45 0.930 . S
H73 C46 0.931 . S
H74 C47 0.930 . S
H75 C48 0.930 . S
H76 C67 0.930 . S
H77 C68 0.931 . S
H78 C69 0.930 . S
H79 C70 0.930 . S
Tb80 C90 2.825 1_565 S
Tb80 O91 2.347 . S
Tb80 O94 2.366 . S
Tb80 O99 2.418 . S
Tb80 O100 2.384 . S
Tb80 O103 2.479 1_565 S
Tb80 O104 2.471 1_565 S
Eu81 O92 2.418 . S
Eu81 O93 2.384 . S
Eu81 O96 2.479 . S
Eu81 O97 2.471 . S
Eu81 O98 2.347 . S
Eu81 O101 2.366 . S
Eu81 C111 2.825 . S
C82 O98 1.259 . S
C82 O99 1.265 . S
C83 O100 1.255 . S
C83 O101 1.265 . S
C84 C86 1.380 . S
C84 C87 1.374 . S
C84 C90 1.507 . S
C85 C86 1.384 . S
C85 C89 1.387 . S
C85 H112 0.930 . S
C86 C84 1.380 . S
C86 C85 1.384 . S
C86 H113 0.931 . S
C87 C84 1.374 . S
C87 C88 1.390 . S
C87 H114 0.930 . S
C88 C87 1.390 . S
C88 C89 1.391 . S
C88 H115 0.930 . S
C89 C85 1.387 . S
C89 C88 1.391 . S
C90 Tb80 2.825 1_545 S
C90 C84 1.507 . S
C90 O103 1.238 . S
C90 O104 1.247 . S
O91 Tb80 2.347 . S
O91 C95 1.259 . S
O92 Eu81 2.418 . S
O92 C95 1.265 . S
O93 Eu81 2.384 . S
O93 C102 1.255 . S
O94 Tb80 2.366 . S
O94 C102 1.265 . S
C95 O91 1.259 . S
C95 O92 1.265 . S
O96 Eu81 2.479 . S
O96 C111 1.238 . S
O97 Eu81 2.471 . S
O97 C111 1.247 . S
O98 Eu81 2.347 . S
O98 C82 1.259 . S
O99 Tb80 2.418 . S
O99 C82 1.265 . S
O100 Tb80 2.384 . S
O100 C83 1.255 . S
O101 Eu81 2.366 . S
O101 C83 1.265 . S
C102 O93 1.255 . S
C102 O94 1.265 . S
O103 Tb80 2.479 1_545 S
O103 C90 1.238 . S
O104 Tb80 2.471 1_545 S
O104 C90 1.247 . S
C105 C108 1.380 . S
C105 C109 1.374 . S
C105 C111 1.507 . S
C106 C107 1.387 . S
C106 C110 1.391 . S
C107 C106 1.387 . S
C107 C108 1.384 . S
C107 H116 0.930 . S
C108 C105 1.380 . S
C108 C107 1.384 . S
C108 H117 0.931 . S
C109 C105 1.374 . S
C109 C110 1.390 . S
C109 H118 0.930 . S
C110 C106 1.391 . S
C110 C109 1.390 . S
C110 H119 0.930 . S
C111 Eu81 2.825 . S
C111 O96 1.238 . S
C111 O97 1.247 . S
C111 C105 1.507 . S
H112 C85 0.930 . S
H113 C86 0.931 . S
H114 C87 0.930 . S
H115 C88 0.930 . S
H116 C107 0.930 . S
H117 C108 0.931 . S
H118 C109 0.930 . S
H119 C110 0.930 . S
Tb120 C130 2.825 1_545 S
Tb120 O131 2.347 . S
Tb120 O134 2.366 . S
Tb120 O139 2.418 . S
Tb120 O140 2.384 . S
Tb120 O143 2.479 1_545 S
Tb120 O144 2.471 1_545 S
Eu121 O132 2.418 . S
Eu121 O133 2.384 . S
Eu121 O136 2.479 . S
Eu121 O137 2.471 . S
Eu121 O138 2.347 . S
Eu121 O141 2.366 . S
Eu121 C151 2.825 . S
C122 O138 1.259 . S
C122 O139 1.265 . S
C123 O140 1.255 . S
C123 O141 1.265 . S
C124 C126 1.380 . S
C124 C127 1.374 . S
C124 C130 1.507 . S
C125 C126 1.384 . S
C125 C129 1.387 . S
C125 H152 0.930 . S
C126 C124 1.380 . S
C126 C125 1.384 . S
C126 H153 0.931 . S
C127 C124 1.374 . S
C127 C128 1.390 . S
C127 H154 0.930 . S
C128 C127 1.390 . S
C128 C129 1.391 . S
C128 H155 0.930 . S
C129 C125 1.387 . S
C129 C128 1.391 . S
C130 Tb120 2.825 1_565 S
C130 C124 1.507 . S
C130 O143 1.238 . S
C130 O144 1.247 . S
O131 Tb120 2.347 . S
O131 C135 1.259 . S
O132 Eu121 2.418 . S
O132 C135 1.265 . S
O133 Eu121 2.384 . S
O133 C142 1.255 . S
O134 Tb120 2.366 . S
O134 C142 1.265 . S
C135 O131 1.259 . S
C135 O132 1.265 . S
O136 Eu121 2.479 . S
O136 C151 1.238 . S
O137 Eu121 2.471 . S
O137 C151 1.247 . S
O138 Eu121 2.347 . S
O138 C122 1.259 . S
O139 Tb120 2.418 . S
O139 C122 1.265 . S
O140 Tb120 2.384 . S
O140 C123 1.255 . S
O141 Eu121 2.366 . S
O141 C123 1.265 . S
C142 O133 1.255 . S
C142 O134 1.265 . S
O143 Tb120 2.479 1_565 S
O143 C130 1.238 . S
O144 Tb120 2.471 1_565 S
O144 C130 1.247 . S
C145 C148 1.380 . S
C145 C149 1.374 . S
C145 C151 1.507 . S
C146 C147 1.387 . S
C146 C150 1.391 . S
C147 C146 1.387 . S
C147 C148 1.384 . S
C147 H156 0.930 . S
C148 C145 1.380 . S
C148 C147 1.384 . S
C148 H157 0.931 . S
C149 C145 1.374 . S
C149 C150 1.390 . S
C149 H158 0.930 . S
C150 C146 1.391 . S
C150 C149 1.390 . S
C150 H159 0.930 . S
C151 Eu121 2.825 . S
C151 O136 1.238 . S
C151 O137 1.247 . S
C151 C145 1.507 . S
H152 C125 0.930 . S
H153 C126 0.931 . S
H154 C127 0.930 . S
H155 C128 0.930 . S
H156 C147 0.930 . S
H157 C148 0.931 . S
H158 C149 0.930 . S
H159 C150 0.930 . S
Tb160 C170 2.825 . S
Tb160 O171 2.347 . S
Tb160 O174 2.366 . S
Tb160 O179 2.418 . S
Tb160 O180 2.384 . S
Tb160 O183 2.479 . S
Tb160 O184 2.471 . S
Eu161 O172 2.418 . S
Eu161 O173 2.384 . S
Eu161 O176 2.479 1_565 S
Eu161 O177 2.471 1_565 S
Eu161 O178 2.347 . S
Eu161 O181 2.366 . S
Eu161 C191 2.825 1_565 S
C162 O178 1.259 . S
C162 O179 1.265 . S
C163 O180 1.255 . S
C163 O181 1.265 . S
C164 C166 1.380 . S
C164 C167 1.374 . S
C164 C170 1.507 . S
C165 C166 1.384 . S
C165 C169 1.387 . S
C165 H192 0.930 . S
C166 C164 1.380 . S
C166 C165 1.384 . S
C166 H193 0.931 . S
C167 C164 1.374 . S
C167 C168 1.390 . S
C167 H194 0.930 . S
C168 C167 1.390 . S
C168 C169 1.391 . S
C168 H195 0.930 . S
C169 C165 1.387 . S
C169 C168 1.391 . S
C170 Tb160 2.825 . S
C170 C164 1.507 . S
C170 O183 1.238 . S
C170 O184 1.247 . S
O171 Tb160 2.347 . S
O171 C175 1.259 . S
O172 Eu161 2.418 . S
O172 C175 1.265 . S
O173 Eu161 2.384 . S
O173 C182 1.255 . S
O174 Tb160 2.366 . S
O174 C182 1.265 . S
C175 O171 1.259 . S
C175 O172 1.265 . S
O176 Eu161 2.479 1_545 S
O176 C191 1.238 . S
O177 Eu161 2.471 1_545 S
O177 C191 1.247 . S
O178 Eu161 2.347 . S
O178 C162 1.259 . S
O179 Tb160 2.418 . S
O179 C162 1.265 . S
O180 Tb160 2.384 . S
O180 C163 1.255 . S
O181 Eu161 2.366 . S
O181 C163 1.265 . S
C182 O173 1.255 . S
C182 O174 1.265 . S
O183 Tb160 2.479 . S
O183 C170 1.238 . S
O184 Tb160 2.471 . S
O184 C170 1.247 . S
C185 C188 1.380 . S
C185 C189 1.374 . S
C185 C191 1.507 . S
C186 C187 1.387 . S
C186 C190 1.391 . S
C187 C186 1.387 . S
C187 C188 1.384 . S
C187 H196 0.930 . S
C188 C185 1.380 . S
C188 C187 1.384 . S
C188 H197 0.931 . S
C189 C185 1.374 . S
C189 C190 1.390 . S
C189 H198 0.930 . S
C190 C186 1.391 . S
C190 C189 1.390 . S
C190 H199 0.930 . S
C191 Eu161 2.825 1_545 S
C191 O176 1.238 . S
C191 O177 1.247 . S
C191 C185 1.507 . S
H192 C165 0.930 . S
H193 C166 0.931 . S
H194 C167 0.930 . S
H195 C168 0.930 . S
H196 C187 0.930 . S
H197 C188 0.931 . S
H198 C189 0.930 . S
H199 C190 0.930 . S
Tb200 C210 2.825 . S
Tb200 O211 2.347 . S
Tb200 O214 2.366 . S
Tb200 O219 2.418 . S
Tb200 O220 2.384 . S
Tb200 O223 2.479 . S
Tb200 O224 2.471 . S
Eu201 O212 2.418 . S
Eu201 O213 2.384 . S
Eu201 O216 2.479 1_545 S
Eu201 O217 2.471 1_545 S
Eu201 O218 2.347 . S
Eu201 O221 2.366 . S
Eu201 C231 2.825 1_545 S
C202 O218 1.259 . S
C202 O219 1.265 . S
C203 O220 1.255 . S
C203 O221 1.265 . S
C204 C206 1.380 . S
C204 C207 1.374 . S
C204 C210 1.507 . S
C205 C206 1.384 . S
C205 C209 1.387 . S
C205 H232 0.930 . S
C206 C204 1.380 . S
C206 C205 1.384 . S
C206 H233 0.931 . S
C207 C204 1.374 . S
C207 C208 1.390 . S
C207 H234 0.930 . S
C208 C207 1.390 . S
C208 C209 1.391 . S
C208 H235 0.930 . S
C209 C205 1.387 . S
C209 C208 1.391 . S
C210 Tb200 2.825 . S
C210 C204 1.507 . S
C210 O223 1.238 . S
C210 O224 1.247 . S
O211 Tb200 2.347 . S
O211 C215 1.259 . S
O212 Eu201 2.418 . S
O212 C215 1.265 . S
O213 Eu201 2.384 . S
O213 C222 1.255 . S
O214 Tb200 2.366 . S
O214 C222 1.265 . S
C215 O211 1.259 . S
C215 O212 1.265 . S
O216 Eu201 2.479 1_565 S
O216 C231 1.238 . S
O217 Eu201 2.471 1_565 S
O217 C231 1.247 . S
O218 Eu201 2.347 . S
O218 C202 1.259 . S
O219 Tb200 2.418 . S
O219 C202 1.265 . S
O220 Tb200 2.384 . S
O220 C203 1.255 . S
O221 Eu201 2.366 . S
O221 C203 1.265 . S
C222 O213 1.255 . S
C222 O214 1.265 . S
O223 Tb200 2.479 . S
O223 C210 1.238 . S
O224 Tb200 2.471 . S
O224 C210 1.247 . S
C225 C228 1.380 . S
C225 C229 1.374 . S
C225 C231 1.507 . S
C226 C227 1.387 . S
C226 C230 1.391 . S
C227 C226 1.387 . S
C227 C228 1.384 . S
C227 H236 0.930 . S
C228 C225 1.380 . S
C228 C227 1.384 . S
C228 H237 0.931 . S
C229 C225 1.374 . S
C229 C230 1.390 . S
C229 H238 0.930 . S
C230 C226 1.391 . S
C230 C229 1.390 . S
C230 H239 0.930 . S
C231 Eu201 2.825 1_565 S
C231 O216 1.238 . S
C231 O217 1.247 . S
C231 C225 1.507 . S
H232 C205 0.930 . S
H233 C206 0.931 . S
H234 C207 0.930 . S
H235 C208 0.930 . S
H236 C227 0.930 . S
H237 C228 0.931 . S
H238 C229 0.930 . S
H239 C230 0.930 . S
Tb240 C250 2.825 . S
Tb240 O251 2.347 . S
Tb240 O254 2.366 . S
Tb240 O259 2.418 . S
Tb240 O260 2.384 . S
Tb240 O263 2.479 . S
Tb240 O264 2.471 . S
Eu241 O252 2.418 . S
Eu241 O253 2.384 . S
Eu241 O256 2.479 1_545 S
Eu241 O257 2.471 1_545 S
Eu241 O258 2.347 . S
Eu241 O261 2.366 . S
Eu241 C271 2.825 1_545 S
C242 O258 1.259 . S
C242 O259 1.265 . S
C243 O260 1.255 . S
C243 O261 1.265 . S
C244 C246 1.380 . S
C244 C247 1.374 . S
C244 C250 1.507 . S
C245 C246 1.384 . S
C245 C249 1.387 . S
C245 H272 0.930 . S
C246 C244 1.380 . S
C246 C245 1.384 . S
C246 H273 0.931 . S
C247 C244 1.374 . S
C247 C248 1.390 . S
C247 H274 0.930 . S
C248 C247 1.390 . S
C248 C249 1.391 . S
C248 H275 0.930 . S
C249 C245 1.387 . S
C249 C248 1.391 . S
C250 Tb240 2.825 . S
C250 C244 1.507 . S
C250 O263 1.238 . S
C250 O264 1.247 . S
O251 Tb240 2.347 . S
O251 C255 1.259 . S
O252 Eu241 2.418 . S
O252 C255 1.265 . S
O253 Eu241 2.384 . S
O253 C262 1.255 . S
O254 Tb240 2.366 . S
O254 C262 1.265 . S
C255 O251 1.259 . S
C255 O252 1.265 . S
O256 Eu241 2.479 1_565 S
O256 C271 1.238 . S
O257 Eu241 2.471 1_565 S
O257 C271 1.247 . S
O258 Eu241 2.347 . S
O258 C242 1.259 . S
O259 Tb240 2.418 . S
O259 C242 1.265 . S
O260 Tb240 2.384 . S
O260 C243 1.255 . S
O261 Eu241 2.366 . S
O261 C243 1.265 . S
C262 O253 1.255 . S
C262 O254 1.265 . S
O263 Tb240 2.479 . S
O263 C250 1.238 . S
O264 Tb240 2.471 . S
O264 C250 1.247 . S
C265 C268 1.380 . S
C265 C269 1.374 . S
C265 C271 1.507 . S
C266 C267 1.387 . S
C266 C270 1.391 . S
C267 C266 1.387 . S
C267 C268 1.384 . S
C267 H276 0.930 . S
C268 C265 1.380 . S
C268 C267 1.384 . S
C268 H277 0.931 . S
C269 C265 1.374 . S
C269 C270 1.390 . S
C269 H278 0.930 . S
C270 C266 1.391 . S
C270 C269 1.390 . S
C270 H279 0.930 . S
C271 Eu241 2.825 1_565 S
C271 O256 1.238 . S
C271 O257 1.247 . S
C271 C265 1.507 . S
H272 C245 0.930 . S
H273 C246 0.931 . S
H274 C247 0.930 . S
H275 C248 0.930 . S
H276 C267 0.930 . S
H277 C268 0.931 . S
H278 C269 0.930 . S
H279 C270 0.930 . S
Tb280 C290 2.825 . S
Tb280 O291 2.347 . S
Tb280 O294 2.366 . S
Tb280 O299 2.418 . S
Tb280 O300 2.384 . S
Tb280 O303 2.479 . S
Tb280 O304 2.471 . S
Eu281 O292 2.418 . S
Eu281 O293 2.384 . S
Eu281 O296 2.479 1_565 S
Eu281 O297 2.471 1_565 S
Eu281 O298 2.347 . S
Eu281 O301 2.366 . S
Eu281 C311 2.825 1_565 S
C282 O298 1.259 . S
C282 O299 1.265 . S
C283 O300 1.255 . S
C283 O301 1.265 . S
C284 C286 1.380 . S
C284 C287 1.374 . S
C284 C290 1.507 . S
C285 C286 1.384 . S
C285 C289 1.387 . S
C285 H312 0.930 . S
C286 C284 1.380 . S
C286 C285 1.384 . S
C286 H313 0.931 . S
C287 C284 1.374 . S
C287 C288 1.390 . S
C287 H314 0.930 . S
C288 C287 1.390 . S
C288 C289 1.391 . S
C288 H315 0.930 . S
C289 C285 1.387 . S
C289 C288 1.391 . S
C290 Tb280 2.825 . S
C290 C284 1.507 . S
C290 O303 1.238 . S
C290 O304 1.247 . S
O291 Tb280 2.347 . S
O291 C295 1.259 . S
O292 Eu281 2.418 . S
O292 C295 1.265 . S
O293 Eu281 2.384 . S
O293 C302 1.255 . S
O294 Tb280 2.366 . S
O294 C302 1.265 . S
C295 O291 1.259 . S
C295 O292 1.265 . S
O296 Eu281 2.479 1_545 S
O296 C311 1.238 . S
O297 Eu281 2.471 1_545 S
O297 C311 1.247 . S
O298 Eu281 2.347 . S
O298 C282 1.259 . S
O299 Tb280 2.418 . S
O299 C282 1.265 . S
O300 Tb280 2.384 . S
O300 C283 1.255 . S
O301 Eu281 2.366 . S
O301 C283 1.265 . S
C302 O293 1.255 . S
C302 O294 1.265 . S
O303 Tb280 2.479 . S
O303 C290 1.238 . S
O304 Tb280 2.471 . S
O304 C290 1.247 . S
C305 C308 1.380 . S
C305 C309 1.374 . S
C305 C311 1.507 . S
C306 C307 1.387 . S
C306 C310 1.391 . S
C307 C306 1.387 . S
C307 C308 1.384 . S
C307 H316 0.930 . S
C308 C305 1.380 . S
C308 C307 1.384 . S
C308 H317 0.931 . S
C309 C305 1.374 . S
C309 C310 1.390 . S
C309 H318 0.930 . S
C310 C306 1.391 . S
C310 C309 1.390 . S
C310 H319 0.930 . S
C311 Eu281 2.825 1_545 S
C311 O296 1.238 . S
C311 O297 1.247 . S
C311 C305 1.507 . S
H312 C285 0.930 . S
H313 C286 0.931 . S
H314 C287 0.930 . S
H315 C288 0.930 . S
H316 C307 0.930 . S
H317 C308 0.931 . S
H318 C309 0.930 . S
H319 C310 0.930 . S
Tb320 C330 2.825 . S
Tb320 O331 2.347 . S
Tb320 O334 2.366 . S
Tb320 O339 2.418 . S
Tb320 O340 2.384 . S
Tb320 O343 2.479 . S
Tb320 O344 2.471 . S
Eu321 O332 2.418 . S
Eu321 O333 2.384 . S
Eu321 O336 2.479 . S
Eu321 O337 2.471 . S
Eu321 O338 2.347 . S
Eu321 O341 2.366 . S
Eu321 C351 2.825 . S
C322 O338 1.259 . S
C322 O339 1.265 . S
C323 O340 1.255 . S
C323 O341 1.265 . S
C324 C326 1.380 . S
C324 C327 1.374 . S
C324 C330 1.507 . S
C325 C326 1.384 . S
C325 C329 1.387 . S
C325 H352 0.930 . S
C326 C324 1.380 . S
C326 C325 1.384 . S
C326 H353 0.931 . S
C327 C324 1.374 . S
C327 C328 1.390 . S
C327 H354 0.930 . S
C328 C327 1.390 . S
C328 C329 1.391 . S
C328 H355 0.930 . S
C329 C325 1.387 . S
C329 C328 1.391 . S
C330 Tb320 2.825 . S
C330 C324 1.507 . S
C330 O343 1.238 . S
C330 O344 1.247 . S
O331 Tb320 2.347 . S
O331 C335 1.259 . S
O332 Eu321 2.418 . S
O332 C335 1.265 . S
O333 Eu321 2.384 . S
O333 C342 1.255 . S
O334 Tb320 2.366 . S
O334 C342 1.265 . S
C335 O331 1.259 . S
C335 O332 1.265 . S
O336 Eu321 2.479 . S
O336 C351 1.238 . S
O337 Eu321 2.471 . S
O337 C351 1.247 . S
O338 Eu321 2.347 . S
O338 C322 1.259 . S
O339 Tb320 2.418 . S
O339 C322 1.265 . S
O340 Tb320 2.384 . S
O340 C323 1.255 . S
O341 Eu321 2.366 . S
O341 C323 1.265 . S
C342 O333 1.255 . S
C342 O334 1.265 . S
O343 Tb320 2.479 . S
O343 C330 1.238 . S
O344 Tb320 2.471 . S
O344 C330 1.247 . S
C345 C348 1.380 . S
C345 C349 1.374 . S
C345 C351 1.507 . S
C346 C347 1.387 . S
C346 C350 1.391 . S
C347 C346 1.387 . S
C347 C348 1.384 . S
C347 H356 0.930 . S
C348 C345 1.380 . S
C348 C347 1.384 . S
C348 H357 0.931 . S
C349 C345 1.374 . S
C349 C350 1.390 . S
C349 H358 0.930 . S
C350 C346 1.391 . S
C350 C349 1.390 . S
C350 H359 0.930 . S
C351 Eu321 2.825 . S
C351 O336 1.238 . S
C351 O337 1.247 . S
C351 C345 1.507 . S
H352 C325 0.930 . S
H353 C326 0.931 . S
H354 C327 0.930 . S
H355 C328 0.930 . S
H356 C347 0.930 . S
H357 C348 0.931 . S
H358 C349 0.930 . S
H359 C350 0.930 . S
Tb360 C370 2.825 . S
Tb360 O371 2.347 . S
Tb360 O374 2.366 . S
Tb360 O379 2.418 . S
Tb360 O380 2.384 . S
Tb360 O383 2.479 . S
Tb360 O384 2.471 . S
Eu361 O372 2.418 . S
Eu361 O373 2.384 . S
Eu361 O376 2.479 . S
Eu361 O377 2.471 . S
Eu361 O378 2.347 . S
Eu361 O381 2.366 . S
Eu361 C391 2.825 . S
C362 O378 1.259 . S
C362 O379 1.265 . S
C363 O380 1.255 . S
C363 O381 1.265 . S
C364 C366 1.380 . S
C364 C367 1.374 . S
C364 C370 1.507 . S
C365 C366 1.384 . S
C365 C369 1.387 . S
C365 H392 0.930 . S
C366 C364 1.380 . S
C366 C365 1.384 . S
C366 H393 0.931 . S
C367 C364 1.374 . S
C367 C368 1.390 . S
C367 H394 0.930 . S
C368 C367 1.390 . S
C368 C369 1.391 . S
C368 H395 0.930 . S
C369 C365 1.387 . S
C369 C368 1.391 . S
C370 Tb360 2.825 . S
C370 C364 1.507 . S
C370 O383 1.238 . S
C370 O384 1.247 . S
O371 Tb360 2.347 . S
O371 C375 1.259 . S
O372 Eu361 2.418 . S
O372 C375 1.265 . S
O373 Eu361 2.384 . S
O373 C382 1.255 . S
O374 Tb360 2.366 . S
O374 C382 1.265 . S
C375 O371 1.259 . S
C375 O372 1.265 . S
O376 Eu361 2.479 . S
O376 C391 1.238 . S
O377 Eu361 2.471 . S
O377 C391 1.247 . S
O378 Eu361 2.347 . S
O378 C362 1.259 . S
O379 Tb360 2.418 . S
O379 C362 1.265 . S
O380 Tb360 2.384 . S
O380 C363 1.255 . S
O381 Eu361 2.366 . S
O381 C363 1.265 . S
C382 O373 1.255 . S
C382 O374 1.265 . S
O383 Tb360 2.479 . S
O383 C370 1.238 . S
O384 Tb360 2.471 . S
O384 C370 1.247 . S
C385 C388 1.380 . S
C385 C389 1.374 . S
C385 C391 1.507 . S
C386 C387 1.387 . S
C386 C390 1.391 . S
C387 C386 1.387 . S
C387 C388 1.384 . S
C387 H396 0.930 . S
C388 C385 1.380 . S
C388 C387 1.384 . S
C388 H397 0.931 . S
C389 C385 1.374 . S
C389 C390 1.390 . S
C389 H398 0.930 . S
C390 C386 1.391 . S
C390 C389 1.390 . S
C390 H399 0.930 . S
C391 Eu361 2.825 . S
C391 O376 1.238 . S
C391 O377 1.247 . S
C391 C385 1.507 . S
H392 C365 0.930 . S
H393 C366 0.931 . S
H394 C367 0.930 . S
H395 C368 0.930 . S
H396 C387 0.930 . S
H397 C388 0.931 . S
H398 C389 0.930 . S
H399 C390 0.930 . S
Tb400 C410 2.825 . S
Tb400 O411 2.347 . S
Tb400 O414 2.366 . S
Tb400 O419 2.418 . S
Tb400 O420 2.384 . S
Tb400 O423 2.479 . S
Tb400 O424 2.471 . S
Eu401 O412 2.418 . S
Eu401 O413 2.384 . S
Eu401 O416 2.479 . S
Eu401 O417 2.471 . S
Eu401 O418 2.347 . S
Eu401 O421 2.366 . S
Eu401 C431 2.825 . S
C402 O418 1.259 . S
C402 O419 1.265 . S
C403 O420 1.255 . S
C403 O421 1.265 . S
C404 C406 1.380 . S
C404 C407 1.374 . S
C404 C410 1.507 . S
C405 C406 1.384 . S
C405 C409 1.387 . S
C405 H432 0.930 . S
C406 C404 1.380 . S
C406 C405 1.384 . S
C406 H433 0.931 . S
C407 C404 1.374 . S
C407 C408 1.390 . S
C407 H434 0.930 . S
C408 C407 1.390 . S
C408 C409 1.391 . S
C408 H435 0.930 . S
C409 C405 1.387 . S
C409 C408 1.391 . S
C410 Tb400 2.825 . S
C410 C404 1.507 . S
C410 O423 1.238 . S
C410 O424 1.247 . S
O411 Tb400 2.347 . S
O411 C415 1.259 . S
O412 Eu401 2.418 . S
O412 C415 1.265 . S
O413 Eu401 2.384 . S
O413 C422 1.255 . S
O414 Tb400 2.366 . S
O414 C422 1.265 . S
C415 O411 1.259 . S
C415 O412 1.265 . S
O416 Eu401 2.479 . S
O416 C431 1.238 . S
O417 Eu401 2.471 . S
O417 C431 1.247 . S
O418 Eu401 2.347 . S
O418 C402 1.259 . S
O419 Tb400 2.418 . S
O419 C402 1.265 . S
O420 Tb400 2.384 . S
O420 C403 1.255 . S
O421 Eu401 2.366 . S
O421 C403 1.265 . S
C422 O413 1.255 . S
C422 O414 1.265 . S
O423 Tb400 2.479 . S
O423 C410 1.238 . S
O424 Tb400 2.471 . S
O424 C410 1.247 . S
C425 C428 1.380 . S
C425 C429 1.374 . S
C425 C431 1.507 . S
C426 C427 1.387 . S
C426 C430 1.391 . S
C427 C426 1.387 . S
C427 C428 1.384 . S
C427 H436 0.930 . S
C428 C425 1.380 . S
C428 C427 1.384 . S
C428 H437 0.931 . S
C429 C425 1.374 . S
C429 C430 1.390 . S
C429 H438 0.930 . S
C430 C426 1.391 . S
C430 C429 1.390 . S
C430 H439 0.930 . S
C431 Eu401 2.825 . S
C431 O416 1.238 . S
C431 O417 1.247 . S
C431 C425 1.507 . S
H432 C405 0.930 . S
H433 C406 0.931 . S
H434 C407 0.930 . S
H435 C408 0.930 . S
H436 C427 0.930 . S
H437 C428 0.931 . S
H438 C429 0.930 . S
H439 C430 0.930 . S
Tb440 C450 2.825 . S
Tb440 O451 2.347 . S
Tb440 O454 2.366 . S
Tb440 O459 2.418 . S
Tb440 O460 2.384 . S
Tb440 O463 2.479 . S
Tb440 O464 2.471 . S
Eu441 O452 2.418 . S
Eu441 O453 2.384 . S
Eu441 O456 2.479 . S
Eu441 O457 2.471 . S
Eu441 O458 2.347 . S
Eu441 O461 2.366 . S
Eu441 C471 2.825 . S
C442 O458 1.259 . S
C442 O459 1.265 . S
C443 O460 1.255 . S
C443 O461 1.265 . S
C444 C446 1.380 . S
C444 C447 1.374 . S
C444 C450 1.507 . S
C445 C446 1.384 . S
C445 C449 1.387 . S
C445 H472 0.930 . S
C446 C444 1.380 . S
C446 C445 1.384 . S
C446 H473 0.931 . S
C447 C444 1.374 . S
C447 C448 1.390 . S
C447 H474 0.930 . S
C448 C447 1.390 . S
C448 C449 1.391 . S
C448 H475 0.930 . S
C449 C445 1.387 . S
C449 C448 1.391 . S
C450 Tb440 2.825 . S
C450 C444 1.507 . S
C450 O463 1.238 . S
C450 O464 1.247 . S
O451 Tb440 2.347 . S
O451 C455 1.259 . S
O452 Eu441 2.418 . S
O452 C455 1.265 . S
O453 Eu441 2.384 . S
O453 C462 1.255 . S
O454 Tb440 2.366 . S
O454 C462 1.265 . S
C455 O451 1.259 . S
C455 O452 1.265 . S
O456 Eu441 2.479 . S
O456 C471 1.238 . S
O457 Eu441 2.471 . S
O457 C471 1.247 . S
O458 Eu441 2.347 . S
O458 C442 1.259 . S
O459 Tb440 2.418 . S
O459 C442 1.265 . S
O460 Tb440 2.384 . S
O460 C443 1.255 . S
O461 Eu441 2.366 . S
O461 C443 1.265 . S
C462 O453 1.255 . S
C462 O454 1.265 . S
O463 Tb440 2.479 . S
O463 C450 1.238 . S
O464 Tb440 2.471 . S
O464 C450 1.247 . S
C465 C468 1.380 . S
C465 C469 1.374 . S
C465 C471 1.507 . S
C466 C467 1.387 . S
C466 C470 1.391 . S
C467 C466 1.387 . S
C467 C468 1.384 . S
C467 H476 0.930 . S
C468 C465 1.380 . S
C468 C467 1.384 . S
C468 H477 0.931 . S
C469 C465 1.374 . S
C469 C470 1.390 . S
C469 H478 0.930 . S
C470 C466 1.391 . S
C470 C469 1.390 . S
C470 H479 0.930 . S
C471 Eu441 2.825 . S
C471 O456 1.238 . S
C471 O457 1.247 . S
C471 C465 1.507 . S
H472 C445 0.930 . S
H473 C446 0.931 . S
H474 C447 0.930 . S
H475 C448 0.930 . S
H476 C467 0.930 . S
H477 C468 0.931 . S
H478 C469 0.930 . S
H479 C470 0.930 . S
Tb480 C490 2.825 . S
Tb480 O491 2.347 . S
Tb480 O494 2.366 . S
Tb480 O499 2.418 . S
Tb480 O500 2.384 . S
Tb480 O503 2.479 . S
Tb480 O504 2.471 . S
Eu481 O492 2.418 . S
Eu481 O493 2.384 . S
Eu481 O496 2.479 . S
Eu481 O497 2.471 . S
Eu481 O498 2.347 . S
Eu481 O501 2.366 . S
Eu481 C511 2.825 . S
C482 O498 1.259 . S
C482 O499 1.265 . S
C483 O500 1.255 . S
C483 O501 1.265 . S
C484 C486 1.380 . S
C484 C487 1.374 . S
C484 C490 1.507 . S
C485 C486 1.384 . S
C485 C489 1.387 . S
C485 H512 0.930 . S
C486 C484 1.380 . S
C486 C485 1.384 . S
C486 H513 0.931 . S
C487 C484 1.374 . S
C487 C488 1.390 . S
C487 H514 0.930 . S
C488 C487 1.390 . S
C488 C489 1.391 . S
C488 H515 0.930 . S
C489 C485 1.387 . S
C489 C488 1.391 . S
C490 Tb480 2.825 . S
C490 C484 1.507 . S
C490 O503 1.238 . S
C490 O504 1.247 . S
O491 Tb480 2.347 . S
O491 C495 1.259 . S
O492 Eu481 2.418 . S
O492 C495 1.265 . S
O493 Eu481 2.384 . S
O493 C502 1.255 . S
O494 Tb480 2.366 . S
O494 C502 1.265 . S
C495 O491 1.259 . S
C495 O492 1.265 . S
O496 Eu481 2.479 . S
O496 C511 1.238 . S
O497 Eu481 2.471 . S
O497 C511 1.247 . S
O498 Eu481 2.347 . S
O498 C482 1.259 . S
O499 Tb480 2.418 . S
O499 C482 1.265 . S
O500 Tb480 2.384 . S
O500 C483 1.255 . S
O501 Eu481 2.366 . S
O501 C483 1.265 . S
C502 O493 1.255 . S
C502 O494 1.265 . S
O503 Tb480 2.479 . S
O503 C490 1.238 . S
O504 Tb480 2.471 . S
O504 C490 1.247 . S
C505 C508 1.380 . S
C505 C509 1.374 . S
C505 C511 1.507 . S
C506 C507 1.387 . S
C506 C510 1.391 . S
C507 C506 1.387 . S
C507 C508 1.384 . S
C507 H516 0.930 . S
C508 C505 1.380 . S
C508 C507 1.384 . S
C508 H517 0.931 . S
C509 C505 1.374 . S
C509 C510 1.390 . S
C509 H518 0.930 . S
C510 C506 1.391 . S
C510 C509 1.390 . S
C510 H519 0.930 . S
C511 Eu481 2.825 . S
C511 O496 1.238 . S
C511 O497 1.247 . S
C511 C505 1.507 . S
H512 C485 0.930 . S
H513 C486 0.931 . S
H514 C487 0.930 . S
H515 C488 0.930 . S
H516 C507 0.930 . S
H517 C508 0.931 . S
H518 C509 0.930 . S
H519 C510 0.930 . S
Tb520 C530 2.825 . S
Tb520 O531 2.347 . S
Tb520 O534 2.366 . S
Tb520 O539 2.418 . S
Tb520 O540 2.384 . S
Tb520 O543 2.479 . S
Tb520 O544 2.471 . S
Eu521 O532 2.418 . S
Eu521 O533 2.384 . S
Eu521 O536 2.479 . S
Eu521 O537 2.471 . S
Eu521 O538 2.347 . S
Eu521 O541 2.366 . S
Eu521 C551 2.825 . S
C522 O538 1.259 . S
C522 O539 1.265 . S
C523 O540 1.255 . S
C523 O541 1.265 . S
C524 C526 1.380 . S
C524 C527 1.374 . S
C524 C530 1.507 . S
C525 C526 1.384 . S
C525 C529 1.387 . S
C525 H552 0.930 . S
C526 C524 1.380 . S
C526 C525 1.384 . S
C526 H553 0.931 . S
C527 C524 1.374 . S
C527 C528 1.390 . S
C527 H554 0.930 . S
C528 C527 1.390 . S
C528 C529 1.391 . S
C528 H555 0.930 . S
C529 C525 1.387 . S
C529 C528 1.391 . S
C530 Tb520 2.825 . S
C530 C524 1.507 . S
C530 O543 1.238 . S
C530 O544 1.247 . S
O531 Tb520 2.347 . S
O531 C535 1.259 . S
O532 Eu521 2.418 . S
O532 C535 1.265 . S
O533 Eu521 2.384 . S
O533 C542 1.255 . S
O534 Tb520 2.366 . S
O534 C542 1.265 . S
C535 O531 1.259 . S
C535 O532 1.265 . S
O536 Eu521 2.479 . S
O536 C551 1.238 . S
O537 Eu521 2.471 . S
O537 C551 1.247 . S
O538 Eu521 2.347 . S
O538 C522 1.259 . S
O539 Tb520 2.418 . S
O539 C522 1.265 . S
O540 Tb520 2.384 . S
O540 C523 1.255 . S
O541 Eu521 2.366 . S
O541 C523 1.265 . S
C542 O533 1.255 . S
C542 O534 1.265 . S
O543 Tb520 2.479 . S
O543 C530 1.238 . S
O544 Tb520 2.471 . S
O544 C530 1.247 . S
C545 C548 1.380 . S
C545 C549 1.374 . S
C545 C551 1.507 . S
C546 C547 1.387 . S
C546 C550 1.391 . S
C547 C546 1.387 . S
C547 C548 1.384 . S
C547 H556 0.930 . S
C548 C545 1.380 . S
C548 C547 1.384 . S
C548 H557 0.931 . S
C549 C545 1.374 . S
C549 C550 1.390 . S
C549 H558 0.930 . S
C550 C546 1.391 . S
C550 C549 1.390 . S
C550 H559 0.930 . S
C551 Eu521 2.825 . S
C551 O536 1.238 . S
C551 O537 1.247 . S
C551 C545 1.507 . S
H552 C525 0.930 . S
H553 C526 0.931 . S
H554 C527 0.930 . S
H555 C528 0.930 . S
H556 C547 0.930 . S
H557 C548 0.931 . S
H558 C549 0.930 . S
H559 C550 0.930 . S
Tb560 C570 2.825 . S
Tb560 O571 2.347 . S
Tb560 O574 2.366 . S
Tb560 O579 2.418 . S
Tb560 O580 2.384 . S
Tb560 O583 2.479 . S
Tb560 O584 2.471 . S
Eu561 O572 2.418 . S
Eu561 O573 2.384 . S
Eu561 O576 2.479 . S
Eu561 O577 2.471 . S
Eu561 O578 2.347 . S
Eu561 O581 2.366 . S
Eu561 C591 2.825 . S
C562 O578 1.259 . S
C562 O579 1.265 . S
C563 O580 1.255 . S
C563 O581 1.265 . S
C564 C566 1.380 . S
C564 C567 1.374 . S
C564 C570 1.507 . S
C565 C566 1.384 . S
C565 C569 1.387 . S
C565 H592 0.930 . S
C566 C564 1.380 . S
C566 C565 1.384 . S
C566 H593 0.931 . S
C567 C564 1.374 . S
C567 C568 1.390 . S
C567 H594 0.930 . S
C568 C567 1.390 . S
C568 C569 1.391 . S
C568 H595 0.930 . S
C569 C565 1.387 . S
C569 C568 1.391 . S
C570 Tb560 2.825 . S
C570 C564 1.507 . S
C570 O583 1.238 . S
C570 O584 1.247 . S
O571 Tb560 2.347 . S
O571 C575 1.259 . S
O572 Eu561 2.418 . S
O572 C575 1.265 . S
O573 Eu561 2.384 . S
O573 C582 1.255 . S
O574 Tb560 2.366 . S
O574 C582 1.265 . S
C575 O571 1.259 . S
C575 O572 1.265 . S
O576 Eu561 2.479 . S
O576 C591 1.238 . S
O577 Eu561 2.471 . S
O577 C591 1.247 . S
O578 Eu561 2.347 . S
O578 C562 1.259 . S
O579 Tb560 2.418 . S
O579 C562 1.265 . S
O580 Tb560 2.384 . S
O580 C563 1.255 . S
O581 Eu561 2.366 . S
O581 C563 1.265 . S
C582 O573 1.255 . S
C582 O574 1.265 . S
O583 Tb560 2.479 . S
O583 C570 1.238 . S
O584 Tb560 2.471 . S
O584 C570 1.247 . S
C585 C588 1.380 . S
C585 C589 1.374 . S
C585 C591 1.507 . S
C586 C587 1.387 . S
C586 C590 1.391 . S
C587 C586 1.387 . S
C587 C588 1.384 . S
C587 H596 0.930 . S
C588 C585 1.380 . S
C588 C587 1.384 . S
C588 H597 0.931 . S
C589 C585 1.374 . S
C589 C590 1.390 . S
C589 H598 0.930 . S
C590 C586 1.391 . S
C590 C589 1.390 . S
C590 H599 0.930 . S
C591 Eu561 2.825 . S
C591 O576 1.238 . S
C591 O577 1.247 . S
C591 C585 1.507 . S
H592 C565 0.930 . S
H593 C566 0.931 . S
H594 C567 0.930 . S
H595 C568 0.930 . S
H596 C587 0.930 . S
H597 C588 0.931 . S
H598 C589 0.930 . S
H599 C590 0.930 . S
Tb600 C610 2.825 . S
Tb600 O611 2.347 . S
Tb600 O614 2.366 . S
Tb600 O619 2.418 . S
Tb600 O620 2.384 . S
Tb600 O623 2.479 . S
Tb600 O624 2.471 . S
Eu601 O612 2.418 . S
Eu601 O613 2.384 . S
Eu601 O616 2.479 . S
Eu601 O617 2.471 . S
Eu601 O618 2.347 . S
Eu601 O621 2.366 . S
Eu601 C631 2.825 . S
C602 O618 1.259 . S
C602 O619 1.265 . S
C603 O620 1.255 . S
C603 O621 1.265 . S
C604 C606 1.380 . S
C604 C607 1.374 . S
C604 C610 1.507 . S
C605 C606 1.384 . S
C605 C609 1.387 . S
C605 H632 0.930 . S
C606 C604 1.380 . S
C606 C605 1.384 . S
C606 H633 0.931 . S
C607 C604 1.374 . S
C607 C608 1.390 . S
C607 H634 0.930 . S
C608 C607 1.390 . S
C608 C609 1.391 . S
C608 H635 0.930 . S
C609 C605 1.387 . S
C609 C608 1.391 . S
C610 Tb600 2.825 . S
C610 C604 1.507 . S
C610 O623 1.238 . S
C610 O624 1.247 . S
O611 Tb600 2.347 . S
O611 C615 1.259 . S
O612 Eu601 2.418 . S
O612 C615 1.265 . S
O613 Eu601 2.384 . S
O613 C622 1.255 . S
O614 Tb600 2.366 . S
O614 C622 1.265 . S
C615 O611 1.259 . S
C615 O612 1.265 . S
O616 Eu601 2.479 . S
O616 C631 1.238 . S
O617 Eu601 2.471 . S
O617 C631 1.247 . S
O618 Eu601 2.347 . S
O618 C602 1.259 . S
O619 Tb600 2.418 . S
O619 C602 1.265 . S
O620 Tb600 2.384 . S
O620 C603 1.255 . S
O621 Eu601 2.366 . S
O621 C603 1.265 . S
C622 O613 1.255 . S
C622 O614 1.265 . S
O623 Tb600 2.479 . S
O623 C610 1.238 . S
O624 Tb600 2.471 . S
O624 C610 1.247 . S
C625 C628 1.380 . S
C625 C629 1.374 . S
C625 C631 1.507 . S
C626 C627 1.387 . S
C626 C630 1.391 . S
C627 C626 1.387 . S
C627 C628 1.384 . S
C627 H636 0.930 . S
C628 C625 1.380 . S
C628 C627 1.384 . S
C628 H637 0.931 . S
C629 C625 1.374 . S
C629 C630 1.390 . S
C629 H638 0.930 . S
C630 C626 1.391 . S
C630 C629 1.390 . S
C630 H639 0.930 . S
C631 Eu601 2.825 . S
C631 O616 1.238 . S
C631 O617 1.247 . S
C631 C625 1.507 . S
H632 C605 0.930 . S
H633 C606 0.931 . S
H634 C607 0.930 . S
H635 C608 0.930 . S
H636 C627 0.930 . S
H637 C628 0.931 . S
H638 C629 0.930 . S
H639 C630 0.930 . S
C640 C641 1.387 . S
C640 H644 0.950 . S
C640 C649 1.390 . S
C641 C640 1.387 . S
C641 C643 1.387 . S
H642 C649 0.950 . S
C643 C641 1.387 . S
C643 C645 1.390 . S
C643 H647 0.950 . S
H644 C640 0.950 . S
C645 C643 1.390 . S
C645 C646 1.387 . S
C645 H648 0.950 . S
C646 C645 1.387 . S
C646 C649 1.387 . S
H647 C643 0.950 . S
H648 C645 0.950 . S
C649 C640 1.390 . S
C649 H642 0.950 . S
C649 C646 1.387 . S
C650 C651 1.387 . S
C650 H654 0.950 . S
C650 C659 1.390 . S
C651 C650 1.387 . S
C651 C653 1.387 . S
H652 C659 0.950 . S
C653 C651 1.387 . S
C653 C655 1.390 . S
C653 H657 0.950 . S
H654 C650 0.950 . S
C655 C653 1.390 . S
C655 C656 1.387 . S
C655 H658 0.950 . S
C656 C655 1.387 . S
C656 C659 1.387 . S
H657 C653 0.950 . S
H658 C655 0.950 . S
C659 C650 1.390 . S
C659 H652 0.950 . S
C659 C656 1.387 . S
C660 C661 1.387 . S
C660 H664 0.950 . S
C660 C669 1.390 . S
C661 C660 1.387 . S
C661 C663 1.387 . S
H662 C669 0.950 . S
C663 C661 1.387 . S
C663 C665 1.390 . S
C663 H667 0.950 . S
H664 C660 0.950 . S
C665 C663 1.390 . S
C665 C666 1.387 . S
C665 H668 0.950 . S
C666 C665 1.387 . S
C666 C669 1.387 . S
H667 C663 0.950 . S
H668 C665 0.950 . S
C669 C660 1.390 . S
C669 H662 0.950 . S
C669 C666 1.387 . S
C670 C671 1.387 . S
C670 H674 0.950 . S
C670 C679 1.390 . S
C671 C670 1.387 . S
C671 C673 1.387 . S
H672 C679 0.950 . S
C673 C671 1.387 . S
C673 C675 1.390 . S
C673 H677 0.950 . S
H674 C670 0.950 . S
C675 C673 1.390 . S
C675 C676 1.387 . S
C675 H678 0.950 . S
C676 C675 1.387 . S
C676 C679 1.387 . S
H677 C673 0.950 . S
H678 C675 0.950 . S
C679 C670 1.390 . S
C679 H672 0.950 . S
C679 C676 1.387 . S
C680 C681 1.387 . S
C680 H684 0.950 . S
C680 C689 1.390 . S
C681 C680 1.387 . S
C681 C683 1.387 . S
H682 C689 0.950 . S
C683 C681 1.387 . S
C683 C685 1.390 . S
C683 H687 0.950 . S
H684 C680 0.950 . S
C685 C683 1.390 . S
C685 C686 1.387 . S
C685 H688 0.950 . S
C686 C685 1.387 . S
C686 C689 1.387 . S
H687 C683 0.950 . S
H688 C685 0.950 . S
C689 C680 1.390 . S
C689 H682 0.950 . S
C689 C686 1.387 . S
C690 C691 1.387 . S
C690 H694 0.950 . S
C690 C699 1.390 . S
C691 C690 1.387 . S
C691 C693 1.387 . S
H692 C699 0.950 . S
C693 C691 1.387 . S
C693 C695 1.390 . S
C693 H697 0.950 . S
H694 C690 0.950 . S
C695 C693 1.390 . S
C695 C696 1.387 . S
C695 H698 0.950 . S
C696 C695 1.387 . S
C696 C699 1.387 . S
H697 C693 0.950 . S
H698 C695 0.950 . S
C699 C690 1.390 . S
C699 H692 0.950 . S
C699 C696 1.387 . S
C700 C701 1.387 . S
C700 H704 0.950 . S
C700 C709 1.390 . S
C701 C700 1.387 . S
C701 C703 1.387 . S
H702 C709 0.950 . S
C703 C701 1.387 . S
C703 C705 1.390 . S
C703 H707 0.950 . S
H704 C700 0.950 . S
C705 C703 1.390 . S
C705 C706 1.387 . S
C705 H708 0.950 . S
C706 C705 1.387 . S
C706 C709 1.387 . S
H707 C703 0.950 . S
H708 C705 0.950 . S
C709 C700 1.390 . S
C709 H702 0.950 . S
C709 C706 1.387 . S
C710 C711 1.387 . S
C710 H714 0.950 . S
C710 C719 1.390 . S
C711 C710 1.387 . S
C711 C713 1.387 . S
H712 C719 0.950 . S
C713 C711 1.387 . S
C713 C715 1.390 . S
C713 H717 0.950 . S
H714 C710 0.950 . S
C715 C713 1.390 . S
C715 C716 1.387 . S
C715 H718 0.950 . S
C716 C715 1.387 . S
C716 C719 1.387 . S
H717 C713 0.950 . S
H718 C715 0.950 . S
C719 C710 1.390 . S
C719 H712 0.950 . S
C719 C716 1.387 . S
C720 C721 1.387 . S
C720 H724 0.950 . S
C720 C729 1.390 1_565 S
C721 C720 1.387 . S
C721 C723 1.387 . S
H722 C729 0.950 . S
C723 C721 1.387 . S
C723 C725 1.390 1_565 S
C723 H727 0.950 . S
H724 C720 0.950 . S
C725 C723 1.390 1_545 S
C725 C726 1.387 . S
C725 H728 0.950 . S
C726 C725 1.387 . S
C726 C729 1.387 . S
H727 C723 0.950 . S
H728 C725 0.950 . S
C729 C720 1.390 1_545 S
C729 H722 0.950 . S
C729 C726 1.387 . S
C730 C731 1.387 . S
C730 H734 0.950 . S
C730 C739 1.390 1_545 S
C731 C730 1.387 . S
C731 C733 1.387 . S
H732 C739 0.950 . S
C733 C731 1.387 . S
C733 C735 1.390 1_545 S
C733 H737 0.950 . S
H734 C730 0.950 . S
C735 C733 1.390 1_565 S
C735 C736 1.387 . S
C735 H738 0.950 . S
C736 C735 1.387 . S
C736 C739 1.387 . S
H737 C733 0.950 . S
H738 C735 0.950 . S
C739 C730 1.390 1_565 S
C739 H732 0.950 . S
C739 C736 1.387 . S
C740 C741 1.387 . S
C740 H744 0.950 . S
C740 C749 1.390 1_545 S
C741 C740 1.387 . S
C741 C743 1.387 . S
H742 C749 0.950 . S
C743 C741 1.387 . S
C743 C745 1.390 1_545 S
C743 H747 0.950 . S
H744 C740 0.950 . S
C745 C743 1.390 1_565 S
C745 C746 1.387 . S
C745 H748 0.950 . S
C746 C745 1.387 . S
C746 C749 1.387 . S
H747 C743 0.950 . S
H748 C745 0.950 . S
C749 C740 1.390 1_565 S
C749 H742 0.950 . S
C749 C746 1.387 . S
C750 C751 1.387 . S
C750 H754 0.950 . S
C750 C759 1.390 1_545 S
C751 C750 1.387 . S
C751 C753 1.387 . S
H752 C759 0.950 . S
C753 C751 1.387 . S
C753 C755 1.390 1_545 S
C753 H757 0.950 . S
H754 C750 0.950 . S
C755 C753 1.390 1_565 S
C755 C756 1.387 . S
C755 H758 0.950 . S
C756 C755 1.387 . S
C756 C759 1.387 . S
H757 C753 0.950 . S
H758 C755 0.950 . S
C759 C750 1.390 1_565 S
C759 H752 0.950 . S
C759 C756 1.387 . S
C760 C761 1.387 . S
C760 H764 0.950 . S
C760 C769 1.390 . S
C761 C760 1.387 . S
C761 C763 1.387 . S
H762 C769 0.950 . S
C763 C761 1.387 . S
C763 C765 1.390 . S
C763 H767 0.950 . S
H764 C760 0.950 . S
C765 C763 1.390 . S
C765 C766 1.387 . S
C765 H768 0.950 . S
C766 C765 1.387 . S
C766 C769 1.387 . S
H767 C763 0.950 . S
H768 C765 0.950 . S
C769 C760 1.390 . S
C769 H762 0.950 . S
C769 C766 1.387 . S
C770 C771 1.387 . S
C770 H774 0.950 . S
C770 C779 1.390 . S
C771 C770 1.387 . S
C771 C773 1.387 . S
H772 C779 0.950 . S
C773 C771 1.387 . S
C773 C775 1.390 . S
C773 H777 0.950 . S
H774 C770 0.950 . S
C775 C773 1.390 . S
C775 C776 1.387 . S
C775 H778 0.950 . S
C776 C775 1.387 . S
C776 C779 1.387 . S
H777 C773 0.950 . S
H778 C775 0.950 . S
C779 C770 1.390 . S
C779 H772 0.950 . S
C779 C776 1.387 . S
C780 C781 1.387 . S
C780 H784 0.950 . S
C780 C789 1.390 . S
C781 C780 1.387 . S
C781 C783 1.387 . S
H782 C789 0.950 . S
C783 C781 1.387 . S
C783 C785 1.390 . S
C783 H787 0.950 . S
H784 C780 0.950 . S
C785 C783 1.390 . S
C785 C786 1.387 . S
C785 H788 0.950 . S
C786 C785 1.387 . S
C786 C789 1.387 . S
H787 C783 0.950 . S
H788 C785 0.950 . S
C789 C780 1.390 . S
C789 H782 0.950 . S
C789 C786 1.387 . S
C790 C791 1.387 . S
C790 H794 0.950 . S
C790 C799 1.390 . S
C791 C790 1.387 . S
C791 C793 1.387 . S
H792 C799 0.950 . S
C793 C791 1.387 . S
C793 C795 1.390 . S
C793 H797 0.950 . S
H794 C790 0.950 . S
C795 C793 1.390 . S
C795 C796 1.387 . S
C795 H798 0.950 . S
C796 C795 1.387 . S
C796 C799 1.387 . S
H797 C793 0.950 . S
H798 C795 0.950 . S
C799 C790 1.390 . S
C799 H792 0.950 . S
C799 C796 1.387 . S
C800 C801 1.387 . S
C800 H804 0.950 . S
C800 C809 1.390 1_556 S
C801 C800 1.387 . S
C801 C803 1.387 . S
H802 C809 0.950 . S
C803 C801 1.387 . S
C803 C805 1.390 1_556 S
C803 H807 0.950 . S
H804 C800 0.950 . S
C805 C803 1.390 1_554 S
C805 C806 1.387 . S
C805 H808 0.950 . S
C806 C805 1.387 . S
C806 C809 1.387 . S
H807 C803 0.950 . S
H808 C805 0.950 . S
C809 C800 1.390 1_554 S
C809 H802 0.950 . S
C809 C806 1.387 . S
C810 C811 1.387 . S
C810 H814 0.950 . S
C810 C819 1.390 1_556 S
C811 C810 1.387 . S
C811 C813 1.387 . S
H812 C819 0.950 . S
C813 C811 1.387 . S
C813 C815 1.390 1_556 S
C813 H817 0.950 . S
H814 C810 0.950 . S
C815 C813 1.390 1_554 S
C815 C816 1.387 . S
C815 H818 0.950 . S
C816 C815 1.387 . S
C816 C819 1.387 . S
H817 C813 0.950 . S
H818 C815 0.950 . S
C819 C810 1.390 1_554 S
C819 H812 0.950 . S
C819 C816 1.387 . S
C820 C821 1.387 . S
C820 H824 0.950 . S
C820 C829 1.390 . S
C821 C820 1.387 . S
C821 C823 1.387 . S
H822 C829 0.950 . S
C823 C821 1.387 . S
C823 C825 1.390 . S
C823 H827 0.950 . S
H824 C820 0.950 . S
C825 C823 1.390 . S
C825 C826 1.387 . S
C825 H828 0.950 . S
C826 C825 1.387 . S
C826 C829 1.387 . S
H827 C823 0.950 . S
H828 C825 0.950 . S
C829 C820 1.390 . S
C829 H822 0.950 . S
C829 C826 1.387 . S
C830 C831 1.387 . S
C830 H834 0.950 . S
C830 C839 1.390 . S
C831 C830 1.387 . S
C831 C833 1.387 . S
H832 C839 0.950 . S
C833 C831 1.387 . S
C833 C835 1.390 . S
C833 H837 0.950 . S
H834 C830 0.950 . S
C835 C833 1.390 . S
C835 C836 1.387 . S
C835 H838 0.950 . S
C836 C835 1.387 . S
C836 C839 1.387 . S
H837 C833 0.950 . S
H838 C835 0.950 . S
C839 C830 1.390 . S
C839 H832 0.950 . S
C839 C836 1.387 . S
C840 C841 1.387 . S
C840 H844 0.950 . S
C840 C849 1.390 1_554 S
C841 C840 1.387 . S
C841 C843 1.387 . S
H842 C849 0.950 . S
C843 C841 1.387 . S
C843 C845 1.390 1_554 S
C843 H847 0.950 . S
H844 C840 0.950 . S
C845 C843 1.390 1_556 S
C845 C846 1.387 . S
C845 H848 0.950 . S
C846 C845 1.387 . S
C846 C849 1.387 . S
H847 C843 0.950 . S
H848 C845 0.950 . S
C849 C840 1.390 1_556 S
C849 H842 0.950 . S
C849 C846 1.387 . S
C850 C851 1.387 . S
C850 H854 0.950 . S
C850 C859 1.390 1_556 S
C851 C850 1.387 . S
C851 C853 1.387 . S
H852 C859 0.950 . S
C853 C851 1.387 . S
C853 C855 1.390 1_556 S
C853 H857 0.950 . S
H854 C850 0.950 . S
C855 C853 1.390 1_554 S
C855 C856 1.387 . S
C855 H858 0.950 . S
C856 C855 1.387 . S
C856 C859 1.387 . S
H857 C853 0.950 . S
H858 C855 0.950 . S
C859 C850 1.390 1_554 S
C859 H852 0.950 . S
C859 C856 1.387 . S
C860 C861 1.387 . S
C860 H864 0.950 . S
C860 C869 1.390 . S
C861 C860 1.387 . S
C861 C863 1.387 . S
H862 C869 0.950 . S
C863 C861 1.387 . S
C863 C865 1.390 . S
C863 H867 0.950 . S
H864 C860 0.950 . S
C865 C863 1.390 . S
C865 C866 1.387 . S
C865 H868 0.950 . S
C866 C865 1.387 . S
C866 C869 1.387 . S
H867 C863 0.950 . S
H868 C865 0.950 . S
C869 C860 1.390 . S
C869 H862 0.950 . S
C869 C866 1.387 . S
C870 C871 1.387 . S
C870 H874 0.950 . S
C870 C879 1.390 . S
C871 C870 1.387 . S
C871 C873 1.387 . S
H872 C879 0.950 . S
C873 C871 1.387 . S
C873 C875 1.390 . S
C873 H877 0.950 . S
H874 C870 0.950 . S
C875 C873 1.390 . S
C875 C876 1.387 . S
C875 H878 0.950 . S
C876 C875 1.387 . S
C876 C879 1.387 . S
H877 C873 0.950 . S
H878 C875 0.950 . S
C879 C870 1.390 . S
C879 H872 0.950 . S
C879 C876 1.387 . S
C880 C881 1.387 . S
C880 H884 0.950 . S
C880 C889 1.390 1_665 S
C881 C880 1.387 . S
C881 C883 1.387 . S
H882 C889 0.950 . S
C883 C881 1.387 . S
C883 C885 1.390 1_665 S
C883 H887 0.950 . S
H884 C880 0.950 . S
C885 C883 1.390 1_445 S
C885 C886 1.387 . S
C885 H888 0.950 . S
C886 C885 1.387 . S
C886 C889 1.387 . S
H887 C883 0.950 . S
H888 C885 0.950 . S
C889 C880 1.390 1_445 S
C889 H882 0.950 . S
C889 C886 1.387 . S
C890 C891 1.387 . S
C890 H894 0.950 . S
C890 C899 1.390 1_645 S
C891 C890 1.387 . S
C891 C893 1.387 . S
H892 C899 0.950 . S
C893 C891 1.387 . S
C893 C895 1.390 1_645 S
C893 H897 0.950 . S
H894 C890 0.950 . S
C895 C893 1.390 1_465 S
C895 C896 1.387 . S
C895 H898 0.950 . S
C896 C895 1.387 . S
C896 C899 1.387 . S
H897 C893 0.950 . S
H898 C895 0.950 . S
C899 C890 1.390 1_465 S
C899 H892 0.950 . S
C899 C896 1.387 . S
C900 C901 1.387 . S
C900 H904 0.950 . S
C900 C909 1.390 1_445 S
C901 C900 1.387 . S
C901 C903 1.387 . S
H902 C909 0.950 . S
C903 C901 1.387 . S
C903 C905 1.390 1_445 S
C903 H907 0.950 . S
H904 C900 0.950 . S
C905 C903 1.390 1_665 S
C905 C906 1.387 . S
C905 H908 0.950 . S
C906 C905 1.387 . S
C906 C909 1.387 . S
H907 C903 0.950 . S
H908 C905 0.950 . S
C909 C900 1.390 1_665 S
C909 H902 0.950 . S
C909 C906 1.387 . S
C910 C911 1.387 1_565 S
C910 H914 0.950 . S
C910 C919 1.390 1_655 S
C911 C910 1.387 1_545 S
C911 C913 1.387 . S
H912 C919 0.950 . S
C913 C911 1.387 . S
C913 C915 1.390 1_655 S
C913 H917 0.950 . S
H914 C910 0.950 . S
C915 C913 1.390 1_455 S
C915 C916 1.387 1_545 S
C915 H918 0.950 . S
C916 C915 1.387 1_565 S
C916 C919 1.387 . S
H917 C913 0.950 . S
H918 C915 0.950 . S
C919 C910 1.390 1_455 S
C919 H912 0.950 . S
C919 C916 1.387 . S
C920 C921 1.387 . S
C920 H924 0.950 . S
C920 C929 1.390 . S
C921 C920 1.387 . S
C921 C923 1.387 . S
H922 C929 0.950 . S
C923 C921 1.387 . S
C923 C925 1.390 . S
C923 H927 0.950 . S
H924 C920 0.950 . S
C925 C923 1.390 . S
C925 C926 1.387 . S
C925 H928 0.950 . S
C926 C925 1.387 . S
C926 C929 1.387 . S
H927 C923 0.950 . S
H928 C925 0.950 . S
C929 C920 1.390 . S
C929 H922 0.950 . S
C929 C926 1.387 . S
C930 C931 1.387 . S
C930 H934 0.950 . S
C930 C939 1.390 . S
C931 C930 1.387 . S
C931 C933 1.387 . S
H932 C939 0.950 . S
C933 C931 1.387 . S
C933 C935 1.390 . S
C933 H937 0.950 . S
H934 C930 0.950 . S
C935 C933 1.390 . S
C935 C936 1.387 . S
C935 H938 0.950 . S
C936 C935 1.387 . S
C936 C939 1.387 . S
H937 C933 0.950 . S
H938 C935 0.950 . S
C939 C930 1.390 . S
C939 H932 0.950 . S
C939 C936 1.387 . S
C940 C941 1.387 . S
C940 H944 0.950 . S
C940 C949 1.390 . S
C941 C940 1.387 . S
C941 C943 1.387 . S
H942 C949 0.950 . S
C943 C941 1.387 . S
C943 C945 1.390 . S
C943 H947 0.950 . S
H944 C940 0.950 . S
C945 C943 1.390 . S
C945 C946 1.387 . S
C945 H948 0.950 . S
C946 C945 1.387 . S
C946 C949 1.387 . S
H947 C943 0.950 . S
H948 C945 0.950 . S
C949 C940 1.390 . S
C949 H942 0.950 . S
C949 C946 1.387 . S
C950 C951 1.387 . S
C950 H954 0.950 . S
C950 C959 1.390 . S
C951 C950 1.387 . S
C951 C953 1.387 . S
H952 C959 0.950 . S
C953 C951 1.387 . S
C953 C955 1.390 . S
C953 H957 0.950 . S
H954 C950 0.950 . S
C955 C953 1.390 . S
C955 C956 1.387 . S
C955 H958 0.950 . S
C956 C955 1.387 . S
C956 C959 1.387 . S
H957 C953 0.950 . S
H958 C955 0.950 . S
C959 C950 1.390 . S
C959 H952 0.950 . S
C959 C956 1.387 . S
C960 C961 1.387 . S
C960 H964 0.950 . S
C960 C969 1.390 . S
C961 C960 1.387 . S
C961 C963 1.387 . S
H962 C969 0.950 . S
C963 C961 1.387 . S
C963 C965 1.390 . S
C963 H967 0.950 . S
H964 C960 0.950 . S
C965 C963 1.390 . S
C965 C966 1.387 . S
C965 H968 0.950 . S
C966 C965 1.387 . S
C966 C969 1.387 . S
H967 C963 0.950 . S
H968 C965 0.950 . S
C969 C960 1.390 . S
C969 H962 0.950 . S
C969 C966 1.387 . S
C970 C971 1.387 . S
C970 H974 0.950 . S
C970 C979 1.390 . S
C971 C970 1.387 . S
C971 C973 1.387 . S
H972 C979 0.950 . S
C973 C971 1.387 . S
C973 C975 1.390 . S
C973 H977 0.950 . S
H974 C970 0.950 . S
C975 C973 1.390 . S
C975 C976 1.387 . S
C975 H978 0.950 . S
C976 C975 1.387 . S
C976 C979 1.387 . S
H977 C973 0.950 . S
H978 C975 0.950 . S
C979 C970 1.390 . S
C979 H972 0.950 . S
C979 C976 1.387 . S
C980 C981 1.387 . S
C980 H984 0.950 . S
C980 C989 1.390 . S
C981 C980 1.387 . S
C981 C983 1.387 . S
H982 C989 0.950 . S
C983 C981 1.387 . S
C983 C985 1.390 . S
C983 H987 0.950 . S
H984 C980 0.950 . S
C985 C983 1.390 . S
C985 C986 1.387 . S
C985 H988 0.950 . S
C986 C985 1.387 . S
C986 C989 1.387 . S
H987 C983 0.950 . S
H988 C985 0.950 . S
C989 C980 1.390 . S
C989 H982 0.950 . S
C989 C986 1.387 . S
C990 C991 1.387 . S
C990 H994 0.950 . S
C990 C999 1.390 . S
C991 C990 1.387 . S
C991 C993 1.387 . S
H992 C999 0.950 . S
C993 C991 1.387 . S
C993 C995 1.390 . S
C993 H997 0.950 . S
H994 C990 0.950 . S
C995 C993 1.390 . S
C995 C996 1.387 . S
C995 H998 0.950 . S
C996 C995 1.387 . S
C996 C999 1.387 . S
H997 C993 0.950 . S
H998 C995 0.950 . S
C999 C990 1.390 . S
C999 H992 0.950 . S
C999 C996 1.387 . S
C1000 C1001 1.387 . S
C1000 H1004 0.950 . S
C1000 C1009 1.390 . S
C1001 C1000 1.387 . S
C1001 C1003 1.387 . S
H1002 C1009 0.950 . S
C1003 C1001 1.387 . S
C1003 C1005 1.390 . S
C1003 H1007 0.950 . S
H1004 C1000 0.950 . S
C1005 C1003 1.390 . S
C1005 C1006 1.387 . S
C1005 H1008 0.950 . S
C1006 C1005 1.387 . S
C1006 C1009 1.387 . S
H1007 C1003 0.950 . S
H1008 C1005 0.950 . S
C1009 C1000 1.390 . S
C1009 H1002 0.950 . S
C1009 C1006 1.387 . S
C1010 C1011 1.387 . S
C1010 H1014 0.950 . S
C1010 C1019 1.390 . S
C1011 C1010 1.387 . S
C1011 C1013 1.387 . S
H1012 C1019 0.950 . S
C1013 C1011 1.387 . S
C1013 C1015 1.390 . S
C1013 H1017 0.950 . S
H1014 C1010 0.950 . S
C1015 C1013 1.390 . S
C1015 C1016 1.387 . S
C1015 H1018 0.950 . S
C1016 C1015 1.387 . S
C1016 C1019 1.387 . S
H1017 C1013 0.950 . S
H1018 C1015 0.950 . S
C1019 C1010 1.390 . S
C1019 H1012 0.950 . S
C1019 C1016 1.387 . S
C1020 C1021 1.387 . S
C1020 H1024 0.950 . S
C1020 C1029 1.390 . S
C1021 C1020 1.387 . S
C1021 C1023 1.387 . S
H1022 C1029 0.950 . S
C1023 C1021 1.387 . S
C1023 C1025 1.390 . S
C1023 H1027 0.950 . S
H1024 C1020 0.950 . S
C1025 C1023 1.390 . S
C1025 C1026 1.387 . S
C1025 H1028 0.950 . S
C1026 C1025 1.387 . S
C1026 C1029 1.387 . S
H1027 C1023 0.950 . S
H1028 C1025 0.950 . S
C1029 C1020 1.390 . S
C1029 H1022 0.950 . S
C1029 C1026 1.387 . S
C1030 C1031 1.387 . S
C1030 H1034 0.950 . S
C1030 C1039 1.390 . S
C1031 C1030 1.387 . S
C1031 C1033 1.387 . S
H1032 C1039 0.950 . S
C1033 C1031 1.387 . S
C1033 C1035 1.390 . S
C1033 H1037 0.950 . S
H1034 C1030 0.950 . S
C1035 C1033 1.390 . S
C1035 C1036 1.387 . S
C1035 H1038 0.950 . S
C1036 C1035 1.387 . S
C1036 C1039 1.387 . S
H1037 C1033 0.950 . S
H1038 C1035 0.950 . S
C1039 C1030 1.390 . S
C1039 H1032 0.950 . S
C1039 C1036 1.387 . S
C1040 C1041 1.387 . S
C1040 H1044 0.950 . S
C1040 C1049 1.390 . S
C1041 C1040 1.387 . S
C1041 C1043 1.387 . S
H1042 C1049 0.950 . S
C1043 C1041 1.387 . S
C1043 C1045 1.390 . S
C1043 H1047 0.950 . S
H1044 C1040 0.950 . S
C1045 C1043 1.390 . S
C1045 C1046 1.387 . S
C1045 H1048 0.950 . S
C1046 C1045 1.387 . S
C1046 C1049 1.387 . S
H1047 C1043 0.950 . S
H1048 C1045 0.950 . S
C1049 C1040 1.390 . S
C1049 H1042 0.950 . S
C1049 C1046 1.387 . S
C1050 C1051 1.387 . S
C1050 H1054 0.950 . S
C1050 C1059 1.390 . S
C1051 C1050 1.387 . S
C1051 C1053 1.387 . S
H1052 C1059 0.950 . S
C1053 C1051 1.387 . S
C1053 C1055 1.390 . S
C1053 H1057 0.950 . S
H1054 C1050 0.950 . S
C1055 C1053 1.390 . S
C1055 C1056 1.387 . S
C1055 H1058 0.950 . S
C1056 C1055 1.387 . S
C1056 C1059 1.387 . S
H1057 C1053 0.950 . S
H1058 C1055 0.950 . S
C1059 C1050 1.390 . S
C1059 H1052 0.950 . S
C1059 C1056 1.387 . S
C1060 C1061 1.387 . S
C1060 H1064 0.950 . S
C1060 C1069 1.390 . S
C1061 C1060 1.387 . S
C1061 C1063 1.387 . S
H1062 C1069 0.950 . S
C1063 C1061 1.387 . S
C1063 C1065 1.390 . S
C1063 H1067 0.950 . S
H1064 C1060 0.950 . S
C1065 C1063 1.390 . S
C1065 C1066 1.387 . S
C1065 H1068 0.950 . S
C1066 C1065 1.387 . S
C1066 C1069 1.387 . S
H1067 C1063 0.950 . S
H1068 C1065 0.950 . S
C1069 C1060 1.390 . S
C1069 H1062 0.950 . S
C1069 C1066 1.387 . S
C1070 C1071 1.387 . S
C1070 H1074 0.950 . S
C1070 C1079 1.390 . S
C1071 C1070 1.387 . S
C1071 C1073 1.387 . S
H1072 C1079 0.950 . S
C1073 C1071 1.387 . S
C1073 C1075 1.390 . S
C1073 H1077 0.950 . S
H1074 C1070 0.950 . S
C1075 C1073 1.390 . S
C1075 C1076 1.387 . S
C1075 H1078 0.950 . S
C1076 C1075 1.387 . S
C1076 C1079 1.387 . S
H1077 C1073 0.950 . S
H1078 C1075 0.950 . S
C1079 C1070 1.390 . S
C1079 H1072 0.950 . S
C1079 C1076 1.387 . S
C1080 C1081 1.387 . S
C1080 H1084 0.950 . S
C1080 C1089 1.390 . S
C1081 C1080 1.387 . S
C1081 C1083 1.387 . S
H1082 C1089 0.950 . S
C1083 C1081 1.387 . S
C1083 C1085 1.390 . S
C1083 H1087 0.950 . S
H1084 C1080 0.950 . S
C1085 C1083 1.390 . S
C1085 C1086 1.387 . S
C1085 H1088 0.950 . S
C1086 C1085 1.387 . S
C1086 C1089 1.387 . S
H1087 C1083 0.950 . S
H1088 C1085 0.950 . S
C1089 C1080 1.390 . S
C1089 H1082 0.950 . S
C1089 C1086 1.387 . S
C1090 C1091 1.387 . S
C1090 H1094 0.950 . S
C1090 C1099 1.390 . S
C1091 C1090 1.387 . S
C1091 C1093 1.387 . S
H1092 C1099 0.950 . S
C1093 C1091 1.387 . S
C1093 C1095 1.390 . S
C1093 H1097 0.950 . S
H1094 C1090 0.950 . S
C1095 C1093 1.390 . S
C1095 C1096 1.387 . S
C1095 H1098 0.950 . S
C1096 C1095 1.387 . S
C1096 C1099 1.387 . S
H1097 C1093 0.950 . S
H1098 C1095 0.950 . S
C1099 C1090 1.390 . S
C1099 H1092 0.950 . S
C1099 C1096 1.387 . S
C1100 C1101 1.387 . S
C1100 H1104 0.950 . S
C1100 C1109 1.390 . S
C1101 C1100 1.387 . S
C1101 C1103 1.387 . S
H1102 C1109 0.950 . S
C1103 C1101 1.387 . S
C1103 C1105 1.390 . S
C1103 H1107 0.950 . S
H1104 C1100 0.950 . S
C1105 C1103 1.390 . S
C1105 C1106 1.387 . S
C1105 H1108 0.950 . S
C1106 C1105 1.387 . S
C1106 C1109 1.387 . S
H1107 C1103 0.950 . S
H1108 C1105 0.950 . S
C1109 C1100 1.390 . S
C1109 H1102 0.950 . S
C1109 C1106 1.387 . S
C1110 C1111 1.387 . S
C1110 H1114 0.950 . S
C1110 C1119 1.390 . S
C1111 C1110 1.387 . S
C1111 C1113 1.387 . S
H1112 C1119 0.950 . S
C1113 C1111 1.387 . S
C1113 C1115 1.390 . S
C1113 H1117 0.950 . S
H1114 C1110 0.950 . S
C1115 C1113 1.390 . S
C1115 C1116 1.387 . S
C1115 H1118 0.950 . S
C1116 C1115 1.387 . S
C1116 C1119 1.387 . S
H1117 C1113 0.950 . S
H1118 C1115 0.950 . S
C1119 C1110 1.390 . S
C1119 H1112 0.950 . S
C1119 C1116 1.387 . S
C641 C3 1.607 . S
C646 C363 1.607 . S
C651 C43 1.605 . S
C656 C323 1.605 . S
C661 C443 1.607 . S
C666 C83 1.607 . S
C671 C123 1.607 . S
C676 C403 1.607 . S
C681 C542 1.605 . S
C686 C182 1.605 . S
C691 C502 1.605 . S
C696 C222 1.605 . S
C701 C622 1.607 . S
C706 C262 1.607 . S
C711 C302 1.607 . S
C716 C582 1.607 . S
C721 C95 1.785 . S
C726 C15 1.785 . S
C731 C135 1.786 . S
C736 C55 1.786 . S
C741 C242 1.785 . S
C746 C162 1.785 . S
C751 C202 1.786 . S
C756 C282 1.786 . S
C761 C415 1.786 . S
C766 C335 1.786 . S
C771 C455 1.785 . S
C776 C375 1.785 . S
C781 C482 1.786 . S
C786 C562 1.786 . S
C791 C522 1.786 . S
C796 C602 1.786 . S
C801 C215 1.547 . S
C806 C2 1.544 . S
C811 C175 1.544 . S
C816 C42 1.547 . S
C821 C82 1.545 . S
C826 C295 1.547 . S
C831 C255 1.546 . S
C836 C122 1.545 . S
C841 C322 1.545 . S
C846 C535 1.547 . S
C851 C495 1.545 . S
C856 C362 1.547 . S
C861 C402 1.544 . S
C866 C615 1.547 . S
C871 C575 1.545 . S
C876 C442 1.547 . S
C881 C62 1.638 . S
C886 C22 1.638 . S
C891 C142 1.638 . S
C896 C102 1.638 . S
C901 C203 1.640 . S
C906 C163 1.640 . S
C911 C243 1.639 . S
C916 C283 1.639 . S
C921 C382 1.640 . S
C926 C342 1.640 . S
C931 C462 1.638 . S
C936 C422 1.638 . S
C941 C483 1.640 . S
C946 C523 1.640 . S
C951 C563 1.638 . S
C956 C603 1.638 . S
C961 C9 1.467 . S
C966 C26 1.467 . S
C971 C49 1.470 . S
C976 C66 1.470 . S
C981 C89 1.468 . S
C986 C106 1.468 . S
C991 C146 1.467 . S
C996 C129 1.467 . S
C1001 C186 1.468 . S
C1006 C169 1.468 . S
C1011 C209 1.467 . S
C1016 C226 1.467 . S
C1021 C266 1.467 . S
C1026 C249 1.467 . S
C1031 C306 1.470 . S
C1036 C289 1.470 . S
C1041 C346 1.468 1_545 S
C1046 C329 1.468 . S
C1051 C369 1.467 . S
C1056 C386 1.467 1_565 S
C1061 C426 1.470 1_565 S
C1066 C409 1.470 . S
C1071 C466 1.467 1_545 S
C1076 C449 1.467 . S
C1081 C506 1.468 . S
C1086 C489 1.468 1_565 S
C1091 C546 1.470 . S
C1096 C529 1.470 1_545 S
C1101 C569 1.467 1_545 S
C1106 C586 1.467 . S
C1111 C626 1.470 . S
C1116 C609 1.470 1_565 S
