# Generated by pormake.
# Topology uka, (4)-cn, num edge types: 1
# Building blocks:
#     Node 0, Type 0, BuildingBlock: NAHDIM_clean_sbu_0, # of connection points: 4
#     Node 1, Type 0, BuildingBlock: NAHDIM_clean_sbu_0, # of connection points: 4
#     Node 2, Type 0, BuildingBlock: NAHDIM_clean_sbu_0, # of connection points: 4
#     Node 3, Type 0, BuildingBlock: NAHDIM_clean_sbu_0, # of connection points: 4
#     Node 4, Type 0, BuildingBlock: NAHDIM_clean_sbu_0, # of connection points: 4
#     Node 5, Type 0, BuildingBlock: NAHDIM_clean_sbu_0, # of connection points: 4
#     Node 6, Type 0, BuildingBlock: NAHDIM_clean_sbu_0, # of connection points: 4
#     Node 7, Type 0, BuildingBlock: NAHDIM_clean_sbu_0, # of connection points: 4
#     Node 8, Type 0, BuildingBlock: NAHDIM_clean_sbu_0, # of connection points: 4
#     Node 9, Type 0, BuildingBlock: NAHDIM_clean_sbu_0, # of connection points: 4
#     Node 10, Type 0, BuildingBlock: NAHDIM_clean_sbu_0, # of connection points: 4
#     Node 11, Type 0, BuildingBlock: NAHDIM_clean_sbu_0, # of connection points: 4
#     Node 12, Type 0, BuildingBlock: NAHDIM_clean_sbu_0, # of connection points: 4
#     Node 13, Type 0, BuildingBlock: NAHDIM_clean_sbu_0, # of connection points: 4
#     Node 14, Type 0, BuildingBlock: NAHDIM_clean_sbu_0, # of connection points: 4
#     Node 15, Type 0, BuildingBlock: NAHDIM_clean_sbu_0, # of connection points: 4
#     Node 16, Type 0, BuildingBlock: NAHDIM_clean_sbu_0, # of connection points: 4
#     Node 17, Type 0, BuildingBlock: NAHDIM_clean_sbu_0, # of connection points: 4
#     Node 18, Type 0, BuildingBlock: NAHDIM_clean_sbu_0, # of connection points: 4
#     Node 19, Type 0, BuildingBlock: NAHDIM_clean_sbu_0, # of connection points: 4
#     Node 20, Type 0, BuildingBlock: NAHDIM_clean_sbu_0, # of connection points: 4
#     Node 21, Type 0, BuildingBlock: NAHDIM_clean_sbu_0, # of connection points: 4
#     Node 22, Type 0, BuildingBlock: NAHDIM_clean_sbu_0, # of connection points: 4
#     Node 23, Type 0, BuildingBlock: NAHDIM_clean_sbu_0, # of connection points: 4
#     Node 24, Type 0, BuildingBlock: NAHDIM_clean_sbu_0, # of connection points: 4
#     Node 25, Type 0, BuildingBlock: NAHDIM_clean_sbu_0, # of connection points: 4
#     Node 26, Type 0, BuildingBlock: NAHDIM_clean_sbu_0, # of connection points: 4
#     Node 27, Type 0, BuildingBlock: NAHDIM_clean_sbu_0, # of connection points: 4
#     Node 28, Type 0, BuildingBlock: NAHDIM_clean_sbu_0, # of connection points: 4
#     Node 29, Type 0, BuildingBlock: NAHDIM_clean_sbu_0, # of connection points: 4
#     Node 30, Type 0, BuildingBlock: NAHDIM_clean_sbu_0, # of connection points: 4
#     Node 31, Type 0, BuildingBlock: NAHDIM_clean_sbu_0, # of connection points: 4
#     Edge 32, Type (0, 0), BuildingBlock: XIVTED_clean_linker_0, # of connection points: 2
#     Edge 33, Type (0, 0), BuildingBlock: XIVTED_clean_linker_0, # of connection points: 2
#     Edge 34, Type (0, 0), BuildingBlock: XIVTED_clean_linker_0, # of connection points: 2
#     Edge 35, Type (0, 0), BuildingBlock: XIVTED_clean_linker_0, # of connection points: 2
#     Edge 36, Type (0, 0), BuildingBlock: XIVTED_clean_linker_0, # of connection points: 2
#     Edge 37, Type (0, 0), BuildingBlock: XIVTED_clean_linker_0, # of connection points: 2
#     Edge 38, Type (0, 0), BuildingBlock: XIVTED_clean_linker_0, # of connection points: 2
#     Edge 39, Type (0, 0), BuildingBlock: XIVTED_clean_linker_0, # of connection points: 2
#     Edge 40, Type (0, 0), BuildingBlock: XIVTED_clean_linker_0, # of connection points: 2
#     Edge 41, Type (0, 0), BuildingBlock: XIVTED_clean_linker_0, # of connection points: 2
#     Edge 42, Type (0, 0), BuildingBlock: XIVTED_clean_linker_0, # of connection points: 2
#     Edge 43, Type (0, 0), BuildingBlock: XIVTED_clean_linker_0, # of connection points: 2
#     Edge 44, Type (0, 0), BuildingBlock: XIVTED_clean_linker_0, # of connection points: 2
#     Edge 45, Type (0, 0), BuildingBlock: XIVTED_clean_linker_0, # of connection points: 2
#     Edge 46, Type (0, 0), BuildingBlock: XIVTED_clean_linker_0, # of connection points: 2
#     Edge 47, Type (0, 0), BuildingBlock: XIVTED_clean_linker_0, # of connection points: 2
#     Edge 48, Type (0, 0), BuildingBlock: XIVTED_clean_linker_0, # of connection points: 2
#     Edge 49, Type (0, 0), BuildingBlock: XIVTED_clean_linker_0, # of connection points: 2
#     Edge 50, Type (0, 0), BuildingBlock: XIVTED_clean_linker_0, # of connection points: 2
#     Edge 51, Type (0, 0), BuildingBlock: XIVTED_clean_linker_0, # of connection points: 2
#     Edge 52, Type (0, 0), BuildingBlock: XIVTED_clean_linker_0, # of connection points: 2
#     Edge 53, Type (0, 0), BuildingBlock: XIVTED_clean_linker_0, # of connection points: 2
#     Edge 54, Type (0, 0), BuildingBlock: XIVTED_clean_linker_0, # of connection points: 2
#     Edge 55, Type (0, 0), BuildingBlock: XIVTED_clean_linker_0, # of connection points: 2
#     Edge 56, Type (0, 0), BuildingBlock: XIVTED_clean_linker_0, # of connection points: 2
#     Edge 57, Type (0, 0), BuildingBlock: XIVTED_clean_linker_0, # of connection points: 2
#     Edge 58, Type (0, 0), BuildingBlock: XIVTED_clean_linker_0, # of connection points: 2
#     Edge 59, Type (0, 0), BuildingBlock: XIVTED_clean_linker_0, # of connection points: 2
#     Edge 60, Type (0, 0), BuildingBlock: XIVTED_clean_linker_0, # of connection points: 2
#     Edge 61, Type (0, 0), BuildingBlock: XIVTED_clean_linker_0, # of connection points: 2
#     Edge 62, Type (0, 0), BuildingBlock: XIVTED_clean_linker_0, # of connection points: 2
#     Edge 63, Type (0, 0), BuildingBlock: XIVTED_clean_linker_0, # of connection points: 2
#     Edge 64, Type (0, 0), BuildingBlock: XIVTED_clean_linker_0, # of connection points: 2
#     Edge 65, Type (0, 0), BuildingBlock: XIVTED_clean_linker_0, # of connection points: 2
#     Edge 66, Type (0, 0), BuildingBlock: XIVTED_clean_linker_0, # of connection points: 2
#     Edge 67, Type (0, 0), BuildingBlock: XIVTED_clean_linker_0, # of connection points: 2
#     Edge 68, Type (0, 0), BuildingBlock: XIVTED_clean_linker_0, # of connection points: 2
#     Edge 69, Type (0, 0), BuildingBlock: XIVTED_clean_linker_0, # of connection points: 2
#     Edge 70, Type (0, 0), BuildingBlock: XIVTED_clean_linker_0, # of connection points: 2
#     Edge 71, Type (0, 0), BuildingBlock: XIVTED_clean_linker_0, # of connection points: 2
#     Edge 72, Type (0, 0), BuildingBlock: XIVTED_clean_linker_0, # of connection points: 2
#     Edge 73, Type (0, 0), BuildingBlock: XIVTED_clean_linker_0, # of connection points: 2
#     Edge 74, Type (0, 0), BuildingBlock: XIVTED_clean_linker_0, # of connection points: 2
#     Edge 75, Type (0, 0), BuildingBlock: XIVTED_clean_linker_0, # of connection points: 2
#     Edge 76, Type (0, 0), BuildingBlock: XIVTED_clean_linker_0, # of connection points: 2
#     Edge 77, Type (0, 0), BuildingBlock: XIVTED_clean_linker_0, # of connection points: 2
#     Edge 78, Type (0, 0), BuildingBlock: XIVTED_clean_linker_0, # of connection points: 2
#     Edge 79, Type (0, 0), BuildingBlock: XIVTED_clean_linker_0, # of connection points: 2
#     Edge 80, Type (0, 0), BuildingBlock: XIVTED_clean_linker_0, # of connection points: 2
#     Edge 81, Type (0, 0), BuildingBlock: XIVTED_clean_linker_0, # of connection points: 2
#     Edge 82, Type (0, 0), BuildingBlock: XIVTED_clean_linker_0, # of connection points: 2
#     Edge 83, Type (0, 0), BuildingBlock: XIVTED_clean_linker_0, # of connection points: 2
#     Edge 84, Type (0, 0), BuildingBlock: XIVTED_clean_linker_0, # of connection points: 2
#     Edge 85, Type (0, 0), BuildingBlock: XIVTED_clean_linker_0, # of connection points: 2
#     Edge 86, Type (0, 0), BuildingBlock: XIVTED_clean_linker_0, # of connection points: 2
#     Edge 87, Type (0, 0), BuildingBlock: XIVTED_clean_linker_0, # of connection points: 2
#     Edge 88, Type (0, 0), BuildingBlock: XIVTED_clean_linker_0, # of connection points: 2
#     Edge 89, Type (0, 0), BuildingBlock: XIVTED_clean_linker_0, # of connection points: 2
#     Edge 90, Type (0, 0), BuildingBlock: XIVTED_clean_linker_0, # of connection points: 2
#     Edge 91, Type (0, 0), BuildingBlock: XIVTED_clean_linker_0, # of connection points: 2
#     Edge 92, Type (0, 0), BuildingBlock: XIVTED_clean_linker_0, # of connection points: 2
#     Edge 93, Type (0, 0), BuildingBlock: XIVTED_clean_linker_0, # of connection points: 2
#     Edge 94, Type (0, 0), BuildingBlock: XIVTED_clean_linker_0, # of connection points: 2
#     Edge 95, Type (0, 0), BuildingBlock: XIVTED_clean_linker_0, # of connection points: 2
# Relax obj value: 0.247
# Max RMSD: 0.250
# Mean RMSD: 0.250
data_MOF--net-uka--node1-NAHDIM_clean_sbu_0--edge1-XIVTED_clean_linker_0
_symmetry_space_group_name_H-M    P1
_symmetry_Int_Tables_number       1
_symmetry_cell_setting            triclinic
loop_
_symmetry_equiv_pos_as_xyz
'x, y, z'
_cell_length_a     60.654874
_cell_length_b     60.732819
_cell_length_c     41.264927
_cell_angle_alpha  89.977912
_cell_angle_beta   90.035964
_cell_angle_gamma 89.941065
loop_
_atom_site_label
_atom_site_type_symbol
_atom_site_fract_x
_atom_site_fract_y
_atom_site_fract_z
_atom_type_partial_charge
C0 C 0.16461 0.26569 0.27355 0.0
O1 O 0.15026 0.25341 0.25802 0.0
O2 O 0.11958 0.24831 0.32833 0.0
Zn3 Zn 0.126 0.2776 0.30805 0.0
O4 O 0.10622 0.28305 0.26961 0.0
C5 C 0.11524 0.32022 0.33363 0.0
O6 O 0.11722 0.32611 0.30312 0.0
O7 O 0.15787 0.27843 0.29584 0.0
C8 C 0.08587 0.27814 0.27098 0.0
O9 O 0.07801 0.26883 0.29729 0.0
C10 C 0.11328 0.23104 0.31364 0.0
O11 O 0.11059 0.23144 0.28206 0.0
O12 O 0.11921 0.30042 0.34155 0.0
C13 C -0.00211 0.91089 0.50553 0.0
O14 O 0.01301 0.90073 0.48831 0.0
O15 O 0.01955 0.858 0.5362 0.0
Zn16 Zn 0.98805 0.86727 0.52942 0.0
O17 O 0.97546 0.85161 0.49091 0.0
C18 C 0.97695 0.86035 0.59735 0.0
O19 O -0.00332 0.86836 0.60297 0.0
O20 O 0.98547 0.8998 0.52409 0.0
C21 C 0.98681 0.84674 0.46606 0.0
O22 O 0.00763 0.85261 0.46476 0.0
C23 C 0.0339 0.87001 0.55003 0.0
O24 O 0.02845 0.88989 0.55967 0.0
O25 O 0.97018 0.85851 0.56831 0.0
C26 C 0.31214 0.66985 0.78884 0.0
O27 O 0.32634 0.67443 0.76579 0.0
O28 O 0.35694 0.69996 0.83997 0.0
Zn29 Zn 0.35172 0.669 0.82476 0.0
O30 O 0.36859 0.66308 0.7837 0.0
C31 C 0.36459 0.6534 0.88814 0.0
O32 O 0.3559 0.67206 0.89802 0.0
O33 O 0.31927 0.66564 0.81713 0.0
C34 C 0.38656 0.6726 0.77639 0.0
O35 O 0.39503 0.68718 0.79633 0.0
C36 C 0.35576 0.71684 0.82185 0.0
O37 O 0.35126 0.71447 0.79091 0.0
O38 O 0.36327 0.64825 0.85837 0.0
C39 C 0.49303 0.06563 0.96464 0.0
O40 O 0.47661 0.07918 0.95879 0.0
O41 O 0.48323 0.11051 0.01689 0.0
Zn42 Zn 0.51125 0.10419 0.99294 0.0
O43 O 0.5156 0.12549 0.95622 0.0
C44 C 0.53314 0.10147 0.05415 0.0
O45 O 0.51525 0.09042 0.06173 0.0
O46 O 0.5104 0.07299 0.97796 0.0
C47 C 0.52101 0.14512 0.96335 0.0
O48 O 0.52304 0.1506 0.99401 0.0
C49 C 0.4672 0.12215 0.00697 0.0
O50 O 0.46803 0.13113 0.97803 0.0
O51 O 0.53565 0.10817 0.0252 0.0
C52 C 0.16704 0.72314 0.23835 0.0
O53 O 0.15034 0.72847 0.25704 0.0
O54 O 0.12022 0.73279 0.17915 0.0
Zn55 Zn 0.13254 0.7054 0.19946 0.0
O56 O 0.11345 0.69705 0.23727 0.0
C57 C 0.13429 0.68467 0.1367 0.0
O58 O 0.14007 0.7045 0.12724 0.0
O59 O 0.16351 0.71203 0.21281 0.0
C60 C 0.09311 0.69378 0.2316 0.0
O61 O 0.08581 0.69568 0.20174 0.0
C62 C 0.11112 0.74787 0.19578 0.0
O63 O 0.10946 0.74556 0.22733 0.0
O64 O 0.13126 0.68105 0.1667 0.0
C65 C 0.54153 0.93955 0.47884 0.0
O66 O 0.53373 0.92986 0.50489 0.0
O67 O 0.50511 0.89342 0.44536 0.0
Zn68 Zn 0.53752 0.89614 0.45446 0.0
O69 O 0.54547 0.88243 0.49724 0.0
C70 C 0.54764 0.87763 0.39131 0.0
O71 O 0.52896 0.8868 0.38242 0.0
O72 O 0.54526 0.92808 0.45374 0.0
C73 C 0.53828 0.86345 0.50471 0.0
O74 O 0.525 0.85315 0.48464 0.0
C75 C 0.48992 0.89275 0.46654 0.0
O76 O 0.495 0.89356 0.49746 0.0
O77 O 0.5544 0.88002 0.42024 0.0
C78 C 0.31989 0.25275 0.71803 0.0
O79 O 0.33612 0.24685 0.73728 0.0
O80 O 0.36848 0.23754 0.66458 0.0
Zn81 Zn 0.3559 0.26633 0.67957 0.0
O82 O 0.37295 0.27796 0.71769 0.0
C83 C 0.35603 0.28151 0.61376 0.0
O84 O 0.3494 0.26129 0.60805 0.0
O85 O 0.32433 0.26206 0.69128 0.0
C86 C 0.39379 0.27607 0.71928 0.0
O87 O 0.40446 0.2663 0.6956 0.0
C88 C 0.37719 0.22267 0.68208 0.0
O89 O 0.37821 0.22528 0.71364 0.0
O90 O 0.35894 0.28767 0.64288 0.0
C91 C 0.94898 0.06207 0.98648 0.0
O92 O 0.95055 0.07623 0.01043 0.0
O93 O 0.98372 0.10559 0.93884 0.0
Zn94 Zn 0.95159 0.10108 0.94784 0.0
O95 O 0.94173 0.11935 0.98581 0.0
C96 C 0.9416 0.10646 0.88001 0.0
O97 O 0.96104 0.09724 0.87633 0.0
O98 O 0.94804 0.06912 0.95754 0.0
C99 C 0.95083 0.13735 0.99396 0.0
O100 O 0.9673 0.14505 0.97669 0.0
C101 C -0.00134 0.10494 0.96044 0.0
O102 O -0.00678 0.10216 0.99098 0.0
O103 O 0.93406 0.10938 0.90842 0.0
C104 C 0.82726 0.75165 0.77127 0.0
O105 O 0.83988 0.76837 0.77918 0.0
O106 O 0.8815 0.76008 0.74301 0.0
Zn107 Zn 0.86839 0.73067 0.75377 0.0
O108 O 0.88342 0.71569 0.79111 0.0
C109 C 0.86839 0.72119 0.68648 0.0
O110 O 0.86188 0.74182 0.68547 0.0
O111 O 0.83605 0.73392 0.76126 0.0
C112 C 0.90415 0.71263 0.79066 0.0
O113 O 0.9157 0.71995 0.766 0.0
C114 C 0.89561 0.77183 0.75776 0.0
O115 O 0.90347 0.76537 0.78586 0.0
O116 O 0.87208 0.71223 0.71381 0.0
C117 C -0.00487 0.07527 0.52066 0.0
O118 O 0.97716 0.0855 0.53012 0.0
O119 O 0.98173 0.12756 0.48859 0.0
Zn120 Zn 0.00984 0.11919 0.5109 0.0
O121 O 0.0133 0.13197 0.55537 0.0
C122 C 0.03508 0.12513 0.45349 0.0
O123 O 0.02013 0.11164 0.44182 0.0
O124 O 0.01177 0.08648 0.5121 0.0
C125 C 0.01686 0.15246 0.55861 0.0
O126 O 0.01642 0.16516 0.53283 0.0
C127 C 0.96635 0.14024 0.49792 0.0
O128 O 0.96746 0.14954 0.52661 0.0
O129 O 0.03434 0.13043 0.48324 0.0
C130 C 0.6618 0.23551 0.23091 0.0
O131 O 0.64995 0.2211 0.24704 0.0
O132 O 0.6119 0.21709 0.19373 0.0
Zn133 Zn 0.61953 0.24759 0.20841 0.0
O134 O 0.6052 0.25667 0.25015 0.0
C135 C 0.61332 0.26355 0.14381 0.0
O136 O 0.62448 0.24566 0.13661 0.0
O137 O 0.65215 0.24934 0.21271 0.0
C138 C 0.58482 0.2541 0.25612 0.0
O139 O 0.57227 0.24396 0.23491 0.0
C140 C 0.60388 0.20071 0.20877 0.0
O141 O 0.59888 0.2024 0.23963 0.0
O142 O 0.60962 0.26812 0.17337 0.0
C143 C 0.46429 0.9046 0.98171 0.0
O144 O 0.47936 0.89245 0.99602 0.0
O145 O 0.47348 0.85092 0.96 0.0
Zn146 Zn 0.44572 0.86299 0.97957 0.0
O147 O 0.44293 0.85647 0.027 0.0
C148 C 0.41987 0.84849 0.92561 0.0
O149 O 0.43503 0.85917 0.90918 0.0
O150 O 0.4465 0.89556 0.97245 0.0
C151 C 0.44284 0.83681 0.03752 0.0
O152 O 0.44577 0.82049 0.01707 0.0
C153 C 0.4906 0.84326 0.97372 0.0
O154 O 0.49139 0.84174 0.00545 0.0
O155 O 0.4205 0.84885 0.95637 0.0
C156 C 0.81278 0.25578 0.76128 0.0
O157 O 0.82107 0.24494 0.78602 0.0
O158 O 0.86274 0.22331 0.74298 0.0
Zn159 Zn 0.85793 0.25601 0.7404 0.0
O160 O 0.87217 0.2702 0.70172 0.0
C161 C 0.86344 0.28507 0.79647 0.0
O162 O 0.8468 0.2962 0.78429 0.0
O163 O 0.82552 0.26216 0.73876 0.0
C164 C 0.89271 0.27404 0.69951 0.0
O165 O 0.90596 0.26782 0.72299 0.0
C166 C 0.87815 0.21243 0.72962 0.0
O167 O 0.8915 0.2224 0.70934 0.0
O168 O 0.87071 0.2683 0.7815 0.0
C169 C 0.52556 0.1024 0.463 0.0
O170 O 0.53101 0.11351 0.43688 0.0
O171 O 0.53045 0.1627 0.50409 0.0
Zn172 Zn 0.50608 0.14353 0.48661 0.0
O173 O 0.49396 0.15368 0.44386 0.0
C174 C 0.48306 0.14225 0.548 0.0
O175 O 0.50231 0.13614 0.55955 0.0
O176 O 0.51508 0.11193 0.48561 0.0
C177 C 0.50287 0.16602 0.42276 0.0
O178 O 0.52318 0.17293 0.42712 0.0
C179 C 0.54666 0.15417 0.51913 0.0
O180 O 0.54856 0.13264 0.52008 0.0
O181 O 0.48102 0.14596 0.51785 0.0
C182 C 0.67224 0.71712 0.27237 0.0
O183 O 0.66146 0.73177 0.25506 0.0
O184 O 0.61993 0.73595 0.293 0.0
Zn185 Zn 0.62868 0.70461 0.28412 0.0
O186 O 0.6194 0.69441 0.24002 0.0
C187 C 0.61586 0.69138 0.34757 0.0
O188 O 0.62802 0.70844 0.35553 0.0
O189 O 0.66143 0.70261 0.28775 0.0
C190 C 0.59932 0.69383 0.23134 0.0
O191 O 0.58398 0.70055 0.25152 0.0
C192 C 0.6108 0.74984 0.27426 0.0
O193 O 0.60587 0.7443 0.24437 0.0
O194 O 0.61426 0.68598 0.31792 0.0
C195 C 0.98641 0.9038 0.02274 0.0
O196 O 0.98105 0.89391 0.04992 0.0
O197 O 0.9738 0.84775 0.02674 0.0
Zn198 Zn 0.00104 0.86069 0.00721 0.0
O199 O 0.0087 0.84604 0.96514 0.0
C200 C 0.0228 0.8537 0.06855 0.0
O201 O 0.00304 0.85763 0.08018 0.0
O202 O -0.00414 0.89285 0.00051 0.0
C203 C 0.01858 0.82759 0.96623 0.0
O204 O 0.02246 0.81847 0.99455 0.0
C205 C 0.96213 0.83207 0.01586 0.0
O206 O 0.96735 0.82276 0.98819 0.0
O207 O 0.02604 0.85527 0.03821 0.0
C208 C 0.66393 0.76715 0.74517 0.0
O209 O 0.65302 0.7525 0.72809 0.0
O210 O 0.61352 0.7473 0.7688 0.0
Zn211 Zn 0.62044 0.77881 0.75824 0.0
O212 O 0.60939 0.7884 0.71464 0.0
C213 C 0.60747 0.79156 0.822 0.0
O214 O 0.61973 0.77454 0.8299 0.0
O215 O 0.65321 0.78178 0.76049 0.0
C216 C 0.58887 0.78972 0.70875 0.0
O217 O 0.57469 0.78369 0.73111 0.0
C218 C 0.60209 0.73295 0.75403 0.0
O219 O 0.59238 0.73795 0.72654 0.0
O220 O 0.606 0.79715 0.7924 0.0
C221 C 0.50053 0.40045 0.95747 0.0
O222 O 0.51261 0.3864 0.94103 0.0
O223 O 0.50232 0.34626 0.99087 0.0
Zn224 Zn 0.47597 0.36176 0.97252 0.0
O225 O 0.46638 0.3509 0.92881 0.0
C226 C 0.45567 0.36308 0.03382 0.0
O227 O 0.47416 0.37347 0.04025 0.0
O228 O 0.48323 0.39373 0.97164 0.0
C229 C 0.46791 0.33089 0.92017 0.0
O230 O 0.47681 0.31647 0.93999 0.0
C231 C 0.51923 0.33723 0.97851 0.0
O232 O 0.52144 0.33617 0.94689 0.0
O233 O 0.45192 0.35688 0.00491 0.0
C234 C 0.82649 0.22568 0.23432 0.0
O235 O 0.8382 0.23977 0.21738 0.0
O236 O 0.8766 0.24463 0.26588 0.0
Zn237 Zn 0.8691 0.21358 0.25387 0.0
O238 O 0.88128 0.20429 0.21087 0.0
C239 C 0.87486 0.19946 0.31837 0.0
O240 O 0.86202 0.2166 0.32298 0.0
O241 O 0.83636 0.21178 0.25215 0.0
C242 C 0.90158 0.20431 0.20338 0.0
O243 O 0.91621 0.21117 0.22458 0.0
C244 C 0.88659 0.25964 0.25032 0.0
O245 O 0.8942 0.25571 0.22111 0.0
O246 O 0.88017 0.19419 0.2896 0.0
C247 C 0.96789 0.59717 0.4585 0.0
O248 O 0.95705 0.60794 0.43593 0.0
O249 O 0.95385 0.65536 0.49035 0.0
Zn250 Zn 0.98274 0.64049 0.47963 0.0
O251 O -0.0027 0.65147 0.43915 0.0
C252 C -0.00148 0.64317 0.54538 0.0
O253 O 0.97978 0.63333 0.552 0.0
O254 O 0.97973 0.60773 0.47853 0.0
C255 C 0.98887 0.65528 0.41154 0.0
O256 O 0.96762 0.65242 0.40709 0.0
C257 C 0.93877 0.64434 0.50433 0.0
O258 O 0.94121 0.62296 0.50743 0.0
O259 O 0.00328 0.6476 0.51611 0.0
C260 C 0.64967 0.27836 0.74249 0.0
O261 O 0.64159 0.2862 0.71528 0.0
O262 O 0.594 0.3014 0.74191 0.0
Zn263 Zn 0.60423 0.27104 0.7537 0.0
O264 O 0.58714 0.25731 0.79048 0.0
C265 C 0.60984 0.23611 0.70507 0.0
O266 O 0.62472 0.22785 0.72478 0.0
O267 O 0.6365 0.27111 0.76388 0.0
C268 C 0.57136 0.24411 0.78466 0.0
O269 O 0.56551 0.24049 0.75448 0.0
C270 C 0.57362 0.30623 0.74163 0.0
O271 O 0.5595 0.29242 0.75461 0.0
O272 O 0.59963 0.25356 0.71299 0.0
C273 C 0.97972 0.38665 0.03176 0.0
O274 O 0.97045 0.37858 0.05797 0.0
O275 O 0.96197 0.32693 -0.00046 0.0
Zn276 Zn 0.98911 0.34103 0.01861 0.0
O277 O -0.0054 0.33445 0.06556 0.0
C278 C 0.02079 0.33614 0.9669 0.0
O279 O 0.01011 0.35283 0.95404 0.0
O280 O 0.98864 0.37363 0.0116 0.0
C281 C -0.00591 0.31515 0.07738 0.0
O282 O 0.98736 0.29873 0.05918 0.0
C283 C 0.94506 0.33791 0.99109 0.0
O284 O 0.94387 0.3589 -0.00147 0.0
O285 O 0.01477 0.32871 0.99427 0.0
C286 C 0.837 0.72394 0.27491 0.0
O287 O 0.84878 0.70684 0.28399 0.0
O288 O 0.88923 0.71129 0.23899 0.0
Zn289 Zn 0.87881 0.74111 0.25328 0.0
O290 O 0.89536 0.75278 0.29173 0.0
C291 C 0.87931 0.75507 0.18719 0.0
O292 O 0.87104 0.73532 0.18268 0.0
O293 O 0.84654 0.74035 0.26207 0.0
C294 C 0.91394 0.76199 0.2874 0.0
O295 O 0.92232 0.76269 0.25806 0.0
C296 C 0.90742 0.70227 0.24658 0.0
O297 O 0.92045 0.71194 0.26762 0.0
O298 O 0.88361 0.76146 0.21581 0.0
C299 C 0.4668 0.57619 0.4978 0.0
O300 O 0.48222 0.58665 0.51403 0.0
O301 O 0.48088 0.62916 0.4795 0.0
Zn302 Zn 0.4517 0.61921 0.49685 0.0
O303 O 0.44795 0.62492 0.54433 0.0
C304 C 0.42686 0.63383 0.44191 0.0
O305 O 0.43932 0.61943 0.42677 0.0
O306 O 0.45009 0.58689 0.48796 0.0
C307 C 0.44806 0.64435 0.55569 0.0
O308 O 0.45184 0.661 0.53613 0.0
C309 C 0.49765 0.63693 0.49391 0.0
O310 O 0.4972 0.64011 0.52539 0.0
O311 O 0.4286 0.63582 0.47244 0.0
C312 C 0.32679 0.24437 0.24054 0.0
O313 O 0.34119 0.25859 0.2518 0.0
O314 O 0.37253 0.25703 0.18853 0.0
Zn315 Zn 0.36501 0.22809 0.20894 0.0
O316 O 0.38493 0.22097 0.24653 0.0
C317 C 0.37495 0.18586 0.17892 0.0
O318 O 0.37697 0.17871 0.20883 0.0
O319 O 0.33338 0.22895 0.22216 0.0
C320 C 0.40571 0.22017 0.24264 0.0
O321 O 0.41405 0.2248 0.21406 0.0
C322 C 0.38366 0.27278 0.20041 0.0
O323 O 0.39148 0.27121 0.23001 0.0
O324 O 0.36936 0.20572 0.17393 0.0
C325 C 0.54802 0.55604 0.99081 0.0
O326 O 0.53878 0.56724 0.01442 0.0
O327 O 0.51917 0.60316 0.96134 0.0
Zn328 Zn 0.55182 0.59896 0.96717 0.0
O329 O 0.56212 0.61283 0.00859 0.0
C330 C 0.55879 0.61228 0.90133 0.0
O331 O 0.54029 0.60146 0.89685 0.0
O332 O 0.55673 0.56648 0.96746 0.0
C333 C 0.55637 0.63242 0.01533 0.0
O334 O 0.54388 0.64335 0.99485 0.0
C335 C 0.50483 0.60636 0.98329 0.0
O336 O 0.51095 0.60806 0.01372 0.0
O337 O 0.56723 0.61295 0.92952 0.0
C338 C 0.15794 0.7221 0.75776 0.0
O339 O 0.14126 0.71485 0.77501 0.0
O340 O 0.10792 0.72658 0.70323 0.0
Zn341 Zn 0.12475 0.74904 0.72858 0.0
O342 O 0.10887 0.75657 0.7697 0.0
C343 C 0.13063 0.77409 0.67084 0.0
O344 O 0.13575 0.75456 0.65937 0.0
O345 O 0.15479 0.73722 0.73703 0.0
C346 C 0.09147 0.76812 0.76732 0.0
O347 O 0.08468 0.77426 0.73845 0.0
C348 C 0.0919 0.71503 0.71337 0.0
O349 O 0.08528 0.71704 0.74353 0.0
O350 O 0.12643 0.77607 0.70085 0.0
C351 C 0.95291 0.43409 0.48251 0.0
O352 O 0.96555 0.42395 0.50364 0.0
O353 O 0.98156 0.38756 0.44657 0.0
Zn354 Zn 0.94966 0.39075 0.45857 0.0
O355 O 0.94225 0.37539 0.50035 0.0
C356 C 0.93797 0.37935 0.39348 0.0
O357 O 0.95523 0.39157 0.38668 0.0
O358 O 0.94313 0.42286 0.46095 0.0
C359 C 0.94964 0.35625 0.50655 0.0
O360 O 0.9629 0.34662 0.48575 0.0
C361 C -0.00178 0.38463 0.46473 0.0
O362 O -0.00435 0.38291 0.49623 0.0
O363 O 0.93205 0.37711 0.42284 0.0
C364 C 0.31433 0.79347 0.27287 0.0
O365 O 0.32954 0.79035 0.25069 0.0
O366 O 0.36292 0.7779 0.33058 0.0
Zn367 Zn 0.35221 0.80549 0.30883 0.0
O368 O 0.36867 0.81115 0.26722 0.0
C369 C 0.35863 0.82874 0.36905 0.0
O370 O 0.35145 0.81028 0.38188 0.0
O371 O 0.3199 0.80139 0.30017 0.0
C372 C 0.38618 0.80123 0.25864 0.0
O373 O 0.39466 0.786 0.27751 0.0
C374 C 0.36126 0.75882 0.31819 0.0
O375 O 0.35299 0.75661 0.28895 0.0
O376 O 0.35868 0.83081 0.33841 0.0
C377 C 0.98724 0.54917 0.99404 0.0
O378 O 0.00111 0.55764 0.97301 0.0
O379 O 0.01559 0.59893 0.02368 0.0
Zn380 Zn 0.98332 0.59402 0.01556 0.0
O381 O 0.9725 0.60936 0.97545 0.0
C382 C 0.97483 0.60434 0.08213 0.0
O383 O -0.00639 0.59392 0.08626 0.0
O384 O 0.97742 0.56177 0.01385 0.0
C385 C 0.97763 0.62932 0.97012 0.0
O386 O 0.99077 0.63955 0.99045 0.0
C387 C 0.03077 0.60432 0.00403 0.0
O388 O 0.0262 0.60718 0.9732 0.0
O389 O 0.96697 0.60632 0.05371 0.0
C390 C 0.16352 0.21397 0.7701 0.0
O391 O 0.14725 0.21966 0.7508 0.0
O392 O 0.11561 0.22293 0.83442 0.0
Zn393 Zn 0.12803 0.19784 0.80876 0.0
O394 O 0.10919 0.19148 0.7697 0.0
C395 C 0.12765 0.17232 0.86761 0.0
O396 O 0.13419 0.19089 0.8808 0.0
O397 O 0.15925 0.20403 0.79642 0.0
C398 C 0.09631 0.205 0.75571 0.0
O399 O 0.09519 0.22543 0.76596 0.0
C400 C 0.11808 0.24339 0.82919 0.0
O401 O 0.12957 0.25006 0.80407 0.0
O402 O 0.12583 0.17118 0.83698 0.0
C403 C 0.48839 0.41576 0.45577 0.0
O404 O 0.4718 0.40373 0.44554 0.0
O405 O 0.47373 0.36478 0.48786 0.0
Zn406 Zn 0.50483 0.37412 0.47849 0.0
O407 O 0.51851 0.35664 0.44239 0.0
C408 C 0.51299 0.37596 0.54599 0.0
O409 O 0.49355 0.38549 0.54491 0.0
O410 O 0.5048 0.4064 0.46905 0.0
C411 C 0.51677 0.33579 0.44143 0.0
O412 O 0.50564 0.32558 0.46422 0.0
C413 C 0.45983 0.35473 0.47023 0.0
O414 O 0.4652 0.34867 0.44071 0.0
O415 O 0.52189 0.36957 0.51972 0.0
H416 H 0.03742 0.12269 0.38723 0.0
H417 H 0.12186 0.22289 0.37737 0.0
H418 H 0.06873 0.15275 0.47014 0.0
H419 H 0.08971 0.19498 0.29355 0.0
H420 H 0.10696 0.19329 0.4105 0.0
H421 H 0.06067 0.14494 0.3516 0.0
C422 C 0.04938 0.13374 0.39795 0.0
C423 C 0.05091 0.13613 0.4317 0.0
C424 C 0.10331 0.19347 0.38481 0.0
C425 C 0.07745 0.16163 0.39113 0.0
C426 C 0.11181 0.2104 0.36586 0.0
C427 C 0.10672 0.21159 0.33275 0.0
C428 C 0.08942 0.17768 0.37066 0.0
C429 C 0.09389 0.19478 0.31906 0.0
C430 C 0.06262 0.14646 0.37759 0.0
C431 C 0.06677 0.15058 0.44426 0.0
N432 N 0.08541 0.17865 0.33819 0.0
N433 N 0.07926 0.16294 0.42396 0.0
H434 H 0.05339 0.83268 0.52676 0.0
H435 H 0.12206 0.81713 0.68595 0.0
H436 H 0.06224 0.88457 0.59698 0.0
H437 H 0.12599 0.77235 0.60494 0.0
H438 H 0.10488 0.84446 0.65067 0.0
H439 H 0.08417 0.81276 0.55108 0.0
C440 C 0.06206 0.84005 0.54698 0.0
C441 C 0.05499 0.86009 0.5603 0.0
C442 C 0.10991 0.82883 0.64041 0.0
C443 C 0.09002 0.83725 0.58857 0.0
C444 C 0.11971 0.8132 0.66058 0.0
C445 C 0.12502 0.79226 0.64852 0.0
C446 C 0.10506 0.82332 0.60813 0.0
C447 C 0.12188 0.78818 0.61537 0.0
C448 C 0.07969 0.8287 0.56083 0.0
C449 C 0.067 0.86904 0.58618 0.0
N450 N 0.11166 0.8034 0.59648 0.0
N451 N 0.08366 0.85733 0.59993 0.0
H452 H 0.38918 0.82133 0.95299 0.0
H453 H 0.36623 0.75481 0.78928 0.0
H454 H 0.41643 0.84024 0.86041 0.0
H455 H 0.35637 0.72871 0.8855 0.0
H456 H 0.37731 0.79007 0.81325 0.0
H457 H 0.36916 0.7916 0.92641 0.0
C458 C 0.39071 0.81945 0.92699 0.0
C459 C 0.40482 0.83307 0.90898 0.0
C460 C 0.37251 0.77666 0.82902 0.0
C461 C 0.38202 0.79894 0.87847 0.0
C462 C 0.36615 0.75658 0.81539 0.0
C463 C 0.36064 0.73876 0.83547 0.0
C464 C 0.37307 0.77892 0.86288 0.0
C465 C 0.36078 0.74193 0.86913 0.0
C466 C 0.37933 0.80241 0.91186 0.0
C467 C 0.40595 0.82996 0.87529 0.0
N468 N 0.36698 0.76158 0.88177 0.0
N469 N 0.3949 0.81304 0.86114 0.0
H470 H 0.37117 0.19498 0.11428 0.0
H471 H 0.45908 0.10356 0.06602 0.0
H472 H 0.39627 0.14605 0.18071 0.0
H473 H 0.43373 0.15213 -0.00078 0.0
H474 H 0.43181 0.11517 0.10583 0.0
H475 H 0.38923 0.17576 0.06974 0.0
C476 C 0.38023 0.18001 0.11946 0.0
C477 C 0.38254 0.17232 0.15137 0.0
C478 C 0.43201 0.12313 0.08236 0.0
C479 C 0.40344 0.15035 0.10046 0.0
C480 C 0.44762 0.11654 0.05958 0.0
C481 C 0.44892 0.12716 0.02942 0.0
C482 C 0.41769 0.14061 0.07506 0.0
C483 C 0.43346 0.14365 0.02229 0.0
C484 C 0.39056 0.16905 0.09397 0.0
C485 C 0.39424 0.1527 0.15655 0.0
N486 N 0.41866 0.15008 0.04514 0.0
N487 N 0.40453 0.14256 0.1314 0.0
H488 H 0.08429 0.77958 0.22177 0.0
H489 H 0.06304 0.83734 0.05051 0.0
H490 H 0.116 0.76025 0.13253 0.0
H491 H 0.02123 0.84671 0.13407 0.0
H492 H 0.0879 0.81507 0.08356 0.0
H493 H 0.06613 0.80976 0.19288 0.0
C494 C 0.0876 0.7818 0.19619 0.0
C495 C 0.10144 0.76721 0.17942 0.0
C496 C 0.07341 0.82222 0.09475 0.0
C497 C 0.08084 0.8017 0.14636 0.0
C498 C 0.05925 0.83503 0.07594 0.0
C499 C 0.03983 0.84361 0.08943 0.0
C500 C 0.06814 0.81799 0.12727 0.0
C501 C 0.03588 0.84018 0.12256 0.0
C502 C 0.07722 0.79901 0.17973 0.0
C503 C 0.10523 0.77094 0.14633 0.0
N504 N 0.04979 0.82742 0.14029 0.0
N505 N 0.09488 0.78774 0.13084 0.0
H506 H 0.36908 0.82596 0.43369 0.0
H507 H 0.47205 0.90247 0.4078 0.0
H508 H 0.37803 0.86707 0.34934 0.0
H509 H 0.45561 0.87525 0.50129 0.0
H510 H 0.43545 0.89272 0.38821 0.0
H511 H 0.39768 0.847 0.46166 0.0
C512 C 0.37668 0.83972 0.42129 0.0
C513 C 0.37153 0.84441 0.38883 0.0
C514 C 0.43965 0.88914 0.41317 0.0
C515 C 0.40443 0.86831 0.42052 0.0
C516 C 0.46061 0.89461 0.4243 0.0
C517 C 0.46693 0.88936 0.45605 0.0
C518 C 0.42503 0.87789 0.4337 0.0
C519 C 0.45139 0.87945 0.47656 0.0
C520 C 0.39305 0.8517 0.43727 0.0
C521 C 0.38177 0.86256 0.37412 0.0
N522 N 0.43125 0.87365 0.46484 0.0
N523 N 0.39802 0.87356 0.38985 0.0
H524 H 0.40956 0.19602 0.70718 0.0
H525 H 0.44031 0.15065 0.53164 0.0
H526 H 0.37164 0.20793 0.62037 0.0
H527 H 0.48362 0.14546 0.61436 0.0
H528 H 0.41123 0.16428 0.56701 0.0
H529 H 0.43289 0.17035 0.67673 0.0
C530 C 0.40587 0.1929 0.68191 0.0
C531 C 0.3889 0.20437 0.66609 0.0
C532 C 0.42701 0.15995 0.57755 0.0
C533 C 0.41545 0.17522 0.63125 0.0
C534 C 0.44364 0.15217 0.55733 0.0
C535 C 0.46456 0.14734 0.56998 0.0
C536 C 0.43134 0.16313 0.61064 0.0
C537 C 0.4678 0.14925 0.60355 0.0
C538 C 0.41924 0.17834 0.66453 0.0
C539 C 0.3848 0.1997 0.63337 0.0
N540 N 0.45145 0.15734 0.62269 0.0
N541 N 0.39812 0.18567 0.61697 0.0
H542 H 0.11775 0.17393 0.93249 0.0
H543 H 0.01739 0.09624 0.90212 0.0
H544 H 0.11171 0.13244 0.84802 0.0
H545 H 0.03241 0.12151 -0.00272 0.0
H546 H 0.0544 0.10595 0.88439 0.0
H547 H 0.09019 0.15133 0.95998 0.0
C548 C 0.1111 0.15972 0.92002 0.0
C549 C 0.11653 0.15546 0.88755 0.0
C550 C 0.04981 0.10909 0.90932 0.0
C551 C 0.08481 0.12981 0.91865 0.0
C552 C 0.02861 0.10367 0.91937 0.0
C553 C 0.02179 0.10842 0.95102 0.0
C554 C 0.06415 0.11985 0.93085 0.0
C555 C 0.03705 0.11774 0.97257 0.0
C556 C 0.0953 0.14685 0.93572 0.0
C557 C 0.10759 0.13667 0.87277 0.0
N558 N 0.05743 0.1236 0.96189 0.0
N559 N 0.0918 0.12485 0.88817 0.0
H560 H 0.93348 0.84897 0.59541 0.0
H561 H 0.93473 0.79315 0.77002 0.0
H562 H 0.98899 0.85331 0.66062 0.0
H563 H 0.87883 0.79307 0.70521 0.0
H564 H 0.95326 0.81943 0.73411 0.0
H565 H 0.91176 0.83248 0.63863 0.0
C566 C 0.94107 0.84657 0.61892 0.0
C567 C 0.96317 0.85224 0.62429 0.0
C568 C 0.9368 0.8139 0.72806 0.0
C569 C 0.9384 0.83319 0.67399 0.0
C570 C 0.92618 0.79899 0.74862 0.0
C571 C 0.90538 0.79064 0.74028 0.0
C572 C 0.92648 0.82042 0.69907 0.0
C573 C 0.89504 0.79878 0.7123 0.0
C574 C 0.92863 0.8372 0.64368 0.0
C575 C 0.97204 0.84902 0.65538 0.0
N576 N 0.9058 0.81299 0.69254 0.0
N577 N 0.95971 0.83943 0.67899 0.0
H578 H 0.93443 0.17221 0.50376 0.0
H579 H 0.89986 0.16196 0.31773 0.0
H580 H 0.95826 0.12169 0.43898 0.0
H581 H 0.87212 0.21034 0.38263 0.0
H582 H 0.91864 0.14489 0.36357 0.0
H583 H 0.90864 0.1843 0.46162 0.0
C584 C 0.93405 0.16349 0.48088 0.0
C585 C 0.94873 0.14612 0.47473 0.0
C586 C 0.9083 0.15913 0.36789 0.0
C587 C 0.91944 0.15991 0.42646 0.0
C588 C 0.89758 0.1689 0.34168 0.0
C589 C 0.8846 0.18774 0.3463 0.0
C590 C 0.90619 0.16838 0.39895 0.0
C591 C 0.88209 0.19591 0.37793 0.0
C592 C 0.91936 0.17042 0.45681 0.0
C593 C 0.94746 0.13536 0.44468 0.0
N594 N 0.89299 0.18631 0.40302 0.0
N595 N 0.93326 0.14256 0.42161 0.0
H596 H 0.52781 0.09853 0.12001 0.0
H597 H 0.62094 0.18821 0.15076 0.0
H598 H 0.57238 0.12294 0.04683 0.0
H599 H 0.57453 0.16783 0.22408 0.0
H600 H 0.60808 0.15861 0.11589 0.0
H601 H 0.54927 0.11787 0.16134 0.0
C602 C 0.54234 0.10761 0.11268 0.0
C603 C 0.54809 0.10947 0.07983 0.0
C604 C 0.60084 0.16039 0.13972 0.0
C605 C 0.57259 0.13168 0.12694 0.0
C606 C 0.60817 0.17732 0.15967 0.0
C607 C 0.59848 0.18072 0.19012 0.0
C608 C 0.58346 0.14687 0.15005 0.0
C609 C 0.58229 0.16588 0.20063 0.0
C610 C 0.55454 0.11869 0.1363 0.0
C611 C 0.56714 0.12133 0.07179 0.0
N612 N 0.57499 0.14978 0.18037 0.0
N613 N 0.57853 0.1322 0.09513 0.0
H614 H 0.52788 0.82037 0.99158 0.0
H615 H 0.57891 0.8258 0.81291 0.0
H616 H 0.49697 0.85241 0.90987 0.0
H617 H 0.60342 0.78158 0.88661 0.0
H618 H 0.55234 0.8403 0.85162 0.0
H619 H 0.55886 0.80999 0.95643 0.0
C620 C 0.52764 0.82528 0.96635 0.0
C621 C 0.50974 0.8371 0.95357 0.0
C622 C 0.56361 0.82751 0.85942 0.0
C623 C 0.54505 0.82554 0.91352 0.0
C624 C 0.57886 0.81927 0.83734 0.0
C625 C 0.59325 0.80226 0.84642 0.0
C626 C 0.56268 0.81871 0.89086 0.0
C627 C 0.59251 0.79458 0.87852 0.0
C628 C 0.54529 0.81936 0.94634 0.0
C629 C 0.5103 0.8431 0.92074 0.0
N630 N 0.57732 0.80275 0.89957 0.0
N631 N 0.52762 0.83725 0.9019 0.0
H632 H 0.85361 0.18683 0.77036 0.0
H633 H 0.95694 0.11242 0.81813 0.0
H634 H 0.9157 0.18813 0.7193 0.0
H635 H 0.89923 0.12169 0.87778 0.0
H636 H 0.93868 0.13267 0.77437 0.0
H637 H 0.86658 0.15524 0.80146 0.0
C638 C 0.86983 0.18022 0.76525 0.0
C639 C 0.8838 0.19047 0.74272 0.0
C640 C 0.92992 0.12998 0.79688 0.0
C641 C 0.89883 0.15444 0.77857 0.0
C642 C 0.9403 0.1184 0.82186 0.0
C643 C 0.92973 0.11572 0.85185 0.0
C644 C 0.90879 0.13881 0.80195 0.0
C645 C 0.90814 0.12369 0.85525 0.0
C646 C 0.87725 0.16221 0.78311 0.0
C647 C 0.9045 0.18095 0.73676 0.0
N648 N 0.89848 0.13506 0.83073 0.0
N649 N 0.91157 0.16369 0.75503 0.0
H650 H 0.62428 0.19598 0.68279 0.0
H651 H 0.54438 0.19878 0.52852 0.0
H652 H 0.58276 0.25108 0.65701 0.0
H653 H 0.58033 0.14092 0.55886 0.0
H654 H 0.56315 0.22 0.57044 0.0
H655 H 0.61273 0.17725 0.63304 0.0
C656 C 0.61287 0.2042 0.66659 0.0
C657 C 0.60428 0.22501 0.67426 0.0
C658 C 0.56712 0.20271 0.56772 0.0
C659 C 0.59108 0.20375 0.61735 0.0
C660 C 0.55646 0.19059 0.54366 0.0
C661 C 0.56055 0.16796 0.54045 0.0
C662 C 0.58193 0.19212 0.58878 0.0
C663 C 0.57649 0.15828 0.56067 0.0
C664 C 0.60629 0.19351 0.6382 0.0
C665 C 0.58963 0.23494 0.65229 0.0
N666 N 0.58642 0.17036 0.58423 0.0
N667 N 0.58342 0.22417 0.62497 0.0
H668 H 0.62675 0.76965 0.32848 0.0
H669 H 0.53541 0.86378 0.3305 0.0
H670 H 0.5809 0.77954 0.24977 0.0
H671 H 0.58696 0.85704 0.40206 0.0
H672 H 0.55337 0.83527 0.29785 0.0
H673 H 0.61405 0.80373 0.35311 0.0
C674 C 0.61408 0.7791 0.31625 0.0
C675 C 0.60468 0.77163 0.28723 0.0
C676 C 0.56086 0.84025 0.32051 0.0
C677 C 0.58985 0.8107 0.3155 0.0
C678 C 0.55063 0.85652 0.33916 0.0
C679 C 0.55953 0.86258 0.36927 0.0
C680 C 0.58005 0.82996 0.33219 0.0
C681 C 0.57934 0.85271 0.37921 0.0
C682 C 0.60685 0.79863 0.3303 0.0
C683 C 0.58851 0.78469 0.27225 0.0
N684 N 0.58878 0.83676 0.36088 0.0
N685 N 0.58137 0.80349 0.2868 0.0
H686 H 0.89232 0.79808 0.18771 0.0
H687 H 0.93859 0.79386 0.00735 0.0
H688 H 0.88143 0.7432 0.1232 0.0
H689 H 0.94562 0.8495 0.07164 0.0
H690 H 0.91337 0.7769 0.04637 0.0
H691 H 0.90757 0.81901 0.14266 0.0
C692 C 0.89294 0.7905 0.16396 0.0
C693 C 0.88589 0.76876 0.15929 0.0
C694 C 0.92022 0.79295 0.05169 0.0
C695 C 0.90357 0.79256 0.10757 0.0
C696 C 0.93459 0.80264 0.02941 0.0
C697 C 0.9445 0.82294 0.03651 0.0
C698 C 0.91585 0.80364 0.08121 0.0
C699 C 0.93864 0.83366 0.06537 0.0
C700 C 0.90164 0.80247 0.1382 0.0
C701 C 0.88685 0.75987 0.12792 0.0
N702 N 0.92491 0.82378 0.08678 0.0
N703 N 0.89584 0.77171 0.1033 0.0
H704 H 0.59818 0.634 0.90111 0.0
H705 H 0.57065 0.7017 0.74012 0.0
H706 H 0.54101 0.6213 0.84164 0.0
H707 H 0.62539 0.71521 0.80398 0.0
H708 H 0.56254 0.66847 0.77175 0.0
H709 H 0.61145 0.65988 0.8605 0.0
C710 C 0.58851 0.6365 0.87934 0.0
C711 C 0.56829 0.62572 0.87499 0.0
C712 C 0.57648 0.6786 0.77855 0.0
C713 C 0.5833 0.65555 0.82842 0.0
C714 C 0.58113 0.69752 0.76047 0.0
C715 C 0.59849 0.71141 0.76975 0.0
C716 C 0.58934 0.6736 0.80594 0.0
C717 C 0.61161 0.70518 0.79625 0.0
C718 C 0.59609 0.65131 0.85612 0.0
C719 C 0.5566 0.62942 0.84611 0.0
N720 N 0.60664 0.68687 0.81353 0.0
N721 N 0.56413 0.64426 0.82407 0.0
H722 H 0.59049 0.30202 0.15052 0.0
H723 H 0.55292 0.3082 0.96466 0.0
H724 H 0.61299 0.25577 0.07825 0.0
H725 H 0.52417 0.34596 0.04259 0.0
H726 H 0.57916 0.29217 0.00356 0.0
H727 H 0.57054 0.322 0.10863 0.0
C728 C 0.59138 0.29614 0.12577 0.0
C729 C 0.6032 0.27703 0.11796 0.0
C730 C 0.56716 0.30408 0.01197 0.0
C731 C 0.5802 0.29979 0.06976 0.0
C732 C 0.55224 0.31323 0.98982 0.0
C733 C 0.5362 0.32823 0.00049 0.0
C734 C 0.56606 0.31018 0.0448 0.0
C735 C 0.53606 0.33424 0.03332 0.0
C736 C 0.57994 0.30755 0.10182 0.0
C737 C 0.60393 0.27034 0.08538 0.0
N738 N 0.55067 0.32516 0.05424 0.0
N739 N 0.59238 0.28161 0.06246 0.0
H740 H 0.86536 0.27595 0.30307 0.0
H741 H 0.95109 0.37358 0.33041 0.0
H742 H 0.91684 0.29167 0.23472 0.0
H743 H 0.90042 0.35487 0.39849 0.0
H744 H 0.93561 0.34766 0.2911 0.0
H745 H 0.87469 0.30869 0.33398 0.0
C746 C 0.87857 0.28641 0.29442 0.0
C747 C 0.89059 0.2809 0.26656 0.0
C748 C 0.92775 0.34944 0.3145 0.0
C749 C 0.90153 0.31844 0.30212 0.0
C750 C 0.93653 0.36426 0.33694 0.0
C751 C 0.92721 0.36614 0.36795 0.0
C752 C 0.90952 0.33649 0.3232 0.0
C753 C 0.90833 0.35375 0.37504 0.0
C754 C 0.88388 0.30515 0.3121 0.0
C755 C 0.90728 0.29526 0.25621 0.0
N756 N 0.90025 0.33932 0.35296 0.0
N757 N 0.91248 0.31326 0.27428 0.0
H758 H 0.87407 0.67688 0.67842 0.0
H759 H 0.93004 0.68868 0.50735 0.0
H760 H 0.87387 0.73828 0.6257 0.0
H761 H 0.90929 0.62608 0.54644 0.0
H762 H 0.90775 0.70734 0.54839 0.0
H763 H 0.88563 0.65786 0.62913 0.0
C764 C 0.87628 0.68632 0.65638 0.0
C765 C 0.87323 0.70921 0.65621 0.0
C766 C 0.90776 0.68952 0.54757 0.0
C767 C 0.88664 0.68762 0.59981 0.0
C768 C 0.92046 0.67885 0.52412 0.0
C769 C 0.92185 0.65579 0.52382 0.0
C770 C 0.89667 0.677 0.57109 0.0
C771 C 0.90896 0.6439 0.546 0.0
C772 C 0.88276 0.67546 0.6282 0.0
C773 C 0.87613 0.72062 0.62692 0.0
N774 N 0.89725 0.65464 0.56913 0.0
N775 N 0.88302 0.70975 0.59998 0.0
H776 H 0.55568 0.36362 0.55764 0.0
H777 H 0.53146 0.32173 0.73441 0.0
H778 H 0.49412 0.37724 0.60611 0.0
H779 H 0.59755 0.32991 0.69754 0.0
H780 H 0.51755 0.34393 0.68936 0.0
H781 H 0.57164 0.35248 0.60952 0.0
C782 C 0.54558 0.36444 0.57925 0.0
C783 C 0.52348 0.37114 0.57752 0.0
C784 C 0.53514 0.34122 0.6915 0.0
C785 C 0.54156 0.35827 0.63689 0.0
C786 C 0.54309 0.32857 0.71725 0.0
C787 C 0.56565 0.32364 0.71947 0.0
C788 C 0.54983 0.34865 0.66758 0.0
C789 C 0.57999 0.33308 0.69664 0.0
C790 C 0.55473 0.35819 0.60889 0.0
C791 C 0.5112 0.37207 0.60633 0.0
N792 N 0.57179 0.34475 0.67128 0.0
N793 N 0.52031 0.36537 0.63477 0.0
H794 H 0.90871 0.35751 0.96398 0.0
H795 H 0.89534 0.26334 0.83064 0.0
H796 H 0.94556 0.29663 0.9644 0.0
H797 H 0.85437 0.32148 0.83362 0.0
H798 H 0.91232 0.27446 0.88156 0.0
H799 H 0.88658 0.34353 0.91898 0.0
C800 C 0.91195 0.34108 0.95495 0.0
C801 C 0.92921 0.32833 0.96777 0.0
C802 C 0.89954 0.28476 0.87121 0.0
C803 C 0.9041 0.31235 0.91599 0.0
C804 C 0.88988 0.27846 0.84201 0.0
C805 C 0.8735 0.29159 0.82767 0.0
C806 C 0.89293 0.30444 0.8862 0.0
C807 C 0.86701 0.31092 0.84372 0.0
C808 C 0.89935 0.33314 0.92916 0.0
C809 C 0.93256 0.30713 0.95516 0.0
N810 N 0.87684 0.31683 0.87203 0.0
N811 N 0.9203 0.29992 0.92975 0.0
H812 H 0.99062 0.61042 0.14371 0.0
H813 H 0.8853 0.68002 0.19913 0.0
H814 H 0.93347 0.62219 0.08371 0.0
H815 H 0.94743 0.68117 0.25031 0.0
H816 H 0.90033 0.65258 0.16221 0.0
H817 H 0.9727 0.63048 0.18792 0.0
C818 C 0.97423 0.61703 0.13992 0.0
C819 C 0.9636 0.61484 0.10987 0.0
C820 C 0.91062 0.65867 0.1817 0.0
C821 C 0.94304 0.63766 0.16031 0.0
C822 C 0.90203 0.6743 0.20291 0.0
C823 C 0.91524 0.68317 0.22759 0.0
C824 C 0.93259 0.65181 0.18515 0.0
C825 C 0.93672 0.67494 0.23143 0.0
C826 C 0.96405 0.62849 0.16515 0.0
C827 C 0.94237 0.62369 0.10635 0.0
N828 N 0.94483 0.65986 0.21018 0.0
N829 N 0.93283 0.63478 0.13122 0.0
H830 H 0.61173 0.70127 0.41219 0.0
H831 H 0.50691 0.62366 0.43251 0.0
H832 H 0.58816 0.65648 0.3387 0.0
H833 H 0.53345 0.66213 0.51136 0.0
H834 H 0.53822 0.63406 0.39925 0.0
H835 H 0.58517 0.68558 0.45037 0.0
C836 C 0.60117 0.68796 0.40418 0.0
C837 C 0.60198 0.68035 0.37208 0.0
C838 C 0.53736 0.64016 0.42388 0.0
C839 C 0.57153 0.66247 0.41552 0.0
C840 C 0.51939 0.63429 0.44289 0.0
C841 C 0.51744 0.64225 0.47467 0.0
C842 C 0.55348 0.65432 0.4365 0.0
C843 C 0.53428 0.65571 0.48692 0.0
C844 C 0.58601 0.67904 0.42599 0.0
C845 C 0.58798 0.66303 0.36309 0.0
N846 N 0.55153 0.66154 0.46766 0.0
N847 N 0.57322 0.65484 0.3846 0.0
H848 H 0.46217 0.36787 0.09912 0.0
H849 H 0.36601 0.28343 0.1417 0.0
H850 H 0.41626 0.34139 0.02931 0.0
H851 H 0.41536 0.30433 0.21053 0.0
H852 H 0.37986 0.31042 0.10314 0.0
H853 H 0.44098 0.35059 0.14256 0.0
C854 C 0.44745 0.35871 0.09294 0.0
C855 C 0.44118 0.35575 0.06047 0.0
C856 C 0.38753 0.30931 0.12679 0.0
C857 C 0.41694 0.33589 0.11006 0.0
C858 C 0.37964 0.29388 0.14885 0.0
C859 C 0.38982 0.29135 0.17918 0.0
C860 C 0.40588 0.32222 0.13494 0.0
C861 C 0.40717 0.30558 0.18729 0.0
C862 C 0.43539 0.34881 0.11777 0.0
C863 C 0.42188 0.34385 0.05394 0.0
N864 N 0.41488 0.32022 0.16509 0.0
N865 N 0.41059 0.33416 0.07849 0.0
H866 H 0.48515 0.59125 0.92849 0.0
H867 H 0.37853 0.664 0.94953 0.0
H868 H 0.47144 0.62652 0.01699 0.0
H869 H 0.38624 0.61508 0.87445 0.0
H870 H 0.41024 0.64818 0.97788 0.0
H871 H 0.44742 0.59773 0.9108 0.0
C872 C 0.47411 0.60027 0.9443 0.0
C873 C 0.48147 0.60863 0.97404 0.0
C874 C 0.4047 0.64066 0.95553 0.0
C875 C 0.43821 0.61628 0.95384 0.0
C876 C 0.38656 0.64965 0.93935 0.0
C877 C 0.38004 0.64116 0.90919 0.0
C878 C 0.41642 0.62322 0.94125 0.0
C879 C 0.39095 0.62244 0.89732 0.0
C880 C 0.4525 0.60386 0.93428 0.0
C881 C 0.4664 0.61992 0.99378 0.0
N882 N 0.40883 0.61436 0.91308 0.0
N883 N 0.44553 0.62375 0.98308 0.0
H884 H 0.10339 0.70523 0.65119 0.0
H885 H 0.99108 0.64213 0.61095 0.0
H886 H 0.05307 0.69263 0.72281 0.0
H887 H 0.03986 0.66043 0.5397 0.0
H888 H 0.01514 0.65657 0.65359 0.0
H889 H 0.08201 0.6847 0.61158 0.0
C890 C 0.08788 0.69802 0.65868 0.0
C891 C 0.07989 0.70085 0.6903 0.0
C892 C 0.02061 0.65727 0.62864 0.0
C893 C 0.05519 0.67736 0.64484 0.0
C894 C 0.00691 0.64901 0.60429 0.0
C895 C 0.01339 0.65026 0.57169 0.0
C896 C 0.04093 0.66676 0.62026 0.0
C897 C 0.03408 0.6593 0.56447 0.0
C898 C 0.07565 0.68629 0.63599 0.0
C899 C 0.05979 0.69094 0.69864 0.0
N900 N 0.04704 0.66728 0.58853 0.0
N901 N 0.048 0.67977 0.67593 0.0
H902 H 0.01161 0.39846 0.40527 0.0
H903 H 0.11003 0.31397 0.39889 0.0
H904 H 0.03406 0.3627 0.48944 0.0
H905 H 0.09551 0.36 0.32202 0.0
H906 H 0.08582 0.33477 0.4349 0.0
H907 H 0.04517 0.38795 0.37684 0.0
C908 C 0.02378 0.38859 0.4179 0.0
C909 C 0.01993 0.38113 0.44956 0.0
C910 C 0.08824 0.34056 0.41034 0.0
C911 C 0.05831 0.36877 0.417 0.0
C912 C 0.10206 0.32868 0.38973 0.0
C913 C 0.10443 0.33501 0.35719 0.0
C914 C 0.07652 0.35872 0.39818 0.0
C915 C 0.09394 0.35435 0.34679 0.0
C916 C 0.04299 0.38265 0.40169 0.0
C917 C 0.03635 0.36866 0.46495 0.0
N918 N 0.08012 0.36529 0.36705 0.0
N919 N 0.05469 0.3625 0.44828 0.0
H920 H 0.41937 0.63509 0.37633 0.0
H921 H 0.3709 0.7566 0.38263 0.0
H922 H 0.40405 0.66921 0.46533 0.0
H923 H 0.36839 0.71685 0.29599 0.0
H924 H 0.38387 0.72466 0.41292 0.0
H925 H 0.40099 0.66448 0.34594 0.0
C926 C 0.41194 0.6486 0.38951 0.0
C927 C 0.41344 0.6498 0.42341 0.0
C928 C 0.38036 0.72285 0.38732 0.0
C929 C 0.39267 0.68351 0.38882 0.0
C930 C 0.37307 0.74112 0.36997 0.0
C931 C 0.36867 0.73939 0.3367 0.0
C932 C 0.38357 0.70273 0.37127 0.0
C933 C 0.37161 0.71889 0.32161 0.0
C934 C 0.40146 0.66536 0.37214 0.0
C935 C 0.40343 0.66765 0.43922 0.0
N936 N 0.37907 0.70136 0.33897 0.0
N937 N 0.3937 0.68391 0.42177 0.0
H938 H 0.06182 0.63191 0.97769 0.0
H939 H 0.12289 0.6418 0.14782 0.0
H940 H 0.0489 0.59097 0.06102 0.0
H941 H 0.12902 0.68974 0.07108 0.0
H942 H 0.10378 0.61727 0.11049 0.0
H943 H 0.09391 0.64734 0.00583 0.0
C944 C 0.06603 0.6258 0.00157 0.0
C945 C 0.05248 0.61048 0.01735 0.0
C946 C 0.1096 0.63301 0.10163 0.0
C947 C 0.08895 0.62802 0.04957 0.0
C948 C 0.12055 0.64703 0.12295 0.0
C949 C 0.12709 0.66807 0.11276 0.0
C950 C 0.10495 0.64015 0.06997 0.0
C951 C 0.12395 0.67379 0.0801 0.0
C952 C 0.08427 0.63467 0.01766 0.0
C953 C 0.05869 0.60308 0.04823 0.0
N954 N 0.11272 0.66007 0.05999 0.0
N955 N 0.0763 0.61211 0.06347 0.0
H956 H 0.10891 0.28704 0.81786 0.0
H957 H 0.04511 0.30068 0.98627 0.0
H958 H 0.1023 0.23585 0.88981 0.0
H959 H 0.03685 0.34589 0.90634 0.0
H960 H 0.07188 0.28011 0.95444 0.0
H961 H 0.08798 0.31197 0.85321 0.0
C962 C 0.10326 0.28113 0.84118 0.0
C963 C 0.10712 0.25931 0.85082 0.0
C964 C 0.06431 0.2946 0.94389 0.0
C965 C 0.08342 0.2876 0.89119 0.0
C966 C 0.04903 0.30639 0.96208 0.0
C967 C 0.0385 0.32487 0.94878 0.0
C968 C 0.06916 0.3013 0.91214 0.0
C969 C 0.04443 0.3316 0.91742 0.0
C970 C 0.09128 0.29531 0.86125 0.0
C971 C 0.09946 0.25247 0.88125 0.0
N972 N 0.05928 0.3197 0.90001 0.0
N973 N 0.08794 0.26654 0.90029 0.0
H974 H 0.43902 0.37378 0.52127 0.0
H975 H 0.36168 0.2704 0.54985 0.0
H976 H 0.43263 0.32066 0.4525 0.0
H977 H 0.36874 0.32459 0.61673 0.0
H978 H 0.38161 0.29167 0.50896 0.0
H979 H 0.40758 0.35938 0.55108 0.0
C980 C 0.43078 0.35919 0.51223 0.0
C981 C 0.43865 0.34814 0.48474 0.0
C982 C 0.37845 0.29904 0.5324 0.0
C983 C 0.4028 0.33132 0.51907 0.0
C984 C 0.36702 0.28693 0.55575 0.0
C985 C 0.36396 0.29556 0.58698 0.0
C986 C 0.38686 0.31987 0.54044 0.0
C987 C 0.37109 0.31711 0.59317 0.0
C988 C 0.4128 0.35097 0.52925 0.0
C989 C 0.42716 0.32955 0.47377 0.0
N990 N 0.38247 0.32839 0.57027 0.0
N991 N 0.41002 0.32145 0.49135 0.0
H992 H 0.30689 0.27546 0.27866 0.0
H993 H 0.18478 0.2373 0.23153 0.0
H994 H 0.29253 0.22012 0.21646 0.0
H995 H 0.19871 0.2884 0.30134 0.0
H996 H 0.2243 0.23195 0.22387 0.0
H997 H 0.26735 0.28123 0.28619 0.0
C998 C 0.29543 0.26446 0.26671 0.0
C999 C 0.30302 0.2473 0.24687 0.0
C1000 C 0.21872 0.24436 0.24083 0.0
C1001 C 0.25779 0.25391 0.25518 0.0
C1002 C 0.19614 0.24749 0.24512 0.0
C1003 C 0.18843 0.26329 0.26717 0.0
C1004 C 0.23371 0.25716 0.25865 0.0
C1005 C 0.20393 0.276 0.28413 0.0
C1006 C 0.27286 0.26779 0.27097 0.0
C1007 C 0.28743 0.23356 0.23198 0.0
N1008 N 0.22584 0.27263 0.27955 0.0
N1009 N 0.26555 0.23722 0.23636 0.0
H1010 H 0.96634 0.93641 0.53407 0.0
H1011 H 0.02803 0.0495 0.49589 0.0
H1012 H 0.0261 0.94053 0.47756 0.0
H1013 H 0.96339 0.04591 0.53939 0.0
H1014 H 0.02819 0.00951 0.4905 0.0
H1015 H 0.96534 0.97647 0.53719 0.0
C1016 C 0.97921 0.94575 0.52217 0.0
C1017 C -0.00361 0.93512 0.50562 0.0
C1018 C 0.01396 0.01747 0.50119 0.0
C1019 C -0.0046 0.981 0.5093 0.0
C1020 C 0.01389 0.0403 0.50441 0.0
C1021 C -0.00434 0.05105 0.51817 0.0
C1022 C -0.00426 0.00528 0.51196 0.0
C1023 C 0.97778 0.03829 0.52866 0.0
C1024 C 0.97861 0.96864 0.52397 0.0
C1025 C 0.01256 0.94806 0.49057 0.0
N1026 N 0.97829 0.01605 0.52539 0.0
N1027 N 0.01174 0.97035 0.49293 0.0
H1028 H 0.27794 0.66406 0.83157 0.0
H1029 H 0.19328 0.72741 0.71785 0.0
H1030 H 0.29219 0.68315 0.73295 0.0
H1031 H 0.17287 0.69434 0.80548 0.0
H1032 H 0.22985 0.71143 0.72385 0.0
H1033 H 0.23936 0.67443 0.82306 0.0
C1034 C 0.27292 0.67016 0.80803 0.0
C1035 C 0.28835 0.67298 0.78304 0.0
C1036 C 0.21737 0.70754 0.74171 0.0
C1037 C 0.24443 0.68506 0.77333 0.0
C1038 C 0.1965 0.71678 0.73841 0.0
C1039 C 0.18005 0.71229 0.76133 0.0
C1040 C 0.22196 0.6939 0.76833 0.0
C1041 C 0.18512 0.69825 0.78731 0.0
C1042 C 0.25091 0.67608 0.80321 0.0
C1043 C 0.28092 0.68086 0.753 0.0
N1044 N 0.20573 0.68966 0.79027 0.0
N1045 N 0.25954 0.68685 0.74912 0.0
H1046 H 0.52344 0.03321 0.97533 0.0
H1047 H 0.43639 0.93532 0.95505 0.0
H1048 H 0.45603 0.04345 0.94506 0.0
H1049 H 0.502 0.92743 0.9941 0.0
H1050 H 0.44419 0.97436 0.94563 0.0
H1051 H 0.51698 -0.00636 0.97564 0.0
C1052 C 0.50732 0.02713 0.96841 0.0
C1053 C 0.49016 0.04167 0.96052 0.0
C1054 C 0.45687 0.96403 0.95616 0.0
C1055 C 0.48259 -0.00366 0.96115 0.0
C1056 C 0.45242 0.94178 0.96161 0.0
C1057 C 0.46851 0.92815 0.97562 0.0
C1058 C 0.47757 0.97263 0.9647 0.0
C1059 C 0.48904 0.93735 0.98348 0.0
C1060 C 0.50362 0.00451 0.96869 0.0
C1061 C 0.46968 0.03283 0.95152 0.0
N1062 N 0.49294 0.959 0.97798 0.0
N1063 N 0.46639 0.01071 0.95237 0.0
H1064 H 0.20412 0.71868 0.20132 0.0
H1065 H 0.27905 0.795 0.31445 0.0
H1066 H 0.18029 0.7487 0.28948 0.0
H1067 H 0.29852 0.77202 0.21965 0.0
H1068 H 0.24314 0.7774 0.30696 0.0
H1069 H 0.23963 0.73654 0.20958 0.0
C1070 C 0.2064 0.7289 0.22256 0.0
C1071 C 0.18918 0.73226 0.24469 0.0
C1072 C 0.25525 0.77633 0.28776 0.0
C1073 C 0.22979 0.75293 0.25416 0.0
C1074 C 0.27571 0.78643 0.29196 0.0
C1075 C 0.29183 0.78493 0.26766 0.0
C1076 C 0.25095 0.76457 0.25915 0.0
C1077 C 0.28662 0.77359 0.23906 0.0
C1078 C 0.22666 0.73921 0.22717 0.0
C1079 C 0.1931 0.74569 0.27177 0.0
N1080 N 0.26669 0.76375 0.23568 0.0
N1081 N 0.213 0.75559 0.27571 0.0
H1082 H 0.55412 0.96515 0.42736 0.0
H1083 H 0.52135 0.07689 0.51693 0.0
H1084 H 0.53333 0.9691 0.52727 0.0
H1085 H 0.54275 0.07437 0.41721 0.0
H1086 H 0.52879 0.03772 0.52208 0.0
H1087 H 0.55342 0.00533 0.42425 0.0
C1088 C 0.54962 0.97446 0.44875 0.0
C1089 C 0.54354 0.96375 0.47755 0.0
C1090 C 0.53198 0.04569 0.49909 0.0
C1091 C 0.54261 0.00967 0.47406 0.0
C1092 C 0.52767 0.0681 0.49608 0.0
C1093 C 0.53121 0.07888 0.46646 0.0
C1094 C 0.53977 0.03386 0.47224 0.0
C1095 C 0.53967 0.06667 0.44043 0.0
C1096 C 0.5492 -0.0026 0.44692 0.0
C1097 C 0.53796 0.97664 0.5045 0.0
N1098 N 0.54351 0.04472 0.44385 0.0
N1099 N 0.53746 -0.00109 0.50201 0.0
H1100 H 0.17847 0.2357 0.71635 0.0
H1101 H 0.30471 0.23221 0.7726 0.0
H1102 H 0.20077 0.20555 0.80535 0.0
H1103 H 0.28263 0.26174 0.68303 0.0
H1104 H 0.26658 0.22289 0.78547 0.0
H1105 H 0.2165 0.24574 0.70393 0.0
C1106 C 0.19136 0.23116 0.73326 0.0
C1107 C 0.18645 0.21976 0.76192 0.0
C1108 C 0.27007 0.23144 0.76302 0.0
C1109 C 0.22997 0.23125 0.74792 0.0
C1110 C 0.29184 0.2368 0.75568 0.0
C1111 C 0.29685 0.24773 0.72667 0.0
C1112 C 0.2532 0.23706 0.74119 0.0
C1113 C 0.27951 0.25328 0.70566 0.0
C1114 C 0.21307 0.23692 0.72617 0.0
C1115 C 0.20381 0.21432 0.78296 0.0
N1116 N 0.25845 0.24784 0.71332 0.0
N1117 N 0.2248 0.22013 0.77553 0.0
H1118 H 0.95074 0.04084 0.04502 0.0
H1119 H 0.98881 0.92722 0.96634 0.0
H1120 H 0.95329 0.02919 0.94184 0.0
H1121 H 0.97019 0.9332 0.06696 0.0
H1122 H 0.97776 0.96538 0.95763 0.0
H1123 H 0.95897 0.0019 0.05429 0.0
C1124 C 0.95282 0.03007 0.02433 0.0
C1125 C 0.95145 0.03829 0.99261 0.0
C1126 C 0.97603 0.95833 0.9816 0.0
C1127 C 0.96112 -0.00609 0.00304 0.0
C1128 C 0.98246 0.93658 0.98663 0.0
C1129 C 0.98042 0.92704 0.01742 0.0
C1130 C 0.96768 0.97069 0.00759 0.0
C1131 C 0.972 0.93992 0.04281 0.0
C1132 C 0.95754 0.00787 0.02964 0.0
C1133 C 0.95425 0.02359 0.96671 0.0
N1134 N 0.966 0.96115 0.03736 0.0
N1135 N 0.95914 0.00216 0.97251 0.0
H1136 H 0.80227 0.78721 0.7898 0.0
H1137 H 0.69078 0.73508 0.72109 0.0
H1138 H 0.79709 0.72155 0.75035 0.0
H1139 H 0.69205 0.79511 0.77713 0.0
H1140 H 0.73037 0.73125 0.72899 0.0
H1141 H 0.76231 0.79149 0.78381 0.0
C1142 C 0.79274 0.77366 0.78011 0.0
C1143 C 0.80305 0.75403 0.77046 0.0
C1144 C 0.72202 0.74528 0.73959 0.0
C1145 C 0.7575 0.7589 0.76325 0.0
C1146 C 0.6994 0.74754 0.73495 0.0
C1147 C 0.68809 0.76544 0.7485 0.0
C1148 C 0.73349 0.76109 0.75779 0.0
C1149 C 0.70014 0.78104 0.76628 0.0
C1150 C 0.76996 0.77613 0.77666 0.0
C1151 C 0.78989 0.737 0.75807 0.0
N1152 N 0.72224 0.77851 0.77041 0.0
N1153 N 0.76784 0.73989 0.75465 0.0
H1154 H 0.691 0.26226 0.19939 0.0
H1155 H 0.79744 0.19962 0.26746 0.0
H1156 H 0.68789 0.20722 0.26554 0.0
H1157 H 0.80027 0.25409 0.20027 0.0
H1158 H 0.75729 0.2023 0.26746 0.0
H1159 H 0.73112 0.25991 0.20026 0.0
C1160 C 0.69875 0.24972 0.21421 0.0
C1161 C 0.68608 0.23487 0.23238 0.0
C1162 C 0.7667 0.21365 0.2527 0.0
C1163 C 0.73201 0.23204 0.23336 0.0
C1164 C 0.78962 0.21211 0.25263 0.0
C1165 C 0.80221 0.22666 0.23382 0.0
C1166 C 0.7563 0.22987 0.23383 0.0
C1167 C 0.79121 0.24253 0.21512 0.0
C1168 C 0.72168 0.24837 0.21464 0.0
C1169 C 0.69702 0.21898 0.25113 0.0
N1170 N 0.76887 0.24372 0.21563 0.0
N1171 N 0.71938 0.21796 0.25108 0.0
H1172 H 0.67191 0.26066 0.79415 0.0
H1173 H 0.79062 0.27786 0.71356 0.0
H1174 H 0.68231 0.29198 0.70146 0.0
H1175 H 0.78052 0.24429 0.80461 0.0
H1176 H 0.75108 0.28475 0.71015 0.0
H1177 H 0.71176 0.25622 0.79993 0.0
C1178 C 0.68257 0.26671 0.77509 0.0
C1179 C 0.67375 0.27664 0.74721 0.0
C1180 C 0.7575 0.27591 0.73092 0.0
C1181 C 0.71936 0.27153 0.75364 0.0
C1182 C 0.78009 0.27196 0.73289 0.0
C1183 C 0.7889 0.2604 0.75936 0.0
C1184 C 0.74354 0.26825 0.7556 0.0
C1185 C 0.77445 0.25321 0.78371 0.0
C1186 C 0.70532 0.26413 0.77839 0.0
C1187 C 0.68836 0.28417 0.72332 0.0
N1188 N 0.75246 0.25721 0.7812 0.0
N1189 N 0.71043 0.2814 0.72704 0.0
H1190 H 0.80823 0.75593 0.25569 0.0
H1191 H 0.70002 0.68801 0.30269 0.0
H1192 H 0.81046 0.6913 0.2993 0.0
H1193 H 0.69967 0.74808 0.24666 0.0
H1194 H 0.74028 0.68995 0.30553 0.0
H1195 H 0.76817 0.75451 0.2566 0.0
C1196 C 0.8003 0.74146 0.26562 0.0
C1197 C 0.81273 0.72364 0.2773 0.0
C1198 C 0.73136 0.70269 0.29263 0.0
C1199 C 0.76674 0.72189 0.27828 0.0
C1200 C 0.7084 0.7016 0.291 0.0
C1201 C 0.6965 0.71788 0.27433 0.0
C1202 C 0.74242 0.72024 0.27763 0.0
C1203 C 0.70817 0.73513 0.25967 0.0
C1204 C 0.77738 0.74064 0.26605 0.0
C1205 C 0.80151 0.70537 0.28996 0.0
N1206 N 0.73048 0.73585 0.26169 0.0
N1207 N 0.77911 0.70493 0.29003 0.0
H1208 H 0.4834 0.43113 -0.00135 0.0
H1209 H 0.56414 0.52766 0.94487 0.0
H1210 H 0.53504 0.42162 0.928 0.0
H1211 H 0.52375 0.52988 0.03097 0.0
H1212 H 0.55368 0.48911 0.93724 0.0
H1213 H 0.49714 0.46814 0.00882 0.0
C1214 C 0.49757 0.43687 0.98512 0.0
C1215 C 0.50807 0.42329 0.96237 0.0
C1216 C 0.54732 0.498 0.95797 0.0
C1217 C 0.52398 0.46565 0.97409 0.0
C1218 C 0.55331 0.51997 0.9624 0.0
C1219 C 0.54465 0.53205 0.98846 0.0
C1220 C 0.5324 0.48818 0.97957 0.0
C1221 C 0.53074 0.52125 0.01045 0.0
C1222 C 0.50552 0.45796 0.99113 0.0
C1223 C 0.52645 0.43157 0.94573 0.0
N1224 N 0.52486 0.5 0.0053 0.0
N1225 N 0.5338 0.45229 0.95184 0.0
H1226 H 0.93071 0.46027 0.43936 0.0
H1227 H 0.98641 0.57086 0.50471 0.0
H1228 H 0.97412 0.46318 0.52224 0.0
H1229 H 0.94277 0.56892 0.422 0.0
H1230 H 0.98093 0.53154 0.5124 0.0
H1231 H 0.93324 0.50025 0.43415 0.0
C1232 C 0.94061 0.46933 0.45665 0.0
C1233 C 0.95235 0.45836 0.48116 0.0
C1234 C 0.97252 0.53967 0.49257 0.0
C1235 C 0.95545 0.50405 0.47514 0.0
C1236 C 0.9757 0.56215 0.48807 0.0
C1237 C 0.96508 0.5732 0.46258 0.0
C1238 C 0.95865 0.52807 0.4714 0.0
C1239 C 0.95133 0.56105 0.44191 0.0
C1240 C 0.9421 0.49214 0.45359 0.0
C1241 C 0.96487 0.47093 0.5029 0.0
N1242 N 0.94853 0.53909 0.44675 0.0
N1243 N 0.96619 0.4931 0.49924 0.0
H1244 H 0.9599 0.41911 0.0674 0.0
H1245 H 0.00618 0.51688 0.95685 0.0
H1246 H -0.00102 0.4086 0.98133 0.0
H1247 H 0.962 0.52662 0.03763 0.0
H1248 H 0.00321 0.47708 0.96463 0.0
H1249 H 0.96018 0.45862 0.05643 0.0
C1250 C 0.96852 0.42511 0.04619 0.0
C1251 C 0.9795 0.41055 0.02533 0.0
C1252 C -0.00593 0.48794 0.98052 0.0
C1253 C 0.97989 0.45573 0.0126 0.0
C1254 C -0.00425 0.51066 0.97607 0.0
C1255 C 0.98443 0.5251 -0.00327 0.0
C1256 C 0.98106 0.47964 0.0059 0.0
C1257 C 0.9711 0.51612 0.02119 0.0
C1258 C 0.96863 0.44766 0.03988 0.0
C1259 C 0.99034 0.41923 -0.00188 0.0
N1260 N 0.9699 0.49398 0.02521 0.0
N1261 N 0.99033 0.44127 0.99261 0.0
H1262 H 0.51932 0.44528 0.47631 0.0
H1263 H 0.43839 0.54911 0.46472 0.0
H1264 H 0.45331 0.44143 0.43745 0.0
H1265 H 0.50208 0.54998 0.51154 0.0
H1266 H 0.44441 0.51045 0.45034 0.0
H1267 H 0.51446 0.48472 0.48404 0.0
C1268 C 0.50386 0.45276 0.46909 0.0
C1269 C 0.48661 0.43999 0.4565 0.0
C1270 C 0.45705 0.51914 0.46373 0.0
C1271 C 0.48085 0.48519 0.46562 0.0
C1272 C 0.45361 0.54117 0.47202 0.0
C1273 C 0.46972 0.55274 0.4895 0.0
C1274 C 0.47677 0.5087 0.47291 0.0
C1275 C 0.48916 0.54169 0.4982 0.0
C1276 C 0.50106 0.4753 0.47364 0.0
C1277 C 0.46701 0.45063 0.4474 0.0
N1278 N 0.49212 0.5203 0.48983 0.0
N1279 N 0.46458 0.47262 0.45238 0.0
H1280 H 0.01989 0.34308 0.11269 0.0
H1281 H 0.04594 0.25962 0.25649 0.0
H1282 H -0.00723 0.27736 0.11398 0.0
H1283 H 0.09199 0.30896 0.22372 0.0
H1284 H 0.02147 0.26918 0.21114 0.0
H1285 H 0.04113 0.33433 0.16126 0.0
C1286 C 0.01814 0.32689 0.12342 0.0
C1287 C 0.00464 0.31085 0.10908 0.0
C1288 C 0.03694 0.27786 0.21399 0.0
C1289 C 0.02894 0.30082 0.16471 0.0
C1290 C 0.05086 0.27248 0.23981 0.0
C1291 C 0.07104 0.28347 0.24371 0.0
C1292 C 0.04307 0.29466 0.19247 0.0
C1293 C 0.07666 0.29997 0.22143 0.0
C1294 C 0.0304 0.3219 0.15101 0.0
C1295 C 0.00309 0.29016 0.12412 0.0
N1296 N 0.06268 0.30517 0.19687 0.0
N1297 N 0.01515 0.2857 0.15118 0.0
H1298 H 0.89938 0.76711 0.3497 0.0
H1299 H 0.0051 0.83545 0.40759 0.0
H1300 H 0.95437 0.782 0.28703 0.0
H1301 H 0.94558 0.82867 0.46407 0.0
H1302 H 0.98804 0.81375 0.36439 0.0
H1303 H 0.91754 0.78715 0.39344 0.0
C1304 C 0.91533 0.77449 0.34517 0.0
C1305 C 0.92533 0.77295 0.31461 0.0
C1306 C 0.97873 0.81704 0.38625 0.0
C1307 C 0.94619 0.796 0.36458 0.0
C1308 C 0.98846 0.82942 0.41091 0.0
C1309 C 0.97674 0.83392 0.43947 0.0
C1310 C 0.95719 0.80901 0.39027 0.0
C1311 C 0.95522 0.82567 0.44245 0.0
C1312 C 0.92566 0.786 0.37014 0.0
C1313 C 0.94602 0.78285 0.31017 0.0
N1314 N 0.94617 0.8136 0.41819 0.0
N1315 N 0.95575 0.79399 0.33488 0.0
H1316 H 0.37932 0.63739 0.73681 0.0
H1317 H 0.45092 0.68277 0.59035 0.0
H1318 H 0.41844 0.69647 0.74508 0.0
H1319 H 0.43101 0.61476 0.59874 0.0
H1320 H 0.43777 0.68925 0.64568 0.0
H1321 H 0.39643 0.62992 0.68445 0.0
C1322 C 0.39156 0.64877 0.72763 0.0
C1323 C 0.39745 0.6676 0.74527 0.0
C1324 C 0.43649 0.67288 0.63544 0.0
C1325 C 0.41698 0.65922 0.68525 0.0
C1326 C 0.44394 0.66918 0.60388 0.0
C1327 C 0.44195 0.64823 0.58986 0.0
C1328 C 0.42671 0.65558 0.65283 0.0
C1329 C 0.43285 0.63119 0.60854 0.0
C1330 C 0.40139 0.64445 0.69781 0.0
C1331 C 0.41347 0.68173 0.73227 0.0
N1332 N 0.42536 0.63531 0.63893 0.0
N1333 N 0.42256 0.67736 0.70285 0.0
H1334 H 0.54144 0.21063 0.7797 0.0
H1335 H 0.53851 0.18635 0.97022 0.0
H1336 H 0.57786 0.24858 0.85013 0.0
H1337 H 0.51494 0.14075 0.89785 0.0
H1338 H 0.5485 0.21209 0.92715 0.0
H1339 H 0.52695 0.18779 0.82348 0.0
C1340 C 0.54625 0.21429 0.80439 0.0
C1341 C 0.56103 0.23145 0.81123 0.0
C1342 C 0.54106 0.19649 0.92072 0.0
C1343 C 0.54451 0.20531 0.86145 0.0
C1344 C 0.53531 0.18179 0.94529 0.0
C1345 C 0.52601 0.16129 0.93761 0.0
C1346 C 0.53737 0.19071 0.88823 0.0
C1347 C 0.52221 0.1563 0.90487 0.0
C1348 C 0.53803 0.20118 0.82936 0.0
C1349 C 0.56663 0.23544 0.84372 0.0
N1350 N 0.52795 0.1709 0.88138 0.0
N1351 N 0.55842 0.22241 0.86762 0.0
H1352 H 0.978 0.66226 0.34757 0.0
H1353 H 0.10256 0.68899 0.29608 0.0
H1354 H 0.03303 0.66356 0.414 0.0
H1355 H 0.04862 0.68649 0.22785 0.0
H1356 H 0.07687 0.6804 0.33972 0.0
H1357 H 0.00314 0.67209 0.3034 0.0
C1358 C -0.00469 0.66468 0.3529 0.0
C1359 C 0.00341 0.66202 0.38453 0.0
C1360 C 0.07062 0.68173 0.31521 0.0
C1361 C 0.03222 0.67319 0.33421 0.0
C1362 C 0.08531 0.68662 0.29026 0.0
C1363 C 0.07774 0.68843 0.25825 0.0
C1364 C 0.04816 0.67862 0.30817 0.0
C1365 C 0.05518 0.68522 0.25218 0.0
C1366 C 0.00966 0.67025 0.32768 0.0
C1367 C 0.02602 0.66536 0.39002 0.0
N1368 N 0.04118 0.68047 0.27691 0.0
N1369 N 0.03959 0.67072 0.36514 0.0
H1370 H 0.54754 0.78754 0.68216 0.0
H1371 H 0.57321 0.87455 0.54315 0.0
H1372 H 0.61251 0.81418 0.66551 0.0
H1373 H 0.51972 0.82802 0.53531 0.0
H1374 H 0.58553 0.85597 0.59251 0.0
H1375 H 0.53481 0.80533 0.63214 0.0
C1376 C 0.55912 0.79707 0.66795 0.0
C1377 C 0.58111 0.7994 0.67796 0.0
C1378 C 0.57111 0.84983 0.57994 0.0
C1379 C 0.56661 0.81995 0.62123 0.0
C1380 C 0.564 0.86048 0.5519 0.0
C1381 C 0.54544 0.85277 0.53509 0.0
C1382 C 0.55939 0.83155 0.59156 0.0
C1383 C 0.53417 0.83443 0.54746 0.0
C1384 C 0.55186 0.80715 0.63944 0.0
C1385 C 0.59544 0.81189 0.65863 0.0
N1386 N 0.54126 0.82448 0.5751 0.0
N1387 N 0.5879 0.82185 0.63133 0.0
H1388 H 0.43493 0.26438 0.74043 0.0
H1389 H 0.43823 0.35296 0.88246 0.0
H1390 H 0.37998 0.30693 0.76284 0.0
H1391 H 0.47563 0.29252 0.88712 0.0
H1392 H 0.42095 0.34007 0.83243 0.0
H1393 H 0.45419 0.27823 0.78859 0.0
C1394 C 0.42698 0.2767 0.75538 0.0
C1395 C 0.40582 0.2845 0.74775 0.0
C1396 C 0.43298 0.32968 0.8444 0.0
C1397 C 0.42778 0.30048 0.80235 0.0
C1398 C 0.44294 0.33705 0.87283 0.0
C1399 C 0.45832 0.32372 0.88903 0.0
C1400 C 0.4387 0.30901 0.83179 0.0
C1401 C 0.46374 0.30323 0.87549 0.0
C1402 C 0.43793 0.2845 0.78285 0.0
C1403 C 0.39622 0.3004 0.76797 0.0
N1404 N 0.45398 0.29649 0.84753 0.0
N1405 N 0.40733 0.30796 0.79428 0.0
H1406 H 0.87629 0.18304 0.1586 0.0
H1407 H 0.97193 0.17036 0.027 0.0
H1408 H 0.94254 0.20649 0.17514 0.0
H1409 H 0.91297 0.1306 0.02822 0.0
H1410 H 0.95986 0.18807 0.07736 0.0
H1411 H 0.88798 0.16813 0.10656 0.0
C1412 C 0.8933 0.18514 0.15124 0.0
C1413 C 0.90851 0.19593 0.17136 0.0
C1414 C 0.94959 0.1755 0.06649 0.0
C1415 C 0.92196 0.17892 0.11165 0.0
C1416 C 0.9564 0.16546 0.03773 0.0
C1417 C 0.94346 0.14894 0.02348 0.0
C1418 C 0.92959 0.16914 0.08078 0.0
C1419 C 0.92352 0.14318 0.03846 0.0
C1420 C 0.89997 0.17656 0.12155 0.0
C1421 C 0.93032 0.19816 0.16048 0.0
N1422 N 0.91719 0.15329 0.06625 0.0
N1423 N 0.93641 0.18973 0.13128 0.0
H1424 H -0.00774 0.66732 0.9418 0.0
H1425 H 0.88518 0.68458 0.83418 0.0
H1426 H 0.94062 0.61863 0.93586 0.0
H1427 H 0.94782 0.71285 0.80728 0.0
H1428 H 0.90363 0.66382 0.87722 0.0
H1429 H 0.97469 0.6877 0.8974 0.0
C1430 C 0.97727 0.66091 0.93111 0.0
C1431 C 0.96786 0.64127 0.94247 0.0
C1432 C 0.91331 0.67455 0.86183 0.0
C1433 C 0.94762 0.6646 0.89227 0.0
C1434 C 0.9028 0.68649 0.83743 0.0
C1435 C 0.91502 0.70042 0.81715 0.0
C1436 C 0.93612 0.67688 0.86637 0.0
C1437 C 0.93782 0.7022 0.82232 0.0
C1438 C 0.96732 0.67249 0.90578 0.0
C1439 C 0.94846 0.63365 0.92773 0.0
N1440 N 0.94765 0.69067 0.84662 0.0
N1441 N 0.93885 0.64545 0.90358 0.0
H1442 H 0.08842 0.16273 0.73666 0.0
H1443 H 0.02515 0.19544 0.57486 0.0
H1444 H 0.07269 0.23013 0.71262 0.0
H1445 H 0.02644 0.12945 0.61383 0.0
H1446 H 0.04235 0.20884 0.62475 0.0
H1447 H 0.06615 0.15043 0.69098 0.0
C1448 C 0.08027 0.17496 0.72175 0.0
C1449 C 0.08252 0.19751 0.72835 0.0
C1450 C 0.03863 0.19147 0.62248 0.0
C1451 C 0.05696 0.18351 0.6759 0.0
C1452 C 0.02881 0.1838 0.59403 0.0
C1453 C 0.02454 0.16125 0.59004 0.0
C1454 C 0.04442 0.17644 0.64691 0.0
C1455 C 0.02954 0.14695 0.61574 0.0
C1456 C 0.06744 0.16791 0.69576 0.0
C1457 C 0.07143 0.21259 0.70835 0.0
N1458 N 0.03944 0.15475 0.64291 0.0
N1459 N 0.05925 0.20533 0.68282 0.0
H1460 H 0.54992 0.34913 0.40131 0.0
H1461 H 0.54452 0.2459 0.28377 0.0
H1462 H 0.50726 0.29392 0.42123 0.0
H1463 H 0.60288 0.28589 0.2945 0.0
H1464 H 0.52805 0.26504 0.33023 0.0
H1465 H 0.56696 0.32814 0.35742 0.0
C1466 C 0.54411 0.3326 0.3964 0.0
C1467 C 0.52717 0.32322 0.41493 0.0
C1468 C 0.54452 0.26946 0.32246 0.0
C1469 C 0.54646 0.29923 0.36464 0.0
C1470 C 0.55389 0.25861 0.29596 0.0
C1471 C 0.57508 0.26434 0.28525 0.0
C1472 C 0.55627 0.28642 0.33782 0.0
C1473 C 0.58652 0.2809 0.30197 0.0
C1474 C 0.55391 0.3206 0.37149 0.0
C1475 C 0.52035 0.30171 0.4076 0.0
N1476 N 0.57688 0.29151 0.32721 0.0
N1477 N 0.52991 0.29046 0.38281 0.0
H1478 H 0.42767 0.86593 0.08279 0.0
H1479 H 0.41711 0.77744 0.22517 0.0
H1480 H 0.4455 0.79761 0.07029 0.0
H1481 H 0.37916 0.83756 0.22106 0.0
H1482 H 0.43328 0.78655 0.17239 0.0
H1483 H 0.41579 0.85774 0.13799 0.0
C1484 C 0.42928 0.84923 0.09174 0.0
C1485 C 0.43743 0.83237 0.0718 0.0
C1486 C 0.42146 0.79773 0.18317 0.0
C1487 C 0.42387 0.82294 0.13498 0.0
C1488 C 0.41228 0.7926 0.21327 0.0
C1489 C 0.39668 0.80671 0.22741 0.0
C1490 C 0.41522 0.81726 0.16742 0.0
C1491 C 0.391 0.82612 0.21093 0.0
C1492 C 0.4224 0.84457 0.1232 0.0
C1493 C 0.43916 0.81106 0.08475 0.0
N1494 N 0.40029 0.83084 0.18185 0.0
N1495 N 0.43238 0.80692 0.11556 0.0
H1496 H 0.96886 0.32045 0.53546 0.0
H1497 H 0.86967 0.29963 0.657 0.0
H1498 H 0.91384 0.36518 0.54445 0.0
H1499 H 0.93533 0.27594 0.67754 0.0
H1500 H 0.88416 0.32006 0.61066 0.0
H1501 H 0.95553 0.30038 0.5832 0.0
C1502 C 0.95402 0.32606 0.5475 0.0
C1503 C 0.94242 0.34449 0.53601 0.0
C1504 C 0.89539 0.31041 0.62536 0.0
C1505 C 0.92701 0.3215 0.59009 0.0
C1506 C 0.88713 0.29865 0.65168 0.0
C1507 C 0.90135 0.28609 0.67115 0.0
C1508 C 0.91795 0.30931 0.61808 0.0
C1509 C 0.92384 0.28551 0.66322 0.0
C1510 C 0.94649 0.31466 0.57474 0.0
C1511 C 0.92333 0.35111 0.55257 0.0
N1512 N 0.93146 0.29686 0.63709 0.0
N1513 N 0.91611 0.33949 0.57859 0.0
H1514 H 0.39348 0.2034 0.30139 0.0
H1515 H 0.51611 0.1908 0.37032 0.0
H1516 H 0.45093 0.22049 0.24505 0.0
H1517 H 0.45905 0.15915 0.41203 0.0
H1518 H 0.49276 0.20459 0.32611 0.0
H1519 H 0.41753 0.19032 0.34468 0.0
C1520 C 0.41116 0.2045 0.29816 0.0
C1521 C 0.4202 0.21301 0.2695 0.0
C1522 C 0.48544 0.19455 0.34493 0.0
C1523 C 0.44789 0.198 0.31905 0.0
C1524 C 0.49874 0.18669 0.37015 0.0
C1525 C 0.48954 0.17379 0.39494 0.0
C1526 C 0.46279 0.18967 0.34478 0.0
C1527 C 0.46692 0.16899 0.39348 0.0
C1528 C 0.42491 0.19693 0.32285 0.0
C1529 C 0.44326 0.21397 0.2667 0.0
N1530 N 0.45435 0.177 0.36897 0.0
N1531 N 0.45634 0.20658 0.2912 0.0
H1532 H 0.53827 0.6683 0.04529 0.0
H1533 H 0.62493 0.66958 0.19032 0.0
H1534 H 0.58923 0.61918 0.05625 0.0
H1535 H 0.5603 0.69888 0.19868 0.0
H1536 H 0.61474 0.65518 0.1371 0.0
H1537 H 0.54882 0.68394 0.09778 0.0
C1538 C 0.55174 0.66089 0.05865 0.0
C1539 C 0.56289 0.64241 0.04647 0.0
C1540 C 0.6028 0.66475 0.15062 0.0
C1541 C 0.57506 0.66026 0.10619 0.0
C1542 C 0.60862 0.67305 0.18091 0.0
C1543 C 0.59339 0.68539 0.19897 0.0
C1544 C 0.58174 0.66909 0.13807 0.0
C1545 C 0.57248 0.68934 0.18562 0.0
C1546 C 0.55766 0.66975 0.08862 0.0
C1547 C 0.58014 0.63338 0.06483 0.0
N1548 N 0.56728 0.68128 0.15584 0.0
N1549 N 0.58578 0.64247 0.09373 0.0
H1550 H 0.09866 0.75549 0.83016 0.0
H1551 H 0.01148 0.8405 0.90347 0.0
H1552 H 0.05677 0.79677 0.77114 0.0
H1553 H 0.04517 0.7914 0.96084 0.0
H1554 H 0.02782 0.82468 0.85463 0.0
H1555 H 0.0793 0.76851 0.8784 0.0
C1556 C 0.08535 0.76724 0.82733 0.0
C1557 C 0.07938 0.77514 0.7966 0.0
C1558 C 0.03152 0.81728 0.87789 0.0
C1559 C 0.05721 0.79014 0.85169 0.0
C1560 C 0.02221 0.82631 0.90578 0.0
C1561 C 0.02705 0.81732 0.93629 0.0
C1562 C 0.04592 0.79924 0.88055 0.0
C1563 C 0.04101 0.7989 0.93783 0.0
C1564 C 0.07427 0.77463 0.85488 0.0
C1565 C 0.06195 0.79027 0.79437 0.0
N1566 N 0.05008 0.79057 0.91037 0.0
N1567 N 0.05156 0.79739 0.82157 0.0
loop_
_geom_bond_atom_site_label_1
_geom_bond_atom_site_label_2
_geom_bond_distance
_geom_bond_site_symmetry_2
_ccdc_geom_bond_type
C0 O1 1.160 . S
C0 O7 1.185 . S
O1 C0 1.160 . S
O2 Zn3 1.899 . S
O2 C10 1.284 . S
Zn3 O2 1.899 . S
Zn3 O4 2.032 . S
Zn3 O7 2.086 . S
Zn3 O12 1.977 . S
O4 Zn3 2.032 . S
O4 C8 1.278 . S
C5 O6 1.203 . S
C5 O12 1.267 . S
O6 C5 1.203 . S
O7 C0 1.185 . S
O7 Zn3 2.086 . S
C8 O4 1.278 . S
C8 O9 1.211 . S
O9 C8 1.211 . S
C10 O2 1.284 . S
C10 O11 1.273 . S
O11 C10 1.273 . S
O12 Zn3 1.977 . S
O12 C5 1.267 . S
C13 O14 1.160 . S
C13 O20 1.185 . S
O14 C13 1.160 . S
O15 Zn16 1.899 . S
O15 C23 1.284 1_655 S
Zn16 O15 1.899 . S
Zn16 O17 2.032 . S
Zn16 O20 2.086 . S
Zn16 O25 1.977 . S
O17 Zn16 2.032 . S
O17 C21 1.278 . S
C18 O19 1.203 . S
C18 O25 1.267 . S
O19 C18 1.203 . S
O20 C13 1.185 . S
O20 Zn16 2.086 . S
C21 O17 1.278 . S
C21 O22 1.211 . S
O22 C21 1.211 . S
C23 O15 1.284 1_455 S
C23 O24 1.273 . S
O24 C23 1.273 . S
O25 Zn16 1.977 . S
O25 C18 1.267 . S
C26 O27 1.160 . S
C26 O33 1.185 . S
O27 C26 1.160 . S
O28 Zn29 1.899 . S
O28 C36 1.284 . S
Zn29 O28 1.899 . S
Zn29 O30 2.032 . S
Zn29 O33 2.086 . S
Zn29 O38 1.977 . S
O30 Zn29 2.032 . S
O30 C34 1.278 . S
C31 O32 1.203 . S
C31 O38 1.267 . S
O32 C31 1.203 . S
O33 C26 1.185 . S
O33 Zn29 2.086 . S
C34 O30 1.278 . S
C34 O35 1.211 . S
O35 C34 1.211 . S
C36 O28 1.284 . S
C36 O37 1.273 . S
O37 C36 1.273 . S
O38 Zn29 1.977 . S
O38 C31 1.267 . S
C39 O40 1.160 . S
C39 O46 1.185 . S
O40 C39 1.160 . S
O41 Zn42 1.899 . S
O41 C49 1.284 . S
Zn42 O41 1.899 . S
Zn42 O43 2.032 1_554 S
Zn42 O46 2.086 . S
Zn42 O51 1.977 . S
O43 Zn42 2.032 1_556 S
O43 C47 1.278 . S
C44 O45 1.203 . S
C44 O51 1.267 . S
O45 C44 1.203 . S
O46 C39 1.185 . S
O46 Zn42 2.086 . S
C47 O43 1.278 . S
C47 O48 1.211 . S
O48 C47 1.211 . S
C49 O41 1.284 . S
C49 O50 1.273 . S
O50 C49 1.273 . S
O51 Zn42 1.977 . S
O51 C44 1.267 . S
C52 O53 1.160 . S
C52 O59 1.185 . S
O53 C52 1.160 . S
O54 Zn55 1.899 . S
O54 C62 1.284 . S
Zn55 O54 1.899 . S
Zn55 O56 2.032 . S
Zn55 O59 2.086 . S
Zn55 O64 1.977 . S
O56 Zn55 2.032 . S
O56 C60 1.278 . S
C57 O58 1.203 . S
C57 O64 1.267 . S
O58 C57 1.203 . S
O59 C52 1.185 . S
O59 Zn55 2.086 . S
C60 O56 1.278 . S
C60 O61 1.211 . S
O61 C60 1.211 . S
C62 O54 1.284 . S
C62 O63 1.273 . S
O63 C62 1.273 . S
O64 Zn55 1.977 . S
O64 C57 1.267 . S
C65 O66 1.160 . S
C65 O72 1.185 . S
O66 C65 1.160 . S
O67 Zn68 1.899 . S
O67 C75 1.284 . S
Zn68 O67 1.899 . S
Zn68 O69 2.032 . S
Zn68 O72 2.086 . S
Zn68 O77 1.977 . S
O69 Zn68 2.032 . S
O69 C73 1.278 . S
C70 O71 1.203 . S
C70 O77 1.267 . S
O71 C70 1.203 . S
O72 C65 1.185 . S
O72 Zn68 2.086 . S
C73 O69 1.278 . S
C73 O74 1.211 . S
O74 C73 1.211 . S
C75 O67 1.284 . S
C75 O76 1.273 . S
O76 C75 1.273 . S
O77 Zn68 1.977 . S
O77 C70 1.267 . S
C78 O79 1.160 . S
C78 O85 1.185 . S
O79 C78 1.160 . S
O80 Zn81 1.899 . S
O80 C88 1.284 . S
Zn81 O80 1.899 . S
Zn81 O82 2.032 . S
Zn81 O85 2.086 . S
Zn81 O90 1.977 . S
O82 Zn81 2.032 . S
O82 C86 1.278 . S
C83 O84 1.203 . S
C83 O90 1.267 . S
O84 C83 1.203 . S
O85 C78 1.185 . S
O85 Zn81 2.086 . S
C86 O82 1.278 . S
C86 O87 1.211 . S
O87 C86 1.211 . S
C88 O80 1.284 . S
C88 O89 1.273 . S
O89 C88 1.273 . S
O90 Zn81 1.977 . S
O90 C83 1.267 . S
C91 O92 1.160 . S
C91 O98 1.185 . S
O92 C91 1.160 . S
O93 Zn94 1.899 . S
O93 C101 1.284 1_655 S
Zn94 O93 1.899 . S
Zn94 O95 2.032 1_556 S
Zn94 O98 2.086 . S
Zn94 O103 1.977 . S
O95 Zn94 2.032 1_554 S
O95 C99 1.278 . S
C96 O97 1.203 . S
C96 O103 1.267 . S
O97 C96 1.203 . S
O98 C91 1.185 . S
O98 Zn94 2.086 . S
C99 O95 1.278 . S
C99 O100 1.211 . S
O100 C99 1.211 . S
C101 O93 1.284 1_455 S
C101 O102 1.273 . S
O102 C101 1.273 . S
O103 Zn94 1.977 . S
O103 C96 1.267 . S
C104 O105 1.160 . S
C104 O111 1.185 . S
O105 C104 1.160 . S
O106 Zn107 1.899 . S
O106 C114 1.284 . S
Zn107 O106 1.899 . S
Zn107 O108 2.032 . S
Zn107 O111 2.086 . S
Zn107 O116 1.977 . S
O108 Zn107 2.032 . S
O108 C112 1.278 . S
C109 O110 1.203 . S
C109 O116 1.267 . S
O110 C109 1.203 . S
O111 C104 1.185 . S
O111 Zn107 2.086 . S
C112 O108 1.278 . S
C112 O113 1.211 . S
O113 C112 1.211 . S
C114 O106 1.284 . S
C114 O115 1.273 . S
O115 C114 1.273 . S
O116 Zn107 1.977 . S
O116 C109 1.267 . S
C117 O118 1.160 . S
C117 O124 1.185 . S
O118 C117 1.160 . S
O119 Zn120 1.899 . S
O119 C127 1.284 1_455 S
Zn120 O119 1.899 . S
Zn120 O121 2.032 . S
Zn120 O124 2.086 . S
Zn120 O129 1.977 . S
O121 Zn120 2.032 . S
O121 C125 1.278 . S
C122 O123 1.203 . S
C122 O129 1.267 . S
O123 C122 1.203 . S
O124 C117 1.185 . S
O124 Zn120 2.086 . S
C125 O121 1.278 . S
C125 O126 1.211 . S
O126 C125 1.211 . S
C127 O119 1.284 1_655 S
C127 O128 1.273 . S
O128 C127 1.273 . S
O129 Zn120 1.977 . S
O129 C122 1.267 . S
C130 O131 1.160 . S
C130 O137 1.185 . S
O131 C130 1.160 . S
O132 Zn133 1.899 . S
O132 C140 1.284 . S
Zn133 O132 1.899 . S
Zn133 O134 2.032 . S
Zn133 O137 2.086 . S
Zn133 O142 1.977 . S
O134 Zn133 2.032 . S
O134 C138 1.278 . S
C135 O136 1.203 . S
C135 O142 1.267 . S
O136 C135 1.203 . S
O137 C130 1.185 . S
O137 Zn133 2.086 . S
C138 O134 1.278 . S
C138 O139 1.211 . S
O139 C138 1.211 . S
C140 O132 1.284 . S
C140 O141 1.273 . S
O141 C140 1.273 . S
O142 Zn133 1.977 . S
O142 C135 1.267 . S
C143 O144 1.160 . S
C143 O150 1.185 . S
O144 C143 1.160 . S
O145 Zn146 1.899 . S
O145 C153 1.284 . S
Zn146 O145 1.899 . S
Zn146 O147 2.032 1_556 S
Zn146 O150 2.086 . S
Zn146 O155 1.977 . S
O147 Zn146 2.032 1_554 S
O147 C151 1.278 . S
C148 O149 1.203 . S
C148 O155 1.267 . S
O149 C148 1.203 . S
O150 C143 1.185 . S
O150 Zn146 2.086 . S
C151 O147 1.278 . S
C151 O152 1.211 . S
O152 C151 1.211 . S
C153 O145 1.284 . S
C153 O154 1.273 . S
O154 C153 1.273 . S
O155 Zn146 1.977 . S
O155 C148 1.267 . S
C156 O157 1.160 . S
C156 O163 1.185 . S
O157 C156 1.160 . S
O158 Zn159 1.899 . S
O158 C166 1.284 . S
Zn159 O158 1.899 . S
Zn159 O160 2.032 . S
Zn159 O163 2.086 . S
Zn159 O168 1.977 . S
O160 Zn159 2.032 . S
O160 C164 1.278 . S
C161 O162 1.203 . S
C161 O168 1.267 . S
O162 C161 1.203 . S
O163 C156 1.185 . S
O163 Zn159 2.086 . S
C164 O160 1.278 . S
C164 O165 1.211 . S
O165 C164 1.211 . S
C166 O158 1.284 . S
C166 O167 1.273 . S
O167 C166 1.273 . S
O168 Zn159 1.977 . S
O168 C161 1.267 . S
C169 O170 1.160 . S
C169 O176 1.185 . S
O170 C169 1.160 . S
O171 Zn172 1.899 . S
O171 C179 1.284 . S
Zn172 O171 1.899 . S
Zn172 O173 2.032 . S
Zn172 O176 2.086 . S
Zn172 O181 1.977 . S
O173 Zn172 2.032 . S
O173 C177 1.278 . S
C174 O175 1.203 . S
C174 O181 1.267 . S
O175 C174 1.203 . S
O176 C169 1.185 . S
O176 Zn172 2.086 . S
C177 O173 1.278 . S
C177 O178 1.211 . S
O178 C177 1.211 . S
C179 O171 1.284 . S
C179 O180 1.273 . S
O180 C179 1.273 . S
O181 Zn172 1.977 . S
O181 C174 1.267 . S
C182 O183 1.160 . S
C182 O189 1.185 . S
O183 C182 1.160 . S
O184 Zn185 1.899 . S
O184 C192 1.284 . S
Zn185 O184 1.899 . S
Zn185 O186 2.032 . S
Zn185 O189 2.086 . S
Zn185 O194 1.977 . S
O186 Zn185 2.032 . S
O186 C190 1.278 . S
C187 O188 1.203 . S
C187 O194 1.267 . S
O188 C187 1.203 . S
O189 C182 1.185 . S
O189 Zn185 2.086 . S
C190 O186 1.278 . S
C190 O191 1.211 . S
O191 C190 1.211 . S
C192 O184 1.284 . S
C192 O193 1.273 . S
O193 C192 1.273 . S
O194 Zn185 1.977 . S
O194 C187 1.267 . S
C195 O196 1.160 . S
C195 O202 1.185 . S
O196 C195 1.160 . S
O197 Zn198 1.899 . S
O197 C205 1.284 1_455 S
Zn198 O197 1.899 . S
Zn198 O199 2.032 1_554 S
Zn198 O202 2.086 . S
Zn198 O207 1.977 . S
O199 Zn198 2.032 1_556 S
O199 C203 1.278 . S
C200 O201 1.203 . S
C200 O207 1.267 . S
O201 C200 1.203 . S
O202 C195 1.185 . S
O202 Zn198 2.086 . S
C203 O199 1.278 . S
C203 O204 1.211 . S
O204 C203 1.211 . S
C205 O197 1.284 1_655 S
C205 O206 1.273 . S
O206 C205 1.273 . S
O207 Zn198 1.977 . S
O207 C200 1.267 . S
C208 O209 1.160 . S
C208 O215 1.185 . S
O209 C208 1.160 . S
O210 Zn211 1.899 . S
O210 C218 1.284 . S
Zn211 O210 1.899 . S
Zn211 O212 2.032 . S
Zn211 O215 2.086 . S
Zn211 O220 1.977 . S
O212 Zn211 2.032 . S
O212 C216 1.278 . S
C213 O214 1.203 . S
C213 O220 1.267 . S
O214 C213 1.203 . S
O215 C208 1.185 . S
O215 Zn211 2.086 . S
C216 O212 1.278 . S
C216 O217 1.211 . S
O217 C216 1.211 . S
C218 O210 1.284 . S
C218 O219 1.273 . S
O219 C218 1.273 . S
O220 Zn211 1.977 . S
O220 C213 1.267 . S
C221 O222 1.160 . S
C221 O228 1.185 . S
O222 C221 1.160 . S
O223 Zn224 1.899 . S
O223 C231 1.284 . S
Zn224 O223 1.899 . S
Zn224 O225 2.032 1_554 S
Zn224 O228 2.086 . S
Zn224 O233 1.977 . S
O225 Zn224 2.032 1_556 S
O225 C229 1.278 . S
C226 O227 1.203 . S
C226 O233 1.267 . S
O227 C226 1.203 . S
O228 C221 1.185 . S
O228 Zn224 2.086 . S
C229 O225 1.278 . S
C229 O230 1.211 . S
O230 C229 1.211 . S
C231 O223 1.284 . S
C231 O232 1.273 . S
O232 C231 1.273 . S
O233 Zn224 1.977 . S
O233 C226 1.267 . S
C234 O235 1.160 . S
C234 O241 1.185 . S
O235 C234 1.160 . S
O236 Zn237 1.899 . S
O236 C244 1.284 . S
Zn237 O236 1.899 . S
Zn237 O238 2.032 . S
Zn237 O241 2.086 . S
Zn237 O246 1.977 . S
O238 Zn237 2.032 . S
O238 C242 1.278 . S
C239 O240 1.203 . S
C239 O246 1.267 . S
O240 C239 1.203 . S
O241 C234 1.185 . S
O241 Zn237 2.086 . S
C242 O238 1.278 . S
C242 O243 1.211 . S
O243 C242 1.211 . S
C244 O236 1.284 . S
C244 O245 1.273 . S
O245 C244 1.273 . S
O246 Zn237 1.977 . S
O246 C239 1.267 . S
C247 O248 1.160 . S
C247 O254 1.185 . S
O248 C247 1.160 . S
O249 Zn250 1.899 . S
O249 C257 1.284 1_455 S
Zn250 O249 1.899 . S
Zn250 O251 2.032 . S
Zn250 O254 2.086 . S
Zn250 O259 1.977 . S
O251 Zn250 2.032 . S
O251 C255 1.278 . S
C252 O253 1.203 . S
C252 O259 1.267 . S
O253 C252 1.203 . S
O254 C247 1.185 . S
O254 Zn250 2.086 . S
C255 O251 1.278 . S
C255 O256 1.211 . S
O256 C255 1.211 . S
C257 O249 1.284 1_655 S
C257 O258 1.273 . S
O258 C257 1.273 . S
O259 Zn250 1.977 . S
O259 C252 1.267 . S
C260 O261 1.160 . S
C260 O267 1.185 . S
O261 C260 1.160 . S
O262 Zn263 1.899 . S
O262 C270 1.284 . S
Zn263 O262 1.899 . S
Zn263 O264 2.032 . S
Zn263 O267 2.086 . S
Zn263 O272 1.977 . S
O264 Zn263 2.032 . S
O264 C268 1.278 . S
C265 O266 1.203 . S
C265 O272 1.267 . S
O266 C265 1.203 . S
O267 C260 1.185 . S
O267 Zn263 2.086 . S
C268 O264 1.278 . S
C268 O269 1.211 . S
O269 C268 1.211 . S
C270 O262 1.284 . S
C270 O271 1.273 . S
O271 C270 1.273 . S
O272 Zn263 1.977 . S
O272 C265 1.267 . S
C273 O274 1.160 . S
C273 O280 1.185 . S
O274 C273 1.160 . S
O275 Zn276 1.899 . S
O275 C283 1.284 1_455 S
Zn276 O275 1.899 . S
Zn276 O277 2.032 1_556 S
Zn276 O280 2.086 . S
Zn276 O285 1.977 . S
O277 Zn276 2.032 1_554 S
O277 C281 1.278 . S
C278 O279 1.203 . S
C278 O285 1.267 . S
O279 C278 1.203 . S
O280 C273 1.185 . S
O280 Zn276 2.086 . S
C281 O277 1.278 . S
C281 O282 1.211 . S
O282 C281 1.211 . S
C283 O275 1.284 1_655 S
C283 O284 1.273 . S
O284 C283 1.273 . S
O285 Zn276 1.977 . S
O285 C278 1.267 . S
C286 O287 1.160 . S
C286 O293 1.185 . S
O287 C286 1.160 . S
O288 Zn289 1.899 . S
O288 C296 1.284 . S
Zn289 O288 1.899 . S
Zn289 O290 2.032 . S
Zn289 O293 2.086 . S
Zn289 O298 1.977 . S
O290 Zn289 2.032 . S
O290 C294 1.278 . S
C291 O292 1.203 . S
C291 O298 1.267 . S
O292 C291 1.203 . S
O293 C286 1.185 . S
O293 Zn289 2.086 . S
C294 O290 1.278 . S
C294 O295 1.211 . S
O295 C294 1.211 . S
C296 O288 1.284 . S
C296 O297 1.273 . S
O297 C296 1.273 . S
O298 Zn289 1.977 . S
O298 C291 1.267 . S
C299 O300 1.160 . S
C299 O306 1.185 . S
O300 C299 1.160 . S
O301 Zn302 1.899 . S
O301 C309 1.284 . S
Zn302 O301 1.899 . S
Zn302 O303 2.032 . S
Zn302 O306 2.086 . S
Zn302 O311 1.977 . S
O303 Zn302 2.032 . S
O303 C307 1.278 . S
C304 O305 1.203 . S
C304 O311 1.267 . S
O305 C304 1.203 . S
O306 C299 1.185 . S
O306 Zn302 2.086 . S
C307 O303 1.278 . S
C307 O308 1.211 . S
O308 C307 1.211 . S
C309 O301 1.284 . S
C309 O310 1.273 . S
O310 C309 1.273 . S
O311 Zn302 1.977 . S
O311 C304 1.267 . S
C312 O313 1.160 . S
C312 O319 1.185 . S
O313 C312 1.160 . S
O314 Zn315 1.899 . S
O314 C322 1.284 . S
Zn315 O314 1.899 . S
Zn315 O316 2.032 . S
Zn315 O319 2.086 . S
Zn315 O324 1.977 . S
O316 Zn315 2.032 . S
O316 C320 1.278 . S
C317 O318 1.203 . S
C317 O324 1.267 . S
O318 C317 1.203 . S
O319 C312 1.185 . S
O319 Zn315 2.086 . S
C320 O316 1.278 . S
C320 O321 1.211 . S
O321 C320 1.211 . S
C322 O314 1.284 . S
C322 O323 1.273 . S
O323 C322 1.273 . S
O324 Zn315 1.977 . S
O324 C317 1.267 . S
C325 O326 1.160 . S
C325 O332 1.185 . S
O326 C325 1.160 . S
O327 Zn328 1.899 . S
O327 C335 1.284 . S
Zn328 O327 1.899 . S
Zn328 O329 2.032 1_556 S
Zn328 O332 2.086 . S
Zn328 O337 1.977 . S
O329 Zn328 2.032 1_554 S
O329 C333 1.278 . S
C330 O331 1.203 . S
C330 O337 1.267 . S
O331 C330 1.203 . S
O332 C325 1.185 . S
O332 Zn328 2.086 . S
C333 O329 1.278 . S
C333 O334 1.211 . S
O334 C333 1.211 . S
C335 O327 1.284 . S
C335 O336 1.273 . S
O336 C335 1.273 . S
O337 Zn328 1.977 . S
O337 C330 1.267 . S
C338 O339 1.160 . S
C338 O345 1.185 . S
O339 C338 1.160 . S
O340 Zn341 1.899 . S
O340 C348 1.284 . S
Zn341 O340 1.899 . S
Zn341 O342 2.032 . S
Zn341 O345 2.086 . S
Zn341 O350 1.977 . S
O342 Zn341 2.032 . S
O342 C346 1.278 . S
C343 O344 1.203 . S
C343 O350 1.267 . S
O344 C343 1.203 . S
O345 C338 1.185 . S
O345 Zn341 2.086 . S
C346 O342 1.278 . S
C346 O347 1.211 . S
O347 C346 1.211 . S
C348 O340 1.284 . S
C348 O349 1.273 . S
O349 C348 1.273 . S
O350 Zn341 1.977 . S
O350 C343 1.267 . S
C351 O352 1.160 . S
C351 O358 1.185 . S
O352 C351 1.160 . S
O353 Zn354 1.899 . S
O353 C361 1.284 1_655 S
Zn354 O353 1.899 . S
Zn354 O355 2.032 . S
Zn354 O358 2.086 . S
Zn354 O363 1.977 . S
O355 Zn354 2.032 . S
O355 C359 1.278 . S
C356 O357 1.203 . S
C356 O363 1.267 . S
O357 C356 1.203 . S
O358 C351 1.185 . S
O358 Zn354 2.086 . S
C359 O355 1.278 . S
C359 O360 1.211 . S
O360 C359 1.211 . S
C361 O353 1.284 1_455 S
C361 O362 1.273 . S
O362 C361 1.273 . S
O363 Zn354 1.977 . S
O363 C356 1.267 . S
C364 O365 1.160 . S
C364 O371 1.185 . S
O365 C364 1.160 . S
O366 Zn367 1.899 . S
O366 C374 1.284 . S
Zn367 O366 1.899 . S
Zn367 O368 2.032 . S
Zn367 O371 2.086 . S
Zn367 O376 1.977 . S
O368 Zn367 2.032 . S
O368 C372 1.278 . S
C369 O370 1.203 . S
C369 O376 1.267 . S
O370 C369 1.203 . S
O371 C364 1.185 . S
O371 Zn367 2.086 . S
C372 O368 1.278 . S
C372 O373 1.211 . S
O373 C372 1.211 . S
C374 O366 1.284 . S
C374 O375 1.273 . S
O375 C374 1.273 . S
O376 Zn367 1.977 . S
O376 C369 1.267 . S
C377 O378 1.160 . S
C377 O384 1.185 . S
O378 C377 1.160 . S
O379 Zn380 1.899 . S
O379 C387 1.284 1_655 S
Zn380 O379 1.899 . S
Zn380 O381 2.032 1_554 S
Zn380 O384 2.086 . S
Zn380 O389 1.977 . S
O381 Zn380 2.032 1_556 S
O381 C385 1.278 . S
C382 O383 1.203 . S
C382 O389 1.267 . S
O383 C382 1.203 . S
O384 C377 1.185 . S
O384 Zn380 2.086 . S
C385 O381 1.278 . S
C385 O386 1.211 . S
O386 C385 1.211 . S
C387 O379 1.284 1_455 S
C387 O388 1.273 . S
O388 C387 1.273 . S
O389 Zn380 1.977 . S
O389 C382 1.267 . S
C390 O391 1.160 . S
C390 O397 1.185 . S
O391 C390 1.160 . S
O392 Zn393 1.899 . S
O392 C400 1.284 . S
Zn393 O392 1.899 . S
Zn393 O394 2.032 . S
Zn393 O397 2.086 . S
Zn393 O402 1.977 . S
O394 Zn393 2.032 . S
O394 C398 1.278 . S
C395 O396 1.203 . S
C395 O402 1.267 . S
O396 C395 1.203 . S
O397 C390 1.185 . S
O397 Zn393 2.086 . S
C398 O394 1.278 . S
C398 O399 1.211 . S
O399 C398 1.211 . S
C400 O392 1.284 . S
C400 O401 1.273 . S
O401 C400 1.273 . S
O402 Zn393 1.977 . S
O402 C395 1.267 . S
C403 O404 1.160 . S
C403 O410 1.185 . S
O404 C403 1.160 . S
O405 Zn406 1.899 . S
O405 C413 1.284 . S
Zn406 O405 1.899 . S
Zn406 O407 2.032 . S
Zn406 O410 2.086 . S
Zn406 O415 1.977 . S
O407 Zn406 2.032 . S
O407 C411 1.278 . S
C408 O409 1.203 . S
C408 O415 1.267 . S
O409 C408 1.203 . S
O410 C403 1.185 . S
O410 Zn406 2.086 . S
C411 O407 1.278 . S
C411 O412 1.211 . S
O412 C411 1.211 . S
C413 O405 1.284 . S
C413 O414 1.273 . S
O414 C413 1.273 . S
O415 Zn406 1.977 . S
O415 C408 1.267 . S
H416 C422 0.930 . S
H417 C426 0.930 . S
H418 C431 0.929 . S
H419 C429 0.929 . S
H420 C424 0.929 . S
H421 C430 0.929 . S
C422 H416 0.930 . S
C422 C423 1.367 . S
C422 C430 1.378 . S
C423 C422 1.367 . S
C423 C431 1.433 . S
C424 H420 0.929 . S
C424 C426 1.378 . S
C424 C428 1.350 . S
C425 C428 1.463 . S
C425 C430 1.350 . S
C425 N433 1.427 . S
C426 H417 0.930 . S
C426 C424 1.378 . S
C426 C427 1.367 . S
C427 C426 1.367 . S
C427 C429 1.433 . S
C428 C424 1.350 . S
C428 C425 1.463 . S
C428 N432 1.427 . S
C429 H419 0.929 . S
C429 C427 1.433 . S
C429 N432 1.384 . S
C430 H421 0.929 . S
C430 C422 1.378 . S
C430 C425 1.350 . S
C431 H418 0.929 . S
C431 C423 1.433 . S
C431 N433 1.384 . S
N432 C428 1.427 . S
N432 C429 1.384 . S
N433 C425 1.427 . S
N433 C431 1.384 . S
H434 C440 0.930 . S
H435 C444 0.930 . S
H436 C449 0.929 . S
H437 C447 0.929 . S
H438 C442 0.929 . S
H439 C448 0.929 . S
C440 H434 0.930 . S
C440 C441 1.367 . S
C440 C448 1.378 . S
C441 C440 1.367 . S
C441 C449 1.433 . S
C442 H438 0.929 . S
C442 C444 1.378 . S
C442 C446 1.350 . S
C443 C446 1.463 . S
C443 C448 1.350 . S
C443 N451 1.427 . S
C444 H435 0.930 . S
C444 C442 1.378 . S
C444 C445 1.367 . S
C445 C444 1.367 . S
C445 C447 1.433 . S
C446 C442 1.350 . S
C446 C443 1.463 . S
C446 N450 1.427 . S
C447 H437 0.929 . S
C447 C445 1.433 . S
C447 N450 1.384 . S
C448 H439 0.929 . S
C448 C440 1.378 . S
C448 C443 1.350 . S
C449 H436 0.929 . S
C449 C441 1.433 . S
C449 N451 1.384 . S
N450 C446 1.427 . S
N450 C447 1.384 . S
N451 C443 1.427 . S
N451 C449 1.384 . S
H452 C458 0.930 . S
H453 C462 0.930 . S
H454 C467 0.929 . S
H455 C465 0.929 . S
H456 C460 0.929 . S
H457 C466 0.929 . S
C458 H452 0.930 . S
C458 C459 1.367 . S
C458 C466 1.378 . S
C459 C458 1.367 . S
C459 C467 1.433 . S
C460 H456 0.929 . S
C460 C462 1.378 . S
C460 C464 1.350 . S
C461 C464 1.463 . S
C461 C466 1.350 . S
C461 N469 1.427 . S
C462 H453 0.930 . S
C462 C460 1.378 . S
C462 C463 1.367 . S
C463 C462 1.367 . S
C463 C465 1.433 . S
C464 C460 1.350 . S
C464 C461 1.463 . S
C464 N468 1.427 . S
C465 H455 0.929 . S
C465 C463 1.433 . S
C465 N468 1.384 . S
C466 H457 0.929 . S
C466 C458 1.378 . S
C466 C461 1.350 . S
C467 H454 0.929 . S
C467 C459 1.433 . S
C467 N469 1.384 . S
N468 C464 1.427 . S
N468 C465 1.384 . S
N469 C461 1.427 . S
N469 C467 1.384 . S
H470 C476 0.930 . S
H471 C480 0.930 . S
H472 C485 0.929 . S
H473 C483 0.929 . S
H474 C478 0.929 . S
H475 C484 0.929 . S
C476 H470 0.930 . S
C476 C477 1.367 . S
C476 C484 1.378 . S
C477 C476 1.367 . S
C477 C485 1.433 . S
C478 H474 0.929 . S
C478 C480 1.378 . S
C478 C482 1.350 . S
C479 C482 1.463 . S
C479 C484 1.350 . S
C479 N487 1.427 . S
C480 H471 0.930 . S
C480 C478 1.378 . S
C480 C481 1.367 . S
C481 C480 1.367 . S
C481 C483 1.433 . S
C482 C478 1.350 . S
C482 C479 1.463 . S
C482 N486 1.427 . S
C483 H473 0.929 . S
C483 C481 1.433 . S
C483 N486 1.384 . S
C484 H475 0.929 . S
C484 C476 1.378 . S
C484 C479 1.350 . S
C485 H472 0.929 . S
C485 C477 1.433 . S
C485 N487 1.384 . S
N486 C482 1.427 . S
N486 C483 1.384 . S
N487 C479 1.427 . S
N487 C485 1.384 . S
H488 C494 0.930 . S
H489 C498 0.930 . S
H490 C503 0.929 . S
H491 C501 0.929 . S
H492 C496 0.929 . S
H493 C502 0.929 . S
C494 H488 0.930 . S
C494 C495 1.367 . S
C494 C502 1.378 . S
C495 C494 1.367 . S
C495 C503 1.433 . S
C496 H492 0.929 . S
C496 C498 1.378 . S
C496 C500 1.350 . S
C497 C500 1.463 . S
C497 C502 1.350 . S
C497 N505 1.427 . S
C498 H489 0.930 . S
C498 C496 1.378 . S
C498 C499 1.367 . S
C499 C498 1.367 . S
C499 C501 1.433 . S
C500 C496 1.350 . S
C500 C497 1.463 . S
C500 N504 1.427 . S
C501 H491 0.929 . S
C501 C499 1.433 . S
C501 N504 1.384 . S
C502 H493 0.929 . S
C502 C494 1.378 . S
C502 C497 1.350 . S
C503 H490 0.929 . S
C503 C495 1.433 . S
C503 N505 1.384 . S
N504 C500 1.427 . S
N504 C501 1.384 . S
N505 C497 1.427 . S
N505 C503 1.384 . S
H506 C512 0.930 . S
H507 C516 0.930 . S
H508 C521 0.929 . S
H509 C519 0.929 . S
H510 C514 0.929 . S
H511 C520 0.929 . S
C512 H506 0.930 . S
C512 C513 1.367 . S
C512 C520 1.378 . S
C513 C512 1.367 . S
C513 C521 1.433 . S
C514 H510 0.929 . S
C514 C516 1.378 . S
C514 C518 1.350 . S
C515 C518 1.463 . S
C515 C520 1.350 . S
C515 N523 1.427 . S
C516 H507 0.930 . S
C516 C514 1.378 . S
C516 C517 1.367 . S
C517 C516 1.367 . S
C517 C519 1.433 . S
C518 C514 1.350 . S
C518 C515 1.463 . S
C518 N522 1.427 . S
C519 H509 0.929 . S
C519 C517 1.433 . S
C519 N522 1.384 . S
C520 H511 0.929 . S
C520 C512 1.378 . S
C520 C515 1.350 . S
C521 H508 0.929 . S
C521 C513 1.433 . S
C521 N523 1.384 . S
N522 C518 1.427 . S
N522 C519 1.384 . S
N523 C515 1.427 . S
N523 C521 1.384 . S
H524 C530 0.930 . S
H525 C534 0.930 . S
H526 C539 0.929 . S
H527 C537 0.929 . S
H528 C532 0.929 . S
H529 C538 0.929 . S
C530 H524 0.930 . S
C530 C531 1.367 . S
C530 C538 1.378 . S
C531 C530 1.367 . S
C531 C539 1.433 . S
C532 H528 0.929 . S
C532 C534 1.378 . S
C532 C536 1.350 . S
C533 C536 1.463 . S
C533 C538 1.350 . S
C533 N541 1.427 . S
C534 H525 0.930 . S
C534 C532 1.378 . S
C534 C535 1.367 . S
C535 C534 1.367 . S
C535 C537 1.433 . S
C536 C532 1.350 . S
C536 C533 1.463 . S
C536 N540 1.427 . S
C537 H527 0.929 . S
C537 C535 1.433 . S
C537 N540 1.384 . S
C538 H529 0.929 . S
C538 C530 1.378 . S
C538 C533 1.350 . S
C539 H526 0.929 . S
C539 C531 1.433 . S
C539 N541 1.384 . S
N540 C536 1.427 . S
N540 C537 1.384 . S
N541 C533 1.427 . S
N541 C539 1.384 . S
H542 C548 0.930 . S
H543 C552 0.930 . S
H544 C557 0.929 . S
H545 C555 0.929 . S
H546 C550 0.929 . S
H547 C556 0.929 . S
C548 H542 0.930 . S
C548 C549 1.367 . S
C548 C556 1.378 . S
C549 C548 1.367 . S
C549 C557 1.433 . S
C550 H546 0.929 . S
C550 C552 1.378 . S
C550 C554 1.350 . S
C551 C554 1.463 . S
C551 C556 1.350 . S
C551 N559 1.427 . S
C552 H543 0.930 . S
C552 C550 1.378 . S
C552 C553 1.367 . S
C553 C552 1.367 . S
C553 C555 1.433 . S
C554 C550 1.350 . S
C554 C551 1.463 . S
C554 N558 1.427 . S
C555 H545 0.929 . S
C555 C553 1.433 . S
C555 N558 1.384 . S
C556 H547 0.929 . S
C556 C548 1.378 . S
C556 C551 1.350 . S
C557 H544 0.929 . S
C557 C549 1.433 . S
C557 N559 1.384 . S
N558 C554 1.427 . S
N558 C555 1.384 . S
N559 C551 1.427 . S
N559 C557 1.384 . S
H560 C566 0.930 . S
H561 C570 0.930 . S
H562 C575 0.929 . S
H563 C573 0.929 . S
H564 C568 0.929 . S
H565 C574 0.929 . S
C566 H560 0.930 . S
C566 C567 1.367 . S
C566 C574 1.378 . S
C567 C566 1.367 . S
C567 C575 1.433 . S
C568 H564 0.929 . S
C568 C570 1.378 . S
C568 C572 1.350 . S
C569 C572 1.463 . S
C569 C574 1.350 . S
C569 N577 1.427 . S
C570 H561 0.930 . S
C570 C568 1.378 . S
C570 C571 1.367 . S
C571 C570 1.367 . S
C571 C573 1.433 . S
C572 C568 1.350 . S
C572 C569 1.463 . S
C572 N576 1.427 . S
C573 H563 0.929 . S
C573 C571 1.433 . S
C573 N576 1.384 . S
C574 H565 0.929 . S
C574 C566 1.378 . S
C574 C569 1.350 . S
C575 H562 0.929 . S
C575 C567 1.433 . S
C575 N577 1.384 . S
N576 C572 1.427 . S
N576 C573 1.384 . S
N577 C569 1.427 . S
N577 C575 1.384 . S
H578 C584 0.930 . S
H579 C588 0.930 . S
H580 C593 0.929 . S
H581 C591 0.929 . S
H582 C586 0.929 . S
H583 C592 0.929 . S
C584 H578 0.930 . S
C584 C585 1.367 . S
C584 C592 1.378 . S
C585 C584 1.367 . S
C585 C593 1.433 . S
C586 H582 0.929 . S
C586 C588 1.378 . S
C586 C590 1.350 . S
C587 C590 1.463 . S
C587 C592 1.350 . S
C587 N595 1.427 . S
C588 H579 0.930 . S
C588 C586 1.378 . S
C588 C589 1.367 . S
C589 C588 1.367 . S
C589 C591 1.433 . S
C590 C586 1.350 . S
C590 C587 1.463 . S
C590 N594 1.427 . S
C591 H581 0.929 . S
C591 C589 1.433 . S
C591 N594 1.384 . S
C592 H583 0.929 . S
C592 C584 1.378 . S
C592 C587 1.350 . S
C593 H580 0.929 . S
C593 C585 1.433 . S
C593 N595 1.384 . S
N594 C590 1.427 . S
N594 C591 1.384 . S
N595 C587 1.427 . S
N595 C593 1.384 . S
H596 C602 0.930 . S
H597 C606 0.930 . S
H598 C611 0.929 . S
H599 C609 0.929 . S
H600 C604 0.929 . S
H601 C610 0.929 . S
C602 H596 0.930 . S
C602 C603 1.367 . S
C602 C610 1.378 . S
C603 C602 1.367 . S
C603 C611 1.433 . S
C604 H600 0.929 . S
C604 C606 1.378 . S
C604 C608 1.350 . S
C605 C608 1.463 . S
C605 C610 1.350 . S
C605 N613 1.427 . S
C606 H597 0.930 . S
C606 C604 1.378 . S
C606 C607 1.367 . S
C607 C606 1.367 . S
C607 C609 1.433 . S
C608 C604 1.350 . S
C608 C605 1.463 . S
C608 N612 1.427 . S
C609 H599 0.929 . S
C609 C607 1.433 . S
C609 N612 1.384 . S
C610 H601 0.929 . S
C610 C602 1.378 . S
C610 C605 1.350 . S
C611 H598 0.929 . S
C611 C603 1.433 . S
C611 N613 1.384 . S
N612 C608 1.427 . S
N612 C609 1.384 . S
N613 C605 1.427 . S
N613 C611 1.384 . S
H614 C620 0.930 . S
H615 C624 0.930 . S
H616 C629 0.929 . S
H617 C627 0.929 . S
H618 C622 0.929 . S
H619 C628 0.929 . S
C620 H614 0.930 . S
C620 C621 1.367 . S
C620 C628 1.378 . S
C621 C620 1.367 . S
C621 C629 1.433 . S
C622 H618 0.929 . S
C622 C624 1.378 . S
C622 C626 1.350 . S
C623 C626 1.463 . S
C623 C628 1.350 . S
C623 N631 1.427 . S
C624 H615 0.930 . S
C624 C622 1.378 . S
C624 C625 1.367 . S
C625 C624 1.367 . S
C625 C627 1.433 . S
C626 C622 1.350 . S
C626 C623 1.463 . S
C626 N630 1.427 . S
C627 H617 0.929 . S
C627 C625 1.433 . S
C627 N630 1.384 . S
C628 H619 0.929 . S
C628 C620 1.378 . S
C628 C623 1.350 . S
C629 H616 0.929 . S
C629 C621 1.433 . S
C629 N631 1.384 . S
N630 C626 1.427 . S
N630 C627 1.384 . S
N631 C623 1.427 . S
N631 C629 1.384 . S
H632 C638 0.930 . S
H633 C642 0.930 . S
H634 C647 0.929 . S
H635 C645 0.929 . S
H636 C640 0.929 . S
H637 C646 0.929 . S
C638 H632 0.930 . S
C638 C639 1.367 . S
C638 C646 1.378 . S
C639 C638 1.367 . S
C639 C647 1.433 . S
C640 H636 0.929 . S
C640 C642 1.378 . S
C640 C644 1.350 . S
C641 C644 1.463 . S
C641 C646 1.350 . S
C641 N649 1.427 . S
C642 H633 0.930 . S
C642 C640 1.378 . S
C642 C643 1.367 . S
C643 C642 1.367 . S
C643 C645 1.433 . S
C644 C640 1.350 . S
C644 C641 1.463 . S
C644 N648 1.427 . S
C645 H635 0.929 . S
C645 C643 1.433 . S
C645 N648 1.384 . S
C646 H637 0.929 . S
C646 C638 1.378 . S
C646 C641 1.350 . S
C647 H634 0.929 . S
C647 C639 1.433 . S
C647 N649 1.384 . S
N648 C644 1.427 . S
N648 C645 1.384 . S
N649 C641 1.427 . S
N649 C647 1.384 . S
H650 C656 0.930 . S
H651 C660 0.930 . S
H652 C665 0.929 . S
H653 C663 0.929 . S
H654 C658 0.929 . S
H655 C664 0.929 . S
C656 H650 0.930 . S
C656 C657 1.367 . S
C656 C664 1.378 . S
C657 C656 1.367 . S
C657 C665 1.433 . S
C658 H654 0.929 . S
C658 C660 1.378 . S
C658 C662 1.350 . S
C659 C662 1.463 . S
C659 C664 1.350 . S
C659 N667 1.427 . S
C660 H651 0.930 . S
C660 C658 1.378 . S
C660 C661 1.367 . S
C661 C660 1.367 . S
C661 C663 1.433 . S
C662 C658 1.350 . S
C662 C659 1.463 . S
C662 N666 1.427 . S
C663 H653 0.929 . S
C663 C661 1.433 . S
C663 N666 1.384 . S
C664 H655 0.929 . S
C664 C656 1.378 . S
C664 C659 1.350 . S
C665 H652 0.929 . S
C665 C657 1.433 . S
C665 N667 1.384 . S
N666 C662 1.427 . S
N666 C663 1.384 . S
N667 C659 1.427 . S
N667 C665 1.384 . S
H668 C674 0.930 . S
H669 C678 0.930 . S
H670 C683 0.929 . S
H671 C681 0.929 . S
H672 C676 0.929 . S
H673 C682 0.929 . S
C674 H668 0.930 . S
C674 C675 1.367 . S
C674 C682 1.378 . S
C675 C674 1.367 . S
C675 C683 1.433 . S
C676 H672 0.929 . S
C676 C678 1.378 . S
C676 C680 1.350 . S
C677 C680 1.463 . S
C677 C682 1.350 . S
C677 N685 1.427 . S
C678 H669 0.930 . S
C678 C676 1.378 . S
C678 C679 1.367 . S
C679 C678 1.367 . S
C679 C681 1.433 . S
C680 C676 1.350 . S
C680 C677 1.463 . S
C680 N684 1.427 . S
C681 H671 0.929 . S
C681 C679 1.433 . S
C681 N684 1.384 . S
C682 H673 0.929 . S
C682 C674 1.378 . S
C682 C677 1.350 . S
C683 H670 0.929 . S
C683 C675 1.433 . S
C683 N685 1.384 . S
N684 C680 1.427 . S
N684 C681 1.384 . S
N685 C677 1.427 . S
N685 C683 1.384 . S
H686 C692 0.930 . S
H687 C696 0.930 . S
H688 C701 0.929 . S
H689 C699 0.965 . S
H690 C694 0.929 . S
H691 C700 0.929 . S
C692 H686 0.930 . S
C692 C693 1.367 . S
C692 C700 1.378 . S
C693 C692 1.367 . S
C693 C701 1.433 . S
C694 H690 0.929 . S
C694 C696 1.378 . S
C694 C698 1.350 . S
C695 C698 1.463 . S
C695 C700 1.350 . S
C695 N703 1.427 . S
C696 H687 0.930 . S
C696 C694 1.378 . S
C696 C697 1.367 . S
C697 C696 1.367 . S
C697 C699 1.433 . S
C698 C694 1.350 . S
C698 C695 1.463 . S
C698 N702 1.427 . S
C699 H689 0.965 . S
C699 C697 1.433 . S
C699 N702 1.384 . S
C700 H691 0.929 . S
C700 C692 1.378 . S
C700 C695 1.350 . S
C701 H688 0.929 . S
C701 C693 1.433 . S
C701 N703 1.384 . S
N702 C698 1.427 . S
N702 C699 1.384 . S
N703 C695 1.427 . S
N703 C701 1.384 . S
H704 C710 0.930 . S
H705 C714 0.930 . S
H706 C719 0.929 . S
H707 C717 0.929 . S
H708 C712 0.929 . S
H709 C718 0.929 . S
C710 H704 0.930 . S
C710 C711 1.367 . S
C710 C718 1.378 . S
C711 C710 1.367 . S
C711 C719 1.433 . S
C712 H708 0.929 . S
C712 C714 1.378 . S
C712 C716 1.350 . S
C713 C716 1.463 . S
C713 C718 1.350 . S
C713 N721 1.427 . S
C714 H705 0.930 . S
C714 C712 1.378 . S
C714 C715 1.367 . S
C715 C714 1.367 . S
C715 C717 1.433 . S
C716 C712 1.350 . S
C716 C713 1.463 . S
C716 N720 1.427 . S
C717 H707 0.929 . S
C717 C715 1.433 . S
C717 N720 1.384 . S
C718 H709 0.929 . S
C718 C710 1.378 . S
C718 C713 1.350 . S
C719 H706 0.929 . S
C719 C711 1.433 . S
C719 N721 1.384 . S
N720 C716 1.427 . S
N720 C717 1.384 . S
N721 C713 1.427 . S
N721 C719 1.384 . S
H722 C728 0.930 . S
H723 C732 0.930 . S
H724 C737 0.929 . S
H725 C735 0.929 . S
H726 C730 0.929 . S
H727 C736 0.929 . S
C728 H722 0.930 . S
C728 C729 1.367 . S
C728 C736 1.378 . S
C729 C728 1.367 . S
C729 C737 1.433 . S
C730 H726 0.929 . S
C730 C732 1.378 . S
C730 C734 1.350 . S
C731 C734 1.463 . S
C731 C736 1.350 . S
C731 N739 1.427 . S
C732 H723 0.930 . S
C732 C730 1.378 . S
C732 C733 1.367 . S
C733 C732 1.367 . S
C733 C735 1.433 . S
C734 C730 1.350 . S
C734 C731 1.463 . S
C734 N738 1.427 . S
C735 H725 0.929 . S
C735 C733 1.433 . S
C735 N738 1.384 . S
C736 H727 0.929 . S
C736 C728 1.378 . S
C736 C731 1.350 . S
C737 H724 0.929 . S
C737 C729 1.433 . S
C737 N739 1.384 . S
N738 C734 1.427 . S
N738 C735 1.384 . S
N739 C731 1.427 . S
N739 C737 1.384 . S
H740 C746 0.930 . S
H741 C750 0.930 . S
H742 C755 0.929 . S
H743 C753 0.929 . S
H744 C748 0.929 . S
H745 C754 0.929 . S
C746 H740 0.930 . S
C746 C747 1.367 . S
C746 C754 1.378 . S
C747 C746 1.367 . S
C747 C755 1.433 . S
C748 H744 0.929 . S
C748 C750 1.378 . S
C748 C752 1.350 . S
C749 C752 1.463 . S
C749 C754 1.350 . S
C749 N757 1.427 . S
C750 H741 0.930 . S
C750 C748 1.378 . S
C750 C751 1.367 . S
C751 C750 1.367 . S
C751 C753 1.433 . S
C752 C748 1.350 . S
C752 C749 1.463 . S
C752 N756 1.427 . S
C753 H743 0.929 . S
C753 C751 1.433 . S
C753 N756 1.384 . S
C754 H745 0.929 . S
C754 C746 1.378 . S
C754 C749 1.350 . S
C755 H742 0.929 . S
C755 C747 1.433 . S
C755 N757 1.384 . S
N756 C752 1.427 . S
N756 C753 1.384 . S
N757 C749 1.427 . S
N757 C755 1.384 . S
H758 C764 0.930 . S
H759 C768 0.930 . S
H760 C773 0.929 . S
H761 C771 0.929 . S
H762 C766 0.929 . S
H763 C772 0.929 . S
C764 H758 0.930 . S
C764 C765 1.367 . S
C764 C772 1.378 . S
C765 C764 1.367 . S
C765 C773 1.433 . S
C766 H762 0.929 . S
C766 C768 1.378 . S
C766 C770 1.350 . S
C767 C770 1.463 . S
C767 C772 1.350 . S
C767 N775 1.427 . S
C768 H759 0.930 . S
C768 C766 1.378 . S
C768 C769 1.367 . S
C769 C768 1.367 . S
C769 C771 1.433 . S
C770 C766 1.350 . S
C770 C767 1.463 . S
C770 N774 1.427 . S
C771 H761 0.929 . S
C771 C769 1.433 . S
C771 N774 1.384 . S
C772 H763 0.929 . S
C772 C764 1.378 . S
C772 C767 1.350 . S
C773 H760 0.929 . S
C773 C765 1.433 . S
C773 N775 1.384 . S
N774 C770 1.427 . S
N774 C771 1.384 . S
N775 C767 1.427 . S
N775 C773 1.384 . S
H776 C782 0.930 . S
H777 C786 0.930 . S
H778 C791 0.929 . S
H779 C789 0.929 . S
H780 C784 0.929 . S
H781 C790 0.929 . S
C782 H776 0.930 . S
C782 C783 1.367 . S
C782 C790 1.378 . S
C783 C782 1.367 . S
C783 C791 1.433 . S
C784 H780 0.929 . S
C784 C786 1.378 . S
C784 C788 1.350 . S
C785 C788 1.463 . S
C785 C790 1.350 . S
C785 N793 1.427 . S
C786 H777 0.930 . S
C786 C784 1.378 . S
C786 C787 1.367 . S
C787 C786 1.367 . S
C787 C789 1.433 . S
C788 C784 1.350 . S
C788 C785 1.463 . S
C788 N792 1.427 . S
C789 H779 0.929 . S
C789 C787 1.433 . S
C789 N792 1.384 . S
C790 H781 0.929 . S
C790 C782 1.378 . S
C790 C785 1.350 . S
C791 H778 0.929 . S
C791 C783 1.433 . S
C791 N793 1.384 . S
N792 C788 1.427 . S
N792 C789 1.384 . S
N793 C785 1.427 . S
N793 C791 1.384 . S
H794 C800 0.930 . S
H795 C804 0.930 . S
H796 C809 0.918 1_455 S
H797 C807 0.929 . S
H798 C802 0.929 . S
H799 C808 0.929 . S
C800 H794 0.930 . S
C800 C801 1.367 . S
C800 C808 1.378 . S
C801 C800 1.367 . S
C801 C809 1.433 . S
C802 H798 0.929 . S
C802 C804 1.378 . S
C802 C806 1.350 . S
C803 C806 1.463 . S
C803 C808 1.350 . S
C803 N811 1.427 . S
C804 H795 0.930 . S
C804 C802 1.378 . S
C804 C805 1.367 . S
C805 C804 1.367 . S
C805 C807 1.433 . S
C806 C802 1.350 . S
C806 C803 1.463 . S
C806 N810 1.427 . S
C807 H797 0.929 . S
C807 C805 1.433 . S
C807 N810 1.384 . S
C808 H799 0.929 . S
C808 C800 1.378 . S
C808 C803 1.350 . S
C809 H796 0.918 1_655 S
C809 C801 1.433 . S
C809 N811 1.384 . S
N810 C806 1.427 . S
N810 C807 1.384 . S
N811 C803 1.427 . S
N811 C809 1.384 . S
H812 C818 0.930 . S
H813 C822 0.930 . S
H814 C827 0.929 . S
H815 C825 0.929 . S
H816 C820 0.929 . S
H817 C826 0.929 . S
C818 H812 0.930 . S
C818 C819 1.367 . S
C818 C826 1.378 . S
C819 C818 1.367 . S
C819 C827 1.433 . S
C820 H816 0.929 . S
C820 C822 1.378 . S
C820 C824 1.350 . S
C821 C824 1.463 . S
C821 C826 1.350 . S
C821 N829 1.427 . S
C822 H813 0.930 . S
C822 C820 1.378 . S
C822 C823 1.367 . S
C823 C822 1.367 . S
C823 C825 1.433 . S
C824 C820 1.350 . S
C824 C821 1.463 . S
C824 N828 1.427 . S
C825 H815 0.929 . S
C825 C823 1.433 . S
C825 N828 1.384 . S
C826 H817 0.929 . S
C826 C818 1.378 . S
C826 C821 1.350 . S
C827 H814 0.929 . S
C827 C819 1.433 . S
C827 N829 1.384 . S
N828 C824 1.427 . S
N828 C825 1.384 . S
N829 C821 1.427 . S
N829 C827 1.384 . S
H830 C836 0.930 . S
H831 C840 0.930 . S
H832 C845 0.929 . S
H833 C843 0.929 . S
H834 C838 0.929 . S
H835 C844 0.929 . S
C836 H830 0.930 . S
C836 C837 1.367 . S
C836 C844 1.378 . S
C837 C836 1.367 . S
C837 C845 1.433 . S
C838 H834 0.929 . S
C838 C840 1.378 . S
C838 C842 1.350 . S
C839 C842 1.463 . S
C839 C844 1.350 . S
C839 N847 1.427 . S
C840 H831 0.930 . S
C840 C838 1.378 . S
C840 C841 1.367 . S
C841 C840 1.367 . S
C841 C843 1.433 . S
C842 C838 1.350 . S
C842 C839 1.463 . S
C842 N846 1.427 . S
C843 H833 0.929 . S
C843 C841 1.433 . S
C843 N846 1.384 . S
C844 H835 0.929 . S
C844 C836 1.378 . S
C844 C839 1.350 . S
C845 H832 0.929 . S
C845 C837 1.433 . S
C845 N847 1.384 . S
N846 C842 1.427 . S
N846 C843 1.384 . S
N847 C839 1.427 . S
N847 C845 1.384 . S
H848 C854 0.930 . S
H849 C858 0.930 . S
H850 C863 0.929 . S
H851 C861 0.929 . S
H852 C856 0.929 . S
H853 C862 0.929 . S
C854 H848 0.930 . S
C854 C855 1.367 . S
C854 C862 1.378 . S
C855 C854 1.367 . S
C855 C863 1.433 . S
C856 H852 0.929 . S
C856 C858 1.378 . S
C856 C860 1.350 . S
C857 C860 1.463 . S
C857 C862 1.350 . S
C857 N865 1.427 . S
C858 H849 0.930 . S
C858 C856 1.378 . S
C858 C859 1.367 . S
C859 C858 1.367 . S
C859 C861 1.433 . S
C860 C856 1.350 . S
C860 C857 1.463 . S
C860 N864 1.427 . S
C861 H851 0.929 . S
C861 C859 1.433 . S
C861 N864 1.384 . S
C862 H853 0.929 . S
C862 C854 1.378 . S
C862 C857 1.350 . S
C863 H850 0.929 . S
C863 C855 1.433 . S
C863 N865 1.384 . S
N864 C860 1.427 . S
N864 C861 1.384 . S
N865 C857 1.427 . S
N865 C863 1.384 . S
H866 C872 0.930 . S
H867 C876 0.930 . S
H868 C881 0.929 . S
H869 C879 0.929 . S
H870 C874 0.929 . S
H871 C880 0.929 . S
C872 H866 0.930 . S
C872 C873 1.367 . S
C872 C880 1.378 . S
C873 C872 1.367 . S
C873 C881 1.433 . S
C874 H870 0.929 . S
C874 C876 1.378 . S
C874 C878 1.350 . S
C875 C878 1.463 . S
C875 C880 1.350 . S
C875 N883 1.427 . S
C876 H867 0.930 . S
C876 C874 1.378 . S
C876 C877 1.367 . S
C877 C876 1.367 . S
C877 C879 1.433 . S
C878 C874 1.350 . S
C878 C875 1.463 . S
C878 N882 1.427 . S
C879 H869 0.929 . S
C879 C877 1.433 . S
C879 N882 1.384 . S
C880 H871 0.929 . S
C880 C872 1.378 . S
C880 C875 1.350 . S
C881 H868 0.929 . S
C881 C873 1.433 . S
C881 N883 1.384 . S
N882 C878 1.427 . S
N882 C879 1.384 . S
N883 C875 1.427 . S
N883 C881 1.384 . S
H884 C890 0.930 . S
H885 C894 0.930 . S
H886 C899 0.929 . S
H887 C897 0.929 . S
H888 C892 0.929 . S
H889 C898 0.929 . S
C890 H884 0.930 . S
C890 C891 1.367 . S
C890 C898 1.378 . S
C891 C890 1.367 . S
C891 C899 1.433 . S
C892 H888 0.929 . S
C892 C894 1.378 . S
C892 C896 1.350 . S
C893 C896 1.463 . S
C893 C898 1.350 . S
C893 N901 1.427 . S
C894 H885 0.930 . S
C894 C892 1.378 . S
C894 C895 1.367 . S
C895 C894 1.367 . S
C895 C897 1.433 . S
C896 C892 1.350 . S
C896 C893 1.463 . S
C896 N900 1.427 . S
C897 H887 0.929 . S
C897 C895 1.433 . S
C897 N900 1.384 . S
C898 H889 0.929 . S
C898 C890 1.378 . S
C898 C893 1.350 . S
C899 H886 0.929 . S
C899 C891 1.433 . S
C899 N901 1.384 . S
N900 C896 1.427 . S
N900 C897 1.384 . S
N901 C893 1.427 . S
N901 C899 1.384 . S
H902 C908 0.930 . S
H903 C912 0.930 . S
H904 C917 0.929 . S
H905 C915 0.929 . S
H906 C910 0.929 . S
H907 C916 0.929 . S
C908 H902 0.930 . S
C908 C909 1.367 . S
C908 C916 1.378 . S
C909 C908 1.367 . S
C909 C917 1.433 . S
C910 H906 0.929 . S
C910 C912 1.378 . S
C910 C914 1.350 . S
C911 C914 1.463 . S
C911 C916 1.350 . S
C911 N919 1.427 . S
C912 H903 0.930 . S
C912 C910 1.378 . S
C912 C913 1.367 . S
C913 C912 1.367 . S
C913 C915 1.433 . S
C914 C910 1.350 . S
C914 C911 1.463 . S
C914 N918 1.427 . S
C915 H905 0.929 . S
C915 C913 1.433 . S
C915 N918 1.384 . S
C916 H907 0.929 . S
C916 C908 1.378 . S
C916 C911 1.350 . S
C917 H904 0.929 . S
C917 C909 1.433 . S
C917 N919 1.384 . S
N918 C914 1.427 . S
N918 C915 1.384 . S
N919 C911 1.427 . S
N919 C917 1.384 . S
H920 C926 0.930 . S
H921 C930 0.930 . S
H922 C935 0.929 . S
H923 C933 0.929 . S
H924 C928 0.929 . S
H925 C934 0.929 . S
C926 H920 0.930 . S
C926 C927 1.367 . S
C926 C934 1.378 . S
C927 C926 1.367 . S
C927 C935 1.433 . S
C928 H924 0.929 . S
C928 C930 1.378 . S
C928 C932 1.350 . S
C929 C932 1.463 . S
C929 C934 1.350 . S
C929 N937 1.427 . S
C930 H921 0.930 . S
C930 C928 1.378 . S
C930 C931 1.367 . S
C931 C930 1.367 . S
C931 C933 1.433 . S
C932 C928 1.350 . S
C932 C929 1.463 . S
C932 N936 1.427 . S
C933 H923 0.929 . S
C933 C931 1.433 . S
C933 N936 1.384 . S
C934 H925 0.929 . S
C934 C926 1.378 . S
C934 C929 1.350 . S
C935 H922 0.929 . S
C935 C927 1.433 . S
C935 N937 1.384 . S
N936 C932 1.427 . S
N936 C933 1.384 . S
N937 C929 1.427 . S
N937 C935 1.384 . S
H938 C944 0.930 . S
H939 C948 0.930 . S
H940 C953 0.929 . S
H941 C951 0.929 . S
H942 C946 0.929 . S
H943 C952 0.929 . S
C944 H938 0.930 . S
C944 C945 1.367 . S
C944 C952 1.378 . S
C945 C944 1.367 . S
C945 C953 1.433 . S
C946 H942 0.929 . S
C946 C948 1.378 . S
C946 C950 1.350 . S
C947 C950 1.463 . S
C947 C952 1.350 . S
C947 N955 1.427 . S
C948 H939 0.930 . S
C948 C946 1.378 . S
C948 C949 1.367 . S
C949 C948 1.367 . S
C949 C951 1.433 . S
C950 C946 1.350 . S
C950 C947 1.463 . S
C950 N954 1.427 . S
C951 H941 0.929 . S
C951 C949 1.433 . S
C951 N954 1.384 . S
C952 H943 0.929 . S
C952 C944 1.378 . S
C952 C947 1.350 . S
C953 H940 0.929 . S
C953 C945 1.433 . S
C953 N955 1.384 . S
N954 C950 1.427 . S
N954 C951 1.384 . S
N955 C947 1.427 . S
N955 C953 1.384 . S
H956 C962 0.930 . S
H957 C966 0.930 . S
H958 C971 0.929 . S
H959 C969 0.929 . S
H960 C964 0.929 . S
H961 C970 0.929 . S
C962 H956 0.930 . S
C962 C963 1.367 . S
C962 C970 1.378 . S
C963 C962 1.367 . S
C963 C971 1.433 . S
C964 H960 0.929 . S
C964 C966 1.378 . S
C964 C968 1.350 . S
C965 C968 1.463 . S
C965 C970 1.350 . S
C965 N973 1.427 . S
C966 H957 0.930 . S
C966 C964 1.378 . S
C966 C967 1.367 . S
C967 C966 1.367 . S
C967 C969 1.433 . S
C968 C964 1.350 . S
C968 C965 1.463 . S
C968 N972 1.427 . S
C969 H959 0.929 . S
C969 C967 1.433 . S
C969 N972 1.384 . S
C970 H961 0.929 . S
C970 C962 1.378 . S
C970 C965 1.350 . S
C971 H958 0.929 . S
C971 C963 1.433 . S
C971 N973 1.384 . S
N972 C968 1.427 . S
N972 C969 1.384 . S
N973 C965 1.427 . S
N973 C971 1.384 . S
H974 C980 0.930 . S
H975 C984 0.930 . S
H976 C989 0.929 . S
H977 C987 0.929 . S
H978 C982 0.929 . S
H979 C988 0.929 . S
C980 H974 0.930 . S
C980 C981 1.367 . S
C980 C988 1.378 . S
C981 C980 1.367 . S
C981 C989 1.433 . S
C982 H978 0.929 . S
C982 C984 1.378 . S
C982 C986 1.350 . S
C983 C986 1.463 . S
C983 C988 1.350 . S
C983 N991 1.427 . S
C984 H975 0.930 . S
C984 C982 1.378 . S
C984 C985 1.367 . S
C985 C984 1.367 . S
C985 C987 1.433 . S
C986 C982 1.350 . S
C986 C983 1.463 . S
C986 N990 1.427 . S
C987 H977 0.929 . S
C987 C985 1.433 . S
C987 N990 1.384 . S
C988 H979 0.929 . S
C988 C980 1.378 . S
C988 C983 1.350 . S
C989 H976 0.929 . S
C989 C981 1.433 . S
C989 N991 1.384 . S
N990 C986 1.427 . S
N990 C987 1.384 . S
N991 C983 1.427 . S
N991 C989 1.384 . S
H992 C998 0.930 . S
H993 C1002 0.930 . S
H994 C1007 0.929 . S
H995 C1005 0.929 . S
H996 C1000 0.929 . S
H997 C1006 0.929 . S
C998 H992 0.930 . S
C998 C999 1.367 . S
C998 C1006 1.378 . S
C999 C998 1.367 . S
C999 C1007 1.433 . S
C1000 H996 0.929 . S
C1000 C1002 1.378 . S
C1000 C1004 1.350 . S
C1001 C1004 1.463 . S
C1001 C1006 1.350 . S
C1001 N1009 1.427 . S
C1002 H993 0.930 . S
C1002 C1000 1.378 . S
C1002 C1003 1.367 . S
C1003 C1002 1.367 . S
C1003 C1005 1.433 . S
C1004 C1000 1.350 . S
C1004 C1001 1.463 . S
C1004 N1008 1.427 . S
C1005 H995 0.929 . S
C1005 C1003 1.433 . S
C1005 N1008 1.384 . S
C1006 H997 0.929 . S
C1006 C998 1.378 . S
C1006 C1001 1.350 . S
C1007 H994 0.929 . S
C1007 C999 1.433 . S
C1007 N1009 1.384 . S
N1008 C1004 1.427 . S
N1008 C1005 1.384 . S
N1009 C1001 1.427 . S
N1009 C1007 1.384 . S
H1010 C1016 0.930 . S
H1011 C1020 0.930 . S
H1012 C1025 0.929 . S
H1013 C1023 0.929 . S
H1014 C1018 0.930 1_655 S
H1015 C1024 0.930 1_455 S
C1016 H1010 0.930 . S
C1016 C1017 1.367 . S
C1016 C1024 1.377 . S
C1017 C1016 1.367 . S
C1017 C1025 1.433 . S
C1018 H1014 0.930 1_455 S
C1018 C1020 1.377 . S
C1018 C1022 1.349 . S
C1019 C1022 1.463 1_665 S
C1019 C1024 1.349 . S
C1019 N1027 1.427 . S
C1020 H1011 0.930 . S
C1020 C1018 1.377 . S
C1020 C1021 1.367 . S
C1021 C1020 1.367 . S
C1021 C1023 1.433 . S
C1022 C1018 1.349 . S
C1022 C1019 1.463 1_445 S
C1022 N1026 1.427 . S
C1023 H1013 0.929 . S
C1023 C1021 1.433 . S
C1023 N1026 1.384 . S
C1024 H1015 0.930 1_655 S
C1024 C1016 1.377 . S
C1024 C1019 1.349 . S
C1025 H1012 0.929 . S
C1025 C1017 1.433 . S
C1025 N1027 1.384 . S
N1026 C1022 1.427 . S
N1026 C1023 1.384 . S
N1027 C1019 1.427 . S
N1027 C1025 1.384 . S
H1028 C1034 0.930 . S
H1029 C1038 0.930 . S
H1030 C1043 0.929 . S
H1031 C1041 0.929 . S
H1032 C1036 0.929 . S
H1033 C1042 0.929 . S
C1034 H1028 0.930 . S
C1034 C1035 1.367 . S
C1034 C1042 1.378 . S
C1035 C1034 1.367 . S
C1035 C1043 1.433 . S
C1036 H1032 0.929 . S
C1036 C1038 1.378 . S
C1036 C1040 1.350 . S
C1037 C1040 1.463 . S
C1037 C1042 1.350 . S
C1037 N1045 1.427 . S
C1038 H1029 0.930 . S
C1038 C1036 1.378 . S
C1038 C1039 1.367 . S
C1039 C1038 1.367 . S
C1039 C1041 1.433 . S
C1040 C1036 1.350 . S
C1040 C1037 1.463 . S
C1040 N1044 1.427 . S
C1041 H1031 0.929 . S
C1041 C1039 1.433 . S
C1041 N1044 1.384 . S
C1042 H1033 0.929 . S
C1042 C1034 1.378 . S
C1042 C1037 1.350 . S
C1043 H1030 0.929 . S
C1043 C1035 1.433 . S
C1043 N1045 1.384 . S
N1044 C1040 1.427 . S
N1044 C1041 1.384 . S
N1045 C1037 1.427 . S
N1045 C1043 1.384 . S
H1046 C1052 0.930 . S
H1047 C1056 0.930 . S
H1048 C1061 0.929 . S
H1049 C1059 0.929 . S
H1050 C1054 0.929 . S
H1051 C1060 0.929 . S
C1052 H1046 0.930 . S
C1052 C1053 1.367 . S
C1052 C1060 1.378 . S
C1053 C1052 1.367 . S
C1053 C1061 1.433 1_554 S
C1054 H1050 0.929 . S
C1054 C1056 1.378 . S
C1054 C1058 1.350 . S
C1055 C1058 1.463 1_544 S
C1055 C1060 1.350 . S
C1055 N1063 1.427 1_554 S
C1056 H1047 0.930 . S
C1056 C1054 1.378 . S
C1056 C1057 1.367 . S
C1057 C1056 1.367 . S
C1057 C1059 1.433 1_556 S
C1058 C1054 1.350 . S
C1058 C1055 1.463 1_566 S
C1058 N1062 1.427 1_556 S
C1059 H1049 0.929 . S
C1059 C1057 1.433 1_554 S
C1059 N1062 1.384 . S
C1060 H1051 0.929 . S
C1060 C1052 1.378 . S
C1060 C1055 1.350 . S
C1061 H1048 0.929 . S
C1061 C1053 1.433 1_556 S
C1061 N1063 1.384 . S
N1062 C1058 1.427 1_554 S
N1062 C1059 1.384 . S
N1063 C1055 1.427 1_556 S
N1063 C1061 1.384 . S
H1064 C1070 0.930 . S
H1065 C1074 0.930 . S
H1066 C1079 0.929 . S
H1067 C1077 0.929 . S
H1068 C1072 0.929 . S
H1069 C1078 0.929 . S
C1070 H1064 0.930 . S
C1070 C1071 1.367 . S
C1070 C1078 1.378 . S
C1071 C1070 1.367 . S
C1071 C1079 1.433 . S
C1072 H1068 0.929 . S
C1072 C1074 1.378 . S
C1072 C1076 1.350 . S
C1073 C1076 1.463 . S
C1073 C1078 1.350 . S
C1073 N1081 1.427 . S
C1074 H1065 0.930 . S
C1074 C1072 1.378 . S
C1074 C1075 1.367 . S
C1075 C1074 1.367 . S
C1075 C1077 1.433 . S
C1076 C1072 1.350 . S
C1076 C1073 1.463 . S
C1076 N1080 1.427 . S
C1077 H1067 0.929 . S
C1077 C1075 1.433 . S
C1077 N1080 1.384 . S
C1078 H1069 0.929 . S
C1078 C1070 1.378 . S
C1078 C1073 1.350 . S
C1079 H1066 0.929 . S
C1079 C1071 1.433 . S
C1079 N1081 1.384 . S
N1080 C1076 1.427 . S
N1080 C1077 1.384 . S
N1081 C1073 1.427 . S
N1081 C1079 1.384 . S
H1082 C1088 0.930 . S
H1083 C1092 0.930 . S
H1084 C1097 0.929 . S
H1085 C1095 0.929 . S
H1086 C1090 0.929 . S
H1087 C1096 0.929 . S
C1088 H1082 0.930 . S
C1088 C1089 1.367 . S
C1088 C1096 1.378 . S
C1089 C1088 1.367 . S
C1089 C1097 1.433 . S
C1090 H1086 0.929 . S
C1090 C1092 1.378 . S
C1090 C1094 1.350 . S
C1091 C1094 1.463 1_565 S
C1091 C1096 1.350 . S
C1091 N1099 1.427 . S
C1092 H1083 0.930 . S
C1092 C1090 1.378 . S
C1092 C1093 1.367 . S
C1093 C1092 1.367 . S
C1093 C1095 1.433 . S
C1094 C1090 1.350 . S
C1094 C1091 1.463 1_545 S
C1094 N1098 1.427 . S
C1095 H1085 0.929 . S
C1095 C1093 1.433 . S
C1095 N1098 1.384 . S
C1096 H1087 0.929 . S
C1096 C1088 1.378 . S
C1096 C1091 1.350 . S
C1097 H1084 0.929 . S
C1097 C1089 1.433 . S
C1097 N1099 1.384 . S
N1098 C1094 1.427 . S
N1098 C1095 1.384 . S
N1099 C1091 1.427 . S
N1099 C1097 1.384 . S
H1100 C1106 0.930 . S
H1101 C1110 0.930 . S
H1102 C1115 0.929 . S
H1103 C1113 0.929 . S
H1104 C1108 0.929 . S
H1105 C1114 0.929 . S
C1106 H1100 0.930 . S
C1106 C1107 1.367 . S
C1106 C1114 1.378 . S
C1107 C1106 1.367 . S
C1107 C1115 1.433 . S
C1108 H1104 0.929 . S
C1108 C1110 1.378 . S
C1108 C1112 1.350 . S
C1109 C1112 1.463 . S
C1109 C1114 1.350 . S
C1109 N1117 1.427 . S
C1110 H1101 0.930 . S
C1110 C1108 1.378 . S
C1110 C1111 1.367 . S
C1111 C1110 1.367 . S
C1111 C1113 1.433 . S
C1112 C1108 1.350 . S
C1112 C1109 1.463 . S
C1112 N1116 1.427 . S
C1113 H1103 0.929 . S
C1113 C1111 1.433 . S
C1113 N1116 1.384 . S
C1114 H1105 0.929 . S
C1114 C1106 1.378 . S
C1114 C1109 1.350 . S
C1115 H1102 0.929 . S
C1115 C1107 1.433 . S
C1115 N1117 1.384 . S
N1116 C1112 1.427 . S
N1116 C1113 1.384 . S
N1117 C1109 1.427 . S
N1117 C1115 1.384 . S
H1118 C1124 0.930 . S
H1119 C1128 0.930 . S
H1120 C1133 0.929 . S
H1121 C1131 0.929 . S
H1122 C1126 0.929 . S
H1123 C1132 0.929 . S
C1124 H1118 0.930 . S
C1124 C1125 1.367 1_554 S
C1124 C1132 1.378 . S
C1125 C1124 1.367 1_556 S
C1125 C1133 1.433 . S
C1126 H1122 0.929 . S
C1126 C1128 1.378 . S
C1126 C1130 1.350 1_556 S
C1127 C1130 1.463 1_646 S
C1127 C1132 1.350 1_556 S
C1127 N1135 1.430 . S
C1128 H1119 0.930 . S
C1128 C1126 1.378 . S
C1128 C1129 1.367 1_556 S
C1129 C1128 1.367 1_554 S
C1129 C1131 1.433 . S
C1130 C1126 1.350 1_554 S
C1130 C1127 1.463 1_464 S
C1130 N1134 1.430 . S
C1131 H1121 0.929 . S
C1131 C1129 1.433 . S
C1131 N1134 1.389 . S
C1132 H1123 0.929 . S
C1132 C1124 1.378 . S
C1132 C1127 1.350 1_554 S
C1133 H1120 0.929 . S
C1133 C1125 1.433 . S
C1133 N1135 1.389 . S
N1134 C1130 1.430 . S
N1134 C1131 1.389 . S
N1135 C1127 1.430 . S
N1135 C1133 1.389 . S
H1136 C1142 0.930 . S
H1137 C1146 0.930 . S
H1138 C1151 0.929 . S
H1139 C1149 0.929 . S
H1140 C1144 0.929 . S
H1141 C1150 0.929 . S
C1142 H1136 0.930 . S
C1142 C1143 1.367 . S
C1142 C1150 1.378 . S
C1143 C1142 1.367 . S
C1143 C1151 1.433 . S
C1144 H1140 0.929 . S
C1144 C1146 1.378 . S
C1144 C1148 1.350 . S
C1145 C1148 1.463 . S
C1145 C1150 1.350 . S
C1145 N1153 1.427 . S
C1146 H1137 0.930 . S
C1146 C1144 1.378 . S
C1146 C1147 1.367 . S
C1147 C1146 1.367 . S
C1147 C1149 1.433 . S
C1148 C1144 1.350 . S
C1148 C1145 1.463 . S
C1148 N1152 1.427 . S
C1149 H1139 0.929 . S
C1149 C1147 1.433 . S
C1149 N1152 1.384 . S
C1150 H1141 0.929 . S
C1150 C1142 1.378 . S
C1150 C1145 1.350 . S
C1151 H1138 0.929 . S
C1151 C1143 1.433 . S
C1151 N1153 1.384 . S
N1152 C1148 1.427 . S
N1152 C1149 1.384 . S
N1153 C1145 1.427 . S
N1153 C1151 1.384 . S
H1154 C1160 0.930 . S
H1155 C1164 0.930 . S
H1156 C1169 0.929 . S
H1157 C1167 0.929 . S
H1158 C1162 0.929 . S
H1159 C1168 0.929 . S
C1160 H1154 0.930 . S
C1160 C1161 1.367 . S
C1160 C1168 1.378 . S
C1161 C1160 1.367 . S
C1161 C1169 1.433 . S
C1162 H1158 0.929 . S
C1162 C1164 1.378 . S
C1162 C1166 1.350 . S
C1163 C1166 1.463 . S
C1163 C1168 1.350 . S
C1163 N1171 1.427 . S
C1164 H1155 0.930 . S
C1164 C1162 1.378 . S
C1164 C1165 1.367 . S
C1165 C1164 1.367 . S
C1165 C1167 1.433 . S
C1166 C1162 1.350 . S
C1166 C1163 1.463 . S
C1166 N1170 1.427 . S
C1167 H1157 0.929 . S
C1167 C1165 1.433 . S
C1167 N1170 1.384 . S
C1168 H1159 0.929 . S
C1168 C1160 1.378 . S
C1168 C1163 1.350 . S
C1169 H1156 0.929 . S
C1169 C1161 1.433 . S
C1169 N1171 1.384 . S
N1170 C1166 1.427 . S
N1170 C1167 1.384 . S
N1171 C1163 1.427 . S
N1171 C1169 1.384 . S
H1172 C1178 0.930 . S
H1173 C1182 0.930 . S
H1174 C1187 0.929 . S
H1175 C1185 0.929 . S
H1176 C1180 0.929 . S
H1177 C1186 0.929 . S
C1178 H1172 0.930 . S
C1178 C1179 1.367 . S
C1178 C1186 1.378 . S
C1179 C1178 1.367 . S
C1179 C1187 1.433 . S
C1180 H1176 0.929 . S
C1180 C1182 1.378 . S
C1180 C1184 1.350 . S
C1181 C1184 1.463 . S
C1181 C1186 1.350 . S
C1181 N1189 1.427 . S
C1182 H1173 0.930 . S
C1182 C1180 1.378 . S
C1182 C1183 1.367 . S
C1183 C1182 1.367 . S
C1183 C1185 1.433 . S
C1184 C1180 1.350 . S
C1184 C1181 1.463 . S
C1184 N1188 1.427 . S
C1185 H1175 0.929 . S
C1185 C1183 1.433 . S
C1185 N1188 1.384 . S
C1186 H1177 0.929 . S
C1186 C1178 1.378 . S
C1186 C1181 1.350 . S
C1187 H1174 0.929 . S
C1187 C1179 1.433 . S
C1187 N1189 1.384 . S
N1188 C1184 1.427 . S
N1188 C1185 1.384 . S
N1189 C1181 1.427 . S
N1189 C1187 1.384 . S
H1190 C1196 0.930 . S
H1191 C1200 0.930 . S
H1192 C1205 0.929 . S
H1193 C1203 0.929 . S
H1194 C1198 0.929 . S
H1195 C1204 0.929 . S
C1196 H1190 0.930 . S
C1196 C1197 1.367 . S
C1196 C1204 1.378 . S
C1197 C1196 1.367 . S
C1197 C1205 1.433 . S
C1198 H1194 0.929 . S
C1198 C1200 1.378 . S
C1198 C1202 1.350 . S
C1199 C1202 1.463 . S
C1199 C1204 1.350 . S
C1199 N1207 1.427 . S
C1200 H1191 0.930 . S
C1200 C1198 1.378 . S
C1200 C1201 1.367 . S
C1201 C1200 1.367 . S
C1201 C1203 1.433 . S
C1202 C1198 1.350 . S
C1202 C1199 1.463 . S
C1202 N1206 1.427 . S
C1203 H1193 0.929 . S
C1203 C1201 1.433 . S
C1203 N1206 1.384 . S
C1204 H1195 0.929 . S
C1204 C1196 1.378 . S
C1204 C1199 1.350 . S
C1205 H1192 0.929 . S
C1205 C1197 1.433 . S
C1205 N1207 1.384 . S
N1206 C1202 1.427 . S
N1206 C1203 1.384 . S
N1207 C1199 1.427 . S
N1207 C1205 1.384 . S
H1208 C1214 0.930 . S
H1209 C1218 0.930 . S
H1210 C1223 0.929 . S
H1211 C1221 0.929 . S
H1212 C1216 0.929 . S
H1213 C1222 0.929 . S
C1214 H1208 0.930 . S
C1214 C1215 1.367 . S
C1214 C1222 1.378 . S
C1215 C1214 1.367 . S
C1215 C1223 1.433 . S
C1216 H1212 0.929 . S
C1216 C1218 1.378 . S
C1216 C1220 1.350 . S
C1217 C1220 1.463 1_554 S
C1217 C1222 1.350 . S
C1217 N1225 1.427 . S
C1218 H1209 0.930 . S
C1218 C1216 1.378 . S
C1218 C1219 1.367 . S
C1219 C1218 1.367 . S
C1219 C1221 1.433 . S
C1220 C1216 1.350 . S
C1220 C1217 1.463 1_556 S
C1220 N1224 1.427 . S
C1221 H1211 0.929 . S
C1221 C1219 1.433 . S
C1221 N1224 1.384 . S
C1222 H1213 0.929 . S
C1222 C1214 1.378 . S
C1222 C1217 1.350 . S
C1223 H1210 0.929 . S
C1223 C1215 1.433 . S
C1223 N1225 1.384 . S
N1224 C1220 1.427 . S
N1224 C1221 1.384 . S
N1225 C1217 1.427 . S
N1225 C1223 1.384 . S
H1226 C1232 0.930 . S
H1227 C1236 0.930 . S
H1228 C1241 0.929 1_455 S
H1229 C1239 0.929 1_655 S
H1230 C1234 0.929 . S
H1231 C1240 0.929 . S
C1232 H1226 0.930 . S
C1232 C1233 1.367 . S
C1232 C1240 1.378 . S
C1233 C1232 1.367 . S
C1233 C1241 1.433 . S
C1234 H1230 0.929 . S
C1234 C1236 1.378 . S
C1234 C1238 1.350 . S
C1235 C1238 1.463 1_655 S
C1235 C1240 1.350 . S
C1235 N1243 1.427 1_655 S
C1236 H1227 0.930 . S
C1236 C1234 1.378 . S
C1236 C1237 1.367 . S
C1237 C1236 1.367 . S
C1237 C1239 1.433 . S
C1238 C1234 1.350 . S
C1238 C1235 1.463 1_455 S
C1238 N1242 1.427 1_455 S
C1239 H1229 0.929 1_455 S
C1239 C1237 1.433 . S
C1239 N1242 1.384 1_455 S
C1240 H1231 0.929 . S
C1240 C1232 1.378 . S
C1240 C1235 1.350 . S
C1241 H1228 0.929 1_655 S
C1241 C1233 1.433 . S
C1241 N1243 1.384 1_655 S
N1242 C1238 1.427 1_655 S
N1242 C1239 1.384 1_655 S
N1243 C1235 1.427 1_455 S
N1243 C1241 1.384 1_455 S
H1244 C1250 0.944 . S
H1245 C1254 0.944 . S
H1246 C1259 0.929 . S
H1247 C1257 0.929 . S
H1248 C1252 0.929 . S
H1249 C1258 0.929 . S
C1250 H1244 0.944 . S
C1250 C1251 1.345 1_655 S
C1250 C1258 1.387 . S
C1251 C1250 1.345 1_455 S
C1251 C1259 1.433 1_556 S
C1252 H1248 0.929 . S
C1252 C1254 1.387 . S
C1252 C1256 1.350 1_455 S
C1253 C1256 1.463 1_456 S
C1253 C1258 1.350 1_455 S
C1253 N1261 1.427 1_556 S
C1254 H1245 0.944 . S
C1254 C1252 1.387 . S
C1254 C1255 1.345 1_455 S
C1255 C1254 1.345 1_655 S
C1255 C1257 1.433 1_554 S
C1256 C1252 1.350 1_655 S
C1256 C1253 1.463 1_654 S
C1256 N1260 1.427 1_554 S
C1257 H1247 0.929 . S
C1257 C1255 1.433 1_556 S
C1257 N1260 1.384 . S
C1258 H1249 0.929 . S
C1258 C1250 1.387 . S
C1258 C1253 1.350 1_655 S
C1259 H1246 0.929 . S
C1259 C1251 1.433 1_554 S
C1259 N1261 1.384 . S
N1260 C1256 1.427 1_556 S
N1260 C1257 1.384 . S
N1261 C1253 1.427 1_554 S
N1261 C1259 1.384 . S
H1262 C1268 0.930 . S
H1263 C1272 0.930 . S
H1264 C1277 0.929 . S
H1265 C1275 0.929 . S
H1266 C1270 0.929 . S
H1267 C1276 0.929 . S
C1268 H1262 0.930 . S
C1268 C1269 1.367 . S
C1268 C1276 1.378 . S
C1269 C1268 1.367 . S
C1269 C1277 1.433 . S
C1270 H1266 0.929 . S
C1270 C1272 1.378 . S
C1270 C1274 1.350 . S
C1271 C1274 1.463 . S
C1271 C1276 1.350 . S
C1271 N1279 1.427 . S
C1272 H1263 0.930 . S
C1272 C1270 1.378 . S
C1272 C1273 1.367 . S
C1273 C1272 1.367 . S
C1273 C1275 1.433 . S
C1274 C1270 1.350 . S
C1274 C1271 1.463 . S
C1274 N1278 1.427 . S
C1275 H1265 0.929 . S
C1275 C1273 1.433 . S
C1275 N1278 1.384 . S
C1276 H1267 0.929 . S
C1276 C1268 1.378 . S
C1276 C1271 1.350 . S
C1277 H1264 0.929 . S
C1277 C1269 1.433 . S
C1277 N1279 1.384 . S
N1278 C1274 1.427 . S
N1278 C1275 1.384 . S
N1279 C1271 1.427 . S
N1279 C1277 1.384 . S
H1280 C1286 0.930 . S
H1281 C1290 0.930 . S
H1282 C1295 0.929 . S
H1283 C1293 0.929 . S
H1284 C1288 0.929 . S
H1285 C1294 0.929 . S
C1286 H1280 0.930 . S
C1286 C1287 1.367 . S
C1286 C1294 1.378 . S
C1287 C1286 1.367 . S
C1287 C1295 1.433 . S
C1288 H1284 0.929 . S
C1288 C1290 1.378 . S
C1288 C1292 1.350 . S
C1289 C1292 1.463 . S
C1289 C1294 1.350 . S
C1289 N1297 1.427 . S
C1290 H1281 0.930 . S
C1290 C1288 1.378 . S
C1290 C1291 1.367 . S
C1291 C1290 1.367 . S
C1291 C1293 1.433 . S
C1292 C1288 1.350 . S
C1292 C1289 1.463 . S
C1292 N1296 1.427 . S
C1293 H1283 0.929 . S
C1293 C1291 1.433 . S
C1293 N1296 1.384 . S
C1294 H1285 0.929 . S
C1294 C1286 1.378 . S
C1294 C1289 1.350 . S
C1295 H1282 0.929 . S
C1295 C1287 1.433 . S
C1295 N1297 1.384 . S
N1296 C1292 1.427 . S
N1296 C1293 1.384 . S
N1297 C1289 1.427 . S
N1297 C1295 1.384 . S
H1298 C1304 0.930 . S
H1299 C1308 0.930 . S
H1300 C1313 0.929 . S
H1301 C1311 0.929 . S
H1302 C1306 0.929 . S
H1303 C1312 0.929 . S
C1304 H1298 0.930 . S
C1304 C1305 1.367 . S
C1304 C1312 1.378 . S
C1305 C1304 1.367 . S
C1305 C1313 1.433 . S
C1306 H1302 0.929 . S
C1306 C1308 1.378 . S
C1306 C1310 1.350 . S
C1307 C1310 1.463 . S
C1307 C1312 1.350 . S
C1307 N1315 1.427 . S
C1308 H1299 0.930 . S
C1308 C1306 1.378 . S
C1308 C1309 1.367 . S
C1309 C1308 1.367 . S
C1309 C1311 1.433 . S
C1310 C1306 1.350 . S
C1310 C1307 1.463 . S
C1310 N1314 1.427 . S
C1311 H1301 0.929 . S
C1311 C1309 1.433 . S
C1311 N1314 1.384 . S
C1312 H1303 0.929 . S
C1312 C1304 1.378 . S
C1312 C1307 1.350 . S
C1313 H1300 0.929 . S
C1313 C1305 1.433 . S
C1313 N1315 1.384 . S
N1314 C1310 1.427 . S
N1314 C1311 1.384 . S
N1315 C1307 1.427 . S
N1315 C1313 1.384 . S
H1316 C1322 0.930 . S
H1317 C1326 0.930 . S
H1318 C1331 0.929 . S
H1319 C1329 0.929 . S
H1320 C1324 0.929 . S
H1321 C1330 0.929 . S
C1322 H1316 0.930 . S
C1322 C1323 1.367 . S
C1322 C1330 1.378 . S
C1323 C1322 1.367 . S
C1323 C1331 1.433 . S
C1324 H1320 0.929 . S
C1324 C1326 1.378 . S
C1324 C1328 1.350 . S
C1325 C1328 1.463 . S
C1325 C1330 1.350 . S
C1325 N1333 1.427 . S
C1326 H1317 0.930 . S
C1326 C1324 1.378 . S
C1326 C1327 1.367 . S
C1327 C1326 1.367 . S
C1327 C1329 1.433 . S
C1328 C1324 1.350 . S
C1328 C1325 1.463 . S
C1328 N1332 1.427 . S
C1329 H1319 0.929 . S
C1329 C1327 1.433 . S
C1329 N1332 1.384 . S
C1330 H1321 0.929 . S
C1330 C1322 1.378 . S
C1330 C1325 1.350 . S
C1331 H1318 0.929 . S
C1331 C1323 1.433 . S
C1331 N1333 1.384 . S
N1332 C1328 1.427 . S
N1332 C1329 1.384 . S
N1333 C1325 1.427 . S
N1333 C1331 1.384 . S
H1334 C1340 0.930 . S
H1335 C1344 0.930 . S
H1336 C1349 0.929 . S
H1337 C1347 0.929 . S
H1338 C1342 0.929 . S
H1339 C1348 0.929 . S
C1340 H1334 0.930 . S
C1340 C1341 1.367 . S
C1340 C1348 1.378 . S
C1341 C1340 1.367 . S
C1341 C1349 1.433 . S
C1342 H1338 0.929 . S
C1342 C1344 1.378 . S
C1342 C1346 1.350 . S
C1343 C1346 1.463 . S
C1343 C1348 1.350 . S
C1343 N1351 1.427 . S
C1344 H1335 0.930 . S
C1344 C1342 1.378 . S
C1344 C1345 1.367 . S
C1345 C1344 1.367 . S
C1345 C1347 1.433 . S
C1346 C1342 1.350 . S
C1346 C1343 1.463 . S
C1346 N1350 1.427 . S
C1347 H1337 0.929 . S
C1347 C1345 1.433 . S
C1347 N1350 1.384 . S
C1348 H1339 0.929 . S
C1348 C1340 1.378 . S
C1348 C1343 1.350 . S
C1349 H1336 0.929 . S
C1349 C1341 1.433 . S
C1349 N1351 1.384 . S
N1350 C1346 1.427 . S
N1350 C1347 1.384 . S
N1351 C1343 1.427 . S
N1351 C1349 1.384 . S
H1352 C1358 0.930 . S
H1353 C1362 0.930 . S
H1354 C1367 0.929 . S
H1355 C1365 0.929 . S
H1356 C1360 0.929 . S
H1357 C1366 0.929 . S
C1358 H1352 0.930 . S
C1358 C1359 1.367 . S
C1358 C1366 1.378 . S
C1359 C1358 1.367 . S
C1359 C1367 1.433 . S
C1360 H1356 0.929 . S
C1360 C1362 1.378 . S
C1360 C1364 1.350 . S
C1361 C1364 1.463 . S
C1361 C1366 1.350 . S
C1361 N1369 1.427 . S
C1362 H1353 0.930 . S
C1362 C1360 1.378 . S
C1362 C1363 1.367 . S
C1363 C1362 1.367 . S
C1363 C1365 1.433 . S
C1364 C1360 1.350 . S
C1364 C1361 1.463 . S
C1364 N1368 1.427 . S
C1365 H1355 0.929 . S
C1365 C1363 1.433 . S
C1365 N1368 1.384 . S
C1366 H1357 0.929 . S
C1366 C1358 1.378 . S
C1366 C1361 1.350 . S
C1367 H1354 0.929 . S
C1367 C1359 1.433 . S
C1367 N1369 1.384 . S
N1368 C1364 1.427 . S
N1368 C1365 1.384 . S
N1369 C1361 1.427 . S
N1369 C1367 1.384 . S
H1370 C1376 0.930 . S
H1371 C1380 0.930 . S
H1372 C1385 0.929 . S
H1373 C1383 0.929 . S
H1374 C1378 0.929 . S
H1375 C1384 0.929 . S
C1376 H1370 0.930 . S
C1376 C1377 1.367 . S
C1376 C1384 1.378 . S
C1377 C1376 1.367 . S
C1377 C1385 1.433 . S
C1378 H1374 0.929 . S
C1378 C1380 1.378 . S
C1378 C1382 1.350 . S
C1379 C1382 1.463 . S
C1379 C1384 1.350 . S
C1379 N1387 1.427 . S
C1380 H1371 0.930 . S
C1380 C1378 1.378 . S
C1380 C1381 1.367 . S
C1381 C1380 1.367 . S
C1381 C1383 1.433 . S
C1382 C1378 1.350 . S
C1382 C1379 1.463 . S
C1382 N1386 1.427 . S
C1383 H1373 0.929 . S
C1383 C1381 1.433 . S
C1383 N1386 1.384 . S
C1384 H1375 0.929 . S
C1384 C1376 1.378 . S
C1384 C1379 1.350 . S
C1385 H1372 0.929 . S
C1385 C1377 1.433 . S
C1385 N1387 1.384 . S
N1386 C1382 1.427 . S
N1386 C1383 1.384 . S
N1387 C1379 1.427 . S
N1387 C1385 1.384 . S
H1388 C1394 0.930 . S
H1389 C1398 0.930 . S
H1390 C1403 0.929 . S
H1391 C1401 0.929 . S
H1392 C1396 0.929 . S
H1393 C1402 0.929 . S
C1394 H1388 0.930 . S
C1394 C1395 1.367 . S
C1394 C1402 1.378 . S
C1395 C1394 1.367 . S
C1395 C1403 1.433 . S
C1396 H1392 0.929 . S
C1396 C1398 1.378 . S
C1396 C1400 1.350 . S
C1397 C1400 1.463 . S
C1397 C1402 1.350 . S
C1397 N1405 1.427 . S
C1398 H1389 0.930 . S
C1398 C1396 1.378 . S
C1398 C1399 1.367 . S
C1399 C1398 1.367 . S
C1399 C1401 1.433 . S
C1400 C1396 1.350 . S
C1400 C1397 1.463 . S
C1400 N1404 1.427 . S
C1401 H1391 0.929 . S
C1401 C1399 1.433 . S
C1401 N1404 1.384 . S
C1402 H1393 0.929 . S
C1402 C1394 1.378 . S
C1402 C1397 1.350 . S
C1403 H1390 0.929 . S
C1403 C1395 1.433 . S
C1403 N1405 1.384 . S
N1404 C1400 1.427 . S
N1404 C1401 1.384 . S
N1405 C1397 1.427 . S
N1405 C1403 1.384 . S
H1406 C1412 0.930 . S
H1407 C1416 0.930 . S
H1408 C1421 0.929 . S
H1409 C1419 0.929 . S
H1410 C1414 0.929 . S
H1411 C1420 0.929 . S
C1412 H1406 0.930 . S
C1412 C1413 1.367 . S
C1412 C1420 1.378 . S
C1413 C1412 1.367 . S
C1413 C1421 1.433 . S
C1414 H1410 0.929 . S
C1414 C1416 1.378 . S
C1414 C1418 1.350 . S
C1415 C1418 1.463 . S
C1415 C1420 1.350 . S
C1415 N1423 1.427 . S
C1416 H1407 0.930 . S
C1416 C1414 1.378 . S
C1416 C1417 1.367 . S
C1417 C1416 1.367 . S
C1417 C1419 1.433 . S
C1418 C1414 1.350 . S
C1418 C1415 1.463 . S
C1418 N1422 1.427 . S
C1419 H1409 0.929 . S
C1419 C1417 1.433 . S
C1419 N1422 1.384 . S
C1420 H1411 0.929 . S
C1420 C1412 1.378 . S
C1420 C1415 1.350 . S
C1421 H1408 0.929 . S
C1421 C1413 1.433 . S
C1421 N1423 1.384 . S
N1422 C1418 1.427 . S
N1422 C1419 1.384 . S
N1423 C1415 1.427 . S
N1423 C1421 1.384 . S
H1424 C1430 0.930 . S
H1425 C1434 0.930 . S
H1426 C1439 0.929 . S
H1427 C1437 0.929 . S
H1428 C1432 0.929 . S
H1429 C1438 0.929 . S
C1430 H1424 0.930 . S
C1430 C1431 1.367 . S
C1430 C1438 1.378 . S
C1431 C1430 1.367 . S
C1431 C1439 1.433 . S
C1432 H1428 0.929 . S
C1432 C1434 1.378 . S
C1432 C1436 1.350 . S
C1433 C1436 1.463 . S
C1433 C1438 1.350 . S
C1433 N1441 1.427 . S
C1434 H1425 0.930 . S
C1434 C1432 1.378 . S
C1434 C1435 1.367 . S
C1435 C1434 1.367 . S
C1435 C1437 1.433 . S
C1436 C1432 1.350 . S
C1436 C1433 1.463 . S
C1436 N1440 1.427 . S
C1437 H1427 0.929 . S
C1437 C1435 1.433 . S
C1437 N1440 1.384 . S
C1438 H1429 0.929 . S
C1438 C1430 1.378 . S
C1438 C1433 1.350 . S
C1439 H1426 0.929 . S
C1439 C1431 1.433 . S
C1439 N1441 1.384 . S
N1440 C1436 1.427 . S
N1440 C1437 1.384 . S
N1441 C1433 1.427 . S
N1441 C1439 1.384 . S
H1442 C1448 0.930 . S
H1443 C1452 0.930 . S
H1444 C1457 0.929 . S
H1445 C1455 0.929 . S
H1446 C1450 0.929 . S
H1447 C1456 0.929 . S
C1448 H1442 0.930 . S
C1448 C1449 1.367 . S
C1448 C1456 1.378 . S
C1449 C1448 1.367 . S
C1449 C1457 1.433 . S
C1450 H1446 0.929 . S
C1450 C1452 1.378 . S
C1450 C1454 1.350 . S
C1451 C1454 1.463 . S
C1451 C1456 1.350 . S
C1451 N1459 1.427 . S
C1452 H1443 0.930 . S
C1452 C1450 1.378 . S
C1452 C1453 1.367 . S
C1453 C1452 1.367 . S
C1453 C1455 1.433 . S
C1454 C1450 1.350 . S
C1454 C1451 1.463 . S
C1454 N1458 1.427 . S
C1455 H1445 0.929 . S
C1455 C1453 1.433 . S
C1455 N1458 1.384 . S
C1456 H1447 0.929 . S
C1456 C1448 1.378 . S
C1456 C1451 1.350 . S
C1457 H1444 0.929 . S
C1457 C1449 1.433 . S
C1457 N1459 1.384 . S
N1458 C1454 1.427 . S
N1458 C1455 1.384 . S
N1459 C1451 1.427 . S
N1459 C1457 1.384 . S
H1460 C1466 0.930 . S
H1461 C1470 0.930 . S
H1462 C1475 0.929 . S
H1463 C1473 0.929 . S
H1464 C1468 0.929 . S
H1465 C1474 0.929 . S
C1466 H1460 0.930 . S
C1466 C1467 1.367 . S
C1466 C1474 1.378 . S
C1467 C1466 1.367 . S
C1467 C1475 1.433 . S
C1468 H1464 0.929 . S
C1468 C1470 1.378 . S
C1468 C1472 1.350 . S
C1469 C1472 1.463 . S
C1469 C1474 1.350 . S
C1469 N1477 1.427 . S
C1470 H1461 0.930 . S
C1470 C1468 1.378 . S
C1470 C1471 1.367 . S
C1471 C1470 1.367 . S
C1471 C1473 1.433 . S
C1472 C1468 1.350 . S
C1472 C1469 1.463 . S
C1472 N1476 1.427 . S
C1473 H1463 0.929 . S
C1473 C1471 1.433 . S
C1473 N1476 1.384 . S
C1474 H1465 0.929 . S
C1474 C1466 1.378 . S
C1474 C1469 1.350 . S
C1475 H1462 0.929 . S
C1475 C1467 1.433 . S
C1475 N1477 1.384 . S
N1476 C1472 1.427 . S
N1476 C1473 1.384 . S
N1477 C1469 1.427 . S
N1477 C1475 1.384 . S
H1478 C1484 0.930 . S
H1479 C1488 0.930 . S
H1480 C1493 0.929 . S
H1481 C1491 0.929 . S
H1482 C1486 0.929 . S
H1483 C1492 0.929 . S
C1484 H1478 0.930 . S
C1484 C1485 1.367 . S
C1484 C1492 1.378 . S
C1485 C1484 1.367 . S
C1485 C1493 1.433 . S
C1486 H1482 0.929 . S
C1486 C1488 1.378 . S
C1486 C1490 1.350 . S
C1487 C1490 1.463 . S
C1487 C1492 1.350 . S
C1487 N1495 1.427 . S
C1488 H1479 0.930 . S
C1488 C1486 1.378 . S
C1488 C1489 1.367 . S
C1489 C1488 1.367 . S
C1489 C1491 1.433 . S
C1490 C1486 1.350 . S
C1490 C1487 1.463 . S
C1490 N1494 1.427 . S
C1491 H1481 0.929 . S
C1491 C1489 1.433 . S
C1491 N1494 1.384 . S
C1492 H1483 0.929 . S
C1492 C1484 1.378 . S
C1492 C1487 1.350 . S
C1493 H1480 0.929 . S
C1493 C1485 1.433 . S
C1493 N1495 1.384 . S
N1494 C1490 1.427 . S
N1494 C1491 1.384 . S
N1495 C1487 1.427 . S
N1495 C1493 1.384 . S
H1496 C1502 0.930 . S
H1497 C1506 0.930 . S
H1498 C1511 0.929 . S
H1499 C1509 0.929 . S
H1500 C1504 0.929 . S
H1501 C1510 0.929 . S
C1502 H1496 0.930 . S
C1502 C1503 1.367 . S
C1502 C1510 1.378 . S
C1503 C1502 1.367 . S
C1503 C1511 1.433 . S
C1504 H1500 0.929 . S
C1504 C1506 1.378 . S
C1504 C1508 1.350 . S
C1505 C1508 1.463 . S
C1505 C1510 1.350 . S
C1505 N1513 1.427 . S
C1506 H1497 0.930 . S
C1506 C1504 1.378 . S
C1506 C1507 1.367 . S
C1507 C1506 1.367 . S
C1507 C1509 1.433 . S
C1508 C1504 1.350 . S
C1508 C1505 1.463 . S
C1508 N1512 1.427 . S
C1509 H1499 0.929 . S
C1509 C1507 1.433 . S
C1509 N1512 1.384 . S
C1510 H1501 0.929 . S
C1510 C1502 1.378 . S
C1510 C1505 1.350 . S
C1511 H1498 0.929 . S
C1511 C1503 1.433 . S
C1511 N1513 1.384 . S
N1512 C1508 1.427 . S
N1512 C1509 1.384 . S
N1513 C1505 1.427 . S
N1513 C1511 1.384 . S
H1514 C1520 0.930 . S
H1515 C1524 0.930 . S
H1516 C1529 0.929 . S
H1517 C1527 0.929 . S
H1518 C1522 0.929 . S
H1519 C1528 0.929 . S
C1520 H1514 0.930 . S
C1520 C1521 1.367 . S
C1520 C1528 1.378 . S
C1521 C1520 1.367 . S
C1521 C1529 1.433 . S
C1522 H1518 0.929 . S
C1522 C1524 1.378 . S
C1522 C1526 1.350 . S
C1523 C1526 1.463 . S
C1523 C1528 1.350 . S
C1523 N1531 1.427 . S
C1524 H1515 0.930 . S
C1524 C1522 1.378 . S
C1524 C1525 1.367 . S
C1525 C1524 1.367 . S
C1525 C1527 1.433 . S
C1526 C1522 1.350 . S
C1526 C1523 1.463 . S
C1526 N1530 1.427 . S
C1527 H1517 0.929 . S
C1527 C1525 1.433 . S
C1527 N1530 1.384 . S
C1528 H1519 0.929 . S
C1528 C1520 1.378 . S
C1528 C1523 1.350 . S
C1529 H1516 0.929 . S
C1529 C1521 1.433 . S
C1529 N1531 1.384 . S
N1530 C1526 1.427 . S
N1530 C1527 1.384 . S
N1531 C1523 1.427 . S
N1531 C1529 1.384 . S
H1532 C1538 0.930 . S
H1533 C1542 0.930 . S
H1534 C1547 0.929 . S
H1535 C1545 0.929 . S
H1536 C1540 0.929 . S
H1537 C1546 0.929 . S
C1538 H1532 0.930 . S
C1538 C1539 1.367 . S
C1538 C1546 1.378 . S
C1539 C1538 1.367 . S
C1539 C1547 1.433 . S
C1540 H1536 0.929 . S
C1540 C1542 1.378 . S
C1540 C1544 1.350 . S
C1541 C1544 1.463 . S
C1541 C1546 1.350 . S
C1541 N1549 1.427 . S
C1542 H1533 0.930 . S
C1542 C1540 1.378 . S
C1542 C1543 1.367 . S
C1543 C1542 1.367 . S
C1543 C1545 1.433 . S
C1544 C1540 1.350 . S
C1544 C1541 1.463 . S
C1544 N1548 1.427 . S
C1545 H1535 0.929 . S
C1545 C1543 1.433 . S
C1545 N1548 1.384 . S
C1546 H1537 0.929 . S
C1546 C1538 1.378 . S
C1546 C1541 1.350 . S
C1547 H1534 0.929 . S
C1547 C1539 1.433 . S
C1547 N1549 1.384 . S
N1548 C1544 1.427 . S
N1548 C1545 1.384 . S
N1549 C1541 1.427 . S
N1549 C1547 1.384 . S
H1550 C1556 0.930 . S
H1551 C1560 0.930 . S
H1552 C1565 0.929 . S
H1553 C1563 0.929 . S
H1554 C1558 0.929 . S
H1555 C1564 0.929 . S
C1556 H1550 0.930 . S
C1556 C1557 1.367 . S
C1556 C1564 1.378 . S
C1557 C1556 1.367 . S
C1557 C1565 1.433 . S
C1558 H1554 0.929 . S
C1558 C1560 1.378 . S
C1558 C1562 1.350 . S
C1559 C1562 1.463 . S
C1559 C1564 1.350 . S
C1559 N1567 1.427 . S
C1560 H1551 0.930 . S
C1560 C1558 1.378 . S
C1560 C1561 1.367 . S
C1561 C1560 1.367 . S
C1561 C1563 1.433 . S
C1562 C1558 1.350 . S
C1562 C1559 1.463 . S
C1562 N1566 1.427 . S
C1563 H1553 0.929 . S
C1563 C1561 1.433 . S
C1563 N1566 1.384 . S
C1564 H1555 0.929 . S
C1564 C1556 1.378 . S
C1564 C1559 1.350 . S
C1565 H1552 0.929 . S
C1565 C1557 1.433 . S
C1565 N1567 1.384 . S
N1566 C1562 1.427 . S
N1566 C1563 1.384 . S
N1567 C1559 1.427 . S
N1567 C1565 1.384 . S
C423 C122 0.847 . S
C427 C10 0.858 . S
C441 C23 0.860 . S
C445 C343 0.848 . S
C459 C148 0.838 . S
C463 C36 0.863 . S
C477 C317 0.841 . S
C481 C49 0.858 . S
C495 C62 0.867 . S
C499 C200 0.819 . S
C513 C369 0.811 . S
C517 C75 0.865 . S
C531 C88 0.859 . S
C535 C174 0.848 . S
C549 C395 0.816 . S
C553 C101 0.864 . S
C567 C18 0.813 . S
C571 C114 0.867 . S
C585 C127 0.860 . S
C589 C239 0.847 . S
C603 C44 0.847 . S
C607 C140 0.858 . S
C621 C153 0.867 . S
C625 C213 0.811 . S
C639 C166 0.859 . S
C643 C96 0.837 . S
C657 C265 0.831 . S
C661 C179 0.860 . S
C675 C192 0.864 . S
C679 C70 0.816 . S
C693 C291 0.812 . S
C697 C205 0.867 . S
C711 C330 0.824 . S
C715 C218 0.866 . S
C729 C135 0.846 . S
C733 C231 0.860 . S
C747 C244 0.864 . S
C751 C356 0.814 . S
C765 C109 0.849 . S
C769 C257 0.859 . S
C783 C408 0.826 . S
C787 C270 0.865 . S
C801 C283 0.867 . S
C805 C161 0.817 . S
C819 C382 0.827 . S
C823 C296 0.861 . S
C837 C187 0.846 . S
C841 C309 0.858 . S
C855 C226 0.841 . S
C859 C322 0.858 . S
C873 C335 0.865 . S
C877 C31 0.811 . S
C891 C348 0.863 . S
C895 C252 0.818 . S
C909 C361 0.860 . S
C913 C5 0.833 . S
C927 C304 0.811 . S
C931 C374 0.865 . S
C945 C387 0.864 . S
C949 C57 0.833 . S
C963 C400 0.865 . S
C967 C278 0.828 . S
C981 C413 0.863 . S
C985 C83 0.819 . S
C999 C312 1.225 . S
C1003 C0 1.225 . S
C1017 C13 1.230 . S
C1021 C117 1.230 . S
C1035 C26 1.243 . S
C1039 C338 1.243 . S
C1053 C39 1.239 . S
C1057 C143 1.239 . S
C1071 C52 1.231 . S
C1075 C364 1.231 . S
C1089 C65 1.228 . S
C1093 C169 1.228 . S
C1107 C390 1.240 . S
C1111 C78 1.240 . S
C1125 C91 1.239 . S
C1129 C195 1.239 . S
C1143 C104 1.239 . S
C1147 C208 1.239 . S
C1161 C130 1.243 . S
C1165 C234 1.243 . S
C1179 C260 1.245 . S
C1183 C156 1.245 . S
C1197 C286 1.245 . S
C1201 C182 1.245 . S
C1215 C221 1.245 . S
C1219 C325 1.245 . S
C1233 C351 1.242 . S
C1237 C247 1.242 . S
C1251 C273 1.225 . S
C1255 C377 1.225 . S
C1269 C403 1.242 . S
C1273 C299 1.242 . S
C1287 C281 1.620 . S
C1291 C8 1.622 . S
C1305 C294 1.616 . S
C1309 C21 1.618 . S
C1323 C34 1.612 . S
C1327 C307 1.614 . S
C1341 C268 1.609 . S
C1345 C47 1.608 . S
C1359 C255 1.624 . S
C1363 C60 1.623 . S
C1377 C216 1.617 . S
C1381 C73 1.614 . S
C1395 C86 1.624 . S
C1399 C229 1.622 . S
C1413 C242 1.616 . S
C1417 C99 1.618 . S
C1431 C385 1.612 . S
C1435 C112 1.610 . S
C1449 C398 1.609 . S
C1453 C125 1.611 . S
C1467 C411 1.617 . S
C1471 C138 1.620 . S
C1485 C151 1.623 . S
C1489 C372 1.624 . S
C1503 C359 1.613 . S
C1507 C164 1.611 . S
C1521 C320 1.610 . S
C1525 C177 1.612 . S
C1539 C333 1.618 . S
C1543 C190 1.616 . S
C1557 C346 1.623 . S
C1561 C203 1.624 . S
