# Generated by pormake.
# Topology wiu, (6)-cn, num edge types: 1
# Building blocks:
#     Node 0, Type 0, BuildingBlock: UKALOJ_clean_sbu_0, # of connection points: 6
#     Node 1, Type 0, BuildingBlock: UKALOJ_clean_sbu_0, # of connection points: 6
#     Node 2, Type 0, BuildingBlock: UKALOJ_clean_sbu_0, # of connection points: 6
#     Node 3, Type 0, BuildingBlock: UKALOJ_clean_sbu_0, # of connection points: 6
#     Node 4, Type 0, BuildingBlock: UKALOJ_clean_sbu_0, # of connection points: 6
#     Node 5, Type 0, BuildingBlock: UKALOJ_clean_sbu_0, # of connection points: 6
#     Node 6, Type 0, BuildingBlock: UKALOJ_clean_sbu_0, # of connection points: 6
#     Node 7, Type 0, BuildingBlock: UKALOJ_clean_sbu_0, # of connection points: 6
#     Node 8, Type 0, BuildingBlock: UKALOJ_clean_sbu_0, # of connection points: 6
#     Node 9, Type 0, BuildingBlock: UKALOJ_clean_sbu_0, # of connection points: 6
#     Node 10, Type 0, BuildingBlock: UKALOJ_clean_sbu_0, # of connection points: 6
#     Node 11, Type 0, BuildingBlock: UKALOJ_clean_sbu_0, # of connection points: 6
#     Node 12, Type 0, BuildingBlock: UKALOJ_clean_sbu_0, # of connection points: 6
#     Node 13, Type 0, BuildingBlock: UKALOJ_clean_sbu_0, # of connection points: 6
#     Node 14, Type 0, BuildingBlock: UKALOJ_clean_sbu_0, # of connection points: 6
#     Node 15, Type 0, BuildingBlock: UKALOJ_clean_sbu_0, # of connection points: 6
#     Edge 16, Type (0, 0), BuildingBlock: OJICUG_clean_linker_0, # of connection points: 2
#     Edge 17, Type (0, 0), BuildingBlock: OJICUG_clean_linker_0, # of connection points: 2
#     Edge 18, Type (0, 0), BuildingBlock: OJICUG_clean_linker_0, # of connection points: 2
#     Edge 19, Type (0, 0), BuildingBlock: OJICUG_clean_linker_0, # of connection points: 2
#     Edge 20, Type (0, 0), BuildingBlock: OJICUG_clean_linker_0, # of connection points: 2
#     Edge 21, Type (0, 0), BuildingBlock: OJICUG_clean_linker_0, # of connection points: 2
#     Edge 22, Type (0, 0), BuildingBlock: OJICUG_clean_linker_0, # of connection points: 2
#     Edge 23, Type (0, 0), BuildingBlock: OJICUG_clean_linker_0, # of connection points: 2
#     Edge 24, Type (0, 0), BuildingBlock: OJICUG_clean_linker_0, # of connection points: 2
#     Edge 25, Type (0, 0), BuildingBlock: OJICUG_clean_linker_0, # of connection points: 2
#     Edge 26, Type (0, 0), BuildingBlock: OJICUG_clean_linker_0, # of connection points: 2
#     Edge 27, Type (0, 0), BuildingBlock: OJICUG_clean_linker_0, # of connection points: 2
#     Edge 28, Type (0, 0), BuildingBlock: OJICUG_clean_linker_0, # of connection points: 2
#     Edge 29, Type (0, 0), BuildingBlock: OJICUG_clean_linker_0, # of connection points: 2
#     Edge 30, Type (0, 0), BuildingBlock: OJICUG_clean_linker_0, # of connection points: 2
#     Edge 31, Type (0, 0), BuildingBlock: OJICUG_clean_linker_0, # of connection points: 2
#     Edge 32, Type (0, 0), BuildingBlock: OJICUG_clean_linker_0, # of connection points: 2
#     Edge 33, Type (0, 0), BuildingBlock: OJICUG_clean_linker_0, # of connection points: 2
#     Edge 34, Type (0, 0), BuildingBlock: OJICUG_clean_linker_0, # of connection points: 2
#     Edge 35, Type (0, 0), BuildingBlock: OJICUG_clean_linker_0, # of connection points: 2
#     Edge 36, Type (0, 0), BuildingBlock: OJICUG_clean_linker_0, # of connection points: 2
#     Edge 37, Type (0, 0), BuildingBlock: OJICUG_clean_linker_0, # of connection points: 2
#     Edge 38, Type (0, 0), BuildingBlock: OJICUG_clean_linker_0, # of connection points: 2
#     Edge 39, Type (0, 0), BuildingBlock: OJICUG_clean_linker_0, # of connection points: 2
#     Edge 40, Type (0, 0), BuildingBlock: OJICUG_clean_linker_0, # of connection points: 2
#     Edge 41, Type (0, 0), BuildingBlock: OJICUG_clean_linker_0, # of connection points: 2
#     Edge 42, Type (0, 0), BuildingBlock: OJICUG_clean_linker_0, # of connection points: 2
#     Edge 43, Type (0, 0), BuildingBlock: OJICUG_clean_linker_0, # of connection points: 2
#     Edge 44, Type (0, 0), BuildingBlock: OJICUG_clean_linker_0, # of connection points: 2
#     Edge 45, Type (0, 0), BuildingBlock: OJICUG_clean_linker_0, # of connection points: 2
#     Edge 46, Type (0, 0), BuildingBlock: OJICUG_clean_linker_0, # of connection points: 2
#     Edge 47, Type (0, 0), BuildingBlock: OJICUG_clean_linker_0, # of connection points: 2
#     Edge 48, Type (0, 0), BuildingBlock: OJICUG_clean_linker_0, # of connection points: 2
#     Edge 49, Type (0, 0), BuildingBlock: OJICUG_clean_linker_0, # of connection points: 2
#     Edge 50, Type (0, 0), BuildingBlock: OJICUG_clean_linker_0, # of connection points: 2
#     Edge 51, Type (0, 0), BuildingBlock: OJICUG_clean_linker_0, # of connection points: 2
#     Edge 52, Type (0, 0), BuildingBlock: OJICUG_clean_linker_0, # of connection points: 2
#     Edge 53, Type (0, 0), BuildingBlock: OJICUG_clean_linker_0, # of connection points: 2
#     Edge 54, Type (0, 0), BuildingBlock: OJICUG_clean_linker_0, # of connection points: 2
#     Edge 55, Type (0, 0), BuildingBlock: OJICUG_clean_linker_0, # of connection points: 2
#     Edge 56, Type (0, 0), BuildingBlock: OJICUG_clean_linker_0, # of connection points: 2
#     Edge 57, Type (0, 0), BuildingBlock: OJICUG_clean_linker_0, # of connection points: 2
#     Edge 58, Type (0, 0), BuildingBlock: OJICUG_clean_linker_0, # of connection points: 2
#     Edge 59, Type (0, 0), BuildingBlock: OJICUG_clean_linker_0, # of connection points: 2
#     Edge 60, Type (0, 0), BuildingBlock: OJICUG_clean_linker_0, # of connection points: 2
#     Edge 61, Type (0, 0), BuildingBlock: OJICUG_clean_linker_0, # of connection points: 2
#     Edge 62, Type (0, 0), BuildingBlock: OJICUG_clean_linker_0, # of connection points: 2
#     Edge 63, Type (0, 0), BuildingBlock: OJICUG_clean_linker_0, # of connection points: 2
# Relax obj value: 0.430
# Max RMSD: 0.205
# Mean RMSD: 0.205
data_MOF--net-wiu--node1-UKALOJ_clean_sbu_0--edge1-OJICUG_clean_linker_0
_symmetry_space_group_name_H-M    P1
_symmetry_Int_Tables_number       1
_symmetry_cell_setting            triclinic
loop_
_symmetry_equiv_pos_as_xyz
'x, y, z'
_cell_length_a     19.464027
_cell_length_b     19.401387
_cell_length_c     54.098467
_cell_angle_alpha  90.267136
_cell_angle_beta   90.175526
_cell_angle_gamma 89.957401
loop_
_atom_site_label
_atom_site_type_symbol
_atom_site_fract_x
_atom_site_fract_y
_atom_site_fract_z
_atom_type_partial_charge
Zn0 Zn 0.42761 0.13385 0.12563 0.0
O1 O 0.3916 0.22559 0.14372 0.0
C2 C 0.29131 0.07252 0.13793 0.0
Zn3 Zn 0.35276 0.15665 0.09595 0.0
C4 C 0.3433 0.26322 0.1356 0.0
O5 O 0.3132 0.24564 0.11563 0.0
C6 C 0.45919 0.04138 0.0823 0.0
O7 O 0.41968 0.21631 0.07732 0.0
O8 O 0.4957 0.18995 0.1057 0.0
N9 N 0.28348 0.17158 0.068 0.0
C10 C 0.27556 0.22609 0.05284 0.0
C11 C 0.21524 0.14425 0.03809 0.0
N12 N 0.24513 0.12101 0.05898 0.0
N13 N 0.23366 0.21009 0.03381 0.0
C14 C 0.50143 0.14217 0.17595 0.0
C15 C 0.60347 0.10984 0.16746 0.0
N16 N 0.50185 0.12392 0.15197 0.0
N17 N 0.56537 0.10405 0.14665 0.0
N18 N 0.56462 0.13559 0.18583 0.0
H19 H 0.44071 0.21879 0.19405 0.0
H20 H 0.43811 0.13591 0.20842 0.0
H21 H 0.39076 0.15023 0.18037 0.0
C22 C 0.43872 0.1626 0.19032 0.0
C23 C 0.308 0.29565 0.05654 0.0
H24 H 0.31516 0.3075 0.07636 0.0
H25 H 0.27565 0.33631 0.04801 0.0
H26 H 0.35896 0.29694 0.0475 0.0
O27 O 0.4046 0.07172 0.07451 0.0
O28 O 0.47254 0.04631 0.1054 0.0
C29 C 0.4808 0.21513 0.08485 0.0
O30 O 0.35241 0.07605 0.1465 0.0
O31 O 0.27992 0.09403 0.11602 0.0
Zn32 Zn 0.63903 0.55148 0.32679 0.0
O33 O 0.57415 0.6018 0.30405 0.0
C34 C 0.74993 0.66912 0.31521 0.0
Zn35 Zn 0.65088 0.63665 0.35385 0.0
C36 C 0.57266 0.66582 0.30718 0.0
O37 O 0.59658 0.69291 0.327 0.0
C38 C 0.71709 0.51088 0.37422 0.0
O39 O 0.55992 0.5988 0.36964 0.0
O40 O 0.54799 0.5073 0.34631 0.0
N41 N 0.65048 0.71586 0.37882 0.0
C42 C 0.60111 0.73895 0.39419 0.0
C43 C 0.69667 0.77397 0.40844 0.0
N44 N 0.70978 0.73901 0.38746 0.0
N45 N 0.62878 0.77416 0.41337 0.0
C46 C 0.63069 0.47501 0.27586 0.0
C47 C 0.62875 0.36883 0.28569 0.0
N48 N 0.63891 0.47216 0.30068 0.0
N49 N 0.63791 0.40594 0.30669 0.0
N50 N 0.62332 0.41133 0.26619 0.0
H51 H 0.57667 0.55709 0.25797 0.0
H52 H 0.65245 0.52929 0.24206 0.0
H53 H 0.66024 0.58118 0.26954 0.0
C54 C 0.63045 0.53954 0.26063 0.0
C55 C 0.52547 0.73296 0.38938 0.0
H56 H 0.5152 0.72831 0.36925 0.0
H57 H 0.49876 0.77902 0.3969 0.0
H58 H 0.50429 0.68717 0.39876 0.0
O59 O 0.70431 0.57313 0.38033 0.0
O60 O 0.70522 0.49214 0.35191 0.0
C61 C 0.52647 0.54494 0.36422 0.0
O62 O 0.72385 0.61274 0.30664 0.0
O63 O 0.74 0.68219 0.33794 0.0
Zn64 Zn 0.13788 0.93643 0.62964 0.0
O65 O 0.17857 0.84753 0.64852 0.0
C66 C 0.27701 0.99838 0.63827 0.0
Zn67 Zn 0.20985 0.90771 0.59975 0.0
C68 C 0.22642 0.80914 0.64042 0.0
O69 O 0.25368 0.82325 0.61971 0.0
C70 C 0.10221 1.02349 0.58575 0.0
O71 O 0.14053 0.84025 0.58549 0.0
O72 O 0.06586 0.87725 0.61252 0.0
N73 N 0.27162 0.88599 0.56985 0.0
C74 C 0.25457 0.87946 0.54571 0.0
C75 C 0.35921 0.84898 0.54935 0.0
N76 N 0.33666 0.86696 0.57205 0.0
N77 N 0.30878 0.85622 0.53237 0.0
C78 C 0.07497 0.93282 0.68149 0.0
C79 C 0.96921 0.95509 0.67476 0.0
N80 N 0.06909 0.94924 0.65749 0.0
N81 N 1.00333 0.96301 0.65327 0.0
N82 N 1.01302 0.93434 0.69251 0.0
H83 H 0.14568 0.86267 0.69823 0.0
H84 H 0.14285 0.946 0.71265 0.0
H85 H 0.18642 0.93449 0.68369 0.0
C86 C 0.14157 0.91861 0.6946 0.0
C87 C 0.18429 0.89393 0.53533 0.0
H88 H 0.14384 0.8986 0.54911 0.0
H89 H 0.16884 0.85324 0.52195 0.0
H90 H 0.18547 0.94457 0.52607 0.0
O91 O 0.15552 0.99076 0.57826 0.0
O92 O 0.08897 1.02084 0.60886 0.0
C93 C 0.07939 0.84588 0.59263 0.0
O94 O 0.21665 0.9975 0.64745 0.0
O95 O 0.28602 0.97369 0.61657 0.0
Zn96 Zn 0.91637 0.44146 0.85338 0.0
O97 O 1.00499 0.47988 0.87061 0.0
C98 C 0.85237 0.57043 0.87179 0.0
Zn99 Zn 0.93304 0.52409 0.82567 0.0
C100 C 0.04057 0.53193 0.86502 0.0
O101 O 1.02307 0.56706 0.84603 0.0
C102 C 0.82082 0.40884 0.81307 0.0
O103 O 0.99799 0.46907 0.80423 0.0
O104 O 0.97322 0.38194 0.82847 0.0
N105 N 0.93894 0.60114 0.799 0.0
C106 C 0.94957 0.59612 0.77433 0.0
C107 C 0.95405 0.70283 0.7836 0.0
N108 N 0.94172 0.66766 0.80465 0.0
N109 N 0.96041 0.65885 0.76439 0.0
C110 C 0.96152 0.34154 0.89503 0.0
C111 C 0.86462 0.30929 0.90867 0.0
N112 N 0.91326 0.36475 0.87917 0.0
N113 N 0.85312 0.34339 0.88746 0.0
N114 N 0.93229 0.30783 0.91408 0.0
H115 H 0.04935 0.35068 0.87108 0.0
H116 H 0.06372 0.30121 0.89901 0.0
H117 H 0.05814 0.39318 0.90062 0.0
C118 C 0.03756 0.34697 0.89109 0.0
C119 C 0.94646 0.53044 0.75955 0.0
H120 H 0.91418 0.49135 0.76857 0.0
H121 H 0.9991 0.50932 0.75743 0.0
H122 H 0.92537 0.54028 0.74081 0.0
O123 O 0.8481 0.46475 0.80487 0.0
O124 O 0.82906 0.39577 0.8359 0.0
C125 C 0.99915 0.40566 0.80859 0.0
O126 O 0.86102 0.50782 0.87814 0.0
O127 O 0.8673 0.58778 0.84965 0.0
Zn128 Zn 0.72472 0.90647 0.96541 0.0
O129 O 0.76476 0.82732 0.94279 0.0
C130 C 0.85018 0.98861 0.95416 0.0
Zn131 Zn 0.80875 0.87957 0.99169 0.0
C132 C 0.81769 0.79067 0.9459 0.0
O133 O 0.85406 0.80166 0.9653 0.0
C134 C 0.68883 0.97943 1.01158 0.0
O135 O 0.75989 0.80248 1.00858 0.0
O136 O 0.67003 0.8339 0.98643 0.0
N137 N 0.88786 0.86343 1.01621 0.0
C138 C 0.88767 0.85786 0.04103 0.0
C139 C 0.98737 0.82759 1.02873 0.0
N140 N 0.9499 0.84469 1.00861 0.0
N141 N 0.94913 0.83529 0.0492 0.0
C142 C 0.6552 0.91884 0.91409 0.0
C143 C 0.55155 0.88851 0.92012 0.0
N144 N 0.64749 0.91193 0.93878 0.0
N145 N 0.58282 0.89309 0.94247 0.0
N146 N 0.59641 0.90394 0.90208 0.0
H147 H 0.71655 0.93807 0.88114 0.0
H148 H 0.72953 0.99633 0.90627 0.0
H149 H 0.76376 0.90994 0.90778 0.0
C150 C 0.71987 0.94153 0.90154 0.0
C151 C 0.8279 0.8758 0.05734 0.0
H152 H 0.77997 0.85217 0.05029 0.0
H153 H 0.83626 0.85898 0.07667 0.0
H154 H 0.82102 0.93255 0.0574 0.0
O155 O 0.74583 0.95003 1.01788 0.0
O156 O 0.67459 0.98152 0.98854 0.0
C157 C 0.69667 0.8 1.00428 0.0
O158 O 0.78912 0.97941 0.94621 0.0
O159 O 0.86781 0.9599 0.9743 0.0
Zn160 Zn 0.42426 0.49953 0.72382 0.0
O161 O 0.49645 0.43148 0.73468 0.0
C162 C 0.32019 0.39511 0.74672 0.0
Zn163 Zn 0.38159 0.42622 0.69638 0.0
C164 C 0.48803 0.36978 0.72808 0.0
O165 O 0.44926 0.35496 0.70996 0.0
C166 C 0.31251 0.56419 0.69353 0.0
O167 O 0.45772 0.4621 0.67032 0.0
O168 O 0.49589 0.53848 0.69667 0.0
N169 N 0.35209 0.35678 0.66959 0.0
C170 C 0.33595 0.36971 0.64584 0.0
C171 C 0.36194 0.26331 0.64793 0.0
N172 N 0.36765 0.29032 0.67091 0.0
N173 N 0.34181 0.31235 0.63196 0.0
C174 C 0.48521 0.56231 0.77164 0.0
C175 C 0.51762 0.6617 0.7595 0.0
N176 N 0.46475 0.56895 0.74802 0.0
N177 N 0.48508 0.63057 0.74046 0.0
N178 N 0.51957 0.61914 0.77902 0.0
H179 H 0.47171 0.45355 0.7786 0.0
H180 H 0.49475 0.50287 0.80559 0.0
H181 H 0.40993 0.50921 0.79282 0.0
C182 C 0.46507 0.5036 0.78812 0.0
C183 C 0.31799 0.43928 0.63574 0.0
H184 H 0.31054 0.43855 0.61543 0.0
H185 H 0.26884 0.45627 0.64408 0.0
H186 H 0.3588 0.47694 0.64035 0.0
O187 O 0.31196 0.50454 0.68359 0.0
O188 O 0.35 0.57429 0.71248 0.0
C189 C 0.50032 0.50943 0.6756 0.0
O190 O 0.35686 0.44823 0.7521 0.0
O191 O 0.31089 0.38146 0.72374 0.0
Zn192 Zn 0.85453 0.17445 0.46602 0.0
O193 O 0.81423 0.25521 0.44416 0.0
C194 C 0.72839 0.09537 0.45219 0.0
Zn195 Zn 0.76931 0.19874 0.4922 0.0
C196 C 0.76205 0.2927 0.44793 0.0
O197 O 0.72645 0.28143 0.46741 0.0
C198 C 0.88502 0.09533 0.51138 0.0
O199 O 0.82169 0.26958 0.51179 0.0
O200 O 0.90985 0.24432 0.48809 0.0
N201 N 0.69172 0.20873 0.51738 0.0
C202 C 0.67438 0.26186 0.53232 0.0
C203 C 0.6204 0.17356 0.5449 0.0
N204 N 0.65734 0.15411 0.52505 0.0
N205 N 0.63038 0.24095 0.54999 0.0
C206 C 0.92676 0.16261 0.41503 0.0
C207 C 1.0263 0.20445 0.4214 0.0
N208 N 0.93303 0.17141 0.43973 0.0
N209 N 0.99527 0.19726 0.44362 0.0
N210 N 0.98369 0.18362 0.40319 0.0
H211 H 0.85421 0.08176 0.4089 0.0
H212 H 0.8204 0.16895 0.40621 0.0
H213 H 0.87063 0.13041 0.38195 0.0
C214 C 0.86441 0.13463 0.40222 0.0
C215 C 0.6976 0.33496 0.52893 0.0
H216 H 0.70624 0.34594 0.5091 0.0
H217 H 0.65868 0.37127 0.53642 0.0
H218 H 0.74648 0.34378 0.53901 0.0
O219 O 0.82702 0.12312 0.51721 0.0
O220 O 0.90298 0.09754 0.4887 0.0
C221 C 0.88455 0.27367 0.50719 0.0
O222 O 0.79052 0.10367 0.44554 0.0
O223 O 0.70867 0.12335 0.47224 0.0
Zn224 Zn 0.18972 0.64587 0.1946 0.0
O225 O 0.1075 0.60688 0.17135 0.0
C226 C 0.26268 0.51146 0.18857 0.0
Zn227 Zn 0.15477 0.57096 0.22235 0.0
C228 C 0.06786 0.55758 0.1771 0.0
O229 O 0.07823 0.52709 0.19757 0.0
C230 C 0.26023 0.67963 0.24281 0.0
O231 O 0.08404 0.63604 0.23609 0.0
O232 O 0.12308 0.71424 0.21055 0.0
N233 N 0.12975 0.5015 0.24856 0.0
C234 C 0.07005 0.48921 0.26029 0.0
C235 C 0.14696 0.42744 0.27732 0.0
N236 N 0.17731 0.46232 0.25892 0.0
N237 N 0.07959 0.44336 0.27863 0.0
C238 C 0.20554 0.7095 0.14303 0.0
C239 C 0.22175 0.81639 0.15033 0.0
N240 N 0.21044 0.71682 0.16773 0.0
N241 N 0.22061 0.78332 0.17228 0.0
N242 N 0.21094 0.77101 0.13184 0.0
H243 H 0.15128 0.64011 0.11892 0.0
H244 H 0.2423 0.63848 0.11562 0.0
H245 H 0.20245 0.5971 0.14156 0.0
C246 C 0.20016 0.64212 0.12935 0.0
C247 C 1.00186 0.5197 0.25324 0.0
H248 H 0.99793 0.52627 0.233 0.0
H249 H 0.95918 0.48635 0.2596 0.0
H250 H 0.99604 0.57115 0.26196 0.0
O251 O 0.22604 0.62557 0.24865 0.0
O252 O 0.26539 0.69344 0.21976 0.0
C253 C 0.08788 0.6978 0.22929 0.0
O254 O 0.2598 0.57112 0.17887 0.0
O255 O 0.22904 0.50035 0.20824 0.0
Zn256 Zn 0.84596 0.67249 0.59771 0.0
O257 O 0.80347 0.75014 0.6203 0.0
C258 C 0.72328 0.5881 0.60946 0.0
Zn259 Zn 0.76204 0.69722 0.57098 0.0
C260 C 0.75108 0.78707 0.61655 0.0
O261 O 0.71626 0.77602 0.5968 0.0
C262 C 0.88331 0.59872 0.55158 0.0
O263 O 0.80924 0.77444 0.55307 0.0
O264 O 0.89738 0.74672 0.57663 0.0
N265 N 0.68173 0.71061 0.5469 0.0
C266 C 0.68063 0.71534 0.52208 0.0
C267 C 0.58188 0.74691 0.53495 0.0
N268 N 0.62026 0.73003 0.55486 0.0
N269 N 0.6189 0.73813 0.51425 0.0
C270 C 0.91726 0.66376 0.64896 0.0
C271 C 1.01792 0.70278 0.64284 0.0
N272 N 0.92409 0.67126 0.62426 0.0
N273 N 0.98689 0.69558 0.62052 0.0
N274 N 0.97467 0.68374 0.66095 0.0
H275 H 0.80918 0.66602 0.65637 0.0
H276 H 0.85959 0.63475 0.68186 0.0
H277 H 0.84786 0.58107 0.6555 0.0
C278 C 0.85494 0.63531 0.66147 0.0
C279 C 0.73969 0.69718 0.50547 0.0
H280 H 0.78746 0.72266 0.5118 0.0
H281 H 0.72963 0.71179 0.486 0.0
H282 H 0.74806 0.64066 0.5061 0.0
O283 O 0.82538 0.6261 0.54518 0.0
O284 O 0.89833 0.59891 0.57458 0.0
C285 C 0.87177 0.77946 0.5583 0.0
O286 O 0.78461 0.59769 0.61707 0.0
O287 O 0.70461 0.61693 0.58945 0.0
Zn288 Zn 0.16205 0.07021 0.84365 0.0
O289 O 0.09016 0.13654 0.83118 0.0
C290 C 0.26757 0.17455 0.82172 0.0
Zn291 Zn 0.20027 0.1459 0.87086 0.0
C292 C 0.09701 0.1989 0.83712 0.0
O293 O 0.13567 0.21632 0.85494 0.0
C294 C 0.26968 1.00792 0.87647 0.0
O295 O 0.1195 0.11292 0.89545 0.0
O296 O 0.08779 1.03157 0.86997 0.0
N297 N 0.22545 0.21771 0.8971 0.0
C298 C 0.23597 0.20827 0.92144 0.0
C299 C 0.21931 0.31591 0.9161 0.0
N300 N 0.21542 0.28469 0.89377 0.0
N301 N 0.23233 0.26873 0.93362 0.0
C302 C 0.09263 1.00573 0.79775 0.0
C303 C 0.07641 0.90228 0.80956 0.0
N304 N 0.12468 0.99858 0.81965 0.0
N305 N 0.11444 0.93434 0.82699 0.0
N306 N 0.06049 0.9466 0.79134 0.0
H307 H 0.13849 0.10333 0.78766 0.0
H308 H 0.04728 0.0984 0.78377 0.0
H309 H 0.10294 0.05496 0.7623 0.0
C310 C 0.09598 0.06922 0.78202 0.0
C311 C 0.24728 0.13963 0.93357 0.0
H312 H 0.24484 0.14301 0.954 0.0
H313 H 0.29903 0.12033 0.92851 0.0
H314 H 0.20877 0.10163 0.92722 0.0
O315 O 0.26743 0.06771 0.88637 0.0
O316 O 0.23615 0.99727 0.85662 0.0
C317 C 0.07916 0.0636 0.89029 0.0
O318 O 0.23199 0.12088 0.81612 0.0
O319 O 0.27526 0.18851 0.84473 0.0
Zn320 Zn 0.71786 0.39552 0.09951 0.0
O321 O 0.76087 0.31782 0.12175 0.0
C322 C 0.839 0.48023 0.11279 0.0
Zn323 Zn 0.80225 0.37488 0.07298 0.0
C324 C 0.8153 0.28385 0.11811 0.0
O325 O 0.8501 0.29698 0.09863 0.0
C326 C 0.68064 0.47227 0.05407 0.0
O327 O 0.75652 0.29768 0.05481 0.0
O328 O 0.6653 0.32283 0.07726 0.0
N329 N 0.8824 0.36312 0.04866 0.0
C330 C 0.88239 0.35886 1.02379 0.0
C331 C 0.98224 0.32872 0.03607 0.0
N332 N 0.94456 0.34451 0.05625 0.0
N333 N 0.94407 0.33723 1.01556 0.0
C334 C 0.62453 0.36487 0.14464 0.0
C335 C 0.59033 0.46596 0.15354 0.0
N336 N 0.64084 0.4057 0.12536 0.0
N337 N 0.61845 0.46833 0.13085 0.0
N338 N 0.59413 0.40172 0.16285 0.0
H339 H 0.63469 0.26763 0.12548 0.0
H340 H 0.58614 0.26488 0.15403 0.0
H341 H 0.67754 0.27207 0.15508 0.0
C342 C 0.63122 0.28788 0.14466 0.0
C343 C 0.82241 0.37666 1.00748 0.0
H344 H 0.77512 0.35074 1.01384 0.0
H345 H 0.83164 0.36226 0.98791 0.0
H346 H 0.81372 0.43311 1.00833 0.0
O347 O 0.73815 0.4451 0.04729 0.0
O348 O 0.66688 0.47115 0.07705 0.0
C349 C 0.69347 0.292 0.05887 0.0
O350 O 0.77869 0.46731 0.12061 0.0
O351 O 0.8573 0.45569 0.09196 0.0
Zn352 Zn 0.38668 0.9311 0.36592 0.0
O353 O 0.4705 0.96469 0.38882 0.0
C354 C 0.31718 0.06947 0.37271 0.0
Zn355 Zn 0.42149 1.00736 0.33879 0.0
C356 C 0.50858 1.0159 0.3842 0.0
O357 O 0.49788 0.04914 0.3643 0.0
C358 C 0.31456 0.90148 0.31783 0.0
O359 O 0.49069 0.93874 0.32523 0.0
O360 O 0.44874 0.85984 0.34992 0.0
N361 N 0.45097 0.07591 0.31273 0.0
C362 C 0.512 0.08525 0.30151 0.0
C363 C 0.43946 0.15059 0.28378 0.0
N364 N 0.40615 0.11738 0.30194 0.0
N365 N 0.50606 0.1314 0.2831 0.0
C366 C 0.35521 0.87547 0.41737 0.0
C367 C 0.34368 0.76696 0.41228 0.0
N368 N 0.3622 0.86273 0.39305 0.0
N369 N 0.35554 0.79519 0.38987 0.0
N370 N 0.34366 0.81662 0.42972 0.0
H371 H 0.38053 0.94149 0.44843 0.0
H372 H 0.30604 0.96684 0.43096 0.0
H373 H 0.38959 0.98281 0.41922 0.0
C374 C 0.35874 0.94546 0.42951 0.0
C375 C 0.57815 0.05129 0.30901 0.0
H376 H 0.58034 0.04372 0.32924 0.0
H377 H 0.62273 0.08286 0.30317 0.0
H378 H 0.58229 1.00007 0.3 0.0
O379 O 0.34985 0.95495 0.3121 0.0
O380 O 0.30863 0.8877 0.34087 0.0
C381 C 0.48476 0.87657 0.33145 0.0
O382 O 0.32107 1.00955 0.38213 0.0
O383 O 0.34853 0.08098 0.35258 0.0
Zn384 Zn 0.14626 0.44152 0.43831 0.0
O385 O 0.18372 0.34987 0.42066 0.0
C386 C 0.28251 0.50437 0.42585 0.0
Zn387 Zn 0.22199 0.41994 0.4676 0.0
C388 C 0.23401 0.31381 0.42813 0.0
O389 O 0.26517 0.3323 0.44783 0.0
C390 C 0.11206 0.53405 0.48078 0.0
O391 O 0.15747 0.35727 0.48617 0.0
O392 O 0.07879 0.38541 0.459 0.0
N393 N 0.29017 0.40946 0.496 0.0
C394 C 0.30011 0.35663 0.51176 0.0
C395 C 0.35174 0.44405 0.52674 0.0
N396 N 0.32297 0.46353 0.5052 0.0
N397 N 0.3377 0.37731 0.53143 0.0
C398 C 0.07975 0.44232 0.38694 0.0
C399 C 0.97245 0.43561 0.39476 0.0
N400 N 0.07286 0.44674 0.41157 0.0
N401 N 1.00622 0.44256 0.41647 0.0
N402 N 1.01792 0.43452 0.37613 0.0
H403 H 0.14216 0.43646 0.35349 0.0
H404 H 0.16377 0.50383 0.37473 0.0
H405 H 0.18657 0.41632 0.3817 0.0
C406 C 0.14661 0.44945 0.37337 0.0
C407 C 0.27571 0.28415 0.50742 0.0
H408 H 0.27458 0.27169 0.48748 0.0
H409 H 0.3098 0.2469 0.51701 0.0
H410 H 0.22301 0.27791 0.51474 0.0
O411 O 0.16641 0.50357 0.48872 0.0
O412 O 0.09936 0.52937 0.45763 0.0
C413 C 0.0957 0.3585 0.47939 0.0
O414 O 0.22174 0.49896 0.4171 0.0
O415 O 0.29346 0.48473 0.44797 0.0
Zn416 Zn 0.94007 1.02341 0.23889 0.0
O417 O 1.00456 0.97099 0.26101 0.0
C418 C 0.82816 0.90698 0.25065 0.0
Zn419 Zn 0.92519 0.93969 0.2113 0.0
C420 C 1.00564 0.90727 0.25723 0.0
O421 O 0.98081 0.88182 0.23727 0.0
C422 C 0.86042 0.06725 0.19211 0.0
O423 O 1.01533 0.97763 0.19489 0.0
O424 O 1.03088 0.06657 0.2192 0.0
N425 N 0.92314 0.86165 0.18575 0.0
C426 C 0.97104 0.83898 0.16969 0.0
C427 C 0.87412 0.80483 0.15636 0.0
N428 N 0.86303 0.83909 0.17764 0.0
N429 N 0.94154 0.80449 0.15069 0.0
C430 C 0.95398 0.09759 0.29007 0.0
C431 C 0.95926 0.20387 0.28058 0.0
N432 N 0.9438 0.10158 0.26535 0.0
N433 N 0.94701 0.16784 0.25956 0.0
N434 N 0.96506 0.16064 0.29988 0.0
H435 H 0.91854 0.99307 0.29601 0.0
H436 H 1.00326 1.0118 0.30756 0.0
H437 H 0.92921 0.04355 0.32366 0.0
C438 C 0.95063 1.03267 0.30505 0.0
C439 C 0.04707 0.84494 0.17354 0.0
H440 H 0.05936 0.84906 0.19354 0.0
H441 H 0.07308 0.79912 0.16553 0.0
H442 H 0.06716 0.89103 0.16402 0.0
O443 O 0.87052 1.00468 0.18577 0.0
O444 O 0.87448 0.08518 0.21435 0.0
C445 C 0.05028 1.03024 0.20067 0.0
O446 O 0.85493 0.96308 0.25918 0.0
O447 O 0.83697 0.89418 0.22783 0.0
Zn448 Zn 0.34702 0.65508 0.97067 0.0
O449 O 0.41848 0.71389 0.98778 0.0
C450 C 0.44678 0.5356 0.98514 0.0
Zn451 Zn 0.4186 0.6245 0.94109 0.0
C452 C 0.47934 0.70638 0.98047 0.0
O453 O 0.4923 0.67634 0.9602 0.0
C454 C 0.2784 0.57136 0.92984 0.0
O455 O 0.38724 0.71575 0.92142 0.0
O456 O 0.31354 0.74431 0.95003 0.0
N457 N 0.48575 0.60196 0.91391 0.0
C458 C 0.51895 0.64369 0.89818 0.0
C459 C 0.53038 0.5412 0.88483 0.0
N460 N 0.49393 0.53803 0.90588 0.0
N461 N 0.54657 0.60705 0.87944 0.0
C462 C 0.28869 0.70306 1.02126 0.0
C463 C 0.1856 0.7295 1.01184 0.0
N464 N 0.27851 0.6834 0.99758 0.0
N465 N 0.21441 0.69993 0.99179 0.0
N466 N 0.23166 0.7335 1.03043 0.0
H467 H 0.38282 0.64663 1.02762 0.0
H468 H 0.38595 0.73609 0.03569 0.0
H469 H 0.34082 0.6764 0.05517 0.0
C470 C 0.35316 0.6894 0.03573 0.0
C471 C 0.52818 0.71974 0.90187 0.0
H472 H 0.52949 0.73311 0.92175 0.0
H473 H 0.57681 0.73631 0.89323 0.0
H474 H 0.4854 0.74862 0.89321 0.0
O475 O 0.33926 0.57114 0.92127 0.0
O476 O 0.26859 0.59484 0.95164 0.0
C477 C 0.34271 0.75782 0.9296 0.0
O478 O 0.39407 0.56907 0.99298 0.0
O479 O 0.4583 0.53704 0.96193 0.0
Zn480 Zn 0.64119 0.13474 0.70953 0.0
O481 O 0.54969 0.0933 0.69513 0.0
C482 C 0.71018 1.00987 0.68923 0.0
Zn483 Zn 0.63369 0.05026 0.73692 0.0
C484 C 0.5191 0.03823 0.70079 0.0
O485 O 0.5435 1.00159 0.71839 0.0
C486 C 0.74149 0.17245 0.74725 0.0
O487 O 0.57107 0.09952 0.76091 0.0
O488 O 0.58626 0.18866 0.73673 0.0
N489 N 0.64188 0.97473 0.76346 0.0
C490 C 0.59626 0.95547 0.78094 0.0
C491 C 0.69407 0.91725 0.7919 0.0
N492 N 0.7025 0.95019 0.77023 0.0
N493 N 0.62793 0.92035 0.79925 0.0
C494 C 0.61749 0.21064 0.6602 0.0
C495 C 0.61646 0.31709 0.67015 0.0
N496 N 0.62863 0.21413 0.68477 0.0
N497 N 0.62747 0.28035 0.69098 0.0
N498 N 0.6089 0.27411 0.65073 0.0
H499 H 0.59477 0.14966 0.6272 0.0
H500 H 0.67771 0.13662 0.64063 0.0
H501 H 0.60237 0.10122 0.65493 0.0
C502 C 0.62279 0.14598 0.64494 0.0
C503 C 0.52021 0.96803 0.77956 0.0
H504 H 0.50252 0.96916 0.76012 0.0
H505 H 0.49207 0.92704 0.78957 0.0
H506 H 0.50727 1.01818 0.78825 0.0
O507 O 0.71763 0.11543 0.7559 0.0
O508 O 0.72939 0.18543 0.7246 0.0
C509 C 0.56505 0.16273 0.75698 0.0
O510 O 0.69677 0.07183 0.68307 0.0
O511 O 0.69892 0.99183 0.71153 0.0
C512 C 0.53285 0.26864 0.04791 0.0
C513 C 0.53463 0.21974 0.06684 0.0
H514 H 0.59623 0.32582 1.02334 0.0
C515 C 0.58938 0.17252 0.06823 0.0
H516 H 0.48891 0.30214 0.04528 0.0
C517 C 0.64705 0.18298 0.05389 0.0
C518 C 0.65296 0.24751 0.04309 0.0
H519 H 0.59017 0.13166 0.08175 0.0
H520 H 0.69243 0.15234 0.05772 0.0
C521 C 0.59296 0.28009 0.03469 0.0
C522 C 0.57449 0.76943 0.2844 0.0
C523 C 0.53791 0.7087 0.28922 0.0
H524 H 0.59148 0.87155 0.29865 0.0
C525 C 0.46881 0.71455 0.29536 0.0
H526 H 0.62513 0.76684 0.27622 0.0
C527 C 0.45096 0.77084 0.3098 0.0
C528 C 0.49863 0.82464 0.31307 0.0
H529 H 0.43632 0.66922 0.29591 0.0
H530 H 0.40311 0.76955 0.3199 0.0
C531 C 0.55682 0.82794 0.29796 0.0
C532 C 0.97337 0.89269 0.57461 0.0
C533 C 1.02653 0.84339 0.57389 0.0
H534 H 0.87511 0.92035 0.56046 0.0
C535 C 1.03176 0.79895 0.55342 0.0
H536 H 0.971 0.93181 0.58891 0.0
C537 C 0.97594 0.79416 0.53731 0.0
C538 C 0.91473 0.82646 0.54459 0.0
H539 H 0.07558 0.76513 0.55102 0.0
H540 H 0.97486 0.7523 0.52398 0.0
C541 C 0.91995 0.88809 0.55768 0.0
C542 C 1.02202 0.24201 0.80358 0.0
C543 C 0.07998 0.24968 0.81878 0.0
H544 H 0.95196 0.29617 0.78038 0.0
C545 C 0.12559 0.30469 0.8148 0.0
H546 H 0.98907 0.1972 0.80487 0.0
C547 C 0.10571 0.35809 0.79944 0.0
C548 C 0.03683 0.35987 0.79243 0.0
H549 H 0.17388 0.30867 0.8247 0.0
H550 H 0.13644 0.40467 0.79936 0.0
C551 C 1.0026 0.2971 0.78876 0.0
C552 C 0.59343 0.78822 1.02693 0.0
C553 C 0.65401 0.75592 1.01905 0.0
H554 H 0.48761 0.80252 1.01723 0.0
C555 C 0.65069 0.6895 1.00934 0.0
H556 H 0.59566 0.83712 0.03667 0.0
C557 C 0.59112 0.67161 0.99694 0.0
C558 C 0.53444 0.71641 0.99782 0.0
H559 H 0.69727 0.66097 1.00529 0.0
H560 H 0.59173 0.62697 0.98487 0.0
C561 C 0.53262 0.77016 1.01512 0.0
C562 C 0.46054 0.21257 0.76595 0.0
C563 C 0.52786 0.20582 0.77435 0.0
H564 H 0.40243 0.26421 0.73815 0.0
C565 C 0.56416 0.2667 0.77945 0.0
H566 H 0.42654 0.16834 0.76562 0.0
C567 C 0.55209 0.32276 0.76399 0.0
C568 C 0.49804 0.31801 0.74681 0.0
H569 H 0.6118 0.26489 0.78982 0.0
H570 H 0.58734 0.36596 0.76402 0.0
C571 C 0.44819 0.26597 0.74955 0.0
C572 C 0.04772 0.29773 0.51559 0.0
C573 C 0.04345 0.34986 0.49785 0.0
H574 H 0.98775 0.23508 0.53954 0.0
C575 C 0.9879 0.3962 0.49816 0.0
H576 H 0.09235 0.26454 0.51687 0.0
C577 C 0.93174 0.38235 0.51293 0.0
C578 C 0.9279 0.31627 0.52265 0.0
H579 H 0.98526 0.43924 0.48558 0.0
H580 H 0.88556 0.41278 0.51029 0.0
C581 C 0.98919 0.28292 0.52929 0.0
C582 C 1.02023 0.74525 0.26415 0.0
C583 C 0.07573 0.74981 0.24778 0.0
H584 H 0.95664 0.80415 0.2884 0.0
C585 C 0.1243 0.80295 0.25073 0.0
H586 H 0.98546 0.7017 0.26378 0.0
C587 C 0.10996 0.85715 0.26665 0.0
C588 C 0.04207 0.86309 0.27431 0.0
H589 H 0.17042 0.80504 0.23965 0.0
H590 H 0.14313 0.90201 0.26625 0.0
C591 C 1.00566 0.80221 0.279 0.0
C592 C 0.51135 1.03386 0.03861 0.0
C593 C 0.51565 1.01809 0.06408 0.0
H594 H 0.56037 1.03665 1.00299 0.0
C595 C 0.57969 0.99106 0.07221 0.0
H596 H 0.46457 0.05607 1.03125 0.0
C597 C 0.63625 0.98095 0.05579 0.0
C598 C 0.63196 0.99766 1.03036 0.0
H599 H 0.5869 0.97916 0.09157 0.0
H600 H 0.68336 0.95931 0.06308 0.0
C601 C 0.56767 1.02386 1.02228 0.0
C602 C 0.79343 0.79319 0.30855 0.0
C603 C 0.77498 0.72796 0.29845 0.0
H604 H 0.82271 0.89925 0.30236 0.0
C605 C 0.77108 0.72447 0.2724 0.0
H606 H 0.79623 0.79977 0.32841 0.0
C607 C 0.78512 0.78278 0.25733 0.0
C608 C 0.80349 0.84804 0.26743 0.0
H609 H 0.7559 0.67671 0.26352 0.0
H610 H 0.78225 0.7762 0.23747 0.0
C611 C 0.80755 0.85149 0.29348 0.0
C612 C 0.98093 0.06939 0.57432 0.0
C613 C 0.04808 0.04919 0.56709 0.0
H614 H 0.87761 0.09782 0.56335 0.0
C615 C 0.05915 0.04377 0.54136 0.0
H616 H 0.96877 0.07375 0.59378 0.0
C617 C 1.00609 0.0557 0.52384 0.0
C618 C 0.93863 0.07448 0.53096 0.0
H619 H 0.10928 1.02964 0.53456 0.0
H620 H 1.01867 0.05101 0.50442 0.0
C621 C 0.92761 0.08192 0.55671 0.0
C622 C 0.79973 0.35447 0.76986 0.0
C623 C 0.79592 0.35044 0.7959 0.0
H624 H 0.78764 0.30345 0.73459 0.0
C625 C 0.77745 0.28513 0.8056 0.0
H626 H 0.81488 0.40239 0.76128 0.0
C627 C 0.76321 0.22724 0.79018 0.0
C628 C 0.76682 0.23125 0.76415 0.0
H629 H 0.77472 0.27815 0.82541 0.0
H630 H 0.74799 0.17935 0.79878 0.0
C631 C 0.78517 0.29657 0.75441 0.0
C632 C 0.32663 0.34616 0.79108 0.0
C633 C 0.30196 0.34113 0.76647 0.0
H634 H 0.33728 0.29944 0.82705 0.0
C635 C 0.26872 0.27843 0.76018 0.0
H636 H 0.35364 0.39209 0.79699 0.0
C637 C 0.26068 0.2239 0.77747 0.0
C638 C 0.2854 0.22891 0.80207 0.0
H639 H 0.24977 0.27068 0.74154 0.0
H640 H 0.23389 0.17784 0.77153 0.0
C641 C 0.31835 0.29172 0.8084 0.0
C642 C 0.31924 0.85203 0.27346 0.0
C643 C 0.29571 0.84702 0.29815 0.0
H644 H 0.32888 0.80493 0.23738 0.0
C645 C 0.26368 0.784 0.30451 0.0
H646 H 0.34548 0.89826 0.26754 0.0
C647 C 0.25553 0.72918 0.28715 0.0
C648 C 0.27905 0.73419 0.26247 0.0
H649 H 0.24571 0.77633 0.32321 0.0
H650 H 0.22929 0.68295 0.29308 0.0
C651 C 0.31098 0.79725 0.2561 0.0
C652 C 0.99096 0.58329 0.4907 0.0
C653 C 0.05555 0.5578 0.49891 0.0
H654 H 0.88716 0.61463 0.49985 0.0
C655 C 0.06069 0.54423 0.52452 0.0
H656 H 0.98312 0.59346 0.47124 0.0
C657 C 1.00469 0.55496 0.54094 0.0
C658 C 0.9399 0.57971 0.53279 0.0
H659 H 0.10796 0.52331 0.53198 0.0
H660 H 1.01266 0.54391 0.56033 0.0
C661 C 0.93473 0.59418 0.50721 0.0
C662 C 0.62579 0.47613 1.01021 0.0
C663 C 0.62286 0.49153 0.03578 0.0
H664 H 0.57428 0.4754 0.97474 0.0
C665 C 0.55893 0.51698 0.04448 0.0
H666 H 0.67255 0.45502 1.00246 0.0
C667 C 0.50157 0.52745 1.02857 0.0
C668 C 0.50446 0.51283 1.00297 0.0
H669 H 0.55267 0.52859 0.06394 0.0
H670 H 0.45494 0.54832 0.03646 0.0
C671 C 0.56818 0.48657 0.99424 0.0
C672 C 0.30715 0.3881 0.13612 0.0
C673 C 0.32497 0.32787 0.14901 0.0
H674 H 0.27683 0.49435 0.13845 0.0
C675 C 0.32815 0.33073 0.17497 0.0
H676 H 0.30514 0.38784 0.11611 0.0
C677 C 0.31143 0.39145 0.18779 0.0
C678 C 0.29273 0.45158 0.17499 0.0
H679 H 0.34127 0.28523 0.18545 0.0
H680 H 0.31156 0.39085 0.20782 0.0
C681 C 0.29205 0.44947 0.14894 0.0
C682 C 0.46563 0.54439 0.40506 0.0
C683 C 0.46409 0.52954 0.37951 0.0
H684 H 0.4107 0.5494 0.43939 0.0
C685 C 0.40087 0.5097 0.36902 0.0
H686 H 0.51318 0.56047 0.41381 0.0
C687 C 0.34101 0.50531 0.38373 0.0
C688 C 0.34289 0.51969 0.40939 0.0
H689 H 0.39728 0.49925 0.34938 0.0
H690 H 0.29365 0.48885 0.37505 0.0
C691 C 0.40646 0.53892 0.41975 0.0
C692 C 0.25888 0.68423 0.6416 0.0
C693 C 0.24629 0.74619 0.65427 0.0
H694 H 0.28677 0.57814 0.64401 0.0
C695 C 0.25021 0.74649 0.68024 0.0
H696 H 0.25553 0.68217 0.62161 0.0
C697 C 0.2686 0.6866 0.69319 0.0
C698 C 0.28181 0.62451 0.6805 0.0
H699 H 0.24147 0.79362 0.6905 0.0
H700 H 0.27393 0.68926 0.71311 0.0
C701 C 0.27563 0.62408 0.65455 0.0
C702 C 0.09529 0.53877 0.90698 0.0
C703 C 0.10099 0.54803 0.88121 0.0
H704 H 0.14574 0.53824 0.94237 0.0
C705 C 0.16625 0.56242 0.87149 0.0
H706 H 0.04591 0.5267 0.91508 0.0
C707 C 0.22425 0.56664 0.88717 0.0
C708 C 0.21835 0.55775 0.91302 0.0
H709 H 0.17283 0.56833 0.85174 0.0
H710 H 0.27365 0.57837 0.87905 0.0
C711 C 0.15274 0.54443 0.92265 0.0
C712 C 0.86305 0.61625 0.91579 0.0
C713 C 0.83976 0.62511 0.89118 0.0
H714 H 0.8772 0.66129 0.95208 0.0
C715 C 0.81273 0.68984 0.88482 0.0
H716 H 0.88571 0.5677 0.92136 0.0
C717 C 0.80766 0.74317 0.90248 0.0
C718 C 0.83145 0.73483 0.92702 0.0
H719 H 0.7952 0.69934 0.86611 0.0
H720 H 0.78483 0.79144 0.89678 0.0
C721 C 0.85955 0.67043 0.93338 0.0
C722 C 0.62128 0.54917 0.66777 0.0
C723 C 0.55796 0.52605 0.65836 0.0
H724 H 0.72323 0.58283 0.66013 0.0
C725 C 0.5519 0.51631 0.6326 0.0
H726 H 0.62844 0.55592 0.6875 0.0
C727 C 0.60656 0.53324 0.61666 0.0
C728 C 0.66965 0.55777 0.62611 0.0
H729 H 0.50418 0.4976 0.62471 0.0
H730 H 0.59896 0.5284 0.59689 0.0
C731 C 0.6764 0.56373 0.65196 0.0
C732 C 0.77095 0.34133 0.40483 0.0
C733 C 0.74717 0.3488 0.42938 0.0
H734 H 0.78074 0.38515 0.36856 0.0
C735 C 0.71626 0.41197 0.43585 0.0
H736 H 0.79559 0.29394 0.39901 0.0
C737 C 0.70976 0.4657 0.41834 0.0
C738 C 0.73283 0.45753 0.39369 0.0
H739 H 0.69829 0.42039 0.45455 0.0
H740 H 0.68486 0.51316 0.42396 0.0
C741 C 0.7631 0.39414 0.38727 0.0
C742 C 0.89234 0.49212 0.15508 0.0
C743 C 0.89278 0.50886 0.12975 0.0
H744 H 0.94752 0.49199 0.1896 0.0
C745 C 0.95092 0.54261 0.12031 0.0
H746 H 0.84914 0.46474 0.16292 0.0
C747 C 1.00703 0.55884 0.13569 0.0
C748 C 1.0079 0.53975 0.1608 0.0
H749 H 0.95351 0.55548 0.10087 0.0
H750 H 0.0505 0.58497 0.1277 0.0
C751 C 0.94937 0.50666 0.17032 0.0
C752 C 0.76143 0.83794 0.65944 0.0
C753 C 0.73655 0.84385 0.63495 0.0
H754 H 0.77346 0.88441 0.69535 0.0
C755 C 0.70613 0.90683 0.62817 0.0
H756 H 0.78599 0.79079 0.66545 0.0
C757 C 0.70106 0.96189 0.64534 0.0
C758 C 0.72519 0.95545 0.66993 0.0
H759 H 0.68756 0.91413 0.60948 0.0
H760 H 0.67641 1.0089 0.63942 0.0
C761 C 0.75507 0.8922 0.67665 0.0
C762 C 0.90206 1.00634 0.91206 0.0
C763 C 0.90488 1.01777 0.93778 0.0
H764 H 0.95477 1.00922 0.87728 0.0
C765 C 0.96562 0.04634 0.9477 0.0
H766 H 0.85725 0.98343 0.90365 0.0
C767 C 1.02179 0.06235 0.93235 0.0
C768 C 1.01974 0.04764 0.90681 0.0
H769 H 0.97016 0.0552 0.96742 0.0
H770 H 0.06762 0.08438 0.9406 0.0
C771 C 0.95878 1.02011 0.89689 0.0
C772 C 0.8593 0.10911 0.14747 0.0
C773 C 0.84568 0.1214 0.17281 0.0
H774 H 0.86306 0.15042 0.11044 0.0
C775 C 0.82644 0.18871 0.17972 0.0
H776 H 0.87564 0.05848 0.14135 0.0
C777 C 0.81983 0.24128 0.162 0.0
C778 C 0.83337 0.22919 0.13672 0.0
H779 H 0.81648 0.20099 0.19893 0.0
H780 H 0.80352 0.29193 0.16813 0.0
C781 C 0.85362 0.16226 0.12972 0.0
C782 C 0.67944 0.0829 0.40921 0.0
C783 C 0.67589 0.06698 0.43458 0.0
H784 H 0.62943 0.08172 0.37375 0.0
C785 C 0.61668 1.03317 0.44313 0.0
H786 H 0.72285 0.11029 0.4019 0.0
C787 C 0.56299 1.01569 0.42675 0.0
C788 C 0.56581 1.03402 0.40155 0.0
H789 H 0.61158 1.02086 0.46254 0.0
H790 H 0.51841 0.98928 0.43397 0.0
C791 C 0.625 0.0675 0.39302 0.0
C792 C 0.23796 0.24377 0.38872 0.0
C793 C 0.25368 0.25027 0.4141 0.0
H794 H 0.24597 0.18205 0.35568 0.0
C795 C 0.28591 0.19455 0.42593 0.0
H796 H 0.21273 0.28546 0.37901 0.0
C797 C 0.30243 0.13424 0.41271 0.0
C798 C 0.28874 0.1286 0.38719 0.0
H799 H 0.29814 0.19739 0.44545 0.0
H800 H 0.32877 0.09323 0.42233 0.0
C801 C 0.25643 0.18428 0.37535 0.0
C802 C 0.17615 0.06326 0.19541 0.0
C803 C 0.112 0.04583 0.18511 0.0
H804 H 0.28353 0.08246 0.18888 0.0
C805 C 0.10865 1.03382 0.1594 0.0
H806 H 0.18105 0.07141 0.21516 0.0
C807 C 0.16703 0.03991 0.14436 0.0
C808 C 0.23149 0.05678 0.15452 0.0
H809 H 0.0603 1.01957 0.15081 0.0
H810 H 0.16151 1.0317 0.12463 0.0
C811 C 0.23522 0.06811 0.18035 0.0
C812 C 0.32198 0.88875 0.8775 0.0
C813 C 0.29818 0.94758 0.8902 0.0
H814 H 0.35573 0.78339 0.87992 0.0
C815 C 0.29117 0.94379 0.91606 0.0
H816 H 0.32716 0.88951 0.85758 0.0
C817 C 0.3049 0.8822 0.92874 0.0
C818 C 0.32773 0.8231 0.91602 0.0
H819 H 0.27165 0.98739 0.92642 0.0
H820 H 0.29747 0.88085 0.94857 0.0
C821 C 0.33775 0.82772 0.8903 0.0
C822 C 0.39093 1.02031 0.69593 0.0
C823 C 0.4573 1.01965 0.68575 0.0
H824 H 0.28208 1.01701 0.68907 0.0
C825 C 0.46335 1.01599 0.65985 0.0
H826 H 0.38433 1.02561 0.71572 0.0
C827 C 0.40509 1.01201 0.64451 0.0
C828 C 0.33838 1.01277 0.6545 0.0
H829 H 0.51362 1.01677 0.65134 0.0
H830 H 0.41251 1.00782 0.62472 0.0
C831 C 0.33226 1.01704 0.68051 0.0
C832 C 0.29099 0.2627 0.99817 0.0
C833 C 0.23005 0.24294 1.01012 0.0
H834 H 0.33851 0.28884 0.96379 0.0
C835 C 0.16772 0.24525 0.99707 0.0
H836 H 0.34012 0.25855 1.00741 0.0
C837 C 0.16717 0.26264 0.97201 0.0
C838 C 0.229 0.27722 0.95979 0.0
H839 H 0.12043 0.22936 1.00586 0.0
H840 H 0.1197 0.25847 0.96161 0.0
C841 C 0.29033 0.27999 0.97321 0.0
C842 C 0.54105 0.41558 0.20381 0.0
C843 C 0.59333 0.38767 0.18899 0.0
H844 H 0.50969 0.44406 0.2405 0.0
C845 C 0.65153 0.35891 0.20062 0.0
H846 H 0.49631 0.43891 0.19531 0.0
C847 C 0.65885 0.36146 0.22637 0.0
C848 C 0.60872 0.39373 0.24088 0.0
H849 H 0.69404 0.33964 0.18981 0.0
H850 H 0.70589 0.34304 0.2348 0.0
C851 C 0.54871 0.41861 0.22952 0.0
C852 C 0.27079 0.87175 0.48885 0.0
C853 C 0.31339 0.83931 0.50631 0.0
H854 H 0.24022 0.88089 0.45124 0.0
C855 C 0.36237 0.79126 0.49763 0.0
H856 H 0.23742 0.91374 0.49346 0.0
C857 C 0.36949 0.77849 0.47217 0.0
C858 C 0.32596 0.81168 0.45528 0.0
H859 H 0.39679 0.76569 0.5104 0.0
H860 H 0.41091 0.74598 0.46562 0.0
C861 C 0.27387 0.85451 0.46407 0.0
C862 C 0.93891 0.73217 0.70101 0.0
C863 C 0.98383 0.69018 0.68725 0.0
H864 H 0.89585 0.75433 0.73671 0.0
C865 C 1.02865 0.64581 0.69976 0.0
H866 H 0.90421 0.76704 0.6916 0.0
C867 C 1.02404 0.63877 0.72546 0.0
C868 C 0.97418 0.67561 0.73894 0.0
H869 H 0.06374 0.61328 0.68947 0.0
H870 H 0.05711 0.60208 0.73469 0.0
C871 C 0.93393 0.72476 0.72667 0.0
C872 C 0.99675 0.85894 0.1149 0.0
C873 C 0.96505 0.80098 0.12555 0.0
H874 H 1.01681 0.91468 0.08151 0.0
C875 C 0.94072 0.74826 0.10996 0.0
H876 H 1.01367 0.90171 0.12623 0.0
C877 C 0.9418 0.75653 0.08431 0.0
C878 C 0.96738 0.81748 0.07398 0.0
H879 H 0.91529 0.70373 0.11772 0.0
H880 H 0.91734 0.71826 0.07261 0.0
C881 C 0.99795 0.86698 0.08928 0.0
C882 C 0.60316 0.59105 0.83946 0.0
C883 C 0.55907 0.62969 0.85464 0.0
H884 H 0.62485 0.55798 0.8024 0.0
C885 C 0.51406 0.67757 0.84365 0.0
H886 H 0.63798 0.55375 0.84751 0.0
C887 C 0.50717 0.68027 0.81807 0.0
C888 C 0.54431 0.63455 0.80325 0.0
H889 H 0.47771 0.70659 0.85454 0.0
H890 H 0.46714 0.71196 0.81004 0.0
C891 C 0.59574 0.59342 0.81382 0.0
C892 C 0.66366 0.31312 0.61279 0.0
C893 C 0.6046 0.29082 0.62504 0.0
H894 H 0.71917 0.31312 0.57896 0.0
C895 C 0.54852 0.26674 0.61118 0.0
H896 H 0.70784 0.33053 0.62331 0.0
C897 C 0.55444 0.25708 0.58568 0.0
C898 C 0.61647 0.27185 0.57369 0.0
H899 H 0.50302 0.24825 0.62052 0.0
H900 H 0.51287 0.23236 0.57567 0.0
C901 C 0.66983 0.3033 0.58729 0.0
C902 C 1.03054 0.36784 0.33832 0.0
C903 C 1.005 0.42652 0.35036 0.0
H904 H 0.07255 0.32675 0.30487 0.0
C905 C 0.98748 0.48468 0.33663 0.0
H906 H 0.04685 0.32369 0.34899 0.0
C907 C 1.00484 0.48784 0.31171 0.0
C908 C 0.03845 0.43198 0.3002 0.0
H909 H 0.96918 0.53074 0.3459 0.0
H910 H 0.99979 0.537 0.30263 0.0
C911 C 0.0464 0.37021 0.31326 0.0
C912 C 0.57125 0.71875 0.44848 0.0
C913 C 0.60358 0.77706 0.4383 0.0
H914 H 0.55057 0.66117 0.48139 0.0
C915 C 0.62756 0.82896 0.45431 0.0
H916 H 0.55455 0.67653 0.43685 0.0
C917 C 0.62611 0.81923 0.47988 0.0
C918 C 0.60032 0.75771 0.48969 0.0
H919 H 0.65345 0.87373 0.44693 0.0
H920 H 0.6507 0.85667 0.49189 0.0
C921 C 0.56961 0.70929 0.47401 0.0
C922 C 0.97004 0.97684 0.73213 0.0
C923 C 0.99925 0.92361 0.71815 0.0
H924 H 0.96411 1.02402 0.76788 0.0
C925 C 1.02952 0.86739 0.73027 0.0
H926 H 0.94473 1.01969 0.72313 0.0
C927 C 0.04336 0.87126 0.75548 0.0
C928 C 1.02557 0.93087 0.76866 0.0
H929 H 0.04963 0.82432 0.71977 0.0
H930 H 0.07447 0.8315 0.76396 0.0
C931 C 0.98239 0.97991 0.75752 0.0
C932 C 0.93318 0.25081 0.95447 0.0
C933 C 0.95708 0.30365 0.93909 0.0
H934 H 0.9112 0.22043 0.99174 0.0
C935 C 0.98984 0.36112 0.94993 0.0
H936 H 0.90704 0.2066 0.94657 0.0
C937 C 0.99229 0.36875 0.97558 0.0
C938 C 0.96193 0.3193 0.99073 0.0
H939 H 1.00652 0.40395 0.93875 0.0
H940 H 1.01174 0.41624 0.98352 0.0
C941 C 0.93553 0.25865 0.98017 0.0
C942 C 0.54853 0.20172 0.24897 0.0
C943 C 0.54864 0.1389 0.26168 0.0
H944 H 0.55583 0.24982 0.21358 0.0
C945 C 0.57539 0.07984 0.24993 0.0
H946 H 0.52811 0.24777 0.25764 0.0
C947 C 0.59241 0.08156 0.22496 0.0
C948 C 0.58139 0.14176 0.21145 0.0
H949 H 0.57457 1.03023 0.25888 0.0
H950 H 0.60431 1.03371 0.2155 0.0
C951 C 0.56503 0.20312 0.22392 0.0
C952 C 0.29314 0.29053 0.59095 0.0
C953 C 0.34866 0.31091 0.60566 0.0
H954 H 0.24451 0.29804 0.55581 0.0
C955 C 0.40434 0.34511 0.59482 0.0
H956 H 0.24876 0.26647 0.5993 0.0
C957 C 0.40336 0.36138 0.56976 0.0
C958 C 0.34578 0.34527 0.55521 0.0
H959 H 0.44592 0.36427 0.60626 0.0
H960 H 0.44535 0.39094 0.56211 0.0
C961 C 0.29126 0.30821 0.56595 0.0
C962 C 0.03772 0.14955 0.36395 0.0
C963 C 0.99167 0.19157 0.37695 0.0
H964 H 0.06577 0.10762 0.32859 0.0
C965 C 0.94413 0.23181 0.36367 0.0
H966 H 0.07465 0.11824 0.37386 0.0
C967 C 0.93803 0.22478 0.33801 0.0
C968 C 0.97987 0.17793 0.32525 0.0
H969 H 0.90843 0.26486 0.37346 0.0
H970 H 0.89806 0.25271 0.32833 0.0
C971 C 1.03195 0.14289 0.33823 0.0
C972 C 0.15137 0.75864 0.09217 0.0
C973 C 0.20773 0.78338 0.10581 0.0
H974 H 0.11564 0.72161 0.05708 0.0
C975 C 0.26618 0.80629 0.09334 0.0
H976 H 0.10502 0.74265 0.10156 0.0
C977 C 0.27172 0.79574 0.06786 0.0
C978 C 0.21971 0.76036 0.05487 0.0
H979 H 0.30958 0.82676 0.10356 0.0
H980 H 0.31833 0.81145 0.05867 0.0
C981 C 0.15745 0.74662 0.06684 0.0
C982 C 0.55515 0.94998 0.86259 0.0
C983 C 0.58757 0.89734 0.8758 0.0
H984 H 0.5445 1.00039 0.82791 0.0
C985 C 0.6247 0.8467 0.86283 0.0
H986 H 0.52806 0.99048 0.87238 0.0
C987 C 0.63282 0.85104 0.83723 0.0
C988 C 0.60485 0.90669 0.8241 0.0
H989 H 0.65249 0.80724 0.87281 0.0
H990 H 0.66504 0.81362 0.8279 0.0
C991 C 0.56426 0.95512 0.837 0.0
loop_
_geom_bond_atom_site_label_1
_geom_bond_atom_site_label_2
_geom_bond_distance
_geom_bond_site_symmetry_2
_ccdc_geom_bond_type
Zn0 O1 2.055 . S
Zn0 O8 2.046 . S
Zn0 N16 2.036 . S
Zn0 O28 2.053 . S
Zn0 O30 2.066 . S
O1 Zn0 2.055 . S
O1 C4 1.259 . S
C2 O30 1.256 . S
C2 O31 1.244 . S
Zn3 O5 2.046 . S
Zn3 O7 2.055 . S
Zn3 N9 2.036 . S
Zn3 O27 2.066 . S
Zn3 O31 2.053 . S
C4 O1 1.259 . S
C4 O5 1.254 . S
O5 Zn3 2.046 . S
O5 C4 1.254 . S
C6 O27 1.256 . S
C6 O28 1.244 . S
O7 Zn3 2.055 . S
O7 C29 1.259 . S
O8 Zn0 2.046 . S
O8 C29 1.254 . S
N9 Zn3 2.036 . S
N9 C10 1.298 . S
N9 N12 1.398 . S
C10 N9 1.298 . S
C10 N13 1.367 1_554 S
C10 C23 1.481 1_554 S
C11 N12 1.299 1_556 S
C11 N13 1.379 . S
N12 N9 1.398 . S
N12 C11 1.299 1_554 S
N13 C10 1.367 1_556 S
N13 C11 1.379 . S
C14 N16 1.298 . S
C14 N18 1.367 . S
C14 C22 1.481 . S
C15 N17 1.299 . S
C15 N18 1.379 . S
N16 Zn0 2.036 . S
N16 C14 1.298 . S
N16 N17 1.398 . S
N17 C15 1.299 . S
N17 N16 1.398 . S
N18 C14 1.367 . S
N18 C15 1.379 . S
H19 C22 0.980 . S
H20 C22 0.981 . S
H21 C22 0.981 . S
C22 C14 1.481 . S
C22 H19 0.980 . S
C22 H20 0.981 . S
C22 H21 0.981 . S
C23 C10 1.481 1_556 S
C23 H24 0.980 1_556 S
C23 H25 0.981 . S
C23 H26 0.981 . S
H24 C23 0.980 1_554 S
H25 C23 0.981 . S
H26 C23 0.981 . S
O27 Zn3 2.066 . S
O27 C6 1.256 . S
O28 Zn0 2.053 . S
O28 C6 1.244 . S
C29 O7 1.259 . S
C29 O8 1.254 . S
O30 Zn0 2.066 . S
O30 C2 1.256 . S
O31 C2 1.244 . S
O31 Zn3 2.053 . S
Zn32 O33 2.055 . S
Zn32 O40 2.046 . S
Zn32 N48 2.036 . S
Zn32 O60 2.053 . S
Zn32 O62 2.066 . S
O33 Zn32 2.055 . S
O33 C36 1.259 . S
C34 O62 1.256 . S
C34 O63 1.244 . S
Zn35 O37 2.046 . S
Zn35 O39 2.055 . S
Zn35 N41 2.036 . S
Zn35 O59 2.066 . S
Zn35 O63 2.053 . S
C36 O33 1.259 . S
C36 O37 1.254 . S
O37 Zn35 2.046 . S
O37 C36 1.254 . S
C38 O59 1.256 . S
C38 O60 1.244 . S
O39 Zn35 2.055 . S
O39 C61 1.259 . S
O40 Zn32 2.046 . S
O40 C61 1.254 . S
N41 Zn35 2.036 . S
N41 C42 1.298 . S
N41 N44 1.398 . S
C42 N41 1.298 . S
C42 N45 1.367 . S
C42 C55 1.481 . S
C43 N44 1.299 . S
C43 N45 1.379 . S
N44 N41 1.398 . S
N44 C43 1.299 . S
N45 C42 1.367 . S
N45 C43 1.379 . S
C46 N48 1.298 . S
C46 N50 1.367 . S
C46 C54 1.481 . S
C47 N49 1.299 . S
C47 N50 1.379 . S
N48 Zn32 2.036 . S
N48 C46 1.298 . S
N48 N49 1.398 . S
N49 C47 1.299 . S
N49 N48 1.398 . S
N50 C46 1.367 . S
N50 C47 1.379 . S
H51 C54 0.980 . S
H52 C54 0.981 . S
H53 C54 0.981 . S
C54 C46 1.481 . S
C54 H51 0.980 . S
C54 H52 0.981 . S
C54 H53 0.981 . S
C55 C42 1.481 . S
C55 H56 0.980 . S
C55 H57 0.981 . S
C55 H58 0.981 . S
H56 C55 0.980 . S
H57 C55 0.981 . S
H58 C55 0.981 . S
O59 Zn35 2.066 . S
O59 C38 1.256 . S
O60 Zn32 2.053 . S
O60 C38 1.244 . S
C61 O39 1.259 . S
C61 O40 1.254 . S
O62 Zn32 2.066 . S
O62 C34 1.256 . S
O63 C34 1.244 . S
O63 Zn35 2.053 . S
Zn64 O65 2.055 . S
Zn64 O72 2.046 . S
Zn64 N80 2.036 . S
Zn64 O92 2.053 . S
Zn64 O94 2.066 . S
O65 Zn64 2.055 . S
O65 C68 1.259 . S
C66 O94 1.256 . S
C66 O95 1.244 . S
Zn67 O69 2.046 . S
Zn67 O71 2.055 . S
Zn67 N73 2.036 . S
Zn67 O91 2.066 . S
Zn67 O95 2.053 . S
C68 O65 1.259 . S
C68 O69 1.254 . S
O69 Zn67 2.046 . S
O69 C68 1.254 . S
C70 O91 1.256 . S
C70 O92 1.244 . S
O71 Zn67 2.055 . S
O71 C93 1.259 . S
O72 Zn64 2.046 . S
O72 C93 1.254 . S
N73 Zn67 2.036 . S
N73 C74 1.298 . S
N73 N76 1.398 . S
C74 N73 1.298 . S
C74 N77 1.367 . S
C74 C87 1.481 . S
C75 N76 1.299 . S
C75 N77 1.379 . S
N76 N73 1.398 . S
N76 C75 1.299 . S
N77 C74 1.367 . S
N77 C75 1.379 . S
C78 N80 1.298 . S
C78 N82 1.367 . S
C78 C86 1.481 . S
C79 N81 1.299 . S
C79 N82 1.379 . S
N80 Zn64 2.036 . S
N80 C78 1.298 . S
N80 N81 1.398 . S
N81 C79 1.299 . S
N81 N80 1.398 . S
N82 C78 1.367 . S
N82 C79 1.379 . S
H83 C86 0.980 . S
H84 C86 0.981 . S
H85 C86 0.981 . S
C86 C78 1.481 . S
C86 H83 0.980 . S
C86 H84 0.981 . S
C86 H85 0.981 . S
C87 C74 1.481 . S
C87 H88 0.980 . S
C87 H89 0.981 . S
C87 H90 0.981 . S
H88 C87 0.980 . S
H89 C87 0.981 . S
H90 C87 0.981 . S
O91 Zn67 2.066 . S
O91 C70 1.256 . S
O92 Zn64 2.053 . S
O92 C70 1.244 . S
C93 O71 1.259 . S
C93 O72 1.254 . S
O94 Zn64 2.066 . S
O94 C66 1.256 . S
O95 C66 1.244 . S
O95 Zn67 2.053 . S
Zn96 O97 2.055 . S
Zn96 O104 2.046 . S
Zn96 N112 2.036 . S
Zn96 O124 2.053 . S
Zn96 O126 2.066 . S
O97 Zn96 2.055 . S
O97 C100 1.259 1_655 S
C98 O126 1.256 . S
C98 O127 1.244 . S
Zn99 O101 2.046 1_655 S
Zn99 O103 2.055 . S
Zn99 N105 2.036 . S
Zn99 O123 2.066 . S
Zn99 O127 2.053 . S
C100 O97 1.259 1_455 S
C100 O101 1.254 . S
O101 Zn99 2.046 1_455 S
O101 C100 1.254 . S
C102 O123 1.256 . S
C102 O124 1.244 . S
O103 Zn99 2.055 . S
O103 C125 1.259 . S
O104 Zn96 2.046 . S
O104 C125 1.254 . S
N105 Zn99 2.036 . S
N105 C106 1.298 . S
N105 N108 1.398 . S
C106 N105 1.298 . S
C106 N109 1.367 . S
C106 C119 1.481 . S
C107 N108 1.299 . S
C107 N109 1.379 . S
N108 N105 1.398 . S
N108 C107 1.299 . S
N109 C106 1.367 . S
N109 C107 1.379 . S
C110 N112 1.298 . S
C110 N114 1.367 . S
C110 C118 1.481 . S
C111 N113 1.299 . S
C111 N114 1.379 . S
N112 Zn96 2.036 . S
N112 C110 1.298 . S
N112 N113 1.398 . S
N113 C111 1.299 . S
N113 N112 1.398 . S
N114 C110 1.367 . S
N114 C111 1.379 . S
H115 C118 0.980 . S
H116 C118 0.981 . S
H117 C118 0.981 . S
C118 C110 1.481 . S
C118 H115 0.980 . S
C118 H116 0.981 . S
C118 H117 0.981 . S
C119 C106 1.481 . S
C119 H120 0.980 . S
C119 H121 0.981 1_655 S
C119 H122 0.981 . S
H120 C119 0.980 . S
H121 C119 0.981 1_455 S
H122 C119 0.981 . S
O123 Zn99 2.066 . S
O123 C102 1.256 . S
O124 Zn96 2.053 . S
O124 C102 1.244 . S
C125 O103 1.259 . S
C125 O104 1.254 . S
O126 Zn96 2.066 . S
O126 C98 1.256 . S
O127 C98 1.244 . S
O127 Zn99 2.053 . S
Zn128 O129 2.055 . S
Zn128 O136 2.046 . S
Zn128 N144 2.036 . S
Zn128 O156 2.053 . S
Zn128 O158 2.066 . S
O129 Zn128 2.055 . S
O129 C132 1.259 . S
C130 O158 1.256 . S
C130 O159 1.244 . S
Zn131 O133 2.046 . S
Zn131 O135 2.055 . S
Zn131 N137 2.036 . S
Zn131 O155 2.066 . S
Zn131 O159 2.053 . S
C132 O129 1.259 . S
C132 O133 1.254 . S
O133 Zn131 2.046 . S
O133 C132 1.254 . S
C134 O155 1.256 . S
C134 O156 1.244 . S
O135 Zn131 2.055 . S
O135 C157 1.259 . S
O136 Zn128 2.046 . S
O136 C157 1.254 . S
N137 Zn131 2.036 . S
N137 C138 1.298 . S
N137 N140 1.398 . S
C138 N137 1.298 . S
C138 N141 1.367 1_556 S
C138 C151 1.481 1_556 S
C139 N140 1.299 1_554 S
C139 N141 1.379 . S
N140 N137 1.398 . S
N140 C139 1.299 1_556 S
N141 C138 1.367 1_554 S
N141 C139 1.379 . S
C142 N144 1.298 . S
C142 N146 1.367 . S
C142 C150 1.481 . S
C143 N145 1.299 . S
C143 N146 1.379 . S
N144 Zn128 2.036 . S
N144 C142 1.298 . S
N144 N145 1.398 . S
N145 C143 1.299 . S
N145 N144 1.398 . S
N146 C142 1.367 . S
N146 C143 1.379 . S
H147 C150 0.980 . S
H148 C150 0.981 . S
H149 C150 0.981 . S
C150 C142 1.481 . S
C150 H147 0.980 . S
C150 H148 0.981 . S
C150 H149 0.981 . S
C151 C138 1.481 1_554 S
C151 H152 0.980 1_554 S
C151 H153 0.981 . S
C151 H154 0.981 . S
H152 C151 0.980 1_556 S
H153 C151 0.981 . S
H154 C151 0.981 . S
O155 Zn131 2.066 . S
O155 C134 1.256 . S
O156 Zn128 2.053 . S
O156 C134 1.244 . S
C157 O135 1.259 . S
C157 O136 1.254 . S
O158 Zn128 2.066 . S
O158 C130 1.256 . S
O159 C130 1.244 . S
O159 Zn131 2.053 . S
Zn160 O161 2.055 . S
Zn160 O168 2.046 . S
Zn160 N176 2.036 . S
Zn160 O188 2.053 . S
Zn160 O190 2.066 . S
O161 Zn160 2.055 . S
O161 C164 1.259 . S
C162 O190 1.256 . S
C162 O191 1.244 . S
Zn163 O165 2.046 . S
Zn163 O167 2.055 . S
Zn163 N169 2.036 . S
Zn163 O187 2.066 . S
Zn163 O191 2.053 . S
C164 O161 1.259 . S
C164 O165 1.254 . S
O165 Zn163 2.046 . S
O165 C164 1.254 . S
C166 O187 1.256 . S
C166 O188 1.244 . S
O167 Zn163 2.055 . S
O167 C189 1.259 . S
O168 Zn160 2.046 . S
O168 C189 1.254 . S
N169 Zn163 2.036 . S
N169 C170 1.298 . S
N169 N172 1.398 . S
C170 N169 1.298 . S
C170 N173 1.367 . S
C170 C183 1.481 . S
C171 N172 1.299 . S
C171 N173 1.379 . S
N172 N169 1.398 . S
N172 C171 1.299 . S
N173 C170 1.367 . S
N173 C171 1.379 . S
C174 N176 1.298 . S
C174 N178 1.367 . S
C174 C182 1.481 . S
C175 N177 1.299 . S
C175 N178 1.379 . S
N176 Zn160 2.036 . S
N176 C174 1.298 . S
N176 N177 1.398 . S
N177 C175 1.299 . S
N177 N176 1.398 . S
N178 C174 1.367 . S
N178 C175 1.379 . S
H179 C182 0.980 . S
H180 C182 0.981 . S
H181 C182 0.981 . S
C182 C174 1.481 . S
C182 H179 0.980 . S
C182 H180 0.981 . S
C182 H181 0.981 . S
C183 C170 1.481 . S
C183 H184 0.980 . S
C183 H185 0.981 . S
C183 H186 0.981 . S
H184 C183 0.980 . S
H185 C183 0.981 . S
H186 C183 0.981 . S
O187 Zn163 2.066 . S
O187 C166 1.256 . S
O188 Zn160 2.053 . S
O188 C166 1.244 . S
C189 O167 1.259 . S
C189 O168 1.254 . S
O190 Zn160 2.066 . S
O190 C162 1.256 . S
O191 C162 1.244 . S
O191 Zn163 2.053 . S
Zn192 O193 2.055 . S
Zn192 O200 2.046 . S
Zn192 N208 2.036 . S
Zn192 O220 2.053 . S
Zn192 O222 2.066 . S
O193 Zn192 2.055 . S
O193 C196 1.259 . S
C194 O222 1.256 . S
C194 O223 1.244 . S
Zn195 O197 2.046 . S
Zn195 O199 2.055 . S
Zn195 N201 2.036 . S
Zn195 O219 2.066 . S
Zn195 O223 2.053 . S
C196 O193 1.259 . S
C196 O197 1.254 . S
O197 Zn195 2.046 . S
O197 C196 1.254 . S
C198 O219 1.256 . S
C198 O220 1.244 . S
O199 Zn195 2.055 . S
O199 C221 1.259 . S
O200 Zn192 2.046 . S
O200 C221 1.254 . S
N201 Zn195 2.036 . S
N201 C202 1.298 . S
N201 N204 1.398 . S
C202 N201 1.298 . S
C202 N205 1.367 . S
C202 C215 1.481 . S
C203 N204 1.299 . S
C203 N205 1.379 . S
N204 N201 1.398 . S
N204 C203 1.299 . S
N205 C202 1.367 . S
N205 C203 1.379 . S
C206 N208 1.298 . S
C206 N210 1.367 . S
C206 C214 1.481 . S
C207 N209 1.299 . S
C207 N210 1.379 . S
N208 Zn192 2.036 . S
N208 C206 1.298 . S
N208 N209 1.398 . S
N209 C207 1.299 . S
N209 N208 1.398 . S
N210 C206 1.367 . S
N210 C207 1.379 . S
H211 C214 0.980 . S
H212 C214 0.981 . S
H213 C214 0.981 . S
C214 C206 1.481 . S
C214 H211 0.980 . S
C214 H212 0.981 . S
C214 H213 0.981 . S
C215 C202 1.481 . S
C215 H216 0.980 . S
C215 H217 0.981 . S
C215 H218 0.981 . S
H216 C215 0.980 . S
H217 C215 0.981 . S
H218 C215 0.981 . S
O219 Zn195 2.066 . S
O219 C198 1.256 . S
O220 Zn192 2.053 . S
O220 C198 1.244 . S
C221 O199 1.259 . S
C221 O200 1.254 . S
O222 Zn192 2.066 . S
O222 C194 1.256 . S
O223 C194 1.244 . S
O223 Zn195 2.053 . S
Zn224 O225 2.055 . S
Zn224 O232 2.046 . S
Zn224 N240 2.036 . S
Zn224 O252 2.053 . S
Zn224 O254 2.066 . S
O225 Zn224 2.055 . S
O225 C228 1.259 1_455 S
C226 O254 1.256 . S
C226 O255 1.244 . S
Zn227 O229 2.046 1_455 S
Zn227 O231 2.055 . S
Zn227 N233 2.036 . S
Zn227 O251 2.066 . S
Zn227 O255 2.053 . S
C228 O225 1.259 1_655 S
C228 O229 1.254 . S
O229 Zn227 2.046 1_655 S
O229 C228 1.254 . S
C230 O251 1.256 . S
C230 O252 1.244 . S
O231 Zn227 2.055 . S
O231 C253 1.259 . S
O232 Zn224 2.046 . S
O232 C253 1.254 . S
N233 Zn227 2.036 . S
N233 C234 1.298 . S
N233 N236 1.398 . S
C234 N233 1.298 . S
C234 N237 1.367 . S
C234 C247 1.481 . S
C235 N236 1.299 . S
C235 N237 1.379 . S
N236 N233 1.398 . S
N236 C235 1.299 . S
N237 C234 1.367 . S
N237 C235 1.379 . S
C238 N240 1.298 . S
C238 N242 1.367 . S
C238 C246 1.481 . S
C239 N241 1.299 . S
C239 N242 1.379 . S
N240 Zn224 2.036 . S
N240 C238 1.298 . S
N240 N241 1.398 . S
N241 C239 1.299 . S
N241 N240 1.398 . S
N242 C238 1.367 . S
N242 C239 1.379 . S
H243 C246 0.980 . S
H244 C246 0.981 . S
H245 C246 0.981 . S
C246 C238 1.481 . S
C246 H243 0.980 . S
C246 H244 0.981 . S
C246 H245 0.981 . S
C247 C234 1.481 . S
C247 H248 0.980 . S
C247 H249 0.981 1_455 S
C247 H250 0.981 . S
H248 C247 0.980 . S
H249 C247 0.981 1_655 S
H250 C247 0.981 . S
O251 Zn227 2.066 . S
O251 C230 1.256 . S
O252 Zn224 2.053 . S
O252 C230 1.244 . S
C253 O231 1.259 . S
C253 O232 1.254 . S
O254 Zn224 2.066 . S
O254 C226 1.256 . S
O255 C226 1.244 . S
O255 Zn227 2.053 . S
Zn256 O257 2.055 . S
Zn256 O264 2.046 . S
Zn256 N272 2.036 . S
Zn256 O284 2.053 . S
Zn256 O286 2.066 . S
O257 Zn256 2.055 . S
O257 C260 1.259 . S
C258 O286 1.256 . S
C258 O287 1.244 . S
Zn259 O261 2.046 . S
Zn259 O263 2.055 . S
Zn259 N265 2.036 . S
Zn259 O283 2.066 . S
Zn259 O287 2.053 . S
C260 O257 1.259 . S
C260 O261 1.254 . S
O261 Zn259 2.046 . S
O261 C260 1.254 . S
C262 O283 1.256 . S
C262 O284 1.244 . S
O263 Zn259 2.055 . S
O263 C285 1.259 . S
O264 Zn256 2.046 . S
O264 C285 1.254 . S
N265 Zn259 2.036 . S
N265 C266 1.298 . S
N265 N268 1.398 . S
C266 N265 1.298 . S
C266 N269 1.367 . S
C266 C279 1.481 . S
C267 N268 1.299 . S
C267 N269 1.379 . S
N268 N265 1.398 . S
N268 C267 1.299 . S
N269 C266 1.367 . S
N269 C267 1.379 . S
C270 N272 1.298 . S
C270 N274 1.367 . S
C270 C278 1.481 . S
C271 N273 1.299 . S
C271 N274 1.379 . S
N272 Zn256 2.036 . S
N272 C270 1.298 . S
N272 N273 1.398 . S
N273 C271 1.299 . S
N273 N272 1.398 . S
N274 C270 1.367 . S
N274 C271 1.379 . S
H275 C278 0.980 . S
H276 C278 0.981 . S
H277 C278 0.981 . S
C278 C270 1.481 . S
C278 H275 0.980 . S
C278 H276 0.981 . S
C278 H277 0.981 . S
C279 C266 1.481 . S
C279 H280 0.980 . S
C279 H281 0.981 . S
C279 H282 0.981 . S
H280 C279 0.980 . S
H281 C279 0.981 . S
H282 C279 0.981 . S
O283 Zn259 2.066 . S
O283 C262 1.256 . S
O284 Zn256 2.053 . S
O284 C262 1.244 . S
C285 O263 1.259 . S
C285 O264 1.254 . S
O286 Zn256 2.066 . S
O286 C258 1.256 . S
O287 C258 1.244 . S
O287 Zn259 2.053 . S
Zn288 O289 2.055 . S
Zn288 O296 2.046 1_455 S
Zn288 N304 2.036 . S
Zn288 O316 2.042 1_545 S
Zn288 O318 2.066 . S
O289 Zn288 2.055 . S
O289 C292 1.259 . S
C290 O318 1.256 . S
C290 O319 1.244 . S
Zn291 O293 2.046 . S
Zn291 O295 2.055 . S
Zn291 N297 2.036 . S
Zn291 O315 2.066 . S
Zn291 O319 2.053 . S
C292 O289 1.259 . S
C292 O293 1.254 . S
O293 Zn291 2.046 . S
O293 C292 1.254 . S
C294 O315 1.245 1_565 S
C294 O316 1.244 . S
O295 Zn291 2.055 . S
O295 C317 1.259 1_455 S
O296 Zn288 2.046 1_655 S
O296 C317 1.254 . S
N297 Zn291 2.036 . S
N297 C298 1.298 . S
N297 N300 1.398 . S
C298 N297 1.298 . S
C298 N301 1.367 . S
C298 C311 1.481 . S
C299 N300 1.299 . S
C299 N301 1.379 . S
N300 N297 1.398 . S
N300 C299 1.299 . S
N301 C298 1.367 . S
N301 C299 1.379 . S
C302 N304 1.298 . S
C302 N306 1.367 1_545 S
C302 C310 1.481 . S
C303 N305 1.299 . S
C303 N306 1.379 . S
N304 Zn288 2.036 . S
N304 C302 1.298 . S
N304 N305 1.398 1_545 S
N305 C303 1.299 . S
N305 N304 1.398 1_565 S
N306 C302 1.367 1_565 S
N306 C303 1.379 . S
H307 C310 0.980 . S
H308 C310 0.981 1_655 S
H309 C310 0.981 . S
C310 C302 1.481 . S
C310 H307 0.980 . S
C310 H308 0.981 1_455 S
C310 H309 0.981 . S
C311 C298 1.481 . S
C311 H312 0.980 . S
C311 H313 0.981 . S
C311 H314 0.981 . S
H312 C311 0.980 . S
H313 C311 0.981 . S
H314 C311 0.981 . S
O315 Zn291 2.066 . S
O315 C294 1.245 1_545 S
O316 Zn288 2.042 1_565 S
O316 C294 1.244 . S
C317 O295 1.259 1_655 S
C317 O296 1.254 . S
O318 Zn288 2.066 . S
O318 C290 1.256 . S
O319 C290 1.244 . S
O319 Zn291 2.053 . S
Zn320 O321 2.055 . S
Zn320 O328 2.046 . S
Zn320 N336 2.036 . S
Zn320 O348 2.053 . S
Zn320 O350 2.066 . S
O321 Zn320 2.055 . S
O321 C324 1.259 . S
C322 O350 1.256 . S
C322 O351 1.244 . S
Zn323 O325 2.046 . S
Zn323 O327 2.055 . S
Zn323 N329 2.036 . S
Zn323 O347 2.066 . S
Zn323 O351 2.053 . S
C324 O321 1.259 . S
C324 O325 1.254 . S
O325 Zn323 2.046 . S
O325 C324 1.254 . S
C326 O347 1.256 . S
C326 O348 1.244 . S
O327 Zn323 2.055 . S
O327 C349 1.259 . S
O328 Zn320 2.046 . S
O328 C349 1.254 . S
N329 Zn323 2.036 . S
N329 C330 1.298 . S
N329 N332 1.398 . S
C330 N329 1.298 . S
C330 N333 1.367 1_554 S
C330 C343 1.481 1_554 S
C331 N332 1.299 1_556 S
C331 N333 1.379 . S
N332 N329 1.398 . S
N332 C331 1.299 1_554 S
N333 C330 1.367 1_556 S
N333 C331 1.379 . S
C334 N336 1.298 . S
C334 N338 1.367 . S
C334 C342 1.481 . S
C335 N337 1.299 . S
C335 N338 1.379 . S
N336 Zn320 2.036 . S
N336 C334 1.298 . S
N336 N337 1.398 . S
N337 C335 1.299 . S
N337 N336 1.398 . S
N338 C334 1.367 . S
N338 C335 1.379 . S
H339 C342 0.980 . S
H340 C342 0.981 . S
H341 C342 0.981 . S
C342 C334 1.481 . S
C342 H339 0.980 . S
C342 H340 0.981 . S
C342 H341 0.981 . S
C343 C330 1.481 1_556 S
C343 H344 0.980 1_556 S
C343 H345 0.981 . S
C343 H346 0.981 . S
H344 C343 0.980 1_554 S
H345 C343 0.981 . S
H346 C343 0.981 . S
O347 Zn323 2.066 . S
O347 C326 1.256 . S
O348 Zn320 2.053 . S
O348 C326 1.244 . S
C349 O327 1.259 . S
C349 O328 1.254 . S
O350 Zn320 2.066 . S
O350 C322 1.256 . S
O351 C322 1.244 . S
O351 Zn323 2.053 . S
Zn352 O353 2.055 . S
Zn352 O360 2.046 . S
Zn352 N368 2.036 . S
Zn352 O380 2.053 . S
Zn352 O382 2.066 . S
O353 Zn352 2.055 . S
O353 C356 1.259 . S
C354 O382 1.245 1_545 S
C354 O383 1.244 . S
Zn355 O357 2.046 . S
Zn355 O359 2.055 . S
Zn355 N361 2.036 . S
Zn355 O379 2.066 . S
Zn355 O383 2.042 1_565 S
C356 O353 1.259 . S
C356 O357 1.254 . S
O357 Zn355 2.046 . S
O357 C356 1.254 . S
C358 O379 1.256 . S
C358 O380 1.244 . S
O359 Zn355 2.055 . S
O359 C381 1.259 . S
O360 Zn352 2.046 . S
O360 C381 1.254 . S
N361 Zn355 2.036 . S
N361 C362 1.298 . S
N361 N364 1.398 1_565 S
C362 N361 1.298 . S
C362 N365 1.367 1_565 S
C362 C375 1.481 . S
C363 N364 1.299 . S
C363 N365 1.379 . S
N364 N361 1.398 1_545 S
N364 C363 1.299 . S
N365 C362 1.367 1_545 S
N365 C363 1.379 . S
C366 N368 1.298 . S
C366 N370 1.367 . S
C366 C374 1.481 . S
C367 N369 1.299 . S
C367 N370 1.379 . S
N368 Zn352 2.036 . S
N368 C366 1.298 . S
N368 N369 1.398 . S
N369 C367 1.299 . S
N369 N368 1.398 . S
N370 C366 1.367 . S
N370 C367 1.379 . S
H371 C374 0.980 . S
H372 C374 0.981 . S
H373 C374 0.981 . S
C374 C366 1.481 . S
C374 H371 0.980 . S
C374 H372 0.981 . S
C374 H373 0.981 . S
C375 C362 1.481 . S
C375 H376 0.980 . S
C375 H377 0.981 . S
C375 H378 0.981 . S
H376 C375 0.980 . S
H377 C375 0.981 . S
H378 C375 0.981 . S
O379 Zn355 2.066 . S
O379 C358 1.256 . S
O380 Zn352 2.053 . S
O380 C358 1.244 . S
C381 O359 1.259 . S
C381 O360 1.254 . S
O382 Zn352 2.066 . S
O382 C354 1.245 1_565 S
O383 C354 1.244 . S
O383 Zn355 2.042 1_545 S
Zn384 O385 2.055 . S
Zn384 O392 2.046 . S
Zn384 N400 2.036 . S
Zn384 O412 2.053 . S
Zn384 O414 2.066 . S
O385 Zn384 2.055 . S
O385 C388 1.259 . S
C386 O414 1.256 . S
C386 O415 1.244 . S
Zn387 O389 2.046 . S
Zn387 O391 2.055 . S
Zn387 N393 2.036 . S
Zn387 O411 2.066 . S
Zn387 O415 2.053 . S
C388 O385 1.259 . S
C388 O389 1.254 . S
O389 Zn387 2.046 . S
O389 C388 1.254 . S
C390 O411 1.256 . S
C390 O412 1.244 . S
O391 Zn387 2.055 . S
O391 C413 1.259 . S
O392 Zn384 2.046 . S
O392 C413 1.254 . S
N393 Zn387 2.036 . S
N393 C394 1.298 . S
N393 N396 1.398 . S
C394 N393 1.298 . S
C394 N397 1.367 . S
C394 C407 1.481 . S
C395 N396 1.299 . S
C395 N397 1.379 . S
N396 N393 1.398 . S
N396 C395 1.299 . S
N397 C394 1.367 . S
N397 C395 1.379 . S
C398 N400 1.298 . S
C398 N402 1.367 . S
C398 C406 1.481 . S
C399 N401 1.299 . S
C399 N402 1.379 . S
N400 Zn384 2.036 . S
N400 C398 1.298 . S
N400 N401 1.398 . S
N401 C399 1.299 . S
N401 N400 1.398 . S
N402 C398 1.367 . S
N402 C399 1.379 . S
H403 C406 0.980 . S
H404 C406 0.981 . S
H405 C406 0.981 . S
C406 C398 1.481 . S
C406 H403 0.980 . S
C406 H404 0.981 . S
C406 H405 0.981 . S
C407 C394 1.481 . S
C407 H408 0.980 . S
C407 H409 0.981 . S
C407 H410 0.981 . S
H408 C407 0.980 . S
H409 C407 0.981 . S
H410 C407 0.981 . S
O411 Zn387 2.066 . S
O411 C390 1.256 . S
O412 Zn384 2.053 . S
O412 C390 1.244 . S
C413 O391 1.259 . S
C413 O392 1.254 . S
O414 Zn384 2.066 . S
O414 C386 1.256 . S
O415 C386 1.244 . S
O415 Zn387 2.053 . S
Zn416 O417 2.055 . S
Zn416 O424 2.046 1_655 S
Zn416 N432 2.036 . S
Zn416 O444 2.042 1_565 S
Zn416 O446 2.066 . S
O417 Zn416 2.055 . S
O417 C420 1.259 . S
C418 O446 1.256 . S
C418 O447 1.244 . S
Zn419 O421 2.046 . S
Zn419 O423 2.055 . S
Zn419 N425 2.036 . S
Zn419 O443 2.066 . S
Zn419 O447 2.053 . S
C420 O417 1.259 . S
C420 O421 1.254 . S
O421 Zn419 2.046 . S
O421 C420 1.254 . S
C422 O443 1.245 1_545 S
C422 O444 1.244 . S
O423 Zn419 2.055 . S
O423 C445 1.259 1_655 S
O424 Zn416 2.046 1_455 S
O424 C445 1.254 . S
N425 Zn419 2.036 . S
N425 C426 1.298 . S
N425 N428 1.398 . S
C426 N425 1.298 . S
C426 N429 1.367 . S
C426 C439 1.481 . S
C427 N428 1.299 . S
C427 N429 1.379 . S
N428 N425 1.398 . S
N428 C427 1.299 . S
N429 C426 1.367 . S
N429 C427 1.379 . S
C430 N432 1.298 . S
C430 N434 1.367 1_565 S
C430 C438 1.481 . S
C431 N433 1.299 . S
C431 N434 1.379 . S
N432 Zn416 2.036 . S
N432 C430 1.298 . S
N432 N433 1.398 1_565 S
N433 C431 1.299 . S
N433 N432 1.398 1_545 S
N434 C430 1.367 1_545 S
N434 C431 1.379 . S
H435 C438 0.980 . S
H436 C438 0.981 1_455 S
H437 C438 0.981 . S
C438 C430 1.481 . S
C438 H435 0.980 . S
C438 H436 0.981 1_655 S
C438 H437 0.981 . S
C439 C426 1.481 . S
C439 H440 0.980 . S
C439 H441 0.981 . S
C439 H442 0.981 . S
H440 C439 0.980 . S
H441 C439 0.981 . S
H442 C439 0.981 . S
O443 Zn419 2.066 . S
O443 C422 1.245 1_565 S
O444 Zn416 2.042 1_545 S
O444 C422 1.244 . S
C445 O423 1.259 1_455 S
C445 O424 1.254 . S
O446 Zn416 2.066 . S
O446 C418 1.256 . S
O447 C418 1.244 . S
O447 Zn419 2.053 . S
Zn448 O449 2.055 . S
Zn448 O456 2.046 . S
Zn448 N464 2.036 . S
Zn448 O476 2.053 . S
Zn448 O478 2.066 . S
O449 Zn448 2.055 . S
O449 C452 1.259 . S
C450 O478 1.256 . S
C450 O479 1.244 . S
Zn451 O453 2.046 . S
Zn451 O455 2.055 . S
Zn451 N457 2.036 . S
Zn451 O475 2.066 . S
Zn451 O479 2.053 . S
C452 O449 1.259 . S
C452 O453 1.254 . S
O453 Zn451 2.046 . S
O453 C452 1.254 . S
C454 O475 1.256 . S
C454 O476 1.244 . S
O455 Zn451 2.055 . S
O455 C477 1.259 . S
O456 Zn448 2.046 . S
O456 C477 1.254 . S
N457 Zn451 2.036 . S
N457 C458 1.298 . S
N457 N460 1.398 . S
C458 N457 1.298 . S
C458 N461 1.367 . S
C458 C471 1.481 . S
C459 N460 1.299 . S
C459 N461 1.379 . S
N460 N457 1.398 . S
N460 C459 1.299 . S
N461 C458 1.367 . S
N461 C459 1.379 . S
C462 N464 1.298 . S
C462 N466 1.367 1_556 S
C462 C470 1.481 1_556 S
C463 N465 1.299 1_554 S
C463 N466 1.379 . S
N464 Zn448 2.036 . S
N464 C462 1.298 . S
N464 N465 1.398 . S
N465 C463 1.299 1_556 S
N465 N464 1.398 . S
N466 C462 1.367 1_554 S
N466 C463 1.379 . S
H467 C470 0.980 1_556 S
H468 C470 0.981 . S
H469 C470 0.981 . S
C470 C462 1.481 1_554 S
C470 H467 0.980 1_554 S
C470 H468 0.981 . S
C470 H469 0.981 . S
C471 C458 1.481 . S
C471 H472 0.980 . S
C471 H473 0.981 . S
C471 H474 0.981 . S
H472 C471 0.980 . S
H473 C471 0.981 . S
H474 C471 0.981 . S
O475 Zn451 2.066 . S
O475 C454 1.256 . S
O476 Zn448 2.053 . S
O476 C454 1.244 . S
C477 O455 1.259 . S
C477 O456 1.254 . S
O478 Zn448 2.066 . S
O478 C450 1.256 . S
O479 C450 1.244 . S
O479 Zn451 2.053 . S
Zn480 O481 2.055 . S
Zn480 O488 2.046 . S
Zn480 N496 2.036 . S
Zn480 O508 2.053 . S
Zn480 O510 2.066 . S
O481 Zn480 2.055 . S
O481 C484 1.259 . S
C482 O510 1.245 1_565 S
C482 O511 1.244 . S
Zn483 O485 2.046 . S
Zn483 O487 2.055 . S
Zn483 N489 2.036 . S
Zn483 O507 2.066 . S
Zn483 O511 2.042 1_545 S
C484 O481 1.259 . S
C484 O485 1.254 . S
O485 Zn483 2.046 . S
O485 C484 1.254 . S
C486 O507 1.256 . S
C486 O508 1.244 . S
O487 Zn483 2.055 . S
O487 C509 1.259 . S
O488 Zn480 2.046 . S
O488 C509 1.254 . S
N489 Zn483 2.036 . S
N489 C490 1.298 . S
N489 N492 1.398 1_545 S
C490 N489 1.298 . S
C490 N493 1.367 1_545 S
C490 C503 1.481 . S
C491 N492 1.299 . S
C491 N493 1.379 . S
N492 N489 1.398 1_565 S
N492 C491 1.299 . S
N493 C490 1.367 1_565 S
N493 C491 1.379 . S
C494 N496 1.298 . S
C494 N498 1.367 . S
C494 C502 1.481 . S
C495 N497 1.299 . S
C495 N498 1.379 . S
N496 Zn480 2.036 . S
N496 C494 1.298 . S
N496 N497 1.398 . S
N497 C495 1.299 . S
N497 N496 1.398 . S
N498 C494 1.367 . S
N498 C495 1.379 . S
H499 C502 0.980 . S
H500 C502 0.981 . S
H501 C502 0.981 . S
C502 C494 1.481 . S
C502 H499 0.980 . S
C502 H500 0.981 . S
C502 H501 0.981 . S
C503 C490 1.481 . S
C503 H504 0.980 . S
C503 H505 0.981 . S
C503 H506 0.981 . S
H504 C503 0.980 . S
H505 C503 0.981 . S
H506 C503 0.981 . S
O507 Zn483 2.066 . S
O507 C486 1.256 . S
O508 Zn480 2.053 . S
O508 C486 1.244 . S
C509 O487 1.259 . S
C509 O488 1.254 . S
O510 Zn480 2.066 . S
O510 C482 1.245 1_545 S
O511 C482 1.244 . S
O511 Zn483 2.042 1_565 S
C512 C513 1.387 . S
C512 H516 0.950 . S
C512 C521 1.390 . S
C513 C512 1.387 . S
C513 C515 1.387 . S
H514 C521 0.950 . S
C515 C513 1.387 . S
C515 C517 1.390 . S
C515 H519 0.950 . S
H516 C512 0.950 . S
C517 C515 1.390 . S
C517 C518 1.387 . S
C517 H520 0.950 . S
C518 C517 1.387 . S
C518 C521 1.387 . S
H519 C515 0.950 . S
H520 C517 0.950 . S
C521 C512 1.390 . S
C521 H514 0.950 . S
C521 C518 1.387 . S
C522 C523 1.387 . S
C522 H526 0.950 . S
C522 C531 1.390 . S
C523 C522 1.387 . S
C523 C525 1.387 . S
H524 C531 0.950 . S
C525 C523 1.387 . S
C525 C527 1.390 . S
C525 H529 0.950 . S
H526 C522 0.950 . S
C527 C525 1.390 . S
C527 C528 1.387 . S
C527 H530 0.950 . S
C528 C527 1.387 . S
C528 C531 1.387 . S
H529 C525 0.950 . S
H530 C527 0.950 . S
C531 C522 1.390 . S
C531 H524 0.950 . S
C531 C528 1.387 . S
C532 C533 1.387 . S
C532 H536 0.950 . S
C532 C541 1.390 1_455 S
C533 C532 1.387 . S
C533 C535 1.387 . S
H534 C541 0.950 . S
C535 C533 1.387 . S
C535 C537 1.390 1_455 S
C535 H539 0.950 . S
H536 C532 0.950 . S
C537 C535 1.390 1_655 S
C537 C538 1.387 . S
C537 H540 0.950 . S
C538 C537 1.387 . S
C538 C541 1.387 . S
H539 C535 0.950 . S
H540 C537 0.950 . S
C541 C532 1.390 1_655 S
C541 H534 0.950 . S
C541 C538 1.387 . S
C542 C543 1.387 . S
C542 H546 0.950 . S
C542 C551 1.390 1_655 S
C543 C542 1.387 . S
C543 C545 1.387 . S
H544 C551 0.950 . S
C545 C543 1.387 . S
C545 C547 1.390 1_655 S
C545 H549 0.950 . S
H546 C542 0.950 . S
C547 C545 1.390 1_455 S
C547 C548 1.387 . S
C547 H550 0.950 . S
C548 C547 1.387 . S
C548 C551 1.387 . S
H549 C545 0.950 . S
H550 C547 0.950 . S
C551 C542 1.390 1_455 S
C551 H544 0.950 . S
C551 C548 1.387 . S
C552 C553 1.387 . S
C552 H556 0.950 . S
C552 C561 1.390 . S
C553 C552 1.387 . S
C553 C555 1.387 . S
H554 C561 0.950 . S
C555 C553 1.387 . S
C555 C557 1.390 . S
C555 H559 0.950 . S
H556 C552 0.950 . S
C557 C555 1.390 . S
C557 C558 1.387 . S
C557 H560 0.950 . S
C558 C557 1.387 . S
C558 C561 1.387 . S
H559 C555 0.950 . S
H560 C557 0.950 . S
C561 C552 1.390 . S
C561 H554 0.950 . S
C561 C558 1.387 . S
C562 C563 1.387 . S
C562 H566 0.950 . S
C562 C571 1.390 . S
C563 C562 1.387 . S
C563 C565 1.387 . S
H564 C571 0.950 . S
C565 C563 1.387 . S
C565 C567 1.390 . S
C565 H569 0.950 . S
H566 C562 0.950 . S
C567 C565 1.390 . S
C567 C568 1.387 . S
C567 H570 0.950 . S
C568 C567 1.387 . S
C568 C571 1.387 . S
H569 C565 0.950 . S
H570 C567 0.950 . S
C571 C562 1.390 . S
C571 H564 0.950 . S
C571 C568 1.387 . S
C572 C573 1.387 . S
C572 H576 0.950 . S
C572 C581 1.390 1_455 S
C573 C572 1.387 . S
C573 C575 1.387 . S
H574 C581 0.950 . S
C575 C573 1.387 . S
C575 C577 1.390 1_455 S
C575 H579 0.950 . S
H576 C572 0.950 . S
C577 C575 1.390 1_655 S
C577 C578 1.387 . S
C577 H580 0.950 . S
C578 C577 1.387 . S
C578 C581 1.387 . S
H579 C575 0.950 . S
H580 C577 0.950 . S
C581 C572 1.390 1_655 S
C581 H574 0.950 . S
C581 C578 1.387 . S
C582 C583 1.387 . S
C582 H586 0.950 . S
C582 C591 1.390 1_655 S
C583 C582 1.387 . S
C583 C585 1.387 . S
H584 C591 0.950 . S
C585 C583 1.387 . S
C585 C587 1.390 1_655 S
C585 H589 0.950 . S
H586 C582 0.950 . S
C587 C585 1.390 1_455 S
C587 C588 1.387 . S
C587 H590 0.950 . S
C588 C587 1.387 . S
C588 C591 1.387 . S
H589 C585 0.950 . S
H590 C587 0.950 . S
C591 C582 1.390 1_455 S
C591 H584 0.950 . S
C591 C588 1.387 . S
C592 C593 1.370 1_556 S
C592 H596 0.950 . S
C592 C601 1.407 1_545 S
C593 C592 1.370 1_554 S
C593 C595 1.387 . S
H594 C601 0.950 . S
C595 C593 1.387 . S
C595 C597 1.407 1_545 S
C595 H599 0.950 . S
H596 C592 0.950 . S
C597 C595 1.407 1_565 S
C597 C598 1.370 1_554 S
C597 H600 0.950 . S
C598 C597 1.370 1_556 S
C598 C601 1.387 . S
H599 C595 0.950 . S
H600 C597 0.950 . S
C601 C592 1.407 1_565 S
C601 H594 0.950 . S
C601 C598 1.387 . S
C602 C603 1.387 . S
C602 H606 0.950 . S
C602 C611 1.390 . S
C603 C602 1.387 . S
C603 C605 1.387 . S
H604 C611 0.950 . S
C605 C603 1.387 . S
C605 C607 1.390 . S
C605 H609 0.950 . S
H606 C602 0.950 . S
C607 C605 1.390 . S
C607 C608 1.387 . S
C607 H610 0.950 . S
C608 C607 1.387 . S
C608 C611 1.387 . S
H609 C605 0.950 . S
H610 C607 0.950 . S
C611 C602 1.390 . S
C611 H604 0.950 . S
C611 C608 1.387 . S
C612 C613 1.387 1_545 S
C612 H616 0.950 . S
C612 C621 1.390 . S
C613 C612 1.387 1_565 S
C613 C615 1.388 1_455 S
H614 C621 0.950 . S
C615 C613 1.388 1_655 S
C615 C617 1.390 . S
C615 H619 0.950 . S
H616 C612 0.950 . S
C617 C615 1.390 . S
C617 C618 1.387 1_565 S
C617 H620 0.950 . S
C618 C617 1.387 1_545 S
C618 C621 1.388 1_655 S
H619 C615 0.950 . S
H620 C617 0.950 . S
C621 C612 1.390 . S
C621 H614 0.950 . S
C621 C618 1.388 1_455 S
C622 C623 1.387 . S
C622 H626 0.950 . S
C622 C631 1.390 . S
C623 C622 1.387 . S
C623 C625 1.387 . S
H624 C631 0.950 . S
C625 C623 1.387 . S
C625 C627 1.390 . S
C625 H629 0.950 . S
H626 C622 0.950 . S
C627 C625 1.390 . S
C627 C628 1.387 . S
C627 H630 0.950 . S
C628 C627 1.387 . S
C628 C631 1.387 . S
H629 C625 0.950 . S
H630 C627 0.950 . S
C631 C622 1.390 . S
C631 H624 0.950 . S
C631 C628 1.387 . S
C632 C633 1.387 . S
C632 H636 0.950 . S
C632 C641 1.390 . S
C633 C632 1.387 . S
C633 C635 1.387 . S
H634 C641 0.950 . S
C635 C633 1.387 . S
C635 C637 1.390 . S
C635 H639 0.950 . S
H636 C632 0.950 . S
C637 C635 1.390 . S
C637 C638 1.387 . S
C637 H640 0.950 . S
C638 C637 1.387 . S
C638 C641 1.387 . S
H639 C635 0.950 . S
H640 C637 0.950 . S
C641 C632 1.390 . S
C641 H634 0.950 . S
C641 C638 1.387 . S
C642 C643 1.387 . S
C642 H646 0.950 . S
C642 C651 1.390 . S
C643 C642 1.387 . S
C643 C645 1.387 . S
H644 C651 0.950 . S
C645 C643 1.387 . S
C645 C647 1.390 . S
C645 H649 0.950 . S
H646 C642 0.950 . S
C647 C645 1.390 . S
C647 C648 1.387 . S
C647 H650 0.950 . S
C648 C647 1.387 . S
C648 C651 1.387 . S
H649 C645 0.950 . S
H650 C647 0.950 . S
C651 C642 1.390 . S
C651 H644 0.950 . S
C651 C648 1.387 . S
C652 C653 1.387 . S
C652 H656 0.950 . S
C652 C661 1.390 . S
C653 C652 1.387 . S
C653 C655 1.387 1_455 S
H654 C661 0.950 . S
C655 C653 1.387 1_655 S
C655 C657 1.390 . S
C655 H659 0.950 . S
H656 C652 0.950 . S
C657 C655 1.390 . S
C657 C658 1.387 . S
C657 H660 0.950 . S
C658 C657 1.387 . S
C658 C661 1.387 1_655 S
H659 C655 0.950 . S
H660 C657 0.950 . S
C661 C652 1.390 . S
C661 H654 0.950 . S
C661 C658 1.387 1_455 S
C662 C663 1.387 1_556 S
C662 H666 0.950 . S
C662 C671 1.390 . S
C663 C662 1.387 1_554 S
C663 C665 1.387 . S
H664 C671 0.950 . S
C665 C663 1.387 . S
C665 C667 1.390 . S
C665 H669 0.950 . S
H666 C662 0.950 . S
C667 C665 1.390 . S
C667 C668 1.387 1_554 S
C667 H670 0.950 . S
C668 C667 1.387 1_556 S
C668 C671 1.387 . S
H669 C665 0.950 . S
H670 C667 0.950 . S
C671 C662 1.390 . S
C671 H664 0.950 . S
C671 C668 1.387 . S
C672 C673 1.387 . S
C672 H676 0.950 . S
C672 C681 1.390 . S
C673 C672 1.387 . S
C673 C675 1.387 . S
H674 C681 0.950 . S
C675 C673 1.387 . S
C675 C677 1.390 . S
C675 H679 0.950 . S
H676 C672 0.950 . S
C677 C675 1.390 . S
C677 C678 1.387 . S
C677 H680 0.950 . S
C678 C677 1.387 . S
C678 C681 1.387 . S
H679 C675 0.950 . S
H680 C677 0.950 . S
C681 C672 1.390 . S
C681 H674 0.950 . S
C681 C678 1.387 . S
C682 C683 1.387 . S
C682 H686 0.950 . S
C682 C691 1.390 . S
C683 C682 1.387 . S
C683 C685 1.387 . S
H684 C691 0.950 . S
C685 C683 1.387 . S
C685 C687 1.390 . S
C685 H689 0.950 . S
H686 C682 0.950 . S
C687 C685 1.390 . S
C687 C688 1.387 . S
C687 H690 0.950 . S
C688 C687 1.387 . S
C688 C691 1.387 . S
H689 C685 0.950 . S
H690 C687 0.950 . S
C691 C682 1.390 . S
C691 H684 0.950 . S
C691 C688 1.387 . S
C692 C693 1.387 . S
C692 H696 0.950 . S
C692 C701 1.390 . S
C693 C692 1.387 . S
C693 C695 1.387 . S
H694 C701 0.950 . S
C695 C693 1.387 . S
C695 C697 1.390 . S
C695 H699 0.950 . S
H696 C692 0.950 . S
C697 C695 1.390 . S
C697 C698 1.387 . S
C697 H700 0.950 . S
C698 C697 1.387 . S
C698 C701 1.387 . S
H699 C695 0.950 . S
H700 C697 0.950 . S
C701 C692 1.390 . S
C701 H694 0.950 . S
C701 C698 1.387 . S
C702 C703 1.387 . S
C702 H706 0.950 . S
C702 C711 1.390 . S
C703 C702 1.387 . S
C703 C705 1.387 . S
H704 C711 0.950 . S
C705 C703 1.387 . S
C705 C707 1.390 . S
C705 H709 0.950 . S
H706 C702 0.950 . S
C707 C705 1.390 . S
C707 C708 1.387 . S
C707 H710 0.950 . S
C708 C707 1.387 . S
C708 C711 1.387 . S
H709 C705 0.950 . S
H710 C707 0.950 . S
C711 C702 1.390 . S
C711 H704 0.950 . S
C711 C708 1.387 . S
C712 C713 1.387 . S
C712 H716 0.950 . S
C712 C721 1.390 . S
C713 C712 1.387 . S
C713 C715 1.387 . S
H714 C721 0.950 . S
C715 C713 1.387 . S
C715 C717 1.390 . S
C715 H719 0.950 . S
H716 C712 0.950 . S
C717 C715 1.390 . S
C717 C718 1.387 . S
C717 H720 0.950 . S
C718 C717 1.387 . S
C718 C721 1.387 . S
H719 C715 0.950 . S
H720 C717 0.950 . S
C721 C712 1.390 . S
C721 H714 0.950 . S
C721 C718 1.387 . S
C722 C723 1.387 . S
C722 H726 0.950 . S
C722 C731 1.390 . S
C723 C722 1.387 . S
C723 C725 1.387 . S
H724 C731 0.950 . S
C725 C723 1.387 . S
C725 C727 1.390 . S
C725 H729 0.950 . S
H726 C722 0.950 . S
C727 C725 1.390 . S
C727 C728 1.387 . S
C727 H730 0.950 . S
C728 C727 1.387 . S
C728 C731 1.387 . S
H729 C725 0.950 . S
H730 C727 0.950 . S
C731 C722 1.390 . S
C731 H724 0.950 . S
C731 C728 1.387 . S
C732 C733 1.387 . S
C732 H736 0.950 . S
C732 C741 1.390 . S
C733 C732 1.387 . S
C733 C735 1.387 . S
H734 C741 0.950 . S
C735 C733 1.387 . S
C735 C737 1.390 . S
C735 H739 0.950 . S
H736 C732 0.950 . S
C737 C735 1.390 . S
C737 C738 1.387 . S
C737 H740 0.950 . S
C738 C737 1.387 . S
C738 C741 1.387 . S
H739 C735 0.950 . S
H740 C737 0.950 . S
C741 C732 1.390 . S
C741 H734 0.950 . S
C741 C738 1.387 . S
C742 C743 1.387 . S
C742 H746 0.950 . S
C742 C751 1.390 . S
C743 C742 1.387 . S
C743 C745 1.387 . S
H744 C751 0.950 . S
C745 C743 1.387 . S
C745 C747 1.390 . S
C745 H749 0.950 . S
H746 C742 0.950 . S
C747 C745 1.390 . S
C747 C748 1.387 . S
C747 H750 0.950 . S
C748 C747 1.387 . S
C748 C751 1.387 . S
H749 C745 0.950 . S
H750 C747 0.950 . S
C751 C742 1.390 . S
C751 H744 0.950 . S
C751 C748 1.387 . S
C752 C753 1.387 . S
C752 H756 0.950 . S
C752 C761 1.390 . S
C753 C752 1.387 . S
C753 C755 1.387 . S
H754 C761 0.950 . S
C755 C753 1.387 . S
C755 C757 1.390 . S
C755 H759 0.950 . S
H756 C752 0.950 . S
C757 C755 1.390 . S
C757 C758 1.387 . S
C757 H760 0.950 . S
C758 C757 1.387 . S
C758 C761 1.387 . S
H759 C755 0.950 . S
H760 C757 0.950 . S
C761 C752 1.390 . S
C761 H754 0.950 . S
C761 C758 1.387 . S
C762 C763 1.387 . S
C762 H766 0.950 . S
C762 C771 1.390 . S
C763 C762 1.387 . S
C763 C765 1.387 . S
H764 C771 0.950 . S
C765 C763 1.387 . S
C765 C767 1.390 1_565 S
C765 H769 0.950 . S
H766 C762 0.950 . S
C767 C765 1.390 1_545 S
C767 C768 1.387 1_545 S
C767 H770 0.950 . S
C768 C767 1.387 1_565 S
C768 C771 1.387 . S
H769 C765 0.950 . S
H770 C767 0.950 . S
C771 C762 1.390 . S
C771 H764 0.950 . S
C771 C768 1.387 . S
C772 C773 1.387 . S
C772 H776 0.950 . S
C772 C781 1.390 . S
C773 C772 1.387 . S
C773 C775 1.387 . S
H774 C781 0.950 . S
C775 C773 1.387 . S
C775 C777 1.390 . S
C775 H779 0.950 . S
H776 C772 0.950 . S
C777 C775 1.390 . S
C777 C778 1.387 . S
C777 H780 0.950 . S
C778 C777 1.387 . S
C778 C781 1.387 . S
H779 C775 0.950 . S
H780 C777 0.950 . S
C781 C772 1.390 . S
C781 H774 0.950 . S
C781 C778 1.387 . S
C782 C783 1.387 . S
C782 H786 0.950 . S
C782 C791 1.390 . S
C783 C782 1.387 . S
C783 C785 1.387 . S
H784 C791 0.950 . S
C785 C783 1.387 . S
C785 C787 1.390 1_545 S
C785 H789 0.950 1_545 S
H786 C782 0.950 . S
C787 C785 1.390 1_565 S
C787 C788 1.387 1_565 S
C787 H790 0.950 . S
C788 C787 1.387 1_545 S
C788 C791 1.387 . S
H789 C785 0.950 1_565 S
H790 C787 0.950 . S
C791 C782 1.390 . S
C791 H784 0.950 . S
C791 C788 1.387 . S
C792 C793 1.387 . S
C792 H796 0.950 . S
C792 C801 1.390 . S
C793 C792 1.387 . S
C793 C795 1.387 . S
H794 C801 0.950 . S
C795 C793 1.387 . S
C795 C797 1.390 . S
C795 H799 0.950 . S
H796 C792 0.950 . S
C797 C795 1.390 . S
C797 C798 1.387 . S
C797 H800 0.950 . S
C798 C797 1.387 . S
C798 C801 1.387 . S
H799 C795 0.950 . S
H800 C797 0.950 . S
C801 C792 1.390 . S
C801 H794 0.950 . S
C801 C798 1.387 . S
C802 C803 1.387 1_565 S
C802 H806 0.950 . S
C802 C811 1.385 1_565 S
C803 C802 1.387 1_545 S
C803 C805 1.387 . S
H804 C811 0.941 1_565 S
C805 C803 1.387 . S
C805 C807 1.390 . S
C805 H809 0.950 . S
H806 C802 0.950 . S
C807 C805 1.390 . S
C807 C808 1.387 . S
C807 H810 0.950 . S
C808 C807 1.387 . S
C808 C811 1.401 . S
H809 C805 0.950 . S
H810 C807 0.950 . S
C811 C802 1.385 1_545 S
C811 H804 0.941 1_545 S
C811 C808 1.401 . S
C812 C813 1.387 . S
C812 H816 0.950 . S
C812 C821 1.390 . S
C813 C812 1.387 . S
C813 C815 1.387 . S
H814 C821 0.950 . S
C815 C813 1.387 . S
C815 C817 1.390 . S
C815 H819 0.950 . S
H816 C812 0.950 . S
C817 C815 1.390 . S
C817 C818 1.387 . S
C817 H820 0.950 . S
C818 C817 1.387 . S
C818 C821 1.387 . S
H819 C815 0.950 . S
H820 C817 0.950 . S
C821 C812 1.390 . S
C821 H814 0.950 . S
C821 C818 1.387 . S
C822 C823 1.387 . S
C822 H826 0.950 . S
C822 C831 1.390 . S
C823 C822 1.387 . S
C823 C825 1.387 1_565 S
H824 C831 0.950 . S
C825 C823 1.387 1_545 S
C825 C827 1.390 1_545 S
C825 H829 0.950 . S
H826 C822 0.950 . S
C827 C825 1.390 1_565 S
C827 C828 1.387 . S
C827 H830 0.950 1_565 S
C828 C827 1.387 . S
C828 C831 1.387 . S
H829 C825 0.950 . S
H830 C827 0.950 1_545 S
C831 C822 1.390 . S
C831 H824 0.950 . S
C831 C828 1.387 . S
C832 C833 1.387 . S
C832 H836 0.950 . S
C832 C841 1.390 . S
C833 C832 1.387 . S
C833 C835 1.387 . S
H834 C841 0.950 . S
C835 C833 1.387 . S
C835 C837 1.390 . S
C835 H839 0.950 . S
H836 C832 0.950 . S
C837 C835 1.390 . S
C837 C838 1.387 . S
C837 H840 0.950 . S
C838 C837 1.387 . S
C838 C841 1.387 . S
H839 C835 0.950 . S
H840 C837 0.950 . S
C841 C832 1.390 . S
C841 H834 0.950 . S
C841 C838 1.387 . S
C842 C843 1.387 . S
C842 H846 0.950 . S
C842 C851 1.390 . S
C843 C842 1.387 . S
C843 C845 1.387 . S
H844 C851 0.950 . S
C845 C843 1.387 . S
C845 C847 1.390 . S
C845 H849 0.950 . S
H846 C842 0.950 . S
C847 C845 1.390 . S
C847 C848 1.387 . S
C847 H850 0.950 . S
C848 C847 1.387 . S
C848 C851 1.387 . S
H849 C845 0.950 . S
H850 C847 0.950 . S
C851 C842 1.390 . S
C851 H844 0.950 . S
C851 C848 1.387 . S
C852 C853 1.387 . S
C852 H856 0.950 . S
C852 C861 1.390 . S
C853 C852 1.387 . S
C853 C855 1.387 . S
H854 C861 0.950 . S
C855 C853 1.387 . S
C855 C857 1.390 . S
C855 H859 0.950 . S
H856 C852 0.950 . S
C857 C855 1.390 . S
C857 C858 1.387 . S
C857 H860 0.950 . S
C858 C857 1.387 . S
C858 C861 1.387 . S
H859 C855 0.950 . S
H860 C857 0.950 . S
C861 C852 1.390 . S
C861 H854 0.950 . S
C861 C858 1.387 . S
C862 C863 1.387 . S
C862 H866 0.950 . S
C862 C871 1.390 . S
C863 C862 1.387 . S
C863 C865 1.387 . S
H864 C871 0.950 . S
C865 C863 1.387 . S
C865 C867 1.390 . S
C865 H869 0.950 . S
H866 C862 0.950 . S
C867 C865 1.390 . S
C867 C868 1.387 . S
C867 H870 0.950 . S
C868 C867 1.387 . S
C868 C871 1.387 . S
H869 C865 0.950 . S
H870 C867 0.950 . S
C871 C862 1.390 . S
C871 H864 0.950 . S
C871 C868 1.387 . S
C872 C873 1.387 . S
C872 H876 0.950 . S
C872 C881 1.390 . S
C873 C872 1.387 . S
C873 C875 1.387 . S
H874 C881 0.950 . S
C875 C873 1.387 . S
C875 C877 1.390 . S
C875 H879 0.950 . S
H876 C872 0.950 . S
C877 C875 1.390 . S
C877 C878 1.387 . S
C877 H880 0.950 . S
C878 C877 1.387 . S
C878 C881 1.387 . S
H879 C875 0.950 . S
H880 C877 0.950 . S
C881 C872 1.390 . S
C881 H874 0.950 . S
C881 C878 1.387 . S
C882 C883 1.387 . S
C882 H886 0.950 . S
C882 C891 1.390 . S
C883 C882 1.387 . S
C883 C885 1.387 . S
H884 C891 0.950 . S
C885 C883 1.387 . S
C885 C887 1.390 . S
C885 H889 0.950 . S
H886 C882 0.950 . S
C887 C885 1.390 . S
C887 C888 1.387 . S
C887 H890 0.950 . S
C888 C887 1.387 . S
C888 C891 1.387 . S
H889 C885 0.950 . S
H890 C887 0.950 . S
C891 C882 1.390 . S
C891 H884 0.950 . S
C891 C888 1.387 . S
C892 C893 1.387 . S
C892 H896 0.950 . S
C892 C901 1.390 . S
C893 C892 1.387 . S
C893 C895 1.387 . S
H894 C901 0.950 . S
C895 C893 1.387 . S
C895 C897 1.390 . S
C895 H899 0.950 . S
H896 C892 0.950 . S
C897 C895 1.390 . S
C897 C898 1.387 . S
C897 H900 0.950 . S
C898 C897 1.387 . S
C898 C901 1.387 . S
H899 C895 0.950 . S
H900 C897 0.950 . S
C901 C892 1.390 . S
C901 H894 0.950 . S
C901 C898 1.387 . S
C902 C903 1.387 . S
C902 H906 0.950 . S
C902 C911 1.390 . S
C903 C902 1.387 . S
C903 C905 1.387 . S
H904 C911 0.950 1_655 S
C905 C903 1.387 . S
C905 C907 1.390 . S
C905 H909 0.950 . S
H906 C902 0.950 . S
C907 C905 1.390 . S
C907 C908 1.387 . S
C907 H910 0.950 . S
C908 C907 1.387 . S
C908 C911 1.387 . S
H909 C905 0.950 . S
H910 C907 0.950 . S
C911 C902 1.390 . S
C911 H904 0.950 1_455 S
C911 C908 1.387 . S
C912 C913 1.387 . S
C912 H916 0.950 . S
C912 C921 1.390 . S
C913 C912 1.387 . S
C913 C915 1.387 . S
H914 C921 0.950 . S
C915 C913 1.387 . S
C915 C917 1.390 . S
C915 H919 0.950 . S
H916 C912 0.950 . S
C917 C915 1.390 . S
C917 C918 1.387 . S
C917 H920 0.950 . S
C918 C917 1.387 . S
C918 C921 1.387 . S
H919 C915 0.950 . S
H920 C917 0.950 . S
C921 C912 1.390 . S
C921 H914 0.950 . S
C921 C918 1.387 . S
C922 C923 1.387 . S
C922 H926 0.950 1_565 S
C922 C931 1.390 1_565 S
C923 C922 1.387 . S
C923 C925 1.387 . S
H924 C931 0.950 . S
C925 C923 1.387 . S
C925 C927 1.390 . S
C925 H929 0.950 . S
H926 C922 0.950 1_545 S
C927 C925 1.390 . S
C927 C928 1.387 . S
C927 H930 0.950 . S
C928 C927 1.387 . S
C928 C931 1.387 1_565 S
H929 C925 0.950 . S
H930 C927 0.950 . S
C931 C922 1.390 1_545 S
C931 H924 0.950 . S
C931 C928 1.387 1_545 S
C932 C933 1.387 . S
C932 H936 0.950 . S
C932 C941 1.390 . S
C933 C932 1.387 . S
C933 C935 1.387 . S
H934 C941 0.950 . S
C935 C933 1.387 . S
C935 C937 1.390 . S
C935 H939 0.950 . S
H936 C932 0.950 . S
C937 C935 1.390 . S
C937 C938 1.387 . S
C937 H940 0.950 . S
C938 C937 1.387 . S
C938 C941 1.387 . S
H939 C935 0.950 . S
H940 C937 0.950 . S
C941 C932 1.390 . S
C941 H934 0.950 . S
C941 C938 1.387 . S
C942 C943 1.387 . S
C942 H946 0.950 . S
C942 C951 1.390 . S
C943 C942 1.387 . S
C943 C945 1.387 1_545 S
H944 C951 0.950 . S
C945 C943 1.387 1_565 S
C945 C947 1.390 1_565 S
C945 H949 0.950 . S
H946 C942 0.950 . S
C947 C945 1.390 1_545 S
C947 C948 1.387 . S
C947 H950 0.950 1_545 S
C948 C947 1.387 . S
C948 C951 1.387 . S
H949 C945 0.950 . S
H950 C947 0.950 1_565 S
C951 C942 1.390 . S
C951 H944 0.950 . S
C951 C948 1.387 . S
C952 C953 1.387 . S
C952 H956 0.950 . S
C952 C961 1.390 . S
C953 C952 1.387 . S
C953 C955 1.387 . S
H954 C961 0.950 . S
C955 C953 1.387 . S
C955 C957 1.390 . S
C955 H959 0.950 . S
H956 C952 0.950 . S
C957 C955 1.390 . S
C957 C958 1.387 . S
C957 H960 0.950 . S
C958 C957 1.387 . S
C958 C961 1.387 . S
H959 C955 0.950 . S
H960 C957 0.950 . S
C961 C952 1.390 . S
C961 H954 0.950 . S
C961 C958 1.387 . S
C962 C963 1.387 . S
C962 H966 0.950 . S
C962 C971 1.390 1_545 S
C963 C962 1.387 . S
C963 C965 1.387 . S
H964 C971 0.950 1_455 S
C965 C963 1.387 . S
C965 C967 1.390 . S
C965 H969 0.950 . S
H966 C962 0.950 . S
C967 C965 1.390 . S
C967 C968 1.387 . S
C967 H970 0.950 . S
C968 C967 1.387 . S
C968 C971 1.387 1_545 S
H969 C965 0.950 . S
H970 C967 0.950 . S
C971 C962 1.390 1_565 S
C971 H964 0.950 1_655 S
C971 C968 1.387 1_565 S
C972 C973 1.387 . S
C972 H976 0.950 . S
C972 C981 1.390 . S
C973 C972 1.387 . S
C973 C975 1.387 . S
H974 C981 0.950 . S
C975 C973 1.387 . S
C975 C977 1.390 . S
C975 H979 0.950 . S
H976 C972 0.950 . S
C977 C975 1.390 . S
C977 C978 1.387 . S
C977 H980 0.950 . S
C978 C977 1.387 . S
C978 C981 1.387 . S
H979 C975 0.950 . S
H980 C977 0.950 . S
C981 C972 1.390 . S
C981 H974 0.950 . S
C981 C978 1.387 . S
C982 C983 1.387 . S
C982 H986 0.950 1_565 S
C982 C991 1.390 1_565 S
C983 C982 1.387 . S
C983 C985 1.387 . S
H984 C991 0.950 . S
C985 C983 1.387 . S
C985 C987 1.390 . S
C985 H989 0.950 . S
H986 C982 0.950 1_545 S
C987 C985 1.390 . S
C987 C988 1.387 . S
C987 H990 0.950 . S
C988 C987 1.387 . S
C988 C991 1.387 1_565 S
H989 C985 0.950 . S
H990 C987 0.950 . S
C991 C982 1.390 1_545 S
C991 H984 0.950 . S
C991 C988 1.387 1_545 S
C513 C29 0.559 . S
C518 C349 0.559 . S
C523 C36 0.566 . S
C528 C381 0.566 . S
C533 C93 0.558 . S
C538 C285 0.558 . S
C543 C292 0.558 1_655 S
C548 C125 0.558 1_455 S
C553 C157 0.567 . S
C558 C452 0.567 . S
C563 C509 0.558 . S
C568 C164 0.558 . S
C573 C413 0.558 . S
C578 C221 0.558 . S
C583 C253 0.567 1_655 S
C588 C420 0.567 1_455 S
C593 C6 2.769 . S
C598 C134 2.769 . S
C603 C34 2.768 . S
C608 C418 2.768 . S
C613 C70 2.769 . S
C618 C198 2.769 . S
C623 C102 2.768 . S
C628 C486 2.768 . S
C633 C162 2.768 . S
C638 C290 2.768 . S
C643 C358 2.769 . S
C648 C230 2.769 . S
C653 C390 2.768 . S
C658 C262 2.768 . S
C663 C326 2.769 . S
C668 C450 2.769 . S
C673 C4 2.018 . S
C678 C226 1.998 . S
C683 C61 2.019 . S
C688 C386 1.999 . S
C693 C68 2.018 . S
C698 C166 1.997 . S
C703 C100 2.019 . S
C708 C454 1.999 . S
C713 C98 1.998 . S
C718 C132 2.019 . S
C723 C189 2.019 . S
C728 C258 1.998 . S
C733 C196 2.019 . S
C738 C38 1.999 . S
C743 C322 1.998 . S
C748 C228 2.019 . S
C753 C260 2.019 . S
C758 C482 2.010 . S
C763 C130 1.999 . S
C768 C317 2.019 1_565 S
C773 C422 2.009 . S
C778 C324 2.018 . S
C783 C194 1.999 . S
C788 C356 2.019 1_545 S
C793 C388 2.019 . S
C798 C354 2.010 . S
C803 C445 2.019 1_545 S
C808 C2 1.999 . S
C813 C294 2.010 . S
C818 C477 2.019 . S
C823 C484 2.019 1_565 S
C828 C66 1.998 . S
C833 N13 0.939 . S
C838 N301 0.957 . S
C843 N338 0.954 . S
C848 N50 0.934 . S
C853 N77 0.939 . S
C858 N370 0.956 . S
C863 N274 0.953 . S
C868 N109 0.936 . S
C873 N429 0.953 . S
C878 N141 0.933 . S
C883 N461 0.956 . S
C888 N178 0.939 . S
C893 N498 0.954 . S
C898 N205 0.934 . S
C903 N402 0.957 . S
C908 N237 0.939 . S
C913 N45 0.956 . S
C918 N269 0.939 . S
C923 N82 0.956 . S
C928 N306 0.937 . S
C933 N114 0.953 . S
C938 N333 0.933 . S
C943 N365 0.935 . S
C948 N18 0.953 . S
C953 N173 0.953 . S
C958 N397 0.933 . S
C963 N210 0.954 . S
C968 N434 0.937 . S
C973 N242 0.957 . S
C978 N466 0.939 . S
C983 N146 0.953 . S
C988 N493 0.934 . S
